# Generated by pormake.
# Topology wje, (4)-cn, num edge types: 1
# Building blocks:
#     Node 0, Type 0, BuildingBlock: AZAVOO_clean_sbu_0, # of connection points: 4
#     Node 1, Type 0, BuildingBlock: AZAVOO_clean_sbu_0, # of connection points: 4
#     Node 2, Type 0, BuildingBlock: AZAVOO_clean_sbu_0, # of connection points: 4
#     Node 3, Type 0, BuildingBlock: AZAVOO_clean_sbu_0, # of connection points: 4
#     Node 4, Type 0, BuildingBlock: AZAVOO_clean_sbu_0, # of connection points: 4
#     Node 5, Type 0, BuildingBlock: AZAVOO_clean_sbu_0, # of connection points: 4
#     Node 6, Type 0, BuildingBlock: AZAVOO_clean_sbu_0, # of connection points: 4
#     Node 7, Type 0, BuildingBlock: AZAVOO_clean_sbu_0, # of connection points: 4
#     Node 8, Type 0, BuildingBlock: AZAVOO_clean_sbu_0, # of connection points: 4
#     Node 9, Type 0, BuildingBlock: AZAVOO_clean_sbu_0, # of connection points: 4
#     Node 10, Type 0, BuildingBlock: AZAVOO_clean_sbu_0, # of connection points: 4
#     Node 11, Type 0, BuildingBlock: AZAVOO_clean_sbu_0, # of connection points: 4
#     Edge 12, Type (0, 0), BuildingBlock: XIVTED_clean_linker_0, # of connection points: 2
#     Edge 13, Type (0, 0), BuildingBlock: XIVTED_clean_linker_0, # of connection points: 2
#     Edge 14, Type (0, 0), BuildingBlock: XIVTED_clean_linker_0, # of connection points: 2
#     Edge 15, Type (0, 0), BuildingBlock: XIVTED_clean_linker_0, # of connection points: 2
#     Edge 16, Type (0, 0), BuildingBlock: XIVTED_clean_linker_0, # of connection points: 2
#     Edge 17, Type (0, 0), BuildingBlock: XIVTED_clean_linker_0, # of connection points: 2
#     Edge 18, Type (0, 0), BuildingBlock: XIVTED_clean_linker_0, # of connection points: 2
#     Edge 19, Type (0, 0), BuildingBlock: XIVTED_clean_linker_0, # of connection points: 2
#     Edge 20, Type (0, 0), BuildingBlock: XIVTED_clean_linker_0, # of connection points: 2
#     Edge 21, Type (0, 0), BuildingBlock: XIVTED_clean_linker_0, # of connection points: 2
#     Edge 22, Type (0, 0), BuildingBlock: XIVTED_clean_linker_0, # of connection points: 2
#     Edge 23, Type (0, 0), BuildingBlock: XIVTED_clean_linker_0, # of connection points: 2
#     Edge 24, Type (0, 0), BuildingBlock: XIVTED_clean_linker_0, # of connection points: 2
#     Edge 25, Type (0, 0), BuildingBlock: XIVTED_clean_linker_0, # of connection points: 2
#     Edge 26, Type (0, 0), BuildingBlock: XIVTED_clean_linker_0, # of connection points: 2
#     Edge 27, Type (0, 0), BuildingBlock: XIVTED_clean_linker_0, # of connection points: 2
#     Edge 28, Type (0, 0), BuildingBlock: XIVTED_clean_linker_0, # of connection points: 2
#     Edge 29, Type (0, 0), BuildingBlock: XIVTED_clean_linker_0, # of connection points: 2
#     Edge 30, Type (0, 0), BuildingBlock: XIVTED_clean_linker_0, # of connection points: 2
#     Edge 31, Type (0, 0), BuildingBlock: XIVTED_clean_linker_0, # of connection points: 2
#     Edge 32, Type (0, 0), BuildingBlock: XIVTED_clean_linker_0, # of connection points: 2
#     Edge 33, Type (0, 0), BuildingBlock: XIVTED_clean_linker_0, # of connection points: 2
#     Edge 34, Type (0, 0), BuildingBlock: XIVTED_clean_linker_0, # of connection points: 2
#     Edge 35, Type (0, 0), BuildingBlock: XIVTED_clean_linker_0, # of connection points: 2
# Relax obj value: 0.161
# Max RMSD: 0.140
# Mean RMSD: 0.139
data_MOF--net-wje--node1-AZAVOO_clean_sbu_0--edge1-XIVTED_clean_linker_0
_symmetry_space_group_name_H-M    P1
_symmetry_Int_Tables_number       1
_symmetry_cell_setting            triclinic
loop_
_symmetry_equiv_pos_as_xyz
'x, y, z'
_cell_length_a     44.391944
_cell_length_b     44.448347
_cell_length_c     29.684979
_cell_angle_alpha  89.782147
_cell_angle_beta   90.081578
_cell_angle_gamma 119.99989
loop_
_atom_site_label
_atom_site_type_symbol
_atom_site_fract_x
_atom_site_fract_y
_atom_site_fract_z
_atom_type_partial_charge
Mg0 Mg 0.32758 0.00954 0.2016 0.0
O1 O 0.33407 0.0093 0.2777 0.0
O2 O 0.38274 0.05531 0.30182 0.0
Mg3 Mg 0.4088 0.08657 0.23788 0.0
C4 C 0.35467 0.02686 0.30934 0.0
C5 C 0.27188 0.93985 0.2354 0.0
O6 O 0.30165 0.94091 0.24191 0.0
O7 O 0.31209 0.05163 0.20699 0.0
O8 O 0.36351 0.09652 0.22737 0.0
O9 O 0.35924 0.98344 0.1927 0.0
O10 O 0.38195 0.04029 0.19416 0.0
C11 C 0.33144 0.08366 0.21717 0.0
C12 C 0.38661 0.01399 0.19254 0.0
O13 O 0.27198 0.96497 0.21448 0.0
Mg14 Mg 0.34999 0.31488 0.57701 0.0
O15 O 0.35378 0.33727 0.64671 0.0
O16 O 0.36945 0.39332 0.64324 0.0
Mg17 Mg 0.37233 0.40596 0.56754 0.0
C18 C 0.36152 0.36584 0.66575 0.0
C19 C 0.30032 0.23398 0.60059 0.0
O20 O 0.28312 0.23229 0.56375 0.0
O21 O 0.29671 0.31047 0.56611 0.0
O22 O 0.31453 0.36693 0.55673 0.0
O23 O 0.40797 0.33562 0.57775 0.0
O24 O 0.383 0.36407 0.55069 0.0
C25 C 0.29056 0.33503 0.55702 0.0
C26 C 0.41103 0.36373 0.56021 0.0
O27 O 0.32677 0.26253 0.61175 0.0
Mg28 Mg 0.96901 0.29018 0.94433 0.0
O29 O 0.96532 0.29359 0.02085 0.0
O30 O 0.92073 0.30129 0.03796 0.0
Mg31 Mg 0.89627 0.30378 0.97127 0.0
C32 C 0.94646 0.29779 0.04966 0.0
C33 C 0.03095 0.2769 0.93029 0.0
O34 O 0.03392 0.29434 0.89313 0.0
O35 O 0.92188 0.23542 0.9415 0.0
O36 O 0.87941 0.24727 0.95513 0.0
O37 O 0.00304 0.34795 0.94194 0.0
O38 O 0.9458 0.32054 0.93542 0.0
C39 C 0.88968 0.22585 0.94555 0.0
C40 C 0.97472 0.34942 0.93834 0.0
O41 O 0.0058 0.26964 0.95679 0.0
Mg42 Mg 0.68196 0.04311 0.22097 0.0
O43 O 0.66237 0.01945 0.29044 0.0
O44 O 0.60999 0.97196 0.28776 0.0
Mg45 Mg 0.59843 0.9617 0.2123 0.0
C46 C 0.63609 -0.00531 0.30984 0.0
C47 C 0.72987 0.09583 0.28938 0.0
O48 O 0.69897 0.09165 0.29784 0.0
O49 O 0.69836 0.003 0.20641 0.0
O50 O 0.646 0.95489 0.20149 0.0
O51 O 0.65097 0.07014 0.22469 0.0
O52 O 0.63068 0.01766 0.19636 0.0
C53 C 0.67919 0.97037 0.20014 0.0
C54 C 0.62517 0.04237 0.20787 0.0
O55 O 0.73338 0.07998 0.25595 0.0
Mg56 Mg 0.67388 0.66047 0.55616 0.0
O57 O 0.67078 0.65398 0.63248 0.0
O58 O 0.67516 0.60855 0.65516 0.0
Mg59 Mg 0.68131 0.58485 0.58976 0.0
C60 C 0.6715 0.63464 0.66366 0.0
C61 C 0.65494 0.71143 0.5932 0.0
O62 O 0.6287 0.68036 0.6021 0.0
O63 O 0.73217 0.68154 0.55749 0.0
O64 O 0.73444 0.63391 0.57651 0.0
O65 O 0.61714 0.62575 0.55057 0.0
O66 O 0.65439 0.60652 0.54914 0.0
C67 C 0.74926 0.66608 0.56579 0.0
C68 C 0.62254 0.59976 0.54962 0.0
O69 O 0.67994 0.71394 0.56941 0.0
Mg70 Mg 0.9609 0.62285 0.91249 0.0
O71 O 0.97865 0.63518 0.98584 0.0
O72 O 0.02914 0.6364 0.99492 0.0
Mg73 Mg 0.0439 0.62493 0.92597 0.0
C74 C 0.00381 0.63902 0.01062 0.0
C75 C 0.92681 0.66604 0.94804 0.0
O76 O 0.9592 0.68928 0.95734 0.0
O77 O 0.0007 0.67705 0.889 0.0
O78 O 0.05039 0.67613 0.89747 0.0
O79 O 0.93395 0.56708 0.92952 0.0
O80 O 0.9885 0.59631 0.90571 0.0
C81 C 0.03369 0.69147 0.88604 0.0
C82 C 0.96289 0.56775 0.921 0.0
O83 O 0.92028 0.63825 0.92783 0.0
Mg84 Mg 0.02829 0.6774 0.4446 0.0
O85 O 0.01385 0.66451 0.37037 0.0
O86 O 0.96331 0.61498 0.3644 0.0
Mg87 Mg 0.94558 0.59552 0.43622 0.0
C88 C 0.9895 0.64114 0.34664 0.0
C89 C 0.06405 0.74919 0.39284 0.0
O90 O 0.03238 0.73703 0.37712 0.0
O91 O 0.98763 0.69382 0.45397 0.0
O92 O 0.93836 0.64251 0.44917 0.0
O93 O 0.05525 0.64665 0.44315 0.0
O94 O -0.0002 0.62446 0.46102 0.0
C95 C 0.95453 0.67542 0.45452 0.0
C96 C 0.0257 0.6197 0.4535 0.0
O97 O 0.06975 0.73171 0.42223 0.0
Mg98 Mg 0.29254 0.96132 0.73446 0.0
O99 O 0.29521 0.95943 0.65783 0.0
O100 O 0.29832 0.91288 0.63716 0.0
Mg101 Mg 0.29836 0.88517 0.70236 0.0
C102 C 0.29747 0.94044 0.6275 0.0
C103 C 0.28664 0.0281 0.74809 0.0
O104 O 0.30893 0.03347 0.78054 0.0
O105 O 0.237 0.91733 0.73674 0.0
O106 O 0.24207 0.87109 0.71987 0.0
O107 O 0.34986 0.99226 0.73572 0.0
O108 O 0.3202 0.93481 0.74009 0.0
C109 C 0.22377 0.88473 0.73121 0.0
C110 C 0.34983 0.9631 0.73694 0.0
O111 O 0.27456 0.00046 0.72511 0.0
Mg112 Mg 0.32514 0.35965 0.09411 0.0
O113 O 0.34463 0.3602 0.0231 0.0
O114 O 0.40036 0.37408 0.02408 0.0
Mg115 Mg 0.41548 0.37897 0.09891 0.0
C116 C 0.37244 0.36645 0.00282 0.0
C117 C 0.24397 0.30844 0.07746 0.0
O118 O 0.24524 0.29246 0.11412 0.0
O119 O 0.31958 0.30645 0.1078 0.0
O120 O 0.37566 0.32173 0.11363 0.0
O121 O 0.34668 0.41732 0.08905 0.0
O122 O 0.37578 0.39296 0.11605 0.0
C123 C 0.34334 0.29894 0.11573 0.0
C124 C 0.37554 0.42072 0.10441 0.0
O125 O 0.27117 0.33544 0.06374 0.0
Mg126 Mg 0.00092 0.32655 0.48026 0.0
O127 O 0.00154 0.33087 0.40359 0.0
O128 O 0.04688 0.3807 0.38025 0.0
Mg129 Mg 0.07615 0.40879 0.44417 0.0
C130 C 0.01953 0.35175 0.37218 0.0
C131 C 0.92845 0.26031 0.4813 0.0
O132 O 0.92226 0.28147 0.50518 0.0
O133 O 0.04501 0.31385 0.47872 0.0
O134 O 0.08887 0.36551 0.45684 0.0
O135 O 0.97125 0.35494 0.48345 0.0
O136 O 0.02857 0.38085 0.48555 0.0
C137 C 0.07694 0.33384 0.46842 0.0
C138 C 0.00097 0.38345 0.48392 0.0
O139 O 0.95956 0.27006 0.46987 0.0
Mg140 Mg 0.63534 0.97046 0.74192 0.0
O141 O 0.64145 0.98875 0.66872 0.0
O142 O 0.6292 0.03164 0.6639 0.0
Mg143 Mg 0.61887 0.04326 0.7355 0.0
C144 C 0.63746 0.01079 0.64576 0.0
C145 C 0.64778 0.90884 0.7417 0.0
O146 O 0.62506 0.90081 0.7744 0.0
O147 O 0.68781 0.01674 0.76149 0.0
O148 O 0.67345 0.05826 0.76081 0.0
O149 O 0.57814 0.93547 0.73046 0.0
O150 O 0.60162 0.98934 0.7551 0.0
C151 C 0.69523 0.04802 0.76861 0.0
C152 C 0.57437 0.96142 0.74213 0.0
O153 O 0.65942 0.93795 0.72203 0.0
Mg154 Mg 0.66749 0.69159 0.09126 0.0
O155 O 0.66222 0.68723 0.01458 0.0
O156 O 0.61453 0.68821 0.9932 0.0
Mg157 Mg 0.58895 0.69316 0.05742 0.0
C158 C 0.64151 0.68617 0.984 0.0
C159 C 0.72872 0.67762 0.09013 0.0
O160 O 0.70368 0.64879 0.10777 0.0
O161 O 0.68481 0.74903 0.08972 0.0
O162 O 0.63549 0.74797 0.07079 0.0
O163 O 0.63594 0.63445 0.09594 0.0
O164 O 0.6131 0.66865 0.09759 0.0
C165 C 0.66767 0.76445 0.08164 0.0
C166 C 0.60854 0.63762 0.09677 0.0
O167 O 0.72307 0.70247 0.0821 0.0
H168 H 0.28318 0.08148 0.1568 0.0
H169 H 0.28129 0.23704 0.1055 0.0
H170 H 0.35256 0.14335 0.26326 0.0
H171 H 0.38356 0.28105 0.16467 0.0
H172 H 0.26746 0.17968 0.13553 0.0
H173 H 0.27758 0.13163 0.13372 0.0
C174 C 0.29612 0.10514 0.17636 0.0
C175 C 0.31879 0.10851 0.21155 0.0
C176 C 0.29291 0.20197 0.14156 0.0
C177 C 0.31285 0.16571 0.18525 0.0
C178 C 0.3008 0.23463 0.12458 0.0
C179 C 0.33382 0.26377 0.13201 0.0
C180 C 0.31807 0.1989 0.1668 0.0
C181 C 0.358 0.25932 0.15736 0.0
C182 C 0.293 0.13379 0.16308 0.0
C183 C 0.33526 0.13983 0.23547 0.0
N184 N 0.34955 0.22766 0.17397 0.0
N185 N 0.33256 0.16737 0.22127 0.0
H186 H 0.22559 0.28 0.58004 0.0
H187 H 0.13281 0.35169 0.41541 0.0
H188 H 0.27675 0.37181 0.49653 0.0
H189 H 0.07924 0.28952 0.53175 0.0
H190 H 0.1821 0.34381 0.43219 0.0
H191 H 0.1688 0.27044 0.55247 0.0
C192 C 0.22487 0.29792 0.55583 0.0
C193 C 0.25581 0.32704 0.54106 0.0
C194 C 0.15941 0.33144 0.45381 0.0
C195 C 0.19177 0.31578 0.50878 0.0
C196 C 0.13122 0.3358 0.44409 0.0
C197 C 0.10226 0.32173 0.47268 0.0
C198 C 0.159 0.31333 0.49285 0.0
C199 C 0.10129 0.30093 0.50905 0.0
C200 C 0.19262 0.29245 0.54018 0.0
C201 C 0.25358 0.34938 0.50951 0.0
N202 N 0.12969 0.29788 0.51875 0.0
N203 N 0.22225 0.34325 0.49448 0.0
H204 H 0.75331 0.04177 0.78564 0.0
H205 H 0.82116 0.19159 0.96787 0.0
H206 H 0.70998 0.10837 0.80958 0.0
H207 H 0.89674 0.18085 0.8887 0.0
H208 H 0.77473 0.14364 0.92632 0.0
H209 H 0.80242 0.07925 0.83561 0.0
C210 C 0.75421 0.06429 0.80095 0.0
C211 C 0.72743 0.07191 0.79331 0.0
C212 C 0.80151 0.15137 0.91867 0.0
C213 C 0.78228 0.11348 0.85127 0.0
C214 C 0.82801 0.17856 0.94253 0.0
C215 C 0.86286 0.19076 0.931 0.0
C216 C 0.8098 0.13615 0.88309 0.0
C217 C 0.87017 0.17244 0.89832 0.0
C218 C 0.78205 0.08541 0.8295 0.0
C219 C 0.72989 0.10135 0.81416 0.0
N220 N 0.84374 0.1463 0.87472 0.0
N221 N 0.75651 0.12071 0.84248 0.0
H222 H 0.65744 0.81265 0.03775 0.0
H223 H 0.68877 0.92302 0.24686 0.0
H224 H 0.71283 0.8005 0.14934 0.0
H225 H 0.70146 0.96988 0.11588 0.0
H226 H 0.69907 0.87848 0.21338 0.0
H227 H 0.67411 0.87095 0.06474 0.0
C228 C 0.67379 0.82263 0.06734 0.0
C229 C 0.68368 0.80182 0.0915 0.0
C230 C 0.70075 0.89918 0.19224 0.0
C231 C 0.70185 0.86774 0.12322 0.0
C232 C 0.69499 0.92453 0.21135 0.0
C233 C 0.69475 0.95011 0.18399 0.0
C234 C 0.70485 0.89883 0.14534 0.0
C235 C 0.70194 0.95067 0.13797 0.0
C236 C 0.68336 0.85586 0.08265 0.0
C237 C 0.70479 0.81585 0.12971 0.0
N238 N 0.70589 0.92484 0.11978 0.0
N239 N 0.71242 0.84766 0.14517 0.0
H240 H 0.90224 0.67528 0.40684 0.0
H241 H 0.80002 0.66264 0.61331 0.0
H242 H 0.9583 0.70907 0.53212 0.0
H243 H 0.78293 0.70832 0.49462 0.0
H244 H 0.8587 0.68031 0.58612 0.0
H245 H 0.85849 0.68822 0.43677 0.0
C246 C 0.9058 0.68648 0.44014 0.0
C247 C 0.93374 0.69135 0.46713 0.0
C248 C 0.84247 0.68739 0.56673 0.0
C249 C 0.88348 0.70471 0.50205 0.0
C250 C 0.80906 0.67726 0.58216 0.0
C251 C 0.78676 0.68397 0.55601 0.0
C252 C 0.85296 0.70305 0.52416 0.0
C253 C 0.7995 0.7028 0.51576 0.0
C254 C 0.88096 0.69387 0.45717 0.0
C255 C 0.93713 0.70533 0.51031 0.0
N256 N 0.83147 0.71079 0.50029 0.0
N257 N 0.91166 0.7106 0.52706 0.0
H258 H 0.1894 0.8964 0.79848 0.0
H259 H 0.02325 0.70769 0.80157 0.0
H260 H 0.177 0.8199 0.69989 0.0
H261 H 0.08927 0.75041 0.9179 0.0
H262 H 0.06381 0.75958 0.75794 0.0
H263 H 0.13568 0.85279 0.83533 0.0
C264 C 0.17476 0.87081 0.78366 0.0
C265 C 0.18773 0.86154 0.74632 0.0
C266 C 0.06871 0.75786 0.79336 0.0
C267 C 0.12639 0.81222 0.78778 0.0
C268 C 0.04565 0.72858 0.81822 0.0
C269 C 0.05316 0.72514 0.86319 0.0
C270 C 0.09867 0.78402 0.81424 0.0
C271 C 0.08274 0.75238 0.88326 0.0
C272 C 0.14433 0.84604 0.80486 0.0
C273 C 0.16795 0.82792 0.72883 0.0
N274 N 0.10456 0.78082 0.85857 0.0
N275 N 0.13822 0.80428 0.74991 0.0
H276 H 0.44895 0.07497 0.19493 0.0
H277 H 0.56555 0.9861 0.17674 0.0
H278 H 0.4051 0.96367 0.19232 0.0
H279 H 0.60452 0.08901 0.23097 0.0
H280 H 0.50745 0.97895 0.17322 0.0
H281 H 0.50703 0.08207 0.19908 0.0
C282 C 0.45143 0.05198 0.19558 0.0
C283 C 0.42199 0.01862 0.19399 0.0
C284 C 0.5287 0.00301 0.1861 0.0
C285 C 0.48858 0.0267 0.19767 0.0
C286 C 0.56192 0.00712 0.18827 0.0
C287 C 0.58995 0.03803 0.20486 0.0
C288 C 0.5235 0.03022 0.19982 0.0
C289 C 0.58366 0.06465 0.21824 0.0
C290 C 0.48466 0.05611 0.19783 0.0
C291 C 0.42702 0.98986 0.19379 0.0
N292 N 0.5511 0.06018 0.21529 0.0
N293 N 0.45971 -0.00543 0.19548 0.0
H294 H 0.55468 0.57966 0.53654 0.0
H295 H 0.47526 0.37984 0.59509 0.0
H296 H 0.62244 0.53815 0.5639 0.0
H297 H 0.42382 0.42122 0.51332 0.0
H298 H 0.52909 0.43685 0.59104 0.0
H299 H 0.50518 0.52108 0.53692 0.0
C300 C 0.55919 0.5582 0.54277 0.0
C301 C 0.5928 0.56388 0.55029 0.0
C302 C 0.50596 0.43313 0.57382 0.0
C303 C 0.53592 0.49639 0.5508 0.0
C304 C 0.47534 0.40072 0.57608 0.0
C305 C 0.44486 0.39602 0.55526 0.0
C306 C 0.50566 0.46073 0.55094 0.0
C307 C 0.4464 0.42383 0.53084 0.0
C308 C 0.53087 0.52468 0.54274 0.0
C309 C 0.59696 0.53493 0.558 0.0
N310 N 0.47609 0.45497 0.52978 0.0
N311 N 0.56872 0.50228 0.55836 0.0
H312 H 0.91273 0.50412 0.95054 0.0
H313 H 0.031 0.41553 0.94476 0.0
H314 H 0.02054 0.56066 0.90983 0.0
H315 H 0.91901 0.35944 0.93367 0.0
H316 H 0.02985 0.47026 0.94497 0.0
H317 H 0.91707 0.45189 0.95907 0.0
C318 C 0.93742 0.50565 0.94369 0.0
C319 C 0.96627 0.53679 0.92918 0.0
C320 C 0.00561 0.44583 0.94281 0.0
C321 C 0.97138 0.477 0.93891 0.0
C322 C 0.00621 0.41466 0.94274 0.0
C323 C 0.97501 0.38278 0.93963 0.0
C324 C 0.97358 0.44493 0.94027 0.0
C325 C 0.94367 0.38319 0.93686 0.0
C326 C 0.93984 0.47578 0.94846 0.0
C327 C -0.00236 0.5372 0.92101 0.0
N328 N 0.94377 0.41371 0.93739 0.0
N329 N -0.00063 0.50767 0.92589 0.0
H330 H 0.07602 0.60207 0.44227 0.0
H331 H 0.94794 0.3978 0.47371 0.0
H332 H 0.96647 0.55741 0.47046 0.0
H333 H 0.05972 0.44748 0.48391 0.0
H334 H 0.95327 0.45513 0.46482 0.0
H335 H 0.06957 0.54435 0.44887 0.0
C336 C 0.05055 0.58012 0.44958 0.0
C337 C 0.02172 0.58463 0.45567 0.0
C338 C 0.97659 0.45337 0.46892 0.0
C339 C 0.01416 0.51843 0.4633 0.0
C340 C 0.97358 0.42069 0.47396 0.0
C341 C 0.00346 0.41776 0.4791 0.0
C342 C 0.00971 0.48326 0.46869 0.0
C343 C 0.036 0.44834 0.47936 0.0
C344 C 0.04692 0.54718 0.4535 0.0
C345 C 0.98937 0.55519 0.46521 0.0
N346 N 0.03826 0.47975 0.47404 0.0
N347 N 0.98644 0.52332 0.46867 0.0
H348 H 0.51166 0.90787 0.71229 0.0
H349 H 0.4157 0.01854 0.73455 0.0
H350 H 0.55989 0.01217 0.76504 0.0
H351 H 0.35896 0.90637 0.73224 0.0
H352 H 0.47008 0.01753 0.73269 0.0
H353 H 0.45615 0.90749 0.70769 0.0
C354 C 0.51068 0.93071 0.7226 0.0
C355 C 0.5406 0.96026 0.73854 0.0
C356 C 0.4457 0.99311 0.73245 0.0
C357 C 0.47763 0.96006 0.73303 0.0
C358 C 0.41464 0.99367 0.73338 0.0
C359 C 0.3827 0.96249 0.73368 0.0
C360 C 0.44494 0.96118 0.73147 0.0
C361 C 0.38299 0.93104 0.73204 0.0
C362 C 0.47907 0.93046 0.72003 0.0
C363 C 0.5378 0.98905 0.75171 0.0
N364 N 0.41366 0.93115 0.73101 0.0
N365 N 0.50699 0.98828 0.74848 0.0
H366 H 0.38817 0.48374 0.06971 0.0
H367 H 0.5926 0.57034 0.104 0.0
H368 H 0.43761 0.43484 0.1402 0.0
H369 H 0.54469 0.63371 0.08845 0.0
H370 H 0.5352 0.51879 0.10596 0.0
H371 H 0.44463 0.5381 0.06703 0.0
C372 C 0.41077 0.48441 0.08465 0.0
C373 C 0.40829 0.45451 0.1045 0.0
C374 C 0.53719 0.54396 0.10211 0.0
C375 C 0.4725 0.51604 0.10107 0.0
C376 C 0.57 0.57345 0.10077 0.0
C377 C 0.57351 0.60645 0.09613 0.0
C378 C 0.50747 0.54727 0.09835 0.0
C379 C 0.54317 0.60877 0.09209 0.0
C380 C 0.44287 0.51535 0.08309 0.0
C381 C 0.43833 0.45688 0.12358 0.0
N382 N 0.51129 0.57948 0.09318 0.0
N383 N 0.46913 0.48694 0.12103 0.0
H384 H 0.06232 0.79193 0.32688 0.0
H385 H 0.26781 0.89019 0.29262 0.0
H386 H 0.13322 0.7773 0.41147 0.0
H387 H 0.20399 0.92628 0.22921 0.0
H388 H 0.21718 0.84623 0.33251 0.0
H389 H 0.1123 0.83965 0.28827 0.0
C390 C 0.08834 0.79893 0.33765 0.0
C391 C 0.09357 0.78041 0.37233 0.0
C392 C 0.21409 0.8637 0.30993 0.0
C393 C 0.15065 0.83458 0.32797 0.0
C394 C 0.24304 0.88877 0.28678 0.0
C395 C 0.24019 0.91199 0.25732 0.0
C396 C 0.1817 0.8614 0.30353 0.0
C397 C 0.20733 0.90885 0.25154 0.0
C398 C 0.1168 0.82613 0.31554 0.0
C399 C 0.12785 0.79066 0.38486 0.0
N400 N 0.17923 0.88389 0.27438 0.0
N401 N 0.15499 0.81681 0.36247 0.0
H402 H 0.32321 0.23132 0.68492 0.0
H403 H 0.24451 0.02641 0.67949 0.0
H404 H 0.25559 0.16555 0.57938 0.0
H405 H 0.31342 0.09346 0.78321 0.0
H406 H 0.24075 0.07541 0.64866 0.0
H407 H 0.31254 0.17986 0.72709 0.0
C408 C 0.3059 0.20599 0.67069 0.0
C409 C 0.29073 0.20272 0.62815 0.0
C410 C 0.25635 0.07931 0.67849 0.0
C411 C 0.27851 0.14354 0.67636 0.0
C412 C 0.2585 0.05133 0.69619 0.0
C413 C 0.27981 0.05599 0.73359 0.0
C414 C 0.27575 0.11222 0.69821 0.0
C415 C 0.29702 0.08875 0.75404 0.0
C416 C 0.29976 0.17658 0.69491 0.0
C417 C 0.26808 0.16925 0.61184 0.0
N418 N 0.29494 0.11571 0.73574 0.0
N419 N 0.263 0.14091 0.63574 0.0
H420 H 0.17756 0.2608 0.10416 0.0
H421 H 0.09262 0.29638 0.88737 0.0
H422 H 0.23581 0.32736 0.99293 0.0
H423 H 0.03488 0.24541 0.00785 0.0
H424 H 0.14345 0.29658 0.91915 0.0
H425 H 0.12352 0.24456 0.06326 0.0
C426 C 0.179 0.27174 0.07102 0.0
C427 C 0.21116 0.29592 0.05225 0.0
C428 C 0.11953 0.28498 0.93841 0.0
C429 C 0.14971 0.27735 0.00531 0.0
C430 C 0.09044 0.28475 0.9202 0.0
C431 C 0.05965 0.27148 0.94534 0.0
C432 C 0.11784 0.27193 0.98209 0.0
C433 C 0.05826 0.2564 0.98754 0.0
C434 C 0.14819 0.26248 0.04773 0.0
C435 C 0.21156 0.30909 0.00906 0.0
N436 N 0.08711 0.25745 0.00486 0.0
N437 N 0.18132 0.29981 0.98723 0.0
H438 H 0.93152 0.21855 0.41564 0.0
H439 H 0.72752 0.12696 0.36701 0.0
H440 H 0.85884 0.23268 0.49662 0.0
H441 H 0.7985 0.11255 0.28277 0.0
H442 H 0.77503 0.16174 0.41825 0.0
H443 H 0.88288 0.17492 0.37127 0.0
C444 C 0.90531 0.21206 0.42464 0.0
C445 C 0.89928 0.22959 0.45966 0.0
C446 C 0.78033 0.15097 0.38866 0.0
C447 C 0.8436 0.18001 0.40862 0.0
C448 C 0.75317 0.13116 0.35916 0.0
C449 C 0.75907 0.11705 0.32021 0.0
C450 C 0.81386 0.15698 0.37924 0.0
C451 C 0.79284 0.12313 0.31223 0.0
C452 C 0.87757 0.18728 0.39908 0.0
C453 C 0.86478 0.22009 0.46971 0.0
N454 N 0.81905 0.14283 0.3414 0.0
N455 N 0.83832 0.19621 0.44406 0.0
H456 H 0.61302 0.71063 0.66002 0.0
H457 H 0.68965 0.91467 0.67009 0.0
H458 H 0.70057 0.78128 0.57805 0.0
H459 H 0.62252 0.84241 0.77155 0.0
H460 H 0.69476 0.86761 0.63488 0.0
H461 H 0.61569 0.75967 0.69897 0.0
C462 C 0.63279 0.73655 0.64997 0.0
C463 C 0.6565 0.74184 0.61544 0.0
C464 C 0.67927 0.86225 0.66514 0.0
C465 C 0.65977 0.7985 0.66043 0.0
C466 C 0.67636 0.88906 0.68531 0.0
C467 C 0.65528 0.88235 0.72357 0.0
C468 C 0.66074 0.82856 0.68321 0.0
C469 C 0.63878 0.84876 0.74191 0.0
C470 C 0.63445 0.76462 0.67258 0.0
C471 C 0.68172 0.77609 0.60438 0.0
N472 N 0.64158 0.82309 0.72129 0.0
N473 N 0.68258 0.80325 0.62666 0.0
H474 H 0.78856 0.73381 0.05755 0.0
H475 H 0.85867 0.61577 0.95509 0.0
H476 H 0.74102 0.62365 0.08313 0.0
H477 H 0.929 0.72411 0.98373 0.0
H478 H 0.81195 0.62019 0.99161 0.0
H479 H 0.83807 0.73272 0.02224 0.0
C480 C 0.78867 0.70952 0.05613 0.0
C481 C 0.76057 0.67875 0.07321 0.0
C482 C 0.83759 0.64302 0.98983 0.0
C483 C 0.81646 0.67729 0.03223 0.0
C484 C 0.86425 0.64062 0.96865 0.0
C485 C 0.89785 0.66962 0.96645 0.0
C486 C 0.84434 0.67474 0.00847 0.0
C487 C 0.90348 0.7011 0.98485 0.0
C488 C 0.81685 0.70895 0.036 0.0
C489 C 0.76205 0.64801 0.07047 0.0
N490 N 0.87691 0.7029 0.00505 0.0
N491 N 0.7893 0.648 0.04992 0.0
H492 H 0.30911 0.96036 0.33633 0.0
H493 H 0.31805 0.00593 0.59664 0.0
H494 H 0.37855 0.06283 0.38852 0.0
H495 H 0.28909 0.90291 0.55052 0.0
H496 H 0.33127 0.02691 0.51897 0.0
H497 H 0.29314 0.93871 0.41347 0.0
C498 C 0.32099 0.97834 0.36398 0.0
C499 C 0.34531 0.0135 0.35596 0.0
C500 C 0.32189 -0.0003 0.5259 0.0
C501 C 0.32674 0.98887 0.44418 0.0
C502 C 0.31407 0.9876 0.57015 0.0
C503 C 0.30249 0.95257 0.58014 0.0
C504 C 0.31759 0.97655 0.49123 0.0
C505 C 0.29809 0.93013 0.54438 0.0
C506 C 0.3119 0.9659 0.40796 0.0
C507 C 0.35988 0.03553 0.39315 0.0
N508 N 0.30555 0.94249 0.50144 0.0
N509 N 0.35019 0.02289 0.43569 0.0
H510 H 0.4267 0.40421 0.94481 0.0
H511 H 0.32144 0.31293 0.72314 0.0
H512 H 0.31726 0.32802 0.94773 0.0
H513 H 0.40317 0.42027 0.72132 0.0
H514 H 0.32461 0.31309 0.80542 0.0
H515 H 0.42397 0.40534 0.86208 0.0
C516 C 0.40224 0.38749 0.92804 0.0
C517 C 0.37216 0.36595 0.95305 0.0
C518 C 0.34172 0.33663 0.78699 0.0
C519 C 0.36899 0.36701 0.85905 0.0
C520 C 0.33998 0.33658 0.74012 0.0
C521 C 0.36198 0.3667 0.71549 0.0
C522 C 0.36621 0.36676 0.80939 0.0
C523 C 0.38554 0.39662 0.73917 0.0
C524 C 0.40066 0.3884 0.88102 0.0
C525 C 0.34103 0.34507 0.92972 0.0
N526 N 0.38733 0.39581 0.78493 0.0
N527 N 0.34031 0.34592 0.88402 0.0
H528 H 0.95432 0.30531 0.34186 0.0
H529 H 0.01008 0.3155 0.08506 0.0
H530 H 0.05869 0.37546 0.29527 0.0
H531 H 0.90608 0.28958 0.12369 0.0
H532 H 0.02781 0.32713 0.1641 0.0
H533 H 0.93582 0.28945 0.26356 0.0
C534 C 0.97337 0.31729 0.31519 0.0
C535 C 0.0081 0.34189 0.32506 0.0
C536 C 0.00108 0.31872 0.15519 0.0
C537 C 0.98715 0.32343 0.23573 0.0
C538 C 0.99085 0.31182 0.1102 0.0
C539 C 0.95654 0.30166 0.09773 0.0
C540 C 0.97672 0.31483 0.18807 0.0
C541 C 0.93283 0.29755 0.13178 0.0
C542 C 0.96275 0.30829 0.2706 0.0
C543 C 0.03163 0.35661 0.28915 0.0
N544 N 0.94334 0.30407 0.17546 0.0
N545 N 0.02077 0.347 0.24605 0.0
H546 H 0.5799 0.97232 0.36575 0.0
H547 H 0.67966 -0.00419 0.59509 0.0
H548 H 0.69132 0.01628 0.36669 0.0
H549 H 0.59895 0.02257 0.58405 0.0
H550 H 0.67942 0.99056 0.51264 0.0
H551 H 0.58087 0.97682 0.44833 0.0
C552 C 0.60443 0.98239 0.38339 0.0
C553 C 0.63557 -0.00607 0.35954 0.0
C554 C 0.66192 -0.00229 0.52845 0.0
C555 C 0.63676 -0.0012 0.45332 0.0
C556 C 0.66204 0.00072 0.57527 0.0
C557 C 0.6395 0.00992 0.59621 0.0
C558 C 0.63832 0.00283 0.50272 0.0
C559 C 0.61703 0.01584 0.5691 0.0
C560 C 0.60499 0.98523 0.43028 0.0
C561 C 0.66676 0.00717 0.38392 0.0
N562 N 0.61669 0.01177 0.52371 0.0
N563 N 0.66656 0.00903 0.42959 0.0
H564 H 0.68445 0.66301 0.95319 0.0
H565 H 0.6483 0.67766 0.69323 0.0
H566 H 0.61322 0.69605 0.90706 0.0
H567 H 0.68607 0.6108 0.74165 0.0
H568 H 0.64219 0.69146 0.77092 0.0
H569 H 0.69248 0.65086 0.87519 0.0
C570 C 0.67069 0.66796 0.92667 0.0
C571 C 0.64804 0.68053 0.93672 0.0
C572 C 0.65176 0.67373 0.76454 0.0
C573 C 0.65725 0.66672 0.84747 0.0
C574 C 0.65537 0.66588 0.72017 0.0
C575 C 0.66765 0.64292 0.71084 0.0
C576 C 0.66094 0.65894 0.79999 0.0
C577 C 0.67633 0.62847 0.74726 0.0
C578 C 0.67515 0.66081 0.88222 0.0
C579 C 0.63079 0.68626 0.90093 0.0
N580 N 0.67297 0.63685 0.79027 0.0
N581 N 0.63584 0.67941 0.85789 0.0
H582 H 0.04743 0.68149 0.29563 0.0
H583 H 0.94725 0.62769 0.06045 0.0
H584 H 0.93752 0.60807 0.28449 0.0
H585 H 0.0566 0.66158 0.07258 0.0
H586 H 0.94385 0.6311 0.14232 0.0
H587 H 0.05151 0.68462 0.21332 0.0
C588 C 0.02412 0.66617 0.27592 0.0
C589 C -0.0079 0.64426 0.29698 0.0
C590 C 0.9686 0.63795 0.12695 0.0
C591 C -0.00338 0.6481 0.20299 0.0
C592 C 0.97064 0.63621 0.08023 0.0
C593 C 0.00224 0.64411 0.05962 0.0
C594 C -0.00156 0.64816 0.15323 0.0
C595 C 0.03166 0.65497 0.08706 0.0
C596 C 0.02653 0.66792 0.22901 0.0
C597 C 0.96277 0.62504 0.2697 0.0
N598 N 0.02906 0.65668 0.1325 0.0
N599 N 0.96572 0.62748 0.22409 0.0
loop_
_geom_bond_atom_site_label_1
_geom_bond_atom_site_label_2
_geom_bond_distance
_geom_bond_site_symmetry_2
_ccdc_geom_bond_type
Mg0 O1 2.028 . S
Mg0 O7 1.986 1_565 S
Mg0 O9 2.114 . S
Mg0 O10 2.251 1_565 S
Mg0 O13 2.010 . S
O1 Mg0 2.028 . S
O1 C4 1.250 1_565 S
O2 Mg3 2.028 . S
O2 C4 1.248 . S
Mg3 O2 2.028 . S
Mg3 O8 2.032 . S
Mg3 O10 2.079 . S
C4 O1 1.250 1_545 S
C4 O2 1.248 . S
C5 O6 1.264 . S
C5 O13 1.249 . S
O6 C5 1.264 . S
O7 Mg0 1.986 1_545 S
O7 C11 1.246 . S
O8 Mg3 2.032 . S
O8 C11 1.259 . S
O9 Mg0 2.114 . S
O9 C12 1.252 . S
O10 Mg0 2.251 1_545 S
O10 Mg3 2.079 . S
O10 C12 1.273 1_545 S
C11 O7 1.246 . S
C11 O8 1.259 . S
C12 O9 1.252 . S
C12 O10 1.273 1_565 S
O13 Mg0 2.010 . S
O13 C5 1.249 . S
Mg14 O15 2.028 . S
Mg14 O21 1.986 . S
Mg14 O23 2.114 . S
Mg14 O24 2.251 . S
Mg14 O27 2.010 . S
O15 Mg14 2.028 . S
O15 C18 1.250 . S
O16 Mg17 2.028 . S
O16 C18 1.248 . S
Mg17 O16 2.028 . S
Mg17 O22 2.032 . S
Mg17 O24 2.079 . S
C18 O15 1.250 . S
C18 O16 1.248 . S
C19 O20 1.264 . S
C19 O27 1.249 . S
O20 C19 1.264 . S
O21 Mg14 1.986 . S
O21 C25 1.246 . S
O22 Mg17 2.032 . S
O22 C25 1.259 . S
O23 Mg14 2.114 . S
O23 C26 1.252 . S
O24 Mg14 2.251 . S
O24 Mg17 2.079 . S
O24 C26 1.273 . S
C25 O21 1.246 . S
C25 O22 1.259 . S
C26 O23 1.252 . S
C26 O24 1.273 . S
O27 Mg14 2.010 . S
O27 C19 1.249 . S
Mg28 O29 2.028 . S
Mg28 O35 1.986 1_455 S
Mg28 O37 2.114 . S
Mg28 O38 2.251 1_455 S
Mg28 O41 2.010 . S
O29 Mg28 2.028 . S
O29 C32 1.250 1_456 S
O30 Mg31 2.028 1_554 S
O30 C32 1.248 . S
Mg31 O30 2.028 1_556 S
Mg31 O36 2.032 . S
Mg31 O38 2.079 . S
C32 O29 1.250 1_654 S
C32 O30 1.248 . S
C33 O34 1.264 . S
C33 O41 1.249 . S
O34 C33 1.264 . S
O35 Mg28 1.986 1_655 S
O35 C39 1.246 . S
O36 Mg31 2.032 . S
O36 C39 1.259 . S
O37 Mg28 2.114 . S
O37 C40 1.252 . S
O38 Mg28 2.251 1_655 S
O38 Mg31 2.079 . S
O38 C40 1.273 1_655 S
C39 O35 1.246 . S
C39 O36 1.259 . S
C40 O37 1.252 . S
C40 O38 1.273 1_455 S
O41 Mg28 2.010 . S
O41 C33 1.249 . S
Mg42 O43 2.028 . S
Mg42 O49 1.986 1_545 S
Mg42 O51 2.114 . S
Mg42 O52 2.251 1_545 S
Mg42 O55 2.010 . S
O43 Mg42 2.028 . S
O43 C46 1.250 1_545 S
O44 Mg45 2.028 . S
O44 C46 1.248 . S
Mg45 O44 2.028 . S
Mg45 O50 2.032 . S
Mg45 O52 2.079 . S
C46 O43 1.250 1_565 S
C46 O44 1.248 . S
C47 O48 1.264 . S
C47 O55 1.249 . S
O48 C47 1.264 . S
O49 Mg42 1.986 1_565 S
O49 C53 1.246 . S
O50 Mg45 2.032 . S
O50 C53 1.259 . S
O51 Mg42 2.114 . S
O51 C54 1.252 . S
O52 Mg42 2.251 1_565 S
O52 Mg45 2.079 . S
O52 C54 1.273 1_565 S
C53 O49 1.246 . S
C53 O50 1.259 . S
C54 O51 1.252 . S
C54 O52 1.273 1_545 S
O55 Mg42 2.010 . S
O55 C47 1.249 . S
Mg56 O57 2.028 . S
Mg56 O63 1.986 . S
Mg56 O65 2.114 . S
Mg56 O66 2.251 . S
Mg56 O69 2.010 . S
O57 Mg56 2.028 . S
O57 C60 1.250 . S
O58 Mg59 2.028 . S
O58 C60 1.248 . S
Mg59 O58 2.028 . S
Mg59 O64 2.032 . S
Mg59 O66 2.079 . S
C60 O57 1.250 . S
C60 O58 1.248 . S
C61 O62 1.264 . S
C61 O69 1.249 . S
O62 C61 1.264 . S
O63 Mg56 1.986 . S
O63 C67 1.246 . S
O64 Mg59 2.032 . S
O64 C67 1.259 . S
O65 Mg56 2.114 . S
O65 C68 1.252 . S
O66 Mg56 2.251 . S
O66 Mg59 2.079 . S
O66 C68 1.273 . S
C67 O63 1.246 . S
C67 O64 1.259 . S
C68 O65 1.252 . S
C68 O66 1.273 . S
O69 Mg56 2.010 . S
O69 C61 1.249 . S
Mg70 O71 2.028 . S
Mg70 O77 1.986 1_655 S
Mg70 O79 2.114 . S
Mg70 O80 2.251 1_655 S
Mg70 O83 2.010 . S
O71 Mg70 2.028 . S
O71 C74 1.250 1_656 S
O72 Mg73 2.028 1_554 S
O72 C74 1.248 . S
Mg73 O72 2.028 1_556 S
Mg73 O78 2.032 . S
Mg73 O80 2.079 . S
C74 O71 1.250 1_454 S
C74 O72 1.248 . S
C75 O76 1.264 . S
C75 O83 1.249 . S
O76 C75 1.264 . S
O77 Mg70 1.986 1_455 S
O77 C81 1.246 . S
O78 Mg73 2.032 . S
O78 C81 1.259 . S
O79 Mg70 2.114 . S
O79 C82 1.252 . S
O80 Mg70 2.251 1_455 S
O80 Mg73 2.079 . S
O80 C82 1.273 1_455 S
C81 O77 1.246 . S
C81 O78 1.259 . S
C82 O79 1.252 . S
C82 O80 1.273 1_655 S
O83 Mg70 2.010 . S
O83 C75 1.249 . S
Mg84 O85 2.028 . S
Mg84 O91 1.986 1_455 S
Mg84 O93 2.114 . S
Mg84 O94 2.251 1_455 S
Mg84 O97 2.010 . S
O85 Mg84 2.028 . S
O85 C88 1.250 1_455 S
O86 Mg87 2.028 . S
O86 C88 1.248 . S
Mg87 O86 2.028 . S
Mg87 O92 2.032 . S
Mg87 O94 2.079 . S
C88 O85 1.250 1_655 S
C88 O86 1.248 . S
C89 O90 1.264 . S
C89 O97 1.249 . S
O90 C89 1.264 . S
O91 Mg84 1.986 1_655 S
O91 C95 1.246 . S
O92 Mg87 2.032 . S
O92 C95 1.259 . S
O93 Mg84 2.114 . S
O93 C96 1.252 . S
O94 Mg84 2.251 1_655 S
O94 Mg87 2.079 . S
O94 C96 1.273 1_655 S
C95 O91 1.246 . S
C95 O92 1.259 . S
C96 O93 1.252 . S
C96 O94 1.273 1_455 S
O97 Mg84 2.010 . S
O97 C89 1.249 . S
Mg98 O99 2.028 . S
Mg98 O105 1.986 1_545 S
Mg98 O107 2.114 . S
Mg98 O108 2.251 1_545 S
Mg98 O111 2.010 . S
O99 Mg98 2.028 . S
O99 C102 1.250 1_545 S
O100 Mg101 2.028 . S
O100 C102 1.248 . S
Mg101 O100 2.028 . S
Mg101 O106 2.032 . S
Mg101 O108 2.079 . S
C102 O99 1.250 1_565 S
C102 O100 1.248 . S
C103 O104 1.264 . S
C103 O111 1.249 . S
O104 C103 1.264 . S
O105 Mg98 1.986 1_565 S
O105 C109 1.246 . S
O106 Mg101 2.032 . S
O106 C109 1.259 . S
O107 Mg98 2.114 . S
O107 C110 1.252 . S
O108 Mg98 2.251 1_565 S
O108 Mg101 2.079 . S
O108 C110 1.273 1_565 S
C109 O105 1.246 . S
C109 O106 1.259 . S
C110 O107 1.252 . S
C110 O108 1.273 1_545 S
O111 Mg98 2.010 . S
O111 C103 1.249 . S
Mg112 O113 2.028 . S
Mg112 O119 1.986 . S
Mg112 O121 2.114 . S
Mg112 O122 2.251 . S
Mg112 O125 2.010 . S
O113 Mg112 2.028 . S
O113 C116 1.250 1_554 S
O114 Mg115 2.028 1_556 S
O114 C116 1.248 . S
Mg115 O114 2.028 1_554 S
Mg115 O120 2.032 . S
Mg115 O122 2.079 . S
C116 O113 1.250 1_556 S
C116 O114 1.248 . S
C117 O118 1.264 . S
C117 O125 1.249 . S
O118 C117 1.264 . S
O119 Mg112 1.986 . S
O119 C123 1.246 . S
O120 Mg115 2.032 . S
O120 C123 1.259 . S
O121 Mg112 2.114 . S
O121 C124 1.252 . S
O122 Mg112 2.251 . S
O122 Mg115 2.079 . S
O122 C124 1.273 . S
C123 O119 1.246 . S
C123 O120 1.259 . S
C124 O121 1.252 . S
C124 O122 1.273 . S
O125 Mg112 2.010 . S
O125 C117 1.249 . S
Mg126 O127 2.028 . S
Mg126 O133 1.986 1_655 S
Mg126 O135 2.114 . S
Mg126 O136 2.251 1_655 S
Mg126 O139 2.010 . S
O127 Mg126 2.028 . S
O127 C130 1.250 1_655 S
O128 Mg129 2.028 . S
O128 C130 1.248 . S
Mg129 O128 2.028 . S
Mg129 O134 2.032 . S
Mg129 O136 2.079 . S
C130 O127 1.250 1_455 S
C130 O128 1.248 . S
C131 O132 1.264 . S
C131 O139 1.249 . S
O132 C131 1.264 . S
O133 Mg126 1.986 1_455 S
O133 C137 1.246 . S
O134 Mg129 2.032 . S
O134 C137 1.259 . S
O135 Mg126 2.114 . S
O135 C138 1.252 . S
O136 Mg126 2.251 1_455 S
O136 Mg129 2.079 . S
O136 C138 1.273 1_455 S
C137 O133 1.246 . S
C137 O134 1.259 . S
C138 O135 1.252 . S
C138 O136 1.273 1_655 S
O139 Mg126 2.010 . S
O139 C131 1.249 . S
Mg140 O141 2.028 . S
Mg140 O147 1.986 1_565 S
Mg140 O149 2.114 . S
Mg140 O150 2.251 1_565 S
Mg140 O153 2.010 . S
O141 Mg140 2.028 . S
O141 C144 1.250 1_565 S
O142 Mg143 2.028 . S
O142 C144 1.248 . S
Mg143 O142 2.028 . S
Mg143 O148 2.032 . S
Mg143 O150 2.079 . S
C144 O141 1.250 1_545 S
C144 O142 1.248 . S
C145 O146 1.264 . S
C145 O153 1.249 . S
O146 C145 1.264 . S
O147 Mg140 1.986 1_545 S
O147 C151 1.246 . S
O148 Mg143 2.032 . S
O148 C151 1.259 . S
O149 Mg140 2.114 . S
O149 C152 1.252 . S
O150 Mg140 2.251 1_545 S
O150 Mg143 2.079 . S
O150 C152 1.273 1_545 S
C151 O147 1.246 . S
C151 O148 1.259 . S
C152 O149 1.252 . S
C152 O150 1.273 1_565 S
O153 Mg140 2.010 . S
O153 C145 1.249 . S
Mg154 O155 2.028 . S
Mg154 O161 1.986 . S
Mg154 O163 2.114 . S
Mg154 O164 2.251 . S
Mg154 O167 2.010 . S
O155 Mg154 2.028 . S
O155 C158 1.250 1_554 S
O156 Mg157 2.028 1_556 S
O156 C158 1.248 . S
Mg157 O156 2.028 1_554 S
Mg157 O162 2.032 . S
Mg157 O164 2.079 . S
C158 O155 1.250 1_556 S
C158 O156 1.248 . S
C159 O160 1.264 . S
C159 O167 1.249 . S
O160 C159 1.264 . S
O161 Mg154 1.986 . S
O161 C165 1.246 . S
O162 Mg157 2.032 . S
O162 C165 1.259 . S
O163 Mg154 2.114 . S
O163 C166 1.252 . S
O164 Mg154 2.251 . S
O164 Mg157 2.079 . S
O164 C166 1.273 . S
C165 O161 1.246 . S
C165 O162 1.259 . S
C166 O163 1.252 . S
C166 O164 1.273 . S
O167 Mg154 2.010 . S
O167 C159 1.249 . S
H168 C174 0.930 . S
H169 C178 0.930 . S
H170 C183 0.929 . S
H171 C181 0.929 . S
H172 C176 0.929 . S
H173 C182 0.929 . S
C174 H168 0.930 . S
C174 C175 1.367 . S
C174 C182 1.378 . S
C175 C174 1.367 . S
C175 C183 1.433 . S
C176 H172 0.929 . S
C176 C178 1.378 . S
C176 C180 1.350 . S
C177 C180 1.463 . S
C177 C182 1.350 . S
C177 N185 1.427 . S
C178 H169 0.930 . S
C178 C176 1.378 . S
C178 C179 1.367 . S
C179 C178 1.367 . S
C179 C181 1.433 . S
C180 C176 1.350 . S
C180 C177 1.463 . S
C180 N184 1.427 . S
C181 H171 0.929 . S
C181 C179 1.433 . S
C181 N184 1.384 . S
C182 H173 0.929 . S
C182 C174 1.378 . S
C182 C177 1.350 . S
C183 H170 0.929 . S
C183 C175 1.433 . S
C183 N185 1.384 . S
N184 C180 1.427 . S
N184 C181 1.384 . S
N185 C177 1.427 . S
N185 C183 1.384 . S
H186 C192 0.930 . S
H187 C196 0.930 . S
H188 C201 0.929 . S
H189 C199 0.929 . S
H190 C194 0.929 . S
H191 C200 0.929 . S
C192 H186 0.930 . S
C192 C193 1.367 . S
C192 C200 1.378 . S
C193 C192 1.367 . S
C193 C201 1.433 . S
C194 H190 0.929 . S
C194 C196 1.378 . S
C194 C198 1.350 . S
C195 C198 1.463 . S
C195 C200 1.350 . S
C195 N203 1.427 . S
C196 H187 0.930 . S
C196 C194 1.378 . S
C196 C197 1.367 . S
C197 C196 1.367 . S
C197 C199 1.433 . S
C198 C194 1.350 . S
C198 C195 1.463 . S
C198 N202 1.427 . S
C199 H189 0.929 . S
C199 C197 1.433 . S
C199 N202 1.384 . S
C200 H191 0.929 . S
C200 C192 1.378 . S
C200 C195 1.350 . S
C201 H188 0.929 . S
C201 C193 1.433 . S
C201 N203 1.384 . S
N202 C198 1.427 . S
N202 C199 1.384 . S
N203 C195 1.427 . S
N203 C201 1.384 . S
H204 C210 0.930 . S
H205 C214 0.930 . S
H206 C219 0.929 . S
H207 C217 0.929 . S
H208 C212 0.929 . S
H209 C218 0.929 . S
C210 H204 0.930 . S
C210 C211 1.367 . S
C210 C218 1.378 . S
C211 C210 1.367 . S
C211 C219 1.433 . S
C212 H208 0.929 . S
C212 C214 1.378 . S
C212 C216 1.350 . S
C213 C216 1.463 . S
C213 C218 1.350 . S
C213 N221 1.427 . S
C214 H205 0.930 . S
C214 C212 1.378 . S
C214 C215 1.367 . S
C215 C214 1.367 . S
C215 C217 1.433 . S
C216 C212 1.350 . S
C216 C213 1.463 . S
C216 N220 1.427 . S
C217 H207 0.929 . S
C217 C215 1.433 . S
C217 N220 1.384 . S
C218 H209 0.929 . S
C218 C210 1.378 . S
C218 C213 1.350 . S
C219 H206 0.929 . S
C219 C211 1.433 . S
C219 N221 1.384 . S
N220 C216 1.427 . S
N220 C217 1.384 . S
N221 C213 1.427 . S
N221 C219 1.384 . S
H222 C228 0.930 . S
H223 C232 0.930 . S
H224 C237 0.929 . S
H225 C235 0.929 . S
H226 C230 0.929 . S
H227 C236 0.929 . S
C228 H222 0.930 . S
C228 C229 1.367 . S
C228 C236 1.378 . S
C229 C228 1.367 . S
C229 C237 1.433 . S
C230 H226 0.929 . S
C230 C232 1.378 . S
C230 C234 1.350 . S
C231 C234 1.463 . S
C231 C236 1.350 . S
C231 N239 1.427 . S
C232 H223 0.930 . S
C232 C230 1.378 . S
C232 C233 1.367 . S
C233 C232 1.367 . S
C233 C235 1.433 . S
C234 C230 1.350 . S
C234 C231 1.463 . S
C234 N238 1.427 . S
C235 H225 0.929 . S
C235 C233 1.433 . S
C235 N238 1.384 . S
C236 H227 0.929 . S
C236 C228 1.378 . S
C236 C231 1.350 . S
C237 H224 0.929 . S
C237 C229 1.433 . S
C237 N239 1.384 . S
N238 C234 1.427 . S
N238 C235 1.384 . S
N239 C231 1.427 . S
N239 C237 1.384 . S
H240 C246 0.930 . S
H241 C250 0.930 . S
H242 C255 0.929 . S
H243 C253 0.929 . S
H244 C248 0.929 . S
H245 C254 0.929 . S
C246 H240 0.930 . S
C246 C247 1.367 . S
C246 C254 1.378 . S
C247 C246 1.367 . S
C247 C255 1.433 . S
C248 H244 0.929 . S
C248 C250 1.378 . S
C248 C252 1.350 . S
C249 C252 1.463 . S
C249 C254 1.350 . S
C249 N257 1.427 . S
C250 H241 0.930 . S
C250 C248 1.378 . S
C250 C251 1.367 . S
C251 C250 1.367 . S
C251 C253 1.433 . S
C252 C248 1.350 . S
C252 C249 1.463 . S
C252 N256 1.427 . S
C253 H243 0.929 . S
C253 C251 1.433 . S
C253 N256 1.384 . S
C254 H245 0.929 . S
C254 C246 1.378 . S
C254 C249 1.350 . S
C255 H242 0.929 . S
C255 C247 1.433 . S
C255 N257 1.384 . S
N256 C252 1.427 . S
N256 C253 1.384 . S
N257 C249 1.427 . S
N257 C255 1.384 . S
H258 C264 0.930 . S
H259 C268 0.930 . S
H260 C273 0.929 . S
H261 C271 0.929 . S
H262 C266 0.929 . S
H263 C272 0.929 . S
C264 H258 0.930 . S
C264 C265 1.367 . S
C264 C272 1.378 . S
C265 C264 1.367 . S
C265 C273 1.433 . S
C266 H262 0.929 . S
C266 C268 1.378 . S
C266 C270 1.350 . S
C267 C270 1.463 . S
C267 C272 1.350 . S
C267 N275 1.427 . S
C268 H259 0.930 . S
C268 C266 1.378 . S
C268 C269 1.367 . S
C269 C268 1.367 . S
C269 C271 1.433 . S
C270 C266 1.350 . S
C270 C267 1.463 . S
C270 N274 1.427 . S
C271 H261 0.929 . S
C271 C269 1.433 . S
C271 N274 1.384 . S
C272 H263 0.929 . S
C272 C264 1.378 . S
C272 C267 1.350 . S
C273 H260 0.929 . S
C273 C265 1.433 . S
C273 N275 1.384 . S
N274 C270 1.427 . S
N274 C271 1.384 . S
N275 C267 1.427 . S
N275 C273 1.384 . S
H276 C282 0.930 . S
H277 C286 0.930 . S
H278 C291 0.929 . S
H279 C289 0.929 . S
H280 C284 0.929 . S
H281 C290 0.929 . S
C282 H276 0.930 . S
C282 C283 1.363 1_545 S
C282 C290 1.378 . S
C283 C282 1.363 1_565 S
C283 C291 1.449 . S
C284 H280 0.929 . S
C284 C286 1.378 . S
C284 C288 1.354 . S
C285 C288 1.451 1_545 S
C285 C290 1.360 . S
C285 N293 1.424 1_545 S
C286 H277 0.930 . S
C286 C284 1.378 . S
C286 C287 1.361 1_565 S
C287 C286 1.361 1_545 S
C287 C289 1.455 . S
C288 C284 1.354 . S
C288 C285 1.451 1_565 S
C288 N292 1.426 1_565 S
C289 H279 0.929 . S
C289 C287 1.455 . S
C289 N292 1.384 . S
C290 H281 0.929 . S
C290 C282 1.378 . S
C290 C285 1.360 . S
C291 H278 0.929 . S
C291 C283 1.449 . S
C291 N293 1.384 . S
N292 C288 1.426 1_545 S
N292 C289 1.384 . S
N293 C285 1.424 1_565 S
N293 C291 1.384 . S
H294 C300 0.930 . S
H295 C304 0.930 . S
H296 C309 0.929 . S
H297 C307 0.929 . S
H298 C302 0.929 . S
H299 C308 0.929 . S
C300 H294 0.930 . S
C300 C301 1.367 . S
C300 C308 1.378 . S
C301 C300 1.367 . S
C301 C309 1.433 . S
C302 H298 0.929 . S
C302 C304 1.378 . S
C302 C306 1.350 . S
C303 C306 1.463 . S
C303 C308 1.350 . S
C303 N311 1.427 . S
C304 H295 0.930 . S
C304 C302 1.378 . S
C304 C305 1.367 . S
C305 C304 1.367 . S
C305 C307 1.433 . S
C306 C302 1.350 . S
C306 C303 1.463 . S
C306 N310 1.427 . S
C307 H297 0.929 . S
C307 C305 1.433 . S
C307 N310 1.384 . S
C308 H299 0.929 . S
C308 C300 1.378 . S
C308 C303 1.350 . S
C309 H296 0.929 . S
C309 C301 1.433 . S
C309 N311 1.384 . S
N310 C306 1.427 . S
N310 C307 1.384 . S
N311 C303 1.427 . S
N311 C309 1.384 . S
H312 C318 0.930 . S
H313 C322 0.930 . S
H314 C327 0.929 . S
H315 C325 0.929 . S
H316 C320 0.929 . S
H317 C326 0.929 . S
C318 H312 0.930 . S
C318 C319 1.367 . S
C318 C326 1.378 . S
C319 C318 1.367 . S
C319 C327 1.433 1_655 S
C320 H316 0.929 . S
C320 C322 1.378 . S
C320 C324 1.350 . S
C321 C324 1.463 1_655 S
C321 C326 1.350 . S
C321 N329 1.427 1_655 S
C322 H313 0.930 . S
C322 C320 1.378 . S
C322 C323 1.367 . S
C323 C322 1.367 . S
C323 C325 1.433 1_455 S
C324 C320 1.350 . S
C324 C321 1.463 1_455 S
C324 N328 1.427 1_455 S
C325 H315 0.929 . S
C325 C323 1.433 1_655 S
C325 N328 1.384 . S
C326 H317 0.929 . S
C326 C318 1.378 . S
C326 C321 1.350 . S
C327 H314 0.929 . S
C327 C319 1.433 1_455 S
C327 N329 1.384 . S
N328 C324 1.427 1_655 S
N328 C325 1.384 . S
N329 C321 1.427 1_455 S
N329 C327 1.384 . S
H330 C336 0.930 . S
H331 C340 0.930 . S
H332 C345 0.929 . S
H333 C343 0.929 . S
H334 C338 0.929 . S
H335 C344 0.929 . S
C336 H330 0.930 . S
C336 C337 1.367 . S
C336 C344 1.378 . S
C337 C336 1.367 . S
C337 C345 1.433 1_455 S
C338 H334 0.929 . S
C338 C340 1.378 . S
C338 C342 1.347 . S
C339 C342 1.473 1_455 S
C339 C344 1.349 . S
C339 N347 1.425 1_455 S
C340 H331 0.930 . S
C340 C338 1.378 . S
C340 C341 1.367 . S
C341 C340 1.367 . S
C341 C343 1.433 1_655 S
C342 C338 1.347 . S
C342 C339 1.473 1_655 S
C342 N346 1.423 1_655 S
C343 H333 0.929 . S
C343 C341 1.433 1_455 S
C343 N346 1.384 . S
C344 H335 0.929 . S
C344 C336 1.378 . S
C344 C339 1.349 . S
C345 H332 0.929 . S
C345 C337 1.433 1_655 S
C345 N347 1.384 . S
N346 C342 1.423 1_455 S
N346 C343 1.384 . S
N347 C339 1.425 1_655 S
N347 C345 1.384 . S
H348 C354 0.930 . S
H349 C358 0.930 . S
H350 C363 0.929 . S
H351 C361 0.929 . S
H352 C356 0.929 . S
H353 C362 0.929 . S
C354 H348 0.930 . S
C354 C355 1.367 . S
C354 C362 1.378 . S
C355 C354 1.367 . S
C355 C363 1.433 1_565 S
C356 H352 0.929 . S
C356 C358 1.378 . S
C356 C360 1.373 . S
C357 C360 1.430 1_565 S
C357 C362 1.367 . S
C357 N365 1.423 1_565 S
C358 H349 0.930 . S
C358 C356 1.378 . S
C358 C359 1.367 . S
C359 C358 1.367 . S
C359 C361 1.433 1_545 S
C360 C356 1.373 . S
C360 C357 1.430 1_545 S
C360 N364 1.422 1_545 S
C361 H351 0.929 . S
C361 C359 1.433 1_565 S
C361 N364 1.384 . S
C362 H353 0.929 . S
C362 C354 1.378 . S
C362 C357 1.367 . S
C363 H350 0.929 . S
C363 C355 1.433 1_545 S
C363 N365 1.384 . S
N364 C360 1.422 1_565 S
N364 C361 1.384 . S
N365 C357 1.423 1_545 S
N365 C363 1.384 . S
H366 C372 0.930 . S
H367 C376 0.930 . S
H368 C381 0.929 . S
H369 C379 0.929 . S
H370 C374 0.929 . S
H371 C380 0.929 . S
C372 H366 0.930 . S
C372 C373 1.367 . S
C372 C380 1.378 . S
C373 C372 1.367 . S
C373 C381 1.433 . S
C374 H370 0.929 . S
C374 C376 1.378 . S
C374 C378 1.350 . S
C375 C378 1.463 . S
C375 C380 1.350 . S
C375 N383 1.427 . S
C376 H367 0.930 . S
C376 C374 1.378 . S
C376 C377 1.367 . S
C377 C376 1.367 . S
C377 C379 1.433 . S
C378 C374 1.350 . S
C378 C375 1.463 . S
C378 N382 1.427 . S
C379 H369 0.929 . S
C379 C377 1.433 . S
C379 N382 1.384 . S
C380 H371 0.929 . S
C380 C372 1.378 . S
C380 C375 1.350 . S
C381 H368 0.929 . S
C381 C373 1.433 . S
C381 N383 1.384 . S
N382 C378 1.427 . S
N382 C379 1.384 . S
N383 C375 1.427 . S
N383 C381 1.384 . S
H384 C390 0.930 . S
H385 C394 0.930 . S
H386 C399 0.929 . S
H387 C397 0.929 . S
H388 C392 0.929 . S
H389 C398 0.929 . S
C390 H384 0.930 . S
C390 C391 1.367 . S
C390 C398 1.378 . S
C391 C390 1.367 . S
C391 C399 1.433 . S
C392 H388 0.929 . S
C392 C394 1.378 . S
C392 C396 1.350 . S
C393 C396 1.463 . S
C393 C398 1.350 . S
C393 N401 1.427 . S
C394 H385 0.930 . S
C394 C392 1.378 . S
C394 C395 1.367 . S
C395 C394 1.367 . S
C395 C397 1.433 . S
C396 C392 1.350 . S
C396 C393 1.463 . S
C396 N400 1.427 . S
C397 H387 0.929 . S
C397 C395 1.433 . S
C397 N400 1.384 . S
C398 H389 0.929 . S
C398 C390 1.378 . S
C398 C393 1.350 . S
C399 H386 0.929 . S
C399 C391 1.433 . S
C399 N401 1.384 . S
N400 C396 1.427 . S
N400 C397 1.384 . S
N401 C393 1.427 . S
N401 C399 1.384 . S
H402 C408 0.930 . S
H403 C412 0.930 . S
H404 C417 0.929 . S
H405 C415 0.929 . S
H406 C410 0.929 . S
H407 C416 0.929 . S
C408 H402 0.930 . S
C408 C409 1.367 . S
C408 C416 1.378 . S
C409 C408 1.367 . S
C409 C417 1.433 . S
C410 H406 0.929 . S
C410 C412 1.378 . S
C410 C414 1.350 . S
C411 C414 1.463 . S
C411 C416 1.350 . S
C411 N419 1.427 . S
C412 H403 0.930 . S
C412 C410 1.378 . S
C412 C413 1.367 . S
C413 C412 1.367 . S
C413 C415 1.433 . S
C414 C410 1.350 . S
C414 C411 1.463 . S
C414 N418 1.427 . S
C415 H405 0.929 . S
C415 C413 1.433 . S
C415 N418 1.384 . S
C416 H407 0.929 . S
C416 C408 1.378 . S
C416 C411 1.350 . S
C417 H404 0.929 . S
C417 C409 1.433 . S
C417 N419 1.384 . S
N418 C414 1.427 . S
N418 C415 1.384 . S
N419 C411 1.427 . S
N419 C417 1.384 . S
H420 C426 0.930 . S
H421 C430 0.930 . S
H422 C435 0.929 1_556 S
H423 C433 0.929 1_554 S
H424 C428 0.929 . S
H425 C434 0.929 . S
C426 H420 0.930 . S
C426 C427 1.367 . S
C426 C434 1.378 . S
C427 C426 1.367 . S
C427 C435 1.433 . S
C428 H424 0.929 . S
C428 C430 1.378 . S
C428 C432 1.350 . S
C429 C432 1.463 1_554 S
C429 C434 1.350 . S
C429 N437 1.427 1_554 S
C430 H421 0.930 . S
C430 C428 1.378 . S
C430 C431 1.367 . S
C431 C430 1.367 . S
C431 C433 1.433 . S
C432 C428 1.350 . S
C432 C429 1.463 1_556 S
C432 N436 1.427 1_556 S
C433 H423 0.929 1_556 S
C433 C431 1.433 . S
C433 N436 1.384 1_556 S
C434 H425 0.929 . S
C434 C426 1.378 . S
C434 C429 1.350 . S
C435 H422 0.929 1_554 S
C435 C427 1.433 . S
C435 N437 1.384 1_554 S
N436 C432 1.427 1_554 S
N436 C433 1.384 1_554 S
N437 C429 1.427 1_556 S
N437 C435 1.384 1_556 S
H438 C444 0.930 . S
H439 C448 0.930 . S
H440 C453 0.929 . S
H441 C451 0.929 . S
H442 C446 0.929 . S
H443 C452 0.929 . S
C444 H438 0.930 . S
C444 C445 1.367 . S
C444 C452 1.378 . S
C445 C444 1.367 . S
C445 C453 1.433 . S
C446 H442 0.929 . S
C446 C448 1.378 . S
C446 C450 1.350 . S
C447 C450 1.463 . S
C447 C452 1.350 . S
C447 N455 1.427 . S
C448 H439 0.930 . S
C448 C446 1.378 . S
C448 C449 1.367 . S
C449 C448 1.367 . S
C449 C451 1.433 . S
C450 C446 1.350 . S
C450 C447 1.463 . S
C450 N454 1.427 . S
C451 H441 0.929 . S
C451 C449 1.433 . S
C451 N454 1.384 . S
C452 H443 0.929 . S
C452 C444 1.378 . S
C452 C447 1.350 . S
C453 H440 0.929 . S
C453 C445 1.433 . S
C453 N455 1.384 . S
N454 C450 1.427 . S
N454 C451 1.384 . S
N455 C447 1.427 . S
N455 C453 1.384 . S
H456 C462 0.930 . S
H457 C466 0.930 . S
H458 C471 0.929 . S
H459 C469 0.929 . S
H460 C464 0.929 . S
H461 C470 0.929 . S
C462 H456 0.930 . S
C462 C463 1.367 . S
C462 C470 1.378 . S
C463 C462 1.367 . S
C463 C471 1.433 . S
C464 H460 0.929 . S
C464 C466 1.378 . S
C464 C468 1.350 . S
C465 C468 1.463 . S
C465 C470 1.350 . S
C465 N473 1.427 . S
C466 H457 0.930 . S
C466 C464 1.378 . S
C466 C467 1.367 . S
C467 C466 1.367 . S
C467 C469 1.433 . S
C468 C464 1.350 . S
C468 C465 1.463 . S
C468 N472 1.427 . S
C469 H459 0.929 . S
C469 C467 1.433 . S
C469 N472 1.384 . S
C470 H461 0.929 . S
C470 C462 1.378 . S
C470 C465 1.350 . S
C471 H458 0.929 . S
C471 C463 1.433 . S
C471 N473 1.384 . S
N472 C468 1.427 . S
N472 C469 1.384 . S
N473 C465 1.427 . S
N473 C471 1.384 . S
H474 C480 0.930 1_556 S
H475 C484 0.930 1_554 S
H476 C489 0.929 . S
H477 C487 0.929 . S
H478 C482 0.929 . S
H479 C488 0.929 . S
C480 H474 0.930 1_554 S
C480 C481 1.367 . S
C480 C488 1.378 1_554 S
C481 C480 1.367 . S
C481 C489 1.433 . S
C482 H478 0.929 . S
C482 C484 1.378 1_554 S
C482 C486 1.350 1_554 S
C483 C486 1.463 1_554 S
C483 C488 1.350 1_554 S
C483 N491 1.427 . S
C484 H475 0.930 1_556 S
C484 C482 1.378 1_556 S
C484 C485 1.367 . S
C485 C484 1.367 . S
C485 C487 1.433 . S
C486 C482 1.350 1_556 S
C486 C483 1.463 1_556 S
C486 N490 1.427 . S
C487 H477 0.929 . S
C487 C485 1.433 . S
C487 N490 1.384 . S
C488 H479 0.929 . S
C488 C480 1.378 1_556 S
C488 C483 1.350 1_556 S
C489 H476 0.929 . S
C489 C481 1.433 . S
C489 N491 1.384 . S
N490 C486 1.427 . S
N490 C487 1.384 . S
N491 C483 1.427 . S
N491 C489 1.384 . S
H492 C498 0.930 . S
H493 C502 0.930 . S
H494 C507 0.929 . S
H495 C505 0.929 . S
H496 C500 0.929 . S
H497 C506 0.929 . S
C498 H492 0.930 . S
C498 C499 1.367 1_565 S
C498 C506 1.378 . S
C499 C498 1.367 1_545 S
C499 C507 1.433 . S
C500 H496 0.929 . S
C500 C502 1.378 . S
C500 C504 1.350 1_545 S
C501 C504 1.463 1_545 S
C501 C506 1.350 1_545 S
C501 N509 1.427 . S
C502 H493 0.930 . S
C502 C500 1.378 . S
C502 C503 1.367 1_545 S
C503 C502 1.367 1_565 S
C503 C505 1.433 . S
C504 C500 1.350 1_565 S
C504 C501 1.463 1_565 S
C504 N508 1.427 . S
C505 H495 0.929 . S
C505 C503 1.433 . S
C505 N508 1.384 . S
C506 H497 0.929 . S
C506 C498 1.378 . S
C506 C501 1.350 1_565 S
C507 H494 0.929 . S
C507 C499 1.433 . S
C507 N509 1.384 . S
N508 C504 1.427 . S
N508 C505 1.384 . S
N509 C501 1.427 . S
N509 C507 1.384 . S
H510 C516 0.930 . S
H511 C520 0.930 . S
H512 C525 0.929 . S
H513 C523 0.929 . S
H514 C518 0.929 . S
H515 C524 0.929 . S
C516 H510 0.930 . S
C516 C517 1.367 . S
C516 C524 1.378 . S
C517 C516 1.367 . S
C517 C525 1.433 . S
C518 H514 0.929 . S
C518 C520 1.378 . S
C518 C522 1.350 . S
C519 C522 1.463 . S
C519 C524 1.350 . S
C519 N527 1.427 . S
C520 H511 0.930 . S
C520 C518 1.378 . S
C520 C521 1.367 . S
C521 C520 1.367 . S
C521 C523 1.433 . S
C522 C518 1.350 . S
C522 C519 1.463 . S
C522 N526 1.427 . S
C523 H513 0.929 . S
C523 C521 1.433 . S
C523 N526 1.384 . S
C524 H515 0.929 . S
C524 C516 1.378 . S
C524 C519 1.350 . S
C525 H512 0.929 . S
C525 C517 1.433 . S
C525 N527 1.384 . S
N526 C522 1.427 . S
N526 C523 1.384 . S
N527 C519 1.427 . S
N527 C525 1.384 . S
H528 C534 0.930 . S
H529 C538 0.930 . S
H530 C543 0.929 . S
H531 C541 0.929 . S
H532 C536 0.929 . S
H533 C542 0.929 . S
C534 H528 0.930 . S
C534 C535 1.367 1_655 S
C534 C542 1.378 . S
C535 C534 1.367 1_455 S
C535 C543 1.433 . S
C536 H532 0.929 . S
C536 C538 1.378 . S
C536 C540 1.350 1_455 S
C537 C540 1.463 1_455 S
C537 C542 1.350 1_455 S
C537 N545 1.427 . S
C538 H529 0.930 . S
C538 C536 1.378 . S
C538 C539 1.367 1_455 S
C539 C538 1.367 1_655 S
C539 C541 1.433 . S
C540 C536 1.350 1_655 S
C540 C537 1.463 1_655 S
C540 N544 1.427 . S
C541 H531 0.929 . S
C541 C539 1.433 . S
C541 N544 1.384 . S
C542 H533 0.929 . S
C542 C534 1.378 . S
C542 C537 1.350 1_655 S
C543 H530 0.929 . S
C543 C535 1.433 . S
C543 N545 1.384 . S
N544 C540 1.427 . S
N544 C541 1.384 . S
N545 C537 1.427 . S
N545 C543 1.384 . S
H546 C552 0.930 . S
H547 C556 0.930 . S
H548 C561 0.929 . S
H549 C559 0.929 . S
H550 C554 0.941 . S
H551 C560 0.941 . S
C552 H546 0.930 . S
C552 C553 1.367 . S
C552 C560 1.378 . S
C553 C552 1.367 . S
C553 C561 1.433 . S
C554 H550 0.941 . S
C554 C556 1.378 . S
C554 C558 1.350 . S
C555 C558 1.463 1_565 S
C555 C560 1.350 . S
C555 N563 1.427 . S
C556 H547 0.930 . S
C556 C554 1.378 . S
C556 C557 1.367 . S
C557 C556 1.367 . S
C557 C559 1.433 . S
C558 C554 1.350 . S
C558 C555 1.463 1_545 S
C558 N562 1.427 . S
C559 H549 0.929 . S
C559 C557 1.433 . S
C559 N562 1.384 . S
C560 H551 0.941 . S
C560 C552 1.378 . S
C560 C555 1.350 . S
C561 H548 0.929 . S
C561 C553 1.433 . S
C561 N563 1.384 . S
N562 C558 1.427 . S
N562 C559 1.384 . S
N563 C555 1.427 . S
N563 C561 1.384 . S
H564 C570 0.930 . S
H565 C574 0.930 . S
H566 C579 0.929 . S
H567 C577 0.929 . S
H568 C572 0.929 . S
H569 C578 0.929 . S
C570 H564 0.930 . S
C570 C571 1.367 . S
C570 C578 1.378 . S
C571 C570 1.367 . S
C571 C579 1.433 . S
C572 H568 0.929 . S
C572 C574 1.378 . S
C572 C576 1.350 . S
C573 C576 1.463 . S
C573 C578 1.350 . S
C573 N581 1.427 . S
C574 H565 0.930 . S
C574 C572 1.378 . S
C574 C575 1.367 . S
C575 C574 1.367 . S
C575 C577 1.433 . S
C576 C572 1.350 . S
C576 C573 1.463 . S
C576 N580 1.427 . S
C577 H567 0.929 . S
C577 C575 1.433 . S
C577 N580 1.384 . S
C578 H569 0.929 . S
C578 C570 1.378 . S
C578 C573 1.350 . S
C579 H566 0.929 . S
C579 C571 1.433 . S
C579 N581 1.384 . S
N580 C576 1.427 . S
N580 C577 1.384 . S
N581 C573 1.427 . S
N581 C579 1.384 . S
H582 C588 0.930 . S
H583 C592 0.930 . S
H584 C597 0.929 . S
H585 C595 0.929 . S
H586 C590 0.929 . S
H587 C596 0.929 . S
C588 H582 0.930 . S
C588 C589 1.367 1_455 S
C588 C596 1.378 . S
C589 C588 1.367 1_655 S
C589 C597 1.433 . S
C590 H586 0.929 . S
C590 C592 1.378 . S
C590 C594 1.350 1_655 S
C591 C594 1.463 1_655 S
C591 C596 1.350 1_655 S
C591 N599 1.427 . S
C592 H583 0.930 . S
C592 C590 1.378 . S
C592 C593 1.367 1_655 S
C593 C592 1.367 1_455 S
C593 C595 1.433 . S
C594 C590 1.350 1_455 S
C594 C591 1.463 1_455 S
C594 N598 1.427 . S
C595 H585 0.929 . S
C595 C593 1.433 . S
C595 N598 1.384 . S
C596 H587 0.929 . S
C596 C588 1.378 . S
C596 C591 1.350 1_455 S
C597 H584 0.929 . S
C597 C589 1.433 . S
C597 N599 1.384 . S
N598 C594 1.427 . S
N598 C595 1.384 . S
N599 C591 1.427 . S
N599 C597 1.384 . S
C175 C11 1.778 . S
C179 C123 1.768 . S
C193 C25 1.771 . S
C197 C137 1.765 . S
C211 C151 1.735 . S
C215 C39 1.725 . S
C229 C165 1.767 . S
C233 C53 1.767 . S
C247 C95 1.771 . S
C251 C67 1.764 . S
C265 C109 1.735 . S
C269 C81 1.726 . S
C283 C12 1.430 . S
C287 C54 1.435 . S
C301 C68 1.429 . S
C305 C26 1.423 . S
C319 C82 1.399 . S
C323 C40 1.398 . S
C337 C96 1.447 . S
C341 C138 1.445 . S
C355 C152 1.403 . S
C359 C110 1.394 . S
C373 C124 1.427 . S
C377 C166 1.425 . S
C391 C89 1.197 . S
C395 C5 1.202 . S
C409 C19 1.184 . S
C413 C103 1.185 . S
C427 C117 1.167 . S
C431 C33 1.168 . S
C445 C131 1.214 . S
C449 C47 1.213 . S
C463 C61 1.168 . S
C467 C145 1.176 . S
C481 C159 1.184 . S
C485 C75 1.185 . S
C499 C4 0.861 . S
C503 C102 0.875 . S
C517 C116 0.883 . S
C521 C18 0.894 . S
C535 C130 0.870 . S
C539 C32 0.866 . S
C553 C46 0.859 . S
C557 C144 0.875 . S
C571 C158 0.894 . S
C575 C60 0.883 . S
C589 C88 0.866 . S
C593 C74 0.870 . S
