# Generated by pormake.
# Topology afw, (4)-cn, num edge types: 1
# Building blocks:
#     Node 0, Type 0, BuildingBlock: CEKHIL_clean_sbu_0, # of connection points: 4
#     Node 1, Type 0, BuildingBlock: CEKHIL_clean_sbu_0, # of connection points: 4
#     Node 2, Type 0, BuildingBlock: CEKHIL_clean_sbu_0, # of connection points: 4
#     Node 3, Type 0, BuildingBlock: CEKHIL_clean_sbu_0, # of connection points: 4
#     Node 4, Type 0, BuildingBlock: CEKHIL_clean_sbu_0, # of connection points: 4
#     Node 5, Type 0, BuildingBlock: CEKHIL_clean_sbu_0, # of connection points: 4
#     Node 6, Type 0, BuildingBlock: CEKHIL_clean_sbu_0, # of connection points: 4
#     Node 7, Type 0, BuildingBlock: CEKHIL_clean_sbu_0, # of connection points: 4
#     Node 8, Type 0, BuildingBlock: CEKHIL_clean_sbu_0, # of connection points: 4
#     Edge 9, Type (0, 0), BuildingBlock: XIVTED_clean_linker_0, # of connection points: 2
#     Edge 10, Type (0, 0), BuildingBlock: XIVTED_clean_linker_0, # of connection points: 2
#     Edge 11, Type (0, 0), BuildingBlock: XIVTED_clean_linker_0, # of connection points: 2
#     Edge 12, Type (0, 0), BuildingBlock: XIVTED_clean_linker_0, # of connection points: 2
#     Edge 13, Type (0, 0), BuildingBlock: XIVTED_clean_linker_0, # of connection points: 2
#     Edge 14, Type (0, 0), BuildingBlock: XIVTED_clean_linker_0, # of connection points: 2
#     Edge 15, Type (0, 0), BuildingBlock: XIVTED_clean_linker_0, # of connection points: 2
#     Edge 16, Type (0, 0), BuildingBlock: XIVTED_clean_linker_0, # of connection points: 2
#     Edge 17, Type (0, 0), BuildingBlock: XIVTED_clean_linker_0, # of connection points: 2
#     Edge 18, Type (0, 0), BuildingBlock: XIVTED_clean_linker_0, # of connection points: 2
#     Edge 19, Type (0, 0), BuildingBlock: XIVTED_clean_linker_0, # of connection points: 2
#     Edge 20, Type (0, 0), BuildingBlock: XIVTED_clean_linker_0, # of connection points: 2
#     Edge 21, Type (0, 0), BuildingBlock: XIVTED_clean_linker_0, # of connection points: 2
#     Edge 22, Type (0, 0), BuildingBlock: XIVTED_clean_linker_0, # of connection points: 2
#     Edge 23, Type (0, 0), BuildingBlock: XIVTED_clean_linker_0, # of connection points: 2
#     Edge 24, Type (0, 0), BuildingBlock: XIVTED_clean_linker_0, # of connection points: 2
#     Edge 25, Type (0, 0), BuildingBlock: XIVTED_clean_linker_0, # of connection points: 2
#     Edge 26, Type (0, 0), BuildingBlock: XIVTED_clean_linker_0, # of connection points: 2
# Relax obj value: 0.199
# Max RMSD: 0.209
# Mean RMSD: 0.200
data_MOF--net-afw--node1-CEKHIL_clean_sbu_0--edge1-XIVTED_clean_linker_0
_symmetry_space_group_name_H-M    P1
_symmetry_Int_Tables_number       1
_symmetry_cell_setting            triclinic
loop_
_symmetry_equiv_pos_as_xyz
'x, y, z'
_cell_length_a     43.084794
_cell_length_b     43.142656
_cell_length_c     31.199986
_cell_angle_alpha  90.616559
_cell_angle_beta   90.711801
_cell_angle_gamma 119.91515
loop_
_atom_site_label
_atom_site_type_symbol
_atom_site_fract_x
_atom_site_fract_y
_atom_site_fract_z
_atom_type_partial_charge
Co0 Co 0.03247 0.22909 0.01238 0.0
O1 O 0.05897 0.27602 0.98842 0.0
O2 O 0.00398 0.23477 0.96813 0.0
C3 C 0.07574 0.21436 0.01127 0.0
O4 O -0.00257 0.17745 0.02799 0.0
Co5 Co 0.05498 0.21298 0.10071 0.0
O6 O 0.01897 0.16276 0.08567 0.0
C7 C 0.01975 0.25618 0.09758 0.0
C8 C 0.03121 0.26668 0.96348 0.0
C9 C -0.00369 0.15444 0.05488 0.0
O10 O 0.01292 0.24847 0.05733 0.0
O11 O 0.03885 0.24703 0.11999 0.0
O12 O 0.05743 0.21154 0.97658 0.0
O13 O 0.07059 0.23034 0.04341 0.0
Co14 Co 0.81675 0.81351 0.03044 0.0
O15 O 0.79066 0.76379 0.04397 0.0
O16 O 0.78186 0.80562 0.07383 0.0
C17 C 0.87151 0.81955 0.03275 0.0
O18 O 0.83968 0.86769 0.02496 0.0
Co19 Co 0.85968 0.83657 0.94567 0.0
O20 O 0.8763 0.88545 0.96834 0.0
C21 C 0.78111 0.80062 0.94256 0.0
C22 C 0.77317 0.77211 0.07091 0.0
C23 C 0.86287 0.8922 0.00086 0.0
O24 O 0.78076 0.80458 0.98343 0.0
O25 O 0.80959 0.80875 0.92195 0.0
O26 O 0.85642 0.82089 0.068 0.0
O27 O 0.85163 0.8108 -0.00149 0.0
Co28 Co 0.19302 0.99488 0.02225 0.0
O29 O 0.21525 0.96762 0.00628 0.0
O30 O 0.2291 0.02052 0.98001 0.0
C31 C 0.13638 0.94955 0.01754 0.0
O32 O 0.17502 0.03022 0.0301 0.0
Co33 Co 0.14837 0.97714 0.10545 0.0
O34 O 0.13657 0.01332 0.08472 0.0
C35 C 0.22703 0.01269 0.11138 0.0
C36 C 0.23443 0.99338 0.98052 0.0
C37 C 0.15268 0.03386 0.05372 0.0
O38 O 0.22903 0.0179 0.07071 0.0
O39 O 0.19738 0.99442 0.13062 0.0
O40 O 0.15267 0.9663 0.98324 0.0
O41 O 0.15573 0.95851 0.05223 0.0
Co42 Co 0.62414 0.52977 0.33643 0.0
O43 O 0.59648 0.54795 0.36364 0.0
O44 O 0.65413 0.56731 0.37669 0.0
C45 C 0.58541 0.47093 0.34343 0.0
O46 O 0.66119 0.51695 0.31698 0.0
Co47 Co 0.59794 0.48482 0.25182 0.0
O48 O 0.63894 0.47685 0.26236 0.0
C49 C 0.62725 0.56268 0.24934 0.0
C50 C 0.62566 0.56914 0.38526 0.0
C51 C 0.66331 0.49513 0.29037 0.0
O52 O 0.63687 0.56542 0.28906 0.0
O53 O 0.60872 0.53256 0.22966 0.0
O54 O 0.60584 0.48983 0.37551 0.0
O55 O 0.5857 0.48896 0.31039 0.0
Co56 Co 0.49658 0.14199 0.36704 0.0
O57 O 0.47846 0.09481 0.38951 0.0
O58 O 0.46303 0.13413 0.41191 0.0
C59 C 0.55495 0.15801 0.3672 0.0
O60 O 0.51025 0.19326 0.35291 0.0
Co61 Co 0.53563 0.16261 0.27953 0.0
O62 O 0.54481 0.21124 0.29462 0.0
C63 C 0.45708 0.11693 0.28117 0.0
C64 C 0.45996 0.10271 0.41542 0.0
C65 C 0.52957 0.21729 0.32578 0.0
O66 O 0.45712 0.12251 0.32184 0.0
O67 O 0.4857 0.12779 0.25974 0.0
O68 O 0.54033 0.16041 0.40236 0.0
O69 O 0.53318 0.14252 0.33521 0.0
Co70 Co 0.87916 0.39659 0.32749 0.0
O71 O 0.92699 0.43152 0.34599 0.0
O72 O 0.89395 0.37804 0.37424 0.0
C73 C 0.85644 0.43342 0.324 0.0
O74 O 0.82887 0.35439 0.31999 0.0
Co75 Co 0.84683 0.4 0.23937 0.0
O76 O 0.8014 0.36104 0.26202 0.0
C77 C 0.89995 0.37605 0.24318 0.0
C78 C 0.92357 0.40857 0.37489 0.0
C79 C 0.80104 0.34459 0.29584 0.0
O80 O 0.89866 0.3757 0.28441 0.0
O81 O 0.88348 0.38762 0.21968 0.0
O82 O 0.85975 0.42122 0.36065 0.0
O83 O 0.87058 0.42631 0.29174 0.0
Co84 Co 0.36909 0.8892 0.69588 0.0
O85 O 0.39887 0.93674 0.67503 0.0
O86 O 0.34278 0.89994 0.65362 0.0
C87 C 0.40861 0.86977 0.69091 0.0
O88 O 0.331 0.83762 0.70832 0.0
Co89 Co 0.38959 0.86591 0.7808 0.0
O90 O 0.35068 0.81768 0.76291 0.0
C91 C 0.36218 0.91602 0.78381 0.0
C92 C 0.3719 0.9307 0.65029 0.0
C93 C 0.32829 0.81243 0.73269 0.0
O94 O 0.35264 0.9092 0.74394 0.0
O95 O 0.38045 0.90415 0.80299 0.0
O96 O 0.39101 0.87023 0.65704 0.0
O97 O 0.4054 0.88553 0.7246 0.0
Co98 Co 0.14436 0.4732 0.68634 0.0
O99 O 0.11474 0.42341 0.69934 0.0
O100 O 0.10912 0.46749 0.72802 0.0
C101 C 0.19686 0.47397 0.69271 0.0
O102 O 0.17082 0.52779 0.68276 0.0
Co103 Co 0.19449 0.49778 0.6074 0.0
O104 O 0.21285 0.54636 0.63209 0.0
C105 C 0.11661 0.47008 0.59559 0.0
C106 C 0.09906 0.43361 0.72674 0.0
C107 C 0.19711 0.55273 0.66234 0.0
O108 O 0.11166 0.46809 0.63638 0.0
O109 O 0.14666 0.47874 0.57855 0.0
O110 O 0.18119 0.47683 0.72658 0.0
O111 O 0.17912 0.46791 0.65709 0.0
Co112 Co 0.5141 0.64363 0.6877 0.0
O113 O 0.54103 0.62199 0.66729 0.0
O114 O 0.54602 0.67267 0.64397 0.0
C115 C 0.46001 0.59404 0.68571 0.0
O116 O 0.49071 0.6737 0.69843 0.0
Co117 Co 0.4726 0.62245 0.77309 0.0
O118 O 0.45436 0.65442 0.7549 0.0
C119 C 0.55127 0.66825 0.77478 0.0
C120 C 0.55546 0.64847 0.64095 0.0
C121 C 0.46778 0.67502 0.7232 0.0
O122 O 0.55127 0.67058 0.73373 0.0
O123 O 0.52314 0.64828 0.79598 0.0
O124 O 0.4737 0.61162 0.65093 0.0
O125 O 0.48073 0.60482 0.71939 0.0
H126 H 0.16008 0.06974 0.97876 0.0
H127 H 0.10421 0.20386 0.08471 0.0
H128 H 0.13003 0.06606 0.11089 0.0
H129 H 0.08937 0.17743 0.94941 0.0
H130 H 0.12729 0.16287 0.0942 0.0
H131 H 0.14655 0.1181 0.96704 0.0
C132 C 0.15089 0.07924 0.0053 0.0
C133 C 0.1459 0.0637 0.04577 0.0
C134 C 0.11924 0.16628 0.06238 0.0
C135 C 0.13103 0.11905 0.03278 0.0
C136 C 0.10619 0.18978 0.0569 0.0
C137 C 0.0944 0.19369 0.0163 0.0
C138 C 0.12093 0.14688 0.02695 0.0
C139 C 0.09789 0.17493 0.98134 0.0
C140 C 0.14312 0.1067 -0.00143 0.0
C141 C 0.13389 0.07697 0.07905 0.0
N142 N 0.11071 0.15216 0.98748 0.0
N143 N 0.12697 0.10391 0.07184 0.0
H144 H 0.8675 0.92424 0.0792 0.0
H145 H 0.95688 0.12082 0.98215 0.0
H146 H 0.88615 0.94661 0.94456 0.0
H147 H 0.97386 0.1009 0.1133 0.0
H148 H 0.91776 0.05643 0.97024 0.0
H149 H 0.8939 0.98871 0.09418 0.0
C150 C 0.87666 0.94263 0.05281 0.0
C151 C 0.87503 0.93019 0.01067 0.0
C152 C 0.92978 0.06626 0.00174 0.0
C153 C 0.90477 0.00346 0.0274 0.0
C154 C 0.95195 0.10301 0.00863 0.0
C155 C 0.96899 0.11625 0.04865 0.0
C156 C 0.9243 0.04264 0.0352 0.0
C157 C 0.96163 0.09182 0.08176 0.0
C158 C 0.89182 0.97933 0.06136 0.0
C159 C 0.88735 0.95513 0.9776 0.0
N160 N 0.93998 0.05617 0.07426 0.0
N161 N 0.90175 0.99054 0.98668 0.0
H162 H 0.91927 0.83884 0.09974 0.0
H163 H 0.08874 0.92633 0.94981 0.0
H164 H 0.91131 0.82897 0.96166 0.0
H165 H 0.09586 0.91651 0.08666 0.0
H166 H 0.02363 0.88874 0.95295 0.0
H167 H 0.98413 0.8653 0.09552 0.0
C168 C 0.93118 0.842 0.06857 0.0
C169 C 0.91005 0.83216 0.03098 0.0
C170 C 0.0395 0.89456 0.98222 0.0
C171 C 0.98406 0.86258 0.02583 0.0
C172 C 0.0766 0.91606 0.98044 0.0
C173 C 0.09756 0.92482 0.0181 0.0
C174 C 0.0234 0.88211 0.022 0.0
C175 C 0.08061 0.91066 0.05691 0.0
C176 C 0.96817 0.85703 0.06615 0.0
C177 C 0.92672 0.83654 0.99142 0.0
N178 N 0.04445 0.89027 0.05792 0.0
N179 N 0.96286 0.85183 0.98983 0.0
H180 H 0.82804 0.45582 0.38655 0.0
H181 H 0.68697 0.4655 0.23012 0.0
H182 H 0.83027 0.44486 0.24913 0.0
H183 H 0.71159 0.51375 0.35703 0.0
H184 H 0.73759 0.45509 0.2371 0.0
H185 H 0.78379 0.47508 0.37726 0.0
C186 C 0.81943 0.45775 0.35441 0.0
C187 C 0.83261 0.4485 0.31856 0.0
C188 C 0.73207 0.46824 0.26324 0.0
C189 C 0.78178 0.47001 0.30776 0.0
C190 C 0.70309 0.47404 0.25938 0.0
C191 C 0.69495 0.49041 0.29311 0.0
C192 C 0.75269 0.47835 0.30135 0.0
C193 C 0.71691 0.50109 0.33019 0.0
C194 C 0.79424 0.46879 0.34914 0.0
C195 C 0.82067 0.45159 0.27764 0.0
N196 N 0.74457 0.49454 0.33349 0.0
N197 N 0.79557 0.46168 0.27336 0.0
H198 H 0.52178 0.25016 0.3975 0.0
H199 H 0.55741 0.4258 0.27354 0.0
H200 H 0.54624 0.26637 0.26304 0.0
H201 H 0.57825 0.4268 0.40935 0.0
H202 H 0.53973 0.36243 0.26984 0.0
H203 H 0.53004 0.31069 0.40281 0.0
C204 C 0.52868 0.26633 0.36911 0.0
C205 C 0.53362 0.25333 0.32985 0.0
C206 C 0.5479 0.3765 0.3005 0.0
C207 C 0.54248 0.32204 0.33558 0.0
C208 C 0.55784 0.41262 0.30267 0.0
C209 C 0.56977 0.43169 0.34171 0.0
C210 C 0.54941 0.35925 0.33772 0.0
C211 C 0.56955 0.41313 0.37852 0.0
C212 C 0.53344 0.30081 0.37219 0.0
C213 C 0.54256 0.27544 0.29406 0.0
N214 N 0.55967 0.37792 0.37562 0.0
N215 N 0.5466 0.30863 0.29776 0.0
H216 H 0.59047 0.15925 0.29536 0.0
H217 H 0.78082 0.31771 0.37611 0.0
H218 H 0.60784 0.20479 0.42329 0.0
H219 H 0.74401 0.30033 0.24405 0.0
H220 H 0.72278 0.26744 0.39647 0.0
H221 H 0.65276 0.20126 0.27945 0.0
C222 C 0.60752 0.1778 0.32034 0.0
C223 C 0.59384 0.17899 0.3605 0.0
C224 C 0.72764 0.27458 0.36306 0.0
C225 C 0.66512 0.22703 0.3424 0.0
C226 C 0.76068 0.30309 0.35137 0.0
C227 C 0.76707 0.31327 0.30834 0.0
C228 C 0.70122 0.25582 0.33135 0.0
C229 C 0.74005 0.29358 0.27761 0.0
C230 C 0.64302 0.20182 0.31113 0.0
C231 C 0.6173 0.20323 0.3918 0.0
N232 N 0.70831 0.26574 0.28973 0.0
N233 N 0.65188 0.22662 0.38197 0.0
H234 H 0.43549 0.85422 0.76195 0.0
H235 H 0.47214 0.70999 0.64887 0.0
H236 H 0.41333 0.8284 0.62691 0.0
H237 H 0.44306 0.7047 0.78163 0.0
H238 H 0.46046 0.75965 0.63938 0.0
H239 H 0.45006 0.8066 0.76881 0.0
C240 C 0.43403 0.8388 0.73363 0.0
C241 C 0.42273 0.84496 0.69389 0.0
C242 C 0.45655 0.74744 0.67047 0.0
C243 C 0.43957 0.79064 0.70157 0.0
C244 C 0.46319 0.71919 0.67595 0.0
C245 C 0.4585 0.70321 0.7161 0.0
C246 C 0.44592 0.7602 0.70563 0.0
C247 C 0.4468 0.71609 0.75007 0.0
C248 C 0.44216 0.81151 0.73766 0.0
C249 C 0.42173 0.82436 0.6582 0.0
N250 N 0.44122 0.74407 0.74416 0.0
N251 N 0.42998 0.79799 0.66287 0.0
H252 H 0.29425 0.78284 0.65587 0.0
H253 H 0.19346 0.58169 0.7398 0.0
H254 H 0.299 0.75666 0.78801 0.0
H255 H 0.22923 0.61007 0.61012 0.0
H256 H 0.21869 0.64554 0.75783 0.0
H257 H 0.25594 0.71896 0.63882 0.0
C258 C 0.28658 0.76376 0.68146 0.0
C259 C 0.30007 0.77504 0.72334 0.0
C260 C 0.22066 0.63762 0.72537 0.0
C261 C 0.25646 0.70211 0.70405 0.0
C262 C 0.20623 0.60128 0.71506 0.0
C263 C 0.20963 0.59064 0.67355 0.0
C264 C 0.2379 0.66329 0.6937 0.0
C265 C 0.22645 0.61713 0.64269 0.0
C266 C 0.26498 0.72733 0.67165 0.0
C267 C 0.28948 0.74907 0.7552 0.0
N268 N 0.23995 0.65218 0.65338 0.0
N269 N 0.26845 0.7138 0.74487 0.0
H270 H 0.23548 0.47206 0.62548 0.0
H271 H 0.42085 0.56448 0.75745 0.0
H272 H 0.24388 0.49594 0.76127 0.0
H273 H 0.41174 0.56437 0.61949 0.0
H274 H 0.35567 0.52739 0.76084 0.0
H275 H 0.2996 0.49357 0.62477 0.0
C276 C 0.25079 0.48155 0.65526 0.0
C277 C 0.23454 0.48283 0.69338 0.0
C278 C 0.36803 0.5352 0.72985 0.0
C279 C 0.30787 0.50748 0.69274 0.0
C280 C 0.40518 0.55629 0.72786 0.0
C281 C 0.42156 0.56795 0.68814 0.0
C282 C 0.34733 0.52555 0.69183 0.0
C283 C 0.40009 0.55633 0.6508 0.0
C284 C 0.28738 0.49382 0.65481 0.0
C285 C 0.25552 0.4949 0.73112 0.0
N286 N 0.36401 0.53596 0.65358 0.0
N287 N 0.29129 0.50714 0.72979 0.0
H288 H -0.00687 0.24877 0.8876 0.0
H289 H 0.08715 0.45037 0.80722 0.0
H290 H 0.07036 0.33948 0.96346 0.0
H291 H 0.06032 0.36062 0.72218 0.0
H292 H 0.06206 0.40902 0.86689 0.0
H293 H -5e-05 0.28933 0.8291 0.0
C294 C 0.011 0.27726 0.8922 0.0
C295 C 0.03155 0.29085 0.93012 0.0
C296 C 0.06098 0.39841 0.83493 0.0
C297 C 0.03889 0.3371 0.86403 0.0
C298 C 0.07497 0.4219 0.80083 0.0
C299 C 0.07609 0.40886 0.75984 0.0
C300 C 0.04751 0.36167 0.82772 0.0
C301 C 0.06023 0.37173 0.75343 0.0
C302 C 0.01491 0.30027 0.85887 0.0
C303 C 0.05437 0.32792 0.93449 0.0
N304 N 0.04681 0.3494 0.78712 0.0
N305 N 0.05748 0.34979 0.90179 0.0
H306 H 0.71329 0.77046 0.9742 0.0
H307 H 0.6182 0.71081 0.74271 0.0
H308 H 0.77078 0.79471 0.85546 0.0
H309 H 0.56182 0.67591 0.86186 0.0
H310 H 0.67396 0.74641 0.78344 0.0
H311 H 0.65697 0.7408 0.93322 0.0
C312 C 0.71411 0.76981 0.93953 0.0
C313 C 0.74684 0.78488 0.91826 0.0
C314 C 0.64936 0.73098 0.80063 0.0
C315 C 0.68249 0.75081 0.87126 0.0
C316 C 0.61749 0.71062 0.7774 0.0
C317 C 0.58526 0.69011 0.79887 0.0
C318 C 0.649 0.7309 0.84561 0.0
C319 C 0.58602 0.69106 0.84389 0.0
C320 C 0.68193 0.75275 0.91617 0.0
C321 C 0.74621 0.7832 0.87326 0.0
N322 N 0.61741 0.71107 0.86576 0.0
N323 N 0.71453 0.76633 0.85128 0.0
H324 H 0.31835 0.94299 0.75994 0.0
H325 H 0.27416 0.96252 -0.00126 0.0
H326 H 0.37769 0.93556 0.86823 0.0
H327 H 0.25215 0.01726 0.89844 0.0
H328 H 0.31116 0.95117 0.94971 0.0
H329 H 0.29282 0.96975 0.80775 0.0
C330 C 0.32635 0.94731 0.7935 0.0
C331 C 0.34969 0.93631 0.81016 0.0
C332 C 0.29868 0.9661 0.93845 0.0
C333 C 0.32053 0.9666 0.86469 0.0
C334 C 0.27751 0.97247 0.96639 0.0
C335 C 0.26017 0.99074 0.95243 0.0
C336 C 0.30176 0.97722 0.89582 0.0
C337 C 0.26534 0.00319 0.9103 0.0
C338 C 0.31186 0.96268 0.82067 0.0
C339 C 0.35934 0.94293 0.85389 0.0
N340 N 0.28525 0.99563 0.88305 0.0
N341 N 0.34435 0.95712 0.87963 0.0
H342 H 0.44682 0.10258 0.19505 0.0
H343 H 0.23446 0.01605 0.19893 0.0
H344 H 0.38886 0.09072 0.3115 0.0
H345 H 0.29594 0.04417 0.0831 0.0
H346 H 0.28998 0.03993 0.24113 0.0
H347 H 0.39088 0.07704 0.15431 0.0
C348 C 0.42231 0.09445 0.21221 0.0
C349 C 0.42267 0.099 0.25691 0.0
C350 C 0.29128 0.04092 0.2065 0.0
C351 C 0.35826 0.06973 0.21001 0.0
C352 C 0.25961 0.02727 0.18232 0.0
C353 C 0.26051 0.02808 0.13732 0.0
C354 C 0.32408 0.05527 0.18556 0.0
C355 C 0.29391 0.04306 0.11766 0.0
C356 C 0.39033 0.07995 0.18877 0.0
C357 C 0.38992 0.0878 0.27713 0.0
N358 N 0.32434 0.05596 0.14193 0.0
N359 N 0.35898 0.07372 0.25347 0.0
H360 H 0.02327 0.27309 0.1832 0.0
H361 H 0.90635 0.369 0.15686 0.0
H362 H 0.98083 0.28431 0.06183 0.0
H363 H 0.93962 0.34885 0.27967 0.0
H364 H 0.93716 0.34181 0.12143 0.0
H365 H -0.00368 0.3043 0.21871 0.0
C366 C 0.00838 0.28216 0.16392 0.0
C367 C 0.00423 0.27587 0.11936 0.0
C368 C 0.93781 0.3434 0.15612 0.0
C369 C 0.97328 0.31172 0.16005 0.0
C370 C 0.92024 0.35902 0.17648 0.0
C371 C 0.92018 0.36113 0.22146 0.0
C372 C 0.95558 0.32977 0.18078 0.0
C373 C 0.93879 0.34772 0.24497 0.0
C374 C -0.00705 0.29997 0.18431 0.0
C375 C 0.98463 0.28836 0.09622 0.0
N376 N 0.95566 0.33253 0.22434 0.0
N377 N 0.96987 0.30563 0.11684 0.0
H378 H 0.6162 0.56788 0.16379 0.0
H379 H 0.75226 0.77827 0.15197 0.0
H380 H 0.66925 0.63285 0.27664 0.0
H381 H 0.73059 0.70241 0.04877 0.0
H382 H 0.7101 0.72873 0.19683 0.0
H383 H 0.64552 0.62111 0.12037 0.0
C384 C 0.63366 0.59336 0.17963 0.0
C385 C 0.64076 0.59566 0.22396 0.0
C386 C 0.71434 0.72318 0.16416 0.0
C387 C 0.67447 0.65685 0.17408 0.0
C388 C 0.73816 0.75132 0.1386 0.0
C389 C 0.74503 0.74419 0.09689 0.0
C390 C 0.69692 0.68804 0.14733 0.0
C391 C 0.72631 0.70892 0.08098 0.0
C392 C 0.65046 0.62376 0.15471 0.0
C393 C 0.66335 0.62968 0.24252 0.0
N394 N 0.70316 0.68218 0.10621 0.0
N395 N 0.67974 0.65895 0.2174 0.0
H396 H 0.12192 0.49982 0.51821 0.0
H397 H 0.91901 0.3708 0.44666 0.0
H398 H 0.04412 0.42485 0.60501 0.0
H399 H -0.00924 0.46685 0.3799 0.0
H400 H 0.96473 0.38725 0.50328 0.0
H401 H 0.07432 0.48567 0.46579 0.0
C402 C 0.09469 0.48037 0.52627 0.0
C403 C 0.08693 0.46321 0.56585 0.0
C404 C 0.97036 0.40473 0.47629 0.0
C405 C 0.0322 0.4467 0.50567 0.0
C406 C 0.94444 0.39526 0.44383 0.0
C407 C 0.95124 0.41745 0.40845 0.0
C408 C 0.00338 0.43636 0.473 0.0
C409 C 0.98446 0.44894 0.40654 0.0
C410 C 0.0675 0.47241 0.49634 0.0
C411 C 0.05114 0.43863 0.57481 0.0
N412 N 0.00935 0.45736 0.43828 0.0
N413 N 0.02501 0.43075 0.54464 0.0
H414 H 0.66728 0.58981 0.45798 0.0
H415 H 0.56692 0.68292 0.56522 0.0
H416 H 0.58291 0.59865 0.3936 0.0
H417 H 0.59311 0.613 0.63529 0.0
H418 H 0.59303 0.67267 0.50107 0.0
H419 H 0.65949 0.61877 0.52195 0.0
C420 C 0.64775 0.59865 0.45699 0.0
C421 C 0.62541 0.59162 0.42081 0.0
C422 C 0.59371 0.66027 0.53081 0.0
C423 C 0.61697 0.62501 0.49301 0.0
C424 C 0.57903 0.66619 0.56742 0.0
C425 C 0.5775 0.64836 0.60536 0.0
C426 C 0.60755 0.63702 0.53257 0.0
C427 C 0.59343 0.62688 0.60645 0.0
C428 C 0.64329 0.61496 0.49342 0.0
C429 C 0.60037 0.60333 0.42112 0.0
N430 N 0.60767 0.62159 0.57037 0.0
N431 N 0.59673 0.61943 0.45681 0.0
H432 H 0.3384 0.91683 0.57178 0.0
H433 H 0.44491 0.11893 0.49458 0.0
H434 H 0.41478 0.00316 0.65375 0.0
H435 H 0.42654 0.02993 0.4127 0.0
H436 H 0.41598 0.07716 0.55336 0.0
H437 H 0.35287 0.95937 0.51328 0.0
C438 C 0.35755 0.94486 0.57773 0.0
C439 C 0.37569 0.95658 0.6174 0.0
C440 C 0.41783 0.06687 0.52224 0.0
C441 C 0.39183 0.00504 0.55126 0.0
C442 C 0.43412 0.09055 0.48876 0.0
C443 C 0.43833 0.07776 0.44901 0.0
C444 C 0.40493 0.0302 0.5154 0.0
C445 C 0.4241 0.04081 0.44309 0.0
C446 C 0.36589 0.96896 0.54438 0.0
C447 C 0.40048 0.99309 0.62344 0.0
N448 N 0.408 0.01826 0.47598 0.0
N449 N 0.40789 0.01609 0.59065 0.0
loop_
_geom_bond_atom_site_label_1
_geom_bond_atom_site_label_2
_geom_bond_distance
_geom_bond_site_symmetry_2
_ccdc_geom_bond_type
Co0 O1 2.216 1_554 S
Co0 O2 2.091 1_554 S
Co0 O4 2.004 1_454 S
Co0 O10 2.021 1_455 S
Co0 O12 2.137 1_554 S
Co0 O13 2.244 . S
O1 Co0 2.216 1_556 S
O1 C8 1.247 . S
O2 Co0 2.091 1_556 S
O2 C8 1.261 . S
C3 O12 1.247 1_554 S
C3 O13 1.272 . S
O4 Co0 2.004 1_656 S
O4 C9 1.259 1_556 S
Co5 O6 2.061 1_455 S
Co5 O11 2.052 . S
Co5 O13 2.135 . S
O6 Co5 2.061 1_655 S
O6 C9 1.235 . S
C7 O10 1.238 . S
C7 O11 1.241 1_655 S
C8 O1 1.247 . S
C8 O2 1.261 . S
C9 O4 1.259 1_554 S
C9 O6 1.235 . S
O10 Co0 2.021 1_655 S
O10 C7 1.238 . S
O11 Co5 2.052 . S
O11 C7 1.241 1_455 S
O12 Co0 2.137 1_556 S
O12 C3 1.247 1_556 S
O13 Co0 2.244 . S
O13 C3 1.272 . S
O13 Co5 2.135 . S
Co14 O15 2.216 . S
Co14 O16 2.091 . S
Co14 O18 2.004 . S
Co14 O24 2.035 . S
Co14 O26 2.137 . S
Co14 O27 2.244 1_554 S
O15 Co14 2.216 . S
O15 C22 1.247 . S
O16 Co14 2.091 . S
O16 C22 1.261 . S
C17 O26 1.247 . S
C17 O27 1.272 1_554 S
O18 Co14 2.004 . S
O18 C23 1.259 . S
Co19 O20 2.061 . S
Co19 O25 2.052 . S
Co19 O27 2.135 . S
O20 Co19 2.061 . S
O20 C23 1.235 1_556 S
C21 O24 1.214 1_556 S
C21 O25 1.241 . S
C22 O15 1.247 . S
C22 O16 1.261 . S
C23 O18 1.259 . S
C23 O20 1.235 1_554 S
O24 Co14 2.035 . S
O24 C21 1.214 1_554 S
O25 Co19 2.052 . S
O25 C21 1.241 . S
O26 Co14 2.137 . S
O26 C17 1.247 . S
O27 Co14 2.244 1_556 S
O27 C17 1.272 1_556 S
O27 Co19 2.135 . S
Co28 O29 2.216 1_544 S
Co28 O30 2.091 1_554 S
Co28 O32 2.004 1_554 S
Co28 O38 2.021 . S
Co28 O40 2.137 1_544 S
Co28 O41 2.244 1_545 S
O29 Co28 2.216 1_566 S
O29 C36 1.247 . S
O30 Co28 2.091 1_556 S
O30 C36 1.261 1_545 S
C31 O40 1.247 1_554 S
C31 O41 1.272 . S
O32 Co28 2.004 1_556 S
O32 C37 1.259 1_556 S
Co33 O34 2.061 . S
Co33 O39 2.052 . S
Co33 O41 2.135 1_545 S
O34 Co33 2.061 . S
O34 C37 1.235 . S
C35 O38 1.238 . S
C35 O39 1.241 . S
C36 O29 1.247 . S
C36 O30 1.261 1_565 S
C37 O32 1.259 1_554 S
C37 O34 1.235 . S
O38 Co28 2.021 . S
O38 C35 1.238 . S
O39 Co33 2.052 . S
O39 C35 1.241 . S
O40 Co28 2.137 1_566 S
O40 C31 1.247 1_556 S
O41 Co28 2.244 1_565 S
O41 C31 1.272 . S
O41 Co33 2.135 1_565 S
Co42 O43 2.216 . S
Co42 O44 2.091 . S
Co42 O46 2.004 . S
Co42 O52 2.021 . S
Co42 O54 2.137 . S
Co42 O55 2.244 . S
O43 Co42 2.216 . S
O43 C50 1.247 . S
O44 Co42 2.091 . S
O44 C50 1.261 . S
C45 O54 1.247 . S
C45 O55 1.272 . S
O46 Co42 2.004 . S
O46 C51 1.259 . S
Co47 O48 2.061 . S
Co47 O53 2.052 . S
Co47 O55 2.135 . S
O48 Co47 2.061 . S
O48 C51 1.235 . S
C49 O52 1.238 . S
C49 O53 1.241 . S
C50 O43 1.247 . S
C50 O44 1.261 . S
C51 O46 1.259 . S
C51 O48 1.235 . S
O52 Co42 2.021 . S
O52 C49 1.238 . S
O53 Co47 2.052 . S
O53 C49 1.241 . S
O54 Co42 2.137 . S
O54 C45 1.247 . S
O55 Co42 2.244 . S
O55 C45 1.272 . S
O55 Co47 2.135 . S
Co56 O57 2.216 . S
Co56 O58 2.091 . S
Co56 O60 2.004 . S
Co56 O66 2.021 . S
Co56 O68 2.137 . S
Co56 O69 2.244 . S
O57 Co56 2.216 . S
O57 C64 1.247 . S
O58 Co56 2.091 . S
O58 C64 1.261 . S
C59 O68 1.247 . S
C59 O69 1.272 . S
O60 Co56 2.004 . S
O60 C65 1.259 . S
Co61 O62 2.061 . S
Co61 O67 2.052 . S
Co61 O69 2.135 . S
O62 Co61 2.061 . S
O62 C65 1.235 . S
C63 O66 1.238 . S
C63 O67 1.241 . S
C64 O57 1.247 . S
C64 O58 1.261 . S
C65 O60 1.259 . S
C65 O62 1.235 . S
O66 Co56 2.021 . S
O66 C63 1.238 . S
O67 Co61 2.052 . S
O67 C63 1.241 . S
O68 Co56 2.137 . S
O68 C59 1.247 . S
O69 Co56 2.244 . S
O69 C59 1.272 . S
O69 Co61 2.135 . S
Co70 O71 2.216 . S
Co70 O72 2.091 . S
Co70 O74 2.004 . S
Co70 O80 2.021 . S
Co70 O82 2.137 . S
Co70 O83 2.244 . S
O71 Co70 2.216 . S
O71 C78 1.247 . S
O72 Co70 2.091 . S
O72 C78 1.261 . S
C73 O82 1.247 . S
C73 O83 1.272 . S
O74 Co70 2.004 . S
O74 C79 1.259 . S
Co75 O76 2.061 . S
Co75 O81 2.052 . S
Co75 O83 2.135 . S
O76 Co75 2.061 . S
O76 C79 1.235 . S
C77 O80 1.238 . S
C77 O81 1.241 . S
C78 O71 1.247 . S
C78 O72 1.261 . S
C79 O74 1.259 . S
C79 O76 1.235 . S
O80 Co70 2.021 . S
O80 C77 1.238 . S
O81 Co75 2.052 . S
O81 C77 1.241 . S
O82 Co70 2.137 . S
O82 C73 1.247 . S
O83 Co70 2.244 . S
O83 C73 1.272 . S
O83 Co75 2.135 . S
Co84 O85 2.216 . S
Co84 O86 2.091 . S
Co84 O88 2.004 . S
Co84 O94 2.021 . S
Co84 O96 2.137 . S
Co84 O97 2.244 . S
O85 Co84 2.216 . S
O85 C92 1.247 . S
O86 Co84 2.091 . S
O86 C92 1.261 . S
C87 O96 1.247 . S
C87 O97 1.272 . S
O88 Co84 2.004 . S
O88 C93 1.259 . S
Co89 O90 2.061 . S
Co89 O95 2.052 . S
Co89 O97 2.135 . S
O90 Co89 2.061 . S
O90 C93 1.235 . S
C91 O94 1.238 . S
C91 O95 1.241 . S
C92 O85 1.247 . S
C92 O86 1.261 . S
C93 O88 1.259 . S
C93 O90 1.235 . S
O94 Co84 2.021 . S
O94 C91 1.238 . S
O95 Co89 2.052 . S
O95 C91 1.241 . S
O96 Co84 2.137 . S
O96 C87 1.247 . S
O97 Co84 2.244 . S
O97 C87 1.272 . S
O97 Co89 2.135 . S
Co98 O99 2.216 . S
Co98 O100 2.091 . S
Co98 O102 2.004 . S
Co98 O108 2.021 . S
Co98 O110 2.137 . S
Co98 O111 2.244 . S
O99 Co98 2.216 . S
O99 C106 1.247 . S
O100 Co98 2.091 . S
O100 C106 1.261 . S
C101 O110 1.247 . S
C101 O111 1.272 . S
O102 Co98 2.004 . S
O102 C107 1.259 . S
Co103 O104 2.061 . S
Co103 O109 2.052 . S
Co103 O111 2.135 . S
O104 Co103 2.061 . S
O104 C107 1.235 . S
C105 O108 1.238 . S
C105 O109 1.241 . S
C106 O99 1.247 . S
C106 O100 1.261 . S
C107 O102 1.259 . S
C107 O104 1.235 . S
O108 Co98 2.021 . S
O108 C105 1.238 . S
O109 Co103 2.052 . S
O109 C105 1.241 . S
O110 Co98 2.137 . S
O110 C101 1.247 . S
O111 Co98 2.244 . S
O111 C101 1.272 . S
O111 Co103 2.135 . S
Co112 O113 2.216 . S
Co112 O114 2.091 . S
Co112 O116 2.004 . S
Co112 O122 2.021 . S
Co112 O124 2.137 . S
Co112 O125 2.244 . S
O113 Co112 2.216 . S
O113 C120 1.247 . S
O114 Co112 2.091 . S
O114 C120 1.261 . S
C115 O124 1.247 . S
C115 O125 1.272 . S
O116 Co112 2.004 . S
O116 C121 1.259 . S
Co117 O118 2.061 . S
Co117 O123 2.052 . S
Co117 O125 2.135 . S
O118 Co117 2.061 . S
O118 C121 1.235 . S
C119 O122 1.238 . S
C119 O123 1.241 . S
C120 O113 1.247 . S
C120 O114 1.261 . S
C121 O116 1.259 . S
C121 O118 1.235 . S
O122 Co112 2.021 . S
O122 C119 1.238 . S
O123 Co117 2.052 . S
O123 C119 1.241 . S
O124 Co112 2.137 . S
O124 C115 1.247 . S
O125 Co112 2.244 . S
O125 C115 1.272 . S
O125 Co117 2.135 . S
H126 C132 0.930 1_556 S
H127 C136 0.930 . S
H128 C141 0.929 . S
H129 C139 0.929 . S
H130 C134 0.929 . S
H131 C140 0.929 1_556 S
C132 H126 0.930 1_554 S
C132 C133 1.367 . S
C132 C140 1.378 . S
C133 C132 1.367 . S
C133 C141 1.433 . S
C134 H130 0.929 . S
C134 C136 1.378 . S
C134 C138 1.350 . S
C135 C138 1.463 . S
C135 C140 1.350 . S
C135 N143 1.427 . S
C136 H127 0.930 . S
C136 C134 1.378 . S
C136 C137 1.367 . S
C137 C136 1.367 . S
C137 C139 1.433 . S
C138 C134 1.350 . S
C138 C135 1.463 . S
C138 N142 1.427 . S
C139 H129 0.929 . S
C139 C137 1.433 . S
C139 N142 1.384 . S
C140 H131 0.929 1_554 S
C140 C132 1.378 . S
C140 C135 1.350 . S
C141 H128 0.929 . S
C141 C133 1.433 . S
C141 N143 1.384 . S
N142 C138 1.427 . S
N142 C139 1.384 . S
N143 C135 1.427 . S
N143 C141 1.384 . S
H144 C150 0.930 . S
H145 C154 0.930 . S
H146 C159 0.929 . S
H147 C157 0.929 . S
H148 C152 0.929 . S
H149 C158 0.929 . S
C150 H144 0.930 . S
C150 C151 1.367 . S
C150 C158 1.378 . S
C151 C150 1.367 . S
C151 C159 1.433 1_554 S
C152 H148 0.929 . S
C152 C154 1.378 . S
C152 C156 1.350 1_556 S
C153 C156 1.463 1_565 S
C153 C158 1.350 . S
C153 N161 1.427 1_554 S
C154 H145 0.930 . S
C154 C152 1.378 . S
C154 C155 1.367 1_556 S
C155 C154 1.367 1_554 S
C155 C157 1.433 . S
C156 C152 1.350 1_554 S
C156 C153 1.463 1_545 S
C156 N160 1.427 . S
C157 H147 0.929 . S
C157 C155 1.433 . S
C157 N160 1.384 . S
C158 H149 0.929 . S
C158 C150 1.378 . S
C158 C153 1.350 . S
C159 H146 0.929 . S
C159 C151 1.433 1_556 S
C159 N161 1.384 . S
N160 C156 1.427 . S
N160 C157 1.384 . S
N161 C153 1.427 1_556 S
N161 C159 1.384 . S
H162 C168 0.930 . S
H163 C172 0.930 . S
H164 C177 0.929 . S
H165 C175 0.929 . S
H166 C170 0.929 . S
H167 C176 0.929 . S
C168 H162 0.930 . S
C168 C169 1.367 . S
C168 C176 1.378 . S
C169 C168 1.367 . S
C169 C177 1.433 1_554 S
C170 H166 0.929 . S
C170 C172 1.378 . S
C170 C174 1.350 1_556 S
C171 C174 1.463 1_655 S
C171 C176 1.350 . S
C171 N179 1.427 1_554 S
C172 H163 0.930 . S
C172 C170 1.378 . S
C172 C173 1.367 1_556 S
C173 C172 1.367 1_554 S
C173 C175 1.433 . S
C174 C170 1.350 1_554 S
C174 C171 1.463 1_455 S
C174 N178 1.427 . S
C175 H165 0.929 . S
C175 C173 1.433 . S
C175 N178 1.384 . S
C176 H167 0.929 . S
C176 C168 1.378 . S
C176 C171 1.350 . S
C177 H164 0.929 . S
C177 C169 1.433 1_556 S
C177 N179 1.384 . S
N178 C174 1.427 . S
N178 C175 1.384 . S
N179 C171 1.427 1_556 S
N179 C177 1.384 . S
H180 C186 0.930 . S
H181 C190 0.930 . S
H182 C195 0.929 . S
H183 C193 0.929 . S
H184 C188 0.929 . S
H185 C194 0.929 . S
C186 H180 0.930 . S
C186 C187 1.367 . S
C186 C194 1.378 . S
C187 C186 1.367 . S
C187 C195 1.433 . S
C188 H184 0.929 . S
C188 C190 1.378 . S
C188 C192 1.350 . S
C189 C192 1.463 . S
C189 C194 1.350 . S
C189 N197 1.427 . S
C190 H181 0.930 . S
C190 C188 1.378 . S
C190 C191 1.367 . S
C191 C190 1.367 . S
C191 C193 1.433 . S
C192 C188 1.350 . S
C192 C189 1.463 . S
C192 N196 1.427 . S
C193 H183 0.929 . S
C193 C191 1.433 . S
C193 N196 1.384 . S
C194 H185 0.929 . S
C194 C186 1.378 . S
C194 C189 1.350 . S
C195 H182 0.929 . S
C195 C187 1.433 . S
C195 N197 1.384 . S
N196 C192 1.427 . S
N196 C193 1.384 . S
N197 C189 1.427 . S
N197 C195 1.384 . S
H198 C204 0.930 . S
H199 C208 0.930 . S
H200 C213 0.929 . S
H201 C211 0.929 . S
H202 C206 0.929 . S
H203 C212 0.929 . S
C204 H198 0.930 . S
C204 C205 1.367 . S
C204 C212 1.378 . S
C205 C204 1.367 . S
C205 C213 1.433 . S
C206 H202 0.929 . S
C206 C208 1.378 . S
C206 C210 1.350 . S
C207 C210 1.463 . S
C207 C212 1.350 . S
C207 N215 1.427 . S
C208 H199 0.930 . S
C208 C206 1.378 . S
C208 C209 1.367 . S
C209 C208 1.367 . S
C209 C211 1.433 . S
C210 C206 1.350 . S
C210 C207 1.463 . S
C210 N214 1.427 . S
C211 H201 0.929 . S
C211 C209 1.433 . S
C211 N214 1.384 . S
C212 H203 0.929 . S
C212 C204 1.378 . S
C212 C207 1.350 . S
C213 H200 0.929 . S
C213 C205 1.433 . S
C213 N215 1.384 . S
N214 C210 1.427 . S
N214 C211 1.384 . S
N215 C207 1.427 . S
N215 C213 1.384 . S
H216 C222 0.930 . S
H217 C226 0.930 . S
H218 C231 0.929 . S
H219 C229 0.929 . S
H220 C224 0.929 . S
H221 C230 0.929 . S
C222 H216 0.930 . S
C222 C223 1.367 . S
C222 C230 1.378 . S
C223 C222 1.367 . S
C223 C231 1.433 . S
C224 H220 0.929 . S
C224 C226 1.378 . S
C224 C228 1.350 . S
C225 C228 1.463 . S
C225 C230 1.350 . S
C225 N233 1.427 . S
C226 H217 0.930 . S
C226 C224 1.378 . S
C226 C227 1.367 . S
C227 C226 1.367 . S
C227 C229 1.433 . S
C228 C224 1.350 . S
C228 C225 1.463 . S
C228 N232 1.427 . S
C229 H219 0.929 . S
C229 C227 1.433 . S
C229 N232 1.384 . S
C230 H221 0.929 . S
C230 C222 1.378 . S
C230 C225 1.350 . S
C231 H218 0.929 . S
C231 C223 1.433 . S
C231 N233 1.384 . S
N232 C228 1.427 . S
N232 C229 1.384 . S
N233 C225 1.427 . S
N233 C231 1.384 . S
H234 C240 0.930 . S
H235 C244 0.930 . S
H236 C249 0.929 . S
H237 C247 0.929 . S
H238 C242 0.929 . S
H239 C248 0.929 . S
C240 H234 0.930 . S
C240 C241 1.367 . S
C240 C248 1.378 . S
C241 C240 1.367 . S
C241 C249 1.433 . S
C242 H238 0.929 . S
C242 C244 1.378 . S
C242 C246 1.350 . S
C243 C246 1.463 . S
C243 C248 1.350 . S
C243 N251 1.427 . S
C244 H235 0.930 . S
C244 C242 1.378 . S
C244 C245 1.367 . S
C245 C244 1.367 . S
C245 C247 1.433 . S
C246 C242 1.350 . S
C246 C243 1.463 . S
C246 N250 1.427 . S
C247 H237 0.929 . S
C247 C245 1.433 . S
C247 N250 1.384 . S
C248 H239 0.929 . S
C248 C240 1.378 . S
C248 C243 1.350 . S
C249 H236 0.929 . S
C249 C241 1.433 . S
C249 N251 1.384 . S
N250 C246 1.427 . S
N250 C247 1.384 . S
N251 C243 1.427 . S
N251 C249 1.384 . S
H252 C258 0.930 . S
H253 C262 0.930 . S
H254 C267 0.929 . S
H255 C265 0.929 . S
H256 C260 0.929 . S
H257 C266 0.929 . S
C258 H252 0.930 . S
C258 C259 1.367 . S
C258 C266 1.378 . S
C259 C258 1.367 . S
C259 C267 1.433 . S
C260 H256 0.929 . S
C260 C262 1.378 . S
C260 C264 1.350 . S
C261 C264 1.463 . S
C261 C266 1.350 . S
C261 N269 1.427 . S
C262 H253 0.930 . S
C262 C260 1.378 . S
C262 C263 1.367 . S
C263 C262 1.367 . S
C263 C265 1.433 . S
C264 C260 1.350 . S
C264 C261 1.463 . S
C264 N268 1.427 . S
C265 H255 0.929 . S
C265 C263 1.433 . S
C265 N268 1.384 . S
C266 H257 0.929 . S
C266 C258 1.378 . S
C266 C261 1.350 . S
C267 H254 0.929 . S
C267 C259 1.433 . S
C267 N269 1.384 . S
N268 C264 1.427 . S
N268 C265 1.384 . S
N269 C261 1.427 . S
N269 C267 1.384 . S
H270 C276 0.930 . S
H271 C280 0.930 . S
H272 C285 0.929 . S
H273 C283 0.929 . S
H274 C278 0.929 . S
H275 C284 0.929 . S
C276 H270 0.930 . S
C276 C277 1.367 . S
C276 C284 1.378 . S
C277 C276 1.367 . S
C277 C285 1.433 . S
C278 H274 0.929 . S
C278 C280 1.378 . S
C278 C282 1.350 . S
C279 C282 1.463 . S
C279 C284 1.350 . S
C279 N287 1.427 . S
C280 H271 0.930 . S
C280 C278 1.378 . S
C280 C281 1.367 . S
C281 C280 1.367 . S
C281 C283 1.433 . S
C282 C278 1.350 . S
C282 C279 1.463 . S
C282 N286 1.427 . S
C283 H273 0.929 . S
C283 C281 1.433 . S
C283 N286 1.384 . S
C284 H275 0.929 . S
C284 C276 1.378 . S
C284 C279 1.350 . S
C285 H272 0.929 . S
C285 C277 1.433 . S
C285 N287 1.384 . S
N286 C282 1.427 . S
N286 C283 1.384 . S
N287 C279 1.427 . S
N287 C285 1.384 . S
H288 C294 0.930 . S
H289 C298 0.930 . S
H290 C303 0.929 . S
H291 C301 0.929 . S
H292 C296 0.929 . S
H293 C302 0.929 . S
C294 H288 0.930 . S
C294 C295 1.367 . S
C294 C302 1.378 . S
C295 C294 1.367 . S
C295 C303 1.433 . S
C296 H292 0.929 . S
C296 C298 1.378 . S
C296 C300 1.350 . S
C297 C300 1.463 . S
C297 C302 1.350 . S
C297 N305 1.427 . S
C298 H289 0.930 . S
C298 C296 1.378 . S
C298 C299 1.367 . S
C299 C298 1.367 . S
C299 C301 1.433 . S
C300 C296 1.350 . S
C300 C297 1.463 . S
C300 N304 1.427 . S
C301 H291 0.929 . S
C301 C299 1.433 . S
C301 N304 1.384 . S
C302 H293 0.929 . S
C302 C294 1.378 . S
C302 C297 1.350 . S
C303 H290 0.929 . S
C303 C295 1.433 . S
C303 N305 1.384 . S
N304 C300 1.427 . S
N304 C301 1.384 . S
N305 C297 1.427 . S
N305 C303 1.384 . S
H306 C312 0.930 . S
H307 C316 0.930 . S
H308 C321 0.929 . S
H309 C319 0.929 . S
H310 C314 0.929 . S
H311 C320 0.929 . S
C312 H306 0.930 . S
C312 C313 1.367 . S
C312 C320 1.378 . S
C313 C312 1.367 . S
C313 C321 1.433 . S
C314 H310 0.929 . S
C314 C316 1.378 . S
C314 C318 1.350 . S
C315 C318 1.463 . S
C315 C320 1.350 . S
C315 N323 1.427 . S
C316 H307 0.930 . S
C316 C314 1.378 . S
C316 C317 1.367 . S
C317 C316 1.367 . S
C317 C319 1.433 . S
C318 C314 1.350 . S
C318 C315 1.463 . S
C318 N322 1.427 . S
C319 H309 0.929 . S
C319 C317 1.433 . S
C319 N322 1.384 . S
C320 H311 0.929 . S
C320 C312 1.378 . S
C320 C315 1.350 . S
C321 H308 0.929 . S
C321 C313 1.433 . S
C321 N323 1.384 . S
N322 C318 1.427 . S
N322 C319 1.384 . S
N323 C315 1.427 . S
N323 C321 1.384 . S
H324 C330 0.930 . S
H325 C334 0.930 . S
H326 C339 0.929 . S
H327 C337 0.929 . S
H328 C332 0.929 . S
H329 C338 0.929 . S
C330 H324 0.930 . S
C330 C331 1.367 . S
C330 C338 1.378 . S
C331 C330 1.367 . S
C331 C339 1.433 . S
C332 H328 0.929 . S
C332 C334 1.378 . S
C332 C336 1.350 . S
C333 C336 1.463 . S
C333 C338 1.350 . S
C333 N341 1.427 . S
C334 H325 0.930 . S
C334 C332 1.378 . S
C334 C335 1.367 . S
C335 C334 1.367 . S
C335 C337 1.433 . S
C336 C332 1.350 . S
C336 C333 1.463 . S
C336 N340 1.427 . S
C337 H327 0.929 . S
C337 C335 1.433 . S
C337 N340 1.384 . S
C338 H329 0.929 . S
C338 C330 1.378 . S
C338 C333 1.350 . S
C339 H326 0.929 . S
C339 C331 1.433 . S
C339 N341 1.384 . S
N340 C336 1.427 . S
N340 C337 1.384 . S
N341 C333 1.427 . S
N341 C339 1.384 . S
H342 C348 0.930 . S
H343 C352 0.930 . S
H344 C357 0.929 . S
H345 C355 0.929 . S
H346 C350 0.929 . S
H347 C356 0.929 . S
C348 H342 0.930 . S
C348 C349 1.367 . S
C348 C356 1.378 . S
C349 C348 1.367 . S
C349 C357 1.433 . S
C350 H346 0.929 . S
C350 C352 1.378 . S
C350 C354 1.350 . S
C351 C354 1.463 . S
C351 C356 1.350 . S
C351 N359 1.427 . S
C352 H343 0.930 . S
C352 C350 1.378 . S
C352 C353 1.367 . S
C353 C352 1.367 . S
C353 C355 1.433 . S
C354 C350 1.350 . S
C354 C351 1.463 . S
C354 N358 1.427 . S
C355 H345 0.929 . S
C355 C353 1.433 . S
C355 N358 1.384 . S
C356 H347 0.929 . S
C356 C348 1.378 . S
C356 C351 1.350 . S
C357 H344 0.929 . S
C357 C349 1.433 . S
C357 N359 1.384 . S
N358 C354 1.427 . S
N358 C355 1.384 . S
N359 C351 1.427 . S
N359 C357 1.384 . S
H360 C366 0.930 . S
H361 C370 0.930 . S
H362 C375 0.929 . S
H363 C373 0.929 . S
H364 C368 0.929 . S
H365 C374 0.929 1_455 S
C366 H360 0.930 . S
C366 C367 1.367 1_455 S
C366 C374 1.378 1_455 S
C367 C366 1.367 1_655 S
C367 C375 1.433 . S
C368 H364 0.929 . S
C368 C370 1.378 . S
C368 C372 1.350 . S
C369 C372 1.463 . S
C369 C374 1.350 . S
C369 N377 1.427 . S
C370 H361 0.930 . S
C370 C368 1.378 . S
C370 C371 1.367 . S
C371 C370 1.367 . S
C371 C373 1.433 . S
C372 C368 1.350 . S
C372 C369 1.463 . S
C372 N376 1.427 . S
C373 H363 0.929 . S
C373 C371 1.433 . S
C373 N376 1.384 . S
C374 H365 0.929 1_655 S
C374 C366 1.378 1_655 S
C374 C369 1.350 . S
C375 H362 0.929 . S
C375 C367 1.433 . S
C375 N377 1.384 . S
N376 C372 1.427 . S
N376 C373 1.384 . S
N377 C369 1.427 . S
N377 C375 1.384 . S
H378 C384 0.930 . S
H379 C388 0.930 . S
H380 C393 0.929 . S
H381 C391 0.929 . S
H382 C386 0.929 . S
H383 C392 0.929 . S
C384 H378 0.930 . S
C384 C385 1.367 . S
C384 C392 1.378 . S
C385 C384 1.367 . S
C385 C393 1.433 . S
C386 H382 0.929 . S
C386 C388 1.378 . S
C386 C390 1.350 . S
C387 C390 1.463 . S
C387 C392 1.350 . S
C387 N395 1.427 . S
C388 H379 0.930 . S
C388 C386 1.378 . S
C388 C389 1.367 . S
C389 C388 1.367 . S
C389 C391 1.433 . S
C390 C386 1.350 . S
C390 C387 1.463 . S
C390 N394 1.427 . S
C391 H381 0.929 . S
C391 C389 1.433 . S
C391 N394 1.384 . S
C392 H383 0.929 . S
C392 C384 1.378 . S
C392 C387 1.350 . S
C393 H380 0.929 . S
C393 C385 1.433 . S
C393 N395 1.384 . S
N394 C390 1.427 . S
N394 C391 1.384 . S
N395 C387 1.427 . S
N395 C393 1.384 . S
H396 C402 0.930 . S
H397 C406 0.930 . S
H398 C411 0.929 . S
H399 C409 0.929 . S
H400 C404 0.929 . S
H401 C410 0.929 . S
C402 H396 0.930 . S
C402 C403 1.367 . S
C402 C410 1.378 . S
C403 C402 1.367 . S
C403 C411 1.433 . S
C404 H400 0.929 . S
C404 C406 1.378 . S
C404 C408 1.350 1_655 S
C405 C408 1.463 . S
C405 C410 1.350 . S
C405 N413 1.427 . S
C406 H397 0.930 . S
C406 C404 1.378 . S
C406 C407 1.367 . S
C407 C406 1.367 . S
C407 C409 1.433 . S
C408 C404 1.350 1_455 S
C408 C405 1.463 . S
C408 N412 1.427 . S
C409 H399 0.929 . S
C409 C407 1.433 . S
C409 N412 1.384 1_655 S
C410 H401 0.929 . S
C410 C402 1.378 . S
C410 C405 1.350 . S
C411 H398 0.929 . S
C411 C403 1.433 . S
C411 N413 1.384 . S
N412 C408 1.427 . S
N412 C409 1.384 1_455 S
N413 C405 1.427 . S
N413 C411 1.384 . S
H414 C420 0.930 . S
H415 C424 0.930 . S
H416 C429 0.929 . S
H417 C427 0.929 . S
H418 C422 0.929 . S
H419 C428 0.929 . S
C420 H414 0.930 . S
C420 C421 1.367 . S
C420 C428 1.378 . S
C421 C420 1.367 . S
C421 C429 1.433 . S
C422 H418 0.929 . S
C422 C424 1.378 . S
C422 C426 1.350 . S
C423 C426 1.463 . S
C423 C428 1.350 . S
C423 N431 1.427 . S
C424 H415 0.930 . S
C424 C422 1.378 . S
C424 C425 1.367 . S
C425 C424 1.367 . S
C425 C427 1.433 . S
C426 C422 1.350 . S
C426 C423 1.463 . S
C426 N430 1.427 . S
C427 H417 0.929 . S
C427 C425 1.433 . S
C427 N430 1.384 . S
C428 H419 0.929 . S
C428 C420 1.378 . S
C428 C423 1.350 . S
C429 H416 0.929 . S
C429 C421 1.433 . S
C429 N431 1.384 . S
N430 C426 1.427 . S
N430 C427 1.384 . S
N431 C423 1.427 . S
N431 C429 1.384 . S
H432 C438 0.930 . S
H433 C442 0.930 . S
H434 C447 0.929 . S
H435 C445 0.929 . S
H436 C440 0.929 . S
H437 C446 0.929 . S
C438 H432 0.930 . S
C438 C439 1.367 . S
C438 C446 1.378 . S
C439 C438 1.367 . S
C439 C447 1.433 . S
C440 H436 0.929 . S
C440 C442 1.378 . S
C440 C444 1.350 . S
C441 C444 1.463 . S
C441 C446 1.350 1_545 S
C441 N449 1.427 . S
C442 H433 0.930 . S
C442 C440 1.378 . S
C442 C443 1.367 . S
C443 C442 1.367 . S
C443 C445 1.433 . S
C444 C440 1.350 . S
C444 C441 1.463 . S
C444 N448 1.427 . S
C445 H435 0.929 . S
C445 C443 1.433 . S
C445 N448 1.384 . S
C446 H437 0.929 . S
C446 C438 1.378 . S
C446 C441 1.350 1_565 S
C447 H434 0.929 . S
C447 C439 1.433 . S
C447 N449 1.384 1_565 S
N448 C444 1.427 . S
N448 C445 1.384 . S
N449 C441 1.427 . S
N449 C447 1.384 1_545 S
C133 C37 1.008 . S
C137 C3 1.036 . S
C151 C23 1.025 . S
C155 C9 1.032 . S
C169 C17 1.067 . S
C173 C31 1.068 . S
C187 C73 1.034 . S
C191 C51 1.001 . S
C205 C65 1.002 . S
C209 C45 1.026 . S
C223 C59 1.046 . S
C227 C79 1.012 . S
C241 C87 1.030 . S
C245 C121 1.012 . S
C259 C93 0.961 . S
C263 C107 0.981 . S
C277 C101 1.014 . S
C281 C115 1.018 . S
C295 C8 1.385 . S
C299 C106 1.385 . S
C313 C21 1.395 . S
C317 C119 1.395 . S
C331 C91 1.379 . S
C335 C36 1.403 . S
C349 C63 1.352 . S
C353 C35 1.356 . S
C367 C7 1.376 . S
C371 C77 1.370 . S
C385 C49 1.389 . S
C389 C22 1.409 . S
C403 C105 1.364 . S
C407 C78 1.395 . S
C421 C50 1.402 . S
C425 C120 1.402 . S
C439 C92 1.417 . S
C443 C64 1.417 . S
