# Generated by pormake.
# Topology uky, (4)-cn, num edge types: 1
# Building blocks:
#     Node 0, Type 0, BuildingBlock: GALJAG_clean_sbu_0, # of connection points: 4
#     Node 1, Type 0, BuildingBlock: GALJAG_clean_sbu_0, # of connection points: 4
#     Node 2, Type 0, BuildingBlock: GALJAG_clean_sbu_0, # of connection points: 4
#     Node 3, Type 0, BuildingBlock: GALJAG_clean_sbu_0, # of connection points: 4
#     Node 4, Type 0, BuildingBlock: GALJAG_clean_sbu_0, # of connection points: 4
#     Node 5, Type 0, BuildingBlock: GALJAG_clean_sbu_0, # of connection points: 4
#     Node 6, Type 0, BuildingBlock: GALJAG_clean_sbu_0, # of connection points: 4
#     Node 7, Type 0, BuildingBlock: GALJAG_clean_sbu_0, # of connection points: 4
#     Node 8, Type 0, BuildingBlock: GALJAG_clean_sbu_0, # of connection points: 4
#     Node 9, Type 0, BuildingBlock: GALJAG_clean_sbu_0, # of connection points: 4
#     Node 10, Type 0, BuildingBlock: GALJAG_clean_sbu_0, # of connection points: 4
#     Node 11, Type 0, BuildingBlock: GALJAG_clean_sbu_0, # of connection points: 4
#     Node 12, Type 0, BuildingBlock: GALJAG_clean_sbu_0, # of connection points: 4
#     Node 13, Type 0, BuildingBlock: GALJAG_clean_sbu_0, # of connection points: 4
#     Node 14, Type 0, BuildingBlock: GALJAG_clean_sbu_0, # of connection points: 4
#     Node 15, Type 0, BuildingBlock: GALJAG_clean_sbu_0, # of connection points: 4
#     Node 16, Type 0, BuildingBlock: GALJAG_clean_sbu_0, # of connection points: 4
#     Node 17, Type 0, BuildingBlock: GALJAG_clean_sbu_0, # of connection points: 4
#     Node 18, Type 0, BuildingBlock: GALJAG_clean_sbu_0, # of connection points: 4
#     Node 19, Type 0, BuildingBlock: GALJAG_clean_sbu_0, # of connection points: 4
#     Node 20, Type 0, BuildingBlock: GALJAG_clean_sbu_0, # of connection points: 4
#     Node 21, Type 0, BuildingBlock: GALJAG_clean_sbu_0, # of connection points: 4
#     Node 22, Type 0, BuildingBlock: GALJAG_clean_sbu_0, # of connection points: 4
#     Node 23, Type 0, BuildingBlock: GALJAG_clean_sbu_0, # of connection points: 4
#     Node 24, Type 0, BuildingBlock: GALJAG_clean_sbu_0, # of connection points: 4
#     Node 25, Type 0, BuildingBlock: GALJAG_clean_sbu_0, # of connection points: 4
#     Node 26, Type 0, BuildingBlock: GALJAG_clean_sbu_0, # of connection points: 4
#     Node 27, Type 0, BuildingBlock: GALJAG_clean_sbu_0, # of connection points: 4
#     Node 28, Type 0, BuildingBlock: GALJAG_clean_sbu_0, # of connection points: 4
#     Node 29, Type 0, BuildingBlock: GALJAG_clean_sbu_0, # of connection points: 4
#     Node 30, Type 0, BuildingBlock: GALJAG_clean_sbu_0, # of connection points: 4
#     Node 31, Type 0, BuildingBlock: GALJAG_clean_sbu_0, # of connection points: 4
#     Node 32, Type 0, BuildingBlock: GALJAG_clean_sbu_0, # of connection points: 4
#     Node 33, Type 0, BuildingBlock: GALJAG_clean_sbu_0, # of connection points: 4
#     Node 34, Type 0, BuildingBlock: GALJAG_clean_sbu_0, # of connection points: 4
#     Node 35, Type 0, BuildingBlock: GALJAG_clean_sbu_0, # of connection points: 4
#     Node 36, Type 0, BuildingBlock: GALJAG_clean_sbu_0, # of connection points: 4
#     Node 37, Type 0, BuildingBlock: GALJAG_clean_sbu_0, # of connection points: 4
#     Node 38, Type 0, BuildingBlock: GALJAG_clean_sbu_0, # of connection points: 4
#     Node 39, Type 0, BuildingBlock: GALJAG_clean_sbu_0, # of connection points: 4
#     Node 40, Type 0, BuildingBlock: GALJAG_clean_sbu_0, # of connection points: 4
#     Node 41, Type 0, BuildingBlock: GALJAG_clean_sbu_0, # of connection points: 4
#     Node 42, Type 0, BuildingBlock: GALJAG_clean_sbu_0, # of connection points: 4
#     Node 43, Type 0, BuildingBlock: GALJAG_clean_sbu_0, # of connection points: 4
#     Node 44, Type 0, BuildingBlock: GALJAG_clean_sbu_0, # of connection points: 4
#     Node 45, Type 0, BuildingBlock: GALJAG_clean_sbu_0, # of connection points: 4
#     Node 46, Type 0, BuildingBlock: GALJAG_clean_sbu_0, # of connection points: 4
#     Node 47, Type 0, BuildingBlock: GALJAG_clean_sbu_0, # of connection points: 4
#     Edge 48, Type (0, 0), BuildingBlock: XIVTED_clean_linker_0, # of connection points: 2
#     Edge 49, Type (0, 0), BuildingBlock: XIVTED_clean_linker_0, # of connection points: 2
#     Edge 50, Type (0, 0), BuildingBlock: XIVTED_clean_linker_0, # of connection points: 2
#     Edge 51, Type (0, 0), BuildingBlock: XIVTED_clean_linker_0, # of connection points: 2
#     Edge 52, Type (0, 0), BuildingBlock: XIVTED_clean_linker_0, # of connection points: 2
#     Edge 53, Type (0, 0), BuildingBlock: XIVTED_clean_linker_0, # of connection points: 2
#     Edge 54, Type (0, 0), BuildingBlock: XIVTED_clean_linker_0, # of connection points: 2
#     Edge 55, Type (0, 0), BuildingBlock: XIVTED_clean_linker_0, # of connection points: 2
#     Edge 56, Type (0, 0), BuildingBlock: XIVTED_clean_linker_0, # of connection points: 2
#     Edge 57, Type (0, 0), BuildingBlock: XIVTED_clean_linker_0, # of connection points: 2
#     Edge 58, Type (0, 0), BuildingBlock: XIVTED_clean_linker_0, # of connection points: 2
#     Edge 59, Type (0, 0), BuildingBlock: XIVTED_clean_linker_0, # of connection points: 2
#     Edge 60, Type (0, 0), BuildingBlock: XIVTED_clean_linker_0, # of connection points: 2
#     Edge 61, Type (0, 0), BuildingBlock: XIVTED_clean_linker_0, # of connection points: 2
#     Edge 62, Type (0, 0), BuildingBlock: XIVTED_clean_linker_0, # of connection points: 2
#     Edge 63, Type (0, 0), BuildingBlock: XIVTED_clean_linker_0, # of connection points: 2
#     Edge 64, Type (0, 0), BuildingBlock: XIVTED_clean_linker_0, # of connection points: 2
#     Edge 65, Type (0, 0), BuildingBlock: XIVTED_clean_linker_0, # of connection points: 2
#     Edge 66, Type (0, 0), BuildingBlock: XIVTED_clean_linker_0, # of connection points: 2
#     Edge 67, Type (0, 0), BuildingBlock: XIVTED_clean_linker_0, # of connection points: 2
#     Edge 68, Type (0, 0), BuildingBlock: XIVTED_clean_linker_0, # of connection points: 2
#     Edge 69, Type (0, 0), BuildingBlock: XIVTED_clean_linker_0, # of connection points: 2
#     Edge 70, Type (0, 0), BuildingBlock: XIVTED_clean_linker_0, # of connection points: 2
#     Edge 71, Type (0, 0), BuildingBlock: XIVTED_clean_linker_0, # of connection points: 2
#     Edge 72, Type (0, 0), BuildingBlock: XIVTED_clean_linker_0, # of connection points: 2
#     Edge 73, Type (0, 0), BuildingBlock: XIVTED_clean_linker_0, # of connection points: 2
#     Edge 74, Type (0, 0), BuildingBlock: XIVTED_clean_linker_0, # of connection points: 2
#     Edge 75, Type (0, 0), BuildingBlock: XIVTED_clean_linker_0, # of connection points: 2
#     Edge 76, Type (0, 0), BuildingBlock: XIVTED_clean_linker_0, # of connection points: 2
#     Edge 77, Type (0, 0), BuildingBlock: XIVTED_clean_linker_0, # of connection points: 2
#     Edge 78, Type (0, 0), BuildingBlock: XIVTED_clean_linker_0, # of connection points: 2
#     Edge 79, Type (0, 0), BuildingBlock: XIVTED_clean_linker_0, # of connection points: 2
#     Edge 80, Type (0, 0), BuildingBlock: XIVTED_clean_linker_0, # of connection points: 2
#     Edge 81, Type (0, 0), BuildingBlock: XIVTED_clean_linker_0, # of connection points: 2
#     Edge 82, Type (0, 0), BuildingBlock: XIVTED_clean_linker_0, # of connection points: 2
#     Edge 83, Type (0, 0), BuildingBlock: XIVTED_clean_linker_0, # of connection points: 2
#     Edge 84, Type (0, 0), BuildingBlock: XIVTED_clean_linker_0, # of connection points: 2
#     Edge 85, Type (0, 0), BuildingBlock: XIVTED_clean_linker_0, # of connection points: 2
#     Edge 86, Type (0, 0), BuildingBlock: XIVTED_clean_linker_0, # of connection points: 2
#     Edge 87, Type (0, 0), BuildingBlock: XIVTED_clean_linker_0, # of connection points: 2
#     Edge 88, Type (0, 0), BuildingBlock: XIVTED_clean_linker_0, # of connection points: 2
#     Edge 89, Type (0, 0), BuildingBlock: XIVTED_clean_linker_0, # of connection points: 2
#     Edge 90, Type (0, 0), BuildingBlock: XIVTED_clean_linker_0, # of connection points: 2
#     Edge 91, Type (0, 0), BuildingBlock: XIVTED_clean_linker_0, # of connection points: 2
#     Edge 92, Type (0, 0), BuildingBlock: XIVTED_clean_linker_0, # of connection points: 2
#     Edge 93, Type (0, 0), BuildingBlock: XIVTED_clean_linker_0, # of connection points: 2
#     Edge 94, Type (0, 0), BuildingBlock: XIVTED_clean_linker_0, # of connection points: 2
#     Edge 95, Type (0, 0), BuildingBlock: XIVTED_clean_linker_0, # of connection points: 2
#     Edge 96, Type (0, 0), BuildingBlock: XIVTED_clean_linker_0, # of connection points: 2
#     Edge 97, Type (0, 0), BuildingBlock: XIVTED_clean_linker_0, # of connection points: 2
#     Edge 98, Type (0, 0), BuildingBlock: XIVTED_clean_linker_0, # of connection points: 2
#     Edge 99, Type (0, 0), BuildingBlock: XIVTED_clean_linker_0, # of connection points: 2
#     Edge 100, Type (0, 0), BuildingBlock: XIVTED_clean_linker_0, # of connection points: 2
#     Edge 101, Type (0, 0), BuildingBlock: XIVTED_clean_linker_0, # of connection points: 2
#     Edge 102, Type (0, 0), BuildingBlock: XIVTED_clean_linker_0, # of connection points: 2
#     Edge 103, Type (0, 0), BuildingBlock: XIVTED_clean_linker_0, # of connection points: 2
#     Edge 104, Type (0, 0), BuildingBlock: XIVTED_clean_linker_0, # of connection points: 2
#     Edge 105, Type (0, 0), BuildingBlock: XIVTED_clean_linker_0, # of connection points: 2
#     Edge 106, Type (0, 0), BuildingBlock: XIVTED_clean_linker_0, # of connection points: 2
#     Edge 107, Type (0, 0), BuildingBlock: XIVTED_clean_linker_0, # of connection points: 2
#     Edge 108, Type (0, 0), BuildingBlock: XIVTED_clean_linker_0, # of connection points: 2
#     Edge 109, Type (0, 0), BuildingBlock: XIVTED_clean_linker_0, # of connection points: 2
#     Edge 110, Type (0, 0), BuildingBlock: XIVTED_clean_linker_0, # of connection points: 2
#     Edge 111, Type (0, 0), BuildingBlock: XIVTED_clean_linker_0, # of connection points: 2
#     Edge 112, Type (0, 0), BuildingBlock: XIVTED_clean_linker_0, # of connection points: 2
#     Edge 113, Type (0, 0), BuildingBlock: XIVTED_clean_linker_0, # of connection points: 2
#     Edge 114, Type (0, 0), BuildingBlock: XIVTED_clean_linker_0, # of connection points: 2
#     Edge 115, Type (0, 0), BuildingBlock: XIVTED_clean_linker_0, # of connection points: 2
#     Edge 116, Type (0, 0), BuildingBlock: XIVTED_clean_linker_0, # of connection points: 2
#     Edge 117, Type (0, 0), BuildingBlock: XIVTED_clean_linker_0, # of connection points: 2
#     Edge 118, Type (0, 0), BuildingBlock: XIVTED_clean_linker_0, # of connection points: 2
#     Edge 119, Type (0, 0), BuildingBlock: XIVTED_clean_linker_0, # of connection points: 2
#     Edge 120, Type (0, 0), BuildingBlock: XIVTED_clean_linker_0, # of connection points: 2
#     Edge 121, Type (0, 0), BuildingBlock: XIVTED_clean_linker_0, # of connection points: 2
#     Edge 122, Type (0, 0), BuildingBlock: XIVTED_clean_linker_0, # of connection points: 2
#     Edge 123, Type (0, 0), BuildingBlock: XIVTED_clean_linker_0, # of connection points: 2
#     Edge 124, Type (0, 0), BuildingBlock: XIVTED_clean_linker_0, # of connection points: 2
#     Edge 125, Type (0, 0), BuildingBlock: XIVTED_clean_linker_0, # of connection points: 2
#     Edge 126, Type (0, 0), BuildingBlock: XIVTED_clean_linker_0, # of connection points: 2
#     Edge 127, Type (0, 0), BuildingBlock: XIVTED_clean_linker_0, # of connection points: 2
#     Edge 128, Type (0, 0), BuildingBlock: XIVTED_clean_linker_0, # of connection points: 2
#     Edge 129, Type (0, 0), BuildingBlock: XIVTED_clean_linker_0, # of connection points: 2
#     Edge 130, Type (0, 0), BuildingBlock: XIVTED_clean_linker_0, # of connection points: 2
#     Edge 131, Type (0, 0), BuildingBlock: XIVTED_clean_linker_0, # of connection points: 2
#     Edge 132, Type (0, 0), BuildingBlock: XIVTED_clean_linker_0, # of connection points: 2
#     Edge 133, Type (0, 0), BuildingBlock: XIVTED_clean_linker_0, # of connection points: 2
#     Edge 134, Type (0, 0), BuildingBlock: XIVTED_clean_linker_0, # of connection points: 2
#     Edge 135, Type (0, 0), BuildingBlock: XIVTED_clean_linker_0, # of connection points: 2
#     Edge 136, Type (0, 0), BuildingBlock: XIVTED_clean_linker_0, # of connection points: 2
#     Edge 137, Type (0, 0), BuildingBlock: XIVTED_clean_linker_0, # of connection points: 2
#     Edge 138, Type (0, 0), BuildingBlock: XIVTED_clean_linker_0, # of connection points: 2
#     Edge 139, Type (0, 0), BuildingBlock: XIVTED_clean_linker_0, # of connection points: 2
#     Edge 140, Type (0, 0), BuildingBlock: XIVTED_clean_linker_0, # of connection points: 2
#     Edge 141, Type (0, 0), BuildingBlock: XIVTED_clean_linker_0, # of connection points: 2
#     Edge 142, Type (0, 0), BuildingBlock: XIVTED_clean_linker_0, # of connection points: 2
#     Edge 143, Type (0, 0), BuildingBlock: XIVTED_clean_linker_0, # of connection points: 2
# Relax obj value: 0.129
# Max RMSD: 0.165
# Mean RMSD: 0.165
data_MOF--net-uky--node1-GALJAG_clean_sbu_0--edge1-XIVTED_clean_linker_0
_symmetry_space_group_name_H-M    P1
_symmetry_Int_Tables_number       1
_symmetry_cell_setting            triclinic
loop_
_symmetry_equiv_pos_as_xyz
'x, y, z'
_cell_length_a     62.595235
_cell_length_b     62.580591
_cell_length_c     62.593907
_cell_angle_alpha  90.039377
_cell_angle_beta   89.969936
_cell_angle_gamma 90.061885
loop_
_atom_site_label
_atom_site_type_symbol
_atom_site_fract_x
_atom_site_fract_y
_atom_site_fract_z
_atom_type_partial_charge
In0 In 0.2162 0.19408 0.37258 0.0
O1 O 0.19932 0.16153 0.37321 0.0
O2 O 0.18041 0.18972 0.37182 0.0
C3 C 0.25179 0.18504 0.34993 0.0
C4 C 0.22288 0.19572 0.4151 0.0
C5 C 0.20453 0.22924 0.35092 0.0
O6 O 0.23426 0.1756 0.34688 0.0
O7 O 0.25163 0.19832 0.36505 0.0
O8 O 0.21384 0.23032 0.36881 0.0
O9 O 0.20126 0.21055 0.34412 0.0
C10 C 0.18086 0.16961 0.37237 0.0
O11 O 0.21629 0.21154 0.40453 0.0
O12 O 0.22645 0.17916 0.40417 0.0
In13 In 0.05984 0.96685 0.62351 0.0
O14 O 0.09314 0.95117 0.62299 0.0
O15 O 0.0663 0.93258 0.61395 0.0
C16 C 0.06413 0.00572 0.60517 0.0
C17 C 0.06084 0.97043 0.66647 0.0
C18 C 0.02324 0.95404 0.60507 0.0
O19 O 0.07582 0.9901 0.60015 0.0
O20 O 0.05079 0.00182 0.6197 0.0
O21 O 0.02443 0.95824 0.6248 0.0
O22 O 0.04039 0.95661 0.59473 0.0
C23 C 0.08617 0.93333 0.6167 0.0
O24 O 0.04496 0.96301 0.65653 0.0
O25 O 0.07629 0.97594 0.65476 0.0
In26 In 0.26649 0.80471 0.87315 0.0
O27 O 0.25828 0.78889 0.90477 0.0
O28 O 0.26134 0.8227 0.9046 0.0
C29 C 0.27775 0.76777 0.85432 0.0
C30 C 0.30402 0.82563 0.87107 0.0
C31 C 0.23068 0.81413 0.85091 0.0
O32 O 0.27252 0.76882 0.87378 0.0
O33 O 0.27708 0.78529 0.84437 0.0
O34 O 0.24824 0.82337 0.84745 0.0
O35 O 0.23107 0.80093 0.86606 0.0
C36 C 0.25764 0.80603 0.91532 0.0
O37 O 0.28642 0.83549 0.87062 0.0
O38 O 0.30252 0.80565 0.87292 0.0
In39 In 0.44527 0.0187 0.12107 0.0
O40 O 0.4143 0.0337 0.13286 0.0
O41 O 0.42997 0.04829 0.10651 0.0
C42 C 0.43692 0.98378 0.09678 0.0
C43 C 0.44912 0.01357 0.16365 0.0
C44 C 0.48237 0.03467 0.10593 0.0
O45 O 0.42861 0.00172 0.09318 0.0
O46 O 0.44894 0.98335 0.11284 0.0
O47 O 0.4809 0.01603 0.11347 0.0
O48 O 0.46527 0.04527 0.10634 0.0
C49 C 0.41465 0.04887 0.11959 0.0
O50 O 0.46286 0.02343 0.15269 0.0
O51 O 0.43356 0.00624 0.15315 0.0
In52 In 0.2282 0.80048 0.11618 0.0
O53 O 0.22203 0.78842 0.0824 0.0
O54 O 0.24311 0.81477 0.08606 0.0
C55 C 0.21881 0.75988 0.12699 0.0
C56 C 0.19627 0.82847 0.12272 0.0
C57 C 0.25993 0.80917 0.14411 0.0
O58 O 0.2048 0.77429 0.12579 0.0
O59 O 0.23745 0.76579 0.12206 0.0
O60 O 0.24084 0.81464 0.14721 0.0
O61 O 0.26327 0.8001 0.12645 0.0
C62 C 0.23395 0.80197 0.07347 0.0
O63 O 0.21222 0.83284 0.11114 0.0
O64 O 0.19669 0.8102 0.13117 0.0
In65 In 0.45654 0.98294 0.36371 0.0
O66 O 0.44407 0.95186 0.37792 0.0
O67 O 0.42495 0.96723 0.35451 0.0
C68 C 0.4481 0.01417 0.39231 0.0
C69 C 0.45646 0.99281 0.32178 0.0
C70 C 0.49566 0.96925 0.37529 0.0
O71 O 0.44198 0.99517 0.39479 0.0
O72 O 0.45776 0.01763 0.37501 0.0
O73 O 0.49105 0.9888 0.37365 0.0
O74 O 0.48081 0.9566 0.37015 0.0
C75 C 0.42727 0.95146 0.36683 0.0
O76 O 0.47139 0.98235 0.33034 0.0
O77 O 0.44179 -0.00155 0.33438 0.0
In78 In 0.26094 0.20064 0.61321 0.0
O79 O 0.28265 0.17241 0.62214 0.0
O80 O 0.28934 0.19015 0.59386 0.0
C81 C 0.2253 0.19406 0.63651 0.0
C82 C 0.24578 0.20124 0.57313 0.0
C83 C 0.28069 0.2329 0.634 0.0
O84 O 0.23986 0.18017 0.63515 0.0
O85 O 0.22865 0.21083 0.62591 0.0
O86 O 0.27027 0.23588 0.61702 0.0
O87 O 0.2811 0.21382 0.64033 0.0
C88 C 0.29451 0.17496 0.60599 0.0
O89 O 0.25345 0.21766 0.58209 0.0
O90 O 0.24524 0.18465 0.58465 0.0
In91 In 0.05347 0.01441 0.86419 0.0
O92 O 0.03835 0.00583 0.83234 0.0
O93 O 0.07213 0.00331 0.83479 0.0
C94 C 0.01576 0.02353 0.88267 0.0
C95 C 0.07174 0.05315 0.86103 0.0
C96 C 0.06562 0.98364 0.89186 0.0
O97 O 0.01709 0.01194 0.8662 0.0
O98 O 0.03335 0.03037 0.8897 0.0
O99 O 0.07217 0.00264 0.89321 0.0
O100 O 0.05394 0.97994 0.87591 0.0
C101 C 0.05574 0.00134 0.82321 0.0
O102 O 0.08267 0.03659 0.86475 0.0
O103 O 0.05204 0.04993 0.85836 0.0
In104 In 0.37455 0.22409 0.19662 0.0
O105 O 0.40638 0.22855 0.21362 0.0
O106 O 0.40601 0.23168 0.17983 0.0
C107 C 0.35229 0.21203 0.23131 0.0
C108 C 0.37291 0.18752 0.17408 0.0
C109 C 0.35422 0.26115 0.18812 0.0
O110 O 0.37158 0.21789 0.23244 0.0
O111 O 0.34429 0.21255 0.21281 0.0
O112 O 0.35119 0.24447 0.1772 0.0
O113 O 0.36788 0.25922 0.20274 0.0
C114 C 0.41686 0.23216 0.1968 0.0
O115 O 0.3719 0.20554 0.16504 0.0
O116 O 0.37515 0.18814 0.19407 0.0
In117 In 0.01673 0.12546 0.45849 0.0
O118 O 0.01996 0.15854 0.47365 0.0
O119 O 0.0033 0.15606 0.44421 0.0
C120 C 0.03208 0.11344 0.49681 0.0
C121 C 0.04609 0.12059 0.4274 0.0
C122 C 0.98336 0.09873 0.45237 0.0
O123 O 0.01244 0.1166 0.49352 0.0
O124 O 0.04402 0.11706 0.48098 0.0
O125 O 0.00191 0.0947 0.44573 0.0
O126 O 0.98145 0.11656 0.46149 0.0
C127 C 0.01 0.16802 0.45896 0.0
O128 O 0.04713 0.11086 0.445 0.0
O129 O 0.02987 0.13235 0.42524 0.0
In130 In 0.12092 0.76724 0.69431 0.0
O131 O 0.11382 0.7826 0.66211 0.0
O132 O 0.14051 0.79415 0.67961 0.0
C133 C 0.14416 0.73132 0.68842 0.0
C134 C 0.07804 0.76227 0.69483 0.0
C135 C 0.13364 0.78349 0.73216 0.0
O136 O 0.14888 0.74886 0.67974 0.0
O137 O 0.12745 0.73176 0.69961 0.0
O138 O 0.13192 0.76368 0.72882 0.0
O139 O 0.12841 0.79513 0.71659 0.0
C140 C 0.129 0.79585 0.66318 0.0
O141 O 0.08792 0.77273 0.70893 0.0
O142 O 0.08977 0.75423 0.68056 0.0
In143 In 0.47721 0.86927 0.94125 0.0
O144 O 0.44714 0.88379 0.92699 0.0
O145 O 0.46167 0.85828 0.91006 0.0
C146 C 0.5124 0.89402 0.93615 0.0
C147 C 0.48383 0.82677 0.94222 0.0
C148 C 0.46004 0.88378 0.97802 0.0
O149 O 0.49684 0.89473 0.92343 0.0
O150 O 0.51042 0.88053 0.95086 0.0
O151 O 0.47486 0.8701 0.9778 0.0
O152 O 0.45379 0.88968 0.95984 0.0
C153 C 0.44638 0.87135 0.91119 0.0
O154 O 0.4708 0.83595 0.95459 0.0
O155 O 0.49355 0.83904 0.92949 0.0
In156 In 0.37651 0.77386 0.30427 0.0
O157 O 0.37624 0.79352 0.33531 0.0
O158 O 0.37509 0.80988 0.3056 0.0
C159 C 0.35561 0.73758 0.31483 0.0
C160 C 0.4191 0.76762 0.30342 0.0
C161 C 0.35439 0.78344 0.26881 0.0
O162 O 0.35266 0.75499 0.32456 0.0
O163 O 0.36967 0.73833 0.30044 0.0
O164 O 0.37336 0.77658 0.26807 0.0
O165 O 0.34663 0.78515 0.28736 0.0
C166 C 0.37536 0.81121 0.32565 0.0
O167 O 0.40849 0.77239 0.28699 0.0
O168 O 0.40818 0.76558 0.32023 0.0
In169 In 0.48129 0.12712 0.55588 0.0
O170 O 0.49356 0.15764 0.54056 0.0
O171 O 0.48764 0.15804 0.57405 0.0
C172 C 0.47228 0.10512 0.5201 0.0
C173 C 0.44109 0.13014 0.57056 0.0
C174 C 0.51417 0.10316 0.5699 0.0
O175 O 0.47935 0.12404 0.51953 0.0
O176 O 0.4702 0.09737 0.53857 0.0
O177 O 0.49565 0.10166 0.57777 0.0
O178 O 0.51621 0.11747 0.55591 0.0
C179 C 0.49351 0.16828 0.55769 0.0
O180 O 0.45635 0.12521 0.58287 0.0
O181 O 0.44639 0.13389 0.55151 0.0
In182 In 0.11473 0.23118 0.79513 0.0
O183 O 0.08112 0.22717 0.78186 0.0
O184 O 0.08564 0.24906 0.80755 0.0
C185 C 0.12799 0.21481 0.75749 0.0
C186 C 0.11507 0.19887 0.82366 0.0
C187 C 0.14075 0.26512 0.80198 0.0
O188 O 0.11489 0.2301 0.75857 0.0
O189 O 0.134 0.20766 0.77529 0.0
O190 O 0.14017 0.24935 0.81445 0.0
O191 O 0.12793 0.26395 0.7866 0.0
C192 C 0.07278 0.2404 0.79463 0.0
O193 O 0.12908 0.2009 0.80934 0.0
O194 O 0.10139 0.21363 0.82415 0.0
In195 In 0.02426 0.8754 0.05537 0.0
O196 O 0.04065 0.87309 0.08813 0.0
O197 O 0.05869 0.8845 0.0618 0.0
C198 C 0.98561 0.89331 0.06289 0.0
C199 C 0.02195 0.83241 0.0529 0.0
C200 C 0.0367 0.8958 0.01968 0.0
O201 O 0.00212 0.89843 0.07318 0.0
O202 O 0.98847 0.87877 0.04929 0.0
O203 O 0.03236 0.87608 0.01989 0.0
O204 O 0.03442 0.90524 0.03738 0.0
C205 C 0.05837 0.87992 0.08135 0.0
O206 O 0.02581 0.84407 0.03694 0.0
O207 O 0.01901 0.84243 0.07014 0.0
In208 In 0.19797 0.37714 0.21883 0.0
O209 O 0.16662 0.38629 0.20276 0.0
O210 O 0.18549 0.36209 0.18823 0.0
C211 C 0.18779 0.35143 0.25205 0.0
C212 C 0.20065 0.41983 0.22424 0.0
C213 C 0.23694 0.36322 0.20703 0.0
O214 O 0.18208 0.34762 0.23316 0.0
O215 O 0.19803 0.36859 0.25436 0.0
O216 O 0.2326 0.36852 0.226 0.0
O217 O 0.22177 0.3654 0.19396 0.0
C218 C 0.16886 0.3734 0.1874 0.0
O219 O 0.21452 0.40928 0.21415 0.0
O220 O 0.18546 0.40887 0.23169 0.0
In221 In 0.7001 0.1168 0.7729 0.0
O222 O 0.71248 0.08286 0.77775 0.0
O223 O 0.68585 0.08718 0.75719 0.0
C224 C 0.73901 0.12807 0.78769 0.0
C225 C 0.66999 0.12412 0.80277 0.0
C226 C 0.6936 0.14296 0.73921 0.0
O227 O 0.73526 0.12514 0.76811 0.0
O228 O 0.72335 0.12457 0.79987 0.0
O229 O 0.685 0.14595 0.75714 0.0
O230 O 0.705 0.12644 0.73805 0.0
C231 C 0.69882 0.07431 0.76563 0.0
O232 O 0.66798 0.10979 0.78871 0.0
O233 O 0.68692 0.13497 0.80142 0.0
In234 In 0.12572 0.44312 0.01222 0.0
O235 O 0.15844 0.45893 0.013 0.0
O236 O 0.15687 0.42664 0.00266 0.0
C237 C 0.10673 0.48005 0.02299 0.0
C238 C 0.12227 0.41973 0.04819 0.0
C239 C 0.10416 0.43527 0.97565 0.0
O240 O 0.1254 0.47941 0.01529 0.0
O241 O 0.09765 0.46213 0.02496 0.0
O242 O 0.10059 0.42508 0.99265 0.0
O243 O 0.11906 0.44871 0.97695 0.0
C244 C 0.16842 0.44274 0.0064 0.0
O245 O 0.12528 0.41108 0.03021 0.0
O246 O 0.12122 0.4398 0.04786 0.0
In247 In 0.79314 0.88216 0.27323 0.0
O248 O 0.7776 0.91345 0.26408 0.0
O249 O 0.81049 0.90912 0.25607 0.0
C250 C 0.75925 0.86389 0.29271 0.0
C251 C 0.81865 0.88989 0.30681 0.0
C252 C 0.79885 0.85697 0.23884 0.0
O253 O 0.75771 0.88092 0.28206 0.0
O254 O 0.77784 0.85628 0.29367 0.0
O255 O 0.8123 0.85771 0.25385 0.0
O256 O 0.78304 0.86918 0.24107 0.0
C257 C 0.79435 0.92128 0.25592 0.0
O258 O 0.82073 0.87313 0.29573 0.0
O259 O 0.80403 0.90234 0.30087 0.0
In260 In 0.86273 0.03526 0.01011 0.0
O261 O 0.8296 0.02143 0.00454 0.0
O262 O 0.83648 0.05219 0.99161 0.0
C263 C 0.87767 0.00077 0.0314 0.0
C264 C 0.85927 0.06418 0.04164 0.0
C265 C 0.8892 0.03971 0.97633 0.0
O266 O 0.86405 -0.00082 0.01665 0.0
O267 O 0.88333 0.01961 0.03555 0.0
O268 O 0.88687 0.05418 0.99016 0.0
O269 O 0.87791 0.02334 0.97933 0.0
C270 C 0.82291 0.03746 0.99426 0.0
O271 O 0.87671 0.06108 0.03198 0.0
O272 O 0.84385 0.05281 0.03538 0.0
In273 In 0.29257 0.60913 0.73734 0.0
O274 O 0.27785 0.57789 0.74845 0.0
O275 O 0.31133 0.58223 0.75299 0.0
C276 C 0.25774 0.62709 0.71933 0.0
C277 C 0.31595 0.60053 0.70252 0.0
C278 C 0.30122 0.63688 0.76914 0.0
O279 O 0.25631 0.61214 0.73276 0.0
O280 O 0.27655 0.63271 0.71499 0.0
O281 O 0.31263 0.63561 0.75257 0.0
O282 O 0.28608 0.62364 0.76996 0.0
C283 C 0.29532 0.57002 0.75477 0.0
O284 O 0.32019 0.61632 0.71439 0.0
O285 O 0.30015 0.5894 0.70827 0.0
In286 In 0.12199 0.55945 0.47455 0.0
O287 O 0.15304 0.54147 0.47926 0.0
O288 O 0.15394 0.57532 0.48233 0.0
C289 C 0.09957 0.52392 0.46581 0.0
C290 C 0.1223 0.5782 0.43589 0.0
C291 C 0.0999 0.5713 0.50962 0.0
O292 O 0.11859 0.52319 0.47255 0.0
O293 O 0.09194 0.54246 0.46383 0.0
O294 O 0.09673 0.57962 0.49154 0.0
O295 O 0.11503 0.55807 0.51017 0.0
C296 C 0.16416 0.55794 0.48269 0.0
O297 O 0.12261 0.58922 0.45282 0.0
O298 O 0.12211 0.55831 0.43871 0.0
In299 In 0.3695 0.4436 0.97776 0.0
O300 O 0.37355 0.41096 0.96149 0.0
O301 O 0.37095 0.43872 0.94207 0.0
C302 C 0.38986 0.43793 0.01535 0.0
C303 C 0.3269 0.44253 0.98438 0.0
C304 C 0.39011 0.47869 0.96396 0.0
O305 O 0.39297 0.42597 -0.00056 0.0
O306 O 0.37605 0.45225 0.01248 0.0
O307 O 0.37084 0.47921 0.96995 0.0
O308 O 0.39895 0.46061 0.96525 0.0
C309 C 0.37351 0.41879 0.9429 0.0
O310 O 0.33682 0.45944 0.97977 0.0
O311 O 0.33846 0.4261 0.98572 0.0
In312 In 0.7257 0.69748 0.87688 0.0
O313 O 0.72045 0.71154 0.91007 0.0
O314 O 0.74091 0.68459 0.90733 0.0
C315 C 0.71168 0.73638 0.86483 0.0
C316 C 0.69513 0.6674 0.8733 0.0
C317 C 0.7587 0.6899 0.84999 0.0
O318 O 0.7308 0.73299 0.87022 0.0
O319 O 0.69959 0.72031 0.86606 0.0
O320 O 0.74017 0.68276 0.84677 0.0
O321 O 0.76078 0.70021 0.86713 0.0
C322 C 0.73224 0.69818 0.91944 0.0
O323 O 0.69557 0.68394 0.86182 0.0
O324 O 0.71064 0.6656 0.88606 0.0
In325 In 0.54851 0.47504 0.12597 0.0
O326 O 0.53473 0.46729 0.15872 0.0
O327 O 0.5609 0.48888 0.15736 0.0
C328 C 0.50922 0.46257 0.11358 0.0
C329 C 0.57873 0.44497 0.12081 0.0
C330 C 0.55646 0.50855 0.09997 0.0
O331 O 0.51322 0.48146 0.11946 0.0
O332 O 0.52492 0.44999 0.11435 0.0
O333 O 0.56268 0.48986 0.09594 0.0
O334 O 0.54681 0.51055 0.11751 0.0
C335 C 0.54768 0.4789 0.16886 0.0
O336 O 0.5613 0.44474 0.11073 0.0
O337 O 0.58125 0.46085 0.13301 0.0
In338 In 0.77072 0.29387 0.37731 0.0
O339 O 0.78967 0.32513 0.37455 0.0
O340 O 0.80656 0.29611 0.37999 0.0
C341 C 0.735 0.30258 0.35488 0.0
C342 C 0.76116 0.29524 0.4193 0.0
C343 C 0.78386 0.25919 0.35562 0.0
O344 O 0.75192 0.31334 0.35293 0.0
O345 O 0.7359 0.28791 0.36863 0.0
O346 O 0.77663 0.25789 0.37445 0.0
O347 O 0.78404 0.27777 0.34783 0.0
C348 C 0.80749 0.31599 0.37697 0.0
O349 O 0.76505 0.27798 0.40963 0.0
O350 O 0.76188 0.31172 0.40776 0.0
In351 In 0.94703 0.51889 0.62643 0.0
O352 O 0.91443 0.53561 0.62494 0.0
O353 O 0.94266 0.5546 0.62441 0.0
C354 C 0.93997 0.48118 0.60669 0.0
C355 C 0.94663 0.51151 0.66884 0.0
C356 C 0.98155 0.5334 0.60541 0.0
O357 O 0.92897 0.49758 0.60276 0.0
O358 O 0.95408 0.48377 0.62078 0.0
O359 O 0.98202 0.52921 0.62517 0.0
O360 O 0.96389 0.5298 0.59635 0.0
C361 C 0.92257 0.55406 0.62393 0.0
O362 O 0.96375 0.51315 0.65833 0.0
O363 O 0.92981 0.51364 0.65799 0.0
In364 In 0.72771 0.30053 0.61961 0.0
O365 O 0.72839 0.28343 0.58755 0.0
O366 O 0.73775 0.31607 0.58813 0.0
C367 C 0.71744 0.26474 0.64097 0.0
C368 C 0.69117 0.32297 0.62138 0.0
C369 C 0.76282 0.31065 0.64253 0.0
O370 O 0.72653 0.26414 0.62295 0.0
O371 O 0.71385 0.28324 0.6481 0.0
O372 O 0.74506 0.3197 0.64526 0.0
O373 O 0.76315 0.29727 0.62749 0.0
C374 C 0.73479 0.29942 0.57712 0.0
O375 O 0.70914 0.33214 0.62038 0.0
O376 O 0.6918 0.30287 0.62077 0.0
In377 In 0.94394 0.47533 0.86853 0.0
O378 O 0.91267 0.45887 0.85963 0.0
O379 O 0.93036 0.44624 0.88566 0.0
C380 C 0.936 0.50963 0.89369 0.0
C381 C 0.94466 0.48193 0.82598 0.0
C382 C 0.98316 0.46182 0.88016 0.0
O383 O 0.92985 0.49106 0.89845 0.0
O384 O 0.94559 0.51094 0.87608 0.0
O385 O 0.97899 0.4812 0.87657 0.0
O386 O 0.96767 0.44921 0.87747 0.0
C387 C 0.91422 0.44454 0.87372 0.0
O388 O 0.95869 0.47104 0.83547 0.0
O389 O 0.93022 0.48936 0.83792 0.0
In390 In 0.76812 0.69881 0.11877 0.0
O391 O 0.75797 0.71455 0.08772 0.0
O392 O 0.76088 0.68064 0.08808 0.0
C393 C 0.7777 0.73421 0.14112 0.0
C394 C 0.80781 0.68319 0.11529 0.0
C395 C 0.73444 0.68577 0.14219 0.0
O396 O 0.76913 0.7351 0.12286 0.0
O397 O 0.781 0.71559 0.14806 0.0
O398 O 0.75286 0.67795 0.14467 0.0
O399 O 0.73296 0.69916 0.12726 0.0
C400 C 0.75671 0.69725 0.07741 0.0
O401 O 0.79233 0.67121 0.12042 0.0
O402 O 0.80296 0.70238 0.11166 0.0
In403 In 0.54425 0.50862 0.36827 0.0
O404 O 0.57122 0.53343 0.37147 0.0
O405 O 0.54186 0.54224 0.35662 0.0
C406 C 0.55679 0.47502 0.3919 0.0
C407 C 0.54703 0.49524 0.3276 0.0
C408 C 0.50935 0.52117 0.38993 0.0
O409 O 0.56634 0.49281 0.39271 0.0
O410 O 0.5415 0.47419 0.37884 0.0
O411 O 0.50814 0.51241 0.37177 0.0
O412 O 0.52802 0.52289 0.39732 0.0
C413 C 0.56024 0.54791 0.3626 0.0
O414 O 0.52948 0.49623 0.33752 0.0
O415 O 0.56325 0.50042 0.33842 0.0
In416 In 0.87756 0.73101 0.69355 0.0
O417 O 0.90904 0.73842 0.7104 0.0
O418 O 0.90875 0.7388 0.67646 0.0
C419 C 0.85622 0.71863 0.72871 0.0
C420 C 0.87778 0.69402 0.67176 0.0
C421 C 0.85391 0.76554 0.6833 0.0
O422 O 0.87522 0.72544 0.72962 0.0
O423 O 0.84816 0.71833 0.71024 0.0
O424 O 0.8521 0.74789 0.6738 0.0
O425 O 0.86838 0.76609 0.69727 0.0
C426 C 0.9195 0.74098 0.69336 0.0
O427 O 0.87698 0.71186 0.66237 0.0
O428 O 0.87898 0.69498 0.69183 0.0
In429 In 0.51693 0.62663 0.94305 0.0
O430 O 0.53619 0.62515 0.91189 0.0
O431 O 0.55281 0.62917 0.94131 0.0
C432 C 0.48201 0.60312 0.93349 0.0
C433 C 0.50694 0.6685 0.94302 0.0
C434 C 0.52978 0.60523 0.97797 0.0
O435 O 0.49954 0.60093 0.92383 0.0
O436 O 0.4818 0.6179 0.94714 0.0
O437 O 0.52282 0.62415 0.97907 0.0
O438 O 0.52998 0.59728 0.95945 0.0
C439 C 0.55394 0.62696 0.92133 0.0
O440 O 0.50903 0.65786 0.96 0.0
O441 O 0.50962 0.65797 0.92604 0.0
In442 In 0.61602 0.27195 0.19805 0.0
O443 O 0.61788 0.28875 0.16556 0.0
O444 O 0.61625 0.30773 0.19374 0.0
C445 C 0.64039 0.23735 0.19006 0.0
C446 C 0.57378 0.26345 0.19705 0.0
C447 C 0.63534 0.28382 0.23453 0.0
O448 O 0.64266 0.25476 0.18022 0.0
O449 O 0.62527 0.23712 0.20334 0.0
O450 O 0.61813 0.27325 0.23452 0.0
O451 O 0.64266 0.2882 0.21628 0.0
C452 C 0.61782 0.30722 0.17368 0.0
O453 O 0.5828 0.27199 0.21291 0.0
O454 O 0.58606 0.25916 0.18166 0.0
In455 In 0.97654 0.36771 0.45215 0.0
O456 O 0.94545 0.38085 0.43881 0.0
O457 O 0.96155 0.35704 0.42075 0.0
C458 C 0.00765 0.39641 0.44346 0.0
C459 C 0.98597 0.32577 0.45399 0.0
C460 C 0.96243 0.37934 0.49109 0.0
O461 O 0.98853 0.39901 0.43785 0.0
O462 O 0.01129 0.37896 0.45274 0.0
O463 O 0.98195 0.37628 0.48707 0.0
O464 O 0.94998 0.37598 0.47562 0.0
C465 C 0.9455 0.3691 0.42245 0.0
O466 O 0.97533 0.33513 0.46831 0.0
O467 O 0.99195 0.33757 0.43878 0.0
In468 In 0.87217 0.26974 0.80409 0.0
O469 O 0.87293 0.28708 0.83653 0.0
O470 O 0.86451 0.30475 0.80884 0.0
C471 C 0.85313 0.23171 0.81224 0.0
C472 C 0.91487 0.26419 0.80261 0.0
C473 C 0.85332 0.28256 0.76772 0.0
O474 O 0.84816 0.24856 0.82208 0.0
O475 O 0.86806 0.23396 0.79899 0.0
O476 O 0.87337 0.2813 0.76958 0.0
O477 O 0.84286 0.27724 0.78415 0.0
C478 C 0.86755 0.30487 0.82871 0.0
O479 O 0.90321 0.26351 0.78622 0.0
O480 O 0.90501 0.2676 0.81986 0.0
In481 In 0.98528 0.6352 0.03946 0.0
O482 O 0.96367 0.62818 0.06823 0.0
O483 O 0.9565 0.6548 0.04823 0.0
C484 C 0.01847 0.60881 0.04649 0.0
C485 C 0.00242 0.67453 0.04056 0.0
C486 C 0.96592 0.6156 0.00627 0.0
O487 O 0.00296 0.61018 0.0593 0.0
O488 O 0.01751 0.62123 0.03069 0.0
O489 O 0.978 0.63156 0.00374 0.0
O490 O 0.96354 0.60983 0.02538 0.0
C491 C 0.95156 0.64386 0.06439 0.0
O492 O 0.99458 0.66654 0.02375 0.0
O493 O 0.00225 0.66236 0.05668 0.0
In494 In 0.61697 0.72988 0.29742 0.0
O495 O 0.58689 0.74194 0.28121 0.0
O496 O 0.588 0.74251 0.31527 0.0
C497 C 0.63872 0.7148 0.26344 0.0
C498 C 0.60667 0.69286 0.31622 0.0
C499 C 0.64133 0.76308 0.30985 0.0
O500 O 0.62183 0.72562 0.26148 0.0
O501 O 0.64475 0.71196 0.28243 0.0
O502 O 0.64172 0.74537 0.31952 0.0
O503 O 0.6285 0.76397 0.29437 0.0
C504 C 0.57727 0.74595 0.29852 0.0
O505 O 0.61979 0.70561 0.32485 0.0
O506 O 0.59925 0.69886 0.2985 0.0
In507 In 0.52122 0.36911 0.55308 0.0
O508 O 0.52979 0.33561 0.54172 0.0
O509 O 0.5055 0.3387 0.56533 0.0
C510 C 0.5383 0.38264 0.51596 0.0
C511 C 0.55137 0.37354 0.58353 0.0
C512 C 0.48524 0.39277 0.55671 0.0
O513 O 0.52488 0.36757 0.51671 0.0
O514 O 0.54307 0.39061 0.53382 0.0
O515 O 0.50077 0.3947 0.56934 0.0
O516 O 0.48761 0.37854 0.54273 0.0
C517 C 0.51649 0.32637 0.55377 0.0
O518 O 0.53581 0.36087 0.58552 0.0
O519 O 0.55121 0.38441 0.56661 0.0
In520 In 0.69341 0.87488 0.72761 0.0
O521 O 0.71021 0.90633 0.73465 0.0
O522 O 0.67636 0.90682 0.73256 0.0
C523 C 0.72923 0.85576 0.71367 0.0
C524 C 0.66924 0.8713 0.69221 0.0
C525 C 0.68619 0.85389 0.76469 0.0
O526 O 0.72846 0.87553 0.71769 0.0
O527 O 0.71204 0.84569 0.71691 0.0
O528 O 0.67547 0.85029 0.74803 0.0
O529 O 0.69994 0.86842 0.76277 0.0
C530 C 0.69334 0.91724 0.73567 0.0
O531 O 0.66097 0.87258 0.71059 0.0
O532 O 0.68933 0.87232 0.69184 0.0
In533 In 0.20796 0.61775 0.26435 0.0
O534 O 0.22366 0.58537 0.25926 0.0
O535 O 0.19184 0.58971 0.2479 0.0
C536 C 0.24041 0.63616 0.28607 0.0
C537 C 0.17898 0.61456 0.29585 0.0
C538 C 0.20455 0.64056 0.22794 0.0
O539 O 0.24294 0.61935 0.27522 0.0
O540 O 0.22166 0.64342 0.28601 0.0
O541 O 0.18907 0.63832 0.24066 0.0
O542 O 0.22144 0.63123 0.23355 0.0
C543 C 0.20755 0.57726 0.25015 0.0
O544 O 0.18058 0.63126 0.28464 0.0
O545 O 0.1918 0.59979 0.29111 0.0
In546 In 0.62107 0.94242 0.52455 0.0
O547 O 0.65369 0.95616 0.53343 0.0
O548 O 0.65286 0.92878 0.51334 0.0
C549 C 0.60315 0.97801 0.54047 0.0
C550 C 0.61522 0.91246 0.55513 0.0
C551 C 0.60292 0.94044 0.48535 0.0
O552 O 0.62222 0.97772 0.53378 0.0
O553 O 0.59321 0.96052 0.53878 0.0
O554 O 0.5983 0.92741 0.5 0.0
O555 O 0.61685 0.95404 0.49038 0.0
C556 C 0.66413 0.94236 0.52309 0.0
O557 O 0.62478 0.90843 0.53787 0.0
O558 O 0.60813 0.93119 0.55653 0.0
In559 In 0.30842 0.36893 0.77379 0.0
O560 O 0.34119 0.37542 0.78838 0.0
O561 O 0.32001 0.35475 0.80504 0.0
C562 C 0.31673 0.34465 0.73895 0.0
C563 C 0.30671 0.412 0.77207 0.0
C564 C 0.26912 0.35518 0.7847 0.0
O565 O 0.32236 0.33935 0.75751 0.0
O566 O 0.30765 0.36254 0.73784 0.0
O567 O 0.27282 0.36461 0.76726 0.0
O568 O 0.28516 0.35295 0.79666 0.0
C569 C 0.33783 0.36414 0.80476 0.0
O570 O 0.29333 0.40096 0.7823 0.0
O571 O 0.3209 0.40134 0.76252 0.0
In572 In 0.36355 0.54691 0.51657 0.0
O573 O 0.36682 0.57434 0.54092 0.0
O574 O 0.35595 0.54372 0.55127 0.0
C575 C 0.38753 0.5579 0.48265 0.0
C576 C 0.32229 0.5503 0.50541 0.0
C577 C 0.38522 0.51135 0.52669 0.0
O578 O 0.38958 0.56699 0.50057 0.0
O579 O 0.37266 0.54435 0.48171 0.0
O580 O 0.36719 0.51052 0.5176 0.0
O581 O 0.39222 0.52993 0.53017 0.0
C582 C 0.36086 0.56259 0.55629 0.0
O583 O 0.33139 0.53251 0.50815 0.0
O584 O 0.33416 0.56645 0.50785 0.0
In585 In 0.8008 0.12038 0.2192 0.0
O586 O 0.83099 0.1202 0.19811 0.0
O587 O 0.80041 0.12101 0.18332 0.0
C588 C 0.81242 0.14197 0.2547 0.0
C589 C 0.79955 0.07795 0.22598 0.0
C590 C 0.76508 0.14235 0.2104 0.0
O591 O 0.82081 0.14547 0.23671 0.0
O592 O 0.79909 0.1269 0.25491 0.0
O593 O 0.76452 0.12378 0.21831 0.0
O594 O 0.78357 0.14979 0.20731 0.0
C595 C 0.82037 0.12081 0.18094 0.0
O596 O 0.78306 0.08891 0.22237 0.0
O597 O 0.81677 0.08844 0.22651 0.0
In598 In 0.62289 0.05653 0.97121 0.0
O599 O 0.63088 0.08851 0.95559 0.0
O600 O 0.60662 0.06935 0.94151 0.0
C601 C 0.60009 0.06557 0.00683 0.0
C602 C 0.6658 0.05267 0.97295 0.0
C603 C 0.60742 0.01807 0.95951 0.0
O604 O 0.59486 0.07229 0.98861 0.0
O605 O 0.61722 0.05509 0.00719 0.0
O606 O 0.60842 0.03369 0.94683 0.0
O607 O 0.61451 0.02175 0.97802 0.0
C608 C 0.61764 0.0862 0.94055 0.0
O609 O 0.65401 0.03917 0.96379 0.0
O610 O 0.656 0.06817 0.9813 0.0
In611 In 0.86371 0.9425 0.49406 0.0
O612 O 0.86573 0.91548 0.46924 0.0
O613 O 0.85402 0.94601 0.45977 0.0
C614 C 0.88971 0.92948 0.52574 0.0
C615 C 0.82303 0.94055 0.50789 0.0
C616 C 0.88607 0.97727 0.48244 0.0
O617 O 0.88851 0.91975 0.5081 0.0
O618 O 0.87687 0.94485 0.52776 0.0
O619 O 0.86817 0.97875 0.4917 0.0
O620 O 0.89259 0.95844 0.4795 0.0
C621 C 0.8589 0.92725 0.4543 0.0
O622 O 0.83317 0.95792 0.50633 0.0
O623 O 0.83363 0.92407 0.50308 0.0
H624 H 0.24225 0.23523 0.546 0.0
H625 H 0.2313 0.16238 0.44192 0.0
H626 H 0.23638 0.16655 0.54836 0.0
H627 H 0.22052 0.23048 0.44142 0.0
H628 H 0.23517 0.16372 0.48078 0.0
H629 H 0.23572 0.23402 0.50748 0.0
C630 C 0.23939 0.21992 0.53843 0.0
C631 C 0.23986 0.20096 0.55034 0.0
C632 C 0.2319 0.17836 0.47218 0.0
C633 C 0.2327 0.19943 0.50633 0.0
C634 C 0.2298 0.17762 0.45 0.0
C635 C 0.22563 0.19636 0.43848 0.0
C636 C 0.23002 0.19801 0.48286 0.0
C637 C 0.22374 0.21566 0.44973 0.0
C638 C 0.23569 0.21924 0.51646 0.0
C639 C 0.2361 0.18155 0.53976 0.0
N640 N 0.22604 0.21601 0.47131 0.0
N641 N 0.23285 0.18127 0.5183 0.0
H642 H 0.09413 0.98307 0.69182 0.0
H643 H 0.02246 0.99138 0.79697 0.0
H644 H 0.02787 0.9641 0.69431 0.0
H645 H 0.09119 0.99675 0.79797 0.0
H646 H 0.02409 0.98221 0.75908 0.0
H647 H 0.09344 0.98902 0.73048 0.0
C648 C 0.07947 0.98008 0.70053 0.0
C649 C 0.061 0.97316 0.68988 0.0
C650 C 0.03884 0.98527 0.76759 0.0
C651 C 0.06007 0.98003 0.73398 0.0
C652 C 0.03791 0.99055 0.78921 0.0
C653 C 0.05672 0.99487 0.80057 0.0
C654 C 0.05871 0.98453 0.75719 0.0
C655 C 0.07631 0.99352 0.78976 0.0
C656 C 0.0791 0.98343 0.72258 0.0
C657 C 0.04246 0.96946 0.7019 0.0
N658 N 0.07679 0.9886 0.76861 0.0
N659 N 0.04243 0.97308 0.7233 0.0
H660 H 0.26174 0.83962 0.9431 0.0
H661 H 0.2199 0.7732 0.0439 0.0
H662 H 0.24373 0.7731 0.94015 0.0
H663 H 0.25438 0.83265 0.04992 0.0
H664 H 0.22486 0.77467 0.0052 0.0
H665 H 0.25545 0.83915 0.98177 0.0
C666 C 0.25638 0.82496 0.95059 0.0
C667 C 0.2533 0.80635 0.93847 0.0
C668 C 0.23136 0.78739 0.01498 0.0
C669 C 0.24602 0.80573 0.98251 0.0
C670 C 0.2285 0.78657 0.03705 0.0
C671 C 0.23682 0.80279 0.0501 0.0
C672 C 0.24245 0.80464 0.00586 0.0
C673 C 0.2478 0.81977 0.04041 0.0
C674 C 0.25287 0.82469 0.97263 0.0
C675 C 0.24638 0.78778 0.94893 0.0
N676 N 0.25027 0.82029 0.01883 0.0
N677 N 0.24293 0.78795 0.97034 0.0
H678 H 0.42196 0.00534 0.29847 0.0
H679 H 0.48458 0.01864 0.18862 0.0
H680 H 0.48899 0.9903 0.29269 0.0
H681 H 0.41745 0.00318 0.19164 0.0
H682 H 0.48682 0.01445 0.22755 0.0
H683 H 0.42036 0.01109 0.25983 0.0
C684 C 0.43637 0.00339 0.28907 0.0
C685 C 0.45563 0.99727 0.2987 0.0
C686 C 0.47163 0.01197 0.21963 0.0
C687 C 0.45391 0.00396 0.25468 0.0
C688 C 0.47033 0.01441 0.1975 0.0
C689 C 0.45082 0.01115 0.18698 0.0
C690 C 0.4532 0.00667 0.23126 0.0
C691 C 0.43282 0.00569 0.19916 0.0
C692 C 0.43541 0.00657 0.26706 0.0
C693 C 0.47381 0.99491 0.28581 0.0
N694 N 0.43441 0.00375 0.2207 0.0
N695 N 0.47254 -0.00165 0.2644 0.0
H696 H 0.54994 0.24925 0.16332 0.0
H697 H 0.44241 0.2388 0.23148 0.0
H698 H 0.54517 0.26706 0.22977 0.0
H699 H 0.44381 0.23585 0.1626 0.0
H700 H 0.48071 0.24646 0.23153 0.0
H701 H 0.51158 0.24157 0.16306 0.0
C702 C 0.54081 0.25153 0.17785 0.0
C703 C 0.55069 0.2588 0.1966 0.0
C704 C 0.47264 0.24417 0.2164 0.0
C705 C 0.50694 0.24998 0.19645 0.0
C706 C 0.4508 0.23974 0.21636 0.0
C707 C 0.43997 0.23671 0.197 0.0
C708 C 0.48374 0.24538 0.19694 0.0
C709 C 0.45158 0.23813 0.17788 0.0
C710 C 0.51893 0.2472 0.17768 0.0
C711 C 0.53815 0.26151 0.21497 0.0
N712 N 0.47288 0.24231 0.17833 0.0
N713 N 0.51693 0.25703 0.21445 0.0
H714 H -0.00126 0.30011 0.42116 0.0
H715 H 0.01385 0.19594 0.49231 0.0
H716 H 0.98343 0.29912 0.48838 0.0
H717 H -0.00086 0.19297 0.42503 0.0
H718 H 0.00859 0.23477 0.49133 0.0
H719 H 0.00504 0.26149 0.42244 0.0
C720 C 0.99683 0.29176 0.4362 0.0
C721 C 0.99051 0.30272 0.45469 0.0
C722 C 0.0065 0.22556 0.47682 0.0
C723 C -0.00217 0.2588 0.45628 0.0
C724 C 0.00954 0.20348 0.47735 0.0
C725 C 0.00683 0.19132 0.45873 0.0
C726 C 0.00112 0.23549 0.45746 0.0
C727 C 0.00125 0.20181 0.43975 0.0
C728 C 0.00032 0.26977 0.43689 0.0
C729 C 0.98819 0.29119 0.47376 0.0
N730 N -0.0013 0.22335 0.43956 0.0
N731 N 0.99196 0.26982 0.4741 0.0
H732 H 0.04994 0.77352 0.72632 0.0
H733 H 0.9464 0.7409 0.65903 0.0
H734 H 0.05288 0.74565 0.6633 0.0
H735 H 0.94522 0.75096 0.72723 0.0
H736 H 0.98503 0.74677 0.6592 0.0
H737 H 0.01104 0.76931 0.72591 0.0
C738 C 0.04238 0.76653 0.7124 0.0
C739 C 0.05461 0.75985 0.69484 0.0
C740 C 0.97631 0.74772 0.67413 0.0
C741 C 0.01022 0.75516 0.6942 0.0
C742 C 0.95427 0.74446 0.67402 0.0
C743 C 0.94264 0.7454 0.69316 0.0
C744 C 0.98677 0.75215 0.69347 0.0
C745 C 0.95363 0.75003 0.71214 0.0
C746 C 0.02022 0.76411 0.71219 0.0
C747 C 0.04404 0.75093 0.67721 0.0
N748 N 0.9751 0.75326 0.71182 0.0
N749 N 0.02243 0.74889 0.67731 0.0
H750 H 0.50508 0.80287 0.91262 0.0
H751 H 0.49453 0.69336 0.97672 0.0
H752 H 0.47002 0.79769 0.97177 0.0
H753 H 0.50938 0.69621 0.90945 0.0
H754 H 0.48845 0.73202 0.97662 0.0
H755 H 0.51007 0.76412 0.91262 0.0
C756 C 0.49848 0.79356 0.92563 0.0
C757 C 0.48712 0.80345 0.94222 0.0
C758 C 0.49294 0.72414 0.96187 0.0
C759 C 0.49284 0.7592 0.94237 0.0
C760 C 0.49645 0.70213 0.96193 0.0
C761 C 0.50245 0.69162 0.94306 0.0
C762 C 0.49576 0.73574 0.94288 0.0
C763 C 0.50471 0.70371 0.92433 0.0
C764 C 0.50124 0.77146 0.92557 0.0
C765 C 0.47884 0.79065 0.95866 0.0
N766 N 0.5015 0.72516 0.92474 0.0
N767 N 0.48195 0.76916 0.95838 0.0
H768 H 0.551 0.75467 0.26481 0.0
H769 H 0.44575 0.76011 0.33716 0.0
H770 H 0.55179 0.75075 0.33364 0.0
H771 H 0.44574 0.76998 0.26893 0.0
H772 H 0.48466 0.75686 0.33625 0.0
H773 H 0.51252 0.76113 0.26604 0.0
C774 C 0.54309 0.75539 0.2802 0.0
C775 C 0.55455 0.75212 0.29915 0.0
C776 C 0.47616 0.75978 0.32148 0.0
C777 C 0.51053 0.75923 0.30068 0.0
C778 C 0.45395 0.76155 0.32198 0.0
C779 C 0.44253 0.76524 0.30308 0.0
C780 C 0.48701 0.76163 0.30191 0.0
C781 C 0.45394 0.76708 0.28387 0.0
C782 C 0.52112 0.75902 0.28089 0.0
C783 C 0.54354 0.75319 0.31865 0.0
N784 N 0.47555 0.7652 0.28377 0.0
N785 N 0.5221 0.75651 0.3189 0.0
H786 H 0.53415 0.29685 0.52689 0.0
H787 H 0.48764 0.19634 0.59064 0.0
H788 H 0.49383 0.30266 0.58253 0.0
H789 H 0.51111 0.19242 0.52591 0.0
H790 H 0.49427 0.2349 0.59027 0.0
H791 H 0.53005 0.25797 0.52849 0.0
C792 C 0.52446 0.28992 0.53945 0.0
C793 C 0.51422 0.30294 0.55454 0.0
C794 C 0.49803 0.22557 0.57619 0.0
C795 C 0.50962 0.2586 0.55658 0.0
C796 C 0.49435 0.20358 0.57642 0.0
C797 C 0.49877 0.19124 0.55825 0.0
C798 C 0.50637 0.23521 0.55772 0.0
C799 C 0.5074 0.2014 0.54023 0.0
C800 C 0.5221 0.26777 0.54034 0.0
C801 C 0.50189 0.29318 0.57051 0.0
N802 N 0.51092 0.22282 0.54041 0.0
N803 N 0.49996 0.27157 0.57114 0.0
H804 H 0.94407 0.27019 0.83453 0.0
H805 H 0.04269 0.22768 0.7657 0.0
H806 H 0.93867 0.25145 0.76839 0.0
H807 H 0.05027 0.2627 0.82463 0.0
H808 H 0.00415 0.23392 0.76742 0.0
H809 H 0.98279 0.2651 0.83236 0.0
C810 C 0.95105 0.26499 0.81957 0.0
C811 C 0.9382 0.26122 0.80161 0.0
C812 C 0.01426 0.24032 0.77993 0.0
C813 C 0.98234 0.25529 0.79903 0.0
C814 C 0.03623 0.23673 0.77896 0.0
C815 C 0.04964 0.2447 0.79505 0.0
C816 C 0.00564 0.25173 0.79722 0.0
C817 C 0.04047 0.25633 0.81188 0.0
C818 C 0.97312 0.26216 0.81831 0.0
C819 C 0.94803 0.25456 0.7826 0.0
N820 N 0.019 0.2594 0.8126 0.0
N821 N 0.96952 0.25171 0.78183 0.0
H822 H 0.00642 0.7031 0.00785 0.0
H823 H 0.01791 0.80363 0.08551 0.0
H824 H 0.01282 0.69745 0.07626 0.0
H825 H 0.02393 0.80778 0.01695 0.0
H826 H 0.01588 0.76469 0.08253 0.0
H827 H 0.01316 0.74145 0.01081 0.0
C828 C 0.00949 0.70991 0.02347 0.0
C829 C 0.009 0.69712 0.04185 0.0
C830 C 0.01775 0.77411 0.06815 0.0
C831 C 0.01641 0.74101 0.04539 0.0
C832 C 0.01882 0.79633 0.06984 0.0
C833 C 0.02099 0.80891 0.05144 0.0
C834 C 0.01868 0.76446 0.0479 0.0
C835 C 0.0222 0.79866 0.03154 0.0
C836 C 0.0133 0.73181 0.02515 0.0
C837 C 0.01307 0.70675 0.06168 0.0
N838 N 0.02091 0.77703 0.03029 0.0
N839 N 0.0164 0.72817 0.06296 0.0
H840 H 0.23521 0.44561 0.21745 0.0
H841 H 0.17216 0.55396 0.23996 0.0
H842 H 0.1691 0.44708 0.23699 0.0
H843 H 0.24055 0.54886 0.2469 0.0
H844 H 0.17041 0.51559 0.23255 0.0
H845 H 0.23709 0.48444 0.22225 0.0
C846 C 0.22109 0.45413 0.2227 0.0
C847 C 0.20199 0.44318 0.22693 0.0
C848 C 0.1858 0.52291 0.23562 0.0
C849 C 0.20397 0.48743 0.23218 0.0
C850 C 0.18683 0.54479 0.23972 0.0
C851 C 0.20653 0.55453 0.2441 0.0
C852 C 0.20464 0.51078 0.23561 0.0
C853 C 0.22504 0.54192 0.24368 0.0
C854 C 0.2222 0.47622 0.22547 0.0
C855 C 0.18417 0.45493 0.23369 0.0
N856 N 0.22365 0.52066 0.23946 0.0
N857 N 0.18556 0.47647 0.23602 0.0
H858 H 0.72802 0.04419 0.77749 0.0
H859 H 0.6601 0.94549 0.7331 0.0
H860 H 0.6678 0.05171 0.74483 0.0
H861 H 0.72712 0.94146 0.74871 0.0
H862 H 0.66114 0.98389 0.7407 0.0
H863 H 0.7265 0.00575 0.77049 0.0
C864 C 0.71447 0.03773 0.76887 0.0
C865 C 0.69804 0.05111 0.76167 0.0
C866 C 0.67561 0.97458 0.74243 0.0
C867 C 0.69613 0.00723 0.75372 0.0
C868 C 0.67501 0.95269 0.73816 0.0
C869 C 0.69356 0.94034 0.74025 0.0
C870 C 0.69484 0.98408 0.74906 0.0
C871 C 0.71247 0.95044 0.74683 0.0
C872 C 0.71363 0.01583 0.76484 0.0
C873 C 0.68084 0.04194 0.75058 0.0
N874 N 0.71261 0.97171 0.75107 0.0
N875 N 0.68029 0.02053 0.74699 0.0
H876 H 0.19559 0.47672 0.00892 0.0
H877 H 0.30122 0.40757 0.98993 0.0
H878 H 0.19432 0.40881 0.99693 0.0
H879 H 0.29966 0.47643 0.98669 0.0
H880 H 0.26247 0.40734 0.99543 0.0
H881 H 0.23426 0.47658 0.00376 0.0
C882 C 0.20347 0.46177 0.00521 0.0
C883 C 0.19177 0.44275 0.00331 0.0
C884 C 0.27062 0.42248 0.99348 0.0
C885 C 0.23601 0.44245 -0.00253 0.0
C886 C 0.29271 0.42263 0.99041 0.0
C887 C 0.30361 0.44205 0.98785 0.0
C888 C 0.25943 0.44191 0.99418 0.0
C889 C 0.29186 0.4611 0.98856 0.0
C890 C 0.22554 0.46171 0.00222 0.0
C891 C 0.20277 0.42384 -0.00153 0.0
N892 N 0.2704 0.46056 0.99173 0.0
N893 N 0.22432 0.42415 0.99577 0.0
H894 H 0.76411 0.05269 0.22781 0.0
H895 H 0.82963 0.9441 0.24376 0.0
H896 H 0.83294 0.05017 0.23086 0.0
H897 H 0.76133 0.94929 0.25162 0.0
H898 H 0.83111 0.98218 0.2349 0.0
H899 H 0.76278 0.01404 0.23283 0.0
C900 C 0.77895 0.04398 0.22954 0.0
C901 C 0.79866 0.05462 0.22904 0.0
C902 C 0.8158 0.97494 0.23845 0.0
C903 C 0.79728 0.01038 0.23468 0.0
C904 C 0.81493 0.95321 0.24339 0.0
C905 C 0.79533 0.9436 0.24851 0.0
C906 C 0.79691 0.98705 0.23854 0.0
C907 C 0.77678 0.95611 0.24786 0.0
C908 C 0.77819 0.02192 0.23239 0.0
C909 C 0.81741 0.04256 0.23127 0.0
N910 N 0.77804 0.97721 0.24304 0.0
N911 N 0.81626 0.02105 0.23401 0.0
H912 H 0.68938 0.017 0.9646 0.0
H913 H 0.80204 0.07391 0.98271 0.0
H914 H 0.69534 0.08306 0.98352 0.0
H915 H 0.79261 0.00617 0.99148 0.0
H916 H 0.76376 0.07785 0.97558 0.0
H917 H 0.72822 0.01316 0.96735 0.0
C918 C 0.69889 0.03072 0.96923 0.0
C919 C 0.6892 0.05035 0.97398 0.0
C920 C 0.77014 0.06212 0.97893 0.0
C921 C 0.73347 0.04612 0.97688 0.0
C922 C 0.79195 0.05984 0.98285 0.0
C923 C 0.80041 0.03969 0.98777 0.0
C924 C 0.75682 0.04409 0.97961 0.0
C925 C 0.78666 0.02199 0.98785 0.0
C926 C 0.721 0.02849 0.97084 0.0
C927 C 0.70221 0.06761 0.97988 0.0
N928 N 0.76549 0.02459 0.98383 0.0
N929 N 0.72374 0.06512 0.98112 0.0
H930 H 0.33723 0.4396 0.75742 0.0
H931 H 0.2632 0.54232 0.76502 0.0
H932 H 0.27418 0.43786 0.78529 0.0
H933 H 0.33173 0.54634 0.75862 0.0
H934 H 0.26641 0.50387 0.77133 0.0
H935 H 0.33511 0.47864 0.75602 0.0
C936 C 0.32295 0.44745 0.76325 0.0
C937 C 0.30582 0.43553 0.7714 0.0
C938 C 0.28076 0.51321 0.76879 0.0
C939 C 0.30325 0.48006 0.76978 0.0
C940 C 0.27894 0.53513 0.76521 0.0
C941 C 0.29723 0.54747 0.76127 0.0
C942 C 0.30098 0.50354 0.76806 0.0
C943 C 0.31723 0.53739 0.76165 0.0
C944 C 0.3218 0.46971 0.76256 0.0
C945 C 0.28774 0.44648 0.77886 0.0
N946 N 0.31856 0.51594 0.76471 0.0
N947 N 0.28685 0.46814 0.77771 0.0
H948 H 0.29835 0.58663 0.50119 0.0
H949 H 0.18897 0.52227 0.4846 0.0
H950 H 0.29383 0.51783 0.49946 0.0
H951 H 0.19224 0.59105 0.48848 0.0
H952 H 0.22759 0.52055 0.48936 0.0
H953 H 0.25973 0.58885 0.49549 0.0
C954 C 0.28924 0.572 0.49948 0.0
C955 C 0.29926 0.55201 0.50081 0.0
C956 C 0.2199 0.53604 0.4892 0.0
C957 C 0.25516 0.55441 0.49442 0.0
C958 C 0.19784 0.53702 0.48651 0.0
C959 C 0.18742 0.55684 0.48617 0.0
C960 C 0.23167 0.55501 0.49154 0.0
C961 C 0.19967 0.57545 0.48869 0.0
C962 C 0.2672 0.57327 0.4963 0.0
C963 C 0.28673 0.53357 0.49855 0.0
N964 N 0.2212 0.57408 0.49125 0.0
N965 N 0.26533 0.53522 0.49551 0.0
H966 H 0.75934 0.66311 0.05029 0.0
H967 H 0.71926 0.72838 0.94814 0.0
H968 H 0.74289 0.73003 0.05224 0.0
H969 H 0.75189 0.66782 0.94382 0.0
H970 H 0.72412 0.72782 0.98691 0.0
H971 H 0.75275 0.663 0.01174 0.0
C972 C 0.75421 0.67774 0.04262 0.0
C973 C 0.7517 0.69662 0.05442 0.0
C974 C 0.73024 0.71467 0.97747 0.0
C975 C 0.74416 0.69662 0.01044 0.0
C976 C 0.72745 0.71497 0.95537 0.0
C977 C 0.73526 0.69815 0.94279 0.0
C978 C 0.74073 0.69733 0.98706 0.0
C979 C 0.74572 0.68115 0.95295 0.0
C980 C 0.75055 0.67769 0.02063 0.0
C981 C 0.74508 0.71515 0.0437 0.0
N982 N 0.7481 0.68114 0.97452 0.0
N983 N 0.74152 0.71468 0.02231 0.0
H984 H 0.58158 0.499 0.30122 0.0
H985 H 0.5181 0.46268 0.19648 0.0
H986 H 0.51519 0.48033 0.30176 0.0
H987 H 0.57744 0.4978 0.19463 0.0
H988 H 0.5186 0.46464 0.23551 0.0
H989 H 0.58232 0.4938 0.26248 0.0
C990 C 0.56722 0.49359 0.2932 0.0
C991 C 0.54826 0.49017 0.30465 0.0
C992 C 0.5315 0.47192 0.22655 0.0
C993 C 0.54897 0.48429 0.26044 0.0
C994 C 0.53123 0.47081 0.20431 0.0
C995 C 0.5477 0.4802 0.19236 0.0
C996 C 0.54847 0.48232 0.2369 0.0
C997 C 0.56436 0.49047 0.20327 0.0
C998 C 0.56762 0.49075 0.27111 0.0
C999 C 0.53011 0.48322 0.2935 0.0
N1000 N 0.56435 0.49123 0.22496 0.0
N1001 N 0.5309 0.48054 0.27198 0.0
H1002 H 0.75631 0.33076 0.44419 0.0
H1003 H 0.73259 0.26462 0.55095 0.0
H1004 H 0.75572 0.26186 0.44692 0.0
H1005 H 0.74511 0.33244 0.55039 0.0
H1006 H 0.7385 0.26356 0.51237 0.0
H1007 H 0.74959 0.33198 0.48267 0.0
C1008 C 0.7547 0.31589 0.45289 0.0
C1009 C 0.75659 0.29617 0.4424 0.0
C1010 C 0.73999 0.27867 0.52068 0.0
C1011 C 0.7489 0.29744 0.48636 0.0
C1012 C 0.73659 0.27929 0.54269 0.0
C1013 C 0.73841 0.29865 0.55385 0.0
C1014 C 0.74511 0.29757 0.50973 0.0
C1015 C 0.74361 0.31718 0.54237 0.0
C1016 C 0.75093 0.31659 0.47485 0.0
C1017 C 0.75441 0.2774 0.45442 0.0
N1018 N 0.74674 0.31619 0.52091 0.0
N1019 N 0.75065 0.27849 0.47577 0.0
H1020 H 0.91216 0.51262 0.69547 0.0
H1021 H 0.97664 0.47227 0.79786 0.0
H1022 H 0.98004 0.50064 0.69477 0.0
H1023 H 0.91388 0.50056 0.8014 0.0
H1024 H 0.97729 0.47943 0.75942 0.0
H1025 H 0.9116 0.50521 0.7338 0.0
C1026 C 0.92695 0.50842 0.70341 0.0
C1027 C 0.94619 0.50725 0.69199 0.0
C1028 C 0.9634 0.48409 0.76863 0.0
C1029 C 0.94564 0.49865 0.73575 0.0
C1030 C 0.96299 0.47995 0.79053 0.0
C1031 C 0.94519 0.48586 0.80278 0.0
C1032 C 0.94579 0.49402 0.75893 0.0
C1033 C 0.92794 0.49579 0.79252 0.0
C1034 C 0.92662 0.50424 0.72528 0.0
C1035 C 0.96488 0.50177 0.70303 0.0
N1036 N 0.92864 0.4995 0.77116 0.0
N1037 N 0.96414 0.49758 0.72431 0.0
H1038 H 0.79623 0.90615 0.5057 0.0
H1039 H 0.69192 0.97238 0.53854 0.0
H1040 H 0.79756 0.97325 0.52161 0.0
H1041 H 0.68987 0.91127 0.50661 0.0
H1042 H 0.73101 0.97137 0.53711 0.0
H1043 H 0.75752 0.90604 0.51105 0.0
C1044 C 0.7884 0.9208 0.51055 0.0
C1045 C 0.80007 0.93977 0.51313 0.0
C1046 C 0.72199 0.95818 0.53045 0.0
C1047 C 0.75585 0.93977 0.51918 0.0
C1048 C 0.69971 0.95874 0.53127 0.0
C1049 C 0.68768 0.94194 0.52257 0.0
C1050 C 0.73228 0.9406 0.52104 0.0
C1051 C 0.69855 0.92462 0.51339 0.0
C1052 C 0.7663 0.92076 0.51348 0.0
C1053 C 0.78913 0.95831 0.51937 0.0
N1054 N 0.72024 0.92439 0.51288 0.0
N1055 N 0.7676 0.95786 0.52214 0.0
H1056 H 0.20257 0.35405 0.2931 0.0
H1057 H 0.18087 0.23035 0.31451 0.0
H1058 H 0.16762 0.31283 0.25023 0.0
H1059 H 0.21389 0.27126 0.35916 0.0
H1060 H 0.17255 0.26146 0.29268 0.0
H1061 H 0.20322 0.32527 0.31954 0.0
C1062 C 0.19472 0.33906 0.2894 0.0
C1063 C 0.18523 0.3357 0.26938 0.0
C1064 C 0.18148 0.26372 0.30732 0.0
C1065 C 0.18613 0.3027 0.29937 0.0
C1066 C 0.18628 0.24594 0.31977 0.0
C1067 C 0.19828 0.24824 0.33853 0.0
C1068 C 0.18888 0.28397 0.31357 0.0
C1069 C 0.20471 0.26881 0.34471 0.0
C1070 C 0.19516 0.32262 0.30446 0.0
C1071 C 0.17527 0.31602 0.26541 0.0
N1072 N 0.2001 0.2859 0.33213 0.0
N1073 N 0.17619 0.30019 0.28018 0.0
H1074 H 0.01889 0.9374 0.56511 0.0
H1075 H 0.9241 0.90289 0.52136 0.0
H1076 H 0.98275 0.95309 0.62169 0.0
H1077 H 0.896 0.94899 0.56427 0.0
H1078 H 0.95699 0.90407 0.54236 0.0
H1079 H 0.98603 0.92594 0.54768 0.0
C1080 C 0.00402 0.93821 0.57394 0.0
C1081 C 0.00349 0.94627 0.59483 0.0
C1082 C 0.94363 0.91392 0.54719 0.0
C1083 C 0.96579 0.93271 0.57516 0.0
C1084 C 0.92473 0.91299 0.53541 0.0
C1085 C 0.90746 0.92617 0.54086 0.0
C1086 C 0.94523 0.92822 0.56444 0.0
C1087 C 0.90907 0.9388 0.55933 0.0
C1088 C 0.98527 0.93136 0.56409 0.0
C1089 C 0.98381 0.94697 0.60555 0.0
N1090 N 0.92774 0.9397 0.57034 0.0
N1091 N 0.96566 0.94055 0.59547 0.0
H1092 H 0.27373 0.72708 0.86968 0.0
H1093 H 0.32469 0.67351 0.76542 0.0
H1094 H 0.29716 0.76293 0.81563 0.0
H1095 H 0.28188 0.64023 0.80804 0.0
H1096 H 0.32235 0.70509 0.78841 0.0
H1097 H 0.28372 0.69389 0.85143 0.0
C1098 C 0.28109 0.72795 0.85404 0.0
C1099 C 0.28442 0.7477 0.844 0.0
C1100 C 0.31371 0.69076 0.79285 0.0
C1101 C 0.29608 0.70999 0.82327 0.0
C1102 C 0.31516 0.67271 0.77985 0.0
C1103 C 0.30327 0.65436 0.78476 0.0
C1104 C 0.30043 0.69033 0.81093 0.0
C1105 C 0.29114 0.65416 0.80361 0.0
C1106 C 0.28678 0.70905 0.84366 0.0
C1107 C 0.2941 0.74799 0.8238 0.0
N1108 N 0.2899 0.67197 0.81596 0.0
N1109 N 0.29956 0.72939 0.81406 0.0
H1110 H 0.56302 0.08834 0.01057 0.0
H1111 H 0.5221 0.01658 0.10595 0.0
H1112 H 0.60405 0.04507 0.04507 0.0
H1113 H 0.48721 0.07131 0.08283 0.0
H1114 H 0.55327 0.02838 0.08555 0.0
H1115 H 0.5361 0.08451 0.03862 0.0
C1116 C 0.56652 0.07835 0.02426 0.0
C1117 C 0.58565 0.0668 0.0254 0.0
C1118 C 0.5389 0.03799 0.08517 0.0
C1119 C 0.55484 0.06203 0.0573 0.0
C1120 C 0.5211 0.03122 0.09677 0.0
C1121 C 0.50202 0.04287 0.09586 0.0
C1122 C 0.53747 0.05635 0.07234 0.0
C1123 C 0.50159 0.06178 0.08384 0.0
C1124 C 0.55114 0.07615 0.04026 0.0
C1125 C 0.58943 0.05415 0.04351 0.0
N1126 N 0.51897 0.06778 0.07229 0.0
N1127 N 0.57399 0.0518 0.05858 0.0
H1128 H 0.24597 0.72596 0.13018 0.0
H1129 H 0.17166 0.66609 0.21441 0.0
H1130 H 0.18157 0.74567 0.14488 0.0
H1131 H 0.23565 0.64631 0.1981 0.0
H1132 H 0.17275 0.69203 0.18514 0.0
H1133 H 0.24022 0.69333 0.15073 0.0
C1134 C 0.2305 0.72324 0.13747 0.0
C1135 C 0.21432 0.73863 0.13609 0.0
C1136 C 0.18644 0.68181 0.1878 0.0
C1137 C 0.20771 0.70152 0.15991 0.0
C1138 C 0.18581 0.66702 0.20449 0.0
C1139 C 0.20371 0.65429 0.20884 0.0
C1140 C 0.20512 0.68388 0.17549 0.0
C1141 C 0.22159 0.65602 0.19545 0.0
C1142 C 0.22723 0.70463 0.14924 0.0
C1143 C 0.19453 0.73427 0.1457 0.0
N1144 N 0.22193 0.67071 0.17953 0.0
N1145 N 0.19188 0.71623 0.15749 0.0
H1146 H 0.60798 0.96952 0.45333 0.0
H1147 H 0.50514 0.92908 0.38949 0.0
H1148 H 0.57166 0.91349 0.47067 0.0
H1149 H 0.5311 0.99282 0.3849 0.0
H1150 H 0.53503 0.91904 0.41259 0.0
H1151 H 0.58546 0.97388 0.42179 0.0
C1152 C 0.59545 0.95794 0.45033 0.0
C1153 C 0.59145 0.94128 0.46478 0.0
C1154 C 0.53435 0.93511 0.40622 0.0
C1155 C 0.56564 0.94623 0.42876 0.0
C1156 C 0.51738 0.94083 0.39295 0.0
C1157 C 0.51554 0.96189 0.38552 0.0
C1158 C 0.5496 0.95055 0.41194 0.0
C1159 C 0.53182 0.97647 0.39049 0.0
C1160 C 0.58259 0.96048 0.43234 0.0
C1161 C 0.57512 0.92668 0.46003 0.0
N1162 N 0.54808 0.97058 0.40357 0.0
N1163 N 0.56264 0.92961 0.4425 0.0
H1164 H 0.27822 0.276 0.62668 0.0
H1165 H 0.33369 0.30448 0.73804 0.0
H1166 H 0.30577 0.22946 0.66937 0.0
H1167 H 0.30161 0.35086 0.69846 0.0
H1168 H 0.32938 0.27793 0.70976 0.0
H1169 H 0.29201 0.30458 0.64964 0.0
C1170 C 0.28737 0.27182 0.64075 0.0
C1171 C 0.29064 0.25037 0.64631 0.0
C1172 C 0.32352 0.29399 0.70712 0.0
C1173 C 0.30641 0.28285 0.67259 0.0
C1174 C 0.32606 0.30917 0.72324 0.0
C1175 C 0.31774 0.3298 0.72067 0.0
C1176 C 0.31248 0.29945 0.68837 0.0
C1177 C 0.3081 0.33506 0.70114 0.0
C1178 C 0.29522 0.28811 0.65385 0.0
C1179 C 0.30268 0.2458 0.66463 0.0
N1180 N 0.30547 0.31989 0.68583 0.0
N1181 N 0.30997 0.2619 0.67721 0.0
H1182 H 0.92057 0.06964 0.97086 0.0
H1183 H 0.97652 0.00568 0.87524 0.0
H1184 H 0.89461 0.01207 0.94308 0.0
H1185 H 0.00871 0.0525 0.91436 0.0
H1186 H 0.94349 0.01239 0.89519 0.0
H1187 H 0.95 0.06827 0.94514 0.0
C1188 C 0.9209 0.0569 0.95914 0.0
C1189 C 0.90531 0.04081 0.9592 0.0
C1190 C 0.95776 0.02129 0.89927 0.0
C1191 C 0.93886 0.03909 0.92989 0.0
C1192 C 0.97657 0.01749 0.88789 0.0
C1193 C 0.99536 0.02839 0.89335 0.0
C1194 C 0.95779 0.0362 0.91606 0.0
C1195 C 0.99459 0.04359 0.90981 0.0
C1196 C 0.93773 0.05606 0.94455 0.0
C1197 C 0.90645 0.02467 0.94368 0.0
N1198 N 0.97613 0.04699 0.92065 0.0
N1199 N 0.92305 0.02413 0.92972 0.0
H1200 H 0.36247 0.21638 0.27366 0.0
H1201 H 0.25338 0.16233 0.31275 0.0
H1202 H 0.31418 0.19112 0.23141 0.0
H1203 H 0.29091 0.20441 0.3525 0.0
H1204 H 0.28034 0.16545 0.28469 0.0
H1205 H 0.3406 0.20551 0.30437 0.0
C1206 C 0.34735 0.20843 0.27087 0.0
C1207 C 0.33996 0.20484 0.25003 0.0
C1208 C 0.28281 0.17378 0.29967 0.0
C1209 C 0.31515 0.19218 0.28488 0.0
C1210 C 0.26751 0.17189 0.31573 0.0
C1211 C 0.26981 0.18336 0.33484 0.0
C1212 C 0.30055 0.18717 0.30277 0.0
C1213 C 0.28845 0.19547 0.33789 0.0
C1214 C 0.33491 0.20223 0.28836 0.0
C1215 C 0.32033 0.1944 0.24724 0.0
N1216 N 0.30304 0.19725 0.3219 0.0
N1217 N 0.30858 0.18847 0.26447 0.0
H1218 H 0.0907 0.01803 0.57264 0.0
H1219 H 0.01052 0.10731 0.53423 0.0
H1220 H 0.03715 0.03946 0.61042 0.0
H1221 H 0.07163 0.09661 0.50417 0.0
H1222 H 0.02186 0.08525 0.56432 0.0
H1223 H 0.08621 0.04912 0.5494 0.0
C1224 C 0.07823 0.02948 0.57624 0.0
C1225 C 0.06408 0.02604 0.59326 0.0
C1226 C 0.03295 0.08801 0.55133 0.0
C1227 C 0.05867 0.06142 0.56666 0.0
C1228 C 0.02646 0.10061 0.53416 0.0
C1229 C 0.04006 0.10354 0.51661 0.0
C1230 C 0.05303 0.078 0.55075 0.0
C1231 C 0.0606 0.09461 0.51735 0.0
C1232 C 0.07568 0.04722 0.56299 0.0
C1233 C 0.04828 0.0414 0.59731 0.0
N1234 N 0.06633 0.08191 0.53398 0.0
N1235 N 0.04578 0.05824 0.5839 0.0
H1236 H 0.14641 0.82458 0.74007 0.0
H1237 H 0.22642 0.83959 0.81558 0.0
H1238 H 0.1424 0.76219 0.76913 0.0
H1239 H 0.19327 0.79191 0.85279 0.0
H1240 H 0.19898 0.83652 0.78803 0.0
H1241 H 0.16634 0.8374 0.7712 0.0
C1242 C 0.14957 0.81364 0.7531 0.0
C1243 C 0.14307 0.7922 0.75192 0.0
C1244 C 0.19728 0.82723 0.8025 0.0
C1245 C 0.16617 0.8066 0.78727 0.0
C1246 C 0.21304 0.82891 0.81821 0.0
C1247 C 0.2122 0.81585 0.83639 0.0
C1248 C 0.18069 0.81226 0.80501 0.0
C1249 C 0.1946 0.8022 0.83895 0.0
C1250 C 0.16113 0.82092 0.77075 0.0
C1251 C 0.14738 0.77876 0.76929 0.0
N1252 N 0.17977 0.80045 0.82323 0.0
N1253 N 0.15876 0.78616 0.7862 0.0
H1254 H 0.47406 0.87781 0.01906 0.0
H1255 H 0.41244 0.98102 0.06073 0.0
H1256 H 0.42795 0.91288 0.98178 0.0
H1257 H 0.45702 0.94516 0.09911 0.0
H1258 H 0.41371 0.95289 0.03369 0.0
H1259 H 0.464 0.89884 0.05048 0.0
C1260 C 0.46159 0.8897 0.01758 0.0
C1261 C 0.45204 0.89385 -0.00224 0.0
C1262 C 0.42301 0.95101 0.04815 0.0
C1263 C 0.44057 0.91804 0.03348 0.0
C1264 C 0.42225 0.96706 0.0636 0.0
C1265 C 0.43487 0.96553 0.08202 0.0
C1266 C 0.43664 0.93341 0.05107 0.0
C1267 C 0.44719 0.94705 0.08502 0.0
C1268 C 0.45587 0.90173 0.03549 0.0
C1269 C 0.4359 0.90935 0.99672 0.0
N1270 N 0.448 0.93184 0.06955 0.0
N1271 N 0.43087 0.92106 0.01426 0.0
H1272 H 0.36581 0.77834 0.22684 0.0
H1273 H 0.25575 0.82682 0.18369 0.0
H1274 H 0.31545 0.80266 0.26718 0.0
H1275 H 0.30084 0.79376 0.14333 0.0
H1276 H 0.28043 0.82325 0.21361 0.0
H1277 H 0.34477 0.78825 0.19534 0.0
C1278 C 0.35037 0.78582 0.22905 0.0
C1279 C 0.34225 0.78954 0.2496 0.0
C1280 C 0.28505 0.81696 0.19817 0.0
C1281 C 0.31828 0.80105 0.2138 0.0
C1282 C 0.27101 0.8191 0.18105 0.0
C1283 C 0.2762 0.81038 0.16108 0.0
C1284 C 0.30439 0.80597 0.19531 0.0
C1285 C 0.2962 0.80061 0.15852 0.0
C1286 C 0.3384 0.79149 0.2111 0.0
C1287 C 0.32222 0.79935 0.25161 0.0
N1288 N 0.30951 0.79846 0.17553 0.0
N1289 N 0.31091 0.80471 0.23394 0.0
H1290 H 0.46276 0.05536 0.39185 0.0
H1291 H 0.45275 0.06633 0.51828 0.0
H1292 H 0.43126 0.0091 0.43216 0.0
H1293 H 0.47777 0.11654 0.47816 0.0
H1294 H 0.44309 0.04611 0.48647 0.0
H1295 H 0.46608 0.07931 0.42259 0.0
C1296 C 0.45622 0.05041 0.4071 0.0
C1297 C 0.44691 0.03016 0.40955 0.0
C1298 C 0.45059 0.06159 0.48456 0.0
C1299 C 0.45092 0.05726 0.44476 0.0
C1300 C 0.45621 0.0731 0.50273 0.0
C1301 C 0.46624 0.09305 0.50082 0.0
C1302 C 0.45518 0.06998 0.46427 0.0
C1303 C 0.47017 0.10114 0.4803 0.0
C1304 C 0.45819 0.06404 0.42464 0.0
C1305 C 0.43868 0.02453 0.4296 0.0
N1306 N 0.46476 0.08949 0.46277 0.0
N1307 N 0.4411 0.03791 0.4465 0.0
H1308 H 0.1214 0.23073 0.71734 0.0
H1309 H 0.21847 0.16423 0.66783 0.0
H1310 H 0.15598 0.18194 0.75156 0.0
H1311 H 0.19025 0.21968 0.63824 0.0
H1312 H 0.1905 0.16518 0.69523 0.0
H1313 H 0.14124 0.22147 0.68496 0.0
C1314 C 0.13294 0.21785 0.71795 0.0
C1315 C 0.13731 0.2073 0.7372 0.0
C1316 C 0.19027 0.17694 0.68255 0.0
C1317 C 0.16013 0.19673 0.70034 0.0
C1318 C 0.20617 0.17636 0.66689 0.0
C1319 C 0.20682 0.1921 0.65098 0.0
C1320 C 0.17495 0.19335 0.68219 0.0
C1321 C 0.19049 0.20742 0.65043 0.0
C1322 C 0.14429 0.2126 0.69949 0.0
C1323 C 0.15231 0.19065 0.73708 0.0
N1324 N 0.17535 0.2078 0.66594 0.0
N1325 N 0.16338 0.18603 0.71899 0.0
H1326 H 0.03834 0.88053 0.97875 0.0
H1327 H 0.08306 0.99048 0.93125 0.0
H1328 H 0.05279 0.9362 0.01684 0.0
H1329 H 0.05285 0.94188 0.89271 0.0
H1330 H 0.07968 0.96723 0.96244 0.0
H1331 H 0.05035 0.89979 0.94685 0.0
C1332 C 0.04412 0.89677 0.9804 0.0
C1333 C 0.04436 0.90691 0.00038 0.0
C1334 C 0.07407 0.96154 0.94709 0.0
C1335 C 0.05831 0.92886 0.96413 0.0
C1336 C 0.07615 0.97473 0.92926 0.0
C1337 C 0.06798 0.96817 0.90945 0.0
C1338 C 0.06383 0.94167 0.94505 0.0
C1339 C 0.05918 0.94761 0.90776 0.0
C1340 C 0.051 0.90772 0.96222 0.0
C1341 C 0.05212 0.92789 0.00168 0.0
N1342 N 0.05712 0.93515 0.9254 0.0
N1343 N 0.05874 0.9382 0.98378 0.0
H1344 H 0.27333 0.36068 0.23087 0.0
H1345 H 0.32222 0.26881 0.15929 0.0
H1346 H 0.24692 0.3429 0.16972 0.0
H1347 H 0.35551 0.2971 0.21265 0.0
H1348 H 0.29628 0.298 0.16062 0.0
H1349 H 0.30525 0.33981 0.22269 0.0
C1350 C 0.2744 0.3526 0.21559 0.0
C1351 C 0.25741 0.35328 0.20105 0.0
C1352 C 0.30947 0.29802 0.1718 0.0
C1353 C 0.2937 0.32915 0.19167 0.0
C1354 C 0.32428 0.28137 0.17103 0.0
C1355 C 0.34083 0.2804 0.18608 0.0
C1356 C 0.31113 0.3136 0.1879 0.0
C1357 C 0.34284 0.29712 0.20089 0.0
C1358 C 0.29263 0.34071 0.2109 0.0
C1359 C 0.25964 0.34265 0.18143 0.0
N1360 N 0.32796 0.31285 0.20164 0.0
N1361 N 0.27732 0.33073 0.17744 0.0
H1362 H 0.74715 0.14545 0.82691 0.0
H1363 H 0.8583 0.19534 0.78883 0.0
H1364 H 0.77646 0.13278 0.76579 0.0
H1365 H 0.81909 0.22294 0.83839 0.0
H1366 H 0.83344 0.16532 0.78638 0.0
H1367 H 0.77839 0.16679 0.83701 0.0
C1368 C 0.76035 0.14679 0.81579 0.0
C1369 C 0.75915 0.13759 0.79538 0.0
C1370 C 0.83046 0.17778 0.79802 0.0
C1371 C 0.79479 0.16189 0.80682 0.0
C1372 C 0.84467 0.19488 0.7995 0.0
C1373 C 0.84054 0.21181 0.81362 0.0
C1374 C 0.81205 0.17757 0.81081 0.0
C1375 C 0.82272 0.21032 0.82713 0.0
C1376 C 0.7781 0.15904 0.82154 0.0
C1377 C 0.77668 0.13981 0.7816 0.0
N1378 N 0.80896 0.1936 0.82523 0.0
N1379 N 0.79371 0.1519 0.78751 0.0
H1380 H 0.0185 0.57362 0.07231 0.0
H1381 H 0.11951 0.52095 0.01431 0.0
H1382 H 0.05548 0.60569 0.02373 0.0
H1383 H 0.07038 0.48475 0.04646 0.0
H1384 H 0.10085 0.554 0.02394 0.0
H1385 H 0.04259 0.54292 0.06974 0.0
C1386 C 0.03194 0.57436 0.06143 0.0
C1387 C 0.03491 0.59206 0.04803 0.0
C1388 C 0.09426 0.53881 0.02899 0.0
C1389 C 0.06233 0.5571 0.04493 0.0
C1390 C 0.10488 0.51999 0.0235 0.0
C1391 C 0.0963 0.50014 0.0294 0.0
C1392 C 0.07511 0.53772 0.04064 0.0
C1393 C 0.07738 0.49975 0.04139 0.0
C1394 C 0.04557 0.55681 0.05986 0.0
C1395 C 0.05254 0.59223 0.03419 0.0
N1396 N 0.06737 0.51827 0.04658 0.0
N1397 N 0.06551 0.57491 0.03286 0.0
H1398 H 0.67758 0.76207 0.33434 0.0
H1399 H 0.71711 0.87456 0.28883 0.0
H1400 H 0.63922 0.80399 0.2954 0.0
H1401 H 0.75898 0.82746 0.31667 0.0
H1402 H 0.68638 0.85271 0.29913 0.0
H1403 H 0.70529 0.78973 0.33599 0.0
C1404 C 0.67482 0.77725 0.32652 0.0
C1405 C 0.65629 0.78067 0.31443 0.0
C1406 C 0.70228 0.8473 0.30324 0.0
C1407 C 0.6878 0.8122 0.31614 0.0
C1408 C 0.71981 0.85978 0.29739 0.0
C1409 C 0.74059 0.8526 0.30159 0.0
C1410 C 0.70561 0.82752 0.31332 0.0
C1411 C 0.7432 0.83342 0.31287 0.0
C1412 C 0.69065 0.79298 0.32738 0.0
C1413 C 0.65344 0.80061 0.30463 0.0
N1414 N 0.72591 0.82139 0.31813 0.0
N1415 N 0.66914 0.81554 0.30551 0.0
H1416 H 0.87388 0.95855 0.02045 0.0
H1417 H 0.97656 0.92731 0.08877 0.0
H1418 H 0.90548 0.00081 0.06485 0.0
H1419 H 0.94892 0.88696 0.04013 0.0
H1420 H 0.94571 0.95104 0.08607 0.0
H1421 H 0.89621 0.92911 0.03321 0.0
C1422 C 0.88524 0.96153 0.03315 0.0
C1423 C 0.88812 0.98218 0.04136 0.0
C1424 C 0.94622 0.93682 0.07622 0.0
C1425 C 0.91376 0.94873 0.05591 0.0
C1426 C 0.9638 0.92324 0.0778 0.0
C1427 C 0.96544 0.90537 0.06439 0.0
C1428 C 0.93025 0.93254 0.06102 0.0
C1429 C 0.94839 0.90075 0.05058 0.0
C1430 C 0.89802 0.94475 0.0404 0.0
C1431 C 0.90298 0.98517 0.05787 0.0
N1432 N 0.93164 0.91444 0.04901 0.0
N1433 N 0.91543 0.9687 0.06441 0.0
H1434 H 0.21557 0.62217 0.7301 0.0
H1435 H 0.18128 0.72683 0.66594 0.0
H1436 H 0.25754 0.65786 0.68863 0.0
H1437 H 0.1396 0.69337 0.70953 0.0
H1438 H 0.20735 0.69805 0.66938 0.0
H1439 H 0.18567 0.64445 0.7183 0.0
C1440 C 0.21842 0.6345 0.71831 0.0
C1441 C 0.23907 0.6384 0.71054 0.0
C1442 C 0.1924 0.69684 0.678 0.0
C1443 C 0.2051 0.66394 0.69705 0.0
C1444 C 0.17749 0.71326 0.676 0.0
C1445 C 0.15841 0.71259 0.68769 0.0
C1446 C 0.18824 0.67973 0.69192 0.0
C1447 C 0.15423 0.69458 0.70038 0.0
C1448 C 0.20138 0.64723 0.7116 0.0
C1449 C 0.2419 0.6545 0.69522 0.0
N1450 N 0.16916 0.67897 0.70238 0.0
N1451 N 0.22515 0.66681 0.68913 0.0
H1452 H 0.04905 0.39586 0.45741 0.0
H1453 H 0.06046 0.52227 0.44697 0.0
H1454 H 0.00237 0.43632 0.42689 0.0
H1455 H 0.11077 0.48195 0.47128 0.0
H1456 H 0.03987 0.49052 0.43781 0.0
H1457 H 0.07314 0.42653 0.46031 0.0
C1458 C 0.04402 0.41112 0.451 0.0
C1459 C 0.02363 0.41364 0.44207 0.0
C1460 C 0.05545 0.48855 0.44505 0.0
C1461 C 0.0509 0.44877 0.44561 0.0
C1462 C 0.06718 0.50669 0.45037 0.0
C1463 C 0.08726 0.5047 0.46004 0.0
C1464 C 0.06378 0.46823 0.44958 0.0
C1465 C 0.09528 0.48415 0.46393 0.0
C1466 C 0.05774 0.42863 0.45273 0.0
C1467 C 0.01791 0.43372 0.43401 0.0
N1468 N 0.08343 0.46667 0.45882 0.0
N1469 N 0.03138 0.45057 0.43619 0.0
H1470 H 0.4425 0.60469 0.95205 0.0
H1471 H 0.42804 0.47962 0.94272 0.0
H1472 H 0.48246 0.56504 0.91223 0.0
H1473 H 0.378 0.52066 0.96644 0.0
H1474 H 0.44758 0.51107 0.93047 0.0
H1475 H 0.41748 0.57489 0.9559 0.0
C1476 C 0.44577 0.58985 0.94374 0.0
C1477 C 0.46468 0.58722 0.932 0.0
C1478 C 0.43223 0.51323 0.93816 0.0
C1479 C 0.43642 0.55301 0.9367 0.0
C1480 C 0.42114 0.49529 0.94529 0.0
C1481 C 0.4015 0.49761 0.95579 0.0
C1482 C 0.42378 0.53368 0.94185 0.0
C1483 C 0.39318 0.51823 0.95851 0.0
C1484 C 0.43151 0.57284 0.94599 0.0
C1485 C 0.46812 0.56771 0.92153 0.0
N1486 N 0.4045 0.53553 0.95181 0.0
N1487 N 0.45432 0.55121 0.92444 0.0
H1488 H 0.73362 0.77409 0.86296 0.0
H1489 H 0.65892 0.82054 0.77244 0.0
H1490 H 0.6737 0.74493 0.84523 0.0
H1491 H 0.71107 0.85602 0.80034 0.0
H1492 H 0.66173 0.79444 0.80138 0.0
H1493 H 0.72371 0.80593 0.84271 0.0
C1494 C 0.71824 0.77453 0.85505 0.0
C1495 C 0.70457 0.7568 0.85553 0.0
C1496 C 0.67231 0.80813 0.80138 0.0
C1497 C 0.69322 0.79299 0.8321 0.0
C1498 C 0.6707 0.82303 0.78487 0.0
C1499 C 0.68498 0.84027 0.78386 0.0
C1500 C 0.68851 0.81039 0.81678 0.0
C1501 C 0.69988 0.84282 0.80041 0.0
C1502 C 0.71256 0.79271 0.8435 0.0
C1503 C 0.68477 0.75823 0.84512 0.0
N1504 N 0.70148 0.82784 0.816 0.0
N1505 N 0.67983 0.77589 0.83353 0.0
H1506 H 0.47261 0.48622 0.11122 0.0
H1507 H 0.42097 0.40894 0.02527 0.0
H1508 H 0.49868 0.42443 0.09525 0.0
H1509 H 0.38976 0.46565 0.04901 0.0
H1510 H 0.44732 0.41201 0.0539 0.0
H1511 H 0.44006 0.47702 0.09173 0.0
C1512 C 0.47135 0.4706 0.10385 0.0
C1513 C 0.48844 0.45617 0.10457 0.0
C1514 C 0.43451 0.42359 0.05308 0.0
C1515 C 0.45141 0.44561 0.08207 0.0
C1516 C 0.41945 0.42182 0.03674 0.0
C1517 C 0.40337 0.43724 0.03461 0.0
C1518 C 0.43359 0.44105 0.06718 0.0
C1519 C 0.40205 0.45353 0.04996 0.0
C1520 C 0.45276 0.46534 0.09274 0.0
C1521 C 0.48594 0.4361 0.09489 0.0
N1522 N 0.41718 0.45521 0.0654 0.0
N1523 N 0.46789 0.43153 0.08377 0.0
H1524 H 0.7797 0.21665 0.36538 0.0
H1525 H 0.8346 0.17957 0.25601 0.0
H1526 H 0.80637 0.25958 0.31846 0.0
H1527 H 0.79511 0.13824 0.29461 0.0
H1528 H 0.83164 0.20728 0.28338 0.0
H1529 H 0.7917 0.18626 0.34367 0.0
C1530 C 0.7882 0.21965 0.3506 0.0
C1531 C 0.79181 0.24061 0.34353 0.0
C1532 C 0.82388 0.19203 0.28601 0.0
C1533 C 0.80573 0.2061 0.31886 0.0
C1534 C 0.8257 0.17616 0.27046 0.0
C1535 C 0.81482 0.15672 0.27293 0.0
C1536 C 0.81111 0.18841 0.30411 0.0
C1537 C 0.80355 0.15312 0.29199 0.0
C1538 C 0.79505 0.20235 0.33826 0.0
C1539 C 0.80301 0.24366 0.32436 0.0
N1540 N 0.80175 0.16893 0.30675 0.0
N1541 N 0.80949 0.22661 0.31265 0.0
H1542 H 0.02332 0.53596 0.61831 0.0
H1543 H 0.06083 0.59066 0.50908 0.0
H1544 H 0.98115 0.55237 0.56636 0.0
H1545 H 0.10353 0.55545 0.55011 0.0
H1546 H 0.0322 0.58549 0.53515 0.0
H1547 H 0.05343 0.55076 0.59791 0.0
C1548 C 0.02041 0.54278 0.60269 0.0
C1549 C -0.00017 0.5427 0.59384 0.0
C1550 C 0.04795 0.57922 0.5386 0.0
C1551 C 0.03391 0.55992 0.57074 0.0
C1552 C 0.06434 0.58233 0.52383 0.0
C1553 C 0.08447 0.57318 0.52732 0.0
C1554 C 0.05179 0.56697 0.55699 0.0
C1555 C 0.08814 0.56255 0.54671 0.0
C1556 C 0.03753 0.55124 0.59111 0.0
C1557 C 0.99683 0.55185 0.57362 0.0
N1558 N 0.07185 0.55948 0.56074 0.0
N1559 N 0.01369 0.56005 0.56274 0.0
H1560 H 0.72747 0.22299 0.63218 0.0
H1561 H 0.67129 0.18033 0.73882 0.0
H1562 H 0.69319 0.26273 0.67692 0.0
H1563 H 0.71385 0.14193 0.70049 0.0
H1564 H 0.6741 0.20897 0.71253 0.0
H1565 H 0.71812 0.19157 0.65368 0.0
C1566 C 0.71788 0.22506 0.64644 0.0
C1567 C 0.71127 0.24545 0.65295 0.0
C1568 C 0.68267 0.1942 0.70975 0.0
C1569 C 0.70045 0.20977 0.67742 0.0
C1570 C 0.681 0.17783 0.7247 0.0
C1571 C 0.69256 0.15887 0.72192 0.0
C1572 C 0.69606 0.19163 0.69191 0.0
C1573 C 0.70481 0.15639 0.7033 0.0
C1574 C 0.71255 0.20717 0.65868 0.0
C1575 C 0.69881 0.2473 0.67147 0.0
N1576 N 0.70643 0.17271 0.68907 0.0
N1577 N 0.69387 0.22971 0.68309 0.0
H1578 H 0.07043 0.40818 0.96895 0.0
H1579 H 0.02031 0.48455 0.88241 0.0
H1580 H 0.10539 0.46005 0.93988 0.0
H1581 H 0.99293 0.42318 0.89788 0.0
H1582 H 0.05289 0.47439 0.90128 0.0
H1583 H 0.04327 0.41138 0.94104 0.0
C1584 C 0.07259 0.41996 0.95646 0.0
C1585 C 0.09 0.43407 0.95687 0.0
C1586 C 0.0399 0.46299 0.90027 0.0
C1587 C 0.05891 0.43806 0.92517 0.0
C1588 C 0.02129 0.46882 0.88955 0.0
C1589 C 0.00386 0.45477 0.88882 0.0
C1590 C 0.04093 0.44312 0.91066 0.0
C1591 C 0.00599 0.43453 0.8982 0.0
C1592 C 0.05709 0.4218 0.94054 0.0
C1593 C 0.0921 0.44898 0.94027 0.0
N1594 N 0.02407 0.42943 0.90906 0.0
N1595 N 0.07653 0.45083 0.9253 0.0
H1596 H 0.77553 0.85684 0.20216 0.0
H1597 H 0.80242 0.73587 0.17682 0.0
H1598 H 0.82424 0.82155 0.23572 0.0
H1599 H 0.76693 0.7759 0.1334 0.0
H1600 H 0.81128 0.76734 0.19808 0.0
H1601 H 0.77319 0.82805 0.17592 0.0
C1602 C 0.78596 0.84314 0.20381 0.0
C1603 C 0.79996 0.84143 0.22121 0.0
C1604 C 0.80171 0.7693 0.18381 0.0
C1605 C 0.79712 0.80832 0.19148 0.0
C1606 C 0.79654 0.75133 0.17174 0.0
C1607 C 0.78375 0.75331 0.15346 0.0
C1608 C 0.7938 0.78937 0.17772 0.0
C1609 C 0.77674 0.7737 0.14747 0.0
C1610 C 0.78462 0.82672 0.18883 0.0
C1611 C 0.8132 0.82344 0.22255 0.0
N1612 N 0.78167 0.79095 0.15972 0.0
N1613 N 0.81122 0.80739 0.20804 0.0
H1614 H 0.42663 0.57739 0.48433 0.0
H1615 H 0.46719 0.51767 0.37881 0.0
H1616 H 0.38543 0.54123 0.44247 0.0
H1617 H 0.50893 0.54436 0.42679 0.0
H1618 H 0.4364 0.53175 0.39844 0.0
H1619 H 0.45613 0.57197 0.45925 0.0
C1620 C 0.42366 0.56877 0.46961 0.0
C1621 C 0.40368 0.55948 0.46558 0.0
C1622 C 0.45231 0.53461 0.4046 0.0
C1623 C 0.43733 0.5529 0.43708 0.0
C1624 C 0.46986 0.52652 0.39345 0.0
C1625 C 0.49058 0.52963 0.40136 0.0
C1626 C 0.45557 0.54596 0.4237 0.0
C1627 C 0.49318 0.54138 0.42028 0.0
C1628 C 0.44054 0.56551 0.45539 0.0
C1629 C 0.40069 0.54845 0.44628 0.0
N1630 N 0.47588 0.54904 0.43085 0.0
N1631 N 0.41742 0.54522 0.43287 0.0
H1632 H 0.75679 0.67116 0.81069 0.0
H1633 H 0.86703 0.72254 0.77101 0.0
H1634 H 0.79899 0.70674 0.85206 0.0
H1635 H 0.81806 0.69789 0.72917 0.0
H1636 H 0.8455 0.7115 0.80188 0.0
H1637 H 0.78271 0.67481 0.78177 0.0
C1638 C 0.77167 0.67946 0.81377 0.0
C1639 C 0.77566 0.68888 0.83369 0.0
C1640 C 0.83957 0.7084 0.78592 0.0
C1641 C 0.80526 0.69336 0.80063 0.0
C1642 C 0.85183 0.7147 0.76835 0.0
C1643 C 0.84417 0.71132 0.74757 0.0
C1644 C 0.81967 0.69854 0.7826 0.0
C1645 C 0.82445 0.70101 0.74494 0.0
C1646 C 0.78642 0.68163 0.79723 0.0
C1647 C 0.79524 0.69938 0.83686 0.0
N1648 N 0.81286 0.69505 0.76225 0.0
N1649 N 0.80925 0.70154 0.82041 0.0
H1650 H 0.54039 0.54912 0.10299 0.0
H1651 H 0.55169 0.56782 0.97793 0.0
H1652 H 0.57496 0.50713 0.06061 0.0
H1653 H 0.52512 0.61518 0.02042 0.0
H1654 H 0.56254 0.54673 0.0087 0.0
H1655 H 0.53727 0.57514 0.07397 0.0
C1656 C 0.54765 0.54555 0.08769 0.0
C1657 C 0.55772 0.52586 0.08408 0.0
C1658 C 0.55449 0.5618 0.01138 0.0
C1659 C 0.55399 0.55532 0.05084 0.0
C1660 C 0.5482 0.57381 0.99379 0.0
C1661 C 0.53729 0.59314 0.99667 0.0
C1662 C 0.54961 0.56902 0.03206 0.0
C1663 C 0.53339 0.60027 0.01756 0.0
C1664 C 0.54582 0.56037 0.07113 0.0
C1665 C 0.56689 0.52204 0.06401 0.0
N1666 N 0.53935 0.58807 0.03451 0.0
N1667 N 0.56457 0.53652 0.04807 0.0
H1668 H 0.62725 0.27099 0.27561 0.0
H1669 H 0.73118 0.32989 0.3211 0.0
H1670 H 0.66893 0.31118 0.23814 0.0
H1671 H 0.69745 0.28026 0.35512 0.0
H1672 H 0.70369 0.32899 0.29342 0.0
H1673 H 0.64838 0.27962 0.30747 0.0
C1674 C 0.6407 0.28179 0.27415 0.0
C1675 C 0.64656 0.29017 0.25422 0.0
C1676 C 0.70216 0.31848 0.30708 0.0
C1677 C 0.67063 0.30017 0.29042 0.0
C1678 C 0.71779 0.31906 0.32293 0.0
C1679 C 0.71672 0.30491 0.34024 0.0
C1680 C 0.68537 0.30363 0.30857 0.0
C1681 C 0.69897 0.29129 0.34188 0.0
C1682 C 0.65274 0.2867 0.29229 0.0
C1683 C 0.66404 0.30416 0.25318 0.0
N1684 N 0.6841 0.2908 0.3261 0.0
N1685 N 0.67554 0.30862 0.271 0.0
H1686 H 0.96419 0.44526 0.61067 0.0
H1687 H 0.92333 0.39643 0.5002 0.0
H1688 H 0.91261 0.47217 0.57375 0.0
H1689 H 0.98495 0.38338 0.52816 0.0
H1690 H 0.91371 0.41704 0.53206 0.0
H1691 H 0.96602 0.41538 0.58564 0.0
C1692 C 0.95299 0.44469 0.5975 0.0
C1693 C 0.93848 0.46138 0.59402 0.0
C1694 C 0.92919 0.40936 0.53134 0.0
C1695 C 0.94057 0.42733 0.56533 0.0
C1696 C 0.93467 0.39755 0.51323 0.0
C1697 C 0.95509 0.38849 0.51148 0.0
C1698 C 0.9442 0.41193 0.5478 0.0
C1699 C 0.96914 0.39036 0.52879 0.0
C1700 C 0.95409 0.42766 0.5832 0.0
C1701 C 0.92421 0.45974 0.57683 0.0
N1702 N 0.96351 0.40205 0.54617 0.0
N1703 N 0.92579 0.44312 0.56292 0.0
H1704 H 0.87113 0.28835 0.72817 0.0
H1705 H 0.80288 0.29346 0.63993 0.0
H1706 H 0.81177 0.29426 0.76275 0.0
H1707 H 0.7622 0.33106 0.68098 0.0
H1708 H 0.82835 0.28977 0.66926 0.0
H1709 H 0.85277 0.29982 0.69553 0.0
C1710 C 0.85424 0.29206 0.72886 0.0
C1711 C 0.84283 0.29006 0.74806 0.0
C1712 C 0.8142 0.2994 0.67167 0.0
C1713 C 0.82182 0.30304 0.71097 0.0
C1714 C 0.79961 0.30145 0.65494 0.0
C1715 C 0.78036 0.31245 0.65811 0.0
C1716 C 0.80931 0.30826 0.69171 0.0
C1717 C 0.77684 0.32239 0.67788 0.0
C1718 C 0.84377 0.29848 0.71024 0.0
C1719 C 0.82107 0.29529 0.7482 0.0
N1720 N 0.79097 0.31967 0.69409 0.0
N1721 N 0.81127 0.30156 0.72993 0.0
H1722 H 0.91773 0.51039 0.93335 0.0
H1723 H 0.97186 0.62193 0.96336 0.0
H1724 H 0.95122 0.55012 0.88802 0.0
H1725 H 0.939 0.58146 0.00851 0.0
H1726 H 0.95975 0.5986 0.93437 0.0
H1727 H 0.92045 0.539 0.95979 0.0
C1728 C 0.92537 0.52526 0.92888 0.0
C1729 C 0.93451 0.52781 0.90859 0.0
C1730 C 0.95498 0.59497 0.95059 0.0
C1731 C 0.93791 0.56051 0.93878 0.0
C1732 C 0.96187 0.60829 0.96712 0.0
C1733 C 0.95665 0.60343 0.98835 0.0
C1734 C 0.94286 0.57666 0.95539 0.0
C1735 C 0.94359 0.58565 0.99237 0.0
C1736 C 0.92697 0.54158 0.94398 0.0
C1737 C 0.94413 0.54744 0.90357 0.0
N1738 N 0.93733 0.57279 0.97606 0.0
N1739 N 0.94582 0.56295 0.91866 0.0
H1740 H 0.67429 0.68964 0.26413 0.0
H1741 H 0.69316 0.69909 0.13877 0.0
H1742 H 0.63015 0.72017 0.22093 0.0
H1743 H 0.73643 0.66671 0.18147 0.0
H1744 H 0.66725 0.70198 0.16775 0.0
H1745 H 0.69493 0.67698 0.23353 0.0
C1746 C 0.66889 0.69359 0.24818 0.0
C1747 C 0.65065 0.70619 0.24503 0.0
C1748 C 0.68226 0.69393 0.17073 0.0
C1749 C 0.67415 0.69173 0.20994 0.0
C1750 C 0.69702 0.69217 0.15415 0.0
C1751 C 0.71706 0.6829 0.15784 0.0
C1752 C 0.6877 0.68656 0.1912 0.0
C1753 C 0.7212 0.6741 0.178 0.0
C1754 C 0.68064 0.68628 0.23071 0.0
C1755 C 0.64424 0.71066 0.22405 0.0
N1756 N 0.70676 0.67647 0.19406 0.0
N1757 N 0.6561 0.70359 0.20729 0.0
H1758 H 0.58351 0.47508 0.42654 0.0
H1759 H 0.52732 0.3716 0.47507 0.0
H1760 H 0.53908 0.43524 0.39195 0.0
H1761 H 0.56793 0.41419 0.51106 0.0
H1762 H 0.5375 0.39033 0.44231 0.0
H1763 H 0.58428 0.44852 0.45519 0.0
C1764 C 0.57427 0.46054 0.42478 0.0
C1765 C 0.56092 0.4575 0.40707 0.0
C1766 C 0.54441 0.39539 0.45734 0.0
C1767 C 0.5615 0.42723 0.43979 0.0
C1768 C 0.53861 0.38469 0.47602 0.0
C1769 C 0.54652 0.39161 0.4958 0.0
C1770 C 0.55814 0.41316 0.45851 0.0
C1771 C 0.56122 0.40854 0.49614 0.0
C1772 C 0.57464 0.44542 0.44117 0.0
C1773 C 0.54935 0.43835 0.40552 0.0
N1774 N 0.56636 0.41891 0.47781 0.0
N1775 N 0.54966 0.42407 0.42182 0.0
H1776 H 0.77034 0.87069 0.71406 0.0
H1777 H 0.81682 0.7645 0.66052 0.0
H1778 H 0.73186 0.81698 0.69424 0.0
H1779 H 0.85423 0.80513 0.70187 0.0
H1780 H 0.7869 0.78932 0.6639 0.0
H1781 H 0.80236 0.85175 0.70159 0.0
C1782 C 0.76864 0.855 0.70693 0.0
C1783 C 0.74853 0.84521 0.7054 0.0
C1784 C 0.80179 0.79296 0.67194 0.0
C1785 C 0.7848 0.82379 0.69086 0.0
C1786 C 0.81891 0.7789 0.6699 0.0
C1787 C 0.83789 0.78263 0.68121 0.0
C1788 C 0.80374 0.81091 0.68526 0.0
C1789 C 0.83976 0.80157 0.69309 0.0
C1790 C 0.78686 0.84426 0.69983 0.0
C1791 C 0.74712 0.82494 0.69597 0.0
N1792 N 0.82276 0.81492 0.69502 0.0
N1793 N 0.76503 0.81488 0.68908 0.0
H1794 H 0.23767 0.67028 0.31289 0.0
H1795 H 0.32289 0.73254 0.34342 0.0
H1796 H 0.28338 0.62838 0.28282 0.0
H1797 H 0.35601 0.7002 0.29233 0.0
H1798 H 0.29564 0.70462 0.34289 0.0
H1799 H 0.26679 0.69232 0.32595 0.0
C1800 C 0.25393 0.66547 0.30943 0.0
C1801 C 0.25813 0.6476 0.2966 0.0
C1802 C 0.30876 0.70363 0.33169 0.0
C1803 C 0.29184 0.67263 0.31186 0.0
C1804 C 0.3245 0.71944 0.33221 0.0
C1805 C 0.34145 0.71892 0.31757 0.0
C1806 C 0.30986 0.6874 0.31616 0.0
C1807 C 0.343 0.7014 0.30366 0.0
C1808 C 0.27067 0.67799 0.31712 0.0
C1809 C 0.27947 0.6421 0.29261 0.0
N1810 N 0.32722 0.6865 0.30309 0.0
N1811 N 0.29554 0.65479 0.29992 0.0
H1812 H 0.51068 0.06537 0.59152 0.0
H1813 H 0.61801 0.01921 0.53989 0.0
H1814 H 0.5553 0.10362 0.55541 0.0
H1815 H 0.56541 0.98043 0.56194 0.0
H1816 H 0.59944 0.0511 0.55308 0.0
H1817 H 0.53535 0.03518 0.5892 0.0
C1818 C 0.5259 0.06758 0.58358 0.0
C1819 C 0.53083 0.08689 0.57334 0.0
C1820 C 0.59209 0.03557 0.55521 0.0
C1821 C 0.55891 0.05241 0.57035 0.0
C1822 C 0.60265 0.01741 0.54767 0.0
C1823 C 0.59305 0.99724 0.54956 0.0
C1824 C 0.57191 0.03345 0.56482 0.0
C1825 C 0.57322 0.99573 0.55989 0.0
C1826 C 0.5399 0.0503 0.58211 0.0
C1827 C 0.55078 0.08889 0.56329 0.0
N1828 N 0.56325 0.01361 0.56703 0.0
N1829 N 0.56399 0.07176 0.56178 0.0
H1830 H 0.232 0.35839 0.76199 0.0
H1831 H 0.17286 0.26948 0.83139 0.0
H1832 H 0.25838 0.33136 0.81962 0.0
H1833 H 0.14523 0.29969 0.77597 0.0
H1834 H 0.20238 0.29513 0.83009 0.0
H1835 H 0.19829 0.34011 0.76933 0.0
C1836 C 0.23061 0.34877 0.77631 0.0
C1837 C 0.24804 0.34616 0.79009 0.0
C1838 C 0.18971 0.29633 0.81839 0.0
C1839 C 0.20962 0.32507 0.79854 0.0
C1840 C 0.17284 0.28172 0.81916 0.0
C1841 C 0.15676 0.28233 0.8036 0.0
C1842 C 0.19049 0.3115 0.80185 0.0
C1843 C 0.15744 0.29854 0.78815 0.0
C1844 C 0.21136 0.33834 0.78051 0.0
C1845 C 0.24536 0.33364 0.80849 0.0
N1846 N 0.17417 0.31232 0.78751 0.0
N1847 N 0.22657 0.32336 0.81206 0.0
H1848 H 0.37829 0.46954 0.51535 0.0
H1849 H 0.47937 0.42805 0.58166 0.0
H1850 H 0.4193 0.5099 0.55341 0.0
H1851 H 0.45004 0.39163 0.53095 0.0
H1852 H 0.45222 0.45568 0.577 0.0
H1853 H 0.39983 0.4385 0.52592 0.0
C1854 C 0.39173 0.47182 0.52601 0.0
C1855 C 0.39721 0.49227 0.53334 0.0
C1856 C 0.45159 0.44152 0.56705 0.0
C1857 C 0.4216 0.45707 0.54563 0.0
C1858 C 0.46701 0.42572 0.56978 0.0
C1859 C 0.46707 0.4077 0.55649 0.0
C1860 C 0.43614 0.43925 0.55094 0.0
C1861 C 0.45065 0.40542 0.5414 0.0
C1862 C 0.40398 0.45416 0.53203 0.0
C1863 C 0.41468 0.49442 0.54719 0.0
N1864 N 0.43592 0.42114 0.53888 0.0
N1865 N 0.42628 0.47704 0.55285 0.0
H1866 H 0.6399 0.1989 0.2108 0.0
H1867 H 0.7628 0.17886 0.18703 0.0
H1868 H 0.6769 0.23646 0.16633 0.0
H1869 H 0.72348 0.13309 0.22045 0.0
H1870 H 0.73092 0.19937 0.1783 0.0
H1871 H 0.66935 0.17333 0.21303 0.0
C1872 C 0.65407 0.20155 0.20121 0.0
C1873 C 0.65611 0.21992 0.18854 0.0
C1874 C 0.72919 0.18477 0.1874 0.0
C1875 C 0.68988 0.191 0.19127 0.0
C1876 C 0.7474 0.17312 0.19251 0.0
C1877 C 0.74574 0.15439 0.20464 0.0
C1878 C 0.70915 0.17778 0.19471 0.0
C1879 C 0.72541 0.14754 0.21115 0.0
C1880 C 0.67088 0.18698 0.20253 0.0
C1881 C 0.67475 0.22258 0.17642 0.0
N1882 N 0.70788 0.15937 0.20627 0.0
N1883 N 0.69104 0.20843 0.17831 0.0
H1884 H 0.60613 0.98127 0.98284 0.0
H1885 H 0.51896 0.92688 0.90798 0.0
H1886 H 0.58598 0.00831 0.92275 0.0
H1887 H 0.54618 0.89637 0.96344 0.0
H1888 H 0.54565 0.95533 0.91108 0.0
H1889 H 0.5865 0.94864 0.9743 0.0
C1890 C 0.59773 0.98024 0.96775 0.0
C1891 C 0.59748 -0.00245 0.95357 0.0
C1892 C 0.54597 0.94226 0.92238 0.0
C1893 C 0.57483 0.96036 0.94374 0.0
C1894 C 0.53077 0.92601 0.92059 0.0
C1895 C 0.53024 0.90941 0.93562 0.0
C1896 C 0.56058 0.94194 0.93943 0.0
C1897 C 0.54591 0.90899 0.95162 0.0
C1898 C 0.58654 0.9616 0.96286 0.0
C1899 C 0.58646 0.99535 0.93418 0.0
N1900 N 0.56028 0.92516 0.95326 0.0
N1901 N 0.57535 0.97717 0.92994 0.0
H1902 H 0.94328 0.10209 0.46949 0.0
H1903 H 0.92206 0.97698 0.4582 0.0
H1904 H 0.98447 0.05874 0.43516 0.0
H1905 H 0.87825 0.0198 0.48984 0.0
H1906 H 0.94339 0.00751 0.44702 0.0
H1907 H 0.91731 0.07318 0.47402 0.0
C1908 C 0.94669 0.08658 0.4626 0.0
C1909 C 0.96613 0.08269 0.45214 0.0
C1910 C 0.92907 0.01032 0.45631 0.0
C1911 C 0.9367 0.04958 0.45747 0.0
C1912 C 0.91691 0.99286 0.46277 0.0
C1913 C 0.89849 0.99589 0.47515 0.0
C1914 C 0.92289 0.031 0.4624 0.0
C1915 C 0.89244 0.0168 0.48042 0.0
C1916 C 0.9319 0.07007 0.46526 0.0
C1917 C 0.96975 0.06236 0.44349 0.0
N1918 N 0.90474 0.03361 0.47416 0.0
N1919 N 0.95527 0.0465 0.44655 0.0
H1920 H 0.04928 0.14331 0.39032 0.0
H1921 H 0.17562 0.12862 0.38691 0.0
H1922 H 0.08385 0.09889 0.43006 0.0
H1923 H 0.1412 0.18198 0.36022 0.0
H1924 H 0.14142 0.11069 0.39398 0.0
H1925 H 0.08198 0.15006 0.37011 0.0
C1926 C 0.06364 0.13462 0.39449 0.0
C1927 C 0.06403 0.12091 0.41218 0.0
C1928 C 0.14143 0.12615 0.38621 0.0
C1929 C 0.10147 0.12875 0.38936 0.0
C1930 C 0.16089 0.13633 0.38214 0.0
C1931 C 0.16109 0.15694 0.37338 0.0
C1932 C 0.12221 0.13665 0.38128 0.0
C1933 C 0.14166 0.16625 0.36739 0.0
C1934 C 0.08231 0.13853 0.383 0.0
C1935 C 0.08299 0.10988 0.41674 0.0
N1936 N 0.12298 0.15613 0.37166 0.0
N1937 N 0.10111 0.11433 0.40564 0.0
H1938 H 0.0771 0.89726 0.59444 0.0
H1939 H 0.1559 0.83019 0.66611 0.0
H1940 H 0.12497 0.92532 0.6353 0.0
H1941 H 0.10576 0.80339 0.62709 0.0
H1942 H 0.15196 0.86415 0.64727 0.0
H1943 H 0.09448 0.86265 0.59821 0.0
C1944 C 0.09155 0.89616 0.6039 0.0
C1945 C 0.09938 0.91398 0.61499 0.0
C1946 C 0.14216 0.8507 0.64249 0.0
C1947 C 0.1191 0.87436 0.61977 0.0
C1948 C 0.14444 0.83128 0.6532 0.0
C1949 C 0.13074 0.81416 0.64849 0.0
C1950 C 0.126 0.85294 0.6271 0.0
C1951 C 0.11635 0.81635 0.6315 0.0
C1952 C 0.10148 0.8764 0.60605 0.0
C1953 C 0.11832 0.91184 0.62672 0.0
N1954 N 0.11407 0.83554 0.62168 0.0
N1955 N 0.12729 0.89222 0.62923 0.0
H1956 H 0.43867 0.84258 0.87928 0.0
H1957 H 0.31366 0.8676 0.87957 0.0
H1958 H 0.41054 0.89619 0.91228 0.0
H1959 H 0.342 0.80767 0.86073 0.0
H1960 H 0.34964 0.88308 0.88271 0.0
H1961 H 0.40407 0.835 0.8629 0.0
C1962 C 0.42532 0.85304 0.8827 0.0
C1963 C 0.42732 0.86976 0.89748 0.0
C1964 C 0.3479 0.86664 0.87756 0.0
C1965 C 0.38769 0.86102 0.87908 0.0
C1966 C 0.32743 0.85785 0.87575 0.0
C1967 C 0.32499 0.83627 0.87028 0.0
C1968 C 0.36587 0.85375 0.87365 0.0
C1969 C 0.34326 0.82429 0.86539 0.0
C1970 C 0.40556 0.84866 0.87343 0.0
C1971 C 0.40957 0.88293 0.9012 0.0
N1972 N 0.36293 0.83314 0.86736 0.0
N1973 N 0.39036 0.87807 0.89235 0.0
H1974 H 0.36163 0.14896 0.19007 0.0
H1975 H 0.4151 0.08548 0.09572 0.0
H1976 H 0.38238 0.17965 0.13197 0.0
H1977 H 0.38301 0.05544 0.14884 0.0
H1978 H 0.39845 0.11947 0.10538 0.0
H1979 H 0.36466 0.11435 0.17259 0.0
C1980 C 0.36665 0.14837 0.17351 0.0
C1981 C 0.37213 0.16707 0.16251 0.0
C1982 C 0.39467 0.10535 0.11464 0.0
C1983 C 0.37594 0.12747 0.14242 0.0
C1984 C 0.40413 0.08593 0.1091 0.0
C1985 C 0.40076 0.06775 0.12179 0.0
C1986 C 0.38196 0.10655 0.1331 0.0
C1987 C 0.3863 0.06916 0.13882 0.0
C1988 C 0.36829 0.12861 0.16348 0.0
C1989 C 0.3782 0.16551 0.14101 0.0
N1990 N 0.37775 0.08833 0.14423 0.0
N1991 N 0.38036 0.14595 0.13174 0.0
H1992 H 0.16026 0.82225 0.14653 0.0
H1993 H 0.09542 0.90083 0.07271 0.0
H1994 H 0.18915 0.86615 0.10188 0.0
H1995 H 0.06609 0.85895 0.11892 0.0
H1996 H 0.13003 0.89458 0.08937 0.0
H1997 H 0.12645 0.84132 0.14292 0.0
C1998 C 0.15958 0.83617 0.13627 0.0
C1999 C 0.17735 0.84237 0.12409 0.0
C2000 C 0.11601 0.88704 0.09617 0.0
C2001 C 0.13872 0.86408 0.1197 0.0
C2002 C 0.09624 0.89062 0.08666 0.0
C2003 C 0.07802 0.88001 0.09421 0.0
C2004 C 0.1176 0.87243 0.1131 0.0
C2005 C 0.07985 0.86722 0.11248 0.0
C2006 C 0.14027 0.84705 0.13422 0.0
C2007 C 0.17571 0.86064 0.11129 0.0
N2008 N 0.09942 0.8634 0.12105 0.0
N2009 N 0.15659 0.87063 0.10912 0.0
H2010 H 0.39238 0.94517 0.34144 0.0
H2011 H 0.38903 0.82015 0.36632 0.0
H2012 H 0.43005 0.91492 0.39057 0.0
H2013 H 0.36392 0.84966 0.30937 0.0
H2014 H 0.39597 0.85583 0.38117 0.0
H2015 H 0.3735 0.91147 0.33572 0.0
C2016 C 0.3964 0.93154 0.3513 0.0
C2017 C 0.41306 0.93268 0.3662 0.0
C2018 C 0.38859 0.85444 0.36558 0.0
C2019 C 0.39172 0.89408 0.35961 0.0
C2020 C 0.38459 0.83414 0.35716 0.0
C2021 C 0.37626 0.83207 0.33648 0.0
C2022 C 0.38406 0.87264 0.35324 0.0
C2023 C 0.37071 0.85061 0.32525 0.0
C2024 C 0.38567 0.91229 0.34799 0.0
C2025 C 0.41749 0.9146 0.37869 0.0
N2026 N 0.3749 0.87012 0.33368 0.0
N2027 N 0.4071 0.89591 0.37489 0.0
H2028 H 0.42453 0.13127 0.61144 0.0
H2029 H 0.31028 0.1647 0.56731 0.0
H2030 H 0.40648 0.13203 0.54491 0.0
H2031 H 0.32227 0.15673 0.63464 0.0
H2032 H 0.34476 0.14877 0.55944 0.0
H2033 H 0.38683 0.13705 0.62117 0.0
C2034 C 0.41262 0.13242 0.59894 0.0
C2035 C 0.41861 0.13157 0.57735 0.0
C2036 C 0.33989 0.1502 0.57599 0.0
C2037 C 0.37581 0.138 0.58824 0.0
C2038 C 0.32017 0.15929 0.58044 0.0
C2039 C 0.31363 0.16213 0.60161 0.0
C2040 C 0.35348 0.14435 0.59285 0.0
C2041 C 0.32688 0.15474 0.61809 0.0
C2042 C 0.39117 0.13567 0.60448 0.0
C2043 C 0.40264 0.13299 0.56176 0.0
N2044 N 0.34647 0.1465 0.61338 0.0
N2045 N 0.38207 0.13628 0.56751 0.0
H2046 H 0.08363 0.18908 0.85218 0.0
H2047 H 0.11369 0.06497 0.8557 0.0
H2048 H 0.14073 0.1635 0.8232 0.0
H2049 H 0.05037 0.09054 0.86492 0.0
H2050 H 0.12746 0.10166 0.85225 0.0
H2051 H 0.07548 0.1537 0.86645 0.0
C2052 C 0.09469 0.17611 0.8492 0.0
C2053 C 0.11267 0.17909 0.83619 0.0
C2054 C 0.1106 0.09915 0.85525 0.0
C2055 C 0.10331 0.13859 0.8522 0.0
C2056 C 0.10277 0.0783 0.8572 0.0
C2057 C 0.08085 0.07482 0.86026 0.0
C2058 C 0.0964 0.11647 0.85673 0.0
C2059 C 0.06734 0.09255 0.86222 0.0
C2060 C 0.08997 0.1559 0.85724 0.0
C2061 C 0.12655 0.16178 0.83296 0.0
N2062 N 0.07532 0.1126 0.86035 0.0
N2063 N 0.12142 0.14213 0.84066 0.0
H2064 H 0.17186 0.34873 0.15148 0.0
H2065 H 0.10544 0.43307 0.08579 0.0
H2066 H 0.13452 0.3992 0.17997 0.0
H2067 H 0.13781 0.37967 0.05666 0.0
H2068 H 0.11 0.41652 0.12068 0.0
H2069 H 0.15387 0.35509 0.11745 0.0
C2070 C 0.15954 0.36086 0.15068 0.0
C2071 C 0.15497 0.3738 0.16841 0.0
C2072 C 0.11583 0.40818 0.10669 0.0
C2073 C 0.13455 0.38131 0.12954 0.0
C2074 C 0.11326 0.41766 0.08676 0.0
C2075 C 0.12164 0.40787 0.06845 0.0
C2076 C 0.12728 0.38898 0.10837 0.0
C2077 C 0.13132 0.3878 0.07048 0.0
C2078 C 0.14929 0.36449 0.13123 0.0
C2079 C 0.13875 0.38909 0.16658 0.0
N2080 N 0.13428 0.37918 0.0902 0.0
N2081 N 0.1294 0.39269 0.14737 0.0
H2082 H 0.63251 0.10271 0.80955 0.0
H2083 H 0.64179 0.12189 0.93311 0.0
H2084 H 0.67437 0.14967 0.83784 0.0
H2085 H 0.59413 0.08127 0.9042 0.0
H2086 H 0.64839 0.13826 0.89832 0.0
H2087 H 0.61291 0.10047 0.84322 0.0
C2088 C 0.6373 0.11287 0.82273 0.0
C2089 C 0.65536 0.12602 0.82111 0.0
C2090 C 0.63615 0.1261 0.89964 0.0
C2091 C 0.63328 0.12333 0.85975 0.0
C2092 C 0.63235 0.11679 0.91953 0.0
C2093 C 0.61778 0.09986 0.92139 0.0
C2094 C 0.62551 0.11816 0.88151 0.0
C2095 C 0.60581 0.09402 0.90336 0.0
C2096 C 0.62611 0.1116 0.84197 0.0
C2097 C 0.66073 0.13904 0.83855 0.0
N2098 N 0.61027 0.10283 0.88406 0.0
N2099 N 0.65002 0.13704 0.85731 0.0
H2100 H 0.82973 0.92875 0.3216 0.0
H2101 H 0.86161 0.88651 0.43756 0.0
H2102 H 0.83536 0.86161 0.33587 0.0
H2103 H 0.853 0.95261 0.41994 0.0
H2104 H 0.8571 0.87641 0.39977 0.0
H2105 H 0.84438 0.93724 0.35652 0.0
C2106 C 0.83437 0.91579 0.33209 0.0
C2107 C 0.83117 0.8945 0.32608 0.0
C2108 C 0.8564 0.89311 0.40425 0.0
C2109 C 0.84738 0.90401 0.36641 0.0
C2110 C 0.85891 0.89885 0.42575 0.0
C2111 C 0.85732 0.92037 0.43186 0.0
C2112 C 0.85247 0.90908 0.38896 0.0
C2113 C 0.85399 0.93579 0.416 0.0
C2114 C 0.84268 0.9206 0.35207 0.0
C2115 C 0.83761 0.87825 0.34007 0.0
N2116 N 0.85159 0.92983 0.39537 0.0
N2117 N 0.84508 0.88333 0.35987 0.0
H2118 H 0.80172 0.13238 0.14381 0.0
H2119 H 0.88985 0.07683 0.07035 0.0
H2120 H 0.86049 0.10705 0.1693 0.0
H2121 H 0.82335 0.08459 0.05416 0.0
H2122 H 0.88361 0.09693 0.10362 0.0
H2123 H 0.81436 0.12482 0.10783 0.0
C2124 C 0.81745 0.12547 0.14178 0.0
C2125 C 0.82992 0.11989 0.15949 0.0
C2126 C 0.87054 0.09451 0.09255 0.0
C2127 C 0.84436 0.11091 0.11837 0.0
C2128 C 0.87409 0.08317 0.07361 0.0
C2129 C 0.85699 0.07891 0.05976 0.0
C2130 C 0.84987 0.10184 0.09728 0.0
C2131 C 0.83687 0.08733 0.0646 0.0
C2132 C 0.82465 0.12115 0.12125 0.0
C2133 C 0.85033 0.11136 0.15599 0.0
N2134 N 0.83385 0.0983 0.08301 0.0
N2135 N 0.85683 0.10673 0.13574 0.0
H2136 H 0.36037 0.60372 0.57241 0.0
H2137 H 0.32168 0.56147 0.68541 0.0
H2138 H 0.35861 0.53736 0.59108 0.0
H2139 H 0.33686 0.62793 0.67532 0.0
H2140 H 0.3374 0.55287 0.651 0.0
H2141 H 0.35405 0.61385 0.60996 0.0
C2142 C 0.35893 0.59135 0.58443 0.0
C2143 C 0.35956 0.5697 0.57867 0.0
C2144 C 0.33758 0.56935 0.65628 0.0
C2145 C 0.35247 0.58102 0.62121 0.0
C2146 C 0.32855 0.57423 0.67593 0.0
C2147 C 0.32788 0.59541 0.68301 0.0
C2148 C 0.34559 0.58584 0.64331 0.0
C2149 C 0.33713 0.61138 0.67028 0.0
C2150 C 0.35537 0.59711 0.60578 0.0
C2151 C 0.35778 0.55426 0.59476 0.0
N2152 N 0.34533 0.60632 0.65076 0.0
N2153 N 0.35414 0.56022 0.61519 0.0
H2154 H 0.16479 0.64578 0.32315 0.0
H2155 H 0.11126 0.55846 0.39915 0.0
H2156 H 0.1601 0.57836 0.3097 0.0
H2157 H 0.13579 0.61821 0.42334 0.0
H2158 H 0.11886 0.5703 0.36292 0.0
H2159 H 0.1448 0.64 0.35662 0.0
C2160 C 0.15911 0.62989 0.32703 0.0
C2161 C 0.16418 0.61244 0.31392 0.0
C2162 C 0.12235 0.58097 0.3761 0.0
C2163 C 0.1414 0.60583 0.3516 0.0
C2164 C 0.11802 0.57423 0.39678 0.0
C2165 C 0.12336 0.58722 0.41422 0.0
C2166 C 0.13233 0.60076 0.37279 0.0
C2167 C 0.13168 0.60766 0.41026 0.0
C2168 C 0.14785 0.62661 0.34608 0.0
C2169 C 0.15667 0.59216 0.31956 0.0
N2170 N 0.1363 0.61372 0.38987 0.0
N2171 N 0.14573 0.5894 0.33802 0.0
H2172 H 0.36464 0.37621 0.93727 0.0
H2173 H 0.37332 0.38881 0.81091 0.0
H2174 H 0.38731 0.43228 0.90421 0.0
H2175 H 0.33328 0.34214 0.84216 0.0
H2176 H 0.38945 0.39746 0.84538 0.0
H2177 H 0.36338 0.35708 0.90296 0.0
C2178 C 0.36974 0.38432 0.92286 0.0
C2179 C 0.37564 0.40592 0.92337 0.0
C2180 C 0.37746 0.38499 0.84461 0.0
C2181 C 0.37452 0.38427 0.88446 0.0
C2182 C 0.36833 0.37998 0.82493 0.0
C2183 C 0.35158 0.36515 0.82383 0.0
C2184 C 0.3697 0.37514 0.86323 0.0
C2185 C 0.34588 0.35401 0.84244 0.0
C2186 C 0.36902 0.37344 0.90335 0.0
C2187 C 0.38223 0.41574 0.90437 0.0
N2188 N 0.35464 0.35953 0.8615 0.0
N2189 N 0.38131 0.40489 0.88564 0.0
H2190 H 0.5624 0.63545 0.87913 0.0
H2191 H 0.68812 0.63395 0.90038 0.0
H2192 H 0.59248 0.61754 0.93846 0.0
H2193 H 0.65869 0.66973 0.84937 0.0
H2194 H 0.65359 0.61758 0.90828 0.0
H2195 H 0.59795 0.63861 0.86264 0.0
C2196 C 0.57647 0.63188 0.88855 0.0
C2197 C 0.57465 0.62664 0.91024 0.0
C2198 C 0.65478 0.62871 0.89509 0.0
C2199 C 0.61499 0.62988 0.89158 0.0
C2200 C 0.6745 0.63797 0.89051 0.0
C2201 C 0.67612 0.65356 0.87453 0.0
C2202 C 0.6366 0.63516 0.88365 0.0
C2203 C 0.65802 0.65802 0.86208 0.0
C2204 C 0.59667 0.63367 0.87917 0.0
C2205 C 0.59326 0.62203 0.92177 0.0
N2206 N 0.63886 0.64915 0.86715 0.0
N2207 N 0.61266 0.62389 0.91234 0.0
H2208 H 0.60802 0.31304 0.13137 0.0
H2209 H 0.61444 0.43937 0.14519 0.0
H2210 H 0.63089 0.34613 0.18736 0.0
H2211 H 0.57504 0.40781 0.09818 0.0
H2212 H 0.63137 0.40519 0.15327 0.0
H2213 H 0.60598 0.34744 0.11253 0.0
C2214 C 0.61296 0.3275 0.13953 0.0
C2215 C 0.61916 0.32695 0.16103 0.0
C2216 C 0.61934 0.40583 0.14085 0.0
C2217 C 0.61718 0.36596 0.1397 0.0
C2218 C 0.60974 0.42535 0.13617 0.0
C2219 C 0.59293 0.42625 0.12143 0.0
C2220 C 0.61196 0.38717 0.13079 0.0
C2221 C 0.58767 0.40767 0.11 0.0
C2222 C 0.61181 0.34705 0.12881 0.0
C2223 C 0.62557 0.346 0.17091 0.0
N2224 N 0.59684 0.38874 0.11524 0.0
N2225 N 0.62423 0.36476 0.16022 0.0
H2226 H 0.84624 0.29944 0.36746 0.0
H2227 H 0.90854 0.39231 0.42373 0.0
H2228 H 0.81536 0.35815 0.38606 0.0
H2229 H 0.93957 0.34104 0.38961 0.0
H2230 H 0.87491 0.3831 0.40613 0.0
H2231 H 0.88088 0.31667 0.37157 0.0
C2232 C 0.84681 0.31608 0.37222 0.0
C2233 C 0.82804 0.32734 0.37679 0.0
C2234 C 0.88917 0.37417 0.40213 0.0
C2235 C 0.86762 0.34713 0.38182 0.0
C2236 C 0.90837 0.37942 0.41216 0.0
C2237 C 0.92671 0.3671 0.40844 0.0
C2238 C 0.88834 0.35632 0.38855 0.0
C2239 C 0.9257 0.35074 0.39318 0.0
C2240 C 0.86658 0.32597 0.37446 0.0
C2241 C 0.82957 0.34893 0.38257 0.0
N2242 N 0.90672 0.34555 0.3841 0.0
N2243 N 0.8491 0.35805 0.38536 0.0
H2244 H 0.86564 0.65542 0.68726 0.0
H2245 H 0.93339 0.59204 0.60626 0.0
H2246 H 0.89045 0.686 0.6307 0.0
H2247 H 0.88372 0.56102 0.6426 0.0
H2248 H 0.91646 0.62653 0.61306 0.0
H2249 H 0.8704 0.62065 0.67018 0.0
C2250 C 0.87186 0.65477 0.67111 0.0
C2251 C 0.878 0.67347 0.66043 0.0
C2252 C 0.90895 0.61216 0.61912 0.0
C2253 C 0.88369 0.63386 0.64095 0.0
C2254 C 0.91863 0.59251 0.61531 0.0
C2255 C 0.91001 0.57384 0.62414 0.0
C2256 C 0.89091 0.61311 0.63238 0.0
C2257 C 0.89085 0.57516 0.63561 0.0
C2258 C 0.87441 0.63496 0.66132 0.0
C2259 C 0.8857 0.67187 0.63948 0.0
N2260 N 0.88217 0.59461 0.63989 0.0
N2261 N 0.88879 0.65231 0.63054 0.0
H2262 H 0.58705 0.39859 0.58169 0.0
H2263 H 0.65356 0.30743 0.63603 0.0
H2264 H 0.55893 0.34623 0.61666 0.0
H2265 H 0.6825 0.36453 0.61048 0.0
H2266 H 0.61877 0.32469 0.63466 0.0
H2267 H 0.62156 0.39049 0.59791 0.0
C2268 C 0.58803 0.38572 0.59322 0.0
C2269 C 0.57028 0.3727 0.59746 0.0
C2270 C 0.6327 0.33364 0.62961 0.0
C2271 C 0.6097 0.36314 0.61575 0.0
C2272 C 0.65256 0.32373 0.63028 0.0
C2273 C 0.67077 0.33447 0.62292 0.0
C2274 C 0.63097 0.3543 0.62107 0.0
C2275 C 0.66873 0.35566 0.61604 0.0
C2276 C 0.60776 0.38108 0.60244 0.0
C2277 C 0.57233 0.35644 0.61268 0.0
N2278 N 0.64905 0.36479 0.61487 0.0
N2279 N 0.59183 0.35181 0.62094 0.0
H2280 H 0.84802 0.34191 0.81758 0.0
H2281 H 0.91769 0.40908 0.899 0.0
H2282 H 0.88595 0.3135 0.86753 0.0
H2283 H 0.87958 0.43639 0.84852 0.0
H2284 H 0.8999 0.37474 0.89332 0.0
H2285 H 0.85285 0.37682 0.83416 0.0
C2286 C 0.8571 0.34301 0.83227 0.0
C2287 C 0.86695 0.32492 0.84102 0.0
C2288 C 0.89512 0.38835 0.88377 0.0
C2289 C 0.8729 0.36489 0.85989 0.0
C2290 C 0.90523 0.40797 0.88705 0.0
C2291 C 0.90038 0.42546 0.8739 0.0
C2292 C 0.88019 0.38624 0.86716 0.0
C2293 C 0.88403 0.42321 0.85878 0.0
C2294 C 0.85986 0.36295 0.84175 0.0
C2295 C 0.87827 0.32714 0.86021 0.0
N2296 N 0.87477 0.40385 0.85559 0.0
N2297 N 0.88132 0.34688 0.8688 0.0
H2298 H 0.82321 0.64192 0.1131 0.0
H2299 H 0.93521 0.68307 0.07107 0.0
H2300 H 0.84301 0.708 0.11282 0.0
H2301 H 0.92498 0.61667 0.08636 0.0
H2302 H 0.90159 0.69196 0.08827 0.0
H2303 H 0.86033 0.63139 0.10534 0.0
C2304 C 0.83539 0.65413 0.11169 0.0
C2305 C 0.83004 0.67585 0.11317 0.0
C2306 C 0.90669 0.67543 0.08816 0.0
C2307 C 0.87213 0.66406 0.10442 0.0
C2308 C 0.92588 0.67038 0.07829 0.0
C2309 C 0.93268 0.64914 0.07723 0.0
C2310 C 0.89388 0.65905 0.09662 0.0
C2311 C 0.92016 0.63327 0.08693 0.0
C2312 C 0.85651 0.64815 0.10731 0.0
C2313 C 0.84636 0.69108 0.11137 0.0
N2314 N 0.90106 0.63849 0.09596 0.0
N2315 N 0.86656 0.68491 0.1069 0.0
H2316 H 0.57085 0.67097 0.30691 0.0
H2317 H 0.60007 0.56531 0.37064 0.0
H2318 H 0.6269 0.66857 0.34695 0.0
H2319 H 0.53737 0.58061 0.34639 0.0
H2320 H 0.61176 0.60194 0.36186 0.0
H2321 H 0.5598 0.6365 0.32054 0.0
C2322 C 0.58083 0.66314 0.31868 0.0
C2323 C 0.59983 0.67254 0.32578 0.0
C2324 C 0.59542 0.5972 0.3587 0.0
C2325 C 0.58731 0.63281 0.34149 0.0
C2326 C 0.58879 0.57637 0.36363 0.0
C2327 C 0.56782 0.56989 0.35897 0.0
C2328 C 0.58095 0.61133 0.34899 0.0
C2329 C 0.55375 0.5848 0.35003 0.0
C2330 C 0.57447 0.64346 0.32655 0.0
C2331 C 0.61208 0.66177 0.34116 0.0
N2332 N 0.56062 0.6047 0.34522 0.0
N2333 N 0.60571 0.64224 0.34842 0.0
H2334 H 0.59241 0.91603 0.59205 0.0
H2335 H 0.68276 0.85634 0.65389 0.0
H2336 H 0.63994 0.87699 0.56098 0.0
H2337 H 0.62748 0.88265 0.68548 0.0
H2338 H 0.66413 0.85865 0.61982 0.0
H2339 H 0.60087 0.89883 0.62599 0.0
C2340 C 0.60425 0.90342 0.5923 0.0
C2341 C 0.61585 0.89822 0.57383 0.0
C2342 C 0.65585 0.86359 0.63419 0.0
C2343 C 0.62592 0.87882 0.61261 0.0
C2344 C 0.66655 0.86238 0.65364 0.0
C2345 C 0.65674 0.86972 0.67238 0.0
C2346 C 0.63538 0.8727 0.63341 0.0
C2347 C 0.63563 0.87705 0.67129 0.0
C2348 C 0.6091 0.89361 0.61168 0.0
C2349 C 0.63082 0.88164 0.57493 0.0
N2350 N 0.62578 0.87879 0.65201 0.0
N2351 N 0.6358 0.87287 0.59413 0.0
loop_
_geom_bond_atom_site_label_1
_geom_bond_atom_site_label_2
_geom_bond_distance
_geom_bond_site_symmetry_2
_ccdc_geom_bond_type
In0 O1 2.294 . S
In0 O2 2.326 . S
In0 O6 2.266 . S
In0 O7 2.326 . S
In0 O8 2.266 . S
In0 O9 2.326 . S
In0 O11 2.294 . S
In0 O12 2.326 . S
O1 In0 2.294 . S
O1 C10 1.240 . S
O2 In0 2.326 . S
O2 C10 1.252 . S
C3 O6 1.252 . S
C3 O7 1.260 . S
C4 O11 1.240 . S
C4 O12 1.252 . S
C5 O8 1.252 . S
C5 O9 1.260 . S
O6 In0 2.266 . S
O6 C3 1.252 . S
O7 In0 2.326 . S
O7 C3 1.260 . S
O8 In0 2.266 . S
O8 C5 1.252 . S
O9 In0 2.326 . S
O9 C5 1.260 . S
C10 O1 1.240 . S
C10 O2 1.252 . S
O11 In0 2.294 . S
O11 C4 1.240 . S
O12 In0 2.326 . S
O12 C4 1.252 . S
In13 O14 2.294 . S
In13 O15 2.326 . S
In13 O19 2.266 . S
In13 O20 2.326 1_565 S
In13 O21 2.266 1_455 S
In13 O22 2.326 . S
In13 O24 2.294 . S
In13 O25 2.326 . S
O14 In13 2.294 . S
O14 C23 1.240 . S
O15 In13 2.326 . S
O15 C23 1.252 . S
C16 O19 1.252 1_545 S
C16 O20 1.260 . S
C17 O24 1.240 . S
C17 O25 1.252 . S
C18 O21 1.252 1_455 S
C18 O22 1.260 . S
O19 In13 2.266 . S
O19 C16 1.252 1_565 S
O20 In13 2.326 1_545 S
O20 C16 1.260 . S
O21 In13 2.266 1_655 S
O21 C18 1.252 1_655 S
O22 In13 2.326 . S
O22 C18 1.260 . S
C23 O14 1.240 . S
C23 O15 1.252 . S
O24 In13 2.294 . S
O24 C17 1.240 . S
O25 In13 2.326 . S
O25 C17 1.252 . S
In26 O27 2.294 . S
In26 O28 2.326 . S
In26 O32 2.266 . S
In26 O33 2.326 . S
In26 O34 2.266 . S
In26 O35 2.326 . S
In26 O37 2.294 . S
In26 O38 2.326 . S
O27 In26 2.294 . S
O27 C36 1.240 . S
O28 In26 2.326 . S
O28 C36 1.252 . S
C29 O32 1.252 . S
C29 O33 1.260 . S
C30 O37 1.240 . S
C30 O38 1.252 . S
C31 O34 1.252 . S
C31 O35 1.260 . S
O32 In26 2.266 . S
O32 C29 1.252 . S
O33 In26 2.326 . S
O33 C29 1.260 . S
O34 In26 2.266 . S
O34 C31 1.252 . S
O35 In26 2.326 . S
O35 C31 1.260 . S
C36 O27 1.240 . S
C36 O28 1.252 . S
O37 In26 2.294 . S
O37 C30 1.240 . S
O38 In26 2.326 . S
O38 C30 1.252 . S
In39 O40 2.294 . S
In39 O41 2.326 . S
In39 O45 2.266 . S
In39 O46 2.326 1_545 S
In39 O47 2.266 . S
In39 O48 2.326 . S
In39 O50 2.294 . S
In39 O51 2.326 . S
O40 In39 2.294 . S
O40 C49 1.240 . S
O41 In39 2.326 . S
O41 C49 1.252 . S
C42 O45 1.252 1_565 S
C42 O46 1.260 . S
C43 O50 1.240 . S
C43 O51 1.252 . S
C44 O47 1.252 . S
C44 O48 1.260 . S
O45 In39 2.266 . S
O45 C42 1.252 1_545 S
O46 In39 2.326 1_565 S
O46 C42 1.260 . S
O47 In39 2.266 . S
O47 C44 1.252 . S
O48 In39 2.326 . S
O48 C44 1.260 . S
C49 O40 1.240 . S
C49 O41 1.252 . S
O50 In39 2.294 . S
O50 C43 1.240 . S
O51 In39 2.326 . S
O51 C43 1.252 . S
In52 O53 2.294 . S
In52 O54 2.326 . S
In52 O58 2.266 . S
In52 O59 2.326 . S
In52 O60 2.266 . S
In52 O61 2.326 . S
In52 O63 2.294 . S
In52 O64 2.326 . S
O53 In52 2.294 . S
O53 C62 1.240 . S
O54 In52 2.326 . S
O54 C62 1.252 . S
C55 O58 1.252 . S
C55 O59 1.260 . S
C56 O63 1.240 . S
C56 O64 1.252 . S
C57 O60 1.252 . S
C57 O61 1.260 . S
O58 In52 2.266 . S
O58 C55 1.252 . S
O59 In52 2.326 . S
O59 C55 1.260 . S
O60 In52 2.266 . S
O60 C57 1.252 . S
O61 In52 2.326 . S
O61 C57 1.260 . S
C62 O53 1.240 . S
C62 O54 1.252 . S
O63 In52 2.294 . S
O63 C56 1.240 . S
O64 In52 2.326 . S
O64 C56 1.252 . S
In65 O66 2.294 . S
In65 O67 2.326 . S
In65 O71 2.266 . S
In65 O72 2.326 1_565 S
In65 O73 2.266 . S
In65 O74 2.326 . S
In65 O76 2.294 . S
In65 O77 2.326 . S
O66 In65 2.294 . S
O66 C75 1.240 . S
O67 In65 2.326 . S
O67 C75 1.252 . S
C68 O71 1.252 1_545 S
C68 O72 1.260 . S
C69 O76 1.240 . S
C69 O77 1.252 . S
C70 O73 1.252 . S
C70 O74 1.260 . S
O71 In65 2.266 . S
O71 C68 1.252 1_565 S
O72 In65 2.326 1_545 S
O72 C68 1.260 . S
O73 In65 2.266 . S
O73 C70 1.252 . S
O74 In65 2.326 . S
O74 C70 1.260 . S
C75 O66 1.240 . S
C75 O67 1.252 . S
O76 In65 2.294 . S
O76 C69 1.240 . S
O77 In65 2.326 . S
O77 C69 1.252 . S
In78 O79 2.294 . S
In78 O80 2.326 . S
In78 O84 2.266 . S
In78 O85 2.326 . S
In78 O86 2.266 . S
In78 O87 2.326 . S
In78 O89 2.294 . S
In78 O90 2.326 . S
O79 In78 2.294 . S
O79 C88 1.240 . S
O80 In78 2.326 . S
O80 C88 1.252 . S
C81 O84 1.252 . S
C81 O85 1.260 . S
C82 O89 1.240 . S
C82 O90 1.252 . S
C83 O86 1.252 . S
C83 O87 1.260 . S
O84 In78 2.266 . S
O84 C81 1.252 . S
O85 In78 2.326 . S
O85 C81 1.260 . S
O86 In78 2.266 . S
O86 C83 1.252 . S
O87 In78 2.326 . S
O87 C83 1.260 . S
C88 O79 1.240 . S
C88 O80 1.252 . S
O89 In78 2.294 . S
O89 C82 1.240 . S
O90 In78 2.326 . S
O90 C82 1.252 . S
In91 O92 2.294 . S
In91 O93 2.326 . S
In91 O97 2.266 1_455 S
In91 O98 2.326 . S
In91 O99 2.266 . S
In91 O100 2.326 1_545 S
In91 O102 2.294 . S
In91 O103 2.326 . S
O92 In91 2.294 . S
O92 C101 1.240 . S
O93 In91 2.326 . S
O93 C101 1.252 . S
C94 O97 1.252 1_455 S
C94 O98 1.260 . S
C95 O102 1.240 . S
C95 O103 1.252 . S
C96 O99 1.252 1_565 S
C96 O100 1.260 . S
O97 In91 2.266 1_655 S
O97 C94 1.252 1_655 S
O98 In91 2.326 . S
O98 C94 1.260 . S
O99 In91 2.266 . S
O99 C96 1.252 1_545 S
O100 In91 2.326 1_565 S
O100 C96 1.260 . S
C101 O92 1.240 . S
C101 O93 1.252 . S
O102 In91 2.294 . S
O102 C95 1.240 . S
O103 In91 2.326 . S
O103 C95 1.252 . S
In104 O105 2.294 . S
In104 O106 2.326 . S
In104 O110 2.266 . S
In104 O111 2.326 . S
In104 O112 2.266 . S
In104 O113 2.326 . S
In104 O115 2.294 . S
In104 O116 2.326 . S
O105 In104 2.294 . S
O105 C114 1.240 . S
O106 In104 2.326 . S
O106 C114 1.252 . S
C107 O110 1.252 . S
C107 O111 1.260 . S
C108 O115 1.240 . S
C108 O116 1.252 . S
C109 O112 1.252 . S
C109 O113 1.260 . S
O110 In104 2.266 . S
O110 C107 1.252 . S
O111 In104 2.326 . S
O111 C107 1.260 . S
O112 In104 2.266 . S
O112 C109 1.252 . S
O113 In104 2.326 . S
O113 C109 1.260 . S
C114 O105 1.240 . S
C114 O106 1.252 . S
O115 In104 2.294 . S
O115 C108 1.240 . S
O116 In104 2.326 . S
O116 C108 1.252 . S
In117 O118 2.294 . S
In117 O119 2.326 . S
In117 O123 2.266 . S
In117 O124 2.326 . S
In117 O125 2.266 . S
In117 O126 2.326 1_455 S
In117 O128 2.294 . S
In117 O129 2.326 . S
O118 In117 2.294 . S
O118 C127 1.240 . S
O119 In117 2.326 . S
O119 C127 1.252 . S
C120 O123 1.252 . S
C120 O124 1.260 . S
C121 O128 1.240 . S
C121 O129 1.252 . S
C122 O125 1.252 1_655 S
C122 O126 1.260 . S
O123 In117 2.266 . S
O123 C120 1.252 . S
O124 In117 2.326 . S
O124 C120 1.260 . S
O125 In117 2.266 . S
O125 C122 1.252 1_455 S
O126 In117 2.326 1_655 S
O126 C122 1.260 . S
C127 O118 1.240 . S
C127 O119 1.252 . S
O128 In117 2.294 . S
O128 C121 1.240 . S
O129 In117 2.326 . S
O129 C121 1.252 . S
In130 O131 2.294 . S
In130 O132 2.326 . S
In130 O136 2.266 . S
In130 O137 2.326 . S
In130 O138 2.266 . S
In130 O139 2.326 . S
In130 O141 2.294 . S
In130 O142 2.326 . S
O131 In130 2.294 . S
O131 C140 1.240 . S
O132 In130 2.326 . S
O132 C140 1.252 . S
C133 O136 1.252 . S
C133 O137 1.260 . S
C134 O141 1.240 . S
C134 O142 1.252 . S
C135 O138 1.252 . S
C135 O139 1.260 . S
O136 In130 2.266 . S
O136 C133 1.252 . S
O137 In130 2.326 . S
O137 C133 1.260 . S
O138 In130 2.266 . S
O138 C135 1.252 . S
O139 In130 2.326 . S
O139 C135 1.260 . S
C140 O131 1.240 . S
C140 O132 1.252 . S
O141 In130 2.294 . S
O141 C134 1.240 . S
O142 In130 2.326 . S
O142 C134 1.252 . S
In143 O144 2.294 . S
In143 O145 2.326 . S
In143 O149 2.266 . S
In143 O150 2.326 . S
In143 O151 2.266 1_556 S
In143 O152 2.326 . S
In143 O154 2.294 . S
In143 O155 2.326 . S
O144 In143 2.294 . S
O144 C153 1.240 . S
O145 In143 2.326 . S
O145 C153 1.252 . S
C146 O149 1.252 . S
C146 O150 1.260 . S
C147 O154 1.240 . S
C147 O155 1.252 . S
C148 O151 1.252 1_556 S
C148 O152 1.260 . S
O149 In143 2.266 . S
O149 C146 1.252 . S
O150 In143 2.326 . S
O150 C146 1.260 . S
O151 In143 2.266 1_554 S
O151 C148 1.252 1_554 S
O152 In143 2.326 . S
O152 C148 1.260 . S
C153 O144 1.240 . S
C153 O145 1.252 . S
O154 In143 2.294 . S
O154 C147 1.240 . S
O155 In143 2.326 . S
O155 C147 1.252 . S
In156 O157 2.294 . S
In156 O158 2.326 . S
In156 O162 2.266 . S
In156 O163 2.326 . S
In156 O164 2.266 . S
In156 O165 2.326 . S
In156 O167 2.294 . S
In156 O168 2.326 . S
O157 In156 2.294 . S
O157 C166 1.240 . S
O158 In156 2.326 . S
O158 C166 1.252 . S
C159 O162 1.252 . S
C159 O163 1.260 . S
C160 O167 1.240 . S
C160 O168 1.252 . S
C161 O164 1.252 . S
C161 O165 1.260 . S
O162 In156 2.266 . S
O162 C159 1.252 . S
O163 In156 2.326 . S
O163 C159 1.260 . S
O164 In156 2.266 . S
O164 C161 1.252 . S
O165 In156 2.326 . S
O165 C161 1.260 . S
C166 O157 1.240 . S
C166 O158 1.252 . S
O167 In156 2.294 . S
O167 C160 1.240 . S
O168 In156 2.326 . S
O168 C160 1.252 . S
In169 O170 2.294 . S
In169 O171 2.326 . S
In169 O175 2.266 . S
In169 O176 2.326 . S
In169 O177 2.266 . S
In169 O178 2.326 . S
In169 O180 2.294 . S
In169 O181 2.326 . S
O170 In169 2.294 . S
O170 C179 1.240 . S
O171 In169 2.326 . S
O171 C179 1.252 . S
C172 O175 1.252 . S
C172 O176 1.260 . S
C173 O180 1.240 . S
C173 O181 1.252 . S
C174 O177 1.252 . S
C174 O178 1.260 . S
O175 In169 2.266 . S
O175 C172 1.252 . S
O176 In169 2.326 . S
O176 C172 1.260 . S
O177 In169 2.266 . S
O177 C174 1.252 . S
O178 In169 2.326 . S
O178 C174 1.260 . S
C179 O170 1.240 . S
C179 O171 1.252 . S
O180 In169 2.294 . S
O180 C173 1.240 . S
O181 In169 2.326 . S
O181 C173 1.252 . S
In182 O183 2.294 . S
In182 O184 2.326 . S
In182 O188 2.266 . S
In182 O189 2.326 . S
In182 O190 2.266 . S
In182 O191 2.326 . S
In182 O193 2.294 . S
In182 O194 2.326 . S
O183 In182 2.294 . S
O183 C192 1.240 . S
O184 In182 2.326 . S
O184 C192 1.252 . S
C185 O188 1.252 . S
C185 O189 1.260 . S
C186 O193 1.240 . S
C186 O194 1.252 . S
C187 O190 1.252 . S
C187 O191 1.260 . S
O188 In182 2.266 . S
O188 C185 1.252 . S
O189 In182 2.326 . S
O189 C185 1.260 . S
O190 In182 2.266 . S
O190 C187 1.252 . S
O191 In182 2.326 . S
O191 C187 1.260 . S
C192 O183 1.240 . S
C192 O184 1.252 . S
O193 In182 2.294 . S
O193 C186 1.240 . S
O194 In182 2.326 . S
O194 C186 1.252 . S
In195 O196 2.294 . S
In195 O197 2.326 . S
In195 O201 2.266 . S
In195 O202 2.326 1_455 S
In195 O203 2.266 1_554 S
In195 O204 2.326 . S
In195 O206 2.294 . S
In195 O207 2.326 . S
O196 In195 2.294 . S
O196 C205 1.240 . S
O197 In195 2.326 . S
O197 C205 1.252 . S
C198 O201 1.252 1_655 S
C198 O202 1.260 . S
C199 O206 1.240 . S
C199 O207 1.252 . S
C200 O203 1.252 1_554 S
C200 O204 1.260 . S
O201 In195 2.266 . S
O201 C198 1.252 1_455 S
O202 In195 2.326 1_655 S
O202 C198 1.260 . S
O203 In195 2.266 1_556 S
O203 C200 1.252 1_556 S
O204 In195 2.326 . S
O204 C200 1.260 . S
C205 O196 1.240 . S
C205 O197 1.252 . S
O206 In195 2.294 . S
O206 C199 1.240 . S
O207 In195 2.326 . S
O207 C199 1.252 . S
In208 O209 2.294 . S
In208 O210 2.326 . S
In208 O214 2.266 . S
In208 O215 2.326 . S
In208 O216 2.266 . S
In208 O217 2.326 . S
In208 O219 2.294 . S
In208 O220 2.326 . S
O209 In208 2.294 . S
O209 C218 1.240 . S
O210 In208 2.326 . S
O210 C218 1.252 . S
C211 O214 1.252 . S
C211 O215 1.260 . S
C212 O219 1.240 . S
C212 O220 1.252 . S
C213 O216 1.252 . S
C213 O217 1.260 . S
O214 In208 2.266 . S
O214 C211 1.252 . S
O215 In208 2.326 . S
O215 C211 1.260 . S
O216 In208 2.266 . S
O216 C213 1.252 . S
O217 In208 2.326 . S
O217 C213 1.260 . S
C218 O209 1.240 . S
C218 O210 1.252 . S
O219 In208 2.294 . S
O219 C212 1.240 . S
O220 In208 2.326 . S
O220 C212 1.252 . S
In221 O222 2.294 . S
In221 O223 2.326 . S
In221 O227 2.266 . S
In221 O228 2.326 . S
In221 O229 2.266 . S
In221 O230 2.326 . S
In221 O232 2.294 . S
In221 O233 2.326 . S
O222 In221 2.294 . S
O222 C231 1.240 . S
O223 In221 2.326 . S
O223 C231 1.252 . S
C224 O227 1.252 . S
C224 O228 1.260 . S
C225 O232 1.240 . S
C225 O233 1.252 . S
C226 O229 1.252 . S
C226 O230 1.260 . S
O227 In221 2.266 . S
O227 C224 1.252 . S
O228 In221 2.326 . S
O228 C224 1.260 . S
O229 In221 2.266 . S
O229 C226 1.252 . S
O230 In221 2.326 . S
O230 C226 1.260 . S
C231 O222 1.240 . S
C231 O223 1.252 . S
O232 In221 2.294 . S
O232 C225 1.240 . S
O233 In221 2.326 . S
O233 C225 1.252 . S
In234 O235 2.294 . S
In234 O236 2.326 . S
In234 O240 2.266 . S
In234 O241 2.326 . S
In234 O242 2.266 . S
In234 O243 2.326 1_554 S
In234 O245 2.294 . S
In234 O246 2.326 . S
O235 In234 2.294 . S
O235 C244 1.240 . S
O236 In234 2.326 . S
O236 C244 1.252 . S
C237 O240 1.252 . S
C237 O241 1.260 . S
C238 O245 1.240 . S
C238 O246 1.252 . S
C239 O242 1.252 1_556 S
C239 O243 1.260 . S
O240 In234 2.266 . S
O240 C237 1.252 . S
O241 In234 2.326 . S
O241 C237 1.260 . S
O242 In234 2.266 . S
O242 C239 1.252 1_554 S
O243 In234 2.326 1_556 S
O243 C239 1.260 . S
C244 O235 1.240 . S
C244 O236 1.252 . S
O245 In234 2.294 . S
O245 C238 1.240 . S
O246 In234 2.326 . S
O246 C238 1.252 . S
In247 O248 2.294 . S
In247 O249 2.326 . S
In247 O253 2.266 . S
In247 O254 2.326 . S
In247 O255 2.266 . S
In247 O256 2.326 . S
In247 O258 2.294 . S
In247 O259 2.326 . S
O248 In247 2.294 . S
O248 C257 1.240 . S
O249 In247 2.326 . S
O249 C257 1.252 . S
C250 O253 1.252 . S
C250 O254 1.260 . S
C251 O258 1.240 . S
C251 O259 1.252 . S
C252 O255 1.252 . S
C252 O256 1.260 . S
O253 In247 2.266 . S
O253 C250 1.252 . S
O254 In247 2.326 . S
O254 C250 1.260 . S
O255 In247 2.266 . S
O255 C252 1.252 . S
O256 In247 2.326 . S
O256 C252 1.260 . S
C257 O248 1.240 . S
C257 O249 1.252 . S
O258 In247 2.294 . S
O258 C251 1.240 . S
O259 In247 2.326 . S
O259 C251 1.252 . S
In260 O261 2.294 . S
In260 O262 2.326 . S
In260 O266 2.266 1_545 S
In260 O267 2.326 . S
In260 O268 2.266 . S
In260 O269 2.326 1_554 S
In260 O271 2.294 . S
In260 O272 2.326 . S
O261 In260 2.294 . S
O261 C270 1.240 . S
O262 In260 2.326 . S
O262 C270 1.252 . S
C263 O266 1.252 1_545 S
C263 O267 1.260 . S
C264 O271 1.240 . S
C264 O272 1.252 . S
C265 O268 1.252 1_556 S
C265 O269 1.260 . S
O266 In260 2.266 1_565 S
O266 C263 1.252 1_565 S
O267 In260 2.326 . S
O267 C263 1.260 . S
O268 In260 2.266 . S
O268 C265 1.252 1_554 S
O269 In260 2.326 1_556 S
O269 C265 1.260 . S
C270 O261 1.240 . S
C270 O262 1.252 . S
O271 In260 2.294 . S
O271 C264 1.240 . S
O272 In260 2.326 . S
O272 C264 1.252 . S
In273 O274 2.294 . S
In273 O275 2.326 . S
In273 O279 2.266 . S
In273 O280 2.326 . S
In273 O281 2.266 . S
In273 O282 2.326 . S
In273 O284 2.294 . S
In273 O285 2.326 . S
O274 In273 2.294 . S
O274 C283 1.240 . S
O275 In273 2.326 . S
O275 C283 1.252 . S
C276 O279 1.252 . S
C276 O280 1.260 . S
C277 O284 1.240 . S
C277 O285 1.252 . S
C278 O281 1.252 . S
C278 O282 1.260 . S
O279 In273 2.266 . S
O279 C276 1.252 . S
O280 In273 2.326 . S
O280 C276 1.260 . S
O281 In273 2.266 . S
O281 C278 1.252 . S
O282 In273 2.326 . S
O282 C278 1.260 . S
C283 O274 1.240 . S
C283 O275 1.252 . S
O284 In273 2.294 . S
O284 C277 1.240 . S
O285 In273 2.326 . S
O285 C277 1.252 . S
In286 O287 2.294 . S
In286 O288 2.326 . S
In286 O292 2.266 . S
In286 O293 2.326 . S
In286 O294 2.266 . S
In286 O295 2.326 . S
In286 O297 2.294 . S
In286 O298 2.326 . S
O287 In286 2.294 . S
O287 C296 1.240 . S
O288 In286 2.326 . S
O288 C296 1.252 . S
C289 O292 1.252 . S
C289 O293 1.260 . S
C290 O297 1.240 . S
C290 O298 1.252 . S
C291 O294 1.252 . S
C291 O295 1.260 . S
O292 In286 2.266 . S
O292 C289 1.252 . S
O293 In286 2.326 . S
O293 C289 1.260 . S
O294 In286 2.266 . S
O294 C291 1.252 . S
O295 In286 2.326 . S
O295 C291 1.260 . S
C296 O287 1.240 . S
C296 O288 1.252 . S
O297 In286 2.294 . S
O297 C290 1.240 . S
O298 In286 2.326 . S
O298 C290 1.252 . S
In299 O300 2.294 . S
In299 O301 2.326 . S
In299 O305 2.266 . S
In299 O306 2.326 1_556 S
In299 O307 2.266 . S
In299 O308 2.326 . S
In299 O310 2.294 . S
In299 O311 2.326 . S
O300 In299 2.294 . S
O300 C309 1.240 . S
O301 In299 2.326 . S
O301 C309 1.252 . S
C302 O305 1.252 1_554 S
C302 O306 1.260 . S
C303 O310 1.240 . S
C303 O311 1.252 . S
C304 O307 1.252 . S
C304 O308 1.260 . S
O305 In299 2.266 . S
O305 C302 1.252 1_556 S
O306 In299 2.326 1_554 S
O306 C302 1.260 . S
O307 In299 2.266 . S
O307 C304 1.252 . S
O308 In299 2.326 . S
O308 C304 1.260 . S
C309 O300 1.240 . S
C309 O301 1.252 . S
O310 In299 2.294 . S
O310 C303 1.240 . S
O311 In299 2.326 . S
O311 C303 1.252 . S
In312 O313 2.294 . S
In312 O314 2.326 . S
In312 O318 2.266 . S
In312 O319 2.326 . S
In312 O320 2.266 . S
In312 O321 2.326 . S
In312 O323 2.294 . S
In312 O324 2.326 . S
O313 In312 2.294 . S
O313 C322 1.240 . S
O314 In312 2.326 . S
O314 C322 1.252 . S
C315 O318 1.252 . S
C315 O319 1.260 . S
C316 O323 1.240 . S
C316 O324 1.252 . S
C317 O320 1.252 . S
C317 O321 1.260 . S
O318 In312 2.266 . S
O318 C315 1.252 . S
O319 In312 2.326 . S
O319 C315 1.260 . S
O320 In312 2.266 . S
O320 C317 1.252 . S
O321 In312 2.326 . S
O321 C317 1.260 . S
C322 O313 1.240 . S
C322 O314 1.252 . S
O323 In312 2.294 . S
O323 C316 1.240 . S
O324 In312 2.326 . S
O324 C316 1.252 . S
In325 O326 2.294 . S
In325 O327 2.326 . S
In325 O331 2.266 . S
In325 O332 2.326 . S
In325 O333 2.266 . S
In325 O334 2.326 . S
In325 O336 2.294 . S
In325 O337 2.326 . S
O326 In325 2.294 . S
O326 C335 1.240 . S
O327 In325 2.326 . S
O327 C335 1.252 . S
C328 O331 1.252 . S
C328 O332 1.260 . S
C329 O336 1.240 . S
C329 O337 1.252 . S
C330 O333 1.252 . S
C330 O334 1.260 . S
O331 In325 2.266 . S
O331 C328 1.252 . S
O332 In325 2.326 . S
O332 C328 1.260 . S
O333 In325 2.266 . S
O333 C330 1.252 . S
O334 In325 2.326 . S
O334 C330 1.260 . S
C335 O326 1.240 . S
C335 O327 1.252 . S
O336 In325 2.294 . S
O336 C329 1.240 . S
O337 In325 2.326 . S
O337 C329 1.252 . S
In338 O339 2.294 . S
In338 O340 2.326 . S
In338 O344 2.266 . S
In338 O345 2.326 . S
In338 O346 2.266 . S
In338 O347 2.326 . S
In338 O349 2.294 . S
In338 O350 2.326 . S
O339 In338 2.294 . S
O339 C348 1.240 . S
O340 In338 2.326 . S
O340 C348 1.252 . S
C341 O344 1.252 . S
C341 O345 1.260 . S
C342 O349 1.240 . S
C342 O350 1.252 . S
C343 O346 1.252 . S
C343 O347 1.260 . S
O344 In338 2.266 . S
O344 C341 1.252 . S
O345 In338 2.326 . S
O345 C341 1.260 . S
O346 In338 2.266 . S
O346 C343 1.252 . S
O347 In338 2.326 . S
O347 C343 1.260 . S
C348 O339 1.240 . S
C348 O340 1.252 . S
O349 In338 2.294 . S
O349 C342 1.240 . S
O350 In338 2.326 . S
O350 C342 1.252 . S
In351 O352 2.294 . S
In351 O353 2.326 . S
In351 O357 2.266 . S
In351 O358 2.326 . S
In351 O359 2.266 1_655 S
In351 O360 2.326 . S
In351 O362 2.294 . S
In351 O363 2.326 . S
O352 In351 2.294 . S
O352 C361 1.240 . S
O353 In351 2.326 . S
O353 C361 1.252 . S
C354 O357 1.252 . S
C354 O358 1.260 . S
C355 O362 1.240 . S
C355 O363 1.252 . S
C356 O359 1.252 1_655 S
C356 O360 1.260 . S
O357 In351 2.266 . S
O357 C354 1.252 . S
O358 In351 2.326 . S
O358 C354 1.260 . S
O359 In351 2.266 1_455 S
O359 C356 1.252 1_455 S
O360 In351 2.326 . S
O360 C356 1.260 . S
C361 O352 1.240 . S
C361 O353 1.252 . S
O362 In351 2.294 . S
O362 C355 1.240 . S
O363 In351 2.326 . S
O363 C355 1.252 . S
In364 O365 2.294 . S
In364 O366 2.326 . S
In364 O370 2.266 . S
In364 O371 2.326 . S
In364 O372 2.266 . S
In364 O373 2.326 . S
In364 O375 2.294 . S
In364 O376 2.326 . S
O365 In364 2.294 . S
O365 C374 1.240 . S
O366 In364 2.326 . S
O366 C374 1.252 . S
C367 O370 1.252 . S
C367 O371 1.260 . S
C368 O375 1.240 . S
C368 O376 1.252 . S
C369 O372 1.252 . S
C369 O373 1.260 . S
O370 In364 2.266 . S
O370 C367 1.252 . S
O371 In364 2.326 . S
O371 C367 1.260 . S
O372 In364 2.266 . S
O372 C369 1.252 . S
O373 In364 2.326 . S
O373 C369 1.260 . S
C374 O365 1.240 . S
C374 O366 1.252 . S
O375 In364 2.294 . S
O375 C368 1.240 . S
O376 In364 2.326 . S
O376 C368 1.252 . S
In377 O378 2.294 . S
In377 O379 2.326 . S
In377 O383 2.266 . S
In377 O384 2.326 . S
In377 O385 2.266 1_655 S
In377 O386 2.326 . S
In377 O388 2.294 . S
In377 O389 2.326 . S
O378 In377 2.294 . S
O378 C387 1.240 . S
O379 In377 2.326 . S
O379 C387 1.252 . S
C380 O383 1.252 . S
C380 O384 1.260 . S
C381 O388 1.240 . S
C381 O389 1.252 . S
C382 O385 1.252 1_655 S
C382 O386 1.260 . S
O383 In377 2.266 . S
O383 C380 1.252 . S
O384 In377 2.326 . S
O384 C380 1.260 . S
O385 In377 2.266 1_455 S
O385 C382 1.252 1_455 S
O386 In377 2.326 . S
O386 C382 1.260 . S
C387 O378 1.240 . S
C387 O379 1.252 . S
O388 In377 2.294 . S
O388 C381 1.240 . S
O389 In377 2.326 . S
O389 C381 1.252 . S
In390 O391 2.294 . S
In390 O392 2.326 . S
In390 O396 2.266 . S
In390 O397 2.326 . S
In390 O398 2.266 . S
In390 O399 2.326 . S
In390 O401 2.294 . S
In390 O402 2.326 . S
O391 In390 2.294 . S
O391 C400 1.240 . S
O392 In390 2.326 . S
O392 C400 1.252 . S
C393 O396 1.252 . S
C393 O397 1.260 . S
C394 O401 1.240 . S
C394 O402 1.252 . S
C395 O398 1.252 . S
C395 O399 1.260 . S
O396 In390 2.266 . S
O396 C393 1.252 . S
O397 In390 2.326 . S
O397 C393 1.260 . S
O398 In390 2.266 . S
O398 C395 1.252 . S
O399 In390 2.326 . S
O399 C395 1.260 . S
C400 O391 1.240 . S
C400 O392 1.252 . S
O401 In390 2.294 . S
O401 C394 1.240 . S
O402 In390 2.326 . S
O402 C394 1.252 . S
In403 O404 2.294 . S
In403 O405 2.326 . S
In403 O409 2.266 . S
In403 O410 2.326 . S
In403 O411 2.266 . S
In403 O412 2.326 . S
In403 O414 2.294 . S
In403 O415 2.326 . S
O404 In403 2.294 . S
O404 C413 1.240 . S
O405 In403 2.326 . S
O405 C413 1.252 . S
C406 O409 1.252 . S
C406 O410 1.260 . S
C407 O414 1.240 . S
C407 O415 1.252 . S
C408 O411 1.252 . S
C408 O412 1.260 . S
O409 In403 2.266 . S
O409 C406 1.252 . S
O410 In403 2.326 . S
O410 C406 1.260 . S
O411 In403 2.266 . S
O411 C408 1.252 . S
O412 In403 2.326 . S
O412 C408 1.260 . S
C413 O404 1.240 . S
C413 O405 1.252 . S
O414 In403 2.294 . S
O414 C407 1.240 . S
O415 In403 2.326 . S
O415 C407 1.252 . S
In416 O417 2.294 . S
In416 O418 2.326 . S
In416 O422 2.266 . S
In416 O423 2.326 . S
In416 O424 2.266 . S
In416 O425 2.326 . S
In416 O427 2.294 . S
In416 O428 2.326 . S
O417 In416 2.294 . S
O417 C426 1.240 . S
O418 In416 2.326 . S
O418 C426 1.252 . S
C419 O422 1.252 . S
C419 O423 1.260 . S
C420 O427 1.240 . S
C420 O428 1.252 . S
C421 O424 1.252 . S
C421 O425 1.260 . S
O422 In416 2.266 . S
O422 C419 1.252 . S
O423 In416 2.326 . S
O423 C419 1.260 . S
O424 In416 2.266 . S
O424 C421 1.252 . S
O425 In416 2.326 . S
O425 C421 1.260 . S
C426 O417 1.240 . S
C426 O418 1.252 . S
O427 In416 2.294 . S
O427 C420 1.240 . S
O428 In416 2.326 . S
O428 C420 1.252 . S
In429 O430 2.294 . S
In429 O431 2.326 . S
In429 O435 2.266 . S
In429 O436 2.326 . S
In429 O437 2.266 1_556 S
In429 O438 2.326 . S
In429 O440 2.294 . S
In429 O441 2.326 . S
O430 In429 2.294 . S
O430 C439 1.240 . S
O431 In429 2.326 . S
O431 C439 1.252 . S
C432 O435 1.252 . S
C432 O436 1.260 . S
C433 O440 1.240 . S
C433 O441 1.252 . S
C434 O437 1.252 1_556 S
C434 O438 1.260 . S
O435 In429 2.266 . S
O435 C432 1.252 . S
O436 In429 2.326 . S
O436 C432 1.260 . S
O437 In429 2.266 1_554 S
O437 C434 1.252 1_554 S
O438 In429 2.326 . S
O438 C434 1.260 . S
C439 O430 1.240 . S
C439 O431 1.252 . S
O440 In429 2.294 . S
O440 C433 1.240 . S
O441 In429 2.326 . S
O441 C433 1.252 . S
In442 O443 2.294 . S
In442 O444 2.326 . S
In442 O448 2.266 . S
In442 O449 2.326 . S
In442 O450 2.266 . S
In442 O451 2.326 . S
In442 O453 2.294 . S
In442 O454 2.326 . S
O443 In442 2.294 . S
O443 C452 1.240 . S
O444 In442 2.326 . S
O444 C452 1.252 . S
C445 O448 1.252 . S
C445 O449 1.260 . S
C446 O453 1.240 . S
C446 O454 1.252 . S
C447 O450 1.252 . S
C447 O451 1.260 . S
O448 In442 2.266 . S
O448 C445 1.252 . S
O449 In442 2.326 . S
O449 C445 1.260 . S
O450 In442 2.266 . S
O450 C447 1.252 . S
O451 In442 2.326 . S
O451 C447 1.260 . S
C452 O443 1.240 . S
C452 O444 1.252 . S
O453 In442 2.294 . S
O453 C446 1.240 . S
O454 In442 2.326 . S
O454 C446 1.252 . S
In455 O456 2.294 . S
In455 O457 2.326 . S
In455 O461 2.266 . S
In455 O462 2.326 1_655 S
In455 O463 2.266 . S
In455 O464 2.326 . S
In455 O466 2.294 . S
In455 O467 2.326 . S
O456 In455 2.294 . S
O456 C465 1.240 . S
O457 In455 2.326 . S
O457 C465 1.252 . S
C458 O461 1.252 1_455 S
C458 O462 1.260 . S
C459 O466 1.240 . S
C459 O467 1.252 . S
C460 O463 1.252 . S
C460 O464 1.260 . S
O461 In455 2.266 . S
O461 C458 1.252 1_655 S
O462 In455 2.326 1_455 S
O462 C458 1.260 . S
O463 In455 2.266 . S
O463 C460 1.252 . S
O464 In455 2.326 . S
O464 C460 1.260 . S
C465 O456 1.240 . S
C465 O457 1.252 . S
O466 In455 2.294 . S
O466 C459 1.240 . S
O467 In455 2.326 . S
O467 C459 1.252 . S
In468 O469 2.294 . S
In468 O470 2.326 . S
In468 O474 2.266 . S
In468 O475 2.326 . S
In468 O476 2.266 . S
In468 O477 2.326 . S
In468 O479 2.294 . S
In468 O480 2.326 . S
O469 In468 2.294 . S
O469 C478 1.240 . S
O470 In468 2.326 . S
O470 C478 1.252 . S
C471 O474 1.252 . S
C471 O475 1.260 . S
C472 O479 1.240 . S
C472 O480 1.252 . S
C473 O476 1.252 . S
C473 O477 1.260 . S
O474 In468 2.266 . S
O474 C471 1.252 . S
O475 In468 2.326 . S
O475 C471 1.260 . S
O476 In468 2.266 . S
O476 C473 1.252 . S
O477 In468 2.326 . S
O477 C473 1.260 . S
C478 O469 1.240 . S
C478 O470 1.252 . S
O479 In468 2.294 . S
O479 C472 1.240 . S
O480 In468 2.326 . S
O480 C472 1.252 . S
In481 O482 2.294 . S
In481 O483 2.326 . S
In481 O487 2.266 . S
In481 O488 2.326 1_655 S
In481 O489 2.266 1_554 S
In481 O490 2.326 . S
In481 O492 2.294 . S
In481 O493 2.326 . S
O482 In481 2.294 . S
O482 C491 1.240 . S
O483 In481 2.326 . S
O483 C491 1.252 . S
C484 O487 1.252 1_455 S
C484 O488 1.260 . S
C485 O492 1.240 . S
C485 O493 1.252 . S
C486 O489 1.252 1_554 S
C486 O490 1.260 . S
O487 In481 2.266 . S
O487 C484 1.252 1_655 S
O488 In481 2.326 1_455 S
O488 C484 1.260 . S
O489 In481 2.266 1_556 S
O489 C486 1.252 1_556 S
O490 In481 2.326 . S
O490 C486 1.260 . S
C491 O482 1.240 . S
C491 O483 1.252 . S
O492 In481 2.294 . S
O492 C485 1.240 . S
O493 In481 2.326 . S
O493 C485 1.252 . S
In494 O495 2.294 . S
In494 O496 2.326 . S
In494 O500 2.266 . S
In494 O501 2.326 . S
In494 O502 2.266 . S
In494 O503 2.326 . S
In494 O505 2.294 . S
In494 O506 2.326 . S
O495 In494 2.294 . S
O495 C504 1.240 . S
O496 In494 2.326 . S
O496 C504 1.252 . S
C497 O500 1.252 . S
C497 O501 1.260 . S
C498 O505 1.240 . S
C498 O506 1.252 . S
C499 O502 1.252 . S
C499 O503 1.260 . S
O500 In494 2.266 . S
O500 C497 1.252 . S
O501 In494 2.326 . S
O501 C497 1.260 . S
O502 In494 2.266 . S
O502 C499 1.252 . S
O503 In494 2.326 . S
O503 C499 1.260 . S
C504 O495 1.240 . S
C504 O496 1.252 . S
O505 In494 2.294 . S
O505 C498 1.240 . S
O506 In494 2.326 . S
O506 C498 1.252 . S
In507 O508 2.294 . S
In507 O509 2.326 . S
In507 O513 2.266 . S
In507 O514 2.326 . S
In507 O515 2.266 . S
In507 O516 2.326 . S
In507 O518 2.294 . S
In507 O519 2.326 . S
O508 In507 2.294 . S
O508 C517 1.240 . S
O509 In507 2.326 . S
O509 C517 1.252 . S
C510 O513 1.252 . S
C510 O514 1.260 . S
C511 O518 1.240 . S
C511 O519 1.252 . S
C512 O515 1.252 . S
C512 O516 1.260 . S
O513 In507 2.266 . S
O513 C510 1.252 . S
O514 In507 2.326 . S
O514 C510 1.260 . S
O515 In507 2.266 . S
O515 C512 1.252 . S
O516 In507 2.326 . S
O516 C512 1.260 . S
C517 O508 1.240 . S
C517 O509 1.252 . S
O518 In507 2.294 . S
O518 C511 1.240 . S
O519 In507 2.326 . S
O519 C511 1.252 . S
In520 O521 2.294 . S
In520 O522 2.326 . S
In520 O526 2.266 . S
In520 O527 2.326 . S
In520 O528 2.266 . S
In520 O529 2.326 . S
In520 O531 2.294 . S
In520 O532 2.326 . S
O521 In520 2.294 . S
O521 C530 1.240 . S
O522 In520 2.326 . S
O522 C530 1.252 . S
C523 O526 1.252 . S
C523 O527 1.260 . S
C524 O531 1.240 . S
C524 O532 1.252 . S
C525 O528 1.252 . S
C525 O529 1.260 . S
O526 In520 2.266 . S
O526 C523 1.252 . S
O527 In520 2.326 . S
O527 C523 1.260 . S
O528 In520 2.266 . S
O528 C525 1.252 . S
O529 In520 2.326 . S
O529 C525 1.260 . S
C530 O521 1.240 . S
C530 O522 1.252 . S
O531 In520 2.294 . S
O531 C524 1.240 . S
O532 In520 2.326 . S
O532 C524 1.252 . S
In533 O534 2.294 . S
In533 O535 2.326 . S
In533 O539 2.266 . S
In533 O540 2.326 . S
In533 O541 2.266 . S
In533 O542 2.326 . S
In533 O544 2.294 . S
In533 O545 2.326 . S
O534 In533 2.294 . S
O534 C543 1.240 . S
O535 In533 2.326 . S
O535 C543 1.252 . S
C536 O539 1.252 . S
C536 O540 1.260 . S
C537 O544 1.240 . S
C537 O545 1.252 . S
C538 O541 1.252 . S
C538 O542 1.260 . S
O539 In533 2.266 . S
O539 C536 1.252 . S
O540 In533 2.326 . S
O540 C536 1.260 . S
O541 In533 2.266 . S
O541 C538 1.252 . S
O542 In533 2.326 . S
O542 C538 1.260 . S
C543 O534 1.240 . S
C543 O535 1.252 . S
O544 In533 2.294 . S
O544 C537 1.240 . S
O545 In533 2.326 . S
O545 C537 1.252 . S
In546 O547 2.294 . S
In546 O548 2.326 . S
In546 O552 2.266 1_565 S
In546 O553 2.326 . S
In546 O554 2.266 . S
In546 O555 2.326 . S
In546 O557 2.294 . S
In546 O558 2.326 . S
O547 In546 2.294 . S
O547 C556 1.240 . S
O548 In546 2.326 . S
O548 C556 1.252 . S
C549 O552 1.252 1_565 S
C549 O553 1.260 . S
C550 O557 1.240 . S
C550 O558 1.252 . S
C551 O554 1.252 . S
C551 O555 1.260 . S
O552 In546 2.266 1_545 S
O552 C549 1.252 1_545 S
O553 In546 2.326 . S
O553 C549 1.260 . S
O554 In546 2.266 . S
O554 C551 1.252 . S
O555 In546 2.326 . S
O555 C551 1.260 . S
C556 O547 1.240 . S
C556 O548 1.252 . S
O557 In546 2.294 . S
O557 C550 1.240 . S
O558 In546 2.326 . S
O558 C550 1.252 . S
In559 O560 2.294 . S
In559 O561 2.326 . S
In559 O565 2.266 . S
In559 O566 2.326 . S
In559 O567 2.266 . S
In559 O568 2.326 . S
In559 O570 2.294 . S
In559 O571 2.326 . S
O560 In559 2.294 . S
O560 C569 1.240 . S
O561 In559 2.326 . S
O561 C569 1.252 . S
C562 O565 1.252 . S
C562 O566 1.260 . S
C563 O570 1.240 . S
C563 O571 1.252 . S
C564 O567 1.252 . S
C564 O568 1.260 . S
O565 In559 2.266 . S
O565 C562 1.252 . S
O566 In559 2.326 . S
O566 C562 1.260 . S
O567 In559 2.266 . S
O567 C564 1.252 . S
O568 In559 2.326 . S
O568 C564 1.260 . S
C569 O560 1.240 . S
C569 O561 1.252 . S
O570 In559 2.294 . S
O570 C563 1.240 . S
O571 In559 2.326 . S
O571 C563 1.252 . S
In572 O573 2.294 . S
In572 O574 2.326 . S
In572 O578 2.266 . S
In572 O579 2.326 . S
In572 O580 2.266 . S
In572 O581 2.326 . S
In572 O583 2.294 . S
In572 O584 2.326 . S
O573 In572 2.294 . S
O573 C582 1.240 . S
O574 In572 2.326 . S
O574 C582 1.252 . S
C575 O578 1.252 . S
C575 O579 1.260 . S
C576 O583 1.240 . S
C576 O584 1.252 . S
C577 O580 1.252 . S
C577 O581 1.260 . S
O578 In572 2.266 . S
O578 C575 1.252 . S
O579 In572 2.326 . S
O579 C575 1.260 . S
O580 In572 2.266 . S
O580 C577 1.252 . S
O581 In572 2.326 . S
O581 C577 1.260 . S
C582 O573 1.240 . S
C582 O574 1.252 . S
O583 In572 2.294 . S
O583 C576 1.240 . S
O584 In572 2.326 . S
O584 C576 1.252 . S
In585 O586 2.294 . S
In585 O587 2.326 . S
In585 O591 2.266 . S
In585 O592 2.326 . S
In585 O593 2.266 . S
In585 O594 2.326 . S
In585 O596 2.294 . S
In585 O597 2.326 . S
O586 In585 2.294 . S
O586 C595 1.240 . S
O587 In585 2.326 . S
O587 C595 1.252 . S
C588 O591 1.252 . S
C588 O592 1.260 . S
C589 O596 1.240 . S
C589 O597 1.252 . S
C590 O593 1.252 . S
C590 O594 1.260 . S
O591 In585 2.266 . S
O591 C588 1.252 . S
O592 In585 2.326 . S
O592 C588 1.260 . S
O593 In585 2.266 . S
O593 C590 1.252 . S
O594 In585 2.326 . S
O594 C590 1.260 . S
C595 O586 1.240 . S
C595 O587 1.252 . S
O596 In585 2.294 . S
O596 C589 1.240 . S
O597 In585 2.326 . S
O597 C589 1.252 . S
In598 O599 2.294 . S
In598 O600 2.326 . S
In598 O604 2.266 . S
In598 O605 2.326 1_556 S
In598 O606 2.266 1_545 S
In598 O607 2.326 . S
In598 O609 2.294 . S
In598 O610 2.326 . S
O599 In598 2.294 . S
O599 C608 1.240 . S
O600 In598 2.326 . S
O600 C608 1.252 . S
C601 O604 1.252 1_554 S
C601 O605 1.260 . S
C602 O609 1.240 . S
C602 O610 1.252 . S
C603 O606 1.252 1_545 S
C603 O607 1.260 . S
O604 In598 2.266 . S
O604 C601 1.252 1_556 S
O605 In598 2.326 1_554 S
O605 C601 1.260 . S
O606 In598 2.266 1_565 S
O606 C603 1.252 1_565 S
O607 In598 2.326 . S
O607 C603 1.260 . S
C608 O599 1.240 . S
C608 O600 1.252 . S
O609 In598 2.294 . S
O609 C602 1.240 . S
O610 In598 2.326 . S
O610 C602 1.252 . S
In611 O612 2.294 . S
In611 O613 2.326 . S
In611 O617 2.266 . S
In611 O618 2.326 . S
In611 O619 2.266 1_565 S
In611 O620 2.326 . S
In611 O622 2.294 . S
In611 O623 2.326 . S
O612 In611 2.294 . S
O612 C621 1.240 . S
O613 In611 2.326 . S
O613 C621 1.252 . S
C614 O617 1.252 . S
C614 O618 1.260 . S
C615 O622 1.240 . S
C615 O623 1.252 . S
C616 O619 1.252 1_565 S
C616 O620 1.260 . S
O617 In611 2.266 . S
O617 C614 1.252 . S
O618 In611 2.326 . S
O618 C614 1.260 . S
O619 In611 2.266 1_545 S
O619 C616 1.252 1_545 S
O620 In611 2.326 . S
O620 C616 1.260 . S
C621 O612 1.240 . S
C621 O613 1.252 . S
O622 In611 2.294 . S
O622 C615 1.240 . S
O623 In611 2.326 . S
O623 C615 1.252 . S
H624 C630 0.930 . S
H625 C634 0.930 . S
H626 C639 0.929 . S
H627 C637 0.929 . S
H628 C632 0.929 . S
H629 C638 0.929 . S
C630 H624 0.930 . S
C630 C631 1.367 . S
C630 C638 1.378 . S
C631 C630 1.367 . S
C631 C639 1.433 . S
C632 H628 0.929 . S
C632 C634 1.378 . S
C632 C636 1.350 . S
C633 C636 1.463 . S
C633 C638 1.350 . S
C633 N641 1.427 . S
C634 H625 0.930 . S
C634 C632 1.378 . S
C634 C635 1.367 . S
C635 C634 1.367 . S
C635 C637 1.433 . S
C636 C632 1.350 . S
C636 C633 1.463 . S
C636 N640 1.427 . S
C637 H627 0.929 . S
C637 C635 1.433 . S
C637 N640 1.384 . S
C638 H629 0.929 . S
C638 C630 1.378 . S
C638 C633 1.350 . S
C639 H626 0.929 . S
C639 C631 1.433 . S
C639 N641 1.384 . S
N640 C636 1.427 . S
N640 C637 1.384 . S
N641 C633 1.427 . S
N641 C639 1.384 . S
H642 C648 0.930 . S
H643 C652 0.930 . S
H644 C657 0.929 . S
H645 C655 0.929 . S
H646 C650 0.929 . S
H647 C656 0.929 . S
C648 H642 0.930 . S
C648 C649 1.367 . S
C648 C656 1.378 . S
C649 C648 1.367 . S
C649 C657 1.433 1_565 S
C650 H646 0.929 . S
C650 C652 1.378 . S
C650 C654 1.350 . S
C651 C654 1.463 1_565 S
C651 C656 1.350 . S
C651 N659 1.427 1_565 S
C652 H643 0.930 . S
C652 C650 1.378 . S
C652 C653 1.367 . S
C653 C652 1.367 . S
C653 C655 1.433 1_545 S
C654 C650 1.350 . S
C654 C651 1.463 1_545 S
C654 N658 1.427 1_545 S
C655 H645 0.929 . S
C655 C653 1.433 1_565 S
C655 N658 1.384 . S
C656 H647 0.929 . S
C656 C648 1.378 . S
C656 C651 1.350 . S
C657 H644 0.929 . S
C657 C649 1.433 1_545 S
C657 N659 1.384 . S
N658 C654 1.427 1_565 S
N658 C655 1.384 . S
N659 C651 1.427 1_545 S
N659 C657 1.384 . S
H660 C666 0.930 . S
H661 C670 0.930 . S
H662 C675 0.929 . S
H663 C673 0.929 . S
H664 C668 0.929 . S
H665 C674 0.929 . S
C666 H660 0.930 . S
C666 C667 1.367 . S
C666 C674 1.378 . S
C667 C666 1.367 . S
C667 C675 1.433 . S
C668 H664 0.929 . S
C668 C670 1.378 . S
C668 C672 1.350 . S
C669 C672 1.463 1_556 S
C669 C674 1.350 . S
C669 N677 1.427 . S
C670 H661 0.930 . S
C670 C668 1.378 . S
C670 C671 1.367 . S
C671 C670 1.367 . S
C671 C673 1.433 . S
C672 C668 1.350 . S
C672 C669 1.463 1_554 S
C672 N676 1.427 . S
C673 H663 0.929 . S
C673 C671 1.433 . S
C673 N676 1.384 . S
C674 H665 0.929 . S
C674 C666 1.378 . S
C674 C669 1.350 . S
C675 H662 0.929 . S
C675 C667 1.433 . S
C675 N677 1.384 . S
N676 C672 1.427 . S
N676 C673 1.384 . S
N677 C669 1.427 . S
N677 C675 1.384 . S
H678 C684 0.930 . S
H679 C688 0.930 . S
H680 C693 0.929 . S
H681 C691 0.929 . S
H682 C686 0.929 . S
H683 C692 0.929 . S
C684 H678 0.930 . S
C684 C685 1.367 . S
C684 C692 1.378 . S
C685 C684 1.367 . S
C685 C693 1.433 1_565 S
C686 H682 0.929 . S
C686 C688 1.378 . S
C686 C690 1.350 . S
C687 C690 1.463 1_565 S
C687 C692 1.350 . S
C687 N695 1.427 1_565 S
C688 H679 0.930 . S
C688 C686 1.378 . S
C688 C689 1.367 . S
C689 C688 1.367 . S
C689 C691 1.433 1_545 S
C690 C686 1.350 . S
C690 C687 1.463 1_545 S
C690 N694 1.427 1_545 S
C691 H681 0.929 . S
C691 C689 1.433 1_565 S
C691 N694 1.384 . S
C692 H683 0.929 . S
C692 C684 1.378 . S
C692 C687 1.350 . S
C693 H680 0.929 . S
C693 C685 1.433 1_545 S
C693 N695 1.384 . S
N694 C690 1.427 1_565 S
N694 C691 1.384 . S
N695 C687 1.427 1_545 S
N695 C693 1.384 . S
H696 C702 0.930 . S
H697 C706 0.930 . S
H698 C711 0.929 . S
H699 C709 0.929 . S
H700 C704 0.929 . S
H701 C710 0.929 . S
C702 H696 0.930 . S
C702 C703 1.367 . S
C702 C710 1.378 . S
C703 C702 1.367 . S
C703 C711 1.433 . S
C704 H700 0.929 . S
C704 C706 1.378 . S
C704 C708 1.350 . S
C705 C708 1.463 . S
C705 C710 1.350 . S
C705 N713 1.427 . S
C706 H697 0.930 . S
C706 C704 1.378 . S
C706 C707 1.367 . S
C707 C706 1.367 . S
C707 C709 1.433 . S
C708 C704 1.350 . S
C708 C705 1.463 . S
C708 N712 1.427 . S
C709 H699 0.929 . S
C709 C707 1.433 . S
C709 N712 1.384 . S
C710 H701 0.929 . S
C710 C702 1.378 . S
C710 C705 1.350 . S
C711 H698 0.929 . S
C711 C703 1.433 . S
C711 N713 1.384 . S
N712 C708 1.427 . S
N712 C709 1.384 . S
N713 C705 1.427 . S
N713 C711 1.384 . S
H714 C720 0.925 1_455 S
H715 C724 0.925 1_655 S
H716 C729 0.929 . S
H717 C727 0.929 . S
H718 C722 0.929 . S
H719 C728 0.929 . S
C720 H714 0.925 1_655 S
C720 C721 1.367 . S
C720 C728 1.378 1_655 S
C721 C720 1.367 . S
C721 C729 1.433 . S
C722 H718 0.929 . S
C722 C724 1.378 1_655 S
C722 C726 1.350 1_655 S
C723 C726 1.463 1_655 S
C723 C728 1.350 1_655 S
C723 N731 1.427 . S
C724 H715 0.925 1_455 S
C724 C722 1.378 1_455 S
C724 C725 1.367 . S
C725 C724 1.367 . S
C725 C727 1.433 . S
C726 C722 1.350 1_455 S
C726 C723 1.463 1_455 S
C726 N730 1.427 . S
C727 H717 0.929 . S
C727 C725 1.433 . S
C727 N730 1.384 . S
C728 H719 0.929 . S
C728 C720 1.378 1_455 S
C728 C723 1.350 1_455 S
C729 H716 0.929 . S
C729 C721 1.433 . S
C729 N731 1.384 . S
N730 C726 1.427 . S
N730 C727 1.384 . S
N731 C723 1.427 . S
N731 C729 1.384 . S
H732 C738 0.930 . S
H733 C742 0.930 . S
H734 C747 0.929 . S
H735 C745 0.929 . S
H736 C740 0.929 . S
H737 C746 0.929 . S
C738 H732 0.930 . S
C738 C739 1.367 . S
C738 C746 1.378 . S
C739 C738 1.367 . S
C739 C747 1.433 . S
C740 H736 0.929 . S
C740 C742 1.378 . S
C740 C744 1.350 . S
C741 C744 1.463 1_455 S
C741 C746 1.350 . S
C741 N749 1.427 . S
C742 H733 0.930 . S
C742 C740 1.378 . S
C742 C743 1.367 . S
C743 C742 1.367 . S
C743 C745 1.433 . S
C744 C740 1.350 . S
C744 C741 1.463 1_655 S
C744 N748 1.427 . S
C745 H735 0.929 . S
C745 C743 1.433 . S
C745 N748 1.384 . S
C746 H737 0.929 . S
C746 C738 1.378 . S
C746 C741 1.350 . S
C747 H734 0.929 . S
C747 C739 1.433 . S
C747 N749 1.384 . S
N748 C744 1.427 . S
N748 C745 1.384 . S
N749 C741 1.427 . S
N749 C747 1.384 . S
H750 C756 0.930 . S
H751 C760 0.930 . S
H752 C765 0.929 . S
H753 C763 0.929 . S
H754 C758 0.929 . S
H755 C764 0.929 . S
C756 H750 0.930 . S
C756 C757 1.367 . S
C756 C764 1.378 . S
C757 C756 1.367 . S
C757 C765 1.433 . S
C758 H754 0.929 . S
C758 C760 1.378 . S
C758 C762 1.350 . S
C759 C762 1.463 . S
C759 C764 1.350 . S
C759 N767 1.427 . S
C760 H751 0.930 . S
C760 C758 1.378 . S
C760 C761 1.367 . S
C761 C760 1.367 . S
C761 C763 1.433 . S
C762 C758 1.350 . S
C762 C759 1.463 . S
C762 N766 1.427 . S
C763 H753 0.929 . S
C763 C761 1.433 . S
C763 N766 1.384 . S
C764 H755 0.929 . S
C764 C756 1.378 . S
C764 C759 1.350 . S
C765 H752 0.929 . S
C765 C757 1.433 . S
C765 N767 1.384 . S
N766 C762 1.427 . S
N766 C763 1.384 . S
N767 C759 1.427 . S
N767 C765 1.384 . S
H768 C774 0.930 . S
H769 C778 0.930 . S
H770 C783 0.929 . S
H771 C781 0.929 . S
H772 C776 0.929 . S
H773 C782 0.929 . S
C774 H768 0.930 . S
C774 C775 1.367 . S
C774 C782 1.378 . S
C775 C774 1.367 . S
C775 C783 1.433 . S
C776 H772 0.929 . S
C776 C778 1.378 . S
C776 C780 1.350 . S
C777 C780 1.463 . S
C777 C782 1.350 . S
C777 N785 1.427 . S
C778 H769 0.930 . S
C778 C776 1.378 . S
C778 C779 1.367 . S
C779 C778 1.367 . S
C779 C781 1.433 . S
C780 C776 1.350 . S
C780 C777 1.463 . S
C780 N784 1.427 . S
C781 H771 0.929 . S
C781 C779 1.433 . S
C781 N784 1.384 . S
C782 H773 0.929 . S
C782 C774 1.378 . S
C782 C777 1.350 . S
C783 H770 0.929 . S
C783 C775 1.433 . S
C783 N785 1.384 . S
N784 C780 1.427 . S
N784 C781 1.384 . S
N785 C777 1.427 . S
N785 C783 1.384 . S
H786 C792 0.930 . S
H787 C796 0.930 . S
H788 C801 0.929 . S
H789 C799 0.929 . S
H790 C794 0.929 . S
H791 C800 0.929 . S
C792 H786 0.930 . S
C792 C793 1.367 . S
C792 C800 1.378 . S
C793 C792 1.367 . S
C793 C801 1.433 . S
C794 H790 0.929 . S
C794 C796 1.378 . S
C794 C798 1.350 . S
C795 C798 1.463 . S
C795 C800 1.350 . S
C795 N803 1.427 . S
C796 H787 0.930 . S
C796 C794 1.378 . S
C796 C797 1.367 . S
C797 C796 1.367 . S
C797 C799 1.433 . S
C798 C794 1.350 . S
C798 C795 1.463 . S
C798 N802 1.427 . S
C799 H789 0.929 . S
C799 C797 1.433 . S
C799 N802 1.384 . S
C800 H791 0.929 . S
C800 C792 1.378 . S
C800 C795 1.350 . S
C801 H788 0.929 . S
C801 C793 1.433 . S
C801 N803 1.384 . S
N802 C798 1.427 . S
N802 C799 1.384 . S
N803 C795 1.427 . S
N803 C801 1.384 . S
H804 C810 0.930 . S
H805 C814 0.930 . S
H806 C819 0.929 . S
H807 C817 0.929 . S
H808 C812 0.929 . S
H809 C818 0.929 . S
C810 H804 0.930 . S
C810 C811 1.367 . S
C810 C818 1.378 . S
C811 C810 1.367 . S
C811 C819 1.433 . S
C812 H808 0.929 . S
C812 C814 1.378 . S
C812 C816 1.350 . S
C813 C816 1.463 1_655 S
C813 C818 1.350 . S
C813 N821 1.427 . S
C814 H805 0.930 . S
C814 C812 1.378 . S
C814 C815 1.367 . S
C815 C814 1.367 . S
C815 C817 1.433 . S
C816 C812 1.350 . S
C816 C813 1.463 1_455 S
C816 N820 1.427 . S
C817 H807 0.929 . S
C817 C815 1.433 . S
C817 N820 1.384 . S
C818 H809 0.929 . S
C818 C810 1.378 . S
C818 C813 1.350 . S
C819 H806 0.929 . S
C819 C811 1.433 . S
C819 N821 1.384 . S
N820 C816 1.427 . S
N820 C817 1.384 . S
N821 C813 1.427 . S
N821 C819 1.384 . S
H822 C828 0.930 . S
H823 C832 0.930 . S
H824 C837 0.929 . S
H825 C835 0.929 . S
H826 C830 0.929 . S
H827 C836 0.929 . S
C828 H822 0.930 . S
C828 C829 1.367 . S
C828 C836 1.378 . S
C829 C828 1.367 . S
C829 C837 1.433 1_655 S
C830 H826 0.929 . S
C830 C832 1.378 . S
C830 C834 1.350 . S
C831 C834 1.463 1_655 S
C831 C836 1.350 . S
C831 N839 1.427 1_655 S
C832 H823 0.930 . S
C832 C830 1.378 . S
C832 C833 1.367 . S
C833 C832 1.367 . S
C833 C835 1.433 1_455 S
C834 C830 1.350 . S
C834 C831 1.463 1_455 S
C834 N838 1.427 1_455 S
C835 H825 0.929 . S
C835 C833 1.433 1_655 S
C835 N838 1.384 . S
C836 H827 0.929 . S
C836 C828 1.378 . S
C836 C831 1.350 . S
C837 H824 0.929 . S
C837 C829 1.433 1_455 S
C837 N839 1.384 . S
N838 C834 1.427 1_655 S
N838 C835 1.384 . S
N839 C831 1.427 1_455 S
N839 C837 1.384 . S
H840 C846 0.930 . S
H841 C850 0.930 . S
H842 C855 0.929 . S
H843 C853 0.929 . S
H844 C848 0.929 . S
H845 C854 0.929 . S
C846 H840 0.930 . S
C846 C847 1.367 . S
C846 C854 1.378 . S
C847 C846 1.367 . S
C847 C855 1.433 . S
C848 H844 0.929 . S
C848 C850 1.378 . S
C848 C852 1.350 . S
C849 C852 1.463 . S
C849 C854 1.350 . S
C849 N857 1.427 . S
C850 H841 0.930 . S
C850 C848 1.378 . S
C850 C851 1.367 . S
C851 C850 1.367 . S
C851 C853 1.433 . S
C852 C848 1.350 . S
C852 C849 1.463 . S
C852 N856 1.427 . S
C853 H843 0.929 . S
C853 C851 1.433 . S
C853 N856 1.384 . S
C854 H845 0.929 . S
C854 C846 1.378 . S
C854 C849 1.350 . S
C855 H842 0.929 . S
C855 C847 1.433 . S
C855 N857 1.384 . S
N856 C852 1.427 . S
N856 C853 1.384 . S
N857 C849 1.427 . S
N857 C855 1.384 . S
H858 C864 0.930 . S
H859 C868 0.930 . S
H860 C873 0.929 . S
H861 C871 0.929 . S
H862 C866 0.929 . S
H863 C872 0.929 . S
C864 H858 0.930 . S
C864 C865 1.367 . S
C864 C872 1.378 . S
C865 C864 1.367 . S
C865 C873 1.433 . S
C866 H862 0.929 . S
C866 C868 1.378 . S
C866 C870 1.350 . S
C867 C870 1.463 1_545 S
C867 C872 1.350 . S
C867 N875 1.427 . S
C868 H859 0.930 . S
C868 C866 1.378 . S
C868 C869 1.367 . S
C869 C868 1.367 . S
C869 C871 1.433 . S
C870 C866 1.350 . S
C870 C867 1.463 1_565 S
C870 N874 1.427 . S
C871 H861 0.929 . S
C871 C869 1.433 . S
C871 N874 1.384 . S
C872 H863 0.929 . S
C872 C864 1.378 . S
C872 C867 1.350 . S
C873 H860 0.929 . S
C873 C865 1.433 . S
C873 N875 1.384 . S
N874 C870 1.427 . S
N874 C871 1.384 . S
N875 C867 1.427 . S
N875 C873 1.384 . S
H876 C882 0.930 . S
H877 C886 0.930 . S
H878 C891 0.929 . S
H879 C889 0.929 . S
H880 C884 0.929 . S
H881 C890 0.929 . S
C882 H876 0.930 . S
C882 C883 1.367 . S
C882 C890 1.378 . S
C883 C882 1.367 . S
C883 C891 1.433 . S
C884 H880 0.929 . S
C884 C886 1.378 . S
C884 C888 1.350 . S
C885 C888 1.463 1_554 S
C885 C890 1.350 . S
C885 N893 1.423 1_554 S
C886 H877 0.930 . S
C886 C884 1.378 . S
C886 C887 1.367 . S
C887 C886 1.367 . S
C887 C889 1.433 . S
C888 C884 1.350 . S
C888 C885 1.463 1_556 S
C888 N892 1.423 1_556 S
C889 H879 0.929 . S
C889 C887 1.433 . S
C889 N892 1.377 1_556 S
C890 H881 0.929 . S
C890 C882 1.378 . S
C890 C885 1.350 . S
C891 H878 0.929 . S
C891 C883 1.433 . S
C891 N893 1.377 1_554 S
N892 C888 1.423 1_554 S
N892 C889 1.377 1_554 S
N893 C885 1.423 1_556 S
N893 C891 1.377 1_556 S
H894 C900 0.930 . S
H895 C904 0.930 . S
H896 C909 0.929 . S
H897 C907 0.929 . S
H898 C902 0.929 . S
H899 C908 0.929 . S
C900 H894 0.930 . S
C900 C901 1.367 . S
C900 C908 1.378 . S
C901 C900 1.367 . S
C901 C909 1.433 . S
C902 H898 0.929 . S
C902 C904 1.378 . S
C902 C906 1.350 . S
C903 C906 1.463 1_545 S
C903 C908 1.350 . S
C903 N911 1.427 . S
C904 H895 0.930 . S
C904 C902 1.378 . S
C904 C905 1.367 . S
C905 C904 1.367 . S
C905 C907 1.433 . S
C906 C902 1.350 . S
C906 C903 1.463 1_565 S
C906 N910 1.427 . S
C907 H897 0.929 . S
C907 C905 1.433 . S
C907 N910 1.384 . S
C908 H899 0.929 . S
C908 C900 1.378 . S
C908 C903 1.350 . S
C909 H896 0.929 . S
C909 C901 1.433 . S
C909 N911 1.384 . S
N910 C906 1.427 . S
N910 C907 1.384 . S
N911 C903 1.427 . S
N911 C909 1.384 . S
H912 C918 0.934 . S
H913 C922 0.934 . S
H914 C927 0.929 . S
H915 C925 0.929 . S
H916 C920 0.929 . S
H917 C926 0.929 . S
C918 H912 0.934 . S
C918 C919 1.361 1_554 S
C918 C926 1.380 . S
C919 C918 1.361 1_556 S
C919 C927 1.433 . S
C920 H916 0.929 . S
C920 C922 1.380 . S
C920 C924 1.350 1_556 S
C921 C924 1.463 1_556 S
C921 C926 1.350 1_556 S
C921 N929 1.427 . S
C922 H913 0.934 . S
C922 C920 1.380 . S
C922 C923 1.361 1_556 S
C923 C922 1.361 1_554 S
C923 C925 1.433 . S
C924 C920 1.350 1_554 S
C924 C921 1.463 1_554 S
C924 N928 1.427 . S
C925 H915 0.929 . S
C925 C923 1.433 . S
C925 N928 1.384 . S
C926 H917 0.929 . S
C926 C918 1.380 . S
C926 C921 1.350 1_554 S
C927 H914 0.929 . S
C927 C919 1.433 . S
C927 N929 1.384 . S
N928 C924 1.427 . S
N928 C925 1.384 . S
N929 C921 1.427 . S
N929 C927 1.384 . S
H930 C936 0.930 . S
H931 C940 0.930 . S
H932 C945 0.929 . S
H933 C943 0.929 . S
H934 C938 0.929 . S
H935 C944 0.929 . S
C936 H930 0.930 . S
C936 C937 1.367 . S
C936 C944 1.378 . S
C937 C936 1.367 . S
C937 C945 1.433 . S
C938 H934 0.929 . S
C938 C940 1.378 . S
C938 C942 1.350 . S
C939 C942 1.463 . S
C939 C944 1.350 . S
C939 N947 1.427 . S
C940 H931 0.930 . S
C940 C938 1.378 . S
C940 C941 1.367 . S
C941 C940 1.367 . S
C941 C943 1.433 . S
C942 C938 1.350 . S
C942 C939 1.463 . S
C942 N946 1.427 . S
C943 H933 0.929 . S
C943 C941 1.433 . S
C943 N946 1.384 . S
C944 H935 0.929 . S
C944 C936 1.378 . S
C944 C939 1.350 . S
C945 H932 0.929 . S
C945 C937 1.433 . S
C945 N947 1.384 . S
N946 C942 1.427 . S
N946 C943 1.384 . S
N947 C939 1.427 . S
N947 C945 1.384 . S
H948 C954 0.930 . S
H949 C958 0.930 . S
H950 C963 0.929 . S
H951 C961 0.929 . S
H952 C956 0.929 . S
H953 C962 0.929 . S
C954 H948 0.930 . S
C954 C955 1.367 . S
C954 C962 1.378 . S
C955 C954 1.367 . S
C955 C963 1.433 . S
C956 H952 0.929 . S
C956 C958 1.378 . S
C956 C960 1.350 . S
C957 C960 1.463 . S
C957 C962 1.350 . S
C957 N965 1.427 . S
C958 H949 0.930 . S
C958 C956 1.378 . S
C958 C959 1.367 . S
C959 C958 1.367 . S
C959 C961 1.433 . S
C960 C956 1.350 . S
C960 C957 1.463 . S
C960 N964 1.427 . S
C961 H951 0.929 . S
C961 C959 1.433 . S
C961 N964 1.384 . S
C962 H953 0.929 . S
C962 C954 1.378 . S
C962 C957 1.350 . S
C963 H950 0.929 . S
C963 C955 1.433 . S
C963 N965 1.384 . S
N964 C960 1.427 . S
N964 C961 1.384 . S
N965 C957 1.427 . S
N965 C963 1.384 . S
H966 C972 0.930 . S
H967 C976 0.930 . S
H968 C981 0.929 . S
H969 C979 0.929 . S
H970 C974 0.929 . S
H971 C980 0.929 . S
C972 H966 0.930 . S
C972 C973 1.367 . S
C972 C980 1.378 . S
C973 C972 1.367 . S
C973 C981 1.433 . S
C974 H970 0.929 . S
C974 C976 1.378 . S
C974 C978 1.350 . S
C975 C978 1.463 1_554 S
C975 C980 1.350 . S
C975 N983 1.427 . S
C976 H967 0.930 . S
C976 C974 1.378 . S
C976 C977 1.367 . S
C977 C976 1.367 . S
C977 C979 1.433 . S
C978 C974 1.350 . S
C978 C975 1.463 1_556 S
C978 N982 1.427 . S
C979 H969 0.929 . S
C979 C977 1.433 . S
C979 N982 1.384 . S
C980 H971 0.929 . S
C980 C972 1.378 . S
C980 C975 1.350 . S
C981 H968 0.929 . S
C981 C973 1.433 . S
C981 N983 1.384 . S
N982 C978 1.427 . S
N982 C979 1.384 . S
N983 C975 1.427 . S
N983 C981 1.384 . S
H984 C990 0.930 . S
H985 C994 0.930 . S
H986 C999 0.929 . S
H987 C997 0.929 . S
H988 C992 0.929 . S
H989 C998 0.929 . S
C990 H984 0.930 . S
C990 C991 1.367 . S
C990 C998 1.378 . S
C991 C990 1.367 . S
C991 C999 1.433 . S
C992 H988 0.929 . S
C992 C994 1.378 . S
C992 C996 1.350 . S
C993 C996 1.463 . S
C993 C998 1.350 . S
C993 N1001 1.427 . S
C994 H985 0.930 . S
C994 C992 1.378 . S
C994 C995 1.367 . S
C995 C994 1.367 . S
C995 C997 1.433 . S
C996 C992 1.350 . S
C996 C993 1.463 . S
C996 N1000 1.427 . S
C997 H987 0.929 . S
C997 C995 1.433 . S
C997 N1000 1.384 . S
C998 H989 0.929 . S
C998 C990 1.378 . S
C998 C993 1.350 . S
C999 H986 0.929 . S
C999 C991 1.433 . S
C999 N1001 1.384 . S
N1000 C996 1.427 . S
N1000 C997 1.384 . S
N1001 C993 1.427 . S
N1001 C999 1.384 . S
H1002 C1008 0.930 . S
H1003 C1012 0.930 . S
H1004 C1017 0.929 . S
H1005 C1015 0.929 . S
H1006 C1010 0.929 . S
H1007 C1016 0.929 . S
C1008 H1002 0.930 . S
C1008 C1009 1.367 . S
C1008 C1016 1.378 . S
C1009 C1008 1.367 . S
C1009 C1017 1.433 . S
C1010 H1006 0.929 . S
C1010 C1012 1.378 . S
C1010 C1014 1.350 . S
C1011 C1014 1.463 . S
C1011 C1016 1.350 . S
C1011 N1019 1.427 . S
C1012 H1003 0.930 . S
C1012 C1010 1.378 . S
C1012 C1013 1.367 . S
C1013 C1012 1.367 . S
C1013 C1015 1.433 . S
C1014 C1010 1.350 . S
C1014 C1011 1.463 . S
C1014 N1018 1.427 . S
C1015 H1005 0.929 . S
C1015 C1013 1.433 . S
C1015 N1018 1.384 . S
C1016 H1007 0.929 . S
C1016 C1008 1.378 . S
C1016 C1011 1.350 . S
C1017 H1004 0.929 . S
C1017 C1009 1.433 . S
C1017 N1019 1.384 . S
N1018 C1014 1.427 . S
N1018 C1015 1.384 . S
N1019 C1011 1.427 . S
N1019 C1017 1.384 . S
H1020 C1026 0.930 . S
H1021 C1030 0.930 . S
H1022 C1035 0.929 . S
H1023 C1033 0.929 . S
H1024 C1028 0.929 . S
H1025 C1034 0.929 . S
C1026 H1020 0.930 . S
C1026 C1027 1.367 . S
C1026 C1034 1.378 . S
C1027 C1026 1.367 . S
C1027 C1035 1.433 . S
C1028 H1024 0.929 . S
C1028 C1030 1.378 . S
C1028 C1032 1.350 . S
C1029 C1032 1.463 . S
C1029 C1034 1.350 . S
C1029 N1037 1.427 . S
C1030 H1021 0.930 . S
C1030 C1028 1.378 . S
C1030 C1031 1.367 . S
C1031 C1030 1.367 . S
C1031 C1033 1.433 . S
C1032 C1028 1.350 . S
C1032 C1029 1.463 . S
C1032 N1036 1.427 . S
C1033 H1023 0.929 . S
C1033 C1031 1.433 . S
C1033 N1036 1.384 . S
C1034 H1025 0.929 . S
C1034 C1026 1.378 . S
C1034 C1029 1.350 . S
C1035 H1022 0.929 . S
C1035 C1027 1.433 . S
C1035 N1037 1.384 . S
N1036 C1032 1.427 . S
N1036 C1033 1.384 . S
N1037 C1029 1.427 . S
N1037 C1035 1.384 . S
H1038 C1044 0.930 . S
H1039 C1048 0.930 . S
H1040 C1053 0.929 . S
H1041 C1051 0.929 . S
H1042 C1046 0.929 . S
H1043 C1052 0.929 . S
C1044 H1038 0.930 . S
C1044 C1045 1.367 . S
C1044 C1052 1.378 . S
C1045 C1044 1.367 . S
C1045 C1053 1.433 . S
C1046 H1042 0.929 . S
C1046 C1048 1.378 . S
C1046 C1050 1.350 . S
C1047 C1050 1.463 . S
C1047 C1052 1.350 . S
C1047 N1055 1.427 . S
C1048 H1039 0.930 . S
C1048 C1046 1.378 . S
C1048 C1049 1.367 . S
C1049 C1048 1.367 . S
C1049 C1051 1.433 . S
C1050 C1046 1.350 . S
C1050 C1047 1.463 . S
C1050 N1054 1.427 . S
C1051 H1041 0.929 . S
C1051 C1049 1.433 . S
C1051 N1054 1.384 . S
C1052 H1043 0.929 . S
C1052 C1044 1.378 . S
C1052 C1047 1.350 . S
C1053 H1040 0.929 . S
C1053 C1045 1.433 . S
C1053 N1055 1.384 . S
N1054 C1050 1.427 . S
N1054 C1051 1.384 . S
N1055 C1047 1.427 . S
N1055 C1053 1.384 . S
H1056 C1062 0.930 . S
H1057 C1066 0.930 . S
H1058 C1071 0.929 . S
H1059 C1069 0.929 . S
H1060 C1064 0.929 . S
H1061 C1070 0.929 . S
C1062 H1056 0.930 . S
C1062 C1063 1.367 . S
C1062 C1070 1.378 . S
C1063 C1062 1.367 . S
C1063 C1071 1.433 . S
C1064 H1060 0.929 . S
C1064 C1066 1.378 . S
C1064 C1068 1.350 . S
C1065 C1068 1.463 . S
C1065 C1070 1.350 . S
C1065 N1073 1.427 . S
C1066 H1057 0.930 . S
C1066 C1064 1.378 . S
C1066 C1067 1.367 . S
C1067 C1066 1.367 . S
C1067 C1069 1.433 . S
C1068 C1064 1.350 . S
C1068 C1065 1.463 . S
C1068 N1072 1.427 . S
C1069 H1059 0.929 . S
C1069 C1067 1.433 . S
C1069 N1072 1.384 . S
C1070 H1061 0.929 . S
C1070 C1062 1.378 . S
C1070 C1065 1.350 . S
C1071 H1058 0.929 . S
C1071 C1063 1.433 . S
C1071 N1073 1.384 . S
N1072 C1068 1.427 . S
N1072 C1069 1.384 . S
N1073 C1065 1.427 . S
N1073 C1071 1.384 . S
H1074 C1080 0.930 . S
H1075 C1084 0.930 . S
H1076 C1089 0.929 . S
H1077 C1087 0.929 . S
H1078 C1082 0.929 . S
H1079 C1088 0.929 . S
C1080 H1074 0.930 . S
C1080 C1081 1.367 . S
C1080 C1088 1.378 . S
C1081 C1080 1.367 . S
C1081 C1089 1.433 . S
C1082 H1078 0.929 . S
C1082 C1084 1.378 . S
C1082 C1086 1.350 . S
C1083 C1086 1.463 . S
C1083 C1088 1.350 . S
C1083 N1091 1.427 . S
C1084 H1075 0.930 . S
C1084 C1082 1.378 . S
C1084 C1085 1.367 . S
C1085 C1084 1.367 . S
C1085 C1087 1.433 . S
C1086 C1082 1.350 . S
C1086 C1083 1.463 . S
C1086 N1090 1.427 . S
C1087 H1077 0.929 . S
C1087 C1085 1.433 . S
C1087 N1090 1.384 . S
C1088 H1079 0.929 . S
C1088 C1080 1.378 . S
C1088 C1083 1.350 . S
C1089 H1076 0.929 . S
C1089 C1081 1.433 . S
C1089 N1091 1.384 . S
N1090 C1086 1.427 . S
N1090 C1087 1.384 . S
N1091 C1083 1.427 . S
N1091 C1089 1.384 . S
H1092 C1098 0.930 . S
H1093 C1102 0.930 . S
H1094 C1107 0.929 . S
H1095 C1105 0.929 . S
H1096 C1100 0.929 . S
H1097 C1106 0.929 . S
C1098 H1092 0.930 . S
C1098 C1099 1.367 . S
C1098 C1106 1.378 . S
C1099 C1098 1.367 . S
C1099 C1107 1.433 . S
C1100 H1096 0.929 . S
C1100 C1102 1.378 . S
C1100 C1104 1.350 . S
C1101 C1104 1.463 . S
C1101 C1106 1.350 . S
C1101 N1109 1.427 . S
C1102 H1093 0.930 . S
C1102 C1100 1.378 . S
C1102 C1103 1.367 . S
C1103 C1102 1.367 . S
C1103 C1105 1.433 . S
C1104 C1100 1.350 . S
C1104 C1101 1.463 . S
C1104 N1108 1.427 . S
C1105 H1095 0.929 . S
C1105 C1103 1.433 . S
C1105 N1108 1.384 . S
C1106 H1097 0.929 . S
C1106 C1098 1.378 . S
C1106 C1101 1.350 . S
C1107 H1094 0.929 . S
C1107 C1099 1.433 . S
C1107 N1109 1.384 . S
N1108 C1104 1.427 . S
N1108 C1105 1.384 . S
N1109 C1101 1.427 . S
N1109 C1107 1.384 . S
H1110 C1116 0.930 . S
H1111 C1120 0.930 . S
H1112 C1125 0.929 . S
H1113 C1123 0.929 . S
H1114 C1118 0.929 . S
H1115 C1124 0.929 . S
C1116 H1110 0.930 . S
C1116 C1117 1.367 . S
C1116 C1124 1.378 . S
C1117 C1116 1.367 . S
C1117 C1125 1.433 . S
C1118 H1114 0.929 . S
C1118 C1120 1.378 . S
C1118 C1122 1.350 . S
C1119 C1122 1.463 . S
C1119 C1124 1.350 . S
C1119 N1127 1.427 . S
C1120 H1111 0.930 . S
C1120 C1118 1.378 . S
C1120 C1121 1.367 . S
C1121 C1120 1.367 . S
C1121 C1123 1.433 . S
C1122 C1118 1.350 . S
C1122 C1119 1.463 . S
C1122 N1126 1.427 . S
C1123 H1113 0.929 . S
C1123 C1121 1.433 . S
C1123 N1126 1.384 . S
C1124 H1115 0.929 . S
C1124 C1116 1.378 . S
C1124 C1119 1.350 . S
C1125 H1112 0.929 . S
C1125 C1117 1.433 . S
C1125 N1127 1.384 . S
N1126 C1122 1.427 . S
N1126 C1123 1.384 . S
N1127 C1119 1.427 . S
N1127 C1125 1.384 . S
H1128 C1134 0.930 . S
H1129 C1138 0.930 . S
H1130 C1143 0.929 . S
H1131 C1141 0.929 . S
H1132 C1136 0.929 . S
H1133 C1142 0.929 . S
C1134 H1128 0.930 . S
C1134 C1135 1.367 . S
C1134 C1142 1.378 . S
C1135 C1134 1.367 . S
C1135 C1143 1.433 . S
C1136 H1132 0.929 . S
C1136 C1138 1.378 . S
C1136 C1140 1.350 . S
C1137 C1140 1.463 . S
C1137 C1142 1.350 . S
C1137 N1145 1.427 . S
C1138 H1129 0.930 . S
C1138 C1136 1.378 . S
C1138 C1139 1.367 . S
C1139 C1138 1.367 . S
C1139 C1141 1.433 . S
C1140 C1136 1.350 . S
C1140 C1137 1.463 . S
C1140 N1144 1.427 . S
C1141 H1131 0.929 . S
C1141 C1139 1.433 . S
C1141 N1144 1.384 . S
C1142 H1133 0.929 . S
C1142 C1134 1.378 . S
C1142 C1137 1.350 . S
C1143 H1130 0.929 . S
C1143 C1135 1.433 . S
C1143 N1145 1.384 . S
N1144 C1140 1.427 . S
N1144 C1141 1.384 . S
N1145 C1137 1.427 . S
N1145 C1143 1.384 . S
H1146 C1152 0.930 . S
H1147 C1156 0.930 . S
H1148 C1161 0.929 . S
H1149 C1159 0.929 . S
H1150 C1154 0.929 . S
H1151 C1160 0.929 . S
C1152 H1146 0.930 . S
C1152 C1153 1.367 . S
C1152 C1160 1.378 . S
C1153 C1152 1.367 . S
C1153 C1161 1.433 . S
C1154 H1150 0.929 . S
C1154 C1156 1.378 . S
C1154 C1158 1.350 . S
C1155 C1158 1.463 . S
C1155 C1160 1.350 . S
C1155 N1163 1.427 . S
C1156 H1147 0.930 . S
C1156 C1154 1.378 . S
C1156 C1157 1.367 . S
C1157 C1156 1.367 . S
C1157 C1159 1.433 . S
C1158 C1154 1.350 . S
C1158 C1155 1.463 . S
C1158 N1162 1.427 . S
C1159 H1149 0.929 . S
C1159 C1157 1.433 . S
C1159 N1162 1.384 . S
C1160 H1151 0.929 . S
C1160 C1152 1.378 . S
C1160 C1155 1.350 . S
C1161 H1148 0.929 . S
C1161 C1153 1.433 . S
C1161 N1163 1.384 . S
N1162 C1158 1.427 . S
N1162 C1159 1.384 . S
N1163 C1155 1.427 . S
N1163 C1161 1.384 . S
H1164 C1170 0.930 . S
H1165 C1174 0.930 . S
H1166 C1179 0.929 . S
H1167 C1177 0.929 . S
H1168 C1172 0.929 . S
H1169 C1178 0.929 . S
C1170 H1164 0.930 . S
C1170 C1171 1.367 . S
C1170 C1178 1.378 . S
C1171 C1170 1.367 . S
C1171 C1179 1.433 . S
C1172 H1168 0.929 . S
C1172 C1174 1.378 . S
C1172 C1176 1.350 . S
C1173 C1176 1.463 . S
C1173 C1178 1.350 . S
C1173 N1181 1.427 . S
C1174 H1165 0.930 . S
C1174 C1172 1.378 . S
C1174 C1175 1.367 . S
C1175 C1174 1.367 . S
C1175 C1177 1.433 . S
C1176 C1172 1.350 . S
C1176 C1173 1.463 . S
C1176 N1180 1.427 . S
C1177 H1167 0.929 . S
C1177 C1175 1.433 . S
C1177 N1180 1.384 . S
C1178 H1169 0.929 . S
C1178 C1170 1.378 . S
C1178 C1173 1.350 . S
C1179 H1166 0.929 . S
C1179 C1171 1.433 . S
C1179 N1181 1.384 . S
N1180 C1176 1.427 . S
N1180 C1177 1.384 . S
N1181 C1173 1.427 . S
N1181 C1179 1.384 . S
H1182 C1188 0.930 . S
H1183 C1192 0.930 . S
H1184 C1197 0.929 . S
H1185 C1195 0.929 . S
H1186 C1190 0.929 . S
H1187 C1196 0.929 . S
C1188 H1182 0.930 . S
C1188 C1189 1.367 . S
C1188 C1196 1.378 . S
C1189 C1188 1.367 . S
C1189 C1197 1.433 . S
C1190 H1186 0.929 . S
C1190 C1192 1.378 . S
C1190 C1194 1.350 . S
C1191 C1194 1.463 . S
C1191 C1196 1.350 . S
C1191 N1199 1.427 . S
C1192 H1183 0.930 . S
C1192 C1190 1.378 . S
C1192 C1193 1.367 . S
C1193 C1192 1.367 . S
C1193 C1195 1.433 . S
C1194 C1190 1.350 . S
C1194 C1191 1.463 . S
C1194 N1198 1.427 . S
C1195 H1185 0.929 . S
C1195 C1193 1.433 . S
C1195 N1198 1.384 . S
C1196 H1187 0.929 . S
C1196 C1188 1.378 . S
C1196 C1191 1.350 . S
C1197 H1184 0.929 . S
C1197 C1189 1.433 . S
C1197 N1199 1.384 . S
N1198 C1194 1.427 . S
N1198 C1195 1.384 . S
N1199 C1191 1.427 . S
N1199 C1197 1.384 . S
H1200 C1206 0.930 . S
H1201 C1210 0.930 . S
H1202 C1215 0.929 . S
H1203 C1213 0.929 . S
H1204 C1208 0.929 . S
H1205 C1214 0.929 . S
C1206 H1200 0.930 . S
C1206 C1207 1.367 . S
C1206 C1214 1.378 . S
C1207 C1206 1.367 . S
C1207 C1215 1.433 . S
C1208 H1204 0.929 . S
C1208 C1210 1.378 . S
C1208 C1212 1.350 . S
C1209 C1212 1.463 . S
C1209 C1214 1.350 . S
C1209 N1217 1.427 . S
C1210 H1201 0.930 . S
C1210 C1208 1.378 . S
C1210 C1211 1.367 . S
C1211 C1210 1.367 . S
C1211 C1213 1.433 . S
C1212 C1208 1.350 . S
C1212 C1209 1.463 . S
C1212 N1216 1.427 . S
C1213 H1203 0.929 . S
C1213 C1211 1.433 . S
C1213 N1216 1.384 . S
C1214 H1205 0.929 . S
C1214 C1206 1.378 . S
C1214 C1209 1.350 . S
C1215 H1202 0.929 . S
C1215 C1207 1.433 . S
C1215 N1217 1.384 . S
N1216 C1212 1.427 . S
N1216 C1213 1.384 . S
N1217 C1209 1.427 . S
N1217 C1215 1.384 . S
H1218 C1224 0.930 . S
H1219 C1228 0.930 . S
H1220 C1233 0.929 . S
H1221 C1231 0.929 . S
H1222 C1226 0.929 . S
H1223 C1232 0.929 . S
C1224 H1218 0.930 . S
C1224 C1225 1.367 . S
C1224 C1232 1.378 . S
C1225 C1224 1.367 . S
C1225 C1233 1.433 . S
C1226 H1222 0.929 . S
C1226 C1228 1.378 . S
C1226 C1230 1.350 . S
C1227 C1230 1.463 . S
C1227 C1232 1.350 . S
C1227 N1235 1.427 . S
C1228 H1219 0.930 . S
C1228 C1226 1.378 . S
C1228 C1229 1.367 . S
C1229 C1228 1.367 . S
C1229 C1231 1.433 . S
C1230 C1226 1.350 . S
C1230 C1227 1.463 . S
C1230 N1234 1.427 . S
C1231 H1221 0.929 . S
C1231 C1229 1.433 . S
C1231 N1234 1.384 . S
C1232 H1223 0.929 . S
C1232 C1224 1.378 . S
C1232 C1227 1.350 . S
C1233 H1220 0.929 . S
C1233 C1225 1.433 . S
C1233 N1235 1.384 . S
N1234 C1230 1.427 . S
N1234 C1231 1.384 . S
N1235 C1227 1.427 . S
N1235 C1233 1.384 . S
H1236 C1242 0.930 . S
H1237 C1246 0.930 . S
H1238 C1251 0.929 . S
H1239 C1249 0.929 . S
H1240 C1244 0.929 . S
H1241 C1250 0.929 . S
C1242 H1236 0.930 . S
C1242 C1243 1.367 . S
C1242 C1250 1.378 . S
C1243 C1242 1.367 . S
C1243 C1251 1.433 . S
C1244 H1240 0.929 . S
C1244 C1246 1.378 . S
C1244 C1248 1.350 . S
C1245 C1248 1.463 . S
C1245 C1250 1.350 . S
C1245 N1253 1.427 . S
C1246 H1237 0.930 . S
C1246 C1244 1.378 . S
C1246 C1247 1.367 . S
C1247 C1246 1.367 . S
C1247 C1249 1.433 . S
C1248 C1244 1.350 . S
C1248 C1245 1.463 . S
C1248 N1252 1.427 . S
C1249 H1239 0.929 . S
C1249 C1247 1.433 . S
C1249 N1252 1.384 . S
C1250 H1241 0.929 . S
C1250 C1242 1.378 . S
C1250 C1245 1.350 . S
C1251 H1238 0.929 . S
C1251 C1243 1.433 . S
C1251 N1253 1.384 . S
N1252 C1248 1.427 . S
N1252 C1249 1.384 . S
N1253 C1245 1.427 . S
N1253 C1251 1.384 . S
H1254 C1260 0.930 . S
H1255 C1264 0.911 1_545 S
H1256 C1269 0.929 1_556 S
H1257 C1267 0.929 . S
H1258 C1262 0.929 . S
H1259 C1268 0.929 . S
C1260 H1254 0.930 . S
C1260 C1261 1.367 . S
C1260 C1268 1.378 . S
C1261 C1260 1.367 . S
C1261 C1269 1.433 . S
C1262 H1258 0.929 . S
C1262 C1264 1.378 . S
C1262 C1266 1.350 . S
C1263 C1266 1.463 . S
C1263 C1268 1.350 . S
C1263 N1271 1.427 . S
C1264 H1255 0.911 1_565 S
C1264 C1262 1.378 . S
C1264 C1265 1.367 . S
C1265 C1264 1.367 . S
C1265 C1267 1.433 . S
C1266 C1262 1.350 . S
C1266 C1263 1.463 . S
C1266 N1270 1.427 . S
C1267 H1257 0.929 . S
C1267 C1265 1.433 . S
C1267 N1270 1.384 . S
C1268 H1259 0.929 . S
C1268 C1260 1.378 . S
C1268 C1263 1.350 . S
C1269 H1256 0.929 1_554 S
C1269 C1261 1.433 . S
C1269 N1271 1.384 . S
N1270 C1266 1.427 . S
N1270 C1267 1.384 . S
N1271 C1263 1.427 . S
N1271 C1269 1.384 . S
H1272 C1278 0.930 . S
H1273 C1282 0.930 . S
H1274 C1287 0.929 . S
H1275 C1285 0.929 . S
H1276 C1280 0.929 . S
H1277 C1286 0.929 . S
C1278 H1272 0.930 . S
C1278 C1279 1.367 . S
C1278 C1286 1.378 . S
C1279 C1278 1.367 . S
C1279 C1287 1.433 . S
C1280 H1276 0.929 . S
C1280 C1282 1.378 . S
C1280 C1284 1.350 . S
C1281 C1284 1.463 . S
C1281 C1286 1.350 . S
C1281 N1289 1.427 . S
C1282 H1273 0.930 . S
C1282 C1280 1.378 . S
C1282 C1283 1.367 . S
C1283 C1282 1.367 . S
C1283 C1285 1.433 . S
C1284 C1280 1.350 . S
C1284 C1281 1.463 . S
C1284 N1288 1.427 . S
C1285 H1275 0.929 . S
C1285 C1283 1.433 . S
C1285 N1288 1.384 . S
C1286 H1277 0.929 . S
C1286 C1278 1.378 . S
C1286 C1281 1.350 . S
C1287 H1274 0.929 . S
C1287 C1279 1.433 . S
C1287 N1289 1.384 . S
N1288 C1284 1.427 . S
N1288 C1285 1.384 . S
N1289 C1281 1.427 . S
N1289 C1287 1.384 . S
H1290 C1296 0.930 . S
H1291 C1300 0.930 . S
H1292 C1305 0.929 . S
H1293 C1303 0.929 . S
H1294 C1298 0.929 . S
H1295 C1304 0.929 . S
C1296 H1290 0.930 . S
C1296 C1297 1.367 . S
C1296 C1304 1.378 . S
C1297 C1296 1.367 . S
C1297 C1305 1.433 . S
C1298 H1294 0.929 . S
C1298 C1300 1.378 . S
C1298 C1302 1.350 . S
C1299 C1302 1.463 . S
C1299 C1304 1.350 . S
C1299 N1307 1.427 . S
C1300 H1291 0.930 . S
C1300 C1298 1.378 . S
C1300 C1301 1.367 . S
C1301 C1300 1.367 . S
C1301 C1303 1.433 . S
C1302 C1298 1.350 . S
C1302 C1299 1.463 . S
C1302 N1306 1.427 . S
C1303 H1293 0.929 . S
C1303 C1301 1.433 . S
C1303 N1306 1.384 . S
C1304 H1295 0.929 . S
C1304 C1296 1.378 . S
C1304 C1299 1.350 . S
C1305 H1292 0.929 . S
C1305 C1297 1.433 . S
C1305 N1307 1.384 . S
N1306 C1302 1.427 . S
N1306 C1303 1.384 . S
N1307 C1299 1.427 . S
N1307 C1305 1.384 . S
H1308 C1314 0.930 . S
H1309 C1318 0.930 . S
H1310 C1323 0.929 . S
H1311 C1321 0.929 . S
H1312 C1316 0.929 . S
H1313 C1322 0.929 . S
C1314 H1308 0.930 . S
C1314 C1315 1.367 . S
C1314 C1322 1.378 . S
C1315 C1314 1.367 . S
C1315 C1323 1.433 . S
C1316 H1312 0.929 . S
C1316 C1318 1.378 . S
C1316 C1320 1.350 . S
C1317 C1320 1.463 . S
C1317 C1322 1.350 . S
C1317 N1325 1.427 . S
C1318 H1309 0.930 . S
C1318 C1316 1.378 . S
C1318 C1319 1.367 . S
C1319 C1318 1.367 . S
C1319 C1321 1.433 . S
C1320 C1316 1.350 . S
C1320 C1317 1.463 . S
C1320 N1324 1.427 . S
C1321 H1311 0.929 . S
C1321 C1319 1.433 . S
C1321 N1324 1.384 . S
C1322 H1313 0.929 . S
C1322 C1314 1.378 . S
C1322 C1317 1.350 . S
C1323 H1310 0.929 . S
C1323 C1315 1.433 . S
C1323 N1325 1.384 . S
N1324 C1320 1.427 . S
N1324 C1321 1.384 . S
N1325 C1317 1.427 . S
N1325 C1323 1.384 . S
H1326 C1332 0.930 . S
H1327 C1336 0.930 1_545 S
H1328 C1341 0.929 1_554 S
H1329 C1339 0.929 . S
H1330 C1334 0.929 . S
H1331 C1340 0.929 . S
C1332 H1326 0.930 . S
C1332 C1333 1.367 . S
C1332 C1340 1.378 . S
C1333 C1332 1.367 . S
C1333 C1341 1.433 . S
C1334 H1330 0.929 . S
C1334 C1336 1.378 . S
C1334 C1338 1.350 . S
C1335 C1338 1.463 . S
C1335 C1340 1.350 . S
C1335 N1343 1.427 . S
C1336 H1327 0.930 1_565 S
C1336 C1334 1.378 . S
C1336 C1337 1.367 . S
C1337 C1336 1.367 . S
C1337 C1339 1.433 . S
C1338 C1334 1.350 . S
C1338 C1335 1.463 . S
C1338 N1342 1.427 . S
C1339 H1329 0.929 . S
C1339 C1337 1.433 . S
C1339 N1342 1.384 . S
C1340 H1331 0.929 . S
C1340 C1332 1.378 . S
C1340 C1335 1.350 . S
C1341 H1328 0.929 1_556 S
C1341 C1333 1.433 . S
C1341 N1343 1.384 . S
N1342 C1338 1.427 . S
N1342 C1339 1.384 . S
N1343 C1335 1.427 . S
N1343 C1341 1.384 . S
H1344 C1350 0.930 . S
H1345 C1354 0.930 . S
H1346 C1359 0.929 . S
H1347 C1357 0.929 . S
H1348 C1352 0.929 . S
H1349 C1358 0.929 . S
C1350 H1344 0.930 . S
C1350 C1351 1.367 . S
C1350 C1358 1.378 . S
C1351 C1350 1.367 . S
C1351 C1359 1.433 . S
C1352 H1348 0.929 . S
C1352 C1354 1.378 . S
C1352 C1356 1.350 . S
C1353 C1356 1.463 . S
C1353 C1358 1.350 . S
C1353 N1361 1.427 . S
C1354 H1345 0.930 . S
C1354 C1352 1.378 . S
C1354 C1355 1.367 . S
C1355 C1354 1.367 . S
C1355 C1357 1.433 . S
C1356 C1352 1.350 . S
C1356 C1353 1.463 . S
C1356 N1360 1.427 . S
C1357 H1347 0.929 . S
C1357 C1355 1.433 . S
C1357 N1360 1.384 . S
C1358 H1349 0.929 . S
C1358 C1350 1.378 . S
C1358 C1353 1.350 . S
C1359 H1346 0.929 . S
C1359 C1351 1.433 . S
C1359 N1361 1.384 . S
N1360 C1356 1.427 . S
N1360 C1357 1.384 . S
N1361 C1353 1.427 . S
N1361 C1359 1.384 . S
H1362 C1368 0.930 . S
H1363 C1372 0.930 . S
H1364 C1377 0.929 . S
H1365 C1375 0.929 . S
H1366 C1370 0.929 . S
H1367 C1376 0.929 . S
C1368 H1362 0.930 . S
C1368 C1369 1.367 . S
C1368 C1376 1.378 . S
C1369 C1368 1.367 . S
C1369 C1377 1.433 . S
C1370 H1366 0.929 . S
C1370 C1372 1.378 . S
C1370 C1374 1.350 . S
C1371 C1374 1.463 . S
C1371 C1376 1.350 . S
C1371 N1379 1.427 . S
C1372 H1363 0.930 . S
C1372 C1370 1.378 . S
C1372 C1373 1.367 . S
C1373 C1372 1.367 . S
C1373 C1375 1.433 . S
C1374 C1370 1.350 . S
C1374 C1371 1.463 . S
C1374 N1378 1.427 . S
C1375 H1365 0.929 . S
C1375 C1373 1.433 . S
C1375 N1378 1.384 . S
C1376 H1367 0.929 . S
C1376 C1368 1.378 . S
C1376 C1371 1.350 . S
C1377 H1364 0.929 . S
C1377 C1369 1.433 . S
C1377 N1379 1.384 . S
N1378 C1374 1.427 . S
N1378 C1375 1.384 . S
N1379 C1371 1.427 . S
N1379 C1377 1.384 . S
H1380 C1386 0.930 . S
H1381 C1390 0.930 . S
H1382 C1395 0.929 . S
H1383 C1393 0.929 . S
H1384 C1388 0.929 . S
H1385 C1394 0.929 . S
C1386 H1380 0.930 . S
C1386 C1387 1.367 . S
C1386 C1394 1.378 . S
C1387 C1386 1.367 . S
C1387 C1395 1.433 . S
C1388 H1384 0.929 . S
C1388 C1390 1.378 . S
C1388 C1392 1.350 . S
C1389 C1392 1.463 . S
C1389 C1394 1.350 . S
C1389 N1397 1.427 . S
C1390 H1381 0.930 . S
C1390 C1388 1.378 . S
C1390 C1391 1.367 . S
C1391 C1390 1.367 . S
C1391 C1393 1.433 . S
C1392 C1388 1.350 . S
C1392 C1389 1.463 . S
C1392 N1396 1.427 . S
C1393 H1383 0.929 . S
C1393 C1391 1.433 . S
C1393 N1396 1.384 . S
C1394 H1385 0.929 . S
C1394 C1386 1.378 . S
C1394 C1389 1.350 . S
C1395 H1382 0.929 . S
C1395 C1387 1.433 . S
C1395 N1397 1.384 . S
N1396 C1392 1.427 . S
N1396 C1393 1.384 . S
N1397 C1389 1.427 . S
N1397 C1395 1.384 . S
H1398 C1404 0.930 . S
H1399 C1408 0.930 . S
H1400 C1413 0.929 . S
H1401 C1411 0.929 . S
H1402 C1406 0.929 . S
H1403 C1412 0.929 . S
C1404 H1398 0.930 . S
C1404 C1405 1.367 . S
C1404 C1412 1.378 . S
C1405 C1404 1.367 . S
C1405 C1413 1.433 . S
C1406 H1402 0.929 . S
C1406 C1408 1.378 . S
C1406 C1410 1.350 . S
C1407 C1410 1.463 . S
C1407 C1412 1.350 . S
C1407 N1415 1.427 . S
C1408 H1399 0.930 . S
C1408 C1406 1.378 . S
C1408 C1409 1.367 . S
C1409 C1408 1.367 . S
C1409 C1411 1.433 . S
C1410 C1406 1.350 . S
C1410 C1407 1.463 . S
C1410 N1414 1.427 . S
C1411 H1401 0.929 . S
C1411 C1409 1.433 . S
C1411 N1414 1.384 . S
C1412 H1403 0.929 . S
C1412 C1404 1.378 . S
C1412 C1407 1.350 . S
C1413 H1400 0.929 . S
C1413 C1405 1.433 . S
C1413 N1415 1.384 . S
N1414 C1410 1.427 . S
N1414 C1411 1.384 . S
N1415 C1407 1.427 . S
N1415 C1413 1.384 . S
H1416 C1422 0.930 . S
H1417 C1426 0.930 . S
H1418 C1431 0.929 . S
H1419 C1429 0.929 . S
H1420 C1424 0.929 . S
H1421 C1430 0.929 . S
C1422 H1416 0.930 . S
C1422 C1423 1.367 . S
C1422 C1430 1.378 . S
C1423 C1422 1.367 . S
C1423 C1431 1.433 . S
C1424 H1420 0.929 . S
C1424 C1426 1.378 . S
C1424 C1428 1.350 . S
C1425 C1428 1.463 . S
C1425 C1430 1.350 . S
C1425 N1433 1.427 . S
C1426 H1417 0.930 . S
C1426 C1424 1.378 . S
C1426 C1427 1.367 . S
C1427 C1426 1.367 . S
C1427 C1429 1.433 . S
C1428 C1424 1.350 . S
C1428 C1425 1.463 . S
C1428 N1432 1.427 . S
C1429 H1419 0.929 . S
C1429 C1427 1.433 . S
C1429 N1432 1.384 . S
C1430 H1421 0.929 . S
C1430 C1422 1.378 . S
C1430 C1425 1.350 . S
C1431 H1418 0.929 . S
C1431 C1423 1.433 . S
C1431 N1433 1.384 . S
N1432 C1428 1.427 . S
N1432 C1429 1.384 . S
N1433 C1425 1.427 . S
N1433 C1431 1.384 . S
H1434 C1440 0.930 . S
H1435 C1444 0.930 . S
H1436 C1449 0.929 . S
H1437 C1447 0.929 . S
H1438 C1442 0.929 . S
H1439 C1448 0.929 . S
C1440 H1434 0.930 . S
C1440 C1441 1.367 . S
C1440 C1448 1.378 . S
C1441 C1440 1.367 . S
C1441 C1449 1.433 . S
C1442 H1438 0.929 . S
C1442 C1444 1.378 . S
C1442 C1446 1.350 . S
C1443 C1446 1.463 . S
C1443 C1448 1.350 . S
C1443 N1451 1.427 . S
C1444 H1435 0.930 . S
C1444 C1442 1.378 . S
C1444 C1445 1.367 . S
C1445 C1444 1.367 . S
C1445 C1447 1.433 . S
C1446 C1442 1.350 . S
C1446 C1443 1.463 . S
C1446 N1450 1.427 . S
C1447 H1437 0.929 . S
C1447 C1445 1.433 . S
C1447 N1450 1.384 . S
C1448 H1439 0.929 . S
C1448 C1440 1.378 . S
C1448 C1443 1.350 . S
C1449 H1436 0.929 . S
C1449 C1441 1.433 . S
C1449 N1451 1.384 . S
N1450 C1446 1.427 . S
N1450 C1447 1.384 . S
N1451 C1443 1.427 . S
N1451 C1449 1.384 . S
H1452 C1458 0.930 . S
H1453 C1462 0.930 . S
H1454 C1467 0.929 . S
H1455 C1465 0.929 . S
H1456 C1460 0.929 . S
H1457 C1466 0.929 . S
C1458 H1452 0.930 . S
C1458 C1459 1.367 . S
C1458 C1466 1.378 . S
C1459 C1458 1.367 . S
C1459 C1467 1.433 . S
C1460 H1456 0.929 . S
C1460 C1462 1.378 . S
C1460 C1464 1.350 . S
C1461 C1464 1.463 . S
C1461 C1466 1.350 . S
C1461 N1469 1.427 . S
C1462 H1453 0.930 . S
C1462 C1460 1.378 . S
C1462 C1463 1.367 . S
C1463 C1462 1.367 . S
C1463 C1465 1.433 . S
C1464 C1460 1.350 . S
C1464 C1461 1.463 . S
C1464 N1468 1.427 . S
C1465 H1455 0.929 . S
C1465 C1463 1.433 . S
C1465 N1468 1.384 . S
C1466 H1457 0.929 . S
C1466 C1458 1.378 . S
C1466 C1461 1.350 . S
C1467 H1454 0.929 . S
C1467 C1459 1.433 . S
C1467 N1469 1.384 . S
N1468 C1464 1.427 . S
N1468 C1465 1.384 . S
N1469 C1461 1.427 . S
N1469 C1467 1.384 . S
H1470 C1476 0.930 . S
H1471 C1480 0.930 . S
H1472 C1485 0.929 . S
H1473 C1483 0.929 . S
H1474 C1478 0.929 . S
H1475 C1484 0.929 . S
C1476 H1470 0.930 . S
C1476 C1477 1.367 . S
C1476 C1484 1.378 . S
C1477 C1476 1.367 . S
C1477 C1485 1.433 . S
C1478 H1474 0.929 . S
C1478 C1480 1.378 . S
C1478 C1482 1.350 . S
C1479 C1482 1.463 . S
C1479 C1484 1.350 . S
C1479 N1487 1.427 . S
C1480 H1471 0.930 . S
C1480 C1478 1.378 . S
C1480 C1481 1.367 . S
C1481 C1480 1.367 . S
C1481 C1483 1.433 . S
C1482 C1478 1.350 . S
C1482 C1479 1.463 . S
C1482 N1486 1.427 . S
C1483 H1473 0.929 . S
C1483 C1481 1.433 . S
C1483 N1486 1.384 . S
C1484 H1475 0.929 . S
C1484 C1476 1.378 . S
C1484 C1479 1.350 . S
C1485 H1472 0.929 . S
C1485 C1477 1.433 . S
C1485 N1487 1.384 . S
N1486 C1482 1.427 . S
N1486 C1483 1.384 . S
N1487 C1479 1.427 . S
N1487 C1485 1.384 . S
H1488 C1494 0.930 . S
H1489 C1498 0.930 . S
H1490 C1503 0.929 . S
H1491 C1501 0.929 . S
H1492 C1496 0.929 . S
H1493 C1502 0.929 . S
C1494 H1488 0.930 . S
C1494 C1495 1.367 . S
C1494 C1502 1.378 . S
C1495 C1494 1.367 . S
C1495 C1503 1.433 . S
C1496 H1492 0.929 . S
C1496 C1498 1.378 . S
C1496 C1500 1.350 . S
C1497 C1500 1.463 . S
C1497 C1502 1.350 . S
C1497 N1505 1.427 . S
C1498 H1489 0.930 . S
C1498 C1496 1.378 . S
C1498 C1499 1.367 . S
C1499 C1498 1.367 . S
C1499 C1501 1.433 . S
C1500 C1496 1.350 . S
C1500 C1497 1.463 . S
C1500 N1504 1.427 . S
C1501 H1491 0.929 . S
C1501 C1499 1.433 . S
C1501 N1504 1.384 . S
C1502 H1493 0.929 . S
C1502 C1494 1.378 . S
C1502 C1497 1.350 . S
C1503 H1490 0.929 . S
C1503 C1495 1.433 . S
C1503 N1505 1.384 . S
N1504 C1500 1.427 . S
N1504 C1501 1.384 . S
N1505 C1497 1.427 . S
N1505 C1503 1.384 . S
H1506 C1512 0.930 . S
H1507 C1516 0.930 1_556 S
H1508 C1521 0.929 . S
H1509 C1519 0.929 . S
H1510 C1514 0.929 . S
H1511 C1520 0.929 . S
C1512 H1506 0.930 . S
C1512 C1513 1.367 . S
C1512 C1520 1.378 . S
C1513 C1512 1.367 . S
C1513 C1521 1.433 . S
C1514 H1510 0.929 . S
C1514 C1516 1.378 . S
C1514 C1518 1.350 . S
C1515 C1518 1.463 . S
C1515 C1520 1.350 . S
C1515 N1523 1.427 . S
C1516 H1507 0.930 1_554 S
C1516 C1514 1.378 . S
C1516 C1517 1.367 . S
C1517 C1516 1.367 . S
C1517 C1519 1.433 . S
C1518 C1514 1.350 . S
C1518 C1515 1.463 . S
C1518 N1522 1.427 . S
C1519 H1509 0.929 . S
C1519 C1517 1.433 . S
C1519 N1522 1.384 . S
C1520 H1511 0.929 . S
C1520 C1512 1.378 . S
C1520 C1515 1.350 . S
C1521 H1508 0.929 . S
C1521 C1513 1.433 . S
C1521 N1523 1.384 . S
N1522 C1518 1.427 . S
N1522 C1519 1.384 . S
N1523 C1515 1.427 . S
N1523 C1521 1.384 . S
H1524 C1530 0.930 . S
H1525 C1534 0.930 . S
H1526 C1539 0.929 . S
H1527 C1537 0.929 . S
H1528 C1532 0.929 . S
H1529 C1538 0.929 . S
C1530 H1524 0.930 . S
C1530 C1531 1.367 . S
C1530 C1538 1.378 . S
C1531 C1530 1.367 . S
C1531 C1539 1.433 . S
C1532 H1528 0.929 . S
C1532 C1534 1.378 . S
C1532 C1536 1.350 . S
C1533 C1536 1.463 . S
C1533 C1538 1.350 . S
C1533 N1541 1.427 . S
C1534 H1525 0.930 . S
C1534 C1532 1.378 . S
C1534 C1535 1.367 . S
C1535 C1534 1.367 . S
C1535 C1537 1.433 . S
C1536 C1532 1.350 . S
C1536 C1533 1.463 . S
C1536 N1540 1.427 . S
C1537 H1527 0.929 . S
C1537 C1535 1.433 . S
C1537 N1540 1.384 . S
C1538 H1529 0.929 . S
C1538 C1530 1.378 . S
C1538 C1533 1.350 . S
C1539 H1526 0.929 . S
C1539 C1531 1.433 . S
C1539 N1541 1.384 . S
N1540 C1536 1.427 . S
N1540 C1537 1.384 . S
N1541 C1533 1.427 . S
N1541 C1539 1.384 . S
H1542 C1548 0.930 . S
H1543 C1552 0.930 . S
H1544 C1557 0.929 . S
H1545 C1555 0.929 . S
H1546 C1550 0.929 . S
H1547 C1556 0.929 . S
C1548 H1542 0.930 . S
C1548 C1549 1.367 . S
C1548 C1556 1.378 . S
C1549 C1548 1.367 . S
C1549 C1557 1.433 . S
C1550 H1546 0.929 . S
C1550 C1552 1.378 . S
C1550 C1554 1.350 . S
C1551 C1554 1.463 . S
C1551 C1556 1.350 . S
C1551 N1559 1.427 . S
C1552 H1543 0.930 . S
C1552 C1550 1.378 . S
C1552 C1553 1.367 . S
C1553 C1552 1.367 . S
C1553 C1555 1.433 . S
C1554 C1550 1.350 . S
C1554 C1551 1.463 . S
C1554 N1558 1.427 . S
C1555 H1545 0.929 . S
C1555 C1553 1.433 . S
C1555 N1558 1.384 . S
C1556 H1547 0.929 . S
C1556 C1548 1.378 . S
C1556 C1551 1.350 . S
C1557 H1544 0.929 . S
C1557 C1549 1.433 . S
C1557 N1559 1.384 . S
N1558 C1554 1.427 . S
N1558 C1555 1.384 . S
N1559 C1551 1.427 . S
N1559 C1557 1.384 . S
H1560 C1566 0.930 . S
H1561 C1570 0.930 . S
H1562 C1575 0.929 . S
H1563 C1573 0.929 . S
H1564 C1568 0.929 . S
H1565 C1574 0.929 . S
C1566 H1560 0.930 . S
C1566 C1567 1.367 . S
C1566 C1574 1.378 . S
C1567 C1566 1.367 . S
C1567 C1575 1.433 . S
C1568 H1564 0.929 . S
C1568 C1570 1.378 . S
C1568 C1572 1.350 . S
C1569 C1572 1.463 . S
C1569 C1574 1.350 . S
C1569 N1577 1.427 . S
C1570 H1561 0.930 . S
C1570 C1568 1.378 . S
C1570 C1571 1.367 . S
C1571 C1570 1.367 . S
C1571 C1573 1.433 . S
C1572 C1568 1.350 . S
C1572 C1569 1.463 . S
C1572 N1576 1.427 . S
C1573 H1563 0.929 . S
C1573 C1571 1.433 . S
C1573 N1576 1.384 . S
C1574 H1565 0.929 . S
C1574 C1566 1.378 . S
C1574 C1569 1.350 . S
C1575 H1562 0.929 . S
C1575 C1567 1.433 . S
C1575 N1577 1.384 . S
N1576 C1572 1.427 . S
N1576 C1573 1.384 . S
N1577 C1569 1.427 . S
N1577 C1575 1.384 . S
H1578 C1584 0.930 . S
H1579 C1588 0.930 . S
H1580 C1593 0.929 . S
H1581 C1591 0.929 1_655 S
H1582 C1586 0.929 . S
H1583 C1592 0.929 . S
C1584 H1578 0.930 . S
C1584 C1585 1.367 . S
C1584 C1592 1.378 . S
C1585 C1584 1.367 . S
C1585 C1593 1.433 . S
C1586 H1582 0.929 . S
C1586 C1588 1.378 . S
C1586 C1590 1.350 . S
C1587 C1590 1.463 . S
C1587 C1592 1.350 . S
C1587 N1595 1.427 . S
C1588 H1579 0.930 . S
C1588 C1586 1.378 . S
C1588 C1589 1.367 . S
C1589 C1588 1.367 . S
C1589 C1591 1.433 . S
C1590 C1586 1.350 . S
C1590 C1587 1.463 . S
C1590 N1594 1.427 . S
C1591 H1581 0.929 1_455 S
C1591 C1589 1.433 . S
C1591 N1594 1.384 . S
C1592 H1583 0.929 . S
C1592 C1584 1.378 . S
C1592 C1587 1.350 . S
C1593 H1580 0.929 . S
C1593 C1585 1.433 . S
C1593 N1595 1.384 . S
N1594 C1590 1.427 . S
N1594 C1591 1.384 . S
N1595 C1587 1.427 . S
N1595 C1593 1.384 . S
H1596 C1602 0.930 . S
H1597 C1606 0.930 . S
H1598 C1611 0.929 . S
H1599 C1609 0.929 . S
H1600 C1604 0.929 . S
H1601 C1610 0.929 . S
C1602 H1596 0.930 . S
C1602 C1603 1.367 . S
C1602 C1610 1.378 . S
C1603 C1602 1.367 . S
C1603 C1611 1.433 . S
C1604 H1600 0.929 . S
C1604 C1606 1.378 . S
C1604 C1608 1.350 . S
C1605 C1608 1.463 . S
C1605 C1610 1.350 . S
C1605 N1613 1.427 . S
C1606 H1597 0.930 . S
C1606 C1604 1.378 . S
C1606 C1607 1.367 . S
C1607 C1606 1.367 . S
C1607 C1609 1.433 . S
C1608 C1604 1.350 . S
C1608 C1605 1.463 . S
C1608 N1612 1.427 . S
C1609 H1599 0.929 . S
C1609 C1607 1.433 . S
C1609 N1612 1.384 . S
C1610 H1601 0.929 . S
C1610 C1602 1.378 . S
C1610 C1605 1.350 . S
C1611 H1598 0.929 . S
C1611 C1603 1.433 . S
C1611 N1613 1.384 . S
N1612 C1608 1.427 . S
N1612 C1609 1.384 . S
N1613 C1605 1.427 . S
N1613 C1611 1.384 . S
H1614 C1620 0.930 . S
H1615 C1624 0.930 . S
H1616 C1629 0.929 . S
H1617 C1627 0.929 . S
H1618 C1622 0.929 . S
H1619 C1628 0.929 . S
C1620 H1614 0.930 . S
C1620 C1621 1.367 . S
C1620 C1628 1.378 . S
C1621 C1620 1.367 . S
C1621 C1629 1.433 . S
C1622 H1618 0.929 . S
C1622 C1624 1.378 . S
C1622 C1626 1.350 . S
C1623 C1626 1.463 . S
C1623 C1628 1.350 . S
C1623 N1631 1.427 . S
C1624 H1615 0.930 . S
C1624 C1622 1.378 . S
C1624 C1625 1.367 . S
C1625 C1624 1.367 . S
C1625 C1627 1.433 . S
C1626 C1622 1.350 . S
C1626 C1623 1.463 . S
C1626 N1630 1.427 . S
C1627 H1617 0.929 . S
C1627 C1625 1.433 . S
C1627 N1630 1.384 . S
C1628 H1619 0.929 . S
C1628 C1620 1.378 . S
C1628 C1623 1.350 . S
C1629 H1616 0.929 . S
C1629 C1621 1.433 . S
C1629 N1631 1.384 . S
N1630 C1626 1.427 . S
N1630 C1627 1.384 . S
N1631 C1623 1.427 . S
N1631 C1629 1.384 . S
H1632 C1638 0.930 . S
H1633 C1642 0.930 . S
H1634 C1647 0.929 . S
H1635 C1645 0.929 . S
H1636 C1640 0.929 . S
H1637 C1646 0.929 . S
C1638 H1632 0.930 . S
C1638 C1639 1.367 . S
C1638 C1646 1.378 . S
C1639 C1638 1.367 . S
C1639 C1647 1.433 . S
C1640 H1636 0.929 . S
C1640 C1642 1.378 . S
C1640 C1644 1.350 . S
C1641 C1644 1.463 . S
C1641 C1646 1.350 . S
C1641 N1649 1.427 . S
C1642 H1633 0.930 . S
C1642 C1640 1.378 . S
C1642 C1643 1.367 . S
C1643 C1642 1.367 . S
C1643 C1645 1.433 . S
C1644 C1640 1.350 . S
C1644 C1641 1.463 . S
C1644 N1648 1.427 . S
C1645 H1635 0.929 . S
C1645 C1643 1.433 . S
C1645 N1648 1.384 . S
C1646 H1637 0.929 . S
C1646 C1638 1.378 . S
C1646 C1641 1.350 . S
C1647 H1634 0.929 . S
C1647 C1639 1.433 . S
C1647 N1649 1.384 . S
N1648 C1644 1.427 . S
N1648 C1645 1.384 . S
N1649 C1641 1.427 . S
N1649 C1647 1.384 . S
H1650 C1656 0.930 . S
H1651 C1660 0.930 1_556 S
H1652 C1665 0.929 . S
H1653 C1663 0.929 . S
H1654 C1658 0.929 . S
H1655 C1664 0.929 . S
C1656 H1650 0.930 . S
C1656 C1657 1.367 . S
C1656 C1664 1.378 . S
C1657 C1656 1.367 . S
C1657 C1665 1.433 . S
C1658 H1654 0.929 . S
C1658 C1660 1.378 . S
C1658 C1662 1.350 . S
C1659 C1662 1.463 . S
C1659 C1664 1.350 . S
C1659 N1667 1.427 . S
C1660 H1651 0.930 1_554 S
C1660 C1658 1.378 . S
C1660 C1661 1.367 . S
C1661 C1660 1.367 . S
C1661 C1663 1.433 . S
C1662 C1658 1.350 . S
C1662 C1659 1.463 . S
C1662 N1666 1.427 . S
C1663 H1653 0.929 . S
C1663 C1661 1.433 . S
C1663 N1666 1.384 . S
C1664 H1655 0.929 . S
C1664 C1656 1.378 . S
C1664 C1659 1.350 . S
C1665 H1652 0.929 . S
C1665 C1657 1.433 . S
C1665 N1667 1.384 . S
N1666 C1662 1.427 . S
N1666 C1663 1.384 . S
N1667 C1659 1.427 . S
N1667 C1665 1.384 . S
H1668 C1674 0.930 . S
H1669 C1678 0.930 . S
H1670 C1683 0.929 . S
H1671 C1681 0.929 . S
H1672 C1676 0.929 . S
H1673 C1682 0.929 . S
C1674 H1668 0.930 . S
C1674 C1675 1.367 . S
C1674 C1682 1.378 . S
C1675 C1674 1.367 . S
C1675 C1683 1.433 . S
C1676 H1672 0.929 . S
C1676 C1678 1.378 . S
C1676 C1680 1.350 . S
C1677 C1680 1.463 . S
C1677 C1682 1.350 . S
C1677 N1685 1.427 . S
C1678 H1669 0.930 . S
C1678 C1676 1.378 . S
C1678 C1679 1.367 . S
C1679 C1678 1.367 . S
C1679 C1681 1.433 . S
C1680 C1676 1.350 . S
C1680 C1677 1.463 . S
C1680 N1684 1.427 . S
C1681 H1671 0.929 . S
C1681 C1679 1.433 . S
C1681 N1684 1.384 . S
C1682 H1673 0.929 . S
C1682 C1674 1.378 . S
C1682 C1677 1.350 . S
C1683 H1670 0.929 . S
C1683 C1675 1.433 . S
C1683 N1685 1.384 . S
N1684 C1680 1.427 . S
N1684 C1681 1.384 . S
N1685 C1677 1.427 . S
N1685 C1683 1.384 . S
H1686 C1692 0.930 . S
H1687 C1696 0.930 . S
H1688 C1701 0.929 . S
H1689 C1699 0.929 . S
H1690 C1694 0.929 . S
H1691 C1700 0.929 . S
C1692 H1686 0.930 . S
C1692 C1693 1.367 . S
C1692 C1700 1.378 . S
C1693 C1692 1.367 . S
C1693 C1701 1.433 . S
C1694 H1690 0.929 . S
C1694 C1696 1.378 . S
C1694 C1698 1.350 . S
C1695 C1698 1.463 . S
C1695 C1700 1.350 . S
C1695 N1703 1.427 . S
C1696 H1687 0.930 . S
C1696 C1694 1.378 . S
C1696 C1697 1.367 . S
C1697 C1696 1.367 . S
C1697 C1699 1.433 . S
C1698 C1694 1.350 . S
C1698 C1695 1.463 . S
C1698 N1702 1.427 . S
C1699 H1689 0.929 . S
C1699 C1697 1.433 . S
C1699 N1702 1.384 . S
C1700 H1691 0.929 . S
C1700 C1692 1.378 . S
C1700 C1695 1.350 . S
C1701 H1688 0.929 . S
C1701 C1693 1.433 . S
C1701 N1703 1.384 . S
N1702 C1698 1.427 . S
N1702 C1699 1.384 . S
N1703 C1695 1.427 . S
N1703 C1701 1.384 . S
H1704 C1710 0.930 . S
H1705 C1714 0.930 . S
H1706 C1719 0.929 . S
H1707 C1717 0.929 . S
H1708 C1712 0.929 . S
H1709 C1718 0.929 . S
C1710 H1704 0.930 . S
C1710 C1711 1.367 . S
C1710 C1718 1.378 . S
C1711 C1710 1.367 . S
C1711 C1719 1.433 . S
C1712 H1708 0.929 . S
C1712 C1714 1.378 . S
C1712 C1716 1.350 . S
C1713 C1716 1.463 . S
C1713 C1718 1.350 . S
C1713 N1721 1.427 . S
C1714 H1705 0.930 . S
C1714 C1712 1.378 . S
C1714 C1715 1.367 . S
C1715 C1714 1.367 . S
C1715 C1717 1.433 . S
C1716 C1712 1.350 . S
C1716 C1713 1.463 . S
C1716 N1720 1.427 . S
C1717 H1707 0.929 . S
C1717 C1715 1.433 . S
C1717 N1720 1.384 . S
C1718 H1709 0.929 . S
C1718 C1710 1.378 . S
C1718 C1713 1.350 . S
C1719 H1706 0.929 . S
C1719 C1711 1.433 . S
C1719 N1721 1.384 . S
N1720 C1716 1.427 . S
N1720 C1717 1.384 . S
N1721 C1713 1.427 . S
N1721 C1719 1.384 . S
H1722 C1728 0.930 . S
H1723 C1732 0.930 . S
H1724 C1737 0.929 . S
H1725 C1735 0.929 1_554 S
H1726 C1730 0.929 . S
H1727 C1736 0.929 . S
C1728 H1722 0.930 . S
C1728 C1729 1.367 . S
C1728 C1736 1.378 . S
C1729 C1728 1.367 . S
C1729 C1737 1.433 . S
C1730 H1726 0.929 . S
C1730 C1732 1.378 . S
C1730 C1734 1.350 . S
C1731 C1734 1.463 . S
C1731 C1736 1.350 . S
C1731 N1739 1.427 . S
C1732 H1723 0.930 . S
C1732 C1730 1.378 . S
C1732 C1733 1.367 . S
C1733 C1732 1.367 . S
C1733 C1735 1.433 . S
C1734 C1730 1.350 . S
C1734 C1731 1.463 . S
C1734 N1738 1.427 . S
C1735 H1725 0.929 1_556 S
C1735 C1733 1.433 . S
C1735 N1738 1.384 . S
C1736 H1727 0.929 . S
C1736 C1728 1.378 . S
C1736 C1731 1.350 . S
C1737 H1724 0.929 . S
C1737 C1729 1.433 . S
C1737 N1739 1.384 . S
N1738 C1734 1.427 . S
N1738 C1735 1.384 . S
N1739 C1731 1.427 . S
N1739 C1737 1.384 . S
H1740 C1746 0.930 . S
H1741 C1750 0.930 . S
H1742 C1755 0.929 . S
H1743 C1753 0.929 . S
H1744 C1748 0.929 . S
H1745 C1754 0.929 . S
C1746 H1740 0.930 . S
C1746 C1747 1.367 . S
C1746 C1754 1.378 . S
C1747 C1746 1.367 . S
C1747 C1755 1.433 . S
C1748 H1744 0.929 . S
C1748 C1750 1.378 . S
C1748 C1752 1.350 . S
C1749 C1752 1.463 . S
C1749 C1754 1.350 . S
C1749 N1757 1.427 . S
C1750 H1741 0.930 . S
C1750 C1748 1.378 . S
C1750 C1751 1.367 . S
C1751 C1750 1.367 . S
C1751 C1753 1.433 . S
C1752 C1748 1.350 . S
C1752 C1749 1.463 . S
C1752 N1756 1.427 . S
C1753 H1743 0.929 . S
C1753 C1751 1.433 . S
C1753 N1756 1.384 . S
C1754 H1745 0.929 . S
C1754 C1746 1.378 . S
C1754 C1749 1.350 . S
C1755 H1742 0.929 . S
C1755 C1747 1.433 . S
C1755 N1757 1.384 . S
N1756 C1752 1.427 . S
N1756 C1753 1.384 . S
N1757 C1749 1.427 . S
N1757 C1755 1.384 . S
H1758 C1764 0.930 . S
H1759 C1768 0.930 . S
H1760 C1773 0.929 . S
H1761 C1771 0.929 . S
H1762 C1766 0.929 . S
H1763 C1772 0.929 . S
C1764 H1758 0.930 . S
C1764 C1765 1.367 . S
C1764 C1772 1.378 . S
C1765 C1764 1.367 . S
C1765 C1773 1.433 . S
C1766 H1762 0.929 . S
C1766 C1768 1.378 . S
C1766 C1770 1.350 . S
C1767 C1770 1.463 . S
C1767 C1772 1.350 . S
C1767 N1775 1.427 . S
C1768 H1759 0.930 . S
C1768 C1766 1.378 . S
C1768 C1769 1.367 . S
C1769 C1768 1.367 . S
C1769 C1771 1.433 . S
C1770 C1766 1.350 . S
C1770 C1767 1.463 . S
C1770 N1774 1.427 . S
C1771 H1761 0.929 . S
C1771 C1769 1.433 . S
C1771 N1774 1.384 . S
C1772 H1763 0.929 . S
C1772 C1764 1.378 . S
C1772 C1767 1.350 . S
C1773 H1760 0.929 . S
C1773 C1765 1.433 . S
C1773 N1775 1.384 . S
N1774 C1770 1.427 . S
N1774 C1771 1.384 . S
N1775 C1767 1.427 . S
N1775 C1773 1.384 . S
H1776 C1782 0.930 . S
H1777 C1786 0.930 . S
H1778 C1791 0.929 . S
H1779 C1789 0.929 . S
H1780 C1784 0.929 . S
H1781 C1790 0.929 . S
C1782 H1776 0.930 . S
C1782 C1783 1.367 . S
C1782 C1790 1.378 . S
C1783 C1782 1.367 . S
C1783 C1791 1.433 . S
C1784 H1780 0.929 . S
C1784 C1786 1.378 . S
C1784 C1788 1.350 . S
C1785 C1788 1.463 . S
C1785 C1790 1.350 . S
C1785 N1793 1.427 . S
C1786 H1777 0.930 . S
C1786 C1784 1.378 . S
C1786 C1787 1.367 . S
C1787 C1786 1.367 . S
C1787 C1789 1.433 . S
C1788 C1784 1.350 . S
C1788 C1785 1.463 . S
C1788 N1792 1.427 . S
C1789 H1779 0.929 . S
C1789 C1787 1.433 . S
C1789 N1792 1.384 . S
C1790 H1781 0.929 . S
C1790 C1782 1.378 . S
C1790 C1785 1.350 . S
C1791 H1778 0.929 . S
C1791 C1783 1.433 . S
C1791 N1793 1.384 . S
N1792 C1788 1.427 . S
N1792 C1789 1.384 . S
N1793 C1785 1.427 . S
N1793 C1791 1.384 . S
H1794 C1800 0.930 . S
H1795 C1804 0.930 . S
H1796 C1809 0.929 . S
H1797 C1807 0.929 . S
H1798 C1802 0.929 . S
H1799 C1808 0.929 . S
C1800 H1794 0.930 . S
C1800 C1801 1.367 . S
C1800 C1808 1.378 . S
C1801 C1800 1.367 . S
C1801 C1809 1.433 . S
C1802 H1798 0.929 . S
C1802 C1804 1.378 . S
C1802 C1806 1.350 . S
C1803 C1806 1.463 . S
C1803 C1808 1.350 . S
C1803 N1811 1.427 . S
C1804 H1795 0.930 . S
C1804 C1802 1.378 . S
C1804 C1805 1.367 . S
C1805 C1804 1.367 . S
C1805 C1807 1.433 . S
C1806 C1802 1.350 . S
C1806 C1803 1.463 . S
C1806 N1810 1.427 . S
C1807 H1797 0.929 . S
C1807 C1805 1.433 . S
C1807 N1810 1.384 . S
C1808 H1799 0.929 . S
C1808 C1800 1.378 . S
C1808 C1803 1.350 . S
C1809 H1796 0.929 . S
C1809 C1801 1.433 . S
C1809 N1811 1.384 . S
N1810 C1806 1.427 . S
N1810 C1807 1.384 . S
N1811 C1803 1.427 . S
N1811 C1809 1.384 . S
H1812 C1818 0.930 . S
H1813 C1822 0.930 . S
H1814 C1827 0.929 . S
H1815 C1825 0.929 1_565 S
H1816 C1820 0.929 . S
H1817 C1826 0.929 . S
C1818 H1812 0.930 . S
C1818 C1819 1.367 . S
C1818 C1826 1.378 . S
C1819 C1818 1.367 . S
C1819 C1827 1.433 . S
C1820 H1816 0.929 . S
C1820 C1822 1.378 . S
C1820 C1824 1.350 . S
C1821 C1824 1.463 . S
C1821 C1826 1.350 . S
C1821 N1829 1.427 . S
C1822 H1813 0.930 . S
C1822 C1820 1.378 . S
C1822 C1823 1.367 . S
C1823 C1822 1.367 . S
C1823 C1825 1.433 . S
C1824 C1820 1.350 . S
C1824 C1821 1.463 . S
C1824 N1828 1.427 . S
C1825 H1815 0.929 1_545 S
C1825 C1823 1.433 . S
C1825 N1828 1.384 . S
C1826 H1817 0.929 . S
C1826 C1818 1.378 . S
C1826 C1821 1.350 . S
C1827 H1814 0.929 . S
C1827 C1819 1.433 . S
C1827 N1829 1.384 . S
N1828 C1824 1.427 . S
N1828 C1825 1.384 . S
N1829 C1821 1.427 . S
N1829 C1827 1.384 . S
H1830 C1836 0.930 . S
H1831 C1840 0.930 . S
H1832 C1845 0.929 . S
H1833 C1843 0.929 . S
H1834 C1838 0.929 . S
H1835 C1844 0.929 . S
C1836 H1830 0.930 . S
C1836 C1837 1.367 . S
C1836 C1844 1.378 . S
C1837 C1836 1.367 . S
C1837 C1845 1.433 . S
C1838 H1834 0.929 . S
C1838 C1840 1.378 . S
C1838 C1842 1.350 . S
C1839 C1842 1.463 . S
C1839 C1844 1.350 . S
C1839 N1847 1.427 . S
C1840 H1831 0.930 . S
C1840 C1838 1.378 . S
C1840 C1841 1.367 . S
C1841 C1840 1.367 . S
C1841 C1843 1.433 . S
C1842 C1838 1.350 . S
C1842 C1839 1.463 . S
C1842 N1846 1.427 . S
C1843 H1833 0.929 . S
C1843 C1841 1.433 . S
C1843 N1846 1.384 . S
C1844 H1835 0.929 . S
C1844 C1836 1.378 . S
C1844 C1839 1.350 . S
C1845 H1832 0.929 . S
C1845 C1837 1.433 . S
C1845 N1847 1.384 . S
N1846 C1842 1.427 . S
N1846 C1843 1.384 . S
N1847 C1839 1.427 . S
N1847 C1845 1.384 . S
H1848 C1854 0.930 . S
H1849 C1858 0.930 . S
H1850 C1863 0.929 . S
H1851 C1861 0.929 . S
H1852 C1856 0.929 . S
H1853 C1862 0.929 . S
C1854 H1848 0.930 . S
C1854 C1855 1.367 . S
C1854 C1862 1.378 . S
C1855 C1854 1.367 . S
C1855 C1863 1.433 . S
C1856 H1852 0.929 . S
C1856 C1858 1.378 . S
C1856 C1860 1.350 . S
C1857 C1860 1.463 . S
C1857 C1862 1.350 . S
C1857 N1865 1.427 . S
C1858 H1849 0.930 . S
C1858 C1856 1.378 . S
C1858 C1859 1.367 . S
C1859 C1858 1.367 . S
C1859 C1861 1.433 . S
C1860 C1856 1.350 . S
C1860 C1857 1.463 . S
C1860 N1864 1.427 . S
C1861 H1851 0.929 . S
C1861 C1859 1.433 . S
C1861 N1864 1.384 . S
C1862 H1853 0.929 . S
C1862 C1854 1.378 . S
C1862 C1857 1.350 . S
C1863 H1850 0.929 . S
C1863 C1855 1.433 . S
C1863 N1865 1.384 . S
N1864 C1860 1.427 . S
N1864 C1861 1.384 . S
N1865 C1857 1.427 . S
N1865 C1863 1.384 . S
H1866 C1872 0.930 . S
H1867 C1876 0.930 . S
H1868 C1881 0.929 . S
H1869 C1879 0.929 . S
H1870 C1874 0.929 . S
H1871 C1880 0.929 . S
C1872 H1866 0.930 . S
C1872 C1873 1.367 . S
C1872 C1880 1.378 . S
C1873 C1872 1.367 . S
C1873 C1881 1.433 . S
C1874 H1870 0.929 . S
C1874 C1876 1.378 . S
C1874 C1878 1.350 . S
C1875 C1878 1.463 . S
C1875 C1880 1.350 . S
C1875 N1883 1.427 . S
C1876 H1867 0.930 . S
C1876 C1874 1.378 . S
C1876 C1877 1.367 . S
C1877 C1876 1.367 . S
C1877 C1879 1.433 . S
C1878 C1874 1.350 . S
C1878 C1875 1.463 . S
C1878 N1882 1.427 . S
C1879 H1869 0.929 . S
C1879 C1877 1.433 . S
C1879 N1882 1.384 . S
C1880 H1871 0.929 . S
C1880 C1872 1.378 . S
C1880 C1875 1.350 . S
C1881 H1868 0.929 . S
C1881 C1873 1.433 . S
C1881 N1883 1.384 . S
N1882 C1878 1.427 . S
N1882 C1879 1.384 . S
N1883 C1875 1.427 . S
N1883 C1881 1.384 . S
H1884 C1890 0.930 . S
H1885 C1894 0.930 . S
H1886 C1899 0.929 . S
H1887 C1897 0.929 . S
H1888 C1892 0.929 . S
H1889 C1898 0.929 . S
C1890 H1884 0.930 . S
C1890 C1891 1.367 . S
C1890 C1898 1.378 . S
C1891 C1890 1.367 . S
C1891 C1899 1.433 . S
C1892 H1888 0.929 . S
C1892 C1894 1.378 . S
C1892 C1896 1.350 . S
C1893 C1896 1.463 . S
C1893 C1898 1.350 . S
C1893 N1901 1.427 . S
C1894 H1885 0.930 . S
C1894 C1892 1.378 . S
C1894 C1895 1.367 . S
C1895 C1894 1.367 . S
C1895 C1897 1.433 . S
C1896 C1892 1.350 . S
C1896 C1893 1.463 . S
C1896 N1900 1.427 . S
C1897 H1887 0.929 . S
C1897 C1895 1.433 . S
C1897 N1900 1.384 . S
C1898 H1889 0.929 . S
C1898 C1890 1.378 . S
C1898 C1893 1.350 . S
C1899 H1886 0.929 . S
C1899 C1891 1.433 . S
C1899 N1901 1.384 . S
N1900 C1896 1.427 . S
N1900 C1897 1.384 . S
N1901 C1893 1.427 . S
N1901 C1899 1.384 . S
H1902 C1908 0.930 . S
H1903 C1912 0.930 1_565 S
H1904 C1917 0.918 1_455 S
H1905 C1915 0.929 . S
H1906 C1910 0.929 . S
H1907 C1916 0.929 . S
C1908 H1902 0.930 . S
C1908 C1909 1.367 . S
C1908 C1916 1.378 . S
C1909 C1908 1.367 . S
C1909 C1917 1.433 . S
C1910 H1906 0.929 . S
C1910 C1912 1.378 . S
C1910 C1914 1.350 . S
C1911 C1914 1.463 . S
C1911 C1916 1.350 . S
C1911 N1919 1.427 . S
C1912 H1903 0.930 1_545 S
C1912 C1910 1.378 . S
C1912 C1913 1.367 . S
C1913 C1912 1.367 . S
C1913 C1915 1.433 . S
C1914 C1910 1.350 . S
C1914 C1911 1.463 . S
C1914 N1918 1.427 . S
C1915 H1905 0.929 . S
C1915 C1913 1.433 . S
C1915 N1918 1.384 . S
C1916 H1907 0.929 . S
C1916 C1908 1.378 . S
C1916 C1911 1.350 . S
C1917 H1904 0.918 1_655 S
C1917 C1909 1.433 . S
C1917 N1919 1.384 . S
N1918 C1914 1.427 . S
N1918 C1915 1.384 . S
N1919 C1911 1.427 . S
N1919 C1917 1.384 . S
H1920 C1926 0.930 . S
H1921 C1930 0.930 . S
H1922 C1935 0.929 . S
H1923 C1933 0.929 . S
H1924 C1928 0.929 . S
H1925 C1934 0.929 . S
C1926 H1920 0.930 . S
C1926 C1927 1.367 . S
C1926 C1934 1.378 . S
C1927 C1926 1.367 . S
C1927 C1935 1.433 . S
C1928 H1924 0.929 . S
C1928 C1930 1.378 . S
C1928 C1932 1.350 . S
C1929 C1932 1.463 . S
C1929 C1934 1.350 . S
C1929 N1937 1.427 . S
C1930 H1921 0.930 . S
C1930 C1928 1.378 . S
C1930 C1931 1.367 . S
C1931 C1930 1.367 . S
C1931 C1933 1.433 . S
C1932 C1928 1.350 . S
C1932 C1929 1.463 . S
C1932 N1936 1.427 . S
C1933 H1923 0.929 . S
C1933 C1931 1.433 . S
C1933 N1936 1.384 . S
C1934 H1925 0.929 . S
C1934 C1926 1.378 . S
C1934 C1929 1.350 . S
C1935 H1922 0.929 . S
C1935 C1927 1.433 . S
C1935 N1937 1.384 . S
N1936 C1932 1.427 . S
N1936 C1933 1.384 . S
N1937 C1929 1.427 . S
N1937 C1935 1.384 . S
H1938 C1944 0.930 . S
H1939 C1948 0.930 . S
H1940 C1953 0.929 . S
H1941 C1951 0.929 . S
H1942 C1946 0.929 . S
H1943 C1952 0.929 . S
C1944 H1938 0.930 . S
C1944 C1945 1.367 . S
C1944 C1952 1.378 . S
C1945 C1944 1.367 . S
C1945 C1953 1.433 . S
C1946 H1942 0.929 . S
C1946 C1948 1.378 . S
C1946 C1950 1.350 . S
C1947 C1950 1.463 . S
C1947 C1952 1.350 . S
C1947 N1955 1.427 . S
C1948 H1939 0.930 . S
C1948 C1946 1.378 . S
C1948 C1949 1.367 . S
C1949 C1948 1.367 . S
C1949 C1951 1.433 . S
C1950 C1946 1.350 . S
C1950 C1947 1.463 . S
C1950 N1954 1.427 . S
C1951 H1941 0.929 . S
C1951 C1949 1.433 . S
C1951 N1954 1.384 . S
C1952 H1943 0.929 . S
C1952 C1944 1.378 . S
C1952 C1947 1.350 . S
C1953 H1940 0.929 . S
C1953 C1945 1.433 . S
C1953 N1955 1.384 . S
N1954 C1950 1.427 . S
N1954 C1951 1.384 . S
N1955 C1947 1.427 . S
N1955 C1953 1.384 . S
H1956 C1962 0.930 . S
H1957 C1966 0.930 . S
H1958 C1971 0.929 . S
H1959 C1969 0.929 . S
H1960 C1964 0.929 . S
H1961 C1970 0.929 . S
C1962 H1956 0.930 . S
C1962 C1963 1.367 . S
C1962 C1970 1.378 . S
C1963 C1962 1.367 . S
C1963 C1971 1.433 . S
C1964 H1960 0.929 . S
C1964 C1966 1.378 . S
C1964 C1968 1.350 . S
C1965 C1968 1.463 . S
C1965 C1970 1.350 . S
C1965 N1973 1.427 . S
C1966 H1957 0.930 . S
C1966 C1964 1.378 . S
C1966 C1967 1.367 . S
C1967 C1966 1.367 . S
C1967 C1969 1.433 . S
C1968 C1964 1.350 . S
C1968 C1965 1.463 . S
C1968 N1972 1.427 . S
C1969 H1959 0.929 . S
C1969 C1967 1.433 . S
C1969 N1972 1.384 . S
C1970 H1961 0.929 . S
C1970 C1962 1.378 . S
C1970 C1965 1.350 . S
C1971 H1958 0.929 . S
C1971 C1963 1.433 . S
C1971 N1973 1.384 . S
N1972 C1968 1.427 . S
N1972 C1969 1.384 . S
N1973 C1965 1.427 . S
N1973 C1971 1.384 . S
H1974 C1980 0.930 . S
H1975 C1984 0.930 . S
H1976 C1989 0.929 . S
H1977 C1987 0.929 . S
H1978 C1982 0.929 . S
H1979 C1988 0.929 . S
C1980 H1974 0.930 . S
C1980 C1981 1.367 . S
C1980 C1988 1.378 . S
C1981 C1980 1.367 . S
C1981 C1989 1.433 . S
C1982 H1978 0.929 . S
C1982 C1984 1.378 . S
C1982 C1986 1.350 . S
C1983 C1986 1.463 . S
C1983 C1988 1.350 . S
C1983 N1991 1.427 . S
C1984 H1975 0.930 . S
C1984 C1982 1.378 . S
C1984 C1985 1.367 . S
C1985 C1984 1.367 . S
C1985 C1987 1.433 . S
C1986 C1982 1.350 . S
C1986 C1983 1.463 . S
C1986 N1990 1.427 . S
C1987 H1977 0.929 . S
C1987 C1985 1.433 . S
C1987 N1990 1.384 . S
C1988 H1979 0.929 . S
C1988 C1980 1.378 . S
C1988 C1983 1.350 . S
C1989 H1976 0.929 . S
C1989 C1981 1.433 . S
C1989 N1991 1.384 . S
N1990 C1986 1.427 . S
N1990 C1987 1.384 . S
N1991 C1983 1.427 . S
N1991 C1989 1.384 . S
H1992 C1998 0.930 . S
H1993 C2002 0.930 . S
H1994 C2007 0.929 . S
H1995 C2005 0.929 . S
H1996 C2000 0.929 . S
H1997 C2006 0.929 . S
C1998 H1992 0.930 . S
C1998 C1999 1.367 . S
C1998 C2006 1.378 . S
C1999 C1998 1.367 . S
C1999 C2007 1.433 . S
C2000 H1996 0.929 . S
C2000 C2002 1.378 . S
C2000 C2004 1.350 . S
C2001 C2004 1.463 . S
C2001 C2006 1.350 . S
C2001 N2009 1.427 . S
C2002 H1993 0.930 . S
C2002 C2000 1.378 . S
C2002 C2003 1.367 . S
C2003 C2002 1.367 . S
C2003 C2005 1.433 . S
C2004 C2000 1.350 . S
C2004 C2001 1.463 . S
C2004 N2008 1.427 . S
C2005 H1995 0.929 . S
C2005 C2003 1.433 . S
C2005 N2008 1.384 . S
C2006 H1997 0.929 . S
C2006 C1998 1.378 . S
C2006 C2001 1.350 . S
C2007 H1994 0.929 . S
C2007 C1999 1.433 . S
C2007 N2009 1.384 . S
N2008 C2004 1.427 . S
N2008 C2005 1.384 . S
N2009 C2001 1.427 . S
N2009 C2007 1.384 . S
H2010 C2016 0.930 . S
H2011 C2020 0.930 . S
H2012 C2025 0.929 . S
H2013 C2023 0.929 . S
H2014 C2018 0.929 . S
H2015 C2024 0.929 . S
C2016 H2010 0.930 . S
C2016 C2017 1.367 . S
C2016 C2024 1.378 . S
C2017 C2016 1.367 . S
C2017 C2025 1.433 . S
C2018 H2014 0.929 . S
C2018 C2020 1.378 . S
C2018 C2022 1.350 . S
C2019 C2022 1.463 . S
C2019 C2024 1.350 . S
C2019 N2027 1.427 . S
C2020 H2011 0.930 . S
C2020 C2018 1.378 . S
C2020 C2021 1.367 . S
C2021 C2020 1.367 . S
C2021 C2023 1.433 . S
C2022 C2018 1.350 . S
C2022 C2019 1.463 . S
C2022 N2026 1.427 . S
C2023 H2013 0.929 . S
C2023 C2021 1.433 . S
C2023 N2026 1.384 . S
C2024 H2015 0.929 . S
C2024 C2016 1.378 . S
C2024 C2019 1.350 . S
C2025 H2012 0.929 . S
C2025 C2017 1.433 . S
C2025 N2027 1.384 . S
N2026 C2022 1.427 . S
N2026 C2023 1.384 . S
N2027 C2019 1.427 . S
N2027 C2025 1.384 . S
H2028 C2034 0.930 . S
H2029 C2038 0.930 . S
H2030 C2043 0.929 . S
H2031 C2041 0.929 . S
H2032 C2036 0.929 . S
H2033 C2042 0.929 . S
C2034 H2028 0.930 . S
C2034 C2035 1.367 . S
C2034 C2042 1.378 . S
C2035 C2034 1.367 . S
C2035 C2043 1.433 . S
C2036 H2032 0.929 . S
C2036 C2038 1.378 . S
C2036 C2040 1.350 . S
C2037 C2040 1.463 . S
C2037 C2042 1.350 . S
C2037 N2045 1.427 . S
C2038 H2029 0.930 . S
C2038 C2036 1.378 . S
C2038 C2039 1.367 . S
C2039 C2038 1.367 . S
C2039 C2041 1.433 . S
C2040 C2036 1.350 . S
C2040 C2037 1.463 . S
C2040 N2044 1.427 . S
C2041 H2031 0.929 . S
C2041 C2039 1.433 . S
C2041 N2044 1.384 . S
C2042 H2033 0.929 . S
C2042 C2034 1.378 . S
C2042 C2037 1.350 . S
C2043 H2030 0.929 . S
C2043 C2035 1.433 . S
C2043 N2045 1.384 . S
N2044 C2040 1.427 . S
N2044 C2041 1.384 . S
N2045 C2037 1.427 . S
N2045 C2043 1.384 . S
H2046 C2052 0.930 . S
H2047 C2056 0.930 . S
H2048 C2061 0.929 . S
H2049 C2059 0.929 . S
H2050 C2054 0.929 . S
H2051 C2060 0.929 . S
C2052 H2046 0.930 . S
C2052 C2053 1.367 . S
C2052 C2060 1.378 . S
C2053 C2052 1.367 . S
C2053 C2061 1.433 . S
C2054 H2050 0.929 . S
C2054 C2056 1.378 . S
C2054 C2058 1.350 . S
C2055 C2058 1.463 . S
C2055 C2060 1.350 . S
C2055 N2063 1.427 . S
C2056 H2047 0.930 . S
C2056 C2054 1.378 . S
C2056 C2057 1.367 . S
C2057 C2056 1.367 . S
C2057 C2059 1.433 . S
C2058 C2054 1.350 . S
C2058 C2055 1.463 . S
C2058 N2062 1.427 . S
C2059 H2049 0.929 . S
C2059 C2057 1.433 . S
C2059 N2062 1.384 . S
C2060 H2051 0.929 . S
C2060 C2052 1.378 . S
C2060 C2055 1.350 . S
C2061 H2048 0.929 . S
C2061 C2053 1.433 . S
C2061 N2063 1.384 . S
N2062 C2058 1.427 . S
N2062 C2059 1.384 . S
N2063 C2055 1.427 . S
N2063 C2061 1.384 . S
H2064 C2070 0.930 . S
H2065 C2074 0.930 . S
H2066 C2079 0.929 . S
H2067 C2077 0.929 . S
H2068 C2072 0.929 . S
H2069 C2078 0.929 . S
C2070 H2064 0.930 . S
C2070 C2071 1.367 . S
C2070 C2078 1.378 . S
C2071 C2070 1.367 . S
C2071 C2079 1.433 . S
C2072 H2068 0.929 . S
C2072 C2074 1.378 . S
C2072 C2076 1.350 . S
C2073 C2076 1.463 . S
C2073 C2078 1.350 . S
C2073 N2081 1.427 . S
C2074 H2065 0.930 . S
C2074 C2072 1.378 . S
C2074 C2075 1.367 . S
C2075 C2074 1.367 . S
C2075 C2077 1.433 . S
C2076 C2072 1.350 . S
C2076 C2073 1.463 . S
C2076 N2080 1.427 . S
C2077 H2067 0.929 . S
C2077 C2075 1.433 . S
C2077 N2080 1.384 . S
C2078 H2069 0.929 . S
C2078 C2070 1.378 . S
C2078 C2073 1.350 . S
C2079 H2066 0.929 . S
C2079 C2071 1.433 . S
C2079 N2081 1.384 . S
N2080 C2076 1.427 . S
N2080 C2077 1.384 . S
N2081 C2073 1.427 . S
N2081 C2079 1.384 . S
H2082 C2088 0.930 . S
H2083 C2092 0.930 . S
H2084 C2097 0.929 . S
H2085 C2095 0.929 . S
H2086 C2090 0.929 . S
H2087 C2096 0.929 . S
C2088 H2082 0.930 . S
C2088 C2089 1.367 . S
C2088 C2096 1.378 . S
C2089 C2088 1.367 . S
C2089 C2097 1.433 . S
C2090 H2086 0.929 . S
C2090 C2092 1.378 . S
C2090 C2094 1.350 . S
C2091 C2094 1.463 . S
C2091 C2096 1.350 . S
C2091 N2099 1.427 . S
C2092 H2083 0.930 . S
C2092 C2090 1.378 . S
C2092 C2093 1.367 . S
C2093 C2092 1.367 . S
C2093 C2095 1.433 . S
C2094 C2090 1.350 . S
C2094 C2091 1.463 . S
C2094 N2098 1.427 . S
C2095 H2085 0.929 . S
C2095 C2093 1.433 . S
C2095 N2098 1.384 . S
C2096 H2087 0.929 . S
C2096 C2088 1.378 . S
C2096 C2091 1.350 . S
C2097 H2084 0.929 . S
C2097 C2089 1.433 . S
C2097 N2099 1.384 . S
N2098 C2094 1.427 . S
N2098 C2095 1.384 . S
N2099 C2091 1.427 . S
N2099 C2097 1.384 . S
H2100 C2106 0.930 . S
H2101 C2110 0.930 . S
H2102 C2115 0.929 . S
H2103 C2113 0.929 . S
H2104 C2108 0.929 . S
H2105 C2114 0.929 . S
C2106 H2100 0.930 . S
C2106 C2107 1.367 . S
C2106 C2114 1.378 . S
C2107 C2106 1.367 . S
C2107 C2115 1.433 . S
C2108 H2104 0.929 . S
C2108 C2110 1.378 . S
C2108 C2112 1.350 . S
C2109 C2112 1.463 . S
C2109 C2114 1.350 . S
C2109 N2117 1.427 . S
C2110 H2101 0.930 . S
C2110 C2108 1.378 . S
C2110 C2111 1.367 . S
C2111 C2110 1.367 . S
C2111 C2113 1.433 . S
C2112 C2108 1.350 . S
C2112 C2109 1.463 . S
C2112 N2116 1.427 . S
C2113 H2103 0.929 . S
C2113 C2111 1.433 . S
C2113 N2116 1.384 . S
C2114 H2105 0.929 . S
C2114 C2106 1.378 . S
C2114 C2109 1.350 . S
C2115 H2102 0.929 . S
C2115 C2107 1.433 . S
C2115 N2117 1.384 . S
N2116 C2112 1.427 . S
N2116 C2113 1.384 . S
N2117 C2109 1.427 . S
N2117 C2115 1.384 . S
H2118 C2124 0.930 . S
H2119 C2128 0.930 . S
H2120 C2133 0.929 . S
H2121 C2131 0.929 . S
H2122 C2126 0.929 . S
H2123 C2132 0.929 . S
C2124 H2118 0.930 . S
C2124 C2125 1.367 . S
C2124 C2132 1.378 . S
C2125 C2124 1.367 . S
C2125 C2133 1.433 . S
C2126 H2122 0.929 . S
C2126 C2128 1.378 . S
C2126 C2130 1.350 . S
C2127 C2130 1.463 . S
C2127 C2132 1.350 . S
C2127 N2135 1.427 . S
C2128 H2119 0.930 . S
C2128 C2126 1.378 . S
C2128 C2129 1.367 . S
C2129 C2128 1.367 . S
C2129 C2131 1.433 . S
C2130 C2126 1.350 . S
C2130 C2127 1.463 . S
C2130 N2134 1.427 . S
C2131 H2121 0.929 . S
C2131 C2129 1.433 . S
C2131 N2134 1.384 . S
C2132 H2123 0.929 . S
C2132 C2124 1.378 . S
C2132 C2127 1.350 . S
C2133 H2120 0.929 . S
C2133 C2125 1.433 . S
C2133 N2135 1.384 . S
N2134 C2130 1.427 . S
N2134 C2131 1.384 . S
N2135 C2127 1.427 . S
N2135 C2133 1.384 . S
H2136 C2142 0.930 . S
H2137 C2146 0.930 . S
H2138 C2151 0.929 . S
H2139 C2149 0.929 . S
H2140 C2144 0.929 . S
H2141 C2150 0.929 . S
C2142 H2136 0.930 . S
C2142 C2143 1.367 . S
C2142 C2150 1.378 . S
C2143 C2142 1.367 . S
C2143 C2151 1.433 . S
C2144 H2140 0.929 . S
C2144 C2146 1.378 . S
C2144 C2148 1.350 . S
C2145 C2148 1.463 . S
C2145 C2150 1.350 . S
C2145 N2153 1.427 . S
C2146 H2137 0.930 . S
C2146 C2144 1.378 . S
C2146 C2147 1.367 . S
C2147 C2146 1.367 . S
C2147 C2149 1.433 . S
C2148 C2144 1.350 . S
C2148 C2145 1.463 . S
C2148 N2152 1.427 . S
C2149 H2139 0.929 . S
C2149 C2147 1.433 . S
C2149 N2152 1.384 . S
C2150 H2141 0.929 . S
C2150 C2142 1.378 . S
C2150 C2145 1.350 . S
C2151 H2138 0.929 . S
C2151 C2143 1.433 . S
C2151 N2153 1.384 . S
N2152 C2148 1.427 . S
N2152 C2149 1.384 . S
N2153 C2145 1.427 . S
N2153 C2151 1.384 . S
H2154 C2160 0.930 . S
H2155 C2164 0.930 . S
H2156 C2169 0.929 . S
H2157 C2167 0.929 . S
H2158 C2162 0.929 . S
H2159 C2168 0.929 . S
C2160 H2154 0.930 . S
C2160 C2161 1.367 . S
C2160 C2168 1.378 . S
C2161 C2160 1.367 . S
C2161 C2169 1.433 . S
C2162 H2158 0.929 . S
C2162 C2164 1.378 . S
C2162 C2166 1.350 . S
C2163 C2166 1.463 . S
C2163 C2168 1.350 . S
C2163 N2171 1.427 . S
C2164 H2155 0.930 . S
C2164 C2162 1.378 . S
C2164 C2165 1.367 . S
C2165 C2164 1.367 . S
C2165 C2167 1.433 . S
C2166 C2162 1.350 . S
C2166 C2163 1.463 . S
C2166 N2170 1.427 . S
C2167 H2157 0.929 . S
C2167 C2165 1.433 . S
C2167 N2170 1.384 . S
C2168 H2159 0.929 . S
C2168 C2160 1.378 . S
C2168 C2163 1.350 . S
C2169 H2156 0.929 . S
C2169 C2161 1.433 . S
C2169 N2171 1.384 . S
N2170 C2166 1.427 . S
N2170 C2167 1.384 . S
N2171 C2163 1.427 . S
N2171 C2169 1.384 . S
H2172 C2178 0.930 . S
H2173 C2182 0.930 . S
H2174 C2187 0.929 . S
H2175 C2185 0.929 . S
H2176 C2180 0.929 . S
H2177 C2186 0.929 . S
C2178 H2172 0.930 . S
C2178 C2179 1.367 . S
C2178 C2186 1.378 . S
C2179 C2178 1.367 . S
C2179 C2187 1.433 . S
C2180 H2176 0.929 . S
C2180 C2182 1.378 . S
C2180 C2184 1.350 . S
C2181 C2184 1.463 . S
C2181 C2186 1.350 . S
C2181 N2189 1.427 . S
C2182 H2173 0.930 . S
C2182 C2180 1.378 . S
C2182 C2183 1.367 . S
C2183 C2182 1.367 . S
C2183 C2185 1.433 . S
C2184 C2180 1.350 . S
C2184 C2181 1.463 . S
C2184 N2188 1.427 . S
C2185 H2175 0.929 . S
C2185 C2183 1.433 . S
C2185 N2188 1.384 . S
C2186 H2177 0.929 . S
C2186 C2178 1.378 . S
C2186 C2181 1.350 . S
C2187 H2174 0.929 . S
C2187 C2179 1.433 . S
C2187 N2189 1.384 . S
N2188 C2184 1.427 . S
N2188 C2185 1.384 . S
N2189 C2181 1.427 . S
N2189 C2187 1.384 . S
H2190 C2196 0.930 . S
H2191 C2200 0.930 . S
H2192 C2205 0.929 . S
H2193 C2203 0.929 . S
H2194 C2198 0.929 . S
H2195 C2204 0.929 . S
C2196 H2190 0.930 . S
C2196 C2197 1.367 . S
C2196 C2204 1.378 . S
C2197 C2196 1.367 . S
C2197 C2205 1.433 . S
C2198 H2194 0.929 . S
C2198 C2200 1.378 . S
C2198 C2202 1.350 . S
C2199 C2202 1.463 . S
C2199 C2204 1.350 . S
C2199 N2207 1.427 . S
C2200 H2191 0.930 . S
C2200 C2198 1.378 . S
C2200 C2201 1.367 . S
C2201 C2200 1.367 . S
C2201 C2203 1.433 . S
C2202 C2198 1.350 . S
C2202 C2199 1.463 . S
C2202 N2206 1.427 . S
C2203 H2193 0.929 . S
C2203 C2201 1.433 . S
C2203 N2206 1.384 . S
C2204 H2195 0.929 . S
C2204 C2196 1.378 . S
C2204 C2199 1.350 . S
C2205 H2192 0.929 . S
C2205 C2197 1.433 . S
C2205 N2207 1.384 . S
N2206 C2202 1.427 . S
N2206 C2203 1.384 . S
N2207 C2199 1.427 . S
N2207 C2205 1.384 . S
H2208 C2214 0.930 . S
H2209 C2218 0.930 . S
H2210 C2223 0.929 . S
H2211 C2221 0.929 . S
H2212 C2216 0.929 . S
H2213 C2222 0.929 . S
C2214 H2208 0.930 . S
C2214 C2215 1.367 . S
C2214 C2222 1.378 . S
C2215 C2214 1.367 . S
C2215 C2223 1.433 . S
C2216 H2212 0.929 . S
C2216 C2218 1.378 . S
C2216 C2220 1.350 . S
C2217 C2220 1.463 . S
C2217 C2222 1.350 . S
C2217 N2225 1.427 . S
C2218 H2209 0.930 . S
C2218 C2216 1.378 . S
C2218 C2219 1.367 . S
C2219 C2218 1.367 . S
C2219 C2221 1.433 . S
C2220 C2216 1.350 . S
C2220 C2217 1.463 . S
C2220 N2224 1.427 . S
C2221 H2211 0.929 . S
C2221 C2219 1.433 . S
C2221 N2224 1.384 . S
C2222 H2213 0.929 . S
C2222 C2214 1.378 . S
C2222 C2217 1.350 . S
C2223 H2210 0.929 . S
C2223 C2215 1.433 . S
C2223 N2225 1.384 . S
N2224 C2220 1.427 . S
N2224 C2221 1.384 . S
N2225 C2217 1.427 . S
N2225 C2223 1.384 . S
H2226 C2232 0.930 . S
H2227 C2236 0.930 . S
H2228 C2241 0.929 . S
H2229 C2239 0.929 . S
H2230 C2234 0.929 . S
H2231 C2240 0.929 . S
C2232 H2226 0.930 . S
C2232 C2233 1.367 . S
C2232 C2240 1.378 . S
C2233 C2232 1.367 . S
C2233 C2241 1.433 . S
C2234 H2230 0.929 . S
C2234 C2236 1.378 . S
C2234 C2238 1.350 . S
C2235 C2238 1.463 . S
C2235 C2240 1.350 . S
C2235 N2243 1.427 . S
C2236 H2227 0.930 . S
C2236 C2234 1.378 . S
C2236 C2237 1.367 . S
C2237 C2236 1.367 . S
C2237 C2239 1.433 . S
C2238 C2234 1.350 . S
C2238 C2235 1.463 . S
C2238 N2242 1.427 . S
C2239 H2229 0.929 . S
C2239 C2237 1.433 . S
C2239 N2242 1.384 . S
C2240 H2231 0.929 . S
C2240 C2232 1.378 . S
C2240 C2235 1.350 . S
C2241 H2228 0.929 . S
C2241 C2233 1.433 . S
C2241 N2243 1.384 . S
N2242 C2238 1.427 . S
N2242 C2239 1.384 . S
N2243 C2235 1.427 . S
N2243 C2241 1.384 . S
H2244 C2250 0.930 . S
H2245 C2254 0.930 . S
H2246 C2259 0.929 . S
H2247 C2257 0.929 . S
H2248 C2252 0.929 . S
H2249 C2258 0.929 . S
C2250 H2244 0.930 . S
C2250 C2251 1.367 . S
C2250 C2258 1.378 . S
C2251 C2250 1.367 . S
C2251 C2259 1.433 . S
C2252 H2248 0.929 . S
C2252 C2254 1.378 . S
C2252 C2256 1.350 . S
C2253 C2256 1.463 . S
C2253 C2258 1.350 . S
C2253 N2261 1.427 . S
C2254 H2245 0.930 . S
C2254 C2252 1.378 . S
C2254 C2255 1.367 . S
C2255 C2254 1.367 . S
C2255 C2257 1.433 . S
C2256 C2252 1.350 . S
C2256 C2253 1.463 . S
C2256 N2260 1.427 . S
C2257 H2247 0.929 . S
C2257 C2255 1.433 . S
C2257 N2260 1.384 . S
C2258 H2249 0.929 . S
C2258 C2250 1.378 . S
C2258 C2253 1.350 . S
C2259 H2246 0.929 . S
C2259 C2251 1.433 . S
C2259 N2261 1.384 . S
N2260 C2256 1.427 . S
N2260 C2257 1.384 . S
N2261 C2253 1.427 . S
N2261 C2259 1.384 . S
H2262 C2268 0.930 . S
H2263 C2272 0.930 . S
H2264 C2277 0.929 . S
H2265 C2275 0.929 . S
H2266 C2270 0.929 . S
H2267 C2276 0.929 . S
C2268 H2262 0.930 . S
C2268 C2269 1.367 . S
C2268 C2276 1.378 . S
C2269 C2268 1.367 . S
C2269 C2277 1.433 . S
C2270 H2266 0.929 . S
C2270 C2272 1.378 . S
C2270 C2274 1.350 . S
C2271 C2274 1.463 . S
C2271 C2276 1.350 . S
C2271 N2279 1.427 . S
C2272 H2263 0.930 . S
C2272 C2270 1.378 . S
C2272 C2273 1.367 . S
C2273 C2272 1.367 . S
C2273 C2275 1.433 . S
C2274 C2270 1.350 . S
C2274 C2271 1.463 . S
C2274 N2278 1.427 . S
C2275 H2265 0.929 . S
C2275 C2273 1.433 . S
C2275 N2278 1.384 . S
C2276 H2267 0.929 . S
C2276 C2268 1.378 . S
C2276 C2271 1.350 . S
C2277 H2264 0.929 . S
C2277 C2269 1.433 . S
C2277 N2279 1.384 . S
N2278 C2274 1.427 . S
N2278 C2275 1.384 . S
N2279 C2271 1.427 . S
N2279 C2277 1.384 . S
H2280 C2286 0.930 . S
H2281 C2290 0.930 . S
H2282 C2295 0.929 . S
H2283 C2293 0.929 . S
H2284 C2288 0.929 . S
H2285 C2294 0.929 . S
C2286 H2280 0.930 . S
C2286 C2287 1.367 . S
C2286 C2294 1.378 . S
C2287 C2286 1.367 . S
C2287 C2295 1.433 . S
C2288 H2284 0.929 . S
C2288 C2290 1.378 . S
C2288 C2292 1.350 . S
C2289 C2292 1.463 . S
C2289 C2294 1.350 . S
C2289 N2297 1.427 . S
C2290 H2281 0.930 . S
C2290 C2288 1.378 . S
C2290 C2291 1.367 . S
C2291 C2290 1.367 . S
C2291 C2293 1.433 . S
C2292 C2288 1.350 . S
C2292 C2289 1.463 . S
C2292 N2296 1.427 . S
C2293 H2283 0.929 . S
C2293 C2291 1.433 . S
C2293 N2296 1.384 . S
C2294 H2285 0.929 . S
C2294 C2286 1.378 . S
C2294 C2289 1.350 . S
C2295 H2282 0.929 . S
C2295 C2287 1.433 . S
C2295 N2297 1.384 . S
N2296 C2292 1.427 . S
N2296 C2293 1.384 . S
N2297 C2289 1.427 . S
N2297 C2295 1.384 . S
H2298 C2304 0.930 . S
H2299 C2308 0.930 . S
H2300 C2313 0.929 . S
H2301 C2311 0.929 . S
H2302 C2306 0.929 . S
H2303 C2312 0.929 . S
C2304 H2298 0.930 . S
C2304 C2305 1.367 . S
C2304 C2312 1.378 . S
C2305 C2304 1.367 . S
C2305 C2313 1.433 . S
C2306 H2302 0.929 . S
C2306 C2308 1.378 . S
C2306 C2310 1.350 . S
C2307 C2310 1.463 . S
C2307 C2312 1.350 . S
C2307 N2315 1.427 . S
C2308 H2299 0.930 . S
C2308 C2306 1.378 . S
C2308 C2309 1.367 . S
C2309 C2308 1.367 . S
C2309 C2311 1.433 . S
C2310 C2306 1.350 . S
C2310 C2307 1.463 . S
C2310 N2314 1.427 . S
C2311 H2301 0.929 . S
C2311 C2309 1.433 . S
C2311 N2314 1.384 . S
C2312 H2303 0.929 . S
C2312 C2304 1.378 . S
C2312 C2307 1.350 . S
C2313 H2300 0.929 . S
C2313 C2305 1.433 . S
C2313 N2315 1.384 . S
N2314 C2310 1.427 . S
N2314 C2311 1.384 . S
N2315 C2307 1.427 . S
N2315 C2313 1.384 . S
H2316 C2322 0.930 . S
H2317 C2326 0.930 . S
H2318 C2331 0.929 . S
H2319 C2329 0.929 . S
H2320 C2324 0.929 . S
H2321 C2330 0.929 . S
C2322 H2316 0.930 . S
C2322 C2323 1.367 . S
C2322 C2330 1.378 . S
C2323 C2322 1.367 . S
C2323 C2331 1.433 . S
C2324 H2320 0.929 . S
C2324 C2326 1.378 . S
C2324 C2328 1.350 . S
C2325 C2328 1.463 . S
C2325 C2330 1.350 . S
C2325 N2333 1.427 . S
C2326 H2317 0.930 . S
C2326 C2324 1.378 . S
C2326 C2327 1.367 . S
C2327 C2326 1.367 . S
C2327 C2329 1.433 . S
C2328 C2324 1.350 . S
C2328 C2325 1.463 . S
C2328 N2332 1.427 . S
C2329 H2319 0.929 . S
C2329 C2327 1.433 . S
C2329 N2332 1.384 . S
C2330 H2321 0.929 . S
C2330 C2322 1.378 . S
C2330 C2325 1.350 . S
C2331 H2318 0.929 . S
C2331 C2323 1.433 . S
C2331 N2333 1.384 . S
N2332 C2328 1.427 . S
N2332 C2329 1.384 . S
N2333 C2325 1.427 . S
N2333 C2331 1.384 . S
H2334 C2340 0.930 . S
H2335 C2344 0.930 . S
H2336 C2349 0.929 . S
H2337 C2347 0.929 . S
H2338 C2342 0.929 . S
H2339 C2348 0.929 . S
C2340 H2334 0.930 . S
C2340 C2341 1.367 . S
C2340 C2348 1.378 . S
C2341 C2340 1.367 . S
C2341 C2349 1.433 . S
C2342 H2338 0.929 . S
C2342 C2344 1.378 . S
C2342 C2346 1.350 . S
C2343 C2346 1.463 . S
C2343 C2348 1.350 . S
C2343 N2351 1.427 . S
C2344 H2335 0.930 . S
C2344 C2342 1.378 . S
C2344 C2345 1.367 . S
C2345 C2344 1.367 . S
C2345 C2347 1.433 . S
C2346 C2342 1.350 . S
C2346 C2343 1.463 . S
C2346 N2350 1.427 . S
C2347 H2337 0.929 . S
C2347 C2345 1.433 . S
C2347 N2350 1.384 . S
C2348 H2339 0.929 . S
C2348 C2340 1.378 . S
C2348 C2343 1.350 . S
C2349 H2336 0.929 . S
C2349 C2341 1.433 . S
C2349 N2351 1.384 . S
N2350 C2346 1.427 . S
N2350 C2347 1.384 . S
N2351 C2343 1.427 . S
N2351 C2349 1.384 . S
C631 C82 1.366 . S
C635 C4 1.367 . S
C649 C17 1.362 . S
C653 C101 1.361 . S
C667 C36 1.366 . S
C671 C62 1.365 . S
C685 C69 1.361 . S
C689 C43 1.361 . S
C703 C446 1.367 . S
C707 C114 1.366 . S
C721 C459 1.365 . S
C725 C127 1.364 . S
C739 C134 1.361 . S
C743 C426 1.362 . S
C757 C147 1.365 . S
C761 C433 1.364 . S
C775 C504 1.361 . S
C779 C160 1.362 . S
C793 C517 1.362 . S
C797 C179 1.363 . S
C811 C472 1.363 . S
C815 C192 1.362 . S
C829 C485 1.361 . S
C833 C199 1.363 . S
C847 C212 1.361 . S
C851 C543 1.362 . S
C865 C231 1.361 . S
C869 C530 1.361 . S
C883 C244 1.362 . S
C887 C303 1.364 . S
C901 C589 1.365 . S
C905 C257 1.366 . S
C919 C602 1.364 . S
C923 C270 1.366 . S
C937 C563 1.364 . S
C941 C283 1.363 . S
C955 C576 1.367 . S
C959 C296 1.367 . S
C973 C400 1.366 . S
C977 C322 1.364 . S
C991 C407 1.363 . S
C995 C335 1.362 . S
C1009 C342 1.366 . S
C1013 C374 1.365 . S
C1027 C355 1.363 . S
C1031 C381 1.362 . S
C1045 C615 1.362 . S
C1049 C556 1.361 . S
C1063 C211 1.204 . S
C1067 C5 1.219 . S
C1081 C18 1.216 1_655 S
C1085 C614 1.209 . S
C1099 C29 1.221 . S
C1103 C278 1.198 . S
C1117 C601 1.208 . S
C1121 C44 1.216 . S
C1135 C55 1.216 . S
C1139 C538 1.209 . S
C1153 C551 1.197 . S
C1157 C70 1.221 . S
C1171 C83 1.221 . S
C1175 C562 1.197 . S
C1189 C265 1.207 . S
C1193 C94 1.216 1_655 S
C1207 C107 1.217 . S
C1211 C3 1.207 . S
C1225 C16 1.206 . S
C1229 C120 1.217 . S
C1243 C135 1.216 . S
C1247 C31 1.209 . S
C1261 C148 1.219 1_554 S
C1265 C42 1.202 . S
C1279 C161 1.216 . S
C1283 C57 1.208 . S
C1297 C68 1.209 . S
C1301 C172 1.216 . S
C1315 C185 1.216 . S
C1319 C81 1.208 . S
C1333 C200 1.220 1_556 S
C1337 C96 1.199 . S
C1351 C213 1.222 . S
C1355 C109 1.196 . S
C1369 C224 1.220 . S
C1373 C471 1.200 . S
C1387 C484 1.204 . S
C1391 C237 1.218 . S
C1405 C499 1.197 . S
C1409 C250 1.221 . S
C1423 C263 1.221 1_565 S
C1427 C198 1.196 . S
C1441 C276 1.217 . S
C1445 C133 1.207 . S
C1459 C458 1.197 . S
C1463 C289 1.222 . S
C1477 C432 1.203 . S
C1481 C304 1.219 . S
C1495 C315 1.219 . S
C1499 C525 1.201 . S
C1513 C328 1.219 . S
C1517 C302 1.201 . S
C1531 C343 1.216 . S
C1535 C588 1.208 . S
C1549 C356 1.216 1_455 S
C1553 C291 1.208 . S
C1567 C367 1.217 . S
C1571 C226 1.205 . S
C1585 C239 1.204 . S
C1589 C382 1.218 1_455 S
C1603 C252 1.203 . S
C1607 C393 1.219 . S
C1621 C575 1.205 . S
C1625 C408 1.217 . S
C1639 C317 1.206 . S
C1643 C419 1.217 . S
C1657 C330 1.206 . S
C1661 C434 1.218 1_554 S
C1675 C447 1.216 . S
C1679 C341 1.209 . S
C1693 C354 1.206 . S
C1697 C460 1.217 . S
C1711 C473 1.222 . S
C1715 C369 1.196 . S
C1729 C380 1.204 . S
C1733 C486 1.217 1_556 S
C1747 C497 1.222 . S
C1751 C395 1.197 . S
C1765 C406 1.197 . S
C1769 C510 1.221 . S
C1783 C523 1.217 . S
C1787 C421 1.205 . S
C1801 C536 1.216 . S
C1805 C159 1.209 . S
C1819 C174 1.198 . S
C1823 C549 1.221 1_545 S
C1837 C564 1.217 . S
C1841 C187 1.205 . S
C1855 C577 1.220 . S
C1859 C512 1.199 . S
C1873 C445 1.197 . S
C1877 C590 1.222 . S
C1891 C603 1.216 1_565 S
C1895 C146 1.209 . S
C1909 C122 1.203 . S
C1913 C616 1.219 1_545 S
C1927 C121 1.011 . S
C1931 C10 1.015 . S
C1945 C23 1.014 . S
C1949 C140 1.018 . S
C1963 C153 1.011 . S
C1967 C30 1.016 . S
C1981 C108 1.016 . S
C1985 C49 1.016 . S
C1999 C56 1.017 . S
C2003 C205 1.015 . S
C2017 C75 1.011 . S
C2021 C166 1.016 . S
C2035 C173 1.017 . S
C2039 C88 1.011 . S
C2053 C186 1.011 . S
C2057 C95 1.016 . S
C2071 C218 1.017 . S
C2075 C238 1.015 . S
C2089 C225 1.012 . S
C2093 C608 1.014 . S
C2107 C251 1.012 . S
C2111 C621 1.018 . S
C2125 C595 1.013 . S
C2129 C264 1.018 . S
C2143 C582 1.016 . S
C2147 C277 1.011 . S
C2161 C537 1.018 . S
C2165 C290 1.013 . S
C2179 C309 1.013 . S
C2183 C569 1.013 . S
C2197 C439 1.015 . S
C2201 C316 1.011 . S
C2215 C452 1.015 . S
C2219 C329 1.012 . S
C2233 C348 1.013 . S
C2237 C465 1.018 . S
C2251 C420 1.016 . S
C2255 C361 1.016 . S
C2269 C511 1.017 . S
C2273 C368 1.015 . S
C2287 C478 1.015 . S
C2291 C387 1.017 . S
C2305 C394 1.017 . S
C2309 C491 1.011 . S
C2323 C498 1.013 . S
C2327 C413 1.018 . S
C2341 C550 1.016 . S
C2345 C524 1.016 . S
