# Generated by pormake.
# Topology lcy-e, (6)-cn, num edge types: 1
# Building blocks:
#     Node 0, Type 0, BuildingBlock: OJICUG_clean_sbu_0, # of connection points: 6
#     Node 1, Type 0, BuildingBlock: OJICUG_clean_sbu_0, # of connection points: 6
#     Node 2, Type 0, BuildingBlock: OJICUG_clean_sbu_0, # of connection points: 6
#     Node 3, Type 0, BuildingBlock: OJICUG_clean_sbu_0, # of connection points: 6
#     Node 4, Type 0, BuildingBlock: OJICUG_clean_sbu_0, # of connection points: 6
#     Node 5, Type 0, BuildingBlock: OJICUG_clean_sbu_0, # of connection points: 6
#     Node 6, Type 0, BuildingBlock: OJICUG_clean_sbu_0, # of connection points: 6
#     Node 7, Type 0, BuildingBlock: OJICUG_clean_sbu_0, # of connection points: 6
#     Node 8, Type 0, BuildingBlock: OJICUG_clean_sbu_0, # of connection points: 6
#     Node 9, Type 0, BuildingBlock: OJICUG_clean_sbu_0, # of connection points: 6
#     Node 10, Type 0, BuildingBlock: OJICUG_clean_sbu_0, # of connection points: 6
#     Node 11, Type 0, BuildingBlock: OJICUG_clean_sbu_0, # of connection points: 6
#     Edge 12, Type (0, 0), BuildingBlock: CIFDUS_clean_linker_0, # of connection points: 2
#     Edge 13, Type (0, 0), BuildingBlock: CIFDUS_clean_linker_0, # of connection points: 2
#     Edge 14, Type (0, 0), BuildingBlock: CIFDUS_clean_linker_0, # of connection points: 2
#     Edge 15, Type (0, 0), BuildingBlock: CIFDUS_clean_linker_0, # of connection points: 2
#     Edge 16, Type (0, 0), BuildingBlock: CIFDUS_clean_linker_0, # of connection points: 2
#     Edge 17, Type (0, 0), BuildingBlock: CIFDUS_clean_linker_0, # of connection points: 2
#     Edge 18, Type (0, 0), BuildingBlock: CIFDUS_clean_linker_0, # of connection points: 2
#     Edge 19, Type (0, 0), BuildingBlock: CIFDUS_clean_linker_0, # of connection points: 2
#     Edge 20, Type (0, 0), BuildingBlock: CIFDUS_clean_linker_0, # of connection points: 2
#     Edge 21, Type (0, 0), BuildingBlock: CIFDUS_clean_linker_0, # of connection points: 2
#     Edge 22, Type (0, 0), BuildingBlock: CIFDUS_clean_linker_0, # of connection points: 2
#     Edge 23, Type (0, 0), BuildingBlock: CIFDUS_clean_linker_0, # of connection points: 2
#     Edge 24, Type (0, 0), BuildingBlock: CIFDUS_clean_linker_0, # of connection points: 2
#     Edge 25, Type (0, 0), BuildingBlock: CIFDUS_clean_linker_0, # of connection points: 2
#     Edge 26, Type (0, 0), BuildingBlock: CIFDUS_clean_linker_0, # of connection points: 2
#     Edge 27, Type (0, 0), BuildingBlock: CIFDUS_clean_linker_0, # of connection points: 2
#     Edge 28, Type (0, 0), BuildingBlock: CIFDUS_clean_linker_0, # of connection points: 2
#     Edge 29, Type (0, 0), BuildingBlock: CIFDUS_clean_linker_0, # of connection points: 2
#     Edge 30, Type (0, 0), BuildingBlock: CIFDUS_clean_linker_0, # of connection points: 2
#     Edge 31, Type (0, 0), BuildingBlock: CIFDUS_clean_linker_0, # of connection points: 2
#     Edge 32, Type (0, 0), BuildingBlock: CIFDUS_clean_linker_0, # of connection points: 2
#     Edge 33, Type (0, 0), BuildingBlock: CIFDUS_clean_linker_0, # of connection points: 2
#     Edge 34, Type (0, 0), BuildingBlock: CIFDUS_clean_linker_0, # of connection points: 2
#     Edge 35, Type (0, 0), BuildingBlock: CIFDUS_clean_linker_0, # of connection points: 2
#     Edge 36, Type (0, 0), BuildingBlock: CIFDUS_clean_linker_0, # of connection points: 2
#     Edge 37, Type (0, 0), BuildingBlock: CIFDUS_clean_linker_0, # of connection points: 2
#     Edge 38, Type (0, 0), BuildingBlock: CIFDUS_clean_linker_0, # of connection points: 2
#     Edge 39, Type (0, 0), BuildingBlock: CIFDUS_clean_linker_0, # of connection points: 2
#     Edge 40, Type (0, 0), BuildingBlock: CIFDUS_clean_linker_0, # of connection points: 2
#     Edge 41, Type (0, 0), BuildingBlock: CIFDUS_clean_linker_0, # of connection points: 2
#     Edge 42, Type (0, 0), BuildingBlock: CIFDUS_clean_linker_0, # of connection points: 2
#     Edge 43, Type (0, 0), BuildingBlock: CIFDUS_clean_linker_0, # of connection points: 2
#     Edge 44, Type (0, 0), BuildingBlock: CIFDUS_clean_linker_0, # of connection points: 2
#     Edge 45, Type (0, 0), BuildingBlock: CIFDUS_clean_linker_0, # of connection points: 2
#     Edge 46, Type (0, 0), BuildingBlock: CIFDUS_clean_linker_0, # of connection points: 2
#     Edge 47, Type (0, 0), BuildingBlock: CIFDUS_clean_linker_0, # of connection points: 2
# Relax obj value: 0.285
# Max RMSD: 0.291
# Mean RMSD: 0.291
data_MOF--net-lcy-e--node1-OJICUG_clean_sbu_0--edge1-CIFDUS_clean_linker_0
_symmetry_space_group_name_H-M    P1
_symmetry_Int_Tables_number       1
_symmetry_cell_setting            triclinic
loop_
_symmetry_equiv_pos_as_xyz
'x, y, z'
_cell_length_a     33.011623
_cell_length_b     33.007888
_cell_length_c     33.005835
_cell_angle_alpha  89.943167
_cell_angle_beta   90.100253
_cell_angle_gamma 90.344774
loop_
_atom_site_label
_atom_site_type_symbol
_atom_site_fract_x
_atom_site_fract_y
_atom_site_fract_z
_atom_type_partial_charge
Sc0 Sc 0.12373 0.15682 0.39499 0.0
Sc1 Sc 0.15363 0.2064 0.48087 0.0
Sc2 Sc 0.07622 0.24601 0.4212 0.0
O3 O 0.11653 0.203 0.43369 0.0
C4 C 0.12569 0.23487 0.34338 0.0
C5 C 0.21005 0.17291 0.41507 0.0
C6 C 0.1499 0.29882 0.45312 0.0
C7 C 0.12125 0.11476 0.47796 0.0
C8 C 0.03152 0.1683 0.39281 0.0
C9 C 0.07064 0.23727 0.51708 0.0
O10 O 0.1448 0.20236 0.35184 0.0
O11 O 0.20566 0.20189 0.4398 0.0
O12 O 0.12036 0.29524 0.42823 0.0
O13 O 0.10501 0.11594 0.44266 0.0
O14 O 0.03026 0.19901 0.41603 0.0
O15 O 0.10267 0.21597 0.52146 0.0
O16 O 0.06285 0.16026 0.37226 0.0
O17 O 0.14622 0.1417 0.49085 0.0
O18 O 0.05967 0.25227 0.48333 0.0
O19 O 0.18392 0.14514 0.41467 0.0
O20 O 0.09062 0.24147 0.35779 0.0
O21 O 0.16191 0.26991 0.47535 0.0
Sc22 Sc 0.0922 0.86565 0.64916 0.0
Sc23 Sc 0.00869 0.83536 0.70244 0.0
Sc24 Sc 0.06907 0.91455 0.73899 0.0
O25 O 0.0557 0.87303 0.69706 0.0
C26 C 0.15077 0.86763 0.72284 0.0
C27 C 0.07424 0.77951 0.66841 0.0
C28 C 0.03809 0.84205 0.79415 0.0
C29 C 0.0077 0.86559 0.61026 0.0
C30 C 0.09622 0.95846 0.65972 0.0
C31 C 0.97267 0.9192 0.73168 0.0
O32 O 0.13895 0.84776 0.69174 0.0
O33 O 0.05014 0.78394 0.69784 0.0
O34 O 0.06199 0.87227 0.78955 0.0
O35 O 0.04268 0.88252 0.61021 0.0
O36 O 0.07471 0.95997 0.6916 0.0
O37 O 0.96798 0.88587 0.71235 0.0
O38 O 0.11467 0.92659 0.64949 0.0
O39 O -0.00396 0.84096 0.63795 0.0
O40 O 0.00683 0.93173 0.74473 0.0
O41 O 0.07298 0.80472 0.63998 0.0
O42 O 0.13259 0.89889 0.73627 0.0
O43 O 0.01601 0.82835 0.76581 0.0
Sc44 Sc 0.41286 0.74789 0.92242 0.0
Sc45 Sc 0.33113 0.77644 0.98241 0.0
Sc46 Sc 0.36102 0.83671 0.90407 0.0
O47 O 0.36973 0.78694 0.93771 0.0
C48 C 0.45401 0.83011 0.90271 0.0
C49 C 0.41475 0.74662 0.01879 0.0
C50 C 0.3602 0.86777 0.99162 0.0
C51 C 0.34126 0.68812 0.94556 0.0
C52 C 0.36435 0.76457 0.84525 0.0
C53 C 0.27542 0.81409 0.91846 0.0
O54 O 0.45627 0.79756 0.92332 0.0
O55 O 0.3813 0.76548 0.02377 0.0
O56 O 0.37728 0.87189 0.95697 0.0
O57 O 0.37164 0.69563 0.92274 0.0
O58 O 0.34309 0.79505 0.85579 0.0
O59 O 0.2805 0.7825 0.93963 0.0
O60 O 0.39978 0.75957 0.85958 0.0
O61 O 0.32681 0.71385 0.96995 0.0
O62 O 0.29986 0.84297 0.92321 0.0
O63 O 0.42795 0.73572 0.98429 0.0
O64 O 0.42241 0.83896 0.88278 0.0
O65 O 0.3342 0.83987 -0.00075 0.0
Sc66 Sc 0.39975 0.13425 0.14839 0.0
Sc67 Sc 0.48403 0.15792 0.20314 0.0
Sc68 Sc 0.41986 0.07982 0.23539 0.0
O69 O 0.43557 0.12284 0.19595 0.0
C70 C 0.34178 0.13278 0.22147 0.0
C71 C 0.4227 0.21809 0.16883 0.0
C72 C 0.4518 0.1495 0.29347 0.0
C73 C 0.48409 0.1294 0.11048 0.0
C74 C 0.39148 0.04313 0.15383 0.0
C75 C 0.51609 0.07148 0.23059 0.0
O76 O 0.35503 0.154 0.19187 0.0
O77 O 0.44521 0.21167 0.19919 0.0
O78 O 0.42747 0.1198 0.28766 0.0
O79 O 0.44812 0.11463 0.1096 0.0
O80 O 0.41389 0.03769 0.18473 0.0
O81 O 0.52231 0.10533 0.21257 0.0
O82 O 0.37215 0.07569 0.14932 0.0
O83 O 0.49696 0.15285 0.13871 0.0
O84 O 0.48123 0.05959 0.24224 0.0
O85 O 0.42437 0.19334 0.14016 0.0
O86 O 0.35715 0.09889 0.23194 0.0
O87 O 0.47516 0.16329 0.26625 0.0
Sc88 Sc 0.64724 0.28649 0.50846 0.0
Sc89 Sc 0.57199 0.24543 0.56988 0.0
Sc90 Sc 0.62153 0.33408 0.59691 0.0
O91 O 0.61285 0.28882 0.55736 0.0
C92 C 0.70989 0.32074 0.56999 0.0
C93 C 0.64523 0.19446 0.53743 0.0
C94 C 0.62058 0.25577 0.64797 0.0
C95 C 0.56376 0.25424 0.47449 0.0
C96 C 0.61848 0.37846 0.51432 0.0
C97 C 0.52866 0.32292 0.59766 0.0
O98 O 0.70169 0.29239 0.54535 0.0
O99 O 0.61672 0.19746 0.56342 0.0
O100 O 0.64095 0.28768 0.63947 0.0
O101 O 0.59462 0.27733 0.46992 0.0
O102 O 0.60427 0.37722 0.55041 0.0
O103 O 0.52643 0.29213 0.5746 0.0
O104 O 0.64067 0.35071 0.49936 0.0
O105 O 0.55472 0.23766 0.50802 0.0
O106 O 0.56022 0.33067 0.61822 0.0
O107 O 0.65536 0.22312 0.51382 0.0
O108 O 0.68338 0.34559 0.58136 0.0
O109 O 0.58543 0.25014 0.63335 0.0
Sc110 Sc 0.92398 0.41689 0.74752 0.0
Sc111 Sc 0.98554 0.34137 0.78698 0.0
Sc112 Sc 0.8974 0.36636 0.83567 0.0
O113 O 0.93658 0.37558 0.79022 0.0
C114 C 0.8972 0.45986 0.82609 0.0
C115 C 0.01938 0.42546 0.75674 0.0
C116 C 0.98031 0.36778 0.87976 0.0
C117 C 0.95646 0.34475 0.69503 0.0
C118 C 0.84499 0.36886 0.75791 0.0
C119 C 0.92331 0.2781 0.81905 0.0
O120 O 0.91947 0.46204 0.79474 0.0
O121 O 0.02407 0.39435 0.77929 0.0
O122 O 0.94438 0.38215 0.87893 0.0
O123 O 0.93016 0.37276 0.69877 0.0
O124 O 0.85378 0.34845 0.78957 0.0
O125 O 0.94846 0.28685 0.79134 0.0
O126 O 0.86041 0.40361 0.75166 0.0
O127 O 0.98035 0.33458 0.72336 0.0
O128 O 0.91193 0.30395 0.84472 0.0
O129 O 0.98585 0.43431 0.74018 0.0
O130 O 0.87723 0.4281 0.83483 0.0
O131 O 0.99497 0.3462 0.85135 0.0
Sc132 Sc 0.91496 0.74354 0.07123 0.0
Sc133 Sc 0.84043 0.7045 0.00729 0.0
Sc134 Sc 0.86597 0.6529 0.09362 0.0
O135 O 0.87451 0.70045 0.05667 0.0
C136 C 0.95891 0.66525 0.09846 0.0
C137 C 0.92491 0.73652 0.97532 0.0
C138 C 0.86962 0.61259 0.00937 0.0
C139 C 0.84231 0.79557 0.03848 0.0
C140 C 0.86621 0.7267 0.1516 0.0
C141 C 0.77817 0.66864 0.06758 0.0
O142 O 0.96093 0.69736 0.07725 0.0
O143 O 0.89317 0.7149 0.96964 0.0
O144 O 0.88403 0.61275 0.04536 0.0
O145 O 0.87102 0.7919 0.06412 0.0
O146 O 0.84685 0.69533 0.13963 0.0
O147 O 0.7863 0.69793 0.0441 0.0
O148 O 0.89823 0.73988 0.13441 0.0
O149 O 0.83192 0.76758 0.01428 0.0
O150 O 0.80431 0.64235 0.0763 0.0
O151 O 0.93446 0.75141 0.00959 0.0
O152 O 0.9267 0.65465 0.11643 0.0
O153 O 0.84685 0.64054 -0.00442 0.0
Sc154 Sc 0.50798 0.64789 0.28852 0.0
Sc155 Sc 0.5697 0.57245 0.24993 0.0
Sc156 Sc 0.59667 0.62415 0.33743 0.0
O157 O 0.55728 0.61419 0.29205 0.0
C158 C 0.57073 0.7117 0.31852 0.0
C159 C 0.53538 0.64292 0.19617 0.0
C160 C 0.64883 0.62138 0.2597 0.0
C161 C 0.47431 0.56323 0.2598 0.0
C162 C 0.514 0.62282 0.38157 0.0
C163 C 0.59692 0.53075 0.32956 0.0
O164 O 0.54508 0.70251 0.29134 0.0
O165 O 0.56225 0.61544 0.20011 0.0
O166 O 0.64021 0.64178 0.29132 0.0
O167 O 0.46958 0.59459 0.28196 0.0
O168 O 0.54995 0.60855 0.38084 0.0
O169 O 0.57485 0.5282 0.29803 0.0
O170 O 0.49922 0.64428 0.35305 0.0
O171 O 0.50787 0.55434 0.24343 0.0
O172 O 0.61714 0.56249 0.33775 0.0
O173 O 0.51217 0.65346 0.22479 0.0
O174 O 0.58172 0.6866 0.34516 0.0
O175 O 0.63325 0.58667 0.25332 0.0
Sc176 Sc 0.24234 0.41725 0.07842 0.0
Sc177 Sc 0.2075 0.48539 0.15026 0.0
Sc178 Sc 0.15245 0.39941 0.12999 0.0
O179 O 0.20077 0.43471 0.11874 0.0
C180 C 0.16166 0.39191 0.0367 0.0
C181 C 0.23808 0.51258 0.06401 0.0
C182 C 0.11423 0.48432 0.12481 0.0
C183 C 0.29727 0.45141 0.14849 0.0
C184 C 0.22375 0.33901 0.12942 0.0
C185 C 0.17313 0.42769 0.21605 0.0
O186 O 0.1947 0.41171 0.03354 0.0
O187 O 0.21644 0.52022 0.09513 0.0
O188 O 0.113 0.44796 0.11161 0.0
O189 O 0.29176 0.42379 0.12195 0.0
O190 O 0.194 0.35278 0.14966 0.0
O191 O 0.20248 0.45056 0.20611 0.0
O192 O 0.23587 0.35475 0.09635 0.0
O193 O 0.27078 0.4777 0.15692 0.0
O194 O 0.14526 0.41908 0.19129 0.0
O195 O 0.25273 0.4778 0.05681 0.0
O196 O 0.1509 0.37533 0.06966 0.0
O197 O 0.14362 0.49832 0.14583 0.0
Sc198 Sc 0.70118 0.00424 0.84134 0.0
Sc199 Sc 0.74399 0.06623 0.91526 0.0
Sc200 Sc 0.65546 0.09365 0.86662 0.0
O201 O 0.70012 0.0537 0.87516 0.0
C202 C 0.66755 0.06547 0.77863 0.0
C203 C 0.7941 0.0312 0.84217 0.0
C204 C 0.73467 0.1439 0.86532 0.0
C205 C 0.73267 0.9712 0.92526 0.0
C206 C 0.60983 0.01165 0.87201 0.0
C207 C 0.66781 0.09668 0.95933 0.0
O208 O 0.69569 0.04074 0.78663 0.0
O209 O 0.79164 0.05765 0.87033 0.0
O210 O 0.70224 0.13543 0.84578 0.0
O211 O 0.70995 0.96623 0.89427 0.0
O212 O 0.612 0.04793 0.88565 0.0
O213 O 0.69802 0.07306 0.9614 0.0
O214 O 0.63673 -0.00386 0.84907 0.0
O215 O 0.74971 0.0047 0.93374 0.0
O216 O 0.6598 0.1164 0.92738 0.0
O217 O 0.76475 0.00823 0.83225 0.0
O218 O 0.64282 0.07675 0.80535 0.0
O219 O 0.74115 0.12944 0.90038 0.0
Sc220 Sc 0.83626 0.90028 0.36537 0.0
Sc221 Sc 0.74658 0.92441 0.4131 0.0
Sc222 Sc 0.78624 0.98574 0.33667 0.0
O223 O 0.7898 0.93823 0.37324 0.0
C224 C 0.87771 0.98358 0.36959 0.0
C225 C 0.82363 0.89503 0.45745 0.0
C226 C 0.7546 0.02025 0.4203 0.0
C227 C 0.75854 0.84787 0.36206 0.0
C228 C 0.82117 0.9214 0.2797 0.0
C229 C 0.69407 0.95686 0.33951 0.0
O230 O 0.8767 0.94804 0.38536 0.0
O231 O 0.79316 0.9184 0.45925 0.0
O232 O 0.77576 0.02551 0.38819 0.0
O233 O 0.79104 0.85717 0.34309 0.0
O234 O 0.79157 0.94523 0.28407 0.0
O235 O 0.69755 0.93178 0.36887 0.0
O236 O 0.84857 0.92201 0.30602 0.0
O237 O 0.75165 0.86147 0.39742 0.0
O238 O 0.72294 0.97949 0.32785 0.0
O239 O 0.83206 0.87571 0.42543 0.0
O240 O 0.85077 -0.00349 0.3448 0.0
O241 O 0.74002 0.9861 0.43084 0.0
Sc242 Sc 0.34232 0.59367 0.63114 0.0
Sc243 Sc 0.25255 0.57276 0.5801 0.0
Sc244 Sc 0.28787 0.50855 0.65577 0.0
O245 O 0.29411 0.55761 0.62156 0.0
C246 C 0.38049 0.50868 0.62866 0.0
C247 C 0.33289 0.59825 0.53789 0.0
C248 C 0.25752 0.47666 0.57066 0.0
C249 C 0.27022 0.65318 0.62877 0.0
C250 C 0.32288 0.56908 0.71836 0.0
C251 C 0.19746 0.54089 0.65129 0.0
O252 O 0.38157 0.54457 0.61412 0.0
O253 O 0.30025 0.57775 0.53534 0.0
O254 O 0.27815 0.47067 0.60292 0.0
O255 O 0.30053 0.64058 0.64915 0.0
O256 O 0.29333 0.546 0.70973 0.0
O257 O 0.2025 0.56653 0.62273 0.0
O258 O 0.35053 0.57627 0.69303 0.0
O259 O 0.25742 0.63592 0.59663 0.0
O260 O 0.22476 0.51649 0.66249 0.0
O261 O 0.34324 0.61612 0.57025 0.0
O262 O 0.35178 0.49563 0.65112 0.0
O263 O 0.24384 0.51121 0.56066 0.0
H264 H 0.22404 0.31032 0.48499 0.0
H265 H 0.12096 0.37593 0.43908 0.0
H266 H 0.14839 0.43873 0.4684 0.0
H267 H 0.19624 0.47194 0.51553 0.0
H268 H 0.29508 0.40329 0.56651 0.0
H269 H 0.27411 0.34414 0.5272 0.0
C270 C 0.20765 0.33844 0.48089 0.0
C271 C 0.17003 0.33832 0.46059 0.0
C272 C 0.22242 0.37354 0.49952 0.0
C273 C 0.14984 0.37516 0.45468 0.0
C274 C 0.16531 0.4109 0.47187 0.0
C275 C 0.21355 0.4442 0.51767 0.0
C276 C 0.24698 0.44188 0.54433 0.0
C277 C 0.20068 0.41 0.49576 0.0
C278 C 0.26898 0.40571 0.54673 0.0
C279 C 0.25709 0.37197 0.52414 0.0
H280 H 0.80278 0.99306 0.77072 0.0
H281 H 0.87198 0.05167 0.86536 0.0
H282 H 0.93468 0.02529 0.8358 0.0
H283 H 0.96789 0.97811 0.78895 0.0
H284 H 0.89676 0.9151 0.69846 0.0
H285 H 0.83618 0.95054 0.72114 0.0
C286 C 0.83158 0.00046 0.78488 0.0
C287 C 0.83266 0.02356 0.8208 0.0
C288 C 0.86689 0.98385 0.76886 0.0
C289 C 0.87029 0.03374 0.83793 0.0
C290 C 0.90603 0.01836 0.82122 0.0
C291 C 0.93926 0.97246 0.77374 0.0
C292 C 0.93676 0.94357 0.74227 0.0
C293 C 0.90443 0.99215 0.78762 0.0
C294 C 0.89942 0.93673 0.72301 0.0
C295 C 0.86484 0.95705 0.73591 0.0
H296 H 0.26388 0.67113 0.96258 0.0
H297 H 0.37832 0.6139 0.93816 0.0
H298 H 0.3533 0.55103 0.96944 0.0
H299 H 0.30402 0.51793 0.01518 0.0
H300 H 0.19424 0.58045 0.04772 0.0
H301 H 0.21279 0.63646 0.00284 0.0
C302 C 0.28307 0.64453 0.96323 0.0
C303 C 0.32314 0.64725 0.94882 0.0
C304 C 0.26976 0.61012 0.98409 0.0
C305 C 0.3474 0.61252 0.94903 0.0
C306 C 0.33331 0.5769 0.96762 0.0
C307 C 0.28391 0.54362 0.01205 0.0
C308 C 0.24801 0.54538 0.03515 0.0
C309 C 0.29544 0.57624 0.98721 0.0
C310 C 0.2223 0.57878 0.03084 0.0
C311 C 0.23276 0.6106 0.00498 0.0
H312 H 0.52051 0.01548 0.29093 0.0
H313 H 0.59017 0.06949 0.19401 0.0
H314 H 0.64971 0.03145 0.21552 0.0
H315 H 0.68334 0.98957 0.26567 0.0
H316 H 0.6166 0.94088 0.36717 0.0
H317 H 0.55376 0.9688 0.33895 0.0
C318 C 0.54857 0.01849 0.27413 0.0
C319 C 0.55104 0.04562 0.24107 0.0
C320 C 0.58297 -0.00259 0.28741 0.0
C321 C 0.58763 0.04927 0.21978 0.0
C322 C 0.62159 0.02743 0.23199 0.0
C323 C 0.655 0.98457 0.28157 0.0
C324 C 0.65477 0.96386 0.31897 0.0
C325 C 0.61982 0.00241 0.26638 0.0
C326 C 0.61765 0.95682 0.33848 0.0
C327 C 0.58186 0.97319 0.32255 0.0
H328 H 0.71909 0.18613 0.50481 0.0
H329 H 0.61945 0.11654 0.55389 0.0
H330 H 0.64833 0.05464 0.52497 0.0
H331 H 0.69539 0.02338 0.47703 0.0
H332 H 0.79039 0.09536 0.42206 0.0
H333 H 0.76899 0.15408 0.46154 0.0
C334 C 0.7038 0.15733 0.50966 0.0
C335 C 0.66663 0.15595 0.53062 0.0
C336 C 0.71919 0.12276 0.49108 0.0
C337 C 0.64791 0.11838 0.53769 0.0
C338 C 0.66417 0.08318 0.52072 0.0
C339 C 0.71185 0.05175 0.47394 0.0
C340 C 0.74421 0.05517 0.44616 0.0
C341 C 0.69874 0.08547 0.49588 0.0
C342 C 0.76509 0.09213 0.4427 0.0
C343 C 0.75297 0.12557 0.46539 0.0
H344 H 0.02473 0.48033 0.69578 0.0
H345 H 0.09217 0.43055 0.79637 0.0
H346 H 0.15132 0.47079 0.77661 0.0
H347 H 0.18563 0.51257 0.72644 0.0
H348 H 0.12106 0.55587 0.62132 0.0
H349 H 0.05789 0.52729 0.64849 0.0
C350 C 0.05218 0.47858 0.71378 0.0
C351 C 0.05428 0.45197 0.74723 0.0
C352 C 0.08624 0.50089 0.70161 0.0
C353 C 0.09002 0.45024 0.77018 0.0
C354 C 0.12371 0.47338 0.75901 0.0
C355 C 0.15758 0.51633 0.70967 0.0
C356 C 0.15801 0.53546 0.67149 0.0
C357 C 0.12241 0.49773 0.72413 0.0
C358 C 0.12145 0.54114 0.65066 0.0
C359 C 0.08556 0.5243 0.66594 0.0
H360 H 0.79198 0.96753 0.982 0.0
H361 H 0.69488 0.89712 0.92845 0.0
H362 H 0.71622 0.83794 0.96738 0.0
H363 H 0.76738 0.80471 0.00852 0.0
H364 H 0.86899 0.87284 0.05576 0.0
H365 H 0.83965 0.93542 0.02876 0.0
C366 C 0.77503 0.93943 0.97913 0.0
C367 C 0.74225 0.9365 0.95174 0.0
C368 C 0.78817 0.90541 0.00061 0.0
C369 C 0.72058 0.89994 0.94873 0.0
C370 C 0.73268 0.86621 0.97108 0.0
C371 C 0.78294 0.83336 0.01343 0.0
C372 C 0.82082 0.83419 0.03314 0.0
C373 C 0.76721 0.86836 -0.0041 0.0
C374 C 0.83998 0.87149 0.04042 0.0
C375 C 0.82344 0.90708 0.02456 0.0
H376 H 0.47004 0.50638 0.20056 0.0
H377 H 0.39993 0.56074 0.29651 0.0
H378 H 0.34031 0.52234 0.27456 0.0
H379 H 0.3067 0.4813 0.22322 0.0
H380 H 0.37441 0.43316 0.12266 0.0
H381 H 0.43733 0.45976 0.15257 0.0
C382 C 0.4419 0.50951 0.21714 0.0
C383 C 0.43926 0.53697 0.24983 0.0
C384 C 0.40759 0.48831 0.20362 0.0
C385 C 0.4026 0.54038 0.27095 0.0
C386 C 0.36861 0.51833 0.25848 0.0
C387 C 0.33535 0.47607 0.20807 0.0
C388 C 0.33599 0.45615 0.17033 0.0
C389 C 0.37054 0.49338 0.22411 0.0
C390 C 0.37324 0.44855 0.1516 0.0
C391 C 0.40901 0.46423 0.16846 0.0
H392 H 0.47676 0.22546 0.30813 0.0
H393 H 0.43956 0.11554 0.36882 0.0
H394 H 0.46765 0.14158 0.43266 0.0
H395 H 0.51246 0.19021 0.46727 0.0
H396 H 0.55635 0.29594 0.40325 0.0
H397 H 0.51662 0.27626 0.34381 0.0
C398 C 0.47423 0.20734 0.33548 0.0
C399 C 0.45692 0.16825 0.33371 0.0
C400 C 0.49261 0.2213 0.37095 0.0
C401 C 0.45284 0.14562 0.36945 0.0
C402 C 0.46942 0.16029 0.40571 0.0
C403 C 0.513 0.20929 0.4405 0.0
C404 C 0.53776 0.24429 0.43943 0.0
C405 C 0.49101 0.1972 0.40621 0.0
C406 C 0.53808 0.2686 0.40456 0.0
C407 C 0.51522 0.25746 0.37073 0.0
H408 H 0.01385 0.29613 0.52202 0.0
H409 H 0.07062 0.20116 0.59187 0.0
H410 H 0.03259 0.22214 0.65168 0.0
H411 H 0.98994 0.27155 0.68518 0.0
H412 H 0.93874 0.37101 0.61765 0.0
H413 H 0.96656 0.34278 0.55486 0.0
C414 C 0.01765 0.2796 0.55017 0.0
C415 C 0.04551 0.24736 0.55264 0.0
C416 C -0.00348 0.29246 0.58454 0.0
C417 C 0.04989 0.22636 0.58933 0.0
C418 C 0.02804 0.23824 0.62342 0.0
C419 C 0.98441 0.28696 0.65666 0.0
C420 C 0.96312 0.32387 0.65609 0.0
C421 C 0.00226 0.27189 0.62152 0.0
C422 C 0.95521 0.34275 0.61886 0.0
C423 C 0.97153 0.32684 0.58315 0.0
H424 H 0.00965 0.76691 0.80818 0.0
H425 H 0.05078 0.87471 0.87007 0.0
H426 H 0.0227 0.84848 0.9338 0.0
H427 H 0.97758 0.79989 0.96866 0.0
H428 H 0.93102 0.69604 0.90356 0.0
H429 H 0.96965 0.71626 0.8438 0.0
C430 C 0.01302 0.78457 0.83571 0.0
C431 C 0.03161 0.82309 0.83428 0.0
C432 C 0.99502 0.77038 0.87132 0.0
C433 C 0.03656 0.84505 0.87035 0.0
C434 C 0.02005 0.83026 0.90662 0.0
C435 C 0.9763 0.78135 0.94157 0.0
C436 C 0.95104 0.74671 0.94038 0.0
C437 C -0.00225 0.79377 0.90698 0.0
C438 C 0.94971 0.7231 0.90506 0.0
C439 C 0.97191 0.73456 0.87098 0.0
H440 H 0.5004 0.71519 0.18542 0.0
H441 H 0.55036 0.61475 0.11883 0.0
H442 H 0.51947 0.6409 0.05633 0.0
H443 H 0.4706 0.68679 0.02363 0.0
H444 H 0.41516 0.78221 0.09342 0.0
H445 H 0.45511 0.76255 0.15256 0.0
C446 C 0.50497 0.69906 0.15716 0.0
C447 C 0.52698 0.66259 0.15683 0.0
C448 C 0.48526 0.7128 0.1224 0.0
C449 C 0.5335 0.64278 0.11987 0.0
C450 C 0.51538 0.65746 0.08435 0.0
C451 C 0.46751 0.70355 0.05169 0.0
C452 C 0.43965 0.73575 0.05431 0.0
C453 C 0.48989 0.69149 0.08572 0.0
C454 C 0.43591 0.75704 0.09084 0.0
C455 C 0.45892 0.74597 0.1245 0.0
H456 H 0.10679 0.31387 0.34702 0.0
H457 H 0.18997 0.23137 0.28987 0.0
H458 H 0.21946 0.28801 0.25123 0.0
H459 H 0.21519 0.35945 0.22827 0.0
H460 H 0.12895 0.43939 0.28375 0.0
H461 H 0.10841 0.3856 0.33055 0.0
C462 C 0.13142 0.30804 0.32616 0.0
C463 C 0.1453 0.26818 0.32034 0.0
C464 C 0.14825 0.34055 0.30467 0.0
C465 C 0.17813 0.26159 0.29418 0.0
C466 C 0.19511 0.294 0.27235 0.0
C467 C 0.19309 0.36537 0.25174 0.0
C468 C 0.17392 0.40335 0.25318 0.0
C469 C 0.17975 0.33347 0.27674 0.0
C470 C 0.14466 0.41068 0.28291 0.0
C471 C 0.1324 0.37968 0.309 0.0
H472 H 0.92655 0.87181 0.61682 0.0
H473 H 0.02413 0.87966 0.53033 0.0
H474 H 0.97506 0.88976 0.47547 0.0
H475 H 0.90455 0.8935 0.45216 0.0
H476 H 0.80697 0.89067 0.53878 0.0
H477 H 0.85607 0.88153 0.59406 0.0
C478 C 0.937 0.87571 0.5859 0.0
C479 C 0.97877 0.87429 0.57733 0.0
C480 C 0.90872 0.88227 0.55484 0.0
C481 C 0.99212 0.88042 0.53747 0.0
C482 C 0.9641 0.88607 0.5062 0.0
C483 C 0.89407 0.89084 0.4832 0.0
C484 C 0.8523 0.89196 0.49156 0.0
C485 C 0.92238 0.88653 0.51453 0.0
C486 C 0.839 0.8896 0.5318 0.0
C487 C 0.86702 0.88431 0.56324 0.0
H488 H 0.27826 0.63574 0.73159 0.0
H489 H 0.37165 0.56102 0.78326 0.0
H490 H 0.39172 0.61612 0.82855 0.0
H491 H 0.38996 0.6875 0.84486 0.0
H492 H 0.29752 0.76459 0.79434 0.0
H493 H 0.27035 0.70669 0.75575 0.0
C494 C 0.30182 0.63117 0.75405 0.0
C495 C 0.32313 0.59431 0.75482 0.0
C496 C 0.31442 0.66378 0.77856 0.0
C497 C 0.35436 0.58883 0.783 0.0
C498 C 0.36629 0.62057 0.80824 0.0
C499 C 0.36366 0.69191 0.82567 0.0
C500 C 0.34644 0.73066 0.82169 0.0
C501 C 0.34782 0.65859 0.80478 0.0
C502 C 0.31187 0.7353 0.79726 0.0
C503 C 0.29619 0.70214 0.77552 0.0
H504 H 0.56472 0.11981 0.11789 0.0
H505 H 0.46755 0.11664 0.03032 0.0
H506 H 0.51664 0.10572 0.97584 0.0
H507 H 0.58711 0.10042 0.95323 0.0
H508 H 0.68415 0.09911 0.04083 0.0
H509 H 0.63495 0.10844 0.09578 0.0
C510 C 0.55435 0.11673 0.08682 0.0
C511 C 0.51276 0.11976 0.07781 0.0
C512 C 0.5826 0.10985 0.05599 0.0
C513 C 0.49945 0.11465 0.03777 0.0
C514 C 0.52748 0.10855 0.00673 0.0
C515 C 0.59746 0.10223 0.98441 0.0
C516 C 0.6391 0.09994 0.99319 0.0
C517 C 0.56909 0.10672 0.0155 0.0
C518 C 0.65222 0.10115 0.03357 0.0
C519 C 0.62415 0.10653 0.06481 0.0
H520 H 0.59614 0.17742 0.64874 0.0
H521 H 0.68683 0.25803 0.6978 0.0
H522 H 0.71808 0.20118 0.73364 0.0
H523 H 0.71183 0.1311 0.76025 0.0
H524 H 0.61691 0.05313 0.71535 0.0
H525 H 0.59503 0.10611 0.66838 0.0
C526 C 0.62253 0.18278 0.66766 0.0
C527 C 0.63894 0.22215 0.6712 0.0
C528 C 0.63935 0.15024 0.689 0.0
C529 C 0.67373 0.2281 0.69485 0.0
C530 C 0.69128 0.19562 0.71559 0.0
C531 C 0.68752 0.12529 0.73884 0.0
C532 C 0.66635 0.0882 0.74051 0.0
C533 C 0.67361 0.15681 0.71387 0.0
C534 C 0.63414 0.08113 0.71369 0.0
C535 C 0.62116 0.11171 0.68754 0.0
H536 H 0.08027 0.38917 0.04103 0.0
H537 H 0.1791 0.39081 0.95561 0.0
H538 H 0.1307 0.38532 0.89941 0.0
H539 H 0.06093 0.37744 0.87531 0.0
H540 H 0.96166 0.3786 0.96017 0.0
H541 H 0.00991 0.38638 0.01643 0.0
C542 C 0.09122 0.38808 0.01008 0.0
C543 C 0.13319 0.38947 0.00232 0.0
C544 C 0.06327 0.3857 0.97816 0.0
C545 C 0.14698 0.38935 0.96218 0.0
C546 C 0.11935 0.38624 0.93019 0.0
C547 C 0.0498 0.3794 0.90617 0.0
C548 C 0.0079 0.37669 0.91384 0.0
C549 C 0.07754 0.38399 0.93794 0.0
C550 C 0.99378 0.3804 0.95369 0.0
C551 C 0.02134 0.38462 0.98572 0.0
H552 H 0.85767 0.84984 0.29178 0.0
H553 H 0.77932 0.91175 0.20754 0.0
H554 H 0.78074 0.85231 0.16254 0.0
H555 H 0.8109 0.78572 0.1446 0.0
H556 H 0.88947 0.72615 0.22999 0.0
H557 H 0.88007 0.78144 0.27831 0.0
C558 C 0.84063 0.85054 0.26366 0.0
C559 C 0.81913 0.88564 0.25254 0.0
C560 C 0.84112 0.81639 0.23871 0.0
C561 C 0.79652 0.88536 0.21649 0.0
C562 C 0.79726 0.85136 0.19092 0.0
C563 C 0.82459 0.78433 0.17449 0.0
C564 C 0.85025 0.75182 0.18437 0.0
C565 C 0.82014 0.81701 0.20143 0.0
C566 C 0.86895 0.75052 0.22241 0.0
C567 C 0.86404 0.78238 0.24964 0.0
H568 H 0.41417 0.60216 0.54259 0.0
H569 H 0.31557 0.59696 0.45669 0.0
H570 H 0.364 0.6022 0.40063 0.0
H571 H 0.43368 0.61128 0.37677 0.0
H572 H 0.53273 0.61363 0.46221 0.0
H573 H 0.48452 0.60577 0.51834 0.0
C574 C 0.40328 0.60238 0.51155 0.0
C575 C 0.36136 0.60012 0.5036 0.0
C576 C 0.43125 0.60467 0.47975 0.0
C577 C 0.34765 0.59911 0.4634 0.0
C578 C 0.37529 0.6021 0.43149 0.0
C579 C 0.44475 0.61004 0.40773 0.0
C580 C 0.48655 0.61381 0.41562 0.0
C581 C 0.41703 0.60537 0.43942 0.0
C582 C 0.50067 0.61102 0.45559 0.0
C583 C 0.47313 0.60675 0.48754 0.0
H584 H 0.19897 0.13897 0.34197 0.0
H585 H 0.28318 0.21384 0.40887 0.0
H586 H 0.32964 0.21362 0.35058 0.0
H587 H 0.3486 0.1855 0.28325 0.0
H588 H 0.26322 0.11025 0.21867 0.0
H589 H 0.21379 0.11846 0.27314 0.0
C590 C 0.22742 0.15549 0.344 0.0
C591 C 0.2381 0.17562 0.38013 0.0
C592 C 0.25324 0.15564 0.3105 0.0
C593 C 0.27458 0.19764 0.38163 0.0
C594 C 0.30098 0.19759 0.34828 0.0
C595 C 0.31854 0.17225 0.28067 0.0
C596 C 0.30893 0.14787 0.24696 0.0
C597 C 0.2909 0.17599 0.31285 0.0
C598 C 0.27063 0.12974 0.24406 0.0
C599 C 0.24273 0.134 0.2754 0.0
H600 H 0.11507 0.11976 0.55909 0.0
H601 H 0.10528 0.0352 0.45992 0.0
H602 H 0.09602 0.97935 0.50822 0.0
H603 H 0.09471 0.95461 0.57851 0.0
H604 H 0.10053 0.03951 0.67762 0.0
H605 H 0.10738 0.09574 0.62925 0.0
C606 C 0.11083 0.08906 0.54807 0.0
C607 C 0.1116 0.08131 0.50609 0.0
C608 C 0.1051 0.05745 0.57591 0.0
C609 C 0.10502 0.04173 0.49208 0.0
C610 C 0.09992 0.00989 0.51967 0.0
C611 C 0.09755 0.98548 0.58949 0.0
C612 C 0.09802 0.99307 0.63149 0.0
C613 C 0.10064 0.01739 0.5616 0.0
C614 C 0.10048 0.0331 0.64544 0.0
C615 C 0.10443 0.06509 0.61782 0.0
H616 H 0.14957 0.80353 0.77352 0.0
H617 H 0.22462 0.90181 0.73075 0.0
H618 H 0.27106 0.89204 0.78763 0.0
H619 H 0.28478 0.86227 0.85328 0.0
H620 H 0.21018 0.76469 0.89901 0.0
H621 H 0.16845 0.76767 0.83723 0.0
C622 C 0.17703 0.8216 0.77599 0.0
C623 C 0.18438 0.85285 0.74779 0.0
C624 C 0.20262 0.81686 0.80984 0.0
C625 C 0.2191 0.8771 0.7517 0.0
C626 C 0.2452 0.87189 0.78452 0.0
C627 C 0.2594 0.8415 0.85 0.0
C628 C 0.24996 0.81395 0.88131 0.0
C629 C 0.23625 0.84307 0.81453 0.0
C630 C 0.21765 0.78663 0.87573 0.0
C631 C 0.19399 0.78822 0.84034 0.0
H632 H 0.3887 0.96038 0.15638 0.0
H633 H 0.39277 0.0622 0.07454 0.0
H634 H 0.38761 0.01706 0.01645 0.0
H635 H 0.37696 0.94875 0.98862 0.0
H636 H 0.36663 0.84741 0.07053 0.0
H637 H 0.3792 0.8917 0.12836 0.0
C638 C 0.38883 0.97243 0.12579 0.0
C639 C 0.39096 0.01438 0.11971 0.0
C640 C 0.38436 0.94633 0.09236 0.0
C641 C 0.39082 0.02988 0.07995 0.0
C642 C 0.38789 0.00413 0.04666 0.0
C643 C 0.37787 0.93649 0.01911 0.0
C644 C 0.37059 0.89513 0.02539 0.0
C645 C 0.38387 0.96233 0.05245 0.0
C646 C 0.37164 0.87943 0.06506 0.0
C647 C 0.37892 0.90466 0.09817 0.0
H648 H 0.84361 0.39161 0.6792 0.0
H649 H 0.7921 0.30497 0.7625 0.0
H650 H 0.75388 0.27378 0.70692 0.0
H651 H 0.72721 0.27846 0.63678 0.0
H652 H 0.77449 0.36962 0.55612 0.0
H653 H 0.82278 0.39162 0.60815 0.0
C654 C 0.82365 0.36614 0.6854 0.0
C655 C 0.82015 0.35083 0.72514 0.0
C656 C 0.80111 0.34926 0.65354 0.0
C657 C 0.79507 0.3172 0.73224 0.0
C658 C 0.77306 0.29963 0.70047 0.0
C659 C 0.74931 0.30199 0.63026 0.0
C660 C 0.74807 0.32199 0.59263 0.0
C661 C 0.77503 0.31608 0.66121 0.0
C662 C 0.77582 0.35322 0.58455 0.0
C663 C 0.80274 0.3663 0.61457 0.0
H664 H 0.8943 0.45404 0.90708 0.0
H665 H 0.89739 0.54127 0.80973 0.0
H666 H 0.89078 0.59659 0.85891 0.0
H667 H 0.88068 0.61923 0.92901 0.0
H668 H 0.88111 0.53224 0.02666 0.0
H669 H 0.89046 0.47718 0.9777 0.0
C670 C 0.89344 0.48522 0.89667 0.0
C671 C 0.8954 0.49379 0.85492 0.0
C672 C 0.89042 0.51655 0.92504 0.0
C673 C 0.89552 0.53415 0.84172 0.0
C674 C 0.89171 0.56562 0.86979 0.0
C675 C 0.8829 0.58817 0.93956 0.0
C676 C 0.87945 0.5795 0.98121 0.0
C677 C 0.88858 0.55704 0.9114 0.0
C678 C 0.88346 0.53945 0.99472 0.0
C679 C 0.8886 0.50809 0.96676 0.0
H680 H 0.76798 0.70815 0.13748 0.0
H681 H 0.7097 0.6248 0.05541 0.0
H682 H 0.66239 0.60425 0.10879 0.0
H683 H 0.64504 0.60266 0.1805 0.0
H684 H 0.70672 0.68142 0.26495 0.0
H685 H 0.74645 0.71067 0.20907 0.0
C686 C 0.74399 0.6865 0.1311 0.0
C687 C 0.74164 0.66834 0.09262 0.0
C688 C 0.71884 0.67302 0.16267 0.0
C689 C 0.71118 0.63976 0.08458 0.0
C690 C 0.68478 0.6275 0.1153 0.0
C691 C 0.66724 0.62618 0.18685 0.0
C692 C 0.67356 0.63942 0.22695 0.0
C693 C 0.68967 0.64256 0.1548 0.0
C694 C 0.70165 0.67061 0.23439 0.0
C695 C 0.72416 0.68734 0.20247 0.0
H696 H 0.60227 0.3721 0.43517 0.0
H697 H 0.61299 0.45977 0.53145 0.0
H698 H 0.60697 0.51502 0.48182 0.0
H699 H 0.60353 0.5376 0.41066 0.0
H700 H 0.59033 0.4494 0.31505 0.0
H701 H 0.59284 0.39454 0.3651 0.0
C702 C 0.60303 0.40337 0.44533 0.0
C703 C 0.6087 0.41211 0.48671 0.0
C704 C 0.5997 0.43453 0.41679 0.0
C705 C 0.60872 0.45251 0.49973 0.0
C706 C 0.60561 0.48394 0.47135 0.0
C707 C 0.60143 0.50632 0.4008 0.0
C708 C 0.59774 0.49731 0.3592 0.0
C709 C 0.60206 0.47521 0.42975 0.0
C710 C 0.59369 0.45688 0.34684 0.0
C711 C 0.59505 0.42565 0.37541 0.0
H712 H 0.28017 0.344 0.18824 0.0
H713 H 0.22564 0.26252 0.10173 0.0
H714 H 0.28344 0.21706 0.10763 0.0
H715 H 0.35272 0.20659 0.12863 0.0
H716 H 0.40904 0.28549 0.21669 0.0
H717 H 0.34729 0.32699 0.21827 0.0
C718 C 0.28025 0.31528 0.17228 0.0
C719 C 0.24855 0.30594 0.14514 0.0
C720 C 0.31439 0.29006 0.17479 0.0
C721 C 0.24934 0.26958 0.1234 0.0
C722 C 0.28268 0.24408 0.12624 0.0
C723 C 0.35169 0.23266 0.14857 0.0
C724 C 0.38583 0.2434 0.17198 0.0
C725 C 0.31603 0.25509 0.15031 0.0
C726 C 0.38338 0.2769 0.19802 0.0
C727 C 0.34803 0.30038 0.19908 0.0
H728 H 0.85604 0.26244 0.77656 0.0
H729 H 0.93728 0.21167 0.86496 0.0
H730 H 0.88513 0.16276 0.88543 0.0
H731 H 0.81385 0.14273 0.88574 0.0
H732 H 0.73 0.19745 0.80212 0.0
H733 H 0.78575 0.23583 0.77121 0.0
C734 C 0.86267 0.23945 0.79908 0.0
C735 C 0.90046 0.23994 0.81886 0.0
C736 C 0.83169 0.21326 0.81232 0.0
C737 C 0.9087 0.211 0.84877 0.0
C738 C 0.87862 0.18368 0.86097 0.0
C739 C 0.80758 0.16337 0.86094 0.0
C740 C 0.76764 0.16788 0.84651 0.0
C741 C 0.83949 0.18607 0.8444 0.0
C742 C 0.76042 0.19373 0.81366 0.0
C743 C 0.79227 0.21588 0.79633 0.0
H744 H 0.11982 0.56536 0.11616 0.0
H745 H 0.03408 0.46616 0.11289 0.0
H746 H 0.97851 0.51424 0.10377 0.0
H747 H 0.9545 0.58424 0.10029 0.0
H748 H 0.04016 0.68345 0.10028 0.0
H749 H 0.09618 0.63527 0.10718 0.0
C750 C 0.08892 0.55426 0.11347 0.0
C751 C 0.0808 0.51237 0.11594 0.0
C752 C 0.05743 0.58196 0.1079 0.0
C753 C 0.04092 0.49826 0.11131 0.0
C754 C 0.00924 0.52572 0.10627 0.0
C755 C 0.98548 0.59533 0.10195 0.0
C756 C 0.99339 0.63727 0.10071 0.0
C757 C 0.01717 0.56757 0.1052 0.0
C758 C 0.03353 0.6513 0.10159 0.0
C759 C 0.06539 0.6238 0.10556 0.0
H760 H 0.67971 0.84839 0.38214 0.0
H761 H 0.76297 0.79593 0.29652 0.0
H762 H 0.70746 0.75519 0.26784 0.0
H763 H 0.63775 0.727 0.27513 0.0
H764 H 0.55692 0.7787 0.36308 0.0
H765 H 0.60883 0.82829 0.38226 0.0
C766 C 0.68598 0.82792 0.35726 0.0
C767 C 0.7258 0.82399 0.34251 0.0
C768 C 0.65418 0.80481 0.3412 0.0
C769 C 0.73285 0.79861 0.30919 0.0
C770 C 0.70109 0.77539 0.29279 0.0
C771 C 0.63112 0.75035 0.29722 0.0
C772 C 0.59353 0.74987 0.31736 0.0
C773 C 0.66192 0.77732 0.30947 0.0
C774 C 0.58532 0.77931 0.34668 0.0
C775 C 0.61526 0.80705 0.35812 0.0
H776 H 0.53634 0.40356 0.60201 0.0
H777 H 0.44681 0.30799 0.59706 0.0
H778 H 0.39268 0.35809 0.60515 0.0
H779 H 0.37179 0.42849 0.61697 0.0
H780 H 0.46129 0.52428 0.61802 0.0
H781 H 0.51506 0.47441 0.60758 0.0
C782 C 0.50492 0.39373 0.60273 0.0
C783 C 0.49534 0.35223 0.59981 0.0
C784 C 0.47433 0.4226 0.60663 0.0
C785 C 0.45468 0.33979 0.5996 0.0
C786 C 0.42391 0.36837 0.60429 0.0
C787 C 0.40312 0.43841 0.6149 0.0
C788 C 0.41289 0.4798 0.61902 0.0
C789 C 0.43351 0.40974 0.60841 0.0
C790 C 0.45327 0.49254 0.61518 0.0
C791 C 0.48389 0.46406 0.60937 0.0
H792 H 0.21218 0.64834 0.6855 0.0
H793 H 0.27018 0.73027 0.60177 0.0
H794 H 0.21412 0.77785 0.60868 0.0
H795 H 0.14534 0.79091 0.63038 0.0
H796 H 0.08508 0.70998 0.71385 0.0
H797 H 0.14535 0.66645 0.71486 0.0
C798 C 0.21313 0.67746 0.67022 0.0
C799 C 0.24539 0.6865 0.64379 0.0
C800 C 0.17995 0.70382 0.67317 0.0
C801 C 0.24602 0.72342 0.62293 0.0
C802 C 0.21371 0.75018 0.6264 0.0
C803 C 0.1452 0.76385 0.64905 0.0
C804 C 0.11034 0.75314 0.6713 0.0
C805 C 0.17987 0.73979 0.65 0.0
C806 C 0.11128 0.7185 0.69599 0.0
C807 C 0.14577 0.69381 0.69668 0.0
H808 H 0.44901 0.91141 0.89699 0.0
H809 H 0.53519 0.81416 0.90731 0.0
H810 H 0.59113 0.86299 0.90129 0.0
H811 H 0.61491 0.93238 0.88874 0.0
H812 H 0.5293 0.03028 0.88103 0.0
H813 H 0.47323 0.98199 0.89111 0.0
C814 C 0.48009 0.90093 0.89789 0.0
C815 C 0.48814 0.85919 0.90169 0.0
C816 C 0.51187 0.92919 0.89502 0.0
C817 C 0.52838 0.84606 0.90403 0.0
C818 C 0.56025 0.87394 0.90055 0.0
C819 C 0.58393 0.94318 0.88948 0.0
C820 C 0.57597 0.98463 0.88343 0.0
C821 C 0.55226 0.9154 0.89537 0.0
C822 C 0.53598 -0.00152 0.88545 0.0
C823 C 0.50405 0.97087 0.89096 0.0
H824 H 0.87152 0.06407 0.37972 0.0
H825 H 0.95817 0.9668 0.3812 0.0
H826 H 0.0136 0.01618 0.38877 0.0
H827 H 0.03715 0.08712 0.39062 0.0
H828 H 0.95018 0.18404 0.3934 0.0
H829 H 0.89462 0.1345 0.38831 0.0
C830 C 0.90259 0.0537 0.38191 0.0
C831 C 0.91101 0.01199 0.37927 0.0
C832 C 0.93395 0.08213 0.38659 0.0
C833 C 0.95111 -0.00124 0.38306 0.0
C834 C 0.9827 0.02697 0.38712 0.0
C835 C 0.00597 0.09735 0.39003 0.0
C836 C -0.00244 0.13911 0.39147 0.0
C837 C 0.97446 0.06872 0.3881 0.0
C838 C 0.9572 0.15206 0.39191 0.0
C839 C 0.92559 0.12378 0.389 0.0
loop_
_geom_bond_atom_site_label_1
_geom_bond_atom_site_label_2
_geom_bond_distance
_geom_bond_site_symmetry_2
_ccdc_geom_bond_type
Sc0 O3 2.025 . S
Sc0 O10 2.105 . S
Sc0 O13 2.105 . S
Sc0 O16 2.105 . S
Sc0 O19 2.105 . S
Sc1 O3 2.025 . S
Sc1 O11 2.105 . S
Sc1 O15 2.105 . S
Sc1 O17 2.105 . S
Sc1 O21 2.105 . S
Sc2 O3 2.025 . S
Sc2 O12 2.105 . S
Sc2 O14 2.105 . S
Sc2 O18 2.105 . S
Sc2 O20 2.105 . S
O3 Sc0 2.025 . S
O3 Sc1 2.025 . S
O3 Sc2 2.025 . S
C4 O10 1.268 . S
C4 O20 1.268 . S
C5 O11 1.268 . S
C5 O19 1.268 . S
C6 O12 1.268 . S
C6 O21 1.268 . S
C7 O13 1.268 . S
C7 O17 1.268 . S
C8 O14 1.268 . S
C8 O16 1.268 . S
C9 O15 1.268 . S
C9 O18 1.268 . S
O10 Sc0 2.105 . S
O10 C4 1.268 . S
O11 Sc1 2.105 . S
O11 C5 1.268 . S
O12 Sc2 2.105 . S
O12 C6 1.268 . S
O13 Sc0 2.105 . S
O13 C7 1.268 . S
O14 Sc2 2.105 . S
O14 C8 1.268 . S
O15 Sc1 2.105 . S
O15 C9 1.268 . S
O16 Sc0 2.105 . S
O16 C8 1.268 . S
O17 Sc1 2.105 . S
O17 C7 1.268 . S
O18 Sc2 2.105 . S
O18 C9 1.268 . S
O19 Sc0 2.105 . S
O19 C5 1.268 . S
O20 Sc2 2.105 . S
O20 C4 1.268 . S
O21 Sc1 2.105 . S
O21 C6 1.268 . S
Sc22 O25 2.025 . S
Sc22 O32 2.105 . S
Sc22 O35 2.105 . S
Sc22 O38 2.105 . S
Sc22 O41 2.105 . S
Sc23 O25 2.025 1_655 S
Sc23 O33 2.105 1_655 S
Sc23 O37 2.105 . S
Sc23 O39 2.105 . S
Sc23 O43 2.105 1_655 S
Sc24 O25 2.025 . S
Sc24 O34 2.105 . S
Sc24 O36 2.105 . S
Sc24 O40 2.105 1_455 S
Sc24 O42 2.105 . S
O25 Sc22 2.025 . S
O25 Sc23 2.025 1_455 S
O25 Sc24 2.025 . S
C26 O32 1.268 . S
C26 O42 1.268 . S
C27 O33 1.268 . S
C27 O41 1.268 . S
C28 O34 1.268 . S
C28 O43 1.268 . S
C29 O35 1.268 . S
C29 O39 1.268 1_455 S
C30 O36 1.268 . S
C30 O38 1.268 . S
C31 O37 1.268 . S
C31 O40 1.268 . S
O32 Sc22 2.105 . S
O32 C26 1.268 . S
O33 Sc23 2.105 1_455 S
O33 C27 1.268 . S
O34 Sc24 2.105 . S
O34 C28 1.268 . S
O35 Sc22 2.105 . S
O35 C29 1.268 . S
O36 Sc24 2.105 . S
O36 C30 1.268 . S
O37 Sc23 2.105 . S
O37 C31 1.268 . S
O38 Sc22 2.105 . S
O38 C30 1.268 . S
O39 Sc23 2.105 . S
O39 C29 1.268 1_655 S
O40 Sc24 2.105 1_655 S
O40 C31 1.268 . S
O41 Sc22 2.105 . S
O41 C27 1.268 . S
O42 Sc24 2.105 . S
O42 C26 1.268 . S
O43 Sc23 2.105 1_455 S
O43 C28 1.268 . S
Sc44 O47 2.025 . S
Sc44 O54 2.105 . S
Sc44 O57 2.105 . S
Sc44 O60 2.105 . S
Sc44 O63 2.105 1_556 S
Sc45 O47 2.025 1_554 S
Sc45 O55 2.105 . S
Sc45 O59 2.105 1_554 S
Sc45 O61 2.105 1_554 S
Sc45 O65 2.105 . S
Sc46 O47 2.025 . S
Sc46 O56 2.105 . S
Sc46 O58 2.105 . S
Sc46 O62 2.105 . S
Sc46 O64 2.105 . S
O47 Sc44 2.025 . S
O47 Sc45 2.025 1_556 S
O47 Sc46 2.025 . S
C48 O54 1.268 . S
C48 O64 1.268 . S
C49 O55 1.268 . S
C49 O63 1.268 . S
C50 O56 1.268 . S
C50 O65 1.268 1_556 S
C51 O57 1.268 . S
C51 O61 1.268 . S
C52 O58 1.268 . S
C52 O60 1.268 . S
C53 O59 1.268 . S
C53 O62 1.268 . S
O54 Sc44 2.105 . S
O54 C48 1.268 . S
O55 Sc45 2.105 . S
O55 C49 1.268 . S
O56 Sc46 2.105 . S
O56 C50 1.268 . S
O57 Sc44 2.105 . S
O57 C51 1.268 . S
O58 Sc46 2.105 . S
O58 C52 1.268 . S
O59 Sc45 2.105 1_556 S
O59 C53 1.268 . S
O60 Sc44 2.105 . S
O60 C52 1.268 . S
O61 Sc45 2.105 1_556 S
O61 C51 1.268 . S
O62 Sc46 2.105 . S
O62 C53 1.268 . S
O63 Sc44 2.105 1_554 S
O63 C49 1.268 . S
O64 Sc46 2.105 . S
O64 C48 1.268 . S
O65 Sc45 2.105 . S
O65 C50 1.268 1_554 S
Sc66 O69 2.025 . S
Sc66 O76 2.105 . S
Sc66 O79 2.105 . S
Sc66 O82 2.105 . S
Sc66 O85 2.105 . S
Sc67 O69 2.025 . S
Sc67 O77 2.105 . S
Sc67 O81 2.105 . S
Sc67 O83 2.105 . S
Sc67 O87 2.105 . S
Sc68 O69 2.025 . S
Sc68 O78 2.105 . S
Sc68 O80 2.105 . S
Sc68 O84 2.105 . S
Sc68 O86 2.105 . S
O69 Sc66 2.025 . S
O69 Sc67 2.025 . S
O69 Sc68 2.025 . S
C70 O76 1.268 . S
C70 O86 1.268 . S
C71 O77 1.268 . S
C71 O85 1.268 . S
C72 O78 1.268 . S
C72 O87 1.268 . S
C73 O79 1.268 . S
C73 O83 1.268 . S
C74 O80 1.268 . S
C74 O82 1.268 . S
C75 O81 1.268 . S
C75 O84 1.268 . S
O76 Sc66 2.105 . S
O76 C70 1.268 . S
O77 Sc67 2.105 . S
O77 C71 1.268 . S
O78 Sc68 2.105 . S
O78 C72 1.268 . S
O79 Sc66 2.105 . S
O79 C73 1.268 . S
O80 Sc68 2.105 . S
O80 C74 1.268 . S
O81 Sc67 2.105 . S
O81 C75 1.268 . S
O82 Sc66 2.105 . S
O82 C74 1.268 . S
O83 Sc67 2.105 . S
O83 C73 1.268 . S
O84 Sc68 2.105 . S
O84 C75 1.268 . S
O85 Sc66 2.105 . S
O85 C71 1.268 . S
O86 Sc68 2.105 . S
O86 C70 1.268 . S
O87 Sc67 2.105 . S
O87 C72 1.268 . S
Sc88 O91 2.025 . S
Sc88 O98 2.105 . S
Sc88 O101 2.105 . S
Sc88 O104 2.105 . S
Sc88 O107 2.105 . S
Sc89 O91 2.025 . S
Sc89 O99 2.105 . S
Sc89 O103 2.105 . S
Sc89 O105 2.105 . S
Sc89 O109 2.105 . S
Sc90 O91 2.025 . S
Sc90 O100 2.105 . S
Sc90 O102 2.105 . S
Sc90 O106 2.105 . S
Sc90 O108 2.105 . S
O91 Sc88 2.025 . S
O91 Sc89 2.025 . S
O91 Sc90 2.025 . S
C92 O98 1.268 . S
C92 O108 1.268 . S
C93 O99 1.268 . S
C93 O107 1.268 . S
C94 O100 1.268 . S
C94 O109 1.268 . S
C95 O101 1.268 . S
C95 O105 1.268 . S
C96 O102 1.268 . S
C96 O104 1.268 . S
C97 O103 1.268 . S
C97 O106 1.268 . S
O98 Sc88 2.105 . S
O98 C92 1.268 . S
O99 Sc89 2.105 . S
O99 C93 1.268 . S
O100 Sc90 2.105 . S
O100 C94 1.268 . S
O101 Sc88 2.105 . S
O101 C95 1.268 . S
O102 Sc90 2.105 . S
O102 C96 1.268 . S
O103 Sc89 2.105 . S
O103 C97 1.268 . S
O104 Sc88 2.105 . S
O104 C96 1.268 . S
O105 Sc89 2.105 . S
O105 C95 1.268 . S
O106 Sc90 2.105 . S
O106 C97 1.268 . S
O107 Sc88 2.105 . S
O107 C93 1.268 . S
O108 Sc90 2.105 . S
O108 C92 1.268 . S
O109 Sc89 2.105 . S
O109 C94 1.268 . S
Sc110 O113 2.025 . S
Sc110 O120 2.105 . S
Sc110 O123 2.105 . S
Sc110 O126 2.105 . S
Sc110 O129 2.105 1_655 S
Sc111 O113 2.025 1_455 S
Sc111 O121 2.105 . S
Sc111 O125 2.105 1_455 S
Sc111 O127 2.105 1_455 S
Sc111 O131 2.105 . S
Sc112 O113 2.025 . S
Sc112 O122 2.105 . S
Sc112 O124 2.105 . S
Sc112 O128 2.105 . S
Sc112 O130 2.105 . S
O113 Sc110 2.025 . S
O113 Sc111 2.025 1_655 S
O113 Sc112 2.025 . S
C114 O120 1.268 . S
C114 O130 1.268 . S
C115 O121 1.268 . S
C115 O129 1.268 . S
C116 O122 1.268 . S
C116 O131 1.268 1_655 S
C117 O123 1.268 . S
C117 O127 1.268 . S
C118 O124 1.268 . S
C118 O126 1.268 . S
C119 O125 1.268 . S
C119 O128 1.268 . S
O120 Sc110 2.105 . S
O120 C114 1.268 . S
O121 Sc111 2.105 . S
O121 C115 1.268 . S
O122 Sc112 2.105 . S
O122 C116 1.268 . S
O123 Sc110 2.105 . S
O123 C117 1.268 . S
O124 Sc112 2.105 . S
O124 C118 1.268 . S
O125 Sc111 2.105 1_655 S
O125 C119 1.268 . S
O126 Sc110 2.105 . S
O126 C118 1.268 . S
O127 Sc111 2.105 1_655 S
O127 C117 1.268 . S
O128 Sc112 2.105 . S
O128 C119 1.268 . S
O129 Sc110 2.105 1_455 S
O129 C115 1.268 . S
O130 Sc112 2.105 . S
O130 C114 1.268 . S
O131 Sc111 2.105 . S
O131 C116 1.268 1_455 S
Sc132 O135 2.025 . S
Sc132 O142 2.105 . S
Sc132 O145 2.105 . S
Sc132 O148 2.105 . S
Sc132 O151 2.105 1_554 S
Sc133 O135 2.025 1_556 S
Sc133 O143 2.105 . S
Sc133 O147 2.105 1_556 S
Sc133 O149 2.105 1_556 S
Sc133 O153 2.105 . S
Sc134 O135 2.025 . S
Sc134 O144 2.105 . S
Sc134 O146 2.105 . S
Sc134 O150 2.105 . S
Sc134 O152 2.105 . S
O135 Sc132 2.025 . S
O135 Sc133 2.025 1_554 S
O135 Sc134 2.025 . S
C136 O142 1.268 . S
C136 O152 1.268 . S
C137 O143 1.268 . S
C137 O151 1.268 . S
C138 O144 1.268 . S
C138 O153 1.268 1_554 S
C139 O145 1.268 . S
C139 O149 1.268 . S
C140 O146 1.268 . S
C140 O148 1.268 . S
C141 O147 1.268 . S
C141 O150 1.268 . S
O142 Sc132 2.105 . S
O142 C136 1.268 . S
O143 Sc133 2.105 . S
O143 C137 1.268 . S
O144 Sc134 2.105 . S
O144 C138 1.268 . S
O145 Sc132 2.105 . S
O145 C139 1.268 . S
O146 Sc134 2.105 . S
O146 C140 1.268 . S
O147 Sc133 2.105 1_554 S
O147 C141 1.268 . S
O148 Sc132 2.105 . S
O148 C140 1.268 . S
O149 Sc133 2.105 1_554 S
O149 C139 1.268 . S
O150 Sc134 2.105 . S
O150 C141 1.268 . S
O151 Sc132 2.105 1_556 S
O151 C137 1.268 . S
O152 Sc134 2.105 . S
O152 C136 1.268 . S
O153 Sc133 2.105 . S
O153 C138 1.268 1_556 S
Sc154 O157 2.025 . S
Sc154 O164 2.105 . S
Sc154 O167 2.105 . S
Sc154 O170 2.105 . S
Sc154 O173 2.105 . S
Sc155 O157 2.025 . S
Sc155 O165 2.105 . S
Sc155 O169 2.105 . S
Sc155 O171 2.105 . S
Sc155 O175 2.105 . S
Sc156 O157 2.025 . S
Sc156 O166 2.105 . S
Sc156 O168 2.105 . S
Sc156 O172 2.105 . S
Sc156 O174 2.105 . S
O157 Sc154 2.025 . S
O157 Sc155 2.025 . S
O157 Sc156 2.025 . S
C158 O164 1.268 . S
C158 O174 1.268 . S
C159 O165 1.268 . S
C159 O173 1.268 . S
C160 O166 1.268 . S
C160 O175 1.268 . S
C161 O167 1.268 . S
C161 O171 1.268 . S
C162 O168 1.268 . S
C162 O170 1.268 . S
C163 O169 1.268 . S
C163 O172 1.268 . S
O164 Sc154 2.105 . S
O164 C158 1.268 . S
O165 Sc155 2.105 . S
O165 C159 1.268 . S
O166 Sc156 2.105 . S
O166 C160 1.268 . S
O167 Sc154 2.105 . S
O167 C161 1.268 . S
O168 Sc156 2.105 . S
O168 C162 1.268 . S
O169 Sc155 2.105 . S
O169 C163 1.268 . S
O170 Sc154 2.105 . S
O170 C162 1.268 . S
O171 Sc155 2.105 . S
O171 C161 1.268 . S
O172 Sc156 2.105 . S
O172 C163 1.268 . S
O173 Sc154 2.105 . S
O173 C159 1.268 . S
O174 Sc156 2.105 . S
O174 C158 1.268 . S
O175 Sc155 2.105 . S
O175 C160 1.268 . S
Sc176 O179 2.025 . S
Sc176 O186 2.105 . S
Sc176 O189 2.105 . S
Sc176 O192 2.105 . S
Sc176 O195 2.105 . S
Sc177 O179 2.025 . S
Sc177 O187 2.105 . S
Sc177 O191 2.105 . S
Sc177 O193 2.105 . S
Sc177 O197 2.105 . S
Sc178 O179 2.025 . S
Sc178 O188 2.105 . S
Sc178 O190 2.105 . S
Sc178 O194 2.105 . S
Sc178 O196 2.105 . S
O179 Sc176 2.025 . S
O179 Sc177 2.025 . S
O179 Sc178 2.025 . S
C180 O186 1.268 . S
C180 O196 1.268 . S
C181 O187 1.268 . S
C181 O195 1.268 . S
C182 O188 1.268 . S
C182 O197 1.268 . S
C183 O189 1.268 . S
C183 O193 1.268 . S
C184 O190 1.268 . S
C184 O192 1.268 . S
C185 O191 1.268 . S
C185 O194 1.268 . S
O186 Sc176 2.105 . S
O186 C180 1.268 . S
O187 Sc177 2.105 . S
O187 C181 1.268 . S
O188 Sc178 2.105 . S
O188 C182 1.268 . S
O189 Sc176 2.105 . S
O189 C183 1.268 . S
O190 Sc178 2.105 . S
O190 C184 1.268 . S
O191 Sc177 2.105 . S
O191 C185 1.268 . S
O192 Sc176 2.105 . S
O192 C184 1.268 . S
O193 Sc177 2.105 . S
O193 C183 1.268 . S
O194 Sc178 2.105 . S
O194 C185 1.268 . S
O195 Sc176 2.105 . S
O195 C181 1.268 . S
O196 Sc178 2.105 . S
O196 C180 1.268 . S
O197 Sc177 2.105 . S
O197 C182 1.268 . S
Sc198 O201 2.025 1_565 S
Sc198 O208 2.105 1_565 S
Sc198 O211 2.105 . S
Sc198 O214 2.105 . S
Sc198 O217 2.105 1_565 S
Sc199 O201 2.025 . S
Sc199 O209 2.105 . S
Sc199 O213 2.105 . S
Sc199 O215 2.105 1_545 S
Sc199 O219 2.105 . S
Sc200 O201 2.025 . S
Sc200 O210 2.105 . S
Sc200 O212 2.105 . S
Sc200 O216 2.105 . S
Sc200 O218 2.105 . S
O201 Sc198 2.025 1_545 S
O201 Sc199 2.025 . S
O201 Sc200 2.025 . S
C202 O208 1.268 . S
C202 O218 1.268 . S
C203 O209 1.268 . S
C203 O217 1.268 . S
C204 O210 1.268 . S
C204 O219 1.268 . S
C205 O211 1.268 . S
C205 O215 1.268 . S
C206 O212 1.268 . S
C206 O214 1.268 1_545 S
C207 O213 1.268 . S
C207 O216 1.268 . S
O208 Sc198 2.105 1_545 S
O208 C202 1.268 . S
O209 Sc199 2.105 . S
O209 C203 1.268 . S
O210 Sc200 2.105 . S
O210 C204 1.268 . S
O211 Sc198 2.105 . S
O211 C205 1.268 . S
O212 Sc200 2.105 . S
O212 C206 1.268 . S
O213 Sc199 2.105 . S
O213 C207 1.268 . S
O214 Sc198 2.105 . S
O214 C206 1.268 1_565 S
O215 Sc199 2.105 1_565 S
O215 C205 1.268 . S
O216 Sc200 2.105 . S
O216 C207 1.268 . S
O217 Sc198 2.105 1_545 S
O217 C203 1.268 . S
O218 Sc200 2.105 . S
O218 C202 1.268 . S
O219 Sc199 2.105 . S
O219 C204 1.268 . S
Sc220 O223 2.025 . S
Sc220 O230 2.105 . S
Sc220 O233 2.105 . S
Sc220 O236 2.105 . S
Sc220 O239 2.105 . S
Sc221 O223 2.025 . S
Sc221 O231 2.105 . S
Sc221 O235 2.105 . S
Sc221 O237 2.105 . S
Sc221 O241 2.105 1_565 S
Sc222 O223 2.025 1_545 S
Sc222 O232 2.105 . S
Sc222 O234 2.105 1_545 S
Sc222 O238 2.105 1_545 S
Sc222 O240 2.105 . S
O223 Sc220 2.025 . S
O223 Sc221 2.025 . S
O223 Sc222 2.025 1_565 S
C224 O230 1.268 . S
C224 O240 1.268 1_565 S
C225 O231 1.268 . S
C225 O239 1.268 . S
C226 O232 1.268 . S
C226 O241 1.268 . S
C227 O233 1.268 . S
C227 O237 1.268 . S
C228 O234 1.268 . S
C228 O236 1.268 . S
C229 O235 1.268 . S
C229 O238 1.268 . S
O230 Sc220 2.105 . S
O230 C224 1.268 . S
O231 Sc221 2.105 . S
O231 C225 1.268 . S
O232 Sc222 2.105 . S
O232 C226 1.268 . S
O233 Sc220 2.105 . S
O233 C227 1.268 . S
O234 Sc222 2.105 1_565 S
O234 C228 1.268 . S
O235 Sc221 2.105 . S
O235 C229 1.268 . S
O236 Sc220 2.105 . S
O236 C228 1.268 . S
O237 Sc221 2.105 . S
O237 C227 1.268 . S
O238 Sc222 2.105 1_565 S
O238 C229 1.268 . S
O239 Sc220 2.105 . S
O239 C225 1.268 . S
O240 Sc222 2.105 . S
O240 C224 1.268 1_545 S
O241 Sc221 2.105 1_545 S
O241 C226 1.268 . S
Sc242 O245 2.025 . S
Sc242 O252 2.105 . S
Sc242 O255 2.105 . S
Sc242 O258 2.105 . S
Sc242 O261 2.105 . S
Sc243 O245 2.025 . S
Sc243 O253 2.105 . S
Sc243 O257 2.105 . S
Sc243 O259 2.105 . S
Sc243 O263 2.105 . S
Sc244 O245 2.025 . S
Sc244 O254 2.105 . S
Sc244 O256 2.105 . S
Sc244 O260 2.105 . S
Sc244 O262 2.105 . S
O245 Sc242 2.025 . S
O245 Sc243 2.025 . S
O245 Sc244 2.025 . S
C246 O252 1.268 . S
C246 O262 1.268 . S
C247 O253 1.268 . S
C247 O261 1.268 . S
C248 O254 1.268 . S
C248 O263 1.268 . S
C249 O255 1.268 . S
C249 O259 1.268 . S
C250 O256 1.268 . S
C250 O258 1.268 . S
C251 O257 1.268 . S
C251 O260 1.268 . S
O252 Sc242 2.105 . S
O252 C246 1.268 . S
O253 Sc243 2.105 . S
O253 C247 1.268 . S
O254 Sc244 2.105 . S
O254 C248 1.268 . S
O255 Sc242 2.105 . S
O255 C249 1.268 . S
O256 Sc244 2.105 . S
O256 C250 1.268 . S
O257 Sc243 2.105 . S
O257 C251 1.268 . S
O258 Sc242 2.105 . S
O258 C250 1.268 . S
O259 Sc243 2.105 . S
O259 C249 1.268 . S
O260 Sc244 2.105 . S
O260 C251 1.268 . S
O261 Sc242 2.105 . S
O261 C247 1.268 . S
O262 Sc244 2.105 . S
O262 C246 1.268 . S
O263 Sc243 2.105 . S
O263 C248 1.268 . S
H264 C270 0.930 . S
H265 C273 0.930 . S
H266 C274 0.930 . S
H267 C275 0.930 . S
H268 C278 0.930 . S
H269 C279 0.930 . S
C270 H264 0.930 . S
C270 C271 1.355 . S
C270 C272 1.415 . S
C271 C270 1.355 . S
C271 C273 1.419 . S
C272 C270 1.415 . S
C272 C277 1.425 . S
C272 C279 1.409 . S
C273 H265 0.930 . S
C273 C271 1.419 . S
C273 C274 1.362 . S
C274 H266 0.930 . S
C274 C273 1.362 . S
C274 C277 1.409 . S
C275 H267 0.930 . S
C275 C276 1.355 . S
C275 C277 1.415 . S
C276 C275 1.355 . S
C276 C278 1.419 . S
C277 C272 1.425 . S
C277 C274 1.409 . S
C277 C275 1.415 . S
C278 H268 0.930 . S
C278 C276 1.419 . S
C278 C279 1.362 . S
C279 H269 0.930 . S
C279 C272 1.409 . S
C279 C278 1.362 . S
H280 C286 0.930 . S
H281 C289 0.930 . S
H282 C290 0.930 . S
H283 C291 0.930 . S
H284 C294 0.930 . S
H285 C295 0.930 . S
C286 H280 0.930 . S
C286 C287 1.355 1_565 S
C286 C288 1.415 . S
C287 C286 1.355 1_545 S
C287 C289 1.419 . S
C288 C286 1.415 . S
C288 C293 1.425 . S
C288 C295 1.409 . S
C289 H281 0.930 . S
C289 C287 1.419 . S
C289 C290 1.362 . S
C290 H282 0.930 . S
C290 C289 1.362 . S
C290 C293 1.409 1_545 S
C291 H283 0.930 . S
C291 C292 1.355 . S
C291 C293 1.415 . S
C292 C291 1.355 . S
C292 C294 1.419 . S
C293 C288 1.425 . S
C293 C290 1.409 1_565 S
C293 C291 1.415 . S
C294 H284 0.930 . S
C294 C292 1.419 . S
C294 C295 1.362 . S
C295 H285 0.930 . S
C295 C288 1.409 . S
C295 C294 1.362 . S
H296 C302 0.930 . S
H297 C305 0.930 . S
H298 C306 0.930 . S
H299 C307 0.930 . S
H300 C310 0.930 . S
H301 C311 0.930 . S
C302 H296 0.930 . S
C302 C303 1.355 . S
C302 C304 1.415 1_556 S
C303 C302 1.355 . S
C303 C305 1.419 1_556 S
C304 C302 1.415 1_554 S
C304 C309 1.425 . S
C304 C311 1.409 1_554 S
C305 H297 0.930 . S
C305 C303 1.419 1_554 S
C305 C306 1.362 . S
C306 H298 0.930 . S
C306 C305 1.362 . S
C306 C309 1.409 . S
C307 H299 0.930 . S
C307 C308 1.355 . S
C307 C309 1.415 . S
C308 C307 1.355 . S
C308 C310 1.419 . S
C309 C304 1.425 . S
C309 C306 1.409 . S
C309 C307 1.415 . S
C310 H300 0.930 . S
C310 C308 1.419 . S
C310 C311 1.362 1_554 S
C311 H301 0.930 . S
C311 C304 1.409 1_556 S
C311 C310 1.362 1_556 S
H312 C318 0.930 . S
H313 C321 0.930 . S
H314 C322 0.930 . S
H315 C323 0.930 . S
H316 C326 0.930 . S
H317 C327 0.930 . S
C318 H312 0.930 . S
C318 C319 1.355 . S
C318 C320 1.415 . S
C319 C318 1.355 . S
C319 C321 1.419 . S
C320 C318 1.415 . S
C320 C325 1.425 . S
C320 C327 1.409 1_545 S
C321 H313 0.930 . S
C321 C319 1.419 . S
C321 C322 1.362 . S
C322 H314 0.930 . S
C322 C321 1.362 . S
C322 C325 1.409 . S
C323 H315 0.930 . S
C323 C324 1.355 1_545 S
C323 C325 1.415 . S
C324 C323 1.355 1_565 S
C324 C326 1.419 . S
C325 C320 1.425 . S
C325 C322 1.409 . S
C325 C323 1.415 . S
C326 H316 0.930 . S
C326 C324 1.419 . S
C326 C327 1.362 . S
C327 H317 0.930 . S
C327 C320 1.409 1_565 S
C327 C326 1.362 . S
H328 C334 0.930 . S
H329 C337 0.930 . S
H330 C338 0.930 . S
H331 C339 0.930 . S
H332 C342 0.930 . S
H333 C343 0.930 . S
C334 H328 0.930 . S
C334 C335 1.355 . S
C334 C336 1.415 . S
C335 C334 1.355 . S
C335 C337 1.419 . S
C336 C334 1.415 . S
C336 C341 1.425 . S
C336 C343 1.409 . S
C337 H329 0.930 . S
C337 C335 1.419 . S
C337 C338 1.362 . S
C338 H330 0.930 . S
C338 C337 1.362 . S
C338 C341 1.409 . S
C339 H331 0.930 . S
C339 C340 1.355 . S
C339 C341 1.415 . S
C340 C339 1.355 . S
C340 C342 1.419 . S
C341 C336 1.425 . S
C341 C338 1.409 . S
C341 C339 1.415 . S
C342 H332 0.930 . S
C342 C340 1.419 . S
C342 C343 1.362 . S
C343 H333 0.930 . S
C343 C336 1.409 . S
C343 C342 1.362 . S
H344 C350 0.930 . S
H345 C353 0.930 . S
H346 C354 0.930 . S
H347 C355 0.930 . S
H348 C358 0.930 . S
H349 C359 0.930 . S
C350 H344 0.930 . S
C350 C351 1.355 . S
C350 C352 1.415 . S
C351 C350 1.355 . S
C351 C353 1.419 . S
C352 C350 1.415 . S
C352 C357 1.425 . S
C352 C359 1.409 . S
C353 H345 0.930 . S
C353 C351 1.419 . S
C353 C354 1.362 . S
C354 H346 0.930 . S
C354 C353 1.362 . S
C354 C357 1.409 . S
C355 H347 0.930 . S
C355 C356 1.355 . S
C355 C357 1.415 . S
C356 C355 1.355 . S
C356 C358 1.419 . S
C357 C352 1.425 . S
C357 C354 1.409 . S
C357 C355 1.415 . S
C358 H348 0.930 . S
C358 C356 1.419 . S
C358 C359 1.362 . S
C359 H349 0.930 . S
C359 C352 1.409 . S
C359 C358 1.362 . S
H360 C366 0.930 . S
H361 C369 0.930 . S
H362 C370 0.930 . S
H363 C371 0.930 . S
H364 C374 0.930 . S
H365 C375 0.930 . S
C366 H360 0.930 . S
C366 C367 1.355 . S
C366 C368 1.415 . S
C367 C366 1.355 . S
C367 C369 1.419 . S
C368 C366 1.415 . S
C368 C373 1.425 . S
C368 C375 1.409 1_556 S
C369 H361 0.930 . S
C369 C367 1.419 . S
C369 C370 1.362 . S
C370 H362 0.930 . S
C370 C369 1.362 . S
C370 C373 1.409 . S
C371 H363 0.930 . S
C371 C372 1.355 1_556 S
C371 C373 1.415 . S
C372 C371 1.355 1_554 S
C372 C374 1.419 . S
C373 C368 1.425 . S
C373 C370 1.409 . S
C373 C371 1.415 . S
C374 H364 0.930 . S
C374 C372 1.419 . S
C374 C375 1.362 . S
C375 H365 0.930 . S
C375 C368 1.409 1_554 S
C375 C374 1.362 . S
H376 C382 0.930 . S
H377 C385 0.930 . S
H378 C386 0.930 . S
H379 C387 0.930 . S
H380 C390 0.930 . S
H381 C391 0.930 . S
C382 H376 0.930 . S
C382 C383 1.355 . S
C382 C384 1.415 . S
C383 C382 1.355 . S
C383 C385 1.419 . S
C384 C382 1.415 . S
C384 C389 1.425 . S
C384 C391 1.409 . S
C385 H377 0.930 . S
C385 C383 1.419 . S
C385 C386 1.362 . S
C386 H378 0.930 . S
C386 C385 1.362 . S
C386 C389 1.409 . S
C387 H379 0.930 . S
C387 C388 1.355 . S
C387 C389 1.415 . S
C388 C387 1.355 . S
C388 C390 1.419 . S
C389 C384 1.425 . S
C389 C386 1.409 . S
C389 C387 1.415 . S
C390 H380 0.930 . S
C390 C388 1.419 . S
C390 C391 1.362 . S
C391 H381 0.930 . S
C391 C384 1.409 . S
C391 C390 1.362 . S
H392 C398 0.930 . S
H393 C401 0.930 . S
H394 C402 0.930 . S
H395 C403 0.930 . S
H396 C406 0.930 . S
H397 C407 0.930 . S
C398 H392 0.930 . S
C398 C399 1.355 . S
C398 C400 1.415 . S
C399 C398 1.355 . S
C399 C401 1.419 . S
C400 C398 1.415 . S
C400 C405 1.425 . S
C400 C407 1.409 . S
C401 H393 0.930 . S
C401 C399 1.419 . S
C401 C402 1.362 . S
C402 H394 0.930 . S
C402 C401 1.362 . S
C402 C405 1.409 . S
C403 H395 0.930 . S
C403 C404 1.355 . S
C403 C405 1.415 . S
C404 C403 1.355 . S
C404 C406 1.419 . S
C405 C400 1.425 . S
C405 C402 1.409 . S
C405 C403 1.415 . S
C406 H396 0.930 . S
C406 C404 1.419 . S
C406 C407 1.362 . S
C407 H397 0.930 . S
C407 C400 1.409 . S
C407 C406 1.362 . S
H408 C414 0.930 . S
H409 C417 0.930 . S
H410 C418 0.930 . S
H411 C419 0.930 . S
H412 C422 0.930 . S
H413 C423 0.930 . S
C414 H408 0.930 . S
C414 C415 1.355 . S
C414 C416 1.415 . S
C415 C414 1.355 . S
C415 C417 1.419 . S
C416 C414 1.415 . S
C416 C421 1.425 . S
C416 C423 1.409 1_455 S
C417 H409 0.930 . S
C417 C415 1.419 . S
C417 C418 1.362 . S
C418 H410 0.930 . S
C418 C417 1.362 . S
C418 C421 1.409 . S
C419 H411 0.930 . S
C419 C420 1.355 1_455 S
C419 C421 1.415 . S
C420 C419 1.355 1_655 S
C420 C422 1.419 . S
C421 C416 1.425 . S
C421 C418 1.409 . S
C421 C419 1.415 . S
C422 H412 0.930 . S
C422 C420 1.419 . S
C422 C423 1.362 . S
C423 H413 0.930 . S
C423 C416 1.409 1_655 S
C423 C422 1.362 . S
H424 C430 0.930 . S
H425 C433 0.930 . S
H426 C434 0.930 . S
H427 C435 0.930 . S
H428 C438 0.930 . S
H429 C439 0.930 . S
C430 H424 0.930 . S
C430 C431 1.355 1_655 S
C430 C432 1.415 . S
C431 C430 1.355 1_455 S
C431 C433 1.419 . S
C432 C430 1.415 . S
C432 C437 1.425 . S
C432 C439 1.409 . S
C433 H425 0.930 . S
C433 C431 1.419 . S
C433 C434 1.362 . S
C434 H426 0.930 . S
C434 C433 1.362 . S
C434 C437 1.409 1_455 S
C435 H427 0.930 . S
C435 C436 1.355 . S
C435 C437 1.415 . S
C436 C435 1.355 . S
C436 C438 1.419 . S
C437 C432 1.425 . S
C437 C434 1.409 1_655 S
C437 C435 1.415 . S
C438 H428 0.930 . S
C438 C436 1.419 . S
C438 C439 1.362 . S
C439 H429 0.930 . S
C439 C432 1.409 . S
C439 C438 1.362 . S
H440 C446 0.930 . S
H441 C449 0.930 . S
H442 C450 0.930 . S
H443 C451 0.930 . S
H444 C454 0.930 . S
H445 C455 0.930 . S
C446 H440 0.930 . S
C446 C447 1.355 . S
C446 C448 1.415 . S
C447 C446 1.355 . S
C447 C449 1.419 . S
C448 C446 1.415 . S
C448 C453 1.425 . S
C448 C455 1.409 . S
C449 H441 0.930 . S
C449 C447 1.419 . S
C449 C450 1.362 . S
C450 H442 0.930 . S
C450 C449 1.362 . S
C450 C453 1.409 . S
C451 H443 0.930 . S
C451 C452 1.355 . S
C451 C453 1.415 . S
C452 C451 1.355 . S
C452 C454 1.419 . S
C453 C448 1.425 . S
C453 C450 1.409 . S
C453 C451 1.415 . S
C454 H444 0.930 . S
C454 C452 1.419 . S
C454 C455 1.362 . S
C455 H445 0.930 . S
C455 C448 1.409 . S
C455 C454 1.362 . S
H456 C462 0.930 . S
H457 C465 0.930 . S
H458 C466 0.930 . S
H459 C467 0.930 . S
H460 C470 0.930 . S
H461 C471 0.930 . S
C462 H456 0.930 . S
C462 C463 1.355 . S
C462 C464 1.415 . S
C463 C462 1.355 . S
C463 C465 1.419 . S
C464 C462 1.415 . S
C464 C469 1.425 . S
C464 C471 1.409 . S
C465 H457 0.930 . S
C465 C463 1.419 . S
C465 C466 1.362 . S
C466 H458 0.930 . S
C466 C465 1.362 . S
C466 C469 1.409 . S
C467 H459 0.930 . S
C467 C468 1.355 . S
C467 C469 1.415 . S
C468 C467 1.355 . S
C468 C470 1.419 . S
C469 C464 1.425 . S
C469 C466 1.409 . S
C469 C467 1.415 . S
C470 H460 0.930 . S
C470 C468 1.419 . S
C470 C471 1.362 . S
C471 H461 0.930 . S
C471 C464 1.409 . S
C471 C470 1.362 . S
H472 C478 0.930 . S
H473 C481 0.930 . S
H474 C482 0.930 . S
H475 C483 0.930 . S
H476 C486 0.930 . S
H477 C487 0.930 . S
C478 H472 0.930 . S
C478 C479 1.355 . S
C478 C480 1.415 . S
C479 C478 1.355 . S
C479 C481 1.419 . S
C480 C478 1.415 . S
C480 C485 1.425 . S
C480 C487 1.409 . S
C481 H473 0.930 . S
C481 C479 1.419 . S
C481 C482 1.362 . S
C482 H474 0.930 . S
C482 C481 1.362 . S
C482 C485 1.409 . S
C483 H475 0.930 . S
C483 C484 1.355 . S
C483 C485 1.415 . S
C484 C483 1.355 . S
C484 C486 1.419 . S
C485 C480 1.425 . S
C485 C482 1.409 . S
C485 C483 1.415 . S
C486 H476 0.930 . S
C486 C484 1.419 . S
C486 C487 1.362 . S
C487 H477 0.930 . S
C487 C480 1.409 . S
C487 C486 1.362 . S
H488 C494 0.930 . S
H489 C497 0.930 . S
H490 C498 0.930 . S
H491 C499 0.930 . S
H492 C502 0.930 . S
H493 C503 0.930 . S
C494 H488 0.930 . S
C494 C495 1.355 . S
C494 C496 1.415 . S
C495 C494 1.355 . S
C495 C497 1.419 . S
C496 C494 1.415 . S
C496 C501 1.425 . S
C496 C503 1.409 . S
C497 H489 0.930 . S
C497 C495 1.419 . S
C497 C498 1.362 . S
C498 H490 0.930 . S
C498 C497 1.362 . S
C498 C501 1.409 . S
C499 H491 0.930 . S
C499 C500 1.355 . S
C499 C501 1.415 . S
C500 C499 1.355 . S
C500 C502 1.419 . S
C501 C496 1.425 . S
C501 C498 1.409 . S
C501 C499 1.415 . S
C502 H492 0.930 . S
C502 C500 1.419 . S
C502 C503 1.362 . S
C503 H493 0.930 . S
C503 C496 1.409 . S
C503 C502 1.362 . S
H504 C510 0.930 . S
H505 C513 0.930 . S
H506 C514 0.930 . S
H507 C515 0.930 . S
H508 C518 0.930 . S
H509 C519 0.930 . S
C510 H504 0.930 . S
C510 C511 1.355 . S
C510 C512 1.415 . S
C511 C510 1.355 . S
C511 C513 1.419 . S
C512 C510 1.415 . S
C512 C517 1.425 . S
C512 C519 1.409 1_554 S
C513 H505 0.930 . S
C513 C511 1.419 . S
C513 C514 1.362 . S
C514 H506 0.930 . S
C514 C513 1.362 . S
C514 C517 1.409 . S
C515 H507 0.930 . S
C515 C516 1.355 1_554 S
C515 C517 1.415 . S
C516 C515 1.355 1_556 S
C516 C518 1.419 . S
C517 C512 1.425 . S
C517 C514 1.409 . S
C517 C515 1.415 . S
C518 H508 0.930 . S
C518 C516 1.419 . S
C518 C519 1.362 . S
C519 H509 0.930 . S
C519 C512 1.409 1_556 S
C519 C518 1.362 . S
H520 C526 0.930 . S
H521 C529 0.930 . S
H522 C530 0.930 . S
H523 C531 0.930 . S
H524 C534 0.930 . S
H525 C535 0.930 . S
C526 H520 0.930 . S
C526 C527 1.355 . S
C526 C528 1.415 . S
C527 C526 1.355 . S
C527 C529 1.419 . S
C528 C526 1.415 . S
C528 C533 1.425 . S
C528 C535 1.409 . S
C529 H521 0.930 . S
C529 C527 1.419 . S
C529 C530 1.362 . S
C530 H522 0.930 . S
C530 C529 1.362 . S
C530 C533 1.409 . S
C531 H523 0.930 . S
C531 C532 1.355 . S
C531 C533 1.415 . S
C532 C531 1.355 . S
C532 C534 1.419 . S
C533 C528 1.425 . S
C533 C530 1.409 . S
C533 C531 1.415 . S
C534 H524 0.930 . S
C534 C532 1.419 . S
C534 C535 1.362 . S
C535 H525 0.930 . S
C535 C528 1.409 . S
C535 C534 1.362 . S
H536 C542 0.930 . S
H537 C545 0.930 . S
H538 C546 0.935 . S
H539 C547 0.930 . S
H540 C550 0.930 . S
H541 C551 0.930 . S
C542 H536 0.930 . S
C542 C543 1.352 1_556 S
C542 C544 1.415 . S
C543 C542 1.352 1_554 S
C543 C545 1.420 . S
C544 C542 1.415 . S
C544 C549 1.425 . S
C544 C551 1.409 . S
C545 H537 0.930 . S
C545 C543 1.420 . S
C545 C546 1.367 . S
C546 H538 0.935 . S
C546 C545 1.367 . S
C546 C549 1.400 1_554 S
C547 H539 0.930 . S
C547 C548 1.355 . S
C547 C549 1.415 . S
C548 C547 1.355 . S
C548 C550 1.419 . S
C549 C544 1.425 . S
C549 C546 1.400 1_556 S
C549 C547 1.415 . S
C550 H540 0.930 . S
C550 C548 1.419 . S
C550 C551 1.362 . S
C551 H541 0.930 . S
C551 C544 1.409 . S
C551 C550 1.362 . S
H552 C558 0.930 . S
H553 C561 0.930 . S
H554 C562 0.930 . S
H555 C563 0.930 . S
H556 C566 0.930 . S
H557 C567 0.930 . S
C558 H552 0.930 . S
C558 C559 1.355 . S
C558 C560 1.415 . S
C559 C558 1.355 . S
C559 C561 1.419 . S
C560 C558 1.415 . S
C560 C565 1.425 . S
C560 C567 1.409 . S
C561 H553 0.930 . S
C561 C559 1.419 . S
C561 C562 1.362 . S
C562 H554 0.930 . S
C562 C561 1.362 . S
C562 C565 1.409 . S
C563 H555 0.930 . S
C563 C564 1.355 . S
C563 C565 1.415 . S
C564 C563 1.355 . S
C564 C566 1.419 . S
C565 C560 1.425 . S
C565 C562 1.409 . S
C565 C563 1.415 . S
C566 H556 0.930 . S
C566 C564 1.419 . S
C566 C567 1.362 . S
C567 H557 0.930 . S
C567 C560 1.409 . S
C567 C566 1.362 . S
H568 C574 0.930 . S
H569 C577 0.930 . S
H570 C578 0.930 . S
H571 C579 0.930 . S
H572 C582 0.930 . S
H573 C583 0.930 . S
C574 H568 0.930 . S
C574 C575 1.355 . S
C574 C576 1.415 . S
C575 C574 1.355 . S
C575 C577 1.419 . S
C576 C574 1.415 . S
C576 C581 1.425 . S
C576 C583 1.409 . S
C577 H569 0.930 . S
C577 C575 1.419 . S
C577 C578 1.362 . S
C578 H570 0.930 . S
C578 C577 1.362 . S
C578 C581 1.409 . S
C579 H571 0.930 . S
C579 C580 1.355 . S
C579 C581 1.415 . S
C580 C579 1.355 . S
C580 C582 1.419 . S
C581 C576 1.425 . S
C581 C578 1.409 . S
C581 C579 1.415 . S
C582 H572 0.930 . S
C582 C580 1.419 . S
C582 C583 1.362 . S
C583 H573 0.930 . S
C583 C576 1.409 . S
C583 C582 1.362 . S
H584 C590 0.930 . S
H585 C593 0.930 . S
H586 C594 0.930 . S
H587 C595 0.930 . S
H588 C598 0.930 . S
H589 C599 0.930 . S
C590 H584 0.930 . S
C590 C591 1.355 . S
C590 C592 1.415 . S
C591 C590 1.355 . S
C591 C593 1.419 . S
C592 C590 1.415 . S
C592 C597 1.425 . S
C592 C599 1.409 . S
C593 H585 0.930 . S
C593 C591 1.419 . S
C593 C594 1.362 . S
C594 H586 0.930 . S
C594 C593 1.362 . S
C594 C597 1.409 . S
C595 H587 0.930 . S
C595 C596 1.355 . S
C595 C597 1.415 . S
C596 C595 1.355 . S
C596 C598 1.419 . S
C597 C592 1.425 . S
C597 C594 1.409 . S
C597 C595 1.415 . S
C598 H588 0.930 . S
C598 C596 1.419 . S
C598 C599 1.362 . S
C599 H589 0.930 . S
C599 C592 1.409 . S
C599 C598 1.362 . S
H600 C606 0.930 . S
H601 C609 0.930 . S
H602 C610 0.930 . S
H603 C611 0.930 1_565 S
H604 C614 0.930 . S
H605 C615 0.930 . S
C606 H600 0.930 . S
C606 C607 1.355 . S
C606 C608 1.415 . S
C607 C606 1.355 . S
C607 C609 1.419 . S
C608 C606 1.415 . S
C608 C613 1.425 . S
C608 C615 1.409 . S
C609 H601 0.930 . S
C609 C607 1.419 . S
C609 C610 1.362 . S
C610 H602 0.930 . S
C610 C609 1.362 . S
C610 C613 1.409 . S
C611 H603 0.930 1_545 S
C611 C612 1.359 . S
C611 C613 1.415 . S
C612 C611 1.359 . S
C612 C614 1.428 . S
C613 C608 1.425 . S
C613 C610 1.409 . S
C613 C611 1.415 . S
C614 H604 0.930 . S
C614 C612 1.428 . S
C614 C615 1.362 . S
C615 H605 0.930 . S
C615 C608 1.409 . S
C615 C614 1.362 . S
H616 C622 0.930 . S
H617 C625 0.930 . S
H618 C626 0.930 . S
H619 C627 0.930 . S
H620 C630 0.930 . S
H621 C631 0.930 . S
C622 H616 0.930 . S
C622 C623 1.355 . S
C622 C624 1.415 . S
C623 C622 1.355 . S
C623 C625 1.419 . S
C624 C622 1.415 . S
C624 C629 1.425 . S
C624 C631 1.409 . S
C625 H617 0.930 . S
C625 C623 1.419 . S
C625 C626 1.362 . S
C626 H618 0.930 . S
C626 C625 1.362 . S
C626 C629 1.409 . S
C627 H619 0.930 . S
C627 C628 1.355 . S
C627 C629 1.415 . S
C628 C627 1.355 . S
C628 C630 1.419 . S
C629 C624 1.425 . S
C629 C626 1.409 . S
C629 C627 1.415 . S
C630 H620 0.930 . S
C630 C628 1.419 . S
C630 C631 1.362 . S
C631 H621 0.930 . S
C631 C624 1.409 . S
C631 C630 1.362 . S
H632 C638 0.930 . S
H633 C641 0.930 . S
H634 C642 0.930 . S
H635 C643 0.930 . S
H636 C646 0.930 . S
H637 C647 0.930 . S
C638 H632 0.930 . S
C638 C639 1.355 1_565 S
C638 C640 1.415 . S
C639 C638 1.355 1_545 S
C639 C641 1.419 . S
C640 C638 1.415 . S
C640 C645 1.425 . S
C640 C647 1.409 . S
C641 H633 0.930 . S
C641 C639 1.419 . S
C641 C642 1.362 . S
C642 H634 0.930 . S
C642 C641 1.362 . S
C642 C645 1.409 1_545 S
C643 H635 0.930 . S
C643 C644 1.355 . S
C643 C645 1.415 . S
C644 C643 1.355 . S
C644 C646 1.419 . S
C645 C640 1.425 . S
C645 C642 1.409 1_565 S
C645 C643 1.415 . S
C646 H636 0.930 . S
C646 C644 1.419 . S
C646 C647 1.362 . S
C647 H637 0.930 . S
C647 C640 1.409 . S
C647 C646 1.362 . S
H648 C654 0.930 . S
H649 C657 0.930 . S
H650 C658 0.930 . S
H651 C659 0.930 . S
H652 C662 0.930 . S
H653 C663 0.930 . S
C654 H648 0.930 . S
C654 C655 1.355 . S
C654 C656 1.415 . S
C655 C654 1.355 . S
C655 C657 1.419 . S
C656 C654 1.415 . S
C656 C661 1.425 . S
C656 C663 1.409 . S
C657 H649 0.930 . S
C657 C655 1.419 . S
C657 C658 1.362 . S
C658 H650 0.930 . S
C658 C657 1.362 . S
C658 C661 1.409 . S
C659 H651 0.930 . S
C659 C660 1.355 . S
C659 C661 1.415 . S
C660 C659 1.355 . S
C660 C662 1.419 . S
C661 C656 1.425 . S
C661 C658 1.409 . S
C661 C659 1.415 . S
C662 H652 0.930 . S
C662 C660 1.419 . S
C662 C663 1.362 . S
C663 H653 0.930 . S
C663 C656 1.409 . S
C663 C662 1.362 . S
H664 C670 0.930 . S
H665 C673 0.930 . S
H666 C674 0.930 . S
H667 C675 0.930 . S
H668 C678 0.930 . S
H669 C679 0.930 . S
C670 H664 0.930 . S
C670 C671 1.355 . S
C670 C672 1.415 . S
C671 C670 1.355 . S
C671 C673 1.419 . S
C672 C670 1.415 . S
C672 C677 1.425 . S
C672 C679 1.409 . S
C673 H665 0.930 . S
C673 C671 1.419 . S
C673 C674 1.362 . S
C674 H666 0.930 . S
C674 C673 1.362 . S
C674 C677 1.409 . S
C675 H667 0.930 . S
C675 C676 1.355 . S
C675 C677 1.415 . S
C676 C675 1.355 . S
C676 C678 1.419 . S
C677 C672 1.425 . S
C677 C674 1.409 . S
C677 C675 1.415 . S
C678 H668 0.930 . S
C678 C676 1.419 . S
C678 C679 1.362 . S
C679 H669 0.930 . S
C679 C672 1.409 . S
C679 C678 1.362 . S
H680 C686 0.930 . S
H681 C689 0.930 . S
H682 C690 0.930 . S
H683 C691 0.930 . S
H684 C694 0.930 . S
H685 C695 0.930 . S
C686 H680 0.930 . S
C686 C687 1.355 . S
C686 C688 1.415 . S
C687 C686 1.355 . S
C687 C689 1.419 . S
C688 C686 1.415 . S
C688 C693 1.425 . S
C688 C695 1.409 . S
C689 H681 0.930 . S
C689 C687 1.419 . S
C689 C690 1.362 . S
C690 H682 0.930 . S
C690 C689 1.362 . S
C690 C693 1.409 . S
C691 H683 0.930 . S
C691 C692 1.355 . S
C691 C693 1.415 . S
C692 C691 1.355 . S
C692 C694 1.419 . S
C693 C688 1.425 . S
C693 C690 1.409 . S
C693 C691 1.415 . S
C694 H684 0.930 . S
C694 C692 1.419 . S
C694 C695 1.362 . S
C695 H685 0.930 . S
C695 C688 1.409 . S
C695 C694 1.362 . S
H696 C702 0.930 . S
H697 C705 0.930 . S
H698 C706 0.930 . S
H699 C707 0.930 . S
H700 C710 0.930 . S
H701 C711 0.930 . S
C702 H696 0.930 . S
C702 C703 1.355 . S
C702 C704 1.415 . S
C703 C702 1.355 . S
C703 C705 1.419 . S
C704 C702 1.415 . S
C704 C709 1.425 . S
C704 C711 1.409 . S
C705 H697 0.930 . S
C705 C703 1.419 . S
C705 C706 1.362 . S
C706 H698 0.930 . S
C706 C705 1.362 . S
C706 C709 1.409 . S
C707 H699 0.930 . S
C707 C708 1.355 . S
C707 C709 1.415 . S
C708 C707 1.355 . S
C708 C710 1.419 . S
C709 C704 1.425 . S
C709 C706 1.409 . S
C709 C707 1.415 . S
C710 H700 0.930 . S
C710 C708 1.419 . S
C710 C711 1.362 . S
C711 H701 0.930 . S
C711 C704 1.409 . S
C711 C710 1.362 . S
H712 C718 0.930 . S
H713 C721 0.930 . S
H714 C722 0.930 . S
H715 C723 0.930 . S
H716 C726 0.930 . S
H717 C727 0.930 . S
C718 H712 0.930 . S
C718 C719 1.355 . S
C718 C720 1.415 . S
C719 C718 1.355 . S
C719 C721 1.419 . S
C720 C718 1.415 . S
C720 C725 1.425 . S
C720 C727 1.409 . S
C721 H713 0.930 . S
C721 C719 1.419 . S
C721 C722 1.362 . S
C722 H714 0.930 . S
C722 C721 1.362 . S
C722 C725 1.409 . S
C723 H715 0.930 . S
C723 C724 1.355 . S
C723 C725 1.415 . S
C724 C723 1.355 . S
C724 C726 1.419 . S
C725 C720 1.425 . S
C725 C722 1.409 . S
C725 C723 1.415 . S
C726 H716 0.930 . S
C726 C724 1.419 . S
C726 C727 1.362 . S
C727 H717 0.930 . S
C727 C720 1.409 . S
C727 C726 1.362 . S
H728 C734 0.930 . S
H729 C737 0.930 . S
H730 C738 0.930 . S
H731 C739 0.930 . S
H732 C742 0.930 . S
H733 C743 0.930 . S
C734 H728 0.930 . S
C734 C735 1.355 . S
C734 C736 1.415 . S
C735 C734 1.355 . S
C735 C737 1.419 . S
C736 C734 1.415 . S
C736 C741 1.425 . S
C736 C743 1.409 . S
C737 H729 0.930 . S
C737 C735 1.419 . S
C737 C738 1.362 . S
C738 H730 0.930 . S
C738 C737 1.362 . S
C738 C741 1.409 . S
C739 H731 0.930 . S
C739 C740 1.355 . S
C739 C741 1.415 . S
C740 C739 1.355 . S
C740 C742 1.419 . S
C741 C736 1.425 . S
C741 C738 1.409 . S
C741 C739 1.415 . S
C742 H732 0.930 . S
C742 C740 1.419 . S
C742 C743 1.362 . S
C743 H733 0.930 . S
C743 C736 1.409 . S
C743 C742 1.362 . S
H744 C750 0.930 . S
H745 C753 0.930 . S
H746 C754 0.930 1_655 S
H747 C755 0.930 . S
H748 C758 0.930 . S
H749 C759 0.930 . S
C750 H744 0.930 . S
C750 C751 1.355 . S
C750 C752 1.415 . S
C751 C750 1.355 . S
C751 C753 1.419 . S
C752 C750 1.415 . S
C752 C757 1.425 . S
C752 C759 1.409 . S
C753 H745 0.930 . S
C753 C751 1.419 . S
C753 C754 1.362 . S
C754 H746 0.930 1_455 S
C754 C753 1.362 . S
C754 C757 1.409 . S
C755 H747 0.930 . S
C755 C756 1.355 1_655 S
C755 C757 1.415 1_655 S
C756 C755 1.355 1_455 S
C756 C758 1.419 . S
C757 C752 1.425 . S
C757 C754 1.409 . S
C757 C755 1.415 1_455 S
C758 H748 0.930 . S
C758 C756 1.419 . S
C758 C759 1.362 . S
C759 H749 0.930 . S
C759 C752 1.409 . S
C759 C758 1.362 . S
H760 C766 0.930 . S
H761 C769 0.930 . S
H762 C770 0.930 . S
H763 C771 0.930 . S
H764 C774 0.930 . S
H765 C775 0.930 . S
C766 H760 0.930 . S
C766 C767 1.355 . S
C766 C768 1.415 . S
C767 C766 1.355 . S
C767 C769 1.419 . S
C768 C766 1.415 . S
C768 C773 1.425 . S
C768 C775 1.409 . S
C769 H761 0.930 . S
C769 C767 1.419 . S
C769 C770 1.362 . S
C770 H762 0.930 . S
C770 C769 1.362 . S
C770 C773 1.409 . S
C771 H763 0.930 . S
C771 C772 1.355 . S
C771 C773 1.415 . S
C772 C771 1.355 . S
C772 C774 1.419 . S
C773 C768 1.425 . S
C773 C770 1.409 . S
C773 C771 1.415 . S
C774 H764 0.930 . S
C774 C772 1.419 . S
C774 C775 1.362 . S
C775 H765 0.930 . S
C775 C768 1.409 . S
C775 C774 1.362 . S
H776 C782 0.930 . S
H777 C785 0.930 . S
H778 C786 0.930 . S
H779 C787 0.930 . S
H780 C790 0.930 . S
H781 C791 0.930 . S
C782 H776 0.930 . S
C782 C783 1.355 . S
C782 C784 1.415 . S
C783 C782 1.355 . S
C783 C785 1.419 . S
C784 C782 1.415 . S
C784 C789 1.425 . S
C784 C791 1.409 . S
C785 H777 0.930 . S
C785 C783 1.419 . S
C785 C786 1.362 . S
C786 H778 0.930 . S
C786 C785 1.362 . S
C786 C789 1.409 . S
C787 H779 0.930 . S
C787 C788 1.355 . S
C787 C789 1.415 . S
C788 C787 1.355 . S
C788 C790 1.419 . S
C789 C784 1.425 . S
C789 C786 1.409 . S
C789 C787 1.415 . S
C790 H780 0.930 . S
C790 C788 1.419 . S
C790 C791 1.362 . S
C791 H781 0.930 . S
C791 C784 1.409 . S
C791 C790 1.362 . S
H792 C798 0.930 . S
H793 C801 0.930 . S
H794 C802 0.930 . S
H795 C803 0.930 . S
H796 C806 0.930 . S
H797 C807 0.930 . S
C798 H792 0.930 . S
C798 C799 1.355 . S
C798 C800 1.415 . S
C799 C798 1.355 . S
C799 C801 1.419 . S
C800 C798 1.415 . S
C800 C805 1.425 . S
C800 C807 1.409 . S
C801 H793 0.930 . S
C801 C799 1.419 . S
C801 C802 1.362 . S
C802 H794 0.930 . S
C802 C801 1.362 . S
C802 C805 1.409 . S
C803 H795 0.930 . S
C803 C804 1.355 . S
C803 C805 1.415 . S
C804 C803 1.355 . S
C804 C806 1.419 . S
C805 C800 1.425 . S
C805 C802 1.409 . S
C805 C803 1.415 . S
C806 H796 0.930 . S
C806 C804 1.419 . S
C806 C807 1.362 . S
C807 H797 0.930 . S
C807 C800 1.409 . S
C807 C806 1.362 . S
H808 C814 0.930 . S
H809 C817 0.930 . S
H810 C818 0.930 . S
H811 C819 0.930 . S
H812 C822 0.930 . S
H813 C823 0.930 . S
C814 H808 0.930 . S
C814 C815 1.355 . S
C814 C816 1.415 . S
C815 C814 1.355 . S
C815 C817 1.419 . S
C816 C814 1.415 . S
C816 C821 1.425 . S
C816 C823 1.409 . S
C817 H809 0.930 . S
C817 C815 1.419 . S
C817 C818 1.362 . S
C818 H810 0.930 . S
C818 C817 1.362 . S
C818 C821 1.409 . S
C819 H811 0.930 . S
C819 C820 1.355 . S
C819 C821 1.415 . S
C820 C819 1.355 . S
C820 C822 1.419 . S
C821 C816 1.425 . S
C821 C818 1.409 . S
C821 C819 1.415 . S
C822 H812 0.930 . S
C822 C820 1.419 . S
C822 C823 1.362 . S
C823 H813 0.930 . S
C823 C816 1.409 . S
C823 C822 1.362 . S
H824 C830 0.930 . S
H825 C833 0.930 . S
H826 C834 0.930 . S
H827 C835 0.930 . S
H828 C838 0.930 . S
H829 C839 0.930 . S
C830 H824 0.930 . S
C830 C831 1.355 . S
C830 C832 1.415 . S
C831 C830 1.355 . S
C831 C833 1.419 . S
C832 C830 1.415 . S
C832 C837 1.425 . S
C832 C839 1.409 . S
C833 H825 0.930 . S
C833 C831 1.419 . S
C833 C834 1.362 . S
C834 H826 0.930 . S
C834 C833 1.362 . S
C834 C837 1.409 . S
C835 H827 0.930 . S
C835 C836 1.343 1_655 S
C835 C837 1.415 . S
C836 C835 1.343 1_455 S
C836 C838 1.420 . S
C837 C832 1.425 . S
C837 C834 1.409 . S
C837 C835 1.415 . S
C838 H828 0.930 . S
C838 C836 1.420 . S
C838 C839 1.362 1_455 S
C839 H829 0.930 . S
C839 C832 1.409 . S
C839 C838 1.362 1_655 S
C271 C6 1.203 . S
C276 C248 1.121 . S
C287 C203 1.151 . S
C292 C31 1.200 . S
C303 C51 1.105 . S
C308 C181 1.188 . S
C319 C75 1.103 . S
C324 C229 1.171 . S
C335 C93 1.204 . S
C340 C226 1.130 . S
C351 C115 1.150 . S
C356 C251 1.200 . S
C367 C205 1.139 . S
C372 C139 1.203 . S
C383 C161 1.201 . S
C388 C183 1.117 . S
C399 C72 1.129 . S
C404 C95 1.204 . S
C415 C9 1.131 . S
C420 C117 1.204 . S
C431 C28 1.204 . S
C436 C137 1.131 . S
C447 C159 1.173 . S
C452 C49 1.103 . S
C463 C4 1.501 . S
C468 C185 1.436 . S
C479 C29 1.481 1_655 S
C484 C225 1.418 . S
C495 C250 1.420 . S
C500 C52 1.483 . S
C511 C73 1.472 . S
C516 C207 1.417 . S
C527 C94 1.498 . S
C532 C202 1.432 . S
C543 C180 1.457 . S
C548 C116 1.480 1_455 S
C559 C228 1.496 . S
C564 C140 1.513 . S
C575 C247 1.496 . S
C580 C162 1.532 . S
C591 C5 1.481 . S
C596 C70 1.529 . S
C607 C7 1.488 . S
C612 C30 1.451 1_545 S
C623 C26 1.527 . S
C628 C53 1.503 . S
C639 C74 1.423 . S
C644 C50 1.469 1_554 S
C655 C118 1.521 . S
C660 C92 1.465 . S
C671 C114 1.417 . S
C676 C138 1.472 1_556 S
C687 C141 1.421 . S
C692 C160 1.469 . S
C703 C96 1.492 . S
C708 C163 1.427 . S
C719 C184 1.469 . S
C724 C71 1.420 . S
C735 C119 1.470 . S
C740 C204 1.524 . S
C751 C182 1.526 . S
C756 C136 1.503 1_455 S
C767 C227 1.489 . S
C772 C158 1.423 . S
C783 C97 1.470 . S
C788 C246 1.524 . S
C799 C249 1.511 . S
C804 C27 1.495 . S
C815 C48 1.418 . S
C820 C206 1.481 1_565 S
C831 C224 1.476 1_545 S
C836 C8 1.463 . S
