# Generated by pormake.
# Topology ict, (4)-cn, num edge types: 1
# Building blocks:
#     Node 0, Type 0, BuildingBlock: QUQFOY_clean_sbu_3, # of connection points: 4
#     Node 1, Type 0, BuildingBlock: QUQFOY_clean_sbu_3, # of connection points: 4
#     Node 2, Type 0, BuildingBlock: QUQFOY_clean_sbu_3, # of connection points: 4
#     Node 3, Type 0, BuildingBlock: QUQFOY_clean_sbu_3, # of connection points: 4
#     Node 4, Type 0, BuildingBlock: QUQFOY_clean_sbu_3, # of connection points: 4
#     Node 5, Type 0, BuildingBlock: QUQFOY_clean_sbu_3, # of connection points: 4
#     Node 6, Type 0, BuildingBlock: QUQFOY_clean_sbu_3, # of connection points: 4
#     Node 7, Type 0, BuildingBlock: QUQFOY_clean_sbu_3, # of connection points: 4
#     Node 8, Type 0, BuildingBlock: QUQFOY_clean_sbu_3, # of connection points: 4
#     Node 9, Type 0, BuildingBlock: QUQFOY_clean_sbu_3, # of connection points: 4
#     Node 10, Type 0, BuildingBlock: QUQFOY_clean_sbu_3, # of connection points: 4
#     Node 11, Type 0, BuildingBlock: QUQFOY_clean_sbu_3, # of connection points: 4
#     Node 12, Type 0, BuildingBlock: QUQFOY_clean_sbu_3, # of connection points: 4
#     Node 13, Type 0, BuildingBlock: QUQFOY_clean_sbu_3, # of connection points: 4
#     Node 14, Type 0, BuildingBlock: QUQFOY_clean_sbu_3, # of connection points: 4
#     Node 15, Type 0, BuildingBlock: QUQFOY_clean_sbu_3, # of connection points: 4
#     Node 16, Type 0, BuildingBlock: QUQFOY_clean_sbu_3, # of connection points: 4
#     Node 17, Type 0, BuildingBlock: QUQFOY_clean_sbu_3, # of connection points: 4
#     Node 18, Type 0, BuildingBlock: QUQFOY_clean_sbu_3, # of connection points: 4
#     Node 19, Type 0, BuildingBlock: QUQFOY_clean_sbu_3, # of connection points: 4
#     Node 20, Type 0, BuildingBlock: QUQFOY_clean_sbu_3, # of connection points: 4
#     Node 21, Type 0, BuildingBlock: QUQFOY_clean_sbu_3, # of connection points: 4
#     Node 22, Type 0, BuildingBlock: QUQFOY_clean_sbu_3, # of connection points: 4
#     Node 23, Type 0, BuildingBlock: QUQFOY_clean_sbu_3, # of connection points: 4
#     Node 24, Type 0, BuildingBlock: QUQFOY_clean_sbu_3, # of connection points: 4
#     Node 25, Type 0, BuildingBlock: QUQFOY_clean_sbu_3, # of connection points: 4
#     Node 26, Type 0, BuildingBlock: QUQFOY_clean_sbu_3, # of connection points: 4
#     Node 27, Type 0, BuildingBlock: QUQFOY_clean_sbu_3, # of connection points: 4
#     Node 28, Type 0, BuildingBlock: QUQFOY_clean_sbu_3, # of connection points: 4
#     Node 29, Type 0, BuildingBlock: QUQFOY_clean_sbu_3, # of connection points: 4
#     Node 30, Type 0, BuildingBlock: QUQFOY_clean_sbu_3, # of connection points: 4
#     Node 31, Type 0, BuildingBlock: QUQFOY_clean_sbu_3, # of connection points: 4
#     Node 32, Type 0, BuildingBlock: QUQFOY_clean_sbu_3, # of connection points: 4
#     Node 33, Type 0, BuildingBlock: QUQFOY_clean_sbu_3, # of connection points: 4
#     Node 34, Type 0, BuildingBlock: QUQFOY_clean_sbu_3, # of connection points: 4
#     Node 35, Type 0, BuildingBlock: QUQFOY_clean_sbu_3, # of connection points: 4
#     Edge 36, Type (0, 0), BuildingBlock: ZUJKAS_clean_linker_0, # of connection points: 2
#     Edge 37, Type (0, 0), BuildingBlock: ZUJKAS_clean_linker_0, # of connection points: 2
#     Edge 38, Type (0, 0), BuildingBlock: ZUJKAS_clean_linker_0, # of connection points: 2
#     Edge 39, Type (0, 0), BuildingBlock: ZUJKAS_clean_linker_0, # of connection points: 2
#     Edge 40, Type (0, 0), BuildingBlock: ZUJKAS_clean_linker_0, # of connection points: 2
#     Edge 41, Type (0, 0), BuildingBlock: ZUJKAS_clean_linker_0, # of connection points: 2
#     Edge 42, Type (0, 0), BuildingBlock: ZUJKAS_clean_linker_0, # of connection points: 2
#     Edge 43, Type (0, 0), BuildingBlock: ZUJKAS_clean_linker_0, # of connection points: 2
#     Edge 44, Type (0, 0), BuildingBlock: ZUJKAS_clean_linker_0, # of connection points: 2
#     Edge 45, Type (0, 0), BuildingBlock: ZUJKAS_clean_linker_0, # of connection points: 2
#     Edge 46, Type (0, 0), BuildingBlock: ZUJKAS_clean_linker_0, # of connection points: 2
#     Edge 47, Type (0, 0), BuildingBlock: ZUJKAS_clean_linker_0, # of connection points: 2
#     Edge 48, Type (0, 0), BuildingBlock: ZUJKAS_clean_linker_0, # of connection points: 2
#     Edge 49, Type (0, 0), BuildingBlock: ZUJKAS_clean_linker_0, # of connection points: 2
#     Edge 50, Type (0, 0), BuildingBlock: ZUJKAS_clean_linker_0, # of connection points: 2
#     Edge 51, Type (0, 0), BuildingBlock: ZUJKAS_clean_linker_0, # of connection points: 2
#     Edge 52, Type (0, 0), BuildingBlock: ZUJKAS_clean_linker_0, # of connection points: 2
#     Edge 53, Type (0, 0), BuildingBlock: ZUJKAS_clean_linker_0, # of connection points: 2
#     Edge 54, Type (0, 0), BuildingBlock: ZUJKAS_clean_linker_0, # of connection points: 2
#     Edge 55, Type (0, 0), BuildingBlock: ZUJKAS_clean_linker_0, # of connection points: 2
#     Edge 56, Type (0, 0), BuildingBlock: ZUJKAS_clean_linker_0, # of connection points: 2
#     Edge 57, Type (0, 0), BuildingBlock: ZUJKAS_clean_linker_0, # of connection points: 2
#     Edge 58, Type (0, 0), BuildingBlock: ZUJKAS_clean_linker_0, # of connection points: 2
#     Edge 59, Type (0, 0), BuildingBlock: ZUJKAS_clean_linker_0, # of connection points: 2
#     Edge 60, Type (0, 0), BuildingBlock: ZUJKAS_clean_linker_0, # of connection points: 2
#     Edge 61, Type (0, 0), BuildingBlock: ZUJKAS_clean_linker_0, # of connection points: 2
#     Edge 62, Type (0, 0), BuildingBlock: ZUJKAS_clean_linker_0, # of connection points: 2
#     Edge 63, Type (0, 0), BuildingBlock: ZUJKAS_clean_linker_0, # of connection points: 2
#     Edge 64, Type (0, 0), BuildingBlock: ZUJKAS_clean_linker_0, # of connection points: 2
#     Edge 65, Type (0, 0), BuildingBlock: ZUJKAS_clean_linker_0, # of connection points: 2
#     Edge 66, Type (0, 0), BuildingBlock: ZUJKAS_clean_linker_0, # of connection points: 2
#     Edge 67, Type (0, 0), BuildingBlock: ZUJKAS_clean_linker_0, # of connection points: 2
#     Edge 68, Type (0, 0), BuildingBlock: ZUJKAS_clean_linker_0, # of connection points: 2
#     Edge 69, Type (0, 0), BuildingBlock: ZUJKAS_clean_linker_0, # of connection points: 2
#     Edge 70, Type (0, 0), BuildingBlock: ZUJKAS_clean_linker_0, # of connection points: 2
#     Edge 71, Type (0, 0), BuildingBlock: ZUJKAS_clean_linker_0, # of connection points: 2
#     Edge 72, Type (0, 0), BuildingBlock: ZUJKAS_clean_linker_0, # of connection points: 2
#     Edge 73, Type (0, 0), BuildingBlock: ZUJKAS_clean_linker_0, # of connection points: 2
#     Edge 74, Type (0, 0), BuildingBlock: ZUJKAS_clean_linker_0, # of connection points: 2
#     Edge 75, Type (0, 0), BuildingBlock: ZUJKAS_clean_linker_0, # of connection points: 2
#     Edge 76, Type (0, 0), BuildingBlock: ZUJKAS_clean_linker_0, # of connection points: 2
#     Edge 77, Type (0, 0), BuildingBlock: ZUJKAS_clean_linker_0, # of connection points: 2
#     Edge 78, Type (0, 0), BuildingBlock: ZUJKAS_clean_linker_0, # of connection points: 2
#     Edge 79, Type (0, 0), BuildingBlock: ZUJKAS_clean_linker_0, # of connection points: 2
#     Edge 80, Type (0, 0), BuildingBlock: ZUJKAS_clean_linker_0, # of connection points: 2
#     Edge 81, Type (0, 0), BuildingBlock: ZUJKAS_clean_linker_0, # of connection points: 2
#     Edge 82, Type (0, 0), BuildingBlock: ZUJKAS_clean_linker_0, # of connection points: 2
#     Edge 83, Type (0, 0), BuildingBlock: ZUJKAS_clean_linker_0, # of connection points: 2
#     Edge 84, Type (0, 0), BuildingBlock: ZUJKAS_clean_linker_0, # of connection points: 2
#     Edge 85, Type (0, 0), BuildingBlock: ZUJKAS_clean_linker_0, # of connection points: 2
#     Edge 86, Type (0, 0), BuildingBlock: ZUJKAS_clean_linker_0, # of connection points: 2
#     Edge 87, Type (0, 0), BuildingBlock: ZUJKAS_clean_linker_0, # of connection points: 2
#     Edge 88, Type (0, 0), BuildingBlock: ZUJKAS_clean_linker_0, # of connection points: 2
#     Edge 89, Type (0, 0), BuildingBlock: ZUJKAS_clean_linker_0, # of connection points: 2
#     Edge 90, Type (0, 0), BuildingBlock: ZUJKAS_clean_linker_0, # of connection points: 2
#     Edge 91, Type (0, 0), BuildingBlock: ZUJKAS_clean_linker_0, # of connection points: 2
#     Edge 92, Type (0, 0), BuildingBlock: ZUJKAS_clean_linker_0, # of connection points: 2
#     Edge 93, Type (0, 0), BuildingBlock: ZUJKAS_clean_linker_0, # of connection points: 2
#     Edge 94, Type (0, 0), BuildingBlock: ZUJKAS_clean_linker_0, # of connection points: 2
#     Edge 95, Type (0, 0), BuildingBlock: ZUJKAS_clean_linker_0, # of connection points: 2
#     Edge 96, Type (0, 0), BuildingBlock: ZUJKAS_clean_linker_0, # of connection points: 2
#     Edge 97, Type (0, 0), BuildingBlock: ZUJKAS_clean_linker_0, # of connection points: 2
#     Edge 98, Type (0, 0), BuildingBlock: ZUJKAS_clean_linker_0, # of connection points: 2
#     Edge 99, Type (0, 0), BuildingBlock: ZUJKAS_clean_linker_0, # of connection points: 2
#     Edge 100, Type (0, 0), BuildingBlock: ZUJKAS_clean_linker_0, # of connection points: 2
#     Edge 101, Type (0, 0), BuildingBlock: ZUJKAS_clean_linker_0, # of connection points: 2
#     Edge 102, Type (0, 0), BuildingBlock: ZUJKAS_clean_linker_0, # of connection points: 2
#     Edge 103, Type (0, 0), BuildingBlock: ZUJKAS_clean_linker_0, # of connection points: 2
#     Edge 104, Type (0, 0), BuildingBlock: ZUJKAS_clean_linker_0, # of connection points: 2
#     Edge 105, Type (0, 0), BuildingBlock: ZUJKAS_clean_linker_0, # of connection points: 2
#     Edge 106, Type (0, 0), BuildingBlock: ZUJKAS_clean_linker_0, # of connection points: 2
#     Edge 107, Type (0, 0), BuildingBlock: ZUJKAS_clean_linker_0, # of connection points: 2
# Relax obj value: 0.100
# Max RMSD: 0.124
# Mean RMSD: 0.124
data_MOF--net-ict--node1-QUQFOY_clean_sbu_3--edge1-ZUJKAS_clean_linker_0
_symmetry_space_group_name_H-M    P1
_symmetry_Int_Tables_number       1
_symmetry_cell_setting            triclinic
loop_
_symmetry_equiv_pos_as_xyz
'x, y, z'
_cell_length_a     86.127312
_cell_length_b     86.109356
_cell_length_c     48.592045
_cell_angle_alpha  90.024214
_cell_angle_beta   89.987309
_cell_angle_gamma 119.95953
loop_
_atom_site_label
_atom_site_type_symbol
_atom_site_fract_x
_atom_site_fract_y
_atom_site_fract_z
_atom_type_partial_charge
C0 C 0.18533 0.21588 0.02955 0.0
O1 O 0.18086 0.2002 0.03781 0.0
Cd2 Cd 0.20083 0.18913 0.0473 0.0
O3 O 0.20179 0.22751 0.0258 0.0
Cd4 Cd 0.23115 0.22854 0.03092 0.0
C5 C 0.22519 0.21823 0.09881 0.0
O6 O 0.22164 0.19944 0.01029 0.0
O7 O 0.24742 0.21159 0.03002 0.0
O8 O 0.24224 0.24782 0.99045 0.0
C9 C 0.23573 0.19887 0.01554 0.0
O10 O 0.21495 0.20208 0.09127 0.0
C11 C 0.25667 0.25966 0.00162 0.0
O12 O 0.23174 0.23092 0.08128 0.0
O13 O 0.25888 0.25736 0.02683 0.0
C14 C 0.77106 0.96462 0.02774 0.0
O15 O 0.78726 0.97564 0.0337 0.0
Cd16 Cd 0.79756 0.00606 0.04593 0.0
O17 O 0.75951 0.96975 0.02689 0.0
Cd18 Cd 0.75945 -0.00142 0.03247 0.0
C19 C 0.76904 0.00038 0.09955 0.0
O20 O 0.788 0.01854 0.01022 0.0
O21 O 0.77767 0.03155 0.03625 0.0
O22 O 0.74021 0.98985 0.99208 0.0
C23 C 0.78902 0.03299 0.01836 0.0
O24 O 0.78494 0.00557 0.09133 0.0
C25 C 0.72909 0.99396 0.00192 0.0
O26 O 0.75633 -0.00439 0.08231 0.0
O27 O 0.73172 -0.00029 0.02652 0.0
C28 C 0.02082 0.80555 0.02916 0.0
O29 O 0.00959 0.80989 0.03782 0.0
Cd30 Cd 0.97843 0.78951 0.04587 0.0
O31 O 0.01594 0.78918 0.0243 0.0
Cd32 Cd 0.98765 0.75978 0.02736 0.0
C33 C 0.98237 0.76354 0.09549 0.0
O34 O 0.96843 0.76998 0.00714 0.0
O35 O 0.95454 0.74366 0.02514 0.0
O36 O -0.00242 0.7508 0.98639 0.0
C37 C 0.95373 0.75569 0.01126 0.0
O38 O 0.97637 0.77384 0.08868 0.0
C39 C -0.006 0.73557 -0.00441 0.0
O40 O 0.989 0.75771 0.07757 0.0
O41 O 0.98808 0.73185 0.02005 0.0
C42 C 0.20845 0.18312 0.45824 0.0
O43 O 0.19322 0.17909 0.44848 0.0
Cd44 Cd 0.1832 0.19988 0.43837 0.0
O45 O 0.22007 0.19942 0.46324 0.0
Cd46 Cd 0.22185 0.22907 0.45847 0.0
C47 C 0.21425 0.22572 0.38992 0.0
O48 O 0.19213 0.22008 0.47613 0.0
O49 O 0.20567 0.246 0.45661 0.0
O50 O 0.23688 0.23987 0.50233 0.0
C51 C 0.1924 0.23457 0.47054 0.0
O52 O 0.19785 0.21538 0.39607 0.0
C53 C 0.25095 0.25312 0.49271 0.0
O54 O 0.22638 0.23153 0.40836 0.0
O55 O 0.25201 0.25487 0.46671 0.0
C56 C 0.80491 0.02379 0.46213 0.0
O57 O 0.80998 0.01324 0.45294 0.0
Cd58 Cd 0.79073 0.98266 0.44044 0.0
O59 O 0.78828 0.01836 0.46559 0.0
Cd60 Cd 0.75933 0.98984 0.45903 0.0
C61 C 0.76548 0.98782 0.39044 0.0
O62 O 0.7693 0.96992 0.47645 0.0
O63 O 0.74357 0.95666 0.45645 0.0
O64 O 0.74723 0.99308 0.50236 0.0
C65 C 0.75543 0.95535 0.47004 0.0
O66 O 0.77688 0.98319 0.39715 0.0
C67 C 0.73407 0.99378 0.49207 0.0
O68 O 0.75772 0.99212 0.40878 0.0
O69 O 0.73282 0.99325 0.466 0.0
C70 C 0.96406 0.77153 0.45738 0.0
O71 O 0.9749 0.78742 0.44955 0.0
Cd72 Cd 0.00599 0.79898 0.4396 0.0
O73 O 0.96937 0.76021 0.46045 0.0
Cd74 Cd -0.00201 0.76001 0.45454 0.0
C75 C 0.00134 0.77065 0.38697 0.0
O76 O 0.0174 0.78896 0.47597 0.0
O77 O 0.03109 0.77736 0.45467 0.0
O78 O 0.99007 0.74043 0.49456 0.0
C79 C 0.03207 0.78968 0.47014 0.0
O80 O 0.00712 0.78671 0.39489 0.0
C81 C -0.00699 0.72888 0.48314 0.0
O82 O -0.00439 0.75785 0.40428 0.0
O83 O -0.00236 0.73148 0.458 0.0
C84 C 0.8025 0.77684 0.96027 0.0
O85 O 0.80735 0.79285 0.95336 0.0
Cd86 Cd 0.78748 0.80411 0.94385 0.0
O87 O 0.78592 0.76526 0.96272 0.0
Cd88 Cd 0.757 0.76482 0.95685 0.0
C89 C 0.76469 0.7767 0.88991 0.0
O90 O 0.76535 0.79332 0.97925 0.0
O91 O 0.74094 0.78179 0.95568 0.0
O92 O 0.7447 0.74504 -0.00348 0.0
C93 C 0.75145 0.79383 0.97226 0.0
O94 O 0.77453 0.79266 0.89859 0.0
C95 C 0.73065 0.7333 0.98438 0.0
O96 O 0.75785 0.76352 0.90654 0.0
O97 O 0.72919 0.73587 0.959 0.0
C98 C 0.21258 0.02629 0.9589 0.0
O99 O 0.19675 0.01581 0.95043 0.0
Cd100 Cd 0.18439 0.9848 0.93954 0.0
O101 O 0.22357 0.02059 0.96231 0.0
Cd102 Cd 0.22311 0.99154 0.95666 0.0
C103 C 0.21349 0.98849 0.88843 0.0
O104 O 0.1935 0.97294 0.97644 0.0
O105 O 0.20505 0.95843 0.95761 0.0
O106 O 0.24209 -0.00136 -0.00263 0.0
C107 C 0.19235 0.95798 0.97141 0.0
O108 O 0.19754 0.9839 0.89555 0.0
C109 C 0.25372 -0.00422 0.98605 0.0
O110 O 0.2258 0.99315 0.90641 0.0
O111 O 0.25139 0.9915 0.96075 0.0
C112 C 0.96298 0.18295 0.96951 0.0
O113 O 0.97393 0.17754 0.96422 0.0
Cd114 Cd 0.00424 0.19637 0.94998 0.0
O115 O 0.968 0.19962 0.96926 0.0
Cd116 Cd -0.00313 0.22845 0.96323 0.0
C117 C -0.0016 0.2191 0.89609 0.0
O118 O 0.01668 0.21923 0.98398 0.0
O119 O 0.02999 0.24409 0.96161 0.0
O120 O 0.99018 0.24101 0.00344 0.0
C121 C 0.03127 0.23286 0.97689 0.0
O122 O 0.00302 0.20796 0.90443 0.0
C123 C 0.99239 0.25505 0.99139 0.0
O124 O -0.00558 0.22777 0.91319 0.0
O125 O -0.00393 0.25642 0.96588 0.0
C126 C 0.77747 0.80491 0.52371 0.0
O127 O 0.79336 0.80993 0.5315 0.0
Cd128 Cd 0.80448 0.79034 0.54373 0.0
O129 O 0.7659 0.78828 0.52189 0.0
Cd130 Cd 0.76506 0.75934 0.53 0.0
C131 C 0.77615 0.76832 0.59727 0.0
O132 O 0.79381 0.76796 0.50875 0.0
O133 O 0.78191 0.74303 0.53101 0.0
O134 O 0.74545 0.74716 0.49017 0.0
C135 C 0.79432 0.754 0.51533 0.0
O136 O 0.79219 0.77829 0.58904 0.0
C137 C 0.73359 0.73314 0.5022 0.0
O138 O 0.76328 0.76088 0.58016 0.0
O139 O 0.73605 0.73158 0.52758 0.0
C140 C 0.18051 0.9612 0.52966 0.0
O141 O 0.17477 0.97139 0.53805 0.0
Cd142 Cd 0.19276 0.00263 0.54811 0.0
O143 O 0.19724 0.96736 0.52579 0.0
Cd144 Cd 0.2253 -0.00308 0.5305 0.0
C145 C 0.21906 8e-05 0.59881 0.0
O146 O 0.21353 0.015 0.51102 0.0
O147 O 0.23955 0.02989 0.5298 0.0
O148 O 0.23734 0.9903 0.48945 0.0
C149 C 0.22713 0.0301 0.51613 0.0
O150 O 0.20736 0.00425 0.59183 0.0
C151 C 0.25202 0.99355 0.50052 0.0
O152 O 0.2268 -0.00443 0.58076 0.0
O153 O 0.254 -0.0022 0.52583 0.0
C154 C 0.02369 0.21681 0.53227 0.0
O155 O 0.01332 0.20068 0.53954 0.0
Cd156 Cd 0.98226 0.1877 0.55037 0.0
O157 O 0.0178 0.22772 0.52998 0.0
Cd158 Cd 0.98854 0.22666 0.53637 0.0
C159 C 0.98595 0.21541 0.60379 0.0
O160 O 0.96977 0.19749 0.51537 0.0
O161 O 0.95546 0.20842 0.53658 0.0
O162 O -0.00494 0.24579 0.4961 0.0
C163 C 0.95485 0.19605 0.52167 0.0
O164 O 0.98151 0.19973 0.59534 0.0
C165 C 0.99214 0.25729 0.50777 0.0
O166 O 0.99041 0.22823 0.58681 0.0
O167 O 0.98818 0.25491 0.53319 0.0
C168 C 0.84928 0.54904 0.36249 0.0
O169 O 0.84389 0.53301 0.36995 0.0
Cd170 Cd 0.86248 0.52039 0.37962 0.0
O171 O 0.86597 0.56008 0.35931 0.0
Cd172 Cd 0.89454 0.55948 0.36407 0.0
C173 C 0.88735 0.54874 0.43189 0.0
O174 O 0.88385 0.53019 0.34323 0.0
O175 O 0.90964 0.54151 0.36282 0.0
O176 O 0.90655 0.57901 0.32397 0.0
C177 C 0.89761 0.52899 0.34848 0.0
O178 O 0.87607 0.53292 0.4241 0.0
C179 C 0.921 0.59046 0.33555 0.0
O180 O 0.89521 0.56134 0.41442 0.0
O181 O 0.92287 0.5878 0.36073 0.0
C182 C 0.43908 0.29984 0.3601 0.0
O183 O 0.45486 0.31051 0.36854 0.0
Cd184 Cd 0.4667 0.34138 0.37964 0.0
O185 O 0.42786 0.30528 0.35676 0.0
Cd186 Cd 0.42788 0.33415 0.36255 0.0
C187 C 0.43731 0.33692 0.4308 0.0
O188 O 0.45741 0.35311 0.34284 0.0
O189 O 0.44567 0.36731 0.36209 0.0
O190 O 0.40893 0.32699 0.32179 0.0
C191 C 0.45842 0.36797 0.34813 0.0
O192 O 0.45331 0.34169 0.42367 0.0
C193 C 0.39725 0.32978 0.3331 0.0
O194 O 0.42503 0.33228 0.41279 0.0
O195 O 0.39952 0.33399 0.35842 0.0
C196 C 0.68788 0.13917 0.36434 0.0
O197 O 0.67712 0.14418 0.37285 0.0
Cd198 Cd 0.64638 0.12472 0.38416 0.0
O199 O 0.68254 0.12256 0.36086 0.0
Cd200 Cd 0.6539 0.09345 0.36582 0.0
C201 C 0.65154 0.09943 0.43424 0.0
O202 O 0.63471 0.10404 0.34694 0.0
O203 O 0.62076 0.07784 0.36534 0.0
O204 O 0.66264 0.08385 0.32433 0.0
C205 C 0.61993 0.09003 0.35195 0.0
O206 O 0.64663 0.11061 0.42748 0.0
C207 C 0.65896 0.0686 0.33355 0.0
O208 O 0.65617 0.09192 0.41595 0.0
O209 O 0.65351 0.06511 0.35827 0.0
C210 C 0.877 0.5179 0.7958 0.0
O211 O 0.8612 0.51306 0.78772 0.0
Cd212 Cd 0.85037 0.53278 0.77543 0.0
O213 O 0.88862 0.5345 0.79814 0.0
Cd214 Cd 0.8895 0.56365 0.79087 0.0
C215 C 0.87955 0.55577 0.72303 0.0
O216 O 0.86038 0.55472 0.81114 0.0
O217 O 0.87269 0.57997 0.78971 0.0
O218 O 0.90843 0.57572 0.83153 0.0
C219 C 0.86004 0.56881 0.80486 0.0
O220 O 0.86352 0.54513 0.73067 0.0
C221 C 0.92052 0.58974 0.8198 0.0
O222 O 0.89204 0.5635 0.74069 0.0
O223 O 0.91851 0.59131 0.79425 0.0
C224 C 0.47088 0.35833 0.79006 0.0
O225 O 0.47572 0.34749 0.78136 0.0
Cd226 Cd 0.45599 0.31674 0.77029 0.0
O227 O 0.45432 0.35311 0.79379 0.0
Cd228 Cd 0.42503 0.32464 0.78902 0.0
C229 C 0.43065 0.32206 0.72052 0.0
O230 O 0.43547 0.30526 0.80772 0.0
O231 O 0.40914 0.29152 0.78975 0.0
O232 O 0.41582 0.33389 0.83044 0.0
C233 C 0.42134 0.29056 0.80288 0.0
O234 O 0.44175 0.31701 0.72713 0.0
C235 C 0.40052 0.33014 0.8214 0.0
O236 O 0.42333 0.32684 0.73891 0.0
O237 O 0.39682 0.3244 0.79683 0.0
C238 C 0.6287 0.10903 0.79311 0.0
O239 O 0.63941 0.12492 0.78514 0.0
Cd240 Cd 0.67045 0.13652 0.77506 0.0
O241 O 0.63422 0.09792 0.79663 0.0
Cd242 Cd 0.66309 0.098 0.79219 0.0
C243 C 0.66641 0.10724 0.724 0.0
O244 O 0.68233 0.12751 0.81225 0.0
O245 O 0.69611 0.11539 0.79267 0.0
O246 O 0.65545 0.07938 0.83335 0.0
C247 C 0.69703 0.12811 0.80704 0.0
O248 O 0.67116 0.12325 0.73105 0.0
C249 C 0.65799 0.06741 0.82255 0.0
O250 O 0.66161 0.09496 0.74203 0.0
O251 O 0.66237 0.06939 0.7973 0.0
C252 C 0.46844 0.10957 0.29137 0.0
O253 O 0.47342 0.1253 0.28277 0.0
Cd254 Cd 0.45398 0.13659 0.27131 0.0
O255 O 0.45184 0.0983 0.29483 0.0
Cd256 Cd 0.42271 0.09779 0.28958 0.0
C257 C 0.42884 0.10611 0.22118 0.0
O258 O 0.43317 0.12759 0.30834 0.0
O259 O 0.40702 0.11525 0.28975 0.0
O260 O 0.41302 0.07941 0.33103 0.0
C261 C 0.41915 0.12832 0.30312 0.0
O262 O 0.43997 0.12221 0.22796 0.0
C263 C 0.39776 0.06792 0.32174 0.0
O264 O 0.42133 0.09398 0.23945 0.0
O265 O 0.39433 0.06995 0.29702 0.0
C266 C 0.87846 0.35739 0.29065 0.0
O267 O 0.86298 0.34642 0.2814 0.0
Cd268 Cd 0.85203 0.31544 0.27201 0.0
O269 O 0.8897 0.35223 0.29586 0.0
Cd270 Cd 0.89054 0.32367 0.29323 0.0
C271 C 0.88344 0.31979 0.22436 0.0
O272 O 0.86044 0.30461 0.31103 0.0
O273 O 0.87326 0.29055 0.29493 0.0
O274 O 0.90803 0.33282 0.33564 0.0
C275 C 0.85993 0.28982 0.30722 0.0
O276 O 0.86717 0.31475 0.23006 0.0
C277 C 0.91998 0.32941 0.32732 0.0
O278 O 0.89524 0.32504 0.24328 0.0
O279 O 0.91859 0.32391 0.30269 0.0
C280 C 0.63092 0.51885 0.29216 0.0
O281 O 0.64193 0.5142 0.28358 0.0
Cd282 Cd 0.67265 0.53442 0.27283 0.0
O283 O 0.63595 0.53536 0.29598 0.0
Cd284 Cd 0.66419 0.56481 0.29175 0.0
C285 C 0.66712 0.55974 0.22326 0.0
O286 O 0.68393 0.55481 0.31056 0.0
O287 O 0.69727 0.58114 0.29246 0.0
O288 O 0.65486 0.57351 0.33355 0.0
C289 C 0.69847 0.56916 0.30584 0.0
O290 O 0.67233 0.54875 0.22977 0.0
C291 C 0.65808 0.58871 0.32473 0.0
O292 O 0.66213 0.56684 0.24171 0.0
O293 O 0.66359 0.59258 0.30008 0.0
C294 C 0.43906 0.13765 0.86078 0.0
O295 O 0.4548 0.14244 0.86911 0.0
Cd296 Cd 0.46598 0.12282 0.88002 0.0
O297 O 0.42759 0.12108 0.85747 0.0
Cd298 Cd 0.427 0.09193 0.86309 0.0
C299 C 0.43648 0.09833 0.93128 0.0
O300 O 0.45636 0.10183 0.84302 0.0
O301 O 0.44421 0.07599 0.86262 0.0
O302 O 0.40803 0.08052 0.82228 0.0
C303 C 0.45694 0.08774 0.84825 0.0
O304 O 0.45254 0.1093 0.92413 0.0
C305 C 0.39615 0.06614 0.83349 0.0
O306 O 0.42415 0.09092 0.9133 0.0
O307 O 0.39831 0.06406 0.8588 0.0
C308 C 0.84879 0.29775 0.86918 0.0
O309 O 0.84373 0.30823 0.87879 0.0
Cd310 Cd 0.86269 0.33924 0.88946 0.0
O311 O 0.86533 0.30344 0.86429 0.0
Cd312 Cd 0.89405 0.3325 0.86869 0.0
C313 C 0.88964 0.33541 0.93767 0.0
O314 O 0.88262 0.35137 0.85135 0.0
O315 O 0.90916 0.36558 0.86859 0.0
O316 O 0.90518 0.32631 0.82622 0.0
C317 C 0.8966 0.36624 0.85605 0.0
O318 O 0.87805 0.33998 0.93198 0.0
C319 C 0.91974 0.32867 0.83658 0.0
O320 O 0.89672 0.3308 0.91868 0.0
O321 O 0.92204 0.33219 0.86214 0.0
C322 C 0.69057 0.5507 0.8647 0.0
O323 O 0.68022 0.53489 0.87339 0.0
Cd324 Cd 0.64915 0.52236 0.88402 0.0
O325 O 0.68467 0.56148 0.86075 0.0
Cd326 Cd 0.65545 0.56074 0.86558 0.0
C327 C 0.65267 0.55209 0.93408 0.0
O328 O 0.63689 0.5308 0.84684 0.0
O329 O 0.62241 0.54255 0.86519 0.0
O330 O 0.66197 0.57869 0.82387 0.0
C331 C 0.62193 0.52967 0.85187 0.0
O332 O 0.64837 0.53613 0.92743 0.0
C333 C 0.65932 0.59063 0.83455 0.0
O334 O 0.65705 0.56414 0.91575 0.0
O335 O 0.65545 0.58897 0.86 0.0
C336 C 0.51547 0.88038 0.69487 0.0
O337 O 0.51092 0.86513 0.70513 0.0
Cd338 Cd 0.53089 0.85445 0.71679 0.0
O339 O 0.53191 0.89155 0.68985 0.0
Cd340 Cd 0.56124 0.89251 0.69472 0.0
C341 C 0.55768 0.88636 0.76392 0.0
O342 O 0.55087 0.86217 0.6789 0.0
O343 O 0.57735 0.87547 0.69656 0.0
O344 O 0.57203 0.90677 0.65028 0.0
C345 C 0.56515 0.86192 0.68408 0.0
O346 O 0.54625 0.87008 0.75864 0.0
C347 C 0.58532 0.92097 0.65952 0.0
O348 O 0.56454 0.89785 0.74463 0.0
O349 O 0.58719 0.92236 0.68549 0.0
C350 C 0.10726 0.63144 0.70208 0.0
O351 O 0.12286 0.64219 0.71112 0.0
Cd352 Cd 0.13396 0.67327 0.72031 0.0
O353 O 0.09628 0.63693 0.69702 0.0
Cd354 Cd 0.09602 0.66571 0.69941 0.0
C355 C 0.10296 0.66945 0.7682 0.0
O356 O 0.12611 0.68455 0.68101 0.0
O357 O 0.1135 0.69872 0.6975 0.0
O358 O 0.07812 0.65607 0.65742 0.0
C359 C 0.12661 0.69935 0.6847 0.0
O360 O 0.1192 0.67429 0.76255 0.0
C361 C 0.06651 0.66 0.66558 0.0
O362 O 0.09124 0.66438 0.74921 0.0
O363 O 0.0683 0.66607 0.6899 0.0
C364 C 0.35679 0.47423 0.69426 0.0
O365 O 0.34635 0.47935 0.70375 0.0
Cd366 Cd 0.31557 0.46004 0.71551 0.0
O367 O 0.35114 0.45763 0.69004 0.0
Cd368 Cd 0.32237 0.42887 0.6956 0.0
C369 C 0.32013 0.43382 0.7644 0.0
O370 O 0.30247 0.43916 0.67869 0.0
O371 O 0.28942 0.41329 0.69848 0.0
O372 O 0.32492 0.4169 0.65171 0.0
C373 C 0.28799 0.42505 0.68479 0.0
O374 O 0.31566 0.44543 0.7583 0.0
C375 C 0.32578 0.4037 0.66151 0.0
O376 O 0.32442 0.42631 0.74564 0.0
O377 O 0.32575 0.40243 0.68756 0.0
C378 C 0.54648 0.85367 0.11914 0.0
O379 O 0.53097 0.84864 0.10951 0.0
Cd380 Cd 0.51898 0.86765 0.09889 0.0
O381 O 0.55736 0.87022 0.12391 0.0
Cd382 Cd 0.55698 0.89894 0.1193 0.0
C383 C 0.54943 0.89457 0.05038 0.0
O384 O 0.52686 0.88733 0.13738 0.0
O385 O 0.53876 0.91387 0.12026 0.0
O386 O 0.57459 0.90999 0.16149 0.0
C387 C 0.52579 0.90126 0.13313 0.0
O388 O 0.5333 0.88297 0.05621 0.0
C389 C 0.58661 0.92464 0.15116 0.0
O390 O 0.56118 0.90164 0.06926 0.0
O391 O 0.58517 0.92705 0.12572 0.0
C392 C 0.13543 0.69239 0.12065 0.0
O393 O 0.14037 0.68162 0.11197 0.0
Cd394 Cd 0.12072 0.6504 0.10354 0.0
O395 O 0.11895 0.68685 0.12576 0.0
Cd396 Cd 0.09014 0.65782 0.12363 0.0
C397 C 0.09361 0.65365 0.05501 0.0
O398 O 0.10148 0.63919 0.14271 0.0
O399 O 0.07493 0.62483 0.12548 0.0
O400 O 0.08123 0.66715 0.16535 0.0
C401 C 0.08731 0.62432 0.1388 0.0
O402 O 0.105 0.64887 0.06102 0.0
C403 C 0.06573 0.66307 0.15675 0.0
O404 O 0.08688 0.65886 0.07371 0.0
O405 O 0.06182 0.65714 0.13231 0.0
C406 C 0.29449 0.44262 0.1203 0.0
O407 O 0.30496 0.4584 0.11167 0.0
Cd408 Cd 0.33611 0.47062 0.10199 0.0
O409 O 0.30032 0.43183 0.12478 0.0
Cd410 Cd 0.32956 0.43243 0.12161 0.0
C411 C 0.33294 0.44035 0.05299 0.0
O412 O 0.34783 0.4625 0.1403 0.0
O413 O 0.36256 0.45067 0.12317 0.0
O414 O 0.32079 0.41417 0.16324 0.0
C415 C 0.36285 0.4636 0.13606 0.0
O416 O 0.33726 0.45638 0.05928 0.0
C417 C 0.32502 0.4029 0.15436 0.0
O418 O 0.3283 0.4284 0.07155 0.0
O419 O 0.3308 0.40503 0.12981 0.0
C420 C 0.13506 0.44072 0.62289 0.0
O421 O 0.14011 0.4565 0.61447 0.0
Cd422 Cd 0.12072 0.46823 0.60523 0.0
O423 O 0.11849 0.42969 0.62719 0.0
Cd424 Cd 0.08968 0.42993 0.6236 0.0
C425 C 0.09465 0.43849 0.55519 0.0
O426 O 0.1008 0.45959 0.64357 0.0
O427 O 0.07458 0.44788 0.62528 0.0
O428 O 0.0799 0.41123 0.66476 0.0
C429 C 0.08678 0.46049 0.63927 0.0
O430 O 0.10598 0.45454 0.56191 0.0
C431 C 0.06454 0.39997 0.65549 0.0
O432 O 0.08741 0.42632 0.57346 0.0
O433 O 0.06111 0.40225 0.63089 0.0
C434 C 0.54699 0.69209 0.621 0.0
O435 O 0.53133 0.6815 0.612 0.0
Cd436 Cd 0.52022 0.65083 0.60016 0.0
O437 O 0.55816 0.68664 0.62454 0.0
Cd438 Cd 0.55861 0.65802 0.61913 0.0
C439 C 0.55096 0.656 0.55059 0.0
O440 O 0.52871 0.63884 0.63769 0.0
O441 O 0.54106 0.6249 0.61943 0.0
O442 O 0.57661 0.6667 0.66093 0.0
C443 C 0.52804 0.62408 0.63281 0.0
O444 O 0.53484 0.65119 0.55703 0.0
C445 C 0.58827 0.66305 0.65202 0.0
O446 O 0.5629 0.66047 0.56912 0.0
O447 O 0.58648 0.65757 0.62732 0.0
C448 C 0.29622 0.8513 0.62114 0.0
O449 O 0.30724 0.84661 0.61273 0.0
Cd450 Cd 0.33843 0.86644 0.60415 0.0
O451 O 0.30138 0.86777 0.6257 0.0
Cd452 Cd 0.32994 0.89697 0.62247 0.0
C453 C 0.33428 0.89226 0.55428 0.0
O454 O 0.34889 0.88638 0.64233 0.0
O455 O 0.36304 0.91265 0.62421 0.0
O456 O 0.32018 0.90619 0.66337 0.0
C457 C 0.36371 0.90047 0.63789 0.0
O458 O 0.33995 0.8817 0.56114 0.0
C459 C 0.32425 0.92159 0.6543 0.0
O460 O 0.32824 0.89866 0.57226 0.0
O461 O 0.33035 0.92529 0.62992 0.0
C462 C 0.10607 0.47234 0.19812 0.0
O463 O 0.12182 0.47707 0.20629 0.0
Cd464 Cd 0.13267 0.45697 0.21586 0.0
O465 O 0.09472 0.45583 0.19406 0.0
Cd466 Cd 0.09409 0.42658 0.19741 0.0
C467 C 0.10247 0.43138 0.26582 0.0
O468 O 0.12365 0.4369 0.17763 0.0
O469 O 0.11129 0.41069 0.19607 0.0
O470 O 0.07557 0.41732 0.15603 0.0
C471 C 0.12411 0.42265 0.18209 0.0
O472 O 0.11861 0.44247 0.25918 0.0
C473 C 0.0639 0.40212 0.16525 0.0
O474 O 0.09033 0.42432 0.24748 0.0
O475 O 0.0659 0.39854 0.18991 0.0
C476 C 0.51561 0.63484 0.19471 0.0
O477 O 0.51126 0.64602 0.20359 0.0
Cd478 Cd 0.53168 0.67681 0.21345 0.0
O479 O 0.53201 0.63971 0.19012 0.0
Cd480 Cd 0.56167 0.66791 0.19333 0.0
C481 C 0.5577 0.67159 0.26207 0.0
O482 O 0.55137 0.68744 0.1749 0.0
O483 O 0.57805 0.70106 0.19165 0.0
O484 O 0.57012 0.65834 0.15144 0.0
C485 C 0.56574 0.70207 0.17894 0.0
O486 O 0.54666 0.67682 0.25599 0.0
C487 C 0.58529 0.66144 0.16023 0.0
O488 O 0.56443 0.66639 0.24335 0.0
O489 O 0.58924 0.66702 0.18485 0.0
C490 C 0.35396 0.88028 0.19507 0.0
O491 O 0.34287 0.86467 0.20372 0.0
Cd492 Cd 0.31181 0.85391 0.21277 0.0
O493 O 0.34897 0.89175 0.19082 0.0
Cd494 Cd 0.32066 0.89275 0.19507 0.0
C495 C 0.316 0.88356 0.26307 0.0
O496 O 0.3013 0.86341 0.1746 0.0
O497 O 0.28756 0.87577 0.19344 0.0
O498 O 0.3305 0.9119 0.15441 0.0
C499 C 0.28664 0.86302 0.17917 0.0
O500 O 0.31004 0.86732 0.256 0.0
C501 C 0.32658 0.92329 0.16371 0.0
O502 O 0.32246 0.8961 0.2453 0.0
O503 O 0.32054 0.92086 0.18813 0.0
H504 H 0.40555 0.34428 0.87313 0.0
H505 H 0.38235 0.34037 0.906 0.0
H506 H 0.34179 0.3127 0.84417 0.0
H507 H 0.36492 0.3169 0.81097 0.0
H508 H 0.33461 0.33479 0.87964 0.0
H509 H 0.35198 0.28959 0.93706 0.0
H510 H 0.37007 0.31211 0.93227 0.0
H511 H 0.36038 0.29768 0.90297 0.0
C512 C 0.39172 0.33768 0.86636 0.0
C513 C 0.38702 0.33064 0.8396 0.0
C514 C 0.37849 0.33543 0.88519 0.0
C515 C 0.36035 0.32591 0.87766 0.0
C516 C 0.35572 0.32002 0.8504 0.0
H517 H 0.25665 0.26589 0.94654 0.0
H518 H 0.28232 0.28606 0.91832 0.0
C519 C 0.36896 0.3224 0.83148 0.0
C520 C 0.34612 0.32029 0.89873 0.0
H521 H 0.32832 0.29272 0.95423 0.0
C522 C 0.3333 0.32574 0.89615 0.0
C523 C 0.34444 0.30843 0.92018 0.0
C524 C 0.35733 0.30146 0.92328 0.0
C525 C 0.31868 0.31943 0.91432 0.0
C526 C 0.31677 0.30719 0.93526 0.0
C527 C 0.3299 0.30222 0.9383 0.0
C528 C 0.30052 0.2979 0.95268 0.0
C529 C 0.30538 0.32582 0.91082 0.0
C530 C 0.30213 0.29799 0.98144 0.0
C531 C 0.2875 0.2863 -0.00237 0.0
C532 C 0.27103 0.27426 0.9853 0.0
C533 C 0.26915 0.27501 0.95667 0.0
C534 C 0.2838 0.28666 0.94049 0.0
H535 H 0.31161 0.33913 0.9006 0.0
H536 H 0.29417 0.31617 0.89763 0.0
H537 H 0.29977 0.32674 0.93094 0.0
H538 H 0.31495 0.30648 0.99124 0.0
H539 H 0.28936 0.28609 0.01965 0.0
H540 H 0.66349 0.04035 0.80516 0.0
H541 H 0.6681 0.01973 0.834 0.0
H542 H 0.65715 0.04158 0.90649 0.0
H543 H 0.6522 0.06197 0.87784 0.0
H544 H 0.69533 0.03299 0.87065 0.0
H545 H 0.63197 0.98862 0.9253 0.0
H546 H 0.63284 0.001 0.89477 0.0
H547 H 0.6383 0.01183 0.92788 0.0
C548 C 0.66158 0.04043 0.82718 0.0
C549 C 0.65764 0.05289 0.83925 0.0
C550 C 0.66419 0.02861 0.84362 0.0
C551 C 0.66282 0.029 0.87238 0.0
C552 C 0.65788 0.04074 0.88433 0.0
H553 H 0.7081 0.00869 0.01336 0.0
H554 H 0.68928 0.01364 0.98089 0.0
C555 C 0.65521 0.05252 0.86791 0.0
C556 C 0.66937 0.01942 0.88998 0.0
H557 H 0.659 0.99199 0.94595 0.0
C558 C 0.68727 0.02373 0.88675 0.0
C559 C 0.65888 0.00751 0.91114 0.0
C560 C 0.63938 0.00183 0.91484 0.0
C561 C 0.69524 0.01712 0.90485 0.0
C562 C 0.68491 0.00556 0.92647 0.0
C563 C 0.66685 0.00082 0.9293 0.0
C564 C 0.6932 -0.00056 0.94731 0.0
C565 C 0.71493 0.02333 0.90148 0.0
C566 C 0.70092 0.98912 0.93951 0.0
C567 C 0.71183 0.98644 0.95788 0.0
C568 C 0.71499 0.99386 0.98447 0.0
C569 C 0.70599 0.00288 0.99297 0.0
C570 C 0.6952 0.00569 0.97447 0.0
H571 H 0.72173 0.03508 0.88754 0.0
H572 H 0.72188 0.02698 0.92169 0.0
H573 H 0.71645 0.0123 0.89255 0.0
H574 H 0.69926 0.98392 0.91875 0.0
H575 H 0.71841 0.97923 0.95085 0.0
H576 H 0.98276 0.7005 0.00738 0.0
H577 H 0.97871 0.67713 0.97491 0.0
H578 H 0.00282 0.71669 0.91065 0.0
H579 H 0.00662 0.74013 0.94291 0.0
H580 H 0.96962 0.69037 0.89762 0.0
H581 H 0.00871 0.65975 0.93562 0.0
H582 H -0.00497 0.66136 0.96205 0.0
H583 H 0.0129 0.68149 0.94703 0.0
C584 C 0.98765 0.70431 0.98653 0.0
C585 C -0.00516 0.72213 0.97763 0.0
C586 C 0.98545 0.69094 0.96802 0.0
C587 C 0.99061 0.69518 0.94039 0.0
C588 C -0.00117 0.71314 0.93191 0.0
H589 H 0.94834 0.62119 0.80032 0.0
H590 H 0.96918 0.64735 0.82747 0.0
C591 C 0.00096 0.72651 0.95037 0.0
C592 C 0.98476 0.68067 0.91967 0.0
H593 H 0.98391 0.64142 0.90531 0.0
C594 C 0.97307 0.67988 0.89891 0.0
C595 C 0.98916 0.66693 0.92155 0.0
C596 C 0.00229 0.6675 0.94262 0.0
C597 C 0.96487 0.66525 0.88089 0.0
C598 C 0.96878 0.65118 0.88334 0.0
C599 C 0.98099 0.65226 0.90345 0.0
C600 C 0.95894 0.63458 0.86686 0.0
C601 C 0.95131 0.66453 0.86045 0.0
C602 C 0.94704 0.61847 0.88004 0.0
C603 C 0.93524 0.60347 0.86462 0.0
C604 C 0.93513 0.60438 0.83574 0.0
C605 C 0.94797 0.62014 0.82255 0.0
C606 C 0.95985 0.6351 0.83801 0.0
H607 H 0.94726 0.67466 0.86498 0.0
H608 H 0.95721 0.66722 0.8395 0.0
H609 H 0.93911 0.65105 0.86035 0.0
H610 H 0.94617 0.61778 0.9023 0.0
H611 H 0.92559 0.59149 0.8754 0.0
H612 H 0.30897 0.39346 0.61246 0.0
H613 H 0.30379 0.36785 0.58464 0.0
H614 H 0.33631 0.35705 0.6404 0.0
H615 H 0.34021 0.38197 0.66974 0.0
H616 H 0.32214 0.35855 0.55623 0.0
H617 H 0.29364 0.30941 0.64195 0.0
H618 H 0.29937 0.33242 0.6461 0.0
H619 H 0.31659 0.32635 0.6467 0.0
C620 C 0.31508 0.38567 0.61875 0.0
C621 C 0.32481 0.38954 0.64336 0.0
C622 C 0.31216 0.37102 0.60277 0.0
C623 C 0.3193 0.36015 0.61063 0.0
C624 C 0.33006 0.36473 0.63437 0.0
H625 H 0.28694 0.27538 0.48382 0.0
H626 H 0.30791 0.30026 0.51325 0.0
C627 C 0.33246 0.37908 0.65097 0.0
C628 C 0.3146 0.34375 0.59424 0.0
H629 H 0.29333 0.29809 0.59823 0.0
C630 C 0.31588 0.34531 0.56543 0.0
C631 C 0.30656 0.32644 0.60622 0.0
C632 C 0.3038 0.32348 0.63689 0.0
C633 C 0.30793 0.33018 0.54825 0.0
C634 C 0.29947 0.31286 0.56025 0.0
C635 C 0.29969 0.31133 0.58903 0.0
C636 C 0.28802 0.29633 0.54399 0.0
C637 C 0.30752 0.33309 0.51767 0.0
C638 C 0.27022 0.28496 0.5524 0.0
C639 C 0.25856 0.27033 0.53635 0.0
C640 C 0.26426 0.26698 0.51113 0.0
C641 C 0.2822 0.27786 0.50306 0.0
C642 C 0.29411 0.29219 0.51972 0.0
H643 H 0.3108 0.34701 0.51279 0.0
H644 H 0.3176 0.3307 0.50728 0.0
H645 H 0.29412 0.32378 0.50891 0.0
H646 H 0.26509 0.28775 0.57097 0.0
H647 H 0.24478 0.26221 0.54302 0.0
H648 H 0.60776 0.95686 0.66853 0.0
H649 H 0.63186 0.97809 0.63827 0.0
H650 H 0.61851 0.9355 0.57967 0.0
H651 H 0.59377 0.9149 0.6086 0.0
H652 H 0.66026 0.98009 0.62528 0.0
H653 H 0.62715 0.97238 0.52625 0.0
H654 H 0.61432 0.96331 0.55734 0.0
H655 H 0.62125 0.95025 0.53691 0.0
C656 C 0.60975 0.95226 0.64879 0.0
C657 C 0.59884 0.93432 0.64074 0.0
C658 C 0.62353 0.96436 0.63152 0.0
C659 C 0.62687 0.95861 0.60622 0.0
C660 C 0.61584 0.94063 0.59832 0.0
H661 H 0.72505 0.98005 0.54339 0.0
H662 H 0.69993 0.9762 0.5711 0.0
C663 C 0.60177 0.92874 0.6151 0.0
C664 C 0.64305 0.97051 0.58957 0.0
H665 H 0.65816 0.97748 0.52337 0.0
C666 C 0.6597 0.97991 0.60298 0.0
C667 C 0.64259 0.97114 0.56045 0.0
C668 C 0.62529 0.9639 0.54456 0.0
C669 C 0.6758 0.98827 0.58811 0.0
C670 C 0.67535 0.98628 0.55913 0.0
C671 C 0.6587 0.97853 0.54563 0.0
C672 C 0.69158 0.99018 0.54292 0.0
C673 C 0.69309 -0.00111 0.60384 0.0
C674 C 0.69502 -0.00133 0.51709 0.0
C675 C 0.70904 0.00018 0.50056 0.0
C676 C 0.72008 0.99357 0.50985 0.0
C677 C 0.71696 0.98557 0.53592 0.0
C678 C 0.70268 0.98356 0.55199 0.0
H679 H 0.69115 0.00598 0.62147 0.0
H680 H 0.69726 0.98961 0.6125 0.0
H681 H 0.704 0.00895 0.59064 0.0
H682 H 0.68662 0.00378 0.50943 0.0
H683 H 0.71117 0.00638 0.48047 0.0
H684 H 0.00024 0.70314 0.46475 0.0
H685 H 0.0056 0.68272 0.49289 0.0
H686 H 0.99189 0.70179 0.5659 0.0
H687 H 0.98621 0.72194 0.53796 0.0
H688 H 0.03216 0.69624 0.53052 0.0
H689 H 0.96884 0.64873 0.5824 0.0
H690 H 0.96948 0.66138 0.55233 0.0
H691 H 0.97386 0.67151 0.58595 0.0
C692 C -0.00213 0.70261 0.48671 0.0
C693 C -0.00704 0.71427 0.49917 0.0
C694 C 0.00091 0.69092 0.50275 0.0
C695 C -0.001 0.69061 0.53147 0.0
C696 C -0.00694 0.70147 0.54375 0.0
H697 H 0.04361 0.6728 0.67452 0.0
H698 H 0.02483 0.67646 0.64038 0.0
C699 C 0.98997 0.71313 0.52773 0.0
C700 C 0.00599 0.68135 0.5489 0.0
H701 H -0.00385 0.65368 0.60444 0.0
C702 C 0.02419 0.68662 0.54628 0.0
C703 C -0.0044 0.66893 0.56959 0.0
C704 C 0.97582 0.66217 0.57258 0.0
C705 C 0.03254 0.68058 0.56469 0.0
C706 C 0.02231 0.66863 0.58599 0.0
C707 C 0.00394 0.66282 0.58805 0.0
C708 C 0.03093 0.66337 0.60754 0.0
C709 C 0.05248 0.68789 0.56209 0.0
C710 C 0.03995 0.65411 0.60067 0.0
C711 C 0.05084 0.65216 0.62005 0.0
C712 C 0.05271 0.65927 0.64669 0.0
C713 C 0.04253 0.66727 0.65412 0.0
C714 C 0.03175 0.66933 0.63466 0.0
H715 H 0.05893 0.69968 0.54817 0.0
H716 H 0.0591 0.69187 0.58253 0.0
H717 H 0.05491 0.67734 0.55353 0.0
H718 H 0.03921 0.64913 0.57996 0.0
H719 H 0.05835 0.64574 0.61381 0.0
H720 H 0.58016 0.64948 0.10713 0.0
H721 H 0.60315 0.65277 0.07434 0.0
H722 H 0.64309 0.6751 0.13837 0.0
H723 H 0.62017 0.67155 0.17136 0.0
H724 H 0.63024 0.68563 0.06174 0.0
H725 H 0.65868 0.64413 0.09759 0.0
H726 H 0.63728 0.64065 0.10942 0.0
H727 H 0.65777 0.65789 0.12455 0.0
C728 C 0.59376 0.65464 0.1144 0.0
C729 C 0.59839 0.6604 0.14178 0.0
C730 C 0.60686 0.65647 0.09564 0.0
C731 C 0.62481 0.66404 0.10392 0.0
C732 C 0.62928 0.66885 0.13162 0.0
H733 H 0.72872 0.72712 0.03968 0.0
H734 H 0.70217 0.70656 0.06604 0.0
C735 C 0.61616 0.66695 0.15043 0.0
C736 C 0.63917 0.66959 0.08303 0.0
H737 H 0.67761 0.66904 0.06783 0.0
C738 C 0.64038 0.68168 0.06266 0.0
C739 C 0.65244 0.66452 0.08442 0.0
C740 C 0.6514 0.65094 0.10502 0.0
C741 C 0.655 0.68965 0.04463 0.0
C742 C 0.66863 0.68509 0.04663 0.0
C743 C 0.66711 0.67246 0.0663 0.0
C744 C 0.68532 0.69474 0.03032 0.0
C745 C 0.65623 0.70368 0.02469 0.0
C746 C 0.68485 0.69431 0.00144 0.0
C747 C 0.69997 0.70619 0.98628 0.0
C748 C 0.71584 0.71853 -0.0002 0.0
C749 C 0.71667 0.71786 0.02865 0.0
C750 C 0.70152 0.70608 0.04377 0.0
H751 H 0.64643 0.70811 0.02953 0.0
H752 H 0.66989 0.71561 0.02483 0.0
H753 H 0.6534 0.69803 0.00356 0.0
H754 H 0.67254 0.68541 0.99068 0.0
H755 H 0.69897 0.70625 0.96407 0.0
H756 H 0.31313 0.94541 0.17477 0.0
H757 H 0.30852 0.96423 0.14191 0.0
H758 H 0.33647 0.95205 0.07954 0.0
H759 H 0.3408 0.93286 0.11209 0.0
H760 H 0.33009 0.99364 0.10628 0.0
H761 H 0.28534 0.93074 0.04927 0.0
H762 H 0.29371 0.93064 0.08323 0.0
H763 H 0.30802 0.9356 0.05374 0.0
C764 C 0.31863 0.94702 0.15423 0.0
C765 C 0.32704 0.9374 0.14585 0.0
C766 C 0.31601 0.95782 0.1355 0.0
C767 C 0.32183 0.95921 0.10818 0.0
C768 C 0.33158 0.95085 0.10042 0.0
H769 H 0.27996 0.98938 0.96748 0.0
H770 H 0.30063 0.98429 -0.00463 0.0
C771 C 0.33408 0.93994 0.11906 0.0
C772 C 0.31584 0.96759 0.08729 0.0
H773 H 0.28767 0.95725 0.03242 0.0
C774 C 0.32097 0.98577 0.08992 0.0
C775 C 0.30389 0.95724 0.06605 0.0
C776 C 0.29726 0.93745 0.06291 0.0
C777 C 0.31424 0.99382 0.07201 0.0
C778 C 0.30188 0.98332 0.05131 0.0
C779 C 0.29724 0.96531 0.04819 0.0
C780 C 0.29221 0.98999 0.0342 0.0
C781 C 0.3203 0.01344 0.07554 0.0
C782 C 0.2809 -0.00471 0.04672 0.0
C783 C 0.26909 -0.00177 0.03084 0.0
C784 C 0.26824 -0.00427 0.00217 0.0
C785 C 0.28026 0.99137 0.98953 0.0
C786 C 0.2921 0.98848 0.00542 0.0
H787 H 0.3337 0.02073 0.08547 0.0
H788 H 0.3209 0.01988 0.05547 0.0
H789 H 0.31065 0.01482 0.089 0.0
H790 H 0.28044 -0.00386 0.06892 0.0
H791 H 0.25999 0.00155 0.04121 0.0
H792 H 0.05635 0.40634 0.11212 0.0
H793 H 0.03701 0.38272 0.07992 0.0
H794 H 0.02099 0.34356 0.14492 0.0
H795 H 0.04001 0.36712 0.17731 0.0
H796 H 0.04393 0.35622 0.06802 0.0
H797 H 0.97397 0.32611 0.10453 0.0
H798 H 0.99144 0.3479 0.11581 0.0
H799 H 0.98902 0.32785 0.13144 0.0
C800 C 0.04833 0.39278 0.11974 0.0
C801 C 0.04982 0.38857 0.14721 0.0
C802 C 0.03726 0.3793 0.10131 0.0
C803 C 0.02744 0.36139 0.11003 0.0
C804 C 0.02811 0.35732 0.13783 0.0
H805 H 0.98881 0.25719 0.04685 0.0
H806 H -0.00547 0.28371 0.07318 0.0
C807 C 0.03912 0.37081 0.1563 0.0
C808 C 0.01893 0.34676 0.08949 0.0
H809 H 0.98059 0.30754 0.07501 0.0
C810 C 0.02997 0.34578 0.06915 0.0
C811 C 0.00077 0.33309 0.09116 0.0
C812 C 0.98807 0.33386 0.11176 0.0
C813 C 0.02365 0.33104 0.05137 0.0
C814 C 0.00564 0.31705 0.05362 0.0
C815 C -0.00562 0.31831 0.0733 0.0
C816 C -0.00105 0.30036 0.0374 0.0
C817 C 0.03661 0.33012 0.0314 0.0
C818 C -0.0012 0.30073 0.00853 0.0
C819 C -0.0043 0.28564 0.9934 0.0
C820 C -0.00747 0.26989 0.00694 0.0
C821 C 0.99132 0.26915 0.03581 0.0
C822 C -0.00547 0.28428 0.05091 0.0
H823 H 0.05076 0.34021 0.03612 0.0
H824 H 0.03527 0.31661 0.03166 0.0
H825 H 0.03361 0.33273 0.01027 0.0
H826 H 0.00187 0.31295 -0.00226 0.0
H827 H -0.00347 0.28656 0.97116 0.0
H828 H 0.64585 0.58357 0.37765 0.0
H829 H 0.64978 0.60664 0.41076 0.0
H830 H 0.67326 0.64685 0.34728 0.0
H831 H 0.66906 0.62385 0.31397 0.0
H832 H 0.68309 0.63285 0.42348 0.0
H833 H 0.64355 0.66373 0.38875 0.0
H834 H 0.63927 0.64212 0.37654 0.0
H835 H 0.65696 0.6624 0.36161 0.0
C836 C 0.65139 0.59726 0.37056 0.0
C837 C 0.65731 0.60193 0.34326 0.0
C838 C 0.65359 0.61041 0.3895 0.0
C839 C 0.66169 0.62845 0.38148 0.0
C840 C 0.66661 0.63298 0.35383 0.0
H841 H 0.72745 0.73155 0.44692 0.0
H842 H 0.70634 0.70537 0.42035 0.0
C843 C 0.66434 0.61982 0.33483 0.0
C844 C 0.6677 0.64273 0.4026 0.0
H845 H 0.66871 0.68184 0.41863 0.0
C846 C 0.67962 0.64335 0.42283 0.0
C847 C 0.66327 0.65647 0.40156 0.0
C848 C 0.64991 0.65607 0.38109 0.0
C849 C 0.68802 0.65783 0.44107 0.0
C850 C 0.6841 0.67192 0.43941 0.0
C851 C 0.67164 0.67099 0.41989 0.0
C852 C 0.69424 0.68845 0.45593 0.0
C853 C 0.70184 0.6584 0.46083 0.0
C854 C 0.69388 0.68784 0.4848 0.0
C855 C 0.70608 0.70275 0.50007 0.0
C856 C 0.71868 0.71854 0.48667 0.0
C857 C 0.71801 0.71954 0.45786 0.0
C858 C 0.7059 0.70461 0.44262 0.0
H859 H 0.7058 0.64828 0.4557 0.0
H860 H 0.71407 0.67186 0.46083 0.0
H861 H 0.69623 0.6556 0.48197 0.0
H862 H 0.68474 0.67557 0.49545 0.0
H863 H 0.70614 0.70163 0.52227 0.0
H864 H 0.25238 0.98778 0.44531 0.0
H865 H 0.2783 0.99392 0.41714 0.0
H866 H 0.31097 0.00694 0.49013 0.0
H867 H 0.28513 0.00108 0.51848 0.0
H868 H 0.32397 0.0339 0.45259 0.0
H869 H 0.30826 0.97054 0.40047 0.0
H870 H 0.29061 0.97577 0.39724 0.0
H871 H 0.29635 0.97118 0.43069 0.0
C872 C 0.26496 0.99152 0.45545 0.0
C873 C 0.26675 0.99411 0.4841 0.0
C874 C 0.27975 0.99488 0.43932 0.0
C875 C 0.29653 0.00072 0.45155 0.0
C876 C 0.2981 0.00234 0.4803 0.0
H877 H 0.40214 0.05912 0.37404 0.0
H878 H 0.37852 0.04009 0.40652 0.0
C879 C 0.28333 -0.00099 0.49646 0.0
C880 C 0.31281 0.00774 0.43418 0.0
H881 H 0.33128 -0.00223 0.37958 0.0
C882 C 0.32576 0.02591 0.43698 0.0
C883 C 0.315 -0.00267 0.41368 0.0
C884 C 0.30189 0.97757 0.41048 0.0
C885 C 0.34042 0.03419 0.41908 0.0
C886 C 0.34241 0.0239 0.39811 0.0
C887 C 0.32974 0.00559 0.39573 0.0
C888 C 0.35688 0.03241 0.3774 0.0
C889 C 0.35315 0.0541 0.42192 0.0
C890 C 0.35259 0.0335 0.34989 0.0
C891 C 0.36607 0.04422 0.3312 0.0
C892 C 0.38403 0.05405 0.33981 0.0
C893 C 0.3884 0.05188 0.36688 0.0
C894 C 0.37493 0.04105 0.38548 0.0
H895 H 0.34758 0.06065 0.43519 0.0
H896 H 0.36584 0.05636 0.43137 0.0
H897 H 0.35636 0.06074 0.40147 0.0
H898 H 0.33874 0.02687 0.34325 0.0
H899 H 0.36228 0.04556 0.31046 0.0
H900 H 0.92606 0.34086 0.38071 0.0
H901 H 0.94501 0.33693 0.41419 0.0
H902 H 0.96318 0.3147 0.35076 0.0
H903 H 0.94454 0.31886 0.31708 0.0
H904 H 0.9388 0.30371 0.4265 0.0
H905 H 0.00925 0.34536 0.39304 0.0
H906 H 0.99155 0.34905 0.38075 0.0
H907 H -0.00513 0.33183 0.36566 0.0
C908 C 0.93445 0.33557 0.37372 0.0
C909 C 0.9337 0.33003 0.34629 0.0
C910 C 0.9453 0.33337 0.39288 0.0
C911 C 0.95563 0.32567 0.38495 0.0
C912 C 0.95565 0.32104 0.35725 0.0
H913 H -0.00335 0.26313 0.45242 0.0
H914 H 0.99033 0.28314 0.42515 0.0
C915 C 0.94486 0.3233 0.33804 0.0
C916 C 0.96408 0.3199 0.40613 0.0
H917 H 0.00287 0.3205 0.42303 0.0
C918 C 0.95289 0.30768 0.42613 0.0
C919 C 0.98244 0.325 0.40545 0.0
C920 C -0.00474 0.33867 0.38522 0.0
C921 C 0.9593 0.29967 0.44456 0.0
C922 C 0.97753 0.30431 0.44333 0.0
C923 C 0.98891 0.31702 0.42396 0.0
C924 C 0.98443 0.29478 0.46027 0.0
C925 C 0.94623 0.28555 0.46412 0.0
C926 C 0.98395 0.29525 0.48912 0.0
C927 C 0.9874 0.28368 0.5048 0.0
C928 C 0.99155 0.27161 0.49183 0.0
C929 C -0.00663 0.27218 0.46303 0.0
C930 C 0.98981 0.28366 0.4474 0.0
H931 H 0.93208 0.28101 0.45859 0.0
H932 H 0.94811 0.2737 0.46437 0.0
H933 H 0.9486 0.29117 0.48525 0.0
H934 H 0.98013 0.30399 0.49945 0.0
H935 H 0.98607 0.28369 0.52696 0.0
H936 H 0.07086 0.67661 0.20895 0.0
H937 H 0.0477 0.67236 0.24217 0.0
H938 H 0.00708 0.64553 0.18013 0.0
H939 H 0.03015 0.65005 0.14663 0.0
H940 H 0.00013 0.6674 0.21664 0.0
H941 H 0.0171 0.62113 0.27177 0.0
H942 H 0.03524 0.64368 0.26745 0.0
H943 H 0.0255 0.62961 0.23782 0.0
C944 C 0.05703 0.67013 0.20222 0.0
C945 C 0.05229 0.6634 0.1753 0.0
C946 C 0.04383 0.66768 0.22125 0.0
C947 C 0.02568 0.6583 0.21373 0.0
C948 C 0.02102 0.65274 0.18635 0.0
H949 H 0.92161 0.59759 0.28069 0.0
H950 H 0.94759 0.6181 0.2533 0.0
C951 C 0.03422 0.65529 0.16725 0.0
C952 C 0.01145 0.65247 0.23484 0.0
H953 H -0.0067 0.6239 0.28917 0.0
C954 C -0.00129 0.65805 0.23272 0.0
C955 C 0.00963 0.64023 0.25573 0.0
C956 C 0.02248 0.63316 0.25832 0.0
C957 C 0.984 0.65145 0.25076 0.0
C958 C 0.98191 0.63878 0.27105 0.0
C959 C -0.005 0.63371 0.27371 0.0
C960 C 0.96553 0.62917 0.28812 0.0
C961 C 0.97079 0.658 0.24778 0.0
C962 C 0.96691 0.62867 0.31685 0.0
C963 C 0.9521 0.61679 0.33256 0.0
C964 C 0.93568 0.60512 0.31976 0.0
C965 C 0.93406 0.6064 0.29117 0.0
C966 C 0.94889 0.61826 0.27548 0.0
H967 H 0.97715 0.67153 0.23825 0.0
H968 H 0.95966 0.64868 0.23417 0.0
H969 H 0.96505 0.65851 0.26799 0.0
H970 H 0.97966 0.63689 0.32699 0.0
H971 H 0.95376 0.61616 0.35455 0.0
H972 H 0.37122 0.33654 0.35152 0.0
H973 H 0.35084 0.342 0.32349 0.0
H974 H 0.37076 0.32965 0.25011 0.0
H975 H 0.39094 0.32391 0.27796 0.0
H976 H 0.36441 0.3691 0.28622 0.0
H977 H 0.31743 0.30577 0.23359 0.0
H978 H 0.33005 0.30645 0.26372 0.0
H979 H 0.34035 0.31122 0.23024 0.0
C980 C 0.37092 0.33452 0.32948 0.0
C981 C 0.38279 0.32994 0.31692 0.0
C982 C 0.35924 0.33761 0.31351 0.0
C983 C 0.35916 0.33609 0.28474 0.0
C984 C 0.37029 0.33053 0.2723 0.0
H985 H 0.33853 0.38078 0.14369 0.0
H986 H 0.34329 0.36217 0.17677 0.0
C987 C 0.38194 0.3274 0.28826 0.0
C988 C 0.34974 0.343 0.26755 0.0
H989 H 0.3215 0.333 0.21269 0.0
C990 C 0.35474 0.36111 0.27052 0.0
C991 C 0.33726 0.33258 0.24693 0.0
C992 C 0.33082 0.31288 0.24357 0.0
C993 C 0.34831 0.36935 0.25261 0.0
C994 C 0.33621 0.35909 0.23146 0.0
C995 C 0.33074 0.34081 0.22897 0.0
C996 C 0.33035 0.36759 0.21059 0.0
C997 C 0.35528 0.38922 0.2556 0.0
C998 C 0.32081 0.37617 0.21838 0.0
C999 C 0.31822 0.38696 0.19961 0.0
C1000 C 0.32496 0.38916 0.17266 0.0
C1001 C 0.33326 0.37942 0.16434 0.0
C1002 C 0.33596 0.36874 0.18319 0.0
H1003 H 0.36727 0.39579 0.26913 0.0
H1004 H 0.35885 0.39596 0.23522 0.0
H1005 H 0.3447 0.39135 0.26483 0.0
H1006 H 0.31609 0.37517 0.23932 0.0
H1007 H 0.31159 0.39413 0.20654 0.0
H1008 H 0.59006 0.92481 0.20703 0.0
H1009 H 0.60961 0.95039 0.23609 0.0
H1010 H 0.63424 0.98234 0.16377 0.0
H1011 H 0.61448 0.95692 0.1345 0.0
H1012 H 0.64733 0.9743 0.24138 0.0
H1013 H 0.61083 0.00797 0.20238 0.0
H1014 H 0.60305 0.98456 0.19629 0.0
H1015 H 0.62135 0.00142 0.17654 0.0
C1016 C 0.59985 0.93717 0.19728 0.0
C1017 C 0.60052 0.93895 0.16847 0.0
C1018 C 0.61105 0.95176 0.21393 0.0
C1019 C 0.62311 0.96832 0.20205 0.0
C1020 C 0.62478 0.96974 0.17331 0.0
H1021 H 0.67121 0.07291 0.28072 0.0
H1022 H 0.66671 0.04933 0.24826 0.0
C1023 C 0.61351 0.95519 0.15663 0.0
C1024 C 0.63244 0.98443 0.21969 0.0
H1025 H 0.63312 0.02337 0.2354 0.0
C1026 C 0.64439 0.98514 0.23996 0.0
C1027 C 0.62848 -0.00151 0.21782 0.0
C1028 C 0.61513 -0.0019 0.19727 0.0
C1029 C 0.6524 -0.00048 0.2586 0.0
C1030 C 0.64809 0.01334 0.25711 0.0
C1031 C 0.63651 0.01283 0.23637 0.0
C1032 C 0.65416 0.02781 0.27793 0.0
C1033 C 0.66534 -0.00023 0.27973 0.0
C1034 C 0.64903 0.02359 0.30557 0.0
C1035 C 0.65164 0.03706 0.32421 0.0
C1036 C 0.65922 0.05494 0.31541 0.0
C1037 C 0.66526 0.05925 0.2881 0.0
C1038 C 0.66272 0.0458 0.26953 0.0
H1039 H 0.67157 0.99183 0.27276 0.0
H1040 H 0.67611 0.01367 0.28425 0.0
H1041 H 0.65798 0.99369 0.29911 0.0
H1042 H 0.64204 0.00977 0.31239 0.0
H1043 H 0.6468 0.0333 0.34509 0.0
H1044 H 0.33787 0.95722 0.6437 0.0
H1045 H 0.34232 0.98051 0.67676 0.0
H1046 H 0.31404 0.94013 0.7386 0.0
H1047 H 0.30988 0.91676 0.70585 0.0
H1048 H 0.32052 0.9882 0.71195 0.0
H1049 H 0.36481 0.96987 0.76994 0.0
H1050 H 0.35671 0.96149 0.73584 0.0
H1051 H 0.34217 0.95206 0.76507 0.0
C1052 C 0.33228 0.95326 0.66417 0.0
C1053 C 0.32381 0.93519 0.67234 0.0
C1054 C 0.3348 0.96658 0.68302 0.0
C1055 C 0.32882 0.96204 0.71025 0.0
C1056 C 0.31905 0.94391 0.7178 0.0
H1057 H 0.36956 0.03359 0.85169 0.0
H1058 H 0.349 0.00796 0.82348 0.0
C1059 C 0.31665 0.93059 0.69905 0.0
C1060 C 0.33462 0.97634 0.73127 0.0
H1061 H 0.36228 0.99396 0.78674 0.0
C1062 C 0.3295 0.98939 0.72851 0.0
C1063 C 0.34638 0.97786 0.75278 0.0
C1064 C 0.353 0.96469 0.75608 0.0
C1065 C 0.33606 0.00411 0.74654 0.0
C1066 C 0.34822 0.00587 0.76751 0.0
C1067 C 0.35284 0.9925 0.77076 0.0
C1068 C 0.35776 0.02217 0.78478 0.0
C1069 C 0.33002 0.01767 0.74285 0.0
C1070 C 0.36919 0.03879 0.77244 0.0
C1071 C 0.38094 0.05346 0.7885 0.0
C1072 C 0.38159 0.05171 0.81718 0.0
C1073 C 0.36942 0.03535 0.82964 0.0
C1074 C 0.35764 0.02069 0.81356 0.0
H1075 H 0.31671 0.01161 0.73264 0.0
H1076 H 0.32925 0.02345 0.76289 0.0
H1077 H 0.33978 0.02873 0.72956 0.0
H1078 H 0.36982 0.04016 0.75025 0.0
H1079 H 0.39016 0.06588 0.77828 0.0
H1080 H 0.06851 0.39168 0.70829 0.0
H1081 H 0.0447 0.37269 0.74045 0.0
H1082 H 0.00548 0.35863 0.67599 0.0
H1083 H 0.02922 0.37729 0.64359 0.0
H1084 H 0.01896 0.38065 0.75337 0.0
H1085 H 0.98686 0.3109 0.71488 0.0
H1086 H 0.00882 0.32806 0.70369 0.0
H1087 H 0.989 0.32656 0.68874 0.0
C1088 C 0.05487 0.38416 0.70077 0.0
C1089 C 0.05072 0.38609 0.67345 0.0
C1090 C 0.04128 0.3733 0.71917 0.0
C1091 C 0.02332 0.36413 0.7106 0.0
C1092 C 0.01926 0.36525 0.68295 0.0
H1093 H 0.92015 0.32597 0.78061 0.0
H1094 H 0.94579 0.332 0.75169 0.0
C1095 C 0.03286 0.37605 0.66448 0.0
C1096 C 0.00875 0.35577 0.73125 0.0
H1097 H 0.96937 0.31772 0.74622 0.0
C1098 C 0.0083 0.36678 0.75214 0.0
C1099 C -0.00522 0.33773 0.72942 0.0
C1100 C -0.00505 0.32508 0.70812 0.0
C1101 C -0.00611 0.36054 0.77053 0.0
C1102 C 0.97968 0.34263 0.76832 0.0
C1103 C 0.98032 0.33142 0.74789 0.0
C1104 C 0.96351 0.33591 0.78581 0.0
C1105 C -0.00642 0.37345 0.79128 0.0
C1106 C 0.96479 0.33539 0.81455 0.0
C1107 C 0.95021 0.33211 0.83115 0.0
C1108 C 0.93407 0.32912 0.81924 0.0
C1109 C 0.93243 0.32833 0.79041 0.0
C1110 C 0.94705 0.33172 0.77384 0.0
H1111 H 0.00361 0.3876 0.78644 0.0
H1112 H 0.98011 0.37219 0.79218 0.0
H1113 H -0.00327 0.37033 0.81198 0.0
H1114 H 0.97731 0.33829 0.82414 0.0
H1115 H 0.95183 0.33262 0.8533 0.0
H1116 H 0.65464 0.61825 0.85187 0.0
H1117 H 0.64912 0.63829 0.82302 0.0
H1118 H 0.6571 0.6145 0.75019 0.0
H1119 H 0.663 0.59469 0.77881 0.0
H1120 H 0.67077 0.65215 0.7457 0.0
H1121 H 0.60041 0.61524 0.78375 0.0
H1122 H 0.61733 0.62563 0.8098 0.0
H1123 H 0.61604 0.60744 0.78984 0.0
C1124 C 0.65557 0.61752 0.82972 0.0
C1125 C 0.65897 0.6047 0.81759 0.0
C1126 C 0.65237 0.62895 0.81329 0.0
C1127 C 0.65235 0.6276 0.78451 0.0
C1128 C 0.65699 0.61569 0.77238 0.0
H1129 H 0.61168 0.65112 0.64108 0.0
H1130 H 0.63039 0.64661 0.6742 0.0
C1131 C 0.6603 0.60434 0.78878 0.0
C1132 C 0.64563 0.63705 0.76701 0.0
H1133 H 0.60737 0.63755 0.7508 0.0
C1134 C 0.65697 0.64914 0.74695 0.0
C1135 C 0.62759 0.63301 0.76866 0.0
C1136 C 0.61455 0.61952 0.78898 0.0
C1137 C 0.65064 0.65715 0.72824 0.0
C1138 C 0.63247 0.6527 0.72944 0.0
C1139 C 0.62133 0.64103 0.75003 0.0
C1140 C 0.62411 0.65865 0.7084 0.0
C1141 C 0.6634 0.6702 0.7073 0.0
C1142 C 0.61449 0.66708 0.71652 0.0
C1143 C 0.60361 0.66948 0.6977 0.0
C1144 C 0.60211 0.66342 0.67044 0.0
C1145 C 0.61259 0.65597 0.66193 0.0
C1146 C 0.62342 0.6535 0.68081 0.0
H1147 H 0.67751 0.67652 0.71452 0.0
H1148 H 0.66235 0.6629 0.68793 0.0
H1149 H 0.66017 0.68089 0.70268 0.0
H1150 H 0.61477 0.67107 0.73775 0.0
H1151 H 0.59576 0.67534 0.70487 0.0
H1152 H 0.24499 0.0529 0.97863 0.0
H1153 H 0.25306 0.08371 0.99082 0.0
H1154 H 0.20064 0.07306 0.96569 0.0
H1155 H 0.19241 0.04245 0.95367 0.0
H1156 H 0.25246 0.11123 0.95702 0.0
H1157 H 0.20593 0.09157 0.04567 0.0
H1158 H 0.21268 0.07669 0.03055 0.0
H1159 H 0.19536 0.07949 0.01473 0.0
C1160 C 0.2352 0.05714 0.97568 0.0
C1161 C 0.218 0.04514 0.96539 0.0
C1162 C 0.23984 0.07473 0.98263 0.0
C1163 C 0.22733 0.08051 0.97957 0.0
C1164 C 0.21036 0.06873 0.96869 0.0
H1165 H 0.21093 0.16875 0.98913 0.0
H1166 H 0.21163 0.14111 0.98134 0.0
C1167 C 0.20572 0.05123 0.96173 0.0
C1168 C 0.23173 0.09882 0.98763 0.0
H1169 H 0.21662 0.1211 0.02762 0.0
C1170 C 0.2449 0.11349 0.97279 0.0
C1171 C 0.2219 0.10168 0.00835 0.0
C1172 C 0.2083 0.08654 0.02595 0.0
C1173 C 0.2477 0.13086 0.97705 0.0
C1174 C 0.23713 0.13348 -0.00331 0.0
C1175 C 0.2246 0.11896 0.01242 0.0
C1176 C 0.23772 0.15083 -0.0002 0.0
C1177 C 0.26125 0.14614 0.95967 0.0
C1178 C 0.25226 0.16547 0.01259 0.0
C1179 C 0.2519 0.18134 0.01718 0.0
C1180 C 0.23695 0.18273 0.00905 0.0
C1181 C 0.22263 0.16813 -0.00433 0.0
C1182 C 0.22299 0.15232 0.9912 0.0
H1183 H 0.26724 0.14157 0.9436 0.0
H1184 H 0.25485 0.1531 0.94956 0.0
H1185 H 0.27216 0.15605 0.97303 0.0
H1186 H 0.26367 0.16446 0.01958 0.0
H1187 H 0.26313 0.19236 0.02755 0.0
H1188 H 0.95082 0.15161 -0.003 0.0
H1189 H 0.91975 0.1282 0.00415 0.0
H1190 H 0.90161 0.16009 0.96116 0.0
H1191 H 0.93283 0.18412 0.95554 0.0
H1192 H 0.87995 0.14366 0.00165 0.0
H1193 H 0.89026 0.0935 0.94665 0.0
H1194 H 0.90512 0.10208 0.97548 0.0
H1195 H 0.90719 0.11685 0.94762 0.0
C1196 C 0.94018 0.15366 0.98926 0.0
C1197 C 0.94417 0.16954 0.97547 0.0
C1198 C 0.92243 0.14022 0.99311 0.0
C1199 C 0.90833 0.14207 0.9823 0.0
C1200 C 0.91226 0.15825 0.96942 0.0
H1201 H 0.80587 0.04289 0.96901 0.0
H1202 H 0.83312 0.07093 0.95767 0.0
C1203 C 0.93007 0.17196 0.96622 0.0
C1204 C 0.88957 0.127 0.98425 0.0
H1205 H 0.86393 0.08187 0.97482 0.0
C1206 C 0.87637 0.13017 -0.00454 0.0
C1207 C 0.88469 0.10948 0.9754 0.0
C1208 C 0.89754 0.10533 0.96032 0.0
C1209 C 0.85864 0.11619 -0.00093 0.0
C1210 C 0.85418 0.0984 0.99243 0.0
C1211 C 0.86727 0.0954 0.98032 0.0
C1212 C 0.83629 0.08256 -0.00168 0.0
C1213 C 0.84491 0.12077 0.00952 0.0
C1214 C 0.82868 0.07979 0.02474 0.0
C1215 C 0.81275 0.06401 0.03089 0.0
C1216 C 0.80455 0.05044 0.01106 0.0
C1217 C 0.81201 0.05319 0.98463 0.0
C1218 C 0.82759 0.06919 0.97821 0.0
H1219 H 0.84845 0.13459 0.00344 0.0
H1220 H 0.8313 0.11131 0.00159 0.0
H1221 H 0.84463 0.12024 0.03234 0.0
H1222 H 0.83537 0.08949 0.04097 0.0
H1223 H 0.80736 0.06206 0.05155 0.0
H1224 H 0.79763 0.74443 0.97815 0.0
H1225 H 0.82074 0.73617 0.98567 0.0
H1226 H 0.8615 0.78912 0.96085 0.0
H1227 H 0.83867 0.79751 0.95319 0.0
H1228 H 0.8631 0.7592 0.93529 0.0
H1229 H 0.85839 0.75515 0.04973 0.0
H1230 H 0.83794 0.74298 0.0304 0.0
H1231 H 0.84988 0.76701 0.02986 0.0
C1232 C 0.81152 0.75433 0.97434 0.0
C1233 C 0.8163 0.77166 0.96514 0.0
C1234 C 0.82468 0.74959 0.97873 0.0
C1235 C 0.84279 0.76209 0.97399 0.0
C1236 C 0.84758 0.77931 0.96465 0.0
H1237 H 0.94869 0.78026 0.98348 0.0
H1238 H 0.9204 0.77902 0.97307 0.0
C1239 C 0.83449 0.78408 0.96036 0.0
C1240 C 0.85694 0.75741 0.97851 0.0
H1241 H 0.88047 0.75064 0.02898 0.0
C1242 C 0.8668 0.75713 0.95573 0.0
C1243 C 0.86159 0.75458 0.00519 0.0
C1244 C 0.85152 0.75501 0.03031 0.0
C1245 C 0.88156 0.75459 0.95899 0.0
C1246 C 0.88679 0.75267 0.98579 0.0
C1247 C 0.87644 0.75216 0.00847 0.0
C1248 C 0.90378 0.75275 0.99092 0.0
C1249 C 0.89152 0.75417 0.93372 0.0
C1250 C 0.90385 0.73852 0.00487 0.0
C1251 C 0.92008 0.73924 0.01103 0.0
C1252 C 0.93647 0.75429 0.00355 0.0
C1253 C 0.9363 0.76844 0.98941 0.0
C1254 C 0.92012 0.7677 0.98327 0.0
H1255 H 0.88276 0.74993 0.91524 0.0
H1256 H 0.90293 0.76783 0.92977 0.0
H1257 H 0.8969 0.74493 0.9365 0.0
H1258 H 0.89137 0.72692 0.01115 0.0
H1259 H 0.91978 0.72815 0.02201 0.0
H1260 H 0.1624 0.21163 0.49897 0.0
H1261 H 0.13652 0.21494 0.50947 0.0
H1262 H 0.16169 0.26636 0.46897 0.0
H1263 H 0.18774 0.26308 0.45804 0.0
H1264 H 0.13528 0.24269 0.53957 0.0
H1265 H 0.11206 0.23791 0.4312 0.0
H1266 H 0.12804 0.23119 0.4411 0.0
H1267 H 0.13487 0.25453 0.43876 0.0
C1268 C 0.16248 0.22367 0.49227 0.0
C1269 C 0.17707 0.23705 0.47752 0.0
C1270 C 0.14769 0.22555 0.49835 0.0
C1271 C 0.14713 0.2408 0.48976 0.0
C1272 C 0.16178 0.25437 0.47543 0.0
H1273 H 0.04927 0.24869 0.50959 0.0
H1274 H 0.08074 0.25802 0.49999 0.0
C1275 C 0.17665 0.2525 0.46931 0.0
C1276 C 0.13099 0.24212 0.49583 0.0
H1277 H 0.0935 0.23865 0.46596 0.0
C1278 C 0.12627 0.24209 0.52348 0.0
C1279 C 0.11934 0.24145 0.47477 0.0
C1280 C 0.12368 0.24117 0.44475 0.0
C1281 C 0.10981 0.2406 0.53065 0.0
C1282 C 0.09771 0.23886 0.50963 0.0
C1283 C 0.10285 0.23996 0.48198 0.0
C1284 C 0.07896 0.23374 0.51595 0.0
C1285 C 0.10527 0.24035 0.56069 0.0
C1286 C 0.06759 0.21695 0.52772 0.0
C1287 C 0.0497 0.21155 0.53303 0.0
C1288 C 0.04277 0.22284 0.52666 0.0
C1289 C 0.05421 0.23971 0.51483 0.0
C1290 C 0.07216 0.24507 0.50932 0.0
H1291 H 0.11753 0.24698 0.57362 0.0
H1292 H 0.09732 0.24712 0.56408 0.0
H1293 H 0.09714 0.22624 0.56765 0.0
H1294 H 0.07253 0.2079 0.53252 0.0
H1295 H 0.04131 0.19847 0.54212 0.0
H1296 H 0.74488 0.79961 0.50593 0.0
H1297 H 0.73727 0.82258 0.49321 0.0
H1298 H 0.7911 0.86394 0.51275 0.0
H1299 H 0.79888 0.84128 0.52521 0.0
H1300 H 0.73943 0.85115 0.5256 0.0
H1301 H 0.78352 0.87638 0.43412 0.0
H1302 H 0.77727 0.85506 0.44993 0.0
H1303 H 0.79507 0.8755 0.46428 0.0
C1304 C 0.75511 0.8136 0.50745 0.0
C1305 C 0.77253 0.81859 0.51642 0.0
C1306 C 0.75072 0.82668 0.50019 0.0
C1307 C 0.76372 0.84491 0.50158 0.0
C1308 C 0.78099 0.84992 0.51096 0.0
H1309 H 0.78075 0.9497 0.49388 0.0
H1310 H 0.78006 0.92125 0.5001 0.0
C1311 C 0.78538 0.83692 0.51822 0.0
C1312 C 0.75938 0.85892 0.49382 0.0
H1313 H 0.77382 0.89588 0.45312 0.0
C1314 C 0.74666 0.86075 0.50942 0.0
C1315 C 0.76877 0.87131 0.47255 0.0
C1316 C 0.78179 0.86938 0.45406 0.0
C1317 C 0.74392 0.87536 0.50538 0.0
C1318 C 0.75409 0.88828 0.48519 0.0
C1319 C 0.76614 0.88596 0.46872 0.0
C1320 C 0.75369 0.90515 0.48242 0.0
C1321 C 0.7309 0.87746 0.52357 0.0
C1322 C 0.739 0.90543 0.4705 0.0
C1323 C 0.73935 0.92173 0.4668 0.0
C1324 C 0.75442 0.93793 0.475 0.0
C1325 C 0.76895 0.93748 0.48733 0.0
C1326 C 0.7686 0.92125 0.49089 0.0
H1327 H 0.72508 0.86698 0.53978 0.0
H1328 H 0.7377 0.89084 0.53358 0.0
H1329 H 0.71981 0.87662 0.51084 0.0
H1330 H 0.72743 0.8931 0.46365 0.0
H1331 H 0.72797 0.92167 0.45723 0.0
H1332 H 0.06586 0.79684 0.45614 0.0
H1333 H 0.0944 0.82355 0.46808 0.0
H1334 H 0.06588 0.84445 0.51373 0.0
H1335 H 0.03747 0.81788 0.50221 0.0
H1336 H 0.10475 0.85892 0.45504 0.0
H1337 H 0.10469 0.8505 0.56787 0.0
H1338 H 0.09033 0.83235 0.54513 0.0
H1339 H 0.08412 0.84854 0.55574 0.0
C1340 C 0.06571 0.80705 0.46898 0.0
C1341 C 0.04942 0.80525 0.47827 0.0
C1342 C 0.08201 0.82228 0.47576 0.0
C1343 C 0.08226 0.83582 0.49216 0.0
C1344 C 0.06603 0.83396 0.50159 0.0
H1345 H 0.14457 0.94342 0.53982 0.0
H1346 H 0.1229 0.9121 0.53047 0.0
C1347 C 0.04978 0.81881 0.49481 0.0
C1348 C 0.09928 0.85252 0.49805 0.0
H1349 H 0.12348 0.88048 0.5506 0.0
C1350 C 0.10911 0.86351 0.4759 0.0
C1351 C 0.10495 0.8584 0.52529 0.0
C1352 C 0.09557 0.84674 0.54986 0.0
C1353 C 0.12377 0.88075 0.48032 0.0
C1354 C 0.12877 0.88699 0.50759 0.0
C1355 C 0.11952 0.87565 0.52971 0.0
C1356 C 0.14235 0.90582 0.51359 0.0
C1357 C 0.13318 0.89255 0.45589 0.0
C1358 C 0.16052 0.9126 0.50738 0.0
C1359 C 0.17304 0.9306 0.51274 0.0
C1360 C 0.16753 0.94204 0.52435 0.0
C1361 C 0.1493 0.93505 0.53077 0.0
C1362 C 0.13688 0.91712 0.52552 0.0
H1363 H 0.12615 0.88653 0.43623 0.0
H1364 H 0.13423 0.90586 0.45844 0.0
H1365 H 0.14698 0.89472 0.45449 0.0
H1366 H 0.16501 0.904 0.49842 0.0
H1367 H 0.18697 0.93554 0.50762 0.0
H1368 H 0.79305 0.95079 0.01908 0.0
H1369 H 0.78453 0.91978 0.0089 0.0
H1370 H 0.7287 0.90457 0.01236 0.0
H1371 H 0.73707 0.93576 0.02236 0.0
H1372 H 0.74298 0.8829 0.04558 0.0
H1373 H 0.75835 0.89206 0.93359 0.0
H1374 H 0.77451 0.90909 0.95609 0.0
H1375 H 0.75253 0.90637 0.95296 0.0
C1376 C 0.77894 0.94091 0.01767 0.0
C1377 C 0.76573 0.94577 0.02151 0.0
C1378 C 0.77412 0.92321 0.01178 0.0
C1379 C 0.75602 0.91001 0.00975 0.0
C1380 C 0.74274 0.91466 0.01376 0.0
H1381 H 0.72713 0.80241 0.95152 0.0
H1382 H 0.72509 0.82925 0.96154 0.0
C1383 C 0.74756 0.93246 0.01942 0.0
C1384 C 0.75123 0.89132 0.00383 0.0
H1385 H 0.75442 0.86522 0.95388 0.0
C1386 C 0.74519 0.87889 0.02546 0.0
C1387 C 0.75403 0.8862 0.97751 0.0
C1388 C 0.76009 0.89905 0.95356 0.0
C1389 C 0.74271 0.86163 0.02172 0.0
C1390 C 0.74647 0.85683 -0.00424 0.0
C1391 C 0.75162 0.86898 0.97379 0.0
C1392 C 0.74654 0.83986 0.99147 0.0
C1393 C 0.73644 0.84877 0.04565 0.0
C1394 C 0.75928 0.83701 0.005 0.0
C1395 C 0.76058 0.82182 -0.00081 0.0
C1396 C 0.74915 0.8092 0.97973 0.0
C1397 C 0.7361 0.81188 0.96666 0.0
C1398 C 0.73491 0.82718 0.97233 0.0
H1399 H 0.72963 0.85255 0.06152 0.0
H1400 H 0.72711 0.83486 0.03867 0.0
H1401 H 0.74819 0.84897 0.05539 0.0
H1402 H 0.76858 0.84681 0.01948 0.0
H1403 H 0.77077 0.82014 0.00959 0.0
H1404 H 0.18492 0.92368 0.9604 0.0
H1405 H 0.15672 0.89576 0.96922 0.0
H1406 H 0.13462 0.92598 0.00631 0.0
H1407 H 0.16255 0.95383 -0.00245 0.0
H1408 H 0.13722 0.88152 0.0211 0.0
H1409 H 0.09901 0.89634 0.94375 0.0
H1410 H 0.1232 0.90766 0.94412 0.0
H1411 H 0.11143 0.91423 0.96771 0.0
C1412 C 0.17406 0.92435 0.97054 0.0
C1413 C 0.17589 0.94097 0.97807 0.0
C1414 C 0.15801 0.90841 0.97557 0.0
C1415 C 0.14356 0.90889 0.98801 0.0
C1416 C 0.14555 0.92539 -0.00373 0.0
H1417 H 0.03566 0.84145 0.03852 0.0
H1418 H 0.06607 0.86516 0.0282 0.0
C1419 C 0.16154 0.94128 0.99133 0.0
C1420 C 0.12619 0.89227 0.99207 0.0
H1421 H 0.0819 0.87272 0.97532 0.0
C1422 C 0.12513 0.87942 0.01088 0.0
C1423 C 0.11051 0.88961 0.97855 0.0
C1424 C 0.11104 0.90259 0.9572 0.0
C1425 C 0.10857 0.86434 0.01755 0.0
C1426 C 0.09281 0.86204 0.00473 0.0
C1427 C 0.09401 0.8746 0.98522 0.0
C1428 C 0.07477 0.84729 0.01225 0.0
C1429 C 0.10792 0.85139 0.03903 0.0
C1430 C 0.0696 0.82935 0.00675 0.0
C1431 C 0.05215 0.81568 0.01266 0.0
C1432 C 0.03958 0.81977 0.02402 0.0
C1433 C 0.04495 0.83778 0.02976 0.0
C1434 C 0.06234 0.85137 0.02387 0.0
H1435 H 0.12072 0.85685 0.05061 0.0
H1436 H 0.09687 0.84803 0.05385 0.0
H1437 H 0.10533 0.83878 0.02884 0.0
H1438 H 0.07893 0.82596 -0.00262 0.0
H1439 H 0.04844 0.80196 0.00791 0.0
H1440 H 0.18905 0.24715 0.00824 0.0
H1441 H 0.1651 0.25374 -0.00247 0.0
H1442 H 0.12576 0.20155 0.02752 0.0
H1443 H 0.14939 0.19476 0.03794 0.0
H1444 H 0.11799 0.20996 0.97536 0.0
H1445 H 0.13448 0.26463 0.05105 0.0
H1446 H 0.15232 0.26733 0.02873 0.0
H1447 H 0.1434 0.24966 0.05378 0.0
C1448 C 0.1753 0.23713 0.01272 0.0
C1449 C 0.17115 0.22041 0.02392 0.0
C1450 C 0.16166 0.24096 0.00671 0.0
C1451 C 0.14369 0.22818 0.01198 0.0
C1452 C 0.13955 0.21159 0.02334 0.0
H1453 H 0.03702 0.2086 0.00427 0.0
H1454 H 0.06544 0.20933 0.01123 0.0
C1455 C 0.15311 0.20775 0.02929 0.0
C1456 C 0.12894 0.23157 0.00476 0.0
H1457 H 0.10932 0.25619 0.02257 0.0
C1458 C 0.11617 0.22016 0.98553 0.0
C1459 C 0.12669 0.24496 0.01795 0.0
C1460 C 0.13985 0.25731 0.03919 0.0
C1461 C 0.10094 0.22147 0.97964 0.0
C1462 C 0.09832 0.23438 0.9936 0.0
C1463 C 0.11141 0.24628 0.01201 0.0
C1464 C 0.08143 0.23474 0.99064 0.0
C1465 C 0.08759 0.20884 0.95884 0.0
C1466 C 0.08114 0.24906 0.97739 0.0
C1467 C 0.06485 0.24868 0.97331 0.0
C1468 C 0.04869 0.23404 0.98264 0.0
C1469 C 0.0492 0.22003 -0.00329 0.0
C1470 C 0.06541 0.22039 0.00065 0.0
H1471 H 0.09356 0.20282 0.94524 0.0
H1472 H 0.07607 0.19779 0.96983 0.0
H1473 H 0.0824 0.21587 0.94589 0.0
H1474 H 0.09342 0.26028 0.96965 0.0
H1475 H 0.06489 0.2597 0.9625 0.0
H1476 H 0.94776 0.79128 0.44824 0.0
H1477 H 0.91672 0.78288 0.4576 0.0
H1478 H 0.90625 0.73154 0.48812 0.0
H1479 H 0.93745 0.73981 0.47885 0.0
H1480 H 0.88432 0.75101 0.43644 0.0
H1481 H 0.88996 0.75416 0.55086 0.0
H1482 H 0.90941 0.76521 0.52885 0.0
H1483 H 0.8979 0.7413 0.53253 0.0
C1484 C 0.93892 0.77819 0.45697 0.0
C1485 C 0.94513 0.76624 0.4629 0.0
C1486 C 0.92117 0.77341 0.46223 0.0
C1487 C 0.90929 0.75667 0.4737 0.0
C1488 C 0.91531 0.7446 0.4795 0.0
H1489 H 0.80084 0.72705 0.53017 0.0
H1490 H 0.82727 0.72454 0.51875 0.0
C1491 C 0.93311 0.74934 0.47411 0.0
C1492 C 0.89063 0.75209 0.47951 0.0
H1493 H 0.8627 0.74887 0.53178 0.0
C1494 C 0.87948 0.7503 0.45727 0.0
C1495 C 0.88436 0.75105 0.50671 0.0
C1496 C 0.89598 0.7531 0.53123 0.0
C1497 C 0.86238 0.74807 0.46151 0.0
C1498 C 0.85649 0.74805 0.48869 0.0
C1499 C 0.86729 0.74895 0.51096 0.0
C1500 C 0.83999 0.7488 0.49438 0.0
C1501 C 0.85088 0.74602 0.43682 0.0
C1502 C 0.83848 0.76333 0.48464 0.0
C1503 C 0.82349 0.76479 0.4911 0.0
C1504 C 0.80974 0.75183 0.50765 0.0
C1505 C 0.8112 0.73722 0.51731 0.0
C1506 C 0.82627 0.73577 0.51083 0.0
H1507 H 0.85448 0.7404 0.41893 0.0
H1508 H 0.83643 0.73719 0.44147 0.0
H1509 H 0.85307 0.75939 0.43076 0.0
H1510 H 0.84911 0.77377 0.47249 0.0
H1511 H 0.82282 0.77625 0.48343 0.0
H1512 H 0.2391 0.18611 0.48077 0.0
H1513 H 0.24505 0.16178 0.4917 0.0
H1514 H 0.19307 0.12319 0.46002 0.0
H1515 H 0.18691 0.14724 0.44931 0.0
H1516 H 0.2008 0.1149 0.51259 0.0
H1517 H 0.25598 0.13117 0.43813 0.0
H1518 H 0.25876 0.14908 0.46036 0.0
H1519 H 0.24121 0.14031 0.4351 0.0
C1520 C 0.22898 0.17245 0.47597 0.0
C1521 C 0.21252 0.16864 0.46416 0.0
C1522 C 0.23245 0.15859 0.48211 0.0
C1523 C 0.21957 0.14072 0.47639 0.0
C1524 C 0.2032 0.1369 0.46452 0.0
H1525 H 0.20104 0.03385 0.49058 0.0
H1526 H 0.20051 0.06153 0.48204 0.0
C1527 C 0.19972 0.1507 0.4584 0.0
C1528 C 0.22267 0.1258 0.48367 0.0
H1529 H 0.2477 0.10637 0.46743 0.0
C1530 C 0.2111 0.11307 0.5028 0.0
C1531 C 0.2362 0.12355 0.471 0.0
C1532 C 0.24871 0.13665 0.44984 0.0
C1533 C 0.21251 0.09797 0.50932 0.0
C1534 C 0.22565 0.0954 0.49599 0.0
C1535 C 0.2376 0.1084 0.4775 0.0
C1536 C 0.22654 0.07884 0.5001 0.0
C1537 C 0.1999 0.08486 0.53037 0.0
C1538 C 0.24162 0.0795 0.5123 0.0
C1539 C 0.24199 0.06367 0.51717 0.0
C1540 C 0.22733 0.04698 0.50971 0.0
C1541 C 0.21249 0.04647 0.49674 0.0
C1542 C 0.21213 0.06226 0.49194 0.0
H1543 H 0.19403 0.09105 0.54382 0.0
H1544 H 0.18873 0.07332 0.5196 0.0
H1545 H 0.20686 0.07966 0.54348 0.0
H1546 H 0.25292 0.09222 0.51856 0.0
H1547 H 0.25364 0.06449 0.52709 0.0
H1548 H 0.92073 0.18849 0.53415 0.0
H1549 H 0.89275 0.16018 0.52621 0.0
H1550 H 0.92254 0.13817 0.48738 0.0
H1551 H 0.95045 0.16625 0.49515 0.0
H1552 H 0.87819 0.1402 0.47347 0.0
H1553 H 0.89367 0.10316 0.55212 0.0
H1554 H 0.9045 0.12733 0.55148 0.0
H1555 H 0.9115 0.11581 0.52816 0.0
C1556 C 0.92129 0.17764 0.52379 0.0
C1557 C 0.9378 0.17954 0.51545 0.0
C1558 C 0.90532 0.16152 0.51927 0.0
C1559 C 0.90569 0.14708 0.50658 0.0
C1560 C 0.92206 0.14912 0.49755 0.0
H1561 H 0.84111 0.03961 0.45577 0.0
H1562 H 0.86386 0.07008 0.4678 0.0
C1563 C 0.93798 0.16519 0.50194 0.0
C1564 C 0.88909 0.12965 0.50306 0.0
H1565 H 0.87006 0.08557 0.52079 0.0
C1566 C 0.8762 0.12826 0.48406 0.0
C1567 C 0.8866 0.1142 0.51708 0.0
C1568 C 0.8997 0.11514 0.53855 0.0
C1569 C 0.86129 0.11153 0.47756 0.0
C1570 C 0.85922 0.09597 0.49077 0.0
C1571 C 0.87175 0.09753 0.51062 0.0
C1572 C 0.84501 0.07775 0.48284 0.0
C1573 C 0.84837 0.11049 0.45572 0.0
C1574 C 0.82683 0.07196 0.48736 0.0
C1575 C 0.81369 0.05446 0.48044 0.0
C1576 C 0.81857 0.04248 0.46904 0.0
C1577 C 0.83683 0.04843 0.46452 0.0
C1578 C 0.84988 0.06586 0.4714 0.0
H1579 H 0.85356 0.12328 0.4442 0.0
H1580 H 0.84552 0.09957 0.44088 0.0
H1581 H 0.83552 0.10743 0.46555 0.0
H1582 H 0.82283 0.08088 0.49657 0.0
H1583 H 0.79975 0.05028 0.48427 0.0
H1584 H 0.87234 0.4994 0.32143 0.0
H1585 H 0.87234 0.47147 0.31273 0.0
H1586 H 0.92414 0.4933 0.35137 0.0
H1587 H 0.92432 0.52148 0.36012 0.0
H1588 H 0.91951 0.47392 0.29956 0.0
H1589 H 0.86552 0.43566 0.37548 0.0
H1590 H 0.8604 0.44817 0.35118 0.0
H1591 H 0.87842 0.45985 0.37526 0.0
C1592 C 0.88379 0.49833 0.32799 0.0
C1593 C 0.89827 0.51259 0.34169 0.0
C1594 C 0.88373 0.48234 0.32307 0.0
C1595 C 0.89811 0.48027 0.33181 0.0
C1596 C 0.91288 0.49465 0.34465 0.0
H1597 H 0.90944 0.38461 0.31317 0.0
H1598 H 0.9161 0.41517 0.32389 0.0
C1599 C 0.91294 0.5107 0.34964 0.0
C1600 C 0.89736 0.46288 0.32792 0.0
H1601 H 0.87237 0.41856 0.34435 0.0
C1602 C 0.90938 0.46182 0.30957 0.0
C1603 C 0.88418 0.4472 0.34119 0.0
C1604 C 0.87148 0.44773 0.36209 0.0
C1605 C 0.90796 0.44524 0.30307 0.0
C1606 C 0.89432 0.42948 0.31559 0.0
C1607 C 0.88274 0.43068 0.33468 0.0
C1608 C 0.89099 0.41142 0.30801 0.0
C1609 C 0.92051 0.44459 0.28206 0.0
C1610 C 0.87464 0.39921 0.29576 0.0
C1611 C 0.87076 0.3818 0.28975 0.0
C1612 C 0.88313 0.37618 0.29601 0.0
C1613 C 0.89964 0.38852 0.30802 0.0
C1614 C 0.90351 0.406 0.31404 0.0
H1615 H 0.92815 0.45746 0.27077 0.0
H1616 H 0.93023 0.44173 0.29261 0.0
H1617 H 0.91295 0.43369 0.26694 0.0
H1618 H 0.86479 0.40314 0.291 0.0
H1619 H 0.85793 0.37271 0.28047 0.0
H1620 H 0.60357 0.52323 0.31258 0.0
H1621 H 0.57305 0.49965 0.32417 0.0
H1622 H 0.58547 0.45944 0.29683 0.0
H1623 H 0.61586 0.48271 0.28544 0.0
H1624 H 0.54621 0.47213 0.29002 0.0
H1625 H 0.56682 0.44404 0.37589 0.0
H1626 H 0.58144 0.46598 0.36158 0.0
H1627 H 0.57876 0.44624 0.34453 0.0
C1628 C 0.5998 0.50936 0.30902 0.0
C1629 C 0.61223 0.50486 0.2983 0.0
C1630 C 0.58237 0.49594 0.31564 0.0
C1631 C 0.57715 0.47783 0.31179 0.0
C1632 C 0.58937 0.47334 0.30047 0.0
H1633 H 0.48849 0.37251 0.32248 0.0
H1634 H 0.51639 0.40051 0.31436 0.0
C1635 C 0.60673 0.48668 0.29387 0.0
C1636 C 0.55897 0.46345 0.31946 0.0
H1637 H 0.53719 0.42551 0.35831 0.0
C1638 C 0.54414 0.46207 0.30524 0.0
C1639 C 0.55637 0.45045 0.33947 0.0
C1640 C 0.57167 0.45181 0.35646 0.0
C1641 C 0.52685 0.44741 0.30948 0.0
C1642 C 0.52444 0.434 0.32855 0.0
C1643 C 0.53915 0.43579 0.34355 0.0
C1644 C 0.50701 0.41738 0.33211 0.0
C1645 C 0.51142 0.44592 0.29274 0.0
C1646 C 0.49249 0.41766 0.34469 0.0
C1647 C 0.47647 0.40162 0.34944 0.0
C1648 C 0.47482 0.3851 0.34173 0.0
C1649 C 0.48933 0.38499 0.32869 0.0
C1650 C 0.50528 0.40097 0.32404 0.0
H1651 H 0.51596 0.45617 0.27619 0.0
H1652 H 0.50379 0.4324 0.2833 0.0
H1653 H 0.50213 0.44772 0.30644 0.0
H1654 H 0.49367 0.43021 0.35135 0.0
H1655 H 0.46553 0.40213 0.35957 0.0
H1656 H 0.50465 0.13027 0.28546 0.0
H1657 H 0.52757 0.12278 0.29754 0.0
H1658 H 0.48675 0.0704 0.32453 0.0
H1659 H 0.46351 0.07771 0.31225 0.0
H1660 H 0.53289 0.11272 0.35115 0.0
H1661 H 0.51909 0.06038 0.27227 0.0
H1662 H 0.51096 0.07599 0.26887 0.0
H1663 H 0.50049 0.05771 0.29273 0.0
C1664 C 0.50045 0.11709 0.2938 0.0
C1665 C 0.4822 0.10459 0.2979 0.0
C1666 C 0.5136 0.11285 0.3007 0.0
C1667 C 0.50884 0.09602 0.31172 0.0
C1668 C 0.49067 0.08339 0.31568 0.0
H1669 H 0.58592 0.06236 0.36215 0.0
H1670 H 0.55758 0.06199 0.35403 0.0
C1671 C 0.47743 0.08763 0.30876 0.0
C1672 C 0.52315 0.09222 0.31996 0.0
H1673 H 0.54347 0.06827 0.30214 0.0
C1674 C 0.53511 0.10288 0.34062 0.0
C1675 C 0.52589 0.07928 0.3063 0.0
C1676 C 0.51354 0.06771 0.28367 0.0
C1677 C 0.55009 0.10135 0.34744 0.0
C1678 C 0.55331 0.08901 0.33292 0.0
C1679 C 0.54094 0.07776 0.31311 0.0
C1680 C 0.57016 0.08867 0.33669 0.0
C1681 C 0.56254 0.11316 0.36982 0.0
C1682 C 0.58648 0.10362 0.32902 0.0
C1683 C 0.60259 0.10387 0.33353 0.0
C1684 C 0.60269 0.08914 0.34578 0.0
C1685 C 0.58627 0.07394 0.35278 0.0
C1686 C 0.57009 0.07369 0.34815 0.0
H1687 H 0.55584 0.11828 0.38368 0.0
H1688 H 0.56756 0.10579 0.38233 0.0
H1689 H 0.57425 0.12485 0.36029 0.0
H1690 H 0.58676 0.1152 0.31976 0.0
H1691 H 0.61499 0.11573 0.32775 0.0
H1692 H 0.85375 0.59592 0.79002 0.0
H1693 H 0.8275 0.5987 0.80159 0.0
H1694 H 0.80538 0.54948 0.84791 0.0
H1695 H 0.83147 0.54668 0.83673 0.0
H1696 H 0.79168 0.5742 0.78891 0.0
H1697 H 0.80096 0.58364 0.90153 0.0
H1698 H 0.81882 0.58675 0.87863 0.0
H1699 H 0.80233 0.56461 0.88975 0.0
C1700 C 0.84336 0.5858 0.8029 0.0
C1701 C 0.84468 0.57109 0.81251 0.0
C1702 C 0.8284 0.58741 0.80947 0.0
C1703 C 0.81466 0.57446 0.82598 0.0
C1704 C 0.81602 0.55984 0.83567 0.0
H1705 H 0.70783 0.53202 0.87498 0.0
H1706 H 0.73893 0.54096 0.86519 0.0
C1707 C 0.8309 0.5582 0.82909 0.0
C1708 C 0.7983 0.57543 0.83188 0.0
H1709 H 0.77101 0.57302 0.8846 0.0
C1710 C 0.7873 0.57433 0.80979 0.0
C1711 C 0.79269 0.5757 0.85914 0.0
C1712 C 0.80442 0.57793 0.88361 0.0
C1713 C 0.77026 0.57227 0.81433 0.0
C1714 C 0.76426 0.57148 0.84164 0.0
C1715 C 0.77565 0.57354 0.86368 0.0
C1716 C 0.74557 0.56667 0.84784 0.0
C1717 C 0.75839 0.56991 0.79001 0.0
C1718 C 0.73906 0.57828 0.84151 0.0
C1719 C 0.7212 0.57322 0.84712 0.0
C1720 C 0.7096 0.55644 0.85911 0.0
C1721 C 0.71632 0.54499 0.86564 0.0
C1722 C 0.73412 0.55009 0.86013 0.0
H1723 H 0.76421 0.5686 0.77033 0.0
H1724 H 0.74499 0.55784 0.79282 0.0
H1725 H 0.75646 0.58169 0.78844 0.0
H1726 H 0.74779 0.59123 0.83226 0.0
H1727 H 0.71646 0.58237 0.84191 0.0
H1728 H 0.46021 0.17382 0.86655 0.0
H1729 H 0.45303 0.19703 0.85498 0.0
H1730 H 0.40023 0.1567 0.82877 0.0
H1731 H 0.40722 0.13315 0.84057 0.0
H1732 H 0.44272 0.20263 0.80181 0.0
H1733 H 0.39118 0.18935 0.88181 0.0
H1734 H 0.40655 0.18089 0.88462 0.0
H1735 H 0.38807 0.17068 0.86107 0.0
C1736 C 0.447 0.16978 0.85849 0.0
C1737 C 0.43429 0.15158 0.85448 0.0
C1738 C 0.44294 0.1831 0.85187 0.0
C1739 C 0.42608 0.17856 0.84123 0.0
C1740 C 0.41324 0.16044 0.83734 0.0
H1741 H 0.39334 0.25668 0.79299 0.0
H1742 H 0.39268 0.22817 0.80072 0.0
C1743 C 0.4173 0.14703 0.84398 0.0
C1744 C 0.42246 0.19304 0.83334 0.0
H1745 H 0.39913 0.21384 0.85216 0.0
C1746 C 0.43307 0.20499 0.81263 0.0
C1747 C 0.40977 0.19598 0.84739 0.0
C1748 C 0.39826 0.18366 0.8701 0.0
C1749 C 0.43172 0.22012 0.80614 0.0
C1750 C 0.41964 0.22351 0.82103 0.0
C1751 C 0.40843 0.21118 0.8409 0.0
C1752 C 0.41949 0.24049 0.81753 0.0
C1753 C 0.44346 0.23254 0.78367 0.0
C1754 C 0.43461 0.25673 0.82504 0.0
C1755 C 0.43502 0.27294 0.82075 0.0
C1756 C 0.42029 0.27322 0.80888 0.0
C1757 C 0.40492 0.25688 0.80206 0.0
C1758 C 0.40451 0.24061 0.80647 0.0
H1759 H 0.44836 0.22575 0.76957 0.0
H1760 H 0.43613 0.23772 0.77144 0.0
H1761 H 0.45531 0.24415 0.79312 0.0
H1762 H 0.4462 0.25685 0.834 0.0
H1763 H 0.44702 0.28527 0.82637 0.0
H1764 H 0.73082 0.1347 0.79451 0.0
H1765 H 0.75941 0.16127 0.80666 0.0
H1766 H 0.73094 0.18342 0.84924 0.0
H1767 H 0.70243 0.15698 0.83744 0.0
H1768 H 0.77057 0.197 0.79262 0.0
H1769 H 0.76849 0.18846 0.90572 0.0
H1770 H 0.75439 0.1704 0.88264 0.0
H1771 H 0.74835 0.18688 0.89223 0.0
C1772 C 0.73068 0.14517 0.80668 0.0
C1773 C 0.71438 0.14374 0.81507 0.0
C1774 C 0.747 0.16032 0.81357 0.0
C1775 C 0.74728 0.17416 0.82921 0.0
C1776 C 0.73103 0.17271 0.83767 0.0
H1777 H 0.81291 0.2812 0.87964 0.0
H1778 H 0.79021 0.25033 0.86963 0.0
C1779 C 0.71475 0.15763 0.83075 0.0
C1780 C 0.7644 0.19064 0.8355 0.0
H1781 H 0.78858 0.21803 0.88857 0.0
C1782 C 0.77474 0.20149 0.81358 0.0
C1783 C 0.7698 0.19637 0.86287 0.0
C1784 C 0.75978 0.18483 0.88722 0.0
C1785 C 0.78975 0.21846 0.81832 0.0
C1786 C 0.79461 0.22455 0.84569 0.0
C1787 C 0.78476 0.21334 0.86761 0.0
C1788 C 0.8088 0.2431 0.85201 0.0
C1789 C 0.79972 0.23014 0.79405 0.0
C1790 C 0.82683 0.24921 0.84562 0.0
C1791 C 0.83994 0.26696 0.85132 0.0
C1792 C 0.83517 0.27882 0.86351 0.0
C1793 C 0.81709 0.27249 0.87015 0.0
C1794 C 0.80407 0.25482 0.86452 0.0
H1795 H 0.79254 0.22456 0.77433 0.0
H1796 H 0.80175 0.24383 0.7968 0.0
H1797 H 0.81312 0.23131 0.79258 0.0
H1798 H 0.83076 0.24028 0.83628 0.0
H1799 H 0.85375 0.27138 0.84604 0.0
H1800 H 0.39141 0.1345 0.29251 0.0
H1801 H 0.39097 0.16251 0.29987 0.0
H1802 H 0.4442 0.18691 0.33412 0.0
H1803 H 0.44481 0.15916 0.32689 0.0
H1804 H 0.3974 0.18348 0.35146 0.0
H1805 H 0.44697 0.22011 0.26899 0.0
H1806 H 0.43446 0.19593 0.27093 0.0
H1807 H 0.45362 0.2085 0.29271 0.0
C1808 C 0.40298 0.14582 0.30172 0.0
C1809 C 0.4182 0.14468 0.30892 0.0
C1810 C 0.40268 0.16176 0.30592 0.0
C1811 C 0.41765 0.17678 0.31715 0.0
C1812 C 0.43263 0.17551 0.32505 0.0
H1813 H 0.45965 0.28417 0.36599 0.0
H1814 H 0.45194 0.25366 0.35433 0.0
C1815 C 0.43292 0.15962 0.32097 0.0
C1816 C 0.41796 0.194 0.32041 0.0
H1817 H 0.44153 0.23787 0.301 0.0
C1818 C 0.40681 0.19535 0.34017 0.0
C1819 C 0.4302 0.20936 0.30547 0.0
C1820 C 0.44189 0.20845 0.28314 0.0
C1821 C 0.40836 0.212 0.34653 0.0
C1822 C 0.42122 0.2275 0.33246 0.0
C1823 C 0.43175 0.22595 0.31182 0.0
C1824 C 0.42515 0.2457 0.34036 0.0
C1825 C 0.39693 0.21306 0.36914 0.0
C1826 C 0.41258 0.25133 0.33639 0.0
C1827 C 0.41694 0.26888 0.34307 0.0
C1828 C 0.43397 0.28105 0.35372 0.0
C1829 C 0.44642 0.27522 0.35781 0.0
C1830 C 0.44206 0.25776 0.35115 0.0
H1831 H 0.3896 0.20029 0.38079 0.0
H1832 H 0.40532 0.22401 0.38374 0.0
H1833 H 0.38695 0.21613 0.36004 0.0
H1834 H 0.39953 0.24227 0.32772 0.0
H1835 H 0.40707 0.27296 0.33959 0.0
H1836 H 0.82892 0.285 0.32984 0.0
H1837 H 0.80125 0.25677 0.33791 0.0
H1838 H 0.82597 0.22745 0.30658 0.0
H1839 H 0.85391 0.25576 0.29849 0.0
H1840 H 0.78175 0.23065 0.295 0.0
H1841 H 0.80262 0.2028 0.38174 0.0
H1842 H 0.81455 0.22638 0.37326 0.0
H1843 H 0.81685 0.21069 0.35185 0.0
C1844 C 0.82857 0.27257 0.32486 0.0
C1845 C 0.8436 0.27261 0.31348 0.0
C1846 C 0.81274 0.25646 0.32947 0.0
C1847 C 0.81164 0.24007 0.32299 0.0
C1848 C 0.82666 0.23998 0.31202 0.0
H1849 H 0.7151 0.13413 0.34514 0.0
H1850 H 0.74572 0.15734 0.33306 0.0
C1851 C 0.84256 0.25615 0.30733 0.0
C1852 C 0.79438 0.22327 0.32657 0.0
H1853 H 0.7726 0.18606 0.36708 0.0
C1854 C 0.77977 0.22081 0.31057 0.0
C1855 C 0.79194 0.2104 0.34672 0.0
C1856 C 0.80725 0.21262 0.36456 0.0
C1857 C 0.76262 0.20607 0.31475 0.0
C1858 C 0.75997 0.19367 0.33582 0.0
C1859 C 0.77471 0.19566 0.35102 0.0
C1860 C 0.74176 0.1795 0.34378 0.0
C1861 C 0.74739 0.20404 0.29685 0.0
C1862 C 0.72961 0.18433 0.35432 0.0
C1863 C 0.71223 0.17121 0.36123 0.0
C1864 C 0.70661 0.15292 0.35786 0.0
C1865 C 0.71896 0.14808 0.34787 0.0
C1866 C 0.73645 0.1613 0.34098 0.0
H1867 H 0.75235 0.21137 0.27708 0.0
H1868 H 0.73786 0.1897 0.29234 0.0
H1869 H 0.73999 0.20966 0.30779 0.0
H1870 H 0.73359 0.19831 0.35709 0.0
H1871 H 0.70316 0.17545 0.36903 0.0
H1872 H 0.8548 0.58099 0.34115 0.0
H1873 H 0.8322 0.58993 0.33304 0.0
H1874 H 0.79114 0.53906 0.36466 0.0
H1875 H 0.8134 0.53004 0.37286 0.0
H1876 H 0.80044 0.57125 0.29944 0.0
H1877 H 0.78413 0.57645 0.40812 0.0
H1878 H 0.80454 0.57687 0.39803 0.0
H1879 H 0.78386 0.5559 0.40056 0.0
C1880 C 0.84097 0.57176 0.34652 0.0
C1881 C 0.83592 0.55481 0.35771 0.0
C1882 C 0.82811 0.57689 0.34187 0.0
C1883 C 0.81009 0.56525 0.34868 0.0
C1884 C 0.80504 0.54836 0.35977 0.0
H1885 H 0.70437 0.54485 0.33273 0.0
H1886 H 0.7331 0.54696 0.34299 0.0
C1887 C 0.8178 0.54319 0.36426 0.0
C1888 C 0.79621 0.57018 0.34321 0.0
H1889 H 0.76228 0.57312 0.37443 0.0
C1890 C 0.79229 0.57205 0.3158 0.0
C1891 C 0.78568 0.57123 0.36466 0.0
C1892 C 0.78985 0.57019 0.39452 0.0
C1893 C 0.77734 0.57376 0.30917 0.0
C1894 C 0.76627 0.57387 0.33059 0.0
C1895 C 0.77076 0.57294 0.35806 0.0
C1896 C 0.74909 0.57326 0.32491 0.0
C1897 C 0.77291 0.57438 0.27929 0.0
C1898 C 0.74858 0.58748 0.31167 0.0
C1899 C 0.73213 0.5863 0.30571 0.0
C1900 C 0.71596 0.5709 0.31299 0.0
C1901 C 0.71658 0.55687 0.32676 0.0
C1902 C 0.73298 0.55806 0.33269 0.0
H1903 H 0.78107 0.57111 0.26528 0.0
H1904 H 0.7585 0.56485 0.27529 0.0
H1905 H 0.77556 0.58805 0.27421 0.0
H1906 H 0.76089 0.59944 0.3059 0.0
H1907 H 0.73208 0.59737 0.29521 0.0
H1908 H 0.61218 0.1286 0.78409 0.0
H1909 H 0.58096 0.11979 0.79271 0.0
H1910 H 0.57066 0.06824 0.82199 0.0
H1911 H 0.60205 0.07695 0.81353 0.0
H1912 H 0.54925 0.08873 0.77032 0.0
H1913 H 0.55293 0.0889 0.88487 0.0
H1914 H 0.57273 0.10023 0.86366 0.0
H1915 H 0.56097 0.07625 0.86623 0.0
C1916 C 0.60334 0.11538 0.79241 0.0
C1917 C 0.60967 0.10351 0.79823 0.0
C1918 C 0.58548 0.11037 0.79725 0.0
C1919 C 0.57359 0.09345 0.80816 0.0
C1920 C 0.57973 0.08145 0.81384 0.0
H1921 H 0.46368 0.06062 0.86095 0.0
H1922 H 0.49064 0.05903 0.84973 0.0
C1923 C 0.59764 0.08643 0.8089 0.0
C1924 C 0.5548 0.0886 0.81349 0.0
H1925 H 0.52577 0.08347 0.86517 0.0
C1926 C 0.54401 0.08737 0.79104 0.0
C1927 C 0.54801 0.08669 0.84053 0.0
C1928 C 0.55922 0.08816 0.86532 0.0
C1929 C 0.52676 0.08483 0.79493 0.0
C1930 C 0.52033 0.08389 0.82201 0.0
C1931 C 0.53078 0.08426 0.84444 0.0
C1932 C 0.50356 0.08417 0.82755 0.0
C1933 C 0.51569 0.08344 0.77001 0.0
C1934 C 0.502 0.09888 0.81897 0.0
C1935 C 0.48671 0.09984 0.82534 0.0
C1936 C 0.47271 0.08615 0.84061 0.0
C1937 C 0.47423 0.07135 0.84909 0.0
C1938 C 0.4896 0.07042 0.84272 0.0
H1939 H 0.51979 0.07859 0.75173 0.0
H1940 H 0.50119 0.07425 0.77385 0.0
H1941 H 0.51771 0.0969 0.76504 0.0
H1942 H 0.5128 0.10984 0.80781 0.0
H1943 H 0.486 0.11145 0.8186 0.0
H1944 H 0.90906 0.52261 0.8153 0.0
H1945 H 0.91612 0.49922 0.82778 0.0
H1946 H 0.86275 0.45856 0.8045 0.0
H1947 H 0.85551 0.48163 0.79228 0.0
H1948 H 0.87394 0.45355 0.85701 0.0
H1949 H 0.92424 0.4659 0.77535 0.0
H1950 H 0.92787 0.48484 0.79584 0.0
H1951 H 0.90896 0.47449 0.77308 0.0
C1952 C 0.89886 0.50869 0.81271 0.0
C1953 C 0.88171 0.50401 0.80278 0.0
C1954 C 0.90295 0.49536 0.81973 0.0
C1955 C 0.89 0.47719 0.81681 0.0
C1956 C 0.87294 0.47252 0.80685 0.0
H1957 H 0.87011 0.37086 0.83408 0.0
H1958 H 0.87038 0.399 0.82637 0.0
C1959 C 0.86884 0.48576 0.79986 0.0
C1960 C 0.89377 0.46282 0.82483 0.0
H1961 H 0.91705 0.44201 0.80591 0.0
C1962 C 0.88348 0.45112 0.84601 0.0
C1963 C 0.90631 0.45978 0.81054 0.0
C1964 C 0.91744 0.47181 0.7873 0.0
C1965 C 0.88503 0.43613 0.85277 0.0
C1966 C 0.89699 0.43264 0.8377 0.0
C1967 C 0.90786 0.44474 0.81732 0.0
C1968 C 0.89736 0.4158 0.84155 0.0
C1969 C 0.87365 0.42398 0.87575 0.0
C1970 C 0.91265 0.41601 0.85195 0.0
C1971 C 0.91256 0.39989 0.85641 0.0
C1972 C 0.8972 0.38339 0.85028 0.0
C1973 C 0.88211 0.38333 0.83916 0.0
C1974 C 0.88221 0.39939 0.83483 0.0
H1975 H 0.86891 0.43092 0.88985 0.0
H1976 H 0.8617 0.41223 0.86682 0.0
H1977 H 0.88121 0.41901 0.88789 0.0
H1978 H 0.92451 0.42859 0.85708 0.0
H1979 H 0.92441 0.40036 0.86489 0.0
H1980 H 0.58769 0.52267 0.86187 0.0
H1981 H 0.55967 0.49451 0.8533 0.0
H1982 H 0.58974 0.4714 0.81902 0.0
H1983 H 0.61768 0.4993 0.82751 0.0
H1984 H 0.54595 0.47461 0.80159 0.0
H1985 H 0.55889 0.43653 0.88162 0.0
H1986 H 0.57048 0.46073 0.88077 0.0
H1987 H 0.57723 0.44861 0.85823 0.0
C1988 C 0.58831 0.5116 0.85243 0.0
C1989 C 0.6049 0.51315 0.84556 0.0
C1990 C 0.57231 0.49556 0.84754 0.0
C1991 C 0.57272 0.48085 0.83593 0.0
C1992 C 0.58921 0.48254 0.82842 0.0
H1993 H 0.50704 0.37369 0.78346 0.0
H1994 H 0.53013 0.40404 0.79545 0.0
C1995 C 0.60515 0.49851 0.8332 0.0
C1996 C 0.55602 0.46357 0.83178 0.0
H1997 H 0.53594 0.41932 0.84901 0.0
C1998 C 0.54356 0.46253 0.81219 0.0
C1999 C 0.55297 0.44793 0.84582 0.0
C2000 C 0.5655 0.44846 0.86798 0.0
C2001 C 0.52857 0.44598 0.80519 0.0
C2002 C 0.52596 0.43023 0.81843 0.0
C2003 C 0.53805 0.43143 0.8388 0.0
C2004 C 0.51157 0.41218 0.81018 0.0
C2005 C 0.5161 0.44532 0.78284 0.0
C2006 C 0.49344 0.40672 0.81445 0.0
C2007 C 0.48011 0.38928 0.80759 0.0
C2008 C 0.48475 0.37704 0.79645 0.0
C2009 C 0.50295 0.38271 0.79202 0.0
C2010 C 0.5162 0.40006 0.79887 0.0
H2011 H 0.52165 0.45821 0.77151 0.0
H2012 H 0.51334 0.43446 0.76793 0.0
H2013 H 0.50314 0.44236 0.79217 0.0
H2014 H 0.48963 0.41581 0.82354 0.0
H2015 H 0.46623 0.38534 0.81135 0.0
H2016 H 0.57903 0.71888 0.64149 0.0
H2017 H 0.58624 0.74919 0.65536 0.0
H2018 H 0.53347 0.73766 0.6306 0.0
H2019 H 0.5261 0.70754 0.61685 0.0
H2020 H 0.58453 0.77696 0.62282 0.0
H2021 H 0.53833 0.75417 0.71215 0.0
H2022 H 0.54591 0.74025 0.69593 0.0
H2023 H 0.52805 0.74247 0.68082 0.0
C2024 C 0.56898 0.72282 0.63894 0.0
C2025 C 0.55193 0.71072 0.62825 0.0
C2026 C 0.57313 0.74012 0.64686 0.0
C2027 C 0.56027 0.74549 0.6444 0.0
C2028 C 0.54346 0.73362 0.63311 0.0
H2029 H 0.53977 0.83066 0.66111 0.0
H2030 H 0.54127 0.80348 0.65305 0.0
C2031 C 0.53931 0.71642 0.62515 0.0
C2032 C 0.56413 0.76344 0.65357 0.0
H2033 H 0.54818 0.7839 0.69589 0.0
C2034 C 0.57687 0.7786 0.63913 0.0
C2035 C 0.55415 0.76546 0.67497 0.0
C2036 C 0.54096 0.74974 0.69207 0.0
C2037 C 0.57906 0.79563 0.64443 0.0
C2038 C 0.56835 0.79743 0.66481 0.0
C2039 C 0.55629 0.78242 0.68015 0.0
C2040 C 0.56819 0.81436 0.66892 0.0
C2041 C 0.59208 0.81141 0.6273 0.0
C2042 C 0.58288 0.82949 0.68051 0.0
C2043 C 0.58207 0.84511 0.68522 0.0
C2044 C 0.56653 0.84577 0.67843 0.0
C2045 C 0.55194 0.83061 0.66658 0.0
C2046 C 0.55276 0.81505 0.66197 0.0
H2047 H 0.5978 0.80734 0.61012 0.0
H2048 H 0.58535 0.81846 0.61864 0.0
H2049 H 0.60325 0.82106 0.64053 0.0
H2050 H 0.59483 0.8291 0.68628 0.0
H2051 H 0.5935 0.85658 0.69441 0.0
H2052 H 0.15664 0.70416 0.65839 0.0
H2053 H 0.18335 0.73246 0.64652 0.0
H2054 H 0.15927 0.76169 0.68065 0.0
H2055 H 0.13245 0.73335 0.69288 0.0
H2056 H 0.18628 0.76089 0.61277 0.0
H2057 H 0.20804 0.78263 0.72073 0.0
H2058 H 0.19162 0.75983 0.71205 0.0
H2059 H 0.18551 0.77694 0.71206 0.0
C2060 C 0.15699 0.71659 0.66337 0.0
C2061 C 0.14248 0.71653 0.67673 0.0
C2062 C 0.17225 0.73274 0.65653 0.0
C2063 C 0.17335 0.74913 0.663 0.0
C2064 C 0.15877 0.74916 0.67587 0.0
H2065 H 0.2691 0.85549 0.64297 0.0
H2066 H 0.23805 0.83203 0.6517 0.0
C2067 C 0.14345 0.73298 0.68273 0.0
C2068 C 0.18989 0.76609 0.65632 0.0
H2069 H 0.22656 0.80148 0.68548 0.0
C2070 C 0.19503 0.76987 0.62863 0.0
C2071 C 0.20118 0.7778 0.67708 0.0
C2072 C 0.19646 0.77413 0.70719 0.0
C2073 C 0.2114 0.78484 0.62116 0.0
C2074 C 0.22304 0.79612 0.64198 0.0
C2075 C 0.21759 0.79278 0.6696 0.0
C2076 C 0.24152 0.8105 0.63572 0.0
C2077 C 0.21618 0.78835 0.59106 0.0
C2078 C 0.25374 0.8061 0.62415 0.0
C2079 C 0.27141 0.81939 0.61922 0.0
C2080 C 0.27729 0.83739 0.62589 0.0
C2081 C 0.265 0.84178 0.63749 0.0
C2082 C 0.24727 0.82841 0.64251 0.0
H2083 H 0.20402 0.7821 0.57786 0.0
H2084 H 0.22387 0.80295 0.58668 0.0
H2085 H 0.22461 0.78245 0.58529 0.0
H2086 H 0.24966 0.7923 0.61932 0.0
H2087 H 0.2805 0.81549 0.61035 0.0
H2088 H 0.28164 0.44869 0.65675 0.0
H2089 H 0.25272 0.44603 0.64608 0.0
H2090 H 0.22556 0.39452 0.68623 0.0
H2091 H 0.25457 0.39713 0.69729 0.0
H2092 H 0.2237 0.41857 0.61557 0.0
H2093 H 0.20474 0.42344 0.72356 0.0
H2094 H 0.22742 0.42988 0.71394 0.0
H2095 H 0.21073 0.4066 0.71643 0.0
C2096 C 0.26954 0.43678 0.66337 0.0
C2097 C 0.27039 0.42316 0.678 0.0
C2098 C 0.25302 0.43528 0.65719 0.0
C2099 C 0.23704 0.42018 0.66561 0.0
C2100 C 0.23778 0.4064 0.67992 0.0
H2101 H 0.1304 0.40975 0.64683 0.0
H2102 H 0.15351 0.4017 0.65617 0.0
C2103 C 0.25434 0.40789 0.68611 0.0
C2104 C 0.21973 0.4191 0.65924 0.0
H2105 H 0.18515 0.42184 0.68859 0.0
C2106 C 0.21515 0.41908 0.63153 0.0
C2107 C 0.20856 0.41962 0.68013 0.0
C2108 C 0.21307 0.42 0.71022 0.0
C2109 C 0.2 0.42018 0.62411 0.0
C2110 C 0.18935 0.42163 0.64496 0.0
C2111 C 0.1934 0.42075 0.67269 0.0
C2112 C 0.17512 0.4259 0.63842 0.0
C2113 C 0.19572 0.42013 0.594 0.0
C2114 C 0.1797 0.44223 0.62565 0.0
C2115 C 0.16664 0.4469 0.62042 0.0
C2116 C 0.14868 0.43534 0.62793 0.0
C2117 C 0.14409 0.41891 0.64068 0.0
C2118 C 0.15725 0.41429 0.64605 0.0
H2119 H 0.20155 0.41356 0.58134 0.0
H2120 H 0.18101 0.41315 0.5905 0.0
H2121 H 0.20152 0.43417 0.58676 0.0
H2122 H 0.19348 0.45154 0.62011 0.0
H2123 H 0.17068 0.45966 0.61062 0.0
H2124 H 0.38138 0.9118 0.17439 0.0
H2125 H 0.41173 0.9184 0.16235 0.0
H2126 H 0.39916 0.86589 0.19035 0.0
H2127 H 0.36891 0.8591 0.20223 0.0
H2128 H 0.43889 0.91747 0.19605 0.0
H2129 H 0.41655 0.86848 0.11029 0.0
H2130 H 0.40241 0.87624 0.12511 0.0
H2131 H 0.40499 0.85911 0.14207 0.0
C2132 C 0.38509 0.90167 0.17806 0.0
C2133 C 0.37264 0.88485 0.18906 0.0
C2134 C 0.40243 0.90549 0.17118 0.0
C2135 C 0.40754 0.89251 0.17504 0.0
C2136 C 0.39534 0.87595 0.18673 0.0
H2137 H 0.49568 0.87505 0.15771 0.0
H2138 H 0.46785 0.87503 0.16728 0.0
C2139 C 0.37806 0.87213 0.19361 0.0
C2140 C 0.42554 0.89605 0.16674 0.0
H2141 H 0.44648 0.87967 0.1263 0.0
C2142 C 0.44064 0.90941 0.18055 0.0
C2143 C 0.42772 0.88556 0.14638 0.0
C2144 C 0.41208 0.87165 0.12989 0.0
C2145 C 0.45781 0.91192 0.17547 0.0
C2146 C 0.45984 0.9009 0.15592 0.0
C2147 C 0.44483 0.88801 0.14142 0.0
C2148 C 0.47719 0.90168 0.15126 0.0
C2149 C 0.47354 0.92577 0.19184 0.0
C2150 C 0.49168 0.91673 0.13912 0.0
C2151 C 0.50766 0.91679 0.13356 0.0
C2152 C 0.50933 0.90176 0.14 0.0
C2153 C 0.49483 0.88683 0.15248 0.0
C2154 C 0.47892 0.88678 0.15796 0.0
H2155 H 0.46925 0.93112 0.20926 0.0
H2156 H 0.48157 0.91998 0.20007 0.0
H2157 H 0.48235 0.93712 0.17818 0.0
H2158 H 0.4905 0.92826 0.13346 0.0
H2159 H 0.51859 0.92847 0.12389 0.0
H2160 H 0.05976 0.59024 0.12926 0.0
H2161 H 0.05849 0.56199 0.14149 0.0
H2162 H 0.11093 0.59155 0.17831 0.0
H2163 H 0.11226 0.61973 0.16644 0.0
H2164 H 0.0823 0.55058 0.12463 0.0
H2165 H 0.08144 0.55531 0.23821 0.0
H2166 H 0.07639 0.56892 0.21575 0.0
H2167 H 0.09929 0.57507 0.2226 0.0
C2168 C 0.07094 0.5907 0.14018 0.0
C2169 C 0.0861 0.60721 0.14694 0.0
C2170 C 0.07019 0.57457 0.14714 0.0
C2171 C 0.08449 0.5747 0.16118 0.0
C2172 C 0.09958 0.59116 0.16801 0.0
H2173 H 0.12662 0.50836 0.20679 0.0
H2174 H 0.11885 0.5315 0.19781 0.0
C2175 C 0.10037 0.60725 0.16105 0.0
C2176 C 0.08421 0.55774 0.16745 0.0
H2177 H 0.0897 0.53456 0.21988 0.0
C2178 C 0.0836 0.54686 0.14547 0.0
C2179 C 0.08585 0.55294 0.19467 0.0
C2180 C 0.0856 0.56358 0.21919 0.0
C2181 C 0.0856 0.53184 0.14989 0.0
C2182 C 0.08803 0.52752 0.17702 0.0
C2183 C 0.0879 0.53797 0.19908 0.0
C2184 C 0.09221 0.51313 0.18278 0.0
C2185 C 0.08601 0.52125 0.12543 0.0
C2186 C 0.07969 0.49508 0.17754 0.0
C2187 C 0.08408 0.48173 0.18265 0.0
C2188 C 0.10107 0.48626 0.19311 0.0
C2189 C 0.11344 0.50437 0.19864 0.0
C2190 C 0.10903 0.51764 0.19359 0.0
H2191 H 0.08698 0.52814 0.10564 0.0
H2192 H 0.09752 0.51887 0.12697 0.0
H2193 H 0.07354 0.508 0.12508 0.0
H2194 H 0.06653 0.49132 0.16955 0.0
H2195 H 0.07422 0.46791 0.17827 0.0
H2196 H 0.47967 0.62023 0.20306 0.0
H2197 H 0.45591 0.58993 0.19229 0.0
H2198 H 0.49509 0.57675 0.16251 0.0
H2199 H 0.51915 0.60716 0.17346 0.0
H2200 H 0.44875 0.57405 0.13916 0.0
H2201 H 0.46349 0.53514 0.21593 0.0
H2202 H 0.47234 0.559 0.21905 0.0
H2203 H 0.48179 0.55049 0.19448 0.0
C2204 C 0.48333 0.61091 0.1944 0.0
C2205 C 0.50135 0.61616 0.18911 0.0
C2206 C 0.4697 0.59358 0.18825 0.0
C2207 C 0.47376 0.58109 0.17683 0.0
C2208 C 0.49172 0.58614 0.17172 0.0
H2209 H 0.39717 0.47069 0.12673 0.0
H2210 H 0.42508 0.49889 0.13545 0.0
C2211 C 0.50542 0.60354 0.17787 0.0
C2212 C 0.45898 0.56308 0.16923 0.0
H2213 H 0.43888 0.51874 0.18632 0.0
C2214 C 0.44665 0.56194 0.14935 0.0
C2215 C 0.45638 0.54733 0.18244 0.0
C2216 C 0.4691 0.54793 0.20431 0.0
C2217 C 0.43155 0.54549 0.14268 0.0
C2218 C 0.42857 0.52982 0.15661 0.0
C2219 C 0.44121 0.53083 0.17581 0.0
C2220 C 0.41189 0.51251 0.15247 0.0
C2221 C 0.41885 0.54501 0.12086 0.0
C2222 C 0.39534 0.51076 0.15976 0.0
C2223 C 0.37944 0.49475 0.15485 0.0
C2224 C 0.37981 0.48014 0.14262 0.0
C2225 C 0.39646 0.48174 0.13605 0.0
C2226 C 0.4124 0.49781 0.14104 0.0
H2227 H 0.4254 0.5569 0.10714 0.0
H2228 H 0.41365 0.53271 0.10811 0.0
H2229 H 0.40728 0.54501 0.13093 0.0
H2230 H 0.39471 0.52187 0.16907 0.0
H2231 H 0.36686 0.49392 0.16032 0.0
H2232 H 0.12699 0.61521 0.71222 0.0
H2233 H 0.11889 0.58426 0.70268 0.0
H2234 H 0.06763 0.57354 0.67135 0.0
H2235 H 0.07567 0.60466 0.68059 0.0
H2236 H 0.08893 0.55194 0.72255 0.0
H2237 H 0.08918 0.55777 0.60835 0.0
H2238 H 0.09935 0.57716 0.63058 0.0
H2239 H 0.07542 0.56438 0.62714 0.0
C2240 C 0.11397 0.60632 0.7033 0.0
C2241 C 0.10202 0.61247 0.69702 0.0
C2242 C 0.10936 0.58861 0.69793 0.0
C2243 C 0.09276 0.5767 0.68605 0.0
C2244 C 0.08063 0.58263 0.68016 0.0
H2245 H 0.05975 0.46771 0.62877 0.0
H2246 H 0.05864 0.4947 0.64164 0.0
C2247 C 0.08522 0.60039 0.68556 0.0
C2248 C 0.08842 0.55815 0.67975 0.0
H2249 H 0.08333 0.53008 0.62656 0.0
C2250 C 0.08753 0.54707 0.70158 0.0
C2251 C 0.08651 0.55185 0.65239 0.0
C2252 C 0.08777 0.56339 0.62817 0.0
C2253 C 0.08521 0.52998 0.69674 0.0
C2254 C 0.08408 0.52399 0.66933 0.0
C2255 C 0.08423 0.53475 0.64754 0.0
C2256 C 0.08417 0.50725 0.66274 0.0
C2257 C 0.08415 0.51856 0.721 0.0
C2258 C 0.09895 0.50548 0.67016 0.0
C2259 C 0.09964 0.49017 0.66284 0.0
C2260 C 0.0856 0.47636 0.64777 0.0
C2261 C 0.07075 0.47811 0.64044 0.0
C2262 C 0.07009 0.49349 0.64775 0.0
H2263 H 0.07967 0.52247 0.7399 0.0
H2264 H 0.07482 0.50413 0.71685 0.0
H2265 H 0.09765 0.52041 0.72508 0.0
H2266 H 0.11014 0.51612 0.68119 0.0
H2267 H 0.11129 0.48926 0.66871 0.0
H2268 H 0.38282 0.46903 0.67052 0.0
H2269 H 0.41406 0.49176 0.66107 0.0
H2270 H 0.40461 0.53259 0.69494 0.0
H2271 H 0.37359 0.51016 0.70454 0.0
H2272 H 0.42661 0.5234 0.62801 0.0
H2273 H 0.44964 0.53969 0.73607 0.0
H2274 H 0.42944 0.51937 0.72647 0.0
H2275 H 0.42938 0.54017 0.72938 0.0
C2276 C 0.38742 0.48284 0.67606 0.0
C2277 C 0.3757 0.48775 0.68838 0.0
C2278 C 0.40525 0.49578 0.67065 0.0
C2279 C 0.41168 0.51377 0.67775 0.0
C2280 C 0.4 0.51871 0.68983 0.0
H2281 H 0.4983 0.61908 0.66015 0.0
H2282 H 0.47129 0.59076 0.6707 0.0
C2283 C 0.38222 0.50586 0.69513 0.0
C2284 C 0.43038 0.52768 0.67172 0.0
H2285 H 0.46788 0.5613 0.70201 0.0
C2286 C 0.43581 0.53151 0.64415 0.0
C2287 C 0.4423 0.53814 0.69287 0.0
C2288 C 0.43749 0.53405 0.72288 0.0
C2289 C 0.45248 0.54628 0.6371 0.0
C2290 C 0.46405 0.55725 0.65826 0.0
C2291 C 0.45893 0.55289 0.68585 0.0
C2292 C 0.48078 0.57418 0.65221 0.0
C2293 C 0.4572 0.5506 0.6071 0.0
C2294 C 0.49517 0.5742 0.63861 0.0
C2295 C 0.51068 0.59042 0.63249 0.0
C2296 C 0.51202 0.60683 0.63997 0.0
C2297 C 0.49768 0.60668 0.65403 0.0
C2298 C 0.48224 0.59051 0.66012 0.0
H2299 H 0.44554 0.5426 0.59341 0.0
H2300 H 0.46232 0.56505 0.60315 0.0
H2301 H 0.46795 0.54762 0.60156 0.0
H2302 H 0.49439 0.5617 0.63271 0.0
H2303 H 0.52154 0.5901 0.62176 0.0
H2304 H 0.36842 0.87503 0.66354 0.0
H2305 H 0.39654 0.87538 0.67186 0.0
H2306 H 0.42596 0.92793 0.63535 0.0
H2307 H 0.39778 0.92776 0.62701 0.0
H2308 H 0.4214 0.87944 0.62876 0.0
H2309 H 0.45226 0.9321 0.7097 0.0
H2310 H 0.42853 0.92065 0.70235 0.0
H2311 H 0.44404 0.93747 0.67919 0.0
C2312 C 0.38087 0.88676 0.6575 0.0
C2313 C 0.38088 0.90136 0.64455 0.0
C2314 C 0.39691 0.88692 0.66226 0.0
C2315 C 0.41329 0.90171 0.65437 0.0
C2316 C 0.41345 0.91649 0.64191 0.0
H2317 H 0.51957 0.91154 0.67246 0.0
H2318 H 0.49582 0.91824 0.66063 0.0
C2319 C 0.39735 0.91633 0.63707 0.0
C2320 C 0.42999 0.90103 0.65791 0.0
H2321 H 0.46851 0.91811 0.69567 0.0
C2322 C 0.43177 0.88798 0.64324 0.0
C2323 C 0.44354 0.91233 0.6766 0.0
C2324 C 0.44207 0.92639 0.69306 0.0
C2325 C 0.44654 0.88558 0.64726 0.0
C2326 C 0.4597 0.89632 0.66685 0.0
C2327 C 0.45833 0.90988 0.68074 0.0
C2328 C 0.4742 0.89268 0.67456 0.0
C2329 C 0.44785 0.87145 0.63071 0.0
C2330 C 0.46986 0.87626 0.68677 0.0
C2331 C 0.48329 0.87239 0.69353 0.0
C2332 C 0.5014 0.88492 0.68834 0.0
C2333 C 0.50576 0.90156 0.67662 0.0
C2334 C 0.49224 0.90543 0.66988 0.0
H2335 H 0.43981 0.86811 0.61151 0.0
H2336 H 0.46198 0.8759 0.62522 0.0
H2337 H 0.4426 0.85903 0.64316 0.0
H2338 H 0.45602 0.86638 0.69101 0.0
H2339 H 0.47943 0.8595 0.7027 0.0
H2340 H 0.15303 0.44641 0.15218 0.0
H2341 H 0.17947 0.44445 0.14001 0.0
H2342 H 0.1572 0.39331 0.18098 0.0
H2343 H 0.1306 0.39522 0.1935 0.0
H2344 H 0.19284 0.41771 0.19564 0.0
H2345 H 0.1849 0.41274 0.08241 0.0
H2346 H 0.18316 0.43108 0.09649 0.0
H2347 H 0.1667 0.40844 0.10542 0.0
C2348 C 0.15365 0.43466 0.15843 0.0
C2349 C 0.13971 0.42096 0.17378 0.0
C2350 C 0.16873 0.4335 0.15129 0.0
C2351 C 0.17015 0.4186 0.1592 0.0
C2352 C 0.15626 0.40485 0.17448 0.0
H2353 H 0.26816 0.41071 0.14183 0.0
H2354 H 0.23685 0.40202 0.15108 0.0
C2355 C 0.1411 0.40597 0.18159 0.0
C2356 C 0.18668 0.41807 0.15279 0.0
H2357 H 0.21449 0.4223 0.09973 0.0
C2358 C 0.19746 0.41835 0.17468 0.0
C2359 C 0.19259 0.41884 0.12542 0.0
C2360 C 0.18115 0.41758 0.10108 0.0
C2361 C 0.21452 0.42054 0.16994 0.0
C2362 C 0.22079 0.42224 0.14259 0.0
C2363 C 0.20965 0.42108 0.12068 0.0
C2364 C 0.23945 0.42692 0.13637 0.0
C2365 C 0.22611 0.42201 0.19421 0.0
C2366 C 0.25111 0.44362 0.12456 0.0
C2367 C 0.26891 0.4486 0.11922 0.0
C2368 C 0.27542 0.43694 0.12545 0.0
C2369 C 0.2636 0.42004 0.13688 0.0
C2370 C 0.24574 0.41507 0.14228 0.0
H2371 H 0.22035 0.42321 0.21402 0.0
H2372 H 0.22747 0.40987 0.19517 0.0
H2373 H 0.23975 0.43382 0.19187 0.0
H2374 H 0.24648 0.45293 0.11982 0.0
H2375 H 0.27757 0.46168 0.11032 0.0
H2376 H 0.52617 0.81751 0.11206 0.0
H2377 H 0.53362 0.79462 0.12449 0.0
H2378 H 0.58551 0.83541 0.15324 0.0
H2379 H 0.57821 0.85867 0.14074 0.0
H2380 H 0.58469 0.80675 0.11851 0.0
H2381 H 0.53692 0.78104 0.20587 0.0
H2382 H 0.5273 0.78337 0.17443 0.0
H2383 H 0.54482 0.80297 0.19104 0.0
C2384 C 0.53921 0.82172 0.12096 0.0
C2385 C 0.55154 0.83996 0.1256 0.0
C2386 C 0.54341 0.80858 0.12813 0.0
C2387 C 0.55998 0.81334 0.14014 0.0
C2388 C 0.57259 0.83151 0.14413 0.0
H2389 H 0.59393 0.73592 0.1885 0.0
H2390 H 0.59489 0.7645 0.18001 0.0
C2391 C 0.56838 0.84475 0.13701 0.0
C2392 C 0.5638 0.7991 0.14865 0.0
H2393 H 0.54744 0.76185 0.18911 0.0
C2394 C 0.57681 0.79708 0.13427 0.0
C2395 C 0.55352 0.78661 0.1693 0.0
C2396 C 0.53996 0.78865 0.18626 0.0
C2397 C 0.57906 0.7822 0.13895 0.0
C2398 C 0.56812 0.76925 0.15865 0.0
C2399 C 0.55571 0.77176 0.17388 0.0
C2400 C 0.56827 0.75229 0.16245 0.0
C2401 C 0.59244 0.77994 0.12192 0.0
C2402 C 0.55299 0.73605 0.15545 0.0
C2403 C 0.55238 0.71979 0.1603 0.0
C2404 C 0.56702 0.71945 0.17243 0.0
C2405 C 0.58245 0.73577 0.17908 0.0
C2406 C 0.58306 0.75209 0.17416 0.0
H2407 H 0.59806 0.78985 0.10489 0.0
H2408 H 0.60366 0.7817 0.13527 0.0
H2409 H 0.58609 0.76622 0.11307 0.0
H2410 H 0.54144 0.73596 0.14644 0.0
H2411 H 0.5403 0.70748 0.15491 0.0
H2412 H 0.1308 0.71899 0.14351 0.0
H2413 H 0.1538 0.75035 0.15141 0.0
H2414 H 0.19372 0.74014 0.11589 0.0
H2415 H 0.171 0.70899 0.10779 0.0
H2416 H 0.18547 0.76271 0.18332 0.0
H2417 H 0.20131 0.78525 0.07504 0.0
H2418 H 0.18099 0.76514 0.0849 0.0
H2419 H 0.2017 0.76494 0.08172 0.0
C2420 C 0.14446 0.72346 0.13718 0.0
C2421 C 0.14905 0.71148 0.12496 0.0
C2422 C 0.15755 0.74136 0.14172 0.0
C2423 C 0.17537 0.74759 0.13381 0.0
C2424 C 0.17997 0.73568 0.12161 0.0
H2425 H 0.2813 0.83353 0.15061 0.0
H2426 H 0.25281 0.80683 0.13958 0.0
C2427 C 0.16696 0.71783 0.11718 0.0
C2428 C 0.18952 0.76626 0.13956 0.0
H2429 H 0.22329 0.80343 0.10879 0.0
C2430 C 0.19356 0.77178 0.16706 0.0
C2431 C 0.19998 0.77802 0.11825 0.0
C2432 C 0.19569 0.77313 0.0883 0.0
C2433 C 0.20849 0.78838 0.17391 0.0
C2434 C 0.21944 0.79981 0.1526 0.0
C2435 C 0.2149 0.7946 0.12507 0.0
C2436 C 0.23647 0.81648 0.15848 0.0
C2437 C 0.213 0.79315 0.20386 0.0
C2438 C 0.23668 0.83088 0.17236 0.0
C2439 C 0.25299 0.8462 0.17877 0.0
C2440 C 0.26931 0.84733 0.17129 0.0
C2441 C 0.26898 0.83305 0.15676 0.0
C2442 C 0.25271 0.8178 0.15039 0.0
H2443 H 0.20509 0.78151 0.21762 0.0
H2444 H 0.22748 0.79826 0.20761 0.0
H2445 H 0.21006 0.8039 0.20951 0.0
H2446 H 0.22426 0.83022 0.17838 0.0
H2447 H 0.25282 0.85703 0.18984 0.0
H2448 H 0.22394 0.19571 0.13906 0.0
H2449 H 0.22614 0.20085 0.18868 0.0
H2450 H 0.23563 0.25444 0.17548 0.0
H2451 H 0.23415 0.24961 0.12556 0.0
H2452 H 0.25542 0.25309 0.2186 0.0
H2453 H 0.18452 0.19953 0.22871 0.0
H2454 H 0.19814 0.19154 0.21333 0.0
H2455 H 0.19488 0.20812 0.19577 0.0
C2456 C 0.22669 0.20866 0.1467 0.0
C2457 C 0.2286 0.22217 0.12849 0.0
C2458 C 0.22788 0.21155 0.17506 0.0
C2459 C 0.23052 0.22783 0.18577 0.0
C2460 C 0.23344 0.24172 0.16762 0.0
H2461 H 0.19443 0.23014 0.35071 0.0
H2462 H 0.20025 0.23402 0.30133 0.0
C2463 C 0.23257 0.23894 0.13914 0.0
C2464 C 0.22906 0.22985 0.2158 0.0
H2465 H 0.20096 0.21037 0.27023 0.0
C2466 C 0.24348 0.24385 0.22994 0.0
C2467 C 0.21333 0.21801 0.23044 0.0
C2468 C 0.19677 0.20358 0.21625 0.0
C2469 C 0.24273 0.24607 0.25851 0.0
C2470 C 0.22732 0.23365 0.27332 0.0
C2471 C 0.21284 0.21985 0.25898 0.0
C2472 C 0.22559 0.23446 0.30363 0.0
C2473 C 0.25829 0.26185 0.27235 0.0
C2474 C 0.23814 0.23396 0.32157 0.0
C2475 C 0.235 0.23216 0.34998 0.0
C2476 C 0.21902 0.2303 0.36073 0.0
C2477 C 0.20679 0.23139 0.3429 0.0
C2478 C 0.21012 0.23362 0.31469 0.0
H2479 H 0.26597 0.27292 0.25754 0.0
H2480 H 0.25371 0.26707 0.28955 0.0
H2481 H 0.26756 0.25759 0.28073 0.0
H2482 H 0.24994 0.23411 0.31356 0.0
H2483 H 0.24456 0.23119 0.36332 0.0
H2484 H 0.79323 0.01083 0.14159 0.0
H2485 H 0.78729 0.00882 0.1909 0.0
H2486 H 0.73088 0.9867 0.17495 0.0
H2487 H 0.73664 0.98851 0.12531 0.0
H2488 H 0.77023 0.02413 0.22289 0.0
H2489 H 0.73387 0.94947 0.22582 0.0
H2490 H 0.74759 0.96199 0.19693 0.0
H2491 H 0.72598 0.9599 0.20185 0.0
C2492 C 0.77954 0.00555 0.14846 0.0
C2493 C 0.76539 -0.0003 0.12945 0.0
C2494 C 0.77619 0.00448 0.17668 0.0
C2495 C 0.75865 -0.00252 0.18651 0.0
C2496 C 0.74449 0.99195 0.16771 0.0
H2497 H 0.74502 0.00059 0.36675 0.0
H2498 H 0.74016 0.00269 0.31741 0.0
C2499 C 0.74783 0.99304 0.13938 0.0
C2500 C 0.75539 -0.0044 0.21654 0.0
H2501 H 0.73939 0.96453 0.26807 0.0
C2502 C 0.76322 0.01113 0.23283 0.0
C2503 C 0.74631 0.97858 0.2293 0.0
C2504 C 0.73802 0.96148 0.21271 0.0
C2505 C 0.76286 0.01009 0.26167 0.0
C2506 C 0.75431 0.99306 0.27442 0.0
C2507 C 0.74582 0.97755 0.25813 0.0
C2508 C 0.7561 0.99102 0.30428 0.0
C2509 C 0.7725 0.02714 0.27827 0.0
C2510 C 0.76633 0.98343 0.3131 0.0
C2511 C 0.76913 0.98221 0.34106 0.0
C2512 C 0.76167 0.98849 0.36088 0.0
C2513 C 0.75101 -0.0043 0.35201 0.0
C2514 C 0.74826 -0.00304 0.32388 0.0
H2515 H 0.7804 0.0391 0.26509 0.0
H2516 H 0.76256 0.02913 0.28995 0.0
H2517 H 0.78167 0.02619 0.29337 0.0
H2518 H 0.77248 0.97876 0.29826 0.0
H2519 H 0.77731 0.97649 0.34708 0.0
H2520 H 0.0219 0.79347 0.34646 0.0
H2521 H 0.01839 0.78849 0.29682 0.0
H2522 H 0.97476 0.73472 0.31036 0.0
H2523 H 0.97874 0.73938 0.36023 0.0
H2524 H -0.00502 0.73591 0.267 0.0
H2525 H 0.97818 0.78987 0.25734 0.0
H2526 H -7e-05 0.79791 0.27216 0.0
H2527 H 0.98029 0.78146 0.29025 0.0
C2528 C 0.01167 0.78052 0.33887 0.0
C2529 C 0.00042 0.76689 0.35718 0.0
C2530 C 0.00962 0.77772 0.31051 0.0
C2531 C -0.00405 0.76143 0.2999 0.0
C2532 C 0.98529 0.74746 0.31812 0.0
H2533 H 0.9582 0.76008 0.13434 0.0
H2534 H 0.95973 0.7562 0.18384 0.0
C2535 C 0.98757 0.75014 0.34658 0.0
C2536 C 0.99226 0.7594 0.26991 0.0
H2537 H 0.98382 0.77912 0.21562 0.0
C2538 C 0.9924 0.74525 0.25572 0.0
C2539 C 0.98844 0.77133 0.25536 0.0
C2540 C 0.9865 0.78586 0.26961 0.0
C2541 C 0.98931 0.74303 0.22719 0.0
C2542 C 0.98655 0.75563 0.21242 0.0
C2543 C 0.98605 0.76952 0.22681 0.0
C2544 C 0.98424 0.75499 0.18206 0.0
C2545 C 0.98875 0.72707 0.21338 0.0
C2546 C -0.00278 0.7551 0.16438 0.0
C2547 C -0.00389 0.7569 0.13593 0.0
C2548 C 0.9823 0.75913 0.12483 0.0
C2549 C 0.96907 0.75851 0.14241 0.0
C2550 C 0.96994 0.75629 0.17069 0.0
H2551 H 0.98496 0.71589 0.22815 0.0
H2552 H 0.97909 0.72211 0.19599 0.0
H2553 H 0.00226 0.73099 0.20529 0.0
H2554 H 0.00866 0.75463 0.17262 0.0
H2555 H 0.00658 0.75751 0.12282 0.0
H2556 H 0.76406 0.79933 0.85155 0.0
H2557 H 0.76179 0.79539 0.80167 0.0
H2558 H 0.75801 0.74374 0.8108 0.0
H2559 H 0.75925 0.74723 0.86087 0.0
H2560 H 0.78449 0.79394 0.76993 0.0
H2561 H 0.72036 0.73102 0.75436 0.0
H2562 H 0.72649 0.74247 0.78705 0.0
H2563 H 0.73477 0.72773 0.77726 0.0
C2564 C 0.76241 0.78699 0.84291 0.0
C2565 C 0.76183 0.77358 0.86001 0.0
C2566 C 0.76111 0.78475 0.8144 0.0
C2567 C 0.75953 0.76918 0.80236 0.0
C2568 C 0.75868 0.75563 0.81951 0.0
H2569 H 0.79904 0.77109 0.63805 0.0
H2570 H 0.79404 0.76994 0.68765 0.0
C2571 C 0.75954 0.7577 0.84813 0.0
C2572 C 0.76053 0.76802 0.77196 0.0
H2573 H 0.74088 0.74101 0.71622 0.0
C2574 C 0.77481 0.78242 0.75822 0.0
C2575 C 0.74781 0.75312 0.7565 0.0
C2576 C 0.7314 0.73781 0.76954 0.0
C2577 C 0.77689 0.78226 0.72966 0.0
C2578 C 0.76483 0.7669 0.71442 0.0
C2579 C 0.75031 0.75263 0.72798 0.0
C2580 C 0.76707 0.76557 0.68439 0.0
C2581 C 0.79183 0.79877 0.71614 0.0
C2582 C 0.75317 0.76233 0.66606 0.0
C2583 C 0.75584 0.76251 0.63763 0.0
C2584 C 0.77253 0.76613 0.62714 0.0
C2585 C 0.78614 0.76859 0.64556 0.0
C2586 C 0.78334 0.76805 0.6739 0.0
H2587 H 0.79586 0.81096 0.72879 0.0
H2588 H 0.80375 0.79713 0.71389 0.0
H2589 H 0.78784 0.801 0.69543 0.0
H2590 H 0.74044 0.76023 0.6737 0.0
H2591 H 0.74509 0.76052 0.62389 0.0
H2592 H 0.20831 0.01291 0.64168 0.0
H2593 H 0.21371 0.01154 0.69059 0.0
H2594 H 0.24457 0.9859 0.67225 0.0
H2595 H 0.23918 0.98714 0.62294 0.0
H2596 H 0.21769 0.96816 0.71248 0.0
H2597 H 0.25955 0.04037 0.73646 0.0
H2598 H 0.23972 0.03542 0.71749 0.0
H2599 H 0.25651 0.03168 0.70181 0.0
C2600 C 0.21639 0.00712 0.64793 0.0
C2601 C 0.22329 0.00011 0.62836 0.0
C2602 C 0.21959 0.00648 0.67592 0.0
C2603 C 0.22977 -0.00112 0.68498 0.0
C2604 C 0.23682 0.99198 0.66559 0.0
H2605 H 0.24656 0.0019 0.86421 0.0
H2606 H 0.25321 0.00335 0.81487 0.0
C2607 C 0.23372 0.99271 0.63747 0.0
C2608 C 0.23173 -0.003 0.71484 0.0
H2609 H 0.24381 0.02093 0.77468 0.0
C2610 C 0.22372 0.97969 0.72608 0.0
C2611 C 0.23985 0.01205 0.7325 0.0
C2612 C 0.24956 0.03093 0.72144 0.0
C2613 C 0.22249 0.97705 0.75466 0.0
C2614 C 0.22928 0.99209 0.77232 0.0
C2615 C 0.23843 0.0094 0.76108 0.0
C2616 C 0.22543 0.99017 0.80218 0.0
C2617 C 0.21348 0.95816 0.76572 0.0
C2618 C 0.20765 0.9824 0.81127 0.0
C2619 C 0.20381 0.98164 0.83928 0.0
C2620 C 0.21771 0.98869 0.85883 0.0
C2621 C 0.23555 -0.0037 0.84969 0.0
C2622 C 0.23938 -0.00286 0.82155 0.0
H2623 H 0.21415 0.94878 0.7507 0.0
H2624 H 0.21971 0.95748 0.78535 0.0
H2625 H 0.19914 0.95356 0.76967 0.0
H2626 H 0.19672 0.97728 0.79661 0.0
H2627 H 0.18993 0.9757 0.84555 0.0
H2628 H -0.00123 0.2476 0.63078 0.0
H2629 H 0.00069 0.25258 0.6807 0.0
H2630 H 0.9761 0.19565 0.69431 0.0
H2631 H 0.97402 0.1905 0.64481 0.0
H2632 H 0.96217 0.21387 0.72749 0.0
H2633 H 0.0366 0.24588 0.73044 0.0
H2634 H 0.02711 0.25498 0.70683 0.0
H2635 H 0.02355 0.23283 0.70136 0.0
C2636 C -0.00633 0.23614 0.64441 0.0
C2637 C 0.98636 0.21865 0.63379 0.0
C2638 C -0.00515 0.23902 0.67289 0.0
C2639 C 0.98869 0.22448 0.69109 0.0
C2640 C 0.98095 0.20704 0.68055 0.0
H2641 H 0.0078 0.20435 0.85406 0.0
H2642 H 0.00558 0.20806 0.8047 0.0
C2643 C 0.97983 0.20414 0.65222 0.0
C2644 C 0.99069 0.22719 0.72121 0.0
H2645 H 0.02167 0.24081 0.77279 0.0
C2646 C 0.97517 0.22001 0.73747 0.0
C2647 C 0.00769 0.23506 0.73401 0.0
C2648 C 0.02474 0.24256 0.7174 0.0
C2649 C 0.97616 0.21999 0.76629 0.0
C2650 C -0.00685 0.22749 0.77907 0.0
C2651 C 0.0087 0.23516 0.76284 0.0
C2652 C -0.00503 0.226 0.80907 0.0
C2653 C 0.95905 0.21121 0.78284 0.0
C2654 C 0.98991 0.23504 0.82785 0.0
C2655 C 0.99115 0.23295 0.85617 0.0
C2656 C -0.00252 0.22178 0.86614 0.0
C2657 C 0.00279 0.21299 0.84715 0.0
C2658 C 0.00159 0.21513 0.81892 0.0
H2659 H 0.94703 0.20362 0.76964 0.0
H2660 H 0.95943 0.20191 0.79831 0.0
H2661 H 0.95763 0.22165 0.79407 0.0
H2662 H 0.98495 0.24366 0.82059 0.0
H2663 H 0.98701 0.23997 0.87022 0.0
H2664 H 0.87439 0.52467 0.47411 0.0
H2665 H 0.87838 0.53082 0.52333 0.0
H2666 H 0.91209 0.58724 0.50687 0.0
H2667 H 0.90808 0.58126 0.45727 0.0
H2668 H 0.91041 0.54829 0.55573 0.0
H2669 H 0.87131 0.5839 0.55677 0.0
H2670 H 0.87056 0.57017 0.52814 0.0
H2671 H 0.88983 0.59194 0.53316 0.0
C2672 C 0.88273 0.5384 0.48084 0.0
C2673 C 0.89079 0.55249 0.4617 0.0
C2674 C 0.88503 0.54187 0.50901 0.0
C2675 C 0.89537 0.55948 0.51868 0.0
C2676 C 0.90388 0.57357 0.49975 0.0
H2677 H 0.91243 0.57545 0.69819 0.0
H2678 H 0.91884 0.57918 0.6487 0.0
C2679 C 0.90161 0.57011 0.47145 0.0
C2680 C 0.89651 0.56287 0.54866 0.0
H2681 H 0.88087 0.5789 0.59939 0.0
C2682 C 0.90423 0.55523 0.56534 0.0
C2683 C 0.88829 0.57183 0.56099 0.0
C2684 C 0.87941 0.57986 0.54398 0.0
C2685 C 0.90337 0.55574 0.59415 0.0
C2686 C 0.89471 0.56426 0.60647 0.0
C2687 C 0.88758 0.57248 0.58979 0.0
C2688 C 0.89111 0.56301 0.63638 0.0
C2689 C 0.91087 0.54634 0.61117 0.0
C2690 C 0.87339 0.55303 0.64573 0.0
C2691 C 0.86968 0.55088 0.67384 0.0
C2692 C 0.88363 0.55876 0.69324 0.0
C2693 C 0.90138 0.56914 0.6838 0.0
C2694 C 0.90509 0.57124 0.65556 0.0
H2695 H 0.91475 0.53815 0.59833 0.0
H2696 H 0.92293 0.55647 0.62236 0.0
H2697 H 0.9009 0.5375 0.62669 0.0
H2698 H 0.86243 0.54659 0.6312 0.0
H2699 H 0.85585 0.54288 0.68032 0.0
H2700 H 0.46059 0.34746 0.47403 0.0
H2701 H 0.4536 0.34512 0.52296 0.0
H2702 H 0.39755 0.32303 0.50411 0.0
H2703 H 0.40438 0.32516 0.45478 0.0
H2704 H 0.43594 0.35992 0.5542 0.0
H2705 H 0.39949 0.28522 0.55484 0.0
H2706 H 0.41371 0.29809 0.52659 0.0
H2707 H 0.39208 0.29605 0.53081 0.0
C2708 C 0.44676 0.34214 0.48017 0.0
C2709 C 0.43302 0.33635 0.46044 0.0
C2710 C 0.44281 0.34089 0.50818 0.0
C2711 C 0.42506 0.33376 0.5171 0.0
C2712 C 0.41132 0.32837 0.49758 0.0
H2713 H 0.41032 0.33511 0.69728 0.0
H2714 H 0.40548 0.33756 0.64808 0.0
C2715 C 0.41526 0.32965 0.46943 0.0
C2716 C 0.4212 0.33148 0.54696 0.0
H2717 H 0.40472 0.29973 0.59749 0.0
C2718 C 0.42883 0.34679 0.56373 0.0
C2719 C 0.41199 0.3143 0.55917 0.0
C2720 C 0.4039 0.29741 0.54206 0.0
C2721 C 0.42822 0.34537 0.59253 0.0
C2722 C 0.41959 0.32817 0.60474 0.0
C2723 C 0.41123 0.31288 0.58797 0.0
C2724 C 0.4212 0.32574 0.63453 0.0
C2725 C 0.43773 0.36221 0.60964 0.0
C2726 C 0.43126 0.3179 0.64309 0.0
C2727 C 0.43403 0.31646 0.671 0.0
C2728 C 0.42674 0.32279 0.69101 0.0
C2729 C 0.4162 0.33019 0.6824 0.0
C2730 C 0.41346 0.33165 0.65433 0.0
H2731 H 0.44581 0.37432 0.59684 0.0
H2732 H 0.4277 0.36412 0.62119 0.0
H2733 H 0.44671 0.36104 0.62486 0.0
H2734 H 0.43734 0.31325 0.6281 0.0
H2735 H 0.44212 0.31059 0.67684 0.0
H2736 H 0.67717 0.13046 0.68065 0.0
H2737 H 0.67493 0.12335 0.63176 0.0
H2738 H 0.65275 0.06733 0.65095 0.0
H2739 H 0.65477 0.07427 0.70023 0.0
H2740 H 0.68965 0.10557 0.60065 0.0
H2741 H 0.61496 0.06916 0.60014 0.0
H2742 H 0.62787 0.08344 0.62833 0.0
H2743 H 0.62577 0.06176 0.62423 0.0
C2744 C 0.67187 0.11661 0.6746 0.0
C2745 C 0.666 0.10291 0.6944 0.0
C2746 C 0.67066 0.11259 0.64661 0.0
C2747 C 0.66352 0.09481 0.63779 0.0
C2748 C 0.6581 0.08111 0.6574 0.0
H2749 H 0.66457 0.07916 0.45779 0.0
H2750 H 0.66711 0.07459 0.50707 0.0
C2751 C 0.65932 0.08512 0.68551 0.0
C2752 C 0.66122 0.09086 0.60796 0.0
H2753 H 0.62942 0.07414 0.55749 0.0
C2754 C 0.67651 0.09841 0.59116 0.0
C2755 C 0.64403 0.08159 0.59578 0.0
C2756 C 0.62716 0.07358 0.61291 0.0
C2757 C 0.67506 0.09766 0.56236 0.0
C2758 C 0.65785 0.08897 0.55018 0.0
C2759 C 0.64258 0.08069 0.56699 0.0
C2760 C 0.65538 0.09045 0.52037 0.0
C2761 C 0.69187 0.10709 0.54519 0.0
C2762 C 0.64756 0.10049 0.51164 0.0
C2763 C 0.64607 0.10311 0.48369 0.0
C2764 C 0.65232 0.09567 0.4638 0.0
C2765 C 0.6597 0.08515 0.47257 0.0
C2766 C 0.66122 0.08256 0.50069 0.0
H2767 H 0.704 0.11521 0.55794 0.0
H2768 H 0.69374 0.097 0.53374 0.0
H2769 H 0.6907 0.11602 0.52988 0.0
H2770 H 0.64296 0.10667 0.52654 0.0
H2771 H 0.64022 0.11119 0.47773 0.0
H2772 H 0.40856 0.07285 0.19758 0.0
H2773 H 0.404 0.06573 0.14829 0.0
H2774 H 0.43623 0.12192 0.12888 0.0
H2775 H 0.44073 0.12918 0.1777 0.0
H2776 H 0.40373 0.10309 0.0979 0.0
H2777 H 0.44451 0.06922 0.09742 0.0
H2778 H 0.42629 0.06133 0.1216 0.0
H2779 H 0.44537 0.08335 0.12551 0.0
C2780 C 0.41458 0.08369 0.18281 0.0
C2781 C 0.42513 0.10157 0.1916 0.0
C2782 C 0.41201 0.07958 0.15469 0.0
C2783 C 0.41993 0.0933 0.13502 0.0
C2784 C 0.43001 0.11115 0.14377 0.0
H2785 H 0.45976 0.11086 0.97455 0.0
H2786 H 0.45272 0.10626 0.02347 0.0
C2787 C 0.43262 0.11525 0.17172 0.0
C2788 C 0.41844 0.08935 0.1052 0.0
H2789 H 0.43485 0.07392 0.05473 0.0
C2790 C 0.41022 0.09641 0.08839 0.0
C2791 C 0.42705 0.08074 0.09302 0.0
C2792 C 0.43642 0.07328 0.11018 0.0
C2793 C 0.41109 0.09583 0.0596 0.0
C2794 C 0.42026 0.08779 0.04742 0.0
C2795 C 0.42776 0.07999 0.06422 0.0
C2796 C 0.42415 0.08934 0.01757 0.0
C2797 C 0.40314 0.10475 0.04248 0.0
C2798 C 0.4104 0.08111 -0.00198 0.0
C2799 C 0.41437 0.08375 0.96989 0.0
C2800 C 0.43217 0.09465 0.96092 0.0
C2801 C 0.4459 0.10246 0.98067 0.0
C2802 C 0.44192 0.0998 0.00867 0.0
H2803 H 0.39883 0.11264 0.05524 0.0
H2804 H 0.41299 0.11381 0.027 0.0
H2805 H 0.39126 0.09436 0.03124 0.0
H2806 H 0.39662 0.0728 0.00453 0.0
H2807 H 0.40349 0.07746 0.95522 0.0
H2808 H 0.86117 0.30558 0.18027 0.0
H2809 H 0.86929 0.30782 0.13189 0.0
H2810 H 0.92533 0.33681 0.15346 0.0
H2811 H 0.91731 0.33475 0.20233 0.0
H2812 H 0.91601 0.35362 0.11319 0.0
H2813 H 0.88976 0.28254 0.08593 0.0
H2814 H 0.87338 0.28565 0.1041 0.0
H2815 H 0.89388 0.29042 0.1211 0.0
C2816 C 0.87525 0.31227 0.17488 0.0
C2817 C 0.88859 0.32003 0.19521 0.0
C2818 C 0.87986 0.31338 0.14716 0.0
C2819 C 0.89791 0.32221 0.13912 0.0
C2820 C 0.91132 0.32977 0.15931 0.0
H2821 H 0.91055 0.32251 0.95906 0.0
H2822 H 0.91704 0.32072 0.00774 0.0
C2823 C 0.90671 0.32858 0.18719 0.0
C2824 C 0.90241 0.32485 0.10946 0.0
H2825 H 0.89177 0.30217 0.04851 0.0
C2826 C 0.9111 0.34239 0.09905 0.0
C2827 C 0.8963 0.31022 0.09107 0.0
C2828 C 0.88798 0.29116 0.10116 0.0
C2829 C 0.9125 0.34561 0.07062 0.0
C2830 C 0.90478 0.33091 0.05226 0.0
C2831 C 0.89745 0.31343 0.06263 0.0
C2832 C 0.90226 0.33323 0.02272 0.0
C2833 C 0.92167 0.36472 0.06051 0.0
C2834 C 0.89172 0.34074 0.0151 0.0
C2835 C 0.88792 0.3417 0.98748 0.0
C2836 C 0.89452 0.3351 0.96682 0.0
C2837 C 0.9053 0.32777 0.97445 0.0
C2838 C 0.90903 0.32674 0.00222 0.0
H2839 H 0.93184 0.37394 0.07553 0.0
H2840 H 0.92831 0.36608 0.04035 0.0
H2841 H 0.91156 0.36901 0.05798 0.0
H2842 H 0.886 0.34543 0.03062 0.0
H2843 H 0.87956 0.34741 0.98239 0.0
H2844 H 0.65378 0.57988 0.20023 0.0
H2845 H 0.65133 0.58484 0.15107 0.0
H2846 H 0.67625 0.55358 0.13078 0.0
H2847 H 0.67891 0.54869 0.17947 0.0
H2848 H 0.68939 0.58623 0.10034 0.0
H2849 H 0.61487 0.54437 0.09972 0.0
H2850 H 0.62493 0.5625 0.12409 0.0
H2851 H 0.62825 0.54362 0.12772 0.0
C2852 C 0.65884 0.57417 0.18529 0.0
C2853 C 0.66641 0.56376 0.1938 0.0
C2854 C 0.65738 0.57697 0.15725 0.0
C2855 C 0.66346 0.56942 0.13737 0.0
C2856 C 0.67148 0.55951 0.14584 0.0
H2857 H 0.64236 0.52924 0.97782 0.0
H2858 H 0.6445 0.53665 0.02655 0.0
C2859 C 0.67291 0.55667 0.17372 0.0
C2860 C 0.66097 0.57104 0.1076 0.0
H2861 H 0.62922 0.55417 0.05708 0.0
C2862 C 0.67624 0.57955 0.09082 0.0
C2863 C 0.64377 0.5622 0.09539 0.0
C2864 C 0.62696 0.55254 0.11252 0.0
C2865 C 0.67481 0.57868 0.06202 0.0
C2866 C 0.65764 0.56921 0.04981 0.0
C2867 C 0.64234 0.56148 0.06659 0.0
C2868 C 0.65541 0.56508 0.02004 0.0
C2869 C 0.69169 0.58691 0.04491 0.0
C2870 C 0.6606 0.57862 0.0002 0.0
C2871 C 0.65943 0.57443 0.97215 0.0
C2872 C 0.65305 0.55663 0.96358 0.0
C2873 C 0.64743 0.54309 0.98362 0.0
C2874 C 0.64858 0.54729 0.01152 0.0
H2875 H 0.70393 0.59165 0.05771 0.0
H2876 H 0.69121 0.57706 0.02968 0.0
H2877 H 0.69281 0.59854 0.03336 0.0
H2878 H 0.66571 0.59241 0.00641 0.0
H2879 H 0.66378 0.58516 0.95724 0.0
H2880 H 0.58313 0.91536 0.02865 0.0
H2881 H 0.59122 0.92173 0.97989 0.0
H2882 H 0.53539 0.89089 0.95758 0.0
H2883 H 0.52718 0.88458 0.0059 0.0
H2884 H 0.58426 0.89629 0.93941 0.0
H2885 H 0.55271 0.93647 0.91207 0.0
H2886 H 0.55713 0.9331 0.94728 0.0
H2887 H 0.53735 0.91631 0.92989 0.0
C2888 C 0.57256 0.91014 0.01336 0.0
C2889 C 0.5545 0.89943 0.02119 0.0
C2890 C 0.57722 0.9138 0.98555 0.0
C2891 C 0.56388 0.90705 0.96519 0.0
C2892 C 0.54586 0.89661 0.973 0.0
H2893 H 0.54933 0.86457 0.80864 0.0
H2894 H 0.55537 0.8732 0.85681 0.0
C2895 C 0.54121 0.89287 0.00067 0.0
C2896 C 0.5686 0.90939 0.93559 0.0
H2897 H 0.55685 0.92024 0.87457 0.0
C2898 C 0.57864 0.90192 0.92525 0.0
C2899 C 0.56157 0.91703 0.91717 0.0
C2900 C 0.55175 0.92636 0.92721 0.0
C2901 C 0.58053 0.90053 0.89682 0.0
C2902 C 0.57194 0.90655 0.8784 0.0
C2903 C 0.56322 0.9154 0.88873 0.0
C2904 C 0.56985 0.90174 0.84885 0.0
C2905 C 0.59113 0.89203 0.88678 0.0
C2906 C 0.57577 0.91495 0.82832 0.0
C2907 C 0.57228 0.91004 0.80054 0.0
C2908 C 0.56255 0.89184 0.79298 0.0
C2909 C 0.55684 0.8787 0.81367 0.0
C2910 C 0.56043 0.88361 0.84127 0.0
H2911 H 0.60156 0.89383 0.90193 0.0
H2912 H 0.58196 0.87742 0.88405 0.0
H2913 H 0.59768 0.89777 0.86673 0.0
H2914 H 0.5829 0.92902 0.83381 0.0
H2915 H 0.5768 0.92048 0.78511 0.0
H2916 H 0.0738 0.66753 0.0327 0.0
H2917 H 0.0679 0.66942 0.98378 0.0
H2918 H 0.09689 0.64226 0.96256 0.0
H2919 H 0.10271 0.64018 0.01103 0.0
H2920 H 0.09395 0.68707 0.94385 0.0
H2921 H 0.05154 0.61568 0.91613 0.0
H2922 H 0.05492 0.62345 0.95134 0.0
H2923 H 0.07127 0.61958 0.93437 0.0
C2924 C 0.07868 0.66173 0.01762 0.0
C2925 C 0.08876 0.65373 0.02578 0.0
C2926 C 0.07529 0.66282 0.98972 0.0
C2927 C 0.0817 0.65572 0.96961 0.0
C2928 C 0.09145 0.64745 0.97777 0.0
H2929 H 0.12504 0.68253 0.81276 0.0
H2930 H 0.11662 0.68034 0.86101 0.0
C2931 C 0.09491 0.64642 0.00553 0.0
C2932 C 0.07981 0.65829 0.93994 0.0
H2933 H 0.06858 0.63576 0.87885 0.0
C2934 C 0.08803 0.67585 0.92964 0.0
C2935 C 0.0718 0.64367 0.92146 0.0
C2936 C 0.06171 0.62454 0.93143 0.0
C2937 C 0.08974 0.67916 0.90123 0.0
C2938 C 0.08328 0.66453 0.88277 0.0
C2939 C 0.07375 0.64698 0.89304 0.0
C2940 C 0.08808 0.66709 0.85322 0.0
C2941 C 0.09898 0.6983 0.89124 0.0
C2942 C 0.07481 0.66013 0.83277 0.0
C2943 C 0.07959 0.66128 0.805 0.0
C2944 C 0.09773 0.66921 0.7973 0.0
C2945 C 0.11096 0.67635 0.8179 0.0
C2946 C 0.10617 0.67526 0.84553 0.0
H2947 H 0.09757 0.70721 0.90635 0.0
H2948 H 0.1135 0.70315 0.88868 0.0
H2949 H 0.09351 0.69943 0.87112 0.0
H2950 H 0.06076 0.6536 0.83835 0.0
H2951 H 0.06908 0.6556 0.78965 0.0
H2952 H 0.34417 0.46305 0.00904 0.0
H2953 H 0.34231 0.45541 0.96045 0.0
H2954 H 0.31985 0.39959 0.9813 0.0
H2955 H 0.32149 0.40708 0.03035 0.0
H2956 H 0.35712 0.43716 0.93062 0.0
H2957 H 0.28242 0.40113 0.92913 0.0
H2958 H 0.29518 0.41567 0.95716 0.0
H2959 H 0.29315 0.39399 0.95379 0.0
C2960 C 0.33889 0.44913 0.00343 0.0
C2961 C 0.33282 0.43565 0.02363 0.0
C2962 C 0.33792 0.44481 0.97561 0.0
C2963 C 0.3308 0.42694 0.96732 0.0
C2964 C 0.3252 0.41344 0.98733 0.0
H2965 H 0.33245 0.41262 0.7868 0.0
H2966 H 0.33462 0.40707 0.83584 0.0
C2967 C 0.32619 0.41777 0.01531 0.0
C2968 C 0.32864 0.42271 0.93757 0.0
H2969 H 0.29712 0.4065 0.88669 0.0
C2970 C 0.34402 0.43012 0.92095 0.0
C2971 C 0.31151 0.41359 0.92516 0.0
C2972 C 0.29456 0.40568 0.94208 0.0
C2973 C 0.34273 0.42952 0.89214 0.0
C2974 C 0.32559 0.42113 0.87974 0.0
C2975 C 0.31022 0.41284 0.89635 0.0
C2976 C 0.32332 0.42314 0.85002 0.0
C2977 C 0.35964 0.43888 0.87519 0.0
C2978 C 0.3159 0.43365 0.84187 0.0
C2979 C 0.31464 0.43683 0.81408 0.0
C2980 C 0.32072 0.4295 0.79376 0.0
C2981 C 0.32771 0.41852 0.80194 0.0
C2982 C 0.32901 0.41538 0.82991 0.0
H2983 H 0.37177 0.44657 0.88814 0.0
H2984 H 0.36126 0.4288 0.86325 0.0
H2985 H 0.35879 0.44821 0.86031 0.0
H2986 H 0.31143 0.43976 0.85711 0.0
H2987 H 0.30908 0.44525 0.80859 0.0
H2988 H 0.07366 0.40531 0.53177 0.0
H2989 H 0.06868 0.39815 0.48254 0.0
H2990 H 0.1014 0.45425 0.46288 0.0
H2991 H 0.1063 0.46155 0.51167 0.0
H2992 H 0.06913 0.43591 0.43182 0.0
H2993 H 0.10863 0.4007 0.43182 0.0
H2994 H 0.09032 0.39301 0.45577 0.0
H2995 H 0.10962 0.41486 0.45995 0.0
C2996 C 0.07968 0.41613 0.51696 0.0
C2997 C 0.09051 0.43399 0.52568 0.0
C2998 C 0.07687 0.412 0.48887 0.0
C2999 C 0.08485 0.42566 0.46914 0.0
C3000 C 0.09515 0.44351 0.47781 0.0
H3001 H 0.12538 0.44284 0.30955 0.0
H3002 H 0.11789 0.43792 0.35828 0.0
C3003 C 0.09798 0.44764 0.50575 0.0
C3004 C 0.08329 0.42164 0.43932 0.0
H3005 H 0.0992 0.40556 0.38906 0.0
C3006 C 0.07538 0.42897 0.42241 0.0
C3007 C 0.09158 0.41268 0.42725 0.0
C3008 C 0.10064 0.40492 0.4445 0.0
C3009 C 0.07629 0.42835 0.39362 0.0
C3010 C 0.08519 0.41998 0.38155 0.0
C3011 C 0.09233 0.41188 0.39846 0.0
C3012 C 0.08931 0.4216 0.35177 0.0
C3013 C 0.06874 0.43759 0.37638 0.0
C3014 C 0.0757 0.41378 0.33192 0.0
C3015 C 0.07994 0.4166 0.30387 0.0
C3016 C 0.09785 0.42729 0.2953 0.0
C3017 C 0.11143 0.43463 0.31535 0.0
C3018 C 0.10719 0.43178 0.34325 0.0
H3019 H 0.06458 0.44563 0.38908 0.0
H3020 H 0.07877 0.44658 0.36105 0.0
H3021 H 0.05683 0.42739 0.36497 0.0
H3022 H 0.06183 0.40568 0.33812 0.0
H3023 H 0.06916 0.41068 0.28896 0.0
H3024 H 0.57842 0.65866 0.28423 0.0
H3025 H 0.58401 0.65636 0.33317 0.0
H3026 H 0.55255 0.68084 0.35486 0.0
H3027 H 0.54707 0.68338 0.30638 0.0
H3028 H 0.58517 0.69413 0.3848 0.0
H3029 H 0.5444 0.61951 0.38475 0.0
H3030 H 0.56246 0.62988 0.36035 0.0
H3031 H 0.54336 0.63284 0.35694 0.0
C3032 C 0.5728 0.66367 0.29943 0.0
C3033 C 0.56216 0.67106 0.29137 0.0
C3034 C 0.57597 0.66229 0.32735 0.0
C3035 C 0.56853 0.66826 0.34757 0.0
C3036 C 0.55841 0.67614 0.33954 0.0
H3037 H 0.52836 0.64565 0.50656 0.0
H3038 H 0.53605 0.64829 0.45794 0.0
C3039 C 0.55523 0.67751 0.31178 0.0
C3040 C 0.57039 0.66572 0.37725 0.0
H3041 H 0.55417 0.63374 0.42746 0.0
C3042 C 0.57873 0.68094 0.39419 0.0
C3043 C 0.56188 0.64846 0.38929 0.0
C3044 C 0.55241 0.63168 0.37204 0.0
C3045 C 0.57795 0.67939 0.42297 0.0
C3046 C 0.56875 0.66215 0.43501 0.0
C3047 C 0.56126 0.64692 0.41807 0.0
C3048 C 0.56452 0.65972 0.46475 0.0
C3049 C 0.58593 0.69619 0.44026 0.0
C3050 C 0.57799 0.66506 0.48475 0.0
C3051 C 0.57364 0.66361 0.51276 0.0
C3052 C 0.55573 0.65679 0.52113 0.0
C3053 C 0.54229 0.65105 0.50093 0.0
C3054 C 0.54664 0.65248 0.47308 0.0
H3055 H 0.59052 0.70846 0.42759 0.0
H3056 H 0.57597 0.69548 0.45548 0.0
H3057 H 0.59761 0.69745 0.45182 0.0
H3058 H 0.59185 0.67049 0.47869 0.0
H3059 H 0.5843 0.66807 0.5278 0.0
H3060 H 0.29219 0.86247 0.30198 0.0
H3061 H 0.2938 0.86766 0.35154 0.0
H3062 H 0.34216 0.91861 0.34045 0.0
H3063 H 0.34 0.91385 0.29058 0.0
H3064 H 0.31839 0.86918 0.38277 0.0
H3065 H 0.31796 0.93271 0.39679 0.0
H3066 H 0.31215 0.92075 0.3645 0.0
H3067 H 0.33529 0.93531 0.37361 0.0
C3068 C 0.30295 0.87495 0.31009 0.0
C3069 C 0.31601 0.88774 0.29252 0.0
C3070 C 0.30386 0.87791 0.33841 0.0
C3071 C 0.31804 0.89359 0.34983 0.0
C3072 C 0.33084 0.90664 0.33218 0.0
H3073 H 0.35598 0.89221 0.5137 0.0
H3074 H 0.35283 0.89466 0.4642 0.0
C3075 C 0.32968 0.90384 0.30369 0.0
C3076 C 0.32043 0.89513 0.38017 0.0
H3077 H 0.32816 0.9227 0.43535 0.0
C3078 C 0.32034 0.88084 0.39422 0.0
C3079 C 0.32283 0.91025 0.39527 0.0
C3080 C 0.32187 0.92553 0.38179 0.0
C3081 C 0.32274 0.88126 0.42274 0.0
C3082 C 0.32613 0.89677 0.43764 0.0
C3083 C 0.32589 0.91097 0.4238 0.0
C3084 C 0.32974 0.89822 0.46764 0.0
C3085 C 0.32124 0.86487 0.43662 0.0
C3086 C 0.31858 0.90067 0.48607 0.0
C3087 C 0.32063 0.8997 0.51449 0.0
C3088 C 0.33375 0.89608 0.52478 0.0
C3089 C 0.34555 0.8947 0.50631 0.0
C3090 C 0.34371 0.89601 0.47803 0.0
H3091 H 0.31328 0.8526 0.42407 0.0
H3092 H 0.33484 0.86667 0.43925 0.0
H3093 H 0.31488 0.86271 0.4572 0.0
H3094 H 0.3078 0.90254 0.47847 0.0
H3095 H 0.31138 0.90086 0.52828 0.0
loop_
_geom_bond_atom_site_label_1
_geom_bond_atom_site_label_2
_geom_bond_distance
_geom_bond_site_symmetry_2
_ccdc_geom_bond_type
C0 O1 1.306 . S
C0 O3 1.160 . S
O1 C0 1.306 . S
O1 Cd2 2.228 . S
Cd2 O1 2.228 . S
Cd2 O6 2.273 . S
Cd2 O10 2.277 . S
O3 C0 1.160 . S
O3 Cd4 2.203 . S
Cd4 O3 2.203 . S
Cd4 O6 2.411 . S
Cd4 O7 2.333 . S
Cd4 O8 2.352 1_554 S
Cd4 O12 2.277 . S
Cd4 O13 2.356 . S
C5 O10 1.209 . S
C5 O12 1.226 . S
O6 Cd2 2.273 . S
O6 Cd4 2.411 . S
O6 C9 1.320 . S
O7 Cd4 2.333 . S
O7 C9 1.214 . S
O8 Cd4 2.352 1_556 S
O8 C11 1.258 1_556 S
C9 O6 1.320 . S
C9 O7 1.214 . S
O10 Cd2 2.277 . S
O10 C5 1.209 . S
C11 O8 1.258 1_554 S
C11 O13 1.282 . S
O12 Cd4 2.277 . S
O12 C5 1.226 . S
O13 Cd4 2.356 . S
O13 C11 1.282 . S
C14 O15 1.306 . S
C14 O17 1.160 . S
O15 C14 1.306 . S
O15 Cd16 2.228 1_565 S
Cd16 O15 2.228 1_545 S
Cd16 O20 2.273 . S
Cd16 O24 2.277 . S
O17 C14 1.160 . S
O17 Cd18 2.203 1_565 S
Cd18 O17 2.203 1_545 S
Cd18 O20 2.411 . S
Cd18 O21 2.333 . S
Cd18 O22 2.352 1_554 S
Cd18 O26 2.277 . S
Cd18 O27 2.356 . S
C19 O24 1.209 . S
C19 O26 1.226 . S
O20 Cd16 2.273 . S
O20 Cd18 2.411 . S
O20 C23 1.320 . S
O21 Cd18 2.333 . S
O21 C23 1.214 . S
O22 Cd18 2.352 1_556 S
O22 C25 1.258 1_556 S
C23 O20 1.320 . S
C23 O21 1.214 . S
O24 Cd16 2.277 . S
O24 C19 1.209 . S
C25 O22 1.258 1_554 S
C25 O27 1.282 . S
O26 Cd18 2.277 . S
O26 C19 1.226 . S
O27 Cd18 2.356 . S
O27 C25 1.282 . S
C28 O29 1.306 . S
C28 O31 1.160 . S
O29 C28 1.306 . S
O29 Cd30 2.228 1_455 S
Cd30 O29 2.228 1_655 S
Cd30 O34 2.273 . S
Cd30 O38 2.277 . S
O31 C28 1.160 . S
O31 Cd32 2.203 1_455 S
Cd32 O31 2.203 1_655 S
Cd32 O34 2.411 . S
Cd32 O35 2.333 . S
Cd32 O36 2.352 1_554 S
Cd32 O40 2.277 . S
Cd32 O41 2.356 . S
C33 O38 1.209 . S
C33 O40 1.226 . S
O34 Cd30 2.273 . S
O34 Cd32 2.411 . S
O34 C37 1.320 . S
O35 Cd32 2.333 . S
O35 C37 1.214 . S
O36 Cd32 2.352 1_556 S
O36 C39 1.258 1_556 S
C37 O34 1.320 . S
C37 O35 1.214 . S
O38 Cd30 2.277 . S
O38 C33 1.209 . S
C39 O36 1.258 1_554 S
C39 O41 1.282 . S
O40 Cd32 2.277 . S
O40 C33 1.226 . S
O41 Cd32 2.356 . S
O41 C39 1.282 . S
C42 O43 1.306 . S
C42 O45 1.160 . S
O43 C42 1.306 . S
O43 Cd44 2.228 . S
Cd44 O43 2.228 . S
Cd44 O48 2.273 . S
Cd44 O52 2.277 . S
O45 C42 1.160 . S
O45 Cd46 2.203 . S
Cd46 O45 2.203 . S
Cd46 O48 2.411 . S
Cd46 O49 2.333 . S
Cd46 O50 2.352 . S
Cd46 O54 2.277 . S
Cd46 O55 2.356 . S
C47 O52 1.209 . S
C47 O54 1.226 . S
O48 Cd44 2.273 . S
O48 Cd46 2.411 . S
O48 C51 1.320 . S
O49 Cd46 2.333 . S
O49 C51 1.214 . S
O50 Cd46 2.352 . S
O50 C53 1.258 . S
C51 O48 1.320 . S
C51 O49 1.214 . S
O52 Cd44 2.277 . S
O52 C47 1.209 . S
C53 O50 1.258 . S
C53 O55 1.282 . S
O54 Cd46 2.277 . S
O54 C47 1.226 . S
O55 Cd46 2.356 . S
O55 C53 1.282 . S
C56 O57 1.306 . S
C56 O59 1.160 . S
O57 C56 1.306 . S
O57 Cd58 2.228 1_545 S
Cd58 O57 2.228 1_565 S
Cd58 O62 2.273 . S
Cd58 O66 2.277 . S
O59 C56 1.160 . S
O59 Cd60 2.203 1_545 S
Cd60 O59 2.203 1_565 S
Cd60 O62 2.411 . S
Cd60 O63 2.333 . S
Cd60 O64 2.352 . S
Cd60 O68 2.277 . S
Cd60 O69 2.356 . S
C61 O66 1.209 . S
C61 O68 1.226 . S
O62 Cd58 2.273 . S
O62 Cd60 2.411 . S
O62 C65 1.320 . S
O63 Cd60 2.333 . S
O63 C65 1.214 . S
O64 Cd60 2.352 . S
O64 C67 1.258 . S
C65 O62 1.320 . S
C65 O63 1.214 . S
O66 Cd58 2.277 . S
O66 C61 1.209 . S
C67 O64 1.258 . S
C67 O69 1.282 . S
O68 Cd60 2.277 . S
O68 C61 1.226 . S
O69 Cd60 2.356 . S
O69 C67 1.282 . S
C70 O71 1.306 . S
C70 O73 1.160 . S
O71 C70 1.306 . S
O71 Cd72 2.228 1_655 S
Cd72 O71 2.228 1_455 S
Cd72 O76 2.273 . S
Cd72 O80 2.277 . S
O73 C70 1.160 . S
O73 Cd74 2.203 1_655 S
Cd74 O73 2.203 1_455 S
Cd74 O76 2.411 . S
Cd74 O77 2.333 . S
Cd74 O78 2.352 . S
Cd74 O82 2.277 . S
Cd74 O83 2.356 . S
C75 O80 1.209 . S
C75 O82 1.226 . S
O76 Cd72 2.273 . S
O76 Cd74 2.411 . S
O76 C79 1.320 . S
O77 Cd74 2.333 . S
O77 C79 1.214 . S
O78 Cd74 2.352 . S
O78 C81 1.258 . S
C79 O76 1.320 . S
C79 O77 1.214 . S
O80 Cd72 2.277 . S
O80 C75 1.209 . S
C81 O78 1.258 . S
C81 O83 1.282 . S
O82 Cd74 2.277 . S
O82 C75 1.226 . S
O83 Cd74 2.356 . S
O83 C81 1.282 . S
C84 O85 1.306 . S
C84 O87 1.160 . S
O85 C84 1.306 . S
O85 Cd86 2.228 . S
Cd86 O85 2.228 . S
Cd86 O90 2.273 . S
Cd86 O94 2.277 . S
O87 C84 1.160 . S
O87 Cd88 2.203 . S
Cd88 O87 2.203 . S
Cd88 O90 2.411 . S
Cd88 O91 2.333 . S
Cd88 O92 2.352 1_556 S
Cd88 O96 2.277 . S
Cd88 O97 2.356 . S
C89 O94 1.209 . S
C89 O96 1.226 . S
O90 Cd86 2.273 . S
O90 Cd88 2.411 . S
O90 C93 1.320 . S
O91 Cd88 2.333 . S
O91 C93 1.214 . S
O92 Cd88 2.352 1_554 S
O92 C95 1.258 1_554 S
C93 O90 1.320 . S
C93 O91 1.214 . S
O94 Cd86 2.277 . S
O94 C89 1.209 . S
C95 O92 1.258 1_556 S
C95 O97 1.282 . S
O96 Cd88 2.277 . S
O96 C89 1.226 . S
O97 Cd88 2.356 . S
O97 C95 1.282 . S
C98 O99 1.306 . S
C98 O101 1.160 . S
O99 C98 1.306 . S
O99 Cd100 2.228 1_545 S
Cd100 O99 2.228 1_565 S
Cd100 O104 2.273 . S
Cd100 O108 2.277 . S
O101 C98 1.160 . S
O101 Cd102 2.203 1_545 S
Cd102 O101 2.203 1_565 S
Cd102 O104 2.411 . S
Cd102 O105 2.333 . S
Cd102 O106 2.352 1_556 S
Cd102 O110 2.277 . S
Cd102 O111 2.356 . S
C103 O108 1.209 . S
C103 O110 1.226 . S
O104 Cd100 2.273 . S
O104 Cd102 2.411 . S
O104 C107 1.320 . S
O105 Cd102 2.333 . S
O105 C107 1.214 . S
O106 Cd102 2.352 1_554 S
O106 C109 1.258 1_554 S
C107 O104 1.320 . S
C107 O105 1.214 . S
O108 Cd100 2.277 . S
O108 C103 1.209 . S
C109 O106 1.258 1_556 S
C109 O111 1.282 . S
O110 Cd102 2.277 . S
O110 C103 1.226 . S
O111 Cd102 2.356 . S
O111 C109 1.282 . S
C112 O113 1.306 . S
C112 O115 1.160 . S
O113 C112 1.306 . S
O113 Cd114 2.228 1_655 S
Cd114 O113 2.228 1_455 S
Cd114 O118 2.273 . S
Cd114 O122 2.277 . S
O115 C112 1.160 . S
O115 Cd116 2.203 1_655 S
Cd116 O115 2.203 1_455 S
Cd116 O118 2.411 . S
Cd116 O119 2.333 . S
Cd116 O120 2.352 1_556 S
Cd116 O124 2.277 . S
Cd116 O125 2.356 . S
C117 O122 1.209 . S
C117 O124 1.226 . S
O118 Cd114 2.273 . S
O118 Cd116 2.411 . S
O118 C121 1.320 . S
O119 Cd116 2.333 . S
O119 C121 1.214 . S
O120 Cd116 2.352 1_554 S
O120 C123 1.258 1_554 S
C121 O118 1.320 . S
C121 O119 1.214 . S
O122 Cd114 2.277 . S
O122 C117 1.209 . S
C123 O120 1.258 1_556 S
C123 O125 1.282 . S
O124 Cd116 2.277 . S
O124 C117 1.226 . S
O125 Cd116 2.356 . S
O125 C123 1.282 . S
C126 O127 1.306 . S
C126 O129 1.160 . S
O127 C126 1.306 . S
O127 Cd128 2.228 . S
Cd128 O127 2.228 . S
Cd128 O132 2.273 . S
Cd128 O136 2.277 . S
O129 C126 1.160 . S
O129 Cd130 2.203 . S
Cd130 O129 2.203 . S
Cd130 O132 2.411 . S
Cd130 O133 2.333 . S
Cd130 O134 2.352 . S
Cd130 O138 2.277 . S
Cd130 O139 2.356 . S
C131 O136 1.209 . S
C131 O138 1.226 . S
O132 Cd128 2.273 . S
O132 Cd130 2.411 . S
O132 C135 1.320 . S
O133 Cd130 2.333 . S
O133 C135 1.214 . S
O134 Cd130 2.352 . S
O134 C137 1.258 . S
C135 O132 1.320 . S
C135 O133 1.214 . S
O136 Cd128 2.277 . S
O136 C131 1.209 . S
C137 O134 1.258 . S
C137 O139 1.282 . S
O138 Cd130 2.277 . S
O138 C131 1.226 . S
O139 Cd130 2.356 . S
O139 C137 1.282 . S
C140 O141 1.306 . S
C140 O143 1.160 . S
O141 C140 1.306 . S
O141 Cd142 2.228 1_565 S
Cd142 O141 2.228 1_545 S
Cd142 O146 2.273 . S
Cd142 O150 2.277 . S
O143 C140 1.160 . S
O143 Cd144 2.203 1_565 S
Cd144 O143 2.203 1_545 S
Cd144 O146 2.411 . S
Cd144 O147 2.333 . S
Cd144 O148 2.352 . S
Cd144 O152 2.277 . S
Cd144 O153 2.356 . S
C145 O150 1.209 . S
C145 O152 1.226 . S
O146 Cd142 2.273 . S
O146 Cd144 2.411 . S
O146 C149 1.320 . S
O147 Cd144 2.333 . S
O147 C149 1.214 . S
O148 Cd144 2.352 . S
O148 C151 1.258 . S
C149 O146 1.320 . S
C149 O147 1.214 . S
O150 Cd142 2.277 . S
O150 C145 1.209 . S
C151 O148 1.258 . S
C151 O153 1.282 . S
O152 Cd144 2.277 . S
O152 C145 1.226 . S
O153 Cd144 2.356 . S
O153 C151 1.282 . S
C154 O155 1.306 . S
C154 O157 1.160 . S
O155 C154 1.306 . S
O155 Cd156 2.228 1_455 S
Cd156 O155 2.228 1_655 S
Cd156 O160 2.273 . S
Cd156 O164 2.277 . S
O157 C154 1.160 . S
O157 Cd158 2.203 1_455 S
Cd158 O157 2.203 1_655 S
Cd158 O160 2.411 . S
Cd158 O161 2.333 . S
Cd158 O162 2.352 . S
Cd158 O166 2.277 . S
Cd158 O167 2.356 . S
C159 O164 1.209 . S
C159 O166 1.226 . S
O160 Cd156 2.273 . S
O160 Cd158 2.411 . S
O160 C163 1.320 . S
O161 Cd158 2.333 . S
O161 C163 1.214 . S
O162 Cd158 2.352 . S
O162 C165 1.258 . S
C163 O160 1.320 . S
C163 O161 1.214 . S
O164 Cd156 2.277 . S
O164 C159 1.209 . S
C165 O162 1.258 . S
C165 O167 1.282 . S
O166 Cd158 2.277 . S
O166 C159 1.226 . S
O167 Cd158 2.356 . S
O167 C165 1.282 . S
C168 O169 1.306 . S
C168 O171 1.160 . S
O169 C168 1.306 . S
O169 Cd170 2.228 . S
Cd170 O169 2.228 . S
Cd170 O174 2.273 . S
Cd170 O178 2.277 . S
O171 C168 1.160 . S
O171 Cd172 2.203 . S
Cd172 O171 2.203 . S
Cd172 O174 2.411 . S
Cd172 O175 2.333 . S
Cd172 O176 2.352 . S
Cd172 O180 2.277 . S
Cd172 O181 2.356 . S
C173 O178 1.209 . S
C173 O180 1.226 . S
O174 Cd170 2.273 . S
O174 Cd172 2.411 . S
O174 C177 1.320 . S
O175 Cd172 2.333 . S
O175 C177 1.214 . S
O176 Cd172 2.352 . S
O176 C179 1.258 . S
C177 O174 1.320 . S
C177 O175 1.214 . S
O178 Cd170 2.277 . S
O178 C173 1.209 . S
C179 O176 1.258 . S
C179 O181 1.282 . S
O180 Cd172 2.277 . S
O180 C173 1.226 . S
O181 Cd172 2.356 . S
O181 C179 1.282 . S
C182 O183 1.306 . S
C182 O185 1.160 . S
O183 C182 1.306 . S
O183 Cd184 2.228 . S
Cd184 O183 2.228 . S
Cd184 O188 2.273 . S
Cd184 O192 2.277 . S
O185 C182 1.160 . S
O185 Cd186 2.203 . S
Cd186 O185 2.203 . S
Cd186 O188 2.411 . S
Cd186 O189 2.333 . S
Cd186 O190 2.352 . S
Cd186 O194 2.277 . S
Cd186 O195 2.356 . S
C187 O192 1.209 . S
C187 O194 1.226 . S
O188 Cd184 2.273 . S
O188 Cd186 2.411 . S
O188 C191 1.320 . S
O189 Cd186 2.333 . S
O189 C191 1.214 . S
O190 Cd186 2.352 . S
O190 C193 1.258 . S
C191 O188 1.320 . S
C191 O189 1.214 . S
O192 Cd184 2.277 . S
O192 C187 1.209 . S
C193 O190 1.258 . S
C193 O195 1.282 . S
O194 Cd186 2.277 . S
O194 C187 1.226 . S
O195 Cd186 2.356 . S
O195 C193 1.282 . S
C196 O197 1.306 . S
C196 O199 1.160 . S
O197 C196 1.306 . S
O197 Cd198 2.228 . S
Cd198 O197 2.228 . S
Cd198 O202 2.273 . S
Cd198 O206 2.277 . S
O199 C196 1.160 . S
O199 Cd200 2.203 . S
Cd200 O199 2.203 . S
Cd200 O202 2.411 . S
Cd200 O203 2.333 . S
Cd200 O204 2.352 . S
Cd200 O208 2.277 . S
Cd200 O209 2.356 . S
C201 O206 1.209 . S
C201 O208 1.226 . S
O202 Cd198 2.273 . S
O202 Cd200 2.411 . S
O202 C205 1.320 . S
O203 Cd200 2.333 . S
O203 C205 1.214 . S
O204 Cd200 2.352 . S
O204 C207 1.258 . S
C205 O202 1.320 . S
C205 O203 1.214 . S
O206 Cd198 2.277 . S
O206 C201 1.209 . S
C207 O204 1.258 . S
C207 O209 1.282 . S
O208 Cd200 2.277 . S
O208 C201 1.226 . S
O209 Cd200 2.356 . S
O209 C207 1.282 . S
C210 O211 1.306 . S
C210 O213 1.160 . S
O211 C210 1.306 . S
O211 Cd212 2.228 . S
Cd212 O211 2.228 . S
Cd212 O216 2.273 . S
Cd212 O220 2.277 . S
O213 C210 1.160 . S
O213 Cd214 2.203 . S
Cd214 O213 2.203 . S
Cd214 O216 2.411 . S
Cd214 O217 2.333 . S
Cd214 O218 2.352 . S
Cd214 O222 2.277 . S
Cd214 O223 2.356 . S
C215 O220 1.209 . S
C215 O222 1.226 . S
O216 Cd212 2.273 . S
O216 Cd214 2.411 . S
O216 C219 1.320 . S
O217 Cd214 2.333 . S
O217 C219 1.214 . S
O218 Cd214 2.352 . S
O218 C221 1.258 . S
C219 O216 1.320 . S
C219 O217 1.214 . S
O220 Cd212 2.277 . S
O220 C215 1.209 . S
C221 O218 1.258 . S
C221 O223 1.282 . S
O222 Cd214 2.277 . S
O222 C215 1.226 . S
O223 Cd214 2.356 . S
O223 C221 1.282 . S
C224 O225 1.306 . S
C224 O227 1.160 . S
O225 C224 1.306 . S
O225 Cd226 2.228 . S
Cd226 O225 2.228 . S
Cd226 O230 2.273 . S
Cd226 O234 2.277 . S
O227 C224 1.160 . S
O227 Cd228 2.203 . S
Cd228 O227 2.203 . S
Cd228 O230 2.411 . S
Cd228 O231 2.333 . S
Cd228 O232 2.352 . S
Cd228 O236 2.277 . S
Cd228 O237 2.356 . S
C229 O234 1.209 . S
C229 O236 1.226 . S
O230 Cd226 2.273 . S
O230 Cd228 2.411 . S
O230 C233 1.320 . S
O231 Cd228 2.333 . S
O231 C233 1.214 . S
O232 Cd228 2.352 . S
O232 C235 1.258 . S
C233 O230 1.320 . S
C233 O231 1.214 . S
O234 Cd226 2.277 . S
O234 C229 1.209 . S
C235 O232 1.258 . S
C235 O237 1.282 . S
O236 Cd228 2.277 . S
O236 C229 1.226 . S
O237 Cd228 2.356 . S
O237 C235 1.282 . S
C238 O239 1.306 . S
C238 O241 1.160 . S
O239 C238 1.306 . S
O239 Cd240 2.228 . S
Cd240 O239 2.228 . S
Cd240 O244 2.273 . S
Cd240 O248 2.277 . S
O241 C238 1.160 . S
O241 Cd242 2.203 . S
Cd242 O241 2.203 . S
Cd242 O244 2.411 . S
Cd242 O245 2.333 . S
Cd242 O246 2.352 . S
Cd242 O250 2.277 . S
Cd242 O251 2.356 . S
C243 O248 1.209 . S
C243 O250 1.226 . S
O244 Cd240 2.273 . S
O244 Cd242 2.411 . S
O244 C247 1.320 . S
O245 Cd242 2.333 . S
O245 C247 1.214 . S
O246 Cd242 2.352 . S
O246 C249 1.258 . S
C247 O244 1.320 . S
C247 O245 1.214 . S
O248 Cd240 2.277 . S
O248 C243 1.209 . S
C249 O246 1.258 . S
C249 O251 1.282 . S
O250 Cd242 2.277 . S
O250 C243 1.226 . S
O251 Cd242 2.356 . S
O251 C249 1.282 . S
C252 O253 1.306 . S
C252 O255 1.160 . S
O253 C252 1.306 . S
O253 Cd254 2.228 . S
Cd254 O253 2.228 . S
Cd254 O258 2.273 . S
Cd254 O262 2.277 . S
O255 C252 1.160 . S
O255 Cd256 2.203 . S
Cd256 O255 2.203 . S
Cd256 O258 2.411 . S
Cd256 O259 2.333 . S
Cd256 O260 2.352 . S
Cd256 O264 2.277 . S
Cd256 O265 2.356 . S
C257 O262 1.209 . S
C257 O264 1.226 . S
O258 Cd254 2.273 . S
O258 Cd256 2.411 . S
O258 C261 1.320 . S
O259 Cd256 2.333 . S
O259 C261 1.214 . S
O260 Cd256 2.352 . S
O260 C263 1.258 . S
C261 O258 1.320 . S
C261 O259 1.214 . S
O262 Cd254 2.277 . S
O262 C257 1.209 . S
C263 O260 1.258 . S
C263 O265 1.282 . S
O264 Cd256 2.277 . S
O264 C257 1.226 . S
O265 Cd256 2.356 . S
O265 C263 1.282 . S
C266 O267 1.306 . S
C266 O269 1.160 . S
O267 C266 1.306 . S
O267 Cd268 2.228 . S
Cd268 O267 2.228 . S
Cd268 O272 2.273 . S
Cd268 O276 2.277 . S
O269 C266 1.160 . S
O269 Cd270 2.203 . S
Cd270 O269 2.203 . S
Cd270 O272 2.411 . S
Cd270 O273 2.333 . S
Cd270 O274 2.352 . S
Cd270 O278 2.277 . S
Cd270 O279 2.356 . S
C271 O276 1.209 . S
C271 O278 1.226 . S
O272 Cd268 2.273 . S
O272 Cd270 2.411 . S
O272 C275 1.320 . S
O273 Cd270 2.333 . S
O273 C275 1.214 . S
O274 Cd270 2.352 . S
O274 C277 1.258 . S
C275 O272 1.320 . S
C275 O273 1.214 . S
O276 Cd268 2.277 . S
O276 C271 1.209 . S
C277 O274 1.258 . S
C277 O279 1.282 . S
O278 Cd270 2.277 . S
O278 C271 1.226 . S
O279 Cd270 2.356 . S
O279 C277 1.282 . S
C280 O281 1.306 . S
C280 O283 1.160 . S
O281 C280 1.306 . S
O281 Cd282 2.228 . S
Cd282 O281 2.228 . S
Cd282 O286 2.273 . S
Cd282 O290 2.277 . S
O283 C280 1.160 . S
O283 Cd284 2.203 . S
Cd284 O283 2.203 . S
Cd284 O286 2.411 . S
Cd284 O287 2.333 . S
Cd284 O288 2.352 . S
Cd284 O292 2.277 . S
Cd284 O293 2.356 . S
C285 O290 1.209 . S
C285 O292 1.226 . S
O286 Cd282 2.273 . S
O286 Cd284 2.411 . S
O286 C289 1.320 . S
O287 Cd284 2.333 . S
O287 C289 1.214 . S
O288 Cd284 2.352 . S
O288 C291 1.258 . S
C289 O286 1.320 . S
C289 O287 1.214 . S
O290 Cd282 2.277 . S
O290 C285 1.209 . S
C291 O288 1.258 . S
C291 O293 1.282 . S
O292 Cd284 2.277 . S
O292 C285 1.226 . S
O293 Cd284 2.356 . S
O293 C291 1.282 . S
C294 O295 1.306 . S
C294 O297 1.160 . S
O295 C294 1.306 . S
O295 Cd296 2.228 . S
Cd296 O295 2.228 . S
Cd296 O300 2.273 . S
Cd296 O304 2.277 . S
O297 C294 1.160 . S
O297 Cd298 2.203 . S
Cd298 O297 2.203 . S
Cd298 O300 2.411 . S
Cd298 O301 2.333 . S
Cd298 O302 2.352 . S
Cd298 O306 2.277 . S
Cd298 O307 2.356 . S
C299 O304 1.209 . S
C299 O306 1.226 . S
O300 Cd296 2.273 . S
O300 Cd298 2.411 . S
O300 C303 1.320 . S
O301 Cd298 2.333 . S
O301 C303 1.214 . S
O302 Cd298 2.352 . S
O302 C305 1.258 . S
C303 O300 1.320 . S
C303 O301 1.214 . S
O304 Cd296 2.277 . S
O304 C299 1.209 . S
C305 O302 1.258 . S
C305 O307 1.282 . S
O306 Cd298 2.277 . S
O306 C299 1.226 . S
O307 Cd298 2.356 . S
O307 C305 1.282 . S
C308 O309 1.306 . S
C308 O311 1.160 . S
O309 C308 1.306 . S
O309 Cd310 2.228 . S
Cd310 O309 2.228 . S
Cd310 O314 2.273 . S
Cd310 O318 2.277 . S
O311 C308 1.160 . S
O311 Cd312 2.203 . S
Cd312 O311 2.203 . S
Cd312 O314 2.411 . S
Cd312 O315 2.333 . S
Cd312 O316 2.352 . S
Cd312 O320 2.277 . S
Cd312 O321 2.356 . S
C313 O318 1.209 . S
C313 O320 1.226 . S
O314 Cd310 2.273 . S
O314 Cd312 2.411 . S
O314 C317 1.320 . S
O315 Cd312 2.333 . S
O315 C317 1.214 . S
O316 Cd312 2.352 . S
O316 C319 1.258 . S
C317 O314 1.320 . S
C317 O315 1.214 . S
O318 Cd310 2.277 . S
O318 C313 1.209 . S
C319 O316 1.258 . S
C319 O321 1.282 . S
O320 Cd312 2.277 . S
O320 C313 1.226 . S
O321 Cd312 2.356 . S
O321 C319 1.282 . S
C322 O323 1.306 . S
C322 O325 1.160 . S
O323 C322 1.306 . S
O323 Cd324 2.228 . S
Cd324 O323 2.228 . S
Cd324 O328 2.273 . S
Cd324 O332 2.277 . S
O325 C322 1.160 . S
O325 Cd326 2.203 . S
Cd326 O325 2.203 . S
Cd326 O328 2.411 . S
Cd326 O329 2.333 . S
Cd326 O330 2.352 . S
Cd326 O334 2.277 . S
Cd326 O335 2.356 . S
C327 O332 1.209 . S
C327 O334 1.226 . S
O328 Cd324 2.273 . S
O328 Cd326 2.411 . S
O328 C331 1.320 . S
O329 Cd326 2.333 . S
O329 C331 1.214 . S
O330 Cd326 2.352 . S
O330 C333 1.258 . S
C331 O328 1.320 . S
C331 O329 1.214 . S
O332 Cd324 2.277 . S
O332 C327 1.209 . S
C333 O330 1.258 . S
C333 O335 1.282 . S
O334 Cd326 2.277 . S
O334 C327 1.226 . S
O335 Cd326 2.356 . S
O335 C333 1.282 . S
C336 O337 1.306 . S
C336 O339 1.160 . S
O337 C336 1.306 . S
O337 Cd338 2.228 . S
Cd338 O337 2.228 . S
Cd338 O342 2.273 . S
Cd338 O346 2.277 . S
O339 C336 1.160 . S
O339 Cd340 2.203 . S
Cd340 O339 2.203 . S
Cd340 O342 2.411 . S
Cd340 O343 2.333 . S
Cd340 O344 2.352 . S
Cd340 O348 2.277 . S
Cd340 O349 2.356 . S
C341 O346 1.209 . S
C341 O348 1.226 . S
O342 Cd338 2.273 . S
O342 Cd340 2.411 . S
O342 C345 1.320 . S
O343 Cd340 2.333 . S
O343 C345 1.214 . S
O344 Cd340 2.352 . S
O344 C347 1.258 . S
C345 O342 1.320 . S
C345 O343 1.214 . S
O346 Cd338 2.277 . S
O346 C341 1.209 . S
C347 O344 1.258 . S
C347 O349 1.282 . S
O348 Cd340 2.277 . S
O348 C341 1.226 . S
O349 Cd340 2.356 . S
O349 C347 1.282 . S
C350 O351 1.306 . S
C350 O353 1.160 . S
O351 C350 1.306 . S
O351 Cd352 2.228 . S
Cd352 O351 2.228 . S
Cd352 O356 2.273 . S
Cd352 O360 2.277 . S
O353 C350 1.160 . S
O353 Cd354 2.203 . S
Cd354 O353 2.203 . S
Cd354 O356 2.411 . S
Cd354 O357 2.333 . S
Cd354 O358 2.352 . S
Cd354 O362 2.277 . S
Cd354 O363 2.356 . S
C355 O360 1.209 . S
C355 O362 1.226 . S
O356 Cd352 2.273 . S
O356 Cd354 2.411 . S
O356 C359 1.320 . S
O357 Cd354 2.333 . S
O357 C359 1.214 . S
O358 Cd354 2.352 . S
O358 C361 1.258 . S
C359 O356 1.320 . S
C359 O357 1.214 . S
O360 Cd352 2.277 . S
O360 C355 1.209 . S
C361 O358 1.258 . S
C361 O363 1.282 . S
O362 Cd354 2.277 . S
O362 C355 1.226 . S
O363 Cd354 2.356 . S
O363 C361 1.282 . S
C364 O365 1.306 . S
C364 O367 1.160 . S
O365 C364 1.306 . S
O365 Cd366 2.228 . S
Cd366 O365 2.228 . S
Cd366 O370 2.273 . S
Cd366 O374 2.277 . S
O367 C364 1.160 . S
O367 Cd368 2.203 . S
Cd368 O367 2.203 . S
Cd368 O370 2.411 . S
Cd368 O371 2.333 . S
Cd368 O372 2.352 . S
Cd368 O376 2.277 . S
Cd368 O377 2.356 . S
C369 O374 1.209 . S
C369 O376 1.226 . S
O370 Cd366 2.273 . S
O370 Cd368 2.411 . S
O370 C373 1.320 . S
O371 Cd368 2.333 . S
O371 C373 1.214 . S
O372 Cd368 2.352 . S
O372 C375 1.258 . S
C373 O370 1.320 . S
C373 O371 1.214 . S
O374 Cd366 2.277 . S
O374 C369 1.209 . S
C375 O372 1.258 . S
C375 O377 1.282 . S
O376 Cd368 2.277 . S
O376 C369 1.226 . S
O377 Cd368 2.356 . S
O377 C375 1.282 . S
C378 O379 1.306 . S
C378 O381 1.160 . S
O379 C378 1.306 . S
O379 Cd380 2.228 . S
Cd380 O379 2.228 . S
Cd380 O384 2.273 . S
Cd380 O388 2.277 . S
O381 C378 1.160 . S
O381 Cd382 2.203 . S
Cd382 O381 2.203 . S
Cd382 O384 2.411 . S
Cd382 O385 2.333 . S
Cd382 O386 2.352 . S
Cd382 O390 2.277 . S
Cd382 O391 2.356 . S
C383 O388 1.209 . S
C383 O390 1.226 . S
O384 Cd380 2.273 . S
O384 Cd382 2.411 . S
O384 C387 1.320 . S
O385 Cd382 2.333 . S
O385 C387 1.214 . S
O386 Cd382 2.352 . S
O386 C389 1.258 . S
C387 O384 1.320 . S
C387 O385 1.214 . S
O388 Cd380 2.277 . S
O388 C383 1.209 . S
C389 O386 1.258 . S
C389 O391 1.282 . S
O390 Cd382 2.277 . S
O390 C383 1.226 . S
O391 Cd382 2.356 . S
O391 C389 1.282 . S
C392 O393 1.306 . S
C392 O395 1.160 . S
O393 C392 1.306 . S
O393 Cd394 2.228 . S
Cd394 O393 2.228 . S
Cd394 O398 2.273 . S
Cd394 O402 2.277 . S
O395 C392 1.160 . S
O395 Cd396 2.203 . S
Cd396 O395 2.203 . S
Cd396 O398 2.411 . S
Cd396 O399 2.333 . S
Cd396 O400 2.352 . S
Cd396 O404 2.277 . S
Cd396 O405 2.356 . S
C397 O402 1.209 . S
C397 O404 1.226 . S
O398 Cd394 2.273 . S
O398 Cd396 2.411 . S
O398 C401 1.320 . S
O399 Cd396 2.333 . S
O399 C401 1.214 . S
O400 Cd396 2.352 . S
O400 C403 1.258 . S
C401 O398 1.320 . S
C401 O399 1.214 . S
O402 Cd394 2.277 . S
O402 C397 1.209 . S
C403 O400 1.258 . S
C403 O405 1.282 . S
O404 Cd396 2.277 . S
O404 C397 1.226 . S
O405 Cd396 2.356 . S
O405 C403 1.282 . S
C406 O407 1.306 . S
C406 O409 1.160 . S
O407 C406 1.306 . S
O407 Cd408 2.228 . S
Cd408 O407 2.228 . S
Cd408 O412 2.273 . S
Cd408 O416 2.277 . S
O409 C406 1.160 . S
O409 Cd410 2.203 . S
Cd410 O409 2.203 . S
Cd410 O412 2.411 . S
Cd410 O413 2.333 . S
Cd410 O414 2.352 . S
Cd410 O418 2.277 . S
Cd410 O419 2.356 . S
C411 O416 1.209 . S
C411 O418 1.226 . S
O412 Cd408 2.273 . S
O412 Cd410 2.411 . S
O412 C415 1.320 . S
O413 Cd410 2.333 . S
O413 C415 1.214 . S
O414 Cd410 2.352 . S
O414 C417 1.258 . S
C415 O412 1.320 . S
C415 O413 1.214 . S
O416 Cd408 2.277 . S
O416 C411 1.209 . S
C417 O414 1.258 . S
C417 O419 1.282 . S
O418 Cd410 2.277 . S
O418 C411 1.226 . S
O419 Cd410 2.356 . S
O419 C417 1.282 . S
C420 O421 1.306 . S
C420 O423 1.160 . S
O421 C420 1.306 . S
O421 Cd422 2.228 . S
Cd422 O421 2.228 . S
Cd422 O426 2.273 . S
Cd422 O430 2.277 . S
O423 C420 1.160 . S
O423 Cd424 2.203 . S
Cd424 O423 2.203 . S
Cd424 O426 2.411 . S
Cd424 O427 2.333 . S
Cd424 O428 2.352 . S
Cd424 O432 2.277 . S
Cd424 O433 2.356 . S
C425 O430 1.209 . S
C425 O432 1.226 . S
O426 Cd422 2.273 . S
O426 Cd424 2.411 . S
O426 C429 1.320 . S
O427 Cd424 2.333 . S
O427 C429 1.214 . S
O428 Cd424 2.352 . S
O428 C431 1.258 . S
C429 O426 1.320 . S
C429 O427 1.214 . S
O430 Cd422 2.277 . S
O430 C425 1.209 . S
C431 O428 1.258 . S
C431 O433 1.282 . S
O432 Cd424 2.277 . S
O432 C425 1.226 . S
O433 Cd424 2.356 . S
O433 C431 1.282 . S
C434 O435 1.306 . S
C434 O437 1.160 . S
O435 C434 1.306 . S
O435 Cd436 2.228 . S
Cd436 O435 2.228 . S
Cd436 O440 2.273 . S
Cd436 O444 2.277 . S
O437 C434 1.160 . S
O437 Cd438 2.203 . S
Cd438 O437 2.203 . S
Cd438 O440 2.411 . S
Cd438 O441 2.333 . S
Cd438 O442 2.352 . S
Cd438 O446 2.277 . S
Cd438 O447 2.356 . S
C439 O444 1.209 . S
C439 O446 1.226 . S
O440 Cd436 2.273 . S
O440 Cd438 2.411 . S
O440 C443 1.320 . S
O441 Cd438 2.333 . S
O441 C443 1.214 . S
O442 Cd438 2.352 . S
O442 C445 1.258 . S
C443 O440 1.320 . S
C443 O441 1.214 . S
O444 Cd436 2.277 . S
O444 C439 1.209 . S
C445 O442 1.258 . S
C445 O447 1.282 . S
O446 Cd438 2.277 . S
O446 C439 1.226 . S
O447 Cd438 2.356 . S
O447 C445 1.282 . S
C448 O449 1.306 . S
C448 O451 1.160 . S
O449 C448 1.306 . S
O449 Cd450 2.228 . S
Cd450 O449 2.228 . S
Cd450 O454 2.273 . S
Cd450 O458 2.277 . S
O451 C448 1.160 . S
O451 Cd452 2.203 . S
Cd452 O451 2.203 . S
Cd452 O454 2.411 . S
Cd452 O455 2.333 . S
Cd452 O456 2.352 . S
Cd452 O460 2.277 . S
Cd452 O461 2.356 . S
C453 O458 1.209 . S
C453 O460 1.226 . S
O454 Cd450 2.273 . S
O454 Cd452 2.411 . S
O454 C457 1.320 . S
O455 Cd452 2.333 . S
O455 C457 1.214 . S
O456 Cd452 2.352 . S
O456 C459 1.258 . S
C457 O454 1.320 . S
C457 O455 1.214 . S
O458 Cd450 2.277 . S
O458 C453 1.209 . S
C459 O456 1.258 . S
C459 O461 1.282 . S
O460 Cd452 2.277 . S
O460 C453 1.226 . S
O461 Cd452 2.356 . S
O461 C459 1.282 . S
C462 O463 1.306 . S
C462 O465 1.160 . S
O463 C462 1.306 . S
O463 Cd464 2.228 . S
Cd464 O463 2.228 . S
Cd464 O468 2.273 . S
Cd464 O472 2.277 . S
O465 C462 1.160 . S
O465 Cd466 2.203 . S
Cd466 O465 2.203 . S
Cd466 O468 2.411 . S
Cd466 O469 2.333 . S
Cd466 O470 2.352 . S
Cd466 O474 2.277 . S
Cd466 O475 2.356 . S
C467 O472 1.209 . S
C467 O474 1.226 . S
O468 Cd464 2.273 . S
O468 Cd466 2.411 . S
O468 C471 1.320 . S
O469 Cd466 2.333 . S
O469 C471 1.214 . S
O470 Cd466 2.352 . S
O470 C473 1.258 . S
C471 O468 1.320 . S
C471 O469 1.214 . S
O472 Cd464 2.277 . S
O472 C467 1.209 . S
C473 O470 1.258 . S
C473 O475 1.282 . S
O474 Cd466 2.277 . S
O474 C467 1.226 . S
O475 Cd466 2.356 . S
O475 C473 1.282 . S
C476 O477 1.306 . S
C476 O479 1.160 . S
O477 C476 1.306 . S
O477 Cd478 2.228 . S
Cd478 O477 2.228 . S
Cd478 O482 2.273 . S
Cd478 O486 2.277 . S
O479 C476 1.160 . S
O479 Cd480 2.203 . S
Cd480 O479 2.203 . S
Cd480 O482 2.411 . S
Cd480 O483 2.333 . S
Cd480 O484 2.352 . S
Cd480 O488 2.277 . S
Cd480 O489 2.356 . S
C481 O486 1.209 . S
C481 O488 1.226 . S
O482 Cd478 2.273 . S
O482 Cd480 2.411 . S
O482 C485 1.320 . S
O483 Cd480 2.333 . S
O483 C485 1.214 . S
O484 Cd480 2.352 . S
O484 C487 1.258 . S
C485 O482 1.320 . S
C485 O483 1.214 . S
O486 Cd478 2.277 . S
O486 C481 1.209 . S
C487 O484 1.258 . S
C487 O489 1.282 . S
O488 Cd480 2.277 . S
O488 C481 1.226 . S
O489 Cd480 2.356 . S
O489 C487 1.282 . S
C490 O491 1.306 . S
C490 O493 1.160 . S
O491 C490 1.306 . S
O491 Cd492 2.228 . S
Cd492 O491 2.228 . S
Cd492 O496 2.273 . S
Cd492 O500 2.277 . S
O493 C490 1.160 . S
O493 Cd494 2.203 . S
Cd494 O493 2.203 . S
Cd494 O496 2.411 . S
Cd494 O497 2.333 . S
Cd494 O498 2.352 . S
Cd494 O502 2.277 . S
Cd494 O503 2.356 . S
C495 O500 1.209 . S
C495 O502 1.226 . S
O496 Cd492 2.273 . S
O496 Cd494 2.411 . S
O496 C499 1.320 . S
O497 Cd494 2.333 . S
O497 C499 1.214 . S
O498 Cd494 2.352 . S
O498 C501 1.258 . S
C499 O496 1.320 . S
C499 O497 1.214 . S
O500 Cd492 2.277 . S
O500 C495 1.209 . S
C501 O498 1.258 . S
C501 O503 1.282 . S
O502 Cd494 2.277 . S
O502 C495 1.226 . S
O503 Cd494 2.356 . S
O503 C501 1.282 . S
H504 C512 0.929 . S
H505 C514 0.930 . S
H506 C516 0.930 . S
H507 C519 0.929 . S
H508 C522 0.930 . S
H509 C524 0.960 . S
H510 C524 0.960 . S
H511 C524 0.960 . S
C512 H504 0.929 . S
C512 C513 1.377 . S
C512 C514 1.384 . S
C513 C512 1.377 . S
C513 C519 1.390 . S
C514 H505 0.930 . S
C514 C512 1.384 . S
C514 C515 1.372 . S
C515 C514 1.372 . S
C515 C516 1.400 . S
C515 C520 1.490 . S
C516 H506 0.930 . S
C516 C515 1.400 . S
C516 C519 1.386 . S
H517 C533 0.930 . S
H518 C534 0.931 . S
C519 H507 0.929 . S
C519 C513 1.390 . S
C519 C516 1.386 . S
C520 C515 1.490 . S
C520 C522 1.395 . S
C520 C523 1.403 . S
H521 C527 0.930 . S
C522 H508 0.930 . S
C522 C520 1.395 . S
C522 C525 1.403 . S
C523 C520 1.403 . S
C523 C524 1.524 . S
C523 C527 1.400 . S
C524 H509 0.960 . S
C524 H510 0.960 . S
C524 H511 0.960 . S
C524 C523 1.524 . S
C525 C522 1.403 . S
C525 C526 1.392 . S
C525 C529 1.495 . S
C526 C525 1.392 . S
C526 C527 1.385 . S
C526 C528 1.478 . S
C527 H521 0.930 . S
C527 C523 1.400 . S
C527 C526 1.385 . S
C528 C526 1.478 . S
C528 C530 1.381 . S
C528 C534 1.383 . S
C529 C525 1.495 . S
C529 H535 0.959 . S
C529 H536 0.961 . S
C529 H537 0.960 . S
C530 C528 1.381 . S
C530 C531 1.394 . S
C530 H538 0.930 . S
C531 C530 1.394 . S
C531 C532 1.383 . S
C531 H539 0.929 1_556 S
C532 C531 1.383 . S
C532 C533 1.377 . S
C533 H517 0.930 . S
C533 C532 1.377 . S
C533 C534 1.379 . S
C534 H518 0.931 . S
C534 C528 1.383 . S
C534 C533 1.379 . S
H535 C529 0.959 . S
H536 C529 0.961 . S
H537 C529 0.960 . S
H538 C530 0.930 . S
H539 C531 0.929 1_554 S
H540 C548 0.929 . S
H541 C550 0.930 . S
H542 C552 0.930 . S
H543 C555 0.929 . S
H544 C558 0.930 . S
H545 C560 0.960 . S
H546 C560 0.960 . S
H547 C560 0.960 . S
C548 H540 0.929 . S
C548 C549 1.377 . S
C548 C550 1.384 . S
C549 C548 1.377 . S
C549 C555 1.390 . S
C550 H541 0.930 . S
C550 C548 1.384 . S
C550 C551 1.372 . S
C551 C550 1.372 . S
C551 C552 1.400 . S
C551 C556 1.490 . S
C552 H542 0.930 . S
C552 C551 1.400 . S
C552 C555 1.386 . S
H553 C569 0.930 1_554 S
H554 C570 0.931 . S
C555 H543 0.929 . S
C555 C549 1.390 . S
C555 C552 1.386 . S
C556 C551 1.490 . S
C556 C558 1.395 . S
C556 C559 1.403 . S
H557 C563 0.930 . S
C558 H544 0.930 . S
C558 C556 1.395 . S
C558 C561 1.403 . S
C559 C556 1.403 . S
C559 C560 1.524 . S
C559 C563 1.400 . S
C560 H545 0.960 . S
C560 H546 0.960 . S
C560 H547 0.960 . S
C560 C559 1.524 . S
C561 C558 1.403 . S
C561 C562 1.392 . S
C561 C565 1.495 . S
C562 C561 1.392 . S
C562 C563 1.385 . S
C562 C564 1.478 . S
C563 H557 0.930 . S
C563 C559 1.400 . S
C563 C562 1.385 . S
C564 C562 1.478 . S
C564 C566 1.381 . S
C564 C570 1.383 . S
C565 C561 1.495 . S
C565 H571 0.959 . S
C565 H572 0.961 . S
C565 H573 0.960 . S
C566 C564 1.381 . S
C566 C567 1.394 . S
C566 H574 0.930 . S
C567 C566 1.394 . S
C567 C568 1.383 . S
C567 H575 0.929 . S
C568 C567 1.383 . S
C568 C569 1.377 . S
C569 H553 0.930 1_556 S
C569 C568 1.377 . S
C569 C570 1.379 . S
C570 H554 0.931 . S
C570 C564 1.383 . S
C570 C569 1.379 . S
H571 C565 0.959 . S
H572 C565 0.961 . S
H573 C565 0.960 . S
H574 C566 0.930 . S
H575 C567 0.929 . S
H576 C584 0.929 . S
H577 C586 0.930 . S
H578 C588 0.930 . S
H579 C591 0.929 . S
H580 C594 0.930 . S
H581 C596 0.960 . S
H582 C596 0.960 . S
H583 C596 0.960 . S
C584 H576 0.929 . S
C584 C585 1.377 . S
C584 C586 1.384 . S
C585 C584 1.377 . S
C585 C591 1.390 . S
C586 H577 0.930 . S
C586 C584 1.384 . S
C586 C587 1.372 . S
C587 C586 1.372 . S
C587 C588 1.400 . S
C587 C592 1.490 . S
C588 H578 0.930 . S
C588 C587 1.400 . S
C588 C591 1.386 . S
H589 C605 0.930 . S
H590 C606 0.931 . S
C591 H579 0.929 . S
C591 C585 1.390 . S
C591 C588 1.386 . S
C592 C587 1.490 . S
C592 C594 1.395 . S
C592 C595 1.403 . S
H593 C599 0.930 . S
C594 H580 0.930 . S
C594 C592 1.395 . S
C594 C597 1.403 . S
C595 C592 1.403 . S
C595 C596 1.524 . S
C595 C599 1.400 . S
C596 H581 0.960 . S
C596 H582 0.960 . S
C596 H583 0.960 . S
C596 C595 1.524 . S
C597 C594 1.403 . S
C597 C598 1.392 . S
C597 C601 1.495 . S
C598 C597 1.392 . S
C598 C599 1.385 . S
C598 C600 1.478 . S
C599 H593 0.930 . S
C599 C595 1.400 . S
C599 C598 1.385 . S
C600 C598 1.478 . S
C600 C602 1.381 . S
C600 C606 1.383 . S
C601 C597 1.495 . S
C601 H607 0.959 . S
C601 H608 0.961 . S
C601 H609 0.960 . S
C602 C600 1.381 . S
C602 C603 1.394 . S
C602 H610 0.930 . S
C603 C602 1.394 . S
C603 C604 1.383 . S
C603 H611 0.929 . S
C604 C603 1.383 . S
C604 C605 1.377 . S
C605 H589 0.930 . S
C605 C604 1.377 . S
C605 C606 1.379 . S
C606 H590 0.931 . S
C606 C600 1.383 . S
C606 C605 1.379 . S
H607 C601 0.959 . S
H608 C601 0.961 . S
H609 C601 0.960 . S
H610 C602 0.930 . S
H611 C603 0.929 . S
H612 C620 0.929 . S
H613 C622 0.930 . S
H614 C624 0.930 . S
H615 C627 0.929 . S
H616 C630 0.930 . S
H617 C632 0.960 . S
H618 C632 0.960 . S
H619 C632 0.960 . S
C620 H612 0.929 . S
C620 C621 1.377 . S
C620 C622 1.384 . S
C621 C620 1.377 . S
C621 C627 1.390 . S
C622 H613 0.930 . S
C622 C620 1.384 . S
C622 C623 1.372 . S
C623 C622 1.372 . S
C623 C624 1.400 . S
C623 C628 1.490 . S
C624 H614 0.930 . S
C624 C623 1.400 . S
C624 C627 1.386 . S
H625 C641 0.930 . S
H626 C642 0.931 . S
C627 H615 0.929 . S
C627 C621 1.390 . S
C627 C624 1.386 . S
C628 C623 1.490 . S
C628 C630 1.395 . S
C628 C631 1.403 . S
H629 C635 0.930 . S
C630 H616 0.930 . S
C630 C628 1.395 . S
C630 C633 1.403 . S
C631 C628 1.403 . S
C631 C632 1.524 . S
C631 C635 1.400 . S
C632 H617 0.960 . S
C632 H618 0.960 . S
C632 H619 0.960 . S
C632 C631 1.524 . S
C633 C630 1.403 . S
C633 C634 1.392 . S
C633 C637 1.495 . S
C634 C633 1.392 . S
C634 C635 1.385 . S
C634 C636 1.478 . S
C635 H629 0.930 . S
C635 C631 1.400 . S
C635 C634 1.385 . S
C636 C634 1.478 . S
C636 C638 1.381 . S
C636 C642 1.383 . S
C637 C633 1.495 . S
C637 H643 0.959 . S
C637 H644 0.961 . S
C637 H645 0.960 . S
C638 C636 1.381 . S
C638 C639 1.394 . S
C638 H646 0.930 . S
C639 C638 1.394 . S
C639 C640 1.383 . S
C639 H647 0.929 . S
C640 C639 1.383 . S
C640 C641 1.377 . S
C641 H625 0.930 . S
C641 C640 1.377 . S
C641 C642 1.379 . S
C642 H626 0.931 . S
C642 C636 1.383 . S
C642 C641 1.379 . S
H643 C637 0.959 . S
H644 C637 0.961 . S
H645 C637 0.960 . S
H646 C638 0.930 . S
H647 C639 0.929 . S
H648 C656 0.929 . S
H649 C658 0.930 . S
H650 C660 0.930 . S
H651 C663 0.929 . S
H652 C666 0.930 . S
H653 C668 0.960 . S
H654 C668 0.960 . S
H655 C668 0.960 . S
C656 H648 0.929 . S
C656 C657 1.377 . S
C656 C658 1.384 . S
C657 C656 1.377 . S
C657 C663 1.390 . S
C658 H649 0.930 . S
C658 C656 1.384 . S
C658 C659 1.372 . S
C659 C658 1.372 . S
C659 C660 1.400 . S
C659 C664 1.490 . S
C660 H650 0.930 . S
C660 C659 1.400 . S
C660 C663 1.386 . S
H661 C677 0.930 . S
H662 C678 0.931 . S
C663 H651 0.929 . S
C663 C657 1.390 . S
C663 C660 1.386 . S
C664 C659 1.490 . S
C664 C666 1.395 . S
C664 C667 1.403 . S
H665 C671 0.930 . S
C666 H652 0.930 . S
C666 C664 1.395 . S
C666 C669 1.403 . S
C667 C664 1.403 . S
C667 C668 1.524 . S
C667 C671 1.400 . S
C668 H653 0.960 . S
C668 H654 0.960 . S
C668 H655 0.960 . S
C668 C667 1.524 . S
C669 C666 1.403 . S
C669 C670 1.392 . S
C669 C673 1.495 . S
C670 C669 1.392 . S
C670 C671 1.385 . S
C670 C672 1.478 . S
C671 H665 0.930 . S
C671 C667 1.400 . S
C671 C670 1.385 . S
C672 C670 1.478 . S
C672 C674 1.381 . S
C672 C678 1.383 . S
C673 C669 1.495 . S
C673 H679 0.959 . S
C673 H680 0.961 . S
C673 H681 0.960 . S
C674 C672 1.381 . S
C674 C675 1.394 . S
C674 H682 0.930 . S
C675 C674 1.394 . S
C675 C676 1.383 . S
C675 H683 0.929 . S
C676 C675 1.383 . S
C676 C677 1.377 . S
C677 H661 0.930 . S
C677 C676 1.377 . S
C677 C678 1.379 . S
C678 H662 0.931 . S
C678 C672 1.383 . S
C678 C677 1.379 . S
H679 C673 0.959 . S
H680 C673 0.961 . S
H681 C673 0.960 . S
H682 C674 0.930 . S
H683 C675 0.929 . S
H684 C692 0.929 . S
H685 C694 0.930 . S
H686 C696 0.930 . S
H687 C699 0.929 . S
H688 C702 0.930 . S
H689 C704 0.960 . S
H690 C704 0.960 . S
H691 C704 0.960 . S
C692 H684 0.929 . S
C692 C693 1.377 . S
C692 C694 1.384 . S
C693 C692 1.377 . S
C693 C699 1.390 . S
C694 H685 0.930 . S
C694 C692 1.384 . S
C694 C695 1.372 . S
C695 C694 1.372 . S
C695 C696 1.400 . S
C695 C700 1.490 . S
C696 H686 0.930 . S
C696 C695 1.400 . S
C696 C699 1.386 . S
H697 C713 0.930 . S
H698 C714 0.931 . S
C699 H687 0.929 . S
C699 C693 1.390 . S
C699 C696 1.386 . S
C700 C695 1.490 . S
C700 C702 1.395 . S
C700 C703 1.403 . S
H701 C707 0.930 . S
C702 H688 0.930 . S
C702 C700 1.395 . S
C702 C705 1.403 . S
C703 C700 1.403 . S
C703 C704 1.524 . S
C703 C707 1.400 . S
C704 H689 0.960 . S
C704 H690 0.960 . S
C704 H691 0.960 . S
C704 C703 1.524 . S
C705 C702 1.403 . S
C705 C706 1.392 . S
C705 C709 1.495 . S
C706 C705 1.392 . S
C706 C707 1.385 . S
C706 C708 1.478 . S
C707 H701 0.930 . S
C707 C703 1.400 . S
C707 C706 1.385 . S
C708 C706 1.478 . S
C708 C710 1.381 . S
C708 C714 1.383 . S
C709 C705 1.495 . S
C709 H715 0.959 . S
C709 H716 0.961 . S
C709 H717 0.960 . S
C710 C708 1.381 . S
C710 C711 1.394 . S
C710 H718 0.930 . S
C711 C710 1.394 . S
C711 C712 1.383 . S
C711 H719 0.929 . S
C712 C711 1.383 . S
C712 C713 1.377 . S
C713 H697 0.930 . S
C713 C712 1.377 . S
C713 C714 1.379 . S
C714 H698 0.931 . S
C714 C708 1.383 . S
C714 C713 1.379 . S
H715 C709 0.959 . S
H716 C709 0.961 . S
H717 C709 0.960 . S
H718 C710 0.930 . S
H719 C711 0.929 . S
H720 C728 0.929 . S
H721 C730 0.930 . S
H722 C732 0.930 . S
H723 C735 0.929 . S
H724 C738 0.930 . S
H725 C740 0.960 . S
H726 C740 0.960 . S
H727 C740 0.960 . S
C728 H720 0.929 . S
C728 C729 1.377 . S
C728 C730 1.384 . S
C729 C728 1.377 . S
C729 C735 1.390 . S
C730 H721 0.930 . S
C730 C728 1.384 . S
C730 C731 1.372 . S
C731 C730 1.372 . S
C731 C732 1.400 . S
C731 C736 1.490 . S
C732 H722 0.930 . S
C732 C731 1.400 . S
C732 C735 1.386 . S
H733 C749 0.930 . S
H734 C750 0.931 . S
C735 H723 0.929 . S
C735 C729 1.390 . S
C735 C732 1.386 . S
C736 C731 1.490 . S
C736 C738 1.395 . S
C736 C739 1.403 . S
H737 C743 0.930 . S
C738 H724 0.930 . S
C738 C736 1.395 . S
C738 C741 1.403 . S
C739 C736 1.403 . S
C739 C740 1.524 . S
C739 C743 1.400 . S
C740 H725 0.960 . S
C740 H726 0.960 . S
C740 H727 0.960 . S
C740 C739 1.524 . S
C741 C738 1.403 . S
C741 C742 1.392 . S
C741 C745 1.495 . S
C742 C741 1.392 . S
C742 C743 1.385 . S
C742 C744 1.478 . S
C743 H737 0.930 . S
C743 C739 1.400 . S
C743 C742 1.385 . S
C744 C742 1.478 . S
C744 C746 1.381 . S
C744 C750 1.383 . S
C745 C741 1.495 . S
C745 H751 0.959 . S
C745 H752 0.961 . S
C745 H753 0.960 . S
C746 C744 1.381 . S
C746 C747 1.394 . S
C746 H754 0.930 . S
C747 C746 1.394 . S
C747 C748 1.383 . S
C747 H755 0.929 1_554 S
C748 C747 1.383 . S
C748 C749 1.377 . S
C749 H733 0.930 . S
C749 C748 1.377 . S
C749 C750 1.379 . S
C750 H734 0.931 . S
C750 C744 1.383 . S
C750 C749 1.379 . S
H751 C745 0.959 . S
H752 C745 0.961 . S
H753 C745 0.960 . S
H754 C746 0.930 . S
H755 C747 0.929 1_556 S
H756 C764 0.929 . S
H757 C766 0.930 . S
H758 C768 0.930 . S
H759 C771 0.929 . S
H760 C774 0.930 . S
H761 C776 0.960 . S
H762 C776 0.960 . S
H763 C776 0.960 . S
C764 H756 0.929 . S
C764 C765 1.377 . S
C764 C766 1.384 . S
C765 C764 1.377 . S
C765 C771 1.390 . S
C766 H757 0.930 . S
C766 C764 1.384 . S
C766 C767 1.372 . S
C767 C766 1.372 . S
C767 C768 1.400 . S
C767 C772 1.490 . S
C768 H758 0.930 . S
C768 C767 1.400 . S
C768 C771 1.386 . S
H769 C785 0.930 . S
H770 C786 0.931 . S
C771 H759 0.929 . S
C771 C765 1.390 . S
C771 C768 1.386 . S
C772 C767 1.490 . S
C772 C774 1.395 . S
C772 C775 1.403 . S
H773 C779 0.930 . S
C774 H760 0.930 . S
C774 C772 1.395 . S
C774 C777 1.403 . S
C775 C772 1.403 . S
C775 C776 1.524 . S
C775 C779 1.400 . S
C776 H761 0.960 . S
C776 H762 0.960 . S
C776 H763 0.960 . S
C776 C775 1.524 . S
C777 C774 1.403 . S
C777 C778 1.392 . S
C777 C781 1.495 . S
C778 C777 1.392 . S
C778 C779 1.385 . S
C778 C780 1.478 . S
C779 H773 0.930 . S
C779 C775 1.400 . S
C779 C778 1.385 . S
C780 C778 1.478 . S
C780 C782 1.381 . S
C780 C786 1.383 . S
C781 C777 1.495 . S
C781 H787 0.959 . S
C781 H788 0.961 . S
C781 H789 0.960 . S
C782 C780 1.381 . S
C782 C783 1.394 . S
C782 H790 0.930 . S
C783 C782 1.394 . S
C783 C784 1.383 . S
C783 H791 0.929 . S
C784 C783 1.383 . S
C784 C785 1.377 . S
C785 H769 0.930 . S
C785 C784 1.377 . S
C785 C786 1.379 . S
C786 H770 0.931 . S
C786 C780 1.383 . S
C786 C785 1.379 . S
H787 C781 0.959 . S
H788 C781 0.961 . S
H789 C781 0.960 . S
H790 C782 0.930 . S
H791 C783 0.929 . S
H792 C800 0.929 . S
H793 C802 0.930 . S
H794 C804 0.930 . S
H795 C807 0.929 . S
H796 C810 0.930 . S
H797 C812 0.960 . S
H798 C812 0.960 . S
H799 C812 0.960 . S
C800 H792 0.929 . S
C800 C801 1.377 . S
C800 C802 1.384 . S
C801 C800 1.377 . S
C801 C807 1.390 . S
C802 H793 0.930 . S
C802 C800 1.384 . S
C802 C803 1.372 . S
C803 C802 1.372 . S
C803 C804 1.400 . S
C803 C808 1.490 . S
C804 H794 0.930 . S
C804 C803 1.400 . S
C804 C807 1.386 . S
H805 C821 0.930 . S
H806 C822 0.931 . S
C807 H795 0.929 . S
C807 C801 1.390 . S
C807 C804 1.386 . S
C808 C803 1.490 . S
C808 C810 1.395 . S
C808 C811 1.403 . S
H809 C815 0.930 . S
C810 H796 0.930 . S
C810 C808 1.395 . S
C810 C813 1.403 . S
C811 C808 1.403 . S
C811 C812 1.524 . S
C811 C815 1.400 . S
C812 H797 0.960 . S
C812 H798 0.960 . S
C812 H799 0.960 . S
C812 C811 1.524 . S
C813 C810 1.403 . S
C813 C814 1.392 . S
C813 C817 1.495 . S
C814 C813 1.392 . S
C814 C815 1.385 . S
C814 C816 1.478 . S
C815 H809 0.930 . S
C815 C811 1.400 . S
C815 C814 1.385 . S
C816 C814 1.478 . S
C816 C818 1.381 . S
C816 C822 1.383 . S
C817 C813 1.495 . S
C817 H823 0.959 . S
C817 H824 0.961 . S
C817 H825 0.960 . S
C818 C816 1.381 . S
C818 C819 1.392 . S
C818 H826 0.930 . S
C819 C818 1.392 . S
C819 C820 1.382 . S
C819 H827 0.933 1_554 S
C820 C819 1.382 . S
C820 C821 1.377 . S
C821 H805 0.930 . S
C821 C820 1.377 . S
C821 C822 1.379 . S
C822 H806 0.931 . S
C822 C816 1.383 . S
C822 C821 1.379 . S
H823 C817 0.959 . S
H824 C817 0.961 . S
H825 C817 0.960 . S
H826 C818 0.930 . S
H827 C819 0.933 1_556 S
H828 C836 0.929 . S
H829 C838 0.930 . S
H830 C840 0.930 . S
H831 C843 0.929 . S
H832 C846 0.930 . S
H833 C848 0.960 . S
H834 C848 0.960 . S
H835 C848 0.960 . S
C836 H828 0.929 . S
C836 C837 1.377 . S
C836 C838 1.384 . S
C837 C836 1.377 . S
C837 C843 1.390 . S
C838 H829 0.930 . S
C838 C836 1.384 . S
C838 C839 1.372 . S
C839 C838 1.372 . S
C839 C840 1.400 . S
C839 C844 1.490 . S
C840 H830 0.930 . S
C840 C839 1.400 . S
C840 C843 1.386 . S
H841 C857 0.930 . S
H842 C858 0.931 . S
C843 H831 0.929 . S
C843 C837 1.390 . S
C843 C840 1.386 . S
C844 C839 1.490 . S
C844 C846 1.395 . S
C844 C847 1.403 . S
H845 C851 0.930 . S
C846 H832 0.930 . S
C846 C844 1.395 . S
C846 C849 1.403 . S
C847 C844 1.403 . S
C847 C848 1.524 . S
C847 C851 1.400 . S
C848 H833 0.960 . S
C848 H834 0.960 . S
C848 H835 0.960 . S
C848 C847 1.524 . S
C849 C846 1.403 . S
C849 C850 1.392 . S
C849 C853 1.495 . S
C850 C849 1.392 . S
C850 C851 1.385 . S
C850 C852 1.478 . S
C851 H845 0.930 . S
C851 C847 1.400 . S
C851 C850 1.385 . S
C852 C850 1.478 . S
C852 C854 1.381 . S
C852 C858 1.383 . S
C853 C849 1.495 . S
C853 H859 0.959 . S
C853 H860 0.961 . S
C853 H861 0.960 . S
C854 C852 1.381 . S
C854 C855 1.394 . S
C854 H862 0.930 . S
C855 C854 1.394 . S
C855 C856 1.383 . S
C855 H863 0.929 . S
C856 C855 1.383 . S
C856 C857 1.377 . S
C857 H841 0.930 . S
C857 C856 1.377 . S
C857 C858 1.379 . S
C858 H842 0.931 . S
C858 C852 1.383 . S
C858 C857 1.379 . S
H859 C853 0.959 . S
H860 C853 0.961 . S
H861 C853 0.960 . S
H862 C854 0.930 . S
H863 C855 0.929 . S
H864 C872 0.929 . S
H865 C874 0.930 . S
H866 C876 0.930 . S
H867 C879 0.929 . S
H868 C882 0.930 . S
H869 C884 0.960 . S
H870 C884 0.960 . S
H871 C884 0.960 . S
C872 H864 0.929 . S
C872 C873 1.377 . S
C872 C874 1.384 . S
C873 C872 1.377 . S
C873 C879 1.390 . S
C874 H865 0.930 . S
C874 C872 1.384 . S
C874 C875 1.372 . S
C875 C874 1.372 . S
C875 C876 1.400 . S
C875 C880 1.490 . S
C876 H866 0.930 . S
C876 C875 1.400 . S
C876 C879 1.386 . S
H877 C893 0.930 . S
H878 C894 0.931 . S
C879 H867 0.929 . S
C879 C873 1.390 . S
C879 C876 1.386 . S
C880 C875 1.490 . S
C880 C882 1.395 . S
C880 C883 1.403 . S
H881 C887 0.930 . S
C882 H868 0.930 . S
C882 C880 1.395 . S
C882 C885 1.403 . S
C883 C880 1.403 . S
C883 C884 1.524 . S
C883 C887 1.400 . S
C884 H869 0.960 . S
C884 H870 0.960 . S
C884 H871 0.960 . S
C884 C883 1.524 . S
C885 C882 1.403 . S
C885 C886 1.392 . S
C885 C889 1.495 . S
C886 C885 1.392 . S
C886 C887 1.385 . S
C886 C888 1.478 . S
C887 H881 0.930 . S
C887 C883 1.400 . S
C887 C886 1.385 . S
C888 C886 1.478 . S
C888 C890 1.381 . S
C888 C894 1.383 . S
C889 C885 1.495 . S
C889 H895 0.959 . S
C889 H896 0.961 . S
C889 H897 0.960 . S
C890 C888 1.381 . S
C890 C891 1.394 . S
C890 H898 0.930 . S
C891 C890 1.394 . S
C891 C892 1.383 . S
C891 H899 0.929 . S
C892 C891 1.383 . S
C892 C893 1.377 . S
C893 H877 0.930 . S
C893 C892 1.377 . S
C893 C894 1.379 . S
C894 H878 0.931 . S
C894 C888 1.383 . S
C894 C893 1.379 . S
H895 C889 0.959 . S
H896 C889 0.961 . S
H897 C889 0.960 . S
H898 C890 0.930 . S
H899 C891 0.929 . S
H900 C908 0.929 . S
H901 C910 0.930 . S
H902 C912 0.930 . S
H903 C915 0.929 . S
H904 C918 0.930 . S
H905 C920 0.960 . S
H906 C920 0.960 . S
H907 C920 0.960 . S
C908 H900 0.929 . S
C908 C909 1.377 . S
C908 C910 1.384 . S
C909 C908 1.377 . S
C909 C915 1.390 . S
C910 H901 0.930 . S
C910 C908 1.384 . S
C910 C911 1.372 . S
C911 C910 1.372 . S
C911 C912 1.400 . S
C911 C916 1.490 . S
C912 H902 0.930 . S
C912 C911 1.400 . S
C912 C915 1.386 . S
H913 C929 0.930 . S
H914 C930 0.931 . S
C915 H903 0.929 . S
C915 C909 1.390 . S
C915 C912 1.386 . S
C916 C911 1.490 . S
C916 C918 1.395 . S
C916 C919 1.403 . S
H917 C923 0.930 . S
C918 H904 0.930 . S
C918 C916 1.395 . S
C918 C921 1.403 . S
C919 C916 1.403 . S
C919 C920 1.524 . S
C919 C923 1.400 . S
C920 H905 0.960 . S
C920 H906 0.960 . S
C920 H907 0.960 . S
C920 C919 1.524 . S
C921 C918 1.403 . S
C921 C922 1.392 . S
C921 C925 1.495 . S
C922 C921 1.392 . S
C922 C923 1.385 . S
C922 C924 1.478 . S
C923 H917 0.930 . S
C923 C919 1.400 . S
C923 C922 1.385 . S
C924 C922 1.478 . S
C924 C926 1.381 . S
C924 C930 1.383 . S
C925 C921 1.495 . S
C925 H931 0.959 . S
C925 H932 0.961 . S
C925 H933 0.960 . S
C926 C924 1.381 . S
C926 C927 1.394 . S
C926 H934 0.930 . S
C927 C926 1.394 . S
C927 C928 1.383 . S
C927 H935 0.929 . S
C928 C927 1.383 . S
C928 C929 1.377 . S
C929 H913 0.930 . S
C929 C928 1.377 . S
C929 C930 1.379 . S
C930 H914 0.931 . S
C930 C924 1.383 . S
C930 C929 1.379 . S
H931 C925 0.959 . S
H932 C925 0.961 . S
H933 C925 0.960 . S
H934 C926 0.930 . S
H935 C927 0.929 . S
H936 C944 0.929 . S
H937 C946 0.930 . S
H938 C948 0.930 . S
H939 C951 0.929 . S
H940 C954 0.930 . S
H941 C956 0.960 . S
H942 C956 0.960 . S
H943 C956 0.960 . S
C944 H936 0.929 . S
C944 C945 1.377 . S
C944 C946 1.384 . S
C945 C944 1.377 . S
C945 C951 1.390 . S
C946 H937 0.930 . S
C946 C944 1.384 . S
C946 C947 1.372 . S
C947 C946 1.372 . S
C947 C948 1.400 . S
C947 C952 1.490 . S
C948 H938 0.930 . S
C948 C947 1.400 . S
C948 C951 1.386 . S
H949 C965 0.930 . S
H950 C966 0.931 . S
C951 H939 0.929 . S
C951 C945 1.390 . S
C951 C948 1.386 . S
C952 C947 1.490 . S
C952 C954 1.395 . S
C952 C955 1.403 . S
H953 C959 0.930 . S
C954 H940 0.930 . S
C954 C952 1.395 . S
C954 C957 1.403 1_455 S
C955 C952 1.403 . S
C955 C956 1.524 . S
C955 C959 1.400 1_455 S
C956 H941 0.960 . S
C956 H942 0.960 . S
C956 H943 0.960 . S
C956 C955 1.524 . S
C957 C954 1.403 1_655 S
C957 C958 1.392 . S
C957 C961 1.495 . S
C958 C957 1.392 . S
C958 C959 1.385 . S
C958 C960 1.478 . S
C959 H953 0.930 . S
C959 C955 1.400 1_655 S
C959 C958 1.385 . S
C960 C958 1.478 . S
C960 C962 1.381 . S
C960 C966 1.383 . S
C961 C957 1.495 . S
C961 H967 0.959 . S
C961 H968 0.961 . S
C961 H969 0.960 . S
C962 C960 1.381 . S
C962 C963 1.394 . S
C962 H970 0.930 . S
C963 C962 1.394 . S
C963 C964 1.383 . S
C963 H971 0.929 . S
C964 C963 1.383 . S
C964 C965 1.377 . S
C965 H949 0.930 . S
C965 C964 1.377 . S
C965 C966 1.379 . S
C966 H950 0.931 . S
C966 C960 1.383 . S
C966 C965 1.379 . S
H967 C961 0.959 . S
H968 C961 0.961 . S
H969 C961 0.960 . S
H970 C962 0.930 . S
H971 C963 0.929 . S
H972 C980 0.929 . S
H973 C982 0.930 . S
H974 C984 0.930 . S
H975 C987 0.929 . S
H976 C990 0.930 . S
H977 C992 0.960 . S
H978 C992 0.960 . S
H979 C992 0.960 . S
C980 H972 0.929 . S
C980 C981 1.377 . S
C980 C982 1.384 . S
C981 C980 1.377 . S
C981 C987 1.390 . S
C982 H973 0.930 . S
C982 C980 1.384 . S
C982 C983 1.372 . S
C983 C982 1.372 . S
C983 C984 1.400 . S
C983 C988 1.490 . S
C984 H974 0.930 . S
C984 C983 1.400 . S
C984 C987 1.386 . S
H985 C1001 0.930 . S
H986 C1002 0.931 . S
C987 H975 0.929 . S
C987 C981 1.390 . S
C987 C984 1.386 . S
C988 C983 1.490 . S
C988 C990 1.395 . S
C988 C991 1.403 . S
H989 C995 0.930 . S
C990 H976 0.930 . S
C990 C988 1.395 . S
C990 C993 1.403 . S
C991 C988 1.403 . S
C991 C992 1.524 . S
C991 C995 1.400 . S
C992 H977 0.960 . S
C992 H978 0.960 . S
C992 H979 0.960 . S
C992 C991 1.524 . S
C993 C990 1.403 . S
C993 C994 1.392 . S
C993 C997 1.495 . S
C994 C993 1.392 . S
C994 C995 1.385 . S
C994 C996 1.478 . S
C995 H989 0.930 . S
C995 C991 1.400 . S
C995 C994 1.385 . S
C996 C994 1.478 . S
C996 C998 1.381 . S
C996 C1002 1.383 . S
C997 C993 1.495 . S
C997 H1003 0.959 . S
C997 H1004 0.961 . S
C997 H1005 0.960 . S
C998 C996 1.381 . S
C998 C999 1.394 . S
C998 H1006 0.930 . S
C999 C998 1.394 . S
C999 C1000 1.383 . S
C999 H1007 0.929 . S
C1000 C999 1.383 . S
C1000 C1001 1.377 . S
C1001 H985 0.930 . S
C1001 C1000 1.377 . S
C1001 C1002 1.379 . S
C1002 H986 0.931 . S
C1002 C996 1.383 . S
C1002 C1001 1.379 . S
H1003 C997 0.959 . S
H1004 C997 0.961 . S
H1005 C997 0.960 . S
H1006 C998 0.930 . S
H1007 C999 0.929 . S
H1008 C1016 0.929 . S
H1009 C1018 0.930 . S
H1010 C1020 0.930 . S
H1011 C1023 0.929 . S
H1012 C1026 0.930 . S
H1013 C1028 0.960 . S
H1014 C1028 0.960 1_565 S
H1015 C1028 0.960 . S
C1016 H1008 0.929 . S
C1016 C1017 1.377 . S
C1016 C1018 1.384 . S
C1017 C1016 1.377 . S
C1017 C1023 1.390 . S
C1018 H1009 0.930 . S
C1018 C1016 1.384 . S
C1018 C1019 1.372 . S
C1019 C1018 1.372 . S
C1019 C1020 1.400 . S
C1019 C1024 1.490 . S
C1020 H1010 0.930 . S
C1020 C1019 1.400 . S
C1020 C1023 1.386 . S
H1021 C1037 0.930 . S
H1022 C1038 0.931 . S
C1023 H1011 0.929 . S
C1023 C1017 1.390 . S
C1023 C1020 1.386 . S
C1024 C1019 1.490 . S
C1024 C1026 1.395 . S
C1024 C1027 1.403 1_565 S
H1025 C1031 0.930 . S
C1026 H1012 0.930 . S
C1026 C1024 1.395 . S
C1026 C1029 1.403 . S
C1027 C1024 1.403 1_545 S
C1027 C1028 1.524 . S
C1027 C1031 1.400 . S
C1028 H1013 0.960 . S
C1028 H1014 0.960 1_545 S
C1028 H1015 0.960 . S
C1028 C1027 1.524 . S
C1029 C1026 1.403 . S
C1029 C1030 1.392 1_565 S
C1029 C1033 1.495 . S
C1030 C1029 1.392 1_545 S
C1030 C1031 1.385 . S
C1030 C1032 1.478 . S
C1031 H1025 0.930 . S
C1031 C1027 1.400 . S
C1031 C1030 1.385 . S
C1032 C1030 1.478 . S
C1032 C1034 1.381 . S
C1032 C1038 1.383 . S
C1033 C1029 1.495 . S
C1033 H1039 0.959 . S
C1033 H1040 0.961 1_565 S
C1033 H1041 0.960 . S
C1034 C1032 1.381 . S
C1034 C1035 1.394 . S
C1034 H1042 0.930 . S
C1035 C1034 1.394 . S
C1035 C1036 1.383 . S
C1035 H1043 0.929 . S
C1036 C1035 1.383 . S
C1036 C1037 1.377 . S
C1037 H1021 0.930 . S
C1037 C1036 1.377 . S
C1037 C1038 1.379 . S
C1038 H1022 0.931 . S
C1038 C1032 1.383 . S
C1038 C1037 1.379 . S
H1039 C1033 0.959 . S
H1040 C1033 0.961 1_545 S
H1041 C1033 0.960 . S
H1042 C1034 0.930 . S
H1043 C1035 0.929 . S
H1044 C1052 0.929 . S
H1045 C1054 0.930 . S
H1046 C1056 0.930 . S
H1047 C1059 0.929 . S
H1048 C1062 0.930 . S
H1049 C1064 0.960 . S
H1050 C1064 0.960 . S
H1051 C1064 0.960 . S
C1052 H1044 0.929 . S
C1052 C1053 1.377 . S
C1052 C1054 1.384 . S
C1053 C1052 1.377 . S
C1053 C1059 1.390 . S
C1054 H1045 0.930 . S
C1054 C1052 1.384 . S
C1054 C1055 1.372 . S
C1055 C1054 1.372 . S
C1055 C1056 1.400 . S
C1055 C1060 1.490 . S
C1056 H1046 0.930 . S
C1056 C1055 1.400 . S
C1056 C1059 1.386 . S
H1057 C1073 0.930 . S
H1058 C1074 0.931 . S
C1059 H1047 0.929 . S
C1059 C1053 1.390 . S
C1059 C1056 1.386 . S
C1060 C1055 1.490 . S
C1060 C1062 1.395 . S
C1060 C1063 1.403 . S
H1061 C1067 0.930 . S
C1062 H1048 0.930 . S
C1062 C1060 1.395 . S
C1062 C1065 1.403 1_565 S
C1063 C1060 1.403 . S
C1063 C1064 1.524 . S
C1063 C1067 1.400 1_565 S
C1064 H1049 0.960 . S
C1064 H1050 0.960 . S
C1064 H1051 0.960 . S
C1064 C1063 1.524 . S
C1065 C1062 1.403 1_545 S
C1065 C1066 1.392 . S
C1065 C1069 1.495 . S
C1066 C1065 1.392 . S
C1066 C1067 1.385 . S
C1066 C1068 1.478 . S
C1067 H1061 0.930 . S
C1067 C1063 1.400 1_545 S
C1067 C1066 1.385 . S
C1068 C1066 1.478 . S
C1068 C1070 1.381 . S
C1068 C1074 1.383 . S
C1069 C1065 1.495 . S
C1069 H1075 0.959 . S
C1069 H1076 0.961 . S
C1069 H1077 0.960 . S
C1070 C1068 1.381 . S
C1070 C1071 1.394 . S
C1070 H1078 0.930 . S
C1071 C1070 1.394 . S
C1071 C1072 1.383 . S
C1071 H1079 0.929 . S
C1072 C1071 1.383 . S
C1072 C1073 1.377 . S
C1073 H1057 0.930 . S
C1073 C1072 1.377 . S
C1073 C1074 1.379 . S
C1074 H1058 0.931 . S
C1074 C1068 1.383 . S
C1074 C1073 1.379 . S
H1075 C1069 0.959 . S
H1076 C1069 0.961 . S
H1077 C1069 0.960 . S
H1078 C1070 0.930 . S
H1079 C1071 0.929 . S
H1080 C1088 0.929 . S
H1081 C1090 0.930 . S
H1082 C1092 0.930 . S
H1083 C1095 0.929 . S
H1084 C1098 0.930 . S
H1085 C1100 0.960 1_655 S
H1086 C1100 0.960 . S
H1087 C1100 0.960 . S
C1088 H1080 0.929 . S
C1088 C1089 1.377 . S
C1088 C1090 1.384 . S
C1089 C1088 1.377 . S
C1089 C1095 1.390 . S
C1090 H1081 0.930 . S
C1090 C1088 1.384 . S
C1090 C1091 1.372 . S
C1091 C1090 1.372 . S
C1091 C1092 1.400 . S
C1091 C1096 1.490 . S
C1092 H1082 0.930 . S
C1092 C1091 1.400 . S
C1092 C1095 1.386 . S
H1093 C1109 0.930 . S
H1094 C1110 0.931 . S
C1095 H1083 0.929 . S
C1095 C1089 1.390 . S
C1095 C1092 1.386 . S
C1096 C1091 1.490 . S
C1096 C1098 1.395 . S
C1096 C1099 1.403 . S
H1097 C1103 0.930 . S
C1098 H1084 0.930 . S
C1098 C1096 1.395 . S
C1098 C1101 1.403 1_455 S
C1099 C1096 1.403 . S
C1099 C1100 1.524 . S
C1099 C1103 1.400 1_455 S
C1100 H1085 0.960 1_455 S
C1100 H1086 0.960 . S
C1100 H1087 0.960 . S
C1100 C1099 1.524 . S
C1101 C1098 1.403 1_655 S
C1101 C1102 1.392 . S
C1101 C1105 1.495 . S
C1102 C1101 1.392 . S
C1102 C1103 1.385 . S
C1102 C1104 1.478 . S
C1103 H1097 0.930 . S
C1103 C1099 1.400 1_655 S
C1103 C1102 1.385 . S
C1104 C1102 1.478 . S
C1104 C1106 1.381 . S
C1104 C1110 1.383 . S
C1105 C1101 1.495 . S
C1105 H1111 0.959 1_655 S
C1105 H1112 0.961 . S
C1105 H1113 0.960 . S
C1106 C1104 1.381 . S
C1106 C1107 1.394 . S
C1106 H1114 0.930 . S
C1107 C1106 1.394 . S
C1107 C1108 1.383 . S
C1107 H1115 0.929 . S
C1108 C1107 1.383 . S
C1108 C1109 1.377 . S
C1109 H1093 0.930 . S
C1109 C1108 1.377 . S
C1109 C1110 1.379 . S
C1110 H1094 0.931 . S
C1110 C1104 1.383 . S
C1110 C1109 1.379 . S
H1111 C1105 0.959 1_455 S
H1112 C1105 0.961 . S
H1113 C1105 0.960 . S
H1114 C1106 0.930 . S
H1115 C1107 0.929 . S
H1116 C1124 0.929 . S
H1117 C1126 0.930 . S
H1118 C1128 0.930 . S
H1119 C1131 0.929 . S
H1120 C1134 0.930 . S
H1121 C1136 0.960 . S
H1122 C1136 0.960 . S
H1123 C1136 0.960 . S
C1124 H1116 0.929 . S
C1124 C1125 1.377 . S
C1124 C1126 1.384 . S
C1125 C1124 1.377 . S
C1125 C1131 1.390 . S
C1126 H1117 0.930 . S
C1126 C1124 1.384 . S
C1126 C1127 1.372 . S
C1127 C1126 1.372 . S
C1127 C1128 1.400 . S
C1127 C1132 1.490 . S
C1128 H1118 0.930 . S
C1128 C1127 1.400 . S
C1128 C1131 1.386 . S
H1129 C1145 0.930 . S
H1130 C1146 0.931 . S
C1131 H1119 0.929 . S
C1131 C1125 1.390 . S
C1131 C1128 1.386 . S
C1132 C1127 1.490 . S
C1132 C1134 1.395 . S
C1132 C1135 1.403 . S
H1133 C1139 0.930 . S
C1134 H1120 0.930 . S
C1134 C1132 1.395 . S
C1134 C1137 1.403 . S
C1135 C1132 1.403 . S
C1135 C1136 1.524 . S
C1135 C1139 1.400 . S
C1136 H1121 0.960 . S
C1136 H1122 0.960 . S
C1136 H1123 0.960 . S
C1136 C1135 1.524 . S
C1137 C1134 1.403 . S
C1137 C1138 1.392 . S
C1137 C1141 1.495 . S
C1138 C1137 1.392 . S
C1138 C1139 1.385 . S
C1138 C1140 1.478 . S
C1139 H1133 0.930 . S
C1139 C1135 1.400 . S
C1139 C1138 1.385 . S
C1140 C1138 1.478 . S
C1140 C1142 1.381 . S
C1140 C1146 1.383 . S
C1141 C1137 1.495 . S
C1141 H1147 0.959 . S
C1141 H1148 0.961 . S
C1141 H1149 0.960 . S
C1142 C1140 1.381 . S
C1142 C1143 1.394 . S
C1142 H1150 0.930 . S
C1143 C1142 1.394 . S
C1143 C1144 1.383 . S
C1143 H1151 0.929 . S
C1144 C1143 1.383 . S
C1144 C1145 1.377 . S
C1145 H1129 0.930 . S
C1145 C1144 1.377 . S
C1145 C1146 1.379 . S
C1146 H1130 0.931 . S
C1146 C1140 1.383 . S
C1146 C1145 1.379 . S
H1147 C1141 0.959 . S
H1148 C1141 0.961 . S
H1149 C1141 0.960 . S
H1150 C1142 0.930 . S
H1151 C1143 0.929 . S
H1152 C1160 0.929 1_554 S
H1153 C1162 0.930 . S
H1154 C1164 0.930 . S
H1155 C1167 0.929 . S
H1156 C1170 0.930 . S
H1157 C1172 0.960 . S
H1158 C1172 0.960 . S
H1159 C1172 0.960 . S
C1160 H1152 0.929 1_556 S
C1160 C1161 1.377 . S
C1160 C1162 1.384 1_556 S
C1161 C1160 1.377 . S
C1161 C1167 1.390 . S
C1162 H1153 0.930 . S
C1162 C1160 1.384 1_554 S
C1162 C1163 1.372 1_554 S
C1163 C1162 1.372 1_556 S
C1163 C1164 1.400 . S
C1163 C1168 1.491 . S
C1164 H1154 0.930 . S
C1164 C1163 1.400 . S
C1164 C1167 1.386 . S
H1165 C1181 0.930 . S
H1166 C1182 0.931 1_556 S
C1167 H1155 0.929 . S
C1167 C1161 1.390 . S
C1167 C1164 1.386 . S
C1168 C1163 1.491 . S
C1168 C1170 1.395 . S
C1168 C1171 1.401 1_556 S
H1169 C1175 0.930 . S
C1170 H1156 0.930 . S
C1170 C1168 1.395 . S
C1170 C1173 1.403 . S
C1171 C1168 1.401 1_554 S
C1171 C1172 1.524 . S
C1171 C1175 1.400 . S
C1172 H1157 0.960 . S
C1172 H1158 0.960 . S
C1172 H1159 0.960 . S
C1172 C1171 1.524 . S
C1173 C1170 1.403 . S
C1173 C1174 1.392 1_556 S
C1173 C1177 1.495 . S
C1174 C1173 1.392 1_554 S
C1174 C1175 1.385 . S
C1174 C1176 1.478 . S
C1175 H1169 0.930 . S
C1175 C1171 1.400 . S
C1175 C1174 1.385 . S
C1176 C1174 1.478 . S
C1176 C1178 1.381 . S
C1176 C1182 1.383 . S
C1177 C1173 1.495 . S
C1177 H1183 0.959 . S
C1177 H1184 0.961 . S
C1177 H1185 0.960 1_556 S
C1178 C1176 1.381 . S
C1178 C1179 1.394 . S
C1178 H1186 0.930 . S
C1179 C1178 1.394 . S
C1179 C1180 1.383 . S
C1179 H1187 0.929 . S
C1180 C1179 1.383 . S
C1180 C1181 1.377 . S
C1181 H1165 0.930 . S
C1181 C1180 1.377 . S
C1181 C1182 1.379 . S
C1182 H1166 0.931 1_554 S
C1182 C1176 1.383 . S
C1182 C1181 1.379 . S
H1183 C1177 0.959 . S
H1184 C1177 0.961 . S
H1185 C1177 0.960 1_554 S
H1186 C1178 0.930 . S
H1187 C1179 0.929 . S
H1188 C1196 0.929 . S
H1189 C1198 0.930 . S
H1190 C1200 0.930 . S
H1191 C1203 0.929 . S
H1192 C1206 0.930 . S
H1193 C1208 0.960 . S
H1194 C1208 0.960 . S
H1195 C1208 0.960 . S
C1196 H1188 0.929 . S
C1196 C1197 1.377 1_554 S
C1196 C1198 1.384 . S
C1197 C1196 1.377 1_556 S
C1197 C1203 1.390 . S
C1198 H1189 0.930 . S
C1198 C1196 1.384 . S
C1198 C1199 1.372 1_554 S
C1199 C1198 1.372 1_556 S
C1199 C1200 1.400 . S
C1199 C1204 1.490 1_556 S
C1200 H1190 0.930 . S
C1200 C1199 1.400 . S
C1200 C1203 1.386 . S
H1201 C1217 0.930 1_556 S
H1202 C1218 0.931 1_556 S
C1203 H1191 0.929 . S
C1203 C1197 1.390 . S
C1203 C1200 1.386 . S
C1204 C1199 1.490 1_554 S
C1204 C1206 1.395 . S
C1204 C1207 1.403 1_554 S
H1205 C1211 0.930 . S
C1206 H1192 0.930 . S
C1206 C1204 1.395 . S
C1206 C1209 1.403 . S
C1207 C1204 1.403 1_556 S
C1207 C1208 1.524 . S
C1207 C1211 1.400 . S
C1208 H1193 0.960 . S
C1208 H1194 0.960 . S
C1208 H1195 0.960 . S
C1208 C1207 1.524 . S
C1209 C1206 1.403 . S
C1209 C1210 1.392 . S
C1209 C1213 1.495 . S
C1210 C1209 1.392 . S
C1210 C1211 1.385 1_554 S
C1210 C1212 1.478 . S
C1211 H1205 0.930 . S
C1211 C1207 1.400 . S
C1211 C1210 1.385 1_556 S
C1212 C1210 1.478 . S
C1212 C1214 1.381 . S
C1212 C1218 1.383 . S
C1213 C1209 1.495 . S
C1213 H1219 0.959 . S
C1213 H1220 0.961 . S
C1213 H1221 0.960 . S
C1214 C1212 1.381 . S
C1214 C1215 1.394 . S
C1214 H1222 0.930 . S
C1215 C1214 1.394 . S
C1215 C1216 1.383 . S
C1215 H1223 0.929 . S
C1216 C1215 1.383 . S
C1216 C1217 1.377 . S
C1217 H1201 0.930 1_554 S
C1217 C1216 1.377 . S
C1217 C1218 1.379 . S
C1218 H1202 0.931 1_554 S
C1218 C1212 1.383 . S
C1218 C1217 1.379 . S
H1219 C1213 0.959 . S
H1220 C1213 0.961 . S
H1221 C1213 0.960 . S
H1222 C1214 0.930 . S
H1223 C1215 0.929 . S
H1224 C1232 0.929 . S
H1225 C1234 0.930 . S
H1226 C1236 0.930 . S
H1227 C1239 0.929 . S
H1228 C1242 0.930 . S
H1229 C1244 0.960 . S
H1230 C1244 0.960 . S
H1231 C1244 0.960 . S
C1232 H1224 0.929 . S
C1232 C1233 1.377 . S
C1232 C1234 1.384 . S
C1233 C1232 1.377 . S
C1233 C1239 1.390 1_556 S
C1234 H1225 0.930 . S
C1234 C1232 1.384 . S
C1234 C1235 1.372 . S
C1235 C1234 1.372 . S
C1235 C1236 1.400 1_556 S
C1235 C1240 1.490 . S
C1236 H1226 0.930 . S
C1236 C1235 1.400 1_554 S
C1236 C1239 1.386 . S
H1237 C1253 0.930 . S
H1238 C1254 0.931 . S
C1239 H1227 0.929 . S
C1239 C1233 1.390 1_554 S
C1239 C1236 1.386 . S
C1240 C1235 1.490 . S
C1240 C1242 1.395 . S
C1240 C1243 1.403 1_556 S
H1241 C1247 0.930 . S
C1242 H1228 0.930 . S
C1242 C1240 1.395 . S
C1242 C1245 1.403 . S
C1243 C1240 1.403 1_554 S
C1243 C1244 1.524 . S
C1243 C1247 1.400 . S
C1244 H1229 0.960 . S
C1244 H1230 0.960 . S
C1244 H1231 0.960 . S
C1244 C1243 1.524 . S
C1245 C1242 1.403 . S
C1245 C1246 1.392 1_556 S
C1245 C1249 1.495 . S
C1246 C1245 1.392 1_554 S
C1246 C1247 1.385 . S
C1246 C1248 1.478 . S
C1247 H1241 0.930 . S
C1247 C1243 1.400 . S
C1247 C1246 1.385 . S
C1248 C1246 1.478 . S
C1248 C1250 1.399 . S
C1248 C1254 1.383 . S
C1249 C1245 1.495 . S
C1249 H1255 0.959 . S
C1249 H1256 0.961 . S
C1249 H1257 0.960 . S
C1250 C1248 1.399 . S
C1250 C1251 1.405 . S
C1250 H1258 0.902 1_554 S
C1251 C1250 1.405 . S
C1251 C1252 1.383 . S
C1251 H1259 0.919 1_554 S
C1252 C1251 1.383 . S
C1252 C1253 1.377 . S
C1253 H1237 0.930 . S
C1253 C1252 1.377 . S
C1253 C1254 1.379 . S
C1254 H1238 0.931 . S
C1254 C1248 1.383 . S
C1254 C1253 1.379 . S
H1255 C1249 0.959 . S
H1256 C1249 0.961 . S
H1257 C1249 0.960 . S
H1258 C1250 0.902 1_556 S
H1259 C1251 0.919 1_556 S
H1260 C1268 0.929 . S
H1261 C1270 0.930 . S
H1262 C1272 0.930 . S
H1263 C1275 0.929 . S
H1264 C1278 0.930 . S
H1265 C1280 0.960 . S
H1266 C1280 0.960 . S
H1267 C1280 0.960 . S
C1268 H1260 0.929 . S
C1268 C1269 1.377 . S
C1268 C1270 1.384 . S
C1269 C1268 1.377 . S
C1269 C1275 1.390 . S
C1270 H1261 0.930 . S
C1270 C1268 1.384 . S
C1270 C1271 1.372 . S
C1271 C1270 1.372 . S
C1271 C1272 1.400 . S
C1271 C1276 1.490 . S
C1272 H1262 0.930 . S
C1272 C1271 1.400 . S
C1272 C1275 1.386 . S
H1273 C1289 0.930 . S
H1274 C1290 0.931 . S
C1275 H1263 0.929 . S
C1275 C1269 1.390 . S
C1275 C1272 1.386 . S
C1276 C1271 1.490 . S
C1276 C1278 1.395 . S
C1276 C1279 1.403 . S
H1277 C1283 0.930 . S
C1278 H1264 0.930 . S
C1278 C1276 1.395 . S
C1278 C1281 1.403 . S
C1279 C1276 1.403 . S
C1279 C1280 1.524 . S
C1279 C1283 1.400 . S
C1280 H1265 0.960 . S
C1280 H1266 0.960 . S
C1280 H1267 0.960 . S
C1280 C1279 1.524 . S
C1281 C1278 1.403 . S
C1281 C1282 1.392 . S
C1281 C1285 1.495 . S
C1282 C1281 1.392 . S
C1282 C1283 1.385 . S
C1282 C1284 1.478 . S
C1283 H1277 0.930 . S
C1283 C1279 1.400 . S
C1283 C1282 1.385 . S
C1284 C1282 1.478 . S
C1284 C1286 1.381 . S
C1284 C1290 1.383 . S
C1285 C1281 1.495 . S
C1285 H1291 0.959 . S
C1285 H1292 0.961 . S
C1285 H1293 0.960 . S
C1286 C1284 1.381 . S
C1286 C1287 1.394 . S
C1286 H1294 0.930 . S
C1287 C1286 1.394 . S
C1287 C1288 1.383 . S
C1287 H1295 0.929 . S
C1288 C1287 1.383 . S
C1288 C1289 1.377 . S
C1289 H1273 0.930 . S
C1289 C1288 1.377 . S
C1289 C1290 1.379 . S
C1290 H1274 0.931 . S
C1290 C1284 1.383 . S
C1290 C1289 1.379 . S
H1291 C1285 0.959 . S
H1292 C1285 0.961 . S
H1293 C1285 0.960 . S
H1294 C1286 0.930 . S
H1295 C1287 0.929 . S
H1296 C1304 0.929 . S
H1297 C1306 0.930 . S
H1298 C1308 0.930 . S
H1299 C1311 0.929 . S
H1300 C1314 0.930 . S
H1301 C1316 0.960 . S
H1302 C1316 0.960 . S
H1303 C1316 0.960 . S
C1304 H1296 0.929 . S
C1304 C1305 1.377 . S
C1304 C1306 1.384 . S
C1305 C1304 1.377 . S
C1305 C1311 1.390 . S
C1306 H1297 0.930 . S
C1306 C1304 1.384 . S
C1306 C1307 1.372 . S
C1307 C1306 1.372 . S
C1307 C1308 1.400 . S
C1307 C1312 1.490 . S
C1308 H1298 0.930 . S
C1308 C1307 1.400 . S
C1308 C1311 1.386 . S
H1309 C1325 0.930 . S
H1310 C1326 0.931 . S
C1311 H1299 0.929 . S
C1311 C1305 1.390 . S
C1311 C1308 1.386 . S
C1312 C1307 1.490 . S
C1312 C1314 1.395 . S
C1312 C1315 1.403 . S
H1313 C1319 0.930 . S
C1314 H1300 0.930 . S
C1314 C1312 1.395 . S
C1314 C1317 1.403 . S
C1315 C1312 1.403 . S
C1315 C1316 1.524 . S
C1315 C1319 1.400 . S
C1316 H1301 0.960 . S
C1316 H1302 0.960 . S
C1316 H1303 0.960 . S
C1316 C1315 1.524 . S
C1317 C1314 1.403 . S
C1317 C1318 1.392 . S
C1317 C1321 1.495 . S
C1318 C1317 1.392 . S
C1318 C1319 1.385 . S
C1318 C1320 1.478 . S
C1319 H1313 0.930 . S
C1319 C1315 1.400 . S
C1319 C1318 1.385 . S
C1320 C1318 1.478 . S
C1320 C1322 1.381 . S
C1320 C1326 1.383 . S
C1321 C1317 1.495 . S
C1321 H1327 0.959 . S
C1321 H1328 0.961 . S
C1321 H1329 0.960 . S
C1322 C1320 1.381 . S
C1322 C1323 1.394 . S
C1322 H1330 0.930 . S
C1323 C1322 1.394 . S
C1323 C1324 1.383 . S
C1323 H1331 0.929 . S
C1324 C1323 1.383 . S
C1324 C1325 1.377 . S
C1325 H1309 0.930 . S
C1325 C1324 1.377 . S
C1325 C1326 1.379 . S
C1326 H1310 0.931 . S
C1326 C1320 1.383 . S
C1326 C1325 1.379 . S
H1327 C1321 0.959 . S
H1328 C1321 0.961 . S
H1329 C1321 0.960 . S
H1330 C1322 0.930 . S
H1331 C1323 0.929 . S
H1332 C1340 0.929 . S
H1333 C1342 0.930 . S
H1334 C1344 0.930 . S
H1335 C1347 0.929 . S
H1336 C1350 0.930 . S
H1337 C1352 0.960 . S
H1338 C1352 0.960 . S
H1339 C1352 0.960 . S
C1340 H1332 0.929 . S
C1340 C1341 1.377 . S
C1340 C1342 1.384 . S
C1341 C1340 1.377 . S
C1341 C1347 1.390 . S
C1342 H1333 0.930 . S
C1342 C1340 1.384 . S
C1342 C1343 1.372 . S
C1343 C1342 1.372 . S
C1343 C1344 1.400 . S
C1343 C1348 1.490 . S
C1344 H1334 0.930 . S
C1344 C1343 1.400 . S
C1344 C1347 1.386 . S
H1345 C1361 0.930 . S
H1346 C1362 0.931 . S
C1347 H1335 0.929 . S
C1347 C1341 1.390 . S
C1347 C1344 1.386 . S
C1348 C1343 1.490 . S
C1348 C1350 1.395 . S
C1348 C1351 1.403 . S
H1349 C1355 0.930 . S
C1350 H1336 0.930 . S
C1350 C1348 1.395 . S
C1350 C1353 1.403 . S
C1351 C1348 1.403 . S
C1351 C1352 1.524 . S
C1351 C1355 1.400 . S
C1352 H1337 0.960 . S
C1352 H1338 0.960 . S
C1352 H1339 0.960 . S
C1352 C1351 1.524 . S
C1353 C1350 1.403 . S
C1353 C1354 1.392 . S
C1353 C1357 1.495 . S
C1354 C1353 1.392 . S
C1354 C1355 1.385 . S
C1354 C1356 1.478 . S
C1355 H1349 0.930 . S
C1355 C1351 1.400 . S
C1355 C1354 1.385 . S
C1356 C1354 1.478 . S
C1356 C1358 1.381 . S
C1356 C1362 1.383 . S
C1357 C1353 1.495 . S
C1357 H1363 0.959 . S
C1357 H1364 0.961 . S
C1357 H1365 0.960 . S
C1358 C1356 1.381 . S
C1358 C1359 1.394 . S
C1358 H1366 0.930 . S
C1359 C1358 1.394 . S
C1359 C1360 1.383 . S
C1359 H1367 0.929 . S
C1360 C1359 1.383 . S
C1360 C1361 1.377 . S
C1361 H1345 0.930 . S
C1361 C1360 1.377 . S
C1361 C1362 1.379 . S
C1362 H1346 0.931 . S
C1362 C1356 1.383 . S
C1362 C1361 1.379 . S
H1363 C1357 0.959 . S
H1364 C1357 0.961 . S
H1365 C1357 0.960 . S
H1366 C1358 0.930 . S
H1367 C1359 0.929 . S
H1368 C1376 0.929 . S
H1369 C1378 0.930 . S
H1370 C1380 0.930 . S
H1371 C1383 0.929 . S
H1372 C1386 0.930 . S
H1373 C1388 0.960 . S
H1374 C1388 0.960 . S
H1375 C1388 0.960 . S
C1376 H1368 0.929 . S
C1376 C1377 1.377 . S
C1376 C1378 1.384 . S
C1377 C1376 1.377 . S
C1377 C1383 1.390 1_554 S
C1378 H1369 0.930 . S
C1378 C1376 1.384 . S
C1378 C1379 1.372 . S
C1379 C1378 1.372 . S
C1379 C1380 1.400 1_554 S
C1379 C1384 1.490 . S
C1380 H1370 0.930 . S
C1380 C1379 1.400 1_556 S
C1380 C1383 1.386 . S
H1381 C1397 0.930 . S
H1382 C1398 0.931 . S
C1383 H1371 0.929 . S
C1383 C1377 1.390 1_556 S
C1383 C1380 1.386 . S
C1384 C1379 1.490 . S
C1384 C1386 1.395 . S
C1384 C1387 1.403 1_554 S
H1385 C1391 0.930 . S
C1386 H1372 0.930 . S
C1386 C1384 1.395 . S
C1386 C1389 1.403 . S
C1387 C1384 1.403 1_556 S
C1387 C1388 1.524 . S
C1387 C1391 1.400 . S
C1388 H1373 0.960 . S
C1388 H1374 0.960 . S
C1388 H1375 0.960 . S
C1388 C1387 1.524 . S
C1389 C1386 1.403 . S
C1389 C1390 1.392 1_554 S
C1389 C1393 1.495 . S
C1390 C1389 1.392 1_556 S
C1390 C1391 1.385 . S
C1390 C1392 1.478 . S
C1391 H1385 0.930 . S
C1391 C1387 1.400 . S
C1391 C1390 1.385 . S
C1392 C1390 1.478 . S
C1392 C1394 1.381 1_556 S
C1392 C1398 1.383 . S
C1393 C1389 1.495 . S
C1393 H1399 0.959 . S
C1393 H1400 0.961 . S
C1393 H1401 0.960 . S
C1394 C1392 1.381 1_554 S
C1394 C1395 1.394 1_554 S
C1394 H1402 0.930 . S
C1395 C1394 1.394 1_556 S
C1395 C1396 1.383 . S
C1395 H1403 0.929 1_556 S
C1396 C1395 1.383 . S
C1396 C1397 1.377 . S
C1397 H1381 0.930 . S
C1397 C1396 1.377 . S
C1397 C1398 1.379 . S
C1398 H1382 0.931 . S
C1398 C1392 1.383 . S
C1398 C1397 1.379 . S
H1399 C1393 0.959 . S
H1400 C1393 0.961 . S
H1401 C1393 0.960 . S
H1402 C1394 0.930 . S
H1403 C1395 0.929 1_554 S
H1404 C1412 0.929 . S
H1405 C1414 0.930 . S
H1406 C1416 0.930 1_554 S
H1407 C1419 0.929 . S
H1408 C1422 0.930 . S
H1409 C1424 0.960 . S
H1410 C1424 0.960 . S
H1411 C1424 0.960 . S
C1412 H1404 0.929 . S
C1412 C1413 1.377 . S
C1412 C1414 1.384 . S
C1413 C1412 1.377 . S
C1413 C1419 1.390 . S
C1414 H1405 0.930 . S
C1414 C1412 1.384 . S
C1414 C1415 1.372 . S
C1415 C1414 1.372 . S
C1415 C1416 1.400 . S
C1415 C1420 1.490 . S
C1416 H1406 0.930 1_556 S
C1416 C1415 1.400 . S
C1416 C1419 1.386 . S
H1417 C1433 0.930 . S
H1418 C1434 0.931 . S
C1419 H1407 0.929 . S
C1419 C1413 1.390 . S
C1419 C1416 1.386 . S
C1420 C1415 1.490 . S
C1420 C1422 1.395 . S
C1420 C1423 1.403 . S
H1421 C1427 0.930 . S
C1422 H1408 0.930 . S
C1422 C1420 1.395 . S
C1422 C1425 1.403 1_556 S
C1423 C1420 1.403 . S
C1423 C1424 1.524 . S
C1423 C1427 1.400 . S
C1424 H1409 0.960 . S
C1424 H1410 0.960 . S
C1424 H1411 0.960 . S
C1424 C1423 1.524 . S
C1425 C1422 1.403 1_554 S
C1425 C1426 1.392 . S
C1425 C1429 1.495 . S
C1426 C1425 1.392 . S
C1426 C1427 1.385 1_554 S
C1426 C1428 1.478 . S
C1427 H1421 0.930 . S
C1427 C1423 1.400 . S
C1427 C1426 1.385 1_556 S
C1428 C1426 1.478 . S
C1428 C1430 1.381 1_554 S
C1428 C1434 1.383 . S
C1429 C1425 1.495 . S
C1429 H1435 0.959 . S
C1429 H1436 0.961 . S
C1429 H1437 0.960 1_554 S
C1430 C1428 1.381 1_556 S
C1430 C1431 1.399 . S
C1430 H1438 0.930 . S
C1431 C1430 1.399 . S
C1431 C1432 1.367 1_556 S
C1431 H1439 0.941 . S
C1432 C1431 1.367 1_554 S
C1432 C1433 1.377 . S
C1433 H1417 0.930 . S
C1433 C1432 1.377 . S
C1433 C1434 1.379 . S
C1434 H1418 0.931 . S
C1434 C1428 1.383 . S
C1434 C1433 1.379 . S
H1435 C1429 0.959 . S
H1436 C1429 0.961 . S
H1437 C1429 0.960 1_556 S
H1438 C1430 0.930 . S
H1439 C1431 0.941 . S
H1440 C1448 0.929 . S
H1441 C1450 0.930 . S
H1442 C1452 0.930 . S
H1443 C1455 0.929 . S
H1444 C1458 0.930 . S
H1445 C1460 0.960 . S
H1446 C1460 0.960 . S
H1447 C1460 0.960 . S
C1448 H1440 0.929 . S
C1448 C1449 1.377 1_556 S
C1448 C1450 1.384 . S
C1449 C1448 1.377 1_554 S
C1449 C1455 1.390 . S
C1450 H1441 0.930 . S
C1450 C1448 1.384 . S
C1450 C1451 1.372 1_556 S
C1451 C1450 1.372 1_554 S
C1451 C1452 1.400 . S
C1451 C1456 1.490 1_554 S
C1452 H1442 0.930 . S
C1452 C1451 1.400 . S
C1452 C1455 1.386 . S
H1453 C1469 0.930 1_554 S
H1454 C1470 0.931 1_554 S
C1455 H1443 0.929 . S
C1455 C1449 1.390 . S
C1455 C1452 1.386 . S
C1456 C1451 1.490 1_556 S
C1456 C1458 1.395 . S
C1456 C1459 1.403 1_556 S
H1457 C1463 0.924 1_554 S
C1458 H1444 0.930 . S
C1458 C1456 1.395 . S
C1458 C1461 1.403 . S
C1459 C1456 1.403 1_554 S
C1459 C1460 1.524 . S
C1459 C1463 1.400 1_554 S
C1460 H1445 0.960 . S
C1460 H1446 0.960 . S
C1460 H1447 0.960 . S
C1460 C1459 1.524 . S
C1461 C1458 1.403 . S
C1461 C1462 1.392 . S
C1461 C1465 1.495 . S
C1462 C1461 1.392 . S
C1462 C1463 1.385 . S
C1462 C1464 1.478 . S
C1463 H1457 0.924 1_556 S
C1463 C1459 1.400 1_556 S
C1463 C1462 1.385 . S
C1464 C1462 1.478 . S
C1464 C1466 1.381 . S
C1464 C1470 1.383 . S
C1465 C1461 1.495 . S
C1465 H1471 0.959 . S
C1465 H1472 0.961 . S
C1465 H1473 0.960 . S
C1466 C1464 1.381 . S
C1466 C1467 1.394 . S
C1466 H1474 0.930 . S
C1467 C1466 1.394 . S
C1467 C1468 1.383 . S
C1467 H1475 0.929 . S
C1468 C1467 1.383 . S
C1468 C1469 1.377 . S
C1469 H1453 0.930 1_556 S
C1469 C1468 1.377 . S
C1469 C1470 1.379 . S
C1470 H1454 0.931 1_556 S
C1470 C1464 1.383 . S
C1470 C1469 1.379 . S
H1471 C1465 0.959 . S
H1472 C1465 0.961 . S
H1473 C1465 0.960 . S
H1474 C1466 0.930 . S
H1475 C1467 0.929 . S
H1476 C1484 0.929 . S
H1477 C1486 0.930 . S
H1478 C1488 0.930 . S
H1479 C1491 0.929 . S
H1480 C1494 0.930 . S
H1481 C1496 0.960 . S
H1482 C1496 0.960 . S
H1483 C1496 0.960 . S
C1484 H1476 0.929 . S
C1484 C1485 1.377 . S
C1484 C1486 1.384 . S
C1485 C1484 1.377 . S
C1485 C1491 1.390 . S
C1486 H1477 0.930 . S
C1486 C1484 1.384 . S
C1486 C1487 1.372 . S
C1487 C1486 1.372 . S
C1487 C1488 1.400 . S
C1487 C1492 1.490 . S
C1488 H1478 0.930 . S
C1488 C1487 1.400 . S
C1488 C1491 1.386 . S
H1489 C1505 0.930 . S
H1490 C1506 0.931 . S
C1491 H1479 0.929 . S
C1491 C1485 1.390 . S
C1491 C1488 1.386 . S
C1492 C1487 1.490 . S
C1492 C1494 1.395 . S
C1492 C1495 1.403 . S
H1493 C1499 0.930 . S
C1494 H1480 0.930 . S
C1494 C1492 1.395 . S
C1494 C1497 1.403 . S
C1495 C1492 1.403 . S
C1495 C1496 1.524 . S
C1495 C1499 1.400 . S
C1496 H1481 0.960 . S
C1496 H1482 0.960 . S
C1496 H1483 0.960 . S
C1496 C1495 1.524 . S
C1497 C1494 1.403 . S
C1497 C1498 1.392 . S
C1497 C1501 1.495 . S
C1498 C1497 1.392 . S
C1498 C1499 1.385 . S
C1498 C1500 1.478 . S
C1499 H1493 0.930 . S
C1499 C1495 1.400 . S
C1499 C1498 1.385 . S
C1500 C1498 1.478 . S
C1500 C1502 1.381 . S
C1500 C1506 1.383 . S
C1501 C1497 1.495 . S
C1501 H1507 0.959 . S
C1501 H1508 0.961 . S
C1501 H1509 0.960 . S
C1502 C1500 1.381 . S
C1502 C1503 1.394 . S
C1502 H1510 0.930 . S
C1503 C1502 1.394 . S
C1503 C1504 1.383 . S
C1503 H1511 0.929 . S
C1504 C1503 1.383 . S
C1504 C1505 1.377 . S
C1505 H1489 0.930 . S
C1505 C1504 1.377 . S
C1505 C1506 1.379 . S
C1506 H1490 0.931 . S
C1506 C1500 1.383 . S
C1506 C1505 1.379 . S
H1507 C1501 0.959 . S
H1508 C1501 0.961 . S
H1509 C1501 0.960 . S
H1510 C1502 0.930 . S
H1511 C1503 0.929 . S
H1512 C1520 0.929 . S
H1513 C1522 0.930 . S
H1514 C1524 0.930 . S
H1515 C1527 0.929 . S
H1516 C1530 0.930 . S
H1517 C1532 0.960 . S
H1518 C1532 0.960 . S
H1519 C1532 0.960 . S
C1520 H1512 0.929 . S
C1520 C1521 1.377 . S
C1520 C1522 1.384 . S
C1521 C1520 1.377 . S
C1521 C1527 1.390 . S
C1522 H1513 0.930 . S
C1522 C1520 1.384 . S
C1522 C1523 1.372 . S
C1523 C1522 1.372 . S
C1523 C1524 1.400 . S
C1523 C1528 1.490 . S
C1524 H1514 0.930 . S
C1524 C1523 1.400 . S
C1524 C1527 1.386 . S
H1525 C1541 0.930 . S
H1526 C1542 0.931 . S
C1527 H1515 0.929 . S
C1527 C1521 1.390 . S
C1527 C1524 1.386 . S
C1528 C1523 1.490 . S
C1528 C1530 1.395 . S
C1528 C1531 1.403 . S
H1529 C1535 0.930 . S
C1530 H1516 0.930 . S
C1530 C1528 1.395 . S
C1530 C1533 1.403 . S
C1531 C1528 1.403 . S
C1531 C1532 1.524 . S
C1531 C1535 1.400 . S
C1532 H1517 0.960 . S
C1532 H1518 0.960 . S
C1532 H1519 0.960 . S
C1532 C1531 1.524 . S
C1533 C1530 1.403 . S
C1533 C1534 1.392 . S
C1533 C1537 1.495 . S
C1534 C1533 1.392 . S
C1534 C1535 1.385 . S
C1534 C1536 1.478 . S
C1535 H1529 0.930 . S
C1535 C1531 1.400 . S
C1535 C1534 1.385 . S
C1536 C1534 1.478 . S
C1536 C1538 1.381 . S
C1536 C1542 1.383 . S
C1537 C1533 1.495 . S
C1537 H1543 0.959 . S
C1537 H1544 0.961 . S
C1537 H1545 0.960 . S
C1538 C1536 1.381 . S
C1538 C1539 1.394 . S
C1538 H1546 0.930 . S
C1539 C1538 1.394 . S
C1539 C1540 1.383 . S
C1539 H1547 0.929 . S
C1540 C1539 1.383 . S
C1540 C1541 1.377 . S
C1541 H1525 0.930 . S
C1541 C1540 1.377 . S
C1541 C1542 1.379 . S
C1542 H1526 0.931 . S
C1542 C1536 1.383 . S
C1542 C1541 1.379 . S
H1543 C1537 0.959 . S
H1544 C1537 0.961 . S
H1545 C1537 0.960 . S
H1546 C1538 0.930 . S
H1547 C1539 0.929 . S
H1548 C1556 0.929 . S
H1549 C1558 0.930 . S
H1550 C1560 0.930 . S
H1551 C1563 0.929 . S
H1552 C1566 0.930 . S
H1553 C1568 0.960 . S
H1554 C1568 0.960 . S
H1555 C1568 0.960 . S
C1556 H1548 0.929 . S
C1556 C1557 1.377 . S
C1556 C1558 1.384 . S
C1557 C1556 1.377 . S
C1557 C1563 1.390 . S
C1558 H1549 0.930 . S
C1558 C1556 1.384 . S
C1558 C1559 1.372 . S
C1559 C1558 1.372 . S
C1559 C1560 1.400 . S
C1559 C1564 1.490 . S
C1560 H1550 0.930 . S
C1560 C1559 1.400 . S
C1560 C1563 1.386 . S
H1561 C1577 0.930 . S
H1562 C1578 0.931 . S
C1563 H1551 0.929 . S
C1563 C1557 1.390 . S
C1563 C1560 1.386 . S
C1564 C1559 1.490 . S
C1564 C1566 1.395 . S
C1564 C1567 1.403 . S
H1565 C1571 0.930 . S
C1566 H1552 0.930 . S
C1566 C1564 1.395 . S
C1566 C1569 1.403 . S
C1567 C1564 1.403 . S
C1567 C1568 1.524 . S
C1567 C1571 1.400 . S
C1568 H1553 0.960 . S
C1568 H1554 0.960 . S
C1568 H1555 0.960 . S
C1568 C1567 1.524 . S
C1569 C1566 1.403 . S
C1569 C1570 1.392 . S
C1569 C1573 1.495 . S
C1570 C1569 1.392 . S
C1570 C1571 1.385 . S
C1570 C1572 1.478 . S
C1571 H1565 0.930 . S
C1571 C1567 1.400 . S
C1571 C1570 1.385 . S
C1572 C1570 1.478 . S
C1572 C1574 1.381 . S
C1572 C1578 1.383 . S
C1573 C1569 1.495 . S
C1573 H1579 0.959 . S
C1573 H1580 0.961 . S
C1573 H1581 0.960 . S
C1574 C1572 1.381 . S
C1574 C1575 1.394 . S
C1574 H1582 0.930 . S
C1575 C1574 1.394 . S
C1575 C1576 1.383 . S
C1575 H1583 0.929 . S
C1576 C1575 1.383 . S
C1576 C1577 1.377 . S
C1577 H1561 0.930 . S
C1577 C1576 1.377 . S
C1577 C1578 1.379 . S
C1578 H1562 0.931 . S
C1578 C1572 1.383 . S
C1578 C1577 1.379 . S
H1579 C1573 0.959 . S
H1580 C1573 0.961 . S
H1581 C1573 0.960 . S
H1582 C1574 0.930 . S
H1583 C1575 0.929 . S
H1584 C1592 0.929 . S
H1585 C1594 0.930 . S
H1586 C1596 0.930 . S
H1587 C1599 0.929 . S
H1588 C1602 0.930 . S
H1589 C1604 0.960 . S
H1590 C1604 0.960 . S
H1591 C1604 0.960 . S
C1592 H1584 0.929 . S
C1592 C1593 1.377 . S
C1592 C1594 1.384 . S
C1593 C1592 1.377 . S
C1593 C1599 1.390 . S
C1594 H1585 0.930 . S
C1594 C1592 1.384 . S
C1594 C1595 1.372 . S
C1595 C1594 1.372 . S
C1595 C1596 1.400 . S
C1595 C1600 1.490 . S
C1596 H1586 0.930 . S
C1596 C1595 1.400 . S
C1596 C1599 1.386 . S
H1597 C1613 0.930 . S
H1598 C1614 0.931 . S
C1599 H1587 0.929 . S
C1599 C1593 1.390 . S
C1599 C1596 1.386 . S
C1600 C1595 1.490 . S
C1600 C1602 1.395 . S
C1600 C1603 1.403 . S
H1601 C1607 0.930 . S
C1602 H1588 0.930 . S
C1602 C1600 1.395 . S
C1602 C1605 1.403 . S
C1603 C1600 1.403 . S
C1603 C1604 1.524 . S
C1603 C1607 1.400 . S
C1604 H1589 0.960 . S
C1604 H1590 0.960 . S
C1604 H1591 0.960 . S
C1604 C1603 1.524 . S
C1605 C1602 1.403 . S
C1605 C1606 1.392 . S
C1605 C1609 1.495 . S
C1606 C1605 1.392 . S
C1606 C1607 1.385 . S
C1606 C1608 1.478 . S
C1607 H1601 0.930 . S
C1607 C1603 1.400 . S
C1607 C1606 1.385 . S
C1608 C1606 1.478 . S
C1608 C1610 1.381 . S
C1608 C1614 1.383 . S
C1609 C1605 1.495 . S
C1609 H1615 0.959 . S
C1609 H1616 0.961 . S
C1609 H1617 0.960 . S
C1610 C1608 1.381 . S
C1610 C1611 1.394 . S
C1610 H1618 0.930 . S
C1611 C1610 1.394 . S
C1611 C1612 1.383 . S
C1611 H1619 0.929 . S
C1612 C1611 1.383 . S
C1612 C1613 1.377 . S
C1613 H1597 0.930 . S
C1613 C1612 1.377 . S
C1613 C1614 1.379 . S
C1614 H1598 0.931 . S
C1614 C1608 1.383 . S
C1614 C1613 1.379 . S
H1615 C1609 0.959 . S
H1616 C1609 0.961 . S
H1617 C1609 0.960 . S
H1618 C1610 0.930 . S
H1619 C1611 0.929 . S
H1620 C1628 0.929 . S
H1621 C1630 0.930 . S
H1622 C1632 0.930 . S
H1623 C1635 0.929 . S
H1624 C1638 0.930 . S
H1625 C1640 0.960 . S
H1626 C1640 0.960 . S
H1627 C1640 0.960 . S
C1628 H1620 0.929 . S
C1628 C1629 1.377 . S
C1628 C1630 1.384 . S
C1629 C1628 1.377 . S
C1629 C1635 1.390 . S
C1630 H1621 0.930 . S
C1630 C1628 1.384 . S
C1630 C1631 1.372 . S
C1631 C1630 1.372 . S
C1631 C1632 1.400 . S
C1631 C1636 1.490 . S
C1632 H1622 0.930 . S
C1632 C1631 1.400 . S
C1632 C1635 1.386 . S
H1633 C1649 0.930 . S
H1634 C1650 0.931 . S
C1635 H1623 0.929 . S
C1635 C1629 1.390 . S
C1635 C1632 1.386 . S
C1636 C1631 1.490 . S
C1636 C1638 1.395 . S
C1636 C1639 1.403 . S
H1637 C1643 0.930 . S
C1638 H1624 0.930 . S
C1638 C1636 1.395 . S
C1638 C1641 1.403 . S
C1639 C1636 1.403 . S
C1639 C1640 1.524 . S
C1639 C1643 1.400 . S
C1640 H1625 0.960 . S
C1640 H1626 0.960 . S
C1640 H1627 0.960 . S
C1640 C1639 1.524 . S
C1641 C1638 1.403 . S
C1641 C1642 1.392 . S
C1641 C1645 1.495 . S
C1642 C1641 1.392 . S
C1642 C1643 1.385 . S
C1642 C1644 1.478 . S
C1643 H1637 0.930 . S
C1643 C1639 1.400 . S
C1643 C1642 1.385 . S
C1644 C1642 1.478 . S
C1644 C1646 1.381 . S
C1644 C1650 1.383 . S
C1645 C1641 1.495 . S
C1645 H1651 0.959 . S
C1645 H1652 0.961 . S
C1645 H1653 0.960 . S
C1646 C1644 1.381 . S
C1646 C1647 1.394 . S
C1646 H1654 0.930 . S
C1647 C1646 1.394 . S
C1647 C1648 1.383 . S
C1647 H1655 0.929 . S
C1648 C1647 1.383 . S
C1648 C1649 1.377 . S
C1649 H1633 0.930 . S
C1649 C1648 1.377 . S
C1649 C1650 1.379 . S
C1650 H1634 0.931 . S
C1650 C1644 1.383 . S
C1650 C1649 1.379 . S
H1651 C1645 0.959 . S
H1652 C1645 0.961 . S
H1653 C1645 0.960 . S
H1654 C1646 0.930 . S
H1655 C1647 0.929 . S
H1656 C1664 0.929 . S
H1657 C1666 0.930 . S
H1658 C1668 0.930 . S
H1659 C1671 0.929 . S
H1660 C1674 0.930 . S
H1661 C1676 0.960 . S
H1662 C1676 0.960 . S
H1663 C1676 0.960 . S
C1664 H1656 0.929 . S
C1664 C1665 1.377 . S
C1664 C1666 1.384 . S
C1665 C1664 1.377 . S
C1665 C1671 1.390 . S
C1666 H1657 0.930 . S
C1666 C1664 1.384 . S
C1666 C1667 1.372 . S
C1667 C1666 1.372 . S
C1667 C1668 1.400 . S
C1667 C1672 1.490 . S
C1668 H1658 0.930 . S
C1668 C1667 1.400 . S
C1668 C1671 1.386 . S
H1669 C1685 0.930 . S
H1670 C1686 0.931 . S
C1671 H1659 0.929 . S
C1671 C1665 1.390 . S
C1671 C1668 1.386 . S
C1672 C1667 1.490 . S
C1672 C1674 1.395 . S
C1672 C1675 1.403 . S
H1673 C1679 0.930 . S
C1674 H1660 0.930 . S
C1674 C1672 1.395 . S
C1674 C1677 1.403 . S
C1675 C1672 1.403 . S
C1675 C1676 1.524 . S
C1675 C1679 1.400 . S
C1676 H1661 0.960 . S
C1676 H1662 0.960 . S
C1676 H1663 0.960 . S
C1676 C1675 1.524 . S
C1677 C1674 1.403 . S
C1677 C1678 1.392 . S
C1677 C1681 1.495 . S
C1678 C1677 1.392 . S
C1678 C1679 1.385 . S
C1678 C1680 1.478 . S
C1679 H1673 0.930 . S
C1679 C1675 1.400 . S
C1679 C1678 1.385 . S
C1680 C1678 1.478 . S
C1680 C1682 1.381 . S
C1680 C1686 1.383 . S
C1681 C1677 1.495 . S
C1681 H1687 0.959 . S
C1681 H1688 0.961 . S
C1681 H1689 0.960 . S
C1682 C1680 1.381 . S
C1682 C1683 1.394 . S
C1682 H1690 0.930 . S
C1683 C1682 1.394 . S
C1683 C1684 1.383 . S
C1683 H1691 0.929 . S
C1684 C1683 1.383 . S
C1684 C1685 1.377 . S
C1685 H1669 0.930 . S
C1685 C1684 1.377 . S
C1685 C1686 1.379 . S
C1686 H1670 0.931 . S
C1686 C1680 1.383 . S
C1686 C1685 1.379 . S
H1687 C1681 0.959 . S
H1688 C1681 0.961 . S
H1689 C1681 0.960 . S
H1690 C1682 0.930 . S
H1691 C1683 0.929 . S
H1692 C1700 0.929 . S
H1693 C1702 0.930 . S
H1694 C1704 0.930 . S
H1695 C1707 0.929 . S
H1696 C1710 0.930 . S
H1697 C1712 0.960 . S
H1698 C1712 0.960 . S
H1699 C1712 0.960 . S
C1700 H1692 0.929 . S
C1700 C1701 1.377 . S
C1700 C1702 1.384 . S
C1701 C1700 1.377 . S
C1701 C1707 1.390 . S
C1702 H1693 0.930 . S
C1702 C1700 1.384 . S
C1702 C1703 1.372 . S
C1703 C1702 1.372 . S
C1703 C1704 1.400 . S
C1703 C1708 1.490 . S
C1704 H1694 0.930 . S
C1704 C1703 1.400 . S
C1704 C1707 1.386 . S
H1705 C1721 0.930 . S
H1706 C1722 0.931 . S
C1707 H1695 0.929 . S
C1707 C1701 1.390 . S
C1707 C1704 1.386 . S
C1708 C1703 1.490 . S
C1708 C1710 1.395 . S
C1708 C1711 1.403 . S
H1709 C1715 0.930 . S
C1710 H1696 0.930 . S
C1710 C1708 1.395 . S
C1710 C1713 1.403 . S
C1711 C1708 1.403 . S
C1711 C1712 1.524 . S
C1711 C1715 1.400 . S
C1712 H1697 0.960 . S
C1712 H1698 0.960 . S
C1712 H1699 0.960 . S
C1712 C1711 1.524 . S
C1713 C1710 1.403 . S
C1713 C1714 1.392 . S
C1713 C1717 1.495 . S
C1714 C1713 1.392 . S
C1714 C1715 1.385 . S
C1714 C1716 1.478 . S
C1715 H1709 0.930 . S
C1715 C1711 1.400 . S
C1715 C1714 1.385 . S
C1716 C1714 1.478 . S
C1716 C1718 1.381 . S
C1716 C1722 1.383 . S
C1717 C1713 1.495 . S
C1717 H1723 0.959 . S
C1717 H1724 0.961 . S
C1717 H1725 0.960 . S
C1718 C1716 1.381 . S
C1718 C1719 1.394 . S
C1718 H1726 0.930 . S
C1719 C1718 1.394 . S
C1719 C1720 1.383 . S
C1719 H1727 0.929 . S
C1720 C1719 1.383 . S
C1720 C1721 1.377 . S
C1721 H1705 0.930 . S
C1721 C1720 1.377 . S
C1721 C1722 1.379 . S
C1722 H1706 0.931 . S
C1722 C1716 1.383 . S
C1722 C1721 1.379 . S
H1723 C1717 0.959 . S
H1724 C1717 0.961 . S
H1725 C1717 0.960 . S
H1726 C1718 0.930 . S
H1727 C1719 0.929 . S
H1728 C1736 0.929 . S
H1729 C1738 0.930 . S
H1730 C1740 0.930 . S
H1731 C1743 0.929 . S
H1732 C1746 0.930 . S
H1733 C1748 0.960 . S
H1734 C1748 0.960 . S
H1735 C1748 0.960 . S
C1736 H1728 0.929 . S
C1736 C1737 1.377 . S
C1736 C1738 1.384 . S
C1737 C1736 1.377 . S
C1737 C1743 1.390 . S
C1738 H1729 0.930 . S
C1738 C1736 1.384 . S
C1738 C1739 1.372 . S
C1739 C1738 1.372 . S
C1739 C1740 1.400 . S
C1739 C1744 1.490 . S
C1740 H1730 0.930 . S
C1740 C1739 1.400 . S
C1740 C1743 1.386 . S
H1741 C1757 0.930 . S
H1742 C1758 0.931 . S
C1743 H1731 0.929 . S
C1743 C1737 1.390 . S
C1743 C1740 1.386 . S
C1744 C1739 1.490 . S
C1744 C1746 1.395 . S
C1744 C1747 1.403 . S
H1745 C1751 0.930 . S
C1746 H1732 0.930 . S
C1746 C1744 1.395 . S
C1746 C1749 1.403 . S
C1747 C1744 1.403 . S
C1747 C1748 1.524 . S
C1747 C1751 1.400 . S
C1748 H1733 0.960 . S
C1748 H1734 0.960 . S
C1748 H1735 0.960 . S
C1748 C1747 1.524 . S
C1749 C1746 1.403 . S
C1749 C1750 1.392 . S
C1749 C1753 1.495 . S
C1750 C1749 1.392 . S
C1750 C1751 1.385 . S
C1750 C1752 1.478 . S
C1751 H1745 0.930 . S
C1751 C1747 1.400 . S
C1751 C1750 1.385 . S
C1752 C1750 1.478 . S
C1752 C1754 1.381 . S
C1752 C1758 1.383 . S
C1753 C1749 1.495 . S
C1753 H1759 0.959 . S
C1753 H1760 0.961 . S
C1753 H1761 0.960 . S
C1754 C1752 1.381 . S
C1754 C1755 1.394 . S
C1754 H1762 0.930 . S
C1755 C1754 1.394 . S
C1755 C1756 1.383 . S
C1755 H1763 0.929 . S
C1756 C1755 1.383 . S
C1756 C1757 1.377 . S
C1757 H1741 0.930 . S
C1757 C1756 1.377 . S
C1757 C1758 1.379 . S
C1758 H1742 0.931 . S
C1758 C1752 1.383 . S
C1758 C1757 1.379 . S
H1759 C1753 0.959 . S
H1760 C1753 0.961 . S
H1761 C1753 0.960 . S
H1762 C1754 0.930 . S
H1763 C1755 0.929 . S
H1764 C1772 0.929 . S
H1765 C1774 0.930 . S
H1766 C1776 0.930 . S
H1767 C1779 0.929 . S
H1768 C1782 0.930 . S
H1769 C1784 0.960 . S
H1770 C1784 0.960 . S
H1771 C1784 0.960 . S
C1772 H1764 0.929 . S
C1772 C1773 1.377 . S
C1772 C1774 1.384 . S
C1773 C1772 1.377 . S
C1773 C1779 1.390 . S
C1774 H1765 0.930 . S
C1774 C1772 1.384 . S
C1774 C1775 1.372 . S
C1775 C1774 1.372 . S
C1775 C1776 1.400 . S
C1775 C1780 1.490 . S
C1776 H1766 0.930 . S
C1776 C1775 1.400 . S
C1776 C1779 1.386 . S
H1777 C1793 0.930 . S
H1778 C1794 0.931 . S
C1779 H1767 0.929 . S
C1779 C1773 1.390 . S
C1779 C1776 1.386 . S
C1780 C1775 1.490 . S
C1780 C1782 1.395 . S
C1780 C1783 1.403 . S
H1781 C1787 0.930 . S
C1782 H1768 0.930 . S
C1782 C1780 1.395 . S
C1782 C1785 1.403 . S
C1783 C1780 1.403 . S
C1783 C1784 1.524 . S
C1783 C1787 1.400 . S
C1784 H1769 0.960 . S
C1784 H1770 0.960 . S
C1784 H1771 0.960 . S
C1784 C1783 1.524 . S
C1785 C1782 1.403 . S
C1785 C1786 1.392 . S
C1785 C1789 1.495 . S
C1786 C1785 1.392 . S
C1786 C1787 1.385 . S
C1786 C1788 1.478 . S
C1787 H1781 0.930 . S
C1787 C1783 1.400 . S
C1787 C1786 1.385 . S
C1788 C1786 1.478 . S
C1788 C1790 1.381 . S
C1788 C1794 1.383 . S
C1789 C1785 1.495 . S
C1789 H1795 0.959 . S
C1789 H1796 0.961 . S
C1789 H1797 0.960 . S
C1790 C1788 1.381 . S
C1790 C1791 1.394 . S
C1790 H1798 0.930 . S
C1791 C1790 1.394 . S
C1791 C1792 1.383 . S
C1791 H1799 0.929 . S
C1792 C1791 1.383 . S
C1792 C1793 1.377 . S
C1793 H1777 0.930 . S
C1793 C1792 1.377 . S
C1793 C1794 1.379 . S
C1794 H1778 0.931 . S
C1794 C1788 1.383 . S
C1794 C1793 1.379 . S
H1795 C1789 0.959 . S
H1796 C1789 0.961 . S
H1797 C1789 0.960 . S
H1798 C1790 0.930 . S
H1799 C1791 0.929 . S
H1800 C1808 0.929 . S
H1801 C1810 0.930 . S
H1802 C1812 0.930 . S
H1803 C1815 0.929 . S
H1804 C1818 0.930 . S
H1805 C1820 0.960 . S
H1806 C1820 0.960 . S
H1807 C1820 0.960 . S
C1808 H1800 0.929 . S
C1808 C1809 1.377 . S
C1808 C1810 1.384 . S
C1809 C1808 1.377 . S
C1809 C1815 1.390 . S
C1810 H1801 0.930 . S
C1810 C1808 1.384 . S
C1810 C1811 1.372 . S
C1811 C1810 1.372 . S
C1811 C1812 1.400 . S
C1811 C1816 1.490 . S
C1812 H1802 0.930 . S
C1812 C1811 1.400 . S
C1812 C1815 1.386 . S
H1813 C1829 0.930 . S
H1814 C1830 0.931 . S
C1815 H1803 0.929 . S
C1815 C1809 1.390 . S
C1815 C1812 1.386 . S
C1816 C1811 1.490 . S
C1816 C1818 1.395 . S
C1816 C1819 1.403 . S
H1817 C1823 0.930 . S
C1818 H1804 0.930 . S
C1818 C1816 1.395 . S
C1818 C1821 1.403 . S
C1819 C1816 1.403 . S
C1819 C1820 1.524 . S
C1819 C1823 1.400 . S
C1820 H1805 0.960 . S
C1820 H1806 0.960 . S
C1820 H1807 0.960 . S
C1820 C1819 1.524 . S
C1821 C1818 1.403 . S
C1821 C1822 1.392 . S
C1821 C1825 1.495 . S
C1822 C1821 1.392 . S
C1822 C1823 1.385 . S
C1822 C1824 1.478 . S
C1823 H1817 0.930 . S
C1823 C1819 1.400 . S
C1823 C1822 1.385 . S
C1824 C1822 1.478 . S
C1824 C1826 1.381 . S
C1824 C1830 1.383 . S
C1825 C1821 1.495 . S
C1825 H1831 0.959 . S
C1825 H1832 0.961 . S
C1825 H1833 0.960 . S
C1826 C1824 1.381 . S
C1826 C1827 1.394 . S
C1826 H1834 0.930 . S
C1827 C1826 1.394 . S
C1827 C1828 1.383 . S
C1827 H1835 0.929 . S
C1828 C1827 1.383 . S
C1828 C1829 1.377 . S
C1829 H1813 0.930 . S
C1829 C1828 1.377 . S
C1829 C1830 1.379 . S
C1830 H1814 0.931 . S
C1830 C1824 1.383 . S
C1830 C1829 1.379 . S
H1831 C1825 0.959 . S
H1832 C1825 0.961 . S
H1833 C1825 0.960 . S
H1834 C1826 0.930 . S
H1835 C1827 0.929 . S
H1836 C1844 0.929 . S
H1837 C1846 0.930 . S
H1838 C1848 0.930 . S
H1839 C1851 0.929 . S
H1840 C1854 0.930 . S
H1841 C1856 0.960 . S
H1842 C1856 0.960 . S
H1843 C1856 0.960 . S
C1844 H1836 0.929 . S
C1844 C1845 1.377 . S
C1844 C1846 1.384 . S
C1845 C1844 1.377 . S
C1845 C1851 1.390 . S
C1846 H1837 0.930 . S
C1846 C1844 1.384 . S
C1846 C1847 1.372 . S
C1847 C1846 1.372 . S
C1847 C1848 1.400 . S
C1847 C1852 1.490 . S
C1848 H1838 0.930 . S
C1848 C1847 1.400 . S
C1848 C1851 1.386 . S
H1849 C1865 0.930 . S
H1850 C1866 0.931 . S
C1851 H1839 0.929 . S
C1851 C1845 1.390 . S
C1851 C1848 1.386 . S
C1852 C1847 1.490 . S
C1852 C1854 1.395 . S
C1852 C1855 1.403 . S
H1853 C1859 0.930 . S
C1854 H1840 0.930 . S
C1854 C1852 1.395 . S
C1854 C1857 1.403 . S
C1855 C1852 1.403 . S
C1855 C1856 1.524 . S
C1855 C1859 1.400 . S
C1856 H1841 0.960 . S
C1856 H1842 0.960 . S
C1856 H1843 0.960 . S
C1856 C1855 1.524 . S
C1857 C1854 1.403 . S
C1857 C1858 1.392 . S
C1857 C1861 1.495 . S
C1858 C1857 1.392 . S
C1858 C1859 1.385 . S
C1858 C1860 1.478 . S
C1859 H1853 0.930 . S
C1859 C1855 1.400 . S
C1859 C1858 1.385 . S
C1860 C1858 1.478 . S
C1860 C1862 1.381 . S
C1860 C1866 1.383 . S
C1861 C1857 1.495 . S
C1861 H1867 0.959 . S
C1861 H1868 0.961 . S
C1861 H1869 0.960 . S
C1862 C1860 1.381 . S
C1862 C1863 1.394 . S
C1862 H1870 0.930 . S
C1863 C1862 1.394 . S
C1863 C1864 1.383 . S
C1863 H1871 0.929 . S
C1864 C1863 1.383 . S
C1864 C1865 1.377 . S
C1865 H1849 0.930 . S
C1865 C1864 1.377 . S
C1865 C1866 1.379 . S
C1866 H1850 0.931 . S
C1866 C1860 1.383 . S
C1866 C1865 1.379 . S
H1867 C1861 0.959 . S
H1868 C1861 0.961 . S
H1869 C1861 0.960 . S
H1870 C1862 0.930 . S
H1871 C1863 0.929 . S
H1872 C1880 0.929 . S
H1873 C1882 0.930 . S
H1874 C1884 0.930 . S
H1875 C1887 0.929 . S
H1876 C1890 0.930 . S
H1877 C1892 0.960 . S
H1878 C1892 0.960 . S
H1879 C1892 0.960 . S
C1880 H1872 0.929 . S
C1880 C1881 1.377 . S
C1880 C1882 1.384 . S
C1881 C1880 1.377 . S
C1881 C1887 1.390 . S
C1882 H1873 0.930 . S
C1882 C1880 1.384 . S
C1882 C1883 1.372 . S
C1883 C1882 1.372 . S
C1883 C1884 1.400 . S
C1883 C1888 1.490 . S
C1884 H1874 0.930 . S
C1884 C1883 1.400 . S
C1884 C1887 1.386 . S
H1885 C1901 0.930 . S
H1886 C1902 0.931 . S
C1887 H1875 0.929 . S
C1887 C1881 1.390 . S
C1887 C1884 1.386 . S
C1888 C1883 1.490 . S
C1888 C1890 1.395 . S
C1888 C1891 1.403 . S
H1889 C1895 0.930 . S
C1890 H1876 0.930 . S
C1890 C1888 1.395 . S
C1890 C1893 1.403 . S
C1891 C1888 1.403 . S
C1891 C1892 1.524 . S
C1891 C1895 1.400 . S
C1892 H1877 0.960 . S
C1892 H1878 0.960 . S
C1892 H1879 0.960 . S
C1892 C1891 1.524 . S
C1893 C1890 1.403 . S
C1893 C1894 1.392 . S
C1893 C1897 1.495 . S
C1894 C1893 1.392 . S
C1894 C1895 1.385 . S
C1894 C1896 1.478 . S
C1895 H1889 0.930 . S
C1895 C1891 1.400 . S
C1895 C1894 1.385 . S
C1896 C1894 1.478 . S
C1896 C1898 1.381 . S
C1896 C1902 1.383 . S
C1897 C1893 1.495 . S
C1897 H1903 0.959 . S
C1897 H1904 0.961 . S
C1897 H1905 0.960 . S
C1898 C1896 1.381 . S
C1898 C1899 1.394 . S
C1898 H1906 0.930 . S
C1899 C1898 1.394 . S
C1899 C1900 1.383 . S
C1899 H1907 0.929 . S
C1900 C1899 1.383 . S
C1900 C1901 1.377 . S
C1901 H1885 0.930 . S
C1901 C1900 1.377 . S
C1901 C1902 1.379 . S
C1902 H1886 0.931 . S
C1902 C1896 1.383 . S
C1902 C1901 1.379 . S
H1903 C1897 0.959 . S
H1904 C1897 0.961 . S
H1905 C1897 0.960 . S
H1906 C1898 0.930 . S
H1907 C1899 0.929 . S
H1908 C1916 0.929 . S
H1909 C1918 0.930 . S
H1910 C1920 0.930 . S
H1911 C1923 0.929 . S
H1912 C1926 0.930 . S
H1913 C1928 0.960 . S
H1914 C1928 0.960 . S
H1915 C1928 0.960 . S
C1916 H1908 0.929 . S
C1916 C1917 1.377 . S
C1916 C1918 1.384 . S
C1917 C1916 1.377 . S
C1917 C1923 1.390 . S
C1918 H1909 0.930 . S
C1918 C1916 1.384 . S
C1918 C1919 1.372 . S
C1919 C1918 1.372 . S
C1919 C1920 1.400 . S
C1919 C1924 1.490 . S
C1920 H1910 0.930 . S
C1920 C1919 1.400 . S
C1920 C1923 1.386 . S
H1921 C1937 0.930 . S
H1922 C1938 0.931 . S
C1923 H1911 0.929 . S
C1923 C1917 1.390 . S
C1923 C1920 1.386 . S
C1924 C1919 1.490 . S
C1924 C1926 1.395 . S
C1924 C1927 1.403 . S
H1925 C1931 0.930 . S
C1926 H1912 0.930 . S
C1926 C1924 1.395 . S
C1926 C1929 1.403 . S
C1927 C1924 1.403 . S
C1927 C1928 1.524 . S
C1927 C1931 1.400 . S
C1928 H1913 0.960 . S
C1928 H1914 0.960 . S
C1928 H1915 0.960 . S
C1928 C1927 1.524 . S
C1929 C1926 1.403 . S
C1929 C1930 1.392 . S
C1929 C1933 1.495 . S
C1930 C1929 1.392 . S
C1930 C1931 1.385 . S
C1930 C1932 1.478 . S
C1931 H1925 0.930 . S
C1931 C1927 1.400 . S
C1931 C1930 1.385 . S
C1932 C1930 1.478 . S
C1932 C1934 1.381 . S
C1932 C1938 1.383 . S
C1933 C1929 1.495 . S
C1933 H1939 0.959 . S
C1933 H1940 0.961 . S
C1933 H1941 0.960 . S
C1934 C1932 1.381 . S
C1934 C1935 1.394 . S
C1934 H1942 0.930 . S
C1935 C1934 1.394 . S
C1935 C1936 1.383 . S
C1935 H1943 0.929 . S
C1936 C1935 1.383 . S
C1936 C1937 1.377 . S
C1937 H1921 0.930 . S
C1937 C1936 1.377 . S
C1937 C1938 1.379 . S
C1938 H1922 0.931 . S
C1938 C1932 1.383 . S
C1938 C1937 1.379 . S
H1939 C1933 0.959 . S
H1940 C1933 0.961 . S
H1941 C1933 0.960 . S
H1942 C1934 0.930 . S
H1943 C1935 0.929 . S
H1944 C1952 0.929 . S
H1945 C1954 0.930 . S
H1946 C1956 0.930 . S
H1947 C1959 0.929 . S
H1948 C1962 0.930 . S
H1949 C1964 0.960 . S
H1950 C1964 0.960 . S
H1951 C1964 0.960 . S
C1952 H1944 0.929 . S
C1952 C1953 1.377 . S
C1952 C1954 1.384 . S
C1953 C1952 1.377 . S
C1953 C1959 1.390 . S
C1954 H1945 0.930 . S
C1954 C1952 1.384 . S
C1954 C1955 1.372 . S
C1955 C1954 1.372 . S
C1955 C1956 1.400 . S
C1955 C1960 1.490 . S
C1956 H1946 0.930 . S
C1956 C1955 1.400 . S
C1956 C1959 1.386 . S
H1957 C1973 0.930 . S
H1958 C1974 0.931 . S
C1959 H1947 0.929 . S
C1959 C1953 1.390 . S
C1959 C1956 1.386 . S
C1960 C1955 1.490 . S
C1960 C1962 1.395 . S
C1960 C1963 1.403 . S
H1961 C1967 0.930 . S
C1962 H1948 0.930 . S
C1962 C1960 1.395 . S
C1962 C1965 1.403 . S
C1963 C1960 1.403 . S
C1963 C1964 1.524 . S
C1963 C1967 1.400 . S
C1964 H1949 0.960 . S
C1964 H1950 0.960 . S
C1964 H1951 0.960 . S
C1964 C1963 1.524 . S
C1965 C1962 1.403 . S
C1965 C1966 1.392 . S
C1965 C1969 1.495 . S
C1966 C1965 1.392 . S
C1966 C1967 1.385 . S
C1966 C1968 1.478 . S
C1967 H1961 0.930 . S
C1967 C1963 1.400 . S
C1967 C1966 1.385 . S
C1968 C1966 1.478 . S
C1968 C1970 1.381 . S
C1968 C1974 1.383 . S
C1969 C1965 1.495 . S
C1969 H1975 0.959 . S
C1969 H1976 0.961 . S
C1969 H1977 0.960 . S
C1970 C1968 1.381 . S
C1970 C1971 1.394 . S
C1970 H1978 0.930 . S
C1971 C1970 1.394 . S
C1971 C1972 1.383 . S
C1971 H1979 0.929 . S
C1972 C1971 1.383 . S
C1972 C1973 1.377 . S
C1973 H1957 0.930 . S
C1973 C1972 1.377 . S
C1973 C1974 1.379 . S
C1974 H1958 0.931 . S
C1974 C1968 1.383 . S
C1974 C1973 1.379 . S
H1975 C1969 0.959 . S
H1976 C1969 0.961 . S
H1977 C1969 0.960 . S
H1978 C1970 0.930 . S
H1979 C1971 0.929 . S
H1980 C1988 0.929 . S
H1981 C1990 0.930 . S
H1982 C1992 0.930 . S
H1983 C1995 0.929 . S
H1984 C1998 0.930 . S
H1985 C2000 0.960 . S
H1986 C2000 0.960 . S
H1987 C2000 0.960 . S
C1988 H1980 0.929 . S
C1988 C1989 1.377 . S
C1988 C1990 1.384 . S
C1989 C1988 1.377 . S
C1989 C1995 1.390 . S
C1990 H1981 0.930 . S
C1990 C1988 1.384 . S
C1990 C1991 1.372 . S
C1991 C1990 1.372 . S
C1991 C1992 1.400 . S
C1991 C1996 1.490 . S
C1992 H1982 0.930 . S
C1992 C1991 1.400 . S
C1992 C1995 1.386 . S
H1993 C2009 0.930 . S
H1994 C2010 0.931 . S
C1995 H1983 0.929 . S
C1995 C1989 1.390 . S
C1995 C1992 1.386 . S
C1996 C1991 1.490 . S
C1996 C1998 1.395 . S
C1996 C1999 1.403 . S
H1997 C2003 0.930 . S
C1998 H1984 0.930 . S
C1998 C1996 1.395 . S
C1998 C2001 1.403 . S
C1999 C1996 1.403 . S
C1999 C2000 1.524 . S
C1999 C2003 1.400 . S
C2000 H1985 0.960 . S
C2000 H1986 0.960 . S
C2000 H1987 0.960 . S
C2000 C1999 1.524 . S
C2001 C1998 1.403 . S
C2001 C2002 1.392 . S
C2001 C2005 1.495 . S
C2002 C2001 1.392 . S
C2002 C2003 1.385 . S
C2002 C2004 1.478 . S
C2003 H1997 0.930 . S
C2003 C1999 1.400 . S
C2003 C2002 1.385 . S
C2004 C2002 1.478 . S
C2004 C2006 1.381 . S
C2004 C2010 1.383 . S
C2005 C2001 1.495 . S
C2005 H2011 0.959 . S
C2005 H2012 0.961 . S
C2005 H2013 0.960 . S
C2006 C2004 1.381 . S
C2006 C2007 1.394 . S
C2006 H2014 0.930 . S
C2007 C2006 1.394 . S
C2007 C2008 1.383 . S
C2007 H2015 0.929 . S
C2008 C2007 1.383 . S
C2008 C2009 1.377 . S
C2009 H1993 0.930 . S
C2009 C2008 1.377 . S
C2009 C2010 1.379 . S
C2010 H1994 0.931 . S
C2010 C2004 1.383 . S
C2010 C2009 1.379 . S
H2011 C2005 0.959 . S
H2012 C2005 0.961 . S
H2013 C2005 0.960 . S
H2014 C2006 0.930 . S
H2015 C2007 0.929 . S
H2016 C2024 0.929 . S
H2017 C2026 0.930 . S
H2018 C2028 0.930 . S
H2019 C2031 0.929 . S
H2020 C2034 0.930 . S
H2021 C2036 0.960 . S
H2022 C2036 0.960 . S
H2023 C2036 0.960 . S
C2024 H2016 0.929 . S
C2024 C2025 1.377 . S
C2024 C2026 1.384 . S
C2025 C2024 1.377 . S
C2025 C2031 1.390 . S
C2026 H2017 0.930 . S
C2026 C2024 1.384 . S
C2026 C2027 1.372 . S
C2027 C2026 1.372 . S
C2027 C2028 1.400 . S
C2027 C2032 1.490 . S
C2028 H2018 0.930 . S
C2028 C2027 1.400 . S
C2028 C2031 1.386 . S
H2029 C2045 0.930 . S
H2030 C2046 0.931 . S
C2031 H2019 0.929 . S
C2031 C2025 1.390 . S
C2031 C2028 1.386 . S
C2032 C2027 1.490 . S
C2032 C2034 1.395 . S
C2032 C2035 1.403 . S
H2033 C2039 0.930 . S
C2034 H2020 0.930 . S
C2034 C2032 1.395 . S
C2034 C2037 1.403 . S
C2035 C2032 1.403 . S
C2035 C2036 1.524 . S
C2035 C2039 1.400 . S
C2036 H2021 0.960 . S
C2036 H2022 0.960 . S
C2036 H2023 0.960 . S
C2036 C2035 1.524 . S
C2037 C2034 1.403 . S
C2037 C2038 1.392 . S
C2037 C2041 1.495 . S
C2038 C2037 1.392 . S
C2038 C2039 1.385 . S
C2038 C2040 1.478 . S
C2039 H2033 0.930 . S
C2039 C2035 1.400 . S
C2039 C2038 1.385 . S
C2040 C2038 1.478 . S
C2040 C2042 1.381 . S
C2040 C2046 1.383 . S
C2041 C2037 1.495 . S
C2041 H2047 0.959 . S
C2041 H2048 0.961 . S
C2041 H2049 0.960 . S
C2042 C2040 1.381 . S
C2042 C2043 1.394 . S
C2042 H2050 0.930 . S
C2043 C2042 1.394 . S
C2043 C2044 1.383 . S
C2043 H2051 0.929 . S
C2044 C2043 1.383 . S
C2044 C2045 1.377 . S
C2045 H2029 0.930 . S
C2045 C2044 1.377 . S
C2045 C2046 1.379 . S
C2046 H2030 0.931 . S
C2046 C2040 1.383 . S
C2046 C2045 1.379 . S
H2047 C2041 0.959 . S
H2048 C2041 0.961 . S
H2049 C2041 0.960 . S
H2050 C2042 0.930 . S
H2051 C2043 0.929 . S
H2052 C2060 0.929 . S
H2053 C2062 0.930 . S
H2054 C2064 0.930 . S
H2055 C2067 0.929 . S
H2056 C2070 0.930 . S
H2057 C2072 0.960 . S
H2058 C2072 0.960 . S
H2059 C2072 0.960 . S
C2060 H2052 0.929 . S
C2060 C2061 1.377 . S
C2060 C2062 1.384 . S
C2061 C2060 1.377 . S
C2061 C2067 1.390 . S
C2062 H2053 0.930 . S
C2062 C2060 1.384 . S
C2062 C2063 1.372 . S
C2063 C2062 1.372 . S
C2063 C2064 1.400 . S
C2063 C2068 1.490 . S
C2064 H2054 0.930 . S
C2064 C2063 1.400 . S
C2064 C2067 1.386 . S
H2065 C2081 0.930 . S
H2066 C2082 0.931 . S
C2067 H2055 0.929 . S
C2067 C2061 1.390 . S
C2067 C2064 1.386 . S
C2068 C2063 1.490 . S
C2068 C2070 1.395 . S
C2068 C2071 1.403 . S
H2069 C2075 0.930 . S
C2070 H2056 0.930 . S
C2070 C2068 1.395 . S
C2070 C2073 1.403 . S
C2071 C2068 1.403 . S
C2071 C2072 1.524 . S
C2071 C2075 1.400 . S
C2072 H2057 0.960 . S
C2072 H2058 0.960 . S
C2072 H2059 0.960 . S
C2072 C2071 1.524 . S
C2073 C2070 1.403 . S
C2073 C2074 1.392 . S
C2073 C2077 1.495 . S
C2074 C2073 1.392 . S
C2074 C2075 1.385 . S
C2074 C2076 1.478 . S
C2075 H2069 0.930 . S
C2075 C2071 1.400 . S
C2075 C2074 1.385 . S
C2076 C2074 1.478 . S
C2076 C2078 1.381 . S
C2076 C2082 1.383 . S
C2077 C2073 1.495 . S
C2077 H2083 0.959 . S
C2077 H2084 0.961 . S
C2077 H2085 0.960 . S
C2078 C2076 1.381 . S
C2078 C2079 1.394 . S
C2078 H2086 0.930 . S
C2079 C2078 1.394 . S
C2079 C2080 1.383 . S
C2079 H2087 0.929 . S
C2080 C2079 1.383 . S
C2080 C2081 1.377 . S
C2081 H2065 0.930 . S
C2081 C2080 1.377 . S
C2081 C2082 1.379 . S
C2082 H2066 0.931 . S
C2082 C2076 1.383 . S
C2082 C2081 1.379 . S
H2083 C2077 0.959 . S
H2084 C2077 0.961 . S
H2085 C2077 0.960 . S
H2086 C2078 0.930 . S
H2087 C2079 0.929 . S
H2088 C2096 0.929 . S
H2089 C2098 0.930 . S
H2090 C2100 0.930 . S
H2091 C2103 0.929 . S
H2092 C2106 0.930 . S
H2093 C2108 0.960 . S
H2094 C2108 0.960 . S
H2095 C2108 0.960 . S
C2096 H2088 0.929 . S
C2096 C2097 1.377 . S
C2096 C2098 1.384 . S
C2097 C2096 1.377 . S
C2097 C2103 1.390 . S
C2098 H2089 0.930 . S
C2098 C2096 1.384 . S
C2098 C2099 1.372 . S
C2099 C2098 1.372 . S
C2099 C2100 1.400 . S
C2099 C2104 1.490 . S
C2100 H2090 0.930 . S
C2100 C2099 1.400 . S
C2100 C2103 1.386 . S
H2101 C2117 0.930 . S
H2102 C2118 0.931 . S
C2103 H2091 0.929 . S
C2103 C2097 1.390 . S
C2103 C2100 1.386 . S
C2104 C2099 1.490 . S
C2104 C2106 1.395 . S
C2104 C2107 1.403 . S
H2105 C2111 0.930 . S
C2106 H2092 0.930 . S
C2106 C2104 1.395 . S
C2106 C2109 1.403 . S
C2107 C2104 1.403 . S
C2107 C2108 1.524 . S
C2107 C2111 1.400 . S
C2108 H2093 0.960 . S
C2108 H2094 0.960 . S
C2108 H2095 0.960 . S
C2108 C2107 1.524 . S
C2109 C2106 1.403 . S
C2109 C2110 1.392 . S
C2109 C2113 1.495 . S
C2110 C2109 1.392 . S
C2110 C2111 1.385 . S
C2110 C2112 1.478 . S
C2111 H2105 0.930 . S
C2111 C2107 1.400 . S
C2111 C2110 1.385 . S
C2112 C2110 1.478 . S
C2112 C2114 1.381 . S
C2112 C2118 1.383 . S
C2113 C2109 1.495 . S
C2113 H2119 0.959 . S
C2113 H2120 0.961 . S
C2113 H2121 0.960 . S
C2114 C2112 1.381 . S
C2114 C2115 1.394 . S
C2114 H2122 0.930 . S
C2115 C2114 1.394 . S
C2115 C2116 1.383 . S
C2115 H2123 0.929 . S
C2116 C2115 1.383 . S
C2116 C2117 1.377 . S
C2117 H2101 0.930 . S
C2117 C2116 1.377 . S
C2117 C2118 1.379 . S
C2118 H2102 0.931 . S
C2118 C2112 1.383 . S
C2118 C2117 1.379 . S
H2119 C2113 0.959 . S
H2120 C2113 0.961 . S
H2121 C2113 0.960 . S
H2122 C2114 0.930 . S
H2123 C2115 0.929 . S
H2124 C2132 0.929 . S
H2125 C2134 0.930 . S
H2126 C2136 0.930 . S
H2127 C2139 0.929 . S
H2128 C2142 0.930 . S
H2129 C2144 0.960 . S
H2130 C2144 0.960 . S
H2131 C2144 0.960 . S
C2132 H2124 0.929 . S
C2132 C2133 1.377 . S
C2132 C2134 1.384 . S
C2133 C2132 1.377 . S
C2133 C2139 1.390 . S
C2134 H2125 0.930 . S
C2134 C2132 1.384 . S
C2134 C2135 1.372 . S
C2135 C2134 1.372 . S
C2135 C2136 1.400 . S
C2135 C2140 1.490 . S
C2136 H2126 0.930 . S
C2136 C2135 1.400 . S
C2136 C2139 1.386 . S
H2137 C2153 0.930 . S
H2138 C2154 0.931 . S
C2139 H2127 0.929 . S
C2139 C2133 1.390 . S
C2139 C2136 1.386 . S
C2140 C2135 1.490 . S
C2140 C2142 1.395 . S
C2140 C2143 1.403 . S
H2141 C2147 0.930 . S
C2142 H2128 0.930 . S
C2142 C2140 1.395 . S
C2142 C2145 1.403 . S
C2143 C2140 1.403 . S
C2143 C2144 1.524 . S
C2143 C2147 1.400 . S
C2144 H2129 0.960 . S
C2144 H2130 0.960 . S
C2144 H2131 0.960 . S
C2144 C2143 1.524 . S
C2145 C2142 1.403 . S
C2145 C2146 1.392 . S
C2145 C2149 1.495 . S
C2146 C2145 1.392 . S
C2146 C2147 1.385 . S
C2146 C2148 1.478 . S
C2147 H2141 0.930 . S
C2147 C2143 1.400 . S
C2147 C2146 1.385 . S
C2148 C2146 1.478 . S
C2148 C2150 1.381 . S
C2148 C2154 1.383 . S
C2149 C2145 1.495 . S
C2149 H2155 0.959 . S
C2149 H2156 0.961 . S
C2149 H2157 0.960 . S
C2150 C2148 1.381 . S
C2150 C2151 1.394 . S
C2150 H2158 0.930 . S
C2151 C2150 1.394 . S
C2151 C2152 1.383 . S
C2151 H2159 0.929 . S
C2152 C2151 1.383 . S
C2152 C2153 1.377 . S
C2153 H2137 0.930 . S
C2153 C2152 1.377 . S
C2153 C2154 1.379 . S
C2154 H2138 0.931 . S
C2154 C2148 1.383 . S
C2154 C2153 1.379 . S
H2155 C2149 0.959 . S
H2156 C2149 0.961 . S
H2157 C2149 0.960 . S
H2158 C2150 0.930 . S
H2159 C2151 0.929 . S
H2160 C2168 0.929 . S
H2161 C2170 0.930 . S
H2162 C2172 0.930 . S
H2163 C2175 0.929 . S
H2164 C2178 0.930 . S
H2165 C2180 0.960 . S
H2166 C2180 0.960 . S
H2167 C2180 0.960 . S
C2168 H2160 0.929 . S
C2168 C2169 1.377 . S
C2168 C2170 1.384 . S
C2169 C2168 1.377 . S
C2169 C2175 1.390 . S
C2170 H2161 0.930 . S
C2170 C2168 1.384 . S
C2170 C2171 1.372 . S
C2171 C2170 1.372 . S
C2171 C2172 1.400 . S
C2171 C2176 1.490 . S
C2172 H2162 0.930 . S
C2172 C2171 1.400 . S
C2172 C2175 1.386 . S
H2173 C2189 0.930 . S
H2174 C2190 0.931 . S
C2175 H2163 0.929 . S
C2175 C2169 1.390 . S
C2175 C2172 1.386 . S
C2176 C2171 1.490 . S
C2176 C2178 1.395 . S
C2176 C2179 1.403 . S
H2177 C2183 0.930 . S
C2178 H2164 0.930 . S
C2178 C2176 1.395 . S
C2178 C2181 1.403 . S
C2179 C2176 1.403 . S
C2179 C2180 1.524 . S
C2179 C2183 1.400 . S
C2180 H2165 0.960 . S
C2180 H2166 0.960 . S
C2180 H2167 0.960 . S
C2180 C2179 1.524 . S
C2181 C2178 1.403 . S
C2181 C2182 1.392 . S
C2181 C2185 1.495 . S
C2182 C2181 1.392 . S
C2182 C2183 1.385 . S
C2182 C2184 1.478 . S
C2183 H2177 0.930 . S
C2183 C2179 1.400 . S
C2183 C2182 1.385 . S
C2184 C2182 1.478 . S
C2184 C2186 1.381 . S
C2184 C2190 1.383 . S
C2185 C2181 1.495 . S
C2185 H2191 0.959 . S
C2185 H2192 0.961 . S
C2185 H2193 0.960 . S
C2186 C2184 1.381 . S
C2186 C2187 1.394 . S
C2186 H2194 0.930 . S
C2187 C2186 1.394 . S
C2187 C2188 1.383 . S
C2187 H2195 0.929 . S
C2188 C2187 1.383 . S
C2188 C2189 1.377 . S
C2189 H2173 0.930 . S
C2189 C2188 1.377 . S
C2189 C2190 1.379 . S
C2190 H2174 0.931 . S
C2190 C2184 1.383 . S
C2190 C2189 1.379 . S
H2191 C2185 0.959 . S
H2192 C2185 0.961 . S
H2193 C2185 0.960 . S
H2194 C2186 0.930 . S
H2195 C2187 0.929 . S
H2196 C2204 0.929 . S
H2197 C2206 0.930 . S
H2198 C2208 0.930 . S
H2199 C2211 0.929 . S
H2200 C2214 0.930 . S
H2201 C2216 0.960 . S
H2202 C2216 0.960 . S
H2203 C2216 0.960 . S
C2204 H2196 0.929 . S
C2204 C2205 1.377 . S
C2204 C2206 1.384 . S
C2205 C2204 1.377 . S
C2205 C2211 1.390 . S
C2206 H2197 0.930 . S
C2206 C2204 1.384 . S
C2206 C2207 1.372 . S
C2207 C2206 1.372 . S
C2207 C2208 1.400 . S
C2207 C2212 1.490 . S
C2208 H2198 0.930 . S
C2208 C2207 1.400 . S
C2208 C2211 1.386 . S
H2209 C2225 0.930 . S
H2210 C2226 0.931 . S
C2211 H2199 0.929 . S
C2211 C2205 1.390 . S
C2211 C2208 1.386 . S
C2212 C2207 1.490 . S
C2212 C2214 1.395 . S
C2212 C2215 1.403 . S
H2213 C2219 0.930 . S
C2214 H2200 0.930 . S
C2214 C2212 1.395 . S
C2214 C2217 1.403 . S
C2215 C2212 1.403 . S
C2215 C2216 1.524 . S
C2215 C2219 1.400 . S
C2216 H2201 0.960 . S
C2216 H2202 0.960 . S
C2216 H2203 0.960 . S
C2216 C2215 1.524 . S
C2217 C2214 1.403 . S
C2217 C2218 1.392 . S
C2217 C2221 1.495 . S
C2218 C2217 1.392 . S
C2218 C2219 1.385 . S
C2218 C2220 1.478 . S
C2219 H2213 0.930 . S
C2219 C2215 1.400 . S
C2219 C2218 1.385 . S
C2220 C2218 1.478 . S
C2220 C2222 1.381 . S
C2220 C2226 1.383 . S
C2221 C2217 1.495 . S
C2221 H2227 0.959 . S
C2221 H2228 0.961 . S
C2221 H2229 0.960 . S
C2222 C2220 1.381 . S
C2222 C2223 1.394 . S
C2222 H2230 0.930 . S
C2223 C2222 1.394 . S
C2223 C2224 1.383 . S
C2223 H2231 0.929 . S
C2224 C2223 1.383 . S
C2224 C2225 1.377 . S
C2225 H2209 0.930 . S
C2225 C2224 1.377 . S
C2225 C2226 1.379 . S
C2226 H2210 0.931 . S
C2226 C2220 1.383 . S
C2226 C2225 1.379 . S
H2227 C2221 0.959 . S
H2228 C2221 0.961 . S
H2229 C2221 0.960 . S
H2230 C2222 0.930 . S
H2231 C2223 0.929 . S
H2232 C2240 0.929 . S
H2233 C2242 0.930 . S
H2234 C2244 0.930 . S
H2235 C2247 0.929 . S
H2236 C2250 0.930 . S
H2237 C2252 0.960 . S
H2238 C2252 0.960 . S
H2239 C2252 0.960 . S
C2240 H2232 0.929 . S
C2240 C2241 1.377 . S
C2240 C2242 1.384 . S
C2241 C2240 1.377 . S
C2241 C2247 1.390 . S
C2242 H2233 0.930 . S
C2242 C2240 1.384 . S
C2242 C2243 1.372 . S
C2243 C2242 1.372 . S
C2243 C2244 1.400 . S
C2243 C2248 1.490 . S
C2244 H2234 0.930 . S
C2244 C2243 1.400 . S
C2244 C2247 1.386 . S
H2245 C2261 0.930 . S
H2246 C2262 0.931 . S
C2247 H2235 0.929 . S
C2247 C2241 1.390 . S
C2247 C2244 1.386 . S
C2248 C2243 1.490 . S
C2248 C2250 1.395 . S
C2248 C2251 1.403 . S
H2249 C2255 0.930 . S
C2250 H2236 0.930 . S
C2250 C2248 1.395 . S
C2250 C2253 1.403 . S
C2251 C2248 1.403 . S
C2251 C2252 1.524 . S
C2251 C2255 1.400 . S
C2252 H2237 0.960 . S
C2252 H2238 0.960 . S
C2252 H2239 0.960 . S
C2252 C2251 1.524 . S
C2253 C2250 1.403 . S
C2253 C2254 1.392 . S
C2253 C2257 1.495 . S
C2254 C2253 1.392 . S
C2254 C2255 1.385 . S
C2254 C2256 1.478 . S
C2255 H2249 0.930 . S
C2255 C2251 1.400 . S
C2255 C2254 1.385 . S
C2256 C2254 1.478 . S
C2256 C2258 1.381 . S
C2256 C2262 1.383 . S
C2257 C2253 1.495 . S
C2257 H2263 0.959 . S
C2257 H2264 0.961 . S
C2257 H2265 0.960 . S
C2258 C2256 1.381 . S
C2258 C2259 1.394 . S
C2258 H2266 0.930 . S
C2259 C2258 1.394 . S
C2259 C2260 1.383 . S
C2259 H2267 0.929 . S
C2260 C2259 1.383 . S
C2260 C2261 1.377 . S
C2261 H2245 0.930 . S
C2261 C2260 1.377 . S
C2261 C2262 1.379 . S
C2262 H2246 0.931 . S
C2262 C2256 1.383 . S
C2262 C2261 1.379 . S
H2263 C2257 0.959 . S
H2264 C2257 0.961 . S
H2265 C2257 0.960 . S
H2266 C2258 0.930 . S
H2267 C2259 0.929 . S
H2268 C2276 0.929 . S
H2269 C2278 0.930 . S
H2270 C2280 0.930 . S
H2271 C2283 0.929 . S
H2272 C2286 0.930 . S
H2273 C2288 0.960 . S
H2274 C2288 0.960 . S
H2275 C2288 0.960 . S
C2276 H2268 0.929 . S
C2276 C2277 1.377 . S
C2276 C2278 1.384 . S
C2277 C2276 1.377 . S
C2277 C2283 1.390 . S
C2278 H2269 0.930 . S
C2278 C2276 1.384 . S
C2278 C2279 1.372 . S
C2279 C2278 1.372 . S
C2279 C2280 1.400 . S
C2279 C2284 1.490 . S
C2280 H2270 0.930 . S
C2280 C2279 1.400 . S
C2280 C2283 1.386 . S
H2281 C2297 0.930 . S
H2282 C2298 0.931 . S
C2283 H2271 0.929 . S
C2283 C2277 1.390 . S
C2283 C2280 1.386 . S
C2284 C2279 1.490 . S
C2284 C2286 1.395 . S
C2284 C2287 1.403 . S
H2285 C2291 0.930 . S
C2286 H2272 0.930 . S
C2286 C2284 1.395 . S
C2286 C2289 1.403 . S
C2287 C2284 1.403 . S
C2287 C2288 1.524 . S
C2287 C2291 1.400 . S
C2288 H2273 0.960 . S
C2288 H2274 0.960 . S
C2288 H2275 0.960 . S
C2288 C2287 1.524 . S
C2289 C2286 1.403 . S
C2289 C2290 1.392 . S
C2289 C2293 1.495 . S
C2290 C2289 1.392 . S
C2290 C2291 1.385 . S
C2290 C2292 1.478 . S
C2291 H2285 0.930 . S
C2291 C2287 1.400 . S
C2291 C2290 1.385 . S
C2292 C2290 1.478 . S
C2292 C2294 1.381 . S
C2292 C2298 1.383 . S
C2293 C2289 1.495 . S
C2293 H2299 0.959 . S
C2293 H2300 0.961 . S
C2293 H2301 0.960 . S
C2294 C2292 1.381 . S
C2294 C2295 1.394 . S
C2294 H2302 0.930 . S
C2295 C2294 1.394 . S
C2295 C2296 1.383 . S
C2295 H2303 0.929 . S
C2296 C2295 1.383 . S
C2296 C2297 1.377 . S
C2297 H2281 0.930 . S
C2297 C2296 1.377 . S
C2297 C2298 1.379 . S
C2298 H2282 0.931 . S
C2298 C2292 1.383 . S
C2298 C2297 1.379 . S
H2299 C2293 0.959 . S
H2300 C2293 0.961 . S
H2301 C2293 0.960 . S
H2302 C2294 0.930 . S
H2303 C2295 0.929 . S
H2304 C2312 0.929 . S
H2305 C2314 0.930 . S
H2306 C2316 0.930 . S
H2307 C2319 0.929 . S
H2308 C2322 0.930 . S
H2309 C2324 0.960 . S
H2310 C2324 0.960 . S
H2311 C2324 0.960 . S
C2312 H2304 0.929 . S
C2312 C2313 1.377 . S
C2312 C2314 1.384 . S
C2313 C2312 1.377 . S
C2313 C2319 1.390 . S
C2314 H2305 0.930 . S
C2314 C2312 1.384 . S
C2314 C2315 1.372 . S
C2315 C2314 1.372 . S
C2315 C2316 1.400 . S
C2315 C2320 1.490 . S
C2316 H2306 0.930 . S
C2316 C2315 1.400 . S
C2316 C2319 1.386 . S
H2317 C2333 0.930 . S
H2318 C2334 0.931 . S
C2319 H2307 0.929 . S
C2319 C2313 1.390 . S
C2319 C2316 1.386 . S
C2320 C2315 1.490 . S
C2320 C2322 1.395 . S
C2320 C2323 1.403 . S
H2321 C2327 0.930 . S
C2322 H2308 0.930 . S
C2322 C2320 1.395 . S
C2322 C2325 1.403 . S
C2323 C2320 1.403 . S
C2323 C2324 1.524 . S
C2323 C2327 1.400 . S
C2324 H2309 0.960 . S
C2324 H2310 0.960 . S
C2324 H2311 0.960 . S
C2324 C2323 1.524 . S
C2325 C2322 1.403 . S
C2325 C2326 1.392 . S
C2325 C2329 1.495 . S
C2326 C2325 1.392 . S
C2326 C2327 1.385 . S
C2326 C2328 1.478 . S
C2327 H2321 0.930 . S
C2327 C2323 1.400 . S
C2327 C2326 1.385 . S
C2328 C2326 1.478 . S
C2328 C2330 1.381 . S
C2328 C2334 1.383 . S
C2329 C2325 1.495 . S
C2329 H2335 0.959 . S
C2329 H2336 0.961 . S
C2329 H2337 0.960 . S
C2330 C2328 1.381 . S
C2330 C2331 1.394 . S
C2330 H2338 0.930 . S
C2331 C2330 1.394 . S
C2331 C2332 1.383 . S
C2331 H2339 0.929 . S
C2332 C2331 1.383 . S
C2332 C2333 1.377 . S
C2333 H2317 0.930 . S
C2333 C2332 1.377 . S
C2333 C2334 1.379 . S
C2334 H2318 0.931 . S
C2334 C2328 1.383 . S
C2334 C2333 1.379 . S
H2335 C2329 0.959 . S
H2336 C2329 0.961 . S
H2337 C2329 0.960 . S
H2338 C2330 0.930 . S
H2339 C2331 0.929 . S
H2340 C2348 0.929 . S
H2341 C2350 0.930 . S
H2342 C2352 0.930 . S
H2343 C2355 0.929 . S
H2344 C2358 0.930 . S
H2345 C2360 0.960 . S
H2346 C2360 0.960 . S
H2347 C2360 0.960 . S
C2348 H2340 0.929 . S
C2348 C2349 1.377 . S
C2348 C2350 1.384 . S
C2349 C2348 1.377 . S
C2349 C2355 1.390 . S
C2350 H2341 0.930 . S
C2350 C2348 1.384 . S
C2350 C2351 1.372 . S
C2351 C2350 1.372 . S
C2351 C2352 1.400 . S
C2351 C2356 1.490 . S
C2352 H2342 0.930 . S
C2352 C2351 1.400 . S
C2352 C2355 1.386 . S
H2353 C2369 0.930 . S
H2354 C2370 0.931 . S
C2355 H2343 0.929 . S
C2355 C2349 1.390 . S
C2355 C2352 1.386 . S
C2356 C2351 1.490 . S
C2356 C2358 1.395 . S
C2356 C2359 1.403 . S
H2357 C2363 0.930 . S
C2358 H2344 0.930 . S
C2358 C2356 1.395 . S
C2358 C2361 1.403 . S
C2359 C2356 1.403 . S
C2359 C2360 1.524 . S
C2359 C2363 1.400 . S
C2360 H2345 0.960 . S
C2360 H2346 0.960 . S
C2360 H2347 0.960 . S
C2360 C2359 1.524 . S
C2361 C2358 1.403 . S
C2361 C2362 1.392 . S
C2361 C2365 1.495 . S
C2362 C2361 1.392 . S
C2362 C2363 1.385 . S
C2362 C2364 1.478 . S
C2363 H2357 0.930 . S
C2363 C2359 1.400 . S
C2363 C2362 1.385 . S
C2364 C2362 1.478 . S
C2364 C2366 1.381 . S
C2364 C2370 1.383 . S
C2365 C2361 1.495 . S
C2365 H2371 0.959 . S
C2365 H2372 0.961 . S
C2365 H2373 0.960 . S
C2366 C2364 1.381 . S
C2366 C2367 1.394 . S
C2366 H2374 0.930 . S
C2367 C2366 1.394 . S
C2367 C2368 1.383 . S
C2367 H2375 0.929 . S
C2368 C2367 1.383 . S
C2368 C2369 1.377 . S
C2369 H2353 0.930 . S
C2369 C2368 1.377 . S
C2369 C2370 1.379 . S
C2370 H2354 0.931 . S
C2370 C2364 1.383 . S
C2370 C2369 1.379 . S
H2371 C2365 0.959 . S
H2372 C2365 0.961 . S
H2373 C2365 0.960 . S
H2374 C2366 0.930 . S
H2375 C2367 0.929 . S
H2376 C2384 0.929 . S
H2377 C2386 0.930 . S
H2378 C2388 0.930 . S
H2379 C2391 0.929 . S
H2380 C2394 0.930 . S
H2381 C2396 0.960 . S
H2382 C2396 0.960 . S
H2383 C2396 0.960 . S
C2384 H2376 0.929 . S
C2384 C2385 1.377 . S
C2384 C2386 1.384 . S
C2385 C2384 1.377 . S
C2385 C2391 1.390 . S
C2386 H2377 0.930 . S
C2386 C2384 1.384 . S
C2386 C2387 1.372 . S
C2387 C2386 1.372 . S
C2387 C2388 1.400 . S
C2387 C2392 1.490 . S
C2388 H2378 0.930 . S
C2388 C2387 1.400 . S
C2388 C2391 1.386 . S
H2389 C2405 0.930 . S
H2390 C2406 0.931 . S
C2391 H2379 0.929 . S
C2391 C2385 1.390 . S
C2391 C2388 1.386 . S
C2392 C2387 1.490 . S
C2392 C2394 1.395 . S
C2392 C2395 1.403 . S
H2393 C2399 0.930 . S
C2394 H2380 0.930 . S
C2394 C2392 1.395 . S
C2394 C2397 1.403 . S
C2395 C2392 1.403 . S
C2395 C2396 1.524 . S
C2395 C2399 1.400 . S
C2396 H2381 0.960 . S
C2396 H2382 0.960 . S
C2396 H2383 0.960 . S
C2396 C2395 1.524 . S
C2397 C2394 1.403 . S
C2397 C2398 1.392 . S
C2397 C2401 1.495 . S
C2398 C2397 1.392 . S
C2398 C2399 1.385 . S
C2398 C2400 1.478 . S
C2399 H2393 0.930 . S
C2399 C2395 1.400 . S
C2399 C2398 1.385 . S
C2400 C2398 1.478 . S
C2400 C2402 1.381 . S
C2400 C2406 1.383 . S
C2401 C2397 1.495 . S
C2401 H2407 0.959 . S
C2401 H2408 0.961 . S
C2401 H2409 0.960 . S
C2402 C2400 1.381 . S
C2402 C2403 1.394 . S
C2402 H2410 0.930 . S
C2403 C2402 1.394 . S
C2403 C2404 1.383 . S
C2403 H2411 0.929 . S
C2404 C2403 1.383 . S
C2404 C2405 1.377 . S
C2405 H2389 0.930 . S
C2405 C2404 1.377 . S
C2405 C2406 1.379 . S
C2406 H2390 0.931 . S
C2406 C2400 1.383 . S
C2406 C2405 1.379 . S
H2407 C2401 0.959 . S
H2408 C2401 0.961 . S
H2409 C2401 0.960 . S
H2410 C2402 0.930 . S
H2411 C2403 0.929 . S
H2412 C2420 0.929 . S
H2413 C2422 0.930 . S
H2414 C2424 0.930 . S
H2415 C2427 0.929 . S
H2416 C2430 0.930 . S
H2417 C2432 0.960 . S
H2418 C2432 0.960 . S
H2419 C2432 0.960 . S
C2420 H2412 0.929 . S
C2420 C2421 1.377 . S
C2420 C2422 1.384 . S
C2421 C2420 1.377 . S
C2421 C2427 1.390 . S
C2422 H2413 0.930 . S
C2422 C2420 1.384 . S
C2422 C2423 1.372 . S
C2423 C2422 1.372 . S
C2423 C2424 1.400 . S
C2423 C2428 1.490 . S
C2424 H2414 0.930 . S
C2424 C2423 1.400 . S
C2424 C2427 1.386 . S
H2425 C2441 0.930 . S
H2426 C2442 0.931 . S
C2427 H2415 0.929 . S
C2427 C2421 1.390 . S
C2427 C2424 1.386 . S
C2428 C2423 1.490 . S
C2428 C2430 1.395 . S
C2428 C2431 1.403 . S
H2429 C2435 0.930 . S
C2430 H2416 0.930 . S
C2430 C2428 1.395 . S
C2430 C2433 1.403 . S
C2431 C2428 1.403 . S
C2431 C2432 1.524 . S
C2431 C2435 1.400 . S
C2432 H2417 0.960 . S
C2432 H2418 0.960 . S
C2432 H2419 0.960 . S
C2432 C2431 1.524 . S
C2433 C2430 1.403 . S
C2433 C2434 1.392 . S
C2433 C2437 1.495 . S
C2434 C2433 1.392 . S
C2434 C2435 1.385 . S
C2434 C2436 1.478 . S
C2435 H2429 0.930 . S
C2435 C2431 1.400 . S
C2435 C2434 1.385 . S
C2436 C2434 1.478 . S
C2436 C2438 1.381 . S
C2436 C2442 1.383 . S
C2437 C2433 1.495 . S
C2437 H2443 0.959 . S
C2437 H2444 0.961 . S
C2437 H2445 0.960 . S
C2438 C2436 1.381 . S
C2438 C2439 1.394 . S
C2438 H2446 0.930 . S
C2439 C2438 1.394 . S
C2439 C2440 1.383 . S
C2439 H2447 0.929 . S
C2440 C2439 1.383 . S
C2440 C2441 1.377 . S
C2441 H2425 0.930 . S
C2441 C2440 1.377 . S
C2441 C2442 1.379 . S
C2442 H2426 0.931 . S
C2442 C2436 1.383 . S
C2442 C2441 1.379 . S
H2443 C2437 0.959 . S
H2444 C2437 0.961 . S
H2445 C2437 0.960 . S
H2446 C2438 0.930 . S
H2447 C2439 0.929 . S
H2448 C2456 0.929 . S
H2449 C2458 0.930 . S
H2450 C2460 0.930 . S
H2451 C2463 0.929 . S
H2452 C2466 0.930 . S
H2453 C2468 0.960 . S
H2454 C2468 0.960 . S
H2455 C2468 0.960 . S
C2456 H2448 0.929 . S
C2456 C2457 1.377 . S
C2456 C2458 1.384 . S
C2457 C2456 1.377 . S
C2457 C2463 1.390 . S
C2458 H2449 0.930 . S
C2458 C2456 1.384 . S
C2458 C2459 1.372 . S
C2459 C2458 1.372 . S
C2459 C2460 1.400 . S
C2459 C2464 1.490 . S
C2460 H2450 0.930 . S
C2460 C2459 1.400 . S
C2460 C2463 1.386 . S
H2461 C2477 0.930 . S
H2462 C2478 0.931 . S
C2463 H2451 0.929 . S
C2463 C2457 1.390 . S
C2463 C2460 1.386 . S
C2464 C2459 1.490 . S
C2464 C2466 1.395 . S
C2464 C2467 1.403 . S
H2465 C2471 0.930 . S
C2466 H2452 0.930 . S
C2466 C2464 1.395 . S
C2466 C2469 1.403 . S
C2467 C2464 1.403 . S
C2467 C2468 1.524 . S
C2467 C2471 1.400 . S
C2468 H2453 0.960 . S
C2468 H2454 0.960 . S
C2468 H2455 0.960 . S
C2468 C2467 1.524 . S
C2469 C2466 1.403 . S
C2469 C2470 1.392 . S
C2469 C2473 1.495 . S
C2470 C2469 1.392 . S
C2470 C2471 1.385 . S
C2470 C2472 1.478 . S
C2471 H2465 0.930 . S
C2471 C2467 1.400 . S
C2471 C2470 1.385 . S
C2472 C2470 1.478 . S
C2472 C2474 1.381 . S
C2472 C2478 1.383 . S
C2473 C2469 1.495 . S
C2473 H2479 0.959 . S
C2473 H2480 0.961 . S
C2473 H2481 0.960 . S
C2474 C2472 1.381 . S
C2474 C2475 1.394 . S
C2474 H2482 0.930 . S
C2475 C2474 1.394 . S
C2475 C2476 1.383 . S
C2475 H2483 0.929 . S
C2476 C2475 1.383 . S
C2476 C2477 1.377 . S
C2477 H2461 0.930 . S
C2477 C2476 1.377 . S
C2477 C2478 1.379 . S
C2478 H2462 0.931 . S
C2478 C2472 1.383 . S
C2478 C2477 1.379 . S
H2479 C2473 0.959 . S
H2480 C2473 0.961 . S
H2481 C2473 0.960 . S
H2482 C2474 0.930 . S
H2483 C2475 0.929 . S
H2484 C2492 0.929 . S
H2485 C2494 0.930 . S
H2486 C2496 0.930 . S
H2487 C2499 0.929 . S
H2488 C2502 0.930 . S
H2489 C2504 0.960 . S
H2490 C2504 0.960 . S
H2491 C2504 0.960 . S
C2492 H2484 0.929 . S
C2492 C2493 1.377 . S
C2492 C2494 1.384 . S
C2493 C2492 1.377 . S
C2493 C2499 1.390 1_545 S
C2494 H2485 0.930 . S
C2494 C2492 1.384 . S
C2494 C2495 1.372 . S
C2495 C2494 1.372 . S
C2495 C2496 1.400 1_545 S
C2495 C2500 1.490 . S
C2496 H2486 0.930 . S
C2496 C2495 1.400 1_565 S
C2496 C2499 1.386 . S
H2497 C2513 0.930 . S
H2498 C2514 0.931 . S
C2499 H2487 0.929 . S
C2499 C2493 1.390 1_565 S
C2499 C2496 1.386 . S
C2500 C2495 1.490 . S
C2500 C2502 1.395 . S
C2500 C2503 1.403 1_545 S
H2501 C2507 0.930 . S
C2502 H2488 0.930 . S
C2502 C2500 1.395 . S
C2502 C2505 1.403 . S
C2503 C2500 1.403 1_565 S
C2503 C2504 1.524 . S
C2503 C2507 1.400 . S
C2504 H2489 0.960 . S
C2504 H2490 0.960 . S
C2504 H2491 0.960 . S
C2504 C2503 1.524 . S
C2505 C2502 1.403 . S
C2505 C2506 1.429 . S
C2505 C2509 1.495 . S
C2506 C2505 1.429 . S
C2506 C2507 1.351 1_545 S
C2506 C2508 1.473 1_545 S
C2507 H2501 0.930 . S
C2507 C2503 1.400 . S
C2507 C2506 1.351 1_565 S
C2508 C2506 1.473 1_565 S
C2508 C2510 1.381 1_565 S
C2508 C2514 1.383 . S
C2509 C2505 1.495 . S
C2509 H2515 0.959 . S
C2509 H2516 0.961 . S
C2509 H2517 0.960 . S
C2510 C2508 1.381 1_545 S
C2510 C2511 1.394 . S
C2510 H2518 0.930 . S
C2511 C2510 1.394 . S
C2511 C2512 1.383 1_545 S
C2511 H2519 0.929 . S
C2512 C2511 1.383 1_565 S
C2512 C2513 1.377 . S
C2513 H2497 0.930 . S
C2513 C2512 1.377 . S
C2513 C2514 1.379 . S
C2514 H2498 0.931 . S
C2514 C2508 1.383 . S
C2514 C2513 1.379 . S
H2515 C2509 0.959 . S
H2516 C2509 0.961 . S
H2517 C2509 0.960 . S
H2518 C2510 0.930 . S
H2519 C2511 0.929 . S
H2520 C2528 0.929 . S
H2521 C2530 0.930 . S
H2522 C2532 0.930 . S
H2523 C2535 0.929 . S
H2524 C2538 0.930 . S
H2525 C2540 0.960 . S
H2526 C2540 0.960 1_455 S
H2527 C2540 0.960 . S
C2528 H2520 0.929 . S
C2528 C2529 1.377 . S
C2528 C2530 1.384 . S
C2529 C2528 1.377 . S
C2529 C2535 1.390 1_455 S
C2530 H2521 0.930 . S
C2530 C2528 1.384 . S
C2530 C2531 1.372 . S
C2531 C2530 1.372 . S
C2531 C2532 1.400 1_455 S
C2531 C2536 1.490 . S
C2532 H2522 0.930 . S
C2532 C2531 1.400 1_655 S
C2532 C2535 1.386 . S
H2533 C2549 0.930 . S
H2534 C2550 0.931 . S
C2535 H2523 0.929 . S
C2535 C2529 1.390 1_655 S
C2535 C2532 1.386 . S
C2536 C2531 1.490 . S
C2536 C2538 1.395 . S
C2536 C2539 1.403 1_455 S
H2537 C2543 0.930 . S
C2538 H2524 0.930 . S
C2538 C2536 1.395 . S
C2538 C2541 1.403 . S
C2539 C2536 1.403 1_655 S
C2539 C2540 1.524 . S
C2539 C2543 1.400 . S
C2540 H2525 0.960 . S
C2540 H2526 0.960 1_655 S
C2540 H2527 0.960 . S
C2540 C2539 1.524 . S
C2541 C2538 1.403 . S
C2541 C2542 1.348 1_455 S
C2541 C2545 1.495 . S
C2542 C2541 1.348 1_655 S
C2542 C2543 1.425 . S
C2542 C2544 1.487 . S
C2543 H2537 0.930 . S
C2543 C2539 1.400 . S
C2543 C2542 1.425 . S
C2544 C2542 1.487 . S
C2544 C2546 1.381 1_655 S
C2544 C2550 1.383 . S
C2545 C2541 1.495 . S
C2545 H2551 0.959 . S
C2545 H2552 0.983 . S
C2545 H2553 0.960 . S
C2546 C2544 1.381 1_455 S
C2546 C2547 1.394 . S
C2546 H2554 0.930 . S
C2547 C2546 1.394 . S
C2547 C2548 1.383 1_455 S
C2547 H2555 0.929 . S
C2548 C2547 1.383 1_655 S
C2548 C2549 1.377 . S
C2549 H2533 0.930 . S
C2549 C2548 1.377 . S
C2549 C2550 1.379 . S
C2550 H2534 0.931 . S
C2550 C2544 1.383 . S
C2550 C2549 1.379 . S
H2551 C2545 0.959 . S
H2552 C2545 0.983 . S
H2553 C2545 0.960 . S
H2554 C2546 0.930 . S
H2555 C2547 0.929 . S
H2556 C2564 0.929 . S
H2557 C2566 0.930 . S
H2558 C2568 0.930 . S
H2559 C2571 0.929 . S
H2560 C2574 0.930 . S
H2561 C2576 0.960 . S
H2562 C2576 0.960 . S
H2563 C2576 0.960 . S
C2564 H2556 0.929 . S
C2564 C2565 1.377 . S
C2564 C2566 1.384 . S
C2565 C2564 1.377 . S
C2565 C2571 1.390 . S
C2566 H2557 0.930 . S
C2566 C2564 1.384 . S
C2566 C2567 1.372 . S
C2567 C2566 1.372 . S
C2567 C2568 1.400 . S
C2567 C2572 1.490 . S
C2568 H2558 0.930 . S
C2568 C2567 1.400 . S
C2568 C2571 1.386 . S
H2569 C2585 0.930 . S
H2570 C2586 0.931 . S
C2571 H2559 0.929 . S
C2571 C2565 1.390 . S
C2571 C2568 1.386 . S
C2572 C2567 1.490 . S
C2572 C2574 1.395 . S
C2572 C2575 1.403 . S
H2573 C2579 0.930 . S
C2574 H2560 0.930 . S
C2574 C2572 1.395 . S
C2574 C2577 1.403 . S
C2575 C2572 1.403 . S
C2575 C2576 1.524 . S
C2575 C2579 1.400 . S
C2576 H2561 0.960 . S
C2576 H2562 0.960 . S
C2576 H2563 0.960 . S
C2576 C2575 1.524 . S
C2577 C2574 1.403 . S
C2577 C2578 1.392 . S
C2577 C2581 1.495 . S
C2578 C2577 1.392 . S
C2578 C2579 1.385 . S
C2578 C2580 1.478 . S
C2579 H2573 0.930 . S
C2579 C2575 1.400 . S
C2579 C2578 1.385 . S
C2580 C2578 1.478 . S
C2580 C2582 1.381 . S
C2580 C2586 1.383 . S
C2581 C2577 1.495 . S
C2581 H2587 0.959 . S
C2581 H2588 0.961 . S
C2581 H2589 0.960 . S
C2582 C2580 1.381 . S
C2582 C2583 1.394 . S
C2582 H2590 0.930 . S
C2583 C2582 1.394 . S
C2583 C2584 1.383 . S
C2583 H2591 0.929 . S
C2584 C2583 1.383 . S
C2584 C2585 1.377 . S
C2585 H2569 0.930 . S
C2585 C2584 1.377 . S
C2585 C2586 1.379 . S
C2586 H2570 0.931 . S
C2586 C2580 1.383 . S
C2586 C2585 1.379 . S
H2587 C2581 0.959 . S
H2588 C2581 0.961 . S
H2589 C2581 0.960 . S
H2590 C2582 0.930 . S
H2591 C2583 0.929 . S
H2592 C2600 0.929 . S
H2593 C2602 0.930 . S
H2594 C2604 0.930 . S
H2595 C2607 0.929 . S
H2596 C2610 0.930 . S
H2597 C2612 0.960 . S
H2598 C2612 0.960 . S
H2599 C2612 0.960 . S
C2600 H2592 0.929 . S
C2600 C2601 1.377 1_565 S
C2600 C2602 1.384 . S
C2601 C2600 1.377 1_545 S
C2601 C2607 1.390 . S
C2602 H2593 0.930 . S
C2602 C2600 1.384 . S
C2602 C2603 1.372 1_565 S
C2603 C2602 1.372 1_545 S
C2603 C2604 1.400 . S
C2603 C2608 1.490 . S
C2604 H2594 0.930 . S
C2604 C2603 1.400 . S
C2604 C2607 1.386 . S
H2605 C2621 0.930 . S
H2606 C2622 0.931 . S
C2607 H2595 0.929 . S
C2607 C2601 1.390 . S
C2607 C2604 1.386 . S
C2608 C2603 1.490 . S
C2608 C2610 1.395 1_545 S
C2608 C2611 1.403 . S
H2609 C2615 0.930 . S
C2610 H2596 0.930 . S
C2610 C2608 1.395 1_565 S
C2610 C2613 1.403 . S
C2611 C2608 1.403 . S
C2611 C2612 1.524 . S
C2611 C2615 1.400 . S
C2612 H2597 0.960 . S
C2612 H2598 0.960 . S
C2612 H2599 0.960 . S
C2612 C2611 1.524 . S
C2613 C2610 1.403 . S
C2613 C2614 1.392 . S
C2613 C2617 1.495 . S
C2614 C2613 1.392 . S
C2614 C2615 1.385 1_565 S
C2614 C2616 1.478 . S
C2615 H2609 0.930 . S
C2615 C2611 1.400 . S
C2615 C2614 1.385 1_545 S
C2616 C2614 1.478 . S
C2616 C2618 1.381 . S
C2616 C2622 1.383 1_565 S
C2617 C2613 1.495 . S
C2617 H2623 0.959 . S
C2617 H2624 0.961 . S
C2617 H2625 0.960 . S
C2618 C2616 1.381 . S
C2618 C2619 1.394 . S
C2618 H2626 0.930 . S
C2619 C2618 1.394 . S
C2619 C2620 1.383 . S
C2619 H2627 0.929 . S
C2620 C2619 1.383 . S
C2620 C2621 1.377 1_565 S
C2621 H2605 0.930 . S
C2621 C2620 1.377 1_545 S
C2621 C2622 1.379 . S
C2622 H2606 0.931 . S
C2622 C2616 1.383 1_545 S
C2622 C2621 1.379 . S
H2623 C2617 0.959 . S
H2624 C2617 0.961 . S
H2625 C2617 0.960 . S
H2626 C2618 0.930 . S
H2627 C2619 0.929 . S
H2628 C2636 0.929 . S
H2629 C2638 0.930 . S
H2630 C2640 0.930 . S
H2631 C2643 0.929 . S
H2632 C2646 0.930 . S
H2633 C2648 0.960 . S
H2634 C2648 0.960 . S
H2635 C2648 0.960 . S
C2636 H2628 0.929 . S
C2636 C2637 1.377 . S
C2636 C2638 1.384 . S
C2637 C2636 1.377 . S
C2637 C2643 1.390 . S
C2638 H2629 0.930 . S
C2638 C2636 1.384 . S
C2638 C2639 1.372 . S
C2639 C2638 1.372 . S
C2639 C2640 1.400 . S
C2639 C2644 1.490 . S
C2640 H2630 0.930 . S
C2640 C2639 1.400 . S
C2640 C2643 1.386 . S
H2641 C2657 0.930 . S
H2642 C2658 0.931 . S
C2643 H2631 0.929 . S
C2643 C2637 1.390 . S
C2643 C2640 1.386 . S
C2644 C2639 1.490 . S
C2644 C2646 1.395 . S
C2644 C2647 1.403 1_655 S
H2645 C2651 0.930 . S
C2646 H2632 0.930 . S
C2646 C2644 1.395 . S
C2646 C2649 1.403 . S
C2647 C2644 1.403 1_455 S
C2647 C2648 1.524 . S
C2647 C2651 1.400 . S
C2648 H2633 0.960 . S
C2648 H2634 0.960 . S
C2648 H2635 0.960 . S
C2648 C2647 1.524 . S
C2649 C2646 1.403 . S
C2649 C2650 1.427 . S
C2649 C2653 1.495 . S
C2650 C2649 1.427 . S
C2650 C2651 1.353 1_655 S
C2650 C2652 1.473 1_655 S
C2651 H2645 0.930 . S
C2651 C2647 1.400 . S
C2651 C2650 1.353 1_455 S
C2652 C2650 1.473 1_455 S
C2652 C2654 1.381 . S
C2652 C2658 1.383 . S
C2653 C2649 1.495 . S
C2653 H2659 0.959 . S
C2653 H2660 0.961 . S
C2653 H2661 0.960 . S
C2654 C2652 1.381 . S
C2654 C2655 1.394 . S
C2654 H2662 0.930 . S
C2655 C2654 1.394 . S
C2655 C2656 1.383 . S
C2655 H2663 0.929 . S
C2656 C2655 1.383 . S
C2656 C2657 1.377 . S
C2657 H2641 0.930 . S
C2657 C2656 1.377 . S
C2657 C2658 1.379 . S
C2658 H2642 0.931 . S
C2658 C2652 1.383 . S
C2658 C2657 1.379 . S
H2659 C2653 0.959 . S
H2660 C2653 0.961 . S
H2661 C2653 0.960 . S
H2662 C2654 0.930 . S
H2663 C2655 0.929 . S
H2664 C2672 0.929 . S
H2665 C2674 0.930 . S
H2666 C2676 0.930 . S
H2667 C2679 0.929 . S
H2668 C2682 0.930 . S
H2669 C2684 0.960 . S
H2670 C2684 0.960 . S
H2671 C2684 0.960 . S
C2672 H2664 0.929 . S
C2672 C2673 1.377 . S
C2672 C2674 1.384 . S
C2673 C2672 1.377 . S
C2673 C2679 1.390 . S
C2674 H2665 0.930 . S
C2674 C2672 1.384 . S
C2674 C2675 1.372 . S
C2675 C2674 1.372 . S
C2675 C2676 1.400 . S
C2675 C2680 1.490 . S
C2676 H2666 0.930 . S
C2676 C2675 1.400 . S
C2676 C2679 1.386 . S
H2677 C2693 0.930 . S
H2678 C2694 0.931 . S
C2679 H2667 0.929 . S
C2679 C2673 1.390 . S
C2679 C2676 1.386 . S
C2680 C2675 1.490 . S
C2680 C2682 1.395 . S
C2680 C2683 1.403 . S
H2681 C2687 0.930 . S
C2682 H2668 0.930 . S
C2682 C2680 1.395 . S
C2682 C2685 1.403 . S
C2683 C2680 1.403 . S
C2683 C2684 1.524 . S
C2683 C2687 1.400 . S
C2684 H2669 0.960 . S
C2684 H2670 0.960 . S
C2684 H2671 0.960 . S
C2684 C2683 1.524 . S
C2685 C2682 1.403 . S
C2685 C2686 1.392 . S
C2685 C2689 1.495 . S
C2686 C2685 1.392 . S
C2686 C2687 1.385 . S
C2686 C2688 1.478 . S
C2687 H2681 0.930 . S
C2687 C2683 1.400 . S
C2687 C2686 1.385 . S
C2688 C2686 1.478 . S
C2688 C2690 1.381 . S
C2688 C2694 1.383 . S
C2689 C2685 1.495 . S
C2689 H2695 0.959 . S
C2689 H2696 0.961 . S
C2689 H2697 0.960 . S
C2690 C2688 1.381 . S
C2690 C2691 1.394 . S
C2690 H2698 0.930 . S
C2691 C2690 1.394 . S
C2691 C2692 1.383 . S
C2691 H2699 0.929 . S
C2692 C2691 1.383 . S
C2692 C2693 1.377 . S
C2693 H2677 0.930 . S
C2693 C2692 1.377 . S
C2693 C2694 1.379 . S
C2694 H2678 0.931 . S
C2694 C2688 1.383 . S
C2694 C2693 1.379 . S
H2695 C2689 0.959 . S
H2696 C2689 0.961 . S
H2697 C2689 0.960 . S
H2698 C2690 0.930 . S
H2699 C2691 0.929 . S
H2700 C2708 0.929 . S
H2701 C2710 0.930 . S
H2702 C2712 0.930 . S
H2703 C2715 0.929 . S
H2704 C2718 0.930 . S
H2705 C2720 0.960 . S
H2706 C2720 0.960 . S
H2707 C2720 0.960 . S
C2708 H2700 0.929 . S
C2708 C2709 1.377 . S
C2708 C2710 1.384 . S
C2709 C2708 1.377 . S
C2709 C2715 1.390 . S
C2710 H2701 0.930 . S
C2710 C2708 1.384 . S
C2710 C2711 1.372 . S
C2711 C2710 1.372 . S
C2711 C2712 1.400 . S
C2711 C2716 1.490 . S
C2712 H2702 0.930 . S
C2712 C2711 1.400 . S
C2712 C2715 1.386 . S
H2713 C2729 0.930 . S
H2714 C2730 0.931 . S
C2715 H2703 0.929 . S
C2715 C2709 1.390 . S
C2715 C2712 1.386 . S
C2716 C2711 1.490 . S
C2716 C2718 1.395 . S
C2716 C2719 1.403 . S
H2717 C2723 0.930 . S
C2718 H2704 0.930 . S
C2718 C2716 1.395 . S
C2718 C2721 1.403 . S
C2719 C2716 1.403 . S
C2719 C2720 1.524 . S
C2719 C2723 1.400 . S
C2720 H2705 0.960 . S
C2720 H2706 0.960 . S
C2720 H2707 0.960 . S
C2720 C2719 1.524 . S
C2721 C2718 1.403 . S
C2721 C2722 1.392 . S
C2721 C2725 1.495 . S
C2722 C2721 1.392 . S
C2722 C2723 1.385 . S
C2722 C2724 1.478 . S
C2723 H2717 0.930 . S
C2723 C2719 1.400 . S
C2723 C2722 1.385 . S
C2724 C2722 1.478 . S
C2724 C2726 1.381 . S
C2724 C2730 1.383 . S
C2725 C2721 1.495 . S
C2725 H2731 0.959 . S
C2725 H2732 0.961 . S
C2725 H2733 0.960 . S
C2726 C2724 1.381 . S
C2726 C2727 1.394 . S
C2726 H2734 0.930 . S
C2727 C2726 1.394 . S
C2727 C2728 1.383 . S
C2727 H2735 0.929 . S
C2728 C2727 1.383 . S
C2728 C2729 1.377 . S
C2729 H2713 0.930 . S
C2729 C2728 1.377 . S
C2729 C2730 1.379 . S
C2730 H2714 0.931 . S
C2730 C2724 1.383 . S
C2730 C2729 1.379 . S
H2731 C2725 0.959 . S
H2732 C2725 0.961 . S
H2733 C2725 0.960 . S
H2734 C2726 0.930 . S
H2735 C2727 0.929 . S
H2736 C2744 0.929 . S
H2737 C2746 0.930 . S
H2738 C2748 0.930 . S
H2739 C2751 0.929 . S
H2740 C2754 0.930 . S
H2741 C2756 0.960 . S
H2742 C2756 0.960 . S
H2743 C2756 0.960 . S
C2744 H2736 0.929 . S
C2744 C2745 1.377 . S
C2744 C2746 1.384 . S
C2745 C2744 1.377 . S
C2745 C2751 1.390 . S
C2746 H2737 0.930 . S
C2746 C2744 1.384 . S
C2746 C2747 1.372 . S
C2747 C2746 1.372 . S
C2747 C2748 1.400 . S
C2747 C2752 1.490 . S
C2748 H2738 0.930 . S
C2748 C2747 1.400 . S
C2748 C2751 1.386 . S
H2749 C2765 0.930 . S
H2750 C2766 0.931 . S
C2751 H2739 0.929 . S
C2751 C2745 1.390 . S
C2751 C2748 1.386 . S
C2752 C2747 1.490 . S
C2752 C2754 1.395 . S
C2752 C2755 1.403 . S
H2753 C2759 0.930 . S
C2754 H2740 0.930 . S
C2754 C2752 1.395 . S
C2754 C2757 1.403 . S
C2755 C2752 1.403 . S
C2755 C2756 1.524 . S
C2755 C2759 1.400 . S
C2756 H2741 0.960 . S
C2756 H2742 0.960 . S
C2756 H2743 0.960 . S
C2756 C2755 1.524 . S
C2757 C2754 1.403 . S
C2757 C2758 1.392 . S
C2757 C2761 1.495 . S
C2758 C2757 1.392 . S
C2758 C2759 1.385 . S
C2758 C2760 1.478 . S
C2759 H2753 0.930 . S
C2759 C2755 1.400 . S
C2759 C2758 1.385 . S
C2760 C2758 1.478 . S
C2760 C2762 1.381 . S
C2760 C2766 1.383 . S
C2761 C2757 1.495 . S
C2761 H2767 0.959 . S
C2761 H2768 0.961 . S
C2761 H2769 0.960 . S
C2762 C2760 1.381 . S
C2762 C2763 1.394 . S
C2762 H2770 0.930 . S
C2763 C2762 1.394 . S
C2763 C2764 1.383 . S
C2763 H2771 0.929 . S
C2764 C2763 1.383 . S
C2764 C2765 1.377 . S
C2765 H2749 0.930 . S
C2765 C2764 1.377 . S
C2765 C2766 1.379 . S
C2766 H2750 0.931 . S
C2766 C2760 1.383 . S
C2766 C2765 1.379 . S
H2767 C2761 0.959 . S
H2768 C2761 0.961 . S
H2769 C2761 0.960 . S
H2770 C2762 0.930 . S
H2771 C2763 0.929 . S
H2772 C2780 0.929 . S
H2773 C2782 0.930 . S
H2774 C2784 0.930 . S
H2775 C2787 0.929 . S
H2776 C2790 0.930 . S
H2777 C2792 0.960 . S
H2778 C2792 0.960 . S
H2779 C2792 0.960 . S
C2780 H2772 0.929 . S
C2780 C2781 1.377 . S
C2780 C2782 1.384 . S
C2781 C2780 1.377 . S
C2781 C2787 1.390 . S
C2782 H2773 0.930 . S
C2782 C2780 1.384 . S
C2782 C2783 1.372 . S
C2783 C2782 1.372 . S
C2783 C2784 1.400 . S
C2783 C2788 1.490 . S
C2784 H2774 0.930 . S
C2784 C2783 1.400 . S
C2784 C2787 1.386 . S
H2785 C2801 0.930 . S
H2786 C2802 0.931 . S
C2787 H2775 0.929 . S
C2787 C2781 1.390 . S
C2787 C2784 1.386 . S
C2788 C2783 1.490 . S
C2788 C2790 1.395 . S
C2788 C2791 1.403 . S
H2789 C2795 0.930 . S
C2790 H2776 0.930 . S
C2790 C2788 1.395 . S
C2790 C2793 1.403 . S
C2791 C2788 1.403 . S
C2791 C2792 1.524 . S
C2791 C2795 1.400 . S
C2792 H2777 0.960 . S
C2792 H2778 0.960 . S
C2792 H2779 0.960 . S
C2792 C2791 1.524 . S
C2793 C2790 1.403 . S
C2793 C2794 1.392 . S
C2793 C2797 1.495 . S
C2794 C2793 1.392 . S
C2794 C2795 1.385 . S
C2794 C2796 1.478 . S
C2795 H2789 0.930 . S
C2795 C2791 1.400 . S
C2795 C2794 1.385 . S
C2796 C2794 1.478 . S
C2796 C2798 1.381 . S
C2796 C2802 1.383 . S
C2797 C2793 1.495 . S
C2797 H2803 0.959 . S
C2797 H2804 0.961 . S
C2797 H2805 0.960 . S
C2798 C2796 1.381 . S
C2798 C2799 1.394 1_554 S
C2798 H2806 0.930 . S
C2799 C2798 1.394 1_556 S
C2799 C2800 1.383 . S
C2799 H2807 0.929 . S
C2800 C2799 1.383 . S
C2800 C2801 1.377 . S
C2801 H2785 0.930 . S
C2801 C2800 1.377 . S
C2801 C2802 1.379 1_556 S
C2802 H2786 0.931 . S
C2802 C2796 1.383 . S
C2802 C2801 1.379 1_554 S
H2803 C2797 0.959 . S
H2804 C2797 0.961 . S
H2805 C2797 0.960 . S
H2806 C2798 0.930 . S
H2807 C2799 0.929 . S
H2808 C2816 0.929 . S
H2809 C2818 0.930 . S
H2810 C2820 0.930 . S
H2811 C2823 0.929 . S
H2812 C2826 0.930 . S
H2813 C2828 0.960 . S
H2814 C2828 0.960 . S
H2815 C2828 0.960 . S
C2816 H2808 0.929 . S
C2816 C2817 1.377 . S
C2816 C2818 1.384 . S
C2817 C2816 1.377 . S
C2817 C2823 1.390 . S
C2818 H2809 0.930 . S
C2818 C2816 1.384 . S
C2818 C2819 1.372 . S
C2819 C2818 1.372 . S
C2819 C2820 1.400 . S
C2819 C2824 1.490 . S
C2820 H2810 0.930 . S
C2820 C2819 1.400 . S
C2820 C2823 1.386 . S
H2821 C2837 0.930 . S
H2822 C2838 0.931 . S
C2823 H2811 0.929 . S
C2823 C2817 1.390 . S
C2823 C2820 1.386 . S
C2824 C2819 1.490 . S
C2824 C2826 1.395 . S
C2824 C2827 1.403 . S
H2825 C2831 0.930 . S
C2826 H2812 0.930 . S
C2826 C2824 1.395 . S
C2826 C2829 1.403 . S
C2827 C2824 1.403 . S
C2827 C2828 1.524 . S
C2827 C2831 1.400 . S
C2828 H2813 0.960 . S
C2828 H2814 0.960 . S
C2828 H2815 0.960 . S
C2828 C2827 1.524 . S
C2829 C2826 1.403 . S
C2829 C2830 1.392 . S
C2829 C2833 1.495 . S
C2830 C2829 1.392 . S
C2830 C2831 1.385 . S
C2830 C2832 1.478 . S
C2831 H2825 0.930 . S
C2831 C2827 1.400 . S
C2831 C2830 1.385 . S
C2832 C2830 1.478 . S
C2832 C2834 1.381 . S
C2832 C2838 1.383 . S
C2833 C2829 1.495 . S
C2833 H2839 0.959 . S
C2833 H2840 0.961 . S
C2833 H2841 0.960 . S
C2834 C2832 1.381 . S
C2834 C2835 1.394 1_554 S
C2834 H2842 0.930 . S
C2835 C2834 1.394 1_556 S
C2835 C2836 1.383 . S
C2835 H2843 0.929 . S
C2836 C2835 1.383 . S
C2836 C2837 1.377 . S
C2837 H2821 0.930 . S
C2837 C2836 1.377 . S
C2837 C2838 1.379 1_556 S
C2838 H2822 0.931 . S
C2838 C2832 1.383 . S
C2838 C2837 1.379 1_554 S
H2839 C2833 0.959 . S
H2840 C2833 0.961 . S
H2841 C2833 0.960 . S
H2842 C2834 0.930 . S
H2843 C2835 0.929 . S
H2844 C2852 0.929 . S
H2845 C2854 0.930 . S
H2846 C2856 0.930 . S
H2847 C2859 0.929 . S
H2848 C2862 0.930 . S
H2849 C2864 0.960 . S
H2850 C2864 0.960 . S
H2851 C2864 0.960 . S
C2852 H2844 0.929 . S
C2852 C2853 1.377 . S
C2852 C2854 1.384 . S
C2853 C2852 1.377 . S
C2853 C2859 1.390 . S
C2854 H2845 0.930 . S
C2854 C2852 1.384 . S
C2854 C2855 1.372 . S
C2855 C2854 1.372 . S
C2855 C2856 1.400 . S
C2855 C2860 1.490 . S
C2856 H2846 0.930 . S
C2856 C2855 1.400 . S
C2856 C2859 1.386 . S
H2857 C2873 0.930 . S
H2858 C2874 0.931 . S
C2859 H2847 0.929 . S
C2859 C2853 1.390 . S
C2859 C2856 1.386 . S
C2860 C2855 1.490 . S
C2860 C2862 1.395 . S
C2860 C2863 1.403 . S
H2861 C2867 0.930 . S
C2862 H2848 0.930 . S
C2862 C2860 1.395 . S
C2862 C2865 1.403 . S
C2863 C2860 1.403 . S
C2863 C2864 1.524 . S
C2863 C2867 1.400 . S
C2864 H2849 0.960 . S
C2864 H2850 0.960 . S
C2864 H2851 0.960 . S
C2864 C2863 1.524 . S
C2865 C2862 1.403 . S
C2865 C2866 1.392 . S
C2865 C2869 1.495 . S
C2866 C2865 1.392 . S
C2866 C2867 1.385 . S
C2866 C2868 1.478 . S
C2867 H2861 0.930 . S
C2867 C2863 1.400 . S
C2867 C2866 1.385 . S
C2868 C2866 1.478 . S
C2868 C2870 1.381 . S
C2868 C2874 1.383 . S
C2869 C2865 1.495 . S
C2869 H2875 0.959 . S
C2869 H2876 0.961 . S
C2869 H2877 0.960 . S
C2870 C2868 1.381 . S
C2870 C2871 1.394 1_554 S
C2870 H2878 0.930 . S
C2871 C2870 1.394 1_556 S
C2871 C2872 1.383 . S
C2871 H2879 0.929 . S
C2872 C2871 1.383 . S
C2872 C2873 1.377 . S
C2873 H2857 0.930 . S
C2873 C2872 1.377 . S
C2873 C2874 1.379 1_556 S
C2874 H2858 0.931 . S
C2874 C2868 1.383 . S
C2874 C2873 1.379 1_554 S
H2875 C2869 0.959 . S
H2876 C2869 0.961 . S
H2877 C2869 0.960 . S
H2878 C2870 0.930 . S
H2879 C2871 0.929 . S
H2880 C2888 0.929 . S
H2881 C2890 0.930 . S
H2882 C2892 0.930 . S
H2883 C2895 0.929 . S
H2884 C2898 0.930 . S
H2885 C2900 0.960 . S
H2886 C2900 0.960 . S
H2887 C2900 0.960 . S
C2888 H2880 0.929 . S
C2888 C2889 1.377 . S
C2888 C2890 1.384 1_554 S
C2889 C2888 1.377 . S
C2889 C2895 1.390 . S
C2890 H2881 0.930 . S
C2890 C2888 1.384 1_556 S
C2890 C2891 1.372 . S
C2891 C2890 1.372 . S
C2891 C2892 1.400 . S
C2891 C2896 1.490 . S
C2892 H2882 0.930 . S
C2892 C2891 1.400 . S
C2892 C2895 1.386 1_556 S
H2893 C2909 0.930 . S
H2894 C2910 0.931 . S
C2895 H2883 0.929 . S
C2895 C2889 1.390 . S
C2895 C2892 1.386 1_554 S
C2896 C2891 1.490 . S
C2896 C2898 1.395 . S
C2896 C2899 1.403 . S
H2897 C2903 0.930 . S
C2898 H2884 0.930 . S
C2898 C2896 1.395 . S
C2898 C2901 1.403 . S
C2899 C2896 1.403 . S
C2899 C2900 1.524 . S
C2899 C2903 1.400 . S
C2900 H2885 0.960 . S
C2900 H2886 0.960 . S
C2900 H2887 0.960 . S
C2900 C2899 1.524 . S
C2901 C2898 1.403 . S
C2901 C2902 1.392 . S
C2901 C2905 1.495 . S
C2902 C2901 1.392 . S
C2902 C2903 1.385 . S
C2902 C2904 1.478 . S
C2903 H2897 0.930 . S
C2903 C2899 1.400 . S
C2903 C2902 1.385 . S
C2904 C2902 1.478 . S
C2904 C2906 1.381 . S
C2904 C2910 1.383 . S
C2905 C2901 1.495 . S
C2905 H2911 0.959 . S
C2905 H2912 0.961 . S
C2905 H2913 0.960 . S
C2906 C2904 1.381 . S
C2906 C2907 1.394 . S
C2906 H2914 0.930 . S
C2907 C2906 1.394 . S
C2907 C2908 1.383 . S
C2907 H2915 0.929 . S
C2908 C2907 1.383 . S
C2908 C2909 1.377 . S
C2909 H2893 0.930 . S
C2909 C2908 1.377 . S
C2909 C2910 1.379 . S
C2910 H2894 0.931 . S
C2910 C2904 1.383 . S
C2910 C2909 1.379 . S
H2911 C2905 0.959 . S
H2912 C2905 0.961 . S
H2913 C2905 0.960 . S
H2914 C2906 0.930 . S
H2915 C2907 0.929 . S
H2916 C2924 0.929 . S
H2917 C2926 0.930 . S
H2918 C2928 0.930 . S
H2919 C2931 0.929 . S
H2920 C2934 0.930 . S
H2921 C2936 0.960 . S
H2922 C2936 0.960 . S
H2923 C2936 0.960 . S
C2924 H2916 0.929 . S
C2924 C2925 1.377 . S
C2924 C2926 1.384 1_554 S
C2925 C2924 1.377 . S
C2925 C2931 1.390 . S
C2926 H2917 0.930 . S
C2926 C2924 1.384 1_556 S
C2926 C2927 1.372 . S
C2927 C2926 1.372 . S
C2927 C2928 1.400 . S
C2927 C2932 1.490 . S
C2928 H2918 0.930 . S
C2928 C2927 1.400 . S
C2928 C2931 1.386 1_556 S
H2929 C2945 0.930 . S
H2930 C2946 0.931 . S
C2931 H2919 0.929 . S
C2931 C2925 1.390 . S
C2931 C2928 1.386 1_554 S
C2932 C2927 1.490 . S
C2932 C2934 1.395 . S
C2932 C2935 1.403 . S
H2933 C2939 0.930 . S
C2934 H2920 0.930 . S
C2934 C2932 1.395 . S
C2934 C2937 1.403 . S
C2935 C2932 1.403 . S
C2935 C2936 1.524 . S
C2935 C2939 1.400 . S
C2936 H2921 0.960 . S
C2936 H2922 0.960 . S
C2936 H2923 0.960 . S
C2936 C2935 1.524 . S
C2937 C2934 1.403 . S
C2937 C2938 1.392 . S
C2937 C2941 1.495 . S
C2938 C2937 1.392 . S
C2938 C2939 1.385 . S
C2938 C2940 1.478 . S
C2939 H2933 0.930 . S
C2939 C2935 1.400 . S
C2939 C2938 1.385 . S
C2940 C2938 1.478 . S
C2940 C2942 1.381 . S
C2940 C2946 1.383 . S
C2941 C2937 1.495 . S
C2941 H2947 0.959 . S
C2941 H2948 0.961 . S
C2941 H2949 0.960 . S
C2942 C2940 1.381 . S
C2942 C2943 1.394 . S
C2942 H2950 0.930 . S
C2943 C2942 1.394 . S
C2943 C2944 1.383 . S
C2943 H2951 0.929 . S
C2944 C2943 1.383 . S
C2944 C2945 1.377 . S
C2945 H2929 0.930 . S
C2945 C2944 1.377 . S
C2945 C2946 1.379 . S
C2946 H2930 0.931 . S
C2946 C2940 1.383 . S
C2946 C2945 1.379 . S
H2947 C2941 0.959 . S
H2948 C2941 0.961 . S
H2949 C2941 0.960 . S
H2950 C2942 0.930 . S
H2951 C2943 0.929 . S
H2952 C2960 0.929 . S
H2953 C2962 0.930 . S
H2954 C2964 0.930 . S
H2955 C2967 0.929 . S
H2956 C2970 0.930 . S
H2957 C2972 0.960 . S
H2958 C2972 0.960 . S
H2959 C2972 0.960 . S
C2960 H2952 0.929 . S
C2960 C2961 1.377 . S
C2960 C2962 1.384 1_554 S
C2961 C2960 1.377 . S
C2961 C2967 1.390 . S
C2962 H2953 0.930 . S
C2962 C2960 1.384 1_556 S
C2962 C2963 1.372 . S
C2963 C2962 1.372 . S
C2963 C2964 1.400 . S
C2963 C2968 1.490 . S
C2964 H2954 0.930 . S
C2964 C2963 1.400 . S
C2964 C2967 1.386 1_556 S
H2965 C2981 0.930 . S
H2966 C2982 0.931 . S
C2967 H2955 0.929 . S
C2967 C2961 1.390 . S
C2967 C2964 1.386 1_554 S
C2968 C2963 1.490 . S
C2968 C2970 1.395 . S
C2968 C2971 1.403 . S
H2969 C2975 0.930 . S
C2970 H2956 0.930 . S
C2970 C2968 1.395 . S
C2970 C2973 1.403 . S
C2971 C2968 1.403 . S
C2971 C2972 1.524 . S
C2971 C2975 1.400 . S
C2972 H2957 0.960 . S
C2972 H2958 0.960 . S
C2972 H2959 0.960 . S
C2972 C2971 1.524 . S
C2973 C2970 1.403 . S
C2973 C2974 1.392 . S
C2973 C2977 1.495 . S
C2974 C2973 1.392 . S
C2974 C2975 1.385 . S
C2974 C2976 1.478 . S
C2975 H2969 0.930 . S
C2975 C2971 1.400 . S
C2975 C2974 1.385 . S
C2976 C2974 1.478 . S
C2976 C2978 1.381 . S
C2976 C2982 1.383 . S
C2977 C2973 1.495 . S
C2977 H2983 0.959 . S
C2977 H2984 0.961 . S
C2977 H2985 0.960 . S
C2978 C2976 1.381 . S
C2978 C2979 1.394 . S
C2978 H2986 0.930 . S
C2979 C2978 1.394 . S
C2979 C2980 1.383 . S
C2979 H2987 0.929 . S
C2980 C2979 1.383 . S
C2980 C2981 1.377 . S
C2981 H2965 0.930 . S
C2981 C2980 1.377 . S
C2981 C2982 1.379 . S
C2982 H2966 0.931 . S
C2982 C2976 1.383 . S
C2982 C2981 1.379 . S
H2983 C2977 0.959 . S
H2984 C2977 0.961 . S
H2985 C2977 0.960 . S
H2986 C2978 0.930 . S
H2987 C2979 0.929 . S
H2988 C2996 0.929 . S
H2989 C2998 0.930 . S
H2990 C3000 0.930 . S
H2991 C3003 0.929 . S
H2992 C3006 0.930 . S
H2993 C3008 0.960 . S
H2994 C3008 0.960 . S
H2995 C3008 0.960 . S
C2996 H2988 0.929 . S
C2996 C2997 1.377 . S
C2996 C2998 1.384 . S
C2997 C2996 1.377 . S
C2997 C3003 1.390 . S
C2998 H2989 0.930 . S
C2998 C2996 1.384 . S
C2998 C2999 1.372 . S
C2999 C2998 1.372 . S
C2999 C3000 1.400 . S
C2999 C3004 1.490 . S
C3000 H2990 0.930 . S
C3000 C2999 1.400 . S
C3000 C3003 1.386 . S
H3001 C3017 0.930 . S
H3002 C3018 0.931 . S
C3003 H2991 0.929 . S
C3003 C2997 1.390 . S
C3003 C3000 1.386 . S
C3004 C2999 1.490 . S
C3004 C3006 1.395 . S
C3004 C3007 1.403 . S
H3005 C3011 0.930 . S
C3006 H2992 0.930 . S
C3006 C3004 1.395 . S
C3006 C3009 1.403 . S
C3007 C3004 1.403 . S
C3007 C3008 1.524 . S
C3007 C3011 1.400 . S
C3008 H2993 0.960 . S
C3008 H2994 0.960 . S
C3008 H2995 0.960 . S
C3008 C3007 1.524 . S
C3009 C3006 1.403 . S
C3009 C3010 1.392 . S
C3009 C3013 1.495 . S
C3010 C3009 1.392 . S
C3010 C3011 1.385 . S
C3010 C3012 1.478 . S
C3011 H3005 0.930 . S
C3011 C3007 1.400 . S
C3011 C3010 1.385 . S
C3012 C3010 1.478 . S
C3012 C3014 1.381 . S
C3012 C3018 1.383 . S
C3013 C3009 1.495 . S
C3013 H3019 0.959 . S
C3013 H3020 0.961 . S
C3013 H3021 0.960 . S
C3014 C3012 1.381 . S
C3014 C3015 1.394 . S
C3014 H3022 0.930 . S
C3015 C3014 1.394 . S
C3015 C3016 1.383 . S
C3015 H3023 0.929 . S
C3016 C3015 1.383 . S
C3016 C3017 1.377 . S
C3017 H3001 0.930 . S
C3017 C3016 1.377 . S
C3017 C3018 1.379 . S
C3018 H3002 0.931 . S
C3018 C3012 1.383 . S
C3018 C3017 1.379 . S
H3019 C3013 0.959 . S
H3020 C3013 0.961 . S
H3021 C3013 0.960 . S
H3022 C3014 0.930 . S
H3023 C3015 0.929 . S
H3024 C3032 0.929 . S
H3025 C3034 0.930 . S
H3026 C3036 0.930 . S
H3027 C3039 0.929 . S
H3028 C3042 0.930 . S
H3029 C3044 0.960 . S
H3030 C3044 0.960 . S
H3031 C3044 0.960 . S
C3032 H3024 0.929 . S
C3032 C3033 1.377 . S
C3032 C3034 1.384 . S
C3033 C3032 1.377 . S
C3033 C3039 1.390 . S
C3034 H3025 0.930 . S
C3034 C3032 1.384 . S
C3034 C3035 1.372 . S
C3035 C3034 1.372 . S
C3035 C3036 1.400 . S
C3035 C3040 1.490 . S
C3036 H3026 0.930 . S
C3036 C3035 1.400 . S
C3036 C3039 1.386 . S
H3037 C3053 0.930 . S
H3038 C3054 0.931 . S
C3039 H3027 0.929 . S
C3039 C3033 1.390 . S
C3039 C3036 1.386 . S
C3040 C3035 1.490 . S
C3040 C3042 1.395 . S
C3040 C3043 1.403 . S
H3041 C3047 0.930 . S
C3042 H3028 0.930 . S
C3042 C3040 1.395 . S
C3042 C3045 1.403 . S
C3043 C3040 1.403 . S
C3043 C3044 1.524 . S
C3043 C3047 1.400 . S
C3044 H3029 0.960 . S
C3044 H3030 0.960 . S
C3044 H3031 0.960 . S
C3044 C3043 1.524 . S
C3045 C3042 1.403 . S
C3045 C3046 1.392 . S
C3045 C3049 1.495 . S
C3046 C3045 1.392 . S
C3046 C3047 1.385 . S
C3046 C3048 1.478 . S
C3047 H3041 0.930 . S
C3047 C3043 1.400 . S
C3047 C3046 1.385 . S
C3048 C3046 1.478 . S
C3048 C3050 1.381 . S
C3048 C3054 1.383 . S
C3049 C3045 1.495 . S
C3049 H3055 0.959 . S
C3049 H3056 0.961 . S
C3049 H3057 0.960 . S
C3050 C3048 1.381 . S
C3050 C3051 1.394 . S
C3050 H3058 0.930 . S
C3051 C3050 1.394 . S
C3051 C3052 1.383 . S
C3051 H3059 0.929 . S
C3052 C3051 1.383 . S
C3052 C3053 1.377 . S
C3053 H3037 0.930 . S
C3053 C3052 1.377 . S
C3053 C3054 1.379 . S
C3054 H3038 0.931 . S
C3054 C3048 1.383 . S
C3054 C3053 1.379 . S
H3055 C3049 0.959 . S
H3056 C3049 0.961 . S
H3057 C3049 0.960 . S
H3058 C3050 0.930 . S
H3059 C3051 0.929 . S
H3060 C3068 0.929 . S
H3061 C3070 0.930 . S
H3062 C3072 0.930 . S
H3063 C3075 0.929 . S
H3064 C3078 0.930 . S
H3065 C3080 0.960 . S
H3066 C3080 0.960 . S
H3067 C3080 0.960 . S
C3068 H3060 0.929 . S
C3068 C3069 1.377 . S
C3068 C3070 1.384 . S
C3069 C3068 1.377 . S
C3069 C3075 1.390 . S
C3070 H3061 0.930 . S
C3070 C3068 1.384 . S
C3070 C3071 1.372 . S
C3071 C3070 1.372 . S
C3071 C3072 1.400 . S
C3071 C3076 1.490 . S
C3072 H3062 0.930 . S
C3072 C3071 1.400 . S
C3072 C3075 1.386 . S
H3073 C3089 0.930 . S
H3074 C3090 0.931 . S
C3075 H3063 0.929 . S
C3075 C3069 1.390 . S
C3075 C3072 1.386 . S
C3076 C3071 1.490 . S
C3076 C3078 1.395 . S
C3076 C3079 1.403 . S
H3077 C3083 0.930 . S
C3078 H3064 0.930 . S
C3078 C3076 1.395 . S
C3078 C3081 1.403 . S
C3079 C3076 1.403 . S
C3079 C3080 1.524 . S
C3079 C3083 1.400 . S
C3080 H3065 0.960 . S
C3080 H3066 0.960 . S
C3080 H3067 0.960 . S
C3080 C3079 1.524 . S
C3081 C3078 1.403 . S
C3081 C3082 1.392 . S
C3081 C3085 1.495 . S
C3082 C3081 1.392 . S
C3082 C3083 1.385 . S
C3082 C3084 1.478 . S
C3083 H3077 0.930 . S
C3083 C3079 1.400 . S
C3083 C3082 1.385 . S
C3084 C3082 1.478 . S
C3084 C3086 1.381 . S
C3084 C3090 1.383 . S
C3085 C3081 1.495 . S
C3085 H3091 0.959 . S
C3085 H3092 0.961 . S
C3085 H3093 0.960 . S
C3086 C3084 1.381 . S
C3086 C3087 1.394 . S
C3086 H3094 0.930 . S
C3087 C3086 1.394 . S
C3087 C3088 1.383 . S
C3087 H3095 0.929 . S
C3088 C3087 1.383 . S
C3088 C3089 1.377 . S
C3089 H3073 0.930 . S
C3089 C3088 1.377 . S
C3089 C3090 1.379 . S
C3090 H3074 0.931 . S
C3090 C3084 1.383 . S
C3090 C3089 1.379 . S
H3091 C3085 0.959 . S
H3092 C3085 0.961 . S
H3093 C3085 0.960 . S
H3094 C3086 0.930 . S
H3095 C3087 0.929 . S
C513 C235 0.996 . S
C532 C11 1.012 1_556 S
C549 C249 0.996 . S
C568 C25 0.994 1_556 S
C585 C39 0.988 1_556 S
C604 C221 0.972 . S
C621 C375 0.988 . S
C640 C53 0.974 . S
C657 C347 0.997 . S
C676 C67 1.008 . S
C693 C81 0.997 . S
C712 C361 0.999 . S
C729 C487 0.996 . S
C748 C95 0.976 1_554 S
C765 C501 0.990 . S
C784 C109 1.006 1_554 S
C801 C473 0.997 . S
C820 C123 0.974 1_554 S
C837 C291 0.995 . S
C856 C137 0.977 . S
C873 C151 0.995 . S
C892 C263 0.983 . S
C909 C277 0.995 . S
C928 C165 0.975 . S
C945 C403 0.996 . S
C964 C179 1.011 . S
C981 C193 0.996 . S
C1000 C417 0.991 . S
C1017 C389 0.989 . S
C1036 C207 0.991 . S
C1053 C459 0.988 . S
C1072 C305 1.009 . S
C1089 C431 0.997 . S
C1108 C319 0.971 . S
C1125 C333 0.990 . S
C1144 C445 0.998 . S
C1161 C98 1.526 . S
C1180 C9 1.522 . S
C1197 C112 1.522 . S
C1216 C23 1.533 . S
C1233 C84 1.528 . S
C1252 C37 1.531 . S
C1269 C51 1.540 . S
C1288 C154 1.504 . S
C1305 C126 1.525 . S
C1324 C65 1.523 . S
C1341 C79 1.536 . S
C1360 C140 1.539 . S
C1377 C14 1.521 . S
C1396 C93 1.522 . S
C1413 C107 1.540 . S
C1432 C28 1.536 . S
C1449 C0 1.528 . S
C1468 C121 1.545 . S
C1485 C70 1.521 . S
C1504 C135 1.522 . S
C1521 C42 1.528 . S
C1540 C149 1.547 . S
C1557 C163 1.539 . S
C1576 C56 1.526 . S
C1593 C177 1.538 . S
C1612 C266 1.535 . S
C1629 C280 1.524 . S
C1648 C191 1.526 . S
C1665 C252 1.524 . S
C1684 C205 1.544 . S
C1701 C219 1.535 . S
C1720 C322 1.528 . S
C1737 C294 1.524 . S
C1756 C233 1.545 . S
C1773 C247 1.535 . S
C1792 C308 1.539 . S
C1809 C261 1.540 . S
C1828 C182 1.538 . S
C1845 C275 1.535 . S
C1864 C196 1.504 . S
C1881 C168 1.528 . S
C1900 C289 1.546 . S
C1917 C238 1.521 . S
C1936 C303 1.522 . S
C1953 C210 1.528 . S
C1972 C317 1.546 . S
C1989 C331 1.538 . S
C2008 C224 1.524 . S
C2025 C434 1.528 . S
C2044 C345 1.522 . S
C2061 C359 1.539 . S
C2080 C448 1.523 . S
C2097 C373 1.539 . S
C2116 C420 1.529 . S
C2133 C490 1.526 . S
C2152 C387 1.522 . S
C2169 C401 1.535 . S
C2188 C462 1.533 . S
C2205 C476 1.523 . S
C2224 C415 1.547 . S
C2241 C350 1.526 . S
C2260 C429 1.539 . S
C2277 C364 1.524 . S
C2296 C443 1.533 . S
C2313 C457 1.535 . S
C2332 C336 1.504 . S
C2349 C471 1.539 . S
C2368 C406 1.535 . S
C2385 C378 1.522 . S
C2404 C485 1.525 . S
C2421 C392 1.524 . S
C2440 C499 1.535 . S
C2457 C5 1.609 . S
C2476 C47 1.607 . S
C2493 C19 1.608 . S
C2512 C61 1.605 . S
C2529 C75 1.609 . S
C2548 C33 1.607 . S
C2565 C89 1.609 . S
C2584 C131 1.603 . S
C2601 C145 1.608 . S
C2620 C103 1.607 . S
C2637 C159 1.609 . S
C2656 C117 1.604 . S
C2673 C173 1.608 . S
C2692 C215 1.603 . S
C2709 C187 1.608 . S
C2728 C229 1.604 . S
C2745 C243 1.608 . S
C2764 C201 1.605 . S
C2781 C257 1.609 . S
C2800 C299 1.603 . S
C2817 C271 1.609 . S
C2836 C313 1.604 . S
C2853 C285 1.609 . S
C2872 C327 1.604 . S
C2889 C383 1.609 . S
C2908 C341 1.607 . S
C2925 C397 1.609 . S
C2944 C355 1.605 . S
C2961 C411 1.608 . S
C2980 C369 1.603 . S
C2997 C425 1.609 . S
C3016 C467 1.603 . S
C3033 C481 1.609 . S
C3052 C439 1.603 . S
C3069 C495 1.609 . S
C3088 C453 1.603 . S
