# Generated by pormake.
# Topology yfy, (5)-cn, num edge types: 1
# Building blocks:
#     Node 0, Type 0, BuildingBlock: XOMCOT_clean_sbu_1, # of connection points: 5
#     Node 1, Type 0, BuildingBlock: XOMCOT_clean_sbu_1, # of connection points: 5
#     Node 2, Type 0, BuildingBlock: XOMCOT_clean_sbu_1, # of connection points: 5
#     Node 3, Type 0, BuildingBlock: XOMCOT_clean_sbu_1, # of connection points: 5
#     Node 4, Type 0, BuildingBlock: XOMCOT_clean_sbu_1, # of connection points: 5
#     Node 5, Type 0, BuildingBlock: XOMCOT_clean_sbu_1, # of connection points: 5
#     Node 6, Type 0, BuildingBlock: XOMCOT_clean_sbu_1, # of connection points: 5
#     Node 7, Type 0, BuildingBlock: XOMCOT_clean_sbu_1, # of connection points: 5
#     Node 8, Type 0, BuildingBlock: XOMCOT_clean_sbu_1, # of connection points: 5
#     Node 9, Type 0, BuildingBlock: XOMCOT_clean_sbu_1, # of connection points: 5
#     Node 10, Type 0, BuildingBlock: XOMCOT_clean_sbu_1, # of connection points: 5
#     Node 11, Type 0, BuildingBlock: XOMCOT_clean_sbu_1, # of connection points: 5
#     Node 12, Type 0, BuildingBlock: XOMCOT_clean_sbu_1, # of connection points: 5
#     Node 13, Type 0, BuildingBlock: XOMCOT_clean_sbu_1, # of connection points: 5
#     Node 14, Type 0, BuildingBlock: XOMCOT_clean_sbu_1, # of connection points: 5
#     Node 15, Type 0, BuildingBlock: XOMCOT_clean_sbu_1, # of connection points: 5
#     Edge 16, Type (0, 0), BuildingBlock: OJICUG_clean_linker_0, # of connection points: 2
#     Edge 17, Type (0, 0), BuildingBlock: OJICUG_clean_linker_0, # of connection points: 2
#     Edge 18, Type (0, 0), BuildingBlock: OJICUG_clean_linker_0, # of connection points: 2
#     Edge 19, Type (0, 0), BuildingBlock: OJICUG_clean_linker_0, # of connection points: 2
#     Edge 20, Type (0, 0), BuildingBlock: OJICUG_clean_linker_0, # of connection points: 2
#     Edge 21, Type (0, 0), BuildingBlock: OJICUG_clean_linker_0, # of connection points: 2
#     Edge 22, Type (0, 0), BuildingBlock: OJICUG_clean_linker_0, # of connection points: 2
#     Edge 23, Type (0, 0), BuildingBlock: OJICUG_clean_linker_0, # of connection points: 2
#     Edge 24, Type (0, 0), BuildingBlock: OJICUG_clean_linker_0, # of connection points: 2
#     Edge 25, Type (0, 0), BuildingBlock: OJICUG_clean_linker_0, # of connection points: 2
#     Edge 26, Type (0, 0), BuildingBlock: OJICUG_clean_linker_0, # of connection points: 2
#     Edge 27, Type (0, 0), BuildingBlock: OJICUG_clean_linker_0, # of connection points: 2
#     Edge 28, Type (0, 0), BuildingBlock: OJICUG_clean_linker_0, # of connection points: 2
#     Edge 29, Type (0, 0), BuildingBlock: OJICUG_clean_linker_0, # of connection points: 2
#     Edge 30, Type (0, 0), BuildingBlock: OJICUG_clean_linker_0, # of connection points: 2
#     Edge 31, Type (0, 0), BuildingBlock: OJICUG_clean_linker_0, # of connection points: 2
#     Edge 32, Type (0, 0), BuildingBlock: OJICUG_clean_linker_0, # of connection points: 2
#     Edge 33, Type (0, 0), BuildingBlock: OJICUG_clean_linker_0, # of connection points: 2
#     Edge 34, Type (0, 0), BuildingBlock: OJICUG_clean_linker_0, # of connection points: 2
#     Edge 35, Type (0, 0), BuildingBlock: OJICUG_clean_linker_0, # of connection points: 2
#     Edge 36, Type (0, 0), BuildingBlock: OJICUG_clean_linker_0, # of connection points: 2
#     Edge 37, Type (0, 0), BuildingBlock: OJICUG_clean_linker_0, # of connection points: 2
#     Edge 38, Type (0, 0), BuildingBlock: OJICUG_clean_linker_0, # of connection points: 2
#     Edge 39, Type (0, 0), BuildingBlock: OJICUG_clean_linker_0, # of connection points: 2
#     Edge 40, Type (0, 0), BuildingBlock: OJICUG_clean_linker_0, # of connection points: 2
#     Edge 41, Type (0, 0), BuildingBlock: OJICUG_clean_linker_0, # of connection points: 2
#     Edge 42, Type (0, 0), BuildingBlock: OJICUG_clean_linker_0, # of connection points: 2
#     Edge 43, Type (0, 0), BuildingBlock: OJICUG_clean_linker_0, # of connection points: 2
#     Edge 44, Type (0, 0), BuildingBlock: OJICUG_clean_linker_0, # of connection points: 2
#     Edge 45, Type (0, 0), BuildingBlock: OJICUG_clean_linker_0, # of connection points: 2
#     Edge 46, Type (0, 0), BuildingBlock: OJICUG_clean_linker_0, # of connection points: 2
#     Edge 47, Type (0, 0), BuildingBlock: OJICUG_clean_linker_0, # of connection points: 2
#     Edge 48, Type (0, 0), BuildingBlock: OJICUG_clean_linker_0, # of connection points: 2
#     Edge 49, Type (0, 0), BuildingBlock: OJICUG_clean_linker_0, # of connection points: 2
#     Edge 50, Type (0, 0), BuildingBlock: OJICUG_clean_linker_0, # of connection points: 2
#     Edge 51, Type (0, 0), BuildingBlock: OJICUG_clean_linker_0, # of connection points: 2
#     Edge 52, Type (0, 0), BuildingBlock: OJICUG_clean_linker_0, # of connection points: 2
#     Edge 53, Type (0, 0), BuildingBlock: OJICUG_clean_linker_0, # of connection points: 2
#     Edge 54, Type (0, 0), BuildingBlock: OJICUG_clean_linker_0, # of connection points: 2
#     Edge 55, Type (0, 0), BuildingBlock: OJICUG_clean_linker_0, # of connection points: 2
# Relax obj value: 0.177
# Max RMSD: 0.195
# Mean RMSD: 0.195
data_MOF--net-yfy--node1-XOMCOT_clean_sbu_1--edge1-OJICUG_clean_linker_0
_symmetry_space_group_name_H-M    P1
_symmetry_Int_Tables_number       1
_symmetry_cell_setting            triclinic
loop_
_symmetry_equiv_pos_as_xyz
'x, y, z'
_cell_length_a     32.02909
_cell_length_b     31.844343
_cell_length_c     39.198996
_cell_angle_alpha  90.178026
_cell_angle_beta   90.144855
_cell_angle_gamma 90.005445
loop_
_atom_site_label
_atom_site_type_symbol
_atom_site_fract_x
_atom_site_fract_y
_atom_site_fract_z
_atom_type_partial_charge
C0 C 0.96927 0.33046 0.31867 0.0
C1 C 0.93917 0.30053 0.31323 0.0
N2 N 0.95716 0.26683 0.29842 0.0
N3 N 1.00623 0.31608 0.30726 0.0
C4 C 0.99797 0.27709 0.29519 0.0
H5 H 0.96439 0.36114 0.32983 0.0
Co6 Co 0.05425 0.34897 0.30777 0.0
C7 C 0.10088 0.28134 0.26115 0.0
O8 O 0.07967 0.26869 0.23429 0.0
N9 N 0.10249 0.38294 0.30762 0.0
C10 C 0.15396 0.42677 0.32133 0.0
C11 C 0.12303 0.40109 0.33389 0.0
C12 C 0.1218 0.39792 0.27943 0.0
N13 N 0.153 0.42508 0.28695 0.0
O14 O 1.03421 0.37685 0.26836 0.0
H15 H 0.1155 0.39711 0.36051 0.0
H16 H 0.11179 0.39044 0.25375 0.0
O17 O 0.08481 0.30826 0.28135 0.0
C18 C 1.01568 0.41013 0.27841 0.0
O19 O 1.01872 0.42081 0.31074 0.0
N20 N 0.06964 0.32422 0.34874 0.0
C21 C 0.0771 0.29553 0.4154 0.0
C22 C 0.0961 0.27357 0.38849 0.0
C23 C 0.09119 0.28805 0.35497 0.0
C24 C 0.05091 0.34555 0.37463 0.0
C25 C 0.0542 0.33182 0.40809 0.0
H26 H 0.10382 0.26966 0.33438 0.0
H27 H 1.03306 0.37353 0.36906 0.0
H28 H 1.02134 0.25646 0.28455 0.0
H29 H 0.90638 0.30386 0.31919 0.0
H30 H 0.17502 0.44576 0.33651 0.0
H31 H 0.1138 0.24521 0.39328 0.0
H32 H 0.03956 0.34998 0.42819 0.0
C33 C 0.8439 0.9754 0.3201 0.0
C34 C 0.87692 0.94946 0.31245 0.0
N35 N 0.90713 0.97274 0.2979 0.0
N36 N 0.85307 1.01487 0.31035 0.0
C37 C 0.89201 1.01231 0.2973 0.0
H38 H 0.81481 0.96597 0.33171 0.0
Co39 Co 0.81584 0.05971 0.31249 0.0
C40 C 0.87612 0.11088 0.26452 0.0
O41 O 0.88324 0.08953 0.23641 0.0
N42 N 0.77817 0.10495 0.31346 0.0
C43 C 0.73029 0.15339 0.32538 0.0
C44 C 0.75577 0.12255 0.33885 0.0
C45 C 0.76578 0.12554 0.28504 0.0
N46 N 0.7365 0.15494 0.29138 0.0
O47 O 0.78916 1.03906 0.27271 0.0
H48 H 0.75687 0.11301 0.36527 0.0
H49 H 0.77786 0.11862 0.25989 0.0
O50 O 0.85267 0.09576 0.28758 0.0
C51 C 0.75828 1.01798 0.28409 0.0
O52 O 0.75133 1.01811 0.31712 0.0
N53 N 0.83932 0.0757 0.35384 0.0
C54 C 0.8684 0.08227 0.42056 0.0
C55 C 0.88901 0.10323 0.39399 0.0
C56 C 0.87431 0.09891 0.36043 0.0
C57 C 0.81916 0.05533 0.37939 0.0
C58 C 0.83304 0.0582 0.41286 0.0
H59 H 0.89165 0.11324 0.34004 0.0
H60 H 0.79219 1.0362 0.37356 0.0
H61 H 0.90892 1.03869 0.28713 0.0
H62 H 0.87866 0.91614 0.31763 0.0
H63 H 0.70784 0.17205 0.33937 0.0
H64 H 0.91657 0.12197 0.39904 0.0
H65 H 0.8158 0.04211 0.43265 0.0
C66 C 0.17918 0.86894 0.33734 0.0
C67 C 0.21008 0.8979 0.3314 0.0
N68 N 0.20666 0.91128 0.29894 0.0
N69 N 0.15552 0.86449 0.30903 0.0
C70 C 0.1742 0.88944 0.28566 0.0
H71 H 0.17371 0.85293 0.36119 0.0
Co72 Co 0.10825 0.8291 0.3048 0.0
C73 C 0.07127 0.91042 0.27411 0.0
O74 O 0.10276 0.93615 0.27874 0.0
N75 N 0.06045 0.79362 0.29969 0.0
C76 C 0.99368 0.7738 0.29958 0.0
C77 C 1.02232 0.80137 0.31301 0.0
C78 C 0.05371 0.76098 0.27792 0.0
N79 N 1.01324 0.74838 0.27723 0.0
O80 O 0.13121 0.8068 0.26404 0.0
H81 H 1.01491 0.82729 0.32981 0.0
H82 H 0.07763 0.74771 0.26178 0.0
O83 O 0.0746 0.87181 0.28242 0.0
C84 C 0.1557 0.77928 0.27705 0.0
O85 O 0.15626 0.77498 0.31041 0.0
N86 N 0.08989 0.84689 0.34754 0.0
C87 C 0.08846 0.86453 0.41687 0.0
C88 C 0.0831 0.89687 0.3931 0.0
C89 C 0.08417 0.88738 0.35824 0.0
C90 C 0.09224 0.81496 0.37044 0.0
C91 C 0.09119 0.82301 0.40521 0.0
H92 H 0.08405 0.91291 0.34035 0.0
H93 H 0.09773 0.78323 0.36163 0.0
H94 H 0.1636 0.89223 0.25952 0.0
H95 H 0.23209 0.90969 0.35011 0.0
H96 H 0.96043 0.77442 0.30437 0.0
H97 H 0.08106 0.92932 0.40127 0.0
H98 H 0.09455 0.79709 0.42284 0.0
C99 C 0.32421 0.20069 0.31637 0.0
C100 C 0.29253 0.22888 0.31095 0.0
N101 N 0.25936 0.20808 0.29809 0.0
N102 N 0.31159 0.16202 0.30688 0.0
C103 C 0.27175 0.16743 0.29602 0.0
H104 H 0.35492 0.20816 0.32612 0.0
Co105 Co 0.34751 0.11559 0.30779 0.0
C106 C 0.28355 0.0664 0.26044 0.0
O107 O 0.27172 0.08961 0.23452 0.0
N108 N 0.38391 0.06921 0.3077 0.0
C109 C 0.43105 1.01997 0.3193 0.0
C110 C 0.40539 0.0505 0.33307 0.0
C111 C 0.39693 0.04955 0.27897 0.0
N112 N 0.42589 1.01971 0.28513 0.0
O113 O 0.37445 0.1366 0.26823 0.0
H114 H 0.40365 0.05928 0.35969 0.0
H115 H 0.38572 0.0576 0.25376 0.0
O116 O 0.30911 0.08109 0.28238 0.0
C117 C 0.40646 0.15552 0.28035 0.0
O118 O 0.41408 0.15262 0.31322 0.0
N119 N 0.32459 0.09947 0.34914 0.0
C120 C 0.29914 0.09138 0.41658 0.0
C121 C 0.2806 0.0668 0.39082 0.0
C122 C 0.29344 0.07183 0.35683 0.0
C123 C 0.34295 0.12301 0.37399 0.0
C124 C 0.33061 0.1197 0.40771 0.0
H125 H 0.27821 0.05392 0.33706 0.0
H126 H 0.36744 0.14483 0.36742 0.0
H127 H 0.25213 0.14215 0.28698 0.0
H128 H 0.2944 0.26237 0.31541 0.0
H129 H 0.45308 1.00078 0.33326 0.0
H130 H 0.25633 0.04437 0.39688 0.0
H131 H 0.34641 0.13852 0.42687 0.0
C132 C 0.99144 0.88268 0.63998 0.0
C133 C 0.96102 0.91219 0.64599 0.0
N134 N 0.96434 0.92524 0.67861 0.0
N135 N 1.01461 0.87751 0.66845 0.0
C136 C 0.99632 0.90282 0.69189 0.0
H137 H 0.99678 0.86654 0.61607 0.0
Co138 Co 0.06026 0.84032 0.67296 0.0
C139 C 0.10021 0.92061 0.70338 0.0
O140 O 0.06974 0.94739 0.69822 0.0
N141 N 0.10646 0.80306 0.67838 0.0
C142 C 0.1725 0.78109 0.67988 0.0
C143 C 0.14546 0.81027 0.66667 0.0
C144 C 0.11099 0.7691 0.69895 0.0
N145 N 0.15097 0.7552 0.70046 0.0
O146 O 0.0363 0.81914 0.71371 0.0
H147 H 0.15447 0.83679 0.65118 0.0
H148 H 0.08588 0.75575 0.7137 0.0
O149 O 0.0955 0.88193 0.69553 0.0
C150 C 1.01034 0.7926 0.70113 0.0
O151 O 1.00771 0.78917 0.66775 0.0
N152 N 0.07996 0.85692 0.63036 0.0
C153 C 0.09497 0.87169 0.56181 0.0
C154 C 0.09484 0.90512 0.58508 0.0
C155 C 0.08745 0.897 0.61959 0.0
C156 C 0.07971 0.82433 0.60781 0.0
C157 C 0.08788 0.83089 0.57353 0.0
H158 H 0.08528 0.92311 0.63696 0.0
H159 H 0.07189 0.79308 0.61646 0.0
H160 H 1.0067 0.90523 0.71812 0.0
H161 H 0.93925 0.92435 0.62731 0.0
H162 H 0.20599 0.78089 0.67631 0.0
H163 H 0.09947 0.93711 0.57655 0.0
H164 H 0.08678 0.80449 0.55604 0.0
C165 C 0.33199 0.97495 0.66249 0.0
C166 C 0.29761 0.95071 0.66972 0.0
N167 N 0.26795 0.97569 0.68325 0.0
N168 N 0.32431 1.01507 0.67151 0.0
C169 C 0.28482 1.01459 0.6837 0.0
H170 H 0.36088 0.96392 0.65144 0.0
Co171 Co 0.3634 0.05847 0.6687 0.0
C172 C 0.30469 0.11318 0.71559 0.0
O173 O 0.29754 0.093 0.74416 0.0
N174 N 0.40304 0.10235 0.66706 0.0
C175 C 0.45359 0.14774 0.65471 0.0
C176 C 0.42676 0.1177 0.64162 0.0
C177 C 0.41604 0.12355 0.69514 0.0
N178 N 0.44697 0.15131 0.68861 0.0
O179 O 0.38938 1.03822 0.709 0.0
H180 H 0.42555 0.10729 0.61539 0.0
H181 H 0.40372 0.1174 0.72028 0.0
O182 O 0.32756 0.09675 0.69264 0.0
C183 C 0.41921 1.0155 0.69769 0.0
O184 O 0.42521 1.01377 0.66456 0.0
N185 N 0.34052 0.0738 0.62691 0.0
C186 C 0.30982 0.07689 0.56043 0.0
C187 C 0.28914 0.09818 0.5869 0.0
C188 C 0.30467 0.09562 0.62031 0.0
C189 C 0.36086 0.05325 0.60144 0.0
C190 C 0.34624 0.05449 0.56808 0.0
H191 H 0.28702 0.10981 0.64066 0.0
H192 H 0.38834 1.03493 0.60728 0.0
H193 H 0.26867 0.04203 0.69297 0.0
H194 H 0.29453 0.9174 0.66482 0.0
H195 H 0.47636 0.16523 0.64021 0.0
H196 H 0.26072 0.11558 0.58196 0.0
H197 H 0.36356 1.03818 0.54838 0.0
C198 C 0.21029 0.32969 0.65616 0.0
C199 C 0.24035 0.30002 0.66234 0.0
N200 N 0.22224 0.26676 0.67752 0.0
N201 N 0.17316 0.31563 0.6674 0.0
C202 C 0.18133 0.27704 0.68021 0.0
H203 H 0.21533 0.36004 0.64462 0.0
Co204 Co 0.12534 0.34899 0.66583 0.0
C205 C 0.07767 0.28314 0.71295 0.0
O206 O 0.09934 0.26977 0.73926 0.0
N207 N 0.07759 0.38344 0.6649 0.0
C208 C 1.02771 0.42871 0.6506 0.0
C209 C 0.05885 0.40282 0.63843 0.0
C210 C 0.05715 0.39792 0.69276 0.0
N211 N 1.02681 0.42583 0.68492 0.0
O212 O 0.14468 0.37777 0.70503 0.0
H213 H 0.06793 0.3996 0.61203 0.0
H214 H 0.06584 0.38951 0.71854 0.0
O215 O 0.09393 0.30949 0.69249 0.0
C216 C 0.16321 0.41096 0.69498 0.0
O217 O 0.16167 0.42051 0.6624 0.0
N218 N 0.11024 0.32334 0.62507 0.0
C219 C 0.10135 0.29432 0.5585 0.0
C220 C 0.08052 0.27421 0.58537 0.0
C221 C 0.08605 0.28884 0.61886 0.0
C222 C 0.13067 0.3429 0.59923 0.0
C223 C 0.12681 0.3289 0.56583 0.0
H224 H 0.07139 0.27215 0.63941 0.0
H225 H 0.1501 0.36985 0.60476 0.0
H226 H 0.15789 0.25672 0.69104 0.0
H227 H 0.27324 0.30324 0.65669 0.0
H228 H 1.00786 0.44867 0.63526 0.0
H229 H 0.06063 0.24732 0.58053 0.0
H230 H 0.14281 0.34574 0.54576 0.0
C231 C 0.84819 0.21356 0.6648 0.0
C232 C 0.88121 0.24042 0.6696 0.0
N233 N 0.91404 0.21813 0.68123 0.0
N234 N 0.85973 0.17436 0.67349 0.0
C235 C 0.90018 0.17803 0.68319 0.0
H236 H 0.81742 0.22222 0.65589 0.0
Co237 Co 0.82286 0.12893 0.6726 0.0
C238 C 0.88597 0.0788 0.71991 0.0
O239 O 0.89774 0.10176 0.74612 0.0
N240 N 0.78559 0.08336 0.67255 0.0
C241 C 0.73862 1.03404 0.66045 0.0
C242 C 0.76304 0.06577 0.64717 0.0
C243 C 0.77427 0.06201 0.70083 0.0
N244 N 0.74563 1.03186 0.69435 0.0
O245 O 0.79661 0.15078 0.71237 0.0
H246 H 0.76356 0.07577 0.62085 0.0
H247 H 0.78691 0.0687 0.72589 0.0
O248 O 0.86076 0.09386 0.69794 0.0
C249 C 0.76472 0.171 0.70158 0.0
O250 O 0.75508 0.16827 0.66904 0.0
N251 N 0.84554 0.11203 0.6313 0.0
C252 C 0.87226 0.10303 0.56423 0.0
C253 C 0.89118 0.0798 0.59047 0.0
C254 C 0.87771 0.08529 0.62422 0.0
C255 C 0.82689 0.13448 0.60606 0.0
C256 C 0.83976 0.13059 0.57244 0.0
H257 H 0.89352 0.06864 0.6443 0.0
H258 H 0.80185 0.15591 0.61227 0.0
H259 H 0.91927 0.15186 0.69114 0.0
H260 H 0.88063 0.27399 0.66545 0.0
H261 H 0.71648 1.01503 0.64635 0.0
H262 H 0.91639 0.05815 0.58499 0.0
H263 H 0.82373 0.14845 0.55291 0.0
C264 C 0.47653 0.83428 0.82074 0.0
C265 C 0.44569 0.80576 0.81355 0.0
N266 N 0.46321 0.77205 0.79851 0.0
N267 N 0.51352 0.81898 0.81017 0.0
C268 C 0.50455 0.78051 0.79715 0.0
H269 H 0.47215 0.86468 0.83253 0.0
Co270 Co 0.56177 0.85163 0.8116 0.0
C271 C 0.60875 0.7847 0.76479 0.0
O272 O 0.5876 0.77169 0.73801 0.0
N273 N 0.61019 0.88529 0.81214 0.0
C274 C 0.66108 0.93001 0.82539 0.0
C275 C 0.63041 0.90413 0.83824 0.0
C276 C 0.62945 0.89993 0.78384 0.0
N277 N 0.66022 0.92765 0.79102 0.0
O278 O 0.54242 0.88069 0.7725 0.0
H279 H 0.62264 0.90071 0.86487 0.0
H280 H 0.61944 0.89195 0.75826 0.0
O281 O 0.59236 0.81144 0.78493 0.0
C282 C 0.52485 0.91412 0.78341 0.0
O283 O 0.52727 0.92298 0.81612 0.0
N284 N 0.57646 0.8262 0.85237 0.0
C285 C 0.58104 0.79715 0.91912 0.0
C286 C 0.6002 0.77466 0.89251 0.0
C287 C 0.59684 0.78942 0.85888 0.0
C288 C 0.55791 0.84817 0.87797 0.0
C289 C 0.55985 0.83435 0.91142 0.0
H290 H 0.60958 0.77083 0.8384 0.0
H291 H 0.54106 0.87668 0.87215 0.0
H292 H 0.52742 0.75949 0.78624 0.0
H293 H 0.41282 0.80934 0.81926 0.0
H294 H 0.68168 0.94975 0.84035 0.0
H295 H 0.6167 0.74565 0.89757 0.0
H296 H 0.54525 0.85306 0.93121 0.0
C297 C 0.35941 0.47751 0.83061 0.0
C298 C 0.39382 0.45349 0.82329 0.0
N299 N 0.41851 0.47521 0.80189 0.0
N300 N 0.36214 0.51431 0.81392 0.0
C301 C 0.39868 0.51219 0.7967 0.0
H302 H 0.33388 0.46871 0.8471 0.0
Co303 Co 0.31979 0.5543 0.81536 0.0
C304 C 0.35651 0.63564 0.79887 0.0
O305 O 0.33268 0.65078 0.82317 0.0
N306 N 0.27487 0.59386 0.81577 0.0
C307 C 0.22084 0.63589 0.82679 0.0
C308 C 0.24905 0.6079 0.84054 0.0
C309 C 0.26093 0.6134 0.78722 0.0
N310 N 0.22838 0.63945 0.79312 0.0
O311 O 0.29799 0.5324 0.77397 0.0
H312 H 0.25024 0.59906 0.86704 0.0
H313 H 0.27484 0.60854 0.76242 0.0
O314 O 0.35595 0.59618 0.79208 0.0
C315 C 0.27076 0.50604 0.78429 0.0
O316 O 0.26561 0.50137 0.81732 0.0
N317 N 0.33923 0.57052 0.85841 0.0
C318 C 0.36659 0.57401 0.92584 0.0
C319 C 0.39164 0.58971 0.89955 0.0
C320 C 0.37788 0.5865 0.86577 0.0
C321 C 0.31544 0.55375 0.88365 0.0
C322 C 0.32811 0.55576 0.91753 0.0
H323 H 0.39922 0.59491 0.84573 0.0
H324 H 0.28689 0.5374 0.87726 0.0
H325 H 0.41027 0.53688 0.78036 0.0
H326 H 0.40059 0.42271 0.83358 0.0
H327 H 0.19717 0.65286 0.84084 0.0
H328 H 0.42215 0.60286 0.90495 0.0
H329 H 0.30793 0.54298 0.93705 0.0
C330 C 0.69457 0.38338 0.84636 0.0
C331 C 0.72456 0.413 0.83952 0.0
N332 N 0.72108 0.42434 0.80656 0.0
N333 N 0.67142 0.37641 0.81809 0.0
C334 C 0.68938 0.40076 0.79396 0.0
H335 H 0.68962 0.36848 0.87074 0.0
Co336 Co 0.62575 0.339 0.81443 0.0
C337 C 0.58485 0.41781 0.78153 0.0
O338 O 0.61546 0.44504 0.78388 0.0
N339 N 0.57932 0.30142 0.80987 0.0
C340 C 0.51386 0.27758 0.81175 0.0
C341 C 0.54229 0.30466 0.82616 0.0
C342 C 0.57203 0.27196 0.78535 0.0
N343 N 0.53236 0.25705 0.78579 0.0
O344 O 0.64887 0.31739 0.77332 0.0
H345 H 0.535 0.32735 0.8458 0.0
H346 H 0.59476 0.26275 0.76646 0.0
O347 O 0.59005 0.38018 0.79197 0.0
C348 C 0.67502 0.29044 0.78481 0.0
O349 O 0.67894 0.28659 0.81805 0.0
N350 N 0.60729 0.3565 0.85736 0.0
C351 C 0.59954 0.37578 0.92631 0.0
C352 C 0.59093 0.4062 0.90147 0.0
C353 C 0.59551 0.39606 0.86692 0.0
C354 C 0.61416 0.32625 0.88118 0.0
C355 C 0.61044 0.33517 0.91578 0.0
H356 H 0.59179 0.4206 0.84835 0.0
H357 H 0.62436 0.29538 0.8732 0.0
H358 H 0.67897 0.40158 0.76769 0.0
H359 H 0.74608 0.42638 0.85789 0.0
H360 H 0.48123 0.27543 0.81859 0.0
H361 H 0.58259 0.43795 0.90874 0.0
H362 H 0.61669 0.31063 0.93418 0.0
C363 C 0.83629 0.71079 0.81552 0.0
C364 C 0.80368 0.73836 0.81131 0.0
N365 N 0.77128 0.71746 0.79723 0.0
N366 N 0.82484 0.67258 0.80406 0.0
C367 C 0.78498 0.67754 0.79323 0.0
H368 H 0.86663 0.71821 0.82609 0.0
Co369 Co 0.85996 0.62578 0.8038 0.0
C370 C 0.79655 0.57516 0.75551 0.0
O371 O 0.7838 0.59309 0.7272 0.0
N372 N 0.89562 0.57861 0.80277 0.0
C373 C 0.94081 0.52753 0.81449 0.0
C374 C 0.91665 0.5592 0.8281 0.0
C375 C 0.90778 0.55825 0.77408 0.0
N376 N 0.93534 0.52703 0.78039 0.0
O377 O 0.88857 0.64894 0.76599 0.0
H378 H 0.91563 0.56788 0.85472 0.0
H379 H 0.89672 0.56656 0.74889 0.0
O380 O 0.82178 0.59497 0.77497 0.0
C381 C 0.92043 0.66808 0.77808 0.0
O382 O 0.92939 0.66337 0.81057 0.0
N383 N 0.83484 0.6077 0.8435 0.0
C384 C 0.80568 0.60125 0.90999 0.0
C385 C 0.78249 0.58427 0.88274 0.0
C386 C 0.7973 0.58873 0.84924 0.0
C387 C 0.85725 0.62442 0.86971 0.0
C388 C 0.84356 0.62126 0.90303 0.0
H389 H 0.77798 0.57856 0.82826 0.0
H390 H 0.88593 0.64103 0.86447 0.0
H391 H 0.76611 0.65229 0.78308 0.0
H392 H 0.8042 0.77144 0.81768 0.0
H393 H 0.96193 0.5075 0.82859 0.0
H394 H 0.7528 0.56898 0.88721 0.0
H395 H 0.86274 0.63431 0.92326 0.0
C396 C 0.46059 0.3519 0.17611 0.0
C397 C 0.43296 0.38346 0.18339 0.0
N398 N 0.45466 0.41802 0.19247 0.0
N399 N 0.49992 0.36588 0.18071 0.0
C400 C 0.49536 0.40651 0.19041 0.0
H401 H 0.45228 0.32041 0.16837 0.0
Co402 Co 0.54673 0.33066 0.17696 0.0
C403 C 0.59619 0.394 0.22583 0.0
O404 O 0.57283 0.41102 0.24963 0.0
N405 N 0.59319 0.29492 0.17455 0.0
C406 C 0.64256 0.24921 0.16012 0.0
C407 C 0.61155 0.27544 0.14796 0.0
C408 C 0.61328 0.27999 0.20235 0.0
N409 N 0.64354 0.25215 0.19449 0.0
O410 O 0.5269 0.29972 0.21486 0.0
H411 H 0.60238 0.27925 0.12157 0.0
H412 H 0.60482 0.28864 0.22812 0.0
O413 O 0.58006 0.3683 0.20455 0.0
C414 C 0.50879 0.26775 0.20167 0.0
O415 O 0.51033 0.26273 0.16838 0.0
N416 N 0.56247 0.35767 0.13707 0.0
C417 C 0.57821 0.38395 0.07073 0.0
C418 C 0.60725 0.39197 0.09689 0.0
C419 C 0.5986 0.3787 0.13023 0.0
C420 C 0.53414 0.34986 0.11191 0.0
C421 C 0.54102 0.36326 0.07877 0.0
H422 H 0.62158 0.38356 0.14993 0.0
H423 H 0.50655 0.33157 0.11737 0.0
H424 H 0.52128 0.42725 0.19572 0.0
H425 H 0.39932 0.38055 0.18273 0.0
H426 H 0.66244 0.22925 0.14478 0.0
H427 H 0.63669 0.40725 0.09144 0.0
H428 H 0.51842 0.35523 0.05919 0.0
C429 C 0.80391 0.46501 0.14359 0.0
C430 C 0.77285 0.43831 0.15391 0.0
N431 N 0.75568 0.45389 0.18253 0.0
N432 N 0.80602 0.49839 0.16492 0.0
C433 C 0.77725 0.48948 0.18928 0.0
H434 H 0.82404 0.45921 0.12214 0.0
Co435 Co 0.84525 0.54347 0.16367 0.0
C436 C 0.7675 0.58774 0.18396 0.0
O437 O 0.74624 0.56342 0.16306 0.0
N438 N 0.88499 0.58684 0.16385 0.0
C439 C 0.93817 0.62888 0.15143 0.0
C440 C 0.91103 0.59895 0.1388 0.0
C441 C 0.897 0.6096 0.19139 0.0
N442 N 0.92953 0.63548 0.18473 0.0
O443 O 0.86948 0.52228 0.20429 0.0
H444 H 0.9111 0.58611 0.11324 0.0
H445 H 0.88306 0.60574 0.21629 0.0
O446 O 0.80673 0.58133 0.18807 0.0
C447 C 0.89709 0.49685 0.19303 0.0
O448 O 0.90025 0.49165 0.15985 0.0
N449 N 0.82544 0.56166 0.12081 0.0
C450 C 0.80204 0.57736 0.0534 0.0
C451 C 0.79244 0.60624 0.07938 0.0
C452 C 0.80557 0.59838 0.11285 0.0
C453 C 0.83853 0.53578 0.09532 0.0
C454 C 0.82639 0.54232 0.06172 0.0
H455 H 0.80065 0.62238 0.13184 0.0
H456 H 0.85985 0.51051 0.10095 0.0
H457 H 0.77203 0.50883 0.2116 0.0
H458 H 0.7631 0.40999 0.14078 0.0
H459 H 0.96259 0.64417 0.13708 0.0
H460 H 0.7756 0.63492 0.07389 0.0
H461 H 0.83751 0.52092 0.04223 0.0
C462 C 0.70673 0.82372 0.17338 0.0
C463 C 0.73155 0.78933 0.17941 0.0
N464 N 0.70672 0.75588 0.18499 0.0
N465 N 0.66629 0.81229 0.17524 0.0
C466 C 0.66729 0.77067 0.18188 0.0
H467 H 0.71763 0.85508 0.16789 0.0
Co468 Co 0.62088 0.84882 0.17106 0.0
C469 C 0.57125 0.78587 0.218 0.0
O470 O 0.59552 0.77214 0.24261 0.0
N471 N 0.57509 0.88551 0.16818 0.0
C472 C 0.52665 0.93228 0.15387 0.0
C473 C 0.55827 0.90668 0.1418 0.0
C474 C 0.55326 0.8986 0.19574 0.0
N475 N 0.52362 0.92718 0.18798 0.0
O476 O 0.63927 0.8777 0.21061 0.0
H477 H 0.56883 0.90442 0.11568 0.0
H478 H 0.56019 0.88824 0.22138 0.0
O479 O 0.58534 0.81153 0.19603 0.0
C480 C 0.65874 0.90958 0.19896 0.0
O481 O 0.65935 0.91543 0.16578 0.0
N482 N 0.60684 0.82357 0.12987 0.0
C483 C 0.59907 0.79428 0.06316 0.0
C484 C 0.57193 0.77996 0.08876 0.0
C485 C 0.57655 0.79486 0.12228 0.0
C486 C 0.63331 0.8376 0.10535 0.0
C487 C 0.63015 0.82331 0.07196 0.0
H488 H 0.55581 0.78346 0.14171 0.0
H489 H 0.65705 0.86041 0.11189 0.0
H490 H 0.63961 0.7516 0.18438 0.0
H491 H 0.76532 0.78897 0.17888 0.0
H492 H 0.50776 0.95326 0.13864 0.0
H493 H 0.54737 0.75768 0.08291 0.0
H494 H 0.65107 0.83609 0.05297 0.0
C495 C 0.34207 0.71362 0.17306 0.0
C496 C 0.37404 0.74121 0.1795 0.0
N497 N 0.40821 0.71906 0.1884 0.0
N498 N 0.35562 0.67405 0.17803 0.0
C499 C 0.39624 0.67832 0.18701 0.0
H500 H 0.31067 0.72207 0.16564 0.0
Co501 Co 0.32111 0.62675 0.17505 0.0
C502 C 0.38516 0.58019 0.22422 0.0
O503 O 0.39924 0.60497 0.24851 0.0
N504 N 0.28622 0.57937 0.17317 0.0
C505 C 0.24124 0.52908 0.15884 0.0
C506 C 0.26637 0.56099 0.14669 0.0
C507 C 0.27269 0.5583 0.20092 0.0
N508 N 0.2451 0.52761 0.19312 0.0
O509 O 0.29079 0.64698 0.21318 0.0
H510 H 0.26899 0.57087 0.12041 0.0
H511 H 0.28285 0.56579 0.22656 0.0
O512 O 0.35932 0.59423 0.20228 0.0
C513 C 0.25874 0.66493 0.20027 0.0
O514 O 0.25249 0.66166 0.1672 0.0
N515 N 0.34752 0.61098 0.1351 0.0
C516 C 0.37573 0.59787 0.069 0.0
C517 C 0.38873 0.57133 0.09552 0.0
C518 C 0.37444 0.57872 0.12876 0.0
C519 C 0.33487 0.63695 0.10962 0.0
C520 C 0.34887 0.63127 0.0765 0.0
H521 H 0.38435 0.55817 0.14887 0.0
H522 H 0.31299 0.66191 0.11507 0.0
H523 H 0.4168 0.65217 0.19206 0.0
H524 H 0.37186 0.77508 0.17837 0.0
H525 H 0.22059 0.50964 0.14366 0.0
H526 H 0.40915 0.54493 0.09051 0.0
H527 H 0.33716 0.65176 0.05665 0.0
C528 C 0.12307 0.27908 0.46499 0.0
C529 C 0.08273 0.2831 0.45141 0.0
H530 H 0.16062 0.27899 0.51029 0.0
C531 C 0.04825 0.28243 0.47355 0.0
H532 H 0.15012 0.27968 0.44845 0.0
C533 C 0.0542 0.28181 0.50886 0.0
C534 C 0.09473 0.28229 0.52246 0.0
H535 H 1.01679 0.28521 0.46357 0.0
H536 H 1.02729 0.28459 0.5254 0.0
C537 C 0.12904 0.27889 0.5003 0.0
C538 C 0.88713 0.13206 0.50633 0.0
C539 C 0.88337 0.09706 0.52793 0.0
H540 H 0.88585 0.15468 0.45492 0.0
C541 C 0.88302 0.05666 0.5136 0.0
H542 H 0.88792 0.16356 0.51686 0.0
C543 C 0.88188 0.05161 0.4782 0.0
C544 C 0.88129 0.08688 0.45666 0.0
H545 H 0.8801 1.02918 0.52965 0.0
H546 H 0.87864 1.02026 0.46772 0.0
C547 C 0.88621 0.12701 0.47093 0.0
C548 C 0.06918 0.90209 0.50712 0.0
C549 C 0.09913 0.87843 0.5249 0.0
H550 H 0.04199 0.91597 0.4583 0.0
C551 C 0.12872 0.85508 0.50671 0.0
H552 H 0.04585 0.92001 0.52085 0.0
C553 C 0.12654 0.85277 0.47133 0.0
C554 C 0.09442 0.87339 0.45356 0.0
H555 H 0.15216 0.8368 0.52002 0.0
H556 H 0.14892 0.83327 0.45796 0.0
C557 C 0.06684 0.8996 0.47151 0.0
C558 C 0.29614 0.04301 0.50374 0.0
C559 C 0.29546 0.07915 0.52452 0.0
H560 H 0.29699 1.01857 0.45274 0.0
C561 C 0.28708 0.11821 0.50955 0.0
H562 H 0.30188 1.01239 0.51476 0.0
C563 C 0.28407 0.12165 0.47411 0.0
C564 C 0.28916 0.08607 0.45315 0.0
H565 H 0.28633 0.14653 0.52492 0.0
H566 H 0.2808 0.15257 0.46295 0.0
C567 C 0.29291 0.04644 0.4683 0.0
C568 C 0.62354 0.77686 0.97 0.0
C569 C 0.58429 0.78418 0.95526 0.0
H570 H 0.65896 0.77341 0.01631 0.0
C571 C 0.54896 0.78632 0.97645 0.0
H572 H 0.65124 0.77507 0.95426 0.0
C573 C 0.55332 0.78569 0.01189 0.0
C574 C 0.59314 0.78297 0.02673 0.0
H575 H 0.51823 0.79145 0.96561 0.0
H576 H 0.52595 0.79088 0.02751 0.0
C577 C 0.62794 0.77629 0.00549 0.0
C578 C 0.37327 0.54322 0.98418 0.0
C579 C 0.37943 0.57725 0.96199 0.0
H580 H 0.36811 0.52305 0.03603 0.0
C581 C 0.39275 0.61591 0.97537 0.0
H582 H 0.3637 0.51285 0.97437 0.0
C583 C 0.39556 0.62163 0.01061 0.0
C584 C 0.38528 0.58872 0.0329 0.0
H585 H 0.39782 0.64258 0.9588 0.0
H586 H 0.40294 0.65257 0.02049 0.0
C587 C 0.37628 0.54888 0.01941 0.0
C588 C 0.6296 0.37222 0.98514 0.0
C589 C 0.59757 0.38572 0.96316 0.0
H590 H 0.64886 0.36201 0.0368 0.0
C591 C 0.56219 0.40526 0.97702 0.0
H592 H 0.65752 0.35763 0.975 0.0
C593 C 0.55734 0.40793 0.01238 0.0
C594 C 0.58797 0.39146 0.03438 0.0
H595 H 0.53713 0.41601 0.96063 0.0
H596 H 0.52859 0.42073 0.02256 0.0
C597 C 0.62493 0.37522 0.02046 0.0
C598 C 0.79705 0.62594 0.00347 0.0
C599 C 0.79173 0.58558 0.01709 0.0
H600 H 0.80422 0.66273 0.95835 0.0
C601 C 0.78219 0.55208 -0.00517 0.0
H602 H 0.8044 0.65246 0.01977 0.0
C603 C 0.78268 0.5579 0.95951 0.0
C604 C 0.79254 0.59736 0.94598 0.0
H605 H 0.77694 0.52078 0.00467 0.0
H606 H 0.77876 0.53091 0.94292 0.0
C607 C 0.79725 0.63177 0.96824 0.0
C608 C 0.15495 0.2243 0.25516 0.0
C609 C 0.1424 0.26302 0.26913 0.0
H610 H 0.20189 0.17634 0.25334 0.0
C611 C 0.16934 0.28357 0.29204 0.0
H612 H 0.13494 0.2077 0.23734 0.0
C613 C 0.20722 0.26539 0.30162 0.0
C614 C 0.21972 0.22631 0.2882 0.0
H615 H 0.16086 0.31356 0.30311 0.0
H616 H 0.22635 0.28188 0.32006 0.0
C617 C 0.19315 0.20609 0.26465 0.0
C618 C 0.8788 0.17934 0.29528 0.0
C619 C 0.89613 0.1521 0.27088 0.0
H620 H 0.88494 0.2359 0.32385 0.0
C621 C 0.93336 0.16381 0.25458 0.0
H622 H 0.84994 0.17147 0.30813 0.0
C623 C 0.95349 0.20149 0.26344 0.0
C624 C 0.93659 0.22819 0.28861 0.0
H625 H 0.94741 0.14346 0.23564 0.0
H626 H 0.98218 0.20965 0.25054 0.0
C627 C 0.89882 0.21663 0.30416 0.0
C628 C 0.98171 0.98607 0.28531 0.0
C629 C 0.94748 0.95843 0.28637 0.0
H630 H 0.04772 0.99281 0.2797 0.0
C631 C 0.95378 0.9161 0.27745 0.0
H632 H 0.9781 1.01888 0.29189 0.0
C633 C 0.9938 0.90112 0.2703 0.0
C634 C 1.02852 0.92806 0.2721 0.0
H635 H 0.92795 0.89421 0.27693 0.0
H636 H 0.99777 0.86794 0.26508 0.0
C637 C 1.02177 0.97107 0.27818 0.0
C638 C 0.28743 0.99491 0.28656 0.0
C639 C 0.26615 1.02368 0.26565 0.0
H640 H 0.28547 0.93632 0.31304 0.0
C641 C 0.22715 1.0121 0.25204 0.0
H642 H 0.31794 1.0024 0.29688 0.0
C643 C 0.20851 0.9739 0.2613 0.0
C644 C 0.22855 0.9466 0.28433 0.0
H645 H 0.2101 1.03344 0.23566 0.0
H646 H 0.17748 0.96693 0.25192 0.0
C647 C 0.26882 0.95699 0.29587 0.0
C648 C 0.19333 0.99234 0.69318 0.0
C649 C 0.2265 0.9634 0.69372 0.0
H650 H 0.12735 1.00178 0.69659 0.0
C651 C 0.21808 0.92165 0.70308 0.0
H652 H 0.19856 1.02474 0.68618 0.0
C653 C 0.17717 0.90847 0.70923 0.0
C654 C 0.14362 0.93665 0.70596 0.0
H655 H 0.24299 0.8988 0.70479 0.0
H656 H 0.17168 0.87568 0.71494 0.0
C657 C 0.15236 0.97913 0.69928 0.0
C658 C 0.22652 0.20324 0.71433 0.0
C659 C 0.24294 0.22862 0.6882 0.0
H660 H 0.23343 0.14692 0.74399 0.0
C661 C 0.28056 0.21639 0.67268 0.0
H662 H 0.19793 0.21197 0.72716 0.0
C663 C 0.30099 0.17978 0.6826 0.0
C664 C 0.28427 0.1539 0.7081 0.0
H665 H 0.29403 0.23464 0.65226 0.0
H666 H 0.32972 0.17135 0.66974 0.0
C667 C 0.2471 0.16626 0.72427 0.0
C668 C 0.98138 0.21312 0.71278 0.0
C669 C 0.95493 0.23439 0.68985 0.0
H670 H 0.04074 0.21197 0.73835 0.0
C671 C 0.96891 0.27239 0.67569 0.0
H672 H 0.97148 0.18414 0.72461 0.0
C673 C 1.00819 0.28851 0.68389 0.0
C674 C 1.03496 0.26695 0.70623 0.0
H675 H 0.94984 0.28955 0.6577 0.0
H676 H 1.01781 0.31768 0.67221 0.0
C677 C 1.02092 0.2293 0.72095 0.0
C678 C 0.96199 0.98717 0.71727 0.0
C679 C 0.94221 0.96018 0.69372 0.0
H680 H 0.95977 0.04609 0.74409 0.0
C681 C 0.90183 0.97036 0.6824 0.0
H682 H 0.99314 0.98032 0.72644 0.0
C683 C 0.88278 1.00781 0.69251 0.0
C684 C 0.90375 1.03633 0.71401 0.0
H685 H 0.8854 0.94989 0.66482 0.0
H686 H 0.8522 1.01521 0.68233 0.0
C687 C 0.94292 1.02492 0.72733 0.0
C688 C 0.66581 0.73149 0.75574 0.0
C689 C 0.65112 0.76795 0.77207 0.0
H690 H 0.71549 0.68688 0.75073 0.0
C691 C 0.677 0.78789 0.79617 0.0
H692 H 0.64674 0.71542 0.73695 0.0
C693 C 0.71612 0.77132 0.80438 0.0
C694 C 0.73074 0.73448 0.7885 0.0
H695 H 0.66689 0.81618 0.8091 0.0
H696 H 0.73455 0.78717 0.82365 0.0
C697 C 0.70512 0.71488 0.76391 0.0
C698 C 0.45685 0.69458 0.79497 0.0
C699 C 0.4411 0.73484 0.78784 0.0
H700 H 0.44175 0.62951 0.80267 0.0
C701 C 0.40031 0.73857 0.77499 0.0
H702 H 0.48825 0.69088 0.8048 0.0
C703 C 0.37397 0.70377 0.77367 0.0
C704 C 0.38797 0.66448 0.78495 0.0
H705 H 0.38774 0.76912 0.76859 0.0
H706 H 0.34138 0.70845 0.76716 0.0
C707 C 0.43033 0.65945 0.79352 0.0
C708 C 0.53245 0.47666 0.77997 0.0
C709 C 0.54129 0.43337 0.77829 0.0
H710 H 0.48607 0.52406 0.78898 0.0
C711 C 0.50782 0.40482 0.77914 0.0
H712 H 0.5574 0.4996 0.77926 0.0
C713 C 0.46715 0.4189 0.78487 0.0
C714 C 0.45883 0.46185 0.78963 0.0
H715 H 0.51328 0.37132 0.77731 0.0
H716 H 0.44236 0.39594 0.78697 0.0
C717 C 0.49155 0.49077 0.78556 0.0
C718 C 0.74178 0.5189 0.75187 0.0
C719 C 0.77964 0.53362 0.76566 0.0
H720 H 0.69331 0.47271 0.75409 0.0
C721 C 0.80006 0.50917 0.79037 0.0
H722 H 0.72535 0.53684 0.73263 0.0
C723 C 0.78176 0.47231 0.8026 0.0
C724 C 0.74265 0.45881 0.79034 0.0
H725 H 0.82963 0.51914 0.80106 0.0
H726 H 0.7979 0.45485 0.82226 0.0
C727 C 0.72345 0.48195 0.7641 0.0
C728 C 0.6509 0.45067 0.22561 0.0
C729 C 0.63971 0.40841 0.22055 0.0
H730 H 0.69685 0.49859 0.21715 0.0
C731 C 0.66958 0.38064 0.20723 0.0
H732 H 0.62854 0.47281 0.23592 0.0
C733 C 0.70857 0.39519 0.19675 0.0
C734 C 0.71876 0.43801 0.19923 0.0
H735 H 0.66231 0.34784 0.20362 0.0
H736 H 0.73024 0.37306 0.18555 0.0
C737 C 0.69007 0.4654 0.21494 0.0
C738 C 0.77545 0.6627 0.20284 0.0
C739 C 0.74956 0.62937 0.1925 0.0
H740 H 0.78199 0.72908 0.20901 0.0
C741 C 0.70766 0.63799 0.18429 0.0
H742 H 0.80783 0.65722 0.20954 0.0
C743 C 0.69304 0.67929 0.18333 0.0
C744 C 0.7199 0.71304 0.19076 0.0
H745 H 0.68672 0.61302 0.17647 0.0
H746 H 0.66136 0.68464 0.17481 0.0
C747 C 0.76076 0.70407 0.202 0.0
C748 C 0.51641 0.7299 0.22579 0.0
C749 C 0.52832 0.76944 0.2133 0.0
H750 H 0.46872 0.68261 0.22759 0.0
C751 C 0.49955 0.79249 0.1938 0.0
H752 H 0.53793 0.71139 0.24089 0.0
C753 C 0.46046 0.77596 0.18581 0.0
C754 C 0.44868 0.73596 0.19735 0.0
H755 H 0.50758 0.82309 0.18384 0.0
H756 H 0.43991 0.79432 0.1698 0.0
C757 C 0.47698 0.71323 0.21779 0.0
C758 C 0.46059 0.48798 0.22091 0.0
C759 C 0.43718 0.45822 0.20225 0.0
H760 H 0.46234 0.54989 0.243 0.0
C761 C 0.39581 0.46833 0.19331 0.0
H762 H 0.49226 0.48118 0.22878 0.0
C763 C 0.37862 0.50705 0.20205 0.0
C764 C 0.40234 0.53735 0.21946 0.0
H765 H 0.37669 0.44684 0.17869 0.0
H766 H 0.34699 0.51375 0.19404 0.0
C767 C 0.44327 0.52715 0.2295 0.0
C768 C 0.21718 0.51357 0.25099 0.0
C769 C 0.22256 0.50111 0.2168 0.0
H770 H 0.19082 0.4999 0.29967 0.0
C771 C 0.20503 0.46264 0.20623 0.0
H772 H 0.22933 0.54325 0.2601 0.0
C773 C 0.18265 0.43752 0.2292 0.0
C774 C 0.17719 0.45017 0.26336 0.0
H775 H 0.20886 0.4517 0.18027 0.0
H776 H 0.16992 0.40802 0.22019 0.0
C777 C 0.19492 0.48852 0.27387 0.0
C778 C 0.70906 0.16598 0.23282 0.0
C779 C 0.71451 0.18027 0.26658 0.0
H780 H 0.68208 0.17712 0.18368 0.0
C781 C 0.69755 0.21937 0.27574 0.0
H782 H 0.72116 0.13577 0.22492 0.0
C783 C 0.67526 0.2433 0.25193 0.0
C784 C 0.66896 0.22862 0.21835 0.0
H785 H 0.70172 0.23164 0.3013 0.0
H786 H 0.66303 0.2734 0.25996 0.0
C787 C 0.68658 0.18979 0.20906 0.0
C788 C 0.93323 0.67436 0.23983 0.0
C789 C 0.95139 0.66295 0.20848 0.0
H790 H 0.93876 0.70904 0.28636 0.0
C791 C 0.99134 0.679 0.20088 0.0
H792 H 0.90257 0.66312 0.24681 0.0
C793 C 1.01202 0.70616 0.22358 0.0
C794 C 0.99345 0.71807 0.25464 0.0
H795 H 1.00689 0.67069 0.17737 0.0
H796 H 0.04216 0.71847 0.21629 0.0
C797 C 0.95397 0.70128 0.26255 0.0
C798 C 0.46594 0.95618 0.26855 0.0
C799 C 0.44894 0.9955 0.26015 0.0
H800 H 0.50163 0.90315 0.25219 0.0
C801 C 0.45563 1.01119 0.22706 0.0
H802 H 0.4609 0.94284 0.29357 0.0
C803 C 0.47934 0.98857 0.20327 0.0
C804 C 0.497 0.94952 0.21182 0.0
H805 H 0.44357 0.0416 0.21975 0.0
H806 H 0.48472 1.00236 0.17849 0.0
C807 C 0.48945 0.93343 0.24471 0.0
C808 C 0.22692 0.6777 0.73797 0.0
C809 C 0.20752 0.6667 0.76886 0.0
H810 H 0.2239 0.71314 0.69187 0.0
C811 C 0.16781 0.68368 0.77586 0.0
H812 H 0.25751 0.66577 0.73153 0.0
C813 C 0.14866 0.71169 0.75311 0.0
C814 C 0.16866 0.72348 0.72267 0.0
H815 H 0.15146 0.67563 0.79904 0.0
H816 H 0.11873 0.72494 0.75997 0.0
C817 C 0.20773 0.70546 0.71522 0.0
C818 C 0.45307 0.18402 0.74618 0.0
C819 C 0.46906 0.1776 0.71313 0.0
H820 H 0.4608 0.2127 0.79507 0.0
C821 C 0.50723 0.1971 0.70481 0.0
H822 H 0.42378 0.17019 0.75388 0.0
C823 C 0.52836 0.22247 0.72862 0.0
C824 C 0.51205 0.22907 0.76155 0.0
H825 H 0.52106 0.19282 0.67992 0.0
H826 H 0.55708 0.23747 0.72086 0.0
C827 C 0.47428 0.20906 0.76997 0.0
C828 C 0.99527 0.4366 0.74216 0.0
C829 C 1.00186 0.45035 0.7085 0.0
H830 H 0.96861 0.44965 0.7911 0.0
C831 C 0.98477 0.48925 0.6987 0.0
H832 H 1.00722 0.40658 0.75057 0.0
C833 C 0.96248 0.51398 0.72201 0.0
C834 C 0.95664 0.50059 0.75583 0.0
H835 H 0.98955 0.50133 0.67326 0.0
H836 H 0.9509 0.54417 0.71368 0.0
C837 C 0.97305 0.46137 0.76548 0.0
C838 C 0.70134 0.99145 0.77695 0.0
C839 C 0.6835 0.95293 0.76692 0.0
H840 H 0.73422 0.04678 0.76199 0.0
C841 C 0.68744 0.94047 0.73255 0.0
H842 H 0.69851 1.00265 0.80291 0.0
C843 C 0.70796 0.96609 0.70887 0.0
C844 C 0.72531 1.00481 0.71889 0.0
H845 H 0.67478 0.91081 0.72384 0.0
H846 H 0.71047 0.95538 0.68273 0.0
C847 C 0.72193 1.01695 0.75332 0.0
C848 C 0.95349 0.73991 0.7066 0.0
C849 C 0.98622 0.7628 0.72197 0.0
H850 H 0.90733 0.69178 0.712 0.0
C851 C 0.99724 0.75415 0.75579 0.0
H852 H 0.9442 0.74592 0.68048 0.0
C853 C 0.97626 0.72271 0.77372 0.0
C854 C 0.94376 0.69955 0.75819 0.0
H855 H 1.02258 0.77094 0.76811 0.0
H856 H 0.98555 0.71664 0.79983 0.0
C857 C 0.93246 0.70866 0.72451 0.0
C858 C 0.44653 0.99597 0.75539 0.0
C859 C 0.44621 0.9901 0.72 0.0
H860 H 0.47221 0.97676 0.80316 0.0
C861 C 0.4724 0.95936 0.70545 0.0
H862 H 0.42676 1.01943 0.76723 0.0
C863 C 0.49827 0.93476 0.7259 0.0
C864 C 0.49874 0.94069 0.76127 0.0
H865 H 0.47273 0.95393 0.67816 0.0
H866 H 0.5178 0.91113 0.71402 0.0
C867 C 0.47275 0.97162 0.77584 0.0
C868 C 0.1922 0.42655 0.75278 0.0
C869 C 0.1898 0.43604 0.718 0.0
H870 H 0.22 0.4411 0.80082 0.0
C871 C 0.21467 0.4687 0.70485 0.0
H872 H 0.17363 0.40148 0.76359 0.0
C873 C 0.24163 0.4913 0.72612 0.0
C874 C 0.2439 0.48179 0.76092 0.0
H875 H 0.21367 0.47662 0.67801 0.0
H876 H 0.26032 0.51634 0.71541 0.0
C877 C 0.21891 0.44925 0.77403 0.0
C878 C 0.73119 0.23713 0.77699 0.0
C879 C 0.69873 0.26138 0.76274 0.0
H880 H 0.77733 0.18937 0.76908 0.0
C881 C 0.68803 0.25539 0.72844 0.0
H882 H 0.74026 0.24105 0.80345 0.0
C883 C 0.70912 0.2254 0.70888 0.0
C884 C 0.74148 0.20101 0.7232 0.0
H885 H 0.66298 0.27329 0.71688 0.0
H886 H 0.70006 0.22149 0.68243 0.0
C887 C 0.75239 0.20732 0.75743 0.0
C888 C 0.9815 0.42204 0.22187 0.0
C889 C 0.98646 0.43326 0.2562 0.0
H890 H 0.94903 0.43314 0.17521 0.0
C891 C 0.9613 0.46544 0.26994 0.0
H892 H 1.00016 0.39725 0.21064 0.0
C893 C 0.93157 0.48581 0.24976 0.0
C894 C 0.92673 0.47459 0.21542 0.0
H895 H 0.96418 0.47466 0.29646 0.0
H896 H 0.91276 0.51053 0.26093 0.0
C897 C 0.95203 0.44257 0.20167 0.0
C898 C 0.68013 0.93584 0.25651 0.0
C899 C 0.68306 0.93803 0.22097 0.0
H900 H 0.70153 0.95978 0.30431 0.0
C901 C 0.71043 0.96738 0.20612 0.0
H902 H 0.65933 0.91359 0.26859 0.0
C903 C 0.73489 0.99368 0.22648 0.0
C904 C 0.73208 0.99137 0.26203 0.0
H905 H 0.71348 0.96973 0.17868 0.0
H906 H 0.75597 1.01568 0.21441 0.0
C907 C 0.70428 0.96242 0.27687 0.0
C908 C 0.1758 0.74543 0.22167 0.0
C909 C 0.18238 0.7512 0.25666 0.0
H910 H 0.19441 0.71286 0.17652 0.0
C911 C 0.21404 0.72806 0.27314 0.0
H912 H 0.15149 0.76258 0.20844 0.0
C913 C 0.23857 0.69955 0.25507 0.0
C914 C 0.23184 0.69346 0.22014 0.0
H915 H 0.22002 0.73194 0.30018 0.0
H916 H 0.26283 0.68247 0.26842 0.0
C917 C 0.20022 0.71666 0.20359 0.0
C918 C 0.43081 0.18319 0.2241 0.0
C919 C 0.43302 0.18331 0.25975 0.0
H920 H 0.45354 0.20971 0.17778 0.0
C921 C 0.46074 0.21116 0.27628 0.0
H922 H 0.40977 0.16213 0.21076 0.0
C923 C 0.48553 0.23867 0.25756 0.0
C924 C 0.48342 0.23851 0.22193 0.0
H925 H 0.46299 0.2122 0.30384 0.0
H926 H 0.5063 0.25995 0.27095 0.0
C927 C 0.45601 0.21039 0.20534 0.0
loop_
_geom_bond_atom_site_label_1
_geom_bond_atom_site_label_2
_geom_bond_distance
_geom_bond_site_symmetry_2
_ccdc_geom_bond_type
C0 C1 1.351 . S
C0 N3 1.368 . S
C0 H5 0.931 . S
C1 C0 1.351 . S
C1 N2 1.373 . S
C1 H29 0.930 . S
N2 C1 1.373 . S
N2 C4 1.340 . S
N3 C0 1.368 . S
N3 C4 1.321 . S
N3 Co6 2.135 1_655 S
C4 N2 1.340 . S
C4 N3 1.321 . S
C4 H28 0.930 1_655 S
H5 C0 0.931 . S
Co6 N3 2.135 1_455 S
Co6 N9 2.121 . S
Co6 O14 2.041 1_455 S
Co6 O17 2.039 . S
Co6 N20 2.140 . S
C7 O8 1.227 . S
C7 O17 1.265 . S
O8 C7 1.227 . S
N9 Co6 2.121 . S
N9 C11 1.375 . S
N9 C12 1.313 . S
C10 C11 1.338 . S
C10 N13 1.377 . S
C10 H30 0.930 . S
C11 N9 1.375 . S
C11 C10 1.338 . S
C11 H15 0.931 . S
C12 N9 1.313 . S
C12 N13 1.344 . S
C12 H16 0.930 . S
N13 C10 1.377 . S
N13 C12 1.344 . S
O14 Co6 2.041 1_655 S
O14 C18 1.268 . S
H15 C11 0.931 . S
H16 C12 0.930 . S
O17 Co6 2.039 . S
O17 C7 1.265 . S
C18 O14 1.268 . S
C18 O19 1.227 . S
O19 C18 1.227 . S
N20 Co6 2.140 . S
N20 C23 1.346 . S
N20 C24 1.345 . S
C21 C22 1.387 . S
C21 C25 1.391 . S
C22 C21 1.387 . S
C22 C23 1.369 . S
C22 H31 0.929 . S
C23 N20 1.346 . S
C23 C22 1.369 . S
C23 H26 0.928 . S
C24 N20 1.345 . S
C24 C25 1.371 . S
C24 H27 0.931 . S
C25 C21 1.391 . S
C25 C24 1.371 . S
C25 H32 0.930 . S
H26 C23 0.928 . S
H27 C24 0.931 . S
H28 C4 0.930 1_455 S
H29 C1 0.930 . S
H30 C10 0.930 . S
H31 C22 0.929 . S
H32 C25 0.930 . S
C33 C34 1.351 . S
C33 N36 1.368 . S
C33 H38 0.931 . S
C34 C33 1.351 . S
C34 N35 1.373 . S
C34 H62 0.930 . S
N35 C34 1.373 . S
N35 C37 1.340 . S
N36 C33 1.368 . S
N36 C37 1.321 . S
N36 Co39 2.135 1_565 S
C37 N35 1.340 . S
C37 N36 1.321 . S
C37 H61 0.930 1_565 S
H38 C33 0.931 . S
Co39 N36 2.135 1_545 S
Co39 N42 2.121 . S
Co39 O47 2.041 1_545 S
Co39 O50 2.039 . S
Co39 N53 2.140 . S
C40 O41 1.227 . S
C40 O50 1.265 . S
O41 C40 1.227 . S
N42 Co39 2.121 . S
N42 C44 1.375 . S
N42 C45 1.313 . S
C43 C44 1.338 . S
C43 N46 1.377 . S
C43 H63 0.930 . S
C44 N42 1.375 . S
C44 C43 1.338 . S
C44 H48 0.931 . S
C45 N42 1.313 . S
C45 N46 1.344 . S
C45 H49 0.930 . S
N46 C43 1.377 . S
N46 C45 1.344 . S
O47 Co39 2.041 1_565 S
O47 C51 1.268 . S
H48 C44 0.931 . S
H49 C45 0.930 . S
O50 Co39 2.039 . S
O50 C40 1.265 . S
C51 O47 1.268 . S
C51 O52 1.227 . S
O52 C51 1.227 . S
N53 Co39 2.140 . S
N53 C56 1.346 . S
N53 C57 1.345 . S
C54 C55 1.387 . S
C54 C58 1.391 . S
C55 C54 1.387 . S
C55 C56 1.369 . S
C55 H64 0.929 . S
C56 N53 1.346 . S
C56 C55 1.369 . S
C56 H59 0.928 . S
C57 N53 1.345 . S
C57 C58 1.371 . S
C57 H60 0.931 . S
C58 C54 1.391 . S
C58 C57 1.371 . S
C58 H65 0.930 . S
H59 C56 0.928 . S
H60 C57 0.931 . S
H61 C37 0.930 1_545 S
H62 C34 0.930 . S
H63 C43 0.930 . S
H64 C55 0.929 . S
H65 C58 0.930 . S
C66 C67 1.351 . S
C66 N69 1.368 . S
C66 H71 0.931 . S
C67 C66 1.351 . S
C67 N68 1.373 . S
C67 H95 0.930 . S
N68 C67 1.373 . S
N68 C70 1.340 . S
N69 C66 1.368 . S
N69 C70 1.321 . S
N69 Co72 2.135 . S
C70 N68 1.340 . S
C70 N69 1.321 . S
C70 H94 0.930 . S
H71 C66 0.931 . S
Co72 N69 2.135 . S
Co72 N75 2.121 . S
Co72 O80 2.055 . S
Co72 O83 2.039 . S
Co72 N86 2.140 . S
C73 O74 1.227 . S
C73 O83 1.265 . S
O74 C73 1.227 . S
N75 Co72 2.121 . S
N75 C77 1.375 1_455 S
N75 C78 1.313 . S
C76 C77 1.338 . S
C76 N79 1.377 . S
C76 H96 0.930 . S
C77 N75 1.375 1_655 S
C77 C76 1.338 . S
C77 H81 0.931 . S
C78 N75 1.313 . S
C78 N79 1.344 1_455 S
C78 H82 0.930 . S
N79 C76 1.377 . S
N79 C78 1.344 1_655 S
O80 Co72 2.055 . S
O80 C84 1.253 . S
H81 C77 0.931 . S
H82 C78 0.930 . S
O83 Co72 2.039 . S
O83 C73 1.265 . S
C84 O80 1.253 . S
C84 O85 1.227 . S
O85 C84 1.227 . S
N86 Co72 2.140 . S
N86 C89 1.346 . S
N86 C90 1.345 . S
C87 C88 1.387 . S
C87 C91 1.391 . S
C88 C87 1.387 . S
C88 C89 1.369 . S
C88 H97 0.929 . S
C89 N86 1.346 . S
C89 C88 1.369 . S
C89 H92 0.928 . S
C90 N86 1.345 . S
C90 C91 1.371 . S
C90 H93 0.931 . S
C91 C87 1.391 . S
C91 C90 1.371 . S
C91 H98 0.930 . S
H92 C89 0.928 . S
H93 C90 0.931 . S
H94 C70 0.930 . S
H95 C67 0.930 . S
H96 C76 0.930 . S
H97 C88 0.929 . S
H98 C91 0.930 . S
C99 C100 1.351 . S
C99 N102 1.368 . S
C99 H104 0.931 . S
C100 C99 1.351 . S
C100 N101 1.373 . S
C100 H128 0.930 . S
N101 C100 1.373 . S
N101 C103 1.340 . S
N102 C99 1.368 . S
N102 C103 1.321 . S
N102 Co105 2.135 . S
C103 N101 1.340 . S
C103 N102 1.321 . S
C103 H127 0.930 . S
H104 C99 0.931 . S
Co105 N102 2.135 . S
Co105 N108 2.121 . S
Co105 O113 2.055 . S
Co105 O116 2.039 . S
Co105 N119 2.140 . S
C106 O107 1.227 . S
C106 O116 1.265 . S
O107 C106 1.227 . S
N108 Co105 2.121 . S
N108 C110 1.375 1_545 S
N108 C111 1.313 . S
C109 C110 1.338 . S
C109 N112 1.377 . S
C109 H129 0.930 . S
C110 N108 1.375 1_565 S
C110 C109 1.338 . S
C110 H114 0.931 . S
C111 N108 1.313 . S
C111 N112 1.344 1_545 S
C111 H115 0.930 . S
N112 C109 1.377 . S
N112 C111 1.344 1_565 S
O113 Co105 2.055 . S
O113 C117 1.253 . S
H114 C110 0.931 . S
H115 C111 0.930 . S
O116 Co105 2.039 . S
O116 C106 1.265 . S
C117 O113 1.253 . S
C117 O118 1.227 . S
O118 C117 1.227 . S
N119 Co105 2.140 . S
N119 C122 1.346 . S
N119 C123 1.345 . S
C120 C121 1.387 . S
C120 C124 1.391 . S
C121 C120 1.387 . S
C121 C122 1.369 . S
C121 H130 0.929 . S
C122 N119 1.346 . S
C122 C121 1.369 . S
C122 H125 0.928 . S
C123 N119 1.345 . S
C123 C124 1.371 . S
C123 H126 0.931 . S
C124 C120 1.391 . S
C124 C123 1.371 . S
C124 H131 0.930 . S
H125 C122 0.928 . S
H126 C123 0.931 . S
H127 C103 0.930 . S
H128 C100 0.930 . S
H129 C109 0.930 . S
H130 C121 0.929 . S
H131 C124 0.930 . S
C132 C133 1.351 . S
C132 N135 1.368 . S
C132 H137 0.931 . S
C133 C132 1.351 . S
C133 N134 1.373 . S
C133 H161 0.930 . S
N134 C133 1.373 . S
N134 C136 1.340 . S
N135 C132 1.368 . S
N135 C136 1.321 . S
N135 Co138 2.135 1_655 S
C136 N134 1.340 . S
C136 N135 1.321 . S
C136 H160 0.930 1_655 S
H137 C132 0.931 . S
Co138 N135 2.135 1_455 S
Co138 N141 2.121 . S
Co138 O146 2.041 1_455 S
Co138 O149 2.039 . S
Co138 N152 2.140 . S
C139 O140 1.227 . S
C139 O149 1.265 . S
O140 C139 1.227 . S
N141 Co138 2.121 . S
N141 C143 1.375 . S
N141 C144 1.313 . S
C142 C143 1.338 . S
C142 N145 1.377 . S
C142 H162 0.930 . S
C143 N141 1.375 . S
C143 C142 1.338 . S
C143 H147 0.931 . S
C144 N141 1.313 . S
C144 N145 1.344 . S
C144 H148 0.930 . S
N145 C142 1.377 . S
N145 C144 1.344 . S
O146 Co138 2.041 1_655 S
O146 C150 1.268 . S
H147 C143 0.931 . S
H148 C144 0.930 . S
O149 Co138 2.039 . S
O149 C139 1.265 . S
C150 O146 1.268 . S
C150 O151 1.227 . S
O151 C150 1.227 . S
N152 Co138 2.140 . S
N152 C155 1.346 . S
N152 C156 1.345 . S
C153 C154 1.387 . S
C153 C157 1.391 . S
C154 C153 1.387 . S
C154 C155 1.369 . S
C154 H163 0.929 . S
C155 N152 1.346 . S
C155 C154 1.369 . S
C155 H158 0.928 . S
C156 N152 1.345 . S
C156 C157 1.371 . S
C156 H159 0.931 . S
C157 C153 1.391 . S
C157 C156 1.371 . S
C157 H164 0.930 . S
H158 C155 0.928 . S
H159 C156 0.931 . S
H160 C136 0.930 1_455 S
H161 C133 0.930 . S
H162 C142 0.930 . S
H163 C154 0.929 . S
H164 C157 0.930 . S
C165 C166 1.351 . S
C165 N168 1.368 . S
C165 H170 0.931 . S
C166 C165 1.351 . S
C166 N167 1.373 . S
C166 H194 0.930 . S
N167 C166 1.373 . S
N167 C169 1.340 . S
N168 C165 1.368 . S
N168 C169 1.321 . S
N168 Co171 2.135 1_565 S
C169 N167 1.340 . S
C169 N168 1.321 . S
C169 H193 0.930 1_565 S
H170 C165 0.931 . S
Co171 N168 2.135 1_545 S
Co171 N174 2.121 . S
Co171 O179 2.041 1_545 S
Co171 O182 2.039 . S
Co171 N185 2.140 . S
C172 O173 1.227 . S
C172 O182 1.265 . S
O173 C172 1.227 . S
N174 Co171 2.121 . S
N174 C176 1.375 . S
N174 C177 1.313 . S
C175 C176 1.338 . S
C175 N178 1.377 . S
C175 H195 0.930 . S
C176 N174 1.375 . S
C176 C175 1.338 . S
C176 H180 0.931 . S
C177 N174 1.313 . S
C177 N178 1.344 . S
C177 H181 0.930 . S
N178 C175 1.377 . S
N178 C177 1.344 . S
O179 Co171 2.041 1_565 S
O179 C183 1.268 . S
H180 C176 0.931 . S
H181 C177 0.930 . S
O182 Co171 2.039 . S
O182 C172 1.265 . S
C183 O179 1.268 . S
C183 O184 1.227 . S
O184 C183 1.227 . S
N185 Co171 2.140 . S
N185 C188 1.346 . S
N185 C189 1.345 . S
C186 C187 1.387 . S
C186 C190 1.391 . S
C187 C186 1.387 . S
C187 C188 1.369 . S
C187 H196 0.929 . S
C188 N185 1.346 . S
C188 C187 1.369 . S
C188 H191 0.928 . S
C189 N185 1.345 . S
C189 C190 1.371 . S
C189 H192 0.931 . S
C190 C186 1.391 . S
C190 C189 1.371 . S
C190 H197 0.930 . S
H191 C188 0.928 . S
H192 C189 0.931 . S
H193 C169 0.930 1_545 S
H194 C166 0.930 . S
H195 C175 0.930 . S
H196 C187 0.929 . S
H197 C190 0.930 . S
C198 C199 1.351 . S
C198 N201 1.368 . S
C198 H203 0.931 . S
C199 C198 1.351 . S
C199 N200 1.373 . S
C199 H227 0.930 . S
N200 C199 1.373 . S
N200 C202 1.340 . S
N201 C198 1.368 . S
N201 C202 1.321 . S
N201 Co204 2.135 . S
C202 N200 1.340 . S
C202 N201 1.321 . S
C202 H226 0.930 . S
H203 C198 0.931 . S
Co204 N201 2.135 . S
Co204 N207 2.121 . S
Co204 O212 2.055 . S
Co204 O215 2.039 . S
Co204 N218 2.140 . S
C205 O206 1.227 . S
C205 O215 1.265 . S
O206 C205 1.227 . S
N207 Co204 2.121 . S
N207 C209 1.375 1_455 S
N207 C210 1.313 . S
C208 C209 1.338 . S
C208 N211 1.377 . S
C208 H228 0.930 . S
C209 N207 1.375 1_655 S
C209 C208 1.338 . S
C209 H213 0.931 . S
C210 N207 1.313 . S
C210 N211 1.344 1_455 S
C210 H214 0.930 . S
N211 C208 1.377 . S
N211 C210 1.344 1_655 S
O212 Co204 2.055 . S
O212 C216 1.253 . S
H213 C209 0.931 . S
H214 C210 0.930 . S
O215 Co204 2.039 . S
O215 C205 1.265 . S
C216 O212 1.253 . S
C216 O217 1.227 . S
O217 C216 1.227 . S
N218 Co204 2.140 . S
N218 C221 1.346 . S
N218 C222 1.345 . S
C219 C220 1.387 . S
C219 C223 1.391 . S
C220 C219 1.387 . S
C220 C221 1.369 . S
C220 H229 0.929 . S
C221 N218 1.346 . S
C221 C220 1.369 . S
C221 H224 0.928 . S
C222 N218 1.345 . S
C222 C223 1.371 . S
C222 H225 0.931 . S
C223 C219 1.391 . S
C223 C222 1.371 . S
C223 H230 0.930 . S
H224 C221 0.928 . S
H225 C222 0.931 . S
H226 C202 0.930 . S
H227 C199 0.930 . S
H228 C208 0.930 . S
H229 C220 0.929 . S
H230 C223 0.930 . S
C231 C232 1.351 . S
C231 N234 1.368 . S
C231 H236 0.931 . S
C232 C231 1.351 . S
C232 N233 1.373 . S
C232 H260 0.930 . S
N233 C232 1.373 . S
N233 C235 1.340 . S
N234 C231 1.368 . S
N234 C235 1.321 . S
N234 Co237 2.135 . S
C235 N233 1.340 . S
C235 N234 1.321 . S
C235 H259 0.930 . S
H236 C231 0.931 . S
Co237 N234 2.135 . S
Co237 N240 2.121 . S
Co237 O245 2.055 . S
Co237 O248 2.039 . S
Co237 N251 2.140 . S
C238 O239 1.227 . S
C238 O248 1.265 . S
O239 C238 1.227 . S
N240 Co237 2.121 . S
N240 C242 1.375 1_545 S
N240 C243 1.313 . S
C241 C242 1.338 . S
C241 N244 1.377 . S
C241 H261 0.930 . S
C242 N240 1.375 1_565 S
C242 C241 1.338 . S
C242 H246 0.931 . S
C243 N240 1.313 . S
C243 N244 1.344 1_545 S
C243 H247 0.930 . S
N244 C241 1.377 . S
N244 C243 1.344 1_565 S
O245 Co237 2.055 . S
O245 C249 1.253 . S
H246 C242 0.931 . S
H247 C243 0.930 . S
O248 Co237 2.039 . S
O248 C238 1.265 . S
C249 O245 1.253 . S
C249 O250 1.227 . S
O250 C249 1.227 . S
N251 Co237 2.140 . S
N251 C254 1.346 . S
N251 C255 1.345 . S
C252 C253 1.387 . S
C252 C256 1.391 . S
C253 C252 1.387 . S
C253 C254 1.369 . S
C253 H262 0.929 . S
C254 N251 1.346 . S
C254 C253 1.369 . S
C254 H257 0.928 . S
C255 N251 1.345 . S
C255 C256 1.371 . S
C255 H258 0.931 . S
C256 C252 1.391 . S
C256 C255 1.371 . S
C256 H263 0.930 . S
H257 C254 0.928 . S
H258 C255 0.931 . S
H259 C235 0.930 . S
H260 C232 0.930 . S
H261 C241 0.930 . S
H262 C253 0.929 . S
H263 C256 0.930 . S
C264 C265 1.351 . S
C264 N267 1.368 . S
C264 H269 0.931 . S
C265 C264 1.351 . S
C265 N266 1.373 . S
C265 H293 0.930 . S
N266 C265 1.373 . S
N266 C268 1.340 . S
N267 C264 1.368 . S
N267 C268 1.321 . S
N267 Co270 2.135 . S
C268 N266 1.340 . S
C268 N267 1.321 . S
C268 H292 0.930 . S
H269 C264 0.931 . S
Co270 N267 2.135 . S
Co270 N273 2.121 . S
Co270 O278 2.055 . S
Co270 O281 2.039 . S
Co270 N284 2.140 . S
C271 O272 1.227 . S
C271 O281 1.265 . S
O272 C271 1.227 . S
N273 Co270 2.121 . S
N273 C275 1.375 . S
N273 C276 1.313 . S
C274 C275 1.338 . S
C274 N277 1.377 . S
C274 H294 0.930 . S
C275 N273 1.375 . S
C275 C274 1.338 . S
C275 H279 0.931 . S
C276 N273 1.313 . S
C276 N277 1.344 . S
C276 H280 0.930 . S
N277 C274 1.377 . S
N277 C276 1.344 . S
O278 Co270 2.055 . S
O278 C282 1.253 . S
H279 C275 0.931 . S
H280 C276 0.930 . S
O281 Co270 2.039 . S
O281 C271 1.265 . S
C282 O278 1.253 . S
C282 O283 1.227 . S
O283 C282 1.227 . S
N284 Co270 2.140 . S
N284 C287 1.346 . S
N284 C288 1.345 . S
C285 C286 1.387 . S
C285 C289 1.391 . S
C286 C285 1.387 . S
C286 C287 1.369 . S
C286 H295 0.929 . S
C287 N284 1.346 . S
C287 C286 1.369 . S
C287 H290 0.928 . S
C288 N284 1.345 . S
C288 C289 1.371 . S
C288 H291 0.931 . S
C289 C285 1.391 . S
C289 C288 1.371 . S
C289 H296 0.930 . S
H290 C287 0.928 . S
H291 C288 0.931 . S
H292 C268 0.930 . S
H293 C265 0.930 . S
H294 C274 0.930 . S
H295 C286 0.929 . S
H296 C289 0.930 . S
C297 C298 1.351 . S
C297 N300 1.368 . S
C297 H302 0.931 . S
C298 C297 1.351 . S
C298 N299 1.373 . S
C298 H326 0.930 . S
N299 C298 1.373 . S
N299 C301 1.340 . S
N300 C297 1.368 . S
N300 C301 1.321 . S
N300 Co303 2.135 . S
C301 N299 1.340 . S
C301 N300 1.321 . S
C301 H325 0.930 . S
H302 C297 0.931 . S
Co303 N300 2.135 . S
Co303 N306 2.121 . S
Co303 O311 2.055 . S
Co303 O314 2.039 . S
Co303 N317 2.140 . S
C304 O305 1.227 . S
C304 O314 1.265 . S
O305 C304 1.227 . S
N306 Co303 2.121 . S
N306 C308 1.375 . S
N306 C309 1.313 . S
C307 C308 1.338 . S
C307 N310 1.377 . S
C307 H327 0.930 . S
C308 N306 1.375 . S
C308 C307 1.338 . S
C308 H312 0.931 . S
C309 N306 1.313 . S
C309 N310 1.344 . S
C309 H313 0.930 . S
N310 C307 1.377 . S
N310 C309 1.344 . S
O311 Co303 2.055 . S
O311 C315 1.253 . S
H312 C308 0.931 . S
H313 C309 0.930 . S
O314 Co303 2.039 . S
O314 C304 1.265 . S
C315 O311 1.253 . S
C315 O316 1.227 . S
O316 C315 1.227 . S
N317 Co303 2.140 . S
N317 C320 1.346 . S
N317 C321 1.345 . S
C318 C319 1.387 . S
C318 C322 1.391 . S
C319 C318 1.387 . S
C319 C320 1.369 . S
C319 H328 0.929 . S
C320 N317 1.346 . S
C320 C319 1.369 . S
C320 H323 0.928 . S
C321 N317 1.345 . S
C321 C322 1.371 . S
C321 H324 0.931 . S
C322 C318 1.391 . S
C322 C321 1.371 . S
C322 H329 0.930 . S
H323 C320 0.928 . S
H324 C321 0.931 . S
H325 C301 0.930 . S
H326 C298 0.930 . S
H327 C307 0.930 . S
H328 C319 0.929 . S
H329 C322 0.930 . S
C330 C331 1.351 . S
C330 N333 1.368 . S
C330 H335 0.931 . S
C331 C330 1.351 . S
C331 N332 1.373 . S
C331 H359 0.930 . S
N332 C331 1.373 . S
N332 C334 1.340 . S
N333 C330 1.368 . S
N333 C334 1.321 . S
N333 Co336 2.135 . S
C334 N332 1.340 . S
C334 N333 1.321 . S
C334 H358 0.930 . S
H335 C330 0.931 . S
Co336 N333 2.135 . S
Co336 N339 2.121 . S
Co336 O344 2.055 . S
Co336 O347 2.039 . S
Co336 N350 2.140 . S
C337 O338 1.227 . S
C337 O347 1.265 . S
O338 C337 1.227 . S
N339 Co336 2.121 . S
N339 C341 1.375 . S
N339 C342 1.313 . S
C340 C341 1.338 . S
C340 N343 1.377 . S
C340 H360 0.930 . S
C341 N339 1.375 . S
C341 C340 1.338 . S
C341 H345 0.931 . S
C342 N339 1.313 . S
C342 N343 1.344 . S
C342 H346 0.930 . S
N343 C340 1.377 . S
N343 C342 1.344 . S
O344 Co336 2.055 . S
O344 C348 1.253 . S
H345 C341 0.931 . S
H346 C342 0.930 . S
O347 Co336 2.039 . S
O347 C337 1.265 . S
C348 O344 1.253 . S
C348 O349 1.227 . S
O349 C348 1.227 . S
N350 Co336 2.140 . S
N350 C353 1.346 . S
N350 C354 1.345 . S
C351 C352 1.387 . S
C351 C355 1.391 . S
C352 C351 1.387 . S
C352 C353 1.369 . S
C352 H361 0.929 . S
C353 N350 1.346 . S
C353 C352 1.369 . S
C353 H356 0.928 . S
C354 N350 1.345 . S
C354 C355 1.371 . S
C354 H357 0.931 . S
C355 C351 1.391 . S
C355 C354 1.371 . S
C355 H362 0.930 . S
H356 C353 0.928 . S
H357 C354 0.931 . S
H358 C334 0.930 . S
H359 C331 0.930 . S
H360 C340 0.930 . S
H361 C352 0.929 . S
H362 C355 0.930 . S
C363 C364 1.351 . S
C363 N366 1.368 . S
C363 H368 0.931 . S
C364 C363 1.351 . S
C364 N365 1.373 . S
C364 H392 0.930 . S
N365 C364 1.373 . S
N365 C367 1.340 . S
N366 C363 1.368 . S
N366 C367 1.321 . S
N366 Co369 2.135 . S
C367 N365 1.340 . S
C367 N366 1.321 . S
C367 H391 0.930 . S
H368 C363 0.931 . S
Co369 N366 2.135 . S
Co369 N372 2.121 . S
Co369 O377 2.055 . S
Co369 O380 2.039 . S
Co369 N383 2.140 . S
C370 O371 1.227 . S
C370 O380 1.265 . S
O371 C370 1.227 . S
N372 Co369 2.121 . S
N372 C374 1.375 . S
N372 C375 1.313 . S
C373 C374 1.338 . S
C373 N376 1.377 . S
C373 H393 0.930 . S
C374 N372 1.375 . S
C374 C373 1.338 . S
C374 H378 0.931 . S
C375 N372 1.313 . S
C375 N376 1.344 . S
C375 H379 0.930 . S
N376 C373 1.377 . S
N376 C375 1.344 . S
O377 Co369 2.055 . S
O377 C381 1.253 . S
H378 C374 0.931 . S
H379 C375 0.930 . S
O380 Co369 2.039 . S
O380 C370 1.265 . S
C381 O377 1.253 . S
C381 O382 1.227 . S
O382 C381 1.227 . S
N383 Co369 2.140 . S
N383 C386 1.346 . S
N383 C387 1.345 . S
C384 C385 1.387 . S
C384 C388 1.391 . S
C385 C384 1.387 . S
C385 C386 1.369 . S
C385 H394 0.929 . S
C386 N383 1.346 . S
C386 C385 1.369 . S
C386 H389 0.928 . S
C387 N383 1.345 . S
C387 C388 1.371 . S
C387 H390 0.931 . S
C388 C384 1.391 . S
C388 C387 1.371 . S
C388 H395 0.930 . S
H389 C386 0.928 . S
H390 C387 0.931 . S
H391 C367 0.930 . S
H392 C364 0.930 . S
H393 C373 0.930 . S
H394 C385 0.929 . S
H395 C388 0.930 . S
C396 C397 1.351 . S
C396 N399 1.368 . S
C396 H401 0.931 . S
C397 C396 1.351 . S
C397 N398 1.373 . S
C397 H425 0.930 . S
N398 C397 1.373 . S
N398 C400 1.340 . S
N399 C396 1.368 . S
N399 C400 1.321 . S
N399 Co402 2.135 . S
C400 N398 1.340 . S
C400 N399 1.321 . S
C400 H424 0.930 . S
H401 C396 0.931 . S
Co402 N399 2.135 . S
Co402 N405 2.121 . S
Co402 O410 2.055 . S
Co402 O413 2.039 . S
Co402 N416 2.140 . S
C403 O404 1.227 . S
C403 O413 1.265 . S
O404 C403 1.227 . S
N405 Co402 2.121 . S
N405 C407 1.375 . S
N405 C408 1.313 . S
C406 C407 1.338 . S
C406 N409 1.377 . S
C406 H426 0.930 . S
C407 N405 1.375 . S
C407 C406 1.338 . S
C407 H411 0.931 . S
C408 N405 1.313 . S
C408 N409 1.344 . S
C408 H412 0.930 . S
N409 C406 1.377 . S
N409 C408 1.344 . S
O410 Co402 2.055 . S
O410 C414 1.253 . S
H411 C407 0.931 . S
H412 C408 0.930 . S
O413 Co402 2.039 . S
O413 C403 1.265 . S
C414 O410 1.253 . S
C414 O415 1.227 . S
O415 C414 1.227 . S
N416 Co402 2.140 . S
N416 C419 1.346 . S
N416 C420 1.345 . S
C417 C418 1.387 . S
C417 C421 1.391 . S
C418 C417 1.387 . S
C418 C419 1.369 . S
C418 H427 0.929 . S
C419 N416 1.346 . S
C419 C418 1.369 . S
C419 H422 0.928 . S
C420 N416 1.345 . S
C420 C421 1.371 . S
C420 H423 0.931 . S
C421 C417 1.391 . S
C421 C420 1.371 . S
C421 H428 0.930 . S
H422 C419 0.928 . S
H423 C420 0.931 . S
H424 C400 0.930 . S
H425 C397 0.930 . S
H426 C406 0.930 . S
H427 C418 0.929 . S
H428 C421 0.930 . S
C429 C430 1.351 . S
C429 N432 1.368 . S
C429 H434 0.931 . S
C430 C429 1.351 . S
C430 N431 1.373 . S
C430 H458 0.930 . S
N431 C430 1.373 . S
N431 C433 1.340 . S
N432 C429 1.368 . S
N432 C433 1.321 . S
N432 Co435 2.135 . S
C433 N431 1.340 . S
C433 N432 1.321 . S
C433 H457 0.930 . S
H434 C429 0.931 . S
Co435 N432 2.135 . S
Co435 N438 2.121 . S
Co435 O443 2.055 . S
Co435 O446 2.039 . S
Co435 N449 2.140 . S
C436 O437 1.227 . S
C436 O446 1.265 . S
O437 C436 1.227 . S
N438 Co435 2.121 . S
N438 C440 1.375 . S
N438 C441 1.313 . S
C439 C440 1.338 . S
C439 N442 1.377 . S
C439 H459 0.930 . S
C440 N438 1.375 . S
C440 C439 1.338 . S
C440 H444 0.931 . S
C441 N438 1.313 . S
C441 N442 1.344 . S
C441 H445 0.930 . S
N442 C439 1.377 . S
N442 C441 1.344 . S
O443 Co435 2.055 . S
O443 C447 1.253 . S
H444 C440 0.931 . S
H445 C441 0.930 . S
O446 Co435 2.039 . S
O446 C436 1.265 . S
C447 O443 1.253 . S
C447 O448 1.227 . S
O448 C447 1.227 . S
N449 Co435 2.140 . S
N449 C452 1.346 . S
N449 C453 1.345 . S
C450 C451 1.387 . S
C450 C454 1.391 . S
C451 C450 1.387 . S
C451 C452 1.369 . S
C451 H460 0.929 . S
C452 N449 1.346 . S
C452 C451 1.369 . S
C452 H455 0.928 . S
C453 N449 1.345 . S
C453 C454 1.371 . S
C453 H456 0.931 . S
C454 C450 1.391 . S
C454 C453 1.371 . S
C454 H461 0.930 . S
H455 C452 0.928 . S
H456 C453 0.931 . S
H457 C433 0.930 . S
H458 C430 0.930 . S
H459 C439 0.930 . S
H460 C451 0.929 . S
H461 C454 0.930 . S
C462 C463 1.351 . S
C462 N465 1.368 . S
C462 H467 0.931 . S
C463 C462 1.351 . S
C463 N464 1.373 . S
C463 H491 0.930 . S
N464 C463 1.373 . S
N464 C466 1.340 . S
N465 C462 1.368 . S
N465 C466 1.321 . S
N465 Co468 2.135 . S
C466 N464 1.340 . S
C466 N465 1.321 . S
C466 H490 0.930 . S
H467 C462 0.931 . S
Co468 N465 2.135 . S
Co468 N471 2.121 . S
Co468 O476 2.055 . S
Co468 O479 2.039 . S
Co468 N482 2.140 . S
C469 O470 1.227 . S
C469 O479 1.265 . S
O470 C469 1.227 . S
N471 Co468 2.121 . S
N471 C473 1.375 . S
N471 C474 1.313 . S
C472 C473 1.338 . S
C472 N475 1.377 . S
C472 H492 0.930 . S
C473 N471 1.375 . S
C473 C472 1.338 . S
C473 H477 0.931 . S
C474 N471 1.313 . S
C474 N475 1.344 . S
C474 H478 0.930 . S
N475 C472 1.377 . S
N475 C474 1.344 . S
O476 Co468 2.055 . S
O476 C480 1.253 . S
H477 C473 0.931 . S
H478 C474 0.930 . S
O479 Co468 2.039 . S
O479 C469 1.265 . S
C480 O476 1.253 . S
C480 O481 1.227 . S
O481 C480 1.227 . S
N482 Co468 2.140 . S
N482 C485 1.346 . S
N482 C486 1.345 . S
C483 C484 1.387 . S
C483 C487 1.391 . S
C484 C483 1.387 . S
C484 C485 1.369 . S
C484 H493 0.929 . S
C485 N482 1.346 . S
C485 C484 1.369 . S
C485 H488 0.928 . S
C486 N482 1.345 . S
C486 C487 1.371 . S
C486 H489 0.931 . S
C487 C483 1.391 . S
C487 C486 1.371 . S
C487 H494 0.930 . S
H488 C485 0.928 . S
H489 C486 0.931 . S
H490 C466 0.930 . S
H491 C463 0.930 . S
H492 C472 0.930 . S
H493 C484 0.929 . S
H494 C487 0.930 . S
C495 C496 1.351 . S
C495 N498 1.368 . S
C495 H500 0.931 . S
C496 C495 1.351 . S
C496 N497 1.373 . S
C496 H524 0.930 . S
N497 C496 1.373 . S
N497 C499 1.340 . S
N498 C495 1.368 . S
N498 C499 1.321 . S
N498 Co501 2.135 . S
C499 N497 1.340 . S
C499 N498 1.321 . S
C499 H523 0.930 . S
H500 C495 0.931 . S
Co501 N498 2.135 . S
Co501 N504 2.121 . S
Co501 O509 2.055 . S
Co501 O512 2.039 . S
Co501 N515 2.140 . S
C502 O503 1.227 . S
C502 O512 1.265 . S
O503 C502 1.227 . S
N504 Co501 2.121 . S
N504 C506 1.375 . S
N504 C507 1.313 . S
C505 C506 1.338 . S
C505 N508 1.377 . S
C505 H525 0.930 . S
C506 N504 1.375 . S
C506 C505 1.338 . S
C506 H510 0.931 . S
C507 N504 1.313 . S
C507 N508 1.344 . S
C507 H511 0.930 . S
N508 C505 1.377 . S
N508 C507 1.344 . S
O509 Co501 2.055 . S
O509 C513 1.253 . S
H510 C506 0.931 . S
H511 C507 0.930 . S
O512 Co501 2.039 . S
O512 C502 1.265 . S
C513 O509 1.253 . S
C513 O514 1.227 . S
O514 C513 1.227 . S
N515 Co501 2.140 . S
N515 C518 1.346 . S
N515 C519 1.345 . S
C516 C517 1.387 . S
C516 C520 1.391 . S
C517 C516 1.387 . S
C517 C518 1.369 . S
C517 H526 0.929 . S
C518 N515 1.346 . S
C518 C517 1.369 . S
C518 H521 0.928 . S
C519 N515 1.345 . S
C519 C520 1.371 . S
C519 H522 0.931 . S
C520 C516 1.391 . S
C520 C519 1.371 . S
C520 H527 0.930 . S
H521 C518 0.928 . S
H522 C519 0.931 . S
H523 C499 0.930 . S
H524 C496 0.930 . S
H525 C505 0.930 . S
H526 C517 0.929 . S
H527 C520 0.930 . S
C528 C529 1.387 . S
C528 H532 0.950 . S
C528 C537 1.390 . S
C529 C528 1.387 . S
C529 C531 1.387 . S
H530 C537 0.950 . S
C531 C529 1.387 . S
C531 C533 1.390 . S
C531 H535 0.950 . S
H532 C528 0.950 . S
C533 C531 1.390 . S
C533 C534 1.387 . S
C533 H536 0.950 . S
C534 C533 1.387 . S
C534 C537 1.387 . S
H535 C531 0.950 . S
H536 C533 0.950 . S
C537 C528 1.390 . S
C537 H530 0.950 . S
C537 C534 1.387 . S
C538 C539 1.387 . S
C538 H542 0.950 . S
C538 C547 1.390 . S
C539 C538 1.387 . S
C539 C541 1.387 . S
H540 C547 0.950 . S
C541 C539 1.387 . S
C541 C543 1.390 . S
C541 H545 0.950 . S
H542 C538 0.950 . S
C543 C541 1.390 . S
C543 C544 1.387 . S
C543 H546 0.950 . S
C544 C543 1.387 . S
C544 C547 1.387 . S
H545 C541 0.950 . S
H546 C543 0.950 . S
C547 C538 1.390 . S
C547 H540 0.950 . S
C547 C544 1.387 . S
C548 C549 1.387 . S
C548 H552 0.950 . S
C548 C557 1.390 . S
C549 C548 1.387 . S
C549 C551 1.387 . S
H550 C557 0.950 . S
C551 C549 1.387 . S
C551 C553 1.390 . S
C551 H555 0.950 . S
H552 C548 0.950 . S
C553 C551 1.390 . S
C553 C554 1.387 . S
C553 H556 0.950 . S
C554 C553 1.387 . S
C554 C557 1.387 . S
H555 C551 0.950 . S
H556 C553 0.950 . S
C557 C548 1.390 . S
C557 H550 0.950 . S
C557 C554 1.387 . S
C558 C559 1.387 . S
C558 H562 0.950 . S
C558 C567 1.390 . S
C559 C558 1.387 . S
C559 C561 1.387 . S
H560 C567 0.950 . S
C561 C559 1.387 . S
C561 C563 1.390 . S
C561 H565 0.950 . S
H562 C558 0.950 . S
C563 C561 1.390 . S
C563 C564 1.387 . S
C563 H566 0.950 . S
C564 C563 1.387 . S
C564 C567 1.387 . S
H565 C561 0.950 . S
H566 C563 0.950 . S
C567 C558 1.390 . S
C567 H560 0.950 . S
C567 C564 1.387 . S
C568 C569 1.387 . S
C568 H572 0.950 . S
C568 C577 1.390 1_556 S
C569 C568 1.387 . S
C569 C571 1.387 . S
H570 C577 0.950 . S
C571 C569 1.387 . S
C571 C573 1.390 1_556 S
C571 H575 0.950 . S
H572 C568 0.950 . S
C573 C571 1.390 1_554 S
C573 C574 1.387 . S
C573 H576 0.950 . S
C574 C573 1.387 . S
C574 C577 1.387 . S
H575 C571 0.950 . S
H576 C573 0.950 . S
C577 C568 1.390 1_554 S
C577 H570 0.950 . S
C577 C574 1.387 . S
C578 C579 1.387 . S
C578 H582 0.950 . S
C578 C587 1.390 1_556 S
C579 C578 1.387 . S
C579 C581 1.387 . S
H580 C587 0.950 . S
C581 C579 1.387 . S
C581 C583 1.390 1_556 S
C581 H585 0.950 . S
H582 C578 0.950 . S
C583 C581 1.390 1_554 S
C583 C584 1.387 . S
C583 H586 0.950 . S
C584 C583 1.387 . S
C584 C587 1.387 . S
H585 C581 0.950 . S
H586 C583 0.950 . S
C587 C578 1.390 1_554 S
C587 H580 0.950 . S
C587 C584 1.387 . S
C588 C589 1.387 . S
C588 H592 0.950 . S
C588 C597 1.390 1_556 S
C589 C588 1.387 . S
C589 C591 1.387 . S
H590 C597 0.950 . S
C591 C589 1.387 . S
C591 C593 1.390 1_556 S
C591 H595 0.950 . S
H592 C588 0.950 . S
C593 C591 1.390 1_554 S
C593 C594 1.387 . S
C593 H596 0.950 . S
C594 C593 1.387 . S
C594 C597 1.387 . S
H595 C591 0.950 . S
H596 C593 0.950 . S
C597 C588 1.390 1_554 S
C597 H590 0.950 . S
C597 C594 1.387 . S
C598 C599 1.387 . S
C598 H602 0.950 . S
C598 C607 1.390 1_554 S
C599 C598 1.387 . S
C599 C601 1.387 . S
H600 C607 0.950 . S
C601 C599 1.387 . S
C601 C603 1.390 1_554 S
C601 H605 0.950 . S
H602 C598 0.950 . S
C603 C601 1.390 1_556 S
C603 C604 1.387 . S
C603 H606 0.950 . S
C604 C603 1.387 . S
C604 C607 1.387 . S
H605 C601 0.950 . S
H606 C603 0.950 . S
C607 C598 1.390 1_556 S
C607 H600 0.950 . S
C607 C604 1.387 . S
C608 C609 1.387 . S
C608 H612 0.950 . S
C608 C617 1.390 . S
C609 C608 1.387 . S
C609 C611 1.387 . S
H610 C617 0.950 . S
C611 C609 1.387 . S
C611 C613 1.390 . S
C611 H615 0.950 . S
H612 C608 0.950 . S
C613 C611 1.390 . S
C613 C614 1.387 . S
C613 H616 0.950 . S
C614 C613 1.387 . S
C614 C617 1.387 . S
H615 C611 0.950 . S
H616 C613 0.950 . S
C617 C608 1.390 . S
C617 H610 0.950 . S
C617 C614 1.387 . S
C618 C619 1.387 . S
C618 H622 0.950 . S
C618 C627 1.390 . S
C619 C618 1.387 . S
C619 C621 1.387 . S
H620 C627 0.950 . S
C621 C619 1.387 . S
C621 C623 1.390 . S
C621 H625 0.950 . S
H622 C618 0.950 . S
C623 C621 1.390 . S
C623 C624 1.387 . S
C623 H626 0.950 . S
C624 C623 1.387 . S
C624 C627 1.387 . S
H625 C621 0.950 . S
H626 C623 0.950 . S
C627 C618 1.390 . S
C627 H620 0.950 . S
C627 C624 1.387 . S
C628 C629 1.387 . S
C628 H632 0.950 . S
C628 C637 1.390 . S
C629 C628 1.387 . S
C629 C631 1.387 . S
H630 C637 0.950 . S
C631 C629 1.387 . S
C631 C633 1.390 . S
C631 H635 0.950 . S
H632 C628 0.950 . S
C633 C631 1.390 . S
C633 C634 1.387 . S
C633 H636 0.950 . S
C634 C633 1.387 . S
C634 C637 1.387 . S
H635 C631 0.950 . S
H636 C633 0.950 . S
C637 C628 1.390 . S
C637 H630 0.950 . S
C637 C634 1.387 . S
C638 C639 1.387 . S
C638 H642 0.950 . S
C638 C647 1.390 . S
C639 C638 1.387 . S
C639 C641 1.387 . S
H640 C647 0.950 . S
C641 C639 1.387 . S
C641 C643 1.390 . S
C641 H645 0.950 1_565 S
H642 C638 0.950 . S
C643 C641 1.390 . S
C643 C644 1.387 . S
C643 H646 0.950 . S
C644 C643 1.387 . S
C644 C647 1.387 . S
H645 C641 0.950 1_545 S
H646 C643 0.950 . S
C647 C638 1.390 . S
C647 H640 0.950 . S
C647 C644 1.387 . S
C648 C649 1.387 . S
C648 H652 0.950 . S
C648 C657 1.390 . S
C649 C648 1.387 . S
C649 C651 1.387 . S
H650 C657 0.950 . S
C651 C649 1.387 . S
C651 C653 1.390 . S
C651 H655 0.950 . S
H652 C648 0.950 . S
C653 C651 1.390 . S
C653 C654 1.387 . S
C653 H656 0.950 . S
C654 C653 1.387 . S
C654 C657 1.387 . S
H655 C651 0.950 . S
H656 C653 0.950 . S
C657 C648 1.390 . S
C657 H650 0.950 . S
C657 C654 1.387 . S
C658 C659 1.387 . S
C658 H662 0.950 . S
C658 C667 1.390 . S
C659 C658 1.387 . S
C659 C661 1.387 . S
H660 C667 0.950 . S
C661 C659 1.387 . S
C661 C663 1.390 . S
C661 H665 0.950 . S
H662 C658 0.950 . S
C663 C661 1.390 . S
C663 C664 1.387 . S
C663 H666 0.950 . S
C664 C663 1.387 . S
C664 C667 1.387 . S
H665 C661 0.950 . S
H666 C663 0.950 . S
C667 C658 1.390 . S
C667 H660 0.950 . S
C667 C664 1.387 . S
C668 C669 1.387 . S
C668 H672 0.950 . S
C668 C677 1.390 . S
C669 C668 1.387 . S
C669 C671 1.387 . S
H670 C677 0.950 . S
C671 C669 1.387 . S
C671 C673 1.390 . S
C671 H675 0.950 . S
H672 C668 0.950 . S
C673 C671 1.390 . S
C673 C674 1.387 . S
C673 H676 0.950 . S
C674 C673 1.387 . S
C674 C677 1.387 . S
H675 C671 0.950 . S
H676 C673 0.950 . S
C677 C668 1.390 . S
C677 H670 0.950 . S
C677 C674 1.387 . S
C678 C679 1.387 . S
C678 H682 0.950 . S
C678 C687 1.390 . S
C679 C678 1.387 . S
C679 C681 1.387 . S
H680 C687 0.950 1_545 S
C681 C679 1.387 . S
C681 C683 1.390 . S
C681 H685 0.950 . S
H682 C678 0.950 . S
C683 C681 1.390 . S
C683 C684 1.387 . S
C683 H686 0.950 . S
C684 C683 1.387 . S
C684 C687 1.387 . S
H685 C681 0.950 . S
H686 C683 0.950 . S
C687 C678 1.390 . S
C687 H680 0.950 1_565 S
C687 C684 1.387 . S
C688 C689 1.387 . S
C688 H692 0.950 . S
C688 C697 1.390 . S
C689 C688 1.387 . S
C689 C691 1.387 . S
H690 C697 0.950 . S
C691 C689 1.387 . S
C691 C693 1.390 . S
C691 H695 0.950 . S
H692 C688 0.950 . S
C693 C691 1.390 . S
C693 C694 1.387 . S
C693 H696 0.950 . S
C694 C693 1.387 . S
C694 C697 1.387 . S
H695 C691 0.950 . S
H696 C693 0.950 . S
C697 C688 1.390 . S
C697 H690 0.950 . S
C697 C694 1.387 . S
C698 C699 1.387 . S
C698 H702 0.950 . S
C698 C707 1.390 . S
C699 C698 1.387 . S
C699 C701 1.387 . S
H700 C707 0.950 . S
C701 C699 1.387 . S
C701 C703 1.390 . S
C701 H705 0.950 . S
H702 C698 0.950 . S
C703 C701 1.390 . S
C703 C704 1.387 . S
C703 H706 0.950 . S
C704 C703 1.387 . S
C704 C707 1.387 . S
H705 C701 0.950 . S
H706 C703 0.950 . S
C707 C698 1.390 . S
C707 H700 0.950 . S
C707 C704 1.387 . S
C708 C709 1.387 . S
C708 H712 0.950 . S
C708 C717 1.390 . S
C709 C708 1.387 . S
C709 C711 1.387 . S
H710 C717 0.950 . S
C711 C709 1.387 . S
C711 C713 1.390 . S
C711 H715 0.950 . S
H712 C708 0.950 . S
C713 C711 1.390 . S
C713 C714 1.387 . S
C713 H716 0.950 . S
C714 C713 1.387 . S
C714 C717 1.387 . S
H715 C711 0.950 . S
H716 C713 0.950 . S
C717 C708 1.390 . S
C717 H710 0.950 . S
C717 C714 1.387 . S
C718 C719 1.387 . S
C718 H722 0.950 . S
C718 C727 1.390 . S
C719 C718 1.387 . S
C719 C721 1.387 . S
H720 C727 0.950 . S
C721 C719 1.387 . S
C721 C723 1.390 . S
C721 H725 0.950 . S
H722 C718 0.950 . S
C723 C721 1.390 . S
C723 C724 1.387 . S
C723 H726 0.950 . S
C724 C723 1.387 . S
C724 C727 1.387 . S
H725 C721 0.950 . S
H726 C723 0.950 . S
C727 C718 1.390 . S
C727 H720 0.950 . S
C727 C724 1.387 . S
C728 C729 1.387 . S
C728 H732 0.950 . S
C728 C737 1.390 . S
C729 C728 1.387 . S
C729 C731 1.387 . S
H730 C737 0.950 . S
C731 C729 1.387 . S
C731 C733 1.390 . S
C731 H735 0.950 . S
H732 C728 0.950 . S
C733 C731 1.390 . S
C733 C734 1.387 . S
C733 H736 0.950 . S
C734 C733 1.387 . S
C734 C737 1.387 . S
H735 C731 0.950 . S
H736 C733 0.950 . S
C737 C728 1.390 . S
C737 H730 0.950 . S
C737 C734 1.387 . S
C738 C739 1.387 . S
C738 H742 0.950 . S
C738 C747 1.390 . S
C739 C738 1.387 . S
C739 C741 1.387 . S
H740 C747 0.950 . S
C741 C739 1.387 . S
C741 C743 1.390 . S
C741 H745 0.950 . S
H742 C738 0.950 . S
C743 C741 1.390 . S
C743 C744 1.387 . S
C743 H746 0.950 . S
C744 C743 1.387 . S
C744 C747 1.387 . S
H745 C741 0.950 . S
H746 C743 0.950 . S
C747 C738 1.390 . S
C747 H740 0.950 . S
C747 C744 1.387 . S
C748 C749 1.387 . S
C748 H752 0.950 . S
C748 C757 1.390 . S
C749 C748 1.387 . S
C749 C751 1.387 . S
H750 C757 0.950 . S
C751 C749 1.387 . S
C751 C753 1.390 . S
C751 H755 0.950 . S
H752 C748 0.950 . S
C753 C751 1.390 . S
C753 C754 1.387 . S
C753 H756 0.950 . S
C754 C753 1.387 . S
C754 C757 1.387 . S
H755 C751 0.950 . S
H756 C753 0.950 . S
C757 C748 1.390 . S
C757 H750 0.950 . S
C757 C754 1.387 . S
C758 C759 1.387 . S
C758 H762 0.950 . S
C758 C767 1.390 . S
C759 C758 1.387 . S
C759 C761 1.387 . S
H760 C767 0.950 . S
C761 C759 1.387 . S
C761 C763 1.390 . S
C761 H765 0.950 . S
H762 C758 0.950 . S
C763 C761 1.390 . S
C763 C764 1.387 . S
C763 H766 0.950 . S
C764 C763 1.387 . S
C764 C767 1.387 . S
H765 C761 0.950 . S
H766 C763 0.950 . S
C767 C758 1.390 . S
C767 H760 0.950 . S
C767 C764 1.387 . S
C768 C769 1.387 . S
C768 H772 0.950 . S
C768 C777 1.390 . S
C769 C768 1.387 . S
C769 C771 1.387 . S
H770 C777 0.950 . S
C771 C769 1.387 . S
C771 C773 1.390 . S
C771 H775 0.950 . S
H772 C768 0.950 . S
C773 C771 1.390 . S
C773 C774 1.387 . S
C773 H776 0.950 . S
C774 C773 1.387 . S
C774 C777 1.387 . S
H775 C771 0.950 . S
H776 C773 0.950 . S
C777 C768 1.390 . S
C777 H770 0.950 . S
C777 C774 1.387 . S
C778 C779 1.387 . S
C778 H782 0.950 . S
C778 C787 1.390 . S
C779 C778 1.387 . S
C779 C781 1.387 . S
H780 C787 0.950 . S
C781 C779 1.387 . S
C781 C783 1.390 . S
C781 H785 0.950 . S
H782 C778 0.950 . S
C783 C781 1.390 . S
C783 C784 1.387 . S
C783 H786 0.950 . S
C784 C783 1.387 . S
C784 C787 1.387 . S
H785 C781 0.950 . S
H786 C783 0.950 . S
C787 C778 1.390 . S
C787 H780 0.950 . S
C787 C784 1.387 . S
C788 C789 1.387 . S
C788 H792 0.950 . S
C788 C797 1.390 . S
C789 C788 1.387 . S
C789 C791 1.387 . S
H790 C797 0.950 . S
C791 C789 1.387 . S
C791 C793 1.390 . S
C791 H795 0.950 . S
H792 C788 0.950 . S
C793 C791 1.390 . S
C793 C794 1.387 . S
C793 H796 0.950 1_655 S
C794 C793 1.387 . S
C794 C797 1.387 . S
H795 C791 0.950 . S
H796 C793 0.950 1_455 S
C797 C788 1.390 . S
C797 H790 0.950 . S
C797 C794 1.387 . S
C798 C799 1.387 . S
C798 H802 0.950 . S
C798 C807 1.390 . S
C799 C798 1.387 . S
C799 C801 1.387 . S
H800 C807 0.950 . S
C801 C799 1.387 . S
C801 C803 1.390 . S
C801 H805 0.950 1_565 S
H802 C798 0.950 . S
C803 C801 1.390 . S
C803 C804 1.387 . S
C803 H806 0.950 . S
C804 C803 1.387 . S
C804 C807 1.387 . S
H805 C801 0.950 1_545 S
H806 C803 0.950 . S
C807 C798 1.390 . S
C807 H800 0.950 . S
C807 C804 1.387 . S
C808 C809 1.387 . S
C808 H812 0.950 . S
C808 C817 1.390 . S
C809 C808 1.387 . S
C809 C811 1.387 . S
H810 C817 0.950 . S
C811 C809 1.387 . S
C811 C813 1.390 . S
C811 H815 0.950 . S
H812 C808 0.950 . S
C813 C811 1.390 . S
C813 C814 1.387 . S
C813 H816 0.950 . S
C814 C813 1.387 . S
C814 C817 1.387 . S
H815 C811 0.950 . S
H816 C813 0.950 . S
C817 C808 1.390 . S
C817 H810 0.950 . S
C817 C814 1.387 . S
C818 C819 1.387 . S
C818 H822 0.950 . S
C818 C827 1.390 . S
C819 C818 1.387 . S
C819 C821 1.387 . S
H820 C827 0.950 . S
C821 C819 1.387 . S
C821 C823 1.390 . S
C821 H825 0.950 . S
H822 C818 0.950 . S
C823 C821 1.390 . S
C823 C824 1.387 . S
C823 H826 0.950 . S
C824 C823 1.387 . S
C824 C827 1.387 . S
H825 C821 0.950 . S
H826 C823 0.950 . S
C827 C818 1.390 . S
C827 H820 0.950 . S
C827 C824 1.387 . S
C828 C829 1.387 . S
C828 H832 0.950 . S
C828 C837 1.390 . S
C829 C828 1.387 . S
C829 C831 1.387 . S
H830 C837 0.950 . S
C831 C829 1.387 . S
C831 C833 1.390 . S
C831 H835 0.950 . S
H832 C828 0.950 . S
C833 C831 1.390 . S
C833 C834 1.387 . S
C833 H836 0.950 . S
C834 C833 1.387 . S
C834 C837 1.387 . S
H835 C831 0.950 . S
H836 C833 0.950 . S
C837 C828 1.390 . S
C837 H830 0.950 . S
C837 C834 1.387 . S
C838 C839 1.387 . S
C838 H842 0.950 . S
C838 C847 1.390 . S
C839 C838 1.387 . S
C839 C841 1.387 . S
H840 C847 0.950 . S
C841 C839 1.387 . S
C841 C843 1.390 . S
C841 H845 0.950 . S
H842 C838 0.950 . S
C843 C841 1.390 . S
C843 C844 1.387 . S
C843 H846 0.950 . S
C844 C843 1.387 . S
C844 C847 1.387 . S
H845 C841 0.950 . S
H846 C843 0.950 . S
C847 C838 1.390 . S
C847 H840 0.950 . S
C847 C844 1.387 . S
C848 C849 1.387 . S
C848 H852 0.950 . S
C848 C857 1.390 . S
C849 C848 1.387 . S
C849 C851 1.387 . S
H850 C857 0.950 . S
C851 C849 1.387 . S
C851 C853 1.390 . S
C851 H855 0.950 . S
H852 C848 0.950 . S
C853 C851 1.390 . S
C853 C854 1.387 . S
C853 H856 0.950 . S
C854 C853 1.387 . S
C854 C857 1.387 . S
H855 C851 0.950 . S
H856 C853 0.950 . S
C857 C848 1.390 . S
C857 H850 0.950 . S
C857 C854 1.387 . S
C858 C859 1.387 . S
C858 H862 0.950 . S
C858 C867 1.390 . S
C859 C858 1.387 . S
C859 C861 1.387 . S
H860 C867 0.950 . S
C861 C859 1.387 . S
C861 C863 1.390 . S
C861 H865 0.950 . S
H862 C858 0.950 . S
C863 C861 1.390 . S
C863 C864 1.387 . S
C863 H866 0.950 . S
C864 C863 1.387 . S
C864 C867 1.387 . S
H865 C861 0.950 . S
H866 C863 0.950 . S
C867 C858 1.390 . S
C867 H860 0.950 . S
C867 C864 1.387 . S
C868 C869 1.387 . S
C868 H872 0.950 . S
C868 C877 1.390 . S
C869 C868 1.387 . S
C869 C871 1.387 . S
H870 C877 0.950 . S
C871 C869 1.387 . S
C871 C873 1.390 . S
C871 H875 0.950 . S
H872 C868 0.950 . S
C873 C871 1.390 . S
C873 C874 1.387 . S
C873 H876 0.950 . S
C874 C873 1.387 . S
C874 C877 1.387 . S
H875 C871 0.950 . S
H876 C873 0.950 . S
C877 C868 1.390 . S
C877 H870 0.950 . S
C877 C874 1.387 . S
C878 C879 1.387 . S
C878 H882 0.950 . S
C878 C887 1.390 . S
C879 C878 1.387 . S
C879 C881 1.387 . S
H880 C887 0.950 . S
C881 C879 1.387 . S
C881 C883 1.390 . S
C881 H885 0.950 . S
H882 C878 0.950 . S
C883 C881 1.390 . S
C883 C884 1.387 . S
C883 H886 0.950 . S
C884 C883 1.387 . S
C884 C887 1.387 . S
H885 C881 0.950 . S
H886 C883 0.950 . S
C887 C878 1.390 . S
C887 H880 0.950 . S
C887 C884 1.387 . S
C888 C889 1.387 . S
C888 H892 0.950 . S
C888 C897 1.390 . S
C889 C888 1.387 . S
C889 C891 1.387 . S
H890 C897 0.950 . S
C891 C889 1.387 . S
C891 C893 1.390 . S
C891 H895 0.950 . S
H892 C888 0.950 . S
C893 C891 1.390 . S
C893 C894 1.387 . S
C893 H896 0.950 . S
C894 C893 1.387 . S
C894 C897 1.387 . S
H895 C891 0.950 . S
H896 C893 0.950 . S
C897 C888 1.390 . S
C897 H890 0.950 . S
C897 C894 1.387 . S
C898 C899 1.387 . S
C898 H902 0.950 . S
C898 C907 1.390 . S
C899 C898 1.387 . S
C899 C901 1.387 . S
H900 C907 0.950 . S
C901 C899 1.387 . S
C901 C903 1.390 . S
C901 H905 0.950 . S
H902 C898 0.950 . S
C903 C901 1.390 . S
C903 C904 1.387 . S
C903 H906 0.950 . S
C904 C903 1.387 . S
C904 C907 1.387 . S
H905 C901 0.950 . S
H906 C903 0.950 . S
C907 C898 1.390 . S
C907 H900 0.950 . S
C907 C904 1.387 . S
C908 C909 1.387 . S
C908 H912 0.950 . S
C908 C917 1.390 . S
C909 C908 1.387 . S
C909 C911 1.387 . S
H910 C917 0.950 . S
C911 C909 1.387 . S
C911 C913 1.390 . S
C911 H915 0.950 . S
H912 C908 0.950 . S
C913 C911 1.390 . S
C913 C914 1.387 . S
C913 H916 0.950 . S
C914 C913 1.387 . S
C914 C917 1.387 . S
H915 C911 0.950 . S
H916 C913 0.950 . S
C917 C908 1.390 . S
C917 H910 0.950 . S
C917 C914 1.387 . S
C918 C919 1.387 . S
C918 H922 0.950 . S
C918 C927 1.390 . S
C919 C918 1.387 . S
C919 C921 1.387 . S
H920 C927 0.950 . S
C921 C919 1.387 . S
C921 C923 1.390 . S
C921 H925 0.950 . S
H922 C918 0.950 . S
C923 C921 1.390 . S
C923 C924 1.387 . S
C923 H926 0.950 . S
C924 C923 1.387 . S
C924 C927 1.387 . S
H925 C921 0.950 . S
H926 C923 0.950 . S
C927 C918 1.390 . S
C927 H920 0.950 . S
C927 C924 1.387 . S
C529 C21 1.535 . S
C534 C219 1.535 . S
C539 C252 1.533 . S
C544 C54 1.533 . S
C549 C153 1.535 . S
C554 C87 1.535 . S
C559 C186 1.533 . S
C564 C120 1.533 . S
C569 C285 1.535 . S
C574 C483 1.535 . S
C579 C318 1.533 . S
C584 C516 1.533 . S
C589 C351 1.533 . S
C594 C417 1.533 . S
C599 C450 1.533 . S
C604 C384 1.533 . S
C609 C7 1.483 . S
C614 N101 1.507 . S
C619 C40 1.485 . S
C624 N2 1.509 . S
C629 N35 1.506 . S
C634 C73 1.484 1_655 S
C639 C106 1.486 1_565 S
C644 N68 1.508 . S
C649 N167 1.506 . S
C654 C139 1.484 . S
C659 N200 1.507 . S
C664 C172 1.486 . S
C669 N233 1.507 . S
C674 C205 1.485 1_655 S
C679 N134 1.509 . S
C684 C238 1.484 1_565 S
C689 C271 1.483 . S
C694 N365 1.507 . S
C699 N266 1.508 . S
C704 C304 1.484 . S
C709 C337 1.485 . S
C714 N299 1.509 . S
C719 C370 1.484 . S
C724 N332 1.509 . S
C729 C403 1.484 . S
C734 N431 1.506 . S
C739 C436 1.486 . S
C744 N464 1.507 . S
C749 C469 1.486 . S
C754 N497 1.507 . S
C759 N398 1.506 . S
C764 C502 1.485 . S
C769 N508 1.282 . S
C774 N13 1.286 . S
C779 N46 1.283 . S
C784 N409 1.286 . S
C789 N442 1.284 . S
C794 N79 1.286 . S
C799 N112 1.286 . S
C804 N475 1.284 . S
C809 N310 1.282 . S
C814 N145 1.286 . S
C819 N178 1.282 . S
C824 N343 1.284 . S
C829 N211 1.284 . S
C834 N376 1.286 . S
C839 N277 1.286 . S
C844 N244 1.283 . S
C849 C150 1.624 . S
C854 C381 1.624 . S
C859 C183 1.624 . S
C864 C282 1.624 . S
C869 C216 1.624 . S
C874 C315 1.624 . S
C879 C348 1.624 . S
C884 C249 1.624 . S
C889 C18 1.625 . S
C894 C447 1.625 . S
C899 C480 1.624 . S
C904 C51 1.624 . S
C909 C84 1.624 . S
C914 C513 1.624 . S
C919 C117 1.624 . S
C924 C414 1.624 . S
