# Generated by pormake.
# Topology wfs, (7)-cn, num edge types: 1
# Building blocks:
#     Node 0, Type 0, BuildingBlock: HICVOG_clean_sbu_0, # of connection points: 7
#     Node 1, Type 0, BuildingBlock: HICVOG_clean_sbu_0, # of connection points: 7
#     Node 2, Type 0, BuildingBlock: HICVOG_clean_sbu_0, # of connection points: 7
#     Node 3, Type 0, BuildingBlock: HICVOG_clean_sbu_0, # of connection points: 7
#     Node 4, Type 0, BuildingBlock: HICVOG_clean_sbu_0, # of connection points: 7
#     Node 5, Type 0, BuildingBlock: HICVOG_clean_sbu_0, # of connection points: 7
#     Node 6, Type 0, BuildingBlock: HICVOG_clean_sbu_0, # of connection points: 7
#     Node 7, Type 0, BuildingBlock: HICVOG_clean_sbu_0, # of connection points: 7
#     Edge 8, Type (0, 0), BuildingBlock: ZUJKAS_clean_linker_0, # of connection points: 2
#     Edge 9, Type (0, 0), BuildingBlock: ZUJKAS_clean_linker_0, # of connection points: 2
#     Edge 10, Type (0, 0), BuildingBlock: ZUJKAS_clean_linker_0, # of connection points: 2
#     Edge 11, Type (0, 0), BuildingBlock: ZUJKAS_clean_linker_0, # of connection points: 2
#     Edge 12, Type (0, 0), BuildingBlock: ZUJKAS_clean_linker_0, # of connection points: 2
#     Edge 13, Type (0, 0), BuildingBlock: ZUJKAS_clean_linker_0, # of connection points: 2
#     Edge 14, Type (0, 0), BuildingBlock: ZUJKAS_clean_linker_0, # of connection points: 2
#     Edge 15, Type (0, 0), BuildingBlock: ZUJKAS_clean_linker_0, # of connection points: 2
#     Edge 16, Type (0, 0), BuildingBlock: ZUJKAS_clean_linker_0, # of connection points: 2
#     Edge 17, Type (0, 0), BuildingBlock: ZUJKAS_clean_linker_0, # of connection points: 2
#     Edge 18, Type (0, 0), BuildingBlock: ZUJKAS_clean_linker_0, # of connection points: 2
#     Edge 19, Type (0, 0), BuildingBlock: ZUJKAS_clean_linker_0, # of connection points: 2
#     Edge 20, Type (0, 0), BuildingBlock: ZUJKAS_clean_linker_0, # of connection points: 2
#     Edge 21, Type (0, 0), BuildingBlock: ZUJKAS_clean_linker_0, # of connection points: 2
#     Edge 22, Type (0, 0), BuildingBlock: ZUJKAS_clean_linker_0, # of connection points: 2
#     Edge 23, Type (0, 0), BuildingBlock: ZUJKAS_clean_linker_0, # of connection points: 2
#     Edge 24, Type (0, 0), BuildingBlock: ZUJKAS_clean_linker_0, # of connection points: 2
#     Edge 25, Type (0, 0), BuildingBlock: ZUJKAS_clean_linker_0, # of connection points: 2
#     Edge 26, Type (0, 0), BuildingBlock: ZUJKAS_clean_linker_0, # of connection points: 2
#     Edge 27, Type (0, 0), BuildingBlock: ZUJKAS_clean_linker_0, # of connection points: 2
#     Edge 28, Type (0, 0), BuildingBlock: ZUJKAS_clean_linker_0, # of connection points: 2
#     Edge 29, Type (0, 0), BuildingBlock: ZUJKAS_clean_linker_0, # of connection points: 2
#     Edge 30, Type (0, 0), BuildingBlock: ZUJKAS_clean_linker_0, # of connection points: 2
#     Edge 31, Type (0, 0), BuildingBlock: ZUJKAS_clean_linker_0, # of connection points: 2
#     Edge 32, Type (0, 0), BuildingBlock: ZUJKAS_clean_linker_0, # of connection points: 2
#     Edge 33, Type (0, 0), BuildingBlock: ZUJKAS_clean_linker_0, # of connection points: 2
#     Edge 34, Type (0, 0), BuildingBlock: ZUJKAS_clean_linker_0, # of connection points: 2
#     Edge 35, Type (0, 0), BuildingBlock: ZUJKAS_clean_linker_0, # of connection points: 2
# Relax obj value: 0.509
# Max RMSD: 0.315
# Mean RMSD: 0.315
data_MOF--net-wfs--node1-HICVOG_clean_sbu_0--edge1-ZUJKAS_clean_linker_0
_symmetry_space_group_name_H-M    P1
_symmetry_Int_Tables_number       1
_symmetry_cell_setting            triclinic
loop_
_symmetry_equiv_pos_as_xyz
'x, y, z'
_cell_length_a     38.840141
_cell_length_b     37.709187
_cell_length_c     40.498779
_cell_angle_alpha  89.988478
_cell_angle_beta   89.985903
_cell_angle_gamma 90.015061
loop_
_atom_site_label
_atom_site_type_symbol
_atom_site_fract_x
_atom_site_fract_y
_atom_site_fract_z
_atom_type_partial_charge
Zn0 Zn 0.19254 0.15918 0.19172 0.0
C1 C 0.19912 0.26132 0.22121 0.0
N2 N 0.23268 0.25314 0.22397 0.0
C3 C 0.23359 0.21926 0.21404 0.0
N4 N 0.20208 0.20692 0.2062 0.0
N5 N 0.18008 0.23345 0.21049 0.0
C6 C 0.11756 0.25898 0.13918 0.0
O7 O 0.14991 0.26873 0.13672 0.0
O8 O 0.22679 0.12319 0.20934 0.0
Zn9 Zn 0.12962 0.23055 0.20959 0.0
N10 N 0.19625 0.15761 0.1445 0.0
C11 C 0.19263 0.18535 0.09201 0.0
C12 C 0.18578 0.18537 0.12579 0.0
C13 C 0.21301 0.1296 0.13101 0.0
N14 N 0.21021 0.15773 0.07857 0.0
C15 C 0.22106 0.12976 0.0972 0.0
O16 O 0.1094 0.18169 0.22026 0.0
C17 C 0.11791 0.14923 0.21702 0.0
O18 O 0.14727 0.14038 0.20609 0.0
H19 H 0.1729 0.20739 0.13728 0.0
H20 H 0.22013 0.10782 0.14688 0.0
C21 C 0.08566 0.2829 0.23873 0.0
C22 C 0.0735 0.30472 0.26439 0.0
C23 C 0.11809 0.28304 0.29908 0.0
C24 C 0.12926 0.26069 0.2739 0.0
N25 N 0.1132 0.26151 0.2441 0.0
N26 N 0.09031 0.30414 0.29391 0.0
H27 H 0.07264 0.28152 0.21517 0.0
C28 C 0.2373 0.11787 0.23865 0.0
O29 O 0.22604 0.13818 0.26269 0.0
O30 O 0.10684 0.24458 0.16572 0.0
H31 H 0.15087 0.24311 0.27785 0.0
H32 H 0.18449 0.20728 0.07666 0.0
H33 H 0.13091 0.28309 0.32279 0.0
Zn34 Zn 0.12073 0.77091 0.78571 0.0
C35 C 0.22379 0.7826 0.77794 0.0
N36 N 0.22287 0.74896 0.76728 0.0
C37 C 0.18968 0.74004 0.77223 0.0
N38 N 0.17107 0.7673 0.78477 0.0
N39 N 0.19298 0.79393 0.78854 0.0
C40 C 0.22752 0.88809 0.76768 0.0
O41 O 0.20945 0.87567 0.74281 0.0
O42 O 0.09721 0.7544 0.82841 0.0
Zn43 Zn 0.18426 0.84011 0.80636 0.0
N44 N 0.1044 0.74262 0.74918 0.0
C45 C 0.11082 0.72562 0.69302 0.0
C46 C 0.12169 0.7453 0.72012 0.0
C47 C 0.07601 0.72177 0.75207 0.0
N48 N 0.08208 0.70538 0.69562 0.0
C49 C 0.06382 0.70307 0.72428 0.0
O50 O 0.14184 0.86152 0.78834 0.0
C51 C 0.1122 0.85321 0.77774 0.0
O52 O 0.10226 0.82098 0.77625 0.0
H53 H 0.14394 0.76242 0.71816 0.0
H54 H 0.06318 0.72039 0.7757 0.0
C55 C 0.20554 0.85032 0.87235 0.0
C56 C 0.20244 0.84918 0.90679 0.0
C57 C 0.14926 0.81883 0.90119 0.0
C58 C 0.15178 0.8215 0.86691 0.0
N59 N 0.18016 0.83652 0.85329 0.0
N60 N 0.17447 0.833 0.92035 0.0
H61 H 0.22746 0.8629 0.86073 0.0
C62 C 0.10934 0.74313 0.85569 0.0
O63 O 0.1428 0.73949 0.85906 0.0
O64 O 0.2222 0.87574 0.79645 0.0
H65 H 0.13132 0.8121 0.85117 0.0
H66 H 0.12462 0.72702 0.66985 0.0
H67 H 0.12698 0.80666 0.91251 0.0
Zn68 Zn 0.80666 0.85057 0.18969 0.0
C69 C 0.79873 0.74789 0.2174 0.0
N70 N 0.76538 0.7567 0.22087 0.0
C71 C 0.76502 0.79082 0.21169 0.0
N72 N 0.79657 0.80271 0.20357 0.0
N73 N 0.81815 0.77568 0.20708 0.0
C74 C 0.87961 0.75046 0.13564 0.0
O75 O 0.84634 0.74519 0.13235 0.0
O76 O 0.77182 0.88723 0.20526 0.0
Zn77 Zn 0.86872 0.77779 0.20634 0.0
N78 N 0.8066 0.85206 0.14234 0.0
C79 C 0.82544 0.82969 0.09055 0.0
C80 C 0.82747 0.83015 0.12495 0.0
C81 C 0.78466 0.87459 0.1269 0.0
N82 N 0.80321 0.852 0.07502 0.0
C83 C 0.78289 0.8748 0.09235 0.0
O84 O 0.88951 0.82643 0.21746 0.0
C85 C 0.88078 0.85901 0.21636 0.0
O86 O 0.85127 0.8685 0.20633 0.0
H87 H 0.84533 0.81332 0.13789 0.0
H88 H 0.76841 0.89185 0.14146 0.0
C89 C 0.91316 0.72625 0.23563 0.0
C90 C 0.92543 0.70418 0.26105 0.0
C91 C 0.87928 0.72329 0.29518 0.0
C92 C 0.86795 0.74591 0.27025 0.0
N93 N 0.88476 0.74648 0.24082 0.0
N94 N 0.90789 0.70334 0.29018 0.0
H95 H 0.92673 0.72877 0.21244 0.0
C96 C 0.7607 0.89335 0.23424 0.0
O97 O 0.77108 0.87335 0.25887 0.0
O98 O 0.89135 0.7626 0.16275 0.0
H99 H 0.84573 0.76267 0.27416 0.0
H100 H 0.84159 0.81204 0.0763 0.0
H101 H 0.86591 0.72215 0.31858 0.0
Zn102 Zn 0.8756 0.23252 0.78988 0.0
C103 C 0.77293 0.2206 0.78018 0.0
N104 N 0.77422 0.2543 0.76963 0.0
C105 C 0.80719 0.26317 0.77566 0.0
N106 N 0.82537 0.23588 0.78864 0.0
N107 N 0.80339 0.20921 0.79169 0.0
C108 C 0.76957 0.11528 0.76901 0.0
O109 O 0.78742 0.1285 0.74434 0.0
O110 O 0.89889 0.24963 0.83244 0.0
Zn111 Zn 0.81179 0.16293 0.80958 0.0
N112 N 0.89177 0.26052 0.75306 0.0
C113 C 0.88525 0.2765 0.69664 0.0
C114 C 0.8748 0.25685 0.72393 0.0
C115 C 0.9195 0.28228 0.75585 0.0
N116 N 0.91336 0.29766 0.69915 0.0
C117 C 0.93134 0.30091 0.72788 0.0
O118 O 0.85519 0.14176 0.7933 0.0
C119 C 0.88491 0.15025 0.78299 0.0
O120 O 0.89438 0.18258 0.781 0.0
H121 H 0.85303 0.23907 0.72208 0.0
H122 H 0.93214 0.28443 0.77952 0.0
C123 C 0.78724 0.15146 0.87423 0.0
C124 C 0.78806 0.15236 0.90892 0.0
C125 C 0.84102 0.18403 0.90615 0.0
C126 C 0.84047 0.18183 0.87182 0.0
N127 N 0.81333 0.1662 0.85669 0.0
N128 N 0.81511 0.16901 0.9238 0.0
H129 H 0.76717 0.13787 0.8609 0.0
C130 C 0.88676 0.26015 0.85998 0.0
O131 O 0.85326 0.26262 0.86382 0.0
O132 O 0.77473 0.12706 0.79799 0.0
H133 H 0.86154 0.19198 0.85723 0.0
H134 H 0.87165 0.27437 0.67343 0.0
H135 H 0.86233 0.19661 0.91872 0.0
Zn136 Zn 0.61997 0.73153 0.72357 0.0
C137 C 0.72307 0.71533 0.72008 0.0
N138 N 0.72485 0.74914 0.73017 0.0
C139 C 0.69158 0.7591 0.73008 0.0
N140 N 0.67033 0.73233 0.72097 0.0
N141 N 0.6905 0.70487 0.71451 0.0
C142 C 0.72527 0.61346 0.73714 0.0
O143 O 0.71425 0.63129 0.76293 0.0
O144 O 0.59622 0.74633 0.68061 0.0
Zn145 Zn 0.67693 0.65836 0.70038 0.0
N146 N 0.60669 0.76478 0.75762 0.0
C147 C 0.6152 0.79026 0.81072 0.0
C148 C 0.62463 0.76597 0.7864 0.0
C149 C 0.57909 0.78615 0.7525 0.0
N150 N 0.58737 0.81139 0.80579 0.0
C151 C 0.56881 0.81007 0.77727 0.0
O152 O 0.63577 0.6406 0.72373 0.0
C153 C 0.60766 0.65068 0.73662 0.0
O154 O 0.5992 0.68339 0.73751 0.0
H155 H 0.6463 0.74843 0.79023 0.0
H156 H 0.5646 0.78325 0.72988 0.0
C157 C 0.69096 0.64511 0.63321 0.0
C158 C 0.68445 0.64437 0.59909 0.0
C159 C 0.62975 0.67071 0.60909 0.0
C160 C 0.63644 0.67103 0.64287 0.0
N161 N 0.66714 0.65887 0.65406 0.0
N162 N 0.65377 0.6574 0.58811 0.0
H163 H 0.71389 0.63362 0.64371 0.0
C164 C 0.60925 0.7544 0.65275 0.0
O165 O 0.64287 0.75413 0.64916 0.0
O166 O 0.71379 0.62132 0.70866 0.0
H167 H 0.6173 0.68044 0.66013 0.0
H168 H 0.62948 0.79185 0.8336 0.0
H169 H 0.60541 0.6802 0.59963 0.0
Zn170 Zn 0.62704 0.27733 0.29641 0.0
C171 C 0.72764 0.28564 0.27528 0.0
N172 N 0.72347 0.25229 0.26438 0.0
C173 C 0.69135 0.24464 0.2747 0.0
N174 N 0.67649 0.27219 0.29059 0.0
N175 N 0.69968 0.29787 0.29111 0.0
C176 C 0.73203 0.3904 0.26715 0.0
O177 O 0.71108 0.37681 0.24505 0.0
O178 O 0.60734 0.2545 0.33806 0.0
Zn179 Zn 0.69668 0.34247 0.31342 0.0
N180 N 0.60812 0.25654 0.25688 0.0
C181 C 0.61257 0.25434 0.1983 0.0
C182 C 0.62409 0.26696 0.2286 0.0
C183 C 0.58073 0.23407 0.25615 0.0
N184 N 0.5847 0.23276 0.19738 0.0
C185 C 0.56842 0.22218 0.22546 0.0
O186 O 0.65119 0.36658 0.30836 0.0
C187 C 0.62001 0.35991 0.30124 0.0
O188 O 0.60966 0.32833 0.29607 0.0
H189 H 0.64562 0.28512 0.22964 0.0
H190 H 0.56785 0.22693 0.27891 0.0
C191 C 0.71695 0.36422 0.37623 0.0
C192 C 0.72889 0.36075 0.40871 0.0
C193 C 0.72121 0.29846 0.4051 0.0
C194 C 0.70941 0.30211 0.37271 0.0
N195 N 0.7076 0.33498 0.35903 0.0
N196 N 0.73089 0.32778 0.42229 0.0
H197 H 0.71611 0.38979 0.36412 0.0
C198 C 0.6099 0.27164 0.36505 0.0
O199 O 0.62783 0.30119 0.36531 0.0
O200 O 0.73116 0.37866 0.29656 0.0
H201 H 0.7024 0.27898 0.35844 0.0
H202 H 0.62509 0.26233 0.17563 0.0
H203 H 0.72304 0.27252 0.41636 0.0
Zn204 Zn 0.31513 0.34354 0.69602 0.0
C205 C 0.30358 0.24237 0.72609 0.0
N206 N 0.2701 0.25164 0.7267 0.0
C207 C 0.27097 0.28543 0.71645 0.0
N208 N 0.30319 0.2966 0.71033 0.0
N209 N 0.32411 0.26962 0.71647 0.0
C210 C 0.38842 0.24692 0.64878 0.0
O211 O 0.3554 0.24021 0.64552 0.0
O212 O 0.27781 0.37978 0.7053 0.0
Zn213 Zn 0.37455 0.27228 0.71902 0.0
N214 N 0.32352 0.34319 0.64946 0.0
C215 C 0.35789 0.327 0.60341 0.0
C216 C 0.35229 0.32756 0.63739 0.0
C217 C 0.30073 0.3597 0.62929 0.0
N218 N 0.33508 0.34345 0.58314 0.0
C219 C 0.3065 0.36011 0.59505 0.0
O220 O 0.39364 0.32095 0.73347 0.0
C221 C 0.38424 0.35336 0.73219 0.0
O222 O 0.35606 0.36244 0.71887 0.0
H223 H 0.3708 0.31628 0.65418 0.0
H224 H 0.27928 0.3735 0.64032 0.0
C225 C 0.41661 0.2189 0.74879 0.0
C226 C 0.42731 0.19602 0.77422 0.0
C227 C 0.38038 0.21565 0.80704 0.0
C228 C 0.37051 0.23896 0.78208 0.0
N229 N 0.38855 0.23977 0.75333 0.0
N230 N 0.40872 0.1951 0.80273 0.0
H231 H 0.43115 0.22144 0.72613 0.0
C232 C 0.26823 0.38858 0.73419 0.0
O233 O 0.28148 0.37205 0.75977 0.0
O234 O 0.39963 0.25926 0.67604 0.0
H235 H 0.34848 0.25613 0.78543 0.0
H236 H 0.38056 0.3144 0.59327 0.0
H237 H 0.36608 0.21441 0.82993 0.0
Zn238 Zn 0.37302 0.73521 0.29687 0.0
C239 C 0.27306 0.72446 0.27239 0.0
N240 N 0.27621 0.75829 0.2625 0.0
C241 C 0.30805 0.76669 0.27313 0.0
N242 N 0.32374 0.73909 0.28825 0.0
N243 N 0.30132 0.71273 0.28804 0.0
C244 C 0.27012 0.61839 0.26586 0.0
O245 O 0.29156 0.63024 0.24331 0.0
O246 O 0.38851 0.75196 0.34281 0.0
Zn247 Zn 0.30647 0.66801 0.30937 0.0
N248 N 0.394 0.76362 0.2627 0.0
C249 C 0.39311 0.77842 0.20566 0.0
C250 C 0.38137 0.75793 0.23186 0.0
C251 C 0.41886 0.7883 0.26835 0.0
N252 N 0.41813 0.80276 0.2111 0.0
C253 C 0.43185 0.80823 0.24164 0.0
O254 O 0.35186 0.64529 0.30031 0.0
C255 C 0.38269 0.6531 0.29271 0.0
O256 O 0.39262 0.68523 0.29017 0.0
H257 H 0.36173 0.73806 0.22786 0.0
H258 H 0.42818 0.79214 0.29325 0.0
C259 C 0.28779 0.64614 0.37255 0.0
C260 C 0.27952 0.64925 0.4061 0.0
C261 C 0.29574 0.7099 0.40436 0.0
C262 C 0.30393 0.70657 0.37093 0.0
N263 N 0.29975 0.67469 0.35582 0.0
N264 N 0.28359 0.68128 0.42114 0.0
H265 H 0.28391 0.62152 0.35936 0.0
C266 C 0.39419 0.72816 0.3645 0.0
O267 O 0.38623 0.69516 0.35758 0.0
O268 O 0.27103 0.63179 0.29464 0.0
H269 H 0.31302 0.72923 0.35708 0.0
H270 H 0.38283 0.77467 0.18108 0.0
H271 H 0.29877 0.73509 0.41681 0.0
H272 H 0.26499 0.09716 0.29805 0.0
H273 H 0.29748 0.04285 0.30956 0.0
H274 H 0.29273 0.01475 0.20639 0.0
H275 H 0.26157 0.06917 0.19461 0.0
H276 H 0.27319 0.97894 0.30289 0.0
H277 H 0.3891 0.98594 0.22507 0.0
H278 H 0.36288 0.02447 0.23336 0.0
H279 H 0.35184 0.99447 0.2003 0.0
C280 C 0.27151 0.07974 0.27774 0.0
C281 C 0.26033 0.08735 0.24548 0.0
C282 C 0.29017 0.04873 0.28433 0.0
C283 C 0.29805 0.02477 0.25882 0.0
C284 C 0.28797 0.03311 0.22643 0.0
H285 H 0.29979 0.81137 0.22169 0.0
H286 H 0.30847 0.87552 0.22181 0.0
C287 C 0.26965 0.06416 0.21979 0.0
C288 C 0.31227 0.98897 0.26632 0.0
H289 H 0.36752 0.92592 0.23671 0.0
C290 C 0.29454 0.9677 0.28917 0.0
C291 C 0.34024 0.97417 0.24856 0.0
C292 C 0.36229 0.99618 0.22575 0.0
C293 C 0.30206 0.9315 0.29271 0.0
C294 C 0.32815 0.91611 0.27299 0.0
C295 C 0.34745 0.93776 0.25173 0.0
C296 C 0.33143 0.87704 0.27042 0.0
C297 C 0.28034 0.90934 0.31575 0.0
C298 C 0.3431 0.85641 0.29708 0.0
C299 C 0.33838 0.81951 0.29693 0.0
C300 C 0.32171 0.80307 0.27023 0.0
C301 C 0.31261 0.82349 0.2426 0.0
C302 C 0.31766 0.86011 0.24259 0.0
H303 H 0.25929 0.92489 0.32738 0.0
H304 H 0.26879 0.88669 0.30215 0.0
H305 H 0.29681 0.89831 0.33564 0.0
H306 H 0.35387 0.86904 0.31876 0.0
H307 H 0.3453 0.80434 0.31863 0.0
H308 H 0.04258 0.6524 0.68057 0.0
H309 H 0.98415 0.62961 0.67301 0.0
H310 H 0.95072 0.6869 0.75923 0.0
H311 H 0.00807 0.71069 0.76664 0.0
H312 H 0.92113 0.60997 0.74508 0.0
H313 H 0.91204 0.71151 0.64507 0.0
H314 H 0.94785 0.68116 0.64622 0.0
H315 H 0.94435 0.71523 0.67689 0.0
C316 C 0.02302 0.65967 0.69838 0.0
C317 C 0.0304 0.68369 0.72412 0.0
C318 C 0.98971 0.64638 0.69406 0.0
C319 C 0.96331 0.65668 0.71555 0.0
C320 C 0.97097 0.67843 0.74259 0.0
H321 H 0.76898 0.70065 0.76771 0.0
H322 H 0.82491 0.6721 0.76128 0.0
C323 C 0.0041 0.69196 0.74682 0.0
C324 C 0.92687 0.6499 0.70747 0.0
H325 H 0.86057 0.68911 0.66633 0.0
C326 C 0.90785 0.6265 0.72725 0.0
C327 C 0.9098 0.67102 0.68375 0.0
C328 C 0.92934 0.69625 0.66166 0.0
C329 C 0.87175 0.62575 0.7256 0.0
C330 C 0.85451 0.64991 0.70461 0.0
C331 C 0.87376 0.67075 0.68261 0.0
C332 C 0.81784 0.65936 0.70953 0.0
C333 C 0.85228 0.60002 0.74709 0.0
C334 C 0.79517 0.66195 0.68256 0.0
C335 C 0.76327 0.67878 0.68623 0.0
C336 C 0.7537 0.69295 0.71688 0.0
C337 C 0.77577 0.68933 0.74399 0.0
C338 C 0.80749 0.67254 0.74041 0.0
H339 H 0.86766 0.5757 0.75177 0.0
H340 H 0.84674 0.61252 0.77132 0.0
H341 H 0.82754 0.59237 0.73539 0.0
H342 H 0.80292 0.65268 0.65836 0.0
H343 H 0.74701 0.68252 0.66484 0.0
H344 H 0.69537 0.20374 0.22017 0.0
H345 H 0.68588 0.13985 0.21719 0.0
H346 H 0.64642 0.14051 0.31674 0.0
H347 H 0.6557 0.20496 0.31961 0.0
H348 H 0.70589 0.09856 0.3066 0.0
H349 H 0.60732 0.06659 0.21278 0.0
H350 H 0.63708 0.09995 0.19914 0.0
H351 H 0.60915 0.109 0.23357 0.0
C352 C 0.68337 0.19046 0.24093 0.0
C353 C 0.67619 0.20914 0.27009 0.0
C354 C 0.67777 0.15395 0.23916 0.0
C355 C 0.66525 0.13535 0.26666 0.0
C356 C 0.65576 0.1544 0.2951 0.0
H357 H 0.72507 0.91065 0.2906 0.0
H358 H 0.69354 0.9657 0.30174 0.0
C359 C 0.66086 0.1912 0.29668 0.0
C360 C 0.66863 0.09613 0.2674 0.0
H361 H 0.6509 0.0218 0.22233 0.0
C362 C 0.69319 0.08147 0.28882 0.0
C363 C 0.65226 0.07404 0.24399 0.0
C364 C 0.62473 0.08812 0.22126 0.0
C365 C 0.70386 0.04603 0.28577 0.0
C366 C 0.68874 0.02426 0.26119 0.0
C367 C 0.66256 0.0384 0.24113 0.0
C368 C 0.70267 0.98841 0.25342 0.0
C369 C 0.73308 0.03316 0.30725 0.0
C370 C 0.71642 0.98185 0.22195 0.0
C371 C 0.73392 0.95025 0.21536 0.0
C372 C 0.73832 0.92459 0.24022 0.0
C373 C 0.72274 0.93021 0.27114 0.0
C374 C 0.70481 0.96172 0.27758 0.0
H375 H 0.74656 0.05535 0.31986 0.0
H376 H 0.72276 0.01519 0.32656 0.0
H377 H 0.75226 0.0182 0.29244 0.0
H378 H 0.71495 1.00187 0.2028 0.0
H379 H 0.74524 0.94667 0.19114 0.0
H380 H 0.95119 0.35244 0.68443 0.0
H381 H 0.00938 0.37564 0.67603 0.0
H382 H 0.04457 0.31797 0.76142 0.0
H383 H 0.98745 0.2939 0.76966 0.0
H384 H 0.07492 0.39254 0.74851 0.0
H385 H 0.07969 0.29576 0.64424 0.0
H386 H 0.04507 0.32744 0.64653 0.0
H387 H 0.04734 0.29206 0.67604 0.0
C388 C 0.97111 0.34523 0.70189 0.0
C389 C 0.96434 0.32096 0.72758 0.0
C390 C 0.00428 0.35871 0.69709 0.0
C391 C 0.03113 0.3483 0.71801 0.0
C392 C 0.024 0.32648 0.74517 0.0
H393 H 0.2251 0.29734 0.7648 0.0
H394 H 0.16941 0.32679 0.76018 0.0
C395 C 0.99101 0.31279 0.74989 0.0
C396 C 0.06744 0.35489 0.7092 0.0
H397 H 0.13198 0.31623 0.66509 0.0
C398 C 0.08743 0.37668 0.72967 0.0
C399 C 0.08353 0.33463 0.68421 0.0
C400 C 0.06302 0.31104 0.6614 0.0
C401 C 0.12349 0.37649 0.72746 0.0
C402 C 0.13971 0.35302 0.70508 0.0
C403 C 0.11955 0.33402 0.68243 0.0
C404 C 0.17616 0.3422 0.70902 0.0
C405 C 0.14397 0.40032 0.74992 0.0
C406 C 0.19847 0.34061 0.6817 0.0
C407 C 0.2302 0.32321 0.68429 0.0
C408 C 0.23995 0.30742 0.71421 0.0
C409 C 0.21814 0.30982 0.74164 0.0
C410 C 0.18659 0.32714 0.73911 0.0
H411 H 0.12938 0.42481 0.75599 0.0
H412 H 0.14942 0.38629 0.77343 0.0
H413 H 0.16875 0.40784 0.73828 0.0
H414 H 0.19066 0.3514 0.65806 0.0
H415 H 0.24641 0.32076 0.66267 0.0
H416 H 0.25263 0.91414 0.70946 0.0
H417 H 0.28388 0.96967 0.70085 0.0
H418 H 0.28499 0.98779 0.80603 0.0
H419 H 0.25495 0.93174 0.81482 0.0
H420 H 0.25802 0.03117 0.71365 0.0
H421 H 0.37913 0.02233 0.78425 0.0
H422 H 0.35332 0.98374 0.77505 0.0
H423 H 0.34317 0.0114 0.81002 0.0
C424 C 0.26025 0.92956 0.7308 0.0
C425 C 0.25097 0.91871 0.76279 0.0
C426 C 0.2782 0.96131 0.72585 0.0
C427 C 0.28713 0.98301 0.75276 0.0
C428 C 0.2793 0.97129 0.78485 0.0
H429 H 0.27756 0.20222 0.77502 0.0
H430 H 0.28264 0.13808 0.78137 0.0
C431 C 0.26175 0.93929 0.78984 0.0
C432 C 0.29982 0.01986 0.74705 0.0
H433 H 0.35741 0.08217 0.77422 0.0
C434 C 0.28032 0.04193 0.72628 0.0
C435 C 0.32895 0.03421 0.76343 0.0
C436 C 0.35252 0.01151 0.78413 0.0
C437 C 0.28791 0.07809 0.72287 0.0
C438 C 0.31551 0.09287 0.74094 0.0
C439 C 0.33614 0.07074 0.76052 0.0
C440 C 0.32002 0.13186 0.74229 0.0
C441 C 0.2653 0.10083 0.70117 0.0
C442 C 0.34066 0.1498 0.71918 0.0
C443 C 0.33797 0.18677 0.71566 0.0
C444 C 0.31434 0.20594 0.73494 0.0
C445 C 0.29587 0.18808 0.75971 0.0
C446 C 0.29882 0.15146 0.76347 0.0
H447 H 0.24761 0.08471 0.6857 0.0
H448 H 0.24961 0.11874 0.71687 0.0
H449 H 0.28136 0.11765 0.68476 0.0
H450 H 0.35707 0.13504 0.70251 0.0
H451 H 0.35251 0.19982 0.69647 0.0
H452 H 0.2313 0.69574 0.31905 0.0
H453 H 0.17351 0.67133 0.31011 0.0
H454 H 0.18666 0.68306 0.20481 0.0
H455 H 0.24386 0.70862 0.21395 0.0
H456 H 0.13279 0.71831 0.22646 0.0
H457 H 0.1257 0.58267 0.27802 0.0
H458 H 0.14628 0.61323 0.30567 0.0
H459 H 0.16579 0.6035 0.26638 0.0
C460 C 0.22204 0.69208 0.29404 0.0
C461 C 0.24164 0.70381 0.26711 0.0
C462 C 0.18926 0.67779 0.28888 0.0
C463 C 0.17591 0.67488 0.25672 0.0
C464 C 0.19654 0.68478 0.22977 0.0
H465 H 0.957 0.67664 0.20541 0.0
H466 H 0.01752 0.6595 0.20054 0.0
C467 C 0.22904 0.69947 0.23497 0.0
C468 C 0.13866 0.66838 0.25169 0.0
H469 H 0.07178 0.61475 0.27426 0.0
C470 C 0.11957 0.6952 0.23615 0.0
C471 C 0.12144 0.6383 0.26444 0.0
C472 C 0.14089 0.6076 0.27928 0.0
C473 C 0.08362 0.69387 0.23475 0.0
C474 C 0.06624 0.6647 0.24902 0.0
C475 C 0.08527 0.63704 0.26334 0.0
C476 C 0.02841 0.66526 0.25263 0.0
C477 C 0.06443 0.72482 0.21981 0.0
C478 C 0.0142 0.67206 0.28378 0.0
C479 C 0.97977 0.68217 0.28665 0.0
C480 C 0.9591 0.68587 0.25835 0.0
C481 C 0.97255 0.67543 0.22756 0.0
C482 C 0.00701 0.66521 0.22474 0.0
H483 H 0.08167 0.74757 0.21425 0.0
H484 H 0.0521 0.71632 0.1964 0.0
H485 H 0.04382 0.73407 0.23676 0.0
H486 H 0.03036 0.67219 0.30559 0.0
H487 H 0.97018 0.68963 0.31079 0.0
H488 H 0.74018 0.07267 0.81599 0.0
H489 H 0.71159 0.01564 0.80724 0.0
H490 H 0.71859 0.0303 0.70189 0.0
H491 H 0.74776 0.08714 0.71036 0.0
H492 H 0.6527 0.98869 0.77046 0.0
H493 H 0.77907 0.94269 0.72171 0.0
H494 H 0.77424 0.98419 0.74331 0.0
H495 H 0.76079 0.98036 0.70102 0.0
C496 C 0.73515 0.06408 0.79093 0.0
C497 C 0.74695 0.08408 0.76383 0.0
C498 C 0.7186 0.03153 0.78599 0.0
C499 C 0.71349 0.01846 0.75393 0.0
C500 C 0.72275 0.03968 0.72685 0.0
H501 H 0.64576 0.80334 0.69852 0.0
H502 H 0.64304 0.86826 0.70484 0.0
C503 C 0.73947 0.07213 0.73174 0.0
C504 C 0.70292 0.98097 0.74903 0.0
H505 H 0.73454 0.9009 0.724 0.0
C506 C 0.67037 0.9695 0.75996 0.0
C507 C 0.72624 0.95591 0.7357 0.0
C508 C 0.76215 0.96618 0.72498 0.0
C509 C 0.66078 0.93348 0.75814 0.0
C510 C 0.68435 0.90861 0.74521 0.0
C511 C 0.71647 0.92021 0.73369 0.0
C512 C 0.67827 0.86984 0.7462 0.0
C513 C 0.6262 0.92179 0.77105 0.0
C514 C 0.69791 0.84934 0.76805 0.0
C515 C 0.69969 0.81268 0.76427 0.0
C516 C 0.68165 0.7957 0.73873 0.0
C517 C 0.65964 0.81579 0.71853 0.0
C518 C 0.65809 0.85281 0.72215 0.0
H519 H 0.61094 0.94429 0.78101 0.0
H520 H 0.61136 0.90894 0.7509 0.0
H521 H 0.62978 0.90173 0.79083 0.0
H522 H 0.71373 0.86199 0.78667 0.0
H523 H 0.71681 0.79776 0.78018 0.0
H524 H 0.77046 0.31296 0.32178 0.0
H525 H 0.82789 0.33799 0.31235 0.0
H526 H 0.81304 0.32834 0.20708 0.0
H527 H 0.75623 0.30206 0.2167 0.0
H528 H 0.86775 0.29408 0.22644 0.0
H529 H 0.87374 0.42786 0.28161 0.0
H530 H 0.85497 0.39638 0.30953 0.0
H531 H 0.83364 0.40637 0.27115 0.0
C532 C 0.77929 0.31711 0.2967 0.0
C533 C 0.75933 0.3058 0.2699 0.0
C534 C 0.81185 0.33179 0.29127 0.0
C535 C 0.8246 0.33558 0.25895 0.0
C536 C 0.80364 0.32594 0.23217 0.0
H537 H 0.04394 0.33475 0.20883 0.0
H538 H 0.98388 0.35332 0.2032 0.0
C539 C 0.77138 0.3108 0.23763 0.0
C540 C 0.86163 0.34288 0.25345 0.0
H541 H 0.92818 0.39611 0.27757 0.0
C542 C 0.88083 0.31693 0.2368 0.0
C543 C 0.87867 0.37265 0.26703 0.0
C544 C 0.85911 0.40258 0.28304 0.0
C545 C 0.91676 0.31858 0.23532 0.0
C546 C 0.93399 0.34722 0.25064 0.0
C547 C 0.91481 0.37422 0.26584 0.0
C548 C 0.97173 0.34631 0.25491 0.0
C549 C 0.93609 0.28831 0.21935 0.0
C550 C 0.98516 0.33849 0.28618 0.0
C551 C 0.01929 0.3276 0.28947 0.0
C552 C 0.04046 0.32414 0.26148 0.0
C553 C 0.02794 0.33575 0.2307 0.0
C554 C 0.99375 0.34678 0.22746 0.0
H555 H 0.9189 0.26584 0.21277 0.0
H556 H 0.94863 0.29784 0.19638 0.0
H557 H 0.95653 0.27829 0.23609 0.0
H558 H 0.96853 0.33806 0.30766 0.0
H559 H 0.02819 0.31928 0.31361 0.0
H560 H 0.74126 0.56257 0.69165 0.0
H561 H 0.77273 0.50747 0.70089 0.0
H562 H 0.79484 0.53989 0.80081 0.0
H563 H 0.76188 0.59445 0.7922 0.0
H564 H 0.83585 0.48709 0.71749 0.0
H565 H 0.74561 0.44919 0.81819 0.0
H566 H 0.73847 0.48745 0.79251 0.0
H567 H 0.76907 0.48929 0.82586 0.0
C568 C 0.75296 0.55811 0.71557 0.0
C569 C 0.74836 0.58252 0.74145 0.0
C570 C 0.77111 0.5266 0.72079 0.0
C571 C 0.78538 0.51895 0.75186 0.0
C572 C 0.78302 0.54453 0.777 0.0
H573 H 0.84843 0.30523 0.81416 0.0
H574 H 0.85463 0.36985 0.80916 0.0
C575 C 0.76432 0.57582 0.77198 0.0
C576 C 0.80029 0.48319 0.75823 0.0
H577 H 0.78817 0.40812 0.80411 0.0
C578 C 0.8257 0.47 0.73672 0.0
C579 C 0.78708 0.4607 0.78331 0.0
C580 C 0.75836 0.47216 0.8061 0.0
C581 C 0.83716 0.43467 0.73879 0.0
C582 C 0.82308 0.4121 0.7631 0.0
C583 C 0.7992 0.42573 0.78574 0.0
C584 C 0.82797 0.37313 0.76236 0.0
C585 C 0.86338 0.42128 0.71434 0.0
C586 C 0.81195 0.35354 0.73728 0.0
C587 C 0.80785 0.31695 0.74049 0.0
C588 C 0.82016 0.29918 0.76858 0.0
C589 C 0.83899 0.31824 0.79222 0.0
C590 C 0.84248 0.35513 0.78937 0.0
H591 H 0.87819 0.44338 0.70305 0.0
H592 H 0.88159 0.40257 0.72633 0.0
H593 H 0.84992 0.4068 0.69427 0.0
H594 H 0.80013 0.36689 0.71648 0.0
H595 H 0.79321 0.30281 0.7219 0.0
H596 H 0.25741 0.17289 0.16727 0.0
H597 H 0.31152 0.13969 0.16819 0.0
H598 H 0.33879 0.19233 0.25935 0.0
H599 H 0.28318 0.22139 0.26025 0.0
H600 H 0.36886 0.15868 0.1596 0.0
H601 H 0.38086 0.10316 0.28215 0.0
H602 H 0.33959 0.11853 0.26756 0.0
H603 H 0.36788 0.14765 0.29063 0.0
C604 C 0.27432 0.17573 0.18821 0.0
C605 C 0.26559 0.19841 0.2143 0.0
C606 C 0.3055 0.15713 0.18863 0.0
C607 C 0.32924 0.16235 0.21444 0.0
C608 C 0.32055 0.1859 0.24007 0.0
H609 H 0.51328 0.24416 0.19196 0.0
H610 H 0.45789 0.2151 0.18643 0.0
C611 C 0.28897 0.20332 0.2402 0.0
C612 C 0.36519 0.14883 0.21214 0.0
H613 H 0.43427 0.13844 0.26296 0.0
C614 C 0.38286 0.15285 0.1821 0.0
C615 C 0.38411 0.13868 0.24053 0.0
C616 C 0.36681 0.12629 0.2718 0.0
C617 C 0.41889 0.15314 0.18114 0.0
C618 C 0.43746 0.15193 0.21119 0.0
C619 C 0.42013 0.14163 0.24008 0.0
C620 C 0.47229 0.16798 0.21399 0.0
C621 C 0.43645 0.15696 0.1481 0.0
C622 C 0.4985 0.15249 0.23321 0.0
C623 C 0.53001 0.17011 0.23759 0.0
C624 C 0.53564 0.2031 0.22244 0.0
C625 C 0.50956 0.21845 0.20342 0.0
C626 C 0.47807 0.20148 0.1998 0.0
H627 H 0.42343 0.14005 0.12943 0.0
H628 H 0.43423 0.1848 0.13946 0.0
H629 H 0.46406 0.14941 0.14925 0.0
H630 H 0.49455 0.12699 0.24491 0.0
H631 H 0.55001 0.1579 0.25236 0.0
H632 H 0.14394 0.69906 0.80738 0.0
H633 H 0.1379 0.63431 0.8031 0.0
H634 H 0.20204 0.63481 0.71625 0.0
H635 H 0.20866 0.69899 0.72088 0.0
H636 H 0.13725 0.58045 0.72296 0.0
H637 H 0.23869 0.58318 0.8205 0.0
H638 H 0.20099 0.61078 0.82423 0.0
H639 H 0.2326 0.62058 0.79332 0.0
C640 C 0.15572 0.68548 0.78684 0.0
C641 C 0.17715 0.70389 0.7648 0.0
C642 C 0.15227 0.64852 0.78438 0.0
C643 C 0.16977 0.62984 0.75948 0.0
C644 C 0.1883 0.64874 0.73559 0.0
H645 H 0.24555 0.43534 0.68744 0.0
H646 H 0.2142 0.49043 0.69633 0.0
C647 C 0.19215 0.68539 0.73835 0.0
C648 C 0.17431 0.59089 0.76122 0.0
H649 H 0.22937 0.5295 0.79328 0.0
C650 C 0.15683 0.569 0.7388 0.0
C651 C 0.19975 0.5761 0.782 0.0
C652 C 0.21927 0.59867 0.80644 0.0
C653 C 0.16508 0.53278 0.73583 0.0
C654 C 0.19241 0.51854 0.75491 0.0
C655 C 0.20851 0.54021 0.77854 0.0
C656 C 0.20714 0.4826 0.74891 0.0
C657 C 0.14461 0.51036 0.71206 0.0
C658 C 0.21421 0.45972 0.77548 0.0
C659 C 0.23303 0.42849 0.77057 0.0
C660 C 0.24503 0.41938 0.73893 0.0
C661 C 0.23663 0.44147 0.71213 0.0
C662 C 0.21825 0.4729 0.71714 0.0
H663 H 0.11769 0.52009 0.71012 0.0
H664 H 0.15631 0.51226 0.68712 0.0
H665 H 0.14411 0.48207 0.71966 0.0
H666 H 0.20605 0.46655 0.80025 0.0
H667 H 0.23885 0.41195 0.7917 0.0
H668 H 0.48501 0.80557 0.2869 0.0
H669 H 0.541 0.83321 0.28096 0.0
H670 H 0.50515 0.89098 0.19581 0.0
H671 H 0.4484 0.86392 0.20185 0.0
H672 H 0.55581 0.84179 0.18266 0.0
H673 H 0.59635 0.92607 0.28696 0.0
H674 H 0.57463 0.88677 0.30083 0.0
H675 H 0.55159 0.91891 0.27647 0.0
C676 C 0.48817 0.82546 0.2679 0.0
C677 C 0.46213 0.83208 0.24455 0.0
C678 C 0.52043 0.84144 0.2646 0.0
C679 C 0.52724 0.86424 0.23798 0.0
C680 C 0.50036 0.87362 0.21663 0.0
H681 H 0.73844 0.83464 0.16437 0.0
H682 H 0.68388 0.86759 0.16705 0.0
C683 C 0.46802 0.85784 0.22001 0.0
C684 C 0.56342 0.87032 0.22807 0.0
H685 H 0.64179 0.89154 0.26033 0.0
C686 C 0.57466 0.85369 0.19903 0.0
C687 C 0.58777 0.88598 0.24942 0.0
C688 C 0.57691 0.90577 0.28001 0.0
C689 C 0.60975 0.8484 0.19275 0.0
C690 C 0.63425 0.86127 0.21571 0.0
C691 C 0.62299 0.8814 0.2429 0.0
C692 C 0.67017 0.84804 0.21564 0.0
C693 C 0.61986 0.82594 0.16341 0.0
C694 C 0.68139 0.82775 0.24263 0.0
C695 C 0.71278 0.81003 0.24142 0.0
C696 C 0.73366 0.81241 0.21331 0.0
C697 C 0.72301 0.83326 0.18654 0.0
C698 C 0.69174 0.85166 0.18796 0.0
H699 H 0.59724 0.81352 0.15122 0.0
H700 H 0.63307 0.84276 0.14484 0.0
H701 H 0.63779 0.80451 0.171 0.0
H702 H 0.66513 0.8243 0.26414 0.0
H703 H 0.72047 0.79384 0.26227 0.0
H704 H 0.76811 0.43277 0.30981 0.0
H705 H 0.79413 0.49043 0.29787 0.0
H706 H 0.76999 0.47762 0.19467 0.0
H707 H 0.74341 0.42011 0.20643 0.0
H708 H 0.84591 0.5189 0.25318 0.0
H709 H 0.7127 0.56405 0.22492 0.0
H710 H 0.72144 0.52221 0.24477 0.0
H711 H 0.72769 0.52701 0.20103 0.0
C712 C 0.76882 0.44189 0.28446 0.0
C713 C 0.75303 0.42214 0.25914 0.0
C714 C 0.7839 0.47482 0.27767 0.0
C715 C 0.78349 0.48857 0.24548 0.0
C716 C 0.77014 0.4677 0.21977 0.0
H717 H 0.84267 0.70392 0.1828 0.0
H718 H 0.8467 0.63918 0.1896 0.0
C719 C 0.75492 0.43485 0.22655 0.0
C720 C 0.79274 0.52631 0.23969 0.0
H721 H 0.7567 0.60629 0.22069 0.0
C722 C 0.82656 0.53802 0.24575 0.0
C723 C 0.7673 0.55127 0.23043 0.0
C724 C 0.73017 0.54073 0.22515 0.0
C725 C 0.83542 0.57419 0.24297 0.0
C726 C 0.80982 0.59896 0.23401 0.0
C727 C 0.7763 0.5871 0.22739 0.0
C728 C 0.81573 0.63781 0.23402 0.0
C729 C 0.87158 0.58605 0.2507 0.0
C730 C 0.79826 0.65848 0.25737 0.0
C731 C 0.79563 0.69504 0.25325 0.0
C732 C 0.81066 0.71181 0.22584 0.0
C733 C 0.83096 0.69168 0.20411 0.0
C734 C 0.8333 0.65472 0.20805 0.0
H735 H 0.88804 0.56382 0.25934 0.0
H736 H 0.88339 0.59781 0.22826 0.0
H737 H 0.87107 0.60699 0.26998 0.0
H738 H 0.78455 0.64599 0.27758 0.0
H739 H 0.77996 0.70999 0.27047 0.0
H740 H 0.47145 0.18213 0.82455 0.0
H741 H 0.53157 0.16411 0.8199 0.0
H742 H 0.51873 0.14833 0.7152 0.0
H743 H 0.45838 0.16633 0.71955 0.0
H744 H 0.57392 0.10665 0.79027 0.0
H745 H 0.58139 0.23754 0.72643 0.0
H746 H 0.54374 0.22394 0.74916 0.0
H747 H 0.55244 0.20532 0.70921 0.0
C748 C 0.48106 0.17379 0.80067 0.0
C749 C 0.46055 0.17692 0.77222 0.0
C750 C 0.51541 0.16334 0.79811 0.0
C751 C 0.52963 0.1556 0.76713 0.0
C752 C 0.50823 0.15474 0.73925 0.0
H753 H 0.74283 0.20114 0.72331 0.0
H754 H 0.68631 0.17337 0.71657 0.0
C755 C 0.47389 0.16541 0.74174 0.0
C756 C 0.56744 0.1555 0.76341 0.0
H757 H 0.63296 0.20912 0.73836 0.0
C758 C 0.58699 0.12868 0.77847 0.0
C759 C 0.58426 0.18441 0.74809 0.0
C760 C 0.56454 0.21462 0.73247 0.0
C761 C 0.62316 0.13047 0.77912 0.0
C762 C 0.63982 0.16022 0.76507 0.0
C763 C 0.62018 0.18622 0.74897 0.0
C764 C 0.6771 0.16728 0.769 0.0
C765 C 0.64319 0.1007 0.79485 0.0
C766 C 0.69122 0.17189 0.80069 0.0
C767 C 0.72371 0.18737 0.80448 0.0
C768 C 0.74212 0.19865 0.77665 0.0
C769 C 0.72887 0.19246 0.74502 0.0
C770 C 0.69677 0.17647 0.74119 0.0
H771 H 0.62833 0.07552 0.79463 0.0
H772 H 0.66801 0.09644 0.78188 0.0
H773 H 0.64876 0.10752 0.82096 0.0
H774 H 0.67621 0.16592 0.82252 0.0
H775 H 0.73353 0.19242 0.82908 0.0
H776 H 0.22908 0.58213 0.30942 0.0
H777 H 0.20234 0.52402 0.30107 0.0
H778 H 0.23606 0.52414 0.19969 0.0
H779 H 0.26299 0.58216 0.20773 0.0
H780 H 0.15353 0.49157 0.24912 0.0
H781 H 0.28832 0.44136 0.25033 0.0
H782 H 0.27701 0.4848 0.26553 0.0
H783 H 0.27933 0.4768 0.22189 0.0
C784 C 0.23025 0.57016 0.28513 0.0
C785 C 0.24874 0.58653 0.25937 0.0
C786 C 0.21474 0.53702 0.28038 0.0
C787 C 0.21748 0.5197 0.24985 0.0
C788 C 0.23376 0.53707 0.22347 0.0
H789 H 0.15809 0.30754 0.18622 0.0
H790 H 0.15518 0.37185 0.19517 0.0
C791 C 0.24925 0.57019 0.22817 0.0
C792 C 0.20809 0.4817 0.24698 0.0
H793 H 0.24454 0.39972 0.24102 0.0
C794 C 0.1733 0.47138 0.2473 0.0
C795 C 0.23401 0.45549 0.24504 0.0
C796 C 0.27179 0.46494 0.24591 0.0
C797 C 0.16386 0.43529 0.24542 0.0
C798 C 0.1899 0.40919 0.24313 0.0
C799 C 0.22457 0.41974 0.24283 0.0
C800 C 0.18268 0.37052 0.24166 0.0
C801 C 0.12631 0.42523 0.24652 0.0
C802 C 0.19774 0.34827 0.26536 0.0
C803 C 0.19994 0.31186 0.25988 0.0
C804 C 0.18661 0.2968 0.23088 0.0
C805 C 0.16834 0.31842 0.20879 0.0
C806 C 0.1666 0.35521 0.214 0.0
H807 H 0.10998 0.44747 0.25536 0.0
H808 H 0.11768 0.41786 0.22132 0.0
H809 H 0.12225 0.40192 0.26283 0.0
H810 H 0.21021 0.35942 0.28693 0.0
H811 H 0.21411 0.29572 0.27735 0.0
H812 H 0.25312 0.8073 0.72232 0.0
H813 H 0.30987 0.83519 0.71708 0.0
H814 H 0.32174 0.83217 0.823 0.0
H815 H 0.26396 0.80607 0.82827 0.0
H816 H 0.35516 0.8908 0.79379 0.0
H817 H 0.38676 0.764 0.73032 0.0
H818 H 0.35379 0.78961 0.71054 0.0
H819 H 0.34623 0.77109 0.75085 0.0
C820 C 0.2676 0.81355 0.74443 0.0
C821 C 0.25473 0.80453 0.77564 0.0
C822 C 0.29988 0.8294 0.74146 0.0
C823 C 0.3203 0.83488 0.76959 0.0
C824 C 0.3064 0.82806 0.801 0.0
H825 H 0.52577 0.82871 0.8273 0.0
H826 H 0.46604 0.84768 0.82241 0.0
C827 C 0.27364 0.81299 0.80402 0.0
C828 C 0.35756 0.8421 0.76605 0.0
H829 H 0.43161 0.80422 0.73784 0.0
C830 C 0.37193 0.87213 0.78127 0.0
C831 C 0.37935 0.81754 0.74983 0.0
C832 C 0.3659 0.7836 0.73471 0.0
C833 C 0.40773 0.87782 0.78121 0.0
C834 C 0.42941 0.8528 0.76563 0.0
C835 C 0.41485 0.82362 0.74938 0.0
C836 C 0.4673 0.85298 0.76922 0.0
C837 C 0.42211 0.91013 0.79821 0.0
C838 C 0.48826 0.85094 0.74105 0.0
C839 C 0.52243 0.83979 0.74373 0.0
C840 C 0.53603 0.83005 0.77464 0.0
C841 C 0.51603 0.83571 0.8031 0.0
C842 C 0.48187 0.84688 0.80039 0.0
H843 H 0.40272 0.93174 0.79958 0.0
H844 H 0.42955 0.90298 0.82382 0.0
H845 H 0.44537 0.92015 0.78526 0.0
H846 H 0.47747 0.85555 0.71676 0.0
H847 H 0.5375 0.83699 0.72139 0.0
H848 H 0.13054 0.07812 0.21945 0.0
H849 H 0.08926 0.03008 0.22621 0.0
H850 H 0.00747 0.10615 0.23886 0.0
H851 H 0.04875 0.15485 0.23159 0.0
H852 H 0.04339 0.01194 0.27701 0.0
H853 H 0.97507 0.04547 0.16048 0.0
H854 H 0.01639 0.06419 0.171 0.0
H855 H 0.97788 0.08086 0.19005 0.0
C856 C 0.10382 0.08484 0.22383 0.0
C857 C 0.09293 0.12048 0.22456 0.0
C858 C 0.08026 0.05722 0.22782 0.0
C859 C 0.04523 0.06448 0.23252 0.0
C860 C 0.03435 0.09997 0.23468 0.0
H861 H 0.86626 0.92796 0.23037 0.0
H862 H 0.9065 0.97676 0.23806 0.0
C863 C 0.05799 0.12777 0.23071 0.0
C864 C 0.02022 0.03471 0.23361 0.0
H865 H 0.95313 0.99772 0.19144 0.0
C866 C 0.02354 0.00885 0.2584 0.0
C867 C 0.99458 0.03056 0.20911 0.0
C868 C 0.99081 0.05652 0.18095 0.0
C869 C 0.00159 0.97918 0.25958 0.0
C870 C 0.97606 0.97502 0.235 0.0
C871 C 0.97268 1.00098 0.21033 0.0
C872 C 0.95217 0.94423 0.23424 0.0
C873 C 0.00559 0.95287 0.28736 0.0
C874 C 0.96442 0.90941 0.23013 0.0
C875 C 0.94133 0.88115 0.22584 0.0
C876 C 0.90563 0.88739 0.22519 0.0
C877 C 0.89358 0.92215 0.23046 0.0
C878 C 0.91656 0.95018 0.2349 0.0
H879 H 0.02 0.96437 0.30851 0.0
H880 H 0.98009 0.94357 0.29627 0.0
H881 H 0.02013 0.92949 0.27829 0.0
H882 H 0.99182 0.90426 0.22894 0.0
H883 H 0.95144 0.85477 0.22164 0.0
H884 H 0.8704 0.07968 0.77831 0.0
H885 H 0.91043 0.03085 0.77002 0.0
H886 H 0.99419 0.10512 0.75985 0.0
H887 H 0.95418 0.1546 0.76872 0.0
H888 H 0.95579 0.01336 0.7188 0.0
H889 H 0.02475 0.04093 0.83637 0.0
H890 H 0.984 0.06119 0.82634 0.0
H891 H 0.02301 0.07734 0.80782 0.0
C892 C 0.8973 0.08585 0.77418 0.0
C893 C 0.90914 0.12117 0.77464 0.0
C894 C 0.92013 0.05779 0.76929 0.0
C895 C 0.95532 0.0643 0.76484 0.0
C896 C 0.96715 0.09952 0.76383 0.0
H897 H 0.12952 0.92151 0.76404 0.0
H898 H 0.09121 0.97199 0.75673 0.0
C899 C 0.94425 0.12776 0.76873 0.0
C900 C 0.97952 0.03394 0.76288 0.0
H901 H 0.0452 0.99344 0.80421 0.0
C902 C 0.97548 0.00904 0.73736 0.0
C903 C 0.00492 0.02821 0.78732 0.0
C904 C 0.00937 0.0531 0.8162 0.0
C905 C 0.99643 0.9787 0.73547 0.0
C906 C 0.02169 0.97293 0.76002 0.0
C907 C 0.02585 0.99798 0.78536 0.0
C908 C 0.04434 0.94125 0.76017 0.0
C909 C 0.99167 0.95334 0.70704 0.0
C910 C 0.03072 0.90692 0.76389 0.0
C911 C 0.05268 0.87772 0.76799 0.0
C912 C 0.08857 0.88255 0.76884 0.0
C913 C 0.10199 0.91682 0.76382 0.0
C914 C 0.08014 0.94578 0.75959 0.0
H915 H 0.97766 0.9659 0.68618 0.0
H916 H 0.01688 0.94348 0.69794 0.0
H917 H 0.97641 0.93018 0.71553 0.0
H918 H 0.00314 0.90289 0.765 0.0
H919 H 0.04155 0.85174 0.77198 0.0
H920 H 0.62247 0.58119 0.74792 0.0
H921 H 0.5823 0.53265 0.75679 0.0
H922 H 0.49798 0.60693 0.76024 0.0
H923 H 0.53824 0.65609 0.75044 0.0
H924 H 0.5347 0.51439 0.80403 0.0
H925 H 0.47145 0.54241 0.68366 0.0
H926 H 0.51114 0.56345 0.69589 0.0
H927 H 0.47081 0.57854 0.71253 0.0
C928 C 0.59542 0.58744 0.75088 0.0
C929 C 0.58353 0.6226 0.74788 0.0
C930 C 0.57248 0.55954 0.7561 0.0
C931 C 0.53705 0.566 0.75846 0.0
C932 C 0.52519 0.60126 0.75775 0.0
H933 H 0.36512 0.42022 0.749 0.0
H934 H 0.40213 0.47094 0.76009 0.0
C935 C 0.54824 0.62937 0.75244 0.0
C936 C 0.51284 0.53545 0.75925 0.0
H937 H 0.44998 0.49439 0.71437 0.0
C938 C 0.516 0.5101 0.78455 0.0
C939 C 0.48877 0.52961 0.73357 0.0
C940 C 0.48542 0.5547 0.70469 0.0
C941 C 0.49559 0.47925 0.78496 0.0
C942 C 0.47168 0.47344 0.75921 0.0
C943 C 0.46828 0.49894 0.73415 0.0
C944 C 0.44966 0.44126 0.75743 0.0
C945 C 0.49953 0.4533 0.81303 0.0
C946 C 0.46403 0.40733 0.75304 0.0
C947 C 0.44278 0.37796 0.74673 0.0
C948 C 0.4069 0.38224 0.74435 0.0
C949 C 0.39267 0.41598 0.75035 0.0
C950 C 0.41379 0.44509 0.75675 0.0
H951 H 0.51266 0.46548 0.8346 0.0
H952 H 0.47406 0.44303 0.82105 0.0
H953 H 0.51524 0.43045 0.8046 0.0
H954 H 0.4917 0.40385 0.75294 0.0
H955 H 0.45452 0.35241 0.74202 0.0
H956 H 0.55001 0.3574 0.29136 0.0
H957 H 0.51012 0.40756 0.28691 0.0
H958 H 0.59439 0.48045 0.30078 0.0
H959 H 0.6344 0.43081 0.3051 0.0
H960 H 0.49853 0.46198 0.33512 0.0
H961 H 0.54621 0.51735 0.21651 0.0
H962 H 0.55591 0.47274 0.22982 0.0
H963 H 0.5788 0.5097 0.24717 0.0
C964 C 0.5601 0.38409 0.29332 0.0
C965 C 0.59547 0.38999 0.29851 0.0
C966 C 0.53726 0.41271 0.29078 0.0
C967 C 0.54939 0.44772 0.29301 0.0
C968 C 0.58458 0.45368 0.29835 0.0
H969 H 0.45343 0.65668 0.29173 0.0
H970 H 0.49407 0.60687 0.29115 0.0
C971 C 0.60738 0.42518 0.30104 0.0
C972 C 0.52515 0.47804 0.29099 0.0
H973 H 0.50579 0.55219 0.24614 0.0
C974 C 0.49994 0.48159 0.31557 0.0
C975 C 0.52731 0.50375 0.26562 0.0
C976 C 0.55331 0.50069 0.23809 0.0
C977 C 0.47713 0.51048 0.31577 0.0
C978 C 0.47904 0.53608 0.29022 0.0
C979 C 0.50434 0.53256 0.26568 0.0
C980 C 0.45467 0.56638 0.28845 0.0
C981 C 0.45174 0.51375 0.34384 0.0
C982 C 0.41915 0.56019 0.28605 0.0
C983 C 0.39596 0.58847 0.28651 0.0
C984 C 0.40777 0.62367 0.28898 0.0
C985 C 0.44347 0.62993 0.28984 0.0
C986 C 0.46672 0.6015 0.28957 0.0
H987 H 0.46 0.49819 0.36575 0.0
H988 H 0.44839 0.54186 0.35135 0.0
H989 H 0.42638 0.50337 0.33576 0.0
H990 H 0.4093 0.53339 0.28424 0.0
H991 H 0.36867 0.58264 0.28537 0.0
H992 H 0.26462 0.07977 0.12586 0.0
H993 H 0.28594 0.02559 0.10037 0.0
H994 H 0.24444 0.05869 0.00665 0.0
H995 H 0.22121 0.11212 0.03201 0.0
H996 H 0.23206 0.98091 0.06744 0.0
H997 H 0.34309 0.01302 0.98695 0.0
H998 H 0.33236 0.03835 0.02351 0.0
H999 H 0.30867 0.04492 0.98591 0.0
C1000 C 0.25963 0.07567 0.09988 0.0
C1001 C 0.23963 0.09978 0.08133 0.0
C1002 C 0.27262 0.04492 0.08526 0.0
C1003 C 0.26688 0.03837 0.05171 0.0
C1004 C 0.24952 0.06363 0.03255 0.0
H1005 H 0.22622 0.91582 0.89626 0.0
H1006 H 0.25374 0.95443 0.93622 0.0
C1007 C 0.23602 0.09407 0.0472 0.0
C1008 C 0.27269 1.00279 0.0378 0.0
H1009 H 0.30946 0.96187 0.97172 0.0
C1010 C 0.24963 0.97606 0.0471 0.0
C1011 C 0.29577 0.99695 0.01152 0.0
C1012 C 0.32164 0.02471 0.00148 0.0
C1013 C 0.24604 0.94515 0.02825 0.0
C1014 C 0.26732 0.94037 1.0001 0.0
C1015 C 0.29307 0.96555 0.99314 0.0
C1016 C 0.2584 0.91416 0.97418 0.0
C1017 C 0.21702 0.92006 0.03678 0.0
C1018 C 0.25339 0.87808 0.98145 0.0
C1019 C 0.23653 0.85608 0.95881 0.0
C1020 C 0.22599 0.86954 0.92811 0.0
C1021 C 0.23433 0.9046 0.91963 0.0
C1022 C 0.25016 0.92674 0.94252 0.0
H1023 H 0.19963 0.93103 0.05602 0.0
H1024 H 0.2013 0.914 0.01459 0.0
H1025 H 0.22784 0.89489 0.04641 0.0
H1026 H 0.26063 0.86746 0.00528 0.0
H1027 H 0.23064 0.82899 0.96569 0.0
H1028 H 0.03882 0.74544 0.85661 0.0
H1029 H 0.00073 0.74269 0.90472 0.0
H1030 H 0.08854 0.72794 0.96826 0.0
H1031 H 0.12692 0.73055 0.92029 0.0
H1032 H 0.99411 0.68711 0.9559 0.0
H1033 H 0.03712 0.81758 0.00494 0.0
H1034 H 0.04441 0.80433 0.96266 0.0
H1035 H 0.07048 0.78623 0.99512 0.0
C1036 C 0.05009 0.74135 0.88077 0.0
C1037 C 0.08603 0.73843 0.88454 0.0
C1038 C 0.02823 0.73975 0.90825 0.0
C1039 C 0.04181 0.73556 0.94012 0.0
C1040 C 0.07754 0.73163 0.94393 0.0
H1041 H 0.95008 0.74927 0.13617 0.0
H1042 H 0.9891 0.74317 0.08912 0.0
C1043 C 0.09943 0.73293 0.91643 0.0
C1044 C 0.01861 0.73618 0.96937 0.0
H1045 H 0.99729 0.78551 0.03712 0.0
C1046 C 0.99475 0.70859 0.9737 0.0
C1047 C 0.01956 0.76417 0.99259 0.0
C1048 C 0.04405 0.79497 0.98866 0.0
C1049 C 0.97215 0.70798 0.0009 0.0
C1050 C 0.97273 0.73628 0.02394 0.0
C1051 C 0.99675 0.76379 0.01957 0.0
C1052 C 0.94866 0.73813 0.05266 0.0
C1053 C 0.94848 0.67656 0.00503 0.0
C1054 C 0.91278 0.73741 0.04804 0.0
C1055 C 0.89034 0.74054 0.07502 0.0
C1056 C 0.90328 0.74508 0.10719 0.0
C1057 C 0.93919 0.74583 0.11176 0.0
C1058 C 0.96158 0.74238 0.08483 0.0
H1059 H 0.95844 0.65284 0.99185 0.0
H1060 H 0.94501 0.66971 0.03149 0.0
H1061 H 0.92291 0.68307 0.99445 0.0
H1062 H 0.90204 0.73517 0.02347 0.0
H1063 H 0.86286 0.74026 0.07053 0.0
H1064 H 0.79598 0.13224 0.97304 0.0
H1065 H 0.76466 0.08607 0.00199 0.0
H1066 H 0.69313 0.07772 0.9211 0.0
H1067 H 0.72317 0.12516 0.89218 0.0
H1068 H 0.68715 0.06682 0.01653 0.0
H1069 H 0.7579 0.98477 0.92394 0.0
H1070 H 0.77115 0.02985 0.93173 0.0
H1071 H 0.73124 0.02129 0.91096 0.0
C1072 C 0.773 0.1216 0.96159 0.0
C1073 C 0.76346 0.13137 0.92933 0.0
C1074 C 0.75499 0.09523 0.97837 0.0
C1075 C 0.7271 0.07814 0.96331 0.0
C1076 C 0.71494 0.09041 0.93285 0.0
H1077 H 0.7447 0.86409 0.03667 0.0
H1078 H 0.71405 0.90905 0.00424 0.0
C1079 C 0.73274 0.11717 0.9161 0.0
C1080 C 0.71613 0.04361 0.9767 0.0
H1081 H 0.74313 0.95792 0.97378 0.0
C1082 C 0.69829 0.04262 0.00676 0.0
C1083 C 0.73001 0.01203 0.96347 0.0
C1084 C 0.74867 0.01168 0.93074 0.0
C1085 C 0.69691 0.01134 0.02551 0.0
C1086 C 0.71522 0.98108 0.01448 0.0
C1087 C 0.72947 0.98113 0.98261 0.0
C1088 C 0.72611 0.95243 0.03738 0.0
C1089 C 0.67723 0.01166 0.0576 0.0
C1090 C 0.74256 0.96158 0.06707 0.0
C1091 C 0.7595 0.93596 0.08573 0.0
C1092 C 0.76108 0.90069 0.07475 0.0
C1093 C 0.74386 0.89115 0.0456 0.0
C1094 C 0.72622 0.91677 0.02721 0.0
H1095 H 0.65309 0.02719 0.05489 0.0
H1096 H 0.67062 0.98447 0.06602 0.0
H1097 H 0.69292 0.02495 0.07688 0.0
H1098 H 0.74435 0.98897 0.07488 0.0
H1099 H 0.77318 0.9443 0.10771 0.0
H1100 H 0.04734 0.25192 0.13846 0.0
H1101 H 0.00863 0.25569 0.09082 0.0
H1102 H 0.09508 0.2781 0.02744 0.0
H1103 H 0.13404 0.27454 0.07494 0.0
H1104 H 0.00093 0.31581 0.04254 0.0
H1105 H 0.04463 0.1888 0.9866 0.0
H1106 H 0.05127 0.19916 0.02968 0.0
H1107 H 0.07763 0.21968 0.99872 0.0
C1108 C 0.05816 0.25775 0.11441 0.0
C1109 C 0.09386 0.26281 0.11054 0.0
C1110 C 0.03596 0.25998 0.08723 0.0
C1111 C 0.049 0.26686 0.05555 0.0
C1112 C 0.08452 0.27245 0.05163 0.0
H1113 H 0.95722 0.26299 0.85946 0.0
H1114 H 0.99611 0.26739 0.90673 0.0
C1115 C 0.10672 0.27055 0.07885 0.0
C1116 C 0.02551 0.26768 0.02656 0.0
H1117 H 0.00423 0.22229 0.95648 0.0
C1118 C 0.00157 0.29539 0.02369 0.0
C1119 C 0.02651 0.24108 0.00197 0.0
C1120 C 0.05118 0.21028 0.00429 0.0
C1121 C 0.97894 0.29752 0.99659 0.0
C1122 C 0.97959 0.27063 0.97212 0.0
C1123 C 0.00365 0.24294 0.9751 0.0
C1124 C 0.95558 0.27041 0.94332 0.0
C1125 C 0.95522 0.32908 0.99407 0.0
C1126 C 0.91969 0.27078 0.94791 0.0
C1127 C 0.89733 0.2687 0.92081 0.0
C1128 C 0.91033 0.26551 0.88851 0.0
C1129 C 0.94626 0.2654 0.88396 0.0
C1130 C 0.96858 0.26784 0.91102 0.0
H1131 H 0.96516 0.35202 0.00841 0.0
H1132 H 0.95168 0.33743 0.968 0.0
H1133 H 0.92968 0.3219 0.00437 0.0
H1134 H 0.90889 0.27178 0.97254 0.0
H1135 H 0.86984 0.2685 0.9253 0.0
H1136 H 0.78336 0.36711 0.45097 0.0
H1137 H 0.80087 0.42019 0.48197 0.0
H1138 H 0.71484 0.47762 0.44089 0.0
H1139 H 0.69777 0.4254 0.40973 0.0
H1140 H 0.77526 0.51707 0.4409 0.0
H1141 H 0.75071 0.45484 0.56382 0.0
H1142 H 0.78159 0.43412 0.53699 0.0
H1143 H 0.73679 0.43401 0.52604 0.0
C1144 C 0.7683 0.39116 0.44866 0.0
C1145 C 0.73938 0.39226 0.42783 0.0
C1146 C 0.77833 0.42138 0.46628 0.0
C1147 C 0.7591 0.45278 0.46374 0.0
C1148 C 0.7303 0.45379 0.44288 0.0
H1149 H 0.66936 0.62209 0.53681 0.0
H1150 H 0.70238 0.58193 0.50248 0.0
C1151 C 0.72054 0.42389 0.4251 0.0
C1152 C 0.76692 0.48443 0.4839 0.0
H1153 H 0.75491 0.51636 0.56175 0.0
C1154 C 0.7718 0.51688 0.46749 0.0
C1155 C 0.76295 0.48406 0.51862 0.0
C1156 C 0.75757 0.45002 0.53757 0.0
C1157 C 0.76911 0.54916 0.48442 0.0
C1158 C 0.76139 0.54877 0.51845 0.0
C1159 C 0.76065 0.51641 0.53553 0.0
C1160 C 0.74642 0.57994 0.53513 0.0
C1161 C 0.77213 0.58338 0.46541 0.0
C1162 C 0.76072 0.59305 0.56441 0.0
C1163 C 0.74192 0.61643 0.58421 0.0
C1164 C 0.70796 0.62607 0.57552 0.0
C1165 C 0.69509 0.61502 0.54473 0.0
C1166 C 0.71409 0.59216 0.52481 0.0
H1167 H 0.78935 0.58024 0.44369 0.0
H1168 H 0.74631 0.59117 0.45621 0.0
H1169 H 0.78213 0.60508 0.48129 0.0
H1170 H 0.78572 0.58393 0.57268 0.0
H1171 H 0.75377 0.62558 0.60678 0.0
H1172 H 0.37451 0.21897 0.58763 0.0
H1173 H 0.41286 0.21596 0.53969 0.0
H1174 H 0.4934 0.26616 0.59613 0.0
H1175 H 0.45567 0.26831 0.64428 0.0
H1176 H 0.4419 0.26789 0.50506 0.0
H1177 H 0.5461 0.18518 0.55722 0.0
H1178 H 0.50507 0.19038 0.57754 0.0
H1179 H 0.53801 0.22367 0.582 0.0
C1180 C 0.40054 0.22895 0.58998 0.0
C1181 C 0.41203 0.24361 0.61997 0.0
C1182 C 0.42245 0.22727 0.56249 0.0
C1183 C 0.45636 0.24019 0.56433 0.0
C1184 C 0.46778 0.25501 0.59422 0.0
H1185 H 0.61688 0.29694 0.42784 0.0
H1186 H 0.57952 0.28577 0.47537 0.0
C1187 C 0.44601 0.25645 0.62176 0.0
C1188 C 0.47916 0.23992 0.5346 0.0
H1189 H 0.55959 0.21686 0.50744 0.0
C1190 C 0.46744 0.25627 0.50549 0.0
C1191 C 0.51256 0.22471 0.53496 0.0
C1192 C 0.52604 0.20468 0.56451 0.0
C1193 C 0.48852 0.25895 0.47733 0.0
C1194 C 0.52221 0.24475 0.47812 0.0
C1195 C 0.53378 0.22782 0.50691 0.0
C1196 C 0.54631 0.24888 0.44979 0.0
C1197 C 0.47507 0.278 0.44722 0.0
C1198 C 0.54062 0.23108 0.4198 0.0
C1199 C 0.56216 0.23718 0.39254 0.0
C1200 C 0.58964 0.26143 0.39474 0.0
C1201 C 0.59589 0.27823 0.4252 0.0
C1202 C 0.57457 0.27187 0.45244 0.0
H1203 H 0.45046 0.29201 0.45221 0.0
H1204 H 0.49429 0.29757 0.43823 0.0
H1205 H 0.47063 0.25851 0.42714 0.0
H1206 H 0.51913 0.21296 0.41731 0.0
H1207 H 0.55657 0.22385 0.36948 0.0
H1208 H 0.3248 0.38634 0.53506 0.0
H1209 H 0.2951 0.43132 0.5029 0.0
H1210 H 0.20984 0.42895 0.57097 0.0
H1211 H 0.2386 0.38276 0.60294 0.0
H1212 H 0.22161 0.43913 0.47528 0.0
H1213 H 0.25868 0.53058 0.57774 0.0
H1214 H 0.27958 0.48812 0.57327 0.0
H1215 H 0.23555 0.49021 0.58642 0.0
C1216 C 0.29935 0.39452 0.54291 0.0
C1217 C 0.28491 0.38183 0.57248 0.0
C1218 C 0.28238 0.42025 0.52439 0.0
C1219 C 0.25067 0.43375 0.535 0.0
C1220 C 0.23459 0.41908 0.56276 0.0
H1221 H 0.23201 0.64891 0.45592 0.0
H1222 H 0.21117 0.5974 0.48728 0.0
C1223 C 0.25144 0.39301 0.58124 0.0
C1224 C 0.23764 0.46637 0.51939 0.0
H1225 H 0.24807 0.55576 0.52598 0.0
C1226 C 0.22626 0.46476 0.4866 0.0
C1227 C 0.24321 0.49968 0.53448 0.0
C1228 C 0.25494 0.50261 0.56992 0.0
C1229 C 0.22334 0.49564 0.46754 0.0
C1230 C 0.23322 0.52853 0.48145 0.0
C1231 C 0.2409 0.53047 0.51525 0.0
C1232 C 0.2422 0.55934 0.46053 0.0
C1233 C 0.21152 0.49246 0.4322 0.0
C1234 C 0.26702 0.55509 0.43569 0.0
C1235 C 0.27895 0.58421 0.41798 0.0
C1236 C 0.26651 0.6184 0.42488 0.0
C1237 C 0.24192 0.62282 0.45003 0.0
C1238 C 0.22981 0.59346 0.46772 0.0
H1239 H 0.19204 0.47104 0.42968 0.0
H1240 H 0.20028 0.51767 0.42301 0.0
H1241 H 0.23378 0.48526 0.41638 0.0
H1242 H 0.27818 0.52931 0.43071 0.0
H1243 H 0.29872 0.57996 0.39955 0.0
H1244 H 0.54042 0.76993 0.65271 0.0
H1245 H 0.50177 0.77354 0.60519 0.0
H1246 H 0.58715 0.75286 0.53981 0.0
H1247 H 0.62623 0.75133 0.58712 0.0
H1248 H 0.54616 0.79847 0.51192 0.0
H1249 H 0.46513 0.68888 0.55943 0.0
H1250 H 0.46596 0.72609 0.58692 0.0
H1251 H 0.50491 0.70153 0.57898 0.0
C1252 C 0.55102 0.76645 0.62817 0.0
C1253 C 0.58636 0.7598 0.62377 0.0
C1254 C 0.5288 0.76821 0.60098 0.0
C1255 C 0.54118 0.76227 0.56883 0.0
C1256 C 0.57676 0.75723 0.5643 0.0
H1257 H 0.42479 0.68084 0.40565 0.0
H1258 H 0.45923 0.69247 0.45449 0.0
C1259 C 0.59913 0.75632 0.59143 0.0
C1260 C 0.51717 0.76027 0.54002 0.0
H1261 H 0.44533 0.71788 0.51138 0.0
C1262 C 0.52411 0.78081 0.5118 0.0
C1263 C 0.48856 0.7369 0.53953 0.0
C1264 C 0.48087 0.71184 0.56768 0.0
C1265 C 0.5037 0.77831 0.48313 0.0
C1266 C 0.47462 0.75557 0.48297 0.0
C1267 C 0.46735 0.73557 0.51143 0.0
C1268 C 0.45306 0.74952 0.45288 0.0
C1269 C 0.51452 0.79892 0.4529 0.0
C1270 C 0.43752 0.77762 0.43546 0.0
C1271 C 0.41811 0.77101 0.4068 0.0
C1272 C 0.41316 0.7361 0.39552 0.0
C1273 C 0.42786 0.70808 0.4136 0.0
C1274 C 0.44767 0.71471 0.44169 0.0
H1275 H 0.54198 0.80706 0.45422 0.0
H1276 H 0.51071 0.78309 0.43008 0.0
H1277 H 0.49873 0.82335 0.45103 0.0
H1278 H 0.44031 0.80466 0.44398 0.0
H1279 H 0.40693 0.79316 0.39357 0.0
loop_
_geom_bond_atom_site_label_1
_geom_bond_atom_site_label_2
_geom_bond_distance
_geom_bond_site_symmetry_2
_ccdc_geom_bond_type
Zn0 N4 2.020 . S
Zn0 O8 2.019 . S
Zn0 N10 2.119 . S
Zn0 O18 1.975 . S
C1 N2 1.334 . S
C1 N5 1.336 . S
N2 C1 1.334 . S
N2 C3 1.334 . S
C3 N2 1.334 . S
C3 N4 1.336 . S
N4 Zn0 2.020 . S
N4 C3 1.336 . S
N4 N5 1.354 . S
N5 C1 1.336 . S
N5 N4 1.354 . S
N5 Zn9 2.020 . S
C6 O7 1.244 . S
C6 O30 1.257 . S
O7 C6 1.244 . S
O8 Zn0 2.019 . S
O8 C28 1.257 . S
Zn9 N5 2.020 . S
Zn9 O16 1.975 . S
Zn9 N25 2.119 . S
Zn9 O30 2.019 . S
N10 Zn0 2.119 . S
N10 C12 1.334 . S
N10 C13 1.328 . S
C11 C12 1.391 . S
C11 N14 1.329 . S
C11 H32 0.930 . S
C12 N10 1.334 . S
C12 C11 1.391 . S
C12 H19 0.930 . S
C13 N10 1.328 . S
C13 C15 1.392 . S
C13 H20 0.930 . S
N14 C11 1.329 . S
N14 C15 1.331 . S
C15 C13 1.392 . S
C15 N14 1.331 . S
O16 Zn9 1.975 . S
O16 C17 1.252 . S
C17 O16 1.252 . S
C17 O18 1.252 . S
O18 Zn0 1.975 . S
O18 C17 1.252 . S
H19 C12 0.930 . S
H20 C13 0.930 . S
C21 C22 1.392 . S
C21 N25 1.328 . S
C21 H27 0.930 . S
C22 C21 1.392 . S
C22 N26 1.331 . S
C23 C24 1.391 . S
C23 N26 1.329 . S
C23 H33 0.930 . S
C24 C23 1.391 . S
C24 N25 1.334 . S
C24 H31 0.930 . S
N25 Zn9 2.119 . S
N25 C21 1.328 . S
N25 C24 1.334 . S
N26 C22 1.331 . S
N26 C23 1.329 . S
H27 C21 0.930 . S
C28 O8 1.257 . S
C28 O29 1.244 . S
O29 C28 1.244 . S
O30 C6 1.257 . S
O30 Zn9 2.019 . S
H31 C24 0.930 . S
H32 C11 0.930 . S
H33 C23 0.930 . S
Zn34 N38 2.020 . S
Zn34 O42 2.019 . S
Zn34 N44 2.119 . S
Zn34 O52 1.975 . S
C35 N36 1.334 . S
C35 N39 1.336 . S
N36 C35 1.334 . S
N36 C37 1.334 . S
C37 N36 1.334 . S
C37 N38 1.336 . S
N38 Zn34 2.020 . S
N38 C37 1.336 . S
N38 N39 1.354 . S
N39 C35 1.336 . S
N39 N38 1.354 . S
N39 Zn43 2.020 . S
C40 O41 1.244 . S
C40 O64 1.257 . S
O41 C40 1.244 . S
O42 Zn34 2.019 . S
O42 C62 1.257 . S
Zn43 N39 2.020 . S
Zn43 O50 1.975 . S
Zn43 N59 2.119 . S
Zn43 O64 2.019 . S
N44 Zn34 2.119 . S
N44 C46 1.334 . S
N44 C47 1.328 . S
C45 C46 1.391 . S
C45 N48 1.329 . S
C45 H66 0.930 . S
C46 N44 1.334 . S
C46 C45 1.391 . S
C46 H53 0.930 . S
C47 N44 1.328 . S
C47 C49 1.392 . S
C47 H54 0.930 . S
N48 C45 1.329 . S
N48 C49 1.331 . S
C49 C47 1.392 . S
C49 N48 1.331 . S
O50 Zn43 1.975 . S
O50 C51 1.252 . S
C51 O50 1.252 . S
C51 O52 1.252 . S
O52 Zn34 1.975 . S
O52 C51 1.252 . S
H53 C46 0.930 . S
H54 C47 0.930 . S
C55 C56 1.392 . S
C55 N59 1.328 . S
C55 H61 0.930 . S
C56 C55 1.392 . S
C56 N60 1.331 . S
C57 C58 1.391 . S
C57 N60 1.329 . S
C57 H67 0.930 . S
C58 C57 1.391 . S
C58 N59 1.334 . S
C58 H65 0.930 . S
N59 Zn43 2.119 . S
N59 C55 1.328 . S
N59 C58 1.334 . S
N60 C56 1.331 . S
N60 C57 1.329 . S
H61 C55 0.930 . S
C62 O42 1.257 . S
C62 O63 1.244 . S
O63 C62 1.244 . S
O64 C40 1.257 . S
O64 Zn43 2.019 . S
H65 C58 0.930 . S
H66 C45 0.930 . S
H67 C57 0.930 . S
Zn68 N72 2.020 . S
Zn68 O76 2.019 . S
Zn68 N78 2.119 . S
Zn68 O86 1.975 . S
C69 N70 1.334 . S
C69 N73 1.336 . S
N70 C69 1.334 . S
N70 C71 1.334 . S
C71 N70 1.334 . S
C71 N72 1.336 . S
N72 Zn68 2.020 . S
N72 C71 1.336 . S
N72 N73 1.354 . S
N73 C69 1.336 . S
N73 N72 1.354 . S
N73 Zn77 2.020 . S
C74 O75 1.244 . S
C74 O98 1.257 . S
O75 C74 1.244 . S
O76 Zn68 2.019 . S
O76 C96 1.257 . S
Zn77 N73 2.020 . S
Zn77 O84 1.975 . S
Zn77 N93 2.119 . S
Zn77 O98 2.019 . S
N78 Zn68 2.119 . S
N78 C80 1.334 . S
N78 C81 1.328 . S
C79 C80 1.391 . S
C79 N82 1.329 . S
C79 H100 0.930 . S
C80 N78 1.334 . S
C80 C79 1.391 . S
C80 H87 0.930 . S
C81 N78 1.328 . S
C81 C83 1.392 . S
C81 H88 0.930 . S
N82 C79 1.329 . S
N82 C83 1.331 . S
C83 C81 1.392 . S
C83 N82 1.331 . S
O84 Zn77 1.975 . S
O84 C85 1.252 . S
C85 O84 1.252 . S
C85 O86 1.252 . S
O86 Zn68 1.975 . S
O86 C85 1.252 . S
H87 C80 0.930 . S
H88 C81 0.930 . S
C89 C90 1.392 . S
C89 N93 1.328 . S
C89 H95 0.930 . S
C90 C89 1.392 . S
C90 N94 1.331 . S
C91 C92 1.391 . S
C91 N94 1.329 . S
C91 H101 0.930 . S
C92 C91 1.391 . S
C92 N93 1.334 . S
C92 H99 0.930 . S
N93 Zn77 2.119 . S
N93 C89 1.328 . S
N93 C92 1.334 . S
N94 C90 1.331 . S
N94 C91 1.329 . S
H95 C89 0.930 . S
C96 O76 1.257 . S
C96 O97 1.244 . S
O97 C96 1.244 . S
O98 C74 1.257 . S
O98 Zn77 2.019 . S
H99 C92 0.930 . S
H100 C79 0.930 . S
H101 C91 0.930 . S
Zn102 N106 2.020 . S
Zn102 O110 2.019 . S
Zn102 N112 2.119 . S
Zn102 O120 1.975 . S
C103 N104 1.334 . S
C103 N107 1.336 . S
N104 C103 1.334 . S
N104 C105 1.334 . S
C105 N104 1.334 . S
C105 N106 1.336 . S
N106 Zn102 2.020 . S
N106 C105 1.336 . S
N106 N107 1.354 . S
N107 C103 1.336 . S
N107 N106 1.354 . S
N107 Zn111 2.020 . S
C108 O109 1.244 . S
C108 O132 1.257 . S
O109 C108 1.244 . S
O110 Zn102 2.019 . S
O110 C130 1.257 . S
Zn111 N107 2.020 . S
Zn111 O118 1.975 . S
Zn111 N127 2.119 . S
Zn111 O132 2.019 . S
N112 Zn102 2.119 . S
N112 C114 1.334 . S
N112 C115 1.328 . S
C113 C114 1.391 . S
C113 N116 1.329 . S
C113 H134 0.930 . S
C114 N112 1.334 . S
C114 C113 1.391 . S
C114 H121 0.930 . S
C115 N112 1.328 . S
C115 C117 1.392 . S
C115 H122 0.930 . S
N116 C113 1.329 . S
N116 C117 1.331 . S
C117 C115 1.392 . S
C117 N116 1.331 . S
O118 Zn111 1.975 . S
O118 C119 1.252 . S
C119 O118 1.252 . S
C119 O120 1.252 . S
O120 Zn102 1.975 . S
O120 C119 1.252 . S
H121 C114 0.930 . S
H122 C115 0.930 . S
C123 C124 1.392 . S
C123 N127 1.328 . S
C123 H129 0.930 . S
C124 C123 1.392 . S
C124 N128 1.331 . S
C125 C126 1.391 . S
C125 N128 1.329 . S
C125 H135 0.930 . S
C126 C125 1.391 . S
C126 N127 1.334 . S
C126 H133 0.930 . S
N127 Zn111 2.119 . S
N127 C123 1.328 . S
N127 C126 1.334 . S
N128 C124 1.331 . S
N128 C125 1.329 . S
H129 C123 0.930 . S
C130 O110 1.257 . S
C130 O131 1.244 . S
O131 C130 1.244 . S
O132 C108 1.257 . S
O132 Zn111 2.019 . S
H133 C126 0.930 . S
H134 C113 0.930 . S
H135 C125 0.930 . S
Zn136 N140 2.020 . S
Zn136 O144 2.019 . S
Zn136 N146 2.119 . S
Zn136 O154 1.975 . S
C137 N138 1.334 . S
C137 N141 1.336 . S
N138 C137 1.334 . S
N138 C139 1.334 . S
C139 N138 1.334 . S
C139 N140 1.336 . S
N140 Zn136 2.020 . S
N140 C139 1.336 . S
N140 N141 1.354 . S
N141 C137 1.336 . S
N141 N140 1.354 . S
N141 Zn145 2.020 . S
C142 O143 1.244 . S
C142 O166 1.257 . S
O143 C142 1.244 . S
O144 Zn136 2.019 . S
O144 C164 1.257 . S
Zn145 N141 2.020 . S
Zn145 O152 1.975 . S
Zn145 N161 2.119 . S
Zn145 O166 2.019 . S
N146 Zn136 2.119 . S
N146 C148 1.334 . S
N146 C149 1.328 . S
C147 C148 1.391 . S
C147 N150 1.329 . S
C147 H168 0.930 . S
C148 N146 1.334 . S
C148 C147 1.391 . S
C148 H155 0.930 . S
C149 N146 1.328 . S
C149 C151 1.392 . S
C149 H156 0.930 . S
N150 C147 1.329 . S
N150 C151 1.331 . S
C151 C149 1.392 . S
C151 N150 1.331 . S
O152 Zn145 1.975 . S
O152 C153 1.252 . S
C153 O152 1.252 . S
C153 O154 1.252 . S
O154 Zn136 1.975 . S
O154 C153 1.252 . S
H155 C148 0.930 . S
H156 C149 0.930 . S
C157 C158 1.392 . S
C157 N161 1.328 . S
C157 H163 0.930 . S
C158 C157 1.392 . S
C158 N162 1.331 . S
C159 C160 1.391 . S
C159 N162 1.329 . S
C159 H169 0.930 . S
C160 C159 1.391 . S
C160 N161 1.334 . S
C160 H167 0.930 . S
N161 Zn145 2.119 . S
N161 C157 1.328 . S
N161 C160 1.334 . S
N162 C158 1.331 . S
N162 C159 1.329 . S
H163 C157 0.930 . S
C164 O144 1.257 . S
C164 O165 1.244 . S
O165 C164 1.244 . S
O166 C142 1.257 . S
O166 Zn145 2.019 . S
H167 C160 0.930 . S
H168 C147 0.930 . S
H169 C159 0.930 . S
Zn170 N174 2.020 . S
Zn170 O178 2.019 . S
Zn170 N180 2.119 . S
Zn170 O188 1.975 . S
C171 N172 1.334 . S
C171 N175 1.336 . S
N172 C171 1.334 . S
N172 C173 1.334 . S
C173 N172 1.334 . S
C173 N174 1.336 . S
N174 Zn170 2.020 . S
N174 C173 1.336 . S
N174 N175 1.354 . S
N175 C171 1.336 . S
N175 N174 1.354 . S
N175 Zn179 2.020 . S
C176 O177 1.244 . S
C176 O200 1.257 . S
O177 C176 1.244 . S
O178 Zn170 2.019 . S
O178 C198 1.257 . S
Zn179 N175 2.020 . S
Zn179 O186 1.975 . S
Zn179 N195 2.119 . S
Zn179 O200 2.019 . S
N180 Zn170 2.119 . S
N180 C182 1.334 . S
N180 C183 1.328 . S
C181 C182 1.391 . S
C181 N184 1.329 . S
C181 H202 0.930 . S
C182 N180 1.334 . S
C182 C181 1.391 . S
C182 H189 0.930 . S
C183 N180 1.328 . S
C183 C185 1.392 . S
C183 H190 0.930 . S
N184 C181 1.329 . S
N184 C185 1.331 . S
C185 C183 1.392 . S
C185 N184 1.331 . S
O186 Zn179 1.975 . S
O186 C187 1.252 . S
C187 O186 1.252 . S
C187 O188 1.252 . S
O188 Zn170 1.975 . S
O188 C187 1.252 . S
H189 C182 0.930 . S
H190 C183 0.930 . S
C191 C192 1.392 . S
C191 N195 1.328 . S
C191 H197 0.930 . S
C192 C191 1.392 . S
C192 N196 1.331 . S
C193 C194 1.391 . S
C193 N196 1.329 . S
C193 H203 0.930 . S
C194 C193 1.391 . S
C194 N195 1.334 . S
C194 H201 0.930 . S
N195 Zn179 2.119 . S
N195 C191 1.328 . S
N195 C194 1.334 . S
N196 C192 1.331 . S
N196 C193 1.329 . S
H197 C191 0.930 . S
C198 O178 1.257 . S
C198 O199 1.244 . S
O199 C198 1.244 . S
O200 C176 1.257 . S
O200 Zn179 2.019 . S
H201 C194 0.930 . S
H202 C181 0.930 . S
H203 C193 0.930 . S
Zn204 N208 2.020 . S
Zn204 O212 2.019 . S
Zn204 N214 2.119 . S
Zn204 O222 1.975 . S
C205 N206 1.334 . S
C205 N209 1.336 . S
N206 C205 1.334 . S
N206 C207 1.334 . S
C207 N206 1.334 . S
C207 N208 1.336 . S
N208 Zn204 2.020 . S
N208 C207 1.336 . S
N208 N209 1.354 . S
N209 C205 1.336 . S
N209 N208 1.354 . S
N209 Zn213 2.020 . S
C210 O211 1.244 . S
C210 O234 1.257 . S
O211 C210 1.244 . S
O212 Zn204 2.019 . S
O212 C232 1.257 . S
Zn213 N209 2.020 . S
Zn213 O220 1.975 . S
Zn213 N229 2.119 . S
Zn213 O234 2.019 . S
N214 Zn204 2.119 . S
N214 C216 1.334 . S
N214 C217 1.328 . S
C215 C216 1.391 . S
C215 N218 1.329 . S
C215 H236 0.930 . S
C216 N214 1.334 . S
C216 C215 1.391 . S
C216 H223 0.930 . S
C217 N214 1.328 . S
C217 C219 1.392 . S
C217 H224 0.930 . S
N218 C215 1.329 . S
N218 C219 1.331 . S
C219 C217 1.392 . S
C219 N218 1.331 . S
O220 Zn213 1.975 . S
O220 C221 1.252 . S
C221 O220 1.252 . S
C221 O222 1.252 . S
O222 Zn204 1.975 . S
O222 C221 1.252 . S
H223 C216 0.930 . S
H224 C217 0.930 . S
C225 C226 1.392 . S
C225 N229 1.328 . S
C225 H231 0.930 . S
C226 C225 1.392 . S
C226 N230 1.331 . S
C227 C228 1.391 . S
C227 N230 1.329 . S
C227 H237 0.930 . S
C228 C227 1.391 . S
C228 N229 1.334 . S
C228 H235 0.930 . S
N229 Zn213 2.119 . S
N229 C225 1.328 . S
N229 C228 1.334 . S
N230 C226 1.331 . S
N230 C227 1.329 . S
H231 C225 0.930 . S
C232 O212 1.257 . S
C232 O233 1.244 . S
O233 C232 1.244 . S
O234 C210 1.257 . S
O234 Zn213 2.019 . S
H235 C228 0.930 . S
H236 C215 0.930 . S
H237 C227 0.930 . S
Zn238 N242 2.020 . S
Zn238 O246 2.019 . S
Zn238 N248 2.119 . S
Zn238 O256 1.975 . S
C239 N240 1.334 . S
C239 N243 1.336 . S
N240 C239 1.334 . S
N240 C241 1.334 . S
C241 N240 1.334 . S
C241 N242 1.336 . S
N242 Zn238 2.020 . S
N242 C241 1.336 . S
N242 N243 1.354 . S
N243 C239 1.336 . S
N243 N242 1.354 . S
N243 Zn247 2.020 . S
C244 O245 1.244 . S
C244 O268 1.257 . S
O245 C244 1.244 . S
O246 Zn238 2.019 . S
O246 C266 1.257 . S
Zn247 N243 2.020 . S
Zn247 O254 1.975 . S
Zn247 N263 2.119 . S
Zn247 O268 2.019 . S
N248 Zn238 2.119 . S
N248 C250 1.334 . S
N248 C251 1.328 . S
C249 C250 1.391 . S
C249 N252 1.329 . S
C249 H270 0.930 . S
C250 N248 1.334 . S
C250 C249 1.391 . S
C250 H257 0.930 . S
C251 N248 1.328 . S
C251 C253 1.392 . S
C251 H258 0.930 . S
N252 C249 1.329 . S
N252 C253 1.331 . S
C253 C251 1.392 . S
C253 N252 1.331 . S
O254 Zn247 1.975 . S
O254 C255 1.252 . S
C255 O254 1.252 . S
C255 O256 1.252 . S
O256 Zn238 1.975 . S
O256 C255 1.252 . S
H257 C250 0.930 . S
H258 C251 0.930 . S
C259 C260 1.392 . S
C259 N263 1.328 . S
C259 H265 0.930 . S
C260 C259 1.392 . S
C260 N264 1.331 . S
C261 C262 1.391 . S
C261 N264 1.329 . S
C261 H271 0.930 . S
C262 C261 1.391 . S
C262 N263 1.334 . S
C262 H269 0.930 . S
N263 Zn247 2.119 . S
N263 C259 1.328 . S
N263 C262 1.334 . S
N264 C260 1.331 . S
N264 C261 1.329 . S
H265 C259 0.930 . S
C266 O246 1.257 . S
C266 O267 1.244 . S
O267 C266 1.244 . S
O268 C244 1.257 . S
O268 Zn247 2.019 . S
H269 C262 0.930 . S
H270 C249 0.930 . S
H271 C261 0.930 . S
H272 C280 0.929 . S
H273 C282 0.930 . S
H274 C284 0.930 . S
H275 C287 0.929 . S
H276 C290 0.930 . S
H277 C292 0.960 . S
H278 C292 0.960 . S
H279 C292 0.960 . S
C280 H272 0.929 . S
C280 C281 1.377 . S
C280 C282 1.384 . S
C281 C280 1.377 . S
C281 C287 1.390 . S
C282 H273 0.930 . S
C282 C280 1.384 . S
C282 C283 1.372 1_545 S
C283 C282 1.372 1_565 S
C283 C284 1.400 . S
C283 C288 1.490 . S
C284 H274 0.930 . S
C284 C283 1.400 . S
C284 C287 1.386 1_565 S
H285 C301 0.930 . S
H286 C302 0.931 . S
C287 H275 0.929 . S
C287 C281 1.390 . S
C287 C284 1.386 1_545 S
C288 C283 1.490 . S
C288 C290 1.395 . S
C288 C291 1.403 . S
H289 C295 0.930 . S
C290 H276 0.930 . S
C290 C288 1.395 . S
C290 C293 1.403 . S
C291 C288 1.403 . S
C291 C292 1.524 . S
C291 C295 1.400 . S
C292 H277 0.960 . S
C292 H278 0.960 . S
C292 H279 0.960 . S
C292 C291 1.524 . S
C293 C290 1.403 . S
C293 C294 1.392 . S
C293 C297 1.495 . S
C294 C293 1.392 . S
C294 C295 1.385 . S
C294 C296 1.478 . S
C295 H289 0.930 . S
C295 C291 1.400 . S
C295 C294 1.385 . S
C296 C294 1.478 . S
C296 C298 1.381 . S
C296 C302 1.383 . S
C297 C293 1.495 . S
C297 H303 0.959 . S
C297 H304 0.961 . S
C297 H305 0.960 . S
C298 C296 1.381 . S
C298 C299 1.394 . S
C298 H306 0.930 . S
C299 C298 1.394 . S
C299 C300 1.383 . S
C299 H307 0.929 . S
C300 C299 1.383 . S
C300 C301 1.377 . S
C301 H285 0.930 . S
C301 C300 1.377 . S
C301 C302 1.379 . S
C302 H286 0.931 . S
C302 C296 1.383 . S
C302 C301 1.379 . S
H303 C297 0.959 . S
H304 C297 0.961 . S
H305 C297 0.960 . S
H306 C298 0.930 . S
H307 C299 0.929 . S
H308 C316 0.929 . S
H309 C318 0.924 1_655 S
H310 C320 0.930 . S
H311 C323 0.929 . S
H312 C326 0.930 . S
H313 C328 0.960 . S
H314 C328 0.960 . S
H315 C328 0.960 . S
C316 H308 0.929 . S
C316 C317 1.377 . S
C316 C318 1.416 . S
C317 C316 1.377 . S
C317 C323 1.390 . S
C318 H309 0.924 1_455 S
C318 C316 1.416 . S
C318 C319 1.346 1_455 S
C319 C318 1.346 1_655 S
C319 C320 1.400 . S
C319 C324 1.490 . S
C320 H310 0.930 . S
C320 C319 1.400 . S
C320 C323 1.386 1_655 S
H321 C337 0.930 . S
H322 C338 0.931 . S
C323 H311 0.929 . S
C323 C317 1.390 . S
C323 C320 1.386 1_455 S
C324 C319 1.490 . S
C324 C326 1.395 . S
C324 C327 1.403 . S
H325 C331 0.930 . S
C326 H312 0.930 . S
C326 C324 1.395 . S
C326 C329 1.403 . S
C327 C324 1.403 . S
C327 C328 1.524 . S
C327 C331 1.400 . S
C328 H313 0.960 . S
C328 H314 0.960 . S
C328 H315 0.960 . S
C328 C327 1.524 . S
C329 C326 1.403 . S
C329 C330 1.392 . S
C329 C333 1.495 . S
C330 C329 1.392 . S
C330 C331 1.385 . S
C330 C332 1.478 . S
C331 H325 0.930 . S
C331 C327 1.400 . S
C331 C330 1.385 . S
C332 C330 1.478 . S
C332 C334 1.381 . S
C332 C338 1.383 . S
C333 C329 1.495 . S
C333 H339 0.959 . S
C333 H340 0.961 . S
C333 H341 0.960 . S
C334 C332 1.381 . S
C334 C335 1.394 . S
C334 H342 0.930 . S
C335 C334 1.394 . S
C335 C336 1.383 . S
C335 H343 0.929 . S
C336 C335 1.383 . S
C336 C337 1.377 . S
C337 H321 0.930 . S
C337 C336 1.377 . S
C337 C338 1.379 . S
C338 H322 0.931 . S
C338 C332 1.383 . S
C338 C337 1.379 . S
H339 C333 0.959 . S
H340 C333 0.961 . S
H341 C333 0.960 . S
H342 C334 0.930 . S
H343 C335 0.929 . S
H344 C352 0.929 . S
H345 C354 0.930 . S
H346 C356 0.930 . S
H347 C359 0.929 . S
H348 C362 0.930 . S
H349 C364 0.960 . S
H350 C364 0.960 . S
H351 C364 0.960 . S
C352 H344 0.929 . S
C352 C353 1.377 . S
C352 C354 1.384 . S
C353 C352 1.377 . S
C353 C359 1.390 . S
C354 H345 0.930 . S
C354 C352 1.384 . S
C354 C355 1.372 . S
C355 C354 1.372 . S
C355 C356 1.400 . S
C355 C360 1.490 . S
C356 H346 0.930 . S
C356 C355 1.400 . S
C356 C359 1.386 . S
H357 C373 0.930 . S
H358 C374 0.931 . S
C359 H347 0.929 . S
C359 C353 1.390 . S
C359 C356 1.386 . S
C360 C355 1.490 . S
C360 C362 1.395 . S
C360 C363 1.403 . S
H361 C367 0.930 . S
C362 H348 0.930 . S
C362 C360 1.395 . S
C362 C365 1.403 . S
C363 C360 1.403 . S
C363 C364 1.524 . S
C363 C367 1.400 . S
C364 H349 0.960 . S
C364 H350 0.960 . S
C364 H351 0.960 . S
C364 C363 1.524 . S
C365 C362 1.403 . S
C365 C366 1.392 . S
C365 C369 1.495 . S
C366 C365 1.392 . S
C366 C367 1.385 . S
C366 C368 1.478 . S
C367 H361 0.930 . S
C367 C363 1.400 . S
C367 C366 1.385 . S
C368 C366 1.478 . S
C368 C370 1.381 . S
C368 C374 1.383 1_545 S
C369 C365 1.495 . S
C369 H375 0.959 . S
C369 H376 0.961 . S
C369 H377 0.960 . S
C370 C368 1.381 . S
C370 C371 1.394 1_545 S
C370 H378 0.930 . S
C371 C370 1.394 1_565 S
C371 C372 1.383 . S
C371 H379 0.929 . S
C372 C371 1.383 . S
C372 C373 1.377 . S
C373 H357 0.930 . S
C373 C372 1.377 . S
C373 C374 1.379 . S
C374 H358 0.931 . S
C374 C368 1.383 1_565 S
C374 C373 1.379 . S
H375 C369 0.959 . S
H376 C369 0.961 . S
H377 C369 0.960 . S
H378 C370 0.930 . S
H379 C371 0.929 . S
H380 C388 0.929 . S
H381 C390 0.930 . S
H382 C392 0.930 . S
H383 C395 0.929 . S
H384 C398 0.930 . S
H385 C400 0.960 . S
H386 C400 0.960 . S
H387 C400 0.960 . S
C388 H380 0.929 . S
C388 C389 1.377 . S
C388 C390 1.384 1_655 S
C389 C388 1.377 . S
C389 C395 1.390 . S
C390 H381 0.930 . S
C390 C388 1.384 1_455 S
C390 C391 1.372 . S
C391 C390 1.372 . S
C391 C392 1.400 . S
C391 C396 1.490 . S
C392 H382 0.930 . S
C392 C391 1.400 . S
C392 C395 1.386 1_455 S
H393 C409 0.930 . S
H394 C410 0.931 . S
C395 H383 0.929 . S
C395 C389 1.390 . S
C395 C392 1.386 1_655 S
C396 C391 1.490 . S
C396 C398 1.395 . S
C396 C399 1.403 . S
H397 C403 0.930 . S
C398 H384 0.930 . S
C398 C396 1.395 . S
C398 C401 1.403 . S
C399 C396 1.403 . S
C399 C400 1.524 . S
C399 C403 1.400 . S
C400 H385 0.960 . S
C400 H386 0.960 . S
C400 H387 0.960 . S
C400 C399 1.524 . S
C401 C398 1.403 . S
C401 C402 1.392 . S
C401 C405 1.495 . S
C402 C401 1.392 . S
C402 C403 1.385 . S
C402 C404 1.478 . S
C403 H397 0.930 . S
C403 C399 1.400 . S
C403 C402 1.385 . S
C404 C402 1.478 . S
C404 C406 1.381 . S
C404 C410 1.383 . S
C405 C401 1.495 . S
C405 H411 0.959 . S
C405 H412 0.961 . S
C405 H413 0.960 . S
C406 C404 1.381 . S
C406 C407 1.394 . S
C406 H414 0.930 . S
C407 C406 1.394 . S
C407 C408 1.383 . S
C407 H415 0.929 . S
C408 C407 1.383 . S
C408 C409 1.377 . S
C409 H393 0.930 . S
C409 C408 1.377 . S
C409 C410 1.379 . S
C410 H394 0.931 . S
C410 C404 1.383 . S
C410 C409 1.379 . S
H411 C405 0.959 . S
H412 C405 0.961 . S
H413 C405 0.960 . S
H414 C406 0.930 . S
H415 C407 0.929 . S
H416 C424 0.929 . S
H417 C426 0.930 . S
H418 C428 0.930 . S
H419 C431 0.929 . S
H420 C434 0.930 . S
H421 C436 0.960 . S
H422 C436 0.960 . S
H423 C436 0.960 . S
C424 H416 0.929 . S
C424 C425 1.377 . S
C424 C426 1.384 . S
C425 C424 1.377 . S
C425 C431 1.390 . S
C426 H417 0.930 . S
C426 C424 1.384 . S
C426 C427 1.372 1_565 S
C427 C426 1.372 1_545 S
C427 C428 1.400 . S
C427 C432 1.490 . S
C428 H418 0.930 . S
C428 C427 1.400 . S
C428 C431 1.386 1_545 S
H429 C445 0.930 . S
H430 C446 0.931 . S
C431 H419 0.929 . S
C431 C425 1.390 . S
C431 C428 1.386 1_565 S
C432 C427 1.490 . S
C432 C434 1.395 . S
C432 C435 1.403 . S
H433 C439 0.930 . S
C434 H420 0.930 . S
C434 C432 1.395 . S
C434 C437 1.403 . S
C435 C432 1.403 . S
C435 C436 1.524 . S
C435 C439 1.400 . S
C436 H421 0.960 . S
C436 H422 0.960 . S
C436 H423 0.960 . S
C436 C435 1.524 . S
C437 C434 1.403 . S
C437 C438 1.392 . S
C437 C441 1.495 . S
C438 C437 1.392 . S
C438 C439 1.385 . S
C438 C440 1.478 . S
C439 H433 0.930 . S
C439 C435 1.400 . S
C439 C438 1.385 . S
C440 C438 1.478 . S
C440 C442 1.381 . S
C440 C446 1.383 . S
C441 C437 1.495 . S
C441 H447 0.959 . S
C441 H448 0.961 . S
C441 H449 0.960 . S
C442 C440 1.381 . S
C442 C443 1.394 . S
C442 H450 0.930 . S
C443 C442 1.394 . S
C443 C444 1.383 . S
C443 H451 0.929 . S
C444 C443 1.383 . S
C444 C445 1.377 . S
C445 H429 0.930 . S
C445 C444 1.377 . S
C445 C446 1.379 . S
C446 H430 0.931 . S
C446 C440 1.383 . S
C446 C445 1.379 . S
H447 C441 0.959 . S
H448 C441 0.961 . S
H449 C441 0.960 . S
H450 C442 0.930 . S
H451 C443 0.929 . S
H452 C460 0.929 . S
H453 C462 0.930 . S
H454 C464 0.930 . S
H455 C467 0.929 . S
H456 C470 0.930 . S
H457 C472 0.960 . S
H458 C472 0.960 . S
H459 C472 0.960 . S
C460 H452 0.929 . S
C460 C461 1.377 . S
C460 C462 1.384 . S
C461 C460 1.377 . S
C461 C467 1.390 . S
C462 H453 0.930 . S
C462 C460 1.384 . S
C462 C463 1.372 . S
C463 C462 1.372 . S
C463 C464 1.400 . S
C463 C468 1.490 . S
C464 H454 0.930 . S
C464 C463 1.400 . S
C464 C467 1.386 . S
H465 C481 0.930 . S
H466 C482 0.931 . S
C467 H455 0.929 . S
C467 C461 1.390 . S
C467 C464 1.386 . S
C468 C463 1.490 . S
C468 C470 1.395 . S
C468 C471 1.403 . S
H469 C475 0.930 . S
C470 H456 0.930 . S
C470 C468 1.395 . S
C470 C473 1.403 . S
C471 C468 1.403 . S
C471 C472 1.524 . S
C471 C475 1.400 . S
C472 H457 0.960 . S
C472 H458 0.960 . S
C472 H459 0.960 . S
C472 C471 1.524 . S
C473 C470 1.403 . S
C473 C474 1.392 . S
C473 C477 1.495 . S
C474 C473 1.392 . S
C474 C475 1.385 . S
C474 C476 1.478 . S
C475 H469 0.930 . S
C475 C471 1.400 . S
C475 C474 1.385 . S
C476 C474 1.478 . S
C476 C478 1.381 . S
C476 C482 1.383 . S
C477 C473 1.495 . S
C477 H483 0.959 . S
C477 H484 0.961 . S
C477 H485 0.960 . S
C478 C476 1.381 . S
C478 C479 1.394 1_455 S
C478 H486 0.930 . S
C479 C478 1.394 1_655 S
C479 C480 1.383 . S
C479 H487 0.929 . S
C480 C479 1.383 . S
C480 C481 1.377 . S
C481 H465 0.930 . S
C481 C480 1.377 . S
C481 C482 1.379 1_655 S
C482 H466 0.931 . S
C482 C476 1.383 . S
C482 C481 1.379 1_455 S
H483 C477 0.959 . S
H484 C477 0.961 . S
H485 C477 0.960 . S
H486 C478 0.930 . S
H487 C479 0.929 . S
H488 C496 0.929 . S
H489 C498 0.930 1_565 S
H490 C500 0.930 . S
H491 C503 0.929 . S
H492 C506 0.930 . S
H493 C508 0.960 . S
H494 C508 0.960 . S
H495 C508 0.960 . S
C496 H488 0.929 . S
C496 C497 1.377 . S
C496 C498 1.384 . S
C497 C496 1.377 . S
C497 C503 1.390 . S
C498 H489 0.930 1_545 S
C498 C496 1.384 . S
C498 C499 1.372 1_545 S
C499 C498 1.372 1_565 S
C499 C500 1.400 1_565 S
C499 C504 1.490 . S
C500 H490 0.930 . S
C500 C499 1.400 1_545 S
C500 C503 1.386 . S
H501 C517 0.930 . S
H502 C518 0.931 . S
C503 H491 0.929 . S
C503 C497 1.390 . S
C503 C500 1.386 . S
C504 C499 1.490 . S
C504 C506 1.395 . S
C504 C507 1.403 . S
H505 C511 0.930 . S
C506 H492 0.930 . S
C506 C504 1.395 . S
C506 C509 1.403 . S
C507 C504 1.403 . S
C507 C508 1.524 . S
C507 C511 1.400 . S
C508 H493 0.960 . S
C508 H494 0.960 . S
C508 H495 0.960 . S
C508 C507 1.524 . S
C509 C506 1.403 . S
C509 C510 1.392 . S
C509 C513 1.495 . S
C510 C509 1.392 . S
C510 C511 1.385 . S
C510 C512 1.478 . S
C511 H505 0.930 . S
C511 C507 1.400 . S
C511 C510 1.385 . S
C512 C510 1.478 . S
C512 C514 1.381 . S
C512 C518 1.383 . S
C513 C509 1.495 . S
C513 H519 0.959 . S
C513 H520 0.961 . S
C513 H521 0.960 . S
C514 C512 1.381 . S
C514 C515 1.394 . S
C514 H522 0.930 . S
C515 C514 1.394 . S
C515 C516 1.383 . S
C515 H523 0.929 . S
C516 C515 1.383 . S
C516 C517 1.377 . S
C517 H501 0.930 . S
C517 C516 1.377 . S
C517 C518 1.379 . S
C518 H502 0.931 . S
C518 C512 1.383 . S
C518 C517 1.379 . S
H519 C513 0.959 . S
H520 C513 0.961 . S
H521 C513 0.960 . S
H522 C514 0.930 . S
H523 C515 0.929 . S
H524 C532 0.929 . S
H525 C534 0.930 . S
H526 C536 0.930 . S
H527 C539 0.929 . S
H528 C542 0.930 . S
H529 C544 0.960 . S
H530 C544 0.960 . S
H531 C544 0.960 . S
C532 H524 0.929 . S
C532 C533 1.377 . S
C532 C534 1.384 . S
C533 C532 1.377 . S
C533 C539 1.390 . S
C534 H525 0.930 . S
C534 C532 1.384 . S
C534 C535 1.372 . S
C535 C534 1.372 . S
C535 C536 1.400 . S
C535 C540 1.490 . S
C536 H526 0.930 . S
C536 C535 1.400 . S
C536 C539 1.386 . S
H537 C553 0.930 . S
H538 C554 0.931 . S
C539 H527 0.929 . S
C539 C533 1.390 . S
C539 C536 1.386 . S
C540 C535 1.490 . S
C540 C542 1.395 . S
C540 C543 1.403 . S
H541 C547 0.930 . S
C542 H528 0.930 . S
C542 C540 1.395 . S
C542 C545 1.403 . S
C543 C540 1.403 . S
C543 C544 1.524 . S
C543 C547 1.400 . S
C544 H529 0.960 . S
C544 H530 0.960 . S
C544 H531 0.960 . S
C544 C543 1.524 . S
C545 C542 1.403 . S
C545 C546 1.392 . S
C545 C549 1.495 . S
C546 C545 1.392 . S
C546 C547 1.385 . S
C546 C548 1.478 . S
C547 H541 0.930 . S
C547 C543 1.400 . S
C547 C546 1.385 . S
C548 C546 1.478 . S
C548 C550 1.381 . S
C548 C554 1.383 . S
C549 C545 1.495 . S
C549 H555 0.959 . S
C549 H556 0.961 . S
C549 H557 0.960 . S
C550 C548 1.381 . S
C550 C551 1.394 1_655 S
C550 H558 0.930 . S
C551 C550 1.394 1_455 S
C551 C552 1.383 . S
C551 H559 0.929 . S
C552 C551 1.383 . S
C552 C553 1.377 . S
C553 H537 0.930 . S
C553 C552 1.377 . S
C553 C554 1.379 1_455 S
C554 H538 0.931 . S
C554 C548 1.383 . S
C554 C553 1.379 1_655 S
H555 C549 0.959 . S
H556 C549 0.961 . S
H557 C549 0.960 . S
H558 C550 0.930 . S
H559 C551 0.929 . S
H560 C568 0.929 . S
H561 C570 0.930 . S
H562 C572 0.930 . S
H563 C575 0.929 . S
H564 C578 0.930 . S
H565 C580 0.960 . S
H566 C580 0.960 . S
H567 C580 0.960 . S
C568 H560 0.929 . S
C568 C569 1.377 . S
C568 C570 1.384 . S
C569 C568 1.377 . S
C569 C575 1.390 . S
C570 H561 0.930 . S
C570 C568 1.384 . S
C570 C571 1.372 . S
C571 C570 1.372 . S
C571 C572 1.400 . S
C571 C576 1.490 . S
C572 H562 0.930 . S
C572 C571 1.400 . S
C572 C575 1.386 . S
H573 C589 0.930 . S
H574 C590 0.931 . S
C575 H563 0.929 . S
C575 C569 1.390 . S
C575 C572 1.386 . S
C576 C571 1.490 . S
C576 C578 1.395 . S
C576 C579 1.403 . S
H577 C583 0.930 . S
C578 H564 0.930 . S
C578 C576 1.395 . S
C578 C581 1.403 . S
C579 C576 1.403 . S
C579 C580 1.524 . S
C579 C583 1.400 . S
C580 H565 0.960 . S
C580 H566 0.960 . S
C580 H567 0.960 . S
C580 C579 1.524 . S
C581 C578 1.403 . S
C581 C582 1.392 . S
C581 C585 1.495 . S
C582 C581 1.392 . S
C582 C583 1.385 . S
C582 C584 1.478 . S
C583 H577 0.930 . S
C583 C579 1.400 . S
C583 C582 1.385 . S
C584 C582 1.478 . S
C584 C586 1.381 . S
C584 C590 1.383 . S
C585 C581 1.495 . S
C585 H591 0.959 . S
C585 H592 0.961 . S
C585 H593 0.960 . S
C586 C584 1.381 . S
C586 C587 1.394 . S
C586 H594 0.930 . S
C587 C586 1.394 . S
C587 C588 1.383 . S
C587 H595 0.929 . S
C588 C587 1.383 . S
C588 C589 1.377 . S
C589 H573 0.930 . S
C589 C588 1.377 . S
C589 C590 1.379 . S
C590 H574 0.931 . S
C590 C584 1.383 . S
C590 C589 1.379 . S
H591 C585 0.959 . S
H592 C585 0.961 . S
H593 C585 0.960 . S
H594 C586 0.930 . S
H595 C587 0.929 . S
H596 C604 0.929 . S
H597 C606 0.930 . S
H598 C608 0.930 . S
H599 C611 0.929 . S
H600 C614 0.930 . S
H601 C616 0.960 . S
H602 C616 0.960 . S
H603 C616 0.960 . S
C604 H596 0.929 . S
C604 C605 1.377 . S
C604 C606 1.384 . S
C605 C604 1.377 . S
C605 C611 1.390 . S
C606 H597 0.930 . S
C606 C604 1.384 . S
C606 C607 1.372 . S
C607 C606 1.372 . S
C607 C608 1.400 . S
C607 C612 1.490 . S
C608 H598 0.930 . S
C608 C607 1.400 . S
C608 C611 1.386 . S
H609 C625 0.930 . S
H610 C626 0.931 . S
C611 H599 0.929 . S
C611 C605 1.390 . S
C611 C608 1.386 . S
C612 C607 1.490 . S
C612 C614 1.395 . S
C612 C615 1.403 . S
H613 C619 0.930 . S
C614 H600 0.930 . S
C614 C612 1.395 . S
C614 C617 1.403 . S
C615 C612 1.403 . S
C615 C616 1.524 . S
C615 C619 1.400 . S
C616 H601 0.960 . S
C616 H602 0.960 . S
C616 H603 0.960 . S
C616 C615 1.524 . S
C617 C614 1.403 . S
C617 C618 1.392 . S
C617 C621 1.495 . S
C618 C617 1.392 . S
C618 C619 1.385 . S
C618 C620 1.478 . S
C619 H613 0.930 . S
C619 C615 1.400 . S
C619 C618 1.385 . S
C620 C618 1.478 . S
C620 C622 1.381 . S
C620 C626 1.383 . S
C621 C617 1.495 . S
C621 H627 0.959 . S
C621 H628 0.961 . S
C621 H629 0.960 . S
C622 C620 1.381 . S
C622 C623 1.394 . S
C622 H630 0.930 . S
C623 C622 1.394 . S
C623 C624 1.383 . S
C623 H631 0.929 . S
C624 C623 1.383 . S
C624 C625 1.377 . S
C625 H609 0.930 . S
C625 C624 1.377 . S
C625 C626 1.379 . S
C626 H610 0.931 . S
C626 C620 1.383 . S
C626 C625 1.379 . S
H627 C621 0.959 . S
H628 C621 0.961 . S
H629 C621 0.960 . S
H630 C622 0.930 . S
H631 C623 0.929 . S
H632 C640 0.929 . S
H633 C642 0.930 . S
H634 C644 0.930 . S
H635 C647 0.929 . S
H636 C650 0.930 . S
H637 C652 0.960 . S
H638 C652 0.960 . S
H639 C652 0.960 . S
C640 H632 0.929 . S
C640 C641 1.377 . S
C640 C642 1.384 . S
C641 C640 1.377 . S
C641 C647 1.390 . S
C642 H633 0.930 . S
C642 C640 1.384 . S
C642 C643 1.372 . S
C643 C642 1.372 . S
C643 C644 1.400 . S
C643 C648 1.490 . S
C644 H634 0.930 . S
C644 C643 1.400 . S
C644 C647 1.386 . S
H645 C661 0.930 . S
H646 C662 0.931 . S
C647 H635 0.929 . S
C647 C641 1.390 . S
C647 C644 1.386 . S
C648 C643 1.490 . S
C648 C650 1.395 . S
C648 C651 1.403 . S
H649 C655 0.930 . S
C650 H636 0.930 . S
C650 C648 1.395 . S
C650 C653 1.403 . S
C651 C648 1.403 . S
C651 C652 1.524 . S
C651 C655 1.400 . S
C652 H637 0.960 . S
C652 H638 0.960 . S
C652 H639 0.960 . S
C652 C651 1.524 . S
C653 C650 1.403 . S
C653 C654 1.392 . S
C653 C657 1.495 . S
C654 C653 1.392 . S
C654 C655 1.385 . S
C654 C656 1.478 . S
C655 H649 0.930 . S
C655 C651 1.400 . S
C655 C654 1.385 . S
C656 C654 1.478 . S
C656 C658 1.381 . S
C656 C662 1.383 . S
C657 C653 1.495 . S
C657 H663 0.959 . S
C657 H664 0.961 . S
C657 H665 0.960 . S
C658 C656 1.381 . S
C658 C659 1.394 . S
C658 H666 0.930 . S
C659 C658 1.394 . S
C659 C660 1.383 . S
C659 H667 0.929 . S
C660 C659 1.383 . S
C660 C661 1.377 . S
C661 H645 0.930 . S
C661 C660 1.377 . S
C661 C662 1.379 . S
C662 H646 0.931 . S
C662 C656 1.383 . S
C662 C661 1.379 . S
H663 C657 0.959 . S
H664 C657 0.961 . S
H665 C657 0.960 . S
H666 C658 0.930 . S
H667 C659 0.929 . S
H668 C676 0.929 . S
H669 C678 0.930 . S
H670 C680 0.930 . S
H671 C683 0.929 . S
H672 C686 0.930 . S
H673 C688 0.960 . S
H674 C688 0.960 . S
H675 C688 0.960 . S
C676 H668 0.929 . S
C676 C677 1.377 . S
C676 C678 1.384 . S
C677 C676 1.377 . S
C677 C683 1.390 . S
C678 H669 0.930 . S
C678 C676 1.384 . S
C678 C679 1.372 . S
C679 C678 1.372 . S
C679 C680 1.400 . S
C679 C684 1.490 . S
C680 H670 0.930 . S
C680 C679 1.400 . S
C680 C683 1.386 . S
H681 C697 0.930 . S
H682 C698 0.931 . S
C683 H671 0.929 . S
C683 C677 1.390 . S
C683 C680 1.386 . S
C684 C679 1.490 . S
C684 C686 1.395 . S
C684 C687 1.403 . S
H685 C691 0.930 . S
C686 H672 0.930 . S
C686 C684 1.395 . S
C686 C689 1.403 . S
C687 C684 1.403 . S
C687 C688 1.524 . S
C687 C691 1.400 . S
C688 H673 0.960 . S
C688 H674 0.960 . S
C688 H675 0.960 . S
C688 C687 1.524 . S
C689 C686 1.403 . S
C689 C690 1.392 . S
C689 C693 1.495 . S
C690 C689 1.392 . S
C690 C691 1.385 . S
C690 C692 1.478 . S
C691 H685 0.930 . S
C691 C687 1.400 . S
C691 C690 1.385 . S
C692 C690 1.478 . S
C692 C694 1.381 . S
C692 C698 1.383 . S
C693 C689 1.495 . S
C693 H699 0.959 . S
C693 H700 0.961 . S
C693 H701 0.960 . S
C694 C692 1.381 . S
C694 C695 1.394 . S
C694 H702 0.930 . S
C695 C694 1.394 . S
C695 C696 1.383 . S
C695 H703 0.929 . S
C696 C695 1.383 . S
C696 C697 1.377 . S
C697 H681 0.930 . S
C697 C696 1.377 . S
C697 C698 1.379 . S
C698 H682 0.931 . S
C698 C692 1.383 . S
C698 C697 1.379 . S
H699 C693 0.959 . S
H700 C693 0.961 . S
H701 C693 0.960 . S
H702 C694 0.930 . S
H703 C695 0.929 . S
H704 C712 0.929 . S
H705 C714 0.930 . S
H706 C716 0.930 . S
H707 C719 0.929 . S
H708 C722 0.930 . S
H709 C724 0.960 . S
H710 C724 0.960 . S
H711 C724 0.960 . S
C712 H704 0.929 . S
C712 C713 1.377 . S
C712 C714 1.384 . S
C713 C712 1.377 . S
C713 C719 1.390 . S
C714 H705 0.930 . S
C714 C712 1.384 . S
C714 C715 1.372 . S
C715 C714 1.372 . S
C715 C716 1.400 . S
C715 C720 1.490 . S
C716 H706 0.930 . S
C716 C715 1.400 . S
C716 C719 1.386 . S
H717 C733 0.930 . S
H718 C734 0.931 . S
C719 H707 0.929 . S
C719 C713 1.390 . S
C719 C716 1.386 . S
C720 C715 1.490 . S
C720 C722 1.395 . S
C720 C723 1.403 . S
H721 C727 0.930 . S
C722 H708 0.930 . S
C722 C720 1.395 . S
C722 C725 1.403 . S
C723 C720 1.403 . S
C723 C724 1.524 . S
C723 C727 1.400 . S
C724 H709 0.960 . S
C724 H710 0.960 . S
C724 H711 0.960 . S
C724 C723 1.524 . S
C725 C722 1.403 . S
C725 C726 1.392 . S
C725 C729 1.495 . S
C726 C725 1.392 . S
C726 C727 1.385 . S
C726 C728 1.478 . S
C727 H721 0.930 . S
C727 C723 1.400 . S
C727 C726 1.385 . S
C728 C726 1.478 . S
C728 C730 1.381 . S
C728 C734 1.383 . S
C729 C725 1.495 . S
C729 H735 0.959 . S
C729 H736 0.961 . S
C729 H737 0.960 . S
C730 C728 1.381 . S
C730 C731 1.394 . S
C730 H738 0.930 . S
C731 C730 1.394 . S
C731 C732 1.383 . S
C731 H739 0.929 . S
C732 C731 1.383 . S
C732 C733 1.377 . S
C733 H717 0.930 . S
C733 C732 1.377 . S
C733 C734 1.379 . S
C734 H718 0.931 . S
C734 C728 1.383 . S
C734 C733 1.379 . S
H735 C729 0.959 . S
H736 C729 0.961 . S
H737 C729 0.960 . S
H738 C730 0.930 . S
H739 C731 0.929 . S
H740 C748 0.929 . S
H741 C750 0.930 . S
H742 C752 0.930 . S
H743 C755 0.929 . S
H744 C758 0.930 . S
H745 C760 0.960 . S
H746 C760 0.960 . S
H747 C760 0.960 . S
C748 H740 0.929 . S
C748 C749 1.377 . S
C748 C750 1.384 . S
C749 C748 1.377 . S
C749 C755 1.390 . S
C750 H741 0.930 . S
C750 C748 1.384 . S
C750 C751 1.372 . S
C751 C750 1.372 . S
C751 C752 1.400 . S
C751 C756 1.490 . S
C752 H742 0.930 . S
C752 C751 1.400 . S
C752 C755 1.386 . S
H753 C769 0.930 . S
H754 C770 0.931 . S
C755 H743 0.929 . S
C755 C749 1.390 . S
C755 C752 1.386 . S
C756 C751 1.490 . S
C756 C758 1.395 . S
C756 C759 1.403 . S
H757 C763 0.930 . S
C758 H744 0.930 . S
C758 C756 1.395 . S
C758 C761 1.403 . S
C759 C756 1.403 . S
C759 C760 1.524 . S
C759 C763 1.400 . S
C760 H745 0.960 . S
C760 H746 0.960 . S
C760 H747 0.960 . S
C760 C759 1.524 . S
C761 C758 1.403 . S
C761 C762 1.392 . S
C761 C765 1.495 . S
C762 C761 1.392 . S
C762 C763 1.385 . S
C762 C764 1.478 . S
C763 H757 0.930 . S
C763 C759 1.400 . S
C763 C762 1.385 . S
C764 C762 1.478 . S
C764 C766 1.381 . S
C764 C770 1.383 . S
C765 C761 1.495 . S
C765 H771 0.959 . S
C765 H772 0.961 . S
C765 H773 0.960 . S
C766 C764 1.381 . S
C766 C767 1.394 . S
C766 H774 0.930 . S
C767 C766 1.394 . S
C767 C768 1.383 . S
C767 H775 0.929 . S
C768 C767 1.383 . S
C768 C769 1.377 . S
C769 H753 0.930 . S
C769 C768 1.377 . S
C769 C770 1.379 . S
C770 H754 0.931 . S
C770 C764 1.383 . S
C770 C769 1.379 . S
H771 C765 0.959 . S
H772 C765 0.961 . S
H773 C765 0.960 . S
H774 C766 0.930 . S
H775 C767 0.929 . S
H776 C784 0.929 . S
H777 C786 0.930 . S
H778 C788 0.930 . S
H779 C791 0.929 . S
H780 C794 0.930 . S
H781 C796 0.960 . S
H782 C796 0.960 . S
H783 C796 0.960 . S
C784 H776 0.929 . S
C784 C785 1.377 . S
C784 C786 1.384 . S
C785 C784 1.377 . S
C785 C791 1.390 . S
C786 H777 0.930 . S
C786 C784 1.384 . S
C786 C787 1.372 . S
C787 C786 1.372 . S
C787 C788 1.400 . S
C787 C792 1.490 . S
C788 H778 0.930 . S
C788 C787 1.400 . S
C788 C791 1.386 . S
H789 C805 0.930 . S
H790 C806 0.931 . S
C791 H779 0.929 . S
C791 C785 1.390 . S
C791 C788 1.386 . S
C792 C787 1.490 . S
C792 C794 1.395 . S
C792 C795 1.403 . S
H793 C799 0.930 . S
C794 H780 0.930 . S
C794 C792 1.395 . S
C794 C797 1.403 . S
C795 C792 1.403 . S
C795 C796 1.524 . S
C795 C799 1.400 . S
C796 H781 0.960 . S
C796 H782 0.960 . S
C796 H783 0.960 . S
C796 C795 1.524 . S
C797 C794 1.403 . S
C797 C798 1.392 . S
C797 C801 1.495 . S
C798 C797 1.392 . S
C798 C799 1.385 . S
C798 C800 1.478 . S
C799 H793 0.930 . S
C799 C795 1.400 . S
C799 C798 1.385 . S
C800 C798 1.478 . S
C800 C802 1.381 . S
C800 C806 1.383 . S
C801 C797 1.495 . S
C801 H807 0.959 . S
C801 H808 0.961 . S
C801 H809 0.960 . S
C802 C800 1.381 . S
C802 C803 1.394 . S
C802 H810 0.930 . S
C803 C802 1.394 . S
C803 C804 1.383 . S
C803 H811 0.929 . S
C804 C803 1.383 . S
C804 C805 1.377 . S
C805 H789 0.930 . S
C805 C804 1.377 . S
C805 C806 1.379 . S
C806 H790 0.931 . S
C806 C800 1.383 . S
C806 C805 1.379 . S
H807 C801 0.959 . S
H808 C801 0.961 . S
H809 C801 0.960 . S
H810 C802 0.930 . S
H811 C803 0.929 . S
H812 C820 0.929 . S
H813 C822 0.930 . S
H814 C824 0.930 . S
H815 C827 0.929 . S
H816 C830 0.930 . S
H817 C832 0.960 . S
H818 C832 0.960 . S
H819 C832 0.960 . S
C820 H812 0.929 . S
C820 C821 1.377 . S
C820 C822 1.384 . S
C821 C820 1.377 . S
C821 C827 1.390 . S
C822 H813 0.930 . S
C822 C820 1.384 . S
C822 C823 1.372 . S
C823 C822 1.372 . S
C823 C824 1.400 . S
C823 C828 1.490 . S
C824 H814 0.930 . S
C824 C823 1.400 . S
C824 C827 1.386 . S
H825 C841 0.930 . S
H826 C842 0.931 . S
C827 H815 0.929 . S
C827 C821 1.390 . S
C827 C824 1.386 . S
C828 C823 1.490 . S
C828 C830 1.395 . S
C828 C831 1.403 . S
H829 C835 0.930 . S
C830 H816 0.930 . S
C830 C828 1.395 . S
C830 C833 1.403 . S
C831 C828 1.403 . S
C831 C832 1.524 . S
C831 C835 1.400 . S
C832 H817 0.960 . S
C832 H818 0.960 . S
C832 H819 0.960 . S
C832 C831 1.524 . S
C833 C830 1.403 . S
C833 C834 1.392 . S
C833 C837 1.495 . S
C834 C833 1.392 . S
C834 C835 1.385 . S
C834 C836 1.478 . S
C835 H829 0.930 . S
C835 C831 1.400 . S
C835 C834 1.385 . S
C836 C834 1.478 . S
C836 C838 1.381 . S
C836 C842 1.383 . S
C837 C833 1.495 . S
C837 H843 0.959 . S
C837 H844 0.961 . S
C837 H845 0.960 . S
C838 C836 1.381 . S
C838 C839 1.394 . S
C838 H846 0.930 . S
C839 C838 1.394 . S
C839 C840 1.383 . S
C839 H847 0.929 . S
C840 C839 1.383 . S
C840 C841 1.377 . S
C841 H825 0.930 . S
C841 C840 1.377 . S
C841 C842 1.379 . S
C842 H826 0.931 . S
C842 C836 1.383 . S
C842 C841 1.379 . S
H843 C837 0.959 . S
H844 C837 0.961 . S
H845 C837 0.960 . S
H846 C838 0.930 . S
H847 C839 0.929 . S
H848 C856 0.929 . S
H849 C858 0.930 . S
H850 C860 0.930 . S
H851 C863 0.929 . S
H852 C866 0.930 . S
H853 C868 0.960 1_655 S
H854 C868 0.960 . S
H855 C868 0.960 . S
C856 H848 0.929 . S
C856 C857 1.377 . S
C856 C858 1.384 . S
C857 C856 1.377 . S
C857 C863 1.390 . S
C858 H849 0.930 . S
C858 C856 1.384 . S
C858 C859 1.372 . S
C859 C858 1.372 . S
C859 C860 1.400 . S
C859 C864 1.490 . S
C860 H850 0.930 . S
C860 C859 1.400 . S
C860 C863 1.386 . S
H861 C877 0.930 . S
H862 C878 0.931 . S
C863 H851 0.929 . S
C863 C857 1.390 . S
C863 C860 1.386 . S
C864 C859 1.490 . S
C864 C866 1.395 . S
C864 C867 1.403 . S
H865 C871 0.930 . S
C866 H852 0.930 . S
C866 C864 1.395 . S
C866 C869 1.393 1_445 S
C867 C864 1.403 . S
C867 C868 1.524 . S
C867 C871 1.400 1_445 S
C868 H853 0.960 1_455 S
C868 H854 0.960 . S
C868 H855 0.960 . S
C868 C867 1.524 . S
C869 C866 1.393 1_665 S
C869 C870 1.402 . S
C869 C873 1.496 . S
C870 C869 1.402 . S
C870 C871 1.385 . S
C870 C872 1.478 . S
C871 H865 0.930 . S
C871 C867 1.400 1_665 S
C871 C870 1.385 . S
C872 C870 1.478 . S
C872 C874 1.381 . S
C872 C878 1.383 . S
C873 C869 1.496 . S
C873 H879 0.959 1_655 S
C873 H880 0.961 . S
C873 H881 0.960 1_655 S
C874 C872 1.381 . S
C874 C875 1.394 . S
C874 H882 0.930 . S
C875 C874 1.394 . S
C875 C876 1.383 . S
C875 H883 0.929 . S
C876 C875 1.383 . S
C876 C877 1.377 . S
C877 H861 0.930 . S
C877 C876 1.377 . S
C877 C878 1.379 . S
C878 H862 0.931 . S
C878 C872 1.383 . S
C878 C877 1.379 . S
H879 C873 0.959 1_455 S
H880 C873 0.961 . S
H881 C873 0.960 1_455 S
H882 C874 0.930 . S
H883 C875 0.929 . S
H884 C892 0.929 . S
H885 C894 0.930 . S
H886 C896 0.930 . S
H887 C899 0.929 . S
H888 C902 0.930 . S
H889 C904 0.960 . S
H890 C904 0.960 . S
H891 C904 0.960 . S
C892 H884 0.929 . S
C892 C893 1.377 . S
C892 C894 1.384 . S
C893 C892 1.377 . S
C893 C899 1.390 . S
C894 H885 0.930 . S
C894 C892 1.384 . S
C894 C895 1.372 . S
C895 C894 1.372 . S
C895 C896 1.400 . S
C895 C900 1.490 . S
C896 H886 0.930 . S
C896 C895 1.400 . S
C896 C899 1.386 . S
H897 C913 0.930 . S
H898 C914 0.931 . S
C899 H887 0.929 . S
C899 C893 1.390 . S
C899 C896 1.386 . S
C900 C895 1.490 . S
C900 C902 1.395 1_545 S
C900 C903 1.403 1_655 S
H901 C907 0.930 . S
C902 H888 0.930 . S
C902 C900 1.395 1_565 S
C902 C905 1.403 . S
C903 C900 1.403 1_455 S
C903 C904 1.524 . S
C903 C907 1.400 . S
C904 H889 0.960 . S
C904 H890 0.960 . S
C904 H891 0.960 . S
C904 C903 1.524 . S
C905 C902 1.403 . S
C905 C906 1.392 1_655 S
C905 C909 1.495 . S
C906 C905 1.392 1_455 S
C906 C907 1.385 1_565 S
C906 C908 1.478 . S
C907 H901 0.930 . S
C907 C903 1.400 . S
C907 C906 1.385 1_545 S
C908 C906 1.478 . S
C908 C910 1.381 . S
C908 C914 1.383 . S
C909 C905 1.495 . S
C909 H915 0.959 . S
C909 H916 0.961 . S
C909 H917 0.960 . S
C910 C908 1.381 . S
C910 C911 1.394 . S
C910 H918 0.930 . S
C911 C910 1.394 . S
C911 C912 1.383 . S
C911 H919 0.929 . S
C912 C911 1.383 . S
C912 C913 1.377 . S
C913 H897 0.930 . S
C913 C912 1.377 . S
C913 C914 1.379 . S
C914 H898 0.931 . S
C914 C908 1.383 . S
C914 C913 1.379 . S
H915 C909 0.959 . S
H916 C909 0.961 . S
H917 C909 0.960 . S
H918 C910 0.930 . S
H919 C911 0.929 . S
H920 C928 0.929 . S
H921 C930 0.930 . S
H922 C932 0.930 . S
H923 C935 0.929 . S
H924 C938 0.930 . S
H925 C940 0.960 . S
H926 C940 0.960 . S
H927 C940 0.960 . S
C928 H920 0.929 . S
C928 C929 1.377 . S
C928 C930 1.384 . S
C929 C928 1.377 . S
C929 C935 1.390 . S
C930 H921 0.930 . S
C930 C928 1.384 . S
C930 C931 1.372 . S
C931 C930 1.372 . S
C931 C932 1.400 . S
C931 C936 1.490 . S
C932 H922 0.930 . S
C932 C931 1.400 . S
C932 C935 1.386 . S
H933 C949 0.930 . S
H934 C950 0.931 . S
C935 H923 0.929 . S
C935 C929 1.390 . S
C935 C932 1.386 . S
C936 C931 1.490 . S
C936 C938 1.395 . S
C936 C939 1.403 . S
H937 C943 0.930 . S
C938 H924 0.930 . S
C938 C936 1.395 . S
C938 C941 1.403 . S
C939 C936 1.403 . S
C939 C940 1.524 . S
C939 C943 1.400 . S
C940 H925 0.960 . S
C940 H926 0.960 . S
C940 H927 0.960 . S
C940 C939 1.524 . S
C941 C938 1.403 . S
C941 C942 1.392 . S
C941 C945 1.495 . S
C942 C941 1.392 . S
C942 C943 1.385 . S
C942 C944 1.478 . S
C943 H937 0.930 . S
C943 C939 1.400 . S
C943 C942 1.385 . S
C944 C942 1.478 . S
C944 C946 1.381 . S
C944 C950 1.383 . S
C945 C941 1.495 . S
C945 H951 0.959 . S
C945 H952 0.961 . S
C945 H953 0.960 . S
C946 C944 1.381 . S
C946 C947 1.394 . S
C946 H954 0.930 . S
C947 C946 1.394 . S
C947 C948 1.383 . S
C947 H955 0.929 . S
C948 C947 1.383 . S
C948 C949 1.377 . S
C949 H933 0.930 . S
C949 C948 1.377 . S
C949 C950 1.379 . S
C950 H934 0.931 . S
C950 C944 1.383 . S
C950 C949 1.379 . S
H951 C945 0.959 . S
H952 C945 0.961 . S
H953 C945 0.960 . S
H954 C946 0.930 . S
H955 C947 0.929 . S
H956 C964 0.929 . S
H957 C966 0.930 . S
H958 C968 0.930 . S
H959 C971 0.929 . S
H960 C974 0.930 . S
H961 C976 0.960 . S
H962 C976 0.960 . S
H963 C976 0.960 . S
C964 H956 0.929 . S
C964 C965 1.377 . S
C964 C966 1.384 . S
C965 C964 1.377 . S
C965 C971 1.390 . S
C966 H957 0.930 . S
C966 C964 1.384 . S
C966 C967 1.372 . S
C967 C966 1.372 . S
C967 C968 1.400 . S
C967 C972 1.490 . S
C968 H958 0.930 . S
C968 C967 1.400 . S
C968 C971 1.386 . S
H969 C985 0.930 . S
H970 C986 0.931 . S
C971 H959 0.929 . S
C971 C965 1.390 . S
C971 C968 1.386 . S
C972 C967 1.490 . S
C972 C974 1.395 . S
C972 C975 1.403 . S
H973 C979 0.930 . S
C974 H960 0.930 . S
C974 C972 1.395 . S
C974 C977 1.403 . S
C975 C972 1.403 . S
C975 C976 1.524 . S
C975 C979 1.400 . S
C976 H961 0.960 . S
C976 H962 0.960 . S
C976 H963 0.960 . S
C976 C975 1.524 . S
C977 C974 1.403 . S
C977 C978 1.392 . S
C977 C981 1.495 . S
C978 C977 1.392 . S
C978 C979 1.385 . S
C978 C980 1.478 . S
C979 H973 0.930 . S
C979 C975 1.400 . S
C979 C978 1.385 . S
C980 C978 1.478 . S
C980 C982 1.381 . S
C980 C986 1.383 . S
C981 C977 1.495 . S
C981 H987 0.959 . S
C981 H988 0.961 . S
C981 H989 0.960 . S
C982 C980 1.381 . S
C982 C983 1.394 . S
C982 H990 0.930 . S
C983 C982 1.394 . S
C983 C984 1.383 . S
C983 H991 0.929 . S
C984 C983 1.383 . S
C984 C985 1.377 . S
C985 H969 0.930 . S
C985 C984 1.377 . S
C985 C986 1.379 . S
C986 H970 0.931 . S
C986 C980 1.383 . S
C986 C985 1.379 . S
H987 C981 0.959 . S
H988 C981 0.961 . S
H989 C981 0.960 . S
H990 C982 0.930 . S
H991 C983 0.929 . S
H992 C1000 0.929 . S
H993 C1002 0.930 . S
H994 C1004 0.930 . S
H995 C1007 0.929 . S
H996 C1010 0.930 . S
H997 C1012 0.960 1_556 S
H998 C1012 0.960 . S
H999 C1012 0.960 . S
C1000 H992 0.929 . S
C1000 C1001 1.377 . S
C1000 C1002 1.384 . S
C1001 C1000 1.377 . S
C1001 C1007 1.390 . S
C1002 H993 0.930 . S
C1002 C1000 1.384 . S
C1002 C1003 1.372 . S
C1003 C1002 1.372 . S
C1003 C1004 1.400 . S
C1003 C1008 1.490 . S
C1004 H994 0.930 . S
C1004 C1003 1.400 . S
C1004 C1007 1.386 . S
H1005 C1021 0.930 . S
H1006 C1022 0.931 . S
C1007 H995 0.929 . S
C1007 C1001 1.390 . S
C1007 C1004 1.386 . S
C1008 C1003 1.490 . S
C1008 C1010 1.395 . S
C1008 C1011 1.403 . S
H1009 C1015 0.930 . S
C1010 H996 0.930 . S
C1010 C1008 1.395 . S
C1010 C1013 1.403 1_544 S
C1011 C1008 1.403 . S
C1011 C1012 1.524 . S
C1011 C1015 1.400 1_544 S
C1012 H997 0.960 1_554 S
C1012 H998 0.960 . S
C1012 H999 0.960 . S
C1012 C1011 1.524 . S
C1013 C1010 1.403 1_566 S
C1013 C1014 1.392 . S
C1013 C1017 1.495 . S
C1014 C1013 1.392 . S
C1014 C1015 1.385 . S
C1014 C1016 1.478 . S
C1015 H1009 0.930 . S
C1015 C1011 1.400 1_566 S
C1015 C1014 1.385 . S
C1016 C1014 1.478 . S
C1016 C1018 1.381 . S
C1016 C1022 1.383 . S
C1017 C1013 1.495 . S
C1017 H1023 0.959 1_556 S
C1017 H1024 0.961 . S
C1017 H1025 0.960 . S
C1018 C1016 1.381 . S
C1018 C1019 1.394 . S
C1018 H1026 0.930 . S
C1019 C1018 1.394 . S
C1019 C1020 1.383 . S
C1019 H1027 0.929 . S
C1020 C1019 1.383 . S
C1020 C1021 1.377 . S
C1021 H1005 0.930 . S
C1021 C1020 1.377 . S
C1021 C1022 1.379 . S
C1022 H1006 0.931 . S
C1022 C1016 1.383 . S
C1022 C1021 1.379 . S
H1023 C1017 0.959 1_554 S
H1024 C1017 0.961 . S
H1025 C1017 0.960 . S
H1026 C1018 0.930 . S
H1027 C1019 0.929 . S
H1028 C1036 0.929 . S
H1029 C1038 0.930 . S
H1030 C1040 0.930 . S
H1031 C1043 0.929 . S
H1032 C1046 0.930 . S
H1033 C1048 0.960 . S
H1034 C1048 0.960 . S
H1035 C1048 0.960 . S
C1036 H1028 0.929 . S
C1036 C1037 1.377 . S
C1036 C1038 1.384 . S
C1037 C1036 1.377 . S
C1037 C1043 1.390 . S
C1038 H1029 0.930 . S
C1038 C1036 1.384 . S
C1038 C1039 1.372 . S
C1039 C1038 1.372 . S
C1039 C1040 1.400 . S
C1039 C1044 1.490 . S
C1040 H1030 0.930 . S
C1040 C1039 1.400 . S
C1040 C1043 1.386 . S
H1041 C1057 0.930 . S
H1042 C1058 0.931 . S
C1043 H1031 0.929 . S
C1043 C1037 1.390 . S
C1043 C1040 1.386 . S
C1044 C1039 1.490 . S
C1044 C1046 1.395 1_455 S
C1044 C1047 1.403 1_556 S
H1045 C1051 0.930 . S
C1046 H1032 0.930 . S
C1046 C1044 1.395 1_655 S
C1046 C1049 1.403 . S
C1047 C1044 1.403 1_554 S
C1047 C1048 1.524 . S
C1047 C1051 1.400 . S
C1048 H1033 0.960 . S
C1048 H1034 0.960 . S
C1048 H1035 0.960 . S
C1048 C1047 1.524 . S
C1049 C1046 1.403 . S
C1049 C1050 1.392 1_556 S
C1049 C1053 1.495 . S
C1050 C1049 1.392 1_554 S
C1050 C1051 1.385 1_655 S
C1050 C1052 1.478 . S
C1051 H1045 0.930 . S
C1051 C1047 1.400 . S
C1051 C1050 1.385 1_455 S
C1052 C1050 1.478 . S
C1052 C1054 1.381 . S
C1052 C1058 1.383 . S
C1053 C1049 1.495 . S
C1053 H1059 0.959 . S
C1053 H1060 0.961 . S
C1053 H1061 0.960 . S
C1054 C1052 1.381 . S
C1054 C1055 1.394 . S
C1054 H1062 0.930 . S
C1055 C1054 1.394 . S
C1055 C1056 1.383 . S
C1055 H1063 0.929 . S
C1056 C1055 1.383 . S
C1056 C1057 1.377 . S
C1057 H1041 0.930 . S
C1057 C1056 1.377 . S
C1057 C1058 1.379 . S
C1058 H1042 0.931 . S
C1058 C1052 1.383 . S
C1058 C1057 1.379 . S
H1059 C1053 0.959 . S
H1060 C1053 0.961 . S
H1061 C1053 0.960 . S
H1062 C1054 0.930 . S
H1063 C1055 0.929 . S
H1064 C1072 0.929 . S
H1065 C1074 0.930 . S
H1066 C1076 0.930 . S
H1067 C1079 0.929 . S
H1068 C1082 0.930 . S
H1069 C1084 0.960 1_565 S
H1070 C1084 0.960 . S
H1071 C1084 0.960 . S
C1072 H1064 0.929 . S
C1072 C1073 1.377 . S
C1072 C1074 1.384 . S
C1073 C1072 1.377 . S
C1073 C1079 1.390 . S
C1074 H1065 0.930 . S
C1074 C1072 1.384 . S
C1074 C1075 1.372 . S
C1075 C1074 1.372 . S
C1075 C1076 1.400 . S
C1075 C1080 1.490 . S
C1076 H1066 0.930 . S
C1076 C1075 1.400 . S
C1076 C1079 1.386 . S
H1077 C1093 0.930 . S
H1078 C1094 0.931 . S
C1079 H1067 0.929 . S
C1079 C1073 1.390 . S
C1079 C1076 1.386 . S
C1080 C1075 1.490 . S
C1080 C1082 1.395 . S
C1080 C1083 1.403 . S
H1081 C1087 0.930 . S
C1082 H1068 0.930 . S
C1082 C1080 1.395 . S
C1082 C1085 1.403 1_546 S
C1083 C1080 1.403 . S
C1083 C1084 1.524 . S
C1083 C1087 1.400 1_546 S
C1084 H1069 0.960 1_545 S
C1084 H1070 0.960 . S
C1084 H1071 0.960 . S
C1084 C1083 1.524 . S
C1085 C1082 1.403 1_564 S
C1085 C1086 1.392 . S
C1085 C1089 1.495 . S
C1086 C1085 1.392 . S
C1086 C1087 1.385 . S
C1086 C1088 1.478 . S
C1087 H1081 0.930 . S
C1087 C1083 1.400 1_564 S
C1087 C1086 1.385 . S
C1088 C1086 1.478 . S
C1088 C1090 1.381 . S
C1088 C1094 1.383 . S
C1089 C1085 1.495 . S
C1089 H1095 0.959 1_565 S
C1089 H1096 0.961 . S
C1089 H1097 0.960 . S
C1090 C1088 1.381 . S
C1090 C1091 1.394 . S
C1090 H1098 0.930 . S
C1091 C1090 1.394 . S
C1091 C1092 1.383 . S
C1091 H1099 0.929 . S
C1092 C1091 1.383 . S
C1092 C1093 1.377 . S
C1093 H1077 0.930 . S
C1093 C1092 1.377 . S
C1093 C1094 1.379 . S
C1094 H1078 0.931 . S
C1094 C1088 1.383 . S
C1094 C1093 1.379 . S
H1095 C1089 0.959 1_545 S
H1096 C1089 0.961 . S
H1097 C1089 0.960 . S
H1098 C1090 0.930 . S
H1099 C1091 0.929 . S
H1100 C1108 0.929 . S
H1101 C1110 0.930 . S
H1102 C1112 0.930 . S
H1103 C1115 0.929 . S
H1104 C1118 0.930 . S
H1105 C1120 0.960 . S
H1106 C1120 0.960 . S
H1107 C1120 0.960 . S
C1108 H1100 0.929 . S
C1108 C1109 1.377 . S
C1108 C1110 1.384 . S
C1109 C1108 1.377 . S
C1109 C1115 1.390 . S
C1110 H1101 0.930 . S
C1110 C1108 1.384 . S
C1110 C1111 1.372 . S
C1111 C1110 1.372 . S
C1111 C1112 1.400 . S
C1111 C1116 1.490 . S
C1112 H1102 0.930 . S
C1112 C1111 1.400 . S
C1112 C1115 1.386 . S
H1113 C1129 0.930 . S
H1114 C1130 0.931 . S
C1115 H1103 0.929 . S
C1115 C1109 1.390 . S
C1115 C1112 1.386 . S
C1116 C1111 1.490 . S
C1116 C1118 1.395 1_455 S
C1116 C1119 1.403 1_554 S
H1117 C1123 0.930 . S
C1118 H1104 0.930 . S
C1118 C1116 1.395 1_655 S
C1118 C1121 1.403 . S
C1119 C1116 1.403 1_556 S
C1119 C1120 1.524 . S
C1119 C1123 1.400 . S
C1120 H1105 0.960 . S
C1120 H1106 0.960 . S
C1120 H1107 0.960 . S
C1120 C1119 1.524 . S
C1121 C1118 1.403 . S
C1121 C1122 1.392 1_554 S
C1121 C1125 1.495 . S
C1122 C1121 1.392 1_556 S
C1122 C1123 1.385 1_655 S
C1122 C1124 1.478 . S
C1123 H1117 0.930 . S
C1123 C1119 1.400 . S
C1123 C1122 1.385 1_455 S
C1124 C1122 1.478 . S
C1124 C1126 1.381 . S
C1124 C1130 1.383 . S
C1125 C1121 1.495 . S
C1125 H1131 0.959 . S
C1125 H1132 0.961 . S
C1125 H1133 0.960 . S
C1126 C1124 1.381 . S
C1126 C1127 1.394 . S
C1126 H1134 0.930 . S
C1127 C1126 1.394 . S
C1127 C1128 1.383 . S
C1127 H1135 0.929 . S
C1128 C1127 1.383 . S
C1128 C1129 1.377 . S
C1129 H1113 0.930 . S
C1129 C1128 1.377 . S
C1129 C1130 1.379 . S
C1130 H1114 0.931 . S
C1130 C1124 1.383 . S
C1130 C1129 1.379 . S
H1131 C1125 0.959 . S
H1132 C1125 0.961 . S
H1133 C1125 0.960 . S
H1134 C1126 0.930 . S
H1135 C1127 0.929 . S
H1136 C1144 0.929 . S
H1137 C1146 0.930 . S
H1138 C1148 0.930 . S
H1139 C1151 0.929 . S
H1140 C1154 0.930 . S
H1141 C1156 0.960 . S
H1142 C1156 0.960 . S
H1143 C1156 0.960 . S
C1144 H1136 0.929 . S
C1144 C1145 1.377 . S
C1144 C1146 1.384 . S
C1145 C1144 1.377 . S
C1145 C1151 1.390 . S
C1146 H1137 0.930 . S
C1146 C1144 1.384 . S
C1146 C1147 1.372 . S
C1147 C1146 1.372 . S
C1147 C1148 1.400 . S
C1147 C1152 1.490 . S
C1148 H1138 0.930 . S
C1148 C1147 1.400 . S
C1148 C1151 1.386 . S
H1149 C1165 0.930 . S
H1150 C1166 0.931 . S
C1151 H1139 0.929 . S
C1151 C1145 1.390 . S
C1151 C1148 1.386 . S
C1152 C1147 1.490 . S
C1152 C1154 1.395 . S
C1152 C1155 1.403 . S
H1153 C1159 0.930 . S
C1154 H1140 0.930 . S
C1154 C1152 1.395 . S
C1154 C1157 1.403 . S
C1155 C1152 1.403 . S
C1155 C1156 1.524 . S
C1155 C1159 1.400 . S
C1156 H1141 0.960 . S
C1156 H1142 0.960 . S
C1156 H1143 0.960 . S
C1156 C1155 1.524 . S
C1157 C1154 1.403 . S
C1157 C1158 1.392 . S
C1157 C1161 1.495 . S
C1158 C1157 1.392 . S
C1158 C1159 1.385 . S
C1158 C1160 1.478 . S
C1159 H1153 0.930 . S
C1159 C1155 1.400 . S
C1159 C1158 1.385 . S
C1160 C1158 1.478 . S
C1160 C1162 1.381 . S
C1160 C1166 1.383 . S
C1161 C1157 1.495 . S
C1161 H1167 0.959 . S
C1161 H1168 0.961 . S
C1161 H1169 0.960 . S
C1162 C1160 1.381 . S
C1162 C1163 1.394 . S
C1162 H1170 0.930 . S
C1163 C1162 1.394 . S
C1163 C1164 1.383 . S
C1163 H1171 0.929 . S
C1164 C1163 1.383 . S
C1164 C1165 1.377 . S
C1165 H1149 0.930 . S
C1165 C1164 1.377 . S
C1165 C1166 1.379 . S
C1166 H1150 0.931 . S
C1166 C1160 1.383 . S
C1166 C1165 1.379 . S
H1167 C1161 0.959 . S
H1168 C1161 0.961 . S
H1169 C1161 0.960 . S
H1170 C1162 0.930 . S
H1171 C1163 0.929 . S
H1172 C1180 0.929 . S
H1173 C1182 0.930 . S
H1174 C1184 0.930 . S
H1175 C1187 0.929 . S
H1176 C1190 0.930 . S
H1177 C1192 0.960 . S
H1178 C1192 0.960 . S
H1179 C1192 0.960 . S
C1180 H1172 0.929 . S
C1180 C1181 1.377 . S
C1180 C1182 1.384 . S
C1181 C1180 1.377 . S
C1181 C1187 1.390 . S
C1182 H1173 0.930 . S
C1182 C1180 1.384 . S
C1182 C1183 1.372 . S
C1183 C1182 1.372 . S
C1183 C1184 1.400 . S
C1183 C1188 1.490 . S
C1184 H1174 0.930 . S
C1184 C1183 1.400 . S
C1184 C1187 1.386 . S
H1185 C1201 0.930 . S
H1186 C1202 0.931 . S
C1187 H1175 0.929 . S
C1187 C1181 1.390 . S
C1187 C1184 1.386 . S
C1188 C1183 1.490 . S
C1188 C1190 1.395 . S
C1188 C1191 1.403 . S
H1189 C1195 0.930 . S
C1190 H1176 0.930 . S
C1190 C1188 1.395 . S
C1190 C1193 1.403 . S
C1191 C1188 1.403 . S
C1191 C1192 1.524 . S
C1191 C1195 1.400 . S
C1192 H1177 0.960 . S
C1192 H1178 0.960 . S
C1192 H1179 0.960 . S
C1192 C1191 1.524 . S
C1193 C1190 1.403 . S
C1193 C1194 1.392 . S
C1193 C1197 1.495 . S
C1194 C1193 1.392 . S
C1194 C1195 1.385 . S
C1194 C1196 1.478 . S
C1195 H1189 0.930 . S
C1195 C1191 1.400 . S
C1195 C1194 1.385 . S
C1196 C1194 1.478 . S
C1196 C1198 1.381 . S
C1196 C1202 1.383 . S
C1197 C1193 1.495 . S
C1197 H1203 0.959 . S
C1197 H1204 0.961 . S
C1197 H1205 0.960 . S
C1198 C1196 1.381 . S
C1198 C1199 1.394 . S
C1198 H1206 0.930 . S
C1199 C1198 1.394 . S
C1199 C1200 1.383 . S
C1199 H1207 0.929 . S
C1200 C1199 1.383 . S
C1200 C1201 1.377 . S
C1201 H1185 0.930 . S
C1201 C1200 1.377 . S
C1201 C1202 1.379 . S
C1202 H1186 0.931 . S
C1202 C1196 1.383 . S
C1202 C1201 1.379 . S
H1203 C1197 0.959 . S
H1204 C1197 0.961 . S
H1205 C1197 0.960 . S
H1206 C1198 0.930 . S
H1207 C1199 0.929 . S
H1208 C1216 0.929 . S
H1209 C1218 0.930 . S
H1210 C1220 0.930 . S
H1211 C1223 0.929 . S
H1212 C1226 0.930 . S
H1213 C1228 0.960 . S
H1214 C1228 0.960 . S
H1215 C1228 0.960 . S
C1216 H1208 0.929 . S
C1216 C1217 1.377 . S
C1216 C1218 1.384 . S
C1217 C1216 1.377 . S
C1217 C1223 1.390 . S
C1218 H1209 0.930 . S
C1218 C1216 1.384 . S
C1218 C1219 1.372 . S
C1219 C1218 1.372 . S
C1219 C1220 1.400 . S
C1219 C1224 1.490 . S
C1220 H1210 0.930 . S
C1220 C1219 1.400 . S
C1220 C1223 1.386 . S
H1221 C1237 0.930 . S
H1222 C1238 0.931 . S
C1223 H1211 0.929 . S
C1223 C1217 1.390 . S
C1223 C1220 1.386 . S
C1224 C1219 1.490 . S
C1224 C1226 1.395 . S
C1224 C1227 1.403 . S
H1225 C1231 0.930 . S
C1226 H1212 0.930 . S
C1226 C1224 1.395 . S
C1226 C1229 1.403 . S
C1227 C1224 1.403 . S
C1227 C1228 1.524 . S
C1227 C1231 1.400 . S
C1228 H1213 0.960 . S
C1228 H1214 0.960 . S
C1228 H1215 0.960 . S
C1228 C1227 1.524 . S
C1229 C1226 1.403 . S
C1229 C1230 1.392 . S
C1229 C1233 1.495 . S
C1230 C1229 1.392 . S
C1230 C1231 1.385 . S
C1230 C1232 1.478 . S
C1231 H1225 0.930 . S
C1231 C1227 1.400 . S
C1231 C1230 1.385 . S
C1232 C1230 1.478 . S
C1232 C1234 1.381 . S
C1232 C1238 1.383 . S
C1233 C1229 1.495 . S
C1233 H1239 0.959 . S
C1233 H1240 0.961 . S
C1233 H1241 0.960 . S
C1234 C1232 1.381 . S
C1234 C1235 1.394 . S
C1234 H1242 0.930 . S
C1235 C1234 1.394 . S
C1235 C1236 1.383 . S
C1235 H1243 0.929 . S
C1236 C1235 1.383 . S
C1236 C1237 1.377 . S
C1237 H1221 0.930 . S
C1237 C1236 1.377 . S
C1237 C1238 1.379 . S
C1238 H1222 0.931 . S
C1238 C1232 1.383 . S
C1238 C1237 1.379 . S
H1239 C1233 0.959 . S
H1240 C1233 0.961 . S
H1241 C1233 0.960 . S
H1242 C1234 0.930 . S
H1243 C1235 0.929 . S
H1244 C1252 0.929 . S
H1245 C1254 0.930 . S
H1246 C1256 0.930 . S
H1247 C1259 0.929 . S
H1248 C1262 0.930 . S
H1249 C1264 0.960 . S
H1250 C1264 0.960 . S
H1251 C1264 0.960 . S
C1252 H1244 0.929 . S
C1252 C1253 1.377 . S
C1252 C1254 1.384 . S
C1253 C1252 1.377 . S
C1253 C1259 1.390 . S
C1254 H1245 0.930 . S
C1254 C1252 1.384 . S
C1254 C1255 1.372 . S
C1255 C1254 1.372 . S
C1255 C1256 1.400 . S
C1255 C1260 1.490 . S
C1256 H1246 0.930 . S
C1256 C1255 1.400 . S
C1256 C1259 1.386 . S
H1257 C1273 0.930 . S
H1258 C1274 0.931 . S
C1259 H1247 0.929 . S
C1259 C1253 1.390 . S
C1259 C1256 1.386 . S
C1260 C1255 1.490 . S
C1260 C1262 1.395 . S
C1260 C1263 1.403 . S
H1261 C1267 0.930 . S
C1262 H1248 0.930 . S
C1262 C1260 1.395 . S
C1262 C1265 1.403 . S
C1263 C1260 1.403 . S
C1263 C1264 1.524 . S
C1263 C1267 1.400 . S
C1264 H1249 0.960 . S
C1264 H1250 0.960 . S
C1264 H1251 0.960 . S
C1264 C1263 1.524 . S
C1265 C1262 1.403 . S
C1265 C1266 1.392 . S
C1265 C1269 1.495 . S
C1266 C1265 1.392 . S
C1266 C1267 1.385 . S
C1266 C1268 1.478 . S
C1267 H1261 0.930 . S
C1267 C1263 1.400 . S
C1267 C1266 1.385 . S
C1268 C1266 1.478 . S
C1268 C1270 1.381 . S
C1268 C1274 1.383 . S
C1269 C1265 1.495 . S
C1269 H1275 0.959 . S
C1269 H1276 0.961 . S
C1269 H1277 0.960 . S
C1270 C1268 1.381 . S
C1270 C1271 1.394 . S
C1270 H1278 0.930 . S
C1271 C1270 1.394 . S
C1271 C1272 1.383 . S
C1271 H1279 0.929 . S
C1272 C1271 1.383 . S
C1272 C1273 1.377 . S
C1273 H1257 0.930 . S
C1273 C1272 1.377 . S
C1273 C1274 1.379 . S
C1274 H1258 0.931 . S
C1274 C1268 1.383 . S
C1274 C1273 1.379 . S
H1275 C1269 0.959 . S
H1276 C1269 0.961 . S
H1277 C1269 0.960 . S
H1278 C1270 0.930 . S
H1279 C1271 0.929 . S
C281 C28 1.724 . S
C300 C241 1.586 . S
C317 C49 1.222 . S
C336 C137 1.240 . S
C353 C173 1.595 . S
C372 C96 1.711 . S
C389 C117 1.230 . S
C408 C207 1.224 . S
C425 C40 1.724 . S
C444 C205 1.581 . S
C461 C239 1.201 . S
C480 C90 1.214 . S
C497 C108 1.718 . S
C516 C139 1.627 . S
C533 C171 1.199 . S
C552 C22 1.219 . S
C569 C142 1.718 . S
C588 C105 1.607 . S
C605 C3 1.210 . S
C624 C185 1.228 . S
C641 C37 1.602 . S
C660 C232 1.716 . S
C677 C253 1.226 . S
C696 C71 1.178 . S
C713 C176 1.720 . S
C732 C69 1.625 . S
C749 C226 1.221 . S
C768 C103 1.219 . S
C785 C244 1.721 . S
C804 C1 1.614 . S
C821 C35 1.209 . S
C840 C151 1.235 . S
C857 C17 1.400 . S
C876 C85 1.388 . S
C893 C119 1.400 . S
C912 C51 1.397 . S
C929 C153 1.400 . S
C948 C221 1.391 . S
C965 C187 1.397 . S
C984 C255 1.396 . S
C1001 C15 1.197 . S
C1020 C56 1.149 . S
C1037 C62 0.397 . S
C1056 C74 0.443 . S
C1073 C124 1.178 . S
C1092 C83 1.245 . S
C1109 C6 0.400 . S
C1128 C130 0.419 . S
C1145 C192 1.188 . S
C1164 C158 1.201 . S
C1181 C210 0.426 . S
C1200 C198 0.317 . S
C1217 C219 1.181 . S
C1236 C260 1.225 . S
C1253 C164 0.433 . S
C1272 C266 0.451 . S
