# Generated by pormake.
# Topology whz, (6)-cn, num edge types: 1
# Building blocks:
#     Node 0, Type 0, BuildingBlock: CUKXOW_clean_sbu_0, # of connection points: 6
#     Node 1, Type 0, BuildingBlock: CUKXOW_clean_sbu_0, # of connection points: 6
#     Node 2, Type 0, BuildingBlock: CUKXOW_clean_sbu_0, # of connection points: 6
#     Node 3, Type 0, BuildingBlock: CUKXOW_clean_sbu_0, # of connection points: 6
#     Node 4, Type 0, BuildingBlock: CUKXOW_clean_sbu_0, # of connection points: 6
#     Node 5, Type 0, BuildingBlock: CUKXOW_clean_sbu_0, # of connection points: 6
#     Node 6, Type 0, BuildingBlock: CUKXOW_clean_sbu_0, # of connection points: 6
#     Node 7, Type 0, BuildingBlock: CUKXOW_clean_sbu_0, # of connection points: 6
#     Node 8, Type 0, BuildingBlock: CUKXOW_clean_sbu_0, # of connection points: 6
#     Node 9, Type 0, BuildingBlock: CUKXOW_clean_sbu_0, # of connection points: 6
#     Node 10, Type 0, BuildingBlock: CUKXOW_clean_sbu_0, # of connection points: 6
#     Node 11, Type 0, BuildingBlock: CUKXOW_clean_sbu_0, # of connection points: 6
#     Node 12, Type 0, BuildingBlock: CUKXOW_clean_sbu_0, # of connection points: 6
#     Node 13, Type 0, BuildingBlock: CUKXOW_clean_sbu_0, # of connection points: 6
#     Node 14, Type 0, BuildingBlock: CUKXOW_clean_sbu_0, # of connection points: 6
#     Node 15, Type 0, BuildingBlock: CUKXOW_clean_sbu_0, # of connection points: 6
#     Edge 16, Type (0, 0), BuildingBlock: EZIPEK_clean_linker_0, # of connection points: 2
#     Edge 17, Type (0, 0), BuildingBlock: EZIPEK_clean_linker_0, # of connection points: 2
#     Edge 18, Type (0, 0), BuildingBlock: EZIPEK_clean_linker_0, # of connection points: 2
#     Edge 19, Type (0, 0), BuildingBlock: EZIPEK_clean_linker_0, # of connection points: 2
#     Edge 20, Type (0, 0), BuildingBlock: EZIPEK_clean_linker_0, # of connection points: 2
#     Edge 21, Type (0, 0), BuildingBlock: EZIPEK_clean_linker_0, # of connection points: 2
#     Edge 22, Type (0, 0), BuildingBlock: EZIPEK_clean_linker_0, # of connection points: 2
#     Edge 23, Type (0, 0), BuildingBlock: EZIPEK_clean_linker_0, # of connection points: 2
#     Edge 24, Type (0, 0), BuildingBlock: EZIPEK_clean_linker_0, # of connection points: 2
#     Edge 25, Type (0, 0), BuildingBlock: EZIPEK_clean_linker_0, # of connection points: 2
#     Edge 26, Type (0, 0), BuildingBlock: EZIPEK_clean_linker_0, # of connection points: 2
#     Edge 27, Type (0, 0), BuildingBlock: EZIPEK_clean_linker_0, # of connection points: 2
#     Edge 28, Type (0, 0), BuildingBlock: EZIPEK_clean_linker_0, # of connection points: 2
#     Edge 29, Type (0, 0), BuildingBlock: EZIPEK_clean_linker_0, # of connection points: 2
#     Edge 30, Type (0, 0), BuildingBlock: EZIPEK_clean_linker_0, # of connection points: 2
#     Edge 31, Type (0, 0), BuildingBlock: EZIPEK_clean_linker_0, # of connection points: 2
#     Edge 32, Type (0, 0), BuildingBlock: EZIPEK_clean_linker_0, # of connection points: 2
#     Edge 33, Type (0, 0), BuildingBlock: EZIPEK_clean_linker_0, # of connection points: 2
#     Edge 34, Type (0, 0), BuildingBlock: EZIPEK_clean_linker_0, # of connection points: 2
#     Edge 35, Type (0, 0), BuildingBlock: EZIPEK_clean_linker_0, # of connection points: 2
#     Edge 36, Type (0, 0), BuildingBlock: EZIPEK_clean_linker_0, # of connection points: 2
#     Edge 37, Type (0, 0), BuildingBlock: EZIPEK_clean_linker_0, # of connection points: 2
#     Edge 38, Type (0, 0), BuildingBlock: EZIPEK_clean_linker_0, # of connection points: 2
#     Edge 39, Type (0, 0), BuildingBlock: EZIPEK_clean_linker_0, # of connection points: 2
#     Edge 40, Type (0, 0), BuildingBlock: EZIPEK_clean_linker_0, # of connection points: 2
#     Edge 41, Type (0, 0), BuildingBlock: EZIPEK_clean_linker_0, # of connection points: 2
#     Edge 42, Type (0, 0), BuildingBlock: EZIPEK_clean_linker_0, # of connection points: 2
#     Edge 43, Type (0, 0), BuildingBlock: EZIPEK_clean_linker_0, # of connection points: 2
#     Edge 44, Type (0, 0), BuildingBlock: EZIPEK_clean_linker_0, # of connection points: 2
#     Edge 45, Type (0, 0), BuildingBlock: EZIPEK_clean_linker_0, # of connection points: 2
#     Edge 46, Type (0, 0), BuildingBlock: EZIPEK_clean_linker_0, # of connection points: 2
#     Edge 47, Type (0, 0), BuildingBlock: EZIPEK_clean_linker_0, # of connection points: 2
#     Edge 48, Type (0, 0), BuildingBlock: EZIPEK_clean_linker_0, # of connection points: 2
#     Edge 49, Type (0, 0), BuildingBlock: EZIPEK_clean_linker_0, # of connection points: 2
#     Edge 50, Type (0, 0), BuildingBlock: EZIPEK_clean_linker_0, # of connection points: 2
#     Edge 51, Type (0, 0), BuildingBlock: EZIPEK_clean_linker_0, # of connection points: 2
#     Edge 52, Type (0, 0), BuildingBlock: EZIPEK_clean_linker_0, # of connection points: 2
#     Edge 53, Type (0, 0), BuildingBlock: EZIPEK_clean_linker_0, # of connection points: 2
#     Edge 54, Type (0, 0), BuildingBlock: EZIPEK_clean_linker_0, # of connection points: 2
#     Edge 55, Type (0, 0), BuildingBlock: EZIPEK_clean_linker_0, # of connection points: 2
#     Edge 56, Type (0, 0), BuildingBlock: EZIPEK_clean_linker_0, # of connection points: 2
#     Edge 57, Type (0, 0), BuildingBlock: EZIPEK_clean_linker_0, # of connection points: 2
#     Edge 58, Type (0, 0), BuildingBlock: EZIPEK_clean_linker_0, # of connection points: 2
#     Edge 59, Type (0, 0), BuildingBlock: EZIPEK_clean_linker_0, # of connection points: 2
#     Edge 60, Type (0, 0), BuildingBlock: EZIPEK_clean_linker_0, # of connection points: 2
#     Edge 61, Type (0, 0), BuildingBlock: EZIPEK_clean_linker_0, # of connection points: 2
#     Edge 62, Type (0, 0), BuildingBlock: EZIPEK_clean_linker_0, # of connection points: 2
#     Edge 63, Type (0, 0), BuildingBlock: EZIPEK_clean_linker_0, # of connection points: 2
# Relax obj value: 0.220
# Max RMSD: 0.247
# Mean RMSD: 0.247
data_MOF--net-whz--node1-CUKXOW_clean_sbu_0--edge1-EZIPEK_clean_linker_0
_symmetry_space_group_name_H-M    P1
_symmetry_Int_Tables_number       1
_symmetry_cell_setting            triclinic
loop_
_symmetry_equiv_pos_as_xyz
'x, y, z'
_cell_length_a     28.541225
_cell_length_b     28.432221
_cell_length_c     35.982127
_cell_angle_alpha  89.364784
_cell_angle_beta   90.127025
_cell_angle_gamma 90.288027
loop_
_atom_site_label
_atom_site_type_symbol
_atom_site_fract_x
_atom_site_fract_y
_atom_site_fract_z
_atom_type_partial_charge
Tb0 Tb 0.33117 0.16588 0.18154 0.0
C1 C 0.24742 0.22704 0.15691 0.0
Tb2 Tb 0.22993 0.12254 0.18344 0.0
O3 O 0.32872 0.16286 0.11985 0.0
O4 O 0.29077 0.11507 0.1507 0.0
O5 O 0.28791 0.22733 0.17479 0.0
C6 C 0.14812 0.08283 0.16877 0.0
O7 O 0.22478 0.18716 0.14915 0.0
C8 C 0.24274 0.17912 0.24002 0.0
C9 C 0.30745 0.07773 0.23619 0.0
O10 O 0.15558 0.12746 0.17161 0.0
O11 O 0.18725 0.05994 0.17255 0.0
O12 O 0.20435 0.15623 0.23353 0.0
O13 O 0.2715 0.16555 0.21587 0.0
O14 O 0.26516 0.0725 0.22082 0.0
O15 O 0.33816 0.1108 0.22511 0.0
C16 C 0.41539 0.20761 0.18995 0.0
O17 O 0.4084 0.16496 0.1781 0.0
O18 O 0.3751 0.22604 0.19771 0.0
C19 C 0.29767 0.12952 0.11791 0.0
Tb20 Tb 0.61237 0.59372 0.42719 0.0
C21 C 0.55239 0.50796 0.39952 0.0
Tb22 Tb 0.65359 0.49448 0.43493 0.0
O23 O 0.62402 0.59739 0.36685 0.0
O24 O 0.66416 0.55308 0.39933 0.0
O25 O 0.55291 0.5529 0.40862 0.0
C26 C 0.69092 0.40839 0.42803 0.0
O27 O 0.58992 0.48056 0.40244 0.0
C28 C 0.60454 0.52057 0.49335 0.0
C29 C 0.70171 0.57616 0.47946 0.0
O30 O 0.64679 0.41833 0.42688 0.0
O31 O 0.71415 0.4475 0.43112 0.0
O32 O 0.63862 0.49059 0.49436 0.0
O33 O 0.59841 0.5318 0.45975 0.0
O34 O 0.70777 0.53466 0.46363 0.0
O35 O 0.6646 0.6025 0.4714 0.0
C36 C 0.56491 0.67518 0.43505 0.0
O37 O 0.61008 0.67133 0.43068 0.0
O38 O 0.54736 0.63305 0.43579 0.0
C39 C 0.65243 0.56203 0.3661 0.0
Tb40 Tb 0.16528 0.85523 0.67085 0.0
C41 C 0.25164 0.78898 0.65407 0.0
Tb42 Tb 0.26603 0.89392 0.68038 0.0
O43 O 0.16613 0.86718 0.61025 0.0
O44 O 0.20853 0.90709 0.64416 0.0
O45 O 0.20828 0.79149 0.66735 0.0
C46 C 0.35144 0.92928 0.66858 0.0
O47 O 0.27856 0.82729 0.65098 0.0
C48 C 0.23387 0.84596 0.73857 0.0
C49 C 0.18548 0.94256 0.72579 0.0
O50 O 0.34155 0.89395 0.69018 0.0
O51 O 0.31327 0.94498 0.65315 0.0
O52 O 0.26726 0.87733 0.73991 0.0
O53 O 0.22403 0.8414 0.70473 0.0
O54 O 0.22865 0.94745 0.71206 0.0
O55 O 0.15524 0.91012 0.71337 0.0
C56 C 0.08246 0.8094 0.67449 0.0
O57 O 0.09065 0.85108 0.68781 0.0
O58 O 0.12027 0.79462 0.65884 0.0
C59 C 0.20072 0.89666 0.61066 0.0
Tb60 Tb 0.90628 0.42089 0.93247 0.0
C61 C 0.95982 0.50851 0.89848 0.0
Tb62 Tb 0.86283 0.51984 0.93769 0.0
O63 O 0.88797 0.41533 0.87347 0.0
O64 O 0.84863 0.45791 0.90654 0.0
O65 O 0.96403 0.46757 0.91632 0.0
C66 C 0.82311 0.60567 0.93329 0.0
O67 O 0.91946 0.53162 0.89734 0.0
C68 C 0.92093 0.49874 0.99339 0.0
C69 C 0.82211 0.4392 0.98892 0.0
O70 O 0.86228 0.59357 0.91799 0.0
O71 O 0.80531 0.56874 0.94932 0.0
O72 O 0.88962 0.53143 0.99357 0.0
O73 O 0.92141 0.48449 0.96054 0.0
O74 O 0.81216 0.47817 0.96982 0.0
O75 O 0.85927 0.41277 0.98112 0.0
C76 C 0.95563 0.33937 0.93613 0.0
O77 O 0.91262 0.34494 0.94729 0.0
O78 O 0.97038 0.37956 0.92347 0.0
C79 C 0.85547 0.44683 0.87296 0.0
Tb80 Tb 0.77079 0.88687 0.87635 0.0
C81 C 0.69758 0.9385 0.82649 0.0
Tb82 Tb 0.6709 0.85283 0.88177 0.0
O83 O 0.7755 0.85824 0.82051 0.0
O84 O 0.73261 0.82643 0.85799 0.0
O85 O 0.73597 0.94459 0.84681 0.0
C86 C 0.58693 0.80916 0.87449 0.0
O87 O 0.66764 0.90345 0.83423 0.0
C88 C 0.69634 0.90695 0.93821 0.0
C89 C 0.75193 0.79383 0.9224 0.0
O90 O 0.60965 0.83083 0.84806 0.0
O91 O 0.61064 0.81418 0.90487 0.0
O92 O 0.66227 0.87698 0.93845 0.0
O93 O 0.70974 0.91051 0.90453 0.0
O94 O 0.71062 0.79302 0.90503 0.0
O95 O 0.78032 0.83049 0.9177 0.0
C96 C 0.85881 0.91963 0.88089 0.0
O97 O 0.82854 0.91898 0.90779 0.0
O98 O 0.83935 0.90242 0.85158 0.0
C99 C 0.74444 0.82536 0.82445 0.0
Tb100 Tb 0.37263 0.52089 0.62841 0.0
C101 C 0.32956 0.44823 0.57073 0.0
Tb102 Tb 0.40733 0.41733 0.632 0.0
O103 O 0.40494 0.53374 0.57438 0.0
O104 O 0.4305 0.48245 0.60953 0.0
O105 O 0.32518 0.48991 0.58695 0.0
C106 C 0.45063 0.33353 0.62502 0.0
O107 O 0.35968 0.41563 0.58308 0.0
C108 C 0.3591 0.44696 0.69064 0.0
C109 C 0.46314 0.49558 0.6763 0.0
O110 O 0.40899 0.34 0.6387 0.0
O111 O 0.46707 0.37414 0.61433 0.0
O112 O 0.38684 0.41097 0.69091 0.0
O113 O 0.35378 0.45854 0.65677 0.0
O114 O 0.4656 0.45504 0.65815 0.0
O115 O 0.42596 0.52344 0.67259 0.0
C116 C 0.33378 0.60393 0.64217 0.0
O117 O 0.37789 0.59707 0.63581 0.0
O118 O 0.31152 0.56404 0.64132 0.0
C119 C 0.43435 0.49915 0.57728 0.0
Tb120 Tb 0.74276 0.12348 0.3855 0.0
C121 C 0.81517 0.07757 0.32981 0.0
Tb122 Tb 0.84483 0.15855 0.38748 0.0
O123 O 0.73118 0.14635 0.32846 0.0
O124 O 0.78128 0.17876 0.36037 0.0
O125 O 0.7741 0.07281 0.3471 0.0
C126 C 0.92747 0.20503 0.37991 0.0
O127 O 0.84721 0.10928 0.34031 0.0
C128 C 0.81489 0.11401 0.44884 0.0
C129 C 0.76629 0.22149 0.42228 0.0
O130 O 0.92076 0.16045 0.37348 0.0
O131 O 0.88808 0.22256 0.39044 0.0
O132 O 0.85092 0.14186 0.44763 0.0
O133 O 0.80376 0.10631 0.41551 0.0
O134 O 0.80535 0.2206 0.40241 0.0
O135 O 0.73835 0.18382 0.42347 0.0
C136 C 0.65943 0.0863 0.40072 0.0
O137 O 0.66686 0.12927 0.38992 0.0
O138 O 0.69898 0.06417 0.40382 0.0
C139 C 0.76472 0.17731 0.3278 0.0
Tb140 Tb 0.14453 0.50151 0.12205 0.0
C141 C 0.1941 0.58014 0.07229 0.0
Tb142 Tb 0.10884 0.60306 0.12721 0.0
O143 O 0.12828 0.49641 0.06331 0.0
O144 O 0.09149 0.5418 0.09641 0.0
O145 O 0.19782 0.53756 0.08801 0.0
C146 C 0.05992 0.68443 0.12512 0.0
O147 O 0.16209 0.61153 0.08282 0.0
C148 C 0.15272 0.56956 0.18788 0.0
C149 C 0.04314 0.5203 0.15227 0.0
O150 O 0.09404 0.67355 0.10278 0.0
O151 O 0.05537 0.6504 0.14897 0.0
O152 O 0.12512 0.60547 0.18751 0.0
O153 O 0.16062 0.56056 0.15427 0.0
O154 O 0.04539 0.56086 0.13386 0.0
O155 O 0.08129 0.49414 0.1571 0.0
C156 C 0.17648 0.41522 0.13476 0.0
O157 O 0.13687 0.42538 0.11918 0.0
O158 O 0.19841 0.45369 0.14373 0.0
C159 C 0.09664 0.52909 0.06316 0.0
Tb160 Tb 0.83623 0.64089 0.67971 0.0
C161 C 0.75083 0.70659 0.66123 0.0
Tb162 Tb 0.7367 0.60401 0.69488 0.0
O163 O 0.8332 0.62808 0.61987 0.0
O164 O 0.78977 0.58979 0.65478 0.0
O165 O 0.79518 0.70461 0.67194 0.0
C166 C 0.64919 0.56883 0.69386 0.0
O167 O 0.72218 0.66984 0.66403 0.0
C168 C 0.77431 0.65171 0.75044 0.0
C169 C 0.82076 0.55498 0.73685 0.0
O170 O 0.66152 0.61008 0.70543 0.0
O171 O 0.68635 0.54704 0.68243 0.0
O172 O 0.7422 0.6194 0.75392 0.0
O173 O 0.78057 0.65713 0.71606 0.0
O174 O 0.77707 0.55013 0.72448 0.0
O175 O 0.84966 0.58849 0.72421 0.0
C176 C 0.91902 0.68694 0.67939 0.0
O177 O 0.91213 0.64485 0.69304 0.0
O178 O 0.87998 0.70208 0.6657 0.0
C179 C 0.79665 0.60111 0.62096 0.0
Tb180 Tb 0.11063 0.08193 0.92615 0.0
C181 C 0.04458 0.99866 0.90119 0.0
Tb182 Tb 0.14498 0.98084 0.94102 0.0
O183 O 0.12208 0.07767 0.86584 0.0
O184 O 0.16123 0.03523 0.90109 0.0
O185 O 0.04901 0.04457 0.90642 0.0
C186 C 0.1785 0.89243 0.93925 0.0
O187 O 0.07896 0.96851 0.90917 0.0
C188 C 0.09138 0.01481 0.99367 0.0
C189 C 0.19373 0.06207 0.98583 0.0
O190 O 0.13661 0.90466 0.94821 0.0
O191 O 0.20243 0.93017 0.93124 0.0
O192 O 0.12356 0.98346 0.99917 0.0
O193 O 0.09076 0.02357 0.95947 0.0
O194 O 0.19884 0.01932 0.97196 0.0
O195 O 0.16071 0.09126 0.97297 0.0
C196 C 0.06712 0.16611 0.93176 0.0
O197 O 0.10993 0.15972 0.92011 0.0
O198 O 0.04968 0.12524 0.94043 0.0
C199 C 0.15021 0.04192 0.86692 0.0
Tb200 Tb 0.67168 0.36158 0.18305 0.0
C201 C 0.75553 0.30225 0.15293 0.0
Tb202 Tb 0.77537 0.40223 0.18423 0.0
O203 O 0.66618 0.37257 0.12216 0.0
O204 O 0.7139 0.4098 0.15181 0.0
O205 O 0.71546 0.30117 0.17161 0.0
C206 C 0.85694 0.44276 0.16824 0.0
O207 O 0.78061 0.34124 0.14829 0.0
C208 C 0.75881 0.34904 0.2439 0.0
C209 C 0.69899 0.4497 0.23524 0.0
O210 O 0.85014 0.39812 0.17325 0.0
O211 O 0.81745 0.465 0.17136 0.0
O212 O 0.79859 0.36926 0.23633 0.0
O213 O 0.73181 0.35954 0.21728 0.0
O214 O 0.7404 0.45461 0.21844 0.0
O215 O 0.66777 0.41613 0.22649 0.0
C216 C 0.58957 0.31613 0.1916 0.0
O217 O 0.59463 0.36166 0.18887 0.0
O218 O 0.63056 0.29675 0.19011 0.0
C219 C 0.70268 0.3994 0.11896 0.0
Tb220 Tb 0.40274 0.92745 0.42749 0.0
C221 C 0.4718 0.01048 0.40802 0.0
Tb222 Tb 0.37073 0.02919 0.43788 0.0
O223 O 0.38997 0.93118 0.36712 0.0
O224 O 0.35265 0.97357 0.40215 0.0
O225 O 0.46783 0.96807 0.42352 0.0
C226 C 0.33674 0.11532 0.42819 0.0
O227 O 0.43461 0.03812 0.40414 0.0
C228 C 0.41725 0.99542 0.49592 0.0
C229 C 0.31537 0.94819 0.48068 0.0
O230 O 0.37778 0.10553 0.4416 0.0
O231 O 0.31513 0.07661 0.41945 0.0
O232 O 0.38723 0.02958 0.49693 0.0
O233 O 0.42156 0.98499 0.46201 0.0
O234 O 0.31814 0.99374 0.47212 0.0
O235 O 0.34209 0.91613 0.46423 0.0
C236 C 0.44547 0.84249 0.4299 0.0
O237 O 0.41672 0.85854 0.45466 0.0
O238 O 0.44761 0.87327 0.40316 0.0
C239 C 0.36215 0.96691 0.36836 0.0
Tb240 Tb 0.27982 0.40315 0.36697 0.0
C241 C 0.20369 0.45759 0.32179 0.0
Tb242 Tb 0.17894 0.36796 0.37473 0.0
O243 O 0.27935 0.39177 0.30739 0.0
O244 O 0.23854 0.3504 0.34232 0.0
O245 O 0.24388 0.46195 0.34003 0.0
C246 C 0.09517 0.32385 0.36876 0.0
O247 O 0.17328 0.42305 0.33034 0.0
C248 C 0.21655 0.40371 0.43657 0.0
C249 C 0.26132 0.3019 0.40225 0.0
O250 O 0.10236 0.36464 0.38408 0.0
O251 O 0.13476 0.30922 0.35571 0.0
O252 O 0.18065 0.37565 0.43576 0.0
O253 O 0.22371 0.41643 0.40318 0.0
O254 O 0.21628 0.30526 0.39335 0.0
O255 O 0.29095 0.33787 0.39865 0.0
C256 C 0.36716 0.43282 0.37554 0.0
O257 O 0.35483 0.39474 0.35879 0.0
O258 O 0.33034 0.45385 0.38836 0.0
C259 C 0.24883 0.35805 0.3087 0.0
Tb260 Tb 0.85823 0.03212 0.11586 0.0
C261 C 0.81165 0.9513 0.06863 0.0
Tb262 Tb 0.88938 0.93122 0.13215 0.0
O263 O 0.87897 0.03031 0.0579 0.0
O264 O 0.91151 0.98852 0.09785 0.0
O265 O 0.80889 0.99554 0.07963 0.0
C266 C 0.93735 0.84944 0.12766 0.0
O267 O 0.84102 0.9205 0.08433 0.0
C268 C 0.84822 0.97247 0.19033 0.0
C269 C 0.9593 0.01281 0.15384 0.0
O270 O 0.89174 0.85346 0.12676 0.0
O271 O 0.95459 0.89115 0.13183 0.0
O272 O 0.87314 0.93439 0.19221 0.0
O273 O 0.83979 0.97926 0.15585 0.0
O274 O 0.95172 0.96706 0.15172 0.0
O275 O 0.92711 0.04451 0.14381 0.0
C276 C 0.81756 0.11606 0.11939 0.0
O277 O 0.86166 0.10895 0.11335 0.0
O278 O 0.79649 0.07606 0.12448 0.0
C279 C 0.91134 0.99901 0.06383 0.0
Tb280 Tb 0.23468 0.61323 0.86937 0.0
C281 C 0.31064 0.5687 0.81692 0.0
Tb282 Tb 0.33452 0.65069 0.87482 0.0
O283 O 0.22635 0.63702 0.81217 0.0
O284 O 0.27249 0.6707 0.84597 0.0
O285 O 0.2695 0.56207 0.83357 0.0
C286 C 0.41978 0.69194 0.86882 0.0
O287 O 0.34007 0.60288 0.82689 0.0
C288 C 0.30558 0.60559 0.93649 0.0
C289 C 0.25331 0.7084 0.91007 0.0
O290 O 0.41158 0.64693 0.86754 0.0
O291 O 0.38032 0.71313 0.87348 0.0
O292 O 0.33813 0.63729 0.93462 0.0
O293 O 0.29449 0.59631 0.90297 0.0
O294 O 0.29404 0.71122 0.89247 0.0
O295 O 0.22793 0.6691 0.91055 0.0
C296 C 0.14626 0.58265 0.87699 0.0
O297 O 0.1592 0.62583 0.87164 0.0
O298 O 0.18326 0.55632 0.87834 0.0
C299 C 0.2584 0.66935 0.81276 0.0
Tb300 Tb 0.64852 0.9784 0.62146 0.0
C301 C 0.70197 0.0617 0.58038 0.0
Tb302 Tb 0.60911 0.07801 0.62913 0.0
O303 O 0.60515 0.95775 0.57591 0.0
O304 O 0.61805 0.0293 0.58511 0.0
O305 O 0.70669 0.02004 0.59733 0.0
C306 C 0.55997 0.15941 0.62823 0.0
O307 O 0.66447 0.08863 0.58641 0.0
C308 C 0.6565 0.0432 0.68813 0.0
C309 C 0.54236 0.99084 0.64368 0.0
O310 O 0.60477 0.15544 0.62269 0.0
O311 O 0.54312 0.1176 0.63438 0.0
O312 O 0.65316 0.08762 0.67992 0.0
O313 O 0.63028 0.02253 0.66572 0.0
O314 O 0.54527 0.03583 0.6337 0.0
O315 O 0.57987 0.9633 0.64675 0.0
C316 C 0.69079 0.89648 0.63331 0.0
O317 O 0.66727 0.90792 0.60386 0.0
O318 O 0.69172 0.93164 0.65607 0.0
C319 C 0.59349 1.00033 0.56662 0.0
C320 C 0.20302 0.24995 0.26685 0.0
C321 C 0.24477 0.2241 0.2604 0.0
C322 C 0.29182 0.2925 0.27777 0.0
C323 C 0.24985 0.31854 0.28259 0.0
N324 N 0.16783 0.32693 0.27055 0.0
N325 N 0.3266 0.21539 0.27375 0.0
C326 C 0.20626 0.29875 0.27322 0.0
C327 C 0.28873 0.24401 0.26928 0.0
N328 N 0.16093 0.22754 0.27151 0.0
N329 N 0.33466 0.31405 0.27969 0.0
H330 H 0.32466 0.17914 0.27016 0.0
H331 H 0.35747 0.22635 0.28648 0.0
H332 H 0.33926 0.34995 0.2833 0.0
H333 H 0.3658 0.29734 0.2728 0.0
H334 H 0.13022 0.24499 0.2784 0.0
H335 H 0.15791 0.19135 0.27544 0.0
H336 H 0.13575 0.31519 0.26032 0.0
H337 H 0.16994 0.36323 0.27431 0.0
C338 C 0.49416 0.466 0.53487 0.0
C339 C 0.48037 0.50208 0.55902 0.0
C340 C 0.55148 0.54723 0.54387 0.0
C341 C 0.5638 0.51263 0.51784 0.0
N342 N 0.54606 0.4368 0.48945 0.0
N343 N 0.50109 0.57409 0.59157 0.0
C344 C 0.53567 0.47126 0.51404 0.0
C345 C 0.5103 0.54151 0.56511 0.0
N346 N 0.4671 0.42657 0.53088 0.0
N347 N 0.57914 0.58604 0.54863 0.0
H348 H 0.47289 0.57225 0.60993 0.0
H349 H 0.47289 0.57225 0.60993 0.0
H350 H 0.61005 0.5915 0.53384 0.0
H351 H 0.57103 0.61249 0.56743 0.0
H352 H 0.47597 0.39933 0.51303 0.0
H353 H 0.4361 0.421 0.54554 0.0
H354 H 0.57474 0.43734 0.47162 0.0
H355 H 0.57474 0.43734 0.47162 0.0
C356 C 0.20241 0.76651 0.75524 0.0
C357 C 0.23204 0.80469 0.76429 0.0
C358 C 0.28293 0.75193 0.79889 0.0
C359 C 0.25413 0.71316 0.78969 0.0
N360 N 0.19476 0.68268 0.74798 0.0
N361 N 0.28682 0.83574 0.80864 0.0
C362 C 0.21582 0.72001 0.76491 0.0
C363 C 0.26815 0.79814 0.7905 0.0
N364 N 0.16023 0.77525 0.7389 0.0
N365 N 0.32657 0.74418 0.8126 0.0
H366 H 0.27288 0.86945 0.80576 0.0
H367 H 0.31107 0.83221 0.83019 0.0
H368 H 0.34039 0.71028 0.81338 0.0
H369 H 0.35033 0.77128 0.81773 0.0
H370 H 0.13468 0.74956 0.73474 0.0
H371 H 0.14915 0.8095 0.73359 0.0
H372 H 0.16973 0.68634 0.72705 0.0
H373 H 0.20669 0.64838 0.75063 0.0
C374 C 0.97193 0.54259 0.03831 0.0
C375 C 0.96433 0.50244 1.01597 0.0
C376 C 0.04853 0.48752 1.01503 0.0
C377 C 0.05574 0.52725 0.03771 0.0
N378 N 0.02751 0.60242 0.05642 0.0
N379 N 0.99329 0.42804 0.99541 0.0
C380 C 0.01827 0.55786 0.04487 0.0
C381 C 1.00214 0.47236 1.00776 0.0
N382 N 0.93545 0.56403 0.05567 0.0
N383 N 0.08567 0.46637 0.99837 0.0
H384 H 0.95916 0.41499 0.99331 0.0
H385 H 0.0193 0.40286 0.99204 0.0
H386 H 0.11944 0.48049 0.99953 0.0
H387 H 0.0819 0.43934 0.97925 0.0
H388 H 0.94007 0.59129 0.07448 0.0
H389 H 0.90163 0.55016 0.0557 0.0
H390 H 1.00181 0.62808 0.05901 0.0
H391 H 0.06188 0.61474 0.05842 0.0
C392 C 0.77947 0.77832 0.77299 0.0
C393 C 0.74771 0.78066 0.80315 0.0
C394 C 0.74509 0.69437 0.8062 0.0
C395 C 0.77628 0.69251 0.77591 0.0
N396 N 0.83791 0.73148 0.74242 0.0
N397 N 0.68934 0.7379 0.83945 0.0
C398 C 0.79817 0.73425 0.76308 0.0
C399 C 0.7278 0.73817 0.81746 0.0
N400 N 0.78871 0.81736 0.75176 0.0
N401 N 0.73131 0.65427 0.8244 0.0
H402 H 0.66999 0.7679 0.84488 0.0
H403 H 0.66999 0.7679 0.84488 0.0
H404 H 0.74679 0.62178 0.8196 0.0
H405 H 0.70757 0.65457 0.84643 0.0
H406 H 0.80882 0.81638 0.72763 0.0
H407 H 0.77068 0.84885 0.75516 0.0
H408 H 0.85773 0.76081 0.73452 0.0
H409 H 0.85341 0.69906 0.73739 0.0
C410 C 0.79294 0.30047 0.29512 0.0
C411 C 0.75344 0.31159 0.27293 0.0
C412 C 0.72224 0.23245 0.28297 0.0
C413 C 0.76334 0.2202 0.30352 0.0
N414 N 0.84364 0.23911 0.31785 0.0
N415 N 0.67219 0.29592 0.26194 0.0
C416 C 0.80024 0.25341 0.30668 0.0
C417 C 0.7154 0.27996 0.27177 0.0
N418 N 0.82222 0.33541 0.30687 0.0
N419 N 0.69232 0.19851 0.27041 0.0
H420 H 0.66612 0.33148 0.25655 0.0
H421 H 0.64196 0.27537 0.26427 0.0
H422 H 0.70023 0.16284 0.27149 0.0
H423 H 0.66383 0.20594 0.25318 0.0
H424 H 0.84934 0.32976 0.32582 0.0
H425 H 0.8152 0.37083 0.30176 0.0
H426 H 0.87313 0.26085 0.3169 0.0
H427 H 0.85126 0.20395 0.3235 0.0
C428 C 0.98354 0.04612 0.04808 0.0
C429 C 0.95651 1.00387 0.04464 0.0
C430 C 0.01819 0.96874 1.00788 0.0
C431 C 0.04648 0.00967 1.01329 0.0
N432 N 0.0599 0.08363 0.04315 0.0
N433 N 0.95186 0.92205 1.02819 0.0
C434 C 0.03015 0.04741 0.03458 0.0
C435 C 0.97489 0.96437 1.0265 0.0
N436 N 0.96511 0.08505 0.06436 0.0
N437 N 0.03176 0.93454 0.98397 0.0
H438 H 0.92023 0.91704 0.04214 0.0
H439 H 0.96605 0.89071 1.01875 0.0
H440 H 0.06421 0.93432 0.97133 0.0
H441 H 0.00948 0.90813 0.97448 0.0
H442 H 0.98045 0.1183 0.06264 0.0
H443 H 0.93326 0.08531 0.0781 0.0
H444 H 0.05223 0.10945 0.06246 0.0
H445 H 0.09429 0.08563 0.03346 0.0
C446 C 0.49301 0.9603 0.51297 0.0
C447 C 0.45947 0.99513 0.52024 0.0
C448 C 0.52081 0.04429 0.54804 0.0
C449 C 0.55353 0.00858 0.54118 0.0
N450 N 0.57461 0.94321 0.50301 0.0
N451 N 0.43909 0.0628 0.55687 0.0
C452 C 0.54073 0.97003 0.51891 0.0
C453 C 0.47254 0.03542 0.54106 0.0
N454 N 0.47848 0.91659 0.50299 0.0
N455 N 0.53618 0.08747 0.55868 0.0
H456 H 0.4038 0.0532 0.55715 0.0
H457 H 0.44703 0.09066 0.57441 0.0
H458 H 0.57182 0.09519 0.56092 0.0
H459 H 0.51423 0.11656 0.56028 0.0
H460 H 0.50108 0.88825 0.49974 0.0
H461 H 0.44299 0.90802 0.50359 0.0
H462 H 0.56718 0.91665 0.4841 0.0
H463 H 0.61015 0.95152 0.50565 0.0
C464 C 0.24076 0.12498 1.01991 0.0
C465 C 0.22461 0.0776 1.01822 0.0
C466 C 0.26518 0.06294 0.07844 0.0
C467 C 0.27366 0.1118 0.08298 0.0
N468 N 0.2612 0.19057 0.05897 0.0
N469 N 0.21725 1.00257 0.05116 0.0
C470 C 0.25933 0.14313 0.0539 0.0
C471 C 0.23583 0.04682 0.04883 0.0
N472 N 0.24047 0.15246 0.98852 0.0
N473 N 0.28698 0.03115 0.10134 0.0
H474 H 0.19683 0.98737 0.03078 0.0
H475 H 0.21901 0.98197 0.07527 0.0
H476 H 0.31044 0.04084 0.12216 0.0
H477 H 0.28624 0.99502 0.09678 0.0
H478 H 0.25587 0.18576 0.98728 0.0
H479 H 0.23029 0.13984 0.96262 0.0
H480 H 0.2464 0.21468 0.0404 0.0
H481 H 0.27288 0.20568 0.08342 0.0
C482 C 0.71052 0.51544 0.32807 0.0
C483 C 0.66503 0.53479 0.33182 0.0
C484 C 0.6459 0.50639 0.2687 0.0
C485 C 0.68849 0.48108 0.26761 0.0
N486 N 0.75869 0.45618 0.29998 0.0
N487 N 0.58615 0.54149 0.30664 0.0
C488 C 0.72011 0.48425 0.29828 0.0
C489 C 0.63189 0.52862 0.30229 0.0
N490 N 0.74562 0.52854 0.35179 0.0
N491 N 0.61927 0.51048 0.23722 0.0
H492 H 0.57255 0.55479 0.33108 0.0
H493 H 0.55997 0.53331 0.28753 0.0
H494 H 0.62876 0.49541 0.21204 0.0
H495 H 0.5906 0.53288 0.23497 0.0
H496 H 0.78055 0.51935 0.34795 0.0
H497 H 0.74119 0.55309 0.37275 0.0
H498 H 0.77973 0.45293 0.32356 0.0
H499 H 0.76751 0.43297 0.27917 0.0
C500 C 0.26058 0.87715 0.5614 0.0
C501 C 0.22928 0.90991 0.5771 0.0
C502 C 0.2446 0.96151 0.52316 0.0
C503 C 0.2838 0.93345 0.51263 0.0
N504 N 0.33584 0.8702 0.53282 0.0
N505 N 0.19458 0.98686 0.57366 0.0
C506 C 0.29382 0.89275 0.53478 0.0
C507 C 0.22268 0.95354 0.55845 0.0
N508 N 0.25792 0.8307 0.57064 0.0
N509 N 0.22582 0.9933 0.49869 0.0
H510 H 0.17697 0.98151 0.59875 0.0
H511 H 0.19197 0.02087 0.56274 0.0
H512 H 0.23631 0.99583 0.47102 0.0
H513 H 0.19543 0.0121 0.50429 0.0
H514 H 0.27839 0.80522 0.55791 0.0
H515 H 0.23079 0.81744 0.58683 0.0
H516 H 0.34412 0.8417 0.55009 0.0
H517 H 0.36489 0.88405 0.51917 0.0
C518 C 0.83785 0.47652 0.76864 0.0
C519 C 0.83416 0.52625 0.77052 0.0
C520 C 0.826 0.51907 0.83815 0.0
C521 C 0.83927 0.47139 0.83762 0.0
N522 N 0.85178 0.4021 0.80066 0.0
N523 N 0.83809 0.5949 0.80956 0.0
C524 C 0.84369 0.44932 0.80224 0.0
C525 C 0.83256 0.54753 0.80598 0.0
N526 N 0.83507 0.45532 0.73481 0.0
N527 N 0.80318 0.53666 0.86799 0.0
H528 H 0.84731 0.61674 0.78735 0.0
H529 H 0.83946 0.61107 0.83545 0.0
H530 H 0.79226 0.51537 0.89011 0.0
H531 H 0.78861 0.57022 0.8674 0.0
H532 H 0.83218 0.41912 0.73137 0.0
H533 H 0.83356 0.47443 0.7099 0.0
H534 H 0.8622 0.38503 0.77663 0.0
H535 H 0.84764 0.37976 0.82359 0.0
C536 C 0.73775 0.91524 0.04102 0.0
C537 C 0.78186 0.93743 0.03575 0.0
C538 C 0.7602 0.95388 0.97049 0.0
C539 C 0.72079 0.92398 0.97325 0.0
N540 N 0.66555 0.88499 1.01469 0.0
N541 N 0.83833 0.9688 0.99236 0.0
C542 C 0.70765 0.90707 1.0096 0.0
C543 C 0.79378 0.95442 0.99967 0.0
N544 N 0.72371 0.90397 0.07635 0.0
N545 N 0.76423 0.98445 0.94121 0.0
H546 H 0.8651 0.96342 1.01131 0.0
H547 H 0.84959 0.97893 0.96598 0.0
H548 H 0.73854 0.9876 0.9207 0.0
H549 H 0.78937 0.01116 0.94068 0.0
H550 H 0.69011 0.89262 0.08326 0.0
H551 H 0.74538 0.90821 0.09947 0.0
H552 H 0.65783 0.86371 0.03761 0.0
H553 H 0.63712 0.89028 0.99701 0.0
C554 C 0.30005 0.54063 0.75035 0.0
C555 C 0.3238 0.53727 0.785 0.0
C556 C 0.37494 0.47745 0.7574 0.0
C557 C 0.34648 0.47624 0.72433 0.0
N558 N 0.27256 0.49864 0.69655 0.0
N559 N 0.37927 0.49563 0.82324 0.0
C560 C 0.30619 0.50535 0.72303 0.0
C561 C 0.35973 0.50347 0.78904 0.0
N562 N 0.27403 0.57931 0.74218 0.0
N563 N 0.41786 0.4565 0.75857 0.0
H564 H 0.36978 0.51456 0.84671 0.0
H565 H 0.4017 0.46762 0.82889 0.0
H566 H 0.43252 0.43846 0.73674 0.0
H567 H 0.44161 0.46151 0.78022 0.0
H568 H 0.25899 0.58534 0.71612 0.0
H569 H 0.27419 0.60819 0.7595 0.0
H570 H 0.2409 0.51679 0.69654 0.0
H571 H 0.27387 0.4715 0.67734 0.0
C572 C 0.76747 0.05442 0.48673 0.0
C573 C 0.78743 0.10022 0.48341 0.0
C574 C 0.75774 0.1175 0.54665 0.0
C575 C 0.73344 0.0739 0.54791 0.0
N576 N 0.70771 1.00491 0.51465 0.0
N577 N 0.79346 0.17873 0.50897 0.0
C578 C 0.73634 0.04345 0.51675 0.0
C579 C 0.7806 0.13262 0.51312 0.0
N580 N 0.77973 0.02033 0.46214 0.0
N581 N 0.76009 0.14421 0.57795 0.0
H582 H 0.80976 0.19244 0.48546 0.0
H583 H 0.78378 0.20477 0.52755 0.0
H584 H 0.7439 0.13432 0.60283 0.0
H585 H 0.7817 0.17367 0.58033 0.0
H586 H 0.77027 0.9851 0.46555 0.0
H587 H 0.8035 0.02596 0.44059 0.0
H588 H 0.70405 0.98505 0.49064 0.0
H589 H 0.6842 0.99522 0.53543 0.0
C590 C 0.22731 0.50123 0.26061 0.0
C591 C 0.19317 0.49028 0.28888 0.0
C592 C 0.13325 0.53078 0.25057 0.0
C593 C 0.16681 0.54134 0.22223 0.0
N594 N 0.24518 0.53258 0.19892 0.0
N595 N 0.11789 0.50869 0.31472 0.0
C596 C 0.21359 0.52544 0.227 0.0
C597 C 0.14735 0.5089 0.28478 0.0
N598 N 0.27365 0.49131 0.26625 0.0
N599 N 0.0868 0.53862 0.24401 0.0
H600 H 0.12758 0.49565 0.34081 0.0
H601 H 0.08612 0.52654 0.31512 0.0
H602 H 0.07433 0.55313 0.2194 0.0
H603 H 0.06011 0.52602 0.26118 0.0
H604 H 0.30062 0.50448 0.24971 0.0
H605 H 0.28712 0.47359 0.28904 0.0
H606 H 0.27671 0.5146 0.19678 0.0
H607 H 0.2391 0.55471 0.1762 0.0
C608 C 0.79672 0.56738 0.55591 0.0
C609 C 0.77105 0.58622 0.5862 0.0
C610 C 0.7124 0.61486 0.54191 0.0
C611 C 0.7321 0.58859 0.51265 0.0
N612 N 0.79871 0.5451 0.4907 0.0
N613 N 0.69573 0.61213 0.60694 0.0
C614 C 0.77599 0.56604 0.51941 0.0
C615 C 0.72621 0.60498 0.57884 0.0
N616 N 0.84109 0.55121 0.56208 0.0
N617 N 0.68296 0.65158 0.53493 0.0
H618 H 0.70351 0.59977 0.63332 0.0
H619 H 0.66135 0.62335 0.60264 0.0
H620 H 0.67842 0.66594 0.50842 0.0
H621 H 0.66975 0.67246 0.55612 0.0
H622 H 0.86412 0.54193 0.54106 0.0
H623 H 0.85533 0.54816 0.58874 0.0
H624 H 0.82708 0.5226 0.49415 0.0
H625 H 0.78923 0.55098 0.46303 0.0
C626 C 0.17719 0.04143 0.79886 0.0
C627 C 0.16567 0.01561 0.8319 0.0
C628 C 0.16624 0.94246 0.79468 0.0
C629 C 0.17422 0.96853 0.76128 0.0
N630 N 0.18241 0.04384 0.73108 0.0
N631 N 0.14934 0.94045 0.85964 0.0
C632 C 0.17863 0.01835 0.76335 0.0
C633 C 0.16108 0.96591 0.82915 0.0
N634 N 0.18916 0.08784 0.80175 0.0
N635 N 0.16504 0.89443 0.79422 0.0
H636 H 0.15194 0.95503 0.88531 0.0
H637 H 0.13577 0.90647 0.85923 0.0
H638 H 0.15805 0.87509 0.77068 0.0
H639 H 0.17142 0.87327 0.8175 0.0
H640 H 0.20206 0.10817 0.77981 0.0
H641 H 0.19084 0.10493 0.82723 0.0
H642 H 0.18099 0.08037 0.7297 0.0
H643 H 0.18285 0.02809 0.70502 0.0
C644 C 0.72729 0.38142 0.051 0.0
C645 C 0.72997 0.41014 0.08366 0.0
C646 C 0.79679 0.45169 0.05554 0.0
C647 C 0.79157 0.42679 1.0218 0.0
N648 N 0.74498 0.37417 0.98507 0.0
N649 N 0.75642 0.48472 0.10779 0.0
C650 C 0.75448 0.39377 1.01876 0.0
C651 C 0.7614 0.44894 0.08314 0.0
N652 N 0.70153 0.34076 0.05085 0.0
N653 N 0.83674 0.47638 0.06236 0.0
H654 H 0.72854 0.48655 0.12636 0.0
H655 H 0.77649 0.51544 0.10632 0.0
H656 H 0.86561 0.47369 0.04513 0.0
H657 H 0.84354 0.49268 0.08764 0.0
H658 H 0.70272 0.31679 1.02919 0.0
H659 H 0.68346 0.32723 0.07354 0.0
H660 H 0.71494 0.35431 0.97987 0.0
H661 H 0.76521 0.38105 0.96148 0.0
C662 C 0.28923 0.04358 0.30068 0.0
C663 C 0.32001 0.04765 0.26953 0.0
C664 C 0.38011 1.00556 0.30582 0.0
C665 C 0.34755 0.99627 0.33508 0.0
N666 N 0.26722 0.99908 0.35586 0.0
N667 N 0.39124 0.02229 0.24025 0.0
C668 C 0.30099 0.01322 0.33125 0.0
C669 C 0.3644 0.0256 0.2715 0.0
N670 N 0.2498 0.07048 0.30232 0.0
N671 N 0.42679 0.99777 0.31125 0.0
H672 H 0.38035 0.03494 0.21433 0.0
H673 H 0.4218 1.00243 0.23924 0.0
H674 H 0.44047 0.98618 0.33648 0.0
H675 H 0.45241 0.00832 0.29229 0.0
H676 H 0.22916 0.07277 0.32608 0.0
H677 H 0.24048 0.09461 0.28174 0.0
H678 H 0.23177 1.00633 0.35203 0.0
H679 H 0.27365 0.9761 0.378 0.0
C680 C 0.27169 0.39621 0.53548 0.0
C681 C 0.29961 0.43764 0.53669 0.0
C682 C 0.26758 0.46016 0.47477 0.0
C683 C 0.24525 0.41554 0.47113 0.0
N684 N 0.23433 0.33719 0.49759 0.0
N685 N 0.32998 0.50518 0.5031 0.0
C686 C 0.24941 0.38258 0.50144 0.0
C687 C 0.29905 0.46855 0.50514 0.0
N688 N 0.26484 0.3704 0.56729 0.0
N689 N 0.25715 0.49582 0.45041 0.0
H690 H 0.35466 0.51163 0.52363 0.0
H691 H 0.33478 0.52567 0.47921 0.0
H692 H 0.23264 0.49259 0.42911 0.0
H693 H 0.26863 0.53032 0.45402 0.0
H694 H 0.24058 0.34299 0.56929 0.0
H695 H 0.27951 0.37957 0.59279 0.0
H696 H 0.24089 0.31094 0.51732 0.0
H697 H 0.2211 0.32364 0.47301 0.0
C698 C 0.81739 0.97714 0.25724 0.0
C699 C 0.83356 1.001 0.22456 0.0
C700 C 0.83444 0.07528 0.26067 0.0
C701 C 0.82288 0.05057 0.29405 0.0
N702 N 0.81 0.976 0.32474 0.0
N703 N 0.85944 0.07375 0.19712 0.0
C704 C 0.81588 1.00095 0.2924 0.0
C705 C 0.8425 0.05027 0.2271 0.0
N706 N 0.80142 0.93194 0.2544 0.0
N707 N 0.83541 0.12338 0.26017 0.0
H708 H 0.85661 0.05922 0.17138 0.0
H709 H 0.87611 0.1064 0.1978 0.0
H710 H 0.82818 0.14383 0.28301 0.0
H711 H 0.83984 0.14392 0.23636 0.0
H712 H 0.78481 0.91381 0.27598 0.0
H713 H 0.80014 0.91427 0.22917 0.0
H714 H 0.80977 0.93941 0.32617 0.0
H715 H 0.80988 0.99181 0.35076 0.0
C716 C 0.27196 0.60111 0.04124 0.0
C717 C 0.2236 0.58988 0.03823 0.0
C718 C 0.23617 0.57116 0.97244 0.0
C719 C 0.28112 0.59192 0.97277 0.0
N720 N 0.34607 0.61839 1.01073 0.0
N721 N 0.1582 0.57569 0.99722 0.0
C722 C 0.30027 0.60474 1.00821 0.0
C723 C 0.20532 0.57834 1.00273 0.0
N724 N 0.29104 0.60711 0.07575 0.0
N725 N 0.22415 0.54089 0.94503 0.0
H726 H 0.13468 0.5876 1.017 0.0
H727 H 0.14345 0.56841 0.97137 0.0
H728 H 0.24812 0.5305 0.92492 0.0
H729 H 0.19316 0.52126 0.94589 0.0
H730 H 0.32681 0.61033 0.0808 0.0
H731 H 0.27084 0.60662 0.0999 0.0
H732 H 0.36015 0.63551 0.03364 0.0
H733 H 0.37053 0.61125 0.99013 0.0
C734 C 0.63678 0.022 0.75531 0.0
C735 C 0.66965 0.02275 0.72563 0.0
C736 C 0.72415 0.97592 0.76449 0.0
C737 C 0.68907 0.97027 0.79275 0.0
N738 N 0.61173 0.98896 0.81479 0.0
N739 N 0.7442 0.99995 0.70123 0.0
C740 C 0.64531 0.99364 0.78795 0.0
C741 C 0.71333 0.99994 0.73028 0.0
N742 N 0.59797 0.04981 0.75275 0.0
N743 N 0.7682 0.95855 0.77003 0.0
H744 H 0.73886 0.01947 0.67687 0.0
H745 H 0.77358 0.9785 0.7 0.0
H746 H 0.77772 0.93759 0.79249 0.0
H747 H 0.79679 0.96727 0.75339 0.0
H748 H 0.57443 0.05486 0.77435 0.0
H749 H 0.59118 0.07131 0.72972 0.0
H750 H 0.57702 0.99907 0.81117 0.0
H751 H 0.61811 0.97335 0.84065 0.0
C752 C 0.4874 0.24002 0.15737 0.0
C753 C 0.46115 0.2337 0.1906 0.0
C754 C 0.51598 0.28658 0.22319 0.0
C755 C 0.54433 0.28949 0.19091 0.0
N756 N 0.56037 0.26449 0.12836 0.0
N757 N 0.45557 0.24343 0.25678 0.0
C758 C 0.53112 0.26462 0.15841 0.0
C759 C 0.47672 0.2552 0.22394 0.0
N760 N 0.46936 0.22493 0.12431 0.0
N761 N 0.52661 0.31372 0.2532 0.0
H762 H 0.4289 0.21834 0.25843 0.0
H763 H 0.46755 0.25445 0.28262 0.0
H764 H 0.55594 0.33574 0.25407 0.0
H765 H 0.50458 0.31715 0.27603 0.0
H766 H 0.48407 0.23326 0.09861 0.0
H767 H 0.43727 0.20752 0.12206 0.0
H768 H 0.5558 0.24224 0.10582 0.0
H769 H 0.59098 0.28458 0.12681 0.0
C770 C 0.49402 0.72059 0.45719 0.0
C771 C 0.53654 0.71969 0.43648 0.0
C772 C 0.52362 0.80275 0.41991 0.0
C773 C 0.47704 0.80048 0.43393 0.0
N774 N 0.41575 0.75255 0.46137 0.0
N775 N 0.58546 0.75929 0.39066 0.0
C776 C 0.46161 0.75812 0.45144 0.0
C777 C 0.54974 0.7606 0.41581 0.0
N778 N 0.4852 0.6868 0.48359 0.0
N779 N 0.54424 0.8452 0.41215 0.0
H780 H 0.60368 0.72887 0.38425 0.0
H781 H 0.59308 0.78743 0.37279 0.0
H782 H 0.52853 0.87726 0.41807 0.0
H783 H 0.57941 0.84845 0.40473 0.0
H784 H 0.45662 0.68822 0.50153 0.0
H785 H 0.50933 0.66085 0.49084 0.0
H786 H 0.40205 0.72058 0.4709 0.0
H787 H 0.39037 0.77807 0.45646 0.0
C788 C 0.98102 0.73428 0.71281 0.0
C789 C 0.96332 0.71499 0.67928 0.0
C790 C 0.01842 0.76401 0.64318 0.0
C791 C 0.03814 0.78133 0.67665 0.0
N792 N 0.04023 0.78173 0.74365 0.0
N793 N 0.96962 0.70539 0.61314 0.0
C794 C 0.01973 0.76641 0.71159 0.0
C795 C 0.98328 0.72827 0.64463 0.0
N796 N 0.95988 0.72286 0.74577 0.0
N797 N 0.03197 0.78337 0.6099 0.0
H798 H 0.94441 0.67867 0.61328 0.0
H799 H 0.98609 0.70961 0.58753 0.0
H800 H 0.05664 0.81048 0.60782 0.0
H801 H 0.01573 0.77603 0.58468 0.0
H802 H 0.96628 0.74019 0.7706 0.0
H803 H 0.93426 0.6968 0.74812 0.0
H804 H 0.0331 0.76766 0.76986 0.0
H805 H 0.06615 0.80759 0.74409 0.0
C806 C 0.99232 0.26844 0.96854 0.0
C807 C 0.98323 0.29435 0.93531 0.0
C808 C 0.03412 0.23983 0.90075 0.0
C809 C 0.04053 0.21184 0.93342 0.0
N810 N 0.02249 0.19747 0.99809 0.0
N811 N 0.98862 0.29985 0.8686 0.0
C812 C 0.01838 0.22548 0.96713 0.0
C813 C 1.00264 0.27891 0.90117 0.0
N814 N 0.97823 0.28622 1.00183 0.0
N815 N 0.05763 0.22889 0.86896 0.0
H816 H 0.96463 0.32737 0.86746 0.0
H817 H 0.99699 0.28722 0.84241 0.0
H818 H 0.07776 0.19872 0.86615 0.0
H819 H 0.0596 0.25124 0.8459 0.0
H820 H 0.98823 0.27233 1.02751 0.0
H821 H 0.95933 0.31736 1.00403 0.0
H822 H 1.00223 0.20147 1.02185 0.0
H823 H 0.04485 0.16865 0.99958 0.0
C824 C 0.50842 0.78759 0.84568 0.0
C825 C 0.54614 0.77634 0.86993 0.0
C826 C 0.5026 0.70633 0.89186 0.0
C827 C 0.46609 0.7165 0.86631 0.0
N828 N 0.44381 0.7564 0.80978 0.0
N829 N 0.58513 0.715 0.90532 0.0
C830 C 0.47183 0.7541 0.84047 0.0
C831 C 0.54507 0.73276 0.88994 0.0
N832 N 0.50619 0.83071 0.8287 0.0
N833 N 0.4965 0.67268 0.91881 0.0
H834 H 0.61784 0.73072 0.90159 0.0
H835 H 0.58689 0.68157 0.91741 0.0
H836 H 0.46615 0.65234 0.92117 0.0
H837 H 0.52018 0.6677 0.94059 0.0
H838 H 0.47699 0.84188 0.81361 0.0
H839 H 0.53119 0.85701 0.83265 0.0
H840 H 0.44856 0.78107 0.78846 0.0
H841 H 0.42018 0.72955 0.80349 0.0
C842 C 0.48293 0.26222 0.65928 0.0
C843 C 0.47769 0.28828 0.62554 0.0
C844 C 0.53018 0.23227 0.59436 0.0
C845 C 0.5321 0.20411 0.62731 0.0
N846 N 0.50541 0.18935 0.69 0.0
N847 N 0.49036 0.29406 0.55949 0.0
C848 C 0.50664 0.21805 0.65927 0.0
C849 C 0.49998 0.27234 0.59272 0.0
N850 N 0.46817 0.28114 0.69201 0.0
N851 N 0.55695 0.22063 0.5644 0.0
H852 H 0.46767 0.32255 0.55702 0.0
H853 H 0.50128 0.28143 0.53391 0.0
H854 H 0.5768 0.19003 0.56328 0.0
H855 H 0.56182 0.24267 0.54142 0.0
H856 H 0.47573 0.26655 0.71799 0.0
H857 H 0.45242 0.31401 0.69375 0.0
H858 H 0.48246 0.1943 0.71207 0.0
H859 H 0.52529 0.15885 0.69268 0.0
C860 C 0.03278 0.28203 0.40704 0.0
C861 C 0.05154 0.29418 0.3716 0.0
C862 C 0.99386 0.24102 0.34219 0.0
C863 C 0.97237 0.23256 0.37725 0.0
N864 N 0.96838 0.249 0.44283 0.0
N865 N 0.0455 0.29086 0.30499 0.0
C866 C 0.99084 0.25451 0.40952 0.0
C867 C 0.03105 0.27485 0.33905 0.0
N868 N 0.05657 0.29425 0.43857 0.0
N869 N 0.97847 0.21706 0.31174 0.0
H870 H 0.07111 0.31686 0.30186 0.0
H871 H 0.02934 0.2819 0.28008 0.0
H872 H 0.95013 0.19381 0.31256 0.0
H873 H 0.99578 0.21755 0.28631 0.0
H874 H 0.04778 0.28182 0.46498 0.0
H875 H 0.08787 0.31327 0.43827 0.0
H876 H 0.97602 0.2692 0.46606 0.0
H877 H 0.94029 0.22594 0.44686 0.0
C878 C 0.97928 0.72058 0.13121 0.0
C879 C 0.02772 0.72606 0.12248 0.0
C880 C 0.01252 0.80926 0.10802 0.0
C881 C 0.96668 0.80574 0.12375 0.0
N882 N 0.91081 0.75709 0.1574 0.0
N883 N 0.09175 0.77951 0.10911 0.0
C884 C 0.95111 0.76111 0.1372 0.0
C885 C 0.04474 0.77146 0.1126 0.0
N886 N 0.95928 0.67681 0.13236 0.0
N887 N 0.02507 0.84775 0.0872 0.0
H888 H 0.1169 0.75366 0.11363 0.0
H889 H 0.10591 0.81315 0.10571 0.0
H890 H 1.00192 0.87464 0.08041 0.0
H891 H 0.05654 0.84994 0.07262 0.0
H892 H 0.92331 0.67151 0.13531 0.0
H893 H 0.97732 0.64633 0.12561 0.0
H894 H 0.90081 0.7259 0.17074 0.0
H895 H 0.89013 0.78562 0.16449 0.0
C896 C 0.25405 0.30754 0.12793 0.0
C897 C 0.2266 0.27351 0.14762 0.0
C898 C 0.16743 0.33379 0.16058 0.0
C899 C 0.19417 0.36687 0.13972 0.0
N900 N 0.25706 0.38358 0.09693 0.0
N901 N 0.15503 0.25295 0.18018 0.0
C902 C 0.23594 0.35338 0.12168 0.0
C903 C 0.18233 0.2861 0.16276 0.0
N904 N 0.29788 0.29642 0.11557 0.0
N905 N 0.12909 0.34871 0.17992 0.0
H906 H 0.16618 0.21906 0.18636 0.0
H907 H 0.12016 0.25808 0.18733 0.0
H908 H 0.11819 0.38366 0.18017 0.0
H909 H 0.1095 0.32762 0.19788 0.0
H910 H 0.32201 0.32141 0.10616 0.0
H911 H 0.31157 0.26256 0.1165 0.0
H912 H 0.28425 0.37386 0.07942 0.0
H913 H 0.2448 0.41741 0.0913 0.0
C914 C 0.42832 0.46488 0.417 0.0
C915 C 0.41581 0.44813 0.38164 0.0
C916 C 0.49631 0.46089 0.36028 0.0
C917 C 0.50596 0.48602 0.39334 0.0
N918 N 0.47613 0.5182 0.4514 0.0
N919 N 0.43606 0.43641 0.31714 0.0
C920 C 0.47051 0.49018 0.42108 0.0
C921 C 0.44933 0.44736 0.35255 0.0
N922 N 0.40126 0.45442 0.44734 0.0
N923 N 0.53146 0.45013 0.33618 0.0
H924 H 0.40166 0.42832 0.30977 0.0
H925 H 0.45829 0.44004 0.29435 0.0
H926 H 0.56623 0.45996 0.34035 0.0
H927 H 0.52672 0.42782 0.31368 0.0
H928 H 0.41154 0.46215 0.4744 0.0
H929 H 0.37158 0.43293 0.4461 0.0
H930 H 0.44845 0.52651 0.46899 0.0
H931 H 0.50687 0.53555 0.45833 0.0
C932 C 0.30846 0.7273 0.6764 0.0
C933 C 0.27281 0.74159 0.65092 0.0
C934 C 0.27797 0.66569 0.61954 0.0
C935 C 0.31183 0.65064 0.64594 0.0
N936 N 0.35239 0.66261 0.70381 0.0
N937 N 0.21502 0.71938 0.60497 0.0
C938 C 0.32536 0.68027 0.67552 0.0
C939 C 0.25484 0.70925 0.62459 0.0
N940 N 0.32569 0.75826 0.70191 0.0
N941 N 0.26934 0.63944 0.58862 0.0
H942 H 0.19654 0.75061 0.60774 0.0
H943 H 0.19765 0.69485 0.58855 0.0
H944 H 0.28587 0.60756 0.58346 0.0
H945 H 0.24909 0.65138 0.56634 0.0
H946 H 0.35544 0.75191 0.71795 0.0
H947 H 0.31171 0.79151 0.70611 0.0
H948 H 0.35897 0.68035 0.72845 0.0
H949 H 0.36485 0.62817 0.70425 0.0
C950 C 0.03171 0.51616 0.85947 0.0
C951 C 1.00386 0.53341 0.88877 0.0
C952 C 0.06726 0.58706 0.90735 0.0
C953 C 0.09692 0.56637 0.88043 0.0
N954 N 0.10814 0.51193 0.8302 0.0
N955 N 0.99534 0.58244 0.94273 0.0
C956 C 0.07934 0.53105 0.85629 0.0
C957 C 0.02139 0.56864 0.91291 0.0
N958 N 0.01188 0.48647 0.83416 0.0
N959 N 0.08295 0.6241 0.92801 0.0
H960 H 0.96074 0.57211 0.947 0.0
H961 H 0.00865 0.60213 0.96459 0.0
H962 H 0.11761 0.63569 0.92826 0.0
H963 H 0.06109 0.64506 0.94389 0.0
H964 H 0.02841 0.47529 0.81013 0.0
H965 H 0.97691 0.47567 0.83574 0.0
H966 H 0.09974 0.48225 0.81487 0.0
H967 H 0.14161 0.52484 0.82444 0.0
C968 C 0.73899 0.7092 0.94023 0.0
C969 C 0.77022 0.74799 0.93812 0.0
C970 C 0.83575 0.69238 0.94514 0.0
C971 C 0.80478 0.65458 0.93633 0.0
N972 N 0.72549 0.62842 0.9236 0.0
N973 N 0.84882 0.77646 0.94962 0.0
C974 C 0.75592 0.66322 0.9338 0.0
C975 C 0.81889 0.73967 0.9439 0.0
N976 N 0.69343 0.71615 0.95008 0.0
N977 N 0.88019 0.68295 0.95739 0.0
H978 H 0.83736 0.80898 0.95898 0.0
H979 H 0.88502 0.77409 0.94668 0.0
H980 H 0.89277 0.64897 0.96157 0.0
H981 H 0.90322 0.70842 0.96727 0.0
H982 H 0.66999 0.68856 0.95504 0.0
H983 H 0.68128 0.74906 0.95818 0.0
H984 H 0.69021 0.63475 0.91798 0.0
H985 H 0.73601 0.5945 0.91709 0.0
C986 C 0.56225 0.57994 0.68616 0.0
C987 C 0.60047 0.54987 0.69454 0.0
C988 C 0.54529 0.48387 0.70248 0.0
C989 C 0.50736 0.51447 0.69358 0.0
N990 N 0.48103 0.59485 0.69938 0.0
N991 N 0.62608 0.47695 0.72291 0.0
C992 C 0.51603 0.5636 0.69258 0.0
C993 C 0.59145 0.50278 0.70628 0.0
N994 N 0.56939 0.62329 0.67038 0.0
N995 N 0.53731 0.4369 0.70784 0.0
H996 H 0.65947 0.49029 0.72817 0.0
H997 H 0.62041 0.44408 0.73519 0.0
H998 H 0.50381 0.42277 0.71103 0.0
H999 H 0.56393 0.41198 0.70861 0.0
H1000 H 0.5418 0.64432 0.66109 0.0
H1001 H 0.60232 0.63576 0.66247 0.0
H1002 H 0.48688 0.63104 0.70049 0.0
H1003 H 0.44871 0.58434 0.71014 0.0
C1004 C 0.70482 0.27668 0.45031 0.0
C1005 C 0.75026 0.26881 0.43558 0.0
C1006 C 0.75686 0.35165 0.41786 0.0
C1007 C 0.71113 0.36022 0.43129 0.0
N1008 N 0.64985 0.33405 0.47345 0.0
N1009 N 0.8262 0.30593 0.42914 0.0
C1010 C 0.68708 0.32362 0.4512 0.0
C1011 C 0.77856 0.30855 0.42689 0.0
N1012 N 0.67953 0.24022 0.4651 0.0
N1013 N 0.77934 0.38341 0.39533 0.0
H1014 H 0.84288 0.27669 0.44082 0.0
H1015 H 0.84798 0.33506 0.42485 0.0
H1016 H 0.76361 0.41401 0.3853 0.0
H1017 H 0.81166 0.3763 0.38319 0.0
H1018 H 0.64367 0.24209 0.47023 0.0
H1019 H 0.69484 0.20855 0.47326 0.0
H1020 H 0.63343 0.30953 0.4908 0.0
H1021 H 0.63884 0.36824 0.4784 0.0
C1022 C 0.93363 0.44705 0.13511 0.0
C1023 C 0.90364 0.46433 0.16315 0.0
C1024 C 0.96369 0.52114 0.18168 0.0
C1025 C 0.99598 0.49955 0.15733 0.0
N1026 N 0.01213 0.44142 0.1104 0.0
N1027 N 0.89309 0.51158 0.21792 0.0
C1028 C 0.98118 0.46209 0.13408 0.0
C1029 C 0.9193 0.49984 0.18766 0.0
N1030 N 0.91597 0.41813 0.10827 0.0
N1031 N 0.97469 0.56268 0.19844 0.0
H1032 H 0.8609 0.49602 0.22421 0.0
H1033 H 0.90547 0.53342 0.23887 0.0
H1034 H 0.00663 0.57994 0.19481 0.0
H1035 H 0.95035 0.5824 0.21306 0.0
H1036 H 0.93428 0.40891 0.08447 0.0
H1037 H 0.88115 0.40685 0.10777 0.0
H1038 H 1.00512 0.41026 0.09648 0.0
H1039 H 0.04594 0.45393 0.10576 0.0
C1040 C 0.70374 0.77645 0.67952 0.0
C1041 C 0.73169 0.75345 0.65274 0.0
C1042 C 0.73752 0.82614 0.61599 0.0
C1043 C 0.70697 0.84826 0.64139 0.0
N1044 N 0.65338 0.84219 0.6932 0.0
N1045 N 0.76873 0.75289 0.59274 0.0
C1046 C 0.68806 0.82291 0.67214 0.0
C1047 C 0.74669 0.77731 0.62012 0.0
N1048 N 0.69337 0.75454 0.71254 0.0
N1049 N 0.75912 0.85224 0.5888 0.0
H1050 H 0.7756 0.71693 0.59492 0.0
H1051 H 0.77641 0.76707 0.56665 0.0
H1052 H 0.75381 0.88831 0.58534 0.0
H1053 H 0.78539 0.83923 0.57179 0.0
H1054 H 0.67845 0.77172 0.73498 0.0
H1055 H 0.70271 0.71995 0.7187 0.0
H1056 H 0.6346 0.82332 0.71322 0.0
H1057 H 0.64019 0.87586 0.68861 0.0
C1058 C 0.94617 0.91723 0.8686 0.0
C1059 C 0.90625 0.94098 0.88235 0.0
C1060 C 0.95669 1.00024 0.90994 0.0
C1061 C 0.99681 0.97981 0.89305 0.0
N1062 N 0.02623 0.92592 0.84732 0.0
N1063 N 0.87439 0.01506 0.9016 0.0
C1064 C 0.99061 0.94026 0.86967 0.0
C1065 C 0.91171 0.9856 0.89851 0.0
N1066 N 0.94226 0.87242 0.85564 0.0
N1067 N 0.96057 0.03115 0.9386 0.0
H1068 H 0.84155 1.00681 0.89061 0.0
H1069 H 0.8778 0.04952 0.91094 0.0
H1070 H 0.9921 0.03976 0.95137 0.0
H1071 H 0.93143 0.04324 0.95305 0.0
H1072 H 0.97122 0.85217 0.84869 0.0
H1073 H 0.9106 0.85402 0.85501 0.0
H1074 H 0.02233 0.89948 0.8277 0.0
H1075 H 0.05767 0.94447 0.84515 0.0
C1076 C 0.80255 0.19853 0.09755 0.0
C1077 C 0.79717 0.16274 0.1252 0.0
C1078 C 0.77808 0.22146 0.1707 0.0
C1079 C 0.77599 0.25642 0.1427 0.0
N1080 N 0.78724 0.27933 0.07869 0.0
N1081 N 0.76779 0.1399 0.18606 0.0
C1082 C 0.78871 0.24542 0.10575 0.0
C1083 C 0.78056 0.17394 0.16094 0.0
N1084 N 0.82086 0.18762 0.06367 0.0
N1085 N 0.7826 0.23406 0.20686 0.0
H1086 H 0.76849 0.10409 0.18064 0.0
H1087 H 0.75195 0.14788 0.2113 0.0
H1088 H 0.78801 0.26897 0.21401 0.0
H1089 H 0.78909 0.20982 0.22812 0.0
H1090 H 0.83074 0.21269 0.04386 0.0
H1091 H 0.82782 0.15314 0.05582 0.0
H1092 H 0.79051 0.27256 0.05044 0.0
H1093 H 0.7813 0.31449 0.08461 0.0
C1094 C 0.53383 0.06623 0.43078 0.0
C1095 C 0.51959 0.03067 0.40543 0.0
C1096 C 0.59795 0.03078 0.37776 0.0
C1097 C 0.61252 0.06484 0.4039 0.0
N1098 N 0.59835 0.10847 0.4596 0.0
N1099 N 0.5411 0.9712 0.36119 0.0
C1100 C 0.58151 0.08092 0.43156 0.0
C1101 C 0.55259 0.01046 0.38091 0.0
N1102 N 0.50212 0.08554 0.45454 0.0
N1103 N 0.62661 0.01935 0.34883 0.0
H1104 H 0.50806 0.95549 0.36202 0.0
H1105 H 0.56548 0.95175 0.34642 0.0
H1106 H 0.66023 0.03324 0.34544 0.0
H1107 H 0.61569 0.99908 0.32646 0.0
H1108 H 0.5088 0.11552 0.47006 0.0
H1109 H 0.46806 0.07308 0.45787 0.0
H1110 H 0.57916 0.11715 0.48309 0.0
H1111 H 0.63324 0.11946 0.46111 0.0
C1112 C 0.30815 0.24487 0.44193 0.0
C1113 C 0.28081 0.25421 0.4096 0.0
C1114 C 0.29708 0.17449 0.38751 0.0
C1115 C 0.31838 0.16332 0.42192 0.0
N1116 N 0.33647 0.18539 0.48499 0.0
N1117 N 0.24449 0.2242 0.35327 0.0
C1118 C 0.32206 0.19784 0.45 0.0
C1119 C 0.2734 0.21782 0.38316 0.0
N1120 N 0.32116 0.28056 0.46493 0.0
N1121 N 0.30232 0.14531 0.35783 0.0
H1122 H 0.23118 0.25645 0.34483 0.0
H1123 H 0.23186 0.19617 0.33765 0.0
H1124 H 0.32238 0.11479 0.3588 0.0
H1125 H 0.2914 0.15411 0.33103 0.0
H1126 H 0.34532 0.27629 0.48644 0.0
H1127 H 0.31104 0.31533 0.46085 0.0
H1128 H 0.33506 0.20807 0.5075 0.0
H1129 H 0.34524 0.15106 0.49257 0.0
C1130 C 0.04429 0.01221 0.13475 0.0
C1131 C 0.00849 0.02826 0.15934 0.0
C1132 C 0.06721 0.07326 0.19385 0.0
C1133 C 0.10108 0.06184 0.16656 0.0
N1134 N 0.12118 0.02625 0.10841 0.0
N1135 N 0.98541 0.07482 0.21174 0.0
C1136 C 0.08963 0.03251 0.13654 0.0
C1137 C 0.01981 0.05929 0.18861 0.0
N1138 N 0.03562 0.97756 0.10958 0.0
N1139 N 0.08091 0.0953 0.22573 0.0
H1140 H 0.95138 0.06142 0.21132 0.0
H1141 H 0.99001 0.10227 0.23033 0.0
H1142 H 0.11565 0.10439 0.23129 0.0
H1143 H 0.05893 0.10064 0.24831 0.0
H1144 H 0.06204 0.95984 0.09564 0.0
H1145 H 1.0027 0.96424 0.1035 0.0
H1146 H 0.11299 0.00991 0.08346 0.0
H1147 H 0.15472 0.04093 0.10845 0.0
C1148 C 0.17003 0.812 0.91157 0.0
C1149 C 0.1948 0.84327 0.93524 0.0
C1150 C 0.25237 0.78125 0.94863 0.0
C1151 C 0.23114 0.75296 0.92109 0.0
N1152 N 0.1759 0.74614 0.8703 0.0
N1153 N 0.26013 0.85843 0.97622 0.0
C1154 C 0.19142 0.76935 0.90112 0.0
C1155 C 0.23628 0.82814 0.9537 0.0
N1156 N 0.12613 0.82248 0.89872 0.0
N1157 N 0.28702 0.76272 0.97054 0.0
H1158 H 0.24743 0.89148 0.98325 0.0
H1159 H 0.29344 0.85168 0.98678 0.0
H1160 H 0.29909 0.72837 0.96758 0.0
H1161 H 0.30107 0.77967 0.99354 0.0
H1162 H 0.10499 0.79804 0.88518 0.0
H1163 H 0.10861 0.85356 0.90414 0.0
H1164 H 0.15132 0.76017 0.85187 0.0
H1165 H 0.19076 0.71523 0.86075 0.0
C1166 C 0.42215 0.97511 0.68863 0.0
C1167 C 0.39952 0.94685 0.66173 0.0
C1168 C 0.4731 0.93971 0.62745 0.0
C1169 C 0.49485 0.97182 0.65217 0.0
N1170 N 0.48936 0.02332 0.70481 0.0
N1171 N 0.4006 0.90833 0.60252 0.0
C1172 C 0.46906 0.99053 0.68233 0.0
C1173 C 0.42414 0.93111 0.63017 0.0
N1174 N 0.399 0.98658 0.72049 0.0
N1175 N 0.49929 0.91619 0.60206 0.0
H1176 H 0.36494 0.90035 0.60403 0.0
H1177 H 0.41541 0.90105 0.57682 0.0
H1178 H 0.53533 0.92007 0.60005 0.0
H1179 H 0.48625 0.88905 0.58576 0.0
H1180 H 0.4151 1.00232 0.7432 0.0
H1181 H 0.36395 0.97782 0.72518 0.0
H1182 H 0.47096 0.04271 0.72428 0.0
H1183 H 0.52453 0.03291 0.70275 0.0
loop_
_geom_bond_atom_site_label_1
_geom_bond_atom_site_label_2
_geom_bond_distance
_geom_bond_site_symmetry_2
_ccdc_geom_bond_type
Tb0 O3 2.453 . S
Tb0 O4 2.596 . S
Tb0 O5 2.374 . S
Tb0 O13 2.343 . S
Tb0 O15 2.353 . S
Tb0 O17 2.427 . S
Tb0 O18 2.513 . S
C1 O5 1.251 . S
C1 O7 1.263 . S
Tb2 O4 2.343 . S
Tb2 O7 2.353 . S
Tb2 O10 2.427 . S
Tb2 O11 2.513 . S
Tb2 O12 2.453 . S
Tb2 O13 2.596 . S
Tb2 O14 2.374 . S
O3 Tb0 2.453 . S
O3 C19 1.245 . S
O4 Tb0 2.596 . S
O4 Tb2 2.343 . S
O4 C19 1.259 . S
O5 Tb0 2.374 . S
O5 C1 1.251 . S
C6 O10 1.275 . S
C6 O11 1.246 . S
O7 C1 1.263 . S
O7 Tb2 2.353 . S
C8 O12 1.245 . S
C8 O13 1.259 . S
C9 O14 1.250 . S
C9 O15 1.263 . S
O10 Tb2 2.427 . S
O10 C6 1.275 . S
O11 Tb2 2.513 . S
O11 C6 1.246 . S
O12 Tb2 2.453 . S
O12 C8 1.245 . S
O13 Tb0 2.343 . S
O13 Tb2 2.596 . S
O13 C8 1.259 . S
O14 Tb2 2.374 . S
O14 C9 1.250 . S
O15 Tb0 2.353 . S
O15 C9 1.263 . S
C16 O17 1.275 . S
C16 O18 1.246 . S
O17 Tb0 2.427 . S
O17 C16 1.275 . S
O18 Tb0 2.513 . S
O18 C16 1.246 . S
C19 O3 1.245 . S
C19 O4 1.259 . S
Tb20 O23 2.453 . S
Tb20 O24 2.596 . S
Tb20 O25 2.374 . S
Tb20 O33 2.343 . S
Tb20 O35 2.353 . S
Tb20 O37 2.427 . S
Tb20 O38 2.513 . S
C21 O25 1.251 . S
C21 O27 1.263 . S
Tb22 O24 2.343 . S
Tb22 O27 2.353 . S
Tb22 O30 2.427 . S
Tb22 O31 2.513 . S
Tb22 O32 2.453 . S
Tb22 O33 2.596 . S
Tb22 O34 2.374 . S
O23 Tb20 2.453 . S
O23 C39 1.245 . S
O24 Tb20 2.596 . S
O24 Tb22 2.343 . S
O24 C39 1.259 . S
O25 Tb20 2.374 . S
O25 C21 1.251 . S
C26 O30 1.275 . S
C26 O31 1.246 . S
O27 C21 1.263 . S
O27 Tb22 2.353 . S
C28 O32 1.245 . S
C28 O33 1.259 . S
C29 O34 1.250 . S
C29 O35 1.263 . S
O30 Tb22 2.427 . S
O30 C26 1.275 . S
O31 Tb22 2.513 . S
O31 C26 1.246 . S
O32 Tb22 2.453 . S
O32 C28 1.245 . S
O33 Tb20 2.343 . S
O33 Tb22 2.596 . S
O33 C28 1.259 . S
O34 Tb22 2.374 . S
O34 C29 1.250 . S
O35 Tb20 2.353 . S
O35 C29 1.263 . S
C36 O37 1.275 . S
C36 O38 1.246 . S
O37 Tb20 2.427 . S
O37 C36 1.275 . S
O38 Tb20 2.513 . S
O38 C36 1.246 . S
C39 O23 1.245 . S
C39 O24 1.259 . S
Tb40 O43 2.453 . S
Tb40 O44 2.596 . S
Tb40 O45 2.374 . S
Tb40 O53 2.343 . S
Tb40 O55 2.353 . S
Tb40 O57 2.427 . S
Tb40 O58 2.513 . S
C41 O45 1.251 . S
C41 O47 1.263 . S
Tb42 O44 2.343 . S
Tb42 O47 2.353 . S
Tb42 O50 2.427 . S
Tb42 O51 2.513 . S
Tb42 O52 2.453 . S
Tb42 O53 2.596 . S
Tb42 O54 2.374 . S
O43 Tb40 2.453 . S
O43 C59 1.245 . S
O44 Tb40 2.596 . S
O44 Tb42 2.343 . S
O44 C59 1.259 . S
O45 Tb40 2.374 . S
O45 C41 1.251 . S
C46 O50 1.275 . S
C46 O51 1.246 . S
O47 C41 1.263 . S
O47 Tb42 2.353 . S
C48 O52 1.245 . S
C48 O53 1.259 . S
C49 O54 1.250 . S
C49 O55 1.263 . S
O50 Tb42 2.427 . S
O50 C46 1.275 . S
O51 Tb42 2.513 . S
O51 C46 1.246 . S
O52 Tb42 2.453 . S
O52 C48 1.245 . S
O53 Tb40 2.343 . S
O53 Tb42 2.596 . S
O53 C48 1.259 . S
O54 Tb42 2.374 . S
O54 C49 1.250 . S
O55 Tb40 2.353 . S
O55 C49 1.263 . S
C56 O57 1.275 . S
C56 O58 1.246 . S
O57 Tb40 2.427 . S
O57 C56 1.275 . S
O58 Tb40 2.513 . S
O58 C56 1.246 . S
C59 O43 1.245 . S
C59 O44 1.259 . S
Tb60 O63 2.453 . S
Tb60 O64 2.596 . S
Tb60 O65 2.374 . S
Tb60 O73 2.343 . S
Tb60 O75 2.353 . S
Tb60 O77 2.427 . S
Tb60 O78 2.513 . S
C61 O65 1.251 . S
C61 O67 1.263 . S
Tb62 O64 2.343 . S
Tb62 O67 2.353 . S
Tb62 O70 2.427 . S
Tb62 O71 2.513 . S
Tb62 O72 2.453 . S
Tb62 O73 2.596 . S
Tb62 O74 2.374 . S
O63 Tb60 2.453 . S
O63 C79 1.245 . S
O64 Tb60 2.596 . S
O64 Tb62 2.343 . S
O64 C79 1.259 . S
O65 Tb60 2.374 . S
O65 C61 1.251 . S
C66 O70 1.275 . S
C66 O71 1.246 . S
O67 C61 1.263 . S
O67 Tb62 2.353 . S
C68 O72 1.245 . S
C68 O73 1.259 . S
C69 O74 1.250 . S
C69 O75 1.263 . S
O70 Tb62 2.427 . S
O70 C66 1.275 . S
O71 Tb62 2.513 . S
O71 C66 1.246 . S
O72 Tb62 2.453 . S
O72 C68 1.245 . S
O73 Tb60 2.343 . S
O73 Tb62 2.596 . S
O73 C68 1.259 . S
O74 Tb62 2.374 . S
O74 C69 1.250 . S
O75 Tb60 2.353 . S
O75 C69 1.263 . S
C76 O77 1.275 . S
C76 O78 1.246 . S
O77 Tb60 2.427 . S
O77 C76 1.275 . S
O78 Tb60 2.513 . S
O78 C76 1.246 . S
C79 O63 1.245 . S
C79 O64 1.259 . S
Tb80 O83 2.453 . S
Tb80 O84 2.596 . S
Tb80 O85 2.374 . S
Tb80 O93 2.343 . S
Tb80 O95 2.353 . S
Tb80 O97 2.427 . S
Tb80 O98 2.513 . S
C81 O85 1.251 . S
C81 O87 1.263 . S
Tb82 O84 2.343 . S
Tb82 O87 2.353 . S
Tb82 O90 2.427 . S
Tb82 O91 2.513 . S
Tb82 O92 2.453 . S
Tb82 O93 2.596 . S
Tb82 O94 2.374 . S
O83 Tb80 2.453 . S
O83 C99 1.245 . S
O84 Tb80 2.596 . S
O84 Tb82 2.343 . S
O84 C99 1.259 . S
O85 Tb80 2.374 . S
O85 C81 1.251 . S
C86 O90 1.275 . S
C86 O91 1.246 . S
O87 C81 1.263 . S
O87 Tb82 2.353 . S
C88 O92 1.245 . S
C88 O93 1.259 . S
C89 O94 1.250 . S
C89 O95 1.263 . S
O90 Tb82 2.427 . S
O90 C86 1.275 . S
O91 Tb82 2.513 . S
O91 C86 1.246 . S
O92 Tb82 2.453 . S
O92 C88 1.245 . S
O93 Tb80 2.343 . S
O93 Tb82 2.596 . S
O93 C88 1.259 . S
O94 Tb82 2.374 . S
O94 C89 1.250 . S
O95 Tb80 2.353 . S
O95 C89 1.263 . S
C96 O97 1.275 . S
C96 O98 1.246 . S
O97 Tb80 2.427 . S
O97 C96 1.275 . S
O98 Tb80 2.513 . S
O98 C96 1.246 . S
C99 O83 1.245 . S
C99 O84 1.259 . S
Tb100 O103 2.453 . S
Tb100 O104 2.596 . S
Tb100 O105 2.374 . S
Tb100 O113 2.343 . S
Tb100 O115 2.353 . S
Tb100 O117 2.427 . S
Tb100 O118 2.513 . S
C101 O105 1.251 . S
C101 O107 1.263 . S
Tb102 O104 2.343 . S
Tb102 O107 2.353 . S
Tb102 O110 2.427 . S
Tb102 O111 2.513 . S
Tb102 O112 2.453 . S
Tb102 O113 2.596 . S
Tb102 O114 2.374 . S
O103 Tb100 2.453 . S
O103 C119 1.245 . S
O104 Tb100 2.596 . S
O104 Tb102 2.343 . S
O104 C119 1.259 . S
O105 Tb100 2.374 . S
O105 C101 1.251 . S
C106 O110 1.275 . S
C106 O111 1.246 . S
O107 C101 1.263 . S
O107 Tb102 2.353 . S
C108 O112 1.245 . S
C108 O113 1.259 . S
C109 O114 1.250 . S
C109 O115 1.263 . S
O110 Tb102 2.427 . S
O110 C106 1.275 . S
O111 Tb102 2.513 . S
O111 C106 1.246 . S
O112 Tb102 2.453 . S
O112 C108 1.245 . S
O113 Tb100 2.343 . S
O113 Tb102 2.596 . S
O113 C108 1.259 . S
O114 Tb102 2.374 . S
O114 C109 1.250 . S
O115 Tb100 2.353 . S
O115 C109 1.263 . S
C116 O117 1.275 . S
C116 O118 1.246 . S
O117 Tb100 2.427 . S
O117 C116 1.275 . S
O118 Tb100 2.513 . S
O118 C116 1.246 . S
C119 O103 1.245 . S
C119 O104 1.259 . S
Tb120 O123 2.453 . S
Tb120 O124 2.596 . S
Tb120 O125 2.374 . S
Tb120 O133 2.343 . S
Tb120 O135 2.353 . S
Tb120 O137 2.427 . S
Tb120 O138 2.513 . S
C121 O125 1.251 . S
C121 O127 1.263 . S
Tb122 O124 2.343 . S
Tb122 O127 2.353 . S
Tb122 O130 2.427 . S
Tb122 O131 2.513 . S
Tb122 O132 2.453 . S
Tb122 O133 2.596 . S
Tb122 O134 2.374 . S
O123 Tb120 2.453 . S
O123 C139 1.245 . S
O124 Tb120 2.596 . S
O124 Tb122 2.343 . S
O124 C139 1.259 . S
O125 Tb120 2.374 . S
O125 C121 1.251 . S
C126 O130 1.275 . S
C126 O131 1.246 . S
O127 C121 1.263 . S
O127 Tb122 2.353 . S
C128 O132 1.245 . S
C128 O133 1.259 . S
C129 O134 1.250 . S
C129 O135 1.263 . S
O130 Tb122 2.427 . S
O130 C126 1.275 . S
O131 Tb122 2.513 . S
O131 C126 1.246 . S
O132 Tb122 2.453 . S
O132 C128 1.245 . S
O133 Tb120 2.343 . S
O133 Tb122 2.596 . S
O133 C128 1.259 . S
O134 Tb122 2.374 . S
O134 C129 1.250 . S
O135 Tb120 2.353 . S
O135 C129 1.263 . S
C136 O137 1.275 . S
C136 O138 1.246 . S
O137 Tb120 2.427 . S
O137 C136 1.275 . S
O138 Tb120 2.513 . S
O138 C136 1.246 . S
C139 O123 1.245 . S
C139 O124 1.259 . S
Tb140 O143 2.453 . S
Tb140 O144 2.596 . S
Tb140 O145 2.374 . S
Tb140 O153 2.343 . S
Tb140 O155 2.353 . S
Tb140 O157 2.427 . S
Tb140 O158 2.513 . S
C141 O145 1.251 . S
C141 O147 1.263 . S
Tb142 O144 2.343 . S
Tb142 O147 2.353 . S
Tb142 O150 2.427 . S
Tb142 O151 2.513 . S
Tb142 O152 2.453 . S
Tb142 O153 2.596 . S
Tb142 O154 2.374 . S
O143 Tb140 2.453 . S
O143 C159 1.245 . S
O144 Tb140 2.596 . S
O144 Tb142 2.343 . S
O144 C159 1.259 . S
O145 Tb140 2.374 . S
O145 C141 1.251 . S
C146 O150 1.275 . S
C146 O151 1.246 . S
O147 C141 1.263 . S
O147 Tb142 2.353 . S
C148 O152 1.245 . S
C148 O153 1.259 . S
C149 O154 1.250 . S
C149 O155 1.263 . S
O150 Tb142 2.427 . S
O150 C146 1.275 . S
O151 Tb142 2.513 . S
O151 C146 1.246 . S
O152 Tb142 2.453 . S
O152 C148 1.245 . S
O153 Tb140 2.343 . S
O153 Tb142 2.596 . S
O153 C148 1.259 . S
O154 Tb142 2.374 . S
O154 C149 1.250 . S
O155 Tb140 2.353 . S
O155 C149 1.263 . S
C156 O157 1.275 . S
C156 O158 1.246 . S
O157 Tb140 2.427 . S
O157 C156 1.275 . S
O158 Tb140 2.513 . S
O158 C156 1.246 . S
C159 O143 1.245 . S
C159 O144 1.259 . S
Tb160 O163 2.453 . S
Tb160 O164 2.596 . S
Tb160 O165 2.374 . S
Tb160 O173 2.343 . S
Tb160 O175 2.353 . S
Tb160 O177 2.427 . S
Tb160 O178 2.513 . S
C161 O165 1.251 . S
C161 O167 1.263 . S
Tb162 O164 2.343 . S
Tb162 O167 2.353 . S
Tb162 O170 2.427 . S
Tb162 O171 2.513 . S
Tb162 O172 2.453 . S
Tb162 O173 2.596 . S
Tb162 O174 2.374 . S
O163 Tb160 2.453 . S
O163 C179 1.245 . S
O164 Tb160 2.596 . S
O164 Tb162 2.343 . S
O164 C179 1.259 . S
O165 Tb160 2.374 . S
O165 C161 1.251 . S
C166 O170 1.275 . S
C166 O171 1.246 . S
O167 C161 1.263 . S
O167 Tb162 2.353 . S
C168 O172 1.245 . S
C168 O173 1.259 . S
C169 O174 1.250 . S
C169 O175 1.263 . S
O170 Tb162 2.427 . S
O170 C166 1.275 . S
O171 Tb162 2.513 . S
O171 C166 1.246 . S
O172 Tb162 2.453 . S
O172 C168 1.245 . S
O173 Tb160 2.343 . S
O173 Tb162 2.596 . S
O173 C168 1.259 . S
O174 Tb162 2.374 . S
O174 C169 1.250 . S
O175 Tb160 2.353 . S
O175 C169 1.263 . S
C176 O177 1.275 . S
C176 O178 1.246 . S
O177 Tb160 2.427 . S
O177 C176 1.275 . S
O178 Tb160 2.513 . S
O178 C176 1.246 . S
C179 O163 1.245 . S
C179 O164 1.259 . S
Tb180 O183 2.453 . S
Tb180 O184 2.596 1_545 S
Tb180 O185 2.374 . S
Tb180 O193 2.343 . S
Tb180 O195 2.353 . S
Tb180 O197 2.427 . S
Tb180 O198 2.513 . S
C181 O185 1.251 1_565 S
C181 O187 1.263 . S
Tb182 O184 2.343 . S
Tb182 O187 2.353 . S
Tb182 O190 2.427 . S
Tb182 O191 2.513 . S
Tb182 O192 2.453 . S
Tb182 O193 2.596 1_565 S
Tb182 O194 2.374 1_565 S
O183 Tb180 2.453 . S
O183 C199 1.245 . S
O184 Tb180 2.596 1_565 S
O184 Tb182 2.343 . S
O184 C199 1.259 1_565 S
O185 Tb180 2.374 . S
O185 C181 1.251 1_545 S
C186 O190 1.275 . S
C186 O191 1.246 . S
O187 C181 1.263 . S
O187 Tb182 2.353 . S
C188 O192 1.245 1_545 S
C188 O193 1.259 . S
C189 O194 1.250 . S
C189 O195 1.263 . S
O190 Tb182 2.427 . S
O190 C186 1.275 . S
O191 Tb182 2.513 . S
O191 C186 1.246 . S
O192 Tb182 2.453 . S
O192 C188 1.245 1_565 S
O193 Tb180 2.343 . S
O193 Tb182 2.596 1_545 S
O193 C188 1.259 . S
O194 Tb182 2.374 1_545 S
O194 C189 1.250 . S
O195 Tb180 2.353 . S
O195 C189 1.263 . S
C196 O197 1.275 . S
C196 O198 1.246 . S
O197 Tb180 2.427 . S
O197 C196 1.275 . S
O198 Tb180 2.513 . S
O198 C196 1.246 . S
C199 O183 1.245 . S
C199 O184 1.259 1_545 S
Tb200 O203 2.453 . S
Tb200 O204 2.596 . S
Tb200 O205 2.374 . S
Tb200 O213 2.343 . S
Tb200 O215 2.353 . S
Tb200 O217 2.427 . S
Tb200 O218 2.513 . S
C201 O205 1.251 . S
C201 O207 1.263 . S
Tb202 O204 2.343 . S
Tb202 O207 2.353 . S
Tb202 O210 2.427 . S
Tb202 O211 2.513 . S
Tb202 O212 2.453 . S
Tb202 O213 2.596 . S
Tb202 O214 2.374 . S
O203 Tb200 2.453 . S
O203 C219 1.245 . S
O204 Tb200 2.596 . S
O204 Tb202 2.343 . S
O204 C219 1.259 . S
O205 Tb200 2.374 . S
O205 C201 1.251 . S
C206 O210 1.275 . S
C206 O211 1.246 . S
O207 C201 1.263 . S
O207 Tb202 2.353 . S
C208 O212 1.245 . S
C208 O213 1.259 . S
C209 O214 1.250 . S
C209 O215 1.263 . S
O210 Tb202 2.427 . S
O210 C206 1.275 . S
O211 Tb202 2.513 . S
O211 C206 1.246 . S
O212 Tb202 2.453 . S
O212 C208 1.245 . S
O213 Tb200 2.343 . S
O213 Tb202 2.596 . S
O213 C208 1.259 . S
O214 Tb202 2.374 . S
O214 C209 1.250 . S
O215 Tb200 2.353 . S
O215 C209 1.263 . S
C216 O217 1.275 . S
C216 O218 1.246 . S
O217 Tb200 2.427 . S
O217 C216 1.275 . S
O218 Tb200 2.513 . S
O218 C216 1.246 . S
C219 O203 1.245 . S
C219 O204 1.259 . S
Tb220 O223 2.453 . S
Tb220 O224 2.596 1_565 S
Tb220 O225 2.374 . S
Tb220 O233 2.343 . S
Tb220 O235 2.353 . S
Tb220 O237 2.427 . S
Tb220 O238 2.513 . S
C221 O225 1.251 1_545 S
C221 O227 1.263 . S
Tb222 O224 2.343 . S
Tb222 O227 2.353 . S
Tb222 O230 2.427 . S
Tb222 O231 2.513 . S
Tb222 O232 2.453 . S
Tb222 O233 2.596 1_545 S
Tb222 O234 2.374 1_545 S
O223 Tb220 2.453 . S
O223 C239 1.245 . S
O224 Tb220 2.596 1_545 S
O224 Tb222 2.343 . S
O224 C239 1.259 1_545 S
O225 Tb220 2.374 . S
O225 C221 1.251 1_565 S
C226 O230 1.275 . S
C226 O231 1.246 . S
O227 C221 1.263 . S
O227 Tb222 2.353 . S
C228 O232 1.245 1_565 S
C228 O233 1.259 . S
C229 O234 1.250 . S
C229 O235 1.263 . S
O230 Tb222 2.427 . S
O230 C226 1.275 . S
O231 Tb222 2.513 . S
O231 C226 1.246 . S
O232 Tb222 2.453 . S
O232 C228 1.245 1_545 S
O233 Tb220 2.343 . S
O233 Tb222 2.596 1_565 S
O233 C228 1.259 . S
O234 Tb222 2.374 1_565 S
O234 C229 1.250 . S
O235 Tb220 2.353 . S
O235 C229 1.263 . S
C236 O237 1.275 . S
C236 O238 1.246 . S
O237 Tb220 2.427 . S
O237 C236 1.275 . S
O238 Tb220 2.513 . S
O238 C236 1.246 . S
C239 O223 1.245 . S
C239 O224 1.259 1_565 S
Tb240 O243 2.453 . S
Tb240 O244 2.596 . S
Tb240 O245 2.374 . S
Tb240 O253 2.343 . S
Tb240 O255 2.353 . S
Tb240 O257 2.427 . S
Tb240 O258 2.513 . S
C241 O245 1.251 . S
C241 O247 1.263 . S
Tb242 O244 2.343 . S
Tb242 O247 2.353 . S
Tb242 O250 2.427 . S
Tb242 O251 2.513 . S
Tb242 O252 2.453 . S
Tb242 O253 2.596 . S
Tb242 O254 2.374 . S
O243 Tb240 2.453 . S
O243 C259 1.245 . S
O244 Tb240 2.596 . S
O244 Tb242 2.343 . S
O244 C259 1.259 . S
O245 Tb240 2.374 . S
O245 C241 1.251 . S
C246 O250 1.275 . S
C246 O251 1.246 . S
O247 C241 1.263 . S
O247 Tb242 2.353 . S
C248 O252 1.245 . S
C248 O253 1.259 . S
C249 O254 1.250 . S
C249 O255 1.263 . S
O250 Tb242 2.427 . S
O250 C246 1.275 . S
O251 Tb242 2.513 . S
O251 C246 1.246 . S
O252 Tb242 2.453 . S
O252 C248 1.245 . S
O253 Tb240 2.343 . S
O253 Tb242 2.596 . S
O253 C248 1.259 . S
O254 Tb242 2.374 . S
O254 C249 1.250 . S
O255 Tb240 2.353 . S
O255 C249 1.263 . S
C256 O257 1.275 . S
C256 O258 1.246 . S
O257 Tb240 2.427 . S
O257 C256 1.275 . S
O258 Tb240 2.513 . S
O258 C256 1.246 . S
C259 O243 1.245 . S
C259 O244 1.259 . S
Tb260 O263 2.453 . S
Tb260 O264 2.596 1_545 S
Tb260 O265 2.374 1_545 S
Tb260 O273 2.343 . S
Tb260 O275 2.353 . S
Tb260 O277 2.427 . S
Tb260 O278 2.513 . S
C261 O265 1.251 . S
C261 O267 1.263 . S
Tb262 O264 2.343 . S
Tb262 O267 2.353 . S
Tb262 O270 2.427 . S
Tb262 O271 2.513 . S
Tb262 O272 2.453 . S
Tb262 O273 2.596 1_565 S
Tb262 O274 2.374 . S
O263 Tb260 2.453 . S
O263 C279 1.245 1_545 S
O264 Tb260 2.596 1_565 S
O264 Tb262 2.343 . S
O264 C279 1.259 . S
O265 Tb260 2.374 1_565 S
O265 C261 1.251 . S
C266 O270 1.275 . S
C266 O271 1.246 . S
O267 C261 1.263 . S
O267 Tb262 2.353 . S
C268 O272 1.245 . S
C268 O273 1.259 1_565 S
C269 O274 1.250 1_545 S
C269 O275 1.263 . S
O270 Tb262 2.427 . S
O270 C266 1.275 . S
O271 Tb262 2.513 . S
O271 C266 1.246 . S
O272 Tb262 2.453 . S
O272 C268 1.245 . S
O273 Tb260 2.343 . S
O273 Tb262 2.596 1_545 S
O273 C268 1.259 1_545 S
O274 Tb262 2.374 . S
O274 C269 1.250 1_565 S
O275 Tb260 2.353 . S
O275 C269 1.263 . S
C276 O277 1.275 . S
C276 O278 1.246 . S
O277 Tb260 2.427 . S
O277 C276 1.275 . S
O278 Tb260 2.513 . S
O278 C276 1.246 . S
C279 O263 1.245 1_565 S
C279 O264 1.259 . S
Tb280 O283 2.453 . S
Tb280 O284 2.596 . S
Tb280 O285 2.374 . S
Tb280 O293 2.343 . S
Tb280 O295 2.353 . S
Tb280 O297 2.427 . S
Tb280 O298 2.513 . S
C281 O285 1.251 . S
C281 O287 1.263 . S
Tb282 O284 2.343 . S
Tb282 O287 2.353 . S
Tb282 O290 2.427 . S
Tb282 O291 2.513 . S
Tb282 O292 2.453 . S
Tb282 O293 2.596 . S
Tb282 O294 2.374 . S
O283 Tb280 2.453 . S
O283 C299 1.245 . S
O284 Tb280 2.596 . S
O284 Tb282 2.343 . S
O284 C299 1.259 . S
O285 Tb280 2.374 . S
O285 C281 1.251 . S
C286 O290 1.275 . S
C286 O291 1.246 . S
O287 C281 1.263 . S
O287 Tb282 2.353 . S
C288 O292 1.245 . S
C288 O293 1.259 . S
C289 O294 1.250 . S
C289 O295 1.263 . S
O290 Tb282 2.427 . S
O290 C286 1.275 . S
O291 Tb282 2.513 . S
O291 C286 1.246 . S
O292 Tb282 2.453 . S
O292 C288 1.245 . S
O293 Tb280 2.343 . S
O293 Tb282 2.596 . S
O293 C288 1.259 . S
O294 Tb282 2.374 . S
O294 C289 1.250 . S
O295 Tb280 2.353 . S
O295 C289 1.263 . S
C296 O297 1.275 . S
C296 O298 1.246 . S
O297 Tb280 2.427 . S
O297 C296 1.275 . S
O298 Tb280 2.513 . S
O298 C296 1.246 . S
C299 O283 1.245 . S
C299 O284 1.259 . S
Tb300 O303 2.453 . S
Tb300 O304 2.596 1_565 S
Tb300 O305 2.374 1_565 S
Tb300 O313 2.343 . S
Tb300 O315 2.353 . S
Tb300 O317 2.427 . S
Tb300 O318 2.513 . S
C301 O305 1.251 . S
C301 O307 1.263 . S
Tb302 O304 2.343 . S
Tb302 O307 2.353 . S
Tb302 O310 2.427 . S
Tb302 O311 2.513 . S
Tb302 O312 2.453 . S
Tb302 O313 2.596 1_545 S
Tb302 O314 2.374 . S
O303 Tb300 2.453 . S
O303 C319 1.245 1_565 S
O304 Tb300 2.596 1_545 S
O304 Tb302 2.343 . S
O304 C319 1.259 . S
O305 Tb300 2.374 1_545 S
O305 C301 1.251 . S
C306 O310 1.275 . S
C306 O311 1.246 . S
O307 C301 1.263 . S
O307 Tb302 2.353 . S
C308 O312 1.245 . S
C308 O313 1.259 1_545 S
C309 O314 1.250 1_565 S
C309 O315 1.263 . S
O310 Tb302 2.427 . S
O310 C306 1.275 . S
O311 Tb302 2.513 . S
O311 C306 1.246 . S
O312 Tb302 2.453 . S
O312 C308 1.245 . S
O313 Tb300 2.343 . S
O313 Tb302 2.596 1_565 S
O313 C308 1.259 1_565 S
O314 Tb302 2.374 . S
O314 C309 1.250 1_545 S
O315 Tb300 2.353 . S
O315 C309 1.263 . S
C316 O317 1.275 . S
C316 O318 1.246 . S
O317 Tb300 2.427 . S
O317 C316 1.275 . S
O318 Tb300 2.513 . S
O318 C316 1.246 . S
C319 O303 1.245 1_545 S
C319 O304 1.259 . S
C320 C321 1.363 . S
C320 C326 1.379 . S
C320 N328 1.356 . S
C321 C320 1.363 . S
C321 C327 1.363 . S
C322 C323 1.363 . S
C322 C327 1.379 . S
C322 N329 1.356 . S
C323 C322 1.363 . S
C323 C326 1.363 . S
N324 C326 1.356 . S
N324 H336 0.984 . S
N324 H337 0.985 . S
N325 C327 1.356 . S
N325 H330 0.984 . S
N325 H331 0.985 . S
C326 C320 1.379 . S
C326 C323 1.363 . S
C326 N324 1.356 . S
C327 C321 1.363 . S
C327 C322 1.379 . S
C327 N325 1.356 . S
N328 C320 1.356 . S
N328 H334 0.984 . S
N328 H335 0.984 . S
N329 C322 1.356 . S
N329 H332 0.984 . S
N329 H333 0.985 . S
H330 N325 0.984 . S
H331 N325 0.985 . S
H332 N329 0.984 . S
H333 N329 0.985 . S
H334 N328 0.984 . S
H335 N328 0.984 . S
H336 N324 0.984 . S
H337 N324 0.985 . S
C338 C339 1.363 . S
C338 C344 1.379 . S
C338 N346 1.356 . S
C339 C338 1.363 . S
C339 C345 1.363 . S
C340 C341 1.363 . S
C340 C345 1.379 . S
C340 N347 1.356 . S
C341 C340 1.363 . S
C341 C344 1.363 . S
N342 C344 1.356 . S
N342 H354 0.984 . S
N342 H355 0.985 . S
N343 C345 1.356 . S
N343 H348 0.984 . S
N343 H349 0.985 . S
C344 C338 1.379 . S
C344 C341 1.363 . S
C344 N342 1.356 . S
C345 C339 1.363 . S
C345 C340 1.379 . S
C345 N343 1.356 . S
N346 C338 1.356 . S
N346 H352 0.984 . S
N346 H353 0.984 . S
N347 C340 1.356 . S
N347 H350 0.984 . S
N347 H351 0.985 . S
H348 N343 0.984 . S
H349 N343 0.985 . S
H350 N347 0.984 . S
H351 N347 0.985 . S
H352 N346 0.984 . S
H353 N346 0.984 . S
H354 N342 0.984 . S
H355 N342 0.985 . S
C356 C357 1.363 . S
C356 C362 1.379 . S
C356 N364 1.356 . S
C357 C356 1.363 . S
C357 C363 1.363 . S
C358 C359 1.363 . S
C358 C363 1.379 . S
C358 N365 1.356 . S
C359 C358 1.363 . S
C359 C362 1.363 . S
N360 C362 1.356 . S
N360 H372 0.984 . S
N360 H373 0.985 . S
N361 C363 1.356 . S
N361 H366 0.984 . S
N361 H367 0.985 . S
C362 C356 1.379 . S
C362 C359 1.363 . S
C362 N360 1.356 . S
C363 C357 1.363 . S
C363 C358 1.379 . S
C363 N361 1.356 . S
N364 C356 1.356 . S
N364 H370 0.984 . S
N364 H371 0.984 . S
N365 C358 1.356 . S
N365 H368 0.984 . S
N365 H369 0.985 . S
H366 N361 0.984 . S
H367 N361 0.985 . S
H368 N365 0.984 . S
H369 N365 0.985 . S
H370 N364 0.984 . S
H371 N364 0.984 . S
H372 N360 0.984 . S
H373 N360 0.985 . S
C374 C375 1.363 1_554 S
C374 C380 1.379 1_655 S
C374 N382 1.356 . S
C375 C374 1.363 1_556 S
C375 C381 1.363 . S
C376 C377 1.363 1_556 S
C376 C381 1.379 1_455 S
C376 N383 1.356 . S
C377 C376 1.363 1_554 S
C377 C380 1.363 . S
N378 C380 1.356 . S
N378 H390 0.984 . S
N378 H391 0.985 . S
N379 C381 1.356 . S
N379 H384 0.984 . S
N379 H385 0.985 . S
C380 C374 1.379 1_455 S
C380 C377 1.363 . S
C380 N378 1.356 . S
C381 C375 1.363 . S
C381 C376 1.379 1_655 S
C381 N379 1.356 . S
N382 C374 1.356 . S
N382 H388 0.984 . S
N382 H389 0.984 . S
N383 C376 1.356 . S
N383 H386 0.984 . S
N383 H387 0.985 . S
H384 N379 0.984 . S
H385 N379 0.985 . S
H386 N383 0.984 . S
H387 N383 0.985 . S
H388 N382 0.984 . S
H389 N382 0.984 . S
H390 N378 0.984 . S
H391 N378 0.985 . S
C392 C393 1.363 . S
C392 C398 1.379 . S
C392 N400 1.356 . S
C393 C392 1.363 . S
C393 C399 1.363 . S
C394 C395 1.363 . S
C394 C399 1.379 . S
C394 N401 1.356 . S
C395 C394 1.363 . S
C395 C398 1.363 . S
N396 C398 1.356 . S
N396 H408 0.984 . S
N396 H409 0.985 . S
N397 C399 1.356 . S
N397 H402 0.984 . S
N397 H403 0.985 . S
C398 C392 1.379 . S
C398 C395 1.363 . S
C398 N396 1.356 . S
C399 C393 1.363 . S
C399 C394 1.379 . S
C399 N397 1.356 . S
N400 C392 1.356 . S
N400 H406 0.984 . S
N400 H407 0.984 . S
N401 C394 1.356 . S
N401 H404 0.984 . S
N401 H405 0.985 . S
H402 N397 0.984 . S
H403 N397 0.985 . S
H404 N401 0.984 . S
H405 N401 0.985 . S
H406 N400 0.984 . S
H407 N400 0.984 . S
H408 N396 0.984 . S
H409 N396 0.985 . S
C410 C411 1.363 . S
C410 C416 1.379 . S
C410 N418 1.356 . S
C411 C410 1.363 . S
C411 C417 1.363 . S
C412 C413 1.363 . S
C412 C417 1.379 . S
C412 N419 1.356 . S
C413 C412 1.363 . S
C413 C416 1.363 . S
N414 C416 1.356 . S
N414 H426 0.984 . S
N414 H427 0.985 . S
N415 C417 1.356 . S
N415 H420 0.984 . S
N415 H421 0.985 . S
C416 C410 1.379 . S
C416 C413 1.363 . S
C416 N414 1.356 . S
C417 C411 1.363 . S
C417 C412 1.379 . S
C417 N415 1.356 . S
N418 C410 1.356 . S
N418 H424 0.984 . S
N418 H425 0.984 . S
N419 C412 1.356 . S
N419 H422 0.984 . S
N419 H423 0.985 . S
H420 N415 0.984 . S
H421 N415 0.985 . S
H422 N419 0.984 . S
H423 N419 0.985 . S
H424 N418 0.984 . S
H425 N418 0.984 . S
H426 N414 0.984 . S
H427 N414 0.985 . S
C428 C429 1.363 1_545 S
C428 C434 1.379 1_655 S
C428 N436 1.356 . S
C429 C428 1.363 1_565 S
C429 C435 1.363 1_554 S
C430 C431 1.363 1_565 S
C430 C435 1.379 1_455 S
C430 N437 1.356 . S
C431 C430 1.363 1_545 S
C431 C434 1.363 1_556 S
N432 C434 1.356 . S
N432 H444 0.984 . S
N432 H445 0.985 . S
N433 C435 1.356 . S
N433 H438 0.984 . S
N433 H439 0.985 . S
C434 C428 1.379 1_455 S
C434 C431 1.363 1_554 S
C434 N432 1.356 . S
C435 C429 1.363 1_556 S
C435 C430 1.379 1_655 S
C435 N433 1.356 . S
N436 C428 1.356 . S
N436 H442 0.984 . S
N436 H443 0.984 1_545 S
N437 C430 1.356 . S
N437 H440 0.984 1_565 S
N437 H441 0.985 . S
H438 N433 0.984 . S
H439 N433 0.985 . S
H440 N437 0.984 1_545 S
H441 N437 0.985 . S
H442 N436 0.984 . S
H443 N436 0.984 1_565 S
H444 N432 0.984 . S
H445 N432 0.985 . S
C446 C447 1.363 . S
C446 C452 1.379 1_565 S
C446 N454 1.356 . S
C447 C446 1.363 . S
C447 C453 1.363 . S
C448 C449 1.363 . S
C448 C453 1.379 1_545 S
C448 N455 1.356 . S
C449 C448 1.363 . S
C449 C452 1.363 . S
N450 C452 1.356 . S
N450 H462 0.984 . S
N450 H463 0.985 . S
N451 C453 1.356 . S
N451 H456 0.984 . S
N451 H457 0.985 . S
C452 C446 1.379 1_545 S
C452 C449 1.363 . S
C452 N450 1.356 . S
C453 C447 1.363 . S
C453 C448 1.379 1_565 S
C453 N451 1.356 . S
N454 C446 1.356 . S
N454 H460 0.984 . S
N454 H461 0.984 . S
N455 C448 1.356 . S
N455 H458 0.984 . S
N455 H459 0.985 . S
H456 N451 0.984 . S
H457 N451 0.985 . S
H458 N455 0.984 . S
H459 N455 0.985 . S
H460 N454 0.984 . S
H461 N454 0.984 . S
H462 N450 0.984 . S
H463 N450 0.985 . S
C464 C465 1.363 1_554 S
C464 C470 1.379 . S
C464 N472 1.356 1_554 S
C465 C464 1.363 1_556 S
C465 C471 1.363 1_556 S
C466 C467 1.363 . S
C466 C471 1.379 . S
C466 N473 1.356 . S
C467 C466 1.363 . S
C467 C470 1.363 . S
N468 C470 1.356 . S
N468 H480 0.984 . S
N468 H481 0.985 . S
N469 C471 1.356 . S
N469 H474 0.984 1_554 S
N469 H475 0.985 1_545 S
C470 C464 1.379 . S
C470 C467 1.363 . S
C470 N468 1.356 . S
C471 C465 1.363 1_554 S
C471 C466 1.379 . S
C471 N469 1.356 . S
N472 C464 1.356 1_556 S
N472 H478 0.984 . S
N472 H479 0.984 . S
N473 C466 1.356 . S
N473 H476 0.984 . S
N473 H477 0.985 . S
H474 N469 0.984 1_556 S
H475 N469 0.985 1_565 S
H476 N473 0.984 . S
H477 N473 0.985 . S
H478 N472 0.984 . S
H479 N472 0.984 . S
H480 N468 0.984 . S
H481 N468 0.985 . S
C482 C483 1.363 . S
C482 C488 1.379 . S
C482 N490 1.356 . S
C483 C482 1.363 . S
C483 C489 1.363 . S
C484 C485 1.363 . S
C484 C489 1.379 . S
C484 N491 1.356 . S
C485 C484 1.363 . S
C485 C488 1.363 . S
N486 C488 1.356 . S
N486 H498 0.984 . S
N486 H499 0.985 . S
N487 C489 1.356 . S
N487 H492 0.984 . S
N487 H493 0.985 . S
C488 C482 1.379 . S
C488 C485 1.363 . S
C488 N486 1.356 . S
C489 C483 1.363 . S
C489 C484 1.379 . S
C489 N487 1.356 . S
N490 C482 1.356 . S
N490 H496 0.984 . S
N490 H497 0.984 . S
N491 C484 1.356 . S
N491 H494 0.984 . S
N491 H495 0.985 . S
H492 N487 0.984 . S
H493 N487 0.985 . S
H494 N491 0.984 . S
H495 N491 0.985 . S
H496 N490 0.984 . S
H497 N490 0.984 . S
H498 N486 0.984 . S
H499 N486 0.985 . S
C500 C501 1.363 . S
C500 C506 1.379 . S
C500 N508 1.356 . S
C501 C500 1.363 . S
C501 C507 1.363 . S
C502 C503 1.363 . S
C502 C507 1.379 . S
C502 N509 1.356 . S
C503 C502 1.363 . S
C503 C506 1.363 . S
N504 C506 1.356 . S
N504 H516 0.984 . S
N504 H517 0.985 . S
N505 C507 1.356 . S
N505 H510 0.984 . S
N505 H511 0.985 1_565 S
C506 C500 1.379 . S
C506 C503 1.363 . S
C506 N504 1.356 . S
C507 C501 1.363 . S
C507 C502 1.379 . S
C507 N505 1.356 . S
N508 C500 1.356 . S
N508 H514 0.984 . S
N508 H515 0.984 . S
N509 C502 1.356 . S
N509 H512 0.984 . S
N509 H513 0.985 1_565 S
H510 N505 0.984 . S
H511 N505 0.985 1_545 S
H512 N509 0.984 . S
H513 N509 0.985 1_545 S
H514 N508 0.984 . S
H515 N508 0.984 . S
H516 N504 0.984 . S
H517 N504 0.985 . S
C518 C519 1.363 . S
C518 C524 1.379 . S
C518 N526 1.356 . S
C519 C518 1.363 . S
C519 C525 1.363 . S
C520 C521 1.363 . S
C520 C525 1.379 . S
C520 N527 1.356 . S
C521 C520 1.363 . S
C521 C524 1.363 . S
N522 C524 1.356 . S
N522 H534 0.984 . S
N522 H535 0.985 . S
N523 C525 1.356 . S
N523 H528 0.984 . S
N523 H529 0.985 . S
C524 C518 1.379 . S
C524 C521 1.363 . S
C524 N522 1.356 . S
C525 C519 1.363 . S
C525 C520 1.379 . S
C525 N523 1.356 . S
N526 C518 1.356 . S
N526 H532 0.984 . S
N526 H533 0.984 . S
N527 C520 1.356 . S
N527 H530 0.984 . S
N527 H531 0.985 . S
H528 N523 0.984 . S
H529 N523 0.985 . S
H530 N527 0.984 . S
H531 N527 0.985 . S
H532 N526 0.984 . S
H533 N526 0.984 . S
H534 N522 0.984 . S
H535 N522 0.985 . S
C536 C537 1.363 1_556 S
C536 C542 1.379 . S
C536 N544 1.356 1_556 S
C537 C536 1.363 1_554 S
C537 C543 1.363 1_554 S
C538 C539 1.363 . S
C538 C543 1.379 . S
C538 N545 1.356 . S
C539 C538 1.363 . S
C539 C542 1.363 . S
N540 C542 1.356 . S
N540 H552 0.984 1_565 S
N540 H553 0.985 . S
N541 C543 1.356 1_554 S
N541 H546 0.984 . S
N541 H547 0.985 . S
C542 C536 1.379 . S
C542 C539 1.363 . S
C542 N540 1.356 . S
C543 C537 1.363 1_556 S
C543 C538 1.379 . S
C543 N541 1.356 1_556 S
N544 C536 1.356 1_554 S
N544 H550 0.979 1_564 S
N544 H551 0.984 . S
N545 C538 1.356 . S
N545 H548 0.984 . S
N545 H549 0.985 . S
H546 N541 0.984 . S
H547 N541 0.985 . S
H548 N545 0.984 . S
H549 N545 0.985 . S
H550 N544 0.979 1_546 S
H551 N544 0.984 . S
H552 N540 0.984 1_545 S
H553 N540 0.985 . S
C554 C555 1.363 . S
C554 C560 1.379 . S
C554 N562 1.356 . S
C555 C554 1.363 . S
C555 C561 1.363 . S
C556 C557 1.363 . S
C556 C561 1.379 . S
C556 N563 1.356 . S
C557 C556 1.363 . S
C557 C560 1.363 . S
N558 C560 1.356 . S
N558 H570 0.984 . S
N558 H571 0.985 . S
N559 C561 1.356 . S
N559 H564 0.984 . S
N559 H565 0.985 . S
C560 C554 1.379 . S
C560 C557 1.363 . S
C560 N558 1.356 . S
C561 C555 1.363 . S
C561 C556 1.379 . S
C561 N559 1.356 . S
N562 C554 1.356 . S
N562 H568 0.984 . S
N562 H569 0.984 . S
N563 C556 1.356 . S
N563 H566 0.984 . S
N563 H567 0.985 . S
H564 N559 0.984 . S
H565 N559 0.985 . S
H566 N563 0.984 . S
H567 N563 0.985 . S
H568 N562 0.984 . S
H569 N562 0.984 . S
H570 N558 0.984 . S
H571 N558 0.985 . S
C572 C573 1.363 . S
C572 C578 1.379 . S
C572 N580 1.356 . S
C573 C572 1.363 . S
C573 C579 1.363 . S
C574 C575 1.363 . S
C574 C579 1.379 . S
C574 N581 1.356 . S
C575 C574 1.363 . S
C575 C578 1.363 . S
N576 C578 1.356 . S
N576 H588 0.984 1_545 S
N576 H589 0.985 . S
N577 C579 1.356 . S
N577 H582 0.984 . S
N577 H583 0.985 . S
C578 C572 1.379 . S
C578 C575 1.363 . S
C578 N576 1.356 . S
C579 C573 1.363 . S
C579 C574 1.379 . S
C579 N577 1.356 . S
N580 C572 1.356 . S
N580 H586 0.984 . S
N580 H587 0.984 . S
N581 C574 1.356 . S
N581 H584 0.984 . S
N581 H585 0.985 . S
H582 N577 0.984 . S
H583 N577 0.985 . S
H584 N581 0.984 . S
H585 N581 0.985 . S
H586 N580 0.984 . S
H587 N580 0.984 . S
H588 N576 0.984 1_565 S
H589 N576 0.985 . S
C590 C591 1.363 . S
C590 C596 1.379 . S
C590 N598 1.356 . S
C591 C590 1.363 . S
C591 C597 1.363 . S
C592 C593 1.363 . S
C592 C597 1.379 . S
C592 N599 1.356 . S
C593 C592 1.363 . S
C593 C596 1.363 . S
N594 C596 1.356 . S
N594 H606 0.984 . S
N594 H607 0.985 . S
N595 C597 1.356 . S
N595 H600 0.984 . S
N595 H601 0.985 . S
C596 C590 1.379 . S
C596 C593 1.363 . S
C596 N594 1.356 . S
C597 C591 1.363 . S
C597 C592 1.379 . S
C597 N595 1.356 . S
N598 C590 1.356 . S
N598 H604 0.984 . S
N598 H605 0.984 . S
N599 C592 1.356 . S
N599 H602 0.984 . S
N599 H603 0.985 . S
H600 N595 0.984 . S
H601 N595 0.985 . S
H602 N599 0.984 . S
H603 N599 0.985 . S
H604 N598 0.984 . S
H605 N598 0.984 . S
H606 N594 0.984 . S
H607 N594 0.985 . S
C608 C609 1.363 . S
C608 C614 1.379 . S
C608 N616 1.356 . S
C609 C608 1.363 . S
C609 C615 1.363 . S
C610 C611 1.363 . S
C610 C615 1.379 . S
C610 N617 1.356 . S
C611 C610 1.363 . S
C611 C614 1.363 . S
N612 C614 1.356 . S
N612 H624 0.984 . S
N612 H625 0.985 . S
N613 C615 1.356 . S
N613 H618 0.984 . S
N613 H619 0.985 . S
C614 C608 1.379 . S
C614 C611 1.363 . S
C614 N612 1.356 . S
C615 C609 1.363 . S
C615 C610 1.379 . S
C615 N613 1.356 . S
N616 C608 1.356 . S
N616 H622 0.984 . S
N616 H623 0.984 . S
N617 C610 1.356 . S
N617 H620 0.984 . S
N617 H621 0.985 . S
H618 N613 0.984 . S
H619 N613 0.985 . S
H620 N617 0.984 . S
H621 N617 0.985 . S
H622 N616 0.984 . S
H623 N616 0.984 . S
H624 N612 0.984 . S
H625 N612 0.985 . S
C626 C627 1.363 1_545 S
C626 C632 1.379 1_545 S
C626 N634 1.356 . S
C627 C626 1.363 1_565 S
C627 C633 1.363 . S
C628 C629 1.363 . S
C628 C633 1.379 . S
C628 N635 1.356 . S
C629 C628 1.363 . S
C629 C632 1.363 . S
N630 C632 1.356 1_545 S
N630 H642 0.984 . S
N630 H643 0.985 1_545 S
N631 C633 1.356 . S
N631 H636 0.984 . S
N631 H637 0.985 . S
C632 C626 1.379 1_565 S
C632 C629 1.363 . S
C632 N630 1.356 1_565 S
C633 C627 1.363 . S
C633 C628 1.379 . S
C633 N631 1.356 . S
N634 C626 1.356 . S
N634 H640 0.984 . S
N634 H641 0.984 . S
N635 C628 1.356 . S
N635 H638 0.984 . S
N635 H639 0.985 . S
H636 N631 0.984 . S
H637 N631 0.985 . S
H638 N635 0.984 . S
H639 N635 0.985 . S
H640 N634 0.984 . S
H641 N634 0.984 . S
H642 N630 0.984 . S
H643 N630 0.985 1_565 S
C644 C645 1.363 . S
C644 C650 1.379 . S
C644 N652 1.356 . S
C645 C644 1.363 . S
C645 C651 1.363 . S
C646 C647 1.363 1_554 S
C646 C651 1.379 . S
C646 N653 1.356 1_554 S
C647 C646 1.363 1_556 S
C647 C650 1.363 1_556 S
N648 C650 1.356 1_556 S
N648 H660 0.983 1_556 S
N648 H661 0.985 . S
N649 C651 1.356 . S
N649 H654 0.984 . S
N649 H655 0.985 . S
C650 C644 1.379 . S
C650 C647 1.363 1_554 S
C650 N648 1.356 1_554 S
C651 C645 1.363 . S
C651 C646 1.379 . S
C651 N649 1.356 . S
N652 C644 1.356 . S
N652 H658 0.984 . S
N652 H659 0.984 . S
N653 C646 1.356 1_556 S
N653 H656 0.984 . S
N653 H657 0.985 . S
H654 N649 0.984 . S
H655 N649 0.985 . S
H656 N653 0.984 . S
H657 N653 0.985 . S
H658 N652 0.984 . S
H659 N652 0.984 . S
H660 N648 0.983 1_554 S
H661 N648 0.985 . S
C662 C663 1.363 . S
C662 C668 1.379 . S
C662 N670 1.356 . S
C663 C662 1.363 . S
C663 C669 1.363 . S
C664 C665 1.363 . S
C664 C669 1.379 . S
C664 N671 1.356 . S
C665 C664 1.363 . S
C665 C668 1.363 . S
N666 C668 1.356 1_565 S
N666 H678 0.984 . S
N666 H679 0.985 . S
N667 C669 1.356 . S
N667 H672 0.984 . S
N667 H673 0.985 . S
C668 C662 1.379 . S
C668 C665 1.363 . S
C668 N666 1.356 1_545 S
C669 C663 1.363 . S
C669 C664 1.379 . S
C669 N667 1.356 . S
N670 C662 1.356 . S
N670 H676 0.984 . S
N670 H677 0.984 . S
N671 C664 1.356 . S
N671 H674 0.984 . S
N671 H675 0.985 . S
H672 N667 0.984 . S
H673 N667 0.985 . S
H674 N671 0.984 . S
H675 N671 0.985 . S
H676 N670 0.984 . S
H677 N670 0.984 . S
H678 N666 0.984 . S
H679 N666 0.985 . S
C680 C681 1.363 . S
C680 C686 1.379 . S
C680 N688 1.356 . S
C681 C680 1.363 . S
C681 C687 1.363 . S
C682 C683 1.363 . S
C682 C687 1.379 . S
C682 N689 1.356 . S
C683 C682 1.363 . S
C683 C686 1.363 . S
N684 C686 1.356 . S
N684 H696 0.984 . S
N684 H697 0.985 . S
N685 C687 1.356 . S
N685 H690 0.984 . S
N685 H691 0.985 . S
C686 C680 1.379 . S
C686 C683 1.363 . S
C686 N684 1.356 . S
C687 C681 1.363 . S
C687 C682 1.379 . S
C687 N685 1.356 . S
N688 C680 1.356 . S
N688 H694 0.984 . S
N688 H695 0.984 . S
N689 C682 1.356 . S
N689 H692 0.984 . S
N689 H693 0.985 . S
H690 N685 0.984 . S
H691 N685 0.985 . S
H692 N689 0.984 . S
H693 N689 0.985 . S
H694 N688 0.984 . S
H695 N688 0.984 . S
H696 N684 0.984 . S
H697 N684 0.985 . S
C698 C699 1.363 . S
C698 C704 1.379 . S
C698 N706 1.356 1_545 S
C699 C698 1.363 . S
C699 C705 1.363 . S
C700 C701 1.363 . S
C700 C705 1.379 . S
C700 N707 1.356 . S
C701 C700 1.363 . S
C701 C704 1.363 . S
N702 C704 1.356 . S
N702 H714 0.984 1_545 S
N702 H715 0.985 . S
N703 C705 1.356 . S
N703 H708 0.984 . S
N703 H709 0.985 . S
C704 C698 1.379 . S
C704 C701 1.363 . S
C704 N702 1.356 . S
C705 C699 1.363 . S
C705 C700 1.379 . S
C705 N703 1.356 . S
N706 C698 1.356 1_565 S
N706 H712 0.984 . S
N706 H713 0.984 . S
N707 C700 1.356 . S
N707 H710 0.984 . S
N707 H711 0.985 . S
H708 N703 0.984 . S
H709 N703 0.985 . S
H710 N707 0.984 . S
H711 N707 0.985 . S
H712 N706 0.984 . S
H713 N706 0.984 . S
H714 N702 0.984 1_565 S
H715 N702 0.985 . S
C716 C717 1.363 1_556 S
C716 C722 1.379 . S
C716 N724 1.356 1_556 S
C717 C716 1.363 1_554 S
C717 C723 1.363 1_554 S
C718 C719 1.363 . S
C718 C723 1.379 . S
C718 N725 1.356 . S
C719 C718 1.363 . S
C719 C722 1.363 . S
N720 C722 1.356 . S
N720 H732 0.984 . S
N720 H733 0.985 . S
N721 C723 1.356 . S
N721 H726 0.984 1_556 S
N721 H727 0.985 . S
C722 C716 1.379 . S
C722 C719 1.363 . S
C722 N720 1.356 . S
C723 C717 1.363 1_556 S
C723 C718 1.379 . S
C723 N721 1.356 . S
N724 C716 1.356 1_554 S
N724 H730 0.984 . S
N724 H731 0.984 . S
N725 C718 1.356 . S
N725 H728 0.984 . S
N725 H729 0.985 . S
H726 N721 0.984 1_554 S
H727 N721 0.985 . S
H728 N725 0.984 . S
H729 N725 0.985 . S
H730 N724 0.984 . S
H731 N724 0.984 . S
H732 N720 0.984 . S
H733 N720 0.985 . S
C734 C735 1.363 1_545 S
C734 C740 1.379 1_545 S
C734 N742 1.356 . S
C735 C734 1.363 1_565 S
C735 C741 1.363 . S
C736 C737 1.363 . S
C736 C741 1.379 . S
C736 N743 1.356 . S
C737 C736 1.363 . S
C737 C740 1.363 . S
N738 C740 1.356 1_545 S
N738 H750 0.984 . S
N738 H751 0.985 1_545 S
N739 C741 1.356 . S
N739 H744 0.984 . S
N739 H745 0.985 . S
C740 C734 1.379 1_565 S
C740 C737 1.363 . S
C740 N738 1.356 1_565 S
C741 C735 1.363 . S
C741 C736 1.379 . S
C741 N739 1.356 . S
N742 C734 1.356 . S
N742 H748 0.984 . S
N742 H749 0.984 . S
N743 C736 1.356 . S
N743 H746 0.984 . S
N743 H747 0.985 . S
H744 N739 0.984 . S
H745 N739 0.985 . S
H746 N743 0.984 . S
H747 N743 0.985 . S
H748 N742 0.984 . S
H749 N742 0.984 . S
H750 N738 0.984 . S
H751 N738 0.985 1_565 S
C752 C753 1.363 . S
C752 C758 1.379 . S
C752 N760 1.356 . S
C753 C752 1.363 . S
C753 C759 1.363 . S
C754 C755 1.363 . S
C754 C759 1.379 . S
C754 N761 1.356 . S
C755 C754 1.363 . S
C755 C758 1.363 . S
N756 C758 1.356 . S
N756 H768 0.984 . S
N756 H769 0.985 . S
N757 C759 1.356 . S
N757 H762 0.984 . S
N757 H763 0.985 . S
C758 C752 1.379 . S
C758 C755 1.363 . S
C758 N756 1.356 . S
C759 C753 1.363 . S
C759 C754 1.379 . S
C759 N757 1.356 . S
N760 C752 1.356 . S
N760 H766 0.984 . S
N760 H767 0.984 . S
N761 C754 1.356 . S
N761 H764 0.984 . S
N761 H765 0.985 . S
H762 N757 0.984 . S
H763 N757 0.985 . S
H764 N761 0.984 . S
H765 N761 0.985 . S
H766 N760 0.984 . S
H767 N760 0.984 . S
H768 N756 0.984 . S
H769 N756 0.985 . S
C770 C771 1.363 . S
C770 C776 1.379 . S
C770 N778 1.356 . S
C771 C770 1.363 . S
C771 C777 1.363 . S
C772 C773 1.363 . S
C772 C777 1.379 . S
C772 N779 1.356 . S
C773 C772 1.363 . S
C773 C776 1.363 . S
N774 C776 1.356 . S
N774 H786 0.984 . S
N774 H787 0.985 . S
N775 C777 1.356 . S
N775 H780 0.984 . S
N775 H781 0.985 . S
C776 C770 1.379 . S
C776 C773 1.363 . S
C776 N774 1.356 . S
C777 C771 1.363 . S
C777 C772 1.379 . S
C777 N775 1.356 . S
N778 C770 1.356 . S
N778 H784 0.984 . S
N778 H785 0.984 . S
N779 C772 1.356 . S
N779 H782 0.984 . S
N779 H783 0.985 . S
H780 N775 0.984 . S
H781 N775 0.985 . S
H782 N779 0.984 . S
H783 N779 0.985 . S
H784 N778 0.984 . S
H785 N778 0.984 . S
H786 N774 0.984 . S
H787 N774 0.985 . S
C788 C789 1.363 . S
C788 C794 1.379 1_655 S
C788 N796 1.356 . S
C789 C788 1.363 . S
C789 C795 1.363 . S
C790 C791 1.363 . S
C790 C795 1.379 1_455 S
C790 N797 1.356 . S
C791 C790 1.363 . S
C791 C794 1.363 . S
N792 C794 1.356 . S
N792 H804 0.984 . S
N792 H805 0.985 . S
N793 C795 1.356 . S
N793 H798 0.984 . S
N793 H799 0.985 . S
C794 C788 1.379 1_455 S
C794 C791 1.363 . S
C794 N792 1.356 . S
C795 C789 1.363 . S
C795 C790 1.379 1_655 S
C795 N793 1.356 . S
N796 C788 1.356 . S
N796 H802 0.984 . S
N796 H803 0.984 . S
N797 C790 1.356 . S
N797 H800 0.984 . S
N797 H801 0.985 . S
H798 N793 0.984 . S
H799 N793 0.985 . S
H800 N797 0.984 . S
H801 N797 0.985 . S
H802 N796 0.984 . S
H803 N796 0.984 . S
H804 N792 0.984 . S
H805 N792 0.985 . S
C806 C807 1.363 1_455 S
C806 C812 1.379 . S
C806 N814 1.356 . S
C807 C806 1.363 1_655 S
C807 C813 1.363 . S
C808 C809 1.363 1_655 S
C808 C813 1.379 . S
C808 N815 1.356 . S
C809 C808 1.363 1_455 S
C809 C812 1.363 . S
N810 C812 1.356 . S
N810 H822 0.974 1_556 S
N810 H823 0.985 . S
N811 C813 1.356 . S
N811 H816 0.984 . S
N811 H817 0.985 . S
C812 C806 1.379 . S
C812 C809 1.363 . S
C812 N810 1.356 . S
C813 C807 1.363 . S
C813 C808 1.379 . S
C813 N811 1.356 . S
N814 C806 1.356 . S
N814 H820 0.974 1_556 S
N814 H821 0.984 . S
N815 C808 1.356 . S
N815 H818 0.984 . S
N815 H819 0.985 . S
H816 N811 0.984 . S
H817 N811 0.985 . S
H818 N815 0.984 . S
H819 N815 0.985 . S
H820 N814 0.974 1_554 S
H821 N814 0.984 . S
H822 N810 0.974 1_554 S
H823 N810 0.985 . S
C824 C825 1.363 . S
C824 C830 1.379 . S
C824 N832 1.356 . S
C825 C824 1.363 . S
C825 C831 1.363 . S
C826 C827 1.363 . S
C826 C831 1.379 . S
C826 N833 1.356 . S
C827 C826 1.363 . S
C827 C830 1.363 . S
N828 C830 1.356 . S
N828 H840 0.984 . S
N828 H841 0.985 . S
N829 C831 1.356 . S
N829 H834 0.984 . S
N829 H835 0.985 . S
C830 C824 1.379 . S
C830 C827 1.363 . S
C830 N828 1.356 . S
C831 C825 1.363 . S
C831 C826 1.379 . S
C831 N829 1.356 . S
N832 C824 1.356 . S
N832 H838 0.984 . S
N832 H839 0.984 . S
N833 C826 1.356 . S
N833 H836 0.984 . S
N833 H837 0.985 . S
H834 N829 0.984 . S
H835 N829 0.985 . S
H836 N833 0.984 . S
H837 N833 0.985 . S
H838 N832 0.984 . S
H839 N832 0.984 . S
H840 N828 0.984 . S
H841 N828 0.985 . S
C842 C843 1.363 . S
C842 C848 1.379 . S
C842 N850 1.356 . S
C843 C842 1.363 . S
C843 C849 1.363 . S
C844 C845 1.363 . S
C844 C849 1.379 . S
C844 N851 1.356 . S
C845 C844 1.363 . S
C845 C848 1.363 . S
N846 C848 1.356 . S
N846 H858 0.984 . S
N846 H859 0.985 . S
N847 C849 1.356 . S
N847 H852 0.984 . S
N847 H853 0.985 . S
C848 C842 1.379 . S
C848 C845 1.363 . S
C848 N846 1.356 . S
C849 C843 1.363 . S
C849 C844 1.379 . S
C849 N847 1.356 . S
N850 C842 1.356 . S
N850 H856 0.984 . S
N850 H857 0.984 . S
N851 C844 1.356 . S
N851 H854 0.984 . S
N851 H855 0.985 . S
H852 N847 0.984 . S
H853 N847 0.985 . S
H854 N851 0.984 . S
H855 N851 0.985 . S
H856 N850 0.984 . S
H857 N850 0.984 . S
H858 N846 0.984 . S
H859 N846 0.985 . S
C860 C861 1.363 . S
C860 C866 1.379 1_455 S
C860 N868 1.356 . S
C861 C860 1.363 . S
C861 C867 1.363 . S
C862 C863 1.363 . S
C862 C867 1.379 1_655 S
C862 N869 1.356 . S
C863 C862 1.363 . S
C863 C866 1.363 . S
N864 C866 1.356 . S
N864 H876 0.984 . S
N864 H877 0.985 . S
N865 C867 1.356 . S
N865 H870 0.984 . S
N865 H871 0.985 . S
C866 C860 1.379 1_655 S
C866 C863 1.363 . S
C866 N864 1.356 . S
C867 C861 1.363 . S
C867 C862 1.379 1_455 S
C867 N865 1.356 . S
N868 C860 1.356 . S
N868 H874 0.984 . S
N868 H875 0.984 . S
N869 C862 1.356 . S
N869 H872 0.984 . S
N869 H873 0.985 . S
H870 N865 0.984 . S
H871 N865 0.985 . S
H872 N869 0.984 . S
H873 N869 0.985 . S
H874 N868 0.984 . S
H875 N868 0.984 . S
H876 N864 0.984 . S
H877 N864 0.985 . S
C878 C879 1.363 1_655 S
C878 C884 1.379 . S
C878 N886 1.356 . S
C879 C878 1.363 1_455 S
C879 C885 1.363 . S
C880 C881 1.363 1_455 S
C880 C885 1.379 . S
C880 N887 1.356 . S
C881 C880 1.363 1_655 S
C881 C884 1.363 . S
N882 C884 1.356 . S
N882 H894 0.984 . S
N882 H895 0.985 . S
N883 C885 1.356 . S
N883 H888 0.984 . S
N883 H889 0.974 1_554 S
C884 C878 1.379 . S
C884 C881 1.363 . S
C884 N882 1.356 . S
C885 C879 1.363 . S
C885 C880 1.379 . S
C885 N883 1.356 . S
N886 C878 1.356 . S
N886 H892 0.984 . S
N886 H893 0.984 . S
N887 C880 1.356 . S
N887 H890 0.984 . S
N887 H891 0.974 1_554 S
H888 N883 0.984 . S
H889 N883 0.974 1_556 S
H890 N887 0.984 . S
H891 N887 0.974 1_556 S
H892 N886 0.984 . S
H893 N886 0.984 . S
H894 N882 0.984 . S
H895 N882 0.985 . S
C896 C897 1.363 . S
C896 C902 1.379 . S
C896 N904 1.356 . S
C897 C896 1.363 . S
C897 C903 1.363 . S
C898 C899 1.363 . S
C898 C903 1.379 . S
C898 N905 1.356 . S
C899 C898 1.363 . S
C899 C902 1.363 . S
N900 C902 1.356 . S
N900 H912 0.984 . S
N900 H913 0.985 . S
N901 C903 1.356 . S
N901 H906 0.984 . S
N901 H907 0.985 . S
C902 C896 1.379 . S
C902 C899 1.363 . S
C902 N900 1.356 . S
C903 C897 1.363 . S
C903 C898 1.379 . S
C903 N901 1.356 . S
N904 C896 1.356 . S
N904 H910 0.984 . S
N904 H911 0.984 . S
N905 C898 1.356 . S
N905 H908 0.984 . S
N905 H909 0.985 . S
H906 N901 0.984 . S
H907 N901 0.985 . S
H908 N905 0.984 . S
H909 N905 0.985 . S
H910 N904 0.984 . S
H911 N904 0.984 . S
H912 N900 0.984 . S
H913 N900 0.985 . S
C914 C915 1.363 . S
C914 C920 1.379 . S
C914 N922 1.356 . S
C915 C914 1.363 . S
C915 C921 1.363 . S
C916 C917 1.363 . S
C916 C921 1.379 . S
C916 N923 1.356 . S
C917 C916 1.363 . S
C917 C920 1.363 . S
N918 C920 1.356 . S
N918 H930 0.984 . S
N918 H931 0.985 . S
N919 C921 1.356 . S
N919 H924 0.984 . S
N919 H925 0.985 . S
C920 C914 1.379 . S
C920 C917 1.363 . S
C920 N918 1.356 . S
C921 C915 1.363 . S
C921 C916 1.379 . S
C921 N919 1.356 . S
N922 C914 1.356 . S
N922 H928 0.984 . S
N922 H929 0.984 . S
N923 C916 1.356 . S
N923 H926 0.984 . S
N923 H927 0.985 . S
H924 N919 0.984 . S
H925 N919 0.985 . S
H926 N923 0.984 . S
H927 N923 0.985 . S
H928 N922 0.984 . S
H929 N922 0.984 . S
H930 N918 0.984 . S
H931 N918 0.985 . S
C932 C933 1.363 . S
C932 C938 1.379 . S
C932 N940 1.356 . S
C933 C932 1.363 . S
C933 C939 1.363 . S
C934 C935 1.363 . S
C934 C939 1.379 . S
C934 N941 1.356 . S
C935 C934 1.363 . S
C935 C938 1.363 . S
N936 C938 1.356 . S
N936 H948 0.984 . S
N936 H949 0.985 . S
N937 C939 1.356 . S
N937 H942 0.984 . S
N937 H943 0.985 . S
C938 C932 1.379 . S
C938 C935 1.363 . S
C938 N936 1.356 . S
C939 C933 1.363 . S
C939 C934 1.379 . S
C939 N937 1.356 . S
N940 C932 1.356 . S
N940 H946 0.984 . S
N940 H947 0.984 . S
N941 C934 1.356 . S
N941 H944 0.984 . S
N941 H945 0.985 . S
H942 N937 0.984 . S
H943 N937 0.985 . S
H944 N941 0.984 . S
H945 N941 0.985 . S
H946 N940 0.984 . S
H947 N940 0.984 . S
H948 N936 0.984 . S
H949 N936 0.985 . S
C950 C951 1.363 . S
C950 C956 1.379 . S
C950 N958 1.356 . S
C951 C950 1.363 . S
C951 C957 1.363 . S
C952 C953 1.363 . S
C952 C957 1.379 . S
C952 N959 1.356 . S
C953 C952 1.363 . S
C953 C956 1.363 . S
N954 C956 1.356 . S
N954 H966 0.984 . S
N954 H967 0.985 . S
N955 C957 1.356 1_655 S
N955 H960 0.984 . S
N955 H961 0.985 . S
C956 C950 1.379 . S
C956 C953 1.363 . S
C956 N954 1.356 . S
C957 C951 1.363 . S
C957 C952 1.379 . S
C957 N955 1.356 1_455 S
N958 C950 1.356 . S
N958 H964 0.984 . S
N958 H965 0.984 1_455 S
N959 C952 1.356 . S
N959 H962 0.984 . S
N959 H963 0.985 . S
H960 N955 0.984 . S
H961 N955 0.985 . S
H962 N959 0.984 . S
H963 N959 0.985 . S
H964 N958 0.984 . S
H965 N958 0.984 1_655 S
H966 N954 0.984 . S
H967 N954 0.985 . S
C968 C969 1.363 . S
C968 C974 1.379 . S
C968 N976 1.356 . S
C969 C968 1.363 . S
C969 C975 1.363 . S
C970 C971 1.363 . S
C970 C975 1.379 . S
C970 N977 1.356 . S
C971 C970 1.363 . S
C971 C974 1.363 . S
N972 C974 1.356 . S
N972 H984 0.984 . S
N972 H985 0.985 . S
N973 C975 1.356 . S
N973 H978 0.984 . S
N973 H979 0.985 . S
C974 C968 1.379 . S
C974 C971 1.363 . S
C974 N972 1.356 . S
C975 C969 1.363 . S
C975 C970 1.379 . S
C975 N973 1.356 . S
N976 C968 1.356 . S
N976 H982 0.984 . S
N976 H983 0.984 . S
N977 C970 1.356 . S
N977 H980 0.984 . S
N977 H981 0.985 . S
H978 N973 0.984 . S
H979 N973 0.985 . S
H980 N977 0.984 . S
H981 N977 0.985 . S
H982 N976 0.984 . S
H983 N976 0.984 . S
H984 N972 0.984 . S
H985 N972 0.985 . S
C986 C987 1.363 . S
C986 C992 1.379 . S
C986 N994 1.356 . S
C987 C986 1.363 . S
C987 C993 1.363 . S
C988 C989 1.363 . S
C988 C993 1.379 . S
C988 N995 1.356 . S
C989 C988 1.363 . S
C989 C992 1.363 . S
N990 C992 1.356 . S
N990 H1002 0.984 . S
N990 H1003 0.985 . S
N991 C993 1.356 . S
N991 H996 0.984 . S
N991 H997 0.985 . S
C992 C986 1.379 . S
C992 C989 1.363 . S
C992 N990 1.356 . S
C993 C987 1.363 . S
C993 C988 1.379 . S
C993 N991 1.356 . S
N994 C986 1.356 . S
N994 H1000 0.984 . S
N994 H1001 0.984 . S
N995 C988 1.356 . S
N995 H998 0.984 . S
N995 H999 0.985 . S
H996 N991 0.984 . S
H997 N991 0.985 . S
H998 N995 0.984 . S
H999 N995 0.985 . S
H1000 N994 0.984 . S
H1001 N994 0.984 . S
H1002 N990 0.984 . S
H1003 N990 0.985 . S
C1004 C1005 1.363 . S
C1004 C1010 1.379 . S
C1004 N1012 1.356 . S
C1005 C1004 1.363 . S
C1005 C1011 1.363 . S
C1006 C1007 1.363 . S
C1006 C1011 1.379 . S
C1006 N1013 1.356 . S
C1007 C1006 1.363 . S
C1007 C1010 1.363 . S
N1008 C1010 1.356 . S
N1008 H1020 0.984 . S
N1008 H1021 0.985 . S
N1009 C1011 1.356 . S
N1009 H1014 0.984 . S
N1009 H1015 0.985 . S
C1010 C1004 1.379 . S
C1010 C1007 1.363 . S
C1010 N1008 1.356 . S
C1011 C1005 1.363 . S
C1011 C1006 1.379 . S
C1011 N1009 1.356 . S
N1012 C1004 1.356 . S
N1012 H1018 0.984 . S
N1012 H1019 0.984 . S
N1013 C1006 1.356 . S
N1013 H1016 0.984 . S
N1013 H1017 0.985 . S
H1014 N1009 0.984 . S
H1015 N1009 0.985 . S
H1016 N1013 0.984 . S
H1017 N1013 0.985 . S
H1018 N1012 0.984 . S
H1019 N1012 0.984 . S
H1020 N1008 0.984 . S
H1021 N1008 0.985 . S
C1022 C1023 1.363 . S
C1022 C1028 1.379 . S
C1022 N1030 1.356 . S
C1023 C1022 1.363 . S
C1023 C1029 1.363 . S
C1024 C1025 1.363 . S
C1024 C1029 1.379 . S
C1024 N1031 1.356 . S
C1025 C1024 1.363 . S
C1025 C1028 1.363 . S
N1026 C1028 1.356 1_455 S
N1026 H1038 0.984 . S
N1026 H1039 0.985 . S
N1027 C1029 1.356 . S
N1027 H1032 0.984 . S
N1027 H1033 0.985 . S
C1028 C1022 1.379 . S
C1028 C1025 1.363 . S
C1028 N1026 1.356 1_655 S
C1029 C1023 1.363 . S
C1029 C1024 1.379 . S
C1029 N1027 1.356 . S
N1030 C1022 1.356 . S
N1030 H1036 0.984 . S
N1030 H1037 0.984 . S
N1031 C1024 1.356 . S
N1031 H1034 0.984 1_655 S
N1031 H1035 0.985 . S
H1032 N1027 0.984 . S
H1033 N1027 0.985 . S
H1034 N1031 0.984 1_455 S
H1035 N1031 0.985 . S
H1036 N1030 0.984 . S
H1037 N1030 0.984 . S
H1038 N1026 0.984 . S
H1039 N1026 0.985 . S
C1040 C1041 1.363 . S
C1040 C1046 1.379 . S
C1040 N1048 1.356 . S
C1041 C1040 1.363 . S
C1041 C1047 1.363 . S
C1042 C1043 1.363 . S
C1042 C1047 1.379 . S
C1042 N1049 1.356 . S
C1043 C1042 1.363 . S
C1043 C1046 1.363 . S
N1044 C1046 1.356 . S
N1044 H1056 0.984 . S
N1044 H1057 0.985 . S
N1045 C1047 1.356 . S
N1045 H1050 0.984 . S
N1045 H1051 0.985 . S
C1046 C1040 1.379 . S
C1046 C1043 1.363 . S
C1046 N1044 1.356 . S
C1047 C1041 1.363 . S
C1047 C1042 1.379 . S
C1047 N1045 1.356 . S
N1048 C1040 1.356 . S
N1048 H1054 0.984 . S
N1048 H1055 0.984 . S
N1049 C1042 1.356 . S
N1049 H1052 0.984 . S
N1049 H1053 0.985 . S
H1050 N1045 0.984 . S
H1051 N1045 0.985 . S
H1052 N1049 0.984 . S
H1053 N1049 0.985 . S
H1054 N1048 0.984 . S
H1055 N1048 0.984 . S
H1056 N1044 0.984 . S
H1057 N1044 0.985 . S
C1058 C1059 1.363 . S
C1058 C1064 1.379 . S
C1058 N1066 1.356 . S
C1059 C1058 1.363 . S
C1059 C1065 1.363 . S
C1060 C1061 1.363 . S
C1060 C1065 1.379 . S
C1060 N1067 1.356 1_565 S
C1061 C1060 1.363 . S
C1061 C1064 1.363 . S
N1062 C1064 1.356 1_455 S
N1062 H1074 0.984 . S
N1062 H1075 0.985 . S
N1063 C1065 1.356 . S
N1063 H1068 0.984 . S
N1063 H1069 0.985 . S
C1064 C1058 1.379 . S
C1064 C1061 1.363 . S
C1064 N1062 1.356 1_655 S
C1065 C1059 1.363 . S
C1065 C1060 1.379 . S
C1065 N1063 1.356 . S
N1066 C1058 1.356 . S
N1066 H1072 0.984 . S
N1066 H1073 0.984 . S
N1067 C1060 1.356 1_545 S
N1067 H1070 0.984 1_655 S
N1067 H1071 0.985 . S
H1068 N1063 0.984 . S
H1069 N1063 0.985 . S
H1070 N1067 0.984 1_455 S
H1071 N1067 0.985 . S
H1072 N1066 0.984 . S
H1073 N1066 0.984 . S
H1074 N1062 0.984 . S
H1075 N1062 0.985 . S
C1076 C1077 1.363 . S
C1076 C1082 1.379 . S
C1076 N1084 1.356 . S
C1077 C1076 1.363 . S
C1077 C1083 1.363 . S
C1078 C1079 1.363 . S
C1078 C1083 1.379 . S
C1078 N1085 1.356 . S
C1079 C1078 1.363 . S
C1079 C1082 1.363 . S
N1080 C1082 1.356 . S
N1080 H1092 0.984 . S
N1080 H1093 0.985 . S
N1081 C1083 1.356 . S
N1081 H1086 0.984 . S
N1081 H1087 0.985 . S
C1082 C1076 1.379 . S
C1082 C1079 1.363 . S
C1082 N1080 1.356 . S
C1083 C1077 1.363 . S
C1083 C1078 1.379 . S
C1083 N1081 1.356 . S
N1084 C1076 1.356 . S
N1084 H1090 0.984 . S
N1084 H1091 0.984 . S
N1085 C1078 1.356 . S
N1085 H1088 0.984 . S
N1085 H1089 0.985 . S
H1086 N1081 0.984 . S
H1087 N1081 0.985 . S
H1088 N1085 0.984 . S
H1089 N1085 0.985 . S
H1090 N1084 0.984 . S
H1091 N1084 0.984 . S
H1092 N1080 0.984 . S
H1093 N1080 0.985 . S
C1094 C1095 1.363 . S
C1094 C1100 1.379 . S
C1094 N1102 1.356 . S
C1095 C1094 1.363 . S
C1095 C1101 1.363 . S
C1096 C1097 1.363 . S
C1096 C1101 1.379 . S
C1096 N1103 1.356 . S
C1097 C1096 1.363 . S
C1097 C1100 1.363 . S
N1098 C1100 1.356 . S
N1098 H1110 0.984 . S
N1098 H1111 0.985 . S
N1099 C1101 1.356 1_565 S
N1099 H1104 0.984 . S
N1099 H1105 0.985 . S
C1100 C1094 1.379 . S
C1100 C1097 1.363 . S
C1100 N1098 1.356 . S
C1101 C1095 1.363 . S
C1101 C1096 1.379 . S
C1101 N1099 1.356 1_545 S
N1102 C1094 1.356 . S
N1102 H1108 0.984 . S
N1102 H1109 0.984 . S
N1103 C1096 1.356 . S
N1103 H1106 0.984 . S
N1103 H1107 0.985 . S
H1104 N1099 0.984 . S
H1105 N1099 0.985 . S
H1106 N1103 0.984 . S
H1107 N1103 0.985 . S
H1108 N1102 0.984 . S
H1109 N1102 0.984 . S
H1110 N1098 0.984 . S
H1111 N1098 0.985 . S
C1112 C1113 1.363 . S
C1112 C1118 1.379 . S
C1112 N1120 1.356 . S
C1113 C1112 1.363 . S
C1113 C1119 1.363 . S
C1114 C1115 1.363 . S
C1114 C1119 1.379 . S
C1114 N1121 1.356 . S
C1115 C1114 1.363 . S
C1115 C1118 1.363 . S
N1116 C1118 1.356 . S
N1116 H1128 0.984 . S
N1116 H1129 0.985 . S
N1117 C1119 1.356 . S
N1117 H1122 0.984 . S
N1117 H1123 0.985 . S
C1118 C1112 1.379 . S
C1118 C1115 1.363 . S
C1118 N1116 1.356 . S
C1119 C1113 1.363 . S
C1119 C1114 1.379 . S
C1119 N1117 1.356 . S
N1120 C1112 1.356 . S
N1120 H1126 0.984 . S
N1120 H1127 0.984 . S
N1121 C1114 1.356 . S
N1121 H1124 0.984 . S
N1121 H1125 0.985 . S
H1122 N1117 0.984 . S
H1123 N1117 0.985 . S
H1124 N1121 0.984 . S
H1125 N1121 0.985 . S
H1126 N1120 0.984 . S
H1127 N1120 0.984 . S
H1128 N1116 0.984 . S
H1129 N1116 0.985 . S
C1130 C1131 1.363 . S
C1130 C1136 1.379 . S
C1130 N1138 1.356 1_545 S
C1131 C1130 1.363 . S
C1131 C1137 1.363 . S
C1132 C1133 1.363 . S
C1132 C1137 1.379 . S
C1132 N1139 1.356 . S
C1133 C1132 1.363 . S
C1133 C1136 1.363 . S
N1134 C1136 1.356 . S
N1134 H1146 0.984 . S
N1134 H1147 0.985 . S
N1135 C1137 1.356 1_655 S
N1135 H1140 0.984 . S
N1135 H1141 0.985 . S
C1136 C1130 1.379 . S
C1136 C1133 1.363 . S
C1136 N1134 1.356 . S
C1137 C1131 1.363 . S
C1137 C1132 1.379 . S
C1137 N1135 1.356 1_455 S
N1138 C1130 1.356 1_565 S
N1138 H1144 0.984 . S
N1138 H1145 0.984 1_455 S
N1139 C1132 1.356 . S
N1139 H1142 0.984 . S
N1139 H1143 0.985 . S
H1140 N1135 0.984 . S
H1141 N1135 0.985 . S
H1142 N1139 0.984 . S
H1143 N1139 0.985 . S
H1144 N1138 0.984 . S
H1145 N1138 0.984 1_655 S
H1146 N1134 0.984 . S
H1147 N1134 0.985 . S
C1148 C1149 1.363 . S
C1148 C1154 1.379 . S
C1148 N1156 1.356 . S
C1149 C1148 1.363 . S
C1149 C1155 1.363 . S
C1150 C1151 1.363 . S
C1150 C1155 1.379 . S
C1150 N1157 1.356 . S
C1151 C1150 1.363 . S
C1151 C1154 1.363 . S
N1152 C1154 1.356 . S
N1152 H1164 0.984 . S
N1152 H1165 0.985 . S
N1153 C1155 1.356 . S
N1153 H1158 0.984 . S
N1153 H1159 0.985 . S
C1154 C1148 1.379 . S
C1154 C1151 1.363 . S
C1154 N1152 1.356 . S
C1155 C1149 1.363 . S
C1155 C1150 1.379 . S
C1155 N1153 1.356 . S
N1156 C1148 1.356 . S
N1156 H1162 0.984 . S
N1156 H1163 0.984 . S
N1157 C1150 1.356 . S
N1157 H1160 0.984 . S
N1157 H1161 0.985 . S
H1158 N1153 0.984 . S
H1159 N1153 0.985 . S
H1160 N1157 0.984 . S
H1161 N1157 0.985 . S
H1162 N1156 0.984 . S
H1163 N1156 0.984 . S
H1164 N1152 0.984 . S
H1165 N1152 0.985 . S
C1166 C1167 1.363 . S
C1166 C1172 1.379 . S
C1166 N1174 1.356 . S
C1167 C1166 1.363 . S
C1167 C1173 1.363 . S
C1168 C1169 1.363 . S
C1168 C1173 1.379 . S
C1168 N1175 1.356 . S
C1169 C1168 1.363 . S
C1169 C1172 1.363 . S
N1170 C1172 1.356 1_545 S
N1170 H1182 0.984 . S
N1170 H1183 0.985 . S
N1171 C1173 1.356 . S
N1171 H1176 0.984 . S
N1171 H1177 0.985 . S
C1172 C1166 1.379 . S
C1172 C1169 1.363 . S
C1172 N1170 1.356 1_565 S
C1173 C1167 1.363 . S
C1173 C1168 1.379 . S
C1173 N1171 1.356 . S
N1174 C1166 1.356 . S
N1174 H1180 0.984 . S
N1174 H1181 0.984 . S
N1175 C1168 1.356 . S
N1175 H1178 0.984 . S
N1175 H1179 0.985 . S
H1176 N1171 0.984 . S
H1177 N1171 0.985 . S
H1178 N1175 0.984 . S
H1179 N1175 0.985 . S
H1180 N1174 0.984 . S
H1181 N1174 0.984 . S
H1182 N1170 0.984 . S
H1183 N1170 0.985 . S
C321 C8 0.872 . S
C323 C259 0.872 . S
C339 C119 0.872 . S
C341 C28 0.872 . S
C357 C48 0.872 . S
C359 C299 0.872 . S
C375 C68 0.872 . S
C377 C159 0.872 . S
C393 C99 0.872 . S
C395 C168 0.872 . S
C411 C208 0.872 . S
C413 C139 0.872 . S
C429 C279 0.872 . S
C431 C188 0.872 . S
C447 C228 0.872 . S
C449 C319 0.872 . S
C465 C189 1.880 . S
C467 C19 1.842 . S
C483 C39 1.842 . S
C485 C209 1.880 . S
C501 C59 1.842 . S
C503 C229 1.880 . S
C519 C169 1.880 . S
C521 C79 1.842 . S
C537 C261 1.880 . S
C539 C88 1.842 . S
C555 C281 1.880 . S
C557 C108 1.842 . S
C573 C128 1.842 . S
C575 C301 1.880 . S
C591 C241 1.880 . S
C593 C148 1.842 . S
C609 C179 1.842 . S
C611 C29 1.880 . S
C627 C199 1.842 1_565 S
C629 C49 1.880 . S
C645 C219 1.842 . S
C647 C69 1.880 . S
C663 C9 1.880 . S
C665 C239 1.842 1_545 S
C681 C101 1.880 . S
C683 C248 1.842 . S
C699 C268 1.842 1_545 S
C701 C121 1.880 . S
C717 C141 1.880 . S
C719 C288 1.842 . S
C735 C308 1.842 1_565 S
C737 C81 1.880 . S
C753 C16 1.917 . S
C755 C216 1.917 . S
C771 C36 1.916 . S
C773 C236 1.916 . S
C789 C176 1.917 . S
C791 C56 1.917 . S
C807 C76 1.916 . S
C809 C196 1.916 . S
C825 C86 1.917 . S
C827 C286 1.917 . S
C843 C106 1.916 . S
C845 C306 1.916 . S
C861 C246 1.917 . S
C863 C126 1.917 . S
C879 C146 1.916 . S
C881 C266 1.916 . S
C897 C1 1.202 . S
C899 C156 1.279 . S
C915 C256 1.279 . S
C917 C21 1.202 . S
C933 C41 1.202 . S
C935 C116 1.279 . S
C951 C61 1.202 1_455 S
C953 C296 1.279 . S
C969 C89 1.202 . S
C971 C66 1.279 . S
C987 C166 1.279 . S
C989 C109 1.202 . S
C1005 C129 1.202 . S
C1007 C26 1.279 . S
C1023 C206 1.279 . S
C1025 C149 1.202 1_655 S
C1041 C161 1.202 . S
C1043 C316 1.279 . S
C1059 C96 1.279 . S
C1061 C181 1.202 1_655 S
C1077 C276 1.279 . S
C1079 C201 1.202 . S
C1095 C221 1.202 . S
C1097 C136 1.279 . S
C1113 C249 1.202 . S
C1115 C226 1.279 . S
C1131 C269 1.202 1_455 S
C1133 C6 1.279 . S
C1149 C186 1.279 . S
C1151 C289 1.202 . S
C1167 C46 1.279 . S
C1169 C309 1.202 . S
