# Generated by pormake.
# Topology wmv, (6)-cn, num edge types: 1
# Building blocks:
#     Node 0, Type 0, BuildingBlock: IZENUY_clean_sbu_0, # of connection points: 6
#     Node 1, Type 0, BuildingBlock: IZENUY_clean_sbu_0, # of connection points: 6
#     Node 2, Type 0, BuildingBlock: IZENUY_clean_sbu_0, # of connection points: 6
#     Node 3, Type 0, BuildingBlock: IZENUY_clean_sbu_0, # of connection points: 6
#     Node 4, Type 0, BuildingBlock: IZENUY_clean_sbu_0, # of connection points: 6
#     Node 5, Type 0, BuildingBlock: IZENUY_clean_sbu_0, # of connection points: 6
#     Node 6, Type 0, BuildingBlock: IZENUY_clean_sbu_0, # of connection points: 6
#     Node 7, Type 0, BuildingBlock: IZENUY_clean_sbu_0, # of connection points: 6
#     Node 8, Type 0, BuildingBlock: IZENUY_clean_sbu_0, # of connection points: 6
#     Node 9, Type 0, BuildingBlock: IZENUY_clean_sbu_0, # of connection points: 6
#     Node 10, Type 0, BuildingBlock: IZENUY_clean_sbu_0, # of connection points: 6
#     Node 11, Type 0, BuildingBlock: IZENUY_clean_sbu_0, # of connection points: 6
#     Node 12, Type 0, BuildingBlock: IZENUY_clean_sbu_0, # of connection points: 6
#     Node 13, Type 0, BuildingBlock: IZENUY_clean_sbu_0, # of connection points: 6
#     Node 14, Type 0, BuildingBlock: IZENUY_clean_sbu_0, # of connection points: 6
#     Node 15, Type 0, BuildingBlock: IZENUY_clean_sbu_0, # of connection points: 6
#     Node 16, Type 0, BuildingBlock: IZENUY_clean_sbu_0, # of connection points: 6
#     Node 17, Type 0, BuildingBlock: IZENUY_clean_sbu_0, # of connection points: 6
#     Node 18, Type 0, BuildingBlock: IZENUY_clean_sbu_0, # of connection points: 6
#     Node 19, Type 0, BuildingBlock: IZENUY_clean_sbu_0, # of connection points: 6
#     Node 20, Type 0, BuildingBlock: IZENUY_clean_sbu_0, # of connection points: 6
#     Node 21, Type 0, BuildingBlock: IZENUY_clean_sbu_0, # of connection points: 6
#     Node 22, Type 0, BuildingBlock: IZENUY_clean_sbu_0, # of connection points: 6
#     Node 23, Type 0, BuildingBlock: IZENUY_clean_sbu_0, # of connection points: 6
#     Node 24, Type 0, BuildingBlock: IZENUY_clean_sbu_0, # of connection points: 6
#     Node 25, Type 0, BuildingBlock: IZENUY_clean_sbu_0, # of connection points: 6
#     Node 26, Type 0, BuildingBlock: IZENUY_clean_sbu_0, # of connection points: 6
#     Node 27, Type 0, BuildingBlock: IZENUY_clean_sbu_0, # of connection points: 6
#     Node 28, Type 0, BuildingBlock: IZENUY_clean_sbu_0, # of connection points: 6
#     Node 29, Type 0, BuildingBlock: IZENUY_clean_sbu_0, # of connection points: 6
#     Node 30, Type 0, BuildingBlock: IZENUY_clean_sbu_0, # of connection points: 6
#     Node 31, Type 0, BuildingBlock: IZENUY_clean_sbu_0, # of connection points: 6
#     Node 32, Type 0, BuildingBlock: IZENUY_clean_sbu_0, # of connection points: 6
#     Node 33, Type 0, BuildingBlock: IZENUY_clean_sbu_0, # of connection points: 6
#     Node 34, Type 0, BuildingBlock: IZENUY_clean_sbu_0, # of connection points: 6
#     Node 35, Type 0, BuildingBlock: IZENUY_clean_sbu_0, # of connection points: 6
#     Edge 36, Type (0, 0), None
#     Edge 37, Type (0, 0), None
#     Edge 38, Type (0, 0), None
#     Edge 39, Type (0, 0), None
#     Edge 40, Type (0, 0), None
#     Edge 41, Type (0, 0), None
#     Edge 42, Type (0, 0), None
#     Edge 43, Type (0, 0), None
#     Edge 44, Type (0, 0), None
#     Edge 45, Type (0, 0), None
#     Edge 46, Type (0, 0), None
#     Edge 47, Type (0, 0), None
#     Edge 48, Type (0, 0), None
#     Edge 49, Type (0, 0), None
#     Edge 50, Type (0, 0), None
#     Edge 51, Type (0, 0), None
#     Edge 52, Type (0, 0), None
#     Edge 53, Type (0, 0), None
#     Edge 54, Type (0, 0), None
#     Edge 55, Type (0, 0), None
#     Edge 56, Type (0, 0), None
#     Edge 57, Type (0, 0), None
#     Edge 58, Type (0, 0), None
#     Edge 59, Type (0, 0), None
#     Edge 60, Type (0, 0), None
#     Edge 61, Type (0, 0), None
#     Edge 62, Type (0, 0), None
#     Edge 63, Type (0, 0), None
#     Edge 64, Type (0, 0), None
#     Edge 65, Type (0, 0), None
#     Edge 66, Type (0, 0), None
#     Edge 67, Type (0, 0), None
#     Edge 68, Type (0, 0), None
#     Edge 69, Type (0, 0), None
#     Edge 70, Type (0, 0), None
#     Edge 71, Type (0, 0), None
#     Edge 72, Type (0, 0), None
#     Edge 73, Type (0, 0), None
#     Edge 74, Type (0, 0), None
#     Edge 75, Type (0, 0), None
#     Edge 76, Type (0, 0), None
#     Edge 77, Type (0, 0), None
#     Edge 78, Type (0, 0), None
#     Edge 79, Type (0, 0), None
#     Edge 80, Type (0, 0), None
#     Edge 81, Type (0, 0), None
#     Edge 82, Type (0, 0), None
#     Edge 83, Type (0, 0), None
#     Edge 84, Type (0, 0), None
#     Edge 85, Type (0, 0), None
#     Edge 86, Type (0, 0), None
#     Edge 87, Type (0, 0), None
#     Edge 88, Type (0, 0), None
#     Edge 89, Type (0, 0), None
#     Edge 90, Type (0, 0), None
#     Edge 91, Type (0, 0), None
#     Edge 92, Type (0, 0), None
#     Edge 93, Type (0, 0), None
#     Edge 94, Type (0, 0), None
#     Edge 95, Type (0, 0), None
#     Edge 96, Type (0, 0), None
#     Edge 97, Type (0, 0), None
#     Edge 98, Type (0, 0), None
#     Edge 99, Type (0, 0), None
#     Edge 100, Type (0, 0), None
#     Edge 101, Type (0, 0), None
#     Edge 102, Type (0, 0), None
#     Edge 103, Type (0, 0), None
#     Edge 104, Type (0, 0), None
#     Edge 105, Type (0, 0), None
#     Edge 106, Type (0, 0), None
#     Edge 107, Type (0, 0), None
#     Edge 108, Type (0, 0), None
#     Edge 109, Type (0, 0), None
#     Edge 110, Type (0, 0), None
#     Edge 111, Type (0, 0), None
#     Edge 112, Type (0, 0), None
#     Edge 113, Type (0, 0), None
#     Edge 114, Type (0, 0), None
#     Edge 115, Type (0, 0), None
#     Edge 116, Type (0, 0), None
#     Edge 117, Type (0, 0), None
#     Edge 118, Type (0, 0), None
#     Edge 119, Type (0, 0), None
#     Edge 120, Type (0, 0), None
#     Edge 121, Type (0, 0), None
#     Edge 122, Type (0, 0), None
#     Edge 123, Type (0, 0), None
#     Edge 124, Type (0, 0), None
#     Edge 125, Type (0, 0), None
#     Edge 126, Type (0, 0), None
#     Edge 127, Type (0, 0), None
#     Edge 128, Type (0, 0), None
#     Edge 129, Type (0, 0), None
#     Edge 130, Type (0, 0), None
#     Edge 131, Type (0, 0), None
#     Edge 132, Type (0, 0), None
#     Edge 133, Type (0, 0), None
#     Edge 134, Type (0, 0), None
#     Edge 135, Type (0, 0), None
#     Edge 136, Type (0, 0), None
#     Edge 137, Type (0, 0), None
#     Edge 138, Type (0, 0), None
#     Edge 139, Type (0, 0), None
#     Edge 140, Type (0, 0), None
#     Edge 141, Type (0, 0), None
#     Edge 142, Type (0, 0), None
#     Edge 143, Type (0, 0), None
# Relax obj value: 0.278
# Max RMSD: 0.282
# Mean RMSD: 0.282
data_MOF--net-wmv--node1-IZENUY_clean_sbu_0--edge1-none
_symmetry_space_group_name_H-M    P1
_symmetry_Int_Tables_number       1
_symmetry_cell_setting            triclinic
loop_
_symmetry_equiv_pos_as_xyz
'x, y, z'
_cell_length_a     37.166096
_cell_length_b     37.16624
_cell_length_c     13.068139
_cell_angle_alpha  89.997656
_cell_angle_beta   90.004446
_cell_angle_gamma 120.00054
loop_
_atom_site_label
_atom_site_type_symbol
_atom_site_fract_x
_atom_site_fract_y
_atom_site_fract_z
_atom_type_partial_charge
Fe0 Fe 0.08805 0.26133 0.05883 0.0
Fe1 Fe 0.17637 0.27732 0.08583 0.0
O2 O 0.12261 0.24607 0.10884 0.0
Fe3 Fe 0.10464 0.20014 0.18206 0.0
O4 O 0.05377 0.17015 0.11519 0.0
O5 O 0.05921 0.21252 0.99175 0.0
O6 O 0.11776 0.28162 0.93827 0.0
C7 C 0.1427 0.27168 0.89751 0.0
C8 C 0.05623 0.23042 0.25867 0.0
O9 O 0.16736 0.26535 0.95109 0.0
C10 C 0.1736 0.26131 0.28894 0.0
O11 O 0.11502 0.31218 0.12291 0.0
O12 O 0.17593 0.32567 0.06765 0.0
O13 O 0.08216 0.21881 0.27568 0.0
O14 O 0.05206 0.24153 0.16955 0.0
C15 C 0.16645 0.19712 0.07852 0.0
O16 O 0.18555 0.28948 0.22167 0.0
O17 O 0.15084 0.22324 0.26526 0.0
C18 C 0.153 0.33768 0.10787 0.0
O19 O 0.18812 0.2354 0.09815 0.0
O20 O 0.12754 0.17839 0.09314 0.0
C21 C 0.03996 0.17728 1.03337 0.0
Fe22 Fe 0.86432 0.91738 0.18205 0.0
Fe23 Fe 0.80313 0.8396 0.05883 0.0
O24 O 0.81839 0.88942 0.10883 0.0
Fe25 Fe 0.78714 0.91192 0.08582 0.0
O26 O 0.82906 0.96559 0.09812 0.0
O27 O 0.88607 0.96203 0.09312 0.0
O28 O 0.8943 0.89649 0.11518 0.0
C29 C 0.88717 0.87556 1.03336 0.0
C30 C 0.80315 0.92517 0.28893 0.0
O31 O 0.85193 0.85956 0.99175 0.0
C32 C 0.72677 0.8282 0.10788 0.0
O33 O 0.84565 0.87623 0.27568 0.0
O34 O 0.82292 0.8234 0.16955 0.0
O35 O 0.77498 0.90895 0.22166 0.0
O36 O 0.84123 0.94048 0.26525 0.0
C37 C 0.79277 0.8839 0.8975 0.0
O38 O 0.75228 0.81572 0.12292 0.0
O39 O 0.73879 0.86314 0.06765 0.0
C40 C 0.83404 0.83869 0.25867 0.0
O41 O 0.78283 0.84902 0.93827 0.0
O42 O 0.7991 0.91488 0.95108 0.0
C43 C 0.86734 0.98221 0.0785 0.0
Fe44 Fe 0.14708 0.95983 0.18206 0.0
Fe45 Fe 0.22486 0.97642 0.05886 0.0
O46 O 0.17504 0.94186 0.10886 0.0
Fe47 Fe 0.15254 0.8881 0.08584 0.0
O48 O 0.09887 0.87636 0.09814 0.0
O49 O 0.10244 0.93694 0.09312 0.0
O50 O 0.16797 1.0107 0.11519 0.0
C51 C 0.18891 1.02451 1.03338 0.0
C52 C 0.13929 0.89087 0.28895 0.0
O53 O 0.2049 1.00526 0.99178 0.0
C54 C 0.23626 0.91146 0.10789 0.0
O55 O 0.18823 0.98231 0.2757 0.0
O56 O 0.24106 1.01241 0.16959 0.0
O57 O 0.15551 0.87892 0.22169 0.0
O58 O 0.12398 0.91364 0.26526 0.0
C59 C 0.18056 0.92177 0.89752 0.0
O60 O 0.24874 0.94945 0.12295 0.0
O61 O 0.20132 0.88853 0.06768 0.0
C62 C 0.22577 1.00824 0.25869 0.0
O63 O 0.21544 0.9467 0.9383 0.0
O64 O 0.14958 0.89711 0.9511 0.0
C65 C 0.08225 0.89802 0.07851 0.0
Fe66 Fe 0.27423 0.07515 0.52916 0.0
Fe67 Fe 0.29023 0.16347 0.50217 0.0
O68 O 0.25897 0.10972 0.47915 0.0
Fe69 Fe 0.21303 0.09175 0.40594 0.0
O70 O 0.18305 0.04087 0.47279 0.0
O71 O 0.22542 0.04632 0.59623 0.0
O72 O 0.29452 0.10487 0.64973 0.0
C73 C 0.28459 0.12981 0.69049 0.0
C74 C 0.24335 0.04338 0.32931 0.0
O75 O 0.27826 0.15447 0.63691 0.0
C76 C 0.27421 0.16071 0.29906 0.0
O77 O 0.32508 0.10212 0.46509 0.0
O78 O 0.33857 0.16304 0.52034 0.0
O79 O 0.23171 0.06928 0.3123 0.0
O80 O 0.25443 0.03916 0.41843 0.0
C81 C 0.21002 0.15355 0.5095 0.0
O82 O 0.30238 0.17265 0.36633 0.0
O83 O 0.23614 0.13795 0.32275 0.0
C84 C 0.35059 0.14011 0.48012 0.0
O85 O 0.2483 0.17522 0.48987 0.0
O86 O 0.19129 0.11464 0.49487 0.0
C87 C 0.19018 0.02707 0.55461 0.0
Fe88 Fe 0.98932 0.21196 0.52913 0.0
Fe89 Fe 0.901 0.13964 0.50214 0.0
O90 O 0.95475 0.16214 0.47913 0.0
Fe91 Fe 0.97272 0.13417 0.40593 0.0
O92 O 1.0236 0.15506 0.47277 0.0
O93 O 1.01816 0.19199 0.59621 0.0
O94 O 0.9596 0.20254 0.6497 0.0
C95 C 0.93466 0.16766 0.69047 0.0
C96 C 1.02109 0.21286 0.32928 0.0
O97 O 0.91001 0.13668 0.63689 0.0
C98 C 0.90376 0.12638 0.29904 0.0
O99 O 0.96235 0.23584 0.46505 0.0
O100 O 0.90143 0.18842 0.52031 0.0
O101 O 0.99519 0.17531 0.31228 0.0
O102 O 1.0253 0.22815 0.4184 0.0
C103 C 0.91092 0.06935 0.50949 0.0
O104 O 0.89182 0.14261 0.3663 0.0
O105 O 0.92652 0.11107 0.32273 0.0
C106 C 0.92436 0.22336 0.4801 0.0
O107 O 0.88925 0.08596 0.48985 0.0
O108 O 0.94983 0.08953 0.49487 0.0
C109 C 1.0374 0.176 0.55459 0.0
Fe110 Fe 0.92482 0.77424 0.50216 0.0
Fe111 Fe 0.93029 0.85143 0.40594 0.0
O112 O 0.90232 0.8055 0.47914 0.0
Fe113 Fe 0.8525 0.79023 0.52914 0.0
O114 O 0.86192 0.76994 0.6497 0.0
O115 O 0.92778 0.78621 0.6369 0.0
O116 O 0.97849 0.81617 0.48988 0.0
C117 C 0.99511 0.85445 0.50951 0.0
C118 C 0.8411 0.71388 0.4801 0.0
O119 O 0.97493 0.87318 0.49489 0.0
C120 C 0.8516 0.82111 0.32929 0.0
O121 O 0.92185 0.76209 0.36632 0.0
O122 O 0.95339 0.82834 0.32275 0.0
O123 O 0.82862 0.73938 0.46505 0.0
O124 O 0.87604 0.72589 0.52032 0.0
C125 C 0.88846 0.87428 0.5546 0.0
O126 O 0.88915 0.83276 0.31228 0.0
O127 O 0.8363 0.81003 0.4184 0.0
C128 C 0.93808 0.79026 0.29906 0.0
O129 O 0.90939 0.88141 0.47278 0.0
O130 O 0.87246 0.83904 0.59621 0.0
C131 C 0.8968 0.77987 0.69048 0.0
Fe132 Fe 0.97271 0.85143 0.90593 0.0
Fe133 Fe 0.90101 0.77423 1.00216 0.0
O134 O 0.95476 0.8055 0.97916 0.0
Fe135 Fe 0.98933 0.79025 1.02916 0.0
O136 O 1.01818 0.83906 0.09624 0.0
O137 O 1.02359 0.88142 0.97278 0.0
O138 O 0.94982 0.87317 0.99486 0.0
C139 C 0.91091 0.85443 1.00944 0.0
C140 C 1.02113 0.82116 0.82931 0.0
O141 O 0.88924 0.81615 0.98985 0.0
C142 C 0.92438 0.71388 0.98015 0.0
O143 O 0.92652 0.82832 0.82274 0.0
O144 O 0.89183 0.76208 0.86631 0.0
O145 O 1.02532 0.81005 0.91842 0.0
O146 O 0.99518 0.83275 0.8123 0.0
C147 C 0.93467 0.77988 0.19048 0.0
O148 O 0.90145 0.72589 1.02034 0.0
O149 O 0.96237 0.7394 0.96507 0.0
C150 C 0.90376 0.79025 0.79905 0.0
O151 O 0.91001 0.7862 0.13689 0.0
O152 O 0.95962 0.76996 0.14973 0.0
C153 C 1.03738 0.87431 0.05464 0.0
Fe154 Fe 0.27423 0.21197 1.02916 0.0
Fe155 Fe 0.21304 0.13418 0.90594 0.0
O156 O 0.25897 0.16215 0.97917 0.0
Fe157 Fe 0.29024 0.13966 1.00217 0.0
O158 O 0.27827 0.1367 0.13691 0.0
O159 O 0.29452 0.20256 0.14973 0.0
O160 O 0.22542 0.19201 0.09624 0.0
C161 C 0.19017 0.17597 0.05465 0.0
C162 C 0.35059 0.22339 0.98014 0.0
O163 O 0.18305 0.15507 0.97279 0.0
C164 C 0.27421 0.1264 0.79907 0.0
O165 O 0.25443 0.22816 0.91842 0.0
O166 O 0.23172 0.17533 0.81231 0.0
O167 O 0.33858 0.18845 1.02034 0.0
O168 O 0.32508 0.23586 0.96507 0.0
C169 C 0.21004 0.06937 1.00946 0.0
O170 O 0.23614 0.11109 0.82275 0.0
O171 O 0.30239 0.14264 0.86632 0.0
C172 C 0.24331 0.21286 0.82931 0.0
O173 O 0.1913 0.08954 0.99488 0.0
O174 O 0.24832 0.08599 0.98987 0.0
C175 C 0.2846 0.16768 0.19049 0.0
Fe176 Fe 0.93029 0.09174 0.90593 0.0
Fe177 Fe 0.92481 0.16346 1.00214 0.0
O178 O 0.90231 0.1097 0.97914 0.0
Fe179 Fe 0.85249 0.07513 1.02913 0.0
O180 O 0.87245 0.04629 0.09622 0.0
O181 O 0.9094 0.04087 0.97277 0.0
O182 O 0.97492 0.11464 0.99488 0.0
C183 C 0.9951 0.15355 1.00946 0.0
C184 C 0.8516 0.04333 0.82929 0.0
O185 O 0.97848 0.17521 0.98986 0.0
C186 C 0.84107 0.14008 0.98013 0.0
O187 O 0.95339 0.13794 0.82274 0.0
O188 O 0.92183 0.17263 0.86629 0.0
O189 O 0.8363 0.03915 0.91839 0.0
O190 O 0.88914 0.06928 0.81229 0.0
C191 C 0.89679 0.1298 0.19047 0.0
O192 O 0.87602 0.16302 1.02031 0.0
O193 O 0.82861 0.1021 0.96504 0.0
C194 C 0.93807 0.1607 0.79905 0.0
O195 O 0.92777 0.15445 0.13688 0.0
O196 O 0.86191 0.10484 0.1497 0.0
C197 C 0.88849 0.02708 0.05463 0.0
Fe198 Fe 0.86433 0.95981 0.68205 0.0
Fe199 Fe 0.78713 0.8881 0.58582 0.0
O200 O 0.8184 0.94186 0.60883 0.0
Fe201 Fe 0.80315 0.97643 0.55883 0.0
O202 O 0.85195 1.00527 0.49175 0.0
O203 O 0.89431 1.01069 0.61523 0.0
O204 O 0.88606 0.93692 0.5931 0.0
C205 C 0.86732 0.89801 0.57852 0.0
C206 C 0.83403 1.00819 0.75869 0.0
O207 O 0.82904 0.87634 0.59812 0.0
C208 C 0.72677 0.91148 0.60784 0.0
O209 O 0.84122 0.91361 0.76523 0.0
O210 O 0.77498 0.87893 0.72167 0.0
O211 O 0.82294 1.01241 0.66957 0.0
O212 O 0.84565 0.98227 0.7757 0.0
C213 C 0.79277 0.92176 0.3975 0.0
O214 O 0.73878 0.88855 0.56765 0.0
O215 O 0.75229 0.94947 0.62291 0.0
C216 C 0.80315 0.89086 0.78892 0.0
O217 O 0.79909 0.8971 0.45109 0.0
O218 O 0.78285 0.94672 0.43825 0.0
C219 C 0.8872 1.02448 0.53336 0.0
Fe220 Fe 0.10465 0.9174 0.68206 0.0
Fe221 Fe 0.17636 0.91191 0.58585 0.0
O222 O 0.1226 0.88942 0.60885 0.0
Fe223 Fe 0.08803 0.8396 0.55886 0.0
O224 O 0.05919 0.85956 0.49178 0.0
O225 O 0.05377 0.89651 0.61524 0.0
O226 O 0.12754 0.96203 0.5931 0.0
C227 C 0.16645 0.98221 0.57852 0.0
C228 C 0.05627 0.83872 0.75872 0.0
O229 O 0.18812 0.96559 0.59813 0.0
C230 C 0.15298 0.82818 0.60786 0.0
O231 O 0.15085 0.9405 0.76524 0.0
O232 O 0.18553 0.90894 0.7217 0.0
O233 O 0.05205 0.82342 0.66961 0.0
O234 O 0.08219 0.87627 0.77572 0.0
C235 C 0.1427 0.88389 0.39752 0.0
O236 O 0.17592 0.86313 0.56768 0.0
O237 O 0.115 0.81571 0.62294 0.0
C238 C 0.17361 0.92518 0.78894 0.0
O239 O 0.16735 0.91488 0.45111 0.0
O240 O 0.11774 0.84902 0.43828 0.0
C241 C 0.03998 0.8756 0.53338 0.0
Fe242 Fe 0.14707 0.20014 0.68205 0.0
Fe243 Fe 0.15256 0.27734 0.58583 0.0
O244 O 0.17505 0.24607 0.60884 0.0
Fe245 Fe 0.22487 0.26133 0.55885 0.0
O246 O 0.20491 0.21252 0.49177 0.0
O247 O 0.16797 0.17016 0.61523 0.0
O248 O 0.10244 0.1784 0.59309 0.0
C249 C 0.08227 0.19714 0.5785 0.0
C250 C 0.22575 0.23044 0.75871 0.0
O251 O 0.09889 0.23542 0.59811 0.0
C252 C 0.23629 0.3377 0.60786 0.0
O253 O 0.12397 0.22324 0.76522 0.0
O254 O 0.15553 0.28948 0.72168 0.0
O255 O 0.24106 0.24153 0.66961 0.0
O256 O 0.18821 0.21882 0.77571 0.0
C257 C 0.18058 0.2717 0.39751 0.0
O258 O 0.20135 0.32568 0.56767 0.0
O259 O 0.24876 0.31218 0.62294 0.0
C260 C 0.13928 0.26131 0.78892 0.0
O261 O 0.1496 0.26537 0.45109 0.0
O262 O 0.21545 0.28162 0.43828 0.0
C263 C 0.18887 0.17727 0.53337 0.0
Fe264 Fe 0.77131 0.53347 0.51539 0.0
Fe265 Fe 0.75471 0.59466 0.39216 0.0
O266 O 0.78928 0.5794 0.44218 0.0
Fe267 Fe 0.84303 0.61066 0.41916 0.0
O268 O 0.85478 0.56874 0.43148 0.0
O269 O 0.79421 0.51172 0.42647 0.0
O270 O 0.72044 0.50348 0.44852 0.0
C271 C 0.70663 0.51061 0.3667 0.0
C272 C 0.84027 0.59465 0.62228 0.0
O273 O 0.72587 0.54585 0.32509 0.0
C274 C 0.81967 0.67102 0.4412 0.0
O275 O 0.74883 0.55214 0.60902 0.0
O276 O 0.71872 0.57487 0.50288 0.0
O277 O 0.85221 0.62281 0.55501 0.0
O278 O 0.81751 0.55657 0.5986 0.0
C279 C 0.80937 0.60501 0.23084 0.0
O280 O 0.78168 0.64551 0.45625 0.0
O281 O 0.8426 0.659 0.40099 0.0
C282 C 0.7229 0.56375 0.592 0.0
O283 O 0.78443 0.61495 0.27161 0.0
O284 O 0.83402 0.59869 0.28442 0.0
C285 C 0.83312 0.53046 0.41186 0.0
Fe286 Fe 0.53099 0.25072 0.51538 0.0
Fe287 Fe 0.46979 0.17293 0.39216 0.0
O288 O 0.48506 0.22275 0.44217 0.0
Fe289 Fe 0.4538 0.24526 0.41915 0.0
O290 O 0.49573 0.29893 0.43146 0.0
O291 O 0.55274 0.29536 0.42646 0.0
O292 O 0.56097 0.22983 0.44852 0.0
C293 C 0.55384 0.20889 0.3667 0.0
C294 C 0.46982 0.2585 0.62226 0.0
O295 O 0.5186 0.1929 0.32508 0.0
C296 C 0.39344 0.16154 0.44121 0.0
O297 O 0.51232 0.20957 0.60901 0.0
O298 O 0.48959 0.15673 0.50289 0.0
O299 O 0.44165 0.24228 0.55499 0.0
O300 O 0.50789 0.27381 0.59858 0.0
C301 C 0.45944 0.21723 0.23083 0.0
O302 O 0.41895 0.14905 0.45625 0.0
O303 O 0.40545 0.19647 0.40098 0.0
C304 C 0.50071 0.17202 0.592 0.0
O305 O 0.4495 0.18236 0.27161 0.0
O306 O 0.46577 0.24822 0.28441 0.0
C307 C 0.53401 0.31554 0.41184 0.0
Fe308 Fe 0.81374 0.29316 0.51539 0.0
Fe309 Fe 0.89153 0.30975 0.39219 0.0
O310 O 0.84171 0.27519 0.44219 0.0
Fe311 Fe 0.8192 0.22144 0.41918 0.0
O312 O 0.76554 0.20969 0.43147 0.0
O313 O 0.7691 0.27027 0.42646 0.0
O314 O 0.83464 0.34404 0.44853 0.0
C315 C 0.85557 0.35784 0.36671 0.0
C316 C 0.80596 0.2242 0.62228 0.0
O317 O 0.87157 0.33859 0.32511 0.0
C318 C 0.90293 0.24479 0.44123 0.0
O319 O 0.8549 0.31564 0.60903 0.0
O320 O 0.90773 0.34574 0.50292 0.0
O321 O 0.82218 0.21226 0.55502 0.0
O322 O 0.79065 0.24697 0.59859 0.0
C323 C 0.84723 0.2551 0.23086 0.0
O324 O 0.91541 0.28278 0.45628 0.0
O325 O 0.86798 0.22187 0.40102 0.0
C326 C 0.89244 0.34157 0.59203 0.0
O327 O 0.88211 0.28004 0.27164 0.0
O328 O 0.81624 0.23045 0.28443 0.0
C329 C 0.74892 0.23136 0.41184 0.0
Fe330 Fe 0.94089 0.40849 0.8625 0.0
Fe331 Fe 0.95689 0.49681 0.8355 0.0
O332 O 0.92564 0.44305 0.81249 0.0
Fe333 Fe 0.8797 0.42509 0.73927 0.0
O334 O 0.84972 0.37421 0.80612 0.0
O335 O 0.89209 0.37965 0.92957 0.0
O336 O 0.96119 0.4382 0.98306 0.0
C337 C 0.95125 0.46314 1.02383 0.0
C338 C 0.91002 0.37671 0.66264 0.0
O339 O 0.94493 0.4878 0.97024 0.0
C340 C 0.94088 0.49404 0.63239 0.0
O341 O 0.99175 0.43545 0.79842 0.0
O342 O 1.00524 0.49637 0.85368 0.0
O343 O 0.89837 0.40261 0.64563 0.0
O344 O 0.9211 0.3725 0.75177 0.0
C345 C 0.87669 0.48689 0.84283 0.0
O346 O 0.96905 0.50599 0.69966 0.0
O347 O 0.9028 0.47128 0.65608 0.0
C348 C 1.01725 0.47344 0.81345 0.0
O349 O 0.91497 0.50855 0.8232 0.0
O350 O 0.85796 0.44798 0.82821 0.0
C351 C 0.85685 0.3604 0.88794 0.0
Fe352 Fe 0.65598 0.54529 0.86247 0.0
Fe353 Fe 0.56766 0.47297 0.83548 0.0
O354 O 0.62142 0.49547 0.81246 0.0
Fe355 Fe 0.63938 0.4675 0.73926 0.0
O356 O 0.69026 0.4884 0.80611 0.0
O357 O 0.68482 0.52533 0.92954 0.0
O358 O 0.62627 0.53587 0.98303 0.0
C359 C 0.60133 0.501 1.0238 0.0
C360 C 0.68776 0.54619 0.66262 0.0
O361 O 0.57667 0.47001 0.97022 0.0
C362 C 0.57043 0.45972 0.63237 0.0
O363 O 0.62901 0.56918 0.79839 0.0
O364 O 0.5681 0.52175 0.85364 0.0
O365 O 0.66185 0.50864 0.64561 0.0
O366 O 0.69197 0.56149 0.75173 0.0
C367 C 0.57758 0.40269 0.84283 0.0
O368 O 0.55848 0.47594 0.69963 0.0
O369 O 0.59318 0.4444 0.65607 0.0
C370 C 0.59102 0.55669 0.81344 0.0
O371 O 0.55592 0.4193 0.82319 0.0
O372 O 0.61649 0.42286 0.82821 0.0
C373 C 0.70407 0.50933 0.88792 0.0
Fe374 Fe 0.51917 0.12357 0.86247 0.0
Fe375 Fe 0.59149 0.10757 0.83549 0.0
O376 O 0.56899 0.13883 0.81247 0.0
Fe377 Fe 0.59696 0.18476 0.73927 0.0
O378 O 0.57606 0.21474 0.80612 0.0
O379 O 0.53913 0.17237 0.92955 0.0
O380 O 0.52859 0.10327 0.98303 0.0
C381 C 0.56346 0.11321 1.02381 0.0
C382 C 0.51826 0.15444 0.66262 0.0
O383 O 0.59445 0.11954 0.97024 0.0
C384 C 0.60474 0.1236 0.63239 0.0
O385 O 0.49528 0.07271 0.79838 0.0
O386 O 0.54271 0.05922 0.85365 0.0
O387 O 0.55581 0.16609 0.64562 0.0
O388 O 0.50297 0.14336 0.75173 0.0
C389 C 0.66177 0.18778 0.84285 0.0
O390 O 0.58852 0.09543 0.69965 0.0
O391 O 0.62006 0.16167 0.65608 0.0
C392 C 0.50777 0.04721 0.81343 0.0
O393 O 0.64516 0.1495 0.82321 0.0
O394 O 0.64159 0.20651 0.82822 0.0
C395 C 0.55512 0.20761 0.88793 0.0
Fe396 Fe 0.656 0.12359 0.36249 0.0
Fe397 Fe 0.63938 0.18476 0.23927 0.0
O398 O 0.62143 0.13883 0.31249 0.0
Fe399 Fe 0.56767 0.10757 0.33549 0.0
O400 O 0.57668 0.11954 0.47023 0.0
O401 O 0.62629 0.10329 0.48306 0.0
O402 O 0.68484 0.17239 0.42957 0.0
C403 C 0.70405 0.20764 0.38797 0.0
C404 C 0.59105 0.04721 0.31348 0.0
O405 O 0.69026 0.21475 0.30611 0.0
C406 C 0.57042 0.12358 0.13239 0.0
O407 O 0.69198 0.14338 0.25176 0.0
O408 O 0.66185 0.16609 0.14564 0.0
O409 O 0.56812 0.05922 0.35367 0.0
O410 O 0.62903 0.07273 0.29841 0.0
C411 C 0.57757 0.18776 0.34278 0.0
O412 O 0.59318 0.16166 0.15607 0.0
O413 O 0.5585 0.09541 0.19964 0.0
C414 C 0.6878 0.1545 0.16265 0.0
O415 O 0.61648 0.2065 0.3282 0.0
O416 O 0.55591 0.14948 0.32318 0.0
C417 C 0.60133 0.11321 0.52382 0.0
Fe418 Fe 0.94089 0.54531 0.36249 0.0
Fe419 Fe 0.87971 0.46751 0.23928 0.0
O420 O 0.92564 0.49549 0.3125 0.0
Fe421 Fe 0.95691 0.473 0.3355 0.0
O422 O 0.94494 0.47003 0.47024 0.0
O423 O 0.96119 0.53589 0.48306 0.0
O424 O 0.89209 0.52535 0.42958 0.0
C425 C 0.85684 0.5093 0.38798 0.0
C426 C 1.01726 0.55673 0.31347 0.0
O427 O 0.84972 0.4884 0.30612 0.0
C428 C 0.94088 0.45973 0.1324 0.0
O429 O 0.92109 0.5615 0.25175 0.0
O430 O 0.89839 0.50866 0.14564 0.0
O431 O 1.00525 0.52179 0.35368 0.0
O432 O 0.99174 0.56919 0.2984 0.0
C433 C 0.87671 0.4027 0.3428 0.0
O434 O 0.90281 0.44442 0.15609 0.0
O435 O 0.96905 0.47598 0.19966 0.0
C436 C 0.90998 0.5462 0.16265 0.0
O437 O 0.85797 0.42288 0.32821 0.0
O438 O 0.91499 0.41932 0.3232 0.0
C439 C 0.95127 0.50102 0.52382 0.0
Fe440 Fe 0.51916 0.40847 0.36246 0.0
Fe441 Fe 0.59695 0.42508 0.23927 0.0
O442 O 0.56898 0.44303 0.31248 0.0
Fe443 Fe 0.59147 0.49679 0.33548 0.0
O444 O 0.59444 0.48779 0.47022 0.0
O445 O 0.52858 0.43818 0.48303 0.0
O446 O 0.53912 0.37962 0.42955 0.0
C447 C 0.55516 0.36041 0.38796 0.0
C448 C 0.50774 0.47342 0.31346 0.0
O449 O 0.57606 0.3742 0.30611 0.0
C450 C 0.60474 0.49403 0.13238 0.0
O451 O 0.50297 0.37248 0.25172 0.0
O452 O 0.55581 0.40261 0.14562 0.0
O453 O 0.54269 0.49635 0.35364 0.0
O454 O 0.49527 0.43543 0.29837 0.0
C455 C 0.66177 0.48688 0.34279 0.0
O456 O 0.62005 0.47127 0.15608 0.0
O457 O 0.5885 0.50596 0.19963 0.0
C458 C 0.51827 0.37666 0.16262 0.0
O459 O 0.64159 0.44797 0.32821 0.0
O460 O 0.64515 0.50855 0.32319 0.0
C461 C 0.56345 0.46313 0.5238 0.0
Fe462 Fe 0.53099 0.29314 1.01539 0.0
Fe463 Fe 0.45379 0.22144 0.91916 0.0
O464 O 0.48506 0.27519 0.94216 0.0
Fe465 Fe 0.46981 0.30976 0.89216 0.0
O466 O 0.51862 0.33861 0.82509 0.0
O467 O 0.56098 0.34402 0.94856 0.0
O468 O 0.55273 0.27025 0.92644 0.0
C469 C 0.53399 0.23134 0.91185 0.0
C470 C 0.50069 0.34152 0.09202 0.0
O471 O 0.49571 0.20968 0.93145 0.0
C472 C 0.39344 0.24482 0.94117 0.0
O473 O 0.50789 0.24694 0.09856 0.0
O474 O 0.44164 0.21226 0.055 0.0
O475 O 0.48961 0.34575 1.00291 0.0
O476 O 0.51232 0.3156 0.10903 0.0
C477 C 0.45943 0.2551 0.73083 0.0
O478 O 0.40545 0.22188 0.90098 0.0
O479 O 0.41896 0.2828 0.95624 0.0
C480 C 0.46982 0.22419 0.12225 0.0
O481 O 0.46576 0.23044 0.78442 0.0
O482 O 0.44952 0.28005 0.77159 0.0
C483 C 0.55387 0.35781 0.86669 0.0
Fe484 Fe 0.7547 0.17294 0.89219 0.0
Fe485 Fe 0.77132 0.25074 1.0154 0.0
O486 O 0.78927 0.22276 0.94218 0.0
Fe487 Fe 0.84302 0.24525 0.91918 0.0
O488 O 0.83402 0.24821 0.78444 0.0
O489 O 0.7844 0.18235 0.77162 0.0
O490 O 0.72585 0.1929 0.82511 0.0
C491 C 0.70665 0.20894 0.86671 0.0
C492 C 0.81965 0.16151 0.94119 0.0
O493 O 0.72044 0.22984 0.94857 0.0
C494 C 0.84027 0.25852 0.12228 0.0
O495 O 0.71872 0.15675 1.00294 0.0
O496 O 0.74886 0.2096 0.10905 0.0
O497 O 0.84258 0.19646 0.90102 0.0
O498 O 0.78166 0.14905 0.95627 0.0
C499 C 0.83312 0.31554 0.91185 0.0
O500 O 0.81752 0.27384 0.09857 0.0
O501 O 0.8522 0.24227 0.05503 0.0
C502 C 0.72294 0.17206 0.09205 0.0
O503 O 0.79421 0.29537 0.92644 0.0
O504 O 0.85478 0.29892 0.93147 0.0
C505 C 0.80936 0.21722 0.73086 0.0
Fe506 Fe 0.81374 0.53347 1.01538 0.0
Fe507 Fe 0.81922 0.61067 0.91916 0.0
O508 O 0.84171 0.5794 0.94217 0.0
Fe509 Fe 0.89154 0.59466 0.89219 0.0
O510 O 0.87158 0.54585 0.82511 0.0
O511 O 0.83463 0.50349 0.94856 0.0
O512 O 0.76911 0.51173 0.92642 0.0
C513 C 0.74893 0.53047 0.91183 0.0
C514 C 0.89242 0.56378 0.09204 0.0
O515 O 0.76555 0.56875 0.93144 0.0
C516 C 0.90296 0.67103 0.9412 0.0
O517 O 0.79063 0.55657 0.09856 0.0
O518 O 0.8222 0.62282 0.05501 0.0
O519 O 0.90772 0.57486 1.00294 0.0
O520 O 0.85487 0.55215 0.10904 0.0
C521 C 0.84725 0.60504 0.73085 0.0
O522 O 0.86801 0.65902 0.90101 0.0
O523 O 0.91542 0.64551 0.95628 0.0
C524 C 0.80595 0.59464 0.12226 0.0
O525 O 0.81626 0.59871 0.78443 0.0
O526 O 0.88212 0.61495 0.77161 0.0
C527 C 0.85554 0.51061 0.8667 0.0
Fe528 Fe 0.43798 0.8668 0.84872 0.0
Fe529 Fe 0.42138 0.92799 0.7255 0.0
O530 O 0.45594 0.91273 0.77551 0.0
Fe531 Fe 0.5097 0.94399 0.7525 0.0
O532 O 0.52145 0.90207 0.76481 0.0
O533 O 0.46087 0.84506 0.75981 0.0
O534 O 0.3871 0.83682 0.78186 0.0
C535 C 0.3733 0.84394 0.70004 0.0
C536 C 0.50693 0.92798 0.95561 0.0
O537 O 0.39254 0.87919 0.65842 0.0
C538 C 0.48634 1.00435 0.77454 0.0
O539 O 0.4155 0.88547 0.94235 0.0
O540 O 0.38539 0.9082 0.83622 0.0
O541 O 0.51888 0.95615 0.88834 0.0
O542 O 0.48417 0.8899 0.93193 0.0
C543 C 0.47603 0.93835 0.56417 0.0
O544 O 0.44835 0.97885 0.78958 0.0
O545 O 0.50926 0.99234 0.73432 0.0
C546 C 0.38956 0.89708 0.92534 0.0
O547 O 0.4511 0.94829 0.60494 0.0
O548 O 0.50069 0.93202 0.61776 0.0
C549 C 0.49978 0.86379 0.74519 0.0
Fe550 Fe 0.19766 0.58405 0.84871 0.0
Fe551 Fe 0.13646 0.50627 0.7255 0.0
O552 O 0.15172 0.55609 0.7755 0.0
Fe553 Fe 0.12047 0.57859 0.75248 0.0
O554 O 0.16239 0.63226 0.76479 0.0
O555 O 0.2194 0.62869 0.75979 0.0
O556 O 0.22764 0.56316 0.78185 0.0
C557 C 0.22051 0.54223 0.70003 0.0
C558 C 0.13649 0.59184 0.95559 0.0
O559 O 0.18526 0.52623 0.65842 0.0
C560 C 0.06011 0.49487 0.77455 0.0
O561 O 0.17898 0.5429 0.94234 0.0
O562 O 0.15626 0.49007 0.83622 0.0
O563 O 0.10832 0.57562 0.88832 0.0
O564 O 0.17456 0.60715 0.93192 0.0
C565 C 0.12611 0.55056 0.56416 0.0
O566 O 0.08561 0.48238 0.78959 0.0
O567 O 0.07212 0.52981 0.73432 0.0
C568 C 0.16737 0.50536 0.92533 0.0
O569 O 0.11616 0.51569 0.60494 0.0
O570 O 0.13244 0.58155 0.61774 0.0
C571 C 0.20067 0.64887 0.74517 0.0
Fe572 Fe 0.48041 0.6265 0.84872 0.0
Fe573 Fe 0.5582 0.64309 0.72553 0.0
O574 O 0.50838 0.60853 0.77552 0.0
Fe575 Fe 0.48587 0.55477 0.75251 0.0
O576 O 0.4322 0.54302 0.7648 0.0
O577 O 0.43577 0.6036 0.75979 0.0
O578 O 0.50131 0.67737 0.78186 0.0
C579 C 0.52224 0.69117 0.70005 0.0
C580 C 0.47262 0.55754 0.95562 0.0
O581 O 0.53823 0.67193 0.65844 0.0
C582 C 0.56959 0.57812 0.77456 0.0
O583 O 0.52156 0.64897 0.94236 0.0
O584 O 0.5744 0.67908 0.83625 0.0
O585 O 0.48884 0.54559 0.88835 0.0
O586 O 0.45731 0.5803 0.93193 0.0
C587 C 0.5139 0.58843 0.56419 0.0
O588 O 0.58208 0.61611 0.78962 0.0
O589 O 0.53465 0.5552 0.73435 0.0
C590 C 0.55911 0.6749 0.92536 0.0
O591 O 0.54877 0.61337 0.60497 0.0
O592 O 0.48291 0.56378 0.61777 0.0
C593 C 0.41559 0.56469 0.74518 0.0
Fe594 Fe 0.60756 0.74182 0.19583 0.0
Fe595 Fe 0.62356 0.83014 0.16884 0.0
O596 O 0.5923 0.77638 0.14582 0.0
Fe597 Fe 0.54637 0.75842 0.0726 0.0
O598 O 0.51639 0.70754 0.13945 0.0
O599 O 0.55875 0.71298 0.2629 0.0
O600 O 0.62786 0.77154 0.31639 0.0
C601 C 0.61792 0.79648 0.35716 0.0
C602 C 0.57668 0.71004 0.99598 0.0
O603 O 0.61159 0.82113 0.30358 0.0
C604 C 0.60754 0.82737 0.96573 0.0
O605 O 0.65841 0.76879 0.13175 0.0
O606 O 0.67191 0.8297 0.18701 0.0
O607 O 0.56504 0.73595 0.97896 0.0
O608 O 0.58777 0.70583 0.0851 0.0
C609 C 0.54336 0.82022 0.17617 0.0
O610 O 0.63571 0.83932 1.033 0.0
O611 O 0.56947 0.80462 0.98941 0.0
C612 C 0.68392 0.80678 0.14679 0.0
O613 O 0.58164 0.84189 0.15653 0.0
O614 O 0.52463 0.78131 0.16154 0.0
C615 C 0.52351 0.69374 0.22127 0.0
Fe616 Fe 0.32265 0.87862 0.1958 0.0
Fe617 Fe 0.23433 0.8063 0.16881 0.0
O618 O 0.28809 0.8288 0.1458 0.0
Fe619 Fe 0.30605 0.80083 0.07259 0.0
O620 O 0.35693 0.82173 0.13944 0.0
O621 O 0.35149 0.85866 0.26287 0.0
O622 O 0.29294 0.8692 0.31636 0.0
C623 C 0.268 0.83433 0.35713 0.0
C624 C 0.35443 0.87952 0.99595 0.0
O625 O 0.24334 0.80334 0.30355 0.0
C626 C 0.23709 0.79305 0.96571 0.0
O627 O 0.29568 0.90251 0.13172 0.0
O628 O 0.23476 0.85508 0.18697 0.0
O629 O 0.32852 0.84197 0.97894 0.0
O630 O 0.35864 0.89482 0.08506 0.0
C631 C 0.24425 0.73602 0.17616 0.0
O632 O 0.22515 0.80927 1.03297 0.0
O633 O 0.25985 0.77773 0.9894 0.0
C634 C 0.25769 0.89003 0.14677 0.0
O635 O 0.22258 0.75263 0.15652 0.0
O636 O 0.28316 0.7562 0.16154 0.0
C637 C 0.37074 0.84266 0.22126 0.0
Fe638 Fe 0.18583 0.4569 0.1958 0.0
Fe639 Fe 0.25816 0.44091 0.16883 0.0
O640 O 0.23566 0.47216 0.14581 0.0
Fe641 Fe 0.26362 0.5181 0.0726 0.0
O642 O 0.24272 0.54807 0.13945 0.0
O643 O 0.2058 0.5057 0.26288 0.0
O644 O 0.19526 0.4366 0.31637 0.0
C645 C 0.23013 0.44654 0.35714 0.0
C646 C 0.18493 0.48778 0.99595 0.0
O647 O 0.26112 0.45287 0.30357 0.0
C648 C 0.27141 0.45693 0.96572 0.0
O649 O 0.16195 0.40605 0.13172 0.0
O650 O 0.20938 0.39256 0.18698 0.0
O651 O 0.22248 0.49942 0.97895 0.0
O652 O 0.16964 0.47669 0.08507 0.0
C653 C 0.32844 0.52111 0.17618 0.0
O654 O 0.25519 0.42876 1.03298 0.0
O655 O 0.28673 0.495 0.98942 0.0
C656 C 0.17444 0.38054 0.14676 0.0
O657 O 0.31183 0.48283 0.15655 0.0
O658 O 0.30826 0.53984 0.16155 0.0
C659 C 0.22179 0.54094 0.22127 0.0
Fe660 Fe 0.32267 0.45692 0.69583 0.0
Fe661 Fe 0.30605 0.5181 0.5726 0.0
O662 O 0.28809 0.47217 0.64582 0.0
Fe663 Fe 0.23434 0.4409 0.66882 0.0
O664 O 0.24334 0.45287 0.80356 0.0
O665 O 0.29295 0.43663 0.81639 0.0
O666 O 0.35151 0.50572 0.76291 0.0
C667 C 0.37071 0.54097 0.72131 0.0
C668 C 0.25772 0.38055 0.64682 0.0
O669 O 0.35693 0.54809 0.63944 0.0
C670 C 0.23709 0.45692 0.46572 0.0
O671 O 0.35865 0.47672 0.58509 0.0
O672 O 0.32852 0.49942 0.47897 0.0
O673 O 0.23478 0.39256 0.687 0.0
O674 O 0.2957 0.40606 0.63174 0.0
C675 C 0.24424 0.5211 0.67611 0.0
O676 O 0.25985 0.49499 0.48941 0.0
O677 O 0.22516 0.42875 0.53297 0.0
C678 C 0.35447 0.48783 0.49598 0.0
O679 O 0.28315 0.53984 0.66153 0.0
O680 O 0.22258 0.48281 0.65651 0.0
C681 C 0.268 0.44654 0.85715 0.0
Fe682 Fe 0.60756 0.87864 0.69583 0.0
Fe683 Fe 0.54637 0.80085 0.57261 0.0
O684 O 0.5923 0.82882 0.64583 0.0
Fe685 Fe 0.62357 0.80633 0.66884 0.0
O686 O 0.6116 0.80337 0.80357 0.0
O687 O 0.62785 0.86922 0.81639 0.0
O688 O 0.55875 0.85868 0.76291 0.0
C689 C 0.5235 0.84264 0.72132 0.0
C690 C 0.68393 0.89006 0.64681 0.0
O691 O 0.51639 0.82174 0.63945 0.0
C692 C 0.60755 0.79306 0.46574 0.0
O693 O 0.58776 0.89483 0.58509 0.0
O694 O 0.56505 0.84199 0.47898 0.0
O695 O 0.67192 0.85512 0.68701 0.0
O696 O 0.65841 0.90253 0.63173 0.0
C697 C 0.54337 0.73604 0.67613 0.0
O698 O 0.56947 0.77775 0.48942 0.0
O699 O 0.63572 0.80931 0.53299 0.0
C700 C 0.57664 0.87953 0.49598 0.0
O701 O 0.52463 0.75621 0.66155 0.0
O702 O 0.58166 0.75266 0.65654 0.0
C703 C 0.61793 0.83435 0.85716 0.0
Fe704 Fe 0.18583 0.7418 0.6958 0.0
Fe705 Fe 0.26362 0.75841 0.5726 0.0
O706 O 0.23565 0.77637 0.64581 0.0
Fe707 Fe 0.25814 0.83012 0.66881 0.0
O708 O 0.2611 0.82112 0.80355 0.0
O709 O 0.19525 0.77151 0.81637 0.0
O710 O 0.20579 0.71295 0.76289 0.0
C711 C 0.22183 0.69375 0.7213 0.0
C712 C 0.17441 0.80675 0.64679 0.0
O713 O 0.24273 0.70753 0.63944 0.0
C714 C 0.27141 0.82737 0.46572 0.0
O715 O 0.16964 0.70581 0.58506 0.0
O716 O 0.22248 0.73594 0.47896 0.0
O717 O 0.20935 0.82968 0.68698 0.0
O718 O 0.16194 0.76877 0.6317 0.0
C719 C 0.32843 0.82022 0.67612 0.0
O720 O 0.28672 0.80461 0.48941 0.0
O721 O 0.25516 0.8393 0.53296 0.0
C722 C 0.18494 0.71 0.49595 0.0
O723 O 0.30826 0.7813 0.66154 0.0
O724 O 0.31181 0.84188 0.65652 0.0
C725 C 0.23012 0.79646 0.85713 0.0
Fe726 Fe 0.19766 0.62648 0.34872 0.0
Fe727 Fe 0.12046 0.55477 0.25249 0.0
O728 O 0.15173 0.60853 0.2755 0.0
Fe729 Fe 0.13648 0.6431 0.22549 0.0
O730 O 0.18529 0.67194 0.15842 0.0
O731 O 0.22765 0.67736 0.28189 0.0
O732 O 0.2194 0.60358 0.25977 0.0
C733 C 0.20066 0.56467 0.24518 0.0
C734 C 0.16736 0.67486 0.42535 0.0
O735 O 0.16237 0.54301 0.26479 0.0
C736 C 0.06011 0.57815 0.27451 0.0
O737 O 0.17456 0.58028 0.4319 0.0
O738 O 0.10831 0.5456 0.38833 0.0
O739 O 0.15628 0.67908 0.33624 0.0
O740 O 0.17898 0.64894 0.44236 0.0
C741 C 0.1261 0.58843 0.06416 0.0
O742 O 0.07211 0.55521 0.23431 0.0
O743 O 0.08563 0.61613 0.28957 0.0
C744 C 0.13648 0.55752 0.45559 0.0
O745 O 0.13242 0.56377 0.11775 0.0
O746 O 0.11619 0.61339 0.10492 0.0
C747 C 0.22053 0.69115 0.20003 0.0
Fe748 Fe 0.43799 0.58407 0.34873 0.0
Fe749 Fe 0.50969 0.57858 0.25251 0.0
O750 O 0.45594 0.55609 0.27552 0.0
Fe751 Fe 0.42136 0.50627 0.22552 0.0
O752 O 0.39252 0.52623 0.15845 0.0
O753 O 0.3871 0.56318 0.2819 0.0
O754 O 0.46087 0.6287 0.25977 0.0
C755 C 0.49979 0.64887 0.24519 0.0
C756 C 0.3896 0.50539 0.42538 0.0
O757 O 0.52145 0.63225 0.2648 0.0
C758 C 0.48631 0.49485 0.27452 0.0
O759 O 0.48419 0.60717 0.43191 0.0
O760 O 0.51887 0.5756 0.38836 0.0
O761 O 0.38538 0.49008 0.33628 0.0
O762 O 0.41553 0.54293 0.44238 0.0
C763 C 0.47603 0.55056 0.06419 0.0
O764 O 0.50925 0.52979 0.23435 0.0
O765 O 0.44833 0.48238 0.28961 0.0
C766 C 0.50694 0.59185 0.45561 0.0
O767 O 0.50069 0.58154 0.11778 0.0
O768 O 0.45107 0.51569 0.10495 0.0
C769 C 0.37331 0.54227 0.20005 0.0
Fe770 Fe 0.4804 0.86681 0.34872 0.0
Fe771 Fe 0.48589 0.944 0.2525 0.0
O772 O 0.50838 0.91274 0.27551 0.0
Fe773 Fe 0.5582 0.92799 0.22552 0.0
O774 O 0.53824 0.87919 0.15844 0.0
O775 O 0.5013 0.83682 0.2819 0.0
O776 O 0.43577 0.84507 0.25976 0.0
C777 C 0.4156 0.8638 0.24517 0.0
C778 C 0.55909 0.89711 0.42538 0.0
O779 O 0.43222 0.90209 0.26477 0.0
C780 C 0.56962 1.00436 0.27453 0.0
O781 O 0.4573 0.8899 0.43189 0.0
O782 O 0.48887 0.95615 0.38835 0.0
O783 O 0.57439 0.9082 0.33627 0.0
O784 O 0.52154 0.88548 0.44238 0.0
C785 C 0.51391 0.93837 0.06418 0.0
O786 O 0.53468 0.99235 0.23434 0.0
O787 O 0.58209 0.97884 0.28961 0.0
C788 C 0.47262 0.92798 0.45559 0.0
O789 O 0.48293 0.93204 0.11776 0.0
O790 O 0.54879 0.94828 0.10495 0.0
C791 C 0.5222 0.84394 0.20004 0.0
loop_
_geom_bond_atom_site_label_1
_geom_bond_atom_site_label_2
_geom_bond_distance
_geom_bond_site_symmetry_2
_ccdc_geom_bond_type
Fe0 O2 1.918 . S
Fe0 O5 1.997 1_554 S
Fe0 O6 2.002 1_554 S
Fe0 O11 1.976 . S
Fe0 O14 1.996 . S
Fe1 O2 1.918 . S
Fe1 O9 1.997 1_554 S
Fe1 O12 1.996 . S
Fe1 O16 1.976 . S
Fe1 O19 2.002 . S
O2 Fe0 1.918 . S
O2 Fe1 1.918 . S
O2 Fe3 1.918 . S
Fe3 O2 1.918 . S
Fe3 O4 2.002 . S
Fe3 O13 1.976 . S
Fe3 O17 1.996 . S
Fe3 O20 1.997 . S
O4 Fe3 2.002 . S
O4 C21 1.295 1_454 S
O5 Fe0 1.997 1_556 S
O5 C21 1.235 1_455 S
O6 Fe0 2.002 1_556 S
O6 C7 1.295 . S
C7 O6 1.295 . S
C7 O9 1.235 . S
C8 O13 1.287 . S
C8 O14 1.255 . S
O9 Fe1 1.997 1_556 S
O9 C7 1.235 . S
C10 O16 1.287 . S
C10 O17 1.255 . S
O11 Fe0 1.976 . S
O11 C18 1.287 . S
O12 Fe1 1.996 . S
O12 C18 1.255 . S
O13 Fe3 1.976 . S
O13 C8 1.287 . S
O14 Fe0 1.996 . S
O14 C8 1.255 . S
C15 O19 1.295 . S
C15 O20 1.235 . S
O16 Fe1 1.976 . S
O16 C10 1.287 . S
O17 Fe3 1.996 . S
O17 C10 1.255 . S
C18 O11 1.287 . S
C18 O12 1.255 . S
O19 Fe1 2.002 . S
O19 C15 1.295 . S
O20 Fe3 1.997 . S
O20 C15 1.235 . S
C21 O4 1.295 1_656 S
C21 O5 1.235 1_655 S
Fe22 O24 1.918 . S
Fe22 O27 1.997 . S
Fe22 O28 2.002 . S
Fe22 O33 1.976 . S
Fe22 O36 1.996 . S
Fe23 O24 1.918 . S
Fe23 O31 1.997 1_554 S
Fe23 O34 1.996 . S
Fe23 O38 1.976 . S
Fe23 O41 2.002 1_554 S
O24 Fe22 1.918 . S
O24 Fe23 1.918 . S
O24 Fe25 1.918 . S
Fe25 O24 1.918 . S
Fe25 O26 2.002 . S
Fe25 O35 1.976 . S
Fe25 O39 1.996 . S
Fe25 O42 1.997 1_554 S
O26 Fe25 2.002 . S
O26 C43 1.295 . S
O27 Fe22 1.997 . S
O27 C43 1.235 . S
O28 Fe22 2.002 . S
O28 C29 1.295 1_554 S
C29 O28 1.295 1_556 S
C29 O31 1.235 . S
C30 O35 1.287 . S
C30 O36 1.255 . S
O31 Fe23 1.997 1_556 S
O31 C29 1.235 . S
C32 O38 1.287 . S
C32 O39 1.255 . S
O33 Fe22 1.976 . S
O33 C40 1.287 . S
O34 Fe23 1.996 . S
O34 C40 1.255 . S
O35 Fe25 1.976 . S
O35 C30 1.287 . S
O36 Fe22 1.996 . S
O36 C30 1.255 . S
C37 O41 1.295 . S
C37 O42 1.235 . S
O38 Fe23 1.976 . S
O38 C32 1.287 . S
O39 Fe25 1.996 . S
O39 C32 1.255 . S
C40 O33 1.287 . S
C40 O34 1.255 . S
O41 Fe23 2.002 1_556 S
O41 C37 1.295 . S
O42 Fe25 1.997 1_556 S
O42 C37 1.235 . S
C43 O26 1.295 . S
C43 O27 1.235 . S
Fe44 O46 1.918 . S
Fe44 O49 1.997 . S
Fe44 O50 2.002 . S
Fe44 O55 1.976 . S
Fe44 O58 1.996 . S
Fe45 O46 1.918 . S
Fe45 O53 1.997 1_554 S
Fe45 O56 1.996 . S
Fe45 O60 1.976 . S
Fe45 O63 2.002 1_554 S
O46 Fe44 1.918 . S
O46 Fe45 1.918 . S
O46 Fe47 1.918 . S
Fe47 O46 1.918 . S
Fe47 O48 2.002 . S
Fe47 O57 1.976 . S
Fe47 O61 1.996 . S
Fe47 O64 1.997 1_554 S
O48 Fe47 2.002 . S
O48 C65 1.295 . S
O49 Fe44 1.997 . S
O49 C65 1.235 . S
O50 Fe44 2.002 . S
O50 C51 1.295 1_564 S
C51 O50 1.295 1_546 S
C51 O53 1.235 1_545 S
C52 O57 1.287 . S
C52 O58 1.255 . S
O53 Fe45 1.997 1_556 S
O53 C51 1.235 1_565 S
C54 O60 1.287 . S
C54 O61 1.255 . S
O55 Fe44 1.976 . S
O55 C62 1.287 . S
O56 Fe45 1.996 . S
O56 C62 1.255 . S
O57 Fe47 1.976 . S
O57 C52 1.287 . S
O58 Fe44 1.996 . S
O58 C52 1.255 . S
C59 O63 1.295 . S
C59 O64 1.235 . S
O60 Fe45 1.976 . S
O60 C54 1.287 . S
O61 Fe47 1.996 . S
O61 C54 1.255 . S
C62 O55 1.287 . S
C62 O56 1.255 . S
O63 Fe45 2.002 1_556 S
O63 C59 1.295 . S
O64 Fe47 1.997 1_556 S
O64 C59 1.235 . S
C65 O48 1.295 . S
C65 O49 1.235 . S
Fe66 O68 1.918 . S
Fe66 O71 1.997 . S
Fe66 O72 2.002 . S
Fe66 O77 1.976 . S
Fe66 O80 1.996 . S
Fe67 O68 1.918 . S
Fe67 O75 1.997 . S
Fe67 O78 1.996 . S
Fe67 O82 1.976 . S
Fe67 O85 2.002 . S
O68 Fe66 1.918 . S
O68 Fe67 1.918 . S
O68 Fe69 1.918 . S
Fe69 O68 1.918 . S
Fe69 O70 2.002 . S
Fe69 O79 1.976 . S
Fe69 O83 1.996 . S
Fe69 O86 1.997 . S
O70 Fe69 2.002 . S
O70 C87 1.295 1_545 S
O71 Fe66 1.997 . S
O71 C87 1.235 1_545 S
O72 Fe66 2.002 . S
O72 C73 1.295 . S
C73 O72 1.295 . S
C73 O75 1.235 . S
C74 O79 1.287 . S
C74 O80 1.255 . S
O75 Fe67 1.997 . S
O75 C73 1.235 . S
C76 O82 1.287 . S
C76 O83 1.255 . S
O77 Fe66 1.976 . S
O77 C84 1.287 . S
O78 Fe67 1.996 . S
O78 C84 1.255 . S
O79 Fe69 1.976 . S
O79 C74 1.287 . S
O80 Fe66 1.996 . S
O80 C74 1.255 . S
C81 O85 1.295 . S
C81 O86 1.235 . S
O82 Fe67 1.976 . S
O82 C76 1.287 . S
O83 Fe69 1.996 . S
O83 C76 1.255 . S
C84 O77 1.287 . S
C84 O78 1.255 . S
O85 Fe67 2.002 . S
O85 C81 1.295 . S
O86 Fe69 1.997 . S
O86 C81 1.235 . S
C87 O70 1.295 1_565 S
C87 O71 1.235 1_565 S
Fe88 O90 1.918 . S
Fe88 O93 1.997 . S
Fe88 O94 2.002 . S
Fe88 O99 1.976 . S
Fe88 O102 1.996 . S
Fe89 O90 1.918 . S
Fe89 O97 1.997 . S
Fe89 O100 1.996 . S
Fe89 O104 1.976 . S
Fe89 O107 2.002 . S
O90 Fe88 1.918 . S
O90 Fe89 1.918 . S
O90 Fe91 1.918 . S
Fe91 O90 1.918 . S
Fe91 O92 2.002 . S
Fe91 O101 1.976 . S
Fe91 O105 1.996 . S
Fe91 O108 1.997 . S
O92 Fe91 2.002 . S
O92 C109 1.295 1_655 S
O93 Fe88 1.997 . S
O93 C109 1.235 1_655 S
O94 Fe88 2.002 . S
O94 C95 1.295 . S
C95 O94 1.295 . S
C95 O97 1.235 . S
C96 O101 1.287 . S
C96 O102 1.255 . S
O97 Fe89 1.997 . S
O97 C95 1.235 . S
C98 O104 1.287 . S
C98 O105 1.255 . S
O99 Fe88 1.976 . S
O99 C106 1.287 . S
O100 Fe89 1.996 . S
O100 C106 1.255 . S
O101 Fe91 1.976 . S
O101 C96 1.287 . S
O102 Fe88 1.996 . S
O102 C96 1.255 . S
C103 O107 1.295 . S
C103 O108 1.235 . S
O104 Fe89 1.976 . S
O104 C98 1.287 . S
O105 Fe91 1.996 . S
O105 C98 1.255 . S
C106 O99 1.287 . S
C106 O100 1.255 . S
O107 Fe89 2.002 . S
O107 C103 1.295 . S
O108 Fe91 1.997 . S
O108 C103 1.235 . S
C109 O92 1.295 1_455 S
C109 O93 1.235 1_455 S
Fe110 O112 1.918 . S
Fe110 O115 1.997 . S
Fe110 O116 2.002 . S
Fe110 O121 1.976 . S
Fe110 O124 1.996 . S
Fe111 O112 1.918 . S
Fe111 O119 1.997 . S
Fe111 O122 1.996 . S
Fe111 O126 1.976 . S
Fe111 O129 2.002 . S
O112 Fe110 1.918 . S
O112 Fe111 1.918 . S
O112 Fe113 1.918 . S
Fe113 O112 1.918 . S
Fe113 O114 2.002 . S
Fe113 O123 1.976 . S
Fe113 O127 1.996 . S
Fe113 O130 1.997 . S
O114 Fe113 2.002 . S
O114 C131 1.295 . S
O115 Fe110 1.997 . S
O115 C131 1.235 . S
O116 Fe110 2.002 . S
O116 C117 1.295 . S
C117 O116 1.295 . S
C117 O119 1.235 . S
C118 O123 1.287 . S
C118 O124 1.255 . S
O119 Fe111 1.997 . S
O119 C117 1.235 . S
C120 O126 1.287 . S
C120 O127 1.255 . S
O121 Fe110 1.976 . S
O121 C128 1.287 . S
O122 Fe111 1.996 . S
O122 C128 1.255 . S
O123 Fe113 1.976 . S
O123 C118 1.287 . S
O124 Fe110 1.996 . S
O124 C118 1.255 . S
C125 O129 1.295 . S
C125 O130 1.235 . S
O126 Fe111 1.976 . S
O126 C120 1.287 . S
O127 Fe113 1.996 . S
O127 C120 1.255 . S
C128 O121 1.287 . S
C128 O122 1.255 . S
O129 Fe111 2.002 . S
O129 C125 1.295 . S
O130 Fe113 1.997 . S
O130 C125 1.235 . S
C131 O114 1.295 . S
C131 O115 1.235 . S
Fe132 O134 1.918 . S
Fe132 O137 1.997 . S
Fe132 O138 2.002 . S
Fe132 O143 1.976 . S
Fe132 O146 1.996 . S
Fe133 O134 1.918 . S
Fe133 O141 1.997 . S
Fe133 O144 1.996 . S
Fe133 O148 1.976 . S
Fe133 O151 2.002 1_556 S
O134 Fe132 1.918 . S
O134 Fe133 1.918 . S
O134 Fe135 1.918 . S
Fe135 O134 1.918 . S
Fe135 O136 2.002 1_556 S
Fe135 O145 1.976 . S
Fe135 O149 1.996 . S
Fe135 O152 1.997 1_556 S
O136 Fe135 2.002 1_554 S
O136 C153 1.295 1_655 S
O137 Fe132 1.997 . S
O137 C153 1.235 1_656 S
O138 Fe132 2.002 . S
O138 C139 1.295 . S
C139 O138 1.295 . S
C139 O141 1.235 . S
C140 O145 1.287 . S
C140 O146 1.255 . S
O141 Fe133 1.997 . S
O141 C139 1.235 . S
C142 O148 1.287 . S
C142 O149 1.255 . S
O143 Fe132 1.976 . S
O143 C150 1.287 . S
O144 Fe133 1.996 . S
O144 C150 1.255 . S
O145 Fe135 1.976 . S
O145 C140 1.287 . S
O146 Fe132 1.996 . S
O146 C140 1.255 . S
C147 O151 1.295 . S
C147 O152 1.235 . S
O148 Fe133 1.976 . S
O148 C142 1.287 . S
O149 Fe135 1.996 . S
O149 C142 1.255 . S
C150 O143 1.287 . S
C150 O144 1.255 . S
O151 Fe133 2.002 1_554 S
O151 C147 1.295 . S
O152 Fe135 1.997 1_554 S
O152 C147 1.235 . S
C153 O136 1.295 1_455 S
C153 O137 1.235 1_454 S
Fe154 O156 1.918 . S
Fe154 O159 1.997 1_556 S
Fe154 O160 2.002 1_556 S
Fe154 O165 1.976 . S
Fe154 O168 1.996 . S
Fe155 O156 1.918 . S
Fe155 O163 1.997 . S
Fe155 O166 1.996 . S
Fe155 O170 1.976 . S
Fe155 O173 2.002 . S
O156 Fe154 1.918 . S
O156 Fe155 1.918 . S
O156 Fe157 1.918 . S
Fe157 O156 1.918 . S
Fe157 O158 2.002 1_556 S
Fe157 O167 1.976 . S
Fe157 O171 1.996 . S
Fe157 O174 1.997 . S
O158 Fe157 2.002 1_554 S
O158 C175 1.295 . S
O159 Fe154 1.997 1_554 S
O159 C175 1.235 . S
O160 Fe154 2.002 1_554 S
O160 C161 1.295 . S
C161 O160 1.295 . S
C161 O163 1.235 1_554 S
C162 O167 1.287 . S
C162 O168 1.255 . S
O163 Fe155 1.997 . S
O163 C161 1.235 1_556 S
C164 O170 1.287 . S
C164 O171 1.255 . S
O165 Fe154 1.976 . S
O165 C172 1.287 . S
O166 Fe155 1.996 . S
O166 C172 1.255 . S
O167 Fe157 1.976 . S
O167 C162 1.287 . S
O168 Fe154 1.996 . S
O168 C162 1.255 . S
C169 O173 1.295 . S
C169 O174 1.235 . S
O170 Fe155 1.976 . S
O170 C164 1.287 . S
O171 Fe157 1.996 . S
O171 C164 1.255 . S
C172 O165 1.287 . S
C172 O166 1.255 . S
O173 Fe155 2.002 . S
O173 C169 1.295 . S
O174 Fe157 1.997 . S
O174 C169 1.235 . S
C175 O158 1.295 . S
C175 O159 1.235 . S
Fe176 O178 1.918 . S
Fe176 O181 1.997 . S
Fe176 O182 2.002 . S
Fe176 O187 1.976 . S
Fe176 O190 1.996 . S
Fe177 O178 1.918 . S
Fe177 O185 1.997 . S
Fe177 O188 1.996 . S
Fe177 O192 1.976 . S
Fe177 O195 2.002 1_556 S
O178 Fe176 1.918 . S
O178 Fe177 1.918 . S
O178 Fe179 1.918 . S
Fe179 O178 1.918 . S
Fe179 O180 2.002 1_556 S
Fe179 O189 1.976 . S
Fe179 O193 1.996 . S
Fe179 O196 1.997 1_556 S
O180 Fe179 2.002 1_554 S
O180 C197 1.295 1_545 S
O181 Fe176 1.997 . S
O181 C197 1.235 1_546 S
O182 Fe176 2.002 . S
O182 C183 1.295 . S
C183 O182 1.295 . S
C183 O185 1.235 . S
C184 O189 1.287 . S
C184 O190 1.255 . S
O185 Fe177 1.997 . S
O185 C183 1.235 . S
C186 O192 1.287 . S
C186 O193 1.255 . S
O187 Fe176 1.976 . S
O187 C194 1.287 . S
O188 Fe177 1.996 . S
O188 C194 1.255 . S
O189 Fe179 1.976 . S
O189 C184 1.287 . S
O190 Fe176 1.996 . S
O190 C184 1.255 . S
C191 O195 1.295 . S
C191 O196 1.235 . S
O192 Fe177 1.976 . S
O192 C186 1.287 . S
O193 Fe179 1.996 . S
O193 C186 1.255 . S
C194 O187 1.287 . S
C194 O188 1.255 . S
O195 Fe177 2.002 1_554 S
O195 C191 1.295 . S
O196 Fe179 1.997 1_554 S
O196 C191 1.235 . S
C197 O180 1.295 1_565 S
C197 O181 1.235 1_564 S
Fe198 O200 1.918 . S
Fe198 O203 1.997 . S
Fe198 O204 2.002 . S
Fe198 O209 1.976 . S
Fe198 O212 1.996 . S
Fe199 O200 1.918 . S
Fe199 O207 1.997 . S
Fe199 O210 1.996 . S
Fe199 O214 1.976 . S
Fe199 O217 2.002 . S
O200 Fe198 1.918 . S
O200 Fe199 1.918 . S
O200 Fe201 1.918 . S
Fe201 O200 1.918 . S
Fe201 O202 2.002 . S
Fe201 O211 1.976 . S
Fe201 O215 1.996 . S
Fe201 O218 1.997 . S
O202 Fe201 2.002 . S
O202 C219 1.295 1_565 S
O203 Fe198 1.997 . S
O203 C219 1.235 1_565 S
O204 Fe198 2.002 . S
O204 C205 1.295 . S
C205 O204 1.295 . S
C205 O207 1.235 . S
C206 O211 1.287 . S
C206 O212 1.255 . S
O207 Fe199 1.997 . S
O207 C205 1.235 . S
C208 O214 1.287 . S
C208 O215 1.255 . S
O209 Fe198 1.976 . S
O209 C216 1.287 . S
O210 Fe199 1.996 . S
O210 C216 1.255 . S
O211 Fe201 1.976 . S
O211 C206 1.287 . S
O212 Fe198 1.996 . S
O212 C206 1.255 . S
C213 O217 1.295 . S
C213 O218 1.235 . S
O214 Fe199 1.976 . S
O214 C208 1.287 . S
O215 Fe201 1.996 . S
O215 C208 1.255 . S
C216 O209 1.287 . S
C216 O210 1.255 . S
O217 Fe199 2.002 . S
O217 C213 1.295 . S
O218 Fe201 1.997 . S
O218 C213 1.235 . S
C219 O202 1.295 1_545 S
C219 O203 1.235 1_545 S
Fe220 O222 1.918 . S
Fe220 O225 1.997 . S
Fe220 O226 2.002 . S
Fe220 O231 1.976 . S
Fe220 O234 1.996 . S
Fe221 O222 1.918 . S
Fe221 O229 1.997 . S
Fe221 O232 1.996 . S
Fe221 O236 1.976 . S
Fe221 O239 2.002 . S
O222 Fe220 1.918 . S
O222 Fe221 1.918 . S
O222 Fe223 1.918 . S
Fe223 O222 1.918 . S
Fe223 O224 2.002 . S
Fe223 O233 1.976 . S
Fe223 O237 1.996 . S
Fe223 O240 1.997 . S
O224 Fe223 2.002 . S
O224 C241 1.295 1_455 S
O225 Fe220 1.997 . S
O225 C241 1.235 1_455 S
O226 Fe220 2.002 . S
O226 C227 1.295 . S
C227 O226 1.295 . S
C227 O229 1.235 . S
C228 O233 1.287 . S
C228 O234 1.255 . S
O229 Fe221 1.997 . S
O229 C227 1.235 . S
C230 O236 1.287 . S
C230 O237 1.255 . S
O231 Fe220 1.976 . S
O231 C238 1.287 . S
O232 Fe221 1.996 . S
O232 C238 1.255 . S
O233 Fe223 1.976 . S
O233 C228 1.287 . S
O234 Fe220 1.996 . S
O234 C228 1.255 . S
C235 O239 1.295 . S
C235 O240 1.235 . S
O236 Fe221 1.976 . S
O236 C230 1.287 . S
O237 Fe223 1.996 . S
O237 C230 1.255 . S
C238 O231 1.287 . S
C238 O232 1.255 . S
O239 Fe221 2.002 . S
O239 C235 1.295 . S
O240 Fe223 1.997 . S
O240 C235 1.235 . S
C241 O224 1.295 1_655 S
C241 O225 1.235 1_655 S
Fe242 O244 1.918 . S
Fe242 O247 1.997 . S
Fe242 O248 2.002 . S
Fe242 O253 1.976 . S
Fe242 O256 1.996 . S
Fe243 O244 1.918 . S
Fe243 O251 1.997 . S
Fe243 O254 1.996 . S
Fe243 O258 1.976 . S
Fe243 O261 2.002 . S
O244 Fe242 1.918 . S
O244 Fe243 1.918 . S
O244 Fe245 1.918 . S
Fe245 O244 1.918 . S
Fe245 O246 2.002 . S
Fe245 O255 1.976 . S
Fe245 O259 1.996 . S
Fe245 O262 1.997 . S
O246 Fe245 2.002 . S
O246 C263 1.295 . S
O247 Fe242 1.997 . S
O247 C263 1.235 . S
O248 Fe242 2.002 . S
O248 C249 1.295 . S
C249 O248 1.295 . S
C249 O251 1.235 . S
C250 O255 1.287 . S
C250 O256 1.255 . S
O251 Fe243 1.997 . S
O251 C249 1.235 . S
C252 O258 1.287 . S
C252 O259 1.255 . S
O253 Fe242 1.976 . S
O253 C260 1.287 . S
O254 Fe243 1.996 . S
O254 C260 1.255 . S
O255 Fe245 1.976 . S
O255 C250 1.287 . S
O256 Fe242 1.996 . S
O256 C250 1.255 . S
C257 O261 1.295 . S
C257 O262 1.235 . S
O258 Fe243 1.976 . S
O258 C252 1.287 . S
O259 Fe245 1.996 . S
O259 C252 1.255 . S
C260 O253 1.287 . S
C260 O254 1.255 . S
O261 Fe243 2.002 . S
O261 C257 1.295 . S
O262 Fe245 1.997 . S
O262 C257 1.235 . S
C263 O246 1.295 . S
C263 O247 1.235 . S
Fe264 O266 1.918 . S
Fe264 O269 1.997 . S
Fe264 O270 2.002 . S
Fe264 O275 1.976 . S
Fe264 O278 1.996 . S
Fe265 O266 1.918 . S
Fe265 O273 1.997 . S
Fe265 O276 1.996 . S
Fe265 O280 1.976 . S
Fe265 O283 2.002 . S
O266 Fe264 1.918 . S
O266 Fe265 1.918 . S
O266 Fe267 1.918 . S
Fe267 O266 1.918 . S
Fe267 O268 2.002 . S
Fe267 O277 1.976 . S
Fe267 O281 1.996 . S
Fe267 O284 1.997 . S
O268 Fe267 2.002 . S
O268 C285 1.295 . S
O269 Fe264 1.997 . S
O269 C285 1.235 . S
O270 Fe264 2.002 . S
O270 C271 1.295 . S
C271 O270 1.295 . S
C271 O273 1.235 . S
C272 O277 1.287 . S
C272 O278 1.255 . S
O273 Fe265 1.997 . S
O273 C271 1.235 . S
C274 O280 1.287 . S
C274 O281 1.255 . S
O275 Fe264 1.976 . S
O275 C282 1.287 . S
O276 Fe265 1.996 . S
O276 C282 1.255 . S
O277 Fe267 1.976 . S
O277 C272 1.287 . S
O278 Fe264 1.996 . S
O278 C272 1.255 . S
C279 O283 1.295 . S
C279 O284 1.235 . S
O280 Fe265 1.976 . S
O280 C274 1.287 . S
O281 Fe267 1.996 . S
O281 C274 1.255 . S
C282 O275 1.287 . S
C282 O276 1.255 . S
O283 Fe265 2.002 . S
O283 C279 1.295 . S
O284 Fe267 1.997 . S
O284 C279 1.235 . S
C285 O268 1.295 . S
C285 O269 1.235 . S
Fe286 O288 1.918 . S
Fe286 O291 1.997 . S
Fe286 O292 2.002 . S
Fe286 O297 1.976 . S
Fe286 O300 1.996 . S
Fe287 O288 1.918 . S
Fe287 O295 1.997 . S
Fe287 O298 1.996 . S
Fe287 O302 1.976 . S
Fe287 O305 2.002 . S
O288 Fe286 1.918 . S
O288 Fe287 1.918 . S
O288 Fe289 1.918 . S
Fe289 O288 1.918 . S
Fe289 O290 2.002 . S
Fe289 O299 1.976 . S
Fe289 O303 1.996 . S
Fe289 O306 1.997 . S
O290 Fe289 2.002 . S
O290 C307 1.295 . S
O291 Fe286 1.997 . S
O291 C307 1.235 . S
O292 Fe286 2.002 . S
O292 C293 1.295 . S
C293 O292 1.295 . S
C293 O295 1.235 . S
C294 O299 1.287 . S
C294 O300 1.255 . S
O295 Fe287 1.997 . S
O295 C293 1.235 . S
C296 O302 1.287 . S
C296 O303 1.255 . S
O297 Fe286 1.976 . S
O297 C304 1.287 . S
O298 Fe287 1.996 . S
O298 C304 1.255 . S
O299 Fe289 1.976 . S
O299 C294 1.287 . S
O300 Fe286 1.996 . S
O300 C294 1.255 . S
C301 O305 1.295 . S
C301 O306 1.235 . S
O302 Fe287 1.976 . S
O302 C296 1.287 . S
O303 Fe289 1.996 . S
O303 C296 1.255 . S
C304 O297 1.287 . S
C304 O298 1.255 . S
O305 Fe287 2.002 . S
O305 C301 1.295 . S
O306 Fe289 1.997 . S
O306 C301 1.235 . S
C307 O290 1.295 . S
C307 O291 1.235 . S
Fe308 O310 1.918 . S
Fe308 O313 1.997 . S
Fe308 O314 2.002 . S
Fe308 O319 1.976 . S
Fe308 O322 1.996 . S
Fe309 O310 1.918 . S
Fe309 O317 1.997 . S
Fe309 O320 1.996 . S
Fe309 O324 1.976 . S
Fe309 O327 2.002 . S
O310 Fe308 1.918 . S
O310 Fe309 1.918 . S
O310 Fe311 1.918 . S
Fe311 O310 1.918 . S
Fe311 O312 2.002 . S
Fe311 O321 1.976 . S
Fe311 O325 1.996 . S
Fe311 O328 1.997 . S
O312 Fe311 2.002 . S
O312 C329 1.295 . S
O313 Fe308 1.997 . S
O313 C329 1.235 . S
O314 Fe308 2.002 . S
O314 C315 1.295 . S
C315 O314 1.295 . S
C315 O317 1.235 . S
C316 O321 1.287 . S
C316 O322 1.255 . S
O317 Fe309 1.997 . S
O317 C315 1.235 . S
C318 O324 1.287 . S
C318 O325 1.255 . S
O319 Fe308 1.976 . S
O319 C326 1.287 . S
O320 Fe309 1.996 . S
O320 C326 1.255 . S
O321 Fe311 1.976 . S
O321 C316 1.287 . S
O322 Fe308 1.996 . S
O322 C316 1.255 . S
C323 O327 1.295 . S
C323 O328 1.235 . S
O324 Fe309 1.976 . S
O324 C318 1.287 . S
O325 Fe311 1.996 . S
O325 C318 1.255 . S
C326 O319 1.287 . S
C326 O320 1.255 . S
O327 Fe309 2.002 . S
O327 C323 1.295 . S
O328 Fe311 1.997 . S
O328 C323 1.235 . S
C329 O312 1.295 . S
C329 O313 1.235 . S
Fe330 O332 1.918 . S
Fe330 O335 1.997 . S
Fe330 O336 2.002 . S
Fe330 O341 1.976 . S
Fe330 O344 1.996 . S
Fe331 O332 1.918 . S
Fe331 O339 1.997 . S
Fe331 O342 1.996 . S
Fe331 O346 1.976 . S
Fe331 O349 2.002 . S
O332 Fe330 1.918 . S
O332 Fe331 1.918 . S
O332 Fe333 1.918 . S
Fe333 O332 1.918 . S
Fe333 O334 2.002 . S
Fe333 O343 1.976 . S
Fe333 O347 1.996 . S
Fe333 O350 1.997 . S
O334 Fe333 2.002 . S
O334 C351 1.295 . S
O335 Fe330 1.997 . S
O335 C351 1.235 . S
O336 Fe330 2.002 . S
O336 C337 1.295 . S
C337 O336 1.295 . S
C337 O339 1.235 . S
C338 O343 1.287 . S
C338 O344 1.255 . S
O339 Fe331 1.997 . S
O339 C337 1.235 . S
C340 O346 1.287 . S
C340 O347 1.255 . S
O341 Fe330 1.976 . S
O341 C348 1.287 . S
O342 Fe331 1.996 . S
O342 C348 1.255 . S
O343 Fe333 1.976 . S
O343 C338 1.287 . S
O344 Fe330 1.996 . S
O344 C338 1.255 . S
C345 O349 1.295 . S
C345 O350 1.235 . S
O346 Fe331 1.976 . S
O346 C340 1.287 . S
O347 Fe333 1.996 . S
O347 C340 1.255 . S
C348 O341 1.287 . S
C348 O342 1.255 . S
O349 Fe331 2.002 . S
O349 C345 1.295 . S
O350 Fe333 1.997 . S
O350 C345 1.235 . S
C351 O334 1.295 . S
C351 O335 1.235 . S
Fe352 O354 1.918 . S
Fe352 O357 1.997 . S
Fe352 O358 2.002 . S
Fe352 O363 1.976 . S
Fe352 O366 1.996 . S
Fe353 O354 1.918 . S
Fe353 O361 1.997 . S
Fe353 O364 1.996 . S
Fe353 O368 1.976 . S
Fe353 O371 2.002 . S
O354 Fe352 1.918 . S
O354 Fe353 1.918 . S
O354 Fe355 1.918 . S
Fe355 O354 1.918 . S
Fe355 O356 2.002 . S
Fe355 O365 1.976 . S
Fe355 O369 1.996 . S
Fe355 O372 1.997 . S
O356 Fe355 2.002 . S
O356 C373 1.295 . S
O357 Fe352 1.997 . S
O357 C373 1.235 . S
O358 Fe352 2.002 . S
O358 C359 1.295 . S
C359 O358 1.295 . S
C359 O361 1.235 . S
C360 O365 1.287 . S
C360 O366 1.255 . S
O361 Fe353 1.997 . S
O361 C359 1.235 . S
C362 O368 1.287 . S
C362 O369 1.255 . S
O363 Fe352 1.976 . S
O363 C370 1.287 . S
O364 Fe353 1.996 . S
O364 C370 1.255 . S
O365 Fe355 1.976 . S
O365 C360 1.287 . S
O366 Fe352 1.996 . S
O366 C360 1.255 . S
C367 O371 1.295 . S
C367 O372 1.235 . S
O368 Fe353 1.976 . S
O368 C362 1.287 . S
O369 Fe355 1.996 . S
O369 C362 1.255 . S
C370 O363 1.287 . S
C370 O364 1.255 . S
O371 Fe353 2.002 . S
O371 C367 1.295 . S
O372 Fe355 1.997 . S
O372 C367 1.235 . S
C373 O356 1.295 . S
C373 O357 1.235 . S
Fe374 O376 1.918 . S
Fe374 O379 1.997 . S
Fe374 O380 2.002 . S
Fe374 O385 1.976 . S
Fe374 O388 1.996 . S
Fe375 O376 1.918 . S
Fe375 O383 1.997 . S
Fe375 O386 1.996 . S
Fe375 O390 1.976 . S
Fe375 O393 2.002 . S
O376 Fe374 1.918 . S
O376 Fe375 1.918 . S
O376 Fe377 1.918 . S
Fe377 O376 1.918 . S
Fe377 O378 2.002 . S
Fe377 O387 1.976 . S
Fe377 O391 1.996 . S
Fe377 O394 1.997 . S
O378 Fe377 2.002 . S
O378 C395 1.295 . S
O379 Fe374 1.997 . S
O379 C395 1.235 . S
O380 Fe374 2.002 . S
O380 C381 1.295 . S
C381 O380 1.295 . S
C381 O383 1.235 . S
C382 O387 1.287 . S
C382 O388 1.255 . S
O383 Fe375 1.997 . S
O383 C381 1.235 . S
C384 O390 1.287 . S
C384 O391 1.255 . S
O385 Fe374 1.976 . S
O385 C392 1.287 . S
O386 Fe375 1.996 . S
O386 C392 1.255 . S
O387 Fe377 1.976 . S
O387 C382 1.287 . S
O388 Fe374 1.996 . S
O388 C382 1.255 . S
C389 O393 1.295 . S
C389 O394 1.235 . S
O390 Fe375 1.976 . S
O390 C384 1.287 . S
O391 Fe377 1.996 . S
O391 C384 1.255 . S
C392 O385 1.287 . S
C392 O386 1.255 . S
O393 Fe375 2.002 . S
O393 C389 1.295 . S
O394 Fe377 1.997 . S
O394 C389 1.235 . S
C395 O378 1.295 . S
C395 O379 1.235 . S
Fe396 O398 1.918 . S
Fe396 O401 1.997 . S
Fe396 O402 2.002 . S
Fe396 O407 1.976 . S
Fe396 O410 1.996 . S
Fe397 O398 1.918 . S
Fe397 O405 1.997 . S
Fe397 O408 1.996 . S
Fe397 O412 1.976 . S
Fe397 O415 2.002 . S
O398 Fe396 1.918 . S
O398 Fe397 1.918 . S
O398 Fe399 1.918 . S
Fe399 O398 1.918 . S
Fe399 O400 2.002 . S
Fe399 O409 1.976 . S
Fe399 O413 1.996 . S
Fe399 O416 1.997 . S
O400 Fe399 2.002 . S
O400 C417 1.295 . S
O401 Fe396 1.997 . S
O401 C417 1.235 . S
O402 Fe396 2.002 . S
O402 C403 1.295 . S
C403 O402 1.295 . S
C403 O405 1.235 . S
C404 O409 1.287 . S
C404 O410 1.255 . S
O405 Fe397 1.997 . S
O405 C403 1.235 . S
C406 O412 1.287 . S
C406 O413 1.255 . S
O407 Fe396 1.976 . S
O407 C414 1.287 . S
O408 Fe397 1.996 . S
O408 C414 1.255 . S
O409 Fe399 1.976 . S
O409 C404 1.287 . S
O410 Fe396 1.996 . S
O410 C404 1.255 . S
C411 O415 1.295 . S
C411 O416 1.235 . S
O412 Fe397 1.976 . S
O412 C406 1.287 . S
O413 Fe399 1.996 . S
O413 C406 1.255 . S
C414 O407 1.287 . S
C414 O408 1.255 . S
O415 Fe397 2.002 . S
O415 C411 1.295 . S
O416 Fe399 1.997 . S
O416 C411 1.235 . S
C417 O400 1.295 . S
C417 O401 1.235 . S
Fe418 O420 1.918 . S
Fe418 O423 1.997 . S
Fe418 O424 2.002 . S
Fe418 O429 1.976 . S
Fe418 O432 1.996 . S
Fe419 O420 1.918 . S
Fe419 O427 1.997 . S
Fe419 O430 1.996 . S
Fe419 O434 1.976 . S
Fe419 O437 2.002 . S
O420 Fe418 1.918 . S
O420 Fe419 1.918 . S
O420 Fe421 1.918 . S
Fe421 O420 1.918 . S
Fe421 O422 2.002 . S
Fe421 O431 1.976 . S
Fe421 O435 1.996 . S
Fe421 O438 1.997 . S
O422 Fe421 2.002 . S
O422 C439 1.295 . S
O423 Fe418 1.997 . S
O423 C439 1.235 . S
O424 Fe418 2.002 . S
O424 C425 1.295 . S
C425 O424 1.295 . S
C425 O427 1.235 . S
C426 O431 1.287 . S
C426 O432 1.255 . S
O427 Fe419 1.997 . S
O427 C425 1.235 . S
C428 O434 1.287 . S
C428 O435 1.255 . S
O429 Fe418 1.976 . S
O429 C436 1.287 . S
O430 Fe419 1.996 . S
O430 C436 1.255 . S
O431 Fe421 1.976 . S
O431 C426 1.287 . S
O432 Fe418 1.996 . S
O432 C426 1.255 . S
C433 O437 1.295 . S
C433 O438 1.235 . S
O434 Fe419 1.976 . S
O434 C428 1.287 . S
O435 Fe421 1.996 . S
O435 C428 1.255 . S
C436 O429 1.287 . S
C436 O430 1.255 . S
O437 Fe419 2.002 . S
O437 C433 1.295 . S
O438 Fe421 1.997 . S
O438 C433 1.235 . S
C439 O422 1.295 . S
C439 O423 1.235 . S
Fe440 O442 1.918 . S
Fe440 O445 1.997 . S
Fe440 O446 2.002 . S
Fe440 O451 1.976 . S
Fe440 O454 1.996 . S
Fe441 O442 1.918 . S
Fe441 O449 1.997 . S
Fe441 O452 1.996 . S
Fe441 O456 1.976 . S
Fe441 O459 2.002 . S
O442 Fe440 1.918 . S
O442 Fe441 1.918 . S
O442 Fe443 1.918 . S
Fe443 O442 1.918 . S
Fe443 O444 2.002 . S
Fe443 O453 1.976 . S
Fe443 O457 1.996 . S
Fe443 O460 1.997 . S
O444 Fe443 2.002 . S
O444 C461 1.295 . S
O445 Fe440 1.997 . S
O445 C461 1.235 . S
O446 Fe440 2.002 . S
O446 C447 1.295 . S
C447 O446 1.295 . S
C447 O449 1.235 . S
C448 O453 1.287 . S
C448 O454 1.255 . S
O449 Fe441 1.997 . S
O449 C447 1.235 . S
C450 O456 1.287 . S
C450 O457 1.255 . S
O451 Fe440 1.976 . S
O451 C458 1.287 . S
O452 Fe441 1.996 . S
O452 C458 1.255 . S
O453 Fe443 1.976 . S
O453 C448 1.287 . S
O454 Fe440 1.996 . S
O454 C448 1.255 . S
C455 O459 1.295 . S
C455 O460 1.235 . S
O456 Fe441 1.976 . S
O456 C450 1.287 . S
O457 Fe443 1.996 . S
O457 C450 1.255 . S
C458 O451 1.287 . S
C458 O452 1.255 . S
O459 Fe441 2.002 . S
O459 C455 1.295 . S
O460 Fe443 1.997 . S
O460 C455 1.235 . S
C461 O444 1.295 . S
C461 O445 1.235 . S
Fe462 O464 1.918 . S
Fe462 O467 1.997 . S
Fe462 O468 2.002 . S
Fe462 O473 1.976 1_556 S
Fe462 O476 1.996 1_556 S
Fe463 O464 1.918 . S
Fe463 O471 1.997 . S
Fe463 O474 1.996 1_556 S
Fe463 O478 1.976 . S
Fe463 O481 2.002 . S
O464 Fe462 1.918 . S
O464 Fe463 1.918 . S
O464 Fe465 1.918 . S
Fe465 O464 1.918 . S
Fe465 O466 2.002 . S
Fe465 O475 1.976 . S
Fe465 O479 1.996 . S
Fe465 O482 1.997 . S
O466 Fe465 2.002 . S
O466 C483 1.295 . S
O467 Fe462 1.997 . S
O467 C483 1.235 . S
O468 Fe462 2.002 . S
O468 C469 1.295 . S
C469 O468 1.295 . S
C469 O471 1.235 . S
C470 O475 1.287 1_554 S
C470 O476 1.255 . S
O471 Fe463 1.997 . S
O471 C469 1.235 . S
C472 O478 1.287 . S
C472 O479 1.255 . S
O473 Fe462 1.976 1_554 S
O473 C480 1.287 . S
O474 Fe463 1.996 1_554 S
O474 C480 1.255 . S
O475 Fe465 1.976 . S
O475 C470 1.287 1_556 S
O476 Fe462 1.996 1_554 S
O476 C470 1.255 . S
C477 O481 1.295 . S
C477 O482 1.235 . S
O478 Fe463 1.976 . S
O478 C472 1.287 . S
O479 Fe465 1.996 . S
O479 C472 1.255 . S
C480 O473 1.287 . S
C480 O474 1.255 . S
O481 Fe463 2.002 . S
O481 C477 1.295 . S
O482 Fe465 1.997 . S
O482 C477 1.235 . S
C483 O466 1.295 . S
C483 O467 1.235 . S
Fe484 O486 1.918 . S
Fe484 O489 1.997 . S
Fe484 O490 2.002 . S
Fe484 O495 1.976 . S
Fe484 O498 1.996 . S
Fe485 O486 1.918 . S
Fe485 O493 1.997 . S
Fe485 O496 1.996 1_556 S
Fe485 O500 1.976 1_556 S
Fe485 O503 2.002 . S
O486 Fe484 1.918 . S
O486 Fe485 1.918 . S
O486 Fe487 1.918 . S
Fe487 O486 1.918 . S
Fe487 O488 2.002 . S
Fe487 O497 1.976 . S
Fe487 O501 1.996 1_556 S
Fe487 O504 1.997 . S
O488 Fe487 2.002 . S
O488 C505 1.295 . S
O489 Fe484 1.997 . S
O489 C505 1.235 . S
O490 Fe484 2.002 . S
O490 C491 1.295 . S
C491 O490 1.295 . S
C491 O493 1.235 . S
C492 O497 1.287 . S
C492 O498 1.255 . S
O493 Fe485 1.997 . S
O493 C491 1.235 . S
C494 O500 1.287 . S
C494 O501 1.255 . S
O495 Fe484 1.976 . S
O495 C502 1.287 1_556 S
O496 Fe485 1.996 1_554 S
O496 C502 1.255 . S
O497 Fe487 1.976 . S
O497 C492 1.287 . S
O498 Fe484 1.996 . S
O498 C492 1.255 . S
C499 O503 1.295 . S
C499 O504 1.235 . S
O500 Fe485 1.976 1_554 S
O500 C494 1.287 . S
O501 Fe487 1.996 1_554 S
O501 C494 1.255 . S
C502 O495 1.287 1_554 S
C502 O496 1.255 . S
O503 Fe485 2.002 . S
O503 C499 1.295 . S
O504 Fe487 1.997 . S
O504 C499 1.235 . S
C505 O488 1.295 . S
C505 O489 1.235 . S
Fe506 O508 1.918 . S
Fe506 O511 1.997 . S
Fe506 O512 2.002 . S
Fe506 O517 1.976 1_556 S
Fe506 O520 1.996 1_556 S
Fe507 O508 1.918 . S
Fe507 O515 1.997 . S
Fe507 O518 1.996 1_556 S
Fe507 O522 1.976 . S
Fe507 O525 2.002 . S
O508 Fe506 1.918 . S
O508 Fe507 1.918 . S
O508 Fe509 1.918 . S
Fe509 O508 1.918 . S
Fe509 O510 2.002 . S
Fe509 O519 1.976 . S
Fe509 O523 1.996 . S
Fe509 O526 1.997 . S
O510 Fe509 2.002 . S
O510 C527 1.295 . S
O511 Fe506 1.997 . S
O511 C527 1.235 . S
O512 Fe506 2.002 . S
O512 C513 1.295 . S
C513 O512 1.295 . S
C513 O515 1.235 . S
C514 O519 1.287 1_554 S
C514 O520 1.255 . S
O515 Fe507 1.997 . S
O515 C513 1.235 . S
C516 O522 1.287 . S
C516 O523 1.255 . S
O517 Fe506 1.976 1_554 S
O517 C524 1.287 . S
O518 Fe507 1.996 1_554 S
O518 C524 1.255 . S
O519 Fe509 1.976 . S
O519 C514 1.287 1_556 S
O520 Fe506 1.996 1_554 S
O520 C514 1.255 . S
C521 O525 1.295 . S
C521 O526 1.235 . S
O522 Fe507 1.976 . S
O522 C516 1.287 . S
O523 Fe509 1.996 . S
O523 C516 1.255 . S
C524 O517 1.287 . S
C524 O518 1.255 . S
O525 Fe507 2.002 . S
O525 C521 1.295 . S
O526 Fe509 1.997 . S
O526 C521 1.235 . S
C527 O510 1.295 . S
C527 O511 1.235 . S
Fe528 O530 1.918 . S
Fe528 O533 1.997 . S
Fe528 O534 2.002 . S
Fe528 O539 1.976 . S
Fe528 O542 1.996 . S
Fe529 O530 1.918 . S
Fe529 O537 1.997 . S
Fe529 O540 1.996 . S
Fe529 O544 1.976 . S
Fe529 O547 2.002 . S
O530 Fe528 1.918 . S
O530 Fe529 1.918 . S
O530 Fe531 1.918 . S
Fe531 O530 1.918 . S
Fe531 O532 2.002 . S
Fe531 O541 1.976 . S
Fe531 O545 1.996 . S
Fe531 O548 1.997 . S
O532 Fe531 2.002 . S
O532 C549 1.295 . S
O533 Fe528 1.997 . S
O533 C549 1.235 . S
O534 Fe528 2.002 . S
O534 C535 1.295 . S
C535 O534 1.295 . S
C535 O537 1.235 . S
C536 O541 1.287 . S
C536 O542 1.255 . S
O537 Fe529 1.997 . S
O537 C535 1.235 . S
C538 O544 1.287 . S
C538 O545 1.255 . S
O539 Fe528 1.976 . S
O539 C546 1.287 . S
O540 Fe529 1.996 . S
O540 C546 1.255 . S
O541 Fe531 1.976 . S
O541 C536 1.287 . S
O542 Fe528 1.996 . S
O542 C536 1.255 . S
C543 O547 1.295 . S
C543 O548 1.235 . S
O544 Fe529 1.976 . S
O544 C538 1.287 . S
O545 Fe531 1.996 . S
O545 C538 1.255 . S
C546 O539 1.287 . S
C546 O540 1.255 . S
O547 Fe529 2.002 . S
O547 C543 1.295 . S
O548 Fe531 1.997 . S
O548 C543 1.235 . S
C549 O532 1.295 . S
C549 O533 1.235 . S
Fe550 O552 1.918 . S
Fe550 O555 1.997 . S
Fe550 O556 2.002 . S
Fe550 O561 1.976 . S
Fe550 O564 1.996 . S
Fe551 O552 1.918 . S
Fe551 O559 1.997 . S
Fe551 O562 1.996 . S
Fe551 O566 1.976 . S
Fe551 O569 2.002 . S
O552 Fe550 1.918 . S
O552 Fe551 1.918 . S
O552 Fe553 1.918 . S
Fe553 O552 1.918 . S
Fe553 O554 2.002 . S
Fe553 O563 1.976 . S
Fe553 O567 1.996 . S
Fe553 O570 1.997 . S
O554 Fe553 2.002 . S
O554 C571 1.295 . S
O555 Fe550 1.997 . S
O555 C571 1.235 . S
O556 Fe550 2.002 . S
O556 C557 1.295 . S
C557 O556 1.295 . S
C557 O559 1.235 . S
C558 O563 1.287 . S
C558 O564 1.255 . S
O559 Fe551 1.997 . S
O559 C557 1.235 . S
C560 O566 1.287 . S
C560 O567 1.255 . S
O561 Fe550 1.976 . S
O561 C568 1.287 . S
O562 Fe551 1.996 . S
O562 C568 1.255 . S
O563 Fe553 1.976 . S
O563 C558 1.287 . S
O564 Fe550 1.996 . S
O564 C558 1.255 . S
C565 O569 1.295 . S
C565 O570 1.235 . S
O566 Fe551 1.976 . S
O566 C560 1.287 . S
O567 Fe553 1.996 . S
O567 C560 1.255 . S
C568 O561 1.287 . S
C568 O562 1.255 . S
O569 Fe551 2.002 . S
O569 C565 1.295 . S
O570 Fe553 1.997 . S
O570 C565 1.235 . S
C571 O554 1.295 . S
C571 O555 1.235 . S
Fe572 O574 1.918 . S
Fe572 O577 1.997 . S
Fe572 O578 2.002 . S
Fe572 O583 1.976 . S
Fe572 O586 1.996 . S
Fe573 O574 1.918 . S
Fe573 O581 1.997 . S
Fe573 O584 1.996 . S
Fe573 O588 1.976 . S
Fe573 O591 2.002 . S
O574 Fe572 1.918 . S
O574 Fe573 1.918 . S
O574 Fe575 1.918 . S
Fe575 O574 1.918 . S
Fe575 O576 2.002 . S
Fe575 O585 1.976 . S
Fe575 O589 1.996 . S
Fe575 O592 1.997 . S
O576 Fe575 2.002 . S
O576 C593 1.295 . S
O577 Fe572 1.997 . S
O577 C593 1.235 . S
O578 Fe572 2.002 . S
O578 C579 1.295 . S
C579 O578 1.295 . S
C579 O581 1.235 . S
C580 O585 1.287 . S
C580 O586 1.255 . S
O581 Fe573 1.997 . S
O581 C579 1.235 . S
C582 O588 1.287 . S
C582 O589 1.255 . S
O583 Fe572 1.976 . S
O583 C590 1.287 . S
O584 Fe573 1.996 . S
O584 C590 1.255 . S
O585 Fe575 1.976 . S
O585 C580 1.287 . S
O586 Fe572 1.996 . S
O586 C580 1.255 . S
C587 O591 1.295 . S
C587 O592 1.235 . S
O588 Fe573 1.976 . S
O588 C582 1.287 . S
O589 Fe575 1.996 . S
O589 C582 1.255 . S
C590 O583 1.287 . S
C590 O584 1.255 . S
O591 Fe573 2.002 . S
O591 C587 1.295 . S
O592 Fe575 1.997 . S
O592 C587 1.235 . S
C593 O576 1.295 . S
C593 O577 1.235 . S
Fe594 O596 1.918 . S
Fe594 O599 1.997 . S
Fe594 O600 2.002 . S
Fe594 O605 1.976 . S
Fe594 O608 1.996 . S
Fe595 O596 1.918 . S
Fe595 O603 1.997 . S
Fe595 O606 1.996 . S
Fe595 O610 1.976 1_554 S
Fe595 O613 2.002 . S
O596 Fe594 1.918 . S
O596 Fe595 1.918 . S
O596 Fe597 1.918 . S
Fe597 O596 1.918 . S
Fe597 O598 2.002 . S
Fe597 O607 1.976 1_554 S
Fe597 O611 1.996 1_554 S
Fe597 O614 1.997 . S
O598 Fe597 2.002 . S
O598 C615 1.295 . S
O599 Fe594 1.997 . S
O599 C615 1.235 . S
O600 Fe594 2.002 . S
O600 C601 1.295 . S
C601 O600 1.295 . S
C601 O603 1.235 . S
C602 O607 1.287 . S
C602 O608 1.255 1_556 S
O603 Fe595 1.997 . S
O603 C601 1.235 . S
C604 O610 1.287 . S
C604 O611 1.255 . S
O605 Fe594 1.976 . S
O605 C612 1.287 . S
O606 Fe595 1.996 . S
O606 C612 1.255 . S
O607 Fe597 1.976 1_556 S
O607 C602 1.287 . S
O608 Fe594 1.996 . S
O608 C602 1.255 1_554 S
C609 O613 1.295 . S
C609 O614 1.235 . S
O610 Fe595 1.976 1_556 S
O610 C604 1.287 . S
O611 Fe597 1.996 1_556 S
O611 C604 1.255 . S
C612 O605 1.287 . S
C612 O606 1.255 . S
O613 Fe595 2.002 . S
O613 C609 1.295 . S
O614 Fe597 1.997 . S
O614 C609 1.235 . S
C615 O598 1.295 . S
C615 O599 1.235 . S
Fe616 O618 1.918 . S
Fe616 O621 1.997 . S
Fe616 O622 2.002 . S
Fe616 O627 1.976 . S
Fe616 O630 1.996 . S
Fe617 O618 1.918 . S
Fe617 O625 1.997 . S
Fe617 O628 1.996 . S
Fe617 O632 1.976 1_554 S
Fe617 O635 2.002 . S
O618 Fe616 1.918 . S
O618 Fe617 1.918 . S
O618 Fe619 1.918 . S
Fe619 O618 1.918 . S
Fe619 O620 2.002 . S
Fe619 O629 1.976 1_554 S
Fe619 O633 1.996 1_554 S
Fe619 O636 1.997 . S
O620 Fe619 2.002 . S
O620 C637 1.295 . S
O621 Fe616 1.997 . S
O621 C637 1.235 . S
O622 Fe616 2.002 . S
O622 C623 1.295 . S
C623 O622 1.295 . S
C623 O625 1.235 . S
C624 O629 1.287 . S
C624 O630 1.255 1_556 S
O625 Fe617 1.997 . S
O625 C623 1.235 . S
C626 O632 1.287 . S
C626 O633 1.255 . S
O627 Fe616 1.976 . S
O627 C634 1.287 . S
O628 Fe617 1.996 . S
O628 C634 1.255 . S
O629 Fe619 1.976 1_556 S
O629 C624 1.287 . S
O630 Fe616 1.996 . S
O630 C624 1.255 1_554 S
C631 O635 1.295 . S
C631 O636 1.235 . S
O632 Fe617 1.976 1_556 S
O632 C626 1.287 . S
O633 Fe619 1.996 1_556 S
O633 C626 1.255 . S
C634 O627 1.287 . S
C634 O628 1.255 . S
O635 Fe617 2.002 . S
O635 C631 1.295 . S
O636 Fe619 1.997 . S
O636 C631 1.235 . S
C637 O620 1.295 . S
C637 O621 1.235 . S
Fe638 O640 1.918 . S
Fe638 O643 1.997 . S
Fe638 O644 2.002 . S
Fe638 O649 1.976 . S
Fe638 O652 1.996 . S
Fe639 O640 1.918 . S
Fe639 O647 1.997 . S
Fe639 O650 1.996 . S
Fe639 O654 1.976 1_554 S
Fe639 O657 2.002 . S
O640 Fe638 1.918 . S
O640 Fe639 1.918 . S
O640 Fe641 1.918 . S
Fe641 O640 1.918 . S
Fe641 O642 2.002 . S
Fe641 O651 1.976 1_554 S
Fe641 O655 1.996 1_554 S
Fe641 O658 1.997 . S
O642 Fe641 2.002 . S
O642 C659 1.295 . S
O643 Fe638 1.997 . S
O643 C659 1.235 . S
O644 Fe638 2.002 . S
O644 C645 1.295 . S
C645 O644 1.295 . S
C645 O647 1.235 . S
C646 O651 1.287 . S
C646 O652 1.255 1_556 S
O647 Fe639 1.997 . S
O647 C645 1.235 . S
C648 O654 1.287 . S
C648 O655 1.255 . S
O649 Fe638 1.976 . S
O649 C656 1.287 . S
O650 Fe639 1.996 . S
O650 C656 1.255 . S
O651 Fe641 1.976 1_556 S
O651 C646 1.287 . S
O652 Fe638 1.996 . S
O652 C646 1.255 1_554 S
C653 O657 1.295 . S
C653 O658 1.235 . S
O654 Fe639 1.976 1_556 S
O654 C648 1.287 . S
O655 Fe641 1.996 1_556 S
O655 C648 1.255 . S
C656 O649 1.287 . S
C656 O650 1.255 . S
O657 Fe639 2.002 . S
O657 C653 1.295 . S
O658 Fe641 1.997 . S
O658 C653 1.235 . S
C659 O642 1.295 . S
C659 O643 1.235 . S
Fe660 O662 1.918 . S
Fe660 O665 1.997 . S
Fe660 O666 2.002 . S
Fe660 O671 1.976 . S
Fe660 O674 1.996 . S
Fe661 O662 1.918 . S
Fe661 O669 1.997 . S
Fe661 O672 1.996 . S
Fe661 O676 1.976 . S
Fe661 O679 2.002 . S
O662 Fe660 1.918 . S
O662 Fe661 1.918 . S
O662 Fe663 1.918 . S
Fe663 O662 1.918 . S
Fe663 O664 2.002 . S
Fe663 O673 1.976 . S
Fe663 O677 1.996 . S
Fe663 O680 1.997 . S
O664 Fe663 2.002 . S
O664 C681 1.295 . S
O665 Fe660 1.997 . S
O665 C681 1.235 . S
O666 Fe660 2.002 . S
O666 C667 1.295 . S
C667 O666 1.295 . S
C667 O669 1.235 . S
C668 O673 1.287 . S
C668 O674 1.255 . S
O669 Fe661 1.997 . S
O669 C667 1.235 . S
C670 O676 1.287 . S
C670 O677 1.255 . S
O671 Fe660 1.976 . S
O671 C678 1.287 . S
O672 Fe661 1.996 . S
O672 C678 1.255 . S
O673 Fe663 1.976 . S
O673 C668 1.287 . S
O674 Fe660 1.996 . S
O674 C668 1.255 . S
C675 O679 1.295 . S
C675 O680 1.235 . S
O676 Fe661 1.976 . S
O676 C670 1.287 . S
O677 Fe663 1.996 . S
O677 C670 1.255 . S
C678 O671 1.287 . S
C678 O672 1.255 . S
O679 Fe661 2.002 . S
O679 C675 1.295 . S
O680 Fe663 1.997 . S
O680 C675 1.235 . S
C681 O664 1.295 . S
C681 O665 1.235 . S
Fe682 O684 1.918 . S
Fe682 O687 1.997 . S
Fe682 O688 2.002 . S
Fe682 O693 1.976 . S
Fe682 O696 1.996 . S
Fe683 O684 1.918 . S
Fe683 O691 1.997 . S
Fe683 O694 1.996 . S
Fe683 O698 1.976 . S
Fe683 O701 2.002 . S
O684 Fe682 1.918 . S
O684 Fe683 1.918 . S
O684 Fe685 1.918 . S
Fe685 O684 1.918 . S
Fe685 O686 2.002 . S
Fe685 O695 1.976 . S
Fe685 O699 1.996 . S
Fe685 O702 1.997 . S
O686 Fe685 2.002 . S
O686 C703 1.295 . S
O687 Fe682 1.997 . S
O687 C703 1.235 . S
O688 Fe682 2.002 . S
O688 C689 1.295 . S
C689 O688 1.295 . S
C689 O691 1.235 . S
C690 O695 1.287 . S
C690 O696 1.255 . S
O691 Fe683 1.997 . S
O691 C689 1.235 . S
C692 O698 1.287 . S
C692 O699 1.255 . S
O693 Fe682 1.976 . S
O693 C700 1.287 . S
O694 Fe683 1.996 . S
O694 C700 1.255 . S
O695 Fe685 1.976 . S
O695 C690 1.287 . S
O696 Fe682 1.996 . S
O696 C690 1.255 . S
C697 O701 1.295 . S
C697 O702 1.235 . S
O698 Fe683 1.976 . S
O698 C692 1.287 . S
O699 Fe685 1.996 . S
O699 C692 1.255 . S
C700 O693 1.287 . S
C700 O694 1.255 . S
O701 Fe683 2.002 . S
O701 C697 1.295 . S
O702 Fe685 1.997 . S
O702 C697 1.235 . S
C703 O686 1.295 . S
C703 O687 1.235 . S
Fe704 O706 1.918 . S
Fe704 O709 1.997 . S
Fe704 O710 2.002 . S
Fe704 O715 1.976 . S
Fe704 O718 1.996 . S
Fe705 O706 1.918 . S
Fe705 O713 1.997 . S
Fe705 O716 1.996 . S
Fe705 O720 1.976 . S
Fe705 O723 2.002 . S
O706 Fe704 1.918 . S
O706 Fe705 1.918 . S
O706 Fe707 1.918 . S
Fe707 O706 1.918 . S
Fe707 O708 2.002 . S
Fe707 O717 1.976 . S
Fe707 O721 1.996 . S
Fe707 O724 1.997 . S
O708 Fe707 2.002 . S
O708 C725 1.295 . S
O709 Fe704 1.997 . S
O709 C725 1.235 . S
O710 Fe704 2.002 . S
O710 C711 1.295 . S
C711 O710 1.295 . S
C711 O713 1.235 . S
C712 O717 1.287 . S
C712 O718 1.255 . S
O713 Fe705 1.997 . S
O713 C711 1.235 . S
C714 O720 1.287 . S
C714 O721 1.255 . S
O715 Fe704 1.976 . S
O715 C722 1.287 . S
O716 Fe705 1.996 . S
O716 C722 1.255 . S
O717 Fe707 1.976 . S
O717 C712 1.287 . S
O718 Fe704 1.996 . S
O718 C712 1.255 . S
C719 O723 1.295 . S
C719 O724 1.235 . S
O720 Fe705 1.976 . S
O720 C714 1.287 . S
O721 Fe707 1.996 . S
O721 C714 1.255 . S
C722 O715 1.287 . S
C722 O716 1.255 . S
O723 Fe705 2.002 . S
O723 C719 1.295 . S
O724 Fe707 1.997 . S
O724 C719 1.235 . S
C725 O708 1.295 . S
C725 O709 1.235 . S
Fe726 O728 1.918 . S
Fe726 O731 1.997 . S
Fe726 O732 2.002 . S
Fe726 O737 1.976 . S
Fe726 O740 1.996 . S
Fe727 O728 1.918 . S
Fe727 O735 1.997 . S
Fe727 O738 1.996 . S
Fe727 O742 1.976 . S
Fe727 O745 2.002 . S
O728 Fe726 1.918 . S
O728 Fe727 1.918 . S
O728 Fe729 1.918 . S
Fe729 O728 1.918 . S
Fe729 O730 2.002 . S
Fe729 O739 1.976 . S
Fe729 O743 1.996 . S
Fe729 O746 1.997 . S
O730 Fe729 2.002 . S
O730 C747 1.295 . S
O731 Fe726 1.997 . S
O731 C747 1.235 . S
O732 Fe726 2.002 . S
O732 C733 1.295 . S
C733 O732 1.295 . S
C733 O735 1.235 . S
C734 O739 1.287 . S
C734 O740 1.255 . S
O735 Fe727 1.997 . S
O735 C733 1.235 . S
C736 O742 1.287 . S
C736 O743 1.255 . S
O737 Fe726 1.976 . S
O737 C744 1.287 . S
O738 Fe727 1.996 . S
O738 C744 1.255 . S
O739 Fe729 1.976 . S
O739 C734 1.287 . S
O740 Fe726 1.996 . S
O740 C734 1.255 . S
C741 O745 1.295 . S
C741 O746 1.235 . S
O742 Fe727 1.976 . S
O742 C736 1.287 . S
O743 Fe729 1.996 . S
O743 C736 1.255 . S
C744 O737 1.287 . S
C744 O738 1.255 . S
O745 Fe727 2.002 . S
O745 C741 1.295 . S
O746 Fe729 1.997 . S
O746 C741 1.235 . S
C747 O730 1.295 . S
C747 O731 1.235 . S
Fe748 O750 1.918 . S
Fe748 O753 1.997 . S
Fe748 O754 2.002 . S
Fe748 O759 1.976 . S
Fe748 O762 1.996 . S
Fe749 O750 1.918 . S
Fe749 O757 1.997 . S
Fe749 O760 1.996 . S
Fe749 O764 1.976 . S
Fe749 O767 2.002 . S
O750 Fe748 1.918 . S
O750 Fe749 1.918 . S
O750 Fe751 1.918 . S
Fe751 O750 1.918 . S
Fe751 O752 2.002 . S
Fe751 O761 1.976 . S
Fe751 O765 1.996 . S
Fe751 O768 1.997 . S
O752 Fe751 2.002 . S
O752 C769 1.295 . S
O753 Fe748 1.997 . S
O753 C769 1.235 . S
O754 Fe748 2.002 . S
O754 C755 1.295 . S
C755 O754 1.295 . S
C755 O757 1.235 . S
C756 O761 1.287 . S
C756 O762 1.255 . S
O757 Fe749 1.997 . S
O757 C755 1.235 . S
C758 O764 1.287 . S
C758 O765 1.255 . S
O759 Fe748 1.976 . S
O759 C766 1.287 . S
O760 Fe749 1.996 . S
O760 C766 1.255 . S
O761 Fe751 1.976 . S
O761 C756 1.287 . S
O762 Fe748 1.996 . S
O762 C756 1.255 . S
C763 O767 1.295 . S
C763 O768 1.235 . S
O764 Fe749 1.976 . S
O764 C758 1.287 . S
O765 Fe751 1.996 . S
O765 C758 1.255 . S
C766 O759 1.287 . S
C766 O760 1.255 . S
O767 Fe749 2.002 . S
O767 C763 1.295 . S
O768 Fe751 1.997 . S
O768 C763 1.235 . S
C769 O752 1.295 . S
C769 O753 1.235 . S
Fe770 O772 1.918 . S
Fe770 O775 1.997 . S
Fe770 O776 2.002 . S
Fe770 O781 1.976 . S
Fe770 O784 1.996 . S
Fe771 O772 1.918 . S
Fe771 O779 1.997 . S
Fe771 O782 1.996 . S
Fe771 O786 1.976 . S
Fe771 O789 2.002 . S
O772 Fe770 1.918 . S
O772 Fe771 1.918 . S
O772 Fe773 1.918 . S
Fe773 O772 1.918 . S
Fe773 O774 2.002 . S
Fe773 O783 1.976 . S
Fe773 O787 1.996 . S
Fe773 O790 1.997 . S
O774 Fe773 2.002 . S
O774 C791 1.295 . S
O775 Fe770 1.997 . S
O775 C791 1.235 . S
O776 Fe770 2.002 . S
O776 C777 1.295 . S
C777 O776 1.295 . S
C777 O779 1.235 . S
C778 O783 1.287 . S
C778 O784 1.255 . S
O779 Fe771 1.997 . S
O779 C777 1.235 . S
C780 O786 1.287 . S
C780 O787 1.255 . S
O781 Fe770 1.976 . S
O781 C788 1.287 . S
O782 Fe771 1.996 . S
O782 C788 1.255 . S
O783 Fe773 1.976 . S
O783 C778 1.287 . S
O784 Fe770 1.996 . S
O784 C778 1.255 . S
C785 O789 1.295 . S
C785 O790 1.235 . S
O786 Fe771 1.976 . S
O786 C780 1.287 . S
O787 Fe773 1.996 . S
O787 C780 1.255 . S
C788 O781 1.287 . S
C788 O782 1.255 . S
O789 Fe771 2.002 . S
O789 C785 1.295 . S
O790 Fe773 1.997 . S
O790 C785 1.235 . S
C791 O774 1.295 . S
C791 O775 1.235 . S
C15 C161 1.512 . S
C197 C43 1.512 . S
C65 C153 1.512 . S
C263 C81 1.512 . S
C103 C219 1.512 . S
C117 C241 1.512 . S
C139 C29 1.555 . S
C51 C169 1.555 . S
C21 C183 1.555 . S
C125 C205 1.555 . S
C87 C227 1.555 . S
C109 C249 1.555 . S
C285 C425 1.512 . S
C447 C307 1.512 . S
C403 C329 1.512 . S
C345 C527 1.512 . S
C483 C367 1.512 . S
C389 C491 1.512 . S
C411 C293 1.555 . S
C315 C433 1.555 . S
C455 C271 1.555 . S
C395 C469 1.555 . S
C351 C499 1.555 . S
C513 C373 1.555 . S
C549 C689 1.512 . S
C571 C711 1.512 . S
C667 C593 1.512 . S
C791 C609 1.512 . S
C631 C747 1.512 . S
C769 C653 1.512 . S
C557 C675 1.555 . S
C697 C579 1.555 . S
C535 C719 1.555 . S
C733 C659 1.555 . S
C755 C615 1.555 . S
C777 C637 1.555 . S
C7 C260 1.762 . S
C37 C216 1.762 . S
C59 C238 1.762 . S
C73 C164 1.762 . S
C194 C95 1.762 . S
C150 C131 1.762 . S
C128 C147 1.776 . S
C175 C76 1.776 . S
C98 C191 1.776 . S
C30 C213 1.776 . S
C235 C52 1.776 . S
C257 C10 1.776 . S
C524 C279 1.762 . S
C480 C301 1.762 . S
C494 C323 1.762 . S
C337 C428 1.762 1_556 S
C450 C359 1.762 1_554 S
C406 C381 1.762 1_554 S
C384 C417 1.776 . S
C340 C439 1.776 . S
C461 C362 1.776 . S
C294 C477 1.776 . S
C505 C316 1.776 . S
C272 C521 1.776 . S
C543 C788 1.762 . S
C744 C565 1.762 . S
C766 C587 1.762 . S
C692 C601 1.762 . S
C714 C623 1.762 . S
C670 C645 1.762 . S
C681 C648 1.776 . S
C604 C703 1.776 . S
C626 C725 1.776 . S
C741 C558 1.776 1_554 S
C580 C763 1.776 1_556 S
C785 C536 1.776 1_554 S
C8 C96 1.270 1_455 S
C40 C120 1.270 . S
C62 C74 1.270 1_565 S
C228 C140 1.184 1_455 S
C250 C172 1.184 . S
C206 C184 1.184 1_565 S
C360 C282 1.270 . S
C382 C304 1.270 . S
C326 C338 1.270 . S
C414 C502 1.184 . S
C436 C514 1.184 . S
C458 C470 1.184 . S
C546 C624 1.270 . S
C646 C568 1.270 . S
C602 C590 1.270 . S
C756 C678 1.184 . S
C778 C700 1.184 . S
C722 C734 1.184 . S
C18 C656 1.612 . S
C32 C612 1.612 . S
C634 C54 1.613 . S
C296 C84 1.612 . S
C318 C106 1.613 . S
C118 C274 1.612 . S
C516 C142 1.636 . S
C162 C472 1.636 . S
C492 C186 1.637 . S
C208 C690 1.636 . S
C712 C230 1.637 . S
C668 C252 1.636 . S
C348 C560 1.612 1_655 S
C370 C582 1.613 . S
C392 C538 1.612 1_545 S
C404 C780 1.636 1_545 S
C426 C736 1.636 1_655 S
C758 C448 1.637 . S
