# Generated by pormake.
# Topology ukn, (4)-cn, num edge types: 1
# Building blocks:
#     Node 0, Type 0, BuildingBlock: QUQFOY_clean_sbu_1, # of connection points: 4
#     Node 1, Type 0, BuildingBlock: QUQFOY_clean_sbu_1, # of connection points: 4
#     Node 2, Type 0, BuildingBlock: QUQFOY_clean_sbu_1, # of connection points: 4
#     Node 3, Type 0, BuildingBlock: QUQFOY_clean_sbu_1, # of connection points: 4
#     Node 4, Type 0, BuildingBlock: QUQFOY_clean_sbu_1, # of connection points: 4
#     Node 5, Type 0, BuildingBlock: QUQFOY_clean_sbu_1, # of connection points: 4
#     Node 6, Type 0, BuildingBlock: QUQFOY_clean_sbu_1, # of connection points: 4
#     Node 7, Type 0, BuildingBlock: QUQFOY_clean_sbu_1, # of connection points: 4
#     Node 8, Type 0, BuildingBlock: QUQFOY_clean_sbu_1, # of connection points: 4
#     Node 9, Type 0, BuildingBlock: QUQFOY_clean_sbu_1, # of connection points: 4
#     Node 10, Type 0, BuildingBlock: QUQFOY_clean_sbu_1, # of connection points: 4
#     Node 11, Type 0, BuildingBlock: QUQFOY_clean_sbu_1, # of connection points: 4
#     Node 12, Type 0, BuildingBlock: QUQFOY_clean_sbu_1, # of connection points: 4
#     Node 13, Type 0, BuildingBlock: QUQFOY_clean_sbu_1, # of connection points: 4
#     Node 14, Type 0, BuildingBlock: QUQFOY_clean_sbu_1, # of connection points: 4
#     Node 15, Type 0, BuildingBlock: QUQFOY_clean_sbu_1, # of connection points: 4
#     Node 16, Type 0, BuildingBlock: QUQFOY_clean_sbu_1, # of connection points: 4
#     Node 17, Type 0, BuildingBlock: QUQFOY_clean_sbu_1, # of connection points: 4
#     Node 18, Type 0, BuildingBlock: QUQFOY_clean_sbu_1, # of connection points: 4
#     Node 19, Type 0, BuildingBlock: QUQFOY_clean_sbu_1, # of connection points: 4
#     Node 20, Type 0, BuildingBlock: QUQFOY_clean_sbu_1, # of connection points: 4
#     Node 21, Type 0, BuildingBlock: QUQFOY_clean_sbu_1, # of connection points: 4
#     Node 22, Type 0, BuildingBlock: QUQFOY_clean_sbu_1, # of connection points: 4
#     Node 23, Type 0, BuildingBlock: QUQFOY_clean_sbu_1, # of connection points: 4
#     Node 24, Type 0, BuildingBlock: QUQFOY_clean_sbu_1, # of connection points: 4
#     Node 25, Type 0, BuildingBlock: QUQFOY_clean_sbu_1, # of connection points: 4
#     Node 26, Type 0, BuildingBlock: QUQFOY_clean_sbu_1, # of connection points: 4
#     Node 27, Type 0, BuildingBlock: QUQFOY_clean_sbu_1, # of connection points: 4
#     Node 28, Type 0, BuildingBlock: QUQFOY_clean_sbu_1, # of connection points: 4
#     Node 29, Type 0, BuildingBlock: QUQFOY_clean_sbu_1, # of connection points: 4
#     Node 30, Type 0, BuildingBlock: QUQFOY_clean_sbu_1, # of connection points: 4
#     Node 31, Type 0, BuildingBlock: QUQFOY_clean_sbu_1, # of connection points: 4
#     Node 32, Type 0, BuildingBlock: QUQFOY_clean_sbu_1, # of connection points: 4
#     Node 33, Type 0, BuildingBlock: QUQFOY_clean_sbu_1, # of connection points: 4
#     Node 34, Type 0, BuildingBlock: QUQFOY_clean_sbu_1, # of connection points: 4
#     Node 35, Type 0, BuildingBlock: QUQFOY_clean_sbu_1, # of connection points: 4
#     Edge 36, Type (0, 0), BuildingBlock: KIFKEQ_clean_linker_1, # of connection points: 2
#     Edge 37, Type (0, 0), BuildingBlock: KIFKEQ_clean_linker_1, # of connection points: 2
#     Edge 38, Type (0, 0), BuildingBlock: KIFKEQ_clean_linker_1, # of connection points: 2
#     Edge 39, Type (0, 0), BuildingBlock: KIFKEQ_clean_linker_1, # of connection points: 2
#     Edge 40, Type (0, 0), BuildingBlock: KIFKEQ_clean_linker_1, # of connection points: 2
#     Edge 41, Type (0, 0), BuildingBlock: KIFKEQ_clean_linker_1, # of connection points: 2
#     Edge 42, Type (0, 0), BuildingBlock: KIFKEQ_clean_linker_1, # of connection points: 2
#     Edge 43, Type (0, 0), BuildingBlock: KIFKEQ_clean_linker_1, # of connection points: 2
#     Edge 44, Type (0, 0), BuildingBlock: KIFKEQ_clean_linker_1, # of connection points: 2
#     Edge 45, Type (0, 0), BuildingBlock: KIFKEQ_clean_linker_1, # of connection points: 2
#     Edge 46, Type (0, 0), BuildingBlock: KIFKEQ_clean_linker_1, # of connection points: 2
#     Edge 47, Type (0, 0), BuildingBlock: KIFKEQ_clean_linker_1, # of connection points: 2
#     Edge 48, Type (0, 0), BuildingBlock: KIFKEQ_clean_linker_1, # of connection points: 2
#     Edge 49, Type (0, 0), BuildingBlock: KIFKEQ_clean_linker_1, # of connection points: 2
#     Edge 50, Type (0, 0), BuildingBlock: KIFKEQ_clean_linker_1, # of connection points: 2
#     Edge 51, Type (0, 0), BuildingBlock: KIFKEQ_clean_linker_1, # of connection points: 2
#     Edge 52, Type (0, 0), BuildingBlock: KIFKEQ_clean_linker_1, # of connection points: 2
#     Edge 53, Type (0, 0), BuildingBlock: KIFKEQ_clean_linker_1, # of connection points: 2
#     Edge 54, Type (0, 0), BuildingBlock: KIFKEQ_clean_linker_1, # of connection points: 2
#     Edge 55, Type (0, 0), BuildingBlock: KIFKEQ_clean_linker_1, # of connection points: 2
#     Edge 56, Type (0, 0), BuildingBlock: KIFKEQ_clean_linker_1, # of connection points: 2
#     Edge 57, Type (0, 0), BuildingBlock: KIFKEQ_clean_linker_1, # of connection points: 2
#     Edge 58, Type (0, 0), BuildingBlock: KIFKEQ_clean_linker_1, # of connection points: 2
#     Edge 59, Type (0, 0), BuildingBlock: KIFKEQ_clean_linker_1, # of connection points: 2
#     Edge 60, Type (0, 0), BuildingBlock: KIFKEQ_clean_linker_1, # of connection points: 2
#     Edge 61, Type (0, 0), BuildingBlock: KIFKEQ_clean_linker_1, # of connection points: 2
#     Edge 62, Type (0, 0), BuildingBlock: KIFKEQ_clean_linker_1, # of connection points: 2
#     Edge 63, Type (0, 0), BuildingBlock: KIFKEQ_clean_linker_1, # of connection points: 2
#     Edge 64, Type (0, 0), BuildingBlock: KIFKEQ_clean_linker_1, # of connection points: 2
#     Edge 65, Type (0, 0), BuildingBlock: KIFKEQ_clean_linker_1, # of connection points: 2
#     Edge 66, Type (0, 0), BuildingBlock: KIFKEQ_clean_linker_1, # of connection points: 2
#     Edge 67, Type (0, 0), BuildingBlock: KIFKEQ_clean_linker_1, # of connection points: 2
#     Edge 68, Type (0, 0), BuildingBlock: KIFKEQ_clean_linker_1, # of connection points: 2
#     Edge 69, Type (0, 0), BuildingBlock: KIFKEQ_clean_linker_1, # of connection points: 2
#     Edge 70, Type (0, 0), BuildingBlock: KIFKEQ_clean_linker_1, # of connection points: 2
#     Edge 71, Type (0, 0), BuildingBlock: KIFKEQ_clean_linker_1, # of connection points: 2
#     Edge 72, Type (0, 0), BuildingBlock: KIFKEQ_clean_linker_1, # of connection points: 2
#     Edge 73, Type (0, 0), BuildingBlock: KIFKEQ_clean_linker_1, # of connection points: 2
#     Edge 74, Type (0, 0), BuildingBlock: KIFKEQ_clean_linker_1, # of connection points: 2
#     Edge 75, Type (0, 0), BuildingBlock: KIFKEQ_clean_linker_1, # of connection points: 2
#     Edge 76, Type (0, 0), BuildingBlock: KIFKEQ_clean_linker_1, # of connection points: 2
#     Edge 77, Type (0, 0), BuildingBlock: KIFKEQ_clean_linker_1, # of connection points: 2
#     Edge 78, Type (0, 0), BuildingBlock: KIFKEQ_clean_linker_1, # of connection points: 2
#     Edge 79, Type (0, 0), BuildingBlock: KIFKEQ_clean_linker_1, # of connection points: 2
#     Edge 80, Type (0, 0), BuildingBlock: KIFKEQ_clean_linker_1, # of connection points: 2
#     Edge 81, Type (0, 0), BuildingBlock: KIFKEQ_clean_linker_1, # of connection points: 2
#     Edge 82, Type (0, 0), BuildingBlock: KIFKEQ_clean_linker_1, # of connection points: 2
#     Edge 83, Type (0, 0), BuildingBlock: KIFKEQ_clean_linker_1, # of connection points: 2
#     Edge 84, Type (0, 0), BuildingBlock: KIFKEQ_clean_linker_1, # of connection points: 2
#     Edge 85, Type (0, 0), BuildingBlock: KIFKEQ_clean_linker_1, # of connection points: 2
#     Edge 86, Type (0, 0), BuildingBlock: KIFKEQ_clean_linker_1, # of connection points: 2
#     Edge 87, Type (0, 0), BuildingBlock: KIFKEQ_clean_linker_1, # of connection points: 2
#     Edge 88, Type (0, 0), BuildingBlock: KIFKEQ_clean_linker_1, # of connection points: 2
#     Edge 89, Type (0, 0), BuildingBlock: KIFKEQ_clean_linker_1, # of connection points: 2
#     Edge 90, Type (0, 0), BuildingBlock: KIFKEQ_clean_linker_1, # of connection points: 2
#     Edge 91, Type (0, 0), BuildingBlock: KIFKEQ_clean_linker_1, # of connection points: 2
#     Edge 92, Type (0, 0), BuildingBlock: KIFKEQ_clean_linker_1, # of connection points: 2
#     Edge 93, Type (0, 0), BuildingBlock: KIFKEQ_clean_linker_1, # of connection points: 2
#     Edge 94, Type (0, 0), BuildingBlock: KIFKEQ_clean_linker_1, # of connection points: 2
#     Edge 95, Type (0, 0), BuildingBlock: KIFKEQ_clean_linker_1, # of connection points: 2
#     Edge 96, Type (0, 0), BuildingBlock: KIFKEQ_clean_linker_1, # of connection points: 2
#     Edge 97, Type (0, 0), BuildingBlock: KIFKEQ_clean_linker_1, # of connection points: 2
#     Edge 98, Type (0, 0), BuildingBlock: KIFKEQ_clean_linker_1, # of connection points: 2
#     Edge 99, Type (0, 0), BuildingBlock: KIFKEQ_clean_linker_1, # of connection points: 2
#     Edge 100, Type (0, 0), BuildingBlock: KIFKEQ_clean_linker_1, # of connection points: 2
#     Edge 101, Type (0, 0), BuildingBlock: KIFKEQ_clean_linker_1, # of connection points: 2
#     Edge 102, Type (0, 0), BuildingBlock: KIFKEQ_clean_linker_1, # of connection points: 2
#     Edge 103, Type (0, 0), BuildingBlock: KIFKEQ_clean_linker_1, # of connection points: 2
#     Edge 104, Type (0, 0), BuildingBlock: KIFKEQ_clean_linker_1, # of connection points: 2
#     Edge 105, Type (0, 0), BuildingBlock: KIFKEQ_clean_linker_1, # of connection points: 2
#     Edge 106, Type (0, 0), BuildingBlock: KIFKEQ_clean_linker_1, # of connection points: 2
#     Edge 107, Type (0, 0), BuildingBlock: KIFKEQ_clean_linker_1, # of connection points: 2
# Relax obj value: 0.012
# Max RMSD: 0.058
# Mean RMSD: 0.058
data_MOF--net-ukn--node1-QUQFOY_clean_sbu_1--edge1-KIFKEQ_clean_linker_1
_symmetry_space_group_name_H-M    P1
_symmetry_Int_Tables_number       1
_symmetry_cell_setting            triclinic
loop_
_symmetry_equiv_pos_as_xyz
'x, y, z'
_cell_length_a     111.07295
_cell_length_b     111.08574
_cell_length_c     28.631536
_cell_angle_alpha  89.998467
_cell_angle_beta   89.99889
_cell_angle_gamma 119.98504
loop_
_atom_site_label
_atom_site_type_symbol
_atom_site_fract_x
_atom_site_fract_y
_atom_site_fract_z
_atom_type_partial_charge
O0 O 0.10653 0.30613 0.10818 0.0
Cd1 Cd 0.09179 0.3123 0.10357 0.0
Cd2 Cd 0.07849 0.28678 0.05958 0.0
O3 O 0.09381 0.28396 0.0895 0.0
O4 O 0.09875 0.32833 0.14814 0.0
O5 O 0.07935 0.30847 0.15992 0.0
C6 C 0.08835 0.3207 0.17492 0.0
C7 C 0.05516 0.26948 0.05547 0.0
C8 C 0.10519 0.29411 0.10403 0.0
C9 C 0.08732 0.31247 1.00113 0.0
O10 O 0.0842 0.29982 1.00291 0.0
O11 O 0.08937 0.31939 0.03868 0.0
O12 O 0.06454 0.26878 0.03106 0.0
O13 O 0.05919 0.27953 0.08519 0.0
O14 O 0.70008 0.80115 0.11095 0.0
Cd15 Cd 0.69429 0.78034 0.10661 0.0
Cd16 Cd 0.71982 0.79283 0.06342 0.0
O17 O 0.72237 0.81083 0.09377 0.0
O18 O 0.67827 0.77106 0.15108 0.0
O19 O 0.69831 0.77192 0.16304 0.0
C20 C 0.68602 0.76849 0.17795 0.0
C21 C 0.73724 0.78695 0.05941 0.0
C22 C 0.71206 0.81191 0.10752 0.0
C23 C 0.69433 0.77581 1.00437 0.0
O24 O 0.7069 0.78551 1.00641 0.0
O25 O 0.68739 0.77078 0.04178 0.0
O26 O 0.73794 0.79707 0.03529 0.0
O27 O 0.72714 0.78081 0.08887 0.0
O28 O 0.20433 0.89989 0.12284 0.0
Cd29 Cd 0.22554 0.9135 0.11699 0.0
Cd30 Cd 0.21433 0.92785 0.06835 0.0
O31 O 0.19564 0.91245 0.09437 0.0
O32 O 0.23382 0.90589 0.16235 0.0
O33 O 0.23502 0.92615 0.17233 0.0
C34 C 0.23746 0.91668 0.18814 0.0
C35 C 0.2199 0.95105 0.06227 0.0
C36 C 0.19395 0.90139 0.11359 0.0
C37 C 0.23104 0.91776 1.01393 0.0
O38 O 0.22253 0.92223 1.01426 0.0
O39 O 0.23477 0.91468 0.05211 0.0
O40 O 0.21041 0.9415 0.03664 0.0
O41 O 0.22561 0.94728 0.09404 0.0
O42 O 0.30566 0.10317 0.90891 0.0
Cd43 Cd 0.31408 0.09031 0.91359 0.0
Cd44 Cd 0.28852 0.07481 0.96537 0.0
O45 O 0.2852 0.09063 0.94303 0.0
O46 O 0.32977 0.09853 0.86756 0.0
O47 O 0.31126 0.07779 0.85826 0.0
C48 C 0.32293 0.08761 0.84207 0.0
C49 C 0.27046 0.05181 0.97242 0.0
C50 C 0.29397 0.10156 0.92156 0.0
C51 C 0.31619 0.0851 1.01559 0.0
O52 O 0.30306 0.0795 0.01669 0.0
O53 O 0.32282 0.0897 0.9774 0.0
O54 O 0.27134 0.06145 0.99961 0.0
O55 O 0.27931 0.05541 0.93862 0.0
O56 O 0.90278 0.20376 0.90754 0.0
Cd57 Cd 0.91627 0.22499 0.91275 0.0
Cd58 Cd 0.93087 0.21407 0.96189 0.0
O59 O 0.91542 0.19524 0.9367 0.0
O60 O 0.90845 0.233 0.86721 0.0
O61 O 0.92884 0.23449 0.85731 0.0
C62 C 0.91926 0.23675 0.84144 0.0
C63 C 0.95406 0.21962 0.96846 0.0
C64 C 0.90433 0.19344 0.91735 0.0
C65 C 0.92067 0.23089 1.01541 0.0
O66 O 0.92533 0.22254 1.01537 0.0
O67 O 0.91735 0.23435 0.97715 0.0
O68 O 0.94449 0.21028 0.99445 0.0
O69 O 0.95032 0.22517 0.93604 0.0
O70 O 0.80129 0.69852 0.91137 0.0
Cd71 Cd 0.78025 0.69141 0.91391 0.0
Cd72 Cd 0.79105 0.71698 0.96299 0.0
O73 O 0.80992 0.71986 0.93879 0.0
O74 O 0.77223 0.67584 0.8676 0.0
O75 O 0.77137 0.69511 0.85814 0.0
C76 C 0.76885 0.68322 0.84194 0.0
C77 C 0.78636 0.73523 0.96979 0.0
C78 C 0.81168 0.71034 0.92105 0.0
C79 C 0.77315 0.6897 1.01496 0.0
O80 O 0.78136 0.70275 1.01563 0.0
O81 O 0.77044 0.68294 0.97686 0.0
O82 O 0.79529 0.73443 0.99637 0.0
O83 O 0.78082 0.72621 0.93658 0.0
O84 O 0.90203 0.70163 0.91693 0.0
Cd85 Cd 0.91572 0.69413 0.92366 0.0
Cd86 Cd 0.92968 0.71967 0.97216 0.0
O87 O 0.91435 0.72294 0.94521 0.0
O88 O 0.90812 0.6781 0.8788 0.0
O89 O 0.92832 0.69719 0.86824 0.0
C90 C 0.91886 0.68523 0.85276 0.0
C91 C 0.95301 0.73697 0.97721 0.0
C92 C 0.90341 0.7135 0.92569 0.0
C93 C 0.91979 0.6931 0.02713 0.0
O94 O 0.92394 0.70601 0.0267 0.0
O95 O 0.91702 0.68631 0.98896 0.0
O96 O 0.94364 0.73729 1.00284 0.0
O97 O 0.94898 0.72732 0.94594 0.0
O98 O 0.30735 0.20271 0.92992 0.0
Cd99 Cd 0.31348 0.22351 0.93563 0.0
Cd100 Cd 0.28795 0.21182 0.9766 0.0
O101 O 0.28512 0.19358 0.94701 0.0
O102 O 0.32956 0.23291 0.89153 0.0
O103 O 0.30959 0.23229 0.88005 0.0
C104 C 0.32187 0.23568 0.86505 0.0
C105 C 0.27188 0.21942 0.97411 0.0
C106 C 0.29523 0.19216 0.93321 0.0
C107 C 0.31285 0.22806 0.0381 0.0
O108 O 0.30007 0.21888 0.03556 0.0
O109 O 0.32016 0.23253 1.00114 0.0
O110 O 0.2695 0.2086 0.99798 0.0
O111 O 0.28292 0.22526 0.94838 0.0
O112 O 0.80289 0.10565 0.9296 0.0
Cd113 Cd 0.7822 0.09071 0.93577 0.0
Cd114 Cd 0.79423 0.07722 0.97589 0.0
O115 O 0.8123 0.09273 0.94552 0.0
O116 O 0.77247 0.097 0.89175 0.0
O117 O 0.7735 0.07786 0.88067 0.0
C118 C 0.76984 0.08652 0.86555 0.0
C119 C 0.78674 0.05358 0.97331 0.0
C120 C 0.81353 0.10422 0.93212 0.0
C121 C 0.77791 0.08558 0.03812 0.0
O122 O 0.78724 0.08219 0.03525 0.0
O123 O 0.77325 0.08829 1.00134 0.0
O124 O 0.79762 0.06207 0.99683 0.0
O125 O 0.78078 0.05872 0.94788 0.0
O126 O 0.7016 0.90129 0.11934 0.0
Cd127 Cd 0.69475 0.91547 0.11205 0.0
Cd128 Cd 0.71996 0.92901 0.06656 0.0
O129 O 0.72336 0.91403 0.09592 0.0
O130 O 0.67864 0.90833 0.15628 0.0
O131 O 0.69809 0.92822 0.16709 0.0
C132 C 0.68598 0.91901 0.18234 0.0
C133 C 0.73608 0.9527 0.06498 0.0
C134 C 0.71363 0.90283 0.11323 0.0
C135 C 0.69428 0.91936 1.00856 0.0
O136 O 0.70707 0.92296 1.00975 0.0
O137 O 0.68744 0.91713 0.04642 0.0
O138 O 0.73803 0.94394 0.04135 0.0
O139 O 0.72544 0.94787 0.09253 0.0
O140 O 0.10588 0.79973 0.11308 0.0
Cd141 Cd 0.09133 0.77888 0.10934 0.0
Cd142 Cd 0.07722 0.79058 0.06397 0.0
O143 O 0.09339 0.80905 0.08983 0.0
O144 O 0.09833 0.77007 0.15457 0.0
O145 O 0.07871 0.77022 0.16509 0.0
C146 C 0.08775 0.76713 0.18066 0.0
C147 C 0.05426 0.78589 0.0606 0.0
C148 C 0.10467 0.81038 0.10595 0.0
C149 C 0.08559 0.77264 1.00801 0.0
O150 O 0.08141 0.78138 1.00882 0.0
O151 O 0.08929 0.76923 0.0455 0.0
O152 O 0.06378 0.79515 0.0342 0.0
O153 O 0.058 0.78001 0.09183 0.0
O154 O 0.20484 0.30488 0.12297 0.0
Cd155 Cd 0.22597 0.31275 0.11613 0.0
Cd156 Cd 0.21564 0.28754 0.06736 0.0
O157 O 0.19666 0.28394 0.09253 0.0
O158 O 0.23421 0.32852 0.16171 0.0
O159 O 0.23584 0.30963 0.17018 0.0
C160 C 0.23815 0.32144 0.18657 0.0
C161 C 0.22243 0.27079 0.0656 0.0
C162 C 0.19466 0.29299 0.11276 0.0
C163 C 0.23202 0.31429 1.01326 0.0
O164 O 0.22412 0.30119 1.01284 0.0
O165 O 0.23483 0.32106 0.05143 0.0
O166 O 0.21243 0.26969 0.03977 0.0
O167 O 0.22792 0.28091 0.09527 0.0
O168 O 0.77325 0.64006 0.44117 0.0
Cd169 Cd 0.75853 0.64613 0.43585 0.0
Cd170 Cd 0.74471 0.62067 0.39406 0.0
O171 O 0.76024 0.61789 0.42314 0.0
O172 O 0.76515 0.66209 0.4803 0.0
O173 O 0.74575 0.64213 0.49109 0.0
C174 C 0.75459 0.65437 0.50638 0.0
C175 C 0.72111 0.60429 0.39557 0.0
C176 C 0.77173 0.62798 0.43726 0.0
C177 C 0.75327 0.64583 0.33375 0.0
O178 O 0.7496 0.63303 0.33574 0.0
O179 O 0.75627 0.65307 0.3709 0.0
O180 O 0.72974 0.60225 0.37144 0.0
O181 O 0.72609 0.61514 0.42215 0.0
O182 O 0.36785 0.13549 0.43982 0.0
Cd183 Cd 0.36123 0.11454 0.43551 0.0
Cd184 Cd 0.38704 0.12609 0.39055 0.0
O185 O 0.38968 0.14463 0.41691 0.0
O186 O 0.34533 0.10578 0.48061 0.0
O187 O 0.36499 0.10573 0.49135 0.0
C188 C 0.35288 0.10274 0.50683 0.0
C189 C 0.40477 0.1206 0.38787 0.0
C190 C 0.37979 0.14607 0.43306 0.0
C191 C 0.36088 0.10868 0.33363 0.0
O192 O 0.3738 0.11741 0.33482 0.0
O193 O 0.35373 0.10508 0.37107 0.0
O194 O 0.40502 0.13017 0.36172 0.0
O195 O 0.39497 0.11487 0.41857 0.0
O196 O 0.87172 0.23287 0.44036 0.0
Cd197 Cd 0.89246 0.24804 0.43509 0.0
Cd198 Cd 0.8801 0.26085 0.39394 0.0
O199 O 0.8622 0.24577 0.42579 0.0
O200 O 0.90211 0.24157 0.47902 0.0
O201 O 0.90089 0.26056 0.49124 0.0
C202 C 0.90456 0.25186 0.50594 0.0
C203 C 0.88796 0.28459 0.39473 0.0
C204 C 0.86103 0.23426 0.43852 0.0
C205 C 0.89635 0.25247 0.33244 0.0
O206 O 0.88638 0.25496 0.33505 0.0
O207 O 0.90176 0.25095 0.3696 0.0
O208 O 0.87692 0.27606 0.37201 0.0
O209 O 0.89395 0.27948 0.42018 0.0
O210 O 0.97234 0.43707 0.25085 0.0
Cd211 Cd 0.9792 0.42293 0.2589 0.0
Cd212 Cd 0.95397 0.4095 0.3039 0.0
O213 O 0.95051 0.42433 0.27359 0.0
O214 O 0.99541 0.43007 0.215 0.0
O215 O 0.97596 0.41022 0.20382 0.0
C216 C 0.98809 0.41944 0.18874 0.0
C217 C 0.93818 0.38572 0.30497 0.0
C218 C 0.96027 0.43551 0.25631 0.0
C219 C 0.97946 0.41931 0.36274 0.0
O220 O 0.9667 0.41578 0.36116 0.0
O221 O 0.98634 0.42134 0.32506 0.0
O222 O 0.93591 0.39433 0.32828 0.0
O223 O 0.94896 0.39076 0.27802 0.0
O224 O 0.56834 0.53801 0.25555 0.0
Cd225 Cd 0.58294 0.5588 0.26123 0.0
Cd226 Cd 0.5968 0.54717 0.30356 0.0
O227 O 0.58134 0.52888 0.27417 0.0
O228 O 0.57621 0.56807 0.21685 0.0
O229 O 0.59572 0.56771 0.20605 0.0
C230 C 0.58678 0.571 0.19076 0.0
C231 C 0.62038 0.55429 0.30284 0.0
C232 C 0.56988 0.52746 0.25961 0.0
C233 C 0.58797 0.56368 0.36349 0.0
O234 O 0.59175 0.55462 0.36162 0.0
O235 O 0.58498 0.56789 0.32626 0.0
O236 O 0.61167 0.54365 0.32684 0.0
O237 O 0.61551 0.56021 0.276 0.0
O238 O 0.47034 0.03366 0.24352 0.0
Cd239 Cd 0.44916 0.02604 0.24988 0.0
Cd240 Cd 0.46046 0.05164 0.29856 0.0
O241 O 0.47913 0.05492 0.272 0.0
O242 O 0.44089 0.0101 0.20473 0.0
O243 O 0.43956 0.02909 0.19463 0.0
C244 C 0.43718 0.01719 0.17891 0.0
C245 C 0.45473 0.06917 0.30458 0.0
C246 C 0.48076 0.04554 0.25256 0.0
C247 C 0.44386 0.02482 0.35306 0.0
O248 O 0.45235 0.03781 0.35266 0.0
O249 O 0.44008 0.018 0.31492 0.0
O250 O 0.46426 0.06918 0.33025 0.0
O251 O 0.44908 0.05968 0.27281 0.0
O252 O 0.56897 0.03212 0.25209 0.0
Cd253 Cd 0.58384 0.02611 0.25607 0.0
Cd254 Cd 0.5971 0.05165 0.30044 0.0
O255 O 0.58157 0.05427 0.27121 0.0
O256 O 0.57692 0.01015 0.21133 0.0
O257 O 0.59629 0.03005 0.19974 0.0
C258 C 0.58733 0.01782 0.18466 0.0
C259 C 0.62032 0.06926 0.30503 0.0
C260 C 0.57021 0.04409 0.2567 0.0
C261 C 0.58855 0.02582 0.35815 0.0
O262 O 0.59167 0.03848 0.35671 0.0
O263 O 0.58636 0.01893 0.32048 0.0
O264 O 0.6108 0.06967 0.32956 0.0
O265 O 0.61649 0.05934 0.27491 0.0
O266 O 0.97456 0.53743 0.25169 0.0
Cd267 Cd 0.98062 0.55832 0.25548 0.0
Cd268 Cd 0.95511 0.5462 0.2996 0.0
O269 O 0.95239 0.52799 0.27045 0.0
O270 O 0.99655 0.56731 0.21062 0.0
O271 O 0.97666 0.56682 0.19918 0.0
C272 C 0.98888 0.57007 0.18402 0.0
C273 C 0.93756 0.5519 0.30407 0.0
C274 C 0.96256 0.52675 0.25618 0.0
C275 C 0.98093 0.56337 0.35745 0.0
O276 O 0.96826 0.55388 0.35595 0.0
O277 O 0.98784 0.56804 0.31981 0.0
O278 O 0.93712 0.54199 0.32872 0.0
O279 O 0.94748 0.55793 0.27388 0.0
O280 O 0.47066 0.43808 0.24136 0.0
Cd281 Cd 0.44942 0.42474 0.24766 0.0
Cd282 Cd 0.46048 0.41024 0.2968 0.0
O283 O 0.47921 0.42541 0.27011 0.0
O284 O 0.44132 0.43258 0.20239 0.0
O285 O 0.43974 0.41215 0.19236 0.0
C286 C 0.4375 0.42176 0.17658 0.0
C287 C 0.45456 0.38694 0.30353 0.0
C288 C 0.48098 0.43646 0.25053 0.0
C289 C 0.44414 0.42081 0.35098 0.0
O290 O 0.45253 0.4162 0.35072 0.0
O291 O 0.44038 0.42384 0.31274 0.0
O292 O 0.46419 0.39648 0.32884 0.0
O293 O 0.44891 0.39076 0.27171 0.0
O294 O 0.36907 0.23487 0.4615 0.0
Cd295 Cd 0.36028 0.24741 0.45778 0.0
Cd296 Cd 0.38552 0.26324 0.40386 0.0
O297 O 0.38911 0.24746 0.42479 0.0
O298 O 0.34484 0.23904 0.5047 0.0
O299 O 0.3631 0.25999 0.51297 0.0
C300 C 0.35159 0.25007 0.52974 0.0
C301 C 0.40355 0.28624 0.39549 0.0
C302 C 0.38066 0.23656 0.44714 0.0
C303 C 0.35737 0.25247 0.35622 0.0
O304 O 0.37052 0.25845 0.35415 0.0
O305 O 0.35102 0.24763 0.39471 0.0
O306 O 0.40238 0.27655 0.36798 0.0
O307 O 0.39502 0.28271 0.43024 0.0
O308 O 0.77202 0.13435 0.46324 0.0
Cd309 Cd 0.759 0.11312 0.45869 0.0
Cd310 Cd 0.74379 0.12325 0.40554 0.0
O311 O 0.75976 0.14237 0.42765 0.0
O312 O 0.76691 0.10554 0.50542 0.0
O313 O 0.74618 0.10344 0.51337 0.0
C314 C 0.75586 0.10148 0.53021 0.0
C315 C 0.72091 0.11865 0.39716 0.0
C316 C 0.77059 0.14448 0.44976 0.0
C317 C 0.75401 0.10553 0.35705 0.0
O318 O 0.74838 0.11304 0.35524 0.0
O319 O 0.75863 0.10369 0.39547 0.0
O320 O 0.7307 0.12722 0.37003 0.0
O321 O 0.72429 0.11342 0.43164 0.0
O322 O 0.87101 0.63757 0.45287 0.0
Cd323 Cd 0.89222 0.64526 0.44673 0.0
Cd324 Cd 0.88092 0.61961 0.39836 0.0
O325 O 0.86226 0.61622 0.42522 0.0
O326 O 0.9004 0.66132 0.49153 0.0
O327 O 0.90176 0.64238 0.50252 0.0
C328 C 0.90407 0.65429 0.51786 0.0
C329 C 0.88682 0.60221 0.39205 0.0
C330 C 0.86061 0.62564 0.44427 0.0
C331 C 0.8974 0.64631 0.34344 0.0
O332 O 0.88882 0.63336 0.34402 0.0
O333 O 0.90134 0.65316 0.38152 0.0
O334 O 0.87717 0.60208 0.36672 0.0
O335 O 0.89248 0.61172 0.42374 0.0
O336 O 0.43986 0.97137 0.78149 0.0
Cd337 Cd 0.42563 0.97812 0.77362 0.0
Cd338 Cd 0.41228 0.95292 0.72852 0.0
O339 O 0.4272 0.94955 0.75857 0.0
O340 O 0.43265 0.99429 0.81765 0.0
O341 O 0.41287 0.97475 0.8287 0.0
C342 C 0.42201 0.9869 0.84384 0.0
C343 C 0.38852 0.93704 0.72786 0.0
C344 C 0.43836 0.95933 0.77587 0.0
C345 C 0.42189 0.97839 0.66979 0.0
O346 O 0.41844 0.96564 0.67125 0.0
O347 O 0.42392 0.98524 0.70755 0.0
O348 O 0.39712 0.93481 0.70437 0.0
O349 O 0.39355 0.94783 0.75471 0.0
O350 O 0.03458 0.46856 0.78932 0.0
Cd351 Cd 0.02706 0.44739 0.78281 0.0
Cd352 Cd 0.0526 0.45879 0.73414 0.0
O353 O 0.05588 0.4774 0.76108 0.0
O354 O 0.01116 0.439 0.82809 0.0
O355 O 0.03024 0.43782 0.83782 0.0
C356 C 0.01832 0.43534 0.85371 0.0
C357 C 0.07013 0.45308 0.72749 0.0
C358 C 0.04646 0.479 0.78046 0.0
C359 C 0.02583 0.44218 0.67962 0.0
O360 O 0.03879 0.45076 0.68 0.0
O361 O 0.01903 0.4383 0.71779 0.0
O362 O 0.07015 0.46269 0.70225 0.0
O363 O 0.06066 0.44736 0.75928 0.0
O364 O 0.53915 0.56746 0.78667 0.0
Cd365 Cd 0.56019 0.58143 0.78359 0.0
Cd366 Cd 0.54933 0.59615 0.73521 0.0
O367 O 0.53049 0.58023 0.75997 0.0
O368 O 0.56838 0.57404 0.82986 0.0
O369 O 0.56914 0.59414 0.83901 0.0
C370 C 0.57176 0.58484 0.8553 0.0
C371 C 0.5542 0.61915 0.72913 0.0
C372 C 0.52875 0.56894 0.77752 0.0
C373 C 0.56706 0.58676 0.68238 0.0
O374 O 0.55881 0.59155 0.68198 0.0
O375 O 0.56989 0.58277 0.72039 0.0
O376 O 0.54512 0.6095 0.70269 0.0
O377 O 0.55979 0.61555 0.76184 0.0
O378 O 0.63995 0.77093 0.5781 0.0
Cd379 Cd 0.64729 0.75712 0.58427 0.0
Cd380 Cd 0.62169 0.7431 0.6328 0.0
O381 O 0.61863 0.75862 0.60623 0.0
O382 O 0.66326 0.76468 0.53931 0.0
O383 O 0.64413 0.7445 0.52893 0.0
C384 C 0.6561 0.75393 0.51337 0.0
C385 C 0.60404 0.71991 0.63884 0.0
C386 C 0.62812 0.76961 0.58698 0.0
C387 C 0.6484 0.75282 0.68729 0.0
O388 O 0.63547 0.74861 0.68696 0.0
O389 O 0.65521 0.75578 0.64913 0.0
O390 O 0.60406 0.72948 0.66433 0.0
O391 O 0.61353 0.72367 0.60712 0.0
O392 O 0.23583 0.86879 0.58609 0.0
Cd393 Cd 0.24992 0.88982 0.59357 0.0
Cd394 Cd 0.26353 0.8782 0.63874 0.0
O395 O 0.2486 0.85979 0.60945 0.0
O396 O 0.24267 0.89877 0.54956 0.0
O397 O 0.26255 0.89924 0.53824 0.0
C398 C 0.25329 0.9021 0.52319 0.0
C399 C 0.28731 0.88616 0.63903 0.0
C400 C 0.2374 0.85831 0.59212 0.0
C401 C 0.25379 0.894 0.69734 0.0
O402 O 0.25741 0.88483 0.69594 0.0
O403 O 0.25159 0.89869 0.65958 0.0
O404 O 0.27877 0.87538 0.66284 0.0
O405 O 0.28219 0.89183 0.61207 0.0
O406 O 0.13672 0.36769 0.57513 0.0
Cd407 Cd 0.1155 0.35998 0.58122 0.0
Cd408 Cd 0.12673 0.38556 0.63016 0.0
O409 O 0.14544 0.38893 0.60377 0.0
O410 O 0.10736 0.344 0.5362 0.0
O411 O 0.10589 0.3629 0.52575 0.0
C412 C 0.10361 0.35101 0.5102 0.0
C413 C 0.12092 0.40301 0.63668 0.0
C414 C 0.14711 0.37958 0.58428 0.0
C415 C 0.11005 0.35871 0.68432 0.0
O416 O 0.11859 0.37168 0.68408 0.0
O417 O 0.1063 0.35192 0.64611 0.0
O418 O 0.13049 0.40304 0.66215 0.0
O419 O 0.1153 0.39358 0.60472 0.0
O420 O 0.23431 0.36494 0.58638 0.0
Cd421 Cd 0.24887 0.35869 0.59218 0.0
Cd422 Cd 0.26278 0.38411 0.63451 0.0
O423 O 0.24736 0.38704 0.60525 0.0
O424 O 0.24225 0.34277 0.54752 0.0
O425 O 0.26177 0.36265 0.53728 0.0
C426 C 0.25289 0.35045 0.52171 0.0
C427 C 0.28642 0.40048 0.6334 0.0
C428 C 0.23588 0.37704 0.59064 0.0
C429 C 0.25372 0.35877 0.69459 0.0
O430 O 0.25764 0.37164 0.69266 0.0
O431 O 0.25073 0.35157 0.65735 0.0
O432 O 0.27776 0.40248 0.65751 0.0
O433 O 0.28146 0.38964 0.60678 0.0
O434 O 0.642 0.87146 0.58499 0.0
Cd435 Cd 0.64811 0.89235 0.58916 0.0
Cd436 Cd 0.6226 0.88019 0.63345 0.0
O437 O 0.61985 0.86199 0.60413 0.0
O438 O 0.66402 0.90138 0.54419 0.0
O439 O 0.64414 0.90093 0.53308 0.0
C440 C 0.65634 0.90417 0.51775 0.0
C441 C 0.6051 0.88597 0.63846 0.0
C442 C 0.63001 0.86076 0.58961 0.0
C443 C 0.64848 0.89719 0.6913 0.0
O444 O 0.63579 0.88777 0.6897 0.0
O445 O 0.6554 0.90192 0.6537 0.0
O446 O 0.60465 0.87602 0.66291 0.0
O447 O 0.61498 0.89199 0.60814 0.0
O448 O 0.13521 0.77108 0.58482 0.0
Cd449 Cd 0.11426 0.75676 0.58788 0.0
Cd450 Cd 0.12553 0.74229 0.63428 0.0
O451 O 0.14419 0.75836 0.60908 0.0
O452 O 0.10573 0.76392 0.54208 0.0
O453 O 0.10555 0.74411 0.53221 0.0
C454 C 0.10263 0.75325 0.51629 0.0
C455 C 0.12067 0.71929 0.63896 0.0
C456 C 0.14573 0.7697 0.5927 0.0
C457 C 0.10759 0.75101 0.68896 0.0
O458 O 0.11617 0.74661 0.68863 0.0
O459 O 0.10446 0.75488 0.6513 0.0
O460 O 0.12988 0.72886 0.66533 0.0
O461 O 0.11497 0.72299 0.60695 0.0
O462 O 0.0329 0.56709 0.78089 0.0
Cd463 Cd 0.02679 0.58187 0.77687 0.0
Cd464 Cd 0.05239 0.59524 0.73239 0.0
O465 O 0.05503 0.57971 0.76157 0.0
O466 O 0.0108 0.57483 0.82154 0.0
O467 O 0.03062 0.59428 0.83326 0.0
C468 C 0.01841 0.58524 0.84828 0.0
C469 C 0.07009 0.61842 0.72739 0.0
C470 C 0.04487 0.56835 0.7762 0.0
C471 C 0.02647 0.58656 0.67481 0.0
O472 O 0.03916 0.58979 0.67629 0.0
O473 O 0.01955 0.58429 0.71245 0.0
O474 O 0.07037 0.60885 0.7028 0.0
O475 O 0.06025 0.61467 0.75777 0.0
O476 O 0.43878 0.47016 0.7795 0.0
Cd477 Cd 0.42499 0.44908 0.77137 0.0
Cd478 Cd 0.4113 0.46059 0.72518 0.0
O479 O 0.42595 0.47901 0.75514 0.0
O480 O 0.43242 0.4403 0.81544 0.0
O481 O 0.41234 0.43942 0.8265 0.0
C482 C 0.42173 0.43677 0.84166 0.0
C483 C 0.38747 0.45238 0.72365 0.0
C484 C 0.43709 0.48057 0.77325 0.0
C485 C 0.42153 0.44507 0.6673 0.0
O486 O 0.41778 0.45415 0.66845 0.0
O487 O 0.42364 0.44038 0.70522 0.0
O488 O 0.39603 0.46323 0.70018 0.0
O489 O 0.39257 0.44677 0.75096 0.0
O490 O 0.54033 0.97364 0.78095 0.0
Cd491 Cd 0.56125 0.97982 0.77736 0.0
Cd492 Cd 0.54919 0.95425 0.73291 0.0
O493 O 0.53093 0.95149 0.76192 0.0
O494 O 0.57009 0.99579 0.82214 0.0
O495 O 0.56979 0.97601 0.8339 0.0
C496 C 0.57291 0.9882 0.84893 0.0
C497 C 0.55483 0.93666 0.72771 0.0
C498 C 0.52966 0.96164 0.77627 0.0
C499 C 0.56635 0.98021 0.67541 0.0
O500 O 0.55692 0.96751 0.67686 0.0
O501 O 0.57097 0.98712 0.71307 0.0
O502 O 0.54496 0.93633 0.70312 0.0
O503 O 0.56084 0.94647 0.75825 0.0
H504 H 0.1066 0.27007 0.10095 0.0
H505 H 0.1314 0.31415 0.12791 0.0
H506 H 0.12722 0.26777 0.11111 0.0
H507 H 0.15189 0.31197 0.13628 0.0
H508 H 0.18629 0.30538 0.17689 0.0
H509 H 0.16368 0.30376 0.18273 0.0
H510 H 0.1483 0.27354 0.07098 0.0
H511 H 0.1708 0.27472 0.06677 0.0
C512 C 0.11641 0.27925 0.10927 0.0
C513 C 0.11733 0.2923 0.1135 0.0
C514 C 0.12825 0.27795 0.11482 0.0
C515 C 0.14127 0.28968 0.12457 0.0
C516 C 0.14205 0.30264 0.12977 0.0
C517 C 0.13025 0.30392 0.12455 0.0
C518 C 0.178 0.2982 0.15415 0.0
C519 C 0.18037 0.29029 0.12102 0.0
C520 C 0.16504 0.29734 0.15724 0.0
C521 C 0.1542 0.28875 0.12663 0.0
C522 C 0.15634 0.28022 0.09532 0.0
C523 C 0.16927 0.28092 0.09276 0.0
H524 H 0.69151 0.81789 0.12492 0.0
H525 H 0.7361 0.83734 0.11038 0.0
H526 H 0.69348 0.84048 0.13285 0.0
H527 H 0.73817 0.86015 0.12037 0.0
H528 H 0.73291 0.89748 0.07384 0.0
H529 H 0.73371 0.87599 0.0789 0.0
H530 H 0.70029 0.86 0.17985 0.0
H531 H 0.69907 0.8812 0.17283 0.0
C532 C 0.7018 0.827 0.12427 0.0
C533 C 0.71364 0.82577 0.11677 0.0
C534 C 0.70295 0.84002 0.12925 0.0
C535 C 0.716 0.85224 0.12745 0.0
C536 C 0.72793 0.85101 0.12133 0.0
C537 C 0.72675 0.83792 0.11588 0.0
C538 C 0.7259 0.88945 0.09766 0.0
C539 C 0.7158 0.89094 0.12245 0.0
C540 C 0.72638 0.87712 0.10074 0.0
C541 C 0.7169 0.86609 0.12921 0.0
C542 C 0.70748 0.86806 0.15649 0.0
C543 C 0.70684 0.88027 0.15278 0.0
H544 H 0.10605 0.83582 0.10239 0.0
H545 H 0.131 0.81662 0.12788 0.0
H546 H 0.12667 0.85875 0.11215 0.0
H547 H 0.15149 0.83927 0.13562 0.0
H548 H 0.186 0.88024 0.17601 0.0
H549 H 0.16348 0.85912 0.18176 0.0
H550 H 0.14756 0.87429 0.07265 0.0
H551 H 0.16993 0.89572 0.06878 0.0
C552 C 0.1159 0.83648 0.11019 0.0
C553 C 0.11685 0.82437 0.11432 0.0
C554 C 0.12775 0.84963 0.11554 0.0
C555 C 0.14081 0.85094 0.12482 0.0
C556 C 0.14162 0.83877 0.1296 0.0
C557 C 0.12983 0.8257 0.12472 0.0
C558 C 0.1776 0.87915 0.15385 0.0
C559 C 0.17977 0.88957 0.12162 0.0
C560 C 0.16471 0.86699 0.15684 0.0
C561 C 0.15373 0.86481 0.12695 0.0
C562 C 0.1557 0.87559 0.09647 0.0
C563 C 0.16856 0.88789 0.09408 0.0
H564 H 0.30556 0.12208 0.85635 0.0
H565 H 0.27629 0.10734 0.97068 0.0
H566 H 0.30384 0.14303 0.85144 0.0
H567 H 0.275 0.12862 0.96724 0.0
H568 H 0.27115 0.16676 0.93825 0.0
H569 H 0.26871 0.14378 0.92778 0.0
H570 H 0.31266 0.16314 0.89803 0.0
H571 H 0.31498 0.18584 0.90683 0.0
C572 C 0.29867 0.12328 0.88024 0.0
C573 C 0.2912 0.11314 0.91427 0.0
C574 C 0.29774 0.13534 0.87765 0.0
C575 C 0.28951 0.1377 0.9096 0.0
C576 C 0.28139 0.12716 0.94188 0.0
C577 C 0.28216 0.11496 0.944 0.0
C578 C 0.28023 0.16607 0.92883 0.0
C579 C 0.29327 0.17817 0.9235 0.0
C580 C 0.27885 0.1529 0.92312 0.0
C581 C 0.29047 0.15156 0.91199 0.0
C582 C 0.3034 0.1637 0.90565 0.0
C583 C 0.30476 0.17679 0.91112 0.0
H584 H 0.83895 0.1055 0.93138 0.0
H585 H 0.8196 0.13052 0.91035 0.0
H586 H 0.8618 0.12608 0.91959 0.0
H587 H 0.8422 0.15096 0.90041 0.0
H588 H 0.88282 0.18531 0.85631 0.0
H589 H 0.86169 0.16278 0.85185 0.0
H590 H 0.8776 0.14706 0.95914 0.0
H591 H 0.89903 0.16947 0.96191 0.0
C592 C 0.83955 0.11535 0.92403 0.0
C593 C 0.82742 0.11633 0.92191 0.0
C594 C 0.85266 0.12717 0.91754 0.0
C595 C 0.85391 0.14023 0.90896 0.0
C596 C 0.84172 0.14108 0.90594 0.0
C597 C 0.82868 0.12931 0.91208 0.0
C598 C 0.8819 0.17697 0.87836 0.0
C599 C 0.89252 0.17922 0.90983 0.0
C600 C 0.86973 0.16406 0.87607 0.0
C601 C 0.86776 0.15314 0.90585 0.0
C602 C 0.87874 0.15516 0.93546 0.0
C603 C 0.89103 0.16805 0.9372 0.0
H604 H 0.83685 0.73454 0.93025 0.0
H605 H 0.81868 0.69093 0.89705 0.0
H606 H 0.86006 0.73731 0.92367 0.0
H607 H 0.84155 0.69351 0.89258 0.0
H608 H 0.88329 0.70089 0.85961 0.0
H609 H 0.86215 0.70212 0.85079 0.0
H610 H 0.87521 0.73175 0.96417 0.0
H611 H 0.89674 0.73105 0.971 0.0
C612 C 0.8378 0.72557 0.92139 0.0
C613 C 0.82588 0.71252 0.9142 0.0
C614 C 0.8511 0.72713 0.9179 0.0
C615 C 0.85277 0.71565 0.9075 0.0
C616 C 0.8408 0.70269 0.89956 0.0
C617 C 0.82759 0.70117 0.90254 0.0
C618 C 0.88174 0.70784 0.88208 0.0
C619 C 0.89159 0.71576 0.91629 0.0
C620 C 0.86956 0.70848 0.87733 0.0
C621 C 0.86675 0.7168 0.90746 0.0
C622 C 0.87699 0.72529 0.94009 0.0
C623 C 0.88934 0.72486 0.94419 0.0
H624 H 0.8364 0.60718 0.40063 0.0
H625 H 0.85292 0.63896 0.50701 0.0
H626 H 0.81406 0.60633 0.40538 0.0
H627 H 0.83046 0.63767 0.51357 0.0
H628 H 0.79814 0.64795 0.45904 0.0
H629 H 0.8185 0.64557 0.46714 0.0
H630 H 0.79331 0.60122 0.44588 0.0
H631 H 0.7728 0.60372 0.43585 0.0
C632 C 0.83513 0.61371 0.42594 0.0
C633 C 0.84646 0.62329 0.45295 0.0
C634 C 0.8223 0.61319 0.42884 0.0
C635 C 0.82048 0.62211 0.45928 0.0
C636 C 0.83157 0.63094 0.48871 0.0
C637 C 0.84443 0.63162 0.48523 0.0
C638 C 0.79685 0.63764 0.45648 0.0
C639 C 0.7838 0.62604 0.44654 0.0
C640 C 0.80857 0.63625 0.46157 0.0
C641 C 0.80762 0.62318 0.45739 0.0
C642 C 0.79448 0.61147 0.44877 0.0
C643 C 0.7827 0.61289 0.4433 0.0
H644 H 0.40362 0.17153 0.42337 0.0
H645 H 0.36032 0.15243 0.46244 0.0
H646 H 0.40606 0.19452 0.43374 0.0
H647 H 0.36261 0.17512 0.47114 0.0
H648 H 0.3701 0.21628 0.51339 0.0
H649 H 0.37199 0.19541 0.51683 0.0
H650 H 0.39915 0.20949 0.39655 0.0
H651 H 0.39772 0.23072 0.39455 0.0
C652 C 0.39465 0.17222 0.43437 0.0
C653 C 0.38177 0.16011 0.44201 0.0
C654 C 0.39603 0.18539 0.44006 0.0
C655 C 0.38455 0.18673 0.45344 0.0
C656 C 0.37177 0.17458 0.46181 0.0
C657 C 0.37042 0.16149 0.45639 0.0
C658 C 0.37667 0.21503 0.48819 0.0
C659 C 0.38363 0.22506 0.45337 0.0
C660 C 0.37768 0.20301 0.48992 0.0
C661 C 0.38547 0.20057 0.45632 0.0
C662 C 0.3931 0.21102 0.42315 0.0
C663 C 0.39226 0.22318 0.42187 0.0
H664 H 0.83548 0.23264 0.43571 0.0
H665 H 0.85509 0.20813 0.46265 0.0
H666 H 0.81265 0.21191 0.44576 0.0
H667 H 0.83248 0.18752 0.47114 0.0
H668 H 0.79146 0.15322 0.51369 0.0
H669 H 0.81245 0.17585 0.51842 0.0
H670 H 0.79758 0.19064 0.40501 0.0
H671 H 0.77628 0.16808 0.40159 0.0
C672 C 0.83494 0.22287 0.44407 0.0
C673 C 0.84714 0.22207 0.44825 0.0
C674 C 0.82185 0.21097 0.44954 0.0
C675 C 0.82068 0.198 0.45928 0.0
C676 C 0.83292 0.19733 0.46454 0.0
C677 C 0.84594 0.20918 0.45928 0.0
C678 C 0.79257 0.16137 0.49025 0.0
C679 C 0.78228 0.15881 0.45689 0.0
C680 C 0.80466 0.17434 0.49275 0.0
C681 C 0.80687 0.18502 0.46148 0.0
C682 C 0.79622 0.1827 0.42984 0.0
C683 C 0.78401 0.16974 0.42774 0.0
H684 H 0.98285 0.52044 0.23828 0.0
H685 H 0.93838 0.50141 0.25549 0.0
H686 H 0.98065 0.49773 0.23175 0.0
H687 H 0.93607 0.47845 0.24689 0.0
H688 H 0.94124 0.44123 0.29556 0.0
H689 H 0.94055 0.46276 0.28904 0.0
H690 H 0.97349 0.47787 0.18637 0.0
H691 H 0.97461 0.45667 0.19492 0.0
C692 C 0.97254 0.51139 0.23979 0.0
C693 C 0.9608 0.51278 0.24765 0.0
C694 C 0.97125 0.49829 0.23563 0.0
C695 C 0.95816 0.48615 0.2386 0.0
C696 C 0.94634 0.48754 0.24504 0.0
C697 C 0.94765 0.50071 0.24969 0.0
C698 C 0.94816 0.44908 0.27106 0.0
C699 C 0.95811 0.44735 0.24624 0.0
C700 C 0.94775 0.46143 0.26714 0.0
C701 C 0.95714 0.47223 0.23776 0.0
C702 C 0.96638 0.47 0.21043 0.0
C703 C 0.96696 0.45779 0.21501 0.0
H704 H 0.56881 0.50214 0.26193 0.0
H705 H 0.5436 0.52104 0.23599 0.0
H706 H 0.54835 0.47913 0.25127 0.0
H707 H 0.52328 0.49831 0.22725 0.0
H708 H 0.48899 0.45734 0.18702 0.0
H709 H 0.51152 0.47842 0.18085 0.0
H710 H 0.5274 0.46355 0.29099 0.0
H711 H 0.50501 0.44214 0.29536 0.0
C712 C 0.55895 0.5014 0.25373 0.0
C713 C 0.55787 0.51345 0.24993 0.0
C714 C 0.54719 0.48821 0.24789 0.0
C715 C 0.53411 0.4868 0.23833 0.0
C716 C 0.53318 0.49891 0.23357 0.0
C717 C 0.54488 0.51202 0.23902 0.0
C718 C 0.49738 0.45847 0.2093 0.0
C719 C 0.49519 0.44816 0.24203 0.0
C720 C 0.51029 0.47061 0.20604 0.0
C721 C 0.52125 0.47288 0.23615 0.0
C722 C 0.51927 0.46218 0.26702 0.0
C723 C 0.5064 0.4499 0.26969 0.0
H724 H 0.54382 0.02381 0.23587 0.0
H725 H 0.56875 0.06811 0.25831 0.0
H726 H 0.52323 0.02585 0.22873 0.0
H727 H 0.54803 0.07027 0.24925 0.0
H728 H 0.50503 0.06406 0.29581 0.0
H729 H 0.52739 0.065 0.29059 0.0
H730 H 0.51087 0.03348 0.18301 0.0
H731 H 0.48839 0.0321 0.19 0.0
C732 C 0.54497 0.03406 0.23846 0.0
C733 C 0.55797 0.04578 0.24791 0.0
C734 C 0.53311 0.03526 0.23395 0.0
C735 C 0.53389 0.04825 0.23824 0.0
C736 C 0.54698 0.06007 0.24634 0.0
C737 C 0.55888 0.05885 0.25125 0.0
C738 C 0.50626 0.0575 0.27055 0.0
C739 C 0.4949 0.04787 0.24379 0.0
C740 C 0.51912 0.05807 0.26738 0.0
C741 C 0.52093 0.04914 0.23692 0.0
C742 C 0.50978 0.04022 0.20786 0.0
C743 C 0.4969 0.03949 0.21158 0.0
H744 H 0.45956 0.97371 0.83712 0.0
H745 H 0.44412 0.94034 0.7365 0.0
H746 H 0.48077 0.97259 0.84566 0.0
H747 H 0.46566 0.93966 0.743 0.0
H748 H 0.5043 0.93747 0.77664 0.0
H749 H 0.48134 0.93516 0.78508 0.0
H750 H 0.50064 0.97974 0.8005 0.0
H751 H 0.52335 0.98192 0.79417 0.0
C752 C 0.46068 0.96607 0.81701 0.0
C753 C 0.45024 0.95721 0.78581 0.0
C754 C 0.4729 0.96549 0.82159 0.0
C755 C 0.47513 0.95624 0.79428 0.0
C756 C 0.46433 0.94686 0.76489 0.0
C757 C 0.45198 0.94727 0.76098 0.0
C758 C 0.5036 0.94673 0.78247 0.0
C759 C 0.51568 0.95988 0.78466 0.0
C760 C 0.49043 0.94543 0.78702 0.0
C761 C 0.48905 0.95725 0.7935 0.0
C762 C 0.5012 0.97033 0.79659 0.0
C763 C 0.5143 0.97161 0.79255 0.0
H764 H 0.02462 0.54196 0.79705 0.0
H765 H 0.06892 0.56694 0.77472 0.0
H766 H 0.0267 0.52139 0.8043 0.0
H767 H 0.07113 0.54625 0.78392 0.0
H768 H 0.06501 0.50329 0.73743 0.0
H769 H 0.06592 0.52564 0.74268 0.0
H770 H 0.03431 0.50904 0.84999 0.0
H771 H 0.03296 0.48657 0.84294 0.0
C772 C 0.03488 0.54312 0.79452 0.0
C773 C 0.04659 0.55613 0.78505 0.0
C774 C 0.0361 0.53128 0.79909 0.0
C775 C 0.0491 0.53209 0.79488 0.0
C776 C 0.06092 0.54518 0.78678 0.0
C777 C 0.05967 0.55707 0.78179 0.0
C778 C 0.05842 0.50451 0.76265 0.0
C779 C 0.04877 0.49313 0.78929 0.0
C780 C 0.05897 0.51735 0.76583 0.0
C781 C 0.05001 0.51914 0.79622 0.0
C782 C 0.04107 0.50797 0.8252 0.0
C783 C 0.04036 0.4951 0.82144 0.0
H784 H 0.44344 0.50498 0.73 0.0
H785 H 0.45728 0.48784 0.83883 0.0
H786 H 0.46497 0.52719 0.73705 0.0
H787 H 0.47842 0.5102 0.84802 0.0
H788 H 0.52174 0.54246 0.80055 0.0
H789 H 0.49884 0.52224 0.80562 0.0
H790 H 0.48039 0.54777 0.77745 0.0
H791 H 0.50361 0.56813 0.7702 0.0
C792 C 0.45092 0.5061 0.75639 0.0
C793 C 0.44879 0.49464 0.78341 0.0
C794 C 0.46327 0.51887 0.76061 0.0
C795 C 0.47363 0.52049 0.79253 0.0
C796 C 0.47092 0.50926 0.82199 0.0
C797 C 0.45875 0.49645 0.81706 0.0
C798 C 0.51283 0.54386 0.79583 0.0
C799 C 0.51456 0.55695 0.78477 0.0
C800 C 0.49961 0.5322 0.79917 0.0
C801 C 0.48764 0.53328 0.79223 0.0
C802 C 0.48934 0.54648 0.78245 0.0
C803 C 0.50265 0.55818 0.77857 0.0
H804 H 0.60594 0.83533 0.59099 0.0
H805 H 0.65027 0.85457 0.56942 0.0
H806 H 0.60372 0.81241 0.58238 0.0
H807 H 0.64817 0.8319 0.56278 0.0
H808 H 0.64186 0.79072 0.52482 0.0
H809 H 0.64063 0.8119 0.51746 0.0
H810 H 0.60882 0.79701 0.62409 0.0
H811 H 0.60962 0.77552 0.62965 0.0
C812 C 0.61519 0.83469 0.58421 0.0
C813 C 0.62828 0.84681 0.58098 0.0
C814 C 0.61394 0.82154 0.57956 0.0
C815 C 0.62576 0.82023 0.57187 0.0
C816 C 0.63877 0.83241 0.56769 0.0
C817 C 0.64 0.84548 0.5719 0.0
C818 C 0.63445 0.79189 0.54613 0.0
C819 C 0.62594 0.78152 0.57815 0.0
C820 C 0.6338 0.80408 0.54219 0.0
C821 C 0.62483 0.80635 0.57085 0.0
C822 C 0.61579 0.79564 0.60117 0.0
C823 C 0.61628 0.78331 0.60454 0.0
H824 H 0.15241 0.79627 0.57254 0.0
H825 H 0.171 0.77068 0.59639 0.0
H826 H 0.17522 0.8166 0.5664 0.0
H827 H 0.1941 0.79115 0.58809 0.0
H828 H 0.23143 0.83383 0.63409 0.0
H829 H 0.20983 0.81164 0.62846 0.0
H830 H 0.19522 0.82882 0.52177 0.0
H831 H 0.21647 0.85115 0.52951 0.0
C832 C 0.16139 0.79492 0.57563 0.0
C833 C 0.15983 0.78181 0.58513 0.0
C834 C 0.17456 0.80664 0.57167 0.0
C835 C 0.18662 0.80561 0.57643 0.0
C836 C 0.18508 0.79241 0.58477 0.0
C837 C 0.17183 0.78064 0.58927 0.0
C838 C 0.22367 0.83276 0.60893 0.0
C839 C 0.22554 0.84426 0.5827 0.0
C840 C 0.21128 0.82001 0.60553 0.0
C841 C 0.20059 0.81844 0.57526 0.0
C842 C 0.20299 0.82972 0.54656 0.0
C843 C 0.21523 0.84251 0.55066 0.0
H844 H 0.20954 0.35724 0.5674 0.0
H845 H 0.23487 0.40132 0.59346 0.0
H846 H 0.18922 0.3597 0.55956 0.0
H847 H 0.21441 0.40392 0.58367 0.0
H848 H 0.17125 0.39778 0.62888 0.0
H849 H 0.19358 0.39863 0.62395 0.0
H850 H 0.17735 0.36786 0.51392 0.0
H851 H 0.1549 0.36655 0.52066 0.0
C852 C 0.21084 0.36754 0.57063 0.0
C853 C 0.22387 0.37907 0.58132 0.0
C854 C 0.19914 0.36898 0.5657 0.0
C855 C 0.2001 0.38203 0.57077 0.0
C856 C 0.21323 0.39368 0.58009 0.0
C857 C 0.22498 0.39221 0.58541 0.0
C858 C 0.17255 0.39138 0.60314 0.0
C859 C 0.16127 0.38195 0.57564 0.0
C860 C 0.18538 0.39189 0.60014 0.0
C861 C 0.18725 0.38312 0.5691 0.0
C862 C 0.17621 0.37446 0.53923 0.0
C863 C 0.16334 0.37378 0.54281 0.0
H864 H 0.03267 0.26532 0.10753 0.0
H865 H 0.04391 0.25243 0.98026 0.0
H866 H 0.0081 0.25166 0.08569 0.0
H867 H 0.01943 0.23905 0.95827 0.0
H868 H 0.97683 0.23631 0.91456 0.0
H869 H 1.00134 0.24684 0.93692 0.0
H870 H 0.98928 0.22565 0.06961 0.0
H871 H 0.96486 0.21492 0.04719 0.0
C872 C 0.02989 0.25944 0.07528 0.0
C873 C 0.04023 0.25995 0.0457 0.0
C874 C 0.01585 0.25163 0.0628 0.0
C875 C 0.01191 0.24438 0.02015 0.0
C876 C 0.0222 0.24462 0.99115 0.0
C877 C 0.0362 0.25221 1.00399 0.0
C878 C 0.97943 0.23373 0.94816 0.0
C879 C 0.96891 0.22477 0.97904 0.0
C880 C 0.99343 0.23974 0.96093 0.0
C881 C 0.99716 0.2371 1.00511 0.0
C882 C 0.98667 0.22792 0.03551 0.0
C883 C 0.9727 0.22172 0.02245 0.0
H884 H 0.79112 0.7504 0.04939 0.0
H885 H 0.77035 0.74221 0.91584 0.0
H886 H 0.78071 0.76432 0.07253 0.0
H887 H 0.76013 0.7564 0.93896 0.0
H888 H 0.75458 0.79315 0.98477 0.0
H889 H 0.76795 0.78208 0.96217 0.0
H890 H 0.75485 0.75744 0.08806 0.0
H891 H 0.74121 0.76833 0.1105 0.0
C892 C 0.78454 0.75177 0.02459 0.0
C893 C 0.78155 0.74518 0.98071 0.0
C894 C 0.77852 0.75967 0.03807 0.0
C895 C 0.76958 0.76137 1.00766 0.0
C896 C 0.76705 0.75531 0.963 0.0
C897 C 0.77289 0.74718 0.94979 0.0
C898 C 0.7547 0.78552 1.00805 0.0
C899 C 0.74682 0.78161 0.04948 0.0
C900 C 0.76228 0.77913 0.99486 0.0
C901 C 0.76237 0.76888 0.02322 0.0
C902 C 0.755 0.76538 0.06565 0.0
C903 C 0.7472 0.7716 0.07848 0.0
H904 H 0.23768 0.97383 0.11424 0.0
H905 H 0.21403 0.96186 0.98593 0.0
H906 H 0.24823 0.99828 0.09157 0.0
H907 H 0.22472 0.98624 0.96322 0.0
H908 H 0.26394 0.02892 0.91858 0.0
H909 H 0.25 0.0045 0.94156 0.0
H910 H 0.24132 0.01689 0.07444 0.0
H911 H 0.25505 0.04124 0.05148 0.0
C912 C 0.23459 0.97641 0.08158 0.0
C913 C 0.22503 0.9659 0.05193 0.0
C914 C 0.24061 0.9904 0.06863 0.0
C915 C 0.23734 0.99412 0.02549 0.0
C916 C 0.22751 0.98364 0.99646 0.0
C917 C 0.22133 0.96969 1.0097 0.0
C918 C 0.25886 0.02642 0.95233 0.0
C919 C 0.26061 0.03702 0.98316 0.0
C920 C 0.25087 0.01245 0.96547 0.0
C921 C 0.24467 0.00883 1.00992 0.0
C922 C 0.24609 0.0194 0.04016 0.0
C923 C 0.25388 0.03334 0.02679 0.0
H924 H 0.97544 0.74186 0.92345 0.0
H925 H 0.96433 0.7532 0.05417 0.0
H926 H 1.00004 0.75543 0.94492 0.0
H927 H 0.98885 0.76652 0.07573 0.0
H928 H 0.03167 0.76901 0.11489 0.0
H929 H 0.00711 0.75879 0.09382 0.0
H930 H 0.0188 0.78119 0.96325 0.0
H931 H 0.04328 0.79158 0.9844 0.0
C932 C 0.97825 0.74738 0.95641 0.0
C933 C 0.96794 0.74646 0.98704 0.0
C934 C 0.99231 0.75516 0.96867 0.0
C935 C 0.99631 0.76195 1.01211 0.0
C936 C 0.98604 0.7613 0.04221 0.0
C937 C 0.97201 0.75375 0.02963 0.0
C938 C 0.02899 0.77194 0.0821 0.0
C939 C 0.03942 0.7811 0.05137 0.0
C940 C 0.01494 0.76611 0.07006 0.0
C941 C 0.01109 0.76914 0.02675 0.0
C942 C 0.0215 0.77859 0.99666 0.0
C943 C 0.0355 0.78461 1.00901 0.0
H944 H 0.27869 0.2462 0.95603 0.0
H945 H 0.24561 0.20738 1.01015 0.0
H946 H 0.26601 0.25787 0.98051 0.0
H947 H 0.23285 0.21906 0.03389 0.0
H948 H 0.21036 0.24575 0.02067 0.0
H949 H 0.22155 0.23261 0.99595 0.0
H950 H 0.25949 0.26262 0.06396 0.0
H951 H 0.24828 0.27565 0.0894 0.0
C952 C 0.26858 0.2401 0.97219 0.0
C953 C 0.26315 0.22587 0.98118 0.0
C954 C 0.26141 0.24681 0.98666 0.0
C955 C 0.24855 0.23938 1.00961 0.0
C956 C 0.24276 0.22502 0.01635 0.0
C957 C 0.25005 0.21835 1.00267 0.0
C958 C 0.22101 0.2494 0.03106 0.0
C959 C 0.22844 0.26173 0.05705 0.0
C960 C 0.22741 0.2419 0.01683 0.0
C961 C 0.24142 0.24672 0.02752 0.0
C962 C 0.24872 0.25879 0.05474 0.0
C963 C 0.24225 0.26615 0.06972 0.0
H964 H 0.7601 0.03343 0.95393 0.0
H965 H 0.79878 0.03952 1.01077 0.0
H966 H 0.74851 0.00909 0.97823 0.0
H967 H 0.78719 0.01511 0.03451 0.0
H968 H 0.76158 0.96619 0.02308 0.0
H969 H 0.77446 0.99049 0.99819 0.0
H970 H 0.74302 0.99748 0.05988 0.0
H971 H 0.7302 0.97323 0.08532 0.0
C972 C 0.76619 0.02951 0.9707 0.0
C973 C 0.78036 0.0384 0.98044 0.0
C974 C 0.75952 0.01562 0.98508 0.0
C975 C 0.76692 0.01028 1.00879 0.0
C976 C 0.78124 0.01897 0.01635 0.0
C977 C 0.78786 0.03292 1.00267 0.0
C978 C 0.75753 0.97297 0.03201 0.0
C979 C 0.74488 0.9678 0.05623 0.0
C980 C 0.7649 0.98686 0.01769 0.0
C981 C 0.75963 0.99579 0.02657 0.0
C982 C 0.7472 0.99074 0.052 0.0
C983 C 0.73995 0.97691 0.06701 0.0
H984 H 0.6339 0.54203 0.34295 0.0
H985 H 0.64093 0.58068 0.28271 0.0
H986 H 0.65822 0.55336 0.3677 0.0
H987 H 0.66518 0.59201 0.30807 0.0
H988 H 0.70074 0.61039 0.41582 0.0
H989 H 0.67647 0.59763 0.39066 0.0
H990 H 0.68302 0.56564 0.33143 0.0
H991 H 0.70737 0.57846 0.35599 0.0
C992 C 0.64068 0.55288 0.33436 0.0
C993 C 0.6355 0.56046 0.31083 0.0
C994 C 0.65459 0.55936 0.34862 0.0
C995 C 0.6635 0.57359 0.34038 0.0
C996 C 0.65846 0.58106 0.31545 0.0
C997 C 0.64462 0.57453 0.30048 0.0
C998 C 0.69695 0.60051 0.39821 0.0
C999 C 0.70597 0.59543 0.38788 0.0
C1000 C 0.68311 0.5933 0.38334 0.0
C1001 C 0.67794 0.58075 0.35856 0.0
C1002 C 0.68675 0.5753 0.3504 0.0
C1003 C 0.70066 0.58263 0.36455 0.0
H1004 H 0.43775 0.07484 0.25066 0.0
H1005 H 0.45964 0.08508 0.38241 0.0
H1006 H 0.42726 0.0889 0.27223 0.0
H1007 H 0.44897 0.09888 0.40408 0.0
H1008 H 0.40944 0.10295 0.44194 0.0
H1009 H 0.42314 0.09199 0.4211 0.0
H1010 H 0.43503 0.11481 0.29138 0.0
H1011 H 0.42161 0.12594 0.31232 0.0
C1012 C 0.44045 0.08021 0.2839 0.0
C1013 C 0.44954 0.07886 0.31474 0.0
C1014 C 0.43447 0.08827 0.29622 0.0
C1015 C 0.43727 0.09491 0.33994 0.0
C1016 C 0.44657 0.09379 0.37033 0.0
C1017 C 0.45274 0.08596 0.3577 0.0
C1018 C 0.41519 0.10581 0.4094 0.0
C1019 C 0.41444 0.11532 0.37885 0.0
C1020 C 0.42302 0.09955 0.39749 0.0
C1021 C 0.43005 0.10249 0.35446 0.0
C1022 C 0.42962 0.11227 0.32455 0.0
C1023 C 0.42201 0.11871 0.33679 0.0
H1024 H 0.91467 0.30475 0.41345 0.0
H1025 H 0.87593 0.29861 0.35697 0.0
H1026 H 0.92619 0.32913 0.38948 0.0
H1027 H 0.88746 0.32304 0.33349 0.0
H1028 H 0.91258 0.37183 0.34608 0.0
H1029 H 0.89989 0.34745 0.37009 0.0
H1030 H 0.93184 0.34115 0.30898 0.0
H1031 H 0.94449 0.36549 0.28448 0.0
C1032 C 0.90855 0.30866 0.39674 0.0
C1033 C 0.89439 0.29975 0.38711 0.0
C1034 C 0.91519 0.32257 0.38256 0.0
C1035 C 0.90775 0.32791 0.35912 0.0
C1036 C 0.89344 0.31919 0.35147 0.0
C1037 C 0.88685 0.30522 0.36498 0.0
C1038 C 0.91679 0.36519 0.3371 0.0
C1039 C 0.92953 0.37058 0.31332 0.0
C1040 C 0.90953 0.35125 0.35092 0.0
C1041 C 0.91497 0.34247 0.34192 0.0
C1042 C 0.92751 0.34775 0.31695 0.0
C1043 C 0.93466 0.36163 0.30247 0.0
H1044 H 0.69778 0.10295 0.45091 0.0
H1045 H 0.71072 0.12317 0.31658 0.0
H1046 H 0.67344 0.09273 0.42706 0.0
H1047 H 0.68645 0.11278 0.29275 0.0
H1048 H 0.64306 0.07344 0.25442 0.0
H1049 H 0.66751 0.08718 0.27736 0.0
H1050 H 0.6556 0.10018 0.40271 0.0
H1051 H 0.63122 0.08666 0.37967 0.0
C1052 C 0.69544 0.10537 0.41663 0.0
C1053 C 0.70619 0.11387 0.38569 0.0
C1054 C 0.68152 0.09954 0.403 0.0
C1055 C 0.67809 0.10191 0.35793 0.0
C1056 C 0.68881 0.1107 0.32752 0.0
C1057 C 0.7027 0.11671 0.34138 0.0
C1058 C 0.64568 0.07943 0.28643 0.0
C1059 C 0.6352 0.07895 0.31517 0.0
C1060 C 0.65966 0.0873 0.29954 0.0
C1061 C 0.66341 0.09466 0.34198 0.0
C1062 C 0.65298 0.0945 0.37003 0.0
C1063 C 0.63904 0.08684 0.35658 0.0
H1064 H 0.90408 0.59675 0.44523 0.0
H1065 H 0.88194 0.58644 0.31394 0.0
H1066 H 0.91485 0.583 0.42271 0.0
H1067 H 0.89291 0.57297 0.29133 0.0
H1068 H 0.93285 0.56983 0.25176 0.0
H1069 H 0.919 0.58052 0.27391 0.0
H1070 H 0.90724 0.55706 0.40235 0.0
H1071 H 0.92081 0.54618 0.38006 0.0
C1072 C 0.90138 0.59142 0.4119 0.0
C1073 C 0.89215 0.59267 0.38145 0.0
C1074 C 0.90753 0.58355 0.39904 0.0
C1075 C 0.90475 0.57701 0.35516 0.0
C1076 C 0.89529 0.578 0.32518 0.0
C1077 C 0.88896 0.58563 0.33836 0.0
C1078 C 0.92712 0.56678 0.28431 0.0
C1079 C 0.92791 0.55715 0.31407 0.0
C1080 C 0.91919 0.57288 0.29697 0.0
C1081 C 0.91214 0.56966 0.33998 0.0
C1082 C 0.91267 0.55979 0.36918 0.0
C1083 C 0.92036 0.5535 0.35618 0.0
H1084 H 0.46041 0.37611 0.3799 0.0
H1085 H 0.43642 0.36415 0.2523 0.0
H1086 H 0.44954 0.35175 0.40304 0.0
H1087 H 0.42568 0.33971 0.27541 0.0
H1088 H 0.41851 0.29665 0.31546 0.0
H1089 H 0.43226 0.32095 0.29203 0.0
H1090 H 0.42443 0.33364 0.42575 0.0
H1091 H 0.41048 0.30926 0.44923 0.0
C1092 C 0.45299 0.36828 0.35638 0.0
C1093 C 0.44926 0.37207 0.31422 0.0
C1094 C 0.44671 0.35434 0.36987 0.0
C1095 C 0.43673 0.34386 0.34117 0.0
C1096 C 0.43341 0.34758 0.29811 0.0
C1097 C 0.43954 0.36156 0.28491 0.0
C1098 C 0.41986 0.3046 0.34021 0.0
C1099 C 0.41337 0.30101 0.38425 0.0
C1100 C 0.42766 0.31852 0.32658 0.0
C1101 C 0.42934 0.32916 0.35693 0.0
C1102 C 0.42337 0.32563 0.40173 0.0
C1103 C 0.41537 0.31168 0.41515 0.0
H1104 H 0.30744 0.91274 0.61864 0.0
H1105 H 0.30134 0.87443 0.67885 0.0
H1106 H 0.33184 0.92444 0.64256 0.0
H1107 H 0.32579 0.88613 0.7022 0.0
H1108 H 0.37464 0.91125 0.68808 0.0
H1109 H 0.35022 0.89838 0.66453 0.0
H1110 H 0.34388 0.93054 0.72355 0.0
H1111 H 0.36826 0.94336 0.74768 0.0
C1112 C 0.31137 0.90676 0.63616 0.0
C1113 C 0.30247 0.89266 0.64684 0.0
C1114 C 0.32529 0.91349 0.6503 0.0
C1115 C 0.33065 0.90622 0.6747 0.0
C1116 C 0.32193 0.89198 0.68346 0.0
C1117 C 0.30795 0.88529 0.67003 0.0
C1118 C 0.36798 0.91547 0.69671 0.0
C1119 C 0.37337 0.92832 0.71981 0.0
C1120 C 0.35402 0.9081 0.68316 0.0
C1121 C 0.34522 0.91355 0.6917 0.0
C1122 C 0.3505 0.9262 0.71597 0.0
C1123 C 0.3644 0.93345 0.73023 0.0
H1124 H 0.07551 0.4356 0.77975 0.0
H1125 H 0.0862 0.45844 0.64982 0.0
H1126 H 0.08936 0.425 0.75672 0.0
H1127 H 0.09979 0.44766 0.62671 0.0
H1128 H 0.10341 0.4083 0.58419 0.0
H1129 H 0.09261 0.42198 0.60718 0.0
H1130 H 0.11513 0.43242 0.73749 0.0
H1131 H 0.12609 0.419 0.71444 0.0
C1132 C 0.08095 0.43849 0.74663 0.0
C1133 C 0.07976 0.44787 0.71668 0.0
C1134 C 0.08888 0.43244 0.73347 0.0
C1135 C 0.09557 0.43547 0.6898 0.0
C1136 C 0.09465 0.44507 0.66038 0.0
C1137 C 0.08694 0.4513 0.67384 0.0
C1138 C 0.10622 0.4137 0.61737 0.0
C1139 C 0.11561 0.41257 0.64742 0.0
C1140 C 0.10006 0.42153 0.63051 0.0
C1141 C 0.10299 0.42817 0.67425 0.0
C1142 C 0.11261 0.42732 0.70376 0.0
C1143 C 0.11895 0.41971 0.69033 0.0
H1144 H 0.57095 0.64205 0.78237 0.0
H1145 H 0.54892 0.62973 0.65095 0.0
H1146 H 0.58136 0.66648 0.75941 0.0
H1147 H 0.55948 0.65407 0.62796 0.0
H1148 H 0.59885 0.6971 0.58665 0.0
H1149 H 0.58506 0.67265 0.60956 0.0
H1150 H 0.5741 0.68475 0.73883 0.0
H1151 H 0.58766 0.70913 0.71585 0.0
C1152 C 0.56817 0.64455 0.74896 0.0
C1153 C 0.55911 0.63395 0.71854 0.0
C1154 C 0.57412 0.65852 0.73583 0.0
C1155 C 0.57128 0.66214 0.69176 0.0
C1156 C 0.56193 0.65156 0.66194 0.0
C1157 C 0.55581 0.63763 0.67534 0.0
C1158 C 0.59331 0.69453 0.61957 0.0
C1159 C 0.59436 0.70506 0.64938 0.0
C1160 C 0.5854 0.68055 0.63265 0.0
C1161 C 0.57859 0.67684 0.67611 0.0
C1162 C 0.57934 0.68733 0.70533 0.0
C1163 C 0.58703 0.70128 0.69194 0.0
H1164 H 0.37337 0.46392 0.68291 0.0
H1165 H 0.36745 0.4257 0.74331 0.0
H1166 H 0.34899 0.45204 0.65864 0.0
H1167 H 0.34314 0.41381 0.71845 0.0
H1168 H 0.30694 0.3946 0.61295 0.0
H1169 H 0.33131 0.4077 0.63697 0.0
H1170 H 0.32445 0.43953 0.69593 0.0
H1171 H 0.30003 0.42637 0.6725 0.0
C1172 C 0.36682 0.45303 0.69155 0.0
C1173 C 0.37233 0.44575 0.7151 0.0
C1174 C 0.35288 0.44624 0.67759 0.0
C1175 C 0.34424 0.43198 0.68615 0.0
C1176 C 0.34964 0.42478 0.71085 0.0
C1177 C 0.36351 0.43162 0.72552 0.0
C1178 C 0.31068 0.4045 0.6303 0.0
C1179 C 0.30156 0.40945 0.64082 0.0
C1180 C 0.32458 0.41192 0.6445 0.0
C1181 C 0.32971 0.42454 0.66881 0.0
C1182 C 0.32077 0.42983 0.67729 0.0
C1183 C 0.30681 0.4223 0.6638 0.0
H1184 H 0.5887 0.88049 0.71526 0.0
H1185 H 0.60018 0.90377 0.5862 0.0
H1186 H 0.57524 0.89145 0.73805 0.0
H1187 H 0.58642 0.91452 0.60884 0.0
H1188 H 0.5494 0.92039 0.65059 0.0
H1189 H 0.56025 0.90684 0.62776 0.0
H1190 H 0.58307 0.91763 0.75745 0.0
H1191 H 0.57243 0.93148 0.78014 0.0
C1192 C 0.58814 0.88775 0.69132 0.0
C1193 C 0.59551 0.89126 0.64885 0.0
C1194 C 0.58052 0.89408 0.70461 0.0
C1195 C 0.57986 0.90386 0.67532 0.0
C1196 C 0.58672 0.90696 0.63197 0.0
C1197 C 0.59459 0.90082 0.61904 0.0
C1198 C 0.55658 0.91973 0.67462 0.0
C1199 C 0.56005 0.92701 0.71725 0.0
C1200 C 0.56285 0.91205 0.66131 0.0
C1201 C 0.57253 0.91125 0.69073 0.0
C1202 C 0.57559 0.91803 0.73422 0.0
C1203 C 0.56951 0.92596 0.74718 0.0
H1204 H 0.07506 0.6412 0.77933 0.0
H1205 H 0.08685 0.62922 0.65126 0.0
H1206 H 0.08907 0.66567 0.75681 0.0
H1207 H 0.10059 0.65362 0.62861 0.0
H1208 H 0.10386 0.69654 0.58518 0.0
H1209 H 0.09327 0.67204 0.60768 0.0
H1210 H 0.11505 0.68409 0.73933 0.0
H1211 H 0.12584 0.70849 0.71676 0.0
C1212 C 0.08078 0.64379 0.74675 0.0
C1213 C 0.07986 0.63327 0.71716 0.0
C1214 C 0.0888 0.65778 0.73389 0.0
C1215 C 0.09584 0.6615 0.69083 0.0
C1216 C 0.09519 0.65102 0.66181 0.0
C1217 C 0.0874 0.63706 0.67502 0.0
C1218 C 0.10659 0.69394 0.61852 0.0
C1219 C 0.11569 0.70446 0.64912 0.0
C1220 C 0.10054 0.67994 0.63138 0.0
C1221 C 0.10329 0.67621 0.67539 0.0
C1222 C 0.11268 0.68669 0.70539 0.0
C1223 C 0.11892 0.70065 0.69222 0.0
H1224 H 0.11877 0.37008 0.77058 0.0
H1225 H 0.09008 0.33151 0.70238 0.0
H1226 H 0.11196 0.35883 0.84593 0.0
H1227 H 0.08279 0.32025 0.77872 0.0
H1228 H 0.08732 0.30144 0.91609 0.0
H1229 H 0.09136 0.31232 0.83997 0.0
H1230 H 0.09457 0.3491 0.90363 0.0
H1231 H 0.09105 0.33833 0.98053 0.0
C1232 C 0.11083 0.3592 0.77162 0.0
C1233 C 0.10503 0.35168 0.73018 0.0
C1234 C 0.10683 0.35276 0.81515 0.0
C1235 C 0.09679 0.33861 0.81875 0.0
C1236 C 0.09071 0.33112 0.77735 0.0
C1237 C 0.09483 0.33758 0.73353 0.0
C1238 C 0.08882 0.31183 0.914 0.0
C1239 C 0.08897 0.31905 0.95463 0.0
C1240 C 0.09102 0.31805 0.87007 0.0
C1241 C 0.09332 0.33163 0.86535 0.0
C1242 C 0.09308 0.33872 0.9059 0.0
C1243 C 0.091 0.33253 0.95004 0.0
H1244 H 0.66858 0.7536 0.98339 0.0
H1245 H 0.70545 0.78693 0.91949 0.0
H1246 H 0.65787 0.7464 0.90638 0.0
H1247 H 0.69463 0.78013 0.84324 0.0
H1248 H 0.67555 0.75988 0.70538 0.0
H1249 H 0.68676 0.76367 0.78174 0.0
H1250 H 0.64815 0.75421 0.84895 0.0
H1251 H 0.63695 0.74996 0.77355 0.0
C1252 C 0.67439 0.75939 0.95299 0.0
C1253 C 0.68783 0.77088 0.95777 0.0
C1254 C 0.66824 0.75531 0.90879 0.0
C1255 C 0.67534 0.76272 0.86837 0.0
C1256 C 0.6889 0.77402 0.87325 0.0
C1257 C 0.69507 0.778 0.91725 0.0
C1258 C 0.66946 0.7585 0.73653 0.0
C1259 C 0.65537 0.75466 0.73317 0.0
C1260 C 0.67589 0.76074 0.78036 0.0
C1261 C 0.66838 0.75927 0.82175 0.0
C1262 C 0.65424 0.7552 0.81815 0.0
C1263 C 0.64783 0.75287 0.7746 0.0
H1264 H 0.22222 0.92036 0.92776 0.0
H1265 H 0.25097 0.91049 0.99568 0.0
H1266 H 0.22887 0.91575 0.85236 0.0
H1267 H 0.2581 0.90636 0.91931 0.0
H1268 H 0.25359 0.88293 0.78249 0.0
H1269 H 0.24947 0.8898 0.85845 0.0
H1270 H 0.24609 0.92321 0.79422 0.0
H1271 H 0.24969 0.91592 0.71748 0.0
C1272 C 0.23014 0.91738 0.92664 0.0
C1273 C 0.236 0.91572 0.96802 0.0
C1274 C 0.23405 0.91485 0.88308 0.0
C1275 C 0.24405 0.91069 0.87939 0.0
C1276 C 0.2502 0.90935 0.92073 0.0
C1277 C 0.24618 0.91178 0.96457 0.0
C1278 C 0.25202 0.89179 0.78442 0.0
C1279 C 0.25187 0.89882 0.74369 0.0
C1280 C 0.24977 0.89582 0.82826 0.0
C1281 C 0.24743 0.90708 0.8328 0.0
C1282 C 0.24762 0.91434 0.79211 0.0
C1283 C 0.24974 0.91021 0.74805 0.0
H1284 H 0.30578 0.06985 0.09477 0.0
H1285 H 0.34315 0.10426 0.03782 0.0
H1286 H 0.31669 0.07398 0.17115 0.0
H1287 H 0.35396 0.10883 0.11489 0.0
H1288 H 0.37361 0.10871 0.25227 0.0
H1289 H 0.3633 0.10155 0.17514 0.0
H1290 H 0.32297 0.08989 0.23308 0.0
H1291 H 0.33326 0.09654 0.31067 0.0
C1292 C 0.31638 0.07829 0.09859 0.0
C1293 C 0.32359 0.08678 0.06029 0.0
C1294 C 0.3226 0.08074 0.14256 0.0
C1295 C 0.33615 0.09187 0.14963 0.0
C1296 C 0.34355 0.10007 0.11084 0.0
C1297 C 0.33737 0.09749 0.06657 0.0
C1298 C 0.36251 0.10449 0.24861 0.0
C1299 C 0.35425 0.10324 0.28762 0.0
C1300 C 0.3566 0.10047 0.20423 0.0
C1301 C 0.3423 0.09524 0.19751 0.0
C1302 C 0.33399 0.09368 0.23682 0.0
C1303 C 0.33988 0.09755 0.2814 0.0
H1304 H 0.91951 0.25069 0.31069 0.0
H1305 H 0.8843 0.25107 0.24805 0.0
H1306 H 0.92695 0.24763 0.23357 0.0
H1307 H 0.89138 0.24746 0.17157 0.0
H1308 H 0.9248 0.22341 0.10184 0.0
H1309 H 0.92006 0.23 0.17707 0.0
H1310 H 0.90758 0.2568 0.10922 0.0
H1311 H 0.91188 0.24972 0.03298 0.0
C1312 C 0.91334 0.25009 0.28053 0.0
C1313 C 0.90127 0.25104 0.28568 0.0
C1314 C 0.91757 0.24828 0.23626 0.0
C1315 C 0.90973 0.24721 0.19613 0.0
C1316 C 0.89782 0.24845 0.20136 0.0
C1317 C 0.89368 0.2504 0.24546 0.0
C1318 C 0.92113 0.23079 0.10269 0.0
C1319 C 0.91864 0.23596 0.06112 0.0
C1320 C 0.91851 0.23467 0.14615 0.0
C1321 C 0.91344 0.24396 0.14953 0.0
C1322 C 0.91129 0.24946 0.108 0.0
C1323 C 0.91383 0.24547 0.06425 0.0
H1324 H 0.74046 0.63275 0.25297 0.0
H1325 H 0.76851 0.67332 0.30992 0.0
H1326 H 0.7431 0.64288 0.1757 0.0
H1327 H 0.77177 0.68342 0.23226 0.0
H1328 H 0.76887 0.70048 0.0943 0.0
H1329 H 0.7622 0.68967 0.17093 0.0
H1330 H 0.75904 0.65208 0.11443 0.0
H1331 H 0.76501 0.66274 0.03725 0.0
C1332 C 0.74724 0.64386 0.2489 0.0
C1333 C 0.75432 0.65224 0.28751 0.0
C1334 C 0.74883 0.64966 0.20446 0.0
C1335 C 0.75774 0.66398 0.19732 0.0
C1336 C 0.76463 0.6724 0.23628 0.0
C1337 C 0.76284 0.66661 0.2809 0.0
C1338 C 0.76655 0.68983 0.0982 0.0
C1339 C 0.76751 0.68247 0.05984 0.0
C1340 C 0.76285 0.68366 0.14228 0.0
C1341 C 0.76027 0.67004 0.14936 0.0
C1342 C 0.76077 0.66252 0.11046 0.0
C1343 C 0.76424 0.66863 0.06611 0.0
H1344 H 0.9207 0.70404 0.11302 0.0
H1345 H 0.9145 0.66653 0.04583 0.0
H1346 H 0.91659 0.69289 0.18853 0.0
H1347 H 0.91091 0.65543 0.12228 0.0
H1348 H 0.88769 0.63505 0.25765 0.0
H1349 H 0.8942 0.64623 0.18207 0.0
H1350 H 0.92494 0.68435 0.24787 0.0
H1351 H 0.91793 0.67321 0.32441 0.0
C1352 C 0.91864 0.69343 0.11435 0.0
C1353 C 0.91786 0.68616 0.07313 0.0
C1354 C 0.9164 0.68705 0.15797 0.0
C1355 C 0.91343 0.67323 0.16189 0.0
C1356 C 0.91295 0.66602 0.1207 0.0
C1357 C 0.91507 0.67239 0.0768 0.0
C1358 C 0.8959 0.64582 0.25621 0.0
C1359 C 0.90223 0.65325 0.29735 0.0
C1360 C 0.89974 0.65221 0.21253 0.0
C1361 C 0.91012 0.66623 0.20848 0.0
C1362 C 0.91673 0.6736 0.24957 0.0
C1363 C 0.91278 0.66721 0.29351 0.0
H1364 H 0.29938 0.22582 0.12012 0.0
H1365 H 0.34044 0.24177 0.06176 0.0
H1366 H 0.30938 0.23307 0.19765 0.0
H1367 H 0.35046 0.2485 0.1396 0.0
H1368 H 0.36658 0.26845 0.27817 0.0
H1369 H 0.35543 0.2639 0.20211 0.0
H1370 H 0.31991 0.22702 0.25746 0.0
H1371 H 0.33091 0.23202 0.33429 0.0
C1372 C 0.31057 0.23086 0.12388 0.0
C1373 C 0.31912 0.23319 0.08474 0.0
C1374 C 0.3163 0.23494 0.16848 0.0
C1375 C 0.33075 0.24132 0.17524 0.0
C1376 C 0.33931 0.24384 0.13586 0.0
C1377 C 0.33358 0.23991 0.09113 0.0
C1378 C 0.35629 0.25948 0.27423 0.0
C1379 C 0.34964 0.25055 0.31215 0.0
C1380 C 0.34994 0.25678 0.23044 0.0
C1381 C 0.33685 0.24495 0.22315 0.0
C1382 C 0.32994 0.23631 0.26168 0.0
C1383 C 0.33624 0.23914 0.3058 0.0
H1384 H 0.76427 0.09947 0.06239 0.0
H1385 H 0.78013 0.07416 0.11969 0.0
H1386 H 0.75761 0.10267 0.1404 0.0
H1387 H 0.7729 0.07679 0.19744 0.0
H1388 H 0.7742 0.0992 0.33461 0.0
H1389 H 0.77903 0.09319 0.25758 0.0
H1390 H 0.74232 0.09238 0.20297 0.0
H1391 H 0.73797 0.09904 0.27925 0.0
C1392 C 0.76612 0.0944 0.09157 0.0
C1393 C 0.77281 0.08665 0.08487 0.0
C1394 C 0.76222 0.09615 0.13641 0.0
C1395 C 0.76472 0.09001 0.17557 0.0
C1396 C 0.77105 0.08191 0.16846 0.0
C1397 C 0.77512 0.08033 0.12375 0.0
C1398 C 0.76708 0.09753 0.30623 0.0
C1399 C 0.7558 0.09972 0.31283 0.0
C1400 C 0.76981 0.09405 0.26199 0.0
C1401 C 0.76117 0.09247 0.22361 0.0
C1402 C 0.74944 0.09389 0.23117 0.0
C1403 C 0.74686 0.09759 0.27507 0.0
H1404 H 0.63696 0.88716 0.77667 0.0
H1405 H 0.67499 0.91824 0.71138 0.0
H1406 H 0.64793 0.89373 0.85269 0.0
H1407 H 0.6859 0.92522 0.78823 0.0
H1408 H 0.70546 0.92041 0.92292 0.0
H1409 H 0.69444 0.91644 0.8471 0.0
H1410 H 0.65688 0.91072 0.91262 0.0
H1411 H 0.66784 0.91423 0.98925 0.0
C1412 C 0.64764 0.89555 0.77853 0.0
C1413 C 0.65513 0.9021 0.73771 0.0
C1414 C 0.6539 0.89941 0.8224 0.0
C1415 C 0.66783 0.91 0.82685 0.0
C1416 C 0.67522 0.91685 0.78612 0.0
C1417 C 0.66896 0.91291 0.74203 0.0
C1418 C 0.69486 0.91836 0.92134 0.0
C1419 C 0.6875 0.91755 0.96237 0.0
C1420 C 0.68857 0.91621 0.87759 0.0
C1421 C 0.67475 0.91327 0.87347 0.0
C1422 C 0.66747 0.91276 0.91445 0.0
C1423 C 0.67376 0.91482 0.95842 0.0
H1424 H 0.10489 0.7364 0.76833 0.0
H1425 H 0.09758 0.76828 0.71233 0.0
H1426 H 0.09766 0.73964 0.84525 0.0
H1427 H 0.091 0.77207 0.78979 0.0
H1428 H 0.07159 0.77093 0.92799 0.0
H1429 H 0.07486 0.76385 0.85083 0.0
H1430 H 0.1061 0.75549 0.907 0.0
H1431 H 0.10227 0.76193 0.98461 0.0
C1432 C 0.10171 0.74411 0.77252 0.0
C1433 C 0.10187 0.75214 0.73434 0.0
C1434 C 0.09767 0.74605 0.81677 0.0
C1435 C 0.09389 0.75624 0.82419 0.0
C1436 C 0.09364 0.76398 0.78553 0.0
C1437 C 0.09748 0.76187 0.74102 0.0
C1438 C 0.07904 0.76741 0.9239 0.0
C1439 C 0.08673 0.76704 0.96234 0.0
C1440 C 0.081 0.76346 0.87952 0.0
C1441 C 0.09087 0.75923 0.87225 0.0
C1442 C 0.09826 0.75848 0.91113 0.0
C1443 C 0.09613 0.76224 0.95573 0.0
H1444 H 0.23996 0.34124 0.99088 0.0
H1445 H 0.23615 0.30354 0.93362 0.0
H1446 H 0.24617 0.35201 0.91381 0.0
H1447 H 0.24302 0.31443 0.85726 0.0
H1448 H 0.23799 0.33126 0.7176 0.0
H1449 H 0.23397 0.32097 0.79518 0.0
H1450 H 0.26255 0.36126 0.85364 0.0
H1451 H 0.26598 0.37158 0.77638 0.0
C1452 C 0.24074 0.33537 0.962 0.0
C1453 C 0.23745 0.32152 0.9682 0.0
C1454 C 0.24436 0.34154 0.91774 0.0
C1455 C 0.24498 0.33407 0.87887 0.0
C1456 C 0.24229 0.32041 0.88585 0.0
C1457 C 0.23846 0.31419 0.92981 0.0
C1458 C 0.24348 0.33788 0.74702 0.0
C1459 C 0.25223 0.35223 0.74089 0.0
C1460 C 0.24125 0.33198 0.79161 0.0
C1461 C 0.24789 0.34026 0.83106 0.0
C1462 C 0.257 0.35457 0.82446 0.0
C1463 C 0.25906 0.36049 0.78003 0.0
H1464 H 0.99865 0.42224 0.66122 0.0
H1465 H 0.03723 0.45113 0.59351 0.0
H1466 H 0.98742 0.41513 0.58479 0.0
H1467 H 0.02601 0.44449 0.51805 0.0
H1468 H 0.00549 0.42347 0.38321 0.0
H1469 H 0.01634 0.42716 0.46004 0.0
H1470 H 0.9795 0.4238 0.52378 0.0
H1471 H 0.96855 0.4196 0.44771 0.0
C1472 C 0.00473 0.42707 0.63015 0.0
C1473 C 0.01883 0.43727 0.63367 0.0
C1474 C 0.99829 0.42306 0.58629 0.0
C1475 C 0.00578 0.42924 0.545 0.0
C1476 C 0.01993 0.43928 0.54874 0.0
C1477 C 0.02636 0.44319 0.59233 0.0
C1478 C 0.9997 0.42344 0.41369 0.0
C1479 C 0.98617 0.42129 0.40916 0.0
C1480 C 0.00593 0.42562 0.4578 0.0
C1481 C 0.99883 0.42583 0.49836 0.0
C1482 C 0.98523 0.42348 0.49367 0.0
C1483 C 0.97898 0.42118 0.44978 0.0
H1484 H 0.57231 0.5755 0.38703 0.0
H1485 H 0.60076 0.56356 0.44452 0.0
H1486 H 0.56871 0.58208 0.46467 0.0
H1487 H 0.59777 0.57079 0.52178 0.0
H1488 H 0.57555 0.56821 0.65987 0.0
H1489 H 0.5817 0.56372 0.58268 0.0
H1490 H 0.57786 0.59779 0.52635 0.0
H1491 H 0.57101 0.60171 0.60296 0.0
C1492 C 0.57799 0.57453 0.41617 0.0
C1493 C 0.58673 0.56892 0.40971 0.0
C1494 C 0.576 0.57838 0.46078 0.0
C1495 C 0.5829 0.57693 0.49989 0.0
C1496 C 0.59203 0.57177 0.4929 0.0
C1497 C 0.59382 0.56771 0.44847 0.0
C1498 C 0.57619 0.57482 0.63104 0.0
C1499 C 0.57269 0.58522 0.63736 0.0
C1500 C 0.57977 0.5723 0.58669 0.0
C1501 C 0.58016 0.5803 0.54784 0.0
C1502 C 0.57732 0.59116 0.55495 0.0
C1503 C 0.57351 0.5935 0.59903 0.0
H1504 H 0.42554 0.00423 0.64961 0.0
H1505 H 0.42241 0.96766 0.58469 0.0
H1506 H 0.42897 0.01508 0.57286 0.0
H1507 H 0.42636 0.97862 0.50871 0.0
H1508 H 0.42428 0.99752 0.3715 0.0
H1509 H 0.41737 0.98626 0.44792 0.0
H1510 H 0.44616 0.02507 0.51464 0.0
H1511 H 0.45258 0.03632 0.43919 0.0
C1512 C 0.42563 0.99853 0.61905 0.0
C1513 C 0.42375 0.9851 0.62344 0.0
C1514 C 0.42765 0.00475 0.57499 0.0
C1515 C 0.42799 0.99776 0.53432 0.0
C1516 C 0.42592 0.98426 0.53888 0.0
C1517 C 0.42378 0.97801 0.58273 0.0
C1518 C 0.42901 0.00364 0.40256 0.0
C1519 C 0.439 0.01781 0.39903 0.0
C1520 C 0.42513 0.99718 0.44642 0.0
C1521 C 0.43122 0.00473 0.48771 0.0
C1522 C 0.44103 0.01894 0.48396 0.0
C1523 C 0.44481 0.02539 0.44037 0.0
H1524 H 0.58745 0.00672 0.65572 0.0
H1525 H 0.55656 0.96871 0.58984 0.0
H1526 H 0.59465 0.01765 0.57897 0.0
H1527 H 0.56335 0.97969 0.51391 0.0
H1528 H 0.58385 0.99955 0.37774 0.0
H1529 H 0.58046 0.98867 0.45445 0.0
H1530 H 0.58601 0.02621 0.51967 0.0
H1531 H 0.58987 0.03715 0.44375 0.0
C1532 C 0.58221 1.00069 0.62496 0.0
C1533 C 0.57138 0.98686 0.62909 0.0
C1534 C 0.58628 0.00697 0.58092 0.0
C1535 C 0.57955 0.99958 0.54005 0.0
C1536 C 0.56894 0.98566 0.54432 0.0
C1537 C 0.56496 0.97938 0.58814 0.0
C1538 C 0.58446 0.00549 0.40852 0.0
C1539 C 0.58707 0.01919 0.40445 0.0
C1540 C 0.58246 0.99925 0.45254 0.0
C1541 C 0.58291 0.00653 0.49345 0.0
C1542 C 0.58581 0.02032 0.48923 0.0
C1543 C 0.58791 0.02658 0.44543 0.0
H1544 H 0.00723 0.58487 0.37712 0.0
H1545 H 0.96955 0.55338 0.443 0.0
H1546 H 0.01809 0.5923 0.45387 0.0
H1547 H 0.98048 0.56041 0.51896 0.0
H1548 H 0.99999 0.58125 0.65508 0.0
H1549 H 0.98908 0.57758 0.57831 0.0
H1550 H 0.027 0.58409 0.51332 0.0
H1551 H 0.03797 0.58823 0.58927 0.0
C1552 C 1.00127 0.57954 0.40788 0.0
C1553 C 0.98755 0.56849 0.40377 0.0
C1554 C 0.0075 0.58375 0.45192 0.0
C1555 C 1.0002 0.57693 0.49281 0.0
C1556 C 0.98638 0.56608 0.48854 0.0
C1557 C 0.98014 0.56195 0.44472 0.0
C1558 C 0.00601 0.58202 0.62433 0.0
C1559 C 0.01983 0.58497 0.62848 0.0
C1560 C 0.99975 0.57985 0.58028 0.0
C1561 C 0.00713 0.58047 0.53942 0.0
C1562 C 0.02104 0.58373 0.54371 0.0
C1563 C 0.0273 0.58599 0.58754 0.0
H1564 H 0.45309 0.41841 0.43716 0.0
H1565 H 0.42441 0.42838 0.36925 0.0
H1566 H 0.44663 0.42326 0.51252 0.0
H1567 H 0.41747 0.43274 0.44559 0.0
H1568 H 0.422 0.45623 0.5821 0.0
H1569 H 0.4262 0.44937 0.50627 0.0
H1570 H 0.42946 0.41593 0.57082 0.0
H1571 H 0.42576 0.42321 0.64744 0.0
C1572 C 0.44523 0.42146 0.43827 0.0
C1573 C 0.43932 0.42307 0.39689 0.0
C1574 C 0.44143 0.42414 0.48182 0.0
C1575 C 0.43149 0.42839 0.4855 0.0
C1576 C 0.42532 0.42969 0.44416 0.0
C1577 C 0.42923 0.42712 0.40034 0.0
C1578 C 0.42356 0.44737 0.58027 0.0
C1579 C 0.42362 0.44032 0.62106 0.0
C1580 C 0.42586 0.44335 0.5365 0.0
C1581 C 0.42817 0.43206 0.53208 0.0
C1582 C 0.42794 0.42481 0.57283 0.0
C1583 C 0.42577 0.42894 0.61683 0.0
H1584 H 0.10422 0.34664 0.21207 0.0
H1585 H 0.07107 0.30545 0.24681 0.0
H1586 H 0.10544 0.35369 0.2933 0.0
H1587 H 0.07223 0.31255 0.32833 0.0
H1588 H 0.09969 0.36539 0.43939 0.0
H1589 H 0.09359 0.3581 0.35807 0.0
H1590 H 0.08925 0.31821 0.39149 0.0
H1591 H 0.09523 0.32543 0.47249 0.0
C1592 C 0.09701 0.33914 0.23689 0.0
C1593 C 0.08759 0.32545 0.22287 0.0
C1594 C 0.09766 0.34322 0.28353 0.0
C1595 C 0.08899 0.33368 0.31754 0.0
C1596 C 0.07917 0.32013 0.30317 0.0
C1597 C 0.07844 0.31608 0.25635 0.0
C1598 C 0.09719 0.35498 0.42954 0.0
C1599 C 0.09802 0.34603 0.46249 0.0
C1600 C 0.09378 0.35083 0.38284 0.0
C1601 C 0.091 0.33759 0.36807 0.0
C1602 C 0.09119 0.32843 0.40159 0.0
C1603 C 0.0947 0.33261 0.4481 0.0
H1604 H 0.68168 0.77092 0.47535 0.0
H1605 H 0.64159 0.73553 0.44298 0.0
H1606 H 0.6888 0.77199 0.39433 0.0
H1607 H 0.64879 0.73652 0.36165 0.0
H1608 H 0.70138 0.76654 0.24966 0.0
H1609 H 0.69436 0.76063 0.33125 0.0
H1610 H 0.65314 0.75258 0.29663 0.0
H1611 H 0.6601 0.75833 0.21533 0.0
C1612 C 0.67445 0.7632 0.45112 0.0
C1613 C 0.66102 0.75319 0.4657 0.0
C1614 C 0.67858 0.76376 0.40459 0.0
C1615 C 0.66936 0.75439 0.37126 0.0
C1616 C 0.65611 0.74401 0.38626 0.0
C1617 C 0.65201 0.74338 0.43297 0.0
C1618 C 0.69075 0.76326 0.25931 0.0
C1619 C 0.68133 0.76299 0.22593 0.0
C1620 C 0.68675 0.75996 0.30617 0.0
C1621 C 0.6732 0.75622 0.32068 0.0
C1622 C 0.66361 0.75529 0.28676 0.0
C1623 C 0.66763 0.75867 0.24007 0.0
H1624 H 0.24088 0.93482 0.2589 0.0
H1625 H 0.24645 0.89998 0.22596 0.0
H1626 H 0.24712 0.93386 0.34025 0.0
H1627 H 0.25259 0.89898 0.30697 0.0
H1628 H 0.27093 0.9049 0.45152 0.0
H1629 H 0.26961 0.9108 0.37006 0.0
H1630 H 0.23554 0.91741 0.40508 0.0
H1631 H 0.2369 0.91161 0.48625 0.0
C1632 C 0.24366 0.92711 0.26878 0.0
C1633 C 0.2431 0.91744 0.23588 0.0
C1634 C 0.24714 0.9265 0.3155 0.0
C1635 C 0.25029 0.91629 0.33032 0.0
C1636 C 0.25037 0.90706 0.29684 0.0
C1637 C 0.24677 0.90759 0.25032 0.0
C1638 C 0.26334 0.90788 0.44201 0.0
C1639 C 0.25398 0.90771 0.47545 0.0
C1640 C 0.26251 0.91116 0.39522 0.0
C1641 C 0.2524 0.91449 0.38085 0.0
C1642 C 0.24353 0.91502 0.41485 0.0
C1643 C 0.24428 0.91162 0.46146 0.0
H1644 H 0.32698 0.09268 0.54427 0.0
H1645 H 0.36818 0.10057 0.57821 0.0
H1646 H 0.32001 0.08677 0.62554 0.0
H1647 H 0.36116 0.09457 0.65978 0.0
H1648 H 0.30856 0.06917 0.77166 0.0
H1649 H 0.31577 0.07033 0.69021 0.0
H1650 H 0.35552 0.10616 0.72282 0.0
H1651 H 0.34838 0.10497 0.80392 0.0
C1652 C 0.33449 0.09292 0.56892 0.0
C1653 C 0.34817 0.09718 0.5547 0.0
C1654 C 0.33046 0.08945 0.61556 0.0
C1655 C 0.34004 0.09026 0.64933 0.0
C1656 C 0.35356 0.09398 0.63475 0.0
C1657 C 0.35756 0.09733 0.58793 0.0
C1658 C 0.31893 0.07713 0.7616 0.0
C1659 C 0.32786 0.08702 0.7943 0.0
C1660 C 0.32302 0.07786 0.71485 0.0
C1661 C 0.3362 0.08838 0.69986 0.0
C1662 C 0.34535 0.09784 0.73314 0.0
C1663 C 0.34122 0.0972 0.77968 0.0
H1664 H 0.90202 0.24497 0.80304 0.0
H1665 H 0.93779 0.24084 0.77125 0.0
H1666 H 0.90095 0.25099 0.72199 0.0
H1667 H 0.93679 0.24701 0.68985 0.0
H1668 H 0.91506 0.23636 0.54319 0.0
H1669 H 0.92085 0.23522 0.62451 0.0
H1670 H 0.91227 0.26803 0.65921 0.0
H1671 H 0.90634 0.26909 0.57763 0.0
C1672 C 0.90982 0.24558 0.77893 0.0
C1673 C 0.91994 0.24233 0.79368 0.0
C1674 C 0.90925 0.24912 0.73238 0.0
C1675 C 0.91874 0.24943 0.6992 0.0
C1676 C 0.92922 0.24672 0.71435 0.0
C1677 C 0.92985 0.24328 0.7611 0.0
C1678 C 0.91463 0.24351 0.56795 0.0
C1679 C 0.91014 0.25276 0.55384 0.0
C1680 C 0.91802 0.2429 0.61466 0.0
C1681 C 0.91694 0.25146 0.64861 0.0
C1682 C 0.91305 0.26116 0.63411 0.0
C1683 C 0.90975 0.26183 0.58725 0.0
H1684 H 0.76011 0.65776 0.80295 0.0
H1685 H 0.76542 0.69819 0.77212 0.0
H1686 H 0.75418 0.65096 0.72168 0.0
H1687 H 0.75933 0.69131 0.69048 0.0
H1688 H 0.73668 0.63903 0.57673 0.0
H1689 H 0.73744 0.64588 0.65832 0.0
H1690 H 0.77118 0.68697 0.62574 0.0
H1691 H 0.77034 0.68019 0.54442 0.0
C1692 C 0.75978 0.66513 0.77899 0.0
C1693 C 0.76334 0.67856 0.79404 0.0
C1694 C 0.75628 0.66119 0.73234 0.0
C1695 C 0.75633 0.6706 0.69939 0.0
C1696 C 0.75933 0.68385 0.71484 0.0
C1697 C 0.76274 0.68777 0.76169 0.0
C1698 C 0.74408 0.6496 0.58681 0.0
C1699 C 0.75351 0.65903 0.55406 0.0
C1700 C 0.74457 0.6535 0.63365 0.0
C1701 C 0.75444 0.66695 0.64873 0.0
C1702 C 0.76336 0.67658 0.61538 0.0
C1703 C 0.76293 0.67265 0.5687 0.0
H1704 H 0.9072 0.63972 0.58978 0.0
H1705 H 0.91295 0.68007 0.55474 0.0
H1706 H 0.91306 0.64707 0.67119 0.0
H1707 H 0.91874 0.68737 0.63583 0.0
H1708 H 0.9367 0.69993 0.78132 0.0
H1709 H 0.93556 0.69261 0.70004 0.0
H1710 H 0.90112 0.65213 0.73468 0.0
H1711 H 0.90228 0.6594 0.81565 0.0
C1712 C 0.90995 0.65023 0.59922 0.0
C1713 C 0.90954 0.65928 0.5657 0.0
C1714 C 0.91321 0.65442 0.64597 0.0
C1715 C 0.9163 0.6678 0.6602 0.0
C1716 C 0.91655 0.67705 0.62615 0.0
C1717 C 0.91315 0.67283 0.57959 0.0
C1718 C 0.92905 0.68939 0.77176 0.0
C1719 C 0.91955 0.68028 0.80504 0.0
C1720 C 0.92833 0.68522 0.72508 0.0
C1721 C 0.9182 0.6718 0.71067 0.0
C1722 C 0.90914 0.6625 0.74451 0.0
C1723 C 0.90977 0.6667 0.79099 0.0
H1724 H 0.30641 0.23742 0.79336 0.0
H1725 H 0.34788 0.24624 0.82796 0.0
H1726 H 0.3134 0.24326 0.71171 0.0
H1727 H 0.35481 0.25197 0.74658 0.0
H1728 H 0.36588 0.26889 0.59934 0.0
H1729 H 0.35873 0.26798 0.68077 0.0
H1730 H 0.31926 0.23158 0.64973 0.0
H1731 H 0.32634 0.23251 0.56869 0.0
C1732 C 0.31708 0.24085 0.78377 0.0
C1733 C 0.32656 0.24128 0.81721 0.0
C1734 C 0.32106 0.2441 0.73689 0.0
C1735 C 0.33464 0.24799 0.72246 0.0
C1736 C 0.3443 0.24914 0.75643 0.0
C1737 C 0.3403 0.24578 0.80315 0.0
C1738 C 0.35559 0.26084 0.60975 0.0
C1739 C 0.34671 0.25073 0.57752 0.0
C1740 C 0.35153 0.26027 0.65648 0.0
C1741 C 0.33844 0.24967 0.6719 0.0
C1742 C 0.32935 0.23997 0.63907 0.0
C1743 C 0.33345 0.24046 0.59257 0.0
H1744 H 0.75911 0.10175 0.82787 0.0
H1745 H 0.76799 0.06905 0.79468 0.0
H1746 H 0.75332 0.10269 0.74641 0.0
H1747 H 0.76206 0.06992 0.71296 0.0
H1748 H 0.77304 0.09338 0.56962 0.0
H1749 H 0.77373 0.08718 0.65071 0.0
H1750 H 0.7375 0.0907 0.68059 0.0
H1751 H 0.73687 0.09703 0.5991 0.0
C1752 C 0.75956 0.09456 0.80336 0.0
C1753 C 0.76412 0.0854 0.81781 0.0
C1754 C 0.75616 0.09505 0.7566 0.0
C1755 C 0.75732 0.08646 0.72298 0.0
C1756 C 0.76122 0.0768 0.73785 0.0
C1757 C 0.76453 0.07624 0.78477 0.0
C1758 C 0.76508 0.09262 0.59324 0.0
C1759 C 0.75495 0.0958 0.57787 0.0
C1760 C 0.76542 0.08898 0.63978 0.0
C1761 C 0.75571 0.08849 0.67232 0.0
C1762 C 0.74522 0.09111 0.65654 0.0
C1763 C 0.74481 0.09466 0.60978 0.0
H1764 H 0.70071 0.93722 0.25287 0.0
H1765 H 0.66027 0.90241 0.22013 0.0
H1766 H 0.69359 0.93622 0.33429 0.0
H1767 H 0.65322 0.90133 0.30126 0.0
H1768 H 0.64105 0.9066 0.44678 0.0
H1769 H 0.64801 0.91268 0.36522 0.0
H1770 H 0.68903 0.91992 0.39854 0.0
H1771 H 0.68214 0.914 0.47979 0.0
C1772 C 0.69023 0.92951 0.26281 0.0
C1773 C 0.68109 0.91985 0.22996 0.0
C1774 C 0.68617 0.92887 0.30958 0.0
C1775 C 0.67286 0.91863 0.32451 0.0
C1776 C 0.66351 0.90944 0.29105 0.0
C1777 C 0.66758 0.91002 0.24446 0.0
C1778 C 0.65163 0.90974 0.43685 0.0
C1779 C 0.66101 0.90973 0.46984 0.0
C1780 C 0.6556 0.91313 0.39001 0.0
C1781 C 0.66907 0.91671 0.37514 0.0
C1782 C 0.67862 0.91736 0.4087 0.0
C1783 C 0.67464 0.91388 0.45536 0.0
H1784 H 0.09946 0.73492 0.44655 0.0
H1785 H 0.09336 0.76956 0.47745 0.0
H1786 H 0.09322 0.73554 0.36499 0.0
H1787 H 0.0873 0.77027 0.39622 0.0
H1788 H 0.10388 0.75755 0.21898 0.0
H1789 H 0.10486 0.75177 0.30035 0.0
H1790 H 0.07067 0.75845 0.33274 0.0
H1791 H 0.06978 0.76441 0.25106 0.0
C1792 C 0.09657 0.74252 0.43616 0.0
C1793 C 0.097 0.75225 0.4685 0.0
C1794 C 0.09309 0.74293 0.38935 0.0
C1795 C 0.08984 0.75301 0.37392 0.0
C1796 C 0.0896 0.76227 0.40686 0.0
C1797 C 0.09316 0.76192 0.45349 0.0
C1798 C 0.09641 0.75757 0.24324 0.0
C1799 C 0.08682 0.76155 0.22851 0.0
C1800 C 0.09692 0.75417 0.28995 0.0
C1801 C 0.0879 0.75472 0.32325 0.0
C1802 C 0.07788 0.75808 0.30811 0.0
C1803 C 0.0773 0.76141 0.26122 0.0
H1804 H 0.24682 0.34693 0.22536 0.0
H1805 H 0.24227 0.30678 0.25581 0.0
H1806 H 0.25296 0.35382 0.30649 0.0
H1807 H 0.24854 0.31375 0.3373 0.0
H1808 H 0.23732 0.32461 0.48366 0.0
H1809 H 0.2365 0.31787 0.40228 0.0
H1810 H 0.26994 0.35911 0.36961 0.0
H1811 H 0.27069 0.36591 0.45129 0.0
C1812 C 0.24738 0.33965 0.24919 0.0
C1813 C 0.24396 0.32626 0.23409 0.0
C1814 C 0.25099 0.34364 0.29575 0.0
C1815 C 0.25118 0.33432 0.32858 0.0
C1816 C 0.24835 0.32113 0.31303 0.0
C1817 C 0.24485 0.31717 0.26626 0.0
C1818 C 0.24468 0.33219 0.45935 0.0
C1819 C 0.25401 0.34584 0.474 0.0
C1820 C 0.24426 0.32829 0.41264 0.0
C1821 C 0.25309 0.33797 0.37925 0.0
C1822 C 0.26288 0.35144 0.39432 0.0
C1823 C 0.26337 0.35532 0.44121 0.0
H1824 H 0.03306 0.43182 0.92417 0.0
H1825 H 0.99265 0.42631 0.89169 0.0
H1826 H 0.0259 0.42552 1.00552 0.0
H1827 H 0.98555 0.42012 0.9727 0.0
H1828 H 0.01398 0.43574 0.15172 0.0
H1829 H 0.0211 0.43709 0.0705 0.0
H1830 H 0.98038 0.40309 0.03568 0.0
H1831 H 0.97321 0.40178 0.11718 0.0
C1832 C 0.02258 0.42904 0.93415 0.0
C1833 C 0.01346 0.42964 0.90138 0.0
C1834 C 0.01851 0.42552 0.98087 0.0
C1835 C 0.00517 0.42238 0.99581 0.0
C1836 C 0.99585 0.42234 0.96246 0.0
C1837 C 0.99995 0.42597 0.91594 0.0
C1838 C 0.0066 0.42838 0.12697 0.0
C1839 C 0.99299 0.4187 0.14102 0.0
C1840 C 0.01072 0.42911 0.08033 0.0
C1841 C 1.0013 0.42026 0.04637 0.0
C1842 C 0.98786 0.41017 0.06081 0.0
C1843 C 0.98377 0.40935 0.10762 0.0
H1844 H 0.60465 0.57359 0.12021 0.0
H1845 H 0.57088 0.58091 0.15284 0.0
H1846 H 0.60372 0.57953 0.03855 0.0
H1847 H 0.56986 0.58669 0.07146 0.0
H1848 H 0.57524 0.60335 0.92476 0.0
H1849 H 0.58153 0.60278 1.00631 0.0
H1850 H 0.58687 0.56767 0.97559 0.0
H1851 H 0.58073 0.56831 0.8944 0.0
C1852 C 0.5972 0.5767 0.11018 0.0
C1853 C 0.58778 0.57668 0.14304 0.0
C1854 C 0.5966 0.58002 0.0633 0.0
C1855 C 0.58664 0.58349 0.0483 0.0
C1856 C 0.57775 0.58419 0.08175 0.0
C1857 C 0.57828 0.5808 0.12847 0.0
C1858 C 0.578 0.59568 0.93527 0.0
C1859 C 0.57739 0.58583 0.90309 0.0
C1860 C 0.58152 0.59529 0.98207 0.0
C1861 C 0.58463 0.58513 0.99764 0.0
C1862 C 0.58468 0.57573 0.96484 0.0
C1863 C 0.58107 0.57605 0.91824 0.0
H1864 H 0.43364 0.03181 0.10808 0.0
H1865 H 0.42839 0.99154 0.14115 0.0
H1866 H 0.42753 0.02461 0.02668 0.0
H1867 H 0.42239 0.9844 0.06008 0.0
H1868 H 0.43814 0.01281 0.88097 0.0
H1869 H 0.43931 0.01991 0.96212 0.0
H1870 H 0.40545 0.97909 0.99667 0.0
H1871 H 0.40433 0.97192 0.91523 0.0
C1872 C 0.43095 0.02135 0.09821 0.0
C1873 C 0.43157 0.01228 0.13117 0.0
C1874 C 0.42755 0.01725 0.05147 0.0
C1875 C 0.42454 0.00394 0.03667 0.0
C1876 C 0.42451 0.99467 0.0702 0.0
C1877 C 0.42803 0.9988 0.11674 0.0
C1878 C 0.43077 0.0054 0.90565 0.0
C1879 C 0.42118 0.99176 0.89154 0.0
C1880 C 0.4314 0.00951 0.95225 0.0
C1881 C 0.42254 1.00005 0.98612 0.0
C1882 C 0.41254 0.98658 0.97162 0.0
C1883 C 0.41183 0.98251 0.92484 0.0
H1884 H 0.58216 0.01393 0.88676 0.0
H1885 H 0.5757 0.9732 0.92011 0.0
H1886 H 0.58792 0.0209 0.968 0.0
H1887 H 0.58165 0.98026 1.00164 0.0
H1888 H 0.57112 0.99205 0.14676 0.0
H1889 H 0.5701 0.9851 0.06558 0.0
H1890 H 0.60424 0.02589 0.03225 0.0
H1891 H 0.60516 0.03293 0.11372 0.0
C1892 C 0.58221 0.00652 0.91127 0.0
C1893 C 0.57838 0.99296 0.89688 0.0
C1894 C 0.5856 0.01056 0.95793 0.0
C1895 C 0.58518 1.00113 0.99157 0.0
C1896 C 0.58191 0.98774 0.97679 0.0
C1897 C 0.5786 0.98372 0.92996 0.0
C1898 C 0.57857 0.99949 0.12234 0.0
C1899 C 0.58816 0.01309 0.13679 0.0
C1900 C 0.57803 0.99547 0.07571 0.0
C1901 C 0.58703 0.00495 0.04217 0.0
C1902 C 0.59704 0.01838 0.05702 0.0
C1903 C 0.59763 0.02238 0.10381 0.0
H1904 H 0.03344 0.60304 0.9194 0.0
H1905 H 0.99267 0.56885 0.88611 0.0
H1906 H 0.02639 0.60194 1.00095 0.0
H1907 H 0.98571 0.56765 0.96736 0.0
H1908 H 0.97375 0.57284 0.11322 0.0
H1909 H 0.98077 0.57898 0.03174 0.0
H1910 H 0.02155 0.58553 0.06478 0.0
H1911 H 0.01462 0.57958 0.14597 0.0
C1912 C 0.02291 0.59544 0.92927 0.0
C1913 C 0.01365 0.58599 0.8962 0.0
C1914 C 0.0189 0.59474 0.9761 0.0
C1915 C 0.0055 0.58464 0.99091 0.0
C1916 C 0.99605 0.57565 0.95727 0.0
C1917 C 1.00008 0.5763 0.91061 0.0
C1918 C 0.98429 0.57584 0.10325 0.0
C1919 C 0.99359 0.57564 0.13614 0.0
C1920 C 0.98829 0.57927 0.05645 0.0
C1921 C 1.0017 0.58267 0.04152 0.0
C1922 C 0.01119 0.58311 0.07498 0.0
C1923 C 0.00718 0.57961 0.12161 0.0
H1924 H 0.43404 0.40371 0.10546 0.0
H1925 H 0.42868 0.43864 0.13907 0.0
H1926 H 0.42789 0.40485 0.02412 0.0
H1927 H 0.42261 0.4398 0.05807 0.0
H1928 H 0.43822 0.42735 0.87842 0.0
H1929 H 0.43962 0.4215 0.95953 0.0
H1930 H 0.40548 0.42796 0.99489 0.0
H1931 H 0.4041 0.43388 0.91348 0.0
C1932 C 0.43132 0.41148 0.09573 0.0
C1933 C 0.43191 0.42112 0.12883 0.0
C1934 C 0.42789 0.41219 0.04902 0.0
C1935 C 0.42482 0.42247 0.03441 0.0
C1936 C 0.42477 0.43167 0.06806 0.0
C1937 C 0.42833 0.43105 0.11456 0.0
C1938 C 0.43084 0.42729 0.90327 0.0
C1939 C 0.42108 0.43115 0.88938 0.0
C1940 C 0.4316 0.42387 0.94984 0.0
C1941 C 0.42272 0.42434 0.98391 0.0
C1942 C 0.41258 0.42764 0.96966 0.0
C1943 C 0.41172 0.43094 0.92291 0.0
loop_
_geom_bond_atom_site_label_1
_geom_bond_atom_site_label_2
_geom_bond_distance
_geom_bond_site_symmetry_2
_ccdc_geom_bond_type
O0 Cd1 2.223 . S
O0 C8 1.315 . S
Cd1 O0 2.223 . S
Cd1 O4 2.297 . S
Cd1 O5 2.439 . S
Cd1 O11 2.240 . S
Cd2 O3 2.240 . S
Cd2 O10 2.223 1_554 S
Cd2 O12 2.298 . S
Cd2 O13 2.439 . S
O3 Cd2 2.240 . S
O3 C8 1.279 . S
O4 Cd1 2.297 . S
O4 C6 1.247 . S
O5 Cd1 2.439 . S
O5 C6 1.208 . S
C6 O4 1.247 . S
C6 O5 1.208 . S
C7 O12 1.249 . S
C7 O13 1.208 . S
C8 O0 1.315 . S
C8 O3 1.279 . S
C9 O10 1.315 . S
C9 O11 1.279 1_556 S
O10 Cd2 2.223 1_556 S
O10 C9 1.315 . S
O11 Cd1 2.240 . S
O11 C9 1.279 1_554 S
O12 Cd2 2.298 . S
O12 C7 1.249 . S
O13 Cd2 2.439 . S
O13 C7 1.208 . S
O14 Cd15 2.223 . S
O14 C22 1.315 . S
Cd15 O14 2.223 . S
Cd15 O18 2.297 . S
Cd15 O19 2.439 . S
Cd15 O25 2.240 . S
Cd16 O17 2.240 . S
Cd16 O24 2.223 1_554 S
Cd16 O26 2.298 . S
Cd16 O27 2.439 . S
O17 Cd16 2.240 . S
O17 C22 1.279 . S
O18 Cd15 2.297 . S
O18 C20 1.247 . S
O19 Cd15 2.439 . S
O19 C20 1.208 . S
C20 O18 1.247 . S
C20 O19 1.208 . S
C21 O26 1.249 . S
C21 O27 1.208 . S
C22 O14 1.315 . S
C22 O17 1.279 . S
C23 O24 1.315 . S
C23 O25 1.279 1_556 S
O24 Cd16 2.223 1_556 S
O24 C23 1.315 . S
O25 Cd15 2.240 . S
O25 C23 1.279 1_554 S
O26 Cd16 2.298 . S
O26 C21 1.249 . S
O27 Cd16 2.439 . S
O27 C21 1.208 . S
O28 Cd29 2.223 . S
O28 C36 1.315 . S
Cd29 O28 2.223 . S
Cd29 O32 2.297 . S
Cd29 O33 2.439 . S
Cd29 O39 2.240 . S
Cd30 O31 2.240 . S
Cd30 O38 2.223 1_554 S
Cd30 O40 2.299 . S
Cd30 O41 2.439 . S
O31 Cd30 2.240 . S
O31 C36 1.279 . S
O32 Cd29 2.297 . S
O32 C34 1.247 . S
O33 Cd29 2.439 . S
O33 C34 1.208 . S
C34 O32 1.247 . S
C34 O33 1.208 . S
C35 O40 1.251 . S
C35 O41 1.208 . S
C36 O28 1.315 . S
C36 O31 1.279 . S
C37 O38 1.315 . S
C37 O39 1.279 1_556 S
O38 Cd30 2.223 1_556 S
O38 C37 1.315 . S
O39 Cd29 2.240 . S
O39 C37 1.279 1_554 S
O40 Cd30 2.299 . S
O40 C35 1.251 . S
O41 Cd30 2.439 . S
O41 C35 1.208 . S
O42 Cd43 2.223 . S
O42 C50 1.315 . S
Cd43 O42 2.223 . S
Cd43 O46 2.297 . S
Cd43 O47 2.439 . S
Cd43 O53 2.240 . S
Cd44 O45 2.240 . S
Cd44 O52 2.223 1_556 S
Cd44 O54 2.298 . S
Cd44 O55 2.439 . S
O45 Cd44 2.240 . S
O45 C50 1.279 . S
O46 Cd43 2.297 . S
O46 C48 1.247 . S
O47 Cd43 2.439 . S
O47 C48 1.208 . S
C48 O46 1.247 . S
C48 O47 1.208 . S
C49 O54 1.249 . S
C49 O55 1.208 . S
C50 O42 1.315 . S
C50 O45 1.279 . S
C51 O52 1.315 . S
C51 O53 1.279 1_554 S
O52 Cd44 2.223 1_554 S
O52 C51 1.315 . S
O53 Cd43 2.240 . S
O53 C51 1.279 1_556 S
O54 Cd44 2.298 . S
O54 C49 1.249 . S
O55 Cd44 2.439 . S
O55 C49 1.208 . S
O56 Cd57 2.223 . S
O56 C64 1.315 . S
Cd57 O56 2.223 . S
Cd57 O60 2.297 . S
Cd57 O61 2.439 . S
Cd57 O67 2.240 . S
Cd58 O59 2.240 . S
Cd58 O66 2.223 1_556 S
Cd58 O68 2.299 . S
Cd58 O69 2.439 . S
O59 Cd58 2.240 . S
O59 C64 1.279 . S
O60 Cd57 2.297 . S
O60 C62 1.247 . S
O61 Cd57 2.439 . S
O61 C62 1.208 . S
C62 O60 1.247 . S
C62 O61 1.208 . S
C63 O68 1.251 . S
C63 O69 1.208 . S
C64 O56 1.315 . S
C64 O59 1.279 . S
C65 O66 1.315 . S
C65 O67 1.279 1_554 S
O66 Cd58 2.223 1_554 S
O66 C65 1.315 . S
O67 Cd57 2.240 . S
O67 C65 1.279 1_556 S
O68 Cd58 2.299 . S
O68 C63 1.251 . S
O69 Cd58 2.439 . S
O69 C63 1.208 . S
O70 Cd71 2.223 . S
O70 C78 1.315 . S
Cd71 O70 2.223 . S
Cd71 O74 2.297 . S
Cd71 O75 2.439 . S
Cd71 O81 2.240 . S
Cd72 O73 2.240 . S
Cd72 O80 2.223 1_556 S
Cd72 O82 2.298 . S
Cd72 O83 2.439 . S
O73 Cd72 2.240 . S
O73 C78 1.279 . S
O74 Cd71 2.297 . S
O74 C76 1.247 . S
O75 Cd71 2.439 . S
O75 C76 1.208 . S
C76 O74 1.247 . S
C76 O75 1.208 . S
C77 O82 1.249 . S
C77 O83 1.208 . S
C78 O70 1.315 . S
C78 O73 1.279 . S
C79 O80 1.315 . S
C79 O81 1.279 1_554 S
O80 Cd72 2.223 1_554 S
O80 C79 1.315 . S
O81 Cd71 2.240 . S
O81 C79 1.279 1_556 S
O82 Cd72 2.298 . S
O82 C77 1.249 . S
O83 Cd72 2.439 . S
O83 C77 1.208 . S
O84 Cd85 2.223 . S
O84 C92 1.315 . S
Cd85 O84 2.223 . S
Cd85 O88 2.297 . S
Cd85 O89 2.439 . S
Cd85 O95 2.240 . S
Cd86 O87 2.240 . S
Cd86 O94 2.223 1_556 S
Cd86 O96 2.298 . S
Cd86 O97 2.439 . S
O87 Cd86 2.240 . S
O87 C92 1.279 . S
O88 Cd85 2.297 . S
O88 C90 1.247 . S
O89 Cd85 2.439 . S
O89 C90 1.208 . S
C90 O88 1.247 . S
C90 O89 1.208 . S
C91 O96 1.249 . S
C91 O97 1.208 . S
C92 O84 1.315 . S
C92 O87 1.279 . S
C93 O94 1.315 . S
C93 O95 1.279 1_554 S
O94 Cd86 2.223 1_554 S
O94 C93 1.315 . S
O95 Cd85 2.240 . S
O95 C93 1.279 1_556 S
O96 Cd86 2.298 . S
O96 C91 1.249 . S
O97 Cd86 2.439 . S
O97 C91 1.208 . S
O98 Cd99 2.223 . S
O98 C106 1.315 . S
Cd99 O98 2.223 . S
Cd99 O102 2.297 . S
Cd99 O103 2.439 . S
Cd99 O109 2.240 . S
Cd100 O101 2.240 . S
Cd100 O108 2.223 1_556 S
Cd100 O110 2.298 . S
Cd100 O111 2.439 . S
O101 Cd100 2.240 . S
O101 C106 1.279 . S
O102 Cd99 2.297 . S
O102 C104 1.247 . S
O103 Cd99 2.439 . S
O103 C104 1.208 . S
C104 O102 1.247 . S
C104 O103 1.208 . S
C105 O110 1.249 . S
C105 O111 1.208 . S
C106 O98 1.315 . S
C106 O101 1.279 . S
C107 O108 1.315 . S
C107 O109 1.279 1_554 S
O108 Cd100 2.223 1_554 S
O108 C107 1.315 . S
O109 Cd99 2.240 . S
O109 C107 1.279 1_556 S
O110 Cd100 2.298 . S
O110 C105 1.249 . S
O111 Cd100 2.439 . S
O111 C105 1.208 . S
O112 Cd113 2.223 . S
O112 C120 1.315 . S
Cd113 O112 2.223 . S
Cd113 O116 2.297 . S
Cd113 O117 2.439 . S
Cd113 O123 2.240 . S
Cd114 O115 2.240 . S
Cd114 O122 2.223 1_556 S
Cd114 O124 2.299 . S
Cd114 O125 2.439 . S
O115 Cd114 2.240 . S
O115 C120 1.279 . S
O116 Cd113 2.297 . S
O116 C118 1.247 . S
O117 Cd113 2.439 . S
O117 C118 1.208 . S
C118 O116 1.247 . S
C118 O117 1.208 . S
C119 O124 1.251 . S
C119 O125 1.208 . S
C120 O112 1.315 . S
C120 O115 1.279 . S
C121 O122 1.315 . S
C121 O123 1.279 1_554 S
O122 Cd114 2.223 1_554 S
O122 C121 1.315 . S
O123 Cd113 2.240 . S
O123 C121 1.279 1_556 S
O124 Cd114 2.299 . S
O124 C119 1.251 . S
O125 Cd114 2.439 . S
O125 C119 1.208 . S
O126 Cd127 2.223 . S
O126 C134 1.315 . S
Cd127 O126 2.223 . S
Cd127 O130 2.297 . S
Cd127 O131 2.439 . S
Cd127 O137 2.240 . S
Cd128 O129 2.240 . S
Cd128 O136 2.223 1_554 S
Cd128 O138 2.298 . S
Cd128 O139 2.439 . S
O129 Cd128 2.240 . S
O129 C134 1.279 . S
O130 Cd127 2.297 . S
O130 C132 1.247 . S
O131 Cd127 2.439 . S
O131 C132 1.208 . S
C132 O130 1.247 . S
C132 O131 1.208 . S
C133 O138 1.249 . S
C133 O139 1.208 . S
C134 O126 1.315 . S
C134 O129 1.279 . S
C135 O136 1.315 . S
C135 O137 1.279 1_556 S
O136 Cd128 2.223 1_556 S
O136 C135 1.315 . S
O137 Cd127 2.240 . S
O137 C135 1.279 1_554 S
O138 Cd128 2.298 . S
O138 C133 1.249 . S
O139 Cd128 2.439 . S
O139 C133 1.208 . S
O140 Cd141 2.223 . S
O140 C148 1.315 . S
Cd141 O140 2.223 . S
Cd141 O144 2.297 . S
Cd141 O145 2.439 . S
Cd141 O151 2.240 . S
Cd142 O143 2.240 . S
Cd142 O150 2.223 1_554 S
Cd142 O152 2.299 . S
Cd142 O153 2.439 . S
O143 Cd142 2.240 . S
O143 C148 1.279 . S
O144 Cd141 2.297 . S
O144 C146 1.247 . S
O145 Cd141 2.439 . S
O145 C146 1.208 . S
C146 O144 1.247 . S
C146 O145 1.208 . S
C147 O152 1.251 . S
C147 O153 1.208 . S
C148 O140 1.315 . S
C148 O143 1.279 . S
C149 O150 1.315 . S
C149 O151 1.279 1_556 S
O150 Cd142 2.223 1_556 S
O150 C149 1.315 . S
O151 Cd141 2.240 . S
O151 C149 1.279 1_554 S
O152 Cd142 2.299 . S
O152 C147 1.251 . S
O153 Cd142 2.439 . S
O153 C147 1.208 . S
O154 Cd155 2.223 . S
O154 C162 1.315 . S
Cd155 O154 2.223 . S
Cd155 O158 2.297 . S
Cd155 O159 2.439 . S
Cd155 O165 2.240 . S
Cd156 O157 2.240 . S
Cd156 O164 2.223 1_554 S
Cd156 O166 2.298 . S
Cd156 O167 2.439 . S
O157 Cd156 2.240 . S
O157 C162 1.279 . S
O158 Cd155 2.297 . S
O158 C160 1.247 . S
O159 Cd155 2.439 . S
O159 C160 1.208 . S
C160 O158 1.247 . S
C160 O159 1.208 . S
C161 O166 1.249 . S
C161 O167 1.208 . S
C162 O154 1.315 . S
C162 O157 1.279 . S
C163 O164 1.315 . S
C163 O165 1.279 1_556 S
O164 Cd156 2.223 1_556 S
O164 C163 1.315 . S
O165 Cd155 2.240 . S
O165 C163 1.279 1_554 S
O166 Cd156 2.298 . S
O166 C161 1.249 . S
O167 Cd156 2.439 . S
O167 C161 1.208 . S
O168 Cd169 2.223 . S
O168 C176 1.315 . S
Cd169 O168 2.223 . S
Cd169 O172 2.297 . S
Cd169 O173 2.439 . S
Cd169 O179 2.240 . S
Cd170 O171 2.240 . S
Cd170 O178 2.223 . S
Cd170 O180 2.297 . S
Cd170 O181 2.439 . S
O171 Cd170 2.240 . S
O171 C176 1.279 . S
O172 Cd169 2.297 . S
O172 C174 1.247 . S
O173 Cd169 2.439 . S
O173 C174 1.208 . S
C174 O172 1.247 . S
C174 O173 1.208 . S
C175 O180 1.247 . S
C175 O181 1.208 . S
C176 O168 1.315 . S
C176 O171 1.279 . S
C177 O178 1.315 . S
C177 O179 1.279 . S
O178 Cd170 2.223 . S
O178 C177 1.315 . S
O179 Cd169 2.240 . S
O179 C177 1.279 . S
O180 Cd170 2.297 . S
O180 C175 1.247 . S
O181 Cd170 2.439 . S
O181 C175 1.208 . S
O182 Cd183 2.223 . S
O182 C190 1.315 . S
Cd183 O182 2.223 . S
Cd183 O186 2.297 . S
Cd183 O187 2.439 . S
Cd183 O193 2.240 . S
Cd184 O185 2.240 . S
Cd184 O192 2.223 . S
Cd184 O194 2.297 . S
Cd184 O195 2.439 . S
O185 Cd184 2.240 . S
O185 C190 1.279 . S
O186 Cd183 2.297 . S
O186 C188 1.247 . S
O187 Cd183 2.439 . S
O187 C188 1.208 . S
C188 O186 1.247 . S
C188 O187 1.208 . S
C189 O194 1.247 . S
C189 O195 1.208 . S
C190 O182 1.315 . S
C190 O185 1.279 . S
C191 O192 1.315 . S
C191 O193 1.279 . S
O192 Cd184 2.223 . S
O192 C191 1.315 . S
O193 Cd183 2.240 . S
O193 C191 1.279 . S
O194 Cd184 2.297 . S
O194 C189 1.247 . S
O195 Cd184 2.439 . S
O195 C189 1.208 . S
O196 Cd197 2.223 . S
O196 C204 1.315 . S
Cd197 O196 2.223 . S
Cd197 O200 2.297 . S
Cd197 O201 2.439 . S
Cd197 O207 2.240 . S
Cd198 O199 2.240 . S
Cd198 O206 2.223 . S
Cd198 O208 2.297 . S
Cd198 O209 2.439 . S
O199 Cd198 2.240 . S
O199 C204 1.279 . S
O200 Cd197 2.297 . S
O200 C202 1.247 . S
O201 Cd197 2.439 . S
O201 C202 1.208 . S
C202 O200 1.247 . S
C202 O201 1.208 . S
C203 O208 1.247 . S
C203 O209 1.208 . S
C204 O196 1.315 . S
C204 O199 1.279 . S
C205 O206 1.315 . S
C205 O207 1.279 . S
O206 Cd198 2.223 . S
O206 C205 1.315 . S
O207 Cd197 2.240 . S
O207 C205 1.279 . S
O208 Cd198 2.297 . S
O208 C203 1.247 . S
O209 Cd198 2.439 . S
O209 C203 1.208 . S
O210 Cd211 2.223 . S
O210 C218 1.315 . S
Cd211 O210 2.223 . S
Cd211 O214 2.297 . S
Cd211 O215 2.439 . S
Cd211 O221 2.240 . S
Cd212 O213 2.240 . S
Cd212 O220 2.223 . S
Cd212 O222 2.297 . S
Cd212 O223 2.439 . S
O213 Cd212 2.240 . S
O213 C218 1.279 . S
O214 Cd211 2.297 . S
O214 C216 1.247 . S
O215 Cd211 2.439 . S
O215 C216 1.208 . S
C216 O214 1.247 . S
C216 O215 1.208 . S
C217 O222 1.247 . S
C217 O223 1.208 . S
C218 O210 1.315 . S
C218 O213 1.279 . S
C219 O220 1.315 . S
C219 O221 1.279 . S
O220 Cd212 2.223 . S
O220 C219 1.315 . S
O221 Cd211 2.240 . S
O221 C219 1.279 . S
O222 Cd212 2.297 . S
O222 C217 1.247 . S
O223 Cd212 2.439 . S
O223 C217 1.208 . S
O224 Cd225 2.223 . S
O224 C232 1.315 . S
Cd225 O224 2.223 . S
Cd225 O228 2.297 . S
Cd225 O229 2.439 . S
Cd225 O235 2.240 . S
Cd226 O227 2.240 . S
Cd226 O234 2.223 . S
Cd226 O236 2.297 . S
Cd226 O237 2.439 . S
O227 Cd226 2.240 . S
O227 C232 1.279 . S
O228 Cd225 2.297 . S
O228 C230 1.247 . S
O229 Cd225 2.439 . S
O229 C230 1.208 . S
C230 O228 1.247 . S
C230 O229 1.208 . S
C231 O236 1.247 . S
C231 O237 1.208 . S
C232 O224 1.315 . S
C232 O227 1.279 . S
C233 O234 1.315 . S
C233 O235 1.279 . S
O234 Cd226 2.223 . S
O234 C233 1.315 . S
O235 Cd225 2.240 . S
O235 C233 1.279 . S
O236 Cd226 2.297 . S
O236 C231 1.247 . S
O237 Cd226 2.439 . S
O237 C231 1.208 . S
O238 Cd239 2.223 . S
O238 C246 1.315 . S
Cd239 O238 2.223 . S
Cd239 O242 2.297 . S
Cd239 O243 2.439 . S
Cd239 O249 2.240 . S
Cd240 O241 2.240 . S
Cd240 O248 2.223 . S
Cd240 O250 2.297 . S
Cd240 O251 2.439 . S
O241 Cd240 2.240 . S
O241 C246 1.279 . S
O242 Cd239 2.297 . S
O242 C244 1.247 . S
O243 Cd239 2.439 . S
O243 C244 1.208 . S
C244 O242 1.247 . S
C244 O243 1.208 . S
C245 O250 1.247 . S
C245 O251 1.208 . S
C246 O238 1.315 . S
C246 O241 1.279 . S
C247 O248 1.315 . S
C247 O249 1.279 . S
O248 Cd240 2.223 . S
O248 C247 1.315 . S
O249 Cd239 2.240 . S
O249 C247 1.279 . S
O250 Cd240 2.297 . S
O250 C245 1.247 . S
O251 Cd240 2.439 . S
O251 C245 1.208 . S
O252 Cd253 2.223 . S
O252 C260 1.315 . S
Cd253 O252 2.223 . S
Cd253 O256 2.297 . S
Cd253 O257 2.439 . S
Cd253 O263 2.240 . S
Cd254 O255 2.240 . S
Cd254 O262 2.223 . S
Cd254 O264 2.297 . S
Cd254 O265 2.439 . S
O255 Cd254 2.240 . S
O255 C260 1.279 . S
O256 Cd253 2.297 . S
O256 C258 1.247 . S
O257 Cd253 2.439 . S
O257 C258 1.208 . S
C258 O256 1.247 . S
C258 O257 1.208 . S
C259 O264 1.247 . S
C259 O265 1.208 . S
C260 O252 1.315 . S
C260 O255 1.279 . S
C261 O262 1.315 . S
C261 O263 1.279 . S
O262 Cd254 2.223 . S
O262 C261 1.315 . S
O263 Cd253 2.240 . S
O263 C261 1.279 . S
O264 Cd254 2.297 . S
O264 C259 1.247 . S
O265 Cd254 2.439 . S
O265 C259 1.208 . S
O266 Cd267 2.223 . S
O266 C274 1.315 . S
Cd267 O266 2.223 . S
Cd267 O270 2.297 . S
Cd267 O271 2.439 . S
Cd267 O277 2.240 . S
Cd268 O269 2.240 . S
Cd268 O276 2.223 . S
Cd268 O278 2.297 . S
Cd268 O279 2.439 . S
O269 Cd268 2.240 . S
O269 C274 1.279 . S
O270 Cd267 2.297 . S
O270 C272 1.247 . S
O271 Cd267 2.439 . S
O271 C272 1.208 . S
C272 O270 1.247 . S
C272 O271 1.208 . S
C273 O278 1.247 . S
C273 O279 1.208 . S
C274 O266 1.315 . S
C274 O269 1.279 . S
C275 O276 1.315 . S
C275 O277 1.279 . S
O276 Cd268 2.223 . S
O276 C275 1.315 . S
O277 Cd267 2.240 . S
O277 C275 1.279 . S
O278 Cd268 2.297 . S
O278 C273 1.247 . S
O279 Cd268 2.439 . S
O279 C273 1.208 . S
O280 Cd281 2.223 . S
O280 C288 1.315 . S
Cd281 O280 2.223 . S
Cd281 O284 2.297 . S
Cd281 O285 2.439 . S
Cd281 O291 2.240 . S
Cd282 O283 2.240 . S
Cd282 O290 2.223 . S
Cd282 O292 2.297 . S
Cd282 O293 2.439 . S
O283 Cd282 2.240 . S
O283 C288 1.279 . S
O284 Cd281 2.297 . S
O284 C286 1.247 . S
O285 Cd281 2.439 . S
O285 C286 1.208 . S
C286 O284 1.247 . S
C286 O285 1.208 . S
C287 O292 1.247 . S
C287 O293 1.208 . S
C288 O280 1.315 . S
C288 O283 1.279 . S
C289 O290 1.315 . S
C289 O291 1.279 . S
O290 Cd282 2.223 . S
O290 C289 1.315 . S
O291 Cd281 2.240 . S
O291 C289 1.279 . S
O292 Cd282 2.297 . S
O292 C287 1.247 . S
O293 Cd282 2.439 . S
O293 C287 1.208 . S
O294 Cd295 2.223 . S
O294 C302 1.315 . S
Cd295 O294 2.223 . S
Cd295 O298 2.297 . S
Cd295 O299 2.439 . S
Cd295 O305 2.240 . S
Cd296 O297 2.240 . S
Cd296 O304 2.223 . S
Cd296 O306 2.297 . S
Cd296 O307 2.439 . S
O297 Cd296 2.240 . S
O297 C302 1.279 . S
O298 Cd295 2.297 . S
O298 C300 1.247 . S
O299 Cd295 2.439 . S
O299 C300 1.208 . S
C300 O298 1.247 . S
C300 O299 1.208 . S
C301 O306 1.247 . S
C301 O307 1.208 . S
C302 O294 1.315 . S
C302 O297 1.279 . S
C303 O304 1.315 . S
C303 O305 1.279 . S
O304 Cd296 2.223 . S
O304 C303 1.315 . S
O305 Cd295 2.240 . S
O305 C303 1.279 . S
O306 Cd296 2.297 . S
O306 C301 1.247 . S
O307 Cd296 2.439 . S
O307 C301 1.208 . S
O308 Cd309 2.223 . S
O308 C316 1.315 . S
Cd309 O308 2.223 . S
Cd309 O312 2.297 . S
Cd309 O313 2.439 . S
Cd309 O319 2.240 . S
Cd310 O311 2.240 . S
Cd310 O318 2.223 . S
Cd310 O320 2.297 . S
Cd310 O321 2.439 . S
O311 Cd310 2.240 . S
O311 C316 1.279 . S
O312 Cd309 2.297 . S
O312 C314 1.247 . S
O313 Cd309 2.439 . S
O313 C314 1.208 . S
C314 O312 1.247 . S
C314 O313 1.208 . S
C315 O320 1.247 . S
C315 O321 1.208 . S
C316 O308 1.315 . S
C316 O311 1.279 . S
C317 O318 1.315 . S
C317 O319 1.279 . S
O318 Cd310 2.223 . S
O318 C317 1.315 . S
O319 Cd309 2.240 . S
O319 C317 1.279 . S
O320 Cd310 2.297 . S
O320 C315 1.247 . S
O321 Cd310 2.439 . S
O321 C315 1.208 . S
O322 Cd323 2.223 . S
O322 C330 1.315 . S
Cd323 O322 2.223 . S
Cd323 O326 2.297 . S
Cd323 O327 2.439 . S
Cd323 O333 2.240 . S
Cd324 O325 2.240 . S
Cd324 O332 2.223 . S
Cd324 O334 2.297 . S
Cd324 O335 2.439 . S
O325 Cd324 2.240 . S
O325 C330 1.279 . S
O326 Cd323 2.297 . S
O326 C328 1.247 . S
O327 Cd323 2.439 . S
O327 C328 1.208 . S
C328 O326 1.247 . S
C328 O327 1.208 . S
C329 O334 1.247 . S
C329 O335 1.208 . S
C330 O322 1.315 . S
C330 O325 1.279 . S
C331 O332 1.315 . S
C331 O333 1.279 . S
O332 Cd324 2.223 . S
O332 C331 1.315 . S
O333 Cd323 2.240 . S
O333 C331 1.279 . S
O334 Cd324 2.297 . S
O334 C329 1.247 . S
O335 Cd324 2.439 . S
O335 C329 1.208 . S
O336 Cd337 2.223 . S
O336 C344 1.315 . S
Cd337 O336 2.223 . S
Cd337 O340 2.297 . S
Cd337 O341 2.439 . S
Cd337 O347 2.240 . S
Cd338 O339 2.240 . S
Cd338 O346 2.223 . S
Cd338 O348 2.297 . S
Cd338 O349 2.439 . S
O339 Cd338 2.240 . S
O339 C344 1.279 . S
O340 Cd337 2.297 . S
O340 C342 1.247 . S
O341 Cd337 2.439 . S
O341 C342 1.208 . S
C342 O340 1.247 . S
C342 O341 1.208 . S
C343 O348 1.247 . S
C343 O349 1.208 . S
C344 O336 1.315 . S
C344 O339 1.279 . S
C345 O346 1.315 . S
C345 O347 1.279 . S
O346 Cd338 2.223 . S
O346 C345 1.315 . S
O347 Cd337 2.240 . S
O347 C345 1.279 . S
O348 Cd338 2.297 . S
O348 C343 1.247 . S
O349 Cd338 2.439 . S
O349 C343 1.208 . S
O350 Cd351 2.223 . S
O350 C358 1.315 . S
Cd351 O350 2.223 . S
Cd351 O354 2.297 . S
Cd351 O355 2.439 . S
Cd351 O361 2.240 . S
Cd352 O353 2.240 . S
Cd352 O360 2.223 . S
Cd352 O362 2.297 . S
Cd352 O363 2.439 . S
O353 Cd352 2.240 . S
O353 C358 1.279 . S
O354 Cd351 2.297 . S
O354 C356 1.247 . S
O355 Cd351 2.439 . S
O355 C356 1.208 . S
C356 O354 1.247 . S
C356 O355 1.208 . S
C357 O362 1.247 . S
C357 O363 1.208 . S
C358 O350 1.315 . S
C358 O353 1.279 . S
C359 O360 1.315 . S
C359 O361 1.279 . S
O360 Cd352 2.223 . S
O360 C359 1.315 . S
O361 Cd351 2.240 . S
O361 C359 1.279 . S
O362 Cd352 2.297 . S
O362 C357 1.247 . S
O363 Cd352 2.439 . S
O363 C357 1.208 . S
O364 Cd365 2.223 . S
O364 C372 1.315 . S
Cd365 O364 2.223 . S
Cd365 O368 2.297 . S
Cd365 O369 2.439 . S
Cd365 O375 2.240 . S
Cd366 O367 2.240 . S
Cd366 O374 2.223 . S
Cd366 O376 2.297 . S
Cd366 O377 2.439 . S
O367 Cd366 2.240 . S
O367 C372 1.279 . S
O368 Cd365 2.297 . S
O368 C370 1.247 . S
O369 Cd365 2.439 . S
O369 C370 1.208 . S
C370 O368 1.247 . S
C370 O369 1.208 . S
C371 O376 1.247 . S
C371 O377 1.208 . S
C372 O364 1.315 . S
C372 O367 1.279 . S
C373 O374 1.315 . S
C373 O375 1.279 . S
O374 Cd366 2.223 . S
O374 C373 1.315 . S
O375 Cd365 2.240 . S
O375 C373 1.279 . S
O376 Cd366 2.297 . S
O376 C371 1.247 . S
O377 Cd366 2.439 . S
O377 C371 1.208 . S
O378 Cd379 2.223 . S
O378 C386 1.315 . S
Cd379 O378 2.223 . S
Cd379 O382 2.297 . S
Cd379 O383 2.439 . S
Cd379 O389 2.240 . S
Cd380 O381 2.240 . S
Cd380 O388 2.223 . S
Cd380 O390 2.297 . S
Cd380 O391 2.439 . S
O381 Cd380 2.240 . S
O381 C386 1.279 . S
O382 Cd379 2.297 . S
O382 C384 1.247 . S
O383 Cd379 2.439 . S
O383 C384 1.208 . S
C384 O382 1.247 . S
C384 O383 1.208 . S
C385 O390 1.247 . S
C385 O391 1.208 . S
C386 O378 1.315 . S
C386 O381 1.279 . S
C387 O388 1.315 . S
C387 O389 1.279 . S
O388 Cd380 2.223 . S
O388 C387 1.315 . S
O389 Cd379 2.240 . S
O389 C387 1.279 . S
O390 Cd380 2.297 . S
O390 C385 1.247 . S
O391 Cd380 2.439 . S
O391 C385 1.208 . S
O392 Cd393 2.223 . S
O392 C400 1.315 . S
Cd393 O392 2.223 . S
Cd393 O396 2.297 . S
Cd393 O397 2.439 . S
Cd393 O403 2.240 . S
Cd394 O395 2.240 . S
Cd394 O402 2.223 . S
Cd394 O404 2.297 . S
Cd394 O405 2.439 . S
O395 Cd394 2.240 . S
O395 C400 1.279 . S
O396 Cd393 2.297 . S
O396 C398 1.247 . S
O397 Cd393 2.439 . S
O397 C398 1.208 . S
C398 O396 1.247 . S
C398 O397 1.208 . S
C399 O404 1.247 . S
C399 O405 1.208 . S
C400 O392 1.315 . S
C400 O395 1.279 . S
C401 O402 1.315 . S
C401 O403 1.279 . S
O402 Cd394 2.223 . S
O402 C401 1.315 . S
O403 Cd393 2.240 . S
O403 C401 1.279 . S
O404 Cd394 2.297 . S
O404 C399 1.247 . S
O405 Cd394 2.439 . S
O405 C399 1.208 . S
O406 Cd407 2.223 . S
O406 C414 1.315 . S
Cd407 O406 2.223 . S
Cd407 O410 2.297 . S
Cd407 O411 2.439 . S
Cd407 O417 2.240 . S
Cd408 O409 2.240 . S
Cd408 O416 2.223 . S
Cd408 O418 2.297 . S
Cd408 O419 2.439 . S
O409 Cd408 2.240 . S
O409 C414 1.279 . S
O410 Cd407 2.297 . S
O410 C412 1.247 . S
O411 Cd407 2.439 . S
O411 C412 1.208 . S
C412 O410 1.247 . S
C412 O411 1.208 . S
C413 O418 1.247 . S
C413 O419 1.208 . S
C414 O406 1.315 . S
C414 O409 1.279 . S
C415 O416 1.315 . S
C415 O417 1.279 . S
O416 Cd408 2.223 . S
O416 C415 1.315 . S
O417 Cd407 2.240 . S
O417 C415 1.279 . S
O418 Cd408 2.297 . S
O418 C413 1.247 . S
O419 Cd408 2.439 . S
O419 C413 1.208 . S
O420 Cd421 2.223 . S
O420 C428 1.315 . S
Cd421 O420 2.223 . S
Cd421 O424 2.297 . S
Cd421 O425 2.439 . S
Cd421 O431 2.240 . S
Cd422 O423 2.240 . S
Cd422 O430 2.223 . S
Cd422 O432 2.297 . S
Cd422 O433 2.439 . S
O423 Cd422 2.240 . S
O423 C428 1.279 . S
O424 Cd421 2.297 . S
O424 C426 1.247 . S
O425 Cd421 2.439 . S
O425 C426 1.208 . S
C426 O424 1.247 . S
C426 O425 1.208 . S
C427 O432 1.247 . S
C427 O433 1.208 . S
C428 O420 1.315 . S
C428 O423 1.279 . S
C429 O430 1.315 . S
C429 O431 1.279 . S
O430 Cd422 2.223 . S
O430 C429 1.315 . S
O431 Cd421 2.240 . S
O431 C429 1.279 . S
O432 Cd422 2.297 . S
O432 C427 1.247 . S
O433 Cd422 2.439 . S
O433 C427 1.208 . S
O434 Cd435 2.223 . S
O434 C442 1.315 . S
Cd435 O434 2.223 . S
Cd435 O438 2.297 . S
Cd435 O439 2.439 . S
Cd435 O445 2.240 . S
Cd436 O437 2.240 . S
Cd436 O444 2.223 . S
Cd436 O446 2.297 . S
Cd436 O447 2.439 . S
O437 Cd436 2.240 . S
O437 C442 1.279 . S
O438 Cd435 2.297 . S
O438 C440 1.247 . S
O439 Cd435 2.439 . S
O439 C440 1.208 . S
C440 O438 1.247 . S
C440 O439 1.208 . S
C441 O446 1.247 . S
C441 O447 1.208 . S
C442 O434 1.315 . S
C442 O437 1.279 . S
C443 O444 1.315 . S
C443 O445 1.279 . S
O444 Cd436 2.223 . S
O444 C443 1.315 . S
O445 Cd435 2.240 . S
O445 C443 1.279 . S
O446 Cd436 2.297 . S
O446 C441 1.247 . S
O447 Cd436 2.439 . S
O447 C441 1.208 . S
O448 Cd449 2.223 . S
O448 C456 1.315 . S
Cd449 O448 2.223 . S
Cd449 O452 2.297 . S
Cd449 O453 2.439 . S
Cd449 O459 2.240 . S
Cd450 O451 2.240 . S
Cd450 O458 2.223 . S
Cd450 O460 2.297 . S
Cd450 O461 2.439 . S
O451 Cd450 2.240 . S
O451 C456 1.279 . S
O452 Cd449 2.297 . S
O452 C454 1.247 . S
O453 Cd449 2.439 . S
O453 C454 1.208 . S
C454 O452 1.247 . S
C454 O453 1.208 . S
C455 O460 1.247 . S
C455 O461 1.208 . S
C456 O448 1.315 . S
C456 O451 1.279 . S
C457 O458 1.315 . S
C457 O459 1.279 . S
O458 Cd450 2.223 . S
O458 C457 1.315 . S
O459 Cd449 2.240 . S
O459 C457 1.279 . S
O460 Cd450 2.297 . S
O460 C455 1.247 . S
O461 Cd450 2.439 . S
O461 C455 1.208 . S
O462 Cd463 2.223 . S
O462 C470 1.315 . S
Cd463 O462 2.223 . S
Cd463 O466 2.297 . S
Cd463 O467 2.439 . S
Cd463 O473 2.240 . S
Cd464 O465 2.240 . S
Cd464 O472 2.223 . S
Cd464 O474 2.297 . S
Cd464 O475 2.439 . S
O465 Cd464 2.240 . S
O465 C470 1.279 . S
O466 Cd463 2.297 . S
O466 C468 1.247 . S
O467 Cd463 2.439 . S
O467 C468 1.208 . S
C468 O466 1.247 . S
C468 O467 1.208 . S
C469 O474 1.247 . S
C469 O475 1.208 . S
C470 O462 1.315 . S
C470 O465 1.279 . S
C471 O472 1.315 . S
C471 O473 1.279 . S
O472 Cd464 2.223 . S
O472 C471 1.315 . S
O473 Cd463 2.240 . S
O473 C471 1.279 . S
O474 Cd464 2.297 . S
O474 C469 1.247 . S
O475 Cd464 2.439 . S
O475 C469 1.208 . S
O476 Cd477 2.223 . S
O476 C484 1.315 . S
Cd477 O476 2.223 . S
Cd477 O480 2.297 . S
Cd477 O481 2.439 . S
Cd477 O487 2.240 . S
Cd478 O479 2.240 . S
Cd478 O486 2.223 . S
Cd478 O488 2.297 . S
Cd478 O489 2.439 . S
O479 Cd478 2.240 . S
O479 C484 1.279 . S
O480 Cd477 2.297 . S
O480 C482 1.247 . S
O481 Cd477 2.439 . S
O481 C482 1.208 . S
C482 O480 1.247 . S
C482 O481 1.208 . S
C483 O488 1.247 . S
C483 O489 1.208 . S
C484 O476 1.315 . S
C484 O479 1.279 . S
C485 O486 1.315 . S
C485 O487 1.279 . S
O486 Cd478 2.223 . S
O486 C485 1.315 . S
O487 Cd477 2.240 . S
O487 C485 1.279 . S
O488 Cd478 2.297 . S
O488 C483 1.247 . S
O489 Cd478 2.439 . S
O489 C483 1.208 . S
O490 Cd491 2.223 . S
O490 C498 1.315 . S
Cd491 O490 2.223 . S
Cd491 O494 2.297 . S
Cd491 O495 2.439 . S
Cd491 O501 2.240 . S
Cd492 O493 2.240 . S
Cd492 O500 2.223 . S
Cd492 O502 2.297 . S
Cd492 O503 2.439 . S
O493 Cd492 2.240 . S
O493 C498 1.279 . S
O494 Cd491 2.297 . S
O494 C496 1.247 . S
O495 Cd491 2.439 . S
O495 C496 1.208 . S
C496 O494 1.247 . S
C496 O495 1.208 . S
C497 O502 1.247 . S
C497 O503 1.208 . S
C498 O490 1.315 . S
C498 O493 1.279 . S
C499 O500 1.315 . S
C499 O501 1.279 . S
O500 Cd492 2.223 . S
O500 C499 1.315 . S
O501 Cd491 2.240 . S
O501 C499 1.279 . S
O502 Cd492 2.297 . S
O502 C497 1.247 . S
O503 Cd492 2.439 . S
O503 C497 1.208 . S
H504 C512 0.950 . S
H505 C517 0.950 . S
H506 C514 0.950 . S
H507 C516 0.950 . S
H508 C518 0.950 . S
H509 C520 0.950 . S
H510 C522 0.950 . S
H511 C523 0.950 . S
C512 H504 0.950 . S
C512 C513 1.386 . S
C512 C514 1.391 . S
C513 C512 1.386 . S
C513 C517 1.393 . S
C514 H506 0.950 . S
C514 C512 1.391 . S
C514 C515 1.400 . S
C515 C514 1.400 . S
C515 C516 1.398 . S
C515 C521 1.491 . S
C516 H507 0.950 . S
C516 C515 1.398 . S
C516 C517 1.391 . S
C517 H505 0.950 . S
C517 C513 1.393 . S
C517 C516 1.391 . S
C518 H508 0.950 . S
C518 C519 1.386 . S
C518 C520 1.391 . S
C519 C518 1.386 . S
C519 C523 1.393 . S
C520 H509 0.950 . S
C520 C518 1.391 . S
C520 C521 1.400 . S
C521 C515 1.491 . S
C521 C520 1.400 . S
C521 C522 1.398 . S
C522 H510 0.950 . S
C522 C521 1.398 . S
C522 C523 1.391 . S
C523 H511 0.950 . S
C523 C519 1.393 . S
C523 C522 1.391 . S
H524 C532 0.950 . S
H525 C537 0.950 . S
H526 C534 0.950 . S
H527 C536 0.950 . S
H528 C538 0.950 . S
H529 C540 0.950 . S
H530 C542 0.950 . S
H531 C543 0.950 . S
C532 H524 0.950 . S
C532 C533 1.386 . S
C532 C534 1.391 . S
C533 C532 1.386 . S
C533 C537 1.393 . S
C534 H526 0.950 . S
C534 C532 1.391 . S
C534 C535 1.400 . S
C535 C534 1.400 . S
C535 C536 1.398 . S
C535 C541 1.491 . S
C536 H527 0.950 . S
C536 C535 1.398 . S
C536 C537 1.391 . S
C537 H525 0.950 . S
C537 C533 1.393 . S
C537 C536 1.391 . S
C538 H528 0.950 . S
C538 C539 1.386 . S
C538 C540 1.391 . S
C539 C538 1.386 . S
C539 C543 1.393 . S
C540 H529 0.950 . S
C540 C538 1.391 . S
C540 C541 1.400 . S
C541 C535 1.491 . S
C541 C540 1.400 . S
C541 C542 1.398 . S
C542 H530 0.950 . S
C542 C541 1.398 . S
C542 C543 1.391 . S
C543 H531 0.950 . S
C543 C539 1.393 . S
C543 C542 1.391 . S
H544 C552 0.950 . S
H545 C557 0.950 . S
H546 C554 0.950 . S
H547 C556 0.950 . S
H548 C558 0.950 . S
H549 C560 0.950 . S
H550 C562 0.950 . S
H551 C563 0.950 . S
C552 H544 0.950 . S
C552 C553 1.386 . S
C552 C554 1.391 . S
C553 C552 1.386 . S
C553 C557 1.393 . S
C554 H546 0.950 . S
C554 C552 1.391 . S
C554 C555 1.400 . S
C555 C554 1.400 . S
C555 C556 1.398 . S
C555 C561 1.491 . S
C556 H547 0.950 . S
C556 C555 1.398 . S
C556 C557 1.391 . S
C557 H545 0.950 . S
C557 C553 1.393 . S
C557 C556 1.391 . S
C558 H548 0.950 . S
C558 C559 1.386 . S
C558 C560 1.391 . S
C559 C558 1.386 . S
C559 C563 1.393 . S
C560 H549 0.950 . S
C560 C558 1.391 . S
C560 C561 1.400 . S
C561 C555 1.491 . S
C561 C560 1.400 . S
C561 C562 1.398 . S
C562 H550 0.950 . S
C562 C561 1.398 . S
C562 C563 1.391 . S
C563 H551 0.950 . S
C563 C559 1.393 . S
C563 C562 1.391 . S
H564 C572 0.950 . S
H565 C577 0.950 . S
H566 C574 0.950 . S
H567 C576 0.950 . S
H568 C578 0.950 . S
H569 C580 0.950 . S
H570 C582 0.950 . S
H571 C583 0.950 . S
C572 H564 0.950 . S
C572 C573 1.386 . S
C572 C574 1.391 . S
C573 C572 1.386 . S
C573 C577 1.393 . S
C574 H566 0.950 . S
C574 C572 1.391 . S
C574 C575 1.400 . S
C575 C574 1.400 . S
C575 C576 1.398 . S
C575 C581 1.491 . S
C576 H567 0.950 . S
C576 C575 1.398 . S
C576 C577 1.391 . S
C577 H565 0.950 . S
C577 C573 1.393 . S
C577 C576 1.391 . S
C578 H568 0.950 . S
C578 C579 1.386 . S
C578 C580 1.391 . S
C579 C578 1.386 . S
C579 C583 1.393 . S
C580 H569 0.950 . S
C580 C578 1.391 . S
C580 C581 1.400 . S
C581 C575 1.491 . S
C581 C580 1.400 . S
C581 C582 1.398 . S
C582 H570 0.950 . S
C582 C581 1.398 . S
C582 C583 1.391 . S
C583 H571 0.950 . S
C583 C579 1.393 . S
C583 C582 1.391 . S
H584 C592 0.950 . S
H585 C597 0.950 1_554 S
H586 C594 0.950 . S
H587 C596 0.950 1_554 S
H588 C598 0.950 1_554 S
H589 C600 0.950 1_554 S
H590 C602 0.950 . S
H591 C603 0.950 . S
C592 H584 0.950 . S
C592 C593 1.386 . S
C592 C594 1.391 . S
C593 C592 1.386 . S
C593 C597 1.393 . S
C594 H586 0.950 . S
C594 C592 1.391 . S
C594 C595 1.400 . S
C595 C594 1.400 . S
C595 C596 1.398 . S
C595 C601 1.491 . S
C596 H587 0.950 1_556 S
C596 C595 1.398 . S
C596 C597 1.391 . S
C597 H585 0.950 1_556 S
C597 C593 1.393 . S
C597 C596 1.391 . S
C598 H588 0.950 1_556 S
C598 C599 1.386 . S
C598 C600 1.391 . S
C599 C598 1.386 . S
C599 C603 1.393 . S
C600 H589 0.950 1_556 S
C600 C598 1.391 . S
C600 C601 1.400 . S
C601 C595 1.491 . S
C601 C600 1.400 . S
C601 C602 1.398 . S
C602 H590 0.950 . S
C602 C601 1.398 . S
C602 C603 1.391 . S
C603 H591 0.950 . S
C603 C599 1.393 . S
C603 C602 1.391 . S
H604 C612 0.950 1_554 S
H605 C617 0.950 . S
H606 C614 0.950 1_554 S
H607 C616 0.950 . S
H608 C618 0.950 . S
H609 C620 0.950 . S
H610 C622 0.950 1_554 S
H611 C623 0.950 1_554 S
C612 H604 0.950 1_556 S
C612 C613 1.386 . S
C612 C614 1.391 . S
C613 C612 1.386 . S
C613 C617 1.393 . S
C614 H606 0.950 1_556 S
C614 C612 1.391 . S
C614 C615 1.400 . S
C615 C614 1.400 . S
C615 C616 1.398 . S
C615 C621 1.491 . S
C616 H607 0.950 . S
C616 C615 1.398 . S
C616 C617 1.391 . S
C617 H605 0.950 . S
C617 C613 1.393 . S
C617 C616 1.391 . S
C618 H608 0.950 . S
C618 C619 1.386 . S
C618 C620 1.391 . S
C619 C618 1.386 . S
C619 C623 1.393 . S
C620 H609 0.950 . S
C620 C618 1.391 . S
C620 C621 1.400 . S
C621 C615 1.491 . S
C621 C620 1.400 . S
C621 C622 1.398 . S
C622 H610 0.950 1_556 S
C622 C621 1.398 . S
C622 C623 1.391 . S
C623 H611 0.950 1_556 S
C623 C619 1.393 . S
C623 C622 1.391 . S
H624 C632 0.950 . S
H625 C637 0.950 . S
H626 C634 0.950 . S
H627 C636 0.950 . S
H628 C638 0.950 . S
H629 C640 0.950 . S
H630 C642 0.950 . S
H631 C643 0.950 . S
C632 H624 0.950 . S
C632 C633 1.386 . S
C632 C634 1.391 . S
C633 C632 1.386 . S
C633 C637 1.393 . S
C634 H626 0.950 . S
C634 C632 1.391 . S
C634 C635 1.400 . S
C635 C634 1.400 . S
C635 C636 1.398 . S
C635 C641 1.491 . S
C636 H627 0.950 . S
C636 C635 1.398 . S
C636 C637 1.391 . S
C637 H625 0.950 . S
C637 C633 1.393 . S
C637 C636 1.391 . S
C638 H628 0.950 . S
C638 C639 1.386 . S
C638 C640 1.391 . S
C639 C638 1.386 . S
C639 C643 1.393 . S
C640 H629 0.950 . S
C640 C638 1.391 . S
C640 C641 1.400 . S
C641 C635 1.491 . S
C641 C640 1.400 . S
C641 C642 1.398 . S
C642 H630 0.950 . S
C642 C641 1.398 . S
C642 C643 1.391 . S
C643 H631 0.950 . S
C643 C639 1.393 . S
C643 C642 1.391 . S
H644 C652 0.950 . S
H645 C657 0.950 . S
H646 C654 0.950 . S
H647 C656 0.950 . S
H648 C658 0.950 . S
H649 C660 0.950 . S
H650 C662 0.950 . S
H651 C663 0.950 . S
C652 H644 0.950 . S
C652 C653 1.386 . S
C652 C654 1.391 . S
C653 C652 1.386 . S
C653 C657 1.393 . S
C654 H646 0.950 . S
C654 C652 1.391 . S
C654 C655 1.400 . S
C655 C654 1.400 . S
C655 C656 1.398 . S
C655 C661 1.491 . S
C656 H647 0.950 . S
C656 C655 1.398 . S
C656 C657 1.391 . S
C657 H645 0.950 . S
C657 C653 1.393 . S
C657 C656 1.391 . S
C658 H648 0.950 . S
C658 C659 1.386 . S
C658 C660 1.391 . S
C659 C658 1.386 . S
C659 C663 1.393 . S
C660 H649 0.950 . S
C660 C658 1.391 . S
C660 C661 1.400 . S
C661 C655 1.491 . S
C661 C660 1.400 . S
C661 C662 1.398 . S
C662 H650 0.950 . S
C662 C661 1.398 . S
C662 C663 1.391 . S
C663 H651 0.950 . S
C663 C659 1.393 . S
C663 C662 1.391 . S
H664 C672 0.950 . S
H665 C677 0.950 . S
H666 C674 0.950 . S
H667 C676 0.950 . S
H668 C678 0.950 . S
H669 C680 0.950 . S
H670 C682 0.950 . S
H671 C683 0.950 . S
C672 H664 0.950 . S
C672 C673 1.386 . S
C672 C674 1.391 . S
C673 C672 1.386 . S
C673 C677 1.393 . S
C674 H666 0.950 . S
C674 C672 1.391 . S
C674 C675 1.400 . S
C675 C674 1.400 . S
C675 C676 1.398 . S
C675 C681 1.491 . S
C676 H667 0.950 . S
C676 C675 1.398 . S
C676 C677 1.391 . S
C677 H665 0.950 . S
C677 C673 1.393 . S
C677 C676 1.391 . S
C678 H668 0.950 . S
C678 C679 1.386 . S
C678 C680 1.391 . S
C679 C678 1.386 . S
C679 C683 1.393 . S
C680 H669 0.950 . S
C680 C678 1.391 . S
C680 C681 1.400 . S
C681 C675 1.491 . S
C681 C680 1.400 . S
C681 C682 1.398 . S
C682 H670 0.950 . S
C682 C681 1.398 . S
C682 C683 1.391 . S
C683 H671 0.950 . S
C683 C679 1.393 . S
C683 C682 1.391 . S
H684 C692 0.950 . S
H685 C697 0.950 . S
H686 C694 0.950 . S
H687 C696 0.950 . S
H688 C698 0.950 . S
H689 C700 0.950 . S
H690 C702 0.950 . S
H691 C703 0.950 . S
C692 H684 0.950 . S
C692 C693 1.386 . S
C692 C694 1.391 . S
C693 C692 1.386 . S
C693 C697 1.393 . S
C694 H686 0.950 . S
C694 C692 1.391 . S
C694 C695 1.400 . S
C695 C694 1.400 . S
C695 C696 1.398 . S
C695 C701 1.491 . S
C696 H687 0.950 . S
C696 C695 1.398 . S
C696 C697 1.391 . S
C697 H685 0.950 . S
C697 C693 1.393 . S
C697 C696 1.391 . S
C698 H688 0.950 . S
C698 C699 1.386 . S
C698 C700 1.391 . S
C699 C698 1.386 . S
C699 C703 1.393 . S
C700 H689 0.950 . S
C700 C698 1.391 . S
C700 C701 1.400 . S
C701 C695 1.491 . S
C701 C700 1.400 . S
C701 C702 1.398 . S
C702 H690 0.950 . S
C702 C701 1.398 . S
C702 C703 1.391 . S
C703 H691 0.950 . S
C703 C699 1.393 . S
C703 C702 1.391 . S
H704 C712 0.950 . S
H705 C717 0.950 . S
H706 C714 0.950 . S
H707 C716 0.950 . S
H708 C718 0.950 . S
H709 C720 0.950 . S
H710 C722 0.950 . S
H711 C723 0.950 . S
C712 H704 0.950 . S
C712 C713 1.386 . S
C712 C714 1.391 . S
C713 C712 1.386 . S
C713 C717 1.393 . S
C714 H706 0.950 . S
C714 C712 1.391 . S
C714 C715 1.400 . S
C715 C714 1.400 . S
C715 C716 1.398 . S
C715 C721 1.491 . S
C716 H707 0.950 . S
C716 C715 1.398 . S
C716 C717 1.391 . S
C717 H705 0.950 . S
C717 C713 1.393 . S
C717 C716 1.391 . S
C718 H708 0.950 . S
C718 C719 1.386 . S
C718 C720 1.391 . S
C719 C718 1.386 . S
C719 C723 1.393 . S
C720 H709 0.950 . S
C720 C718 1.391 . S
C720 C721 1.400 . S
C721 C715 1.491 . S
C721 C720 1.400 . S
C721 C722 1.398 . S
C722 H710 0.950 . S
C722 C721 1.398 . S
C722 C723 1.391 . S
C723 H711 0.950 . S
C723 C719 1.393 . S
C723 C722 1.391 . S
H724 C732 0.950 . S
H725 C737 0.950 . S
H726 C734 0.950 . S
H727 C736 0.950 . S
H728 C738 0.950 . S
H729 C740 0.950 . S
H730 C742 0.950 . S
H731 C743 0.950 . S
C732 H724 0.950 . S
C732 C733 1.386 . S
C732 C734 1.391 . S
C733 C732 1.386 . S
C733 C737 1.393 . S
C734 H726 0.950 . S
C734 C732 1.391 . S
C734 C735 1.400 . S
C735 C734 1.400 . S
C735 C736 1.398 . S
C735 C741 1.491 . S
C736 H727 0.950 . S
C736 C735 1.398 . S
C736 C737 1.391 . S
C737 H725 0.950 . S
C737 C733 1.393 . S
C737 C736 1.391 . S
C738 H728 0.950 . S
C738 C739 1.386 . S
C738 C740 1.391 . S
C739 C738 1.386 . S
C739 C743 1.393 . S
C740 H729 0.950 . S
C740 C738 1.391 . S
C740 C741 1.400 . S
C741 C735 1.491 . S
C741 C740 1.400 . S
C741 C742 1.398 . S
C742 H730 0.950 . S
C742 C741 1.398 . S
C742 C743 1.391 . S
C743 H731 0.950 . S
C743 C739 1.393 . S
C743 C742 1.391 . S
H744 C752 0.950 . S
H745 C757 0.950 . S
H746 C754 0.950 . S
H747 C756 0.950 . S
H748 C758 0.950 . S
H749 C760 0.950 . S
H750 C762 0.950 . S
H751 C763 0.950 . S
C752 H744 0.950 . S
C752 C753 1.386 . S
C752 C754 1.391 . S
C753 C752 1.386 . S
C753 C757 1.393 . S
C754 H746 0.950 . S
C754 C752 1.391 . S
C754 C755 1.400 . S
C755 C754 1.400 . S
C755 C756 1.398 . S
C755 C761 1.491 . S
C756 H747 0.950 . S
C756 C755 1.398 . S
C756 C757 1.391 . S
C757 H745 0.950 . S
C757 C753 1.393 . S
C757 C756 1.391 . S
C758 H748 0.950 . S
C758 C759 1.386 . S
C758 C760 1.391 . S
C759 C758 1.386 . S
C759 C763 1.393 . S
C760 H749 0.950 . S
C760 C758 1.391 . S
C760 C761 1.400 . S
C761 C755 1.491 . S
C761 C760 1.400 . S
C761 C762 1.398 . S
C762 H750 0.950 . S
C762 C761 1.398 . S
C762 C763 1.391 . S
C763 H751 0.950 . S
C763 C759 1.393 . S
C763 C762 1.391 . S
H764 C772 0.950 . S
H765 C777 0.950 . S
H766 C774 0.950 . S
H767 C776 0.950 . S
H768 C778 0.950 . S
H769 C780 0.950 . S
H770 C782 0.950 . S
H771 C783 0.950 . S
C772 H764 0.950 . S
C772 C773 1.386 . S
C772 C774 1.391 . S
C773 C772 1.386 . S
C773 C777 1.393 . S
C774 H766 0.950 . S
C774 C772 1.391 . S
C774 C775 1.400 . S
C775 C774 1.400 . S
C775 C776 1.398 . S
C775 C781 1.491 . S
C776 H767 0.950 . S
C776 C775 1.398 . S
C776 C777 1.391 . S
C777 H765 0.950 . S
C777 C773 1.393 . S
C777 C776 1.391 . S
C778 H768 0.950 . S
C778 C779 1.386 . S
C778 C780 1.391 . S
C779 C778 1.386 . S
C779 C783 1.393 . S
C780 H769 0.950 . S
C780 C778 1.391 . S
C780 C781 1.400 . S
C781 C775 1.491 . S
C781 C780 1.400 . S
C781 C782 1.398 . S
C782 H770 0.950 . S
C782 C781 1.398 . S
C782 C783 1.391 . S
C783 H771 0.950 . S
C783 C779 1.393 . S
C783 C782 1.391 . S
H784 C792 0.950 . S
H785 C797 0.950 . S
H786 C794 0.950 . S
H787 C796 0.950 . S
H788 C798 0.950 . S
H789 C800 0.950 . S
H790 C802 0.950 . S
H791 C803 0.950 . S
C792 H784 0.950 . S
C792 C793 1.386 . S
C792 C794 1.391 . S
C793 C792 1.386 . S
C793 C797 1.393 . S
C794 H786 0.950 . S
C794 C792 1.391 . S
C794 C795 1.400 . S
C795 C794 1.400 . S
C795 C796 1.398 . S
C795 C801 1.491 . S
C796 H787 0.950 . S
C796 C795 1.398 . S
C796 C797 1.391 . S
C797 H785 0.950 . S
C797 C793 1.393 . S
C797 C796 1.391 . S
C798 H788 0.950 . S
C798 C799 1.386 . S
C798 C800 1.391 . S
C799 C798 1.386 . S
C799 C803 1.393 . S
C800 H789 0.950 . S
C800 C798 1.391 . S
C800 C801 1.400 . S
C801 C795 1.491 . S
C801 C800 1.400 . S
C801 C802 1.398 . S
C802 H790 0.950 . S
C802 C801 1.398 . S
C802 C803 1.391 . S
C803 H791 0.950 . S
C803 C799 1.393 . S
C803 C802 1.391 . S
H804 C812 0.950 . S
H805 C817 0.950 . S
H806 C814 0.950 . S
H807 C816 0.950 . S
H808 C818 0.950 . S
H809 C820 0.950 . S
H810 C822 0.950 . S
H811 C823 0.950 . S
C812 H804 0.950 . S
C812 C813 1.386 . S
C812 C814 1.391 . S
C813 C812 1.386 . S
C813 C817 1.393 . S
C814 H806 0.950 . S
C814 C812 1.391 . S
C814 C815 1.400 . S
C815 C814 1.400 . S
C815 C816 1.398 . S
C815 C821 1.491 . S
C816 H807 0.950 . S
C816 C815 1.398 . S
C816 C817 1.391 . S
C817 H805 0.950 . S
C817 C813 1.393 . S
C817 C816 1.391 . S
C818 H808 0.950 . S
C818 C819 1.386 . S
C818 C820 1.391 . S
C819 C818 1.386 . S
C819 C823 1.393 . S
C820 H809 0.950 . S
C820 C818 1.391 . S
C820 C821 1.400 . S
C821 C815 1.491 . S
C821 C820 1.400 . S
C821 C822 1.398 . S
C822 H810 0.950 . S
C822 C821 1.398 . S
C822 C823 1.391 . S
C823 H811 0.950 . S
C823 C819 1.393 . S
C823 C822 1.391 . S
H824 C832 0.950 . S
H825 C837 0.950 . S
H826 C834 0.950 . S
H827 C836 0.950 . S
H828 C838 0.950 . S
H829 C840 0.950 . S
H830 C842 0.950 . S
H831 C843 0.950 . S
C832 H824 0.950 . S
C832 C833 1.386 . S
C832 C834 1.391 . S
C833 C832 1.386 . S
C833 C837 1.393 . S
C834 H826 0.950 . S
C834 C832 1.391 . S
C834 C835 1.400 . S
C835 C834 1.400 . S
C835 C836 1.398 . S
C835 C841 1.491 . S
C836 H827 0.950 . S
C836 C835 1.398 . S
C836 C837 1.391 . S
C837 H825 0.950 . S
C837 C833 1.393 . S
C837 C836 1.391 . S
C838 H828 0.950 . S
C838 C839 1.386 . S
C838 C840 1.391 . S
C839 C838 1.386 . S
C839 C843 1.393 . S
C840 H829 0.950 . S
C840 C838 1.391 . S
C840 C841 1.400 . S
C841 C835 1.491 . S
C841 C840 1.400 . S
C841 C842 1.398 . S
C842 H830 0.950 . S
C842 C841 1.398 . S
C842 C843 1.391 . S
C843 H831 0.950 . S
C843 C839 1.393 . S
C843 C842 1.391 . S
H844 C852 0.950 . S
H845 C857 0.950 . S
H846 C854 0.950 . S
H847 C856 0.950 . S
H848 C858 0.950 . S
H849 C860 0.950 . S
H850 C862 0.950 . S
H851 C863 0.950 . S
C852 H844 0.950 . S
C852 C853 1.386 . S
C852 C854 1.391 . S
C853 C852 1.386 . S
C853 C857 1.393 . S
C854 H846 0.950 . S
C854 C852 1.391 . S
C854 C855 1.400 . S
C855 C854 1.400 . S
C855 C856 1.398 . S
C855 C861 1.491 . S
C856 H847 0.950 . S
C856 C855 1.398 . S
C856 C857 1.391 . S
C857 H845 0.950 . S
C857 C853 1.393 . S
C857 C856 1.391 . S
C858 H848 0.950 . S
C858 C859 1.386 . S
C858 C860 1.391 . S
C859 C858 1.386 . S
C859 C863 1.393 . S
C860 H849 0.950 . S
C860 C858 1.391 . S
C860 C861 1.400 . S
C861 C855 1.491 . S
C861 C860 1.400 . S
C861 C862 1.398 . S
C862 H850 0.950 . S
C862 C861 1.398 . S
C862 C863 1.391 . S
C863 H851 0.950 . S
C863 C859 1.393 . S
C863 C862 1.391 . S
H864 C872 0.950 . S
H865 C877 0.951 . S
H866 C874 0.950 . S
H867 C876 0.950 . S
H868 C878 0.950 . S
H869 C880 0.950 . S
H870 C882 0.950 . S
H871 C883 0.951 . S
C872 H864 0.950 . S
C872 C873 1.386 . S
C872 C874 1.391 . S
C873 C872 1.386 . S
C873 C877 1.390 1_554 S
C874 H866 0.950 . S
C874 C872 1.391 . S
C874 C875 1.400 . S
C875 C874 1.400 . S
C875 C876 1.398 1_554 S
C875 C881 1.491 1_454 S
C876 H867 0.950 . S
C876 C875 1.398 1_556 S
C876 C877 1.392 . S
C877 H865 0.951 . S
C877 C873 1.390 1_556 S
C877 C876 1.392 . S
C878 H868 0.950 . S
C878 C879 1.386 . S
C878 C880 1.391 . S
C879 C878 1.386 . S
C879 C883 1.392 1_556 S
C880 H869 0.950 . S
C880 C878 1.391 . S
C880 C881 1.400 . S
C881 C875 1.491 1_656 S
C881 C880 1.400 . S
C881 C882 1.398 1_556 S
C882 H870 0.950 . S
C882 C881 1.398 1_554 S
C882 C883 1.391 . S
C883 H871 0.951 . S
C883 C879 1.392 1_554 S
C883 C882 1.391 . S
H884 C892 0.950 . S
H885 C897 0.950 . S
H886 C894 0.950 . S
H887 C896 0.950 . S
H888 C898 0.950 . S
H889 C900 0.950 . S
H890 C902 0.950 . S
H891 C903 0.950 . S
C892 H884 0.950 . S
C892 C893 1.386 1_554 S
C892 C894 1.391 . S
C893 C892 1.386 1_556 S
C893 C897 1.393 . S
C894 H886 0.950 . S
C894 C892 1.391 . S
C894 C895 1.400 1_554 S
C895 C894 1.400 1_556 S
C895 C896 1.398 . S
C895 C901 1.491 1_556 S
C896 H887 0.950 . S
C896 C895 1.398 . S
C896 C897 1.391 . S
C897 H885 0.950 . S
C897 C893 1.393 . S
C897 C896 1.391 . S
C898 H888 0.950 . S
C898 C899 1.386 1_556 S
C898 C900 1.391 . S
C899 C898 1.386 1_554 S
C899 C903 1.393 . S
C900 H889 0.950 . S
C900 C898 1.391 . S
C900 C901 1.400 1_556 S
C901 C895 1.491 1_554 S
C901 C900 1.400 1_554 S
C901 C902 1.398 . S
C902 H890 0.950 . S
C902 C901 1.398 . S
C902 C903 1.391 . S
C903 H891 0.950 . S
C903 C899 1.393 . S
C903 C902 1.391 . S
H904 C912 0.950 . S
H905 C917 0.950 . S
H906 C914 0.950 . S
H907 C916 0.950 . S
H908 C918 0.950 . S
H909 C920 0.950 . S
H910 C922 0.950 . S
H911 C923 0.950 . S
C912 H904 0.950 . S
C912 C913 1.386 . S
C912 C914 1.391 . S
C913 C912 1.386 . S
C913 C917 1.393 1_554 S
C914 H906 0.950 . S
C914 C912 1.391 . S
C914 C915 1.400 . S
C915 C914 1.400 . S
C915 C916 1.398 1_554 S
C915 C921 1.491 1_564 S
C916 H907 0.950 . S
C916 C915 1.398 1_556 S
C916 C917 1.391 . S
C917 H905 0.950 . S
C917 C913 1.393 1_556 S
C917 C916 1.391 . S
C918 H908 0.950 . S
C918 C919 1.386 . S
C918 C920 1.391 . S
C919 C918 1.386 . S
C919 C923 1.393 1_556 S
C920 H909 0.950 . S
C920 C918 1.391 . S
C920 C921 1.400 . S
C921 C915 1.491 1_546 S
C921 C920 1.400 . S
C921 C922 1.398 1_556 S
C922 H910 0.950 . S
C922 C921 1.398 1_554 S
C922 C923 1.391 . S
C923 H911 0.950 . S
C923 C919 1.393 1_554 S
C923 C922 1.391 . S
H924 C932 0.950 . S
H925 C937 0.950 . S
H926 C934 0.950 . S
H927 C936 0.950 . S
H928 C938 0.950 . S
H929 C940 0.950 . S
H930 C942 0.950 . S
H931 C943 0.950 . S
C932 H924 0.950 . S
C932 C933 1.386 . S
C932 C934 1.391 . S
C933 C932 1.386 . S
C933 C937 1.393 1_556 S
C934 H926 0.950 . S
C934 C932 1.391 . S
C934 C935 1.400 . S
C935 C934 1.400 . S
C935 C936 1.398 1_556 S
C935 C941 1.491 1_656 S
C936 H927 0.950 . S
C936 C935 1.398 1_554 S
C936 C937 1.391 . S
C937 H925 0.950 . S
C937 C933 1.393 1_554 S
C937 C936 1.391 . S
C938 H928 0.950 . S
C938 C939 1.386 . S
C938 C940 1.391 . S
C939 C938 1.386 . S
C939 C943 1.393 1_554 S
C940 H929 0.950 . S
C940 C938 1.391 . S
C940 C941 1.400 . S
C941 C935 1.491 1_454 S
C941 C940 1.400 . S
C941 C942 1.398 1_554 S
C942 H930 0.950 . S
C942 C941 1.398 1_556 S
C942 C943 1.391 . S
C943 H931 0.950 . S
C943 C939 1.393 1_556 S
C943 C942 1.391 . S
H944 C952 0.950 . S
H945 C957 0.950 . S
H946 C954 0.950 . S
H947 C956 0.950 . S
H948 C958 0.950 . S
H949 C960 0.950 . S
H950 C962 0.950 . S
H951 C963 0.950 . S
C952 H944 0.950 . S
C952 C953 1.386 . S
C952 C954 1.391 . S
C953 C952 1.386 . S
C953 C957 1.393 . S
C954 H946 0.950 . S
C954 C952 1.391 . S
C954 C955 1.400 . S
C955 C954 1.400 . S
C955 C956 1.398 . S
C955 C961 1.491 1_556 S
C956 H947 0.950 . S
C956 C955 1.398 . S
C956 C957 1.391 . S
C957 H945 0.950 . S
C957 C953 1.393 . S
C957 C956 1.391 . S
C958 H948 0.950 . S
C958 C959 1.386 . S
C958 C960 1.391 . S
C959 C958 1.386 . S
C959 C963 1.393 . S
C960 H949 0.950 . S
C960 C958 1.391 . S
C960 C961 1.400 . S
C961 C955 1.491 1_554 S
C961 C960 1.400 . S
C961 C962 1.398 . S
C962 H950 0.950 . S
C962 C961 1.398 . S
C962 C963 1.391 . S
C963 H951 0.950 . S
C963 C959 1.393 . S
C963 C962 1.391 . S
H964 C972 0.950 . S
H965 C977 0.950 . S
H966 C974 0.950 . S
H967 C976 0.950 1_554 S
H968 C978 0.950 . S
H969 C980 0.950 . S
H970 C982 0.950 1_556 S
H971 C983 0.950 . S
C972 H964 0.950 . S
C972 C973 1.386 . S
C972 C974 1.391 . S
C973 C972 1.386 . S
C973 C977 1.393 . S
C974 H966 0.950 . S
C974 C972 1.391 . S
C974 C975 1.400 . S
C975 C974 1.400 . S
C975 C976 1.398 . S
C975 C981 1.491 1_546 S
C976 H967 0.950 1_556 S
C976 C975 1.398 . S
C976 C977 1.391 . S
C977 H965 0.950 . S
C977 C973 1.393 . S
C977 C976 1.391 . S
C978 H968 0.950 . S
C978 C979 1.386 . S
C978 C980 1.391 . S
C979 C978 1.386 . S
C979 C983 1.393 . S
C980 H969 0.950 . S
C980 C978 1.391 . S
C980 C981 1.400 . S
C981 C975 1.491 1_564 S
C981 C980 1.400 . S
C981 C982 1.398 . S
C982 H970 0.950 1_554 S
C982 C981 1.398 . S
C982 C983 1.391 . S
C983 H971 0.950 . S
C983 C979 1.393 . S
C983 C982 1.391 . S
H984 C992 0.950 . S
H985 C997 0.950 . S
H986 C994 0.950 . S
H987 C996 0.950 . S
H988 C998 0.950 . S
H989 C1000 0.950 . S
H990 C1002 0.950 . S
H991 C1003 0.950 . S
C992 H984 0.950 . S
C992 C993 1.386 . S
C992 C994 1.391 . S
C993 C992 1.386 . S
C993 C997 1.393 . S
C994 H986 0.950 . S
C994 C992 1.391 . S
C994 C995 1.400 . S
C995 C994 1.400 . S
C995 C996 1.398 . S
C995 C1001 1.491 . S
C996 H987 0.950 . S
C996 C995 1.398 . S
C996 C997 1.391 . S
C997 H985 0.950 . S
C997 C993 1.393 . S
C997 C996 1.391 . S
C998 H988 0.950 . S
C998 C999 1.386 . S
C998 C1000 1.391 . S
C999 C998 1.386 . S
C999 C1003 1.393 . S
C1000 H989 0.950 . S
C1000 C998 1.391 . S
C1000 C1001 1.400 . S
C1001 C995 1.491 . S
C1001 C1000 1.400 . S
C1001 C1002 1.398 . S
C1002 H990 0.950 . S
C1002 C1001 1.398 . S
C1002 C1003 1.391 . S
C1003 H991 0.950 . S
C1003 C999 1.393 . S
C1003 C1002 1.391 . S
H1004 C1012 0.950 . S
H1005 C1017 0.950 . S
H1006 C1014 0.950 . S
H1007 C1016 0.950 . S
H1008 C1018 0.950 . S
H1009 C1020 0.950 . S
H1010 C1022 0.950 . S
H1011 C1023 0.950 . S
C1012 H1004 0.950 . S
C1012 C1013 1.386 . S
C1012 C1014 1.391 . S
C1013 C1012 1.386 . S
C1013 C1017 1.393 . S
C1014 H1006 0.950 . S
C1014 C1012 1.391 . S
C1014 C1015 1.400 . S
C1015 C1014 1.400 . S
C1015 C1016 1.398 . S
C1015 C1021 1.491 . S
C1016 H1007 0.950 . S
C1016 C1015 1.398 . S
C1016 C1017 1.391 . S
C1017 H1005 0.950 . S
C1017 C1013 1.393 . S
C1017 C1016 1.391 . S
C1018 H1008 0.950 . S
C1018 C1019 1.386 . S
C1018 C1020 1.391 . S
C1019 C1018 1.386 . S
C1019 C1023 1.393 . S
C1020 H1009 0.950 . S
C1020 C1018 1.391 . S
C1020 C1021 1.400 . S
C1021 C1015 1.491 . S
C1021 C1020 1.400 . S
C1021 C1022 1.398 . S
C1022 H1010 0.950 . S
C1022 C1021 1.398 . S
C1022 C1023 1.391 . S
C1023 H1011 0.950 . S
C1023 C1019 1.393 . S
C1023 C1022 1.391 . S
H1024 C1032 0.950 . S
H1025 C1037 0.950 . S
H1026 C1034 0.950 . S
H1027 C1036 0.950 . S
H1028 C1038 0.950 . S
H1029 C1040 0.950 . S
H1030 C1042 0.950 . S
H1031 C1043 0.950 . S
C1032 H1024 0.950 . S
C1032 C1033 1.386 . S
C1032 C1034 1.391 . S
C1033 C1032 1.386 . S
C1033 C1037 1.393 . S
C1034 H1026 0.950 . S
C1034 C1032 1.391 . S
C1034 C1035 1.400 . S
C1035 C1034 1.400 . S
C1035 C1036 1.398 . S
C1035 C1041 1.491 . S
C1036 H1027 0.950 . S
C1036 C1035 1.398 . S
C1036 C1037 1.391 . S
C1037 H1025 0.950 . S
C1037 C1033 1.393 . S
C1037 C1036 1.391 . S
C1038 H1028 0.950 . S
C1038 C1039 1.386 . S
C1038 C1040 1.391 . S
C1039 C1038 1.386 . S
C1039 C1043 1.393 . S
C1040 H1029 0.950 . S
C1040 C1038 1.391 . S
C1040 C1041 1.400 . S
C1041 C1035 1.491 . S
C1041 C1040 1.400 . S
C1041 C1042 1.398 . S
C1042 H1030 0.950 . S
C1042 C1041 1.398 . S
C1042 C1043 1.391 . S
C1043 H1031 0.950 . S
C1043 C1039 1.393 . S
C1043 C1042 1.391 . S
H1044 C1052 0.950 . S
H1045 C1057 0.950 . S
H1046 C1054 0.950 . S
H1047 C1056 0.950 . S
H1048 C1058 0.950 . S
H1049 C1060 0.950 . S
H1050 C1062 0.950 . S
H1051 C1063 0.950 . S
C1052 H1044 0.950 . S
C1052 C1053 1.386 . S
C1052 C1054 1.391 . S
C1053 C1052 1.386 . S
C1053 C1057 1.393 . S
C1054 H1046 0.950 . S
C1054 C1052 1.391 . S
C1054 C1055 1.400 . S
C1055 C1054 1.400 . S
C1055 C1056 1.398 . S
C1055 C1061 1.491 . S
C1056 H1047 0.950 . S
C1056 C1055 1.398 . S
C1056 C1057 1.391 . S
C1057 H1045 0.950 . S
C1057 C1053 1.393 . S
C1057 C1056 1.391 . S
C1058 H1048 0.950 . S
C1058 C1059 1.386 . S
C1058 C1060 1.391 . S
C1059 C1058 1.386 . S
C1059 C1063 1.393 . S
C1060 H1049 0.950 . S
C1060 C1058 1.391 . S
C1060 C1061 1.400 . S
C1061 C1055 1.491 . S
C1061 C1060 1.400 . S
C1061 C1062 1.398 . S
C1062 H1050 0.950 . S
C1062 C1061 1.398 . S
C1062 C1063 1.391 . S
C1063 H1051 0.950 . S
C1063 C1059 1.393 . S
C1063 C1062 1.391 . S
H1064 C1072 0.950 . S
H1065 C1077 0.950 . S
H1066 C1074 0.950 . S
H1067 C1076 0.950 . S
H1068 C1078 0.950 . S
H1069 C1080 0.950 . S
H1070 C1082 0.950 . S
H1071 C1083 0.950 . S
C1072 H1064 0.950 . S
C1072 C1073 1.386 . S
C1072 C1074 1.391 . S
C1073 C1072 1.386 . S
C1073 C1077 1.393 . S
C1074 H1066 0.950 . S
C1074 C1072 1.391 . S
C1074 C1075 1.400 . S
C1075 C1074 1.400 . S
C1075 C1076 1.398 . S
C1075 C1081 1.491 . S
C1076 H1067 0.950 . S
C1076 C1075 1.398 . S
C1076 C1077 1.391 . S
C1077 H1065 0.950 . S
C1077 C1073 1.393 . S
C1077 C1076 1.391 . S
C1078 H1068 0.950 . S
C1078 C1079 1.386 . S
C1078 C1080 1.391 . S
C1079 C1078 1.386 . S
C1079 C1083 1.393 . S
C1080 H1069 0.950 . S
C1080 C1078 1.391 . S
C1080 C1081 1.400 . S
C1081 C1075 1.491 . S
C1081 C1080 1.400 . S
C1081 C1082 1.398 . S
C1082 H1070 0.950 . S
C1082 C1081 1.398 . S
C1082 C1083 1.391 . S
C1083 H1071 0.950 . S
C1083 C1079 1.393 . S
C1083 C1082 1.391 . S
H1084 C1092 0.950 . S
H1085 C1097 0.950 . S
H1086 C1094 0.950 . S
H1087 C1096 0.950 . S
H1088 C1098 0.950 . S
H1089 C1100 0.950 . S
H1090 C1102 0.950 . S
H1091 C1103 0.950 . S
C1092 H1084 0.950 . S
C1092 C1093 1.386 . S
C1092 C1094 1.391 . S
C1093 C1092 1.386 . S
C1093 C1097 1.393 . S
C1094 H1086 0.950 . S
C1094 C1092 1.391 . S
C1094 C1095 1.400 . S
C1095 C1094 1.400 . S
C1095 C1096 1.398 . S
C1095 C1101 1.491 . S
C1096 H1087 0.950 . S
C1096 C1095 1.398 . S
C1096 C1097 1.391 . S
C1097 H1085 0.950 . S
C1097 C1093 1.393 . S
C1097 C1096 1.391 . S
C1098 H1088 0.950 . S
C1098 C1099 1.386 . S
C1098 C1100 1.391 . S
C1099 C1098 1.386 . S
C1099 C1103 1.393 . S
C1100 H1089 0.950 . S
C1100 C1098 1.391 . S
C1100 C1101 1.400 . S
C1101 C1095 1.491 . S
C1101 C1100 1.400 . S
C1101 C1102 1.398 . S
C1102 H1090 0.950 . S
C1102 C1101 1.398 . S
C1102 C1103 1.391 . S
C1103 H1091 0.950 . S
C1103 C1099 1.393 . S
C1103 C1102 1.391 . S
H1104 C1112 0.950 . S
H1105 C1117 0.950 . S
H1106 C1114 0.950 . S
H1107 C1116 0.950 . S
H1108 C1118 0.950 . S
H1109 C1120 0.950 . S
H1110 C1122 0.950 . S
H1111 C1123 0.950 . S
C1112 H1104 0.950 . S
C1112 C1113 1.386 . S
C1112 C1114 1.391 . S
C1113 C1112 1.386 . S
C1113 C1117 1.393 . S
C1114 H1106 0.950 . S
C1114 C1112 1.391 . S
C1114 C1115 1.400 . S
C1115 C1114 1.400 . S
C1115 C1116 1.398 . S
C1115 C1121 1.491 . S
C1116 H1107 0.950 . S
C1116 C1115 1.398 . S
C1116 C1117 1.391 . S
C1117 H1105 0.950 . S
C1117 C1113 1.393 . S
C1117 C1116 1.391 . S
C1118 H1108 0.950 . S
C1118 C1119 1.386 . S
C1118 C1120 1.391 . S
C1119 C1118 1.386 . S
C1119 C1123 1.393 . S
C1120 H1109 0.950 . S
C1120 C1118 1.391 . S
C1120 C1121 1.400 . S
C1121 C1115 1.491 . S
C1121 C1120 1.400 . S
C1121 C1122 1.398 . S
C1122 H1110 0.950 . S
C1122 C1121 1.398 . S
C1122 C1123 1.391 . S
C1123 H1111 0.950 . S
C1123 C1119 1.393 . S
C1123 C1122 1.391 . S
H1124 C1132 0.950 . S
H1125 C1137 0.950 . S
H1126 C1134 0.950 . S
H1127 C1136 0.950 . S
H1128 C1138 0.950 . S
H1129 C1140 0.950 . S
H1130 C1142 0.950 . S
H1131 C1143 0.950 . S
C1132 H1124 0.950 . S
C1132 C1133 1.386 . S
C1132 C1134 1.391 . S
C1133 C1132 1.386 . S
C1133 C1137 1.393 . S
C1134 H1126 0.950 . S
C1134 C1132 1.391 . S
C1134 C1135 1.400 . S
C1135 C1134 1.400 . S
C1135 C1136 1.398 . S
C1135 C1141 1.491 . S
C1136 H1127 0.950 . S
C1136 C1135 1.398 . S
C1136 C1137 1.391 . S
C1137 H1125 0.950 . S
C1137 C1133 1.393 . S
C1137 C1136 1.391 . S
C1138 H1128 0.950 . S
C1138 C1139 1.386 . S
C1138 C1140 1.391 . S
C1139 C1138 1.386 . S
C1139 C1143 1.393 . S
C1140 H1129 0.950 . S
C1140 C1138 1.391 . S
C1140 C1141 1.400 . S
C1141 C1135 1.491 . S
C1141 C1140 1.400 . S
C1141 C1142 1.398 . S
C1142 H1130 0.950 . S
C1142 C1141 1.398 . S
C1142 C1143 1.391 . S
C1143 H1131 0.950 . S
C1143 C1139 1.393 . S
C1143 C1142 1.391 . S
H1144 C1152 0.950 . S
H1145 C1157 0.950 . S
H1146 C1154 0.950 . S
H1147 C1156 0.950 . S
H1148 C1158 0.950 . S
H1149 C1160 0.950 . S
H1150 C1162 0.950 . S
H1151 C1163 0.950 . S
C1152 H1144 0.950 . S
C1152 C1153 1.386 . S
C1152 C1154 1.391 . S
C1153 C1152 1.386 . S
C1153 C1157 1.393 . S
C1154 H1146 0.950 . S
C1154 C1152 1.391 . S
C1154 C1155 1.400 . S
C1155 C1154 1.400 . S
C1155 C1156 1.398 . S
C1155 C1161 1.491 . S
C1156 H1147 0.950 . S
C1156 C1155 1.398 . S
C1156 C1157 1.391 . S
C1157 H1145 0.950 . S
C1157 C1153 1.393 . S
C1157 C1156 1.391 . S
C1158 H1148 0.950 . S
C1158 C1159 1.386 . S
C1158 C1160 1.391 . S
C1159 C1158 1.386 . S
C1159 C1163 1.393 . S
C1160 H1149 0.950 . S
C1160 C1158 1.391 . S
C1160 C1161 1.400 . S
C1161 C1155 1.491 . S
C1161 C1160 1.400 . S
C1161 C1162 1.398 . S
C1162 H1150 0.950 . S
C1162 C1161 1.398 . S
C1162 C1163 1.391 . S
C1163 H1151 0.950 . S
C1163 C1159 1.393 . S
C1163 C1162 1.391 . S
H1164 C1172 0.950 . S
H1165 C1177 0.950 . S
H1166 C1174 0.950 . S
H1167 C1176 0.950 . S
H1168 C1178 0.950 . S
H1169 C1180 0.950 . S
H1170 C1182 0.950 . S
H1171 C1183 0.950 . S
C1172 H1164 0.950 . S
C1172 C1173 1.386 . S
C1172 C1174 1.391 . S
C1173 C1172 1.386 . S
C1173 C1177 1.393 . S
C1174 H1166 0.950 . S
C1174 C1172 1.391 . S
C1174 C1175 1.400 . S
C1175 C1174 1.400 . S
C1175 C1176 1.398 . S
C1175 C1181 1.491 . S
C1176 H1167 0.950 . S
C1176 C1175 1.398 . S
C1176 C1177 1.391 . S
C1177 H1165 0.950 . S
C1177 C1173 1.393 . S
C1177 C1176 1.391 . S
C1178 H1168 0.950 . S
C1178 C1179 1.386 . S
C1178 C1180 1.391 . S
C1179 C1178 1.386 . S
C1179 C1183 1.393 . S
C1180 H1169 0.950 . S
C1180 C1178 1.391 . S
C1180 C1181 1.400 . S
C1181 C1175 1.491 . S
C1181 C1180 1.400 . S
C1181 C1182 1.398 . S
C1182 H1170 0.950 . S
C1182 C1181 1.398 . S
C1182 C1183 1.391 . S
C1183 H1171 0.950 . S
C1183 C1179 1.393 . S
C1183 C1182 1.391 . S
H1184 C1192 0.950 . S
H1185 C1197 0.950 . S
H1186 C1194 0.950 . S
H1187 C1196 0.950 . S
H1188 C1198 0.950 . S
H1189 C1200 0.950 . S
H1190 C1202 0.950 . S
H1191 C1203 0.950 . S
C1192 H1184 0.950 . S
C1192 C1193 1.386 . S
C1192 C1194 1.391 . S
C1193 C1192 1.386 . S
C1193 C1197 1.393 . S
C1194 H1186 0.950 . S
C1194 C1192 1.391 . S
C1194 C1195 1.400 . S
C1195 C1194 1.400 . S
C1195 C1196 1.398 . S
C1195 C1201 1.491 . S
C1196 H1187 0.950 . S
C1196 C1195 1.398 . S
C1196 C1197 1.391 . S
C1197 H1185 0.950 . S
C1197 C1193 1.393 . S
C1197 C1196 1.391 . S
C1198 H1188 0.950 . S
C1198 C1199 1.386 . S
C1198 C1200 1.391 . S
C1199 C1198 1.386 . S
C1199 C1203 1.393 . S
C1200 H1189 0.950 . S
C1200 C1198 1.391 . S
C1200 C1201 1.400 . S
C1201 C1195 1.491 . S
C1201 C1200 1.400 . S
C1201 C1202 1.398 . S
C1202 H1190 0.950 . S
C1202 C1201 1.398 . S
C1202 C1203 1.391 . S
C1203 H1191 0.950 . S
C1203 C1199 1.393 . S
C1203 C1202 1.391 . S
H1204 C1212 0.950 . S
H1205 C1217 0.950 . S
H1206 C1214 0.950 . S
H1207 C1216 0.950 . S
H1208 C1218 0.950 . S
H1209 C1220 0.950 . S
H1210 C1222 0.950 . S
H1211 C1223 0.950 . S
C1212 H1204 0.950 . S
C1212 C1213 1.386 . S
C1212 C1214 1.391 . S
C1213 C1212 1.386 . S
C1213 C1217 1.393 . S
C1214 H1206 0.950 . S
C1214 C1212 1.391 . S
C1214 C1215 1.400 . S
C1215 C1214 1.400 . S
C1215 C1216 1.398 . S
C1215 C1221 1.491 . S
C1216 H1207 0.950 . S
C1216 C1215 1.398 . S
C1216 C1217 1.391 . S
C1217 H1205 0.950 . S
C1217 C1213 1.393 . S
C1217 C1216 1.391 . S
C1218 H1208 0.950 . S
C1218 C1219 1.386 . S
C1218 C1220 1.391 . S
C1219 C1218 1.386 . S
C1219 C1223 1.393 . S
C1220 H1209 0.950 . S
C1220 C1218 1.391 . S
C1220 C1221 1.400 . S
C1221 C1215 1.491 . S
C1221 C1220 1.400 . S
C1221 C1222 1.398 . S
C1222 H1210 0.950 . S
C1222 C1221 1.398 . S
C1222 C1223 1.391 . S
C1223 H1211 0.950 . S
C1223 C1219 1.393 . S
C1223 C1222 1.391 . S
H1224 C1232 0.950 . S
H1225 C1237 0.950 . S
H1226 C1234 0.950 . S
H1227 C1236 0.950 . S
H1228 C1238 0.950 . S
H1229 C1240 0.950 . S
H1230 C1242 0.950 . S
H1231 C1243 0.950 . S
C1232 H1224 0.950 . S
C1232 C1233 1.386 . S
C1232 C1234 1.391 . S
C1233 C1232 1.386 . S
C1233 C1237 1.393 . S
C1234 H1226 0.950 . S
C1234 C1232 1.391 . S
C1234 C1235 1.400 . S
C1235 C1234 1.400 . S
C1235 C1236 1.398 . S
C1235 C1241 1.491 . S
C1236 H1227 0.950 . S
C1236 C1235 1.398 . S
C1236 C1237 1.391 . S
C1237 H1225 0.950 . S
C1237 C1233 1.393 . S
C1237 C1236 1.391 . S
C1238 H1228 0.950 . S
C1238 C1239 1.386 . S
C1238 C1240 1.391 . S
C1239 C1238 1.386 . S
C1239 C1243 1.393 . S
C1240 H1229 0.950 . S
C1240 C1238 1.391 . S
C1240 C1241 1.400 . S
C1241 C1235 1.491 . S
C1241 C1240 1.400 . S
C1241 C1242 1.398 . S
C1242 H1230 0.950 . S
C1242 C1241 1.398 . S
C1242 C1243 1.391 . S
C1243 H1231 0.950 . S
C1243 C1239 1.393 . S
C1243 C1242 1.391 . S
H1244 C1252 0.950 . S
H1245 C1257 0.950 . S
H1246 C1254 0.950 . S
H1247 C1256 0.950 . S
H1248 C1258 0.950 . S
H1249 C1260 0.950 . S
H1250 C1262 0.950 . S
H1251 C1263 0.950 . S
C1252 H1244 0.950 . S
C1252 C1253 1.386 . S
C1252 C1254 1.391 . S
C1253 C1252 1.386 . S
C1253 C1257 1.393 . S
C1254 H1246 0.950 . S
C1254 C1252 1.391 . S
C1254 C1255 1.400 . S
C1255 C1254 1.400 . S
C1255 C1256 1.398 . S
C1255 C1261 1.491 . S
C1256 H1247 0.950 . S
C1256 C1255 1.398 . S
C1256 C1257 1.391 . S
C1257 H1245 0.950 . S
C1257 C1253 1.393 . S
C1257 C1256 1.391 . S
C1258 H1248 0.950 . S
C1258 C1259 1.386 . S
C1258 C1260 1.391 . S
C1259 C1258 1.386 . S
C1259 C1263 1.393 . S
C1260 H1249 0.950 . S
C1260 C1258 1.391 . S
C1260 C1261 1.400 . S
C1261 C1255 1.491 . S
C1261 C1260 1.400 . S
C1261 C1262 1.398 . S
C1262 H1250 0.950 . S
C1262 C1261 1.398 . S
C1262 C1263 1.391 . S
C1263 H1251 0.950 . S
C1263 C1259 1.393 . S
C1263 C1262 1.391 . S
H1264 C1272 0.950 . S
H1265 C1277 0.950 . S
H1266 C1274 0.950 . S
H1267 C1276 0.950 . S
H1268 C1278 0.950 . S
H1269 C1280 0.950 . S
H1270 C1282 0.950 . S
H1271 C1283 0.950 . S
C1272 H1264 0.950 . S
C1272 C1273 1.386 . S
C1272 C1274 1.391 . S
C1273 C1272 1.386 . S
C1273 C1277 1.393 . S
C1274 H1266 0.950 . S
C1274 C1272 1.391 . S
C1274 C1275 1.400 . S
C1275 C1274 1.400 . S
C1275 C1276 1.398 . S
C1275 C1281 1.491 . S
C1276 H1267 0.950 . S
C1276 C1275 1.398 . S
C1276 C1277 1.391 . S
C1277 H1265 0.950 . S
C1277 C1273 1.393 . S
C1277 C1276 1.391 . S
C1278 H1268 0.950 . S
C1278 C1279 1.386 . S
C1278 C1280 1.391 . S
C1279 C1278 1.386 . S
C1279 C1283 1.393 . S
C1280 H1269 0.950 . S
C1280 C1278 1.391 . S
C1280 C1281 1.400 . S
C1281 C1275 1.491 . S
C1281 C1280 1.400 . S
C1281 C1282 1.398 . S
C1282 H1270 0.950 . S
C1282 C1281 1.398 . S
C1282 C1283 1.391 . S
C1283 H1271 0.950 . S
C1283 C1279 1.393 . S
C1283 C1282 1.391 . S
H1284 C1292 0.950 . S
H1285 C1297 0.950 . S
H1286 C1294 0.950 . S
H1287 C1296 0.950 . S
H1288 C1298 0.950 . S
H1289 C1300 0.950 . S
H1290 C1302 0.950 . S
H1291 C1303 0.950 . S
C1292 H1284 0.950 . S
C1292 C1293 1.386 . S
C1292 C1294 1.391 . S
C1293 C1292 1.386 . S
C1293 C1297 1.393 . S
C1294 H1286 0.950 . S
C1294 C1292 1.391 . S
C1294 C1295 1.400 . S
C1295 C1294 1.400 . S
C1295 C1296 1.398 . S
C1295 C1301 1.491 . S
C1296 H1287 0.950 . S
C1296 C1295 1.398 . S
C1296 C1297 1.391 . S
C1297 H1285 0.950 . S
C1297 C1293 1.393 . S
C1297 C1296 1.391 . S
C1298 H1288 0.950 . S
C1298 C1299 1.386 . S
C1298 C1300 1.391 . S
C1299 C1298 1.386 . S
C1299 C1303 1.393 . S
C1300 H1289 0.950 . S
C1300 C1298 1.391 . S
C1300 C1301 1.400 . S
C1301 C1295 1.491 . S
C1301 C1300 1.400 . S
C1301 C1302 1.398 . S
C1302 H1290 0.950 . S
C1302 C1301 1.398 . S
C1302 C1303 1.391 . S
C1303 H1291 0.950 . S
C1303 C1299 1.393 . S
C1303 C1302 1.391 . S
H1304 C1312 0.950 . S
H1305 C1317 0.950 . S
H1306 C1314 0.950 . S
H1307 C1316 0.950 . S
H1308 C1318 0.950 . S
H1309 C1320 0.950 . S
H1310 C1322 0.950 . S
H1311 C1323 0.950 . S
C1312 H1304 0.950 . S
C1312 C1313 1.386 . S
C1312 C1314 1.391 . S
C1313 C1312 1.386 . S
C1313 C1317 1.393 . S
C1314 H1306 0.950 . S
C1314 C1312 1.391 . S
C1314 C1315 1.400 . S
C1315 C1314 1.400 . S
C1315 C1316 1.398 . S
C1315 C1321 1.491 . S
C1316 H1307 0.950 . S
C1316 C1315 1.398 . S
C1316 C1317 1.391 . S
C1317 H1305 0.950 . S
C1317 C1313 1.393 . S
C1317 C1316 1.391 . S
C1318 H1308 0.950 . S
C1318 C1319 1.386 . S
C1318 C1320 1.391 . S
C1319 C1318 1.386 . S
C1319 C1323 1.393 . S
C1320 H1309 0.950 . S
C1320 C1318 1.391 . S
C1320 C1321 1.400 . S
C1321 C1315 1.491 . S
C1321 C1320 1.400 . S
C1321 C1322 1.398 . S
C1322 H1310 0.950 . S
C1322 C1321 1.398 . S
C1322 C1323 1.391 . S
C1323 H1311 0.950 . S
C1323 C1319 1.393 . S
C1323 C1322 1.391 . S
H1324 C1332 0.950 . S
H1325 C1337 0.950 . S
H1326 C1334 0.950 . S
H1327 C1336 0.950 . S
H1328 C1338 0.950 . S
H1329 C1340 0.950 . S
H1330 C1342 0.950 . S
H1331 C1343 0.950 . S
C1332 H1324 0.950 . S
C1332 C1333 1.386 . S
C1332 C1334 1.391 . S
C1333 C1332 1.386 . S
C1333 C1337 1.393 . S
C1334 H1326 0.950 . S
C1334 C1332 1.391 . S
C1334 C1335 1.400 . S
C1335 C1334 1.400 . S
C1335 C1336 1.398 . S
C1335 C1341 1.491 . S
C1336 H1327 0.950 . S
C1336 C1335 1.398 . S
C1336 C1337 1.391 . S
C1337 H1325 0.950 . S
C1337 C1333 1.393 . S
C1337 C1336 1.391 . S
C1338 H1328 0.950 . S
C1338 C1339 1.386 . S
C1338 C1340 1.391 . S
C1339 C1338 1.386 . S
C1339 C1343 1.393 . S
C1340 H1329 0.950 . S
C1340 C1338 1.391 . S
C1340 C1341 1.400 . S
C1341 C1335 1.491 . S
C1341 C1340 1.400 . S
C1341 C1342 1.398 . S
C1342 H1330 0.950 . S
C1342 C1341 1.398 . S
C1342 C1343 1.391 . S
C1343 H1331 0.950 . S
C1343 C1339 1.393 . S
C1343 C1342 1.391 . S
H1344 C1352 0.950 . S
H1345 C1357 0.950 . S
H1346 C1354 0.950 . S
H1347 C1356 0.950 . S
H1348 C1358 0.950 . S
H1349 C1360 0.950 . S
H1350 C1362 0.950 . S
H1351 C1363 0.950 . S
C1352 H1344 0.950 . S
C1352 C1353 1.386 . S
C1352 C1354 1.391 . S
C1353 C1352 1.386 . S
C1353 C1357 1.393 . S
C1354 H1346 0.950 . S
C1354 C1352 1.391 . S
C1354 C1355 1.400 . S
C1355 C1354 1.400 . S
C1355 C1356 1.398 . S
C1355 C1361 1.491 . S
C1356 H1347 0.950 . S
C1356 C1355 1.398 . S
C1356 C1357 1.391 . S
C1357 H1345 0.950 . S
C1357 C1353 1.393 . S
C1357 C1356 1.391 . S
C1358 H1348 0.950 . S
C1358 C1359 1.386 . S
C1358 C1360 1.391 . S
C1359 C1358 1.386 . S
C1359 C1363 1.393 . S
C1360 H1349 0.950 . S
C1360 C1358 1.391 . S
C1360 C1361 1.400 . S
C1361 C1355 1.491 . S
C1361 C1360 1.400 . S
C1361 C1362 1.398 . S
C1362 H1350 0.950 . S
C1362 C1361 1.398 . S
C1362 C1363 1.391 . S
C1363 H1351 0.950 . S
C1363 C1359 1.393 . S
C1363 C1362 1.391 . S
H1364 C1372 0.950 . S
H1365 C1377 0.950 . S
H1366 C1374 0.950 . S
H1367 C1376 0.950 . S
H1368 C1378 0.950 . S
H1369 C1380 0.950 . S
H1370 C1382 0.950 . S
H1371 C1383 0.950 . S
C1372 H1364 0.950 . S
C1372 C1373 1.386 . S
C1372 C1374 1.391 . S
C1373 C1372 1.386 . S
C1373 C1377 1.393 . S
C1374 H1366 0.950 . S
C1374 C1372 1.391 . S
C1374 C1375 1.400 . S
C1375 C1374 1.400 . S
C1375 C1376 1.398 . S
C1375 C1381 1.491 . S
C1376 H1367 0.950 . S
C1376 C1375 1.398 . S
C1376 C1377 1.391 . S
C1377 H1365 0.950 . S
C1377 C1373 1.393 . S
C1377 C1376 1.391 . S
C1378 H1368 0.950 . S
C1378 C1379 1.386 . S
C1378 C1380 1.391 . S
C1379 C1378 1.386 . S
C1379 C1383 1.393 . S
C1380 H1369 0.950 . S
C1380 C1378 1.391 . S
C1380 C1381 1.400 . S
C1381 C1375 1.491 . S
C1381 C1380 1.400 . S
C1381 C1382 1.398 . S
C1382 H1370 0.950 . S
C1382 C1381 1.398 . S
C1382 C1383 1.391 . S
C1383 H1371 0.950 . S
C1383 C1379 1.393 . S
C1383 C1382 1.391 . S
H1384 C1392 0.950 . S
H1385 C1397 0.950 . S
H1386 C1394 0.950 . S
H1387 C1396 0.950 . S
H1388 C1398 0.950 . S
H1389 C1400 0.950 . S
H1390 C1402 0.950 . S
H1391 C1403 0.950 . S
C1392 H1384 0.950 . S
C1392 C1393 1.386 . S
C1392 C1394 1.391 . S
C1393 C1392 1.386 . S
C1393 C1397 1.393 . S
C1394 H1386 0.950 . S
C1394 C1392 1.391 . S
C1394 C1395 1.400 . S
C1395 C1394 1.400 . S
C1395 C1396 1.398 . S
C1395 C1401 1.491 . S
C1396 H1387 0.950 . S
C1396 C1395 1.398 . S
C1396 C1397 1.391 . S
C1397 H1385 0.950 . S
C1397 C1393 1.393 . S
C1397 C1396 1.391 . S
C1398 H1388 0.950 . S
C1398 C1399 1.386 . S
C1398 C1400 1.391 . S
C1399 C1398 1.386 . S
C1399 C1403 1.393 . S
C1400 H1389 0.950 . S
C1400 C1398 1.391 . S
C1400 C1401 1.400 . S
C1401 C1395 1.491 . S
C1401 C1400 1.400 . S
C1401 C1402 1.398 . S
C1402 H1390 0.950 . S
C1402 C1401 1.398 . S
C1402 C1403 1.391 . S
C1403 H1391 0.950 . S
C1403 C1399 1.393 . S
C1403 C1402 1.391 . S
H1404 C1412 0.950 . S
H1405 C1417 0.950 . S
H1406 C1414 0.950 . S
H1407 C1416 0.950 . S
H1408 C1418 0.950 . S
H1409 C1420 0.950 . S
H1410 C1422 0.950 . S
H1411 C1423 0.950 . S
C1412 H1404 0.950 . S
C1412 C1413 1.386 . S
C1412 C1414 1.391 . S
C1413 C1412 1.386 . S
C1413 C1417 1.393 . S
C1414 H1406 0.950 . S
C1414 C1412 1.391 . S
C1414 C1415 1.400 . S
C1415 C1414 1.400 . S
C1415 C1416 1.398 . S
C1415 C1421 1.491 . S
C1416 H1407 0.950 . S
C1416 C1415 1.398 . S
C1416 C1417 1.391 . S
C1417 H1405 0.950 . S
C1417 C1413 1.393 . S
C1417 C1416 1.391 . S
C1418 H1408 0.950 . S
C1418 C1419 1.386 . S
C1418 C1420 1.391 . S
C1419 C1418 1.386 . S
C1419 C1423 1.393 . S
C1420 H1409 0.950 . S
C1420 C1418 1.391 . S
C1420 C1421 1.400 . S
C1421 C1415 1.491 . S
C1421 C1420 1.400 . S
C1421 C1422 1.398 . S
C1422 H1410 0.950 . S
C1422 C1421 1.398 . S
C1422 C1423 1.391 . S
C1423 H1411 0.950 . S
C1423 C1419 1.393 . S
C1423 C1422 1.391 . S
H1424 C1432 0.950 . S
H1425 C1437 0.950 . S
H1426 C1434 0.950 . S
H1427 C1436 0.950 . S
H1428 C1438 0.950 . S
H1429 C1440 0.950 . S
H1430 C1442 0.950 . S
H1431 C1443 0.950 . S
C1432 H1424 0.950 . S
C1432 C1433 1.386 . S
C1432 C1434 1.391 . S
C1433 C1432 1.386 . S
C1433 C1437 1.393 . S
C1434 H1426 0.950 . S
C1434 C1432 1.391 . S
C1434 C1435 1.400 . S
C1435 C1434 1.400 . S
C1435 C1436 1.398 . S
C1435 C1441 1.491 . S
C1436 H1427 0.950 . S
C1436 C1435 1.398 . S
C1436 C1437 1.391 . S
C1437 H1425 0.950 . S
C1437 C1433 1.393 . S
C1437 C1436 1.391 . S
C1438 H1428 0.950 . S
C1438 C1439 1.386 . S
C1438 C1440 1.391 . S
C1439 C1438 1.386 . S
C1439 C1443 1.393 . S
C1440 H1429 0.950 . S
C1440 C1438 1.391 . S
C1440 C1441 1.400 . S
C1441 C1435 1.491 . S
C1441 C1440 1.400 . S
C1441 C1442 1.398 . S
C1442 H1430 0.950 . S
C1442 C1441 1.398 . S
C1442 C1443 1.391 . S
C1443 H1431 0.950 . S
C1443 C1439 1.393 . S
C1443 C1442 1.391 . S
H1444 C1452 0.950 . S
H1445 C1457 0.950 . S
H1446 C1454 0.950 . S
H1447 C1456 0.950 . S
H1448 C1458 0.950 . S
H1449 C1460 0.950 . S
H1450 C1462 0.950 . S
H1451 C1463 0.950 . S
C1452 H1444 0.950 . S
C1452 C1453 1.386 . S
C1452 C1454 1.391 . S
C1453 C1452 1.386 . S
C1453 C1457 1.393 . S
C1454 H1446 0.950 . S
C1454 C1452 1.391 . S
C1454 C1455 1.400 . S
C1455 C1454 1.400 . S
C1455 C1456 1.398 . S
C1455 C1461 1.491 . S
C1456 H1447 0.950 . S
C1456 C1455 1.398 . S
C1456 C1457 1.391 . S
C1457 H1445 0.950 . S
C1457 C1453 1.393 . S
C1457 C1456 1.391 . S
C1458 H1448 0.950 . S
C1458 C1459 1.386 . S
C1458 C1460 1.391 . S
C1459 C1458 1.386 . S
C1459 C1463 1.393 . S
C1460 H1449 0.950 . S
C1460 C1458 1.391 . S
C1460 C1461 1.400 . S
C1461 C1455 1.491 . S
C1461 C1460 1.400 . S
C1461 C1462 1.398 . S
C1462 H1450 0.950 . S
C1462 C1461 1.398 . S
C1462 C1463 1.391 . S
C1463 H1451 0.950 . S
C1463 C1459 1.393 . S
C1463 C1462 1.391 . S
H1464 C1472 0.950 1_655 S
H1465 C1477 0.950 . S
H1466 C1474 0.950 . S
H1467 C1476 0.950 . S
H1468 C1478 0.950 1_455 S
H1469 C1480 0.950 . S
H1470 C1482 0.950 . S
H1471 C1483 0.950 . S
C1472 H1464 0.950 1_455 S
C1472 C1473 1.386 . S
C1472 C1474 1.391 1_455 S
C1473 C1472 1.386 . S
C1473 C1477 1.393 . S
C1474 H1466 0.950 . S
C1474 C1472 1.391 1_655 S
C1474 C1475 1.400 1_655 S
C1475 C1474 1.400 1_455 S
C1475 C1476 1.398 . S
C1475 C1481 1.491 1_455 S
C1476 H1467 0.950 . S
C1476 C1475 1.398 . S
C1476 C1477 1.391 . S
C1477 H1465 0.950 . S
C1477 C1473 1.393 . S
C1477 C1476 1.391 . S
C1478 H1468 0.950 1_655 S
C1478 C1479 1.386 . S
C1478 C1480 1.391 1_655 S
C1479 C1478 1.386 . S
C1479 C1483 1.393 . S
C1480 H1469 0.950 . S
C1480 C1478 1.391 1_455 S
C1480 C1481 1.400 1_455 S
C1481 C1475 1.491 1_655 S
C1481 C1480 1.400 1_655 S
C1481 C1482 1.398 . S
C1482 H1470 0.950 . S
C1482 C1481 1.398 . S
C1482 C1483 1.391 . S
C1483 H1471 0.950 . S
C1483 C1479 1.393 . S
C1483 C1482 1.391 . S
H1484 C1492 0.950 . S
H1485 C1497 0.950 . S
H1486 C1494 0.950 . S
H1487 C1496 0.950 . S
H1488 C1498 0.950 . S
H1489 C1500 0.950 . S
H1490 C1502 0.950 . S
H1491 C1503 0.950 . S
C1492 H1484 0.950 . S
C1492 C1493 1.386 . S
C1492 C1494 1.391 . S
C1493 C1492 1.386 . S
C1493 C1497 1.393 . S
C1494 H1486 0.950 . S
C1494 C1492 1.391 . S
C1494 C1495 1.400 . S
C1495 C1494 1.400 . S
C1495 C1496 1.398 . S
C1495 C1501 1.491 . S
C1496 H1487 0.950 . S
C1496 C1495 1.398 . S
C1496 C1497 1.391 . S
C1497 H1485 0.950 . S
C1497 C1493 1.393 . S
C1497 C1496 1.391 . S
C1498 H1488 0.950 . S
C1498 C1499 1.386 . S
C1498 C1500 1.391 . S
C1499 C1498 1.386 . S
C1499 C1503 1.393 . S
C1500 H1489 0.950 . S
C1500 C1498 1.391 . S
C1500 C1501 1.400 . S
C1501 C1495 1.491 . S
C1501 C1500 1.400 . S
C1501 C1502 1.398 . S
C1502 H1490 0.950 . S
C1502 C1501 1.398 . S
C1502 C1503 1.391 . S
C1503 H1491 0.950 . S
C1503 C1499 1.393 . S
C1503 C1502 1.391 . S
H1504 C1512 0.950 1_545 S
H1505 C1517 0.950 . S
H1506 C1514 0.950 . S
H1507 C1516 0.950 . S
H1508 C1518 0.950 1_565 S
H1509 C1520 0.950 . S
H1510 C1522 0.950 . S
H1511 C1523 0.950 . S
C1512 H1504 0.950 1_565 S
C1512 C1513 1.386 . S
C1512 C1514 1.391 1_565 S
C1513 C1512 1.386 . S
C1513 C1517 1.393 . S
C1514 H1506 0.950 . S
C1514 C1512 1.391 1_545 S
C1514 C1515 1.400 1_545 S
C1515 C1514 1.400 1_565 S
C1515 C1516 1.398 . S
C1515 C1521 1.491 1_565 S
C1516 H1507 0.950 . S
C1516 C1515 1.398 . S
C1516 C1517 1.391 . S
C1517 H1505 0.950 . S
C1517 C1513 1.393 . S
C1517 C1516 1.391 . S
C1518 H1508 0.950 1_545 S
C1518 C1519 1.386 . S
C1518 C1520 1.391 1_545 S
C1519 C1518 1.386 . S
C1519 C1523 1.393 . S
C1520 H1509 0.950 . S
C1520 C1518 1.391 1_565 S
C1520 C1521 1.400 1_565 S
C1521 C1515 1.491 1_545 S
C1521 C1520 1.400 1_545 S
C1521 C1522 1.398 . S
C1522 H1510 0.950 . S
C1522 C1521 1.398 . S
C1522 C1523 1.391 . S
C1523 H1511 0.950 . S
C1523 C1519 1.393 . S
C1523 C1522 1.391 . S
H1524 C1532 0.950 1_545 S
H1525 C1537 0.950 . S
H1526 C1534 0.950 . S
H1527 C1536 0.950 . S
H1528 C1538 0.950 1_565 S
H1529 C1540 0.950 . S
H1530 C1542 0.950 . S
H1531 C1543 0.950 . S
C1532 H1524 0.950 1_565 S
C1532 C1533 1.386 . S
C1532 C1534 1.391 1_565 S
C1533 C1532 1.386 . S
C1533 C1537 1.393 . S
C1534 H1526 0.950 . S
C1534 C1532 1.391 1_545 S
C1534 C1535 1.400 1_545 S
C1535 C1534 1.400 1_565 S
C1535 C1536 1.398 . S
C1535 C1541 1.491 1_565 S
C1536 H1527 0.950 . S
C1536 C1535 1.398 . S
C1536 C1537 1.391 . S
C1537 H1525 0.950 . S
C1537 C1533 1.393 . S
C1537 C1536 1.391 . S
C1538 H1528 0.950 1_545 S
C1538 C1539 1.386 . S
C1538 C1540 1.391 1_545 S
C1539 C1538 1.386 . S
C1539 C1543 1.393 . S
C1540 H1529 0.950 . S
C1540 C1538 1.391 1_565 S
C1540 C1541 1.400 1_565 S
C1541 C1535 1.491 1_545 S
C1541 C1540 1.400 1_545 S
C1541 C1542 1.398 . S
C1542 H1530 0.950 . S
C1542 C1541 1.398 . S
C1542 C1543 1.391 . S
C1543 H1531 0.950 . S
C1543 C1539 1.393 . S
C1543 C1542 1.391 . S
H1544 C1552 0.959 . S
H1545 C1557 0.950 . S
H1546 C1554 0.950 . S
H1547 C1556 0.950 . S
H1548 C1558 0.959 . S
H1549 C1560 0.950 . S
H1550 C1562 0.950 . S
H1551 C1563 0.950 . S
C1552 H1544 0.959 . S
C1552 C1553 1.386 . S
C1552 C1554 1.391 1_655 S
C1553 C1552 1.386 . S
C1553 C1557 1.393 . S
C1554 H1546 0.950 . S
C1554 C1552 1.391 1_455 S
C1554 C1555 1.400 1_455 S
C1555 C1554 1.400 1_655 S
C1555 C1556 1.398 . S
C1555 C1561 1.491 1_655 S
C1556 H1547 0.950 . S
C1556 C1555 1.398 . S
C1556 C1557 1.391 . S
C1557 H1545 0.950 . S
C1557 C1553 1.393 . S
C1557 C1556 1.391 . S
C1558 H1548 0.959 . S
C1558 C1559 1.386 . S
C1558 C1560 1.391 1_455 S
C1559 C1558 1.386 . S
C1559 C1563 1.393 . S
C1560 H1549 0.950 . S
C1560 C1558 1.391 1_655 S
C1560 C1561 1.400 1_655 S
C1561 C1555 1.491 1_455 S
C1561 C1560 1.400 1_455 S
C1561 C1562 1.398 . S
C1562 H1550 0.950 . S
C1562 C1561 1.398 . S
C1562 C1563 1.391 . S
C1563 H1551 0.950 . S
C1563 C1559 1.393 . S
C1563 C1562 1.391 . S
H1564 C1572 0.950 . S
H1565 C1577 0.950 . S
H1566 C1574 0.950 . S
H1567 C1576 0.950 . S
H1568 C1578 0.950 . S
H1569 C1580 0.950 . S
H1570 C1582 0.950 . S
H1571 C1583 0.950 . S
C1572 H1564 0.950 . S
C1572 C1573 1.386 . S
C1572 C1574 1.391 . S
C1573 C1572 1.386 . S
C1573 C1577 1.393 . S
C1574 H1566 0.950 . S
C1574 C1572 1.391 . S
C1574 C1575 1.400 . S
C1575 C1574 1.400 . S
C1575 C1576 1.398 . S
C1575 C1581 1.491 . S
C1576 H1567 0.950 . S
C1576 C1575 1.398 . S
C1576 C1577 1.391 . S
C1577 H1565 0.950 . S
C1577 C1573 1.393 . S
C1577 C1576 1.391 . S
C1578 H1568 0.950 . S
C1578 C1579 1.386 . S
C1578 C1580 1.391 . S
C1579 C1578 1.386 . S
C1579 C1583 1.393 . S
C1580 H1569 0.950 . S
C1580 C1578 1.391 . S
C1580 C1581 1.400 . S
C1581 C1575 1.491 . S
C1581 C1580 1.400 . S
C1581 C1582 1.398 . S
C1582 H1570 0.950 . S
C1582 C1581 1.398 . S
C1582 C1583 1.391 . S
C1583 H1571 0.950 . S
C1583 C1579 1.393 . S
C1583 C1582 1.391 . S
H1584 C1592 0.950 . S
H1585 C1597 0.950 . S
H1586 C1594 0.950 . S
H1587 C1596 0.950 . S
H1588 C1598 0.950 . S
H1589 C1600 0.950 . S
H1590 C1602 0.950 . S
H1591 C1603 0.950 . S
C1592 H1584 0.950 . S
C1592 C1593 1.386 . S
C1592 C1594 1.391 . S
C1593 C1592 1.386 . S
C1593 C1597 1.393 . S
C1594 H1586 0.950 . S
C1594 C1592 1.391 . S
C1594 C1595 1.400 . S
C1595 C1594 1.400 . S
C1595 C1596 1.398 . S
C1595 C1601 1.491 . S
C1596 H1587 0.950 . S
C1596 C1595 1.398 . S
C1596 C1597 1.391 . S
C1597 H1585 0.950 . S
C1597 C1593 1.393 . S
C1597 C1596 1.391 . S
C1598 H1588 0.950 . S
C1598 C1599 1.386 . S
C1598 C1600 1.391 . S
C1599 C1598 1.386 . S
C1599 C1603 1.393 . S
C1600 H1589 0.950 . S
C1600 C1598 1.391 . S
C1600 C1601 1.400 . S
C1601 C1595 1.491 . S
C1601 C1600 1.400 . S
C1601 C1602 1.398 . S
C1602 H1590 0.950 . S
C1602 C1601 1.398 . S
C1602 C1603 1.391 . S
C1603 H1591 0.950 . S
C1603 C1599 1.393 . S
C1603 C1602 1.391 . S
H1604 C1612 0.950 . S
H1605 C1617 0.950 . S
H1606 C1614 0.950 . S
H1607 C1616 0.950 . S
H1608 C1618 0.950 . S
H1609 C1620 0.950 . S
H1610 C1622 0.950 . S
H1611 C1623 0.950 . S
C1612 H1604 0.950 . S
C1612 C1613 1.386 . S
C1612 C1614 1.391 . S
C1613 C1612 1.386 . S
C1613 C1617 1.393 . S
C1614 H1606 0.950 . S
C1614 C1612 1.391 . S
C1614 C1615 1.400 . S
C1615 C1614 1.400 . S
C1615 C1616 1.398 . S
C1615 C1621 1.491 . S
C1616 H1607 0.950 . S
C1616 C1615 1.398 . S
C1616 C1617 1.391 . S
C1617 H1605 0.950 . S
C1617 C1613 1.393 . S
C1617 C1616 1.391 . S
C1618 H1608 0.950 . S
C1618 C1619 1.386 . S
C1618 C1620 1.391 . S
C1619 C1618 1.386 . S
C1619 C1623 1.393 . S
C1620 H1609 0.950 . S
C1620 C1618 1.391 . S
C1620 C1621 1.400 . S
C1621 C1615 1.491 . S
C1621 C1620 1.400 . S
C1621 C1622 1.398 . S
C1622 H1610 0.950 . S
C1622 C1621 1.398 . S
C1622 C1623 1.391 . S
C1623 H1611 0.950 . S
C1623 C1619 1.393 . S
C1623 C1622 1.391 . S
H1624 C1632 0.950 . S
H1625 C1637 0.950 . S
H1626 C1634 0.950 . S
H1627 C1636 0.950 . S
H1628 C1638 0.950 . S
H1629 C1640 0.950 . S
H1630 C1642 0.950 . S
H1631 C1643 0.950 . S
C1632 H1624 0.950 . S
C1632 C1633 1.386 . S
C1632 C1634 1.391 . S
C1633 C1632 1.386 . S
C1633 C1637 1.393 . S
C1634 H1626 0.950 . S
C1634 C1632 1.391 . S
C1634 C1635 1.400 . S
C1635 C1634 1.400 . S
C1635 C1636 1.398 . S
C1635 C1641 1.491 . S
C1636 H1627 0.950 . S
C1636 C1635 1.398 . S
C1636 C1637 1.391 . S
C1637 H1625 0.950 . S
C1637 C1633 1.393 . S
C1637 C1636 1.391 . S
C1638 H1628 0.950 . S
C1638 C1639 1.386 . S
C1638 C1640 1.391 . S
C1639 C1638 1.386 . S
C1639 C1643 1.393 . S
C1640 H1629 0.950 . S
C1640 C1638 1.391 . S
C1640 C1641 1.400 . S
C1641 C1635 1.491 . S
C1641 C1640 1.400 . S
C1641 C1642 1.398 . S
C1642 H1630 0.950 . S
C1642 C1641 1.398 . S
C1642 C1643 1.391 . S
C1643 H1631 0.950 . S
C1643 C1639 1.393 . S
C1643 C1642 1.391 . S
H1644 C1652 0.950 . S
H1645 C1657 0.950 . S
H1646 C1654 0.950 . S
H1647 C1656 0.950 . S
H1648 C1658 0.950 . S
H1649 C1660 0.950 . S
H1650 C1662 0.950 . S
H1651 C1663 0.950 . S
C1652 H1644 0.950 . S
C1652 C1653 1.386 . S
C1652 C1654 1.391 . S
C1653 C1652 1.386 . S
C1653 C1657 1.393 . S
C1654 H1646 0.950 . S
C1654 C1652 1.391 . S
C1654 C1655 1.400 . S
C1655 C1654 1.400 . S
C1655 C1656 1.398 . S
C1655 C1661 1.491 . S
C1656 H1647 0.950 . S
C1656 C1655 1.398 . S
C1656 C1657 1.391 . S
C1657 H1645 0.950 . S
C1657 C1653 1.393 . S
C1657 C1656 1.391 . S
C1658 H1648 0.950 . S
C1658 C1659 1.386 . S
C1658 C1660 1.391 . S
C1659 C1658 1.386 . S
C1659 C1663 1.393 . S
C1660 H1649 0.950 . S
C1660 C1658 1.391 . S
C1660 C1661 1.400 . S
C1661 C1655 1.491 . S
C1661 C1660 1.400 . S
C1661 C1662 1.398 . S
C1662 H1650 0.950 . S
C1662 C1661 1.398 . S
C1662 C1663 1.391 . S
C1663 H1651 0.950 . S
C1663 C1659 1.393 . S
C1663 C1662 1.391 . S
H1664 C1672 0.950 . S
H1665 C1677 0.950 . S
H1666 C1674 0.950 . S
H1667 C1676 0.950 . S
H1668 C1678 0.950 . S
H1669 C1680 0.950 . S
H1670 C1682 0.950 . S
H1671 C1683 0.950 . S
C1672 H1664 0.950 . S
C1672 C1673 1.386 . S
C1672 C1674 1.391 . S
C1673 C1672 1.386 . S
C1673 C1677 1.393 . S
C1674 H1666 0.950 . S
C1674 C1672 1.391 . S
C1674 C1675 1.400 . S
C1675 C1674 1.400 . S
C1675 C1676 1.398 . S
C1675 C1681 1.491 . S
C1676 H1667 0.950 . S
C1676 C1675 1.398 . S
C1676 C1677 1.391 . S
C1677 H1665 0.950 . S
C1677 C1673 1.393 . S
C1677 C1676 1.391 . S
C1678 H1668 0.950 . S
C1678 C1679 1.386 . S
C1678 C1680 1.391 . S
C1679 C1678 1.386 . S
C1679 C1683 1.393 . S
C1680 H1669 0.950 . S
C1680 C1678 1.391 . S
C1680 C1681 1.400 . S
C1681 C1675 1.491 . S
C1681 C1680 1.400 . S
C1681 C1682 1.398 . S
C1682 H1670 0.950 . S
C1682 C1681 1.398 . S
C1682 C1683 1.391 . S
C1683 H1671 0.950 . S
C1683 C1679 1.393 . S
C1683 C1682 1.391 . S
H1684 C1692 0.950 . S
H1685 C1697 0.950 . S
H1686 C1694 0.950 . S
H1687 C1696 0.950 . S
H1688 C1698 0.950 . S
H1689 C1700 0.950 . S
H1690 C1702 0.950 . S
H1691 C1703 0.950 . S
C1692 H1684 0.950 . S
C1692 C1693 1.386 . S
C1692 C1694 1.391 . S
C1693 C1692 1.386 . S
C1693 C1697 1.393 . S
C1694 H1686 0.950 . S
C1694 C1692 1.391 . S
C1694 C1695 1.400 . S
C1695 C1694 1.400 . S
C1695 C1696 1.398 . S
C1695 C1701 1.491 . S
C1696 H1687 0.950 . S
C1696 C1695 1.398 . S
C1696 C1697 1.391 . S
C1697 H1685 0.950 . S
C1697 C1693 1.393 . S
C1697 C1696 1.391 . S
C1698 H1688 0.950 . S
C1698 C1699 1.386 . S
C1698 C1700 1.391 . S
C1699 C1698 1.386 . S
C1699 C1703 1.393 . S
C1700 H1689 0.950 . S
C1700 C1698 1.391 . S
C1700 C1701 1.400 . S
C1701 C1695 1.491 . S
C1701 C1700 1.400 . S
C1701 C1702 1.398 . S
C1702 H1690 0.950 . S
C1702 C1701 1.398 . S
C1702 C1703 1.391 . S
C1703 H1691 0.950 . S
C1703 C1699 1.393 . S
C1703 C1702 1.391 . S
H1704 C1712 0.950 . S
H1705 C1717 0.950 . S
H1706 C1714 0.950 . S
H1707 C1716 0.950 . S
H1708 C1718 0.950 . S
H1709 C1720 0.950 . S
H1710 C1722 0.950 . S
H1711 C1723 0.950 . S
C1712 H1704 0.950 . S
C1712 C1713 1.386 . S
C1712 C1714 1.391 . S
C1713 C1712 1.386 . S
C1713 C1717 1.393 . S
C1714 H1706 0.950 . S
C1714 C1712 1.391 . S
C1714 C1715 1.400 . S
C1715 C1714 1.400 . S
C1715 C1716 1.398 . S
C1715 C1721 1.491 . S
C1716 H1707 0.950 . S
C1716 C1715 1.398 . S
C1716 C1717 1.391 . S
C1717 H1705 0.950 . S
C1717 C1713 1.393 . S
C1717 C1716 1.391 . S
C1718 H1708 0.950 . S
C1718 C1719 1.386 . S
C1718 C1720 1.391 . S
C1719 C1718 1.386 . S
C1719 C1723 1.393 . S
C1720 H1709 0.950 . S
C1720 C1718 1.391 . S
C1720 C1721 1.400 . S
C1721 C1715 1.491 . S
C1721 C1720 1.400 . S
C1721 C1722 1.398 . S
C1722 H1710 0.950 . S
C1722 C1721 1.398 . S
C1722 C1723 1.391 . S
C1723 H1711 0.950 . S
C1723 C1719 1.393 . S
C1723 C1722 1.391 . S
H1724 C1732 0.950 . S
H1725 C1737 0.950 . S
H1726 C1734 0.950 . S
H1727 C1736 0.950 . S
H1728 C1738 0.950 . S
H1729 C1740 0.950 . S
H1730 C1742 0.950 . S
H1731 C1743 0.950 . S
C1732 H1724 0.950 . S
C1732 C1733 1.386 . S
C1732 C1734 1.391 . S
C1733 C1732 1.386 . S
C1733 C1737 1.393 . S
C1734 H1726 0.950 . S
C1734 C1732 1.391 . S
C1734 C1735 1.400 . S
C1735 C1734 1.400 . S
C1735 C1736 1.398 . S
C1735 C1741 1.491 . S
C1736 H1727 0.950 . S
C1736 C1735 1.398 . S
C1736 C1737 1.391 . S
C1737 H1725 0.950 . S
C1737 C1733 1.393 . S
C1737 C1736 1.391 . S
C1738 H1728 0.950 . S
C1738 C1739 1.386 . S
C1738 C1740 1.391 . S
C1739 C1738 1.386 . S
C1739 C1743 1.393 . S
C1740 H1729 0.950 . S
C1740 C1738 1.391 . S
C1740 C1741 1.400 . S
C1741 C1735 1.491 . S
C1741 C1740 1.400 . S
C1741 C1742 1.398 . S
C1742 H1730 0.950 . S
C1742 C1741 1.398 . S
C1742 C1743 1.391 . S
C1743 H1731 0.950 . S
C1743 C1739 1.393 . S
C1743 C1742 1.391 . S
H1744 C1752 0.950 . S
H1745 C1757 0.950 . S
H1746 C1754 0.950 . S
H1747 C1756 0.950 . S
H1748 C1758 0.950 . S
H1749 C1760 0.950 . S
H1750 C1762 0.950 . S
H1751 C1763 0.950 . S
C1752 H1744 0.950 . S
C1752 C1753 1.386 . S
C1752 C1754 1.391 . S
C1753 C1752 1.386 . S
C1753 C1757 1.393 . S
C1754 H1746 0.950 . S
C1754 C1752 1.391 . S
C1754 C1755 1.400 . S
C1755 C1754 1.400 . S
C1755 C1756 1.398 . S
C1755 C1761 1.491 . S
C1756 H1747 0.950 . S
C1756 C1755 1.398 . S
C1756 C1757 1.391 . S
C1757 H1745 0.950 . S
C1757 C1753 1.393 . S
C1757 C1756 1.391 . S
C1758 H1748 0.950 . S
C1758 C1759 1.386 . S
C1758 C1760 1.391 . S
C1759 C1758 1.386 . S
C1759 C1763 1.393 . S
C1760 H1749 0.950 . S
C1760 C1758 1.391 . S
C1760 C1761 1.400 . S
C1761 C1755 1.491 . S
C1761 C1760 1.400 . S
C1761 C1762 1.398 . S
C1762 H1750 0.950 . S
C1762 C1761 1.398 . S
C1762 C1763 1.391 . S
C1763 H1751 0.950 . S
C1763 C1759 1.393 . S
C1763 C1762 1.391 . S
H1764 C1772 0.950 . S
H1765 C1777 0.950 . S
H1766 C1774 0.950 . S
H1767 C1776 0.950 . S
H1768 C1778 0.950 . S
H1769 C1780 0.950 . S
H1770 C1782 0.950 . S
H1771 C1783 0.950 . S
C1772 H1764 0.950 . S
C1772 C1773 1.386 . S
C1772 C1774 1.391 . S
C1773 C1772 1.386 . S
C1773 C1777 1.393 . S
C1774 H1766 0.950 . S
C1774 C1772 1.391 . S
C1774 C1775 1.400 . S
C1775 C1774 1.400 . S
C1775 C1776 1.398 . S
C1775 C1781 1.491 . S
C1776 H1767 0.950 . S
C1776 C1775 1.398 . S
C1776 C1777 1.391 . S
C1777 H1765 0.950 . S
C1777 C1773 1.393 . S
C1777 C1776 1.391 . S
C1778 H1768 0.950 . S
C1778 C1779 1.386 . S
C1778 C1780 1.391 . S
C1779 C1778 1.386 . S
C1779 C1783 1.393 . S
C1780 H1769 0.950 . S
C1780 C1778 1.391 . S
C1780 C1781 1.400 . S
C1781 C1775 1.491 . S
C1781 C1780 1.400 . S
C1781 C1782 1.398 . S
C1782 H1770 0.950 . S
C1782 C1781 1.398 . S
C1782 C1783 1.391 . S
C1783 H1771 0.950 . S
C1783 C1779 1.393 . S
C1783 C1782 1.391 . S
H1784 C1792 0.950 . S
H1785 C1797 0.950 . S
H1786 C1794 0.950 . S
H1787 C1796 0.950 . S
H1788 C1798 0.950 . S
H1789 C1800 0.950 . S
H1790 C1802 0.950 . S
H1791 C1803 0.950 . S
C1792 H1784 0.950 . S
C1792 C1793 1.386 . S
C1792 C1794 1.391 . S
C1793 C1792 1.386 . S
C1793 C1797 1.393 . S
C1794 H1786 0.950 . S
C1794 C1792 1.391 . S
C1794 C1795 1.400 . S
C1795 C1794 1.400 . S
C1795 C1796 1.398 . S
C1795 C1801 1.491 . S
C1796 H1787 0.950 . S
C1796 C1795 1.398 . S
C1796 C1797 1.391 . S
C1797 H1785 0.950 . S
C1797 C1793 1.393 . S
C1797 C1796 1.391 . S
C1798 H1788 0.950 . S
C1798 C1799 1.386 . S
C1798 C1800 1.391 . S
C1799 C1798 1.386 . S
C1799 C1803 1.393 . S
C1800 H1789 0.950 . S
C1800 C1798 1.391 . S
C1800 C1801 1.400 . S
C1801 C1795 1.491 . S
C1801 C1800 1.400 . S
C1801 C1802 1.398 . S
C1802 H1790 0.950 . S
C1802 C1801 1.398 . S
C1802 C1803 1.391 . S
C1803 H1791 0.950 . S
C1803 C1799 1.393 . S
C1803 C1802 1.391 . S
H1804 C1812 0.950 . S
H1805 C1817 0.950 . S
H1806 C1814 0.950 . S
H1807 C1816 0.950 . S
H1808 C1818 0.950 . S
H1809 C1820 0.950 . S
H1810 C1822 0.950 . S
H1811 C1823 0.950 . S
C1812 H1804 0.950 . S
C1812 C1813 1.386 . S
C1812 C1814 1.391 . S
C1813 C1812 1.386 . S
C1813 C1817 1.393 . S
C1814 H1806 0.950 . S
C1814 C1812 1.391 . S
C1814 C1815 1.400 . S
C1815 C1814 1.400 . S
C1815 C1816 1.398 . S
C1815 C1821 1.491 . S
C1816 H1807 0.950 . S
C1816 C1815 1.398 . S
C1816 C1817 1.391 . S
C1817 H1805 0.950 . S
C1817 C1813 1.393 . S
C1817 C1816 1.391 . S
C1818 H1808 0.950 . S
C1818 C1819 1.386 . S
C1818 C1820 1.391 . S
C1819 C1818 1.386 . S
C1819 C1823 1.393 . S
C1820 H1809 0.950 . S
C1820 C1818 1.391 . S
C1820 C1821 1.400 . S
C1821 C1815 1.491 . S
C1821 C1820 1.400 . S
C1821 C1822 1.398 . S
C1822 H1810 0.950 . S
C1822 C1821 1.398 . S
C1822 C1823 1.391 . S
C1823 H1811 0.950 . S
C1823 C1819 1.393 . S
C1823 C1822 1.391 . S
H1824 C1832 0.950 . S
H1825 C1837 0.950 . S
H1826 C1834 0.950 . S
H1827 C1836 0.950 1_655 S
H1828 C1838 0.950 . S
H1829 C1840 0.950 . S
H1830 C1842 0.950 1_455 S
H1831 C1843 0.950 . S
C1832 H1824 0.950 . S
C1832 C1833 1.386 . S
C1832 C1834 1.391 . S
C1833 C1832 1.386 . S
C1833 C1837 1.393 . S
C1834 H1826 0.950 . S
C1834 C1832 1.391 . S
C1834 C1835 1.400 . S
C1835 C1834 1.400 . S
C1835 C1836 1.398 . S
C1835 C1841 1.491 1_456 S
C1836 H1827 0.950 1_455 S
C1836 C1835 1.398 . S
C1836 C1837 1.391 . S
C1837 H1825 0.950 . S
C1837 C1833 1.393 . S
C1837 C1836 1.391 . S
C1838 H1828 0.950 . S
C1838 C1839 1.386 . S
C1838 C1840 1.391 . S
C1839 C1838 1.386 . S
C1839 C1843 1.393 . S
C1840 H1829 0.950 . S
C1840 C1838 1.391 . S
C1840 C1841 1.400 . S
C1841 C1835 1.491 1_654 S
C1841 C1840 1.400 . S
C1841 C1842 1.398 . S
C1842 H1830 0.950 1_655 S
C1842 C1841 1.398 . S
C1842 C1843 1.391 . S
C1843 H1831 0.950 . S
C1843 C1839 1.393 . S
C1843 C1842 1.391 . S
H1844 C1852 0.950 . S
H1845 C1857 0.950 . S
H1846 C1854 0.950 . S
H1847 C1856 0.950 . S
H1848 C1858 0.950 . S
H1849 C1860 0.950 . S
H1850 C1862 0.950 . S
H1851 C1863 0.950 . S
C1852 H1844 0.950 . S
C1852 C1853 1.386 . S
C1852 C1854 1.391 . S
C1853 C1852 1.386 . S
C1853 C1857 1.393 . S
C1854 H1846 0.950 . S
C1854 C1852 1.391 . S
C1854 C1855 1.400 . S
C1855 C1854 1.400 . S
C1855 C1856 1.398 . S
C1855 C1861 1.491 1_554 S
C1856 H1847 0.950 . S
C1856 C1855 1.398 . S
C1856 C1857 1.391 . S
C1857 H1845 0.950 . S
C1857 C1853 1.393 . S
C1857 C1856 1.391 . S
C1858 H1848 0.950 . S
C1858 C1859 1.386 . S
C1858 C1860 1.391 . S
C1859 C1858 1.386 . S
C1859 C1863 1.393 . S
C1860 H1849 0.950 . S
C1860 C1858 1.391 . S
C1860 C1861 1.400 . S
C1861 C1855 1.491 1_556 S
C1861 C1860 1.400 . S
C1861 C1862 1.398 . S
C1862 H1850 0.950 . S
C1862 C1861 1.398 . S
C1862 C1863 1.391 . S
C1863 H1851 0.950 . S
C1863 C1859 1.393 . S
C1863 C1862 1.391 . S
H1864 C1872 0.950 . S
H1865 C1877 0.950 . S
H1866 C1874 0.950 1_565 S
H1867 C1876 0.950 . S
H1868 C1878 0.950 . S
H1869 C1880 0.950 1_545 S
H1870 C1882 0.950 . S
H1871 C1883 0.950 . S
C1872 H1864 0.950 . S
C1872 C1873 1.386 . S
C1872 C1874 1.391 . S
C1873 C1872 1.386 . S
C1873 C1877 1.393 . S
C1874 H1866 0.950 1_545 S
C1874 C1872 1.391 . S
C1874 C1875 1.400 . S
C1875 C1874 1.400 . S
C1875 C1876 1.398 . S
C1875 C1881 1.491 1_544 S
C1876 H1867 0.950 . S
C1876 C1875 1.398 . S
C1876 C1877 1.391 . S
C1877 H1865 0.950 . S
C1877 C1873 1.393 . S
C1877 C1876 1.391 . S
C1878 H1868 0.950 . S
C1878 C1879 1.386 . S
C1878 C1880 1.391 . S
C1879 C1878 1.386 . S
C1879 C1883 1.393 . S
C1880 H1869 0.950 1_565 S
C1880 C1878 1.391 . S
C1880 C1881 1.400 . S
C1881 C1875 1.491 1_566 S
C1881 C1880 1.400 . S
C1881 C1882 1.398 . S
C1882 H1870 0.950 . S
C1882 C1881 1.398 . S
C1882 C1883 1.391 . S
C1883 H1871 0.950 . S
C1883 C1879 1.393 . S
C1883 C1882 1.391 . S
H1884 C1892 0.943 1_545 S
H1885 C1897 0.950 . S
H1886 C1894 0.950 . S
H1887 C1896 0.950 . S
H1888 C1898 0.944 1_565 S
H1889 C1900 0.950 . S
H1890 C1902 0.950 . S
H1891 C1903 0.950 . S
C1892 H1884 0.943 1_565 S
C1892 C1893 1.396 . S
C1892 C1894 1.387 1_565 S
C1893 C1892 1.396 . S
C1893 C1897 1.393 . S
C1894 H1886 0.950 . S
C1894 C1892 1.387 1_545 S
C1894 C1895 1.400 1_545 S
C1895 C1894 1.400 1_565 S
C1895 C1896 1.398 . S
C1895 C1901 1.491 1_566 S
C1896 H1887 0.950 . S
C1896 C1895 1.398 . S
C1896 C1897 1.391 . S
C1897 H1885 0.950 . S
C1897 C1893 1.393 . S
C1897 C1896 1.391 . S
C1898 H1888 0.944 1_545 S
C1898 C1899 1.394 . S
C1898 C1900 1.388 1_545 S
C1899 C1898 1.394 . S
C1899 C1903 1.393 . S
C1900 H1889 0.950 . S
C1900 C1898 1.388 1_565 S
C1900 C1901 1.400 1_565 S
C1901 C1895 1.491 1_544 S
C1901 C1900 1.400 1_545 S
C1901 C1902 1.398 . S
C1902 H1890 0.950 . S
C1902 C1901 1.398 . S
C1902 C1903 1.391 . S
C1903 H1891 0.950 . S
C1903 C1899 1.393 . S
C1903 C1902 1.391 . S
H1904 C1912 0.950 . S
H1905 C1917 0.950 1_655 S
H1906 C1914 0.950 . S
H1907 C1916 0.950 . S
H1908 C1918 0.950 . S
H1909 C1920 0.950 . S
H1910 C1922 0.950 . S
H1911 C1923 0.950 1_455 S
C1912 H1904 0.950 . S
C1912 C1913 1.386 . S
C1912 C1914 1.391 . S
C1913 C1912 1.386 . S
C1913 C1917 1.393 . S
C1914 H1906 0.950 . S
C1914 C1912 1.391 . S
C1914 C1915 1.400 . S
C1915 C1914 1.400 . S
C1915 C1916 1.398 1_455 S
C1915 C1921 1.491 1_456 S
C1916 H1907 0.950 . S
C1916 C1915 1.398 1_655 S
C1916 C1917 1.391 1_655 S
C1917 H1905 0.950 1_455 S
C1917 C1913 1.393 . S
C1917 C1916 1.391 1_455 S
C1918 H1908 0.950 . S
C1918 C1919 1.386 . S
C1918 C1920 1.391 . S
C1919 C1918 1.386 . S
C1919 C1923 1.393 . S
C1920 H1909 0.950 . S
C1920 C1918 1.391 . S
C1920 C1921 1.400 . S
C1921 C1915 1.491 1_654 S
C1921 C1920 1.400 . S
C1921 C1922 1.398 1_655 S
C1922 H1910 0.950 . S
C1922 C1921 1.398 1_455 S
C1922 C1923 1.391 1_455 S
C1923 H1911 0.950 1_655 S
C1923 C1919 1.393 . S
C1923 C1922 1.391 1_655 S
H1924 C1932 0.950 . S
H1925 C1937 0.950 . S
H1926 C1934 0.950 . S
H1927 C1936 0.950 . S
H1928 C1938 0.950 . S
H1929 C1940 0.950 . S
H1930 C1942 0.950 . S
H1931 C1943 0.950 . S
C1932 H1924 0.950 . S
C1932 C1933 1.386 . S
C1932 C1934 1.391 . S
C1933 C1932 1.386 . S
C1933 C1937 1.393 . S
C1934 H1926 0.950 . S
C1934 C1932 1.391 . S
C1934 C1935 1.400 . S
C1935 C1934 1.400 . S
C1935 C1936 1.398 . S
C1935 C1941 1.491 1_554 S
C1936 H1927 0.950 . S
C1936 C1935 1.398 . S
C1936 C1937 1.391 . S
C1937 H1925 0.950 . S
C1937 C1933 1.393 . S
C1937 C1936 1.391 . S
C1938 H1928 0.950 . S
C1938 C1939 1.386 . S
C1938 C1940 1.391 . S
C1939 C1938 1.386 . S
C1939 C1943 1.393 . S
C1940 H1929 0.950 . S
C1940 C1938 1.391 . S
C1940 C1941 1.400 . S
C1941 C1935 1.491 1_556 S
C1941 C1940 1.400 . S
C1941 C1942 1.398 . S
C1942 H1930 0.950 . S
C1942 C1941 1.398 . S
C1942 C1943 1.391 . S
C1943 H1931 0.950 . S
C1943 C1939 1.393 . S
C1943 C1942 1.391 . S
C513 C8 1.308 . S
C519 C162 1.301 . S
C533 C22 1.293 . S
C539 C134 1.316 . S
C553 C148 1.292 . S
C559 C36 1.316 . S
C573 C50 1.302 . S
C579 C106 1.307 . S
C593 C120 1.291 . S
C599 C64 1.317 . S
C613 C78 1.292 . S
C619 C92 1.317 . S
C633 C330 1.305 . S
C639 C176 1.304 . S
C653 C190 1.305 . S
C659 C302 1.304 . S
C673 C204 1.303 . S
C679 C316 1.305 . S
C693 C274 1.300 . S
C699 C218 1.309 . S
C713 C232 1.305 . S
C719 C288 1.303 . S
C733 C260 1.308 . S
C739 C246 1.301 . S
C753 C344 1.302 . S
C759 C498 1.307 . S
C773 C470 1.309 . S
C779 C358 1.300 . S
C793 C484 1.313 . S
C799 C372 1.295 . S
C813 C442 1.292 . S
C819 C386 1.316 . S
C833 C456 1.294 . S
C839 C400 1.314 . S
C853 C428 1.300 . S
C859 C414 1.309 . S
C873 C7 1.410 . S
C879 C63 1.402 . S
C893 C77 1.404 . S
C899 C21 1.410 . S
C913 C35 1.406 . S
C919 C49 1.395 . S
C933 C91 1.398 . S
C939 C147 1.409 . S
C953 C105 1.407 . S
C959 C161 1.409 . S
C973 C119 1.406 . S
C979 C133 1.410 . S
C993 C231 1.407 . S
C999 C175 1.409 . S
C1013 C245 1.410 . S
C1019 C189 1.401 . S
C1033 C203 1.397 . S
C1039 C217 1.394 . S
C1053 C315 1.402 . S
C1059 C259 1.410 . S
C1073 C329 1.398 . S
C1079 C273 1.409 . S
C1093 C287 1.410 . S
C1099 C301 1.402 . S
C1113 C399 1.397 . S
C1119 C343 1.394 . S
C1133 C357 1.405 . S
C1139 C413 1.394 . S
C1153 C371 1.402 . S
C1159 C385 1.393 . S
C1173 C483 1.397 . S
C1179 C427 1.394 . S
C1193 C441 1.404 . S
C1199 C497 1.394 . S
C1213 C469 1.394 . S
C1219 C455 1.403 . S
C1233 C415 1.439 . S
C1239 C9 1.444 . S
C1253 C23 1.444 . S
C1259 C387 1.439 . S
C1273 C37 1.436 . S
C1279 C401 1.440 . S
C1293 C51 1.442 . S
C1299 C191 1.447 . S
C1313 C205 1.450 . S
C1319 C65 1.450 . S
C1333 C177 1.434 . S
C1339 C79 1.434 . S
C1353 C93 1.447 . S
C1359 C331 1.442 . S
C1373 C107 1.450 . S
C1379 C303 1.449 . S
C1393 C121 1.434 . S
C1399 C317 1.434 . S
C1413 C443 1.448 . S
C1419 C135 1.444 . S
C1433 C457 1.434 . S
C1439 C149 1.434 . S
C1453 C163 1.447 . S
C1459 C429 1.450 . S
C1473 C359 1.441 . S
C1479 C219 1.436 . S
C1493 C233 1.447 . S
C1499 C373 1.442 . S
C1513 C345 1.447 . S
C1519 C247 1.442 . S
C1533 C499 1.440 . S
C1539 C261 1.445 . S
C1553 C275 1.435 . S
C1559 C471 1.438 . S
C1573 C289 1.445 . S
C1579 C485 1.440 . S
C1593 C6 1.543 . S
C1599 C412 1.544 . S
C1613 C384 1.546 . S
C1619 C20 1.543 . S
C1633 C34 1.544 . S
C1639 C398 1.549 . S
C1653 C188 1.543 . S
C1659 C48 1.544 . S
C1673 C62 1.554 . S
C1679 C202 1.547 . S
C1693 C76 1.543 . S
C1699 C174 1.544 . S
C1713 C328 1.559 . S
C1719 C90 1.552 . S
C1733 C104 1.559 . S
C1739 C300 1.553 . S
C1753 C118 1.548 . S
C1759 C314 1.555 . S
C1773 C132 1.547 . S
C1779 C440 1.543 . S
C1793 C454 1.543 . S
C1799 C146 1.545 . S
C1813 C160 1.551 . S
C1819 C426 1.558 . S
C1833 C356 1.560 . S
C1839 C216 1.563 . S
C1853 C230 1.543 . S
C1859 C370 1.548 . S
C1873 C244 1.563 . S
C1879 C342 1.561 . S
C1893 C496 1.550 . S
C1899 C258 1.557 . S
C1913 C468 1.559 . S
C1919 C272 1.552 . S
C1933 C286 1.545 . S
C1939 C482 1.543 . S
