# Generated by pormake.
# Topology unn, (4)-cn, num edge types: 1
# Building blocks:
#     Node 0, Type 0, BuildingBlock: NAWXER_clean_sbu_0, # of connection points: 4
#     Node 1, Type 0, BuildingBlock: NAWXER_clean_sbu_0, # of connection points: 4
#     Node 2, Type 0, BuildingBlock: NAWXER_clean_sbu_0, # of connection points: 4
#     Node 3, Type 0, BuildingBlock: NAWXER_clean_sbu_0, # of connection points: 4
#     Node 4, Type 0, BuildingBlock: NAWXER_clean_sbu_0, # of connection points: 4
#     Node 5, Type 0, BuildingBlock: NAWXER_clean_sbu_0, # of connection points: 4
#     Node 6, Type 0, BuildingBlock: NAWXER_clean_sbu_0, # of connection points: 4
#     Node 7, Type 0, BuildingBlock: NAWXER_clean_sbu_0, # of connection points: 4
#     Node 8, Type 0, BuildingBlock: NAWXER_clean_sbu_0, # of connection points: 4
#     Node 9, Type 0, BuildingBlock: NAWXER_clean_sbu_0, # of connection points: 4
#     Node 10, Type 0, BuildingBlock: NAWXER_clean_sbu_0, # of connection points: 4
#     Node 11, Type 0, BuildingBlock: NAWXER_clean_sbu_0, # of connection points: 4
#     Node 12, Type 0, BuildingBlock: NAWXER_clean_sbu_0, # of connection points: 4
#     Node 13, Type 0, BuildingBlock: NAWXER_clean_sbu_0, # of connection points: 4
#     Node 14, Type 0, BuildingBlock: NAWXER_clean_sbu_0, # of connection points: 4
#     Node 15, Type 0, BuildingBlock: NAWXER_clean_sbu_0, # of connection points: 4
#     Node 16, Type 0, BuildingBlock: NAWXER_clean_sbu_0, # of connection points: 4
#     Node 17, Type 0, BuildingBlock: NAWXER_clean_sbu_0, # of connection points: 4
#     Edge 18, Type (0, 0), BuildingBlock: EZIPEK_clean_linker_0, # of connection points: 2
#     Edge 19, Type (0, 0), BuildingBlock: EZIPEK_clean_linker_0, # of connection points: 2
#     Edge 20, Type (0, 0), BuildingBlock: EZIPEK_clean_linker_0, # of connection points: 2
#     Edge 21, Type (0, 0), BuildingBlock: EZIPEK_clean_linker_0, # of connection points: 2
#     Edge 22, Type (0, 0), BuildingBlock: EZIPEK_clean_linker_0, # of connection points: 2
#     Edge 23, Type (0, 0), BuildingBlock: EZIPEK_clean_linker_0, # of connection points: 2
#     Edge 24, Type (0, 0), BuildingBlock: EZIPEK_clean_linker_0, # of connection points: 2
#     Edge 25, Type (0, 0), BuildingBlock: EZIPEK_clean_linker_0, # of connection points: 2
#     Edge 26, Type (0, 0), BuildingBlock: EZIPEK_clean_linker_0, # of connection points: 2
#     Edge 27, Type (0, 0), BuildingBlock: EZIPEK_clean_linker_0, # of connection points: 2
#     Edge 28, Type (0, 0), BuildingBlock: EZIPEK_clean_linker_0, # of connection points: 2
#     Edge 29, Type (0, 0), BuildingBlock: EZIPEK_clean_linker_0, # of connection points: 2
#     Edge 30, Type (0, 0), BuildingBlock: EZIPEK_clean_linker_0, # of connection points: 2
#     Edge 31, Type (0, 0), BuildingBlock: EZIPEK_clean_linker_0, # of connection points: 2
#     Edge 32, Type (0, 0), BuildingBlock: EZIPEK_clean_linker_0, # of connection points: 2
#     Edge 33, Type (0, 0), BuildingBlock: EZIPEK_clean_linker_0, # of connection points: 2
#     Edge 34, Type (0, 0), BuildingBlock: EZIPEK_clean_linker_0, # of connection points: 2
#     Edge 35, Type (0, 0), BuildingBlock: EZIPEK_clean_linker_0, # of connection points: 2
#     Edge 36, Type (0, 0), BuildingBlock: EZIPEK_clean_linker_0, # of connection points: 2
#     Edge 37, Type (0, 0), BuildingBlock: EZIPEK_clean_linker_0, # of connection points: 2
#     Edge 38, Type (0, 0), BuildingBlock: EZIPEK_clean_linker_0, # of connection points: 2
#     Edge 39, Type (0, 0), BuildingBlock: EZIPEK_clean_linker_0, # of connection points: 2
#     Edge 40, Type (0, 0), BuildingBlock: EZIPEK_clean_linker_0, # of connection points: 2
#     Edge 41, Type (0, 0), BuildingBlock: EZIPEK_clean_linker_0, # of connection points: 2
#     Edge 42, Type (0, 0), BuildingBlock: EZIPEK_clean_linker_0, # of connection points: 2
#     Edge 43, Type (0, 0), BuildingBlock: EZIPEK_clean_linker_0, # of connection points: 2
#     Edge 44, Type (0, 0), BuildingBlock: EZIPEK_clean_linker_0, # of connection points: 2
#     Edge 45, Type (0, 0), BuildingBlock: EZIPEK_clean_linker_0, # of connection points: 2
#     Edge 46, Type (0, 0), BuildingBlock: EZIPEK_clean_linker_0, # of connection points: 2
#     Edge 47, Type (0, 0), BuildingBlock: EZIPEK_clean_linker_0, # of connection points: 2
#     Edge 48, Type (0, 0), BuildingBlock: EZIPEK_clean_linker_0, # of connection points: 2
#     Edge 49, Type (0, 0), BuildingBlock: EZIPEK_clean_linker_0, # of connection points: 2
#     Edge 50, Type (0, 0), BuildingBlock: EZIPEK_clean_linker_0, # of connection points: 2
#     Edge 51, Type (0, 0), BuildingBlock: EZIPEK_clean_linker_0, # of connection points: 2
#     Edge 52, Type (0, 0), BuildingBlock: EZIPEK_clean_linker_0, # of connection points: 2
#     Edge 53, Type (0, 0), BuildingBlock: EZIPEK_clean_linker_0, # of connection points: 2
# Relax obj value: 0.039
# Max RMSD: 0.205
# Mean RMSD: 0.205
data_MOF--net-unn--node1-NAWXER_clean_sbu_0--edge1-EZIPEK_clean_linker_0
_symmetry_space_group_name_H-M    P1
_symmetry_Int_Tables_number       1
_symmetry_cell_setting            triclinic
loop_
_symmetry_equiv_pos_as_xyz
'x, y, z'
_cell_length_a     32.548795
_cell_length_b     32.789992
_cell_length_c     30.137763
_cell_angle_alpha  90.306591
_cell_angle_beta   89.466812
_cell_angle_gamma 120.32565
loop_
_atom_site_label
_atom_site_type_symbol
_atom_site_fract_x
_atom_site_fract_y
_atom_site_fract_z
_atom_type_partial_charge
C0 C 0.96084 0.71725 0.20597 0.0
C1 C 0.11362 0.78944 0.28409 0.0
O2 O 0.98646 0.76087 0.21585 0.0
Zn3 Zn 0.03547 0.75578 0.24718 0.0
O4 O 0.97225 0.68756 0.21999 0.0
Zn5 Zn 1.02807 0.68779 0.25678 0.0
O6 O 0.99768 0.65497 0.31173 0.0
O7 O 1.00099 0.72363 0.30728 0.0
O8 O 0.09394 0.74479 0.279 0.0
O9 O 0.09237 0.8104 0.26989 0.0
O10 O 0.06104 0.73066 0.19402 0.0
O11 O 0.05003 0.6604 0.2124 0.0
C12 C 0.98961 0.68586 0.32867 0.0
C13 C 0.06365 0.69394 0.18444 0.0
C14 C 0.33518 0.25884 0.20911 0.0
C15 C 0.247 0.32949 0.28328 0.0
O16 O 0.29103 0.23655 0.2194 0.0
Zn17 Zn 0.28753 0.29019 0.24598 0.0
O18 O 0.36064 0.30257 0.21929 0.0
Zn19 Zn 0.35207 0.35658 0.25109 0.0
O20 O 0.39223 0.37168 0.30075 0.0
O21 O 0.32576 0.30217 0.30636 0.0
O22 O 0.29193 0.35719 0.27925 0.0
O23 O 0.22843 0.28771 0.26758 0.0
O24 O 0.30631 0.33482 0.18948 0.0
O25 O 0.37126 0.4026 0.20561 0.0
C26 C 0.36498 0.33462 0.32275 0.0
C27 C 0.33905 0.37638 0.17833 0.0
C28 C 0.74857 0.93256 0.27729 0.0
C29 C 0.83507 0.08489 0.20151 0.0
O30 O 0.78753 0.94933 0.2558 0.0
Zn31 Zn 0.79055 1.00768 0.23746 0.0
O32 O 0.72497 0.95407 0.27617 0.0
Zn33 Zn 0.73285 1.01773 0.24856 0.0
O34 O 0.68121 0.994 0.20656 0.0
O35 O 0.74001 0.98446 0.18324 0.0
O36 O 0.79353 0.07596 0.2144 0.0
O37 O 0.84842 0.05537 0.20934 0.0
O38 O 0.78986 0.03853 0.30223 0.0
O39 O 0.72533 0.04412 0.30293 0.0
C40 C 0.69936 0.98071 0.17641 0.0
C41 C 0.7611 0.04787 0.32338 0.0
C42 C 0.98065 0.33428 0.83013 0.0
C43 C 0.05241 0.3439 0.68558 0.0
O44 O 0.99101 0.30169 0.82448 0.0
Zn45 Zn 1.02269 0.27981 0.77363 0.0
O46 O 0.99282 0.36603 0.80069 0.0
Zn47 Zn 1.0239 0.34344 0.7609 0.0
O48 O 0.96235 0.28002 0.73673 0.0
O49 O 0.96581 0.21867 0.76005 0.0
O50 O 0.05077 0.37657 0.70697 0.0
O51 O 0.04384 0.30622 0.70615 0.0
O52 O 0.08013 0.28577 0.80189 0.0
O53 O 0.0857 0.35516 0.79522 0.0
C54 C 0.94358 0.23509 0.73886 0.0
C55 C 0.10327 0.3302 0.80828 0.0
C56 C 0.83209 0.78635 0.82137 0.0
C57 C 0.80476 0.8092 0.6647 0.0
O58 O 0.86512 0.81459 0.79503 0.0
Zn59 Zn 0.82389 0.80321 0.74335 0.0
O60 O 0.7894 0.76169 0.8077 0.0
Zn61 Zn 0.74812 0.75082 0.75109 0.0
O62 O 0.72688 0.68467 0.73585 0.0
O63 O 0.80419 0.73263 0.72534 0.0
O64 O 0.76872 0.77983 0.68759 0.0
O65 O 0.84469 0.83365 0.68399 0.0
O66 O 0.78251 0.83121 0.77036 0.0
O67 O 0.70708 0.77477 0.77317 0.0
C68 C 0.76727 0.69141 0.72281 0.0
C69 C 0.73928 0.81739 0.78096 0.0
C70 C 0.33073 0.0947 0.71583 0.0
C71 C 0.25705 0.93578 0.78612 0.0
O72 O 0.3588 0.07844 0.7208 0.0
Zn73 Zn 0.35675 1.01629 0.74641 0.0
O74 O 0.28773 0.07072 0.72951 0.0
Zn75 Zn 0.29103 1.01566 0.75062 0.0
O76 O 0.33671 0.04471 0.80668 0.0
O77 O 0.40253 0.04255 0.7923 0.0
O78 O 0.23607 0.95827 0.77576 0.0
O79 O 0.30126 0.95371 0.77675 0.0
O80 O 0.37291 0.99349 0.69466 0.0
O81 O 0.30538 0.99378 0.68838 0.0
C82 C 0.37807 0.053 0.81802 0.0
C83 C 0.33828 0.98812 0.67123 0.0
C84 C 0.61792 0.05187 0.5544 0.0
C85 C 0.76994 0.12553 0.63379 0.0
O86 O 0.63975 0.0934 0.57061 0.0
Zn87 Zn 0.6931 0.08967 0.59353 0.0
O88 O 0.63497 0.02446 0.55929 0.0
Zn89 Zn 0.6964 0.02679 0.58804 0.0
O90 O 0.66945 0.98069 0.6374 0.0
O91 O 0.6586 0.0411 0.6458 0.0
O92 O 0.75778 0.08428 0.61894 0.0
O93 O 0.74265 0.14194 0.62649 0.0
O94 O 0.72585 0.08374 0.53282 0.0
O95 O 0.72194 1.01465 0.53423 0.0
C96 C 0.65307 1.00212 0.66033 0.0
C97 C 0.73243 0.05249 0.51343 0.0
C98 C 0.9763 0.62671 0.66273 0.0
C99 C 0.94236 0.65717 0.5152 0.0
O100 O 0.99795 0.66377 0.63924 0.0
Zn101 Zn 0.95564 0.64188 0.59042 0.0
O102 O 0.9388 0.59028 0.64776 0.0
Zn103 Zn 0.89764 0.57314 0.58681 0.0
O104 O 0.90396 0.52199 0.56185 0.0
O105 O 0.97105 0.59061 0.55889 0.0
O106 O 0.91325 0.61437 0.52671 0.0
O107 O 0.96876 0.68668 0.54427 0.0
O108 O 0.89201 0.63426 0.61964 0.0
O109 O 0.83497 0.56103 0.60768 0.0
C110 C 0.94731 0.54634 0.54947 0.0
C111 C 0.84844 0.60173 0.62371 0.0
C112 C 0.51037 0.43269 0.55338 0.0
C113 C 0.42159 0.27134 0.61843 0.0
O114 O 0.52848 0.40817 0.56614 0.0
Zn115 Zn 0.46865 0.35169 0.58513 0.0
O116 O 0.4656 0.416 0.55851 0.0
Zn117 Zn 0.40457 0.35366 0.58463 0.0
O118 O 0.38626 0.37798 0.63281 0.0
O119 O 0.45252 0.37651 0.64492 0.0
O120 O 0.39604 0.29006 0.61168 0.0
O121 O 0.46519 0.29324 0.60654 0.0
O122 O 0.4305 0.3326 0.52341 0.0
O123 O 0.36315 0.33237 0.53583 0.0
C124 C 0.42006 0.38494 0.65821 0.0
C125 C 0.39104 0.32751 0.50954 0.0
C126 C 0.70342 0.67476 0.14741 0.0
C127 C 0.77588 0.72985 -0.00102 0.0
O128 O 0.70191 0.64166 0.12332 0.0
Zn129 Zn 0.72306 0.6344 0.05678 0.0
O130 O 0.71756 0.71514 0.13016 0.0
Zn131 Zn 0.73506 0.70278 0.07198 0.0
O132 O 0.6677 0.65729 0.03934 0.0
O133 O 0.66368 0.5886 0.02931 0.0
O134 O 0.77244 0.75401 0.03041 0.0
O135 O 0.75714 0.6852 0.00447 0.0
O136 O 0.77292 0.61923 0.0702 0.0
O137 O 0.7897 0.69003 0.09234 0.0
C138 C 0.6451 0.61444 0.02522 0.0
C139 C 0.80071 0.65784 0.08999 0.0
C140 C 0.44756 0.0728 0.15092 0.0
C141 C 0.4215 0.10027 0.0016 0.0
O142 O 0.47763 0.11566 0.14014 0.0
Zn143 Zn 0.4946 0.15779 0.08025 0.0
O144 O 0.41875 0.04478 0.12227 0.0
Zn145 Zn 0.4344 0.08952 0.07738 0.0
O146 O 0.49929 0.09483 0.05472 0.0
O147 O 0.55847 0.16656 0.06305 0.0
O148 O 0.39477 0.06698 0.02768 0.0
O149 O 0.45923 0.13664 0.01626 0.0
O150 O 0.48381 0.20894 0.10235 0.0
O151 O 0.41816 0.13956 0.10597 0.0
C152 C 0.54393 0.12399 0.05134 0.0
C153 C 0.44013 0.184 0.11372 0.0
C154 C 0.0367 0.42322 0.04484 0.0
C155 C 0.94754 0.2592 0.10438 0.0
O156 O 0.05536 0.39814 0.05372 0.0
Zn157 Zn 0.99631 0.34101 0.07524 0.0
O158 O 0.9929 0.40697 0.0552 0.0
Zn159 Zn 0.93231 0.34629 0.08209 0.0
O160 O 0.92098 0.36848 0.13921 0.0
O161 O 0.98508 0.36169 0.13829 0.0
O162 O 0.92329 0.27994 0.10169 0.0
O163 O 0.99079 0.28027 0.09116 0.0
O164 O 0.95446 0.32502 0.01756 0.0
O165 O 0.89076 0.33118 0.0308 0.0
C166 C 0.95588 0.36997 0.15952 0.0
C167 C 0.91671 0.32365 0.00394 0.0
C168 C 0.29183 0.43307 0.8869 0.0
C169 C 0.46023 0.52413 0.93878 0.0
O170 O 0.31561 0.47745 0.89404 0.0
Zn171 Zn 0.37609 0.48175 0.91165 0.0
O172 O 0.31121 0.40809 0.89379 0.0
Zn173 Zn 0.37831 0.41823 0.91571 0.0
O174 O 0.36181 0.3818 0.96779 0.0
O175 O 0.35856 0.44752 0.97498 0.0
O176 O 0.44305 0.47955 0.93543 0.0
O177 O 0.4349 0.54169 0.92688 0.0
O178 O 0.39459 0.45962 0.85132 0.0
O179 O 0.39765 0.39534 0.86733 0.0
C180 C 0.35497 0.40994 0.9915 0.0
C181 C 0.4015 0.42595 0.83947 0.0
C182 C 0.59966 0.95597 0.84202 0.0
C183 C 0.62928 0.93462 0.9986 0.0
O184 O 0.63984 0.98594 0.85838 0.0
Zn185 Zn 0.68063 1.00331 0.91587 0.0
O186 O 0.56804 0.92371 0.86682 0.0
Zn187 Zn 0.60835 0.94015 0.92081 0.0
O188 O 0.61443 1.00449 0.94203 0.0
O189 O 0.68612 0.06534 0.93259 0.0
O190 O 0.5909 0.90673 0.97818 0.0
O191 O 0.66333 0.96962 0.97823 0.0
O192 O 0.7305 0.99104 0.89218 0.0
O193 O 0.6601 0.92584 0.89542 0.0
C194 C 0.64326 0.04894 0.94593 0.0
C195 C 0.70407 0.94683 0.88458 0.0
C196 C 0.16692 0.75542 0.87995 0.0
C197 C 0.09501 0.58997 0.9346 0.0
O198 O 0.18755 0.73172 0.88606 0.0
Zn199 Zn 0.13242 0.67282 0.9078 0.0
O200 O 0.12301 0.73728 0.89072 0.0
Zn201 Zn 0.06802 0.67168 0.91789 0.0
O202 O 0.05273 0.68964 0.97304 0.0
O203 O 0.11944 0.68762 0.97539 0.0
O204 O 0.06739 0.60726 0.9351 0.0
O205 O 0.13722 0.61626 0.91994 0.0
O206 O 0.0856 0.65214 0.85044 0.0
O207 O 1.02032 0.65084 0.87361 0.0
C208 C 0.0868 0.69202 0.99522 0.0
C209 C 0.04396 0.64567 0.84263 0.0
C210 C 0.3493 0.9876 0.4812 0.0
C211 C 0.41481 1.01482 0.33299 0.0
O212 O 0.3524 0.95268 0.4661 0.0
Zn213 Zn 0.37521 0.93431 0.40639 0.0
O214 O 0.35922 0.02295 0.45672 0.0
Zn215 Zn 0.37903 1.00136 0.40654 0.0
O216 O 0.3134 0.94542 0.38299 0.0
O217 O 0.31773 0.8807 0.38294 0.0
O218 O 0.40548 0.04168 0.35605 0.0
O219 O 0.40593 0.97485 0.34823 0.0
O220 O 0.42728 0.92841 0.43055 0.0
O221 O 0.43851 1.00078 0.43442 0.0
C222 C 0.29475 0.90155 0.37399 0.0
C223 C 0.45227 0.97138 0.44278 0.0
C224 C 0.03559 0.45794 0.44666 0.0
C225 C 0.13654 0.39876 0.37861 0.0
O226 O 1.01456 0.41373 0.43823 0.0
Zn227 Zn 1.03064 0.36107 0.41608 0.0
O228 O 0.07991 0.48298 0.43742 0.0
Zn229 Zn 0.08971 0.43225 0.4136 0.0
O230 O 0.04412 0.40951 0.35683 0.0
O231 O 0.98766 0.33499 0.36573 0.0
O232 O 0.15019 0.44154 0.38868 0.0
O233 O 0.09371 0.36668 0.3877 0.0
O234 O 1.02126 0.32645 0.47184 0.0
O235 O 0.08417 0.39789 0.47432 0.0
C236 C 1.00736 0.37233 0.34208 0.0
C237 C 0.05611 0.3587 0.49338 0.0
C238 C 0.67589 0.7711 0.39393 0.0
C239 C 0.61289 0.61444 0.46147 0.0
O240 O 0.70607 0.75689 0.39521 0.0
Zn241 Zn 0.70969 0.69626 0.41787 0.0
O242 O 0.63496 0.74602 0.41163 0.0
Zn243 Zn 0.6443 0.69418 0.42764 0.0
O244 O 0.69596 0.72954 0.479 0.0
O245 O 0.75871 0.72358 0.46402 0.0
O246 O 0.59234 0.63808 0.45516 0.0
O247 O 0.65623 0.63172 0.44866 0.0
O248 O 0.72328 0.67847 0.36024 0.0
O249 O 0.65276 0.67233 0.36201 0.0
C250 C 0.73759 0.73812 0.48976 0.0
C251 C 0.68581 0.67073 0.33999 0.0
C252 C 0.11737 0.7202 0.11795 0.0
C253 C 0.07296 0.68769 0.13762 0.0
C254 C 0.04149 0.65373 0.06478 0.0
C255 C 0.08348 0.69031 0.04437 0.0
N256 N 0.16025 0.76101 0.05098 0.0
N257 N 0.98981 0.62862 0.129 0.0
C258 C 0.12148 0.72405 0.07081 0.0
C259 C 0.03434 0.65552 0.11094 0.0
N260 N 0.15552 0.74718 0.14453 0.0
N261 N 1.00875 0.61629 0.04035 0.0
H262 H 0.98234 0.62774 0.16276 0.0
H263 H 0.95928 0.60991 0.10992 0.0
H264 H 1.01225 0.61293 0.00639 0.0
H265 H 0.9804 0.5862 0.05452 0.0
H266 H 0.19002 0.7686 0.13256 0.0
H267 H 0.15325 0.74487 0.1791 0.0
H268 H 0.18689 0.78945 0.06839 0.0
H269 H 0.16407 0.76522 0.01664 0.0
C270 C 0.30764 0.39139 0.06145 0.0
C271 C 0.35093 0.40366 0.0395 0.0
C272 C 0.3859 0.39748 0.10826 0.0
C273 C 0.34415 0.3892 0.1313 0.0
N274 N 0.26735 0.38371 0.13149 0.0
N275 N 0.4348 0.42954 0.04285 0.0
C276 C 0.30554 0.3878 0.10837 0.0
C277 C 0.39119 0.41025 0.06317 0.0
N278 N 0.26828 0.38151 0.03734 0.0
N279 N 0.41899 0.3898 0.12826 0.0
H280 H 0.44041 0.43907 0.00948 0.0
H281 H 0.46619 0.44017 0.06016 0.0
H282 H 0.416 0.378 0.16078 0.0
H283 H 0.44697 0.39 0.11096 0.0
H284 H 0.23432 0.36752 0.05102 0.0
H285 H 0.26887 0.38395 0.00281 0.0
H286 H 0.24044 0.38745 0.11718 0.0
H287 H 0.26434 0.38006 0.16582 0.0
C288 C 0.67167 0.92249 0.11199 0.0
C289 C 0.67484 0.96324 0.13272 0.0
C290 C 0.62878 0.96905 0.07148 0.0
C291 C 0.6333 0.93429 0.04754 0.0
N292 N 0.66088 0.87892 0.04335 0.0
N293 N 0.66434 0.0311 0.12611 0.0
C294 C 0.6549 0.91093 0.0675 0.0
C295 C 0.6549 0.98777 0.11119 0.0
N296 N 0.68348 0.89413 0.13496 0.0
N297 N 0.60044 0.98515 0.0554 0.0
H298 H 0.68692 0.04871 0.15252 0.0
H299 H 0.6545 0.0523 0.10891 0.0
H300 H 0.58071 0.97167 0.02643 0.0
H301 H 0.59261 1.00781 0.07311 0.0
H302 H 0.67748 0.8617 0.12308 0.0
H303 H 0.69524 0.90079 0.16759 0.0
H304 H 0.68171 0.865 0.05376 0.0
H305 H 0.64662 0.86811 0.01168 0.0
C306 C 0.77691 0.04089 0.44968 0.0
C307 C 0.74769 0.05852 0.46549 0.0
C308 C 0.74764 0.08611 0.38984 0.0
C309 C 0.76549 0.05781 0.37251 0.0
N310 N 0.79108 1.00135 0.38929 0.0
N311 N 0.69577 0.08862 0.44539 0.0
C312 C 0.77921 0.03372 0.40324 0.0
C313 C 0.73093 0.07929 0.43434 0.0
N314 N 0.80298 0.03142 0.47869 0.0
N315 N 0.74599 0.11915 0.36375 0.0
H316 H 0.67734 0.07833 0.47533 0.0
H317 H 0.68032 0.10024 0.42224 0.0
H318 H 0.76008 0.12654 0.3316 0.0
H319 H 0.73611 0.14277 0.3761 0.0
H320 H 0.82783 0.02215 0.46825 0.0
H321 H 0.80407 0.03848 0.51259 0.0
H322 H 0.7959 0.97965 0.41122 0.0
H323 H 0.79148 0.99237 0.3564 0.0
C324 C 0.91539 0.64872 0.43546 0.0
C325 C 0.95255 0.66884 0.46728 0.0
C326 C 1.00961 0.70999 0.40761 0.0
C327 C 0.9748 0.68251 0.3757 0.0
N328 N 0.894 0.6231 0.35908 0.0
N329 N 0.03796 0.70551 0.47925 0.0
C330 C 0.92739 0.65086 0.38954 0.0
C331 C 1.00056 0.69627 0.45241 0.0
N332 N 0.86903 0.62901 0.44885 0.0
N333 N 0.0516 0.7489 0.39567 0.0
H334 H 0.03411 0.69043 0.51042 0.0
H335 H 0.07304 0.72239 0.46766 0.0
H336 H 0.05956 0.76152 0.36332 0.0
H337 H 0.07611 0.77154 0.41901 0.0
H338 H 0.84083 0.61719 0.42676 0.0
H339 H 0.85929 0.62923 0.48189 0.0
H340 H 0.86003 0.59605 0.36784 0.0
H341 H 0.90148 0.62527 0.32515 0.0
C342 C 0.38296 0.36744 0.44349 0.0
C343 C 0.38407 0.32816 0.46166 0.0
C344 C 0.37981 0.29636 0.38725 0.0
C345 C 0.37335 0.33288 0.37008 0.0
N346 N 0.35702 0.3963 0.38301 0.0
N347 N 0.37838 0.25242 0.45241 0.0
C348 C 0.37161 0.3665 0.39845 0.0
C349 C 0.38118 0.29175 0.43398 0.0
N350 N 0.3949 0.40677 0.46853 0.0
N351 N 0.38583 0.26709 0.35889 0.0
H352 H 0.37909 0.24811 0.48661 0.0
H353 H 0.37161 0.22262 0.43421 0.0
H354 H 0.38541 0.27008 0.32447 0.0
H355 H 0.39506 0.24254 0.36922 0.0
H356 H 0.39999 0.43821 0.45501 0.0
H357 H 0.40454 0.41009 0.50174 0.0
H358 H 0.34978 0.41741 0.40386 0.0
H359 H 0.34749 0.39673 0.35019 0.0
C360 C 0.96676 0.37461 0.89596 0.0
C361 C 0.95322 0.33313 0.87047 0.0
C362 C 0.89817 0.28472 0.92993 0.0
C363 C 0.91293 0.32595 0.9554 0.0
N364 N 0.94647 0.41006 0.95682 0.0
N365 N 0.89349 0.2515 0.85695 0.0
C366 C 0.94154 0.37087 0.93586 0.0
C367 C 0.91469 0.28898 0.8854 0.0
N368 N 1.00616 0.41665 0.88482 0.0
N369 N 0.8702 0.24156 0.94907 0.0
H370 H 0.90321 0.25398 0.82359 0.0
H371 H 0.86306 0.21969 0.86517 0.0
H372 H 0.85611 0.23807 0.98104 0.0
H373 H 0.86284 0.20989 0.93409 0.0
H374 H 1.01977 0.44653 0.90494 0.0
H375 H 1.0283 0.42091 0.85798 0.0
H376 H 0.9635 0.44341 0.94224 0.0
H377 H 0.92881 0.40793 0.98657 0.0
C378 C 0.8015 0.79227 0.9378 0.0
C379 C 0.8017 0.75224 0.95618 0.0
C380 C 0.83977 0.74568 0.88742 0.0
C381 C 0.8388 0.78484 0.86967 0.0
N382 N 0.83414 0.85456 0.8821 0.0
N383 N 0.83739 0.70249 0.95277 0.0
C384 C 0.82576 0.8117 0.8969 0.0
C385 C 0.82604 0.7326 0.93242 0.0
N386 N 0.77478 0.80928 0.95665 0.0
N387 N 0.8519 0.71968 0.86054 0.0
H388 H 0.82995 0.69271 0.98588 0.0
H389 H 0.85898 0.69113 0.93805 0.0
H390 H 0.86474 0.73027 0.82826 0.0
H391 H 0.84701 0.68685 0.86947 0.0
H392 H 0.77235 0.83719 0.94344 0.0
H393 H 0.75042 0.79261 0.98227 0.0
H394 H 0.82926 0.87812 0.90158 0.0
H395 H 0.85091 0.86846 0.85167 0.0
C396 C 0.40947 0.12291 0.92516 0.0
C397 C 0.4146 0.09147 0.95355 0.0
C398 C 0.39553 0.0352 0.89288 0.0
C399 C 0.39361 0.06783 0.86372 0.0
N400 N 0.40619 0.14553 0.84923 0.0
N401 N 0.42572 0.02421 0.96157 0.0
C402 C 0.40288 0.11267 0.87898 0.0
C403 C 0.41166 0.0496 0.93652 0.0
N404 N 0.40886 0.1612 0.9425 0.0
N405 N 0.37971 0.98964 0.87973 0.0
H406 H 0.43957 0.03428 0.99333 0.0
H407 H 0.42826 0.99585 0.94918 0.0
H408 H 0.36694 0.97701 0.84803 0.0
H409 H 0.3749 0.96305 0.9016 0.0
H410 H 0.40034 0.18268 0.92414 0.0
H411 H 0.41342 0.16951 0.97622 0.0
H412 H 0.4171 0.18035 0.85769 0.0
H413 H 0.4019 0.13895 0.81518 0.0
C414 C 0.38058 0.02495 0.60048 0.0
C415 C 0.34125 0.9869 0.62254 0.0
C416 C 0.30269 0.95538 0.5511 0.0
C417 C 0.34442 0.99026 0.52936 0.0
N418 N 0.42734 0.05177 0.53339 0.0
N419 N 0.26696 0.91303 0.61946 0.0
C420 C 0.38455 0.0233 0.55397 0.0
C421 C 0.30269 0.95131 0.59801 0.0
N422 N 0.4129 0.06415 0.62337 0.0
N423 N 0.26297 0.92682 0.52686 0.0
H424 H 0.26627 0.90898 0.65377 0.0
H425 H 0.24025 0.88359 0.6032 0.0
H426 H 0.26207 0.92925 0.4924 0.0
H427 H 0.22996 0.90363 0.54097 0.0
H428 H 0.43866 0.09491 0.60772 0.0
H429 H 0.41116 0.0684 0.65746 0.0
H430 H 0.45892 0.07173 0.55079 0.0
H431 H 0.43253 0.05255 0.4992 0.0
C432 C 0.07646 0.32544 0.60994 0.0
C433 C 0.05467 0.34589 0.63609 0.0
C434 C 0.04602 0.38241 0.56984 0.0
C435 C 0.05912 0.3556 0.54238 0.0
N436 N 0.08336 0.29741 0.53673 0.0
N437 N 0.99986 0.37563 0.63436 0.0
C438 C 0.07287 0.32531 0.56254 0.0
C439 C 0.03383 0.369 0.61423 0.0
N440 N 0.10232 0.30842 0.62971 0.0
N441 N 0.04625 0.42158 0.55477 0.0
H442 H 0.98416 0.36041 0.66474 0.0
H443 H 0.98236 0.39007 0.61751 0.0
H444 H 0.05808 0.43545 0.52334 0.0
H445 H 0.04002 0.4433 0.57584 0.0
H446 H 0.12196 0.29672 0.61183 0.0
H447 H 0.10827 0.3106 0.66377 0.0
H448 H 0.08929 0.27147 0.54976 0.0
H449 H 0.08303 0.29832 0.50213 0.0
C450 C 0.80976 0.79025 0.53931 0.0
C451 C 0.75946 0.76403 0.5325 0.0
C452 C 0.75029 0.7958 0.60304 0.0
C453 C 0.79707 0.80901 0.61567 0.0
N454 N 0.8728 0.81743 0.59349 0.0
N455 N 0.68214 0.73198 0.56877 0.0
C456 C 0.82763 0.80632 0.58309 0.0
C457 C 0.72958 0.76452 0.56707 0.0
N458 N 0.84065 0.80194 0.50436 0.0
N459 N 0.72442 0.81018 0.6275 0.0
H460 H 0.66667 0.70217 0.54863 0.0
H461 H 0.66028 0.73031 0.59509 0.0
H462 H 0.73933 0.83361 0.65407 0.0
H463 H 0.69052 0.80271 0.61814 0.0
H464 H 0.87733 0.82381 0.50773 0.0
H465 H 0.8296 0.79546 0.47147 0.0
H466 H 0.89374 0.81012 0.57224 0.0
H467 H 0.88869 0.83208 0.62369 0.0
C468 C 0.37022 0.37556 0.77287 0.0
C469 C 0.40616 0.41799 0.79227 0.0
C470 C 0.45289 0.43922 0.72347 0.0
C471 C 0.41772 0.39564 0.70507 0.0
N472 N 0.34955 0.31751 0.71494 0.0
N473 N 0.48053 0.49156 0.7873 0.0
C474 C 0.37818 0.36246 0.73048 0.0
C475 C 0.44712 0.45048 0.7678 0.0
N476 N 0.32746 0.34888 0.79416 0.0
N477 N 0.49135 0.46975 0.69833 0.0
H478 H 0.47488 0.50283 0.81784 0.0
H479 H 0.51383 0.51466 0.7738 0.0
H480 H 0.49915 0.46031 0.66777 0.0
H481 H 0.51572 0.50436 0.70721 0.0
H482 H 0.29799 0.32066 0.77926 0.0
H483 H 0.31958 0.35777 0.82507 0.0
H484 H 0.32362 0.29024 0.73424 0.0
H485 H 0.35485 0.30593 0.68427 0.0
C486 C 0.63994 0.02109 0.7384 0.0
C487 C 0.63193 0.98622 0.70585 0.0
C488 C 0.58901 0.92508 0.7628 0.0
C489 C 0.59446 0.96056 0.7935 0.0
N490 N 0.60851 0.03928 0.8035 0.0
N491 N 0.58623 0.90369 0.68517 0.0
C492 C 0.61323 1.00726 0.7782 0.0
C493 C 0.60247 0.93765 0.71732 0.0
N494 N 0.6763 0.06674 0.73389 0.0
N495 N 0.57335 0.88016 0.77707 0.0
H496 H 0.59314 0.91157 0.65152 0.0
H497 H 0.56166 0.86829 0.6916 0.0
H498 H 0.56158 0.86923 0.80944 0.0
H499 H 0.57439 0.85458 0.75718 0.0
H500 H 0.6849 0.09207 0.75865 0.0
H501 H 0.70223 0.07758 0.70911 0.0
H502 H 0.61944 0.07341 0.79251 0.0
H503 H 0.58906 0.02953 0.83313 0.0
C504 C 1.01508 0.67257 0.77901 0.0
C505 C 1.02631 0.6393 0.79651 0.0
C506 C 1.0063 0.59754 0.72501 0.0
C507 C 0.99092 0.62838 0.70939 0.0
N508 N 0.96862 0.6868 0.72598 0.0
N509 N 1.02598 0.56589 0.78886 0.0
C510 C 0.99168 0.66335 0.73774 0.0
C511 C 1.02012 0.60051 0.77026 0.0
N512 N 1.02893 0.7143 0.80057 0.0
N513 N 1.00927 0.56666 0.69637 0.0
H514 H 0.03581 0.56689 0.82188 0.0
H515 H 1.01733 0.5344 0.77276 0.0
H516 H 0.99923 0.56346 0.66319 0.0
H517 H 1.02496 0.54682 0.70456 0.0
H518 H 1.0258 0.74166 0.78674 0.0
H519 H 0.04836 0.7239 0.82991 0.0
H520 H 0.96402 0.70912 0.74759 0.0
H521 H 0.94956 0.68002 0.69658 0.0
C522 C 0.6655 0.68905 0.2633 0.0
C523 C 0.68277 0.66517 0.29034 0.0
C524 C 0.71305 0.64654 0.22313 0.0
C525 C 0.69265 0.66719 0.19609 0.0
N526 N 0.63624 0.69394 0.19107 0.0
N527 N 0.70844 0.60792 0.29274 0.0
C528 C 0.66446 0.68369 0.2164 0.0
C529 C 0.70174 0.63953 0.26917 0.0
N530 N 0.65348 0.71988 0.2813 0.0
N531 N 0.74599 0.63666 0.20605 0.0
H532 H 0.69843 0.60022 0.32601 0.0
H533 H 0.7185 0.58547 0.27786 0.0
H534 H 0.75823 0.64423 0.17353 0.0
H535 H 0.76517 0.62616 0.22572 0.0
H536 H 0.64591 0.74159 0.26209 0.0
H537 H 0.65628 0.7281 0.31471 0.0
H538 H 0.61158 0.70192 0.20474 0.0
H539 H 0.63357 0.68911 0.15674 0.0
C540 C 0.39539 0.0256 0.21388 0.0
C541 C 0.44186 0.05727 0.19763 0.0
C542 C 0.47298 0.06162 0.27227 0.0
C543 C 0.4272 0.0255 0.2859 0.0
N544 N 0.35069 0.96072 0.26331 0.0
N545 N 0.52695 0.0962 0.20981 0.0
C546 C 0.39043 1.00313 0.2546 0.0
C547 C 0.48157 0.07288 0.22633 0.0
N548 N 0.3557 1.01956 0.19274 0.0
N549 N 0.508 0.08475 0.30283 0.0
H550 H 0.53463 0.10204 0.17601 0.0
H551 H 0.55666 0.10491 0.22914 0.0
H552 H 0.50306 0.07573 0.3364 0.0
H553 H 0.54066 0.11452 0.29514 0.0
H554 H 0.32154 0.99873 0.20595 0.0
H555 H 0.35707 0.04038 0.16611 0.0
H556 H 0.32496 0.94216 0.23923 0.0
H557 H 0.34611 0.94181 0.29234 0.0
C558 C 0.94207 0.35253 0.28544 0.0
C559 C 0.99111 0.37326 0.29609 0.0
C560 C 1.01167 0.40704 0.22154 0.0
C561 C 0.96387 0.37863 0.20805 0.0
N562 N 0.88329 0.31834 0.22733 0.0
N563 N 0.07188 0.40854 0.26803 0.0
C564 C 0.92867 0.34995 0.24006 0.0
C565 C 1.02585 0.39771 0.26253 0.0
N566 N 0.90838 0.33655 0.3183 0.0
N567 N 0.04394 0.44202 0.19442 0.0
H568 H 0.08267 0.3967 0.29508 0.0
H569 H 0.09743 0.42319 0.24284 0.0
H570 H 0.03417 0.45014 0.1643 0.0
H571 H 0.07868 0.46582 0.20427 0.0
H572 H 0.87266 0.32501 0.31228 0.0
H573 H 0.91679 0.33958 0.35189 0.0
H574 H 0.85826 0.2929 0.24877 0.0
H575 H 0.87154 0.31509 0.19482 0.0
C576 C 0.21308 0.82998 0.37067 0.0
C577 C 0.24658 0.87498 0.35343 0.0
C578 C 0.19458 0.86147 0.28979 0.0
C579 C 0.1606 0.81657 0.30689 0.0
N580 N 0.14288 0.75379 0.36008 0.0
N581 N 0.25947 0.93954 0.30472 0.0
C582 C 0.17125 0.79947 0.34626 0.0
C583 C 0.23457 0.89267 0.31559 0.0
N584 N 0.219 0.81828 0.41274 0.0
N585 N 0.19107 0.87296 0.24695 0.0
H586 H 0.28901 0.96514 0.32151 0.0
H587 H 0.24779 0.95428 0.28093 0.0
H588 H 0.16471 0.8497 0.22531 0.0
H589 H 0.21784 0.90288 0.23101 0.0
H590 H 0.19313 0.78893 0.42996 0.0
H591 H 0.24739 0.84098 0.4329 0.0
H592 H 0.1535 0.73785 0.38356 0.0
H593 H 0.11002 0.72992 0.34692 0.0
C594 C 0.21876 0.3885 0.2922 0.0
C595 C 0.21818 0.34704 0.30731 0.0
C596 C 0.17291 0.34669 0.37365 0.0
C597 C 0.16875 0.38458 0.3559 0.0
N598 N 0.18362 0.43836 0.29535 0.0
N599 N 0.19253 0.28513 0.36193 0.0
C600 C 0.19095 0.40491 0.3146 0.0
C601 C 0.19429 0.32551 0.34774 0.0
N602 N 0.2463 0.41277 0.25646 0.0
N603 N 0.15878 0.3327 0.4165 0.0
H604 H 0.21094 0.27061 0.34639 0.0
H605 H 0.1706 0.26433 0.38775 0.0
H606 H 0.1451 0.34876 0.43708 0.0
H607 H 0.16502 0.30872 0.4333 0.0
H608 H 0.25361 0.44647 0.24767 0.0
H609 H 0.26471 0.40084 0.23712 0.0
H610 H 0.19295 0.44955 0.26264 0.0
H611 H 0.16494 0.45267 0.31063 0.0
C612 C 0.68222 0.85317 0.3016 0.0
C613 C 0.73039 0.88997 0.30604 0.0
C614 C 0.73685 0.8536 0.37461 0.0
C615 C 0.68986 0.81533 0.36881 0.0
N616 N 0.61378 0.78354 0.33211 0.0
N617 N 0.80636 0.92048 0.34275 0.0
C618 C 0.66118 0.81661 0.33406 0.0
C619 C 0.75856 0.88884 0.34131 0.0
N620 N 0.65773 0.85126 0.26423 0.0
N621 N 0.75972 0.85765 0.41368 0.0
H622 H 0.82421 0.94856 0.32087 0.0
H623 H 0.82939 0.91702 0.36411 0.0
H624 H 0.74375 0.83374 0.43976 0.0
H625 H 0.79189 0.88727 0.42242 0.0
H626 H 0.62486 0.82268 0.25554 0.0
H627 H 0.67225 0.87655 0.23923 0.0
H628 H 0.58983 0.78633 0.31154 0.0
H629 H 0.5967 0.75459 0.35307 0.0
C630 C 0.89088 0.1729 0.19958 0.0
C631 C 0.86709 0.12912 0.17665 0.0
C632 C 0.90107 0.17017 0.10577 0.0
C633 C 0.92587 0.21365 0.12894 0.0
N634 N 0.95208 0.25593 0.19807 0.0
N635 N 0.85394 0.08445 0.10912 0.0
C636 C 0.92308 0.21477 0.17598 0.0
C637 C 0.87383 0.12727 0.13009 0.0
N638 N 0.88201 0.17455 0.24381 0.0
N639 N 0.90197 0.17027 0.06041 0.0
H640 H 0.83168 0.05255 0.1252 0.0
H641 H 0.86157 0.08009 0.07642 0.0
H642 H 0.923 0.20081 0.04189 0.0
H643 H 0.88029 0.1409 0.04101 0.0
H644 H 0.89351 0.20582 0.26142 0.0
H645 H 0.86042 0.14444 0.26263 0.0
H646 H 0.95506 0.2587 0.23244 0.0
H647 H 0.97671 0.28682 0.18178 0.0
C648 C 0.84108 0.63894 0.15071 0.0
C649 C 0.84465 0.66676 0.11331 0.0
C650 C 0.92784 0.72278 0.13264 0.0
C651 C 0.9207 0.70042 0.17442 0.0
N652 N 0.86761 0.64002 0.22573 0.0
N653 N 0.89154 0.73834 0.07067 0.0
C654 C 0.87666 0.65891 0.184 0.0
C655 C 0.88813 0.70955 0.10482 0.0
N656 N 0.80354 0.59397 0.15517 0.0
N657 N 0.97273 0.75496 0.11835 0.0
H658 H 0.86435 0.72939 0.04807 0.0
H659 H 0.92029 0.77251 0.06664 0.0
H660 H 1.00324 0.76403 0.13657 0.0
H661 H 0.98013 0.76858 0.08623 0.0
H662 H 0.80187 0.57087 0.17968 0.0
H663 H 0.77618 0.57808 0.13223 0.0
H664 H 0.83451 0.61239 0.2358 0.0
H665 H 0.8916 0.65515 0.25176 0.0
C666 C 0.37293 0.24997 0.1391 0.0
C667 C 0.35816 0.2361 0.18378 0.0
C668 C 0.39708 0.18825 0.18247 0.0
C669 C 0.41444 0.20444 0.13861 0.0
N670 N 0.42237 0.25375 0.07635 0.0
N671 N 0.35952 0.1959 0.24974 0.0
C672 C 0.40351 0.23638 0.11737 0.0
C673 C 0.37081 0.20593 0.20579 0.0
N674 N 0.35599 0.27467 0.11689 0.0
N675 N 0.40589 0.15591 0.20201 0.0
H676 H 0.33881 0.20662 0.26728 0.0
H677 H 0.37261 0.17928 0.26967 0.0
H678 H 0.42914 0.14602 0.18854 0.0
H679 H 0.38896 0.13746 0.23081 0.0
H680 H 0.36139 0.28249 0.08319 0.0
H681 H 0.33294 0.2843 0.1315 0.0
H682 H 0.42062 0.28116 0.061 0.0
H683 H 0.44257 0.2427 0.05843 0.0
C684 C 0.83365 0.12894 0.68547 0.0
C685 C 0.81404 0.1525 0.66146 0.0
C686 C 0.86972 0.22467 0.70064 0.0
C687 C 0.89702 0.2043 0.71527 0.0
N688 N 0.90747 0.13581 0.70828 0.0
N689 N 0.82733 0.22898 0.63772 0.0
C690 C 0.87998 0.15606 0.70387 0.0
C691 C 0.83624 0.20227 0.66629 0.0
N692 N 0.80792 0.08146 0.69327 0.0
N693 N 0.87329 0.26384 0.72053 0.0
H694 H 0.80777 0.21547 0.60875 0.0
H695 H 0.84533 0.2658 0.63974 0.0
H696 H 0.89133 0.27759 0.75019 0.0
H697 H 0.85196 0.27769 0.71131 0.0
H698 H 0.82077 0.06436 0.71304 0.0
H699 H 0.77184 0.06071 0.68622 0.0
H700 H 0.89606 0.10148 0.69738 0.0
H701 H 0.94326 0.1543 0.71662 0.0
C702 C 0.78859 0.62884 0.62791 0.0
C703 C 0.81555 0.61195 0.64972 0.0
C704 C 0.7978 0.63498 0.722 0.0
C705 C 0.77303 0.65419 0.70006 0.0
N706 N 0.73612 0.66148 0.6341 0.0
N707 N 0.83769 0.58918 0.7171 0.0
C708 C 0.76514 0.64796 0.65359 0.0
C709 C 0.81721 0.61164 0.69678 0.0
N710 N 0.78767 0.62884 0.58255 0.0
N711 N 0.80446 0.64112 0.7668 0.0
H712 H 0.85226 0.57202 0.69935 0.0
H713 H 0.83726 0.58435 0.75122 0.0
H714 H 0.78823 0.6556 0.78619 0.0
H715 H 0.82694 0.63345 0.78463 0.0
H716 H 0.77351 0.64538 0.56394 0.0
H717 H 0.80307 0.61358 0.56312 0.0
H718 H 0.72591 0.65526 0.60102 0.0
H719 H 0.71912 0.67608 0.65208 0.0
C720 C 0.35288 0.13898 0.64356 0.0
C721 C 0.34876 0.1396 0.69058 0.0
C722 C 0.39674 0.22638 0.69023 0.0
C723 C 0.39997 0.22582 0.64314 0.0
N724 N 0.37699 0.18298 0.5742 0.0
N725 N 0.35982 0.18291 0.75825 0.0
C726 C 0.3769 0.18243 0.61958 0.0
C727 C 0.36862 0.18313 0.71377 0.0
N728 N 0.33413 0.09658 0.62196 0.0
N729 N 0.42162 0.26837 0.7124 0.0
H730 H 0.33933 0.15177 0.77611 0.0
H731 H 0.36938 0.21315 0.77691 0.0
H732 H 0.44239 0.30056 0.69623 0.0
H733 H 0.42461 0.27133 0.74675 0.0
H734 H 0.34056 0.09294 0.58872 0.0
H735 H 0.31307 0.06434 0.63792 0.0
H736 H 0.35667 0.15338 0.55458 0.0
H737 H 0.39595 0.21398 0.55578 0.0
C738 C 0.21806 0.887 0.85497 0.0
C739 C 0.23166 0.8892 0.80963 0.0
C740 C 0.20173 0.80349 0.81034 0.0
C741 C 0.1914 0.80191 0.85641 0.0
N742 N 0.19415 0.84242 0.92408 0.0
N743 N 0.24197 0.85088 0.74548 0.0
C744 C 0.20053 0.84376 0.87908 0.0
C745 C 0.22522 0.84781 0.78782 0.0
N746 N 0.22214 0.92636 0.87505 0.0
N747 N 0.18689 0.76227 0.78746 0.0
H748 H 0.25655 0.88179 0.72683 0.0
H749 H 0.24416 0.82367 0.72976 0.0
H750 H 0.16975 0.72911 0.80252 0.0
H751 H 0.18798 0.7604 0.75302 0.0
H752 H 0.20813 0.9262 0.90626 0.0
H753 H 0.23723 0.95916 0.85943 0.0
H754 H 0.20455 0.87219 0.94373 0.0
H755 H 0.18156 0.8115 0.94258 0.0
C756 C 0.19223 0.36657 0.80327 0.0
C757 C 0.15118 0.35434 0.82952 0.0
C758 C 0.2023 0.39535 0.89381 0.0
C759 C 0.24334 0.40969 0.86676 0.0
N760 N 0.27803 0.41538 0.7945 0.0
N761 N 0.1159 0.35844 0.8987 0.0
C762 C 0.23841 0.39693 0.82114 0.0
C763 C 0.15593 0.36924 0.87455 0.0
N764 N 0.187 0.34856 0.76131 0.0
N765 N 0.20788 0.40595 0.93809 0.0
H766 H 0.0816 0.33808 0.8861 0.0
H767 H 0.11614 0.37044 0.93071 0.0
H768 H 0.2412 0.42661 0.95252 0.0
H769 H 0.18011 0.39306 0.96107 0.0
H770 H 0.21506 0.35148 0.74205 0.0
H771 H 0.15386 0.32738 0.74671 0.0
H772 H 0.27706 0.41155 0.76017 0.0
H773 H 0.31224 0.43808 0.80631 0.0
C774 C 0.71602 0.841 0.85265 0.0
C775 C 0.7293 0.85045 0.80704 0.0
C776 C 0.73144 0.92656 0.81349 0.0
C777 C 0.72067 0.91831 0.85956 0.0
N778 N 0.7069 0.8706 0.92435 0.0
N779 N 0.75575 0.90468 0.74535 0.0
C780 C 0.71414 0.8762 0.87942 0.0
C781 C 0.73911 0.89412 0.78802 0.0
N782 N 0.70591 0.79861 0.87052 0.0
N783 N 0.73103 0.96361 0.79326 0.0
H784 H 0.75823 0.88061 0.72437 0.0
H785 H 0.76958 0.93814 0.73145 0.0
H786 H 0.72612 0.98852 0.81041 0.0
H787 H 0.73208 0.96792 0.75898 0.0
H788 H 0.6908 0.78681 0.90174 0.0
H789 H 0.71076 0.77362 0.85349 0.0
H790 H 0.70239 0.84159 0.94219 0.0
H791 H 0.70804 0.89689 0.94485 0.0
C792 C 0.564 0.48378 0.49055 0.0
C793 C 0.53946 0.47982 0.53116 0.0
C794 C 0.56661 0.56489 0.52755 0.0
C795 C 0.58762 0.568 0.48525 0.0
N796 N 0.59916 0.52847 0.42288 0.0
N797 N 0.51065 0.51573 0.58401 0.0
C798 C 0.58482 0.527 0.46595 0.0
C799 C 0.53875 0.52008 0.54828 0.0
N800 N 0.5665 0.44595 0.47468 0.0
N801 N 0.57487 0.60508 0.54916 0.0
H802 H 0.49125 0.48469 0.60193 0.0
H803 H 0.50356 0.54206 0.59391 0.0
H804 H 0.59418 0.63863 0.53533 0.0
H805 H 0.56618 0.60573 0.58241 0.0
H806 H 0.58904 0.44837 0.4488 0.0
H807 H 0.54805 0.41239 0.48874 0.0
H808 H 0.5933 0.49877 0.40501 0.0
H809 H 0.61301 0.55875 0.40328 0.0
C810 C 0.53223 0.99116 0.54178 0.0
C811 C 0.57338 0.03409 0.52871 0.0
C812 C 0.53751 0.02941 0.45645 0.0
C813 C 0.49523 0.9884 0.47042 0.0
N814 N 0.4483 0.93633 0.53018 0.0
N815 N 0.60916 0.10051 0.47817 0.0
C816 C 0.49143 0.97065 0.51407 0.0
C817 C 0.57414 0.05535 0.48756 0.0
N818 N 0.53187 0.97023 0.58102 0.0
N819 N 0.54325 0.04275 0.41289 0.0
H820 H 0.63707 0.12107 0.49954 0.0
H821 H 0.60824 0.11915 0.45068 0.0
H822 H 0.5176 0.02362 0.38893 0.0
H823 H 0.57522 0.06959 0.39973 0.0
H824 H 0.50573 0.93597 0.58949 0.0
H825 H 0.55882 0.98647 0.60447 0.0
H826 H 0.44222 0.92617 0.56337 0.0
H827 H 0.41735 0.92052 0.51135 0.0
C828 C 1.01625 0.52359 0.45743 0.0
C829 C 1.00903 0.47862 0.47029 0.0
C830 C 0.96506 0.48092 0.53658 0.0
C831 C 0.96969 0.52404 0.52248 0.0
N832 N 0.98937 0.58021 0.46313 0.0
N833 N 0.95985 0.40792 0.51531 0.0
C834 C 0.99277 0.54394 0.48127 0.0
C835 C 0.97815 0.45505 0.50743 0.0
N836 N 0.04398 0.54628 0.42127 0.0
N837 N 0.95013 0.46531 0.57892 0.0
H838 H 0.96787 0.38568 0.49755 0.0
H839 H 0.93276 0.38935 0.53849 0.0
H840 H 0.94242 0.48419 0.6022 0.0
H841 H 0.95057 0.43639 0.59244 0.0
H842 H 0.05657 0.58179 0.41446 0.0
H843 H 0.05535 0.53 0.39845 0.0
H844 H 1.00101 0.59318 0.43122 0.0
H845 H 0.97021 0.5941 0.47807 0.0
C846 C 0.54897 0.55539 0.93719 0.0
C847 C 0.5088 0.55344 0.95853 0.0
C848 C 0.55817 0.59192 0.02444 0.0
C849 C 0.59859 0.59581 0.00192 0.0
N850 N 0.63488 0.59202 0.93319 0.0
N851 N 0.47647 0.57513 0.02068 0.0
C852 C 0.59464 0.58069 0.95721 0.0
C853 C 0.514 0.57386 0.00143 0.0
N854 N 0.54342 0.53191 0.89815 0.0
N855 N 0.56122 0.60286 0.06859 0.0
H856 H 0.44286 0.55978 0.00643 0.0
H857 H 0.47933 0.59414 0.0494 0.0
H858 H 0.59263 0.61582 0.08655 0.0
H859 H 0.53202 0.59578 0.08843 0.0
H860 H 0.56983 0.52691 0.88388 0.0
H861 H 0.51115 0.51427 0.88164 0.0
H862 H 0.63485 0.58659 0.89911 0.0
H863 H 0.66903 0.61125 0.94636 0.0
C864 C 0.6506 0.11712 0.99721 0.0
C865 C 0.62402 0.07754 0.96836 0.0
C866 C 0.5519 0.06318 0.00651 0.0
C867 C 0.57511 0.10733 0.02881 0.0
N868 N 0.65099 0.17711 0.04545 0.0
N869 N 0.54654 0.02829 0.93542 0.0
C870 C 0.62584 0.13505 0.02376 0.0
C871 C 0.57386 0.05642 0.96923 0.0
N872 N 0.69857 0.13622 0.0016 0.0
N873 N 0.51134 0.0255 0.02288 0.0
H874 H 0.56135 0.025 0.90575 0.0
H875 H 0.50961 1.01319 0.93547 0.0
H876 H 0.49893 0.02487 0.05505 0.0
H877 H 0.49523 0.99255 0.00727 0.0
H878 H 0.71821 0.16054 0.02628 0.0
H879 H 0.71871 0.12618 0.98255 0.0
H880 H 0.68633 0.2016 0.03772 0.0
H881 H 0.63681 0.18762 0.07109 0.0
C882 C 0.04261 0.52692 0.99002 0.0
C883 C 0.0796 0.54328 0.95781 0.0
C884 C 0.09227 0.47812 0.9821 0.0
C885 C 0.06145 0.46936 0.01954 0.0
N886 N 1.02338 0.50151 0.06562 0.0
N887 N 0.13898 0.53057 0.92176 0.0
C888 C 0.04278 0.49972 0.02586 0.0
C889 C 0.10491 0.51823 0.95387 0.0
N890 N 1.00406 0.53224 0.98453 0.0
N891 N 0.10723 0.44718 0.97133 0.0
H892 H 0.14244 0.55198 0.89493 0.0
H893 H 0.16361 0.51914 0.92178 0.0
H894 H 0.10084 0.41851 0.99076 0.0
H895 H 0.12406 0.44851 0.94137 0.0
H896 H 0.9755 0.51794 0.00691 0.0
H897 H 0.99657 0.54271 0.95456 0.0
H898 H 1.01085 0.5248 0.0713 0.0
H899 H 1.02509 0.48389 0.09366 0.0
loop_
_geom_bond_atom_site_label_1
_geom_bond_atom_site_label_2
_geom_bond_distance
_geom_bond_site_symmetry_2
_ccdc_geom_bond_type
C0 O2 1.247 . S
C0 O4 1.258 . S
C1 O8 1.247 . S
C1 O9 1.258 . S
O2 C0 1.247 . S
O2 Zn3 2.028 1_655 S
Zn3 O2 2.028 1_455 S
Zn3 O7 2.035 1_455 S
Zn3 O9 2.035 . S
Zn3 O10 2.028 . S
O4 C0 1.258 . S
O4 Zn5 2.035 1_655 S
Zn5 O4 2.035 1_455 S
Zn5 O6 2.028 1_455 S
Zn5 O8 2.028 . S
Zn5 O11 2.035 . S
O6 Zn5 2.028 1_655 S
O6 C12 1.247 . S
O7 Zn3 2.035 1_655 S
O7 C12 1.258 . S
O8 C1 1.247 . S
O8 Zn5 2.028 . S
O9 C1 1.258 . S
O9 Zn3 2.035 . S
O10 Zn3 2.028 . S
O10 C13 1.247 . S
O11 Zn5 2.035 . S
O11 C13 1.258 . S
C12 O6 1.247 . S
C12 O7 1.258 . S
C13 O10 1.247 . S
C13 O11 1.258 . S
C14 O16 1.247 . S
C14 O18 1.258 . S
C15 O22 1.247 . S
C15 O23 1.258 . S
O16 C14 1.247 . S
O16 Zn17 2.028 . S
Zn17 O16 2.028 . S
Zn17 O21 2.035 . S
Zn17 O23 2.035 . S
Zn17 O24 2.028 . S
O18 C14 1.258 . S
O18 Zn19 2.035 . S
Zn19 O18 2.035 . S
Zn19 O20 2.028 . S
Zn19 O22 2.028 . S
Zn19 O25 2.035 . S
O20 Zn19 2.028 . S
O20 C26 1.247 . S
O21 Zn17 2.035 . S
O21 C26 1.258 . S
O22 C15 1.247 . S
O22 Zn19 2.028 . S
O23 C15 1.258 . S
O23 Zn17 2.035 . S
O24 Zn17 2.028 . S
O24 C27 1.247 . S
O25 Zn19 2.035 . S
O25 C27 1.258 . S
C26 O20 1.247 . S
C26 O21 1.258 . S
C27 O24 1.247 . S
C27 O25 1.258 . S
C28 O30 1.247 . S
C28 O32 1.258 . S
C29 O36 1.247 . S
C29 O37 1.258 . S
O30 C28 1.247 . S
O30 Zn31 2.028 1_565 S
Zn31 O30 2.028 1_545 S
Zn31 O35 2.035 1_545 S
Zn31 O37 2.035 . S
Zn31 O38 2.028 . S
O32 C28 1.258 . S
O32 Zn33 2.035 1_565 S
Zn33 O32 2.035 1_545 S
Zn33 O34 2.028 1_545 S
Zn33 O36 2.028 . S
Zn33 O39 2.035 . S
O34 Zn33 2.028 1_565 S
O34 C40 1.247 . S
O35 Zn31 2.035 1_565 S
O35 C40 1.258 . S
O36 C29 1.247 . S
O36 Zn33 2.028 . S
O37 C29 1.258 . S
O37 Zn31 2.035 . S
O38 Zn31 2.028 . S
O38 C41 1.247 . S
O39 Zn33 2.035 . S
O39 C41 1.258 . S
C40 O34 1.247 . S
C40 O35 1.258 . S
C41 O38 1.247 . S
C41 O39 1.258 . S
C42 O44 1.247 . S
C42 O46 1.258 . S
C43 O50 1.247 . S
C43 O51 1.258 . S
O44 C42 1.247 . S
O44 Zn45 2.028 1_655 S
Zn45 O44 2.028 1_455 S
Zn45 O49 2.035 1_455 S
Zn45 O51 2.035 . S
Zn45 O52 2.028 . S
O46 C42 1.258 . S
O46 Zn47 2.035 1_655 S
Zn47 O46 2.035 1_455 S
Zn47 O48 2.028 1_455 S
Zn47 O50 2.028 . S
Zn47 O53 2.035 . S
O48 Zn47 2.028 1_655 S
O48 C54 1.247 . S
O49 Zn45 2.035 1_655 S
O49 C54 1.258 . S
O50 C43 1.247 . S
O50 Zn47 2.028 . S
O51 C43 1.258 . S
O51 Zn45 2.035 . S
O52 Zn45 2.028 . S
O52 C55 1.247 . S
O53 Zn47 2.035 . S
O53 C55 1.258 . S
C54 O48 1.247 . S
C54 O49 1.258 . S
C55 O52 1.247 . S
C55 O53 1.258 . S
C56 O58 1.247 . S
C56 O60 1.258 . S
C57 O64 1.247 . S
C57 O65 1.258 . S
O58 C56 1.247 . S
O58 Zn59 2.028 . S
Zn59 O58 2.028 . S
Zn59 O63 2.035 . S
Zn59 O65 2.035 . S
Zn59 O66 2.028 . S
O60 C56 1.258 . S
O60 Zn61 2.035 . S
Zn61 O60 2.035 . S
Zn61 O62 2.028 . S
Zn61 O64 2.028 . S
Zn61 O67 2.035 . S
O62 Zn61 2.028 . S
O62 C68 1.247 . S
O63 Zn59 2.035 . S
O63 C68 1.258 . S
O64 C57 1.247 . S
O64 Zn61 2.028 . S
O65 C57 1.258 . S
O65 Zn59 2.035 . S
O66 Zn59 2.028 . S
O66 C69 1.247 . S
O67 Zn61 2.035 . S
O67 C69 1.258 . S
C68 O62 1.247 . S
C68 O63 1.258 . S
C69 O66 1.247 . S
C69 O67 1.258 . S
C70 O72 1.247 . S
C70 O74 1.258 . S
C71 O78 1.247 . S
C71 O79 1.258 . S
O72 C70 1.247 . S
O72 Zn73 2.028 . S
Zn73 O72 2.028 . S
Zn73 O77 2.035 . S
Zn73 O79 2.035 1_545 S
Zn73 O80 2.028 1_545 S
O74 C70 1.258 . S
O74 Zn75 2.035 . S
Zn75 O74 2.035 . S
Zn75 O76 2.028 . S
Zn75 O78 2.028 1_545 S
Zn75 O81 2.035 1_545 S
O76 Zn75 2.028 . S
O76 C82 1.247 . S
O77 Zn73 2.035 . S
O77 C82 1.258 . S
O78 C71 1.247 . S
O78 Zn75 2.028 1_565 S
O79 C71 1.258 . S
O79 Zn73 2.035 1_565 S
O80 Zn73 2.028 1_565 S
O80 C83 1.247 . S
O81 Zn75 2.035 1_565 S
O81 C83 1.258 . S
C82 O76 1.247 . S
C82 O77 1.258 . S
C83 O80 1.247 . S
C83 O81 1.258 . S
C84 O86 1.247 . S
C84 O88 1.258 . S
C85 O92 1.247 . S
C85 O93 1.258 . S
O86 C84 1.247 . S
O86 Zn87 2.028 . S
Zn87 O86 2.028 . S
Zn87 O91 2.035 . S
Zn87 O93 2.035 . S
Zn87 O94 2.028 . S
O88 C84 1.258 . S
O88 Zn89 2.035 . S
Zn89 O88 2.035 . S
Zn89 O90 2.028 . S
Zn89 O92 2.028 . S
Zn89 O95 2.035 . S
O90 Zn89 2.028 . S
O90 C96 1.247 . S
O91 Zn87 2.035 . S
O91 C96 1.258 . S
O92 C85 1.247 . S
O92 Zn89 2.028 . S
O93 C85 1.258 . S
O93 Zn87 2.035 . S
O94 Zn87 2.028 . S
O94 C97 1.247 . S
O95 Zn89 2.035 . S
O95 C97 1.258 . S
C96 O90 1.247 . S
C96 O91 1.258 . S
C97 O94 1.247 . S
C97 O95 1.258 . S
C98 O100 1.247 . S
C98 O102 1.258 . S
C99 O106 1.247 . S
C99 O107 1.258 . S
O100 C98 1.247 . S
O100 Zn101 2.028 . S
Zn101 O100 2.028 . S
Zn101 O105 2.035 . S
Zn101 O107 2.035 . S
Zn101 O108 2.028 . S
O102 C98 1.258 . S
O102 Zn103 2.035 . S
Zn103 O102 2.035 . S
Zn103 O104 2.028 . S
Zn103 O106 2.028 . S
Zn103 O109 2.035 . S
O104 Zn103 2.028 . S
O104 C110 1.247 . S
O105 Zn101 2.035 . S
O105 C110 1.258 . S
O106 C99 1.247 . S
O106 Zn103 2.028 . S
O107 C99 1.258 . S
O107 Zn101 2.035 . S
O108 Zn101 2.028 . S
O108 C111 1.247 . S
O109 Zn103 2.035 . S
O109 C111 1.258 . S
C110 O104 1.247 . S
C110 O105 1.258 . S
C111 O108 1.247 . S
C111 O109 1.258 . S
C112 O114 1.247 . S
C112 O116 1.258 . S
C113 O120 1.247 . S
C113 O121 1.258 . S
O114 C112 1.247 . S
O114 Zn115 2.028 . S
Zn115 O114 2.028 . S
Zn115 O119 2.035 . S
Zn115 O121 2.035 . S
Zn115 O122 2.028 . S
O116 C112 1.258 . S
O116 Zn117 2.035 . S
Zn117 O116 2.035 . S
Zn117 O118 2.028 . S
Zn117 O120 2.028 . S
Zn117 O123 2.035 . S
O118 Zn117 2.028 . S
O118 C124 1.247 . S
O119 Zn115 2.035 . S
O119 C124 1.258 . S
O120 C113 1.247 . S
O120 Zn117 2.028 . S
O121 C113 1.258 . S
O121 Zn115 2.035 . S
O122 Zn115 2.028 . S
O122 C125 1.247 . S
O123 Zn117 2.035 . S
O123 C125 1.258 . S
C124 O118 1.247 . S
C124 O119 1.258 . S
C125 O122 1.247 . S
C125 O123 1.258 . S
C126 O128 1.247 . S
C126 O130 1.258 . S
C127 O134 1.247 . S
C127 O135 1.258 . S
O128 C126 1.247 . S
O128 Zn129 2.028 . S
Zn129 O128 2.028 . S
Zn129 O133 2.035 . S
Zn129 O135 2.035 . S
Zn129 O136 2.028 . S
O130 C126 1.258 . S
O130 Zn131 2.035 . S
Zn131 O130 2.035 . S
Zn131 O132 2.028 . S
Zn131 O134 2.028 . S
Zn131 O137 2.035 . S
O132 Zn131 2.028 . S
O132 C138 1.247 . S
O133 Zn129 2.035 . S
O133 C138 1.258 . S
O134 C127 1.247 . S
O134 Zn131 2.028 . S
O135 C127 1.258 . S
O135 Zn129 2.035 . S
O136 Zn129 2.028 . S
O136 C139 1.247 . S
O137 Zn131 2.035 . S
O137 C139 1.258 . S
C138 O132 1.247 . S
C138 O133 1.258 . S
C139 O136 1.247 . S
C139 O137 1.258 . S
C140 O142 1.247 . S
C140 O144 1.258 . S
C141 O148 1.247 . S
C141 O149 1.258 . S
O142 C140 1.247 . S
O142 Zn143 2.028 . S
Zn143 O142 2.028 . S
Zn143 O147 2.035 . S
Zn143 O149 2.035 . S
Zn143 O150 2.028 . S
O144 C140 1.258 . S
O144 Zn145 2.035 . S
Zn145 O144 2.035 . S
Zn145 O146 2.028 . S
Zn145 O148 2.028 . S
Zn145 O151 2.035 . S
O146 Zn145 2.028 . S
O146 C152 1.247 . S
O147 Zn143 2.035 . S
O147 C152 1.258 . S
O148 C141 1.247 . S
O148 Zn145 2.028 . S
O149 C141 1.258 . S
O149 Zn143 2.035 . S
O150 Zn143 2.028 . S
O150 C153 1.247 . S
O151 Zn145 2.035 . S
O151 C153 1.258 . S
C152 O146 1.247 . S
C152 O147 1.258 . S
C153 O150 1.247 . S
C153 O151 1.258 . S
C154 O156 1.247 . S
C154 O158 1.258 . S
C155 O162 1.247 . S
C155 O163 1.258 . S
O156 C154 1.247 . S
O156 Zn157 2.028 . S
Zn157 O156 2.028 . S
Zn157 O161 2.035 . S
Zn157 O163 2.035 . S
Zn157 O164 2.028 . S
O158 C154 1.258 . S
O158 Zn159 2.035 . S
Zn159 O158 2.035 . S
Zn159 O160 2.028 . S
Zn159 O162 2.028 . S
Zn159 O165 2.035 . S
O160 Zn159 2.028 . S
O160 C166 1.247 . S
O161 Zn157 2.035 . S
O161 C166 1.258 . S
O162 C155 1.247 . S
O162 Zn159 2.028 . S
O163 C155 1.258 . S
O163 Zn157 2.035 . S
O164 Zn157 2.028 . S
O164 C167 1.247 . S
O165 Zn159 2.035 . S
O165 C167 1.258 . S
C166 O160 1.247 . S
C166 O161 1.258 . S
C167 O164 1.247 . S
C167 O165 1.258 . S
C168 O170 1.247 . S
C168 O172 1.258 . S
C169 O176 1.247 . S
C169 O177 1.258 . S
O170 C168 1.247 . S
O170 Zn171 2.028 . S
Zn171 O170 2.028 . S
Zn171 O175 2.035 . S
Zn171 O177 2.035 . S
Zn171 O178 2.028 . S
O172 C168 1.258 . S
O172 Zn173 2.035 . S
Zn173 O172 2.035 . S
Zn173 O174 2.028 . S
Zn173 O176 2.028 . S
Zn173 O179 2.035 . S
O174 Zn173 2.028 . S
O174 C180 1.247 . S
O175 Zn171 2.035 . S
O175 C180 1.258 . S
O176 C169 1.247 . S
O176 Zn173 2.028 . S
O177 C169 1.258 . S
O177 Zn171 2.035 . S
O178 Zn171 2.028 . S
O178 C181 1.247 . S
O179 Zn173 2.035 . S
O179 C181 1.258 . S
C180 O174 1.247 . S
C180 O175 1.258 . S
C181 O178 1.247 . S
C181 O179 1.258 . S
C182 O184 1.247 . S
C182 O186 1.258 . S
C183 O190 1.247 . S
C183 O191 1.258 . S
O184 C182 1.247 . S
O184 Zn185 2.028 . S
Zn185 O184 2.028 . S
Zn185 O189 2.035 . S
Zn185 O191 2.035 . S
Zn185 O192 2.028 . S
O186 C182 1.258 . S
O186 Zn187 2.035 . S
Zn187 O186 2.035 . S
Zn187 O188 2.028 . S
Zn187 O190 2.028 . S
Zn187 O193 2.035 . S
O188 Zn187 2.028 . S
O188 C194 1.247 . S
O189 Zn185 2.035 . S
O189 C194 1.258 . S
O190 C183 1.247 . S
O190 Zn187 2.028 . S
O191 C183 1.258 . S
O191 Zn185 2.035 . S
O192 Zn185 2.028 . S
O192 C195 1.247 . S
O193 Zn187 2.035 . S
O193 C195 1.258 . S
C194 O188 1.247 . S
C194 O189 1.258 . S
C195 O192 1.247 . S
C195 O193 1.258 . S
C196 O198 1.247 . S
C196 O200 1.258 . S
C197 O204 1.247 . S
C197 O205 1.258 . S
O198 C196 1.247 . S
O198 Zn199 2.028 . S
Zn199 O198 2.028 . S
Zn199 O203 2.035 . S
Zn199 O205 2.035 . S
Zn199 O206 2.028 . S
O200 C196 1.258 . S
O200 Zn201 2.035 . S
Zn201 O200 2.035 . S
Zn201 O202 2.028 . S
Zn201 O204 2.028 . S
Zn201 O207 2.035 . S
O202 Zn201 2.028 . S
O202 C208 1.247 . S
O203 Zn199 2.035 . S
O203 C208 1.258 . S
O204 C197 1.247 . S
O204 Zn201 2.028 . S
O205 C197 1.258 . S
O205 Zn199 2.035 . S
O206 Zn199 2.028 . S
O206 C209 1.247 . S
O207 Zn201 2.035 . S
O207 C209 1.258 . S
C208 O202 1.247 . S
C208 O203 1.258 . S
C209 O206 1.247 . S
C209 O207 1.258 . S
C210 O212 1.247 . S
C210 O214 1.258 . S
C211 O218 1.247 . S
C211 O219 1.258 . S
O212 C210 1.247 . S
O212 Zn213 2.028 . S
Zn213 O212 2.028 . S
Zn213 O217 2.035 . S
Zn213 O219 2.035 . S
Zn213 O220 2.028 . S
O214 C210 1.258 . S
O214 Zn215 2.035 . S
Zn215 O214 2.035 . S
Zn215 O216 2.028 . S
Zn215 O218 2.028 . S
Zn215 O221 2.035 . S
O216 Zn215 2.028 . S
O216 C222 1.247 . S
O217 Zn213 2.035 . S
O217 C222 1.258 . S
O218 C211 1.247 . S
O218 Zn215 2.028 . S
O219 C211 1.258 . S
O219 Zn213 2.035 . S
O220 Zn213 2.028 . S
O220 C223 1.247 . S
O221 Zn215 2.035 . S
O221 C223 1.258 . S
C222 O216 1.247 . S
C222 O217 1.258 . S
C223 O220 1.247 . S
C223 O221 1.258 . S
C224 O226 1.247 . S
C224 O228 1.258 . S
C225 O232 1.247 . S
C225 O233 1.258 . S
O226 C224 1.247 . S
O226 Zn227 2.028 . S
Zn227 O226 2.028 . S
Zn227 O231 2.035 . S
Zn227 O233 2.035 . S
Zn227 O234 2.028 . S
O228 C224 1.258 . S
O228 Zn229 2.035 . S
Zn229 O228 2.035 . S
Zn229 O230 2.028 . S
Zn229 O232 2.028 . S
Zn229 O235 2.035 . S
O230 Zn229 2.028 . S
O230 C236 1.247 . S
O231 Zn227 2.035 . S
O231 C236 1.258 . S
O232 C225 1.247 . S
O232 Zn229 2.028 . S
O233 C225 1.258 . S
O233 Zn227 2.035 . S
O234 Zn227 2.028 . S
O234 C237 1.247 . S
O235 Zn229 2.035 . S
O235 C237 1.258 . S
C236 O230 1.247 . S
C236 O231 1.258 . S
C237 O234 1.247 . S
C237 O235 1.258 . S
C238 O240 1.247 . S
C238 O242 1.258 . S
C239 O246 1.247 . S
C239 O247 1.258 . S
O240 C238 1.247 . S
O240 Zn241 2.028 . S
Zn241 O240 2.028 . S
Zn241 O245 2.035 . S
Zn241 O247 2.035 . S
Zn241 O248 2.028 . S
O242 C238 1.258 . S
O242 Zn243 2.035 . S
Zn243 O242 2.035 . S
Zn243 O244 2.028 . S
Zn243 O246 2.028 . S
Zn243 O249 2.035 . S
O244 Zn243 2.028 . S
O244 C250 1.247 . S
O245 Zn241 2.035 . S
O245 C250 1.258 . S
O246 C239 1.247 . S
O246 Zn243 2.028 . S
O247 C239 1.258 . S
O247 Zn241 2.035 . S
O248 Zn241 2.028 . S
O248 C251 1.247 . S
O249 Zn243 2.035 . S
O249 C251 1.258 . S
C250 O244 1.247 . S
C250 O245 1.258 . S
C251 O248 1.247 . S
C251 O249 1.258 . S
C252 C253 1.363 . S
C252 C258 1.379 . S
C252 N260 1.356 . S
C253 C252 1.363 . S
C253 C259 1.363 . S
C254 C255 1.363 . S
C254 C259 1.379 . S
C254 N261 1.356 . S
C255 C254 1.363 . S
C255 C258 1.363 . S
N256 C258 1.356 . S
N256 H268 0.984 . S
N256 H269 0.985 . S
N257 C259 1.356 1_655 S
N257 H262 0.984 . S
N257 H263 0.985 . S
C258 C252 1.379 . S
C258 C255 1.363 . S
C258 N256 1.356 . S
C259 C253 1.363 . S
C259 C254 1.379 . S
C259 N257 1.356 1_455 S
N260 C252 1.356 . S
N260 H266 0.984 . S
N260 H267 0.984 . S
N261 C254 1.356 . S
N261 H264 0.984 . S
N261 H265 0.985 1_455 S
H262 N257 0.984 . S
H263 N257 0.985 . S
H264 N261 0.984 . S
H265 N261 0.985 1_655 S
H266 N260 0.984 . S
H267 N260 0.984 . S
H268 N256 0.984 . S
H269 N256 0.985 . S
C270 C271 1.363 . S
C270 C276 1.379 . S
C270 N278 1.356 . S
C271 C270 1.363 . S
C271 C277 1.363 . S
C272 C273 1.363 . S
C272 C277 1.379 . S
C272 N279 1.356 . S
C273 C272 1.363 . S
C273 C276 1.363 . S
N274 C276 1.356 . S
N274 H286 0.984 . S
N274 H287 0.985 . S
N275 C277 1.356 . S
N275 H280 0.984 . S
N275 H281 0.985 . S
C276 C270 1.379 . S
C276 C273 1.363 . S
C276 N274 1.356 . S
C277 C271 1.363 . S
C277 C272 1.379 . S
C277 N275 1.356 . S
N278 C270 1.356 . S
N278 H284 0.984 1_554 S
N278 H285 0.984 1_554 S
N279 C272 1.356 . S
N279 H282 0.984 . S
N279 H283 0.985 . S
H280 N275 0.984 . S
H281 N275 0.985 . S
H282 N279 0.984 . S
H283 N279 0.985 . S
H284 N278 0.984 1_556 S
H285 N278 0.984 1_556 S
H286 N274 0.984 . S
H287 N274 0.985 . S
C288 C289 1.363 . S
C288 C294 1.379 . S
C288 N296 1.356 . S
C289 C288 1.363 . S
C289 C295 1.363 . S
C290 C291 1.363 . S
C290 C295 1.379 . S
C290 N297 1.356 . S
C291 C290 1.363 . S
C291 C294 1.363 . S
N292 C294 1.356 . S
N292 H304 0.984 . S
N292 H305 0.985 . S
N293 C295 1.356 1_545 S
N293 H298 0.984 . S
N293 H299 0.985 . S
C294 C288 1.379 . S
C294 C291 1.363 . S
C294 N292 1.356 . S
C295 C289 1.363 . S
C295 C290 1.379 . S
C295 N293 1.356 1_565 S
N296 C288 1.356 . S
N296 H302 0.984 . S
N296 H303 0.984 . S
N297 C290 1.356 . S
N297 H300 0.984 . S
N297 H301 0.985 . S
H298 N293 0.984 . S
H299 N293 0.985 . S
H300 N297 0.984 . S
H301 N297 0.985 . S
H302 N296 0.984 . S
H303 N296 0.984 . S
H304 N292 0.984 . S
H305 N292 0.985 . S
C306 C307 1.363 . S
C306 C312 1.379 . S
C306 N314 1.356 . S
C307 C306 1.363 . S
C307 C313 1.363 . S
C308 C309 1.363 . S
C308 C313 1.379 . S
C308 N315 1.356 . S
C309 C308 1.363 . S
C309 C312 1.363 . S
N310 C312 1.356 . S
N310 H322 0.984 1_545 S
N310 H323 0.985 . S
N311 C313 1.356 . S
N311 H316 0.984 . S
N311 H317 0.985 . S
C312 C306 1.379 . S
C312 C309 1.363 . S
C312 N310 1.356 . S
C313 C307 1.363 . S
C313 C308 1.379 . S
C313 N311 1.356 . S
N314 C306 1.356 . S
N314 H320 0.984 . S
N314 H321 0.984 . S
N315 C308 1.356 . S
N315 H318 0.984 . S
N315 H319 0.985 . S
H316 N311 0.984 . S
H317 N311 0.985 . S
H318 N315 0.984 . S
H319 N315 0.985 . S
H320 N314 0.984 . S
H321 N314 0.984 . S
H322 N310 0.984 1_565 S
H323 N310 0.985 . S
C324 C325 1.363 . S
C324 C330 1.379 . S
C324 N332 1.356 . S
C325 C324 1.363 . S
C325 C331 1.363 . S
C326 C327 1.363 . S
C326 C331 1.379 . S
C326 N333 1.356 1_655 S
C327 C326 1.363 . S
C327 C330 1.363 . S
N328 C330 1.356 . S
N328 H340 0.984 . S
N328 H341 0.985 . S
N329 C331 1.356 . S
N329 H334 0.984 . S
N329 H335 0.985 1_655 S
C330 C324 1.379 . S
C330 C327 1.363 . S
C330 N328 1.356 . S
C331 C325 1.363 . S
C331 C326 1.379 . S
C331 N329 1.356 . S
N332 C324 1.356 . S
N332 H338 0.984 . S
N332 H339 0.984 . S
N333 C326 1.356 1_455 S
N333 H336 0.984 . S
N333 H337 0.985 . S
H334 N329 0.984 . S
H335 N329 0.985 1_455 S
H336 N333 0.984 . S
H337 N333 0.985 . S
H338 N332 0.984 . S
H339 N332 0.984 . S
H340 N328 0.984 . S
H341 N328 0.985 . S
C342 C343 1.363 . S
C342 C348 1.379 . S
C342 N350 1.356 . S
C343 C342 1.363 . S
C343 C349 1.363 . S
C344 C345 1.363 . S
C344 C349 1.379 . S
C344 N351 1.356 . S
C345 C344 1.363 . S
C345 C348 1.363 . S
N346 C348 1.356 . S
N346 H358 0.984 . S
N346 H359 0.985 . S
N347 C349 1.356 . S
N347 H352 0.984 . S
N347 H353 0.985 . S
C348 C342 1.379 . S
C348 C345 1.363 . S
C348 N346 1.356 . S
C349 C343 1.363 . S
C349 C344 1.379 . S
C349 N347 1.356 . S
N350 C342 1.356 . S
N350 H356 0.984 . S
N350 H357 0.984 . S
N351 C344 1.356 . S
N351 H354 0.984 . S
N351 H355 0.985 . S
H352 N347 0.984 . S
H353 N347 0.985 . S
H354 N351 0.984 . S
H355 N351 0.985 . S
H356 N350 0.984 . S
H357 N350 0.984 . S
H358 N346 0.984 . S
H359 N346 0.985 . S
C360 C361 1.363 . S
C360 C366 1.379 . S
C360 N368 1.356 1_655 S
C361 C360 1.363 . S
C361 C367 1.363 . S
C362 C363 1.363 . S
C362 C367 1.379 . S
C362 N369 1.356 . S
C363 C362 1.363 . S
C363 C366 1.363 . S
N364 C366 1.356 . S
N364 H376 0.984 . S
N364 H377 0.985 . S
N365 C367 1.356 . S
N365 H370 0.984 . S
N365 H371 0.985 . S
C366 C360 1.379 . S
C366 C363 1.363 . S
C366 N364 1.356 . S
C367 C361 1.363 . S
C367 C362 1.379 . S
C367 N365 1.356 . S
N368 C360 1.356 1_455 S
N368 H374 0.984 . S
N368 H375 0.984 . S
N369 C362 1.356 . S
N369 H372 0.984 . S
N369 H373 0.985 . S
H370 N365 0.984 . S
H371 N365 0.985 . S
H372 N369 0.984 . S
H373 N369 0.985 . S
H374 N368 0.984 . S
H375 N368 0.984 . S
H376 N364 0.984 . S
H377 N364 0.985 . S
C378 C379 1.363 . S
C378 C384 1.379 . S
C378 N386 1.356 . S
C379 C378 1.363 . S
C379 C385 1.363 . S
C380 C381 1.363 . S
C380 C385 1.379 . S
C380 N387 1.356 . S
C381 C380 1.363 . S
C381 C384 1.363 . S
N382 C384 1.356 . S
N382 H394 0.984 . S
N382 H395 0.985 . S
N383 C385 1.356 . S
N383 H388 0.984 . S
N383 H389 0.985 . S
C384 C378 1.379 . S
C384 C381 1.363 . S
C384 N382 1.356 . S
C385 C379 1.363 . S
C385 C380 1.379 . S
C385 N383 1.356 . S
N386 C378 1.356 . S
N386 H392 0.984 1_556 S
N386 H393 0.984 1_556 S
N387 C380 1.356 . S
N387 H390 0.984 . S
N387 H391 0.985 . S
H388 N383 0.984 . S
H389 N383 0.985 . S
H390 N387 0.984 . S
H391 N387 0.985 . S
H392 N386 0.984 1_554 S
H393 N386 0.984 1_554 S
H394 N382 0.984 . S
H395 N382 0.985 . S
C396 C397 1.363 . S
C396 C402 1.379 . S
C396 N404 1.356 . S
C397 C396 1.363 . S
C397 C403 1.363 . S
C398 C399 1.363 . S
C398 C403 1.379 . S
C398 N405 1.356 1_545 S
C399 C398 1.363 . S
C399 C402 1.363 . S
N400 C402 1.356 . S
N400 H412 0.984 . S
N400 H413 0.985 . S
N401 C403 1.356 . S
N401 H406 0.984 . S
N401 H407 0.985 . S
C402 C396 1.379 . S
C402 C399 1.363 . S
C402 N400 1.356 . S
C403 C397 1.363 . S
C403 C398 1.379 . S
C403 N401 1.356 . S
N404 C396 1.356 . S
N404 H410 0.984 . S
N404 H411 0.984 . S
N405 C398 1.356 1_565 S
N405 H408 0.984 . S
N405 H409 0.985 . S
H406 N401 0.984 . S
H407 N401 0.985 . S
H408 N405 0.984 . S
H409 N405 0.985 . S
H410 N404 0.984 . S
H411 N404 0.984 . S
H412 N400 0.984 . S
H413 N400 0.985 . S
C414 C415 1.363 . S
C414 C420 1.379 . S
C414 N422 1.356 1_565 S
C415 C414 1.363 . S
C415 C421 1.363 . S
C416 C417 1.363 . S
C416 C421 1.379 . S
C416 N423 1.356 . S
C417 C416 1.363 . S
C417 C420 1.363 . S
N418 C420 1.356 . S
N418 H430 0.984 . S
N418 H431 0.985 . S
N419 C421 1.356 . S
N419 H424 0.984 . S
N419 H425 0.985 . S
C420 C414 1.379 . S
C420 C417 1.363 . S
C420 N418 1.356 . S
C421 C415 1.363 . S
C421 C416 1.379 . S
C421 N419 1.356 . S
N422 C414 1.356 1_545 S
N422 H428 0.984 . S
N422 H429 0.984 . S
N423 C416 1.356 . S
N423 H426 0.984 . S
N423 H427 0.985 . S
H424 N419 0.984 . S
H425 N419 0.985 . S
H426 N423 0.984 . S
H427 N423 0.985 . S
H428 N422 0.984 . S
H429 N422 0.984 . S
H430 N418 0.984 . S
H431 N418 0.985 . S
C432 C433 1.363 . S
C432 C438 1.379 . S
C432 N440 1.356 . S
C433 C432 1.363 . S
C433 C439 1.363 . S
C434 C435 1.363 . S
C434 C439 1.379 . S
C434 N441 1.356 . S
C435 C434 1.363 . S
C435 C438 1.363 . S
N436 C438 1.356 . S
N436 H448 0.984 . S
N436 H449 0.985 . S
N437 C439 1.356 . S
N437 H442 0.984 . S
N437 H443 0.985 . S
C438 C432 1.379 . S
C438 C435 1.363 . S
C438 N436 1.356 . S
C439 C433 1.363 . S
C439 C434 1.379 . S
C439 N437 1.356 . S
N440 C432 1.356 . S
N440 H446 0.984 . S
N440 H447 0.984 . S
N441 C434 1.356 . S
N441 H444 0.984 . S
N441 H445 0.985 . S
H442 N437 0.984 . S
H443 N437 0.985 . S
H444 N441 0.984 . S
H445 N441 0.985 . S
H446 N440 0.984 . S
H447 N440 0.984 . S
H448 N436 0.984 . S
H449 N436 0.985 . S
C450 C451 1.363 . S
C450 C456 1.379 . S
C450 N458 1.356 . S
C451 C450 1.363 . S
C451 C457 1.363 . S
C452 C453 1.363 . S
C452 C457 1.379 . S
C452 N459 1.356 . S
C453 C452 1.363 . S
C453 C456 1.363 . S
N454 C456 1.356 . S
N454 H466 0.984 . S
N454 H467 0.985 . S
N455 C457 1.356 . S
N455 H460 0.984 . S
N455 H461 0.985 . S
C456 C450 1.379 . S
C456 C453 1.363 . S
C456 N454 1.356 . S
C457 C451 1.363 . S
C457 C452 1.379 . S
C457 N455 1.356 . S
N458 C450 1.356 . S
N458 H464 0.984 . S
N458 H465 0.984 . S
N459 C452 1.356 . S
N459 H462 0.984 . S
N459 H463 0.985 . S
H460 N455 0.984 . S
H461 N455 0.985 . S
H462 N459 0.984 . S
H463 N459 0.985 . S
H464 N458 0.984 . S
H465 N458 0.984 . S
H466 N454 0.984 . S
H467 N454 0.985 . S
C468 C469 1.363 . S
C468 C474 1.379 . S
C468 N476 1.356 . S
C469 C468 1.363 . S
C469 C475 1.363 . S
C470 C471 1.363 . S
C470 C475 1.379 . S
C470 N477 1.356 . S
C471 C470 1.363 . S
C471 C474 1.363 . S
N472 C474 1.356 . S
N472 H484 0.984 . S
N472 H485 0.985 . S
N473 C475 1.356 . S
N473 H478 0.984 . S
N473 H479 0.985 . S
C474 C468 1.379 . S
C474 C471 1.363 . S
C474 N472 1.356 . S
C475 C469 1.363 . S
C475 C470 1.379 . S
C475 N473 1.356 . S
N476 C468 1.356 . S
N476 H482 0.984 . S
N476 H483 0.984 . S
N477 C470 1.356 . S
N477 H480 0.984 . S
N477 H481 0.985 . S
H478 N473 0.984 . S
H479 N473 0.985 . S
H480 N477 0.984 . S
H481 N477 0.985 . S
H482 N476 0.984 . S
H483 N476 0.984 . S
H484 N472 0.984 . S
H485 N472 0.985 . S
C486 C487 1.363 . S
C486 C492 1.379 . S
C486 N494 1.356 . S
C487 C486 1.363 . S
C487 C493 1.368 . S
C488 C489 1.363 . S
C488 C493 1.373 1_565 S
C488 N495 1.356 . S
C489 C488 1.363 . S
C489 C492 1.363 1_565 S
N490 C492 1.356 . S
N490 H502 0.984 . S
N490 H503 0.985 1_545 S
N491 C493 1.359 . S
N491 H496 0.984 . S
N491 H497 0.985 1_545 S
C492 C486 1.379 . S
C492 C489 1.363 1_545 S
C492 N490 1.356 . S
C493 C487 1.368 . S
C493 C488 1.373 1_545 S
C493 N491 1.359 . S
N494 C486 1.356 . S
N494 H500 0.984 . S
N494 H501 0.984 . S
N495 C488 1.356 . S
N495 H498 0.984 . S
N495 H499 0.985 . S
H496 N491 0.984 . S
H497 N491 0.985 1_565 S
H498 N495 0.984 . S
H499 N495 0.985 . S
H500 N494 0.984 . S
H501 N494 0.984 . S
H502 N490 0.984 . S
H503 N490 0.985 1_565 S
C504 C505 1.363 . S
C504 C510 1.379 1_455 S
C504 N512 1.356 . S
C505 C504 1.363 . S
C505 C511 1.363 . S
C506 C507 1.361 1_455 S
C506 C511 1.380 . S
C506 N513 1.356 1_455 S
C507 C506 1.361 1_655 S
C507 C510 1.363 . S
N508 C510 1.356 . S
N508 H520 0.984 . S
N508 H521 0.985 . S
N509 C511 1.356 . S
N509 H514 0.984 . S
N509 H515 0.985 . S
C510 C504 1.379 1_655 S
C510 C507 1.363 . S
C510 N508 1.356 . S
C511 C505 1.363 . S
C511 C506 1.380 . S
C511 N509 1.356 . S
N512 C504 1.356 . S
N512 H518 0.984 . S
N512 H519 0.984 . S
N513 C506 1.356 1_655 S
N513 H516 0.984 . S
N513 H517 0.985 . S
H514 N509 0.984 . S
H515 N509 0.985 . S
H516 N513 0.984 . S
H517 N513 0.985 . S
H518 N512 0.984 . S
H519 N512 0.984 . S
H520 N508 0.984 . S
H521 N508 0.985 . S
C522 C523 1.363 . S
C522 C528 1.379 . S
C522 N530 1.356 . S
C523 C522 1.363 . S
C523 C529 1.363 . S
C524 C525 1.363 . S
C524 C529 1.379 . S
C524 N531 1.356 . S
C525 C524 1.363 . S
C525 C528 1.363 . S
N526 C528 1.356 . S
N526 H538 0.984 . S
N526 H539 0.985 . S
N527 C529 1.356 . S
N527 H532 0.984 . S
N527 H533 0.985 . S
C528 C522 1.379 . S
C528 C525 1.363 . S
C528 N526 1.356 . S
C529 C523 1.363 . S
C529 C524 1.379 . S
C529 N527 1.356 . S
N530 C522 1.356 . S
N530 H536 0.984 . S
N530 H537 0.984 . S
N531 C524 1.356 . S
N531 H534 0.984 . S
N531 H535 0.985 . S
H532 N527 0.984 . S
H533 N527 0.985 . S
H534 N531 0.984 . S
H535 N531 0.985 . S
H536 N530 0.984 . S
H537 N530 0.984 . S
H538 N526 0.984 . S
H539 N526 0.985 . S
C540 C541 1.363 . S
C540 C546 1.379 1_545 S
C540 N548 1.356 . S
C541 C540 1.363 . S
C541 C547 1.363 . S
C542 C543 1.363 1_545 S
C542 C547 1.379 . S
C542 N549 1.356 . S
C543 C542 1.363 1_565 S
C543 C546 1.363 . S
N544 C546 1.356 . S
N544 H556 0.984 . S
N544 H557 0.985 . S
N545 C547 1.356 . S
N545 H550 0.984 . S
N545 H551 0.985 . S
C546 C540 1.379 1_565 S
C546 C543 1.363 . S
C546 N544 1.356 . S
C547 C541 1.363 . S
C547 C542 1.379 . S
C547 N545 1.356 . S
N548 C540 1.356 . S
N548 H554 0.984 1_545 S
N548 H555 0.984 . S
N549 C542 1.356 . S
N549 H552 0.984 1_545 S
N549 H553 0.985 . S
H550 N545 0.984 . S
H551 N545 0.985 . S
H552 N549 0.984 1_565 S
H553 N549 0.985 . S
H554 N548 0.984 1_565 S
H555 N548 0.984 . S
H556 N544 0.984 . S
H557 N544 0.985 . S
C558 C559 1.363 . S
C558 C564 1.378 1_455 S
C558 N566 1.356 . S
C559 C558 1.363 . S
C559 C565 1.363 . S
C560 C561 1.363 1_455 S
C560 C565 1.379 . S
C560 N567 1.356 . S
C561 C560 1.363 1_655 S
C561 C564 1.363 . S
N562 C564 1.356 . S
N562 H574 0.984 . S
N562 H575 0.985 . S
N563 C565 1.356 . S
N563 H568 0.984 . S
N563 H569 0.985 . S
C564 C558 1.378 1_655 S
C564 C561 1.363 . S
C564 N562 1.356 . S
C565 C559 1.363 . S
C565 C560 1.379 . S
C565 N563 1.356 . S
N566 C558 1.356 . S
N566 H572 0.984 1_455 S
N566 H573 0.984 . S
N567 C560 1.356 . S
N567 H570 0.984 1_455 S
N567 H571 0.985 . S
H568 N563 0.984 . S
H569 N563 0.985 . S
H570 N567 0.984 1_655 S
H571 N567 0.985 . S
H572 N566 0.984 1_655 S
H573 N566 0.984 . S
H574 N562 0.984 . S
H575 N562 0.985 . S
C576 C577 1.363 . S
C576 C582 1.379 . S
C576 N584 1.356 . S
C577 C576 1.363 . S
C577 C583 1.363 . S
C578 C579 1.363 . S
C578 C583 1.379 . S
C578 N585 1.356 . S
C579 C578 1.363 . S
C579 C582 1.363 . S
N580 C582 1.356 . S
N580 H592 0.984 . S
N580 H593 0.985 . S
N581 C583 1.356 . S
N581 H586 0.984 . S
N581 H587 0.985 . S
C582 C576 1.379 . S
C582 C579 1.363 . S
C582 N580 1.356 . S
C583 C577 1.363 . S
C583 C578 1.379 . S
C583 N581 1.356 . S
N584 C576 1.356 . S
N584 H590 0.984 . S
N584 H591 0.984 . S
N585 C578 1.356 . S
N585 H588 0.984 . S
N585 H589 0.985 . S
H586 N581 0.984 . S
H587 N581 0.985 . S
H588 N585 0.984 . S
H589 N585 0.985 . S
H590 N584 0.984 . S
H591 N584 0.984 . S
H592 N580 0.984 . S
H593 N580 0.985 . S
C594 C595 1.363 . S
C594 C600 1.379 . S
C594 N602 1.356 . S
C595 C594 1.363 . S
C595 C601 1.363 . S
C596 C597 1.363 . S
C596 C601 1.379 . S
C596 N603 1.356 . S
C597 C596 1.363 . S
C597 C600 1.363 . S
N598 C600 1.356 . S
N598 H610 0.984 . S
N598 H611 0.985 . S
N599 C601 1.356 . S
N599 H604 0.984 . S
N599 H605 0.985 . S
C600 C594 1.379 . S
C600 C597 1.363 . S
C600 N598 1.356 . S
C601 C595 1.363 . S
C601 C596 1.379 . S
C601 N599 1.356 . S
N602 C594 1.356 . S
N602 H608 0.984 . S
N602 H609 0.984 . S
N603 C596 1.356 . S
N603 H606 0.984 . S
N603 H607 0.985 . S
H604 N599 0.984 . S
H605 N599 0.985 . S
H606 N603 0.984 . S
H607 N603 0.985 . S
H608 N602 0.984 . S
H609 N602 0.984 . S
H610 N598 0.984 . S
H611 N598 0.985 . S
C612 C613 1.363 . S
C612 C618 1.379 . S
C612 N620 1.356 . S
C613 C612 1.363 . S
C613 C619 1.363 . S
C614 C615 1.363 . S
C614 C619 1.379 . S
C614 N621 1.356 . S
C615 C614 1.363 . S
C615 C618 1.363 . S
N616 C618 1.356 . S
N616 H628 0.984 . S
N616 H629 0.985 . S
N617 C619 1.356 . S
N617 H622 0.984 . S
N617 H623 0.985 . S
C618 C612 1.379 . S
C618 C615 1.363 . S
C618 N616 1.356 . S
C619 C613 1.363 . S
C619 C614 1.379 . S
C619 N617 1.356 . S
N620 C612 1.356 . S
N620 H626 0.984 . S
N620 H627 0.984 . S
N621 C614 1.356 . S
N621 H624 0.984 . S
N621 H625 0.985 . S
H622 N617 0.984 . S
H623 N617 0.985 . S
H624 N621 0.984 . S
H625 N621 0.985 . S
H626 N620 0.984 . S
H627 N620 0.984 . S
H628 N616 0.984 . S
H629 N616 0.985 . S
C630 C631 1.363 . S
C630 C636 1.379 . S
C630 N638 1.356 . S
C631 C630 1.363 . S
C631 C637 1.363 . S
C632 C633 1.363 . S
C632 C637 1.379 . S
C632 N639 1.356 . S
C633 C632 1.363 . S
C633 C636 1.363 . S
N634 C636 1.356 . S
N634 H646 0.984 . S
N634 H647 0.985 . S
N635 C637 1.356 . S
N635 H640 0.984 . S
N635 H641 0.985 . S
C636 C630 1.379 . S
C636 C633 1.363 . S
C636 N634 1.356 . S
C637 C631 1.363 . S
C637 C632 1.379 . S
C637 N635 1.356 . S
N638 C630 1.356 . S
N638 H644 0.984 . S
N638 H645 0.984 . S
N639 C632 1.356 . S
N639 H642 0.984 . S
N639 H643 0.985 . S
H640 N635 0.984 . S
H641 N635 0.985 . S
H642 N639 0.984 . S
H643 N639 0.985 . S
H644 N638 0.984 . S
H645 N638 0.984 . S
H646 N634 0.984 . S
H647 N634 0.985 . S
C648 C649 1.363 . S
C648 C654 1.379 . S
C648 N656 1.356 . S
C649 C648 1.363 . S
C649 C655 1.363 . S
C650 C651 1.363 . S
C650 C655 1.379 . S
C650 N657 1.356 . S
C651 C650 1.363 . S
C651 C654 1.363 . S
N652 C654 1.356 . S
N652 H664 0.984 . S
N652 H665 0.985 . S
N653 C655 1.356 . S
N653 H658 0.984 . S
N653 H659 0.985 . S
C654 C648 1.379 . S
C654 C651 1.363 . S
C654 N652 1.356 . S
C655 C649 1.363 . S
C655 C650 1.379 . S
C655 N653 1.356 . S
N656 C648 1.356 . S
N656 H662 0.984 . S
N656 H663 0.984 . S
N657 C650 1.356 . S
N657 H660 0.984 . S
N657 H661 0.985 . S
H658 N653 0.984 . S
H659 N653 0.985 . S
H660 N657 0.984 . S
H661 N657 0.985 . S
H662 N656 0.984 . S
H663 N656 0.984 . S
H664 N652 0.984 . S
H665 N652 0.985 . S
C666 C667 1.363 . S
C666 C672 1.379 . S
C666 N674 1.356 . S
C667 C666 1.363 . S
C667 C673 1.363 . S
C668 C669 1.363 . S
C668 C673 1.379 . S
C668 N675 1.356 . S
C669 C668 1.363 . S
C669 C672 1.363 . S
N670 C672 1.356 . S
N670 H682 0.984 . S
N670 H683 0.985 . S
N671 C673 1.356 . S
N671 H676 0.984 . S
N671 H677 0.985 . S
C672 C666 1.379 . S
C672 C669 1.363 . S
C672 N670 1.356 . S
C673 C667 1.363 . S
C673 C668 1.379 . S
C673 N671 1.356 . S
N674 C666 1.356 . S
N674 H680 0.984 . S
N674 H681 0.984 . S
N675 C668 1.356 . S
N675 H678 0.984 . S
N675 H679 0.985 . S
H676 N671 0.984 . S
H677 N671 0.985 . S
H678 N675 0.984 . S
H679 N675 0.985 . S
H680 N674 0.984 . S
H681 N674 0.984 . S
H682 N670 0.984 . S
H683 N670 0.985 . S
C684 C685 1.363 . S
C684 C690 1.379 . S
C684 N692 1.356 . S
C685 C684 1.363 . S
C685 C691 1.363 . S
C686 C687 1.363 . S
C686 C691 1.379 . S
C686 N693 1.356 . S
C687 C686 1.363 . S
C687 C690 1.363 . S
N688 C690 1.356 . S
N688 H700 0.984 . S
N688 H701 0.985 . S
N689 C691 1.356 . S
N689 H694 0.984 . S
N689 H695 0.985 . S
C690 C684 1.379 . S
C690 C687 1.363 . S
C690 N688 1.356 . S
C691 C685 1.363 . S
C691 C686 1.379 . S
C691 N689 1.356 . S
N692 C684 1.356 . S
N692 H698 0.984 . S
N692 H699 0.984 . S
N693 C686 1.356 . S
N693 H696 0.984 . S
N693 H697 0.985 . S
H694 N689 0.984 . S
H695 N689 0.985 . S
H696 N693 0.984 . S
H697 N693 0.985 . S
H698 N692 0.984 . S
H699 N692 0.984 . S
H700 N688 0.984 . S
H701 N688 0.985 . S
C702 C703 1.363 . S
C702 C708 1.379 . S
C702 N710 1.356 . S
C703 C702 1.363 . S
C703 C709 1.363 . S
C704 C705 1.363 . S
C704 C709 1.379 . S
C704 N711 1.356 . S
C705 C704 1.363 . S
C705 C708 1.363 . S
N706 C708 1.356 . S
N706 H718 0.984 . S
N706 H719 0.985 . S
N707 C709 1.356 . S
N707 H712 0.984 . S
N707 H713 0.985 . S
C708 C702 1.379 . S
C708 C705 1.363 . S
C708 N706 1.356 . S
C709 C703 1.363 . S
C709 C704 1.379 . S
C709 N707 1.356 . S
N710 C702 1.356 . S
N710 H716 0.984 . S
N710 H717 0.984 . S
N711 C704 1.356 . S
N711 H714 0.984 . S
N711 H715 0.985 . S
H712 N707 0.984 . S
H713 N707 0.985 . S
H714 N711 0.984 . S
H715 N711 0.985 . S
H716 N710 0.984 . S
H717 N710 0.984 . S
H718 N706 0.984 . S
H719 N706 0.985 . S
C720 C721 1.363 . S
C720 C726 1.379 . S
C720 N728 1.356 . S
C721 C720 1.363 . S
C721 C727 1.363 . S
C722 C723 1.363 . S
C722 C727 1.379 . S
C722 N729 1.356 . S
C723 C722 1.363 . S
C723 C726 1.363 . S
N724 C726 1.356 . S
N724 H736 0.984 . S
N724 H737 0.985 . S
N725 C727 1.356 . S
N725 H730 0.984 . S
N725 H731 0.985 . S
C726 C720 1.379 . S
C726 C723 1.363 . S
C726 N724 1.356 . S
C727 C721 1.363 . S
C727 C722 1.379 . S
C727 N725 1.356 . S
N728 C720 1.356 . S
N728 H734 0.984 . S
N728 H735 0.984 . S
N729 C722 1.356 . S
N729 H732 0.984 . S
N729 H733 0.985 . S
H730 N725 0.984 . S
H731 N725 0.985 . S
H732 N729 0.984 . S
H733 N729 0.985 . S
H734 N728 0.984 . S
H735 N728 0.984 . S
H736 N724 0.984 . S
H737 N724 0.985 . S
C738 C739 1.363 . S
C738 C744 1.379 . S
C738 N746 1.356 . S
C739 C738 1.363 . S
C739 C745 1.363 . S
C740 C741 1.363 . S
C740 C745 1.379 . S
C740 N747 1.356 . S
C741 C740 1.363 . S
C741 C744 1.363 . S
N742 C744 1.356 . S
N742 H754 0.984 . S
N742 H755 0.985 . S
N743 C745 1.356 . S
N743 H748 0.984 . S
N743 H749 0.985 . S
C744 C738 1.379 . S
C744 C741 1.363 . S
C744 N742 1.356 . S
C745 C739 1.363 . S
C745 C740 1.379 . S
C745 N743 1.356 . S
N746 C738 1.356 . S
N746 H752 0.984 . S
N746 H753 0.984 . S
N747 C740 1.356 . S
N747 H750 0.984 . S
N747 H751 0.985 . S
H748 N743 0.984 . S
H749 N743 0.985 . S
H750 N747 0.984 . S
H751 N747 0.985 . S
H752 N746 0.984 . S
H753 N746 0.984 . S
H754 N742 0.984 . S
H755 N742 0.985 . S
C756 C757 1.363 . S
C756 C762 1.379 . S
C756 N764 1.356 . S
C757 C756 1.363 . S
C757 C763 1.363 . S
C758 C759 1.363 . S
C758 C763 1.379 . S
C758 N765 1.356 . S
C759 C758 1.363 . S
C759 C762 1.363 . S
N760 C762 1.356 . S
N760 H772 0.984 . S
N760 H773 0.985 . S
N761 C763 1.356 . S
N761 H766 0.984 . S
N761 H767 0.985 . S
C762 C756 1.379 . S
C762 C759 1.363 . S
C762 N760 1.356 . S
C763 C757 1.363 . S
C763 C758 1.379 . S
C763 N761 1.356 . S
N764 C756 1.356 . S
N764 H770 0.984 . S
N764 H771 0.984 . S
N765 C758 1.356 . S
N765 H768 0.984 . S
N765 H769 0.985 . S
H766 N761 0.984 . S
H767 N761 0.985 . S
H768 N765 0.984 . S
H769 N765 0.985 . S
H770 N764 0.984 . S
H771 N764 0.984 . S
H772 N760 0.984 . S
H773 N760 0.985 . S
C774 C775 1.363 . S
C774 C780 1.379 . S
C774 N782 1.356 . S
C775 C774 1.363 . S
C775 C781 1.363 . S
C776 C777 1.363 . S
C776 C781 1.379 . S
C776 N783 1.356 . S
C777 C776 1.363 . S
C777 C780 1.363 . S
N778 C780 1.356 . S
N778 H790 0.984 . S
N778 H791 0.985 . S
N779 C781 1.356 . S
N779 H784 0.984 . S
N779 H785 0.985 . S
C780 C774 1.379 . S
C780 C777 1.363 . S
C780 N778 1.356 . S
C781 C775 1.363 . S
C781 C776 1.379 . S
C781 N779 1.356 . S
N782 C774 1.356 . S
N782 H788 0.984 . S
N782 H789 0.984 . S
N783 C776 1.356 . S
N783 H786 0.984 . S
N783 H787 0.985 . S
H784 N779 0.984 . S
H785 N779 0.985 . S
H786 N783 0.984 . S
H787 N783 0.985 . S
H788 N782 0.984 . S
H789 N782 0.984 . S
H790 N778 0.984 . S
H791 N778 0.985 . S
C792 C793 1.363 . S
C792 C798 1.379 . S
C792 N800 1.356 . S
C793 C792 1.363 . S
C793 C799 1.363 . S
C794 C795 1.363 . S
C794 C799 1.379 . S
C794 N801 1.356 . S
C795 C794 1.363 . S
C795 C798 1.363 . S
N796 C798 1.356 . S
N796 H808 0.984 . S
N796 H809 0.985 . S
N797 C799 1.356 . S
N797 H802 0.984 . S
N797 H803 0.985 . S
C798 C792 1.379 . S
C798 C795 1.363 . S
C798 N796 1.356 . S
C799 C793 1.363 . S
C799 C794 1.379 . S
C799 N797 1.356 . S
N800 C792 1.356 . S
N800 H806 0.984 . S
N800 H807 0.984 . S
N801 C794 1.356 . S
N801 H804 0.984 . S
N801 H805 0.985 . S
H802 N797 0.984 . S
H803 N797 0.985 . S
H804 N801 0.984 . S
H805 N801 0.985 . S
H806 N800 0.984 . S
H807 N800 0.984 . S
H808 N796 0.984 . S
H809 N796 0.985 . S
C810 C811 1.363 1_565 S
C810 C816 1.379 . S
C810 N818 1.356 . S
C811 C810 1.363 1_545 S
C811 C817 1.363 . S
C812 C813 1.363 1_545 S
C812 C817 1.379 . S
C812 N819 1.356 . S
C813 C812 1.363 1_565 S
C813 C816 1.363 . S
N814 C816 1.356 . S
N814 H826 0.984 . S
N814 H827 0.985 . S
N815 C817 1.356 . S
N815 H820 0.984 . S
N815 H821 0.985 . S
C816 C810 1.379 . S
C816 C813 1.363 . S
C816 N814 1.356 . S
C817 C811 1.363 . S
C817 C812 1.379 . S
C817 N815 1.356 . S
N818 C810 1.356 . S
N818 H824 0.984 . S
N818 H825 0.984 . S
N819 C812 1.356 . S
N819 H822 0.984 . S
N819 H823 0.985 . S
H820 N815 0.984 . S
H821 N815 0.985 . S
H822 N819 0.984 . S
H823 N819 0.985 . S
H824 N818 0.984 . S
H825 N818 0.984 . S
H826 N814 0.984 . S
H827 N814 0.985 . S
C828 C829 1.363 . S
C828 C834 1.379 . S
C828 N836 1.356 . S
C829 C828 1.363 . S
C829 C835 1.363 1_455 S
C830 C831 1.363 . S
C830 C835 1.379 . S
C830 N837 1.356 . S
C831 C830 1.363 . S
C831 C834 1.363 1_655 S
N832 C834 1.356 . S
N832 H844 0.984 . S
N832 H845 0.985 . S
N833 C835 1.356 . S
N833 H838 0.984 1_655 S
N833 H839 0.985 . S
C834 C828 1.379 . S
C834 C831 1.363 1_455 S
C834 N832 1.356 . S
C835 C829 1.363 1_655 S
C835 C830 1.379 . S
C835 N833 1.356 . S
N836 C828 1.356 . S
N836 H842 0.984 . S
N836 H843 0.984 . S
N837 C830 1.356 . S
N837 H840 0.984 . S
N837 H841 0.985 . S
H838 N833 0.984 1_455 S
H839 N833 0.985 . S
H840 N837 0.984 . S
H841 N837 0.985 . S
H842 N836 0.984 . S
H843 N836 0.984 . S
H844 N832 0.984 . S
H845 N832 0.985 . S
C846 C847 1.363 . S
C846 C852 1.379 . S
C846 N854 1.356 . S
C847 C846 1.363 . S
C847 C853 1.363 1_556 S
C848 C849 1.363 . S
C848 C853 1.379 . S
C848 N855 1.356 . S
C849 C848 1.363 . S
C849 C852 1.363 1_554 S
N850 C852 1.356 . S
N850 H862 0.984 . S
N850 H863 0.985 1_556 S
N851 C853 1.356 . S
N851 H856 0.984 1_554 S
N851 H857 0.985 . S
C852 C846 1.379 . S
C852 C849 1.363 1_556 S
C852 N850 1.356 . S
C853 C847 1.363 1_554 S
C853 C848 1.379 . S
C853 N851 1.356 . S
N854 C846 1.356 . S
N854 H860 0.984 . S
N854 H861 0.984 . S
N855 C848 1.356 . S
N855 H858 0.984 . S
N855 H859 0.985 . S
H856 N851 0.984 1_556 S
H857 N851 0.985 . S
H858 N855 0.984 . S
H859 N855 0.985 . S
H860 N854 0.984 . S
H861 N854 0.984 . S
H862 N850 0.984 . S
H863 N850 0.985 1_554 S
C864 C865 1.353 1_544 S
C864 C870 1.388 . S
C864 N872 1.353 1_554 S
C865 C864 1.353 1_566 S
C865 C871 1.363 . S
C866 C867 1.353 1_566 S
C866 C871 1.388 . S
C866 N873 1.353 1_556 S
C867 C866 1.353 1_544 S
C867 C870 1.363 . S
N868 C870 1.356 . S
N868 H880 0.984 . S
N868 H881 0.985 . S
N869 C871 1.356 . S
N869 H874 0.984 . S
N869 H875 0.985 . S
C870 C864 1.388 . S
C870 C867 1.363 . S
C870 N868 1.356 . S
C871 C865 1.363 . S
C871 C866 1.388 . S
C871 N869 1.356 . S
N872 C864 1.353 1_556 S
N872 H878 0.984 1_556 S
N872 H879 0.984 . S
N873 C866 1.353 1_554 S
N873 H876 1.000 . S
N873 H877 0.985 1_554 S
H874 N869 0.984 . S
H875 N869 0.985 . S
H876 N873 1.000 . S
H877 N873 0.985 1_556 S
H878 N872 0.984 1_554 S
H879 N872 0.984 . S
H880 N868 0.984 . S
H881 N868 0.985 . S
C882 C883 1.363 1_655 S
C882 C888 1.379 . S
C882 N890 1.356 . S
C883 C882 1.363 1_455 S
C883 C889 1.363 1_556 S
C884 C885 1.363 1_455 S
C884 C889 1.379 . S
C884 N891 1.356 . S
C885 C884 1.363 1_655 S
C885 C888 1.363 1_554 S
N886 C888 1.356 . S
N886 H898 0.984 . S
N886 H899 0.985 1_556 S
N887 C889 1.356 . S
N887 H892 0.984 1_554 S
N887 H893 0.985 . S
C888 C882 1.379 . S
C888 C885 1.363 1_556 S
C888 N886 1.356 . S
C889 C883 1.363 1_554 S
C889 C884 1.379 . S
C889 N887 1.356 . S
N890 C882 1.356 . S
N890 H896 0.984 . S
N890 H897 0.984 . S
N891 C884 1.356 . S
N891 H894 0.984 . S
N891 H895 0.985 . S
H892 N887 0.984 1_556 S
H893 N887 0.985 . S
H894 N891 0.984 . S
H895 N891 0.985 . S
H896 N890 0.984 . S
H897 N890 0.984 . S
H898 N886 0.984 . S
H899 N886 0.985 1_554 S
C253 C13 1.886 . S
C255 C208 1.882 1_554 S
C271 C180 1.882 1_554 S
C273 C27 1.886 . S
C289 C40 1.882 . S
C291 C183 1.886 1_554 S
C307 C97 1.886 . S
C309 C41 1.886 . S
C325 C99 1.886 . S
C327 C12 1.882 . S
C343 C125 1.886 . S
C345 C26 1.882 . S
C361 C42 1.887 . S
C363 C167 1.882 1_556 S
C379 C127 1.882 1_556 S
C381 C56 1.886 . S
C397 C141 1.882 1_556 S
C399 C82 1.886 . S
C415 C83 1.882 . S
C417 C210 1.887 . S
C433 C43 1.882 . S
C435 C237 1.882 . S
C451 C250 1.886 . S
C453 C57 1.882 . S
C469 C181 1.887 . S
C471 C124 1.882 . S
C487 C96 1.882 . S
C489 C182 1.882 . S
C505 C209 1.886 . S
C507 C98 1.882 . S
C523 C251 1.882 . S
C525 C126 1.886 . S
C541 C140 1.886 . S
C543 C211 1.882 . S
C559 C236 1.886 . S
C561 C166 1.886 . S
C577 C222 1.550 . S
C579 C1 1.550 . S
C595 C15 1.550 . S
C597 C225 1.550 . S
C613 C28 1.549 . S
C615 C238 1.550 . S
C631 C29 1.550 . S
C633 C155 1.549 . S
C649 C139 1.549 . S
C651 C0 1.549 . S
C667 C14 1.550 . S
C669 C153 1.550 . S
C685 C85 1.550 . S
C687 C54 1.550 . S
C703 C111 1.550 . S
C705 C68 1.550 . S
C721 C70 1.550 . S
C723 C113 1.550 . S
C739 C71 1.549 . S
C741 C196 1.549 . S
C757 C55 1.549 . S
C759 C168 1.549 . S
C775 C69 1.550 . S
C777 C195 1.550 . S
C793 C112 1.550 . S
C795 C239 1.550 . S
C811 C84 1.549 . S
C813 C223 1.549 . S
C829 C224 1.550 . S
C831 C110 1.549 . S
C847 C169 1.550 . S
C849 C138 1.550 . S
C865 C194 1.550 . S
C867 C152 1.550 . S
C883 C197 1.549 . S
C885 C154 1.549 . S
