# Generated by pormake.
# Topology xft, (5)-cn, num edge types: 1
# Building blocks:
#     Node 0, Type 0, BuildingBlock: BEQFEK_clean_sbu_0, # of connection points: 5
#     Node 1, Type 0, BuildingBlock: BEQFEK_clean_sbu_0, # of connection points: 5
#     Node 2, Type 0, BuildingBlock: BEQFEK_clean_sbu_0, # of connection points: 5
#     Node 3, Type 0, BuildingBlock: BEQFEK_clean_sbu_0, # of connection points: 5
#     Node 4, Type 0, BuildingBlock: BEQFEK_clean_sbu_0, # of connection points: 5
#     Node 5, Type 0, BuildingBlock: BEQFEK_clean_sbu_0, # of connection points: 5
#     Node 6, Type 0, BuildingBlock: BEQFEK_clean_sbu_0, # of connection points: 5
#     Node 7, Type 0, BuildingBlock: BEQFEK_clean_sbu_0, # of connection points: 5
#     Edge 8, Type (0, 0), BuildingBlock: UVAHIK_clean_linker_0, # of connection points: 2
#     Edge 9, Type (0, 0), BuildingBlock: UVAHIK_clean_linker_0, # of connection points: 2
#     Edge 10, Type (0, 0), BuildingBlock: UVAHIK_clean_linker_0, # of connection points: 2
#     Edge 11, Type (0, 0), BuildingBlock: UVAHIK_clean_linker_0, # of connection points: 2
#     Edge 12, Type (0, 0), BuildingBlock: UVAHIK_clean_linker_0, # of connection points: 2
#     Edge 13, Type (0, 0), BuildingBlock: UVAHIK_clean_linker_0, # of connection points: 2
#     Edge 14, Type (0, 0), BuildingBlock: UVAHIK_clean_linker_0, # of connection points: 2
#     Edge 15, Type (0, 0), BuildingBlock: UVAHIK_clean_linker_0, # of connection points: 2
#     Edge 16, Type (0, 0), BuildingBlock: UVAHIK_clean_linker_0, # of connection points: 2
#     Edge 17, Type (0, 0), BuildingBlock: UVAHIK_clean_linker_0, # of connection points: 2
#     Edge 18, Type (0, 0), BuildingBlock: UVAHIK_clean_linker_0, # of connection points: 2
#     Edge 19, Type (0, 0), BuildingBlock: UVAHIK_clean_linker_0, # of connection points: 2
#     Edge 20, Type (0, 0), BuildingBlock: UVAHIK_clean_linker_0, # of connection points: 2
#     Edge 21, Type (0, 0), BuildingBlock: UVAHIK_clean_linker_0, # of connection points: 2
#     Edge 22, Type (0, 0), BuildingBlock: UVAHIK_clean_linker_0, # of connection points: 2
#     Edge 23, Type (0, 0), BuildingBlock: UVAHIK_clean_linker_0, # of connection points: 2
#     Edge 24, Type (0, 0), BuildingBlock: UVAHIK_clean_linker_0, # of connection points: 2
#     Edge 25, Type (0, 0), BuildingBlock: UVAHIK_clean_linker_0, # of connection points: 2
#     Edge 26, Type (0, 0), BuildingBlock: UVAHIK_clean_linker_0, # of connection points: 2
#     Edge 27, Type (0, 0), BuildingBlock: UVAHIK_clean_linker_0, # of connection points: 2
# Relax obj value: 0.414
# Max RMSD: 0.297
# Mean RMSD: 0.297
data_MOF--net-xft--node1-BEQFEK_clean_sbu_0--edge1-UVAHIK_clean_linker_0
_symmetry_space_group_name_H-M    P1
_symmetry_Int_Tables_number       1
_symmetry_cell_setting            triclinic
loop_
_symmetry_equiv_pos_as_xyz
'x, y, z'
_cell_length_a     47.363234
_cell_length_b     47.640484
_cell_length_c     44.683002
_cell_angle_alpha  89.993661
_cell_angle_beta   90.053734
_cell_angle_gamma 90.025813
loop_
_atom_site_label
_atom_site_type_symbol
_atom_site_fract_x
_atom_site_fract_y
_atom_site_fract_z
_atom_type_partial_charge
Co0 Co 0.2845 -0.00027 0.68916 0.0
Co1 Co 0.28472 0.95874 0.74357 0.0
C2 C 0.26773 0.94046 0.68139 0.0
O3 O 0.27193 0.9646 0.67006 0.0
O4 O 0.27202 0.93573 0.70907 0.0
C5 C 0.29089 0.02687 0.6333 0.0
O6 O 0.29811 0.00155 0.62452 0.0
C7 C 0.26256 0.91588 0.78296 0.0
C8 C 0.29393 0.91443 0.81956 0.0
C9 C 0.26984 0.90138 0.80872 0.0
N10 N 0.28176 0.93607 0.77833 0.0
N11 N 0.30045 0.93524 0.80031 0.0
C12 C 0.23705 0.9117 0.76369 0.0
H13 H 0.23218 0.93112 0.75097 0.0
H14 H 0.21856 0.90566 0.77752 0.0
H15 H 0.24128 0.89459 0.74754 0.0
C16 C 0.24364 0.02922 0.72753 0.0
N17 N 0.2621 0.00829 0.72278 0.0
N18 N 0.26259 0.99169 0.74632 0.0
C19 C 0.24466 0.00183 0.76708 0.0
C20 C 0.232 0.02584 0.75571 0.0
C21 C 0.23732 0.05185 0.70528 0.0
H22 H 0.25705 0.06342 0.70009 0.0
H23 H 0.22962 0.0422 0.68419 0.0
H24 H 0.22136 0.0669 0.7138 0.0
O25 O 0.32491 -0.00303 0.70026 0.0
O26 O 0.32509 0.96787 0.73893 0.0
H27 H 0.25852 0.98174 0.80737 0.0
H28 H 0.22605 0.00153 0.81133 0.0
C29 C 0.23846 0.98774 0.79627 0.0
H30 H 0.22623 0.9683 0.79202 0.0
H31 H 0.31797 0.94843 0.80181 0.0
O32 O 0.2827 0.0305 0.66005 0.0
C33 C 0.33813 0.98349 0.72046 0.0
Co34 Co 0.98684 0.80191 0.95469 0.0
Co35 Co 0.01947 0.7911 0.01469 0.0
C36 C 0.04715 0.78767 0.95367 0.0
O37 O 0.0245 0.79205 0.93907 0.0
O38 O 0.04747 0.78766 0.98214 0.0
C39 C 0.96682 0.81793 0.89661 0.0
O40 O 0.99314 0.82554 0.89209 0.0
C41 C 0.05767 0.76007 0.05362 0.0
C42 C 0.04427 0.77301 0.09894 0.0
C43 C 0.0628 0.75559 0.08379 0.0
N44 N 0.03667 0.77882 0.05101 0.0
N45 N 0.02895 0.78676 0.07814 0.0
C46 C 0.07351 0.74829 0.02745 0.0
H47 H 0.08395 0.76577 0.01545 0.0
H48 H 0.0585 0.73804 0.0118 0.0
H49 H 0.09027 0.73336 0.03408 0.0
C50 C 0.95171 0.75601 0.97828 0.0
N51 N 0.97362 0.77384 0.98066 0.0
N52 N 0.98696 0.76924 0.00603 0.0
C53 C 0.97384 0.74825 0.02071 0.0
C54 C 0.95108 0.73926 0.00359 0.0
C55 C 0.93132 0.75591 0.95267 0.0
H56 H 0.92139 0.77693 0.9508 0.0
H57 H 0.94292 0.75183 0.93155 0.0
H58 H 0.91451 0.73993 0.95558 0.0
O59 O 0.98851 0.83871 0.9754 0.0
O60 O 0.00986 0.83105 0.01889 0.0
H61 H 0.98249 0.75231 0.06744 0.0
H62 H 0.97124 0.71752 0.05648 0.0
C63 C 0.98385 0.73608 0.04972 0.0
H64 H 0.00624 0.72968 0.0475 0.0
H65 H 0.01286 0.80116 0.08247 0.0
O66 O 0.9601 0.80665 0.92134 0.0
C67 C -0.00226 0.84749 0.0005 0.0
Co68 Co 0.21812 0.47125 0.20133 0.0
Co69 Co 0.2246 0.50149 0.26302 0.0
C70 C 0.22312 0.53311 0.20467 0.0
O71 O 0.22159 0.51081 0.18912 0.0
O72 O 0.22413 0.53208 0.23309 0.0
C73 C 0.21177 0.45645 0.13937 0.0
O74 O 0.20899 0.48359 0.13519 0.0
C75 C 0.25639 0.5364 0.30314 0.0
C76 C 0.23698 0.52886 0.34741 0.0
C77 C 0.25838 0.54348 0.33311 0.0
N78 N 0.23513 0.51811 0.29988 0.0
N79 N 0.2234 0.51376 0.32631 0.0
C80 C 0.27308 0.54778 0.27735 0.0
H81 H 0.25975 0.56297 0.26494 0.0
H82 H 0.27854 0.5305 0.26173 0.0
H83 H 0.29245 0.55892 0.28447 0.0
C84 C 0.26648 0.43906 0.22442 0.0
N85 N 0.24783 0.46026 0.2265 0.0
N86 N 0.25038 0.47247 0.25276 0.0
C87 C 0.27071 0.45921 0.26842 0.0
C88 C 0.28154 0.43762 0.25096 0.0
C89 C 0.26745 0.41884 0.1988 0.0
H90 H 0.24672 0.40813 0.19683 0.0
H91 H 0.27112 0.43058 0.17771 0.0
H92 H 0.28422 0.40284 0.20175 0.0
O93 O 0.18147 0.46603 0.22195 0.0
O94 O 0.18584 0.48664 0.26632 0.0
H95 H 0.2601 0.46678 0.31429 0.0
H96 H 0.29499 0.45202 0.30903 0.0
C97 C 0.27907 0.46669 0.29976 0.0
H98 H 0.28829 0.48805 0.29989 0.0
H99 H 0.20631 0.50033 0.32997 0.0
O100 O 0.21671 0.44719 0.16551 0.0
C101 C 0.17131 0.47292 0.24731 0.0
Co102 Co 0.53744 0.69986 0.48569 0.0
Co103 Co 0.49223 0.7177 0.53295 0.0
C104 C 0.47665 0.70241 0.46988 0.0
O105 O 0.50214 0.69824 0.46216 0.0
O106 O 0.47041 0.70977 0.49638 0.0
C107 C 0.56806 0.69745 0.4302 0.0
O108 O 0.54421 0.70555 0.41792 0.0
C109 C 0.44439 0.74915 0.55609 0.0
C110 C 0.43994 0.73121 0.60146 0.0
C111 C 0.42692 0.74885 0.58101 0.0
N112 N 0.46648 0.73222 0.56151 0.0
N113 N 0.46396 0.72192 0.58884 0.0
C114 C 0.43886 0.76288 0.52648 0.0
H115 H 0.41749 0.75717 0.51826 0.0
H116 H 0.45507 0.75703 0.50982 0.0
H117 H 0.43981 0.78598 0.529 0.0
C118 C 0.56194 0.75416 0.50375 0.0
N119 N 0.54159 0.73455 0.5055 0.0
N120 N 0.52266 0.74238 0.52532 0.0
C121 C 0.53027 0.7674 0.53679 0.0
C122 C 0.5554 0.77574 0.52338 0.0
C123 C 0.58819 0.75098 0.48539 0.0
H124 H 0.59738 0.72987 0.48922 0.0
H125 H 0.58268 0.75272 0.46133 0.0
H126 H 0.6043 0.76701 0.49105 0.0
O127 O 0.53694 0.66818 0.51431 0.0
O128 O 0.50543 0.6812 0.54828 0.0
H129 H 0.51153 0.77026 0.5802 0.0
H130 H 0.52274 0.80377 0.56501 0.0
C131 C 0.51333 0.78309 0.55956 0.0
H132 H 0.49173 0.78651 0.55077 0.0
H133 H 0.47776 0.70725 0.59819 0.0
O134 O 0.56941 0.69386 0.45834 0.0
C135 C 0.52298 0.66339 0.53812 0.0
Co136 Co 0.69558 0.01985 0.7056 0.0
Co137 Co 0.68902 0.03778 0.77234 0.0
C138 C 0.70292 0.07893 0.72278 0.0
O139 O 0.70307 0.06042 0.70226 0.0
O140 O 0.69755 0.07256 0.74984 0.0
C141 C 0.68487 0.00965 0.64534 0.0
O142 O 0.66763 0.03082 0.64989 0.0
C143 C 0.71009 0.06488 0.82524 0.0
C144 C 0.67793 0.05582 0.85969 0.0
C145 C 0.70262 0.07054 0.8544 0.0
N146 N 0.69069 0.04776 0.81336 0.0
N147 N 0.67154 0.04216 0.83407 0.0
C148 C 0.73541 0.07574 0.80894 0.0
H149 H 0.73911 0.06365 0.78809 0.0
H150 H 0.75431 0.07442 0.82359 0.0
H151 H 0.73211 0.09817 0.80339 0.0
C152 C 0.74023 0.98412 0.73233 0.0
N153 N 0.7192 0.003 0.7346 0.0
N154 N 0.71554 0.00954 0.76291 0.0
C155 C 0.73369 -0.0054 0.77972 0.0
C156 C 0.75017 0.97814 0.7609 0.0
C157 C 0.7515 0.97349 0.70318 0.0
H158 H 0.7516 0.99066 0.68641 0.0
H159 H 0.77322 0.9651 0.70567 0.0
H160 H 0.73747 0.95656 0.69478 0.0
O161 O 0.65502 0.01356 0.71538 0.0
O162 O 0.6504 0.02564 0.76305 0.0
H163 H 0.74343 0.97546 0.82241 0.0
H164 H 0.74684 0.01316 0.82098 0.0
C165 C 0.73411 -0.00499 0.81323 0.0
H166 H 0.71235 -0.00266 0.82198 0.0
H167 H 0.65369 0.02977 0.83046 0.0
O168 O 0.70102 0.00191 0.66646 0.0
C169 C 0.63988 0.0166 0.7387 0.0
Co170 Co 0.00024 0.19245 0.96488 0.0
Co171 Co 0.97455 0.19958 0.02875 0.0
C172 C 0.93889 0.19874 0.97236 0.0
O173 O 0.95983 0.1964 0.9547 0.0
O174 O 0.94235 0.19988 0.00058 0.0
C175 C 0.01524 0.17602 0.90584 0.0
O176 O 0.98975 0.16514 0.90567 0.0
C177 C 0.93799 0.22697 0.07087 0.0
C178 C 0.94595 0.20436 0.1132 0.0
C179 C 0.92861 0.22423 0.09998 0.0
N180 N 0.95944 0.20911 0.06665 0.0
N181 N 0.96438 0.19579 0.09208 0.0
C182 C 0.92738 0.24696 0.0476 0.0
H183 H 0.94334 0.24987 0.02969 0.0
H184 H 0.92229 0.26751 0.05799 0.0
H185 H 0.90776 0.2386 0.03753 0.0
C186 C 0.03336 0.24142 0.98462 0.0
N187 N 0.01298 0.22223 0.98909 0.0
N188 N 0.00291 0.22494 0.01636 0.0
C189 C 0.01675 0.24588 0.0303 0.0
C190 C 0.03644 0.25706 0.01058 0.0
C191 C 0.05121 0.24269 0.95702 0.0
H192 H 0.06271 0.22254 0.95448 0.0
H193 H 0.0374 0.24529 0.93714 0.0
H194 H 0.06677 0.26006 0.95786 0.0
O195 O 0.00616 0.15608 0.98526 0.0
O196 O 0.98906 0.16094 0.03116 0.0
H197 H 0.014 0.23631 0.07696 0.0
H198 H 0.02545 0.27191 0.06909 0.0
C199 C 0.01126 0.25465 0.06192 0.0
H200 H 0.98908 0.26179 0.06395 0.0
H201 H 0.97947 0.18005 0.09468 0.0
O202 O 0.02327 0.19008 0.92842 0.0
C203 C 0.00108 0.1462 0.01116 0.0
Co204 Co 0.82007 0.49878 0.21316 0.0
Co205 Co 0.81304 0.46567 0.27338 0.0
C206 C 0.79645 0.4408 0.21417 0.0
O207 O 0.80391 0.46267 0.19986 0.0
O208 O 0.79885 0.43932 0.24252 0.0
C209 C 0.82475 0.51696 0.15199 0.0
O210 O 0.82783 0.49015 0.14593 0.0
C211 C 0.7852 0.43312 0.3201 0.0
C212 C 0.80754 0.44667 0.36105 0.0
C213 C 0.7852 0.43043 0.35099 0.0
N214 N 0.80605 0.45069 0.31227 0.0
N215 N 0.81973 0.4583 0.33677 0.0
C216 C 0.76657 0.41846 0.29803 0.0
H217 H 0.7801 0.40586 0.28296 0.0
H218 H 0.75514 0.4342 0.28428 0.0
H219 H 0.7514 0.40396 0.30884 0.0
C220 C 0.78508 0.53976 0.24583 0.0
N221 N 0.79847 0.5149 0.24402 0.0
N222 N 0.7953 0.50115 0.26933 0.0
C223 C 0.77954 0.51682 0.28806 0.0
C224 C 0.77277 0.54182 0.27384 0.0
C225 C 0.78563 0.5616 0.22177 0.0
H226 H 0.80787 0.56629 0.21579 0.0
H227 H 0.77499 0.55327 0.2015 0.0
H228 H 0.77512 0.58129 0.22889 0.0
O229 O 0.85942 0.4929 0.2266 0.0
O230 O 0.85439 0.46932 0.26912 0.0
H231 H 0.78844 0.50693 0.33374 0.0
H232 H 0.75377 0.52169 0.32785 0.0
C233 C 0.77003 0.50749 0.31841 0.0
H234 H 0.76101 0.48609 0.3169 0.0
H235 H 0.83667 0.47229 0.33703 0.0
O236 O 0.82109 0.52468 0.17891 0.0
C237 C 0.86999 0.48066 0.24933 0.0
Co238 Co 0.48368 0.3272 0.50239 0.0
Co239 Co 0.51368 0.31935 0.56434 0.0
C240 C 0.54658 0.32411 0.50751 0.0
O241 O 0.52408 0.32657 0.49219 0.0
O242 O 0.54572 0.32101 0.53578 0.0
C243 C 0.47211 0.31801 0.43986 0.0
O244 O 0.49866 0.31021 0.43833 0.0
C245 C 0.55294 0.29863 0.60895 0.0
C246 C 0.53473 0.31391 0.65144 0.0
C247 C 0.55785 0.30023 0.63938 0.0
N248 N 0.52838 0.31141 0.60295 0.0
N249 N 0.51747 0.32044 0.62843 0.0
C250 C 0.57058 0.28386 0.5861 0.0
H251 H 0.55729 0.27674 0.56709 0.0
H252 H 0.58147 0.26552 0.59618 0.0
H253 H 0.58687 0.29854 0.57763 0.0
C254 C 0.45493 0.27566 0.52198 0.0
N255 N 0.47395 0.2962 0.52634 0.0
N256 N 0.48641 0.29255 0.55237 0.0
C257 C 0.47565 0.26944 0.56551 0.0
C258 C 0.45544 0.25795 0.54657 0.0
C259 C 0.43534 0.27432 0.4957 0.0
H260 H 0.42536 0.29514 0.49229 0.0
H261 H 0.44763 0.26917 0.4753 0.0
H262 H 0.41851 0.2584 0.4988 0.0
O263 O 0.47549 0.36307 0.52298 0.0
O264 O 0.49708 0.35716 0.56661 0.0
H265 H 0.47883 0.2737 0.61296 0.0
H266 H 0.47537 0.23775 0.6003 0.0
C267 C 0.48493 0.25849 0.59531 0.0
H268 H 0.50825 0.25655 0.59564 0.0
H269 H 0.49853 0.33151 0.63005 0.0
O270 O 0.46191 0.32608 0.46472 0.0
C271 C 0.48265 0.37217 0.5487 0.0
C272 C 0.18231 0.0424 0.75519 0.0
C273 C 0.20896 0.04235 0.76886 0.0
C274 C 0.16062 0.05895 0.76675 0.0
C275 C 0.14733 0.12196 0.81087 0.0
H276 H 0.0744 0.0883 0.8271 0.0
C277 C 0.06499 0.17318 0.88769 0.0
C278 C 0.03619 0.16745 0.88314 0.0
C279 C 0.0854 0.16089 0.86945 0.0
C280 C 0.09438 0.09828 0.82208 0.0
H281 H 0.23431 0.05916 0.80491 0.0
H282 H 0.19626 0.08855 0.8252 0.0
H283 H 0.11152 0.06016 0.8044 0.0
H284 H 0.00608 0.14633 0.85431 0.0
H285 H 0.04172 0.1256 0.82176 0.0
H286 H 0.13029 0.16015 0.82832 0.0
C287 C 0.19216 0.07581 0.80559 0.0
C288 C 0.1157 0.08205 0.80928 0.0
C289 C 0.21376 0.05894 0.79422 0.0
C290 C 0.02813 0.15087 0.85859 0.0
C291 C 0.04857 0.13881 0.8401 0.0
C292 C 0.1259 0.13834 0.82333 0.0
C293 C 0.16542 0.07597 0.7919 0.0
C294 C 0.14248 0.09362 0.80402 0.0
C295 C 0.07748 0.14287 0.84597 0.0
C296 C 0.0993 0.12656 0.82958 0.0
H297 H 0.17837 0.02971 0.7355 0.0
H298 H 0.14023 0.05881 0.75574 0.0
H299 H 0.16772 0.13146 0.80658 0.0
H300 H 0.07194 0.18592 0.90637 0.0
H301 H 0.10741 0.16434 0.87487 0.0
C302 C 0.92835 0.69341 0.99172 0.0
C303 C 0.93098 0.71671 0.01069 0.0
C304 C 0.91058 0.67117 -0.00048 0.0
C305 C 0.85189 0.65105 0.04955 0.0
H306 H 0.8886 0.57835 0.05158 0.0
C307 C 0.82469 0.56693 0.13535 0.0
C308 C 0.8281 0.53838 0.12837 0.0
C309 C 0.83103 0.58755 0.11431 0.0
C310 C 0.87765 0.59827 0.05049 0.0
H311 H 0.91679 0.73593 0.05184 0.0
H312 H 0.88568 0.69707 0.06566 0.0
H313 H 0.91155 0.61743 0.02637 0.0
H314 H 0.83906 0.509 0.09316 0.0
H315 H 0.85001 0.54519 0.05618 0.0
H316 H 0.81841 0.63214 0.07455 0.0
C317 C 0.89709 0.69595 0.0447 0.0
C318 C 0.89086 0.62069 0.03609 0.0
C319 C 0.91502 0.71802 0.03701 0.0
C320 C 0.83647 0.53084 0.0993 0.0
C321 C 0.84282 0.55155 0.07816 0.0
C322 C 0.83857 0.62858 0.06378 0.0
C323 C 0.89502 0.67213 0.02626 0.0
C324 C 0.87859 0.64752 0.03646 0.0
C325 C 0.84085 0.58013 0.08571 0.0
C326 C 0.85184 0.60222 0.06542 0.0
H327 H 0.94061 0.6921 0.9713 0.0
H328 H 0.9093 0.65308 0.9849 0.0
H329 H 0.84177 0.67144 0.0497 0.0
H330 H 0.8181 0.57347 0.15748 0.0
H331 H 0.82963 0.60933 0.12106 0.0
C332 C 0.32697 0.41163 0.2453 0.0
C333 C 0.30135 0.41556 0.2604 0.0
C334 C 0.34678 0.39239 0.25616 0.0
C335 C 0.35662 0.33483 0.31194 0.0
H336 H 0.43074 0.36808 0.3221 0.0
C337 C 0.42488 0.31996 0.41541 0.0
C338 C 0.45438 0.31873 0.41275 0.0
C339 C 0.40803 0.32341 0.39011 0.0
C340 C 0.41042 0.35808 0.31885 0.0
H341 H 0.27522 0.40164 0.29718 0.0
H342 H 0.30984 0.36859 0.31669 0.0
H343 H 0.39694 0.38996 0.28844 0.0
H344 H 0.48937 0.31872 0.38147 0.0
H345 H 0.45975 0.32544 0.33708 0.0
H346 H 0.36961 0.3041 0.34412 0.0
C347 C 0.31477 0.3799 0.29633 0.0
C348 C 0.39101 0.37061 0.2995 0.0
C349 C 0.29507 0.39906 0.28545 0.0
C350 C 0.46667 0.31971 0.38416 0.0
C351 C 0.44978 0.32357 0.3588 0.0
C352 C 0.37597 0.32242 0.33145 0.0
C353 C 0.34113 0.37679 0.28222 0.0
C354 C 0.36348 0.35983 0.29688 0.0
C355 C 0.42034 0.32598 0.36165 0.0
C356 C 0.4026 0.33465 0.33602 0.0
H357 H 0.33202 0.42412 0.22575 0.0
H358 H 0.36677 0.39026 0.24464 0.0
H359 H 0.33578 0.32566 0.30985 0.0
H360 H 0.41482 0.31899 0.43715 0.0
H361 H 0.38543 0.32555 0.39304 0.0
C362 C 0.69971 0.96896 0.61383 0.0
C363 C 0.68068 0.99093 0.61942 0.0
C364 C 0.69242 0.9473 0.59425 0.0
C365 C 0.63552 0.922 0.54234 0.0
H366 H 0.65048 0.85108 0.58183 0.0
C367 C 0.58176 0.81813 0.50618 0.0
C368 C 0.57249 0.8009 0.52968 0.0
C369 C 0.59908 0.84123 0.512 0.0
C370 C 0.64604 0.87071 0.57055 0.0
H371 H 0.64041 0.00901 0.60666 0.0
H372 H 0.62724 0.97094 0.57355 0.0
H373 H 0.67477 0.89298 0.59847 0.0
H374 H 0.57386 0.79394 0.5775 0.0
H375 H 0.60314 0.83487 0.588 0.0
H376 H 0.60513 0.89983 0.51592 0.0
C377 C 0.64798 0.97041 0.58374 0.0
C378 C 0.66041 0.89475 0.57971 0.0
C379 C 0.65547 0.99226 0.60295 0.0
C380 C 0.58055 0.80716 0.55909 0.0
C381 C 0.59767 0.83032 0.56497 0.0
C382 C 0.6209 0.89794 0.53336 0.0
C383 C 0.66577 0.94699 0.58031 0.0
C384 C 0.6547 0.92088 0.56636 0.0
C385 C 0.60732 0.84752 0.54148 0.0
C386 C 0.62536 0.87223 0.54807 0.0
H387 H 0.71954 0.96766 0.62586 0.0
H388 H 0.70699 0.92999 0.59141 0.0
H389 H 0.63096 0.94169 0.53122 0.0
H390 H 0.57571 0.81359 0.4833 0.0
H391 H 0.60628 0.85392 0.49341 0.0
C392 C 0.88665 0.20117 0.97969 0.0
C393 C 0.90979 0.19726 0.96046 0.0
C394 C 0.85926 0.19555 0.96996 0.0
C395 C 0.8103 0.15866 0.95279 0.0
H396 H 0.78542 0.16533 0.8705 0.0
C397 C 0.73329 0.08153 0.89786 0.0
C398 C 0.71659 0.09084 0.87404 0.0
C399 C 0.7517 0.10015 0.91212 0.0
C400 C 0.79165 0.16375 0.89376 0.0
H401 H 0.92213 0.1859 0.91532 0.0
H402 H 0.87446 0.1752 0.89857 0.0
H403 H 0.8276 0.19011 0.88671 0.0
H404 H 0.70409 0.12669 0.84744 0.0
H405 H 0.73548 0.1596 0.873 0.0
H406 H 0.77443 0.1322 0.95981 0.0
C407 C 0.87737 0.18317 0.92106 0.0
C408 C 0.8161 0.17767 0.90292 0.0
C409 C 0.90478 0.18914 0.93071 0.0
C410 C 0.7169 0.11925 0.86592 0.0
C411 C 0.73503 0.13793 0.88033 0.0
C412 C 0.78574 0.14492 0.9437 0.0
C413 C 0.85441 0.18548 0.94089 0.0
C414 C 0.82619 0.17458 0.93229 0.0
C415 C 0.75347 0.12835 0.90278 0.0
C416 C 0.77662 0.14659 0.91385 0.0
H417 H 0.88968 0.20743 0.00271 0.0
H418 H 0.842 0.19812 0.98559 0.0
H419 H 0.81756 0.15558 0.97555 0.0
H420 H 0.73351 0.05954 0.90407 0.0
H421 H 0.76582 0.09196 0.92907 0.0
C422 C 0.90521 0.25101 0.14085 0.0
C423 C 0.90346 0.23732 0.11322 0.0
C424 C 0.88206 0.26598 0.15175 0.0
C425 C 0.82015 0.30334 0.12289 0.0
H426 H 0.81028 0.319 0.20728 0.0
C427 C 0.77681 0.3921 0.21186 0.0
C428 C 0.78943 0.41505 0.19737 0.0
C429 C 0.7776 0.36545 0.19889 0.0
C430 C 0.81195 0.31449 0.1836 0.0
H431 H 0.87564 0.22569 0.07675 0.0
H432 H 0.83505 0.25159 0.09583 0.0
H433 H 0.8379 0.27865 0.19204 0.0
H434 H 0.80922 0.42894 0.15618 0.0
H435 H 0.8113 0.38272 0.13397 0.0
H436 H 0.79467 0.33954 0.11447 0.0
C437 C 0.85448 0.2517 0.10864 0.0
C438 C 0.82826 0.29155 0.17488 0.0
C439 C 0.87772 0.23702 0.09764 0.0
C440 C 0.7996 0.4116 0.16811 0.0
C441 C 0.80063 0.38497 0.15525 0.0
C442 C 0.80357 0.32612 0.13162 0.0
C443 C 0.85663 0.26708 0.13536 0.0
C444 C 0.83385 0.28668 0.14447 0.0
C445 C 0.79121 0.36133 0.1713 0.0
C446 C 0.80068 0.33292 0.16206 0.0
H447 H 0.92487 0.25129 0.15327 0.0
H448 H 0.88464 0.27785 0.17223 0.0
H449 H 0.8239 0.30019 0.09923 0.0
H450 H 0.76788 0.39434 0.23398 0.0
H451 H 0.76935 0.34779 0.21141 0.0
C452 C 0.59955 0.32691 0.50865 0.0
C453 C 0.57408 0.32793 0.49241 0.0
C454 C 0.62498 0.33482 0.49518 0.0
C455 C 0.64889 0.38491 0.44211 0.0
H456 H 0.71806 0.34239 0.43219 0.0
C457 C 0.73462 0.42228 0.36273 0.0
C458 C 0.7631 0.4178 0.36984 0.0
C459 C 0.71342 0.41043 0.3801 0.0
C460 C 0.69907 0.35469 0.43531 0.0
H461 H 0.55574 0.33625 0.44869 0.0
H462 H 0.59996 0.35053 0.4256 0.0
H463 H 0.67759 0.32099 0.45786 0.0
H464 H 0.79192 0.39897 0.40163 0.0
H465 H 0.75451 0.37861 0.43288 0.0
H466 H 0.66994 0.41875 0.42034 0.0
C467 C 0.60013 0.3436 0.4487 0.0
C468 C 0.67597 0.34237 0.4498 0.0
C469 C 0.57486 0.3354 0.46198 0.0
C470 C 0.77004 0.40224 0.39547 0.0
C471 C 0.74868 0.39049 0.41316 0.0
C472 C 0.67196 0.39732 0.42814 0.0
C473 C 0.62518 0.34413 0.46543 0.0
C474 C 0.65054 0.35723 0.45253 0.0
C475 C 0.72011 0.39445 0.40557 0.0
C476 C 0.69705 0.38212 0.42376 0.0
H477 H 0.59971 0.3212 0.53207 0.0
H478 H 0.64415 0.33515 0.50842 0.0
H479 H 0.62959 0.39689 0.44456 0.0
H480 H 0.72866 0.43514 0.34376 0.0
H481 H 0.6917 0.41366 0.37332 0.0
C482 C 0.60989 0.29552 0.64489 0.0
C483 C 0.58267 0.2896 0.6555 0.0
C484 C 0.63328 0.28186 0.65703 0.0
C485 C 0.65513 0.23142 0.71698 0.0
H486 H 0.70069 0.19998 0.65322 0.0
C487 C 0.69894 0.11809 0.68598 0.0
C488 C 0.70578 0.10885 0.71489 0.0
C489 C 0.69528 0.14665 0.6803 0.0
C490 C 0.68831 0.20865 0.67136 0.0
H491 H 0.55837 0.26677 0.6884 0.0
H492 H 0.5989 0.24196 0.70902 0.0
H493 H 0.67026 0.23971 0.64287 0.0
H494 H 0.71769 0.12227 0.75949 0.0
H495 H 0.71237 0.17216 0.74933 0.0
H496 H 0.67087 0.19859 0.74465 0.0
C497 C 0.60258 0.2575 0.69178 0.0
C498 C 0.67109 0.23177 0.66555 0.0
C499 C 0.57925 0.27151 0.67989 0.0
C500 C 0.71186 0.12879 0.73714 0.0
C501 C 0.70869 0.15738 0.73134 0.0
C502 C 0.672 0.20804 0.72266 0.0
C503 C 0.62976 0.26176 0.67975 0.0
C504 C 0.65317 0.24248 0.68792 0.0
C505 C 0.69882 0.16655 0.70332 0.0
C506 C 0.68764 0.19547 0.69947 0.0
H507 H 0.61297 0.31002 0.62649 0.0
H508 H 0.65395 0.28616 0.64775 0.0
H509 H 0.64221 0.23967 0.73492 0.0
H510 H 0.69421 0.10321 0.66834 0.0
H511 H 0.68746 0.15277 0.65848 0.0
C512 C 0.73193 0.57478 0.27199 0.0
C513 C 0.75653 0.5654 0.28628 0.0
C514 C 0.71493 0.59504 0.2856 0.0
C515 C 0.69745 0.61939 0.3607 0.0
H516 H 0.65541 0.67749 0.31932 0.0
C517 C 0.61943 0.68755 0.42476 0.0
C518 C 0.5927 0.6905 0.41152 0.0
C519 C 0.64221 0.67781 0.40803 0.0
C520 C 0.66698 0.6613 0.33112 0.0
H521 H 0.78388 0.57063 0.32467 0.0
H522 H 0.75437 0.60627 0.34847 0.0
H523 H 0.69083 0.65013 0.29212 0.0
H524 H 0.56915 0.68714 0.37004 0.0
H525 H 0.60885 0.66933 0.34091 0.0
H526 H 0.67322 0.62964 0.39934 0.0
C527 C 0.74785 0.59771 0.32709 0.0
C528 C 0.68722 0.64569 0.31559 0.0
C529 C 0.76474 0.57744 0.31353 0.0
C530 C 0.58952 0.68498 0.38083 0.0
C531 C 0.61231 0.67494 0.36412 0.0
C532 C 0.67727 0.63487 0.37615 0.0
C533 C 0.72238 0.60617 0.31367 0.0
C534 C 0.70248 0.62442 0.33021 0.0
C535 C 0.63869 0.67049 0.37779 0.0
C536 C 0.66162 0.65584 0.36152 0.0
H537 H 0.72527 0.56559 0.25095 0.0
H538 H 0.6953 0.60095 0.27486 0.0
H539 H 0.70839 0.60273 0.37245 0.0
H540 H 0.62261 0.69212 0.44827 0.0
H541 H 0.66244 0.67524 0.41902 0.0
C542 C 0.41902 0.23297 0.57657 0.0
C543 C 0.43708 0.23356 0.55177 0.0
C544 C 0.39982 0.21098 0.58006 0.0
C545 C 0.38726 0.13797 0.55974 0.0
H546 H 0.31005 0.1542 0.58288 0.0
C547 C 0.31183 0.04824 0.58723 0.0
C548 C 0.29808 0.05156 0.61485 0.0
C549 C 0.3241 0.07132 0.57301 0.0
C550 C 0.33153 0.14932 0.57644 0.0
H551 H 0.44997 0.2119 0.51148 0.0
H552 H 0.41659 0.17304 0.51776 0.0
H553 H 0.34255 0.19277 0.57238 0.0
H554 H 0.28394 0.08204 0.64769 0.0
H555 H 0.30577 0.12196 0.62339 0.0
H556 H 0.37688 0.09468 0.56511 0.0
C557 C 0.41716 0.18955 0.53441 0.0
C558 C 0.35011 0.17139 0.57049 0.0
C559 C 0.43618 0.21167 0.53081 0.0
C560 C 0.29465 0.07871 0.62658 0.0
C561 C 0.30703 0.10171 0.61248 0.0
C562 C 0.36879 0.11592 0.56594 0.0
C563 C 0.39859 0.18918 0.55889 0.0
C564 C 0.37828 0.16589 0.5627 0.0
C565 C 0.32291 0.0981 0.58619 0.0
C566 C 0.34088 0.12135 0.575 0.0
H567 H 0.41933 0.24983 0.59284 0.0
H568 H 0.386 0.21096 0.59936 0.0
H569 H 0.40894 0.13318 0.55396 0.0
H570 H 0.3145 0.02762 0.57741 0.0
H571 H 0.33563 0.06798 0.55239 0.0
C572 C 0.95063 0.84278 0.8502 0.0
C573 C 0.94434 0.82637 0.87548 0.0
C574 C 0.92889 0.85467 0.83322 0.0
C575 C 0.87586 0.87013 0.79618 0.0
H576 H 0.8246 0.91097 0.84803 0.0
C577 C 0.77542 0.93201 0.75783 0.0
C578 C 0.77354 0.9593 0.76956 0.0
C579 C 0.79667 0.91378 0.7676 0.0
C580 C 0.83872 0.89961 0.83331 0.0
H581 H 0.91036 0.80758 0.90125 0.0
H582 H 0.87261 0.82852 0.87177 0.0
H583 H 0.86028 0.88039 0.86995 0.0
H584 H 0.79302 0.98949 0.79938 0.0
H585 H 0.82954 0.9574 0.81717 0.0
H586 H 0.85413 0.8898 0.75951 0.0
C587 C 0.89431 0.83243 0.86532 0.0
C588 C 0.85894 0.88193 0.84579 0.0
C589 C 0.91596 0.82043 0.88215 0.0
C590 C 0.79365 0.96835 0.7905 0.0
C591 C 0.81457 0.95008 0.80055 0.0
C592 C 0.85523 0.88758 0.78361 0.0
C593 C 0.90058 0.85042 0.84136 0.0
C594 C 0.87789 0.86725 0.82741 0.0
C595 C 0.81602 0.92255 0.7895 0.0
C596 C 0.83683 0.90278 0.80216 0.0
H597 H 0.97229 0.84759 0.84437 0.0
H598 H 0.93426 0.86855 0.81487 0.0
H599 H 0.89026 0.85901 0.78158 0.0
H600 H 0.76 0.92451 0.7418 0.0
H601 H 0.79734 0.89257 0.7589 0.0
C602 C 0.05994 0.30268 -0.00051 0.0
C603 C 0.05827 0.27821 0.01682 0.0
C604 C 0.08109 0.32245 0.00505 0.0
C605 C 0.15043 0.33134 0.04161 0.0
H606 H 0.12661 0.40843 0.05302 0.0
C607 C 0.20566 0.4075 0.12067 0.0
C608 C 0.20416 0.43652 0.11538 0.0
C609 C 0.19337 0.38864 0.1007 0.0
C610 C 0.1339 0.38719 0.04916 0.0
H611 H 0.07719 0.25459 0.05298 0.0
H612 H 0.11409 0.28925 0.06307 0.0
H613 H 0.0933 0.37423 0.03335 0.0
H614 H 0.19109 0.4684 0.08357 0.0
H615 H 0.16983 0.43532 0.04846 0.0
H616 H 0.19077 0.34411 0.05838 0.0
C617 C 0.09932 0.29314 0.04502 0.0
C618 C 0.11473 0.36757 0.038 0.0
C619 C 0.07808 0.27352 0.03955 0.0
C620 C 0.19228 0.44616 0.08845 0.0
C621 C 0.17999 0.42724 0.06841 0.0
C622 C 0.16967 0.351 0.05263 0.0
C623 C 0.10099 0.31783 0.02787 0.0
C624 C 0.12253 0.33928 0.0351 0.0
C625 C 0.17941 0.39838 0.07494 0.0
C626 C 0.1613 0.37893 0.05752 0.0
H627 H 0.04481 0.30652 0.98175 0.0
H628 H 0.08195 0.34127 0.99148 0.0
H629 H 0.15712 0.30974 0.03904 0.0
H630 H 0.21492 0.39937 0.14109 0.0
H631 H 0.19316 0.36658 0.10658 0.0
C632 C 0.45926 0.6787 0.42356 0.0
C633 C 0.45356 0.69475 0.44922 0.0
C634 C 0.43726 0.66593 0.40789 0.0
C635 C 0.39131 0.62211 0.40294 0.0
H636 H 0.31915 0.65361 0.37944 0.0
C637 C 0.27222 0.5828 0.36698 0.0
C638 C 0.27995 0.56112 0.34745 0.0
C639 C 0.29288 0.60043 0.37914 0.0
C640 C 0.33906 0.64447 0.3863 0.0
H641 H 0.42022 0.7125 0.47668 0.0
H642 H 0.38183 0.69024 0.44909 0.0
H643 H 0.35641 0.68455 0.39835 0.0
H644 H 0.31502 0.53919 0.32704 0.0
H645 H 0.35094 0.57042 0.34708 0.0
H646 H 0.37404 0.58205 0.39208 0.0
C647 C 0.4033 0.68736 0.44133 0.0
C648 C 0.3604 0.6622 0.39684 0.0
C649 C 0.42531 0.69998 0.45718 0.0
C650 C 0.30855 0.55641 0.34132 0.0
C651 C 0.32912 0.57406 0.35319 0.0
C652 C 0.36998 0.60441 0.39279 0.0
C653 C 0.40921 0.66923 0.41742 0.0
C654 C 0.38677 0.65114 0.40499 0.0
C655 C 0.32155 0.59642 0.37207 0.0
C656 C 0.34367 0.61536 0.3841 0.0
H657 H 0.48077 0.67445 0.41669 0.0
H658 H 0.44225 0.65235 0.38918 0.0
H659 H 0.41122 0.61297 0.40985 0.0
H660 H 0.25022 0.58647 0.3723 0.0
H661 H 0.28642 0.61712 0.3941 0.0
C662 C 0.2726 0.91644 0.63227 0.0
C663 C 0.26195 0.91645 0.66154 0.0
C664 C 0.27494 0.8913 0.61648 0.0
C665 C 0.28949 0.81952 0.63868 0.0
H666 H 0.3095 0.81468 0.55478 0.0
C667 C 0.37709 0.74569 0.59885 0.0
C668 C 0.39838 0.76093 0.58414 0.0
C669 C 0.35019 0.7572 0.60252 0.0
C670 C 0.3036 0.81545 0.57818 0.0
H671 H 0.24084 0.89141 0.6952 0.0
H672 H 0.2441 0.84757 0.66733 0.0
H673 H 0.27487 0.84943 0.57105 0.0
H674 H 0.40839 0.80059 0.56286 0.0
H675 H 0.36155 0.82034 0.56859 0.0
H676 H 0.31931 0.78665 0.64604 0.0
C677 C 0.25187 0.86666 0.65704 0.0
C678 C 0.28386 0.83536 0.58754 0.0
C679 C 0.25 0.89174 0.67305 0.0
C680 C 0.39222 0.78776 0.57301 0.0
C681 C 0.36532 0.79913 0.5764 0.0
C682 C 0.30892 0.79943 0.62928 0.0
C683 C 0.26631 0.8658 0.62957 0.0
C684 C 0.27814 0.83895 0.61819 0.0
C685 C 0.34413 0.78412 0.59147 0.0
C686 C 0.3175 0.79851 0.59928 0.0
H687 H 0.28173 0.93526 0.62269 0.0
H688 H 0.28618 0.89167 0.5954 0.0
H689 H 0.28583 0.82154 0.66249 0.0
H690 H 0.38128 0.72492 0.60766 0.0
H691 H 0.33428 0.74532 0.61448 0.0
C692 C 0.07471 0.77729 0.90717 0.0
C693 C 0.07412 0.78484 0.93752 0.0
C694 C 0.1001 0.77789 0.89127 0.0
C695 C 0.14816 0.80597 0.85925 0.0
H696 H 0.22184 0.8018 0.89699 0.0
C697 C 0.25163 0.87547 0.85319 0.0
C698 C 0.25525 0.87711 0.82209 0.0
C699 C 0.23457 0.85454 0.86552 0.0
C700 C 0.20143 0.80272 0.88607 0.0
H701 H 0.09973 0.79781 0.97535 0.0
H702 H 0.14344 0.80002 0.94765 0.0
H703 H 0.18109 0.78023 0.92142 0.0
H704 H 0.24736 0.85597 0.77991 0.0
H705 H 0.21672 0.82006 0.80131 0.0
H706 H 0.16835 0.82896 0.8243 0.0
C707 C 0.12474 0.7927 0.93609 0.0
C708 C 0.17807 0.79055 0.90006 0.0
C709 C 0.09952 0.79165 0.95202 0.0
C710 C 0.24371 0.85605 0.8038 0.0
C711 C 0.22654 0.83526 0.81606 0.0
C712 C 0.17154 0.81768 0.84508 0.0
C713 C 0.12526 0.78662 0.90529 0.0
C714 C 0.15091 0.7932 0.88748 0.0
C715 C 0.22101 0.83493 0.84688 0.0
C716 C 0.19813 0.81718 0.85895 0.0
H717 H 0.05547 0.77159 0.89553 0.0
H718 H 0.09981 0.77249 0.86773 0.0
H719 H 0.12766 0.80883 0.84896 0.0
H720 H 0.26067 0.89126 0.86779 0.0
H721 H 0.23052 0.85482 0.88938 0.0
C722 C 0.08294 0.70745 0.08566 0.0
C723 C 0.08182 0.7347 0.09738 0.0
C724 C 0.10173 0.68786 0.09728 0.0
C725 C 0.13097 0.64489 0.13435 0.0
H726 H 0.20543 0.66632 0.16255 0.0
C727 C 0.2166 0.58524 0.20703 0.0
C728 C 0.2188 0.56054 0.18988 0.0
C729 C 0.20524 0.60962 0.19448 0.0
C730 C 0.1847 0.6602 0.15462 0.0
H731 H 0.09773 0.7624 0.13188 0.0
H732 H 0.12993 0.72753 0.15344 0.0
H733 H 0.17282 0.7025 0.14425 0.0
H734 H 0.21403 0.54311 0.14524 0.0
H735 H 0.19382 0.58551 0.12367 0.0
H736 H 0.14306 0.60266 0.14394 0.0
C737 C 0.11725 0.72174 0.13423 0.0
C738 C 0.16594 0.68082 0.14445 0.0
C739 C 0.09866 0.74159 0.12216 0.0
C740 C 0.21225 0.56159 0.15922 0.0
C741 C 0.20069 0.58584 0.14681 0.0
C742 C 0.14982 0.6244 0.1439 0.0
C743 C 0.11915 0.69468 0.12172 0.0
C744 C 0.1389 0.67333 0.13396 0.0
C745 C 0.19585 0.60953 0.16472 0.0
C746 C 0.17686 0.63182 0.1539 0.0
H747 H 0.06931 0.70124 0.06734 0.0
H748 H 0.10273 0.66741 0.08677 0.0
H749 H 0.11008 0.63834 0.1274 0.0
H750 H 0.2217 0.58523 0.23066 0.0
H751 H 0.20167 0.62772 0.20866 0.0
C752 C 0.59749 -0.00262 0.71194 0.0
C753 C 0.60927 0.01053 0.7372 0.0
C754 C 0.56841 0.99271 0.71015 0.0
C755 C 0.50334 0.99023 0.75653 0.0
H756 H 0.46598 0.00169 0.68028 0.0
C757 C 0.38375 0.00622 0.70569 0.0
C758 C 0.36923 0.98575 0.72229 0.0
C759 C 0.41313 0.00826 0.70735 0.0
C760 C 0.47603 -0.00135 0.70181 0.0
H761 H 0.59971 0.02901 0.78042 0.0
H762 H 0.54908 0.02153 0.77696 0.0
H763 H 0.51692 0.00728 0.68381 0.0
H764 H 0.37425 0.95111 0.75339 0.0
H765 H 0.42548 0.9542 0.7557 0.0
H766 H 0.46235 0.98279 0.77482 0.0
C767 C 0.5623 0.01421 0.75881 0.0
C768 C 0.50533 0.00143 0.70374 0.0
C769 C 0.59137 0.01866 0.76072 0.0
C770 C 0.38476 0.96727 0.74048 0.0
C771 C 0.41415 0.96914 0.74192 0.0
C772 C 0.47403 0.98767 0.75466 0.0
C773 C 0.55042 0.00129 0.73346 0.0
C774 C 0.51935 -0.00262 0.73116 0.0
C775 C 0.42871 0.9897 0.72544 0.0
C776 C 0.45998 0.99195 0.7273 0.0
H777 H 0.61072 0.99073 0.69349 0.0
H778 H 0.56004 0.98229 0.69051 0.0
H779 H 0.51345 0.98657 0.77793 0.0
H780 H 0.37241 0.02089 0.69158 0.0
H781 H 0.42357 0.02467 0.69476 0.0
C782 C 0.02429 0.10101 -0.00256 0.0
C783 C 0.00671 0.11621 0.01684 0.0
C784 C 0.02614 0.07188 -0.0003 0.0
C785 C 0.00706 0.01019 0.04658 0.0
H786 H 0.00261 0.9735 0.96925 0.0
C787 C 0.97981 0.89567 0.98932 0.0
C788 C 0.99621 0.8778 0.00729 0.0
C789 C 0.9808 0.92465 -0.00656 0.0
C790 C 0.00355 0.9834 0.99105 0.0
H791 H 0.97865 0.11304 0.05505 0.0
H792 H 0.98129 0.06208 0.0585 0.0
H793 H 0.00706 0.02411 0.97165 0.0
H794 H 0.02559 0.87626 0.04457 0.0
H795 H 0.02775 0.92698 0.05135 0.0
H796 H 0.00251 0.96925 0.06587 0.0
C797 C 0.99397 0.07267 0.0418 0.0
C798 C 0.00663 0.01242 0.99243 0.0
C799 C 0.99238 0.10189 0.03975 0.0
C800 C 0.01268 0.88947 0.03035 0.0
C801 C 0.01385 0.91854 0.03432 0.0
C802 C 0.00385 0.98102 0.04518 0.0
C803 C 0.01015 0.05729 0.02116 0.0
C804 C 0.00839 0.02621 0.02018 0.0
C805 C -0.00157 0.93647 0.01543 0.0
C806 C 0.00185 0.96736 0.01737 0.0
H807 H 0.03594 0.11151 0.97983 0.0
H808 H 0.0394 0.06071 0.98397 0.0
H809 H 0.00851 0.02017 0.0683 0.0
H810 H 0.96662 0.88732 0.97161 0.0
H811 H 0.96811 0.93787 0.979 0.0
C812 C 0.12676 0.48198 0.27583 0.0
C813 C 0.1412 0.46716 0.25337 0.0
C814 C 0.09744 0.47985 0.27837 0.0
C815 C 0.03606 0.46385 0.231 0.0
H816 H 0.99455 0.47027 0.30542 0.0
C817 C 0.91331 0.4619 0.27464 0.0
C818 C 0.90103 0.47873 0.25228 0.0
C819 C 0.94261 0.45897 0.27643 0.0
C820 C 0.00582 0.46819 0.28447 0.0
H821 H 0.13653 0.43674 0.21756 0.0
H822 H 0.08555 0.43246 0.22252 0.0
H823 H 0.04581 0.465 0.30663 0.0
H824 H 0.90997 0.50636 0.21484 0.0
H825 H 0.96099 0.50169 0.21834 0.0
H826 H 0.99621 0.46658 0.20881 0.0
C827 C 0.09673 0.44642 0.23755 0.0
C828 C 0.0352 0.46544 0.28515 0.0
C829 C 0.12597 0.44875 0.23483 0.0
C830 C 0.91871 0.49304 0.23218 0.0
C831 C 0.94797 0.49022 0.23407 0.0
C832 C 0.00676 0.46647 0.23032 0.0
C833 C 0.08201 0.46267 0.25866 0.0
C834 C 0.05067 0.46349 0.25839 0.0
C835 C 0.96025 0.47289 0.25597 0.0
C836 C 0.99132 0.46904 0.257 0.0
H837 H 0.13789 0.49635 0.29047 0.0
H838 H 0.08677 0.4928 0.29475 0.0
H839 H 0.04729 0.46284 0.20993 0.0
H840 H 0.90029 0.45053 0.29045 0.0
H841 H 0.95139 0.44527 0.29339 0.0
C842 C 0.46488 0.42005 0.53548 0.0
C843 C 0.47805 0.40207 0.55613 0.0
C844 C 0.4664 0.4491 0.53917 0.0
C845 C 0.48804 0.50665 0.59051 0.0
H846 H 0.513 0.54119 0.51653 0.0
C847 C 0.5419 0.61446 0.53948 0.0
C848 C 0.52337 0.63478 0.55098 0.0
C849 C 0.53759 0.58608 0.54562 0.0
C850 C 0.50639 0.53181 0.53747 0.0
H851 H 0.50053 0.40043 0.59851 0.0
H852 H 0.5035 0.45104 0.60461 0.0
H853 H 0.49866 0.49234 0.51653 0.0
H854 H 0.48764 0.64149 0.58058 0.0
H855 H 0.47999 0.59192 0.59096 0.0
H856 H 0.49637 0.54636 0.61143 0.0
C857 C 0.492 0.44274 0.5856 0.0
C858 C 0.49762 0.50394 0.53735 0.0
C859 C 0.4904 0.41368 0.58199 0.0
C860 C 0.5022 0.62636 0.57116 0.0
C861 C 0.49781 0.59791 0.57719 0.0
C862 C 0.49677 0.53473 0.59061 0.0
C863 C 0.48117 0.46072 0.56351 0.0
C864 C 0.48837 0.491 0.56383 0.0
C865 C 0.51462 0.57746 0.56328 0.0
C866 C 0.50625 0.54749 0.56408 0.0
H867 H 0.45483 0.41181 0.51554 0.0
H868 H 0.45723 0.4625 0.52215 0.0
H869 H 0.48101 0.49721 0.61126 0.0
H870 H 0.55869 0.62026 0.52423 0.0
H871 H 0.55135 0.57076 0.53525 0.0
loop_
_geom_bond_atom_site_label_1
_geom_bond_atom_site_label_2
_geom_bond_distance
_geom_bond_site_symmetry_2
_ccdc_geom_bond_type
Co0 O3 1.970 1_545 S
Co0 N17 1.989 . S
Co0 O25 1.967 . S
Co0 O32 1.920 . S
Co1 O4 1.966 . S
Co1 N10 2.022 . S
Co1 N18 1.993 1_565 S
Co1 O26 1.941 . S
C2 O3 1.258 . S
C2 O4 1.263 . S
O3 Co0 1.970 1_565 S
O3 C2 1.258 . S
O4 Co1 1.966 . S
O4 C2 1.263 . S
C5 O6 1.235 . S
C5 O32 1.289 . S
O6 C5 1.235 . S
C7 C9 1.400 . S
C7 N10 1.351 . S
C7 C12 1.501 . S
C8 C9 1.387 . S
C8 N11 1.341 . S
C9 C7 1.400 . S
C9 C8 1.387 . S
N10 Co1 2.022 . S
N10 C7 1.351 . S
N10 N11 1.365 . S
N11 C8 1.341 . S
N11 N10 1.365 . S
N11 H31 0.862 . S
C12 C7 1.501 . S
C12 H13 0.961 . S
C12 H14 0.961 . S
C12 H15 0.960 . S
H13 C12 0.961 . S
H14 C12 0.961 . S
H15 C12 0.960 . S
C16 N17 1.342 . S
C16 C20 1.401 . S
C16 C21 1.499 . S
N17 Co0 1.989 . S
N17 C16 1.342 . S
N17 N18 1.388 . S
N18 Co1 1.993 1_545 S
N18 N17 1.388 . S
N18 C19 1.346 . S
C19 N18 1.346 . S
C19 C20 1.396 . S
C19 C29 1.510 . S
C20 C16 1.401 . S
C20 C19 1.396 . S
C21 C16 1.499 . S
C21 H22 0.959 . S
C21 H23 0.960 . S
C21 H24 0.961 . S
H22 C21 0.959 . S
H23 C21 0.960 . S
H24 C21 0.961 . S
O25 Co0 1.967 . S
O25 C33 1.251 1_545 S
O26 Co1 1.941 . S
O26 C33 1.274 . S
H27 C29 0.959 . S
H28 C29 0.961 . S
C29 C19 1.510 . S
C29 H27 0.959 . S
C29 H28 0.961 . S
C29 H30 0.960 1_545 S
H30 C29 0.960 1_565 S
H31 N11 0.862 . S
O32 Co0 1.920 . S
O32 C5 1.289 . S
C33 O25 1.251 1_565 S
C33 O26 1.274 . S
Co34 O37 1.970 1_655 S
Co34 N51 1.989 1_556 S
Co34 O59 1.951 1_556 S
Co34 O66 1.920 . S
Co35 O38 1.966 1_554 S
Co35 N44 2.022 . S
Co35 N52 1.993 1_455 S
Co35 O60 1.941 . S
C36 O37 1.258 . S
C36 O38 1.263 . S
O37 Co34 1.970 1_455 S
O37 C36 1.258 . S
O38 Co35 1.966 1_556 S
O38 C36 1.263 . S
C39 O40 1.235 . S
C39 O66 1.289 . S
O40 C39 1.235 . S
C41 C43 1.400 . S
C41 N44 1.351 . S
C41 C46 1.501 . S
C42 C43 1.387 . S
C42 N45 1.341 . S
C43 C41 1.400 . S
C43 C42 1.387 . S
N44 Co35 2.022 . S
N44 C41 1.351 . S
N44 N45 1.365 . S
N45 C42 1.341 . S
N45 N44 1.365 . S
N45 H65 0.862 . S
C46 C41 1.501 . S
C46 H47 0.961 . S
C46 H48 0.961 . S
C46 H49 0.960 . S
H47 C46 0.961 . S
H48 C46 0.961 . S
H49 C46 0.960 . S
C50 N51 1.342 . S
C50 C54 1.401 . S
C50 C55 1.499 1_554 S
N51 Co34 1.989 1_554 S
N51 C50 1.342 . S
N51 N52 1.388 . S
N52 Co35 1.993 1_655 S
N52 N51 1.388 . S
N52 C53 1.346 . S
C53 N52 1.346 . S
C53 C54 1.396 . S
C53 C63 1.510 1_655 S
C54 C50 1.401 . S
C54 C53 1.396 . S
C55 C50 1.499 1_556 S
C55 H56 0.959 . S
C55 H57 0.960 . S
C55 H58 0.961 1_556 S
H56 C55 0.959 . S
H57 C55 0.960 . S
H58 C55 0.961 1_554 S
O59 Co34 1.951 1_554 S
O59 C67 1.282 1_655 S
O60 Co35 1.941 . S
O60 C67 1.266 . S
H61 C63 0.959 1_655 S
H62 C63 0.961 . S
C63 C53 1.510 1_455 S
C63 H61 0.959 1_455 S
C63 H62 0.961 . S
C63 H64 0.960 . S
H64 C63 0.960 . S
H65 N45 0.862 . S
O66 Co34 1.920 . S
O66 C39 1.289 . S
C67 O59 1.282 1_455 S
C67 O60 1.266 . S
Co68 O71 1.970 . S
Co68 N85 1.989 . S
Co68 O93 1.967 . S
Co68 O100 1.920 . S
Co69 O72 1.966 . S
Co69 N78 2.022 . S
Co69 N86 1.993 . S
Co69 O94 1.941 . S
C70 O71 1.258 . S
C70 O72 1.263 . S
O71 Co68 1.970 . S
O71 C70 1.258 . S
O72 Co69 1.966 . S
O72 C70 1.263 . S
C73 O74 1.235 . S
C73 O100 1.289 . S
O74 C73 1.235 . S
C75 C77 1.400 . S
C75 N78 1.351 . S
C75 C80 1.501 . S
C76 C77 1.387 . S
C76 N79 1.341 . S
C77 C75 1.400 . S
C77 C76 1.387 . S
N78 Co69 2.022 . S
N78 C75 1.351 . S
N78 N79 1.365 . S
N79 C76 1.341 . S
N79 N78 1.365 . S
N79 H99 0.862 . S
C80 C75 1.501 . S
C80 H81 0.961 . S
C80 H82 0.961 . S
C80 H83 0.960 . S
H81 C80 0.961 . S
H82 C80 0.961 . S
H83 C80 0.960 . S
C84 N85 1.342 . S
C84 C88 1.401 . S
C84 C89 1.499 . S
N85 Co68 1.989 . S
N85 C84 1.342 . S
N85 N86 1.388 . S
N86 Co69 1.993 . S
N86 N85 1.388 . S
N86 C87 1.346 . S
C87 N86 1.346 . S
C87 C88 1.396 . S
C87 C97 1.510 . S
C88 C84 1.401 . S
C88 C87 1.396 . S
C89 C84 1.499 . S
C89 H90 0.959 . S
C89 H91 0.960 . S
C89 H92 0.961 . S
H90 C89 0.959 . S
H91 C89 0.960 . S
H92 C89 0.961 . S
O93 Co68 1.967 . S
O93 C101 1.258 . S
O94 Co69 1.941 . S
O94 C101 1.266 . S
H95 C97 0.959 . S
H96 C97 0.961 . S
C97 C87 1.510 . S
C97 H95 0.959 . S
C97 H96 0.961 . S
C97 H98 0.960 . S
H98 C97 0.960 . S
H99 N79 0.862 . S
O100 Co68 1.920 . S
O100 C73 1.289 . S
C101 O93 1.258 . S
C101 O94 1.266 . S
Co102 O105 1.970 . S
Co102 N119 1.989 . S
Co102 O127 1.967 . S
Co102 O134 1.920 . S
Co103 O106 1.966 . S
Co103 N112 2.022 . S
Co103 N120 1.993 . S
Co103 O128 1.941 . S
C104 O105 1.258 . S
C104 O106 1.263 . S
O105 Co102 1.970 . S
O105 C104 1.258 . S
O106 Co103 1.966 . S
O106 C104 1.263 . S
C107 O108 1.235 . S
C107 O134 1.289 . S
O108 C107 1.235 . S
C109 C111 1.400 . S
C109 N112 1.351 . S
C109 C114 1.501 . S
C110 C111 1.387 . S
C110 N113 1.341 . S
C111 C109 1.400 . S
C111 C110 1.387 . S
N112 Co103 2.022 . S
N112 C109 1.351 . S
N112 N113 1.365 . S
N113 C110 1.341 . S
N113 N112 1.365 . S
N113 H133 0.862 . S
C114 C109 1.501 . S
C114 H115 0.961 . S
C114 H116 0.961 . S
C114 H117 0.960 . S
H115 C114 0.961 . S
H116 C114 0.961 . S
H117 C114 0.960 . S
C118 N119 1.342 . S
C118 C122 1.401 . S
C118 C123 1.499 . S
N119 Co102 1.989 . S
N119 C118 1.342 . S
N119 N120 1.388 . S
N120 Co103 1.993 . S
N120 N119 1.388 . S
N120 C121 1.346 . S
C121 N120 1.346 . S
C121 C122 1.396 . S
C121 C131 1.510 . S
C122 C118 1.401 . S
C122 C121 1.396 . S
C123 C118 1.499 . S
C123 H124 0.959 . S
C123 H125 0.960 . S
C123 H126 0.961 . S
H124 C123 0.959 . S
H125 C123 0.960 . S
H126 C123 0.961 . S
O127 Co102 1.967 . S
O127 C135 1.258 . S
O128 Co103 1.941 . S
O128 C135 1.266 . S
H129 C131 0.959 . S
H130 C131 0.961 . S
C131 C121 1.510 . S
C131 H129 0.959 . S
C131 H130 0.961 . S
C131 H132 0.960 . S
H132 C131 0.960 . S
H133 N113 0.862 . S
O134 Co102 1.920 . S
O134 C107 1.289 . S
C135 O127 1.258 . S
C135 O128 1.266 . S
Co136 O139 1.970 1_565 S
Co136 N153 1.989 . S
Co136 O161 1.967 . S
Co136 O168 1.920 . S
Co137 O140 1.966 . S
Co137 N146 2.022 . S
Co137 N154 1.993 1_545 S
Co137 O162 1.941 . S
C138 O139 1.258 . S
C138 O140 1.263 . S
O139 Co136 1.970 1_545 S
O139 C138 1.258 . S
O140 Co137 1.966 . S
O140 C138 1.263 . S
C141 O142 1.235 . S
C141 O168 1.289 . S
O142 C141 1.235 . S
C143 C145 1.400 . S
C143 N146 1.351 . S
C143 C148 1.501 . S
C144 C145 1.387 . S
C144 N147 1.341 . S
C145 C143 1.400 . S
C145 C144 1.387 . S
N146 Co137 2.022 . S
N146 C143 1.351 . S
N146 N147 1.365 . S
N147 C144 1.341 . S
N147 N146 1.365 . S
N147 H167 0.862 . S
C148 C143 1.501 . S
C148 H149 0.961 . S
C148 H150 0.961 . S
C148 H151 0.960 . S
H149 C148 0.961 . S
H150 C148 0.961 . S
H151 C148 0.960 . S
C152 N153 1.342 . S
C152 C156 1.401 . S
C152 C157 1.499 . S
N153 Co136 1.989 . S
N153 C152 1.342 . S
N153 N154 1.388 . S
N154 Co137 1.993 1_565 S
N154 N153 1.388 . S
N154 C155 1.346 . S
C155 N154 1.346 . S
C155 C156 1.396 . S
C155 C165 1.510 1_565 S
C156 C152 1.401 . S
C156 C155 1.396 . S
C157 C152 1.499 . S
C157 H158 0.959 . S
C157 H159 0.960 . S
C157 H160 0.961 . S
H158 C157 0.959 . S
H159 C157 0.960 . S
H160 C157 0.961 . S
O161 Co136 1.967 . S
O161 C169 1.258 1_565 S
O162 Co137 1.941 . S
O162 C169 1.266 . S
H163 C165 0.959 1_565 S
H164 C165 0.961 . S
C165 C155 1.510 1_545 S
C165 H163 0.959 1_545 S
C165 H164 0.961 . S
C165 H166 0.960 . S
H166 C165 0.960 . S
H167 N147 0.862 . S
O168 Co136 1.920 . S
O168 C141 1.289 . S
C169 O161 1.258 1_545 S
C169 O162 1.266 . S
Co170 O173 1.970 1_455 S
Co170 N187 1.989 1_556 S
Co170 O195 1.962 1_556 S
Co170 O202 1.920 . S
Co171 O174 1.966 1_554 S
Co171 N180 2.022 . S
Co171 N188 1.993 1_655 S
Co171 O196 1.941 . S
C172 O173 1.258 . S
C172 O174 1.263 . S
O173 Co170 1.970 1_655 S
O173 C172 1.258 . S
O174 Co171 1.966 1_556 S
O174 C172 1.263 . S
C175 O176 1.235 . S
C175 O202 1.289 . S
O176 C175 1.235 . S
C177 C179 1.400 . S
C177 N180 1.351 . S
C177 C182 1.501 . S
C178 C179 1.387 . S
C178 N181 1.341 . S
C179 C177 1.400 . S
C179 C178 1.387 . S
N180 Co171 2.022 . S
N180 C177 1.351 . S
N180 N181 1.365 . S
N181 C178 1.341 . S
N181 N180 1.365 . S
N181 H201 0.862 . S
C182 C177 1.501 . S
C182 H183 0.982 . S
C182 H184 0.961 . S
C182 H185 0.960 . S
H183 C182 0.982 . S
H184 C182 0.961 . S
H185 C182 0.960 . S
C186 N187 1.342 . S
C186 C190 1.401 . S
C186 C191 1.499 1_554 S
N187 Co170 1.989 1_554 S
N187 C186 1.342 . S
N187 N188 1.388 . S
N188 Co171 1.993 1_455 S
N188 N187 1.388 . S
N188 C189 1.346 . S
C189 N188 1.346 . S
C189 C190 1.396 . S
C189 C199 1.510 . S
C190 C186 1.401 . S
C190 C189 1.396 . S
C191 C186 1.499 1_556 S
C191 H192 0.959 . S
C191 H193 0.960 . S
C191 H194 0.961 1_556 S
H192 C191 0.959 . S
H193 C191 0.960 . S
H194 C191 0.961 1_554 S
O195 Co170 1.962 1_554 S
O195 C203 1.256 1_455 S
O196 Co171 1.941 . S
O196 C203 1.276 . S
H197 C199 0.959 . S
H198 C199 0.961 . S
C199 C189 1.510 . S
C199 H197 0.959 . S
C199 H198 0.961 . S
C199 H200 0.960 1_455 S
H200 C199 0.960 1_655 S
H201 N181 0.862 . S
O202 Co170 1.920 . S
O202 C175 1.289 . S
C203 O195 1.256 1_655 S
C203 O196 1.276 . S
Co204 O207 1.970 . S
Co204 N221 1.989 . S
Co204 O229 1.967 . S
Co204 O236 1.920 . S
Co205 O208 1.966 . S
Co205 N214 2.022 . S
Co205 N222 1.993 . S
Co205 O230 1.941 . S
C206 O207 1.258 . S
C206 O208 1.263 . S
O207 Co204 1.970 . S
O207 C206 1.258 . S
O208 Co205 1.966 . S
O208 C206 1.263 . S
C209 O210 1.235 . S
C209 O236 1.289 . S
O210 C209 1.235 . S
C211 C213 1.400 . S
C211 N214 1.351 . S
C211 C216 1.501 . S
C212 C213 1.387 . S
C212 N215 1.341 . S
C213 C211 1.400 . S
C213 C212 1.387 . S
N214 Co205 2.022 . S
N214 C211 1.351 . S
N214 N215 1.365 . S
N215 C212 1.341 . S
N215 N214 1.365 . S
N215 H235 0.862 . S
C216 C211 1.501 . S
C216 H217 0.961 . S
C216 H218 0.961 . S
C216 H219 0.960 . S
H217 C216 0.961 . S
H218 C216 0.961 . S
H219 C216 0.960 . S
C220 N221 1.342 . S
C220 C224 1.401 . S
C220 C225 1.499 . S
N221 Co204 1.989 . S
N221 C220 1.342 . S
N221 N222 1.388 . S
N222 Co205 1.993 . S
N222 N221 1.388 . S
N222 C223 1.346 . S
C223 N222 1.346 . S
C223 C224 1.396 . S
C223 C233 1.510 . S
C224 C220 1.401 . S
C224 C223 1.396 . S
C225 C220 1.499 . S
C225 H226 0.959 . S
C225 H227 0.960 . S
C225 H228 0.961 . S
H226 C225 0.959 . S
H227 C225 0.960 . S
H228 C225 0.961 . S
O229 Co204 1.967 . S
O229 C237 1.258 . S
O230 Co205 1.941 . S
O230 C237 1.266 . S
H231 C233 0.959 . S
H232 C233 0.961 . S
C233 C223 1.510 . S
C233 H231 0.959 . S
C233 H232 0.961 . S
C233 H234 0.960 . S
H234 C233 0.960 . S
H235 N215 0.862 . S
O236 Co204 1.920 . S
O236 C209 1.289 . S
C237 O229 1.258 . S
C237 O230 1.266 . S
Co238 O241 1.970 . S
Co238 N255 1.989 . S
Co238 O263 1.967 . S
Co238 O270 1.920 . S
Co239 O242 1.966 . S
Co239 N248 2.022 . S
Co239 N256 1.993 . S
Co239 O264 1.941 . S
C240 O241 1.258 . S
C240 O242 1.263 . S
O241 Co238 1.970 . S
O241 C240 1.258 . S
O242 Co239 1.966 . S
O242 C240 1.263 . S
C243 O244 1.235 . S
C243 O270 1.289 . S
O244 C243 1.235 . S
C245 C247 1.400 . S
C245 N248 1.351 . S
C245 C250 1.501 . S
C246 C247 1.387 . S
C246 N249 1.341 . S
C247 C245 1.400 . S
C247 C246 1.387 . S
N248 Co239 2.022 . S
N248 C245 1.351 . S
N248 N249 1.365 . S
N249 C246 1.341 . S
N249 N248 1.365 . S
N249 H269 0.862 . S
C250 C245 1.501 . S
C250 H251 0.961 . S
C250 H252 0.961 . S
C250 H253 0.960 . S
H251 C250 0.961 . S
H252 C250 0.961 . S
H253 C250 0.960 . S
C254 N255 1.342 . S
C254 C258 1.401 . S
C254 C259 1.499 . S
N255 Co238 1.989 . S
N255 C254 1.342 . S
N255 N256 1.388 . S
N256 Co239 1.993 . S
N256 N255 1.388 . S
N256 C257 1.346 . S
C257 N256 1.346 . S
C257 C258 1.396 . S
C257 C267 1.510 . S
C258 C254 1.401 . S
C258 C257 1.396 . S
C259 C254 1.499 . S
C259 H260 0.959 . S
C259 H261 0.960 . S
C259 H262 0.961 . S
H260 C259 0.959 . S
H261 C259 0.960 . S
H262 C259 0.961 . S
O263 Co238 1.967 . S
O263 C271 1.258 . S
O264 Co239 1.941 . S
O264 C271 1.266 . S
H265 C267 0.959 . S
H266 C267 0.961 . S
C267 C257 1.510 . S
C267 H265 0.959 . S
C267 H266 0.961 . S
C267 H268 0.960 . S
H268 C267 0.960 . S
H269 N249 0.862 . S
O270 Co238 1.920 . S
O270 C243 1.289 . S
C271 O263 1.258 . S
C271 O264 1.266 . S
C272 C273 1.349 . S
C272 C274 1.327 . S
C272 H297 0.950 . S
C273 C272 1.349 . S
C273 C289 1.349 . S
C274 C272 1.327 . S
C274 C293 1.429 . S
C274 H298 0.950 . S
C275 C292 1.574 . S
C275 C294 1.368 . S
C275 H299 0.949 . S
H276 C280 0.949 . S
C277 C278 1.349 . S
C277 C279 1.327 . S
C277 H300 0.950 . S
C278 C277 1.349 . S
C278 C290 1.349 . S
C279 C277 1.327 . S
C279 C295 1.429 . S
C279 H301 0.950 . S
C280 H276 0.949 . S
C280 C288 1.574 . S
C280 C296 1.368 . S
H281 C289 0.950 . S
H282 C287 0.950 . S
H283 C288 0.949 . S
H284 C290 0.950 . S
H285 C291 0.950 . S
H286 C292 0.949 . S
C287 H282 0.950 . S
C287 C289 1.327 . S
C287 C293 1.429 . S
C288 C280 1.574 . S
C288 H283 0.949 . S
C288 C294 1.368 . S
C289 C273 1.349 . S
C289 H281 0.950 . S
C289 C287 1.327 . S
C290 C278 1.349 . S
C290 H284 0.950 . S
C290 C291 1.327 . S
C291 H285 0.950 . S
C291 C290 1.327 . S
C291 C295 1.429 . S
C292 C275 1.574 . S
C292 H286 0.949 . S
C292 C296 1.368 . S
C293 C274 1.429 . S
C293 C287 1.429 . S
C293 C294 1.523 . S
C294 C275 1.368 . S
C294 C288 1.368 . S
C294 C293 1.523 . S
C295 C279 1.429 . S
C295 C291 1.429 . S
C295 C296 1.523 . S
C296 C280 1.368 . S
C296 C292 1.368 . S
C296 C295 1.523 . S
H297 C272 0.950 . S
H298 C274 0.950 . S
H299 C275 0.949 . S
H300 C277 0.950 . S
H301 C279 0.950 . S
C302 C303 1.349 . S
C302 C304 1.327 . S
C302 H327 0.950 . S
C303 C302 1.349 . S
C303 C319 1.349 . S
C304 C302 1.327 . S
C304 C323 1.429 . S
C304 H328 0.950 . S
C305 C322 1.574 . S
C305 C324 1.368 . S
C305 H329 0.949 . S
H306 C310 0.949 . S
C307 C308 1.349 . S
C307 C309 1.327 . S
C307 H330 0.950 . S
C308 C307 1.349 . S
C308 C320 1.349 . S
C309 C307 1.327 . S
C309 C325 1.429 . S
C309 H331 0.950 . S
C310 H306 0.949 . S
C310 C318 1.574 . S
C310 C326 1.368 . S
H311 C319 0.950 . S
H312 C317 0.950 . S
H313 C318 0.949 . S
H314 C320 0.950 . S
H315 C321 0.950 . S
H316 C322 0.949 . S
C317 H312 0.950 . S
C317 C319 1.327 . S
C317 C323 1.429 . S
C318 C310 1.574 . S
C318 H313 0.949 . S
C318 C324 1.368 . S
C319 C303 1.349 . S
C319 H311 0.950 . S
C319 C317 1.327 . S
C320 C308 1.349 . S
C320 H314 0.950 . S
C320 C321 1.327 . S
C321 H315 0.950 . S
C321 C320 1.327 . S
C321 C325 1.429 . S
C322 C305 1.574 . S
C322 H316 0.949 . S
C322 C326 1.368 . S
C323 C304 1.429 . S
C323 C317 1.429 . S
C323 C324 1.523 . S
C324 C305 1.368 . S
C324 C318 1.368 . S
C324 C323 1.523 . S
C325 C309 1.429 . S
C325 C321 1.429 . S
C325 C326 1.523 . S
C326 C310 1.368 . S
C326 C322 1.368 . S
C326 C325 1.523 . S
H327 C302 0.950 . S
H328 C304 0.950 . S
H329 C305 0.949 . S
H330 C307 0.950 . S
H331 C309 0.950 . S
C332 C333 1.349 . S
C332 C334 1.327 . S
C332 H357 0.950 . S
C333 C332 1.349 . S
C333 C349 1.349 . S
C334 C332 1.327 . S
C334 C353 1.429 . S
C334 H358 0.950 . S
C335 C352 1.574 . S
C335 C354 1.368 . S
C335 H359 0.949 . S
H336 C340 0.949 . S
C337 C338 1.349 . S
C337 C339 1.327 . S
C337 H360 0.950 . S
C338 C337 1.349 . S
C338 C350 1.349 . S
C339 C337 1.327 . S
C339 C355 1.429 . S
C339 H361 0.950 . S
C340 H336 0.949 . S
C340 C348 1.574 . S
C340 C356 1.368 . S
H341 C349 0.950 . S
H342 C347 0.950 . S
H343 C348 0.949 . S
H344 C350 0.950 . S
H345 C351 0.950 . S
H346 C352 0.949 . S
C347 H342 0.950 . S
C347 C349 1.327 . S
C347 C353 1.429 . S
C348 C340 1.574 . S
C348 H343 0.949 . S
C348 C354 1.368 . S
C349 C333 1.349 . S
C349 H341 0.950 . S
C349 C347 1.327 . S
C350 C338 1.349 . S
C350 H344 0.950 . S
C350 C351 1.327 . S
C351 H345 0.950 . S
C351 C350 1.327 . S
C351 C355 1.429 . S
C352 C335 1.574 . S
C352 H346 0.949 . S
C352 C356 1.368 . S
C353 C334 1.429 . S
C353 C347 1.429 . S
C353 C354 1.523 . S
C354 C335 1.368 . S
C354 C348 1.368 . S
C354 C353 1.523 . S
C355 C339 1.429 . S
C355 C351 1.429 . S
C355 C356 1.523 . S
C356 C340 1.368 . S
C356 C352 1.368 . S
C356 C355 1.523 . S
H357 C332 0.950 . S
H358 C334 0.950 . S
H359 C335 0.949 . S
H360 C337 0.950 . S
H361 C339 0.950 . S
C362 C363 1.349 . S
C362 C364 1.327 . S
C362 H387 0.950 . S
C363 C362 1.349 . S
C363 C379 1.349 . S
C364 C362 1.327 . S
C364 C383 1.429 . S
C364 H388 0.950 . S
C365 C382 1.574 . S
C365 C384 1.368 . S
C365 H389 0.949 . S
H366 C370 0.949 . S
C367 C368 1.349 . S
C367 C369 1.327 . S
C367 H390 0.950 . S
C368 C367 1.349 . S
C368 C380 1.349 . S
C369 C367 1.327 . S
C369 C385 1.429 . S
C369 H391 0.950 . S
C370 H366 0.949 . S
C370 C378 1.574 . S
C370 C386 1.368 . S
H371 C379 0.950 . S
H372 C377 0.950 . S
H373 C378 0.949 . S
H374 C380 0.950 . S
H375 C381 0.950 . S
H376 C382 0.949 . S
C377 H372 0.950 . S
C377 C379 1.327 . S
C377 C383 1.429 . S
C378 C370 1.574 . S
C378 H373 0.949 . S
C378 C384 1.368 . S
C379 C363 1.349 . S
C379 H371 0.950 . S
C379 C377 1.327 . S
C380 C368 1.349 . S
C380 H374 0.950 . S
C380 C381 1.327 . S
C381 H375 0.950 . S
C381 C380 1.327 . S
C381 C385 1.429 . S
C382 C365 1.574 . S
C382 H376 0.949 . S
C382 C386 1.368 . S
C383 C364 1.429 . S
C383 C377 1.429 . S
C383 C384 1.523 . S
C384 C365 1.368 . S
C384 C378 1.368 . S
C384 C383 1.523 . S
C385 C369 1.429 . S
C385 C381 1.429 . S
C385 C386 1.523 . S
C386 C370 1.368 . S
C386 C382 1.368 . S
C386 C385 1.523 . S
H387 C362 0.950 . S
H388 C364 0.950 . S
H389 C365 0.949 . S
H390 C367 0.950 . S
H391 C369 0.950 . S
C392 C393 1.349 . S
C392 C394 1.327 . S
C392 H417 0.950 . S
C393 C392 1.349 . S
C393 C409 1.349 . S
C394 C392 1.327 . S
C394 C413 1.429 . S
C394 H418 0.950 . S
C395 C412 1.574 . S
C395 C414 1.368 . S
C395 H419 0.949 . S
H396 C400 0.949 . S
C397 C398 1.349 . S
C397 C399 1.327 . S
C397 H420 0.950 . S
C398 C397 1.349 . S
C398 C410 1.349 . S
C399 C397 1.327 . S
C399 C415 1.429 . S
C399 H421 0.950 . S
C400 H396 0.949 . S
C400 C408 1.574 . S
C400 C416 1.368 . S
H401 C409 0.950 . S
H402 C407 0.950 . S
H403 C408 0.949 . S
H404 C410 0.950 . S
H405 C411 0.950 . S
H406 C412 0.949 . S
C407 H402 0.950 . S
C407 C409 1.327 . S
C407 C413 1.429 . S
C408 C400 1.574 . S
C408 H403 0.949 . S
C408 C414 1.368 . S
C409 C393 1.349 . S
C409 H401 0.950 . S
C409 C407 1.327 . S
C410 C398 1.349 . S
C410 H404 0.950 . S
C410 C411 1.327 . S
C411 H405 0.950 . S
C411 C410 1.327 . S
C411 C415 1.429 . S
C412 C395 1.574 . S
C412 H406 0.949 . S
C412 C416 1.368 . S
C413 C394 1.429 . S
C413 C407 1.429 . S
C413 C414 1.523 . S
C414 C395 1.368 . S
C414 C408 1.368 . S
C414 C413 1.523 . S
C415 C399 1.429 . S
C415 C411 1.429 . S
C415 C416 1.523 . S
C416 C400 1.368 . S
C416 C412 1.368 . S
C416 C415 1.523 . S
H417 C392 0.950 . S
H418 C394 0.950 . S
H419 C395 0.949 . S
H420 C397 0.950 . S
H421 C399 0.950 . S
C422 C423 1.349 . S
C422 C424 1.327 . S
C422 H447 0.950 . S
C423 C422 1.349 . S
C423 C439 1.349 . S
C424 C422 1.327 . S
C424 C443 1.429 . S
C424 H448 0.950 . S
C425 C442 1.574 . S
C425 C444 1.368 . S
C425 H449 0.949 . S
H426 C430 0.949 . S
C427 C428 1.349 . S
C427 C429 1.327 . S
C427 H450 0.950 . S
C428 C427 1.349 . S
C428 C440 1.349 . S
C429 C427 1.327 . S
C429 C445 1.429 . S
C429 H451 0.950 . S
C430 H426 0.949 . S
C430 C438 1.574 . S
C430 C446 1.368 . S
H431 C439 0.950 . S
H432 C437 0.950 . S
H433 C438 0.949 . S
H434 C440 0.950 . S
H435 C441 0.950 . S
H436 C442 0.949 . S
C437 H432 0.950 . S
C437 C439 1.327 . S
C437 C443 1.429 . S
C438 C430 1.574 . S
C438 H433 0.949 . S
C438 C444 1.368 . S
C439 C423 1.349 . S
C439 H431 0.950 . S
C439 C437 1.327 . S
C440 C428 1.349 . S
C440 H434 0.950 . S
C440 C441 1.327 . S
C441 H435 0.950 . S
C441 C440 1.327 . S
C441 C445 1.429 . S
C442 C425 1.574 . S
C442 H436 0.949 . S
C442 C446 1.368 . S
C443 C424 1.429 . S
C443 C437 1.429 . S
C443 C444 1.523 . S
C444 C425 1.368 . S
C444 C438 1.368 . S
C444 C443 1.523 . S
C445 C429 1.429 . S
C445 C441 1.429 . S
C445 C446 1.523 . S
C446 C430 1.368 . S
C446 C442 1.368 . S
C446 C445 1.523 . S
H447 C422 0.950 . S
H448 C424 0.950 . S
H449 C425 0.949 . S
H450 C427 0.950 . S
H451 C429 0.950 . S
C452 C453 1.349 . S
C452 C454 1.327 . S
C452 H477 0.950 . S
C453 C452 1.349 . S
C453 C469 1.349 . S
C454 C452 1.327 . S
C454 C473 1.429 . S
C454 H478 0.950 . S
C455 C472 1.574 . S
C455 C474 1.368 . S
C455 H479 0.949 . S
H456 C460 0.949 . S
C457 C458 1.349 . S
C457 C459 1.327 . S
C457 H480 0.950 . S
C458 C457 1.349 . S
C458 C470 1.349 . S
C459 C457 1.327 . S
C459 C475 1.429 . S
C459 H481 0.950 . S
C460 H456 0.949 . S
C460 C468 1.574 . S
C460 C476 1.368 . S
H461 C469 0.950 . S
H462 C467 0.950 . S
H463 C468 0.949 . S
H464 C470 0.950 . S
H465 C471 0.950 . S
H466 C472 0.949 . S
C467 H462 0.950 . S
C467 C469 1.327 . S
C467 C473 1.429 . S
C468 C460 1.574 . S
C468 H463 0.949 . S
C468 C474 1.368 . S
C469 C453 1.349 . S
C469 H461 0.950 . S
C469 C467 1.327 . S
C470 C458 1.349 . S
C470 H464 0.950 . S
C470 C471 1.327 . S
C471 H465 0.950 . S
C471 C470 1.327 . S
C471 C475 1.429 . S
C472 C455 1.574 . S
C472 H466 0.949 . S
C472 C476 1.368 . S
C473 C454 1.429 . S
C473 C467 1.429 . S
C473 C474 1.523 . S
C474 C455 1.368 . S
C474 C468 1.368 . S
C474 C473 1.523 . S
C475 C459 1.429 . S
C475 C471 1.429 . S
C475 C476 1.523 . S
C476 C460 1.368 . S
C476 C472 1.368 . S
C476 C475 1.523 . S
H477 C452 0.950 . S
H478 C454 0.950 . S
H479 C455 0.949 . S
H480 C457 0.950 . S
H481 C459 0.950 . S
C482 C483 1.349 . S
C482 C484 1.327 . S
C482 H507 0.950 . S
C483 C482 1.349 . S
C483 C499 1.349 . S
C484 C482 1.327 . S
C484 C503 1.429 . S
C484 H508 0.950 . S
C485 C502 1.574 . S
C485 C504 1.368 . S
C485 H509 0.949 . S
H486 C490 0.949 . S
C487 C488 1.349 . S
C487 C489 1.327 . S
C487 H510 0.950 . S
C488 C487 1.349 . S
C488 C500 1.349 . S
C489 C487 1.327 . S
C489 C505 1.429 . S
C489 H511 0.950 . S
C490 H486 0.949 . S
C490 C498 1.574 . S
C490 C506 1.368 . S
H491 C499 0.950 . S
H492 C497 0.950 . S
H493 C498 0.949 . S
H494 C500 0.950 . S
H495 C501 0.950 . S
H496 C502 0.949 . S
C497 H492 0.950 . S
C497 C499 1.327 . S
C497 C503 1.429 . S
C498 C490 1.574 . S
C498 H493 0.949 . S
C498 C504 1.368 . S
C499 C483 1.349 . S
C499 H491 0.950 . S
C499 C497 1.327 . S
C500 C488 1.349 . S
C500 H494 0.950 . S
C500 C501 1.327 . S
C501 H495 0.950 . S
C501 C500 1.327 . S
C501 C505 1.429 . S
C502 C485 1.574 . S
C502 H496 0.949 . S
C502 C506 1.368 . S
C503 C484 1.429 . S
C503 C497 1.429 . S
C503 C504 1.523 . S
C504 C485 1.368 . S
C504 C498 1.368 . S
C504 C503 1.523 . S
C505 C489 1.429 . S
C505 C501 1.429 . S
C505 C506 1.523 . S
C506 C490 1.368 . S
C506 C502 1.368 . S
C506 C505 1.523 . S
H507 C482 0.950 . S
H508 C484 0.950 . S
H509 C485 0.949 . S
H510 C487 0.950 . S
H511 C489 0.950 . S
C512 C513 1.349 . S
C512 C514 1.327 . S
C512 H537 0.950 . S
C513 C512 1.349 . S
C513 C529 1.349 . S
C514 C512 1.327 . S
C514 C533 1.429 . S
C514 H538 0.950 . S
C515 C532 1.574 . S
C515 C534 1.368 . S
C515 H539 0.949 . S
H516 C520 0.949 . S
C517 C518 1.349 . S
C517 C519 1.327 . S
C517 H540 0.950 . S
C518 C517 1.349 . S
C518 C530 1.349 . S
C519 C517 1.327 . S
C519 C535 1.429 . S
C519 H541 0.950 . S
C520 H516 0.949 . S
C520 C528 1.574 . S
C520 C536 1.368 . S
H521 C529 0.950 . S
H522 C527 0.950 . S
H523 C528 0.949 . S
H524 C530 0.950 . S
H525 C531 0.950 . S
H526 C532 0.949 . S
C527 H522 0.950 . S
C527 C529 1.327 . S
C527 C533 1.429 . S
C528 C520 1.574 . S
C528 H523 0.949 . S
C528 C534 1.368 . S
C529 C513 1.349 . S
C529 H521 0.950 . S
C529 C527 1.327 . S
C530 C518 1.349 . S
C530 H524 0.950 . S
C530 C531 1.327 . S
C531 H525 0.950 . S
C531 C530 1.327 . S
C531 C535 1.429 . S
C532 C515 1.574 . S
C532 H526 0.949 . S
C532 C536 1.368 . S
C533 C514 1.429 . S
C533 C527 1.429 . S
C533 C534 1.523 . S
C534 C515 1.368 . S
C534 C528 1.368 . S
C534 C533 1.523 . S
C535 C519 1.429 . S
C535 C531 1.429 . S
C535 C536 1.523 . S
C536 C520 1.368 . S
C536 C532 1.368 . S
C536 C535 1.523 . S
H537 C512 0.950 . S
H538 C514 0.950 . S
H539 C515 0.949 . S
H540 C517 0.950 . S
H541 C519 0.950 . S
C542 C543 1.349 . S
C542 C544 1.327 . S
C542 H567 0.950 . S
C543 C542 1.349 . S
C543 C559 1.349 . S
C544 C542 1.327 . S
C544 C563 1.429 . S
C544 H568 0.950 . S
C545 C562 1.574 . S
C545 C564 1.368 . S
C545 H569 0.949 . S
H546 C550 0.949 . S
C547 C548 1.349 . S
C547 C549 1.327 . S
C547 H570 0.950 . S
C548 C547 1.349 . S
C548 C560 1.349 . S
C549 C547 1.327 . S
C549 C565 1.429 . S
C549 H571 0.950 . S
C550 H546 0.949 . S
C550 C558 1.574 . S
C550 C566 1.368 . S
H551 C559 0.950 . S
H552 C557 0.950 . S
H553 C558 0.949 . S
H554 C560 0.950 . S
H555 C561 0.950 . S
H556 C562 0.949 . S
C557 H552 0.950 . S
C557 C559 1.327 . S
C557 C563 1.429 . S
C558 C550 1.574 . S
C558 H553 0.949 . S
C558 C564 1.368 . S
C559 C543 1.349 . S
C559 H551 0.950 . S
C559 C557 1.327 . S
C560 C548 1.349 . S
C560 H554 0.950 . S
C560 C561 1.327 . S
C561 H555 0.950 . S
C561 C560 1.327 . S
C561 C565 1.429 . S
C562 C545 1.574 . S
C562 H556 0.949 . S
C562 C566 1.368 . S
C563 C544 1.429 . S
C563 C557 1.429 . S
C563 C564 1.523 . S
C564 C545 1.368 . S
C564 C558 1.368 . S
C564 C563 1.523 . S
C565 C549 1.429 . S
C565 C561 1.429 . S
C565 C566 1.523 . S
C566 C550 1.368 . S
C566 C562 1.368 . S
C566 C565 1.523 . S
H567 C542 0.950 . S
H568 C544 0.950 . S
H569 C545 0.949 . S
H570 C547 0.950 . S
H571 C549 0.950 . S
C572 C573 1.349 . S
C572 C574 1.327 . S
C572 H597 0.950 . S
C573 C572 1.349 . S
C573 C589 1.349 . S
C574 C572 1.327 . S
C574 C593 1.429 . S
C574 H598 0.950 . S
C575 C592 1.574 . S
C575 C594 1.368 . S
C575 H599 0.949 . S
H576 C580 0.949 . S
C577 C578 1.349 . S
C577 C579 1.327 . S
C577 H600 0.950 . S
C578 C577 1.349 . S
C578 C590 1.349 . S
C579 C577 1.327 . S
C579 C595 1.429 . S
C579 H601 0.950 . S
C580 H576 0.949 . S
C580 C588 1.574 . S
C580 C596 1.368 . S
H581 C589 0.950 . S
H582 C587 0.950 . S
H583 C588 0.949 . S
H584 C590 0.950 . S
H585 C591 0.950 . S
H586 C592 0.949 . S
C587 H582 0.950 . S
C587 C589 1.327 . S
C587 C593 1.429 . S
C588 C580 1.574 . S
C588 H583 0.949 . S
C588 C594 1.368 . S
C589 C573 1.349 . S
C589 H581 0.950 . S
C589 C587 1.327 . S
C590 C578 1.349 . S
C590 H584 0.950 . S
C590 C591 1.327 . S
C591 H585 0.950 . S
C591 C590 1.327 . S
C591 C595 1.429 . S
C592 C575 1.574 . S
C592 H586 0.949 . S
C592 C596 1.368 . S
C593 C574 1.429 . S
C593 C587 1.429 . S
C593 C594 1.523 . S
C594 C575 1.368 . S
C594 C588 1.368 . S
C594 C593 1.523 . S
C595 C579 1.429 . S
C595 C591 1.429 . S
C595 C596 1.523 . S
C596 C580 1.368 . S
C596 C592 1.368 . S
C596 C595 1.523 . S
H597 C572 0.950 . S
H598 C574 0.950 . S
H599 C575 0.949 . S
H600 C577 0.950 . S
H601 C579 0.950 . S
C602 C603 1.349 . S
C602 C604 1.327 . S
C602 H627 0.950 . S
C603 C602 1.349 . S
C603 C619 1.349 . S
C604 C602 1.327 . S
C604 C623 1.429 . S
C604 H628 0.950 . S
C605 C622 1.574 . S
C605 C624 1.368 . S
C605 H629 0.949 . S
H606 C610 0.949 . S
C607 C608 1.349 . S
C607 C609 1.327 . S
C607 H630 0.950 . S
C608 C607 1.349 . S
C608 C620 1.349 . S
C609 C607 1.327 . S
C609 C625 1.429 . S
C609 H631 0.950 . S
C610 H606 0.949 . S
C610 C618 1.574 . S
C610 C626 1.368 . S
H611 C619 0.950 . S
H612 C617 0.950 . S
H613 C618 0.949 . S
H614 C620 0.950 . S
H615 C621 0.950 . S
H616 C622 0.949 . S
C617 H612 0.950 . S
C617 C619 1.327 . S
C617 C623 1.429 . S
C618 C610 1.574 . S
C618 H613 0.949 . S
C618 C624 1.368 . S
C619 C603 1.349 . S
C619 H611 0.950 . S
C619 C617 1.327 . S
C620 C608 1.349 . S
C620 H614 0.950 . S
C620 C621 1.327 . S
C621 H615 0.950 . S
C621 C620 1.327 . S
C621 C625 1.429 . S
C622 C605 1.574 . S
C622 H616 0.949 . S
C622 C626 1.368 . S
C623 C604 1.429 . S
C623 C617 1.429 . S
C623 C624 1.523 . S
C624 C605 1.368 . S
C624 C618 1.368 . S
C624 C623 1.523 . S
C625 C609 1.429 . S
C625 C621 1.429 . S
C625 C626 1.523 . S
C626 C610 1.368 . S
C626 C622 1.368 . S
C626 C625 1.523 . S
H627 C602 0.950 . S
H628 C604 0.950 . S
H629 C605 0.949 . S
H630 C607 0.950 . S
H631 C609 0.950 . S
C632 C633 1.349 . S
C632 C634 1.327 . S
C632 H657 0.950 . S
C633 C632 1.349 . S
C633 C649 1.349 . S
C634 C632 1.327 . S
C634 C653 1.429 . S
C634 H658 0.950 . S
C635 C652 1.574 . S
C635 C654 1.368 . S
C635 H659 0.949 . S
H636 C640 0.949 . S
C637 C638 1.349 . S
C637 C639 1.327 . S
C637 H660 0.950 . S
C638 C637 1.349 . S
C638 C650 1.349 . S
C639 C637 1.327 . S
C639 C655 1.429 . S
C639 H661 0.950 . S
C640 H636 0.949 . S
C640 C648 1.574 . S
C640 C656 1.368 . S
H641 C649 0.950 . S
H642 C647 0.950 . S
H643 C648 0.949 . S
H644 C650 0.950 . S
H645 C651 0.950 . S
H646 C652 0.949 . S
C647 H642 0.950 . S
C647 C649 1.327 . S
C647 C653 1.429 . S
C648 C640 1.574 . S
C648 H643 0.949 . S
C648 C654 1.368 . S
C649 C633 1.349 . S
C649 H641 0.950 . S
C649 C647 1.327 . S
C650 C638 1.349 . S
C650 H644 0.950 . S
C650 C651 1.327 . S
C651 H645 0.950 . S
C651 C650 1.327 . S
C651 C655 1.429 . S
C652 C635 1.574 . S
C652 H646 0.949 . S
C652 C656 1.368 . S
C653 C634 1.429 . S
C653 C647 1.429 . S
C653 C654 1.523 . S
C654 C635 1.368 . S
C654 C648 1.368 . S
C654 C653 1.523 . S
C655 C639 1.429 . S
C655 C651 1.429 . S
C655 C656 1.523 . S
C656 C640 1.368 . S
C656 C652 1.368 . S
C656 C655 1.523 . S
H657 C632 0.950 . S
H658 C634 0.950 . S
H659 C635 0.949 . S
H660 C637 0.950 . S
H661 C639 0.950 . S
C662 C663 1.349 . S
C662 C664 1.327 . S
C662 H687 0.950 . S
C663 C662 1.349 . S
C663 C679 1.349 . S
C664 C662 1.327 . S
C664 C683 1.429 . S
C664 H688 0.950 . S
C665 C682 1.574 . S
C665 C684 1.368 . S
C665 H689 0.949 . S
H666 C670 0.949 . S
C667 C668 1.349 . S
C667 C669 1.327 . S
C667 H690 0.950 . S
C668 C667 1.349 . S
C668 C680 1.349 . S
C669 C667 1.327 . S
C669 C685 1.429 . S
C669 H691 0.950 . S
C670 H666 0.949 . S
C670 C678 1.574 . S
C670 C686 1.368 . S
H671 C679 0.950 . S
H672 C677 0.950 . S
H673 C678 0.949 . S
H674 C680 0.950 . S
H675 C681 0.950 . S
H676 C682 0.949 . S
C677 H672 0.950 . S
C677 C679 1.327 . S
C677 C683 1.429 . S
C678 C670 1.574 . S
C678 H673 0.949 . S
C678 C684 1.368 . S
C679 C663 1.349 . S
C679 H671 0.950 . S
C679 C677 1.327 . S
C680 C668 1.349 . S
C680 H674 0.950 . S
C680 C681 1.327 . S
C681 H675 0.950 . S
C681 C680 1.327 . S
C681 C685 1.429 . S
C682 C665 1.574 . S
C682 H676 0.949 . S
C682 C686 1.368 . S
C683 C664 1.429 . S
C683 C677 1.429 . S
C683 C684 1.523 . S
C684 C665 1.368 . S
C684 C678 1.368 . S
C684 C683 1.523 . S
C685 C669 1.429 . S
C685 C681 1.429 . S
C685 C686 1.523 . S
C686 C670 1.368 . S
C686 C682 1.368 . S
C686 C685 1.523 . S
H687 C662 0.950 . S
H688 C664 0.950 . S
H689 C665 0.949 . S
H690 C667 0.950 . S
H691 C669 0.950 . S
C692 C693 1.349 . S
C692 C694 1.327 . S
C692 H717 0.950 . S
C693 C692 1.349 . S
C693 C709 1.349 . S
C694 C692 1.327 . S
C694 C713 1.429 . S
C694 H718 0.950 . S
C695 C712 1.574 . S
C695 C714 1.368 . S
C695 H719 0.949 . S
H696 C700 0.949 . S
C697 C698 1.349 . S
C697 C699 1.327 . S
C697 H720 0.950 . S
C698 C697 1.349 . S
C698 C710 1.349 . S
C699 C697 1.327 . S
C699 C715 1.429 . S
C699 H721 0.950 . S
C700 H696 0.949 . S
C700 C708 1.574 . S
C700 C716 1.368 . S
H701 C709 0.950 . S
H702 C707 0.950 . S
H703 C708 0.949 . S
H704 C710 0.950 . S
H705 C711 0.950 . S
H706 C712 0.949 . S
C707 H702 0.950 . S
C707 C709 1.327 . S
C707 C713 1.429 . S
C708 C700 1.574 . S
C708 H703 0.949 . S
C708 C714 1.368 . S
C709 C693 1.349 . S
C709 H701 0.950 . S
C709 C707 1.327 . S
C710 C698 1.349 . S
C710 H704 0.950 . S
C710 C711 1.327 . S
C711 H705 0.950 . S
C711 C710 1.327 . S
C711 C715 1.429 . S
C712 C695 1.574 . S
C712 H706 0.949 . S
C712 C716 1.368 . S
C713 C694 1.429 . S
C713 C707 1.429 . S
C713 C714 1.523 . S
C714 C695 1.368 . S
C714 C708 1.368 . S
C714 C713 1.523 . S
C715 C699 1.429 . S
C715 C711 1.429 . S
C715 C716 1.523 . S
C716 C700 1.368 . S
C716 C712 1.368 . S
C716 C715 1.523 . S
H717 C692 0.950 . S
H718 C694 0.950 . S
H719 C695 0.949 . S
H720 C697 0.950 . S
H721 C699 0.950 . S
C722 C723 1.349 . S
C722 C724 1.327 . S
C722 H747 0.950 . S
C723 C722 1.349 . S
C723 C739 1.349 . S
C724 C722 1.327 . S
C724 C743 1.429 . S
C724 H748 0.950 . S
C725 C742 1.574 . S
C725 C744 1.368 . S
C725 H749 0.949 . S
H726 C730 0.949 . S
C727 C728 1.349 . S
C727 C729 1.327 . S
C727 H750 0.950 . S
C728 C727 1.349 . S
C728 C740 1.349 . S
C729 C727 1.327 . S
C729 C745 1.429 . S
C729 H751 0.950 . S
C730 H726 0.949 . S
C730 C738 1.574 . S
C730 C746 1.368 . S
H731 C739 0.950 . S
H732 C737 0.950 . S
H733 C738 0.949 . S
H734 C740 0.950 . S
H735 C741 0.950 . S
H736 C742 0.949 . S
C737 H732 0.950 . S
C737 C739 1.327 . S
C737 C743 1.429 . S
C738 C730 1.574 . S
C738 H733 0.949 . S
C738 C744 1.368 . S
C739 C723 1.349 . S
C739 H731 0.950 . S
C739 C737 1.327 . S
C740 C728 1.349 . S
C740 H734 0.950 . S
C740 C741 1.327 . S
C741 H735 0.950 . S
C741 C740 1.327 . S
C741 C745 1.429 . S
C742 C725 1.574 . S
C742 H736 0.949 . S
C742 C746 1.368 . S
C743 C724 1.429 . S
C743 C737 1.429 . S
C743 C744 1.523 . S
C744 C725 1.368 . S
C744 C738 1.368 . S
C744 C743 1.523 . S
C745 C729 1.429 . S
C745 C741 1.429 . S
C745 C746 1.523 . S
C746 C730 1.368 . S
C746 C742 1.368 . S
C746 C745 1.523 . S
H747 C722 0.950 . S
H748 C724 0.950 . S
H749 C725 0.949 . S
H750 C727 0.950 . S
H751 C729 0.950 . S
C752 C753 1.349 1_565 S
C752 C754 1.327 . S
C752 H777 0.950 . S
C753 C752 1.349 1_545 S
C753 C769 1.349 . S
C754 C752 1.327 . S
C754 C773 1.429 1_565 S
C754 H778 0.950 . S
C755 C772 1.574 . S
C755 C774 1.368 . S
C755 H779 0.949 . S
H756 C760 0.949 . S
C757 C758 1.358 . S
C757 C759 1.327 . S
C757 H780 0.950 . S
C758 C757 1.358 . S
C758 C770 1.340 1_545 S
C759 C757 1.327 . S
C759 C775 1.429 . S
C759 H781 0.950 . S
C760 H756 0.949 . S
C760 C768 1.574 . S
C760 C776 1.368 1_565 S
H761 C769 0.950 . S
H762 C767 0.950 . S
H763 C768 0.949 . S
H764 C770 0.950 . S
H765 C771 0.950 . S
H766 C772 0.949 . S
C767 H762 0.950 . S
C767 C769 1.327 . S
C767 C773 1.429 . S
C768 C760 1.574 . S
C768 H763 0.949 . S
C768 C774 1.368 1_565 S
C769 C753 1.349 . S
C769 H761 0.950 . S
C769 C767 1.327 . S
C770 C758 1.340 1_565 S
C770 H764 0.950 . S
C770 C771 1.327 . S
C771 H765 0.950 . S
C771 C770 1.327 . S
C771 C775 1.429 1_565 S
C772 C755 1.574 . S
C772 H766 0.949 . S
C772 C776 1.368 . S
C773 C754 1.429 1_545 S
C773 C767 1.429 . S
C773 C774 1.523 . S
C774 C755 1.368 . S
C774 C768 1.368 1_545 S
C774 C773 1.523 . S
C775 C759 1.429 . S
C775 C771 1.429 1_545 S
C775 C776 1.523 . S
C776 C760 1.368 1_545 S
C776 C772 1.368 . S
C776 C775 1.523 . S
H777 C752 0.950 . S
H778 C754 0.950 . S
H779 C755 0.949 . S
H780 C757 0.950 . S
H781 C759 0.950 . S
C782 C783 1.357 . S
C782 C784 1.327 . S
C782 H807 0.950 1_554 S
C783 C782 1.357 . S
C783 C799 1.342 1_455 S
C784 C782 1.327 . S
C784 C803 1.429 . S
C784 H808 0.950 1_554 S
C785 C802 1.574 1_545 S
C785 C804 1.368 1_655 S
C785 H809 0.949 . S
H786 C790 0.949 1_556 S
C787 C788 1.349 1_655 S
C787 C789 1.327 . S
C787 H810 0.950 . S
C788 C787 1.349 1_455 S
C788 C800 1.349 . S
C789 C787 1.327 . S
C789 C805 1.429 1_655 S
C789 H811 0.950 . S
C790 H786 0.949 1_554 S
C790 C798 1.574 1_565 S
C790 C806 1.368 . S
H791 C799 0.950 . S
H792 C797 0.950 . S
H793 C798 0.949 1_556 S
H794 C800 0.950 1_556 S
H795 C801 0.950 1_556 S
H796 C802 0.949 . S
C797 H792 0.950 . S
C797 C799 1.327 . S
C797 C803 1.429 1_655 S
C798 C790 1.574 1_545 S
C798 H793 0.949 1_554 S
C798 C804 1.368 . S
C799 C783 1.342 1_655 S
C799 H791 0.950 . S
C799 C797 1.327 . S
C800 C788 1.349 . S
C800 H794 0.950 1_554 S
C800 C801 1.327 . S
C801 H795 0.950 1_554 S
C801 C800 1.327 . S
C801 C805 1.429 . S
C802 C785 1.574 1_565 S
C802 H796 0.949 . S
C802 C806 1.368 1_655 S
C803 C784 1.429 . S
C803 C797 1.429 1_455 S
C803 C804 1.523 . S
C804 C785 1.368 1_455 S
C804 C798 1.368 . S
C804 C803 1.523 . S
C805 C789 1.429 1_455 S
C805 C801 1.429 . S
C805 C806 1.523 . S
C806 C790 1.368 . S
C806 C802 1.368 1_455 S
C806 C805 1.523 . S
H807 C782 0.950 1_556 S
H808 C784 0.950 1_556 S
H809 C785 0.949 . S
H810 C787 0.950 . S
H811 C789 0.950 . S
C812 C813 1.349 . S
C812 C814 1.327 . S
C812 H837 0.950 . S
C813 C812 1.349 . S
C813 C829 1.349 . S
C814 C812 1.327 . S
C814 C833 1.429 . S
C814 H838 0.950 . S
C815 C832 1.574 1_455 S
C815 C834 1.368 . S
C815 H839 0.949 . S
H816 C820 0.949 . S
C817 C818 1.349 . S
C817 C819 1.327 . S
C817 H840 0.950 . S
C818 C817 1.349 . S
C818 C830 1.349 . S
C819 C817 1.327 . S
C819 C835 1.429 . S
C819 H841 0.950 . S
C820 H816 0.949 . S
C820 C828 1.574 1_655 S
C820 C836 1.368 . S
H821 C829 0.950 . S
H822 C827 0.950 . S
H823 C828 0.949 . S
H824 C830 0.950 . S
H825 C831 0.950 . S
H826 C832 0.949 . S
C827 H822 0.950 . S
C827 C829 1.327 . S
C827 C833 1.429 . S
C828 C820 1.574 1_455 S
C828 H823 0.949 . S
C828 C834 1.368 . S
C829 C813 1.349 . S
C829 H821 0.950 . S
C829 C827 1.327 . S
C830 C818 1.349 . S
C830 H824 0.950 . S
C830 C831 1.327 . S
C831 H825 0.950 . S
C831 C830 1.327 . S
C831 C835 1.429 . S
C832 C815 1.574 1_655 S
C832 H826 0.949 . S
C832 C836 1.368 . S
C833 C814 1.429 . S
C833 C827 1.429 . S
C833 C834 1.523 . S
C834 C815 1.368 . S
C834 C828 1.368 . S
C834 C833 1.523 . S
C835 C819 1.429 . S
C835 C831 1.429 . S
C835 C836 1.523 . S
C836 C820 1.368 . S
C836 C832 1.368 . S
C836 C835 1.523 . S
H837 C812 0.950 . S
H838 C814 0.950 . S
H839 C815 0.949 . S
H840 C817 0.950 . S
H841 C819 0.950 . S
C842 C843 1.349 . S
C842 C844 1.327 . S
C842 H867 0.950 . S
C843 C842 1.349 . S
C843 C859 1.349 . S
C844 C842 1.327 . S
C844 C863 1.429 . S
C844 H868 0.950 . S
C845 C862 1.574 . S
C845 C864 1.368 . S
C845 H869 0.949 . S
H846 C850 0.949 . S
C847 C848 1.349 . S
C847 C849 1.327 . S
C847 H870 0.950 . S
C848 C847 1.349 . S
C848 C860 1.349 . S
C849 C847 1.327 . S
C849 C865 1.429 . S
C849 H871 0.950 . S
C850 H846 0.949 . S
C850 C858 1.574 . S
C850 C866 1.368 . S
H851 C859 0.950 . S
H852 C857 0.950 . S
H853 C858 0.949 . S
H854 C860 0.950 . S
H855 C861 0.950 . S
H856 C862 0.949 . S
C857 H852 0.950 . S
C857 C859 1.327 . S
C857 C863 1.429 . S
C858 C850 1.574 . S
C858 H853 0.949 . S
C858 C864 1.368 . S
C859 C843 1.349 . S
C859 H851 0.950 . S
C859 C857 1.327 . S
C860 C848 1.349 . S
C860 H854 0.950 . S
C860 C861 1.327 . S
C861 H855 0.950 . S
C861 C860 1.327 . S
C861 C865 1.429 . S
C862 C845 1.574 . S
C862 H856 0.949 . S
C862 C866 1.368 . S
C863 C844 1.429 . S
C863 C857 1.429 . S
C863 C864 1.523 . S
C864 C845 1.368 . S
C864 C858 1.368 . S
C864 C863 1.523 . S
C865 C849 1.429 . S
C865 C861 1.429 . S
C865 C866 1.523 . S
C866 C850 1.368 . S
C866 C862 1.368 . S
C866 C865 1.523 . S
H867 C842 0.950 . S
H868 C844 0.950 . S
H869 C845 0.949 . S
H870 C847 0.950 . S
H871 C849 0.950 . S
C273 C20 0.761 . S
C278 C175 0.762 . S
C303 C54 0.761 . S
C308 C209 0.761 . S
C333 C88 0.762 . S
C338 C243 0.762 . S
C363 C141 0.761 . S
C368 C122 0.761 . S
C393 C172 0.792 . S
C398 C145 0.788 . S
C423 C179 0.788 . S
C428 C206 0.792 . S
C453 C240 0.791 . S
C458 C213 0.788 . S
C483 C247 0.788 . S
C488 C138 0.792 . S
C513 C224 0.761 . S
C518 C107 0.761 . S
C543 C258 0.762 . S
C548 C5 0.762 . S
C573 C39 0.761 . S
C578 C156 0.761 . S
C603 C190 0.762 . S
C608 C73 0.762 . S
C633 C104 0.792 . S
C638 C77 0.788 . S
C663 C2 0.792 . S
C668 C111 0.788 . S
C693 C36 0.792 . S
C698 C9 0.788 . S
C723 C43 0.788 . S
C728 C70 0.792 . S
C753 C169 0.949 . S
C758 C33 0.949 1_545 S
C783 C203 0.949 1_455 S
C788 C67 0.950 . S
C813 C101 0.950 . S
C818 C237 0.949 . S
C843 C271 0.950 . S
C848 C135 0.949 . S
