# Generated by pormake.
# Topology vma, (5)-cn, num edge types: 1
# Building blocks:
#     Node 0, Type 0, BuildingBlock: XOMCOT_clean_sbu_1, # of connection points: 5
#     Node 1, Type 0, BuildingBlock: XOMCOT_clean_sbu_1, # of connection points: 5
#     Node 2, Type 0, BuildingBlock: XOMCOT_clean_sbu_1, # of connection points: 5
#     Node 3, Type 0, BuildingBlock: XOMCOT_clean_sbu_1, # of connection points: 5
#     Node 4, Type 0, BuildingBlock: XOMCOT_clean_sbu_1, # of connection points: 5
#     Node 5, Type 0, BuildingBlock: XOMCOT_clean_sbu_1, # of connection points: 5
#     Node 6, Type 0, BuildingBlock: XOMCOT_clean_sbu_1, # of connection points: 5
#     Node 7, Type 0, BuildingBlock: XOMCOT_clean_sbu_1, # of connection points: 5
#     Edge 8, Type (0, 0), BuildingBlock: MIFKUJ_clean_linker_0, # of connection points: 2
#     Edge 9, Type (0, 0), BuildingBlock: MIFKUJ_clean_linker_0, # of connection points: 2
#     Edge 10, Type (0, 0), BuildingBlock: MIFKUJ_clean_linker_0, # of connection points: 2
#     Edge 11, Type (0, 0), BuildingBlock: MIFKUJ_clean_linker_0, # of connection points: 2
#     Edge 12, Type (0, 0), BuildingBlock: MIFKUJ_clean_linker_0, # of connection points: 2
#     Edge 13, Type (0, 0), BuildingBlock: MIFKUJ_clean_linker_0, # of connection points: 2
#     Edge 14, Type (0, 0), BuildingBlock: MIFKUJ_clean_linker_0, # of connection points: 2
#     Edge 15, Type (0, 0), BuildingBlock: MIFKUJ_clean_linker_0, # of connection points: 2
#     Edge 16, Type (0, 0), BuildingBlock: MIFKUJ_clean_linker_0, # of connection points: 2
#     Edge 17, Type (0, 0), BuildingBlock: MIFKUJ_clean_linker_0, # of connection points: 2
#     Edge 18, Type (0, 0), BuildingBlock: MIFKUJ_clean_linker_0, # of connection points: 2
#     Edge 19, Type (0, 0), BuildingBlock: MIFKUJ_clean_linker_0, # of connection points: 2
#     Edge 20, Type (0, 0), BuildingBlock: MIFKUJ_clean_linker_0, # of connection points: 2
#     Edge 21, Type (0, 0), BuildingBlock: MIFKUJ_clean_linker_0, # of connection points: 2
#     Edge 22, Type (0, 0), BuildingBlock: MIFKUJ_clean_linker_0, # of connection points: 2
#     Edge 23, Type (0, 0), BuildingBlock: MIFKUJ_clean_linker_0, # of connection points: 2
#     Edge 24, Type (0, 0), BuildingBlock: MIFKUJ_clean_linker_0, # of connection points: 2
#     Edge 25, Type (0, 0), BuildingBlock: MIFKUJ_clean_linker_0, # of connection points: 2
#     Edge 26, Type (0, 0), BuildingBlock: MIFKUJ_clean_linker_0, # of connection points: 2
#     Edge 27, Type (0, 0), BuildingBlock: MIFKUJ_clean_linker_0, # of connection points: 2
# Relax obj value: 0.093
# Max RMSD: 0.173
# Mean RMSD: 0.170
data_MOF--net-vma--node1-XOMCOT_clean_sbu_1--edge1-MIFKUJ_clean_linker_0
_symmetry_space_group_name_H-M    P1
_symmetry_Int_Tables_number       1
_symmetry_cell_setting            triclinic
loop_
_symmetry_equiv_pos_as_xyz
'x, y, z'
_cell_length_a     52.169763
_cell_length_b     35.308175
_cell_length_c     47.45568
_cell_angle_alpha  90.166302
_cell_angle_beta   100.20696
_cell_angle_gamma 89.810192
loop_
_atom_site_label
_atom_site_type_symbol
_atom_site_fract_x
_atom_site_fract_y
_atom_site_fract_z
_atom_type_partial_charge
C0 C 0.35433 0.11515 0.30319 0.0
C1 C 0.37476 0.11642 0.2886 0.0
N2 N 0.39724 0.11431 0.3076 0.0
N3 N 0.36351 0.11198 0.33144 0.0
C4 C 0.38982 0.11149 0.33356 0.0
H5 H 0.33391 0.11633 0.2937 0.0
Co6 Co 0.34083 0.10947 0.35813 0.0
C7 C 0.36992 0.06518 0.40685 0.0
O8 O 0.34889 0.04573 0.40862 0.0
N9 N 0.31686 0.10763 0.38497 0.0
C10 C 0.2857 0.08946 0.40889 0.0
C11 C 0.30036 0.07924 0.38879 0.0
C12 C 0.31134 0.13503 0.40328 0.0
N13 N 0.29247 0.12466 0.41801 0.0
O14 O 0.34962 0.16039 0.36921 0.0
H15 H 0.29899 0.05212 0.37809 0.0
H16 H 0.32096 0.16219 0.40599 0.0
O17 O 0.36926 0.09033 0.38739 0.0
C18 C 0.33387 0.18063 0.35187 0.0
O19 O 0.31617 0.16381 0.33288 0.0
N20 N 0.33045 0.06164 0.34359 0.0
C21 C 0.30973 1.00053 0.30999 0.0
C22 C 0.33387 0.99717 0.32841 0.0
C23 C 0.34432 0.02862 0.34463 0.0
C24 C 0.30714 0.06517 0.32556 0.0
C25 C 0.29637 0.03501 0.30874 0.0
H26 H 0.36373 0.02676 0.35705 0.0
H27 H 0.29699 0.09204 0.32403 0.0
H28 H 0.40323 0.10963 0.3537 0.0
H29 H 0.373 0.1182 0.26559 0.0
H30 H 0.27071 0.07247 0.41575 0.0
H31 H 0.34493 0.97105 0.32938 0.0
H32 H 0.27774 0.0387 0.29473 0.0
C33 C 0.68804 0.12071 0.21717 0.0
C34 C 0.66844 0.1208 0.23305 0.0
N35 N 0.64594 0.11174 0.21572 0.0
N36 N 0.67821 0.11146 0.18986 0.0
C37 C 0.65236 0.10641 0.18949 0.0
H38 H 0.70837 0.12667 0.2251 0.0
Co39 Co 0.69988 0.1065 0.16246 0.0
C40 C 0.66956 0.06275 0.11453 0.0
O41 O 0.69045 0.04261 0.11303 0.0
N42 N 0.72304 0.1021 0.13467 0.0
C43 C 0.75485 0.08286 0.11192 0.0
C44 C 0.74017 0.07383 0.13219 0.0
C45 C 0.72778 0.12782 0.11487 0.0
N46 N 0.74733 0.11708 0.10116 0.0
O47 O 0.69238 0.15797 0.15171 0.0
H48 H 0.74206 0.04758 0.14394 0.0
H49 H 0.71774 0.15464 0.11112 0.0
O50 O 0.67042 0.08847 0.13376 0.0
C51 C 0.7117 0.17697 0.16468 0.0
O52 O 0.73174 0.15866 0.17914 0.0
N53 N 0.70919 0.05843 0.1771 0.0
C54 C 0.73027 0.99604 0.20907 0.0
C55 C 0.70532 0.99408 0.19198 0.0
C56 C 0.69488 0.02601 0.17636 0.0
C57 C 0.73265 0.06127 0.19489 0.0
C58 C 0.7437 0.03043 0.21063 0.0
H59 H 0.67525 0.02486 0.16442 0.0
H60 H 0.74298 0.08789 0.19665 0.0
H61 H 0.63864 0.09817 0.17064 0.0
H62 H 0.67057 0.12738 0.25563 0.0
H63 H 0.76995 0.06537 0.10563 0.0
H64 H 0.694 0.96829 0.19081 0.0
H65 H 0.76247 0.03381 0.2244 0.0
C66 C 0.64732 0.92757 0.59779 0.0
C67 C 0.62854 0.94355 0.5774 0.0
N68 N 0.60655 0.947 0.58835 0.0
N69 N 0.63739 0.9209 0.62164 0.0
C70 C 0.61234 0.93287 0.61525 0.0
H71 H 0.66726 0.92199 0.59561 0.0
Co72 Co 0.65838 0.90245 0.65467 0.0
C73 C 0.61838 0.85396 0.67608 0.0
O74 O 0.62946 0.82207 0.67047 0.0
N75 N 0.6808 0.88393 0.68765 0.0
C76 C 0.71487 0.88014 0.72325 0.0
C77 C 0.69899 0.90418 0.70523 0.0
C78 C 0.68644 0.84751 0.69531 0.0
N79 N 0.70712 0.84437 0.7168 0.0
O80 O 0.66232 0.85537 0.63457 0.0
H81 H 0.7019 0.93435 0.70386 0.0
H82 H 0.67681 0.82353 0.68401 0.0
O83 O 0.62761 0.88552 0.66955 0.0
C84 C 0.68496 0.85385 0.62777 0.0
O85 O 0.70125 0.88175 0.63588 0.0
N86 N 0.65646 0.9495 0.6727 0.0
C87 C 0.66634 0.01808 0.70176 0.0
C88 C 0.65294 0.98907 0.71311 0.0
C89 C 0.64796 0.95491 0.69807 0.0
C90 C 0.66856 0.97796 0.6609 0.0
C91 C 0.67344 0.0126 0.6749 0.0
H92 H 0.63914 0.932 0.70796 0.0
H93 H 0.676 0.97296 0.64135 0.0
H94 H 0.59893 0.93244 0.63023 0.0
H95 H 0.6309 0.95205 0.55611 0.0
H96 H 0.73201 0.88831 0.73839 0.0
H97 H 0.64733 0.99221 0.7339 0.0
H98 H 0.68431 0.03395 0.66567 0.0
C99 C 0.38931 0.94068 0.92668 0.0
C100 C 0.40931 0.95781 0.9447 0.0
N101 N 0.43113 0.95416 0.93347 0.0
N102 N 0.39822 0.92592 0.90403 0.0
C103 C 0.42396 0.93447 0.90875 0.0
H104 H 0.36929 0.93979 0.92969 0.0
Co105 Co 0.37493 0.90337 0.87436 0.0
C106 C 0.40599 0.86389 0.83449 0.0
O107 O 0.38458 0.85791 0.81596 0.0
N108 N 0.34958 0.88123 0.84527 0.0
C109 C 0.3149 0.87344 0.81083 0.0
C110 C 0.33208 0.89924 0.82526 0.0
C111 C 0.34227 0.84434 0.84255 0.0
N112 N 0.32132 0.8389 0.82176 0.0
O113 O 0.37235 0.85999 0.8989 0.0
H114 H 0.33115 0.92939 0.82157 0.0
H115 H 0.35188 0.82185 0.85588 0.0
O116 O 0.40478 0.8808 0.85829 0.0
C117 C 0.35141 0.86384 0.90922 0.0
O118 O 0.33662 0.89345 0.90109 0.0
N119 N 0.37533 0.94777 0.85267 0.0
C120 C 0.36533 0.01579 0.82273 0.0
C121 C 0.3828 0.9891 0.81481 0.0
C122 C 0.38773 0.95524 0.83023 0.0
C123 C 0.35927 0.97413 0.86137 0.0
C124 C 0.35394 0.00816 0.84673 0.0
H125 H 0.40099 0.93519 0.8235 0.0
H126 H 0.34947 0.96779 0.87905 0.0
H127 H 0.43695 0.9275 0.89408 0.0
H128 H 0.40788 0.97184 0.96468 0.0
H129 H 0.29884 0.87968 0.79367 0.0
H130 H 0.39234 0.99411 0.79667 0.0
H131 H 0.34003 0.02752 0.85346 0.0
C132 C 0.84817 0.60957 0.30988 0.0
C133 C 0.86697 0.6102 0.2929 0.0
N134 N 0.89057 0.60852 0.30991 0.0
N135 N 0.85969 0.60731 0.33756 0.0
C136 C 0.88557 0.60702 0.33695 0.0
H137 H 0.82733 0.61043 0.30253 0.0
Co138 Co 0.8412 0.6045 0.36795 0.0
C139 C 0.87702 0.56137 0.41241 0.0
O140 O 0.85753 0.54005 0.41664 0.0
N141 N 0.82155 0.60233 0.39914 0.0
C142 C 0.79516 0.58366 0.42886 0.0
C143 C 0.80805 0.57276 0.40734 0.0
C144 C 0.81621 0.631 0.41653 0.0
N145 N 0.80011 0.62044 0.43453 0.0
O146 O 0.84911 0.65653 0.37615 0.0
H147 H 0.80732 0.54454 0.39843 0.0
H148 H 0.82382 0.65936 0.41617 0.0
O149 O 0.87309 0.58776 0.39371 0.0
C150 C 0.8292 0.67369 0.36241 0.0
O151 O 0.80973 0.65338 0.34892 0.0
N152 N 0.83099 0.55554 0.35591 0.0
C153 C 0.80918 0.49218 0.32559 0.0
C154 C 0.83577 0.49272 0.33796 0.0
C155 C 0.84645 0.52507 0.3528 0.0
C156 C 0.80544 0.55576 0.34322 0.0
C157 C 0.79406 0.52432 0.32847 0.0
H158 H 0.8672 0.5262 0.36054 0.0
H159 H 0.79386 0.58103 0.34416 0.0
H160 H 0.90047 0.60504 0.35587 0.0
H161 H 0.86347 0.61211 0.26978 0.0
H162 H 0.78243 0.56607 0.43893 0.0
H163 H 0.84827 0.46878 0.33566 0.0
H164 H 0.77377 0.52587 0.31839 0.0
C165 C 0.18159 0.60815 0.21889 0.0
C166 C 0.16197 0.60925 0.23472 0.0
N167 N 0.13891 0.61016 0.21664 0.0
N168 N 0.1712 0.60825 0.1908 0.0
C169 C 0.14509 0.60948 0.19004 0.0
H170 H 0.20224 0.60706 0.22734 0.0
Co171 Co 0.19164 0.60719 0.16184 0.0
C172 C 0.15864 0.56089 0.11681 0.0
O173 O 0.17827 0.53789 0.11599 0.0
N174 N 0.21315 0.60681 0.13241 0.0
C175 C 0.24098 0.58893 0.10403 0.0
C176 C 0.22613 0.5771 0.12341 0.0
C177 C 0.22079 0.6366 0.1177 0.0
N178 N 0.23786 0.6265 0.10049 0.0
O179 O 0.18228 0.65879 0.15337 0.0
H180 H 0.22562 0.54826 0.13075 0.0
H181 H 0.21471 0.66551 0.12016 0.0
O182 O 0.16144 0.58902 0.13414 0.0
C183 C 0.19883 0.6764 0.17178 0.0
O184 O 0.21731 0.65683 0.18785 0.0
N185 N 0.20303 0.55876 0.17432 0.0
C186 C 0.22469 0.4994 0.20942 0.0
C187 C 0.19846 0.49822 0.19586 0.0
C188 C 0.1878 0.52868 0.17871 0.0
C189 C 0.22854 0.55995 0.18716 0.0
C190 C 0.23986 0.53038 0.20424 0.0
H191 H 0.16708 0.52926 0.17067 0.0
H192 H 0.23995 0.58498 0.18509 0.0
H193 H 0.13093 0.61033 0.17041 0.0
H194 H 0.16458 0.60873 0.25785 0.0
H195 H 0.25329 0.57103 0.09348 0.0
H196 H 0.18595 0.47518 0.1999 0.0
H197 H 0.26017 0.53245 0.21417 0.0
C198 C 0.1551 0.46288 0.61769 0.0
C199 C 0.13876 0.47902 0.59501 0.0
N200 N 0.11992 0.45398 0.58495 0.0
N201 N 0.14653 0.42784 0.62246 0.0
C202 C 0.12541 0.42288 0.60159 0.0
H203 H 0.17214 0.47618 0.62991 0.0
Co204 Co 0.16297 0.39363 0.65066 0.0
C205 C 0.10773 0.39965 0.66395 0.0
O206 O 0.10249 0.43105 0.64928 0.0
N207 N 0.1797 0.35996 0.67821 0.0
C208 C 0.19241 0.33078 0.71972 0.0
C209 C 0.17531 0.35668 0.70527 0.0
C210 C 0.19959 0.33582 0.67669 0.0
N211 N 0.20774 0.3177 0.70176 0.0
O212 O 0.15693 0.35263 0.62315 0.0
H213 H 0.16098 0.37279 0.71418 0.0
H214 H 0.20844 0.33247 0.65787 0.0
O215 O 0.13 0.38362 0.66514 0.0
C216 C 0.17371 0.3563 0.60667 0.0
O217 O 0.18953 0.38549 0.61073 0.0
N218 N 0.1725 0.43381 0.67651 0.0
C219 C 0.19554 0.49638 0.70707 0.0
C220 C 0.16911 0.48803 0.70637 0.0
C221 C 0.1579 0.45646 0.69095 0.0
C222 C 0.19841 0.44057 0.67816 0.0
C223 C 0.21032 0.47146 0.69333 0.0
H224 H 0.13754 0.4513 0.69024 0.0
H225 H 0.20976 0.42238 0.66667 0.0
H226 H 0.11399 0.39716 0.59907 0.0
H227 H 0.14026 0.50752 0.58713 0.0
H228 H 0.19345 0.32226 0.74178 0.0
H229 H 0.15695 0.50649 0.71669 0.0
H230 H 0.2309 0.47614 0.6938 0.0
C231 C 0.87628 0.44924 0.91645 0.0
C232 C 0.89364 0.46679 0.93754 0.0
N233 N 0.91777 0.45362 0.93653 0.0
N234 N 0.8892 0.42494 0.90205 0.0
C235 C 0.91444 0.42796 0.91489 0.0
H236 H 0.85551 0.45436 0.91154 0.0
Co237 Co 0.87323 0.3959 0.87068 0.0
C238 C 0.91911 0.3997 0.83909 0.0
O239 O 0.90781 0.42597 0.82175 0.0
N240 N 0.85691 0.36553 0.83932 0.0
C241 C 0.84312 0.34179 0.79565 0.0
C242 C 0.85932 0.36766 0.81143 0.0
C243 C 0.83905 0.33779 0.8397 0.0
N244 N 0.83045 0.32297 0.81352 0.0
O245 O 0.87656 0.35154 0.89513 0.0
H246 H 0.87111 0.38769 0.80253 0.0
H247 H 0.83161 0.32921 0.85849 0.0
O248 O 0.90775 0.38588 0.8587 0.0
C249 C 0.85644 0.35348 0.90712 0.0
O250 O 0.84066 0.3825 0.90064 0.0
N251 N 0.86608 0.4411 0.84874 0.0
C252 C 0.84766 0.50944 0.82273 0.0
C253 C 0.87312 0.50664 0.83819 0.0
C254 C 0.88183 0.47238 0.85142 0.0
C255 C 0.84083 0.44434 0.83502 0.0
C256 C 0.83149 0.47771 0.8213 0.0
H257 H 0.90128 0.47106 0.86385 0.0
H258 H 0.82728 0.42139 0.83553 0.0
H259 H 0.93013 0.41245 0.90797 0.0
H260 H 0.88872 0.48764 0.95247 0.0
H261 H 0.84073 0.33733 0.77275 0.0
H262 H 0.88608 0.53077 0.84032 0.0
H263 H 0.8113 0.47915 0.81078 0.0
H264 H 0.18765 0.37153 0.55596 0.0
H265 H 0.20344 0.32747 0.52338 0.0
H266 H 0.18609 0.23361 0.57483 0.0
H267 H 0.17028 0.27832 0.60801 0.0
H268 H 0.23522 0.22885 0.56392 0.0
H269 H 0.15165 0.24696 0.50694 0.0
H270 H 0.11343 0.28251 0.48239 0.0
H271 H 0.16101 0.33817 0.43007 0.0
H272 H 0.19962 0.30338 0.45459 0.0
H273 H 0.27192 0.09797 0.46261 0.0
H274 H 0.24847 0.13384 0.49414 0.0
H275 H 0.26245 0.23709 0.45105 0.0
H276 H 0.28558 0.20103 0.41897 0.0
H277 H 0.2118 0.23176 0.45797 0.0
H278 H 0.29575 0.21675 0.51778 0.0
H279 H 0.33392 0.18147 0.54277 0.0
H280 H 0.28495 0.11944 0.58998 0.0
H281 H 0.2464 0.15398 0.56495 0.0
C282 C 0.18656 0.34143 0.56 0.0
C283 C 0.17753 0.32835 0.58442 0.0
C284 C 0.19558 0.31619 0.54127 0.0
C285 C 0.19587 0.27706 0.54641 0.0
C286 C 0.18598 0.26366 0.5703 0.0
C287 C 0.17667 0.28913 0.58907 0.0
C288 C 0.20846 0.2511 0.52795 0.0
C289 C 0.22969 0.22883 0.54078 0.0
C290 C 0.20178 0.25174 0.49766 0.0
C291 C 0.17859 0.27272 0.48277 0.0
C292 C 0.15402 0.26699 0.49035 0.0
C293 C 0.13227 0.28698 0.47641 0.0
C294 C 0.1348 0.31263 0.45472 0.0
C295 C 0.15908 0.3183 0.44689 0.0
C296 C 0.1809 0.29841 0.46077 0.0
C297 C 0.27005 0.12832 0.45982 0.0
C298 C 0.28063 0.14659 0.43816 0.0
C299 C 0.25676 0.14887 0.47804 0.0
C300 C 0.25373 0.18827 0.47514 0.0
C301 C 0.26452 0.20672 0.45375 0.0
C302 C 0.27798 0.18615 0.43558 0.0
C303 C 0.23875 0.20999 0.49393 0.0
C304 C 0.21711 0.23147 0.48113 0.0
C305 C 0.245 0.20853 0.52423 0.0
C306 C 0.26815 0.18765 0.53924 0.0
C307 C 0.29308 0.19533 0.53329 0.0
C308 C 0.31479 0.17552 0.5475 0.0
C309 C 0.31185 0.14814 0.56788 0.0
C310 C 0.28719 0.14059 0.57414 0.0
C311 C 0.26541 0.16029 0.55996 0.0
H312 H 0.32869 0.13285 0.57888 0.0
H313 H 0.11794 0.32808 0.44396 0.0
H314 H 0.725 0.17136 0.06387 0.0
H315 H 0.74571 0.20641 0.0294 0.0
H316 H 0.81748 0.14577 0.05775 0.0
H317 H 0.79724 0.11158 0.09252 0.0
H318 H 0.82709 0.21906 0.05205 0.0
H319 H 0.77751 0.12379 0.9943 0.0
H320 H 0.73827 0.08743 0.97393 0.0
H321 H 0.70142 0.18894 0.93679 0.0
H322 H 0.74026 0.22603 0.95738 0.0
H323 H 0.88542 0.29526 0.93708 0.0
H324 H 0.86964 0.24844 0.96859 0.0
H325 H 0.79248 0.29656 0.94814 0.0
H326 H 0.80772 0.34214 0.91702 0.0
H327 H 0.78884 0.22276 0.94869 0.0
H328 H 0.83512 0.31885 1.01058 0.0
H329 H 0.87351 0.35693 0.03107 0.0
H330 H 0.91557 0.25558 0.06029 0.0
H331 H 0.87749 0.21686 0.03963 0.0
C332 C 0.74521 0.16565 0.06286 0.0
C333 C 0.7593 0.1383 0.08086 0.0
C334 C 0.757 0.18547 0.04296 0.0
C335 C 0.78313 0.1784 0.04063 0.0
C336 C 0.7973 0.15163 0.05893 0.0
C337 C 0.78556 0.1318 0.07869 0.0
C338 C 0.79588 0.19913 0.01947 0.0
C339 C 0.81892 0.21935 0.02937 0.0
C340 C 0.78517 0.2 0.98989 0.0
C341 C 0.76172 0.17775 0.97763 0.0
C342 C 0.76095 0.13843 0.98202 0.0
C343 C 0.73879 0.11767 0.9704 0.0
C344 C 0.71733 0.13588 0.95416 0.0
C345 C 0.71801 0.17488 0.94946 0.0
C346 C 0.7401 0.19578 0.96108 0.0
C347 C 0.86509 0.29546 0.9392 0.0
C348 C 0.84797 0.32276 0.92478 0.0
C349 C 0.85609 0.26887 0.95728 0.0
C350 C 0.82983 0.26915 0.961 0.0
C351 C 0.81275 0.29558 0.94574 0.0
C352 C 0.82166 0.32196 0.92802 0.0
C353 C 0.81973 0.24331 0.98135 0.0
C354 C 0.79718 0.22207 0.97132 0.0
C355 C 0.83075 0.24175 1.01083 0.0
C356 C 0.85361 0.26496 0.02325 0.0
C357 C 0.85264 0.30468 0.02117 0.0
C358 C 0.87432 0.32638 0.03285 0.0
C359 C 0.897 0.30867 0.04689 0.0
C360 C 0.89801 0.26924 0.04935 0.0
C361 C 0.87639 0.24741 0.03766 0.0
H362 H 0.91376 0.32552 0.05593 0.0
H363 H 0.7002 0.11975 0.94517 0.0
H364 H 0.65681 0.81518 0.58203 0.0
H365 H 0.67465 0.77327 0.54868 0.0
H366 H 0.75074 0.78135 0.6017 0.0
H367 H 0.73319 0.82382 0.63419 0.0
H368 H 0.75589 0.7935 0.55001 0.0
H369 H 0.71196 0.69861 0.59583 0.0
H370 H 0.67459 0.66868 0.61225 0.0
H371 H 0.63408 0.66111 0.52539 0.0
H372 H 0.67111 0.69145 0.50847 0.0
H373 H 0.78723 0.59851 0.48476 0.0
H374 H 0.76612 0.6365 0.51725 0.0
H375 H 0.76503 0.73273 0.46118 0.0
H376 H 0.78677 0.69485 0.42895 0.0
H377 H 0.7213 0.66885 0.51316 0.0
H378 H 0.76771 0.81479 0.49922 0.0
H379 H 0.8084 0.84113 0.48773 0.0
H380 H 0.8497 0.74021 0.51935 0.0
H381 H 0.80944 0.71361 0.5316 0.0
C382 C 0.67718 0.80718 0.58681 0.0
C383 C 0.69363 0.82273 0.61065 0.0
C384 C 0.68743 0.78334 0.5677 0.0
C385 C 0.71419 0.77417 0.57247 0.0
C386 C 0.73017 0.78826 0.59719 0.0
C387 C 0.72007 0.81235 0.61591 0.0
C388 C 0.72612 0.75164 0.55132 0.0
C389 C 0.74822 0.76627 0.54194 0.0
C390 C 0.71644 0.71591 0.54082 0.0
C391 C 0.69418 0.69767 0.55092 0.0
C392 C 0.695 0.69083 0.58025 0.0
C393 C 0.67389 0.67375 0.58964 0.0
C394 C 0.65194 0.66311 0.56988 0.0
C395 C 0.65108 0.66943 0.54067 0.0
C396 C 0.67212 0.68654 0.53117 0.0
C397 C 0.78255 0.6278 0.47939 0.0
C398 C 0.78882 0.64368 0.45433 0.0
C399 C 0.77038 0.64951 0.49795 0.0
C400 C 0.764 0.68768 0.4919 0.0
C401 C 0.77011 0.70359 0.46673 0.0
C402 C 0.78262 0.68195 0.4483 0.0
C403 C 0.75119 0.71059 0.51211 0.0
C404 C 0.72886 0.69617 0.52115 0.0
C405 C 0.76107 0.74609 0.52294 0.0
C406 C 0.78547 0.76204 0.51599 0.0
C407 C 0.78549 0.79829 0.5038 0.0
C408 C 0.80847 0.81324 0.49713 0.0
C409 C 0.83156 0.79226 0.50261 0.0
C410 C 0.83178 0.75637 0.51498 0.0
C411 C 0.80889 0.74134 0.5218 0.0
H412 H 0.84931 0.80387 0.49738 0.0
H413 H 0.63562 0.64988 0.57719 0.0
H414 H 0.3066 0.86703 0.93055 0.0
H415 H 0.29144 0.82514 0.96437 0.0
H416 H 0.3605 0.75648 0.96853 0.0
H417 H 0.37603 0.79883 0.93384 0.0
H418 H 0.31552 0.71332 0.96531 0.0
H419 H 0.35511 0.81501 0.02327 0.0
H420 H 0.36437 0.88158 0.03712 0.0
H421 H 0.28404 0.89923 0.04315 0.0
H422 H 0.2742 0.8329 0.02888 0.0
H423 H 0.28475 0.61333 0.08489 0.0
H424 H 0.30653 0.65173 0.05378 0.0
H425 H 0.2438 0.73304 0.04507 0.0
H426 H 0.22169 0.69443 0.07635 0.0
H427 H 0.28996 0.76814 0.05273 0.0
H428 H 0.24982 0.66828 0.99136 0.0
H429 H 0.24006 0.60213 0.97652 0.0
H430 H 0.32121 0.58129 0.9766 0.0
H431 H 0.3315 0.64721 0.99182 0.0
C432 C 0.31878 0.84312 0.93853 0.0
C433 C 0.34274 0.83658 0.92952 0.0
C434 C 0.31003 0.81918 0.95808 0.0
C435 C 0.32498 0.788 0.96951 0.0
C436 C 0.34869 0.78058 0.96016 0.0
C437 C 0.35757 0.80479 0.94039 0.0
C438 C 0.31529 0.76356 0.99101 0.0
C439 C 0.31045 0.72511 0.98474 0.0
C440 C 0.30803 0.77908 0.01607 0.0
C441 C 0.31389 0.819 0.02481 0.0
C442 C 0.33937 0.83314 0.02734 0.0
C443 C 0.34473 0.87084 0.0353 0.0
C444 C 0.3248 0.89464 0.04096 0.0
C445 C 0.29947 0.88076 0.03874 0.0
C446 C 0.29399 0.8431 0.03075 0.0
C447 C 0.27534 0.63914 0.07619 0.0
C448 C 0.25117 0.6504 0.08292 0.0
C449 C 0.28792 0.66118 0.05835 0.0
C450 C 0.27666 0.69502 0.04655 0.0
C451 C 0.25288 0.70695 0.05378 0.0
C452 C 0.24025 0.68489 0.07175 0.0
C453 C 0.2898 0.71797 0.02684 0.0
C454 C 0.29527 0.7562 0.03346 0.0
C455 C 0.29761 0.70222 1.00213 0.0
C456 C 0.29146 0.66256 0.99303 0.0
C457 C 0.26561 0.6495 0.98845 0.0
C458 C 0.25998 0.61207 0.97992 0.0
C459 C 0.28001 0.58749 0.9757 0.0
C460 C 0.30571 0.60033 0.97993 0.0
C461 C 0.31146 0.63773 0.98848 0.0
H462 H 0.2756 0.55853 0.96908 0.0
H463 H 0.32899 0.92381 0.04712 0.0
H464 H 0.63617 0.08772 0.26685 0.0
H465 H 0.59427 0.08688 0.2831 0.0
H466 H 0.55631 0.1278 0.20065 0.0
H467 H 0.59849 0.12879 0.18425 0.0
H468 H 0.54208 0.16803 0.24649 0.0
H469 H 0.54848 0.03782 0.21859 0.0
H470 H 0.56952 0.97523 0.2183 0.0
H471 H 0.5719 0.96512 0.30888 0.0
H472 H 0.5512 0.02793 0.30979 0.0
H473 H 0.4116 0.14377 0.25996 0.0
H474 H 0.45411 0.14148 0.24617 0.0
H475 H 0.48579 0.08623 0.32573 0.0
H476 H 0.44243 0.08664 0.3392 0.0
H477 H 0.50446 0.05345 0.28349 0.0
H478 H 0.49828 0.18158 0.31269 0.0
H479 H 0.47834 0.24468 0.3149 0.0
H480 H 0.47729 0.26003 0.22498 0.0
H481 H 0.4969 0.19677 0.22213 0.0
C482 C 0.61891 0.09647 0.25211 0.0
C483 C 0.62073 0.10851 0.22426 0.0
C484 C 0.5949 0.09574 0.2614 0.0
C485 C 0.57203 0.10716 0.24313 0.0
C486 C 0.57367 0.11882 0.21516 0.0
C487 C 0.59774 0.11913 0.20572 0.0
C488 C 0.54666 0.10808 0.25366 0.0
C489 C 0.53364 0.14287 0.25416 0.0
C490 C 0.53614 0.07558 0.26481 0.0
C491 C 0.54853 0.03777 0.2643 0.0
C492 C 0.5537 0.02241 0.23849 0.0
C493 C 0.56552 0.98686 0.23821 0.0
C494 C 0.57211 0.96626 0.26357 0.0
C495 C 0.56682 0.98113 0.28926 0.0
C496 C 0.55503 0.0167 0.28966 0.0
C497 C 0.4274 0.13076 0.27458 0.0
C498 C 0.42327 0.1151 0.30069 0.0
C499 C 0.45198 0.12996 0.26675 0.0
C500 C 0.47347 0.11422 0.28499 0.0
C501 C 0.46961 0.09871 0.31124 0.0
C502 C 0.4448 0.09926 0.31907 0.0
C503 C 0.49961 0.1134 0.27603 0.0
C504 C 0.51286 0.07868 0.27589 0.0
C505 C 0.51056 0.1461 0.26553 0.0
C506 C 0.49887 0.18427 0.26716 0.0
C507 C 0.49363 0.19829 0.29334 0.0
C508 C 0.48242 0.23411 0.29471 0.0
C509 C 0.4765 0.25631 0.27008 0.0
C510 C 0.48186 0.24278 0.24404 0.0
C511 C 0.49306 0.20696 0.24254 0.0
H512 H 0.46781 0.28403 0.27119 0.0
H513 H 0.58126 0.93873 0.2633 0.0
H514 H 0.61382 0.80638 0.71992 0.0
H515 H 0.58131 0.80775 0.75108 0.0
H516 H 0.54249 0.90127 0.70259 0.0
H517 H 0.5765 0.90186 0.67293 0.0
H518 H 0.53822 0.91406 0.7526 0.0
H519 H 0.52112 0.80035 0.69717 0.0
H520 H 0.53108 0.73863 0.67704 0.0
H521 H 0.55218 0.69313 0.76183 0.0
H522 H 0.54261 0.75472 0.78247 0.0
H523 H 0.41379 0.82101 0.78924 0.0
H524 H 0.45181 0.81858 0.7664 0.0
H525 H 0.49394 0.88898 0.83334 0.0
H526 H 0.45507 0.8928 0.85594 0.0
H527 H 0.49768 0.79417 0.77624 0.0
H528 H 0.53715 0.94494 0.80523 0.0
H529 H 0.52088 0.00713 0.81832 0.0
H530 H 0.44424 0.97967 0.77355 0.0
H531 H 0.46016 0.91765 0.7598 0.0
C532 C 0.59824 0.82708 0.71581 0.0
C533 C 0.59748 0.85363 0.69367 0.0
C534 C 0.57948 0.82776 0.73361 0.0
C535 C 0.55872 0.85392 0.72897 0.0
C536 C 0.5581 0.88065 0.70683 0.0
C537 C 0.57744 0.88082 0.68966 0.0
C538 C 0.53775 0.85338 0.74704 0.0
C539 C 0.52944 0.88774 0.7577 0.0
C540 C 0.52572 0.81931 0.7537 0.0
C541 C 0.5314 0.78223 0.74135 0.0
C542 C 0.52803 0.77723 0.71151 0.0
C543 C 0.53359 0.74228 0.70002 0.0
C544 C 0.54233 0.71202 0.71815 0.0
C545 C 0.54545 0.71661 0.74781 0.0
C546 C 0.53994 0.75152 0.75942 0.0
C547 C 0.43116 0.83581 0.7994 0.0
C548 C 0.43116 0.85747 0.82437 0.0
C549 C 0.45307 0.83423 0.78627 0.0
C550 C 0.47582 0.85407 0.7977 0.0
C551 C 0.4765 0.87399 0.82365 0.0
C552 C 0.45434 0.87583 0.83679 0.0
C553 C 0.49804 0.85477 0.78148 0.0
C554 C 0.50663 0.82043 0.77126 0.0
C555 C 0.50943 0.88895 0.77416 0.0
C556 C 0.4998 0.92648 0.78184 0.0
C557 C 0.51686 0.95226 0.79811 0.0
C558 C 0.50769 0.98747 0.80563 0.0
C559 C 0.48152 0.99728 0.79686 0.0
C560 C 0.46449 0.97199 0.78041 0.0
C561 C 0.47357 0.93681 0.77275 0.0
H562 H 0.47446 0.02451 0.80276 0.0
H563 H 0.54663 0.68498 0.7092 0.0
H564 H 0.09291 0.58506 0.1858 0.0
H565 H 0.0504 0.58448 0.20103 0.0
H566 H 0.08438 0.6367 0.2811 0.0
H567 H 0.12665 0.63767 0.26607 0.0
H568 H 0.05388 0.58054 0.29101 0.0
H569 H 0.04551 0.68631 0.22656 0.0
H570 H 0.04657 0.7189 0.1809 0.0
H571 H 0.98739 0.64442 0.1377 0.0
H572 H 0.98637 0.61079 0.18302 0.0
H573 H 0.93702 0.63331 0.33947 0.0
H574 H 0.97901 0.63346 0.32322 0.0
H575 H 0.94314 0.58223 0.24336 0.0
H576 H 0.90119 0.5824 0.25936 0.0
H577 H 0.97444 0.63647 0.23297 0.0
H578 H 0.98234 0.53128 0.29798 0.0
H579 H 0.98067 0.50008 0.34408 0.0
H580 H 0.04043 0.57424 0.38654 0.0
H581 H 0.0422 0.60625 0.34077 0.0
C582 C 0.09129 0.5968 0.20651 0.0
C583 C 0.11338 0.61122 0.22472 0.0
C584 C 0.06694 0.59633 0.21525 0.0
C585 C 0.06405 0.61054 0.24227 0.0
C586 C 0.08602 0.62523 0.26029 0.0
C587 C 0.11029 0.62569 0.25163 0.0
C588 C 0.03829 0.61001 0.25199 0.0
C589 C 0.03659 0.59316 0.27843 0.0
C590 C 1.01548 0.62569 0.23542 0.0
C591 C 1.01605 0.64581 0.20814 0.0
C592 C 0.03289 0.67665 0.20728 0.0
C593 C 0.03348 0.69531 0.18146 0.0
C594 C 1.01714 0.68362 0.1564 0.0
C595 C 1.00011 0.65332 0.15712 0.0
C596 C 0.99952 0.63445 0.18286 0.0
C597 C 0.93811 0.62179 0.31856 0.0
C598 C 0.91563 0.60788 0.30076 0.0
C599 C 0.96218 0.62187 0.30925 0.0
C600 C 0.96444 0.60749 0.28209 0.0
C601 C 0.942 0.59363 0.26432 0.0
C602 C 0.91795 0.5938 0.27352 0.0
C603 C 0.99004 0.60709 0.27202 0.0
C604 C 0.99171 0.62373 0.24551 0.0
C605 C 1.01282 0.59119 0.28853 0.0
C606 C 1.01224 0.57138 0.31597 0.0
C607 C 0.99504 0.54105 0.31717 0.0
C608 C 0.99407 0.52322 0.34324 0.0
C609 C 1.01038 0.53524 0.36823 0.0
C610 C 0.02778 0.56499 0.36717 0.0
C611 C 0.0288 0.58296 0.34116 0.0
H612 H 1.00957 0.52146 0.3884 0.0
H613 H 1.0176 0.69813 0.13643 0.0
H614 H 0.11506 0.34515 0.70641 0.0
H615 H 0.08608 0.33042 0.74042 0.0
H616 H 0.03052 0.41244 0.69915 0.0
H617 H 0.05896 0.4269 0.66519 0.0
H618 H 0.06901 0.37371 0.77979 0.0
H619 H 0.96966 0.38748 0.70198 0.0
H620 H 0.95122 0.37329 0.65156 0.0
H621 H 1.00981 0.28812 0.64956 0.0
H622 H 0.02838 0.3014 0.70008 0.0
H623 H 0.96347 0.43928 0.84144 0.0
H624 H 0.99959 0.42361 0.81699 0.0
H625 H 0.9662 0.31339 0.79552 0.0
H626 H 0.92991 0.32926 0.8203 0.0
H627 H 0.9747 0.34868 0.74874 0.0
H628 H 0.02635 0.32057 0.83797 0.0
H629 H 0.04552 0.32858 0.88895 0.0
H630 H 0.08306 0.43084 0.86949 0.0
H631 H 0.06387 0.4237 0.81837 0.0
C632 C 0.09652 0.35969 0.70436 0.0
C633 C 0.08944 0.38727 0.68298 0.0
C634 C 0.08001 0.35136 0.72394 0.0
C635 C 0.05593 0.37008 0.72234 0.0
C636 C 0.04872 0.39709 0.70069 0.0
C637 C 0.06515 0.40545 0.68125 0.0
C638 C 0.03858 0.36282 0.74369 0.0
C639 C 0.04843 0.36796 0.773 0.0
C640 C 1.0118 0.35419 0.7351 0.0
C641 C 1.00051 0.34563 0.7048 0.0
C642 C 0.97852 0.36557 0.69085 0.0
C643 C 0.96807 0.35772 0.66223 0.0
C644 C 0.97938 0.32988 0.64735 0.0
C645 C 1.00112 0.30976 0.66108 0.0
C646 C 1.01163 0.31747 0.6897 0.0
C647 C 0.96451 0.41106 0.83265 0.0
C648 C 0.94424 0.38517 0.83329 0.0
C649 C 0.98512 0.40214 0.81852 0.0
C650 C 0.98578 0.36724 0.80435 0.0
C651 C 0.96624 0.34044 0.80635 0.0
C652 C 0.9457 0.34927 0.82085 0.0
C653 C 1.00491 0.36118 0.78469 0.0
C654 C 0.99535 0.35376 0.75563 0.0
C655 C 0.032 0.36696 0.7936 0.0
C656 C 0.04357 0.37165 0.82432 0.0
C657 C 0.03854 0.34492 0.84457 0.0
C658 C 0.04944 0.34927 0.87349 0.0
C659 C 0.06551 0.38017 0.88244 0.0
C660 C 0.07066 0.40686 0.8625 0.0
C661 C 0.05981 0.40264 0.83353 0.0
H662 H 0.07401 0.38333 0.90482 0.0
H663 H 0.97127 0.32388 0.62519 0.0
H664 H 0.19533 0.7058 0.22267 0.0
H665 H 0.20715 0.76958 0.23895 0.0
H666 H 0.21187 0.80227 0.15238 0.0
H667 H 0.20075 0.73704 0.13617 0.0
H668 H 0.2546 0.82019 0.18543 0.0
H669 H 0.16718 0.84517 0.19175 0.0
H670 H 0.12331 0.83402 0.2025 0.0
H671 H 0.155 0.82756 0.29225 0.0
H672 H 0.19914 0.83809 0.28206 0.0
H673 H 0.29412 0.00127 0.25224 0.0
H674 H 0.2699 0.95197 0.22222 0.0
H675 H 0.27393 0.88022 0.29628 0.0
H676 H 0.29856 0.92936 0.32635 0.0
H677 H 0.22196 0.89217 0.2618 0.0
H678 H 0.3104 0.85835 0.2515 0.0
H679 H 0.35335 0.87135 0.23881 0.0
H680 H 0.31681 0.89882 0.15293 0.0
H681 H 0.27359 0.88652 0.16525 0.0
C682 C 0.19783 0.72704 0.20692 0.0
C683 C 0.19691 0.71684 0.17819 0.0
C684 C 0.20453 0.76365 0.21622 0.0
C685 C 0.21023 0.79111 0.19692 0.0
C686 C 0.20745 0.78165 0.16767 0.0
C687 C 0.20079 0.74462 0.15832 0.0
C688 C 0.22271 0.82715 0.20842 0.0
C689 C 0.24702 0.83655 0.20153 0.0
C690 C 0.21312 0.84844 0.22972 0.0
C691 C 0.18655 0.84233 0.23609 0.0
C692 C 0.16485 0.84116 0.21378 0.0
C693 C 0.13991 0.83497 0.21978 0.0
C694 C 0.13638 0.83006 0.24804 0.0
C695 C 0.15777 0.83141 0.27037 0.0
C696 C 0.18275 0.83757 0.26449 0.0
C697 C 0.29014 0.97471 0.26197 0.0
C698 C 0.2982 0.96892 0.29153 0.0
C699 C 0.27631 0.94669 0.24486 0.0
C700 C 0.27005 0.91263 0.2571 0.0
C701 C 0.27854 0.90645 0.28651 0.0
C702 C 0.29276 0.93426 0.30358 0.0
C703 C 0.25396 0.88385 0.23942 0.0
C704 C 0.22906 0.87614 0.24521 0.0
C705 C 0.26276 0.86464 0.21676 0.0
C706 C 0.28875 0.872 0.2094 0.0
C707 C 0.3115 0.86755 0.23 0.0
C708 C 0.3359 0.8747 0.22285 0.0
C709 C 0.3378 0.88603 0.19511 0.0
C710 C 0.31531 0.89013 0.17443 0.0
C711 C 0.29086 0.88305 0.18148 0.0
H712 H 0.35671 0.89154 0.18961 0.0
H713 H 0.11706 0.82524 0.25263 0.0
H714 H 0.78073 0.97228 0.21568 0.0
H715 H 0.80218 0.92355 0.24786 0.0
H716 H 0.72893 0.89656 0.27317 0.0
H717 H 0.70741 0.94654 0.24162 0.0
H718 H 0.76756 0.90139 0.31919 0.0
H719 H 0.75528 0.83924 0.22763 0.0
H720 H 0.75835 0.83188 0.17665 0.0
H721 H 0.84178 0.83658 0.19785 0.0
H722 H 0.83919 0.84448 0.24896 0.0
H723 H 0.78725 0.71455 0.36887 0.0
H724 H 0.77645 0.77763 0.34999 0.0
H725 H 0.85404 0.78907 0.33115 0.0
H726 H 0.86472 0.72489 0.34977 0.0
H727 H 0.81851 0.79778 0.28456 0.0
H728 H 0.82948 0.85017 0.37859 0.0
H729 H 0.82434 0.85398 0.4292 0.0
H730 H 0.7415 0.86456 0.40351 0.0
H731 H 0.74604 0.86013 0.3528 0.0
C732 C 0.76914 0.95598 0.22809 0.0
C733 C 0.74236 0.96336 0.22618 0.0
C734 C 0.78143 0.92798 0.24637 0.0
C735 C 0.76717 0.90629 0.26287 0.0
C736 C 0.74032 0.91305 0.26067 0.0
C737 C 0.72798 0.94125 0.24238 0.0
C738 C 0.7804 0.87675 0.28251 0.0
C739 C 0.77854 0.87851 0.31165 0.0
C740 C 0.79542 0.84765 0.2728 0.0
C741 C 0.79702 0.84289 0.24208 0.0
C742 C 0.77427 0.83903 0.22139 0.0
C743 C 0.77592 0.8347 0.19248 0.0
C744 C 0.80024 0.83388 0.18401 0.0
C745 C 0.82296 0.83729 0.20444 0.0
C746 C 0.82141 0.84167 0.23339 0.0
C747 C 0.80234 0.73117 0.36179 0.0
C748 C 0.82677 0.71508 0.3607 0.0
C749 C 0.79618 0.76735 0.35106 0.0
C750 C 0.81441 0.78825 0.33913 0.0
C751 C 0.83969 0.77346 0.34033 0.0
C752 C 0.8459 0.73704 0.35122 0.0
C753 C 0.80547 0.82195 0.32135 0.0
C754 C 0.80802 0.82101 0.29239 0.0
C755 C 0.79088 0.85151 0.33125 0.0
C756 C 0.78812 0.85467 0.36181 0.0
C757 C 0.81015 0.85308 0.38371 0.0
C758 C 0.80734 0.85536 0.41244 0.0
C759 C 0.78261 0.8595 0.41955 0.0
C760 C 0.76065 0.86139 0.39797 0.0
C761 C 0.76333 0.85905 0.36922 0.0
H762 H 0.78044 0.86131 0.44176 0.0
H763 H 0.80148 0.83051 0.16161 0.0
H764 H 0.66294 0.09192 0.68464 0.0
H765 H 0.6868 0.14567 0.70902 0.0
H766 H 0.71635 0.07435 0.78122 0.0
H767 H 0.69208 0.0206 0.75707 0.0
H768 H 0.70879 0.14741 0.79841 0.0
H769 H 0.75142 0.08463 0.73015 0.0
H770 H 0.75484 0.0572 0.68311 0.0
H771 H 0.74047 0.16656 0.64403 0.0
H772 H 0.73649 0.19453 0.69079 0.0
H773 H 0.82303 0.26111 0.84462 0.0
H774 H 0.79185 0.20978 0.83027 0.0
H775 H 0.76261 0.26871 0.75147 0.0
H776 H 0.79434 0.31909 0.76536 0.0
H777 H 0.77083 0.19887 0.74028 0.0
H778 H 0.72879 0.26122 0.81163 0.0
H779 H 0.72747 0.28585 0.86006 0.0
H780 H 0.74393 0.17468 0.89523 0.0
H781 H 0.74559 0.14946 0.84705 0.0
C782 C 0.674 0.08798 0.706 0.0
C783 C 0.67587 0.05205 0.71885 0.0
C784 C 0.68766 0.11864 0.71991 0.0
C785 C 0.70382 0.11379 0.74667 0.0
C786 C 0.70406 0.07871 0.76055 0.0
C787 C 0.69016 0.04804 0.74675 0.0
C788 C 0.72264 0.14384 0.75835 0.0
C789 C 0.72248 0.15858 0.78583 0.0
C790 C 0.74064 0.1582 0.74201 0.0
C791 C 0.74342 0.1416 0.71392 0.0
C792 C 0.74882 0.10278 0.71149 0.0
C793 C 0.75086 0.08714 0.68488 0.0
C794 C 0.74781 0.11011 0.66059 0.0
C795 C 0.74278 0.14879 0.66287 0.0
C796 C 0.74064 0.16456 0.68942 0.0
C797 C 0.80973 0.26314 0.82439 0.0
C798 C 0.81116 0.2939 0.806 0.0
C799 C 0.79184 0.23392 0.81624 0.0
C800 C 0.77461 0.23546 0.78988 0.0
C801 C 0.77571 0.26671 0.77186 0.0
C802 C 0.79387 0.29547 0.77975 0.0
C803 C 0.75644 0.20378 0.78 0.0
C804 C 0.75698 0.18818 0.75287 0.0
C805 C 0.73912 0.18847 0.79689 0.0
C806 C 0.73752 0.20352 0.82575 0.0
C807 C 0.73223 0.24206 0.82971 0.0
C808 C 0.7314 0.25612 0.85712 0.0
C809 C 0.73566 0.23187 0.88072 0.0
C810 C 0.74063 0.19345 0.87694 0.0
C811 C 0.74147 0.17924 0.84958 0.0
H812 H 0.73508 0.24284 0.90192 0.0
H813 H 0.74941 0.09795 0.64 0.0
H814 H 0.23818 0.30642 0.75338 0.0
H815 H 0.2713 0.25765 0.76608 0.0
H816 H 0.25856 0.21875 0.67847 0.0
H817 H 0.22474 0.26738 0.66569 0.0
H818 H 0.25864 0.16068 0.71576 0.0
H819 H 0.31486 0.26355 0.70609 0.0
H820 H 0.33207 0.3285 0.71294 0.0
H821 H 0.3508 0.31054 0.80372 0.0
H822 H 0.33336 0.24565 0.79749 0.0
H823 H 0.35477 0.02208 0.76418 0.0
H824 H 0.33516 0.07618 0.73606 0.0
H825 H 0.337 0.14066 0.81375 0.0
H826 H 0.35754 0.08742 0.84179 0.0
H827 H 0.34655 0.18571 0.77206 0.0
H828 H 0.28265 0.0892 0.78234 0.0
H829 H 0.2642 0.02481 0.77679 0.0
H830 H 0.25909 0.03187 0.68563 0.0
H831 H 0.27785 0.09615 0.69071 0.0
C832 C 0.24239 0.28755 0.73677 0.0
C833 C 0.22867 0.29061 0.70856 0.0
C834 C 0.26158 0.25992 0.744 0.0
C835 C 0.26766 0.23476 0.72318 0.0
C836 C 0.2543 0.23802 0.69485 0.0
C837 C 0.23509 0.2659 0.68754 0.0
C838 C 0.2867 0.20367 0.73179 0.0
C839 C 0.27812 0.16614 0.72742 0.0
C840 C 0.31196 0.21077 0.74744 0.0
C841 C 0.32267 0.24974 0.75131 0.0
C842 C 0.3225 0.27351 0.72754 0.0
C843 C 0.33232 0.31032 0.73131 0.0
C844 C 0.3425 0.32366 0.75875 0.0
C845 C 0.34292 0.30017 0.78247 0.0
C846 C 0.33311 0.26334 0.77883 0.0
C847 C 0.35167 0.04814 0.77521 0.0
C848 C 0.35739 0.05023 0.80529 0.0
C849 C 0.34021 0.07893 0.75911 0.0
C850 C 0.33406 0.11224 0.77282 0.0
C851 C 0.34137 0.11522 0.80266 0.0
C852 C 0.35291 0.0846 0.81871 0.0
C853 C 0.31819 0.14287 0.75673 0.0
C854 C 0.32733 0.18027 0.75976 0.0
C855 C 0.29336 0.13572 0.73999 0.0
C856 C 0.28193 0.09723 0.73693 0.0
C857 C 0.27775 0.07689 0.76114 0.0
C858 C 0.26723 0.04044 0.75807 0.0
C859 C 0.26056 0.02421 0.73088 0.0
C860 C 0.26432 0.04444 0.70669 0.0
C861 C 0.2749 0.08088 0.70964 0.0
H862 H 0.25241 0.99598 0.72855 0.0
H863 H 0.35009 0.35217 0.76162 0.0
H864 H 0.76127 0.46104 0.32522 0.0
H865 H 0.7391 0.41358 0.29227 0.0
H866 H 0.80751 0.402 0.25345 0.0
H867 H 0.82951 0.45081 0.2857 0.0
H868 H 0.76436 0.40689 0.21321 0.0
H869 H 0.79108 0.33469 0.29919 0.0
H870 H 0.79486 0.32001 0.35054 0.0
H871 H 0.71156 0.3148 0.34118 0.0
H872 H 0.70727 0.32996 0.28982 0.0
H873 H 0.74952 0.22318 0.15387 0.0
H874 H 0.75888 0.28582 0.17475 0.0
H875 H 0.68502 0.2858 0.20378 0.0
H876 H 0.67568 0.22259 0.18272 0.0
H877 H 0.72526 0.29171 0.24735 0.0
H878 H 0.69952 0.35564 0.15884 0.0
H879 H 0.69707 0.36804 0.10734 0.0
H880 H 0.77965 0.38648 0.12084 0.0
H881 H 0.78269 0.37367 0.17237 0.0
C882 C 0.77165 0.44836 0.3097 0.0
C883 C 0.79716 0.45977 0.30805 0.0
C884 C 0.75898 0.42106 0.29097 0.0
C885 C 0.77165 0.4041 0.27043 0.0
C886 C 0.79733 0.41479 0.26909 0.0
C887 C 0.81001 0.4423 0.28779 0.0
C888 C 0.75798 0.37551 0.25019 0.0
C889 C 0.756 0.3815 0.22063 0.0
C890 C 0.74631 0.34304 0.25987 0.0
C891 C 0.74885 0.33388 0.29074 0.0
C892 C 0.77356 0.33073 0.30814 0.0
C893 C 0.7758 0.32226 0.33723 0.0
C894 C 0.75346 0.31659 0.34913 0.0
C895 C 0.72884 0.31927 0.33194 0.0
C896 C 0.7265 0.32777 0.30284 0.0
C897 C 0.73472 0.23744 0.16341 0.0
C898 C 0.71184 0.21842 0.16657 0.0
C899 C 0.74008 0.27325 0.1754 0.0
C900 C 0.7227 0.29053 0.19094 0.0
C901 C 0.69867 0.273 0.19181 0.0
C902 C 0.69318 0.23715 0.1795 0.0
C903 C 0.73187 0.32274 0.21027 0.0
C904 C 0.73315 0.3174 0.23979 0.0
C905 C 0.74306 0.35557 0.20051 0.0
C906 C 0.74134 0.36347 0.1695 0.0
C907 C 0.71719 0.36207 0.15082 0.0
C908 C 0.71569 0.36922 0.12161 0.0
C909 C 0.73819 0.37799 0.11082 0.0
C910 C 0.76223 0.3797 0.12923 0.0
C911 C 0.76385 0.37256 0.15846 0.0
H912 H 0.73699 0.38351 0.0882 0.0
H913 H 0.75524 0.31002 0.37166 0.0
H914 H 0.22008 0.4221 0.20492 0.0
H915 H 0.24164 0.37458 0.23873 0.0
H916 H 0.27645 0.46358 0.29519 0.0
H917 H 0.25505 0.51096 0.26163 0.0
H918 H 0.31203 0.41256 0.28855 0.0
H919 H 0.22704 0.41077 0.31223 0.0
H920 H 0.1791 0.40671 0.30309 0.0
H921 H 0.18325 0.29436 0.26928 0.0
H922 H 0.23122 0.29794 0.27785 0.0
H923 H 0.31302 0.22907 0.38606 0.0
H924 H 0.29866 0.29375 0.37258 0.0
H925 H 0.33894 0.28796 0.30069 0.0
H926 H 0.3534 0.22377 0.31442 0.0
H927 H 0.2661 0.30511 0.32448 0.0
H928 H 0.35036 0.37361 0.27638 0.0
H929 H 0.39814 0.37955 0.28833 0.0
H930 H 0.39541 0.36291 0.37733 0.0
H931 H 0.34759 0.3574 0.36601 0.0
C932 C 0.23208 0.43144 0.2247 0.0
C933 C 0.2361 0.47021 0.23046 0.0
C934 C 0.24439 0.40433 0.244 0.0
C935 C 0.26065 0.41556 0.26953 0.0
C936 C 0.26418 0.45426 0.27556 0.0
C937 C 0.25198 0.48128 0.2563 0.0
C938 C 0.27472 0.38704 0.28949 0.0
C939 C 0.302 0.38915 0.29656 0.0
C940 C 0.26159 0.35711 0.30059 0.0
C941 C 0.23273 0.35475 0.2955 0.0
C942 C 0.21773 0.3853 0.30266 0.0
C943 C 0.19055 0.38307 0.29761 0.0
C944 C 0.17814 0.35033 0.28556 0.0
C945 C 0.19289 0.31972 0.2786 0.0
C946 C 0.22008 0.32181 0.28358 0.0
C947 C 0.31998 0.24256 0.3684 0.0
C948 C 0.3347 0.22201 0.35156 0.0
C949 C 0.31151 0.27928 0.36047 0.0
C950 C 0.31766 0.29575 0.33557 0.0
C951 C 0.33429 0.27625 0.32023 0.0
C952 C 0.34269 0.23962 0.32816 0.0
C953 C 0.30352 0.32993 0.32286 0.0
C954 C 0.27617 0.32883 0.31695 0.0
C955 C 0.31658 0.36109 0.31324 0.0
C956 C 0.34536 0.36487 0.32029 0.0
C957 C 0.35992 0.37145 0.29853 0.0
C958 C 0.38703 0.37468 0.30519 0.0
C959 C 0.3998 0.37153 0.33356 0.0
C960 C 0.3855 0.36523 0.35535 0.0
C961 C 0.35839 0.36198 0.34881 0.0
H962 H 0.42079 0.37402 0.33867 0.0
H963 H 0.15709 0.34866 0.28167 0.0
H964 H 0.22946 0.54329 0.68674 0.0
H965 H 0.25042 0.60007 0.70898 0.0
H966 H 0.20907 0.58791 0.7795 0.0
H967 H 0.18863 0.52982 0.75776 0.0
H968 H 0.23173 0.66546 0.72067 0.0
H969 H 0.24778 0.62449 0.84056 0.0
H970 H 0.25476 0.56727 0.87073 0.0
H971 H 0.28672 0.50919 0.80518 0.0
H972 H 0.28029 0.5662 0.77483 0.0
H973 H 0.26987 0.82949 0.80182 0.0
H974 H 0.24766 0.77064 0.78519 0.0
H975 H 0.32042 0.70982 0.80566 0.0
H976 H 0.34267 0.76874 0.82276 0.0
H977 H 0.28226 0.66842 0.81961 0.0
H978 H 0.29578 0.73744 0.73661 0.0
H979 H 0.29335 0.79273 0.70459 0.0
H980 H 0.20983 0.79054 0.69259 0.0
H981 H 0.21178 0.73552 0.72486 0.0
C982 C 0.22504 0.55228 0.7072 0.0
C983 C 0.20758 0.53165 0.72064 0.0
C984 C 0.23687 0.58505 0.71975 0.0
C985 C 0.23153 0.59816 0.74604 0.0
C986 C 0.21377 0.57807 0.75938 0.0
C987 C 0.20192 0.54507 0.74681 0.0
C988 C 0.24449 0.63309 0.75904 0.0
C989 C 0.24266 0.66609 0.74237 0.0
C990 C 0.25915 0.63387 0.78717 0.0
C991 C 0.26323 0.59947 0.8053 0.0
C992 C 0.25634 0.59952 0.83262 0.0
C993 C 0.26021 0.56713 0.84975 0.0
C994 C 0.27108 0.53456 0.83982 0.0
C995 C 0.27819 0.53437 0.81279 0.0
C996 C 0.27441 0.5667 0.7956 0.0
C997 C 0.28114 0.8036 0.80273 0.0
C998 C 0.30808 0.80381 0.81329 0.0
C999 C 0.26842 0.76995 0.79327 0.0
C1000 C 0.28243 0.73586 0.79371 0.0
C1001 C 0.30919 0.73575 0.8051 0.0
C1002 C 0.3219 0.76941 0.81486 0.0
C1003 C 0.26935 0.70073 0.78125 0.0
C1004 C 0.27113 0.66779 0.79801 0.0
C1005 C 0.25517 0.69966 0.7529 0.0
C1006 C 0.25394 0.73261 0.73337 0.0
C1007 C 0.2769 0.74892 0.7273 0.0
C1008 C 0.27562 0.78018 0.70908 0.0
C1009 C 0.25146 0.7952 0.69662 0.0
C1010 C 0.22853 0.77891 0.70229 0.0
C1011 C 0.22972 0.74767 0.72052 0.0
H1012 H 0.2505 0.8194 0.68253 0.0
H1013 H 0.27405 0.50952 0.85311 0.0
H1014 H 0.73806 0.83443 0.7685 0.0
H1015 H 0.7635 0.77809 0.78536 0.0
H1016 H 0.73268 0.72032 0.70652 0.0
H1017 H 0.7076 0.77665 0.68924 0.0
H1018 H 0.73254 0.67552 0.75372 0.0
H1019 H 0.79286 0.75483 0.7161 0.0
H1020 H 0.81679 0.81378 0.71098 0.0
H1021 H 0.85165 0.80943 0.79995 0.0
H1022 H 0.82761 0.7507 0.8057 0.0
H1023 H 0.81846 0.52021 0.76969 0.0
H1024 H 0.79622 0.57817 0.75061 0.0
H1025 H 0.82994 0.63824 0.8275 0.0
H1026 H 0.8525 0.58032 0.84658 0.0
H1027 H 0.82878 0.68215 0.78096 0.0
H1028 H 0.7681 0.6037 0.81895 0.0
H1029 H 0.74412 0.54489 0.8244 0.0
H1030 H 0.70966 0.54804 0.73528 0.0
H1031 H 0.73376 0.6066 0.7292 0.0
C1032 C 0.73675 0.80982 0.75468 0.0
C1033 C 0.72077 0.81024 0.72748 0.0
C1034 C 0.7513 0.77763 0.76437 0.0
C1035 C 0.75019 0.74517 0.74706 0.0
C1036 C 0.73379 0.74507 0.72023 0.0
C1037 C 0.71931 0.77731 0.71046 0.0
C1038 C 0.76623 0.71137 0.75691 0.0
C1039 C 0.75361 0.67684 0.75931 0.0
C1040 C 0.79367 0.71334 0.76481 0.0
C1041 C 0.80823 0.74857 0.76139 0.0
C1042 C 0.80546 0.76661 0.73463 0.0
C1043 C 0.81907 0.79995 0.7316 0.0
C1044 C 0.83568 0.81539 0.75514 0.0
C1045 C 0.83875 0.79746 0.78174 0.0
C1046 C 0.82515 0.76413 0.7849 0.0
C1047 C 0.8213 0.54587 0.78242 0.0
C1048 C 0.83703 0.54567 0.80974 0.0
C1049 C 0.80856 0.57894 0.77152 0.0
C1050 C 0.81097 0.61234 0.78789 0.0
C1051 C 0.82771 0.61275 0.81456 0.0
C1052 C 0.84065 0.57968 0.8254 0.0
C1053 C 0.79509 0.64625 0.77775 0.0
C1054 C 0.80772 0.68082 0.77534 0.0
C1055 C 0.76762 0.64437 0.76991 0.0
C1056 C 0.75293 0.60934 0.77357 0.0
C1057 C 0.75555 0.59171 0.80047 0.0
C1058 C 0.74192 0.55843 0.80368 0.0
C1059 C 0.72542 0.54268 0.78019 0.0
C1060 C 0.72247 0.56024 0.75345 0.0
C1061 C 0.7361 0.59349 0.75011 0.0
H1062 H 0.71489 0.51692 0.78271 0.0
H1063 H 0.84621 0.84121 0.75275 0.0
H1064 H 0.41766 0.0997 0.41095 0.0
H1065 H 0.45795 0.08399 0.44393 0.0
H1066 H 0.41805 0.99479 0.48045 0.0
H1067 H 0.37779 0.01072 0.44816 0.0
H1068 H 0.44881 0.03317 0.52168 0.0
H1069 H 0.45792 0.9766 0.43078 0.0
H1070 H 0.45828 0.97877 0.37889 0.0
H1071 H 0.52106 0.0588 0.39319 0.0
H1072 H 0.52086 0.05745 0.44516 0.0
H1073 H 0.55747 0.92451 0.59144 0.0
H1074 H 0.51695 0.94815 0.56235 0.0
H1075 H 0.56088 0.03033 0.52355 0.0
H1076 H 0.60117 0.0061 0.55194 0.0
H1077 H 0.52836 0.99843 0.48366 0.0
H1078 H 0.52111 0.05441 0.57389 0.0
H1079 H 0.52039 0.05568 0.6257 0.0
H1080 H 0.4546 0.98089 0.61314 0.0
H1081 H 0.45514 0.97875 0.56128 0.0
C1082 C 0.41747 0.07679 0.42603 0.0
C1083 C 0.39449 0.05637 0.42677 0.0
C1084 C 0.44053 0.06777 0.44484 0.0
C1085 C 0.44113 0.03789 0.46451 0.0
C1086 C 0.41811 0.01794 0.46553 0.0
C1087 C 0.39509 0.02703 0.44689 0.0
C1088 C 0.46572 0.02669 0.4837 0.0
C1089 C 0.46615 0.02521 0.51337 0.0
C1090 C 0.48856 0.01723 0.47296 0.0
C1091 C 0.48922 0.01717 0.44182 0.0
C1092 C 0.47174 0.99476 0.42284 0.0
C1093 C 0.47191 0.99585 0.39342 0.0
C1094 C 0.48963 0.019 0.38274 0.0
C1095 C 0.50733 0.04093 0.40149 0.0
C1096 C 0.50722 0.03997 0.43093 0.0
C1097 C 0.55832 0.94796 0.57699 0.0
C1098 C 0.58244 0.9633 0.57381 0.0
C1099 C 0.53519 0.96152 0.56037 0.0
C1100 C 0.53575 0.99122 0.54072 0.0
C1101 C 0.55985 0.00724 0.53829 0.0
C1102 C 0.58289 0.9934 0.55456 0.0
C1103 C 0.51152 0.00469 0.5218 0.0
C1104 C 0.51112 0.00653 0.49211 0.0
C1105 C 0.48878 0.0148 0.53256 0.0
C1106 C 0.48833 0.01614 0.56373 0.0
C1107 C 0.50661 0.03801 0.5822 0.0
C1108 C 0.50621 0.03892 0.61157 0.0
C1109 C 0.4875 0.0183 0.62271 0.0
C1110 C 0.4691 0.99681 0.60449 0.0
C1111 C 0.46943 0.99576 0.57509 0.0
H1112 H 0.48723 0.01904 0.64546 0.0
H1113 H 0.48969 0.01989 0.35995 0.0
H1114 H 0.66227 0.00936 0.0723 0.0
H1115 H 0.62249 0.99427 0.03909 0.0
H1116 H 0.5814 0.08144 0.07704 0.0
H1117 H 0.62135 0.09645 0.11096 0.0
H1118 H 0.5533 0.01799 0.06901 0.0
H1119 H 0.5991 0.09356 1.0111 0.0
H1120 H 0.63648 0.11322 0.98934 0.0
H1121 H 0.6356 0.00598 0.9463 0.0
H1122 H 0.59844 0.98542 0.96815 0.0
H1123 H 0.4407 0.01854 0.96417 0.0
H1124 H 0.48221 0.03902 0.99189 0.0
H1125 H 0.52067 0.94427 0.95954 0.0
H1126 H 0.47871 0.92336 0.93159 0.0
H1127 H 0.55015 0.01212 0.96392 0.0
H1128 H 0.50461 0.93673 0.02318 0.0
H1129 H 0.46692 0.9182 0.04484 0.0
H1130 H 0.46727 0.02716 0.08532 0.0
H1131 H 0.50473 0.04657 0.06352 0.0
C1132 C 0.64484 0.0255 0.07365 0.0
C1133 C 0.64507 0.05424 0.09433 0.0
C1134 C 0.62209 0.01693 0.05444 0.0
C1135 C 0.59899 0.03707 0.05519 0.0
C1136 C 0.59903 0.06562 0.07594 0.0
C1137 C 0.62187 0.07422 0.09529 0.0
C1138 C 0.57473 0.02733 0.03485 0.0
C1139 C 0.55253 0.01734 0.04602 0.0
C1140 C 0.57385 0.02548 1.00482 0.0
C1141 C 0.59612 0.03782 0.99149 0.0
C1142 C 0.607 0.07404 0.99717 0.0
C1143 C 0.62813 0.08537 0.98479 0.0
C1144 C 0.63845 0.06083 0.96651 0.0
C1145 C 0.62761 0.02494 0.9605 0.0
C1146 C 0.60649 0.01345 0.97286 0.0
C1147 C 0.45798 0.00209 0.96281 0.0
C1148 C 0.45634 0.96888 0.94612 0.0
C1149 C 0.48172 0.01391 0.97863 0.0
C1150 C 0.50445 0.99276 0.97829 0.0
C1151 C 0.5033 0.96089 0.96024 0.0
C1152 C 0.47939 0.94901 0.94425 0.0
C1153 C 0.52884 0.00293 0.99816 0.0
C1154 C 0.551 0.0129 0.98692 0.0
C1155 C 0.52971 0.00494 0.02815 0.0
C1156 C 0.50732 0.99322 0.04149 0.0
C1157 C 0.49653 0.95684 0.03652 0.0
C1158 C 0.47522 0.94617 0.04885 0.0
C1159 C 0.46467 0.97152 0.06639 0.0
C1160 C 0.47545 0.00757 0.0717 0.0
C1161 C 0.49673 0.01841 0.05938 0.0
H1162 H 0.44817 0.9632 0.07592 0.0
H1163 H 0.65482 0.06966 0.95695 0.0
H1164 H 0.1167 0.50195 0.53993 0.0
H1165 H 0.07748 0.51991 0.50637 0.0
H1166 H 0.03258 0.44074 0.54655 0.0
H1167 H 0.07179 0.42278 0.58036 0.0
H1168 H 1.0183 0.44005 0.48811 0.0
H1169 H 0.03315 0.53458 0.56332 0.0
H1170 H 0.05901 0.58276 0.59352 0.0
H1171 H 0.06571 0.64751 0.51872 0.0
H1172 H 0.04018 0.59941 0.48804 0.0
H1173 H 0.89061 0.50742 0.45323 0.0
H1174 H 0.93394 0.48965 0.47755 0.0
H1175 H 0.96761 0.57554 0.43105 0.0
H1176 H 0.92385 0.59406 0.40662 0.0
H1177 H 0.99006 0.57448 0.48765 0.0
H1178 H 0.97252 0.48414 0.41249 0.0
H1179 H 0.94685 0.43671 0.3814 0.0
H1180 H 0.94587 0.36481 0.45403 0.0
H1181 H 0.97126 0.41206 0.48565 0.0
C1182 C 0.09851 0.48827 0.54163 0.0
C1183 C 0.09739 0.46119 0.56309 0.0
C1184 C 0.07609 0.49856 0.52237 0.0
C1185 C 0.05197 0.48218 0.52423 0.0
C1186 C 0.05096 0.45384 0.54474 0.0
C1187 C 0.07343 0.44347 0.56401 0.0
C1188 C 0.02764 0.49564 0.50561 0.0
C1189 C 1.01202 0.46937 0.48819 0.0
C1190 C 0.01984 0.53418 0.50492 0.0
C1191 C 0.035 0.56322 0.52338 0.0
C1192 C 0.0403 0.55896 0.5533 0.0
C1193 C 0.05487 0.58627 0.57051 0.0
C1194 C 0.06406 0.61813 0.55804 0.0
C1195 C 0.05862 0.62279 0.52834 0.0
C1196 C 0.04409 0.59553 0.51104 0.0
C1197 C 0.90713 0.52269 0.44806 0.0
C1198 C 0.90366 0.55209 0.42777 0.0
C1199 C 0.93199 0.51229 0.46195 0.0
C1200 C 0.95411 0.53076 0.45581 0.0
C1201 C 0.95081 0.56072 0.43602 0.0
C1202 C 0.9258 0.57124 0.42204 0.0
C1203 C 0.98046 0.51874 0.47057 0.0
C1204 C 0.99647 0.54525 0.48728 0.0
C1205 C 0.98873 0.48048 0.47043 0.0
C1206 C 0.97365 0.45178 0.45148 0.0
C1207 C 0.9667 0.45833 0.42187 0.0
C1208 C 0.95221 0.43146 0.40415 0.0
C1209 C 0.94469 0.3978 0.41574 0.0
C1210 C 0.95171 0.3909 0.44508 0.0
C1211 C 0.96618 0.4177 0.46292 0.0
H1212 H 0.93346 0.37703 0.40198 0.0
H1213 H 0.07534 0.63924 0.57139 0.0
H1214 H 0.11267 0.6014 0.11122 0.0
H1215 H 0.07102 0.58621 0.08035 0.0
H1216 H 0.10541 0.48577 0.05059 0.0
H1217 H 0.14684 0.50105 0.0806 0.0
H1218 H 0.07774 0.52002 1.0071 0.0
H1219 H 0.06461 0.4842 0.10098 0.0
H1220 H 0.06192 0.49258 0.15197 0.0
H1221 H 1.00173 0.57596 0.12976 0.0
H1222 H 1.00452 0.56886 0.07866 0.0
H1223 H 0.96412 0.41571 0.94691 0.0
H1224 H 1.00461 0.43665 0.97698 0.0
H1225 H 0.96689 0.53963 0.99691 0.0
H1226 H 0.92662 0.51946 0.96662 0.0
H1227 H 0.99534 0.50779 0.04468 0.0
H1228 H 1.00728 0.53902 0.94955 0.0
H1229 H 1.00945 0.52666 0.89888 0.0
H1230 H 0.07243 0.44841 0.92409 0.0
H1231 H 0.07006 0.45924 0.97486 0.0
C1232 C 0.11132 0.57614 0.09805 0.0
C1233 C 0.13315 0.5525 0.09842 0.0
C1234 C 0.08747 0.56737 0.0805 0.0
C1235 C 0.08496 0.53464 0.06322 0.0
C1236 C 0.10679 0.51123 0.06358 0.0
C1237 C 0.13053 0.52001 0.08091 0.0
C1238 C 0.05983 0.52444 0.04455 0.0
C1239 C 0.05979 0.51698 0.01542 0.0
C1240 C 0.03621 0.52124 0.05519 0.0
C1241 C 0.03501 0.52633 0.08599 0.0
C1242 C 0.05106 0.50473 0.10698 0.0
C1243 C 0.0495 0.50924 0.13591 0.0
C1244 C 0.03174 0.5349 0.1441 0.0
C1245 C 1.01559 0.55627 0.12339 0.0
C1246 C 1.01717 0.55204 0.09445 0.0
C1247 C 0.96443 0.44296 0.95742 0.0
C1248 C 0.94188 0.46573 0.95424 0.0
C1249 C 0.98763 0.45487 0.97471 0.0
C1250 C 0.98883 0.48983 0.98913 0.0
C1251 C 0.9664 0.51248 0.98613 0.0
C1252 C 0.94328 0.50072 0.96881 0.0
C1253 C 1.01341 0.50287 1.00741 0.0
C1254 C 1.0133 0.51098 0.03639 0.0
C1255 C 0.03695 0.50632 0.99671 0.0
C1256 C 0.03826 0.49961 0.96607 0.0
C1257 C 0.02136 0.51877 0.9443 0.0
C1258 C 0.02261 0.512 0.91553 0.0
C1259 C 0.04093 0.48652 0.90823 0.0
C1260 C 0.05807 0.46784 0.92971 0.0
C1261 C 0.05677 0.47426 0.95851 0.0
H1262 H 0.04192 0.48137 0.88595 0.0
H1263 H 0.03032 0.53799 0.16645 0.0
loop_
_geom_bond_atom_site_label_1
_geom_bond_atom_site_label_2
_geom_bond_distance
_geom_bond_site_symmetry_2
_ccdc_geom_bond_type
C0 C1 1.351 . S
C0 N3 1.368 . S
C0 H5 0.931 . S
C1 C0 1.351 . S
C1 N2 1.373 . S
C1 H29 0.930 . S
N2 C1 1.373 . S
N2 C4 1.340 . S
N3 C0 1.368 . S
N3 C4 1.321 . S
N3 Co6 2.135 . S
C4 N2 1.340 . S
C4 N3 1.321 . S
C4 H28 0.930 . S
H5 C0 0.931 . S
Co6 N3 2.135 . S
Co6 N9 2.121 . S
Co6 O14 2.055 . S
Co6 O17 2.039 . S
Co6 N20 2.140 . S
C7 O8 1.227 . S
C7 O17 1.265 . S
O8 C7 1.227 . S
N9 Co6 2.121 . S
N9 C11 1.375 . S
N9 C12 1.313 . S
C10 C11 1.338 . S
C10 N13 1.377 . S
C10 H30 0.930 . S
C11 N9 1.375 . S
C11 C10 1.338 . S
C11 H15 0.931 . S
C12 N9 1.313 . S
C12 N13 1.344 . S
C12 H16 0.930 . S
N13 C10 1.377 . S
N13 C12 1.344 . S
O14 Co6 2.055 . S
O14 C18 1.253 . S
H15 C11 0.931 . S
H16 C12 0.930 . S
O17 Co6 2.039 . S
O17 C7 1.265 . S
C18 O14 1.253 . S
C18 O19 1.227 . S
O19 C18 1.227 . S
N20 Co6 2.140 . S
N20 C23 1.346 . S
N20 C24 1.345 . S
C21 C22 1.387 . S
C21 C25 1.391 . S
C22 C21 1.387 . S
C22 C23 1.369 . S
C22 H31 0.929 . S
C23 N20 1.346 . S
C23 C22 1.369 . S
C23 H26 0.928 . S
C24 N20 1.345 . S
C24 C25 1.371 . S
C24 H27 0.931 . S
C25 C21 1.391 . S
C25 C24 1.371 . S
C25 H32 0.930 . S
H26 C23 0.928 . S
H27 C24 0.931 . S
H28 C4 0.930 . S
H29 C1 0.930 . S
H30 C10 0.930 . S
H31 C22 0.929 . S
H32 C25 0.930 . S
C33 C34 1.351 . S
C33 N36 1.368 . S
C33 H38 0.931 . S
C34 C33 1.351 . S
C34 N35 1.373 . S
C34 H62 0.930 . S
N35 C34 1.373 . S
N35 C37 1.340 . S
N36 C33 1.368 . S
N36 C37 1.321 . S
N36 Co39 2.135 . S
C37 N35 1.340 . S
C37 N36 1.321 . S
C37 H61 0.930 . S
H38 C33 0.931 . S
Co39 N36 2.135 . S
Co39 N42 2.121 . S
Co39 O47 2.055 . S
Co39 O50 2.039 . S
Co39 N53 2.140 . S
C40 O41 1.227 . S
C40 O50 1.265 . S
O41 C40 1.227 . S
N42 Co39 2.121 . S
N42 C44 1.375 . S
N42 C45 1.313 . S
C43 C44 1.338 . S
C43 N46 1.377 . S
C43 H63 0.930 . S
C44 N42 1.375 . S
C44 C43 1.338 . S
C44 H48 0.931 . S
C45 N42 1.313 . S
C45 N46 1.344 . S
C45 H49 0.930 . S
N46 C43 1.377 . S
N46 C45 1.344 . S
O47 Co39 2.055 . S
O47 C51 1.253 . S
H48 C44 0.931 . S
H49 C45 0.930 . S
O50 Co39 2.039 . S
O50 C40 1.265 . S
C51 O47 1.253 . S
C51 O52 1.227 . S
O52 C51 1.227 . S
N53 Co39 2.140 . S
N53 C56 1.346 . S
N53 C57 1.345 . S
C54 C55 1.387 . S
C54 C58 1.391 . S
C55 C54 1.387 . S
C55 C56 1.369 . S
C55 H64 0.929 . S
C56 N53 1.346 . S
C56 C55 1.369 . S
C56 H59 0.928 . S
C57 N53 1.345 . S
C57 C58 1.371 . S
C57 H60 0.931 . S
C58 C54 1.391 . S
C58 C57 1.371 . S
C58 H65 0.930 . S
H59 C56 0.928 . S
H60 C57 0.931 . S
H61 C37 0.930 . S
H62 C34 0.930 . S
H63 C43 0.930 . S
H64 C55 0.929 . S
H65 C58 0.930 . S
C66 C67 1.351 . S
C66 N69 1.368 . S
C66 H71 0.931 . S
C67 C66 1.351 . S
C67 N68 1.373 . S
C67 H95 0.930 . S
N68 C67 1.373 . S
N68 C70 1.340 . S
N69 C66 1.368 . S
N69 C70 1.321 . S
N69 Co72 2.135 . S
C70 N68 1.340 . S
C70 N69 1.321 . S
C70 H94 0.930 . S
H71 C66 0.931 . S
Co72 N69 2.135 . S
Co72 N75 2.121 . S
Co72 O80 2.055 . S
Co72 O83 2.039 . S
Co72 N86 2.140 . S
C73 O74 1.227 . S
C73 O83 1.265 . S
O74 C73 1.227 . S
N75 Co72 2.121 . S
N75 C77 1.375 . S
N75 C78 1.313 . S
C76 C77 1.338 . S
C76 N79 1.377 . S
C76 H96 0.930 . S
C77 N75 1.375 . S
C77 C76 1.338 . S
C77 H81 0.931 . S
C78 N75 1.313 . S
C78 N79 1.344 . S
C78 H82 0.930 . S
N79 C76 1.377 . S
N79 C78 1.344 . S
O80 Co72 2.055 . S
O80 C84 1.253 . S
H81 C77 0.931 . S
H82 C78 0.930 . S
O83 Co72 2.039 . S
O83 C73 1.265 . S
C84 O80 1.253 . S
C84 O85 1.227 . S
O85 C84 1.227 . S
N86 Co72 2.140 . S
N86 C89 1.346 . S
N86 C90 1.345 . S
C87 C88 1.387 . S
C87 C91 1.391 . S
C88 C87 1.387 . S
C88 C89 1.369 . S
C88 H97 0.929 1_565 S
C89 N86 1.346 . S
C89 C88 1.369 . S
C89 H92 0.928 . S
C90 N86 1.345 . S
C90 C91 1.371 . S
C90 H93 0.931 . S
C91 C87 1.391 . S
C91 C90 1.371 . S
C91 H98 0.930 . S
H92 C89 0.928 . S
H93 C90 0.931 . S
H94 C70 0.930 . S
H95 C67 0.930 . S
H96 C76 0.930 . S
H97 C88 0.929 1_545 S
H98 C91 0.930 . S
C99 C100 1.351 . S
C99 N102 1.368 . S
C99 H104 0.931 . S
C100 C99 1.351 . S
C100 N101 1.373 . S
C100 H128 0.930 . S
N101 C100 1.373 . S
N101 C103 1.340 . S
N102 C99 1.368 . S
N102 C103 1.321 . S
N102 Co105 2.135 . S
C103 N101 1.340 . S
C103 N102 1.321 . S
C103 H127 0.930 . S
H104 C99 0.931 . S
Co105 N102 2.135 . S
Co105 N108 2.121 . S
Co105 O113 2.055 . S
Co105 O116 2.039 . S
Co105 N119 2.140 . S
C106 O107 1.227 . S
C106 O116 1.265 . S
O107 C106 1.227 . S
N108 Co105 2.121 . S
N108 C110 1.375 . S
N108 C111 1.313 . S
C109 C110 1.338 . S
C109 N112 1.377 . S
C109 H129 0.930 . S
C110 N108 1.375 . S
C110 C109 1.338 . S
C110 H114 0.931 . S
C111 N108 1.313 . S
C111 N112 1.344 . S
C111 H115 0.930 . S
N112 C109 1.377 . S
N112 C111 1.344 . S
O113 Co105 2.055 . S
O113 C117 1.253 . S
H114 C110 0.931 . S
H115 C111 0.930 . S
O116 Co105 2.039 . S
O116 C106 1.265 . S
C117 O113 1.253 . S
C117 O118 1.227 . S
O118 C117 1.227 . S
N119 Co105 2.140 . S
N119 C122 1.346 . S
N119 C123 1.345 . S
C120 C121 1.387 . S
C120 C124 1.391 . S
C121 C120 1.387 . S
C121 C122 1.369 . S
C121 H130 0.929 1_565 S
C122 N119 1.346 . S
C122 C121 1.369 . S
C122 H125 0.928 . S
C123 N119 1.345 . S
C123 C124 1.371 . S
C123 H126 0.931 . S
C124 C120 1.391 . S
C124 C123 1.371 . S
C124 H131 0.930 . S
H125 C122 0.928 . S
H126 C123 0.931 . S
H127 C103 0.930 . S
H128 C100 0.930 . S
H129 C109 0.930 . S
H130 C121 0.929 1_545 S
H131 C124 0.930 . S
C132 C133 1.351 . S
C132 N135 1.368 . S
C132 H137 0.931 . S
C133 C132 1.351 . S
C133 N134 1.373 . S
C133 H161 0.930 . S
N134 C133 1.373 . S
N134 C136 1.340 . S
N135 C132 1.368 . S
N135 C136 1.321 . S
N135 Co138 2.135 . S
C136 N134 1.340 . S
C136 N135 1.321 . S
C136 H160 0.930 . S
H137 C132 0.931 . S
Co138 N135 2.135 . S
Co138 N141 2.121 . S
Co138 O146 2.055 . S
Co138 O149 2.039 . S
Co138 N152 2.140 . S
C139 O140 1.227 . S
C139 O149 1.265 . S
O140 C139 1.227 . S
N141 Co138 2.121 . S
N141 C143 1.375 . S
N141 C144 1.313 . S
C142 C143 1.338 . S
C142 N145 1.377 . S
C142 H162 0.930 . S
C143 N141 1.375 . S
C143 C142 1.338 . S
C143 H147 0.931 . S
C144 N141 1.313 . S
C144 N145 1.344 . S
C144 H148 0.930 . S
N145 C142 1.377 . S
N145 C144 1.344 . S
O146 Co138 2.055 . S
O146 C150 1.253 . S
H147 C143 0.931 . S
H148 C144 0.930 . S
O149 Co138 2.039 . S
O149 C139 1.265 . S
C150 O146 1.253 . S
C150 O151 1.227 . S
O151 C150 1.227 . S
N152 Co138 2.140 . S
N152 C155 1.346 . S
N152 C156 1.345 . S
C153 C154 1.387 . S
C153 C157 1.391 . S
C154 C153 1.387 . S
C154 C155 1.369 . S
C154 H163 0.929 . S
C155 N152 1.346 . S
C155 C154 1.369 . S
C155 H158 0.928 . S
C156 N152 1.345 . S
C156 C157 1.371 . S
C156 H159 0.931 . S
C157 C153 1.391 . S
C157 C156 1.371 . S
C157 H164 0.930 . S
H158 C155 0.928 . S
H159 C156 0.931 . S
H160 C136 0.930 . S
H161 C133 0.930 . S
H162 C142 0.930 . S
H163 C154 0.929 . S
H164 C157 0.930 . S
C165 C166 1.351 . S
C165 N168 1.368 . S
C165 H170 0.931 . S
C166 C165 1.351 . S
C166 N167 1.373 . S
C166 H194 0.930 . S
N167 C166 1.373 . S
N167 C169 1.340 . S
N168 C165 1.368 . S
N168 C169 1.321 . S
N168 Co171 2.135 . S
C169 N167 1.340 . S
C169 N168 1.321 . S
C169 H193 0.930 . S
H170 C165 0.931 . S
Co171 N168 2.135 . S
Co171 N174 2.121 . S
Co171 O179 2.055 . S
Co171 O182 2.039 . S
Co171 N185 2.140 . S
C172 O173 1.227 . S
C172 O182 1.265 . S
O173 C172 1.227 . S
N174 Co171 2.121 . S
N174 C176 1.375 . S
N174 C177 1.313 . S
C175 C176 1.338 . S
C175 N178 1.377 . S
C175 H195 0.930 . S
C176 N174 1.375 . S
C176 C175 1.338 . S
C176 H180 0.931 . S
C177 N174 1.313 . S
C177 N178 1.344 . S
C177 H181 0.930 . S
N178 C175 1.377 . S
N178 C177 1.344 . S
O179 Co171 2.055 . S
O179 C183 1.253 . S
H180 C176 0.931 . S
H181 C177 0.930 . S
O182 Co171 2.039 . S
O182 C172 1.265 . S
C183 O179 1.253 . S
C183 O184 1.227 . S
O184 C183 1.227 . S
N185 Co171 2.140 . S
N185 C188 1.346 . S
N185 C189 1.345 . S
C186 C187 1.387 . S
C186 C190 1.391 . S
C187 C186 1.387 . S
C187 C188 1.369 . S
C187 H196 0.929 . S
C188 N185 1.346 . S
C188 C187 1.369 . S
C188 H191 0.928 . S
C189 N185 1.345 . S
C189 C190 1.371 . S
C189 H192 0.931 . S
C190 C186 1.391 . S
C190 C189 1.371 . S
C190 H197 0.930 . S
H191 C188 0.928 . S
H192 C189 0.931 . S
H193 C169 0.930 . S
H194 C166 0.930 . S
H195 C175 0.930 . S
H196 C187 0.929 . S
H197 C190 0.930 . S
C198 C199 1.351 . S
C198 N201 1.368 . S
C198 H203 0.931 . S
C199 C198 1.351 . S
C199 N200 1.373 . S
C199 H227 0.930 . S
N200 C199 1.373 . S
N200 C202 1.340 . S
N201 C198 1.368 . S
N201 C202 1.321 . S
N201 Co204 2.135 . S
C202 N200 1.340 . S
C202 N201 1.321 . S
C202 H226 0.930 . S
H203 C198 0.931 . S
Co204 N201 2.135 . S
Co204 N207 2.121 . S
Co204 O212 2.055 . S
Co204 O215 2.039 . S
Co204 N218 2.140 . S
C205 O206 1.227 . S
C205 O215 1.265 . S
O206 C205 1.227 . S
N207 Co204 2.121 . S
N207 C209 1.375 . S
N207 C210 1.313 . S
C208 C209 1.338 . S
C208 N211 1.377 . S
C208 H228 0.930 . S
C209 N207 1.375 . S
C209 C208 1.338 . S
C209 H213 0.931 . S
C210 N207 1.313 . S
C210 N211 1.344 . S
C210 H214 0.930 . S
N211 C208 1.377 . S
N211 C210 1.344 . S
O212 Co204 2.055 . S
O212 C216 1.253 . S
H213 C209 0.931 . S
H214 C210 0.930 . S
O215 Co204 2.039 . S
O215 C205 1.265 . S
C216 O212 1.253 . S
C216 O217 1.227 . S
O217 C216 1.227 . S
N218 Co204 2.140 . S
N218 C221 1.346 . S
N218 C222 1.345 . S
C219 C220 1.387 . S
C219 C223 1.391 . S
C220 C219 1.387 . S
C220 C221 1.369 . S
C220 H229 0.929 . S
C221 N218 1.346 . S
C221 C220 1.369 . S
C221 H224 0.928 . S
C222 N218 1.345 . S
C222 C223 1.371 . S
C222 H225 0.931 . S
C223 C219 1.391 . S
C223 C222 1.371 . S
C223 H230 0.930 . S
H224 C221 0.928 . S
H225 C222 0.931 . S
H226 C202 0.930 . S
H227 C199 0.930 . S
H228 C208 0.930 . S
H229 C220 0.929 . S
H230 C223 0.930 . S
C231 C232 1.351 . S
C231 N234 1.368 . S
C231 H236 0.931 . S
C232 C231 1.351 . S
C232 N233 1.373 . S
C232 H260 0.930 . S
N233 C232 1.373 . S
N233 C235 1.340 . S
N234 C231 1.368 . S
N234 C235 1.321 . S
N234 Co237 2.135 . S
C235 N233 1.340 . S
C235 N234 1.321 . S
C235 H259 0.930 . S
H236 C231 0.931 . S
Co237 N234 2.135 . S
Co237 N240 2.121 . S
Co237 O245 2.055 . S
Co237 O248 2.039 . S
Co237 N251 2.140 . S
C238 O239 1.227 . S
C238 O248 1.265 . S
O239 C238 1.227 . S
N240 Co237 2.121 . S
N240 C242 1.375 . S
N240 C243 1.313 . S
C241 C242 1.338 . S
C241 N244 1.377 . S
C241 H261 0.930 . S
C242 N240 1.375 . S
C242 C241 1.338 . S
C242 H246 0.931 . S
C243 N240 1.313 . S
C243 N244 1.344 . S
C243 H247 0.930 . S
N244 C241 1.377 . S
N244 C243 1.344 . S
O245 Co237 2.055 . S
O245 C249 1.253 . S
H246 C242 0.931 . S
H247 C243 0.930 . S
O248 Co237 2.039 . S
O248 C238 1.265 . S
C249 O245 1.253 . S
C249 O250 1.227 . S
O250 C249 1.227 . S
N251 Co237 2.140 . S
N251 C254 1.346 . S
N251 C255 1.345 . S
C252 C253 1.387 . S
C252 C256 1.391 . S
C253 C252 1.387 . S
C253 C254 1.369 . S
C253 H262 0.929 . S
C254 N251 1.346 . S
C254 C253 1.369 . S
C254 H257 0.928 . S
C255 N251 1.345 . S
C255 C256 1.371 . S
C255 H258 0.931 . S
C256 C252 1.391 . S
C256 C255 1.371 . S
C256 H263 0.930 . S
H257 C254 0.928 . S
H258 C255 0.931 . S
H259 C235 0.930 . S
H260 C232 0.930 . S
H261 C241 0.930 . S
H262 C253 0.929 . S
H263 C256 0.930 . S
H264 C282 0.951 . S
H265 C284 0.951 . S
H266 C286 0.950 . S
H267 C287 0.950 . S
H268 C289 0.950 . S
H269 C292 0.950 . S
H270 C293 0.950 . S
H271 C295 0.950 . S
H272 C296 0.950 . S
H273 C297 0.951 . S
H274 C299 0.951 . S
H275 C301 0.950 . S
H276 C302 0.950 . S
H277 C304 0.950 . S
H278 C307 0.950 . S
H279 C308 0.950 . S
H280 C310 0.950 . S
H281 C311 0.950 . S
C282 H264 0.951 . S
C282 C283 1.366 . S
C282 C284 1.388 . S
C283 C282 1.366 . S
C283 C287 1.385 . S
C284 H265 0.951 . S
C284 C282 1.388 . S
C284 C285 1.366 . S
C285 C284 1.366 . S
C285 C286 1.414 . S
C285 C288 1.499 . S
C286 H266 0.950 . S
C286 C285 1.414 . S
C286 C287 1.374 . S
C287 H267 0.950 . S
C287 C283 1.385 . S
C287 C286 1.374 . S
C288 C285 1.499 . S
C288 C289 1.373 . S
C288 C290 1.389 . S
C289 H268 0.950 . S
C289 C288 1.373 . S
C289 C305 1.377 . S
C290 C288 1.389 . S
C290 C291 1.524 . S
C290 C304 1.377 . S
C291 C290 1.524 . S
C291 C292 1.397 . S
C291 C296 1.363 . S
C292 H269 0.950 . S
C292 C291 1.397 . S
C292 C293 1.334 . S
C293 H270 0.950 . S
C293 C292 1.334 . S
C293 C294 1.287 . S
C294 C293 1.287 . S
C294 C295 1.524 . S
C294 H313 0.913 . S
C295 H271 0.950 . S
C295 C294 1.524 . S
C295 C296 1.415 . S
C296 H272 0.950 . S
C296 C291 1.363 . S
C296 C295 1.415 . S
C297 H273 0.951 . S
C297 C298 1.366 . S
C297 C299 1.388 . S
C298 C297 1.366 . S
C298 C302 1.385 . S
C299 H274 0.951 . S
C299 C297 1.388 . S
C299 C300 1.366 . S
C300 C299 1.366 . S
C300 C301 1.414 . S
C300 C303 1.499 . S
C301 H275 0.950 . S
C301 C300 1.414 . S
C301 C302 1.374 . S
C302 H276 0.950 . S
C302 C298 1.385 . S
C302 C301 1.374 . S
C303 C300 1.499 . S
C303 C304 1.373 . S
C303 C305 1.389 . S
C304 H277 0.950 . S
C304 C290 1.377 . S
C304 C303 1.373 . S
C305 C289 1.377 . S
C305 C303 1.389 . S
C305 C306 1.524 . S
C306 C305 1.524 . S
C306 C307 1.397 . S
C306 C311 1.363 . S
C307 H278 0.950 . S
C307 C306 1.397 . S
C307 C308 1.334 . S
C308 H279 0.950 . S
C308 C307 1.334 . S
C308 C309 1.287 . S
C309 C308 1.287 . S
C309 C310 1.524 . S
C309 H312 0.999 . S
C310 H280 0.950 . S
C310 C309 1.524 . S
C310 C311 1.415 . S
C311 H281 0.950 . S
C311 C306 1.363 . S
C311 C310 1.415 . S
H312 C309 0.999 . S
H313 C294 0.913 . S
H314 C332 0.951 . S
H315 C334 0.951 . S
H316 C336 0.950 . S
H317 C337 0.950 . S
H318 C339 0.950 . S
H319 C342 0.950 1_554 S
H320 C343 0.950 . S
H321 C345 0.950 . S
H322 C346 0.950 . S
H323 C347 0.951 . S
H324 C349 0.951 . S
H325 C351 0.950 . S
H326 C352 0.950 . S
H327 C354 0.950 . S
H328 C357 0.950 1_556 S
H329 C358 0.950 . S
H330 C360 0.950 . S
H331 C361 0.950 . S
C332 H314 0.951 . S
C332 C333 1.366 . S
C332 C334 1.388 . S
C333 C332 1.366 . S
C333 C337 1.385 . S
C334 H315 0.951 . S
C334 C332 1.388 . S
C334 C335 1.366 . S
C335 C334 1.366 . S
C335 C336 1.414 . S
C335 C338 1.499 . S
C336 H316 0.950 . S
C336 C335 1.414 . S
C336 C337 1.374 . S
C337 H317 0.950 . S
C337 C333 1.385 . S
C337 C336 1.374 . S
C338 C335 1.499 . S
C338 C339 1.373 . S
C338 C340 1.389 1_554 S
C339 H318 0.950 . S
C339 C338 1.373 . S
C339 C355 1.377 . S
C340 C338 1.389 1_556 S
C340 C341 1.524 . S
C340 C354 1.377 . S
C341 C340 1.524 . S
C341 C342 1.397 . S
C341 C346 1.363 . S
C342 H319 0.950 1_556 S
C342 C341 1.397 . S
C342 C343 1.334 . S
C343 H320 0.950 . S
C343 C342 1.334 . S
C343 C344 1.287 . S
C344 C343 1.287 . S
C344 C345 1.524 . S
C344 H363 0.913 . S
C345 H321 0.950 . S
C345 C344 1.524 . S
C345 C346 1.415 . S
C346 H322 0.950 . S
C346 C341 1.363 . S
C346 C345 1.415 . S
C347 H323 0.951 . S
C347 C348 1.366 . S
C347 C349 1.388 . S
C348 C347 1.366 . S
C348 C352 1.385 . S
C349 H324 0.951 . S
C349 C347 1.388 . S
C349 C350 1.366 . S
C350 C349 1.366 . S
C350 C351 1.414 . S
C350 C353 1.499 . S
C351 H325 0.950 . S
C351 C350 1.414 . S
C351 C352 1.374 . S
C352 H326 0.950 . S
C352 C348 1.385 . S
C352 C351 1.374 . S
C353 C350 1.499 . S
C353 C354 1.373 . S
C353 C355 1.389 1_556 S
C354 H327 0.950 . S
C354 C340 1.377 . S
C354 C353 1.373 . S
C355 C339 1.377 . S
C355 C353 1.389 1_554 S
C355 C356 1.524 . S
C356 C355 1.524 . S
C356 C357 1.397 . S
C356 C361 1.363 . S
C357 H328 0.950 1_554 S
C357 C356 1.397 . S
C357 C358 1.334 . S
C358 H329 0.950 . S
C358 C357 1.334 . S
C358 C359 1.287 . S
C359 C358 1.287 . S
C359 C360 1.524 . S
C359 H362 0.999 . S
C360 H330 0.950 . S
C360 C359 1.524 . S
C360 C361 1.415 . S
C361 H331 0.950 . S
C361 C356 1.363 . S
C361 C360 1.415 . S
H362 C359 0.999 . S
H363 C344 0.913 . S
H364 C382 0.951 . S
H365 C384 0.951 . S
H366 C386 0.950 . S
H367 C387 0.950 . S
H368 C389 0.950 . S
H369 C392 0.950 . S
H370 C393 0.950 . S
H371 C395 0.950 . S
H372 C396 0.950 . S
H373 C397 0.951 . S
H374 C399 0.951 . S
H375 C401 0.950 . S
H376 C402 0.950 . S
H377 C404 0.950 . S
H378 C407 0.950 . S
H379 C408 0.950 . S
H380 C410 0.950 . S
H381 C411 0.950 . S
C382 H364 0.951 . S
C382 C383 1.366 . S
C382 C384 1.388 . S
C383 C382 1.366 . S
C383 C387 1.385 . S
C384 H365 0.951 . S
C384 C382 1.388 . S
C384 C385 1.366 . S
C385 C384 1.366 . S
C385 C386 1.414 . S
C385 C388 1.499 . S
C386 H366 0.950 . S
C386 C385 1.414 . S
C386 C387 1.374 . S
C387 H367 0.950 . S
C387 C383 1.385 . S
C387 C386 1.374 . S
C388 C385 1.499 . S
C388 C389 1.373 . S
C388 C390 1.389 . S
C389 H368 0.950 . S
C389 C388 1.373 . S
C389 C405 1.377 . S
C390 C388 1.389 . S
C390 C391 1.524 . S
C390 C404 1.377 . S
C391 C390 1.524 . S
C391 C392 1.397 . S
C391 C396 1.363 . S
C392 H369 0.950 . S
C392 C391 1.397 . S
C392 C393 1.334 . S
C393 H370 0.950 . S
C393 C392 1.334 . S
C393 C394 1.287 . S
C394 C393 1.287 . S
C394 C395 1.524 . S
C394 H413 0.913 . S
C395 H371 0.950 . S
C395 C394 1.524 . S
C395 C396 1.415 . S
C396 H372 0.950 . S
C396 C391 1.363 . S
C396 C395 1.415 . S
C397 H373 0.951 . S
C397 C398 1.366 . S
C397 C399 1.388 . S
C398 C397 1.366 . S
C398 C402 1.385 . S
C399 H374 0.951 . S
C399 C397 1.388 . S
C399 C400 1.366 . S
C400 C399 1.366 . S
C400 C401 1.414 . S
C400 C403 1.499 . S
C401 H375 0.950 . S
C401 C400 1.414 . S
C401 C402 1.374 . S
C402 H376 0.950 . S
C402 C398 1.385 . S
C402 C401 1.374 . S
C403 C400 1.499 . S
C403 C404 1.373 . S
C403 C405 1.389 . S
C404 H377 0.950 . S
C404 C390 1.377 . S
C404 C403 1.373 . S
C405 C389 1.377 . S
C405 C403 1.389 . S
C405 C406 1.524 . S
C406 C405 1.524 . S
C406 C407 1.397 . S
C406 C411 1.363 . S
C407 H378 0.950 . S
C407 C406 1.397 . S
C407 C408 1.334 . S
C408 H379 0.950 . S
C408 C407 1.334 . S
C408 C409 1.287 . S
C409 C408 1.287 . S
C409 C410 1.524 . S
C409 H412 0.999 . S
C410 H380 0.950 . S
C410 C409 1.524 . S
C410 C411 1.415 . S
C411 H381 0.950 . S
C411 C406 1.363 . S
C411 C410 1.415 . S
H412 C409 0.999 . S
H413 C394 0.913 . S
H414 C432 0.951 . S
H415 C434 0.951 . S
H416 C436 0.950 . S
H417 C437 0.950 . S
H418 C439 0.950 . S
H419 C442 0.950 . S
H420 C443 0.950 . S
H421 C445 0.950 . S
H422 C446 0.950 . S
H423 C447 0.951 . S
H424 C449 0.951 . S
H425 C451 0.950 . S
H426 C452 0.950 . S
H427 C454 0.950 . S
H428 C457 0.950 . S
H429 C458 0.950 . S
H430 C460 0.950 . S
H431 C461 0.950 . S
C432 H414 0.951 . S
C432 C433 1.366 . S
C432 C434 1.388 . S
C433 C432 1.366 . S
C433 C437 1.385 . S
C434 H415 0.951 . S
C434 C432 1.388 . S
C434 C435 1.366 . S
C435 C434 1.366 . S
C435 C436 1.414 . S
C435 C438 1.499 . S
C436 H416 0.950 . S
C436 C435 1.414 . S
C436 C437 1.374 . S
C437 H417 0.950 . S
C437 C433 1.385 . S
C437 C436 1.374 . S
C438 C435 1.499 . S
C438 C439 1.373 . S
C438 C440 1.389 . S
C439 H418 0.950 . S
C439 C438 1.373 . S
C439 C455 1.352 1_556 S
C440 C438 1.389 . S
C440 C441 1.524 . S
C440 C454 1.377 1_556 S
C441 C440 1.524 . S
C441 C442 1.397 1_556 S
C441 C446 1.363 . S
C442 H419 0.950 . S
C442 C441 1.397 1_554 S
C442 C443 1.334 . S
C443 H420 0.950 . S
C443 C442 1.334 . S
C443 C444 1.288 1_554 S
C444 C443 1.288 1_556 S
C444 C445 1.525 . S
C444 H463 0.913 . S
C445 H421 0.950 . S
C445 C444 1.525 . S
C445 C446 1.415 . S
C446 H422 0.950 . S
C446 C441 1.363 . S
C446 C445 1.415 . S
C447 H423 0.951 . S
C447 C448 1.366 . S
C447 C449 1.388 . S
C448 C447 1.366 . S
C448 C452 1.385 . S
C449 H424 0.951 . S
C449 C447 1.388 . S
C449 C450 1.366 . S
C450 C449 1.366 . S
C450 C451 1.414 . S
C450 C453 1.499 . S
C451 H425 0.950 . S
C451 C450 1.414 . S
C451 C452 1.374 . S
C452 H426 0.950 . S
C452 C448 1.385 . S
C452 C451 1.374 . S
C453 C450 1.499 . S
C453 C454 1.373 . S
C453 C455 1.411 . S
C454 H427 0.950 . S
C454 C440 1.377 1_554 S
C454 C453 1.373 . S
C455 C439 1.352 1_554 S
C455 C453 1.411 . S
C455 C456 1.525 . S
C456 C455 1.525 . S
C456 C457 1.395 1_554 S
C456 C461 1.361 . S
C457 H428 0.950 . S
C457 C456 1.395 1_556 S
C457 C458 1.334 . S
C458 H429 0.950 . S
C458 C457 1.334 . S
C458 C459 1.287 . S
C459 C458 1.287 . S
C459 C460 1.524 1_556 S
C459 H462 0.999 . S
C460 H430 0.950 . S
C460 C459 1.524 1_554 S
C460 C461 1.415 . S
C461 H431 0.950 . S
C461 C456 1.361 . S
C461 C460 1.415 . S
H462 C459 0.999 . S
H463 C444 0.913 . S
H464 C482 0.951 . S
H465 C484 0.951 . S
H466 C486 0.950 . S
H467 C487 0.950 . S
H468 C489 0.950 . S
H469 C492 0.950 . S
H470 C493 0.950 . S
H471 C495 0.950 . S
H472 C496 0.950 . S
H473 C497 0.951 . S
H474 C499 0.951 . S
H475 C501 0.950 . S
H476 C502 0.950 . S
H477 C504 0.950 . S
H478 C507 0.950 . S
H479 C508 0.950 . S
H480 C510 0.950 . S
H481 C511 0.950 . S
C482 H464 0.951 . S
C482 C483 1.366 . S
C482 C484 1.388 . S
C483 C482 1.366 . S
C483 C487 1.385 . S
C484 H465 0.951 . S
C484 C482 1.388 . S
C484 C485 1.366 . S
C485 C484 1.366 . S
C485 C486 1.414 . S
C485 C488 1.499 . S
C486 H466 0.950 . S
C486 C485 1.414 . S
C486 C487 1.374 . S
C487 H467 0.950 . S
C487 C483 1.385 . S
C487 C486 1.374 . S
C488 C485 1.499 . S
C488 C489 1.373 . S
C488 C490 1.389 . S
C489 H468 0.950 . S
C489 C488 1.373 . S
C489 C505 1.377 . S
C490 C488 1.389 . S
C490 C491 1.524 . S
C490 C504 1.377 . S
C491 C490 1.524 . S
C491 C492 1.397 . S
C491 C496 1.363 . S
C492 H469 0.950 . S
C492 C491 1.397 . S
C492 C493 1.334 1_545 S
C493 H470 0.950 . S
C493 C492 1.334 1_565 S
C493 C494 1.287 . S
C494 C493 1.287 . S
C494 C495 1.524 . S
C494 H513 0.913 . S
C495 H471 0.950 . S
C495 C494 1.524 . S
C495 C496 1.415 1_565 S
C496 H472 0.950 . S
C496 C491 1.363 . S
C496 C495 1.415 1_545 S
C497 H473 0.951 . S
C497 C498 1.366 . S
C497 C499 1.388 . S
C498 C497 1.366 . S
C498 C502 1.385 . S
C499 H474 0.951 . S
C499 C497 1.388 . S
C499 C500 1.366 . S
C500 C499 1.366 . S
C500 C501 1.414 . S
C500 C503 1.499 . S
C501 H475 0.950 . S
C501 C500 1.414 . S
C501 C502 1.374 . S
C502 H476 0.950 . S
C502 C498 1.385 . S
C502 C501 1.374 . S
C503 C500 1.499 . S
C503 C504 1.373 . S
C503 C505 1.389 . S
C504 H477 0.950 . S
C504 C490 1.377 . S
C504 C503 1.373 . S
C505 C489 1.377 . S
C505 C503 1.389 . S
C505 C506 1.524 . S
C506 C505 1.524 . S
C506 C507 1.397 . S
C506 C511 1.363 . S
C507 H478 0.950 . S
C507 C506 1.397 . S
C507 C508 1.334 . S
C508 H479 0.950 . S
C508 C507 1.334 . S
C508 C509 1.287 . S
C509 C508 1.287 . S
C509 C510 1.524 . S
C509 H512 0.999 . S
C510 H480 0.950 . S
C510 C509 1.524 . S
C510 C511 1.415 . S
C511 H481 0.950 . S
C511 C506 1.363 . S
C511 C510 1.415 . S
H512 C509 0.999 . S
H513 C494 0.913 . S
H514 C532 0.951 . S
H515 C534 0.951 . S
H516 C536 0.950 . S
H517 C537 0.950 . S
H518 C539 0.950 . S
H519 C542 0.950 . S
H520 C543 0.950 . S
H521 C545 0.950 . S
H522 C546 0.950 . S
H523 C547 0.951 . S
H524 C549 0.951 . S
H525 C551 0.950 . S
H526 C552 0.950 . S
H527 C554 0.950 . S
H528 C557 0.950 . S
H529 C558 0.950 . S
H530 C560 0.950 . S
H531 C561 0.950 . S
C532 H514 0.951 . S
C532 C533 1.366 . S
C532 C534 1.388 . S
C533 C532 1.366 . S
C533 C537 1.385 . S
C534 H515 0.951 . S
C534 C532 1.388 . S
C534 C535 1.366 . S
C535 C534 1.366 . S
C535 C536 1.414 . S
C535 C538 1.499 . S
C536 H516 0.950 . S
C536 C535 1.414 . S
C536 C537 1.374 . S
C537 H517 0.950 . S
C537 C533 1.385 . S
C537 C536 1.374 . S
C538 C535 1.499 . S
C538 C539 1.373 . S
C538 C540 1.389 . S
C539 H518 0.950 . S
C539 C538 1.373 . S
C539 C555 1.377 . S
C540 C538 1.389 . S
C540 C541 1.524 . S
C540 C554 1.377 . S
C541 C540 1.524 . S
C541 C542 1.397 . S
C541 C546 1.363 . S
C542 H519 0.950 . S
C542 C541 1.397 . S
C542 C543 1.334 . S
C543 H520 0.950 . S
C543 C542 1.334 . S
C543 C544 1.287 . S
C544 C543 1.287 . S
C544 C545 1.524 . S
C544 H563 0.913 . S
C545 H521 0.950 . S
C545 C544 1.524 . S
C545 C546 1.415 . S
C546 H522 0.950 . S
C546 C541 1.363 . S
C546 C545 1.415 . S
C547 H523 0.951 . S
C547 C548 1.366 . S
C547 C549 1.388 . S
C548 C547 1.366 . S
C548 C552 1.385 . S
C549 H524 0.951 . S
C549 C547 1.388 . S
C549 C550 1.366 . S
C550 C549 1.366 . S
C550 C551 1.414 . S
C550 C553 1.499 . S
C551 H525 0.950 . S
C551 C550 1.414 . S
C551 C552 1.374 . S
C552 H526 0.950 . S
C552 C548 1.385 . S
C552 C551 1.374 . S
C553 C550 1.499 . S
C553 C554 1.373 . S
C553 C555 1.389 . S
C554 H527 0.950 . S
C554 C540 1.377 . S
C554 C553 1.373 . S
C555 C539 1.377 . S
C555 C553 1.389 . S
C555 C556 1.524 . S
C556 C555 1.524 . S
C556 C557 1.397 . S
C556 C561 1.363 . S
C557 H528 0.950 . S
C557 C556 1.397 . S
C557 C558 1.334 . S
C558 H529 0.950 . S
C558 C557 1.334 . S
C558 C559 1.289 . S
C559 C558 1.289 . S
C559 C560 1.526 . S
C559 H562 0.994 1_565 S
C560 H530 0.950 . S
C560 C559 1.526 . S
C560 C561 1.415 . S
C561 H531 0.950 . S
C561 C556 1.363 . S
C561 C560 1.415 . S
H562 C559 0.994 1_545 S
H563 C544 0.913 . S
H564 C582 0.951 . S
H565 C584 0.951 . S
H566 C586 0.950 . S
H567 C587 0.950 . S
H568 C589 0.950 . S
H569 C592 0.950 . S
H570 C593 0.950 . S
H571 C595 0.950 . S
H572 C596 0.950 . S
H573 C597 0.951 . S
H574 C599 0.951 . S
H575 C601 0.950 . S
H576 C602 0.950 . S
H577 C604 0.950 . S
H578 C607 0.950 . S
H579 C608 0.950 . S
H580 C610 0.950 . S
H581 C611 0.950 . S
C582 H564 0.951 . S
C582 C583 1.366 . S
C582 C584 1.388 . S
C583 C582 1.366 . S
C583 C587 1.385 . S
C584 H565 0.951 . S
C584 C582 1.388 . S
C584 C585 1.366 . S
C585 C584 1.366 . S
C585 C586 1.414 . S
C585 C588 1.499 . S
C586 H566 0.950 . S
C586 C585 1.414 . S
C586 C587 1.374 . S
C587 H567 0.950 . S
C587 C583 1.385 . S
C587 C586 1.374 . S
C588 C585 1.499 . S
C588 C589 1.373 . S
C588 C590 1.389 . S
C589 H568 0.950 . S
C589 C588 1.373 . S
C589 C605 1.377 1_455 S
C590 C588 1.389 . S
C590 C591 1.524 . S
C590 C604 1.377 1_455 S
C591 C590 1.524 . S
C591 C592 1.397 . S
C591 C596 1.363 1_455 S
C592 H569 0.950 . S
C592 C591 1.397 . S
C592 C593 1.334 . S
C593 H570 0.950 . S
C593 C592 1.334 . S
C593 C594 1.287 . S
C594 C593 1.287 . S
C594 C595 1.524 1_455 S
C594 H613 0.913 . S
C595 H571 0.950 . S
C595 C594 1.524 1_655 S
C595 C596 1.415 . S
C596 H572 0.950 . S
C596 C591 1.363 1_655 S
C596 C595 1.415 . S
C597 H573 0.951 . S
C597 C598 1.366 . S
C597 C599 1.388 . S
C598 C597 1.366 . S
C598 C602 1.385 . S
C599 H574 0.951 . S
C599 C597 1.388 . S
C599 C600 1.366 . S
C600 C599 1.366 . S
C600 C601 1.414 . S
C600 C603 1.499 . S
C601 H575 0.950 . S
C601 C600 1.414 . S
C601 C602 1.374 . S
C602 H576 0.950 . S
C602 C598 1.385 . S
C602 C601 1.374 . S
C603 C600 1.499 . S
C603 C604 1.373 . S
C603 C605 1.389 . S
C604 H577 0.950 . S
C604 C590 1.377 1_655 S
C604 C603 1.373 . S
C605 C589 1.377 1_655 S
C605 C603 1.389 . S
C605 C606 1.524 . S
C606 C605 1.524 . S
C606 C607 1.397 . S
C606 C611 1.363 1_655 S
C607 H578 0.950 . S
C607 C606 1.397 . S
C607 C608 1.334 . S
C608 H579 0.950 . S
C608 C607 1.334 . S
C608 C609 1.287 . S
C609 C608 1.287 . S
C609 C610 1.524 1_655 S
C609 H612 0.999 . S
C610 H580 0.950 . S
C610 C609 1.524 1_455 S
C610 C611 1.415 . S
C611 H581 0.950 . S
C611 C606 1.363 1_455 S
C611 C610 1.415 . S
H612 C609 0.999 . S
H613 C594 0.913 . S
H614 C632 0.951 . S
H615 C634 0.951 . S
H616 C636 0.950 . S
H617 C637 0.950 . S
H618 C639 0.950 . S
H619 C642 0.950 1_455 S
H620 C643 0.950 . S
H621 C645 0.950 . S
H622 C646 0.950 . S
H623 C647 0.951 . S
H624 C649 0.951 . S
H625 C651 0.950 . S
H626 C652 0.950 . S
H627 C654 0.950 . S
H628 C657 0.950 1_655 S
H629 C658 0.950 . S
H630 C660 0.950 . S
H631 C661 0.950 . S
C632 H614 0.951 . S
C632 C633 1.366 . S
C632 C634 1.388 . S
C633 C632 1.366 . S
C633 C637 1.385 . S
C634 H615 0.951 . S
C634 C632 1.388 . S
C634 C635 1.366 . S
C635 C634 1.366 . S
C635 C636 1.414 . S
C635 C638 1.499 . S
C636 H616 0.950 . S
C636 C635 1.414 . S
C636 C637 1.374 . S
C637 H617 0.950 . S
C637 C633 1.385 . S
C637 C636 1.374 . S
C638 C635 1.499 . S
C638 C639 1.373 . S
C638 C640 1.389 1_455 S
C639 H618 0.950 . S
C639 C638 1.373 . S
C639 C655 1.377 . S
C640 C638 1.389 1_655 S
C640 C641 1.524 . S
C640 C654 1.377 . S
C641 C640 1.524 . S
C641 C642 1.397 . S
C641 C646 1.363 . S
C642 H619 0.950 1_655 S
C642 C641 1.397 . S
C642 C643 1.334 . S
C643 H620 0.950 . S
C643 C642 1.334 . S
C643 C644 1.287 . S
C644 C643 1.287 . S
C644 C645 1.524 . S
C644 H663 0.913 . S
C645 H621 0.950 . S
C645 C644 1.524 . S
C645 C646 1.415 . S
C646 H622 0.950 . S
C646 C641 1.363 . S
C646 C645 1.415 . S
C647 H623 0.951 . S
C647 C648 1.366 . S
C647 C649 1.388 . S
C648 C647 1.366 . S
C648 C652 1.385 . S
C649 H624 0.951 . S
C649 C647 1.388 . S
C649 C650 1.366 . S
C650 C649 1.366 . S
C650 C651 1.414 . S
C650 C653 1.499 . S
C651 H625 0.950 . S
C651 C650 1.414 . S
C651 C652 1.374 . S
C652 H626 0.950 . S
C652 C648 1.385 . S
C652 C651 1.374 . S
C653 C650 1.499 . S
C653 C654 1.373 . S
C653 C655 1.389 1_655 S
C654 H627 0.950 . S
C654 C640 1.377 . S
C654 C653 1.373 . S
C655 C639 1.377 . S
C655 C653 1.389 1_455 S
C655 C656 1.524 . S
C656 C655 1.524 . S
C656 C657 1.397 . S
C656 C661 1.363 . S
C657 H628 0.950 1_455 S
C657 C656 1.397 . S
C657 C658 1.334 . S
C658 H629 0.950 . S
C658 C657 1.334 . S
C658 C659 1.287 . S
C659 C658 1.287 . S
C659 C660 1.524 . S
C659 H662 0.999 . S
C660 H630 0.950 . S
C660 C659 1.524 . S
C660 C661 1.415 . S
C661 H631 0.950 . S
C661 C656 1.363 . S
C661 C660 1.415 . S
H662 C659 0.999 . S
H663 C644 0.913 . S
H664 C682 0.951 . S
H665 C684 0.951 . S
H666 C686 0.950 . S
H667 C687 0.950 . S
H668 C689 0.950 . S
H669 C692 0.950 . S
H670 C693 0.950 . S
H671 C695 0.950 . S
H672 C696 0.950 . S
H673 C697 0.951 1_545 S
H674 C699 0.951 . S
H675 C701 0.950 . S
H676 C702 0.950 . S
H677 C704 0.950 . S
H678 C707 0.950 . S
H679 C708 0.950 . S
H680 C710 0.950 . S
H681 C711 0.950 . S
C682 H664 0.951 . S
C682 C683 1.366 . S
C682 C684 1.388 . S
C683 C682 1.366 . S
C683 C687 1.385 . S
C684 H665 0.951 . S
C684 C682 1.388 . S
C684 C685 1.366 . S
C685 C684 1.366 . S
C685 C686 1.414 . S
C685 C688 1.499 . S
C686 H666 0.950 . S
C686 C685 1.414 . S
C686 C687 1.374 . S
C687 H667 0.950 . S
C687 C683 1.385 . S
C687 C686 1.374 . S
C688 C685 1.499 . S
C688 C689 1.373 . S
C688 C690 1.389 . S
C689 H668 0.950 . S
C689 C688 1.373 . S
C689 C705 1.377 . S
C690 C688 1.389 . S
C690 C691 1.524 . S
C690 C704 1.377 . S
C691 C690 1.524 . S
C691 C692 1.397 . S
C691 C696 1.363 . S
C692 H669 0.950 . S
C692 C691 1.397 . S
C692 C693 1.334 . S
C693 H670 0.950 . S
C693 C692 1.334 . S
C693 C694 1.287 . S
C694 C693 1.287 . S
C694 C695 1.524 . S
C694 H713 0.913 . S
C695 H671 0.950 . S
C695 C694 1.524 . S
C695 C696 1.415 . S
C696 H672 0.950 . S
C696 C691 1.363 . S
C696 C695 1.415 . S
C697 H673 0.951 1_565 S
C697 C698 1.366 . S
C697 C699 1.388 . S
C698 C697 1.366 . S
C698 C702 1.385 . S
C699 H674 0.951 . S
C699 C697 1.388 . S
C699 C700 1.366 . S
C700 C699 1.366 . S
C700 C701 1.414 . S
C700 C703 1.499 . S
C701 H675 0.950 . S
C701 C700 1.414 . S
C701 C702 1.374 . S
C702 H676 0.950 . S
C702 C698 1.385 . S
C702 C701 1.374 . S
C703 C700 1.499 . S
C703 C704 1.373 . S
C703 C705 1.389 . S
C704 H677 0.950 . S
C704 C690 1.377 . S
C704 C703 1.373 . S
C705 C689 1.377 . S
C705 C703 1.389 . S
C705 C706 1.524 . S
C706 C705 1.524 . S
C706 C707 1.397 . S
C706 C711 1.363 . S
C707 H678 0.950 . S
C707 C706 1.397 . S
C707 C708 1.334 . S
C708 H679 0.950 . S
C708 C707 1.334 . S
C708 C709 1.287 . S
C709 C708 1.287 . S
C709 C710 1.524 . S
C709 H712 0.999 . S
C710 H680 0.950 . S
C710 C709 1.524 . S
C710 C711 1.415 . S
C711 H681 0.950 . S
C711 C706 1.363 . S
C711 C710 1.415 . S
H712 C709 0.999 . S
H713 C694 0.913 . S
H714 C732 0.951 . S
H715 C734 0.951 . S
H716 C736 0.950 . S
H717 C737 0.950 . S
H718 C739 0.950 . S
H719 C742 0.950 . S
H720 C743 0.950 . S
H721 C745 0.950 . S
H722 C746 0.950 . S
H723 C747 0.951 . S
H724 C749 0.951 . S
H725 C751 0.950 . S
H726 C752 0.950 . S
H727 C754 0.950 . S
H728 C757 0.950 . S
H729 C758 0.950 . S
H730 C760 0.950 . S
H731 C761 0.950 . S
C732 H714 0.951 . S
C732 C733 1.366 . S
C732 C734 1.388 . S
C733 C732 1.366 . S
C733 C737 1.385 . S
C734 H715 0.951 . S
C734 C732 1.388 . S
C734 C735 1.366 . S
C735 C734 1.366 . S
C735 C736 1.414 . S
C735 C738 1.499 . S
C736 H716 0.950 . S
C736 C735 1.414 . S
C736 C737 1.374 . S
C737 H717 0.950 . S
C737 C733 1.385 . S
C737 C736 1.374 . S
C738 C735 1.499 . S
C738 C739 1.373 . S
C738 C740 1.389 . S
C739 H718 0.950 . S
C739 C738 1.373 . S
C739 C755 1.377 . S
C740 C738 1.389 . S
C740 C741 1.524 . S
C740 C754 1.377 . S
C741 C740 1.524 . S
C741 C742 1.397 . S
C741 C746 1.363 . S
C742 H719 0.950 . S
C742 C741 1.397 . S
C742 C743 1.334 . S
C743 H720 0.950 . S
C743 C742 1.334 . S
C743 C744 1.287 . S
C744 C743 1.287 . S
C744 C745 1.524 . S
C744 H763 0.913 . S
C745 H721 0.950 . S
C745 C744 1.524 . S
C745 C746 1.415 . S
C746 H722 0.950 . S
C746 C741 1.363 . S
C746 C745 1.415 . S
C747 H723 0.951 . S
C747 C748 1.366 . S
C747 C749 1.388 . S
C748 C747 1.366 . S
C748 C752 1.385 . S
C749 H724 0.951 . S
C749 C747 1.388 . S
C749 C750 1.366 . S
C750 C749 1.366 . S
C750 C751 1.414 . S
C750 C753 1.499 . S
C751 H725 0.950 . S
C751 C750 1.414 . S
C751 C752 1.374 . S
C752 H726 0.950 . S
C752 C748 1.385 . S
C752 C751 1.374 . S
C753 C750 1.499 . S
C753 C754 1.373 . S
C753 C755 1.389 . S
C754 H727 0.950 . S
C754 C740 1.377 . S
C754 C753 1.373 . S
C755 C739 1.377 . S
C755 C753 1.389 . S
C755 C756 1.524 . S
C756 C755 1.524 . S
C756 C757 1.397 . S
C756 C761 1.363 . S
C757 H728 0.950 . S
C757 C756 1.397 . S
C757 C758 1.334 . S
C758 H729 0.950 . S
C758 C757 1.334 . S
C758 C759 1.287 . S
C759 C758 1.287 . S
C759 C760 1.524 . S
C759 H762 0.999 . S
C760 H730 0.950 . S
C760 C759 1.524 . S
C760 C761 1.415 . S
C761 H731 0.950 . S
C761 C756 1.363 . S
C761 C760 1.415 . S
H762 C759 0.999 . S
H763 C744 0.913 . S
H764 C782 0.951 . S
H765 C784 0.951 . S
H766 C786 0.950 . S
H767 C787 0.950 1_565 S
H768 C789 0.950 . S
H769 C792 0.950 . S
H770 C793 0.950 . S
H771 C795 0.950 . S
H772 C796 0.950 . S
H773 C797 0.951 . S
H774 C799 0.951 . S
H775 C801 0.950 . S
H776 C802 0.950 . S
H777 C804 0.950 . S
H778 C807 0.950 . S
H779 C808 0.950 . S
H780 C810 0.950 . S
H781 C811 0.950 . S
C782 H764 0.951 . S
C782 C783 1.366 . S
C782 C784 1.388 . S
C783 C782 1.366 . S
C783 C787 1.385 . S
C784 H765 0.951 . S
C784 C782 1.388 . S
C784 C785 1.366 . S
C785 C784 1.366 . S
C785 C786 1.414 . S
C785 C788 1.499 . S
C786 H766 0.950 . S
C786 C785 1.414 . S
C786 C787 1.374 . S
C787 H767 0.950 1_545 S
C787 C783 1.385 . S
C787 C786 1.374 . S
C788 C785 1.499 . S
C788 C789 1.373 . S
C788 C790 1.389 . S
C789 H768 0.950 . S
C789 C788 1.373 . S
C789 C805 1.377 . S
C790 C788 1.389 . S
C790 C791 1.524 . S
C790 C804 1.377 . S
C791 C790 1.524 . S
C791 C792 1.397 . S
C791 C796 1.363 . S
C792 H769 0.950 . S
C792 C791 1.397 . S
C792 C793 1.334 . S
C793 H770 0.950 . S
C793 C792 1.334 . S
C793 C794 1.287 . S
C794 C793 1.287 . S
C794 C795 1.524 . S
C794 H813 0.913 . S
C795 H771 0.950 . S
C795 C794 1.524 . S
C795 C796 1.415 . S
C796 H772 0.950 . S
C796 C791 1.363 . S
C796 C795 1.415 . S
C797 H773 0.951 . S
C797 C798 1.366 . S
C797 C799 1.388 . S
C798 C797 1.366 . S
C798 C802 1.385 . S
C799 H774 0.951 . S
C799 C797 1.388 . S
C799 C800 1.366 . S
C800 C799 1.366 . S
C800 C801 1.414 . S
C800 C803 1.499 . S
C801 H775 0.950 . S
C801 C800 1.414 . S
C801 C802 1.374 . S
C802 H776 0.950 . S
C802 C798 1.385 . S
C802 C801 1.374 . S
C803 C800 1.499 . S
C803 C804 1.373 . S
C803 C805 1.389 . S
C804 H777 0.950 . S
C804 C790 1.377 . S
C804 C803 1.373 . S
C805 C789 1.377 . S
C805 C803 1.389 . S
C805 C806 1.524 . S
C806 C805 1.524 . S
C806 C807 1.397 . S
C806 C811 1.363 . S
C807 H778 0.950 . S
C807 C806 1.397 . S
C807 C808 1.334 . S
C808 H779 0.950 . S
C808 C807 1.334 . S
C808 C809 1.287 . S
C809 C808 1.287 . S
C809 C810 1.524 . S
C809 H812 0.999 . S
C810 H780 0.950 . S
C810 C809 1.524 . S
C810 C811 1.415 . S
C811 H781 0.950 . S
C811 C806 1.363 . S
C811 C810 1.415 . S
H812 C809 0.999 . S
H813 C794 0.913 . S
H814 C832 0.951 . S
H815 C834 0.951 . S
H816 C836 0.950 . S
H817 C837 0.950 . S
H818 C839 0.950 . S
H819 C842 0.950 . S
H820 C843 0.950 . S
H821 C845 0.950 . S
H822 C846 0.950 . S
H823 C847 0.951 . S
H824 C849 0.951 . S
H825 C851 0.950 . S
H826 C852 0.950 . S
H827 C854 0.950 . S
H828 C857 0.950 . S
H829 C858 0.950 1_565 S
H830 C860 0.950 . S
H831 C861 0.950 . S
C832 H814 0.951 . S
C832 C833 1.366 . S
C832 C834 1.388 . S
C833 C832 1.366 . S
C833 C837 1.385 . S
C834 H815 0.951 . S
C834 C832 1.388 . S
C834 C835 1.366 . S
C835 C834 1.366 . S
C835 C836 1.414 . S
C835 C838 1.499 . S
C836 H816 0.950 . S
C836 C835 1.414 . S
C836 C837 1.374 . S
C837 H817 0.950 . S
C837 C833 1.385 . S
C837 C836 1.374 . S
C838 C835 1.499 . S
C838 C839 1.373 . S
C838 C840 1.389 . S
C839 H818 0.950 . S
C839 C838 1.373 . S
C839 C855 1.377 . S
C840 C838 1.389 . S
C840 C841 1.524 . S
C840 C854 1.377 . S
C841 C840 1.524 . S
C841 C842 1.397 . S
C841 C846 1.363 . S
C842 H819 0.950 . S
C842 C841 1.397 . S
C842 C843 1.334 . S
C843 H820 0.950 . S
C843 C842 1.334 . S
C843 C844 1.287 . S
C844 C843 1.287 . S
C844 C845 1.524 . S
C844 H863 0.913 . S
C845 H821 0.950 . S
C845 C844 1.524 . S
C845 C846 1.415 . S
C846 H822 0.950 . S
C846 C841 1.363 . S
C846 C845 1.415 . S
C847 H823 0.951 . S
C847 C848 1.366 . S
C847 C849 1.388 . S
C848 C847 1.366 . S
C848 C852 1.385 . S
C849 H824 0.951 . S
C849 C847 1.388 . S
C849 C850 1.366 . S
C850 C849 1.366 . S
C850 C851 1.414 . S
C850 C853 1.499 . S
C851 H825 0.950 . S
C851 C850 1.414 . S
C851 C852 1.374 . S
C852 H826 0.950 . S
C852 C848 1.385 . S
C852 C851 1.374 . S
C853 C850 1.499 . S
C853 C854 1.373 . S
C853 C855 1.389 . S
C854 H827 0.950 . S
C854 C840 1.377 . S
C854 C853 1.373 . S
C855 C839 1.377 . S
C855 C853 1.389 . S
C855 C856 1.524 . S
C856 C855 1.524 . S
C856 C857 1.397 . S
C856 C861 1.363 . S
C857 H828 0.950 . S
C857 C856 1.397 . S
C857 C858 1.334 . S
C858 H829 0.950 1_545 S
C858 C857 1.334 . S
C858 C859 1.287 . S
C859 C858 1.287 . S
C859 C860 1.524 . S
C859 H862 0.999 1_545 S
C860 H830 0.950 . S
C860 C859 1.524 . S
C860 C861 1.415 . S
C861 H831 0.950 . S
C861 C856 1.363 . S
C861 C860 1.415 . S
H862 C859 0.999 1_565 S
H863 C844 0.913 . S
H864 C882 0.951 . S
H865 C884 0.951 . S
H866 C886 0.950 . S
H867 C887 0.950 . S
H868 C889 0.950 . S
H869 C892 0.950 . S
H870 C893 0.950 . S
H871 C895 0.950 . S
H872 C896 0.950 . S
H873 C897 0.951 . S
H874 C899 0.951 . S
H875 C901 0.950 . S
H876 C902 0.950 . S
H877 C904 0.950 . S
H878 C907 0.950 . S
H879 C908 0.950 . S
H880 C910 0.950 . S
H881 C911 0.950 . S
C882 H864 0.951 . S
C882 C883 1.366 . S
C882 C884 1.388 . S
C883 C882 1.366 . S
C883 C887 1.385 . S
C884 H865 0.951 . S
C884 C882 1.388 . S
C884 C885 1.366 . S
C885 C884 1.366 . S
C885 C886 1.414 . S
C885 C888 1.499 . S
C886 H866 0.950 . S
C886 C885 1.414 . S
C886 C887 1.374 . S
C887 H867 0.950 . S
C887 C883 1.385 . S
C887 C886 1.374 . S
C888 C885 1.499 . S
C888 C889 1.373 . S
C888 C890 1.389 . S
C889 H868 0.950 . S
C889 C888 1.373 . S
C889 C905 1.377 . S
C890 C888 1.389 . S
C890 C891 1.524 . S
C890 C904 1.377 . S
C891 C890 1.524 . S
C891 C892 1.397 . S
C891 C896 1.363 . S
C892 H869 0.950 . S
C892 C891 1.397 . S
C892 C893 1.334 . S
C893 H870 0.950 . S
C893 C892 1.334 . S
C893 C894 1.287 . S
C894 C893 1.287 . S
C894 C895 1.524 . S
C894 H913 0.913 . S
C895 H871 0.950 . S
C895 C894 1.524 . S
C895 C896 1.415 . S
C896 H872 0.950 . S
C896 C891 1.363 . S
C896 C895 1.415 . S
C897 H873 0.951 . S
C897 C898 1.366 . S
C897 C899 1.388 . S
C898 C897 1.366 . S
C898 C902 1.385 . S
C899 H874 0.951 . S
C899 C897 1.388 . S
C899 C900 1.366 . S
C900 C899 1.366 . S
C900 C901 1.414 . S
C900 C903 1.499 . S
C901 H875 0.950 . S
C901 C900 1.414 . S
C901 C902 1.374 . S
C902 H876 0.950 . S
C902 C898 1.385 . S
C902 C901 1.374 . S
C903 C900 1.499 . S
C903 C904 1.373 . S
C903 C905 1.389 . S
C904 H877 0.950 . S
C904 C890 1.377 . S
C904 C903 1.373 . S
C905 C889 1.377 . S
C905 C903 1.389 . S
C905 C906 1.524 . S
C906 C905 1.524 . S
C906 C907 1.397 . S
C906 C911 1.363 . S
C907 H878 0.950 . S
C907 C906 1.397 . S
C907 C908 1.334 . S
C908 H879 0.950 . S
C908 C907 1.334 . S
C908 C909 1.287 . S
C909 C908 1.287 . S
C909 C910 1.524 . S
C909 H912 0.999 . S
C910 H880 0.950 . S
C910 C909 1.524 . S
C910 C911 1.415 . S
C911 H881 0.950 . S
C911 C906 1.363 . S
C911 C910 1.415 . S
H912 C909 0.999 . S
H913 C894 0.913 . S
H914 C932 0.951 . S
H915 C934 0.951 . S
H916 C936 0.950 . S
H917 C937 0.950 . S
H918 C939 0.950 . S
H919 C942 0.950 . S
H920 C943 0.950 . S
H921 C945 0.950 . S
H922 C946 0.950 . S
H923 C947 0.951 . S
H924 C949 0.951 . S
H925 C951 0.950 . S
H926 C952 0.950 . S
H927 C954 0.950 . S
H928 C957 0.950 . S
H929 C958 0.950 . S
H930 C960 0.950 . S
H931 C961 0.950 . S
C932 H914 0.951 . S
C932 C933 1.366 . S
C932 C934 1.388 . S
C933 C932 1.366 . S
C933 C937 1.385 . S
C934 H915 0.951 . S
C934 C932 1.388 . S
C934 C935 1.366 . S
C935 C934 1.366 . S
C935 C936 1.414 . S
C935 C938 1.499 . S
C936 H916 0.950 . S
C936 C935 1.414 . S
C936 C937 1.374 . S
C937 H917 0.950 . S
C937 C933 1.385 . S
C937 C936 1.374 . S
C938 C935 1.499 . S
C938 C939 1.373 . S
C938 C940 1.389 . S
C939 H918 0.950 . S
C939 C938 1.373 . S
C939 C955 1.377 . S
C940 C938 1.389 . S
C940 C941 1.524 . S
C940 C954 1.377 . S
C941 C940 1.524 . S
C941 C942 1.397 . S
C941 C946 1.363 . S
C942 H919 0.950 . S
C942 C941 1.397 . S
C942 C943 1.334 . S
C943 H920 0.950 . S
C943 C942 1.334 . S
C943 C944 1.287 . S
C944 C943 1.287 . S
C944 C945 1.524 . S
C944 H963 0.913 . S
C945 H921 0.950 . S
C945 C944 1.524 . S
C945 C946 1.415 . S
C946 H922 0.950 . S
C946 C941 1.363 . S
C946 C945 1.415 . S
C947 H923 0.951 . S
C947 C948 1.366 . S
C947 C949 1.388 . S
C948 C947 1.366 . S
C948 C952 1.385 . S
C949 H924 0.951 . S
C949 C947 1.388 . S
C949 C950 1.366 . S
C950 C949 1.366 . S
C950 C951 1.414 . S
C950 C953 1.499 . S
C951 H925 0.950 . S
C951 C950 1.414 . S
C951 C952 1.374 . S
C952 H926 0.950 . S
C952 C948 1.385 . S
C952 C951 1.374 . S
C953 C950 1.499 . S
C953 C954 1.373 . S
C953 C955 1.389 . S
C954 H927 0.950 . S
C954 C940 1.377 . S
C954 C953 1.373 . S
C955 C939 1.377 . S
C955 C953 1.389 . S
C955 C956 1.524 . S
C956 C955 1.524 . S
C956 C957 1.397 . S
C956 C961 1.363 . S
C957 H928 0.950 . S
C957 C956 1.397 . S
C957 C958 1.334 . S
C958 H929 0.950 . S
C958 C957 1.334 . S
C958 C959 1.287 . S
C959 C958 1.287 . S
C959 C960 1.524 . S
C959 H962 0.999 . S
C960 H930 0.950 . S
C960 C959 1.524 . S
C960 C961 1.415 . S
C961 H931 0.950 . S
C961 C956 1.363 . S
C961 C960 1.415 . S
H962 C959 0.999 . S
H963 C944 0.913 . S
H964 C982 0.951 . S
H965 C984 0.951 . S
H966 C986 0.950 . S
H967 C987 0.950 . S
H968 C989 0.950 . S
H969 C992 0.950 . S
H970 C993 0.950 . S
H971 C995 0.950 . S
H972 C996 0.950 . S
H973 C997 0.951 . S
H974 C999 0.951 . S
H975 C1001 0.950 . S
H976 C1002 0.950 . S
H977 C1004 0.950 . S
H978 C1007 0.950 . S
H979 C1008 0.950 . S
H980 C1010 0.950 . S
H981 C1011 0.950 . S
C982 H964 0.951 . S
C982 C983 1.366 . S
C982 C984 1.388 . S
C983 C982 1.366 . S
C983 C987 1.385 . S
C984 H965 0.951 . S
C984 C982 1.388 . S
C984 C985 1.366 . S
C985 C984 1.366 . S
C985 C986 1.414 . S
C985 C988 1.499 . S
C986 H966 0.950 . S
C986 C985 1.414 . S
C986 C987 1.374 . S
C987 H967 0.950 . S
C987 C983 1.385 . S
C987 C986 1.374 . S
C988 C985 1.499 . S
C988 C989 1.373 . S
C988 C990 1.389 . S
C989 H968 0.950 . S
C989 C988 1.373 . S
C989 C1005 1.377 . S
C990 C988 1.389 . S
C990 C991 1.524 . S
C990 C1004 1.377 . S
C991 C990 1.524 . S
C991 C992 1.397 . S
C991 C996 1.363 . S
C992 H969 0.950 . S
C992 C991 1.397 . S
C992 C993 1.334 . S
C993 H970 0.950 . S
C993 C992 1.334 . S
C993 C994 1.287 . S
C994 C993 1.287 . S
C994 C995 1.524 . S
C994 H1013 0.913 . S
C995 H971 0.950 . S
C995 C994 1.524 . S
C995 C996 1.415 . S
C996 H972 0.950 . S
C996 C991 1.363 . S
C996 C995 1.415 . S
C997 H973 0.951 . S
C997 C998 1.366 . S
C997 C999 1.388 . S
C998 C997 1.366 . S
C998 C1002 1.385 . S
C999 H974 0.951 . S
C999 C997 1.388 . S
C999 C1000 1.366 . S
C1000 C999 1.366 . S
C1000 C1001 1.414 . S
C1000 C1003 1.499 . S
C1001 H975 0.950 . S
C1001 C1000 1.414 . S
C1001 C1002 1.374 . S
C1002 H976 0.950 . S
C1002 C998 1.385 . S
C1002 C1001 1.374 . S
C1003 C1000 1.499 . S
C1003 C1004 1.373 . S
C1003 C1005 1.389 . S
C1004 H977 0.950 . S
C1004 C990 1.377 . S
C1004 C1003 1.373 . S
C1005 C989 1.377 . S
C1005 C1003 1.389 . S
C1005 C1006 1.524 . S
C1006 C1005 1.524 . S
C1006 C1007 1.397 . S
C1006 C1011 1.363 . S
C1007 H978 0.950 . S
C1007 C1006 1.397 . S
C1007 C1008 1.334 . S
C1008 H979 0.950 . S
C1008 C1007 1.334 . S
C1008 C1009 1.287 . S
C1009 C1008 1.287 . S
C1009 C1010 1.524 . S
C1009 H1012 0.999 . S
C1010 H980 0.950 . S
C1010 C1009 1.524 . S
C1010 C1011 1.415 . S
C1011 H981 0.950 . S
C1011 C1006 1.363 . S
C1011 C1010 1.415 . S
H1012 C1009 0.999 . S
H1013 C994 0.913 . S
H1014 C1032 0.951 . S
H1015 C1034 0.951 . S
H1016 C1036 0.950 . S
H1017 C1037 0.950 . S
H1018 C1039 0.950 . S
H1019 C1042 0.950 . S
H1020 C1043 0.950 . S
H1021 C1045 0.950 . S
H1022 C1046 0.950 . S
H1023 C1047 0.951 . S
H1024 C1049 0.951 . S
H1025 C1051 0.950 . S
H1026 C1052 0.950 . S
H1027 C1054 0.950 . S
H1028 C1057 0.950 . S
H1029 C1058 0.950 . S
H1030 C1060 0.950 . S
H1031 C1061 0.950 . S
C1032 H1014 0.951 . S
C1032 C1033 1.366 . S
C1032 C1034 1.388 . S
C1033 C1032 1.366 . S
C1033 C1037 1.385 . S
C1034 H1015 0.951 . S
C1034 C1032 1.388 . S
C1034 C1035 1.366 . S
C1035 C1034 1.366 . S
C1035 C1036 1.414 . S
C1035 C1038 1.499 . S
C1036 H1016 0.950 . S
C1036 C1035 1.414 . S
C1036 C1037 1.374 . S
C1037 H1017 0.950 . S
C1037 C1033 1.385 . S
C1037 C1036 1.374 . S
C1038 C1035 1.499 . S
C1038 C1039 1.373 . S
C1038 C1040 1.389 . S
C1039 H1018 0.950 . S
C1039 C1038 1.373 . S
C1039 C1055 1.377 . S
C1040 C1038 1.389 . S
C1040 C1041 1.524 . S
C1040 C1054 1.377 . S
C1041 C1040 1.524 . S
C1041 C1042 1.397 . S
C1041 C1046 1.363 . S
C1042 H1019 0.950 . S
C1042 C1041 1.397 . S
C1042 C1043 1.334 . S
C1043 H1020 0.950 . S
C1043 C1042 1.334 . S
C1043 C1044 1.287 . S
C1044 C1043 1.287 . S
C1044 C1045 1.524 . S
C1044 H1063 0.913 . S
C1045 H1021 0.950 . S
C1045 C1044 1.524 . S
C1045 C1046 1.415 . S
C1046 H1022 0.950 . S
C1046 C1041 1.363 . S
C1046 C1045 1.415 . S
C1047 H1023 0.951 . S
C1047 C1048 1.366 . S
C1047 C1049 1.388 . S
C1048 C1047 1.366 . S
C1048 C1052 1.385 . S
C1049 H1024 0.951 . S
C1049 C1047 1.388 . S
C1049 C1050 1.366 . S
C1050 C1049 1.366 . S
C1050 C1051 1.414 . S
C1050 C1053 1.499 . S
C1051 H1025 0.950 . S
C1051 C1050 1.414 . S
C1051 C1052 1.374 . S
C1052 H1026 0.950 . S
C1052 C1048 1.385 . S
C1052 C1051 1.374 . S
C1053 C1050 1.499 . S
C1053 C1054 1.373 . S
C1053 C1055 1.389 . S
C1054 H1027 0.950 . S
C1054 C1040 1.377 . S
C1054 C1053 1.373 . S
C1055 C1039 1.377 . S
C1055 C1053 1.389 . S
C1055 C1056 1.524 . S
C1056 C1055 1.524 . S
C1056 C1057 1.397 . S
C1056 C1061 1.363 . S
C1057 H1028 0.950 . S
C1057 C1056 1.397 . S
C1057 C1058 1.334 . S
C1058 H1029 0.950 . S
C1058 C1057 1.334 . S
C1058 C1059 1.287 . S
C1059 C1058 1.287 . S
C1059 C1060 1.524 . S
C1059 H1062 0.999 . S
C1060 H1030 0.950 . S
C1060 C1059 1.524 . S
C1060 C1061 1.415 . S
C1061 H1031 0.950 . S
C1061 C1056 1.363 . S
C1061 C1060 1.415 . S
H1062 C1059 0.999 . S
H1063 C1044 0.913 . S
H1064 C1082 0.951 . S
H1065 C1084 0.951 . S
H1066 C1086 0.950 . S
H1067 C1087 0.950 . S
H1068 C1089 0.950 . S
H1069 C1092 0.950 . S
H1070 C1093 0.950 . S
H1071 C1095 0.950 . S
H1072 C1096 0.950 . S
H1073 C1097 0.951 . S
H1074 C1099 0.951 . S
H1075 C1101 0.950 1_545 S
H1076 C1102 0.950 . S
H1077 C1104 0.950 1_565 S
H1078 C1107 0.950 . S
H1079 C1108 0.950 . S
H1080 C1110 0.950 . S
H1081 C1111 0.950 . S
C1082 H1064 0.951 . S
C1082 C1083 1.366 . S
C1082 C1084 1.388 . S
C1083 C1082 1.366 . S
C1083 C1087 1.385 . S
C1084 H1065 0.951 . S
C1084 C1082 1.388 . S
C1084 C1085 1.366 . S
C1085 C1084 1.366 . S
C1085 C1086 1.414 . S
C1085 C1088 1.499 . S
C1086 H1066 0.950 . S
C1086 C1085 1.414 . S
C1086 C1087 1.374 . S
C1087 H1067 0.950 . S
C1087 C1083 1.385 . S
C1087 C1086 1.374 . S
C1088 C1085 1.499 . S
C1088 C1089 1.373 . S
C1088 C1090 1.389 . S
C1089 H1068 0.950 . S
C1089 C1088 1.373 . S
C1089 C1105 1.377 . S
C1090 C1088 1.389 . S
C1090 C1091 1.524 . S
C1090 C1104 1.377 . S
C1091 C1090 1.524 . S
C1091 C1092 1.397 1_545 S
C1091 C1096 1.363 . S
C1092 H1069 0.950 . S
C1092 C1091 1.397 1_565 S
C1092 C1093 1.334 . S
C1093 H1070 0.950 . S
C1093 C1092 1.334 . S
C1093 C1094 1.287 . S
C1094 C1093 1.287 . S
C1094 C1095 1.524 . S
C1094 H1113 0.913 . S
C1095 H1071 0.950 . S
C1095 C1094 1.524 . S
C1095 C1096 1.415 1_565 S
C1096 H1072 0.950 . S
C1096 C1091 1.363 . S
C1096 C1095 1.415 1_545 S
C1097 H1073 0.951 . S
C1097 C1098 1.366 . S
C1097 C1099 1.388 . S
C1098 C1097 1.366 . S
C1098 C1102 1.385 . S
C1099 H1074 0.951 . S
C1099 C1097 1.388 . S
C1099 C1100 1.366 . S
C1100 C1099 1.366 . S
C1100 C1101 1.414 . S
C1100 C1103 1.499 1_565 S
C1101 H1075 0.950 1_565 S
C1101 C1100 1.414 . S
C1101 C1102 1.374 . S
C1102 H1076 0.950 . S
C1102 C1098 1.385 . S
C1102 C1101 1.374 . S
C1103 C1100 1.499 1_545 S
C1103 C1104 1.373 . S
C1103 C1105 1.389 . S
C1104 H1077 0.950 1_545 S
C1104 C1090 1.377 . S
C1104 C1103 1.373 . S
C1105 C1089 1.377 . S
C1105 C1103 1.389 . S
C1105 C1106 1.524 . S
C1106 C1105 1.524 . S
C1106 C1107 1.397 . S
C1106 C1111 1.363 . S
C1107 H1078 0.950 . S
C1107 C1106 1.397 . S
C1107 C1108 1.334 . S
C1108 H1079 0.950 . S
C1108 C1107 1.334 . S
C1108 C1109 1.287 . S
C1109 C1108 1.287 . S
C1109 C1110 1.524 . S
C1109 H1112 0.999 . S
C1110 H1080 0.950 . S
C1110 C1109 1.524 . S
C1110 C1111 1.415 . S
C1111 H1081 0.950 . S
C1111 C1106 1.363 . S
C1111 C1110 1.415 . S
H1112 C1109 0.999 . S
H1113 C1094 0.913 . S
H1114 C1132 0.951 . S
H1115 C1134 0.951 . S
H1116 C1136 0.950 . S
H1117 C1137 0.950 . S
H1118 C1139 0.950 . S
H1119 C1142 0.950 . S
H1120 C1143 0.950 . S
H1121 C1145 0.950 . S
H1122 C1146 0.950 . S
H1123 C1147 0.937 1_545 S
H1124 C1149 0.951 . S
H1125 C1151 0.950 . S
H1126 C1152 0.950 . S
H1127 C1154 0.950 1_565 S
H1128 C1157 0.950 . S
H1129 C1158 0.950 . S
H1130 C1160 0.950 . S
H1131 C1161 0.950 . S
C1132 H1114 0.951 . S
C1132 C1133 1.366 . S
C1132 C1134 1.388 . S
C1133 C1132 1.366 . S
C1133 C1137 1.385 . S
C1134 H1115 0.951 . S
C1134 C1132 1.388 . S
C1134 C1135 1.366 . S
C1135 C1134 1.366 . S
C1135 C1136 1.414 . S
C1135 C1138 1.499 . S
C1136 H1116 0.950 . S
C1136 C1135 1.414 . S
C1136 C1137 1.374 . S
C1137 H1117 0.950 . S
C1137 C1133 1.385 . S
C1137 C1136 1.374 . S
C1138 C1135 1.499 . S
C1138 C1139 1.373 . S
C1138 C1140 1.389 1_554 S
C1139 H1118 0.950 . S
C1139 C1138 1.373 . S
C1139 C1155 1.377 . S
C1140 C1138 1.389 1_556 S
C1140 C1141 1.524 . S
C1140 C1154 1.377 . S
C1141 C1140 1.524 . S
C1141 C1142 1.397 . S
C1141 C1146 1.363 1_545 S
C1142 H1119 0.950 . S
C1142 C1141 1.397 . S
C1142 C1143 1.334 . S
C1143 H1120 0.950 . S
C1143 C1142 1.334 . S
C1143 C1144 1.287 . S
C1144 C1143 1.287 . S
C1144 C1145 1.524 1_545 S
C1144 H1163 0.913 . S
C1145 H1121 0.950 . S
C1145 C1144 1.524 1_565 S
C1145 C1146 1.415 . S
C1146 H1122 0.950 . S
C1146 C1141 1.363 1_565 S
C1146 C1145 1.415 . S
C1147 H1123 0.937 1_565 S
C1147 C1148 1.389 . S
C1147 C1149 1.378 1_565 S
C1148 C1147 1.389 . S
C1148 C1152 1.385 . S
C1149 H1124 0.951 . S
C1149 C1147 1.378 1_545 S
C1149 C1150 1.366 1_545 S
C1150 C1149 1.366 1_565 S
C1150 C1151 1.414 . S
C1150 C1153 1.499 1_565 S
C1151 H1125 0.950 . S
C1151 C1150 1.414 . S
C1151 C1152 1.374 . S
C1152 H1126 0.950 . S
C1152 C1148 1.385 . S
C1152 C1151 1.374 . S
C1153 C1150 1.499 1_545 S
C1153 C1154 1.373 . S
C1153 C1155 1.389 1_556 S
C1154 H1127 0.950 1_545 S
C1154 C1140 1.377 . S
C1154 C1153 1.373 . S
C1155 C1139 1.377 . S
C1155 C1153 1.389 1_554 S
C1155 C1156 1.524 . S
C1156 C1155 1.524 . S
C1156 C1157 1.397 1_545 S
C1156 C1161 1.363 . S
C1157 H1128 0.950 . S
C1157 C1156 1.397 1_565 S
C1157 C1158 1.334 . S
C1158 H1129 0.950 . S
C1158 C1157 1.334 . S
C1158 C1159 1.287 1_565 S
C1159 C1158 1.287 1_545 S
C1159 C1160 1.524 . S
C1159 H1162 0.999 . S
C1160 H1130 0.950 . S
C1160 C1159 1.524 . S
C1160 C1161 1.415 . S
C1161 H1131 0.950 . S
C1161 C1156 1.363 . S
C1161 C1160 1.415 . S
H1162 C1159 0.999 . S
H1163 C1144 0.913 . S
H1164 C1182 0.951 . S
H1165 C1184 0.951 . S
H1166 C1186 0.950 . S
H1167 C1187 0.950 . S
H1168 C1189 0.950 . S
H1169 C1192 0.950 . S
H1170 C1193 0.950 . S
H1171 C1195 0.950 . S
H1172 C1196 0.950 . S
H1173 C1197 0.951 . S
H1174 C1199 0.951 . S
H1175 C1201 0.950 . S
H1176 C1202 0.950 . S
H1177 C1204 0.950 . S
H1178 C1207 0.950 . S
H1179 C1208 0.950 . S
H1180 C1210 0.950 . S
H1181 C1211 0.950 . S
C1182 H1164 0.951 . S
C1182 C1183 1.366 . S
C1182 C1184 1.388 . S
C1183 C1182 1.366 . S
C1183 C1187 1.385 . S
C1184 H1165 0.951 . S
C1184 C1182 1.388 . S
C1184 C1185 1.366 . S
C1185 C1184 1.366 . S
C1185 C1186 1.414 . S
C1185 C1188 1.499 1_455 S
C1186 H1166 0.950 . S
C1186 C1185 1.414 . S
C1186 C1187 1.374 . S
C1187 H1167 0.950 . S
C1187 C1183 1.385 . S
C1187 C1186 1.374 . S
C1188 C1185 1.499 1_655 S
C1188 C1189 1.373 . S
C1188 C1190 1.389 1_655 S
C1189 H1168 0.950 . S
C1189 C1188 1.373 . S
C1189 C1205 1.377 . S
C1190 C1188 1.389 1_455 S
C1190 C1191 1.524 . S
C1190 C1204 1.377 1_455 S
C1191 C1190 1.524 . S
C1191 C1192 1.397 . S
C1191 C1196 1.363 . S
C1192 H1169 0.950 . S
C1192 C1191 1.397 . S
C1192 C1193 1.334 . S
C1193 H1170 0.950 . S
C1193 C1192 1.334 . S
C1193 C1194 1.287 . S
C1194 C1193 1.287 . S
C1194 C1195 1.524 . S
C1194 H1213 0.913 . S
C1195 H1171 0.950 . S
C1195 C1194 1.524 . S
C1195 C1196 1.415 . S
C1196 H1172 0.950 . S
C1196 C1191 1.363 . S
C1196 C1195 1.415 . S
C1197 H1173 0.951 . S
C1197 C1198 1.366 . S
C1197 C1199 1.388 . S
C1198 C1197 1.366 . S
C1198 C1202 1.385 . S
C1199 H1174 0.951 . S
C1199 C1197 1.388 . S
C1199 C1200 1.366 . S
C1200 C1199 1.366 . S
C1200 C1201 1.414 . S
C1200 C1203 1.499 . S
C1201 H1175 0.950 . S
C1201 C1200 1.414 . S
C1201 C1202 1.374 . S
C1202 H1176 0.950 . S
C1202 C1198 1.385 . S
C1202 C1201 1.374 . S
C1203 C1200 1.499 . S
C1203 C1204 1.373 . S
C1203 C1205 1.389 . S
C1204 H1177 0.950 . S
C1204 C1190 1.377 1_655 S
C1204 C1203 1.373 . S
C1205 C1189 1.377 . S
C1205 C1203 1.389 . S
C1205 C1206 1.524 . S
C1206 C1205 1.524 . S
C1206 C1207 1.397 . S
C1206 C1211 1.363 . S
C1207 H1178 0.950 . S
C1207 C1206 1.397 . S
C1207 C1208 1.334 . S
C1208 H1179 0.950 . S
C1208 C1207 1.334 . S
C1208 C1209 1.287 . S
C1209 C1208 1.287 . S
C1209 C1210 1.524 . S
C1209 H1212 0.999 . S
C1210 H1180 0.950 . S
C1210 C1209 1.524 . S
C1210 C1211 1.415 . S
C1211 H1181 0.950 . S
C1211 C1206 1.363 . S
C1211 C1210 1.415 . S
H1212 C1209 0.999 . S
H1213 C1194 0.913 . S
H1214 C1232 0.951 . S
H1215 C1234 0.951 . S
H1216 C1236 0.950 . S
H1217 C1237 0.950 . S
H1218 C1239 0.950 . S
H1219 C1242 0.950 . S
H1220 C1243 0.950 . S
H1221 C1245 0.950 . S
H1222 C1246 0.950 . S
H1223 C1247 0.951 . S
H1224 C1249 0.914 1_455 S
H1225 C1251 0.950 . S
H1226 C1252 0.950 . S
H1227 C1254 0.972 . S
H1228 C1257 0.950 1_655 S
H1229 C1258 0.931 1_655 S
H1230 C1260 0.950 . S
H1231 C1261 0.950 . S
C1232 H1214 0.951 . S
C1232 C1233 1.366 . S
C1232 C1234 1.388 . S
C1233 C1232 1.366 . S
C1233 C1237 1.385 . S
C1234 H1215 0.951 . S
C1234 C1232 1.388 . S
C1234 C1235 1.366 . S
C1235 C1234 1.366 . S
C1235 C1236 1.414 . S
C1235 C1238 1.499 . S
C1236 H1216 0.950 . S
C1236 C1235 1.414 . S
C1236 C1237 1.374 . S
C1237 H1217 0.950 . S
C1237 C1233 1.385 . S
C1237 C1236 1.374 . S
C1238 C1235 1.499 . S
C1238 C1239 1.373 1_554 S
C1238 C1240 1.389 . S
C1239 H1218 0.950 . S
C1239 C1238 1.373 1_556 S
C1239 C1255 1.377 . S
C1240 C1238 1.389 . S
C1240 C1241 1.524 . S
C1240 C1254 1.361 1_455 S
C1241 C1240 1.524 . S
C1241 C1242 1.397 . S
C1241 C1246 1.363 1_455 S
C1242 H1219 0.950 . S
C1242 C1241 1.397 . S
C1242 C1243 1.334 . S
C1243 H1220 0.950 . S
C1243 C1242 1.334 . S
C1243 C1244 1.287 . S
C1244 C1243 1.287 . S
C1244 C1245 1.524 1_455 S
C1244 H1263 0.913 . S
C1245 H1221 0.950 . S
C1245 C1244 1.524 1_655 S
C1245 C1246 1.415 . S
C1246 H1222 0.950 . S
C1246 C1241 1.363 1_655 S
C1246 C1245 1.415 . S
C1247 H1223 0.951 . S
C1247 C1248 1.366 . S
C1247 C1249 1.388 . S
C1248 C1247 1.366 . S
C1248 C1252 1.385 . S
C1249 H1224 0.914 1_655 S
C1249 C1247 1.388 . S
C1249 C1250 1.366 . S
C1250 C1249 1.366 . S
C1250 C1251 1.414 . S
C1250 C1253 1.499 1_655 S
C1251 H1225 0.950 . S
C1251 C1250 1.414 . S
C1251 C1252 1.374 . S
C1252 H1226 0.950 . S
C1252 C1248 1.385 . S
C1252 C1251 1.374 . S
C1253 C1250 1.499 1_455 S
C1253 C1254 1.367 1_456 S
C1253 C1255 1.389 . S
C1254 H1227 0.972 . S
C1254 C1240 1.361 1_655 S
C1254 C1253 1.367 1_654 S
C1255 C1239 1.377 . S
C1255 C1253 1.389 . S
C1255 C1256 1.524 . S
C1256 C1255 1.524 . S
C1256 C1257 1.397 . S
C1256 C1261 1.363 . S
C1257 H1228 0.950 1_455 S
C1257 C1256 1.397 . S
C1257 C1258 1.334 . S
C1258 H1229 0.931 1_455 S
C1258 C1257 1.334 . S
C1258 C1259 1.287 . S
C1259 C1258 1.287 . S
C1259 C1260 1.524 . S
C1259 H1262 0.999 . S
C1260 H1230 0.950 . S
C1260 C1259 1.524 . S
C1260 C1261 1.415 . S
C1261 H1231 0.950 . S
C1261 C1256 1.363 . S
C1261 C1260 1.415 . S
H1262 C1259 0.999 . S
H1263 C1244 0.913 . S
C283 C216 1.661 . S
C298 N13 1.621 . S
C333 N46 1.621 . S
C348 C249 1.661 . S
C383 C84 1.661 . S
C398 N145 1.620 . S
C433 C117 1.661 . S
C448 N178 1.621 . S
C483 N35 1.236 . S
C498 N2 1.237 . S
C533 C73 1.123 . S
C548 C106 1.125 . S
C583 N167 1.237 . S
C598 N134 1.236 . S
C633 C205 1.124 . S
C648 C238 1.124 . S
C683 C183 1.300 . S
C698 C21 1.305 1_565 S
C733 C54 1.305 1_565 S
C748 C150 1.300 . S
C783 C87 1.380 1_545 S
C798 N244 1.354 . S
C833 N211 1.355 . S
C848 C120 1.380 1_545 S
C883 C153 1.305 . S
C898 C51 1.300 . S
C933 C186 1.305 . S
C948 C18 1.300 . S
C983 C219 1.380 . S
C998 N112 1.355 . S
C1033 N79 1.354 . S
C1048 C252 1.380 . S
C1083 C7 1.518 . S
C1098 N68 1.487 . S
C1133 C40 1.518 . S
C1148 N101 1.488 . S
C1183 N200 1.488 . S
C1198 C139 1.518 . S
C1233 C172 1.518 . S
C1248 N233 1.487 . S
