# Generated by pormake.
# Topology zfg, (5)-cn, num edge types: 1
# Building blocks:
#     Node 0, Type 0, BuildingBlock: BEQFEK_clean_sbu_0, # of connection points: 5
#     Node 1, Type 0, BuildingBlock: BEQFEK_clean_sbu_0, # of connection points: 5
#     Node 2, Type 0, BuildingBlock: BEQFEK_clean_sbu_0, # of connection points: 5
#     Node 3, Type 0, BuildingBlock: BEQFEK_clean_sbu_0, # of connection points: 5
#     Node 4, Type 0, BuildingBlock: BEQFEK_clean_sbu_0, # of connection points: 5
#     Node 5, Type 0, BuildingBlock: BEQFEK_clean_sbu_0, # of connection points: 5
#     Node 6, Type 0, BuildingBlock: BEQFEK_clean_sbu_0, # of connection points: 5
#     Node 7, Type 0, BuildingBlock: BEQFEK_clean_sbu_0, # of connection points: 5
#     Node 8, Type 0, BuildingBlock: BEQFEK_clean_sbu_0, # of connection points: 5
#     Node 9, Type 0, BuildingBlock: BEQFEK_clean_sbu_0, # of connection points: 5
#     Node 10, Type 0, BuildingBlock: BEQFEK_clean_sbu_0, # of connection points: 5
#     Node 11, Type 0, BuildingBlock: BEQFEK_clean_sbu_0, # of connection points: 5
#     Node 12, Type 0, BuildingBlock: BEQFEK_clean_sbu_0, # of connection points: 5
#     Node 13, Type 0, BuildingBlock: BEQFEK_clean_sbu_0, # of connection points: 5
#     Node 14, Type 0, BuildingBlock: BEQFEK_clean_sbu_0, # of connection points: 5
#     Node 15, Type 0, BuildingBlock: BEQFEK_clean_sbu_0, # of connection points: 5
#     Edge 16, Type (0, 0), None
#     Edge 17, Type (0, 0), None
#     Edge 18, Type (0, 0), None
#     Edge 19, Type (0, 0), None
#     Edge 20, Type (0, 0), None
#     Edge 21, Type (0, 0), None
#     Edge 22, Type (0, 0), None
#     Edge 23, Type (0, 0), None
#     Edge 24, Type (0, 0), None
#     Edge 25, Type (0, 0), None
#     Edge 26, Type (0, 0), None
#     Edge 27, Type (0, 0), None
#     Edge 28, Type (0, 0), None
#     Edge 29, Type (0, 0), None
#     Edge 30, Type (0, 0), None
#     Edge 31, Type (0, 0), None
#     Edge 32, Type (0, 0), None
#     Edge 33, Type (0, 0), None
#     Edge 34, Type (0, 0), None
#     Edge 35, Type (0, 0), None
#     Edge 36, Type (0, 0), None
#     Edge 37, Type (0, 0), None
#     Edge 38, Type (0, 0), None
#     Edge 39, Type (0, 0), None
#     Edge 40, Type (0, 0), None
#     Edge 41, Type (0, 0), None
#     Edge 42, Type (0, 0), None
#     Edge 43, Type (0, 0), None
#     Edge 44, Type (0, 0), None
#     Edge 45, Type (0, 0), None
#     Edge 46, Type (0, 0), None
#     Edge 47, Type (0, 0), None
#     Edge 48, Type (0, 0), None
#     Edge 49, Type (0, 0), None
#     Edge 50, Type (0, 0), None
#     Edge 51, Type (0, 0), None
#     Edge 52, Type (0, 0), None
#     Edge 53, Type (0, 0), None
#     Edge 54, Type (0, 0), None
#     Edge 55, Type (0, 0), None
# Relax obj value: 0.076
# Max RMSD: 0.081
# Mean RMSD: 0.081
data_MOF--net-zfg--node1-BEQFEK_clean_sbu_0--edge1-none
_symmetry_space_group_name_H-M    P1
_symmetry_Int_Tables_number       1
_symmetry_cell_setting            triclinic
loop_
_symmetry_equiv_pos_as_xyz
'x, y, z'
_cell_length_a     23.150959
_cell_length_b     23.151286
_cell_length_c     26.229859
_cell_angle_alpha  89.998449
_cell_angle_beta   90.001566
_cell_angle_gamma 90.000007
loop_
_atom_site_label
_atom_site_type_symbol
_atom_site_fract_x
_atom_site_fract_y
_atom_site_fract_z
_atom_type_partial_charge
Co0 Co 0.09807 0.17782 0.14765 0.0
Co1 Co 0.05364 0.3041 0.13781 0.0
C2 C 0.09691 0.24688 0.04659 0.0
O3 O 0.10622 0.20036 0.07196 0.0
O4 O 0.07824 0.29264 0.068 0.0
C5 C 0.18442 0.08723 0.15548 0.0
O6 O 0.22172 0.12836 0.14517 0.0
C7 C 0.02903 0.43048 0.13295 0.0
C8 C 0.97307 0.43678 0.20113 0.0
C9 C 0.99809 0.46876 0.1627 0.0
N10 N 0.02231 0.37745 0.15285 0.0
N11 N 0.98799 0.38156 0.19301 0.0
C12 C 0.06864 0.44534 0.08998 0.0
H13 H 0.0846 0.40589 0.07062 0.0
H14 H 0.10582 0.47047 0.10483 0.0
H15 H 0.04564 0.47354 0.0626 0.0
C16 C 0.17058 0.2372 0.2312 0.0
N17 N 0.1318 0.23565 0.19229 0.0
N18 N 0.11577 0.28897 0.18253 0.0
C19 C 0.14644 0.32572 0.2115 0.0
C20 C 0.18146 0.29472 0.24436 0.0
C21 C 0.19354 0.18507 0.25797 0.0
H22 H 0.16435 0.14763 0.25225 0.0
H23 H 0.23677 0.17447 0.2423 0.0
H24 H 0.19873 0.19389 0.29933 0.0
O25 O 0.01407 0.16626 0.16003 0.0
O26 O 0.98467 0.25571 0.1474 0.0
H27 H 0.10217 0.40589 0.2233 0.0
H28 H 0.17973 0.41132 0.22742 0.0
C29 C 0.1434 0.39011 0.20712 0.0
H30 H 0.14511 0.40231 0.16636 0.0
H31 H 0.97659 0.34673 0.21618 0.0
O32 O 0.13119 0.09943 0.15875 0.0
C33 C 0.9737 0.20311 0.15599 0.0
Co34 Co 0.82245 0.09803 0.14769 0.0
Co35 Co 0.69617 0.05359 0.13783 0.0
C36 C 0.7534 0.09691 0.04662 0.0
O37 O 0.79991 0.10621 0.072 0.0
O38 O 0.70764 0.07823 0.06803 0.0
C39 C 0.91305 0.18436 0.15548 0.0
O40 O 0.87192 0.22164 0.14514 0.0
C41 C 0.5698 0.02896 0.13296 0.0
C42 C 0.56351 0.97297 0.20112 0.0
C43 C 0.53153 0.998 0.16271 0.0
N44 N 0.62283 0.02224 0.15286 0.0
N45 N 0.61872 0.9879 0.19301 0.0
C46 C 0.55494 0.06859 0.09 0.0
H47 H 0.59438 0.08459 0.07067 0.0
H48 H 0.52976 0.10574 0.10486 0.0
H49 H 0.52677 0.04559 0.06261 0.0
C50 C 0.76306 0.17053 0.23123 0.0
N51 N 0.76462 0.13174 0.19233 0.0
N52 N 0.7113 0.1157 0.18257 0.0
C53 C 0.67454 0.14635 0.21155 0.0
C54 C 0.70553 0.18138 0.2444 0.0
C55 C 0.81518 0.19353 0.25798 0.0
H56 H 0.85262 0.16434 0.25228 0.0
H57 H 0.82576 0.23675 0.24227 0.0
H58 H 0.80637 0.19876 0.29933 0.0
O59 O 0.83401 0.01404 0.16004 0.0
O60 O 0.74457 0.98462 0.1474 0.0
H61 H 0.59436 0.10207 0.22332 0.0
H62 H 0.58893 0.17963 0.22745 0.0
C63 C 0.61015 0.14331 0.20715 0.0
H64 H 0.59796 0.14503 0.16638 0.0
H65 H 0.65356 0.9765 0.21617 0.0
O66 O 0.90084 0.13113 0.1588 0.0
C67 C 0.79718 0.97366 0.15598 0.0
Co68 Co 0.90224 0.82243 0.14767 0.0
Co69 Co 0.94664 0.69614 0.13784 0.0
C70 C 0.90335 0.75341 0.04661 0.0
O71 O 0.89405 0.79992 0.07198 0.0
O72 O 0.92202 0.70765 0.06802 0.0
C73 C 0.81594 0.91302 0.15546 0.0
O74 O 0.77867 0.87188 0.1451 0.0
C75 C 0.97096 0.56972 0.13297 0.0
C76 C 0.02708 0.56331 0.20106 0.0
C77 C 0.00178 0.53138 0.16275 0.0
N78 N 0.9779 0.62275 0.15283 0.0
N79 N 0.01231 0.61857 0.19292 0.0
C80 C 0.93123 0.55495 0.09006 0.0
H81 H 0.9152 0.59443 0.07081 0.0
H82 H 0.89411 0.52974 0.10494 0.0
H83 H 0.95417 0.52684 0.06259 0.0
C84 C 0.82974 0.76311 0.23124 0.0
N85 N 0.86852 0.76463 0.19232 0.0
N86 N 0.88452 0.71129 0.18257 0.0
C87 C 0.85385 0.67457 0.21157 0.0
C88 C 0.81885 0.7056 0.24443 0.0
C89 C 0.8068 0.81525 0.25798 0.0
H90 H 0.83602 0.85267 0.25228 0.0
H91 H 0.76359 0.82588 0.24228 0.0
H92 H 0.80156 0.80645 0.29934 0.0
O93 O 0.98624 0.83396 0.16001 0.0
O94 O 0.01564 0.7445 0.14742 0.0
H95 H 0.89811 0.59438 0.22333 0.0
H96 H 0.82055 0.58899 0.22758 0.0
C97 C 0.85685 0.61018 0.20721 0.0
H98 H 0.85503 0.59796 0.16646 0.0
H99 H 0.02389 0.65338 0.21603 0.0
O100 O 0.86917 0.90082 0.15879 0.0
C101 C 0.02661 0.79711 0.15598 0.0
Co102 Co 0.17783 0.90221 0.14764 0.0
Co103 Co 0.30413 0.94659 0.13782 0.0
C104 C 0.24687 0.90335 0.04658 0.0
O105 O 0.20035 0.89405 0.07195 0.0
O106 O 0.29263 0.92201 0.068 0.0
C107 C 0.08726 0.81587 0.15546 0.0
O108 O 0.1284 0.77859 0.14514 0.0
C109 C 0.43056 0.97089 0.13297 0.0
C110 C 0.43697 0.02697 0.20108 0.0
C111 C 0.46891 0.0017 0.16276 0.0
N112 N 0.37753 0.97783 0.15282 0.0
N113 N 0.38172 0.01221 0.19293 0.0
C114 C 0.44532 0.93119 0.09004 0.0
H115 H 0.40584 0.91519 0.07076 0.0
H116 H 0.4705 0.89405 0.10491 0.0
H117 H 0.47347 0.95413 0.06258 0.0
C118 C 0.23714 0.8297 0.2312 0.0
N119 N 0.23563 0.86847 0.19228 0.0
N120 N 0.28897 0.88445 0.18253 0.0
C121 C 0.32568 0.85376 0.21152 0.0
C122 C 0.29465 0.81878 0.24439 0.0
C123 C 0.18499 0.80681 0.25798 0.0
H124 H 0.14758 0.83603 0.25225 0.0
H125 H 0.17435 0.76358 0.24232 0.0
H126 H 0.1938 0.80162 0.29934 0.0
O127 O 0.16631 0.98621 0.16 0.0
O128 O 0.25577 0.0156 0.14743 0.0
H129 H 0.40588 0.898 0.22331 0.0
H130 H 0.41126 0.82044 0.22753 0.0
C131 C 0.39008 0.85676 0.20718 0.0
H132 H 0.4023 0.85496 0.16642 0.0
H133 H 0.3469 0.02378 0.21604 0.0
O134 O 0.09944 0.86911 0.15874 0.0
C135 C 0.20317 0.02657 0.15599 0.0
Co136 Co 0.59806 0.32247 0.3893 0.0
Co137 Co 0.55363 0.19618 0.39912 0.0
C138 C 0.59702 0.25338 0.49033 0.0
O139 O 0.60629 0.29991 0.46497 0.0
O140 O 0.57834 0.20763 0.46892 0.0
C141 C 0.68435 0.41309 0.38156 0.0
O142 O 0.72163 0.37197 0.39194 0.0
C143 C 0.52902 0.06981 0.40402 0.0
C144 C 0.47287 0.06352 0.33595 0.0
C145 C 0.49799 0.03154 0.37433 0.0
N146 N 0.52225 0.12284 0.38412 0.0
N147 N 0.48784 0.11873 0.34403 0.0
C148 C 0.5687 0.05495 0.44693 0.0
H149 H 0.58465 0.09439 0.46631 0.0
H150 H 0.60589 0.02987 0.43201 0.0
H151 H 0.54577 0.02669 0.47431 0.0
C152 C 0.67045 0.26317 0.30565 0.0
N153 N 0.63173 0.26467 0.34461 0.0
N154 N 0.61567 0.21134 0.35431 0.0
C155 C 0.64621 0.17462 0.3252 0.0
C156 C 0.68113 0.20568 0.29231 0.0
C157 C 0.69349 0.31534 0.27899 0.0
H158 H 0.66428 0.35277 0.28471 0.0
H159 H 0.73667 0.32592 0.29478 0.0
H160 H 0.69879 0.3066 0.23764 0.0
O161 O 0.51406 0.33402 0.37699 0.0
O162 O 0.48464 0.24458 0.38962 0.0
H163 H 0.60184 0.0945 0.31335 0.0
H164 H 0.67939 0.08902 0.30911 0.0
C165 C 0.64312 0.11022 0.32949 0.0
H166 H 0.6449 0.09794 0.37023 0.0
H167 H 0.47638 0.15356 0.32089 0.0
O168 O 0.63113 0.40087 0.3782 0.0
C169 C 0.47368 0.29719 0.38105 0.0
Co170 Co 0.67779 0.59812 0.38933 0.0
Co171 Co 0.80409 0.5537 0.39914 0.0
C172 C 0.74689 0.59704 0.49036 0.0
O173 O 0.70036 0.60632 0.465 0.0
O174 O 0.79264 0.57838 0.46894 0.0
C175 C 0.58718 0.68444 0.38156 0.0
O176 O 0.62831 0.72173 0.3919 0.0
C177 C 0.93047 0.52911 0.40402 0.0
C178 C 0.93676 0.47301 0.33593 0.0
C179 C 0.96874 0.4981 0.37432 0.0
N180 N 0.87744 0.52235 0.38412 0.0
N181 N 0.88155 0.48796 0.34402 0.0
C182 C 0.94533 0.56877 0.44695 0.0
H183 H 0.90589 0.58468 0.46635 0.0
H184 H 0.97037 0.60598 0.43205 0.0
H185 H 0.97361 0.54584 0.47431 0.0
C186 C 0.73707 0.67053 0.30569 0.0
N187 N 0.73558 0.63181 0.34465 0.0
N188 N 0.78892 0.61577 0.35435 0.0
C189 C 0.82563 0.64632 0.32525 0.0
C190 C 0.79457 0.68124 0.29235 0.0
C191 C 0.6849 0.69351 0.279 0.0
H192 H 0.64748 0.6643 0.28474 0.0
H193 H 0.67431 0.73671 0.29474 0.0
H194 H 0.69365 0.69876 0.23764 0.0
O195 O 0.66624 0.51411 0.377 0.0
O196 O 0.7557 0.48472 0.38961 0.0
H197 H 0.90576 0.60197 0.31336 0.0
H198 H 0.91123 0.67953 0.30916 0.0
C199 C 0.89004 0.64324 0.32953 0.0
H200 H 0.90233 0.645 0.37027 0.0
H201 H 0.84672 0.47651 0.32087 0.0
O202 O 0.59939 0.63122 0.37825 0.0
C203 C 0.70309 0.47375 0.38104 0.0
Co204 Co 0.40216 0.67783 0.38935 0.0
Co205 Co 0.44652 0.80415 0.39913 0.0
C206 C 0.40322 0.74691 0.49037 0.0
O207 O 0.39394 0.70038 0.46501 0.0
O208 O 0.42187 0.79266 0.46894 0.0
C209 C 0.31585 0.58724 0.38158 0.0
O210 O 0.27858 0.62837 0.39193 0.0
C211 C 0.47081 0.93058 0.40401 0.0
C212 C 0.52704 0.93699 0.33599 0.0
C213 C 0.50168 0.96892 0.37428 0.0
N214 N 0.47778 0.87755 0.38416 0.0
N215 N 0.51226 0.88173 0.34411 0.0
C216 C 0.43105 0.94534 0.44689 0.0
H217 H 0.4151 0.90586 0.46621 0.0
H218 H 0.39387 0.97043 0.43197 0.0
H219 H 0.45392 0.97356 0.47433 0.0
C220 C 0.32974 0.73705 0.30568 0.0
N221 N 0.36845 0.7356 0.34466 0.0
N222 N 0.38446 0.78895 0.35435 0.0
C223 C 0.35388 0.82563 0.32522 0.0
C224 C 0.319 0.79453 0.29233 0.0
C225 C 0.30682 0.68485 0.27899 0.0
H226 H 0.33607 0.64746 0.28474 0.0
H227 H 0.26363 0.67422 0.29473 0.0
H228 H 0.30156 0.69359 0.23763 0.0
O229 O 0.48617 0.66632 0.37702 0.0
O230 O 0.51555 0.7558 0.38958 0.0
H231 H 0.39821 0.90577 0.31335 0.0
H232 H 0.32065 0.91119 0.30903 0.0
C233 C 0.35692 0.89004 0.32946 0.0
H234 H 0.35507 0.90235 0.37019 0.0
H235 H 0.52388 0.84692 0.32102 0.0
O236 O 0.36908 0.59944 0.37825 0.0
C237 C 0.52653 0.70319 0.38104 0.0
Co238 Co 0.32244 0.40222 0.38931 0.0
Co239 Co 0.19613 0.4466 0.39911 0.0
C240 C 0.25337 0.40325 0.49034 0.0
O241 O 0.2999 0.39398 0.46498 0.0
O242 O 0.20761 0.42191 0.46892 0.0
C243 C 0.41303 0.31594 0.38158 0.0
O244 O 0.37191 0.27868 0.39197 0.0
C245 C 0.0697 0.4709 0.404 0.0
C246 C 0.06329 0.52717 0.336 0.0
C247 C 0.03136 0.5018 0.37428 0.0
N248 N 0.12273 0.47788 0.38415 0.0
N249 N 0.11855 0.51237 0.34411 0.0
C250 C 0.05493 0.43112 0.44687 0.0
H251 H 0.09441 0.41513 0.46616 0.0
H252 H 0.02981 0.39398 0.43194 0.0
H253 H 0.02674 0.454 0.47433 0.0
C254 C 0.2632 0.32982 0.30565 0.0
N255 N 0.26466 0.36853 0.34462 0.0
N256 N 0.21132 0.38456 0.3543 0.0
C257 C 0.17463 0.354 0.32518 0.0
C258 C 0.20572 0.3191 0.29229 0.0
C259 C 0.31539 0.30685 0.27899 0.0
H260 H 0.35279 0.33609 0.28471 0.0
H261 H 0.32602 0.26368 0.29476 0.0
H262 H 0.30666 0.30155 0.23763 0.0
O263 O 0.33395 0.48623 0.37701 0.0
O264 O 0.24449 0.51562 0.38959 0.0
H265 H 0.09449 0.39833 0.31334 0.0
H266 H 0.08905 0.32078 0.309 0.0
C267 C 0.11022 0.35704 0.32943 0.0
H268 H 0.09792 0.35517 0.37017 0.0
H269 H 0.15337 0.524 0.32103 0.0
O270 O 0.40084 0.36917 0.37821 0.0
C271 C 0.2971 0.52659 0.38104 0.0
Co272 Co 0.90219 0.82247 0.8893 0.0
Co273 Co 0.94661 0.69619 0.89914 0.0
C274 C 0.90333 0.7534 0.99036 0.0
O275 O 0.89404 0.79993 0.96499 0.0
O276 O 0.92201 0.70765 0.96895 0.0
C277 C 0.81584 0.91307 0.88147 0.0
O278 O 0.77854 0.87194 0.89178 0.0
C279 C 0.97123 0.5698 0.90399 0.0
C280 C 0.02719 0.56352 0.83581 0.0
C281 C 0.00217 0.53153 0.87424 0.0
N282 N 0.97795 0.62284 0.88409 0.0
N283 N 0.01226 0.61873 0.84393 0.0
C284 C 0.93162 0.55495 0.94697 0.0
H285 H 0.91568 0.59439 0.96634 0.0
H286 H 0.89443 0.52984 0.93211 0.0
H287 H 0.95461 0.52672 0.97432 0.0
C288 C 0.82968 0.7631 0.80575 0.0
N289 N 0.86846 0.76465 0.84466 0.0
N290 N 0.88448 0.71132 0.85442 0.0
C291 C 0.85381 0.67458 0.82545 0.0
C292 C 0.81879 0.70558 0.79258 0.0
C293 C 0.80672 0.81523 0.77898 0.0
H294 H 0.83591 0.85266 0.7847 0.0
H295 H 0.76349 0.82582 0.79465 0.0
H296 H 0.80153 0.80641 0.73762 0.0
O297 O 0.98618 0.83403 0.87692 0.0
O298 O 0.01559 0.74458 0.88955 0.0
H299 H 0.89808 0.5944 0.81364 0.0
H300 H 0.82052 0.58898 0.80953 0.0
C301 C 0.85685 0.61018 0.82983 0.0
H302 H 0.85514 0.59798 0.87059 0.0
H303 H 0.02366 0.65356 0.82077 0.0
O304 O 0.86907 0.90086 0.8782 0.0
C305 C 0.02656 0.79718 0.88097 0.0
Co306 Co 0.17781 0.90225 0.88926 0.0
Co307 Co 0.30409 0.94669 0.89912 0.0
C308 C 0.24687 0.90336 0.99033 0.0
O309 O 0.20035 0.89408 0.96495 0.0
O310 O 0.29263 0.92205 0.96892 0.0
C311 C 0.08721 0.81593 0.88147 0.0
O312 O 0.12834 0.77864 0.89181 0.0
C313 C 0.43047 0.97132 0.90398 0.0
C314 C 0.43675 0.02732 0.83582 0.0
C315 C 0.46874 0.00228 0.87424 0.0
N316 N 0.37743 0.97804 0.88408 0.0
N317 N 0.38154 0.01237 0.84393 0.0
C318 C 0.44533 0.9317 0.94694 0.0
H319 H 0.40589 0.91572 0.9663 0.0
H320 H 0.47048 0.89453 0.93207 0.0
H321 H 0.47353 0.95469 0.97432 0.0
C322 C 0.2372 0.82975 0.80572 0.0
N323 N 0.23564 0.86854 0.84462 0.0
N324 N 0.28896 0.88458 0.85438 0.0
C325 C 0.32572 0.85393 0.8254 0.0
C326 C 0.29472 0.8189 0.79254 0.0
C327 C 0.18508 0.80676 0.77897 0.0
H328 H 0.14763 0.83594 0.78467 0.0
H329 H 0.17449 0.76354 0.79468 0.0
H330 H 0.19389 0.80152 0.73762 0.0
O331 O 0.16625 0.98624 0.87691 0.0
O332 O 0.25569 0.01566 0.88956 0.0
H333 H 0.4059 0.89821 0.81363 0.0
H334 H 0.41133 0.82065 0.8095 0.0
C335 C 0.39011 0.85697 0.8298 0.0
H336 H 0.4023 0.85524 0.87056 0.0
H337 H 0.3467 0.02378 0.82077 0.0
O338 O 0.09942 0.86916 0.87816 0.0
C339 C 0.20309 0.02662 0.88097 0.0
Co340 Co 0.09802 0.17785 0.88928 0.0
Co341 Co 0.05364 0.30415 0.89911 0.0
C342 C 0.09693 0.24689 0.99033 0.0
O343 O 0.10621 0.20037 0.96497 0.0
O344 O 0.07825 0.29265 0.96892 0.0
C345 C 0.18433 0.08727 0.88149 0.0
O346 O 0.2216 0.1284 0.89185 0.0
C347 C 0.02931 0.43057 0.90397 0.0
C348 C 0.97319 0.43698 0.83588 0.0
C349 C 0.99848 0.46891 0.87419 0.0
N350 N 0.02237 0.37754 0.88412 0.0
N351 N 0.98796 0.38172 0.84402 0.0
C352 C 0.06903 0.44535 0.94688 0.0
H353 H 0.08505 0.40587 0.96616 0.0
H354 H 0.10617 0.47053 0.932 0.0
H355 H 0.0461 0.47349 0.97434 0.0
C356 C 0.17052 0.23718 0.80571 0.0
N357 N 0.13175 0.23566 0.84463 0.0
N358 N 0.11575 0.28899 0.85438 0.0
C359 C 0.14642 0.32571 0.82538 0.0
C360 C 0.18142 0.29469 0.79252 0.0
C361 C 0.19346 0.18503 0.77897 0.0
H362 H 0.16424 0.14762 0.78467 0.0
H363 H 0.23667 0.1744 0.79467 0.0
H364 H 0.1987 0.19383 0.73761 0.0
O365 O 0.01403 0.16633 0.87694 0.0
O366 O 0.98463 0.25579 0.88953 0.0
H367 H 0.10216 0.40591 0.81362 0.0
H368 H 0.17972 0.41129 0.80937 0.0
C369 C 0.14342 0.39011 0.82973 0.0
H370 H 0.14524 0.40232 0.87049 0.0
H371 H 0.97638 0.3469 0.82092 0.0
O372 O 0.13109 0.09946 0.87816 0.0
C373 C 0.97366 0.20318 0.88097 0.0
Co374 Co 0.82244 0.09808 0.88931 0.0
Co375 Co 0.69613 0.05371 0.89913 0.0
C376 C 0.75339 0.09695 0.99037 0.0
O377 O 0.79991 0.10624 0.965 0.0
O378 O 0.70763 0.07829 0.96895 0.0
C379 C 0.91301 0.18442 0.88149 0.0
O380 O 0.87187 0.2217 0.89181 0.0
C381 C 0.5697 0.0294 0.90397 0.0
C382 C 0.56329 0.97332 0.83586 0.0
C383 C 0.53136 0.9986 0.87419 0.0
N384 N 0.62273 0.02247 0.88412 0.0
N385 N 0.61855 0.98809 0.84401 0.0
C386 C 0.55493 0.0691 0.9469 0.0
H387 H 0.59441 0.08508 0.9662 0.0
H388 H 0.52978 0.10626 0.93203 0.0
H389 H 0.52676 0.04617 0.97434 0.0
C390 C 0.76313 0.1706 0.80575 0.0
N391 N 0.76463 0.13183 0.84467 0.0
N392 N 0.7113 0.11585 0.85442 0.0
C393 C 0.67458 0.14654 0.82543 0.0
C394 C 0.70562 0.18152 0.79256 0.0
C395 C 0.81528 0.19349 0.77897 0.0
H396 H 0.85269 0.16426 0.7847 0.0
H397 H 0.82592 0.23671 0.79463 0.0
H398 H 0.80647 0.19868 0.73761 0.0
O399 O 0.83395 0.01408 0.87695 0.0
O400 O 0.74449 0.9847 0.88952 0.0
H401 H 0.59438 0.1023 0.81363 0.0
H402 H 0.58901 0.17986 0.80942 0.0
C403 C 0.61018 0.14355 0.82977 0.0
H404 H 0.59796 0.14534 0.87053 0.0
H405 H 0.65337 0.97652 0.8209 0.0
O406 O 0.90082 0.13118 0.87821 0.0
C407 C 0.79709 0.97372 0.88096 0.0
Co408 Co 0.4022 0.67782 0.64765 0.0
Co409 Co 0.44663 0.80411 0.63783 0.0
C410 C 0.40322 0.74691 0.54662 0.0
O411 O 0.39397 0.70038 0.57198 0.0
O412 O 0.42191 0.79266 0.56803 0.0
C413 C 0.31591 0.58719 0.65538 0.0
O414 O 0.27862 0.62831 0.64501 0.0
C415 C 0.47124 0.93048 0.63294 0.0
C416 C 0.52738 0.93677 0.70101 0.0
C417 C 0.50227 0.96875 0.66263 0.0
N418 N 0.478 0.87745 0.65283 0.0
N419 N 0.51241 0.88155 0.69292 0.0
C420 C 0.43156 0.94535 0.59002 0.0
H421 H 0.41563 0.90591 0.57063 0.0
H422 H 0.39435 0.9704 0.60494 0.0
H423 H 0.45448 0.97363 0.56266 0.0
C424 C 0.3298 0.73711 0.73129 0.0
N425 N 0.36852 0.73561 0.69233 0.0
N426 N 0.38459 0.78894 0.68264 0.0
C427 C 0.35405 0.82566 0.71175 0.0
C428 C 0.31912 0.79461 0.74464 0.0
C429 C 0.30677 0.68494 0.75795 0.0
H430 H 0.33598 0.64751 0.75224 0.0
H431 H 0.26359 0.67436 0.74217 0.0
H432 H 0.30147 0.69368 0.79931 0.0
O433 O 0.4862 0.66627 0.65996 0.0
O434 O 0.51561 0.75571 0.64733 0.0
H435 H 0.39841 0.90578 0.7236 0.0
H436 H 0.32086 0.91126 0.72784 0.0
C437 C 0.35713 0.89006 0.70746 0.0
H438 H 0.35535 0.90235 0.66671 0.0
H439 H 0.52387 0.84672 0.71606 0.0
O440 O 0.36913 0.59941 0.65875 0.0
C441 C 0.52657 0.70311 0.6559 0.0
Co442 Co 0.32247 0.40216 0.64761 0.0
Co443 Co 0.19617 0.44658 0.63781 0.0
C444 C 0.25337 0.40323 0.54659 0.0
O445 O 0.2999 0.39397 0.57194 0.0
O446 O 0.20761 0.4219 0.56801 0.0
C447 C 0.41308 0.31584 0.65538 0.0
O448 O 0.37196 0.27855 0.64505 0.0
C449 C 0.06979 0.47117 0.63293 0.0
C450 C 0.0635 0.52727 0.70102 0.0
C451 C 0.03152 0.50218 0.66264 0.0
N452 N 0.12282 0.47793 0.65283 0.0
N453 N 0.11872 0.51232 0.69293 0.0
C454 C 0.05493 0.43151 0.59 0.0
H455 H 0.09437 0.41563 0.57058 0.0
H456 H 0.02991 0.39429 0.60491 0.0
H457 H 0.02662 0.45444 0.56266 0.0
C458 C 0.26319 0.32976 0.73126 0.0
N459 N 0.26468 0.36847 0.69229 0.0
N460 N 0.21134 0.38451 0.68259 0.0
C461 C 0.17463 0.35396 0.7117 0.0
C462 C 0.2057 0.31905 0.7446 0.0
C463 C 0.31537 0.30678 0.75795 0.0
H464 H 0.35279 0.33599 0.75221 0.0
H465 H 0.32596 0.26358 0.74221 0.0
H466 H 0.30662 0.30152 0.79931 0.0
O467 O 0.33402 0.48617 0.65995 0.0
O468 O 0.24456 0.51556 0.64734 0.0
H469 H 0.09451 0.3983 0.72358 0.0
H470 H 0.08904 0.32075 0.72779 0.0
C471 C 0.11023 0.35704 0.70742 0.0
H472 H 0.09794 0.35528 0.66668 0.0
H473 H 0.15355 0.52376 0.71608 0.0
O474 O 0.40087 0.36907 0.6587 0.0
C475 C 0.29717 0.52654 0.65591 0.0
Co476 Co 0.59811 0.32246 0.6476 0.0
Co477 Co 0.55375 0.19614 0.63781 0.0
C478 C 0.59706 0.25338 0.54658 0.0
O479 O 0.60632 0.29991 0.57193 0.0
O480 O 0.5784 0.20762 0.568 0.0
C481 C 0.68441 0.41306 0.65536 0.0
O482 O 0.72169 0.37193 0.64501 0.0
C483 C 0.52946 0.06971 0.63294 0.0
C484 C 0.47323 0.0633 0.70096 0.0
C485 C 0.49858 0.03137 0.66268 0.0
N486 N 0.52249 0.12274 0.65279 0.0
N487 N 0.48802 0.11856 0.69284 0.0
C488 C 0.56922 0.05494 0.59006 0.0
H489 H 0.58514 0.09442 0.57073 0.0
H490 H 0.60641 0.02988 0.60499 0.0
H491 H 0.54635 0.02669 0.56263 0.0
C492 C 0.67052 0.26325 0.73126 0.0
N493 N 0.63182 0.26469 0.69229 0.0
N494 N 0.61581 0.21134 0.6826 0.0
C495 C 0.64639 0.17466 0.71172 0.0
C496 C 0.68127 0.20577 0.74462 0.0
C497 C 0.69344 0.31544 0.75795 0.0
H498 H 0.6642 0.35283 0.75221 0.0
H499 H 0.73664 0.32608 0.74222 0.0
H500 H 0.6987 0.3067 0.79931 0.0
O501 O 0.5141 0.33397 0.65992 0.0
O502 O 0.48472 0.24449 0.64736 0.0
H503 H 0.60207 0.09453 0.7236 0.0
H504 H 0.67962 0.0891 0.72792 0.0
C505 C 0.64336 0.11026 0.70749 0.0
H506 H 0.64521 0.09794 0.66675 0.0
H507 H 0.4764 0.15337 0.71593 0.0
O508 O 0.63118 0.40085 0.65869 0.0
C509 C 0.47374 0.2971 0.65591 0.0
Co510 Co 0.67782 0.59807 0.64763 0.0
Co511 Co 0.80414 0.5537 0.63783 0.0
C512 C 0.7469 0.59706 0.54661 0.0
O513 O 0.70036 0.60631 0.57197 0.0
O514 O 0.79265 0.57839 0.56803 0.0
C515 C 0.58722 0.68435 0.65536 0.0
O516 O 0.62835 0.72162 0.64498 0.0
C517 C 0.93056 0.52939 0.63296 0.0
C518 C 0.93696 0.47313 0.70095 0.0
C519 C 0.9689 0.4985 0.66268 0.0
N520 N 0.87753 0.52242 0.6528 0.0
N521 N 0.88171 0.48793 0.69284 0.0
C522 C 0.94534 0.56917 0.59008 0.0
H523 H 0.90586 0.58514 0.57078 0.0
H524 H 0.97043 0.60633 0.60502 0.0
H525 H 0.97356 0.5463 0.56264 0.0
C526 C 0.73705 0.67047 0.7313 0.0
N527 N 0.7356 0.63176 0.69233 0.0
N528 N 0.78894 0.61574 0.68264 0.0
C529 C 0.82563 0.6463 0.71177 0.0
C530 C 0.79454 0.68119 0.74466 0.0
C531 C 0.68486 0.69344 0.75796 0.0
H532 H 0.64746 0.6642 0.75224 0.0
H533 H 0.67424 0.73661 0.74219 0.0
H534 H 0.69359 0.69874 0.79932 0.0
O535 O 0.66631 0.51407 0.65994 0.0
O536 O 0.75578 0.48468 0.64736 0.0
H537 H 0.90577 0.60197 0.72361 0.0
H538 H 0.9112 0.67952 0.72795 0.0
C539 C 0.89004 0.64327 0.70752 0.0
H540 H 0.90234 0.64513 0.66678 0.0
H541 H 0.84689 0.4763 0.71593 0.0
O542 O 0.59942 0.63112 0.65873 0.0
C543 C 0.70317 0.47371 0.6559 0.0
loop_
_geom_bond_atom_site_label_1
_geom_bond_atom_site_label_2
_geom_bond_distance
_geom_bond_site_symmetry_2
_ccdc_geom_bond_type
Co0 O3 1.970 . S
Co0 N17 1.989 . S
Co0 O25 1.967 . S
Co0 O32 1.920 . S
Co1 O4 1.966 . S
Co1 N10 2.022 . S
Co1 N18 1.993 . S
Co1 O26 1.941 1_455 S
C2 O3 1.258 . S
C2 O4 1.263 . S
O3 Co0 1.970 . S
O3 C2 1.258 . S
O4 Co1 1.966 . S
O4 C2 1.263 . S
C5 O6 1.235 . S
C5 O32 1.289 . S
O6 C5 1.235 . S
C7 C9 1.400 . S
C7 N10 1.351 . S
C7 C12 1.501 . S
C8 C9 1.387 1_655 S
C8 N11 1.341 . S
C9 C7 1.400 . S
C9 C8 1.387 1_455 S
N10 Co1 2.022 . S
N10 C7 1.351 . S
N10 N11 1.365 1_455 S
N11 C8 1.341 . S
N11 N10 1.365 1_655 S
N11 H31 0.862 . S
C12 C7 1.501 . S
C12 H13 0.961 . S
C12 H14 0.961 . S
C12 H15 0.960 . S
H13 C12 0.961 . S
H14 C12 0.961 . S
H15 C12 0.960 . S
C16 N17 1.342 . S
C16 C20 1.401 . S
C16 C21 1.499 . S
N17 Co0 1.989 . S
N17 C16 1.342 . S
N17 N18 1.388 . S
N18 Co1 1.993 . S
N18 N17 1.388 . S
N18 C19 1.346 . S
C19 N18 1.346 . S
C19 C20 1.396 . S
C19 C29 1.510 . S
C20 C16 1.401 . S
C20 C19 1.396 . S
C21 C16 1.499 . S
C21 H22 0.959 . S
C21 H23 0.960 . S
C21 H24 0.961 . S
H22 C21 0.959 . S
H23 C21 0.960 . S
H24 C21 0.961 . S
O25 Co0 1.967 . S
O25 C33 1.258 1_455 S
O26 Co1 1.941 1_655 S
O26 C33 1.266 . S
H27 C29 0.959 . S
H28 C29 0.961 . S
C29 C19 1.510 . S
C29 H27 0.959 . S
C29 H28 0.961 . S
C29 H30 0.960 . S
H30 C29 0.960 . S
H31 N11 0.862 . S
O32 Co0 1.920 . S
O32 C5 1.289 . S
C33 O25 1.258 1_655 S
C33 O26 1.266 . S
Co34 O37 1.970 . S
Co34 N51 1.989 . S
Co34 O59 1.967 . S
Co34 O66 1.920 . S
Co35 O38 1.966 . S
Co35 N44 2.022 . S
Co35 N52 1.993 . S
Co35 O60 1.941 1_545 S
C36 O37 1.258 . S
C36 O38 1.263 . S
O37 Co34 1.970 . S
O37 C36 1.258 . S
O38 Co35 1.966 . S
O38 C36 1.263 . S
C39 O40 1.235 . S
C39 O66 1.289 . S
O40 C39 1.235 . S
C41 C43 1.400 . S
C41 N44 1.351 . S
C41 C46 1.501 . S
C42 C43 1.387 1_565 S
C42 N45 1.341 . S
C43 C41 1.400 . S
C43 C42 1.387 1_545 S
N44 Co35 2.022 . S
N44 C41 1.351 . S
N44 N45 1.365 1_545 S
N45 C42 1.341 . S
N45 N44 1.365 1_565 S
N45 H65 0.862 . S
C46 C41 1.501 . S
C46 H47 0.961 . S
C46 H48 0.961 . S
C46 H49 0.960 . S
H47 C46 0.961 . S
H48 C46 0.961 . S
H49 C46 0.960 . S
C50 N51 1.342 . S
C50 C54 1.401 . S
C50 C55 1.499 . S
N51 Co34 1.989 . S
N51 C50 1.342 . S
N51 N52 1.388 . S
N52 Co35 1.993 . S
N52 N51 1.388 . S
N52 C53 1.346 . S
C53 N52 1.346 . S
C53 C54 1.396 . S
C53 C63 1.510 . S
C54 C50 1.401 . S
C54 C53 1.396 . S
C55 C50 1.499 . S
C55 H56 0.959 . S
C55 H57 0.960 . S
C55 H58 0.961 . S
H56 C55 0.959 . S
H57 C55 0.960 . S
H58 C55 0.961 . S
O59 Co34 1.967 . S
O59 C67 1.258 1_545 S
O60 Co35 1.941 1_565 S
O60 C67 1.266 . S
H61 C63 0.959 . S
H62 C63 0.961 . S
C63 C53 1.510 . S
C63 H61 0.959 . S
C63 H62 0.961 . S
C63 H64 0.960 . S
H64 C63 0.960 . S
H65 N45 0.862 . S
O66 Co34 1.920 . S
O66 C39 1.289 . S
C67 O59 1.258 1_565 S
C67 O60 1.266 . S
Co68 O71 1.970 . S
Co68 N85 1.989 . S
Co68 O93 1.967 . S
Co68 O100 1.920 . S
Co69 O72 1.966 . S
Co69 N78 2.022 . S
Co69 N86 1.993 . S
Co69 O94 1.941 1_655 S
C70 O71 1.258 . S
C70 O72 1.263 . S
O71 Co68 1.970 . S
O71 C70 1.258 . S
O72 Co69 1.966 . S
O72 C70 1.263 . S
C73 O74 1.235 . S
C73 O100 1.289 . S
O74 C73 1.235 . S
C75 C77 1.400 . S
C75 N78 1.351 . S
C75 C80 1.501 . S
C76 C77 1.387 1_455 S
C76 N79 1.341 . S
C77 C75 1.400 . S
C77 C76 1.387 1_655 S
N78 Co69 2.022 . S
N78 C75 1.351 . S
N78 N79 1.365 1_655 S
N79 C76 1.341 . S
N79 N78 1.365 1_455 S
N79 H99 0.862 . S
C80 C75 1.501 . S
C80 H81 0.961 . S
C80 H82 0.961 . S
C80 H83 0.960 . S
H81 C80 0.961 . S
H82 C80 0.961 . S
H83 C80 0.960 . S
C84 N85 1.342 . S
C84 C88 1.401 . S
C84 C89 1.499 . S
N85 Co68 1.989 . S
N85 C84 1.342 . S
N85 N86 1.388 . S
N86 Co69 1.993 . S
N86 N85 1.388 . S
N86 C87 1.346 . S
C87 N86 1.346 . S
C87 C88 1.396 . S
C87 C97 1.510 . S
C88 C84 1.401 . S
C88 C87 1.396 . S
C89 C84 1.499 . S
C89 H90 0.959 . S
C89 H91 0.960 . S
C89 H92 0.961 . S
H90 C89 0.959 . S
H91 C89 0.960 . S
H92 C89 0.961 . S
O93 Co68 1.967 . S
O93 C101 1.258 1_655 S
O94 Co69 1.941 1_455 S
O94 C101 1.266 . S
H95 C97 0.959 . S
H96 C97 0.961 . S
C97 C87 1.510 . S
C97 H95 0.959 . S
C97 H96 0.961 . S
C97 H98 0.960 . S
H98 C97 0.960 . S
H99 N79 0.862 . S
O100 Co68 1.920 . S
O100 C73 1.289 . S
C101 O93 1.258 1_455 S
C101 O94 1.266 . S
Co102 O105 1.970 . S
Co102 N119 1.989 . S
Co102 O127 1.967 . S
Co102 O134 1.920 . S
Co103 O106 1.966 . S
Co103 N112 2.022 . S
Co103 N120 1.993 . S
Co103 O128 1.941 1_565 S
C104 O105 1.258 . S
C104 O106 1.263 . S
O105 Co102 1.970 . S
O105 C104 1.258 . S
O106 Co103 1.966 . S
O106 C104 1.263 . S
C107 O108 1.235 . S
C107 O134 1.289 . S
O108 C107 1.235 . S
C109 C111 1.400 . S
C109 N112 1.351 . S
C109 C114 1.501 . S
C110 C111 1.387 1_545 S
C110 N113 1.341 . S
C111 C109 1.400 . S
C111 C110 1.387 1_565 S
N112 Co103 2.022 . S
N112 C109 1.351 . S
N112 N113 1.365 1_565 S
N113 C110 1.341 . S
N113 N112 1.365 1_545 S
N113 H133 0.862 . S
C114 C109 1.501 . S
C114 H115 0.961 . S
C114 H116 0.961 . S
C114 H117 0.960 . S
H115 C114 0.961 . S
H116 C114 0.961 . S
H117 C114 0.960 . S
C118 N119 1.342 . S
C118 C122 1.401 . S
C118 C123 1.499 . S
N119 Co102 1.989 . S
N119 C118 1.342 . S
N119 N120 1.388 . S
N120 Co103 1.993 . S
N120 N119 1.388 . S
N120 C121 1.346 . S
C121 N120 1.346 . S
C121 C122 1.396 . S
C121 C131 1.510 . S
C122 C118 1.401 . S
C122 C121 1.396 . S
C123 C118 1.499 . S
C123 H124 0.959 . S
C123 H125 0.960 . S
C123 H126 0.961 . S
H124 C123 0.959 . S
H125 C123 0.960 . S
H126 C123 0.961 . S
O127 Co102 1.967 . S
O127 C135 1.258 1_565 S
O128 Co103 1.941 1_545 S
O128 C135 1.266 . S
H129 C131 0.959 . S
H130 C131 0.961 . S
C131 C121 1.510 . S
C131 H129 0.959 . S
C131 H130 0.961 . S
C131 H132 0.960 . S
H132 C131 0.960 . S
H133 N113 0.862 . S
O134 Co102 1.920 . S
O134 C107 1.289 . S
C135 O127 1.258 1_545 S
C135 O128 1.266 . S
Co136 O139 1.970 . S
Co136 N153 1.989 . S
Co136 O161 1.967 . S
Co136 O168 1.920 . S
Co137 O140 1.966 . S
Co137 N146 2.022 . S
Co137 N154 1.993 . S
Co137 O162 1.941 . S
C138 O139 1.258 . S
C138 O140 1.263 . S
O139 Co136 1.970 . S
O139 C138 1.258 . S
O140 Co137 1.966 . S
O140 C138 1.263 . S
C141 O142 1.235 . S
C141 O168 1.289 . S
O142 C141 1.235 . S
C143 C145 1.400 . S
C143 N146 1.351 . S
C143 C148 1.501 . S
C144 C145 1.387 . S
C144 N147 1.341 . S
C145 C143 1.400 . S
C145 C144 1.387 . S
N146 Co137 2.022 . S
N146 C143 1.351 . S
N146 N147 1.365 . S
N147 C144 1.341 . S
N147 N146 1.365 . S
N147 H167 0.862 . S
C148 C143 1.501 . S
C148 H149 0.961 . S
C148 H150 0.961 . S
C148 H151 0.960 . S
H149 C148 0.961 . S
H150 C148 0.961 . S
H151 C148 0.960 . S
C152 N153 1.342 . S
C152 C156 1.401 . S
C152 C157 1.499 . S
N153 Co136 1.989 . S
N153 C152 1.342 . S
N153 N154 1.388 . S
N154 Co137 1.993 . S
N154 N153 1.388 . S
N154 C155 1.346 . S
C155 N154 1.346 . S
C155 C156 1.396 . S
C155 C165 1.510 . S
C156 C152 1.401 . S
C156 C155 1.396 . S
C157 C152 1.499 . S
C157 H158 0.959 . S
C157 H159 0.960 . S
C157 H160 0.961 . S
H158 C157 0.959 . S
H159 C157 0.960 . S
H160 C157 0.961 . S
O161 Co136 1.967 . S
O161 C169 1.258 . S
O162 Co137 1.941 . S
O162 C169 1.266 . S
H163 C165 0.959 . S
H164 C165 0.961 . S
C165 C155 1.510 . S
C165 H163 0.959 . S
C165 H164 0.961 . S
C165 H166 0.960 . S
H166 C165 0.960 . S
H167 N147 0.862 . S
O168 Co136 1.920 . S
O168 C141 1.289 . S
C169 O161 1.258 . S
C169 O162 1.266 . S
Co170 O173 1.970 . S
Co170 N187 1.989 . S
Co170 O195 1.967 . S
Co170 O202 1.920 . S
Co171 O174 1.966 . S
Co171 N180 2.022 . S
Co171 N188 1.993 . S
Co171 O196 1.941 . S
C172 O173 1.258 . S
C172 O174 1.263 . S
O173 Co170 1.970 . S
O173 C172 1.258 . S
O174 Co171 1.966 . S
O174 C172 1.263 . S
C175 O176 1.235 . S
C175 O202 1.289 . S
O176 C175 1.235 . S
C177 C179 1.400 . S
C177 N180 1.351 . S
C177 C182 1.501 . S
C178 C179 1.387 . S
C178 N181 1.341 . S
C179 C177 1.400 . S
C179 C178 1.387 . S
N180 Co171 2.022 . S
N180 C177 1.351 . S
N180 N181 1.365 . S
N181 C178 1.341 . S
N181 N180 1.365 . S
N181 H201 0.862 . S
C182 C177 1.501 . S
C182 H183 0.961 . S
C182 H184 0.961 . S
C182 H185 0.960 . S
H183 C182 0.961 . S
H184 C182 0.961 . S
H185 C182 0.960 . S
C186 N187 1.342 . S
C186 C190 1.401 . S
C186 C191 1.499 . S
N187 Co170 1.989 . S
N187 C186 1.342 . S
N187 N188 1.388 . S
N188 Co171 1.993 . S
N188 N187 1.388 . S
N188 C189 1.346 . S
C189 N188 1.346 . S
C189 C190 1.396 . S
C189 C199 1.510 . S
C190 C186 1.401 . S
C190 C189 1.396 . S
C191 C186 1.499 . S
C191 H192 0.959 . S
C191 H193 0.960 . S
C191 H194 0.961 . S
H192 C191 0.959 . S
H193 C191 0.960 . S
H194 C191 0.961 . S
O195 Co170 1.967 . S
O195 C203 1.258 . S
O196 Co171 1.941 . S
O196 C203 1.266 . S
H197 C199 0.959 . S
H198 C199 0.961 . S
C199 C189 1.510 . S
C199 H197 0.959 . S
C199 H198 0.961 . S
C199 H200 0.960 . S
H200 C199 0.960 . S
H201 N181 0.862 . S
O202 Co170 1.920 . S
O202 C175 1.289 . S
C203 O195 1.258 . S
C203 O196 1.266 . S
Co204 O207 1.970 . S
Co204 N221 1.989 . S
Co204 O229 1.967 . S
Co204 O236 1.920 . S
Co205 O208 1.966 . S
Co205 N214 2.022 . S
Co205 N222 1.993 . S
Co205 O230 1.941 . S
C206 O207 1.258 . S
C206 O208 1.263 . S
O207 Co204 1.970 . S
O207 C206 1.258 . S
O208 Co205 1.966 . S
O208 C206 1.263 . S
C209 O210 1.235 . S
C209 O236 1.289 . S
O210 C209 1.235 . S
C211 C213 1.400 . S
C211 N214 1.351 . S
C211 C216 1.501 . S
C212 C213 1.387 . S
C212 N215 1.341 . S
C213 C211 1.400 . S
C213 C212 1.387 . S
N214 Co205 2.022 . S
N214 C211 1.351 . S
N214 N215 1.365 . S
N215 C212 1.341 . S
N215 N214 1.365 . S
N215 H235 0.862 . S
C216 C211 1.501 . S
C216 H217 0.961 . S
C216 H218 0.961 . S
C216 H219 0.960 . S
H217 C216 0.961 . S
H218 C216 0.961 . S
H219 C216 0.960 . S
C220 N221 1.342 . S
C220 C224 1.401 . S
C220 C225 1.499 . S
N221 Co204 1.989 . S
N221 C220 1.342 . S
N221 N222 1.388 . S
N222 Co205 1.993 . S
N222 N221 1.388 . S
N222 C223 1.346 . S
C223 N222 1.346 . S
C223 C224 1.396 . S
C223 C233 1.510 . S
C224 C220 1.401 . S
C224 C223 1.396 . S
C225 C220 1.499 . S
C225 H226 0.959 . S
C225 H227 0.960 . S
C225 H228 0.961 . S
H226 C225 0.959 . S
H227 C225 0.960 . S
H228 C225 0.961 . S
O229 Co204 1.967 . S
O229 C237 1.258 . S
O230 Co205 1.941 . S
O230 C237 1.266 . S
H231 C233 0.959 . S
H232 C233 0.961 . S
C233 C223 1.510 . S
C233 H231 0.959 . S
C233 H232 0.961 . S
C233 H234 0.960 . S
H234 C233 0.960 . S
H235 N215 0.862 . S
O236 Co204 1.920 . S
O236 C209 1.289 . S
C237 O229 1.258 . S
C237 O230 1.266 . S
Co238 O241 1.970 . S
Co238 N255 1.989 . S
Co238 O263 1.967 . S
Co238 O270 1.920 . S
Co239 O242 1.966 . S
Co239 N248 2.022 . S
Co239 N256 1.993 . S
Co239 O264 1.941 . S
C240 O241 1.258 . S
C240 O242 1.263 . S
O241 Co238 1.970 . S
O241 C240 1.258 . S
O242 Co239 1.966 . S
O242 C240 1.263 . S
C243 O244 1.235 . S
C243 O270 1.289 . S
O244 C243 1.235 . S
C245 C247 1.400 . S
C245 N248 1.351 . S
C245 C250 1.501 . S
C246 C247 1.387 . S
C246 N249 1.341 . S
C247 C245 1.400 . S
C247 C246 1.387 . S
N248 Co239 2.022 . S
N248 C245 1.351 . S
N248 N249 1.365 . S
N249 C246 1.341 . S
N249 N248 1.365 . S
N249 H269 0.862 . S
C250 C245 1.501 . S
C250 H251 0.961 . S
C250 H252 0.961 . S
C250 H253 0.960 . S
H251 C250 0.961 . S
H252 C250 0.961 . S
H253 C250 0.960 . S
C254 N255 1.342 . S
C254 C258 1.401 . S
C254 C259 1.499 . S
N255 Co238 1.989 . S
N255 C254 1.342 . S
N255 N256 1.388 . S
N256 Co239 1.993 . S
N256 N255 1.388 . S
N256 C257 1.346 . S
C257 N256 1.346 . S
C257 C258 1.396 . S
C257 C267 1.510 . S
C258 C254 1.401 . S
C258 C257 1.396 . S
C259 C254 1.499 . S
C259 H260 0.959 . S
C259 H261 0.960 . S
C259 H262 0.961 . S
H260 C259 0.959 . S
H261 C259 0.960 . S
H262 C259 0.961 . S
O263 Co238 1.967 . S
O263 C271 1.258 . S
O264 Co239 1.941 . S
O264 C271 1.266 . S
H265 C267 0.959 . S
H266 C267 0.961 . S
C267 C257 1.510 . S
C267 H265 0.959 . S
C267 H266 0.961 . S
C267 H268 0.960 . S
H268 C267 0.960 . S
H269 N249 0.862 . S
O270 Co238 1.920 . S
O270 C243 1.289 . S
C271 O263 1.258 . S
C271 O264 1.266 . S
Co272 O275 1.970 . S
Co272 N289 1.989 . S
Co272 O297 1.967 . S
Co272 O304 1.920 . S
Co273 O276 1.966 . S
Co273 N282 2.022 . S
Co273 N290 1.993 . S
Co273 O298 1.941 1_655 S
C274 O275 1.258 . S
C274 O276 1.263 . S
O275 Co272 1.970 . S
O275 C274 1.258 . S
O276 Co273 1.966 . S
O276 C274 1.263 . S
C277 O278 1.235 . S
C277 O304 1.289 . S
O278 C277 1.235 . S
C279 C281 1.400 . S
C279 N282 1.351 . S
C279 C284 1.501 . S
C280 C281 1.387 1_455 S
C280 N283 1.341 . S
C281 C279 1.400 . S
C281 C280 1.387 1_655 S
N282 Co273 2.022 . S
N282 C279 1.351 . S
N282 N283 1.365 1_655 S
N283 C280 1.341 . S
N283 N282 1.365 1_455 S
N283 H303 0.862 . S
C284 C279 1.501 . S
C284 H285 0.961 . S
C284 H286 0.961 . S
C284 H287 0.960 . S
H285 C284 0.961 . S
H286 C284 0.961 . S
H287 C284 0.960 . S
C288 N289 1.342 . S
C288 C292 1.401 . S
C288 C293 1.499 . S
N289 Co272 1.989 . S
N289 C288 1.342 . S
N289 N290 1.388 . S
N290 Co273 1.993 . S
N290 N289 1.388 . S
N290 C291 1.346 . S
C291 N290 1.346 . S
C291 C292 1.396 . S
C291 C301 1.510 . S
C292 C288 1.401 . S
C292 C291 1.396 . S
C293 C288 1.499 . S
C293 H294 0.959 . S
C293 H295 0.960 . S
C293 H296 0.961 . S
H294 C293 0.959 . S
H295 C293 0.960 . S
H296 C293 0.961 . S
O297 Co272 1.967 . S
O297 C305 1.258 1_655 S
O298 Co273 1.941 1_455 S
O298 C305 1.266 . S
H299 C301 0.959 . S
H300 C301 0.961 . S
C301 C291 1.510 . S
C301 H299 0.959 . S
C301 H300 0.961 . S
C301 H302 0.960 . S
H302 C301 0.960 . S
H303 N283 0.862 . S
O304 Co272 1.920 . S
O304 C277 1.289 . S
C305 O297 1.258 1_455 S
C305 O298 1.266 . S
Co306 O309 1.970 . S
Co306 N323 1.989 . S
Co306 O331 1.967 . S
Co306 O338 1.920 . S
Co307 O310 1.966 . S
Co307 N316 2.022 . S
Co307 N324 1.993 . S
Co307 O332 1.941 1_565 S
C308 O309 1.258 . S
C308 O310 1.263 . S
O309 Co306 1.970 . S
O309 C308 1.258 . S
O310 Co307 1.966 . S
O310 C308 1.263 . S
C311 O312 1.235 . S
C311 O338 1.289 . S
O312 C311 1.235 . S
C313 C315 1.400 . S
C313 N316 1.351 . S
C313 C318 1.501 . S
C314 C315 1.387 1_545 S
C314 N317 1.341 . S
C315 C313 1.400 . S
C315 C314 1.387 1_565 S
N316 Co307 2.022 . S
N316 C313 1.351 . S
N316 N317 1.365 1_565 S
N317 C314 1.341 . S
N317 N316 1.365 1_545 S
N317 H337 0.862 . S
C318 C313 1.501 . S
C318 H319 0.961 . S
C318 H320 0.961 . S
C318 H321 0.960 . S
H319 C318 0.961 . S
H320 C318 0.961 . S
H321 C318 0.960 . S
C322 N323 1.342 . S
C322 C326 1.401 . S
C322 C327 1.499 . S
N323 Co306 1.989 . S
N323 C322 1.342 . S
N323 N324 1.388 . S
N324 Co307 1.993 . S
N324 N323 1.388 . S
N324 C325 1.346 . S
C325 N324 1.346 . S
C325 C326 1.396 . S
C325 C335 1.510 . S
C326 C322 1.401 . S
C326 C325 1.396 . S
C327 C322 1.499 . S
C327 H328 0.959 . S
C327 H329 0.960 . S
C327 H330 0.961 . S
H328 C327 0.959 . S
H329 C327 0.960 . S
H330 C327 0.961 . S
O331 Co306 1.967 . S
O331 C339 1.258 1_565 S
O332 Co307 1.941 1_545 S
O332 C339 1.266 . S
H333 C335 0.959 . S
H334 C335 0.961 . S
C335 C325 1.510 . S
C335 H333 0.959 . S
C335 H334 0.961 . S
C335 H336 0.960 . S
H336 C335 0.960 . S
H337 N317 0.862 . S
O338 Co306 1.920 . S
O338 C311 1.289 . S
C339 O331 1.258 1_545 S
C339 O332 1.266 . S
Co340 O343 1.970 . S
Co340 N357 1.989 . S
Co340 O365 1.967 . S
Co340 O372 1.920 . S
Co341 O344 1.966 . S
Co341 N350 2.022 . S
Co341 N358 1.993 . S
Co341 O366 1.941 1_455 S
C342 O343 1.258 . S
C342 O344 1.263 . S
O343 Co340 1.970 . S
O343 C342 1.258 . S
O344 Co341 1.966 . S
O344 C342 1.263 . S
C345 O346 1.235 . S
C345 O372 1.289 . S
O346 C345 1.235 . S
C347 C349 1.400 . S
C347 N350 1.351 . S
C347 C352 1.501 . S
C348 C349 1.387 1_655 S
C348 N351 1.341 . S
C349 C347 1.400 . S
C349 C348 1.387 1_455 S
N350 Co341 2.022 . S
N350 C347 1.351 . S
N350 N351 1.365 1_455 S
N351 C348 1.341 . S
N351 N350 1.365 1_655 S
N351 H371 0.862 . S
C352 C347 1.501 . S
C352 H353 0.961 . S
C352 H354 0.961 . S
C352 H355 0.960 . S
H353 C352 0.961 . S
H354 C352 0.961 . S
H355 C352 0.960 . S
C356 N357 1.342 . S
C356 C360 1.401 . S
C356 C361 1.499 . S
N357 Co340 1.989 . S
N357 C356 1.342 . S
N357 N358 1.388 . S
N358 Co341 1.993 . S
N358 N357 1.388 . S
N358 C359 1.346 . S
C359 N358 1.346 . S
C359 C360 1.396 . S
C359 C369 1.510 . S
C360 C356 1.401 . S
C360 C359 1.396 . S
C361 C356 1.499 . S
C361 H362 0.959 . S
C361 H363 0.960 . S
C361 H364 0.961 . S
H362 C361 0.959 . S
H363 C361 0.960 . S
H364 C361 0.961 . S
O365 Co340 1.967 . S
O365 C373 1.258 1_455 S
O366 Co341 1.941 1_655 S
O366 C373 1.266 . S
H367 C369 0.959 . S
H368 C369 0.961 . S
C369 C359 1.510 . S
C369 H367 0.959 . S
C369 H368 0.961 . S
C369 H370 0.960 . S
H370 C369 0.960 . S
H371 N351 0.862 . S
O372 Co340 1.920 . S
O372 C345 1.289 . S
C373 O365 1.258 1_655 S
C373 O366 1.266 . S
Co374 O377 1.970 . S
Co374 N391 1.989 . S
Co374 O399 1.967 . S
Co374 O406 1.920 . S
Co375 O378 1.966 . S
Co375 N384 2.022 . S
Co375 N392 1.993 . S
Co375 O400 1.941 1_545 S
C376 O377 1.258 . S
C376 O378 1.263 . S
O377 Co374 1.970 . S
O377 C376 1.258 . S
O378 Co375 1.966 . S
O378 C376 1.263 . S
C379 O380 1.235 . S
C379 O406 1.289 . S
O380 C379 1.235 . S
C381 C383 1.400 . S
C381 N384 1.351 . S
C381 C386 1.501 . S
C382 C383 1.387 1_565 S
C382 N385 1.341 . S
C383 C381 1.400 . S
C383 C382 1.387 1_545 S
N384 Co375 2.022 . S
N384 C381 1.351 . S
N384 N385 1.365 1_545 S
N385 C382 1.341 . S
N385 N384 1.365 1_565 S
N385 H405 0.862 . S
C386 C381 1.501 . S
C386 H387 0.961 . S
C386 H388 0.961 . S
C386 H389 0.960 . S
H387 C386 0.961 . S
H388 C386 0.961 . S
H389 C386 0.960 . S
C390 N391 1.342 . S
C390 C394 1.401 . S
C390 C395 1.499 . S
N391 Co374 1.989 . S
N391 C390 1.342 . S
N391 N392 1.388 . S
N392 Co375 1.993 . S
N392 N391 1.388 . S
N392 C393 1.346 . S
C393 N392 1.346 . S
C393 C394 1.396 . S
C393 C403 1.510 . S
C394 C390 1.401 . S
C394 C393 1.396 . S
C395 C390 1.499 . S
C395 H396 0.959 . S
C395 H397 0.960 . S
C395 H398 0.961 . S
H396 C395 0.959 . S
H397 C395 0.960 . S
H398 C395 0.961 . S
O399 Co374 1.967 . S
O399 C407 1.258 1_545 S
O400 Co375 1.941 1_565 S
O400 C407 1.266 . S
H401 C403 0.959 . S
H402 C403 0.961 . S
C403 C393 1.510 . S
C403 H401 0.959 . S
C403 H402 0.961 . S
C403 H404 0.960 . S
H404 C403 0.960 . S
H405 N385 0.862 . S
O406 Co374 1.920 . S
O406 C379 1.289 . S
C407 O399 1.258 1_565 S
C407 O400 1.266 . S
Co408 O411 1.970 . S
Co408 N425 1.989 . S
Co408 O433 1.967 . S
Co408 O440 1.920 . S
Co409 O412 1.966 . S
Co409 N418 2.022 . S
Co409 N426 1.993 . S
Co409 O434 1.941 . S
C410 O411 1.258 . S
C410 O412 1.263 . S
O411 Co408 1.970 . S
O411 C410 1.258 . S
O412 Co409 1.966 . S
O412 C410 1.263 . S
C413 O414 1.235 . S
C413 O440 1.289 . S
O414 C413 1.235 . S
C415 C417 1.400 . S
C415 N418 1.351 . S
C415 C420 1.501 . S
C416 C417 1.387 . S
C416 N419 1.341 . S
C417 C415 1.400 . S
C417 C416 1.387 . S
N418 Co409 2.022 . S
N418 C415 1.351 . S
N418 N419 1.365 . S
N419 C416 1.341 . S
N419 N418 1.365 . S
N419 H439 0.862 . S
C420 C415 1.501 . S
C420 H421 0.961 . S
C420 H422 0.961 . S
C420 H423 0.960 . S
H421 C420 0.961 . S
H422 C420 0.961 . S
H423 C420 0.960 . S
C424 N425 1.342 . S
C424 C428 1.401 . S
C424 C429 1.499 . S
N425 Co408 1.989 . S
N425 C424 1.342 . S
N425 N426 1.388 . S
N426 Co409 1.993 . S
N426 N425 1.388 . S
N426 C427 1.346 . S
C427 N426 1.346 . S
C427 C428 1.396 . S
C427 C437 1.510 . S
C428 C424 1.401 . S
C428 C427 1.396 . S
C429 C424 1.499 . S
C429 H430 0.959 . S
C429 H431 0.960 . S
C429 H432 0.961 . S
H430 C429 0.959 . S
H431 C429 0.960 . S
H432 C429 0.961 . S
O433 Co408 1.967 . S
O433 C441 1.258 . S
O434 Co409 1.941 . S
O434 C441 1.266 . S
H435 C437 0.959 . S
H436 C437 0.961 . S
C437 C427 1.510 . S
C437 H435 0.959 . S
C437 H436 0.961 . S
C437 H438 0.960 . S
H438 C437 0.960 . S
H439 N419 0.862 . S
O440 Co408 1.920 . S
O440 C413 1.289 . S
C441 O433 1.258 . S
C441 O434 1.266 . S
Co442 O445 1.970 . S
Co442 N459 1.989 . S
Co442 O467 1.967 . S
Co442 O474 1.920 . S
Co443 O446 1.966 . S
Co443 N452 2.022 . S
Co443 N460 1.993 . S
Co443 O468 1.941 . S
C444 O445 1.258 . S
C444 O446 1.263 . S
O445 Co442 1.970 . S
O445 C444 1.258 . S
O446 Co443 1.966 . S
O446 C444 1.263 . S
C447 O448 1.235 . S
C447 O474 1.289 . S
O448 C447 1.235 . S
C449 C451 1.400 . S
C449 N452 1.351 . S
C449 C454 1.501 . S
C450 C451 1.387 . S
C450 N453 1.341 . S
C451 C449 1.400 . S
C451 C450 1.387 . S
N452 Co443 2.022 . S
N452 C449 1.351 . S
N452 N453 1.365 . S
N453 C450 1.341 . S
N453 N452 1.365 . S
N453 H473 0.862 . S
C454 C449 1.501 . S
C454 H455 0.961 . S
C454 H456 0.961 . S
C454 H457 0.960 . S
H455 C454 0.961 . S
H456 C454 0.961 . S
H457 C454 0.960 . S
C458 N459 1.342 . S
C458 C462 1.401 . S
C458 C463 1.499 . S
N459 Co442 1.989 . S
N459 C458 1.342 . S
N459 N460 1.388 . S
N460 Co443 1.993 . S
N460 N459 1.388 . S
N460 C461 1.346 . S
C461 N460 1.346 . S
C461 C462 1.396 . S
C461 C471 1.510 . S
C462 C458 1.401 . S
C462 C461 1.396 . S
C463 C458 1.499 . S
C463 H464 0.959 . S
C463 H465 0.960 . S
C463 H466 0.961 . S
H464 C463 0.959 . S
H465 C463 0.960 . S
H466 C463 0.961 . S
O467 Co442 1.967 . S
O467 C475 1.258 . S
O468 Co443 1.941 . S
O468 C475 1.266 . S
H469 C471 0.959 . S
H470 C471 0.961 . S
C471 C461 1.510 . S
C471 H469 0.959 . S
C471 H470 0.961 . S
C471 H472 0.960 . S
H472 C471 0.960 . S
H473 N453 0.862 . S
O474 Co442 1.920 . S
O474 C447 1.289 . S
C475 O467 1.258 . S
C475 O468 1.266 . S
Co476 O479 1.970 . S
Co476 N493 1.989 . S
Co476 O501 1.967 . S
Co476 O508 1.920 . S
Co477 O480 1.966 . S
Co477 N486 2.022 . S
Co477 N494 1.993 . S
Co477 O502 1.941 . S
C478 O479 1.258 . S
C478 O480 1.263 . S
O479 Co476 1.970 . S
O479 C478 1.258 . S
O480 Co477 1.966 . S
O480 C478 1.263 . S
C481 O482 1.235 . S
C481 O508 1.289 . S
O482 C481 1.235 . S
C483 C485 1.400 . S
C483 N486 1.351 . S
C483 C488 1.501 . S
C484 C485 1.387 . S
C484 N487 1.341 . S
C485 C483 1.400 . S
C485 C484 1.387 . S
N486 Co477 2.022 . S
N486 C483 1.351 . S
N486 N487 1.365 . S
N487 C484 1.341 . S
N487 N486 1.365 . S
N487 H507 0.862 . S
C488 C483 1.501 . S
C488 H489 0.961 . S
C488 H490 0.961 . S
C488 H491 0.960 . S
H489 C488 0.961 . S
H490 C488 0.961 . S
H491 C488 0.960 . S
C492 N493 1.342 . S
C492 C496 1.401 . S
C492 C497 1.499 . S
N493 Co476 1.989 . S
N493 C492 1.342 . S
N493 N494 1.388 . S
N494 Co477 1.993 . S
N494 N493 1.388 . S
N494 C495 1.346 . S
C495 N494 1.346 . S
C495 C496 1.396 . S
C495 C505 1.510 . S
C496 C492 1.401 . S
C496 C495 1.396 . S
C497 C492 1.499 . S
C497 H498 0.959 . S
C497 H499 0.960 . S
C497 H500 0.961 . S
H498 C497 0.959 . S
H499 C497 0.960 . S
H500 C497 0.961 . S
O501 Co476 1.967 . S
O501 C509 1.258 . S
O502 Co477 1.941 . S
O502 C509 1.266 . S
H503 C505 0.959 . S
H504 C505 0.961 . S
C505 C495 1.510 . S
C505 H503 0.959 . S
C505 H504 0.961 . S
C505 H506 0.960 . S
H506 C505 0.960 . S
H507 N487 0.862 . S
O508 Co476 1.920 . S
O508 C481 1.289 . S
C509 O501 1.258 . S
C509 O502 1.266 . S
Co510 O513 1.970 . S
Co510 N527 1.989 . S
Co510 O535 1.967 . S
Co510 O542 1.920 . S
Co511 O514 1.966 . S
Co511 N520 2.022 . S
Co511 N528 1.993 . S
Co511 O536 1.941 . S
C512 O513 1.258 . S
C512 O514 1.263 . S
O513 Co510 1.970 . S
O513 C512 1.258 . S
O514 Co511 1.966 . S
O514 C512 1.263 . S
C515 O516 1.235 . S
C515 O542 1.289 . S
O516 C515 1.235 . S
C517 C519 1.400 . S
C517 N520 1.351 . S
C517 C522 1.501 . S
C518 C519 1.387 . S
C518 N521 1.341 . S
C519 C517 1.400 . S
C519 C518 1.387 . S
N520 Co511 2.022 . S
N520 C517 1.351 . S
N520 N521 1.365 . S
N521 C518 1.341 . S
N521 N520 1.365 . S
N521 H541 0.862 . S
C522 C517 1.501 . S
C522 H523 0.961 . S
C522 H524 0.961 . S
C522 H525 0.960 . S
H523 C522 0.961 . S
H524 C522 0.961 . S
H525 C522 0.960 . S
C526 N527 1.342 . S
C526 C530 1.401 . S
C526 C531 1.499 . S
N527 Co510 1.989 . S
N527 C526 1.342 . S
N527 N528 1.388 . S
N528 Co511 1.993 . S
N528 N527 1.388 . S
N528 C529 1.346 . S
C529 N528 1.346 . S
C529 C530 1.396 . S
C529 C539 1.510 . S
C530 C526 1.401 . S
C530 C529 1.396 . S
C531 C526 1.499 . S
C531 H532 0.959 . S
C531 H533 0.960 . S
C531 H534 0.961 . S
H532 C531 0.959 . S
H533 C531 0.960 . S
H534 C531 0.961 . S
O535 Co510 1.967 . S
O535 C543 1.258 . S
O536 Co511 1.941 . S
O536 C543 1.266 . S
H537 C539 0.959 . S
H538 C539 0.961 . S
C539 C529 1.510 . S
C539 H537 0.959 . S
C539 H538 0.961 . S
C539 H540 0.960 . S
H540 C539 0.960 . S
H541 N521 0.862 . S
O542 Co510 1.920 . S
O542 C515 1.289 . S
C543 O535 1.258 . S
C543 O536 1.266 . S
C342 C2 1.587 1_556 S
C376 C36 1.587 1_556 S
C274 C70 1.587 1_556 S
C308 C104 1.587 1_556 S
C138 C478 1.587 . S
C172 C512 1.587 . S
C410 C206 1.587 . S
C444 C240 1.587 . S
C135 C5 1.776 . S
C39 C33 1.776 . S
C67 C73 1.776 . S
C107 C101 1.776 . S
C203 C141 1.776 . S
C237 C175 1.776 . S
C271 C209 1.776 . S
C243 C169 1.776 . S
C277 C407 1.776 . S
C311 C305 1.776 . S
C339 C345 1.776 . S
C379 C373 1.776 . S
C413 C475 1.776 . S
C447 C509 1.776 . S
C481 C543 1.776 . S
C441 C515 1.776 . S
C258 C20 1.818 . S
C54 C156 1.818 . S
C190 C88 1.818 . S
C224 C122 1.818 . S
C292 C530 1.818 . S
C428 C326 1.818 . S
C360 C462 1.818 . S
C496 C394 1.818 . S
C77 C9 0.954 1_655 S
C111 C43 0.954 1_565 S
C145 C213 0.954 1_545 S
C179 C247 0.954 1_655 S
C281 C349 0.954 1_655 S
C383 C315 0.954 1_545 S
C417 C485 0.954 1_565 S
C519 C451 0.954 1_655 S
