# Generated by pormake.
# Topology vbm, (6)-cn, num edge types: 1
# Building blocks:
#     Node 0, Type 0, BuildingBlock: CIFDUS_clean_sbu_1, # of connection points: 6
#     Node 1, Type 0, BuildingBlock: CIFDUS_clean_sbu_1, # of connection points: 6
#     Node 2, Type 0, BuildingBlock: CIFDUS_clean_sbu_1, # of connection points: 6
#     Node 3, Type 0, BuildingBlock: CIFDUS_clean_sbu_1, # of connection points: 6
#     Node 4, Type 0, BuildingBlock: CIFDUS_clean_sbu_1, # of connection points: 6
#     Node 5, Type 0, BuildingBlock: CIFDUS_clean_sbu_1, # of connection points: 6
#     Node 6, Type 0, BuildingBlock: CIFDUS_clean_sbu_1, # of connection points: 6
#     Node 7, Type 0, BuildingBlock: CIFDUS_clean_sbu_1, # of connection points: 6
#     Node 8, Type 0, BuildingBlock: CIFDUS_clean_sbu_1, # of connection points: 6
#     Node 9, Type 0, BuildingBlock: CIFDUS_clean_sbu_1, # of connection points: 6
#     Node 10, Type 0, BuildingBlock: CIFDUS_clean_sbu_1, # of connection points: 6
#     Node 11, Type 0, BuildingBlock: CIFDUS_clean_sbu_1, # of connection points: 6
#     Node 12, Type 0, BuildingBlock: CIFDUS_clean_sbu_1, # of connection points: 6
#     Node 13, Type 0, BuildingBlock: CIFDUS_clean_sbu_1, # of connection points: 6
#     Node 14, Type 0, BuildingBlock: CIFDUS_clean_sbu_1, # of connection points: 6
#     Node 15, Type 0, BuildingBlock: CIFDUS_clean_sbu_1, # of connection points: 6
#     Edge 16, Type (0, 0), None
#     Edge 17, Type (0, 0), None
#     Edge 18, Type (0, 0), None
#     Edge 19, Type (0, 0), None
#     Edge 20, Type (0, 0), None
#     Edge 21, Type (0, 0), None
#     Edge 22, Type (0, 0), None
#     Edge 23, Type (0, 0), None
#     Edge 24, Type (0, 0), None
#     Edge 25, Type (0, 0), None
#     Edge 26, Type (0, 0), None
#     Edge 27, Type (0, 0), None
#     Edge 28, Type (0, 0), None
#     Edge 29, Type (0, 0), None
#     Edge 30, Type (0, 0), None
#     Edge 31, Type (0, 0), None
#     Edge 32, Type (0, 0), None
#     Edge 33, Type (0, 0), None
#     Edge 34, Type (0, 0), None
#     Edge 35, Type (0, 0), None
#     Edge 36, Type (0, 0), None
#     Edge 37, Type (0, 0), None
#     Edge 38, Type (0, 0), None
#     Edge 39, Type (0, 0), None
#     Edge 40, Type (0, 0), None
#     Edge 41, Type (0, 0), None
#     Edge 42, Type (0, 0), None
#     Edge 43, Type (0, 0), None
#     Edge 44, Type (0, 0), None
#     Edge 45, Type (0, 0), None
#     Edge 46, Type (0, 0), None
#     Edge 47, Type (0, 0), None
#     Edge 48, Type (0, 0), None
#     Edge 49, Type (0, 0), None
#     Edge 50, Type (0, 0), None
#     Edge 51, Type (0, 0), None
#     Edge 52, Type (0, 0), None
#     Edge 53, Type (0, 0), None
#     Edge 54, Type (0, 0), None
#     Edge 55, Type (0, 0), None
#     Edge 56, Type (0, 0), None
#     Edge 57, Type (0, 0), None
#     Edge 58, Type (0, 0), None
#     Edge 59, Type (0, 0), None
#     Edge 60, Type (0, 0), None
#     Edge 61, Type (0, 0), None
#     Edge 62, Type (0, 0), None
#     Edge 63, Type (0, 0), None
# Relax obj value: 0.038
# Max RMSD: 0.079
# Mean RMSD: 0.079
data_MOF--net-vbm--node1-CIFDUS_clean_sbu_1--edge1-none
_symmetry_space_group_name_H-M    P1
_symmetry_Int_Tables_number       1
_symmetry_cell_setting            triclinic
loop_
_symmetry_equiv_pos_as_xyz
'x, y, z'
_cell_length_a     28.149467
_cell_length_b     7.4628706
_cell_length_c     29.008649
_cell_angle_alpha  90.000831
_cell_angle_beta   90.02357
_cell_angle_gamma 89.992234
loop_
_atom_site_label
_atom_site_type_symbol
_atom_site_fract_x
_atom_site_fract_y
_atom_site_fract_z
_atom_type_partial_charge
O0 O 0.1597 0.83224 0.13234 0.0
Mn1 Mn 0.15035 0.10759 0.12506 0.0
O2 O 0.09542 0.7553 0.091 0.0
Mn3 Mn 0.08652 0.99364 0.06745 0.0
O4 O 0.13637 0.38769 0.11372 0.0
O5 O 0.16081 0.14589 0.19206 0.0
Mn6 Mn 0.18282 0.36019 0.20442 0.0
O7 O 0.2225 0.16028 0.11465 0.0
O8 O 0.13888 0.52224 0.18233 0.0
O9 O 0.08291 0.03762 0.15024 0.0
O10 O 0.04774 0.15743 0.09624 0.0
O11 O 0.18082 0.22972 0.2597 0.0
O12 O 0.23822 0.36747 0.17 0.0
C13 C 0.12505 0.06396 0.01049 0.0
C14 C 0.12968 0.71273 0.11825 0.0
C15 C 0.13224 0.52929 0.13907 0.0
C16 C 0.16596 0.09967 0.23436 0.0
C17 C 0.25038 0.27208 0.13529 0.0
C18 C 0.04359 0.07914 0.13358 0.0
O19 O 0.14447 0.07084 0.05227 0.0
O20 O 0.08003 0.03754 0.00828 0.0
O21 O 0.82893 0.85341 0.11462 0.0
Mn22 Mn 0.90109 0.90597 0.12501 0.0
O23 O 0.81327 0.64615 0.16996 0.0
Mn24 Mn 0.86871 0.65336 0.20437 0.0
O25 O 0.96856 0.9757 0.15017 0.0
O26 O 0.90697 0.94278 0.05226 0.0
Mn27 Mn 0.96495 0.02038 0.06719 0.0
O28 O 0.89181 0.18133 0.13229 0.0
O29 O 1.00383 0.85692 0.09599 0.0
O30 O 0.91505 0.6259 0.11365 0.0
O31 O 0.91262 0.49132 0.18226 0.0
O32 O 0.97113 0.97622 0.00799 0.0
O33 O 0.95598 0.25852 0.09084 0.0
C34 C 0.88561 0.91388 0.23432 0.0
C35 C 0.80107 0.7416 0.13527 0.0
C36 C 1.00786 0.93449 0.13345 0.0
C37 C 0.92612 0.94981 0.01038 0.0
C38 C 0.92178 0.30089 0.11817 0.0
C39 C 0.91922 0.48431 0.139 0.0
O40 O 0.89069 0.86767 0.19201 0.0
O41 O 0.87077 0.78381 0.25966 0.0
O42 O 0.22265 0.85332 0.37059 0.0
Mn43 Mn 0.1505 0.90598 0.36019 0.0
O44 O 0.23833 0.6461 0.31524 0.0
Mn45 Mn 0.18289 0.65335 0.28083 0.0
O46 O 0.08303 0.97585 0.33503 0.0
O47 O 0.14465 0.94281 0.43295 0.0
Mn48 Mn 0.08667 0.02033 0.41795 0.0
O49 O 0.1598 0.18133 0.35291 0.0
O50 O 0.04785 0.85678 0.38912 0.0
O51 O 0.13654 0.62592 0.37155 0.0
O52 O 0.13897 0.49135 0.30294 0.0
O53 O 0.08043 0.9762 0.47715 0.0
O54 O 0.09561 0.25852 0.39434 0.0
C55 C 0.16601 0.91389 0.2509 0.0
C56 C 0.25052 0.74152 0.34994 0.0
C57 C 0.04371 0.93462 0.35171 0.0
C58 C 0.12544 0.94981 0.4748 0.0
C59 C 0.12982 0.30091 0.36703 0.0
C60 C 0.13237 0.48433 0.3462 0.0
O61 O 0.1609 0.86765 0.2932 0.0
O62 O 0.18082 0.78382 0.22554 0.0
O63 O 0.8291 0.1603 0.37057 0.0
Mn64 Mn 0.90124 0.10761 0.36016 0.0
O65 O 0.81336 0.36752 0.31522 0.0
Mn66 Mn 0.86877 0.36021 0.2808 0.0
O67 O 0.96868 0.0377 0.33497 0.0
O68 O 0.90716 0.07085 0.43294 0.0
Mn69 Mn 0.9651 0.99351 0.41781 0.0
O70 O 0.89191 0.83226 0.35288 0.0
O71 O 1.00391 0.15726 0.38905 0.0
O72 O 0.91521 0.3877 0.3715 0.0
O73 O 0.91271 0.52223 0.30288 0.0
O74 O 0.97154 0.03731 0.47698 0.0
O75 O 0.95619 0.75523 0.39422 0.0
C76 C 0.88559 0.09966 0.25086 0.0
C77 C 0.80121 0.27211 0.34992 0.0
C78 C 1.00797 0.07925 0.35166 0.0
C79 C 0.92653 0.06387 0.47474 0.0
C80 C 0.92193 0.71272 0.36696 0.0
C81 C 0.91935 0.52927 0.34614 0.0
O82 O 0.89076 0.14589 0.29316 0.0
O83 O 0.87076 0.22974 0.22551 0.0
O84 O 0.82447 0.87323 0.85235 0.0
Mn85 Mn 0.89875 0.90782 0.86446 0.0
O86 O 0.82103 0.67739 0.79256 0.0
Mn87 Mn 0.88501 0.67221 0.7767 0.0
O88 O 0.97311 0.92519 0.87519 0.0
O89 O 0.88512 0.92748 0.93575 0.0
Mn90 Mn 0.91367 0.1293 0.94954 0.0
O91 O 0.8992 0.18063 0.85048 0.0
O92 O 0.98067 0.11395 0.93503 0.0
O93 O 0.8995 0.63619 0.87584 0.0
O94 O 0.91654 0.50157 0.80918 0.0
O95 O 0.86759 0.13602 -0.00708 0.0
O96 O 0.89778 0.32725 0.91661 0.0
C97 C 0.9158 0.91573 0.75184 0.0
C98 C 0.8015 0.76204 0.8258 0.0
C99 C 0.99896 0.01768 0.90317 0.0
C100 C 0.89844 0.03522 0.97099 0.0
C101 C 0.90092 0.32518 0.87377 0.0
C102 C 0.90718 0.49607 0.85168 0.0
O103 O 0.90933 0.87714 0.79517 0.0
O104 O 0.90612 0.78606 0.72444 0.0
O105 O 0.22618 0.14115 0.85228 0.0
Mn106 Mn 0.15195 0.10631 0.86441 0.0
O107 O 0.22939 0.338 0.7927 0.0
Mn108 Mn 0.16539 0.34234 0.7767 0.0
O109 O 0.07759 0.08892 0.8751 0.0
O110 O 0.16563 0.08681 0.93569 0.0
Mn111 Mn 0.13703 0.88512 0.94954 0.0
O112 O 0.15148 0.83347 0.85045 0.0
O113 O 0.07002 0.90137 0.93518 0.0
O114 O 0.15115 0.378 0.87575 0.0
O115 O 0.13365 0.51249 0.80916 0.0
O116 O 0.18345 0.87781 -0.00736 0.0
O117 O 0.15252 0.68682 0.91658 0.0
C118 C 0.13521 0.09765 0.75181 0.0
C119 C 0.24903 0.25303 0.82585 0.0
C120 C 0.05173 0.99713 0.9032 0.0
C121 C 0.15249 0.9788 0.97092 0.0
C122 C 0.14951 0.68896 0.87373 0.0
C123 C 0.14321 0.51807 0.85163 0.0
O124 O 0.14136 0.13689 0.79514 0.0
O125 O 0.14451 0.22768 0.72443 0.0
O126 O 0.82535 0.14113 0.63293 0.0
Mn127 Mn 0.89957 0.10629 0.6208 0.0
O128 O 0.82214 0.33805 0.6925 0.0
Mn129 Mn 0.88615 0.34234 0.7085 0.0
O130 O 0.97391 0.0889 0.61009 0.0
O131 O 0.88588 0.08679 0.54951 0.0
Mn132 Mn 0.91445 0.88501 0.53567 0.0
O133 O 0.90007 0.83346 0.63476 0.0
O134 O 0.98147 0.90103 0.55008 0.0
O135 O 0.90035 0.37798 0.60946 0.0
O136 O 0.91788 0.51246 0.67604 0.0
O137 O 0.86808 0.8779 0.49253 0.0
O138 O 0.89888 0.6868 0.56863 0.0
C139 C 0.91628 0.09765 0.7334 0.0
C140 C 0.8025 0.25305 0.65936 0.0
C141 C 0.99976 0.99694 0.58202 0.0
C142 C 0.89903 0.97878 0.51429 0.0
C143 C 0.90197 0.68893 0.61148 0.0
C144 C 0.90829 0.51804 0.63357 0.0
O145 O 0.91015 0.13683 0.69006 0.0
O146 O 0.90702 0.22772 0.76079 0.0
O147 O 0.22702 0.87313 0.63287 0.0
Mn148 Mn 0.15275 0.90779 0.62075 0.0
O149 O 0.23047 0.67729 0.69266 0.0
Mn150 Mn 0.16648 0.67219 0.70852 0.0
O151 O 0.07839 0.9252 0.61004 0.0
O152 O 0.16637 0.92741 0.54947 0.0
Mn153 Mn 0.13779 0.12919 0.53567 0.0
O154 O 0.15231 0.1806 0.63474 0.0
O155 O 0.0708 0.11363 0.55014 0.0
O156 O 0.15199 0.63615 0.60939 0.0
O157 O 0.13495 0.50156 0.67605 0.0
O158 O 0.18393 0.13604 0.49234 0.0
O159 O 0.15358 0.32723 0.5686 0.0
C160 C 0.13575 0.91573 0.73338 0.0
C161 C 0.24999 0.76193 0.65942 0.0
C162 C 0.05253 0.0175 0.58203 0.0
C163 C 0.15307 0.03519 0.51423 0.0
C164 C 0.15052 0.32514 0.61145 0.0
C165 C 0.1443 0.49605 0.63355 0.0
O166 O 0.14219 0.87715 0.69004 0.0
O167 O 0.14539 0.78606 0.76079 0.0
O168 O 0.65969 0.33228 0.13234 0.0
Mn169 Mn 0.65035 0.60765 0.12506 0.0
O170 O 0.59542 0.25536 0.09099 0.0
Mn171 Mn 0.58651 0.49369 0.06744 0.0
O172 O 0.63637 0.88775 0.11372 0.0
O173 O 0.66082 0.64598 0.19206 0.0
Mn174 Mn 0.68279 0.86033 0.20443 0.0
O175 O 0.72249 0.66038 0.11466 0.0
O176 O 0.63882 0.02229 0.18234 0.0
O177 O 0.58291 0.53767 0.15025 0.0
O178 O 0.54773 0.65744 0.09625 0.0
O179 O 0.68081 0.72983 0.25971 0.0
O180 O 0.73818 0.86779 0.16998 0.0
C181 C 0.62505 0.56405 0.01049 0.0
C182 C 0.62967 0.21279 0.11825 0.0
C183 C 0.63221 0.02934 0.13907 0.0
C184 C 0.66596 0.59975 0.23437 0.0
C185 C 0.75033 0.7725 0.13525 0.0
C186 C 0.54358 0.57915 0.13359 0.0
O187 O 0.64446 0.57089 0.05228 0.0
O188 O 0.58003 0.53768 0.00828 0.0
O189 O 0.32894 0.35332 0.11465 0.0
Mn190 Mn 0.40109 0.40593 0.12503 0.0
O191 O 0.31332 0.14585 0.16996 0.0
Mn192 Mn 0.36875 0.15324 0.20439 0.0
O193 O 0.46857 0.47568 0.15019 0.0
O194 O 0.40696 0.44273 0.05228 0.0
Mn195 Mn 0.46495 0.52032 0.0672 0.0
O196 O 0.39182 0.6813 0.13231 0.0
O197 O 0.50383 0.35688 0.09601 0.0
O198 O 0.41505 0.12585 0.11367 0.0
O199 O 0.41268 0.9913 0.18228 0.0
O200 O 0.47113 0.4761 0.008 0.0
O201 O 0.45599 0.75847 0.09085 0.0
C202 C 0.3856 0.41382 0.23434 0.0
C203 C 0.30113 0.24119 0.13525 0.0
C204 C 0.50786 0.43448 0.13347 0.0
C205 C 0.42612 0.44973 0.0104 0.0
C206 C 0.42179 0.80085 0.11818 0.0
C207 C 0.41925 0.98427 0.13902 0.0
O208 O 0.39069 0.36761 0.19203 0.0
O209 O 0.37079 0.28373 0.25968 0.0
O210 O 0.72266 0.35337 0.37058 0.0
Mn211 Mn 0.6505 0.40607 0.3602 0.0
O212 O 0.73827 0.14591 0.31525 0.0
Mn213 Mn 0.68284 0.15336 0.28082 0.0
O214 O 0.58303 0.47594 0.33504 0.0
O215 O 0.64468 0.44289 0.43296 0.0
Mn216 Mn 0.58669 0.52035 0.41795 0.0
O217 O 0.6598 0.68143 0.35292 0.0
O218 O 0.54786 0.35677 0.38913 0.0
O219 O 0.63655 0.12599 0.37156 0.0
O220 O 0.63891 0.99146 0.30294 0.0
O221 O 0.58044 0.47625 0.47714 0.0
O222 O 0.59561 0.75855 0.39434 0.0
C223 C 0.66601 0.41397 0.2509 0.0
C224 C 0.75047 0.24123 0.34997 0.0
C225 C 0.54372 0.43465 0.35172 0.0
C226 C 0.62545 0.44987 0.47481 0.0
C227 C 0.62981 0.80099 0.36703 0.0
C228 C 0.63235 0.98442 0.3462 0.0
O229 O 0.6609 0.36773 0.2932 0.0
O230 O 0.6808 0.28388 0.22554 0.0
O231 O 0.32909 0.66027 0.37057 0.0
Mn232 Mn 0.40123 0.60754 0.36017 0.0
O233 O 0.31341 0.86772 0.31526 0.0
Mn234 Mn 0.3688 0.86022 0.28081 0.0
O235 O 0.46868 0.53764 0.33499 0.0
O236 O 0.40715 0.57078 0.43296 0.0
Mn237 Mn 0.4651 0.49347 0.41782 0.0
O238 O 0.39191 0.33217 0.3529 0.0
O239 O 0.50391 0.65723 0.38907 0.0
O240 O 0.41521 0.88764 0.37152 0.0
O241 O 0.41277 0.02213 0.3029 0.0
O242 O 0.47154 0.53727 0.477 0.0
O243 O 0.4562 0.2552 0.39423 0.0
C244 C 0.38558 0.5996 0.25088 0.0
C245 C 0.30126 0.7724 0.34997 0.0
C246 C 0.50797 0.57923 0.35168 0.0
C247 C 0.42652 0.56381 0.47476 0.0
C248 C 0.42194 0.21266 0.36698 0.0
C249 C 0.41938 0.0292 0.34616 0.0
O250 O 0.39076 0.64583 0.29318 0.0
O251 O 0.37077 0.72971 0.22552 0.0
O252 O 0.32449 0.37316 0.85235 0.0
Mn253 Mn 0.39876 0.40776 0.86449 0.0
O254 O 0.32107 0.17724 0.79258 0.0
Mn255 Mn 0.38506 0.17212 0.77673 0.0
O256 O 0.47312 0.42513 0.87522 0.0
O257 O 0.38512 0.42743 0.93577 0.0
Mn258 Mn 0.41367 0.62924 0.94956 0.0
O259 O 0.39923 0.68057 0.8505 0.0
O260 O 0.48067 0.61392 0.93505 0.0
O261 O 0.39951 0.13613 0.87586 0.0
O262 O 0.4166 1.00152 0.80921 0.0
O263 O 0.36759 0.63596 -0.00706 0.0
O264 O 0.39778 0.8272 0.91663 0.0
C265 C 0.41582 0.41569 0.75187 0.0
C266 C 0.30154 0.26186 0.82582 0.0
C267 C 0.49897 0.51762 0.9032 0.0
C268 C 0.39844 0.53516 0.97101 0.0
C269 C 0.40093 0.82512 0.87379 0.0
C270 C 0.40721 0.99602 0.85171 0.0
O271 O 0.40936 0.37708 0.7952 0.0
O272 O 0.40616 0.28601 0.72446 0.0
O273 O 0.72617 0.6412 0.85228 0.0
Mn274 Mn 0.65194 0.60634 0.86443 0.0
O275 O 0.72934 0.83814 0.79271 0.0
Mn276 Mn 0.66533 0.84241 0.77672 0.0
O277 O 0.57759 0.58896 0.87514 0.0
O278 O 0.66564 0.58683 0.9357 0.0
Mn279 Mn 0.63705 0.38513 0.94956 0.0
O280 O 0.65146 0.3335 0.85046 0.0
O281 O 0.57003 0.4013 0.93519 0.0
O282 O 0.65114 0.87803 0.87576 0.0
O283 O 0.63359 0.01252 0.80919 0.0
O284 O 0.68346 0.37787 -0.00733 0.0
O285 O 0.65256 0.18685 0.9166 0.0
C286 C 0.63519 0.59765 0.75183 0.0
C287 C 0.74899 0.7532 0.82586 0.0
C288 C 0.55174 0.49711 0.90323 0.0
C289 C 0.6525 0.47885 0.97093 0.0
C290 C 0.64951 0.18899 0.87375 0.0
C291 C 0.64319 0.0181 0.85165 0.0
O292 O 0.64133 0.63692 0.79516 0.0
O293 O 0.64446 0.72771 0.72445 0.0
O294 O 0.32533 0.6411 0.63295 0.0
Mn295 Mn 0.39955 0.60623 0.62082 0.0
O296 O 0.32213 0.83802 0.69252 0.0
Mn297 Mn 0.38613 0.84229 0.70853 0.0
O298 O 0.4739 0.58883 0.61012 0.0
O299 O 0.38588 0.58674 0.54954 0.0
Mn300 Mn 0.41445 0.38496 0.5357 0.0
O301 O 0.40005 0.3334 0.63479 0.0
O302 O 0.48146 0.401 0.5501 0.0
O303 O 0.40034 0.87792 0.60948 0.0
O304 O 0.41787 0.0124 0.67606 0.0
O305 O 0.36807 0.37785 0.49255 0.0
O306 O 0.39888 0.18675 0.56865 0.0
C307 C 0.41627 0.59762 0.73343 0.0
C308 C 0.3025 0.75309 0.65937 0.0
C309 C 0.49975 0.49688 0.58204 0.0
C310 C 0.39903 0.47872 0.51431 0.0
C311 C 0.40196 0.18888 0.6115 0.0
C312 C 0.40828 0.01799 0.63359 0.0
O313 O 0.41014 0.63678 0.69009 0.0
O314 O 0.40701 0.72768 0.76082 0.0
O315 O 0.72703 0.37313 0.63287 0.0
Mn316 Mn 0.65276 0.40781 0.62077 0.0
O317 O 0.73048 0.17732 0.69267 0.0
Mn318 Mn 0.66651 0.17222 0.70854 0.0
O319 O 0.57839 0.42524 0.61007 0.0
O320 O 0.66636 0.42742 0.54949 0.0
Mn321 Mn 0.63777 0.62919 0.53568 0.0
O322 O 0.65233 0.68063 0.63475 0.0
O323 O 0.57078 0.61354 0.55015 0.0
O324 O 0.65198 0.13618 0.6094 0.0
O325 O 0.63497 1.00159 0.67607 0.0
O326 O 0.68393 0.6361 0.49237 0.0
O327 O 0.65353 0.82726 0.56861 0.0
C328 C 0.63576 0.41573 0.7334 0.0
C329 C 0.75 0.26188 0.65941 0.0
C330 C 0.55252 0.51746 0.58205 0.0
C331 C 0.65307 0.53523 0.51425 0.0
C332 C 0.65051 0.82517 0.61147 0.0
C333 C 0.6443 0.99608 0.63357 0.0
O334 O 0.6422 0.37718 0.69006 0.0
O335 O 0.64542 0.28607 0.76081 0.0
loop_
_geom_bond_atom_site_label_1
_geom_bond_atom_site_label_2
_geom_bond_distance
_geom_bond_site_symmetry_2
_ccdc_geom_bond_type
O0 Mn1 2.163 1_565 S
O0 C14 1.244 . S
Mn1 O0 2.163 1_545 S
Mn1 O4 2.160 . S
Mn1 O5 2.221 . S
Mn1 O7 2.163 . S
Mn1 O9 2.160 . S
Mn1 O19 2.221 . S
O2 Mn3 2.087 . S
O2 C14 1.256 . S
Mn3 O2 2.087 . S
Mn3 O10 2.089 . S
Mn3 O19 2.290 1_565 S
Mn3 O20 2.251 1_554 S
O4 Mn1 2.160 . S
O4 C15 1.239 . S
O5 Mn1 2.221 . S
O5 Mn6 2.290 . S
O5 C16 1.278 . S
Mn6 O5 2.290 . S
Mn6 O8 2.089 . S
Mn6 O11 2.251 . S
Mn6 O12 2.087 . S
O7 Mn1 2.163 . S
O7 C17 1.244 . S
O8 Mn6 2.089 . S
O8 C15 1.256 . S
O9 Mn1 2.160 . S
O9 C18 1.239 . S
O10 Mn3 2.089 . S
O10 C18 1.256 1_565 S
O11 Mn6 2.251 . S
O11 C16 1.241 . S
O12 Mn6 2.087 . S
O12 C17 1.256 . S
C13 O19 1.278 . S
C13 O20 1.241 1_544 S
C14 O0 1.244 . S
C14 O2 1.256 . S
C15 O4 1.239 . S
C15 O8 1.256 . S
C16 O5 1.278 . S
C16 O11 1.241 . S
C17 O7 1.244 . S
C17 O12 1.256 . S
C18 O9 1.239 . S
C18 O10 1.256 1_545 S
O19 Mn1 2.221 . S
O19 Mn3 2.290 1_545 S
O19 C13 1.278 . S
O20 Mn3 2.251 1_556 S
O20 C13 1.241 1_566 S
O21 Mn22 2.163 . S
O21 C35 1.244 . S
Mn22 O21 2.163 . S
Mn22 O25 2.160 . S
Mn22 O26 2.221 . S
Mn22 O28 2.163 1_565 S
Mn22 O30 2.160 . S
Mn22 O40 2.221 . S
O23 Mn24 2.087 . S
O23 C35 1.256 . S
Mn24 O23 2.087 . S
Mn24 O31 2.089 . S
Mn24 O40 2.290 . S
Mn24 O41 2.251 . S
O25 Mn22 2.160 . S
O25 C36 1.239 . S
O26 Mn22 2.221 . S
O26 Mn27 2.290 1_565 S
O26 C37 1.278 . S
Mn27 O26 2.290 1_545 S
Mn27 O29 2.089 . S
Mn27 O32 2.251 1_554 S
Mn27 O33 2.087 . S
O28 Mn22 2.163 1_545 S
O28 C38 1.244 . S
O29 Mn27 2.089 . S
O29 C36 1.256 1_545 S
O30 Mn22 2.160 . S
O30 C39 1.239 . S
O31 Mn24 2.089 . S
O31 C39 1.256 . S
O32 Mn27 2.251 1_556 S
O32 C37 1.241 1_546 S
O33 Mn27 2.087 . S
O33 C38 1.256 . S
C34 O40 1.278 . S
C34 O41 1.241 . S
C35 O21 1.244 . S
C35 O23 1.256 . S
C36 O25 1.239 . S
C36 O29 1.256 1_565 S
C37 O26 1.278 . S
C37 O32 1.241 1_564 S
C38 O28 1.244 . S
C38 O33 1.256 . S
C39 O30 1.239 . S
C39 O31 1.256 . S
O40 Mn22 2.221 . S
O40 Mn24 2.290 . S
O40 C34 1.278 . S
O41 Mn24 2.251 . S
O41 C34 1.241 . S
O42 Mn43 2.163 . S
O42 C56 1.244 . S
Mn43 O42 2.163 . S
Mn43 O46 2.160 . S
Mn43 O47 2.221 . S
Mn43 O49 2.163 1_565 S
Mn43 O51 2.160 . S
Mn43 O61 2.221 . S
O44 Mn45 2.087 . S
O44 C56 1.256 . S
Mn45 O44 2.087 . S
Mn45 O52 2.089 . S
Mn45 O61 2.290 . S
Mn45 O62 2.251 . S
O46 Mn43 2.160 . S
O46 C57 1.239 . S
O47 Mn43 2.221 . S
O47 Mn48 2.290 1_565 S
O47 C58 1.278 . S
Mn48 O47 2.290 1_545 S
Mn48 O50 2.089 . S
Mn48 O53 2.251 . S
Mn48 O54 2.087 . S
O49 Mn43 2.163 1_545 S
O49 C59 1.244 . S
O50 Mn48 2.089 . S
O50 C57 1.256 1_545 S
O51 Mn43 2.160 . S
O51 C60 1.239 . S
O52 Mn45 2.089 . S
O52 C60 1.256 . S
O53 Mn48 2.251 . S
O53 C58 1.241 1_545 S
O54 Mn48 2.087 . S
O54 C59 1.256 . S
C55 O61 1.278 . S
C55 O62 1.241 . S
C56 O42 1.244 . S
C56 O44 1.256 . S
C57 O46 1.239 . S
C57 O50 1.256 1_565 S
C58 O47 1.278 . S
C58 O53 1.241 1_565 S
C59 O49 1.244 . S
C59 O54 1.256 . S
C60 O51 1.239 . S
C60 O52 1.256 . S
O61 Mn43 2.221 . S
O61 Mn45 2.290 . S
O61 C55 1.278 . S
O62 Mn45 2.251 . S
O62 C55 1.241 . S
O63 Mn64 2.163 . S
O63 C77 1.244 . S
Mn64 O63 2.163 . S
Mn64 O67 2.160 . S
Mn64 O68 2.221 . S
Mn64 O70 2.163 1_545 S
Mn64 O72 2.160 . S
Mn64 O82 2.221 . S
O65 Mn66 2.087 . S
O65 C77 1.256 . S
Mn66 O65 2.087 . S
Mn66 O73 2.089 . S
Mn66 O82 2.290 . S
Mn66 O83 2.251 . S
O67 Mn64 2.160 . S
O67 C78 1.239 . S
O68 Mn64 2.221 . S
O68 Mn69 2.290 1_545 S
O68 C79 1.278 . S
Mn69 O68 2.290 1_565 S
Mn69 O71 2.089 . S
Mn69 O74 2.251 . S
Mn69 O75 2.087 . S
O70 Mn64 2.163 1_565 S
O70 C80 1.244 . S
O71 Mn69 2.089 . S
O71 C78 1.256 1_565 S
O72 Mn64 2.160 . S
O72 C81 1.239 . S
O73 Mn66 2.089 . S
O73 C81 1.256 . S
O74 Mn69 2.251 . S
O74 C79 1.241 1_565 S
O75 Mn69 2.087 . S
O75 C80 1.256 . S
C76 O82 1.278 . S
C76 O83 1.241 . S
C77 O63 1.244 . S
C77 O65 1.256 . S
C78 O67 1.239 . S
C78 O71 1.256 1_545 S
C79 O68 1.278 . S
C79 O74 1.241 1_545 S
C80 O70 1.244 . S
C80 O75 1.256 . S
C81 O72 1.239 . S
C81 O73 1.256 . S
O82 Mn64 2.221 . S
O82 Mn66 2.290 . S
O82 C76 1.278 . S
O83 Mn66 2.251 . S
O83 C76 1.241 . S
O84 Mn85 2.163 . S
O84 C98 1.244 . S
Mn85 O84 2.163 . S
Mn85 O88 2.160 . S
Mn85 O89 2.221 . S
Mn85 O91 2.163 1_565 S
Mn85 O93 2.160 . S
Mn85 O103 2.221 . S
O86 Mn87 2.087 . S
O86 C98 1.256 . S
Mn87 O86 2.087 . S
Mn87 O94 2.089 . S
Mn87 O103 2.290 . S
Mn87 O104 2.251 . S
O88 Mn85 2.160 . S
O88 C99 1.239 . S
O89 Mn85 2.221 . S
O89 Mn90 2.290 1_565 S
O89 C100 1.278 . S
Mn90 O89 2.290 1_545 S
Mn90 O92 2.089 . S
Mn90 O95 2.251 1_556 S
Mn90 O96 2.087 . S
O91 Mn85 2.163 1_545 S
O91 C101 1.244 . S
O92 Mn90 2.089 . S
O92 C99 1.256 1_545 S
O93 Mn85 2.160 . S
O93 C102 1.239 . S
O94 Mn87 2.089 . S
O94 C102 1.256 . S
O95 Mn90 2.251 1_554 S
O95 C100 1.241 1_544 S
O96 Mn90 2.087 . S
O96 C101 1.256 . S
C97 O103 1.278 . S
C97 O104 1.241 . S
C98 O84 1.244 . S
C98 O86 1.256 . S
C99 O88 1.239 . S
C99 O92 1.256 1_565 S
C100 O89 1.278 . S
C100 O95 1.241 1_566 S
C101 O91 1.244 . S
C101 O96 1.256 . S
C102 O93 1.239 . S
C102 O94 1.256 . S
O103 Mn85 2.221 . S
O103 Mn87 2.290 . S
O103 C97 1.278 . S
O104 Mn87 2.251 . S
O104 C97 1.241 . S
O105 Mn106 2.163 . S
O105 C119 1.244 . S
Mn106 O105 2.163 . S
Mn106 O109 2.160 . S
Mn106 O110 2.221 . S
Mn106 O112 2.163 1_545 S
Mn106 O114 2.160 . S
Mn106 O124 2.221 . S
O107 Mn108 2.087 . S
O107 C119 1.256 . S
Mn108 O107 2.087 . S
Mn108 O115 2.089 . S
Mn108 O124 2.290 . S
Mn108 O125 2.251 . S
O109 Mn106 2.160 . S
O109 C120 1.239 . S
O110 Mn106 2.221 . S
O110 Mn111 2.290 1_545 S
O110 C121 1.278 . S
Mn111 O110 2.290 1_565 S
Mn111 O113 2.089 . S
Mn111 O116 2.251 1_556 S
Mn111 O117 2.087 . S
O112 Mn106 2.163 1_565 S
O112 C122 1.244 . S
O113 Mn111 2.089 . S
O113 C120 1.256 1_565 S
O114 Mn106 2.160 . S
O114 C123 1.239 . S
O115 Mn108 2.089 . S
O115 C123 1.256 . S
O116 Mn111 2.251 1_554 S
O116 C121 1.241 1_564 S
O117 Mn111 2.087 . S
O117 C122 1.256 . S
C118 O124 1.278 . S
C118 O125 1.241 . S
C119 O105 1.244 . S
C119 O107 1.256 . S
C120 O109 1.239 . S
C120 O113 1.256 1_545 S
C121 O110 1.278 . S
C121 O116 1.241 1_546 S
C122 O112 1.244 . S
C122 O117 1.256 . S
C123 O114 1.239 . S
C123 O115 1.256 . S
O124 Mn106 2.221 . S
O124 Mn108 2.290 . S
O124 C118 1.278 . S
O125 Mn108 2.251 . S
O125 C118 1.241 . S
O126 Mn127 2.163 . S
O126 C140 1.244 . S
Mn127 O126 2.163 . S
Mn127 O130 2.160 . S
Mn127 O131 2.221 . S
Mn127 O133 2.163 1_545 S
Mn127 O135 2.160 . S
Mn127 O145 2.221 . S
O128 Mn129 2.087 . S
O128 C140 1.256 . S
Mn129 O128 2.087 . S
Mn129 O136 2.089 . S
Mn129 O145 2.290 . S
Mn129 O146 2.251 . S
O130 Mn127 2.160 . S
O130 C141 1.239 . S
O131 Mn127 2.221 . S
O131 Mn132 2.290 1_545 S
O131 C142 1.278 . S
Mn132 O131 2.290 1_565 S
Mn132 O134 2.089 . S
Mn132 O137 2.251 . S
Mn132 O138 2.087 . S
O133 Mn127 2.163 1_565 S
O133 C143 1.244 . S
O134 Mn132 2.089 . S
O134 C141 1.256 1_565 S
O135 Mn127 2.160 . S
O135 C144 1.239 . S
O136 Mn129 2.089 . S
O136 C144 1.256 . S
O137 Mn132 2.251 . S
O137 C142 1.241 1_565 S
O138 Mn132 2.087 . S
O138 C143 1.256 . S
C139 O145 1.278 . S
C139 O146 1.241 . S
C140 O126 1.244 . S
C140 O128 1.256 . S
C141 O130 1.239 . S
C141 O134 1.256 1_545 S
C142 O131 1.278 . S
C142 O137 1.241 1_545 S
C143 O133 1.244 . S
C143 O138 1.256 . S
C144 O135 1.239 . S
C144 O136 1.256 . S
O145 Mn127 2.221 . S
O145 Mn129 2.290 . S
O145 C139 1.278 . S
O146 Mn129 2.251 . S
O146 C139 1.241 . S
O147 Mn148 2.163 . S
O147 C161 1.244 . S
Mn148 O147 2.163 . S
Mn148 O151 2.160 . S
Mn148 O152 2.221 . S
Mn148 O154 2.163 1_565 S
Mn148 O156 2.160 . S
Mn148 O166 2.221 . S
O149 Mn150 2.087 . S
O149 C161 1.256 . S
Mn150 O149 2.087 . S
Mn150 O157 2.089 . S
Mn150 O166 2.290 . S
Mn150 O167 2.251 . S
O151 Mn148 2.160 . S
O151 C162 1.239 . S
O152 Mn148 2.221 . S
O152 Mn153 2.290 1_565 S
O152 C163 1.278 . S
Mn153 O152 2.290 1_545 S
Mn153 O155 2.089 . S
Mn153 O158 2.251 . S
Mn153 O159 2.087 . S
O154 Mn148 2.163 1_545 S
O154 C164 1.244 . S
O155 Mn153 2.089 . S
O155 C162 1.256 1_545 S
O156 Mn148 2.160 . S
O156 C165 1.239 . S
O157 Mn150 2.089 . S
O157 C165 1.256 . S
O158 Mn153 2.251 . S
O158 C163 1.241 1_545 S
O159 Mn153 2.087 . S
O159 C164 1.256 . S
C160 O166 1.278 . S
C160 O167 1.241 . S
C161 O147 1.244 . S
C161 O149 1.256 . S
C162 O151 1.239 . S
C162 O155 1.256 1_565 S
C163 O152 1.278 . S
C163 O158 1.241 1_565 S
C164 O154 1.244 . S
C164 O159 1.256 . S
C165 O156 1.239 . S
C165 O157 1.256 . S
O166 Mn148 2.221 . S
O166 Mn150 2.290 . S
O166 C160 1.278 . S
O167 Mn150 2.251 . S
O167 C160 1.241 . S
O168 Mn169 2.163 . S
O168 C182 1.244 . S
Mn169 O168 2.163 . S
Mn169 O172 2.160 . S
Mn169 O173 2.221 . S
Mn169 O175 2.163 . S
Mn169 O177 2.160 . S
Mn169 O187 2.221 . S
O170 Mn171 2.087 . S
O170 C182 1.256 . S
Mn171 O170 2.087 . S
Mn171 O178 2.089 . S
Mn171 O187 2.290 . S
Mn171 O188 2.251 1_554 S
O172 Mn169 2.160 . S
O172 C183 1.239 1_565 S
O173 Mn169 2.221 . S
O173 Mn174 2.290 . S
O173 C184 1.278 . S
Mn174 O173 2.290 . S
Mn174 O176 2.089 1_565 S
Mn174 O179 2.251 . S
Mn174 O180 2.087 . S
O175 Mn169 2.163 . S
O175 C185 1.244 . S
O176 Mn174 2.089 1_545 S
O176 C183 1.256 . S
O177 Mn169 2.160 . S
O177 C186 1.239 . S
O178 Mn171 2.089 . S
O178 C186 1.256 . S
O179 Mn174 2.251 . S
O179 C184 1.241 . S
O180 Mn174 2.087 . S
O180 C185 1.256 . S
C181 O187 1.278 . S
C181 O188 1.241 1_554 S
C182 O168 1.244 . S
C182 O170 1.256 . S
C183 O172 1.239 1_545 S
C183 O176 1.256 . S
C184 O173 1.278 . S
C184 O179 1.241 . S
C185 O175 1.244 . S
C185 O180 1.256 . S
C186 O177 1.239 . S
C186 O178 1.256 . S
O187 Mn169 2.221 . S
O187 Mn171 2.290 . S
O187 C181 1.278 . S
O188 Mn171 2.251 1_556 S
O188 C181 1.241 1_556 S
O189 Mn190 2.163 . S
O189 C203 1.244 . S
Mn190 O189 2.163 . S
Mn190 O193 2.160 . S
Mn190 O194 2.221 . S
Mn190 O196 2.163 . S
Mn190 O198 2.160 . S
Mn190 O208 2.221 . S
O191 Mn192 2.087 . S
O191 C203 1.256 . S
Mn192 O191 2.087 . S
Mn192 O199 2.089 1_545 S
Mn192 O208 2.290 . S
Mn192 O209 2.251 . S
O193 Mn190 2.160 . S
O193 C204 1.239 . S
O194 Mn190 2.221 . S
O194 Mn195 2.290 . S
O194 C205 1.278 . S
Mn195 O194 2.290 . S
Mn195 O197 2.089 . S
Mn195 O200 2.251 1_554 S
Mn195 O201 2.087 . S
O196 Mn190 2.163 . S
O196 C206 1.244 . S
O197 Mn195 2.089 . S
O197 C204 1.256 . S
O198 Mn190 2.160 . S
O198 C207 1.239 1_545 S
O199 Mn192 2.089 1_565 S
O199 C207 1.256 . S
O200 Mn195 2.251 1_556 S
O200 C205 1.241 1_556 S
O201 Mn195 2.087 . S
O201 C206 1.256 . S
C202 O208 1.278 . S
C202 O209 1.241 . S
C203 O189 1.244 . S
C203 O191 1.256 . S
C204 O193 1.239 . S
C204 O197 1.256 . S
C205 O194 1.278 . S
C205 O200 1.241 1_554 S
C206 O196 1.244 . S
C206 O201 1.256 . S
C207 O198 1.239 1_565 S
C207 O199 1.256 . S
O208 Mn190 2.221 . S
O208 Mn192 2.290 . S
O208 C202 1.278 . S
O209 Mn192 2.251 . S
O209 C202 1.241 . S
O210 Mn211 2.163 . S
O210 C224 1.244 . S
Mn211 O210 2.163 . S
Mn211 O214 2.160 . S
Mn211 O215 2.221 . S
Mn211 O217 2.163 . S
Mn211 O219 2.160 . S
Mn211 O229 2.221 . S
O212 Mn213 2.087 . S
O212 C224 1.256 . S
Mn213 O212 2.087 . S
Mn213 O220 2.089 1_545 S
Mn213 O229 2.290 . S
Mn213 O230 2.251 . S
O214 Mn211 2.160 . S
O214 C225 1.239 . S
O215 Mn211 2.221 . S
O215 Mn216 2.290 . S
O215 C226 1.278 . S
Mn216 O215 2.290 . S
Mn216 O218 2.089 . S
Mn216 O221 2.251 . S
Mn216 O222 2.087 . S
O217 Mn211 2.163 . S
O217 C227 1.244 . S
O218 Mn216 2.089 . S
O218 C225 1.256 . S
O219 Mn211 2.160 . S
O219 C228 1.239 1_545 S
O220 Mn213 2.089 1_565 S
O220 C228 1.256 . S
O221 Mn216 2.251 . S
O221 C226 1.241 . S
O222 Mn216 2.087 . S
O222 C227 1.256 . S
C223 O229 1.278 . S
C223 O230 1.241 . S
C224 O210 1.244 . S
C224 O212 1.256 . S
C225 O214 1.239 . S
C225 O218 1.256 . S
C226 O215 1.278 . S
C226 O221 1.241 . S
C227 O217 1.244 . S
C227 O222 1.256 . S
C228 O219 1.239 1_565 S
C228 O220 1.256 . S
O229 Mn211 2.221 . S
O229 Mn213 2.290 . S
O229 C223 1.278 . S
O230 Mn213 2.251 . S
O230 C223 1.241 . S
O231 Mn232 2.163 . S
O231 C245 1.244 . S
Mn232 O231 2.163 . S
Mn232 O235 2.160 . S
Mn232 O236 2.221 . S
Mn232 O238 2.163 . S
Mn232 O240 2.160 . S
Mn232 O250 2.221 . S
O233 Mn234 2.087 . S
O233 C245 1.256 . S
Mn234 O233 2.087 . S
Mn234 O241 2.089 1_565 S
Mn234 O250 2.290 . S
Mn234 O251 2.251 . S
O235 Mn232 2.160 . S
O235 C246 1.239 . S
O236 Mn232 2.221 . S
O236 Mn237 2.290 . S
O236 C247 1.278 . S
Mn237 O236 2.290 . S
Mn237 O239 2.089 . S
Mn237 O242 2.251 . S
Mn237 O243 2.087 . S
O238 Mn232 2.163 . S
O238 C248 1.244 . S
O239 Mn237 2.089 . S
O239 C246 1.256 . S
O240 Mn232 2.160 . S
O240 C249 1.239 1_565 S
O241 Mn234 2.089 1_545 S
O241 C249 1.256 . S
O242 Mn237 2.251 . S
O242 C247 1.241 . S
O243 Mn237 2.087 . S
O243 C248 1.256 . S
C244 O250 1.278 . S
C244 O251 1.241 . S
C245 O231 1.244 . S
C245 O233 1.256 . S
C246 O235 1.239 . S
C246 O239 1.256 . S
C247 O236 1.278 . S
C247 O242 1.241 . S
C248 O238 1.244 . S
C248 O243 1.256 . S
C249 O240 1.239 1_545 S
C249 O241 1.256 . S
O250 Mn232 2.221 . S
O250 Mn234 2.290 . S
O250 C244 1.278 . S
O251 Mn234 2.251 . S
O251 C244 1.241 . S
O252 Mn253 2.163 . S
O252 C266 1.244 . S
Mn253 O252 2.163 . S
Mn253 O256 2.160 . S
Mn253 O257 2.221 . S
Mn253 O259 2.163 . S
Mn253 O261 2.160 . S
Mn253 O271 2.221 . S
O254 Mn255 2.087 . S
O254 C266 1.256 . S
Mn255 O254 2.087 . S
Mn255 O262 2.089 1_545 S
Mn255 O271 2.290 . S
Mn255 O272 2.251 . S
O256 Mn253 2.160 . S
O256 C267 1.239 . S
O257 Mn253 2.221 . S
O257 Mn258 2.290 . S
O257 C268 1.278 . S
Mn258 O257 2.290 . S
Mn258 O260 2.089 . S
Mn258 O263 2.251 1_556 S
Mn258 O264 2.087 . S
O259 Mn253 2.163 . S
O259 C269 1.244 . S
O260 Mn258 2.089 . S
O260 C267 1.256 . S
O261 Mn253 2.160 . S
O261 C270 1.239 1_545 S
O262 Mn255 2.089 1_565 S
O262 C270 1.256 . S
O263 Mn258 2.251 1_554 S
O263 C268 1.241 1_554 S
O264 Mn258 2.087 . S
O264 C269 1.256 . S
C265 O271 1.278 . S
C265 O272 1.241 . S
C266 O252 1.244 . S
C266 O254 1.256 . S
C267 O256 1.239 . S
C267 O260 1.256 . S
C268 O257 1.278 . S
C268 O263 1.241 1_556 S
C269 O259 1.244 . S
C269 O264 1.256 . S
C270 O261 1.239 1_565 S
C270 O262 1.256 . S
O271 Mn253 2.221 . S
O271 Mn255 2.290 . S
O271 C265 1.278 . S
O272 Mn255 2.251 . S
O272 C265 1.241 . S
O273 Mn274 2.163 . S
O273 C287 1.244 . S
Mn274 O273 2.163 . S
Mn274 O277 2.160 . S
Mn274 O278 2.221 . S
Mn274 O280 2.163 . S
Mn274 O282 2.160 . S
Mn274 O292 2.221 . S
O275 Mn276 2.087 . S
O275 C287 1.256 . S
Mn276 O275 2.087 . S
Mn276 O283 2.089 1_565 S
Mn276 O292 2.290 . S
Mn276 O293 2.251 . S
O277 Mn274 2.160 . S
O277 C288 1.239 . S
O278 Mn274 2.221 . S
O278 Mn279 2.290 . S
O278 C289 1.278 . S
Mn279 O278 2.290 . S
Mn279 O281 2.089 . S
Mn279 O284 2.251 1_556 S
Mn279 O285 2.087 . S
O280 Mn274 2.163 . S
O280 C290 1.244 . S
O281 Mn279 2.089 . S
O281 C288 1.256 . S
O282 Mn274 2.160 . S
O282 C291 1.239 1_565 S
O283 Mn276 2.089 1_545 S
O283 C291 1.256 . S
O284 Mn279 2.251 1_554 S
O284 C289 1.241 1_554 S
O285 Mn279 2.087 . S
O285 C290 1.256 . S
C286 O292 1.278 . S
C286 O293 1.241 . S
C287 O273 1.244 . S
C287 O275 1.256 . S
C288 O277 1.239 . S
C288 O281 1.256 . S
C289 O278 1.278 . S
C289 O284 1.241 1_556 S
C290 O280 1.244 . S
C290 O285 1.256 . S
C291 O282 1.239 1_545 S
C291 O283 1.256 . S
O292 Mn274 2.221 . S
O292 Mn276 2.290 . S
O292 C286 1.278 . S
O293 Mn276 2.251 . S
O293 C286 1.241 . S
O294 Mn295 2.163 . S
O294 C308 1.244 . S
Mn295 O294 2.163 . S
Mn295 O298 2.160 . S
Mn295 O299 2.221 . S
Mn295 O301 2.163 . S
Mn295 O303 2.160 . S
Mn295 O313 2.221 . S
O296 Mn297 2.087 . S
O296 C308 1.256 . S
Mn297 O296 2.087 . S
Mn297 O304 2.089 1_565 S
Mn297 O313 2.290 . S
Mn297 O314 2.251 . S
O298 Mn295 2.160 . S
O298 C309 1.239 . S
O299 Mn295 2.221 . S
O299 Mn300 2.290 . S
O299 C310 1.278 . S
Mn300 O299 2.290 . S
Mn300 O302 2.089 . S
Mn300 O305 2.251 . S
Mn300 O306 2.087 . S
O301 Mn295 2.163 . S
O301 C311 1.244 . S
O302 Mn300 2.089 . S
O302 C309 1.256 . S
O303 Mn295 2.160 . S
O303 C312 1.239 1_565 S
O304 Mn297 2.089 1_545 S
O304 C312 1.256 . S
O305 Mn300 2.251 . S
O305 C310 1.241 . S
O306 Mn300 2.087 . S
O306 C311 1.256 . S
C307 O313 1.278 . S
C307 O314 1.241 . S
C308 O294 1.244 . S
C308 O296 1.256 . S
C309 O298 1.239 . S
C309 O302 1.256 . S
C310 O299 1.278 . S
C310 O305 1.241 . S
C311 O301 1.244 . S
C311 O306 1.256 . S
C312 O303 1.239 1_545 S
C312 O304 1.256 . S
O313 Mn295 2.221 . S
O313 Mn297 2.290 . S
O313 C307 1.278 . S
O314 Mn297 2.251 . S
O314 C307 1.241 . S
O315 Mn316 2.163 . S
O315 C329 1.244 . S
Mn316 O315 2.163 . S
Mn316 O319 2.160 . S
Mn316 O320 2.221 . S
Mn316 O322 2.163 . S
Mn316 O324 2.160 . S
Mn316 O334 2.221 . S
O317 Mn318 2.087 . S
O317 C329 1.256 . S
Mn318 O317 2.087 . S
Mn318 O325 2.089 1_545 S
Mn318 O334 2.290 . S
Mn318 O335 2.251 . S
O319 Mn316 2.160 . S
O319 C330 1.239 . S
O320 Mn316 2.221 . S
O320 Mn321 2.290 . S
O320 C331 1.278 . S
Mn321 O320 2.290 . S
Mn321 O323 2.089 . S
Mn321 O326 2.251 . S
Mn321 O327 2.087 . S
O322 Mn316 2.163 . S
O322 C332 1.244 . S
O323 Mn321 2.089 . S
O323 C330 1.256 . S
O324 Mn316 2.160 . S
O324 C333 1.239 1_545 S
O325 Mn318 2.089 1_565 S
O325 C333 1.256 . S
O326 Mn321 2.251 . S
O326 C331 1.241 . S
O327 Mn321 2.087 . S
O327 C332 1.256 . S
C328 O334 1.278 . S
C328 O335 1.241 . S
C329 O315 1.244 . S
C329 O317 1.256 . S
C330 O319 1.239 . S
C330 O323 1.256 . S
C331 O320 1.278 . S
C331 O326 1.241 . S
C332 O322 1.244 . S
C332 O327 1.256 . S
C333 O324 1.239 1_565 S
C333 O325 1.256 . S
O334 Mn316 2.221 . S
O334 Mn318 2.290 . S
O334 C328 1.278 . S
O335 Mn318 2.251 . S
O335 C328 1.241 . S
C17 C203 1.278 . S
C35 C185 1.278 . S
C245 C56 1.278 . S
C77 C224 1.278 . S
C287 C98 1.278 . S
C266 C119 1.278 . S
C329 C140 1.278 . S
C161 C308 1.278 . S
C55 C16 1.454 1_565 S
C76 C34 1.454 1_545 S
C139 C97 1.454 1_545 S
C118 C160 1.454 1_545 S
C223 C184 1.454 . S
C244 C202 1.454 . S
C265 C307 1.454 . S
C286 C328 1.454 . S
C121 C13 0.680 1_556 S
C100 C37 0.680 1_556 S
C58 C163 0.680 . S
C142 C79 0.680 . S
C181 C289 0.680 1_554 S
C268 C205 0.680 1_556 S
C226 C331 0.680 . S
C310 C247 0.680 . S
C36 C18 1.305 1_665 S
C78 C57 1.305 1_645 S
C120 C99 1.305 1_445 S
C141 C162 1.305 1_645 S
C204 C186 1.305 . S
C246 C225 1.305 . S
C267 C288 1.305 . S
C309 C330 1.305 . S
C14 C15 1.352 . S
C38 C39 1.352 . S
C59 C60 1.352 . S
C81 C80 1.352 . S
C101 C102 1.352 . S
C123 C122 1.352 . S
C143 C144 1.352 . S
C164 C165 1.352 . S
C183 C182 1.352 . S
C206 C207 1.352 . S
C228 C227 1.352 . S
C249 C248 1.352 . S
C269 C270 1.352 . S
C290 C291 1.352 . S
C312 C311 1.352 . S
C332 C333 1.352 . S
