# Generated by pormake.
# Topology bcu-i, (5)-cn, num edge types: 1
# Building blocks:
#     Node 0, Type 0, BuildingBlock: BEQFEK_clean_sbu_0, # of connection points: 5
#     Node 1, Type 0, BuildingBlock: BEQFEK_clean_sbu_0, # of connection points: 5
#     Node 2, Type 0, BuildingBlock: BEQFEK_clean_sbu_0, # of connection points: 5
#     Node 3, Type 0, BuildingBlock: BEQFEK_clean_sbu_0, # of connection points: 5
#     Node 4, Type 0, BuildingBlock: BEQFEK_clean_sbu_0, # of connection points: 5
#     Node 5, Type 0, BuildingBlock: BEQFEK_clean_sbu_0, # of connection points: 5
#     Node 6, Type 0, BuildingBlock: BEQFEK_clean_sbu_0, # of connection points: 5
#     Node 7, Type 0, BuildingBlock: BEQFEK_clean_sbu_0, # of connection points: 5
#     Node 8, Type 0, BuildingBlock: BEQFEK_clean_sbu_0, # of connection points: 5
#     Node 9, Type 0, BuildingBlock: BEQFEK_clean_sbu_0, # of connection points: 5
#     Node 10, Type 0, BuildingBlock: BEQFEK_clean_sbu_0, # of connection points: 5
#     Node 11, Type 0, BuildingBlock: BEQFEK_clean_sbu_0, # of connection points: 5
#     Node 12, Type 0, BuildingBlock: BEQFEK_clean_sbu_0, # of connection points: 5
#     Node 13, Type 0, BuildingBlock: BEQFEK_clean_sbu_0, # of connection points: 5
#     Node 14, Type 0, BuildingBlock: BEQFEK_clean_sbu_0, # of connection points: 5
#     Node 15, Type 0, BuildingBlock: BEQFEK_clean_sbu_0, # of connection points: 5
#     Edge 16, Type (0, 0), BuildingBlock: AJUNOK_clean_linker_0, # of connection points: 2
#     Edge 17, Type (0, 0), BuildingBlock: AJUNOK_clean_linker_0, # of connection points: 2
#     Edge 18, Type (0, 0), BuildingBlock: AJUNOK_clean_linker_0, # of connection points: 2
#     Edge 19, Type (0, 0), BuildingBlock: AJUNOK_clean_linker_0, # of connection points: 2
#     Edge 20, Type (0, 0), BuildingBlock: AJUNOK_clean_linker_0, # of connection points: 2
#     Edge 21, Type (0, 0), BuildingBlock: AJUNOK_clean_linker_0, # of connection points: 2
#     Edge 22, Type (0, 0), BuildingBlock: AJUNOK_clean_linker_0, # of connection points: 2
#     Edge 23, Type (0, 0), BuildingBlock: AJUNOK_clean_linker_0, # of connection points: 2
#     Edge 24, Type (0, 0), BuildingBlock: AJUNOK_clean_linker_0, # of connection points: 2
#     Edge 25, Type (0, 0), BuildingBlock: AJUNOK_clean_linker_0, # of connection points: 2
#     Edge 26, Type (0, 0), BuildingBlock: AJUNOK_clean_linker_0, # of connection points: 2
#     Edge 27, Type (0, 0), BuildingBlock: AJUNOK_clean_linker_0, # of connection points: 2
#     Edge 28, Type (0, 0), BuildingBlock: AJUNOK_clean_linker_0, # of connection points: 2
#     Edge 29, Type (0, 0), BuildingBlock: AJUNOK_clean_linker_0, # of connection points: 2
#     Edge 30, Type (0, 0), BuildingBlock: AJUNOK_clean_linker_0, # of connection points: 2
#     Edge 31, Type (0, 0), BuildingBlock: AJUNOK_clean_linker_0, # of connection points: 2
#     Edge 32, Type (0, 0), BuildingBlock: AJUNOK_clean_linker_0, # of connection points: 2
#     Edge 33, Type (0, 0), BuildingBlock: AJUNOK_clean_linker_0, # of connection points: 2
#     Edge 34, Type (0, 0), BuildingBlock: AJUNOK_clean_linker_0, # of connection points: 2
#     Edge 35, Type (0, 0), BuildingBlock: AJUNOK_clean_linker_0, # of connection points: 2
#     Edge 36, Type (0, 0), BuildingBlock: AJUNOK_clean_linker_0, # of connection points: 2
#     Edge 37, Type (0, 0), BuildingBlock: AJUNOK_clean_linker_0, # of connection points: 2
#     Edge 38, Type (0, 0), BuildingBlock: AJUNOK_clean_linker_0, # of connection points: 2
#     Edge 39, Type (0, 0), BuildingBlock: AJUNOK_clean_linker_0, # of connection points: 2
#     Edge 40, Type (0, 0), BuildingBlock: AJUNOK_clean_linker_0, # of connection points: 2
#     Edge 41, Type (0, 0), BuildingBlock: AJUNOK_clean_linker_0, # of connection points: 2
#     Edge 42, Type (0, 0), BuildingBlock: AJUNOK_clean_linker_0, # of connection points: 2
#     Edge 43, Type (0, 0), BuildingBlock: AJUNOK_clean_linker_0, # of connection points: 2
#     Edge 44, Type (0, 0), BuildingBlock: AJUNOK_clean_linker_0, # of connection points: 2
#     Edge 45, Type (0, 0), BuildingBlock: AJUNOK_clean_linker_0, # of connection points: 2
#     Edge 46, Type (0, 0), BuildingBlock: AJUNOK_clean_linker_0, # of connection points: 2
#     Edge 47, Type (0, 0), BuildingBlock: AJUNOK_clean_linker_0, # of connection points: 2
#     Edge 48, Type (0, 0), BuildingBlock: AJUNOK_clean_linker_0, # of connection points: 2
#     Edge 49, Type (0, 0), BuildingBlock: AJUNOK_clean_linker_0, # of connection points: 2
#     Edge 50, Type (0, 0), BuildingBlock: AJUNOK_clean_linker_0, # of connection points: 2
#     Edge 51, Type (0, 0), BuildingBlock: AJUNOK_clean_linker_0, # of connection points: 2
#     Edge 52, Type (0, 0), BuildingBlock: AJUNOK_clean_linker_0, # of connection points: 2
#     Edge 53, Type (0, 0), BuildingBlock: AJUNOK_clean_linker_0, # of connection points: 2
#     Edge 54, Type (0, 0), BuildingBlock: AJUNOK_clean_linker_0, # of connection points: 2
#     Edge 55, Type (0, 0), BuildingBlock: AJUNOK_clean_linker_0, # of connection points: 2
# Relax obj value: 0.910
# Max RMSD: 0.185
# Mean RMSD: 0.185
data_MOF--net-bcu-i--node1-BEQFEK_clean_sbu_0--edge1-AJUNOK_clean_linker_0
_symmetry_space_group_name_H-M    P1
_symmetry_Int_Tables_number       1
_symmetry_cell_setting            triclinic
loop_
_symmetry_equiv_pos_as_xyz
'x, y, z'
_cell_length_a     36.610362
_cell_length_b     36.674813
_cell_length_c     27.589044
_cell_angle_alpha  90.236653
_cell_angle_beta   90.061431
_cell_angle_gamma 89.965137
loop_
_atom_site_label
_atom_site_type_symbol
_atom_site_fract_x
_atom_site_fract_y
_atom_site_fract_z
_atom_type_partial_charge
Co0 Co 0.22968 0.13568 0.30876 0.0
Co1 Co 0.21421 0.06461 0.25013 0.0
C2 C 0.16474 0.12665 0.2398 0.0
O3 O 0.18539 0.14414 0.26885 0.0
O4 O 0.17203 0.09394 0.22768 0.0
C5 C 0.19988 0.16891 0.38431 0.0
O6 O 0.17361 0.1492 0.36511 0.0
C7 C 0.18477 0.99263 0.21878 0.0
C8 C 0.23615 0.96477 0.19935 0.0
C9 C 0.19895 0.95886 0.20466 0.0
N10 N 0.21256 0.01647 0.22326 0.0
N11 N 0.243 -0.0002 0.21027 0.0
C12 C 0.14578 0.00201 0.22949 0.0
H13 H 0.14367 0.02933 0.2466 0.0
H14 H 0.13342 0.98118 0.25347 0.0
H15 H 0.13009 0.00247 0.19507 0.0
C16 C 0.24177 0.08285 0.38425 0.0
N17 N 0.2294 0.09102 0.33994 0.0
N18 N 0.21451 0.06248 0.31964 0.0
C19 C 0.2119 0.03617 0.35343 0.0
C20 C 0.22961 0.04793 0.39625 0.0
C21 C 0.27211 0.10459 0.40678 0.0
H22 H 0.28805 0.11848 0.37803 0.0
H23 H 0.26073 0.12632 0.43036 0.0
H24 H 0.29091 0.08688 0.42774 0.0
O25 O 0.2727 0.13619 0.27187 0.0
O26 O 0.26335 0.0857 0.22813 0.0
H27 H 0.20614 0.98087 0.3292 0.0
H28 H 0.17705 0.99305 0.38024 0.0
C29 C 0.18924 0.0027 0.34585 0.0
H30 H 0.16644 0.00908 0.32122 0.0
H31 H 0.26879 0.01188 0.21111 0.0
O32 O 0.22985 0.17177 0.36158 0.0
C33 C 0.28328 0.11271 0.2411 0.0
Co34 Co 0.85728 0.22446 0.3454 0.0
Co35 Co 0.92525 0.21946 0.27737 0.0
C36 C 0.85825 0.17175 0.26378 0.0
O37 O 0.84167 0.18676 0.29922 0.0
O38 O 0.89048 0.18154 0.25185 0.0
C39 C 0.78968 0.22187 0.40354 0.0
O40 O 0.77279 0.20536 0.36761 0.0
C41 C 0.99297 0.18595 0.24047 0.0
C42 C 0.01819 0.23244 0.20248 0.0
C43 C 0.02411 0.19638 0.21516 0.0
N44 N 0.97011 0.21463 0.24274 0.0
N45 N 0.98501 0.24205 0.21902 0.0
C46 C 0.98607 0.15059 0.26573 0.0
H47 H 0.9645 0.15384 0.29363 0.0
H48 H 0.01155 0.14012 0.28252 0.0
H49 H 0.97636 0.1302 0.23885 0.0
C50 C 0.911 0.20636 0.41896 0.0
N51 N 0.90231 0.2122 0.37236 0.0
N52 N 0.93218 0.21305 0.34584 0.0
C53 C 0.9612 0.20908 0.37576 0.0
C54 C 0.94838 0.20429 0.42265 0.0
C55 C 0.8841 0.20443 0.45973 0.0
H56 H 0.87328 0.23215 0.46722 0.0
H57 H 0.86099 0.18645 0.44937 0.0
H58 H 0.89689 0.19384 0.49334 0.0
O59 O 0.86042 0.27191 0.3156 0.0
O60 O 0.90674 0.26962 0.26412 0.0
H61 H 0.0027 0.22967 0.32794 0.0
H62 H 0.01652 0.22537 0.39076 0.0
C63 C 0.00031 0.21282 0.36103 0.0
H64 H 0.01184 0.18538 0.35382 0.0
H65 H 0.97319 0.26783 0.21584 0.0
O66 O 0.82285 0.23097 0.39892 0.0
C67 C 0.88081 0.28697 0.28447 0.0
Co68 Co 0.7675 0.88364 0.34542 0.0
Co69 Co 0.7713 0.94232 0.2643 0.0
C70 C 0.82514 0.88212 0.26666 0.0
O71 O 0.80921 0.86981 0.30404 0.0
O72 O 0.81408 0.91121 0.24643 0.0
C73 C 0.75696 0.83256 0.42759 0.0
O74 O 0.72832 0.81784 0.40652 0.0
C75 C 0.80091 0.00678 0.21822 0.0
C76 C 0.75154 0.03369 0.18975 0.0
C77 C 0.78862 0.03918 0.19776 0.0
N78 N 0.77234 0.98409 0.22325 0.0
N79 N 0.74314 -0.00021 0.20454 0.0
C80 C 0.83788 -0.00081 0.23935 0.0
H81 H 0.83608 0.97812 0.26797 0.0
H82 H 0.85045 0.02424 0.25458 0.0
H83 H 0.85599 0.98871 0.21022 0.0
C84 C 0.75956 0.94786 0.40589 0.0
N85 N 0.76605 0.93276 0.3624 0.0
N86 N 0.77355 0.95836 0.33076 0.0
C87 C 0.77546 0.99052 0.35516 0.0
C88 C 0.7668 0.98444 0.40339 0.0
C89 C 0.74034 0.92968 0.44712 0.0
H90 H 0.73212 0.90155 0.43812 0.0
H91 H 0.75741 0.9309 0.48023 0.0
H92 H 0.71502 0.94508 0.45557 0.0
O93 O 0.72212 0.87349 0.31454 0.0
O94 O 0.72328 0.91441 0.25474 0.0
H95 H 0.76539 0.03051 0.30042 0.0
H96 H 0.77549 0.04927 0.3594 0.0
C97 C 0.78228 0.02711 0.33336 0.0
H98 H 0.81151 0.02958 0.32387 0.0
H99 H 0.71692 0.98864 0.20564 0.0
O100 O 0.77494 0.85708 0.40594 0.0
C101 C 0.70722 0.88899 0.27848 0.0
Co102 Co 0.1217 0.77164 0.33312 0.0
Co103 Co 0.05736 0.77762 0.2584 0.0
C104 C 0.12553 0.82421 0.25226 0.0
O105 O 0.13969 0.80866 0.28887 0.0
O106 O 0.09374 0.81555 0.23697 0.0
C107 C 0.18876 0.77033 0.3911 0.0
O108 O 0.20674 0.78014 0.35209 0.0
C109 C 0.99128 0.81492 0.226 0.0
C110 C 0.96065 0.77026 0.19098 0.0
C111 C 0.95727 0.80607 0.20691 0.0
N112 N 0.01304 0.7854 0.22307 0.0
N113 N 0.99496 0.75918 0.20057 0.0
C114 C 0.00166 0.84937 0.2519 0.0
H115 H 0.02713 0.84556 0.27312 0.0
H116 H 0.97926 0.85871 0.27599 0.0
H117 H 0.00636 0.87105 0.22468 0.0
C118 C 0.06452 0.79126 0.40093 0.0
N119 N 0.07571 0.78475 0.35547 0.0
N120 N 0.04739 0.78318 0.32615 0.0
C121 C 0.01674 0.78668 0.35308 0.0
C122 C 0.02693 0.79293 0.40081 0.0
C123 C 0.08923 0.79161 0.44427 0.0
H124 H 0.09975 0.76365 0.45027 0.0
H125 H 0.11276 0.80992 0.43746 0.0
H126 H 0.07499 0.80059 0.47767 0.0
O127 O 0.11913 0.72426 0.30229 0.0
O128 O 0.07613 0.72694 0.24561 0.0
H129 H 0.97856 0.76345 0.30216 0.0
H130 H 0.96129 0.76816 0.36295 0.0
C131 C 0.97859 0.78102 0.33488 0.0
H132 H 0.96609 0.80773 0.32636 0.0
H133 H 0.00504 0.73283 0.19521 0.0
O134 O 0.15442 0.76614 0.38908 0.0
C135 C 0.10067 0.70936 0.26869 0.0
Co136 Co 0.24317 0.86665 0.64487 0.0
Co137 Co 0.23024 0.93044 0.71863 0.0
C138 C 0.17987 0.86728 0.71592 0.0
O139 O 0.19834 0.8531 0.68153 0.0
O140 O 0.18935 0.89751 0.73483 0.0
C141 C 0.23456 0.80235 0.5847 0.0
O142 O 0.22097 0.78685 0.62353 0.0
C143 C 0.19622 0.99513 0.76555 0.0
C144 C 0.24495 0.02256 0.79516 0.0
C145 C 0.20751 0.02686 0.78945 0.0
N146 N 0.22576 0.97426 0.75638 0.0
N147 N 0.25461 0.99045 0.7754 0.0
C148 C 0.15829 0.985 0.75023 0.0
H149 H 0.15856 0.96074 0.72614 0.0
H150 H 0.14497 0.00809 0.73128 0.0
H151 H 0.14188 0.97845 0.78284 0.0
C152 C 0.24923 0.92678 0.57818 0.0
N153 N 0.24163 0.9143 0.62252 0.0
N154 N 0.2303 0.94103 0.65038 0.0
C155 C 0.22634 0.97107 0.62262 0.0
C156 C 0.2389 0.96318 0.57564 0.0
C157 C 0.27028 0.90498 0.54156 0.0
H158 H 0.28946 0.88626 0.56024 0.0
H159 H 0.25105 0.88828 0.5197 0.0
H160 H 0.2862 0.92291 0.51714 0.0
O161 O 0.28639 0.86266 0.68267 0.0
O162 O 0.27916 0.90752 0.73652 0.0
H163 H 0.22398 0.02169 0.66158 0.0
H164 H 0.19457 0.01979 0.60827 0.0
C165 C 0.20589 0.00416 0.63913 0.0
H166 H 0.18257 0.99559 0.66147 0.0
H167 H 0.28118 0.98027 0.77311 0.0
O168 O 0.2465 0.83473 0.58763 0.0
C169 C 0.29814 0.88181 0.71771 0.0
Co170 Co 0.12648 0.20105 0.66279 0.0
Co171 Co 0.06638 0.21029 0.74131 0.0
C172 C 0.12804 0.15767 0.75357 0.0
O173 O 0.14165 0.16856 0.714 0.0
O174 O 0.09759 0.1699 0.76893 0.0
C175 C 0.18059 0.20818 0.58492 0.0
O176 O 0.18847 0.24117 0.60043 0.0
C177 C -0.0005 0.18722 0.7878 0.0
C178 C 0.97709 0.23869 0.81679 0.0
C179 C 0.96874 0.20209 0.80986 0.0
N180 N 0.02421 0.21379 0.7814 0.0
N181 N 0.01119 0.2443 0.80017 0.0
C182 C 0.00379 0.14961 0.76706 0.0
H183 H 0.02638 0.14872 0.74035 0.0
H184 H 0.97809 0.14021 0.74972 0.0
H185 H 0.01053 0.13047 0.79679 0.0
C186 C 0.06379 0.1894 0.6 0.0
N187 N 0.0779 0.19361 0.6446 0.0
N188 N 0.05152 0.19986 0.67588 0.0
C189 C 0.01946 0.20068 0.65133 0.0
C190 C 0.02644 0.19326 0.60276 0.0
C191 C 0.08602 0.18748 0.55455 0.0
H192 H 0.10505 0.21095 0.5533 0.0
H193 H 0.10201 0.16191 0.55482 0.0
H194 H 0.06897 0.1879 0.52133 0.0
O195 O 0.13266 0.25152 0.68144 0.0
O196 O 0.09284 0.25845 0.74163 0.0
H197 H 0.98758 0.23341 0.70035 0.0
H198 H 0.96463 0.2221 0.64412 0.0
C199 C 0.98351 0.21195 0.67248 0.0
H200 H 0.9704 0.18805 0.68956 0.0
H201 H 0.02446 0.26946 0.79848 0.0
O202 O 0.15725 0.18924 0.6075 0.0
C203 C 0.11768 0.27115 0.71385 0.0
Co204 Co 0.78671 0.1359 0.66454 0.0
Co205 Co 0.78772 0.06836 0.73284 0.0
C206 C 0.83348 0.13726 0.75011 0.0
O207 O 0.82033 0.15383 0.71358 0.0
O208 O 0.82349 0.10485 0.76065 0.0
C209 C 0.7687 0.20077 0.60378 0.0
O210 O 0.76188 0.22186 0.64126 0.0
C211 C 0.82082 -0.00103 0.76559 0.0
C212 C 0.77777 0.97809 0.81398 0.0
C213 C 0.81141 0.96911 0.79412 0.0
N214 N 0.79369 0.02372 0.76792 0.0
N215 N 0.76843 0.01134 0.79775 0.0
C216 C 0.854 0.00328 0.73448 0.0
H217 H 0.85145 0.02739 0.71066 0.0
H218 H 0.85851 0.97833 0.71239 0.0
H219 H 0.87825 0.00738 0.75801 0.0
C220 C 0.8098 0.08266 0.59358 0.0
N221 N 0.80322 0.09138 0.64002 0.0
N222 N 0.79707 0.06164 0.66514 0.0
C223 C 0.79662 0.03308 0.6341 0.0
C224 C 0.8051 0.04563 0.5879 0.0
C225 C 0.81465 0.10978 0.55365 0.0
H226 H 0.78746 0.11849 0.54032 0.0
H227 H 0.82998 0.13388 0.56703 0.0
H228 H 0.82971 0.09756 0.52271 0.0
O229 O 0.73741 0.13027 0.68918 0.0
O230 O 0.73612 0.08452 0.74125 0.0
H231 H 0.76918 0.99578 0.68204 0.0
H232 H 0.76565 0.98461 0.61814 0.0
C233 C 0.78384 0.99559 0.64689 0.0
H234 H 0.8078 0.97718 0.64939 0.0
H235 H 0.74418 0.02507 0.80577 0.0
O236 O 0.78028 0.16849 0.60937 0.0
C237 C 0.72006 0.10981 0.71804 0.0
Co238 Co 0.86418 0.7797 0.66876 0.0
Co239 Co 0.9371 0.7793 0.72808 0.0
C240 C 0.87487 0.82921 0.75354 0.0
O241 O 0.85537 0.81495 0.72044 0.0
O242 O 0.90775 0.81896 0.76072 0.0
C243 C 0.7962 0.80182 0.62505 0.0
O244 O 0.79225 0.82301 0.66314 0.0
C245 C 0.00901 0.80829 0.75394 0.0
C246 C 0.03906 0.75806 0.77276 0.0
C247 C 0.04355 0.79516 0.76547 0.0
N248 N 0.98551 0.78014 0.75382 0.0
N249 N 0.00344 0.75037 0.76639 0.0
C250 C -0.00084 0.84582 0.73715 0.0
H251 H 0.97376 0.84519 0.7152 0.0
H252 H 0.02174 0.85799 0.71584 0.0
H253 H 0.9942 0.86341 0.7693 0.0
C254 C 0.91358 0.79558 0.58919 0.0
N255 N 0.90748 0.79069 0.63667 0.0
N256 N 0.93886 0.78852 0.6599 0.0
C257 C 0.9661 0.79152 0.62715 0.0
C258 C 0.95067 0.79666 0.58187 0.0
C259 C 0.88453 0.79612 0.55106 0.0
H260 H 0.87027 0.76944 0.55031 0.0
H261 H 0.86442 0.81748 0.56027 0.0
H262 H 0.89587 0.80185 0.51459 0.0
O263 O 0.86787 0.73056 0.69114 0.0
O264 O 0.91705 0.72877 0.73834 0.0
H265 H 0.0201 0.77539 0.60387 0.0
H266 H 0.01879 0.81018 0.64954 0.0
C267 C 0.0057 0.78457 0.63714 0.0
H268 H 0.00881 0.76351 0.66548 0.0
H269 H 0.99187 0.72438 0.76742 0.0
O270 O 0.82371 0.78094 0.62221 0.0
C271 C 0.89003 0.71316 0.7177 0.0
Co272 Co 0.7284 0.61914 0.82583 0.0
Co273 Co 0.73103 0.55183 0.75577 0.0
C274 C 0.67292 0.60766 0.74645 0.0
O275 O 0.68721 0.6256 0.78093 0.0
O276 O 0.68652 0.57769 0.73197 0.0
C277 C 0.6877 0.64863 0.89774 0.0
O278 O 0.66401 0.62907 0.87317 0.0
C279 C 0.70511 0.48248 0.71794 0.0
C280 C 0.75528 0.45707 0.68918 0.0
C281 C 0.71855 0.45031 0.69792 0.0
N282 N 0.73269 0.5065 0.72174 0.0
N283 N 0.76242 0.49153 0.70334 0.0
C284 C 0.66775 0.48926 0.73822 0.0
H285 H 0.66812 0.51249 0.76409 0.0
H286 H 0.65714 0.46466 0.75673 0.0
H287 H 0.64886 0.49599 0.70808 0.0
C288 C 0.73405 0.56194 0.89857 0.0
N289 N 0.73016 0.57224 0.85218 0.0
N290 N 0.72758 0.54314 0.82423 0.0
C291 C 0.72721 0.51338 0.85315 0.0
C292 C 0.73104 0.52476 0.90082 0.0
C293 C 0.74456 0.58627 0.94003 0.0
H294 H 0.75619 0.61232 0.92728 0.0
H295 H 0.72051 0.5909 0.96349 0.0
H296 H 0.76551 0.57278 0.96282 0.0
O297 O 0.77482 0.62646 0.79598 0.0
O298 O 0.7781 0.57966 0.74404 0.0
H299 H 0.74384 0.47077 0.80441 0.0
H300 H 0.73504 0.45588 0.86558 0.0
C301 C 0.72599 0.47459 0.83639 0.0
H302 H 0.69758 0.46736 0.82658 0.0
H303 H 0.78801 0.5041 0.70283 0.0
O304 O 0.7194 0.65304 0.88007 0.0
C305 C 0.79204 0.60779 0.76455 0.0
Co306 Co 0.36609 0.71185 0.83791 0.0
Co307 Co 0.43361 0.70941 0.76825 0.0
C308 C 0.36407 0.66454 0.75216 0.0
O309 O 0.34827 0.67759 0.78948 0.0
O310 O 0.39646 0.67416 0.74046 0.0
C311 C 0.29968 0.72526 0.89727 0.0
O312 O 0.27834 0.72503 0.85898 0.0
C313 C 0.49784 0.66982 0.73408 0.0
C314 C 0.53504 0.71419 0.71266 0.0
C315 C 0.53361 0.67677 0.71967 0.0
N316 N 0.47969 0.70165 0.73696 0.0
N317 N 0.50184 0.728 0.72304 0.0
C318 C 0.48045 0.63378 0.74436 0.0
H319 H 0.47549 0.63126 0.78389 0.0
H320 H 0.49757 0.6108 0.73124 0.0
H321 H 0.45356 0.63247 0.72613 0.0
C322 C 0.42014 0.68909 0.90801 0.0
N323 N 0.41065 0.69609 0.86205 0.0
N324 N 0.44011 0.69982 0.8354 0.0
C325 C 0.46962 0.69728 0.86453 0.0
C326 C 0.45771 0.69026 0.91131 0.0
C327 C 0.39363 0.68319 0.94856 0.0
H328 H 0.37017 0.66668 0.93553 0.0
H329 H 0.40692 0.66914 0.97948 0.0
H330 H 0.38313 0.70987 0.9614 0.0
O331 O 0.37155 0.76038 0.81172 0.0
O332 O 0.41781 0.76123 0.76001 0.0
H333 H 0.52067 0.68345 0.83234 0.0
H334 H 0.50684 0.72994 0.8233 0.0
C335 C 0.5076 0.70729 0.84976 0.0
H336 H 0.5244 0.71544 0.8815 0.0
H337 H 0.49497 0.75563 0.72335 0.0
O338 O 0.33349 0.71856 0.89322 0.0
C339 C 0.39211 0.77744 0.78265 0.0
Co340 Co 0.2838 0.36342 0.8202 0.0
Co341 Co 0.28247 0.42877 0.74839 0.0
C342 C 0.3374 0.36727 0.7402 0.0
O343 O 0.3231 0.35055 0.77572 0.0
O344 O 0.32495 0.39793 0.72587 0.0
C345 C 0.25272 0.32506 0.89842 0.0
O346 O 0.22468 0.34622 0.88899 0.0
C347 C 0.31051 0.4985 0.71432 0.0
C348 C 0.26262 0.52157 0.67663 0.0
C349 C 0.29778 0.5299 0.69186 0.0
N350 N 0.28387 0.47336 0.71333 0.0
N351 N 0.25567 0.48693 0.68958 0.0
C352 C 0.34584 0.49354 0.74093 0.0
H353 H 0.34505 0.46869 0.76371 0.0
H354 H 0.35193 0.51777 0.76375 0.0
H355 H 0.36827 0.49052 0.7142 0.0
C356 C 0.2954 0.42161 0.89142 0.0
N357 N 0.29124 0.4102 0.84542 0.0
N358 N 0.2866 0.43852 0.81684 0.0
C359 C 0.28589 0.46895 0.84472 0.0
C360 C 0.29184 0.45898 0.89255 0.0
C361 C 0.30178 0.39732 0.93406 0.0
H362 H 0.2751 0.38849 0.94885 0.0
H363 H 0.31786 0.37301 0.92318 0.0
H364 H 0.31656 0.41217 0.96323 0.0
O365 O 0.23638 0.36139 0.78923 0.0
O366 O 0.23439 0.40509 0.73402 0.0
H367 H 0.26021 0.52112 0.85606 0.0
H368 H 0.30048 0.52196 0.81942 0.0
C369 C 0.27544 0.50615 0.82744 0.0
H370 H 0.25836 0.5043 0.79435 0.0
H371 H 0.23087 0.47334 0.68473 0.0
O372 O 0.28142 0.32773 0.87276 0.0
C373 C 0.21952 0.3788 0.75658 0.0
Co374 Co 0.63362 0.26856 0.82782 0.0
Co375 Co 0.57177 0.27397 0.74987 0.0
C376 C 0.64178 0.31828 0.74474 0.0
O377 O 0.65462 0.30348 0.78274 0.0
O378 O 0.61003 0.31017 0.72868 0.0
C379 C 0.69741 0.26856 0.89258 0.0
O380 O 0.71772 0.27958 0.85626 0.0
C381 C 0.50682 0.31032 0.71072 0.0
C382 C 0.48015 0.26536 0.67092 0.0
C383 C 0.47493 0.30112 0.68605 0.0
N384 N 0.52918 0.28119 0.71083 0.0
N385 N 0.51354 0.25478 0.68565 0.0
C386 C 0.51446 0.34472 0.73837 0.0
H387 H 0.53747 0.34087 0.764 0.0
H388 H 0.48976 0.35408 0.75811 0.0
H389 H 0.52229 0.36638 0.71244 0.0
C390 C 0.57529 0.29129 0.89192 0.0
N391 N 0.58752 0.28386 0.84717 0.0
N392 N 0.55987 0.28176 0.8168 0.0
C393 C 0.52865 0.28594 0.84242 0.0
C394 C 0.5378 0.2928 0.89037 0.0
C395 C 0.59886 0.29417 0.93617 0.0
H396 H 0.60758 0.26646 0.94725 0.0
H397 H 0.62352 0.31059 0.92801 0.0
H398 H 0.58391 0.30701 0.9668 0.0
O399 O 0.63026 0.2204 0.79956 0.0
O400 O 0.58934 0.22265 0.74031 0.0
H401 H 0.47419 0.26511 0.85125 0.0
H402 H 0.47755 0.30535 0.81526 0.0
C403 C 0.49099 0.279 0.8234 0.0
H404 H 0.49192 0.26193 0.7902 0.0
H405 H 0.52454 0.2287 0.68142 0.0
O406 O 0.66361 0.26295 0.88607 0.0
C407 C 0.61229 0.20501 0.76592 0.0
Co408 Co 0.71868 0.36355 0.1543 0.0
Co409 Co 0.71321 0.4285 0.22755 0.0
C410 C 0.66543 0.36076 0.23376 0.0
O411 O 0.68137 0.34546 0.19811 0.0
O412 O 0.67466 0.39258 0.2483 0.0
C413 C 0.72071 0.29743 0.09297 0.0
O414 O 0.70712 0.27824 0.12877 0.0
C415 C 0.6796 0.49636 0.26418 0.0
C416 C 0.7232 0.51746 0.31193 0.0
C417 C 0.68913 0.52607 0.29314 0.0
N418 N 0.70707 0.47199 0.26518 0.0
N419 N 0.73265 0.48443 0.2947 0.0
C420 C 0.64621 0.49208 0.23332 0.0
H421 H 0.64928 0.46884 0.2078 0.0
H422 H 0.64067 0.51756 0.21302 0.0
H423 H 0.62237 0.48661 0.25698 0.0
C424 C 0.70037 0.41984 0.08528 0.0
N425 N 0.70517 0.40929 0.1313 0.0
N426 N 0.70809 0.43804 0.1597 0.0
C427 C 0.70774 0.4681 0.13155 0.0
C428 C 0.70212 0.45732 0.08376 0.0
C429 C 0.69928 0.39441 0.04265 0.0
H430 H 0.68201 0.37045 0.05112 0.0
H431 H 0.68827 0.40796 0.00989 0.0
H432 H 0.72741 0.38498 0.03454 0.0
O433 O 0.76623 0.36655 0.18472 0.0
O434 O 0.76346 0.41002 0.24055 0.0
H435 H 0.73364 0.52023 0.12177 0.0
H436 H 0.69089 0.52152 0.15297 0.0
C437 C 0.71658 0.50581 0.14882 0.0
H438 H 0.73114 0.505 0.18404 0.0
H439 H 0.75728 0.47104 0.30154 0.0
O440 O 0.72605 0.33132 0.09844 0.0
C441 C 0.7812 0.38563 0.21757 0.0
Co442 Co 0.63098 0.71392 0.16734 0.0
Co443 Co 0.5613 0.71433 0.23379 0.0
C444 C 0.62279 0.66472 0.25467 0.0
O445 O 0.64015 0.67879 0.21957 0.0
O446 O 0.59046 0.67487 0.26519 0.0
C447 C 0.66914 0.67186 0.10367 0.0
O448 O 0.65376 0.64725 0.13141 0.0
C449 C 0.49279 0.68847 0.27751 0.0
C450 C 0.45637 0.73493 0.2623 0.0
C451 C 0.45601 0.69872 0.27684 0.0
N452 N 0.51306 0.71646 0.26114 0.0
N453 N 0.49123 0.74458 0.25394 0.0
C454 C 0.50911 0.6533 0.29437 0.0
H455 H 0.51986 0.63782 0.2628 0.0
H456 H 0.48894 0.6367 0.3146 0.0
H457 H 0.53261 0.6592 0.31859 0.0
C458 C 0.57577 0.70424 0.0919 0.0
N459 N 0.58538 0.70658 0.13887 0.0
N460 N 0.55622 0.70304 0.16627 0.0
C461 C 0.52739 0.69596 0.13711 0.0
C462 C 0.53914 0.69636 0.08949 0.0
C463 C 0.59868 0.71658 0.05012 0.0
H464 H 0.62263 0.73248 0.06248 0.0
H465 H 0.60739 0.6926 0.0286 0.0
H466 H 0.5822 0.734 0.02556 0.0
O467 O 0.63256 0.76301 0.1902 0.0
O468 O 0.58528 0.76435 0.24102 0.0
H469 H 0.47678 0.7148 0.16615 0.0
H470 H 0.47221 0.6774 0.12415 0.0
C471 C 0.48928 0.6889 0.15375 0.0
H472 H 0.48994 0.66933 0.18401 0.0
H473 H 0.49971 0.76937 0.23931 0.0
O474 O 0.66754 0.70505 0.11667 0.0
C475 C 0.61223 0.77995 0.21995 0.0
Co476 Co 0.26729 0.63221 0.15036 0.0
Co477 Co 0.26935 0.56325 0.21685 0.0
C478 C 0.31952 0.6281 0.23231 0.0
O479 O 0.30557 0.64604 0.19745 0.0
O480 O 0.30844 0.59618 0.24315 0.0
C481 C 0.26996 0.7012 0.09507 0.0
O482 O 0.28261 0.71874 0.13313 0.0
C483 C 0.30311 0.49776 0.25879 0.0
C484 C 0.25562 0.46107 0.26468 0.0
C485 C 0.29339 0.46183 0.26891 0.0
N486 N 0.27274 0.51656 0.24743 0.0
N487 N 0.24434 0.49473 0.2525 0.0
C488 C 0.34053 0.51421 0.25904 0.0
H489 H 0.33979 0.54089 0.27798 0.0
H490 H 0.34948 0.51906 0.22119 0.0
H491 H 0.36052 0.49648 0.2779 0.0
C492 C 0.28312 0.57802 0.07525 0.0
N493 N 0.27784 0.58695 0.12204 0.0
N494 N 0.27727 0.55724 0.14861 0.0
C495 C 0.28207 0.52818 0.11902 0.0
C496 C 0.28589 0.54054 0.07171 0.0
C497 C 0.2818 0.60472 0.03431 0.0
H498 H 0.25427 0.61731 0.03296 0.0
H499 H 0.30216 0.62662 0.04072 0.0
H500 H 0.28729 0.59174 -0.00127 0.0
O501 O 0.21932 0.63017 0.17883 0.0
O502 O 0.21886 0.58306 0.22899 0.0
H503 H 0.25748 0.48295 0.1552 0.0
H504 H 0.2863 0.47015 0.10463 0.0
C505 C 0.28302 0.48937 0.13546 0.0
H506 H 0.30635 0.48556 0.1605 0.0
H507 H 0.21749 0.50216 0.24452 0.0
O508 O 0.26316 0.66742 0.09773 0.0
C509 C 0.20276 0.60969 0.20842 0.0
Co510 Co 0.36293 0.28219 0.13998 0.0
Co511 Co 0.42916 0.27528 0.20978 0.0
C512 C 0.36601 0.32727 0.22785 0.0
O513 O 0.34865 0.31643 0.19064 0.0
O514 O 0.39725 0.31436 0.23898 0.0
C515 C 0.29383 0.2826 0.0868 0.0
O516 O 0.27586 0.28456 0.1279 0.0
C517 C 0.49719 0.30315 0.25087 0.0
C518 C 0.52188 0.25362 0.28216 0.0
C519 C 0.52844 0.29033 0.27388 0.0
N520 N 0.47365 0.27532 0.24566 0.0
N521 N 0.48817 0.24598 0.26551 0.0
C522 C 0.49099 0.34014 0.22952 0.0
H523 H 0.46863 0.33937 0.2024 0.0
H524 H 0.51637 0.35062 0.21259 0.0
H525 H 0.48282 0.35928 0.25879 0.0
C526 C 0.41971 0.30141 0.07097 0.0
N527 N 0.40926 0.2936 0.11635 0.0
N528 N 0.43813 0.28706 0.14341 0.0
C529 C 0.46812 0.28907 0.11512 0.0
C530 C 0.45727 0.29883 0.06864 0.0
C531 C 0.39387 0.30598 0.02929 0.0
H532 H 0.38127 0.27924 0.02072 0.0
H533 H 0.37186 0.32535 0.03946 0.0
H534 H 0.40781 0.31604 -0.00368 0.0
O535 O 0.36292 0.23205 0.16018 0.0
O536 O 0.40805 0.22496 0.21271 0.0
H537 H 0.50495 0.25848 0.16022 0.0
H538 H 0.52243 0.2686 0.10042 0.0
C539 C 0.50594 0.27918 0.1311 0.0
H540 H 0.51982 0.3039 0.14516 0.0
H541 H 0.47585 0.22031 0.26546 0.0
O542 O 0.32844 0.28316 0.08649 0.0
C543 C 0.38197 0.21189 0.18745 0.0
C544 C 0.14424 0.91707 0.19754 0.0
C545 C 0.18153 0.92226 0.2082 0.0
C546 C 0.12647 0.88423 0.20884 0.0
C547 C 0.1455 0.85532 0.23076 0.0
H548 H 0.12831 0.93873 0.18153 0.0
H549 H 0.0973 0.88226 0.20266 0.0
S550 S 0.24489 0.85205 0.25708 0.0
N551 N 0.2378 0.89346 0.23595 0.0
N552 N 0.20469 0.83183 0.25565 0.0
C553 C 0.18341 0.85889 0.23728 0.0
C554 C 0.20139 0.89226 0.2262 0.0
C555 C 0.12515 0.18169 0.23369 0.0
C556 C 0.1299 0.14412 0.22497 0.0
C557 C 0.09109 0.19835 0.2283 0.0
C558 C 0.06022 0.17821 0.21419 0.0
H559 H 0.14765 0.1983 0.24655 0.0
H560 H 0.08866 0.22701 0.23745 0.0
S561 S 0.05871 0.08048 0.17941 0.0
N562 N 0.10135 0.08804 0.19633 0.0
N563 N 0.03725 0.11986 0.18546 0.0
C564 C 0.06484 0.14123 0.20216 0.0
C565 C 0.09973 0.1241 0.20759 0.0
C566 C 0.78599 0.102 0.23134 0.0
C567 C 0.80548 0.07551 0.20502 0.0
C568 C 0.80293 0.13384 0.24788 0.0
C569 C 0.84014 0.14066 0.23874 0.0
H570 H 0.75789 0.0972 0.24181 0.0
H571 H 0.78693 0.15254 0.26973 0.0
S572 S 0.90179 0.08222 0.16489 0.0
N573 N 0.86259 0.05993 0.16538 0.0
N574 N 0.89495 0.11976 0.19692 0.0
C575 C 0.85931 0.11558 0.20936 0.0
C576 C 0.84186 0.08301 0.19244 0.0
C577 C 0.8855 0.88052 0.22293 0.0
C578 C 0.85729 0.86207 0.24737 0.0
C579 C 0.91757 0.86219 0.20866 0.0
C580 C 0.92217 0.82471 0.21757 0.0
H581 H 0.88335 0.90953 0.21626 0.0
H582 H 0.93907 0.87752 0.19115 0.0
S583 S 0.85558 0.76349 0.27766 0.0
N584 N 0.83554 0.80379 0.27773 0.0
N585 N 0.89536 0.76962 0.25088 0.0
C586 C 0.89362 0.80578 0.24037 0.0
C587 C 0.86132 0.82439 0.25532 0.0
C588 C 0.12961 0.09601 0.79206 0.0
C589 C 0.14775 0.12813 0.77861 0.0
C590 C 0.1493 0.06363 0.80017 0.0
C591 C 0.18757 0.06228 0.79413 0.0
H592 H 0.10003 0.09514 0.79259 0.0
H593 H 0.13412 0.03929 0.80892 0.0
S594 S 0.24779 0.14205 0.77115 0.0
N595 N 0.20597 0.15872 0.76912 0.0
N596 N 0.24297 0.09828 0.78314 0.0
C597 C 0.20603 0.09554 0.7866 0.0
C598 C 0.18605 0.12832 0.77886 0.0
C599 C 0.87155 0.19201 0.76788 0.0
C600 C 0.86408 0.15494 0.77658 0.0
C601 C 0.90445 0.20784 0.78263 0.0
C602 C 0.93123 0.18727 0.80668 0.0
H603 H 0.85278 0.20855 0.74699 0.0
H604 H 0.90994 0.23569 0.77191 0.0
S605 S 0.92226 0.0916 0.8476 0.0
N606 N 0.88411 0.09962 0.81743 0.0
N607 N 0.94583 0.12997 0.84598 0.0
C608 C 0.92273 0.15137 0.82007 0.0
C609 C 0.88913 0.13506 0.80489 0.0
C610 C 0.8821 0.89305 0.78428 0.0
C611 C 0.85999 0.86207 0.7777 0.0
C612 C 0.86646 0.92753 0.79267 0.0
C613 C 0.82826 0.93215 0.79455 0.0
H614 H 0.9114 0.89116 0.7794 0.0
H615 H 0.88444 0.95078 0.79596 0.0
S616 S 0.75915 0.8581 0.78868 0.0
N617 N 0.79863 0.83716 0.78092 0.0
N618 N 0.7692 0.90164 0.79595 0.0
C619 C 0.80625 0.90069 0.79275 0.0
C620 C 0.82214 0.86575 0.78437 0.0
C621 C 0.1047 0.79643 0.72643 0.0
C622 C 0.07902 0.81329 0.75698 0.0
C623 C 0.13741 0.81382 0.71424 0.0
C624 C 0.14599 0.84873 0.73246 0.0
H625 H 0.09898 0.76996 0.71054 0.0
H626 H 0.15584 0.79987 0.68969 0.0
S627 S 0.08885 0.90302 0.81765 0.0
N628 N 0.06496 0.86553 0.80784 0.0
N629 N 0.12649 0.89858 0.78522 0.0
C630 C 0.12094 0.86534 0.76458 0.0
C631 C 0.08744 0.84757 0.7767 0.0
C632 C 0.66374 0.40965 0.68835 0.0
C633 C 0.70101 0.41386 0.69967 0.0
C634 C 0.64501 0.37738 0.69964 0.0
C635 C 0.66302 0.34824 0.72254 0.0
H636 H 0.64853 0.43204 0.67272 0.0
H637 H 0.61584 0.37622 0.69318 0.0
S638 S 0.76198 0.34295 0.75121 0.0
N639 N 0.75624 0.38426 0.72896 0.0
N640 N 0.72133 0.32359 0.7493 0.0
C641 C 0.70099 0.35087 0.72973 0.0
C642 C 0.71997 0.38365 0.71834 0.0
C643 C 0.59469 0.65786 0.68744 0.0
C644 C 0.56636 0.65276 0.72141 0.0
C645 C 0.62885 0.64079 0.69306 0.0
C646 C 0.63556 0.61786 0.73263 0.0
H647 H 0.59096 0.67652 0.6575 0.0
H648 H 0.65063 0.64712 0.66792 0.0
S649 S 0.57183 0.59537 0.83211 0.0
N650 N 0.54858 0.62323 0.79683 0.0
N651 N 0.61175 0.58993 0.80539 0.0
C652 C 0.60725 0.61117 0.76551 0.0
C653 C 0.57284 0.62891 0.76045 0.0
C654 C 0.35067 0.57325 0.69036 0.0
C655 C 0.31312 0.56705 0.697 0.0
C656 C 0.36676 0.60634 0.70451 0.0
C657 C 0.34583 0.63419 0.72614 0.0
H658 H 0.368 0.55184 0.67608 0.0
H659 H 0.39606 0.60905 0.70133 0.0
S660 S 0.24535 0.63372 0.74383 0.0
N661 N 0.25471 0.59316 0.72086 0.0
N662 N 0.28484 0.65527 0.74717 0.0
C663 C 0.30776 0.62945 0.72896 0.0
C664 C 0.29141 0.59591 0.71437 0.0
C665 C 0.3765 0.3133 0.72297 0.0
C666 C 0.37053 0.35101 0.71802 0.0
C667 C 0.40975 0.29737 0.70993 0.0
C668 C 0.43862 0.31849 0.69172 0.0
H669 H 0.35571 0.29598 0.73866 0.0
H670 H 0.41343 0.2685 0.71654 0.0
S671 S 0.4358 0.41758 0.66603 0.0
N672 N 0.3953 0.40863 0.68953 0.0
N673 N 0.458 0.37835 0.66455 0.0
C674 C 0.43247 0.35582 0.6838 0.0
C675 C 0.39833 0.37215 0.69692 0.0
C676 C 0.61768 0.60134 0.28692 0.0
C677 C 0.63921 0.63227 0.2776 0.0
C678 C 0.63393 0.56714 0.29485 0.0
C679 C 0.67215 0.56286 0.29384 0.0
H680 H 0.58818 0.60297 0.28459 0.0
H681 H 0.61639 0.54374 0.29996 0.0
S682 S 0.74037 0.6369 0.27905 0.0
N683 N 0.70046 0.6575 0.27416 0.0
N684 N 0.73098 0.59354 0.28881 0.0
C685 C 0.69385 0.59431 0.28898 0.0
C686 C 0.67735 0.62893 0.2808 0.0
C687 C 0.3886 0.69243 0.28819 0.0
C688 C 0.42218 0.67595 0.27567 0.0
C689 C 0.35502 0.67594 0.27675 0.0
C690 C 0.35377 0.64182 0.25367 0.0
H691 H 0.38821 0.71936 0.30447 0.0
H692 H 0.32994 0.69058 0.28428 0.0
S693 S 0.43246 0.58666 0.21218 0.0
N694 N 0.45092 0.62324 0.23705 0.0
N695 N 0.38801 0.5916 0.2192 0.0
C696 C 0.38671 0.62404 0.24321 0.0
C697 C 0.42091 0.6412 0.25338 0.0
C698 C 0.34804 0.42701 0.23916 0.0
C699 C 0.31679 0.42863 0.2689 0.0
C700 C 0.36626 0.3941 0.2306 0.0
C701 C 0.35339 0.36134 0.25019 0.0
H702 H 0.35702 0.45047 0.21887 0.0
H703 H 0.38878 0.39382 0.2051 0.0
S704 S 0.2743 0.35017 0.33206 0.0
N705 N 0.27549 0.39436 0.32069 0.0
N706 N 0.30885 0.33204 0.3019 0.0
C707 C 0.32322 0.36238 0.28128 0.0
C708 C 0.3051 0.39612 0.29115 0.0
C709 C 0.59435 0.28791 0.25366 0.0
C710 C 0.56502 0.30743 0.27381 0.0
C711 C 0.62766 0.30494 0.24407 0.0
C712 C 0.63306 0.34219 0.25439 0.0
H713 H 0.59091 0.25978 0.24239 0.0
H714 H 0.64873 0.28909 0.2262 0.0
S715 S 0.56693 0.40345 0.31617 0.0
N716 N 0.54505 0.36425 0.31079 0.0
N717 N 0.60764 0.39682 0.2919 0.0
C718 C 0.60497 0.36123 0.27848 0.0
C719 C 0.5709 0.34372 0.28829 0.0
C720 C 0.21175 0.21111 0.454 0.0
C721 C 0.19815 0.17791 0.43607 0.0
C722 C 0.20804 0.22018 0.50325 0.0
C723 C 0.19161 0.19579 0.53598 0.0
H724 H 0.22383 0.23073 0.42955 0.0
H725 H 0.21676 0.24696 0.51521 0.0
S726 S 0.1577 0.10252 0.5074 0.0
N727 N 0.17091 0.11922 0.45486 0.0
N728 N 0.16695 0.13462 0.54761 0.0
C729 C 0.18108 0.16111 0.51877 0.0
C730 C 0.18344 0.15262 0.46867 0.0
C731 C 0.7889 0.24791 0.48694 0.0
C732 C 0.77415 0.22314 0.45287 0.0
C733 C 0.78362 0.24313 0.5368 0.0
C734 C 0.76357 0.21335 0.55386 0.0
H735 H 0.80697 0.26953 0.4752 0.0
H736 H 0.79804 0.26074 0.56197 0.0
S737 S 0.71369 0.14484 0.48016 0.0
N738 N 0.73423 0.17099 0.43994 0.0
N739 N 0.72438 0.16207 0.53373 0.0
C740 C 0.74548 0.19079 0.52028 0.0
C741 C 0.75066 0.19572 0.46959 0.0
C742 C 0.75896 0.78796 0.55175 0.0
C743 C 0.78006 0.81264 0.5789 0.0
C744 C 0.75078 0.79487 0.5029 0.0
C745 C 0.76528 0.82557 0.47925 0.0
H746 H 0.74953 0.76285 0.56805 0.0
H747 H 0.73418 0.7754 0.48314 0.0
S748 S 0.82459 0.89682 0.53523 0.0
N749 N 0.81456 0.86897 0.58006 0.0
N750 N 0.80386 0.87967 0.48718 0.0
C751 C 0.78709 0.85001 0.50643 0.0
C752 C 0.79319 0.84416 0.55661 0.0
C753 C 0.23573 0.79447 0.44827 0.0
C754 C 0.20642 0.77074 0.43923 0.0
C755 C 0.24683 0.80219 0.49579 0.0
C756 C 0.22907 0.78638 0.53587 0.0
H757 H 0.24843 0.80924 0.41883 0.0
H758 H 0.26807 0.82235 0.50118 0.0
S759 S 0.15627 0.71611 0.53043 0.0
N760 N 0.1641 0.72665 0.47326 0.0
N761 N 0.18469 0.74138 0.56267 0.0
C762 C 0.20239 0.75963 0.52693 0.0
C763 C 0.19107 0.75183 0.47853 0.0
C764 C 0.70211 0.68204 0.97451 0.0
C765 C 0.68164 0.65538 0.94983 0.0
C766 C 0.69908 0.6864 0.02485 0.0
C767 C 0.67644 0.66343 0.05231 0.0
H768 H 0.72039 0.6998 0.95476 0.0
H769 H 0.71433 0.70808 0.04235 0.0
S770 S 0.61814 0.58837 0.00508 0.0
N771 N 0.63811 0.60543 0.95669 0.0
N772 N 0.6337 0.61256 0.05116 0.0
C773 C 0.65661 0.63597 0.02815 0.0
C774 C 0.65866 0.63241 0.97689 0.0
C775 C 0.25492 0.70807 0.96074 0.0
C776 C 0.28498 0.72907 0.94653 0.0
C777 C 0.24783 0.70221 0.00996 0.0
C778 C 0.27043 0.71739 0.04624 0.0
H779 H 0.23892 0.69343 0.93395 0.0
H780 H 0.22621 0.68342 0.01956 0.0
S781 S 0.3476 0.78094 0.02684 0.0
N782 N 0.33368 0.76999 0.97172 0.0
N783 N 0.32029 0.75904 0.06437 0.0
C784 C 0.29782 0.74191 0.03234 0.0
C785 C 0.30518 0.74764 0.98228 0.0
C786 C 0.23664 0.32013 0.98585 0.0
C787 C 0.25502 0.30595 0.94508 0.0
C788 C 0.24666 0.30958 0.0328 0.0
C789 C 0.27512 0.28451 0.03987 0.0
H790 H 0.21682 0.34186 0.98184 0.0
H791 H 0.23446 0.32354 0.06346 0.0
S792 S 0.3246 0.23254 0.94495 0.0
N793 N 0.29779 0.26062 0.91465 0.0
N794 N 0.31622 0.24043 0.00285 0.0
C795 C 0.29031 0.26688 -0.00063 0.0
C796 C 0.28034 0.27771 0.95182 0.0
C797 C 0.69124 0.24978 0.97871 0.0
C798 C 0.71107 0.26872 0.94298 0.0
C799 C 0.697 0.25649 0.02809 0.0
C800 C 0.72263 0.28253 0.04332 0.0
H801 H 0.66945 0.23131 0.96844 0.0
H802 H 0.67919 0.24341 0.05409 0.0
S803 S 0.78683 0.33376 0.96499 0.0
N804 N 0.76125 0.31031 0.92665 0.0
N805 N 0.77228 0.32275 0.01963 0.0
C806 C 0.74532 0.2987 0.00828 0.0
C807 C 0.73954 0.29179 0.95797 0.0
C808 C 0.34709 0.13033 0.25205 0.0
C809 C 0.31919 0.11948 0.21984 0.0
C810 C 0.37195 0.15752 0.23912 0.0
C811 C 0.36953 0.17398 0.19347 0.0
H812 H 0.34616 0.12191 0.28966 0.0
H813 H 0.38959 0.16882 0.26693 0.0
S814 S 0.3109 0.14439 0.09076 0.0
N815 N 0.29725 0.11936 0.13697 0.0
N816 N 0.34496 0.16956 0.11147 0.0
C817 C 0.34683 0.15778 0.15807 0.0
C818 C 0.32134 0.13041 0.17154 0.0
C819 C 0.82481 0.37128 0.2833 0.0
C820 C 0.81774 0.37419 0.23353 0.0
C821 C 0.85036 0.34596 0.30013 0.0
C822 C 0.86946 0.3232 0.26758 0.0
H823 H 0.80742 0.38493 0.30945 0.0
H824 H 0.85197 0.34118 0.33882 0.0
S825 S 0.86923 0.32982 0.13376 0.0
N826 N 0.83831 0.35972 0.15185 0.0
N827 N 0.88634 0.31187 0.1837 0.0
C828 C 0.86735 0.33072 0.21791 0.0
C829 C 0.84128 0.3564 0.20076 0.0
C830 C 0.66766 0.86516 0.21264 0.0
C831 C 0.6724 0.87328 0.26188 0.0
C832 C 0.64367 0.83742 0.19835 0.0
C833 C 0.62384 0.8172 0.23289 0.0
H834 H 0.68548 0.87711 0.1857 0.0
H835 H 0.64352 0.82927 0.16054 0.0
S836 S 0.61904 0.83596 0.3646 0.0
N837 N 0.64941 0.86529 0.34389 0.0
N838 N 0.60456 0.8128 0.31684 0.0
C839 C 0.6241 0.82911 0.28115 0.0
C840 C 0.6485 0.85733 0.29573 0.0
C841 C 0.13136 0.65073 0.28679 0.0
C842 C 0.11306 0.67295 0.25285 0.0
C843 C 0.15743 0.62512 0.27181 0.0
C844 C 0.16576 0.62119 0.22252 0.0
H845 H 0.12863 0.65608 0.32528 0.0
H846 H 0.17417 0.61198 0.29905 0.0
S847 S 0.11734 0.66409 0.11931 0.0
N848 N 0.09878 0.68286 0.16791 0.0
N849 N 0.14767 0.63448 0.13963 0.0
C850 C 0.14324 0.63858 0.18827 0.0
C851 C 0.11671 0.66461 0.2035 0.0
C852 C 0.35826 0.83387 0.80393 0.0
C853 C 0.38124 0.81517 0.77106 0.0
C854 C 0.33431 0.86103 0.78792 0.0
C855 C 0.33305 0.87018 0.73876 0.0
H856 H 0.35563 0.82457 0.84101 0.0
H857 H 0.31367 0.87118 0.81267 0.0
S858 S 0.39621 0.83878 0.64231 0.0
N859 N 0.40777 0.81462 0.69034 0.0
N860 N 0.36297 0.86612 0.66032 0.0
C861 C 0.36046 0.85665 0.7078 0.0
C862 C 0.38471 0.8289 0.72399 0.0
C863 C 0.17908 0.35174 0.69459 0.0
C864 C 0.18382 0.36426 0.74218 0.0
C865 C 0.15407 0.32387 0.68453 0.0
C866 C 0.13317 0.30786 0.7218 0.0
H867 H 0.19757 0.36037 0.66622 0.0
H868 H 0.15357 0.31259 0.64817 0.0
S869 S 0.12892 0.33892 0.84964 0.0
N870 N 0.16061 0.36473 0.82459 0.0
N871 N 0.11354 0.31218 0.80585 0.0
C872 C 0.13393 0.32407 0.76794 0.0
C873 C 0.15942 0.35239 0.7781 0.0
C874 C 0.63368 0.162 0.70319 0.0
C875 C 0.62462 0.16833 0.75184 0.0
C876 C 0.66207 0.13803 0.69136 0.0
C877 C 0.68179 0.11974 0.72787 0.0
H878 H 0.62258 0.1792 0.67491 0.0
H879 H 0.67139 0.13716 0.6541 0.0
S880 S 0.65936 0.1179 0.85856 0.0
N881 N 0.63032 0.14745 0.83504 0.0
N882 N 0.68389 0.10235 0.81269 0.0
C883 C 0.66831 0.12073 0.77534 0.0
C884 C 0.63945 0.14517 0.78738 0.0
C885 C 0.84961 0.63812 0.78774 0.0
C886 C 0.82836 0.62134 0.75128 0.0
C887 C 0.87542 0.66477 0.77619 0.0
C888 C 0.88029 0.67522 0.72791 0.0
H889 H 0.84328 0.63369 0.82564 0.0
H890 H 0.88769 0.68046 0.80532 0.0
S891 S 0.83985 0.63153 0.61897 0.0
N892 N 0.82014 0.61077 0.66508 0.0
N893 N 0.86898 0.66086 0.64306 0.0
C894 C 0.86395 0.65415 0.69101 0.0
C895 C 0.8377 0.62704 0.7028 0.0
C896 C 0.23279 0.98934 0.44292 0.0
C897 C 0.23437 0.02762 0.4431 0.0
C898 C 0.23224 0.96943 0.48581 0.0
C899 C 0.23858 0.98602 0.53105 0.0
H900 H 0.23165 0.974 0.40954 0.0
H901 H 0.22675 0.94058 0.48284 0.0
S902 S 0.253 0.08477 0.5526 0.0
N903 N 0.24274 0.08146 0.49457 0.0
N904 N 0.25356 0.04254 0.57267 0.0
C905 C 0.24442 0.02383 0.5318 0.0
C906 C 0.24008 0.04486 0.48859 0.0
C907 C 0.9804 0.16813 0.48542 0.0
C908 C 0.96893 0.20214 0.46814 0.0
C909 C 0.99696 0.16513 0.53099 0.0
C910 C 0.00219 0.19604 0.56049 0.0
H911 H 0.97647 0.1438 0.46363 0.0
H912 H 0.00674 0.1387 0.54272 0.0
S913 S 0.97648 0.29108 0.53117 0.0
N914 N 0.96293 0.26704 0.48366 0.0
N915 N 0.99509 0.2616 0.56903 0.0
C916 C 0.99042 0.2301 0.54369 0.0
C917 C 0.97347 0.2331 0.49746 0.0
C918 C 0.74959 0.01494 0.48036 0.0
C919 C 0.77664 0.00607 0.44628 0.0
C920 C 0.75912 0.02639 0.52712 0.0
C921 C 0.79593 0.02882 0.54115 0.0
H922 H 0.72096 0.01189 0.47125 0.0
H923 H 0.73764 0.03358 0.55242 0.0
S924 S 0.87679 0.00967 0.46496 0.0
N925 N 0.84155 0.00109 0.42923 0.0
N926 N 0.85941 0.02309 0.51733 0.0
C927 C 0.82316 0.02093 0.50715 0.0
C928 C 0.8135 0.00946 0.45953 0.0
C929 C 0.96715 0.76572 0.50512 0.0
C930 C 0.9691 0.79671 0.53501 0.0
C931 C 0.98463 0.76518 0.46014 0.0
C932 C 0.00386 0.79584 0.44388 0.0
H933 H 0.95266 0.74163 0.51708 0.0
H934 H 0.98417 0.74034 0.43877 0.0
S935 S 0.01522 0.88393 0.50815 0.0
N936 N 0.99056 0.8588 0.54541 0.0
N937 N 0.02295 0.85816 0.45995 0.0
C938 C 0.00505 0.82727 0.47295 0.0
C939 C 0.98775 0.8276 0.51894 0.0
C940 C 0.75213 0.49886 0.9789 0.0
C941 C 0.72383 0.50467 0.9455 0.0
C942 C 0.7446 0.48542 0.02519 0.0
C943 C 0.70855 0.47792 0.03927 0.0
H944 H 0.78011 0.50513 0.96929 0.0
H945 H 0.76708 0.48006 0.04974 0.0
S946 S 0.62509 0.48896 0.96503 0.0
N947 N 0.65865 0.50251 0.9294 0.0
N948 N 0.6445 0.47682 0.01662 0.0
C949 C 0.68009 0.48372 0.00625 0.0
C950 C 0.68776 0.4972 0.95915 0.0
C951 C 0.50662 0.66719 0.96565 0.0
C952 C 0.47889 0.69259 0.95631 0.0
C953 C 0.52573 0.66818 0.00957 0.0
C954 C 0.51728 0.6944 0.04511 0.0
H955 H 0.51326 0.64636 0.93911 0.0
H956 H 0.54717 0.64837 0.0159 0.0
S957 S 0.45012 0.7694 0.03526 0.0
N958 N 0.44615 0.74655 0.98382 0.0
N959 N 0.48177 0.74789 0.06685 0.0
C960 C 0.49027 0.72041 0.03565 0.0
C961 C 0.47111 0.71964 0.99095 0.0
C962 C 0.31656 0.52369 -0.00588 0.0
C963 C 0.28728 0.5191 0.02649 0.0
C964 C 0.31731 0.50515 0.94959 0.0
C965 C 0.28888 0.48145 0.93655 0.0
H966 H 0.33895 0.54174 0.00336 0.0
H967 H 0.34051 0.50872 0.92575 0.0
S968 S 0.20546 0.46145 0.00738 0.0
N969 N 0.22857 0.49052 0.04151 0.0
N970 N 0.23044 0.45493 0.95826 0.0
C971 C 0.25938 0.47689 0.96832 0.0
C972 C 0.25848 0.4959 0.01333 0.0
C973 C 0.51018 0.26297 0.96157 0.0
C974 C 0.51405 0.29423 0.93289 0.0
C975 C 0.49244 0.26482 0.00636 0.0
C976 C 0.47871 0.2981 0.0238 0.0
H977 H 0.52147 0.23715 0.94959 0.0
H978 H 0.4892 0.24011 0.02732 0.0
S979 S 0.48263 0.38755 0.96235 0.0
N980 N 0.50324 0.35916 0.92457 0.0
N981 N 0.46991 0.36279 0.00931 0.0
C982 C 0.48241 0.32948 -0.00464 0.0
C983 C 0.50018 0.32751 0.94964 0.0
loop_
_geom_bond_atom_site_label_1
_geom_bond_atom_site_label_2
_geom_bond_distance
_geom_bond_site_symmetry_2
_ccdc_geom_bond_type
Co0 O3 1.970 . S
Co0 N17 1.989 . S
Co0 O25 1.967 . S
Co0 O32 1.920 . S
Co1 O4 1.966 . S
Co1 N10 2.022 . S
Co1 N18 1.993 . S
Co1 O26 1.941 . S
C2 O3 1.258 . S
C2 O4 1.263 . S
O3 Co0 1.970 . S
O3 C2 1.258 . S
O4 Co1 1.966 . S
O4 C2 1.263 . S
C5 O6 1.235 . S
C5 O32 1.289 . S
O6 C5 1.235 . S
C7 C9 1.400 1_545 S
C7 N10 1.351 . S
C7 C12 1.501 . S
C8 C9 1.387 . S
C8 N11 1.355 . S
C9 C7 1.400 1_565 S
C9 C8 1.387 . S
N10 Co1 2.022 . S
N10 C7 1.351 . S
N10 N11 1.356 1_545 S
N11 C8 1.355 . S
N11 N10 1.356 1_565 S
N11 H31 0.858 1_565 S
C12 C7 1.501 . S
C12 H13 0.961 . S
C12 H14 0.961 . S
C12 H15 0.960 . S
H13 C12 0.961 . S
H14 C12 0.961 . S
H15 C12 0.960 . S
C16 N17 1.342 . S
C16 C20 1.401 . S
C16 C21 1.499 . S
N17 Co0 1.989 . S
N17 C16 1.342 . S
N17 N18 1.388 . S
N18 Co1 1.993 . S
N18 N17 1.388 . S
N18 C19 1.346 . S
C19 N18 1.346 . S
C19 C20 1.396 . S
C19 C29 1.510 1_545 S
C20 C16 1.401 . S
C20 C19 1.396 . S
C21 C16 1.499 . S
C21 H22 0.959 . S
C21 H23 0.960 . S
C21 H24 0.961 . S
H22 C21 0.959 . S
H23 C21 0.960 . S
H24 C21 0.961 . S
O25 Co0 1.967 . S
O25 C33 1.258 . S
O26 Co1 1.941 . S
O26 C33 1.266 . S
H27 C29 0.959 . S
H28 C29 0.961 . S
C29 C19 1.510 1_565 S
C29 H27 0.959 . S
C29 H28 0.961 . S
C29 H30 0.960 . S
H30 C29 0.960 . S
H31 N11 0.858 1_545 S
O32 Co0 1.920 . S
O32 C5 1.289 . S
C33 O25 1.258 . S
C33 O26 1.266 . S
Co34 O37 1.970 . S
Co34 N51 1.989 . S
Co34 O59 1.967 . S
Co34 O66 1.920 . S
Co35 O38 1.966 . S
Co35 N44 2.022 . S
Co35 N52 1.993 . S
Co35 O60 1.941 . S
C36 O37 1.258 . S
C36 O38 1.263 . S
O37 Co34 1.970 . S
O37 C36 1.258 . S
O38 Co35 1.966 . S
O38 C36 1.263 . S
C39 O40 1.235 . S
C39 O66 1.289 . S
O40 C39 1.235 . S
C41 C43 1.400 1_655 S
C41 N44 1.351 . S
C41 C46 1.501 . S
C42 C43 1.387 . S
C42 N45 1.355 . S
C43 C41 1.400 1_455 S
C43 C42 1.387 . S
N44 Co35 2.022 . S
N44 C41 1.351 . S
N44 N45 1.356 1_655 S
N45 C42 1.355 . S
N45 N44 1.356 1_455 S
N45 H65 0.858 1_455 S
C46 C41 1.501 . S
C46 H47 0.961 . S
C46 H48 0.961 . S
C46 H49 0.960 . S
H47 C46 0.961 . S
H48 C46 0.961 . S
H49 C46 0.960 . S
C50 N51 1.342 . S
C50 C54 1.401 . S
C50 C55 1.499 . S
N51 Co34 1.989 . S
N51 C50 1.342 . S
N51 N52 1.388 . S
N52 Co35 1.993 . S
N52 N51 1.388 . S
N52 C53 1.346 . S
C53 N52 1.346 . S
C53 C54 1.396 . S
C53 C63 1.510 1_655 S
C54 C50 1.401 . S
C54 C53 1.396 . S
C55 C50 1.499 . S
C55 H56 0.959 . S
C55 H57 0.960 . S
C55 H58 0.961 . S
H56 C55 0.959 . S
H57 C55 0.960 . S
H58 C55 0.961 . S
O59 Co34 1.967 . S
O59 C67 1.258 . S
O60 Co35 1.941 . S
O60 C67 1.266 . S
H61 C63 0.959 . S
H62 C63 0.961 . S
C63 C53 1.510 1_455 S
C63 H61 0.959 . S
C63 H62 0.961 . S
C63 H64 0.960 . S
H64 C63 0.960 . S
H65 N45 0.858 1_655 S
O66 Co34 1.920 . S
O66 C39 1.289 . S
C67 O59 1.258 . S
C67 O60 1.266 . S
Co68 O71 1.970 . S
Co68 N85 1.989 . S
Co68 O93 1.967 . S
Co68 O100 1.920 . S
Co69 O72 1.966 . S
Co69 N78 2.022 . S
Co69 N86 1.993 . S
Co69 O94 1.941 . S
C70 O71 1.258 . S
C70 O72 1.263 . S
O71 Co68 1.970 . S
O71 C70 1.258 . S
O72 Co69 1.966 . S
O72 C70 1.263 . S
C73 O74 1.235 . S
C73 O100 1.289 . S
O74 C73 1.235 . S
C75 C77 1.400 1_565 S
C75 N78 1.351 . S
C75 C80 1.501 . S
C76 C77 1.387 . S
C76 N79 1.355 . S
C77 C75 1.400 1_545 S
C77 C76 1.387 . S
N78 Co69 2.022 . S
N78 C75 1.351 . S
N78 N79 1.356 1_565 S
N79 C76 1.355 . S
N79 N78 1.356 1_545 S
N79 H99 0.858 1_545 S
C80 C75 1.501 . S
C80 H81 0.961 . S
C80 H82 0.961 . S
C80 H83 0.960 . S
H81 C80 0.961 . S
H82 C80 0.961 . S
H83 C80 0.960 . S
C84 N85 1.342 . S
C84 C88 1.401 . S
C84 C89 1.499 . S
N85 Co68 1.989 . S
N85 C84 1.342 . S
N85 N86 1.388 . S
N86 Co69 1.993 . S
N86 N85 1.388 . S
N86 C87 1.346 . S
C87 N86 1.346 . S
C87 C88 1.396 . S
C87 C97 1.510 1_565 S
C88 C84 1.401 . S
C88 C87 1.396 . S
C89 C84 1.499 . S
C89 H90 0.959 . S
C89 H91 0.960 . S
C89 H92 0.961 . S
H90 C89 0.959 . S
H91 C89 0.960 . S
H92 C89 0.961 . S
O93 Co68 1.967 . S
O93 C101 1.258 . S
O94 Co69 1.941 . S
O94 C101 1.266 . S
H95 C97 0.959 . S
H96 C97 0.961 . S
C97 C87 1.510 1_545 S
C97 H95 0.959 . S
C97 H96 0.961 . S
C97 H98 0.960 . S
H98 C97 0.960 . S
H99 N79 0.858 1_565 S
O100 Co68 1.920 . S
O100 C73 1.289 . S
C101 O93 1.258 . S
C101 O94 1.266 . S
Co102 O105 1.970 . S
Co102 N119 1.989 . S
Co102 O127 1.967 . S
Co102 O134 1.920 . S
Co103 O106 1.966 . S
Co103 N112 2.022 . S
Co103 N120 1.993 . S
Co103 O128 1.941 . S
C104 O105 1.258 . S
C104 O106 1.263 . S
O105 Co102 1.970 . S
O105 C104 1.258 . S
O106 Co103 1.966 . S
O106 C104 1.263 . S
C107 O108 1.235 . S
C107 O134 1.289 . S
O108 C107 1.235 . S
C109 C111 1.400 1_455 S
C109 N112 1.351 . S
C109 C114 1.501 . S
C110 C111 1.387 . S
C110 N113 1.355 . S
C111 C109 1.400 1_655 S
C111 C110 1.387 . S
N112 Co103 2.022 . S
N112 C109 1.351 . S
N112 N113 1.356 1_455 S
N113 C110 1.355 . S
N113 N112 1.356 1_655 S
N113 H133 0.858 1_655 S
C114 C109 1.501 . S
C114 H115 0.961 . S
C114 H116 0.961 . S
C114 H117 0.960 . S
H115 C114 0.961 . S
H116 C114 0.961 . S
H117 C114 0.960 . S
C118 N119 1.342 . S
C118 C122 1.401 . S
C118 C123 1.499 . S
N119 Co102 1.989 . S
N119 C118 1.342 . S
N119 N120 1.388 . S
N120 Co103 1.993 . S
N120 N119 1.388 . S
N120 C121 1.346 . S
C121 N120 1.346 . S
C121 C122 1.396 . S
C121 C131 1.510 1_455 S
C122 C118 1.401 . S
C122 C121 1.396 . S
C123 C118 1.499 . S
C123 H124 0.959 . S
C123 H125 0.960 . S
C123 H126 0.961 . S
H124 C123 0.959 . S
H125 C123 0.960 . S
H126 C123 0.961 . S
O127 Co102 1.967 . S
O127 C135 1.258 . S
O128 Co103 1.941 . S
O128 C135 1.266 . S
H129 C131 0.959 . S
H130 C131 0.961 . S
C131 C121 1.510 1_655 S
C131 H129 0.959 . S
C131 H130 0.961 . S
C131 H132 0.960 . S
H132 C131 0.960 . S
H133 N113 0.858 1_455 S
O134 Co102 1.920 . S
O134 C107 1.289 . S
C135 O127 1.258 . S
C135 O128 1.266 . S
Co136 O139 1.970 . S
Co136 N153 1.989 . S
Co136 O161 1.967 . S
Co136 O168 1.920 . S
Co137 O140 1.966 . S
Co137 N146 2.022 . S
Co137 N154 1.993 . S
Co137 O162 1.941 . S
C138 O139 1.258 . S
C138 O140 1.263 . S
O139 Co136 1.970 . S
O139 C138 1.258 . S
O140 Co137 1.966 . S
O140 C138 1.263 . S
C141 O142 1.235 . S
C141 O168 1.289 . S
O142 C141 1.235 . S
C143 C145 1.400 1_565 S
C143 N146 1.351 . S
C143 C148 1.501 . S
C144 C145 1.387 . S
C144 N147 1.355 . S
C145 C143 1.400 1_545 S
C145 C144 1.387 . S
N146 Co137 2.022 . S
N146 C143 1.351 . S
N146 N147 1.356 1_565 S
N147 C144 1.355 . S
N147 N146 1.356 1_545 S
N147 H167 0.858 1_545 S
C148 C143 1.501 . S
C148 H149 0.961 . S
C148 H150 0.961 . S
C148 H151 0.960 . S
H149 C148 0.961 . S
H150 C148 0.961 . S
H151 C148 0.960 . S
C152 N153 1.342 . S
C152 C156 1.401 . S
C152 C157 1.499 . S
N153 Co136 1.989 . S
N153 C152 1.342 . S
N153 N154 1.388 . S
N154 Co137 1.993 . S
N154 N153 1.388 . S
N154 C155 1.346 . S
C155 N154 1.346 . S
C155 C156 1.396 . S
C155 C165 1.510 1_565 S
C156 C152 1.401 . S
C156 C155 1.396 . S
C157 C152 1.499 . S
C157 H158 0.959 . S
C157 H159 0.960 . S
C157 H160 0.961 . S
H158 C157 0.959 . S
H159 C157 0.960 . S
H160 C157 0.961 . S
O161 Co136 1.967 . S
O161 C169 1.258 . S
O162 Co137 1.941 . S
O162 C169 1.266 . S
H163 C165 0.959 . S
H164 C165 0.961 . S
C165 C155 1.510 1_545 S
C165 H163 0.959 . S
C165 H164 0.961 . S
C165 H166 0.960 . S
H166 C165 0.960 . S
H167 N147 0.858 1_565 S
O168 Co136 1.920 . S
O168 C141 1.289 . S
C169 O161 1.258 . S
C169 O162 1.266 . S
Co170 O173 1.970 . S
Co170 N187 1.989 . S
Co170 O195 1.967 . S
Co170 O202 1.920 . S
Co171 O174 1.966 . S
Co171 N180 2.022 . S
Co171 N188 1.993 . S
Co171 O196 1.941 . S
C172 O173 1.258 . S
C172 O174 1.263 . S
O173 Co170 1.970 . S
O173 C172 1.258 . S
O174 Co171 1.966 . S
O174 C172 1.263 . S
C175 O176 1.235 . S
C175 O202 1.289 . S
O176 C175 1.235 . S
C177 C179 1.400 1_455 S
C177 N180 1.351 . S
C177 C182 1.501 . S
C178 C179 1.387 . S
C178 N181 1.355 . S
C179 C177 1.400 1_655 S
C179 C178 1.387 . S
N180 Co171 2.022 . S
N180 C177 1.351 . S
N180 N181 1.356 1_455 S
N181 C178 1.355 . S
N181 N180 1.356 1_655 S
N181 H201 0.858 1_655 S
C182 C177 1.501 . S
C182 H183 0.961 . S
C182 H184 0.961 . S
C182 H185 0.960 . S
H183 C182 0.961 . S
H184 C182 0.961 . S
H185 C182 0.960 . S
C186 N187 1.342 . S
C186 C190 1.401 . S
C186 C191 1.499 . S
N187 Co170 1.989 . S
N187 C186 1.342 . S
N187 N188 1.388 . S
N188 Co171 1.993 . S
N188 N187 1.388 . S
N188 C189 1.346 . S
C189 N188 1.346 . S
C189 C190 1.396 . S
C189 C199 1.510 1_455 S
C190 C186 1.401 . S
C190 C189 1.396 . S
C191 C186 1.499 . S
C191 H192 0.959 . S
C191 H193 0.960 . S
C191 H194 0.961 . S
H192 C191 0.959 . S
H193 C191 0.960 . S
H194 C191 0.961 . S
O195 Co170 1.967 . S
O195 C203 1.258 . S
O196 Co171 1.941 . S
O196 C203 1.266 . S
H197 C199 0.959 . S
H198 C199 0.961 . S
C199 C189 1.510 1_655 S
C199 H197 0.959 . S
C199 H198 0.961 . S
C199 H200 0.960 . S
H200 C199 0.960 . S
H201 N181 0.858 1_455 S
O202 Co170 1.920 . S
O202 C175 1.289 . S
C203 O195 1.258 . S
C203 O196 1.266 . S
Co204 O207 1.970 . S
Co204 N221 1.989 . S
Co204 O229 1.967 . S
Co204 O236 1.920 . S
Co205 O208 1.966 . S
Co205 N214 2.022 . S
Co205 N222 1.993 . S
Co205 O230 1.941 . S
C206 O207 1.258 . S
C206 O208 1.263 . S
O207 Co204 1.970 . S
O207 C206 1.258 . S
O208 Co205 1.966 . S
O208 C206 1.263 . S
C209 O210 1.235 . S
C209 O236 1.289 . S
O210 C209 1.235 . S
C211 C213 1.400 1_545 S
C211 N214 1.351 . S
C211 C216 1.501 . S
C212 C213 1.387 . S
C212 N215 1.355 . S
C213 C211 1.400 1_565 S
C213 C212 1.387 . S
N214 Co205 2.022 . S
N214 C211 1.351 . S
N214 N215 1.356 1_545 S
N215 C212 1.355 . S
N215 N214 1.356 1_565 S
N215 H235 0.858 1_565 S
C216 C211 1.501 . S
C216 H217 0.961 . S
C216 H218 0.961 . S
C216 H219 0.960 . S
H217 C216 0.961 . S
H218 C216 0.961 . S
H219 C216 0.960 . S
C220 N221 1.342 . S
C220 C224 1.401 . S
C220 C225 1.499 . S
N221 Co204 1.989 . S
N221 C220 1.342 . S
N221 N222 1.388 . S
N222 Co205 1.993 . S
N222 N221 1.388 . S
N222 C223 1.346 . S
C223 N222 1.346 . S
C223 C224 1.396 . S
C223 C233 1.510 1_545 S
C224 C220 1.401 . S
C224 C223 1.396 . S
C225 C220 1.499 . S
C225 H226 0.959 . S
C225 H227 0.960 . S
C225 H228 0.961 . S
H226 C225 0.959 . S
H227 C225 0.960 . S
H228 C225 0.961 . S
O229 Co204 1.967 . S
O229 C237 1.258 . S
O230 Co205 1.941 . S
O230 C237 1.266 . S
H231 C233 0.959 . S
H232 C233 0.961 . S
C233 C223 1.510 1_565 S
C233 H231 0.959 . S
C233 H232 0.961 . S
C233 H234 0.960 . S
H234 C233 0.960 . S
H235 N215 0.858 1_545 S
O236 Co204 1.920 . S
O236 C209 1.289 . S
C237 O229 1.258 . S
C237 O230 1.266 . S
Co238 O241 1.970 . S
Co238 N255 1.989 . S
Co238 O263 1.967 . S
Co238 O270 1.920 . S
Co239 O242 1.966 . S
Co239 N248 2.022 . S
Co239 N256 1.993 . S
Co239 O264 1.941 . S
C240 O241 1.258 . S
C240 O242 1.263 . S
O241 Co238 1.970 . S
O241 C240 1.258 . S
O242 Co239 1.966 . S
O242 C240 1.263 . S
C243 O244 1.235 . S
C243 O270 1.289 . S
O244 C243 1.235 . S
C245 C247 1.400 1_655 S
C245 N248 1.351 . S
C245 C250 1.501 . S
C246 C247 1.387 . S
C246 N249 1.355 . S
C247 C245 1.400 1_455 S
C247 C246 1.387 . S
N248 Co239 2.022 . S
N248 C245 1.351 . S
N248 N249 1.356 1_655 S
N249 C246 1.355 . S
N249 N248 1.356 1_455 S
N249 H269 0.858 1_455 S
C250 C245 1.501 . S
C250 H251 0.961 . S
C250 H252 0.961 . S
C250 H253 0.960 . S
H251 C250 0.961 . S
H252 C250 0.961 . S
H253 C250 0.960 . S
C254 N255 1.342 . S
C254 C258 1.401 . S
C254 C259 1.499 . S
N255 Co238 1.989 . S
N255 C254 1.342 . S
N255 N256 1.388 . S
N256 Co239 1.993 . S
N256 N255 1.388 . S
N256 C257 1.346 . S
C257 N256 1.346 . S
C257 C258 1.396 . S
C257 C267 1.510 1_655 S
C258 C254 1.401 . S
C258 C257 1.396 . S
C259 C254 1.499 . S
C259 H260 0.959 . S
C259 H261 0.960 . S
C259 H262 0.961 . S
H260 C259 0.959 . S
H261 C259 0.960 . S
H262 C259 0.961 . S
O263 Co238 1.967 . S
O263 C271 1.258 . S
O264 Co239 1.941 . S
O264 C271 1.266 . S
H265 C267 0.959 . S
H266 C267 0.961 . S
C267 C257 1.510 1_455 S
C267 H265 0.959 . S
C267 H266 0.961 . S
C267 H268 0.960 . S
H268 C267 0.960 . S
H269 N249 0.858 1_655 S
O270 Co238 1.920 . S
O270 C243 1.289 . S
C271 O263 1.258 . S
C271 O264 1.266 . S
Co272 O275 1.970 . S
Co272 N289 1.989 . S
Co272 O297 1.967 . S
Co272 O304 1.920 . S
Co273 O276 1.966 . S
Co273 N282 2.022 . S
Co273 N290 1.993 . S
Co273 O298 1.941 . S
C274 O275 1.258 . S
C274 O276 1.263 . S
O275 Co272 1.970 . S
O275 C274 1.258 . S
O276 Co273 1.966 . S
O276 C274 1.263 . S
C277 O278 1.235 . S
C277 O304 1.289 . S
O278 C277 1.235 . S
C279 C281 1.400 . S
C279 N282 1.351 . S
C279 C284 1.501 . S
C280 C281 1.387 . S
C280 N283 1.341 . S
C281 C279 1.400 . S
C281 C280 1.387 . S
N282 Co273 2.022 . S
N282 C279 1.351 . S
N282 N283 1.365 . S
N283 C280 1.341 . S
N283 N282 1.365 . S
N283 H303 0.862 . S
C284 C279 1.501 . S
C284 H285 0.961 . S
C284 H286 0.961 . S
C284 H287 0.960 . S
H285 C284 0.961 . S
H286 C284 0.961 . S
H287 C284 0.960 . S
C288 N289 1.342 . S
C288 C292 1.401 . S
C288 C293 1.499 . S
N289 Co272 1.989 . S
N289 C288 1.342 . S
N289 N290 1.388 . S
N290 Co273 1.993 . S
N290 N289 1.388 . S
N290 C291 1.346 . S
C291 N290 1.346 . S
C291 C292 1.396 . S
C291 C301 1.510 . S
C292 C288 1.401 . S
C292 C291 1.396 . S
C293 C288 1.499 . S
C293 H294 0.959 . S
C293 H295 0.960 . S
C293 H296 0.961 . S
H294 C293 0.959 . S
H295 C293 0.960 . S
H296 C293 0.961 . S
O297 Co272 1.967 . S
O297 C305 1.258 . S
O298 Co273 1.941 . S
O298 C305 1.266 . S
H299 C301 0.959 . S
H300 C301 0.961 . S
C301 C291 1.510 . S
C301 H299 0.959 . S
C301 H300 0.961 . S
C301 H302 0.960 . S
H302 C301 0.960 . S
H303 N283 0.862 . S
O304 Co272 1.920 . S
O304 C277 1.289 . S
C305 O297 1.258 . S
C305 O298 1.266 . S
Co306 O309 1.970 . S
Co306 N323 1.989 . S
Co306 O331 1.967 . S
Co306 O338 1.920 . S
Co307 O310 1.966 . S
Co307 N316 2.022 . S
Co307 N324 1.993 . S
Co307 O332 1.941 . S
C308 O309 1.258 . S
C308 O310 1.263 . S
O309 Co306 1.970 . S
O309 C308 1.258 . S
O310 Co307 1.966 . S
O310 C308 1.263 . S
C311 O312 1.235 . S
C311 O338 1.289 . S
O312 C311 1.235 . S
C313 C315 1.400 . S
C313 N316 1.351 . S
C313 C318 1.501 . S
C314 C315 1.387 . S
C314 N317 1.341 . S
C315 C313 1.400 . S
C315 C314 1.387 . S
N316 Co307 2.022 . S
N316 C313 1.351 . S
N316 N317 1.365 . S
N317 C314 1.341 . S
N317 N316 1.365 . S
N317 H337 0.862 . S
C318 C313 1.501 . S
C318 H319 0.961 . S
C318 H320 0.961 . S
C318 H321 0.960 . S
H319 C318 0.961 . S
H320 C318 0.961 . S
H321 C318 0.960 . S
C322 N323 1.342 . S
C322 C326 1.401 . S
C322 C327 1.499 . S
N323 Co306 1.989 . S
N323 C322 1.342 . S
N323 N324 1.388 . S
N324 Co307 1.993 . S
N324 N323 1.388 . S
N324 C325 1.346 . S
C325 N324 1.346 . S
C325 C326 1.396 . S
C325 C335 1.510 . S
C326 C322 1.401 . S
C326 C325 1.396 . S
C327 C322 1.499 . S
C327 H328 0.959 . S
C327 H329 0.960 . S
C327 H330 0.961 . S
H328 C327 0.959 . S
H329 C327 0.960 . S
H330 C327 0.961 . S
O331 Co306 1.967 . S
O331 C339 1.258 . S
O332 Co307 1.941 . S
O332 C339 1.266 . S
H333 C335 0.959 . S
H334 C335 0.961 . S
C335 C325 1.510 . S
C335 H333 0.959 . S
C335 H334 0.961 . S
C335 H336 0.960 . S
H336 C335 0.960 . S
H337 N317 0.862 . S
O338 Co306 1.920 . S
O338 C311 1.289 . S
C339 O331 1.258 . S
C339 O332 1.266 . S
Co340 O343 1.970 . S
Co340 N357 1.989 . S
Co340 O365 1.967 . S
Co340 O372 1.920 . S
Co341 O344 1.966 . S
Co341 N350 2.022 . S
Co341 N358 1.993 . S
Co341 O366 1.941 . S
C342 O343 1.258 . S
C342 O344 1.263 . S
O343 Co340 1.970 . S
O343 C342 1.258 . S
O344 Co341 1.966 . S
O344 C342 1.263 . S
C345 O346 1.235 . S
C345 O372 1.289 . S
O346 C345 1.235 . S
C347 C349 1.400 . S
C347 N350 1.351 . S
C347 C352 1.501 . S
C348 C349 1.387 . S
C348 N351 1.341 . S
C349 C347 1.400 . S
C349 C348 1.387 . S
N350 Co341 2.022 . S
N350 C347 1.351 . S
N350 N351 1.365 . S
N351 C348 1.341 . S
N351 N350 1.365 . S
N351 H371 0.862 . S
C352 C347 1.501 . S
C352 H353 0.961 . S
C352 H354 0.961 . S
C352 H355 0.960 . S
H353 C352 0.961 . S
H354 C352 0.961 . S
H355 C352 0.960 . S
C356 N357 1.342 . S
C356 C360 1.401 . S
C356 C361 1.499 . S
N357 Co340 1.989 . S
N357 C356 1.342 . S
N357 N358 1.388 . S
N358 Co341 1.993 . S
N358 N357 1.388 . S
N358 C359 1.346 . S
C359 N358 1.346 . S
C359 C360 1.396 . S
C359 C369 1.510 . S
C360 C356 1.401 . S
C360 C359 1.396 . S
C361 C356 1.499 . S
C361 H362 0.959 . S
C361 H363 0.960 . S
C361 H364 0.961 . S
H362 C361 0.959 . S
H363 C361 0.960 . S
H364 C361 0.961 . S
O365 Co340 1.967 . S
O365 C373 1.258 . S
O366 Co341 1.941 . S
O366 C373 1.266 . S
H367 C369 0.959 . S
H368 C369 0.961 . S
C369 C359 1.510 . S
C369 H367 0.959 . S
C369 H368 0.961 . S
C369 H370 0.960 . S
H370 C369 0.960 . S
H371 N351 0.862 . S
O372 Co340 1.920 . S
O372 C345 1.289 . S
C373 O365 1.258 . S
C373 O366 1.266 . S
Co374 O377 1.970 . S
Co374 N391 1.989 . S
Co374 O399 1.967 . S
Co374 O406 1.920 . S
Co375 O378 1.966 . S
Co375 N384 2.022 . S
Co375 N392 1.993 . S
Co375 O400 1.941 . S
C376 O377 1.258 . S
C376 O378 1.263 . S
O377 Co374 1.970 . S
O377 C376 1.258 . S
O378 Co375 1.966 . S
O378 C376 1.263 . S
C379 O380 1.235 . S
C379 O406 1.289 . S
O380 C379 1.235 . S
C381 C383 1.400 . S
C381 N384 1.351 . S
C381 C386 1.501 . S
C382 C383 1.387 . S
C382 N385 1.341 . S
C383 C381 1.400 . S
C383 C382 1.387 . S
N384 Co375 2.022 . S
N384 C381 1.351 . S
N384 N385 1.365 . S
N385 C382 1.341 . S
N385 N384 1.365 . S
N385 H405 0.862 . S
C386 C381 1.501 . S
C386 H387 0.961 . S
C386 H388 0.961 . S
C386 H389 0.960 . S
H387 C386 0.961 . S
H388 C386 0.961 . S
H389 C386 0.960 . S
C390 N391 1.342 . S
C390 C394 1.401 . S
C390 C395 1.499 . S
N391 Co374 1.989 . S
N391 C390 1.342 . S
N391 N392 1.388 . S
N392 Co375 1.993 . S
N392 N391 1.388 . S
N392 C393 1.346 . S
C393 N392 1.346 . S
C393 C394 1.396 . S
C393 C403 1.510 . S
C394 C390 1.401 . S
C394 C393 1.396 . S
C395 C390 1.499 . S
C395 H396 0.959 . S
C395 H397 0.960 . S
C395 H398 0.961 . S
H396 C395 0.959 . S
H397 C395 0.960 . S
H398 C395 0.961 . S
O399 Co374 1.967 . S
O399 C407 1.258 . S
O400 Co375 1.941 . S
O400 C407 1.266 . S
H401 C403 0.959 . S
H402 C403 0.961 . S
C403 C393 1.510 . S
C403 H401 0.959 . S
C403 H402 0.961 . S
C403 H404 0.960 . S
H404 C403 0.960 . S
H405 N385 0.862 . S
O406 Co374 1.920 . S
O406 C379 1.289 . S
C407 O399 1.258 . S
C407 O400 1.266 . S
Co408 O411 1.970 . S
Co408 N425 1.989 . S
Co408 O433 1.967 . S
Co408 O440 1.920 . S
Co409 O412 1.966 . S
Co409 N418 2.022 . S
Co409 N426 1.993 . S
Co409 O434 1.941 . S
C410 O411 1.258 . S
C410 O412 1.263 . S
O411 Co408 1.970 . S
O411 C410 1.258 . S
O412 Co409 1.966 . S
O412 C410 1.263 . S
C413 O414 1.235 . S
C413 O440 1.289 . S
O414 C413 1.235 . S
C415 C417 1.400 . S
C415 N418 1.351 . S
C415 C420 1.501 . S
C416 C417 1.387 . S
C416 N419 1.341 . S
C417 C415 1.400 . S
C417 C416 1.387 . S
N418 Co409 2.022 . S
N418 C415 1.351 . S
N418 N419 1.365 . S
N419 C416 1.341 . S
N419 N418 1.365 . S
N419 H439 0.862 . S
C420 C415 1.501 . S
C420 H421 0.961 . S
C420 H422 0.961 . S
C420 H423 0.960 . S
H421 C420 0.961 . S
H422 C420 0.961 . S
H423 C420 0.960 . S
C424 N425 1.342 . S
C424 C428 1.401 . S
C424 C429 1.499 . S
N425 Co408 1.989 . S
N425 C424 1.342 . S
N425 N426 1.388 . S
N426 Co409 1.993 . S
N426 N425 1.388 . S
N426 C427 1.346 . S
C427 N426 1.346 . S
C427 C428 1.396 . S
C427 C437 1.510 . S
C428 C424 1.401 . S
C428 C427 1.396 . S
C429 C424 1.499 . S
C429 H430 0.959 . S
C429 H431 0.960 . S
C429 H432 0.961 . S
H430 C429 0.959 . S
H431 C429 0.960 . S
H432 C429 0.961 . S
O433 Co408 1.967 . S
O433 C441 1.258 . S
O434 Co409 1.941 . S
O434 C441 1.266 . S
H435 C437 0.959 . S
H436 C437 0.961 . S
C437 C427 1.510 . S
C437 H435 0.959 . S
C437 H436 0.961 . S
C437 H438 0.960 . S
H438 C437 0.960 . S
H439 N419 0.862 . S
O440 Co408 1.920 . S
O440 C413 1.289 . S
C441 O433 1.258 . S
C441 O434 1.266 . S
Co442 O445 1.970 . S
Co442 N459 1.989 . S
Co442 O467 1.967 . S
Co442 O474 1.920 . S
Co443 O446 1.966 . S
Co443 N452 2.022 . S
Co443 N460 1.993 . S
Co443 O468 1.941 . S
C444 O445 1.258 . S
C444 O446 1.263 . S
O445 Co442 1.970 . S
O445 C444 1.258 . S
O446 Co443 1.966 . S
O446 C444 1.263 . S
C447 O448 1.235 . S
C447 O474 1.289 . S
O448 C447 1.235 . S
C449 C451 1.400 . S
C449 N452 1.351 . S
C449 C454 1.501 . S
C450 C451 1.387 . S
C450 N453 1.341 . S
C451 C449 1.400 . S
C451 C450 1.387 . S
N452 Co443 2.022 . S
N452 C449 1.351 . S
N452 N453 1.365 . S
N453 C450 1.341 . S
N453 N452 1.365 . S
N453 H473 0.862 . S
C454 C449 1.501 . S
C454 H455 0.961 . S
C454 H456 0.961 . S
C454 H457 0.960 . S
H455 C454 0.961 . S
H456 C454 0.961 . S
H457 C454 0.960 . S
C458 N459 1.342 . S
C458 C462 1.401 . S
C458 C463 1.499 . S
N459 Co442 1.989 . S
N459 C458 1.342 . S
N459 N460 1.388 . S
N460 Co443 1.993 . S
N460 N459 1.388 . S
N460 C461 1.346 . S
C461 N460 1.346 . S
C461 C462 1.396 . S
C461 C471 1.510 . S
C462 C458 1.401 . S
C462 C461 1.396 . S
C463 C458 1.499 . S
C463 H464 0.959 . S
C463 H465 0.960 . S
C463 H466 0.961 . S
H464 C463 0.959 . S
H465 C463 0.960 . S
H466 C463 0.961 . S
O467 Co442 1.967 . S
O467 C475 1.258 . S
O468 Co443 1.941 . S
O468 C475 1.266 . S
H469 C471 0.959 . S
H470 C471 0.961 . S
C471 C461 1.510 . S
C471 H469 0.959 . S
C471 H470 0.961 . S
C471 H472 0.960 . S
H472 C471 0.960 . S
H473 N453 0.862 . S
O474 Co442 1.920 . S
O474 C447 1.289 . S
C475 O467 1.258 . S
C475 O468 1.266 . S
Co476 O479 1.970 . S
Co476 N493 1.989 . S
Co476 O501 1.967 . S
Co476 O508 1.920 . S
Co477 O480 1.966 . S
Co477 N486 2.022 . S
Co477 N494 1.993 . S
Co477 O502 1.941 . S
C478 O479 1.258 . S
C478 O480 1.263 . S
O479 Co476 1.970 . S
O479 C478 1.258 . S
O480 Co477 1.966 . S
O480 C478 1.263 . S
C481 O482 1.235 . S
C481 O508 1.289 . S
O482 C481 1.235 . S
C483 C485 1.400 . S
C483 N486 1.351 . S
C483 C488 1.501 . S
C484 C485 1.387 . S
C484 N487 1.341 . S
C485 C483 1.400 . S
C485 C484 1.387 . S
N486 Co477 2.022 . S
N486 C483 1.351 . S
N486 N487 1.365 . S
N487 C484 1.341 . S
N487 N486 1.365 . S
N487 H507 0.862 . S
C488 C483 1.501 . S
C488 H489 0.961 . S
C488 H490 0.961 . S
C488 H491 0.960 . S
H489 C488 0.961 . S
H490 C488 0.961 . S
H491 C488 0.960 . S
C492 N493 1.342 . S
C492 C496 1.401 . S
C492 C497 1.499 . S
N493 Co476 1.989 . S
N493 C492 1.342 . S
N493 N494 1.388 . S
N494 Co477 1.993 . S
N494 N493 1.388 . S
N494 C495 1.346 . S
C495 N494 1.346 . S
C495 C496 1.396 . S
C495 C505 1.510 . S
C496 C492 1.401 . S
C496 C495 1.396 . S
C497 C492 1.499 . S
C497 H498 0.959 . S
C497 H499 0.960 . S
C497 H500 0.961 . S
H498 C497 0.959 . S
H499 C497 0.960 . S
H500 C497 0.961 . S
O501 Co476 1.967 . S
O501 C509 1.258 . S
O502 Co477 1.941 . S
O502 C509 1.266 . S
H503 C505 0.959 . S
H504 C505 0.961 . S
C505 C495 1.510 . S
C505 H503 0.959 . S
C505 H504 0.961 . S
C505 H506 0.960 . S
H506 C505 0.960 . S
H507 N487 0.862 . S
O508 Co476 1.920 . S
O508 C481 1.289 . S
C509 O501 1.258 . S
C509 O502 1.266 . S
Co510 O513 1.970 . S
Co510 N527 1.989 . S
Co510 O535 1.967 . S
Co510 O542 1.920 . S
Co511 O514 1.966 . S
Co511 N520 2.022 . S
Co511 N528 1.993 . S
Co511 O536 1.941 . S
C512 O513 1.258 . S
C512 O514 1.263 . S
O513 Co510 1.970 . S
O513 C512 1.258 . S
O514 Co511 1.966 . S
O514 C512 1.263 . S
C515 O516 1.235 . S
C515 O542 1.289 . S
O516 C515 1.235 . S
C517 C519 1.400 . S
C517 N520 1.351 . S
C517 C522 1.501 . S
C518 C519 1.387 . S
C518 N521 1.341 . S
C519 C517 1.400 . S
C519 C518 1.387 . S
N520 Co511 2.022 . S
N520 C517 1.351 . S
N520 N521 1.365 . S
N521 C518 1.341 . S
N521 N520 1.365 . S
N521 H541 0.862 . S
C522 C517 1.501 . S
C522 H523 0.961 . S
C522 H524 0.961 . S
C522 H525 0.960 . S
H523 C522 0.961 . S
H524 C522 0.961 . S
H525 C522 0.960 . S
C526 N527 1.342 . S
C526 C530 1.401 . S
C526 C531 1.499 . S
N527 Co510 1.989 . S
N527 C526 1.342 . S
N527 N528 1.388 . S
N528 Co511 1.993 . S
N528 N527 1.388 . S
N528 C529 1.346 . S
C529 N528 1.346 . S
C529 C530 1.396 . S
C529 C539 1.510 . S
C530 C526 1.401 . S
C530 C529 1.396 . S
C531 C526 1.499 . S
C531 H532 0.959 . S
C531 H533 0.960 . S
C531 H534 0.961 . S
H532 C531 0.959 . S
H533 C531 0.960 . S
H534 C531 0.961 . S
O535 Co510 1.967 . S
O535 C543 1.258 . S
O536 Co511 1.941 . S
O536 C543 1.266 . S
H537 C539 0.959 . S
H538 C539 0.961 . S
C539 C529 1.510 . S
C539 H537 0.959 . S
C539 H538 0.961 . S
C539 H540 0.960 . S
H540 C539 0.960 . S
H541 N521 0.862 . S
O542 Co510 1.920 . S
O542 C515 1.289 . S
C543 O535 1.258 . S
C543 O536 1.266 . S
C544 C545 1.369 . S
C544 C546 1.419 . S
C544 H548 0.930 . S
C545 C544 1.369 . S
C545 C554 1.429 . S
C546 C544 1.419 . S
C546 C547 1.363 . S
C546 H549 0.929 . S
C547 C546 1.363 . S
C547 C553 1.428 . S
H548 C544 0.930 . S
H549 C546 0.929 . S
S550 N551 1.613 . S
S550 N552 1.610 . S
N551 S550 1.613 . S
N551 C554 1.350 . S
N552 S550 1.610 . S
N552 C553 1.351 . S
C553 C547 1.428 . S
C553 N552 1.351 . S
C553 C554 1.434 . S
C554 C545 1.429 . S
C554 N551 1.350 . S
C554 C553 1.434 . S
C555 C556 1.369 . S
C555 C557 1.419 . S
C555 H559 0.930 . S
C556 C555 1.369 . S
C556 C565 1.429 . S
C557 C555 1.419 . S
C557 C558 1.363 . S
C557 H560 0.929 . S
C558 C557 1.363 . S
C558 C564 1.428 . S
H559 C555 0.930 . S
H560 C557 0.929 . S
S561 N562 1.613 . S
S561 N563 1.610 . S
N562 S561 1.613 . S
N562 C565 1.350 . S
N563 S561 1.610 . S
N563 C564 1.351 . S
C564 C558 1.428 . S
C564 N563 1.351 . S
C564 C565 1.434 . S
C565 C556 1.429 . S
C565 N562 1.350 . S
C565 C564 1.434 . S
C566 C567 1.369 . S
C566 C568 1.419 . S
C566 H570 0.930 . S
C567 C566 1.369 . S
C567 C576 1.429 . S
C568 C566 1.419 . S
C568 C569 1.363 . S
C568 H571 0.929 . S
C569 C568 1.363 . S
C569 C575 1.428 . S
H570 C566 0.930 . S
H571 C568 0.929 . S
S572 N573 1.613 . S
S572 N574 1.610 . S
N573 S572 1.613 . S
N573 C576 1.350 . S
N574 S572 1.610 . S
N574 C575 1.351 . S
C575 C569 1.428 . S
C575 N574 1.351 . S
C575 C576 1.434 . S
C576 C567 1.429 . S
C576 N573 1.350 . S
C576 C575 1.434 . S
C577 C578 1.369 . S
C577 C579 1.419 . S
C577 H581 0.930 . S
C578 C577 1.369 . S
C578 C587 1.429 . S
C579 C577 1.419 . S
C579 C580 1.363 . S
C579 H582 0.929 . S
C580 C579 1.363 . S
C580 C586 1.428 . S
H581 C577 0.930 . S
H582 C579 0.929 . S
S583 N584 1.613 . S
S583 N585 1.610 . S
N584 S583 1.613 . S
N584 C587 1.350 . S
N585 S583 1.610 . S
N585 C586 1.351 . S
C586 C580 1.428 . S
C586 N585 1.351 . S
C586 C587 1.434 . S
C587 C578 1.429 . S
C587 N584 1.350 . S
C587 C586 1.434 . S
C588 C589 1.369 . S
C588 C590 1.419 . S
C588 H592 0.930 . S
C589 C588 1.369 . S
C589 C598 1.429 . S
C590 C588 1.419 . S
C590 C591 1.363 . S
C590 H593 0.929 . S
C591 C590 1.363 . S
C591 C597 1.428 . S
H592 C588 0.930 . S
H593 C590 0.929 . S
S594 N595 1.613 . S
S594 N596 1.610 . S
N595 S594 1.613 . S
N595 C598 1.350 . S
N596 S594 1.610 . S
N596 C597 1.351 . S
C597 C591 1.428 . S
C597 N596 1.351 . S
C597 C598 1.434 . S
C598 C589 1.429 . S
C598 N595 1.350 . S
C598 C597 1.434 . S
C599 C600 1.369 . S
C599 C601 1.419 . S
C599 H603 0.930 . S
C600 C599 1.369 . S
C600 C609 1.429 . S
C601 C599 1.419 . S
C601 C602 1.363 . S
C601 H604 0.929 . S
C602 C601 1.363 . S
C602 C608 1.428 . S
H603 C599 0.930 . S
H604 C601 0.929 . S
S605 N606 1.613 . S
S605 N607 1.610 . S
N606 S605 1.613 . S
N606 C609 1.350 . S
N607 S605 1.610 . S
N607 C608 1.351 . S
C608 C602 1.428 . S
C608 N607 1.351 . S
C608 C609 1.434 . S
C609 C600 1.429 . S
C609 N606 1.350 . S
C609 C608 1.434 . S
C610 C611 1.369 . S
C610 C612 1.419 . S
C610 H614 0.930 . S
C611 C610 1.369 . S
C611 C620 1.429 . S
C612 C610 1.419 . S
C612 C613 1.363 . S
C612 H615 0.929 . S
C613 C612 1.363 . S
C613 C619 1.428 . S
H614 C610 0.930 . S
H615 C612 0.929 . S
S616 N617 1.613 . S
S616 N618 1.610 . S
N617 S616 1.613 . S
N617 C620 1.350 . S
N618 S616 1.610 . S
N618 C619 1.351 . S
C619 C613 1.428 . S
C619 N618 1.351 . S
C619 C620 1.434 . S
C620 C611 1.429 . S
C620 N617 1.350 . S
C620 C619 1.434 . S
C621 C622 1.369 . S
C621 C623 1.419 . S
C621 H625 0.930 . S
C622 C621 1.369 . S
C622 C631 1.429 . S
C623 C621 1.419 . S
C623 C624 1.363 . S
C623 H626 0.929 . S
C624 C623 1.363 . S
C624 C630 1.428 . S
H625 C621 0.930 . S
H626 C623 0.929 . S
S627 N628 1.613 . S
S627 N629 1.610 . S
N628 S627 1.613 . S
N628 C631 1.350 . S
N629 S627 1.610 . S
N629 C630 1.351 . S
C630 C624 1.428 . S
C630 N629 1.351 . S
C630 C631 1.434 . S
C631 C622 1.429 . S
C631 N628 1.350 . S
C631 C630 1.434 . S
C632 C633 1.369 . S
C632 C634 1.419 . S
C632 H636 0.930 . S
C633 C632 1.369 . S
C633 C642 1.429 . S
C634 C632 1.419 . S
C634 C635 1.363 . S
C634 H637 0.929 . S
C635 C634 1.363 . S
C635 C641 1.428 . S
H636 C632 0.930 . S
H637 C634 0.929 . S
S638 N639 1.613 . S
S638 N640 1.610 . S
N639 S638 1.613 . S
N639 C642 1.350 . S
N640 S638 1.610 . S
N640 C641 1.351 . S
C641 C635 1.428 . S
C641 N640 1.351 . S
C641 C642 1.434 . S
C642 C633 1.429 . S
C642 N639 1.350 . S
C642 C641 1.434 . S
C643 C644 1.369 . S
C643 C645 1.419 . S
C643 H647 0.930 . S
C644 C643 1.369 . S
C644 C653 1.429 . S
C645 C643 1.419 . S
C645 C646 1.363 . S
C645 H648 0.929 . S
C646 C645 1.363 . S
C646 C652 1.428 . S
H647 C643 0.930 . S
H648 C645 0.929 . S
S649 N650 1.613 . S
S649 N651 1.610 . S
N650 S649 1.613 . S
N650 C653 1.350 . S
N651 S649 1.610 . S
N651 C652 1.351 . S
C652 C646 1.428 . S
C652 N651 1.351 . S
C652 C653 1.434 . S
C653 C644 1.429 . S
C653 N650 1.350 . S
C653 C652 1.434 . S
C654 C655 1.369 . S
C654 C656 1.419 . S
C654 H658 0.930 . S
C655 C654 1.369 . S
C655 C664 1.429 . S
C656 C654 1.419 . S
C656 C657 1.363 . S
C656 H659 0.929 . S
C657 C656 1.363 . S
C657 C663 1.428 . S
H658 C654 0.930 . S
H659 C656 0.929 . S
S660 N661 1.613 . S
S660 N662 1.610 . S
N661 S660 1.613 . S
N661 C664 1.350 . S
N662 S660 1.610 . S
N662 C663 1.351 . S
C663 C657 1.428 . S
C663 N662 1.351 . S
C663 C664 1.434 . S
C664 C655 1.429 . S
C664 N661 1.350 . S
C664 C663 1.434 . S
C665 C666 1.369 . S
C665 C667 1.419 . S
C665 H669 0.930 . S
C666 C665 1.369 . S
C666 C675 1.429 . S
C667 C665 1.419 . S
C667 C668 1.363 . S
C667 H670 0.929 . S
C668 C667 1.363 . S
C668 C674 1.428 . S
H669 C665 0.930 . S
H670 C667 0.929 . S
S671 N672 1.613 . S
S671 N673 1.610 . S
N672 S671 1.613 . S
N672 C675 1.350 . S
N673 S671 1.610 . S
N673 C674 1.351 . S
C674 C668 1.428 . S
C674 N673 1.351 . S
C674 C675 1.434 . S
C675 C666 1.429 . S
C675 N672 1.350 . S
C675 C674 1.434 . S
C676 C677 1.369 . S
C676 C678 1.419 . S
C676 H680 0.930 . S
C677 C676 1.369 . S
C677 C686 1.429 . S
C678 C676 1.419 . S
C678 C679 1.363 . S
C678 H681 0.929 . S
C679 C678 1.363 . S
C679 C685 1.428 . S
H680 C676 0.930 . S
H681 C678 0.929 . S
S682 N683 1.613 . S
S682 N684 1.610 . S
N683 S682 1.613 . S
N683 C686 1.350 . S
N684 S682 1.610 . S
N684 C685 1.351 . S
C685 C679 1.428 . S
C685 N684 1.351 . S
C685 C686 1.434 . S
C686 C677 1.429 . S
C686 N683 1.350 . S
C686 C685 1.434 . S
C687 C688 1.369 . S
C687 C689 1.419 . S
C687 H691 0.930 . S
C688 C687 1.369 . S
C688 C697 1.429 . S
C689 C687 1.419 . S
C689 C690 1.363 . S
C689 H692 0.929 . S
C690 C689 1.363 . S
C690 C696 1.428 . S
H691 C687 0.930 . S
H692 C689 0.929 . S
S693 N694 1.613 . S
S693 N695 1.610 . S
N694 S693 1.613 . S
N694 C697 1.350 . S
N695 S693 1.610 . S
N695 C696 1.351 . S
C696 C690 1.428 . S
C696 N695 1.351 . S
C696 C697 1.434 . S
C697 C688 1.429 . S
C697 N694 1.350 . S
C697 C696 1.434 . S
C698 C699 1.369 . S
C698 C700 1.419 . S
C698 H702 0.930 . S
C699 C698 1.369 . S
C699 C708 1.429 . S
C700 C698 1.419 . S
C700 C701 1.363 . S
C700 H703 0.929 . S
C701 C700 1.363 . S
C701 C707 1.428 . S
H702 C698 0.930 . S
H703 C700 0.929 . S
S704 N705 1.613 . S
S704 N706 1.610 . S
N705 S704 1.613 . S
N705 C708 1.350 . S
N706 S704 1.610 . S
N706 C707 1.351 . S
C707 C701 1.428 . S
C707 N706 1.351 . S
C707 C708 1.434 . S
C708 C699 1.429 . S
C708 N705 1.350 . S
C708 C707 1.434 . S
C709 C710 1.369 . S
C709 C711 1.419 . S
C709 H713 0.930 . S
C710 C709 1.369 . S
C710 C719 1.429 . S
C711 C709 1.419 . S
C711 C712 1.363 . S
C711 H714 0.929 . S
C712 C711 1.363 . S
C712 C718 1.428 . S
H713 C709 0.930 . S
H714 C711 0.929 . S
S715 N716 1.613 . S
S715 N717 1.610 . S
N716 S715 1.613 . S
N716 C719 1.350 . S
N717 S715 1.610 . S
N717 C718 1.351 . S
C718 C712 1.428 . S
C718 N717 1.351 . S
C718 C719 1.434 . S
C719 C710 1.429 . S
C719 N716 1.350 . S
C719 C718 1.434 . S
C720 C721 1.369 . S
C720 C722 1.419 . S
C720 H724 0.930 . S
C721 C720 1.369 . S
C721 C730 1.429 . S
C722 C720 1.419 . S
C722 C723 1.363 . S
C722 H725 0.929 . S
C723 C722 1.363 . S
C723 C729 1.428 . S
H724 C720 0.930 . S
H725 C722 0.929 . S
S726 N727 1.613 . S
S726 N728 1.610 . S
N727 S726 1.613 . S
N727 C730 1.350 . S
N728 S726 1.610 . S
N728 C729 1.351 . S
C729 C723 1.428 . S
C729 N728 1.351 . S
C729 C730 1.434 . S
C730 C721 1.429 . S
C730 N727 1.350 . S
C730 C729 1.434 . S
C731 C732 1.369 . S
C731 C733 1.419 . S
C731 H735 0.930 . S
C732 C731 1.369 . S
C732 C741 1.429 . S
C733 C731 1.419 . S
C733 C734 1.363 . S
C733 H736 0.929 . S
C734 C733 1.363 . S
C734 C740 1.428 . S
H735 C731 0.930 . S
H736 C733 0.929 . S
S737 N738 1.613 . S
S737 N739 1.610 . S
N738 S737 1.613 . S
N738 C741 1.350 . S
N739 S737 1.610 . S
N739 C740 1.351 . S
C740 C734 1.428 . S
C740 N739 1.351 . S
C740 C741 1.434 . S
C741 C732 1.429 . S
C741 N738 1.350 . S
C741 C740 1.434 . S
C742 C743 1.369 . S
C742 C744 1.419 . S
C742 H746 0.930 . S
C743 C742 1.369 . S
C743 C752 1.429 . S
C744 C742 1.419 . S
C744 C745 1.363 . S
C744 H747 0.929 . S
C745 C744 1.363 . S
C745 C751 1.428 . S
H746 C742 0.930 . S
H747 C744 0.929 . S
S748 N749 1.613 . S
S748 N750 1.610 . S
N749 S748 1.613 . S
N749 C752 1.350 . S
N750 S748 1.610 . S
N750 C751 1.351 . S
C751 C745 1.428 . S
C751 N750 1.351 . S
C751 C752 1.434 . S
C752 C743 1.429 . S
C752 N749 1.350 . S
C752 C751 1.434 . S
C753 C754 1.369 . S
C753 C755 1.419 . S
C753 H757 0.930 . S
C754 C753 1.369 . S
C754 C763 1.429 . S
C755 C753 1.419 . S
C755 C756 1.363 . S
C755 H758 0.929 . S
C756 C755 1.363 . S
C756 C762 1.428 . S
H757 C753 0.930 . S
H758 C755 0.929 . S
S759 N760 1.613 . S
S759 N761 1.610 . S
N760 S759 1.613 . S
N760 C763 1.350 . S
N761 S759 1.610 . S
N761 C762 1.351 . S
C762 C756 1.428 . S
C762 N761 1.351 . S
C762 C763 1.434 . S
C763 C754 1.429 . S
C763 N760 1.350 . S
C763 C762 1.434 . S
C764 C765 1.369 . S
C764 C766 1.419 1_556 S
C764 H768 0.930 . S
C765 C764 1.369 . S
C765 C774 1.429 . S
C766 C764 1.419 1_554 S
C766 C767 1.363 . S
C766 H769 0.929 . S
C767 C766 1.363 . S
C767 C773 1.428 . S
H768 C764 0.930 . S
H769 C766 0.929 . S
S770 N771 1.613 1_554 S
S770 N772 1.610 . S
N771 S770 1.613 1_556 S
N771 C774 1.350 . S
N772 S770 1.610 . S
N772 C773 1.351 . S
C773 C767 1.428 . S
C773 N772 1.351 . S
C773 C774 1.434 1_554 S
C774 C765 1.429 . S
C774 N771 1.350 . S
C774 C773 1.434 1_556 S
C775 C776 1.369 . S
C775 C777 1.407 1_556 S
C775 H779 0.930 . S
C776 C775 1.369 . S
C776 C785 1.429 1_556 S
C777 C775 1.407 1_554 S
C777 C778 1.376 . S
C777 H780 0.929 1_554 S
C778 C777 1.376 . S
C778 C784 1.428 . S
H779 C775 0.930 . S
H780 C777 0.929 1_556 S
S781 N782 1.613 . S
S781 N783 1.610 . S
N782 S781 1.613 . S
N782 C785 1.350 . S
N783 S781 1.610 . S
N783 C784 1.351 . S
C784 C778 1.428 . S
C784 N783 1.351 . S
C784 C785 1.434 . S
C785 C776 1.429 1_554 S
C785 N782 1.350 . S
C785 C784 1.434 . S
C786 C787 1.369 . S
C786 C788 1.419 1_556 S
C786 H790 0.930 . S
C787 C786 1.369 . S
C787 C796 1.429 . S
C788 C786 1.419 1_554 S
C788 C789 1.363 . S
C788 H791 0.929 . S
C789 C788 1.363 . S
C789 C795 1.428 . S
H790 C786 0.930 . S
H791 C788 0.929 . S
S792 N793 1.613 . S
S792 N794 1.610 . S
N793 S792 1.613 . S
N793 C796 1.350 . S
N794 S792 1.610 . S
N794 C795 1.351 1_556 S
C795 C789 1.428 . S
C795 N794 1.351 1_554 S
C795 C796 1.434 1_554 S
C796 C787 1.429 . S
C796 N793 1.350 . S
C796 C795 1.434 1_556 S
C797 C798 1.362 1_554 S
C797 C799 1.425 . S
C797 H801 0.931 . S
C798 C797 1.362 1_556 S
C798 C807 1.429 . S
C799 C797 1.425 . S
C799 C800 1.363 . S
C799 H802 0.929 . S
C800 C799 1.363 . S
C800 C806 1.428 1_554 S
H801 C797 0.931 . S
H802 C799 0.929 . S
S803 N804 1.613 . S
S803 N805 1.610 . S
N804 S803 1.613 . S
N804 C807 1.350 . S
N805 S803 1.610 . S
N805 C806 1.351 . S
C806 C800 1.428 1_556 S
C806 N805 1.351 . S
C806 C807 1.434 . S
C807 C798 1.429 . S
C807 N804 1.350 . S
C807 C806 1.434 . S
C808 C809 1.369 . S
C808 C810 1.419 . S
C808 H812 0.930 . S
C809 C808 1.369 . S
C809 C818 1.429 . S
C810 C808 1.419 . S
C810 C811 1.363 . S
C810 H813 0.929 . S
C811 C810 1.363 . S
C811 C817 1.428 . S
H812 C808 0.930 . S
H813 C810 0.929 . S
S814 N815 1.613 . S
S814 N816 1.610 . S
N815 S814 1.613 . S
N815 C818 1.350 . S
N816 S814 1.610 . S
N816 C817 1.351 . S
C817 C811 1.428 . S
C817 N816 1.351 . S
C817 C818 1.434 . S
C818 C809 1.429 . S
C818 N815 1.350 . S
C818 C817 1.434 . S
C819 C820 1.369 . S
C819 C821 1.419 . S
C819 H823 0.930 . S
C820 C819 1.369 . S
C820 C829 1.429 . S
C821 C819 1.419 . S
C821 C822 1.363 . S
C821 H824 0.929 . S
C822 C821 1.363 . S
C822 C828 1.428 . S
H823 C819 0.930 . S
H824 C821 0.929 . S
S825 N826 1.613 . S
S825 N827 1.610 . S
N826 S825 1.613 . S
N826 C829 1.350 . S
N827 S825 1.610 . S
N827 C828 1.351 . S
C828 C822 1.428 . S
C828 N827 1.351 . S
C828 C829 1.434 . S
C829 C820 1.429 . S
C829 N826 1.350 . S
C829 C828 1.434 . S
C830 C831 1.369 . S
C830 C832 1.419 . S
C830 H834 0.930 . S
C831 C830 1.369 . S
C831 C840 1.429 . S
C832 C830 1.419 . S
C832 C833 1.363 . S
C832 H835 0.929 . S
C833 C832 1.363 . S
C833 C839 1.428 . S
H834 C830 0.930 . S
H835 C832 0.929 . S
S836 N837 1.613 . S
S836 N838 1.610 . S
N837 S836 1.613 . S
N837 C840 1.350 . S
N838 S836 1.610 . S
N838 C839 1.351 . S
C839 C833 1.428 . S
C839 N838 1.351 . S
C839 C840 1.434 . S
C840 C831 1.429 . S
C840 N837 1.350 . S
C840 C839 1.434 . S
C841 C842 1.369 . S
C841 C843 1.419 . S
C841 H845 0.930 . S
C842 C841 1.369 . S
C842 C851 1.429 . S
C843 C841 1.419 . S
C843 C844 1.363 . S
C843 H846 0.929 . S
C844 C843 1.363 . S
C844 C850 1.428 . S
H845 C841 0.930 . S
H846 C843 0.929 . S
S847 N848 1.613 . S
S847 N849 1.610 . S
N848 S847 1.613 . S
N848 C851 1.350 . S
N849 S847 1.610 . S
N849 C850 1.351 . S
C850 C844 1.428 . S
C850 N849 1.351 . S
C850 C851 1.434 . S
C851 C842 1.429 . S
C851 N848 1.350 . S
C851 C850 1.434 . S
C852 C853 1.369 . S
C852 C854 1.419 . S
C852 H856 0.930 . S
C853 C852 1.369 . S
C853 C862 1.429 . S
C854 C852 1.419 . S
C854 C855 1.363 . S
C854 H857 0.929 . S
C855 C854 1.363 . S
C855 C861 1.428 . S
H856 C852 0.930 . S
H857 C854 0.929 . S
S858 N859 1.613 . S
S858 N860 1.610 . S
N859 S858 1.613 . S
N859 C862 1.350 . S
N860 S858 1.610 . S
N860 C861 1.351 . S
C861 C855 1.428 . S
C861 N860 1.351 . S
C861 C862 1.434 . S
C862 C853 1.429 . S
C862 N859 1.350 . S
C862 C861 1.434 . S
C863 C864 1.369 . S
C863 C865 1.419 . S
C863 H867 0.930 . S
C864 C863 1.369 . S
C864 C873 1.429 . S
C865 C863 1.419 . S
C865 C866 1.363 . S
C865 H868 0.929 . S
C866 C865 1.363 . S
C866 C872 1.428 . S
H867 C863 0.930 . S
H868 C865 0.929 . S
S869 N870 1.613 . S
S869 N871 1.610 . S
N870 S869 1.613 . S
N870 C873 1.350 . S
N871 S869 1.610 . S
N871 C872 1.351 . S
C872 C866 1.428 . S
C872 N871 1.351 . S
C872 C873 1.434 . S
C873 C864 1.429 . S
C873 N870 1.350 . S
C873 C872 1.434 . S
C874 C875 1.369 . S
C874 C876 1.419 . S
C874 H878 0.930 . S
C875 C874 1.369 . S
C875 C884 1.429 . S
C876 C874 1.419 . S
C876 C877 1.363 . S
C876 H879 0.929 . S
C877 C876 1.363 . S
C877 C883 1.428 . S
H878 C874 0.930 . S
H879 C876 0.929 . S
S880 N881 1.613 . S
S880 N882 1.610 . S
N881 S880 1.613 . S
N881 C884 1.350 . S
N882 S880 1.610 . S
N882 C883 1.351 . S
C883 C877 1.428 . S
C883 N882 1.351 . S
C883 C884 1.434 . S
C884 C875 1.429 . S
C884 N881 1.350 . S
C884 C883 1.434 . S
C885 C886 1.369 . S
C885 C887 1.419 . S
C885 H889 0.930 . S
C886 C885 1.369 . S
C886 C895 1.429 . S
C887 C885 1.419 . S
C887 C888 1.363 . S
C887 H890 0.929 . S
C888 C887 1.363 . S
C888 C894 1.428 . S
H889 C885 0.930 . S
H890 C887 0.929 . S
S891 N892 1.613 . S
S891 N893 1.610 . S
N892 S891 1.613 . S
N892 C895 1.350 . S
N893 S891 1.610 . S
N893 C894 1.351 . S
C894 C888 1.428 . S
C894 N893 1.351 . S
C894 C895 1.434 . S
C895 C886 1.429 . S
C895 N892 1.350 . S
C895 C894 1.434 . S
C896 C897 1.369 1_565 S
C896 C898 1.419 . S
C896 H900 0.930 . S
C897 C896 1.369 1_545 S
C897 C906 1.429 . S
C898 C896 1.419 . S
C898 C899 1.363 . S
C898 H901 0.929 . S
C899 C898 1.363 . S
C899 C905 1.428 1_565 S
H900 C896 0.930 . S
H901 C898 0.929 . S
S902 N903 1.613 . S
S902 N904 1.610 . S
N903 S902 1.613 . S
N903 C906 1.350 . S
N904 S902 1.610 . S
N904 C905 1.351 . S
C905 C899 1.428 1_545 S
C905 N904 1.351 . S
C905 C906 1.434 . S
C906 C897 1.429 . S
C906 N903 1.350 . S
C906 C905 1.434 . S
C907 C908 1.369 1_455 S
C907 C909 1.419 . S
C907 H911 0.930 . S
C908 C907 1.369 1_655 S
C908 C917 1.429 . S
C909 C907 1.419 . S
C909 C910 1.363 . S
C909 H912 0.929 . S
C910 C909 1.363 . S
C910 C916 1.428 1_455 S
H911 C907 0.930 . S
H912 C909 0.929 . S
S913 N914 1.613 . S
S913 N915 1.610 . S
N914 S913 1.613 . S
N914 C917 1.350 . S
N915 S913 1.610 . S
N915 C916 1.351 . S
C916 C910 1.428 1_655 S
C916 N915 1.351 . S
C916 C917 1.434 . S
C917 C908 1.429 . S
C917 N914 1.350 . S
C917 C916 1.434 . S
C918 C919 1.369 1_545 S
C918 C920 1.419 . S
C918 H922 0.930 . S
C919 C918 1.369 1_565 S
C919 C928 1.429 . S
C920 C918 1.419 . S
C920 C921 1.363 . S
C920 H923 0.929 . S
C921 C920 1.363 . S
C921 C927 1.428 1_545 S
H922 C918 0.930 . S
H923 C920 0.929 . S
S924 N925 1.613 . S
S924 N926 1.610 . S
N925 S924 1.613 . S
N925 C928 1.350 . S
N926 S924 1.610 . S
N926 C927 1.351 . S
C927 C921 1.428 1_565 S
C927 N926 1.351 . S
C927 C928 1.434 . S
C928 C919 1.429 . S
C928 N925 1.350 . S
C928 C927 1.434 . S
C929 C930 1.369 . S
C929 C931 1.419 . S
C929 H933 0.930 . S
C930 C929 1.369 . S
C930 C939 1.429 1_655 S
C931 C929 1.419 . S
C931 C932 1.363 1_655 S
C931 H934 0.929 . S
C932 C931 1.363 1_455 S
C932 C938 1.428 . S
H933 C929 0.930 . S
H934 C931 0.929 . S
S935 N936 1.613 . S
S935 N937 1.610 . S
N936 S935 1.613 . S
N936 C939 1.350 . S
N937 S935 1.610 . S
N937 C938 1.351 . S
C938 C932 1.428 . S
C938 N937 1.351 . S
C938 C939 1.434 . S
C939 C930 1.429 1_455 S
C939 N936 1.350 . S
C939 C938 1.434 . S
C940 C941 1.369 . S
C940 C942 1.419 1_556 S
C940 H944 0.930 . S
C941 C940 1.369 . S
C941 C950 1.429 . S
C942 C940 1.419 1_554 S
C942 C943 1.363 . S
C942 H945 0.929 . S
C943 C942 1.363 . S
C943 C949 1.428 . S
H944 C940 0.930 . S
H945 C942 0.929 . S
S946 N947 1.613 1_554 S
S946 N948 1.610 . S
N947 S946 1.613 1_556 S
N947 C950 1.350 . S
N948 S946 1.610 . S
N948 C949 1.351 . S
C949 C943 1.428 . S
C949 N948 1.351 . S
C949 C950 1.434 1_554 S
C950 C941 1.429 . S
C950 N947 1.350 . S
C950 C949 1.434 1_556 S
C951 C952 1.369 . S
C951 C953 1.419 1_556 S
C951 H955 0.930 . S
C952 C951 1.369 . S
C952 C961 1.429 . S
C953 C951 1.419 1_554 S
C953 C954 1.363 . S
C953 H956 0.929 . S
C954 C953 1.363 . S
C954 C960 1.428 . S
H955 C951 0.930 . S
H956 C953 0.929 . S
S957 N958 1.613 1_554 S
S957 N959 1.610 . S
N958 S957 1.613 1_556 S
N958 C961 1.350 . S
N959 S957 1.610 . S
N959 C960 1.351 . S
C960 C954 1.428 . S
C960 N959 1.351 . S
C960 C961 1.434 1_554 S
C961 C952 1.429 . S
C961 N958 1.350 . S
C961 C960 1.434 1_556 S
C962 C963 1.369 . S
C962 C964 1.419 1_554 S
C962 H966 0.930 . S
C963 C962 1.369 . S
C963 C972 1.429 . S
C964 C962 1.419 1_556 S
C964 C965 1.363 . S
C964 H967 0.929 . S
C965 C964 1.363 . S
C965 C971 1.428 . S
H966 C962 0.930 . S
H967 C964 0.929 . S
S968 N969 1.613 . S
S968 N970 1.610 1_554 S
N969 S968 1.613 . S
N969 C972 1.350 . S
N970 S968 1.610 1_556 S
N970 C971 1.351 . S
C971 C965 1.428 . S
C971 N970 1.351 . S
C971 C972 1.434 1_556 S
C972 C963 1.429 . S
C972 N969 1.350 . S
C972 C971 1.434 1_554 S
C973 C974 1.369 . S
C973 C975 1.419 1_556 S
C973 H977 0.930 . S
C974 C973 1.369 . S
C974 C983 1.429 . S
C975 C973 1.419 1_554 S
C975 C976 1.363 . S
C975 H978 0.929 . S
C976 C975 1.363 . S
C976 C982 1.428 . S
H977 C973 0.930 . S
H978 C975 0.929 . S
S979 N980 1.613 . S
S979 N981 1.610 1_556 S
N980 S979 1.613 . S
N980 C983 1.350 . S
N981 S979 1.610 1_554 S
N981 C982 1.351 . S
C982 C976 1.428 . S
C982 N981 1.351 . S
C982 C983 1.434 1_554 S
C983 C974 1.429 . S
C983 N980 1.350 . S
C983 C982 1.434 1_556 S
C545 C9 2.188 . S
C547 C104 2.249 . S
C556 C2 2.250 . S
C558 C43 2.191 . S
C567 C77 2.190 . S
C569 C36 2.251 . S
C578 C70 2.248 . S
C580 C111 2.186 . S
C589 C172 2.248 . S
C591 C145 2.186 . S
C600 C206 2.251 . S
C602 C179 2.189 . S
C611 C240 2.248 . S
C613 C213 2.186 . S
C622 C247 2.191 . S
C624 C138 2.250 . S
C633 C281 2.189 . S
C635 C376 2.249 . S
C644 C315 2.185 . S
C646 C274 2.249 . S
C655 C349 2.188 . S
C657 C308 2.249 . S
C666 C342 2.251 . S
C668 C383 2.190 . S
C677 C444 2.248 . S
C679 C417 2.186 . S
C688 C451 2.185 . S
C690 C478 2.249 . S
C699 C485 2.191 . S
C701 C512 2.250 . S
C710 C519 2.187 . S
C712 C410 2.250 . S
C721 C5 1.232 . S
C723 C175 1.233 . S
C732 C39 1.237 . S
C734 C209 1.235 . S
C743 C243 1.233 . S
C745 C73 1.233 . S
C754 C107 1.236 . S
C756 C141 1.238 . S
C765 C277 1.230 . S
C767 C447 1.233 . S
C776 C311 1.236 . S
C778 C481 1.238 . S
C787 C345 1.244 . S
C789 C515 1.242 . S
C798 C379 1.242 . S
C800 C413 1.240 . S
C809 C33 0.602 . S
C811 C543 0.574 . S
C820 C441 0.574 . S
C822 C67 0.597 . S
C831 C101 0.587 . S
C833 C475 0.582 . S
C842 C135 0.588 . S
C844 C509 0.581 . S
C853 C339 0.582 . S
C855 C169 0.592 . S
C864 C373 0.578 . S
C866 C203 0.595 . S
C875 C407 0.574 . S
C877 C237 0.597 . S
C886 C305 0.592 . S
C888 C271 0.578 . S
C897 C20 1.400 . S
C899 C156 1.404 . S
C908 C54 1.405 . S
C910 C190 1.404 . S
C919 C88 1.397 . S
C921 C224 1.401 . S
C930 C258 1.402 . S
C932 C122 1.398 . S
C941 C292 1.398 . S
C943 C428 1.403 . S
C952 C326 1.401 . S
C954 C462 1.405 . S
C963 C496 1.404 . S
C965 C360 1.399 . S
C974 C394 1.399 . S
C976 C530 1.398 . S
