# Generated by pormake.
# Topology vbm, (6)-cn, num edge types: 1
# Building blocks:
#     Node 0, Type 0, BuildingBlock: BETGAK_clean_sbu_0, # of connection points: 6
#     Node 1, Type 0, BuildingBlock: BETGAK_clean_sbu_0, # of connection points: 6
#     Node 2, Type 0, BuildingBlock: BETGAK_clean_sbu_0, # of connection points: 6
#     Node 3, Type 0, BuildingBlock: BETGAK_clean_sbu_0, # of connection points: 6
#     Node 4, Type 0, BuildingBlock: BETGAK_clean_sbu_0, # of connection points: 6
#     Node 5, Type 0, BuildingBlock: BETGAK_clean_sbu_0, # of connection points: 6
#     Node 6, Type 0, BuildingBlock: BETGAK_clean_sbu_0, # of connection points: 6
#     Node 7, Type 0, BuildingBlock: BETGAK_clean_sbu_0, # of connection points: 6
#     Node 8, Type 0, BuildingBlock: BETGAK_clean_sbu_0, # of connection points: 6
#     Node 9, Type 0, BuildingBlock: BETGAK_clean_sbu_0, # of connection points: 6
#     Node 10, Type 0, BuildingBlock: BETGAK_clean_sbu_0, # of connection points: 6
#     Node 11, Type 0, BuildingBlock: BETGAK_clean_sbu_0, # of connection points: 6
#     Node 12, Type 0, BuildingBlock: BETGAK_clean_sbu_0, # of connection points: 6
#     Node 13, Type 0, BuildingBlock: BETGAK_clean_sbu_0, # of connection points: 6
#     Node 14, Type 0, BuildingBlock: BETGAK_clean_sbu_0, # of connection points: 6
#     Node 15, Type 0, BuildingBlock: BETGAK_clean_sbu_0, # of connection points: 6
#     Edge 16, Type (0, 0), BuildingBlock: OJICUG_clean_linker_0, # of connection points: 2
#     Edge 17, Type (0, 0), BuildingBlock: OJICUG_clean_linker_0, # of connection points: 2
#     Edge 18, Type (0, 0), BuildingBlock: OJICUG_clean_linker_0, # of connection points: 2
#     Edge 19, Type (0, 0), BuildingBlock: OJICUG_clean_linker_0, # of connection points: 2
#     Edge 20, Type (0, 0), BuildingBlock: OJICUG_clean_linker_0, # of connection points: 2
#     Edge 21, Type (0, 0), BuildingBlock: OJICUG_clean_linker_0, # of connection points: 2
#     Edge 22, Type (0, 0), BuildingBlock: OJICUG_clean_linker_0, # of connection points: 2
#     Edge 23, Type (0, 0), BuildingBlock: OJICUG_clean_linker_0, # of connection points: 2
#     Edge 24, Type (0, 0), BuildingBlock: OJICUG_clean_linker_0, # of connection points: 2
#     Edge 25, Type (0, 0), BuildingBlock: OJICUG_clean_linker_0, # of connection points: 2
#     Edge 26, Type (0, 0), BuildingBlock: OJICUG_clean_linker_0, # of connection points: 2
#     Edge 27, Type (0, 0), BuildingBlock: OJICUG_clean_linker_0, # of connection points: 2
#     Edge 28, Type (0, 0), BuildingBlock: OJICUG_clean_linker_0, # of connection points: 2
#     Edge 29, Type (0, 0), BuildingBlock: OJICUG_clean_linker_0, # of connection points: 2
#     Edge 30, Type (0, 0), BuildingBlock: OJICUG_clean_linker_0, # of connection points: 2
#     Edge 31, Type (0, 0), BuildingBlock: OJICUG_clean_linker_0, # of connection points: 2
#     Edge 32, Type (0, 0), BuildingBlock: OJICUG_clean_linker_0, # of connection points: 2
#     Edge 33, Type (0, 0), BuildingBlock: OJICUG_clean_linker_0, # of connection points: 2
#     Edge 34, Type (0, 0), BuildingBlock: OJICUG_clean_linker_0, # of connection points: 2
#     Edge 35, Type (0, 0), BuildingBlock: OJICUG_clean_linker_0, # of connection points: 2
#     Edge 36, Type (0, 0), BuildingBlock: OJICUG_clean_linker_0, # of connection points: 2
#     Edge 37, Type (0, 0), BuildingBlock: OJICUG_clean_linker_0, # of connection points: 2
#     Edge 38, Type (0, 0), BuildingBlock: OJICUG_clean_linker_0, # of connection points: 2
#     Edge 39, Type (0, 0), BuildingBlock: OJICUG_clean_linker_0, # of connection points: 2
#     Edge 40, Type (0, 0), BuildingBlock: OJICUG_clean_linker_0, # of connection points: 2
#     Edge 41, Type (0, 0), BuildingBlock: OJICUG_clean_linker_0, # of connection points: 2
#     Edge 42, Type (0, 0), BuildingBlock: OJICUG_clean_linker_0, # of connection points: 2
#     Edge 43, Type (0, 0), BuildingBlock: OJICUG_clean_linker_0, # of connection points: 2
#     Edge 44, Type (0, 0), BuildingBlock: OJICUG_clean_linker_0, # of connection points: 2
#     Edge 45, Type (0, 0), BuildingBlock: OJICUG_clean_linker_0, # of connection points: 2
#     Edge 46, Type (0, 0), BuildingBlock: OJICUG_clean_linker_0, # of connection points: 2
#     Edge 47, Type (0, 0), BuildingBlock: OJICUG_clean_linker_0, # of connection points: 2
#     Edge 48, Type (0, 0), BuildingBlock: OJICUG_clean_linker_0, # of connection points: 2
#     Edge 49, Type (0, 0), BuildingBlock: OJICUG_clean_linker_0, # of connection points: 2
#     Edge 50, Type (0, 0), BuildingBlock: OJICUG_clean_linker_0, # of connection points: 2
#     Edge 51, Type (0, 0), BuildingBlock: OJICUG_clean_linker_0, # of connection points: 2
#     Edge 52, Type (0, 0), BuildingBlock: OJICUG_clean_linker_0, # of connection points: 2
#     Edge 53, Type (0, 0), BuildingBlock: OJICUG_clean_linker_0, # of connection points: 2
#     Edge 54, Type (0, 0), BuildingBlock: OJICUG_clean_linker_0, # of connection points: 2
#     Edge 55, Type (0, 0), BuildingBlock: OJICUG_clean_linker_0, # of connection points: 2
#     Edge 56, Type (0, 0), BuildingBlock: OJICUG_clean_linker_0, # of connection points: 2
#     Edge 57, Type (0, 0), BuildingBlock: OJICUG_clean_linker_0, # of connection points: 2
#     Edge 58, Type (0, 0), BuildingBlock: OJICUG_clean_linker_0, # of connection points: 2
#     Edge 59, Type (0, 0), BuildingBlock: OJICUG_clean_linker_0, # of connection points: 2
#     Edge 60, Type (0, 0), BuildingBlock: OJICUG_clean_linker_0, # of connection points: 2
#     Edge 61, Type (0, 0), BuildingBlock: OJICUG_clean_linker_0, # of connection points: 2
#     Edge 62, Type (0, 0), BuildingBlock: OJICUG_clean_linker_0, # of connection points: 2
#     Edge 63, Type (0, 0), BuildingBlock: OJICUG_clean_linker_0, # of connection points: 2
# Relax obj value: 0.066
# Max RMSD: 0.150
# Mean RMSD: 0.150
data_MOF--net-vbm--node1-BETGAK_clean_sbu_0--edge1-OJICUG_clean_linker_0
_symmetry_space_group_name_H-M    P1
_symmetry_Int_Tables_number       1
_symmetry_cell_setting            triclinic
loop_
_symmetry_equiv_pos_as_xyz
'x, y, z'
_cell_length_a     39.55543
_cell_length_b     21.170239
_cell_length_c     38.296698
_cell_angle_alpha  89.95617
_cell_angle_beta   90.237732
_cell_angle_gamma 90.093569
loop_
_atom_site_label
_atom_site_type_symbol
_atom_site_fract_x
_atom_site_fract_y
_atom_site_fract_z
_atom_type_partial_charge
La0 La 0.13532 0.0996 0.19136 0.0
La1 La 0.0959 0.22718 0.19507 0.0
C2 C 0.15746 0.99461 0.21213 0.0
C3 C 0.15258 0.92634 0.20608 0.0
C4 C 0.16161 0.8969 0.17459 0.0
C5 C 0.15689 0.83173 0.17031 0.0
C6 C 0.14309 0.79495 0.19742 0.0
C7 C 0.13408 0.82488 0.22879 0.0
C8 C 0.13896 0.88961 0.23311 0.0
C9 C 0.12591 0.14523 0.12741 0.0
C10 C 0.05507 0.10697 0.17744 0.0
C11 C 0.07361 0.33812 0.18972 0.0
C12 C 0.08753 0.40244 0.1872 0.0
C13 C 0.1177 0.4189 0.20432 0.0
C14 C 0.12955 0.48108 0.20337 0.0
C15 C 0.11116 0.52829 0.1857 0.0
C16 C 0.08125 0.51114 0.168 0.0
C17 C 0.06964 0.44874 0.16869 0.0
C18 C 0.09814 0.15578 0.25217 0.0
C19 C 0.17654 0.22674 0.19932 0.0
O20 O 0.17236 1.02853 0.18789 0.0
O21 O 0.13166 1.02383 0.22598 0.0
O22 O 0.14195 0.09328 0.1344 0.0
O23 O 0.11636 0.16808 0.1561 0.0
O24 O 0.08163 0.0722 0.18692 0.0
O25 O 0.05651 0.16888 0.1738 0.0
O26 O 0.07843 0.30902 0.21954 0.0
O27 O 0.07846 0.30094 0.16284 0.0
O28 O 0.07198 0.18826 0.24237 0.0
O29 O 0.12159 0.16544 0.23063 0.0
O30 O 0.14828 0.25897 0.19424 0.0
O31 O 0.17711 0.16426 0.20237 0.0
H32 H 0.17236 0.92399 0.15336 0.0
H33 H 0.16441 0.81007 0.14595 0.0
H34 H 0.12278 0.79845 0.24998 0.0
H35 H 0.1319 0.91114 0.2577 0.0
H36 H 0.13171 0.38397 0.21907 0.0
H37 H 0.15291 0.49225 0.21686 0.0
H38 H 0.06614 0.54626 0.15459 0.0
H39 H 0.04619 0.43694 0.15547 0.0
La40 La 0.84288 0.99148 0.1855 0.0
La41 La 0.88134 0.87428 0.1972 0.0
C42 C 0.81929 0.10242 0.18636 0.0
C43 C 0.83047 0.16904 0.18756 0.0
C44 C 0.81794 0.21114 0.16237 0.0
C45 C 0.82644 0.27518 0.16355 0.0
C46 C 0.84757 0.29876 0.19014 0.0
C47 C 0.86029 0.25646 0.21536 0.0
C48 C 0.85191 0.19213 0.21404 0.0
C49 C 0.84408 0.91647 0.13011 0.0
C50 C 0.92362 0.98941 0.17741 0.0
C51 C 0.9056 0.76392 0.1991 0.0
C52 C 0.89489 0.69715 0.19704 0.0
C53 C 0.86743 0.67364 0.21631 0.0
C54 C 0.85927 0.60921 0.21516 0.0
C55 C 0.87826 0.56725 0.19458 0.0
C56 C 0.90541 0.59131 0.17502 0.0
C57 C 0.91364 0.65549 0.17632 0.0
C58 C 0.87994 0.9541 0.25089 0.0
C59 C 0.80146 0.87068 0.20198 0.0
O60 O 0.82585 0.07119 0.15777 0.0
O61 O 0.82386 0.06785 0.21431 0.0
O62 O 0.81825 0.94872 0.14059 0.0
O63 O 0.8686 0.92723 0.1507 0.0
O64 O 0.89622 1.02336 0.18429 0.0
O65 O 0.92249 0.92747 0.17609 0.0
O66 O 0.89677 0.79592 0.2268 0.0
O67 O 0.90282 0.7974 0.17051 0.0
O68 O 0.90607 0.92122 0.24196 0.0
O69 O 0.85581 0.93985 0.23086 0.0
O70 O 0.8295 0.83933 0.19535 0.0
O71 O 0.8012 0.93305 0.20377 0.0
H72 H 0.80113 0.19456 0.14191 0.0
H73 H 0.81584 0.30652 0.14402 0.0
H74 H 0.87689 0.27304 0.23597 0.0
H75 H 0.86197 0.16072 0.23386 0.0
H76 H 0.85248 0.70481 0.23247 0.0
H77 H 0.83796 0.5923 0.2302 0.0
H78 H 0.9208 0.56026 0.15923 0.0
H79 H 0.93504 0.67252 0.16142 0.0
La80 La 0.13529 0.9941 0.42498 0.0
La81 La 0.09677 0.87707 0.41164 0.0
C82 C 0.15871 0.10534 0.42575 0.0
C83 C 0.14745 0.17184 0.42392 0.0
C84 C 0.15888 0.21422 0.44952 0.0
C85 C 0.1503 0.27815 0.44785 0.0
C86 C 0.13018 0.30138 0.42035 0.0
C87 C 0.11854 0.25878 0.39473 0.0
C88 C 0.12701 0.19454 0.39653 0.0
C89 C 0.13382 0.91675 0.47943 0.0
C90 C 0.05442 0.99135 0.43217 0.0
C91 C 0.0726 0.76658 0.4083 0.0
C92 C 0.08316 0.69977 0.41083 0.0
C93 C 0.11103 0.6761 0.39234 0.0
C94 C 0.11908 0.61167 0.39391 0.0
C95 C 0.09952 0.5698 0.4141 0.0
C96 C 0.07192 0.594 0.43284 0.0
C97 C 0.06383 0.65819 0.43114 0.0
C98 C 0.09814 0.95953 0.35908 0.0
C99 C 0.17678 0.87381 0.40786 0.0
O100 O 0.15056 0.0738 0.45383 0.0
O101 O 0.15587 0.0709 0.39753 0.0
O102 O 0.15967 0.94971 0.46952 0.0
O103 O 0.10941 0.92815 0.45881 0.0
O104 O 0.08193 1.02553 0.42583 0.0
O105 O 0.05543 0.92936 0.4329 0.0
O106 O 0.08277 0.79887 0.38114 0.0
O107 O 0.07396 0.79988 0.43703 0.0
O108 O 0.07214 0.92548 0.3673 0.0
O109 O 0.12224 0.9446 0.37898 0.0
O110 O 0.14859 0.84227 0.41382 0.0
O111 O 0.17718 0.93627 0.40674 0.0
H112 H 0.17491 0.19794 0.4707 0.0
H113 H 0.16007 0.30968 0.46774 0.0
H114 H 0.10271 0.27503 0.37341 0.0
H115 H 0.11778 0.16291 0.37639 0.0
H116 H 0.12642 0.70715 0.37648 0.0
H117 H 0.14074 0.59471 0.37949 0.0
H118 H 0.05607 0.56306 0.44828 0.0
H119 H 0.04208 0.67528 0.4454 0.0
La120 La 0.84261 0.10814 0.42466 0.0
La121 La 0.88108 0.22562 0.41372 0.0
C122 C 0.81898 0.99708 0.42341 0.0
C123 C 0.83014 0.93053 0.42233 0.0
C124 C 0.81688 0.88809 0.44687 0.0
C125 C 0.82545 0.82414 0.44585 0.0
C126 C 0.84739 0.80099 0.42008 0.0
C127 C 0.86083 0.84363 0.39551 0.0
C128 C 0.85237 0.90789 0.39667 0.0
C129 C 0.84403 0.18237 0.48038 0.0
C130 C 0.92342 0.11024 0.4329 0.0
C131 C 0.90536 0.33613 0.41259 0.0
C132 C 0.89463 0.40284 0.41443 0.0
C133 C 0.86768 0.42638 0.39424 0.0
C134 C 0.85958 0.49079 0.39516 0.0
C135 C 0.87813 0.53272 0.41643 0.0
C136 C 0.90474 0.50863 0.43692 0.0
C137 C 0.91291 0.44447 0.43584 0.0
C138 C 0.87959 0.14664 0.35966 0.0
C139 C 0.80109 0.22881 0.40834 0.0
O140 O 0.82547 1.02826 0.4521 0.0
O141 O 0.82369 1.03173 0.39554 0.0
O142 O 0.81814 0.15029 0.46958 0.0
O143 O 0.86851 0.17192 0.45992 0.0
O144 O 0.8959 0.07642 0.42587 0.0
O145 O 0.92239 0.17216 0.43459 0.0
O146 O 0.89698 0.3042 0.38463 0.0
O147 O 0.90213 0.30252 0.44106 0.0
O148 O 0.90572 0.17963 0.3689 0.0
O149 O 0.85547 0.16042 0.37958 0.0
O150 O 0.82919 0.26029 0.41508 0.0
O151 O 0.80083 0.16646 0.40642 0.0
H152 H 0.79947 0.90435 0.46669 0.0
H153 H 0.81429 0.79254 0.46486 0.0
H154 H 0.87806 0.82738 0.37555 0.0
H155 H 0.86301 0.93961 0.3774 0.0
H156 H 0.85308 0.39524 0.37755 0.0
H157 H 0.83869 0.50773 0.37939 0.0
H158 H 0.91977 0.53966 0.45326 0.0
H159 H 0.93392 0.42743 0.45145 0.0
La160 La 0.88155 0.87444 0.9139 0.0
La161 La 0.84329 0.99162 0.92519 0.0
C162 C 0.90583 0.76409 0.91233 0.0
C163 C 0.89519 0.69729 0.91423 0.0
C164 C 0.86769 0.67383 0.89478 0.0
C165 C 0.85959 0.60937 0.89581 0.0
C166 C 0.8787 0.56734 0.91644 0.0
C167 C 0.9059 0.59134 0.93615 0.0
C168 C 0.91406 0.65555 0.93498 0.0
C169 C 0.88033 0.95404 0.86008 0.0
C170 C 0.80165 0.87105 0.90843 0.0
C171 C 0.81975 0.10259 0.9243 0.0
C172 C 0.83094 0.16919 0.92312 0.0
C173 C 0.81849 0.21125 0.94823 0.0
C174 C 0.827 0.27527 0.94708 0.0
C175 C 0.84807 0.29887 0.92061 0.0
C176 C 0.86072 0.25662 0.89548 0.0
C177 C 0.85232 0.19229 0.89676 0.0
C178 C 0.84436 0.91626 0.98059 0.0
C179 C 0.92404 0.9893 0.93384 0.0
O180 O 0.89709 0.79613 0.88452 0.0
O181 O 0.90287 0.79745 0.94089 0.0
O182 O 0.9064 0.92106 0.86933 0.0
O183 O 0.85612 0.94018 0.8799 0.0
O184 O 0.82968 0.83955 0.9152 0.0
O185 O 0.80148 0.93342 0.90667 0.0
O186 O 0.82652 0.07129 0.9529 0.0
O187 O 0.82411 0.06809 0.89635 0.0
O188 O 0.81856 0.94848 0.9698 0.0
O189 O 0.8689 0.92737 0.9603 0.0
O190 O 0.89669 1.02333 0.92663 0.0
O191 O 0.92278 0.92739 0.93537 0.0
H192 H 0.85266 0.70508 0.8786 0.0
H193 H 0.83825 0.5925 0.88064 0.0
H194 H 0.92137 0.56023 0.95197 0.0
H195 H 0.93549 0.67254 0.95 0.0
H196 H 0.80172 0.19465 0.9686 0.0
H197 H 0.81646 0.30658 0.96655 0.0
H198 H 0.87728 0.27322 0.87496 0.0
H199 H 0.86232 0.1609 0.87702 0.0
La200 La 0.09692 0.22365 0.91216 0.0
La201 La 0.13607 0.09695 0.91918 0.0
C202 C 0.07415 0.3347 0.91256 0.0
C203 C 0.0856 0.40062 0.91626 0.0
C204 C 0.07088 0.44655 0.89472 0.0
C205 C 0.08032 0.50985 0.89768 0.0
C206 C 0.10466 0.52881 0.92244 0.0
C207 C 0.11985 0.48242 0.94372 0.0
C208 C 0.1104 0.41876 0.94064 0.0
C209 C 0.09861 0.14791 0.85685 0.0
C210 C 0.17717 0.22365 0.90987 0.0
C211 C 0.15885 0.9903 0.90216 0.0
C212 C 0.15408 0.92398 0.91241 0.0
C213 C 0.17554 0.87773 0.89872 0.0
C214 C 0.16896 0.81367 0.90457 0.0
C215 C 0.14067 0.79473 0.92417 0.0
C216 C 0.11997 0.8416 0.93902 0.0
C217 C 0.12662 0.90568 0.93317 0.0
C218 C 0.12705 0.14628 0.98217 0.0
C219 C 0.05586 0.10541 0.93242 0.0
O220 O 0.08389 0.30538 0.88426 0.0
O221 O 0.0753 0.29834 0.94033 0.0
O222 O 0.07254 0.18082 0.86605 0.0
O223 O 0.12236 0.15913 0.87799 0.0
O224 O 0.14903 0.25568 0.91535 0.0
O225 O 0.17766 0.16119 0.90674 0.0
O226 O 0.17381 1.02759 0.92481 0.0
O227 O 0.13253 1.01697 0.88747 0.0
O228 O 0.14277 0.0938 0.97611 0.0
O229 O 0.11747 0.16817 0.95311 0.0
O230 O 0.08234 0.06992 0.9238 0.0
O231 O 0.05741 0.16751 0.93456 0.0
H232 H 0.05192 0.43342 0.87553 0.0
H233 H 0.06869 0.54391 0.88029 0.0
H234 H 0.13858 0.49542 0.96313 0.0
H235 H 0.12228 0.38396 0.9574 0.0
H236 H 0.19674 0.89107 0.88246 0.0
H237 H 0.1852 0.77901 0.89241 0.0
H238 H 0.09826 0.82875 0.95464 0.0
H239 H 0.10976 0.94086 0.94396 0.0
La240 La 0.8816 0.225 0.69676 0.0
La241 La 0.84294 0.10771 0.68563 0.0
C242 C 0.90598 0.33547 0.69782 0.0
C243 C 0.89531 0.40222 0.69594 0.0
C244 C 0.86775 0.42533 0.71511 0.0
C245 C 0.85961 0.48973 0.71413 0.0
C246 C 0.87875 0.5321 0.69383 0.0
C247 C 0.90602 0.50843 0.67437 0.0
C248 C 0.91421 0.44427 0.6755 0.0
C249 C 0.88027 0.14607 0.75084 0.0
C250 C 0.80163 0.22841 0.70202 0.0
C251 C 0.81936 0.9966 0.68673 0.0
C252 C 0.83065 0.93007 0.68778 0.0
C253 C 0.81855 0.88823 0.66222 0.0
C254 C 0.82715 0.82427 0.66324 0.0
C255 C 0.84794 0.80047 0.69004 0.0
C256 C 0.86023 0.84249 0.71562 0.0
C257 C 0.85176 0.90675 0.71447 0.0
C258 C 0.84424 0.18245 0.62999 0.0
C259 C 0.92373 0.10953 0.67761 0.0
O260 O 0.89773 0.30356 0.72579 0.0
O261 O 0.90248 0.30189 0.66937 0.0
O262 O 0.90638 0.17903 0.74171 0.0
O263 O 0.85605 0.15971 0.73079 0.0
O264 O 0.82972 0.25984 0.69536 0.0
O265 O 0.80132 0.16604 0.70385 0.0
O266 O 0.82558 1.02801 0.65808 0.0
O267 O 0.82416 1.03115 0.71463 0.0
O268 O 0.81832 0.15049 0.64067 0.0
O269 O 0.86875 0.17143 0.65052 0.0
O270 O 0.89619 0.07579 0.6845 0.0
O271 O 0.9228 0.17148 0.6761 0.0
H272 H 0.85271 0.39383 0.73106 0.0
H273 H 0.8382 0.5063 0.72908 0.0
H274 H 0.92154 0.53977 0.65881 0.0
H275 H 0.9357 0.42754 0.66069 0.0
H276 H 0.80199 0.90495 0.64159 0.0
H277 H 0.81686 0.79316 0.64342 0.0
H278 H 0.87658 0.82576 0.7364 0.0
H279 H 0.86149 0.93791 0.73458 0.0
La280 La 0.0966 0.87382 0.69545 0.0
La281 La 0.13531 0.9911 0.68382 0.0
C282 C 0.07229 0.76332 0.69686 0.0
C283 C 0.08296 0.69656 0.6948 0.0
C284 C 0.11052 0.67315 0.71412 0.0
C285 C 0.11864 0.60874 0.71299 0.0
C286 C 0.09948 0.56665 0.69241 0.0
C287 C 0.07221 0.59062 0.6728 0.0
C288 C 0.06404 0.65479 0.67407 0.0
C289 C 0.09827 0.95359 0.7491 0.0
C290 C 0.17662 0.87039 0.70075 0.0
C291 C 0.15893 0.1022 0.68415 0.0
C292 C 0.1477 0.16874 0.68546 0.0
C293 C 0.1598 0.21098 0.66017 0.0
C294 C 0.15118 0.27491 0.66137 0.0
C295 C 0.13036 0.29829 0.68806 0.0
C296 C 0.11807 0.25585 0.71337 0.0
C297 C 0.12658 0.1916 0.71205 0.0
C298 C 0.13364 0.91543 0.62864 0.0
C299 C 0.05441 0.98932 0.6762 0.0
O300 O 0.08109 0.79518 0.72472 0.0
O301 O 0.07513 0.79701 0.66837 0.0
O302 O 0.07216 0.92021 0.74024 0.0
O303 O 0.12234 0.9397 0.72913 0.0
O304 O 0.14846 0.83898 0.69419 0.0
O305 O 0.17702 0.9328 0.70231 0.0
O306 O 0.1517 0.07081 0.65572 0.0
O307 O 0.15508 0.06767 0.71221 0.0
O308 O 0.15962 0.94758 0.63916 0.0
O309 O 0.10926 0.92685 0.64904 0.0
O310 O 0.08204 1.023 0.68298 0.0
O311 O 0.05528 0.92737 0.67466 0.0
H312 H 0.1256 0.7044 0.73029 0.0
H313 H 0.14005 0.59194 0.72806 0.0
H314 H 0.05669 0.5595 0.65701 0.0
H315 H 0.04255 0.67172 0.65914 0.0
H316 H 0.17635 0.19458 0.63962 0.0
H317 H 0.16145 0.30634 0.64175 0.0
H318 H 0.10171 0.27224 0.73407 0.0
H319 H 0.11684 0.16009 0.73193 0.0
La320 La 0.63527 0.60727 0.18514 0.0
La321 La 0.59672 0.72447 0.1966 0.0
C322 C 0.6593 0.49653 0.18583 0.0
C323 C 0.64877 0.42974 0.18769 0.0
C324 C 0.66883 0.38419 0.17125 0.0
C325 C 0.66051 0.32012 0.17333 0.0
C326 C 0.63188 0.30003 0.19199 0.0
C327 C 0.61149 0.34605 0.20814 0.0
C328 C 0.61987 0.41038 0.20603 0.0
C329 C 0.63381 0.68255 0.12976 0.0
C330 C 0.55458 0.60907 0.17688 0.0
C331 C 0.57221 0.83476 0.19876 0.0
C332 C 0.58285 0.9016 0.19915 0.0
C333 C 0.5625 0.94579 0.21635 0.0
C334 C 0.5709 1.00998 0.21607 0.0
C335 C 0.59988 1.03151 0.19848 0.0
C336 C 0.62061 0.98676 0.18173 0.0
C337 C 0.61217 0.92238 0.18206 0.0
C338 C 0.59823 0.6445 0.25028 0.0
C339 C 0.6767 0.72802 0.20213 0.0
O340 O 0.65143 0.52718 0.15733 0.0
O341 O 0.65508 0.53108 0.21377 0.0
O342 O 0.6597 0.65042 0.14041 0.0
O343 O 0.60934 0.67157 0.15019 0.0
O344 O 0.58201 0.5754 0.18421 0.0
O345 O 0.55565 0.67101 0.17502 0.0
O346 O 0.57952 0.80133 0.22646 0.0
O347 O 0.57706 0.80302 0.1699 0.0
O348 O 0.57209 0.6774 0.24114 0.0
O349 O 0.62237 0.65877 0.23043 0.0
O350 O 0.64857 0.7595 0.19583 0.0
O351 O 0.67706 0.66562 0.20346 0.0
H352 H 0.69116 0.39821 0.15687 0.0
H353 H 0.67644 0.28634 0.16001 0.0
H354 H 0.58941 0.33229 0.22296 0.0
H355 H 0.604 0.44481 0.21894 0.0
H356 H 0.53986 0.93066 0.22984 0.0
H357 H 0.55469 1.04272 0.2298 0.0
H358 H 0.64296 1.00159 0.16768 0.0
H359 H 0.62828 0.88906 0.16862 0.0
La360 La 0.34309 0.49057 0.18522 0.0
La361 La 0.38154 0.37353 0.19744 0.0
C362 C 0.31952 0.60155 0.18587 0.0
C363 C 0.33074 0.66817 0.18737 0.0
C364 C 0.31887 0.71032 0.16186 0.0
C365 C 0.32744 0.77432 0.16323 0.0
C366 C 0.34799 0.79784 0.19031 0.0
C367 C 0.36004 0.7555 0.21586 0.0
C368 C 0.35158 0.69119 0.21437 0.0
C369 C 0.3448 0.41546 0.1299 0.0
C370 C 0.42387 0.48876 0.17788 0.0
C371 C 0.4059 0.26324 0.1999 0.0
C372 C 0.3953 0.19639 0.19773 0.0
C373 C 0.3676 0.17281 0.21662 0.0
C374 C 0.35951 0.10834 0.21541 0.0
C375 C 0.37885 0.06635 0.19518 0.0
C376 C 0.40627 0.09047 0.17604 0.0
C377 C 0.41441 0.1547 0.17738 0.0
C378 C 0.37969 0.45368 0.25099 0.0
C379 C 0.30158 0.36946 0.2008 0.0
O380 O 0.32652 0.57046 0.15735 0.0
O381 O 0.32359 0.56679 0.21383 0.0
O382 O 0.31891 0.44786 0.14007 0.0
O383 O 0.36916 0.42623 0.15071 0.0
O384 O 0.39635 0.52257 0.1844 0.0
O385 O 0.4229 0.42679 0.17673 0.0
O386 O 0.39655 0.29531 0.22739 0.0
O387 O 0.40358 0.29663 0.17123 0.0
O388 O 0.40588 0.42074 0.24231 0.0
O389 O 0.35569 0.43927 0.2308 0.0
O390 O 0.32979 0.33817 0.1949 0.0
O391 O 0.3012 0.43184 0.20255 0.0
H392 H 0.30251 0.69381 0.141 0.0
H393 H 0.31734 0.80567 0.14342 0.0
H394 H 0.37618 0.772 0.23687 0.0
H395 H 0.36113 0.65976 0.23444 0.0
H396 H 0.35239 0.20397 0.23251 0.0
H397 H 0.338 0.09143 0.23013 0.0
H398 H 0.42194 0.05942 0.16054 0.0
H399 H 0.43601 0.17175 0.16281 0.0
La400 La 0.63486 0.4915 0.42478 0.0
La401 La 0.59621 0.37407 0.41383 0.0
C402 C 0.65848 0.60255 0.42342 0.0
C403 C 0.64724 0.6691 0.42249 0.0
C404 C 0.65997 0.71107 0.44765 0.0
C405 C 0.65137 0.77503 0.44673 0.0
C406 C 0.62994 0.79868 0.42044 0.0
C407 C 0.61702 0.75652 0.39526 0.0
C408 C 0.62549 0.69226 0.39631 0.0
C409 C 0.63342 0.41746 0.4806 0.0
C410 C 0.55402 0.48984 0.43241 0.0
C411 C 0.57185 0.26359 0.41301 0.0
C412 C 0.58258 0.19688 0.4149 0.0
C413 C 0.60986 0.17367 0.39534 0.0
C414 C 0.61802 0.10927 0.3963 0.0
C415 C 0.59918 0.06703 0.41696 0.0
C416 C 0.57222 0.09079 0.43684 0.0
C417 C 0.56401 0.15495 0.43573 0.0
C418 C 0.5979 0.45264 0.35956 0.0
C419 C 0.6762 0.3707 0.4087 0.0
O420 O 0.65249 0.57119 0.45214 0.0
O421 O 0.65339 0.56802 0.39557 0.0
O422 O 0.65935 0.44938 0.46993 0.0
O423 O 0.60891 0.42798 0.45997 0.0
O424 O 0.58162 0.52349 0.42566 0.0
O425 O 0.5549 0.42789 0.43407 0.0
O426 O 0.57992 0.29542 0.38496 0.0
O427 O 0.57547 0.29727 0.4414 0.0
O428 O 0.5717 0.41985 0.36862 0.0
O429 O 0.62196 0.43889 0.37977 0.0
O430 O 0.64811 0.33928 0.41539 0.0
O431 O 0.67649 0.43306 0.40672 0.0
H432 H 0.67702 0.69445 0.46788 0.0
H433 H 0.66214 0.80626 0.46623 0.0
H434 H 0.60018 0.77315 0.37487 0.0
H435 H 0.61526 0.66096 0.37653 0.0
H436 H 0.62468 0.20507 0.37911 0.0
H437 H 0.63918 0.0926 0.38102 0.0
H438 H 0.55696 0.05952 0.4527 0.0
H439 H 0.54274 0.17175 0.45085 0.0
La440 La 0.34253 0.60915 0.42428 0.0
La441 La 0.38127 0.72633 0.41335 0.0
C442 C 0.31892 0.49805 0.42293 0.0
C443 C 0.33019 0.43148 0.42186 0.0
C444 C 0.31801 0.38944 0.44721 0.0
C445 C 0.32663 0.32549 0.4462 0.0
C446 C 0.34753 0.30189 0.41964 0.0
C447 C 0.3599 0.34412 0.39426 0.0
C448 C 0.3514 0.40838 0.3954 0.0
C449 C 0.34426 0.68307 0.48012 0.0
C450 C 0.42342 0.61061 0.43234 0.0
C451 C 0.40567 0.83679 0.41219 0.0
C452 C 0.39498 0.90355 0.41405 0.0
C453 C 0.36751 0.92682 0.39453 0.0
C454 C 0.35939 0.99123 0.39545 0.0
C455 C 0.37844 1.03348 0.41605 0.0
C456 C 0.4056 1.00966 0.43586 0.0
C457 C 0.41379 0.94548 0.43479 0.0
C458 C 0.37946 0.64746 0.35921 0.0
C459 C 0.30128 0.73035 0.40818 0.0
O460 O 0.32527 0.52926 0.45164 0.0
O461 O 0.32362 0.53278 0.39509 0.0
O462 O 0.31826 0.65128 0.46931 0.0
O463 O 0.36868 0.67257 0.45957 0.0
O464 O 0.39578 0.57706 0.42543 0.0
O465 O 0.42258 0.67255 0.43399 0.0
O466 O 0.39717 0.80489 0.38425 0.0
O467 O 0.40249 0.80315 0.44066 0.0
O468 O 0.40567 0.68022 0.36843 0.0
O469 O 0.35541 0.66141 0.37921 0.0
O470 O 0.32949 0.76147 0.41493 0.0
O471 O 0.30083 0.66798 0.40619 0.0
H472 H 0.30137 0.40599 0.46765 0.0
H473 H 0.31628 0.29422 0.46585 0.0
H474 H 0.37633 0.32757 0.37366 0.0
H475 H 0.3612 0.43971 0.37546 0.0
H476 H 0.35252 0.89544 0.37834 0.0
H477 H 0.33806 1.00791 0.38022 0.0
H478 H 0.42105 1.0409 0.45166 0.0
H479 H 0.4352 0.92866 0.44987 0.0
La480 La 0.38165 0.3725 0.91366 0.0
La481 La 0.34296 0.48943 0.92476 0.0
C482 C 0.40587 0.26205 0.91238 0.0
C483 C 0.39498 0.19531 0.91436 0.0
C484 C 0.36803 0.17171 0.89416 0.0
C485 C 0.35981 0.10729 0.89514 0.0
C486 C 0.37824 0.06536 0.91648 0.0
C487 C 0.40484 0.0895 0.937 0.0
C488 C 0.41314 0.15368 0.93586 0.0
C489 C 0.37969 0.45131 0.85949 0.0
C490 C 0.30168 0.36793 0.90915 0.0
C491 C 0.31914 0.60025 0.92359 0.0
C492 C 0.33016 0.66699 0.92244 0.0
C493 C 0.31692 0.70927 0.94701 0.0
C494 C 0.32541 0.77333 0.94595 0.0
C495 C 0.34726 0.79679 0.92013 0.0
C496 C 0.36066 0.75433 0.89551 0.0
C497 C 0.35228 0.68995 0.8967 0.0
C498 C 0.34489 0.41492 0.98047 0.0
C499 C 0.42385 0.48834 0.93256 0.0
O500 O 0.39731 0.29403 0.88449 0.0
O501 O 0.40297 0.29569 0.94085 0.0
O502 O 0.40591 0.41863 0.86863 0.0
O503 O 0.35566 0.43747 0.8796 0.0
O504 O 0.32993 0.33701 0.91565 0.0
O505 O 0.30119 0.43029 0.90704 0.0
O506 O 0.32581 0.56909 0.95226 0.0
O507 O 0.32376 0.56569 0.89571 0.0
O508 O 0.31886 0.44671 0.96984 0.0
O509 O 0.36921 0.42609 0.9599 0.0
O510 O 0.39621 0.52178 0.92569 0.0
O511 O 0.423 0.42639 0.93423 0.0
H512 H 0.35351 0.20282 0.87739 0.0
H513 H 0.33891 0.09035 0.87935 0.0
H514 H 0.41979 0.05849 0.95341 0.0
H515 H 0.43416 0.17073 0.95148 0.0
H516 H 0.29958 0.69278 0.96688 0.0
H517 H 0.31428 0.80476 0.965 0.0
H518 H 0.37782 0.77079 0.87549 0.0
H519 H 0.36291 0.65839 0.8774 0.0
La520 La 0.59671 0.72509 0.91322 0.0
La521 La 0.63529 0.60799 0.92478 0.0
C522 C 0.57236 0.83542 0.91179 0.0
C523 C 0.58298 0.90224 0.91377 0.0
C524 C 0.61071 0.9256 0.89486 0.0
C525 C 0.61882 0.99006 0.89592 0.0
C526 C 0.59948 1.03224 0.91603 0.0
C527 C 0.57203 1.00833 0.93521 0.0
C528 C 0.56387 0.9441 0.93401 0.0
C529 C 0.59826 0.64593 0.85931 0.0
C530 C 0.67668 0.72882 0.90833 0.0
C531 C 0.65887 0.49703 0.92407 0.0
C532 C 0.64758 0.43044 0.92284 0.0
C533 C 0.65943 0.38853 0.94848 0.0
C534 C 0.65084 0.32453 0.9473 0.0
C535 C 0.63029 0.30076 0.92028 0.0
C536 C 0.61824 0.34287 0.89462 0.0
C537 C 0.62671 0.40717 0.89592 0.0
C538 C 0.63381 0.68302 0.98024 0.0
C539 C 0.55448 0.60943 0.93225 0.0
O540 O 0.58092 0.80359 0.88395 0.0
O541 O 0.57554 0.80184 0.9403 0.0
O542 O 0.57213 0.67884 0.86822 0.0
O543 O 0.62238 0.65975 0.87947 0.0
O544 O 0.64859 0.76016 0.91486 0.0
O545 O 0.67697 0.66645 0.90659 0.0
O546 O 0.65222 0.52832 0.95262 0.0
O547 O 0.65449 0.53161 0.89609 0.0
O548 O 0.65975 0.65112 0.96974 0.0
O549 O 0.60937 0.67178 0.95963 0.0
O550 O 0.58204 0.57583 0.92554 0.0
O551 O 0.55541 0.67138 0.93375 0.0
H552 H 0.62591 0.89425 0.87906 0.0
H553 H 0.64036 1.00683 0.88119 0.0
H554 H 0.55636 1.03951 0.95061 0.0
H555 H 0.54225 0.92719 0.9486 0.0
H556 H 0.67581 0.40522 0.96928 0.0
H557 H 0.66093 0.29335 0.9672 0.0
H558 H 0.60208 0.32617 0.87366 0.0
H559 H 0.61717 0.4384 0.87575 0.0
La560 La 0.38123 0.72407 0.69696 0.0
La561 La 0.34272 0.60692 0.68526 0.0
C562 C 0.40553 0.83459 0.69861 0.0
C563 C 0.39486 0.90135 0.69655 0.0
C564 C 0.3674 0.92471 0.7158 0.0
C565 C 0.3593 0.98913 0.71468 0.0
C566 C 0.37837 1.03127 0.69417 0.0
C567 C 0.40553 1.00737 0.67464 0.0
C568 C 0.41368 0.94319 0.6759 0.0
C569 C 0.37959 0.64467 0.75087 0.0
C570 C 0.30127 0.7276 0.70144 0.0
C571 C 0.31912 0.49581 0.68591 0.0
C572 C 0.33037 0.42926 0.68717 0.0
C573 C 0.3181 0.38715 0.66184 0.0
C574 C 0.32668 0.32319 0.66304 0.0
C575 C 0.34763 0.29967 0.68978 0.0
C576 C 0.36009 0.34198 0.71514 0.0
C577 C 0.35163 0.40625 0.71381 0.0
C578 C 0.34432 0.68204 0.62977 0.0
C579 C 0.42358 0.60892 0.67797 0.0
O580 O 0.39679 0.80259 0.72638 0.0
O581 O 0.40262 0.80107 0.67008 0.0
O582 O 0.40573 0.67776 0.74198 0.0
O583 O 0.35549 0.65844 0.73069 0.0
O584 O 0.32941 0.75899 0.69503 0.0
O585 O 0.30092 0.66521 0.70318 0.0
O586 O 0.32588 0.5272 0.65738 0.0
O587 O 0.32344 0.53034 0.7139 0.0
O588 O 0.31836 0.64997 0.64023 0.0
O589 O 0.36873 0.67094 0.65044 0.0
O590 O 0.39601 0.5751 0.68459 0.0
O591 O 0.42261 0.67086 0.67649 0.0
H592 H 0.3524 0.89341 0.73191 0.0
H593 H 0.33798 1.00589 0.7297 0.0
H594 H 0.42098 1.03853 0.65891 0.0
H595 H 0.43509 0.92629 0.66103 0.0
H596 H 0.30143 0.40366 0.64125 0.0
H597 H 0.31627 0.29186 0.64339 0.0
H598 H 0.37656 0.32547 0.73587 0.0
H599 H 0.36149 0.43765 0.73373 0.0
La600 La 0.5968 0.37387 0.69687 0.0
La601 La 0.63531 0.49127 0.68586 0.0
C602 C 0.57248 0.26337 0.69786 0.0
C603 C 0.58317 0.19665 0.69603 0.0
C604 C 0.6106 0.17339 0.7156 0.0
C605 C 0.61873 0.10899 0.71467 0.0
C606 C 0.59971 0.06678 0.69402 0.0
C607 C 0.57258 0.09059 0.67417 0.0
C608 C 0.56439 0.15475 0.67525 0.0
C609 C 0.59841 0.45258 0.75098 0.0
C610 C 0.6768 0.37055 0.70223 0.0
C611 C 0.65895 0.60233 0.68692 0.0
C612 C 0.64775 0.66889 0.68803 0.0
C613 C 0.66016 0.71101 0.66285 0.0
C614 C 0.6516 0.77496 0.6639 0.0
C615 C 0.63053 0.79847 0.69034 0.0
C616 C 0.61793 0.75616 0.71555 0.0
C617 C 0.62638 0.69189 0.71437 0.0
C618 C 0.6337 0.41673 0.63019 0.0
C619 C 0.55446 0.48935 0.67791 0.0
O620 O 0.58083 0.29523 0.72586 0.0
O621 O 0.57581 0.29702 0.66942 0.0
O622 O 0.57227 0.41958 0.74179 0.0
O623 O 0.62252 0.43909 0.73097 0.0
O624 O 0.64868 0.3391 0.69555 0.0
O625 O 0.67709 0.43292 0.70409 0.0
O626 O 0.65233 0.57109 0.65828 0.0
O627 O 0.65443 0.5677 0.71483 0.0
O628 O 0.65968 0.44865 0.64096 0.0
O629 O 0.6093 0.42766 0.65066 0.0
O630 O 0.58203 0.52309 0.68486 0.0
O631 O 0.55544 0.42743 0.67619 0.0
H632 H 0.62556 0.20477 0.73181 0.0
H633 H 0.64003 0.09229 0.72993 0.0
H634 H 0.55717 0.05936 0.65833 0.0
H635 H 0.543 0.17158 0.66013 0.0
H636 H 0.67692 0.6945 0.6425 0.0
H637 H 0.66211 0.8063 0.64437 0.0
H638 H 0.60137 0.77267 0.73605 0.0
H639 H 0.61641 0.66047 0.73417 0.0
C640 C 0.20827 0.32947 0.19944 0.0
C641 C 0.20863 0.26304 0.20162 0.0
H642 H 0.23704 0.41512 0.19798 0.0
C643 C 0.23988 0.23221 0.20509 0.0
H644 H 0.18481 0.35498 0.19642 0.0
C645 C 0.27002 0.26695 0.2056 0.0
C646 C 0.26957 0.33331 0.20294 0.0
H647 H 0.24118 0.18121 0.20683 0.0
H648 H 0.2937 0.2416 0.20767 0.0
C649 C 0.23832 0.36418 0.20032 0.0
C650 C 0.77009 0.76795 0.20556 0.0
C651 C 0.76953 0.83447 0.20523 0.0
H652 H 0.74136 0.68213 0.20515 0.0
C653 C 0.73821 0.86545 0.20622 0.0
H654 H 0.79379 0.74245 0.205 0.0
C655 C 0.70811 0.83072 0.20622 0.0
C656 C 0.70866 0.76421 0.20539 0.0
H657 H 0.73685 0.91655 0.20605 0.0
H658 H 0.68439 0.85622 0.2062 0.0
C659 C 0.74 0.73322 0.20573 0.0
C660 C 0.23798 0.7361 0.40381 0.0
C661 C 0.26942 0.76685 0.40501 0.0
H662 H 0.1842 0.74562 0.40368 0.0
C663 C 0.27016 0.83341 0.40496 0.0
H664 H 0.23644 0.68501 0.40378 0.0
C665 C 0.24016 0.86834 0.40478 0.0
C666 C 0.2087 0.83754 0.40483 0.0
H667 H 0.29395 0.85878 0.40573 0.0
H668 H 0.24168 0.91941 0.40553 0.0
C669 C 0.20798 0.77102 0.40381 0.0
C670 C 0.7696 0.33132 0.40455 0.0
C671 C 0.76909 0.2648 0.40524 0.0
H672 H 0.74083 0.41693 0.40481 0.0
C673 C 0.73774 0.2336 0.40485 0.0
H674 H 0.79331 0.35698 0.40466 0.0
C675 C 0.70762 0.26811 0.40508 0.0
C676 C 0.70814 0.33464 0.40549 0.0
H677 H 0.7364 0.1825 0.40535 0.0
H678 H 0.68392 0.24245 0.40561 0.0
C679 C 0.73948 0.36583 0.40457 0.0
C680 C 0.70818 0.83152 0.90475 0.0
C681 C 0.70864 0.765 0.90516 0.0
H682 H 0.73703 0.91723 0.90515 0.0
C683 C 0.73995 0.7339 0.90435 0.0
H684 H 0.6845 0.85711 0.90521 0.0
C685 C 0.77009 0.76851 0.90445 0.0
C686 C 0.76963 0.83502 0.90516 0.0
H687 H 0.74126 0.6828 0.90459 0.0
H688 H 0.79377 0.74291 0.90465 0.0
C689 C 0.73832 0.86614 0.90465 0.0
C690 C 0.27056 0.26471 0.9063 0.0
C691 C 0.2698 0.33126 0.90664 0.0
H692 H 0.2421 0.17851 0.90688 0.0
C693 C 0.23836 0.36184 0.90644 0.0
H694 H 0.29436 0.23951 0.90634 0.0
C695 C 0.20839 0.32675 0.90694 0.0
C696 C 0.20913 0.26018 0.90743 0.0
H697 H 0.23683 0.41292 0.90674 0.0
H698 H 0.18462 0.35208 0.90736 0.0
C699 C 0.24057 0.22959 0.90659 0.0
C700 C 0.70824 0.26796 0.70599 0.0
C701 C 0.70878 0.33448 0.70538 0.0
H702 H 0.73696 0.18228 0.70571 0.0
C703 C 0.74014 0.36561 0.7059 0.0
H704 H 0.68452 0.24234 0.70576 0.0
C705 C 0.77024 0.33103 0.70573 0.0
C706 C 0.76969 0.26451 0.70524 0.0
H707 H 0.74151 0.41671 0.70548 0.0
H708 H 0.79395 0.35666 0.7053 0.0
C709 C 0.73834 0.23338 0.70603 0.0
C710 C 0.20789 0.76762 0.70465 0.0
C711 C 0.20854 0.83415 0.70408 0.0
H712 H 0.23649 0.68177 0.70456 0.0
C713 C 0.23994 0.86511 0.70487 0.0
H714 H 0.18414 0.74211 0.70422 0.0
C715 C 0.26999 0.83036 0.70494 0.0
C716 C 0.26935 0.76382 0.70441 0.0
H717 H 0.2414 0.9162 0.70449 0.0
H718 H 0.29374 0.85586 0.70473 0.0
C719 C 0.23794 0.73286 0.70492 0.0
C720 C 0.0679 1.03335 0.31805 0.0
C721 C 0.09842 1.01076 0.33229 0.0
H722 H 0.04388 0.09712 0.28203 0.0
C723 C 0.12893 1.03755 0.32059 0.0
H724 H 0.04395 1.01398 0.32659 0.0
C725 C 0.12888 0.08524 0.29498 0.0
C726 C 0.09833 0.10724 0.28046 0.0
H727 H 0.15287 1.021 0.33086 0.0
H728 H 0.15279 0.10444 0.28621 0.0
C729 C 0.06784 0.08126 0.29265 0.0
C730 C 0.90981 0.0739 0.31847 0.0
C731 C 0.87924 0.09738 0.33183 0.0
H732 H 0.93393 1.01003 0.2829 0.0
C733 C 0.84871 0.07328 0.3183 0.0
H734 H 0.93377 0.09129 0.32836 0.0
C735 C 0.8488 1.02705 0.29189 0.0
C736 C 0.87943 1.00332 0.27874 0.0
H737 H 0.82473 0.09056 0.32792 0.0
H738 H 0.82489 1.00949 0.28197 0.0
C739 C 0.9099 1.02714 0.29248 0.0
C740 C 0.84934 0.07313 0.79216 0.0
C741 C 0.87991 0.09701 0.77883 0.0
H742 H 0.82542 1.00967 0.82843 0.0
C743 C 0.91045 0.07342 0.79249 0.0
H744 H 0.82539 0.09048 0.78229 0.0
C745 C 0.91046 1.02675 0.81858 0.0
C746 C 0.87995 1.00315 0.83211 0.0
H747 H 0.93443 0.09064 0.78276 0.0
H748 H 0.93446 1.00953 0.82841 0.0
C749 C 0.84936 1.02702 0.81866 0.0
C750 C 0.06823 0.07437 0.81575 0.0
C751 C 0.0988 0.09891 0.82888 0.0
H752 H 0.04417 1.00893 0.78072 0.0
C753 C 0.12934 0.07578 0.8152 0.0
H754 H 0.04428 0.09114 0.82572 0.0
C755 C 0.12927 1.02889 0.78918 0.0
C756 C 0.09867 1.00374 0.77643 0.0
H757 H 0.1533 0.09387 0.82468 0.0
H758 H 0.15319 1.0118 0.77932 0.0
C759 C 0.06818 1.02705 0.79007 0.0
C760 C 0.62907 0.5253 0.31824 0.0
C761 C 0.59844 0.50158 0.33152 0.0
H762 H 0.65313 0.58866 0.28198 0.0
C763 C 0.56797 0.52515 0.31772 0.0
H764 H 0.65298 0.50793 0.32821 0.0
C765 C 0.56806 0.57171 0.2916 0.0
C766 C 0.59862 0.59525 0.27815 0.0
H767 H 0.54394 0.50803 0.3274 0.0
H768 H 0.54409 0.58896 0.28171 0.0
C769 C 0.62916 0.57134 0.29169 0.0
C770 C 0.40956 0.57415 0.31823 0.0
C771 C 0.37902 0.59795 0.33147 0.0
H772 H 0.43363 0.50978 0.28291 0.0
C773 C 0.34846 0.57391 0.31794 0.0
H774 H 0.43354 0.59147 0.32811 0.0
C775 C 0.34852 0.52738 0.29167 0.0
C776 C 0.37913 0.50331 0.27865 0.0
H777 H 0.3245 0.59143 0.32747 0.0
H778 H 0.3246 0.50985 0.28175 0.0
C779 C 0.40961 0.52713 0.29239 0.0
C780 C 0.40971 0.52473 0.81832 0.0
C781 C 0.3792 0.50076 0.83169 0.0
H782 H 0.43368 0.58915 0.78281 0.0
C783 C 0.34861 0.52459 0.81821 0.0
H784 H 0.43372 0.50758 0.82816 0.0
C785 C 0.3486 0.571 0.79184 0.0
C786 C 0.37917 0.59524 0.77869 0.0
H787 H 0.32468 0.50696 0.82784 0.0
H788 H 0.32465 0.58831 0.78194 0.0
C789 C 0.40969 0.57168 0.79239 0.0
C790 C 0.62929 0.5726 0.81845 0.0
C791 C 0.59869 0.59653 0.83156 0.0
H792 H 0.65328 0.50875 0.78257 0.0
C793 C 0.56818 0.57265 0.81791 0.0
H794 H 0.65322 0.59018 0.82831 0.0
C795 C 0.56822 0.52565 0.79206 0.0
C796 C 0.59877 0.50199 0.77874 0.0
H797 H 0.54417 0.5899 0.82748 0.0
H798 H 0.54424 0.50822 0.78223 0.0
C799 C 0.62933 0.52615 0.79217 0.0
C800 C 0.0929 0.16749 1.03591 0.0
C801 C 0.12361 0.17292 1.0177 0.0
H802 H 0.06929 0.15613 0.08618 0.0
C803 C 0.1534 0.18367 1.03685 0.0
H804 H 0.06975 0.15701 1.02184 0.0
C805 C 0.15316 0.18298 0.07338 0.0
C806 C 0.1231 0.17165 0.09171 0.0
H807 H 0.1775 0.18636 1.02356 0.0
H808 H 0.17706 0.18531 0.08726 0.0
C809 C 0.09265 0.1669 0.07275 0.0
C810 C 0.81764 0.88691 1.03695 0.0
C811 C 0.84733 0.90021 1.01832 0.0
H812 H 0.79373 0.8804 0.08686 0.0
C813 C 0.87772 0.90823 1.03714 0.0
H814 H 0.79388 0.88025 1.02324 0.0
C815 C 0.87764 0.90829 0.074 0.0
C816 C 0.84717 0.90036 0.09244 0.0
H817 H 0.90098 0.91895 1.02353 0.0
H818 H 0.90084 0.91905 0.0879 0.0
C819 C 0.81756 0.88699 0.07345 0.0
C820 C 0.15996 0.8851 0.53586 0.0
C821 C 0.1305 0.89967 0.51694 0.0
H822 H 0.18362 0.87739 0.58603 0.0
C823 C 0.10013 0.90842 0.5354 0.0
H824 H 0.1837 0.87791 0.52241 0.0
C825 C 0.10009 0.90815 0.57225 0.0
C826 C 0.13041 0.89912 0.59101 0.0
H827 H 0.07705 0.92016 0.52154 0.0
H828 H 0.07698 0.91966 0.5859 0.0
C829 C 0.15992 0.88482 0.57235 0.0
C830 C 0.81757 0.21152 0.57335 0.0
C831 C 0.84723 0.19831 0.59225 0.0
H832 H 0.79371 0.21807 0.52322 0.0
C833 C 0.87762 0.19036 0.57371 0.0
H834 H 0.7938 0.21814 0.58683 0.0
C835 C 0.87757 0.19035 0.53684 0.0
C836 C 0.84712 0.19826 0.51812 0.0
H837 H 0.90087 0.17971 0.58754 0.0
H838 H 0.90078 0.17968 0.52315 0.0
C839 C 0.81751 0.21149 0.53684 0.0
C840 C 0.60029 0.69031 0.0733 0.0
C841 C 0.63068 0.69876 0.09206 0.0
H842 H 0.57711 0.67927 1.02258 0.0
C843 C 0.66026 0.71267 0.07338 0.0
H844 H 0.57712 0.67909 0.08695 0.0
C845 C 0.66026 0.71278 1.03688 0.0
C846 C 0.63068 0.69897 1.01793 0.0
H847 H 0.68402 0.71968 0.08705 0.0
H848 H 0.68402 0.71987 1.02343 0.0
C849 C 0.60029 0.6904 1.03644 0.0
C850 C 0.31864 0.38446 1.03686 0.0
C851 C 0.34815 0.39887 1.01817 0.0
H852 H 0.29488 0.37716 0.08681 0.0
C853 C 0.37848 0.40804 1.03694 0.0
H854 H 0.29493 0.37693 1.02319 0.0
C855 C 0.37846 0.40813 0.0738 0.0
C856 C 0.3481 0.39908 0.09229 0.0
H857 H 0.40159 0.41967 1.02327 0.0
H858 H 0.40155 0.41986 0.08766 0.0
C859 C 0.31862 0.38457 0.07336 0.0
C860 C 0.66004 0.38788 0.53718 0.0
C861 C 0.6304 0.40141 0.51831 0.0
H862 H 0.68391 0.38082 0.58728 0.0
C863 C 0.60003 0.40945 0.53688 0.0
H864 H 0.68379 0.38119 0.52367 0.0
C865 C 0.6001 0.40926 0.57375 0.0
C866 C 0.63054 0.40101 0.59244 0.0
H867 H 0.57681 0.42035 0.52308 0.0
H868 H 0.57693 0.42003 0.58747 0.0
C869 C 0.66011 0.38766 0.57368 0.0
C870 C 0.3179 0.71205 0.57315 0.0
C871 C 0.34747 0.69817 0.59206 0.0
H872 H 0.29413 0.71941 0.52301 0.0
C873 C 0.37784 0.68978 0.57352 0.0
H874 H 0.29416 0.71899 0.58662 0.0
C875 C 0.37782 0.69004 0.53665 0.0
C876 C 0.34744 0.69867 0.5179 0.0
H877 H 0.40101 0.67858 0.58735 0.0
H878 H 0.40098 0.67903 0.52296 0.0
C879 C 0.31789 0.7123 0.53664 0.0
C880 C 0.9601 0.08593 0.17315 0.0
C881 C 0.95701 1.02 0.17386 0.0
H882 H -0.00645 0.16514 0.17319 0.0
C883 C 0.98651 0.98278 0.17321 0.0
H884 H 0.93791 0.11584 0.17356 0.0
C885 C 0.01843 1.01087 0.17332 0.0
C886 C 0.02156 0.07678 0.17367 0.0
H887 H 0.98508 0.93169 0.17371 0.0
H888 H 0.0406 0.98089 0.17384 0.0
C889 C -0.00793 0.11405 0.17284 0.0
C890 C 0.98644 0.11634 0.43712 0.0
C891 C 0.95677 0.07942 0.43609 0.0
H892 H 0.04058 0.11766 0.4366 0.0
C893 C 0.95959 1.01345 0.43598 0.0
H894 H 0.98521 0.16744 0.4372 0.0
C895 C -0.00859 0.98503 0.43595 0.0
C896 C 0.02108 1.02199 0.43567 0.0
H897 H 0.93727 0.98374 0.43523 0.0
H898 H -0.00737 0.93395 0.43513 0.0
C899 C 0.01826 0.08792 0.43674 0.0
C900 C -0.00708 0.11332 0.93704 0.0
C901 C 0.02231 0.07572 0.93675 0.0
H902 H 0.93876 0.11568 0.9362 0.0
C903 C 0.01897 1.00987 0.93812 0.0
H904 H -0.00546 0.16436 0.93595 0.0
C905 C 0.98695 0.98215 0.9386 0.0
C906 C 0.95755 1.01965 0.93731 0.0
H907 H 0.04104 0.97963 0.93806 0.0
H908 H 0.98536 0.93107 0.93883 0.0
C909 C 0.96086 0.08555 0.93712 0.0
C910 C 0.98673 0.11515 0.67332 0.0
C911 C 0.95696 0.07849 0.67409 0.0
H912 H 0.04087 0.11591 0.67346 0.0
C913 C 0.95959 1.0125 0.67334 0.0
H914 H 0.98564 0.16625 0.6739 0.0
C915 C -0.00868 0.98376 0.67276 0.0
C916 C 0.02111 1.02041 0.67327 0.0
H917 H 0.93719 0.98299 0.67385 0.0
H918 H -0.00759 0.93265 0.67293 0.0
C919 C 0.01846 0.08641 0.6731 0.0
C920 C 0.48683 0.48319 0.17396 0.0
C921 C 0.45712 0.51982 0.17436 0.0
H922 H 0.54095 0.48252 0.1745 0.0
C923 C 0.4598 0.58579 0.17328 0.0
H924 H 0.48569 0.43209 0.17478 0.0
C925 C 0.49157 0.61459 0.17278 0.0
C926 C 0.52128 0.57799 0.17372 0.0
H927 H 0.43744 0.61525 0.17349 0.0
H928 H 0.49273 0.66571 0.17272 0.0
C929 C 0.51858 0.51199 0.17382 0.0
C930 C 0.4865 0.6159 0.43627 0.0
C931 C 0.45668 0.57937 0.43554 0.0
H932 H 0.54064 0.61644 0.43575 0.0
C933 C 0.45924 0.51336 0.43586 0.0
H934 H 0.48547 0.66701 0.43599 0.0
C935 C 0.49096 0.48448 0.43604 0.0
C936 C 0.52077 0.52102 0.43553 0.0
H937 H 0.43681 0.48395 0.43535 0.0
H938 H 0.49199 0.43337 0.43559 0.0
C939 C 0.51821 0.58702 0.43608 0.0
C940 C 0.45972 0.5857 0.93584 0.0
C941 C 0.45711 0.51968 0.93568 0.0
H942 H 0.49253 0.66577 0.93533 0.0
C943 C 0.48689 0.48324 0.93651 0.0
H944 H 0.43731 0.61504 0.93525 0.0
C945 C 0.51862 0.5122 0.93623 0.0
C946 C 0.52123 0.57819 0.93549 0.0
H947 H 0.48582 0.43212 0.93637 0.0
H948 H 0.54102 0.48284 0.93597 0.0
C949 C 0.49145 0.61466 0.93592 0.0
C950 C 0.45962 0.51205 0.67421 0.0
C951 C 0.45689 0.57802 0.67482 0.0
H952 H 0.49257 0.43237 0.67423 0.0
C953 C 0.48661 0.61483 0.67434 0.0
H954 H 0.43726 0.48243 0.67453 0.0
C955 C 0.5184 0.58626 0.67448 0.0
C956 C 0.52113 0.52028 0.67475 0.0
H957 H 0.48545 0.66593 0.67483 0.0
H958 H 0.54076 0.61588 0.67502 0.0
C959 C 0.49141 0.48348 0.674 0.0
C960 C 0.12525 0.70076 0.16163 0.0
C961 C 0.13755 0.72581 0.19323 0.0
H962 H 0.10789 0.61874 0.13418 0.0
C963 C 0.14306 0.6846 0.22149 0.0
H964 H 0.12053 0.73114 0.13939 0.0
C965 C 0.13521 0.62051 0.21874 0.0
C966 C 0.12194 0.59566 0.18751 0.0
H967 H 0.15308 0.702 0.24603 0.0
H968 H 0.13859 0.5909 0.24155 0.0
C969 C 0.11758 0.6364 0.15879 0.0
C970 C 0.86366 0.40063 0.16079 0.0
C971 C 0.8559 0.36736 0.19153 0.0
H972 H 0.87642 0.4895 0.13759 0.0
C973 C 0.85542 0.40045 0.22337 0.0
H974 H 0.86452 0.37651 0.13588 0.0
C975 C 0.86231 0.46536 0.22436 0.0
C976 C 0.87013 0.49854 0.19358 0.0
H977 H 0.84921 0.37637 0.24747 0.0
H978 H 0.86196 0.4894 0.24931 0.0
C979 C 0.87075 0.46532 0.16181 0.0
C980 C 0.12329 0.40285 0.38658 0.0
C981 C 0.12179 0.36993 0.41846 0.0
H982 H 0.11756 0.49159 0.36018 0.0
C983 C 0.11298 0.40335 0.44881 0.0
H984 H 0.1303 0.37868 0.36278 0.0
C985 C 0.1059 0.468 0.44736 0.0
C986 C 0.10756 0.50107 0.41555 0.0
H987 H 0.11131 0.3794 0.47374 0.0
H988 H 0.09946 0.49227 0.47131 0.0
C989 C 0.11639 0.46771 0.38516 0.0
C990 C 0.86981 0.63446 0.44902 0.0
C991 C 0.87007 0.6014 0.4172 0.0
H992 H 0.86286 0.7231 0.47483 0.0
C993 C 0.86316 0.6347 0.38618 0.0
H994 H 0.87477 0.61018 0.47341 0.0
C995 C 0.85626 0.69957 0.387 0.0
C996 C 0.85582 0.73248 0.41889 0.0
H997 H 0.86349 0.61077 0.3612 0.0
H998 H 0.85075 0.72376 0.36271 0.0
C999 C 0.86271 0.6991 0.44986 0.0
C1000 C 0.86427 0.4006 0.95007 0.0
C1001 C 0.85642 0.36745 0.91927 0.0
H1002 H 0.87705 0.48938 0.97337 0.0
C1003 C 0.85585 0.40065 0.88744 0.0
H1004 H 0.8652 0.37639 0.97498 0.0
C1005 C 0.86273 0.46556 0.88651 0.0
C1006 C 0.87061 0.49862 0.91735 0.0
H1007 H 0.84958 0.37664 0.8633 0.0
H1008 H 0.86229 0.48971 0.86157 0.0
C1009 C 0.87134 0.46529 0.94911 0.0
C1010 C 0.08889 0.64369 0.92279 0.0
C1011 C 0.11391 0.59682 0.9257 0.0
H1012 H 0.07766 0.74221 0.91969 0.0
C1013 C 0.14775 0.61567 0.93035 0.0
H1014 H 0.06251 0.63095 0.91974 0.0
C1015 C 0.15642 0.67985 0.93086 0.0
C1016 C 0.13145 0.72663 0.92682 0.0
H1017 H 0.16768 0.58087 0.93253 0.0
H1018 H 0.18275 0.69282 0.93403 0.0
C1019 C 0.09754 0.70766 0.92327 0.0
C1020 C 0.85553 0.69833 0.72297 0.0
C1021 C 0.85633 0.73191 0.69128 0.0
H1022 H 0.86185 0.60905 0.74866 0.0
C1023 C 0.86447 0.69917 0.66051 0.0
H1024 H 0.84903 0.72199 0.74709 0.0
C1025 C 0.87159 0.63451 0.66137 0.0
C1026 C 0.87063 0.60079 0.693 0.0
H1027 H 0.86559 0.72366 0.6357 0.0
H1028 H 0.87752 0.61075 0.63712 0.0
C1029 C 0.86246 0.63346 0.7238 0.0
C1030 C 0.11378 0.39998 0.6587 0.0
C1031 C 0.1219 0.36682 0.68944 0.0
H1032 H 0.10072 0.4887 0.63547 0.0
C1033 C 0.12266 0.4 0.72125 0.0
H1034 H 0.11269 0.37581 0.63381 0.0
C1035 C 0.11572 0.46486 0.72222 0.0
C1036 C 0.10757 0.49794 0.69144 0.0
H1037 H 0.12914 0.37603 0.74536 0.0
H1038 H 0.11631 0.48895 0.74716 0.0
C1039 C 0.10664 0.46463 0.6597 0.0
C1040 C 0.58228 0.14563 0.19328 0.0
C1041 C 0.60808 0.10039 0.1973 0.0
H1042 H 0.56946 0.2435 0.18811 0.0
C1043 C 0.64169 0.12158 0.2001 0.0
H1044 H 0.55614 0.13113 0.19048 0.0
C1045 C 0.64931 0.18613 0.19872 0.0
C1046 C 0.62354 0.23134 0.19445 0.0
H1047 H 0.66216 0.0883 0.20381 0.0
H1048 H 0.67546 0.20065 0.20137 0.0
C1049 C 0.5899 0.21021 0.19192 0.0
C1050 C 0.36485 0.8996 0.16125 0.0
C1051 C 0.35642 0.86642 0.19185 0.0
H1052 H 0.37813 0.98836 0.13825 0.0
C1053 C 0.35537 0.89961 0.22363 0.0
H1054 H 0.36617 0.87542 0.13638 0.0
C1055 C 0.36232 0.9645 0.22472 0.0
C1056 C 0.37076 0.9976 0.19409 0.0
H1057 H 0.34865 0.87561 0.24762 0.0
H1058 H 0.36149 0.9886 0.24964 0.0
C1059 C 0.37198 0.96428 0.16237 0.0
C1060 C 0.61477 0.96552 0.38678 0.0
C1061 C 0.60727 0.99834 0.41771 0.0
H1062 H 0.62765 0.87686 0.36331 0.0
C1063 C 0.60696 0.96478 0.44941 0.0
H1064 H 0.61488 0.98983 0.36188 0.0
C1065 C 0.61407 0.90012 0.4502 0.0
C1066 C 0.62154 0.86722 0.4193 0.0
H1067 H 0.60154 0.98866 0.47375 0.0
H1068 H 0.61348 0.87573 0.47507 0.0
C1069 C 0.62168 0.90065 0.38754 0.0
C1070 C 0.36231 0.13505 0.38592 0.0
C1071 C 0.37033 0.1022 0.41681 0.0
H1072 H 0.34898 0.2237 0.36252 0.0
C1073 C 0.37113 0.13576 0.44848 0.0
H1074 H 0.36182 0.11077 0.36104 0.0
C1075 C 0.36399 0.20041 0.4493 0.0
C1076 C 0.35599 0.23333 0.41845 0.0
H1077 H 0.37695 0.11187 0.47279 0.0
H1078 H 0.36497 0.22476 0.47414 0.0
C1079 C 0.35536 0.19992 0.38671 0.0
C1080 C 0.35613 0.89845 0.88707 0.0
C1081 C 0.35569 0.8654 0.91894 0.0
H1082 H 0.36344 0.98736 0.86127 0.0
C1083 C 0.36262 0.89874 0.94992 0.0
H1084 H 0.35059 0.87433 0.86277 0.0
C1085 C 0.3698 0.96343 0.94908 0.0
C1086 C 0.37007 0.99661 0.91726 0.0
H1087 H 0.36277 0.87467 0.97489 0.0
H1088 H 0.37481 0.98763 0.97347 0.0
C1089 C 0.36309 0.96336 0.88625 0.0
C1090 C 0.62298 0.19874 0.88721 0.0
C1091 C 0.62188 0.23217 0.91891 0.0
H1092 H 0.6169 0.10954 0.86141 0.0
C1093 C 0.61345 0.19924 0.94958 0.0
H1094 H 0.62971 0.22256 0.86317 0.0
C1095 C 0.60634 0.13455 0.94861 0.0
C1096 C 0.60759 0.10098 0.91697 0.0
H1097 H 0.6121 0.22361 0.97439 0.0
H1098 H 0.60017 0.11065 0.97278 0.0
C1099 C 0.61605 0.13384 0.88627 0.0
C1100 C 0.36233 0.13297 0.72396 0.0
C1101 C 0.37029 0.09999 0.6932 0.0
H1102 H 0.34908 0.22175 0.74707 0.0
C1103 C 0.37107 0.1334 0.66146 0.0
H1104 H 0.36185 0.1088 0.74889 0.0
C1105 C 0.36397 0.19806 0.66046 0.0
C1106 C 0.35603 0.23112 0.69118 0.0
H1107 H 0.37685 0.1094 0.63725 0.0
H1108 H 0.36495 0.22231 0.63556 0.0
C1109 C 0.35542 0.19784 0.72298 0.0
C1110 C 0.62262 0.9003 0.72332 0.0
C1111 C 0.62211 0.867 0.69155 0.0
H1112 H 0.61609 0.98938 0.74904 0.0
C1113 C 0.61427 0.90001 0.66069 0.0
H1114 H 0.62888 0.87642 0.74752 0.0
C1115 C 0.60715 0.96466 0.66153 0.0
C1116 C 0.60782 0.9981 0.69324 0.0
H1117 H 0.61338 0.87573 0.63582 0.0
H1118 H 0.60145 0.98862 0.63722 0.0
C1119 C 0.6157 0.96517 0.72414 0.0
loop_
_geom_bond_atom_site_label_1
_geom_bond_atom_site_label_2
_geom_bond_distance
_geom_bond_site_symmetry_2
_ccdc_geom_bond_type
La0 C2 2.928 1_545 S
La0 O20 2.521 1_545 S
La0 O21 2.628 1_545 S
La0 O22 2.554 . S
La0 O23 2.757 . S
La0 O24 2.470 . S
La0 O29 2.482 . S
La0 O31 2.503 . S
La1 C11 2.928 . S
La1 O23 2.482 . S
La1 O25 2.503 . S
La1 O26 2.521 . S
La1 O27 2.628 . S
La1 O28 2.554 . S
La1 O29 2.757 . S
La1 O30 2.470 . S
C2 La0 2.928 1_565 S
C2 C3 1.503 . S
C2 O20 1.261 . S
C2 O21 1.243 . S
C3 C2 1.503 . S
C3 C4 1.394 . S
C3 C8 1.373 . S
C4 C3 1.394 . S
C4 C5 1.380 . S
C4 H32 0.930 . S
C5 C4 1.380 . S
C5 C6 1.376 . S
C5 H33 0.930 . S
C6 C5 1.376 . S
C6 C7 1.370 . S
C7 C6 1.370 . S
C7 C8 1.396 . S
C7 H34 0.929 . S
C8 C3 1.373 . S
C8 C7 1.396 . S
C8 H35 0.929 . S
C9 O22 1.240 . S
C9 O23 1.289 . S
C10 O24 1.258 . S
C10 O25 1.256 . S
C11 La1 2.928 . S
C11 C12 1.503 . S
C11 O26 1.261 . S
C11 O27 1.243 . S
C12 C11 1.503 . S
C12 C13 1.394 . S
C12 C17 1.373 . S
C13 C12 1.394 . S
C13 C14 1.380 . S
C13 H36 0.930 . S
C14 C13 1.380 . S
C14 C15 1.376 . S
C14 H37 0.930 . S
C15 C14 1.376 . S
C15 C16 1.370 . S
C16 C15 1.370 . S
C16 C17 1.396 . S
C16 H38 0.929 . S
C17 C12 1.373 . S
C17 C16 1.396 . S
C17 H39 0.929 . S
C18 O28 1.240 . S
C18 O29 1.289 . S
C19 O30 1.258 . S
C19 O31 1.256 . S
O20 La0 2.521 1_565 S
O20 C2 1.261 . S
O21 La0 2.628 1_565 S
O21 C2 1.243 . S
O22 La0 2.554 . S
O22 C9 1.240 . S
O23 La0 2.757 . S
O23 La1 2.482 . S
O23 C9 1.289 . S
O24 La0 2.470 . S
O24 C10 1.258 . S
O25 La1 2.503 . S
O25 C10 1.256 . S
O26 La1 2.521 . S
O26 C11 1.261 . S
O27 La1 2.628 . S
O27 C11 1.243 . S
O28 La1 2.554 . S
O28 C18 1.240 . S
O29 La0 2.482 . S
O29 La1 2.757 . S
O29 C18 1.289 . S
O30 La1 2.470 . S
O30 C19 1.258 . S
O31 La0 2.503 . S
O31 C19 1.256 . S
H32 C4 0.930 . S
H33 C5 0.930 . S
H34 C7 0.929 . S
H35 C8 0.929 . S
H36 C13 0.930 . S
H37 C14 0.930 . S
H38 C16 0.929 . S
H39 C17 0.929 . S
La40 C42 2.928 1_565 S
La40 O60 2.521 1_565 S
La40 O61 2.628 1_565 S
La40 O62 2.554 . S
La40 O63 2.757 . S
La40 O64 2.470 . S
La40 O69 2.482 . S
La40 O71 2.503 . S
La41 C51 2.928 . S
La41 O63 2.482 . S
La41 O65 2.503 . S
La41 O66 2.521 . S
La41 O67 2.628 . S
La41 O68 2.554 . S
La41 O69 2.757 . S
La41 O70 2.470 . S
C42 La40 2.928 1_545 S
C42 C43 1.503 . S
C42 O60 1.261 . S
C42 O61 1.243 . S
C43 C42 1.503 . S
C43 C44 1.394 . S
C43 C48 1.373 . S
C44 C43 1.394 . S
C44 C45 1.380 . S
C44 H72 0.930 . S
C45 C44 1.380 . S
C45 C46 1.376 . S
C45 H73 0.930 . S
C46 C45 1.376 . S
C46 C47 1.370 . S
C47 C46 1.370 . S
C47 C48 1.396 . S
C47 H74 0.929 . S
C48 C43 1.373 . S
C48 C47 1.396 . S
C48 H75 0.929 . S
C49 O62 1.240 . S
C49 O63 1.289 . S
C50 O64 1.258 . S
C50 O65 1.256 . S
C51 La41 2.928 . S
C51 C52 1.503 . S
C51 O66 1.261 . S
C51 O67 1.243 . S
C52 C51 1.503 . S
C52 C53 1.394 . S
C52 C57 1.373 . S
C53 C52 1.394 . S
C53 C54 1.380 . S
C53 H76 0.930 . S
C54 C53 1.380 . S
C54 C55 1.376 . S
C54 H77 0.930 . S
C55 C54 1.376 . S
C55 C56 1.370 . S
C56 C55 1.370 . S
C56 C57 1.396 . S
C56 H78 0.929 . S
C57 C52 1.373 . S
C57 C56 1.396 . S
C57 H79 0.929 . S
C58 O68 1.240 . S
C58 O69 1.289 . S
C59 O70 1.258 . S
C59 O71 1.256 . S
O60 La40 2.521 1_545 S
O60 C42 1.261 . S
O61 La40 2.628 1_545 S
O61 C42 1.243 . S
O62 La40 2.554 . S
O62 C49 1.240 . S
O63 La40 2.757 . S
O63 La41 2.482 . S
O63 C49 1.289 . S
O64 La40 2.470 . S
O64 C50 1.258 . S
O65 La41 2.503 . S
O65 C50 1.256 . S
O66 La41 2.521 . S
O66 C51 1.261 . S
O67 La41 2.628 . S
O67 C51 1.243 . S
O68 La41 2.554 . S
O68 C58 1.240 . S
O69 La40 2.482 . S
O69 La41 2.757 . S
O69 C58 1.289 . S
O70 La41 2.470 . S
O70 C59 1.258 . S
O71 La40 2.503 . S
O71 C59 1.256 . S
H72 C44 0.930 . S
H73 C45 0.930 . S
H74 C47 0.929 . S
H75 C48 0.929 . S
H76 C53 0.930 . S
H77 C54 0.930 . S
H78 C56 0.929 . S
H79 C57 0.929 . S
La80 C82 2.928 1_565 S
La80 O100 2.521 1_565 S
La80 O101 2.628 1_565 S
La80 O102 2.554 . S
La80 O103 2.757 . S
La80 O104 2.470 . S
La80 O109 2.482 . S
La80 O111 2.503 . S
La81 C91 2.928 . S
La81 O103 2.482 . S
La81 O105 2.503 . S
La81 O106 2.521 . S
La81 O107 2.628 . S
La81 O108 2.554 . S
La81 O109 2.757 . S
La81 O110 2.470 . S
C82 La80 2.928 1_545 S
C82 C83 1.503 . S
C82 O100 1.261 . S
C82 O101 1.243 . S
C83 C82 1.503 . S
C83 C84 1.394 . S
C83 C88 1.373 . S
C84 C83 1.394 . S
C84 C85 1.380 . S
C84 H112 0.930 . S
C85 C84 1.380 . S
C85 C86 1.376 . S
C85 H113 0.930 . S
C86 C85 1.376 . S
C86 C87 1.370 . S
C87 C86 1.370 . S
C87 C88 1.396 . S
C87 H114 0.929 . S
C88 C83 1.373 . S
C88 C87 1.396 . S
C88 H115 0.929 . S
C89 O102 1.240 . S
C89 O103 1.289 . S
C90 O104 1.258 . S
C90 O105 1.256 . S
C91 La81 2.928 . S
C91 C92 1.503 . S
C91 O106 1.261 . S
C91 O107 1.243 . S
C92 C91 1.503 . S
C92 C93 1.394 . S
C92 C97 1.373 . S
C93 C92 1.394 . S
C93 C94 1.380 . S
C93 H116 0.930 . S
C94 C93 1.380 . S
C94 C95 1.376 . S
C94 H117 0.930 . S
C95 C94 1.376 . S
C95 C96 1.370 . S
C96 C95 1.370 . S
C96 C97 1.396 . S
C96 H118 0.929 . S
C97 C92 1.373 . S
C97 C96 1.396 . S
C97 H119 0.929 . S
C98 O108 1.240 . S
C98 O109 1.289 . S
C99 O110 1.258 . S
C99 O111 1.256 . S
O100 La80 2.521 1_545 S
O100 C82 1.261 . S
O101 La80 2.628 1_545 S
O101 C82 1.243 . S
O102 La80 2.554 . S
O102 C89 1.240 . S
O103 La80 2.757 . S
O103 La81 2.482 . S
O103 C89 1.289 . S
O104 La80 2.470 . S
O104 C90 1.258 . S
O105 La81 2.503 . S
O105 C90 1.256 . S
O106 La81 2.521 . S
O106 C91 1.261 . S
O107 La81 2.628 . S
O107 C91 1.243 . S
O108 La81 2.554 . S
O108 C98 1.240 . S
O109 La80 2.482 . S
O109 La81 2.757 . S
O109 C98 1.289 . S
O110 La81 2.470 . S
O110 C99 1.258 . S
O111 La80 2.503 . S
O111 C99 1.256 . S
H112 C84 0.930 . S
H113 C85 0.930 . S
H114 C87 0.929 . S
H115 C88 0.929 . S
H116 C93 0.930 . S
H117 C94 0.930 . S
H118 C96 0.929 . S
H119 C97 0.929 . S
La120 C122 2.928 1_545 S
La120 O140 2.521 1_545 S
La120 O141 2.628 1_545 S
La120 O142 2.554 . S
La120 O143 2.757 . S
La120 O144 2.470 . S
La120 O149 2.482 . S
La120 O151 2.503 . S
La121 C131 2.928 . S
La121 O143 2.482 . S
La121 O145 2.503 . S
La121 O146 2.521 . S
La121 O147 2.628 . S
La121 O148 2.554 . S
La121 O149 2.757 . S
La121 O150 2.470 . S
C122 La120 2.928 1_565 S
C122 C123 1.503 . S
C122 O140 1.261 . S
C122 O141 1.243 . S
C123 C122 1.503 . S
C123 C124 1.394 . S
C123 C128 1.373 . S
C124 C123 1.394 . S
C124 C125 1.380 . S
C124 H152 0.930 . S
C125 C124 1.380 . S
C125 C126 1.376 . S
C125 H153 0.930 . S
C126 C125 1.376 . S
C126 C127 1.370 . S
C127 C126 1.370 . S
C127 C128 1.396 . S
C127 H154 0.929 . S
C128 C123 1.373 . S
C128 C127 1.396 . S
C128 H155 0.929 . S
C129 O142 1.240 . S
C129 O143 1.289 . S
C130 O144 1.258 . S
C130 O145 1.256 . S
C131 La121 2.928 . S
C131 C132 1.503 . S
C131 O146 1.261 . S
C131 O147 1.243 . S
C132 C131 1.503 . S
C132 C133 1.394 . S
C132 C137 1.373 . S
C133 C132 1.394 . S
C133 C134 1.380 . S
C133 H156 0.930 . S
C134 C133 1.380 . S
C134 C135 1.376 . S
C134 H157 0.930 . S
C135 C134 1.376 . S
C135 C136 1.370 . S
C136 C135 1.370 . S
C136 C137 1.396 . S
C136 H158 0.929 . S
C137 C132 1.373 . S
C137 C136 1.396 . S
C137 H159 0.929 . S
C138 O148 1.240 . S
C138 O149 1.289 . S
C139 O150 1.258 . S
C139 O151 1.256 . S
O140 La120 2.521 1_565 S
O140 C122 1.261 . S
O141 La120 2.628 1_565 S
O141 C122 1.243 . S
O142 La120 2.554 . S
O142 C129 1.240 . S
O143 La120 2.757 . S
O143 La121 2.482 . S
O143 C129 1.289 . S
O144 La120 2.470 . S
O144 C130 1.258 . S
O145 La121 2.503 . S
O145 C130 1.256 . S
O146 La121 2.521 . S
O146 C131 1.261 . S
O147 La121 2.628 . S
O147 C131 1.243 . S
O148 La121 2.554 . S
O148 C138 1.240 . S
O149 La120 2.482 . S
O149 La121 2.757 . S
O149 C138 1.289 . S
O150 La121 2.470 . S
O150 C139 1.258 . S
O151 La120 2.503 . S
O151 C139 1.256 . S
H152 C124 0.930 . S
H153 C125 0.930 . S
H154 C127 0.929 . S
H155 C128 0.929 . S
H156 C133 0.930 . S
H157 C134 0.930 . S
H158 C136 0.929 . S
H159 C137 0.929 . S
La160 C162 2.928 . S
La160 O180 2.521 . S
La160 O181 2.628 . S
La160 O182 2.554 . S
La160 O183 2.757 . S
La160 O184 2.470 . S
La160 O189 2.482 . S
La160 O191 2.503 . S
La161 C171 2.928 1_565 S
La161 O183 2.482 . S
La161 O185 2.503 . S
La161 O186 2.521 1_565 S
La161 O187 2.628 1_565 S
La161 O188 2.554 . S
La161 O189 2.757 . S
La161 O190 2.470 . S
C162 La160 2.928 . S
C162 C163 1.503 . S
C162 O180 1.261 . S
C162 O181 1.243 . S
C163 C162 1.503 . S
C163 C164 1.394 . S
C163 C168 1.373 . S
C164 C163 1.394 . S
C164 C165 1.380 . S
C164 H192 0.930 . S
C165 C164 1.380 . S
C165 C166 1.376 . S
C165 H193 0.930 . S
C166 C165 1.376 . S
C166 C167 1.370 . S
C167 C166 1.370 . S
C167 C168 1.396 . S
C167 H194 0.929 . S
C168 C163 1.373 . S
C168 C167 1.396 . S
C168 H195 0.929 . S
C169 O182 1.240 . S
C169 O183 1.289 . S
C170 O184 1.258 . S
C170 O185 1.256 . S
C171 La161 2.928 1_545 S
C171 C172 1.503 . S
C171 O186 1.261 . S
C171 O187 1.243 . S
C172 C171 1.503 . S
C172 C173 1.394 . S
C172 C177 1.373 . S
C173 C172 1.394 . S
C173 C174 1.380 . S
C173 H196 0.930 . S
C174 C173 1.380 . S
C174 C175 1.376 . S
C174 H197 0.930 . S
C175 C174 1.376 . S
C175 C176 1.370 . S
C176 C175 1.370 . S
C176 C177 1.396 . S
C176 H198 0.929 . S
C177 C172 1.373 . S
C177 C176 1.396 . S
C177 H199 0.929 . S
C178 O188 1.240 . S
C178 O189 1.289 . S
C179 O190 1.258 . S
C179 O191 1.256 . S
O180 La160 2.521 . S
O180 C162 1.261 . S
O181 La160 2.628 . S
O181 C162 1.243 . S
O182 La160 2.554 . S
O182 C169 1.240 . S
O183 La160 2.757 . S
O183 La161 2.482 . S
O183 C169 1.289 . S
O184 La160 2.470 . S
O184 C170 1.258 . S
O185 La161 2.503 . S
O185 C170 1.256 . S
O186 La161 2.521 1_545 S
O186 C171 1.261 . S
O187 La161 2.628 1_545 S
O187 C171 1.243 . S
O188 La161 2.554 . S
O188 C178 1.240 . S
O189 La160 2.482 . S
O189 La161 2.757 . S
O189 C178 1.289 . S
O190 La161 2.470 . S
O190 C179 1.258 . S
O191 La160 2.503 . S
O191 C179 1.256 . S
H192 C164 0.930 . S
H193 C165 0.930 . S
H194 C167 0.929 . S
H195 C168 0.929 . S
H196 C173 0.930 . S
H197 C174 0.930 . S
H198 C176 0.929 . S
H199 C177 0.929 . S
La200 C202 2.928 . S
La200 O220 2.521 . S
La200 O221 2.628 . S
La200 O222 2.554 . S
La200 O223 2.757 . S
La200 O224 2.470 . S
La200 O229 2.482 . S
La200 O231 2.503 . S
La201 C211 2.928 1_545 S
La201 O223 2.482 . S
La201 O225 2.503 . S
La201 O226 2.521 1_545 S
La201 O227 2.628 1_545 S
La201 O228 2.554 . S
La201 O229 2.757 . S
La201 O230 2.470 . S
C202 La200 2.928 . S
C202 C203 1.503 . S
C202 O220 1.261 . S
C202 O221 1.243 . S
C203 C202 1.503 . S
C203 C204 1.394 . S
C203 C208 1.373 . S
C204 C203 1.394 . S
C204 C205 1.380 . S
C204 H232 0.930 . S
C205 C204 1.380 . S
C205 C206 1.376 . S
C205 H233 0.930 . S
C206 C205 1.376 . S
C206 C207 1.370 . S
C207 C206 1.370 . S
C207 C208 1.396 . S
C207 H234 0.929 . S
C208 C203 1.373 . S
C208 C207 1.396 . S
C208 H235 0.929 . S
C209 O222 1.240 . S
C209 O223 1.289 . S
C210 O224 1.258 . S
C210 O225 1.256 . S
C211 La201 2.928 1_565 S
C211 C212 1.503 . S
C211 O226 1.261 . S
C211 O227 1.243 . S
C212 C211 1.503 . S
C212 C213 1.394 . S
C212 C217 1.373 . S
C213 C212 1.394 . S
C213 C214 1.380 . S
C213 H236 0.930 . S
C214 C213 1.380 . S
C214 C215 1.376 . S
C214 H237 0.930 . S
C215 C214 1.376 . S
C215 C216 1.370 . S
C216 C215 1.370 . S
C216 C217 1.396 . S
C216 H238 0.929 . S
C217 C212 1.373 . S
C217 C216 1.396 . S
C217 H239 0.929 . S
C218 O228 1.240 . S
C218 O229 1.289 . S
C219 O230 1.258 . S
C219 O231 1.256 . S
O220 La200 2.521 . S
O220 C202 1.261 . S
O221 La200 2.628 . S
O221 C202 1.243 . S
O222 La200 2.554 . S
O222 C209 1.240 . S
O223 La200 2.757 . S
O223 La201 2.482 . S
O223 C209 1.289 . S
O224 La200 2.470 . S
O224 C210 1.258 . S
O225 La201 2.503 . S
O225 C210 1.256 . S
O226 La201 2.521 1_565 S
O226 C211 1.261 . S
O227 La201 2.628 1_565 S
O227 C211 1.243 . S
O228 La201 2.554 . S
O228 C218 1.240 . S
O229 La200 2.482 . S
O229 La201 2.757 . S
O229 C218 1.289 . S
O230 La201 2.470 . S
O230 C219 1.258 . S
O231 La200 2.503 . S
O231 C219 1.256 . S
H232 C204 0.930 . S
H233 C205 0.930 . S
H234 C207 0.929 . S
H235 C208 0.929 . S
H236 C213 0.930 . S
H237 C214 0.930 . S
H238 C216 0.929 . S
H239 C217 0.929 . S
La240 C242 2.928 . S
La240 O260 2.521 . S
La240 O261 2.628 . S
La240 O262 2.554 . S
La240 O263 2.757 . S
La240 O264 2.470 . S
La240 O269 2.482 . S
La240 O271 2.503 . S
La241 C251 2.928 1_545 S
La241 O263 2.482 . S
La241 O265 2.503 . S
La241 O266 2.521 1_545 S
La241 O267 2.628 1_545 S
La241 O268 2.554 . S
La241 O269 2.757 . S
La241 O270 2.470 . S
C242 La240 2.928 . S
C242 C243 1.503 . S
C242 O260 1.261 . S
C242 O261 1.243 . S
C243 C242 1.503 . S
C243 C244 1.394 . S
C243 C248 1.373 . S
C244 C243 1.394 . S
C244 C245 1.380 . S
C244 H272 0.930 . S
C245 C244 1.380 . S
C245 C246 1.376 . S
C245 H273 0.930 . S
C246 C245 1.376 . S
C246 C247 1.370 . S
C247 C246 1.370 . S
C247 C248 1.396 . S
C247 H274 0.929 . S
C248 C243 1.373 . S
C248 C247 1.396 . S
C248 H275 0.929 . S
C249 O262 1.240 . S
C249 O263 1.289 . S
C250 O264 1.258 . S
C250 O265 1.256 . S
C251 La241 2.928 1_565 S
C251 C252 1.503 . S
C251 O266 1.261 . S
C251 O267 1.243 . S
C252 C251 1.503 . S
C252 C253 1.394 . S
C252 C257 1.373 . S
C253 C252 1.394 . S
C253 C254 1.380 . S
C253 H276 0.930 . S
C254 C253 1.380 . S
C254 C255 1.376 . S
C254 H277 0.930 . S
C255 C254 1.376 . S
C255 C256 1.370 . S
C256 C255 1.370 . S
C256 C257 1.396 . S
C256 H278 0.929 . S
C257 C252 1.373 . S
C257 C256 1.396 . S
C257 H279 0.929 . S
C258 O268 1.240 . S
C258 O269 1.289 . S
C259 O270 1.258 . S
C259 O271 1.256 . S
O260 La240 2.521 . S
O260 C242 1.261 . S
O261 La240 2.628 . S
O261 C242 1.243 . S
O262 La240 2.554 . S
O262 C249 1.240 . S
O263 La240 2.757 . S
O263 La241 2.482 . S
O263 C249 1.289 . S
O264 La240 2.470 . S
O264 C250 1.258 . S
O265 La241 2.503 . S
O265 C250 1.256 . S
O266 La241 2.521 1_565 S
O266 C251 1.261 . S
O267 La241 2.628 1_565 S
O267 C251 1.243 . S
O268 La241 2.554 . S
O268 C258 1.240 . S
O269 La240 2.482 . S
O269 La241 2.757 . S
O269 C258 1.289 . S
O270 La241 2.470 . S
O270 C259 1.258 . S
O271 La240 2.503 . S
O271 C259 1.256 . S
H272 C244 0.930 . S
H273 C245 0.930 . S
H274 C247 0.929 . S
H275 C248 0.929 . S
H276 C253 0.930 . S
H277 C254 0.930 . S
H278 C256 0.929 . S
H279 C257 0.929 . S
La280 C282 2.928 . S
La280 O300 2.521 . S
La280 O301 2.628 . S
La280 O302 2.554 . S
La280 O303 2.757 . S
La280 O304 2.470 . S
La280 O309 2.482 . S
La280 O311 2.503 . S
La281 C291 2.928 1_565 S
La281 O303 2.482 . S
La281 O305 2.503 . S
La281 O306 2.521 1_565 S
La281 O307 2.628 1_565 S
La281 O308 2.554 . S
La281 O309 2.757 . S
La281 O310 2.470 . S
C282 La280 2.928 . S
C282 C283 1.503 . S
C282 O300 1.261 . S
C282 O301 1.243 . S
C283 C282 1.503 . S
C283 C284 1.394 . S
C283 C288 1.373 . S
C284 C283 1.394 . S
C284 C285 1.380 . S
C284 H312 0.930 . S
C285 C284 1.380 . S
C285 C286 1.376 . S
C285 H313 0.930 . S
C286 C285 1.376 . S
C286 C287 1.370 . S
C287 C286 1.370 . S
C287 C288 1.396 . S
C287 H314 0.929 . S
C288 C283 1.373 . S
C288 C287 1.396 . S
C288 H315 0.929 . S
C289 O302 1.240 . S
C289 O303 1.289 . S
C290 O304 1.258 . S
C290 O305 1.256 . S
C291 La281 2.928 1_545 S
C291 C292 1.503 . S
C291 O306 1.261 . S
C291 O307 1.243 . S
C292 C291 1.503 . S
C292 C293 1.394 . S
C292 C297 1.373 . S
C293 C292 1.394 . S
C293 C294 1.380 . S
C293 H316 0.930 . S
C294 C293 1.380 . S
C294 C295 1.376 . S
C294 H317 0.930 . S
C295 C294 1.376 . S
C295 C296 1.370 . S
C296 C295 1.370 . S
C296 C297 1.396 . S
C296 H318 0.929 . S
C297 C292 1.373 . S
C297 C296 1.396 . S
C297 H319 0.929 . S
C298 O308 1.240 . S
C298 O309 1.289 . S
C299 O310 1.258 . S
C299 O311 1.256 . S
O300 La280 2.521 . S
O300 C282 1.261 . S
O301 La280 2.628 . S
O301 C282 1.243 . S
O302 La280 2.554 . S
O302 C289 1.240 . S
O303 La280 2.757 . S
O303 La281 2.482 . S
O303 C289 1.289 . S
O304 La280 2.470 . S
O304 C290 1.258 . S
O305 La281 2.503 . S
O305 C290 1.256 . S
O306 La281 2.521 1_545 S
O306 C291 1.261 . S
O307 La281 2.628 1_545 S
O307 C291 1.243 . S
O308 La281 2.554 . S
O308 C298 1.240 . S
O309 La280 2.482 . S
O309 La281 2.757 . S
O309 C298 1.289 . S
O310 La281 2.470 . S
O310 C299 1.258 . S
O311 La280 2.503 . S
O311 C299 1.256 . S
H312 C284 0.930 . S
H313 C285 0.930 . S
H314 C287 0.929 . S
H315 C288 0.929 . S
H316 C293 0.930 . S
H317 C294 0.930 . S
H318 C296 0.929 . S
H319 C297 0.929 . S
La320 C322 2.928 . S
La320 O340 2.521 . S
La320 O341 2.628 . S
La320 O342 2.554 . S
La320 O343 2.757 . S
La320 O344 2.470 . S
La320 O349 2.482 . S
La320 O351 2.503 . S
La321 C331 2.928 . S
La321 O343 2.482 . S
La321 O345 2.503 . S
La321 O346 2.521 . S
La321 O347 2.628 . S
La321 O348 2.554 . S
La321 O349 2.757 . S
La321 O350 2.470 . S
C322 La320 2.928 . S
C322 C323 1.503 . S
C322 O340 1.261 . S
C322 O341 1.243 . S
C323 C322 1.503 . S
C323 C324 1.394 . S
C323 C328 1.373 . S
C324 C323 1.394 . S
C324 C325 1.380 . S
C324 H352 0.930 . S
C325 C324 1.380 . S
C325 C326 1.376 . S
C325 H353 0.930 . S
C326 C325 1.376 . S
C326 C327 1.370 . S
C327 C326 1.370 . S
C327 C328 1.396 . S
C327 H354 0.929 . S
C328 C323 1.373 . S
C328 C327 1.396 . S
C328 H355 0.929 . S
C329 O342 1.240 . S
C329 O343 1.289 . S
C330 O344 1.258 . S
C330 O345 1.256 . S
C331 La321 2.928 . S
C331 C332 1.503 . S
C331 O346 1.261 . S
C331 O347 1.243 . S
C332 C331 1.503 . S
C332 C333 1.394 . S
C332 C337 1.373 . S
C333 C332 1.394 . S
C333 C334 1.380 . S
C333 H356 0.930 . S
C334 C333 1.380 . S
C334 C335 1.376 . S
C334 H357 0.930 . S
C335 C334 1.376 . S
C335 C336 1.370 . S
C336 C335 1.370 . S
C336 C337 1.396 . S
C336 H358 0.929 . S
C337 C332 1.373 . S
C337 C336 1.396 . S
C337 H359 0.929 . S
C338 O348 1.240 . S
C338 O349 1.289 . S
C339 O350 1.258 . S
C339 O351 1.256 . S
O340 La320 2.521 . S
O340 C322 1.261 . S
O341 La320 2.628 . S
O341 C322 1.243 . S
O342 La320 2.554 . S
O342 C329 1.240 . S
O343 La320 2.757 . S
O343 La321 2.482 . S
O343 C329 1.289 . S
O344 La320 2.470 . S
O344 C330 1.258 . S
O345 La321 2.503 . S
O345 C330 1.256 . S
O346 La321 2.521 . S
O346 C331 1.261 . S
O347 La321 2.628 . S
O347 C331 1.243 . S
O348 La321 2.554 . S
O348 C338 1.240 . S
O349 La320 2.482 . S
O349 La321 2.757 . S
O349 C338 1.289 . S
O350 La321 2.470 . S
O350 C339 1.258 . S
O351 La320 2.503 . S
O351 C339 1.256 . S
H352 C324 0.930 . S
H353 C325 0.930 . S
H354 C327 0.929 . S
H355 C328 0.929 . S
H356 C333 0.930 . S
H357 C334 0.930 . S
H358 C336 0.929 . S
H359 C337 0.929 . S
La360 C362 2.928 . S
La360 O380 2.521 . S
La360 O381 2.628 . S
La360 O382 2.554 . S
La360 O383 2.757 . S
La360 O384 2.470 . S
La360 O389 2.482 . S
La360 O391 2.503 . S
La361 C371 2.928 . S
La361 O383 2.482 . S
La361 O385 2.503 . S
La361 O386 2.521 . S
La361 O387 2.628 . S
La361 O388 2.554 . S
La361 O389 2.757 . S
La361 O390 2.470 . S
C362 La360 2.928 . S
C362 C363 1.503 . S
C362 O380 1.261 . S
C362 O381 1.243 . S
C363 C362 1.503 . S
C363 C364 1.394 . S
C363 C368 1.373 . S
C364 C363 1.394 . S
C364 C365 1.380 . S
C364 H392 0.930 . S
C365 C364 1.380 . S
C365 C366 1.376 . S
C365 H393 0.930 . S
C366 C365 1.376 . S
C366 C367 1.370 . S
C367 C366 1.370 . S
C367 C368 1.396 . S
C367 H394 0.929 . S
C368 C363 1.373 . S
C368 C367 1.396 . S
C368 H395 0.929 . S
C369 O382 1.240 . S
C369 O383 1.289 . S
C370 O384 1.258 . S
C370 O385 1.256 . S
C371 La361 2.928 . S
C371 C372 1.503 . S
C371 O386 1.261 . S
C371 O387 1.243 . S
C372 C371 1.503 . S
C372 C373 1.394 . S
C372 C377 1.373 . S
C373 C372 1.394 . S
C373 C374 1.380 . S
C373 H396 0.930 . S
C374 C373 1.380 . S
C374 C375 1.376 . S
C374 H397 0.930 . S
C375 C374 1.376 . S
C375 C376 1.370 . S
C376 C375 1.370 . S
C376 C377 1.396 . S
C376 H398 0.929 . S
C377 C372 1.373 . S
C377 C376 1.396 . S
C377 H399 0.929 . S
C378 O388 1.240 . S
C378 O389 1.289 . S
C379 O390 1.258 . S
C379 O391 1.256 . S
O380 La360 2.521 . S
O380 C362 1.261 . S
O381 La360 2.628 . S
O381 C362 1.243 . S
O382 La360 2.554 . S
O382 C369 1.240 . S
O383 La360 2.757 . S
O383 La361 2.482 . S
O383 C369 1.289 . S
O384 La360 2.470 . S
O384 C370 1.258 . S
O385 La361 2.503 . S
O385 C370 1.256 . S
O386 La361 2.521 . S
O386 C371 1.261 . S
O387 La361 2.628 . S
O387 C371 1.243 . S
O388 La361 2.554 . S
O388 C378 1.240 . S
O389 La360 2.482 . S
O389 La361 2.757 . S
O389 C378 1.289 . S
O390 La361 2.470 . S
O390 C379 1.258 . S
O391 La360 2.503 . S
O391 C379 1.256 . S
H392 C364 0.930 . S
H393 C365 0.930 . S
H394 C367 0.929 . S
H395 C368 0.929 . S
H396 C373 0.930 . S
H397 C374 0.930 . S
H398 C376 0.929 . S
H399 C377 0.929 . S
La400 C402 2.928 . S
La400 O420 2.521 . S
La400 O421 2.628 . S
La400 O422 2.554 . S
La400 O423 2.757 . S
La400 O424 2.470 . S
La400 O429 2.482 . S
La400 O431 2.503 . S
La401 C411 2.928 . S
La401 O423 2.482 . S
La401 O425 2.503 . S
La401 O426 2.521 . S
La401 O427 2.628 . S
La401 O428 2.554 . S
La401 O429 2.757 . S
La401 O430 2.470 . S
C402 La400 2.928 . S
C402 C403 1.503 . S
C402 O420 1.261 . S
C402 O421 1.243 . S
C403 C402 1.503 . S
C403 C404 1.394 . S
C403 C408 1.373 . S
C404 C403 1.394 . S
C404 C405 1.380 . S
C404 H432 0.930 . S
C405 C404 1.380 . S
C405 C406 1.376 . S
C405 H433 0.930 . S
C406 C405 1.376 . S
C406 C407 1.370 . S
C407 C406 1.370 . S
C407 C408 1.396 . S
C407 H434 0.929 . S
C408 C403 1.373 . S
C408 C407 1.396 . S
C408 H435 0.929 . S
C409 O422 1.240 . S
C409 O423 1.289 . S
C410 O424 1.258 . S
C410 O425 1.256 . S
C411 La401 2.928 . S
C411 C412 1.503 . S
C411 O426 1.261 . S
C411 O427 1.243 . S
C412 C411 1.503 . S
C412 C413 1.394 . S
C412 C417 1.373 . S
C413 C412 1.394 . S
C413 C414 1.380 . S
C413 H436 0.930 . S
C414 C413 1.380 . S
C414 C415 1.376 . S
C414 H437 0.930 . S
C415 C414 1.376 . S
C415 C416 1.370 . S
C416 C415 1.370 . S
C416 C417 1.396 . S
C416 H438 0.929 . S
C417 C412 1.373 . S
C417 C416 1.396 . S
C417 H439 0.929 . S
C418 O428 1.240 . S
C418 O429 1.289 . S
C419 O430 1.258 . S
C419 O431 1.256 . S
O420 La400 2.521 . S
O420 C402 1.261 . S
O421 La400 2.628 . S
O421 C402 1.243 . S
O422 La400 2.554 . S
O422 C409 1.240 . S
O423 La400 2.757 . S
O423 La401 2.482 . S
O423 C409 1.289 . S
O424 La400 2.470 . S
O424 C410 1.258 . S
O425 La401 2.503 . S
O425 C410 1.256 . S
O426 La401 2.521 . S
O426 C411 1.261 . S
O427 La401 2.628 . S
O427 C411 1.243 . S
O428 La401 2.554 . S
O428 C418 1.240 . S
O429 La400 2.482 . S
O429 La401 2.757 . S
O429 C418 1.289 . S
O430 La401 2.470 . S
O430 C419 1.258 . S
O431 La400 2.503 . S
O431 C419 1.256 . S
H432 C404 0.930 . S
H433 C405 0.930 . S
H434 C407 0.929 . S
H435 C408 0.929 . S
H436 C413 0.930 . S
H437 C414 0.930 . S
H438 C416 0.929 . S
H439 C417 0.929 . S
La440 C442 2.928 . S
La440 O460 2.521 . S
La440 O461 2.628 . S
La440 O462 2.554 . S
La440 O463 2.757 . S
La440 O464 2.470 . S
La440 O469 2.482 . S
La440 O471 2.503 . S
La441 C451 2.928 . S
La441 O463 2.482 . S
La441 O465 2.503 . S
La441 O466 2.521 . S
La441 O467 2.628 . S
La441 O468 2.554 . S
La441 O469 2.757 . S
La441 O470 2.470 . S
C442 La440 2.928 . S
C442 C443 1.503 . S
C442 O460 1.261 . S
C442 O461 1.243 . S
C443 C442 1.503 . S
C443 C444 1.394 . S
C443 C448 1.373 . S
C444 C443 1.394 . S
C444 C445 1.380 . S
C444 H472 0.930 . S
C445 C444 1.380 . S
C445 C446 1.376 . S
C445 H473 0.930 . S
C446 C445 1.376 . S
C446 C447 1.370 . S
C447 C446 1.370 . S
C447 C448 1.396 . S
C447 H474 0.929 . S
C448 C443 1.373 . S
C448 C447 1.396 . S
C448 H475 0.929 . S
C449 O462 1.240 . S
C449 O463 1.289 . S
C450 O464 1.258 . S
C450 O465 1.256 . S
C451 La441 2.928 . S
C451 C452 1.503 . S
C451 O466 1.261 . S
C451 O467 1.243 . S
C452 C451 1.503 . S
C452 C453 1.394 . S
C452 C457 1.373 . S
C453 C452 1.394 . S
C453 C454 1.380 . S
C453 H476 0.930 . S
C454 C453 1.380 . S
C454 C455 1.376 . S
C454 H477 0.930 . S
C455 C454 1.376 . S
C455 C456 1.370 . S
C456 C455 1.370 . S
C456 C457 1.396 . S
C456 H478 0.929 . S
C457 C452 1.373 . S
C457 C456 1.396 . S
C457 H479 0.929 . S
C458 O468 1.240 . S
C458 O469 1.289 . S
C459 O470 1.258 . S
C459 O471 1.256 . S
O460 La440 2.521 . S
O460 C442 1.261 . S
O461 La440 2.628 . S
O461 C442 1.243 . S
O462 La440 2.554 . S
O462 C449 1.240 . S
O463 La440 2.757 . S
O463 La441 2.482 . S
O463 C449 1.289 . S
O464 La440 2.470 . S
O464 C450 1.258 . S
O465 La441 2.503 . S
O465 C450 1.256 . S
O466 La441 2.521 . S
O466 C451 1.261 . S
O467 La441 2.628 . S
O467 C451 1.243 . S
O468 La441 2.554 . S
O468 C458 1.240 . S
O469 La440 2.482 . S
O469 La441 2.757 . S
O469 C458 1.289 . S
O470 La441 2.470 . S
O470 C459 1.258 . S
O471 La440 2.503 . S
O471 C459 1.256 . S
H472 C444 0.930 . S
H473 C445 0.930 . S
H474 C447 0.929 . S
H475 C448 0.929 . S
H476 C453 0.930 . S
H477 C454 0.930 . S
H478 C456 0.929 . S
H479 C457 0.929 . S
La480 C482 2.928 . S
La480 O500 2.521 . S
La480 O501 2.628 . S
La480 O502 2.554 . S
La480 O503 2.757 . S
La480 O504 2.470 . S
La480 O509 2.482 . S
La480 O511 2.503 . S
La481 C491 2.928 . S
La481 O503 2.482 . S
La481 O505 2.503 . S
La481 O506 2.521 . S
La481 O507 2.628 . S
La481 O508 2.554 . S
La481 O509 2.757 . S
La481 O510 2.470 . S
C482 La480 2.928 . S
C482 C483 1.503 . S
C482 O500 1.261 . S
C482 O501 1.243 . S
C483 C482 1.503 . S
C483 C484 1.394 . S
C483 C488 1.373 . S
C484 C483 1.394 . S
C484 C485 1.380 . S
C484 H512 0.930 . S
C485 C484 1.380 . S
C485 C486 1.376 . S
C485 H513 0.930 . S
C486 C485 1.376 . S
C486 C487 1.370 . S
C487 C486 1.370 . S
C487 C488 1.396 . S
C487 H514 0.929 . S
C488 C483 1.373 . S
C488 C487 1.396 . S
C488 H515 0.929 . S
C489 O502 1.240 . S
C489 O503 1.289 . S
C490 O504 1.258 . S
C490 O505 1.256 . S
C491 La481 2.928 . S
C491 C492 1.503 . S
C491 O506 1.261 . S
C491 O507 1.243 . S
C492 C491 1.503 . S
C492 C493 1.394 . S
C492 C497 1.373 . S
C493 C492 1.394 . S
C493 C494 1.380 . S
C493 H516 0.930 . S
C494 C493 1.380 . S
C494 C495 1.376 . S
C494 H517 0.930 . S
C495 C494 1.376 . S
C495 C496 1.370 . S
C496 C495 1.370 . S
C496 C497 1.396 . S
C496 H518 0.929 . S
C497 C492 1.373 . S
C497 C496 1.396 . S
C497 H519 0.929 . S
C498 O508 1.240 . S
C498 O509 1.289 . S
C499 O510 1.258 . S
C499 O511 1.256 . S
O500 La480 2.521 . S
O500 C482 1.261 . S
O501 La480 2.628 . S
O501 C482 1.243 . S
O502 La480 2.554 . S
O502 C489 1.240 . S
O503 La480 2.757 . S
O503 La481 2.482 . S
O503 C489 1.289 . S
O504 La480 2.470 . S
O504 C490 1.258 . S
O505 La481 2.503 . S
O505 C490 1.256 . S
O506 La481 2.521 . S
O506 C491 1.261 . S
O507 La481 2.628 . S
O507 C491 1.243 . S
O508 La481 2.554 . S
O508 C498 1.240 . S
O509 La480 2.482 . S
O509 La481 2.757 . S
O509 C498 1.289 . S
O510 La481 2.470 . S
O510 C499 1.258 . S
O511 La480 2.503 . S
O511 C499 1.256 . S
H512 C484 0.930 . S
H513 C485 0.930 . S
H514 C487 0.929 . S
H515 C488 0.929 . S
H516 C493 0.930 . S
H517 C494 0.930 . S
H518 C496 0.929 . S
H519 C497 0.929 . S
La520 C522 2.928 . S
La520 O540 2.521 . S
La520 O541 2.628 . S
La520 O542 2.554 . S
La520 O543 2.757 . S
La520 O544 2.470 . S
La520 O549 2.482 . S
La520 O551 2.503 . S
La521 C531 2.928 . S
La521 O543 2.482 . S
La521 O545 2.503 . S
La521 O546 2.521 . S
La521 O547 2.628 . S
La521 O548 2.554 . S
La521 O549 2.757 . S
La521 O550 2.470 . S
C522 La520 2.928 . S
C522 C523 1.503 . S
C522 O540 1.261 . S
C522 O541 1.243 . S
C523 C522 1.503 . S
C523 C524 1.394 . S
C523 C528 1.373 . S
C524 C523 1.394 . S
C524 C525 1.380 . S
C524 H552 0.930 . S
C525 C524 1.380 . S
C525 C526 1.376 . S
C525 H553 0.930 . S
C526 C525 1.376 . S
C526 C527 1.370 . S
C527 C526 1.370 . S
C527 C528 1.396 . S
C527 H554 0.929 . S
C528 C523 1.373 . S
C528 C527 1.396 . S
C528 H555 0.929 . S
C529 O542 1.240 . S
C529 O543 1.289 . S
C530 O544 1.258 . S
C530 O545 1.256 . S
C531 La521 2.928 . S
C531 C532 1.503 . S
C531 O546 1.261 . S
C531 O547 1.243 . S
C532 C531 1.503 . S
C532 C533 1.394 . S
C532 C537 1.373 . S
C533 C532 1.394 . S
C533 C534 1.380 . S
C533 H556 0.930 . S
C534 C533 1.380 . S
C534 C535 1.376 . S
C534 H557 0.930 . S
C535 C534 1.376 . S
C535 C536 1.370 . S
C536 C535 1.370 . S
C536 C537 1.396 . S
C536 H558 0.929 . S
C537 C532 1.373 . S
C537 C536 1.396 . S
C537 H559 0.929 . S
C538 O548 1.240 . S
C538 O549 1.289 . S
C539 O550 1.258 . S
C539 O551 1.256 . S
O540 La520 2.521 . S
O540 C522 1.261 . S
O541 La520 2.628 . S
O541 C522 1.243 . S
O542 La520 2.554 . S
O542 C529 1.240 . S
O543 La520 2.757 . S
O543 La521 2.482 . S
O543 C529 1.289 . S
O544 La520 2.470 . S
O544 C530 1.258 . S
O545 La521 2.503 . S
O545 C530 1.256 . S
O546 La521 2.521 . S
O546 C531 1.261 . S
O547 La521 2.628 . S
O547 C531 1.243 . S
O548 La521 2.554 . S
O548 C538 1.240 . S
O549 La520 2.482 . S
O549 La521 2.757 . S
O549 C538 1.289 . S
O550 La521 2.470 . S
O550 C539 1.258 . S
O551 La520 2.503 . S
O551 C539 1.256 . S
H552 C524 0.930 . S
H553 C525 0.930 . S
H554 C527 0.929 . S
H555 C528 0.929 . S
H556 C533 0.930 . S
H557 C534 0.930 . S
H558 C536 0.929 . S
H559 C537 0.929 . S
La560 C562 2.928 . S
La560 O580 2.521 . S
La560 O581 2.628 . S
La560 O582 2.554 . S
La560 O583 2.757 . S
La560 O584 2.470 . S
La560 O589 2.482 . S
La560 O591 2.503 . S
La561 C571 2.928 . S
La561 O583 2.482 . S
La561 O585 2.503 . S
La561 O586 2.521 . S
La561 O587 2.628 . S
La561 O588 2.554 . S
La561 O589 2.757 . S
La561 O590 2.470 . S
C562 La560 2.928 . S
C562 C563 1.503 . S
C562 O580 1.261 . S
C562 O581 1.243 . S
C563 C562 1.503 . S
C563 C564 1.394 . S
C563 C568 1.373 . S
C564 C563 1.394 . S
C564 C565 1.380 . S
C564 H592 0.930 . S
C565 C564 1.380 . S
C565 C566 1.376 . S
C565 H593 0.930 . S
C566 C565 1.376 . S
C566 C567 1.370 . S
C567 C566 1.370 . S
C567 C568 1.396 . S
C567 H594 0.929 . S
C568 C563 1.373 . S
C568 C567 1.396 . S
C568 H595 0.929 . S
C569 O582 1.240 . S
C569 O583 1.289 . S
C570 O584 1.258 . S
C570 O585 1.256 . S
C571 La561 2.928 . S
C571 C572 1.503 . S
C571 O586 1.261 . S
C571 O587 1.243 . S
C572 C571 1.503 . S
C572 C573 1.394 . S
C572 C577 1.373 . S
C573 C572 1.394 . S
C573 C574 1.380 . S
C573 H596 0.930 . S
C574 C573 1.380 . S
C574 C575 1.376 . S
C574 H597 0.930 . S
C575 C574 1.376 . S
C575 C576 1.370 . S
C576 C575 1.370 . S
C576 C577 1.396 . S
C576 H598 0.929 . S
C577 C572 1.373 . S
C577 C576 1.396 . S
C577 H599 0.929 . S
C578 O588 1.240 . S
C578 O589 1.289 . S
C579 O590 1.258 . S
C579 O591 1.256 . S
O580 La560 2.521 . S
O580 C562 1.261 . S
O581 La560 2.628 . S
O581 C562 1.243 . S
O582 La560 2.554 . S
O582 C569 1.240 . S
O583 La560 2.757 . S
O583 La561 2.482 . S
O583 C569 1.289 . S
O584 La560 2.470 . S
O584 C570 1.258 . S
O585 La561 2.503 . S
O585 C570 1.256 . S
O586 La561 2.521 . S
O586 C571 1.261 . S
O587 La561 2.628 . S
O587 C571 1.243 . S
O588 La561 2.554 . S
O588 C578 1.240 . S
O589 La560 2.482 . S
O589 La561 2.757 . S
O589 C578 1.289 . S
O590 La561 2.470 . S
O590 C579 1.258 . S
O591 La560 2.503 . S
O591 C579 1.256 . S
H592 C564 0.930 . S
H593 C565 0.930 . S
H594 C567 0.929 . S
H595 C568 0.929 . S
H596 C573 0.930 . S
H597 C574 0.930 . S
H598 C576 0.929 . S
H599 C577 0.929 . S
La600 C602 2.928 . S
La600 O620 2.521 . S
La600 O621 2.628 . S
La600 O622 2.554 . S
La600 O623 2.757 . S
La600 O624 2.470 . S
La600 O629 2.482 . S
La600 O631 2.503 . S
La601 C611 2.928 . S
La601 O623 2.482 . S
La601 O625 2.503 . S
La601 O626 2.521 . S
La601 O627 2.628 . S
La601 O628 2.554 . S
La601 O629 2.757 . S
La601 O630 2.470 . S
C602 La600 2.928 . S
C602 C603 1.503 . S
C602 O620 1.261 . S
C602 O621 1.243 . S
C603 C602 1.503 . S
C603 C604 1.394 . S
C603 C608 1.373 . S
C604 C603 1.394 . S
C604 C605 1.380 . S
C604 H632 0.930 . S
C605 C604 1.380 . S
C605 C606 1.376 . S
C605 H633 0.930 . S
C606 C605 1.376 . S
C606 C607 1.370 . S
C607 C606 1.370 . S
C607 C608 1.396 . S
C607 H634 0.929 . S
C608 C603 1.373 . S
C608 C607 1.396 . S
C608 H635 0.929 . S
C609 O622 1.240 . S
C609 O623 1.289 . S
C610 O624 1.258 . S
C610 O625 1.256 . S
C611 La601 2.928 . S
C611 C612 1.503 . S
C611 O626 1.261 . S
C611 O627 1.243 . S
C612 C611 1.503 . S
C612 C613 1.394 . S
C612 C617 1.373 . S
C613 C612 1.394 . S
C613 C614 1.380 . S
C613 H636 0.930 . S
C614 C613 1.380 . S
C614 C615 1.376 . S
C614 H637 0.930 . S
C615 C614 1.376 . S
C615 C616 1.370 . S
C616 C615 1.370 . S
C616 C617 1.396 . S
C616 H638 0.929 . S
C617 C612 1.373 . S
C617 C616 1.396 . S
C617 H639 0.929 . S
C618 O628 1.240 . S
C618 O629 1.289 . S
C619 O630 1.258 . S
C619 O631 1.256 . S
O620 La600 2.521 . S
O620 C602 1.261 . S
O621 La600 2.628 . S
O621 C602 1.243 . S
O622 La600 2.554 . S
O622 C609 1.240 . S
O623 La600 2.757 . S
O623 La601 2.482 . S
O623 C609 1.289 . S
O624 La600 2.470 . S
O624 C610 1.258 . S
O625 La601 2.503 . S
O625 C610 1.256 . S
O626 La601 2.521 . S
O626 C611 1.261 . S
O627 La601 2.628 . S
O627 C611 1.243 . S
O628 La601 2.554 . S
O628 C618 1.240 . S
O629 La600 2.482 . S
O629 La601 2.757 . S
O629 C618 1.289 . S
O630 La601 2.470 . S
O630 C619 1.258 . S
O631 La600 2.503 . S
O631 C619 1.256 . S
H632 C604 0.930 . S
H633 C605 0.930 . S
H634 C607 0.929 . S
H635 C608 0.929 . S
H636 C613 0.930 . S
H637 C614 0.930 . S
H638 C616 0.929 . S
H639 C617 0.929 . S
C640 C641 1.387 . S
C640 H644 0.950 . S
C640 C649 1.390 . S
C641 C640 1.387 . S
C641 C643 1.387 . S
H642 C649 0.950 . S
C643 C641 1.387 . S
C643 C645 1.390 . S
C643 H647 0.950 . S
H644 C640 0.950 . S
C645 C643 1.390 . S
C645 C646 1.387 . S
C645 H648 0.950 . S
C646 C645 1.387 . S
C646 C649 1.387 . S
H647 C643 0.950 . S
H648 C645 0.950 . S
C649 C640 1.390 . S
C649 H642 0.950 . S
C649 C646 1.387 . S
C650 C651 1.387 . S
C650 H654 0.950 . S
C650 C659 1.390 . S
C651 C650 1.387 . S
C651 C653 1.387 . S
H652 C659 0.950 . S
C653 C651 1.387 . S
C653 C655 1.390 . S
C653 H657 0.950 . S
H654 C650 0.950 . S
C655 C653 1.390 . S
C655 C656 1.387 . S
C655 H658 0.950 . S
C656 C655 1.387 . S
C656 C659 1.387 . S
H657 C653 0.950 . S
H658 C655 0.950 . S
C659 C650 1.390 . S
C659 H652 0.950 . S
C659 C656 1.387 . S
C660 C661 1.387 . S
C660 H664 0.950 . S
C660 C669 1.390 . S
C661 C660 1.387 . S
C661 C663 1.387 . S
H662 C669 0.950 . S
C663 C661 1.387 . S
C663 C665 1.390 . S
C663 H667 0.950 . S
H664 C660 0.950 . S
C665 C663 1.390 . S
C665 C666 1.387 . S
C665 H668 0.950 . S
C666 C665 1.387 . S
C666 C669 1.387 . S
H667 C663 0.950 . S
H668 C665 0.950 . S
C669 C660 1.390 . S
C669 H662 0.950 . S
C669 C666 1.387 . S
C670 C671 1.387 . S
C670 H674 0.950 . S
C670 C679 1.390 . S
C671 C670 1.387 . S
C671 C673 1.387 . S
H672 C679 0.950 . S
C673 C671 1.387 . S
C673 C675 1.390 . S
C673 H677 0.950 . S
H674 C670 0.950 . S
C675 C673 1.390 . S
C675 C676 1.387 . S
C675 H678 0.950 . S
C676 C675 1.387 . S
C676 C679 1.387 . S
H677 C673 0.950 . S
H678 C675 0.950 . S
C679 C670 1.390 . S
C679 H672 0.950 . S
C679 C676 1.387 . S
C680 C681 1.387 . S
C680 H684 0.950 . S
C680 C689 1.390 . S
C681 C680 1.387 . S
C681 C683 1.387 . S
H682 C689 0.950 . S
C683 C681 1.387 . S
C683 C685 1.390 . S
C683 H687 0.950 . S
H684 C680 0.950 . S
C685 C683 1.390 . S
C685 C686 1.387 . S
C685 H688 0.950 . S
C686 C685 1.387 . S
C686 C689 1.387 . S
H687 C683 0.950 . S
H688 C685 0.950 . S
C689 C680 1.390 . S
C689 H682 0.950 . S
C689 C686 1.387 . S
C690 C691 1.387 . S
C690 H694 0.950 . S
C690 C699 1.390 . S
C691 C690 1.387 . S
C691 C693 1.387 . S
H692 C699 0.950 . S
C693 C691 1.387 . S
C693 C695 1.390 . S
C693 H697 0.950 . S
H694 C690 0.950 . S
C695 C693 1.390 . S
C695 C696 1.387 . S
C695 H698 0.950 . S
C696 C695 1.387 . S
C696 C699 1.387 . S
H697 C693 0.950 . S
H698 C695 0.950 . S
C699 C690 1.390 . S
C699 H692 0.950 . S
C699 C696 1.387 . S
C700 C701 1.387 . S
C700 H704 0.950 . S
C700 C709 1.390 . S
C701 C700 1.387 . S
C701 C703 1.387 . S
H702 C709 0.950 . S
C703 C701 1.387 . S
C703 C705 1.390 . S
C703 H707 0.950 . S
H704 C700 0.950 . S
C705 C703 1.390 . S
C705 C706 1.387 . S
C705 H708 0.950 . S
C706 C705 1.387 . S
C706 C709 1.387 . S
H707 C703 0.950 . S
H708 C705 0.950 . S
C709 C700 1.390 . S
C709 H702 0.950 . S
C709 C706 1.387 . S
C710 C711 1.387 . S
C710 H714 0.950 . S
C710 C719 1.390 . S
C711 C710 1.387 . S
C711 C713 1.387 . S
H712 C719 0.950 . S
C713 C711 1.387 . S
C713 C715 1.390 . S
C713 H717 0.950 . S
H714 C710 0.950 . S
C715 C713 1.390 . S
C715 C716 1.387 . S
C715 H718 0.950 . S
C716 C715 1.387 . S
C716 C719 1.387 . S
H717 C713 0.950 . S
H718 C715 0.950 . S
C719 C710 1.390 . S
C719 H712 0.950 . S
C719 C716 1.387 . S
C720 C721 1.387 . S
C720 H724 0.950 . S
C720 C729 1.390 1_565 S
C721 C720 1.387 . S
C721 C723 1.387 . S
H722 C729 0.950 . S
C723 C721 1.387 . S
C723 C725 1.390 1_565 S
C723 H727 0.950 . S
H724 C720 0.950 . S
C725 C723 1.390 1_545 S
C725 C726 1.387 . S
C725 H728 0.950 . S
C726 C725 1.387 . S
C726 C729 1.387 . S
H727 C723 0.950 . S
H728 C725 0.950 . S
C729 C720 1.390 1_545 S
C729 H722 0.950 . S
C729 C726 1.387 . S
C730 C731 1.387 . S
C730 H734 0.950 . S
C730 C739 1.390 1_545 S
C731 C730 1.387 . S
C731 C733 1.387 . S
H732 C739 0.950 . S
C733 C731 1.387 . S
C733 C735 1.390 1_545 S
C733 H737 0.950 . S
H734 C730 0.950 . S
C735 C733 1.390 1_565 S
C735 C736 1.387 . S
C735 H738 0.950 . S
C736 C735 1.387 . S
C736 C739 1.387 . S
H737 C733 0.950 . S
H738 C735 0.950 . S
C739 C730 1.390 1_565 S
C739 H732 0.950 . S
C739 C736 1.387 . S
C740 C741 1.387 . S
C740 H744 0.950 . S
C740 C749 1.390 1_545 S
C741 C740 1.387 . S
C741 C743 1.387 . S
H742 C749 0.950 . S
C743 C741 1.387 . S
C743 C745 1.390 1_545 S
C743 H747 0.950 . S
H744 C740 0.950 . S
C745 C743 1.390 1_565 S
C745 C746 1.387 . S
C745 H748 0.950 . S
C746 C745 1.387 . S
C746 C749 1.387 . S
H747 C743 0.950 . S
H748 C745 0.950 . S
C749 C740 1.390 1_565 S
C749 H742 0.950 . S
C749 C746 1.387 . S
C750 C751 1.387 . S
C750 H754 0.950 . S
C750 C759 1.390 1_545 S
C751 C750 1.387 . S
C751 C753 1.387 . S
H752 C759 0.950 . S
C753 C751 1.387 . S
C753 C755 1.390 1_545 S
C753 H757 0.950 . S
H754 C750 0.950 . S
C755 C753 1.390 1_565 S
C755 C756 1.387 . S
C755 H758 0.950 . S
C756 C755 1.387 . S
C756 C759 1.387 . S
H757 C753 0.950 . S
H758 C755 0.950 . S
C759 C750 1.390 1_565 S
C759 H752 0.950 . S
C759 C756 1.387 . S
C760 C761 1.387 . S
C760 H764 0.950 . S
C760 C769 1.390 . S
C761 C760 1.387 . S
C761 C763 1.387 . S
H762 C769 0.950 . S
C763 C761 1.387 . S
C763 C765 1.390 . S
C763 H767 0.950 . S
H764 C760 0.950 . S
C765 C763 1.390 . S
C765 C766 1.387 . S
C765 H768 0.950 . S
C766 C765 1.387 . S
C766 C769 1.387 . S
H767 C763 0.950 . S
H768 C765 0.950 . S
C769 C760 1.390 . S
C769 H762 0.950 . S
C769 C766 1.387 . S
C770 C771 1.387 . S
C770 H774 0.950 . S
C770 C779 1.390 . S
C771 C770 1.387 . S
C771 C773 1.387 . S
H772 C779 0.950 . S
C773 C771 1.387 . S
C773 C775 1.390 . S
C773 H777 0.950 . S
H774 C770 0.950 . S
C775 C773 1.390 . S
C775 C776 1.387 . S
C775 H778 0.950 . S
C776 C775 1.387 . S
C776 C779 1.387 . S
H777 C773 0.950 . S
H778 C775 0.950 . S
C779 C770 1.390 . S
C779 H772 0.950 . S
C779 C776 1.387 . S
C780 C781 1.387 . S
C780 H784 0.950 . S
C780 C789 1.390 . S
C781 C780 1.387 . S
C781 C783 1.387 . S
H782 C789 0.950 . S
C783 C781 1.387 . S
C783 C785 1.390 . S
C783 H787 0.950 . S
H784 C780 0.950 . S
C785 C783 1.390 . S
C785 C786 1.387 . S
C785 H788 0.950 . S
C786 C785 1.387 . S
C786 C789 1.387 . S
H787 C783 0.950 . S
H788 C785 0.950 . S
C789 C780 1.390 . S
C789 H782 0.950 . S
C789 C786 1.387 . S
C790 C791 1.387 . S
C790 H794 0.950 . S
C790 C799 1.390 . S
C791 C790 1.387 . S
C791 C793 1.387 . S
H792 C799 0.950 . S
C793 C791 1.387 . S
C793 C795 1.390 . S
C793 H797 0.950 . S
H794 C790 0.950 . S
C795 C793 1.390 . S
C795 C796 1.387 . S
C795 H798 0.950 . S
C796 C795 1.387 . S
C796 C799 1.387 . S
H797 C793 0.950 . S
H798 C795 0.950 . S
C799 C790 1.390 . S
C799 H792 0.950 . S
C799 C796 1.387 . S
C800 C801 1.387 . S
C800 H804 0.950 . S
C800 C809 1.390 1_556 S
C801 C800 1.387 . S
C801 C803 1.387 . S
H802 C809 0.950 . S
C803 C801 1.387 . S
C803 C805 1.390 1_556 S
C803 H807 0.950 . S
H804 C800 0.950 . S
C805 C803 1.390 1_554 S
C805 C806 1.387 . S
C805 H808 0.950 . S
C806 C805 1.387 . S
C806 C809 1.387 . S
H807 C803 0.950 . S
H808 C805 0.950 . S
C809 C800 1.390 1_554 S
C809 H802 0.950 . S
C809 C806 1.387 . S
C810 C811 1.387 . S
C810 H814 0.950 . S
C810 C819 1.390 1_556 S
C811 C810 1.387 . S
C811 C813 1.387 . S
H812 C819 0.950 . S
C813 C811 1.387 . S
C813 C815 1.390 1_556 S
C813 H817 0.950 . S
H814 C810 0.950 . S
C815 C813 1.390 1_554 S
C815 C816 1.387 . S
C815 H818 0.950 . S
C816 C815 1.387 . S
C816 C819 1.387 . S
H817 C813 0.950 . S
H818 C815 0.950 . S
C819 C810 1.390 1_554 S
C819 H812 0.950 . S
C819 C816 1.387 . S
C820 C821 1.387 . S
C820 H824 0.950 . S
C820 C829 1.390 . S
C821 C820 1.387 . S
C821 C823 1.387 . S
H822 C829 0.950 . S
C823 C821 1.387 . S
C823 C825 1.390 . S
C823 H827 0.950 . S
H824 C820 0.950 . S
C825 C823 1.390 . S
C825 C826 1.387 . S
C825 H828 0.950 . S
C826 C825 1.387 . S
C826 C829 1.387 . S
H827 C823 0.950 . S
H828 C825 0.950 . S
C829 C820 1.390 . S
C829 H822 0.950 . S
C829 C826 1.387 . S
C830 C831 1.387 . S
C830 H834 0.950 . S
C830 C839 1.390 . S
C831 C830 1.387 . S
C831 C833 1.387 . S
H832 C839 0.950 . S
C833 C831 1.387 . S
C833 C835 1.390 . S
C833 H837 0.950 . S
H834 C830 0.950 . S
C835 C833 1.390 . S
C835 C836 1.387 . S
C835 H838 0.950 . S
C836 C835 1.387 . S
C836 C839 1.387 . S
H837 C833 0.950 . S
H838 C835 0.950 . S
C839 C830 1.390 . S
C839 H832 0.950 . S
C839 C836 1.387 . S
C840 C841 1.387 . S
C840 H844 0.950 . S
C840 C849 1.390 1_554 S
C841 C840 1.387 . S
C841 C843 1.387 . S
H842 C849 0.950 . S
C843 C841 1.387 . S
C843 C845 1.390 1_554 S
C843 H847 0.950 . S
H844 C840 0.950 . S
C845 C843 1.390 1_556 S
C845 C846 1.387 . S
C845 H848 0.950 . S
C846 C845 1.387 . S
C846 C849 1.387 . S
H847 C843 0.950 . S
H848 C845 0.950 . S
C849 C840 1.390 1_556 S
C849 H842 0.950 . S
C849 C846 1.387 . S
C850 C851 1.387 . S
C850 H854 0.950 . S
C850 C859 1.390 1_556 S
C851 C850 1.387 . S
C851 C853 1.387 . S
H852 C859 0.950 . S
C853 C851 1.387 . S
C853 C855 1.390 1_556 S
C853 H857 0.950 . S
H854 C850 0.950 . S
C855 C853 1.390 1_554 S
C855 C856 1.387 . S
C855 H858 0.950 . S
C856 C855 1.387 . S
C856 C859 1.387 . S
H857 C853 0.950 . S
H858 C855 0.950 . S
C859 C850 1.390 1_554 S
C859 H852 0.950 . S
C859 C856 1.387 . S
C860 C861 1.387 . S
C860 H864 0.950 . S
C860 C869 1.390 . S
C861 C860 1.387 . S
C861 C863 1.387 . S
H862 C869 0.950 . S
C863 C861 1.387 . S
C863 C865 1.390 . S
C863 H867 0.950 . S
H864 C860 0.950 . S
C865 C863 1.390 . S
C865 C866 1.387 . S
C865 H868 0.950 . S
C866 C865 1.387 . S
C866 C869 1.387 . S
H867 C863 0.950 . S
H868 C865 0.950 . S
C869 C860 1.390 . S
C869 H862 0.950 . S
C869 C866 1.387 . S
C870 C871 1.387 . S
C870 H874 0.950 . S
C870 C879 1.390 . S
C871 C870 1.387 . S
C871 C873 1.387 . S
H872 C879 0.950 . S
C873 C871 1.387 . S
C873 C875 1.390 . S
C873 H877 0.950 . S
H874 C870 0.950 . S
C875 C873 1.390 . S
C875 C876 1.387 . S
C875 H878 0.950 . S
C876 C875 1.387 . S
C876 C879 1.387 . S
H877 C873 0.950 . S
H878 C875 0.950 . S
C879 C870 1.390 . S
C879 H872 0.950 . S
C879 C876 1.387 . S
C880 C881 1.387 . S
C880 H884 0.950 . S
C880 C889 1.390 1_665 S
C881 C880 1.387 . S
C881 C883 1.387 . S
H882 C889 0.950 . S
C883 C881 1.387 . S
C883 C885 1.390 1_665 S
C883 H887 0.950 . S
H884 C880 0.950 . S
C885 C883 1.390 1_445 S
C885 C886 1.387 . S
C885 H888 0.950 . S
C886 C885 1.387 . S
C886 C889 1.387 . S
H887 C883 0.950 . S
H888 C885 0.950 . S
C889 C880 1.390 1_445 S
C889 H882 0.950 . S
C889 C886 1.387 . S
C890 C891 1.387 . S
C890 H894 0.950 . S
C890 C899 1.390 1_645 S
C891 C890 1.387 . S
C891 C893 1.387 . S
H892 C899 0.950 . S
C893 C891 1.387 . S
C893 C895 1.390 1_645 S
C893 H897 0.950 . S
H894 C890 0.950 . S
C895 C893 1.390 1_465 S
C895 C896 1.387 . S
C895 H898 0.950 . S
C896 C895 1.387 . S
C896 C899 1.387 . S
H897 C893 0.950 . S
H898 C895 0.950 . S
C899 C890 1.390 1_465 S
C899 H892 0.950 . S
C899 C896 1.387 . S
C900 C901 1.387 . S
C900 H904 0.950 . S
C900 C909 1.390 1_445 S
C901 C900 1.387 . S
C901 C903 1.387 . S
H902 C909 0.950 . S
C903 C901 1.387 . S
C903 C905 1.390 1_445 S
C903 H907 0.950 . S
H904 C900 0.950 . S
C905 C903 1.390 1_665 S
C905 C906 1.387 . S
C905 H908 0.950 . S
C906 C905 1.387 . S
C906 C909 1.387 . S
H907 C903 0.950 . S
H908 C905 0.950 . S
C909 C900 1.390 1_665 S
C909 H902 0.950 . S
C909 C906 1.387 . S
C910 C911 1.387 . S
C910 H914 0.950 . S
C910 C919 1.390 1_645 S
C911 C910 1.387 . S
C911 C913 1.387 . S
H912 C919 0.950 . S
C913 C911 1.387 . S
C913 C915 1.390 1_645 S
C913 H917 0.950 . S
H914 C910 0.950 . S
C915 C913 1.390 1_465 S
C915 C916 1.387 . S
C915 H918 0.950 . S
C916 C915 1.387 . S
C916 C919 1.387 . S
H917 C913 0.950 . S
H918 C915 0.950 . S
C919 C910 1.390 1_465 S
C919 H912 0.950 . S
C919 C916 1.387 . S
C920 C921 1.387 . S
C920 H924 0.950 . S
C920 C929 1.390 . S
C921 C920 1.387 . S
C921 C923 1.387 . S
H922 C929 0.950 . S
C923 C921 1.387 . S
C923 C925 1.390 . S
C923 H927 0.950 . S
H924 C920 0.950 . S
C925 C923 1.390 . S
C925 C926 1.387 . S
C925 H928 0.950 . S
C926 C925 1.387 . S
C926 C929 1.387 . S
H927 C923 0.950 . S
H928 C925 0.950 . S
C929 C920 1.390 . S
C929 H922 0.950 . S
C929 C926 1.387 . S
C930 C931 1.387 . S
C930 H934 0.950 . S
C930 C939 1.390 . S
C931 C930 1.387 . S
C931 C933 1.387 . S
H932 C939 0.950 . S
C933 C931 1.387 . S
C933 C935 1.390 . S
C933 H937 0.950 . S
H934 C930 0.950 . S
C935 C933 1.390 . S
C935 C936 1.387 . S
C935 H938 0.950 . S
C936 C935 1.387 . S
C936 C939 1.387 . S
H937 C933 0.950 . S
H938 C935 0.950 . S
C939 C930 1.390 . S
C939 H932 0.950 . S
C939 C936 1.387 . S
C940 C941 1.387 . S
C940 H944 0.950 . S
C940 C949 1.390 . S
C941 C940 1.387 . S
C941 C943 1.387 . S
H942 C949 0.950 . S
C943 C941 1.387 . S
C943 C945 1.390 . S
C943 H947 0.950 . S
H944 C940 0.950 . S
C945 C943 1.390 . S
C945 C946 1.387 . S
C945 H948 0.950 . S
C946 C945 1.387 . S
C946 C949 1.387 . S
H947 C943 0.950 . S
H948 C945 0.950 . S
C949 C940 1.390 . S
C949 H942 0.950 . S
C949 C946 1.387 . S
C950 C951 1.387 . S
C950 H954 0.950 . S
C950 C959 1.390 . S
C951 C950 1.387 . S
C951 C953 1.387 . S
H952 C959 0.950 . S
C953 C951 1.387 . S
C953 C955 1.390 . S
C953 H957 0.950 . S
H954 C950 0.950 . S
C955 C953 1.390 . S
C955 C956 1.387 . S
C955 H958 0.950 . S
C956 C955 1.387 . S
C956 C959 1.387 . S
H957 C953 0.950 . S
H958 C955 0.950 . S
C959 C950 1.390 . S
C959 H952 0.950 . S
C959 C956 1.387 . S
C960 C961 1.387 . S
C960 H964 0.950 . S
C960 C969 1.390 . S
C961 C960 1.387 . S
C961 C963 1.387 . S
H962 C969 0.950 . S
C963 C961 1.387 . S
C963 C965 1.390 . S
C963 H967 0.950 . S
H964 C960 0.950 . S
C965 C963 1.390 . S
C965 C966 1.387 . S
C965 H968 0.950 . S
C966 C965 1.387 . S
C966 C969 1.387 . S
H967 C963 0.950 . S
H968 C965 0.950 . S
C969 C960 1.390 . S
C969 H962 0.950 . S
C969 C966 1.387 . S
C970 C971 1.387 . S
C970 H974 0.950 . S
C970 C979 1.390 . S
C971 C970 1.387 . S
C971 C973 1.387 . S
H972 C979 0.950 . S
C973 C971 1.387 . S
C973 C975 1.390 . S
C973 H977 0.950 . S
H974 C970 0.950 . S
C975 C973 1.390 . S
C975 C976 1.387 . S
C975 H978 0.950 . S
C976 C975 1.387 . S
C976 C979 1.387 . S
H977 C973 0.950 . S
H978 C975 0.950 . S
C979 C970 1.390 . S
C979 H972 0.950 . S
C979 C976 1.387 . S
C980 C981 1.387 . S
C980 H984 0.950 . S
C980 C989 1.390 . S
C981 C980 1.387 . S
C981 C983 1.387 . S
H982 C989 0.950 . S
C983 C981 1.387 . S
C983 C985 1.390 . S
C983 H987 0.950 . S
H984 C980 0.950 . S
C985 C983 1.390 . S
C985 C986 1.387 . S
C985 H988 0.950 . S
C986 C985 1.387 . S
C986 C989 1.387 . S
H987 C983 0.950 . S
H988 C985 0.950 . S
C989 C980 1.390 . S
C989 H982 0.950 . S
C989 C986 1.387 . S
C990 C991 1.387 . S
C990 H994 0.950 . S
C990 C999 1.390 . S
C991 C990 1.387 . S
C991 C993 1.387 . S
H992 C999 0.950 . S
C993 C991 1.387 . S
C993 C995 1.390 . S
C993 H997 0.950 . S
H994 C990 0.950 . S
C995 C993 1.390 . S
C995 C996 1.387 . S
C995 H998 0.950 . S
C996 C995 1.387 . S
C996 C999 1.387 . S
H997 C993 0.950 . S
H998 C995 0.950 . S
C999 C990 1.390 . S
C999 H992 0.950 . S
C999 C996 1.387 . S
C1000 C1001 1.387 . S
C1000 H1004 0.950 . S
C1000 C1009 1.390 . S
C1001 C1000 1.387 . S
C1001 C1003 1.387 . S
H1002 C1009 0.950 . S
C1003 C1001 1.387 . S
C1003 C1005 1.390 . S
C1003 H1007 0.950 . S
H1004 C1000 0.950 . S
C1005 C1003 1.390 . S
C1005 C1006 1.387 . S
C1005 H1008 0.950 . S
C1006 C1005 1.387 . S
C1006 C1009 1.387 . S
H1007 C1003 0.950 . S
H1008 C1005 0.950 . S
C1009 C1000 1.390 . S
C1009 H1002 0.950 . S
C1009 C1006 1.387 . S
C1010 C1011 1.387 . S
C1010 H1014 0.950 . S
C1010 C1019 1.390 . S
C1011 C1010 1.387 . S
C1011 C1013 1.387 . S
H1012 C1019 0.950 . S
C1013 C1011 1.387 . S
C1013 C1015 1.390 . S
C1013 H1017 0.950 . S
H1014 C1010 0.950 . S
C1015 C1013 1.390 . S
C1015 C1016 1.387 . S
C1015 H1018 0.950 . S
C1016 C1015 1.387 . S
C1016 C1019 1.387 . S
H1017 C1013 0.950 . S
H1018 C1015 0.950 . S
C1019 C1010 1.390 . S
C1019 H1012 0.950 . S
C1019 C1016 1.387 . S
C1020 C1021 1.387 . S
C1020 H1024 0.950 . S
C1020 C1029 1.390 . S
C1021 C1020 1.387 . S
C1021 C1023 1.387 . S
H1022 C1029 0.950 . S
C1023 C1021 1.387 . S
C1023 C1025 1.390 . S
C1023 H1027 0.950 . S
H1024 C1020 0.950 . S
C1025 C1023 1.390 . S
C1025 C1026 1.387 . S
C1025 H1028 0.950 . S
C1026 C1025 1.387 . S
C1026 C1029 1.387 . S
H1027 C1023 0.950 . S
H1028 C1025 0.950 . S
C1029 C1020 1.390 . S
C1029 H1022 0.950 . S
C1029 C1026 1.387 . S
C1030 C1031 1.387 . S
C1030 H1034 0.950 . S
C1030 C1039 1.390 . S
C1031 C1030 1.387 . S
C1031 C1033 1.387 . S
H1032 C1039 0.950 . S
C1033 C1031 1.387 . S
C1033 C1035 1.390 . S
C1033 H1037 0.950 . S
H1034 C1030 0.950 . S
C1035 C1033 1.390 . S
C1035 C1036 1.387 . S
C1035 H1038 0.950 . S
C1036 C1035 1.387 . S
C1036 C1039 1.387 . S
H1037 C1033 0.950 . S
H1038 C1035 0.950 . S
C1039 C1030 1.390 . S
C1039 H1032 0.950 . S
C1039 C1036 1.387 . S
C1040 C1041 1.387 . S
C1040 H1044 0.950 . S
C1040 C1049 1.390 . S
C1041 C1040 1.387 . S
C1041 C1043 1.387 . S
H1042 C1049 0.950 . S
C1043 C1041 1.387 . S
C1043 C1045 1.390 . S
C1043 H1047 0.950 . S
H1044 C1040 0.950 . S
C1045 C1043 1.390 . S
C1045 C1046 1.387 . S
C1045 H1048 0.950 . S
C1046 C1045 1.387 . S
C1046 C1049 1.387 . S
H1047 C1043 0.950 . S
H1048 C1045 0.950 . S
C1049 C1040 1.390 . S
C1049 H1042 0.950 . S
C1049 C1046 1.387 . S
C1050 C1051 1.387 . S
C1050 H1054 0.950 . S
C1050 C1059 1.390 . S
C1051 C1050 1.387 . S
C1051 C1053 1.387 . S
H1052 C1059 0.950 . S
C1053 C1051 1.387 . S
C1053 C1055 1.390 . S
C1053 H1057 0.950 . S
H1054 C1050 0.950 . S
C1055 C1053 1.390 . S
C1055 C1056 1.387 . S
C1055 H1058 0.950 . S
C1056 C1055 1.387 . S
C1056 C1059 1.387 . S
H1057 C1053 0.950 . S
H1058 C1055 0.950 . S
C1059 C1050 1.390 . S
C1059 H1052 0.950 . S
C1059 C1056 1.387 . S
C1060 C1061 1.387 . S
C1060 H1064 0.950 . S
C1060 C1069 1.390 . S
C1061 C1060 1.387 . S
C1061 C1063 1.387 . S
H1062 C1069 0.950 . S
C1063 C1061 1.387 . S
C1063 C1065 1.390 . S
C1063 H1067 0.950 . S
H1064 C1060 0.950 . S
C1065 C1063 1.390 . S
C1065 C1066 1.387 . S
C1065 H1068 0.950 . S
C1066 C1065 1.387 . S
C1066 C1069 1.387 . S
H1067 C1063 0.950 . S
H1068 C1065 0.950 . S
C1069 C1060 1.390 . S
C1069 H1062 0.950 . S
C1069 C1066 1.387 . S
C1070 C1071 1.387 . S
C1070 H1074 0.950 . S
C1070 C1079 1.390 . S
C1071 C1070 1.387 . S
C1071 C1073 1.387 . S
H1072 C1079 0.950 . S
C1073 C1071 1.387 . S
C1073 C1075 1.390 . S
C1073 H1077 0.950 . S
H1074 C1070 0.950 . S
C1075 C1073 1.390 . S
C1075 C1076 1.387 . S
C1075 H1078 0.950 . S
C1076 C1075 1.387 . S
C1076 C1079 1.387 . S
H1077 C1073 0.950 . S
H1078 C1075 0.950 . S
C1079 C1070 1.390 . S
C1079 H1072 0.950 . S
C1079 C1076 1.387 . S
C1080 C1081 1.387 . S
C1080 H1084 0.950 . S
C1080 C1089 1.390 . S
C1081 C1080 1.387 . S
C1081 C1083 1.387 . S
H1082 C1089 0.950 . S
C1083 C1081 1.387 . S
C1083 C1085 1.390 . S
C1083 H1087 0.950 . S
H1084 C1080 0.950 . S
C1085 C1083 1.390 . S
C1085 C1086 1.387 . S
C1085 H1088 0.950 . S
C1086 C1085 1.387 . S
C1086 C1089 1.387 . S
H1087 C1083 0.950 . S
H1088 C1085 0.950 . S
C1089 C1080 1.390 . S
C1089 H1082 0.950 . S
C1089 C1086 1.387 . S
C1090 C1091 1.387 . S
C1090 H1094 0.950 . S
C1090 C1099 1.390 . S
C1091 C1090 1.387 . S
C1091 C1093 1.387 . S
H1092 C1099 0.950 . S
C1093 C1091 1.387 . S
C1093 C1095 1.390 . S
C1093 H1097 0.950 . S
H1094 C1090 0.950 . S
C1095 C1093 1.390 . S
C1095 C1096 1.387 . S
C1095 H1098 0.950 . S
C1096 C1095 1.387 . S
C1096 C1099 1.387 . S
H1097 C1093 0.950 . S
H1098 C1095 0.950 . S
C1099 C1090 1.390 . S
C1099 H1092 0.950 . S
C1099 C1096 1.387 . S
C1100 C1101 1.387 . S
C1100 H1104 0.950 . S
C1100 C1109 1.390 . S
C1101 C1100 1.387 . S
C1101 C1103 1.387 . S
H1102 C1109 0.950 . S
C1103 C1101 1.387 . S
C1103 C1105 1.390 . S
C1103 H1107 0.950 . S
H1104 C1100 0.950 . S
C1105 C1103 1.390 . S
C1105 C1106 1.387 . S
C1105 H1108 0.950 . S
C1106 C1105 1.387 . S
C1106 C1109 1.387 . S
H1107 C1103 0.950 . S
H1108 C1105 0.950 . S
C1109 C1100 1.390 . S
C1109 H1102 0.950 . S
C1109 C1106 1.387 . S
C1110 C1111 1.387 . S
C1110 H1114 0.950 . S
C1110 C1119 1.390 . S
C1111 C1110 1.387 . S
C1111 C1113 1.387 . S
H1112 C1119 0.950 . S
C1113 C1111 1.387 . S
C1113 C1115 1.390 . S
C1113 H1117 0.950 . S
H1114 C1110 0.950 . S
C1115 C1113 1.390 . S
C1115 C1116 1.387 . S
C1115 H1118 0.950 . S
C1116 C1115 1.387 . S
C1116 C1119 1.387 . S
H1117 C1113 0.950 . S
H1118 C1115 0.950 . S
C1119 C1110 1.390 . S
C1119 H1112 0.950 . S
C1119 C1116 1.387 . S
C641 C19 1.622 . S
C646 C379 1.622 . S
C651 C59 1.622 . S
C656 C339 1.622 . S
C661 C459 1.623 . S
C666 C99 1.623 . S
C671 C139 1.623 . S
C676 C419 1.623 . S
C681 C530 1.622 . S
C686 C170 1.622 . S
C691 C490 1.622 . S
C696 C210 1.622 . S
C701 C610 1.623 . S
C706 C250 1.623 . S
C711 C290 1.622 . S
C716 C570 1.622 . S
C721 C98 1.791 . S
C726 C18 1.791 . S
C731 C138 1.791 . S
C736 C58 1.791 . S
C741 C249 1.791 . S
C746 C169 1.791 . S
C751 C209 1.790 . S
C756 C289 1.790 . S
C761 C418 1.790 . S
C766 C338 1.790 . S
C771 C458 1.791 . S
C776 C378 1.791 . S
C781 C489 1.790 . S
C786 C569 1.790 . S
C791 C529 1.791 . S
C796 C609 1.791 . S
C801 C218 1.516 . S
C806 C9 1.513 . S
C811 C178 1.513 . S
C816 C49 1.516 . S
C821 C89 1.515 . S
C826 C298 1.514 . S
C831 C258 1.514 . S
C836 C129 1.516 . S
C841 C329 1.514 . S
C846 C538 1.516 . S
C851 C498 1.513 . S
C856 C369 1.516 . S
C861 C409 1.516 . S
C866 C618 1.514 . S
C871 C578 1.513 . S
C876 C449 1.516 . S
C881 C50 1.621 . S
C886 C10 1.621 . S
C891 C130 1.624 . S
C896 C90 1.624 . S
C901 C219 1.624 . S
C906 C179 1.624 . S
C911 C259 1.621 . S
C916 C299 1.621 . S
C921 C370 1.621 . S
C926 C330 1.621 . S
C931 C450 1.624 . S
C936 C410 1.624 . S
C941 C499 1.624 . S
C946 C539 1.624 . S
C951 C579 1.624 . S
C956 C619 1.624 . S
C961 C6 1.503 . S
C966 C15 1.503 . S
C971 C46 1.502 . S
C976 C55 1.502 . S
C981 C86 1.501 . S
C986 C95 1.501 . S
C991 C135 1.503 . S
C996 C126 1.503 . S
C1001 C175 1.502 . S
C1006 C166 1.502 . S
C1011 C206 1.503 . S
C1016 C215 1.503 . S
C1021 C255 1.503 . S
C1026 C246 1.503 . S
C1031 C295 1.501 . S
C1036 C286 1.501 . S
C1041 C335 1.501 1_545 S
C1046 C326 1.501 . S
C1051 C366 1.503 . S
C1056 C375 1.503 1_565 S
C1061 C415 1.501 1_565 S
C1066 C406 1.501 . S
C1071 C455 1.501 1_545 S
C1076 C446 1.501 . S
C1081 C495 1.503 . S
C1086 C486 1.503 1_565 S
C1091 C535 1.503 . S
C1096 C526 1.503 1_545 S
C1101 C566 1.503 1_545 S
C1106 C575 1.503 . S
C1111 C615 1.502 . S
C1116 C606 1.502 1_565 S
