# Generated by pormake.
# Topology afw, (4)-cn, num edge types: 1
# Building blocks:
#     Node 0, Type 0, BuildingBlock: TATPOV_clean_sbu_0, # of connection points: 4
#     Node 1, Type 0, BuildingBlock: TATPOV_clean_sbu_0, # of connection points: 4
#     Node 2, Type 0, BuildingBlock: TATPOV_clean_sbu_0, # of connection points: 4
#     Node 3, Type 0, BuildingBlock: TATPOV_clean_sbu_0, # of connection points: 4
#     Node 4, Type 0, BuildingBlock: TATPOV_clean_sbu_0, # of connection points: 4
#     Node 5, Type 0, BuildingBlock: TATPOV_clean_sbu_0, # of connection points: 4
#     Node 6, Type 0, BuildingBlock: TATPOV_clean_sbu_0, # of connection points: 4
#     Node 7, Type 0, BuildingBlock: TATPOV_clean_sbu_0, # of connection points: 4
#     Node 8, Type 0, BuildingBlock: TATPOV_clean_sbu_0, # of connection points: 4
#     Edge 9, Type (0, 0), BuildingBlock: KIFKEQ_clean_linker_1, # of connection points: 2
#     Edge 10, Type (0, 0), BuildingBlock: KIFKEQ_clean_linker_1, # of connection points: 2
#     Edge 11, Type (0, 0), BuildingBlock: KIFKEQ_clean_linker_1, # of connection points: 2
#     Edge 12, Type (0, 0), BuildingBlock: KIFKEQ_clean_linker_1, # of connection points: 2
#     Edge 13, Type (0, 0), BuildingBlock: KIFKEQ_clean_linker_1, # of connection points: 2
#     Edge 14, Type (0, 0), BuildingBlock: KIFKEQ_clean_linker_1, # of connection points: 2
#     Edge 15, Type (0, 0), BuildingBlock: KIFKEQ_clean_linker_1, # of connection points: 2
#     Edge 16, Type (0, 0), BuildingBlock: KIFKEQ_clean_linker_1, # of connection points: 2
#     Edge 17, Type (0, 0), BuildingBlock: KIFKEQ_clean_linker_1, # of connection points: 2
#     Edge 18, Type (0, 0), BuildingBlock: KIFKEQ_clean_linker_1, # of connection points: 2
#     Edge 19, Type (0, 0), BuildingBlock: KIFKEQ_clean_linker_1, # of connection points: 2
#     Edge 20, Type (0, 0), BuildingBlock: KIFKEQ_clean_linker_1, # of connection points: 2
#     Edge 21, Type (0, 0), BuildingBlock: KIFKEQ_clean_linker_1, # of connection points: 2
#     Edge 22, Type (0, 0), BuildingBlock: KIFKEQ_clean_linker_1, # of connection points: 2
#     Edge 23, Type (0, 0), BuildingBlock: KIFKEQ_clean_linker_1, # of connection points: 2
#     Edge 24, Type (0, 0), BuildingBlock: KIFKEQ_clean_linker_1, # of connection points: 2
#     Edge 25, Type (0, 0), BuildingBlock: KIFKEQ_clean_linker_1, # of connection points: 2
#     Edge 26, Type (0, 0), BuildingBlock: KIFKEQ_clean_linker_1, # of connection points: 2
# Relax obj value: 0.192
# Max RMSD: 0.220
# Mean RMSD: 0.215
data_MOF--net-afw--node1-TATPOV_clean_sbu_0--edge1-KIFKEQ_clean_linker_1
_symmetry_space_group_name_H-M    P1
_symmetry_Int_Tables_number       1
_symmetry_cell_setting            triclinic
loop_
_symmetry_equiv_pos_as_xyz
'x, y, z'
_cell_length_a     42.568744
_cell_length_b     40.918666
_cell_length_c     36.891081
_cell_angle_alpha  89.798446
_cell_angle_beta   89.547459
_cell_angle_gamma 120.03229
loop_
_atom_site_label
_atom_site_type_symbol
_atom_site_fract_x
_atom_site_fract_y
_atom_site_fract_z
_atom_type_partial_charge
Zn0 Zn 0.0094 0.20502 0.06594 0.0
Zn1 Zn 0.01952 0.2416 0.00443 0.0
O2 O 0.06665 0.23841 0.0089 0.0
O3 O 0.05695 0.20722 0.06037 0.0
O4 O 0.02696 0.27167 0.95763 0.0
O5 O 0.00734 0.24405 0.09518 0.0
O6 O 0.01203 0.27405 0.044 0.0
C7 C 0.07698 0.22357 0.03307 0.0
C8 C 0.95526 0.16045 0.01485 0.0
O9 O 0.97458 0.18893 -0.00567 0.0
O10 O 0.9636 0.16083 0.04775 0.0
C11 C 0.04638 0.27092 0.93157 0.0
O12 O 0.06126 0.24963 0.93464 0.0
C13 C 0.0085 0.27166 0.07855 0.0
Zn14 Zn 0.83517 0.84325 0.89968 0.0
Zn15 Zn 0.80034 0.81361 0.9633 0.0
O16 O 0.8486 0.81413 0.96916 0.0
O17 O 0.87765 0.83929 0.91784 0.0
O18 O 0.7712 0.78534 0.00813 0.0
O19 O 0.79648 0.80099 0.871 0.0
O20 O 0.76674 0.77991 0.92272 0.0
C21 C 0.8767 0.82568 0.94899 0.0
C22 C 0.82108 0.89436 0.94205 0.0
O23 O 0.8084 0.86761 0.96546 0.0
O24 O 0.83228 0.89009 0.91145 0.0
C25 C 0.76507 0.79789 0.03727 0.0
O26 O 0.77901 0.83445 0.04124 0.0
C27 C 0.76857 0.77721 0.88844 0.0
Zn28 Zn 0.16092 0.01713 0.10185 0.0
Zn29 Zn 0.19621 0.00916 0.0458 0.0
O30 O 0.14467 0.96371 0.04039 0.0
O31 O 0.11484 0.97185 0.08513 0.0
O32 O 0.22401 0.00385 0.00384 0.0
O33 O 0.19222 0.0105 0.13739 0.0
O34 O 0.22413 0.00791 0.09138 0.0
C35 C 0.11519 0.95322 0.05796 0.0
C36 C 0.19062 0.08055 0.05308 0.0
O37 O 0.19893 0.05987 0.03433 0.0
O38 O 0.17544 0.06945 0.08383 0.0
C39 C 0.21259 0.00107 0.97159 0.0
O40 O 0.18224 0.00128 0.96601 0.0
C41 C 0.21883 0.00792 0.12552 0.0
Zn42 Zn 0.62602 0.53041 0.24431 0.0
Zn43 Zn 0.63089 0.56544 0.3037 0.0
O44 O 0.58619 0.51139 0.31044 0.0
O45 O 0.58168 0.48205 0.25938 0.0
O46 O 0.62559 0.59165 0.34766 0.0
O47 O 0.62285 0.5674 0.2115 0.0
O48 O 0.63712 0.60208 0.26053 0.0
C49 C 0.57046 0.48161 0.29131 0.0
C50 C 0.69153 0.55152 0.28676 0.0
O51 O 0.67712 0.56258 0.31052 0.0
O52 O 0.67596 0.53862 0.25675 0.0
C53 C 0.62415 0.57819 0.37914 0.0
O54 O 0.6287 0.54884 0.38252 0.0
C55 C 0.63224 0.59874 0.22628 0.0
Zn56 Zn 0.48883 0.17395 0.30466 0.0
Zn57 Zn 0.45871 0.14067 0.36619 0.0
O58 O 0.50931 0.14401 0.366 0.0
O59 O 0.5327 0.17017 0.31304 0.0
O60 O 0.43496 0.1103 0.41244 0.0
O61 O 0.45033 0.13498 0.27484 0.0
O62 O 0.42293 0.10654 0.3258 0.0
C63 C 0.53494 0.15579 0.34257 0.0
C64 C 0.47338 0.22088 0.34994 0.0
O65 O 0.46167 0.1931 0.3722 0.0
O66 O 0.48618 0.21941 0.31934 0.0
C67 C 0.45393 0.11257 0.43987 0.0
O68 O 0.48888 0.13709 0.43914 0.0
C69 C 0.42385 0.10792 0.29115 0.0
Zn70 Zn 0.80939 0.34308 0.2555 0.0
Zn71 Zn 0.85219 0.36543 0.31193 0.0
O72 O 0.84035 0.40848 0.30898 0.0
O73 O 0.80236 0.38767 0.26329 0.0
O74 O 0.88408 0.37679 0.35555 0.0
O75 O 0.84836 0.34882 0.22186 0.0
O76 O 0.88414 0.36426 0.26908 0.0
C77 C 0.81904 0.41217 0.28742 0.0
C78 C 0.78106 0.28877 0.31177 0.0
O79 O 0.80782 0.31509 0.3283 0.0
O80 O 0.77615 0.29252 0.27861 0.0
C81 C 0.89071 0.3511 0.36561 0.0
O82 O 0.87801 0.32014 0.34638 0.0
C83 C 0.87894 0.35802 0.23511 0.0
Zn84 Zn 0.30671 0.83303 0.7639 0.0
Zn85 Zn 0.32263 0.87641 0.70694 0.0
O86 O 0.36702 0.86812 0.71128 0.0
O87 O 0.35198 0.83034 0.75874 0.0
O88 O 0.3359 0.91291 0.664 0.0
O89 O 0.3057 0.86975 0.79754 0.0
O90 O 0.31364 0.90522 0.74951 0.0
C91 C 0.37394 0.84837 0.73317 0.0
C92 C 0.25555 0.79679 0.70788 0.0
O93 O 0.27744 0.82677 0.69036 0.0
O94 O 0.26086 0.79341 0.74103 0.0
C95 C 0.35625 0.91359 0.63816 0.0
O96 O 0.36792 0.88934 0.6386 0.0
C97 C 0.30838 0.89931 0.78368 0.0
Zn98 Zn 0.14472 0.48532 0.56891 0.0
Zn99 Zn 0.11159 0.4545 0.63265 0.0
O100 O 0.15886 0.4518 0.63066 0.0
O101 O 0.18605 0.47628 0.57849 0.0
O102 O 0.08962 0.42756 0.68073 0.0
O103 O 0.10164 0.44671 0.54228 0.0
O104 O 0.07191 0.42497 0.59407 0.0
C105 C 0.1853 0.46113 0.60865 0.0
C106 C 0.13642 0.53712 0.61682 0.0
O107 O 0.12254 0.50914 0.63884 0.0
O108 O 0.14696 0.53374 0.58553 0.0
C109 C 0.11064 0.4366 0.70783 0.0
O110 O 0.14422 0.46447 0.7041 0.0
C111 C 0.07282 0.42461 0.55947 0.0
Zn112 Zn 0.47774 0.62943 0.74042 0.0
Zn113 Zn 0.50885 0.64224 0.67468 0.0
O114 O 0.45954 0.59344 0.6693 0.0
O115 O 0.43374 0.58206 0.72334 0.0
O116 O 0.53464 0.64546 0.62749 0.0
O117 O 0.51797 0.62647 0.76491 0.0
O118 O 0.54577 0.64425 0.71197 0.0
C119 C 0.43282 0.57313 0.6904 0.0
C120 C 0.49237 0.70027 0.70411 0.0
O121 O 0.50263 0.68872 0.67693 0.0
O122 O 0.48211 0.68108 0.7333 0.0
C123 C 0.5203 0.64093 0.59647 0.0
O124 O 0.48736 0.63583 0.59412 0.0
C125 C 0.54604 0.63678 0.74553 0.0
H126 H 0.16091 0.08815 -0.00866 0.0
H127 H 0.22647 0.15052 0.08199 0.0
H128 H 0.14778 0.13849 0.97867 0.0
H129 H 0.21596 0.20254 0.06788 0.0
H130 H 0.11923 0.22278 0.08662 0.0
H131 H 0.16247 0.20131 0.08265 0.0
H132 H 0.15456 0.19848 0.96568 0.0
H133 H 0.10973 0.21926 0.97017 0.0
C134 C 0.17409 0.11366 0.0073 0.0
C135 C 0.19413 0.11544 0.03792 0.0
C136 C 0.16673 0.14273 0.0 0.0
C137 C 0.17985 0.17423 0.02299 0.0
C138 C 0.20432 0.17812 0.05041 0.0
C139 C 0.21068 0.14857 0.05835 0.0
C140 C 0.12749 0.21864 0.05996 0.0
C141 C 0.11059 0.22187 0.02879 0.0
C142 C 0.15274 0.20662 0.05754 0.0
C143 C 0.16179 0.19744 0.02379 0.0
C144 C 0.14771 0.20458 -0.00783 0.0
C145 C 0.1223 0.2168 -0.00534 0.0
H146 H 0.82975 0.95104 0.89641 0.0
H147 H 0.82876 0.92388 0.00974 0.0
H148 H 0.85274 0.01702 0.91161 0.0
H149 H 0.85354 0.98986 0.02493 0.0
H150 H 0.94992 0.1318 0.94705 0.0
H151 H 0.90864 0.06732 0.92824 0.0
H152 H 0.85112 0.04484 0.03077 0.0
H153 H 0.89394 0.10871 0.05013 0.0
C154 C 0.83399 0.95913 0.92466 0.0
C155 C 0.82776 0.93234 0.95186 0.0
C156 C 0.84753 -0.00294 0.93338 0.0
C157 C 0.8558 0.00923 0.96946 0.0
C158 C 0.84724 0.98182 -0.00314 0.0
C159 C 0.83308 0.9438 0.98817 0.0
C160 C 0.92791 0.11328 0.96515 0.0
C161 C 0.9254 0.12504 0.00017 0.0
C162 C 0.90404 0.0762 0.95438 0.0
C163 C 0.87672 0.05032 0.97822 0.0
C164 C 0.87241 0.06342 0.01207 0.0
C165 C 0.89673 0.10017 0.02307 0.0
H166 H 0.88698 0.80314 0.01587 0.0
H167 H 0.94259 0.85482 0.91512 0.0
H168 H 0.94505 0.82094 0.04382 0.0
H169 H 0.0003 0.87388 0.94325 0.0
H170 H 0.10347 0.90966 -0.00247 0.0
H171 H 0.0449 0.86457 0.97183 0.0
H172 H -0.00964 0.88126 0.0632 0.0
H173 H 0.04834 0.92477 0.08927 0.0
C174 C 0.91146 0.81762 -0.00052 0.0
C175 C 0.91021 0.82837 0.96354 0.0
C176 C 0.94479 0.82803 0.01555 0.0
C177 C -0.02251 0.84967 -0.00391 0.0
C178 C -0.02418 0.85715 0.95915 0.0
C179 C 0.94256 0.84646 0.94304 0.0
C180 C 0.07893 0.90296 0.01248 0.0
C181 C 0.08055 0.92137 0.04509 0.0
C182 C 0.04535 0.87722 -0.00231 0.0
C183 C 0.01281 0.8696 0.01514 0.0
C184 C 0.01469 0.88598 0.04907 0.0
C185 C 0.04811 0.91142 0.0639 0.0
H186 H 0.79555 0.43994 0.23429 0.0
H187 H 0.82736 0.45667 0.34662 0.0
H188 H 0.77631 0.48611 0.2392 0.0
H189 H 0.80823 0.5041 0.3516 0.0
H190 H 0.7057 0.52371 0.34776 0.0
H191 H 0.74836 0.50027 0.35151 0.0
H192 H 0.79353 0.55092 0.24705 0.0
H193 H 0.74962 0.57238 0.24267 0.0
C194 C 0.79903 0.45407 0.25998 0.0
C195 C 0.81258 0.44436 0.29018 0.0
C196 C 0.78838 0.48101 0.26271 0.0
C197 C 0.79087 0.49906 0.29579 0.0
C198 C 0.80591 0.49061 0.32578 0.0
C199 C 0.81697 0.46363 0.3229 0.0
C200 C 0.72572 0.53098 0.32632 0.0
C201 C 0.72416 0.54922 0.29468 0.0
C202 C 0.75021 0.51762 0.32845 0.0
C203 C 0.77367 0.52285 0.2991 0.0
C204 C 0.7751 0.5455 0.26965 0.0
C205 C 0.75018 0.55804 0.2672 0.0
H206 H 0.42698 0.24215 0.3247 0.0
H207 H 0.52178 0.27924 0.3906 0.0
H208 H 0.44013 0.30728 0.31845 0.0
H209 H 0.53581 0.3446 0.38371 0.0
H210 H 0.55856 0.46181 0.36339 0.0
H211 H 0.52434 0.3977 0.38848 0.0
H212 H 0.48817 0.35453 0.28089 0.0
H213 H 0.52185 0.41808 0.25614 0.0
C214 C 0.4497 0.26416 0.33926 0.0
C215 C 0.47314 0.25581 0.35849 0.0
C216 C 0.45756 0.30152 0.33529 0.0
C217 C 0.48944 0.33132 0.34993 0.0
C218 C 0.51089 0.32244 0.37225 0.0
C219 C 0.50283 0.28496 0.3764 0.0
C220 C 0.54232 0.43871 0.34532 0.0
C221 C 0.54319 0.44498 0.3077 0.0
C222 C 0.52295 0.40194 0.35967 0.0
C223 C 0.50371 0.37084 0.33674 0.0
C224 C 0.50229 0.37768 0.29954 0.0
C225 C 0.52185 0.41422 0.28521 0.0
H226 H 0.57503 0.14377 0.29363 0.0
H227 H 0.57133 0.16795 0.40678 0.0
H228 H 0.63815 0.16264 0.29839 0.0
H229 H 0.63541 0.18616 0.41237 0.0
H230 H 0.74685 0.29066 0.37312 0.0
H231 H 0.68647 0.24231 0.39237 0.0
H232 H 0.69075 0.16465 0.31586 0.0
H233 H 0.74999 0.21459 0.2946 0.0
C234 C 0.58761 0.15184 0.32 0.0
C235 C 0.56872 0.15539 0.34957 0.0
C236 C 0.62398 0.16237 0.32297 0.0
C237 C 0.64251 0.1769 0.35568 0.0
C238 C 0.62228 0.176 0.38653 0.0
C239 C 0.58552 0.16527 0.38349 0.0
C240 C 0.7353 0.26279 0.36141 0.0
C241 C 0.75236 0.25641 0.33185 0.0
C242 C 0.70064 0.23481 0.37257 0.0
C243 C 0.68293 0.19982 0.35469 0.0
C244 C 0.70287 0.19175 0.32918 0.0
C245 C 0.73692 0.22016 0.31715 0.0
H246 H 0.40537 0.82543 0.78283 0.0
H247 H 0.41188 0.85627 0.66983 0.0
H248 H 0.44493 0.80019 0.77155 0.0
H249 H 0.45315 0.83186 0.65839 0.0
H250 H 0.46276 0.72165 0.65025 0.0
H251 H 0.44502 0.76982 0.65456 0.0
H252 H 0.5006 0.806 0.75689 0.0
H253 H 0.51588 0.75612 0.75347 0.0
C254 C 0.41621 0.82783 0.75565 0.0
C255 C 0.40505 0.84233 0.72714 0.0
C256 C 0.43933 0.81359 0.74914 0.0
C257 C 0.45219 0.81359 0.7139 0.0
C258 C 0.44332 0.83085 0.68576 0.0
C259 C 0.41999 0.84521 0.69235 0.0
C260 C 0.47187 0.74062 0.67314 0.0
C261 C 0.49007 0.73493 0.70184 0.0
C262 C 0.4619 0.7684 0.6756 0.0
C263 C 0.47058 0.79133 0.70656 0.0
C264 C 0.49236 0.7881 0.73324 0.0
C265 C 0.50139 0.75974 0.73123 0.0
H266 H 0.2572 0.77516 0.63844 0.0
H267 H 0.19123 0.74181 0.73578 0.0
H268 H 0.22023 0.71199 0.61432 0.0
H269 H 0.15284 0.67908 0.71104 0.0
H270 H 0.14802 0.59654 0.57364 0.0
H271 H 0.16709 0.66085 0.59215 0.0
H272 H 0.16117 0.62721 0.70444 0.0
H273 H 0.14046 0.56275 0.68585 0.0
C274 C 0.23382 0.75473 0.654 0.0
C275 C 0.22734 0.76319 0.68913 0.0
C276 C 0.2125 0.71837 0.64021 0.0
C277 C 0.18389 0.68993 0.66106 0.0
C278 C 0.1753 0.69978 0.69468 0.0
C279 C 0.19702 0.73588 0.70871 0.0
C280 C 0.15018 0.60283 0.60232 0.0
C281 C 0.14308 0.57466 0.6283 0.0
C282 C 0.16134 0.63978 0.61294 0.0
C283 C 0.1662 0.64961 0.6498 0.0
C284 C 0.1573 0.62086 0.67581 0.0
C285 C 0.1456 0.58378 0.66519 0.0
H286 H 0.23622 0.4577 0.56594 0.0
H287 H 0.2083 0.4631 0.67762 0.0
H288 H 0.29625 0.47074 0.58424 0.0
H289 H 0.26868 0.47861 0.69582 0.0
H290 H 0.37894 0.51229 0.72663 0.0
H291 H 0.31755 0.47025 0.70549 0.0
H292 H 0.34759 0.52559 0.60046 0.0
H293 H 0.4091 0.56551 0.62103 0.0
C294 C 0.24278 0.46109 0.59449 0.0
C295 C 0.21784 0.46 0.6203 0.0
C296 C 0.27732 0.46894 0.60501 0.0
C297 C 0.28798 0.47688 0.64144 0.0
C298 C 0.26175 0.47249 0.66754 0.0
C299 C 0.22696 0.46375 0.6571 0.0
C300 C 0.37252 0.51458 0.69871 0.0
C301 C 0.39859 0.54252 0.67562 0.0
C302 C 0.33724 0.49072 0.68663 0.0
C303 C 0.32704 0.49497 0.65149 0.0
C304 C 0.35412 0.52097 0.62759 0.0
C305 C 0.38958 0.5442 0.63944 0.0
H306 H 0.09839 0.28807 0.8797 0.0
H307 H 0.01098 0.30804 0.90899 0.0
H308 H 0.11208 0.32869 0.82655 0.0
H309 H 0.02461 0.34858 0.85516 0.0
H310 H 0.04179 0.38221 0.72936 0.0
H311 H 0.0245 0.34235 0.78409 0.0
H312 H 0.13633 0.3995 0.81745 0.0
H313 H 0.15359 0.43939 0.76345 0.0
C314 C 0.08194 0.30097 0.87473 0.0
C315 C 0.05364 0.29487 0.89872 0.0
C316 C 0.08993 0.3244 0.84433 0.0
C317 C 0.06953 0.34195 0.8368 0.0
C318 C 0.0407 0.3353 0.86026 0.0
C319 C 0.03303 0.31226 0.89112 0.0
C320 C 0.0626 0.38646 0.74856 0.0
C321 C 0.09909 0.41393 0.74192 0.0
C322 C 0.05267 0.36374 0.77991 0.0
C323 C 0.07912 0.36764 0.80486 0.0
C324 C 0.11541 0.39556 0.79851 0.0
C325 C 0.12523 0.41856 0.7676 0.0
H326 H 0.69799 0.73676 0.91109 0.0
H327 H 0.76898 0.75081 0.82077 0.0
H328 H 0.64575 0.69441 0.87527 0.0
H329 H 0.71688 0.70688 0.78534 0.0
H330 H 0.61484 0.68314 0.72038 0.0
H331 H 0.67012 0.70981 0.75535 0.0
H332 H 0.61047 0.63672 0.84577 0.0
H333 H 0.5547 0.61141 0.81114 0.0
C334 C 0.70247 0.73005 0.88384 0.0
C335 C 0.73747 0.74755 0.86853 0.0
C336 C 0.6725 0.70545 0.8633 0.0
C337 C 0.67695 0.69735 0.82717 0.0
C338 C 0.71231 0.7131 0.81274 0.0
C339 C 0.7422 0.73818 0.83309 0.0
C340 C 0.61367 0.67211 0.7474 0.0
C341 C 0.58036 0.64569 0.76325 0.0
C342 C 0.64549 0.68732 0.76753 0.0
C343 C 0.64475 0.67597 0.80375 0.0
C344 C 0.61188 0.64694 0.81835 0.0
C345 C 0.57996 0.63217 0.79841 0.0
H346 H 0.28501 0.94933 0.76661 0.0
H347 H 0.31958 0.90673 0.85587 0.0
H348 H 0.26727 0.983 0.80971 0.0
H349 H 0.30136 0.93907 0.8984 0.0
H350 H 0.28103 0.01109 0.97136 0.0
H351 H 0.31133 -0.00298 0.92269 0.0
H352 H 0.21842 0.96376 0.85418 0.0
H353 H 0.1887 0.97918 0.90246 0.0
C354 C 0.28949 0.94779 0.79527 0.0
C355 C 0.30334 0.92513 0.80788 0.0
C356 C 0.27904 0.96674 0.81998 0.0
C357 C 0.28266 0.96358 0.8576 0.0
C358 C 0.29854 0.94265 0.86974 0.0
C359 C 0.30873 0.92375 0.84526 0.0
C360 C 0.26725 0.00119 0.94577 0.0
C361 C 0.23222 -0.00432 0.94098 0.0
C362 C 0.28459 0.99308 0.91785 0.0
C363 C 0.26714 0.97876 0.88462 0.0
C364 C 0.23284 0.97505 0.87923 0.0
C365 C 0.21563 0.98357 0.90707 0.0
H366 H 0.35594 0.05218 0.31384 0.0
H367 H 0.42309 0.10036 0.21812 0.0
H368 H 0.30374 0.01407 0.27529 0.0
H369 H 0.37144 0.06428 0.18012 0.0
H370 H 0.27771 -0.00105 0.11226 0.0
H371 H 0.32532 0.00908 0.15484 0.0
H372 H 0.26729 0.0297 0.24018 0.0
H373 H 0.21934 0.01771 0.19848 0.0
C374 C 0.35968 0.05424 0.28469 0.0
C375 C 0.39343 0.07992 0.26909 0.0
C376 C 0.32978 0.0326 0.26254 0.0
C377 C 0.33311 0.03648 0.22448 0.0
C378 C 0.36761 0.06006 0.20916 0.0
C379 C 0.39733 0.0813 0.23114 0.0
C380 C 0.27486 0.00485 0.14031 0.0
C381 C 0.24514 0.00831 0.15176 0.0
C382 C 0.30218 0.0108 0.16474 0.0
C383 C 0.3006 0.02096 0.20091 0.0
C384 C 0.2695 0.02163 0.21278 0.0
C385 C 0.24205 0.01517 0.18858 0.0
H386 H 0.01166 0.27942 0.15162 0.0
H387 H -0.00779 0.32517 0.05416 0.0
H388 H -0.01055 0.31248 0.18816 0.0
H389 H 0.97121 0.36013 0.09121 0.0
H390 H 0.8748 0.34671 0.16233 0.0
H391 H 0.91626 0.33873 0.12348 0.0
H392 H -0.00973 0.36578 0.21278 0.0
H393 H 0.94746 0.37222 0.25252 0.0
C394 C 0.00346 0.29739 0.13796 0.0
C395 C 0.00273 0.29882 0.09989 0.0
C396 C -0.00891 0.31686 0.15909 0.0
C397 C -0.02212 0.33857 0.14274 0.0
C398 C -0.01961 0.34291 0.10469 0.0
C399 C -0.00736 0.32311 0.08341 0.0
C400 C 0.90008 0.35143 0.17376 0.0
C401 C 0.90739 0.35922 0.21083 0.0
C402 C 0.92424 0.34735 0.15118 0.0
C403 C 0.9566 0.35123 0.16493 0.0
C404 C 0.96524 0.36184 0.20143 0.0
C405 C 0.94079 0.36565 0.22421 0.0
H406 H 0.60863 0.59964 0.15822 0.0
H407 H 0.68187 0.67287 0.23988 0.0
H408 H 0.63698 0.65046 0.11361 0.0
H409 H 0.7111 0.72367 0.19483 0.0
H410 H 0.74687 0.81365 0.10418 0.0
H411 H 0.70938 0.76859 0.15166 0.0
H412 H 0.69487 0.67652 0.08349 0.0
H413 H 0.73142 0.72104 0.03624 0.0
C414 C 0.63035 0.62689 0.16682 0.0
C415 C 0.64324 0.6321 0.20249 0.0
C416 C 0.64686 0.65595 0.14115 0.0
C417 C 0.677 0.69087 0.15034 0.0
C418 C 0.68799 0.69714 0.18677 0.0
C419 C 0.67117 0.66804 0.21266 0.0
C420 C 0.73549 0.78375 0.09932 0.0
C421 C 0.74218 0.77101 0.06633 0.0
C422 C 0.71409 0.75795 0.12659 0.0
C423 C 0.69875 0.71886 0.12134 0.0
C424 C 0.70548 0.70631 0.08827 0.0
C425 C 0.72681 0.73196 0.06119 0.0
H426 H 0.00384 0.41011 0.57348 0.0
H427 H 0.0685 0.3892 0.4965 0.0
H428 H 0.95387 0.38591 0.53 0.0
H429 H 0.01887 0.36478 0.45351 0.0
H430 H 0.91644 0.30563 0.38897 0.0
H431 H 0.95434 0.31451 0.44146 0.0
H432 H 0.95134 0.41532 0.46925 0.0
H433 H 0.91338 0.40655 0.41672 0.0
C434 C 0.00684 0.3991 0.54783 0.0
C435 C 0.03991 0.40153 0.5382 0.0
C436 C -0.02152 0.38566 0.52286 0.0
C437 C -0.01735 0.37378 0.4883 0.0
C438 C 0.01475 0.3735 0.47998 0.0
C439 C 0.04318 0.38752 0.50456 0.0
C440 C 0.92359 0.32954 0.40641 0.0
C441 C 0.91226 0.35566 0.39843 0.0
C442 C 0.94523 0.33454 0.43649 0.0
C443 C 0.9557 0.36552 0.45945 0.0
C444 C 0.94328 0.39089 0.45228 0.0
C445 C 0.9219 0.3861 0.42197 0.0
H446 H 0.60241 0.63093 0.38042 0.0
H447 H 0.62202 0.55808 0.45017 0.0
H448 H 0.58048 0.6507 0.43259 0.0
H449 H 0.59985 0.5776 0.5021 0.0
H450 H 0.58544 0.64286 0.59326 0.0
H451 H 0.61409 0.6323 0.54062 0.0
H452 H 0.52654 0.62062 0.47334 0.0
H453 H 0.49795 0.63152 0.52593 0.0
C454 C 0.60237 0.61939 0.4069 0.0
C455 C 0.61386 0.59281 0.41109 0.0
C456 C 0.58958 0.63055 0.43673 0.0
C457 C 0.58829 0.61563 0.47146 0.0
C458 C 0.60084 0.58994 0.47579 0.0
C459 C 0.61338 0.57859 0.44596 0.0
C460 C 0.57243 0.63842 0.5672 0.0
C461 C 0.53924 0.63782 0.56388 0.0
C462 C 0.58879 0.63217 0.53706 0.0
C463 C 0.57249 0.62538 0.50285 0.0
C464 C 0.53996 0.62608 0.49927 0.0
C465 C 0.52347 0.63214 0.52946 0.0
H466 H 0.4107 0.93221 0.58877 0.0
H467 H 0.32965 0.9607 0.62122 0.0
H468 H 0.43276 0.98111 0.54198 0.0
H469 H 0.35174 0.00966 0.57379 0.0
H470 H 0.38187 0.06251 0.4547 0.0
H471 H 0.35668 0.01472 0.50318 0.0
H472 H 0.46474 0.05297 0.54244 0.0
H473 H 0.48987 0.1007 0.49457 0.0
C474 C 0.39743 0.94876 0.58583 0.0
C475 C 0.36845 0.94257 0.60887 0.0
C476 C 0.41024 0.97694 0.5591 0.0
C477 C 0.39413 -0.00063 0.55435 0.0
C478 C 0.3646 0.99272 0.57678 0.0
C479 C 0.35208 0.96481 0.60399 0.0
C480 C 0.40019 0.06093 0.47389 0.0
C481 C 0.43791 0.08539 0.47063 0.0
C482 C 0.38575 0.03365 0.50169 0.0
C483 C 0.40878 0.02992 0.5264 0.0
C484 C 0.44635 0.05487 0.52354 0.0
C485 C 0.46071 0.08238 0.49618 0.0
loop_
_geom_bond_atom_site_label_1
_geom_bond_atom_site_label_2
_geom_bond_distance
_geom_bond_site_symmetry_2
_ccdc_geom_bond_type
Zn0 O3 2.031 . S
Zn0 O5 2.049 1_455 S
Zn0 O10 2.067 1_455 S
Zn1 O2 1.962 . S
Zn1 O4 1.986 1_554 S
Zn1 O6 1.996 . S
Zn1 O9 1.943 1_454 S
O2 Zn1 1.962 . S
O2 C7 1.254 . S
O3 Zn0 2.031 . S
O3 C7 1.269 . S
O4 Zn1 1.986 1_556 S
O4 C11 1.262 . S
O5 Zn0 2.049 1_655 S
O5 C13 1.260 . S
O6 Zn1 1.996 . S
O6 C13 1.257 1_455 S
C7 O2 1.254 . S
C7 O3 1.269 . S
C8 O9 1.249 1_554 S
C8 O10 1.270 . S
O9 Zn1 1.943 1_656 S
O9 C8 1.249 1_556 S
O10 Zn0 2.067 1_655 S
O10 C8 1.270 . S
C11 O4 1.262 . S
C11 O12 1.232 . S
O12 C11 1.232 . S
C13 O5 1.260 . S
C13 O6 1.257 1_655 S
Zn14 O17 2.031 . S
Zn14 O19 2.049 . S
Zn14 O24 2.067 . S
Zn15 O16 1.962 . S
Zn15 O18 1.986 . S
Zn15 O20 1.996 1_554 S
Zn15 O23 1.943 . S
O16 Zn15 1.962 . S
O16 C21 1.257 . S
O17 Zn14 2.031 . S
O17 C21 1.266 1_556 S
O18 Zn15 1.986 . S
O18 C25 1.262 . S
O19 Zn14 2.049 . S
O19 C27 1.260 . S
O20 Zn15 1.996 1_556 S
O20 C27 1.257 . S
C21 O16 1.257 . S
C21 O17 1.266 1_554 S
C22 O23 1.249 . S
C22 O24 1.270 1_554 S
O23 Zn15 1.943 . S
O23 C22 1.249 . S
O24 Zn14 2.067 . S
O24 C22 1.270 1_556 S
C25 O18 1.262 . S
C25 O26 1.232 . S
O26 C25 1.232 . S
C27 O19 1.260 . S
C27 O20 1.257 . S
Zn28 O31 2.031 1_545 S
Zn28 O33 2.049 . S
Zn28 O38 2.067 . S
Zn29 O30 1.962 1_545 S
Zn29 O32 1.986 1_554 S
Zn29 O34 1.996 . S
Zn29 O37 1.943 1_554 S
O30 Zn29 1.962 1_565 S
O30 C35 1.254 . S
O31 Zn28 2.031 1_565 S
O31 C35 1.269 . S
O32 Zn29 1.986 1_556 S
O32 C39 1.262 1_545 S
O33 Zn28 2.049 . S
O33 C41 1.260 . S
O34 Zn29 1.996 . S
O34 C41 1.257 . S
C35 O30 1.254 . S
C35 O31 1.269 . S
C36 O37 1.249 1_554 S
C36 O38 1.270 . S
O37 Zn29 1.943 1_556 S
O37 C36 1.249 1_556 S
O38 Zn28 2.067 . S
O38 C36 1.270 . S
C39 O32 1.262 1_565 S
C39 O40 1.232 . S
O40 C39 1.232 . S
C41 O33 1.260 . S
C41 O34 1.257 . S
Zn42 O45 2.031 . S
Zn42 O47 2.049 . S
Zn42 O52 2.067 . S
Zn43 O44 1.962 . S
Zn43 O46 1.986 . S
Zn43 O48 1.996 . S
Zn43 O51 1.943 . S
O44 Zn43 1.962 . S
O44 C49 1.254 . S
O45 Zn42 2.031 . S
O45 C49 1.269 . S
O46 Zn43 1.986 . S
O46 C53 1.262 . S
O47 Zn42 2.049 . S
O47 C55 1.260 . S
O48 Zn43 1.996 . S
O48 C55 1.257 . S
C49 O44 1.254 . S
C49 O45 1.269 . S
C50 O51 1.249 . S
C50 O52 1.270 . S
O51 Zn43 1.943 . S
O51 C50 1.249 . S
O52 Zn42 2.067 . S
O52 C50 1.270 . S
C53 O46 1.262 . S
C53 O54 1.232 . S
O54 C53 1.232 . S
C55 O47 1.260 . S
C55 O48 1.257 . S
Zn56 O59 2.031 . S
Zn56 O61 2.049 . S
Zn56 O66 2.067 . S
Zn57 O58 1.962 . S
Zn57 O60 1.986 . S
Zn57 O62 1.996 . S
Zn57 O65 1.943 . S
O58 Zn57 1.962 . S
O58 C63 1.254 . S
O59 Zn56 2.031 . S
O59 C63 1.269 . S
O60 Zn57 1.986 . S
O60 C67 1.262 . S
O61 Zn56 2.049 . S
O61 C69 1.260 . S
O62 Zn57 1.996 . S
O62 C69 1.257 . S
C63 O58 1.254 . S
C63 O59 1.269 . S
C64 O65 1.249 . S
C64 O66 1.270 . S
O65 Zn57 1.943 . S
O65 C64 1.249 . S
O66 Zn56 2.067 . S
O66 C64 1.270 . S
C67 O60 1.262 . S
C67 O68 1.232 . S
O68 C67 1.232 . S
C69 O61 1.260 . S
C69 O62 1.257 . S
Zn70 O73 2.031 . S
Zn70 O75 2.049 . S
Zn70 O80 2.067 . S
Zn71 O72 1.962 . S
Zn71 O74 1.986 . S
Zn71 O76 1.996 . S
Zn71 O79 1.943 . S
O72 Zn71 1.962 . S
O72 C77 1.254 . S
O73 Zn70 2.031 . S
O73 C77 1.269 . S
O74 Zn71 1.986 . S
O74 C81 1.262 . S
O75 Zn70 2.049 . S
O75 C83 1.260 . S
O76 Zn71 1.996 . S
O76 C83 1.257 . S
C77 O72 1.254 . S
C77 O73 1.269 . S
C78 O79 1.249 . S
C78 O80 1.270 . S
O79 Zn71 1.943 . S
O79 C78 1.249 . S
O80 Zn70 2.067 . S
O80 C78 1.270 . S
C81 O74 1.262 . S
C81 O82 1.232 . S
O82 C81 1.232 . S
C83 O75 1.260 . S
C83 O76 1.257 . S
Zn84 O87 2.031 . S
Zn84 O89 2.049 . S
Zn84 O94 2.067 . S
Zn85 O86 1.962 . S
Zn85 O88 1.986 . S
Zn85 O90 1.996 . S
Zn85 O93 1.943 . S
O86 Zn85 1.962 . S
O86 C91 1.254 . S
O87 Zn84 2.031 . S
O87 C91 1.269 . S
O88 Zn85 1.986 . S
O88 C95 1.262 . S
O89 Zn84 2.049 . S
O89 C97 1.260 . S
O90 Zn85 1.996 . S
O90 C97 1.257 . S
C91 O86 1.254 . S
C91 O87 1.269 . S
C92 O93 1.249 . S
C92 O94 1.270 . S
O93 Zn85 1.943 . S
O93 C92 1.249 . S
O94 Zn84 2.067 . S
O94 C92 1.270 . S
C95 O88 1.262 . S
C95 O96 1.232 . S
O96 C95 1.232 . S
C97 O89 1.260 . S
C97 O90 1.257 . S
Zn98 O101 2.031 . S
Zn98 O103 2.049 . S
Zn98 O108 2.067 . S
Zn99 O100 1.962 . S
Zn99 O102 1.986 . S
Zn99 O104 1.996 . S
Zn99 O107 1.943 . S
O100 Zn99 1.962 . S
O100 C105 1.254 . S
O101 Zn98 2.031 . S
O101 C105 1.269 . S
O102 Zn99 1.986 . S
O102 C109 1.262 . S
O103 Zn98 2.049 . S
O103 C111 1.260 . S
O104 Zn99 1.996 . S
O104 C111 1.257 . S
C105 O100 1.254 . S
C105 O101 1.269 . S
C106 O107 1.249 . S
C106 O108 1.270 . S
O107 Zn99 1.943 . S
O107 C106 1.249 . S
O108 Zn98 2.067 . S
O108 C106 1.270 . S
C109 O102 1.262 . S
C109 O110 1.232 . S
O110 C109 1.232 . S
C111 O103 1.260 . S
C111 O104 1.257 . S
Zn112 O115 2.031 . S
Zn112 O117 2.049 . S
Zn112 O122 2.067 . S
Zn113 O114 1.962 . S
Zn113 O116 1.986 . S
Zn113 O118 1.996 . S
Zn113 O121 1.943 . S
O114 Zn113 1.962 . S
O114 C119 1.254 . S
O115 Zn112 2.031 . S
O115 C119 1.269 . S
O116 Zn113 1.986 . S
O116 C123 1.262 . S
O117 Zn112 2.049 . S
O117 C125 1.260 . S
O118 Zn113 1.996 . S
O118 C125 1.257 . S
C119 O114 1.254 . S
C119 O115 1.269 . S
C120 O121 1.249 . S
C120 O122 1.270 . S
O121 Zn113 1.943 . S
O121 C120 1.249 . S
O122 Zn112 2.067 . S
O122 C120 1.270 . S
C123 O116 1.262 . S
C123 O124 1.232 . S
O124 C123 1.232 . S
C125 O117 1.260 . S
C125 O118 1.257 . S
H126 C134 0.950 . S
H127 C139 0.950 . S
H128 C136 0.950 . S
H129 C138 0.950 . S
H130 C140 0.950 . S
H131 C142 0.950 . S
H132 C144 0.950 . S
H133 C145 0.950 . S
C134 H126 0.950 . S
C134 C135 1.386 1_556 S
C134 C136 1.391 . S
C135 C134 1.386 1_554 S
C135 C139 1.393 . S
C136 H128 0.950 . S
C136 C134 1.391 . S
C136 C137 1.400 1_556 S
C137 C136 1.400 1_554 S
C137 C138 1.398 . S
C137 C143 1.491 . S
C138 H129 0.950 . S
C138 C137 1.398 . S
C138 C139 1.391 . S
C139 H127 0.950 . S
C139 C135 1.393 . S
C139 C138 1.391 . S
C140 H130 0.950 . S
C140 C141 1.386 . S
C140 C142 1.391 . S
C141 C140 1.386 . S
C141 C145 1.393 1_554 S
C142 H131 0.950 . S
C142 C140 1.391 . S
C142 C143 1.400 . S
C143 C137 1.491 . S
C143 C142 1.400 . S
C143 C144 1.398 1_554 S
C144 H132 0.950 . S
C144 C143 1.398 1_556 S
C144 C145 1.391 . S
C145 H133 0.950 . S
C145 C141 1.393 1_556 S
C145 C144 1.391 . S
H146 C154 0.950 . S
H147 C159 0.950 . S
H148 C156 0.950 1_556 S
H149 C158 0.950 . S
H150 C160 0.950 . S
H151 C162 0.950 . S
H152 C164 0.950 . S
H153 C165 0.950 . S
C154 H146 0.950 . S
C154 C155 1.386 . S
C154 C156 1.391 . S
C155 C154 1.386 . S
C155 C159 1.393 . S
C156 H148 0.950 1_554 S
C156 C154 1.391 . S
C156 C157 1.400 . S
C157 C156 1.400 . S
C157 C158 1.398 . S
C157 C163 1.491 1_565 S
C158 H149 0.950 . S
C158 C157 1.398 . S
C158 C159 1.391 . S
C159 H147 0.950 . S
C159 C155 1.393 . S
C159 C158 1.391 . S
C160 H150 0.950 . S
C160 C161 1.386 . S
C160 C162 1.391 . S
C161 C160 1.386 . S
C161 C165 1.393 1_554 S
C162 H151 0.950 . S
C162 C160 1.391 . S
C162 C163 1.400 . S
C163 C157 1.491 1_545 S
C163 C162 1.400 . S
C163 C164 1.398 1_554 S
C164 H152 0.950 . S
C164 C163 1.398 1_556 S
C164 C165 1.391 . S
C165 H153 0.950 . S
C165 C161 1.393 1_556 S
C165 C164 1.391 . S
H166 C174 0.950 . S
H167 C179 0.950 . S
H168 C176 0.950 . S
H169 C178 0.950 . S
H170 C180 0.950 1_556 S
H171 C182 0.947 1_556 S
H172 C184 0.950 . S
H173 C185 0.950 . S
C174 H166 0.950 . S
C174 C175 1.386 . S
C174 C176 1.391 . S
C175 C174 1.386 . S
C175 C179 1.393 1_554 S
C176 H168 0.950 . S
C176 C174 1.391 . S
C176 C177 1.400 . S
C177 C176 1.400 . S
C177 C178 1.398 1_554 S
C177 C183 1.491 1_655 S
C178 H169 0.950 . S
C178 C177 1.398 1_556 S
C178 C179 1.391 . S
C179 H167 0.950 . S
C179 C175 1.393 1_556 S
C179 C178 1.391 . S
C180 H170 0.950 1_554 S
C180 C181 1.386 . S
C180 C182 1.392 . S
C181 C180 1.386 . S
C181 C185 1.393 . S
C182 H171 0.947 1_554 S
C182 C180 1.392 . S
C182 C183 1.403 . S
C183 C177 1.491 1_455 S
C183 C182 1.403 . S
C183 C184 1.398 . S
C184 H172 0.950 . S
C184 C183 1.398 . S
C184 C185 1.391 . S
C185 H173 0.950 . S
C185 C181 1.393 . S
C185 C184 1.391 . S
H186 C194 0.950 . S
H187 C199 0.950 . S
H188 C196 0.950 . S
H189 C198 0.950 . S
H190 C200 0.950 . S
H191 C202 0.950 . S
H192 C204 0.950 . S
H193 C205 0.950 . S
C194 H186 0.950 . S
C194 C195 1.386 . S
C194 C196 1.391 . S
C195 C194 1.386 . S
C195 C199 1.393 . S
C196 H188 0.950 . S
C196 C194 1.391 . S
C196 C197 1.400 . S
C197 C196 1.400 . S
C197 C198 1.398 . S
C197 C203 1.491 . S
C198 H189 0.950 . S
C198 C197 1.398 . S
C198 C199 1.391 . S
C199 H187 0.950 . S
C199 C195 1.393 . S
C199 C198 1.391 . S
C200 H190 0.950 . S
C200 C201 1.386 . S
C200 C202 1.391 . S
C201 C200 1.386 . S
C201 C205 1.393 . S
C202 H191 0.950 . S
C202 C200 1.391 . S
C202 C203 1.400 . S
C203 C197 1.491 . S
C203 C202 1.400 . S
C203 C204 1.398 . S
C204 H192 0.950 . S
C204 C203 1.398 . S
C204 C205 1.391 . S
C205 H193 0.950 . S
C205 C201 1.393 . S
C205 C204 1.391 . S
H206 C214 0.950 . S
H207 C219 0.950 . S
H208 C216 0.950 . S
H209 C218 0.950 . S
H210 C220 0.950 . S
H211 C222 0.950 . S
H212 C224 0.950 . S
H213 C225 0.950 . S
C214 H206 0.950 . S
C214 C215 1.386 . S
C214 C216 1.391 . S
C215 C214 1.386 . S
C215 C219 1.393 . S
C216 H208 0.950 . S
C216 C214 1.391 . S
C216 C217 1.400 . S
C217 C216 1.400 . S
C217 C218 1.398 . S
C217 C223 1.491 . S
C218 H209 0.950 . S
C218 C217 1.398 . S
C218 C219 1.391 . S
C219 H207 0.950 . S
C219 C215 1.393 . S
C219 C218 1.391 . S
C220 H210 0.950 . S
C220 C221 1.386 . S
C220 C222 1.391 . S
C221 C220 1.386 . S
C221 C225 1.393 . S
C222 H211 0.950 . S
C222 C220 1.391 . S
C222 C223 1.400 . S
C223 C217 1.491 . S
C223 C222 1.400 . S
C223 C224 1.398 . S
C224 H212 0.950 . S
C224 C223 1.398 . S
C224 C225 1.391 . S
C225 H213 0.950 . S
C225 C221 1.393 . S
C225 C224 1.391 . S
H226 C234 0.950 . S
H227 C239 0.950 . S
H228 C236 0.950 . S
H229 C238 0.950 . S
H230 C240 0.950 . S
H231 C242 0.950 . S
H232 C244 0.950 . S
H233 C245 0.950 . S
C234 H226 0.950 . S
C234 C235 1.386 . S
C234 C236 1.391 . S
C235 C234 1.386 . S
C235 C239 1.393 . S
C236 H228 0.950 . S
C236 C234 1.391 . S
C236 C237 1.400 . S
C237 C236 1.400 . S
C237 C238 1.398 . S
C237 C243 1.491 . S
C238 H229 0.950 . S
C238 C237 1.398 . S
C238 C239 1.391 . S
C239 H227 0.950 . S
C239 C235 1.393 . S
C239 C238 1.391 . S
C240 H230 0.950 . S
C240 C241 1.386 . S
C240 C242 1.391 . S
C241 C240 1.386 . S
C241 C245 1.393 . S
C242 H231 0.950 . S
C242 C240 1.391 . S
C242 C243 1.400 . S
C243 C237 1.491 . S
C243 C242 1.400 . S
C243 C244 1.398 . S
C244 H232 0.950 . S
C244 C243 1.398 . S
C244 C245 1.391 . S
C245 H233 0.950 . S
C245 C241 1.393 . S
C245 C244 1.391 . S
H246 C254 0.950 . S
H247 C259 0.950 . S
H248 C256 0.950 . S
H249 C258 0.950 . S
H250 C260 0.950 . S
H251 C262 0.950 . S
H252 C264 0.950 . S
H253 C265 0.950 . S
C254 H246 0.950 . S
C254 C255 1.386 . S
C254 C256 1.391 . S
C255 C254 1.386 . S
C255 C259 1.393 . S
C256 H248 0.950 . S
C256 C254 1.391 . S
C256 C257 1.400 . S
C257 C256 1.400 . S
C257 C258 1.398 . S
C257 C263 1.491 . S
C258 H249 0.950 . S
C258 C257 1.398 . S
C258 C259 1.391 . S
C259 H247 0.950 . S
C259 C255 1.393 . S
C259 C258 1.391 . S
C260 H250 0.950 . S
C260 C261 1.386 . S
C260 C262 1.391 . S
C261 C260 1.386 . S
C261 C265 1.393 . S
C262 H251 0.950 . S
C262 C260 1.391 . S
C262 C263 1.400 . S
C263 C257 1.491 . S
C263 C262 1.400 . S
C263 C264 1.398 . S
C264 H252 0.950 . S
C264 C263 1.398 . S
C264 C265 1.391 . S
C265 H253 0.950 . S
C265 C261 1.393 . S
C265 C264 1.391 . S
H266 C274 0.950 . S
H267 C279 0.950 . S
H268 C276 0.950 . S
H269 C278 0.950 . S
H270 C280 0.950 . S
H271 C282 0.950 . S
H272 C284 0.950 . S
H273 C285 0.950 . S
C274 H266 0.950 . S
C274 C275 1.386 . S
C274 C276 1.391 . S
C275 C274 1.386 . S
C275 C279 1.393 . S
C276 H268 0.950 . S
C276 C274 1.391 . S
C276 C277 1.400 . S
C277 C276 1.400 . S
C277 C278 1.398 . S
C277 C283 1.491 . S
C278 H269 0.950 . S
C278 C277 1.398 . S
C278 C279 1.391 . S
C279 H267 0.950 . S
C279 C275 1.393 . S
C279 C278 1.391 . S
C280 H270 0.950 . S
C280 C281 1.386 . S
C280 C282 1.391 . S
C281 C280 1.386 . S
C281 C285 1.393 . S
C282 H271 0.950 . S
C282 C280 1.391 . S
C282 C283 1.400 . S
C283 C277 1.491 . S
C283 C282 1.400 . S
C283 C284 1.398 . S
C284 H272 0.950 . S
C284 C283 1.398 . S
C284 C285 1.391 . S
C285 H273 0.950 . S
C285 C281 1.393 . S
C285 C284 1.391 . S
H286 C294 0.950 . S
H287 C299 0.950 . S
H288 C296 0.950 . S
H289 C298 0.950 . S
H290 C300 0.950 . S
H291 C302 0.950 . S
H292 C304 0.950 . S
H293 C305 0.950 . S
C294 H286 0.950 . S
C294 C295 1.386 . S
C294 C296 1.391 . S
C295 C294 1.386 . S
C295 C299 1.393 . S
C296 H288 0.950 . S
C296 C294 1.391 . S
C296 C297 1.400 . S
C297 C296 1.400 . S
C297 C298 1.398 . S
C297 C303 1.491 . S
C298 H289 0.950 . S
C298 C297 1.398 . S
C298 C299 1.391 . S
C299 H287 0.950 . S
C299 C295 1.393 . S
C299 C298 1.391 . S
C300 H290 0.950 . S
C300 C301 1.386 . S
C300 C302 1.391 . S
C301 C300 1.386 . S
C301 C305 1.393 . S
C302 H291 0.950 . S
C302 C300 1.391 . S
C302 C303 1.400 . S
C303 C297 1.491 . S
C303 C302 1.400 . S
C303 C304 1.398 . S
C304 H292 0.950 . S
C304 C303 1.398 . S
C304 C305 1.391 . S
C305 H293 0.950 . S
C305 C301 1.393 . S
C305 C304 1.391 . S
H306 C314 0.950 . S
H307 C319 0.950 1_655 S
H308 C316 0.950 . S
H309 C318 0.950 . S
H310 C320 0.950 . S
H311 C322 0.950 . S
H312 C324 0.950 . S
H313 C325 0.950 . S
C314 H306 0.950 . S
C314 C315 1.386 . S
C314 C316 1.391 . S
C315 C314 1.386 . S
C315 C319 1.393 . S
C316 H308 0.950 . S
C316 C314 1.391 . S
C316 C317 1.400 . S
C317 C316 1.400 . S
C317 C318 1.398 . S
C317 C323 1.491 . S
C318 H309 0.950 . S
C318 C317 1.398 . S
C318 C319 1.391 . S
C319 H307 0.950 1_455 S
C319 C315 1.393 . S
C319 C318 1.391 . S
C320 H310 0.950 . S
C320 C321 1.386 . S
C320 C322 1.391 . S
C321 C320 1.386 . S
C321 C325 1.393 . S
C322 H311 0.950 . S
C322 C320 1.391 . S
C322 C323 1.400 . S
C323 C317 1.491 . S
C323 C322 1.400 . S
C323 C324 1.398 . S
C324 H312 0.950 . S
C324 C323 1.398 . S
C324 C325 1.391 . S
C325 H313 0.950 . S
C325 C321 1.393 . S
C325 C324 1.391 . S
H326 C334 0.950 . S
H327 C339 0.950 . S
H328 C336 0.950 . S
H329 C338 0.950 . S
H330 C340 0.950 . S
H331 C342 0.950 . S
H332 C344 0.950 . S
H333 C345 0.950 . S
C334 H326 0.950 . S
C334 C335 1.386 . S
C334 C336 1.391 . S
C335 C334 1.386 . S
C335 C339 1.393 . S
C336 H328 0.950 . S
C336 C334 1.391 . S
C336 C337 1.400 . S
C337 C336 1.400 . S
C337 C338 1.398 . S
C337 C343 1.491 . S
C338 H329 0.950 . S
C338 C337 1.398 . S
C338 C339 1.391 . S
C339 H327 0.950 . S
C339 C335 1.393 . S
C339 C338 1.391 . S
C340 H330 0.950 . S
C340 C341 1.386 . S
C340 C342 1.391 . S
C341 C340 1.386 . S
C341 C345 1.393 . S
C342 H331 0.950 . S
C342 C340 1.391 . S
C342 C343 1.400 . S
C343 C337 1.491 . S
C343 C342 1.400 . S
C343 C344 1.398 . S
C344 H332 0.950 . S
C344 C343 1.398 . S
C344 C345 1.391 . S
C345 H333 0.950 . S
C345 C341 1.393 . S
C345 C344 1.391 . S
H346 C354 0.950 . S
H347 C359 0.950 . S
H348 C356 0.950 . S
H349 C358 0.950 . S
H350 C360 0.950 . S
H351 C362 0.950 . S
H352 C364 0.950 1_545 S
H353 C365 0.950 . S
C354 H346 0.950 . S
C354 C355 1.386 . S
C354 C356 1.391 . S
C355 C354 1.386 . S
C355 C359 1.393 . S
C356 H348 0.950 . S
C356 C354 1.391 . S
C356 C357 1.400 . S
C357 C356 1.400 . S
C357 C358 1.398 . S
C357 C363 1.491 . S
C358 H349 0.950 . S
C358 C357 1.398 . S
C358 C359 1.391 . S
C359 H347 0.950 . S
C359 C355 1.393 . S
C359 C358 1.391 . S
C360 H350 0.950 . S
C360 C361 1.386 . S
C360 C362 1.391 . S
C361 C360 1.386 . S
C361 C365 1.393 1_565 S
C362 H351 0.950 . S
C362 C360 1.391 . S
C362 C363 1.400 . S
C363 C357 1.491 . S
C363 C362 1.400 . S
C363 C364 1.398 . S
C364 H352 0.950 1_565 S
C364 C363 1.398 . S
C364 C365 1.391 1_565 S
C365 H353 0.950 . S
C365 C361 1.393 1_545 S
C365 C364 1.391 1_545 S
H366 C374 0.950 . S
H367 C379 0.950 . S
H368 C376 0.950 . S
H369 C378 0.950 . S
H370 C380 0.950 . S
H371 C382 0.950 . S
H372 C384 0.950 . S
H373 C385 0.950 1_565 S
C374 H366 0.950 . S
C374 C375 1.386 . S
C374 C376 1.391 . S
C375 C374 1.386 . S
C375 C379 1.393 . S
C376 H368 0.950 . S
C376 C374 1.391 . S
C376 C377 1.400 . S
C377 C376 1.400 . S
C377 C378 1.398 . S
C377 C383 1.491 . S
C378 H369 0.950 . S
C378 C377 1.398 . S
C378 C379 1.391 . S
C379 H367 0.950 . S
C379 C375 1.393 . S
C379 C378 1.391 . S
C380 H370 0.950 . S
C380 C381 1.386 . S
C380 C382 1.391 . S
C381 C380 1.386 . S
C381 C385 1.393 . S
C382 H371 0.950 . S
C382 C380 1.391 . S
C382 C383 1.400 . S
C383 C377 1.491 . S
C383 C382 1.400 . S
C383 C384 1.398 . S
C384 H372 0.950 . S
C384 C383 1.398 . S
C384 C385 1.391 . S
C385 H373 0.950 1_545 S
C385 C381 1.393 . S
C385 C384 1.391 . S
H386 C394 0.950 . S
H387 C399 0.950 . S
H388 C396 0.950 . S
H389 C398 0.950 1_455 S
H390 C400 0.950 . S
H391 C402 0.950 . S
H392 C404 0.950 . S
H393 C405 0.950 . S
C394 H386 0.950 . S
C394 C395 1.386 . S
C394 C396 1.391 . S
C395 C394 1.386 . S
C395 C399 1.393 1_655 S
C396 H388 0.950 . S
C396 C394 1.391 . S
C396 C397 1.400 . S
C397 C396 1.400 . S
C397 C398 1.398 . S
C397 C403 1.491 . S
C398 H389 0.950 1_655 S
C398 C397 1.398 . S
C398 C399 1.391 1_655 S
C399 H387 0.950 . S
C399 C395 1.393 1_455 S
C399 C398 1.391 1_455 S
C400 H390 0.950 . S
C400 C401 1.386 . S
C400 C402 1.391 . S
C401 C400 1.386 . S
C401 C405 1.393 . S
C402 H391 0.950 . S
C402 C400 1.391 . S
C402 C403 1.400 . S
C403 C397 1.491 . S
C403 C402 1.400 . S
C403 C404 1.398 . S
C404 H392 0.950 . S
C404 C403 1.398 . S
C404 C405 1.391 . S
C405 H393 0.950 . S
C405 C401 1.393 . S
C405 C404 1.391 . S
H406 C414 0.950 . S
H407 C419 0.950 . S
H408 C416 0.950 . S
H409 C418 0.950 . S
H410 C420 0.950 . S
H411 C422 0.950 . S
H412 C424 0.950 . S
H413 C425 0.950 . S
C414 H406 0.950 . S
C414 C415 1.386 . S
C414 C416 1.391 . S
C415 C414 1.386 . S
C415 C419 1.393 . S
C416 H408 0.950 . S
C416 C414 1.391 . S
C416 C417 1.400 . S
C417 C416 1.400 . S
C417 C418 1.398 . S
C417 C423 1.491 . S
C418 H409 0.950 . S
C418 C417 1.398 . S
C418 C419 1.391 . S
C419 H407 0.950 . S
C419 C415 1.393 . S
C419 C418 1.391 . S
C420 H410 0.950 . S
C420 C421 1.386 . S
C420 C422 1.391 . S
C421 C420 1.386 . S
C421 C425 1.393 . S
C422 H411 0.950 . S
C422 C420 1.391 . S
C422 C423 1.400 . S
C423 C417 1.491 . S
C423 C422 1.400 . S
C423 C424 1.398 . S
C424 H412 0.950 . S
C424 C423 1.398 . S
C424 C425 1.391 . S
C425 H413 0.950 . S
C425 C421 1.393 . S
C425 C424 1.391 . S
H426 C434 0.950 . S
H427 C439 0.950 . S
H428 C436 0.950 . S
H429 C438 0.950 . S
H430 C440 0.950 . S
H431 C442 0.950 . S
H432 C444 0.950 . S
H433 C445 0.950 . S
C434 H426 0.950 . S
C434 C435 1.386 . S
C434 C436 1.391 . S
C435 C434 1.386 . S
C435 C439 1.393 . S
C436 H428 0.950 . S
C436 C434 1.391 . S
C436 C437 1.400 . S
C437 C436 1.400 . S
C437 C438 1.398 . S
C437 C443 1.491 . S
C438 H429 0.950 . S
C438 C437 1.398 . S
C438 C439 1.391 . S
C439 H427 0.950 . S
C439 C435 1.393 . S
C439 C438 1.391 . S
C440 H430 0.950 . S
C440 C441 1.386 . S
C440 C442 1.391 . S
C441 C440 1.386 . S
C441 C445 1.393 . S
C442 H431 0.950 . S
C442 C440 1.391 . S
C442 C443 1.400 1_655 S
C443 C437 1.491 . S
C443 C442 1.400 1_455 S
C443 C444 1.398 . S
C444 H432 0.950 . S
C444 C443 1.398 . S
C444 C445 1.391 1_455 S
C445 H433 0.950 . S
C445 C441 1.393 . S
C445 C444 1.391 1_655 S
H446 C454 0.950 . S
H447 C459 0.950 . S
H448 C456 0.950 . S
H449 C458 0.950 . S
H450 C460 0.950 . S
H451 C462 0.950 . S
H452 C464 0.950 . S
H453 C465 0.950 . S
C454 H446 0.950 . S
C454 C455 1.386 . S
C454 C456 1.391 . S
C455 C454 1.386 . S
C455 C459 1.393 . S
C456 H448 0.950 . S
C456 C454 1.391 . S
C456 C457 1.400 . S
C457 C456 1.400 . S
C457 C458 1.398 . S
C457 C463 1.491 . S
C458 H449 0.950 . S
C458 C457 1.398 . S
C458 C459 1.391 . S
C459 H447 0.950 . S
C459 C455 1.393 . S
C459 C458 1.391 . S
C460 H450 0.950 . S
C460 C461 1.386 . S
C460 C462 1.391 . S
C461 C460 1.386 . S
C461 C465 1.393 . S
C462 H451 0.950 . S
C462 C460 1.391 . S
C462 C463 1.400 . S
C463 C457 1.491 . S
C463 C462 1.400 . S
C463 C464 1.398 . S
C464 H452 0.950 . S
C464 C463 1.398 . S
C464 C465 1.391 . S
C465 H453 0.950 . S
C465 C461 1.393 . S
C465 C464 1.391 . S
H466 C474 0.950 . S
H467 C479 0.950 . S
H468 C476 0.950 1_545 S
H469 C478 0.950 . S
H470 C480 0.950 . S
H471 C482 0.950 . S
H472 C484 0.950 . S
H473 C485 0.950 . S
C474 H466 0.950 . S
C474 C475 1.386 . S
C474 C476 1.391 . S
C475 C474 1.386 . S
C475 C479 1.393 . S
C476 H468 0.950 1_565 S
C476 C474 1.391 . S
C476 C477 1.398 1_565 S
C477 C476 1.398 1_545 S
C477 C478 1.398 1_545 S
C477 C483 1.492 . S
C478 H469 0.950 . S
C478 C477 1.398 1_565 S
C478 C479 1.391 . S
C479 H467 0.950 . S
C479 C475 1.393 . S
C479 C478 1.391 . S
C480 H470 0.950 . S
C480 C481 1.386 . S
C480 C482 1.391 . S
C481 C480 1.386 . S
C481 C485 1.393 . S
C482 H471 0.950 . S
C482 C480 1.391 . S
C482 C483 1.400 . S
C483 C477 1.492 . S
C483 C482 1.400 . S
C483 C484 1.398 . S
C484 H472 0.950 . S
C484 C483 1.398 . S
C484 C485 1.391 . S
C485 H473 0.950 . S
C485 C481 1.393 . S
C485 C484 1.391 . S
C135 C36 1.014 . S
C141 C7 1.081 . S
C155 C22 1.069 . S
C161 C8 1.068 . S
C175 C21 0.979 . S
C181 C35 0.960 . S
C195 C77 1.009 . S
C201 C50 1.005 . S
C215 C64 0.976 . S
C221 C49 0.977 . S
C235 C63 1.045 . S
C241 C78 1.042 . S
C255 C91 0.968 . S
C261 C120 0.968 . S
C275 C92 1.012 . S
C281 C106 1.010 . S
C295 C105 0.946 . S
C301 C119 0.966 . S
C315 C11 1.349 . S
C321 C109 1.341 . S
C335 C27 1.240 . S
C341 C125 1.247 . S
C355 C97 1.258 . S
C361 C39 1.347 . S
C375 C69 1.257 . S
C381 C41 1.273 . S
C395 C13 1.309 . S
C401 C83 1.298 . S
C415 C55 1.276 . S
C421 C25 1.336 . S
C435 C111 1.250 . S
C441 C81 1.337 . S
C455 C53 1.292 . S
C461 C123 1.304 . S
C475 C95 1.352 . S
C481 C67 1.361 . S
