# Generated by pormake.
# Topology afi, (4)-cn, num edge types: 1
# Building blocks:
#     Node 0, Type 0, BuildingBlock: TATPOV_clean_sbu_0, # of connection points: 4
#     Node 1, Type 0, BuildingBlock: TATPOV_clean_sbu_0, # of connection points: 4
#     Node 2, Type 0, BuildingBlock: TATPOV_clean_sbu_0, # of connection points: 4
#     Node 3, Type 0, BuildingBlock: TATPOV_clean_sbu_0, # of connection points: 4
#     Node 4, Type 0, BuildingBlock: TATPOV_clean_sbu_0, # of connection points: 4
#     Node 5, Type 0, BuildingBlock: TATPOV_clean_sbu_0, # of connection points: 4
#     Node 6, Type 0, BuildingBlock: TATPOV_clean_sbu_0, # of connection points: 4
#     Node 7, Type 0, BuildingBlock: TATPOV_clean_sbu_0, # of connection points: 4
#     Node 8, Type 0, BuildingBlock: TATPOV_clean_sbu_0, # of connection points: 4
#     Node 9, Type 0, BuildingBlock: TATPOV_clean_sbu_0, # of connection points: 4
#     Node 10, Type 0, BuildingBlock: TATPOV_clean_sbu_0, # of connection points: 4
#     Node 11, Type 0, BuildingBlock: TATPOV_clean_sbu_0, # of connection points: 4
#     Node 12, Type 0, BuildingBlock: TATPOV_clean_sbu_0, # of connection points: 4
#     Node 13, Type 0, BuildingBlock: TATPOV_clean_sbu_0, # of connection points: 4
#     Node 14, Type 0, BuildingBlock: TATPOV_clean_sbu_0, # of connection points: 4
#     Node 15, Type 0, BuildingBlock: TATPOV_clean_sbu_0, # of connection points: 4
#     Node 16, Type 0, BuildingBlock: TATPOV_clean_sbu_0, # of connection points: 4
#     Node 17, Type 0, BuildingBlock: TATPOV_clean_sbu_0, # of connection points: 4
#     Node 18, Type 0, BuildingBlock: TATPOV_clean_sbu_0, # of connection points: 4
#     Node 19, Type 0, BuildingBlock: TATPOV_clean_sbu_0, # of connection points: 4
#     Node 20, Type 0, BuildingBlock: TATPOV_clean_sbu_0, # of connection points: 4
#     Node 21, Type 0, BuildingBlock: TATPOV_clean_sbu_0, # of connection points: 4
#     Node 22, Type 0, BuildingBlock: TATPOV_clean_sbu_0, # of connection points: 4
#     Node 23, Type 0, BuildingBlock: TATPOV_clean_sbu_0, # of connection points: 4
#     Edge 24, Type (0, 0), BuildingBlock: EZIPEK_clean_linker_0, # of connection points: 2
#     Edge 25, Type (0, 0), BuildingBlock: EZIPEK_clean_linker_0, # of connection points: 2
#     Edge 26, Type (0, 0), BuildingBlock: EZIPEK_clean_linker_0, # of connection points: 2
#     Edge 27, Type (0, 0), BuildingBlock: EZIPEK_clean_linker_0, # of connection points: 2
#     Edge 28, Type (0, 0), BuildingBlock: EZIPEK_clean_linker_0, # of connection points: 2
#     Edge 29, Type (0, 0), BuildingBlock: EZIPEK_clean_linker_0, # of connection points: 2
#     Edge 30, Type (0, 0), BuildingBlock: EZIPEK_clean_linker_0, # of connection points: 2
#     Edge 31, Type (0, 0), BuildingBlock: EZIPEK_clean_linker_0, # of connection points: 2
#     Edge 32, Type (0, 0), BuildingBlock: EZIPEK_clean_linker_0, # of connection points: 2
#     Edge 33, Type (0, 0), BuildingBlock: EZIPEK_clean_linker_0, # of connection points: 2
#     Edge 34, Type (0, 0), BuildingBlock: EZIPEK_clean_linker_0, # of connection points: 2
#     Edge 35, Type (0, 0), BuildingBlock: EZIPEK_clean_linker_0, # of connection points: 2
#     Edge 36, Type (0, 0), BuildingBlock: EZIPEK_clean_linker_0, # of connection points: 2
#     Edge 37, Type (0, 0), BuildingBlock: EZIPEK_clean_linker_0, # of connection points: 2
#     Edge 38, Type (0, 0), BuildingBlock: EZIPEK_clean_linker_0, # of connection points: 2
#     Edge 39, Type (0, 0), BuildingBlock: EZIPEK_clean_linker_0, # of connection points: 2
#     Edge 40, Type (0, 0), BuildingBlock: EZIPEK_clean_linker_0, # of connection points: 2
#     Edge 41, Type (0, 0), BuildingBlock: EZIPEK_clean_linker_0, # of connection points: 2
#     Edge 42, Type (0, 0), BuildingBlock: EZIPEK_clean_linker_0, # of connection points: 2
#     Edge 43, Type (0, 0), BuildingBlock: EZIPEK_clean_linker_0, # of connection points: 2
#     Edge 44, Type (0, 0), BuildingBlock: EZIPEK_clean_linker_0, # of connection points: 2
#     Edge 45, Type (0, 0), BuildingBlock: EZIPEK_clean_linker_0, # of connection points: 2
#     Edge 46, Type (0, 0), BuildingBlock: EZIPEK_clean_linker_0, # of connection points: 2
#     Edge 47, Type (0, 0), BuildingBlock: EZIPEK_clean_linker_0, # of connection points: 2
#     Edge 48, Type (0, 0), BuildingBlock: EZIPEK_clean_linker_0, # of connection points: 2
#     Edge 49, Type (0, 0), BuildingBlock: EZIPEK_clean_linker_0, # of connection points: 2
#     Edge 50, Type (0, 0), BuildingBlock: EZIPEK_clean_linker_0, # of connection points: 2
#     Edge 51, Type (0, 0), BuildingBlock: EZIPEK_clean_linker_0, # of connection points: 2
#     Edge 52, Type (0, 0), BuildingBlock: EZIPEK_clean_linker_0, # of connection points: 2
#     Edge 53, Type (0, 0), BuildingBlock: EZIPEK_clean_linker_0, # of connection points: 2
#     Edge 54, Type (0, 0), BuildingBlock: EZIPEK_clean_linker_0, # of connection points: 2
#     Edge 55, Type (0, 0), BuildingBlock: EZIPEK_clean_linker_0, # of connection points: 2
#     Edge 56, Type (0, 0), BuildingBlock: EZIPEK_clean_linker_0, # of connection points: 2
#     Edge 57, Type (0, 0), BuildingBlock: EZIPEK_clean_linker_0, # of connection points: 2
#     Edge 58, Type (0, 0), BuildingBlock: EZIPEK_clean_linker_0, # of connection points: 2
#     Edge 59, Type (0, 0), BuildingBlock: EZIPEK_clean_linker_0, # of connection points: 2
#     Edge 60, Type (0, 0), BuildingBlock: EZIPEK_clean_linker_0, # of connection points: 2
#     Edge 61, Type (0, 0), BuildingBlock: EZIPEK_clean_linker_0, # of connection points: 2
#     Edge 62, Type (0, 0), BuildingBlock: EZIPEK_clean_linker_0, # of connection points: 2
#     Edge 63, Type (0, 0), BuildingBlock: EZIPEK_clean_linker_0, # of connection points: 2
#     Edge 64, Type (0, 0), BuildingBlock: EZIPEK_clean_linker_0, # of connection points: 2
#     Edge 65, Type (0, 0), BuildingBlock: EZIPEK_clean_linker_0, # of connection points: 2
#     Edge 66, Type (0, 0), BuildingBlock: EZIPEK_clean_linker_0, # of connection points: 2
#     Edge 67, Type (0, 0), BuildingBlock: EZIPEK_clean_linker_0, # of connection points: 2
#     Edge 68, Type (0, 0), BuildingBlock: EZIPEK_clean_linker_0, # of connection points: 2
#     Edge 69, Type (0, 0), BuildingBlock: EZIPEK_clean_linker_0, # of connection points: 2
#     Edge 70, Type (0, 0), BuildingBlock: EZIPEK_clean_linker_0, # of connection points: 2
#     Edge 71, Type (0, 0), BuildingBlock: EZIPEK_clean_linker_0, # of connection points: 2
# Relax obj value: 0.049
# Max RMSD: 0.069
# Mean RMSD: 0.069
data_MOF--net-afi--node1-TATPOV_clean_sbu_0--edge1-EZIPEK_clean_linker_0
_symmetry_space_group_name_H-M    P1
_symmetry_Int_Tables_number       1
_symmetry_cell_setting            triclinic
loop_
_symmetry_equiv_pos_as_xyz
'x, y, z'
_cell_length_a     48.581267
_cell_length_b     48.513199
_cell_length_c     29.71108
_cell_angle_alpha  89.943132
_cell_angle_beta   89.928885
_cell_angle_gamma 120.11429
loop_
_atom_site_label
_atom_site_type_symbol
_atom_site_fract_x
_atom_site_fract_y
_atom_site_fract_z
_atom_type_partial_charge
Zn0 Zn 0.41455 0.09141 0.35734 0.0
Zn1 Zn 0.4111 0.09701 0.2645 0.0
O2 O 0.36615 0.06279 0.28327 0.0
O3 O 0.36787 0.05928 0.35677 0.0
O4 O 0.40926 0.10133 0.19632 0.0
O5 O 0.42843 0.13772 0.36308 0.0
O6 O 0.4242 0.14111 0.28932 0.0
C7 C 0.35205 0.05109 0.32056 0.0
C8 C 0.45746 0.0788 0.30695 0.0
O9 O 0.4458 0.08549 0.27314 0.0
O10 O 0.44779 0.07893 0.34646 0.0
C11 C 0.39582 0.07707 0.17071 0.0
O12 O 0.38237 0.04842 0.18857 0.0
C13 C 0.43062 0.15374 0.3283 0.0
Zn14 Zn 0.30141 0.39981 0.29928 0.0
Zn15 Zn 0.3101 0.41575 0.20829 0.0
O16 O 0.31719 0.37799 0.2136 0.0
O17 O 0.30875 0.36353 0.28462 0.0
O18 O 0.31606 0.42668 0.14149 0.0
O19 O 0.25774 0.39411 0.29511 0.0
O20 O 0.26524 0.40683 0.22284 0.0
C21 C 0.31564 0.35941 0.245 0.0
C22 C 0.35418 0.46254 0.28012 0.0
O23 O 0.3456 0.45515 0.23933 0.0
O24 O 0.33933 0.44342 0.31199 0.0
C25 C 0.30154 0.40519 0.11193 0.0
O26 O 0.28197 0.37577 0.12491 0.0
C27 C 0.2479 0.39872 0.25804 0.0
Zn28 Zn 0.83864 0.31157 0.29681 0.0
Zn29 Zn 0.85212 0.3195 0.20886 0.0
O30 O 0.8851 0.30936 0.23517 0.0
O31 O 0.87821 0.30914 0.30805 0.0
O32 O 0.8616 0.32462 0.1413 0.0
O33 O 0.79843 0.2716 0.28541 0.0
O34 O 0.80635 0.28129 0.2125 0.0
C35 C 0.89267 0.30579 0.27496 0.0
C36 C 0.84958 0.37143 0.2652 0.0
O37 O 0.85818 0.36282 0.22982 0.0
O38 O 0.83768 0.35228 0.29786 0.0
C39 C 0.84173 0.32437 0.11311 0.0
O40 O 0.81476 0.32117 0.12782 0.0
C41 C 0.78922 0.26434 0.24523 0.0
Zn42 Zn 0.52741 0.87569 0.33041 0.0
Zn43 Zn 0.5287 0.87986 0.23689 0.0
O44 O 0.57367 0.91251 0.25742 0.0
O45 O 0.57367 0.90912 0.33112 0.0
O46 O 0.53007 0.88409 0.16837 0.0
O47 O 0.51557 0.83 0.32313 0.0
O48 O 0.51761 0.83408 0.24883 0.0
C49 C 0.58856 0.92097 0.29475 0.0
C50 C 0.48243 0.89142 0.29441 0.0
O51 O 0.49362 0.88896 0.25674 0.0
O52 O 0.49318 0.88751 0.33115 0.0
C53 C 0.54862 0.87863 0.14455 0.0
O54 O 0.56712 0.86975 0.16425 0.0
C55 C 0.51316 0.8179 0.28462 0.0
Zn56 Zn 0.66653 0.58514 0.31848 0.0
Zn57 Zn 0.66283 0.57228 0.22692 0.0
O58 O 0.65789 0.61164 0.23208 0.0
O59 O 0.66187 0.62291 0.30406 0.0
O60 O 0.66297 0.56511 0.15923 0.0
O61 O 0.70967 0.58958 0.3205 0.0
O62 O 0.70525 0.57767 0.24804 0.0
C63 C 0.65876 0.62963 0.26389 0.0
C64 C 0.61496 0.52293 0.29271 0.0
O65 O 0.62529 0.53163 0.25273 0.0
O66 O 0.62801 0.54127 0.32592 0.0
C67 C 0.63853 0.55571 0.13442 0.0
O68 O 0.61151 0.54997 0.15268 0.0
C69 C 0.72065 0.58446 0.2849 0.0
Zn70 Zn 0.12515 0.64224 0.28287 0.0
Zn71 Zn 0.11857 0.64535 0.1928 0.0
O72 O 0.07687 0.64014 0.21718 0.0
O73 O 0.08458 0.64273 0.29077 0.0
O74 O 0.11702 0.65039 0.12472 0.0
O75 O 0.16612 0.68289 0.28405 0.0
O76 O 0.15753 0.6877 0.21223 0.0
C77 C 0.06758 0.64045 0.25721 0.0
C78 C 0.1195 0.58837 0.23703 0.0
O79 O 0.1194 0.60357 0.20202 0.0
O80 O 0.12226 0.60008 0.27586 0.0
C81 C 0.10283 0.62703 0.09773 0.0
O82 O 0.08752 0.59786 0.11381 0.0
C83 C 0.17368 0.69898 0.24814 0.0
Zn84 Zn 0.87215 0.55541 0.25281 0.0
Zn85 Zn 0.87701 0.5545 0.34167 0.0
O86 O 0.92174 0.58976 0.32597 0.0
O87 O 0.91981 0.58238 0.25244 0.0
O88 O 0.87497 0.55092 0.41023 0.0
O89 O 0.84456 0.57459 0.2544 0.0
O90 O 0.84071 0.56328 0.3269 0.0
C91 C 0.93547 0.59529 0.2878 0.0
C92 C 0.85993 0.49574 0.28379 0.0
O93 O 0.87172 0.51204 0.31945 0.0
O94 O 0.85222 0.50753 0.25156 0.0
C95 C 0.89905 0.55934 0.43544 0.0
O96 O 0.92737 0.57059 0.41736 0.0
C97 C 0.83201 0.57254 0.29237 0.0
Zn98 Zn 0.31288 0.89393 0.26195 0.0
Zn99 Zn 0.30562 0.88021 0.3518 0.0
O100 O 0.29578 0.91644 0.34328 0.0
O101 O 0.29746 0.92471 0.27052 0.0
O102 O 0.30154 0.87239 0.41968 0.0
O103 O 0.28138 0.84812 0.25 0.0
O104 O 0.27292 0.8381 0.32303 0.0
C105 C 0.29168 0.93047 0.30983 0.0
C106 C 0.36877 0.90052 0.30212 0.0
O107 O 0.35071 0.88965 0.33648 0.0
O108 O 0.35914 0.90702 0.26626 0.0
C109 C 0.32416 0.89049 0.44595 0.0
O110 O 0.35016 0.91442 0.42885 0.0
C111 C 0.26707 0.82911 0.28213 0.0
Zn112 Zn 0.47008 0.33424 0.27382 0.0
Zn113 Zn 0.45303 0.33988 0.35996 0.0
O114 O 0.41631 0.33682 0.32218 0.0
O115 O 0.42796 0.32802 0.25363 0.0
O116 O 0.44153 0.3407 0.42589 0.0
O117 O 0.47215 0.29559 0.28969 0.0
O118 O 0.45483 0.29864 0.3572 0.0
C119 C 0.40972 0.33161 0.28037 0.0
C120 C 0.51234 0.39432 0.31472 0.0
O121 O 0.49401 0.38259 0.34871 0.0
O122 O 0.50745 0.37842 0.27896 0.0
C123 C 0.4612 0.34315 0.45615 0.0
O124 O 0.48862 0.34628 0.44384 0.0
C125 C 0.4624 0.28412 0.32846 0.0
Zn126 Zn 0.07365 0.39528 0.22867 0.0
Zn127 Zn 0.08169 0.40585 0.32053 0.0
O128 O 0.03669 0.36713 0.31273 0.0
O129 O 0.03012 0.35816 0.24018 0.0
O130 O 0.08734 0.41242 0.38866 0.0
O131 O 0.11155 0.38928 0.22793 0.0
O132 O 0.11812 0.3989 0.30109 0.0
C133 C 0.0197 0.3503 0.27995 0.0
C134 C 0.08753 0.4579 0.25569 0.0
O135 O 0.08832 0.44812 0.29526 0.0
O136 O 0.08106 0.43983 0.22189 0.0
C137 C 0.06594 0.41186 0.41409 0.0
O138 O 0.03905 0.4068 0.39632 0.0
C139 C 0.12686 0.39269 0.26386 0.0
Zn140 Zn 0.62755 0.08092 0.24517 0.0
Zn141 Zn 0.63834 0.09376 0.3367 0.0
O142 O 0.64725 0.05719 0.32642 0.0
O143 O 0.63981 0.04756 0.25394 0.0
O144 O 0.64384 0.10254 0.40463 0.0
O145 O 0.66203 0.12535 0.23251 0.0
O146 O 0.67145 0.13506 0.30544 0.0
C147 C 0.64812 0.04217 0.29181 0.0
C148 C 0.57399 0.07576 0.2916 0.0
O149 O 0.59262 0.08355 0.32531 0.0
O150 O 0.5828 0.07219 0.25304 0.0
C151 C 0.63476 0.08002 0.43329 0.0
O152 O 0.62221 0.05055 0.41888 0.0
C153 C 0.67766 0.14384 0.26438 0.0
Zn154 Zn 0.50477 0.64357 0.24693 0.0
Zn155 Zn 0.51666 0.64892 0.33833 0.0
O156 O 0.55895 0.65913 0.30893 0.0
O157 O 0.55013 0.65504 0.2362 0.0
O158 O 0.52662 0.65389 0.4058 0.0
O159 O 0.49591 0.67947 0.25112 0.0
O160 O 0.50699 0.68435 0.32386 0.0
C161 C 0.56933 0.66226 0.2687 0.0
C162 C 0.46352 0.58681 0.29567 0.0
O163 O 0.47931 0.60301 0.32967 0.0
O164 O 0.47004 0.59856 0.25647 0.0
C165 C 0.50801 0.63523 0.43612 0.0
O166 O 0.48023 0.61114 0.42455 0.0
C167 C 0.49925 0.69347 0.28826 0.0
Zn168 Zn 0.56285 0.8962 0.76268 0.0
Zn169 Zn 0.54974 0.89022 0.85416 0.0
O170 O 0.59089 0.933 0.84592 0.0
O171 O 0.60367 0.93672 0.77439 0.0
O172 O 0.541 0.8864 0.92202 0.0
O173 O 0.56103 0.85415 0.76463 0.0
O174 O 0.5521 0.85043 0.83806 0.0
C175 C 0.60995 0.94821 0.81373 0.0
C176 C 0.50434 0.89412 0.78572 0.0
O177 O 0.51141 0.89049 0.82577 0.0
O178 O 0.5226 0.89783 0.75299 0.0
C179 C 0.56258 0.89129 0.95048 0.0
O180 O 0.59126 0.89943 0.93618 0.0
C181 C 0.55617 0.8393 0.80144 0.0
Zn182 Zn 0.65261 0.53613 0.75488 0.0
Zn183 Zn 0.65202 0.54776 0.84559 0.0
O184 O 0.65766 0.58807 0.81413 0.0
O185 O 0.65707 0.57872 0.74181 0.0
O186 O 0.65185 0.55664 0.91282 0.0
O187 O 0.69236 0.53438 0.76468 0.0
O188 O 0.69129 0.54299 0.83757 0.0
C189 C 0.66024 0.59752 0.77342 0.0
C190 C 0.59583 0.48999 0.79928 0.0
O191 O 0.60897 0.50712 0.83387 0.0
O192 O 0.60968 0.49697 0.76146 0.0
C193 C 0.64095 0.53433 0.94196 0.0
O194 O 0.62932 0.50475 0.92853 0.0
C195 C 0.70444 0.53844 0.80348 0.0
Zn196 Zn 0.09822 0.64998 0.72129 0.0
Zn197 Zn 0.09451 0.65035 0.8112 0.0
O198 O 0.06101 0.66117 0.79067 0.0
O199 O 0.0687 0.66797 0.71778 0.0
O200 O 0.09184 0.64916 0.8798 0.0
O201 O 0.14579 0.6787 0.72596 0.0
O202 O 0.13908 0.68675 0.79688 0.0
C203 C 0.05499 0.66966 0.75305 0.0
C204 C 0.08064 0.59018 0.75723 0.0
O205 O 0.08668 0.60581 0.79386 0.0
O206 O 0.08098 0.60299 0.72001 0.0
C207 C 0.10801 0.6402 0.90293 0.0
O208 O 0.12685 0.63218 0.88217 0.0
C209 C 0.15683 0.69396 0.76218 0.0
Zn210 Zn 0.39421 0.08596 0.79039 0.0
Zn211 Zn 0.40522 0.08946 0.8812 0.0
O212 O 0.364 0.04676 0.87085 0.0
O213 O 0.35357 0.04474 0.79883 0.0
O214 O 0.41149 0.09055 0.94925 0.0
O215 O 0.39505 0.12744 0.79372 0.0
O216 O 0.40362 0.13007 0.86711 0.0
C217 C 0.3458 0.03246 0.83768 0.0
C218 C 0.45353 0.09029 0.8135 0.0
O219 O 0.44515 0.09165 0.85378 0.0
O220 O 0.43568 0.08702 0.78054 0.0
C221 C 0.38885 0.08531 0.97601 0.0
O222 O 0.36155 0.07989 0.95934 0.0
C223 C 0.40005 0.14194 0.8308 0.0
Zn224 Zn 0.32031 0.44603 0.7342 0.0
Zn225 Zn 0.31342 0.44267 0.8271 0.0
O226 O 0.30862 0.39999 0.80871 0.0
O227 O 0.3127 0.40139 0.73513 0.0
O228 O 0.30832 0.43955 0.89537 0.0
O229 O 0.28205 0.45126 0.73044 0.0
O230 O 0.27586 0.44637 0.80438 0.0
C231 C 0.3072 0.38611 0.77171 0.0
C232 C 0.37419 0.49489 0.78102 0.0
O233 O 0.35735 0.48197 0.81599 0.0
O234 O 0.36412 0.48375 0.74219 0.0
C235 C 0.32069 0.42672 0.91914 0.0
O236 O 0.33768 0.41601 0.89941 0.0
C237 C 0.26672 0.44976 0.76567 0.0
Zn238 Zn 0.8742 0.33195 0.7311 0.0
Zn239 Zn 0.86541 0.32373 0.8239 0.0
O240 O 0.90021 0.31279 0.80998 0.0
O241 O 0.9063 0.3177 0.73665 0.0
O242 O 0.85931 0.31786 0.89252 0.0
O243 O 0.82862 0.29873 0.72277 0.0
O244 O 0.82244 0.29129 0.79653 0.0
C245 C 0.91302 0.31005 0.77409 0.0
C246 C 0.88444 0.38792 0.77677 0.0
O247 O 0.87725 0.37002 0.81135 0.0
O248 O 0.88578 0.3777 0.73815 0.0
C249 C 0.86189 0.33945 0.91953 0.0
O250 O 0.86874 0.36744 0.90359 0.0
C251 C 0.81148 0.28454 0.75658 0.0
Zn252 Zn 0.08399 0.42102 0.7969 0.0
Zn253 Zn 0.07994 0.4165 0.70371 0.0
O254 O 0.04435 0.37362 0.72774 0.0
O255 O 0.04795 0.37606 0.80139 0.0
O256 O 0.07655 0.41117 0.63533 0.0
O257 O 0.12863 0.42961 0.79184 0.0
O258 O 0.12485 0.42566 0.71763 0.0
C259 C 0.03487 0.36034 0.76613 0.0
C260 C 0.07329 0.46803 0.75446 0.0
O261 O 0.07428 0.45465 0.71808 0.0
O262 O 0.07616 0.45786 0.79239 0.0
C263 C 0.08069 0.43298 0.6076 0.0
O264 O 0.08765 0.46116 0.62281 0.0
C265 C 0.14066 0.43041 0.75376 0.0
Zn266 Zn 0.64185 0.12956 0.80641 0.0
Zn267 Zn 0.63103 0.11135 0.71878 0.0
O268 O 0.63586 0.07587 0.74949 0.0
O269 O 0.65052 0.09419 0.81857 0.0
O270 O 0.62521 0.10154 0.65129 0.0
O271 O 0.67824 0.17177 0.79097 0.0
O272 O 0.67169 0.15551 0.72038 0.0
C273 C 0.64418 0.07299 0.78921 0.0
C274 C 0.57963 0.11328 0.77673 0.0
O275 O 0.5894 0.10914 0.73886 0.0
O276 O 0.59749 0.12205 0.81094 0.0
C277 C 0.64599 0.09943 0.62766 0.0
O278 O 0.67138 0.10211 0.64749 0.0
C279 C 0.68729 0.17628 0.75044 0.0
Zn280 Zn 0.55208 0.66378 0.81276 0.0
Zn281 Zn 0.54486 0.66596 0.72057 0.0
O282 O 0.58691 0.66613 0.72681 0.0
O283 O 0.59356 0.66581 0.79981 0.0
O284 O 0.53802 0.66674 0.65293 0.0
O285 O 0.55133 0.70446 0.81848 0.0
O286 O 0.5472 0.70667 0.74452 0.0
C287 C 0.60377 0.66705 0.76018 0.0
C288 C 0.49555 0.6104 0.77923 0.0
O289 O 0.50549 0.62476 0.74168 0.0
O290 O 0.51123 0.62177 0.81506 0.0
C291 C 0.53906 0.64656 0.62665 0.0
O292 O 0.54556 0.62535 0.64322 0.0
C293 C 0.54949 0.71841 0.78362 0.0
Zn294 Zn 0.88991 0.56388 0.81477 0.0
Zn295 Zn 0.8784 0.5557 0.72309 0.0
O296 O 0.91735 0.60003 0.73032 0.0
O297 O 0.92574 0.60828 0.80278 0.0
O298 O 0.87256 0.55186 0.65509 0.0
O299 O 0.84563 0.5564 0.82255 0.0
O300 O 0.8373 0.55115 0.74897 0.0
C301 C 0.93284 0.6184 0.76274 0.0
C302 C 0.89207 0.51023 0.77788 0.0
O303 O 0.88463 0.51858 0.74131 0.0
O304 O 0.89679 0.52613 0.81367 0.0
C305 C 0.89553 0.55509 0.63058 0.0
O306 O 0.92182 0.55963 0.64979 0.0
C307 C 0.82788 0.5516 0.78888 0.0
Zn308 Zn 0.32578 0.86379 0.82138 0.0
Zn309 Zn 0.31968 0.87624 0.73598 0.0
O310 O 0.31109 0.90792 0.76985 0.0
O311 O 0.30903 0.89276 0.83992 0.0
O312 O 0.31515 0.88318 0.66908 0.0
O313 O 0.29624 0.81696 0.81117 0.0
O314 O 0.2836 0.83081 0.74758 0.0
C315 C 0.30515 0.90981 0.81124 0.0
C316 C 0.38295 0.8856 0.77511 0.0
O317 O 0.36543 0.88362 0.74189 0.0
O318 O 0.37222 0.88063 0.81482 0.0
C319 C 0.32627 0.87252 0.63925 0.0
O320 O 0.34069 0.85705 0.65206 0.0
C321 C 0.27814 0.80979 0.77743 0.0
Zn322 Zn 0.41672 0.32322 0.83438 0.0
Zn323 Zn 0.42281 0.31888 0.74203 0.0
O324 O 0.3808 0.31832 0.74976 0.0
O325 O 0.37502 0.32092 0.82257 0.0
O326 O 0.42704 0.31678 0.67368 0.0
O327 O 0.41633 0.28202 0.84103 0.0
O328 O 0.41985 0.27811 0.76721 0.0
C329 C 0.36406 0.31781 0.7831 0.0
C330 C 0.47338 0.37539 0.79835 0.0
O331 O 0.46286 0.36022 0.76154 0.0
O332 O 0.45798 0.36494 0.83471 0.0
C333 C 0.44085 0.34183 0.6494 0.0
O334 O 0.45287 0.36986 0.66871 0.0
C335 C 0.41733 0.26701 0.80689 0.0
C336 C 0.30367 0.00896 0.28023 0.0
C337 C 0.31899 0.02335 0.32114 0.0
C338 C 0.29093 0.97218 0.35952 0.0
C339 C 0.28634 0.95787 0.31662 0.0
N340 N 0.26923 0.95907 0.24122 0.0
N341 N 0.31066 0.02191 0.40101 0.0
C342 C 0.28601 0.97518 0.2784 0.0
C343 C 0.30684 0.00595 0.36164 0.0
N344 N 0.30686 0.02753 0.24388 0.0
N345 N 0.28079 0.95361 0.39721 0.0
H346 H 0.32039 0.04661 0.40139 0.0
H347 H 0.30199 0.01087 0.43197 0.0
H348 H 0.26588 0.92895 0.39516 0.0
H349 H 0.28609 0.96245 0.42986 0.0
H350 H 0.29871 0.01872 0.21177 0.0
H351 H 0.31714 0.0522 0.24688 0.0
H352 H 0.2675 0.96997 0.21205 0.0
H353 H 0.25493 0.93426 0.24152 0.0
C354 C 0.35096 0.31104 0.283 0.0
C355 C 0.38102 0.3308 0.26233 0.0
C356 C 0.35565 0.34919 0.20888 0.0
C357 C 0.32964 0.33855 0.23859 0.0
N358 N 0.2972 0.30119 0.29549 0.0
N359 N 0.41221 0.37062 0.20558 0.0
C360 C 0.32537 0.3163 0.27263 0.0
C361 C 0.38341 0.34989 0.22447 0.0
N362 N 0.34701 0.28732 0.31177 0.0
N363 N 0.35391 0.3589 0.16642 0.0
H364 H 0.43382 0.37405 0.21763 0.0
H365 H 0.41482 0.38694 0.1807 0.0
H366 H 0.33269 0.35615 0.15354 0.0
H367 H 0.37192 0.36532 0.14261 0.0
H368 H 0.32523 0.27083 0.32581 0.0
H369 H 0.3652 0.28246 0.31867 0.0
H370 H 0.29331 0.28735 0.32415 0.0
H371 H 0.27766 0.30312 0.2853 0.0
C372 C 0.93563 0.30766 0.32531 0.0
C373 C 0.92082 0.30158 0.28246 0.0
C374 C 0.96867 0.3057 0.24901 0.0
C375 C -0.01403 0.32421 0.28664 0.0
N376 N -0.01499 0.33008 0.36718 0.0
N377 N 0.91852 0.2801 0.20854 0.0
C378 C 0.96919 0.32104 0.32723 0.0
C379 C 0.93579 0.29561 0.24574 0.0
N380 N 0.91747 0.29846 0.36347 0.0
N381 N -0.01641 0.29695 0.21797 0.0
H382 H 0.89368 0.26806 0.20858 0.0
H383 H 0.92856 0.27853 0.17838 0.0
H384 H 0.00692 0.30186 0.22271 0.0
H385 H 0.97225 0.28223 0.1906 0.0
H386 H 0.92667 0.30091 0.39577 0.0
H387 H 0.89276 0.28425 0.36235 0.0
H388 H 0.97518 0.33318 0.39657 0.0
H389 H 0.00773 0.33322 0.37099 0.0
C390 C 0.63644 0.96491 0.25591 0.0
C391 C 0.62138 0.94903 0.29631 0.0
C392 C 0.64917 -0.00111 0.33772 0.0
C393 C 0.65346 0.01459 0.29592 0.0
N394 N 0.66995 0.01617 0.21931 0.0
N395 N 0.63023 0.94789 0.37568 0.0
C396 C 0.65373 -0.0013 0.25611 0.0
C397 C 0.63351 0.96507 0.33767 0.0
N398 N 0.63317 0.94763 0.21808 0.0
N399 N 0.6596 0.01617 0.37642 0.0
H400 H 0.62118 0.92332 0.37432 0.0
H401 H 0.63886 0.95792 0.40711 0.0
H402 H 0.67472 0.04083 0.37581 0.0
H403 H 0.65445 0.00624 0.40853 0.0
H404 H 0.64122 0.95752 0.18635 0.0
H405 H 0.62282 0.92287 0.21939 0.0
H406 H 0.67157 0.00638 0.18898 0.0
H407 H 0.68383 0.04099 0.2209 0.0
C408 C 0.6251 0.68012 0.29614 0.0
C409 C 0.60309 0.67093 0.26014 0.0
C410 C 0.63556 0.6559 0.21525 0.0
C411 C 0.65029 0.65485 0.25587 0.0
N412 N 0.67398 0.68373 0.32387 0.0
N413 N 0.60108 0.67218 0.17912 0.0
C414 C 0.65006 0.67305 0.29294 0.0
C415 C 0.61254 0.66576 0.21722 0.0
N416 N 0.62208 0.69556 0.33252 0.0
N417 N 0.64369 0.64779 0.17552 0.0
H418 H 0.58786 0.68373 0.18033 0.0
H419 H 0.60783 0.67 0.14668 0.0
H420 H 0.66407 0.6459 0.17234 0.0
H421 H 0.63101 0.644 0.14576 0.0
H422 H 0.63499 0.69979 0.36215 0.0
H423 H 0.60699 0.70506 0.33211 0.0
H424 H 0.67611 0.698 0.35127 0.0
H425 H 0.69347 0.68045 0.31927 0.0
C426 C 0.02232 0.65137 0.2592 0.0
C427 C 0.03405 0.63019 0.26567 0.0
C428 C -0.01714 0.58949 0.29596 0.0
C429 C 0.97013 0.60942 0.28559 0.0
N430 N 0.97599 0.65796 0.2546 0.0
N431 N 0.02473 0.57742 0.28235 0.0
C432 C -0.01061 0.64008 0.26647 0.0
C433 C 0.01418 0.59884 0.28217 0.0
N434 N 0.04277 0.68228 0.24709 0.0
N435 N 0.96495 0.56141 0.31868 0.0
H436 H 0.04751 0.58307 0.27203 0.0
H437 H 0.01008 0.55318 0.28872 0.0
H438 H 0.9412 0.55248 0.32748 0.0
H439 H 0.97433 0.54803 0.33206 0.0
H440 H 0.03643 0.69983 0.24604 0.0
H441 H 0.06687 0.69092 0.24076 0.0
H442 H -0.01221 0.67899 0.23608 0.0
H443 H 0.95228 0.65085 0.2616 0.0
C444 C 0.62921 -0.00077 0.85395 0.0
C445 C 0.63417 0.98256 0.81921 0.0
C446 C 0.65987 0.03167 0.77466 0.0
C447 C 0.64444 0.04373 0.8024 0.0
N448 N 0.61192 0.03676 0.8687 0.0
N449 N 0.66446 0.98554 0.75374 0.0
C450 C 0.62911 0.02743 0.84289 0.0
C451 C 0.65335 -8e-05 0.78201 0.0
N452 N 0.62383 0.98765 0.89681 0.0
N453 N 0.68077 0.05061 0.74215 0.0
H454 H 0.66212 0.96348 0.76166 0.0
H455 H 0.67569 -0.00488 0.72316 0.0
H456 H 0.68675 0.0743 0.73746 0.0
H457 H 0.69408 0.04391 0.72232 0.0
H458 H 0.62183 0.00011 0.92402 0.0
H459 H 0.62561 0.9677 0.90529 0.0
H460 H 0.59834 0.02349 0.89617 0.0
H461 H 0.60806 0.05536 0.86018 0.0
C462 C 0.65513 0.63478 0.71908 0.0
C463 C 0.66242 0.62871 0.7629 0.0
C464 C 0.65252 0.66977 0.79239 0.0
C465 C 0.63322 0.66503 0.75417 0.0
N466 N 0.62777 0.65535 0.67405 0.0
N467 N 0.68307 0.65173 0.83551 0.0
C468 C 0.63848 0.65176 0.71481 0.0
C469 C 0.66633 0.65022 0.79784 0.0
N470 N 0.6658 0.62609 0.68225 0.0
N471 N 0.65757 0.6931 0.82246 0.0
H472 H 0.69688 0.6408 0.83696 0.0
H473 H 0.68404 0.66427 0.86441 0.0
H474 H 0.64901 0.70869 0.81655 0.0
H475 H 0.67217 0.69881 0.85056 0.0
H476 H 0.66258 0.63113 0.64927 0.0
H477 H 0.68158 0.6175 0.68516 0.0
H478 H 0.6265 0.64224 0.64562 0.0
H479 H 0.62124 0.67252 0.6685 0.0
C480 C 0.97751 0.65566 0.71114 0.0
C481 C 0.96288 0.64902 0.75415 0.0
C482 C 0.01452 0.67995 0.78995 0.0
C483 C 0.02816 0.67621 0.74994 0.0
N484 N 0.02744 0.68083 0.66933 0.0
N485 N 0.96615 0.67138 0.82731 0.0
C486 C 0.01123 0.67076 0.70903 0.0
C487 C -0.01891 0.66707 0.79139 0.0
N488 N 0.95923 0.64737 0.67329 0.0
N489 N 0.03349 0.69485 0.8261 0.0
H490 H 0.94177 0.66334 0.82661 0.0
H491 H 0.97788 0.6849 0.85547 0.0
H492 H 0.05827 0.7067 0.82346 0.0
H493 H 0.02498 0.69595 0.8578 0.0
H494 H 0.96783 0.64813 0.64096 0.0
H495 H 0.93518 0.6406 0.67468 0.0
H496 H 0.01664 0.67812 0.63817 0.0
H497 H 0.05216 0.69517 0.66847 0.0
C498 C 0.29999 0.98423 0.80335 0.0
C499 C 0.31886 -0.00104 0.84183 0.0
C500 C 0.30439 0.94642 0.87127 0.0
C501 C 0.29815 0.93508 0.8263 0.0
N502 N 0.27535 0.93732 0.75547 0.0
N503 N 0.32622 -0.00749 0.92061 0.0
C504 C 0.29078 0.95202 0.7942 0.0
C505 C 0.3167 0.9795 0.87888 0.0
N506 N 0.29096 0.00116 0.77655 0.0
N507 N 0.29688 0.92548 0.90612 0.0
H508 H 0.32979 0.01503 0.92839 0.0
H509 H 0.32959 0.98077 0.94753 0.0
H510 H 0.2838 0.90089 0.90124 0.0
H511 H 0.29972 0.93204 0.93987 0.0
H512 H 0.2762 -0.00822 0.74868 0.0
H513 H 0.29615 0.02413 0.78527 0.0
H514 H 0.27225 0.94908 0.72837 0.0
H515 H 0.26509 0.91274 0.75117 0.0
C516 C 0.30874 0.34142 0.7312 0.0
C517 C 0.30399 0.35387 0.7717 0.0
C518 C 0.31667 0.31888 0.81438 0.0
C519 C 0.33385 0.31821 0.77622 0.0
N520 N 0.33294 0.31377 0.69528 0.0
N521 N 0.28749 0.34189 0.8492 0.0
C522 C 0.32534 0.32431 0.73326 0.0
C523 C 0.30241 0.3382 0.81271 0.0
N524 N 0.29619 0.34488 0.69197 0.0
N525 N 0.31354 0.30043 0.8509 0.0
H526 H 0.27295 0.35194 0.84633 0.0
H527 H 0.28863 0.33426 0.88153 0.0
H528 H 0.32165 0.28416 0.85023 0.0
H529 H 0.30055 0.29888 0.8796 0.0
H530 H 0.29772 0.33545 0.66127 0.0
H531 H 0.28108 0.35437 0.69154 0.0
H532 H 0.33122 0.32095 0.66289 0.0
H533 H 0.33991 0.29665 0.6965 0.0
C534 C -0.01372 0.31446 0.73131 0.0
C535 C 0.0046 0.32924 0.77013 0.0
C536 C 0.95656 0.3066 0.81603 0.0
C537 C 0.93949 0.30287 0.7757 0.0
N538 N 0.933 0.28389 0.69964 0.0
N539 N 0.00801 0.32136 0.84928 0.0
C540 C 0.95271 0.30008 0.73458 0.0
C541 C -0.01005 0.31919 0.81288 0.0
N542 N 0.00113 0.31493 0.69209 0.0
N543 N 0.941 0.29844 0.85635 0.0
H544 H 0.03198 0.32813 0.84572 0.0
H545 H -0.00101 0.31389 0.88156 0.0
H546 H 0.91624 0.2849 0.85823 0.0
H547 H 0.95236 0.30373 0.88742 0.0
H548 H -0.01037 0.30712 0.66131 0.0
H549 H 0.0254 0.32252 0.69124 0.0
H550 H 0.94072 0.28042 0.66861 0.0
H551 H 0.90829 0.27171 0.70358 0.0
C552 C 0.47057 0.21096 0.34174 0.0
C553 C 0.4386 0.18702 0.33349 0.0
C554 C 0.42168 0.22672 0.33337 0.0
C555 C 0.45413 0.25098 0.33663 0.0
N556 N 0.50966 0.2675 0.34326 0.0
N557 N 0.38353 0.17085 0.3207 0.0
C558 C 0.47866 0.24346 0.34104 0.0
C559 C 0.41403 0.19452 0.32951 0.0
N560 N 0.49304 0.20251 0.35019 0.0
N561 N 0.39821 0.23452 0.33361 0.0
H562 H 0.37661 0.14672 0.32027 0.0
H563 H 0.3652 0.1749 0.31159 0.0
H564 H 0.40265 0.25787 0.33365 0.0
H565 H 0.37408 0.21796 0.33663 0.0
H566 H 0.51609 0.21839 0.36075 0.0
H567 H 0.48813 0.17899 0.34926 0.0
H568 H 0.5291 0.26405 0.34125 0.0
H569 H 0.5161 0.29147 0.34541 0.0
C570 C 0.18466 0.42206 0.24621 0.0
C571 C 0.15749 0.39364 0.26115 0.0
C572 C 0.18888 0.3672 0.26733 0.0
C573 C 0.21661 0.39655 0.25677 0.0
N574 N 0.24213 0.45331 0.24379 0.0
N575 N 0.13346 0.34017 0.29042 0.0
C576 C 0.21487 0.42436 0.24794 0.0
C577 C 0.1595 0.36646 0.2731 0.0
N578 N 0.18158 0.44681 0.23012 0.0
N579 N 0.19051 0.33991 0.27022 0.0
H580 H 0.11129 0.33852 0.29364 0.0
H581 H 0.13428 0.3209 0.30439 0.0
H582 H 0.21162 0.33956 0.26548 0.0
H583 H 0.17063 0.31727 0.27342 0.0
H584 H 0.19988 0.46657 0.21388 0.0
H585 H 0.16002 0.44662 0.2298 0.0
H586 H 0.24235 0.47487 0.24263 0.0
H587 H 0.26489 0.45626 0.24552 0.0
C588 C 0.73242 0.17718 0.23366 0.0
C589 C 0.70482 0.17526 0.25317 0.0
C590 C 0.73066 0.23329 0.25592 0.0
C591 C 0.75855 0.23515 0.23774 0.0
N592 N 0.78387 0.21028 0.19856 0.0
N593 N 0.67446 0.20026 0.27343 0.0
C594 C 0.7586 0.20751 0.22265 0.0
C595 C 0.70291 0.203 0.26133 0.0
N596 N 0.73432 0.15016 0.22829 0.0
N597 N 0.73123 0.26056 0.26914 0.0
H598 H 0.65375 0.17829 0.27787 0.0
H599 H 0.67066 0.21949 0.27588 0.0
H600 H 0.75054 0.2832 0.26252 0.0
H601 H 0.71324 0.26087 0.28777 0.0
H602 H 0.75509 0.1503 0.21924 0.0
H603 H 0.71572 0.12741 0.23618 0.0
H604 H 0.78396 0.19118 0.18278 0.0
H605 H 0.80378 0.23216 0.19073 0.0
C606 C 0.47845 0.75902 0.29346 0.0
C607 C 0.50844 0.78561 0.28198 0.0
C608 C 0.5323 0.75177 0.2778 0.0
C609 C 0.50204 0.72497 0.28739 0.0
N610 N 0.44562 0.70138 0.29892 0.0
N611 N 0.56289 0.80757 0.25731 0.0
C612 C 0.47483 0.72807 0.29366 0.0
C613 C 0.53504 0.78203 0.27216 0.0
N614 N 0.45369 0.76355 0.30468 0.0
N615 N 0.55862 0.74838 0.27544 0.0
H616 H 0.56661 0.83063 0.25505 0.0
H617 H 0.58178 0.80571 0.24423 0.0
H618 H 0.55763 0.72646 0.27805 0.0
H619 H 0.58185 0.76743 0.27408 0.0
H620 H 0.43226 0.74586 0.31817 0.0
H621 H 0.45506 0.78567 0.30238 0.0
H622 H 0.42429 0.70155 0.29911 0.0
H623 H 0.4425 0.67849 0.30052 0.0
C624 C 0.77942 0.60927 0.29499 0.0
C625 C 0.74931 0.58171 0.28792 0.0
C626 C 0.77357 0.54818 0.2855 0.0
C627 C 0.80349 0.57551 0.2944 0.0
N628 N 0.8351 0.63089 0.3143 0.0
N629 N 0.7163 0.52438 0.28543 0.0
C630 C 0.80649 0.60577 0.30128 0.0
C631 C 0.74595 0.55097 0.28566 0.0
N632 N 0.78217 0.63874 0.29408 0.0
N633 N 0.7717 0.51972 0.27565 0.0
H634 H 0.69532 0.52532 0.28525 0.0
H635 H 0.7123 0.50131 0.28916 0.0
H636 H 0.7912 0.51624 0.27712 0.0
H637 H 0.75128 0.50005 0.26318 0.0
H638 H 0.80384 0.66001 0.29447 0.0
H639 H 0.7627 0.64203 0.2897 0.0
H640 H 0.83828 0.6529 0.32407 0.0
H641 H 0.85539 0.62897 0.31862 0.0
C642 C 0.18909 0.75622 0.25109 0.0
C643 C 0.19837 0.73273 0.25061 0.0
C644 C 0.25251 0.77238 0.27266 0.0
C645 C 0.24348 0.796 0.27146 0.0
N646 N 0.20557 0.81234 0.2521 0.0
N647 N 0.23918 0.71849 0.25296 0.0
C648 C 0.21252 0.78853 0.25814 0.0
C649 C 0.23024 0.74085 0.25903 0.0
N650 N 0.15765 0.74745 0.24754 0.0
N651 N 0.28217 0.78005 0.28747 0.0
H652 H 0.22327 0.69526 0.2426 0.0
H653 H 0.26263 0.72347 0.25442 0.0
H654 H 0.29945 0.80317 0.29634 0.0
H655 H 0.28914 0.76333 0.29368 0.0
H656 H 0.14905 0.76294 0.25333 0.0
H657 H 0.13955 0.72406 0.24206 0.0
H658 H 0.18465 0.8088 0.23722 0.0
H659 H 0.22168 0.83622 0.25904 0.0
C660 C 0.52266 0.75055 0.78995 0.0
C661 C 0.55118 0.74931 0.78874 0.0
C662 C 0.58306 0.80713 0.7981 0.0
C663 C 0.5545 0.80823 0.80098 0.0
N664 N 0.49728 0.7817 0.80579 0.0
N665 N 0.60815 0.77471 0.7972 0.0
C666 C 0.52429 0.78009 0.79887 0.0
C667 C 0.58131 0.77713 0.79451 0.0
N668 N 0.49417 0.72358 0.78165 0.0
N669 N 0.61176 0.83487 0.79778 0.0
H670 H 0.60799 0.7533 0.79267 0.0
H671 H 0.63035 0.79341 0.80651 0.0
H672 H 0.61399 0.85719 0.8028 0.0
H673 H 0.63329 0.83613 0.79031 0.0
H674 H 0.47282 0.72335 0.77722 0.0
H675 H 0.49206 0.70134 0.77631 0.0
H676 H 0.47469 0.76183 0.80929 0.0
H677 H 0.49758 0.80309 0.81119 0.0
C678 C 0.73837 0.51342 0.79916 0.0
C679 C 0.73571 0.54077 0.80753 0.0
C680 C 0.79359 0.57506 0.80432 0.0
C681 C 0.79623 0.5477 0.79627 0.0
N682 N 0.7728 0.49063 0.7939 0.0
N683 N 0.76007 0.59672 0.82561 0.0
C684 C 0.76908 0.51674 0.79606 0.0
C685 C 0.76315 0.5713 0.81287 0.0
N686 N 0.71148 0.48444 0.79333 0.0
N687 N 0.82006 0.60474 0.80159 0.0
H688 H 0.73818 0.59546 0.82996 0.0
H689 H 0.77913 0.61868 0.83507 0.0
H690 H 0.84287 0.60844 0.79592 0.0
H691 H 0.8194 0.62585 0.80176 0.0
H692 H 0.71157 0.46426 0.78173 0.0
H693 H 0.68864 0.48083 0.79844 0.0
H694 H 0.75429 0.46732 0.79816 0.0
H695 H 0.79501 0.49232 0.79093 0.0
C696 C 0.23737 0.76524 0.73014 0.0
C697 C 0.24959 0.77754 0.77346 0.0
C698 C 0.2066 0.72848 0.80576 0.0
C699 C 0.19009 0.72097 0.7642 0.0
N700 N 0.18894 0.73878 0.68774 0.0
N701 N 0.23927 0.77219 0.8544 0.0
C702 C 0.20521 0.74093 0.72627 0.0
C703 C 0.23266 0.75952 0.81207 0.0
N704 N 0.25627 0.77623 0.6928 0.0
N705 N 0.19792 0.70617 0.83898 0.0
H706 H 0.25508 0.79607 0.86123 0.0
H707 H 0.2255 0.75975 0.88224 0.0
H708 H 0.1806 0.68234 0.8343 0.0
H709 H 0.21096 0.71059 0.86863 0.0
H710 H 0.24834 0.76619 0.66106 0.0
H711 H 0.28071 0.7921 0.69464 0.0
H712 H 0.19937 0.75482 0.66114 0.0
H713 H 0.16443 0.72435 0.68435 0.0
C714 C 0.38296 0.20795 0.80479 0.0
C715 C 0.41309 0.2351 0.81363 0.0
C716 C 0.43422 0.20109 0.83764 0.0
C717 C 0.40373 0.17397 0.83039 0.0
N718 N 0.34776 0.15116 0.81574 0.0
N719 N 0.46596 0.25855 0.84464 0.0
C720 C 0.37769 0.1773 0.81641 0.0
C721 C 0.43825 0.23198 0.83217 0.0
N722 N 0.35949 0.2115 0.78502 0.0
N723 N 0.45967 0.19735 0.84729 0.0
H724 H 0.47055 0.28167 0.83866 0.0
H725 H 0.48366 0.25777 0.86337 0.0
H726 H 0.4577 0.17521 0.85259 0.0
H727 H 0.48315 0.21599 0.84723 0.0
H728 H 0.33835 0.19255 0.77294 0.0
H729 H 0.36186 0.23365 0.77794 0.0
H730 H 0.32719 0.15225 0.81014 0.0
H731 H 0.34314 0.12845 0.82489 0.0
C732 C 0.19906 0.46725 0.76163 0.0
C733 C 0.17336 0.43631 0.75198 0.0
C734 C 0.20902 0.41451 0.7522 0.0
C735 C 0.23486 0.44558 0.76066 0.0
N736 N 0.25632 0.50217 0.76716 0.0
N737 N 0.15368 0.38152 0.73104 0.0
C738 C 0.23044 0.47222 0.76352 0.0
C739 C 0.17832 0.41026 0.74485 0.0
N740 N 0.19326 0.49165 0.76964 0.0
N741 N 0.21371 0.38892 0.75289 0.0
H742 H 0.13047 0.37705 0.72714 0.0
H743 H 0.15649 0.36266 0.72028 0.0
H744 H 0.236 0.39104 0.7572 0.0
H745 H 0.19534 0.36532 0.75234 0.0
H746 H 0.21022 0.51386 0.78187 0.0
H747 H 0.17082 0.48928 0.76586 0.0
H748 H 0.2552 0.52298 0.76491 0.0
H749 H 0.27955 0.50638 0.76962 0.0
C750 C 0.7758 0.22705 0.74063 0.0
C751 C 0.77944 0.25748 0.74887 0.0
C752 C 0.72184 0.23522 0.74708 0.0
C753 C 0.71813 0.20462 0.74011 0.0
N754 N 0.74075 0.17185 0.72021 0.0
N755 N 0.7577 0.29246 0.75102 0.0
C756 C 0.7449 0.20074 0.7332 0.0
C757 C 0.75295 0.26221 0.74915 0.0
N758 N 0.80179 0.22311 0.74207 0.0
N759 N 0.69548 0.23812 0.75296 0.0
H760 H 0.78028 0.31263 0.75348 0.0
H761 H 0.73967 0.29791 0.7472 0.0
H762 H 0.67241 0.21904 0.74852 0.0
H763 H 0.69624 0.25894 0.7635 0.0
H764 H 0.80043 0.20102 0.74197 0.0
H765 H 0.82498 0.24197 0.74635 0.0
H766 H 0.75927 0.16835 0.71002 0.0
H767 H 0.71852 0.15161 0.71596 0.0
C768 C 0.38365 0.09928 0.10134 0.0
C769 C 0.39583 0.08083 0.12086 0.0
C770 C 0.40215 0.06406 0.04532 0.0
C771 C 0.39273 0.08477 1.02574 0.0
N772 N 0.38148 0.12754 0.03538 0.0
N773 N 0.42377 0.05183 0.11076 0.0
C774 C 0.38553 0.104 0.05386 0.0
C775 C 0.40717 0.06502 0.09263 0.0
N776 N 0.36884 0.11104 0.12773 0.0
N777 N 0.40476 0.04228 1.01926 0.0
H778 H 0.42888 0.05289 0.14501 0.0
H779 H 0.43534 0.04285 0.09127 0.0
H780 H 0.40039 0.04 0.98474 0.0
H781 H 0.40817 0.02435 0.03262 0.0
H782 H 0.35652 0.12166 0.11463 0.0
H783 H 0.36612 0.10745 0.16242 0.0
H784 H 0.37938 0.14435 0.05458 0.0
H785 H 0.38354 0.13236 1.00093 0.0
C786 C 0.34248 0.43518 0.99788 0.0
C787 C 0.31575 0.42332 0.9688 0.0
C788 C 0.28031 0.40496 0.03465 0.0
C789 C 0.30676 0.41292 0.06303 0.0
N790 N 0.36275 0.43066 0.07026 0.0
N791 N 0.25876 0.39179 0.95925 0.0
C792 C 0.33784 0.42685 0.04434 0.0
C793 C 0.28449 0.40694 0.98709 0.0
N794 N 0.37231 0.45526 0.98143 0.0
N795 N 0.25132 0.39642 0.05312 0.0
H796 H 0.26065 0.39179 0.9243 0.0
H797 H 0.23575 0.37663 0.97097 0.0
H798 H 0.24746 0.39541 0.08778 0.0
H799 H 0.23201 0.39354 0.03421 0.0
H800 H 0.39228 0.4672 1.00191 0.0
H801 H 0.37663 0.4626 0.94788 0.0
H802 H 0.38515 0.43742 0.05712 0.0
H803 H 0.36037 0.42416 0.10412 0.0
C804 C 0.88228 0.35477 0.9987 0.0
C805 C 0.85782 0.33364 0.96908 0.0
C806 C 0.82594 0.30308 0.03434 0.0
C807 C 0.84831 0.32684 0.06374 0.0
N808 N 0.89574 0.37816 0.07311 0.0
N809 N 0.80404 0.2902 0.95906 0.0
C810 C 0.87607 0.3534 0.04576 0.0
C811 C 0.82906 0.30832 0.98695 0.0
N812 N 0.91185 0.37555 0.98206 0.0
N813 N 0.80225 0.27497 0.05158 0.0
H814 H 0.80499 0.29351 0.9243 0.0
H815 H 0.78139 0.27382 0.9708 0.0
H816 H 0.79968 0.26984 0.08595 0.0
H817 H 0.78723 0.25553 1.03162 0.0
H818 H 0.93147 0.38924 1.0025 0.0
H819 H 0.9176 0.37667 0.94801 0.0
H820 H 0.91432 0.39963 0.06095 0.0
H821 H 0.8918 0.37855 0.10754 0.0
C822 C 0.53644 0.85417 0.06729 0.0
C823 C 0.54936 0.8819 0.09464 0.0
C824 C 0.56884 0.91583 1.0271 0.0
C825 C 0.55582 0.8881 0.99974 0.0
N826 N 0.52338 0.83113 0.99225 0.0
N827 N 0.57431 0.93895 0.10152 0.0
C828 C 0.53832 0.85732 1.01943 0.0
C829 C 0.56437 0.9127 0.07474 0.0
N830 N 0.52296 0.8248 0.08727 0.0
N831 N 0.586 0.94517 1.00737 0.0
H832 H 0.57283 0.9377 0.13655 0.0
H833 H 0.58245 0.96187 0.08936 0.0
H834 H 0.58781 0.9484 0.97258 0.0
H835 H 0.59946 0.96628 1.02502 0.0
H836 H 0.5165 0.80376 0.07006 0.0
H837 H 0.51945 0.82144 0.12194 0.0
H838 H 0.50747 0.8083 1.00381 0.0
H839 H 0.52527 0.8324 0.95725 0.0
C840 C 0.65192 0.53148 0.06871 0.0
C841 C 0.64043 0.55137 0.08501 0.0
C842 C 0.62767 0.5589 1.0075 0.0
C843 C 0.64183 0.54142 0.99097 0.0
N844 N 0.67423 0.51762 1.00568 0.0
N845 N 0.62416 0.58988 0.0688 0.0
C846 C 0.65594 0.5296 1.02155 0.0
C847 C 0.63025 0.56679 0.05406 0.0
N848 N 0.65759 0.51313 0.09796 0.0
N849 N 0.61043 0.56674 0.97929 0.0
H850 H 0.62662 0.597 0.10235 0.0
H851 H 0.61988 0.60421 0.04714 0.0
H852 H 0.60721 0.56079 0.94525 0.0
H853 H 0.59677 0.57641 0.99058 0.0
H854 H 0.6627 0.4957 0.08743 0.0
H855 H 0.65409 0.51298 0.1326 0.0
H856 H 0.68771 0.51167 1.02653 0.0
H857 H 0.67869 0.51679 0.9715 0.0
C858 C 0.07655 0.61966 0.97516 0.0
C859 C 0.10611 0.63896 0.95303 0.0
C860 C 0.13377 0.64971 1.02563 0.0
C861 C 0.10403 0.63244 0.04816 0.0
N862 N 0.0468 0.60729 0.04501 0.0
N863 N 0.16176 0.67854 0.95844 0.0
C864 C 0.0753 0.61926 1.02309 0.0
C865 C 0.13441 0.65585 0.97868 0.0
N866 N 0.0499 0.60045 0.95064 0.0
N867 N 0.16148 0.65886 0.04839 0.0
H868 H 0.16291 0.68435 0.92443 0.0
H869 H 0.1823 0.69386 0.97625 0.0
H870 H 0.16223 0.65408 0.08243 0.0
H871 H 0.18353 0.66844 0.03252 0.0
H872 H 0.02858 0.58328 0.96517 0.0
H873 H 0.04978 0.59952 0.91559 0.0
H874 H 0.02541 0.60037 1.0285 0.0
H875 H 0.04493 0.60731 0.07998 0.0
C876 C 0.89649 0.53101 0.55621 0.0
C877 C 0.89329 0.55441 0.58059 0.0
C878 C 0.88865 0.57773 0.50944 0.0
C879 C 0.89535 0.55652 0.48523 0.0
N880 N 0.90764 0.51415 0.48491 0.0
N881 N 0.89036 0.60261 0.58098 0.0
C882 C 0.89987 0.5335 0.50848 0.0
C883 C 0.89007 0.57827 0.55738 0.0
N884 N 0.89505 0.50568 0.57866 0.0
N885 N 0.88112 0.59755 0.48661 0.0
H886 H 0.89158 0.60408 0.61599 0.0
H887 H 0.89198 0.62276 0.56593 0.0
H888 H 0.88156 0.59922 0.4516 0.0
H889 H 0.87228 0.61074 0.50216 0.0
H890 H 0.89395 0.48607 0.5627 0.0
H891 H 0.89205 0.50281 0.61346 0.0
H892 H 0.91519 0.49972 0.50001 0.0
H893 H 0.90825 0.51374 0.44983 0.0
C894 C 0.31067 0.85003 0.56106 0.0
C895 C 0.32274 0.8768 0.59021 0.0
C896 C 0.32867 0.91071 0.5252 0.0
C897 C 0.3216 0.88501 0.49561 0.0
N898 N 0.311 0.83106 0.48592 0.0
N899 N 0.34823 0.93399 0.59851 0.0
C900 C 0.31379 0.8548 0.51363 0.0
C901 C 0.33292 0.90754 0.57196 0.0
N902 N 0.2953 0.8199 0.57857 0.0
N903 N 0.33035 0.93788 0.50893 0.0
H904 H 0.35284 0.93303 0.63254 0.0
H905 H 0.35914 0.95711 0.58573 0.0
H906 H 0.32624 0.9407 0.47524 0.0
H907 H 0.33235 0.95612 0.52965 0.0
H908 H 0.28331 0.79953 0.55878 0.0
H909 H 0.29148 0.81537 0.613 0.0
H910 H 0.30872 0.80982 0.49791 0.0
H911 H 0.31412 0.83368 0.45115 0.0
C912 C 0.43454 0.35761 0.57086 0.0
C913 C 0.44333 0.33981 0.59952 0.0
C914 C 0.45675 0.31905 0.53278 0.0
C915 C 0.453 0.3408 0.50499 0.0
N916 N 0.44293 0.38465 0.49932 0.0
N917 N 0.46824 0.30764 0.60743 0.0
C918 C 0.44297 0.36105 0.52442 0.0
C919 C 0.45575 0.32145 0.58042 0.0
N920 N 0.41712 0.37034 0.58759 0.0
N921 N 0.46021 0.29533 0.51372 0.0
H922 H 0.46921 0.30969 0.64237 0.0
H923 H 0.48058 0.29688 0.59485 0.0
H924 H 0.45976 0.29192 0.479 0.0
H925 H 0.4599 0.27697 0.53236 0.0
H926 H 0.40748 0.3809 0.56731 0.0
H927 H 0.40929 0.36722 0.6209 0.0
H928 H 0.43915 0.4022 0.51318 0.0
H929 H 0.44968 0.38863 0.46556 0.0
C930 C 0.0497 0.4004 0.54036 0.0
C931 C 0.07763 0.42674 0.55817 0.0
C932 C 0.09743 0.4444 0.48122 0.0
C933 C 0.0709 0.41649 0.4637 0.0
N934 N 0.02599 0.36416 0.47779 0.0
N935 N 0.1314 0.4696 0.54562 0.0
C936 C 0.04823 0.39338 0.49365 0.0
C937 C 0.10248 0.44755 0.52861 0.0
N938 N 0.02389 0.38288 0.56746 0.0
N939 N 0.11707 0.46862 0.45293 0.0
H940 H 0.13646 0.472 0.57997 0.0
H941 H 0.15131 0.48317 0.5255 0.0
H942 H 0.11391 0.46768 0.41816 0.0
H943 H 0.13467 0.49085 0.46435 0.0
H944 H 0.00184 0.36557 0.55513 0.0
H945 H 0.02341 0.38772 0.60153 0.0
H946 H 0.01085 0.3453 0.49869 0.0
H947 H 0.0251 0.35766 0.44419 0.0
C948 C 0.66664 0.10944 0.50225 0.0
C949 C 0.63728 0.08649 0.48277 0.0
C950 C 0.6141 0.07047 0.55858 0.0
C951 C 0.64247 0.09542 0.57772 0.0
N952 N 0.69276 0.14377 0.56598 0.0
N953 N 0.58078 0.05092 0.49238 0.0
C954 C 0.6679 0.11642 0.54903 0.0
C955 C 0.61032 0.06866 0.51095 0.0
N956 N 0.69375 0.12356 0.47679 0.0
N957 N 0.59128 0.04755 0.58557 0.0
H958 H 0.5767 0.05004 0.45782 0.0
H959 H 0.55997 0.03998 0.51147 0.0
H960 H 0.59343 0.0473 0.62045 0.0
H961 H 0.57173 0.02704 0.57296 0.0
H962 H 0.71629 0.13789 0.49048 0.0
H963 H 0.69425 0.11847 0.44283 0.0
H964 H 0.71028 0.16142 0.54573 0.0
H965 H 0.69405 0.15052 0.59957 0.0
C966 C 0.5459 0.64224 0.49922 0.0
C967 C 0.51728 0.64061 0.48455 0.0
C968 C 0.50242 0.64201 0.56328 0.0
C969 C 0.53212 0.64614 0.57771 0.0
N970 N 0.58502 0.65732 0.55863 0.0
N971 N 0.47209 0.64668 0.5021 0.0
C972 C 0.55474 0.64838 0.5454 0.0
C973 C 0.49665 0.64278 0.51646 0.0
N974 N 0.5639 0.63632 0.46966 0.0
N975 N 0.47902 0.63574 0.59402 0.0
H976 H 0.46761 0.6483 0.46816 0.0
H977 H 0.45828 0.65165 0.5238 0.0
H978 H 0.48186 0.63424 0.62855 0.0
H979 H 0.45577 0.629 0.58496 0.0
H980 H 0.58305 0.63374 0.47957 0.0
H981 H 0.55803 0.63098 0.43582 0.0
H982 H 0.60344 0.66257 0.53605 0.0
H983 H 0.59255 0.66265 0.59195 0.0
C984 C 0.48546 0.0479 0.29466 0.0
C985 C 0.48685 0.07748 0.30132 0.0
C986 C 0.54505 0.10542 0.30348 0.0
C987 C 0.54382 0.07592 0.29575 0.0
N988 N 0.51404 0.0198 0.27871 0.0
N989 N 0.51686 0.13486 0.30554 0.0
C990 C 0.51432 0.04732 0.28963 0.0
C991 C 0.51636 0.10638 0.30401 0.0
N992 N 0.45654 0.02043 0.29416 0.0
N993 N 0.57372 0.1326 0.31022 0.0
H994 H 0.49634 0.13662 0.30701 0.0
H995 H 0.53738 0.157 0.30219 0.0
H996 H 0.59561 0.13388 0.30578 0.0
H997 H 0.57607 0.15381 0.32222 0.0
H998 H 0.45364 -0.00229 0.29326 0.0
H999 H 0.43504 0.02029 0.29674 0.0
H1000 H 0.49379 -0.00101 0.26861 0.0
H1001 H 0.53459 0.0181 0.27757 0.0
C1002 C 0.44036 0.5285 0.28327 0.0
C1003 C 0.43702 0.55383 0.30091 0.0
C1004 C 0.37946 0.51849 0.30876 0.0
C1005 C 0.38276 0.49335 0.29027 0.0
N1006 N 0.41603 0.47171 0.26923 0.0
N1007 N 0.4054 0.57217 0.33912 0.0
C1008 C 0.41319 0.49753 0.2804 0.0
C1009 C 0.40718 0.54847 0.31681 0.0
N1010 N 0.46946 0.53437 0.26831 0.0
N1011 N 0.34975 0.51412 0.31639 0.0
H1012 H 0.4251 0.5947 0.34443 0.0
H1013 H 0.38502 0.56892 0.35547 0.0
H1014 H 0.32894 0.49235 0.31141 0.0
H1015 H 0.3454 0.53239 0.32492 0.0
H1016 H 0.473 0.51813 0.24998 0.0
H1017 H 0.49024 0.55626 0.27282 0.0
H1018 H 0.43771 0.47244 0.26587 0.0
H1019 H 0.39652 0.4487 0.26669 0.0
C1020 C 0.86025 0.45281 0.23555 0.0
C1021 C 0.85727 0.46391 0.27867 0.0
C1022 C 0.85778 0.41827 0.31215 0.0
C1023 C 0.85346 0.40384 0.26907 0.0
N1024 N 0.84118 0.40571 0.19017 0.0
N1025 N 0.8435 0.45029 0.35737 0.0
C1026 C 0.85186 0.42049 0.23071 0.0
C1027 C 0.85308 0.44461 0.31692 0.0
N1028 N 0.87276 0.47301 0.19966 0.0
N1029 N 0.86786 0.40818 0.34816 0.0
H1030 H 0.83639 0.46713 0.3616 0.0
H1031 H 0.83849 0.43519 0.38498 0.0
H1032 H 0.87546 0.39162 0.34537 0.0
H1033 H 0.87301 0.41973 0.37921 0.0
H1034 H 0.8769 0.46556 0.16872 0.0
H1035 H 0.8833 0.49766 0.20235 0.0
H1036 H 0.83801 0.41719 0.16262 0.0
H1037 H 0.83145 0.3813 0.18559 0.0
C1038 C 0.45477 0.9212 0.31713 0.0
C1039 C 0.45383 0.89467 0.29545 0.0
C1040 C 0.39774 0.87324 0.27658 0.0
C1041 C 0.39816 0.89881 0.30045 0.0
N1042 N 0.4249 0.94444 0.349 0.0
N1043 N 0.42313 0.84198 0.26354 0.0
C1044 C 0.42605 0.92199 0.32255 0.0
C1045 C 0.42502 0.86981 0.27734 0.0
N1046 N 0.48326 0.94602 0.33118 0.0
N1047 N 0.37115 0.85204 0.25332 0.0
H1048 H 0.44229 0.83796 0.26447 0.0
H1049 H 0.40186 0.8216 0.25512 0.0
H1050 H 0.34961 0.85184 0.25464 0.0
H1051 H 0.37093 0.83569 0.23042 0.0
H1052 H 0.48608 0.96728 0.34383 0.0
H1053 H 0.50476 0.94638 0.32703 0.0
H1054 H 0.44343 0.95999 0.36983 0.0
H1055 H 0.40449 0.94626 0.35227 0.0
C1056 C 0.55726 0.48233 0.28583 0.0
C1057 C 0.58809 0.49055 0.301 0.0
C1058 C 0.5673 0.43736 0.33398 0.0
C1059 C 0.53741 0.42811 0.31429 0.0
N1060 N 0.50329 0.44044 0.27011 0.0
N1061 N 0.62379 0.47575 0.33556 0.0
C1062 C 0.53216 0.45027 0.28994 0.0
C1063 C 0.59346 0.46813 0.32445 0.0
N1064 N 0.55183 0.50542 0.26893 0.0
N1065 N 0.57057 0.4167 0.36177 0.0
H1066 H 0.64363 0.49801 0.3291 0.0
H1067 H 0.62975 0.45937 0.34807 0.0
H1068 H 0.55196 0.39372 0.36855 0.0
H1069 H 0.59081 0.42306 0.38093 0.0
H1070 H 0.52929 0.50178 0.26172 0.0
H1071 H 0.56974 0.52916 0.26536 0.0
H1072 H 0.49908 0.45419 0.24727 0.0
H1073 H 0.48366 0.41771 0.27479 0.0
C1074 C 0.08131 0.53055 0.22489 0.0
C1075 C 0.1129 0.55526 0.23392 0.0
C1076 C 0.12846 0.51577 0.25263 0.0
C1077 C 0.09619 0.49135 0.24831 0.0
N1078 N 0.04122 0.47481 0.23434 0.0
N1079 N 0.16647 0.57238 0.25774 0.0
C1080 C 0.07245 0.4985 0.235 0.0
C1081 C 0.13651 0.54811 0.24798 0.0
N1082 N 0.05967 0.53775 0.20723 0.0
N1083 N 0.1515 0.50791 0.25987 0.0
H1084 H 0.17378 0.59627 0.25153 0.0
H1085 H 0.18369 0.56912 0.27369 0.0
H1086 H 0.14644 0.4845 0.26432 0.0
H1087 H 0.17578 0.52419 0.25837 0.0
H1088 H 0.03741 0.52074 0.19527 0.0
H1089 H 0.0646 0.56096 0.20135 0.0
H1090 H 0.02225 0.47879 0.23001 0.0
H1091 H 0.03389 0.45105 0.24159 0.0
C1092 C 0.47098 0.91992 0.79138 0.0
C1093 C 0.4743 0.89382 0.77711 0.0
C1094 C 0.41862 0.86474 0.75291 0.0
C1095 C 0.41515 0.89057 0.76803 0.0
N1096 N 0.43835 0.94494 0.79232 0.0
N1097 N 0.45392 0.84418 0.73677 0.0
C1098 C 0.44155 0.91893 0.78432 0.0
C1099 C 0.449 0.86723 0.75508 0.0
N1100 N 0.49582 0.94535 0.81226 0.0
N1101 N 0.39245 0.83706 0.73927 0.0
H1102 H 0.47515 0.84394 0.74024 0.0
H1103 H 0.43773 0.82628 0.71566 0.0
H1104 H 0.36994 0.83453 0.73598 0.0
H1105 H 0.39246 0.81591 0.73352 0.0
H1106 H 0.49405 0.96356 0.82794 0.0
H1107 H 0.51826 0.94767 0.8157 0.0
H1108 H 0.4571 0.96732 0.80086 0.0
H1109 H 0.41705 0.94477 0.78672 0.0
C1110 C 0.56277 0.43086 0.80203 0.0
C1111 C 0.56445 0.46088 0.80294 0.0
C1112 C 0.50626 0.43477 0.80416 0.0
C1113 C 0.50464 0.40487 0.79935 0.0
N1114 N 0.53055 0.37386 0.7901 0.0
N1115 N 0.53885 0.49244 0.80074 0.0
C1116 C 0.5327 0.40275 0.7972 0.0
C1117 C 0.53647 0.46316 0.80322 0.0
N1118 N 0.58995 0.42931 0.80724 0.0
N1119 N 0.4789 0.43594 0.80975 0.0
H1120 H 0.56061 0.51373 0.80117 0.0
H1121 H 0.51956 0.49581 0.79552 0.0
H1122 H 0.45627 0.41579 0.80815 0.0
H1123 H 0.4785 0.4565 0.81848 0.0
H1124 H 0.5902 0.40815 0.81159 0.0
H1125 H 0.61239 0.4495 0.81095 0.0
H1126 H 0.55002 0.37114 0.78283 0.0
H1127 H 0.50895 0.35246 0.78872 0.0
C1128 C 0.10394 0.55619 0.73849 0.0
C1129 C 0.07828 0.5587 0.75689 0.0
C1130 C 0.04823 0.50115 0.77113 0.0
C1131 C 0.07389 0.49869 0.75265 0.0
N1132 N 0.12817 0.52371 0.72593 0.0
N1133 N 0.02499 0.53446 0.78648 0.0
C1134 C 0.10215 0.52611 0.7377 0.0
C1135 C 0.05019 0.53143 0.77245 0.0
N1136 N 0.13 0.58269 0.72142 0.0
N1137 N 0.02241 0.47457 0.78834 0.0
H1138 H 0.02587 0.55637 0.78814 0.0
H1139 H 0.00263 0.51539 0.79434 0.0
H1140 H 0.01926 0.45175 0.78512 0.0
H1141 H 0.00468 0.47499 0.80746 0.0
H1142 H 0.14728 0.58196 0.70159 0.0
H1143 H 0.13385 0.60574 0.72513 0.0
H1144 H 0.15073 0.54315 0.72022 0.0
H1145 H 0.12815 0.50223 0.72492 0.0
C1146 C 0.52094 0.07557 0.78208 0.0
C1147 C 0.54693 0.10732 0.78192 0.0
C1148 C 0.51199 0.12732 0.80606 0.0
C1149 C 0.4857 0.09577 0.80416 0.0
N1150 N 0.46368 0.04044 0.78443 0.0
N1151 N 0.56695 0.16382 0.78551 0.0
C1152 C 0.48972 0.07005 0.79018 0.0
C1153 C 0.54238 0.13333 0.79164 0.0
N1154 N 0.5263 0.05064 0.77669 0.0
N1155 N 0.50791 0.1515 0.82191 0.0
H1156 H 0.58946 0.169 0.77445 0.0
H1157 H 0.56449 0.18389 0.78746 0.0
H1158 H 0.48577 0.1484 0.83071 0.0
H1159 H 0.52663 0.17422 0.82916 0.0
H1160 H 0.50897 0.02691 0.78174 0.0
H1161 H 0.54877 0.05371 0.77012 0.0
H1162 H 0.46462 0.02163 0.76915 0.0
H1163 H 0.44061 0.03512 0.79244 0.0
C1164 C 0.43332 0.52257 0.77506 0.0
C1165 C 0.40551 0.524 0.78499 0.0
C1166 C 0.4374 0.5817 0.79596 0.0
C1167 C 0.4647 0.58063 0.78157 0.0
N1168 N 0.48916 0.55124 0.75408 0.0
N1169 N 0.37982 0.55459 0.80022 0.0
C1170 C 0.46283 0.55137 0.77019 0.0
C1171 C 0.40719 0.55344 0.79461 0.0
N1172 N 0.43153 0.49359 0.77163 0.0
N1173 N 0.44042 0.60971 0.81112 0.0
H1174 H 0.35722 0.53435 0.80009 0.0
H1175 H 0.37921 0.5757 0.80191 0.0
H1176 H 0.46193 0.63126 0.81067 0.0
H1177 H 0.42216 0.61132 0.82697 0.0
H1178 H 0.45131 0.49073 0.76894 0.0
H1179 H 0.41022 0.47205 0.77531 0.0
H1180 H 0.48865 0.5312 0.74056 0.0
H1181 H 0.51144 0.57181 0.75156 0.0
C1182 C 0.86141 0.42236 0.79595 0.0
C1183 C 0.88771 0.41978 0.78053 0.0
C1184 C 0.91678 0.47673 0.76167 0.0
C1185 C 0.89135 0.47956 0.77998 0.0
N1186 N 0.84163 0.4567 0.82082 0.0
N1187 N 0.94207 0.44461 0.75481 0.0
C1188 C 0.86447 0.45291 0.79939 0.0
C1189 C 0.91592 0.44704 0.76504 0.0
N1190 N 0.83273 0.39552 0.80417 0.0
N1191 N 0.94153 0.50235 0.74083 0.0
H1192 H 0.94247 0.4234 0.75819 0.0
H1193 H 0.96413 0.46392 0.7463 0.0
H1194 H 0.94352 0.52478 0.73962 0.0
H1195 H 0.95913 0.5011 0.72247 0.0
H1196 H 0.81179 0.39587 0.81026 0.0
H1197 H 0.82883 0.37246 0.80073 0.0
H1198 H 0.82372 0.43901 0.84053 0.0
H1199 H 0.84171 0.47823 0.8217 0.0
loop_
_geom_bond_atom_site_label_1
_geom_bond_atom_site_label_2
_geom_bond_distance
_geom_bond_site_symmetry_2
_ccdc_geom_bond_type
Zn0 O3 2.031 . S
Zn0 O5 2.049 . S
Zn0 O10 2.067 . S
Zn1 O2 1.962 . S
Zn1 O4 1.986 . S
Zn1 O6 1.996 . S
Zn1 O9 1.943 . S
O2 Zn1 1.962 . S
O2 C7 1.254 . S
O3 Zn0 2.031 . S
O3 C7 1.269 . S
O4 Zn1 1.986 . S
O4 C11 1.262 . S
O5 Zn0 2.049 . S
O5 C13 1.260 . S
O6 Zn1 1.996 . S
O6 C13 1.257 . S
C7 O2 1.254 . S
C7 O3 1.269 . S
C8 O9 1.249 . S
C8 O10 1.270 . S
O9 Zn1 1.943 . S
O9 C8 1.249 . S
O10 Zn0 2.067 . S
O10 C8 1.270 . S
C11 O4 1.262 . S
C11 O12 1.232 . S
O12 C11 1.232 . S
C13 O5 1.260 . S
C13 O6 1.257 . S
Zn14 O17 2.031 . S
Zn14 O19 2.049 . S
Zn14 O24 2.067 . S
Zn15 O16 1.962 . S
Zn15 O18 1.986 . S
Zn15 O20 1.996 . S
Zn15 O23 1.943 . S
O16 Zn15 1.962 . S
O16 C21 1.254 . S
O17 Zn14 2.031 . S
O17 C21 1.269 . S
O18 Zn15 1.986 . S
O18 C25 1.262 . S
O19 Zn14 2.049 . S
O19 C27 1.260 . S
O20 Zn15 1.996 . S
O20 C27 1.257 . S
C21 O16 1.254 . S
C21 O17 1.269 . S
C22 O23 1.249 . S
C22 O24 1.270 . S
O23 Zn15 1.943 . S
O23 C22 1.249 . S
O24 Zn14 2.067 . S
O24 C22 1.270 . S
C25 O18 1.262 . S
C25 O26 1.232 . S
O26 C25 1.232 . S
C27 O19 1.260 . S
C27 O20 1.257 . S
Zn28 O31 2.031 . S
Zn28 O33 2.049 . S
Zn28 O38 2.067 . S
Zn29 O30 1.962 . S
Zn29 O32 1.986 . S
Zn29 O34 1.996 . S
Zn29 O37 1.943 . S
O30 Zn29 1.962 . S
O30 C35 1.254 . S
O31 Zn28 2.031 . S
O31 C35 1.269 . S
O32 Zn29 1.986 . S
O32 C39 1.262 . S
O33 Zn28 2.049 . S
O33 C41 1.260 . S
O34 Zn29 1.996 . S
O34 C41 1.257 . S
C35 O30 1.254 . S
C35 O31 1.269 . S
C36 O37 1.249 . S
C36 O38 1.270 . S
O37 Zn29 1.943 . S
O37 C36 1.249 . S
O38 Zn28 2.067 . S
O38 C36 1.270 . S
C39 O32 1.262 . S
C39 O40 1.232 . S
O40 C39 1.232 . S
C41 O33 1.260 . S
C41 O34 1.257 . S
Zn42 O45 2.031 . S
Zn42 O47 2.049 . S
Zn42 O52 2.067 . S
Zn43 O44 1.962 . S
Zn43 O46 1.986 . S
Zn43 O48 1.996 . S
Zn43 O51 1.943 . S
O44 Zn43 1.962 . S
O44 C49 1.254 . S
O45 Zn42 2.031 . S
O45 C49 1.269 . S
O46 Zn43 1.986 . S
O46 C53 1.262 . S
O47 Zn42 2.049 . S
O47 C55 1.260 . S
O48 Zn43 1.996 . S
O48 C55 1.257 . S
C49 O44 1.254 . S
C49 O45 1.269 . S
C50 O51 1.249 . S
C50 O52 1.270 . S
O51 Zn43 1.943 . S
O51 C50 1.249 . S
O52 Zn42 2.067 . S
O52 C50 1.270 . S
C53 O46 1.262 . S
C53 O54 1.232 . S
O54 C53 1.232 . S
C55 O47 1.260 . S
C55 O48 1.257 . S
Zn56 O59 2.031 . S
Zn56 O61 2.049 . S
Zn56 O66 2.067 . S
Zn57 O58 1.962 . S
Zn57 O60 1.986 . S
Zn57 O62 1.996 . S
Zn57 O65 1.943 . S
O58 Zn57 1.962 . S
O58 C63 1.254 . S
O59 Zn56 2.031 . S
O59 C63 1.269 . S
O60 Zn57 1.986 . S
O60 C67 1.262 . S
O61 Zn56 2.049 . S
O61 C69 1.260 . S
O62 Zn57 1.996 . S
O62 C69 1.257 . S
C63 O58 1.254 . S
C63 O59 1.269 . S
C64 O65 1.249 . S
C64 O66 1.270 . S
O65 Zn57 1.943 . S
O65 C64 1.249 . S
O66 Zn56 2.067 . S
O66 C64 1.270 . S
C67 O60 1.262 . S
C67 O68 1.232 . S
O68 C67 1.232 . S
C69 O61 1.260 . S
C69 O62 1.257 . S
Zn70 O73 2.031 . S
Zn70 O75 2.049 . S
Zn70 O80 2.067 . S
Zn71 O72 1.962 . S
Zn71 O74 1.986 . S
Zn71 O76 1.996 . S
Zn71 O79 1.943 . S
O72 Zn71 1.962 . S
O72 C77 1.254 . S
O73 Zn70 2.031 . S
O73 C77 1.269 . S
O74 Zn71 1.986 . S
O74 C81 1.262 . S
O75 Zn70 2.049 . S
O75 C83 1.260 . S
O76 Zn71 1.996 . S
O76 C83 1.257 . S
C77 O72 1.254 . S
C77 O73 1.269 . S
C78 O79 1.249 . S
C78 O80 1.270 . S
O79 Zn71 1.943 . S
O79 C78 1.249 . S
O80 Zn70 2.067 . S
O80 C78 1.270 . S
C81 O74 1.262 . S
C81 O82 1.232 . S
O82 C81 1.232 . S
C83 O75 1.260 . S
C83 O76 1.257 . S
Zn84 O87 2.031 . S
Zn84 O89 2.049 . S
Zn84 O94 2.067 . S
Zn85 O86 1.962 . S
Zn85 O88 1.986 . S
Zn85 O90 1.996 . S
Zn85 O93 1.943 . S
O86 Zn85 1.962 . S
O86 C91 1.254 . S
O87 Zn84 2.031 . S
O87 C91 1.269 . S
O88 Zn85 1.986 . S
O88 C95 1.262 . S
O89 Zn84 2.049 . S
O89 C97 1.260 . S
O90 Zn85 1.996 . S
O90 C97 1.257 . S
C91 O86 1.254 . S
C91 O87 1.269 . S
C92 O93 1.249 . S
C92 O94 1.270 . S
O93 Zn85 1.943 . S
O93 C92 1.249 . S
O94 Zn84 2.067 . S
O94 C92 1.270 . S
C95 O88 1.262 . S
C95 O96 1.232 . S
O96 C95 1.232 . S
C97 O89 1.260 . S
C97 O90 1.257 . S
Zn98 O101 2.031 . S
Zn98 O103 2.049 . S
Zn98 O108 2.067 . S
Zn99 O100 1.962 . S
Zn99 O102 1.986 . S
Zn99 O104 1.996 . S
Zn99 O107 1.943 . S
O100 Zn99 1.962 . S
O100 C105 1.254 . S
O101 Zn98 2.031 . S
O101 C105 1.269 . S
O102 Zn99 1.986 . S
O102 C109 1.262 . S
O103 Zn98 2.049 . S
O103 C111 1.260 . S
O104 Zn99 1.996 . S
O104 C111 1.257 . S
C105 O100 1.254 . S
C105 O101 1.269 . S
C106 O107 1.249 . S
C106 O108 1.270 . S
O107 Zn99 1.943 . S
O107 C106 1.249 . S
O108 Zn98 2.067 . S
O108 C106 1.270 . S
C109 O102 1.262 . S
C109 O110 1.232 . S
O110 C109 1.232 . S
C111 O103 1.260 . S
C111 O104 1.257 . S
Zn112 O115 2.031 . S
Zn112 O117 2.049 . S
Zn112 O122 2.067 . S
Zn113 O114 1.962 . S
Zn113 O116 1.986 . S
Zn113 O118 1.996 . S
Zn113 O121 1.943 . S
O114 Zn113 1.962 . S
O114 C119 1.254 . S
O115 Zn112 2.031 . S
O115 C119 1.269 . S
O116 Zn113 1.986 . S
O116 C123 1.262 . S
O117 Zn112 2.049 . S
O117 C125 1.260 . S
O118 Zn113 1.996 . S
O118 C125 1.257 . S
C119 O114 1.254 . S
C119 O115 1.269 . S
C120 O121 1.249 . S
C120 O122 1.270 . S
O121 Zn113 1.943 . S
O121 C120 1.249 . S
O122 Zn112 2.067 . S
O122 C120 1.270 . S
C123 O116 1.262 . S
C123 O124 1.232 . S
O124 C123 1.232 . S
C125 O117 1.260 . S
C125 O118 1.257 . S
Zn126 O129 2.031 . S
Zn126 O131 2.049 . S
Zn126 O136 2.067 . S
Zn127 O128 1.962 . S
Zn127 O130 1.986 . S
Zn127 O132 1.996 . S
Zn127 O135 1.943 . S
O128 Zn127 1.962 . S
O128 C133 1.254 . S
O129 Zn126 2.031 . S
O129 C133 1.269 . S
O130 Zn127 1.986 . S
O130 C137 1.262 . S
O131 Zn126 2.049 . S
O131 C139 1.260 . S
O132 Zn127 1.996 . S
O132 C139 1.257 . S
C133 O128 1.254 . S
C133 O129 1.269 . S
C134 O135 1.249 . S
C134 O136 1.270 . S
O135 Zn127 1.943 . S
O135 C134 1.249 . S
O136 Zn126 2.067 . S
O136 C134 1.270 . S
C137 O130 1.262 . S
C137 O138 1.232 . S
O138 C137 1.232 . S
C139 O131 1.260 . S
C139 O132 1.257 . S
Zn140 O143 2.031 . S
Zn140 O145 2.049 . S
Zn140 O150 2.067 . S
Zn141 O142 1.962 . S
Zn141 O144 1.986 . S
Zn141 O146 1.996 . S
Zn141 O149 1.943 . S
O142 Zn141 1.962 . S
O142 C147 1.254 . S
O143 Zn140 2.031 . S
O143 C147 1.269 . S
O144 Zn141 1.986 . S
O144 C151 1.262 . S
O145 Zn140 2.049 . S
O145 C153 1.260 . S
O146 Zn141 1.996 . S
O146 C153 1.257 . S
C147 O142 1.254 . S
C147 O143 1.269 . S
C148 O149 1.249 . S
C148 O150 1.270 . S
O149 Zn141 1.943 . S
O149 C148 1.249 . S
O150 Zn140 2.067 . S
O150 C148 1.270 . S
C151 O144 1.262 . S
C151 O152 1.232 . S
O152 C151 1.232 . S
C153 O145 1.260 . S
C153 O146 1.257 . S
Zn154 O157 2.031 . S
Zn154 O159 2.049 . S
Zn154 O164 2.067 . S
Zn155 O156 1.962 . S
Zn155 O158 1.986 . S
Zn155 O160 1.996 . S
Zn155 O163 1.943 . S
O156 Zn155 1.962 . S
O156 C161 1.254 . S
O157 Zn154 2.031 . S
O157 C161 1.269 . S
O158 Zn155 1.986 . S
O158 C165 1.262 . S
O159 Zn154 2.049 . S
O159 C167 1.260 . S
O160 Zn155 1.996 . S
O160 C167 1.257 . S
C161 O156 1.254 . S
C161 O157 1.269 . S
C162 O163 1.249 . S
C162 O164 1.270 . S
O163 Zn155 1.943 . S
O163 C162 1.249 . S
O164 Zn154 2.067 . S
O164 C162 1.270 . S
C165 O158 1.262 . S
C165 O166 1.232 . S
O166 C165 1.232 . S
C167 O159 1.260 . S
C167 O160 1.257 . S
Zn168 O171 2.031 . S
Zn168 O173 2.049 . S
Zn168 O178 2.067 . S
Zn169 O170 1.962 . S
Zn169 O172 1.986 . S
Zn169 O174 1.996 . S
Zn169 O177 1.943 . S
O170 Zn169 1.962 . S
O170 C175 1.254 . S
O171 Zn168 2.031 . S
O171 C175 1.269 . S
O172 Zn169 1.986 . S
O172 C179 1.262 . S
O173 Zn168 2.049 . S
O173 C181 1.260 . S
O174 Zn169 1.996 . S
O174 C181 1.257 . S
C175 O170 1.254 . S
C175 O171 1.269 . S
C176 O177 1.249 . S
C176 O178 1.270 . S
O177 Zn169 1.943 . S
O177 C176 1.249 . S
O178 Zn168 2.067 . S
O178 C176 1.270 . S
C179 O172 1.262 . S
C179 O180 1.232 . S
O180 C179 1.232 . S
C181 O173 1.260 . S
C181 O174 1.257 . S
Zn182 O185 2.031 . S
Zn182 O187 2.049 . S
Zn182 O192 2.067 . S
Zn183 O184 1.962 . S
Zn183 O186 1.986 . S
Zn183 O188 1.996 . S
Zn183 O191 1.943 . S
O184 Zn183 1.962 . S
O184 C189 1.254 . S
O185 Zn182 2.031 . S
O185 C189 1.269 . S
O186 Zn183 1.986 . S
O186 C193 1.262 . S
O187 Zn182 2.049 . S
O187 C195 1.260 . S
O188 Zn183 1.996 . S
O188 C195 1.257 . S
C189 O184 1.254 . S
C189 O185 1.269 . S
C190 O191 1.249 . S
C190 O192 1.270 . S
O191 Zn183 1.943 . S
O191 C190 1.249 . S
O192 Zn182 2.067 . S
O192 C190 1.270 . S
C193 O186 1.262 . S
C193 O194 1.232 . S
O194 C193 1.232 . S
C195 O187 1.260 . S
C195 O188 1.257 . S
Zn196 O199 2.031 . S
Zn196 O201 2.049 . S
Zn196 O206 2.067 . S
Zn197 O198 1.962 . S
Zn197 O200 1.986 . S
Zn197 O202 1.996 . S
Zn197 O205 1.943 . S
O198 Zn197 1.962 . S
O198 C203 1.254 . S
O199 Zn196 2.031 . S
O199 C203 1.269 . S
O200 Zn197 1.986 . S
O200 C207 1.262 . S
O201 Zn196 2.049 . S
O201 C209 1.260 . S
O202 Zn197 1.996 . S
O202 C209 1.257 . S
C203 O198 1.254 . S
C203 O199 1.269 . S
C204 O205 1.249 . S
C204 O206 1.270 . S
O205 Zn197 1.943 . S
O205 C204 1.249 . S
O206 Zn196 2.067 . S
O206 C204 1.270 . S
C207 O200 1.262 . S
C207 O208 1.232 . S
O208 C207 1.232 . S
C209 O201 1.260 . S
C209 O202 1.257 . S
Zn210 O213 2.031 . S
Zn210 O215 2.049 . S
Zn210 O220 2.067 . S
Zn211 O212 1.962 . S
Zn211 O214 1.986 . S
Zn211 O216 1.996 . S
Zn211 O219 1.943 . S
O212 Zn211 1.962 . S
O212 C217 1.254 . S
O213 Zn210 2.031 . S
O213 C217 1.269 . S
O214 Zn211 1.986 . S
O214 C221 1.262 . S
O215 Zn210 2.049 . S
O215 C223 1.260 . S
O216 Zn211 1.996 . S
O216 C223 1.257 . S
C217 O212 1.254 . S
C217 O213 1.269 . S
C218 O219 1.249 . S
C218 O220 1.270 . S
O219 Zn211 1.943 . S
O219 C218 1.249 . S
O220 Zn210 2.067 . S
O220 C218 1.270 . S
C221 O214 1.262 . S
C221 O222 1.232 . S
O222 C221 1.232 . S
C223 O215 1.260 . S
C223 O216 1.257 . S
Zn224 O227 2.031 . S
Zn224 O229 2.049 . S
Zn224 O234 2.067 . S
Zn225 O226 1.962 . S
Zn225 O228 1.986 . S
Zn225 O230 1.996 . S
Zn225 O233 1.943 . S
O226 Zn225 1.962 . S
O226 C231 1.254 . S
O227 Zn224 2.031 . S
O227 C231 1.269 . S
O228 Zn225 1.986 . S
O228 C235 1.262 . S
O229 Zn224 2.049 . S
O229 C237 1.260 . S
O230 Zn225 1.996 . S
O230 C237 1.257 . S
C231 O226 1.254 . S
C231 O227 1.269 . S
C232 O233 1.249 . S
C232 O234 1.270 . S
O233 Zn225 1.943 . S
O233 C232 1.249 . S
O234 Zn224 2.067 . S
O234 C232 1.270 . S
C235 O228 1.262 . S
C235 O236 1.232 . S
O236 C235 1.232 . S
C237 O229 1.260 . S
C237 O230 1.257 . S
Zn238 O241 2.031 . S
Zn238 O243 2.049 . S
Zn238 O248 2.067 . S
Zn239 O240 1.962 . S
Zn239 O242 1.986 . S
Zn239 O244 1.996 . S
Zn239 O247 1.943 . S
O240 Zn239 1.962 . S
O240 C245 1.254 . S
O241 Zn238 2.031 . S
O241 C245 1.269 . S
O242 Zn239 1.986 . S
O242 C249 1.262 . S
O243 Zn238 2.049 . S
O243 C251 1.260 . S
O244 Zn239 1.996 . S
O244 C251 1.257 . S
C245 O240 1.254 . S
C245 O241 1.269 . S
C246 O247 1.249 . S
C246 O248 1.270 . S
O247 Zn239 1.943 . S
O247 C246 1.249 . S
O248 Zn238 2.067 . S
O248 C246 1.270 . S
C249 O242 1.262 . S
C249 O250 1.232 . S
O250 C249 1.232 . S
C251 O243 1.260 . S
C251 O244 1.257 . S
Zn252 O255 2.031 . S
Zn252 O257 2.049 . S
Zn252 O262 2.067 . S
Zn253 O254 1.962 . S
Zn253 O256 1.986 . S
Zn253 O258 1.996 . S
Zn253 O261 1.943 . S
O254 Zn253 1.962 . S
O254 C259 1.254 . S
O255 Zn252 2.031 . S
O255 C259 1.269 . S
O256 Zn253 1.986 . S
O256 C263 1.262 . S
O257 Zn252 2.049 . S
O257 C265 1.260 . S
O258 Zn253 1.996 . S
O258 C265 1.257 . S
C259 O254 1.254 . S
C259 O255 1.269 . S
C260 O261 1.249 . S
C260 O262 1.270 . S
O261 Zn253 1.943 . S
O261 C260 1.249 . S
O262 Zn252 2.067 . S
O262 C260 1.270 . S
C263 O256 1.262 . S
C263 O264 1.232 . S
O264 C263 1.232 . S
C265 O257 1.260 . S
C265 O258 1.257 . S
Zn266 O269 2.031 . S
Zn266 O271 2.049 . S
Zn266 O276 2.067 . S
Zn267 O268 1.962 . S
Zn267 O270 1.986 . S
Zn267 O272 1.996 . S
Zn267 O275 1.943 . S
O268 Zn267 1.962 . S
O268 C273 1.254 . S
O269 Zn266 2.031 . S
O269 C273 1.269 . S
O270 Zn267 1.986 . S
O270 C277 1.262 . S
O271 Zn266 2.049 . S
O271 C279 1.260 . S
O272 Zn267 1.996 . S
O272 C279 1.257 . S
C273 O268 1.254 . S
C273 O269 1.269 . S
C274 O275 1.249 . S
C274 O276 1.270 . S
O275 Zn267 1.943 . S
O275 C274 1.249 . S
O276 Zn266 2.067 . S
O276 C274 1.270 . S
C277 O270 1.262 . S
C277 O278 1.232 . S
O278 C277 1.232 . S
C279 O271 1.260 . S
C279 O272 1.257 . S
Zn280 O283 2.031 . S
Zn280 O285 2.049 . S
Zn280 O290 2.067 . S
Zn281 O282 1.962 . S
Zn281 O284 1.986 . S
Zn281 O286 1.996 . S
Zn281 O289 1.943 . S
O282 Zn281 1.962 . S
O282 C287 1.254 . S
O283 Zn280 2.031 . S
O283 C287 1.269 . S
O284 Zn281 1.986 . S
O284 C291 1.262 . S
O285 Zn280 2.049 . S
O285 C293 1.260 . S
O286 Zn281 1.996 . S
O286 C293 1.257 . S
C287 O282 1.254 . S
C287 O283 1.269 . S
C288 O289 1.249 . S
C288 O290 1.270 . S
O289 Zn281 1.943 . S
O289 C288 1.249 . S
O290 Zn280 2.067 . S
O290 C288 1.270 . S
C291 O284 1.262 . S
C291 O292 1.232 . S
O292 C291 1.232 . S
C293 O285 1.260 . S
C293 O286 1.257 . S
Zn294 O297 2.031 . S
Zn294 O299 2.049 . S
Zn294 O304 2.067 . S
Zn295 O296 1.962 . S
Zn295 O298 1.986 . S
Zn295 O300 1.996 . S
Zn295 O303 1.943 . S
O296 Zn295 1.962 . S
O296 C301 1.254 . S
O297 Zn294 2.031 . S
O297 C301 1.269 . S
O298 Zn295 1.986 . S
O298 C305 1.262 . S
O299 Zn294 2.049 . S
O299 C307 1.260 . S
O300 Zn295 1.996 . S
O300 C307 1.257 . S
C301 O296 1.254 . S
C301 O297 1.269 . S
C302 O303 1.249 . S
C302 O304 1.270 . S
O303 Zn295 1.943 . S
O303 C302 1.249 . S
O304 Zn294 2.067 . S
O304 C302 1.270 . S
C305 O298 1.262 . S
C305 O306 1.232 . S
O306 C305 1.232 . S
C307 O299 1.260 . S
C307 O300 1.257 . S
Zn308 O311 2.031 . S
Zn308 O313 2.049 . S
Zn308 O318 2.067 . S
Zn309 O310 1.962 . S
Zn309 O312 1.986 . S
Zn309 O314 1.996 . S
Zn309 O317 1.943 . S
O310 Zn309 1.962 . S
O310 C315 1.254 . S
O311 Zn308 2.031 . S
O311 C315 1.269 . S
O312 Zn309 1.986 . S
O312 C319 1.262 . S
O313 Zn308 2.049 . S
O313 C321 1.260 . S
O314 Zn309 1.996 . S
O314 C321 1.257 . S
C315 O310 1.254 . S
C315 O311 1.269 . S
C316 O317 1.249 . S
C316 O318 1.270 . S
O317 Zn309 1.943 . S
O317 C316 1.249 . S
O318 Zn308 2.067 . S
O318 C316 1.270 . S
C319 O312 1.262 . S
C319 O320 1.232 . S
O320 C319 1.232 . S
C321 O313 1.260 . S
C321 O314 1.257 . S
Zn322 O325 2.031 . S
Zn322 O327 2.049 . S
Zn322 O332 2.067 . S
Zn323 O324 1.962 . S
Zn323 O326 1.986 . S
Zn323 O328 1.996 . S
Zn323 O331 1.943 . S
O324 Zn323 1.962 . S
O324 C329 1.254 . S
O325 Zn322 2.031 . S
O325 C329 1.269 . S
O326 Zn323 1.986 . S
O326 C333 1.262 . S
O327 Zn322 2.049 . S
O327 C335 1.260 . S
O328 Zn323 1.996 . S
O328 C335 1.257 . S
C329 O324 1.254 . S
C329 O325 1.269 . S
C330 O331 1.249 . S
C330 O332 1.270 . S
O331 Zn323 1.943 . S
O331 C330 1.249 . S
O332 Zn322 2.067 . S
O332 C330 1.270 . S
C333 O326 1.262 . S
C333 O334 1.232 . S
O334 C333 1.232 . S
C335 O327 1.260 . S
C335 O328 1.257 . S
C336 C337 1.363 . S
C336 C342 1.379 1_545 S
C336 N344 1.356 . S
C337 C336 1.363 . S
C337 C343 1.363 . S
C338 C339 1.363 . S
C338 C343 1.379 1_565 S
C338 N345 1.356 . S
C339 C338 1.363 . S
C339 C342 1.363 . S
N340 C342 1.356 . S
N340 H352 0.984 . S
N340 H353 0.985 . S
N341 C343 1.356 . S
N341 H346 0.984 . S
N341 H347 0.985 . S
C342 C336 1.379 1_565 S
C342 C339 1.363 . S
C342 N340 1.356 . S
C343 C337 1.363 . S
C343 C338 1.379 1_545 S
C343 N341 1.356 . S
N344 C336 1.356 . S
N344 H350 0.984 . S
N344 H351 0.984 . S
N345 C338 1.356 . S
N345 H348 0.984 . S
N345 H349 0.985 . S
H346 N341 0.984 . S
H347 N341 0.985 . S
H348 N345 0.984 . S
H349 N345 0.985 . S
H350 N344 0.984 . S
H351 N344 0.984 . S
H352 N340 0.984 . S
H353 N340 0.985 . S
C354 C355 1.363 . S
C354 C360 1.379 . S
C354 N362 1.356 . S
C355 C354 1.363 . S
C355 C361 1.363 . S
C356 C357 1.363 . S
C356 C361 1.379 . S
C356 N363 1.356 . S
C357 C356 1.363 . S
C357 C360 1.363 . S
N358 C360 1.356 . S
N358 H370 0.984 . S
N358 H371 0.985 . S
N359 C361 1.356 . S
N359 H364 0.984 . S
N359 H365 0.985 . S
C360 C354 1.379 . S
C360 C357 1.363 . S
C360 N358 1.356 . S
C361 C355 1.363 . S
C361 C356 1.379 . S
C361 N359 1.356 . S
N362 C354 1.356 . S
N362 H368 0.984 . S
N362 H369 0.984 . S
N363 C356 1.356 . S
N363 H366 0.984 . S
N363 H367 0.985 . S
H364 N359 0.984 . S
H365 N359 0.985 . S
H366 N363 0.984 . S
H367 N363 0.985 . S
H368 N362 0.984 . S
H369 N362 0.984 . S
H370 N358 0.984 . S
H371 N358 0.985 . S
C372 C373 1.363 . S
C372 C378 1.379 1_655 S
C372 N380 1.356 . S
C373 C372 1.363 . S
C373 C379 1.363 . S
C374 C375 1.363 . S
C374 C379 1.379 1_455 S
C374 N381 1.356 . S
C375 C374 1.363 . S
C375 C378 1.363 . S
N376 C378 1.356 . S
N376 H388 0.984 . S
N376 H389 0.985 . S
N377 C379 1.356 . S
N377 H382 0.984 . S
N377 H383 0.985 . S
C378 C372 1.379 1_455 S
C378 C375 1.363 . S
C378 N376 1.356 . S
C379 C373 1.363 . S
C379 C374 1.379 1_655 S
C379 N377 1.356 . S
N380 C372 1.356 . S
N380 H386 0.984 . S
N380 H387 0.984 . S
N381 C374 1.356 . S
N381 H384 0.984 . S
N381 H385 0.985 . S
H382 N377 0.984 . S
H383 N377 0.985 . S
H384 N381 0.984 . S
H385 N381 0.985 . S
H386 N380 0.984 . S
H387 N380 0.984 . S
H388 N376 0.984 . S
H389 N376 0.985 . S
C390 C391 1.363 . S
C390 C396 1.379 1_565 S
C390 N398 1.356 . S
C391 C390 1.363 . S
C391 C397 1.363 . S
C392 C393 1.363 . S
C392 C397 1.379 1_545 S
C392 N399 1.356 . S
C393 C392 1.363 . S
C393 C396 1.363 . S
N394 C396 1.356 . S
N394 H406 0.984 . S
N394 H407 0.985 . S
N395 C397 1.356 . S
N395 H400 0.984 . S
N395 H401 0.985 . S
C396 C390 1.379 1_545 S
C396 C393 1.363 . S
C396 N394 1.356 . S
C397 C391 1.363 . S
C397 C392 1.379 1_565 S
C397 N395 1.356 . S
N398 C390 1.356 . S
N398 H404 0.984 . S
N398 H405 0.984 . S
N399 C392 1.356 . S
N399 H402 0.984 . S
N399 H403 0.985 . S
H400 N395 0.984 . S
H401 N395 0.985 . S
H402 N399 0.984 . S
H403 N399 0.985 . S
H404 N398 0.984 . S
H405 N398 0.984 . S
H406 N394 0.984 . S
H407 N394 0.985 . S
C408 C409 1.363 . S
C408 C414 1.379 . S
C408 N416 1.356 . S
C409 C408 1.363 . S
C409 C415 1.363 . S
C410 C411 1.363 . S
C410 C415 1.379 . S
C410 N417 1.356 . S
C411 C410 1.363 . S
C411 C414 1.363 . S
N412 C414 1.356 . S
N412 H424 0.984 . S
N412 H425 0.985 . S
N413 C415 1.356 . S
N413 H418 0.984 . S
N413 H419 0.985 . S
C414 C408 1.379 . S
C414 C411 1.363 . S
C414 N412 1.356 . S
C415 C409 1.363 . S
C415 C410 1.379 . S
C415 N413 1.356 . S
N416 C408 1.356 . S
N416 H422 0.984 . S
N416 H423 0.984 . S
N417 C410 1.356 . S
N417 H420 0.984 . S
N417 H421 0.985 . S
H418 N413 0.984 . S
H419 N413 0.985 . S
H420 N417 0.984 . S
H421 N417 0.985 . S
H422 N416 0.984 . S
H423 N416 0.984 . S
H424 N412 0.984 . S
H425 N412 0.985 . S
C426 C427 1.363 . S
C426 C432 1.379 1_455 S
C426 N434 1.356 . S
C427 C426 1.363 . S
C427 C433 1.363 . S
C428 C429 1.363 . S
C428 C433 1.379 1_655 S
C428 N435 1.356 . S
C429 C428 1.363 . S
C429 C432 1.363 . S
N430 C432 1.356 . S
N430 H442 0.984 . S
N430 H443 0.985 . S
N431 C433 1.356 . S
N431 H436 0.984 . S
N431 H437 0.985 . S
C432 C426 1.379 1_655 S
C432 C429 1.363 . S
C432 N430 1.356 . S
C433 C427 1.363 . S
C433 C428 1.379 1_455 S
C433 N431 1.356 . S
N434 C426 1.356 . S
N434 H440 0.984 . S
N434 H441 0.984 . S
N435 C428 1.356 . S
N435 H438 0.984 . S
N435 H439 0.985 . S
H436 N431 0.984 . S
H437 N431 0.985 . S
H438 N435 0.984 . S
H439 N435 0.985 . S
H440 N434 0.984 . S
H441 N434 0.984 . S
H442 N430 0.984 . S
H443 N430 0.985 . S
C444 C445 1.363 . S
C444 C450 1.379 1_565 S
C444 N452 1.356 . S
C445 C444 1.363 . S
C445 C451 1.363 . S
C446 C447 1.363 . S
C446 C451 1.379 1_545 S
C446 N453 1.356 . S
C447 C446 1.363 . S
C447 C450 1.363 . S
N448 C450 1.356 . S
N448 H460 0.984 . S
N448 H461 0.985 . S
N449 C451 1.356 . S
N449 H454 0.984 . S
N449 H455 0.985 . S
C450 C444 1.379 1_545 S
C450 C447 1.363 . S
C450 N448 1.356 . S
C451 C445 1.363 . S
C451 C446 1.379 1_565 S
C451 N449 1.356 . S
N452 C444 1.356 . S
N452 H458 0.984 . S
N452 H459 0.984 . S
N453 C446 1.356 . S
N453 H456 0.984 . S
N453 H457 0.985 . S
H454 N449 0.984 . S
H455 N449 0.985 . S
H456 N453 0.984 . S
H457 N453 0.985 . S
H458 N452 0.984 . S
H459 N452 0.984 . S
H460 N448 0.984 . S
H461 N448 0.985 . S
C462 C463 1.363 . S
C462 C468 1.379 . S
C462 N470 1.356 . S
C463 C462 1.363 . S
C463 C469 1.363 . S
C464 C465 1.363 . S
C464 C469 1.379 . S
C464 N471 1.356 . S
C465 C464 1.363 . S
C465 C468 1.363 . S
N466 C468 1.356 . S
N466 H478 0.984 . S
N466 H479 0.985 . S
N467 C469 1.356 . S
N467 H472 0.984 . S
N467 H473 0.985 . S
C468 C462 1.379 . S
C468 C465 1.363 . S
C468 N466 1.356 . S
C469 C463 1.363 . S
C469 C464 1.379 . S
C469 N467 1.356 . S
N470 C462 1.356 . S
N470 H476 0.984 . S
N470 H477 0.984 . S
N471 C464 1.356 . S
N471 H474 0.984 . S
N471 H475 0.985 . S
H472 N467 0.984 . S
H473 N467 0.985 . S
H474 N471 0.984 . S
H475 N471 0.985 . S
H476 N470 0.984 . S
H477 N470 0.984 . S
H478 N466 0.984 . S
H479 N466 0.985 . S
C480 C481 1.363 . S
C480 C486 1.379 1_655 S
C480 N488 1.356 . S
C481 C480 1.363 . S
C481 C487 1.363 . S
C482 C483 1.363 . S
C482 C487 1.379 1_455 S
C482 N489 1.356 . S
C483 C482 1.363 . S
C483 C486 1.363 . S
N484 C486 1.356 . S
N484 H496 0.984 . S
N484 H497 0.985 . S
N485 C487 1.356 . S
N485 H490 0.984 . S
N485 H491 0.985 . S
C486 C480 1.379 1_455 S
C486 C483 1.363 . S
C486 N484 1.356 . S
C487 C481 1.363 . S
C487 C482 1.379 1_655 S
C487 N485 1.356 . S
N488 C480 1.356 . S
N488 H494 0.984 . S
N488 H495 0.984 . S
N489 C482 1.356 . S
N489 H492 0.984 . S
N489 H493 0.985 . S
H490 N485 0.984 . S
H491 N485 0.985 . S
H492 N489 0.984 . S
H493 N489 0.985 . S
H494 N488 0.984 . S
H495 N488 0.984 . S
H496 N484 0.984 . S
H497 N484 0.985 . S
C498 C499 1.363 . S
C498 C504 1.379 1_545 S
C498 N506 1.356 . S
C499 C498 1.363 . S
C499 C505 1.363 . S
C500 C501 1.363 . S
C500 C505 1.379 1_565 S
C500 N507 1.356 . S
C501 C500 1.363 . S
C501 C504 1.363 . S
N502 C504 1.356 . S
N502 H514 0.984 . S
N502 H515 0.985 . S
N503 C505 1.356 . S
N503 H508 0.984 . S
N503 H509 0.985 . S
C504 C498 1.379 1_565 S
C504 C501 1.363 . S
C504 N502 1.356 . S
C505 C499 1.363 . S
C505 C500 1.379 1_545 S
C505 N503 1.356 . S
N506 C498 1.356 . S
N506 H512 0.984 . S
N506 H513 0.984 . S
N507 C500 1.356 . S
N507 H510 0.984 . S
N507 H511 0.985 . S
H508 N503 0.984 . S
H509 N503 0.985 . S
H510 N507 0.984 . S
H511 N507 0.985 . S
H512 N506 0.984 . S
H513 N506 0.984 . S
H514 N502 0.984 . S
H515 N502 0.985 . S
C516 C517 1.363 . S
C516 C522 1.379 . S
C516 N524 1.356 . S
C517 C516 1.363 . S
C517 C523 1.363 . S
C518 C519 1.363 . S
C518 C523 1.379 . S
C518 N525 1.356 . S
C519 C518 1.363 . S
C519 C522 1.363 . S
N520 C522 1.356 . S
N520 H532 0.984 . S
N520 H533 0.985 . S
N521 C523 1.356 . S
N521 H526 0.984 . S
N521 H527 0.985 . S
C522 C516 1.379 . S
C522 C519 1.363 . S
C522 N520 1.356 . S
C523 C517 1.363 . S
C523 C518 1.379 . S
C523 N521 1.356 . S
N524 C516 1.356 . S
N524 H530 0.984 . S
N524 H531 0.984 . S
N525 C518 1.356 . S
N525 H528 0.984 . S
N525 H529 0.985 . S
H526 N521 0.984 . S
H527 N521 0.985 . S
H528 N525 0.984 . S
H529 N525 0.985 . S
H530 N524 0.984 . S
H531 N524 0.984 . S
H532 N520 0.984 . S
H533 N520 0.985 . S
C534 C535 1.363 . S
C534 C540 1.379 1_455 S
C534 N542 1.356 . S
C535 C534 1.363 . S
C535 C541 1.363 . S
C536 C537 1.363 . S
C536 C541 1.379 1_655 S
C536 N543 1.356 . S
C537 C536 1.363 . S
C537 C540 1.363 . S
N538 C540 1.356 . S
N538 H550 0.984 . S
N538 H551 0.985 . S
N539 C541 1.356 . S
N539 H544 0.984 . S
N539 H545 0.985 . S
C540 C534 1.379 1_655 S
C540 C537 1.363 . S
C540 N538 1.356 . S
C541 C535 1.363 . S
C541 C536 1.379 1_455 S
C541 N539 1.356 . S
N542 C534 1.356 . S
N542 H548 0.984 . S
N542 H549 0.984 . S
N543 C536 1.356 . S
N543 H546 0.984 . S
N543 H547 0.985 . S
H544 N539 0.984 . S
H545 N539 0.985 . S
H546 N543 0.984 . S
H547 N543 0.985 . S
H548 N542 0.984 . S
H549 N542 0.984 . S
H550 N538 0.984 . S
H551 N538 0.985 . S
C552 C553 1.363 . S
C552 C558 1.379 . S
C552 N560 1.356 . S
C553 C552 1.363 . S
C553 C559 1.363 . S
C554 C555 1.363 . S
C554 C559 1.379 . S
C554 N561 1.356 . S
C555 C554 1.363 . S
C555 C558 1.363 . S
N556 C558 1.356 . S
N556 H568 0.984 . S
N556 H569 0.985 . S
N557 C559 1.356 . S
N557 H562 0.984 . S
N557 H563 0.985 . S
C558 C552 1.379 . S
C558 C555 1.363 . S
C558 N556 1.356 . S
C559 C553 1.363 . S
C559 C554 1.379 . S
C559 N557 1.356 . S
N560 C552 1.356 . S
N560 H566 0.984 . S
N560 H567 0.984 . S
N561 C554 1.356 . S
N561 H564 0.984 . S
N561 H565 0.985 . S
H562 N557 0.984 . S
H563 N557 0.985 . S
H564 N561 0.984 . S
H565 N561 0.985 . S
H566 N560 0.984 . S
H567 N560 0.984 . S
H568 N556 0.984 . S
H569 N556 0.985 . S
C570 C571 1.363 . S
C570 C576 1.379 . S
C570 N578 1.356 . S
C571 C570 1.363 . S
C571 C577 1.363 . S
C572 C573 1.363 . S
C572 C577 1.379 . S
C572 N579 1.356 . S
C573 C572 1.363 . S
C573 C576 1.363 . S
N574 C576 1.356 . S
N574 H586 0.984 . S
N574 H587 0.985 . S
N575 C577 1.356 . S
N575 H580 0.984 . S
N575 H581 0.985 . S
C576 C570 1.379 . S
C576 C573 1.363 . S
C576 N574 1.356 . S
C577 C571 1.363 . S
C577 C572 1.379 . S
C577 N575 1.356 . S
N578 C570 1.356 . S
N578 H584 0.984 . S
N578 H585 0.984 . S
N579 C572 1.356 . S
N579 H582 0.984 . S
N579 H583 0.985 . S
H580 N575 0.984 . S
H581 N575 0.985 . S
H582 N579 0.984 . S
H583 N579 0.985 . S
H584 N578 0.984 . S
H585 N578 0.984 . S
H586 N574 0.984 . S
H587 N574 0.985 . S
C588 C589 1.363 . S
C588 C594 1.379 . S
C588 N596 1.356 . S
C589 C588 1.363 . S
C589 C595 1.363 . S
C590 C591 1.363 . S
C590 C595 1.379 . S
C590 N597 1.356 . S
C591 C590 1.363 . S
C591 C594 1.363 . S
N592 C594 1.356 . S
N592 H604 0.984 . S
N592 H605 0.985 . S
N593 C595 1.356 . S
N593 H598 0.984 . S
N593 H599 0.985 . S
C594 C588 1.379 . S
C594 C591 1.363 . S
C594 N592 1.356 . S
C595 C589 1.363 . S
C595 C590 1.379 . S
C595 N593 1.356 . S
N596 C588 1.356 . S
N596 H602 0.984 . S
N596 H603 0.984 . S
N597 C590 1.356 . S
N597 H600 0.984 . S
N597 H601 0.985 . S
H598 N593 0.984 . S
H599 N593 0.985 . S
H600 N597 0.984 . S
H601 N597 0.985 . S
H602 N596 0.984 . S
H603 N596 0.984 . S
H604 N592 0.984 . S
H605 N592 0.985 . S
C606 C607 1.363 . S
C606 C612 1.379 . S
C606 N614 1.356 . S
C607 C606 1.363 . S
C607 C613 1.363 . S
C608 C609 1.363 . S
C608 C613 1.379 . S
C608 N615 1.356 . S
C609 C608 1.363 . S
C609 C612 1.363 . S
N610 C612 1.356 . S
N610 H622 0.984 . S
N610 H623 0.985 . S
N611 C613 1.356 . S
N611 H616 0.984 . S
N611 H617 0.985 . S
C612 C606 1.379 . S
C612 C609 1.363 . S
C612 N610 1.356 . S
C613 C607 1.363 . S
C613 C608 1.379 . S
C613 N611 1.356 . S
N614 C606 1.356 . S
N614 H620 0.984 . S
N614 H621 0.984 . S
N615 C608 1.356 . S
N615 H618 0.984 . S
N615 H619 0.985 . S
H616 N611 0.984 . S
H617 N611 0.985 . S
H618 N615 0.984 . S
H619 N615 0.985 . S
H620 N614 0.984 . S
H621 N614 0.984 . S
H622 N610 0.984 . S
H623 N610 0.985 . S
C624 C625 1.363 . S
C624 C630 1.379 . S
C624 N632 1.356 . S
C625 C624 1.363 . S
C625 C631 1.363 . S
C626 C627 1.363 . S
C626 C631 1.379 . S
C626 N633 1.356 . S
C627 C626 1.363 . S
C627 C630 1.363 . S
N628 C630 1.356 . S
N628 H640 0.984 . S
N628 H641 0.985 . S
N629 C631 1.356 . S
N629 H634 0.984 . S
N629 H635 0.985 . S
C630 C624 1.379 . S
C630 C627 1.363 . S
C630 N628 1.356 . S
C631 C625 1.363 . S
C631 C626 1.379 . S
C631 N629 1.356 . S
N632 C624 1.356 . S
N632 H638 0.984 . S
N632 H639 0.984 . S
N633 C626 1.356 . S
N633 H636 0.984 . S
N633 H637 0.985 . S
H634 N629 0.984 . S
H635 N629 0.985 . S
H636 N633 0.984 . S
H637 N633 0.985 . S
H638 N632 0.984 . S
H639 N632 0.984 . S
H640 N628 0.984 . S
H641 N628 0.985 . S
C642 C643 1.363 . S
C642 C648 1.379 . S
C642 N650 1.356 . S
C643 C642 1.363 . S
C643 C649 1.363 . S
C644 C645 1.363 . S
C644 C649 1.379 . S
C644 N651 1.356 . S
C645 C644 1.363 . S
C645 C648 1.363 . S
N646 C648 1.356 . S
N646 H658 0.984 . S
N646 H659 0.985 . S
N647 C649 1.356 . S
N647 H652 0.984 . S
N647 H653 0.985 . S
C648 C642 1.379 . S
C648 C645 1.363 . S
C648 N646 1.356 . S
C649 C643 1.363 . S
C649 C644 1.379 . S
C649 N647 1.356 . S
N650 C642 1.356 . S
N650 H656 0.984 . S
N650 H657 0.984 . S
N651 C644 1.356 . S
N651 H654 0.984 . S
N651 H655 0.985 . S
H652 N647 0.984 . S
H653 N647 0.985 . S
H654 N651 0.984 . S
H655 N651 0.985 . S
H656 N650 0.984 . S
H657 N650 0.984 . S
H658 N646 0.984 . S
H659 N646 0.985 . S
C660 C661 1.363 . S
C660 C666 1.379 . S
C660 N668 1.356 . S
C661 C660 1.363 . S
C661 C667 1.363 . S
C662 C663 1.363 . S
C662 C667 1.379 . S
C662 N669 1.356 . S
C663 C662 1.363 . S
C663 C666 1.363 . S
N664 C666 1.356 . S
N664 H676 0.984 . S
N664 H677 0.985 . S
N665 C667 1.356 . S
N665 H670 0.984 . S
N665 H671 0.985 . S
C666 C660 1.379 . S
C666 C663 1.363 . S
C666 N664 1.356 . S
C667 C661 1.363 . S
C667 C662 1.379 . S
C667 N665 1.356 . S
N668 C660 1.356 . S
N668 H674 0.984 . S
N668 H675 0.984 . S
N669 C662 1.356 . S
N669 H672 0.984 . S
N669 H673 0.985 . S
H670 N665 0.984 . S
H671 N665 0.985 . S
H672 N669 0.984 . S
H673 N669 0.985 . S
H674 N668 0.984 . S
H675 N668 0.984 . S
H676 N664 0.984 . S
H677 N664 0.985 . S
C678 C679 1.363 . S
C678 C684 1.379 . S
C678 N686 1.356 . S
C679 C678 1.363 . S
C679 C685 1.363 . S
C680 C681 1.363 . S
C680 C685 1.379 . S
C680 N687 1.356 . S
C681 C680 1.363 . S
C681 C684 1.363 . S
N682 C684 1.356 . S
N682 H694 0.984 . S
N682 H695 0.985 . S
N683 C685 1.356 . S
N683 H688 0.984 . S
N683 H689 0.985 . S
C684 C678 1.379 . S
C684 C681 1.363 . S
C684 N682 1.356 . S
C685 C679 1.363 . S
C685 C680 1.379 . S
C685 N683 1.356 . S
N686 C678 1.356 . S
N686 H692 0.984 . S
N686 H693 0.984 . S
N687 C680 1.356 . S
N687 H690 0.984 . S
N687 H691 0.985 . S
H688 N683 0.984 . S
H689 N683 0.985 . S
H690 N687 0.984 . S
H691 N687 0.985 . S
H692 N686 0.984 . S
H693 N686 0.984 . S
H694 N682 0.984 . S
H695 N682 0.985 . S
C696 C697 1.363 . S
C696 C702 1.379 . S
C696 N704 1.356 . S
C697 C696 1.363 . S
C697 C703 1.363 . S
C698 C699 1.363 . S
C698 C703 1.379 . S
C698 N705 1.356 . S
C699 C698 1.363 . S
C699 C702 1.363 . S
N700 C702 1.356 . S
N700 H712 0.984 . S
N700 H713 0.985 . S
N701 C703 1.356 . S
N701 H706 0.984 . S
N701 H707 0.985 . S
C702 C696 1.379 . S
C702 C699 1.363 . S
C702 N700 1.356 . S
C703 C697 1.363 . S
C703 C698 1.379 . S
C703 N701 1.356 . S
N704 C696 1.356 . S
N704 H710 0.984 . S
N704 H711 0.984 . S
N705 C698 1.356 . S
N705 H708 0.984 . S
N705 H709 0.985 . S
H706 N701 0.984 . S
H707 N701 0.985 . S
H708 N705 0.984 . S
H709 N705 0.985 . S
H710 N704 0.984 . S
H711 N704 0.984 . S
H712 N700 0.984 . S
H713 N700 0.985 . S
C714 C715 1.363 . S
C714 C720 1.379 . S
C714 N722 1.356 . S
C715 C714 1.363 . S
C715 C721 1.363 . S
C716 C717 1.363 . S
C716 C721 1.379 . S
C716 N723 1.356 . S
C717 C716 1.363 . S
C717 C720 1.363 . S
N718 C720 1.356 . S
N718 H730 0.984 . S
N718 H731 0.985 . S
N719 C721 1.356 . S
N719 H724 0.984 . S
N719 H725 0.985 . S
C720 C714 1.379 . S
C720 C717 1.363 . S
C720 N718 1.356 . S
C721 C715 1.363 . S
C721 C716 1.379 . S
C721 N719 1.356 . S
N722 C714 1.356 . S
N722 H728 0.984 . S
N722 H729 0.984 . S
N723 C716 1.356 . S
N723 H726 0.984 . S
N723 H727 0.985 . S
H724 N719 0.984 . S
H725 N719 0.985 . S
H726 N723 0.984 . S
H727 N723 0.985 . S
H728 N722 0.984 . S
H729 N722 0.984 . S
H730 N718 0.984 . S
H731 N718 0.985 . S
C732 C733 1.363 . S
C732 C738 1.379 . S
C732 N740 1.356 . S
C733 C732 1.363 . S
C733 C739 1.363 . S
C734 C735 1.363 . S
C734 C739 1.379 . S
C734 N741 1.356 . S
C735 C734 1.363 . S
C735 C738 1.363 . S
N736 C738 1.356 . S
N736 H748 0.984 . S
N736 H749 0.985 . S
N737 C739 1.356 . S
N737 H742 0.984 . S
N737 H743 0.985 . S
C738 C732 1.379 . S
C738 C735 1.363 . S
C738 N736 1.356 . S
C739 C733 1.363 . S
C739 C734 1.379 . S
C739 N737 1.356 . S
N740 C732 1.356 . S
N740 H746 0.984 . S
N740 H747 0.984 . S
N741 C734 1.356 . S
N741 H744 0.984 . S
N741 H745 0.985 . S
H742 N737 0.984 . S
H743 N737 0.985 . S
H744 N741 0.984 . S
H745 N741 0.985 . S
H746 N740 0.984 . S
H747 N740 0.984 . S
H748 N736 0.984 . S
H749 N736 0.985 . S
C750 C751 1.363 . S
C750 C756 1.379 . S
C750 N758 1.356 . S
C751 C750 1.363 . S
C751 C757 1.363 . S
C752 C753 1.363 . S
C752 C757 1.379 . S
C752 N759 1.356 . S
C753 C752 1.363 . S
C753 C756 1.363 . S
N754 C756 1.356 . S
N754 H766 0.984 . S
N754 H767 0.985 . S
N755 C757 1.356 . S
N755 H760 0.984 . S
N755 H761 0.985 . S
C756 C750 1.379 . S
C756 C753 1.363 . S
C756 N754 1.356 . S
C757 C751 1.363 . S
C757 C752 1.379 . S
C757 N755 1.356 . S
N758 C750 1.356 . S
N758 H764 0.984 . S
N758 H765 0.984 . S
N759 C752 1.356 . S
N759 H762 0.984 . S
N759 H763 0.985 . S
H760 N755 0.984 . S
H761 N755 0.985 . S
H762 N759 0.984 . S
H763 N759 0.985 . S
H764 N758 0.984 . S
H765 N758 0.984 . S
H766 N754 0.984 . S
H767 N754 0.985 . S
C768 C769 1.363 . S
C768 C774 1.379 1_554 S
C768 N776 1.356 . S
C769 C768 1.363 . S
C769 C775 1.363 . S
C770 C771 1.363 . S
C770 C775 1.379 1_556 S
C770 N777 1.356 . S
C771 C770 1.363 . S
C771 C774 1.363 . S
N772 C774 1.356 . S
N772 H784 0.984 . S
N772 H785 0.985 . S
N773 C775 1.356 . S
N773 H778 0.984 . S
N773 H779 0.985 . S
C774 C768 1.379 1_556 S
C774 C771 1.363 . S
C774 N772 1.356 . S
C775 C769 1.363 . S
C775 C770 1.379 1_554 S
C775 N773 1.356 . S
N776 C768 1.356 . S
N776 H782 0.984 . S
N776 H783 0.984 . S
N777 C770 1.356 . S
N777 H780 0.984 . S
N777 H781 0.985 . S
H778 N773 0.984 . S
H779 N773 0.985 . S
H780 N777 0.984 . S
H781 N777 0.985 . S
H782 N776 0.984 . S
H783 N776 0.984 . S
H784 N772 0.984 . S
H785 N772 0.985 . S
C786 C787 1.363 . S
C786 C792 1.379 1_556 S
C786 N794 1.356 . S
C787 C786 1.363 . S
C787 C793 1.363 . S
C788 C789 1.363 . S
C788 C793 1.379 1_554 S
C788 N795 1.356 . S
C789 C788 1.363 . S
C789 C792 1.363 . S
N790 C792 1.356 . S
N790 H802 0.984 . S
N790 H803 0.985 . S
N791 C793 1.356 . S
N791 H796 0.984 . S
N791 H797 0.985 . S
C792 C786 1.379 1_554 S
C792 C789 1.363 . S
C792 N790 1.356 . S
C793 C787 1.363 . S
C793 C788 1.379 1_556 S
C793 N791 1.356 . S
N794 C786 1.356 . S
N794 H800 0.984 . S
N794 H801 0.984 . S
N795 C788 1.356 . S
N795 H798 0.984 . S
N795 H799 0.985 . S
H796 N791 0.984 . S
H797 N791 0.985 . S
H798 N795 0.984 . S
H799 N795 0.985 . S
H800 N794 0.984 . S
H801 N794 0.984 . S
H802 N790 0.984 . S
H803 N790 0.985 . S
C804 C805 1.363 . S
C804 C810 1.379 1_556 S
C804 N812 1.356 . S
C805 C804 1.363 . S
C805 C811 1.363 . S
C806 C807 1.363 . S
C806 C811 1.379 1_554 S
C806 N813 1.356 . S
C807 C806 1.363 . S
C807 C810 1.363 . S
N808 C810 1.356 . S
N808 H820 0.984 . S
N808 H821 0.985 . S
N809 C811 1.356 . S
N809 H814 0.984 . S
N809 H815 0.985 . S
C810 C804 1.379 1_554 S
C810 C807 1.363 . S
C810 N808 1.356 . S
C811 C805 1.363 . S
C811 C806 1.379 1_556 S
C811 N809 1.356 . S
N812 C804 1.356 . S
N812 H818 0.984 . S
N812 H819 0.984 . S
N813 C806 1.356 . S
N813 H816 0.984 . S
N813 H817 0.985 . S
H814 N809 0.984 . S
H815 N809 0.985 . S
H816 N813 0.984 . S
H817 N813 0.985 . S
H818 N812 0.984 . S
H819 N812 0.984 . S
H820 N808 0.984 . S
H821 N808 0.985 . S
C822 C823 1.363 . S
C822 C828 1.379 1_554 S
C822 N830 1.356 . S
C823 C822 1.363 . S
C823 C829 1.363 . S
C824 C825 1.363 . S
C824 C829 1.379 1_556 S
C824 N831 1.356 . S
C825 C824 1.363 . S
C825 C828 1.363 . S
N826 C828 1.356 . S
N826 H838 0.984 . S
N826 H839 0.985 . S
N827 C829 1.356 . S
N827 H832 0.984 . S
N827 H833 0.985 . S
C828 C822 1.379 1_556 S
C828 C825 1.363 . S
C828 N826 1.356 . S
C829 C823 1.363 . S
C829 C824 1.379 1_554 S
C829 N827 1.356 . S
N830 C822 1.356 . S
N830 H836 0.984 . S
N830 H837 0.984 . S
N831 C824 1.356 . S
N831 H834 0.984 . S
N831 H835 0.985 . S
H832 N827 0.984 . S
H833 N827 0.985 . S
H834 N831 0.984 . S
H835 N831 0.985 . S
H836 N830 0.984 . S
H837 N830 0.984 . S
H838 N826 0.984 . S
H839 N826 0.985 . S
C840 C841 1.363 . S
C840 C846 1.379 1_554 S
C840 N848 1.356 . S
C841 C840 1.363 . S
C841 C847 1.363 . S
C842 C843 1.363 . S
C842 C847 1.379 1_556 S
C842 N849 1.356 . S
C843 C842 1.363 . S
C843 C846 1.363 . S
N844 C846 1.356 . S
N844 H856 0.984 . S
N844 H857 0.985 . S
N845 C847 1.356 . S
N845 H850 0.984 . S
N845 H851 0.985 . S
C846 C840 1.379 1_556 S
C846 C843 1.363 . S
C846 N844 1.356 . S
C847 C841 1.363 . S
C847 C842 1.379 1_554 S
C847 N845 1.356 . S
N848 C840 1.356 . S
N848 H854 0.984 . S
N848 H855 0.984 . S
N849 C842 1.356 . S
N849 H852 0.984 . S
N849 H853 0.985 . S
H850 N845 0.984 . S
H851 N845 0.985 . S
H852 N849 0.984 . S
H853 N849 0.985 . S
H854 N848 0.984 . S
H855 N848 0.984 . S
H856 N844 0.984 . S
H857 N844 0.985 . S
C858 C859 1.363 . S
C858 C864 1.379 1_556 S
C858 N866 1.356 . S
C859 C858 1.363 . S
C859 C865 1.363 . S
C860 C861 1.363 . S
C860 C865 1.379 1_554 S
C860 N867 1.356 . S
C861 C860 1.363 . S
C861 C864 1.363 . S
N862 C864 1.356 . S
N862 H874 0.984 . S
N862 H875 0.985 . S
N863 C865 1.356 . S
N863 H868 0.984 . S
N863 H869 0.985 . S
C864 C858 1.379 1_554 S
C864 C861 1.363 . S
C864 N862 1.356 . S
C865 C859 1.363 . S
C865 C860 1.379 1_556 S
C865 N863 1.356 . S
N866 C858 1.356 . S
N866 H872 0.984 . S
N866 H873 0.984 . S
N867 C860 1.356 . S
N867 H870 0.984 . S
N867 H871 0.985 . S
H868 N863 0.984 . S
H869 N863 0.985 . S
H870 N867 0.984 . S
H871 N867 0.985 . S
H872 N866 0.984 . S
H873 N866 0.984 . S
H874 N862 0.984 . S
H875 N862 0.985 . S
C876 C877 1.363 . S
C876 C882 1.379 . S
C876 N884 1.356 . S
C877 C876 1.363 . S
C877 C883 1.363 . S
C878 C879 1.363 . S
C878 C883 1.379 . S
C878 N885 1.356 . S
C879 C878 1.363 . S
C879 C882 1.363 . S
N880 C882 1.356 . S
N880 H892 0.984 . S
N880 H893 0.985 . S
N881 C883 1.356 . S
N881 H886 0.984 . S
N881 H887 0.985 . S
C882 C876 1.379 . S
C882 C879 1.363 . S
C882 N880 1.356 . S
C883 C877 1.363 . S
C883 C878 1.379 . S
C883 N881 1.356 . S
N884 C876 1.356 . S
N884 H890 0.984 . S
N884 H891 0.984 . S
N885 C878 1.356 . S
N885 H888 0.984 . S
N885 H889 0.985 . S
H886 N881 0.984 . S
H887 N881 0.985 . S
H888 N885 0.984 . S
H889 N885 0.985 . S
H890 N884 0.984 . S
H891 N884 0.984 . S
H892 N880 0.984 . S
H893 N880 0.985 . S
C894 C895 1.363 . S
C894 C900 1.379 . S
C894 N902 1.356 . S
C895 C894 1.363 . S
C895 C901 1.363 . S
C896 C897 1.363 . S
C896 C901 1.379 . S
C896 N903 1.356 . S
C897 C896 1.363 . S
C897 C900 1.363 . S
N898 C900 1.356 . S
N898 H910 0.984 . S
N898 H911 0.985 . S
N899 C901 1.356 . S
N899 H904 0.984 . S
N899 H905 0.985 . S
C900 C894 1.379 . S
C900 C897 1.363 . S
C900 N898 1.356 . S
C901 C895 1.363 . S
C901 C896 1.379 . S
C901 N899 1.356 . S
N902 C894 1.356 . S
N902 H908 0.984 . S
N902 H909 0.984 . S
N903 C896 1.356 . S
N903 H906 0.984 . S
N903 H907 0.985 . S
H904 N899 0.984 . S
H905 N899 0.985 . S
H906 N903 0.984 . S
H907 N903 0.985 . S
H908 N902 0.984 . S
H909 N902 0.984 . S
H910 N898 0.984 . S
H911 N898 0.985 . S
C912 C913 1.363 . S
C912 C918 1.379 . S
C912 N920 1.356 . S
C913 C912 1.363 . S
C913 C919 1.363 . S
C914 C915 1.363 . S
C914 C919 1.379 . S
C914 N921 1.356 . S
C915 C914 1.363 . S
C915 C918 1.363 . S
N916 C918 1.356 . S
N916 H928 0.984 . S
N916 H929 0.985 . S
N917 C919 1.356 . S
N917 H922 0.984 . S
N917 H923 0.985 . S
C918 C912 1.379 . S
C918 C915 1.363 . S
C918 N916 1.356 . S
C919 C913 1.363 . S
C919 C914 1.379 . S
C919 N917 1.356 . S
N920 C912 1.356 . S
N920 H926 0.984 . S
N920 H927 0.984 . S
N921 C914 1.356 . S
N921 H924 0.984 . S
N921 H925 0.985 . S
H922 N917 0.984 . S
H923 N917 0.985 . S
H924 N921 0.984 . S
H925 N921 0.985 . S
H926 N920 0.984 . S
H927 N920 0.984 . S
H928 N916 0.984 . S
H929 N916 0.985 . S
C930 C931 1.363 . S
C930 C936 1.379 . S
C930 N938 1.356 . S
C931 C930 1.363 . S
C931 C937 1.363 . S
C932 C933 1.363 . S
C932 C937 1.379 . S
C932 N939 1.356 . S
C933 C932 1.363 . S
C933 C936 1.363 . S
N934 C936 1.356 . S
N934 H946 0.984 . S
N934 H947 0.985 . S
N935 C937 1.356 . S
N935 H940 0.984 . S
N935 H941 0.985 . S
C936 C930 1.379 . S
C936 C933 1.363 . S
C936 N934 1.356 . S
C937 C931 1.363 . S
C937 C932 1.379 . S
C937 N935 1.356 . S
N938 C930 1.356 . S
N938 H944 0.984 . S
N938 H945 0.984 . S
N939 C932 1.356 . S
N939 H942 0.984 . S
N939 H943 0.985 . S
H940 N935 0.984 . S
H941 N935 0.985 . S
H942 N939 0.984 . S
H943 N939 0.985 . S
H944 N938 0.984 . S
H945 N938 0.984 . S
H946 N934 0.984 . S
H947 N934 0.985 . S
C948 C949 1.363 . S
C948 C954 1.379 . S
C948 N956 1.356 . S
C949 C948 1.363 . S
C949 C955 1.363 . S
C950 C951 1.363 . S
C950 C955 1.379 . S
C950 N957 1.356 . S
C951 C950 1.363 . S
C951 C954 1.363 . S
N952 C954 1.356 . S
N952 H964 0.984 . S
N952 H965 0.985 . S
N953 C955 1.356 . S
N953 H958 0.984 . S
N953 H959 0.985 . S
C954 C948 1.379 . S
C954 C951 1.363 . S
C954 N952 1.356 . S
C955 C949 1.363 . S
C955 C950 1.379 . S
C955 N953 1.356 . S
N956 C948 1.356 . S
N956 H962 0.984 . S
N956 H963 0.984 . S
N957 C950 1.356 . S
N957 H960 0.984 . S
N957 H961 0.985 . S
H958 N953 0.984 . S
H959 N953 0.985 . S
H960 N957 0.984 . S
H961 N957 0.985 . S
H962 N956 0.984 . S
H963 N956 0.984 . S
H964 N952 0.984 . S
H965 N952 0.985 . S
C966 C967 1.363 . S
C966 C972 1.379 . S
C966 N974 1.356 . S
C967 C966 1.363 . S
C967 C973 1.363 . S
C968 C969 1.363 . S
C968 C973 1.379 . S
C968 N975 1.356 . S
C969 C968 1.363 . S
C969 C972 1.363 . S
N970 C972 1.356 . S
N970 H982 0.984 . S
N970 H983 0.985 . S
N971 C973 1.356 . S
N971 H976 0.984 . S
N971 H977 0.985 . S
C972 C966 1.379 . S
C972 C969 1.363 . S
C972 N970 1.356 . S
C973 C967 1.363 . S
C973 C968 1.379 . S
C973 N971 1.356 . S
N974 C966 1.356 . S
N974 H980 0.984 . S
N974 H981 0.984 . S
N975 C968 1.356 . S
N975 H978 0.984 . S
N975 H979 0.985 . S
H976 N971 0.984 . S
H977 N971 0.985 . S
H978 N975 0.984 . S
H979 N975 0.985 . S
H980 N974 0.984 . S
H981 N974 0.984 . S
H982 N970 0.984 . S
H983 N970 0.985 . S
C984 C985 1.363 . S
C984 C990 1.379 . S
C984 N992 1.356 . S
C985 C984 1.363 . S
C985 C991 1.363 . S
C986 C987 1.363 . S
C986 C991 1.379 . S
C986 N993 1.356 . S
C987 C986 1.363 . S
C987 C990 1.363 . S
N988 C990 1.356 . S
N988 H1000 0.984 . S
N988 H1001 0.985 . S
N989 C991 1.356 . S
N989 H994 0.984 . S
N989 H995 0.985 . S
C990 C984 1.379 . S
C990 C987 1.363 . S
C990 N988 1.356 . S
C991 C985 1.363 . S
C991 C986 1.379 . S
C991 N989 1.356 . S
N992 C984 1.356 . S
N992 H998 0.984 . S
N992 H999 0.984 . S
N993 C986 1.356 . S
N993 H996 0.984 . S
N993 H997 0.985 . S
H994 N989 0.984 . S
H995 N989 0.985 . S
H996 N993 0.984 . S
H997 N993 0.985 . S
H998 N992 0.984 . S
H999 N992 0.984 . S
H1000 N988 0.984 . S
H1001 N988 0.985 . S
C1002 C1003 1.363 . S
C1002 C1008 1.379 . S
C1002 N1010 1.356 . S
C1003 C1002 1.363 . S
C1003 C1009 1.363 . S
C1004 C1005 1.363 . S
C1004 C1009 1.379 . S
C1004 N1011 1.356 . S
C1005 C1004 1.363 . S
C1005 C1008 1.363 . S
N1006 C1008 1.356 . S
N1006 H1018 0.984 . S
N1006 H1019 0.985 . S
N1007 C1009 1.356 . S
N1007 H1012 0.984 . S
N1007 H1013 0.985 . S
C1008 C1002 1.379 . S
C1008 C1005 1.363 . S
C1008 N1006 1.356 . S
C1009 C1003 1.363 . S
C1009 C1004 1.379 . S
C1009 N1007 1.356 . S
N1010 C1002 1.356 . S
N1010 H1016 0.984 . S
N1010 H1017 0.984 . S
N1011 C1004 1.356 . S
N1011 H1014 0.984 . S
N1011 H1015 0.985 . S
H1012 N1007 0.984 . S
H1013 N1007 0.985 . S
H1014 N1011 0.984 . S
H1015 N1011 0.985 . S
H1016 N1010 0.984 . S
H1017 N1010 0.984 . S
H1018 N1006 0.984 . S
H1019 N1006 0.985 . S
C1020 C1021 1.363 . S
C1020 C1026 1.379 . S
C1020 N1028 1.356 . S
C1021 C1020 1.363 . S
C1021 C1027 1.363 . S
C1022 C1023 1.363 . S
C1022 C1027 1.379 . S
C1022 N1029 1.356 . S
C1023 C1022 1.363 . S
C1023 C1026 1.363 . S
N1024 C1026 1.356 . S
N1024 H1036 0.984 . S
N1024 H1037 0.985 . S
N1025 C1027 1.356 . S
N1025 H1030 0.984 . S
N1025 H1031 0.985 . S
C1026 C1020 1.379 . S
C1026 C1023 1.363 . S
C1026 N1024 1.356 . S
C1027 C1021 1.363 . S
C1027 C1022 1.379 . S
C1027 N1025 1.356 . S
N1028 C1020 1.356 . S
N1028 H1034 0.984 . S
N1028 H1035 0.984 . S
N1029 C1022 1.356 . S
N1029 H1032 0.984 . S
N1029 H1033 0.985 . S
H1030 N1025 0.984 . S
H1031 N1025 0.985 . S
H1032 N1029 0.984 . S
H1033 N1029 0.985 . S
H1034 N1028 0.984 . S
H1035 N1028 0.984 . S
H1036 N1024 0.984 . S
H1037 N1024 0.985 . S
C1038 C1039 1.363 . S
C1038 C1044 1.379 . S
C1038 N1046 1.356 . S
C1039 C1038 1.363 . S
C1039 C1045 1.363 . S
C1040 C1041 1.363 . S
C1040 C1045 1.379 . S
C1040 N1047 1.356 . S
C1041 C1040 1.363 . S
C1041 C1044 1.363 . S
N1042 C1044 1.356 . S
N1042 H1054 0.984 . S
N1042 H1055 0.985 . S
N1043 C1045 1.356 . S
N1043 H1048 0.984 . S
N1043 H1049 0.985 . S
C1044 C1038 1.379 . S
C1044 C1041 1.363 . S
C1044 N1042 1.356 . S
C1045 C1039 1.363 . S
C1045 C1040 1.379 . S
C1045 N1043 1.356 . S
N1046 C1038 1.356 . S
N1046 H1052 0.984 . S
N1046 H1053 0.984 . S
N1047 C1040 1.356 . S
N1047 H1050 0.984 . S
N1047 H1051 0.985 . S
H1048 N1043 0.984 . S
H1049 N1043 0.985 . S
H1050 N1047 0.984 . S
H1051 N1047 0.985 . S
H1052 N1046 0.984 . S
H1053 N1046 0.984 . S
H1054 N1042 0.984 . S
H1055 N1042 0.985 . S
C1056 C1057 1.363 . S
C1056 C1062 1.379 . S
C1056 N1064 1.356 . S
C1057 C1056 1.363 . S
C1057 C1063 1.363 . S
C1058 C1059 1.363 . S
C1058 C1063 1.379 . S
C1058 N1065 1.356 . S
C1059 C1058 1.363 . S
C1059 C1062 1.363 . S
N1060 C1062 1.356 . S
N1060 H1072 0.984 . S
N1060 H1073 0.985 . S
N1061 C1063 1.356 . S
N1061 H1066 0.984 . S
N1061 H1067 0.985 . S
C1062 C1056 1.379 . S
C1062 C1059 1.363 . S
C1062 N1060 1.356 . S
C1063 C1057 1.363 . S
C1063 C1058 1.379 . S
C1063 N1061 1.356 . S
N1064 C1056 1.356 . S
N1064 H1070 0.984 . S
N1064 H1071 0.984 . S
N1065 C1058 1.356 . S
N1065 H1068 0.984 . S
N1065 H1069 0.985 . S
H1066 N1061 0.984 . S
H1067 N1061 0.985 . S
H1068 N1065 0.984 . S
H1069 N1065 0.985 . S
H1070 N1064 0.984 . S
H1071 N1064 0.984 . S
H1072 N1060 0.984 . S
H1073 N1060 0.985 . S
C1074 C1075 1.363 . S
C1074 C1080 1.379 . S
C1074 N1082 1.356 . S
C1075 C1074 1.363 . S
C1075 C1081 1.363 . S
C1076 C1077 1.363 . S
C1076 C1081 1.379 . S
C1076 N1083 1.356 . S
C1077 C1076 1.363 . S
C1077 C1080 1.363 . S
N1078 C1080 1.356 . S
N1078 H1090 0.984 . S
N1078 H1091 0.985 . S
N1079 C1081 1.356 . S
N1079 H1084 0.984 . S
N1079 H1085 0.985 . S
C1080 C1074 1.379 . S
C1080 C1077 1.363 . S
C1080 N1078 1.356 . S
C1081 C1075 1.363 . S
C1081 C1076 1.379 . S
C1081 N1079 1.356 . S
N1082 C1074 1.356 . S
N1082 H1088 0.984 . S
N1082 H1089 0.984 . S
N1083 C1076 1.356 . S
N1083 H1086 0.984 . S
N1083 H1087 0.985 . S
H1084 N1079 0.984 . S
H1085 N1079 0.985 . S
H1086 N1083 0.984 . S
H1087 N1083 0.985 . S
H1088 N1082 0.984 . S
H1089 N1082 0.984 . S
H1090 N1078 0.984 . S
H1091 N1078 0.985 . S
C1092 C1093 1.363 . S
C1092 C1098 1.379 . S
C1092 N1100 1.356 . S
C1093 C1092 1.363 . S
C1093 C1099 1.363 . S
C1094 C1095 1.363 . S
C1094 C1099 1.379 . S
C1094 N1101 1.356 . S
C1095 C1094 1.363 . S
C1095 C1098 1.363 . S
N1096 C1098 1.356 . S
N1096 H1108 0.984 . S
N1096 H1109 0.985 . S
N1097 C1099 1.356 . S
N1097 H1102 0.984 . S
N1097 H1103 0.985 . S
C1098 C1092 1.379 . S
C1098 C1095 1.363 . S
C1098 N1096 1.356 . S
C1099 C1093 1.363 . S
C1099 C1094 1.379 . S
C1099 N1097 1.356 . S
N1100 C1092 1.356 . S
N1100 H1106 0.984 . S
N1100 H1107 0.984 . S
N1101 C1094 1.356 . S
N1101 H1104 0.984 . S
N1101 H1105 0.985 . S
H1102 N1097 0.984 . S
H1103 N1097 0.985 . S
H1104 N1101 0.984 . S
H1105 N1101 0.985 . S
H1106 N1100 0.984 . S
H1107 N1100 0.984 . S
H1108 N1096 0.984 . S
H1109 N1096 0.985 . S
C1110 C1111 1.363 . S
C1110 C1116 1.379 . S
C1110 N1118 1.356 . S
C1111 C1110 1.363 . S
C1111 C1117 1.363 . S
C1112 C1113 1.363 . S
C1112 C1117 1.379 . S
C1112 N1119 1.356 . S
C1113 C1112 1.363 . S
C1113 C1116 1.363 . S
N1114 C1116 1.356 . S
N1114 H1126 0.984 . S
N1114 H1127 0.985 . S
N1115 C1117 1.356 . S
N1115 H1120 0.984 . S
N1115 H1121 0.985 . S
C1116 C1110 1.379 . S
C1116 C1113 1.363 . S
C1116 N1114 1.356 . S
C1117 C1111 1.363 . S
C1117 C1112 1.379 . S
C1117 N1115 1.356 . S
N1118 C1110 1.356 . S
N1118 H1124 0.984 . S
N1118 H1125 0.984 . S
N1119 C1112 1.356 . S
N1119 H1122 0.984 . S
N1119 H1123 0.985 . S
H1120 N1115 0.984 . S
H1121 N1115 0.985 . S
H1122 N1119 0.984 . S
H1123 N1119 0.985 . S
H1124 N1118 0.984 . S
H1125 N1118 0.984 . S
H1126 N1114 0.984 . S
H1127 N1114 0.985 . S
C1128 C1129 1.363 . S
C1128 C1134 1.379 . S
C1128 N1136 1.356 . S
C1129 C1128 1.363 . S
C1129 C1135 1.363 . S
C1130 C1131 1.363 . S
C1130 C1135 1.379 . S
C1130 N1137 1.356 . S
C1131 C1130 1.363 . S
C1131 C1134 1.363 . S
N1132 C1134 1.356 . S
N1132 H1144 0.984 . S
N1132 H1145 0.985 . S
N1133 C1135 1.356 . S
N1133 H1138 0.984 . S
N1133 H1139 0.985 . S
C1134 C1128 1.379 . S
C1134 C1131 1.363 . S
C1134 N1132 1.356 . S
C1135 C1129 1.363 . S
C1135 C1130 1.379 . S
C1135 N1133 1.356 . S
N1136 C1128 1.356 . S
N1136 H1142 0.984 . S
N1136 H1143 0.984 . S
N1137 C1130 1.356 . S
N1137 H1140 0.984 . S
N1137 H1141 0.985 . S
H1138 N1133 0.984 . S
H1139 N1133 0.985 . S
H1140 N1137 0.984 . S
H1141 N1137 0.985 . S
H1142 N1136 0.984 . S
H1143 N1136 0.984 . S
H1144 N1132 0.984 . S
H1145 N1132 0.985 . S
C1146 C1147 1.363 . S
C1146 C1152 1.379 . S
C1146 N1154 1.356 . S
C1147 C1146 1.363 . S
C1147 C1153 1.363 . S
C1148 C1149 1.363 . S
C1148 C1153 1.379 . S
C1148 N1155 1.356 . S
C1149 C1148 1.363 . S
C1149 C1152 1.363 . S
N1150 C1152 1.356 . S
N1150 H1162 0.984 . S
N1150 H1163 0.985 . S
N1151 C1153 1.356 . S
N1151 H1156 0.984 . S
N1151 H1157 0.985 . S
C1152 C1146 1.379 . S
C1152 C1149 1.363 . S
C1152 N1150 1.356 . S
C1153 C1147 1.363 . S
C1153 C1148 1.379 . S
C1153 N1151 1.356 . S
N1154 C1146 1.356 . S
N1154 H1160 0.984 . S
N1154 H1161 0.984 . S
N1155 C1148 1.356 . S
N1155 H1158 0.984 . S
N1155 H1159 0.985 . S
H1156 N1151 0.984 . S
H1157 N1151 0.985 . S
H1158 N1155 0.984 . S
H1159 N1155 0.985 . S
H1160 N1154 0.984 . S
H1161 N1154 0.984 . S
H1162 N1150 0.984 . S
H1163 N1150 0.985 . S
C1164 C1165 1.363 . S
C1164 C1170 1.379 . S
C1164 N1172 1.356 . S
C1165 C1164 1.363 . S
C1165 C1171 1.363 . S
C1166 C1167 1.363 . S
C1166 C1171 1.379 . S
C1166 N1173 1.356 . S
C1167 C1166 1.363 . S
C1167 C1170 1.363 . S
N1168 C1170 1.356 . S
N1168 H1180 0.984 . S
N1168 H1181 0.985 . S
N1169 C1171 1.356 . S
N1169 H1174 0.984 . S
N1169 H1175 0.985 . S
C1170 C1164 1.379 . S
C1170 C1167 1.363 . S
C1170 N1168 1.356 . S
C1171 C1165 1.363 . S
C1171 C1166 1.379 . S
C1171 N1169 1.356 . S
N1172 C1164 1.356 . S
N1172 H1178 0.984 . S
N1172 H1179 0.984 . S
N1173 C1166 1.356 . S
N1173 H1176 0.984 . S
N1173 H1177 0.985 . S
H1174 N1169 0.984 . S
H1175 N1169 0.985 . S
H1176 N1173 0.984 . S
H1177 N1173 0.985 . S
H1178 N1172 0.984 . S
H1179 N1172 0.984 . S
H1180 N1168 0.984 . S
H1181 N1168 0.985 . S
C1182 C1183 1.363 . S
C1182 C1188 1.379 . S
C1182 N1190 1.356 . S
C1183 C1182 1.363 . S
C1183 C1189 1.363 . S
C1184 C1185 1.363 . S
C1184 C1189 1.379 . S
C1184 N1191 1.356 . S
C1185 C1184 1.363 . S
C1185 C1188 1.363 . S
N1186 C1188 1.356 . S
N1186 H1198 0.984 . S
N1186 H1199 0.985 . S
N1187 C1189 1.356 . S
N1187 H1192 0.984 . S
N1187 H1193 0.985 . S
C1188 C1182 1.379 . S
C1188 C1185 1.363 . S
C1188 N1186 1.356 . S
C1189 C1183 1.363 . S
C1189 C1184 1.379 . S
C1189 N1187 1.356 . S
N1190 C1182 1.356 . S
N1190 H1196 0.984 . S
N1190 H1197 0.984 . S
N1191 C1184 1.356 . S
N1191 H1194 0.984 . S
N1191 H1195 0.985 . S
H1192 N1187 0.984 . S
H1193 N1187 0.985 . S
H1194 N1191 0.984 . S
H1195 N1191 0.985 . S
H1196 N1190 0.984 . S
H1197 N1190 0.984 . S
H1198 N1186 0.984 . S
H1199 N1186 0.985 . S
C337 C7 1.389 . S
C339 C105 1.389 . S
C355 C119 1.389 . S
C357 C21 1.389 . S
C373 C35 1.389 . S
C375 C133 1.389 . S
C391 C49 1.389 . S
C393 C147 1.389 . S
C409 C161 1.389 . S
C411 C63 1.389 . S
C427 C77 1.389 . S
C429 C91 1.389 . S
C445 C175 1.389 . S
C447 C273 1.389 . S
C463 C189 1.389 . S
C465 C287 1.389 . S
C481 C301 1.389 . S
C483 C203 1.389 . S
C499 C217 1.389 . S
C501 C315 1.389 . S
C517 C231 1.389 . S
C519 C329 1.389 . S
C535 C259 1.389 . S
C537 C245 1.389 . S
C553 C13 1.274 . S
C555 C125 1.274 . S
C571 C139 1.274 . S
C573 C27 1.274 . S
C589 C153 1.274 . S
C591 C41 1.274 . S
C607 C55 1.274 . S
C609 C167 1.274 . S
C625 C69 1.274 . S
C627 C97 1.274 . S
C643 C83 1.274 . S
C645 C111 1.274 . S
C661 C293 1.274 . S
C663 C181 1.274 . S
C679 C195 1.274 . S
C681 C307 1.274 . S
C697 C321 1.274 . S
C699 C209 1.274 . S
C715 C335 1.274 . S
C717 C223 1.274 . S
C733 C265 1.274 . S
C735 C237 1.274 . S
C751 C251 1.274 . S
C753 C279 1.274 . S
C769 C11 1.508 . S
C771 C221 1.508 . S
C787 C235 1.508 . S
C789 C25 1.508 . S
C805 C249 1.508 . S
C807 C39 1.508 . S
C823 C53 1.508 . S
C825 C179 1.508 . S
C841 C67 1.508 . S
C843 C193 1.508 . S
C859 C207 1.508 . S
C861 C81 1.508 . S
C877 C305 1.508 . S
C879 C95 1.508 . S
C895 C319 1.508 . S
C897 C109 1.508 . S
C913 C333 1.508 . S
C915 C123 1.508 . S
C931 C263 1.508 . S
C933 C137 1.508 . S
C949 C151 1.508 . S
C951 C277 1.508 . S
C967 C165 1.508 . S
C969 C291 1.508 . S
C985 C8 1.486 . S
C987 C148 1.486 . S
C1003 C162 1.486 . S
C1005 C22 1.486 . S
C1021 C92 1.486 . S
C1023 C36 1.486 . S
C1039 C50 1.486 . S
C1041 C106 1.486 . S
C1057 C64 1.486 . S
C1059 C120 1.486 . S
C1075 C78 1.486 . S
C1077 C134 1.486 . S
C1093 C176 1.486 . S
C1095 C316 1.486 . S
C1111 C190 1.486 . S
C1113 C330 1.486 . S
C1129 C204 1.486 . S
C1131 C260 1.486 . S
C1147 C274 1.486 . S
C1149 C218 1.486 . S
C1165 C232 1.486 . S
C1167 C288 1.486 . S
C1183 C246 1.486 . S
C1185 C302 1.486 . S
