# Generated by pormake.
# Topology cdl, (4)-cn, num edge types: 1
# Building blocks:
#     Node 0, Type 0, BuildingBlock: NAWXER_clean_sbu_0, # of connection points: 4
#     Node 1, Type 0, BuildingBlock: NAWXER_clean_sbu_0, # of connection points: 4
#     Node 2, Type 0, BuildingBlock: NAWXER_clean_sbu_0, # of connection points: 4
#     Node 3, Type 0, BuildingBlock: NAWXER_clean_sbu_0, # of connection points: 4
#     Edge 4, Type (0, 0), BuildingBlock: TEMPAE_clean_linker_10, # of connection points: 2
#     Edge 5, Type (0, 0), BuildingBlock: TEMPAE_clean_linker_10, # of connection points: 2
#     Edge 6, Type (0, 0), BuildingBlock: TEMPAE_clean_linker_10, # of connection points: 2
#     Edge 7, Type (0, 0), BuildingBlock: TEMPAE_clean_linker_10, # of connection points: 2
#     Edge 8, Type (0, 0), BuildingBlock: TEMPAE_clean_linker_10, # of connection points: 2
#     Edge 9, Type (0, 0), BuildingBlock: TEMPAE_clean_linker_10, # of connection points: 2
#     Edge 10, Type (0, 0), BuildingBlock: TEMPAE_clean_linker_10, # of connection points: 2
#     Edge 11, Type (0, 0), BuildingBlock: TEMPAE_clean_linker_10, # of connection points: 2
# Relax obj value: 0.000
# Max RMSD: 0.003
# Mean RMSD: 0.003
data_MOF--net-cdl--node1-NAWXER_clean_sbu_0--edge1-TEMPAE_clean_linker_10
_symmetry_space_group_name_H-M    P1
_symmetry_Int_Tables_number       1
_symmetry_cell_setting            triclinic
loop_
_symmetry_equiv_pos_as_xyz
'x, y, z'
_cell_length_a     14.907965
_cell_length_b     14.904459
_cell_length_c     59.528253
_cell_angle_alpha  97.02658
_cell_angle_beta   96.976856
_cell_angle_gamma 88.747883
loop_
_atom_site_label
_atom_site_type_symbol
_atom_site_fract_x
_atom_site_fract_y
_atom_site_fract_z
_atom_type_partial_charge
C0 C 0.18303 0.18391 0.13578 0.0
C1 C 0.18089 0.85538 0.13155 0.0
O2 O 0.25024 0.13008 0.13626 0.0
Zn3 Zn 0.18248 0.01925 0.13363 0.0
O4 O 0.10266 0.15247 0.13356 0.0
Zn5 Zn 0.03967 0.02211 0.12917 0.0
O6 O 0.97206 0.02886 0.15495 0.0
O7 O 0.11961 0.02971 0.16463 0.0
O8 O 0.10079 0.88892 0.12879 0.0
O9 O 0.24881 0.90741 0.13515 0.0
O10 O 0.12096 1.00791 0.09874 0.0
O11 O 0.97318 0.01958 0.09919 0.0
C12 C 0.03922 0.03195 0.17035 0.0
C13 C 0.04097 1.01031 0.08807 0.0
C14 C 0.21543 0.18577 0.63733 0.0
C15 C 0.88638 0.18787 0.63208 0.0
O16 O 0.18272 0.10563 0.63453 0.0
Zn17 Zn 0.05018 0.04448 0.63006 0.0
O18 O 0.16274 0.25392 0.63847 0.0
Zn19 Zn 0.05144 0.1876 0.63489 0.0
O20 O 0.0589 0.12416 0.66565 0.0
O21 O 0.05473 0.97668 0.65581 0.0
O22 O 0.93919 0.25515 0.63566 0.0
O23 O 0.91909 0.10752 0.62955 0.0
O24 O 0.0434 0.97848 0.59988 0.0
O25 O 0.04789 0.12671 0.60009 0.0
C26 C 0.05889 0.04375 0.67128 0.0
C27 C 0.04514 0.04693 0.58915 0.0
C28 C 0.21684 0.16943 0.88879 0.0
C29 C 0.22026 0.84101 0.88508 0.0
O30 O 0.28509 0.11713 0.89061 0.0
Zn31 Zn 0.21912 1.00561 0.88701 0.0
O32 O 0.13689 0.13624 0.88524 0.0
Zn33 Zn 0.07666 1.00333 0.88021 0.0
O34 O 1.00207 1.0069 0.90464 0.0
O35 O 0.14797 0.01812 0.91668 0.0
O36 O 0.14019 0.87283 0.88095 0.0
O37 O 0.28686 0.89449 0.88984 0.0
O38 O 0.16622 0.99507 0.85142 0.0
O39 O 0.01753 0.99621 0.84943 0.0
C40 C 0.06576 0.01637 0.92095 0.0
C41 C 0.08843 0.9928 0.83946 0.0
C42 C 0.16231 0.21674 0.38569 0.0
C43 C 0.83517 0.21519 0.38485 0.0
O44 O 0.12976 0.13671 0.38172 0.0
Zn45 Zn 1.00048 0.07382 0.37975 0.0
O46 O 0.11026 0.28394 0.38962 0.0
Zn47 Zn 0.99831 0.21684 0.38534 0.0
O48 O 1.00639 0.14984 0.41563 0.0
O49 O 0.01642 1.00296 0.40507 0.0
O50 O 0.88618 0.28339 0.38636 0.0
O51 O 0.86891 0.13509 0.38248 0.0
O52 O 0.98783 1.011 0.34926 0.0
O53 O 0.98821 0.15932 0.35009 0.0
C54 C 0.01348 0.0686 0.42073 0.0
C55 C 0.98484 0.08033 0.3387 0.0
C56 C 0.13983 0.34195 0.14896 0.0
C57 C 0.19577 0.28225 0.13689 0.0
C58 C 0.14566 0.43567 0.14879 0.0
C59 C 0.20649 0.47019 0.1355 0.0
C60 C 0.264 0.41005 0.12349 0.0
C61 C 0.25902 0.31665 0.12465 0.0
C62 C 0.08523 0.49757 0.16244 0.0
C63 C 0.32763 0.44389 0.10857 0.0
C64 C 0.13482 0.69775 0.1165 0.0
C65 C 0.19294 0.75678 0.13131 0.0
C66 C 0.14157 0.60392 0.11697 0.0
C67 C 0.20575 0.56865 0.13324 0.0
C68 C 0.26529 0.62811 0.1481 0.0
C69 C 0.25916 0.72154 0.14668 0.0
C70 C 0.07874 0.54271 0.10034 0.0
C71 C 0.33263 0.59351 0.16615 0.0
H72 H 0.09124 0.31516 0.15851 0.0
H73 H 0.30152 0.2702 0.11511 0.0
H74 H 0.12564 0.55207 0.17317 0.0
H75 H 0.03476 0.53037 0.15074 0.0
H76 H 0.04856 0.4608 0.17364 0.0
H77 H 0.37066 0.38894 0.10116 0.0
H78 H 0.28804 0.47482 0.09442 0.0
H79 H 0.372 0.49724 0.11844 0.0
H80 H 0.08403 0.72509 0.1045 0.0
H81 H 0.30354 0.76742 0.15829 0.0
H82 H 0.0308 0.51024 0.10966 0.0
H83 H 0.11778 0.48794 0.09148 0.0
H84 H 0.03917 0.57995 0.08734 0.0
H85 H 0.29607 0.56253 0.1784 0.0
H86 H 0.37658 0.64804 0.17573 0.0
H87 H 0.376 0.54004 0.15833 0.0
C88 C 0.3739 0.13965 0.64933 0.0
C89 C 0.31379 0.19771 0.63812 0.0
C90 C 0.46753 0.14617 0.64903 0.0
C91 C 0.50147 0.20991 0.63643 0.0
C92 C 0.44085 0.26918 0.62519 0.0
C93 C 0.34767 0.26341 0.62651 0.0
C94 C 0.52997 0.08366 0.66185 0.0
C95 C 0.47395 0.33586 0.61095 0.0
C96 C 0.75256 0.26413 0.64777 0.0
C97 C 0.78783 0.20049 0.63177 0.0
C98 C 0.65918 0.26888 0.64936 0.0
C99 C 0.59983 0.21072 0.63406 0.0
C100 C 0.63513 0.14948 0.61714 0.0
C101 C 0.72888 0.14389 0.6165 0.0
C102 C 0.62459 0.333 0.66809 0.0
C103 C 0.57406 0.08838 0.60001 0.0
H104 H 0.34756 0.08914 0.6584 0.0
H105 H 0.30092 0.30758 0.61761 0.0
H106 H 0.56283 0.03542 0.64962 0.0
H107 H 0.58437 0.12296 0.67293 0.0
H108 H 0.49367 0.0444 0.6726 0.0
H109 H 0.41856 0.37939 0.60397 0.0
H110 H 0.52681 0.37972 0.62121 0.0
H111 H 0.50526 0.29875 0.59651 0.0
H112 H 0.79841 0.30713 0.65975 0.0
H113 H 0.7563 0.09495 0.60406 0.0
H114 H 0.59445 0.29376 0.67994 0.0
H115 H 0.57051 0.37713 0.66086 0.0
H116 H 0.67895 0.37632 0.67798 0.0
H117 H 0.5425 0.03805 0.60882 0.0
H118 H 0.61119 0.0515 0.58658 0.0
H119 H 0.51863 0.12832 0.59173 0.0
C120 C 0.29851 0.30299 0.87998 0.0
C121 C 0.22858 0.26799 0.88997 0.0
C122 C 0.30498 0.39642 0.87912 0.0
C123 C 0.24182 0.45611 0.88919 0.0
C124 C 0.17361 0.42106 0.90022 0.0
C125 C 0.1668 0.32725 0.90009 0.0
C126 C 0.37681 0.43083 0.86657 0.0
C127 C 0.10666 0.48251 0.91177 0.0
C128 C 0.29204 0.70777 0.90198 0.0
C129 C 0.23314 0.74263 0.88495 0.0
C130 C 0.29658 0.61432 0.90348 0.0
C131 C 0.24322 0.5546 0.88707 0.0
C132 C 0.18701 0.58957 0.86919 0.0
C133 C 0.18135 0.68333 0.86862 0.0
C134 C 0.3551 0.57999 0.92319 0.0
C135 C 0.13121 0.52813 0.85094 0.0
H136 H 0.34577 0.25695 0.87196 0.0
H137 H 0.11311 0.30009 0.90797 0.0
H138 H 0.34424 0.46226 0.85164 0.0
H139 H 0.41748 0.4839 0.87773 0.0
H140 H 0.42298 0.3761 0.86048 0.0
H141 H 0.06371 0.44538 0.92149 0.0
H142 H 0.14268 0.53697 0.92362 0.0
H143 H 0.06203 0.5154 0.89883 0.0
H144 H 0.33128 0.75393 0.91476 0.0
H145 H 0.13614 0.71049 0.85538 0.0
H146 H 0.40182 0.52644 0.91688 0.0
H147 H 0.31181 0.5492 0.93405 0.0
H148 H 0.39549 0.63465 0.93391 0.0
H149 H 0.17426 0.47345 0.84346 0.0
H150 H 0.09825 0.56521 0.83702 0.0
H151 H 0.07789 0.49555 0.85853 0.0
C152 C 0.30932 0.2914 0.40124 0.0
C153 C 0.2598 0.22925 0.38515 0.0
C154 C 0.4037 0.29714 0.40192 0.0
C155 C 0.44853 0.24155 0.38563 0.0
C156 C 0.39776 0.18186 0.36869 0.0
C157 C 0.30425 0.17529 0.36893 0.0
C158 C 0.45579 0.35956 0.42063 0.0
C159 C 0.44243 0.12337 0.35061 0.0
C160 C 0.68819 0.29457 0.37571 0.0
C161 C 0.73749 0.22691 0.38625 0.0
C162 C 0.59392 0.30131 0.37562 0.0
C163 C 0.54892 0.24087 0.38703 0.0
C164 C 0.59944 0.17519 0.39859 0.0
C165 C 0.6929 0.16799 0.3977 0.0
C166 C 0.54213 0.37036 0.36253 0.0
C167 C 0.55457 0.1112 0.41151 0.0
H168 H 0.27479 0.33262 0.41387 0.0
H169 H 0.26561 0.12785 0.35634 0.0
H170 H 0.50095 0.31907 0.43181 0.0
H171 H 0.49934 0.40496 0.41331 0.0
H172 H 0.41058 0.40152 0.43127 0.0
H173 H 0.39237 0.08756 0.33737 0.0
H174 H 0.48595 0.16509 0.34219 0.0
H175 H 0.48652 0.07218 0.35858 0.0
H176 H 0.72285 0.3398 0.36675 0.0
H177 H 0.73139 0.11634 0.4061 0.0
H178 H 0.49914 0.41274 0.37363 0.0
H179 H 0.49646 0.33524 0.34819 0.0
H180 H 0.58751 0.41519 0.35553 0.0
H181 H 0.5114 0.14945 0.42335 0.0
H182 H 0.6045 0.07054 0.42148 0.0
H183 H 0.5101 0.06422 0.3994 0.0
C184 C 0.10056 0.07647 0.96185 0.0
C185 C 0.0468 0.02199 0.94482 0.0
C186 C 0.08914 0.07697 0.9849 0.0
C187 C 0.02458 0.01907 0.99109 0.0
C188 C 0.96865 0.96533 0.97387 0.0
C189 C 0.97952 0.96853 0.95085 0.0
C190 C 0.14821 0.1374 1.00268 0.0
C191 C 0.90081 0.90098 0.97979 0.0
C192 C 0.08682 0.95056 0.05028 0.0
C193 C 0.02933 1.00571 0.06302 0.0
C194 C 0.08234 0.95077 0.02663 0.0
C195 C 0.0211 1.01005 0.01559 0.0
C196 C 0.96157 0.0647 0.02834 0.0
C197 C 0.96544 0.06077 0.05192 0.0
C198 C 0.14509 0.88942 0.01356 0.0
C199 C 0.89722 0.1306 0.01733 0.0
H200 H 0.15211 0.11839 0.95713 0.0
H201 H 0.93848 0.92581 0.93765 0.0
H202 H 0.10637 0.17663 0.01468 0.0
H203 H 0.19619 0.09554 0.01278 0.0
H204 H 0.18772 0.1854 0.99496 0.0
H205 H 0.85809 0.86885 0.96445 0.0
H206 H 0.93698 0.84701 0.98865 0.0
H207 H 0.85628 0.93671 0.99166 0.0
H208 H 0.13578 0.9075 0.05889 0.0
H209 H 0.92159 0.10407 0.06185 0.0
H210 H 0.19576 0.93053 1.00728 0.0
H211 H 0.1066 0.8509 0.99844 0.0
H212 H 0.18154 0.84077 0.02421 0.0
H213 H 0.93636 0.18386 0.01144 0.0
H214 H 0.85113 0.16356 0.02924 0.0
H215 H 0.85599 0.09594 1.00211 0.0
C216 C 0.07114 0.98523 0.45365 0.0
C217 C 0.01566 0.05264 0.44475 0.0
C218 C 0.07809 0.97489 0.47697 0.0
C219 C 0.02601 0.03143 0.49142 0.0
C220 C 0.96673 0.0967 0.48217 0.0
C221 C 0.96347 0.10752 0.45904 0.0
C222 C 0.14391 0.90635 0.48631 0.0
C223 C 0.90811 0.15659 0.49683 0.0
C224 C 0.98986 0.97276 0.5501 0.0
C225 C 0.04561 0.03614 0.56424 0.0
C226 C 0.98405 0.96875 0.52624 0.0
C227 C 0.03758 0.02747 0.51647 0.0
C228 C 0.09755 0.08813 0.53079 0.0
C229 C 0.09956 0.09285 0.55451 0.0
C230 C 0.91747 0.90504 0.51156 0.0
C231 C 0.15778 0.14996 0.52109 0.0
H232 H 0.11178 0.9431 0.44256 0.0
H233 H 0.91967 0.15893 0.45205 0.0
H234 H 0.19816 0.94183 0.49834 0.0
H235 H 0.1095 0.86136 0.49603 0.0
H236 H 0.17549 0.86414 0.47264 0.0
H237 H 0.85929 0.19738 0.48659 0.0
H238 H 0.8699 0.11511 0.50663 0.0
H239 H 0.95119 0.20343 0.50933 0.0
H240 H 0.94781 0.9293 0.5577 0.0
H241 H 0.14344 0.14117 0.56551 0.0
H242 H 0.95129 0.86309 0.49831 0.0
H243 H 0.86361 0.94474 0.5026 0.0
H244 H 0.88541 0.85963 0.52169 0.0
H245 H 0.19506 0.11091 0.50804 0.0
H246 H 0.20747 0.18561 0.53445 0.0
H247 H 0.11596 0.20135 0.51256 0.0
C248 C 0.98493 0.98535 0.30084 0.0
C249 C 0.98206 0.07093 0.31353 0.0
C250 C 0.98875 0.97639 0.2772 0.0
C251 C 0.98975 0.05485 0.266 0.0
C252 C 0.98429 0.14128 0.2786 0.0
C253 C 0.98048 0.14826 0.30218 0.0
C254 C 0.99434 0.88307 0.26431 0.0
C255 C 0.98516 0.22657 0.26729 0.0
C256 C 0.1007 0.04171 0.21157 0.0
C257 C 0.02574 0.03726 0.19476 0.0
C258 C 0.08979 0.04662 0.23476 0.0
C259 C 1.00173 0.04701 0.24137 0.0
C260 C 0.92569 0.04206 0.22453 0.0
C261 C 0.93858 0.03731 0.20141 0.0
C262 C 0.17263 0.05203 0.25221 0.0
C263 C 0.83077 0.04231 0.23096 0.0
H264 H 0.98603 0.92522 0.30944 0.0
H265 H 0.97798 0.21472 0.31179 0.0
H266 H 0.94083 0.87468 0.24956 0.0
H267 H 0.06034 0.87415 0.25745 0.0
H268 H 0.98721 0.82889 0.27522 0.0
H269 H 0.97549 0.28835 0.27925 0.0
H270 H 0.05058 0.23185 0.26044 0.0
H271 H 0.93113 0.22437 0.25268 0.0
H272 H 0.16834 0.04161 0.20664 0.0
H273 H 0.88027 0.03369 0.18856 0.0
H274 H 0.17318 0.99532 0.26268 0.0
H275 H 0.17107 0.11575 0.26394 0.0
H276 H 0.23639 0.0496 0.24423 0.0
H277 H 0.82249 0.98552 0.24095 0.0
H278 H 0.77889 0.03627 0.2158 0.0
H279 H 0.81811 0.10578 0.24197 0.0
C280 C 0.0602 0.94334 0.7023 0.0
C281 C 0.06235 0.03036 0.69566 0.0
C282 C 0.06265 0.93077 0.72539 0.0
C283 C 0.06743 1.007 0.7422 0.0
C284 C 0.06943 0.0949 0.73559 0.0
C285 C 0.06687 0.10548 0.71244 0.0
C286 C 0.06041 0.83603 0.73182 0.0
C287 C 0.07467 0.17794 0.753 0.0
C288 C 0.99798 0.99338 0.80106 0.0
C289 C 0.08219 0.98971 0.81432 0.0
C290 C 0.99199 0.99628 0.77742 0.0
C291 C 0.07208 0.99548 0.7668 0.0
C292 C 0.1571 0.98915 0.77999 0.0
C293 C 0.16113 0.98636 0.80356 0.0
C294 C 0.90007 1.00291 0.76391 0.0
C295 C 0.24404 0.98806 0.7693 0.0
H296 H 0.05653 0.88492 0.68945 0.0
H297 H 0.06846 0.17303 0.70752 0.0
H298 H 0.1224 0.8227 0.74328 0.0
H299 H 1.00197 0.82874 0.74133 0.0
H300 H 0.05545 0.78396 0.71669 0.0
H301 H 0.07465 0.24156 0.74503 0.0
H302 H 0.01653 0.17982 0.76305 0.0
H303 H 0.1371 0.17538 0.76513 0.0
H304 H 0.93663 0.99576 0.8092 0.0
H305 H 0.22654 0.98314 0.81362 0.0
H306 H 0.89246 0.9491 0.7492 0.0
H307 H 0.89321 0.06877 0.75694 0.0
H308 H 0.84426 0.99699 0.77442 0.0
H309 H 0.24241 0.93373 0.75475 0.0
H310 H 0.30431 0.97751 0.78166 0.0
H311 H 0.25165 0.05314 0.76248 0.0
loop_
_geom_bond_atom_site_label_1
_geom_bond_atom_site_label_2
_geom_bond_distance
_geom_bond_site_symmetry_2
_ccdc_geom_bond_type
C0 O2 1.247 . S
C0 O4 1.258 1_455 S
C1 O8 1.247 1_455 S
C1 O9 1.258 . S
O2 C0 1.247 . S
O2 Zn3 2.028 . S
Zn3 O2 2.028 . S
Zn3 O7 2.035 . S
Zn3 O9 2.035 1_545 S
Zn3 O10 2.028 . S
O4 C0 1.258 1_655 S
O4 Zn5 2.035 . S
Zn5 O4 2.035 . S
Zn5 O6 2.028 . S
Zn5 O8 2.028 1_545 S
Zn5 O11 2.035 . S
O6 Zn5 2.028 . S
O6 C12 1.247 1_655 S
O7 Zn3 2.035 . S
O7 C12 1.258 . S
O8 C1 1.247 1_655 S
O8 Zn5 2.028 1_565 S
O9 C1 1.258 . S
O9 Zn3 2.035 1_565 S
O10 Zn3 2.028 . S
O10 C13 1.247 . S
O11 Zn5 2.035 . S
O11 C13 1.258 1_655 S
C12 O6 1.247 1_455 S
C12 O7 1.258 . S
C13 O10 1.247 . S
C13 O11 1.258 1_455 S
C14 O16 1.247 1_545 S
C14 O18 1.258 . S
C15 O22 1.247 . S
C15 O23 1.258 1_545 S
O16 C14 1.247 1_565 S
O16 Zn17 2.028 . S
Zn17 O16 2.028 . S
Zn17 O21 2.035 . S
Zn17 O23 2.035 1_455 S
Zn17 O24 2.028 . S
O18 C14 1.258 . S
O18 Zn19 2.035 . S
Zn19 O18 2.035 . S
Zn19 O20 2.028 . S
Zn19 O22 2.028 1_455 S
Zn19 O25 2.035 . S
O20 Zn19 2.028 . S
O20 C26 1.247 . S
O21 Zn17 2.035 . S
O21 C26 1.258 1_565 S
O22 C15 1.247 . S
O22 Zn19 2.028 1_655 S
O23 C15 1.258 1_565 S
O23 Zn17 2.035 1_655 S
O24 Zn17 2.028 . S
O24 C27 1.247 1_565 S
O25 Zn19 2.035 . S
O25 C27 1.258 . S
C26 O20 1.247 . S
C26 O21 1.258 1_545 S
C27 O24 1.247 1_545 S
C27 O25 1.258 . S
C28 O30 1.247 . S
C28 O32 1.258 1_455 S
C29 O36 1.247 1_455 S
C29 O37 1.258 . S
O30 C28 1.247 . S
O30 Zn31 2.028 . S
Zn31 O30 2.028 . S
Zn31 O35 2.035 . S
Zn31 O37 2.035 1_545 S
Zn31 O38 2.028 . S
O32 C28 1.258 1_655 S
O32 Zn33 2.035 . S
Zn33 O32 2.035 . S
Zn33 O34 2.028 . S
Zn33 O36 2.028 1_545 S
Zn33 O39 2.035 . S
O34 Zn33 2.028 . S
O34 C40 1.247 1_655 S
O35 Zn31 2.035 . S
O35 C40 1.258 . S
O36 C29 1.247 1_655 S
O36 Zn33 2.028 1_565 S
O37 C29 1.258 . S
O37 Zn31 2.035 1_565 S
O38 Zn31 2.028 . S
O38 C41 1.247 . S
O39 Zn33 2.035 . S
O39 C41 1.258 1_655 S
C40 O34 1.247 1_455 S
C40 O35 1.258 . S
C41 O38 1.247 . S
C41 O39 1.258 1_455 S
C42 O44 1.247 1_545 S
C42 O46 1.258 . S
C43 O50 1.247 . S
C43 O51 1.258 1_545 S
O44 C42 1.247 1_565 S
O44 Zn45 2.028 . S
Zn45 O44 2.028 . S
Zn45 O49 2.035 . S
Zn45 O51 2.035 1_455 S
Zn45 O52 2.028 . S
O46 C42 1.258 . S
O46 Zn47 2.035 . S
Zn47 O46 2.035 . S
Zn47 O48 2.028 . S
Zn47 O50 2.028 1_455 S
Zn47 O53 2.035 . S
O48 Zn47 2.028 . S
O48 C54 1.247 . S
O49 Zn45 2.035 . S
O49 C54 1.258 1_565 S
O50 C43 1.247 . S
O50 Zn47 2.028 1_655 S
O51 C43 1.258 1_565 S
O51 Zn45 2.035 1_655 S
O52 Zn45 2.028 . S
O52 C55 1.247 1_565 S
O53 Zn47 2.035 . S
O53 C55 1.258 . S
C54 O48 1.247 . S
C54 O49 1.258 1_545 S
C55 O52 1.247 1_545 S
C55 O53 1.258 . S
C56 C57 1.391 . S
C56 C58 1.394 . S
C56 H72 0.931 . S
C57 C56 1.391 . S
C57 C61 1.376 . S
C58 C56 1.394 . S
C58 C59 1.369 . S
C58 C62 1.531 1_455 S
C59 C58 1.369 . S
C59 C60 1.410 . S
C59 C67 1.503 . S
C60 C59 1.410 . S
C60 C61 1.392 . S
C60 C63 1.511 . S
C61 C57 1.376 . S
C61 C60 1.392 . S
C61 H73 0.929 . S
C62 C58 1.531 1_655 S
C62 H74 0.960 1_655 S
C62 H75 0.962 . S
C62 H76 0.960 . S
C63 C60 1.511 . S
C63 H77 0.961 . S
C63 H78 0.961 . S
C63 H79 0.961 . S
C64 C65 1.370 . S
C64 C66 1.363 . S
C64 H80 0.931 1_455 S
C65 C64 1.370 . S
C65 C69 1.408 . S
C66 C64 1.363 . S
C66 C67 1.370 . S
C66 C70 1.524 1_455 S
C67 C59 1.503 . S
C67 C66 1.370 . S
C67 C68 1.403 . S
C68 C67 1.403 . S
C68 C69 1.404 . S
C68 C71 1.539 . S
C69 C65 1.408 . S
C69 C68 1.404 . S
C69 H81 0.930 . S
C70 C66 1.524 1_655 S
C70 H82 0.956 . S
C70 H83 0.961 . S
C70 H84 0.961 . S
C71 C68 1.539 . S
C71 H85 0.958 . S
C71 H86 0.961 . S
C71 H87 0.960 . S
H72 C56 0.931 . S
H73 C61 0.929 . S
H74 C62 0.960 1_455 S
H75 C62 0.962 . S
H76 C62 0.960 . S
H77 C63 0.961 . S
H78 C63 0.961 . S
H79 C63 0.961 . S
H80 C64 0.931 1_655 S
H81 C69 0.930 . S
H82 C70 0.956 . S
H83 C70 0.961 . S
H84 C70 0.961 . S
H85 C71 0.958 . S
H86 C71 0.961 . S
H87 C71 0.960 . S
C88 C89 1.391 . S
C88 C90 1.394 . S
C88 H104 0.931 1_545 S
C89 C88 1.391 . S
C89 C93 1.376 . S
C90 C88 1.394 . S
C90 C91 1.369 . S
C90 C94 1.531 1_545 S
C91 C90 1.369 . S
C91 C92 1.410 . S
C91 C99 1.503 . S
C92 C91 1.410 . S
C92 C93 1.392 . S
C92 C95 1.511 . S
C93 C89 1.376 . S
C93 C92 1.392 . S
C93 H105 0.929 . S
C94 C90 1.531 1_565 S
C94 H106 0.960 . S
C94 H107 0.962 1_565 S
C94 H108 0.960 . S
C95 C92 1.511 . S
C95 H109 0.961 . S
C95 H110 0.961 . S
C95 H111 0.961 . S
C96 C97 1.370 . S
C96 C98 1.363 . S
C96 H112 0.931 . S
C97 C96 1.370 . S
C97 C101 1.408 1_545 S
C98 C96 1.363 . S
C98 C99 1.370 . S
C98 C102 1.524 . S
C99 C91 1.503 . S
C99 C98 1.370 . S
C99 C100 1.403 1_545 S
C100 C99 1.403 1_565 S
C100 C101 1.404 . S
C100 C103 1.539 . S
C101 C97 1.408 1_565 S
C101 C100 1.404 . S
C101 H113 0.930 . S
C102 C98 1.524 . S
C102 H114 0.956 . S
C102 H115 0.961 . S
C102 H116 0.961 . S
C103 C100 1.539 . S
C103 H117 0.958 . S
C103 H118 0.961 . S
C103 H119 0.960 . S
H104 C88 0.931 1_565 S
H105 C93 0.929 . S
H106 C94 0.960 . S
H107 C94 0.962 1_545 S
H108 C94 0.960 . S
H109 C95 0.961 . S
H110 C95 0.961 . S
H111 C95 0.961 . S
H112 C96 0.931 . S
H113 C101 0.930 . S
H114 C102 0.956 . S
H115 C102 0.961 . S
H116 C102 0.961 . S
H117 C103 0.958 . S
H118 C103 0.961 . S
H119 C103 0.960 . S
C120 C121 1.391 . S
C120 C122 1.394 . S
C120 H136 0.931 . S
C121 C120 1.391 . S
C121 C125 1.376 1_455 S
C122 C120 1.394 . S
C122 C123 1.369 . S
C122 C126 1.531 . S
C123 C122 1.369 . S
C123 C124 1.410 1_455 S
C123 C131 1.503 . S
C124 C123 1.410 1_655 S
C124 C125 1.392 . S
C124 C127 1.511 . S
C125 C121 1.376 1_655 S
C125 C124 1.392 . S
C125 H137 0.929 . S
C126 C122 1.531 . S
C126 H138 0.960 . S
C126 H139 0.962 . S
C126 H140 0.960 . S
C127 C124 1.511 . S
C127 H141 0.961 . S
C127 H142 0.961 . S
C127 H143 0.961 . S
C128 C129 1.370 . S
C128 C130 1.363 . S
C128 H144 0.931 . S
C129 C128 1.370 . S
C129 C133 1.408 . S
C130 C128 1.363 . S
C130 C131 1.370 . S
C130 C134 1.524 . S
C131 C123 1.503 . S
C131 C130 1.370 . S
C131 C132 1.403 . S
C132 C131 1.403 . S
C132 C133 1.404 . S
C132 C135 1.539 1_455 S
C133 C129 1.408 . S
C133 C132 1.404 . S
C133 H145 0.930 . S
C134 C130 1.524 . S
C134 H146 0.956 . S
C134 H147 0.961 . S
C134 H148 0.961 . S
C135 C132 1.539 1_655 S
C135 H149 0.958 1_655 S
C135 H150 0.961 . S
C135 H151 0.960 . S
H136 C120 0.931 . S
H137 C125 0.929 . S
H138 C126 0.960 . S
H139 C126 0.962 . S
H140 C126 0.960 . S
H141 C127 0.961 . S
H142 C127 0.961 . S
H143 C127 0.961 . S
H144 C128 0.931 . S
H145 C133 0.930 . S
H146 C134 0.956 . S
H147 C134 0.961 . S
H148 C134 0.961 . S
H149 C135 0.958 1_455 S
H150 C135 0.961 . S
H151 C135 0.960 . S
C152 C153 1.391 . S
C152 C154 1.394 . S
C152 H168 0.931 . S
C153 C152 1.391 . S
C153 C157 1.376 1_545 S
C154 C152 1.394 . S
C154 C155 1.369 . S
C154 C158 1.531 . S
C155 C154 1.369 . S
C155 C156 1.410 1_545 S
C155 C163 1.503 . S
C156 C155 1.410 1_565 S
C156 C157 1.392 . S
C156 C159 1.511 . S
C157 C153 1.376 1_565 S
C157 C156 1.392 . S
C157 H169 0.929 . S
C158 C154 1.531 . S
C158 H170 0.960 . S
C158 H171 0.962 . S
C158 H172 0.960 . S
C159 C156 1.511 . S
C159 H173 0.961 . S
C159 H174 0.961 . S
C159 H175 0.961 . S
C160 C161 1.370 . S
C160 C162 1.363 . S
C160 H176 0.931 . S
C161 C160 1.370 . S
C161 C165 1.408 . S
C162 C160 1.363 . S
C162 C163 1.370 . S
C162 C166 1.524 . S
C163 C155 1.503 . S
C163 C162 1.370 . S
C163 C164 1.403 . S
C164 C163 1.403 . S
C164 C165 1.404 . S
C164 C167 1.539 1_545 S
C165 C161 1.408 . S
C165 C164 1.404 . S
C165 H177 0.930 1_545 S
C166 C162 1.524 . S
C166 H178 0.956 . S
C166 H179 0.961 . S
C166 H180 0.961 . S
C167 C164 1.539 1_565 S
C167 H181 0.958 . S
C167 H182 0.961 . S
C167 H183 0.960 . S
H168 C152 0.931 . S
H169 C157 0.929 . S
H170 C158 0.960 . S
H171 C158 0.962 . S
H172 C158 0.960 . S
H173 C159 0.961 . S
H174 C159 0.961 . S
H175 C159 0.961 . S
H176 C160 0.931 . S
H177 C165 0.930 1_565 S
H178 C166 0.956 . S
H179 C166 0.961 . S
H180 C166 0.961 . S
H181 C167 0.958 . S
H182 C167 0.961 . S
H183 C167 0.960 . S
C184 C185 1.391 . S
C184 C186 1.394 . S
C184 H200 0.931 . S
C185 C184 1.391 . S
C185 C189 1.376 1_455 S
C186 C184 1.394 . S
C186 C187 1.369 . S
C186 C190 1.531 . S
C187 C186 1.369 . S
C187 C188 1.410 1_455 S
C187 C195 1.503 1_556 S
C188 C187 1.410 1_655 S
C188 C189 1.392 . S
C188 C191 1.511 . S
C189 C185 1.376 1_655 S
C189 C188 1.392 . S
C189 H201 0.929 . S
C190 C186 1.531 . S
C190 H202 0.960 1_556 S
C190 H203 0.962 . S
C190 H204 0.960 . S
C191 C188 1.511 . S
C191 H205 0.961 . S
C191 H206 0.961 . S
C191 H207 0.961 . S
C192 C193 1.370 1_565 S
C192 C194 1.363 . S
C192 H208 0.931 . S
C193 C192 1.370 1_545 S
C193 C197 1.408 . S
C194 C192 1.363 . S
C194 C195 1.370 1_565 S
C194 C198 1.524 . S
C195 C187 1.503 1_554 S
C195 C194 1.370 1_545 S
C195 C196 1.403 . S
C196 C195 1.403 . S
C196 C197 1.404 . S
C196 C199 1.539 . S
C197 C193 1.408 . S
C197 C196 1.404 . S
C197 H209 0.930 . S
C198 C194 1.524 . S
C198 H210 0.956 1_554 S
C198 H211 0.961 1_554 S
C198 H212 0.961 . S
C199 C196 1.539 . S
C199 H213 0.958 . S
C199 H214 0.961 . S
C199 H215 0.960 . S
H200 C184 0.931 . S
H201 C189 0.929 . S
H202 C190 0.960 1_554 S
H203 C190 0.962 . S
H204 C190 0.960 . S
H205 C191 0.961 . S
H206 C191 0.961 . S
H207 C191 0.961 . S
H208 C192 0.931 . S
H209 C197 0.930 . S
H210 C198 0.956 1_556 S
H211 C198 0.961 1_556 S
H212 C198 0.961 . S
H213 C199 0.958 . S
H214 C199 0.961 . S
H215 C199 0.960 . S
C216 C217 1.391 1_565 S
C216 C218 1.394 . S
C216 H232 0.931 . S
C217 C216 1.391 1_545 S
C217 C221 1.376 . S
C218 C216 1.394 . S
C218 C219 1.369 1_565 S
C218 C222 1.531 . S
C219 C218 1.369 1_545 S
C219 C220 1.410 . S
C219 C227 1.503 . S
C220 C219 1.410 . S
C220 C221 1.392 . S
C220 C223 1.511 . S
C221 C217 1.376 . S
C221 C220 1.392 . S
C221 H233 0.929 . S
C222 C218 1.531 . S
C222 H234 0.960 . S
C222 H235 0.962 . S
C222 H236 0.960 . S
C223 C220 1.511 . S
C223 H237 0.961 . S
C223 H238 0.961 . S
C223 H239 0.961 . S
C224 C225 1.370 1_655 S
C224 C226 1.363 . S
C224 H240 0.931 . S
C225 C224 1.370 1_455 S
C225 C229 1.408 . S
C226 C224 1.363 . S
C226 C227 1.370 1_655 S
C226 C230 1.524 . S
C227 C219 1.503 . S
C227 C226 1.370 1_455 S
C227 C228 1.403 . S
C228 C227 1.403 . S
C228 C229 1.404 . S
C228 C231 1.539 . S
C229 C225 1.408 . S
C229 C228 1.404 . S
C229 H241 0.930 . S
C230 C226 1.524 . S
C230 H242 0.956 1_545 S
C230 H243 0.961 . S
C230 H244 0.961 . S
C231 C228 1.539 . S
C231 H245 0.958 . S
C231 H246 0.961 . S
C231 H247 0.960 . S
H232 C216 0.931 . S
H233 C221 0.929 . S
H234 C222 0.960 . S
H235 C222 0.962 . S
H236 C222 0.960 . S
H237 C223 0.961 . S
H238 C223 0.961 . S
H239 C223 0.961 . S
H240 C224 0.931 . S
H241 C229 0.930 . S
H242 C230 0.956 1_565 S
H243 C230 0.961 . S
H244 C230 0.961 . S
H245 C231 0.958 . S
H246 C231 0.961 . S
H247 C231 0.960 . S
C248 C249 1.391 . S
C248 C250 1.394 1_545 S
C248 H264 0.931 1_545 S
C249 C248 1.391 . S
C249 C253 1.376 1_455 S
C250 C248 1.394 1_565 S
C250 C251 1.369 1_565 S
C250 C254 1.531 . S
C251 C250 1.369 1_545 S
C251 C252 1.410 1_455 S
C251 C259 1.503 . S
C252 C251 1.410 1_655 S
C252 C253 1.392 . S
C252 C255 1.511 . S
C253 C249 1.376 1_655 S
C253 C252 1.392 . S
C253 H265 0.929 . S
C254 C250 1.531 . S
C254 H266 0.960 . S
C254 H267 0.962 . S
C254 H268 0.960 . S
C255 C252 1.511 . S
C255 H269 0.961 . S
C255 H270 0.961 . S
C255 H271 0.961 . S
C256 C257 1.370 . S
C256 C258 1.363 . S
C256 H272 0.931 . S
C257 C256 1.370 . S
C257 C261 1.408 1_545 S
C258 C256 1.363 . S
C258 C259 1.370 . S
C258 C262 1.524 . S
C259 C251 1.503 . S
C259 C258 1.370 . S
C259 C260 1.403 1_545 S
C260 C259 1.403 1_565 S
C260 C261 1.404 . S
C260 C263 1.539 1_455 S
C261 C257 1.408 1_565 S
C261 C260 1.404 . S
C261 H273 0.930 1_455 S
C262 C258 1.524 . S
C262 H274 0.956 . S
C262 H275 0.961 . S
C262 H276 0.961 . S
C263 C260 1.539 1_655 S
C263 H277 0.958 . S
C263 H278 0.961 . S
C263 H279 0.960 . S
H264 C248 0.931 1_565 S
H265 C253 0.929 . S
H266 C254 0.960 . S
H267 C254 0.962 . S
H268 C254 0.960 . S
H269 C255 0.961 . S
H270 C255 0.961 . S
H271 C255 0.961 . S
H272 C256 0.931 . S
H273 C261 0.930 1_655 S
H274 C262 0.956 . S
H275 C262 0.961 . S
H276 C262 0.961 . S
H277 C263 0.958 . S
H278 C263 0.961 . S
H279 C263 0.960 . S
C280 C281 1.391 . S
C280 C282 1.395 . S
C280 H296 0.931 1_445 S
C281 C280 1.391 . S
C281 C285 1.376 . S
C282 C280 1.395 . S
C282 C283 1.373 . S
C282 C286 1.524 1_445 S
C283 C282 1.373 . S
C283 C284 1.410 . S
C283 C291 1.503 . S
C284 C283 1.410 . S
C284 C285 1.392 . S
C284 C287 1.511 . S
C285 C281 1.376 . S
C285 C284 1.392 . S
C285 H297 0.929 . S
C286 C282 1.524 1_665 S
C286 H298 0.960 . S
C286 H299 0.962 . S
C286 H300 0.960 . S
C287 C284 1.511 . S
C287 H301 0.961 . S
C287 H302 0.961 . S
C287 H303 0.961 . S
C288 C289 1.370 . S
C288 C290 1.363 . S
C288 H304 0.931 1_455 S
C289 C288 1.370 . S
C289 C293 1.411 . S
C290 C288 1.363 . S
C290 C291 1.370 . S
C290 C294 1.524 1_455 S
C291 C283 1.503 . S
C291 C290 1.370 . S
C291 C292 1.403 1_545 S
C292 C291 1.403 1_565 S
C292 C293 1.404 1_565 S
C292 C295 1.539 . S
C293 C289 1.411 . S
C293 C292 1.404 1_545 S
C293 H305 0.927 1_545 S
C294 C290 1.524 1_655 S
C294 H306 0.956 . S
C294 H307 0.961 . S
C294 H308 0.961 . S
C295 C292 1.539 . S
C295 H309 0.958 . S
C295 H310 0.961 . S
C295 H311 0.960 . S
H296 C280 0.931 1_665 S
H297 C285 0.929 . S
H298 C286 0.960 . S
H299 C286 0.962 . S
H300 C286 0.960 . S
H301 C287 0.961 . S
H302 C287 0.961 . S
H303 C287 0.961 . S
H304 C288 0.931 1_655 S
H305 C293 0.927 1_565 S
H306 C294 0.956 . S
H307 C294 0.961 . S
H308 C294 0.961 . S
H309 C295 0.958 . S
H310 C295 0.961 . S
H311 C295 0.960 . S
C57 C0 1.490 . S
C65 C1 1.499 . S
C89 C14 1.496 . S
C97 C15 1.496 . S
C121 C28 1.499 . S
C129 C29 1.496 . S
C153 C42 1.489 . S
C161 C43 1.499 . S
C185 C40 1.489 . S
C193 C13 1.500 . S
C217 C54 1.488 . S
C225 C27 1.500 . S
C249 C55 1.491 . S
C257 C12 1.499 . S
C281 C26 1.490 . S
C289 C41 1.496 . S
