# Generated by pormake.
# Topology wjg, (4)-cn, num edge types: 1
# Building blocks:
#     Node 0, Type 0, BuildingBlock: ICAMEG_clean_sbu_1, # of connection points: 4
#     Node 1, Type 0, BuildingBlock: ICAMEG_clean_sbu_1, # of connection points: 4
#     Node 2, Type 0, BuildingBlock: ICAMEG_clean_sbu_1, # of connection points: 4
#     Node 3, Type 0, BuildingBlock: ICAMEG_clean_sbu_1, # of connection points: 4
#     Node 4, Type 0, BuildingBlock: ICAMEG_clean_sbu_1, # of connection points: 4
#     Node 5, Type 0, BuildingBlock: ICAMEG_clean_sbu_1, # of connection points: 4
#     Node 6, Type 0, BuildingBlock: ICAMEG_clean_sbu_1, # of connection points: 4
#     Node 7, Type 0, BuildingBlock: ICAMEG_clean_sbu_1, # of connection points: 4
#     Node 8, Type 0, BuildingBlock: ICAMEG_clean_sbu_1, # of connection points: 4
#     Node 9, Type 0, BuildingBlock: ICAMEG_clean_sbu_1, # of connection points: 4
#     Node 10, Type 0, BuildingBlock: ICAMEG_clean_sbu_1, # of connection points: 4
#     Node 11, Type 0, BuildingBlock: ICAMEG_clean_sbu_1, # of connection points: 4
#     Edge 12, Type (0, 0), BuildingBlock: KIFKEQ_clean_linker_1, # of connection points: 2
#     Edge 13, Type (0, 0), BuildingBlock: KIFKEQ_clean_linker_1, # of connection points: 2
#     Edge 14, Type (0, 0), BuildingBlock: KIFKEQ_clean_linker_1, # of connection points: 2
#     Edge 15, Type (0, 0), BuildingBlock: KIFKEQ_clean_linker_1, # of connection points: 2
#     Edge 16, Type (0, 0), BuildingBlock: KIFKEQ_clean_linker_1, # of connection points: 2
#     Edge 17, Type (0, 0), BuildingBlock: KIFKEQ_clean_linker_1, # of connection points: 2
#     Edge 18, Type (0, 0), BuildingBlock: KIFKEQ_clean_linker_1, # of connection points: 2
#     Edge 19, Type (0, 0), BuildingBlock: KIFKEQ_clean_linker_1, # of connection points: 2
#     Edge 20, Type (0, 0), BuildingBlock: KIFKEQ_clean_linker_1, # of connection points: 2
#     Edge 21, Type (0, 0), BuildingBlock: KIFKEQ_clean_linker_1, # of connection points: 2
#     Edge 22, Type (0, 0), BuildingBlock: KIFKEQ_clean_linker_1, # of connection points: 2
#     Edge 23, Type (0, 0), BuildingBlock: KIFKEQ_clean_linker_1, # of connection points: 2
#     Edge 24, Type (0, 0), BuildingBlock: KIFKEQ_clean_linker_1, # of connection points: 2
#     Edge 25, Type (0, 0), BuildingBlock: KIFKEQ_clean_linker_1, # of connection points: 2
#     Edge 26, Type (0, 0), BuildingBlock: KIFKEQ_clean_linker_1, # of connection points: 2
#     Edge 27, Type (0, 0), BuildingBlock: KIFKEQ_clean_linker_1, # of connection points: 2
#     Edge 28, Type (0, 0), BuildingBlock: KIFKEQ_clean_linker_1, # of connection points: 2
#     Edge 29, Type (0, 0), BuildingBlock: KIFKEQ_clean_linker_1, # of connection points: 2
#     Edge 30, Type (0, 0), BuildingBlock: KIFKEQ_clean_linker_1, # of connection points: 2
#     Edge 31, Type (0, 0), BuildingBlock: KIFKEQ_clean_linker_1, # of connection points: 2
#     Edge 32, Type (0, 0), BuildingBlock: KIFKEQ_clean_linker_1, # of connection points: 2
#     Edge 33, Type (0, 0), BuildingBlock: KIFKEQ_clean_linker_1, # of connection points: 2
#     Edge 34, Type (0, 0), BuildingBlock: KIFKEQ_clean_linker_1, # of connection points: 2
#     Edge 35, Type (0, 0), BuildingBlock: KIFKEQ_clean_linker_1, # of connection points: 2
# Relax obj value: 0.331
# Max RMSD: 0.124
# Mean RMSD: 0.120
data_MOF--net-wjg--node1-ICAMEG_clean_sbu_1--edge1-KIFKEQ_clean_linker_1
_symmetry_space_group_name_H-M    P1
_symmetry_Int_Tables_number       1
_symmetry_cell_setting            triclinic
loop_
_symmetry_equiv_pos_as_xyz
'x, y, z'
_cell_length_a     33.723825
_cell_length_b     33.550079
_cell_length_c     43.576457
_cell_angle_alpha  90.013775
_cell_angle_beta   89.978552
_cell_angle_gamma 120.16615
loop_
_atom_site_label
_atom_site_type_symbol
_atom_site_fract_x
_atom_site_fract_y
_atom_site_fract_z
_atom_type_partial_charge
Co0 Co 0.20685 0.43618 0.33258 0.0
Co1 Co 0.09175 0.35935 0.33481 0.0
O2 O 0.14465 0.41474 0.31872 0.0
C3 C 0.20272 0.52243 0.33869 0.0
O4 O 0.16799 0.50131 0.35768 0.0
C5 C 0.08565 0.347 0.26793 0.0
O6 O 0.1283 0.35619 0.26949 0.0
O7 O 0.12101 0.32187 0.32591 0.0
O8 O 0.19413 0.37169 0.33869 0.0
H9 H 0.01031 0.21376 0.39702 0.0
H10 H 0.19235 0.47074 0.27343 0.0
O11 O 0.22126 0.50113 0.32673 0.0
H12 H 0.28011 0.394 0.2475 0.0
H13 H 0.37814 0.54151 0.33039 0.0
H14 H 0.2489 0.41042 0.383 0.0
H15 H 0.25922 0.39797 0.30118 0.0
H16 H 0.29875 0.51157 0.3125 0.0
O17 O 0.06443 0.3461 0.29242 0.0
H18 H 0.07766 0.28448 0.37763 0.0
H19 H 0.99126 0.31512 0.32394 0.0
H20 H 0.32777 0.43902 0.40149 0.0
H21 H 0.21299 0.46802 0.21948 0.0
H22 H 0.39307 0.50505 0.37512 0.0
H23 H 0.257 0.42925 0.20621 0.0
O24 O 0.18811 0.43669 0.37564 0.0
H25 H 0.04328 0.47528 0.31106 0.0
H26 H 0.04498 0.37024 0.38952 0.0
H27 H 0.01004 0.41767 0.40175 0.0
H28 H 0.0089 0.47052 0.3623 0.0
H29 H 0.07819 0.42749 0.2999 0.0
H30 H 0.92297 0.24451 0.34255 0.0
H31 H 0.93228 0.19339 0.37945 0.0
O32 O 0.11916 0.37168 0.37735 0.0
C33 C 0.16147 0.33116 0.33271 0.0
C34 C 0.0058 0.23585 0.38103 0.0
C35 C 0.95678 0.25307 0.35042 0.0
N36 N 0.03833 0.30408 0.3499 0.0
C37 C 0.04379 0.27601 0.37005 0.0
C38 C 0.99556 0.29294 0.33992 0.0
C39 C 0.96203 0.22441 0.37114 0.0
C40 C 0.212 0.45431 0.26789 0.0
N41 N 0.22471 0.4347 0.29045 0.0
C42 C 0.22339 0.45267 0.23727 0.0
C43 C 0.24801 0.43083 0.22984 0.0
C44 C 0.26094 0.41101 0.25299 0.0
C45 C 0.2489 0.41326 0.28334 0.0
C46 C 0.34999 0.51265 0.34203 0.0
C47 C 0.27714 0.43896 0.37127 0.0
C48 C 0.30495 0.4956 0.33203 0.0
N49 N 0.26924 0.45902 0.34653 0.0
C50 C 0.32173 0.4551 0.3819 0.0
C51 C 0.35834 0.49217 0.36712 0.0
C52 C 0.15462 0.40451 0.39032 0.0
C53 C 0.04343 0.45226 0.3284 0.0
C54 C 0.04476 0.39329 0.37229 0.0
C55 C 0.02484 0.41998 0.37931 0.0
C56 C 0.02421 0.44963 0.35717 0.0
N57 N 0.06335 0.39591 0.34396 0.0
C58 C 0.06301 0.42501 0.32218 0.0
Co59 Co 0.75031 0.1969 0.66368 0.0
Co60 Co 0.72568 0.08509 0.6762 0.0
O61 O 0.71327 0.13078 0.65797 0.0
C62 C 0.66334 0.18804 0.68891 0.0
O63 O 0.66536 0.16575 0.71305 0.0
C64 C 0.73184 0.07593 0.60949 0.0
O65 O 0.75913 0.12077 0.60986 0.0
O66 O 0.79301 0.12244 0.66751 0.0
O67 O 0.80778 0.19478 0.65948 0.0
H68 H 0.80677 0.02768 0.74418 0.0
H69 H 0.67715 0.1582 0.61642 0.0
O70 O 0.69313 0.20064 0.66761 0.0
H71 H 0.82005 0.25888 0.55998 0.0
H72 H 0.78782 0.36129 0.64972 0.0
H73 H 0.8352 0.25897 0.69822 0.0
H74 H 0.8208 0.25151 0.61627 0.0
H75 H 0.7427 0.27716 0.64188 0.0
O76 O 0.71508 0.05443 0.63467 0.0
H77 H 0.79223 0.08644 0.7214 0.0
H78 H 0.6826 0.98354 0.66871 0.0
H79 H 0.8816 0.34292 0.70635 0.0
H80 H 0.67474 0.16482 0.56016 0.0
H81 H 0.85799 0.39469 0.68204 0.0
H82 H 0.74661 0.21528 0.53155 0.0
O83 O 0.75271 0.18915 0.70884 0.0
H84 H 0.55749 0.01031 0.65192 0.0
H85 H 0.67162 0.03725 0.732 0.0
H86 H 0.58917 0.99255 0.74454 0.0
H87 H 0.53147 0.97882 0.70432 0.0
H88 H 0.64027 0.0551 0.64043 0.0
H89 H 0.69615 0.92367 0.69074 0.0
H90 H 0.75853 0.94561 0.72885 0.0
O91 O 0.73702 0.11627 0.71729 0.0
C92 C 0.82048 0.16504 0.66196 0.0
C93 C 0.77942 0.01767 0.72765 0.0
C94 C 0.71738 0.9593 0.69762 0.0
N95 N 0.73648 0.03837 0.69387 0.0
C96 C 0.77096 0.05078 0.71473 0.0
C97 C 0.70995 0.99335 0.68516 0.0
C98 C 0.75237 0.97164 0.71902 0.0
C99 C 0.70849 0.18057 0.60416 0.0
N100 N 0.74908 0.20449 0.61961 0.0
C101 C 0.70694 0.18404 0.57229 0.0
C102 C 0.74729 0.21231 0.55625 0.0
C103 C 0.78851 0.23676 0.57219 0.0
C104 C 0.78876 0.23237 0.60405 0.0
C105 C 0.79853 0.33909 0.66038 0.0
C106 C 0.82485 0.28128 0.68736 0.0
C107 C 0.77304 0.2914 0.6561 0.0
N108 N 0.78646 0.26317 0.66942 0.0
C109 C 0.85119 0.32879 0.69213 0.0
C110 C 0.83788 0.35782 0.67851 0.0
C111 C 0.74802 0.15675 0.72664 0.0
C112 C 0.5823 0.01597 0.66961 0.0
C113 C 0.64672 0.03148 0.7144 0.0
C114 C 0.60008 0.00607 0.72161 0.0
C115 C 0.56772 0.99835 0.69903 0.0
N116 N 0.66074 0.04856 0.68548 0.0
C117 C 0.62922 0.04117 0.66322 0.0
Co118 Co 0.65199 0.73654 0.00827 0.0
Co119 Co 0.58715 0.78761 0.99294 0.0
O120 O 0.60223 0.73936 0.98739 0.0
C121 C 0.67244 0.74062 0.94261 0.0
O122 O 0.66628 0.77622 0.94249 0.0
C123 C 0.49747 0.7037 0.00691 0.0
O124 O 0.51724 0.69185 0.02811 0.0
O125 O 0.58724 0.78109 0.03837 0.0
O126 O 0.63588 0.75479 0.04833 0.0
H127 H 0.60339 0.93182 0.04001 0.0
H128 H 0.58476 0.65719 0.97084 0.0
O129 O 0.6689 0.71958 0.9678 0.0
H130 H 0.57077 0.59635 0.07574 0.0
H131 H 0.75071 0.66636 0.02869 0.0
H132 H 0.72143 0.79205 0.05561 0.0
H133 H 0.62639 0.67783 0.06422 0.0
H134 H 0.68804 0.67203 0.00375 0.0
O135 O 0.52058 0.7404 0.99131 0.0
H136 H 0.62274 0.87071 0.03229 0.0
H137 H 0.5166 0.80615 0.96606 0.0
H138 H 0.78422 0.78752 0.08129 0.0
H139 H 0.52895 0.57542 0.98128 0.0
H140 H 0.7992 0.72432 0.06784 0.0
H141 H 0.52167 0.54453 0.03406 0.0
O142 O 0.69664 0.80285 1.00035 0.0
H143 H 0.54894 0.72896 0.88465 0.0
H144 H 0.62862 0.86745 0.94978 0.0
H145 H 0.63188 0.87597 0.89348 0.0
H146 H 0.59185 0.80637 0.86051 0.0
H147 H 0.54693 0.722 0.94106 0.0
H148 H 0.49575 0.86625 0.97334 0.0
H149 H 0.53949 0.92982 0.0104 0.0
O150 O 0.65323 0.83578 0.9941 0.0
C151 C 0.60986 0.77037 0.05678 0.0
C152 C 0.58418 0.90439 0.02371 0.0
C153 C 0.52374 0.86756 0.98632 0.0
N154 N 0.5711 0.83514 0.99856 0.0
C155 C 0.59507 0.86978 0.01918 0.0
C156 C 0.53562 0.83355 0.98236 0.0
C157 C 0.54829 0.90322 0.00712 0.0
C158 C 0.58204 0.64391 0.99381 0.0
N159 N 0.609 0.67215 0.01685 0.0
C160 C 0.55026 0.59762 0.99961 0.0
C161 C 0.54614 0.58033 0.02924 0.0
C162 C 0.57368 0.60939 0.05264 0.0
C163 C 0.60504 0.6555 0.04599 0.0
C164 C 0.74449 0.69402 0.03477 0.0
C165 C 0.72758 0.76432 0.04977 0.0
C166 C 0.70914 0.69747 0.02068 0.0
N167 N 0.70096 0.73219 0.02835 0.0
C168 C 0.76326 0.76199 0.06432 0.0
C169 C 0.77167 0.72654 0.05675 0.0
C170 C 0.69184 0.83779 0.99633 0.0
C171 C 0.56643 0.75955 0.89877 0.0
C172 C 0.61119 0.83701 0.93559 0.0
C173 C 0.61307 0.84205 0.90372 0.0
C174 C 0.59057 0.80299 0.88524 0.0
N175 N 0.58755 0.79428 0.94869 0.0
C176 C 0.56525 0.75583 0.93072 0.0
Co177 Co 0.79293 0.56484 0.33333 0.0
Co178 Co 0.90716 0.64488 0.33821 0.0
O179 O 0.85634 0.58833 0.32131 0.0
C180 C 0.79852 0.47954 0.34176 0.0
O181 O 0.83122 0.50082 0.36215 0.0
C182 C 0.91599 0.65603 0.27146 0.0
O183 O 0.87231 0.64334 0.27189 0.0
O184 O 0.87632 0.68032 0.32777 0.0
O185 O 0.80304 0.6285 0.33875 0.0
H186 H 0.98037 0.79049 0.40076 0.0
H187 H 0.81167 0.53065 0.27544 0.0
O188 O 0.78092 0.50056 0.32819 0.0
H189 H 0.72134 0.60283 0.24503 0.0
H190 H 0.62268 0.45479 0.32725 0.0
H191 H 0.74618 0.58831 0.38185 0.0
H192 H 0.7404 0.60063 0.2994 0.0
H193 H 0.70337 0.48739 0.31145 0.0
O194 O 0.937 0.65949 0.29655 0.0
H195 H 0.91584 0.71851 0.38025 0.0
H196 H 0.00844 0.69253 0.33001 0.0
H197 H 0.66593 0.55706 0.39824 0.0
H198 H 0.79271 0.53142 0.22087 0.0
H199 H 0.60351 0.48978 0.37087 0.0
H200 H 0.74745 0.56794 0.20535 0.0
O201 O 0.80951 0.56514 0.37695 0.0
H202 H 0.9628 0.53366 0.31785 0.0
H203 H 0.95223 0.63606 0.39455 0.0
H204 H 0.98915 0.59113 0.40863 0.0
H205 H 0.99474 0.53961 0.3701 0.0
H206 H 0.92585 0.57898 0.30482 0.0
H207 H 0.07399 0.76445 0.34976 0.0
H208 H 0.06014 0.81387 0.38551 0.0
O209 O 0.87726 0.63137 0.38004 0.0
C210 C 0.83509 0.66956 0.33337 0.0
C211 C 0.98686 0.76916 0.3853 0.0
C212 C 0.0394 0.75458 0.35664 0.0
N213 N 0.95842 0.70116 0.3542 0.0
C214 C 0.95047 0.72829 0.37369 0.0
C215 C 0.00216 0.71395 0.34548 0.0
C216 C 0.0316 0.78228 0.3767 0.0
C217 C 0.79143 0.54605 0.26892 0.0
N218 N 0.77704 0.56544 0.29061 0.0
C219 C 0.78101 0.5466 0.23796 0.0
C220 C 0.7557 0.56719 0.22926 0.0
C221 C 0.74109 0.58682 0.25151 0.0
C222 C 0.75214 0.58563 0.28225 0.0
C223 C 0.64956 0.48418 0.33931 0.0
C224 C 0.71921 0.55927 0.36967 0.0
C225 C 0.69533 0.50276 0.3305 0.0
N226 N 0.72945 0.54 0.34553 0.0
C227 C 0.67383 0.54161 0.37912 0.0
C228 C 0.63883 0.50384 0.36378 0.0
C229 C 0.84151 0.59784 0.39229 0.0
C230 C 0.9607 0.55611 0.33481 0.0
C231 C 0.95441 0.61359 0.37769 0.0
C232 C 0.97543 0.58831 0.38577 0.0
C233 C 0.97856 0.55941 0.36414 0.0
N234 N 0.93717 0.61034 0.34883 0.0
C235 C 0.93996 0.58196 0.32753 0.0
Co236 Co 0.24124 0.8047 0.67144 0.0
Co237 Co 0.26836 0.91787 0.67127 0.0
O238 O 0.2784 0.86808 0.6576 0.0
C239 C 0.31158 0.7833 0.69193 0.0
O240 O 0.29271 0.77713 0.71917 0.0
C241 C 0.26597 0.92151 0.60392 0.0
O242 O 0.23581 0.87729 0.6054 0.0
O243 O 0.20227 0.88183 0.66022 0.0
O244 O 0.18494 0.81019 0.67357 0.0
H245 H 0.18663 0.98775 0.72605 0.0
H246 H 0.29772 0.82339 0.6154 0.0
O247 O 0.29707 0.79759 0.66984 0.0
H248 H 0.13806 0.72147 0.58188 0.0
H249 H 0.18769 0.6348 0.67098 0.0
H250 H 0.1714 0.75816 0.72025 0.0
H251 H 0.1556 0.74456 0.63614 0.0
H252 H 0.23329 0.71513 0.65301 0.0
O253 O 0.28336 0.94425 0.62856 0.0
H254 H 0.19934 0.92457 0.7099 0.0
H255 H 0.31712 0.01885 0.65918 0.0
H256 H 0.12516 0.67827 0.73896 0.0
H257 H 0.28176 0.80067 0.56097 0.0
H258 H 0.13317 0.61591 0.71428 0.0
H259 H 0.20142 0.7495 0.54388 0.0
O260 O 0.25471 0.82593 0.71449 0.0
H261 H 0.43735 0.98362 0.65408 0.0
H262 H 0.31929 0.97035 0.72689 0.0
H263 H 0.40084 0.01382 0.74189 0.0
H264 H 0.46052 0.02072 0.70532 0.0
H265 H 0.35537 0.94019 0.64011 0.0
H266 H 0.30548 0.08303 0.67458 0.0
H267 H 0.23994 0.06766 0.70835 0.0
O268 O 0.25204 0.89154 0.71413 0.0
C269 C 0.17354 0.83998 0.66661 0.0
C270 C 0.21542 0.99491 0.71143 0.0
C271 C 0.28209 0.04838 0.6825 0.0
N272 N 0.25918 0.9681 0.68387 0.0
C273 C 0.22287 0.9593 0.70229 0.0
C274 C 0.28846 0.0119 0.67382 0.0
C275 C 0.24531 0.03973 0.70146 0.0
C276 C 0.26273 0.80063 0.60821 0.0
N277 N 0.22769 0.78508 0.62896 0.0
C278 C 0.25388 0.78809 0.57733 0.0
C279 C 0.20878 0.75944 0.56775 0.0
C280 C 0.17321 0.74374 0.58905 0.0
C281 C 0.18335 0.75704 0.61974 0.0
C282 C 0.18385 0.66163 0.68191 0.0
C283 C 0.17496 0.73121 0.70931 0.0
C284 C 0.20952 0.70719 0.6718 0.0
N285 N 0.20481 0.7413 0.68544 0.0
C286 C 0.14873 0.68603 0.72004 0.0
C287 C 0.15326 0.65107 0.7062 0.0
C288 C 0.2514 0.85769 0.7281 0.0
C289 C 0.41167 0.98094 0.67018 0.0
C290 C 0.34505 0.97308 0.71089 0.0
C291 C 0.39118 0.99783 0.71949 0.0
C292 C 0.42465 0.00172 0.69895 0.0
N293 N 0.33262 0.95294 0.6826 0.0
C294 C 0.36522 0.95651 0.66237 0.0
Co295 Co 0.35248 0.26057 1.00177 0.0
Co296 Co 0.43405 0.22886 0.99724 0.0
O297 O 0.40897 0.26727 0.98454 0.0
C298 C 0.33932 0.25574 0.93501 0.0
O299 O 0.35324 0.2256 0.9355 0.0
C300 C 0.51856 0.32104 0.00393 0.0
O301 O 0.49805 0.33293 0.02459 0.0
O302 O 0.43468 0.24714 0.04056 0.0
O303 O 0.36752 0.24605 0.04374 0.0
H304 H 0.447 0.1142 0.06451 0.0
H305 H 0.41573 0.34509 0.96708 0.0
O306 O 0.33625 0.27386 0.96001 0.0
H307 H 0.40454 0.39882 0.07035 0.0
H308 H 0.23075 0.3043 0.01343 0.0
H309 H 0.28106 0.19547 0.04489 0.0
H310 H 0.36113 0.31604 0.05743 0.0
H311 H 0.30265 0.31204 0.99322 0.0
O312 O 0.49725 0.28194 0.99076 0.0
H313 H 0.41358 0.16093 0.04715 0.0
H314 H 0.51181 0.2178 0.97535 0.0
H315 H 0.20914 0.18668 0.06586 0.0
H316 H 0.45949 0.42825 0.97894 0.0
H317 H 0.18356 0.24136 0.05013 0.0
H318 H 0.45406 0.45556 0.0309 0.0
O319 O 0.31849 0.19362 0.9922 0.0
H320 H 0.46295 0.25705 0.88402 0.0
H321 H 0.39941 0.13871 0.9652 0.0
H322 H 0.3959 0.11489 0.91127 0.0
H323 H 0.42792 0.17429 0.87025 0.0
H324 H 0.46514 0.27933 0.9382 0.0
H325 H 0.54657 0.172 0.99213 0.0
H326 H 0.51405 0.11961 0.03695 0.0
O327 O 0.37153 0.1744 0.00395 0.0
C328 C 0.40185 0.24568 0.05598 0.0
C329 C 0.46138 0.13677 0.04488 0.0
C330 C 0.51729 0.16925 0.00428 0.0
N331 N 0.46043 0.19177 0.01009 0.0
C332 C 0.4425 0.16322 0.03487 0.0
C333 C 0.4975 0.19516 0.99491 0.0
C334 C 0.49902 0.13986 0.02942 0.0
C335 C 0.41295 0.35677 0.98967 0.0
N336 N 0.38571 0.32582 0.01147 0.0
C337 C 0.43792 0.40387 0.99629 0.0
C338 C 0.4349 0.41917 0.02546 0.0
C339 C 0.40714 0.38735 0.04761 0.0
C340 C 0.38271 0.34052 0.04018 0.0
C341 C 0.24158 0.28033 0.02052 0.0
C342 C 0.27032 0.21959 0.03811 0.0
C343 C 0.28221 0.28449 0.00911 0.0
N344 N 0.29621 0.25448 0.01809 0.0
C345 C 0.22949 0.21435 0.04998 0.0
C346 C 0.21513 0.24501 0.04111 0.0
C347 C 0.33033 0.16404 0.99849 0.0
C348 C 0.44902 0.23086 0.9017 0.0
C349 C 0.41319 0.16476 0.94748 0.0
C350 C 0.41125 0.15107 0.91698 0.0
C351 C 0.42928 0.18441 0.89398 0.0
N352 N 0.43254 0.21039 0.95486 0.0
C353 C 0.45038 0.24329 0.93243 0.0
Co354 Co 0.56539 0.7969 0.33596 0.0
Co355 Co 0.64361 0.91207 0.33536 0.0
O356 O 0.58774 0.85916 0.35083 0.0
C357 C 0.48012 0.80229 0.33032 0.0
O358 O 0.50117 0.83712 0.31127 0.0
C359 C 0.65582 0.91675 0.40244 0.0
O360 O 0.6464 0.87383 0.40043 0.0
O361 O 0.67957 0.88115 0.34386 0.0
O362 O 0.62914 0.80864 0.32955 0.0
H363 H 0.78943 0.99302 0.27405 0.0
H364 H 0.53171 0.8106 0.3957 0.0
O365 O 0.50113 0.7834 0.34214 0.0
H366 H 0.60486 0.7186 0.41922 0.0
H367 H 0.458 0.62512 0.33572 0.0
H368 H 0.59007 0.75528 0.28457 0.0
H369 H 0.60163 0.74174 0.36599 0.0
H370 H 0.48915 0.7045 0.35491 0.0
O371 O 0.65672 0.93855 0.37817 0.0
H372 H 0.71805 0.92573 0.29264 0.0
H373 H 0.68935 0.01291 0.34745 0.0
H374 H 0.56024 0.67642 0.26479 0.0
H375 H 0.53372 0.78775 0.44921 0.0
H376 H 0.49371 0.61066 0.29041 0.0
H377 H 0.57068 0.74158 0.46127 0.0
O378 O 0.56545 0.81733 0.29325 0.0
H379 H 0.53071 0.96374 0.35974 0.0
H380 H 0.63483 0.96132 0.28122 0.0
H381 H 0.58945 0.99856 0.26948 0.0
H382 H 0.53714 0.00012 0.30896 0.0
H383 H 0.57647 0.92657 0.37043 0.0
H384 H 0.76062 0.08115 0.32964 0.0
H385 H 0.81111 0.07142 0.29258 0.0
O386 O 0.6314 0.88552 0.2924 0.0
C387 C 0.66963 0.84057 0.33615 0.0
C388 C 0.76763 0.99772 0.29011 0.0
C389 C 0.7515 0.04718 0.32135 0.0
N390 N 0.6994 0.96546 0.32089 0.0
C391 C 0.7271 0.95977 0.30065 0.0
C392 C 0.71124 0.00843 0.3314 0.0
C393 C 0.7798 0.0417 0.30055 0.0
C394 C 0.54737 0.79005 0.40071 0.0
N395 N 0.56635 0.77737 0.37773 0.0
C396 C 0.54861 0.77741 0.43108 0.0
C397 C 0.56942 0.75157 0.43783 0.0
C398 C 0.58864 0.7387 0.41426 0.0
C399 C 0.58681 0.75201 0.38417 0.0
C400 C 0.48706 0.65347 0.3244 0.0
C401 C 0.56131 0.72684 0.29598 0.0
C402 C 0.5048 0.69852 0.33513 0.0
N403 N 0.54164 0.73447 0.32103 0.0
C404 C 0.54448 0.68226 0.28461 0.0
C405 C 0.50712 0.64539 0.29898 0.0
C406 C 0.59829 0.85077 0.27895 0.0
C407 C 0.55352 0.96343 0.3424 0.0
C408 C 0.61196 0.96169 0.29847 0.0
C409 C 0.58644 0.9829 0.29171 0.0
C410 C 0.55708 0.98376 0.31388 0.0
N411 N 0.60849 0.94206 0.32655 0.0
C412 C 0.57962 0.94256 0.34835 0.0
Co413 Co 0.7738 0.56055 0.66842 0.0
Co414 Co 0.73866 0.64007 0.67083 0.0
O415 O 0.73468 0.58273 0.68507 0.0
C416 C 0.681 0.47457 0.67881 0.0
O417 O 0.66175 0.4976 0.68898 0.0
C418 C 0.74503 0.64912 0.73817 0.0
O419 O 0.77727 0.6382 0.7362 0.0
O420 O 0.8054 0.67541 0.67977 0.0
O421 O 0.82615 0.62507 0.66354 0.0
H422 H 0.8064 0.78949 0.61264 0.0
H423 H 0.72803 0.52539 0.72897 0.0
O424 O 0.72328 0.49485 0.67147 0.0
H425 H 0.8934 0.59391 0.74905 0.0
H426 H 0.83787 0.45382 0.66136 0.0
H427 H 0.83902 0.58913 0.6162 0.0
H428 H 0.86549 0.59373 0.69677 0.0
H429 H 0.79025 0.48327 0.68348 0.0
O430 O 0.72538 0.65179 0.71387 0.0
H431 H 0.80091 0.71676 0.62963 0.0
H432 H 0.68453 0.68598 0.68417 0.0
H433 H 0.88748 0.56106 0.59353 0.0
H434 H 0.75435 0.52424 0.78143 0.0
H435 H 0.88709 0.49288 0.61614 0.0
H436 H 0.83765 0.55883 0.79183 0.0
O437 O 0.75217 0.56243 0.62665 0.0
H438 H 0.57269 0.52993 0.69476 0.0
H439 H 0.68172 0.63257 0.61638 0.0
H440 H 0.59915 0.58848 0.60431 0.0
H441 H 0.54398 0.53675 0.64368 0.0
H442 H 0.65562 0.57423 0.70574 0.0
H443 H 0.68896 0.75856 0.66794 0.0
H444 H 0.75014 0.81079 0.63183 0.0
O445 O 0.75308 0.62982 0.62743 0.0
C446 C 0.83551 0.66551 0.67126 0.0
C447 C 0.77949 0.76694 0.6283 0.0
C448 C 0.71361 0.74961 0.65937 0.0
N449 N 0.74219 0.69697 0.65765 0.0
C450 C 0.77612 0.72564 0.63793 0.0
C451 C 0.71132 0.7086 0.66852 0.0
C452 C 0.74794 0.77889 0.6391 0.0
C453 C 0.76418 0.53972 0.73307 0.0
N454 N 0.795 0.55891 0.70962 0.0
C455 C 0.77897 0.53932 0.76295 0.0
C456 C 0.82571 0.55884 0.76878 0.0
C457 C 0.85699 0.57854 0.7448 0.0
C458 C 0.84095 0.57836 0.71523 0.0
C459 C 0.83843 0.48361 0.65135 0.0
C460 C 0.83891 0.55967 0.62632 0.0
C461 C 0.81148 0.50041 0.66375 0.0
N462 N 0.81216 0.53816 0.65132 0.0
C463 C 0.86632 0.54383 0.61332 0.0
C464 C 0.86604 0.50555 0.62598 0.0
C465 C 0.75286 0.59638 0.61316 0.0
C466 C 0.59639 0.55234 0.67741 0.0
C467 C 0.65801 0.60981 0.63354 0.0
C468 C 0.61125 0.5851 0.62662 0.0
C469 C 0.5803 0.55614 0.64873 0.0
N470 N 0.67353 0.60578 0.66169 0.0
C471 C 0.64338 0.57761 0.68352 0.0
Co472 Co 0.07982 0.72996 0.9983 0.0
Co473 Co 0.19052 0.75248 0.99667 0.0
O474 O 0.12778 0.71718 0.01174 0.0
C475 C 0.076 0.72965 0.06564 0.0
O476 O 0.12069 0.75653 0.06462 0.0
C477 C 0.20526 0.67545 0.97887 0.0
O478 O 0.20314 0.6857 0.95008 0.0
O479 O 0.16727 0.73632 0.95421 0.0
O480 O 0.10637 0.74639 0.95546 0.0
H481 H 0.31419 0.862 0.92489 0.0
H482 H 0.05374 0.64076 0.02834 0.0
O483 O 0.05307 0.71506 0.04082 0.0
H484 H 0.98003 0.60021 0.92652 0.0
H485 H 0.91804 0.70036 0.99505 0.0
H486 H 0.07725 0.8024 0.96063 0.0
H487 H 0.02663 0.68159 0.9423 0.0
H488 H 0.97938 0.68458 0.01003 0.0
O489 O 0.19643 0.69586 1.00025 0.0
H490 H 0.23578 0.81926 0.94589 0.0
H491 H 0.27933 0.75884 0.01387 0.0
H492 H 0.01694 0.81923 0.9449 0.0
H493 H 0.00709 0.55883 0.01358 0.0
H494 H 0.93665 0.76801 0.96214 0.0
H495 H 0.96986 0.5382 0.96233 0.0
O496 O 0.11801 0.79561 0.01023 0.0
H497 H 0.19987 0.71919 0.10805 0.0
H498 H 0.25389 0.84052 0.02894 0.0
H499 H 0.28047 0.86164 0.08232 0.0
H500 H 0.25355 0.80073 0.12229 0.0
H501 H 0.17358 0.69965 0.05448 0.0
H502 H 0.35815 0.80062 0.99344 0.0
H503 H 0.37605 0.85276 0.94867 0.0
O504 O 0.18675 0.81008 0.99312 0.0
C505 C 0.13777 0.74341 0.94097 0.0
C506 C 0.30685 0.83943 0.94443 0.0
C507 C 0.33151 0.80498 0.98289 0.0
N508 N 0.25291 0.78659 0.98112 0.0
C509 C 0.26249 0.81517 0.95646 0.0
C510 C 0.28678 0.78132 0.99432 0.0
C511 C 0.34153 0.83422 0.95777 0.0
C512 C 0.03743 0.63198 0.00607 0.0
N513 N 0.04268 0.66586 0.98627 0.0
C514 C 0.01118 0.58557 0.99781 0.0
C515 C 0.99034 0.574 0.96904 0.0
C516 C 0.99604 0.60878 0.94892 0.0
C517 C 0.02256 0.6548 0.95795 0.0
C518 C 0.95287 0.72286 0.98732 0.0
C519 C 0.04235 0.77975 0.96803 0.0
C520 C 0.98775 0.71415 0.99577 0.0
N521 N 0.03176 0.74229 0.98596 0.0
C522 C 0.00836 0.78954 0.95914 0.0
C523 C 0.96333 0.76082 0.96885 0.0
C524 C 0.15914 0.82327 1.00205 0.0
C525 C 0.21199 0.74601 0.09082 0.0
C526 C 0.24177 0.81382 0.04622 0.0
C527 C 0.25709 0.82599 0.0764 0.0
C528 C 0.24202 0.79178 0.0988 0.0
N529 N 0.21231 0.76884 0.03856 0.0
C530 C 0.19742 0.73512 0.06041 0.0
Co531 Co 0.43219 0.20742 0.33638 0.0
Co532 Co 0.35586 0.0919 0.33144 0.0
O533 O 0.41021 0.14425 0.34902 0.0
C534 C 0.51804 0.20316 0.33156 0.0
O535 O 0.4976 0.16873 0.31215 0.0
C536 C 0.34017 0.08255 0.39799 0.0
O537 O 0.34877 0.12527 0.39693 0.0
O538 O 0.31818 0.12091 0.34024 0.0
O539 O 0.36837 0.195 0.32923 0.0
H540 H 0.21393 0.0131 0.26621 0.0
H541 H 0.46359 0.18976 0.39574 0.0
O542 O 0.49652 0.22159 0.34329 0.0
H543 H 0.38629 0.27695 0.42192 0.0
H544 H 0.53708 0.37939 0.34238 0.0
H545 H 0.40895 0.25219 0.2863 0.0
H546 H 0.39285 0.25867 0.36801 0.0
H547 H 0.50628 0.29875 0.35879 0.0
O548 O 0.34083 0.06238 0.37329 0.0
H549 H 0.28335 0.07982 0.28749 0.0
H550 H 0.31141 0.99042 0.34027 0.0
H551 H 0.43843 0.33233 0.26928 0.0
H552 H 0.45823 0.20775 0.44994 0.0
H553 H 0.50299 0.39659 0.29739 0.0
H554 H 0.41916 0.25147 0.46333 0.0
O555 O 0.43473 0.1907 0.29308 0.0
H556 H 0.46987 0.04166 0.35584 0.0
H557 H 0.36914 0.04762 0.27618 0.0
H558 H 0.41665 0.01285 0.264 0.0
H559 H 0.46729 0.00954 0.30404 0.0
H560 H 0.42203 0.07644 0.36696 0.0
H561 H 0.24206 0.92272 0.31976 0.0
H562 H 0.1929 0.93386 0.28236 0.0
O563 O 0.3701 0.12159 0.28948 0.0
C564 C 0.32777 0.16191 0.33417 0.0
C565 C 0.23517 0.00779 0.28241 0.0
C566 C 0.25092 0.95706 0.3125 0.0
N567 N 0.3016 0.03897 0.31487 0.0
C568 C 0.2746 0.04543 0.29446 0.0
C569 C 0.29008 0.99552 0.32408 0.0
C570 C 0.22336 0.96334 0.2915 0.0
C571 C 0.44704 0.20928 0.40136 0.0
N572 N 0.42874 0.2233 0.37873 0.0
C573 C 0.4439 0.21917 0.4321 0.0
C574 C 0.4219 0.24363 0.4396 0.0
C575 C 0.40341 0.2579 0.41638 0.0
C576 C 0.40714 0.24735 0.38589 0.0
C577 C 0.50887 0.35169 0.32999 0.0
C578 C 0.43682 0.27997 0.29879 0.0
C579 C 0.49133 0.30595 0.33914 0.0
N580 N 0.45559 0.27081 0.32367 0.0
C581 C 0.45347 0.32528 0.28898 0.0
C582 C 0.48972 0.36132 0.30474 0.0
C583 C 0.4033 0.15791 0.27746 0.0
C584 C 0.4478 0.04276 0.33824 0.0
C585 C 0.39126 0.04648 0.29368 0.0
C586 C 0.418 0.02666 0.28667 0.0
C587 C 0.44641 0.02481 0.30915 0.0
N588 N 0.39263 0.06378 0.32231 0.0
C589 C 0.42054 0.06227 0.34443 0.0
Co590 Co 0.23889 0.44037 0.67344 0.0
Co591 Co 0.25357 0.3464 0.66445 0.0
O592 O 0.27156 0.40739 0.68089 0.0
C593 C 0.32767 0.51842 0.64945 0.0
O594 O 0.32372 0.49578 0.62404 0.0
C595 C 0.25386 0.3372 0.73135 0.0
O596 O 0.22952 0.35778 0.73162 0.0
O597 O 0.18827 0.321 0.67638 0.0
O598 O 0.17837 0.38233 0.67588 0.0
H599 H 0.15698 0.20139 0.6041 0.0
H600 H 0.30825 0.47214 0.72318 0.0
O601 O 0.29889 0.49983 0.67123 0.0
H602 H 0.16325 0.43579 0.77407 0.0
H603 H 0.21262 0.57472 0.68469 0.0
H604 H 0.15909 0.42387 0.63526 0.0
H605 H 0.16596 0.42653 0.7181 0.0
H606 H 0.25148 0.53049 0.69487 0.0
O607 O 0.26653 0.3285 0.70581 0.0
H608 H 0.17911 0.27855 0.62421 0.0
H609 H 0.29189 0.28404 0.67142 0.0
H610 H 0.11887 0.46676 0.62471 0.0
H611 H 0.30722 0.48251 0.77916 0.0
H612 H 0.14564 0.5428 0.64949 0.0
H613 H 0.23428 0.46407 0.80498 0.0
O614 O 0.23945 0.43055 0.62852 0.0
H615 H 0.42432 0.43346 0.68044 0.0
H616 H 0.29966 0.34414 0.60669 0.0
H617 H 0.38011 0.3761 0.59041 0.0
H618 H 0.44308 0.42105 0.62745 0.0
H619 H 0.34341 0.40118 0.69567 0.0
H620 H 0.27079 0.20675 0.65203 0.0
H621 H 0.20298 0.16498 0.61801 0.0
O622 O 0.23939 0.36355 0.62329 0.0
C623 C 0.16289 0.33905 0.67773 0.0
C624 C 0.18671 0.21932 0.6188 0.0
C625 C 0.25054 0.2223 0.64574 0.0
N626 N 0.23699 0.28593 0.64871 0.0
C627 C 0.1995 0.26309 0.63016 0.0
C628 C 0.26227 0.266 0.65669 0.0
C629 C 0.2125 0.19889 0.62664 0.0
C630 C 0.2765 0.46456 0.73421 0.0
N631 N 0.23725 0.44892 0.71737 0.0
C632 C 0.27608 0.47031 0.76592 0.0
C633 C 0.23512 0.45988 0.78041 0.0
C634 C 0.19524 0.44395 0.76308 0.0
C635 C 0.19695 0.43863 0.73141 0.0
C636 C 0.20055 0.54159 0.6738 0.0
C637 C 0.17073 0.45676 0.64631 0.0
C638 C 0.22248 0.51639 0.67942 0.0
N639 N 0.20736 0.47443 0.66585 0.0
C640 C 0.14791 0.48097 0.64017 0.0
C641 C 0.16298 0.52365 0.65405 0.0
C642 C 0.23648 0.39742 0.61236 0.0
C643 C 0.39717 0.41383 0.66412 0.0
C644 C 0.32689 0.36377 0.6229 0.0
C645 C 0.37237 0.3817 0.61358 0.0
C646 C 0.40768 0.4069 0.63437 0.0
N647 N 0.31687 0.37058 0.65215 0.0
C648 C 0.3513 0.39533 0.67265 0.0
Co649 Co 0.90431 0.26852 0.99864 0.0
Co650 Co 0.78879 0.21323 0.01622 0.0
O651 O 0.85155 0.26329 0.02064 0.0
C652 C 0.92119 0.26153 0.06387 0.0
O653 O 0.87926 0.22627 0.0639 0.0
C654 C 0.78367 0.2967 1.00103 0.0
O655 O 0.81844 0.30951 0.98223 0.0
O656 O 0.79419 0.2164 0.97062 0.0
O657 O 0.86953 0.25278 0.95884 0.0
H658 H 0.66278 0.06379 0.97342 0.0
H659 H 0.91533 0.34467 0.03913 0.0
O660 O 0.93862 0.28329 0.03887 0.0
H661 H 0.96119 0.4131 0.93593 0.0
H662 H 0.07318 0.34235 0.97667 0.0
H663 H 0.91862 0.21707 0.94852 0.0
H664 H 0.93642 0.33115 0.94451 0.0
H665 H 0.00471 0.33381 0.00328 0.0
O666 O 0.7675 0.25903 0.0159 0.0
H667 H 0.74267 0.12688 0.9798 0.0
H668 H 0.69933 0.19398 0.0428 0.0
H669 H 0.98608 0.22453 0.92115 0.0
H670 H 0.94022 0.42684 0.03164 0.0
H671 H 0.06405 0.28754 0.93521 0.0
H672 H 0.96338 0.46155 0.97975 0.0
O673 O 0.88381 0.20185 0.00434 0.0
H674 H 0.80957 0.27895 0.12253 0.0
H675 H 0.75371 0.13662 0.06178 0.0
H676 H 0.74976 0.13193 0.11828 0.0
H677 H 0.77787 0.20348 0.14904 0.0
H678 H 0.8132 0.28209 0.06598 0.0
H679 H 0.61888 0.13191 0.03679 0.0
H680 H 0.60024 0.06609 1.00203 0.0
O681 O 0.80895 0.16684 0.01674 0.0
C682 C 0.82708 0.2317 0.95124 0.0
C683 C 0.67049 0.0922 0.98872 0.0
C684 C 0.64585 0.13047 0.02426 0.0
N685 N 0.72569 0.16389 0.01182 0.0
C686 C 0.71568 0.12795 0.99251 0.0
C687 C 0.69145 0.16558 0.0275 0.0
C688 C 0.63541 0.09354 0.00475 0.0
C689 C 0.92566 0.35961 0.01652 0.0
N690 N 0.92471 0.33323 0.99232 0.0
C691 C 0.93957 0.40611 0.0124 0.0
C692 C 0.95248 0.42555 0.98326 0.0
C693 C 0.95126 0.39838 0.95867 0.0
C694 C 0.93711 0.35199 0.96364 0.0
C695 C 0.03939 0.31479 0.97032 0.0
C696 C 0.95242 0.24472 0.95464 0.0
C697 C 0.00052 0.30972 0.98535 0.0
N698 N 0.95775 0.27514 0.97733 0.0
C699 C 0.9905 0.2487 0.93912 0.0
C700 C 0.03423 0.28404 0.94704 0.0
C701 C 0.84575 0.16625 0.01128 0.0
C702 C 0.79712 0.24753 0.10937 0.0
C703 C 0.76602 0.16789 0.07501 0.0
C704 C 0.76363 0.16502 0.10699 0.0
C705 C 0.77938 0.20518 0.12424 0.0
N706 N 0.78353 0.20957 0.0606 0.0
C707 C 0.79891 0.24907 0.07735 0.0
H708 H 0.25075 0.57114 0.28901 0.0
H709 H 0.20949 0.58723 0.37981 0.0
H710 H 0.30769 0.65267 0.28764 0.0
H711 H 0.26697 0.66951 0.37852 0.0
H712 H 0.4317 0.75468 0.38018 0.0
H713 H 0.35073 0.69696 0.38152 0.0
H714 H 0.33397 0.73665 0.29027 0.0
H715 H 0.41566 0.79491 0.28902 0.0
C716 C 0.25281 0.59259 0.30825 0.0
C717 C 0.22638 0.57285 0.33473 0.0
C718 C 0.28521 0.63947 0.30738 0.0
C719 C 0.29223 0.66745 0.33314 0.0
C720 C 0.26249 0.64863 0.35843 0.0
C721 C 0.22952 0.60163 0.35913 0.0
C722 C 0.41035 0.75227 0.36086 0.0
C723 C 0.42996 0.7786 0.3343 0.0
C724 C 0.3638 0.71941 0.3617 0.0
C725 C 0.33605 0.71183 0.33582 0.0
C726 C 0.35468 0.74155 0.31045 0.0
C727 C 0.40135 0.77498 0.30977 0.0
H728 H 0.6456 0.22733 0.73765 0.0
H729 H 0.62003 0.20057 0.64074 0.0
H730 H 0.62813 0.28936 0.73378 0.0
H731 H 0.60042 0.26114 0.637 0.0
H732 H 0.69096 0.42194 0.63658 0.0
H733 H 0.6627 0.34003 0.639 0.0
H734 H 0.58576 0.32995 0.72092 0.0
H735 H 0.61476 0.41338 0.71832 0.0
C736 C 0.63363 0.23295 0.7159 0.0
C737 C 0.635 0.20998 0.68936 0.0
C738 C 0.62354 0.26853 0.71365 0.0
C739 C 0.61425 0.28106 0.68487 0.0
C740 C 0.60865 0.25305 0.65934 0.0
C741 C 0.61956 0.21819 0.66148 0.0
C742 C 0.66699 0.40206 0.65464 0.0
C743 C 0.65534 0.42388 0.67741 0.0
C744 C 0.65031 0.35487 0.65589 0.0
C745 C 0.62183 0.32825 0.68018 0.0
C746 C 0.60769 0.34959 0.70197 0.0
C747 C 0.62406 0.39715 0.70043 0.0
H748 H 0.45124 0.70126 0.95565 0.0
H749 H 0.4306 0.64796 0.04805 0.0
H750 H 0.36995 0.67273 0.95066 0.0
H751 H 0.34797 0.61833 0.04295 0.0
H752 H 0.2421 0.67284 0.03434 0.0
H753 H 0.30611 0.65999 0.04166 0.0
H754 H 0.29168 0.61141 0.94824 0.0
H755 H 0.22863 0.6261 0.94048 0.0
C756 C 0.429 0.6823 0.97468 0.0
C757 C 0.44731 0.6775 0.00242 0.0
C758 C 0.38213 0.66538 0.97171 0.0
C759 C 0.35226 0.64334 0.99648 0.0
C760 C 0.37014 0.6355 0.02355 0.0
C761 C 0.41735 0.65224 0.02643 0.0
C762 C 0.25149 0.65796 0.01561 0.0
C763 C 0.23137 0.6521 0.98646 0.0
C764 C 0.28819 0.65031 0.0199 0.0
C765 C 0.30497 0.63603 0.99522 0.0
C766 C 0.28043 0.62377 0.96743 0.0
C767 C 0.24412 0.63199 0.96303 0.0
H768 H 0.58376 0.20827 0.29217 0.0
H769 H 0.56504 0.25221 0.38145 0.0
H770 H 0.66585 0.2649 0.29465 0.0
H771 H 0.64632 0.30841 0.38394 0.0
H772 H 0.78792 0.41538 0.3847 0.0
H773 H 0.72911 0.33359 0.38361 0.0
H774 H 0.69584 0.34894 0.29023 0.0
H775 H 0.75426 0.42996 0.29136 0.0
C776 C 0.59746 0.22875 0.31278 0.0
C777 C 0.56805 0.22659 0.33637 0.0
C778 C 0.64438 0.26125 0.31416 0.0
C779 C 0.6625 0.29155 0.3393 0.0
C780 C 0.63371 0.2855 0.36433 0.0
C781 C 0.58694 0.25353 0.3628 0.0
C782 C 0.76933 0.4007 0.36357 0.0
C783 C 0.77492 0.42902 0.3383 0.0
C784 C 0.73554 0.35397 0.36299 0.0
C785 C 0.70734 0.33497 0.33702 0.0
C786 C 0.71701 0.36227 0.31055 0.0
C787 C 0.7503 0.40888 0.31126 0.0
H788 H 0.35278 0.7829 0.63751 0.0
H789 H 0.33357 0.73439 0.73115 0.0
H790 H 0.38198 0.7318 0.62411 0.0
H791 H 0.35924 0.68164 0.71768 0.0
H792 H 0.3838 0.57381 0.69466 0.0
H793 H 0.40522 0.65407 0.70276 0.0
H794 H 0.34617 0.65429 0.61457 0.0
H795 H 0.32914 0.57603 0.60573 0.0
C796 C 0.35558 0.76198 0.65536 0.0
C797 C 0.33979 0.76191 0.68523 0.0
C798 C 0.37192 0.73227 0.64763 0.0
C799 C 0.37192 0.70126 0.66947 0.0
C800 C 0.36031 0.70481 0.70001 0.0
C801 C 0.34493 0.73502 0.70781 0.0
C802 C 0.37777 0.59214 0.67646 0.0
C803 C 0.35475 0.56898 0.64967 0.0
C804 C 0.38923 0.63788 0.68124 0.0
C805 C 0.37572 0.66047 0.65997 0.0
C806 C 0.35733 0.63862 0.63164 0.0
C807 C 0.34742 0.59344 0.62645 0.0
H808 H 0.78269 0.35755 0.95941 0.0
H809 H 0.73061 0.29564 0.04806 0.0
H810 H 0.73052 0.38849 0.95954 0.0
H811 H 0.67886 0.32603 0.04818 0.0
H812 H 0.58267 0.37274 0.04724 0.0
H813 H 0.66219 0.38971 0.04718 0.0
H814 H 0.64632 0.34175 0.95352 0.0
H815 H 0.56756 0.32533 0.95358 0.0
C816 C 0.76107 0.35167 0.97926 0.0
C817 C 0.75991 0.3234 0.00342 0.0
C818 C 0.73125 0.36935 0.97933 0.0
C819 C 0.70035 0.35949 0.00376 0.0
C820 C 0.70248 0.33479 0.02914 0.0
C821 C 0.73177 0.31679 0.0289 0.0
C822 C 0.59694 0.36796 0.02622 0.0
C823 C 0.56885 0.34685 1.00062 0.0
C824 C 0.64236 0.37737 0.02624 0.0
C825 C 0.66018 0.36607 1.00059 0.0
C826 C 0.6338 0.35092 0.97365 0.0
C827 C 0.58848 0.34124 0.97372 0.0
H828 H 0.20737 0.31675 0.37791 0.0
H829 H 0.13978 0.26235 0.2912 0.0
H830 H 0.23506 0.26199 0.37795 0.0
H831 H 0.1689 0.2082 0.29074 0.0
H832 H 0.3149 0.20915 0.28905 0.0
H833 H 0.26091 0.23761 0.28873 0.0
H834 H 0.20493 0.16938 0.37512 0.0
H835 H 0.2583 0.1395 0.37492 0.0
C836 C 0.19783 0.2924 0.35915 0.0
C837 C 0.17179 0.29365 0.33446 0.0
C838 C 0.2133 0.26092 0.3593 0.0
C839 C 0.20387 0.23093 0.33441 0.0
C840 C 0.17622 0.23087 0.31026 0.0
C841 C 0.15966 0.26166 0.31051 0.0
C842 C 0.29021 0.19929 0.30754 0.0
C843 C 0.29061 0.17245 0.33208 0.0
C844 C 0.25918 0.21521 0.30723 0.0
C845 C 0.22883 0.20545 0.33184 0.0
C846 C 0.2279 0.17697 0.35582 0.0
C847 C 0.25824 0.15996 0.35571 0.0
H848 H 0.86941 0.12838 0.68794 0.0
H849 H 0.88439 0.24182 0.63239 0.0
H850 H 0.95309 0.16674 0.69319 0.0
H851 H 0.96707 0.27932 0.63722 0.0
H852 H 0.09857 0.36414 0.68739 0.0
H853 H 0.0161 0.3167 0.68236 0.0
H854 H 0.02933 0.19718 0.66503 0.0
H855 H 0.11269 0.24478 0.67052 0.0
C856 C 0.89051 0.16084 0.67625 0.0
C857 C 0.8703 0.18245 0.66016 0.0
C858 C 0.93833 0.18281 0.67933 0.0
C859 C 0.96644 0.22655 0.66628 0.0
C860 C 0.94621 0.24626 0.64831 0.0
C861 C 0.89878 0.22459 0.64537 0.0
C862 C 0.08415 0.32769 0.68287 0.0
C863 C 0.11246 0.30846 0.67903 0.0
C864 C 0.03679 0.30053 0.67975 0.0
C865 C 0.01638 0.25346 0.67259 0.0
C866 C 0.0442 0.23344 0.67042 0.0
C867 C 0.0919 0.26074 0.67358 0.0
H868 H 0.87957 0.1307 0.9695 0.0
H869 H 0.80384 0.09997 0.0544 0.0
H870 H 0.85812 0.04935 0.96474 0.0
H871 H 0.78347 0.01938 0.05012 0.0
H872 H 0.75836 0.87738 0.03959 0.0
H873 H 0.8136 0.96014 0.04455 0.0
H874 H 0.77079 0.98416 0.95646 0.0
H875 H 0.71515 0.90197 0.95194 0.0
C876 C 0.85988 0.10688 0.98768 0.0
C877 C 0.84289 0.12114 0.01216 0.0
C878 C 0.84762 0.06052 0.98494 0.0
C879 C 0.81926 0.02831 0.00709 0.0
C880 C 0.80583 0.04362 0.03294 0.0
C881 C 0.81713 0.08957 0.03527 0.0
C882 C 0.76217 0.90027 0.02085 0.0
C883 C 0.73267 0.88381 0.99546 0.0
C884 C 0.79355 0.94744 0.02371 0.0
C885 C 0.79634 0.97832 1.00088 0.0
C886 C 0.76971 0.961 0.9742 0.0
C887 C 0.73771 0.91414 0.97168 0.0
H888 H 0.73729 0.85967 0.37773 0.0
H889 H 0.68314 0.79491 0.29017 0.0
H890 H 0.78961 0.82854 0.37761 0.0
H891 H 0.73614 0.76523 0.28958 0.0
H892 H 0.85794 0.74007 0.29301 0.0
H893 H 0.82854 0.79403 0.29304 0.0
H894 H 0.75747 0.735 0.37809 0.0
H895 H 0.78541 0.68045 0.37753 0.0
C896 C 0.73766 0.84 0.35812 0.0
C897 C 0.70624 0.82922 0.33408 0.0
C898 C 0.76741 0.82229 0.35805 0.0
C899 C 0.76686 0.79483 0.3335 0.0
C900 C 0.73753 0.7868 0.30854 0.0
C901 C 0.70707 0.80341 0.309 0.0
C902 C 0.83674 0.73943 0.31191 0.0
C903 C 0.82341 0.70612 0.3351 0.0
C904 C 0.82007 0.77013 0.31195 0.0
C905 C 0.79114 0.76866 0.33569 0.0
C906 C 0.78021 0.73712 0.35979 0.0
C907 C 0.79579 0.70575 0.35931 0.0
H908 H 0.11378 0.78775 0.71061 0.0
H909 H 0.12338 0.85878 0.62592 0.0
H910 H 0.03094 0.75656 0.7116 0.0
H911 H 0.03964 0.82616 0.62642 0.0
H912 H 0.89394 0.67946 0.62479 0.0
H913 H 0.97659 0.73327 0.6235 0.0
H914 H 0.96868 0.78647 0.71207 0.0
H915 H 0.88525 0.73328 0.71295 0.0
C916 C 0.09804 0.79691 0.69235 0.0
C917 C 0.12454 0.82515 0.66801 0.0
C918 C 0.05086 0.77951 0.69309 0.0
C919 C 0.02922 0.78924 0.66917 0.0
C920 C 0.05583 0.81854 0.64519 0.0
C921 C 0.10343 0.83703 0.64487 0.0
C922 C 0.90979 0.70339 0.64365 0.0
C923 C 0.88366 0.70225 0.66908 0.0
C924 C 0.95685 0.73434 0.64278 0.0
C925 C 0.97869 0.7639 0.66764 0.0
C926 C 0.95232 0.76406 0.69259 0.0
C927 C 0.90487 0.73381 0.6931 0.0
H928 H 0.32044 0.1054 0.04401 0.0
H929 H 0.26208 0.1132 0.95764 0.0
H930 H 0.26869 0.02188 0.04517 0.0
H931 H 0.21113 0.02895 0.95829 0.0
H932 H 0.14049 0.87382 0.04256 0.0
H933 H 0.17338 0.95798 0.04241 0.0
H934 H 0.24552 0.9675 0.95845 0.0
H935 H 0.21409 0.8841 0.95906 0.0
C936 C 0.29597 0.08913 0.02553 0.0
C937 C 0.29507 0.11524 1.00068 0.0
C938 C 0.26629 0.04161 0.02631 0.0
C939 C 0.23608 0.01941 1.00187 0.0
C940 C 0.23407 0.04566 0.97744 0.0
C941 C 0.263 0.09354 0.97708 0.0
C942 C 0.16298 0.89401 0.02397 0.0
C943 C 0.17532 0.87288 1.00104 0.0
C944 C 0.18159 0.94184 0.02386 0.0
C945 C 0.21149 0.96872 1.00027 0.0
C946 C 0.22208 0.94726 0.97664 0.0
C947 C 0.20453 0.89977 0.97718 0.0
H948 H 0.89045 0.22404 0.12032 0.0
H949 H 0.00924 0.33246 0.07412 0.0
H950 H 0.93084 0.24708 0.1689 0.0
H951 H 0.04966 0.35628 0.12331 0.0
H952 H 0.12151 0.34726 0.21161 0.0
H953 H 0.08279 0.32904 0.16208 0.0
H954 H 0.95912 0.3086 0.20611 0.0
H955 H 0.99751 0.3258 0.25579 0.0
C956 C 0.92524 0.25295 0.1205 0.0
C957 C 0.94669 0.27629 0.09324 0.0
C958 C 0.94828 0.26643 0.14851 0.0
C959 C 0.99342 0.3037 0.15009 0.0
C960 C 0.01502 0.32715 0.12284 0.0
C961 C 0.99185 0.31364 0.09468 0.0
C962 C 0.08605 0.33891 0.21075 0.0
C963 C 0.06246 0.33755 0.23773 0.0
C964 C 0.06398 0.32883 0.18228 0.0
C965 C 0.01779 0.31716 0.1801 0.0
C966 C 0.99451 0.31673 0.20703 0.0
C967 C 0.01657 0.32679 0.23551 0.0
H968 H 0.76562 0.11216 0.55308 0.0
H969 H 0.67063 0.98439 0.59801 0.0
H970 H 0.74632 0.07334 0.50376 0.0
H971 H 0.6501 0.94556 0.54821 0.0
H972 H 0.6618 0.88169 0.45776 0.0
H973 H 0.67916 0.9192 0.50771 0.0
H974 H 0.68697 0.04012 0.46652 0.0
H975 H 0.67103 0.00306 0.41633 0.0
C976 C 0.74042 0.07572 0.55246 0.0
C977 C 0.71981 0.05136 0.5796 0.0
C978 C 0.72901 0.05349 0.52402 0.0
C979 C 0.69642 0.00627 0.52182 0.0
C980 C 0.67576 0.98182 0.54901 0.0
C981 C 0.68737 0.0041 0.57758 0.0
C982 C 0.66726 0.91632 0.45932 0.0
C983 C 0.66534 0.93948 0.43294 0.0
C984 C 0.67688 0.93773 0.48808 0.0
C985 C 0.68463 0.98281 0.49129 0.0
C986 C 0.68202 0.0057 0.46492 0.0
C987 C 0.67263 0.98436 0.43611 0.0
H988 H 0.68832 0.66877 0.93265 0.0
H989 H 0.67828 0.77691 0.88581 0.0
H990 H 0.7035 0.6435 0.88352 0.0
H991 H 0.69429 0.75248 0.83728 0.0
H992 H 0.67946 0.67198 0.75093 0.0
H993 H 0.65994 0.69065 0.80066 0.0
H994 H 0.76243 0.66838 0.84397 0.0
H995 H 0.78125 0.64862 0.7943 0.0
C996 C 0.6895 0.68722 0.91195 0.0
C997 C 0.68217 0.72489 0.91321 0.0
C998 C 0.69838 0.67288 0.88382 0.0
C999 C 0.69994 0.69584 0.85638 0.0
C1000 C 0.69258 0.73347 0.8578 0.0
C1001 C 0.68377 0.74775 0.88578 0.0
C1002 C 0.69773 0.67087 0.77106 0.0
C1003 C 0.73216 0.65913 0.76856 0.0
C1004 C 0.68669 0.6818 0.79959 0.0
C1005 C 0.70984 0.68137 0.82635 0.0
C1006 C 0.74361 0.66866 0.82392 0.0
C1007 C 0.75463 0.65766 0.79537 0.0
H1008 H 0.11155 0.72567 0.12089 0.0
H1009 H 0.98745 0.70553 0.07804 0.0
H1010 H 0.07321 0.70549 0.1705 0.0
H1011 H 0.94972 0.68842 0.1278 0.0
H1012 H 0.0075 0.71215 0.26003 0.0
H1013 H 0.04604 0.72998 0.21039 0.0
H1014 H 0.91713 0.63564 0.16655 0.0
H1015 H 0.87862 0.62065 0.21583 0.0
C1016 C 0.0761 0.71732 0.1222 0.0
C1017 C 0.05242 0.71705 0.09563 0.0
C1018 C 0.05412 0.7061 0.15072 0.0
C1019 C 0.00817 0.69536 0.15351 0.0
C1020 C 0.98471 0.6954 0.12674 0.0
C1021 C 0.0064 0.70556 0.09812 0.0
C1022 C 0.98759 0.69537 0.23969 0.0
C1023 C 0.94007 0.66532 0.24173 0.0
C1024 C 0.00967 0.70527 0.21117 0.0
C1025 C 0.98489 0.68446 0.18411 0.0
C1026 C 0.93741 0.65343 0.18653 0.0
C1027 C 0.91525 0.64445 0.21489 0.0
H1028 H 0.33337 0.11512 0.45395 0.0
H1029 H 0.32524 0.99576 0.41 0.0
H1030 H 0.31678 0.07609 0.50325 0.0
H1031 H 0.30988 0.95705 0.45966 0.0
H1032 H 0.23221 0.88394 0.54759 0.0
H1033 H 0.25109 0.92252 0.49801 0.0
H1034 H 0.34899 0.05014 0.54185 0.0
H1035 H 0.32907 0.0118 0.59165 0.0
C1036 C 0.32826 0.08058 0.45481 0.0
C1037 C 0.33043 0.05849 0.42796 0.0
C1038 C 0.31911 0.0583 0.48319 0.0
C1039 C 0.31208 0.0134 0.48555 0.0
C1040 C 0.31451 0.99138 0.45868 0.0
C1041 C 0.32352 0.01365 0.43021 0.0
C1042 C 0.25781 0.92024 0.54669 0.0
C1043 C 0.27891 0.94484 0.57366 0.0
C1044 C 0.26889 0.94232 0.51817 0.0
C1045 C 0.30151 0.98953 0.51584 0.0
C1046 C 0.32315 0.01394 0.5428 0.0
C1047 C 0.31193 0.99189 0.57137 0.0
H1048 H 0.282 0.28982 0.92473 0.0
H1049 H 0.37031 0.25062 0.87831 0.0
H1050 H 0.26066 0.30809 0.87556 0.0
H1051 H 0.35164 0.27167 0.82928 0.0
H1052 H 0.26099 0.37713 0.78687 0.0
H1053 H 0.2835 0.35933 0.83553 0.0
H1054 H 0.2971 0.25114 0.79151 0.0
H1055 H 0.27749 0.27145 0.74236 0.0
C1056 C 0.29732 0.28574 0.90398 0.0
C1057 C 0.32764 0.26864 0.90534 0.0
C1058 C 0.28538 0.29652 0.87569 0.0
C1059 C 0.30436 0.29153 0.8481 0.0
C1060 C 0.33536 0.27506 0.84973 0.0
C1061 C 0.34644 0.26331 0.87794 0.0
C1062 C 0.26896 0.34963 0.78761 0.0
C1063 C 0.26745 0.32566 0.76081 0.0
C1064 C 0.28153 0.33907 0.81566 0.0
C1065 C 0.29194 0.30344 0.81785 0.0
C1066 C 0.29024 0.27936 0.79087 0.0
C1067 C 0.27865 0.29071 0.76263 0.0
H1068 H 0.18229 0.47307 0.43267 0.0
H1069 H 0.14279 0.33014 0.42211 0.0
H1070 H 0.19983 0.47016 0.48655 0.0
H1071 H 0.16422 0.32766 0.47498 0.0
H1072 H 0.17595 0.3242 0.57812 0.0
H1073 H 0.15154 0.32491 0.52576 0.0
H1074 H 0.25119 0.47072 0.51961 0.0
H1075 H 0.27193 0.47016 0.57285 0.0
C1076 C 0.17735 0.44099 0.44208 0.0
C1077 C 0.16063 0.40169 0.42355 0.0
C1078 C 0.18814 0.43934 0.47288 0.0
C1079 C 0.18425 0.39879 0.48556 0.0
C1080 C 0.16696 0.35934 0.46671 0.0
C1081 C 0.15469 0.36065 0.43624 0.0
C1082 C 0.19273 0.35623 0.56536 0.0
C1083 C 0.22598 0.39705 0.57945 0.0
C1084 C 0.17889 0.35677 0.53516 0.0
C1085 C 0.19901 0.39796 0.51793 0.0
C1086 C 0.23356 0.43848 0.53201 0.0
C1087 C 0.24619 0.43815 0.56252 0.0
H1088 H 0.88294 0.27088 0.90109 0.0
H1089 H 0.74364 0.17091 0.92639 0.0
H1090 H 0.86288 0.25269 0.84692 0.0
H1091 H 0.72406 0.15265 0.87242 0.0
H1092 H 0.72704 0.09656 0.77489 0.0
H1093 H 0.74589 0.11551 0.82912 0.0
H1094 H 0.81055 0.26046 0.80767 0.0
H1095 H 0.79146 0.24186 0.75367 0.0
C1096 C 0.84807 0.24522 0.89517 0.0
C1097 C 0.81493 0.22254 0.91819 0.0
C1098 C 0.83658 0.23488 0.86414 0.0
C1099 C 0.79193 0.20112 0.85547 0.0
C1100 C 0.75883 0.17851 0.87842 0.0
C1101 C 0.77007 0.1893 0.90936 0.0
C1102 C 0.74503 0.13246 0.78173 0.0
C1103 C 0.75755 0.16761 0.75983 0.0
C1104 C 0.75573 0.14329 0.8128 0.0
C1105 C 0.77984 0.18949 0.82259 0.0
C1106 C 0.79233 0.22458 0.80076 0.0
C1107 C 0.78104 0.2138 0.76982 0.0
H1108 H 0.67151 0.85893 0.24811 0.0
H1109 H 0.53182 0.82679 0.23556 0.0
H1110 H 0.67432 0.83736 0.19536 0.0
H1111 H 0.53532 0.80936 0.18168 0.0
H1112 H 0.53504 0.73832 0.09388 0.0
H1113 H 0.53286 0.75852 0.14731 0.0
H1114 H 0.68006 0.8508 0.145 0.0
H1115 H 0.68182 0.82655 0.09272 0.0
C1116 C 0.64188 0.84872 0.23355 0.0
C1117 C 0.60163 0.84496 0.24569 0.0
C1118 C 0.64337 0.83637 0.20309 0.0
C1119 C 0.60502 0.82125 0.18359 0.0
C1120 C 0.56528 0.81939 0.19576 0.0
C1121 C 0.56335 0.83018 0.22658 0.0
C1122 C 0.56683 0.76226 0.10524 0.0
C1123 C 0.60863 0.78036 0.08956 0.0
C1124 C 0.56571 0.77461 0.1358 0.0
C1125 C 0.60626 0.80686 0.15107 0.0
C1126 C 0.64807 0.82507 0.13485 0.0
C1127 C 0.64925 0.8114 0.10468 0.0
H1128 H 0.85743 0.67294 0.42544 0.0
H1129 H 0.80512 0.52674 0.43297 0.0
H1130 H 0.83275 0.67451 0.47767 0.0
H1131 H 0.78364 0.52835 0.48608 0.0
H1132 H 0.70931 0.5296 0.57022 0.0
H1133 H 0.73104 0.53172 0.51671 0.0
H1134 H 0.84209 0.67204 0.52916 0.0
H1135 H 0.81736 0.6705 0.58184 0.0
C1136 C 0.8419 0.64138 0.43874 0.0
C1137 C 0.83339 0.59977 0.42535 0.0
C1138 C 0.82766 0.64215 0.46879 0.0
C1139 C 0.80557 0.60147 0.48644 0.0
C1140 C 0.79905 0.56022 0.47319 0.0
C1141 C 0.81206 0.55927 0.44286 0.0
C1142 C 0.73757 0.56118 0.56107 0.0
C1143 C 0.76127 0.60006 0.57986 0.0
C1144 C 0.75074 0.56227 0.53053 0.0
C1145 C 0.78911 0.60179 0.51834 0.0
C1146 C 0.81202 0.64113 0.53722 0.0
C1147 C 0.79788 0.6404 0.56751 0.0
H1148 H 0.13015 0.81141 0.9124 0.0
H1149 H 0.16665 0.70696 0.89661 0.0
H1150 H 0.16009 0.84433 0.86193 0.0
H1151 H 0.19412 0.7378 0.84555 0.0
H1152 H 0.28687 0.82683 0.77169 0.0
H1153 H 0.25685 0.79985 0.82298 0.0
H1154 H 0.15441 0.83948 0.80842 0.0
H1155 H 0.18665 0.86894 0.75772 0.0
C1156 C 0.14313 0.79455 0.89763 0.0
C1157 C 0.146 0.75658 0.9083 0.0
C1158 C 0.16054 0.81353 0.86871 0.0
C1159 C 0.18054 0.79445 0.84969 0.0
C1160 C 0.18058 0.75459 0.85984 0.0
C1161 C 0.1641 0.7363 0.88892 0.0
C1162 C 0.25867 0.83075 0.77986 0.0
C1163 C 0.23929 0.85022 0.76092 0.0
C1164 C 0.24083 0.81457 0.80906 0.0
C1165 C 0.20226 0.81624 0.81976 0.0
C1166 C 0.18421 0.83773 0.8012 0.0
C1167 C 0.20279 0.85487 0.77216 0.0
H1168 H 0.47426 0.19266 0.23674 0.0
H1169 H 0.32949 0.14352 0.24422 0.0
H1170 H 0.47304 0.21318 0.18327 0.0
H1171 H 0.3284 0.1676 0.19186 0.0
H1172 H 0.47192 0.28595 0.09717 0.0
H1173 H 0.4714 0.26443 0.15061 0.0
H1174 H 0.3292 0.1572 0.14102 0.0
H1175 H 0.32933 0.18202 0.08868 0.0
C1176 C 0.44214 0.18621 0.22676 0.0
C1177 C 0.40186 0.16586 0.24432 0.0
C1178 C 0.44142 0.1987 0.1962 0.0
C1179 C 0.40068 0.19276 0.1828 0.0
C1180 C 0.36033 0.172 0.20067 0.0
C1181 C 0.36082 0.15814 0.23087 0.0
C1182 C 0.44042 0.25849 0.10692 0.0
C1183 C 0.40051 0.23615 0.08909 0.0
C1184 C 0.44016 0.24543 0.13746 0.0
C1185 C 0.40037 0.20846 0.15058 0.0
C1186 C 0.36035 0.18642 0.13243 0.0
C1187 C 0.36029 0.20056 0.10225 0.0
loop_
_geom_bond_atom_site_label_1
_geom_bond_atom_site_label_2
_geom_bond_distance
_geom_bond_site_symmetry_2
_ccdc_geom_bond_type
Co0 O2 2.143 . S
Co0 O8 2.074 . S
Co0 O11 2.093 . S
Co0 O24 2.097 . S
Co0 N41 2.151 . S
Co0 N49 2.214 . S
Co1 O2 2.160 . S
Co1 O7 2.058 . S
Co1 O17 2.057 . S
Co1 O32 2.037 . S
Co1 N36 2.145 1_455 S
Co1 N57 2.257 . S
O2 Co0 2.143 . S
O2 Co1 2.160 . S
C3 O4 1.278 . S
C3 O11 1.224 . S
O4 C3 1.278 . S
C5 O6 1.245 . S
C5 O17 1.232 . S
O6 C5 1.245 . S
O7 Co1 2.058 . S
O7 C33 1.269 . S
O8 Co0 2.074 . S
O8 C33 1.257 . S
H9 C34 0.930 . S
H10 C40 0.930 . S
O11 Co0 2.093 . S
O11 C3 1.224 . S
H12 C44 0.929 . S
H13 C46 0.930 . S
H14 C47 0.930 . S
H15 C45 0.929 . S
H16 C48 0.928 . S
O17 Co1 2.057 . S
O17 C5 1.232 . S
H18 C37 0.929 1_455 S
H19 C38 0.929 . S
H20 C50 0.931 . S
H21 C42 0.929 . S
H22 C51 0.930 . S
H23 C43 0.931 . S
O24 Co0 2.097 . S
O24 C52 1.214 . S
H25 C53 0.929 . S
H26 C54 0.929 . S
H27 C55 0.930 1_655 S
H28 C56 0.929 1_655 S
H29 C58 0.930 . S
H30 C35 0.930 . S
H31 C39 0.930 . S
O32 Co1 2.037 . S
O32 C52 1.234 . S
C33 O7 1.269 . S
C33 O8 1.257 . S
C34 H9 0.930 . S
C34 C37 1.388 . S
C34 C39 1.418 . S
C35 H30 0.930 . S
C35 C38 1.404 . S
C35 C39 1.353 . S
N36 Co1 2.145 1_655 S
N36 C37 1.397 . S
N36 C38 1.334 . S
C37 H18 0.929 1_655 S
C37 C34 1.388 . S
C37 N36 1.397 . S
C38 H19 0.929 . S
C38 C35 1.404 . S
C38 N36 1.334 . S
C39 H31 0.930 . S
C39 C34 1.418 . S
C39 C35 1.353 . S
C40 H10 0.930 . S
C40 N41 1.330 . S
C40 C42 1.446 . S
N41 Co0 2.151 . S
N41 C40 1.330 . S
N41 C45 1.418 . S
C42 H21 0.929 . S
C42 C40 1.446 . S
C42 C43 1.332 . S
C43 H23 0.931 . S
C43 C42 1.332 . S
C43 C44 1.267 . S
C44 H12 0.929 . S
C44 C43 1.267 . S
C44 C45 1.251 . S
C45 H15 0.929 . S
C45 N41 1.418 . S
C45 C44 1.251 . S
C46 H13 0.930 . S
C46 C48 1.406 . S
C46 C51 1.261 . S
C47 H14 0.930 . S
C47 N49 1.325 . S
C47 C50 1.357 . S
C48 H16 0.928 . S
C48 C46 1.406 . S
C48 N49 1.261 . S
N49 Co0 2.214 . S
N49 C47 1.325 . S
N49 C48 1.261 . S
C50 H20 0.931 . S
C50 C47 1.357 . S
C50 C51 1.312 . S
C51 H22 0.930 . S
C51 C46 1.261 . S
C51 C50 1.312 . S
C52 O24 1.214 . S
C52 O32 1.234 . S
C53 H25 0.929 . S
C53 C56 1.391 . S
C53 C58 1.391 . S
C54 H26 0.929 . S
C54 C55 1.390 . S
C54 N57 1.391 . S
C55 H27 0.930 1_455 S
C55 C54 1.390 . S
C55 C56 1.392 . S
C56 H28 0.929 1_455 S
C56 C53 1.391 . S
C56 C55 1.392 . S
N57 Co1 2.257 . S
N57 C54 1.391 . S
N57 C58 1.388 . S
C58 H29 0.930 . S
C58 C53 1.391 . S
C58 N57 1.388 . S
Co59 O61 2.143 . S
Co59 O67 2.074 . S
Co59 O70 2.093 . S
Co59 O83 2.097 . S
Co59 N100 2.151 . S
Co59 N108 2.214 . S
Co60 O61 2.160 . S
Co60 O66 2.058 . S
Co60 O76 2.057 . S
Co60 O91 2.037 . S
Co60 N95 2.145 1_545 S
Co60 N116 2.257 . S
O61 Co59 2.143 . S
O61 Co60 2.160 . S
C62 O63 1.278 . S
C62 O70 1.224 . S
O63 C62 1.278 . S
C64 O65 1.245 . S
C64 O76 1.232 . S
O65 C64 1.245 . S
O66 Co60 2.058 . S
O66 C92 1.269 . S
O67 Co59 2.074 . S
O67 C92 1.257 . S
H68 C93 0.930 . S
H69 C99 0.930 . S
O70 Co59 2.093 . S
O70 C62 1.224 . S
H71 C103 0.929 . S
H72 C105 0.930 . S
H73 C106 0.930 . S
H74 C104 0.929 . S
H75 C107 0.928 . S
O76 Co60 2.057 . S
O76 C64 1.232 . S
H77 C96 0.929 1_545 S
H78 C97 0.929 . S
H79 C109 0.931 . S
H80 C101 0.929 . S
H81 C110 0.930 . S
H82 C102 0.931 . S
O83 Co59 2.097 . S
O83 C111 1.214 . S
H84 C112 0.929 . S
H85 C113 0.929 . S
H86 C114 0.924 1_565 S
H87 C115 0.929 1_565 S
H88 C117 0.930 . S
H89 C94 0.930 . S
H90 C98 0.930 . S
O91 Co60 2.037 . S
O91 C111 1.234 . S
C92 O66 1.269 . S
C92 O67 1.257 . S
C93 H68 0.930 . S
C93 C96 1.388 . S
C93 C98 1.418 . S
C94 H89 0.930 . S
C94 C97 1.404 . S
C94 C98 1.353 . S
N95 Co60 2.145 1_565 S
N95 C96 1.397 . S
N95 C97 1.334 . S
C96 H77 0.929 1_565 S
C96 C93 1.388 . S
C96 N95 1.397 . S
C97 H78 0.929 . S
C97 C94 1.404 . S
C97 N95 1.334 . S
C98 H90 0.930 . S
C98 C93 1.418 . S
C98 C94 1.353 . S
C99 H69 0.930 . S
C99 N100 1.330 . S
C99 C101 1.446 . S
N100 Co59 2.151 . S
N100 C99 1.330 . S
N100 C104 1.418 . S
C101 H80 0.929 . S
C101 C99 1.446 . S
C101 C102 1.332 . S
C102 H82 0.931 . S
C102 C101 1.332 . S
C102 C103 1.267 . S
C103 H71 0.929 . S
C103 C102 1.267 . S
C103 C104 1.251 . S
C104 H74 0.929 . S
C104 N100 1.418 . S
C104 C103 1.251 . S
C105 H72 0.930 . S
C105 C107 1.406 . S
C105 C110 1.261 . S
C106 H73 0.930 . S
C106 N108 1.325 . S
C106 C109 1.357 . S
C107 H75 0.928 . S
C107 C105 1.406 . S
C107 N108 1.261 . S
N108 Co59 2.214 . S
N108 C106 1.325 . S
N108 C107 1.261 . S
C109 H79 0.931 . S
C109 C106 1.357 . S
C109 C110 1.312 . S
C110 H81 0.930 . S
C110 C105 1.261 . S
C110 C109 1.312 . S
C111 O83 1.214 . S
C111 O91 1.234 . S
C112 H84 0.929 . S
C112 C115 1.391 . S
C112 C117 1.391 . S
C113 H85 0.929 . S
C113 C114 1.385 . S
C113 N116 1.391 . S
C114 H86 0.924 1_545 S
C114 C113 1.385 . S
C114 C115 1.404 . S
C115 H87 0.929 1_545 S
C115 C112 1.391 . S
C115 C114 1.404 . S
N116 Co60 2.257 . S
N116 C113 1.391 . S
N116 C117 1.388 . S
C117 H88 0.930 . S
C117 C112 1.391 . S
C117 N116 1.388 . S
Co118 O120 2.143 1_554 S
Co118 O126 2.074 . S
Co118 O129 2.093 1_554 S
Co118 O142 2.097 1_554 S
Co118 N159 2.151 . S
Co118 N167 2.214 . S
Co119 O120 2.160 1_554 S
Co119 O125 2.058 . S
Co119 O135 2.057 . S
Co119 O150 2.037 . S
Co119 N154 2.145 . S
Co119 N175 2.257 1_554 S
O120 Co118 2.143 1_556 S
O120 Co119 2.160 1_556 S
C121 O122 1.278 . S
C121 O129 1.224 . S
O122 C121 1.278 . S
C123 O124 1.245 . S
C123 O135 1.232 1_556 S
O124 C123 1.245 . S
O125 Co119 2.058 . S
O125 C151 1.269 . S
O126 Co118 2.074 . S
O126 C151 1.257 . S
H127 C152 0.930 . S
H128 C158 0.930 . S
O129 Co118 2.093 1_556 S
O129 C121 1.224 . S
H130 C162 0.929 . S
H131 C164 0.930 . S
H132 C165 0.930 . S
H133 C163 0.929 . S
H134 C166 0.928 1_556 S
O135 Co119 2.057 . S
O135 C123 1.232 1_554 S
H136 C155 0.929 . S
H137 C156 0.929 . S
H138 C168 0.931 . S
H139 C160 0.929 1_556 S
H140 C169 0.930 . S
H141 C161 0.931 . S
O142 Co118 2.097 1_556 S
O142 C170 1.216 . S
H143 C171 0.929 . S
H144 C172 0.929 . S
H145 C173 0.930 . S
H146 C174 0.929 . S
H147 C176 0.930 . S
H148 C153 0.930 . S
H149 C157 0.930 . S
O150 Co119 2.037 . S
O150 C170 1.232 1_554 S
C151 O125 1.269 . S
C151 O126 1.257 . S
C152 H127 0.930 . S
C152 C155 1.388 . S
C152 C157 1.418 . S
C153 H148 0.930 . S
C153 C156 1.404 . S
C153 C157 1.353 . S
N154 Co119 2.145 . S
N154 C155 1.397 . S
N154 C156 1.334 . S
C155 H136 0.929 . S
C155 C152 1.388 . S
C155 N154 1.397 . S
C156 H137 0.929 . S
C156 C153 1.404 . S
C156 N154 1.334 . S
C157 H149 0.930 . S
C157 C152 1.418 . S
C157 C153 1.353 . S
C158 H128 0.930 . S
C158 N159 1.330 1_556 S
C158 C160 1.446 1_556 S
N159 Co118 2.151 . S
N159 C158 1.330 1_554 S
N159 C163 1.418 . S
C160 H139 0.929 1_554 S
C160 C158 1.446 1_554 S
C160 C161 1.332 . S
C161 H141 0.931 . S
C161 C160 1.332 . S
C161 C162 1.267 . S
C162 H130 0.929 . S
C162 C161 1.267 . S
C162 C163 1.251 . S
C163 H133 0.929 . S
C163 N159 1.418 . S
C163 C162 1.251 . S
C164 H131 0.930 . S
C164 C166 1.406 . S
C164 C169 1.261 . S
C165 H132 0.930 . S
C165 N167 1.325 . S
C165 C168 1.357 . S
C166 H134 0.928 1_554 S
C166 C164 1.406 . S
C166 N167 1.261 . S
N167 Co118 2.214 . S
N167 C165 1.325 . S
N167 C166 1.261 . S
C168 H138 0.931 . S
C168 C165 1.357 . S
C168 C169 1.312 . S
C169 H140 0.930 . S
C169 C164 1.261 . S
C169 C168 1.312 . S
C170 O142 1.216 . S
C170 O150 1.232 1_556 S
C171 H143 0.929 . S
C171 C174 1.391 . S
C171 C176 1.391 . S
C172 H144 0.929 . S
C172 C173 1.390 . S
C172 N175 1.391 . S
C173 H145 0.930 . S
C173 C172 1.390 . S
C173 C174 1.392 . S
C174 H146 0.929 . S
C174 C171 1.391 . S
C174 C173 1.392 . S
N175 Co119 2.257 1_556 S
N175 C172 1.391 . S
N175 C176 1.388 . S
C176 H147 0.930 . S
C176 C171 1.391 . S
C176 N175 1.388 . S
Co177 O179 2.143 . S
Co177 O185 2.074 . S
Co177 O188 2.093 . S
Co177 O201 2.097 . S
Co177 N218 2.151 . S
Co177 N226 2.214 . S
Co178 O179 2.160 . S
Co178 O184 2.058 . S
Co178 O194 2.057 . S
Co178 O209 2.037 . S
Co178 N213 2.145 1_655 S
Co178 N234 2.257 . S
O179 Co177 2.143 . S
O179 Co178 2.160 . S
C180 O181 1.278 . S
C180 O188 1.224 . S
O181 C180 1.278 . S
C182 O183 1.245 . S
C182 O194 1.232 . S
O183 C182 1.245 . S
O184 Co178 2.058 . S
O184 C210 1.269 . S
O185 Co177 2.074 . S
O185 C210 1.257 . S
H186 C211 0.930 . S
H187 C217 0.930 . S
O188 Co177 2.093 . S
O188 C180 1.224 . S
H189 C221 0.929 . S
H190 C223 0.930 . S
H191 C224 0.930 . S
H192 C222 0.929 . S
H193 C225 0.928 . S
O194 Co178 2.057 . S
O194 C182 1.232 . S
H195 C214 0.929 1_655 S
H196 C215 0.929 . S
H197 C227 0.931 . S
H198 C219 0.929 . S
H199 C228 0.930 . S
H200 C220 0.931 . S
O201 Co177 2.097 . S
O201 C229 1.214 . S
H202 C230 0.929 . S
H203 C231 0.929 . S
H204 C232 0.930 1_455 S
H205 C233 0.929 1_455 S
H206 C235 0.930 . S
H207 C212 0.930 . S
H208 C216 0.930 . S
O209 Co178 2.037 . S
O209 C229 1.234 . S
C210 O184 1.269 . S
C210 O185 1.257 . S
C211 H186 0.930 . S
C211 C214 1.388 . S
C211 C216 1.418 . S
C212 H207 0.930 . S
C212 C215 1.404 . S
C212 C216 1.353 . S
N213 Co178 2.145 1_455 S
N213 C214 1.397 . S
N213 C215 1.334 . S
C214 H195 0.929 1_455 S
C214 C211 1.388 . S
C214 N213 1.397 . S
C215 H196 0.929 . S
C215 C212 1.404 . S
C215 N213 1.334 . S
C216 H208 0.930 . S
C216 C211 1.418 . S
C216 C212 1.353 . S
C217 H187 0.930 . S
C217 N218 1.330 . S
C217 C219 1.446 . S
N218 Co177 2.151 . S
N218 C217 1.330 . S
N218 C222 1.418 . S
C219 H198 0.929 . S
C219 C217 1.446 . S
C219 C220 1.332 . S
C220 H200 0.931 . S
C220 C219 1.332 . S
C220 C221 1.267 . S
C221 H189 0.929 . S
C221 C220 1.267 . S
C221 C222 1.251 . S
C222 H192 0.929 . S
C222 N218 1.418 . S
C222 C221 1.251 . S
C223 H190 0.930 . S
C223 C225 1.406 . S
C223 C228 1.261 . S
C224 H191 0.930 . S
C224 N226 1.325 . S
C224 C227 1.357 . S
C225 H193 0.928 . S
C225 C223 1.406 . S
C225 N226 1.261 . S
N226 Co177 2.214 . S
N226 C224 1.325 . S
N226 C225 1.261 . S
C227 H197 0.931 . S
C227 C224 1.357 . S
C227 C228 1.312 . S
C228 H199 0.930 . S
C228 C223 1.261 . S
C228 C227 1.312 . S
C229 O201 1.214 . S
C229 O209 1.234 . S
C230 H202 0.929 . S
C230 C233 1.391 . S
C230 C235 1.391 . S
C231 H203 0.929 . S
C231 C232 1.390 . S
C231 N234 1.391 . S
C232 H204 0.930 1_655 S
C232 C231 1.390 . S
C232 C233 1.392 . S
C233 H205 0.929 1_655 S
C233 C230 1.391 . S
C233 C232 1.392 . S
N234 Co178 2.257 . S
N234 C231 1.391 . S
N234 C235 1.388 . S
C235 H206 0.930 . S
C235 C230 1.391 . S
C235 N234 1.388 . S
Co236 O238 2.143 . S
Co236 O244 2.074 . S
Co236 O247 2.093 . S
Co236 O260 2.097 . S
Co236 N277 2.151 . S
Co236 N285 2.214 . S
Co237 O238 2.160 . S
Co237 O243 2.058 . S
Co237 O253 2.057 . S
Co237 O268 2.037 . S
Co237 N272 2.145 1_565 S
Co237 N293 2.257 . S
O238 Co236 2.143 . S
O238 Co237 2.160 . S
C239 O240 1.278 . S
C239 O247 1.224 . S
O240 C239 1.278 . S
C241 O242 1.245 . S
C241 O253 1.232 . S
O242 C241 1.245 . S
O243 Co237 2.058 . S
O243 C269 1.269 . S
O244 Co236 2.074 . S
O244 C269 1.257 . S
H245 C270 0.930 . S
H246 C276 0.930 . S
O247 Co236 2.093 . S
O247 C239 1.224 . S
H248 C280 0.929 . S
H249 C282 0.930 . S
H250 C283 0.930 . S
H251 C281 0.929 . S
H252 C284 0.928 . S
O253 Co237 2.057 . S
O253 C241 1.232 . S
H254 C273 0.929 1_565 S
H255 C274 0.929 . S
H256 C286 0.931 . S
H257 C278 0.929 . S
H258 C287 0.930 . S
H259 C279 0.931 . S
O260 Co236 2.097 . S
O260 C288 1.214 . S
H261 C289 0.929 . S
H262 C290 0.929 . S
H263 C291 0.924 1_545 S
H264 C292 0.929 1_545 S
H265 C294 0.930 . S
H266 C271 0.930 . S
H267 C275 0.930 . S
O268 Co237 2.037 . S
O268 C288 1.234 . S
C269 O243 1.269 . S
C269 O244 1.257 . S
C270 H245 0.930 . S
C270 C273 1.388 . S
C270 C275 1.418 . S
C271 H266 0.930 . S
C271 C274 1.404 . S
C271 C275 1.353 . S
N272 Co237 2.145 1_545 S
N272 C273 1.397 . S
N272 C274 1.334 . S
C273 H254 0.929 1_545 S
C273 C270 1.388 . S
C273 N272 1.397 . S
C274 H255 0.929 . S
C274 C271 1.404 . S
C274 N272 1.334 . S
C275 H267 0.930 . S
C275 C270 1.418 . S
C275 C271 1.353 . S
C276 H246 0.930 . S
C276 N277 1.330 . S
C276 C278 1.446 . S
N277 Co236 2.151 . S
N277 C276 1.330 . S
N277 C281 1.418 . S
C278 H257 0.929 . S
C278 C276 1.446 . S
C278 C279 1.332 . S
C279 H259 0.931 . S
C279 C278 1.332 . S
C279 C280 1.267 . S
C280 H248 0.929 . S
C280 C279 1.267 . S
C280 C281 1.251 . S
C281 H251 0.929 . S
C281 N277 1.418 . S
C281 C280 1.251 . S
C282 H249 0.930 . S
C282 C284 1.406 . S
C282 C287 1.261 . S
C283 H250 0.930 . S
C283 N285 1.325 . S
C283 C286 1.357 . S
C284 H252 0.928 . S
C284 C282 1.406 . S
C284 N285 1.261 . S
N285 Co236 2.214 . S
N285 C283 1.325 . S
N285 C284 1.261 . S
C286 H256 0.931 . S
C286 C283 1.357 . S
C286 C287 1.312 . S
C287 H258 0.930 . S
C287 C282 1.261 . S
C287 C286 1.312 . S
C288 O260 1.214 . S
C288 O268 1.234 . S
C289 H261 0.929 . S
C289 C292 1.391 . S
C289 C294 1.391 . S
C290 H262 0.929 . S
C290 C291 1.385 . S
C290 N293 1.391 . S
C291 H263 0.924 1_565 S
C291 C290 1.385 . S
C291 C292 1.404 . S
C292 H264 0.929 1_565 S
C292 C289 1.391 . S
C292 C291 1.404 . S
N293 Co237 2.257 . S
N293 C290 1.391 . S
N293 C294 1.388 . S
C294 H265 0.930 . S
C294 C289 1.391 . S
C294 N293 1.388 . S
Co295 O297 2.143 1_554 S
Co295 O303 2.074 . S
Co295 O306 2.093 1_554 S
Co295 O319 2.097 1_554 S
Co295 N336 2.151 . S
Co295 N344 2.214 . S
Co296 O297 2.160 1_554 S
Co296 O302 2.058 . S
Co296 O312 2.057 . S
Co296 O327 2.037 . S
Co296 N331 2.145 . S
Co296 N352 2.257 1_554 S
O297 Co295 2.143 1_556 S
O297 Co296 2.160 1_556 S
C298 O299 1.278 . S
C298 O306 1.224 . S
O299 C298 1.278 . S
C300 O301 1.245 . S
C300 O312 1.232 1_556 S
O301 C300 1.245 . S
O302 Co296 2.058 . S
O302 C328 1.269 . S
O303 Co295 2.074 . S
O303 C328 1.257 . S
H304 C329 0.930 . S
H305 C335 0.930 . S
O306 Co295 2.093 1_556 S
O306 C298 1.224 . S
H307 C339 0.929 . S
H308 C341 0.930 . S
H309 C342 0.930 . S
H310 C340 0.929 . S
H311 C343 0.928 1_556 S
O312 Co296 2.057 . S
O312 C300 1.232 1_554 S
H313 C332 0.929 . S
H314 C333 0.929 . S
H315 C345 0.931 . S
H316 C337 0.929 1_556 S
H317 C346 0.930 . S
H318 C338 0.931 . S
O319 Co295 2.097 1_556 S
O319 C347 1.216 . S
H320 C348 0.929 . S
H321 C349 0.929 . S
H322 C350 0.930 . S
H323 C351 0.929 . S
H324 C353 0.930 . S
H325 C330 0.930 . S
H326 C334 0.930 . S
O327 Co296 2.037 . S
O327 C347 1.232 1_554 S
C328 O302 1.269 . S
C328 O303 1.257 . S
C329 H304 0.930 . S
C329 C332 1.388 . S
C329 C334 1.418 . S
C330 H325 0.930 . S
C330 C333 1.404 . S
C330 C334 1.353 . S
N331 Co296 2.145 . S
N331 C332 1.397 . S
N331 C333 1.334 . S
C332 H313 0.929 . S
C332 C329 1.388 . S
C332 N331 1.397 . S
C333 H314 0.929 . S
C333 C330 1.404 . S
C333 N331 1.334 . S
C334 H326 0.930 . S
C334 C329 1.418 . S
C334 C330 1.353 . S
C335 H305 0.930 . S
C335 N336 1.330 1_556 S
C335 C337 1.446 1_556 S
N336 Co295 2.151 . S
N336 C335 1.330 1_554 S
N336 C340 1.418 . S
C337 H316 0.929 1_554 S
C337 C335 1.446 1_554 S
C337 C338 1.332 . S
C338 H318 0.931 . S
C338 C337 1.332 . S
C338 C339 1.267 . S
C339 H307 0.929 . S
C339 C338 1.267 . S
C339 C340 1.251 . S
C340 H310 0.929 . S
C340 N336 1.418 . S
C340 C339 1.251 . S
C341 H308 0.930 . S
C341 C343 1.406 . S
C341 C346 1.261 . S
C342 H309 0.930 . S
C342 N344 1.325 . S
C342 C345 1.357 . S
C343 H311 0.928 1_554 S
C343 C341 1.406 . S
C343 N344 1.261 . S
N344 Co295 2.214 . S
N344 C342 1.325 . S
N344 C343 1.261 . S
C345 H315 0.931 . S
C345 C342 1.357 . S
C345 C346 1.312 . S
C346 H317 0.930 . S
C346 C341 1.261 . S
C346 C345 1.312 . S
C347 O319 1.216 . S
C347 O327 1.232 1_556 S
C348 H320 0.929 . S
C348 C351 1.391 . S
C348 C353 1.391 . S
C349 H321 0.929 . S
C349 C350 1.390 . S
C349 N352 1.391 . S
C350 H322 0.930 . S
C350 C349 1.390 . S
C350 C351 1.392 . S
C351 H323 0.929 . S
C351 C348 1.391 . S
C351 C350 1.392 . S
N352 Co296 2.257 1_556 S
N352 C349 1.391 . S
N352 C353 1.388 . S
C353 H324 0.930 . S
C353 C348 1.391 . S
C353 N352 1.388 . S
Co354 O356 2.143 . S
Co354 O362 2.074 . S
Co354 O365 2.093 . S
Co354 O378 2.097 . S
Co354 N395 2.151 . S
Co354 N403 2.214 . S
Co355 O356 2.160 . S
Co355 O361 2.058 . S
Co355 O371 2.057 . S
Co355 O386 2.037 . S
Co355 N390 2.145 1_565 S
Co355 N411 2.257 . S
O356 Co354 2.143 . S
O356 Co355 2.160 . S
C357 O358 1.278 . S
C357 O365 1.224 . S
O358 C357 1.278 . S
C359 O360 1.245 . S
C359 O371 1.232 . S
O360 C359 1.245 . S
O361 Co355 2.058 . S
O361 C387 1.269 . S
O362 Co354 2.074 . S
O362 C387 1.257 . S
H363 C388 0.930 . S
H364 C394 0.930 . S
O365 Co354 2.093 . S
O365 C357 1.224 . S
H366 C398 0.929 . S
H367 C400 0.930 . S
H368 C401 0.930 . S
H369 C399 0.929 . S
H370 C402 0.928 . S
O371 Co355 2.057 . S
O371 C359 1.232 . S
H372 C391 0.929 1_565 S
H373 C392 0.929 . S
H374 C404 0.931 . S
H375 C396 0.929 . S
H376 C405 0.930 . S
H377 C397 0.931 . S
O378 Co354 2.097 . S
O378 C406 1.214 . S
H379 C407 0.929 . S
H380 C408 0.929 . S
H381 C409 0.920 1_545 S
H382 C410 0.929 1_545 S
H383 C412 0.930 . S
H384 C389 0.930 . S
H385 C393 0.930 . S
O386 Co355 2.037 . S
O386 C406 1.234 . S
C387 O361 1.269 . S
C387 O362 1.257 . S
C388 H363 0.930 . S
C388 C391 1.388 . S
C388 C393 1.418 . S
C389 H384 0.930 . S
C389 C392 1.404 . S
C389 C393 1.353 . S
N390 Co355 2.145 1_545 S
N390 C391 1.397 . S
N390 C392 1.334 . S
C391 H372 0.929 1_545 S
C391 C388 1.388 . S
C391 N390 1.397 . S
C392 H373 0.929 . S
C392 C389 1.404 . S
C392 N390 1.334 . S
C393 H385 0.930 . S
C393 C388 1.418 . S
C393 C389 1.353 . S
C394 H364 0.930 . S
C394 N395 1.330 . S
C394 C396 1.446 . S
N395 Co354 2.151 . S
N395 C394 1.330 . S
N395 C399 1.418 . S
C396 H375 0.929 . S
C396 C394 1.446 . S
C396 C397 1.332 . S
C397 H377 0.931 . S
C397 C396 1.332 . S
C397 C398 1.267 . S
C398 H366 0.929 . S
C398 C397 1.267 . S
C398 C399 1.251 . S
C399 H369 0.929 . S
C399 N395 1.418 . S
C399 C398 1.251 . S
C400 H367 0.930 . S
C400 C402 1.406 . S
C400 C405 1.261 . S
C401 H368 0.930 . S
C401 N403 1.325 . S
C401 C404 1.357 . S
C402 H370 0.928 . S
C402 C400 1.406 . S
C402 N403 1.261 . S
N403 Co354 2.214 . S
N403 C401 1.325 . S
N403 C402 1.261 . S
C404 H374 0.931 . S
C404 C401 1.357 . S
C404 C405 1.312 . S
C405 H376 0.930 . S
C405 C400 1.261 . S
C405 C404 1.312 . S
C406 O378 1.214 . S
C406 O386 1.234 . S
C407 H379 0.929 . S
C407 C410 1.391 . S
C407 C412 1.391 . S
C408 H380 0.929 . S
C408 C409 1.409 . S
C408 N411 1.391 . S
C409 H381 0.920 1_565 S
C409 C408 1.409 . S
C409 C410 1.384 . S
C410 H382 0.929 1_565 S
C410 C407 1.391 . S
C410 C409 1.384 . S
N411 Co355 2.257 . S
N411 C408 1.391 . S
N411 C412 1.388 . S
C412 H383 0.930 . S
C412 C407 1.391 . S
C412 N411 1.388 . S
Co413 O415 2.143 . S
Co413 O421 2.074 . S
Co413 O424 2.093 . S
Co413 O437 2.097 . S
Co413 N454 2.151 . S
Co413 N462 2.214 . S
Co414 O415 2.160 . S
Co414 O420 2.058 . S
Co414 O430 2.057 . S
Co414 O445 2.037 . S
Co414 N449 2.145 . S
Co414 N470 2.257 . S
O415 Co413 2.143 . S
O415 Co414 2.160 . S
C416 O417 1.278 . S
C416 O424 1.224 . S
O417 C416 1.278 . S
C418 O419 1.245 . S
C418 O430 1.232 . S
O419 C418 1.245 . S
O420 Co414 2.058 . S
O420 C446 1.269 . S
O421 Co413 2.074 . S
O421 C446 1.257 . S
H422 C447 0.930 . S
H423 C453 0.930 . S
O424 Co413 2.093 . S
O424 C416 1.224 . S
H425 C457 0.929 . S
H426 C459 0.930 . S
H427 C460 0.930 . S
H428 C458 0.929 . S
H429 C461 0.928 . S
O430 Co414 2.057 . S
O430 C418 1.232 . S
H431 C450 0.929 . S
H432 C451 0.929 . S
H433 C463 0.931 . S
H434 C455 0.929 . S
H435 C464 0.930 . S
H436 C456 0.931 . S
O437 Co413 2.097 . S
O437 C465 1.214 . S
H438 C466 0.929 . S
H439 C467 0.929 . S
H440 C468 0.930 . S
H441 C469 0.929 . S
H442 C471 0.930 . S
H443 C448 0.930 . S
H444 C452 0.930 . S
O445 Co414 2.037 . S
O445 C465 1.234 . S
C446 O420 1.269 . S
C446 O421 1.257 . S
C447 H422 0.930 . S
C447 C450 1.388 . S
C447 C452 1.418 . S
C448 H443 0.930 . S
C448 C451 1.404 . S
C448 C452 1.353 . S
N449 Co414 2.145 . S
N449 C450 1.397 . S
N449 C451 1.334 . S
C450 H431 0.929 . S
C450 C447 1.388 . S
C450 N449 1.397 . S
C451 H432 0.929 . S
C451 C448 1.404 . S
C451 N449 1.334 . S
C452 H444 0.930 . S
C452 C447 1.418 . S
C452 C448 1.353 . S
C453 H423 0.930 . S
C453 N454 1.330 . S
C453 C455 1.446 . S
N454 Co413 2.151 . S
N454 C453 1.330 . S
N454 C458 1.418 . S
C455 H434 0.929 . S
C455 C453 1.446 . S
C455 C456 1.332 . S
C456 H436 0.931 . S
C456 C455 1.332 . S
C456 C457 1.267 . S
C457 H425 0.929 . S
C457 C456 1.267 . S
C457 C458 1.251 . S
C458 H428 0.929 . S
C458 N454 1.418 . S
C458 C457 1.251 . S
C459 H426 0.930 . S
C459 C461 1.406 . S
C459 C464 1.261 . S
C460 H427 0.930 . S
C460 N462 1.325 . S
C460 C463 1.357 . S
C461 H429 0.928 . S
C461 C459 1.406 . S
C461 N462 1.261 . S
N462 Co413 2.214 . S
N462 C460 1.325 . S
N462 C461 1.261 . S
C463 H433 0.931 . S
C463 C460 1.357 . S
C463 C464 1.312 . S
C464 H435 0.930 . S
C464 C459 1.261 . S
C464 C463 1.312 . S
C465 O437 1.214 . S
C465 O445 1.234 . S
C466 H438 0.929 . S
C466 C469 1.391 . S
C466 C471 1.391 . S
C467 H439 0.929 . S
C467 C468 1.390 . S
C467 N470 1.391 . S
C468 H440 0.930 . S
C468 C467 1.390 . S
C468 C469 1.392 . S
C469 H441 0.929 . S
C469 C466 1.391 . S
C469 C468 1.392 . S
N470 Co414 2.257 . S
N470 C467 1.391 . S
N470 C471 1.388 . S
C471 H442 0.930 . S
C471 C466 1.391 . S
C471 N470 1.388 . S
Co472 O474 2.143 1_556 S
Co472 O480 2.074 . S
Co472 O483 2.093 1_556 S
Co472 O496 2.097 1_556 S
Co472 N513 2.151 . S
Co472 N521 2.214 . S
Co473 O474 2.160 1_556 S
Co473 O479 2.058 . S
Co473 O489 2.057 . S
Co473 O504 2.037 . S
Co473 N508 2.145 . S
Co473 N529 2.257 1_556 S
O474 Co472 2.143 1_554 S
O474 Co473 2.160 1_554 S
C475 O476 1.278 . S
C475 O483 1.224 . S
O476 C475 1.278 . S
C477 O478 1.245 . S
C477 O489 1.232 1_554 S
O478 C477 1.245 . S
O479 Co473 2.058 . S
O479 C505 1.269 . S
O480 Co472 2.074 . S
O480 C505 1.257 . S
H481 C506 0.930 . S
H482 C512 0.930 . S
O483 Co472 2.093 1_554 S
O483 C475 1.224 . S
H484 C516 0.929 . S
H485 C518 0.930 . S
H486 C519 0.930 . S
H487 C517 0.929 . S
H488 C520 0.928 1_554 S
O489 Co473 2.057 . S
O489 C477 1.232 1_556 S
H490 C509 0.929 . S
H491 C510 0.929 . S
H492 C522 0.931 . S
H493 C514 0.929 1_554 S
H494 C523 0.930 . S
H495 C515 0.931 . S
O496 Co472 2.097 1_554 S
O496 C524 1.216 . S
H497 C525 0.929 . S
H498 C526 0.929 . S
H499 C527 0.930 . S
H500 C528 0.929 . S
H501 C530 0.930 . S
H502 C507 0.930 . S
H503 C511 0.930 . S
O504 Co473 2.037 . S
O504 C524 1.232 1_556 S
C505 O479 1.269 . S
C505 O480 1.257 . S
C506 H481 0.930 . S
C506 C509 1.388 . S
C506 C511 1.418 . S
C507 H502 0.930 . S
C507 C510 1.404 . S
C507 C511 1.353 . S
N508 Co473 2.145 . S
N508 C509 1.397 . S
N508 C510 1.334 . S
C509 H490 0.929 . S
C509 C506 1.388 . S
C509 N508 1.397 . S
C510 H491 0.929 . S
C510 C507 1.404 . S
C510 N508 1.334 . S
C511 H503 0.930 . S
C511 C506 1.418 . S
C511 C507 1.353 . S
C512 H482 0.930 . S
C512 N513 1.330 1_554 S
C512 C514 1.446 1_454 S
N513 Co472 2.151 . S
N513 C512 1.330 1_556 S
N513 C517 1.418 1_455 S
C514 H493 0.929 1_556 S
C514 C512 1.446 1_656 S
C514 C515 1.332 . S
C515 H495 0.931 . S
C515 C514 1.332 . S
C515 C516 1.267 . S
C516 H484 0.929 . S
C516 C515 1.267 . S
C516 C517 1.251 . S
C517 H487 0.929 . S
C517 N513 1.418 1_655 S
C517 C516 1.251 . S
C518 H485 0.930 . S
C518 C520 1.406 . S
C518 C523 1.261 . S
C519 H486 0.930 . S
C519 N521 1.325 . S
C519 C522 1.357 1_455 S
C520 H488 0.928 1_556 S
C520 C518 1.406 . S
C520 N521 1.261 1_655 S
N521 Co472 2.214 . S
N521 C519 1.325 . S
N521 C520 1.261 1_455 S
C522 H492 0.931 . S
C522 C519 1.357 1_655 S
C522 C523 1.312 . S
C523 H494 0.930 . S
C523 C518 1.261 . S
C523 C522 1.312 . S
C524 O496 1.216 . S
C524 O504 1.232 1_554 S
C525 H497 0.929 . S
C525 C528 1.391 . S
C525 C530 1.391 . S
C526 H498 0.929 . S
C526 C527 1.390 . S
C526 N529 1.391 . S
C527 H499 0.930 . S
C527 C526 1.390 . S
C527 C528 1.392 . S
C528 H500 0.929 . S
C528 C525 1.391 . S
C528 C527 1.392 . S
N529 Co473 2.257 1_554 S
N529 C526 1.391 . S
N529 C530 1.388 . S
C530 H501 0.930 . S
C530 C525 1.391 . S
C530 N529 1.388 . S
Co531 O533 2.143 . S
Co531 O539 2.074 . S
Co531 O542 2.093 . S
Co531 O555 2.097 . S
Co531 N572 2.151 . S
Co531 N580 2.214 . S
Co532 O533 2.160 . S
Co532 O538 2.058 . S
Co532 O548 2.057 . S
Co532 O563 2.037 . S
Co532 N567 2.145 1_545 S
Co532 N588 2.257 . S
O533 Co531 2.143 . S
O533 Co532 2.160 . S
C534 O535 1.278 . S
C534 O542 1.224 . S
O535 C534 1.278 . S
C536 O537 1.245 . S
C536 O548 1.232 . S
O537 C536 1.245 . S
O538 Co532 2.058 . S
O538 C564 1.269 . S
O539 Co531 2.074 . S
O539 C564 1.257 . S
H540 C565 0.930 . S
H541 C571 0.930 . S
O542 Co531 2.093 . S
O542 C534 1.224 . S
H543 C575 0.929 . S
H544 C577 0.930 . S
H545 C578 0.930 . S
H546 C576 0.929 . S
H547 C579 0.928 . S
O548 Co532 2.057 . S
O548 C536 1.232 . S
H549 C568 0.929 1_545 S
H550 C569 0.929 . S
H551 C581 0.931 . S
H552 C573 0.929 . S
H553 C582 0.930 . S
H554 C574 0.931 . S
O555 Co531 2.097 . S
O555 C583 1.214 . S
H556 C584 0.929 . S
H557 C585 0.929 . S
H558 C586 0.920 1_565 S
H559 C587 0.929 1_565 S
H560 C589 0.930 . S
H561 C566 0.930 . S
H562 C570 0.930 . S
O563 Co532 2.037 . S
O563 C583 1.234 . S
C564 O538 1.269 . S
C564 O539 1.257 . S
C565 H540 0.930 . S
C565 C568 1.388 . S
C565 C570 1.418 . S
C566 H561 0.930 . S
C566 C569 1.404 . S
C566 C570 1.353 . S
N567 Co532 2.145 1_565 S
N567 C568 1.397 . S
N567 C569 1.334 . S
C568 H549 0.929 1_565 S
C568 C565 1.388 . S
C568 N567 1.397 . S
C569 H550 0.929 . S
C569 C566 1.404 . S
C569 N567 1.334 . S
C570 H562 0.930 . S
C570 C565 1.418 . S
C570 C566 1.353 . S
C571 H541 0.930 . S
C571 N572 1.330 . S
C571 C573 1.446 . S
N572 Co531 2.151 . S
N572 C571 1.330 . S
N572 C576 1.418 . S
C573 H552 0.929 . S
C573 C571 1.446 . S
C573 C574 1.332 . S
C574 H554 0.931 . S
C574 C573 1.332 . S
C574 C575 1.267 . S
C575 H543 0.929 . S
C575 C574 1.267 . S
C575 C576 1.251 . S
C576 H546 0.929 . S
C576 N572 1.418 . S
C576 C575 1.251 . S
C577 H544 0.930 . S
C577 C579 1.406 . S
C577 C582 1.261 . S
C578 H545 0.930 . S
C578 N580 1.325 . S
C578 C581 1.357 . S
C579 H547 0.928 . S
C579 C577 1.406 . S
C579 N580 1.261 . S
N580 Co531 2.214 . S
N580 C578 1.325 . S
N580 C579 1.261 . S
C581 H551 0.931 . S
C581 C578 1.357 . S
C581 C582 1.312 . S
C582 H553 0.930 . S
C582 C577 1.261 . S
C582 C581 1.312 . S
C583 O555 1.214 . S
C583 O563 1.234 . S
C584 H556 0.929 . S
C584 C587 1.391 . S
C584 C589 1.391 . S
C585 H557 0.929 . S
C585 C586 1.409 . S
C585 N588 1.391 . S
C586 H558 0.920 1_545 S
C586 C585 1.409 . S
C586 C587 1.384 . S
C587 H559 0.929 1_545 S
C587 C584 1.391 . S
C587 C586 1.384 . S
N588 Co532 2.257 . S
N588 C585 1.391 . S
N588 C589 1.388 . S
C589 H560 0.930 . S
C589 C584 1.391 . S
C589 N588 1.388 . S
Co590 O592 2.143 . S
Co590 O598 2.074 . S
Co590 O601 2.093 . S
Co590 O614 2.097 . S
Co590 N631 2.151 . S
Co590 N639 2.214 . S
Co591 O592 2.160 . S
Co591 O597 2.058 . S
Co591 O607 2.057 . S
Co591 O622 2.037 . S
Co591 N626 2.145 . S
Co591 N647 2.257 . S
O592 Co590 2.143 . S
O592 Co591 2.160 . S
C593 O594 1.278 . S
C593 O601 1.224 . S
O594 C593 1.278 . S
C595 O596 1.245 . S
C595 O607 1.232 . S
O596 C595 1.245 . S
O597 Co591 2.058 . S
O597 C623 1.269 . S
O598 Co590 2.074 . S
O598 C623 1.257 . S
H599 C624 0.930 . S
H600 C630 0.930 . S
O601 Co590 2.093 . S
O601 C593 1.224 . S
H602 C634 0.929 . S
H603 C636 0.930 . S
H604 C637 0.930 . S
H605 C635 0.929 . S
H606 C638 0.928 . S
O607 Co591 2.057 . S
O607 C595 1.232 . S
H608 C627 0.929 . S
H609 C628 0.929 . S
H610 C640 0.931 . S
H611 C632 0.929 . S
H612 C641 0.930 . S
H613 C633 0.931 . S
O614 Co590 2.097 . S
O614 C642 1.214 . S
H615 C643 0.929 . S
H616 C644 0.929 . S
H617 C645 0.930 . S
H618 C646 0.929 . S
H619 C648 0.930 . S
H620 C625 0.930 . S
H621 C629 0.930 . S
O622 Co591 2.037 . S
O622 C642 1.234 . S
C623 O597 1.269 . S
C623 O598 1.257 . S
C624 H599 0.930 . S
C624 C627 1.388 . S
C624 C629 1.418 . S
C625 H620 0.930 . S
C625 C628 1.404 . S
C625 C629 1.353 . S
N626 Co591 2.145 . S
N626 C627 1.397 . S
N626 C628 1.334 . S
C627 H608 0.929 . S
C627 C624 1.388 . S
C627 N626 1.397 . S
C628 H609 0.929 . S
C628 C625 1.404 . S
C628 N626 1.334 . S
C629 H621 0.930 . S
C629 C624 1.418 . S
C629 C625 1.353 . S
C630 H600 0.930 . S
C630 N631 1.330 . S
C630 C632 1.446 . S
N631 Co590 2.151 . S
N631 C630 1.330 . S
N631 C635 1.418 . S
C632 H611 0.929 . S
C632 C630 1.446 . S
C632 C633 1.332 . S
C633 H613 0.931 . S
C633 C632 1.332 . S
C633 C634 1.267 . S
C634 H602 0.929 . S
C634 C633 1.267 . S
C634 C635 1.251 . S
C635 H605 0.929 . S
C635 N631 1.418 . S
C635 C634 1.251 . S
C636 H603 0.930 . S
C636 C638 1.406 . S
C636 C641 1.261 . S
C637 H604 0.930 . S
C637 N639 1.325 . S
C637 C640 1.357 . S
C638 H606 0.928 . S
C638 C636 1.406 . S
C638 N639 1.261 . S
N639 Co590 2.214 . S
N639 C637 1.325 . S
N639 C638 1.261 . S
C640 H610 0.931 . S
C640 C637 1.357 . S
C640 C641 1.312 . S
C641 H612 0.930 . S
C641 C636 1.261 . S
C641 C640 1.312 . S
C642 O614 1.214 . S
C642 O622 1.234 . S
C643 H615 0.929 . S
C643 C646 1.391 . S
C643 C648 1.391 . S
C644 H616 0.929 . S
C644 C645 1.390 . S
C644 N647 1.391 . S
C645 H617 0.930 . S
C645 C644 1.390 . S
C645 C646 1.392 . S
C646 H618 0.929 . S
C646 C643 1.391 . S
C646 C645 1.392 . S
N647 Co591 2.257 . S
N647 C644 1.391 . S
N647 C648 1.388 . S
C648 H619 0.930 . S
C648 C643 1.391 . S
C648 N647 1.388 . S
Co649 O651 2.143 1_556 S
Co649 O657 2.074 . S
Co649 O660 2.093 1_556 S
Co649 O673 2.097 1_556 S
Co649 N690 2.151 . S
Co649 N698 2.214 . S
Co650 O651 2.160 1_556 S
Co650 O656 2.058 . S
Co650 O666 2.057 . S
Co650 O681 2.037 . S
Co650 N685 2.145 . S
Co650 N706 2.257 1_556 S
O651 Co649 2.143 1_554 S
O651 Co650 2.160 1_554 S
C652 O653 1.278 . S
C652 O660 1.224 . S
O653 C652 1.278 . S
C654 O655 1.245 . S
C654 O666 1.232 1_554 S
O655 C654 1.245 . S
O656 Co650 2.058 . S
O656 C682 1.269 . S
O657 Co649 2.074 . S
O657 C682 1.257 . S
H658 C683 0.930 . S
H659 C689 0.930 . S
O660 Co649 2.093 1_554 S
O660 C652 1.224 . S
H661 C693 0.929 . S
H662 C695 0.930 . S
H663 C696 0.930 . S
H664 C694 0.929 . S
H665 C697 0.928 1_554 S
O666 Co650 2.057 . S
O666 C654 1.232 1_556 S
H667 C686 0.929 . S
H668 C687 0.929 . S
H669 C699 0.931 . S
H670 C691 0.929 1_554 S
H671 C700 0.930 . S
H672 C692 0.931 . S
O673 Co649 2.097 1_554 S
O673 C701 1.216 . S
H674 C702 0.929 . S
H675 C703 0.929 . S
H676 C704 0.930 . S
H677 C705 0.929 . S
H678 C707 0.930 . S
H679 C684 0.930 . S
H680 C688 0.930 . S
O681 Co650 2.037 . S
O681 C701 1.232 1_556 S
C682 O656 1.269 . S
C682 O657 1.257 . S
C683 H658 0.930 . S
C683 C686 1.388 . S
C683 C688 1.418 . S
C684 H679 0.930 . S
C684 C687 1.404 . S
C684 C688 1.353 . S
N685 Co650 2.145 . S
N685 C686 1.397 . S
N685 C687 1.334 . S
C686 H667 0.929 . S
C686 C683 1.388 . S
C686 N685 1.397 . S
C687 H668 0.929 . S
C687 C684 1.404 . S
C687 N685 1.334 . S
C688 H680 0.930 . S
C688 C683 1.418 . S
C688 C684 1.353 . S
C689 H659 0.930 . S
C689 N690 1.330 1_554 S
C689 C691 1.446 1_654 S
N690 Co649 2.151 . S
N690 C689 1.330 1_556 S
N690 C694 1.418 1_655 S
C691 H670 0.929 1_556 S
C691 C689 1.446 1_456 S
C691 C692 1.332 . S
C692 H672 0.931 . S
C692 C691 1.332 . S
C692 C693 1.267 . S
C693 H661 0.929 . S
C693 C692 1.267 . S
C693 C694 1.251 . S
C694 H664 0.929 . S
C694 N690 1.418 1_455 S
C694 C693 1.251 . S
C695 H662 0.930 . S
C695 C697 1.406 . S
C695 C700 1.261 . S
C696 H663 0.930 . S
C696 N698 1.325 . S
C696 C699 1.357 1_655 S
C697 H665 0.928 1_556 S
C697 C695 1.406 . S
C697 N698 1.261 1_455 S
N698 Co649 2.214 . S
N698 C696 1.325 . S
N698 C697 1.261 1_655 S
C699 H669 0.931 . S
C699 C696 1.357 1_455 S
C699 C700 1.312 . S
C700 H671 0.930 . S
C700 C695 1.261 . S
C700 C699 1.312 . S
C701 O673 1.216 . S
C701 O681 1.232 1_554 S
C702 H674 0.929 . S
C702 C705 1.391 . S
C702 C707 1.391 . S
C703 H675 0.929 . S
C703 C704 1.390 . S
C703 N706 1.391 . S
C704 H676 0.930 . S
C704 C703 1.390 . S
C704 C705 1.392 . S
C705 H677 0.929 . S
C705 C702 1.391 . S
C705 C704 1.392 . S
N706 Co650 2.257 1_554 S
N706 C703 1.391 . S
N706 C707 1.388 . S
C707 H678 0.930 . S
C707 C702 1.391 . S
C707 N706 1.388 . S
H708 C716 0.950 . S
H709 C721 0.950 . S
H710 C718 0.950 . S
H711 C720 0.950 . S
H712 C722 0.950 . S
H713 C724 0.950 . S
H714 C726 0.950 . S
H715 C727 0.950 . S
C716 H708 0.950 . S
C716 C717 1.386 . S
C716 C718 1.391 . S
C717 C716 1.386 . S
C717 C721 1.393 . S
C718 H710 0.950 . S
C718 C716 1.391 . S
C718 C719 1.400 . S
C719 C718 1.400 . S
C719 C720 1.398 . S
C719 C725 1.491 . S
C720 H711 0.950 . S
C720 C719 1.398 . S
C720 C721 1.391 . S
C721 H709 0.950 . S
C721 C717 1.393 . S
C721 C720 1.391 . S
C722 H712 0.950 . S
C722 C723 1.386 . S
C722 C724 1.391 . S
C723 C722 1.386 . S
C723 C727 1.393 . S
C724 H713 0.950 . S
C724 C722 1.391 . S
C724 C725 1.400 . S
C725 C719 1.491 . S
C725 C724 1.400 . S
C725 C726 1.398 . S
C726 H714 0.950 . S
C726 C725 1.398 . S
C726 C727 1.391 . S
C727 H715 0.950 . S
C727 C723 1.393 . S
C727 C726 1.391 . S
H728 C736 0.950 . S
H729 C741 0.950 . S
H730 C738 0.950 . S
H731 C740 0.950 . S
H732 C742 0.950 . S
H733 C744 0.950 . S
H734 C746 0.950 . S
H735 C747 0.950 . S
C736 H728 0.950 . S
C736 C737 1.386 . S
C736 C738 1.391 . S
C737 C736 1.386 . S
C737 C741 1.393 . S
C738 H730 0.950 . S
C738 C736 1.391 . S
C738 C739 1.400 . S
C739 C738 1.400 . S
C739 C740 1.398 . S
C739 C745 1.491 . S
C740 H731 0.950 . S
C740 C739 1.398 . S
C740 C741 1.391 . S
C741 H729 0.950 . S
C741 C737 1.393 . S
C741 C740 1.391 . S
C742 H732 0.950 . S
C742 C743 1.386 . S
C742 C744 1.391 . S
C743 C742 1.386 . S
C743 C747 1.393 . S
C744 H733 0.950 . S
C744 C742 1.391 . S
C744 C745 1.400 . S
C745 C739 1.491 . S
C745 C744 1.400 . S
C745 C746 1.398 . S
C746 H734 0.950 . S
C746 C745 1.398 . S
C746 C747 1.391 . S
C747 H735 0.950 . S
C747 C743 1.393 . S
C747 C746 1.391 . S
H748 C756 0.950 . S
H749 C761 0.950 . S
H750 C758 0.950 . S
H751 C760 0.950 . S
H752 C762 0.950 . S
H753 C764 0.950 . S
H754 C766 0.950 . S
H755 C767 0.950 . S
C756 H748 0.950 . S
C756 C757 1.386 . S
C756 C758 1.391 . S
C757 C756 1.386 . S
C757 C761 1.393 1_556 S
C758 H750 0.950 . S
C758 C756 1.391 . S
C758 C759 1.410 . S
C759 C758 1.410 . S
C759 C760 1.389 1_556 S
C759 C765 1.490 1_556 S
C760 H751 0.950 . S
C760 C759 1.389 1_554 S
C760 C761 1.391 . S
C761 H749 0.950 . S
C761 C757 1.393 1_554 S
C761 C760 1.391 . S
C762 H752 0.950 . S
C762 C763 1.386 . S
C762 C764 1.391 . S
C763 C762 1.386 . S
C763 C767 1.393 1_554 S
C764 H753 0.950 . S
C764 C762 1.391 . S
C764 C765 1.403 . S
C765 C759 1.490 1_554 S
C765 C764 1.403 . S
C765 C766 1.396 1_554 S
C766 H754 0.950 . S
C766 C765 1.396 1_556 S
C766 C767 1.391 . S
C767 H755 0.950 . S
C767 C763 1.393 1_556 S
C767 C766 1.391 . S
H768 C776 0.950 . S
H769 C781 0.950 . S
H770 C778 0.950 . S
H771 C780 0.950 . S
H772 C782 0.950 . S
H773 C784 0.950 . S
H774 C786 0.950 . S
H775 C787 0.950 . S
C776 H768 0.950 . S
C776 C777 1.386 . S
C776 C778 1.391 . S
C777 C776 1.386 . S
C777 C781 1.393 . S
C778 H770 0.950 . S
C778 C776 1.391 . S
C778 C779 1.400 . S
C779 C778 1.400 . S
C779 C780 1.398 . S
C779 C785 1.491 . S
C780 H771 0.950 . S
C780 C779 1.398 . S
C780 C781 1.391 . S
C781 H769 0.950 . S
C781 C777 1.393 . S
C781 C780 1.391 . S
C782 H772 0.950 . S
C782 C783 1.386 . S
C782 C784 1.391 . S
C783 C782 1.386 . S
C783 C787 1.393 . S
C784 H773 0.950 . S
C784 C782 1.391 . S
C784 C785 1.400 . S
C785 C779 1.491 . S
C785 C784 1.400 . S
C785 C786 1.398 . S
C786 H774 0.950 . S
C786 C785 1.398 . S
C786 C787 1.391 . S
C787 H775 0.950 . S
C787 C783 1.393 . S
C787 C786 1.391 . S
H788 C796 0.950 . S
H789 C801 0.950 . S
H790 C798 0.950 . S
H791 C800 0.950 . S
H792 C802 0.950 . S
H793 C804 0.950 . S
H794 C806 0.950 . S
H795 C807 0.950 . S
C796 H788 0.950 . S
C796 C797 1.386 . S
C796 C798 1.391 . S
C797 C796 1.386 . S
C797 C801 1.393 . S
C798 H790 0.950 . S
C798 C796 1.391 . S
C798 C799 1.400 . S
C799 C798 1.400 . S
C799 C800 1.398 . S
C799 C805 1.491 . S
C800 H791 0.950 . S
C800 C799 1.398 . S
C800 C801 1.391 . S
C801 H789 0.950 . S
C801 C797 1.393 . S
C801 C800 1.391 . S
C802 H792 0.950 . S
C802 C803 1.386 . S
C802 C804 1.391 . S
C803 C802 1.386 . S
C803 C807 1.393 . S
C804 H793 0.950 . S
C804 C802 1.391 . S
C804 C805 1.400 . S
C805 C799 1.491 . S
C805 C804 1.400 . S
C805 C806 1.398 . S
C806 H794 0.950 . S
C806 C805 1.398 . S
C806 C807 1.391 . S
C807 H795 0.950 . S
C807 C803 1.393 . S
C807 C806 1.391 . S
H808 C816 0.950 . S
H809 C821 0.950 . S
H810 C818 0.950 . S
H811 C820 0.950 . S
H812 C822 0.950 . S
H813 C824 0.950 . S
H814 C826 0.950 . S
H815 C827 0.950 . S
C816 H808 0.950 . S
C816 C817 1.386 1_556 S
C816 C818 1.391 . S
C817 C816 1.386 1_554 S
C817 C821 1.393 . S
C818 H810 0.950 . S
C818 C816 1.391 . S
C818 C819 1.399 1_556 S
C819 C818 1.399 1_554 S
C819 C820 1.400 . S
C819 C825 1.491 1_554 S
C820 H811 0.950 . S
C820 C819 1.400 . S
C820 C821 1.391 . S
C821 H809 0.950 . S
C821 C817 1.393 . S
C821 C820 1.391 . S
C822 H812 0.950 . S
C822 C823 1.386 1_554 S
C822 C824 1.391 . S
C823 C822 1.386 1_556 S
C823 C827 1.393 . S
C824 H813 0.950 . S
C824 C822 1.391 . S
C824 C825 1.401 1_554 S
C825 C819 1.491 1_556 S
C825 C824 1.401 1_556 S
C825 C826 1.397 . S
C826 H814 0.950 . S
C826 C825 1.397 . S
C826 C827 1.391 . S
C827 H815 0.950 . S
C827 C823 1.393 . S
C827 C826 1.391 . S
H828 C836 0.950 . S
H829 C841 0.950 . S
H830 C838 0.950 . S
H831 C840 0.950 . S
H832 C842 0.950 . S
H833 C844 0.950 . S
H834 C846 0.950 . S
H835 C847 0.950 . S
C836 H828 0.950 . S
C836 C837 1.386 . S
C836 C838 1.391 . S
C837 C836 1.386 . S
C837 C841 1.393 . S
C838 H830 0.950 . S
C838 C836 1.391 . S
C838 C839 1.400 . S
C839 C838 1.400 . S
C839 C840 1.398 . S
C839 C845 1.491 . S
C840 H831 0.950 . S
C840 C839 1.398 . S
C840 C841 1.391 . S
C841 H829 0.950 . S
C841 C837 1.393 . S
C841 C840 1.391 . S
C842 H832 0.950 . S
C842 C843 1.386 . S
C842 C844 1.391 . S
C843 C842 1.386 . S
C843 C847 1.393 . S
C844 H833 0.950 . S
C844 C842 1.391 . S
C844 C845 1.400 . S
C845 C839 1.491 . S
C845 C844 1.400 . S
C845 C846 1.398 . S
C846 H834 0.950 . S
C846 C845 1.398 . S
C846 C847 1.391 . S
C847 H835 0.950 . S
C847 C843 1.393 . S
C847 C846 1.391 . S
H848 C856 0.950 . S
H849 C861 0.950 . S
H850 C858 0.950 . S
H851 C860 0.950 . S
H852 C862 0.950 . S
H853 C864 0.950 . S
H854 C866 0.950 . S
H855 C867 0.950 . S
C856 H848 0.950 . S
C856 C857 1.386 . S
C856 C858 1.391 . S
C857 C856 1.386 . S
C857 C861 1.393 . S
C858 H850 0.950 . S
C858 C856 1.391 . S
C858 C859 1.400 . S
C859 C858 1.400 . S
C859 C860 1.398 . S
C859 C865 1.491 1_655 S
C860 H851 0.950 . S
C860 C859 1.398 . S
C860 C861 1.391 . S
C861 H849 0.950 . S
C861 C857 1.393 . S
C861 C860 1.391 . S
C862 H852 0.950 . S
C862 C863 1.386 . S
C862 C864 1.391 . S
C863 C862 1.386 . S
C863 C867 1.393 . S
C864 H853 0.950 . S
C864 C862 1.391 . S
C864 C865 1.400 . S
C865 C859 1.491 1_455 S
C865 C864 1.400 . S
C865 C866 1.398 . S
C866 H854 0.950 . S
C866 C865 1.398 . S
C866 C867 1.391 . S
C867 H855 0.950 . S
C867 C863 1.393 . S
C867 C866 1.391 . S
H868 C876 0.950 . S
H869 C881 0.950 . S
H870 C878 0.950 . S
H871 C880 0.950 . S
H872 C882 0.950 . S
H873 C884 0.950 . S
H874 C886 0.950 . S
H875 C887 0.950 . S
C876 H868 0.950 . S
C876 C877 1.412 . S
C876 C878 1.391 . S
C877 C876 1.412 . S
C877 C881 1.367 1_556 S
C878 H870 0.950 . S
C878 C876 1.391 . S
C878 C879 1.404 . S
C879 C878 1.404 . S
C879 C880 1.395 1_556 S
C879 C885 1.490 1_546 S
C880 H871 0.950 . S
C880 C879 1.395 1_554 S
C880 C881 1.391 . S
C881 H869 0.950 . S
C881 C877 1.367 1_554 S
C881 C880 1.391 . S
C882 H872 0.950 . S
C882 C883 1.386 . S
C882 C884 1.391 . S
C883 C882 1.386 . S
C883 C887 1.393 1_554 S
C884 H873 0.950 . S
C884 C882 1.391 . S
C884 C885 1.411 . S
C885 C879 1.490 1_564 S
C885 C884 1.411 . S
C885 C886 1.388 1_554 S
C886 H874 0.950 . S
C886 C885 1.388 1_556 S
C886 C887 1.391 . S
C887 H875 0.950 . S
C887 C883 1.393 1_556 S
C887 C886 1.391 . S
H888 C896 0.950 . S
H889 C901 0.950 . S
H890 C898 0.950 . S
H891 C900 0.950 . S
H892 C902 0.950 . S
H893 C904 0.950 . S
H894 C906 0.950 . S
H895 C907 0.950 . S
C896 H888 0.950 . S
C896 C897 1.386 . S
C896 C898 1.391 . S
C897 C896 1.386 . S
C897 C901 1.393 . S
C898 H890 0.950 . S
C898 C896 1.391 . S
C898 C899 1.400 . S
C899 C898 1.400 . S
C899 C900 1.398 . S
C899 C905 1.491 . S
C900 H891 0.950 . S
C900 C899 1.398 . S
C900 C901 1.391 . S
C901 H889 0.950 . S
C901 C897 1.393 . S
C901 C900 1.391 . S
C902 H892 0.950 . S
C902 C903 1.386 . S
C902 C904 1.391 . S
C903 C902 1.386 . S
C903 C907 1.393 . S
C904 H893 0.950 . S
C904 C902 1.391 . S
C904 C905 1.400 . S
C905 C899 1.491 . S
C905 C904 1.400 . S
C905 C906 1.398 . S
C906 H894 0.950 . S
C906 C905 1.398 . S
C906 C907 1.391 . S
C907 H895 0.950 . S
C907 C903 1.393 . S
C907 C906 1.391 . S
H908 C916 0.950 . S
H909 C921 0.950 . S
H910 C918 0.950 . S
H911 C920 0.950 . S
H912 C922 0.950 . S
H913 C924 0.950 . S
H914 C926 0.950 . S
H915 C927 0.950 . S
C916 H908 0.950 . S
C916 C917 1.386 . S
C916 C918 1.391 . S
C917 C916 1.386 . S
C917 C921 1.393 . S
C918 H910 0.950 . S
C918 C916 1.391 . S
C918 C919 1.400 . S
C919 C918 1.400 . S
C919 C920 1.398 . S
C919 C925 1.491 1_455 S
C920 H911 0.950 . S
C920 C919 1.398 . S
C920 C921 1.391 . S
C921 H909 0.950 . S
C921 C917 1.393 . S
C921 C920 1.391 . S
C922 H912 0.950 . S
C922 C923 1.386 . S
C922 C924 1.391 . S
C923 C922 1.386 . S
C923 C927 1.393 . S
C924 H913 0.950 . S
C924 C922 1.391 . S
C924 C925 1.400 . S
C925 C919 1.491 1_655 S
C925 C924 1.400 . S
C925 C926 1.398 . S
C926 H914 0.950 . S
C926 C925 1.398 . S
C926 C927 1.391 . S
C927 H915 0.950 . S
C927 C923 1.393 . S
C927 C926 1.391 . S
H928 C936 0.950 . S
H929 C941 0.950 . S
H930 C938 0.950 . S
H931 C940 0.950 . S
H932 C942 0.950 . S
H933 C944 0.950 . S
H934 C946 0.950 . S
H935 C947 0.950 . S
C936 H928 0.950 . S
C936 C937 1.386 1_556 S
C936 C938 1.391 . S
C937 C936 1.386 1_554 S
C937 C941 1.393 . S
C938 H930 0.950 . S
C938 C936 1.391 . S
C938 C939 1.398 1_556 S
C939 C938 1.398 1_554 S
C939 C940 1.402 . S
C939 C945 1.489 1_544 S
C940 H931 0.950 . S
C940 C939 1.402 . S
C940 C941 1.391 . S
C941 H929 0.950 . S
C941 C937 1.393 . S
C941 C940 1.391 . S
C942 H932 0.950 . S
C942 C943 1.386 1_554 S
C942 C944 1.391 . S
C943 C942 1.386 1_556 S
C943 C947 1.393 . S
C944 H933 0.950 . S
C944 C942 1.391 . S
C944 C945 1.397 1_554 S
C945 C939 1.489 1_566 S
C945 C944 1.397 1_556 S
C945 C946 1.404 . S
C946 H934 0.950 . S
C946 C945 1.404 . S
C946 C947 1.391 . S
C947 H935 0.950 . S
C947 C943 1.393 . S
C947 C946 1.391 . S
H948 C956 0.950 . S
H949 C961 0.950 1_455 S
H950 C958 0.950 . S
H951 C960 0.950 . S
H952 C962 0.950 . S
H953 C964 0.950 . S
H954 C966 0.950 . S
H955 C967 0.965 . S
C956 H948 0.950 . S
C956 C957 1.386 . S
C956 C958 1.391 . S
C957 C956 1.386 . S
C957 C961 1.393 . S
C958 H950 0.950 . S
C958 C956 1.391 . S
C958 C959 1.400 . S
C959 C958 1.400 . S
C959 C960 1.398 1_655 S
C959 C965 1.491 1_655 S
C960 H951 0.950 . S
C960 C959 1.398 1_455 S
C960 C961 1.391 1_455 S
C961 H949 0.950 1_655 S
C961 C957 1.393 . S
C961 C960 1.391 1_655 S
C962 H952 0.950 . S
C962 C963 1.386 . S
C962 C964 1.391 . S
C963 C962 1.386 . S
C963 C967 1.373 1_455 S
C964 H953 0.950 . S
C964 C962 1.391 . S
C964 C965 1.400 . S
C965 C959 1.491 1_455 S
C965 C964 1.400 . S
C965 C966 1.398 1_455 S
C966 H954 0.950 . S
C966 C965 1.398 1_655 S
C966 C967 1.395 . S
C967 H955 0.965 . S
C967 C963 1.373 1_655 S
C967 C966 1.395 . S
H968 C976 0.950 . S
H969 C981 0.950 . S
H970 C978 0.950 . S
H971 C980 0.950 . S
H972 C982 0.950 . S
H973 C984 0.950 . S
H974 C986 0.950 . S
H975 C987 0.950 . S
C976 H968 0.950 . S
C976 C977 1.386 . S
C976 C978 1.391 . S
C977 C976 1.386 . S
C977 C981 1.393 1_545 S
C978 H970 0.950 . S
C978 C976 1.391 . S
C978 C979 1.400 . S
C979 C978 1.400 . S
C979 C980 1.398 1_545 S
C979 C985 1.491 1_545 S
C980 H971 0.950 . S
C980 C979 1.398 1_565 S
C980 C981 1.391 . S
C981 H969 0.950 . S
C981 C977 1.393 1_565 S
C981 C980 1.391 . S
C982 H972 0.950 . S
C982 C983 1.386 . S
C982 C984 1.391 . S
C983 C982 1.386 . S
C983 C987 1.393 1_565 S
C984 H973 0.950 . S
C984 C982 1.391 . S
C984 C985 1.400 . S
C985 C979 1.491 1_565 S
C985 C984 1.400 . S
C985 C986 1.398 1_565 S
C986 H974 0.950 . S
C986 C985 1.398 1_545 S
C986 C987 1.391 . S
C987 H975 0.950 . S
C987 C983 1.393 1_545 S
C987 C986 1.391 . S
H988 C996 0.950 . S
H989 C1001 0.950 . S
H990 C998 0.950 . S
H991 C1000 0.950 . S
H992 C1002 0.950 . S
H993 C1004 0.950 . S
H994 C1006 0.950 . S
H995 C1007 0.950 . S
C996 H988 0.950 . S
C996 C997 1.386 . S
C996 C998 1.391 . S
C997 C996 1.386 . S
C997 C1001 1.393 . S
C998 H990 0.950 . S
C998 C996 1.391 . S
C998 C999 1.400 . S
C999 C998 1.400 . S
C999 C1000 1.398 . S
C999 C1005 1.491 . S
C1000 H991 0.950 . S
C1000 C999 1.398 . S
C1000 C1001 1.391 . S
C1001 H989 0.950 . S
C1001 C997 1.393 . S
C1001 C1000 1.391 . S
C1002 H992 0.950 . S
C1002 C1003 1.386 . S
C1002 C1004 1.391 . S
C1003 C1002 1.386 . S
C1003 C1007 1.393 . S
C1004 H993 0.950 . S
C1004 C1002 1.391 . S
C1004 C1005 1.400 . S
C1005 C999 1.491 . S
C1005 C1004 1.400 . S
C1005 C1006 1.398 . S
C1006 H994 0.950 . S
C1006 C1005 1.398 . S
C1006 C1007 1.391 . S
C1007 H995 0.950 . S
C1007 C1003 1.393 . S
C1007 C1006 1.391 . S
H1008 C1016 0.950 . S
H1009 C1021 0.950 . S
H1010 C1018 0.950 . S
H1011 C1020 0.950 1_655 S
H1012 C1022 0.950 . S
H1013 C1024 0.950 . S
H1014 C1026 0.950 . S
H1015 C1027 0.950 . S
C1016 H1008 0.950 . S
C1016 C1017 1.386 . S
C1016 C1018 1.391 . S
C1017 C1016 1.386 . S
C1017 C1021 1.393 . S
C1018 H1010 0.950 . S
C1018 C1016 1.391 . S
C1018 C1019 1.400 . S
C1019 C1018 1.400 . S
C1019 C1020 1.398 . S
C1019 C1025 1.491 1_455 S
C1020 H1011 0.950 1_455 S
C1020 C1019 1.398 . S
C1020 C1021 1.391 . S
C1021 H1009 0.950 . S
C1021 C1017 1.393 . S
C1021 C1020 1.391 . S
C1022 H1012 0.950 . S
C1022 C1023 1.386 . S
C1022 C1024 1.391 . S
C1023 C1022 1.386 . S
C1023 C1027 1.393 . S
C1024 H1013 0.950 . S
C1024 C1022 1.391 . S
C1024 C1025 1.400 . S
C1025 C1019 1.491 1_655 S
C1025 C1024 1.400 . S
C1025 C1026 1.398 1_655 S
C1026 H1014 0.950 . S
C1026 C1025 1.398 1_455 S
C1026 C1027 1.391 1_455 S
C1027 H1015 0.950 . S
C1027 C1023 1.393 . S
C1027 C1026 1.391 1_655 S
H1028 C1036 0.950 . S
H1029 C1041 0.960 . S
H1030 C1038 0.950 . S
H1031 C1040 0.950 . S
H1032 C1042 0.950 . S
H1033 C1044 0.950 . S
H1034 C1046 0.950 . S
H1035 C1047 0.960 . S
C1036 H1028 0.950 . S
C1036 C1037 1.386 . S
C1036 C1038 1.391 . S
C1037 C1036 1.386 . S
C1037 C1041 1.380 1_545 S
C1038 H1030 0.950 . S
C1038 C1036 1.391 . S
C1038 C1039 1.400 . S
C1039 C1038 1.400 . S
C1039 C1040 1.398 1_545 S
C1039 C1045 1.491 1_545 S
C1040 H1031 0.950 . S
C1040 C1039 1.398 1_565 S
C1040 C1041 1.394 . S
C1041 H1029 0.960 . S
C1041 C1037 1.380 1_565 S
C1041 C1040 1.394 . S
C1042 H1032 0.950 . S
C1042 C1043 1.386 . S
C1042 C1044 1.391 . S
C1043 C1042 1.386 . S
C1043 C1047 1.380 1_565 S
C1044 H1033 0.950 . S
C1044 C1042 1.391 . S
C1044 C1045 1.400 . S
C1045 C1039 1.491 1_565 S
C1045 C1044 1.400 . S
C1045 C1046 1.398 1_565 S
C1046 H1034 0.950 . S
C1046 C1045 1.398 1_545 S
C1046 C1047 1.394 . S
C1047 H1035 0.960 . S
C1047 C1043 1.380 1_545 S
C1047 C1046 1.394 . S
H1048 C1056 0.950 . S
H1049 C1061 0.950 . S
H1050 C1058 0.950 . S
H1051 C1060 0.950 . S
H1052 C1062 0.950 . S
H1053 C1064 0.950 . S
H1054 C1066 0.950 . S
H1055 C1067 0.950 . S
C1056 H1048 0.950 . S
C1056 C1057 1.386 . S
C1056 C1058 1.391 . S
C1057 C1056 1.386 . S
C1057 C1061 1.393 . S
C1058 H1050 0.950 . S
C1058 C1056 1.391 . S
C1058 C1059 1.400 . S
C1059 C1058 1.400 . S
C1059 C1060 1.398 . S
C1059 C1065 1.491 . S
C1060 H1051 0.950 . S
C1060 C1059 1.398 . S
C1060 C1061 1.391 . S
C1061 H1049 0.950 . S
C1061 C1057 1.393 . S
C1061 C1060 1.391 . S
C1062 H1052 0.950 . S
C1062 C1063 1.386 . S
C1062 C1064 1.391 . S
C1063 C1062 1.386 . S
C1063 C1067 1.393 . S
C1064 H1053 0.950 . S
C1064 C1062 1.391 . S
C1064 C1065 1.400 . S
C1065 C1059 1.491 . S
C1065 C1064 1.400 . S
C1065 C1066 1.398 . S
C1066 H1054 0.950 . S
C1066 C1065 1.398 . S
C1066 C1067 1.391 . S
C1067 H1055 0.950 . S
C1067 C1063 1.393 . S
C1067 C1066 1.391 . S
H1068 C1076 0.950 . S
H1069 C1081 0.950 . S
H1070 C1078 0.950 . S
H1071 C1080 0.950 . S
H1072 C1082 0.950 . S
H1073 C1084 0.950 . S
H1074 C1086 0.950 . S
H1075 C1087 0.950 . S
C1076 H1068 0.950 . S
C1076 C1077 1.386 . S
C1076 C1078 1.391 . S
C1077 C1076 1.386 . S
C1077 C1081 1.393 . S
C1078 H1070 0.950 . S
C1078 C1076 1.391 . S
C1078 C1079 1.400 . S
C1079 C1078 1.400 . S
C1079 C1080 1.398 . S
C1079 C1085 1.491 . S
C1080 H1071 0.950 . S
C1080 C1079 1.398 . S
C1080 C1081 1.391 . S
C1081 H1069 0.950 . S
C1081 C1077 1.393 . S
C1081 C1080 1.391 . S
C1082 H1072 0.950 . S
C1082 C1083 1.386 . S
C1082 C1084 1.391 . S
C1083 C1082 1.386 . S
C1083 C1087 1.393 . S
C1084 H1073 0.950 . S
C1084 C1082 1.391 . S
C1084 C1085 1.400 . S
C1085 C1079 1.491 . S
C1085 C1084 1.400 . S
C1085 C1086 1.398 . S
C1086 H1074 0.950 . S
C1086 C1085 1.398 . S
C1086 C1087 1.391 . S
C1087 H1075 0.950 . S
C1087 C1083 1.393 . S
C1087 C1086 1.391 . S
H1088 C1096 0.950 . S
H1089 C1101 0.950 . S
H1090 C1098 0.950 . S
H1091 C1100 0.950 . S
H1092 C1102 0.950 . S
H1093 C1104 0.950 . S
H1094 C1106 0.950 . S
H1095 C1107 0.950 . S
C1096 H1088 0.950 . S
C1096 C1097 1.386 . S
C1096 C1098 1.391 . S
C1097 C1096 1.386 . S
C1097 C1101 1.393 . S
C1098 H1090 0.950 . S
C1098 C1096 1.391 . S
C1098 C1099 1.400 . S
C1099 C1098 1.400 . S
C1099 C1100 1.398 . S
C1099 C1105 1.491 . S
C1100 H1091 0.950 . S
C1100 C1099 1.398 . S
C1100 C1101 1.391 . S
C1101 H1089 0.950 . S
C1101 C1097 1.393 . S
C1101 C1100 1.391 . S
C1102 H1092 0.950 . S
C1102 C1103 1.386 . S
C1102 C1104 1.391 . S
C1103 C1102 1.386 . S
C1103 C1107 1.393 . S
C1104 H1093 0.950 . S
C1104 C1102 1.391 . S
C1104 C1105 1.400 . S
C1105 C1099 1.491 . S
C1105 C1104 1.400 . S
C1105 C1106 1.398 . S
C1106 H1094 0.950 . S
C1106 C1105 1.398 . S
C1106 C1107 1.391 . S
C1107 H1095 0.950 . S
C1107 C1103 1.393 . S
C1107 C1106 1.391 . S
H1108 C1116 0.950 . S
H1109 C1121 0.950 . S
H1110 C1118 0.950 . S
H1111 C1120 0.950 . S
H1112 C1122 0.950 . S
H1113 C1124 0.950 . S
H1114 C1126 0.950 . S
H1115 C1127 0.950 . S
C1116 H1108 0.950 . S
C1116 C1117 1.386 . S
C1116 C1118 1.391 . S
C1117 C1116 1.386 . S
C1117 C1121 1.393 . S
C1118 H1110 0.950 . S
C1118 C1116 1.391 . S
C1118 C1119 1.400 . S
C1119 C1118 1.400 . S
C1119 C1120 1.398 . S
C1119 C1125 1.491 . S
C1120 H1111 0.950 . S
C1120 C1119 1.398 . S
C1120 C1121 1.391 . S
C1121 H1109 0.950 . S
C1121 C1117 1.393 . S
C1121 C1120 1.391 . S
C1122 H1112 0.950 . S
C1122 C1123 1.386 . S
C1122 C1124 1.391 . S
C1123 C1122 1.386 . S
C1123 C1127 1.393 . S
C1124 H1113 0.950 . S
C1124 C1122 1.391 . S
C1124 C1125 1.400 . S
C1125 C1119 1.491 . S
C1125 C1124 1.400 . S
C1125 C1126 1.398 . S
C1126 H1114 0.950 . S
C1126 C1125 1.398 . S
C1126 C1127 1.391 . S
C1127 H1115 0.950 . S
C1127 C1123 1.393 . S
C1127 C1126 1.391 . S
H1128 C1136 0.950 . S
H1129 C1141 0.950 . S
H1130 C1138 0.950 . S
H1131 C1140 0.950 . S
H1132 C1142 0.950 . S
H1133 C1144 0.950 . S
H1134 C1146 0.950 . S
H1135 C1147 0.950 . S
C1136 H1128 0.950 . S
C1136 C1137 1.386 . S
C1136 C1138 1.391 . S
C1137 C1136 1.386 . S
C1137 C1141 1.393 . S
C1138 H1130 0.950 . S
C1138 C1136 1.391 . S
C1138 C1139 1.400 . S
C1139 C1138 1.400 . S
C1139 C1140 1.398 . S
C1139 C1145 1.491 . S
C1140 H1131 0.950 . S
C1140 C1139 1.398 . S
C1140 C1141 1.391 . S
C1141 H1129 0.950 . S
C1141 C1137 1.393 . S
C1141 C1140 1.391 . S
C1142 H1132 0.950 . S
C1142 C1143 1.386 . S
C1142 C1144 1.391 . S
C1143 C1142 1.386 . S
C1143 C1147 1.393 . S
C1144 H1133 0.950 . S
C1144 C1142 1.391 . S
C1144 C1145 1.400 . S
C1145 C1139 1.491 . S
C1145 C1144 1.400 . S
C1145 C1146 1.398 . S
C1146 H1134 0.950 . S
C1146 C1145 1.398 . S
C1146 C1147 1.391 . S
C1147 H1135 0.950 . S
C1147 C1143 1.393 . S
C1147 C1146 1.391 . S
H1148 C1156 0.950 . S
H1149 C1161 0.950 . S
H1150 C1158 0.950 . S
H1151 C1160 0.950 . S
H1152 C1162 0.950 . S
H1153 C1164 0.950 . S
H1154 C1166 0.950 . S
H1155 C1167 0.950 . S
C1156 H1148 0.950 . S
C1156 C1157 1.386 . S
C1156 C1158 1.391 . S
C1157 C1156 1.386 . S
C1157 C1161 1.393 . S
C1158 H1150 0.950 . S
C1158 C1156 1.391 . S
C1158 C1159 1.400 . S
C1159 C1158 1.400 . S
C1159 C1160 1.398 . S
C1159 C1165 1.491 . S
C1160 H1151 0.950 . S
C1160 C1159 1.398 . S
C1160 C1161 1.391 . S
C1161 H1149 0.950 . S
C1161 C1157 1.393 . S
C1161 C1160 1.391 . S
C1162 H1152 0.950 . S
C1162 C1163 1.386 . S
C1162 C1164 1.391 . S
C1163 C1162 1.386 . S
C1163 C1167 1.393 . S
C1164 H1153 0.950 . S
C1164 C1162 1.391 . S
C1164 C1165 1.400 . S
C1165 C1159 1.491 . S
C1165 C1164 1.400 . S
C1165 C1166 1.398 . S
C1166 H1154 0.950 . S
C1166 C1165 1.398 . S
C1166 C1167 1.391 . S
C1167 H1155 0.950 . S
C1167 C1163 1.393 . S
C1167 C1166 1.391 . S
H1168 C1176 0.950 . S
H1169 C1181 0.950 . S
H1170 C1178 0.950 . S
H1171 C1180 0.950 . S
H1172 C1182 0.950 . S
H1173 C1184 0.950 . S
H1174 C1186 0.950 . S
H1175 C1187 0.950 . S
C1176 H1168 0.950 . S
C1176 C1177 1.386 . S
C1176 C1178 1.391 . S
C1177 C1176 1.386 . S
C1177 C1181 1.393 . S
C1178 H1170 0.950 . S
C1178 C1176 1.391 . S
C1178 C1179 1.400 . S
C1179 C1178 1.400 . S
C1179 C1180 1.398 . S
C1179 C1185 1.491 . S
C1180 H1171 0.950 . S
C1180 C1179 1.398 . S
C1180 C1181 1.391 . S
C1181 H1169 0.950 . S
C1181 C1177 1.393 . S
C1181 C1180 1.391 . S
C1182 H1172 0.950 . S
C1182 C1183 1.386 . S
C1182 C1184 1.391 . S
C1183 C1182 1.386 . S
C1183 C1187 1.393 . S
C1184 H1173 0.950 . S
C1184 C1182 1.391 . S
C1184 C1185 1.400 . S
C1185 C1179 1.491 . S
C1185 C1184 1.400 . S
C1185 C1186 1.398 . S
C1186 H1174 0.950 . S
C1186 C1185 1.398 . S
C1186 C1187 1.391 . S
C1187 H1175 0.950 . S
C1187 C1183 1.393 . S
C1187 C1186 1.391 . S
C717 C3 1.740 . S
C723 C357 1.737 . S
C737 C62 1.733 . S
C743 C416 1.741 . S
C757 C123 1.659 . S
C763 C477 1.645 . S
C777 C534 1.729 . S
C783 C180 1.734 . S
C797 C239 1.747 . S
C803 C593 1.730 . S
C817 C654 1.647 . S
C823 C300 1.655 . S
C837 C33 1.525 . S
C843 C564 1.517 . S
C857 C92 1.531 . S
C863 C623 1.515 . S
C877 C701 1.438 1_556 S
C883 C170 1.419 1_554 S
C897 C387 1.519 . S
C903 C210 1.523 . S
C917 C269 1.530 . S
C923 C446 1.517 . S
C937 C347 1.429 1_554 S
C943 C524 1.431 1_556 S
C957 C652 1.524 . S
C963 C5 1.526 . S
C977 C64 1.757 . S
C983 C359 1.761 . S
C997 C121 1.545 . S
C1003 C418 1.532 . S
C1017 C475 1.524 . S
C1023 C182 1.524 . S
C1037 C536 1.759 . S
C1043 C241 1.761 . S
C1057 C298 1.544 . S
C1063 C595 1.539 . S
C1077 C52 1.130 . S
C1083 C642 1.124 . S
C1097 C682 1.278 . S
C1103 C111 1.300 . S
C1117 C406 1.306 . S
C1123 C151 1.289 . S
C1137 C229 1.095 . S
C1143 C465 1.093 . S
C1157 C505 1.281 . S
C1163 C288 1.306 . S
C1177 C583 1.313 . S
C1183 C328 1.296 . S
