# Generated by pormake.
# Topology sme, (6)-cn, num edge types: 1
# Building blocks:
#     Node 0, Type 0, BuildingBlock: IZENUY_clean_sbu_0, # of connection points: 6
#     Node 1, Type 0, BuildingBlock: IZENUY_clean_sbu_0, # of connection points: 6
#     Node 2, Type 0, BuildingBlock: IZENUY_clean_sbu_0, # of connection points: 6
#     Node 3, Type 0, BuildingBlock: IZENUY_clean_sbu_0, # of connection points: 6
#     Node 4, Type 0, BuildingBlock: IZENUY_clean_sbu_0, # of connection points: 6
#     Node 5, Type 0, BuildingBlock: IZENUY_clean_sbu_0, # of connection points: 6
#     Node 6, Type 0, BuildingBlock: IZENUY_clean_sbu_0, # of connection points: 6
#     Node 7, Type 0, BuildingBlock: IZENUY_clean_sbu_0, # of connection points: 6
#     Node 8, Type 0, BuildingBlock: IZENUY_clean_sbu_0, # of connection points: 6
#     Node 9, Type 0, BuildingBlock: IZENUY_clean_sbu_0, # of connection points: 6
#     Node 10, Type 0, BuildingBlock: IZENUY_clean_sbu_0, # of connection points: 6
#     Node 11, Type 0, BuildingBlock: IZENUY_clean_sbu_0, # of connection points: 6
#     Node 12, Type 0, BuildingBlock: IZENUY_clean_sbu_0, # of connection points: 6
#     Node 13, Type 0, BuildingBlock: IZENUY_clean_sbu_0, # of connection points: 6
#     Node 14, Type 0, BuildingBlock: IZENUY_clean_sbu_0, # of connection points: 6
#     Node 15, Type 0, BuildingBlock: IZENUY_clean_sbu_0, # of connection points: 6
#     Node 16, Type 0, BuildingBlock: IZENUY_clean_sbu_0, # of connection points: 6
#     Node 17, Type 0, BuildingBlock: IZENUY_clean_sbu_0, # of connection points: 6
#     Edge 18, Type (0, 0), BuildingBlock: KIFKEQ_clean_linker_1, # of connection points: 2
#     Edge 19, Type (0, 0), BuildingBlock: KIFKEQ_clean_linker_1, # of connection points: 2
#     Edge 20, Type (0, 0), BuildingBlock: KIFKEQ_clean_linker_1, # of connection points: 2
#     Edge 21, Type (0, 0), BuildingBlock: KIFKEQ_clean_linker_1, # of connection points: 2
#     Edge 22, Type (0, 0), BuildingBlock: KIFKEQ_clean_linker_1, # of connection points: 2
#     Edge 23, Type (0, 0), BuildingBlock: KIFKEQ_clean_linker_1, # of connection points: 2
#     Edge 24, Type (0, 0), BuildingBlock: KIFKEQ_clean_linker_1, # of connection points: 2
#     Edge 25, Type (0, 0), BuildingBlock: KIFKEQ_clean_linker_1, # of connection points: 2
#     Edge 26, Type (0, 0), BuildingBlock: KIFKEQ_clean_linker_1, # of connection points: 2
#     Edge 27, Type (0, 0), BuildingBlock: KIFKEQ_clean_linker_1, # of connection points: 2
#     Edge 28, Type (0, 0), BuildingBlock: KIFKEQ_clean_linker_1, # of connection points: 2
#     Edge 29, Type (0, 0), BuildingBlock: KIFKEQ_clean_linker_1, # of connection points: 2
#     Edge 30, Type (0, 0), BuildingBlock: KIFKEQ_clean_linker_1, # of connection points: 2
#     Edge 31, Type (0, 0), BuildingBlock: KIFKEQ_clean_linker_1, # of connection points: 2
#     Edge 32, Type (0, 0), BuildingBlock: KIFKEQ_clean_linker_1, # of connection points: 2
#     Edge 33, Type (0, 0), BuildingBlock: KIFKEQ_clean_linker_1, # of connection points: 2
#     Edge 34, Type (0, 0), BuildingBlock: KIFKEQ_clean_linker_1, # of connection points: 2
#     Edge 35, Type (0, 0), BuildingBlock: KIFKEQ_clean_linker_1, # of connection points: 2
#     Edge 36, Type (0, 0), BuildingBlock: KIFKEQ_clean_linker_1, # of connection points: 2
#     Edge 37, Type (0, 0), BuildingBlock: KIFKEQ_clean_linker_1, # of connection points: 2
#     Edge 38, Type (0, 0), BuildingBlock: KIFKEQ_clean_linker_1, # of connection points: 2
#     Edge 39, Type (0, 0), BuildingBlock: KIFKEQ_clean_linker_1, # of connection points: 2
#     Edge 40, Type (0, 0), BuildingBlock: KIFKEQ_clean_linker_1, # of connection points: 2
#     Edge 41, Type (0, 0), BuildingBlock: KIFKEQ_clean_linker_1, # of connection points: 2
#     Edge 42, Type (0, 0), BuildingBlock: KIFKEQ_clean_linker_1, # of connection points: 2
#     Edge 43, Type (0, 0), BuildingBlock: KIFKEQ_clean_linker_1, # of connection points: 2
#     Edge 44, Type (0, 0), BuildingBlock: KIFKEQ_clean_linker_1, # of connection points: 2
#     Edge 45, Type (0, 0), BuildingBlock: KIFKEQ_clean_linker_1, # of connection points: 2
#     Edge 46, Type (0, 0), BuildingBlock: KIFKEQ_clean_linker_1, # of connection points: 2
#     Edge 47, Type (0, 0), BuildingBlock: KIFKEQ_clean_linker_1, # of connection points: 2
#     Edge 48, Type (0, 0), BuildingBlock: KIFKEQ_clean_linker_1, # of connection points: 2
#     Edge 49, Type (0, 0), BuildingBlock: KIFKEQ_clean_linker_1, # of connection points: 2
#     Edge 50, Type (0, 0), BuildingBlock: KIFKEQ_clean_linker_1, # of connection points: 2
#     Edge 51, Type (0, 0), BuildingBlock: KIFKEQ_clean_linker_1, # of connection points: 2
#     Edge 52, Type (0, 0), BuildingBlock: KIFKEQ_clean_linker_1, # of connection points: 2
#     Edge 53, Type (0, 0), BuildingBlock: KIFKEQ_clean_linker_1, # of connection points: 2
#     Edge 54, Type (0, 0), BuildingBlock: KIFKEQ_clean_linker_1, # of connection points: 2
#     Edge 55, Type (0, 0), BuildingBlock: KIFKEQ_clean_linker_1, # of connection points: 2
#     Edge 56, Type (0, 0), BuildingBlock: KIFKEQ_clean_linker_1, # of connection points: 2
#     Edge 57, Type (0, 0), BuildingBlock: KIFKEQ_clean_linker_1, # of connection points: 2
#     Edge 58, Type (0, 0), BuildingBlock: KIFKEQ_clean_linker_1, # of connection points: 2
#     Edge 59, Type (0, 0), BuildingBlock: KIFKEQ_clean_linker_1, # of connection points: 2
#     Edge 60, Type (0, 0), BuildingBlock: KIFKEQ_clean_linker_1, # of connection points: 2
#     Edge 61, Type (0, 0), BuildingBlock: KIFKEQ_clean_linker_1, # of connection points: 2
#     Edge 62, Type (0, 0), BuildingBlock: KIFKEQ_clean_linker_1, # of connection points: 2
#     Edge 63, Type (0, 0), BuildingBlock: KIFKEQ_clean_linker_1, # of connection points: 2
#     Edge 64, Type (0, 0), BuildingBlock: KIFKEQ_clean_linker_1, # of connection points: 2
#     Edge 65, Type (0, 0), BuildingBlock: KIFKEQ_clean_linker_1, # of connection points: 2
#     Edge 66, Type (0, 0), BuildingBlock: KIFKEQ_clean_linker_1, # of connection points: 2
#     Edge 67, Type (0, 0), BuildingBlock: KIFKEQ_clean_linker_1, # of connection points: 2
#     Edge 68, Type (0, 0), BuildingBlock: KIFKEQ_clean_linker_1, # of connection points: 2
#     Edge 69, Type (0, 0), BuildingBlock: KIFKEQ_clean_linker_1, # of connection points: 2
#     Edge 70, Type (0, 0), BuildingBlock: KIFKEQ_clean_linker_1, # of connection points: 2
#     Edge 71, Type (0, 0), BuildingBlock: KIFKEQ_clean_linker_1, # of connection points: 2
# Relax obj value: 0.119
# Max RMSD: 0.168
# Mean RMSD: 0.168
data_MOF--net-sme--node1-IZENUY_clean_sbu_0--edge1-KIFKEQ_clean_linker_1
_symmetry_space_group_name_H-M    P1
_symmetry_Int_Tables_number       1
_symmetry_cell_setting            triclinic
loop_
_symmetry_equiv_pos_as_xyz
'x, y, z'
_cell_length_a     45.389919
_cell_length_b     45.361117
_cell_length_c     38.057693
_cell_angle_alpha  90.015265
_cell_angle_beta   90.077783
_cell_angle_gamma 120.14687
loop_
_atom_site_label
_atom_site_type_symbol
_atom_site_fract_x
_atom_site_fract_y
_atom_site_fract_z
_atom_type_partial_charge
Fe0 Fe 0.03222 0.30367 0.8281 0.0
Fe1 Fe 0.04346 0.25407 0.87421 0.0
O2 O 0.03759 0.2674 0.83187 0.0
Fe3 Fe 0.03721 0.24584 0.79259 0.0
O4 O 0.07153 0.28457 0.77237 0.0
O5 O 0.04829 0.31545 0.78291 0.0
O6 O 0.07466 0.33051 0.8431 0.0
C7 C 0.08783 0.32612 0.87037 0.0
C8 C 0.98198 0.25796 0.78631 0.0
O9 O 0.07305 0.29853 0.88817 0.0
C10 C 0.99948 0.19108 0.83806 0.0
O11 O 0.01568 0.30208 0.87222 0.0
O12 O 0.00634 0.25374 0.89379 0.0
O13 O 1.00356 0.25144 0.7725 0.0
O14 O 0.9893 0.27713 0.81285 0.0
C15 C 0.08753 0.24152 0.83366 0.0
O16 O 0.01549 0.20794 0.86525 0.0
O17 O 1.00367 0.20515 0.80841 0.0
C18 C 1.00172 0.2789 0.8948 0.0
O19 O 0.08118 0.25242 0.8614 0.0
O20 O 0.06978 0.23592 0.80628 0.0
C21 C 0.0698 0.31097 0.76641 0.0
Fe22 Fe 0.85679 0.8736 0.87259 0.0
Fe23 Fe 0.86174 0.87642 0.79062 0.0
O24 O 0.84125 0.85499 0.83029 0.0
Fe25 Fe 0.8041 0.81378 0.82704 0.0
O26 O 0.77896 0.82987 0.84518 0.0
O27 O 0.81344 0.85949 0.88922 0.0
O28 O 0.85917 0.91373 0.8615 0.0
C29 C 0.87065 0.93177 0.83429 0.0
C30 C 0.83131 0.80642 0.89177 0.0
O31 O 0.87441 0.91952 0.80595 0.0
C32 C 0.84579 0.80788 0.78087 0.0
O33 O 0.9021 0.89093 0.86124 0.0
O34 O 0.90221 0.88139 0.80419 0.0
O35 O 0.80745 0.79768 0.87005 0.0
O36 O 0.85685 0.83606 0.89045 0.0
C37 C 0.79575 0.84602 0.76705 0.0
O38 O 0.85351 0.83693 0.76861 0.0
O39 O 0.82856 0.79647 0.80863 0.0
C40 C 0.91752 0.89094 0.83332 0.0
O41 O 0.82296 0.87379 0.77258 0.0
O42 O 0.79058 0.81956 0.78323 0.0
C43 C 0.78478 0.84647 0.87341 0.0
Fe44 Fe 0.29084 0.0735 0.82708 0.0
Fe45 Fe 0.23114 0.07338 0.78723 0.0
O46 O 0.25201 0.07447 0.82713 0.0
Fe47 Fe 0.2329 0.07603 0.86741 0.0
O48 O 0.27239 0.09796 0.89329 0.0
O49 O 0.31316 0.11096 0.85544 0.0
O50 O 0.30852 0.10246 0.78962 0.0
C51 C 0.29826 0.11965 0.77259 0.0
C52 C 0.24891 0.02584 0.87815 0.0
O53 O 0.26753 0.11246 0.77289 0.0
C54 C 0.17539 0.03139 0.82639 0.0
O55 O 0.27436 0.03595 0.79869 0.0
O56 O 0.24529 0.04827 0.76162 0.0
O57 O 0.22712 0.03531 0.87941 0.0
O58 O 0.27806 0.04414 0.86443 0.0
C59 C 0.22266 0.12071 0.82956 0.0
O60 O 0.1927 0.03357 0.79945 0.0
O61 O 0.1889 0.05308 0.85084 0.0
C62 C 0.26042 0.03206 0.76906 0.0
O63 O 0.21377 0.09956 0.80432 0.0
O64 O 0.23719 0.11721 0.85641 0.0
C65 C 0.30368 0.11394 0.88568 0.0
Fe66 Fe 0.05568 0.88849 0.22976 0.0
Fe67 Fe 0.05292 0.82794 0.27044 0.0
O68 O 0.05491 0.86825 0.27017 0.0
Fe69 Fe 0.05528 0.88879 0.30999 0.0
O70 O 0.01551 0.88767 0.29876 0.0
O71 O 0.03384 0.91034 0.24689 0.0
O72 O 0.01423 0.85366 0.21918 0.0
C73 C 1.00381 0.82221 0.22165 0.0
C74 C 0.10186 0.94403 0.26628 0.0
O75 O 0.0225 0.81118 0.23385 0.0
C76 C 0.10069 0.86702 0.32394 0.0
O77 O 0.0763 0.86986 0.2034 0.0
O78 O 0.08953 0.84215 0.24118 0.0
O79 O 0.08146 0.9321 0.29211 0.0
O80 O 0.09747 0.92551 0.23952 0.0
C81 C 0.01337 0.81847 0.32948 0.0
O82 O 0.08273 0.83935 0.30728 0.0
O83 O 0.09435 0.89111 0.32333 0.0
C84 C 0.09195 0.85417 0.21077 0.0
O85 O 0.01608 0.80778 0.29976 0.0
O86 O 0.03044 0.84995 0.33642 0.0
C87 C 0.01281 0.90252 0.27185 0.0
Fe88 Fe 0.23433 0.25836 0.22344 0.0
Fe89 Fe 0.285 0.31923 0.26919 0.0
O90 O 0.24862 0.27744 0.26578 0.0
Fe91 Fe 0.22795 0.25604 0.30533 0.0
O92 O 0.21806 0.21352 0.29124 0.0
O93 O 0.23257 0.21867 0.23548 0.0
O94 O 0.27839 0.27327 0.20851 0.0
C95 C 0.30641 0.28622 0.2256 0.0
C96 C 0.17221 0.23896 0.26097 0.0
O97 O 0.31144 0.30363 0.25316 0.0
C98 C 0.24034 0.32369 0.31242 0.0
O99 O 0.2338 0.29533 0.20452 0.0
O100 O 0.28261 0.33431 0.22534 0.0
O101 O 0.18678 0.24836 0.2905 0.0
O102 O 0.18854 0.24026 0.2333 0.0
C103 C 0.29361 0.2892 0.33048 0.0
O104 O 0.25889 0.33558 0.28549 0.0
O105 O 0.2337 0.2953 0.32577 0.0
C106 C 0.25907 0.32512 0.20318 0.0
O107 O 0.29775 0.31509 0.31398 0.0
O108 O 0.26719 0.26086 0.32478 0.0
C109 C 0.22253 0.20131 0.26327 0.0
Fe110 Fe 0.85807 0.06068 0.30945 0.0
Fe111 Fe 0.7955 0.05554 0.2726 0.0
O112 O 0.83657 0.05941 0.26969 0.0
Fe113 Fe 0.85493 0.06183 0.22754 0.0
O114 O 0.87242 0.03428 0.23939 0.0
O115 O 0.86296 0.02499 0.29641 0.0
O116 O 0.81862 0.02949 0.33145 0.0
C117 C 0.78971 0.0079 0.31898 0.0
C118 C 0.91317 0.10701 0.26548 0.0
O119 O 0.7781 0.01379 0.29137 0.0
C120 C 0.82814 0.10675 0.22553 0.0
O121 O 0.85558 0.09702 0.32706 0.0
O122 O 0.80141 0.07518 0.31625 0.0
O123 O 0.89504 0.10001 0.23823 0.0
O124 O 0.90107 0.09116 0.29396 0.0
C125 C 0.78788 0.01997 0.20848 0.0
O126 O 0.8118 0.09687 0.25397 0.0
O127 O 0.84057 0.09044 0.21025 0.0
C128 C 0.82791 0.0965 0.33247 0.0
O129 O 0.77939 0.03568 0.22964 0.0
O130 O 0.81731 0.02374 0.21035 0.0
C131 C 0.8724 0.01903 0.2674 0.0
Fe132 Fe 0.70076 0.63739 0.16053 0.0
Fe133 Fe 0.70932 0.58605 0.20654 0.0
O134 O 0.70548 0.60074 0.16409 0.0
Fe135 Fe 0.70628 0.58006 0.1245 0.0
O136 O 0.74153 0.61912 0.10558 0.0
O137 O 0.71842 0.65016 0.11602 0.0
O138 O 0.74277 0.66344 0.17733 0.0
C139 C 0.75478 0.65802 0.20498 0.0
C140 C 0.6519 0.59342 0.11621 0.0
O141 O 0.73935 0.62987 0.22174 0.0
C142 C 0.66592 0.52442 0.16834 0.0
O143 O 0.68282 0.63525 0.20402 0.0
O144 O 0.67216 0.58641 0.22514 0.0
O145 O 0.67375 0.58679 0.10327 0.0
O146 O 0.65823 0.61151 0.14352 0.0
C147 C 0.75379 0.57265 0.1676 0.0
O148 O 0.68074 0.54052 0.19626 0.0
O149 O 0.67184 0.5391 0.13883 0.0
C150 C 0.66812 0.6119 0.22625 0.0
O151 O 0.74665 0.58316 0.19512 0.0
O152 O 0.73795 0.56908 0.13919 0.0
C153 C 0.73999 0.64567 0.09967 0.0
Fe154 Fe 0.47187 0.14933 0.15467 0.0
Fe155 Fe 0.52656 0.20576 0.20153 0.0
O156 O 0.51071 0.1892 0.15867 0.0
Fe157 Fe 0.53181 0.21084 0.11939 0.0
O158 O 0.49352 0.20759 0.09905 0.0
O159 O 0.46082 0.15394 0.10957 0.0
O160 O 0.44893 0.1692 0.17034 0.0
C161 C 0.45651 0.18727 0.19793 0.0
C162 C 0.51557 0.14156 0.11279 0.0
O163 O 0.48377 0.19635 0.2156 0.0
C164 C 0.58717 0.22248 0.1635 0.0
O165 O 0.47069 0.13284 0.19856 0.0
O166 O 0.52125 0.16546 0.21916 0.0
O167 O 0.52499 0.17089 0.09966 0.0
O168 O 0.49538 0.12982 0.13878 0.0
C169 C 0.54243 0.26595 0.1637 0.0
O170 O 0.57094 0.2181 0.19195 0.0
O171 O 0.57303 0.21811 0.13384 0.0
C172 C 0.49325 0.13795 0.22061 0.0
O173 O 0.53514 0.24859 0.19153 0.0
O174 O 0.54201 0.25324 0.13404 0.0
C175 C 0.46682 0.17994 0.09239 0.0
Fe176 Fe 0.90213 0.40145 0.20694 0.0
Fe177 Fe 0.90111 0.40679 0.12514 0.0
O178 O 0.92178 0.40684 0.16497 0.0
Fe179 Fe 0.96341 0.41196 0.16211 0.0
O180 O 0.94694 0.36953 0.17684 0.0
O181 O 0.91565 0.37102 0.22098 0.0
O182 O 0.86215 0.36432 0.19396 0.0
C183 C 0.84514 0.35775 0.166 0.0
C184 C 0.9688 0.44242 0.22869 0.0
O185 O 0.85803 0.37458 0.13828 0.0
C186 C 0.96939 0.46148 0.11905 0.0
O187 O 0.88542 0.43026 0.19727 0.0
O188 O 0.89419 0.44072 0.14012 0.0
O189 O 0.97798 0.42828 0.2064 0.0
O190 O 0.9392 0.43816 0.22706 0.0
C191 C 0.93373 0.37394 0.10033 0.0
O192 O 0.94098 0.43993 0.10542 0.0
O193 O 0.98038 0.45492 0.14675 0.0
C194 C 0.88484 0.44584 0.16968 0.0
O195 O 0.90544 0.37205 0.10581 0.0
O196 O 0.95961 0.39576 0.11698 0.0
C197 C 0.92688 0.35543 0.20223 0.0
Fe198 Fe 0.72139 0.21786 0.64156 0.0
Fe199 Fe 0.72297 0.15924 0.60294 0.0
O200 O 0.72141 0.19776 0.60127 0.0
Fe201 Fe 0.71972 0.21497 0.55961 0.0
O202 O 0.74845 0.25973 0.57226 0.0
O203 O 0.75811 0.25826 0.62904 0.0
O204 O 0.75121 0.20729 0.66279 0.0
C205 C 0.77142 0.19831 0.65017 0.0
C206 C 0.67608 0.22898 0.59861 0.0
O207 O 0.76498 0.18165 0.62185 0.0
C208 C 0.67181 0.14417 0.55646 0.0
O209 O 0.68419 0.17942 0.65898 0.0
O210 O 0.70332 0.14517 0.6465 0.0
O211 O 0.68232 0.21771 0.57104 0.0
O212 O 0.69231 0.23233 0.62677 0.0
C213 C 0.75962 0.18804 0.53976 0.0
O214 O 0.6812 0.13615 0.58431 0.0
O215 O 0.68996 0.17271 0.54127 0.0
C216 C 0.68339 0.15147 0.66374 0.0
O217 O 0.74241 0.16317 0.55983 0.0
O218 O 0.7571 0.21441 0.54218 0.0
C219 C 0.76415 0.27431 0.60036 0.0
Fe220 Fe 0.89539 0.58873 0.64316 0.0
Fe221 Fe 0.95233 0.65134 0.60634 0.0
O222 O 0.91599 0.6095 0.60332 0.0
Fe223 Fe 0.90182 0.58996 0.56119 0.0
O224 O 0.85615 0.57324 0.57047 0.0
O225 O 0.85405 0.58038 0.62794 0.0
O226 O 0.90106 0.62845 0.66239 0.0
C227 C 0.90724 0.65637 0.64812 0.0
C228 C 0.88865 0.53289 0.6022 0.0
O229 O 0.92575 0.6678 0.62107 0.0
C230 C 0.97367 0.61653 0.56535 0.0
O231 O 0.93476 0.59419 0.66309 0.0
O232 O 0.9646 0.64829 0.65174 0.0
O233 O 0.89846 0.5498 0.57412 0.0
O234 O 0.88554 0.54591 0.63026 0.0
C235 C 0.92813 0.65653 0.53902 0.0
O236 O 0.97875 0.63526 0.59187 0.0
O237 O 0.94601 0.60355 0.54752 0.0
C238 C 0.96087 0.6228 0.66873 0.0
O239 O 0.95107 0.66575 0.56185 0.0
O240 O 0.90247 0.62706 0.54079 0.0
C241 C 0.83971 0.57151 0.59822 0.0
Fe242 Fe 0.46238 0.38413 0.60397 0.0
Fe243 Fe 0.52343 0.39627 0.55796 0.0
O244 O 0.50394 0.3895 0.60015 0.0
Fe245 Fe 0.52462 0.38779 0.63927 0.0
O246 O 0.48479 0.3544 0.65906 0.0
O247 O 0.44572 0.34078 0.61793 0.0
O248 O 0.44752 0.36848 0.55951 0.0
C249 C 0.45679 0.35498 0.53649 0.0
C250 C 0.49304 0.42094 0.66612 0.0
O251 O 0.48658 0.3596 0.53745 0.0
C252 C 0.58055 0.43815 0.59895 0.0
O253 O 0.47826 0.42689 0.59005 0.0
O254 O 0.50887 0.42613 0.54483 0.0
O255 O 0.52114 0.42239 0.66033 0.0
O256 O 0.46688 0.39947 0.64952 0.0
C257 C 0.5404 0.35033 0.59245 0.0
O258 O 0.56294 0.43358 0.57173 0.0
O259 O 0.56793 0.41976 0.6259 0.0
C260 C 0.49597 0.44052 0.563 0.0
O261 O 0.54126 0.36813 0.56618 0.0
O262 O 0.53017 0.35365 0.62225 0.0
C263 C 0.45709 0.33279 0.64432 0.0
Fe264 Fe 0.3779 0.91999 0.53785 0.0
Fe265 Fe 0.36869 0.91098 0.45648 0.0
O266 O 0.37014 0.93253 0.49605 0.0
Fe267 Fe 0.36385 0.9682 0.49298 0.0
O268 O 0.40719 0.99579 0.50509 0.0
O269 O 0.40805 0.96481 0.55012 0.0
O270 O 0.41505 0.91793 0.52317 0.0
C271 C 0.42023 0.9064 0.49515 0.0
C272 C 0.33731 0.94528 0.56133 0.0
O273 O 0.40201 0.90143 0.46826 0.0
C274 C 0.31179 0.92069 0.45439 0.0
O275 O 0.34954 0.87381 0.52991 0.0
O276 O 0.33632 0.87018 0.47329 0.0
O277 O 0.35037 0.968 0.53822 0.0
O278 O 0.3416 0.91993 0.55958 0.0
C279 C 0.39832 0.97551 0.42921 0.0
O280 O 0.33359 0.91567 0.43855 0.0
O281 O 0.32007 0.94031 0.48073 0.0
C282 C 0.33296 0.85658 0.50311 0.0
O283 O 0.40201 0.95022 0.43534 0.0
O284 O 0.37653 0.97871 0.4467 0.0
C285 C 0.42202 0.99179 0.53126 0.0
Fe286 Fe 0.19428 0.53948 0.54092 0.0
Fe287 Fe 0.19622 0.54221 0.45875 0.0
O288 O 0.17689 0.5212 0.49897 0.0
Fe289 Fe 0.13871 0.48058 0.49684 0.0
O290 O 0.11524 0.49867 0.51554 0.0
O291 O 0.15191 0.52709 0.55869 0.0
O292 O 0.19828 0.58044 0.53066 0.0
C293 C 0.20739 0.59793 0.50292 0.0
C294 C 0.16668 0.47221 0.56019 0.0
O295 O 0.20891 0.58529 0.47385 0.0
C296 C 0.17896 0.473 0.44988 0.0
O297 O 0.23881 0.5551 0.52836 0.0
O298 O 0.23752 0.54793 0.47071 0.0
O299 O 0.14214 0.46469 0.53982 0.0
O300 O 0.19314 0.50108 0.55796 0.0
C301 C 0.12967 0.51186 0.43663 0.0
O302 O 0.18713 0.50215 0.43738 0.0
O303 O 0.16191 0.46195 0.4779 0.0
C304 C 0.25347 0.55626 0.49959 0.0
O305 O 0.15705 0.53951 0.44171 0.0
O306 O 0.12445 0.48568 0.45324 0.0
C307 C 0.12334 0.51638 0.54329 0.0
Fe308 Fe 0.62895 0.74308 0.49474 0.0
Fe309 Fe 0.56892 0.7415 0.45586 0.0
O310 O 0.58849 0.7407 0.49622 0.0
Fe311 Fe 0.5688 0.73747 0.53773 0.0
O312 O 0.60642 0.7746 0.55658 0.0
O313 O 0.64354 0.76095 0.53866 0.0
O314 O 0.64841 0.78579 0.47772 0.0
C315 C 0.63834 0.79313 0.44986 0.0
C316 C 0.59205 0.69003 0.53881 0.0
O317 O 0.60967 0.77268 0.43604 0.0
C318 C 0.51187 0.69424 0.497 0.0
O319 O 0.62454 0.72519 0.4504 0.0
O320 O 0.57111 0.70521 0.43727 0.0
O321 O 0.58141 0.70751 0.55486 0.0
O322 O 0.61025 0.70066 0.51155 0.0
C323 C 0.55402 0.7826 0.49858 0.0
O324 O 0.52511 0.71112 0.46929 0.0
O325 O 0.52882 0.70024 0.525 0.0
C326 C 0.59858 0.70504 0.43274 0.0
O327 O 0.56444 0.77747 0.46968 0.0
O328 O 0.55257 0.76607 0.52606 0.0
C329 C 0.63544 0.77745 0.55918 0.0
Fe330 Fe 0.38758 0.54793 0.88948 0.0
Fe331 Fe 0.39076 0.49264 0.9341 0.0
O332 O 0.38917 0.53125 0.93162 0.0
Fe333 Fe 0.38889 0.55159 0.97166 0.0
O334 O 0.35816 0.56397 0.95729 0.0
O335 O 0.35152 0.55324 0.90048 0.0
O336 O 0.35617 0.50531 0.87297 0.0
C337 C 0.33826 0.47721 0.88918 0.0
C338 C 0.43173 0.60793 0.92929 0.0
O339 O 0.34853 0.46937 0.9166 0.0
C340 C 0.44064 0.53394 0.97927 0.0
O341 O 0.42387 0.54548 0.87157 0.0
O342 O 0.40875 0.49472 0.89068 0.0
O343 O 0.42431 0.5926 0.95849 0.0
O344 O 0.41774 0.59264 0.90084 0.0
C345 C 0.35242 0.48541 0.99528 0.0
O346 O 0.4332 0.51558 0.95197 0.0
O347 O 0.42049 0.54298 0.99211 0.0
C348 C 0.42573 0.51873 0.86973 0.0
O349 O 0.37264 0.47952 0.97824 0.0
O350 O 0.35265 0.51295 0.99009 0.0
C351 C 0.34366 0.56249 0.92846 0.0
Fe352 Fe 0.56593 0.92475 0.89313 0.0
Fe353 Fe 0.6221 0.98377 0.93665 0.0
O354 O 0.58359 0.94334 0.9349 0.0
Fe355 Fe 0.56425 0.92286 0.97532 0.0
O356 O 0.55142 0.87956 0.96102 0.0
O357 O 0.56089 0.88344 0.90403 0.0
O358 O 0.60813 0.93601 0.87569 0.0
C359 C 0.63651 0.94637 0.89138 0.0
C360 C 0.50715 0.9094 0.93434 0.0
O361 O 0.64504 0.96487 0.91859 0.0
C362 C 0.58186 0.99226 0.98288 0.0
O363 O 0.56792 0.96334 0.87538 0.0
O364 O 0.61908 0.99936 0.89324 0.0
O365 O 0.52304 0.91721 0.96325 0.0
O366 O 0.52164 0.9103 0.90555 0.0
C367 C 0.63062 0.95305 0.9977 0.0
O368 O 0.59923 1.00301 0.95499 0.0
O369 O 0.57357 0.96327 0.99592 0.0
C370 C 0.59461 0.99198 0.87278 0.0
O371 O 0.6362 0.9791 0.98058 0.0
O372 O 0.60323 0.92547 0.99258 0.0
C373 C 0.5524 0.86642 0.9321 0.0
Fe374 Fe 0.19219 0.73225 0.8965 0.0
Fe375 Fe 0.19411 0.72538 0.97826 0.0
O376 O 0.17312 0.72619 0.93892 0.0
Fe377 Fe 0.13155 0.72096 0.94262 0.0
O378 O 0.1166 0.70592 0.89803 0.0
O379 O 0.15483 0.69598 0.87606 0.0
O380 O 0.209 0.70324 0.90445 0.0
C381 C 0.2108 0.68785 0.9316 0.0
C382 C 0.16607 0.77764 0.90225 0.0
O383 O 0.20215 0.69269 0.96163 0.0
C384 C 0.16051 0.75624 1.00601 0.0
O385 O 0.23236 0.76897 0.90969 0.0
O386 O 0.23676 0.75882 0.96546 0.0
O387 O 0.14796 0.76388 0.92909 0.0
O388 O 0.17859 0.76301 0.88382 0.0
C389 C 0.12622 0.66969 0.9828 0.0
O390 O 0.189 0.75884 0.99987 0.0
O391 O 0.13502 0.73532 0.98837 0.0
C392 C 0.24944 0.77562 0.93764 0.0
O393 O 0.15454 0.69071 0.99704 0.0
O394 O 0.11478 0.67767 0.9564 0.0
C395 C 0.12534 0.69205 0.875 0.0
H396 H 0.18476 0.12854 0.77892 0.0
H397 H 0.22989 0.16742 0.88072 0.0
H398 H 0.15717 0.1621 0.78073 0.0
H399 H 0.20324 0.20284 0.88186 0.0
H400 H 0.11275 0.22361 0.89013 0.0
H401 H 0.15003 0.19937 0.88922 0.0
H402 H 0.16158 0.21482 0.77684 0.0
H403 H 0.12281 0.23718 0.7777 0.0
C404 C 0.18938 0.1448 0.80155 0.0
C405 C 0.20949 0.14494 0.82981 0.0
C406 C 0.17367 0.16449 0.80243 0.0
C407 C 0.17783 0.18553 0.8314 0.0
C408 C 0.19893 0.18665 0.85928 0.0
C409 C 0.2145 0.16653 0.85853 0.0
C410 C 0.12363 0.22221 0.86531 0.0
C411 C 0.11442 0.23192 0.83392 0.0
C412 C 0.14522 0.2084 0.86477 0.0
C413 C 0.15859 0.20443 0.83286 0.0
C414 C 0.15105 0.21634 0.80183 0.0
C415 C 0.12899 0.22949 0.8023 0.0
H416 H 0.96537 0.14933 0.89475 0.0
H417 H 0.98415 0.14657 0.78405 0.0
H418 H 0.9299 0.0871 0.89498 0.0
H419 H 0.95123 0.0852 0.78448 0.0
H420 H 0.87393 0.97511 0.7823 0.0
H421 H 0.9004 0.03686 0.78481 0.0
H422 H 0.92688 0.03522 0.89379 0.0
H423 H 0.89797 0.97327 0.8916 0.0
C424 C 0.96207 0.13546 0.87052 0.0
C425 C 0.97741 0.15315 0.83936 0.0
C426 C 0.94187 0.0996 0.87059 0.0
C427 C 0.93707 0.08037 0.83964 0.0
C428 C 0.95294 0.09843 0.80872 0.0
C429 C 0.97232 0.13403 0.80851 0.0
C430 C 0.88495 0.98798 0.80691 0.0
C431 C 0.88378 0.96917 0.8367 0.0
C432 C 0.90067 0.02365 0.80837 0.0
C433 C 0.91679 0.04185 0.83937 0.0
C434 C 0.91465 0.0227 0.86946 0.0
C435 C 0.89808 0.98693 0.86821 0.0
H436 H 0.95975 0.90554 0.77669 0.0
H437 H 0.96126 0.9106 0.89006 0.0
H438 H 0.02147 0.93607 0.77565 0.0
H439 H 0.02336 0.93987 0.88917 0.0
H440 H 0.13029 0.03039 0.87419 0.0
H441 H 0.06923 0.99342 0.87646 0.0
H442 H 0.07363 0.9386 0.78556 0.0
H443 H 0.13533 0.97708 0.78242 0.0
C444 C 0.97321 0.91256 0.80155 0.0
C445 C 0.95527 0.90577 0.83351 0.0
C446 C 0.00888 0.93 0.80093 0.0
C447 C 0.02786 0.94094 0.83227 0.0
C448 C 0.00986 0.9327 0.86435 0.0
C449 C 0.9741 0.91558 0.86495 0.0
C450 C 0.11843 0.0104 0.85464 0.0
C451 C 0.13795 0.00695 0.82795 0.0
C452 C 0.08314 0.98881 0.85619 0.0
C453 C 0.06603 0.96264 0.83135 0.0
C454 C 0.08564 0.95869 0.80494 0.0
C455 C 0.12113 0.98066 0.80317 0.0
H456 H 0.01139 0.9469 0.2247 0.0
H457 H 0.95919 0.88788 0.31655 0.0
H458 H 0.97427 0.97073 0.22327 0.0
H459 H 0.92063 0.9109 0.3143 0.0
H460 H 0.88801 0.99217 0.32407 0.0
H461 H 0.9186 0.96105 0.32469 0.0
H462 H 0.91995 0.96153 0.21112 0.0
H463 H 0.89063 0.99415 0.2106 0.0
C464 C 0.99163 0.93859 0.24443 0.0
C465 C 0.98848 0.9155 0.27089 0.0
C466 C 0.96997 0.95212 0.24339 0.0
C467 C 0.94408 0.94275 0.26851 0.0
C468 C 0.94049 0.91915 0.29472 0.0
C469 C 0.96251 0.90578 0.29597 0.0
C470 C 0.8945 0.98539 0.29914 0.0
C471 C 0.88708 0.99609 0.26724 0.0
C472 C 0.91196 0.96725 0.29952 0.0
C473 C 0.92226 0.95892 0.268 0.0
C474 C 0.91329 0.96815 0.23603 0.0
C475 C 0.89616 0.98667 0.23566 0.0
H476 H 0.14574 0.98404 0.21315 0.0
H477 H 0.11259 0.98982 0.31797 0.0
H478 H 0.18084 0.04638 0.21186 0.0
H479 H 0.14562 0.05107 0.31608 0.0
H480 H 0.21993 0.16118 0.3182 0.0
H481 H 0.19764 0.09994 0.31829 0.0
H482 H 0.17789 0.09644 0.20674 0.0
H483 H 0.20218 0.15813 0.20652 0.0
C484 C 0.14605 0.99847 0.23596 0.0
C485 C 0.12613 0.98164 0.26558 0.0
C486 C 0.16596 0.03433 0.23515 0.0
C487 C 0.16632 0.05427 0.26387 0.0
C488 C 0.14694 0.03711 0.29365 0.0
C489 C 0.1275 1.00158 0.29459 0.0
C490 C 0.2113 0.14739 0.2936 0.0
C491 C 0.21264 0.16461 0.26244 0.0
C492 C 0.19814 0.11206 0.29363 0.0
C493 C 0.18506 0.09263 0.26264 0.0
C494 C 0.18783 0.1102 0.23114 0.0
C495 C 0.20168 0.14572 0.23101 0.0
H496 H 0.1301 0.23174 0.20485 0.0
H497 H 0.12815 0.2097 0.31535 0.0
H498 H 0.06796 0.20477 0.20492 0.0
H499 H 0.06676 0.181 0.31519 0.0
H500 H 0.95452 0.12188 0.20808 0.0
H501 H 0.01639 0.15545 0.20592 0.0
H502 H 0.0182 0.18296 0.31511 0.0
H503 H 0.95653 0.14719 0.31758 0.0
C504 C 0.11642 0.22103 0.22911 0.0
C505 C 0.13432 0.22323 0.26011 0.0
C506 C 0.0806 0.20523 0.2292 0.0
C507 C 0.06159 0.1905 0.26014 0.0
C508 C 0.07984 0.19269 0.29096 0.0
C509 C 0.11544 0.20906 0.29101 0.0
C510 C 0.96819 0.13541 0.23153 0.0
C511 C 0.9505 0.13163 0.26308 0.0
C512 C 1.00392 0.15493 0.2303 0.0
C513 C 0.0231 0.17193 0.26045 0.0
C514 C 1.00497 0.16953 0.2915 0.0
C515 C 0.96934 0.14928 0.29293 0.0
H516 H 0.85643 0.46178 0.11539 0.0
H517 H 0.87855 0.48076 0.22608 0.0
H518 H 0.82831 0.49494 0.11607 0.0
H519 H 0.85222 0.51638 0.22655 0.0
H520 H 0.76873 0.5456 0.22434 0.0
H521 H 0.8026 0.51779 0.2258 0.0
H522 H 0.83058 0.54575 0.11711 0.0
H523 H 0.79445 0.57118 0.11528 0.0
C524 C 0.85596 0.47374 0.13987 0.0
C525 C 0.86989 0.46856 0.17069 0.0
C526 C 0.83994 0.49322 0.14022 0.0
C527 C 0.83789 0.50899 0.17129 0.0
C528 C 0.85255 0.50437 0.20211 0.0
C529 C 0.86797 0.4841 0.20189 0.0
C530 C 0.78244 0.54609 0.20087 0.0
C531 C 0.77869 0.56044 0.16962 0.0
C532 C 0.80214 0.53018 0.2017 0.0
C533 C 0.81934 0.52879 0.17146 0.0
C534 C 0.817 0.545 0.14074 0.0
C535 C 0.79656 0.56008 0.13969 0.0
H536 H 0.57335 0.30823 0.21969 0.0
H537 H 0.53995 0.30802 0.11349 0.0
H538 H 0.60005 0.36996 0.22182 0.0
H539 H 0.56452 0.36959 0.11618 0.0
H540 H 0.64739 0.48054 0.113 0.0
H541 H 0.61512 0.41905 0.11323 0.0
H542 H 0.59911 0.42005 0.22515 0.0
H543 H 0.63367 0.48225 0.22503 0.0
C544 C 0.571 0.32135 0.19702 0.0
C545 C 0.55472 0.30313 0.1663 0.0
C546 C 0.58623 0.35697 0.19827 0.0
C547 C 0.58507 0.37546 0.16905 0.0
C548 C 0.56713 0.35681 0.13895 0.0
C549 C 0.55262 0.32128 0.13744 0.0
C550 C 0.6368 0.46778 0.13772 0.0
C551 C 0.64324 0.48659 0.16903 0.0
C552 C 0.61786 0.43215 0.13783 0.0
C553 C 0.60399 0.41388 0.16916 0.0
C554 C 0.60971 0.43281 0.20047 0.0
C555 C 0.62934 0.46864 0.20044 0.0
H556 H 0.62794 0.22429 0.21857 0.0
H557 H 0.63208 0.25361 0.11 0.0
H558 H 0.69002 0.25138 0.21952 0.0
H559 H 0.69345 0.28234 0.11139 0.0
H560 H 0.80444 0.31961 0.11132 0.0
H561 H 0.74296 0.28171 0.11133 0.0
H562 H 0.74012 0.30238 0.22191 0.0
H563 H 0.80179 0.33817 0.22209 0.0
C564 C 0.64205 0.23645 0.1949 0.0
C565 C 0.62481 0.23653 0.16421 0.0
C566 C 0.67783 0.25237 0.19546 0.0
C567 C 0.69743 0.26945 0.16554 0.0
C568 C 0.67984 0.26897 0.13482 0.0
C569 C 0.64426 0.25254 0.13407 0.0
C570 C 0.79066 0.31557 0.13571 0.0
C571 C 0.80809 0.332 0.16664 0.0
C572 C 0.75517 0.29406 0.13574 0.0
C573 C 0.73583 0.2891 0.16651 0.0
C574 C 0.75364 0.30486 0.19769 0.0
C575 C 0.78922 0.32568 0.19781 0.0
H576 H 0.65654 0.25607 0.65199 0.0
H577 H 0.64011 0.23131 0.54143 0.0
H578 H 0.62087 0.2819 0.64827 0.0
H579 H 0.60395 0.25687 0.53787 0.0
H580 H 0.5797 0.34603 0.53963 0.0
H581 H 0.60923 0.31335 0.54019 0.0
H582 H 0.56304 0.26945 0.64007 0.0
H583 H 0.53406 0.30222 0.6398 0.0
C584 C 0.64497 0.25568 0.62695 0.0
C585 C 0.6514 0.24158 0.59703 0.0
C586 C 0.62433 0.27044 0.62483 0.0
C587 C 0.60948 0.2716 0.59272 0.0
C588 C 0.61527 0.25684 0.56293 0.0
C589 C 0.63584 0.24193 0.56507 0.0
C590 C 0.57544 0.329 0.56143 0.0
C591 C 0.5547 0.32711 0.5898 0.0
C592 C 0.59236 0.3102 0.56176 0.0
C593 C 0.58894 0.28904 0.59044 0.0
C594 C 0.56694 0.28601 0.61793 0.0
C595 C 0.55011 0.30473 0.61763 0.0
H596 H 0.80122 0.3163 0.54571 0.0
H597 H 0.77941 0.31782 0.65573 0.0
H598 H 0.83639 0.37828 0.54604 0.0
H599 H 0.81216 0.37951 0.65579 0.0
H600 H 0.88603 0.49154 0.65631 0.0
H601 H 0.86144 0.42989 0.6556 0.0
H602 H 0.8364 0.42814 0.54556 0.0
H603 H 0.86329 0.48976 0.54603 0.0
C604 C 0.80391 0.32992 0.56998 0.0
C605 C 0.78756 0.31198 0.60069 0.0
C606 C 0.82386 0.36568 0.57018 0.0
C607 C 0.82732 0.3847 0.6009 0.0
C608 C 0.81115 0.36641 0.63168 0.0
C609 C 0.79198 0.33071 0.63165 0.0
C610 C 0.87577 0.47793 0.63187 0.0
C611 C 0.87676 0.4957 0.60124 0.0
C612 C 0.86117 0.44232 0.63145 0.0
C613 C 0.84617 0.42321 0.6006 0.0
C614 C 0.848 0.44136 0.5698 0.0
C615 C 0.86338 0.477 0.57005 0.0
H616 H 0.6231 0.47434 0.65341 0.0
H617 H 0.62277 0.45716 0.54198 0.0
H618 H 0.68479 0.51049 0.65232 0.0
H619 H 0.6846 0.49096 0.54097 0.0
H620 H 0.79808 0.5673 0.54282 0.0
H621 H 0.73593 0.54 0.54255 0.0
H622 H 0.73383 0.50977 0.65078 0.0
H623 H 0.79525 0.53891 0.65144 0.0
C624 C 0.6363 0.47829 0.62864 0.0
C625 C 0.61792 0.46287 0.59783 0.0
C626 C 0.67194 0.49875 0.62796 0.0
C627 C 0.69054 0.50355 0.59663 0.0
C628 C 0.6718 0.48865 0.56563 0.0
C629 C 0.63607 0.46898 0.56618 0.0
C630 C 0.78418 0.55511 0.56658 0.0
C631 C 0.80182 0.55567 0.5972 0.0
C632 C 0.74835 0.5391 0.56646 0.0
C633 C 0.72906 0.52242 0.59673 0.0
C634 C 0.74708 0.52296 0.62714 0.0
C635 C 0.7827 0.53959 0.62747 0.0
H636 H 0.55476 0.82443 0.44589 0.0
H637 H 0.52134 0.79455 0.55283 0.0
H638 H 0.52736 0.85884 0.4451 0.0
H639 H 0.49325 0.82833 0.55175 0.0
H640 H 0.4624 0.90906 0.54878 0.0
H641 H 0.49881 0.88373 0.55013 0.0
H642 H 0.4713 0.8506 0.44263 0.0
H643 H 0.43568 0.87651 0.44102 0.0
C644 C 0.54176 0.82531 0.46936 0.0
C645 C 0.54025 0.80644 0.49938 0.0
C646 C 0.52577 0.84495 0.46882 0.0
C647 C 0.50768 0.84629 0.49824 0.0
C648 C 0.50717 0.82835 0.52867 0.0
C649 C 0.52323 0.80876 0.52924 0.0
C650 C 0.4645 0.89684 0.52523 0.0
C651 C 0.44587 0.89486 0.49482 0.0
C652 C 0.48521 0.88199 0.52611 0.0
C653 C 0.48796 0.86475 0.4966 0.0
C654 C 0.47029 0.86391 0.46581 0.0
C655 C 0.44963 0.87874 0.46492 0.0
H656 H 0.30133 0.81568 0.56098 0.0
H657 H 0.31572 0.81145 0.44942 0.0
H658 H 0.2664 0.75341 0.56238 0.0
H659 H 0.28326 0.75008 0.45094 0.0
H660 H 0.2066 0.63998 0.45176 0.0
H661 H 0.23213 0.70166 0.45374 0.0
H662 H 0.26529 0.7022 0.56052 0.0
H663 H 0.23743 0.6403 0.55905 0.0
C664 C 0.29715 0.80149 0.53681 0.0
C665 C 0.31111 0.81872 0.50508 0.0
C666 C 0.27727 0.76564 0.53755 0.0
C667 C 0.27146 0.74606 0.50669 0.0
C668 C 0.28586 0.76366 0.47516 0.0
C669 C 0.30494 0.79923 0.47432 0.0
C670 C 0.21892 0.65331 0.4758 0.0
C671 C 0.22002 0.63517 0.50516 0.0
C672 C 0.23403 0.6889 0.47692 0.0
C673 C 0.25172 0.70763 0.50709 0.0
C674 C 0.25179 0.68916 0.53685 0.0
C675 C 0.23587 0.65346 0.536 0.0
H676 H 0.29646 0.58758 0.44463 0.0
H677 H 0.29613 0.55981 0.55308 0.0
H678 H 0.35808 0.61779 0.44427 0.0
H679 H 0.35818 0.58804 0.55229 0.0
H680 H 0.46903 0.67451 0.55345 0.0
H681 H 0.40746 0.6389 0.55399 0.0
H682 H 0.40872 0.61963 0.44277 0.0
H683 H 0.47023 0.6575 0.4421 0.0
C684 C 0.3096 0.58719 0.46826 0.0
C685 C 0.2912 0.57122 0.49891 0.0
C686 C 0.34527 0.60447 0.46803 0.0
C687 C 0.3639 0.60576 0.49826 0.0
C688 C 0.34526 0.5886 0.52861 0.0
C689 C 0.30948 0.57198 0.52906 0.0
C690 C 0.45615 0.66244 0.52915 0.0
C691 C 0.47463 0.66907 0.49768 0.0
C692 C 0.42058 0.64166 0.52944 0.0
C693 C 0.40233 0.62613 0.49838 0.0
C694 C 0.42124 0.63167 0.46717 0.0
C695 C 0.45676 0.65319 0.46675 0.0
H696 H 0.23906 0.67054 0.98496 0.0
H697 H 0.21861 0.65536 0.87366 0.0
H698 H 0.26791 0.63817 0.98278 0.0
H699 H 0.24586 0.62056 0.87163 0.0
H700 H 0.33016 0.59212 0.87284 0.0
H701 H 0.29603 0.61975 0.87238 0.0
H702 H 0.26571 0.58738 0.97971 0.0
H703 H 0.30192 0.56206 0.98062 0.0
C704 C 0.24006 0.6596 0.95999 0.0
C705 C 0.22629 0.66559 0.92948 0.0
C706 C 0.25653 0.64057 0.95876 0.0
C707 C 0.25928 0.62605 0.92709 0.0
C708 C 0.24492 0.63156 0.89654 0.0
C709 C 0.22896 0.65135 0.89766 0.0
C710 C 0.31592 0.59068 0.89623 0.0
C711 C 0.31903 0.57509 0.92688 0.0
C712 C 0.29608 0.60648 0.89597 0.0
C713 C 0.27812 0.60654 0.92616 0.0
C714 C 0.27988 0.58917 0.95619 0.0
C715 C 0.30041 0.57417 0.9567 0.0
H716 H 0.52491 0.82332 0.87599 0.0
H717 H 0.55239 0.82515 0.98481 0.0
H718 H 0.4992 0.7617 0.87494 0.0
H719 H 0.52891 0.7637 0.98339 0.0
H720 H 0.44792 0.65152 0.98475 0.0
H721 H 0.47955 0.71312 0.98465 0.0
H722 H 0.50115 0.71241 0.87405 0.0
H723 H 0.46719 0.65027 0.87392 0.0
C724 C 0.52616 0.81059 0.89954 0.0
C725 C 0.54051 0.82924 0.93057 0.0
C726 C 0.51152 0.77501 0.89893 0.0
C727 C 0.5114 0.75696 0.92917 0.0
C728 C 0.52732 0.77606 0.95975 0.0
C729 C 0.54122 0.81156 0.96056 0.0
C730 C 0.45968 0.66442 0.96041 0.0
C731 C 0.45486 0.64571 0.92932 0.0
C732 C 0.47821 0.70011 0.96036 0.0
C733 C 0.49329 0.71851 0.92934 0.0
C734 C 0.48947 0.69963 0.89842 0.0
C735 C 0.47022 0.66379 0.89834 0.0
H736 H 0.29188 0.79507 0.88101 0.0
H737 H 0.29105 0.81348 0.99209 0.0
H738 H 0.35344 0.83032 0.88024 0.0
H739 H 0.35264 0.85101 0.99115 0.0
H740 H 0.46397 0.87927 0.98938 0.0
H741 H 0.40243 0.85087 0.98984 0.0
H742 H 0.40327 0.88086 0.88173 0.0
H743 H 0.46518 0.90728 0.88085 0.0
C744 C 0.30484 0.80747 0.90516 0.0
C745 C 0.28648 0.80127 0.93666 0.0
C746 C 0.3404 0.82801 0.90474 0.0
C747 C 0.35875 0.84367 0.9357 0.0
C748 C 0.33997 0.83878 0.96687 0.0
C749 C 0.30444 0.81751 0.96743 0.0
C750 C 0.45107 0.88011 0.96575 0.0
C751 C 0.46964 0.89554 0.93503 0.0
C752 C 0.41547 0.8639 0.96605 0.0
C753 C 0.39714 0.8632 0.93582 0.0
C754 C 0.41598 0.8799 0.9054 0.0
C755 C 0.45167 0.89545 0.9049 0.0
H756 H 0.08604 0.37735 0.75897 0.0
H757 H 0.09924 0.2997 0.70822 0.0
H758 H 0.11517 0.41625 0.71025 0.0
H759 H 0.1281 0.33866 0.65899 0.0
H760 H 0.1278 0.40292 0.56046 0.0
H761 H 0.10941 0.36452 0.61093 0.0
H762 H 0.1721 0.4494 0.67905 0.0
H763 H 0.19099 0.48791 0.62817 0.0
C764 C 0.09536 0.3686 0.7375 0.0
C765 C 0.09004 0.33521 0.73757 0.0
C766 C 0.11233 0.39107 0.70961 0.0
C767 C 0.12406 0.38072 0.68054 0.0
C768 C 0.11929 0.3475 0.68083 0.0
C769 C 0.10286 0.32518 0.70914 0.0
C770 C 0.13834 0.41332 0.58608 0.0
C771 C 0.16102 0.44856 0.59013 0.0
C772 C 0.12779 0.39123 0.61508 0.0
C773 C 0.13903 0.40376 0.64923 0.0
C774 C 0.16271 0.43885 0.65319 0.0
C775 C 0.17384 0.46091 0.62396 0.0
H776 H 0.6195 0.78817 0.62635 0.0
H777 H 0.70461 0.80689 0.56079 0.0
H778 H 0.65767 0.80942 0.67754 0.0
H779 H 0.74261 0.82836 0.61153 0.0
H780 H 0.80799 0.88525 0.70727 0.0
H781 H 0.76923 0.8742 0.65753 0.0
H782 H 0.68976 0.78721 0.71203 0.0
H783 H 0.7284 0.79797 0.76127 0.0
C784 C 0.64644 0.79757 0.62264 0.0
C785 C 0.65888 0.79578 0.58933 0.0
C786 C 0.66832 0.80948 0.65207 0.0
C787 C 0.70336 0.82055 0.64885 0.0
C788 C 0.71597 0.82039 0.61515 0.0
C789 C 0.69407 0.80793 0.58598 0.0
C790 C 0.7821 0.86409 0.70885 0.0
C791 C 0.77148 0.84245 0.73834 0.0
C792 C 0.75989 0.8576 0.68021 0.0
C793 C 0.72622 0.82972 0.68057 0.0
C794 C 0.71527 0.80907 0.71078 0.0
C795 C 0.73759 0.81516 0.73902 0.0
H796 H 0.30066 1.0021 0.77043 0.0
H797 H 0.23305 0.01699 0.7025 0.0
H798 H 0.3154 0.97698 0.72146 0.0
H799 H 0.24709 0.99129 0.65399 0.0
H800 H 0.31458 0.99049 0.56532 0.0
H801 H 0.29332 0.00673 0.61566 0.0
H802 H 0.3002 0.9314 0.67889 0.0
H803 H 0.3224 0.9154 0.62786 0.0
C804 C 0.28839 0.99948 0.7453 0.0
C805 C 0.26576 0.01199 0.74069 0.0
C806 C 0.29683 0.9849 0.71705 0.0
C807 C 0.28295 0.98235 0.68322 0.0
C808 C 0.25909 0.9934 0.67919 0.0
C809 C 0.25074 0.00798 0.7073 0.0
C810 C 0.31132 0.97699 0.58978 0.0
C811 C 0.32036 0.95151 0.59217 0.0
C812 C 0.29879 0.98624 0.61888 0.0
C813 C 0.29475 0.97049 0.65181 0.0
C814 C 0.30314 0.94445 0.65421 0.0
C815 C 0.31559 0.93496 0.62478 0.0
H816 H 0.40071 0.13036 0.08379 0.0
H817 H 0.48021 0.21982 1.0325 0.0
H818 H 0.36325 0.11953 1.03381 0.0
H819 H 0.44228 0.2088 0.98176 0.0
H820 H 0.37414 0.14497 0.88313 0.0
H821 H 0.4142 0.16536 0.93269 0.0
H822 H 0.33132 0.14226 1.0036 0.0
H823 H 0.2915 0.12196 0.95456 0.0
C824 C 0.41018 0.14798 0.06191 0.0
C825 C 0.44362 0.17603 0.06241 0.0
C826 C 0.38851 0.14183 1.03316 0.0
C827 C 0.39951 0.16327 1.00353 0.0
C828 C 0.43291 0.19161 1.00398 0.0
C829 C 0.45459 0.19811 1.03321 0.0
C830 C 0.36451 0.14479 0.9092 0.0
C831 C 0.32931 0.13145 0.91459 0.0
C832 C 0.38758 0.15657 0.93769 0.0
C833 C 0.37608 0.15509 0.9724 0.0
C834 C 0.34116 0.14327 0.97745 0.0
C835 C 0.31824 0.13177 0.9491 0.0
H836 H 0.99517 0.25643 0.96345 0.0
H837 H 0.96959 0.31608 0.895 0.0
H838 H 0.97469 0.27465 1.01409 0.0
H839 H 0.94894 0.33392 0.94523 0.0
H840 H 0.89363 0.34363 1.04164 0.0
H841 H 0.90498 0.31535 0.99279 0.0
H842 H 0.99562 0.33027 1.04565 0.0
H843 H 0.98452 0.35868 0.09402 0.0
C844 C 0.98446 0.27275 0.95904 0.0
C845 C 0.98408 0.28473 0.92502 0.0
C846 C 0.973 0.28349 0.98814 0.0
C847 C 0.96024 0.30598 0.98393 0.0
C848 C 0.95828 0.31645 0.94964 0.0
C849 C 0.97027 0.30625 0.92075 0.0
C850 C 0.91576 0.34054 1.04301 0.0
C851 C 0.93824 0.35372 0.07179 0.0
C852 C 0.92239 0.32445 1.01489 0.0
C853 C 0.95131 0.32046 1.01509 0.0
C854 C 0.97297 0.3325 1.04456 0.0
C855 C 0.9667 0.34907 0.07227 0.0
H856 H 0.76745 0.63399 1.03992 0.0
H857 H 0.7573 0.71237 0.09316 0.0
H858 H 0.79463 0.67273 0.99006 0.0
H859 H 0.78469 0.751 1.04386 0.0
H860 H 0.85681 0.8223 0.95941 0.0
H861 H 0.83954 0.78399 1.01034 0.0
H862 H 0.77522 0.69876 0.94336 0.0
H863 H 0.79209 0.73694 0.89278 0.0
C864 C 0.77148 0.6596 1.04129 0.0
C865 C 0.75999 0.66989 0.07064 0.0
C866 C 0.78689 0.6818 1.01258 0.0
C867 C 0.79194 0.71516 1.01276 0.0
C868 C 0.78163 0.72575 1.04276 0.0
C869 C 0.76568 0.70343 0.07104 0.0
C870 C 0.83957 0.79529 0.95541 0.0
C871 C 0.82592 0.78283 0.92183 0.0
C872 C 0.82938 0.77331 0.98471 0.0
C873 C 0.80577 0.73815 0.98116 0.0
C874 C 0.79358 0.72552 0.94724 0.0
C875 C 0.80324 0.74752 0.91815 0.0
H876 H 0.89637 0.64206 0.47347 0.0
H877 H 0.97525 0.72422 0.53416 0.0
H878 H 0.91217 0.68003 0.42225 0.0
H879 H 0.99127 0.7615 0.48355 0.0
H880 H 1.00151 0.83232 0.39664 0.0
H881 H 0.97642 0.79328 0.44585 0.0
H882 H 0.95667 0.70873 0.37844 0.0
H883 H 0.98122 0.74791 0.32879 0.0
C884 C 0.91675 0.66825 0.47612 0.0
C885 C 0.93438 0.67986 0.50827 0.0
C886 C 0.9261 0.69003 0.44656 0.0
C887 C 0.95314 0.72418 0.44834 0.0
C888 C 0.97002 0.73578 0.48084 0.0
C889 C 0.96087 0.71412 0.51009 0.0
C890 C 0.99145 0.80537 0.39202 0.0
C891 C 0.99375 0.79359 0.35843 0.0
C892 C 0.97721 0.78283 0.42052 0.0
C893 C 0.9648 0.74757 0.41668 0.0
C894 C 0.96568 0.73553 0.38272 0.0
C895 C 0.97993 0.75815 0.35409 0.0
H896 H 0.35955 0.34069 0.33775 0.0
H897 H 0.28402 0.24829 0.38831 0.0
H898 H 0.39909 0.35145 0.38609 0.0
H899 H 0.32369 0.25929 0.43712 0.0
H900 H 0.38734 0.32222 0.53611 0.0
H901 H 0.34883 0.30233 0.48571 0.0
H902 H 0.4342 0.33054 0.41663 0.0
H903 H 0.47291 0.35023 0.46744 0.0
C904 C 0.35141 0.32247 0.35909 0.0
C905 C 0.31837 0.29367 0.35905 0.0
C906 C 0.37428 0.32855 0.38679 0.0
C907 C 0.36476 0.30633 0.41573 0.0
C908 C 0.33192 0.27713 0.41544 0.0
C909 C 0.30918 0.2707 0.38733 0.0
C910 C 0.39792 0.3236 0.51025 0.0
C911 C 0.43335 0.33785 0.50599 0.0
C912 C 0.37572 0.31206 0.48126 0.0
C913 C 0.38824 0.31491 0.44688 0.0
C914 C 0.4236 0.32815 0.44265 0.0
C915 C 0.44581 0.33916 0.47183 0.0
H916 H 0.77171 0.21564 0.47304 0.0
H917 H 0.78816 0.14757 0.53845 0.0
H918 H 0.79301 0.19879 0.42204 0.0
H919 H 0.80975 0.13114 0.48786 0.0
H920 H 0.86708 0.12317 0.3924 0.0
H921 H 0.85626 0.15087 0.44221 0.0
H922 H 0.76978 0.14404 0.38739 0.0
H923 H 0.78027 0.11612 0.3381 0.0
C924 C 0.78065 0.19776 0.47677 0.0
C925 C 0.77818 0.18301 0.50996 0.0
C926 C 0.79259 0.18784 0.44744 0.0
C927 C 0.80302 0.16342 0.45067 0.0
C928 C 0.80225 0.15015 0.48428 0.0
C929 C 0.78975 0.15955 0.51335 0.0
C930 C 0.84609 0.12806 0.39077 0.0
C931 C 0.8245 0.11723 0.36118 0.0
C932 C 0.83973 0.14377 0.41943 0.0
C933 C 0.81206 0.14973 0.41898 0.0
C934 C 0.79147 0.14023 0.38869 0.0
C935 C 0.79741 0.12399 0.36043 0.0
H936 H 0.7186 0.99069 0.20604 0.0
H937 H 0.80448 0.00997 0.14144 0.0
H938 H 0.68128 0.97 0.15468 0.0
H939 H 0.76705 0.98956 0.08973 0.0
H940 H 0.69773 1.00174 1.00498 0.0
H941 H 0.73549 0.01233 0.05504 0.0
H942 H 0.65539 0.92457 0.10796 0.0
H943 H 0.61755 0.91367 0.05744 0.0
C944 C 0.72946 0.98993 0.18095 0.0
C945 C 0.76466 1.00198 0.17806 0.0
C946 C 0.70796 0.97796 0.15142 0.0
C947 C 0.72102 0.97822 0.11783 0.0
C948 C 0.75606 0.9892 0.11508 0.0
C949 C 0.77751 1.00061 0.14483 0.0
C950 C 0.68822 0.98436 1.02706 0.0
C951 C 0.65443 0.95685 1.02702 0.0
C952 C 0.71002 0.99037 0.05578 0.0
C953 C 0.69863 0.96941 0.08577 0.0
C954 C 0.66506 0.94141 0.08548 0.0
C955 C 0.64338 0.93501 0.05638 0.0
H956 H 0.20043 0.78597 0.06545 0.0
H957 H 0.10783 0.76814 1.01471 0.0
H958 H 0.18804 0.81257 0.11537 0.0
H959 H 0.09565 0.7945 0.06392 0.0
H960 H 0.09559 0.86999 0.1407 0.0
H961 H 0.11565 0.84976 0.09217 0.0
H962 H 0.14583 0.79705 0.16521 0.0
H963 H 0.12565 0.8174 0.21419 0.0
C964 C 0.17765 0.78797 0.06471 0.0
C965 C 0.15518 0.77479 1.03586 0.0
C966 C 0.17039 0.80302 0.09349 0.0
C967 C 0.14081 0.8059 0.09387 0.0
C968 C 0.11886 0.79326 0.06463 0.0
C969 C 0.1258 0.77788 1.03633 0.0
C970 C 0.10687 0.85445 0.1467 0.0
C971 C 0.1087 0.84532 0.18171 0.0
C972 C 0.11823 0.84259 0.11865 0.0
C973 C 0.13209 0.82132 0.12446 0.0
C974 C 0.13546 0.81345 0.15956 0.0
C975 C 0.12378 0.82512 0.18774 0.0
H976 H 0.32552 0.49779 0.05509 0.0
H977 H 0.33307 0.41812 1.00132 0.0
H978 H 0.29751 0.45906 0.10473 0.0
H979 H 0.30507 0.37959 0.05046 0.0
H980 H 0.23383 0.30894 0.13536 0.0
H981 H 0.25122 0.34713 0.08432 0.0
H982 H 0.31534 0.43252 0.15126 0.0
H983 H 0.29821 0.39453 0.2019 0.0
C984 C 0.32076 0.47192 0.05355 0.0
C985 C 0.33178 0.46127 1.02412 0.0
C986 C 0.30487 0.44971 0.08214 0.0
C987 C 0.29897 0.41603 0.08183 0.0
C988 C 0.30876 0.40509 0.05171 0.0
C989 C 0.32509 0.42737 1.02351 0.0
C990 C 0.25105 0.33596 0.1393 0.0
C991 C 0.26457 0.34852 0.17289 0.0
C992 C 0.26131 0.35788 0.10994 0.0
C993 C 0.28492 0.39307 0.11344 0.0
C994 C 0.29697 0.40577 0.14737 0.0
C995 C 0.28718 0.38385 0.17651 0.0
H996 H 0.06244 0.46338 0.43107 0.0
H997 H 0.14139 0.55083 0.37669 0.0
H998 H 0.02362 0.45204 0.38192 0.0
H999 H 0.1024 0.53926 0.32705 0.0
H1000 H 0.03811 0.47255 0.23033 0.0
H1001 H 0.07609 0.49397 0.28104 0.0
H1002 H 0.99081 0.47295 0.34751 0.0
H1003 H 0.95261 0.45162 0.29637 0.0
C1004 C 0.07145 0.4805 0.40876 0.0
C1005 C 0.10523 0.50801 0.40797 0.0
C1006 C 0.04901 0.47407 0.38055 0.0
C1007 C 0.0597 0.4946 0.35026 0.0
C1008 C 0.09325 0.52271 0.34978 0.0
C1009 C 0.1156 0.52952 0.37838 0.0
C1010 C 0.02744 0.47302 0.25563 0.0
C1011 C 0.99214 0.46026 0.25909 0.0
C1012 C 0.04935 0.48549 0.28479 0.0
C1013 C 0.03669 0.48514 0.31861 0.0
C1014 C 1.00152 0.4734 0.32197 0.0
C1015 C 0.9796 0.46143 0.29257 0.0
H1016 H 0.64639 0.68553 0.42783 0.0
H1017 H 0.56064 0.67896 0.37175 0.0
H1018 H 0.65775 0.65792 0.37894 0.0
H1019 H 0.57223 0.65138 0.32236 0.0
H1020 H 0.63876 0.65176 0.22677 0.0
H1021 H 0.61748 0.66908 0.27686 0.0
H1022 H 0.63666 0.6043 0.34461 0.0
H1023 H 0.65786 0.58669 0.29412 0.0
C1024 C 0.62966 0.67786 0.40518 0.0
C1025 C 0.6026 0.68469 0.4039 0.0
C1026 C 0.6361 0.66177 0.3771 0.0
C1027 C 0.61604 0.65234 0.34642 0.0
C1028 C 0.58843 0.65843 0.34538 0.0
C1029 C 0.5816 0.67408 0.37384 0.0
C1030 C 0.63789 0.64064 0.25222 0.0
C1031 C 0.65011 0.61773 0.2562 0.0
C1032 C 0.62551 0.65055 0.28104 0.0
C1033 C 0.62542 0.63835 0.31507 0.0
C1034 C 0.63658 0.61453 0.31893 0.0
C1035 C 0.64847 0.60413 0.28988 0.0
H1036 H 0.43163 0.08121 0.23215 0.0
H1037 H 0.53238 0.1376 0.27753 0.0
H1038 H 0.41238 0.04293 0.28204 0.0
H1039 H 0.51265 0.09796 0.32798 0.0
H1040 H 0.45642 0.98805 0.3921 0.0
H1041 H 0.48333 0.02764 0.34237 0.0
H1042 H 0.4059 0.05591 0.34805 0.0
H1043 H 0.37966 0.01749 0.39742 0.0
C1044 C 0.44999 0.0854 0.25256 0.0
C1045 C 0.48372 0.11303 0.25054 0.0
C1046 C 0.43875 0.06325 0.28136 0.0
C1047 C 0.46079 0.06735 0.30922 0.0
C1048 C 0.49499 0.09399 0.30689 0.0
C1049 C 0.50627 0.11677 0.278 0.0
C1050 C 0.44524 1.00281 0.38275 0.0
C1051 C 0.41564 0.99925 0.39888 0.0
C1052 C 0.46083 0.02568 0.35443 0.0
C1053 C 0.44676 0.04497 0.34112 0.0
C1054 C 0.41738 0.04143 0.35743 0.0
C1055 C 0.40231 0.01927 0.3859 0.0
H1056 H 0.66051 0.08328 0.66839 0.0
H1057 H 0.66109 0.16555 0.72583 0.0
H1058 H 0.63389 0.0452 0.71826 0.0
H1059 H 0.63468 0.12734 0.7762 0.0
H1060 H 0.63794 0.06084 0.87042 0.0
H1061 H 0.65393 0.09885 0.81981 0.0
H1062 H 0.58138 0.01526 0.75569 0.0
H1063 H 0.56503 0.97711 0.80672 0.0
C1064 C 0.65454 0.09318 0.69153 0.0
C1065 C 0.66306 0.12764 0.69291 0.0
C1066 C 0.63907 0.0712 0.72018 0.0
C1067 C 0.63211 0.08302 0.75152 0.0
C1068 C 0.63981 0.1173 0.75265 0.0
C1069 C 0.65475 0.1392 0.72363 0.0
C1070 C 0.62487 0.0506 0.84571 0.0
C1071 C 0.60011 0.01576 0.84285 0.0
C1072 C 0.63401 0.07253 0.81661 0.0
C1073 C 0.61915 0.06029 0.7834 0.0
C1074 C 0.5936 0.02564 0.78072 0.0
C1075 C 0.58397 1.00376 0.81009 0.0
H1076 H 0.0559 0.66065 0.87477 0.0
H1077 H 0.14074 0.68604 0.80592 0.0
H1078 H 0.01704 0.64021 0.82463 0.0
H1079 H 0.1017 0.6659 0.75536 0.0
H1080 H 0.02681 0.67454 0.67535 0.0
H1081 H 0.06654 0.68651 0.72386 0.0
H1082 H 0.99126 0.59577 0.77701 0.0
H1083 H 0.95143 0.58349 0.72798 0.0
C1084 C 0.06626 0.66139 0.84894 0.0
C1085 C 0.10161 0.675 0.84459 0.0
C1086 C 0.04385 0.64954 0.82009 0.0
C1087 C 0.05604 0.65145 0.7857 0.0
C1088 C 0.09131 0.6642 0.78137 0.0
C1089 C 0.11373 0.67549 0.81043 0.0
C1090 C 0.01872 0.65688 0.6972 0.0
C1091 C 0.98569 0.62806 0.69762 0.0
C1092 C 0.0417 0.66367 0.72501 0.0
C1093 C 0.03231 0.64221 0.7546 0.0
C1094 C 0.99943 0.61304 0.75483 0.0
C1095 C 0.97659 0.60587 0.7266 0.0
H1096 H 0.53197 0.44875 0.72617 0.0
H1097 H 0.44447 0.4393 0.67118 0.0
H1098 H 0.52103 0.47755 0.7749 0.0
H1099 H 0.43389 0.46832 0.71932 0.0
H1100 H 0.43655 0.54329 0.80165 0.0
H1101 H 0.45709 0.52427 0.75168 0.0
H1102 H 0.47513 0.45972 0.82099 0.0
H1103 H 0.45426 0.47827 0.87051 0.0
C1104 C 0.51072 0.45321 0.7242 0.0
C1105 C 0.48901 0.44143 0.69472 0.0
C1106 C 0.50432 0.46959 0.75223 0.0
C1107 C 0.47651 0.47536 0.7512 0.0
C1108 C 0.45569 0.46471 0.72107 0.0
C1109 C 0.46166 0.4478 0.69348 0.0
C1110 C 0.44561 0.52563 0.80633 0.0
C1111 C 0.44374 0.5124 0.84023 0.0
C1112 C 0.4571 0.51444 0.77761 0.0
C1113 C 0.4677 0.49025 0.78212 0.0
C1114 C 0.46748 0.47849 0.81638 0.0
C1115 C 0.4554 0.48912 0.84485 0.0
H1116 H 0.12498 0.38683 0.8374 0.0
H1117 H 0.13041 0.32502 0.92099 0.0
H1118 H 0.18579 0.42323 0.83919 0.0
H1119 H 0.19183 0.36349 0.9246 0.0
H1120 H 0.30117 0.40825 0.89224 0.0
H1121 H 0.23924 0.37366 0.89034 0.0
H1122 H 0.23338 0.4642 0.86803 0.0
H1123 H 0.29507 0.49792 0.86744 0.0
C1124 C 0.13907 0.38156 0.85699 0.0
C1125 C 0.12294 0.35259 0.87865 0.0
C1126 C 0.17411 0.40269 0.8581 0.0
C1127 C 0.19381 0.39591 0.88154 0.0
C1128 C 0.1774 0.3687 0.90542 0.0
C1129 C 0.14218 0.34701 0.90382 0.0
C1130 C 0.28644 0.42033 0.8858 0.0
C1131 C 0.30258 0.45548 0.8796 0.0
C1132 C 0.25106 0.40077 0.88548 0.0
C1133 C 0.23134 0.41629 0.87985 0.0
C1134 C 0.24773 0.45132 0.87214 0.0
C1135 C 0.2831 0.47066 0.87154 0.0
H1136 H 0.71947 0.8159 0.85088 0.0
H1137 H 0.79053 0.8938 0.92191 0.0
H1138 H 0.68262 0.8395 0.85381 0.0
H1139 H 0.75167 0.91592 0.92749 0.0
H1140 H 0.70536 0.97753 0.88965 0.0
H1141 H 0.7387 0.94901 0.89079 0.0
H1142 H 0.64563 0.85143 0.88131 0.0
H1143 H 0.61326 0.88036 0.87672 0.0
C1144 C 0.72666 0.83745 0.8682 0.0
C1145 C 0.75842 0.85377 0.88527 0.0
C1146 C 0.70526 0.85089 0.87009 0.0
C1147 C 0.71465 0.8803 0.89005 0.0
C1148 C 0.74443 0.89406 0.91069 0.0
C1149 C 0.76639 0.88103 0.90809 0.0
C1150 C 0.69246 0.95009 0.88646 0.0
C1151 C 0.65703 0.93106 0.88259 0.0
C1152 C 0.71131 0.93364 0.88808 0.0
C1153 C 0.69478 0.89783 0.88705 0.0
C1154 C 0.65933 0.87902 0.88183 0.0
C1155 C 0.64071 0.89558 0.87895 0.0
H1156 H 0.14079 0.81328 0.93467 0.0
H1157 H 0.21201 0.82189 0.85414 0.0
H1158 H 0.16274 0.87369 0.9322 0.0
H1159 H 0.23275 0.88303 0.85008 0.0
H1160 H 0.18489 0.97639 0.8947 0.0
H1161 H 0.16363 0.91595 0.89677 0.0
H1162 H 0.26616 0.93388 0.88513 0.0
H1163 H 0.28755 0.99503 0.88102 0.0
C1164 C 0.16062 0.82796 0.91572 0.0
C1165 C 0.17485 0.81282 0.8947 0.0
C1166 C 0.17314 0.86272 0.91426 0.0
C1167 C 0.19961 0.88313 0.89113 0.0
C1168 C 0.21276 0.86789 0.86869 0.0
C1169 C 0.20052 0.8329 0.87056 0.0
C1170 C 0.20313 0.96767 0.89322 0.0
C1171 C 0.23793 0.99049 0.8876 0.0
C1172 C 0.19086 0.9329 0.89435 0.0
C1173 C 0.2132 0.92018 0.89076 0.0
C1174 C 0.2483 0.94302 0.88711 0.0
C1175 C 0.26059 0.97799 0.88538 0.0
H1176 H 0.46758 0.31027 0.707 0.0
H1177 H 0.39918 0.27926 0.61777 0.0
H1178 H 0.43026 0.25588 0.73535 0.0
H1179 H 0.36237 0.22469 0.6459 0.0
H1180 H 0.28482 0.16037 0.73112 0.0
H1181 H 0.32513 0.20961 0.69755 0.0
H1182 H 0.40698 0.19344 0.73088 0.0
H1183 H 0.36664 0.14419 0.76525 0.0
C1184 C 0.44479 0.29173 0.6933 0.0
C1185 C 0.43592 0.29922 0.6605 0.0
C1186 C 0.42363 0.26053 0.7094 0.0
C1187 C 0.3934 0.23633 0.69285 0.0
C1188 C 0.3853 0.24323 0.6594 0.0
C1189 C 0.40635 0.27443 0.64337 0.0
C1190 C 0.31138 0.1671 0.7312 0.0
C1191 C 0.32261 0.14849 0.75099 0.0
C1192 C 0.33437 0.19516 0.71171 0.0
C1193 C 0.36906 0.20515 0.71158 0.0
C1194 C 0.38033 0.18629 0.73082 0.0
C1195 C 0.35726 0.1581 0.75037 0.0
H1196 H 0.82859 0.19929 0.6272 0.0
H1197 H 0.78013 0.20972 0.72039 0.0
H1198 H 0.87853 0.21128 0.66195 0.0
H1199 H 0.82939 0.2204 0.7553 0.0
H1200 H 0.93934 0.28341 0.79349 0.0
H1201 H 0.88699 0.26629 0.76119 0.0
H1202 H 0.8982 0.18837 0.70762 0.0
H1203 H 0.95134 0.20635 0.73909 0.0
C1204 C 0.82851 0.20373 0.65517 0.0
C1205 C 0.80082 0.20397 0.67113 0.0
C1206 C 0.85692 0.21035 0.67507 0.0
C1207 C 0.8578 0.21688 0.71126 0.0
C1208 C 0.82961 0.21609 0.72733 0.0
C1209 C 0.80144 0.20992 0.70738 0.0
C1210 C 0.93051 0.26251 0.77496 0.0
C1211 C 0.94944 0.24639 0.76844 0.0
C1212 C 0.90046 0.25257 0.75664 0.0
C1213 C 0.88864 0.22605 0.73189 0.0
C1214 C 0.90709 0.20928 0.72613 0.0
C1215 C 0.93737 0.21949 0.74417 0.0
H1216 H 0.89491 0.82649 0.73124 0.0
H1217 H 0.81361 0.73874 0.78361 0.0
H1218 H 0.90844 0.78912 0.69759 0.0
H1219 H 0.82621 0.70136 0.74906 0.0
H1220 H 0.88635 0.6509 0.71581 0.0
H1221 H 0.87055 0.68766 0.74669 0.0
H1222 H 0.88684 0.74647 0.65188 0.0
H1223 H 0.90396 0.71027 0.62118 0.0
C1224 C 0.87975 0.79919 0.73522 0.0
C1225 C 0.85345 0.78542 0.76011 0.0
C1226 C 0.88731 0.77783 0.71584 0.0
C1227 C 0.8684 0.74238 0.72081 0.0
C1228 C 0.8416 0.72864 0.74518 0.0
C1229 C 0.83435 0.75 0.76488 0.0
C1230 C 0.88644 0.67158 0.70151 0.0
C1231 C 0.89651 0.67791 0.66619 0.0
C1232 C 0.87719 0.69251 0.71913 0.0
C1233 C 0.8774 0.71984 0.70163 0.0
C1234 C 0.88694 0.72585 0.66611 0.0
C1235 C 0.8966 0.70511 0.64855 0.0
H1236 H 0.97091 0.75259 0.21537 0.0
H1237 H 0.95405 0.83832 0.2195 0.0
H1238 H 0.90933 0.71365 0.21648 0.0
H1239 H 0.89349 0.79993 0.22284 0.0
H1240 H 0.78826 0.72368 0.18353 0.0
H1241 H 0.84859 0.76292 0.18724 0.0
H1242 H 0.86031 0.69243 0.25429 0.0
H1243 H 0.79934 0.65169 0.24869 0.0
C1244 C 0.95409 0.76305 0.21616 0.0
C1245 C 0.96726 0.79843 0.21673 0.0
C1246 C 0.91894 0.74084 0.21747 0.0
C1247 C 0.89658 0.75374 0.21999 0.0
C1248 C 0.90992 0.78913 0.22027 0.0
C1249 C 0.94477 0.81118 0.21819 0.0
C1250 C 0.80351 0.71664 0.19957 0.0
C1251 C 0.78917 0.68443 0.21547 0.0
C1252 C 0.8382 0.7393 0.20185 0.0
C1253 C 0.85933 0.73063 0.22072 0.0
C1254 C 0.84469 0.69943 0.23888 0.0
C1255 C 0.80976 0.6764 0.23622 0.0
H1256 H 0.30531 0.2456 0.17159 0.0
H1257 H 0.36714 0.30822 0.25809 0.0
H1258 H 0.34405 0.22348 0.16429 0.0
H1259 H 0.40396 0.28467 0.25239 0.0
H1260 H 0.478 0.25128 0.2202 0.0
H1261 H 0.44488 0.27984 0.22098 0.0
H1262 H 0.35388 0.18435 0.19582 0.0
H1263 H 0.38781 0.1565 0.19268 0.0
C1264 C 0.32735 0.25499 0.18865 0.0
C1265 C 0.33286 0.27821 0.2157 0.0
C1266 C 0.34923 0.24198 0.18484 0.0
C1267 C 0.37657 0.2517 0.20834 0.0
C1268 C 0.38331 0.27672 0.23371 0.0
C1269 C 0.36194 0.29011 0.23708 0.0
C1270 C 0.45077 0.23635 0.21565 0.0
C1271 C 0.4352 0.20176 0.20675 0.0
C1272 C 0.43182 0.2527 0.21582 0.0
C1273 C 0.3968 0.23446 0.208 0.0
C1274 C 0.38099 0.19935 0.2009 0.0
C1275 C 0.40015 0.18322 0.19984 0.0
H1276 H 0.88169 0.14907 0.18484 0.0
H1277 H 0.79327 0.13987 0.23795 0.0
H1278 H 0.90397 0.20967 0.17783 0.0
H1279 H 0.81505 0.20064 0.2298 0.0
H1280 H 0.89078 0.31331 0.25714 0.0
H1281 H 0.86198 0.25089 0.25714 0.0
H1282 H 0.89714 0.25274 0.15113 0.0
H1283 H 0.92706 0.3139 0.15178 0.0
C1284 C 0.86641 0.15981 0.19376 0.0
C1285 C 0.83611 0.14011 0.21232 0.0
C1286 C 0.87918 0.19455 0.18988 0.0
C1287 C 0.86147 0.20986 0.20397 0.0
C1288 C 0.82958 0.18953 0.21962 0.0
C1289 C 0.81699 0.15481 0.22387 0.0
C1290 C 0.89271 0.30019 0.23424 0.0
C1291 C 0.9118 0.31845 0.20495 0.0
C1292 C 0.87585 0.26463 0.23393 0.0
C1293 C 0.87744 0.24713 0.20406 0.0
C1294 C 0.89605 0.26553 0.17473 0.0
C1295 C 0.91336 0.30071 0.17531 0.0
H1296 H 0.7209 0.9679 0.31456 0.0
H1297 H 0.80966 0.97812 0.36816 0.0
H1298 H 0.68482 0.91617 0.34745 0.0
H1299 H 0.77362 0.92556 0.40021 0.0
H1300 H 0.69308 0.84998 0.47647 0.0
H1301 H 0.73026 0.90283 0.44527 0.0
H1302 H 0.67365 0.85864 0.34946 0.0
H1303 H 0.63589 0.80651 0.38081 0.0
C1304 C 0.73268 0.95891 0.3332 0.0
C1305 C 0.76798 0.97686 0.33889 0.0
C1306 C 0.71208 0.92925 0.35189 0.0
C1307 C 0.7265 0.91681 0.37617 0.0
C1308 C 0.76183 0.93486 0.38196 0.0
C1309 C 0.78242 0.96479 0.36355 0.0
C1310 C 0.68874 0.85165 0.44872 0.0
C1311 C 0.6616 0.82439 0.43102 0.0
C1312 C 0.71004 0.88176 0.43088 0.0
C1313 C 0.70465 0.88482 0.39505 0.0
C1314 C 0.67792 0.85722 0.37727 0.0
C1315 C 0.65642 0.82734 0.39516 0.0
H1316 H 0.14192 0.92109 0.36544 0.0
H1317 H 0.12313 0.82163 0.33284 0.0
H1318 H 0.18966 0.92873 0.40075 0.0
H1319 H 0.17099 0.82929 0.36899 0.0
H1320 H 0.25834 0.9249 0.48123 0.0
H1321 H 0.20345 0.90634 0.4533 0.0
H1322 H 0.23356 0.86755 0.36502 0.0
H1323 H 0.28811 0.88537 0.39309 0.0
C1324 C 0.14777 0.90071 0.36603 0.0
C1325 C 0.12892 0.87085 0.34614 0.0
C1326 C 0.17492 0.90497 0.38659 0.0
C1327 C 0.18379 0.87949 0.38769 0.0
C1328 C 0.16466 0.84935 0.36836 0.0
C1329 C 0.13735 0.84502 0.34775 0.0
C1330 C 0.25314 0.91216 0.456 0.0
C1331 C 0.27774 0.90721 0.43898 0.0
C1332 C 0.22176 0.90153 0.44009 0.0
C1333 C 0.21454 0.88586 0.40694 0.0
C1334 C 0.23843 0.87934 0.39074 0.0
C1335 C 0.26977 0.88987 0.40667 0.0
H1336 H 0.19325 0.47744 0.38015 0.0
H1337 H 0.18093 0.41725 0.47291 0.0
H1338 H 0.2057 0.43995 0.34564 0.0
H1339 H 0.19471 0.38043 0.43861 0.0
H1340 H 0.18952 0.30286 0.36041 0.0
H1341 H 0.17254 0.33825 0.39276 0.0
H1342 H 0.25093 0.42773 0.33981 0.0
H1343 H 0.267 0.39225 0.30658 0.0
C1344 C 0.19346 0.45631 0.39319 0.0
C1345 C 0.18625 0.45021 0.42917 0.0
C1346 C 0.2007 0.43495 0.37347 0.0
C1347 C 0.20131 0.4074 0.38949 0.0
C1348 C 0.1939 0.40119 0.42547 0.0
C1349 C 0.18622 0.42233 0.44513 0.0
C1350 C 0.20301 0.3301 0.35568 0.0
C1351 C 0.22962 0.34491 0.33117 0.0
C1352 C 0.1934 0.35033 0.37427 0.0
C1353 C 0.21051 0.38572 0.36888 0.0
C1354 C 0.23693 0.40044 0.34411 0.0
C1355 C 0.24626 0.38017 0.32522 0.0
H1356 H 0.96641 0.47113 0.04916 0.0
H1357 H 0.02456 0.51935 0.14316 0.0
H1358 H 0.00594 0.52012 1.01467 0.0
H1359 H 0.06355 0.56914 0.10869 0.0
H1360 H 0.14457 0.6379 1.03126 0.0
H1361 H 0.1069 0.58608 0.06365 0.0
H1362 H 0.02022 0.57834 1.00777 0.0
H1363 H 0.05781 0.62923 0.97463 0.0
C1364 C 0.98743 0.49243 0.06249 0.0
C1365 C 0.99247 0.49168 0.09879 0.0
C1366 C 0.01001 0.52043 1.04276 0.0
C1367 C 0.03768 0.54833 0.05908 0.0
C1368 C 0.04267 0.54766 0.09543 0.0
C1369 C 0.02029 0.51939 0.11514 0.0
C1370 C 0.11747 0.62491 1.02581 0.0
C1371 C 0.10399 0.63752 1.00066 0.0
C1372 C 0.09597 0.59546 1.04443 0.0
C1373 C 0.06073 0.57844 1.0383 0.0
C1374 C 0.04738 0.59074 1.01265 0.0
C1375 C 0.06888 0.61993 0.99379 0.0
H1376 H 0.47274 0.58398 1.02776 0.0
H1377 H 0.47841 0.50257 0.97491 0.0
H1378 H 0.52376 0.59762 0.06105 0.0
H1379 H 0.52884 0.51542 1.0092 0.0
H1380 H 0.63881 0.57347 1.04784 0.0
H1381 H 0.58753 0.55877 1.01456 0.0
H1382 H 0.54224 0.57473 0.10727 0.0
H1383 H 0.59416 0.59072 0.14028 0.0
C1384 C 0.48477 0.56883 1.02351 0.0
C1385 C 0.47168 0.54221 0.99886 0.0
C1386 C 0.51384 0.5765 1.04271 0.0
C1387 C 0.53012 0.55743 1.03788 0.0
C1388 C 0.51703 0.53081 1.01315 0.0
C1389 C 0.48815 0.52339 0.99362 0.0
C1390 C 0.61787 0.57376 0.06113 0.0
C1391 C 0.62046 0.58343 0.09655 0.0
C1392 C 0.58844 0.56515 1.04212 0.0
C1393 C 0.56093 0.56566 0.05831 0.0
C1394 C 0.56331 0.57472 0.09395 0.0
C1395 C 0.59292 0.58372 0.11287 0.0
H1396 H 0.48599 0.07242 0.11692 0.0
H1397 H 0.5694 0.16191 0.06907 0.0
H1398 H 0.50291 0.03652 0.08544 0.0
H1399 H 0.58691 0.12616 1.03853 0.0
H1400 H 0.58204 0.0488 0.95874 0.0
H1401 H 0.56625 0.08509 0.99113 0.0
H1402 H 0.54836 0.02345 0.08402 0.0
H1403 H 0.56305 0.98658 0.05142 0.0
C1404 C 0.5081 0.08438 0.09995 0.0
C1405 C 0.52624 0.11981 0.09513 0.0
C1406 C 0.51787 0.0639 0.08208 0.0
C1407 C 0.54613 0.07863 0.05949 0.0
C1408 C 0.56463 0.11413 0.05527 0.0
C1409 C 0.55468 0.13455 0.07283 0.0
C1410 C 0.57487 0.04315 0.98611 0.0
C1411 C 0.57365 0.01492 1.00258 0.0
C1412 C 0.56597 0.06395 1.00466 0.0
C1413 C 0.55606 0.05698 1.04003 0.0
C1414 C 0.55535 0.02903 0.0566 0.0
C1415 C 0.56391 0.00805 1.03798 0.0
H1416 H 0.62953 0.16277 0.52669 0.0
H1417 H 0.63565 0.0753 0.56133 0.0
H1418 H 0.56798 0.12765 0.52223 0.0
H1419 H 0.57412 0.03955 0.55511 0.0
H1420 H 0.4643 0.9949 0.58439 0.0
H1421 H 0.52585 0.0327 0.5872 0.0
H1422 H 0.52197 0.08301 0.4922 0.0
H1423 H 0.4609 0.04693 0.49043 0.0
C1424 C 0.61775 0.13571 0.53198 0.0
C1425 C 0.63704 0.12159 0.54442 0.0
C1426 C 0.5825 0.11562 0.52966 0.0
C1427 C 0.5662 0.081 0.53908 0.0
C1428 C 0.58592 0.0664 0.5488 0.0
C1429 C 0.62109 0.08663 0.55177 0.0
C1430 C 0.47658 0.01457 0.56464 0.0
C1431 C 0.45779 0.01781 0.53718 0.0
C1432 C 0.51182 0.03585 0.5659 0.0
C1433 C 0.52874 0.06033 0.53948 0.0
C1434 C 0.5097 0.06456 0.51304 0.0
C1435 C 0.47457 0.04375 0.51208 0.0
H1436 H 0.97305 0.57372 0.51393 0.0
H1437 H 0.03188 0.63619 0.60197 0.0
H1438 H 0.01037 0.54952 0.51093 0.0
H1439 H 0.06696 0.6105 0.60061 0.0
H1440 H 0.1431 0.57878 0.5695 0.0
H1441 H 0.10895 0.60607 0.57137 0.0
H1442 H 0.01935 0.51036 0.54365 0.0
H1443 H 0.05438 0.48373 0.53945 0.0
C1444 C 0.99409 0.58256 0.53228 0.0
C1445 C 0.99932 0.60664 0.55826 0.0
C1446 C 0.01508 0.56832 0.531 0.0
C1447 C 0.04118 0.5776 0.55602 0.0
C1448 C 0.04735 0.60295 0.58075 0.0
C1449 C 0.02699 0.61763 0.58154 0.0
C1450 C 0.11594 0.56341 0.56478 0.0
C1451 C 0.1012 0.52926 0.5544 0.0
C1452 C 0.09635 0.57905 0.56562 0.0
C1453 C 0.06152 0.56051 0.55702 0.0
C1454 C 0.04633 0.52559 0.54927 0.0
C1455 C 0.06614 0.51017 0.54757 0.0
H1456 H 0.52948 0.64664 0.5642 0.0
H1457 H 0.62431 0.65364 0.53319 0.0
H1458 H 0.50229 0.58498 0.56573 0.0
H1459 H 0.5978 0.59186 0.5369 0.0
H1460 H 0.53567 0.48184 0.50952 0.0
H1461 H 0.55793 0.54307 0.50467 0.0
H1462 H 0.49957 0.53933 0.59611 0.0
H1463 H 0.47588 0.47865 0.59954 0.0
C1464 C 0.54479 0.63495 0.55906 0.0
C1465 C 0.5789 0.6546 0.54872 0.0
C1466 C 0.52921 0.59963 0.55969 0.0
C1467 C 0.54778 0.58354 0.55084 0.0
C1468 C 0.58257 0.60349 0.54274 0.0
C1469 C 0.59793 0.63878 0.54131 0.0
C1470 C 0.52697 0.49406 0.52791 0.0
C1471 C 0.50438 0.47553 0.55509 0.0
C1472 C 0.54006 0.52913 0.5255 0.0
C1473 C 0.53106 0.54608 0.55052 0.0
C1474 C 0.50689 0.5271 0.57629 0.0
C1475 C 0.4934 0.49217 0.5783 0.0
loop_
_geom_bond_atom_site_label_1
_geom_bond_atom_site_label_2
_geom_bond_distance
_geom_bond_site_symmetry_2
_ccdc_geom_bond_type
Fe0 O2 1.918 . S
Fe0 O5 1.997 . S
Fe0 O6 2.002 . S
Fe0 O11 1.976 . S
Fe0 O14 1.996 1_455 S
Fe1 O2 1.918 . S
Fe1 O9 1.997 . S
Fe1 O12 1.996 . S
Fe1 O16 1.976 . S
Fe1 O19 2.002 . S
O2 Fe0 1.918 . S
O2 Fe1 1.918 . S
O2 Fe3 1.918 . S
Fe3 O2 1.918 . S
Fe3 O4 2.002 . S
Fe3 O13 1.976 1_455 S
Fe3 O17 1.996 1_455 S
Fe3 O20 1.997 . S
O4 Fe3 2.002 . S
O4 C21 1.295 . S
O5 Fe0 1.997 . S
O5 C21 1.235 . S
O6 Fe0 2.002 . S
O6 C7 1.295 . S
C7 O6 1.295 . S
C7 O9 1.235 . S
C8 O13 1.287 . S
C8 O14 1.255 . S
O9 Fe1 1.997 . S
O9 C7 1.235 . S
C10 O16 1.287 1_655 S
C10 O17 1.255 . S
O11 Fe0 1.976 . S
O11 C18 1.287 . S
O12 Fe1 1.996 . S
O12 C18 1.255 . S
O13 Fe3 1.976 1_655 S
O13 C8 1.287 . S
O14 Fe0 1.996 1_655 S
O14 C8 1.255 . S
C15 O19 1.295 . S
C15 O20 1.235 . S
O16 Fe1 1.976 . S
O16 C10 1.287 1_455 S
O17 Fe3 1.996 1_655 S
O17 C10 1.255 . S
C18 O11 1.287 . S
C18 O12 1.255 . S
O19 Fe1 2.002 . S
O19 C15 1.295 . S
O20 Fe3 1.997 . S
O20 C15 1.235 . S
C21 O4 1.295 . S
C21 O5 1.235 . S
Fe22 O24 1.918 . S
Fe22 O27 1.997 . S
Fe22 O28 2.002 . S
Fe22 O33 1.976 . S
Fe22 O36 1.996 . S
Fe23 O24 1.918 . S
Fe23 O31 1.997 . S
Fe23 O34 1.996 . S
Fe23 O38 1.976 . S
Fe23 O41 2.002 . S
O24 Fe22 1.918 . S
O24 Fe23 1.918 . S
O24 Fe25 1.918 . S
Fe25 O24 1.918 . S
Fe25 O26 2.002 . S
Fe25 O35 1.976 . S
Fe25 O39 1.996 . S
Fe25 O42 1.997 . S
O26 Fe25 2.002 . S
O26 C43 1.295 . S
O27 Fe22 1.997 . S
O27 C43 1.235 . S
O28 Fe22 2.002 . S
O28 C29 1.295 . S
C29 O28 1.295 . S
C29 O31 1.235 . S
C30 O35 1.287 . S
C30 O36 1.255 . S
O31 Fe23 1.997 . S
O31 C29 1.235 . S
C32 O38 1.287 . S
C32 O39 1.255 . S
O33 Fe22 1.976 . S
O33 C40 1.287 . S
O34 Fe23 1.996 . S
O34 C40 1.255 . S
O35 Fe25 1.976 . S
O35 C30 1.287 . S
O36 Fe22 1.996 . S
O36 C30 1.255 . S
C37 O41 1.295 . S
C37 O42 1.235 . S
O38 Fe23 1.976 . S
O38 C32 1.287 . S
O39 Fe25 1.996 . S
O39 C32 1.255 . S
C40 O33 1.287 . S
C40 O34 1.255 . S
O41 Fe23 2.002 . S
O41 C37 1.295 . S
O42 Fe25 1.997 . S
O42 C37 1.235 . S
C43 O26 1.295 . S
C43 O27 1.235 . S
Fe44 O46 1.918 . S
Fe44 O49 1.997 . S
Fe44 O50 2.002 . S
Fe44 O55 1.976 . S
Fe44 O58 1.996 . S
Fe45 O46 1.918 . S
Fe45 O53 1.997 . S
Fe45 O56 1.996 . S
Fe45 O60 1.976 . S
Fe45 O63 2.002 . S
O46 Fe44 1.918 . S
O46 Fe45 1.918 . S
O46 Fe47 1.918 . S
Fe47 O46 1.918 . S
Fe47 O48 2.002 . S
Fe47 O57 1.976 . S
Fe47 O61 1.996 . S
Fe47 O64 1.997 . S
O48 Fe47 2.002 . S
O48 C65 1.295 . S
O49 Fe44 1.997 . S
O49 C65 1.235 . S
O50 Fe44 2.002 . S
O50 C51 1.295 . S
C51 O50 1.295 . S
C51 O53 1.235 . S
C52 O57 1.293 . S
C52 O58 1.256 . S
O53 Fe45 1.997 . S
O53 C51 1.235 . S
C54 O60 1.287 . S
C54 O61 1.255 . S
O55 Fe44 1.976 . S
O55 C62 1.287 . S
O56 Fe45 1.996 . S
O56 C62 1.255 . S
O57 Fe47 1.976 . S
O57 C52 1.293 . S
O58 Fe44 1.996 . S
O58 C52 1.256 . S
C59 O63 1.295 . S
C59 O64 1.235 . S
O60 Fe45 1.976 . S
O60 C54 1.287 . S
O61 Fe47 1.996 . S
O61 C54 1.255 . S
C62 O55 1.287 . S
C62 O56 1.255 . S
O63 Fe45 2.002 . S
O63 C59 1.295 . S
O64 Fe47 1.997 . S
O64 C59 1.235 . S
C65 O48 1.295 . S
C65 O49 1.235 . S
Fe66 O68 1.918 . S
Fe66 O71 1.995 1_455 S
Fe66 O72 2.002 1_455 S
Fe66 O77 1.976 . S
Fe66 O80 1.996 . S
Fe67 O68 1.918 . S
Fe67 O75 1.997 1_455 S
Fe67 O78 1.996 . S
Fe67 O82 1.976 . S
Fe67 O85 2.002 . S
O68 Fe66 1.918 . S
O68 Fe67 1.918 . S
O68 Fe69 1.918 . S
Fe69 O68 1.918 . S
Fe69 O70 2.002 . S
Fe69 O79 1.976 . S
Fe69 O83 1.996 . S
Fe69 O86 1.997 . S
O70 Fe69 2.002 . S
O70 C87 1.295 1_455 S
O71 Fe66 1.995 1_655 S
O71 C87 1.236 . S
O72 Fe66 2.002 1_655 S
O72 C73 1.295 . S
C73 O72 1.295 . S
C73 O75 1.235 . S
C74 O79 1.287 . S
C74 O80 1.255 . S
O75 Fe67 1.997 1_655 S
O75 C73 1.235 . S
C76 O82 1.287 . S
C76 O83 1.255 . S
O77 Fe66 1.976 . S
O77 C84 1.287 . S
O78 Fe67 1.996 . S
O78 C84 1.255 . S
O79 Fe69 1.976 . S
O79 C74 1.287 . S
O80 Fe66 1.996 . S
O80 C74 1.255 . S
C81 O85 1.295 . S
C81 O86 1.235 . S
O82 Fe67 1.976 . S
O82 C76 1.287 . S
O83 Fe69 1.996 . S
O83 C76 1.255 . S
C84 O77 1.287 . S
C84 O78 1.255 . S
O85 Fe67 2.002 . S
O85 C81 1.295 . S
O86 Fe69 1.997 . S
O86 C81 1.235 . S
C87 O70 1.295 1_655 S
C87 O71 1.236 . S
Fe88 O90 1.918 . S
Fe88 O93 1.997 . S
Fe88 O94 2.002 . S
Fe88 O99 1.976 . S
Fe88 O102 1.996 . S
Fe89 O90 1.918 . S
Fe89 O97 1.997 . S
Fe89 O100 1.996 . S
Fe89 O104 1.976 . S
Fe89 O107 2.002 . S
O90 Fe88 1.918 . S
O90 Fe89 1.918 . S
O90 Fe91 1.918 . S
Fe91 O90 1.918 . S
Fe91 O92 2.002 . S
Fe91 O101 1.976 . S
Fe91 O105 1.996 . S
Fe91 O108 1.997 . S
O92 Fe91 2.002 . S
O92 C109 1.295 . S
O93 Fe88 1.997 . S
O93 C109 1.235 . S
O94 Fe88 2.002 . S
O94 C95 1.295 . S
C95 O94 1.295 . S
C95 O97 1.235 . S
C96 O101 1.287 . S
C96 O102 1.255 . S
O97 Fe89 1.997 . S
O97 C95 1.235 . S
C98 O104 1.287 . S
C98 O105 1.255 . S
O99 Fe88 1.976 . S
O99 C106 1.287 . S
O100 Fe89 1.996 . S
O100 C106 1.255 . S
O101 Fe91 1.976 . S
O101 C96 1.287 . S
O102 Fe88 1.996 . S
O102 C96 1.255 . S
C103 O107 1.295 . S
C103 O108 1.235 . S
O104 Fe89 1.976 . S
O104 C98 1.287 . S
O105 Fe91 1.996 . S
O105 C98 1.255 . S
C106 O99 1.287 . S
C106 O100 1.255 . S
O107 Fe89 2.002 . S
O107 C103 1.295 . S
O108 Fe91 1.997 . S
O108 C103 1.235 . S
C109 O92 1.295 . S
C109 O93 1.235 . S
Fe110 O112 1.918 . S
Fe110 O115 1.997 . S
Fe110 O116 2.002 . S
Fe110 O121 1.976 . S
Fe110 O124 1.996 . S
Fe111 O112 1.918 . S
Fe111 O119 1.997 . S
Fe111 O122 1.996 . S
Fe111 O126 1.976 . S
Fe111 O129 2.002 . S
O112 Fe110 1.918 . S
O112 Fe111 1.918 . S
O112 Fe113 1.918 . S
Fe113 O112 1.918 . S
Fe113 O114 2.002 . S
Fe113 O123 1.976 . S
Fe113 O127 1.996 . S
Fe113 O130 1.997 . S
O114 Fe113 2.002 . S
O114 C131 1.295 . S
O115 Fe110 1.997 . S
O115 C131 1.235 . S
O116 Fe110 2.002 . S
O116 C117 1.295 . S
C117 O116 1.295 . S
C117 O119 1.236 . S
C118 O123 1.287 . S
C118 O124 1.255 . S
O119 Fe111 1.997 . S
O119 C117 1.236 . S
C120 O126 1.287 . S
C120 O127 1.255 . S
O121 Fe110 1.976 . S
O121 C128 1.287 . S
O122 Fe111 1.996 . S
O122 C128 1.255 . S
O123 Fe113 1.976 . S
O123 C118 1.287 . S
O124 Fe110 1.996 . S
O124 C118 1.255 . S
C125 O129 1.295 . S
C125 O130 1.235 . S
O126 Fe111 1.976 . S
O126 C120 1.287 . S
O127 Fe113 1.996 . S
O127 C120 1.255 . S
C128 O121 1.287 . S
C128 O122 1.255 . S
O129 Fe111 2.002 . S
O129 C125 1.295 . S
O130 Fe113 1.997 . S
O130 C125 1.235 . S
C131 O114 1.295 . S
C131 O115 1.235 . S
Fe132 O134 1.918 . S
Fe132 O137 1.997 . S
Fe132 O138 2.002 . S
Fe132 O143 1.976 . S
Fe132 O146 1.996 . S
Fe133 O134 1.918 . S
Fe133 O141 1.997 . S
Fe133 O144 1.996 . S
Fe133 O148 1.976 . S
Fe133 O151 2.002 . S
O134 Fe132 1.918 . S
O134 Fe133 1.918 . S
O134 Fe135 1.918 . S
Fe135 O134 1.918 . S
Fe135 O136 2.002 . S
Fe135 O145 1.976 . S
Fe135 O149 1.996 . S
Fe135 O152 1.997 . S
O136 Fe135 2.002 . S
O136 C153 1.295 . S
O137 Fe132 1.997 . S
O137 C153 1.235 . S
O138 Fe132 2.002 . S
O138 C139 1.295 . S
C139 O138 1.295 . S
C139 O141 1.235 . S
C140 O145 1.287 . S
C140 O146 1.255 . S
O141 Fe133 1.997 . S
O141 C139 1.235 . S
C142 O148 1.287 . S
C142 O149 1.255 . S
O143 Fe132 1.976 . S
O143 C150 1.287 . S
O144 Fe133 1.996 . S
O144 C150 1.255 . S
O145 Fe135 1.976 . S
O145 C140 1.287 . S
O146 Fe132 1.996 . S
O146 C140 1.255 . S
C147 O151 1.295 . S
C147 O152 1.235 . S
O148 Fe133 1.976 . S
O148 C142 1.287 . S
O149 Fe135 1.996 . S
O149 C142 1.255 . S
C150 O143 1.287 . S
C150 O144 1.255 . S
O151 Fe133 2.002 . S
O151 C147 1.295 . S
O152 Fe135 1.997 . S
O152 C147 1.235 . S
C153 O136 1.295 . S
C153 O137 1.235 . S
Fe154 O156 1.918 . S
Fe154 O159 1.997 . S
Fe154 O160 2.002 . S
Fe154 O165 1.976 . S
Fe154 O168 1.996 . S
Fe155 O156 1.918 . S
Fe155 O163 1.997 . S
Fe155 O166 1.996 . S
Fe155 O170 1.976 . S
Fe155 O173 2.002 . S
O156 Fe154 1.918 . S
O156 Fe155 1.918 . S
O156 Fe157 1.918 . S
Fe157 O156 1.918 . S
Fe157 O158 2.002 . S
Fe157 O167 1.976 . S
Fe157 O171 1.996 . S
Fe157 O174 1.997 . S
O158 Fe157 2.002 . S
O158 C175 1.295 . S
O159 Fe154 1.997 . S
O159 C175 1.235 . S
O160 Fe154 2.002 . S
O160 C161 1.295 . S
C161 O160 1.295 . S
C161 O163 1.235 . S
C162 O167 1.287 . S
C162 O168 1.255 . S
O163 Fe155 1.997 . S
O163 C161 1.235 . S
C164 O170 1.287 . S
C164 O171 1.255 . S
O165 Fe154 1.976 . S
O165 C172 1.287 . S
O166 Fe155 1.996 . S
O166 C172 1.255 . S
O167 Fe157 1.976 . S
O167 C162 1.287 . S
O168 Fe154 1.996 . S
O168 C162 1.255 . S
C169 O173 1.295 . S
C169 O174 1.235 . S
O170 Fe155 1.976 . S
O170 C164 1.287 . S
O171 Fe157 1.996 . S
O171 C164 1.255 . S
C172 O165 1.287 . S
C172 O166 1.255 . S
O173 Fe155 2.002 . S
O173 C169 1.295 . S
O174 Fe157 1.997 . S
O174 C169 1.235 . S
C175 O158 1.295 . S
C175 O159 1.235 . S
Fe176 O178 1.918 . S
Fe176 O181 1.997 . S
Fe176 O182 2.002 . S
Fe176 O187 1.976 . S
Fe176 O190 1.996 . S
Fe177 O178 1.918 . S
Fe177 O185 1.997 . S
Fe177 O188 1.996 . S
Fe177 O192 1.976 . S
Fe177 O195 2.002 . S
O178 Fe176 1.918 . S
O178 Fe177 1.918 . S
O178 Fe179 1.918 . S
Fe179 O178 1.918 . S
Fe179 O180 2.002 . S
Fe179 O189 1.976 . S
Fe179 O193 1.996 . S
Fe179 O196 1.997 . S
O180 Fe179 2.002 . S
O180 C197 1.295 . S
O181 Fe176 1.997 . S
O181 C197 1.235 . S
O182 Fe176 2.002 . S
O182 C183 1.295 . S
C183 O182 1.295 . S
C183 O185 1.235 . S
C184 O189 1.287 . S
C184 O190 1.255 . S
O185 Fe177 1.997 . S
O185 C183 1.235 . S
C186 O192 1.287 . S
C186 O193 1.255 . S
O187 Fe176 1.976 . S
O187 C194 1.287 . S
O188 Fe177 1.996 . S
O188 C194 1.255 . S
O189 Fe179 1.976 . S
O189 C184 1.287 . S
O190 Fe176 1.996 . S
O190 C184 1.255 . S
C191 O195 1.295 . S
C191 O196 1.235 . S
O192 Fe177 1.976 . S
O192 C186 1.287 . S
O193 Fe179 1.996 . S
O193 C186 1.255 . S
C194 O187 1.287 . S
C194 O188 1.255 . S
O195 Fe177 2.002 . S
O195 C191 1.295 . S
O196 Fe179 1.997 . S
O196 C191 1.235 . S
C197 O180 1.295 . S
C197 O181 1.235 . S
Fe198 O200 1.918 . S
Fe198 O203 1.997 . S
Fe198 O204 2.002 . S
Fe198 O209 1.976 . S
Fe198 O212 1.996 . S
Fe199 O200 1.918 . S
Fe199 O207 1.997 . S
Fe199 O210 1.996 . S
Fe199 O214 1.976 . S
Fe199 O217 2.002 . S
O200 Fe198 1.918 . S
O200 Fe199 1.918 . S
O200 Fe201 1.918 . S
Fe201 O200 1.918 . S
Fe201 O202 2.002 . S
Fe201 O211 1.976 . S
Fe201 O215 1.996 . S
Fe201 O218 1.997 . S
O202 Fe201 2.002 . S
O202 C219 1.295 . S
O203 Fe198 1.997 . S
O203 C219 1.235 . S
O204 Fe198 2.002 . S
O204 C205 1.295 . S
C205 O204 1.295 . S
C205 O207 1.235 . S
C206 O211 1.287 . S
C206 O212 1.255 . S
O207 Fe199 1.997 . S
O207 C205 1.235 . S
C208 O214 1.287 . S
C208 O215 1.255 . S
O209 Fe198 1.976 . S
O209 C216 1.287 . S
O210 Fe199 1.996 . S
O210 C216 1.255 . S
O211 Fe201 1.976 . S
O211 C206 1.287 . S
O212 Fe198 1.996 . S
O212 C206 1.255 . S
C213 O217 1.295 . S
C213 O218 1.235 . S
O214 Fe199 1.976 . S
O214 C208 1.287 . S
O215 Fe201 1.996 . S
O215 C208 1.255 . S
C216 O209 1.287 . S
C216 O210 1.255 . S
O217 Fe199 2.002 . S
O217 C213 1.295 . S
O218 Fe201 1.997 . S
O218 C213 1.235 . S
C219 O202 1.295 . S
C219 O203 1.235 . S
Fe220 O222 1.918 . S
Fe220 O225 1.997 . S
Fe220 O226 2.002 . S
Fe220 O231 1.976 . S
Fe220 O234 1.996 . S
Fe221 O222 1.918 . S
Fe221 O229 1.997 . S
Fe221 O232 1.996 . S
Fe221 O236 1.976 . S
Fe221 O239 2.002 . S
O222 Fe220 1.918 . S
O222 Fe221 1.918 . S
O222 Fe223 1.918 . S
Fe223 O222 1.918 . S
Fe223 O224 2.002 . S
Fe223 O233 1.976 . S
Fe223 O237 1.996 . S
Fe223 O240 1.997 . S
O224 Fe223 2.002 . S
O224 C241 1.295 . S
O225 Fe220 1.997 . S
O225 C241 1.235 . S
O226 Fe220 2.002 . S
O226 C227 1.295 . S
C227 O226 1.295 . S
C227 O229 1.235 . S
C228 O233 1.287 . S
C228 O234 1.255 . S
O229 Fe221 1.997 . S
O229 C227 1.235 . S
C230 O236 1.287 . S
C230 O237 1.255 . S
O231 Fe220 1.976 . S
O231 C238 1.287 . S
O232 Fe221 1.996 . S
O232 C238 1.255 . S
O233 Fe223 1.976 . S
O233 C228 1.287 . S
O234 Fe220 1.996 . S
O234 C228 1.255 . S
C235 O239 1.295 . S
C235 O240 1.235 . S
O236 Fe221 1.976 . S
O236 C230 1.287 . S
O237 Fe223 1.996 . S
O237 C230 1.255 . S
C238 O231 1.287 . S
C238 O232 1.255 . S
O239 Fe221 2.002 . S
O239 C235 1.295 . S
O240 Fe223 1.997 . S
O240 C235 1.235 . S
C241 O224 1.295 . S
C241 O225 1.235 . S
Fe242 O244 1.918 . S
Fe242 O247 1.997 . S
Fe242 O248 2.002 . S
Fe242 O253 1.976 . S
Fe242 O256 1.996 . S
Fe243 O244 1.918 . S
Fe243 O251 1.997 . S
Fe243 O254 1.996 . S
Fe243 O258 1.976 . S
Fe243 O261 2.002 . S
O244 Fe242 1.918 . S
O244 Fe243 1.918 . S
O244 Fe245 1.918 . S
Fe245 O244 1.918 . S
Fe245 O246 2.002 . S
Fe245 O255 1.976 . S
Fe245 O259 1.996 . S
Fe245 O262 1.997 . S
O246 Fe245 2.002 . S
O246 C263 1.295 . S
O247 Fe242 1.997 . S
O247 C263 1.235 . S
O248 Fe242 2.002 . S
O248 C249 1.295 . S
C249 O248 1.295 . S
C249 O251 1.235 . S
C250 O255 1.287 . S
C250 O256 1.255 . S
O251 Fe243 1.997 . S
O251 C249 1.235 . S
C252 O258 1.287 . S
C252 O259 1.255 . S
O253 Fe242 1.976 . S
O253 C260 1.287 . S
O254 Fe243 1.996 . S
O254 C260 1.255 . S
O255 Fe245 1.976 . S
O255 C250 1.287 . S
O256 Fe242 1.996 . S
O256 C250 1.255 . S
C257 O261 1.295 . S
C257 O262 1.235 . S
O258 Fe243 1.976 . S
O258 C252 1.287 . S
O259 Fe245 1.996 . S
O259 C252 1.255 . S
C260 O253 1.287 . S
C260 O254 1.255 . S
O261 Fe243 2.002 . S
O261 C257 1.295 . S
O262 Fe245 1.997 . S
O262 C257 1.235 . S
C263 O246 1.295 . S
C263 O247 1.235 . S
Fe264 O266 1.918 . S
Fe264 O269 1.997 . S
Fe264 O270 2.002 . S
Fe264 O275 1.976 . S
Fe264 O278 1.996 . S
Fe265 O266 1.918 . S
Fe265 O273 1.997 . S
Fe265 O276 1.996 . S
Fe265 O280 1.976 . S
Fe265 O283 2.002 . S
O266 Fe264 1.918 . S
O266 Fe265 1.918 . S
O266 Fe267 1.918 . S
Fe267 O266 1.918 . S
Fe267 O268 2.002 . S
Fe267 O277 1.976 . S
Fe267 O281 1.996 . S
Fe267 O284 1.997 . S
O268 Fe267 2.002 . S
O268 C285 1.295 . S
O269 Fe264 1.997 . S
O269 C285 1.235 . S
O270 Fe264 2.002 . S
O270 C271 1.295 . S
C271 O270 1.295 . S
C271 O273 1.235 . S
C272 O277 1.287 . S
C272 O278 1.255 . S
O273 Fe265 1.997 . S
O273 C271 1.235 . S
C274 O280 1.287 . S
C274 O281 1.255 . S
O275 Fe264 1.976 . S
O275 C282 1.287 . S
O276 Fe265 1.996 . S
O276 C282 1.255 . S
O277 Fe267 1.976 . S
O277 C272 1.287 . S
O278 Fe264 1.996 . S
O278 C272 1.255 . S
C279 O283 1.295 . S
C279 O284 1.235 . S
O280 Fe265 1.976 . S
O280 C274 1.287 . S
O281 Fe267 1.996 . S
O281 C274 1.255 . S
C282 O275 1.287 . S
C282 O276 1.255 . S
O283 Fe265 2.002 . S
O283 C279 1.295 . S
O284 Fe267 1.997 . S
O284 C279 1.235 . S
C285 O268 1.295 . S
C285 O269 1.235 . S
Fe286 O288 1.918 . S
Fe286 O291 1.997 . S
Fe286 O292 2.002 . S
Fe286 O297 1.976 . S
Fe286 O300 1.996 . S
Fe287 O288 1.918 . S
Fe287 O295 1.997 . S
Fe287 O298 1.996 . S
Fe287 O302 1.976 . S
Fe287 O305 2.002 . S
O288 Fe286 1.918 . S
O288 Fe287 1.918 . S
O288 Fe289 1.918 . S
Fe289 O288 1.918 . S
Fe289 O290 2.002 . S
Fe289 O299 1.976 . S
Fe289 O303 1.996 . S
Fe289 O306 1.997 . S
O290 Fe289 2.002 . S
O290 C307 1.295 . S
O291 Fe286 1.997 . S
O291 C307 1.235 . S
O292 Fe286 2.002 . S
O292 C293 1.295 . S
C293 O292 1.295 . S
C293 O295 1.235 . S
C294 O299 1.287 . S
C294 O300 1.255 . S
O295 Fe287 1.997 . S
O295 C293 1.235 . S
C296 O302 1.287 . S
C296 O303 1.255 . S
O297 Fe286 1.976 . S
O297 C304 1.287 . S
O298 Fe287 1.996 . S
O298 C304 1.255 . S
O299 Fe289 1.976 . S
O299 C294 1.287 . S
O300 Fe286 1.996 . S
O300 C294 1.255 . S
C301 O305 1.295 . S
C301 O306 1.235 . S
O302 Fe287 1.976 . S
O302 C296 1.287 . S
O303 Fe289 1.996 . S
O303 C296 1.255 . S
C304 O297 1.287 . S
C304 O298 1.255 . S
O305 Fe287 2.002 . S
O305 C301 1.295 . S
O306 Fe289 1.997 . S
O306 C301 1.235 . S
C307 O290 1.295 . S
C307 O291 1.235 . S
Fe308 O310 1.918 . S
Fe308 O313 1.997 . S
Fe308 O314 2.002 . S
Fe308 O319 1.976 . S
Fe308 O322 1.996 . S
Fe309 O310 1.918 . S
Fe309 O317 1.997 . S
Fe309 O320 1.996 . S
Fe309 O324 1.976 . S
Fe309 O327 2.002 . S
O310 Fe308 1.918 . S
O310 Fe309 1.918 . S
O310 Fe311 1.918 . S
Fe311 O310 1.918 . S
Fe311 O312 2.002 . S
Fe311 O321 1.976 . S
Fe311 O325 1.996 . S
Fe311 O328 1.997 . S
O312 Fe311 2.002 . S
O312 C329 1.295 . S
O313 Fe308 1.997 . S
O313 C329 1.235 . S
O314 Fe308 2.002 . S
O314 C315 1.295 . S
C315 O314 1.295 . S
C315 O317 1.235 . S
C316 O321 1.287 . S
C316 O322 1.255 . S
O317 Fe309 1.997 . S
O317 C315 1.235 . S
C318 O324 1.287 . S
C318 O325 1.255 . S
O319 Fe308 1.976 . S
O319 C326 1.287 . S
O320 Fe309 1.996 . S
O320 C326 1.255 . S
O321 Fe311 1.976 . S
O321 C316 1.287 . S
O322 Fe308 1.996 . S
O322 C316 1.255 . S
C323 O327 1.295 . S
C323 O328 1.235 . S
O324 Fe309 1.976 . S
O324 C318 1.287 . S
O325 Fe311 1.996 . S
O325 C318 1.255 . S
C326 O319 1.287 . S
C326 O320 1.255 . S
O327 Fe309 2.002 . S
O327 C323 1.295 . S
O328 Fe311 1.997 . S
O328 C323 1.235 . S
C329 O312 1.295 . S
C329 O313 1.235 . S
Fe330 O332 1.918 . S
Fe330 O335 1.997 . S
Fe330 O336 2.002 . S
Fe330 O341 1.976 . S
Fe330 O344 1.996 . S
Fe331 O332 1.918 . S
Fe331 O339 1.997 . S
Fe331 O342 1.996 . S
Fe331 O346 1.976 . S
Fe331 O349 2.002 . S
O332 Fe330 1.918 . S
O332 Fe331 1.918 . S
O332 Fe333 1.918 . S
Fe333 O332 1.918 . S
Fe333 O334 2.002 . S
Fe333 O343 1.976 . S
Fe333 O347 1.996 . S
Fe333 O350 1.997 . S
O334 Fe333 2.002 . S
O334 C351 1.295 . S
O335 Fe330 1.997 . S
O335 C351 1.235 . S
O336 Fe330 2.002 . S
O336 C337 1.295 . S
C337 O336 1.295 . S
C337 O339 1.235 . S
C338 O343 1.287 . S
C338 O344 1.255 . S
O339 Fe331 1.997 . S
O339 C337 1.235 . S
C340 O346 1.287 . S
C340 O347 1.255 . S
O341 Fe330 1.976 . S
O341 C348 1.287 . S
O342 Fe331 1.996 . S
O342 C348 1.255 . S
O343 Fe333 1.976 . S
O343 C338 1.287 . S
O344 Fe330 1.996 . S
O344 C338 1.255 . S
C345 O349 1.295 . S
C345 O350 1.235 . S
O346 Fe331 1.976 . S
O346 C340 1.287 . S
O347 Fe333 1.996 . S
O347 C340 1.255 . S
C348 O341 1.287 . S
C348 O342 1.255 . S
O349 Fe331 2.002 . S
O349 C345 1.295 . S
O350 Fe333 1.997 . S
O350 C345 1.235 . S
C351 O334 1.295 . S
C351 O335 1.235 . S
Fe352 O354 1.918 . S
Fe352 O357 1.997 . S
Fe352 O358 2.002 . S
Fe352 O363 1.976 . S
Fe352 O366 1.996 . S
Fe353 O354 1.918 . S
Fe353 O361 1.997 . S
Fe353 O364 1.996 . S
Fe353 O368 1.976 . S
Fe353 O371 2.002 . S
O354 Fe352 1.918 . S
O354 Fe353 1.918 . S
O354 Fe355 1.918 . S
Fe355 O354 1.918 . S
Fe355 O356 2.002 . S
Fe355 O365 1.976 . S
Fe355 O369 1.996 . S
Fe355 O372 1.997 . S
O356 Fe355 2.002 . S
O356 C373 1.295 . S
O357 Fe352 1.997 . S
O357 C373 1.235 . S
O358 Fe352 2.002 . S
O358 C359 1.295 . S
C359 O358 1.295 . S
C359 O361 1.235 . S
C360 O365 1.287 . S
C360 O366 1.255 . S
O361 Fe353 1.997 . S
O361 C359 1.235 . S
C362 O368 1.287 . S
C362 O369 1.255 . S
O363 Fe352 1.976 . S
O363 C370 1.287 . S
O364 Fe353 1.996 . S
O364 C370 1.255 . S
O365 Fe355 1.976 . S
O365 C360 1.287 . S
O366 Fe352 1.996 . S
O366 C360 1.255 . S
C367 O371 1.295 . S
C367 O372 1.235 . S
O368 Fe353 1.976 . S
O368 C362 1.287 . S
O369 Fe355 1.996 . S
O369 C362 1.255 . S
C370 O363 1.287 . S
C370 O364 1.255 . S
O371 Fe353 2.002 . S
O371 C367 1.295 . S
O372 Fe355 1.997 . S
O372 C367 1.235 . S
C373 O356 1.295 . S
C373 O357 1.235 . S
Fe374 O376 1.918 . S
Fe374 O379 1.997 . S
Fe374 O380 2.002 . S
Fe374 O385 1.976 . S
Fe374 O388 1.996 . S
Fe375 O376 1.918 . S
Fe375 O383 1.997 . S
Fe375 O386 1.996 . S
Fe375 O390 1.976 . S
Fe375 O393 2.002 . S
O376 Fe374 1.918 . S
O376 Fe375 1.918 . S
O376 Fe377 1.918 . S
Fe377 O376 1.918 . S
Fe377 O378 2.002 . S
Fe377 O387 1.976 . S
Fe377 O391 1.996 . S
Fe377 O394 1.997 . S
O378 Fe377 2.002 . S
O378 C395 1.295 . S
O379 Fe374 1.997 . S
O379 C395 1.235 . S
O380 Fe374 2.002 . S
O380 C381 1.295 . S
C381 O380 1.295 . S
C381 O383 1.235 . S
C382 O387 1.287 . S
C382 O388 1.255 . S
O383 Fe375 1.997 . S
O383 C381 1.235 . S
C384 O390 1.287 . S
C384 O391 1.255 . S
O385 Fe374 1.976 . S
O385 C392 1.287 . S
O386 Fe375 1.996 . S
O386 C392 1.255 . S
O387 Fe377 1.976 . S
O387 C382 1.287 . S
O388 Fe374 1.996 . S
O388 C382 1.255 . S
C389 O393 1.295 . S
C389 O394 1.235 . S
O390 Fe375 1.976 . S
O390 C384 1.287 . S
O391 Fe377 1.996 . S
O391 C384 1.255 . S
C392 O385 1.287 . S
C392 O386 1.255 . S
O393 Fe375 2.002 . S
O393 C389 1.295 . S
O394 Fe377 1.997 . S
O394 C389 1.235 . S
C395 O378 1.295 . S
C395 O379 1.235 . S
H396 C404 0.950 . S
H397 C409 0.950 . S
H398 C406 0.950 . S
H399 C408 0.950 . S
H400 C410 0.950 . S
H401 C412 0.950 . S
H402 C414 0.950 . S
H403 C415 0.950 . S
C404 H396 0.950 . S
C404 C405 1.386 . S
C404 C406 1.391 . S
C405 C404 1.386 . S
C405 C409 1.393 . S
C406 H398 0.950 . S
C406 C404 1.391 . S
C406 C407 1.400 . S
C407 C406 1.400 . S
C407 C408 1.398 . S
C407 C413 1.491 . S
C408 H399 0.950 . S
C408 C407 1.398 . S
C408 C409 1.391 . S
C409 H397 0.950 . S
C409 C405 1.393 . S
C409 C408 1.391 . S
C410 H400 0.950 . S
C410 C411 1.386 . S
C410 C412 1.391 . S
C411 C410 1.386 . S
C411 C415 1.393 . S
C412 H401 0.950 . S
C412 C410 1.391 . S
C412 C413 1.400 . S
C413 C407 1.491 . S
C413 C412 1.400 . S
C413 C414 1.398 . S
C414 H402 0.950 . S
C414 C413 1.398 . S
C414 C415 1.391 . S
C415 H403 0.950 . S
C415 C411 1.393 . S
C415 C414 1.391 . S
H416 C424 0.950 . S
H417 C429 0.950 . S
H418 C426 0.950 . S
H419 C428 0.950 . S
H420 C430 0.950 . S
H421 C432 0.950 . S
H422 C434 0.950 . S
H423 C435 0.950 . S
C424 H416 0.950 . S
C424 C425 1.386 . S
C424 C426 1.391 . S
C425 C424 1.386 . S
C425 C429 1.393 . S
C426 H418 0.950 . S
C426 C424 1.391 . S
C426 C427 1.400 . S
C427 C426 1.400 . S
C427 C428 1.398 . S
C427 C433 1.491 . S
C428 H419 0.950 . S
C428 C427 1.398 . S
C428 C429 1.391 . S
C429 H417 0.950 . S
C429 C425 1.393 . S
C429 C428 1.391 . S
C430 H420 0.950 . S
C430 C431 1.386 . S
C430 C432 1.391 1_565 S
C431 C430 1.386 . S
C431 C435 1.393 . S
C432 H421 0.950 . S
C432 C430 1.391 1_545 S
C432 C433 1.400 . S
C433 C427 1.491 . S
C433 C432 1.400 . S
C433 C434 1.398 . S
C434 H422 0.950 . S
C434 C433 1.398 . S
C434 C435 1.391 1_545 S
C435 H423 0.950 . S
C435 C431 1.393 . S
C435 C434 1.391 1_565 S
H436 C444 0.950 . S
H437 C449 0.950 . S
H438 C446 0.974 . S
H439 C448 0.950 . S
H440 C450 0.950 . S
H441 C452 0.975 . S
H442 C454 0.950 . S
H443 C455 0.950 . S
C444 H436 0.950 . S
C444 C445 1.386 . S
C444 C446 1.359 1_655 S
C445 C444 1.386 . S
C445 C449 1.393 . S
C446 H438 0.974 . S
C446 C444 1.359 1_455 S
C446 C447 1.410 . S
C447 C446 1.410 . S
C447 C448 1.398 . S
C447 C453 1.491 . S
C448 H439 0.950 . S
C448 C447 1.398 . S
C448 C449 1.391 1_455 S
C449 H437 0.950 . S
C449 C445 1.393 . S
C449 C448 1.391 1_655 S
C450 H440 0.950 . S
C450 C451 1.386 1_545 S
C450 C452 1.391 1_545 S
C451 C450 1.386 1_565 S
C451 C455 1.393 . S
C452 H441 0.975 . S
C452 C450 1.391 1_565 S
C452 C453 1.400 . S
C453 C447 1.491 . S
C453 C452 1.400 . S
C453 C454 1.398 . S
C454 H442 0.950 . S
C454 C453 1.398 . S
C454 C455 1.391 . S
C455 H443 0.950 . S
C455 C451 1.393 . S
C455 C454 1.391 . S
H456 C464 0.950 . S
H457 C469 0.950 . S
H458 C466 0.950 . S
H459 C468 0.950 . S
H460 C470 0.950 1_545 S
H461 C472 0.950 . S
H462 C474 0.950 . S
H463 C475 0.950 . S
C464 H456 0.950 . S
C464 C465 1.386 . S
C464 C466 1.391 . S
C465 C464 1.386 . S
C465 C469 1.393 . S
C466 H458 0.950 . S
C466 C464 1.391 . S
C466 C467 1.400 . S
C467 C466 1.400 . S
C467 C468 1.398 . S
C467 C473 1.491 . S
C468 H459 0.950 . S
C468 C467 1.398 . S
C468 C469 1.391 . S
C469 H457 0.950 . S
C469 C465 1.393 . S
C469 C468 1.391 . S
C470 H460 0.950 1_565 S
C470 C471 1.386 . S
C470 C472 1.391 . S
C471 C470 1.386 . S
C471 C475 1.393 . S
C472 H461 0.950 . S
C472 C470 1.391 . S
C472 C473 1.400 . S
C473 C467 1.491 . S
C473 C472 1.400 . S
C473 C474 1.398 . S
C474 H462 0.950 . S
C474 C473 1.398 . S
C474 C475 1.391 . S
C475 H463 0.950 . S
C475 C471 1.393 . S
C475 C474 1.391 . S
H476 C484 0.950 . S
H477 C489 0.950 . S
H478 C486 0.950 . S
H479 C488 0.950 . S
H480 C490 0.950 . S
H481 C492 0.950 . S
H482 C494 0.950 . S
H483 C495 0.950 . S
C484 H476 0.950 . S
C484 C485 1.386 . S
C484 C486 1.391 1_565 S
C485 C484 1.386 . S
C485 C489 1.393 . S
C486 H478 0.950 . S
C486 C484 1.391 1_545 S
C486 C487 1.400 . S
C487 C486 1.400 . S
C487 C488 1.398 . S
C487 C493 1.491 . S
C488 H479 0.950 . S
C488 C487 1.398 . S
C488 C489 1.391 1_545 S
C489 H477 0.950 . S
C489 C485 1.393 . S
C489 C488 1.391 1_565 S
C490 H480 0.950 . S
C490 C491 1.386 . S
C490 C492 1.391 . S
C491 C490 1.386 . S
C491 C495 1.393 . S
C492 H481 0.950 . S
C492 C490 1.391 . S
C492 C493 1.400 . S
C493 C487 1.491 . S
C493 C492 1.400 . S
C493 C494 1.398 . S
C494 H482 0.950 . S
C494 C493 1.398 . S
C494 C495 1.391 . S
C495 H483 0.950 . S
C495 C491 1.393 . S
C495 C494 1.391 . S
H496 C504 0.950 . S
H497 C509 0.950 . S
H498 C506 0.950 . S
H499 C508 0.950 . S
H500 C510 0.950 . S
H501 C512 0.950 . S
H502 C514 0.950 . S
H503 C515 0.950 . S
C504 H496 0.950 . S
C504 C505 1.386 . S
C504 C506 1.391 . S
C505 C504 1.386 . S
C505 C509 1.393 . S
C506 H498 0.950 . S
C506 C504 1.391 . S
C506 C507 1.400 . S
C507 C506 1.400 . S
C507 C508 1.398 . S
C507 C513 1.491 . S
C508 H499 0.950 . S
C508 C507 1.398 . S
C508 C509 1.391 . S
C509 H497 0.950 . S
C509 C505 1.393 . S
C509 C508 1.391 . S
C510 H500 0.950 . S
C510 C511 1.386 . S
C510 C512 1.391 1_655 S
C511 C510 1.386 . S
C511 C515 1.393 . S
C512 H501 0.950 . S
C512 C510 1.391 1_455 S
C512 C513 1.400 . S
C513 C507 1.491 . S
C513 C512 1.400 . S
C513 C514 1.398 . S
C514 H502 0.950 . S
C514 C513 1.398 . S
C514 C515 1.391 1_455 S
C515 H503 0.950 . S
C515 C511 1.393 . S
C515 C514 1.391 1_655 S
H516 C524 0.950 . S
H517 C529 0.950 . S
H518 C526 0.950 . S
H519 C528 0.950 . S
H520 C530 0.950 . S
H521 C532 0.950 . S
H522 C534 0.950 . S
H523 C535 0.950 . S
C524 H516 0.950 . S
C524 C525 1.386 . S
C524 C526 1.391 . S
C525 C524 1.386 . S
C525 C529 1.393 . S
C526 H518 0.950 . S
C526 C524 1.391 . S
C526 C527 1.400 . S
C527 C526 1.400 . S
C527 C528 1.398 . S
C527 C533 1.491 . S
C528 H519 0.950 . S
C528 C527 1.398 . S
C528 C529 1.391 . S
C529 H517 0.950 . S
C529 C525 1.393 . S
C529 C528 1.391 . S
C530 H520 0.950 . S
C530 C531 1.386 . S
C530 C532 1.391 . S
C531 C530 1.386 . S
C531 C535 1.393 . S
C532 H521 0.950 . S
C532 C530 1.391 . S
C532 C533 1.400 . S
C533 C527 1.491 . S
C533 C532 1.400 . S
C533 C534 1.398 . S
C534 H522 0.950 . S
C534 C533 1.398 . S
C534 C535 1.391 . S
C535 H523 0.950 . S
C535 C531 1.393 . S
C535 C534 1.391 . S
H536 C544 0.950 . S
H537 C549 0.950 . S
H538 C546 0.950 . S
H539 C548 0.950 . S
H540 C550 0.950 . S
H541 C552 0.950 . S
H542 C554 0.950 . S
H543 C555 0.950 . S
C544 H536 0.950 . S
C544 C545 1.386 . S
C544 C546 1.391 . S
C545 C544 1.386 . S
C545 C549 1.393 . S
C546 H538 0.950 . S
C546 C544 1.391 . S
C546 C547 1.400 . S
C547 C546 1.400 . S
C547 C548 1.398 . S
C547 C553 1.491 . S
C548 H539 0.950 . S
C548 C547 1.398 . S
C548 C549 1.391 . S
C549 H537 0.950 . S
C549 C545 1.393 . S
C549 C548 1.391 . S
C550 H540 0.950 . S
C550 C551 1.386 . S
C550 C552 1.391 . S
C551 C550 1.386 . S
C551 C555 1.393 . S
C552 H541 0.950 . S
C552 C550 1.391 . S
C552 C553 1.400 . S
C553 C547 1.491 . S
C553 C552 1.400 . S
C553 C554 1.398 . S
C554 H542 0.950 . S
C554 C553 1.398 . S
C554 C555 1.391 . S
C555 H543 0.950 . S
C555 C551 1.393 . S
C555 C554 1.391 . S
H556 C564 0.950 . S
H557 C569 0.950 . S
H558 C566 0.950 . S
H559 C568 0.950 . S
H560 C570 0.950 . S
H561 C572 0.950 . S
H562 C574 0.950 . S
H563 C575 0.950 . S
C564 H556 0.950 . S
C564 C565 1.386 . S
C564 C566 1.391 . S
C565 C564 1.386 . S
C565 C569 1.393 . S
C566 H558 0.950 . S
C566 C564 1.391 . S
C566 C567 1.400 . S
C567 C566 1.400 . S
C567 C568 1.398 . S
C567 C573 1.491 . S
C568 H559 0.950 . S
C568 C567 1.398 . S
C568 C569 1.391 . S
C569 H557 0.950 . S
C569 C565 1.393 . S
C569 C568 1.391 . S
C570 H560 0.950 . S
C570 C571 1.386 . S
C570 C572 1.391 . S
C571 C570 1.386 . S
C571 C575 1.393 . S
C572 H561 0.950 . S
C572 C570 1.391 . S
C572 C573 1.400 . S
C573 C567 1.491 . S
C573 C572 1.400 . S
C573 C574 1.398 . S
C574 H562 0.950 . S
C574 C573 1.398 . S
C574 C575 1.391 . S
C575 H563 0.950 . S
C575 C571 1.393 . S
C575 C574 1.391 . S
H576 C584 0.950 . S
H577 C589 0.950 . S
H578 C586 0.950 . S
H579 C588 0.950 . S
H580 C590 0.950 . S
H581 C592 0.950 . S
H582 C594 0.950 . S
H583 C595 0.950 . S
C584 H576 0.950 . S
C584 C585 1.386 . S
C584 C586 1.391 . S
C585 C584 1.386 . S
C585 C589 1.393 . S
C586 H578 0.950 . S
C586 C584 1.391 . S
C586 C587 1.400 . S
C587 C586 1.400 . S
C587 C588 1.398 . S
C587 C593 1.491 . S
C588 H579 0.950 . S
C588 C587 1.398 . S
C588 C589 1.391 . S
C589 H577 0.950 . S
C589 C585 1.393 . S
C589 C588 1.391 . S
C590 H580 0.950 . S
C590 C591 1.386 . S
C590 C592 1.391 . S
C591 C590 1.386 . S
C591 C595 1.393 . S
C592 H581 0.950 . S
C592 C590 1.391 . S
C592 C593 1.400 . S
C593 C587 1.491 . S
C593 C592 1.400 . S
C593 C594 1.398 . S
C594 H582 0.950 . S
C594 C593 1.398 . S
C594 C595 1.391 . S
C595 H583 0.950 . S
C595 C591 1.393 . S
C595 C594 1.391 . S
H596 C604 0.950 . S
H597 C609 0.950 . S
H598 C606 0.950 . S
H599 C608 0.950 . S
H600 C610 0.950 . S
H601 C612 0.950 . S
H602 C614 0.950 . S
H603 C615 0.950 . S
C604 H596 0.950 . S
C604 C605 1.386 . S
C604 C606 1.391 . S
C605 C604 1.386 . S
C605 C609 1.393 . S
C606 H598 0.950 . S
C606 C604 1.391 . S
C606 C607 1.400 . S
C607 C606 1.400 . S
C607 C608 1.398 . S
C607 C613 1.491 . S
C608 H599 0.950 . S
C608 C607 1.398 . S
C608 C609 1.391 . S
C609 H597 0.950 . S
C609 C605 1.393 . S
C609 C608 1.391 . S
C610 H600 0.950 . S
C610 C611 1.386 . S
C610 C612 1.391 . S
C611 C610 1.386 . S
C611 C615 1.393 . S
C612 H601 0.950 . S
C612 C610 1.391 . S
C612 C613 1.400 . S
C613 C607 1.491 . S
C613 C612 1.400 . S
C613 C614 1.398 . S
C614 H602 0.950 . S
C614 C613 1.398 . S
C614 C615 1.391 . S
C615 H603 0.950 . S
C615 C611 1.393 . S
C615 C614 1.391 . S
H616 C624 0.950 . S
H617 C629 0.950 . S
H618 C626 0.950 . S
H619 C628 0.950 . S
H620 C630 0.950 . S
H621 C632 0.950 . S
H622 C634 0.950 . S
H623 C635 0.950 . S
C624 H616 0.950 . S
C624 C625 1.386 . S
C624 C626 1.391 . S
C625 C624 1.386 . S
C625 C629 1.393 . S
C626 H618 0.950 . S
C626 C624 1.391 . S
C626 C627 1.400 . S
C627 C626 1.400 . S
C627 C628 1.398 . S
C627 C633 1.491 . S
C628 H619 0.950 . S
C628 C627 1.398 . S
C628 C629 1.391 . S
C629 H617 0.950 . S
C629 C625 1.393 . S
C629 C628 1.391 . S
C630 H620 0.950 . S
C630 C631 1.386 . S
C630 C632 1.391 . S
C631 C630 1.386 . S
C631 C635 1.393 . S
C632 H621 0.950 . S
C632 C630 1.391 . S
C632 C633 1.400 . S
C633 C627 1.491 . S
C633 C632 1.400 . S
C633 C634 1.398 . S
C634 H622 0.950 . S
C634 C633 1.398 . S
C634 C635 1.391 . S
C635 H623 0.950 . S
C635 C631 1.393 . S
C635 C634 1.391 . S
H636 C644 0.950 . S
H637 C649 0.950 . S
H638 C646 0.950 . S
H639 C648 0.950 . S
H640 C650 0.950 . S
H641 C652 0.950 . S
H642 C654 0.950 . S
H643 C655 0.950 . S
C644 H636 0.950 . S
C644 C645 1.386 . S
C644 C646 1.391 . S
C645 C644 1.386 . S
C645 C649 1.393 . S
C646 H638 0.950 . S
C646 C644 1.391 . S
C646 C647 1.400 . S
C647 C646 1.400 . S
C647 C648 1.398 . S
C647 C653 1.491 . S
C648 H639 0.950 . S
C648 C647 1.398 . S
C648 C649 1.391 . S
C649 H637 0.950 . S
C649 C645 1.393 . S
C649 C648 1.391 . S
C650 H640 0.950 . S
C650 C651 1.386 . S
C650 C652 1.391 . S
C651 C650 1.386 . S
C651 C655 1.393 . S
C652 H641 0.950 . S
C652 C650 1.391 . S
C652 C653 1.400 . S
C653 C647 1.491 . S
C653 C652 1.400 . S
C653 C654 1.398 . S
C654 H642 0.950 . S
C654 C653 1.398 . S
C654 C655 1.391 . S
C655 H643 0.950 . S
C655 C651 1.393 . S
C655 C654 1.391 . S
H656 C664 0.950 . S
H657 C669 0.950 . S
H658 C666 0.950 . S
H659 C668 0.950 . S
H660 C670 0.950 . S
H661 C672 0.950 . S
H662 C674 0.950 . S
H663 C675 0.950 . S
C664 H656 0.950 . S
C664 C665 1.386 . S
C664 C666 1.391 . S
C665 C664 1.386 . S
C665 C669 1.393 . S
C666 H658 0.950 . S
C666 C664 1.391 . S
C666 C667 1.400 . S
C667 C666 1.400 . S
C667 C668 1.398 . S
C667 C673 1.491 . S
C668 H659 0.950 . S
C668 C667 1.398 . S
C668 C669 1.391 . S
C669 H657 0.950 . S
C669 C665 1.393 . S
C669 C668 1.391 . S
C670 H660 0.950 . S
C670 C671 1.386 . S
C670 C672 1.391 . S
C671 C670 1.386 . S
C671 C675 1.393 . S
C672 H661 0.950 . S
C672 C670 1.391 . S
C672 C673 1.400 . S
C673 C667 1.491 . S
C673 C672 1.400 . S
C673 C674 1.398 . S
C674 H662 0.950 . S
C674 C673 1.398 . S
C674 C675 1.391 . S
C675 H663 0.950 . S
C675 C671 1.393 . S
C675 C674 1.391 . S
H676 C684 0.950 . S
H677 C689 0.950 . S
H678 C686 0.950 . S
H679 C688 0.950 . S
H680 C690 0.950 . S
H681 C692 0.950 . S
H682 C694 0.950 . S
H683 C695 0.950 . S
C684 H676 0.950 . S
C684 C685 1.386 . S
C684 C686 1.391 . S
C685 C684 1.386 . S
C685 C689 1.393 . S
C686 H678 0.950 . S
C686 C684 1.391 . S
C686 C687 1.400 . S
C687 C686 1.400 . S
C687 C688 1.398 . S
C687 C693 1.491 . S
C688 H679 0.950 . S
C688 C687 1.398 . S
C688 C689 1.391 . S
C689 H677 0.950 . S
C689 C685 1.393 . S
C689 C688 1.391 . S
C690 H680 0.950 . S
C690 C691 1.386 . S
C690 C692 1.391 . S
C691 C690 1.386 . S
C691 C695 1.393 . S
C692 H681 0.950 . S
C692 C690 1.391 . S
C692 C693 1.400 . S
C693 C687 1.491 . S
C693 C692 1.400 . S
C693 C694 1.398 . S
C694 H682 0.950 . S
C694 C693 1.398 . S
C694 C695 1.391 . S
C695 H683 0.950 . S
C695 C691 1.393 . S
C695 C694 1.391 . S
H696 C704 0.950 . S
H697 C709 0.950 . S
H698 C706 0.950 . S
H699 C708 0.950 . S
H700 C710 0.950 . S
H701 C712 0.950 . S
H702 C714 0.950 . S
H703 C715 0.950 . S
C704 H696 0.950 . S
C704 C705 1.386 . S
C704 C706 1.391 . S
C705 C704 1.386 . S
C705 C709 1.393 . S
C706 H698 0.950 . S
C706 C704 1.391 . S
C706 C707 1.400 . S
C707 C706 1.400 . S
C707 C708 1.398 . S
C707 C713 1.491 . S
C708 H699 0.950 . S
C708 C707 1.398 . S
C708 C709 1.391 . S
C709 H697 0.950 . S
C709 C705 1.393 . S
C709 C708 1.391 . S
C710 H700 0.950 . S
C710 C711 1.386 . S
C710 C712 1.391 . S
C711 C710 1.386 . S
C711 C715 1.393 . S
C712 H701 0.950 . S
C712 C710 1.391 . S
C712 C713 1.400 . S
C713 C707 1.491 . S
C713 C712 1.400 . S
C713 C714 1.398 . S
C714 H702 0.950 . S
C714 C713 1.398 . S
C714 C715 1.391 . S
C715 H703 0.950 . S
C715 C711 1.393 . S
C715 C714 1.391 . S
H716 C724 0.950 . S
H717 C729 0.950 . S
H718 C726 0.950 . S
H719 C728 0.950 . S
H720 C730 0.950 . S
H721 C732 0.950 . S
H722 C734 0.950 . S
H723 C735 0.950 . S
C724 H716 0.950 . S
C724 C725 1.386 . S
C724 C726 1.391 . S
C725 C724 1.386 . S
C725 C729 1.393 . S
C726 H718 0.950 . S
C726 C724 1.391 . S
C726 C727 1.400 . S
C727 C726 1.400 . S
C727 C728 1.398 . S
C727 C733 1.491 . S
C728 H719 0.950 . S
C728 C727 1.398 . S
C728 C729 1.391 . S
C729 H717 0.950 . S
C729 C725 1.393 . S
C729 C728 1.391 . S
C730 H720 0.950 . S
C730 C731 1.386 . S
C730 C732 1.391 . S
C731 C730 1.386 . S
C731 C735 1.393 . S
C732 H721 0.950 . S
C732 C730 1.391 . S
C732 C733 1.400 . S
C733 C727 1.491 . S
C733 C732 1.400 . S
C733 C734 1.398 . S
C734 H722 0.950 . S
C734 C733 1.398 . S
C734 C735 1.391 . S
C735 H723 0.950 . S
C735 C731 1.393 . S
C735 C734 1.391 . S
H736 C744 0.950 . S
H737 C749 0.950 . S
H738 C746 0.950 . S
H739 C748 0.950 . S
H740 C750 0.950 . S
H741 C752 0.950 . S
H742 C754 0.950 . S
H743 C755 0.950 . S
C744 H736 0.950 . S
C744 C745 1.386 . S
C744 C746 1.391 . S
C745 C744 1.386 . S
C745 C749 1.393 . S
C746 H738 0.950 . S
C746 C744 1.391 . S
C746 C747 1.400 . S
C747 C746 1.400 . S
C747 C748 1.398 . S
C747 C753 1.491 . S
C748 H739 0.950 . S
C748 C747 1.398 . S
C748 C749 1.391 . S
C749 H737 0.950 . S
C749 C745 1.393 . S
C749 C748 1.391 . S
C750 H740 0.950 . S
C750 C751 1.386 . S
C750 C752 1.391 . S
C751 C750 1.386 . S
C751 C755 1.393 . S
C752 H741 0.950 . S
C752 C750 1.391 . S
C752 C753 1.400 . S
C753 C747 1.491 . S
C753 C752 1.400 . S
C753 C754 1.398 . S
C754 H742 0.950 . S
C754 C753 1.398 . S
C754 C755 1.391 . S
C755 H743 0.950 . S
C755 C751 1.393 . S
C755 C754 1.391 . S
H756 C764 0.950 . S
H757 C769 0.950 . S
H758 C766 0.950 . S
H759 C768 0.950 . S
H760 C770 0.950 . S
H761 C772 0.950 . S
H762 C774 0.950 . S
H763 C775 0.950 . S
C764 H756 0.950 . S
C764 C765 1.386 . S
C764 C766 1.391 . S
C765 C764 1.386 . S
C765 C769 1.393 . S
C766 H758 0.950 . S
C766 C764 1.391 . S
C766 C767 1.400 . S
C767 C766 1.400 . S
C767 C768 1.398 . S
C767 C773 1.491 . S
C768 H759 0.950 . S
C768 C767 1.398 . S
C768 C769 1.391 . S
C769 H757 0.950 . S
C769 C765 1.393 . S
C769 C768 1.391 . S
C770 H760 0.950 . S
C770 C771 1.386 . S
C770 C772 1.391 . S
C771 C770 1.386 . S
C771 C775 1.393 . S
C772 H761 0.950 . S
C772 C770 1.391 . S
C772 C773 1.400 . S
C773 C767 1.491 . S
C773 C772 1.400 . S
C773 C774 1.398 . S
C774 H762 0.950 . S
C774 C773 1.398 . S
C774 C775 1.391 . S
C775 H763 0.950 . S
C775 C771 1.393 . S
C775 C774 1.391 . S
H776 C784 0.950 . S
H777 C789 0.950 . S
H778 C786 0.950 . S
H779 C788 0.950 . S
H780 C790 0.950 . S
H781 C792 0.950 . S
H782 C794 0.950 . S
H783 C795 0.950 . S
C784 H776 0.950 . S
C784 C785 1.386 . S
C784 C786 1.391 . S
C785 C784 1.386 . S
C785 C789 1.393 . S
C786 H778 0.950 . S
C786 C784 1.391 . S
C786 C787 1.400 . S
C787 C786 1.400 . S
C787 C788 1.398 . S
C787 C793 1.491 . S
C788 H779 0.950 . S
C788 C787 1.398 . S
C788 C789 1.391 . S
C789 H777 0.950 . S
C789 C785 1.393 . S
C789 C788 1.391 . S
C790 H780 0.950 . S
C790 C791 1.386 . S
C790 C792 1.391 . S
C791 C790 1.386 . S
C791 C795 1.393 . S
C792 H781 0.950 . S
C792 C790 1.391 . S
C792 C793 1.400 . S
C793 C787 1.491 . S
C793 C792 1.400 . S
C793 C794 1.398 . S
C794 H782 0.950 . S
C794 C793 1.398 . S
C794 C795 1.391 . S
C795 H783 0.950 . S
C795 C791 1.393 . S
C795 C794 1.391 . S
H796 C804 0.950 . S
H797 C809 0.950 . S
H798 C806 0.950 . S
H799 C808 0.950 . S
H800 C810 0.950 . S
H801 C812 0.950 1_545 S
H802 C814 0.950 . S
H803 C815 0.950 . S
C804 H796 0.950 . S
C804 C805 1.386 1_565 S
C804 C806 1.391 . S
C805 C804 1.386 1_545 S
C805 C809 1.393 . S
C806 H798 0.950 . S
C806 C804 1.391 . S
C806 C807 1.400 . S
C807 C806 1.400 . S
C807 C808 1.398 1_565 S
C807 C813 1.491 . S
C808 H799 0.950 . S
C808 C807 1.398 1_545 S
C808 C809 1.391 . S
C809 H797 0.950 . S
C809 C805 1.393 . S
C809 C808 1.391 . S
C810 H800 0.950 . S
C810 C811 1.386 . S
C810 C812 1.391 . S
C811 C810 1.386 . S
C811 C815 1.393 . S
C812 H801 0.950 1_565 S
C812 C810 1.391 . S
C812 C813 1.400 . S
C813 C807 1.491 . S
C813 C812 1.400 . S
C813 C814 1.398 . S
C814 H802 0.950 . S
C814 C813 1.398 . S
C814 C815 1.391 . S
C815 H803 0.950 . S
C815 C811 1.393 . S
C815 C814 1.391 . S
H816 C824 0.950 1_554 S
H817 C829 0.950 . S
H818 C826 0.950 . S
H819 C828 0.950 . S
H820 C830 0.950 . S
H821 C832 0.950 . S
H822 C834 0.950 . S
H823 C835 0.950 . S
C824 H816 0.950 1_556 S
C824 C825 1.386 . S
C824 C826 1.391 . S
C825 C824 1.386 . S
C825 C829 1.393 . S
C826 H818 0.950 . S
C826 C824 1.391 . S
C826 C827 1.400 . S
C827 C826 1.400 . S
C827 C828 1.398 . S
C827 C833 1.491 . S
C828 H819 0.950 . S
C828 C827 1.398 . S
C828 C829 1.391 . S
C829 H817 0.950 . S
C829 C825 1.393 . S
C829 C828 1.391 . S
C830 H820 0.950 . S
C830 C831 1.386 . S
C830 C832 1.391 . S
C831 C830 1.386 . S
C831 C835 1.393 . S
C832 H821 0.950 . S
C832 C830 1.391 . S
C832 C833 1.400 . S
C833 C827 1.491 . S
C833 C832 1.400 . S
C833 C834 1.398 . S
C834 H822 0.950 . S
C834 C833 1.398 . S
C834 C835 1.391 . S
C835 H823 0.950 . S
C835 C831 1.393 . S
C835 C834 1.391 . S
H836 C844 0.950 . S
H837 C849 0.950 . S
H838 C846 0.950 . S
H839 C848 0.950 . S
H840 C850 0.950 . S
H841 C852 0.950 . S
H842 C854 0.950 . S
H843 C855 0.950 1_554 S
C844 H836 0.950 . S
C844 C845 1.386 . S
C844 C846 1.391 . S
C845 C844 1.386 . S
C845 C849 1.393 . S
C846 H838 0.950 . S
C846 C844 1.391 . S
C846 C847 1.400 . S
C847 C846 1.400 . S
C847 C848 1.398 . S
C847 C853 1.491 . S
C848 H839 0.950 . S
C848 C847 1.398 . S
C848 C849 1.391 . S
C849 H837 0.950 . S
C849 C845 1.393 . S
C849 C848 1.391 . S
C850 H840 0.950 . S
C850 C851 1.386 . S
C850 C852 1.391 . S
C851 C850 1.386 . S
C851 C855 1.393 . S
C852 H841 0.950 . S
C852 C850 1.391 . S
C852 C853 1.400 . S
C853 C847 1.491 . S
C853 C852 1.400 . S
C853 C854 1.398 . S
C854 H842 0.950 . S
C854 C853 1.398 . S
C854 C855 1.391 . S
C855 H843 0.950 1_556 S
C855 C851 1.393 . S
C855 C854 1.391 . S
H856 C864 0.950 . S
H857 C869 0.950 1_554 S
H858 C866 0.950 . S
H859 C868 0.950 . S
H860 C870 0.950 . S
H861 C872 0.950 . S
H862 C874 0.950 . S
H863 C875 0.950 . S
C864 H856 0.950 . S
C864 C865 1.386 . S
C864 C866 1.391 . S
C865 C864 1.386 . S
C865 C869 1.393 . S
C866 H858 0.950 . S
C866 C864 1.391 . S
C866 C867 1.400 . S
C867 C866 1.400 . S
C867 C868 1.398 . S
C867 C873 1.491 . S
C868 H859 0.950 . S
C868 C867 1.398 . S
C868 C869 1.391 . S
C869 H857 0.950 1_556 S
C869 C865 1.393 . S
C869 C868 1.391 . S
C870 H860 0.950 . S
C870 C871 1.386 . S
C870 C872 1.391 . S
C871 C870 1.386 . S
C871 C875 1.393 . S
C872 H861 0.950 . S
C872 C870 1.391 . S
C872 C873 1.400 . S
C873 C867 1.491 . S
C873 C872 1.400 . S
C873 C874 1.398 . S
C874 H862 0.950 . S
C874 C873 1.398 . S
C874 C875 1.391 . S
C875 H863 0.950 . S
C875 C871 1.393 . S
C875 C874 1.391 . S
H876 C884 0.950 . S
H877 C889 0.950 . S
H878 C886 0.950 . S
H879 C888 0.950 1_455 S
H880 C890 0.950 . S
H881 C892 0.950 . S
H882 C894 0.950 . S
H883 C895 0.950 . S
C884 H876 0.950 . S
C884 C885 1.386 . S
C884 C886 1.391 . S
C885 C884 1.386 . S
C885 C889 1.393 . S
C886 H878 0.950 . S
C886 C884 1.391 . S
C886 C887 1.400 . S
C887 C886 1.400 . S
C887 C888 1.398 . S
C887 C893 1.491 . S
C888 H879 0.950 1_655 S
C888 C887 1.398 . S
C888 C889 1.391 . S
C889 H877 0.950 . S
C889 C885 1.393 . S
C889 C888 1.391 . S
C890 H880 0.950 . S
C890 C891 1.386 1_455 S
C890 C892 1.391 . S
C891 C890 1.386 1_655 S
C891 C895 1.393 . S
C892 H881 0.950 . S
C892 C890 1.391 . S
C892 C893 1.400 1_455 S
C893 C887 1.491 . S
C893 C892 1.400 1_655 S
C893 C894 1.398 . S
C894 H882 0.950 . S
C894 C893 1.398 . S
C894 C895 1.391 . S
C895 H883 0.950 . S
C895 C891 1.393 . S
C895 C894 1.391 . S
H896 C904 0.950 . S
H897 C909 0.950 . S
H898 C906 0.950 . S
H899 C908 0.950 . S
H900 C910 0.950 . S
H901 C912 0.950 . S
H902 C914 0.950 . S
H903 C915 0.950 . S
C904 H896 0.950 . S
C904 C905 1.386 . S
C904 C906 1.391 . S
C905 C904 1.386 . S
C905 C909 1.393 . S
C906 H898 0.950 . S
C906 C904 1.391 . S
C906 C907 1.400 . S
C907 C906 1.400 . S
C907 C908 1.398 . S
C907 C913 1.491 . S
C908 H899 0.950 . S
C908 C907 1.398 . S
C908 C909 1.391 . S
C909 H897 0.950 . S
C909 C905 1.393 . S
C909 C908 1.391 . S
C910 H900 0.950 . S
C910 C911 1.386 . S
C910 C912 1.391 . S
C911 C910 1.386 . S
C911 C915 1.393 . S
C912 H901 0.950 . S
C912 C910 1.391 . S
C912 C913 1.400 . S
C913 C907 1.491 . S
C913 C912 1.400 . S
C913 C914 1.398 . S
C914 H902 0.950 . S
C914 C913 1.398 . S
C914 C915 1.391 . S
C915 H903 0.950 . S
C915 C911 1.393 . S
C915 C914 1.391 . S
H916 C924 0.950 . S
H917 C929 0.950 . S
H918 C926 0.950 . S
H919 C928 0.950 . S
H920 C930 0.950 . S
H921 C932 0.950 . S
H922 C934 0.950 . S
H923 C935 0.950 . S
C924 H916 0.950 . S
C924 C925 1.386 . S
C924 C926 1.391 . S
C925 C924 1.386 . S
C925 C929 1.393 . S
C926 H918 0.950 . S
C926 C924 1.391 . S
C926 C927 1.400 . S
C927 C926 1.400 . S
C927 C928 1.398 . S
C927 C933 1.491 . S
C928 H919 0.950 . S
C928 C927 1.398 . S
C928 C929 1.391 . S
C929 H917 0.950 . S
C929 C925 1.393 . S
C929 C928 1.391 . S
C930 H920 0.950 . S
C930 C931 1.386 . S
C930 C932 1.391 . S
C931 C930 1.386 . S
C931 C935 1.393 . S
C932 H921 0.950 . S
C932 C930 1.391 . S
C932 C933 1.400 . S
C933 C927 1.491 . S
C933 C932 1.400 . S
C933 C934 1.398 . S
C934 H922 0.950 . S
C934 C933 1.398 . S
C934 C935 1.391 . S
C935 H923 0.950 . S
C935 C931 1.393 . S
C935 C934 1.391 . S
H936 C944 0.950 . S
H937 C949 0.950 . S
H938 C946 0.950 . S
H939 C948 0.950 . S
H940 C950 0.950 1_556 S
H941 C952 0.950 1_545 S
H942 C954 0.950 . S
H943 C955 0.950 . S
C944 H936 0.950 . S
C944 C945 1.386 1_565 S
C944 C946 1.391 . S
C945 C944 1.386 1_545 S
C945 C949 1.393 . S
C946 H938 0.950 . S
C946 C944 1.391 . S
C946 C947 1.400 . S
C947 C946 1.400 . S
C947 C948 1.398 1_565 S
C947 C953 1.491 . S
C948 H939 0.950 . S
C948 C947 1.398 1_545 S
C948 C949 1.391 . S
C949 H937 0.950 . S
C949 C945 1.393 . S
C949 C948 1.391 . S
C950 H940 0.950 1_554 S
C950 C951 1.386 . S
C950 C952 1.391 . S
C951 C950 1.386 . S
C951 C955 1.393 . S
C952 H941 0.950 1_565 S
C952 C950 1.391 . S
C952 C953 1.400 . S
C953 C947 1.491 . S
C953 C952 1.400 . S
C953 C954 1.398 . S
C954 H942 0.950 . S
C954 C953 1.398 . S
C954 C955 1.391 . S
C955 H943 0.950 . S
C955 C951 1.393 . S
C955 C954 1.391 . S
H956 C964 0.950 . S
H957 C969 0.950 1_556 S
H958 C966 0.950 . S
H959 C968 0.950 . S
H960 C970 0.950 . S
H961 C972 0.950 . S
H962 C974 0.950 . S
H963 C975 0.950 . S
C964 H956 0.950 . S
C964 C965 1.386 . S
C964 C966 1.391 . S
C965 C964 1.386 . S
C965 C969 1.393 . S
C966 H958 0.950 . S
C966 C964 1.391 . S
C966 C967 1.400 . S
C967 C966 1.400 . S
C967 C968 1.398 . S
C967 C973 1.491 . S
C968 H959 0.950 . S
C968 C967 1.398 . S
C968 C969 1.391 . S
C969 H957 0.950 1_554 S
C969 C965 1.393 . S
C969 C968 1.391 . S
C970 H960 0.950 . S
C970 C971 1.386 . S
C970 C972 1.391 . S
C971 C970 1.386 . S
C971 C975 1.393 . S
C972 H961 0.950 . S
C972 C970 1.391 . S
C972 C973 1.400 . S
C973 C967 1.491 . S
C973 C972 1.400 . S
C973 C974 1.398 . S
C974 H962 0.950 . S
C974 C973 1.398 . S
C974 C975 1.391 . S
C975 H963 0.950 . S
C975 C971 1.393 . S
C975 C974 1.391 . S
H976 C984 0.950 . S
H977 C989 0.950 1_556 S
H978 C986 0.950 . S
H979 C988 0.950 . S
H980 C990 0.950 . S
H981 C992 0.950 . S
H982 C994 0.950 . S
H983 C995 0.950 . S
C984 H976 0.950 . S
C984 C985 1.386 . S
C984 C986 1.391 . S
C985 C984 1.386 . S
C985 C989 1.393 . S
C986 H978 0.950 . S
C986 C984 1.391 . S
C986 C987 1.400 . S
C987 C986 1.400 . S
C987 C988 1.398 . S
C987 C993 1.491 . S
C988 H979 0.950 . S
C988 C987 1.398 . S
C988 C989 1.391 . S
C989 H977 0.950 1_554 S
C989 C985 1.393 . S
C989 C988 1.391 . S
C990 H980 0.950 . S
C990 C991 1.386 . S
C990 C992 1.391 . S
C991 C990 1.386 . S
C991 C995 1.393 . S
C992 H981 0.950 . S
C992 C990 1.391 . S
C992 C993 1.400 . S
C993 C987 1.491 . S
C993 C992 1.400 . S
C993 C994 1.398 . S
C994 H982 0.950 . S
C994 C993 1.398 . S
C994 C995 1.391 . S
C995 H983 0.950 . S
C995 C991 1.393 . S
C995 C994 1.391 . S
H996 C1004 0.950 . S
H997 C1009 0.950 . S
H998 C1006 0.950 . S
H999 C1008 0.950 . S
H1000 C1010 0.950 . S
H1001 C1012 0.950 . S
H1002 C1014 0.951 . S
H1003 C1015 0.950 . S
C1004 H996 0.950 . S
C1004 C1005 1.386 . S
C1004 C1006 1.391 . S
C1005 C1004 1.386 . S
C1005 C1009 1.393 . S
C1006 H998 0.950 . S
C1006 C1004 1.391 . S
C1006 C1007 1.400 . S
C1007 C1006 1.400 . S
C1007 C1008 1.398 . S
C1007 C1013 1.491 . S
C1008 H999 0.950 . S
C1008 C1007 1.398 . S
C1008 C1009 1.391 . S
C1009 H997 0.950 . S
C1009 C1005 1.393 . S
C1009 C1008 1.391 . S
C1010 H1000 0.950 . S
C1010 C1011 1.386 1_455 S
C1010 C1012 1.391 . S
C1011 C1010 1.386 1_655 S
C1011 C1015 1.393 . S
C1012 H1001 0.950 . S
C1012 C1010 1.391 . S
C1012 C1013 1.400 . S
C1013 C1007 1.491 . S
C1013 C1012 1.400 . S
C1013 C1014 1.395 1_455 S
C1014 H1002 0.951 . S
C1014 C1013 1.395 1_655 S
C1014 C1015 1.392 . S
C1015 H1003 0.950 . S
C1015 C1011 1.393 . S
C1015 C1014 1.392 . S
H1016 C1024 0.950 . S
H1017 C1029 0.950 . S
H1018 C1026 0.950 . S
H1019 C1028 0.950 . S
H1020 C1030 0.950 . S
H1021 C1032 0.950 . S
H1022 C1034 0.950 . S
H1023 C1035 0.950 . S
C1024 H1016 0.950 . S
C1024 C1025 1.386 . S
C1024 C1026 1.391 . S
C1025 C1024 1.386 . S
C1025 C1029 1.393 . S
C1026 H1018 0.950 . S
C1026 C1024 1.391 . S
C1026 C1027 1.400 . S
C1027 C1026 1.400 . S
C1027 C1028 1.398 . S
C1027 C1033 1.491 . S
C1028 H1019 0.950 . S
C1028 C1027 1.398 . S
C1028 C1029 1.391 . S
C1029 H1017 0.950 . S
C1029 C1025 1.393 . S
C1029 C1028 1.391 . S
C1030 H1020 0.950 . S
C1030 C1031 1.386 . S
C1030 C1032 1.391 . S
C1031 C1030 1.386 . S
C1031 C1035 1.393 . S
C1032 H1021 0.950 . S
C1032 C1030 1.391 . S
C1032 C1033 1.400 . S
C1033 C1027 1.491 . S
C1033 C1032 1.400 . S
C1033 C1034 1.398 . S
C1034 H1022 0.950 . S
C1034 C1033 1.398 . S
C1034 C1035 1.391 . S
C1035 H1023 0.950 . S
C1035 C1031 1.393 . S
C1035 C1034 1.391 . S
H1036 C1044 0.950 . S
H1037 C1049 0.950 . S
H1038 C1046 0.950 . S
H1039 C1048 0.950 . S
H1040 C1050 0.953 1_565 S
H1041 C1052 0.950 . S
H1042 C1054 0.950 . S
H1043 C1055 0.950 . S
C1044 H1036 0.950 . S
C1044 C1045 1.386 . S
C1044 C1046 1.391 . S
C1045 C1044 1.386 . S
C1045 C1049 1.393 . S
C1046 H1038 0.950 . S
C1046 C1044 1.391 . S
C1046 C1047 1.400 . S
C1047 C1046 1.400 . S
C1047 C1048 1.398 . S
C1047 C1053 1.491 . S
C1048 H1039 0.950 . S
C1048 C1047 1.398 . S
C1048 C1049 1.391 . S
C1049 H1037 0.950 . S
C1049 C1045 1.393 . S
C1049 C1048 1.391 . S
C1050 H1040 0.953 1_545 S
C1050 C1051 1.386 . S
C1050 C1052 1.391 . S
C1051 C1050 1.386 . S
C1051 C1055 1.393 . S
C1052 H1041 0.950 . S
C1052 C1050 1.391 . S
C1052 C1053 1.400 . S
C1053 C1047 1.491 . S
C1053 C1052 1.400 . S
C1053 C1054 1.398 . S
C1054 H1042 0.950 . S
C1054 C1053 1.398 . S
C1054 C1055 1.391 . S
C1055 H1043 0.950 . S
C1055 C1051 1.393 . S
C1055 C1054 1.391 . S
H1056 C1064 0.950 . S
H1057 C1069 0.950 . S
H1058 C1066 0.950 . S
H1059 C1068 0.950 . S
H1060 C1070 0.950 . S
H1061 C1072 0.950 . S
H1062 C1074 0.950 . S
H1063 C1075 0.950 . S
C1064 H1056 0.950 . S
C1064 C1065 1.386 . S
C1064 C1066 1.391 . S
C1065 C1064 1.386 . S
C1065 C1069 1.393 . S
C1066 H1058 0.950 . S
C1066 C1064 1.391 . S
C1066 C1067 1.400 . S
C1067 C1066 1.400 . S
C1067 C1068 1.398 . S
C1067 C1073 1.491 . S
C1068 H1059 0.950 . S
C1068 C1067 1.398 . S
C1068 C1069 1.391 . S
C1069 H1057 0.950 . S
C1069 C1065 1.393 . S
C1069 C1068 1.391 . S
C1070 H1060 0.950 . S
C1070 C1071 1.386 . S
C1070 C1072 1.391 . S
C1071 C1070 1.386 . S
C1071 C1075 1.393 1_545 S
C1072 H1061 0.950 . S
C1072 C1070 1.391 . S
C1072 C1073 1.400 . S
C1073 C1067 1.491 . S
C1073 C1072 1.400 . S
C1073 C1074 1.398 . S
C1074 H1062 0.950 . S
C1074 C1073 1.398 . S
C1074 C1075 1.391 1_545 S
C1075 H1063 0.950 . S
C1075 C1071 1.393 1_565 S
C1075 C1074 1.391 1_565 S
H1076 C1084 0.950 . S
H1077 C1089 0.950 . S
H1078 C1086 0.950 . S
H1079 C1088 0.950 . S
H1080 C1090 0.950 . S
H1081 C1092 0.950 . S
H1082 C1094 0.950 . S
H1083 C1095 0.950 . S
C1084 H1076 0.950 . S
C1084 C1085 1.386 . S
C1084 C1086 1.391 . S
C1085 C1084 1.386 . S
C1085 C1089 1.393 . S
C1086 H1078 0.950 . S
C1086 C1084 1.391 . S
C1086 C1087 1.400 . S
C1087 C1086 1.400 . S
C1087 C1088 1.398 . S
C1087 C1093 1.491 . S
C1088 H1079 0.950 . S
C1088 C1087 1.398 . S
C1088 C1089 1.391 . S
C1089 H1077 0.950 . S
C1089 C1085 1.393 . S
C1089 C1088 1.391 . S
C1090 H1080 0.950 . S
C1090 C1091 1.386 1_455 S
C1090 C1092 1.391 . S
C1091 C1090 1.386 1_655 S
C1091 C1095 1.393 . S
C1092 H1081 0.950 . S
C1092 C1090 1.391 . S
C1092 C1093 1.400 . S
C1093 C1087 1.491 . S
C1093 C1092 1.400 . S
C1093 C1094 1.398 1_455 S
C1094 H1082 0.950 . S
C1094 C1093 1.398 1_655 S
C1094 C1095 1.391 . S
C1095 H1083 0.950 . S
C1095 C1091 1.393 . S
C1095 C1094 1.391 . S
H1096 C1104 0.950 . S
H1097 C1109 0.950 . S
H1098 C1106 0.950 . S
H1099 C1108 0.950 . S
H1100 C1110 0.950 . S
H1101 C1112 0.950 . S
H1102 C1114 0.950 . S
H1103 C1115 0.950 . S
C1104 H1096 0.950 . S
C1104 C1105 1.386 . S
C1104 C1106 1.391 . S
C1105 C1104 1.386 . S
C1105 C1109 1.393 . S
C1106 H1098 0.950 . S
C1106 C1104 1.391 . S
C1106 C1107 1.400 . S
C1107 C1106 1.400 . S
C1107 C1108 1.398 . S
C1107 C1113 1.491 . S
C1108 H1099 0.950 . S
C1108 C1107 1.398 . S
C1108 C1109 1.391 . S
C1109 H1097 0.950 . S
C1109 C1105 1.393 . S
C1109 C1108 1.391 . S
C1110 H1100 0.950 . S
C1110 C1111 1.386 . S
C1110 C1112 1.391 . S
C1111 C1110 1.386 . S
C1111 C1115 1.393 . S
C1112 H1101 0.950 . S
C1112 C1110 1.391 . S
C1112 C1113 1.400 . S
C1113 C1107 1.491 . S
C1113 C1112 1.400 . S
C1113 C1114 1.398 . S
C1114 H1102 0.950 . S
C1114 C1113 1.398 . S
C1114 C1115 1.391 . S
C1115 H1103 0.950 . S
C1115 C1111 1.393 . S
C1115 C1114 1.391 . S
H1116 C1124 0.950 . S
H1117 C1129 0.950 . S
H1118 C1126 0.950 . S
H1119 C1128 0.950 . S
H1120 C1130 0.950 . S
H1121 C1132 0.950 . S
H1122 C1134 0.950 . S
H1123 C1135 0.950 . S
C1124 H1116 0.950 . S
C1124 C1125 1.386 . S
C1124 C1126 1.391 . S
C1125 C1124 1.386 . S
C1125 C1129 1.393 . S
C1126 H1118 0.950 . S
C1126 C1124 1.391 . S
C1126 C1127 1.400 . S
C1127 C1126 1.400 . S
C1127 C1128 1.398 . S
C1127 C1133 1.491 . S
C1128 H1119 0.950 . S
C1128 C1127 1.398 . S
C1128 C1129 1.391 . S
C1129 H1117 0.950 . S
C1129 C1125 1.393 . S
C1129 C1128 1.391 . S
C1130 H1120 0.950 . S
C1130 C1131 1.386 . S
C1130 C1132 1.391 . S
C1131 C1130 1.386 . S
C1131 C1135 1.393 . S
C1132 H1121 0.950 . S
C1132 C1130 1.391 . S
C1132 C1133 1.400 . S
C1133 C1127 1.491 . S
C1133 C1132 1.400 . S
C1133 C1134 1.398 . S
C1134 H1122 0.950 . S
C1134 C1133 1.398 . S
C1134 C1135 1.391 . S
C1135 H1123 0.950 . S
C1135 C1131 1.393 . S
C1135 C1134 1.391 . S
H1136 C1144 0.950 . S
H1137 C1149 0.950 . S
H1138 C1146 0.950 . S
H1139 C1148 0.950 . S
H1140 C1150 0.950 . S
H1141 C1152 0.950 . S
H1142 C1154 0.950 . S
H1143 C1155 0.950 . S
C1144 H1136 0.950 . S
C1144 C1145 1.386 . S
C1144 C1146 1.391 . S
C1145 C1144 1.386 . S
C1145 C1149 1.393 . S
C1146 H1138 0.950 . S
C1146 C1144 1.391 . S
C1146 C1147 1.400 . S
C1147 C1146 1.400 . S
C1147 C1148 1.398 . S
C1147 C1153 1.491 . S
C1148 H1139 0.950 . S
C1148 C1147 1.398 . S
C1148 C1149 1.391 . S
C1149 H1137 0.950 . S
C1149 C1145 1.393 . S
C1149 C1148 1.391 . S
C1150 H1140 0.950 . S
C1150 C1151 1.386 . S
C1150 C1152 1.391 . S
C1151 C1150 1.386 . S
C1151 C1155 1.393 . S
C1152 H1141 0.950 . S
C1152 C1150 1.391 . S
C1152 C1153 1.400 . S
C1153 C1147 1.491 . S
C1153 C1152 1.400 . S
C1153 C1154 1.398 . S
C1154 H1142 0.950 . S
C1154 C1153 1.398 . S
C1154 C1155 1.391 . S
C1155 H1143 0.950 . S
C1155 C1151 1.393 . S
C1155 C1154 1.391 . S
H1156 C1164 0.950 . S
H1157 C1169 0.950 . S
H1158 C1166 0.950 . S
H1159 C1168 0.950 . S
H1160 C1170 0.950 . S
H1161 C1172 0.950 . S
H1162 C1174 0.950 . S
H1163 C1175 0.950 . S
C1164 H1156 0.950 . S
C1164 C1165 1.386 . S
C1164 C1166 1.391 . S
C1165 C1164 1.386 . S
C1165 C1169 1.393 . S
C1166 H1158 0.950 . S
C1166 C1164 1.391 . S
C1166 C1167 1.400 . S
C1167 C1166 1.400 . S
C1167 C1168 1.398 . S
C1167 C1173 1.491 . S
C1168 H1159 0.950 . S
C1168 C1167 1.398 . S
C1168 C1169 1.391 . S
C1169 H1157 0.950 . S
C1169 C1165 1.393 . S
C1169 C1168 1.391 . S
C1170 H1160 0.950 . S
C1170 C1171 1.386 . S
C1170 C1172 1.391 . S
C1171 C1170 1.386 . S
C1171 C1175 1.393 . S
C1172 H1161 0.950 . S
C1172 C1170 1.391 . S
C1172 C1173 1.400 . S
C1173 C1167 1.491 . S
C1173 C1172 1.400 . S
C1173 C1174 1.398 . S
C1174 H1162 0.950 . S
C1174 C1173 1.398 . S
C1174 C1175 1.391 . S
C1175 H1163 0.950 . S
C1175 C1171 1.393 . S
C1175 C1174 1.391 . S
H1176 C1184 0.950 . S
H1177 C1189 0.950 . S
H1178 C1186 0.950 . S
H1179 C1188 0.950 . S
H1180 C1190 0.950 . S
H1181 C1192 0.950 . S
H1182 C1194 0.950 . S
H1183 C1195 0.950 . S
C1184 H1176 0.950 . S
C1184 C1185 1.386 . S
C1184 C1186 1.391 . S
C1185 C1184 1.386 . S
C1185 C1189 1.393 . S
C1186 H1178 0.950 . S
C1186 C1184 1.391 . S
C1186 C1187 1.400 . S
C1187 C1186 1.400 . S
C1187 C1188 1.398 . S
C1187 C1193 1.491 . S
C1188 H1179 0.950 . S
C1188 C1187 1.398 . S
C1188 C1189 1.391 . S
C1189 H1177 0.950 . S
C1189 C1185 1.393 . S
C1189 C1188 1.391 . S
C1190 H1180 0.950 . S
C1190 C1191 1.386 . S
C1190 C1192 1.391 . S
C1191 C1190 1.386 . S
C1191 C1195 1.393 . S
C1192 H1181 0.950 . S
C1192 C1190 1.391 . S
C1192 C1193 1.400 . S
C1193 C1187 1.491 . S
C1193 C1192 1.400 . S
C1193 C1194 1.398 . S
C1194 H1182 0.950 . S
C1194 C1193 1.398 . S
C1194 C1195 1.391 . S
C1195 H1183 0.950 . S
C1195 C1191 1.393 . S
C1195 C1194 1.391 . S
H1196 C1204 0.950 . S
H1197 C1209 0.950 . S
H1198 C1206 0.950 . S
H1199 C1208 0.950 . S
H1200 C1210 0.950 . S
H1201 C1212 0.950 . S
H1202 C1214 0.950 . S
H1203 C1215 0.950 . S
C1204 H1196 0.950 . S
C1204 C1205 1.386 . S
C1204 C1206 1.391 . S
C1205 C1204 1.386 . S
C1205 C1209 1.393 . S
C1206 H1198 0.950 . S
C1206 C1204 1.391 . S
C1206 C1207 1.400 . S
C1207 C1206 1.400 . S
C1207 C1208 1.398 . S
C1207 C1213 1.491 . S
C1208 H1199 0.950 . S
C1208 C1207 1.398 . S
C1208 C1209 1.391 . S
C1209 H1197 0.950 . S
C1209 C1205 1.393 . S
C1209 C1208 1.391 . S
C1210 H1200 0.950 . S
C1210 C1211 1.386 . S
C1210 C1212 1.391 . S
C1211 C1210 1.386 . S
C1211 C1215 1.393 . S
C1212 H1201 0.950 . S
C1212 C1210 1.391 . S
C1212 C1213 1.400 . S
C1213 C1207 1.491 . S
C1213 C1212 1.400 . S
C1213 C1214 1.398 . S
C1214 H1202 0.950 . S
C1214 C1213 1.398 . S
C1214 C1215 1.391 . S
C1215 H1203 0.950 . S
C1215 C1211 1.393 . S
C1215 C1214 1.391 . S
H1216 C1224 0.950 . S
H1217 C1229 0.950 . S
H1218 C1226 0.950 . S
H1219 C1228 0.950 . S
H1220 C1230 0.950 . S
H1221 C1232 0.950 . S
H1222 C1234 0.950 . S
H1223 C1235 0.950 . S
C1224 H1216 0.950 . S
C1224 C1225 1.386 . S
C1224 C1226 1.391 . S
C1225 C1224 1.386 . S
C1225 C1229 1.393 . S
C1226 H1218 0.950 . S
C1226 C1224 1.391 . S
C1226 C1227 1.400 . S
C1227 C1226 1.400 . S
C1227 C1228 1.398 . S
C1227 C1233 1.491 . S
C1228 H1219 0.950 . S
C1228 C1227 1.398 . S
C1228 C1229 1.391 . S
C1229 H1217 0.950 . S
C1229 C1225 1.393 . S
C1229 C1228 1.391 . S
C1230 H1220 0.950 . S
C1230 C1231 1.386 . S
C1230 C1232 1.391 . S
C1231 C1230 1.386 . S
C1231 C1235 1.393 . S
C1232 H1221 0.950 . S
C1232 C1230 1.391 . S
C1232 C1233 1.400 . S
C1233 C1227 1.491 . S
C1233 C1232 1.400 . S
C1233 C1234 1.398 . S
C1234 H1222 0.950 . S
C1234 C1233 1.398 . S
C1234 C1235 1.391 . S
C1235 H1223 0.950 . S
C1235 C1231 1.393 . S
C1235 C1234 1.391 . S
H1236 C1244 0.950 . S
H1237 C1249 0.950 . S
H1238 C1246 0.950 . S
H1239 C1248 0.950 . S
H1240 C1250 0.950 . S
H1241 C1252 0.950 . S
H1242 C1254 0.950 . S
H1243 C1255 0.950 . S
C1244 H1236 0.950 . S
C1244 C1245 1.386 . S
C1244 C1246 1.391 . S
C1245 C1244 1.386 . S
C1245 C1249 1.393 . S
C1246 H1238 0.950 . S
C1246 C1244 1.391 . S
C1246 C1247 1.400 . S
C1247 C1246 1.400 . S
C1247 C1248 1.398 . S
C1247 C1253 1.491 . S
C1248 H1239 0.950 . S
C1248 C1247 1.398 . S
C1248 C1249 1.391 . S
C1249 H1237 0.950 . S
C1249 C1245 1.393 . S
C1249 C1248 1.391 . S
C1250 H1240 0.950 . S
C1250 C1251 1.386 . S
C1250 C1252 1.391 . S
C1251 C1250 1.386 . S
C1251 C1255 1.393 . S
C1252 H1241 0.950 . S
C1252 C1250 1.391 . S
C1252 C1253 1.400 . S
C1253 C1247 1.491 . S
C1253 C1252 1.400 . S
C1253 C1254 1.398 . S
C1254 H1242 0.950 . S
C1254 C1253 1.398 . S
C1254 C1255 1.391 . S
C1255 H1243 0.950 . S
C1255 C1251 1.393 . S
C1255 C1254 1.391 . S
H1256 C1264 0.950 . S
H1257 C1269 0.950 . S
H1258 C1266 0.950 . S
H1259 C1268 0.950 . S
H1260 C1270 0.950 . S
H1261 C1272 0.950 . S
H1262 C1274 0.950 . S
H1263 C1275 0.950 . S
C1264 H1256 0.950 . S
C1264 C1265 1.386 . S
C1264 C1266 1.391 . S
C1265 C1264 1.386 . S
C1265 C1269 1.393 . S
C1266 H1258 0.950 . S
C1266 C1264 1.391 . S
C1266 C1267 1.400 . S
C1267 C1266 1.400 . S
C1267 C1268 1.398 . S
C1267 C1273 1.491 . S
C1268 H1259 0.950 . S
C1268 C1267 1.398 . S
C1268 C1269 1.391 . S
C1269 H1257 0.950 . S
C1269 C1265 1.393 . S
C1269 C1268 1.391 . S
C1270 H1260 0.950 . S
C1270 C1271 1.386 . S
C1270 C1272 1.391 . S
C1271 C1270 1.386 . S
C1271 C1275 1.393 . S
C1272 H1261 0.950 . S
C1272 C1270 1.391 . S
C1272 C1273 1.400 . S
C1273 C1267 1.491 . S
C1273 C1272 1.400 . S
C1273 C1274 1.398 . S
C1274 H1262 0.950 . S
C1274 C1273 1.398 . S
C1274 C1275 1.391 . S
C1275 H1263 0.950 . S
C1275 C1271 1.393 . S
C1275 C1274 1.391 . S
H1276 C1284 0.950 . S
H1277 C1289 0.950 . S
H1278 C1286 0.950 . S
H1279 C1288 0.950 . S
H1280 C1290 0.950 . S
H1281 C1292 0.950 . S
H1282 C1294 0.950 . S
H1283 C1295 0.950 . S
C1284 H1276 0.950 . S
C1284 C1285 1.386 . S
C1284 C1286 1.391 . S
C1285 C1284 1.386 . S
C1285 C1289 1.393 . S
C1286 H1278 0.950 . S
C1286 C1284 1.391 . S
C1286 C1287 1.400 . S
C1287 C1286 1.400 . S
C1287 C1288 1.398 . S
C1287 C1293 1.491 . S
C1288 H1279 0.950 . S
C1288 C1287 1.398 . S
C1288 C1289 1.391 . S
C1289 H1277 0.950 . S
C1289 C1285 1.393 . S
C1289 C1288 1.391 . S
C1290 H1280 0.950 . S
C1290 C1291 1.386 . S
C1290 C1292 1.391 . S
C1291 C1290 1.386 . S
C1291 C1295 1.393 . S
C1292 H1281 0.950 . S
C1292 C1290 1.391 . S
C1292 C1293 1.400 . S
C1293 C1287 1.491 . S
C1293 C1292 1.400 . S
C1293 C1294 1.398 . S
C1294 H1282 0.950 . S
C1294 C1293 1.398 . S
C1294 C1295 1.391 . S
C1295 H1283 0.950 . S
C1295 C1291 1.393 . S
C1295 C1294 1.391 . S
H1296 C1304 0.950 . S
H1297 C1309 0.950 . S
H1298 C1306 0.950 . S
H1299 C1308 0.950 . S
H1300 C1310 0.950 . S
H1301 C1312 0.950 . S
H1302 C1314 0.950 . S
H1303 C1315 0.950 . S
C1304 H1296 0.950 . S
C1304 C1305 1.386 . S
C1304 C1306 1.391 . S
C1305 C1304 1.386 . S
C1305 C1309 1.393 . S
C1306 H1298 0.950 . S
C1306 C1304 1.391 . S
C1306 C1307 1.400 . S
C1307 C1306 1.400 . S
C1307 C1308 1.398 . S
C1307 C1313 1.491 . S
C1308 H1299 0.950 . S
C1308 C1307 1.398 . S
C1308 C1309 1.391 . S
C1309 H1297 0.950 . S
C1309 C1305 1.393 . S
C1309 C1308 1.391 . S
C1310 H1300 0.950 . S
C1310 C1311 1.386 . S
C1310 C1312 1.391 . S
C1311 C1310 1.386 . S
C1311 C1315 1.393 . S
C1312 H1301 0.950 . S
C1312 C1310 1.391 . S
C1312 C1313 1.400 . S
C1313 C1307 1.491 . S
C1313 C1312 1.400 . S
C1313 C1314 1.398 . S
C1314 H1302 0.950 . S
C1314 C1313 1.398 . S
C1314 C1315 1.391 . S
C1315 H1303 0.950 . S
C1315 C1311 1.393 . S
C1315 C1314 1.391 . S
H1316 C1324 0.950 . S
H1317 C1329 0.950 . S
H1318 C1326 0.950 . S
H1319 C1328 0.950 . S
H1320 C1330 0.950 . S
H1321 C1332 0.950 . S
H1322 C1334 0.950 . S
H1323 C1335 0.950 . S
C1324 H1316 0.950 . S
C1324 C1325 1.386 . S
C1324 C1326 1.391 . S
C1325 C1324 1.386 . S
C1325 C1329 1.393 . S
C1326 H1318 0.950 . S
C1326 C1324 1.391 . S
C1326 C1327 1.400 . S
C1327 C1326 1.400 . S
C1327 C1328 1.398 . S
C1327 C1333 1.491 . S
C1328 H1319 0.950 . S
C1328 C1327 1.398 . S
C1328 C1329 1.391 . S
C1329 H1317 0.950 . S
C1329 C1325 1.393 . S
C1329 C1328 1.391 . S
C1330 H1320 0.950 . S
C1330 C1331 1.386 . S
C1330 C1332 1.391 . S
C1331 C1330 1.386 . S
C1331 C1335 1.393 . S
C1332 H1321 0.950 . S
C1332 C1330 1.391 . S
C1332 C1333 1.400 . S
C1333 C1327 1.491 . S
C1333 C1332 1.400 . S
C1333 C1334 1.398 . S
C1334 H1322 0.950 . S
C1334 C1333 1.398 . S
C1334 C1335 1.391 . S
C1335 H1323 0.950 . S
C1335 C1331 1.393 . S
C1335 C1334 1.391 . S
H1336 C1344 0.950 . S
H1337 C1349 0.950 . S
H1338 C1346 0.950 . S
H1339 C1348 0.950 . S
H1340 C1350 0.950 . S
H1341 C1352 0.950 . S
H1342 C1354 0.950 . S
H1343 C1355 0.950 . S
C1344 H1336 0.950 . S
C1344 C1345 1.386 . S
C1344 C1346 1.391 . S
C1345 C1344 1.386 . S
C1345 C1349 1.393 . S
C1346 H1338 0.950 . S
C1346 C1344 1.391 . S
C1346 C1347 1.400 . S
C1347 C1346 1.400 . S
C1347 C1348 1.398 . S
C1347 C1353 1.491 . S
C1348 H1339 0.950 . S
C1348 C1347 1.398 . S
C1348 C1349 1.391 . S
C1349 H1337 0.950 . S
C1349 C1345 1.393 . S
C1349 C1348 1.391 . S
C1350 H1340 0.950 . S
C1350 C1351 1.386 . S
C1350 C1352 1.391 . S
C1351 C1350 1.386 . S
C1351 C1355 1.393 . S
C1352 H1341 0.950 . S
C1352 C1350 1.391 . S
C1352 C1353 1.400 . S
C1353 C1347 1.491 . S
C1353 C1352 1.400 . S
C1353 C1354 1.398 . S
C1354 H1342 0.950 . S
C1354 C1353 1.398 . S
C1354 C1355 1.391 . S
C1355 H1343 0.950 . S
C1355 C1351 1.393 . S
C1355 C1354 1.391 . S
H1356 C1364 0.950 1_556 S
H1357 C1369 0.950 . S
H1358 C1366 0.944 1_655 S
H1359 C1368 0.950 . S
H1360 C1370 0.948 1_554 S
H1361 C1372 0.950 . S
H1362 C1374 0.950 . S
H1363 C1375 0.950 . S
C1364 H1356 0.950 1_554 S
C1364 C1365 1.386 . S
C1364 C1366 1.389 1_654 S
C1365 C1364 1.386 . S
C1365 C1369 1.393 1_655 S
C1366 H1358 0.944 1_455 S
C1366 C1364 1.389 1_456 S
C1366 C1367 1.409 1_556 S
C1367 C1366 1.409 1_554 S
C1367 C1368 1.398 . S
C1367 C1373 1.491 1_554 S
C1368 H1359 0.950 . S
C1368 C1367 1.398 . S
C1368 C1369 1.391 . S
C1369 H1357 0.950 . S
C1369 C1365 1.393 1_455 S
C1369 C1368 1.391 . S
C1370 H1360 0.948 1_556 S
C1370 C1371 1.386 . S
C1370 C1372 1.391 1_556 S
C1371 C1370 1.386 . S
C1371 C1375 1.393 . S
C1372 H1361 0.950 . S
C1372 C1370 1.391 1_554 S
C1372 C1373 1.400 1_554 S
C1373 C1367 1.491 1_556 S
C1373 C1372 1.400 1_556 S
C1373 C1374 1.398 . S
C1374 H1362 0.950 . S
C1374 C1373 1.398 . S
C1374 C1375 1.391 . S
C1375 H1363 0.950 . S
C1375 C1371 1.393 . S
C1375 C1374 1.391 . S
H1376 C1384 0.950 . S
H1377 C1389 0.950 . S
H1378 C1386 0.950 . S
H1379 C1388 0.950 1_554 S
H1380 C1390 0.950 . S
H1381 C1392 0.950 . S
H1382 C1394 0.950 1_556 S
H1383 C1395 0.950 . S
C1384 H1376 0.950 . S
C1384 C1385 1.386 . S
C1384 C1386 1.391 . S
C1385 C1384 1.386 . S
C1385 C1389 1.393 . S
C1386 H1378 0.950 . S
C1386 C1384 1.391 . S
C1386 C1387 1.400 . S
C1387 C1386 1.400 . S
C1387 C1388 1.398 . S
C1387 C1393 1.491 1_556 S
C1388 H1379 0.950 1_556 S
C1388 C1387 1.398 . S
C1388 C1389 1.391 . S
C1389 H1377 0.950 . S
C1389 C1385 1.393 . S
C1389 C1388 1.391 . S
C1390 H1380 0.950 . S
C1390 C1391 1.386 . S
C1390 C1392 1.391 . S
C1391 C1390 1.386 . S
C1391 C1395 1.393 . S
C1392 H1381 0.950 . S
C1392 C1390 1.391 . S
C1392 C1393 1.400 . S
C1393 C1387 1.491 1_554 S
C1393 C1392 1.400 . S
C1393 C1394 1.398 . S
C1394 H1382 0.950 1_554 S
C1394 C1393 1.398 . S
C1394 C1395 1.391 . S
C1395 H1383 0.950 . S
C1395 C1391 1.393 . S
C1395 C1394 1.391 . S
H1396 C1404 0.950 . S
H1397 C1409 0.950 1_556 S
H1398 C1406 0.950 . S
H1399 C1408 0.950 . S
H1400 C1410 0.950 . S
H1401 C1412 0.950 . S
H1402 C1414 0.950 . S
H1403 C1415 0.950 1_554 S
C1404 H1396 0.950 . S
C1404 C1405 1.386 . S
C1404 C1406 1.391 . S
C1405 C1404 1.386 . S
C1405 C1409 1.393 . S
C1406 H1398 0.950 . S
C1406 C1404 1.391 . S
C1406 C1407 1.400 . S
C1407 C1406 1.400 . S
C1407 C1408 1.398 1_554 S
C1407 C1413 1.491 1_554 S
C1408 H1399 0.950 . S
C1408 C1407 1.398 1_556 S
C1408 C1409 1.391 1_556 S
C1409 H1397 0.950 1_554 S
C1409 C1405 1.393 . S
C1409 C1408 1.391 1_554 S
C1410 H1400 0.950 . S
C1410 C1411 1.386 . S
C1410 C1412 1.391 . S
C1411 C1410 1.386 . S
C1411 C1415 1.393 . S
C1412 H1401 0.950 . S
C1412 C1410 1.391 . S
C1412 C1413 1.400 . S
C1413 C1407 1.491 1_556 S
C1413 C1412 1.400 . S
C1413 C1414 1.398 1_556 S
C1414 H1402 0.950 . S
C1414 C1413 1.398 1_554 S
C1414 C1415 1.391 1_554 S
C1415 H1403 0.950 1_556 S
C1415 C1411 1.393 . S
C1415 C1414 1.391 1_556 S
H1416 C1424 0.950 . S
H1417 C1429 0.950 . S
H1418 C1426 0.950 . S
H1419 C1428 0.950 . S
H1420 C1430 0.950 . S
H1421 C1432 0.950 . S
H1422 C1434 0.950 . S
H1423 C1435 0.950 . S
C1424 H1416 0.950 . S
C1424 C1425 1.386 . S
C1424 C1426 1.391 . S
C1425 C1424 1.386 . S
C1425 C1429 1.393 . S
C1426 H1418 0.950 . S
C1426 C1424 1.391 . S
C1426 C1427 1.400 . S
C1427 C1426 1.400 . S
C1427 C1428 1.398 . S
C1427 C1433 1.491 . S
C1428 H1419 0.950 . S
C1428 C1427 1.398 . S
C1428 C1429 1.391 . S
C1429 H1417 0.950 . S
C1429 C1425 1.393 . S
C1429 C1428 1.391 . S
C1430 H1420 0.950 . S
C1430 C1431 1.386 1_565 S
C1430 C1432 1.391 1_565 S
C1431 C1430 1.386 1_545 S
C1431 C1435 1.393 . S
C1432 H1421 0.950 . S
C1432 C1430 1.391 1_545 S
C1432 C1433 1.400 . S
C1433 C1427 1.491 . S
C1433 C1432 1.400 . S
C1433 C1434 1.398 . S
C1434 H1422 0.950 . S
C1434 C1433 1.398 . S
C1434 C1435 1.391 . S
C1435 H1423 0.950 . S
C1435 C1431 1.393 . S
C1435 C1434 1.391 . S
H1436 C1444 0.950 . S
H1437 C1449 0.950 . S
H1438 C1446 0.950 . S
H1439 C1448 0.950 . S
H1440 C1450 0.950 . S
H1441 C1452 0.950 . S
H1442 C1454 0.950 . S
H1443 C1455 0.950 . S
C1444 H1436 0.950 . S
C1444 C1445 1.386 . S
C1444 C1446 1.391 . S
C1445 C1444 1.386 . S
C1445 C1449 1.393 1_655 S
C1446 H1438 0.950 . S
C1446 C1444 1.391 . S
C1446 C1447 1.400 1_655 S
C1447 C1446 1.400 1_455 S
C1447 C1448 1.398 . S
C1447 C1453 1.491 . S
C1448 H1439 0.950 . S
C1448 C1447 1.398 . S
C1448 C1449 1.391 . S
C1449 H1437 0.950 . S
C1449 C1445 1.393 1_455 S
C1449 C1448 1.391 . S
C1450 H1440 0.950 . S
C1450 C1451 1.386 . S
C1450 C1452 1.391 . S
C1451 C1450 1.386 . S
C1451 C1455 1.393 . S
C1452 H1441 0.950 . S
C1452 C1450 1.391 . S
C1452 C1453 1.400 . S
C1453 C1447 1.491 . S
C1453 C1452 1.400 . S
C1453 C1454 1.398 . S
C1454 H1442 0.950 . S
C1454 C1453 1.398 . S
C1454 C1455 1.391 . S
C1455 H1443 0.950 . S
C1455 C1451 1.393 . S
C1455 C1454 1.391 . S
H1456 C1464 0.950 . S
H1457 C1469 0.950 . S
H1458 C1466 0.950 . S
H1459 C1468 0.950 . S
H1460 C1470 0.950 . S
H1461 C1472 0.950 . S
H1462 C1474 0.950 . S
H1463 C1475 0.950 . S
C1464 H1456 0.950 . S
C1464 C1465 1.386 . S
C1464 C1466 1.391 . S
C1465 C1464 1.386 . S
C1465 C1469 1.393 . S
C1466 H1458 0.950 . S
C1466 C1464 1.391 . S
C1466 C1467 1.400 . S
C1467 C1466 1.400 . S
C1467 C1468 1.398 . S
C1467 C1473 1.491 . S
C1468 H1459 0.950 . S
C1468 C1467 1.398 . S
C1468 C1469 1.391 . S
C1469 H1457 0.950 . S
C1469 C1465 1.393 . S
C1469 C1468 1.391 . S
C1470 H1460 0.950 . S
C1470 C1471 1.386 . S
C1470 C1472 1.391 . S
C1471 C1470 1.386 . S
C1471 C1475 1.393 . S
C1472 H1461 0.950 . S
C1472 C1470 1.391 . S
C1472 C1473 1.400 . S
C1473 C1467 1.491 . S
C1473 C1472 1.400 . S
C1473 C1474 1.398 . S
C1474 H1462 0.950 . S
C1474 C1473 1.398 . S
C1474 C1475 1.391 . S
C1475 H1463 0.950 . S
C1475 C1471 1.393 . S
C1475 C1474 1.391 . S
C405 C59 1.374 . S
C411 C15 1.375 . S
C425 C10 1.343 . S
C431 C29 1.311 . S
C445 C40 1.277 . S
C451 C54 1.287 1_565 S
C465 C87 1.373 . S
C471 C131 1.356 1_565 S
C485 C74 1.343 . S
C491 C109 1.329 . S
C505 C96 1.297 . S
C511 C118 1.299 . S
C525 C194 1.313 . S
C531 C147 1.309 . S
C545 C169 1.297 . S
C551 C142 1.329 . S
C565 C164 1.341 . S
C571 C183 1.310 . S
C585 C206 1.319 . S
C591 C257 1.315 . S
C605 C219 1.296 . S
C611 C228 1.329 . S
C625 C252 1.334 . S
C631 C241 1.328 . S
C645 C323 1.335 . S
C651 C271 1.355 . S
C665 C282 1.332 . S
C671 C293 1.301 . S
C685 C304 1.285 . S
C691 C318 1.287 . S
C705 C381 1.365 . S
C711 C351 1.350 . S
C725 C373 1.304 . S
C731 C338 1.314 . S
C745 C392 1.273 . S
C751 C360 1.267 . S
C765 C21 1.948 . S
C771 C294 1.958 . S
C785 C329 1.973 . S
C791 C37 1.986 . S
C805 C62 1.929 . S
C811 C272 1.920 . S
C825 C175 2.003 1_556 S
C831 C65 1.988 . S
C845 C18 1.964 1_655 S
C851 C191 1.956 1_556 S
C865 C153 1.940 1_556 S
C871 C30 1.968 . S
C885 C235 1.996 . S
C891 C81 1.989 1_655 S
C905 C103 1.983 . S
C911 C249 1.997 . S
C925 C213 1.950 . S
C931 C128 1.956 . S
C945 C125 1.973 . S
C951 C367 1.985 1_554 S
C965 C384 1.923 1_554 S
C971 C84 1.918 . S
C985 C345 1.948 1_554 S
C991 C106 1.957 . S
C1005 C301 1.941 . S
C1011 C184 1.953 . S
C1025 C326 1.913 . S
C1031 C150 1.903 . S
C1045 C172 1.956 . S
C1051 C279 1.940 1_545 S
C1065 C216 1.905 . S
C1071 C370 1.914 1_545 S
C1085 C395 1.936 . S
C1091 C238 1.963 . S
C1105 C250 1.914 . S
C1111 C348 1.907 . S
C1125 C7 1.099 . S
C1131 C337 1.097 . S
C1145 C43 1.103 . S
C1151 C359 1.099 . S
C1165 C382 1.036 . S
C1171 C52 1.034 1_565 S
C1185 C263 1.096 . S
C1191 C51 1.100 . S
C1205 C205 1.069 . S
C1211 C8 1.071 . S
C1225 C32 1.092 . S
C1231 C227 1.088 . S
C1245 C73 1.091 . S
C1251 C139 1.095 . S
C1265 C95 1.114 . S
C1271 C161 1.116 . S
C1285 C120 1.085 . S
C1291 C197 1.085 . S
C1305 C117 1.083 1_565 S
C1311 C315 1.086 . S
C1325 C76 1.013 . S
C1331 C274 1.017 . S
C1345 C296 1.034 . S
C1351 C98 1.034 . S
C1365 C186 1.037 . S
C1371 C389 1.039 . S
C1385 C340 1.006 . S
C1391 C140 1.011 . S
C1405 C162 1.040 . S
C1411 C362 1.039 1_545 S
C1425 C208 1.028 . S
C1431 C285 1.027 1_545 S
C1445 C230 1.050 . S
C1451 C307 1.049 . S
C1465 C316 1.029 . S
C1471 C260 1.028 . S
