# Generated by pormake.
# Topology uka, (4)-cn, num edge types: 1
# Building blocks:
#     Node 0, Type 0, BuildingBlock: QUQFOY_clean_sbu_1, # of connection points: 4
#     Node 1, Type 0, BuildingBlock: QUQFOY_clean_sbu_1, # of connection points: 4
#     Node 2, Type 0, BuildingBlock: QUQFOY_clean_sbu_1, # of connection points: 4
#     Node 3, Type 0, BuildingBlock: QUQFOY_clean_sbu_1, # of connection points: 4
#     Node 4, Type 0, BuildingBlock: QUQFOY_clean_sbu_1, # of connection points: 4
#     Node 5, Type 0, BuildingBlock: QUQFOY_clean_sbu_1, # of connection points: 4
#     Node 6, Type 0, BuildingBlock: QUQFOY_clean_sbu_1, # of connection points: 4
#     Node 7, Type 0, BuildingBlock: QUQFOY_clean_sbu_1, # of connection points: 4
#     Node 8, Type 0, BuildingBlock: QUQFOY_clean_sbu_1, # of connection points: 4
#     Node 9, Type 0, BuildingBlock: QUQFOY_clean_sbu_1, # of connection points: 4
#     Node 10, Type 0, BuildingBlock: QUQFOY_clean_sbu_1, # of connection points: 4
#     Node 11, Type 0, BuildingBlock: QUQFOY_clean_sbu_1, # of connection points: 4
#     Node 12, Type 0, BuildingBlock: QUQFOY_clean_sbu_1, # of connection points: 4
#     Node 13, Type 0, BuildingBlock: QUQFOY_clean_sbu_1, # of connection points: 4
#     Node 14, Type 0, BuildingBlock: QUQFOY_clean_sbu_1, # of connection points: 4
#     Node 15, Type 0, BuildingBlock: QUQFOY_clean_sbu_1, # of connection points: 4
#     Node 16, Type 0, BuildingBlock: QUQFOY_clean_sbu_1, # of connection points: 4
#     Node 17, Type 0, BuildingBlock: QUQFOY_clean_sbu_1, # of connection points: 4
#     Node 18, Type 0, BuildingBlock: QUQFOY_clean_sbu_1, # of connection points: 4
#     Node 19, Type 0, BuildingBlock: QUQFOY_clean_sbu_1, # of connection points: 4
#     Node 20, Type 0, BuildingBlock: QUQFOY_clean_sbu_1, # of connection points: 4
#     Node 21, Type 0, BuildingBlock: QUQFOY_clean_sbu_1, # of connection points: 4
#     Node 22, Type 0, BuildingBlock: QUQFOY_clean_sbu_1, # of connection points: 4
#     Node 23, Type 0, BuildingBlock: QUQFOY_clean_sbu_1, # of connection points: 4
#     Node 24, Type 0, BuildingBlock: QUQFOY_clean_sbu_1, # of connection points: 4
#     Node 25, Type 0, BuildingBlock: QUQFOY_clean_sbu_1, # of connection points: 4
#     Node 26, Type 0, BuildingBlock: QUQFOY_clean_sbu_1, # of connection points: 4
#     Node 27, Type 0, BuildingBlock: QUQFOY_clean_sbu_1, # of connection points: 4
#     Node 28, Type 0, BuildingBlock: QUQFOY_clean_sbu_1, # of connection points: 4
#     Node 29, Type 0, BuildingBlock: QUQFOY_clean_sbu_1, # of connection points: 4
#     Node 30, Type 0, BuildingBlock: QUQFOY_clean_sbu_1, # of connection points: 4
#     Node 31, Type 0, BuildingBlock: QUQFOY_clean_sbu_1, # of connection points: 4
#     Edge 32, Type (0, 0), BuildingBlock: CIFDUS_clean_linker_0, # of connection points: 2
#     Edge 33, Type (0, 0), BuildingBlock: CIFDUS_clean_linker_0, # of connection points: 2
#     Edge 34, Type (0, 0), BuildingBlock: CIFDUS_clean_linker_0, # of connection points: 2
#     Edge 35, Type (0, 0), BuildingBlock: CIFDUS_clean_linker_0, # of connection points: 2
#     Edge 36, Type (0, 0), BuildingBlock: CIFDUS_clean_linker_0, # of connection points: 2
#     Edge 37, Type (0, 0), BuildingBlock: CIFDUS_clean_linker_0, # of connection points: 2
#     Edge 38, Type (0, 0), BuildingBlock: CIFDUS_clean_linker_0, # of connection points: 2
#     Edge 39, Type (0, 0), BuildingBlock: CIFDUS_clean_linker_0, # of connection points: 2
#     Edge 40, Type (0, 0), BuildingBlock: CIFDUS_clean_linker_0, # of connection points: 2
#     Edge 41, Type (0, 0), BuildingBlock: CIFDUS_clean_linker_0, # of connection points: 2
#     Edge 42, Type (0, 0), BuildingBlock: CIFDUS_clean_linker_0, # of connection points: 2
#     Edge 43, Type (0, 0), BuildingBlock: CIFDUS_clean_linker_0, # of connection points: 2
#     Edge 44, Type (0, 0), BuildingBlock: CIFDUS_clean_linker_0, # of connection points: 2
#     Edge 45, Type (0, 0), BuildingBlock: CIFDUS_clean_linker_0, # of connection points: 2
#     Edge 46, Type (0, 0), BuildingBlock: CIFDUS_clean_linker_0, # of connection points: 2
#     Edge 47, Type (0, 0), BuildingBlock: CIFDUS_clean_linker_0, # of connection points: 2
#     Edge 48, Type (0, 0), BuildingBlock: CIFDUS_clean_linker_0, # of connection points: 2
#     Edge 49, Type (0, 0), BuildingBlock: CIFDUS_clean_linker_0, # of connection points: 2
#     Edge 50, Type (0, 0), BuildingBlock: CIFDUS_clean_linker_0, # of connection points: 2
#     Edge 51, Type (0, 0), BuildingBlock: CIFDUS_clean_linker_0, # of connection points: 2
#     Edge 52, Type (0, 0), BuildingBlock: CIFDUS_clean_linker_0, # of connection points: 2
#     Edge 53, Type (0, 0), BuildingBlock: CIFDUS_clean_linker_0, # of connection points: 2
#     Edge 54, Type (0, 0), BuildingBlock: CIFDUS_clean_linker_0, # of connection points: 2
#     Edge 55, Type (0, 0), BuildingBlock: CIFDUS_clean_linker_0, # of connection points: 2
#     Edge 56, Type (0, 0), BuildingBlock: CIFDUS_clean_linker_0, # of connection points: 2
#     Edge 57, Type (0, 0), BuildingBlock: CIFDUS_clean_linker_0, # of connection points: 2
#     Edge 58, Type (0, 0), BuildingBlock: CIFDUS_clean_linker_0, # of connection points: 2
#     Edge 59, Type (0, 0), BuildingBlock: CIFDUS_clean_linker_0, # of connection points: 2
#     Edge 60, Type (0, 0), BuildingBlock: CIFDUS_clean_linker_0, # of connection points: 2
#     Edge 61, Type (0, 0), BuildingBlock: CIFDUS_clean_linker_0, # of connection points: 2
#     Edge 62, Type (0, 0), BuildingBlock: CIFDUS_clean_linker_0, # of connection points: 2
#     Edge 63, Type (0, 0), BuildingBlock: CIFDUS_clean_linker_0, # of connection points: 2
#     Edge 64, Type (0, 0), BuildingBlock: CIFDUS_clean_linker_0, # of connection points: 2
#     Edge 65, Type (0, 0), BuildingBlock: CIFDUS_clean_linker_0, # of connection points: 2
#     Edge 66, Type (0, 0), BuildingBlock: CIFDUS_clean_linker_0, # of connection points: 2
#     Edge 67, Type (0, 0), BuildingBlock: CIFDUS_clean_linker_0, # of connection points: 2
#     Edge 68, Type (0, 0), BuildingBlock: CIFDUS_clean_linker_0, # of connection points: 2
#     Edge 69, Type (0, 0), BuildingBlock: CIFDUS_clean_linker_0, # of connection points: 2
#     Edge 70, Type (0, 0), BuildingBlock: CIFDUS_clean_linker_0, # of connection points: 2
#     Edge 71, Type (0, 0), BuildingBlock: CIFDUS_clean_linker_0, # of connection points: 2
#     Edge 72, Type (0, 0), BuildingBlock: CIFDUS_clean_linker_0, # of connection points: 2
#     Edge 73, Type (0, 0), BuildingBlock: CIFDUS_clean_linker_0, # of connection points: 2
#     Edge 74, Type (0, 0), BuildingBlock: CIFDUS_clean_linker_0, # of connection points: 2
#     Edge 75, Type (0, 0), BuildingBlock: CIFDUS_clean_linker_0, # of connection points: 2
#     Edge 76, Type (0, 0), BuildingBlock: CIFDUS_clean_linker_0, # of connection points: 2
#     Edge 77, Type (0, 0), BuildingBlock: CIFDUS_clean_linker_0, # of connection points: 2
#     Edge 78, Type (0, 0), BuildingBlock: CIFDUS_clean_linker_0, # of connection points: 2
#     Edge 79, Type (0, 0), BuildingBlock: CIFDUS_clean_linker_0, # of connection points: 2
#     Edge 80, Type (0, 0), BuildingBlock: CIFDUS_clean_linker_0, # of connection points: 2
#     Edge 81, Type (0, 0), BuildingBlock: CIFDUS_clean_linker_0, # of connection points: 2
#     Edge 82, Type (0, 0), BuildingBlock: CIFDUS_clean_linker_0, # of connection points: 2
#     Edge 83, Type (0, 0), BuildingBlock: CIFDUS_clean_linker_0, # of connection points: 2
#     Edge 84, Type (0, 0), BuildingBlock: CIFDUS_clean_linker_0, # of connection points: 2
#     Edge 85, Type (0, 0), BuildingBlock: CIFDUS_clean_linker_0, # of connection points: 2
#     Edge 86, Type (0, 0), BuildingBlock: CIFDUS_clean_linker_0, # of connection points: 2
#     Edge 87, Type (0, 0), BuildingBlock: CIFDUS_clean_linker_0, # of connection points: 2
#     Edge 88, Type (0, 0), BuildingBlock: CIFDUS_clean_linker_0, # of connection points: 2
#     Edge 89, Type (0, 0), BuildingBlock: CIFDUS_clean_linker_0, # of connection points: 2
#     Edge 90, Type (0, 0), BuildingBlock: CIFDUS_clean_linker_0, # of connection points: 2
#     Edge 91, Type (0, 0), BuildingBlock: CIFDUS_clean_linker_0, # of connection points: 2
#     Edge 92, Type (0, 0), BuildingBlock: CIFDUS_clean_linker_0, # of connection points: 2
#     Edge 93, Type (0, 0), BuildingBlock: CIFDUS_clean_linker_0, # of connection points: 2
#     Edge 94, Type (0, 0), BuildingBlock: CIFDUS_clean_linker_0, # of connection points: 2
#     Edge 95, Type (0, 0), BuildingBlock: CIFDUS_clean_linker_0, # of connection points: 2
# Relax obj value: 0.066
# Max RMSD: 0.095
# Mean RMSD: 0.095
data_MOF--net-uka--node1-QUQFOY_clean_sbu_1--edge1-CIFDUS_clean_linker_0
_symmetry_space_group_name_H-M    P1
_symmetry_Int_Tables_number       1
_symmetry_cell_setting            triclinic
loop_
_symmetry_equiv_pos_as_xyz
'x, y, z'
_cell_length_a     56.157925
_cell_length_b     56.166451
_cell_length_c     39.06373
_cell_angle_alpha  90.003074
_cell_angle_beta   90.01713
_cell_angle_gamma 89.964067
loop_
_atom_site_label
_atom_site_type_symbol
_atom_site_fract_x
_atom_site_fract_y
_atom_site_fract_z
_atom_type_partial_charge
O0 O 0.12873 0.22576 0.30266 0.0
Cd1 Cd 0.13431 0.26028 0.28805 0.0
Cd2 Cd 0.09637 0.24926 0.25059 0.0
O3 O 0.10614 0.21425 0.25979 0.0
O4 O 0.16733 0.26622 0.30428 0.0
O5 O 0.1573 0.26566 0.24948 0.0
C6 C 0.17374 0.26676 0.2726 0.0
C7 C 0.0822 0.26306 0.19766 0.0
C8 C 0.11799 0.2093 0.28664 0.0
C9 C 0.09013 0.28022 0.31324 0.0
O10 O 0.08092 0.26556 0.29226 0.0
O11 O 0.11238 0.28436 0.31243 0.0
O12 O 0.07041 0.24782 0.21555 0.0
O13 O 0.10277 0.26973 0.20895 0.0
O14 O 0.01012 0.87562 0.56341 0.0
Cd15 Cd 0.97861 0.89163 0.55151 0.0
Cd16 Cd 0.97231 0.84886 0.51508 0.0
O17 O 0.00754 0.84388 0.53036 0.0
O18 O 0.98368 0.92484 0.56766 0.0
O19 O 0.97775 0.91563 0.5133 0.0
C20 C 0.98237 0.93156 0.53621 0.0
C21 C 0.96069 0.83613 0.46018 0.0
C22 C 0.01899 0.85644 0.55193 0.0
C23 C 0.94084 0.85927 0.57712 0.0
O24 O 0.94709 0.84499 0.55343 0.0
O25 O 0.95037 0.87967 0.57995 0.0
O26 O 0.96669 0.82119 0.48361 0.0
O27 O 0.9615 0.85853 0.46745 0.0
O28 O 0.37268 0.76322 0.81304 0.0
Cd29 Cd 0.35372 0.73265 0.8055 0.0
Cd30 Cd 0.39488 0.72191 0.76525 0.0
O31 O 0.40324 0.75684 0.77866 0.0
O32 O 0.32157 0.74064 0.82377 0.0
O33 O 0.32809 0.73174 0.76945 0.0
C34 C 0.31339 0.73816 0.79317 0.0
C35 C 0.40563 0.70703 0.71105 0.0
C36 C 0.39219 0.77003 0.79991 0.0
C37 C 0.38375 0.69224 0.82906 0.0
O38 O 0.39725 0.6968 0.80376 0.0
O39 O 0.36485 0.70409 0.83431 0.0
O40 O 0.4214 0.71248 0.73363 0.0
O41 O 0.38357 0.71085 0.71862 0.0
O42 O 0.47746 0.12417 0.05026 0.0
Cd43 Cd 0.51002 0.10981 0.03916 0.0
Cd44 Cd 0.5149 0.15295 0.00523 0.0
O45 O 0.47892 0.15607 0.01737 0.0
O46 O 0.50592 0.07532 0.04904 0.0
O47 O 0.51407 0.08932 0.99741 0.0
C48 C 0.5093 0.07135 0.0169 0.0
C49 C 0.52991 0.16579 0.95213 0.0
C50 C 0.46771 0.14279 0.03831 0.0
C51 C 0.5457 0.14277 0.06789 0.0
O52 O 0.53853 0.15739 0.0453 0.0
O53 O 0.53752 0.12173 0.0694 0.0
O54 O 0.52195 0.18065 0.9745 0.0
O55 O 0.52842 0.14337 0.95921 0.0
O56 O 0.12883 0.76507 0.18604 0.0
Cd57 Cd 0.15201 0.73703 0.18975 0.0
Cd58 Cd 0.1145 0.71574 0.2248 0.0
O59 O 0.09796 0.74697 0.20939 0.0
O60 O 0.18333 0.75036 0.17547 0.0
O61 O 0.17654 0.73598 0.22727 0.0
C62 C 0.191 0.74594 0.2059 0.0
C63 C 0.10588 0.70228 0.28049 0.0
C64 C 0.10696 0.76492 0.19428 0.0
C65 C 0.13127 0.69252 0.1594 0.0
O66 O 0.11893 0.69066 0.18658 0.0
O67 O 0.1455 0.70988 0.15546 0.0
O68 O 0.0908 0.70004 0.25588 0.0
O69 O 0.12614 0.71203 0.27357 0.0
O70 O 0.49115 0.88081 0.45352 0.0
Cd71 Cd 0.52186 0.899 0.46351 0.0
Cd72 Cd 0.53007 0.85593 0.50292 0.0
O73 O 0.49638 0.84792 0.48374 0.0
O74 O 0.51487 0.93102 0.44386 0.0
O75 O 0.52234 0.92528 0.49874 0.0
C76 C 0.51675 0.93969 0.47424 0.0
C77 C 0.54081 0.84218 0.55776 0.0
C78 C 0.48395 0.86049 0.46327 0.0
C79 C 0.56289 0.86876 0.44274 0.0
O80 O 0.55765 0.85545 0.46793 0.0
O81 O 0.55088 0.88735 0.43615 0.0
O82 O 0.53928 0.82795 0.53205 0.0
O83 O 0.5355 0.86429 0.55283 0.0
O84 O 0.36623 0.22371 0.70621 0.0
Cd85 Cd 0.35715 0.25743 0.72241 0.0
Cd86 Cd 0.39984 0.25155 0.75349 0.0
O87 O 0.39417 0.21581 0.74403 0.0
O88 O 0.32281 0.25934 0.71002 0.0
O89 O 0.33578 0.26128 0.7634 0.0
C90 C 0.31808 0.26058 0.74225 0.0
C91 C 0.41665 0.26489 0.80506 0.0
C92 C 0.38078 0.2091 0.71962 0.0
C93 C 0.39642 0.28465 0.69295 0.0
O94 O 0.40945 0.27098 0.71089 0.0
O95 O 0.37397 0.28498 0.69706 0.0
O96 O 0.42864 0.25221 0.78367 0.0
O97 O 0.39466 0.26944 0.7979 0.0
O98 O 0.01973 0.12661 0.95298 0.0
Cd99 Cd 0.98767 0.1127 0.96882 0.0
Cd100 Cd 0.98725 0.15547 0.99965 0.0
O101 O 0.02341 0.15584 0.99014 0.0
O102 O 0.99079 0.07833 0.95708 0.0
O103 O 0.98669 0.09137 0.01016 0.0
C104 C 0.98996 0.07376 0.98938 0.0
C105 C 0.97062 0.16743 0.05198 0.0
C106 C 0.03199 0.14336 0.96593 0.0
C107 C 0.95528 0.14738 0.93869 0.0
O108 O 0.96668 0.16219 0.957 0.0
O109 O 0.95826 0.12512 0.94254 0.0
O110 O 0.98059 0.18251 0.03165 0.0
O111 O 0.97092 0.14523 0.04326 0.0
O112 O 0.86778 0.74935 0.6867 0.0
Cd113 Cd 0.86003 0.71751 0.7098 0.0
Cd114 Cd 0.90076 0.7292 0.73876 0.0
O115 O 0.8933 0.76384 0.72398 0.0
O116 O 0.82593 0.71329 0.69733 0.0
O117 O 0.83817 0.71875 0.75056 0.0
C118 C 0.82077 0.71688 0.72905 0.0
C119 C 0.91425 0.71655 0.79264 0.0
C120 C 0.88041 0.76654 0.69743 0.0
C121 C 0.9003 0.69211 0.68308 0.0
O122 O 0.91174 0.70851 0.69826 0.0
O123 O 0.87828 0.689 0.68906 0.0
O124 O 0.92771 0.72877 0.77244 0.0
O125 O 0.89252 0.71276 0.78309 0.0
O126 O 0.00217 0.11225 0.42253 0.0
Cd127 Cd 0.031 0.09581 0.44368 0.0
Cd128 Cd 0.03247 0.13959 0.47981 0.0
O129 O 0.99917 0.14341 0.45674 0.0
O130 O 0.02699 0.06231 0.42825 0.0
O131 O 0.02634 0.07294 0.48274 0.0
C132 C 0.02418 0.05646 0.45987 0.0
C133 C 0.03897 0.15591 0.53442 0.0
C134 C 0.99134 0.13095 0.43193 0.0
C135 C 0.07149 0.12719 0.42761 0.0
O136 O 0.0617 0.14209 0.44771 0.0
O137 O 0.06289 0.1065 0.42344 0.0
O138 O 0.03502 0.16922 0.50826 0.0
O139 O 0.03859 0.13313 0.53017 0.0
O140 O 0.62591 0.22914 0.1977 0.0
Cd141 Cd 0.64504 0.25912 0.20815 0.0
Cd142 Cd 0.60467 0.2716 0.2436 0.0
O143 O 0.59305 0.23867 0.22552 0.0
O144 O 0.67888 0.25048 0.19994 0.0
O145 O 0.66493 0.26137 0.25063 0.0
C146 C 0.68262 0.25425 0.23207 0.0
C147 C 0.59466 0.28367 0.29937 0.0
C148 C 0.60469 0.22437 0.20651 0.0
C149 C 0.62002 0.30179 0.1826 0.0
O150 O 0.60619 0.29879 0.20798 0.0
O151 O 0.63723 0.28765 0.17717 0.0
O152 O 0.57914 0.28346 0.2751 0.0
O153 O 0.61591 0.27633 0.29236 0.0
O154 O 0.52087 0.88316 0.93907 0.0
Cd155 Cd 0.48759 0.89631 0.94858 0.0
Cd156 Cd 0.48465 0.85604 0.98863 0.0
O157 O 0.52078 0.85387 0.97666 0.0
O158 O 0.48969 0.93082 0.9378 0.0
O159 O 0.48257 0.91687 0.98986 0.0
C160 C 0.48636 0.93488 0.96996 0.0
C161 C 0.47045 0.84599 0.04333 0.0
C162 C 0.53149 0.8661 0.95393 0.0
C163 C 0.45293 0.86045 0.92541 0.0
O164 O 0.46073 0.84794 0.95011 0.0
O165 O 0.46049 0.88144 0.92029 0.0
O166 O 0.47916 0.83017 0.023 0.0
O167 O 0.47081 0.86791 0.03331 0.0
O168 O 0.87272 0.23299 0.81368 0.0
Cd169 Cd 0.85112 0.26195 0.80698 0.0
Cd170 Cd 0.88926 0.27767 0.76501 0.0
O171 O 0.90352 0.24617 0.78401 0.0
O172 O 0.81926 0.25206 0.82446 0.0
O173 O 0.8259 0.26174 0.7704 0.0
C174 C 0.81127 0.25455 0.79374 0.0
C175 C 0.90026 0.28938 0.70925 0.0
C176 C 0.89399 0.23054 0.80326 0.0
C177 C 0.87571 0.30693 0.82752 0.0
O178 O 0.88717 0.30534 0.79958 0.0
O179 O 0.8606 0.29117 0.83595 0.0
O180 O 0.91499 0.29028 0.7344 0.0
O181 O 0.87918 0.28126 0.71533 0.0
O182 O 0.50226 0.1331 0.55846 0.0
Cd183 Cd 0.47419 0.11054 0.54996 0.0
Cd184 Cd 0.45698 0.15078 0.51234 0.0
O185 O 0.48748 0.16535 0.53392 0.0
O186 O 0.48584 0.07965 0.56877 0.0
O187 O 0.47607 0.0845 0.51446 0.0
C188 C 0.4839 0.07079 0.53851 0.0
C189 C 0.44662 0.1629 0.45654 0.0
C190 C 0.50369 0.15511 0.55138 0.0
C191 C 0.42783 0.13244 0.57214 0.0
O192 O 0.42897 0.14556 0.54567 0.0
O193 O 0.44428 0.11762 0.57885 0.0
O194 O 0.4438 0.17672 0.48248 0.0
O195 O 0.45563 0.14209 0.46198 0.0
O196 O 0.62976 0.76886 0.32191 0.0
Cd197 Cd 0.64266 0.73569 0.31157 0.0
Cd198 Cd 0.5995 0.73335 0.27333 0.0
O199 O 0.59861 0.76914 0.28748 0.0
O200 O 0.67643 0.7378 0.32667 0.0
O201 O 0.6659 0.73159 0.27285 0.0
C202 C 0.68255 0.73516 0.29511 0.0
C203 C 0.58334 0.72221 0.22006 0.0
C204 C 0.61197 0.77957 0.30914 0.0
C205 C 0.60658 0.70103 0.33583 0.0
O206 O 0.5934 0.7087 0.31172 0.0
O207 O 0.62762 0.70878 0.33993 0.0
O208 O 0.57025 0.7307 0.24415 0.0
O209 O 0.60594 0.7205 0.22558 0.0
O210 O 0.9822 0.88853 0.06724 0.0
Cd211 Cd 0.01511 0.89776 0.04824 0.0
Cd212 Cd 0.00759 0.85669 0.01735 0.0
O213 O 0.97204 0.86153 0.02917 0.0
O214 O 0.0172 0.93221 0.05971 0.0
O215 O 0.01667 0.91865 0.00654 0.0
C216 C 0.0166 0.93656 0.02732 0.0
C217 C 0.02272 0.84533 0.96395 0.0
C218 C 0.96673 0.87448 0.05479 0.0
C219 C 0.0427 0.85834 0.07524 0.0
O220 O 0.02789 0.84591 0.05837 0.0
O221 O 0.04366 0.88077 0.07111 0.0
O222 O 0.01063 0.83071 0.98256 0.0
O223 O 0.02501 0.86697 0.97477 0.0
O224 O 0.63998 0.74333 0.83521 0.0
Cd225 Cd 0.6573 0.77237 0.81632 0.0
Cd226 Cd 0.61397 0.77439 0.77846 0.0
O227 O 0.60815 0.74155 0.80196 0.0
O228 O 0.69061 0.7677 0.83268 0.0
O229 O 0.6807 0.76754 0.77789 0.0
C230 C 0.69682 0.76487 0.8012 0.0
C231 C 0.59997 0.78248 0.72291 0.0
C232 C 0.62081 0.73313 0.82622 0.0
C233 C 0.62596 0.81304 0.8317 0.0
O234 O 0.61183 0.80368 0.81017 0.0
O235 O 0.64628 0.80403 0.83759 0.0
O236 O 0.58567 0.78074 0.74851 0.0
O237 O 0.62229 0.77834 0.72826 0.0
O238 O 0.52971 0.37733 0.05743 0.0
Cd239 Cd 0.49692 0.39207 0.04978 0.0
Cd240 Cd 0.48957 0.3495 0.0146 0.0
O241 O 0.52547 0.34481 0.02633 0.0
O242 O 0.50148 0.42646 0.05978 0.0
O243 O 0.49067 0.41285 0.00892 0.0
C244 C 0.4963 0.43069 0.02821 0.0
C245 C 0.47398 0.33577 0.96227 0.0
C246 C 0.53806 0.35796 0.04578 0.0
C247 C 0.46109 0.35975 0.07968 0.0
O248 O 0.46609 0.34589 0.05497 0.0
O249 O 0.47103 0.37994 0.0826 0.0
O250 O 0.48174 0.3213 0.98526 0.0
O251 O 0.47593 0.3583 0.96824 0.0
O252 O 0.86409 0.2703 0.31891 0.0
Cd253 Cd 0.85626 0.23616 0.30527 0.0
Cd254 Cd 0.89888 0.24077 0.27025 0.0
O255 O 0.89538 0.27612 0.28594 0.0
O256 O 0.82168 0.23366 0.31511 0.0
O257 O 0.83681 0.23039 0.26297 0.0
C258 C 0.81831 0.2314 0.28262 0.0
C259 C 0.91471 0.23132 0.21626 0.0
C260 C 0.88037 0.28385 0.30773 0.0
C261 C 0.89557 0.20599 0.33022 0.0
O262 O 0.90809 0.21638 0.30759 0.0
O263 O 0.87349 0.21039 0.33329 0.0
O264 O 0.92744 0.24134 0.23957 0.0
O265 O 0.89252 0.22747 0.22287 0.0
O266 O 0.99715 0.62332 0.55698 0.0
Cd267 Cd 0.02838 0.60551 0.54967 0.0
Cd268 Cd 0.0406 0.64451 0.51268 0.0
O269 O 0.00753 0.6562 0.53 0.0
O270 O 0.02083 0.57168 0.55928 0.0
O271 O 0.03296 0.58467 0.50862 0.0
C272 C 0.02571 0.56728 0.52764 0.0
C273 C 0.0523 0.65283 0.45616 0.0
C274 C 0.99261 0.64452 0.54792 0.0
C275 C 0.06957 0.63269 0.57596 0.0
O276 O 0.06747 0.64497 0.5488 0.0
O277 O 0.05535 0.61567 0.58215 0.0
O278 O 0.052 0.66911 0.47936 0.0
O279 O 0.04541 0.63172 0.4647 0.0
O280 O 0.63522 0.26729 0.6864 0.0
Cd281 Cd 0.64148 0.2335 0.7046 0.0
Cd282 Cd 0.60103 0.24499 0.7374 0.0
O283 O 0.61024 0.27973 0.72588 0.0
O284 O 0.67472 0.22785 0.68886 0.0
O285 O 0.66479 0.23003 0.74351 0.0
C286 C 0.68123 0.22836 0.72048 0.0
C287 C 0.58572 0.23339 0.79072 0.0
C288 C 0.62325 0.284 0.69995 0.0
C289 C 0.59865 0.21019 0.67901 0.0
O290 O 0.5879 0.22606 0.6963 0.0
O291 O 0.62094 0.20702 0.68263 0.0
O292 O 0.57392 0.24716 0.7705 0.0
O293 O 0.60682 0.2269 0.78142 0.0
O294 O 0.97361 0.38071 0.94375 0.0
Cd295 Cd 0.00594 0.39639 0.95239 0.0
Cd296 Cd 0.01284 0.35343 0.99022 0.0
O297 O 0.97702 0.34935 0.97753 0.0
O298 O 0.00098 0.43081 0.94172 0.0
O299 O 0.01005 0.41756 0.99345 0.0
C300 C 0.00465 0.43524 0.97369 0.0
C301 C 0.02744 0.33824 0.04247 0.0
C302 C 0.96488 0.3619 0.9567 0.0
C303 C 0.04323 0.36359 0.92646 0.0
O304 O 0.03716 0.34991 0.95086 0.0
O305 O 0.03352 0.38384 0.9224 0.0
O306 O 0.01988 0.32446 0.01851 0.0
O307 O 0.02579 0.36092 0.03753 0.0
O308 O 0.86869 0.73232 0.18734 0.0
Cd309 Cd 0.84967 0.76302 0.19443 0.0
Cd310 Cd 0.89027 0.77717 0.23115 0.0
O311 O 0.90127 0.74373 0.21449 0.0
O312 O 0.81674 0.75457 0.17996 0.0
O313 O 0.82591 0.76538 0.23279 0.0
C314 C 0.81007 0.7583 0.21105 0.0
C315 C 0.90107 0.79048 0.28632 0.0
C316 C 0.88998 0.72843 0.1967 0.0
C317 C 0.87686 0.80497 0.16749 0.0
O318 O 0.89022 0.80303 0.19364 0.0
O319 O 0.85953 0.7908 0.16286 0.0
O320 O 0.91667 0.78731 0.26263 0.0
O321 O 0.87917 0.78558 0.27911 0.0
O322 O 0.49978 0.61016 0.42908 0.0
Cd323 Cd 0.46812 0.59775 0.4474 0.0
Cd324 Cd 0.47171 0.63942 0.48603 0.0
O325 O 0.50592 0.63966 0.46529 0.0
O326 O 0.46801 0.56392 0.4324 0.0
O327 O 0.46795 0.57476 0.48684 0.0
C328 C 0.46882 0.55797 0.46424 0.0
C329 C 0.46457 0.65329 0.54181 0.0
C330 C 0.51277 0.62695 0.44013 0.0
C331 C 0.43332 0.63524 0.43086 0.0
O332 O 0.44455 0.64784 0.45253 0.0
O333 O 0.43884 0.61362 0.42564 0.0
O334 O 0.47219 0.66724 0.51813 0.0
O335 O 0.46188 0.63104 0.53451 0.0
O336 O 0.3601 0.26422 0.17411 0.0
Cd337 Cd 0.34365 0.23325 0.18744 0.0
Cd338 Cd 0.38532 0.22922 0.22707 0.0
O339 O 0.39199 0.26303 0.20719 0.0
O340 O 0.31068 0.23765 0.16976 0.0
O341 O 0.31899 0.23386 0.22482 0.0
C342 C 0.30342 0.23749 0.20103 0.0
C343 C 0.39536 0.21963 0.28382 0.0
C344 C 0.37939 0.27347 0.18456 0.0
C345 C 0.37625 0.19388 0.16883 0.0
O346 O 0.3893 0.20129 0.19318 0.0
O347 O 0.35644 0.20375 0.16218 0.0
O348 O 0.4114 0.22205 0.26055 0.0
O349 O 0.37348 0.22365 0.27537 0.0
O350 O 0.47749 0.62014 0.95364 0.0
Cd351 Cd 0.51085 0.60696 0.96175 0.0
Cd352 Cd 0.51533 0.64828 0.99914 0.0
O353 O 0.47936 0.65174 0.98703 0.0
O354 O 0.50819 0.57249 0.95092 0.0
O355 O 0.51753 0.58617 1.00238 0.0
C356 C 0.513 0.56826 0.98263 0.0
C357 C 0.53009 0.6594 0.05317 0.0
C358 C 0.46785 0.63861 0.96623 0.0
C359 C 0.54498 0.64194 0.93428 0.0
O360 O 0.53881 0.6548 0.95956 0.0
O361 O 0.53647 0.62119 0.93024 0.0
O362 O 0.52181 0.67491 0.03199 0.0
O363 O 0.5291 0.63726 0.04437 0.0
O364 O 0.12881 0.73396 0.70093 0.0
Cd365 Cd 0.14199 0.76704 0.71122 0.0
Cd366 Cd 0.09741 0.7685 0.74948 0.0
O367 O 0.09745 0.73278 0.73496 0.0
O368 O 0.17497 0.76468 0.69274 0.0
O369 O 0.16725 0.77031 0.74759 0.0
C370 C 0.1827 0.76677 0.72362 0.0
C371 C 0.07959 0.77959 0.80172 0.0
C372 C 0.11118 0.72279 0.71334 0.0
C373 C 0.10533 0.80171 0.68798 0.0
O374 O 0.09189 0.79332 0.71123 0.0
O375 O 0.12657 0.79443 0.68414 0.0
O376 O 0.06733 0.77081 0.77695 0.0
O377 O 0.10232 0.7814 0.79758 0.0
O378 O 0.01778 0.37529 0.44972 0.0
Cd379 Cd 0.98791 0.3958 0.45443 0.0
Cd380 Cd 0.96873 0.35687 0.4842 0.0
O381 O 0.99977 0.34199 0.46474 0.0
O382 O 0.99912 0.42883 0.44646 0.0
O383 O 0.9829 0.41693 0.4952 0.0
C384 C 0.99265 0.43367 0.47734 0.0
C385 C 0.95605 0.34561 0.5392 0.0
C386 C 0.01783 0.3528 0.45262 0.0
C387 C 0.94485 0.37523 0.42105 0.0
O388 O 0.94268 0.36278 0.44803 0.0
O389 O 0.96239 0.38929 0.41762 0.0
O390 O 0.95404 0.33149 0.51341 0.0
O391 O 0.96556 0.36623 0.534 0.0
O392 O 0.3699 0.74191 0.31544 0.0
Cd393 Cd 0.35781 0.77514 0.30353 0.0
Cd394 Cd 0.40079 0.77484 0.26521 0.0
O395 O 0.39971 0.73905 0.27892 0.0
O396 O 0.32415 0.77397 0.31933 0.0
O397 O 0.33426 0.77864 0.26504 0.0
C398 C 0.31778 0.77573 0.28775 0.0
C399 C 0.41706 0.78546 0.21184 0.0
C400 C 0.38653 0.72989 0.30192 0.0
C401 C 0.39549 0.80808 0.32693 0.0
O402 O 0.40852 0.79879 0.30389 0.0
O403 O 0.37377 0.80228 0.33032 0.0
O404 O 0.42988 0.7761 0.23558 0.0
O405 O 0.39463 0.78833 0.21778 0.0
O406 O 0.02547 0.61673 0.05488 0.0
Cd407 Cd 0.99095 0.6111 0.03957 0.0
Cd408 Cd 0.00114 0.65151 0.00626 0.0
O409 O 0.03644 0.6433 0.01662 0.0
O410 O 0.98617 0.57678 0.05064 0.0
O411 O 0.98516 0.59093 0.99781 0.0
C412 C 0.98484 0.57279 0.01819 0.0
C413 C 0.98753 0.66657 0.95354 0.0
C414 C 0.04158 0.62957 0.04148 0.0
C415 C 0.96912 0.65354 0.06869 0.0
O416 O 0.9833 0.66426 0.04853 0.0
O417 O 0.96615 0.63114 0.06636 0.0
O418 O 0.0015 0.67872 0.97303 0.0
O419 O 0.98204 0.64526 0.96315 0.0
O420 O 0.12273 0.26978 0.80782 0.0
Cd421 Cd 0.14041 0.23857 0.79861 0.0
Cd422 Cd 0.09999 0.22928 0.75972 0.0
O423 O 0.09165 0.26407 0.77419 0.0
O424 O 0.17428 0.24497 0.81063 0.0
O425 O 0.16238 0.23559 0.75831 0.0
C426 C 0.17947 0.24138 0.77889 0.0
C427 C 0.09136 0.21496 0.7045 0.0
C428 C 0.10308 0.27696 0.79543 0.0
C429 C 0.1104 0.19851 0.82242 0.0
O430 O 0.09695 0.20353 0.79723 0.0
O431 O 0.12942 0.21013 0.82784 0.0
O432 O 0.07471 0.22005 0.72596 0.0
O433 O 0.11307 0.21906 0.71375 0.0
O434 O 0.4836 0.36902 0.56922 0.0
Cd435 Cd 0.51082 0.39269 0.56136 0.0
Cd436 Cd 0.53113 0.35435 0.52558 0.0
O437 O 0.50116 0.33789 0.54558 0.0
O438 O 0.49775 0.42403 0.57613 0.0
O439 O 0.50952 0.41668 0.52315 0.0
C440 C 0.5006 0.43137 0.54516 0.0
C441 C 0.54308 0.34271 0.47024 0.0
C442 C 0.48389 0.34694 0.56224 0.0
C443 C 0.55736 0.37363 0.58722 0.0
O444 O 0.55795 0.3607 0.56051 0.0
O445 O 0.5399 0.38751 0.59265 0.0
O446 O 0.54611 0.32909 0.49634 0.0
O447 O 0.53311 0.36313 0.47531 0.0
H448 H 0.07215 0.12233 0.35917 0.0
H449 H 0.11067 0.15315 0.44365 0.0
H450 H 0.13372 0.17769 0.40397 0.0
H451 H 0.13631 0.19616 0.34783 0.0
H452 H 0.09291 0.17009 0.26463 0.0
H453 H 0.07891 0.13743 0.30077 0.0
C454 C 0.08626 0.13377 0.36863 0.0
C455 C 0.08989 0.136 0.4041 0.0
C456 C 0.09821 0.14897 0.34586 0.0
C457 C 0.10776 0.15119 0.41637 0.0
C458 C 0.12075 0.16531 0.39372 0.0
C459 C 0.12422 0.18303 0.3372 0.0
C460 C 0.11521 0.18594 0.3038 0.0
C461 C 0.11515 0.16529 0.3587 0.0
C462 C 0.09989 0.16849 0.29038 0.0
C463 C 0.09174 0.1499 0.31114 0.0
H464 H 0.03999 0.8727 0.60962 0.0
H465 H 0.04677 0.81863 0.53166 0.0
H466 H 0.07793 0.79899 0.56525 0.0
H467 H 0.09869 0.79406 0.62065 0.0
H468 H 0.08733 0.84543 0.70087 0.0
H469 H 0.06269 0.86953 0.66246 0.0
C470 C 0.04858 0.85689 0.5995 0.0
C471 C 0.04089 0.84705 0.56824 0.0
C472 C 0.06556 0.84515 0.61963 0.0
C473 C 0.05224 0.82651 0.55572 0.0
C474 C 0.06998 0.81522 0.57499 0.0
C475 C 0.09131 0.81089 0.6292 0.0
C476 C 0.09489 0.81828 0.66317 0.0
C477 C 0.07614 0.82391 0.60754 0.0
C478 C 0.08487 0.83969 0.67462 0.0
C479 C 0.07072 0.85333 0.65276 0.0
H480 H 0.46136 0.84756 0.86008 0.0
H481 H 0.40757 0.84761 0.93865 0.0
H482 H 0.38192 0.82249 0.90312 0.0
H483 H 0.37737 0.79643 0.85381 0.0
H484 H 0.43301 0.7923 0.77777 0.0
H485 H 0.45525 0.82343 0.80777 0.0
C486 C 0.44373 0.84252 0.86882 0.0
C487 C 0.43605 0.84948 0.90154 0.0
C488 C 0.42963 0.82716 0.84889 0.0
C489 C 0.41356 0.84253 0.91331 0.0
C490 C 0.39902 0.8281 0.8931 0.0
C491 C 0.39415 0.80259 0.8433 0.0
C492 C 0.4036 0.79183 0.8137 0.0
C493 C 0.40723 0.81968 0.86141 0.0
C494 C 0.42538 0.80014 0.80059 0.0
C495 C 0.43815 0.81788 0.81783 0.0
H496 H 0.38247 0.20028 0.10129 0.0
H497 H 0.39512 0.15057 0.18328 0.0
H498 H 0.42173 0.12743 0.14644 0.0
H499 H 0.44618 0.12543 0.095 0.0
H500 H 0.43802 0.17842 0.01581 0.0
H501 H 0.40465 0.19608 0.04712 0.0
C502 C 0.39045 0.18389 0.11053 0.0
C503 C 0.38671 0.17682 0.14463 0.0
C504 C 0.40686 0.17161 0.0899 0.0
C505 C 0.39761 0.15605 0.15693 0.0
C506 C 0.41295 0.143 0.13598 0.0
C507 C 0.43681 0.14053 0.08411 0.0
C508 C 0.44476 0.15073 0.0532 0.0
C509 C 0.41847 0.15121 0.10298 0.0
C510 C 0.43239 0.17033 0.03964 0.0
C511 C 0.41335 0.18047 0.0576 0.0
H512 H 0.12006 0.80704 0.16505 0.0
H513 H 0.0584 0.76548 0.19335 0.0
H514 H 0.03289 0.79209 0.16051 0.0
H515 H 0.02877 0.82389 0.1181 0.0
H516 H 0.08964 0.86634 0.0903 0.0
H517 H 0.11491 0.84261 0.12869 0.0
C518 C 0.10098 0.80406 0.16457 0.0
C519 C 0.09124 0.78401 0.18116 0.0
C520 C 0.08637 0.81932 0.14531 0.0
C521 C 0.06644 0.78063 0.18068 0.0
C522 C 0.05182 0.79575 0.16169 0.0
C523 C 0.04755 0.82804 0.12073 0.0
C524 C 0.05756 0.8464 0.10106 0.0
C525 C 0.06173 0.81457 0.14295 0.0
C526 C 0.0817 0.85211 0.10512 0.0
C527 C 0.09609 0.83853 0.12696 0.0
H528 H 0.40571 0.79721 0.39223 0.0
H529 H 0.4118 0.85285 0.3169 0.0
H530 H 0.43709 0.87595 0.35576 0.0
H531 H 0.46118 0.87777 0.40753 0.0
H532 H 0.45912 0.82002 0.48043 0.0
H533 H 0.42822 0.80033 0.44646 0.0
C534 C 0.41215 0.81469 0.38489 0.0
C535 C 0.40681 0.82365 0.35221 0.0
C536 C 0.42755 0.82725 0.40672 0.0
C537 C 0.41559 0.84592 0.34221 0.0
C538 C 0.4301 0.85898 0.36431 0.0
C539 C 0.45371 0.86108 0.41646 0.0
C540 C 0.46259 0.85032 0.44645 0.0
C541 C 0.43677 0.84947 0.39615 0.0
C542 C 0.45271 0.82864 0.4574 0.0
C543 C 0.4351 0.81734 0.43792 0.0
H544 H 0.36012 0.19283 0.66132 0.0
H545 H 0.4126 0.17411 0.73753 0.0
H546 H 0.42847 0.14337 0.69967 0.0
H547 H 0.43306 0.12866 0.64083 0.0
H548 H 0.38352 0.15121 0.56289 0.0
H549 H 0.36058 0.17316 0.60561 0.0
C550 C 0.37463 0.18163 0.67011 0.0
C551 C 0.38554 0.18622 0.70191 0.0
C552 C 0.38441 0.16482 0.64758 0.0
C553 C 0.40408 0.17124 0.71299 0.0
C554 C 0.41327 0.15373 0.69124 0.0
C555 C 0.41675 0.13764 0.63343 0.0
C556 C 0.41013 0.13858 0.59869 0.0
C557 C 0.40444 0.15133 0.65779 0.0
C558 C 0.38905 0.15041 0.58944 0.0
C559 C 0.37604 0.16311 0.61383 0.0
H560 H 0.11032 0.20311 0.89129 0.0
H561 H 0.09027 0.15563 0.80955 0.0
H562 H 0.06792 0.13098 0.84984 0.0
H563 H 0.04873 0.1271 0.90536 0.0
H564 H 0.06417 0.1776 0.98567 0.0
H565 H 0.09409 0.19659 0.94928 0.0
C566 C 0.10164 0.18694 0.88265 0.0
C567 C 0.10189 0.18105 0.84767 0.0
C568 C 0.08774 0.17363 0.90565 0.0
C569 C 0.09025 0.16039 0.83643 0.0
C570 C 0.0774 0.1464 0.85941 0.0
C571 C 0.05899 0.14192 0.91533 0.0
C572 C 0.05394 0.15112 0.94806 0.0
C573 C 0.07519 0.15346 0.89371 0.0
C574 C 0.06754 0.17027 0.96048 0.0
C575 C 0.08456 0.18123 0.93959 0.0
H576 H 0.90202 0.83105 0.5716 0.0
H577 H 0.9469 0.86634 0.64524 0.0
H578 H 0.92961 0.84259 0.69143 0.0
H579 H 0.90673 0.80698 0.70872 0.0
H580 H 0.86052 0.77331 0.63471 0.0
H581 H 0.87288 0.80154 0.59126 0.0
C582 C 0.90745 0.83399 0.59792 0.0
C583 C 0.92583 0.8501 0.60506 0.0
C584 C 0.89741 0.82035 0.62429 0.0
C585 C 0.93268 0.85401 0.63921 0.0
C586 C 0.92296 0.84028 0.66559 0.0
C587 C 0.89891 0.80621 0.68336 0.0
C588 C 0.88328 0.78757 0.67486 0.0
C589 C 0.90606 0.82265 0.65818 0.0
C590 C 0.87296 0.78714 0.64197 0.0
C591 C 0.88007 0.80327 0.6169 0.0
H592 H 0.95452 0.16047 0.45004 0.0
H593 H 0.98417 0.12137 0.36492 0.0
H594 H 0.95573 0.13975 0.32618 0.0
H595 H 0.92527 0.17 0.31523 0.0
H596 H 0.89325 0.20742 0.39969 0.0
H597 H 0.91946 0.18649 0.44001 0.0
C598 C 0.95447 0.15578 0.42311 0.0
C599 C 0.97162 0.13983 0.41036 0.0
C600 C 0.93771 0.16616 0.40082 0.0
C601 C 0.97118 0.13362 0.37546 0.0
C602 C 0.95498 0.14419 0.35317 0.0
C603 C 0.92376 0.17314 0.34256 0.0
C604 C 0.90763 0.19019 0.35466 0.0
C605 C 0.9386 0.1609 0.3654 0.0
C606 C 0.90556 0.19417 0.39001 0.0
C607 C 0.92065 0.18237 0.41296 0.0
H608 H 0.53375 0.15521 0.13191 0.0
H609 H 0.59297 0.15113 0.06216 0.0
H610 H 0.61805 0.17296 0.1028 0.0
H611 H 0.62119 0.19763 0.15394 0.0
H612 H 0.56063 0.2057 0.22105 0.0
H613 H 0.53804 0.17747 0.1861 0.0
C614 C 0.55235 0.15862 0.12622 0.0
C615 C 0.56179 0.15149 0.09456 0.0
C616 C 0.56623 0.17206 0.14904 0.0
C617 C 0.58562 0.15633 0.0867 0.0
C618 C 0.59983 0.16889 0.1098 0.0
C619 C 0.60321 0.1929 0.16144 0.0
C620 C 0.59255 0.20397 0.18995 0.0
C621 C 0.59007 0.17751 0.14049 0.0
C622 C 0.56922 0.19757 0.19914 0.0
C623 C 0.55626 0.18151 0.17908 0.0
H624 H 0.55442 0.88275 0.8978 0.0
H625 H 0.56158 0.8322 0.98045 0.0
H626 H 0.59628 0.81463 0.95226 0.0
H627 H 0.6196 0.80912 0.89942 0.0
H628 H 0.60821 0.8562 0.81397 0.0
H629 H 0.58056 0.88009 0.84815 0.0
C630 C 0.56383 0.86821 0.91013 0.0
C631 C 0.55515 0.85858 0.941 0.0
C632 C 0.58304 0.85757 0.89307 0.0
C633 C 0.56769 0.8398 0.95654 0.0
C634 C 0.58751 0.82971 0.94038 0.0
C635 C 0.61176 0.8252 0.88891 0.0
C636 C 0.61609 0.83126 0.85456 0.0
C637 C 0.5947 0.83781 0.90798 0.0
C638 C 0.60533 0.85157 0.84057 0.0
C639 C 0.58934 0.865 0.85998 0.0
H640 H 0.87922 0.19233 0.84072 0.0
H641 H 0.94241 0.22654 0.80132 0.0
H642 H 0.96718 0.20191 0.83831 0.0
H643 H 0.97044 0.17506 0.88765 0.0
H644 H 0.9079 0.14012 0.92685 0.0
H645 H 0.88317 0.16069 0.88413 0.0
C646 C 0.89844 0.19405 0.83967 0.0
C647 C 0.90889 0.21161 0.81873 0.0
C648 C 0.91261 0.18003 0.8614 0.0
C649 C 0.93385 0.21333 0.81731 0.0
C650 C 0.94805 0.19937 0.83869 0.0
C651 C 0.95142 0.17174 0.88637 0.0
C652 C 0.94077 0.15654 0.91038 0.0
C653 C 0.93755 0.18342 0.86176 0.0
C654 C 0.91629 0.15191 0.90852 0.0
C655 C 0.90223 0.1637 0.88423 0.0
H656 H 0.56345 0.22702 0.63919 0.0
H657 H 0.60415 0.16357 0.66013 0.0
H658 H 0.57952 0.1411 0.61949 0.0
H659 H 0.54444 0.13912 0.58158 0.0
H660 H 0.50499 0.20334 0.55942 0.0
H661 H 0.53155 0.22607 0.5964 0.0
C662 C 0.56694 0.20826 0.63475 0.0
C663 C 0.58518 0.19676 0.65302 0.0
C664 C 0.55308 0.19571 0.61103 0.0
C665 C 0.59002 0.17267 0.64649 0.0
C666 C 0.57596 0.15988 0.62331 0.0
C667 C 0.54187 0.15816 0.58441 0.0
C668 C 0.52254 0.16944 0.56805 0.0
C669 C 0.55717 0.17114 0.60589 0.0
C670 C 0.51967 0.19417 0.57167 0.0
C671 C 0.53474 0.20717 0.59306 0.0
H672 H 0.631 0.8013 0.36464 0.0
H673 H 0.57646 0.80981 0.28766 0.0
H674 H 0.55941 0.84298 0.32 0.0
H675 H 0.55575 0.86415 0.37501 0.0
H676 H 0.60706 0.85105 0.45486 0.0
H677 H 0.62999 0.82545 0.41636 0.0
C678 C 0.61569 0.8107 0.35442 0.0
C679 C 0.6048 0.80279 0.32398 0.0
C680 C 0.60534 0.8289 0.37393 0.0
C681 C 0.58505 0.81534 0.31118 0.0
C682 C 0.57524 0.83426 0.32974 0.0
C683 C 0.57244 0.85636 0.38343 0.0
C684 C 0.57993 0.85952 0.41748 0.0
C685 C 0.58461 0.84046 0.36187 0.0
C686 C 0.60117 0.84892 0.42861 0.0
C687 C 0.61411 0.83415 0.40672 0.0
H688 H 0.89793 0.8481 0.17337 0.0
H689 H 0.8739 0.79676 0.09902 0.0
H690 H 0.89724 0.8165 0.0545 0.0
H691 H 0.93038 0.84356 0.04003 0.0
H692 H 0.95343 0.89539 0.11471 0.0
H693 H 0.92422 0.88063 0.15531 0.0
C694 C 0.89725 0.84172 0.14717 0.0
C695 C 0.88459 0.82085 0.13955 0.0
C696 C 0.91082 0.85304 0.1218 0.0
C697 C 0.88356 0.81284 0.10549 0.0
C698 C 0.8971 0.82397 0.08008 0.0
C699 C 0.92857 0.85206 0.06481 0.0
C700 C 0.94463 0.87005 0.07458 0.0
C701 C 0.91172 0.84338 0.08837 0.0
C702 C 0.94168 0.88117 0.10662 0.0
C703 C 0.925 0.87269 0.13004 0.0
H704 H 0.58538 0.66647 0.94436 0.0
H705 H 0.5379 0.64185 0.86539 0.0
H706 H 0.5582 0.66705 0.82321 0.0
H707 H 0.58667 0.69974 0.81086 0.0
H708 H 0.63524 0.72209 0.89041 0.0
H709 H 0.61756 0.69398 0.93001 0.0
C710 C 0.57989 0.66626 0.91771 0.0
C711 C 0.56023 0.65259 0.90785 0.0
C712 C 0.59168 0.68058 0.89378 0.0
C713 C 0.5532 0.65222 0.87335 0.0
C714 C 0.56464 0.66677 0.84936 0.0
C715 C 0.59356 0.69816 0.83669 0.0
C716 C 0.61199 0.7133 0.84769 0.0
C717 C 0.58347 0.68161 0.85954 0.0
C718 C 0.621 0.71079 0.88115 0.0
C719 C 0.61085 0.69475 0.904 0.0
H720 H 0.61473 0.29349 0.11521 0.0
H721 H 0.60787 0.34806 0.19209 0.0
H722 H 0.58585 0.37317 0.15185 0.0
H723 H 0.5624 0.37599 0.09965 0.0
H724 H 0.56392 0.31873 0.02592 0.0
H725 H 0.59459 0.29847 0.05957 0.0
C726 C 0.60912 0.31125 0.1226 0.0
C727 C 0.61297 0.31913 0.15631 0.0
C728 C 0.59515 0.32486 0.10004 0.0
C729 C 0.60517 0.34184 0.16612 0.0
C730 C 0.59245 0.35605 0.14322 0.0
C731 C 0.56981 0.35936 0.09036 0.0
C732 C 0.56058 0.34873 0.06051 0.0
C733 C 0.58637 0.34723 0.11076 0.0
C734 C 0.57053 0.32721 0.04895 0.0
C735 C 0.58798 0.31556 0.0683 0.0
H736 H 0.91425 0.31769 0.29412 0.0
H737 H 0.85466 0.30242 0.3605 0.0
H738 H 0.86702 0.33383 0.3993 0.0
H739 H 0.89937 0.35921 0.42038 0.0
H740 H 0.95875 0.37512 0.35434 0.0
H741 H 0.9415 0.35052 0.30919 0.0
C742 C 0.90359 0.32167 0.31655 0.0
C743 C 0.88406 0.30711 0.3249 0.0
C744 C 0.91088 0.33978 0.33912 0.0
C745 C 0.87013 0.31292 0.35372 0.0
C746 C 0.8772 0.3309 0.3761 0.0
C747 C 0.90806 0.35799 0.39563 0.0
C748 C 0.93047 0.36852 0.39093 0.0
C749 C 0.89826 0.34349 0.37001 0.0
C750 C 0.94146 0.3671 0.35864 0.0
C751 C 0.93176 0.35277 0.33292 0.0
H752 H 0.92733 0.71148 0.6343 0.0
H753 H 0.89961 0.64423 0.66924 0.0
H754 H 0.92373 0.6233 0.62616 0.0
H755 H 0.95603 0.62436 0.5834 0.0
H756 H 0.983 0.69218 0.54854 0.0
H757 H 0.95516 0.7128 0.58613 0.0
C758 C 0.92646 0.69223 0.63223 0.0
C759 C 0.91227 0.67924 0.65519 0.0
C760 C 0.94008 0.68054 0.6074 0.0
C761 C 0.91067 0.65444 0.65192 0.0
C762 C 0.92444 0.64256 0.62738 0.0
C763 C 0.9555 0.64366 0.58348 0.0
C764 C 0.97192 0.6567 0.56361 0.0
C765 C 0.93969 0.65543 0.60561 0.0
C766 C 0.97072 0.68169 0.56366 0.0
C767 C 0.95493 0.69351 0.58539 0.0
H768 H 0.60152 0.35425 0.58234 0.0
H769 H 0.54988 0.37926 0.65572 0.0
H770 H 0.56935 0.35641 0.70082 0.0
H771 H 0.59488 0.32218 0.71542 0.0
H772 H 0.64625 0.29709 0.64146 0.0
H773 H 0.63342 0.32741 0.60108 0.0
C774 C 0.59505 0.35536 0.60846 0.0
C775 C 0.57394 0.36788 0.61545 0.0
C776 C 0.606 0.34174 0.63413 0.0
C777 C 0.56599 0.36957 0.64953 0.0
C778 C 0.57698 0.35627 0.67533 0.0
C779 C 0.60378 0.3238 0.6909 0.0
C780 C 0.62087 0.30679 0.68108 0.0
C781 C 0.59606 0.34113 0.66739 0.0
C782 C 0.6326 0.30953 0.64946 0.0
C783 C 0.62522 0.32686 0.62619 0.0
H784 H 0.93938 0.37975 0.90359 0.0
H785 H 0.939 0.32331 0.97864 0.0
H786 H 0.90646 0.30374 0.94806 0.0
H787 H 0.88367 0.29903 0.89464 0.0
H788 H 0.88827 0.35302 0.81651 0.0
H789 H 0.91317 0.37748 0.85393 0.0
C790 C 0.93187 0.36343 0.9138 0.0
C791 C 0.94193 0.35283 0.94312 0.0
C792 C 0.91394 0.35177 0.89528 0.0
C793 C 0.93181 0.33175 0.95595 0.0
C794 C 0.91324 0.3205 0.93839 0.0
C795 C 0.88941 0.31656 0.88639 0.0
C796 C 0.88413 0.32434 0.853 0.0
C797 C 0.90491 0.32981 0.90724 0.0
C798 C 0.89207 0.3468 0.8422 0.0
C799 C 0.90647 0.36065 0.86346 0.0
H800 H 0.92595 0.64643 0.09995 0.0
H801 H 0.98817 0.69148 0.10078 0.0
H802 H 0.97067 0.71608 0.14543 0.0
H803 H 0.93644 0.72729 0.17999 0.0
H804 H 0.87215 0.68554 0.17538 0.0
H805 H 0.89175 0.65691 0.13732 0.0
C806 C 0.93566 0.66152 0.11019 0.0
C807 C 0.95817 0.66731 0.09681 0.0
C808 C 0.92515 0.67614 0.13535 0.0
C809 C 0.97062 0.68691 0.11023 0.0
C810 C 0.96071 0.70093 0.13593 0.0
C811 C 0.92691 0.71158 0.17145 0.0
C812 C 0.90296 0.70844 0.18066 0.0
C813 C 0.93782 0.69602 0.14817 0.0
C814 C 0.89068 0.68826 0.16874 0.0
C815 C 0.90181 0.67201 0.14675 0.0
H816 H 0.58118 0.66123 0.32388 0.0
H817 H 0.60762 0.70597 0.40493 0.0
H818 H 0.58234 0.68518 0.44642 0.0
H819 H 0.54858 0.65791 0.45752 0.0
H820 H 0.52419 0.61188 0.37613 0.0
H821 H 0.5531 0.62914 0.33723 0.0
C822 C 0.58179 0.66596 0.35081 0.0
C823 C 0.59594 0.68511 0.36146 0.0
C824 C 0.56742 0.65384 0.37441 0.0
C825 C 0.59685 0.69113 0.39633 0.0
C826 C 0.58227 0.67939 0.41995 0.0
C827 C 0.54995 0.65133 0.4315 0.0
C828 C 0.53385 0.63398 0.41969 0.0
C829 C 0.56684 0.66126 0.40903 0.0
C830 C 0.53614 0.62538 0.38598 0.0
C831 C 0.55263 0.63531 0.36352 0.0
H832 H 0.41622 0.34396 0.07275 0.0
H833 H 0.47197 0.35453 0.14684 0.0
H834 H 0.4502 0.33031 0.18867 0.0
H835 H 0.41797 0.30138 0.2005 0.0
H836 H 0.36147 0.29295 0.12634 0.0
H837 H 0.38055 0.32143 0.08866 0.0
C838 C 0.42318 0.34147 0.09843 0.0
C839 C 0.44554 0.35075 0.10689 0.0
C840 C 0.41056 0.3277 0.12219 0.0
C841 C 0.4546 0.34757 0.14007 0.0
C842 C 0.44227 0.33358 0.16381 0.0
C843 C 0.4096 0.30616 0.17644 0.0
C844 C 0.38862 0.29456 0.16604 0.0
C845 C 0.42063 0.32281 0.15467 0.0
C846 C 0.37779 0.3013 0.13497 0.0
C847 C 0.38872 0.31757 0.1132 0.0
H848 H 0.4451 0.62031 0.91118 0.0
H849 H 0.43994 0.67635 0.98648 0.0
H850 H 0.40877 0.69564 0.95257 0.0
H851 H 0.38882 0.70031 0.89662 0.0
H852 H 0.3992 0.64715 0.81851 0.0
H853 H 0.42227 0.62277 0.85844 0.0
C854 C 0.43682 0.63645 0.92072 0.0
C855 C 0.44513 0.64705 0.95114 0.0
C856 C 0.41998 0.64808 0.90022 0.0
C857 C 0.43405 0.66791 0.96304 0.0
C858 C 0.41632 0.67902 0.94353 0.0
C859 C 0.39553 0.68301 0.88887 0.0
C860 C 0.39231 0.67531 0.85494 0.0
C861 C 0.40998 0.66985 0.91134 0.0
C862 C 0.40145 0.65323 0.84464 0.0
C863 C 0.41473 0.63942 0.86738 0.0
H864 H 0.13335 0.70027 0.66092 0.0
H865 H 0.07441 0.69293 0.7311 0.0
H866 H 0.05912 0.65954 0.69748 0.0
H867 H 0.05852 0.63793 0.64261 0.0
H868 H 0.11462 0.64962 0.56926 0.0
H869 H 0.13534 0.67545 0.60991 0.0
C870 C 0.11741 0.6911 0.6694 0.0
C871 C 0.10481 0.69943 0.6982 0.0
C872 C 0.10816 0.67273 0.64911 0.0
C873 C 0.08433 0.6871 0.70885 0.0
C874 C 0.07553 0.66805 0.68953 0.0
C875 C 0.07573 0.64545 0.63612 0.0
C876 C 0.08518 0.64188 0.60316 0.0
C877 C 0.08671 0.66146 0.6588 0.0
C878 C 0.10717 0.6521 0.59459 0.0
C879 C 0.11886 0.66701 0.6177 0.0
H880 H 0.01271 0.31064 0.42104 0.0
H881 H 0.06425 0.36559 0.44193 0.0
H882 H 0.09208 0.34729 0.40138 0.0
H883 H 0.10005 0.31764 0.35595 0.0
H884 H 0.04617 0.26529 0.33224 0.0
H885 H 0.02092 0.28079 0.37751 0.0
C886 C 0.03028 0.31826 0.41743 0.0
C887 C 0.03655 0.33925 0.43467 0.0
C888 C 0.04555 0.30843 0.39286 0.0
C889 C 0.05915 0.34928 0.4291 0.0
C890 C 0.07494 0.33896 0.40569 0.0
C891 C 0.0828 0.30965 0.36076 0.0
C892 C 0.07497 0.2905 0.34045 0.0
C893 C 0.06804 0.31892 0.38665 0.0
C894 C 0.05256 0.28028 0.34708 0.0
C895 C 0.03812 0.289 0.37318 0.0
H896 H 0.43727 0.63982 0.36276 0.0
H897 H 0.39336 0.65918 0.44876 0.0
H898 H 0.37154 0.68765 0.41313 0.0
H899 H 0.36972 0.71132 0.361 0.0
H900 H 0.41749 0.6961 0.27722 0.0
H901 H 0.43288 0.66146 0.30816 0.0
C902 C 0.42236 0.64974 0.37319 0.0
C903 C 0.41655 0.64735 0.40799 0.0
C904 C 0.41097 0.66708 0.3531 0.0
C905 C 0.39779 0.66067 0.42184 0.0
C906 C 0.38551 0.67703 0.40157 0.0
C907 C 0.38315 0.70018 0.34908 0.0
C908 C 0.39263 0.70646 0.31696 0.0
C909 C 0.39265 0.68108 0.36763 0.0
C910 C 0.41003 0.69178 0.30202 0.0
C911 C 0.41888 0.67202 0.31975 0.0
H912 H 0.07811 0.66068 0.02861 0.0
H913 H 0.05672 0.60397 0.09662 0.0
H914 H 0.08676 0.61606 0.13787 0.0
H915 H 0.11249 0.64795 0.15974 0.0
H916 H 0.13442 0.70442 0.09195 0.0
H917 H 0.11134 0.68687 0.04547 0.0
C918 C 0.08052 0.65048 0.05193 0.0
C919 C 0.06457 0.63198 0.05993 0.0
C920 C 0.09774 0.6577 0.07596 0.0
C921 C 0.06832 0.61868 0.09004 0.0
C922 C 0.08547 0.62563 0.11384 0.0
C923 C 0.11286 0.65595 0.13446 0.0
C924 C 0.12468 0.67771 0.12955 0.0
C925 C 0.09928 0.64595 0.10792 0.0
C926 C 0.12534 0.68771 0.09653 0.0
C927 C 0.11192 0.67781 0.06995 0.0
H928 H 0.11875 0.30276 0.84956 0.0
H929 H 0.062 0.29962 0.77511 0.0
H930 H 0.04007 0.33017 0.80678 0.0
H931 H 0.03439 0.35301 0.86034 0.0
H932 H 0.08927 0.35194 0.93734 0.0
H933 H 0.11478 0.32807 0.89986 0.0
C934 C 0.10181 0.30905 0.83974 0.0
C935 C 0.09195 0.29867 0.81012 0.0
C936 C 0.0889 0.32581 0.85881 0.0
C937 C 0.06996 0.30715 0.79793 0.0
C938 C 0.05736 0.32456 0.81613 0.0
C939 C 0.05225 0.34812 0.86828 0.0
C940 C 0.06023 0.35437 0.90117 0.0
C941 C 0.06626 0.33336 0.84726 0.0
C942 C 0.08304 0.34748 0.91188 0.0
C943 C 0.09749 0.33372 0.89058 0.0
H944 H 0.44235 0.35975 0.59345 0.0
H945 H 0.48573 0.29862 0.56848 0.0
H946 H 0.46153 0.27377 0.60584 0.0
H947 H 0.43107 0.27036 0.65045 0.0
H948 H 0.38648 0.33055 0.67439 0.0
H949 H 0.40819 0.35493 0.63259 0.0
C950 C 0.44624 0.3409 0.59569 0.0
C951 C 0.46608 0.33117 0.57856 0.0
C952 C 0.43232 0.32667 0.61745 0.0
C953 C 0.47066 0.30664 0.5814 0.0
C954 C 0.45694 0.29241 0.603 0.0
C955 C 0.42605 0.2888 0.6463 0.0
C956 C 0.40764 0.29891 0.66579 0.0
C957 C 0.43828 0.30243 0.62198 0.0
C958 C 0.40079 0.32256 0.65976 0.0
C959 C 0.41319 0.33644 0.63594 0.0
H960 H 0.28457 0.2507 0.2623 0.0
H961 H 0.26571 0.23618 0.15727 0.0
H962 H 0.22421 0.24599 0.16936 0.0
H963 H 0.19303 0.25759 0.21011 0.0
H964 H 0.21186 0.27224 0.31514 0.0
H965 H 0.25361 0.26399 0.30252 0.0
C966 C 0.27134 0.24956 0.24213 0.0
C967 C 0.27818 0.2425 0.20904 0.0
C968 C 0.24753 0.25555 0.24913 0.0
C969 C 0.2609 0.24146 0.18303 0.0
C970 C 0.23716 0.24715 0.18987 0.0
C971 C 0.20631 0.25937 0.23011 0.0
C972 C 0.1993 0.26553 0.2635 0.0
C973 C 0.23026 0.25419 0.22283 0.0
C974 C 0.21675 0.26755 0.28918 0.0
C975 C 0.24063 0.26268 0.28206 0.0
H976 H 0.99329 0.94886 0.47321 0.0
H977 H 0.98438 0.96999 0.57864 0.0
H978 H 0.99703 0.0104 0.5646 0.0
H979 H 0.01149 0.03957 0.52261 0.0
H980 H 0.02103 0.01814 0.41737 0.0
H981 H 0.00755 0.97804 0.43121 0.0
C982 C 0.99385 0.96238 0.49302 0.0
C983 C 0.98782 0.95646 0.52686 0.0
C984 C 0.00156 0.98548 0.48492 0.0
C985 C 0.98892 0.9741 0.55235 0.0
C986 C 0.99623 0.9972 0.54439 0.0
C987 C 0.01076 0.02609 0.50276 0.0
C988 C 0.01735 0.03185 0.46906 0.0
C989 C 0.00285 0.00304 0.51083 0.0
C990 C 0.01613 0.0142 0.44357 0.0
C991 C 0.00833 0.99125 0.45141 0.0
H992 H 0.29255 0.74348 0.73069 0.0
H993 H 0.27752 0.74524 0.839 0.0
H994 H 0.23609 0.75546 0.82724 0.0
H995 H 0.20389 0.76341 0.78619 0.0
H996 H 0.219 0.76184 0.67788 0.0
H997 H 0.26058 0.75237 0.68969 0.0
C998 C 0.28018 0.74598 0.7517 0.0
C999 C 0.28811 0.74346 0.78564 0.0
C1000 C 0.25639 0.75211 0.74479 0.0
C1001 C 0.27189 0.74702 0.8126 0.0
C1002 C 0.24818 0.75292 0.80592 0.0
C1003 C 0.21633 0.76124 0.76519 0.0
C1004 C 0.20831 0.76335 0.73123 0.0
C1005 C 0.24022 0.75554 0.77212 0.0
C1006 C 0.22466 0.76033 0.7043 0.0
C1007 C 0.24846 0.75482 0.711 0.0
H1008 H 0.49555 0.03158 0.05106 0.0
H1009 H 0.51662 0.05653 0.95102 0.0
H1010 H 0.51052 0.01665 0.92754 0.0
H1011 H 0.49928 0.9748 0.93545 0.0
H1012 H 0.47837 0.94985 0.03556 0.0
H1013 H 0.48411 0.9898 0.05891 0.0
C1014 C 0.49892 0.02831 0.02413 0.0
C1015 C 0.50662 0.04701 0.00285 0.0
C1016 C 0.49522 0.00541 0.01077 0.0
C1017 C 0.51076 0.04245 0.96799 0.0
C1018 C 0.50721 0.01967 0.95452 0.0
C1019 C 0.49581 0.97811 0.96235 0.0
C1020 C 0.48833 0.95935 0.98371 0.0
C1021 C 0.49938 0.00105 0.97566 0.0
C1022 C 0.48408 0.96396 0.01853 0.0
C1023 C 0.48743 0.98678 0.03193 0.0
H1024 H 0.20924 0.74954 0.27021 0.0
H1025 H 0.22775 0.75755 0.16363 0.0
H1026 H 0.26827 0.76878 0.17945 0.0
H1027 H 0.29881 0.77531 0.22351 0.0
H1028 H 0.28003 0.76796 0.33015 0.0
H1029 H 0.23929 0.75786 0.31434 0.0
C1030 C 0.22217 0.75369 0.25047 0.0
C1031 C 0.21554 0.75252 0.21582 0.0
C1032 C 0.24538 0.76043 0.25974 0.0
C1033 C 0.23241 0.75825 0.19052 0.0
C1034 C 0.25559 0.76471 0.19953 0.0
C1035 C 0.28575 0.77175 0.2433 0.0
C1036 C 0.29253 0.77234 0.27794 0.0
C1037 C 0.26231 0.76579 0.23405 0.0
C1038 C 0.27535 0.76765 0.30326 0.0
C1039 C 0.25202 0.76175 0.29426 0.0
H1040 H 0.51558 0.96285 0.53555 0.0
H1041 H 0.50572 0.97372 0.42708 0.0
H1042 H 0.49458 0.01508 0.43724 0.0
H1043 H 0.4868 0.04809 0.47698 0.0
H1044 H 0.49678 0.03726 0.58544 0.0
H1045 H 0.50858 0.99609 0.57519 0.0
C1046 C 0.51115 0.97431 0.51413 0.0
C1047 C 0.51149 0.96515 0.48064 0.0
C1048 C 0.50461 0.99811 0.52013 0.0
C1049 C 0.50562 0.98026 0.45316 0.0
C1050 C 0.49918 0.00394 0.45892 0.0
C1051 C 0.49151 0.03671 0.49837 0.0
C1052 C 0.4908 0.04575 0.5319 0.0
C1053 C 0.49843 0.01302 0.49232 0.0
C1054 C 0.49713 0.03078 0.55932 0.0
C1055 C 0.50392 0.00721 0.55352 0.0
H1056 H 0.21854 0.25295 0.8165 0.0
H1057 H 0.19599 0.23684 0.71339 0.0
H1058 H 0.23668 0.24257 0.69289 0.0
H1059 H 0.27865 0.25152 0.70432 0.0
H1060 H 0.3015 0.26674 0.80754 0.0
H1061 H 0.26056 0.26221 0.82788 0.0
C1062 C 0.2225 0.25066 0.78953 0.0
C1063 C 0.20422 0.24441 0.76653 0.0
C1064 C 0.24594 0.25395 0.77792 0.0
C1065 C 0.2097 0.24157 0.73168 0.0
C1066 C 0.23296 0.2449 0.71991 0.0
C1067 C 0.27468 0.25406 0.73124 0.0
C1068 C 0.29312 0.25955 0.75437 0.0
C1069 C 0.25121 0.25106 0.74281 0.0
C1070 C 0.28765 0.26256 0.78919 0.0
C1071 C 0.26426 0.2599 0.80085 0.0
H1072 H 0.00018 0.03444 0.95159 0.0
H1073 H 0.98919 0.05799 0.05562 0.0
H1074 H 0.9977 0.01785 0.07649 0.0
H1075 H 0.008 0.97614 0.06519 0.0
H1076 H 0.01845 0.95243 0.96115 0.0
H1077 H 0.01071 0.99275 0.94032 0.0
C1078 C 0.99953 0.03081 0.97884 0.0
C1079 C 0.99395 0.04921 1.002 0.0
C1080 C 0.00456 0.00774 0.99067 0.0
C1081 C 0.99333 0.04416 0.03722 0.0
C1082 C 0.99828 0.02123 0.04918 0.0
C1083 C 0.00881 0.97981 0.03796 0.0
C1084 C 0.0139 0.96129 0.01476 0.0
C1085 C 0.00397 0.00292 0.02615 0.0
C1086 C 0.01465 0.96635 0.97956 0.0
C1087 C 0.01013 0.98938 0.96762 0.0
H1088 H 0.80485 0.73468 0.78973 0.0
H1089 H 0.78072 0.71073 0.69062 0.0
H1090 H 0.74043 0.72419 0.70368 0.0
H1091 H 0.71227 0.74424 0.74229 0.0
H1092 H 0.73625 0.76785 0.84158 0.0
H1093 H 0.77635 0.75337 0.8292 0.0
C1094 C 0.7907 0.73206 0.7712 0.0
C1095 C 0.79583 0.72168 0.73927 0.0
C1096 C 0.76759 0.74018 0.77864 0.0
C1097 C 0.77729 0.71862 0.71544 0.0
C1098 C 0.75424 0.72646 0.72278 0.0
C1099 C 0.72633 0.74638 0.76109 0.0
C1100 C 0.72135 0.75733 0.79264 0.0
C1101 C 0.74927 0.73764 0.75405 0.0
C1102 C 0.73965 0.7596 0.817 0.0
C1103 C 0.76257 0.75123 0.81001 0.0
H1104 H 0.72265 0.23981 0.19899 0.0
H1105 H 0.69609 0.25912 0.29893 0.0
H1106 H 0.73543 0.25208 0.32364 0.0
H1107 H 0.7775 0.24164 0.31657 0.0
H1108 H 0.80444 0.22345 0.21644 0.0
H1109 H 0.76463 0.22856 0.19213 0.0
C1110 C 0.72544 0.24247 0.22619 0.0
C1111 C 0.70646 0.25009 0.24706 0.0
C1112 C 0.74811 0.23847 0.2402 0.0
C1113 C 0.71039 0.25338 0.28226 0.0
C1114 C 0.73287 0.2493 0.29642 0.0
C1115 C 0.77465 0.23852 0.28948 0.0
C1116 C 0.79392 0.23212 0.26835 0.0
C1117 C 0.75186 0.24195 0.2756 0.0
C1118 C 0.78992 0.22835 0.23327 0.0
C1119 C 0.76718 0.23136 0.21934 0.0
H1120 H 0.70102 0.23341 0.78388 0.0
H1121 H 0.71906 0.22683 0.67687 0.0
H1122 H 0.76078 0.23452 0.68996 0.0
H1123 H 0.79197 0.24516 0.73134 0.0
H1124 H 0.77426 0.25088 0.83848 0.0
H1125 H 0.73269 0.24165 0.82576 0.0
C1126 C 0.71412 0.23333 0.76348 0.0
C1127 C 0.70684 0.22964 0.72944 0.0
C1128 C 0.73816 0.23794 0.77113 0.0
C1129 C 0.7241 0.22963 0.70333 0.0
C1130 C 0.748 0.23416 0.71074 0.0
C1131 C 0.77899 0.24443 0.75187 0.0
C1132 C 0.78614 0.24894 0.78573 0.0
C1133 C 0.75517 0.23877 0.74445 0.0
C1134 C 0.76919 0.24756 0.81215 0.0
C1135 C 0.74541 0.24225 0.80491 0.0
H1136 H 0.79217 0.75578 0.27568 0.0
H1137 H 0.77201 0.75024 0.16936 0.0
H1138 H 0.73104 0.74152 0.18586 0.0
H1139 H 0.70073 0.7359 0.23047 0.0
H1140 H 0.72101 0.74115 0.33681 0.0
H1141 H 0.76207 0.74924 0.32029 0.0
C1142 C 0.77879 0.75277 0.25614 0.0
C1143 C 0.78513 0.75379 0.22137 0.0
C1144 C 0.75527 0.74751 0.26579 0.0
C1145 C 0.76761 0.74961 0.19634 0.0
C1146 C 0.74416 0.74456 0.20573 0.0
C1147 C 0.71417 0.7386 0.25003 0.0
C1148 C 0.70777 0.73791 0.2848 0.0
C1149 C 0.73778 0.74344 0.24038 0.0
C1150 C 0.72542 0.74155 0.30983 0.0
C1151 C 0.74893 0.74628 0.30043 0.0
H1152 H 0.51029 0.4705 0.06205 0.0
H1153 H 0.48577 0.44592 0.96343 0.0
H1154 H 0.48949 0.48623 0.94048 0.0
H1155 H 0.49965 0.52834 0.94846 0.0
H1156 H 0.52399 0.55293 0.04717 0.0
H1157 H 0.52057 0.51256 0.06998 0.0
C1158 C 0.50567 0.47394 0.03555 0.0
C1159 C 0.4977 0.45521 0.01451 0.0
C1160 C 0.50796 0.4971 0.02249 0.0
C1161 C 0.49189 0.46 0.9802 0.0
C1162 C 0.49407 0.48304 0.96704 0.0
C1163 C 0.50434 0.52488 0.97493 0.0
C1164 C 0.51212 0.54364 0.99606 0.0
C1165 C 0.50214 0.50169 0.98794 0.0
C1166 C 0.518 0.53883 0.03033 0.0
C1167 C 0.51599 0.51576 0.04341 0.0
H1168 H 0.0131 0.47144 0.44565 0.0
H1169 H 0.98207 0.44956 0.54174 0.0
H1170 H 0.99024 0.48883 0.56597 0.0
H1171 H 0.00607 0.52926 0.55977 0.0
H1172 H 0.03671 0.55127 0.46348 0.0
H1173 H 0.02894 0.51185 0.43946 0.0
C1174 C 0.00807 0.47524 0.47189 0.0
C1175 C 0.99696 0.45759 0.49185 0.0
C1176 C 0.01285 0.4978 0.48564 0.0
C1177 C 0.99059 0.46283 0.5258 0.0
C1178 C 0.99531 0.48526 0.5397 0.0
C1179 C 0.01118 0.52543 0.53357 0.0
C1180 C 0.02202 0.54317 0.51347 0.0
C1181 C 0.00646 0.50285 0.51985 0.0
C1182 C 0.02838 0.53792 0.47952 0.0
C1183 C 0.0239 0.51541 0.46575 0.0
H1184 H 0.99235 0.47523 0.93844 0.0
H1185 H 0.00997 0.45022 0.03984 0.0
H1186 H 0.00381 0.49023 0.06273 0.0
H1187 H 0.99411 0.53237 0.05388 0.0
H1188 H 0.9775 0.55774 0.95235 0.0
H1189 H 0.98224 0.51741 0.92968 0.0
C1190 C 0.99491 0.47851 0.96555 0.0
C1191 C 0.00172 0.45971 0.98736 0.0
C1192 C 0.99132 0.50158 0.97856 0.0
C1193 C 0.00485 0.46433 0.02243 0.0
C1194 C 0.00125 0.48721 0.03557 0.0
C1195 C 0.99125 0.52907 0.02684 0.0
C1196 C 0.98533 0.54807 0.00487 0.0
C1197 C 0.99449 0.50595 0.01389 0.0
C1198 C 0.98197 0.54346 0.96985 0.0
C1199 C 0.98479 0.52041 0.95684 0.0
H1200 H 0.49426 0.44916 0.48104 0.0
H1201 H 0.49114 0.46852 0.58784 0.0
H1202 H 0.47993 0.50912 0.57246 0.0
H1203 H 0.47208 0.5395 0.52861 0.0
H1204 H 0.4744 0.51985 0.42181 0.0
H1205 H 0.48454 0.47906 0.43729 0.0
C1206 C 0.49116 0.46229 0.50092 0.0
C1207 C 0.4937 0.45587 0.53549 0.0
C1208 C 0.48443 0.48556 0.49192 0.0
C1209 C 0.48934 0.473 0.561 0.0
C1210 C 0.48291 0.49624 0.55224 0.0
C1211 C 0.47458 0.52625 0.50873 0.0
C1212 C 0.47255 0.53279 0.47412 0.0
C1213 C 0.4805 0.50276 0.51778 0.0
C1214 C 0.47584 0.51535 0.44869 0.0
C1215 C 0.48175 0.49199 0.45749 0.0
H1216 H 0.02424 0.29287 0.06599 0.0
H1217 H 0.05653 0.36076 0.08845 0.0
H1218 H 0.07774 0.34313 0.13702 0.0
H1219 H 0.08721 0.30818 0.17319 0.0
H1220 H 0.0525 0.24122 0.15276 0.0
H1221 H 0.0324 0.25857 0.10315 0.0
C1222 C 0.03585 0.30385 0.08158 0.0
C1223 C 0.03881 0.3281 0.07354 0.0
C1224 C 0.04777 0.29365 0.10965 0.0
C1225 C 0.05381 0.34209 0.09418 0.0
C1226 C 0.06606 0.33197 0.12184 0.0
C1227 C 0.07546 0.29737 0.15757 0.0
C1228 C 0.07159 0.27336 0.16628 0.0
C1229 C 0.06329 0.30773 0.12972 0.0
C1230 C 0.05588 0.25968 0.14639 0.0
C1231 C 0.04432 0.26962 0.1181 0.0
H1232 H 0.94468 0.78819 0.31603 0.0
H1233 H 0.87351 0.81467 0.33243 0.0
H1234 H 0.88602 0.83268 0.38666 0.0
H1235 H 0.91745 0.84086 0.42974 0.0
H1236 H 0.98744 0.81112 0.4154 0.0
H1237 H 0.97535 0.79463 0.35999 0.0
C1238 C 0.9319 0.79787 0.33151 0.0
C1239 C 0.90822 0.80016 0.32015 0.0
C1240 C 0.93911 0.80776 0.36293 0.0
C1241 C 0.89181 0.81254 0.34067 0.0
C1242 C 0.89899 0.82295 0.3716 0.0
C1243 C 0.93002 0.83096 0.41419 0.0
C1244 C 0.9534 0.82751 0.42609 0.0
C1245 C 0.92263 0.82075 0.38296 0.0
C1246 C 0.96945 0.81416 0.40637 0.0
C1247 C 0.9625 0.80468 0.37482 0.0
H1248 H 0.44885 0.70907 0.68005 0.0
H1249 H 0.37855 0.67918 0.66893 0.0
H1250 H 0.39123 0.6581 0.61718 0.0
H1251 H 0.42242 0.64833 0.57467 0.0
H1252 H 0.49135 0.68141 0.58294 0.0
H1253 H 0.47934 0.70079 0.63644 0.0
C1254 C 0.43629 0.69799 0.66624 0.0
C1255 C 0.4128 0.69566 0.67836 0.0
C1256 C 0.44359 0.68627 0.6362 0.0
C1257 C 0.39668 0.6814 0.66002 0.0
C1258 C 0.40397 0.66921 0.63055 0.0
C1259 C 0.43484 0.65952 0.58857 0.0
C1260 C 0.45788 0.66311 0.57548 0.0
C1261 C 0.42741 0.67144 0.61845 0.0
C1262 C 0.47364 0.67821 0.59294 0.0
C1263 C 0.46673 0.68936 0.62336 0.0
H1264 H 0.59116 0.18986 0.82039 0.0
H1265 H 0.55465 0.25694 0.83179 0.0
H1266 H 0.53411 0.24197 0.88261 0.0
H1267 H 0.52613 0.20968 0.92343 0.0
H1268 H 0.5602 0.14149 0.90984 0.0
H1269 H 0.58181 0.15683 0.8601 0.0
C1270 C 0.5789 0.20123 0.83429 0.0
C1271 C 0.57466 0.22458 0.8227 0.0
C1272 C 0.5665 0.1922 0.86283 0.0
C1273 C 0.55831 0.23896 0.84039 0.0
C1274 C 0.54651 0.23039 0.86937 0.0
C1275 C 0.53822 0.19814 0.90951 0.0
C1276 C 0.54157 0.17448 0.9204 0.0
C1277 C 0.55035 0.20699 0.88071 0.0
C1278 C 0.55718 0.15972 0.90191 0.0
C1279 C 0.56966 0.16854 0.87357 0.0
H1280 H 0.08497 0.68584 0.43762 0.0
H1281 H 0.03843 0.63205 0.39619 0.0
H1282 H 0.05096 0.64255 0.33802 0.0
H1283 H 0.07443 0.66786 0.29894 0.0
H1284 H 0.12325 0.71948 0.3408 0.0
H1285 H 0.11072 0.70892 0.39885 0.0
C1286 C 0.07759 0.67642 0.41582 0.0
C1287 C 0.06059 0.65839 0.42109 0.0
C1288 C 0.08534 0.68215 0.3826 0.0
C1289 C 0.0515 0.64602 0.39273 0.0
C1290 C 0.05863 0.65205 0.3595 0.0
C1291 C 0.08239 0.67671 0.32081 0.0
C1292 C 0.09961 0.69456 0.31561 0.0
C1293 C 0.07543 0.6702 0.35412 0.0
C1294 C 0.11001 0.70566 0.34415 0.0
C1295 C 0.10277 0.69969 0.37733 0.0
H1296 H 0.56546 0.81493 0.71078 0.0
H1297 H 0.61507 0.76845 0.65955 0.0
H1298 H 0.60028 0.78209 0.60379 0.0
H1299 H 0.57343 0.80762 0.56973 0.0
H1300 H 0.52704 0.85726 0.62112 0.0
H1301 H 0.54035 0.84212 0.6768 0.0
C1302 C 0.57291 0.80771 0.68735 0.0
C1303 C 0.59109 0.79048 0.68915 0.0
C1304 C 0.56493 0.81629 0.65553 0.0
C1305 C 0.601 0.78164 0.65872 0.0
C1306 C 0.59254 0.78944 0.6269 0.0
C1307 C 0.5662 0.81504 0.59317 0.0
C1308 C 0.5491 0.83335 0.59142 0.0
C1309 C 0.57454 0.80679 0.625 0.0
C1310 C 0.54019 0.84315 0.62189 0.0
C1311 C 0.54777 0.83446 0.65367 0.0
H1312 H 0.41064 0.3086 0.83386 0.0
H1313 H 0.44958 0.24286 0.84471 0.0
H1314 H 0.47084 0.25898 0.8942 0.0
H1315 H 0.47859 0.29184 0.93416 0.0
H1316 H 0.44228 0.35887 0.92075 0.0
H1317 H 0.42002 0.34239 0.8723 0.0
C1318 C 0.42362 0.29779 0.84736 0.0
C1319 C 0.42831 0.27446 0.83608 0.0
C1320 C 0.43643 0.30752 0.87505 0.0
C1321 C 0.44557 0.2608 0.85315 0.0
C1322 C 0.45777 0.27003 0.88136 0.0
C1323 C 0.46588 0.30288 0.92053 0.0
C1324 C 0.46205 0.32653 0.93111 0.0
C1325 C 0.45344 0.2934 0.89244 0.0
C1326 C 0.44567 0.34066 0.913 0.0
C1327 C 0.43282 0.33119 0.88543 0.0
H1328 H 0.90621 0.19049 0.18094 0.0
H1329 H 0.94906 0.25413 0.18017 0.0
H1330 H 0.97005 0.2401 0.12912 0.0
H1331 H 0.97681 0.20938 0.08541 0.0
H1332 H 0.93641 0.14414 0.08877 0.0
H1333 H 0.91411 0.15892 0.13824 0.0
C1334 C 0.91993 0.20137 0.16924 0.0
C1335 C 0.92586 0.22347 0.18388 0.0
C1336 C 0.93257 0.19274 0.14066 0.0
C1337 C 0.94409 0.23714 0.16913 0.0
C1338 C 0.95614 0.22909 0.14004 0.0
C1339 C 0.96316 0.19837 0.09702 0.0
C1340 C 0.95826 0.1757 0.08337 0.0
C1341 C 0.95068 0.20684 0.12575 0.0
C1342 C 0.94065 0.16159 0.09889 0.0
C1343 C 0.92778 0.1701 0.12706 0.0
H1344 H 0.94515 0.65639 0.92265 0.0
H1345 H 0.00677 0.70183 0.91467 0.0
H1346 H 0.98945 0.7216 0.86479 0.0
H1347 H 0.95674 0.72614 0.82344 0.0
H1348 H 0.89403 0.68231 0.83309 0.0
H1349 H 0.91161 0.66205 0.88241 0.0
C1350 C 0.95485 0.67046 0.90975 0.0
C1351 C 0.97735 0.67742 0.92211 0.0
C1352 C 0.94445 0.68225 0.88158 0.0
C1353 C 0.98949 0.69604 0.90558 0.0
C1354 C 0.97956 0.70741 0.87709 0.0
C1355 C 0.94683 0.71225 0.83643 0.0
C1356 C 0.92407 0.70578 0.82447 0.0
C1357 C 0.957 0.70075 0.86494 0.0
C1358 C 0.9115 0.68778 0.84179 0.0
C1359 C 0.92162 0.67606 0.86991 0.0
H1360 H 0.04838 0.21328 0.67247 0.0
H1361 H 0.12137 0.19036 0.66226 0.0
H1362 H 0.11124 0.16862 0.60998 0.0
H1363 H 0.08143 0.15592 0.56701 0.0
H1364 H 0.0093 0.18131 0.57503 0.0
H1365 H 0.01909 0.20204 0.62848 0.0
C1366 C 0.0621 0.20361 0.65873 0.0
C1367 C 0.08561 0.20343 0.67132 0.0
C1368 C 0.05619 0.19136 0.62848 0.0
C1369 C 0.10319 0.19093 0.65305 0.0
C1370 C 0.09737 0.17836 0.62325 0.0
C1371 C 0.06788 0.16579 0.58082 0.0
C1372 C 0.04458 0.16677 0.56778 0.0
C1373 C 0.0739 0.17833 0.61082 0.0
C1374 C 0.02724 0.18009 0.58509 0.0
C1375 C 0.03288 0.19201 0.61547 0.0
H1376 H 0.57745 0.31051 0.4546 0.0
H1377 H 0.52564 0.35727 0.40844 0.0
H1378 H 0.53667 0.34267 0.35156 0.0
H1379 H 0.56062 0.3161 0.31505 0.0
H1380 H 0.61453 0.27158 0.36079 0.0
H1381 H 0.60314 0.28579 0.41779 0.0
C1382 C 0.5686 0.31752 0.43206 0.0
C1383 C 0.55061 0.33482 0.43571 0.0
C1384 C 0.57539 0.30939 0.39943 0.0
C1385 C 0.53955 0.34399 0.40629 0.0
C1386 C 0.5458 0.33558 0.37379 0.0
C1387 C 0.56984 0.30948 0.33754 0.0
C1388 C 0.58821 0.29261 0.3338 0.0
C1389 C 0.5636 0.31819 0.37007 0.0
C1390 C 0.6003 0.28452 0.36305 0.0
C1391 C 0.59377 0.29262 0.39561 0.0
H1392 H 0.47774 0.80516 0.07895 0.0
H1393 H 0.43733 0.87046 0.08068 0.0
H1394 H 0.41595 0.85685 0.13167 0.0
H1395 H 0.40845 0.826 0.1757 0.0
H1396 H 0.4514 0.76238 0.1763 0.0
H1397 H 0.47184 0.77549 0.12433 0.0
C1398 C 0.46433 0.81647 0.09059 0.0
C1399 C 0.4591 0.83877 0.07599 0.0
C1400 C 0.45237 0.80867 0.12014 0.0
C1401 C 0.44181 0.85329 0.09154 0.0
C1402 C 0.42946 0.84544 0.12057 0.0
C1403 C 0.42213 0.81497 0.16415 0.0
C1404 C 0.4282 0.7931 0.17938 0.0
C1405 C 0.43446 0.82308 0.13497 0.0
C1406 C 0.44634 0.77919 0.1648 0.0
C1407 C 0.45807 0.78672 0.13519 0.0
H1408 H 0.92192 0.313 0.55406 0.0
H1409 H 0.97138 0.36167 0.60134 0.0
H1410 H 0.95873 0.34821 0.6581 0.0
H1411 H 0.93402 0.32216 0.69421 0.0
H1412 H 0.88245 0.27564 0.64718 0.0
H1413 H 0.89544 0.28871 0.59032 0.0
C1414 C 0.92991 0.32065 0.57682 0.0
C1415 C 0.94771 0.33817 0.57354 0.0
C1416 C 0.92217 0.31319 0.60934 0.0
C1417 C 0.95765 0.34818 0.60321 0.0
C1418 C 0.95047 0.34044 0.63564 0.0
C1419 C 0.92565 0.31487 0.67149 0.0
C1420 C 0.90746 0.29778 0.67484 0.0
C1421 C 0.93283 0.32288 0.639 0.0
C1422 C 0.89649 0.28879 0.64524 0.0
C1423 C 0.90395 0.29623 0.61276 0.0
H1424 H 0.43106 0.1895 0.30085 0.0
H1425 H 0.37405 0.23099 0.34451 0.0
H1426 H 0.3853 0.21754 0.402 0.0
H1427 H 0.41151 0.19398 0.43978 0.0
H1428 H 0.46604 0.14957 0.39547 0.0
H1429 H 0.45559 0.16402 0.33823 0.0
C1430 C 0.42117 0.19565 0.32301 0.0
C1431 C 0.40194 0.21144 0.31858 0.0
C1432 C 0.42727 0.18723 0.35577 0.0
C1433 C 0.38895 0.2189 0.34735 0.0
C1434 C 0.3954 0.21122 0.38017 0.0
C1435 C 0.42109 0.18749 0.41755 0.0
C1436 C 0.43966 0.17088 0.42181 0.0
C1437 C 0.41454 0.1954 0.38469 0.0
C1438 C 0.45168 0.16232 0.3928 0.0
C1439 C 0.44575 0.17064 0.36012 0.0
H1440 H 0.52299 0.70085 0.08735 0.0
H1441 H 0.56321 0.63549 0.09123 0.0
H1442 H 0.58462 0.64983 0.14182 0.0
H1443 H 0.59209 0.68129 0.18499 0.0
H1444 H 0.54914 0.74488 0.18373 0.0
H1445 H 0.52883 0.73114 0.13194 0.0
C1446 C 0.53637 0.6897 0.09937 0.0
C1447 C 0.54155 0.66716 0.0855 0.0
C1448 C 0.5483 0.6979 0.12873 0.0
C1449 C 0.55878 0.65284 0.10153 0.0
C1450 C 0.57115 0.6611 0.13033 0.0
C1451 C 0.57845 0.69217 0.17306 0.0
C1452 C 0.57234 0.71423 0.18768 0.0
C1453 C 0.56617 0.68368 0.14405 0.0
C1454 C 0.55423 0.72794 0.17266 0.0
C1455 C 0.54258 0.72005 0.14316 0.0
H1456 H 0.08962 0.81932 0.83884 0.0
H1457 H 0.04177 0.75946 0.83366 0.0
H1458 H 0.01976 0.77454 0.88317 0.0
H1459 H 0.01385 0.80497 0.92762 0.0
H1460 H 0.05969 0.86654 0.93024 0.0
H1461 H 0.08247 0.85086 0.88185 0.0
C1462 C 0.07453 0.80951 0.84887 0.0
C1463 C 0.06751 0.78814 0.83304 0.0
C1464 C 0.0614 0.81878 0.87658 0.0
C1465 C 0.04758 0.77586 0.84565 0.0
C1466 C 0.03495 0.78452 0.87386 0.0
C1467 C 0.02874 0.81503 0.91749 0.0
C1468 C 0.03505 0.8369 0.93259 0.0
C1469 C 0.04159 0.80603 0.88941 0.0
C1470 C 0.05432 0.84976 0.91898 0.0
C1471 C 0.06748 0.84071 0.89144 0.0
loop_
_geom_bond_atom_site_label_1
_geom_bond_atom_site_label_2
_geom_bond_distance
_geom_bond_site_symmetry_2
_ccdc_geom_bond_type
O0 Cd1 2.223 . S
O0 C8 1.315 . S
Cd1 O0 2.223 . S
Cd1 O4 2.297 . S
Cd1 O5 2.439 . S
Cd1 O11 2.240 . S
Cd2 O3 2.240 . S
Cd2 O10 2.223 . S
Cd2 O12 2.297 . S
Cd2 O13 2.439 . S
O3 Cd2 2.240 . S
O3 C8 1.279 . S
O4 Cd1 2.297 . S
O4 C6 1.247 . S
O5 Cd1 2.439 . S
O5 C6 1.208 . S
C6 O4 1.247 . S
C6 O5 1.208 . S
C7 O12 1.247 . S
C7 O13 1.208 . S
C8 O0 1.315 . S
C8 O3 1.279 . S
C9 O10 1.315 . S
C9 O11 1.279 . S
O10 Cd2 2.223 . S
O10 C9 1.315 . S
O11 Cd1 2.240 . S
O11 C9 1.279 . S
O12 Cd2 2.297 . S
O12 C7 1.247 . S
O13 Cd2 2.439 . S
O13 C7 1.208 . S
O14 Cd15 2.223 . S
O14 C22 1.315 . S
Cd15 O14 2.223 . S
Cd15 O18 2.297 . S
Cd15 O19 2.439 . S
Cd15 O25 2.240 . S
Cd16 O17 2.240 . S
Cd16 O24 2.223 . S
Cd16 O26 2.297 . S
Cd16 O27 2.439 . S
O17 Cd16 2.240 . S
O17 C22 1.279 . S
O18 Cd15 2.297 . S
O18 C20 1.247 . S
O19 Cd15 2.439 . S
O19 C20 1.208 . S
C20 O18 1.247 . S
C20 O19 1.208 . S
C21 O26 1.247 . S
C21 O27 1.208 . S
C22 O14 1.315 . S
C22 O17 1.279 . S
C23 O24 1.315 . S
C23 O25 1.279 . S
O24 Cd16 2.223 . S
O24 C23 1.315 . S
O25 Cd15 2.240 . S
O25 C23 1.279 . S
O26 Cd16 2.297 . S
O26 C21 1.247 . S
O27 Cd16 2.439 . S
O27 C21 1.208 . S
O28 Cd29 2.223 . S
O28 C36 1.315 . S
Cd29 O28 2.223 . S
Cd29 O32 2.297 . S
Cd29 O33 2.439 . S
Cd29 O39 2.240 . S
Cd30 O31 2.240 . S
Cd30 O38 2.223 . S
Cd30 O40 2.297 . S
Cd30 O41 2.439 . S
O31 Cd30 2.240 . S
O31 C36 1.279 . S
O32 Cd29 2.297 . S
O32 C34 1.247 . S
O33 Cd29 2.439 . S
O33 C34 1.208 . S
C34 O32 1.247 . S
C34 O33 1.208 . S
C35 O40 1.247 . S
C35 O41 1.208 . S
C36 O28 1.315 . S
C36 O31 1.279 . S
C37 O38 1.315 . S
C37 O39 1.279 . S
O38 Cd30 2.223 . S
O38 C37 1.315 . S
O39 Cd29 2.240 . S
O39 C37 1.279 . S
O40 Cd30 2.297 . S
O40 C35 1.247 . S
O41 Cd30 2.439 . S
O41 C35 1.208 . S
O42 Cd43 2.223 . S
O42 C50 1.315 . S
Cd43 O42 2.223 . S
Cd43 O46 2.297 . S
Cd43 O47 2.439 . S
Cd43 O53 2.240 . S
Cd44 O45 2.240 . S
Cd44 O52 2.223 . S
Cd44 O54 2.297 1_554 S
Cd44 O55 2.439 1_554 S
O45 Cd44 2.240 . S
O45 C50 1.279 . S
O46 Cd43 2.297 . S
O46 C48 1.247 . S
O47 Cd43 2.439 . S
O47 C48 1.208 . S
C48 O46 1.247 . S
C48 O47 1.208 . S
C49 O54 1.247 . S
C49 O55 1.208 . S
C50 O42 1.315 . S
C50 O45 1.279 . S
C51 O52 1.315 . S
C51 O53 1.279 . S
O52 Cd44 2.223 . S
O52 C51 1.315 . S
O53 Cd43 2.240 . S
O53 C51 1.279 . S
O54 Cd44 2.297 1_556 S
O54 C49 1.247 . S
O55 Cd44 2.439 1_556 S
O55 C49 1.208 . S
O56 Cd57 2.223 . S
O56 C64 1.315 . S
Cd57 O56 2.223 . S
Cd57 O60 2.297 . S
Cd57 O61 2.439 . S
Cd57 O67 2.240 . S
Cd58 O59 2.240 . S
Cd58 O66 2.223 . S
Cd58 O68 2.297 . S
Cd58 O69 2.439 . S
O59 Cd58 2.240 . S
O59 C64 1.279 . S
O60 Cd57 2.297 . S
O60 C62 1.247 . S
O61 Cd57 2.439 . S
O61 C62 1.208 . S
C62 O60 1.247 . S
C62 O61 1.208 . S
C63 O68 1.247 . S
C63 O69 1.208 . S
C64 O56 1.315 . S
C64 O59 1.279 . S
C65 O66 1.315 . S
C65 O67 1.279 . S
O66 Cd58 2.223 . S
O66 C65 1.315 . S
O67 Cd57 2.240 . S
O67 C65 1.279 . S
O68 Cd58 2.297 . S
O68 C63 1.247 . S
O69 Cd58 2.439 . S
O69 C63 1.208 . S
O70 Cd71 2.223 . S
O70 C78 1.315 . S
Cd71 O70 2.223 . S
Cd71 O74 2.297 . S
Cd71 O75 2.439 . S
Cd71 O81 2.240 . S
Cd72 O73 2.240 . S
Cd72 O80 2.223 . S
Cd72 O82 2.297 . S
Cd72 O83 2.439 . S
O73 Cd72 2.240 . S
O73 C78 1.279 . S
O74 Cd71 2.297 . S
O74 C76 1.247 . S
O75 Cd71 2.439 . S
O75 C76 1.208 . S
C76 O74 1.247 . S
C76 O75 1.208 . S
C77 O82 1.247 . S
C77 O83 1.208 . S
C78 O70 1.315 . S
C78 O73 1.279 . S
C79 O80 1.315 . S
C79 O81 1.279 . S
O80 Cd72 2.223 . S
O80 C79 1.315 . S
O81 Cd71 2.240 . S
O81 C79 1.279 . S
O82 Cd72 2.297 . S
O82 C77 1.247 . S
O83 Cd72 2.439 . S
O83 C77 1.208 . S
O84 Cd85 2.223 . S
O84 C92 1.315 . S
Cd85 O84 2.223 . S
Cd85 O88 2.297 . S
Cd85 O89 2.439 . S
Cd85 O95 2.240 . S
Cd86 O87 2.240 . S
Cd86 O94 2.223 . S
Cd86 O96 2.297 . S
Cd86 O97 2.439 . S
O87 Cd86 2.240 . S
O87 C92 1.279 . S
O88 Cd85 2.297 . S
O88 C90 1.247 . S
O89 Cd85 2.439 . S
O89 C90 1.208 . S
C90 O88 1.247 . S
C90 O89 1.208 . S
C91 O96 1.247 . S
C91 O97 1.208 . S
C92 O84 1.315 . S
C92 O87 1.279 . S
C93 O94 1.315 . S
C93 O95 1.279 . S
O94 Cd86 2.223 . S
O94 C93 1.315 . S
O95 Cd85 2.240 . S
O95 C93 1.279 . S
O96 Cd86 2.297 . S
O96 C91 1.247 . S
O97 Cd86 2.439 . S
O97 C91 1.208 . S
O98 Cd99 2.223 . S
O98 C106 1.315 . S
Cd99 O98 2.223 . S
Cd99 O102 2.297 . S
Cd99 O103 2.439 . S
Cd99 O109 2.240 . S
Cd100 O101 2.240 . S
Cd100 O108 2.223 . S
Cd100 O110 2.297 1_556 S
Cd100 O111 2.439 1_556 S
O101 Cd100 2.240 . S
O101 C106 1.279 . S
O102 Cd99 2.297 . S
O102 C104 1.247 . S
O103 Cd99 2.439 . S
O103 C104 1.208 . S
C104 O102 1.247 . S
C104 O103 1.208 . S
C105 O110 1.247 . S
C105 O111 1.208 . S
C106 O98 1.315 . S
C106 O101 1.279 . S
C107 O108 1.315 . S
C107 O109 1.279 . S
O108 Cd100 2.223 . S
O108 C107 1.315 . S
O109 Cd99 2.240 . S
O109 C107 1.279 . S
O110 Cd100 2.297 1_554 S
O110 C105 1.247 . S
O111 Cd100 2.439 1_554 S
O111 C105 1.208 . S
O112 Cd113 2.223 . S
O112 C120 1.315 . S
Cd113 O112 2.223 . S
Cd113 O116 2.297 . S
Cd113 O117 2.439 . S
Cd113 O123 2.240 . S
Cd114 O115 2.240 . S
Cd114 O122 2.223 . S
Cd114 O124 2.297 . S
Cd114 O125 2.439 . S
O115 Cd114 2.240 . S
O115 C120 1.279 . S
O116 Cd113 2.297 . S
O116 C118 1.247 . S
O117 Cd113 2.439 . S
O117 C118 1.208 . S
C118 O116 1.247 . S
C118 O117 1.208 . S
C119 O124 1.247 . S
C119 O125 1.208 . S
C120 O112 1.315 . S
C120 O115 1.279 . S
C121 O122 1.315 . S
C121 O123 1.279 . S
O122 Cd114 2.223 . S
O122 C121 1.315 . S
O123 Cd113 2.240 . S
O123 C121 1.279 . S
O124 Cd114 2.297 . S
O124 C119 1.247 . S
O125 Cd114 2.439 . S
O125 C119 1.208 . S
O126 Cd127 2.223 . S
O126 C134 1.315 . S
Cd127 O126 2.223 . S
Cd127 O130 2.297 . S
Cd127 O131 2.439 . S
Cd127 O137 2.240 . S
Cd128 O129 2.240 . S
Cd128 O136 2.223 . S
Cd128 O138 2.297 . S
Cd128 O139 2.439 . S
O129 Cd128 2.240 . S
O129 C134 1.279 . S
O130 Cd127 2.297 . S
O130 C132 1.247 . S
O131 Cd127 2.439 . S
O131 C132 1.208 . S
C132 O130 1.247 . S
C132 O131 1.208 . S
C133 O138 1.247 . S
C133 O139 1.208 . S
C134 O126 1.315 . S
C134 O129 1.279 . S
C135 O136 1.315 . S
C135 O137 1.279 . S
O136 Cd128 2.223 . S
O136 C135 1.315 . S
O137 Cd127 2.240 . S
O137 C135 1.279 . S
O138 Cd128 2.297 . S
O138 C133 1.247 . S
O139 Cd128 2.439 . S
O139 C133 1.208 . S
O140 Cd141 2.223 . S
O140 C148 1.315 . S
Cd141 O140 2.223 . S
Cd141 O144 2.297 . S
Cd141 O145 2.439 . S
Cd141 O151 2.240 . S
Cd142 O143 2.240 . S
Cd142 O150 2.223 . S
Cd142 O152 2.297 . S
Cd142 O153 2.439 . S
O143 Cd142 2.240 . S
O143 C148 1.279 . S
O144 Cd141 2.297 . S
O144 C146 1.247 . S
O145 Cd141 2.439 . S
O145 C146 1.208 . S
C146 O144 1.247 . S
C146 O145 1.208 . S
C147 O152 1.247 . S
C147 O153 1.208 . S
C148 O140 1.315 . S
C148 O143 1.279 . S
C149 O150 1.315 . S
C149 O151 1.279 . S
O150 Cd142 2.223 . S
O150 C149 1.315 . S
O151 Cd141 2.240 . S
O151 C149 1.279 . S
O152 Cd142 2.297 . S
O152 C147 1.247 . S
O153 Cd142 2.439 . S
O153 C147 1.208 . S
O154 Cd155 2.223 . S
O154 C162 1.315 . S
Cd155 O154 2.223 . S
Cd155 O158 2.297 . S
Cd155 O159 2.439 . S
Cd155 O165 2.240 . S
Cd156 O157 2.240 . S
Cd156 O164 2.223 . S
Cd156 O166 2.297 1_556 S
Cd156 O167 2.439 1_556 S
O157 Cd156 2.240 . S
O157 C162 1.279 . S
O158 Cd155 2.297 . S
O158 C160 1.247 . S
O159 Cd155 2.439 . S
O159 C160 1.208 . S
C160 O158 1.247 . S
C160 O159 1.208 . S
C161 O166 1.247 . S
C161 O167 1.208 . S
C162 O154 1.315 . S
C162 O157 1.279 . S
C163 O164 1.315 . S
C163 O165 1.279 . S
O164 Cd156 2.223 . S
O164 C163 1.315 . S
O165 Cd155 2.240 . S
O165 C163 1.279 . S
O166 Cd156 2.297 1_554 S
O166 C161 1.247 . S
O167 Cd156 2.439 1_554 S
O167 C161 1.208 . S
O168 Cd169 2.223 . S
O168 C176 1.315 . S
Cd169 O168 2.223 . S
Cd169 O172 2.297 . S
Cd169 O173 2.439 . S
Cd169 O179 2.240 . S
Cd170 O171 2.240 . S
Cd170 O178 2.223 . S
Cd170 O180 2.297 . S
Cd170 O181 2.439 . S
O171 Cd170 2.240 . S
O171 C176 1.279 . S
O172 Cd169 2.297 . S
O172 C174 1.247 . S
O173 Cd169 2.439 . S
O173 C174 1.208 . S
C174 O172 1.247 . S
C174 O173 1.208 . S
C175 O180 1.247 . S
C175 O181 1.208 . S
C176 O168 1.315 . S
C176 O171 1.279 . S
C177 O178 1.315 . S
C177 O179 1.279 . S
O178 Cd170 2.223 . S
O178 C177 1.315 . S
O179 Cd169 2.240 . S
O179 C177 1.279 . S
O180 Cd170 2.297 . S
O180 C175 1.247 . S
O181 Cd170 2.439 . S
O181 C175 1.208 . S
O182 Cd183 2.223 . S
O182 C190 1.315 . S
Cd183 O182 2.223 . S
Cd183 O186 2.297 . S
Cd183 O187 2.439 . S
Cd183 O193 2.240 . S
Cd184 O185 2.240 . S
Cd184 O192 2.223 . S
Cd184 O194 2.297 . S
Cd184 O195 2.439 . S
O185 Cd184 2.240 . S
O185 C190 1.279 . S
O186 Cd183 2.297 . S
O186 C188 1.247 . S
O187 Cd183 2.439 . S
O187 C188 1.208 . S
C188 O186 1.247 . S
C188 O187 1.208 . S
C189 O194 1.247 . S
C189 O195 1.208 . S
C190 O182 1.315 . S
C190 O185 1.279 . S
C191 O192 1.315 . S
C191 O193 1.279 . S
O192 Cd184 2.223 . S
O192 C191 1.315 . S
O193 Cd183 2.240 . S
O193 C191 1.279 . S
O194 Cd184 2.297 . S
O194 C189 1.247 . S
O195 Cd184 2.439 . S
O195 C189 1.208 . S
O196 Cd197 2.223 . S
O196 C204 1.315 . S
Cd197 O196 2.223 . S
Cd197 O200 2.297 . S
Cd197 O201 2.439 . S
Cd197 O207 2.240 . S
Cd198 O199 2.240 . S
Cd198 O206 2.223 . S
Cd198 O208 2.297 . S
Cd198 O209 2.439 . S
O199 Cd198 2.240 . S
O199 C204 1.279 . S
O200 Cd197 2.297 . S
O200 C202 1.247 . S
O201 Cd197 2.439 . S
O201 C202 1.208 . S
C202 O200 1.247 . S
C202 O201 1.208 . S
C203 O208 1.247 . S
C203 O209 1.208 . S
C204 O196 1.315 . S
C204 O199 1.279 . S
C205 O206 1.315 . S
C205 O207 1.279 . S
O206 Cd198 2.223 . S
O206 C205 1.315 . S
O207 Cd197 2.240 . S
O207 C205 1.279 . S
O208 Cd198 2.297 . S
O208 C203 1.247 . S
O209 Cd198 2.439 . S
O209 C203 1.208 . S
O210 Cd211 2.223 . S
O210 C218 1.315 . S
Cd211 O210 2.223 . S
Cd211 O214 2.297 . S
Cd211 O215 2.439 . S
Cd211 O221 2.240 . S
Cd212 O213 2.240 . S
Cd212 O220 2.223 . S
Cd212 O222 2.297 1_554 S
Cd212 O223 2.439 1_554 S
O213 Cd212 2.240 . S
O213 C218 1.279 . S
O214 Cd211 2.297 . S
O214 C216 1.247 . S
O215 Cd211 2.439 . S
O215 C216 1.208 . S
C216 O214 1.247 . S
C216 O215 1.208 . S
C217 O222 1.247 . S
C217 O223 1.208 . S
C218 O210 1.315 . S
C218 O213 1.279 . S
C219 O220 1.315 . S
C219 O221 1.279 . S
O220 Cd212 2.223 . S
O220 C219 1.315 . S
O221 Cd211 2.240 . S
O221 C219 1.279 . S
O222 Cd212 2.297 1_556 S
O222 C217 1.247 . S
O223 Cd212 2.439 1_556 S
O223 C217 1.208 . S
O224 Cd225 2.223 . S
O224 C232 1.315 . S
Cd225 O224 2.223 . S
Cd225 O228 2.297 . S
Cd225 O229 2.439 . S
Cd225 O235 2.240 . S
Cd226 O227 2.240 . S
Cd226 O234 2.223 . S
Cd226 O236 2.297 . S
Cd226 O237 2.439 . S
O227 Cd226 2.240 . S
O227 C232 1.279 . S
O228 Cd225 2.297 . S
O228 C230 1.247 . S
O229 Cd225 2.439 . S
O229 C230 1.208 . S
C230 O228 1.247 . S
C230 O229 1.208 . S
C231 O236 1.247 . S
C231 O237 1.208 . S
C232 O224 1.315 . S
C232 O227 1.279 . S
C233 O234 1.315 . S
C233 O235 1.279 . S
O234 Cd226 2.223 . S
O234 C233 1.315 . S
O235 Cd225 2.240 . S
O235 C233 1.279 . S
O236 Cd226 2.297 . S
O236 C231 1.247 . S
O237 Cd226 2.439 . S
O237 C231 1.208 . S
O238 Cd239 2.223 . S
O238 C246 1.315 . S
Cd239 O238 2.223 . S
Cd239 O242 2.297 . S
Cd239 O243 2.439 . S
Cd239 O249 2.240 . S
Cd240 O241 2.240 . S
Cd240 O248 2.223 . S
Cd240 O250 2.297 1_554 S
Cd240 O251 2.439 1_554 S
O241 Cd240 2.240 . S
O241 C246 1.279 . S
O242 Cd239 2.297 . S
O242 C244 1.247 . S
O243 Cd239 2.439 . S
O243 C244 1.208 . S
C244 O242 1.247 . S
C244 O243 1.208 . S
C245 O250 1.247 . S
C245 O251 1.208 . S
C246 O238 1.315 . S
C246 O241 1.279 . S
C247 O248 1.315 . S
C247 O249 1.279 . S
O248 Cd240 2.223 . S
O248 C247 1.315 . S
O249 Cd239 2.240 . S
O249 C247 1.279 . S
O250 Cd240 2.297 1_556 S
O250 C245 1.247 . S
O251 Cd240 2.439 1_556 S
O251 C245 1.208 . S
O252 Cd253 2.223 . S
O252 C260 1.315 . S
Cd253 O252 2.223 . S
Cd253 O256 2.297 . S
Cd253 O257 2.439 . S
Cd253 O263 2.240 . S
Cd254 O255 2.240 . S
Cd254 O262 2.223 . S
Cd254 O264 2.297 . S
Cd254 O265 2.439 . S
O255 Cd254 2.240 . S
O255 C260 1.279 . S
O256 Cd253 2.297 . S
O256 C258 1.247 . S
O257 Cd253 2.439 . S
O257 C258 1.208 . S
C258 O256 1.247 . S
C258 O257 1.208 . S
C259 O264 1.247 . S
C259 O265 1.208 . S
C260 O252 1.315 . S
C260 O255 1.279 . S
C261 O262 1.315 . S
C261 O263 1.279 . S
O262 Cd254 2.223 . S
O262 C261 1.315 . S
O263 Cd253 2.240 . S
O263 C261 1.279 . S
O264 Cd254 2.297 . S
O264 C259 1.247 . S
O265 Cd254 2.439 . S
O265 C259 1.208 . S
O266 Cd267 2.223 . S
O266 C274 1.315 . S
Cd267 O266 2.223 . S
Cd267 O270 2.297 . S
Cd267 O271 2.439 . S
Cd267 O277 2.240 . S
Cd268 O269 2.240 . S
Cd268 O276 2.223 . S
Cd268 O278 2.297 . S
Cd268 O279 2.439 . S
O269 Cd268 2.240 . S
O269 C274 1.279 . S
O270 Cd267 2.297 . S
O270 C272 1.247 . S
O271 Cd267 2.439 . S
O271 C272 1.208 . S
C272 O270 1.247 . S
C272 O271 1.208 . S
C273 O278 1.247 . S
C273 O279 1.208 . S
C274 O266 1.315 . S
C274 O269 1.279 . S
C275 O276 1.315 . S
C275 O277 1.279 . S
O276 Cd268 2.223 . S
O276 C275 1.315 . S
O277 Cd267 2.240 . S
O277 C275 1.279 . S
O278 Cd268 2.297 . S
O278 C273 1.247 . S
O279 Cd268 2.439 . S
O279 C273 1.208 . S
O280 Cd281 2.223 . S
O280 C288 1.315 . S
Cd281 O280 2.223 . S
Cd281 O284 2.297 . S
Cd281 O285 2.439 . S
Cd281 O291 2.240 . S
Cd282 O283 2.240 . S
Cd282 O290 2.223 . S
Cd282 O292 2.297 . S
Cd282 O293 2.439 . S
O283 Cd282 2.240 . S
O283 C288 1.279 . S
O284 Cd281 2.297 . S
O284 C286 1.247 . S
O285 Cd281 2.439 . S
O285 C286 1.208 . S
C286 O284 1.247 . S
C286 O285 1.208 . S
C287 O292 1.247 . S
C287 O293 1.208 . S
C288 O280 1.315 . S
C288 O283 1.279 . S
C289 O290 1.315 . S
C289 O291 1.279 . S
O290 Cd282 2.223 . S
O290 C289 1.315 . S
O291 Cd281 2.240 . S
O291 C289 1.279 . S
O292 Cd282 2.297 . S
O292 C287 1.247 . S
O293 Cd282 2.439 . S
O293 C287 1.208 . S
O294 Cd295 2.223 . S
O294 C302 1.315 . S
Cd295 O294 2.223 . S
Cd295 O298 2.297 . S
Cd295 O299 2.439 . S
Cd295 O305 2.240 . S
Cd296 O297 2.240 . S
Cd296 O304 2.223 . S
Cd296 O306 2.297 1_556 S
Cd296 O307 2.439 1_556 S
O297 Cd296 2.240 . S
O297 C302 1.279 . S
O298 Cd295 2.297 . S
O298 C300 1.247 . S
O299 Cd295 2.439 . S
O299 C300 1.208 . S
C300 O298 1.247 . S
C300 O299 1.208 . S
C301 O306 1.247 . S
C301 O307 1.208 . S
C302 O294 1.315 . S
C302 O297 1.279 . S
C303 O304 1.315 . S
C303 O305 1.279 . S
O304 Cd296 2.223 . S
O304 C303 1.315 . S
O305 Cd295 2.240 . S
O305 C303 1.279 . S
O306 Cd296 2.297 1_554 S
O306 C301 1.247 . S
O307 Cd296 2.439 1_554 S
O307 C301 1.208 . S
O308 Cd309 2.223 . S
O308 C316 1.315 . S
Cd309 O308 2.223 . S
Cd309 O312 2.297 . S
Cd309 O313 2.439 . S
Cd309 O319 2.240 . S
Cd310 O311 2.240 . S
Cd310 O318 2.223 . S
Cd310 O320 2.297 . S
Cd310 O321 2.439 . S
O311 Cd310 2.240 . S
O311 C316 1.279 . S
O312 Cd309 2.297 . S
O312 C314 1.247 . S
O313 Cd309 2.439 . S
O313 C314 1.208 . S
C314 O312 1.247 . S
C314 O313 1.208 . S
C315 O320 1.247 . S
C315 O321 1.208 . S
C316 O308 1.315 . S
C316 O311 1.279 . S
C317 O318 1.315 . S
C317 O319 1.279 . S
O318 Cd310 2.223 . S
O318 C317 1.315 . S
O319 Cd309 2.240 . S
O319 C317 1.279 . S
O320 Cd310 2.297 . S
O320 C315 1.247 . S
O321 Cd310 2.439 . S
O321 C315 1.208 . S
O322 Cd323 2.223 . S
O322 C330 1.315 . S
Cd323 O322 2.223 . S
Cd323 O326 2.297 . S
Cd323 O327 2.439 . S
Cd323 O333 2.240 . S
Cd324 O325 2.240 . S
Cd324 O332 2.223 . S
Cd324 O334 2.297 . S
Cd324 O335 2.439 . S
O325 Cd324 2.240 . S
O325 C330 1.279 . S
O326 Cd323 2.297 . S
O326 C328 1.247 . S
O327 Cd323 2.439 . S
O327 C328 1.208 . S
C328 O326 1.247 . S
C328 O327 1.208 . S
C329 O334 1.247 . S
C329 O335 1.208 . S
C330 O322 1.315 . S
C330 O325 1.279 . S
C331 O332 1.315 . S
C331 O333 1.279 . S
O332 Cd324 2.223 . S
O332 C331 1.315 . S
O333 Cd323 2.240 . S
O333 C331 1.279 . S
O334 Cd324 2.297 . S
O334 C329 1.247 . S
O335 Cd324 2.439 . S
O335 C329 1.208 . S
O336 Cd337 2.223 . S
O336 C344 1.315 . S
Cd337 O336 2.223 . S
Cd337 O340 2.297 . S
Cd337 O341 2.439 . S
Cd337 O347 2.240 . S
Cd338 O339 2.240 . S
Cd338 O346 2.223 . S
Cd338 O348 2.297 . S
Cd338 O349 2.439 . S
O339 Cd338 2.240 . S
O339 C344 1.279 . S
O340 Cd337 2.297 . S
O340 C342 1.247 . S
O341 Cd337 2.439 . S
O341 C342 1.208 . S
C342 O340 1.247 . S
C342 O341 1.208 . S
C343 O348 1.247 . S
C343 O349 1.208 . S
C344 O336 1.315 . S
C344 O339 1.279 . S
C345 O346 1.315 . S
C345 O347 1.279 . S
O346 Cd338 2.223 . S
O346 C345 1.315 . S
O347 Cd337 2.240 . S
O347 C345 1.279 . S
O348 Cd338 2.297 . S
O348 C343 1.247 . S
O349 Cd338 2.439 . S
O349 C343 1.208 . S
O350 Cd351 2.223 . S
O350 C358 1.315 . S
Cd351 O350 2.223 . S
Cd351 O354 2.297 . S
Cd351 O355 2.439 . S
Cd351 O361 2.240 . S
Cd352 O353 2.240 . S
Cd352 O360 2.223 . S
Cd352 O362 2.297 1_556 S
Cd352 O363 2.439 1_556 S
O353 Cd352 2.240 . S
O353 C358 1.279 . S
O354 Cd351 2.297 . S
O354 C356 1.247 . S
O355 Cd351 2.439 . S
O355 C356 1.208 . S
C356 O354 1.247 . S
C356 O355 1.208 . S
C357 O362 1.247 . S
C357 O363 1.208 . S
C358 O350 1.315 . S
C358 O353 1.279 . S
C359 O360 1.315 . S
C359 O361 1.279 . S
O360 Cd352 2.223 . S
O360 C359 1.315 . S
O361 Cd351 2.240 . S
O361 C359 1.279 . S
O362 Cd352 2.297 1_554 S
O362 C357 1.247 . S
O363 Cd352 2.439 1_554 S
O363 C357 1.208 . S
O364 Cd365 2.223 . S
O364 C372 1.315 . S
Cd365 O364 2.223 . S
Cd365 O368 2.297 . S
Cd365 O369 2.439 . S
Cd365 O375 2.240 . S
Cd366 O367 2.240 . S
Cd366 O374 2.223 . S
Cd366 O376 2.297 . S
Cd366 O377 2.439 . S
O367 Cd366 2.240 . S
O367 C372 1.279 . S
O368 Cd365 2.297 . S
O368 C370 1.247 . S
O369 Cd365 2.439 . S
O369 C370 1.208 . S
C370 O368 1.247 . S
C370 O369 1.208 . S
C371 O376 1.247 . S
C371 O377 1.208 . S
C372 O364 1.315 . S
C372 O367 1.279 . S
C373 O374 1.315 . S
C373 O375 1.279 . S
O374 Cd366 2.223 . S
O374 C373 1.315 . S
O375 Cd365 2.240 . S
O375 C373 1.279 . S
O376 Cd366 2.297 . S
O376 C371 1.247 . S
O377 Cd366 2.439 . S
O377 C371 1.208 . S
O378 Cd379 2.223 . S
O378 C386 1.315 . S
Cd379 O378 2.223 . S
Cd379 O382 2.297 . S
Cd379 O383 2.439 . S
Cd379 O389 2.240 . S
Cd380 O381 2.240 . S
Cd380 O388 2.223 . S
Cd380 O390 2.297 . S
Cd380 O391 2.439 . S
O381 Cd380 2.240 . S
O381 C386 1.279 . S
O382 Cd379 2.297 . S
O382 C384 1.247 . S
O383 Cd379 2.439 . S
O383 C384 1.208 . S
C384 O382 1.247 . S
C384 O383 1.208 . S
C385 O390 1.247 . S
C385 O391 1.208 . S
C386 O378 1.315 . S
C386 O381 1.279 . S
C387 O388 1.315 . S
C387 O389 1.279 . S
O388 Cd380 2.223 . S
O388 C387 1.315 . S
O389 Cd379 2.240 . S
O389 C387 1.279 . S
O390 Cd380 2.297 . S
O390 C385 1.247 . S
O391 Cd380 2.439 . S
O391 C385 1.208 . S
O392 Cd393 2.223 . S
O392 C400 1.315 . S
Cd393 O392 2.223 . S
Cd393 O396 2.297 . S
Cd393 O397 2.439 . S
Cd393 O403 2.240 . S
Cd394 O395 2.240 . S
Cd394 O402 2.223 . S
Cd394 O404 2.297 . S
Cd394 O405 2.439 . S
O395 Cd394 2.240 . S
O395 C400 1.279 . S
O396 Cd393 2.297 . S
O396 C398 1.247 . S
O397 Cd393 2.439 . S
O397 C398 1.208 . S
C398 O396 1.247 . S
C398 O397 1.208 . S
C399 O404 1.247 . S
C399 O405 1.208 . S
C400 O392 1.315 . S
C400 O395 1.279 . S
C401 O402 1.315 . S
C401 O403 1.279 . S
O402 Cd394 2.223 . S
O402 C401 1.315 . S
O403 Cd393 2.240 . S
O403 C401 1.279 . S
O404 Cd394 2.297 . S
O404 C399 1.247 . S
O405 Cd394 2.439 . S
O405 C399 1.208 . S
O406 Cd407 2.223 . S
O406 C414 1.315 . S
Cd407 O406 2.223 . S
Cd407 O410 2.297 . S
Cd407 O411 2.439 . S
Cd407 O417 2.240 . S
Cd408 O409 2.240 . S
Cd408 O416 2.223 . S
Cd408 O418 2.297 1_554 S
Cd408 O419 2.439 1_554 S
O409 Cd408 2.240 . S
O409 C414 1.279 . S
O410 Cd407 2.297 . S
O410 C412 1.247 . S
O411 Cd407 2.439 . S
O411 C412 1.208 . S
C412 O410 1.247 . S
C412 O411 1.208 . S
C413 O418 1.247 . S
C413 O419 1.208 . S
C414 O406 1.315 . S
C414 O409 1.279 . S
C415 O416 1.315 . S
C415 O417 1.279 . S
O416 Cd408 2.223 . S
O416 C415 1.315 . S
O417 Cd407 2.240 . S
O417 C415 1.279 . S
O418 Cd408 2.297 1_556 S
O418 C413 1.247 . S
O419 Cd408 2.439 1_556 S
O419 C413 1.208 . S
O420 Cd421 2.223 . S
O420 C428 1.315 . S
Cd421 O420 2.223 . S
Cd421 O424 2.297 . S
Cd421 O425 2.439 . S
Cd421 O431 2.240 . S
Cd422 O423 2.240 . S
Cd422 O430 2.223 . S
Cd422 O432 2.297 . S
Cd422 O433 2.439 . S
O423 Cd422 2.240 . S
O423 C428 1.279 . S
O424 Cd421 2.297 . S
O424 C426 1.247 . S
O425 Cd421 2.439 . S
O425 C426 1.208 . S
C426 O424 1.247 . S
C426 O425 1.208 . S
C427 O432 1.247 . S
C427 O433 1.208 . S
C428 O420 1.315 . S
C428 O423 1.279 . S
C429 O430 1.315 . S
C429 O431 1.279 . S
O430 Cd422 2.223 . S
O430 C429 1.315 . S
O431 Cd421 2.240 . S
O431 C429 1.279 . S
O432 Cd422 2.297 . S
O432 C427 1.247 . S
O433 Cd422 2.439 . S
O433 C427 1.208 . S
O434 Cd435 2.223 . S
O434 C442 1.315 . S
Cd435 O434 2.223 . S
Cd435 O438 2.297 . S
Cd435 O439 2.439 . S
Cd435 O445 2.240 . S
Cd436 O437 2.240 . S
Cd436 O444 2.223 . S
Cd436 O446 2.297 . S
Cd436 O447 2.439 . S
O437 Cd436 2.240 . S
O437 C442 1.279 . S
O438 Cd435 2.297 . S
O438 C440 1.247 . S
O439 Cd435 2.439 . S
O439 C440 1.208 . S
C440 O438 1.247 . S
C440 O439 1.208 . S
C441 O446 1.247 . S
C441 O447 1.208 . S
C442 O434 1.315 . S
C442 O437 1.279 . S
C443 O444 1.315 . S
C443 O445 1.279 . S
O444 Cd436 2.223 . S
O444 C443 1.315 . S
O445 Cd435 2.240 . S
O445 C443 1.279 . S
O446 Cd436 2.297 . S
O446 C441 1.247 . S
O447 Cd436 2.439 . S
O447 C441 1.208 . S
H448 C454 0.930 . S
H449 C457 0.930 . S
H450 C458 0.930 . S
H451 C459 0.930 . S
H452 C462 0.930 . S
H453 C463 0.930 . S
C454 H448 0.930 . S
C454 C455 1.355 . S
C454 C456 1.415 . S
C455 C454 1.355 . S
C455 C457 1.419 . S
C456 C454 1.415 . S
C456 C461 1.425 . S
C456 C463 1.409 . S
C457 H449 0.930 . S
C457 C455 1.419 . S
C457 C458 1.362 . S
C458 H450 0.930 . S
C458 C457 1.362 . S
C458 C461 1.409 . S
C459 H451 0.930 . S
C459 C460 1.355 . S
C459 C461 1.415 . S
C460 C459 1.355 . S
C460 C462 1.419 . S
C461 C456 1.425 . S
C461 C458 1.409 . S
C461 C459 1.415 . S
C462 H452 0.930 . S
C462 C460 1.419 . S
C462 C463 1.362 . S
C463 H453 0.930 . S
C463 C456 1.409 . S
C463 C462 1.362 . S
H464 C470 0.930 . S
H465 C473 0.930 . S
H466 C474 0.930 . S
H467 C475 0.930 . S
H468 C478 0.930 . S
H469 C479 0.930 . S
C470 H464 0.930 . S
C470 C471 1.355 . S
C470 C472 1.415 . S
C471 C470 1.355 . S
C471 C473 1.419 . S
C472 C470 1.415 . S
C472 C477 1.425 . S
C472 C479 1.409 . S
C473 H465 0.930 . S
C473 C471 1.419 . S
C473 C474 1.362 . S
C474 H466 0.930 . S
C474 C473 1.362 . S
C474 C477 1.409 . S
C475 H467 0.930 . S
C475 C476 1.355 . S
C475 C477 1.415 . S
C476 C475 1.355 . S
C476 C478 1.419 . S
C477 C472 1.425 . S
C477 C474 1.409 . S
C477 C475 1.415 . S
C478 H468 0.930 . S
C478 C476 1.419 . S
C478 C479 1.362 . S
C479 H469 0.930 . S
C479 C472 1.409 . S
C479 C478 1.362 . S
H480 C486 0.930 . S
H481 C489 0.930 . S
H482 C490 0.930 . S
H483 C491 0.930 . S
H484 C494 0.930 . S
H485 C495 0.930 . S
C486 H480 0.930 . S
C486 C487 1.355 . S
C486 C488 1.415 . S
C487 C486 1.355 . S
C487 C489 1.419 . S
C488 C486 1.415 . S
C488 C493 1.425 . S
C488 C495 1.409 . S
C489 H481 0.930 . S
C489 C487 1.419 . S
C489 C490 1.362 . S
C490 H482 0.930 . S
C490 C489 1.362 . S
C490 C493 1.409 . S
C491 H483 0.930 . S
C491 C492 1.355 . S
C491 C493 1.415 . S
C492 C491 1.355 . S
C492 C494 1.419 . S
C493 C488 1.425 . S
C493 C490 1.409 . S
C493 C491 1.415 . S
C494 H484 0.930 . S
C494 C492 1.419 . S
C494 C495 1.362 . S
C495 H485 0.930 . S
C495 C488 1.409 . S
C495 C494 1.362 . S
H496 C502 0.930 . S
H497 C505 0.930 . S
H498 C506 0.930 . S
H499 C507 0.930 . S
H500 C510 0.930 . S
H501 C511 0.930 . S
C502 H496 0.930 . S
C502 C503 1.355 . S
C502 C504 1.415 . S
C503 C502 1.355 . S
C503 C505 1.419 . S
C504 C502 1.415 . S
C504 C509 1.425 . S
C504 C511 1.409 . S
C505 H497 0.930 . S
C505 C503 1.419 . S
C505 C506 1.362 . S
C506 H498 0.930 . S
C506 C505 1.362 . S
C506 C509 1.409 . S
C507 H499 0.930 . S
C507 C508 1.355 . S
C507 C509 1.415 . S
C508 C507 1.355 . S
C508 C510 1.419 . S
C509 C504 1.425 . S
C509 C506 1.409 . S
C509 C507 1.415 . S
C510 H500 0.930 . S
C510 C508 1.419 . S
C510 C511 1.362 . S
C511 H501 0.930 . S
C511 C504 1.409 . S
C511 C510 1.362 . S
H512 C518 0.930 . S
H513 C521 0.930 . S
H514 C522 0.930 . S
H515 C523 0.930 . S
H516 C526 0.930 . S
H517 C527 0.930 . S
C518 H512 0.930 . S
C518 C519 1.355 . S
C518 C520 1.415 . S
C519 C518 1.355 . S
C519 C521 1.419 . S
C520 C518 1.415 . S
C520 C525 1.425 . S
C520 C527 1.409 . S
C521 H513 0.930 . S
C521 C519 1.419 . S
C521 C522 1.362 . S
C522 H514 0.930 . S
C522 C521 1.362 . S
C522 C525 1.409 . S
C523 H515 0.930 . S
C523 C524 1.355 . S
C523 C525 1.415 . S
C524 C523 1.355 . S
C524 C526 1.419 . S
C525 C520 1.425 . S
C525 C522 1.409 . S
C525 C523 1.415 . S
C526 H516 0.930 . S
C526 C524 1.419 . S
C526 C527 1.362 . S
C527 H517 0.930 . S
C527 C520 1.409 . S
C527 C526 1.362 . S
H528 C534 0.930 . S
H529 C537 0.930 . S
H530 C538 0.930 . S
H531 C539 0.930 . S
H532 C542 0.930 . S
H533 C543 0.930 . S
C534 H528 0.930 . S
C534 C535 1.355 . S
C534 C536 1.415 . S
C535 C534 1.355 . S
C535 C537 1.419 . S
C536 C534 1.415 . S
C536 C541 1.425 . S
C536 C543 1.409 . S
C537 H529 0.930 . S
C537 C535 1.419 . S
C537 C538 1.362 . S
C538 H530 0.930 . S
C538 C537 1.362 . S
C538 C541 1.409 . S
C539 H531 0.930 . S
C539 C540 1.355 . S
C539 C541 1.415 . S
C540 C539 1.355 . S
C540 C542 1.419 . S
C541 C536 1.425 . S
C541 C538 1.409 . S
C541 C539 1.415 . S
C542 H532 0.930 . S
C542 C540 1.419 . S
C542 C543 1.362 . S
C543 H533 0.930 . S
C543 C536 1.409 . S
C543 C542 1.362 . S
H544 C550 0.930 . S
H545 C553 0.930 . S
H546 C554 0.930 . S
H547 C555 0.930 . S
H548 C558 0.930 . S
H549 C559 0.930 . S
C550 H544 0.930 . S
C550 C551 1.355 . S
C550 C552 1.415 . S
C551 C550 1.355 . S
C551 C553 1.419 . S
C552 C550 1.415 . S
C552 C557 1.425 . S
C552 C559 1.409 . S
C553 H545 0.930 . S
C553 C551 1.419 . S
C553 C554 1.362 . S
C554 H546 0.930 . S
C554 C553 1.362 . S
C554 C557 1.409 . S
C555 H547 0.930 . S
C555 C556 1.355 . S
C555 C557 1.415 . S
C556 C555 1.355 . S
C556 C558 1.419 . S
C557 C552 1.425 . S
C557 C554 1.409 . S
C557 C555 1.415 . S
C558 H548 0.930 . S
C558 C556 1.419 . S
C558 C559 1.362 . S
C559 H549 0.930 . S
C559 C552 1.409 . S
C559 C558 1.362 . S
H560 C566 0.930 . S
H561 C569 0.930 . S
H562 C570 0.930 . S
H563 C571 0.930 . S
H564 C574 0.930 . S
H565 C575 0.930 . S
C566 H560 0.930 . S
C566 C567 1.355 . S
C566 C568 1.415 . S
C567 C566 1.355 . S
C567 C569 1.419 . S
C568 C566 1.415 . S
C568 C573 1.425 . S
C568 C575 1.409 . S
C569 H561 0.930 . S
C569 C567 1.419 . S
C569 C570 1.362 . S
C570 H562 0.930 . S
C570 C569 1.362 . S
C570 C573 1.409 . S
C571 H563 0.930 . S
C571 C572 1.355 . S
C571 C573 1.415 . S
C572 C571 1.355 . S
C572 C574 1.419 . S
C573 C568 1.425 . S
C573 C570 1.409 . S
C573 C571 1.415 . S
C574 H564 0.930 . S
C574 C572 1.419 . S
C574 C575 1.362 . S
C575 H565 0.930 . S
C575 C568 1.409 . S
C575 C574 1.362 . S
H576 C582 0.930 . S
H577 C585 0.930 . S
H578 C586 0.930 . S
H579 C587 0.930 . S
H580 C590 0.930 . S
H581 C591 0.930 . S
C582 H576 0.930 . S
C582 C583 1.355 . S
C582 C584 1.415 . S
C583 C582 1.355 . S
C583 C585 1.419 . S
C584 C582 1.415 . S
C584 C589 1.425 . S
C584 C591 1.409 . S
C585 H577 0.930 . S
C585 C583 1.419 . S
C585 C586 1.362 . S
C586 H578 0.930 . S
C586 C585 1.362 . S
C586 C589 1.409 . S
C587 H579 0.930 . S
C587 C588 1.355 . S
C587 C589 1.415 . S
C588 C587 1.355 . S
C588 C590 1.419 . S
C589 C584 1.425 . S
C589 C586 1.409 . S
C589 C587 1.415 . S
C590 H580 0.930 . S
C590 C588 1.419 . S
C590 C591 1.362 . S
C591 H581 0.930 . S
C591 C584 1.409 . S
C591 C590 1.362 . S
H592 C598 0.930 . S
H593 C601 0.930 . S
H594 C602 0.930 . S
H595 C603 0.930 . S
H596 C606 0.930 . S
H597 C607 0.930 . S
C598 H592 0.930 . S
C598 C599 1.355 . S
C598 C600 1.415 . S
C599 C598 1.355 . S
C599 C601 1.419 . S
C600 C598 1.415 . S
C600 C605 1.425 . S
C600 C607 1.409 . S
C601 H593 0.930 . S
C601 C599 1.419 . S
C601 C602 1.362 . S
C602 H594 0.930 . S
C602 C601 1.362 . S
C602 C605 1.409 . S
C603 H595 0.930 . S
C603 C604 1.355 . S
C603 C605 1.415 . S
C604 C603 1.355 . S
C604 C606 1.419 . S
C605 C600 1.425 . S
C605 C602 1.409 . S
C605 C603 1.415 . S
C606 H596 0.930 . S
C606 C604 1.419 . S
C606 C607 1.362 . S
C607 H597 0.930 . S
C607 C600 1.409 . S
C607 C606 1.362 . S
H608 C614 0.930 . S
H609 C617 0.930 . S
H610 C618 0.930 . S
H611 C619 0.930 . S
H612 C622 0.930 . S
H613 C623 0.930 . S
C614 H608 0.930 . S
C614 C615 1.355 . S
C614 C616 1.415 . S
C615 C614 1.355 . S
C615 C617 1.419 . S
C616 C614 1.415 . S
C616 C621 1.425 . S
C616 C623 1.409 . S
C617 H609 0.930 . S
C617 C615 1.419 . S
C617 C618 1.362 . S
C618 H610 0.930 . S
C618 C617 1.362 . S
C618 C621 1.409 . S
C619 H611 0.930 . S
C619 C620 1.355 . S
C619 C621 1.415 . S
C620 C619 1.355 . S
C620 C622 1.419 . S
C621 C616 1.425 . S
C621 C618 1.409 . S
C621 C619 1.415 . S
C622 H612 0.930 . S
C622 C620 1.419 . S
C622 C623 1.362 . S
C623 H613 0.930 . S
C623 C616 1.409 . S
C623 C622 1.362 . S
H624 C630 0.930 . S
H625 C633 0.930 . S
H626 C634 0.930 . S
H627 C635 0.930 . S
H628 C638 0.930 . S
H629 C639 0.930 . S
C630 H624 0.930 . S
C630 C631 1.355 . S
C630 C632 1.415 . S
C631 C630 1.355 . S
C631 C633 1.419 . S
C632 C630 1.415 . S
C632 C637 1.425 . S
C632 C639 1.409 . S
C633 H625 0.930 . S
C633 C631 1.419 . S
C633 C634 1.362 . S
C634 H626 0.930 . S
C634 C633 1.362 . S
C634 C637 1.409 . S
C635 H627 0.930 . S
C635 C636 1.355 . S
C635 C637 1.415 . S
C636 C635 1.355 . S
C636 C638 1.419 . S
C637 C632 1.425 . S
C637 C634 1.409 . S
C637 C635 1.415 . S
C638 H628 0.930 . S
C638 C636 1.419 . S
C638 C639 1.362 . S
C639 H629 0.930 . S
C639 C632 1.409 . S
C639 C638 1.362 . S
H640 C646 0.930 . S
H641 C649 0.930 . S
H642 C650 0.930 . S
H643 C651 0.930 . S
H644 C654 0.930 . S
H645 C655 0.930 . S
C646 H640 0.930 . S
C646 C647 1.355 . S
C646 C648 1.415 . S
C647 C646 1.355 . S
C647 C649 1.419 . S
C648 C646 1.415 . S
C648 C653 1.425 . S
C648 C655 1.409 . S
C649 H641 0.930 . S
C649 C647 1.419 . S
C649 C650 1.362 . S
C650 H642 0.930 . S
C650 C649 1.362 . S
C650 C653 1.409 . S
C651 H643 0.930 . S
C651 C652 1.355 . S
C651 C653 1.415 . S
C652 C651 1.355 . S
C652 C654 1.419 . S
C653 C648 1.425 . S
C653 C650 1.409 . S
C653 C651 1.415 . S
C654 H644 0.930 . S
C654 C652 1.419 . S
C654 C655 1.362 . S
C655 H645 0.930 . S
C655 C648 1.409 . S
C655 C654 1.362 . S
H656 C662 0.930 . S
H657 C665 0.930 . S
H658 C666 0.930 . S
H659 C667 0.930 . S
H660 C670 0.930 . S
H661 C671 0.930 . S
C662 H656 0.930 . S
C662 C663 1.355 . S
C662 C664 1.415 . S
C663 C662 1.355 . S
C663 C665 1.419 . S
C664 C662 1.415 . S
C664 C669 1.425 . S
C664 C671 1.409 . S
C665 H657 0.930 . S
C665 C663 1.419 . S
C665 C666 1.362 . S
C666 H658 0.930 . S
C666 C665 1.362 . S
C666 C669 1.409 . S
C667 H659 0.930 . S
C667 C668 1.355 . S
C667 C669 1.415 . S
C668 C667 1.355 . S
C668 C670 1.419 . S
C669 C664 1.425 . S
C669 C666 1.409 . S
C669 C667 1.415 . S
C670 H660 0.930 . S
C670 C668 1.419 . S
C670 C671 1.362 . S
C671 H661 0.930 . S
C671 C664 1.409 . S
C671 C670 1.362 . S
H672 C678 0.930 . S
H673 C681 0.930 . S
H674 C682 0.930 . S
H675 C683 0.930 . S
H676 C686 0.930 . S
H677 C687 0.930 . S
C678 H672 0.930 . S
C678 C679 1.355 . S
C678 C680 1.415 . S
C679 C678 1.355 . S
C679 C681 1.419 . S
C680 C678 1.415 . S
C680 C685 1.425 . S
C680 C687 1.409 . S
C681 H673 0.930 . S
C681 C679 1.419 . S
C681 C682 1.362 . S
C682 H674 0.930 . S
C682 C681 1.362 . S
C682 C685 1.409 . S
C683 H675 0.930 . S
C683 C684 1.355 . S
C683 C685 1.415 . S
C684 C683 1.355 . S
C684 C686 1.419 . S
C685 C680 1.425 . S
C685 C682 1.409 . S
C685 C683 1.415 . S
C686 H676 0.930 . S
C686 C684 1.419 . S
C686 C687 1.362 . S
C687 H677 0.930 . S
C687 C680 1.409 . S
C687 C686 1.362 . S
H688 C694 0.930 . S
H689 C697 0.930 . S
H690 C698 0.930 . S
H691 C699 0.930 . S
H692 C702 0.930 1_455 S
H693 C703 0.930 . S
C694 H688 0.930 . S
C694 C695 1.355 . S
C694 C696 1.415 . S
C695 C694 1.355 . S
C695 C697 1.419 . S
C696 C694 1.415 . S
C696 C701 1.425 . S
C696 C703 1.409 . S
C697 H689 0.930 . S
C697 C695 1.419 . S
C697 C698 1.362 . S
C698 H690 0.930 . S
C698 C697 1.362 . S
C698 C701 1.409 . S
C699 H691 0.930 . S
C699 C700 1.355 . S
C699 C701 1.415 . S
C700 C699 1.355 . S
C700 C702 1.419 . S
C701 C696 1.425 . S
C701 C698 1.409 . S
C701 C699 1.415 . S
C702 H692 0.930 1_655 S
C702 C700 1.419 . S
C702 C703 1.362 . S
C703 H693 0.930 . S
C703 C696 1.409 . S
C703 C702 1.362 . S
H704 C710 0.930 . S
H705 C713 0.930 . S
H706 C714 0.930 . S
H707 C715 0.930 . S
H708 C718 0.930 . S
H709 C719 0.930 . S
C710 H704 0.930 . S
C710 C711 1.355 . S
C710 C712 1.415 . S
C711 C710 1.355 . S
C711 C713 1.419 . S
C712 C710 1.415 . S
C712 C717 1.425 . S
C712 C719 1.409 . S
C713 H705 0.930 . S
C713 C711 1.419 . S
C713 C714 1.362 . S
C714 H706 0.930 . S
C714 C713 1.362 . S
C714 C717 1.409 . S
C715 H707 0.930 . S
C715 C716 1.355 . S
C715 C717 1.415 . S
C716 C715 1.355 . S
C716 C718 1.419 . S
C717 C712 1.425 . S
C717 C714 1.409 . S
C717 C715 1.415 . S
C718 H708 0.930 . S
C718 C716 1.419 . S
C718 C719 1.362 . S
C719 H709 0.930 . S
C719 C712 1.409 . S
C719 C718 1.362 . S
H720 C726 0.930 . S
H721 C729 0.930 . S
H722 C730 0.930 . S
H723 C731 0.930 . S
H724 C734 0.930 . S
H725 C735 0.930 . S
C726 H720 0.930 . S
C726 C727 1.355 . S
C726 C728 1.415 . S
C727 C726 1.355 . S
C727 C729 1.419 . S
C728 C726 1.415 . S
C728 C733 1.425 . S
C728 C735 1.409 . S
C729 H721 0.930 . S
C729 C727 1.419 . S
C729 C730 1.362 . S
C730 H722 0.930 . S
C730 C729 1.362 . S
C730 C733 1.409 . S
C731 H723 0.930 . S
C731 C732 1.355 . S
C731 C733 1.415 . S
C732 C731 1.355 . S
C732 C734 1.419 . S
C733 C728 1.425 . S
C733 C730 1.409 . S
C733 C731 1.415 . S
C734 H724 0.930 . S
C734 C732 1.419 . S
C734 C735 1.362 . S
C735 H725 0.930 . S
C735 C728 1.409 . S
C735 C734 1.362 . S
H736 C742 0.930 . S
H737 C745 0.930 . S
H738 C746 0.930 . S
H739 C747 0.930 . S
H740 C750 0.930 . S
H741 C751 0.930 . S
C742 H736 0.930 . S
C742 C743 1.355 . S
C742 C744 1.415 . S
C743 C742 1.355 . S
C743 C745 1.419 . S
C744 C742 1.415 . S
C744 C749 1.425 . S
C744 C751 1.409 . S
C745 H737 0.930 . S
C745 C743 1.419 . S
C745 C746 1.362 . S
C746 H738 0.930 . S
C746 C745 1.362 . S
C746 C749 1.409 . S
C747 H739 0.930 . S
C747 C748 1.355 . S
C747 C749 1.415 . S
C748 C747 1.355 . S
C748 C750 1.419 . S
C749 C744 1.425 . S
C749 C746 1.409 . S
C749 C747 1.415 . S
C750 H740 0.930 . S
C750 C748 1.419 . S
C750 C751 1.362 . S
C751 H741 0.930 . S
C751 C744 1.409 . S
C751 C750 1.362 . S
H752 C758 0.930 . S
H753 C761 0.930 . S
H754 C762 0.930 . S
H755 C763 0.930 . S
H756 C766 0.930 . S
H757 C767 0.930 . S
C758 H752 0.930 . S
C758 C759 1.355 . S
C758 C760 1.415 . S
C759 C758 1.355 . S
C759 C761 1.419 . S
C760 C758 1.415 . S
C760 C765 1.425 . S
C760 C767 1.409 . S
C761 H753 0.930 . S
C761 C759 1.419 . S
C761 C762 1.362 . S
C762 H754 0.930 . S
C762 C761 1.362 . S
C762 C765 1.409 . S
C763 H755 0.930 . S
C763 C764 1.355 . S
C763 C765 1.415 . S
C764 C763 1.355 . S
C764 C766 1.419 . S
C765 C760 1.425 . S
C765 C762 1.409 . S
C765 C763 1.415 . S
C766 H756 0.930 . S
C766 C764 1.419 . S
C766 C767 1.362 . S
C767 H757 0.930 . S
C767 C760 1.409 . S
C767 C766 1.362 . S
H768 C774 0.930 . S
H769 C777 0.930 . S
H770 C778 0.930 . S
H771 C779 0.930 . S
H772 C782 0.930 . S
H773 C783 0.930 . S
C774 H768 0.930 . S
C774 C775 1.355 . S
C774 C776 1.415 . S
C775 C774 1.355 . S
C775 C777 1.419 . S
C776 C774 1.415 . S
C776 C781 1.425 . S
C776 C783 1.409 . S
C777 H769 0.930 . S
C777 C775 1.419 . S
C777 C778 1.362 . S
C778 H770 0.930 . S
C778 C777 1.362 . S
C778 C781 1.409 . S
C779 H771 0.930 . S
C779 C780 1.355 . S
C779 C781 1.415 . S
C780 C779 1.355 . S
C780 C782 1.419 . S
C781 C776 1.425 . S
C781 C778 1.409 . S
C781 C779 1.415 . S
C782 H772 0.930 . S
C782 C780 1.419 . S
C782 C783 1.362 . S
C783 H773 0.930 . S
C783 C776 1.409 . S
C783 C782 1.362 . S
H784 C790 0.930 . S
H785 C793 0.930 . S
H786 C794 0.930 . S
H787 C795 0.930 . S
H788 C798 0.930 . S
H789 C799 0.930 . S
C790 H784 0.930 . S
C790 C791 1.355 . S
C790 C792 1.415 . S
C791 C790 1.355 . S
C791 C793 1.419 . S
C792 C790 1.415 . S
C792 C797 1.425 . S
C792 C799 1.409 . S
C793 H785 0.930 . S
C793 C791 1.419 . S
C793 C794 1.362 . S
C794 H786 0.930 . S
C794 C793 1.362 . S
C794 C797 1.409 . S
C795 H787 0.930 . S
C795 C796 1.355 . S
C795 C797 1.415 . S
C796 C795 1.355 . S
C796 C798 1.419 . S
C797 C792 1.425 . S
C797 C794 1.409 . S
C797 C795 1.415 . S
C798 H788 0.930 . S
C798 C796 1.419 . S
C798 C799 1.362 . S
C799 H789 0.930 . S
C799 C792 1.409 . S
C799 C798 1.362 . S
H800 C806 0.930 . S
H801 C809 0.930 . S
H802 C810 0.930 . S
H803 C811 0.930 . S
H804 C814 0.930 . S
H805 C815 0.930 . S
C806 H800 0.930 . S
C806 C807 1.355 . S
C806 C808 1.415 . S
C807 C806 1.355 . S
C807 C809 1.419 . S
C808 C806 1.415 . S
C808 C813 1.425 . S
C808 C815 1.409 . S
C809 H801 0.930 . S
C809 C807 1.419 . S
C809 C810 1.362 . S
C810 H802 0.930 . S
C810 C809 1.362 . S
C810 C813 1.409 . S
C811 H803 0.930 . S
C811 C812 1.355 . S
C811 C813 1.415 . S
C812 C811 1.355 . S
C812 C814 1.419 . S
C813 C808 1.425 . S
C813 C810 1.409 . S
C813 C811 1.415 . S
C814 H804 0.930 . S
C814 C812 1.419 . S
C814 C815 1.362 . S
C815 H805 0.930 . S
C815 C808 1.409 . S
C815 C814 1.362 . S
H816 C822 0.930 . S
H817 C825 0.930 . S
H818 C826 0.930 . S
H819 C827 0.930 . S
H820 C830 0.930 . S
H821 C831 0.930 . S
C822 H816 0.930 . S
C822 C823 1.355 . S
C822 C824 1.415 . S
C823 C822 1.355 . S
C823 C825 1.419 . S
C824 C822 1.415 . S
C824 C829 1.425 . S
C824 C831 1.409 . S
C825 H817 0.930 . S
C825 C823 1.419 . S
C825 C826 1.362 . S
C826 H818 0.930 . S
C826 C825 1.362 . S
C826 C829 1.409 . S
C827 H819 0.930 . S
C827 C828 1.355 . S
C827 C829 1.415 . S
C828 C827 1.355 . S
C828 C830 1.419 . S
C829 C824 1.425 . S
C829 C826 1.409 . S
C829 C827 1.415 . S
C830 H820 0.930 . S
C830 C828 1.419 . S
C830 C831 1.362 . S
C831 H821 0.930 . S
C831 C824 1.409 . S
C831 C830 1.362 . S
H832 C838 0.930 . S
H833 C841 0.930 . S
H834 C842 0.930 . S
H835 C843 0.930 . S
H836 C846 0.930 . S
H837 C847 0.930 . S
C838 H832 0.930 . S
C838 C839 1.355 . S
C838 C840 1.415 . S
C839 C838 1.355 . S
C839 C841 1.419 . S
C840 C838 1.415 . S
C840 C845 1.425 . S
C840 C847 1.409 . S
C841 H833 0.930 . S
C841 C839 1.419 . S
C841 C842 1.362 . S
C842 H834 0.930 . S
C842 C841 1.362 . S
C842 C845 1.409 . S
C843 H835 0.930 . S
C843 C844 1.355 . S
C843 C845 1.415 . S
C844 C843 1.355 . S
C844 C846 1.419 . S
C845 C840 1.425 . S
C845 C842 1.409 . S
C845 C843 1.415 . S
C846 H836 0.930 . S
C846 C844 1.419 . S
C846 C847 1.362 . S
C847 H837 0.930 . S
C847 C840 1.409 . S
C847 C846 1.362 . S
H848 C854 0.930 . S
H849 C857 0.930 . S
H850 C858 0.930 . S
H851 C859 0.930 . S
H852 C862 0.930 . S
H853 C863 0.930 . S
C854 H848 0.930 . S
C854 C855 1.355 . S
C854 C856 1.415 . S
C855 C854 1.355 . S
C855 C857 1.419 . S
C856 C854 1.415 . S
C856 C861 1.425 . S
C856 C863 1.409 . S
C857 H849 0.930 . S
C857 C855 1.419 . S
C857 C858 1.362 . S
C858 H850 0.930 . S
C858 C857 1.362 . S
C858 C861 1.409 . S
C859 H851 0.930 . S
C859 C860 1.355 . S
C859 C861 1.415 . S
C860 C859 1.355 . S
C860 C862 1.419 . S
C861 C856 1.425 . S
C861 C858 1.409 . S
C861 C859 1.415 . S
C862 H852 0.930 . S
C862 C860 1.419 . S
C862 C863 1.362 . S
C863 H853 0.930 . S
C863 C856 1.409 . S
C863 C862 1.362 . S
H864 C870 0.930 . S
H865 C873 0.930 . S
H866 C874 0.930 . S
H867 C875 0.930 . S
H868 C878 0.930 . S
H869 C879 0.930 . S
C870 H864 0.930 . S
C870 C871 1.355 . S
C870 C872 1.415 . S
C871 C870 1.355 . S
C871 C873 1.419 . S
C872 C870 1.415 . S
C872 C877 1.425 . S
C872 C879 1.409 . S
C873 H865 0.930 . S
C873 C871 1.419 . S
C873 C874 1.362 . S
C874 H866 0.930 . S
C874 C873 1.362 . S
C874 C877 1.409 . S
C875 H867 0.930 . S
C875 C876 1.355 . S
C875 C877 1.415 . S
C876 C875 1.355 . S
C876 C878 1.419 . S
C877 C872 1.425 . S
C877 C874 1.409 . S
C877 C875 1.415 . S
C878 H868 0.930 . S
C878 C876 1.419 . S
C878 C879 1.362 . S
C879 H869 0.930 . S
C879 C872 1.409 . S
C879 C878 1.362 . S
H880 C886 0.930 . S
H881 C889 0.930 . S
H882 C890 0.930 . S
H883 C891 0.930 . S
H884 C894 0.930 . S
H885 C895 0.930 . S
C886 H880 0.930 . S
C886 C887 1.355 . S
C886 C888 1.415 . S
C887 C886 1.355 . S
C887 C889 1.419 . S
C888 C886 1.415 . S
C888 C893 1.425 . S
C888 C895 1.409 . S
C889 H881 0.930 . S
C889 C887 1.419 . S
C889 C890 1.362 . S
C890 H882 0.930 . S
C890 C889 1.362 . S
C890 C893 1.409 . S
C891 H883 0.930 . S
C891 C892 1.355 . S
C891 C893 1.415 . S
C892 C891 1.355 . S
C892 C894 1.419 . S
C893 C888 1.425 . S
C893 C890 1.409 . S
C893 C891 1.415 . S
C894 H884 0.930 . S
C894 C892 1.419 . S
C894 C895 1.362 . S
C895 H885 0.930 . S
C895 C888 1.409 . S
C895 C894 1.362 . S
H896 C902 0.930 . S
H897 C905 0.930 . S
H898 C906 0.930 . S
H899 C907 0.930 . S
H900 C910 0.930 . S
H901 C911 0.930 . S
C902 H896 0.930 . S
C902 C903 1.355 . S
C902 C904 1.415 . S
C903 C902 1.355 . S
C903 C905 1.419 . S
C904 C902 1.415 . S
C904 C909 1.425 . S
C904 C911 1.409 . S
C905 H897 0.930 . S
C905 C903 1.419 . S
C905 C906 1.362 . S
C906 H898 0.930 . S
C906 C905 1.362 . S
C906 C909 1.409 . S
C907 H899 0.930 . S
C907 C908 1.355 . S
C907 C909 1.415 . S
C908 C907 1.355 . S
C908 C910 1.419 . S
C909 C904 1.425 . S
C909 C906 1.409 . S
C909 C907 1.415 . S
C910 H900 0.930 . S
C910 C908 1.419 . S
C910 C911 1.362 . S
C911 H901 0.930 . S
C911 C904 1.409 . S
C911 C910 1.362 . S
H912 C918 0.930 . S
H913 C921 0.930 . S
H914 C922 0.930 . S
H915 C923 0.930 . S
H916 C926 0.930 . S
H917 C927 0.930 . S
C918 H912 0.930 . S
C918 C919 1.355 . S
C918 C920 1.415 . S
C919 C918 1.355 . S
C919 C921 1.419 . S
C920 C918 1.415 . S
C920 C925 1.425 . S
C920 C927 1.409 . S
C921 H913 0.930 . S
C921 C919 1.419 . S
C921 C922 1.362 . S
C922 H914 0.930 . S
C922 C921 1.362 . S
C922 C925 1.409 . S
C923 H915 0.930 . S
C923 C924 1.355 . S
C923 C925 1.415 . S
C924 C923 1.355 . S
C924 C926 1.419 . S
C925 C920 1.425 . S
C925 C922 1.409 . S
C925 C923 1.415 . S
C926 H916 0.930 . S
C926 C924 1.419 . S
C926 C927 1.362 . S
C927 H917 0.930 . S
C927 C920 1.409 . S
C927 C926 1.362 . S
H928 C934 0.930 . S
H929 C937 0.930 . S
H930 C938 0.930 . S
H931 C939 0.930 . S
H932 C942 0.930 . S
H933 C943 0.930 . S
C934 H928 0.930 . S
C934 C935 1.355 . S
C934 C936 1.415 . S
C935 C934 1.355 . S
C935 C937 1.419 . S
C936 C934 1.415 . S
C936 C941 1.425 . S
C936 C943 1.409 . S
C937 H929 0.930 . S
C937 C935 1.419 . S
C937 C938 1.362 . S
C938 H930 0.930 . S
C938 C937 1.362 . S
C938 C941 1.409 . S
C939 H931 0.930 . S
C939 C940 1.355 . S
C939 C941 1.415 . S
C940 C939 1.355 . S
C940 C942 1.419 . S
C941 C936 1.425 . S
C941 C938 1.409 . S
C941 C939 1.415 . S
C942 H932 0.930 . S
C942 C940 1.419 . S
C942 C943 1.362 . S
C943 H933 0.930 . S
C943 C936 1.409 . S
C943 C942 1.362 . S
H944 C950 0.930 . S
H945 C953 0.930 . S
H946 C954 0.930 . S
H947 C955 0.930 . S
H948 C958 0.930 . S
H949 C959 0.930 . S
C950 H944 0.930 . S
C950 C951 1.355 . S
C950 C952 1.415 . S
C951 C950 1.355 . S
C951 C953 1.419 . S
C952 C950 1.415 . S
C952 C957 1.425 . S
C952 C959 1.409 . S
C953 H945 0.930 . S
C953 C951 1.419 . S
C953 C954 1.362 . S
C954 H946 0.930 . S
C954 C953 1.362 . S
C954 C957 1.409 . S
C955 H947 0.930 . S
C955 C956 1.355 . S
C955 C957 1.415 . S
C956 C955 1.355 . S
C956 C958 1.419 . S
C957 C952 1.425 . S
C957 C954 1.409 . S
C957 C955 1.415 . S
C958 H948 0.930 . S
C958 C956 1.419 . S
C958 C959 1.362 . S
C959 H949 0.930 . S
C959 C952 1.409 . S
C959 C958 1.362 . S
H960 C966 0.930 . S
H961 C969 0.930 . S
H962 C970 0.930 . S
H963 C971 0.930 . S
H964 C974 0.930 . S
H965 C975 0.930 . S
C966 H960 0.930 . S
C966 C967 1.355 . S
C966 C968 1.415 . S
C967 C966 1.355 . S
C967 C969 1.419 . S
C968 C966 1.415 . S
C968 C973 1.425 . S
C968 C975 1.409 . S
C969 H961 0.930 . S
C969 C967 1.419 . S
C969 C970 1.362 . S
C970 H962 0.930 . S
C970 C969 1.362 . S
C970 C973 1.409 . S
C971 H963 0.930 . S
C971 C972 1.355 . S
C971 C973 1.415 . S
C972 C971 1.355 . S
C972 C974 1.419 . S
C973 C968 1.425 . S
C973 C970 1.409 . S
C973 C971 1.415 . S
C974 H964 0.930 . S
C974 C972 1.419 . S
C974 C975 1.362 . S
C975 H965 0.930 . S
C975 C968 1.409 . S
C975 C974 1.362 . S
H976 C982 0.930 . S
H977 C985 0.930 . S
H978 C986 0.930 . S
H979 C987 0.930 . S
H980 C990 0.930 . S
H981 C991 0.930 . S
C982 H976 0.930 . S
C982 C983 1.355 . S
C982 C984 1.378 1_565 S
C983 C982 1.355 . S
C983 C985 1.419 1_655 S
C984 C982 1.378 1_545 S
C984 C989 1.421 1_645 S
C984 C991 1.451 . S
C985 H977 0.930 . S
C985 C983 1.419 1_455 S
C985 C986 1.362 . S
C986 H978 0.930 . S
C986 C985 1.362 . S
C986 C989 1.451 . S
C987 H979 0.930 . S
C987 C988 1.355 . S
C987 C989 1.378 1_545 S
C988 C987 1.355 . S
C988 C990 1.419 1_455 S
C989 C984 1.421 1_465 S
C989 C986 1.451 . S
C989 C987 1.378 1_565 S
C990 H980 0.930 . S
C990 C988 1.419 1_655 S
C990 C991 1.362 . S
C991 H981 0.930 . S
C991 C984 1.451 . S
C991 C990 1.362 . S
H992 C998 0.930 . S
H993 C1001 0.930 . S
H994 C1002 0.930 . S
H995 C1003 0.930 . S
H996 C1006 0.930 . S
H997 C1007 0.930 . S
C998 H992 0.930 . S
C998 C999 1.355 . S
C998 C1000 1.415 . S
C999 C998 1.355 . S
C999 C1001 1.419 . S
C1000 C998 1.415 . S
C1000 C1005 1.425 . S
C1000 C1007 1.409 . S
C1001 H993 0.930 . S
C1001 C999 1.419 . S
C1001 C1002 1.362 . S
C1002 H994 0.930 . S
C1002 C1001 1.362 . S
C1002 C1005 1.409 . S
C1003 H995 0.930 . S
C1003 C1004 1.355 . S
C1003 C1005 1.415 . S
C1004 C1003 1.355 . S
C1004 C1006 1.419 . S
C1005 C1000 1.425 . S
C1005 C1002 1.409 . S
C1005 C1003 1.415 . S
C1006 H996 0.930 . S
C1006 C1004 1.419 . S
C1006 C1007 1.362 . S
C1007 H997 0.930 . S
C1007 C1000 1.409 . S
C1007 C1006 1.362 . S
H1008 C1014 0.930 . S
H1009 C1017 0.930 . S
H1010 C1018 0.930 . S
H1011 C1019 0.930 . S
H1012 C1022 0.930 . S
H1013 C1023 0.930 . S
C1014 H1008 0.930 . S
C1014 C1015 1.355 . S
C1014 C1016 1.425 . S
C1015 C1014 1.355 . S
C1015 C1017 1.419 1_554 S
C1016 C1014 1.425 . S
C1016 C1021 1.425 1_544 S
C1016 C1023 1.399 1_545 S
C1017 H1009 0.930 . S
C1017 C1015 1.419 1_556 S
C1017 C1018 1.362 . S
C1018 H1010 0.930 . S
C1018 C1017 1.362 . S
C1018 C1021 1.399 1_545 S
C1019 H1011 0.930 . S
C1019 C1020 1.355 . S
C1019 C1021 1.425 . S
C1020 C1019 1.355 . S
C1020 C1022 1.419 1_556 S
C1021 C1016 1.425 1_566 S
C1021 C1018 1.399 1_565 S
C1021 C1019 1.425 . S
C1022 H1012 0.930 . S
C1022 C1020 1.419 1_554 S
C1022 C1023 1.362 . S
C1023 H1013 0.930 . S
C1023 C1016 1.399 1_565 S
C1023 C1022 1.362 . S
H1024 C1030 0.930 . S
H1025 C1033 0.930 . S
H1026 C1034 0.930 . S
H1027 C1035 0.930 . S
H1028 C1038 0.930 . S
H1029 C1039 0.930 . S
C1030 H1024 0.930 . S
C1030 C1031 1.355 . S
C1030 C1032 1.415 . S
C1031 C1030 1.355 . S
C1031 C1033 1.419 . S
C1032 C1030 1.415 . S
C1032 C1037 1.425 . S
C1032 C1039 1.409 . S
C1033 H1025 0.930 . S
C1033 C1031 1.419 . S
C1033 C1034 1.362 . S
C1034 H1026 0.930 . S
C1034 C1033 1.362 . S
C1034 C1037 1.409 . S
C1035 H1027 0.930 . S
C1035 C1036 1.355 . S
C1035 C1037 1.415 . S
C1036 C1035 1.355 . S
C1036 C1038 1.419 . S
C1037 C1032 1.425 . S
C1037 C1034 1.409 . S
C1037 C1035 1.415 . S
C1038 H1028 0.930 . S
C1038 C1036 1.419 . S
C1038 C1039 1.362 . S
C1039 H1029 0.930 . S
C1039 C1032 1.409 . S
C1039 C1038 1.362 . S
H1040 C1046 0.930 . S
H1041 C1049 0.930 . S
H1042 C1050 0.927 1_545 S
H1043 C1051 0.930 . S
H1044 C1054 0.930 . S
H1045 C1055 0.927 1_565 S
C1046 H1040 0.930 . S
C1046 C1047 1.355 . S
C1046 C1048 1.415 . S
C1047 C1046 1.355 . S
C1047 C1049 1.419 . S
C1048 C1046 1.415 . S
C1048 C1053 1.425 1_565 S
C1048 C1055 1.407 1_565 S
C1049 H1041 0.930 . S
C1049 C1047 1.419 . S
C1049 C1050 1.368 . S
C1050 H1042 0.927 1_565 S
C1050 C1049 1.368 . S
C1050 C1053 1.407 1_565 S
C1051 H1043 0.930 . S
C1051 C1052 1.355 . S
C1051 C1053 1.415 . S
C1052 C1051 1.355 . S
C1052 C1054 1.419 . S
C1053 C1048 1.425 1_545 S
C1053 C1050 1.407 1_545 S
C1053 C1051 1.415 . S
C1054 H1044 0.930 . S
C1054 C1052 1.419 . S
C1054 C1055 1.368 . S
C1055 H1045 0.927 1_545 S
C1055 C1048 1.407 1_545 S
C1055 C1054 1.368 . S
H1056 C1062 0.930 . S
H1057 C1065 0.930 . S
H1058 C1066 0.930 . S
H1059 C1067 0.930 . S
H1060 C1070 0.930 . S
H1061 C1071 0.930 . S
C1062 H1056 0.930 . S
C1062 C1063 1.355 . S
C1062 C1064 1.415 . S
C1063 C1062 1.355 . S
C1063 C1065 1.419 . S
C1064 C1062 1.415 . S
C1064 C1069 1.425 . S
C1064 C1071 1.409 . S
C1065 H1057 0.930 . S
C1065 C1063 1.419 . S
C1065 C1066 1.362 . S
C1066 H1058 0.930 . S
C1066 C1065 1.362 . S
C1066 C1069 1.409 . S
C1067 H1059 0.930 . S
C1067 C1068 1.355 . S
C1067 C1069 1.415 . S
C1068 C1067 1.355 . S
C1068 C1070 1.419 . S
C1069 C1064 1.425 . S
C1069 C1066 1.409 . S
C1069 C1067 1.415 . S
C1070 H1060 0.930 . S
C1070 C1068 1.419 . S
C1070 C1071 1.362 . S
C1071 H1061 0.930 . S
C1071 C1064 1.409 . S
C1071 C1070 1.362 . S
H1072 C1078 0.930 . S
H1073 C1081 0.930 . S
H1074 C1082 0.930 . S
H1075 C1083 0.930 . S
H1076 C1086 0.930 . S
H1077 C1087 0.930 . S
C1078 H1072 0.930 . S
C1078 C1079 1.355 . S
C1078 C1080 1.427 1_545 S
C1079 C1078 1.355 . S
C1079 C1081 1.419 1_556 S
C1080 C1078 1.427 1_565 S
C1080 C1085 1.424 1_666 S
C1080 C1087 1.398 1_655 S
C1081 H1073 0.930 . S
C1081 C1079 1.419 1_554 S
C1081 C1082 1.362 . S
C1082 H1074 0.930 . S
C1082 C1081 1.362 . S
C1082 C1085 1.398 1_655 S
C1083 H1075 0.930 . S
C1083 C1084 1.355 . S
C1083 C1085 1.427 1_565 S
C1084 C1083 1.355 . S
C1084 C1086 1.419 1_554 S
C1085 C1080 1.424 1_444 S
C1085 C1082 1.398 1_455 S
C1085 C1083 1.427 1_545 S
C1086 H1076 0.930 . S
C1086 C1084 1.419 1_556 S
C1086 C1087 1.362 . S
C1087 H1077 0.930 . S
C1087 C1080 1.398 1_455 S
C1087 C1086 1.362 . S
H1088 C1094 0.930 . S
H1089 C1097 0.930 . S
H1090 C1098 0.930 . S
H1091 C1099 0.930 . S
H1092 C1102 0.930 . S
H1093 C1103 0.930 . S
C1094 H1088 0.930 . S
C1094 C1095 1.355 . S
C1094 C1096 1.415 . S
C1095 C1094 1.355 . S
C1095 C1097 1.419 . S
C1096 C1094 1.415 . S
C1096 C1101 1.425 . S
C1096 C1103 1.409 . S
C1097 H1089 0.930 . S
C1097 C1095 1.419 . S
C1097 C1098 1.362 . S
C1098 H1090 0.930 . S
C1098 C1097 1.362 . S
C1098 C1101 1.409 . S
C1099 H1091 0.930 . S
C1099 C1100 1.355 . S
C1099 C1101 1.415 . S
C1100 C1099 1.355 . S
C1100 C1102 1.419 . S
C1101 C1096 1.425 . S
C1101 C1098 1.409 . S
C1101 C1099 1.415 . S
C1102 H1092 0.930 . S
C1102 C1100 1.419 . S
C1102 C1103 1.362 . S
C1103 H1093 0.930 . S
C1103 C1096 1.409 . S
C1103 C1102 1.362 . S
H1104 C1110 0.930 . S
H1105 C1113 0.930 . S
H1106 C1114 0.930 . S
H1107 C1115 0.930 . S
H1108 C1118 0.930 . S
H1109 C1119 0.930 . S
C1110 H1104 0.930 . S
C1110 C1111 1.355 . S
C1110 C1112 1.415 . S
C1111 C1110 1.355 . S
C1111 C1113 1.419 . S
C1112 C1110 1.415 . S
C1112 C1117 1.425 . S
C1112 C1119 1.409 . S
C1113 H1105 0.930 . S
C1113 C1111 1.419 . S
C1113 C1114 1.362 . S
C1114 H1106 0.930 . S
C1114 C1113 1.362 . S
C1114 C1117 1.409 . S
C1115 H1107 0.930 . S
C1115 C1116 1.355 . S
C1115 C1117 1.415 . S
C1116 C1115 1.355 . S
C1116 C1118 1.419 . S
C1117 C1112 1.425 . S
C1117 C1114 1.409 . S
C1117 C1115 1.415 . S
C1118 H1108 0.930 . S
C1118 C1116 1.419 . S
C1118 C1119 1.362 . S
C1119 H1109 0.930 . S
C1119 C1112 1.409 . S
C1119 C1118 1.362 . S
H1120 C1126 0.930 . S
H1121 C1129 0.930 . S
H1122 C1130 0.930 . S
H1123 C1131 0.930 . S
H1124 C1134 0.930 . S
H1125 C1135 0.930 . S
C1126 H1120 0.930 . S
C1126 C1127 1.355 . S
C1126 C1128 1.415 . S
C1127 C1126 1.355 . S
C1127 C1129 1.419 . S
C1128 C1126 1.415 . S
C1128 C1133 1.425 . S
C1128 C1135 1.409 . S
C1129 H1121 0.930 . S
C1129 C1127 1.419 . S
C1129 C1130 1.362 . S
C1130 H1122 0.930 . S
C1130 C1129 1.362 . S
C1130 C1133 1.409 . S
C1131 H1123 0.930 . S
C1131 C1132 1.355 . S
C1131 C1133 1.415 . S
C1132 C1131 1.355 . S
C1132 C1134 1.419 . S
C1133 C1128 1.425 . S
C1133 C1130 1.409 . S
C1133 C1131 1.415 . S
C1134 H1124 0.930 . S
C1134 C1132 1.419 . S
C1134 C1135 1.362 . S
C1135 H1125 0.930 . S
C1135 C1128 1.409 . S
C1135 C1134 1.362 . S
H1136 C1142 0.930 . S
H1137 C1145 0.930 . S
H1138 C1146 0.930 . S
H1139 C1147 0.930 . S
H1140 C1150 0.930 . S
H1141 C1151 0.930 . S
C1142 H1136 0.930 . S
C1142 C1143 1.355 . S
C1142 C1144 1.415 . S
C1143 C1142 1.355 . S
C1143 C1145 1.419 . S
C1144 C1142 1.415 . S
C1144 C1149 1.425 . S
C1144 C1151 1.409 . S
C1145 H1137 0.930 . S
C1145 C1143 1.419 . S
C1145 C1146 1.362 . S
C1146 H1138 0.930 . S
C1146 C1145 1.362 . S
C1146 C1149 1.409 . S
C1147 H1139 0.930 . S
C1147 C1148 1.355 . S
C1147 C1149 1.415 . S
C1148 C1147 1.355 . S
C1148 C1150 1.419 . S
C1149 C1144 1.425 . S
C1149 C1146 1.409 . S
C1149 C1147 1.415 . S
C1150 H1140 0.930 . S
C1150 C1148 1.419 . S
C1150 C1151 1.362 . S
C1151 H1141 0.930 . S
C1151 C1144 1.409 . S
C1151 C1150 1.362 . S
H1152 C1158 0.930 . S
H1153 C1161 0.930 . S
H1154 C1162 0.930 . S
H1155 C1163 0.930 . S
H1156 C1166 0.930 . S
H1157 C1167 0.930 . S
C1158 H1152 0.930 . S
C1158 C1159 1.355 . S
C1158 C1160 1.415 . S
C1159 C1158 1.355 . S
C1159 C1161 1.419 . S
C1160 C1158 1.415 . S
C1160 C1165 1.425 1_554 S
C1160 C1167 1.409 . S
C1161 H1153 0.930 . S
C1161 C1159 1.419 . S
C1161 C1162 1.362 1_554 S
C1162 H1154 0.930 . S
C1162 C1161 1.362 1_556 S
C1162 C1165 1.409 . S
C1163 H1155 0.930 . S
C1163 C1164 1.355 . S
C1163 C1165 1.415 . S
C1164 C1163 1.355 . S
C1164 C1166 1.419 . S
C1165 C1160 1.425 1_556 S
C1165 C1162 1.409 . S
C1165 C1163 1.415 . S
C1166 H1156 0.930 . S
C1166 C1164 1.419 . S
C1166 C1167 1.362 1_556 S
C1167 H1157 0.930 . S
C1167 C1160 1.409 . S
C1167 C1166 1.362 1_554 S
H1168 C1174 0.930 . S
H1169 C1177 0.930 . S
H1170 C1178 0.930 . S
H1171 C1179 0.930 . S
H1172 C1182 0.930 . S
H1173 C1183 0.930 . S
C1174 H1168 0.930 . S
C1174 C1175 1.355 . S
C1174 C1176 1.415 . S
C1175 C1174 1.355 . S
C1175 C1177 1.419 . S
C1176 C1174 1.415 . S
C1176 C1181 1.425 1_655 S
C1176 C1183 1.409 1_655 S
C1177 H1169 0.930 . S
C1177 C1175 1.419 . S
C1177 C1178 1.362 . S
C1178 H1170 0.930 . S
C1178 C1177 1.362 . S
C1178 C1181 1.409 1_655 S
C1179 H1171 0.930 . S
C1179 C1180 1.355 . S
C1179 C1181 1.415 . S
C1180 C1179 1.355 . S
C1180 C1182 1.419 . S
C1181 C1176 1.425 1_455 S
C1181 C1178 1.409 1_455 S
C1181 C1179 1.415 . S
C1182 H1172 0.930 . S
C1182 C1180 1.419 . S
C1182 C1183 1.362 . S
C1183 H1173 0.930 . S
C1183 C1176 1.409 1_455 S
C1183 C1182 1.362 . S
H1184 C1190 0.930 . S
H1185 C1193 0.930 . S
H1186 C1194 0.930 . S
H1187 C1195 0.930 . S
H1188 C1198 0.930 . S
H1189 C1199 0.930 . S
C1190 H1184 0.930 . S
C1190 C1191 1.355 . S
C1190 C1192 1.415 1_556 S
C1191 C1190 1.355 . S
C1191 C1193 1.419 1_455 S
C1192 C1190 1.415 1_554 S
C1192 C1197 1.425 1_454 S
C1192 C1199 1.409 . S
C1193 H1185 0.930 . S
C1193 C1191 1.419 1_655 S
C1193 C1194 1.362 . S
C1194 H1186 0.930 . S
C1194 C1193 1.362 . S
C1194 C1197 1.409 . S
C1195 H1187 0.930 . S
C1195 C1196 1.355 . S
C1195 C1197 1.415 1_554 S
C1196 C1195 1.355 . S
C1196 C1198 1.419 1_655 S
C1197 C1192 1.425 1_656 S
C1197 C1194 1.409 . S
C1197 C1195 1.415 1_556 S
C1198 H1188 0.930 . S
C1198 C1196 1.419 1_455 S
C1198 C1199 1.362 . S
C1199 H1189 0.930 . S
C1199 C1192 1.409 . S
C1199 C1198 1.362 . S
H1200 C1206 0.930 . S
H1201 C1209 0.930 . S
H1202 C1210 0.930 . S
H1203 C1211 0.930 . S
H1204 C1214 0.930 . S
H1205 C1215 0.930 . S
C1206 H1200 0.930 . S
C1206 C1207 1.355 . S
C1206 C1208 1.415 . S
C1207 C1206 1.355 . S
C1207 C1209 1.419 . S
C1208 C1206 1.415 . S
C1208 C1213 1.425 . S
C1208 C1215 1.409 . S
C1209 H1201 0.930 . S
C1209 C1207 1.419 . S
C1209 C1210 1.362 . S
C1210 H1202 0.930 . S
C1210 C1209 1.362 . S
C1210 C1213 1.409 . S
C1211 H1203 0.930 . S
C1211 C1212 1.355 . S
C1211 C1213 1.415 . S
C1212 C1211 1.355 . S
C1212 C1214 1.419 . S
C1213 C1208 1.425 . S
C1213 C1210 1.409 . S
C1213 C1211 1.415 . S
C1214 H1204 0.930 . S
C1214 C1212 1.419 . S
C1214 C1215 1.362 . S
C1215 H1205 0.930 . S
C1215 C1208 1.409 . S
C1215 C1214 1.362 . S
H1216 C1222 0.930 . S
H1217 C1225 0.930 . S
H1218 C1226 0.930 . S
H1219 C1227 0.930 . S
H1220 C1230 0.930 . S
H1221 C1231 0.930 . S
C1222 H1216 0.930 . S
C1222 C1223 1.355 . S
C1222 C1224 1.415 . S
C1223 C1222 1.355 . S
C1223 C1225 1.419 . S
C1224 C1222 1.415 . S
C1224 C1229 1.425 . S
C1224 C1231 1.409 . S
C1225 H1217 0.930 . S
C1225 C1223 1.419 . S
C1225 C1226 1.362 . S
C1226 H1218 0.930 . S
C1226 C1225 1.362 . S
C1226 C1229 1.409 . S
C1227 H1219 0.930 . S
C1227 C1228 1.355 . S
C1227 C1229 1.415 . S
C1228 C1227 1.355 . S
C1228 C1230 1.419 . S
C1229 C1224 1.425 . S
C1229 C1226 1.409 . S
C1229 C1227 1.415 . S
C1230 H1220 0.930 . S
C1230 C1228 1.419 . S
C1230 C1231 1.362 . S
C1231 H1221 0.930 . S
C1231 C1224 1.409 . S
C1231 C1230 1.362 . S
H1232 C1238 0.930 . S
H1233 C1241 0.930 . S
H1234 C1242 0.930 . S
H1235 C1243 0.930 . S
H1236 C1246 0.930 . S
H1237 C1247 0.930 . S
C1238 H1232 0.930 . S
C1238 C1239 1.355 . S
C1238 C1240 1.415 . S
C1239 C1238 1.355 . S
C1239 C1241 1.419 . S
C1240 C1238 1.415 . S
C1240 C1245 1.425 . S
C1240 C1247 1.409 . S
C1241 H1233 0.930 . S
C1241 C1239 1.419 . S
C1241 C1242 1.362 . S
C1242 H1234 0.930 . S
C1242 C1241 1.362 . S
C1242 C1245 1.409 . S
C1243 H1235 0.930 . S
C1243 C1244 1.355 . S
C1243 C1245 1.415 . S
C1244 C1243 1.355 . S
C1244 C1246 1.419 . S
C1245 C1240 1.425 . S
C1245 C1242 1.409 . S
C1245 C1243 1.415 . S
C1246 H1236 0.930 . S
C1246 C1244 1.419 . S
C1246 C1247 1.362 . S
C1247 H1237 0.930 . S
C1247 C1240 1.409 . S
C1247 C1246 1.362 . S
H1248 C1254 0.930 . S
H1249 C1257 0.930 . S
H1250 C1258 0.930 . S
H1251 C1259 0.930 . S
H1252 C1262 0.930 . S
H1253 C1263 0.930 . S
C1254 H1248 0.930 . S
C1254 C1255 1.355 . S
C1254 C1256 1.415 . S
C1255 C1254 1.355 . S
C1255 C1257 1.419 . S
C1256 C1254 1.415 . S
C1256 C1261 1.425 . S
C1256 C1263 1.409 . S
C1257 H1249 0.930 . S
C1257 C1255 1.419 . S
C1257 C1258 1.362 . S
C1258 H1250 0.930 . S
C1258 C1257 1.362 . S
C1258 C1261 1.409 . S
C1259 H1251 0.930 . S
C1259 C1260 1.355 . S
C1259 C1261 1.415 . S
C1260 C1259 1.355 . S
C1260 C1262 1.419 . S
C1261 C1256 1.425 . S
C1261 C1258 1.409 . S
C1261 C1259 1.415 . S
C1262 H1252 0.930 . S
C1262 C1260 1.419 . S
C1262 C1263 1.362 . S
C1263 H1253 0.930 . S
C1263 C1256 1.409 . S
C1263 C1262 1.362 . S
H1264 C1270 0.930 . S
H1265 C1273 0.930 . S
H1266 C1274 0.930 . S
H1267 C1275 0.930 . S
H1268 C1278 0.930 . S
H1269 C1279 0.930 . S
C1270 H1264 0.930 . S
C1270 C1271 1.355 . S
C1270 C1272 1.415 . S
C1271 C1270 1.355 . S
C1271 C1273 1.419 . S
C1272 C1270 1.415 . S
C1272 C1277 1.425 . S
C1272 C1279 1.409 . S
C1273 H1265 0.930 . S
C1273 C1271 1.419 . S
C1273 C1274 1.362 . S
C1274 H1266 0.930 . S
C1274 C1273 1.362 . S
C1274 C1277 1.409 . S
C1275 H1267 0.930 . S
C1275 C1276 1.355 . S
C1275 C1277 1.415 . S
C1276 C1275 1.355 . S
C1276 C1278 1.419 . S
C1277 C1272 1.425 . S
C1277 C1274 1.409 . S
C1277 C1275 1.415 . S
C1278 H1268 0.930 . S
C1278 C1276 1.419 . S
C1278 C1279 1.362 . S
C1279 H1269 0.930 . S
C1279 C1272 1.409 . S
C1279 C1278 1.362 . S
H1280 C1286 0.930 . S
H1281 C1289 0.930 . S
H1282 C1290 0.930 . S
H1283 C1291 0.930 . S
H1284 C1294 0.930 . S
H1285 C1295 0.930 . S
C1286 H1280 0.930 . S
C1286 C1287 1.355 . S
C1286 C1288 1.415 . S
C1287 C1286 1.355 . S
C1287 C1289 1.419 . S
C1288 C1286 1.415 . S
C1288 C1293 1.425 . S
C1288 C1295 1.409 . S
C1289 H1281 0.930 . S
C1289 C1287 1.419 . S
C1289 C1290 1.362 . S
C1290 H1282 0.930 . S
C1290 C1289 1.362 . S
C1290 C1293 1.409 . S
C1291 H1283 0.930 . S
C1291 C1292 1.355 . S
C1291 C1293 1.415 . S
C1292 C1291 1.355 . S
C1292 C1294 1.419 . S
C1293 C1288 1.425 . S
C1293 C1290 1.409 . S
C1293 C1291 1.415 . S
C1294 H1284 0.930 . S
C1294 C1292 1.419 . S
C1294 C1295 1.362 . S
C1295 H1285 0.930 . S
C1295 C1288 1.409 . S
C1295 C1294 1.362 . S
H1296 C1302 0.930 . S
H1297 C1305 0.930 . S
H1298 C1306 0.930 . S
H1299 C1307 0.930 . S
H1300 C1310 0.930 . S
H1301 C1311 0.930 . S
C1302 H1296 0.930 . S
C1302 C1303 1.355 . S
C1302 C1304 1.415 . S
C1303 C1302 1.355 . S
C1303 C1305 1.419 . S
C1304 C1302 1.415 . S
C1304 C1309 1.425 . S
C1304 C1311 1.409 . S
C1305 H1297 0.930 . S
C1305 C1303 1.419 . S
C1305 C1306 1.362 . S
C1306 H1298 0.930 . S
C1306 C1305 1.362 . S
C1306 C1309 1.409 . S
C1307 H1299 0.930 . S
C1307 C1308 1.355 . S
C1307 C1309 1.415 . S
C1308 C1307 1.355 . S
C1308 C1310 1.419 . S
C1309 C1304 1.425 . S
C1309 C1306 1.409 . S
C1309 C1307 1.415 . S
C1310 H1300 0.930 . S
C1310 C1308 1.419 . S
C1310 C1311 1.362 . S
C1311 H1301 0.930 . S
C1311 C1304 1.409 . S
C1311 C1310 1.362 . S
H1312 C1318 0.930 . S
H1313 C1321 0.930 . S
H1314 C1322 0.930 . S
H1315 C1323 0.930 . S
H1316 C1326 0.930 . S
H1317 C1327 0.930 . S
C1318 H1312 0.930 . S
C1318 C1319 1.355 . S
C1318 C1320 1.415 . S
C1319 C1318 1.355 . S
C1319 C1321 1.419 . S
C1320 C1318 1.415 . S
C1320 C1325 1.425 . S
C1320 C1327 1.409 . S
C1321 H1313 0.930 . S
C1321 C1319 1.419 . S
C1321 C1322 1.362 . S
C1322 H1314 0.930 . S
C1322 C1321 1.362 . S
C1322 C1325 1.409 . S
C1323 H1315 0.930 . S
C1323 C1324 1.355 . S
C1323 C1325 1.415 . S
C1324 C1323 1.355 . S
C1324 C1326 1.419 . S
C1325 C1320 1.425 . S
C1325 C1322 1.409 . S
C1325 C1323 1.415 . S
C1326 H1316 0.930 . S
C1326 C1324 1.419 . S
C1326 C1327 1.362 . S
C1327 H1317 0.930 . S
C1327 C1320 1.409 . S
C1327 C1326 1.362 . S
H1328 C1334 0.930 . S
H1329 C1337 0.930 . S
H1330 C1338 0.930 . S
H1331 C1339 0.930 . S
H1332 C1342 0.930 . S
H1333 C1343 0.930 . S
C1334 H1328 0.930 . S
C1334 C1335 1.355 . S
C1334 C1336 1.415 . S
C1335 C1334 1.355 . S
C1335 C1337 1.419 . S
C1336 C1334 1.415 . S
C1336 C1341 1.425 . S
C1336 C1343 1.409 . S
C1337 H1329 0.930 . S
C1337 C1335 1.419 . S
C1337 C1338 1.362 . S
C1338 H1330 0.930 . S
C1338 C1337 1.362 . S
C1338 C1341 1.409 . S
C1339 H1331 0.930 . S
C1339 C1340 1.355 . S
C1339 C1341 1.415 . S
C1340 C1339 1.355 . S
C1340 C1342 1.419 . S
C1341 C1336 1.425 . S
C1341 C1338 1.409 . S
C1341 C1339 1.415 . S
C1342 H1332 0.930 . S
C1342 C1340 1.419 . S
C1342 C1343 1.362 . S
C1343 H1333 0.930 . S
C1343 C1336 1.409 . S
C1343 C1342 1.362 . S
H1344 C1350 0.930 . S
H1345 C1353 0.930 . S
H1346 C1354 0.930 . S
H1347 C1355 0.930 . S
H1348 C1358 0.930 . S
H1349 C1359 0.930 . S
C1350 H1344 0.930 . S
C1350 C1351 1.355 . S
C1350 C1352 1.415 . S
C1351 C1350 1.355 . S
C1351 C1353 1.419 . S
C1352 C1350 1.415 . S
C1352 C1357 1.425 . S
C1352 C1359 1.409 . S
C1353 H1345 0.930 . S
C1353 C1351 1.419 . S
C1353 C1354 1.362 . S
C1354 H1346 0.930 . S
C1354 C1353 1.362 . S
C1354 C1357 1.409 . S
C1355 H1347 0.930 . S
C1355 C1356 1.355 . S
C1355 C1357 1.415 . S
C1356 C1355 1.355 . S
C1356 C1358 1.419 . S
C1357 C1352 1.425 . S
C1357 C1354 1.409 . S
C1357 C1355 1.415 . S
C1358 H1348 0.930 . S
C1358 C1356 1.419 . S
C1358 C1359 1.362 . S
C1359 H1349 0.930 . S
C1359 C1352 1.409 . S
C1359 C1358 1.362 . S
H1360 C1366 0.930 . S
H1361 C1369 0.930 . S
H1362 C1370 0.930 . S
H1363 C1371 0.930 . S
H1364 C1374 0.930 . S
H1365 C1375 0.930 . S
C1366 H1360 0.930 . S
C1366 C1367 1.355 . S
C1366 C1368 1.415 . S
C1367 C1366 1.355 . S
C1367 C1369 1.419 . S
C1368 C1366 1.415 . S
C1368 C1373 1.425 . S
C1368 C1375 1.409 . S
C1369 H1361 0.930 . S
C1369 C1367 1.419 . S
C1369 C1370 1.362 . S
C1370 H1362 0.930 . S
C1370 C1369 1.362 . S
C1370 C1373 1.409 . S
C1371 H1363 0.930 . S
C1371 C1372 1.355 . S
C1371 C1373 1.415 . S
C1372 C1371 1.355 . S
C1372 C1374 1.419 . S
C1373 C1368 1.425 . S
C1373 C1370 1.409 . S
C1373 C1371 1.415 . S
C1374 H1364 0.930 . S
C1374 C1372 1.419 . S
C1374 C1375 1.362 . S
C1375 H1365 0.930 . S
C1375 C1368 1.409 . S
C1375 C1374 1.362 . S
H1376 C1382 0.930 . S
H1377 C1385 0.930 . S
H1378 C1386 0.930 . S
H1379 C1387 0.930 . S
H1380 C1390 0.930 . S
H1381 C1391 0.930 . S
C1382 H1376 0.930 . S
C1382 C1383 1.355 . S
C1382 C1384 1.415 . S
C1383 C1382 1.355 . S
C1383 C1385 1.419 . S
C1384 C1382 1.415 . S
C1384 C1389 1.425 . S
C1384 C1391 1.409 . S
C1385 H1377 0.930 . S
C1385 C1383 1.419 . S
C1385 C1386 1.362 . S
C1386 H1378 0.930 . S
C1386 C1385 1.362 . S
C1386 C1389 1.409 . S
C1387 H1379 0.930 . S
C1387 C1388 1.355 . S
C1387 C1389 1.415 . S
C1388 C1387 1.355 . S
C1388 C1390 1.419 . S
C1389 C1384 1.425 . S
C1389 C1386 1.409 . S
C1389 C1387 1.415 . S
C1390 H1380 0.930 . S
C1390 C1388 1.419 . S
C1390 C1391 1.362 . S
C1391 H1381 0.930 . S
C1391 C1384 1.409 . S
C1391 C1390 1.362 . S
H1392 C1398 0.930 . S
H1393 C1401 0.930 . S
H1394 C1402 0.930 . S
H1395 C1403 0.930 . S
H1396 C1406 0.930 . S
H1397 C1407 0.930 . S
C1398 H1392 0.930 . S
C1398 C1399 1.355 . S
C1398 C1400 1.415 . S
C1399 C1398 1.355 . S
C1399 C1401 1.419 . S
C1400 C1398 1.415 . S
C1400 C1405 1.425 . S
C1400 C1407 1.409 . S
C1401 H1393 0.930 . S
C1401 C1399 1.419 . S
C1401 C1402 1.362 . S
C1402 H1394 0.930 . S
C1402 C1401 1.362 . S
C1402 C1405 1.409 . S
C1403 H1395 0.930 . S
C1403 C1404 1.355 . S
C1403 C1405 1.415 . S
C1404 C1403 1.355 . S
C1404 C1406 1.419 . S
C1405 C1400 1.425 . S
C1405 C1402 1.409 . S
C1405 C1403 1.415 . S
C1406 H1396 0.930 . S
C1406 C1404 1.419 . S
C1406 C1407 1.362 . S
C1407 H1397 0.930 . S
C1407 C1400 1.409 . S
C1407 C1406 1.362 . S
H1408 C1414 0.930 . S
H1409 C1417 0.930 . S
H1410 C1418 0.930 . S
H1411 C1419 0.930 . S
H1412 C1422 0.930 . S
H1413 C1423 0.930 . S
C1414 H1408 0.930 . S
C1414 C1415 1.355 . S
C1414 C1416 1.415 . S
C1415 C1414 1.355 . S
C1415 C1417 1.419 . S
C1416 C1414 1.415 . S
C1416 C1421 1.425 . S
C1416 C1423 1.409 . S
C1417 H1409 0.930 . S
C1417 C1415 1.419 . S
C1417 C1418 1.362 . S
C1418 H1410 0.930 . S
C1418 C1417 1.362 . S
C1418 C1421 1.409 . S
C1419 H1411 0.930 . S
C1419 C1420 1.355 . S
C1419 C1421 1.415 . S
C1420 C1419 1.355 . S
C1420 C1422 1.419 . S
C1421 C1416 1.425 . S
C1421 C1418 1.409 . S
C1421 C1419 1.415 . S
C1422 H1412 0.930 . S
C1422 C1420 1.419 . S
C1422 C1423 1.362 . S
C1423 H1413 0.930 . S
C1423 C1416 1.409 . S
C1423 C1422 1.362 . S
H1424 C1430 0.930 . S
H1425 C1433 0.930 . S
H1426 C1434 0.930 . S
H1427 C1435 0.930 . S
H1428 C1438 0.930 . S
H1429 C1439 0.930 . S
C1430 H1424 0.930 . S
C1430 C1431 1.355 . S
C1430 C1432 1.415 . S
C1431 C1430 1.355 . S
C1431 C1433 1.419 . S
C1432 C1430 1.415 . S
C1432 C1437 1.425 . S
C1432 C1439 1.409 . S
C1433 H1425 0.930 . S
C1433 C1431 1.419 . S
C1433 C1434 1.362 . S
C1434 H1426 0.930 . S
C1434 C1433 1.362 . S
C1434 C1437 1.409 . S
C1435 H1427 0.930 . S
C1435 C1436 1.355 . S
C1435 C1437 1.415 . S
C1436 C1435 1.355 . S
C1436 C1438 1.419 . S
C1437 C1432 1.425 . S
C1437 C1434 1.409 . S
C1437 C1435 1.415 . S
C1438 H1428 0.930 . S
C1438 C1436 1.419 . S
C1438 C1439 1.362 . S
C1439 H1429 0.930 . S
C1439 C1432 1.409 . S
C1439 C1438 1.362 . S
H1440 C1446 0.930 . S
H1441 C1449 0.930 . S
H1442 C1450 0.930 . S
H1443 C1451 0.930 . S
H1444 C1454 0.930 . S
H1445 C1455 0.930 . S
C1446 H1440 0.930 . S
C1446 C1447 1.355 . S
C1446 C1448 1.415 . S
C1447 C1446 1.355 . S
C1447 C1449 1.419 . S
C1448 C1446 1.415 . S
C1448 C1453 1.425 . S
C1448 C1455 1.409 . S
C1449 H1441 0.930 . S
C1449 C1447 1.419 . S
C1449 C1450 1.362 . S
C1450 H1442 0.930 . S
C1450 C1449 1.362 . S
C1450 C1453 1.409 . S
C1451 H1443 0.930 . S
C1451 C1452 1.355 . S
C1451 C1453 1.415 . S
C1452 C1451 1.355 . S
C1452 C1454 1.419 . S
C1453 C1448 1.425 . S
C1453 C1450 1.409 . S
C1453 C1451 1.415 . S
C1454 H1444 0.930 . S
C1454 C1452 1.419 . S
C1454 C1455 1.362 . S
C1455 H1445 0.930 . S
C1455 C1448 1.409 . S
C1455 C1454 1.362 . S
H1456 C1462 0.930 . S
H1457 C1465 0.930 . S
H1458 C1466 0.930 . S
H1459 C1467 0.930 . S
H1460 C1470 0.930 . S
H1461 C1471 0.930 . S
C1462 H1456 0.930 . S
C1462 C1463 1.355 . S
C1462 C1464 1.415 . S
C1463 C1462 1.355 . S
C1463 C1465 1.419 . S
C1464 C1462 1.415 . S
C1464 C1469 1.425 . S
C1464 C1471 1.409 . S
C1465 H1457 0.930 . S
C1465 C1463 1.419 . S
C1465 C1466 1.362 . S
C1466 H1458 0.930 . S
C1466 C1465 1.362 . S
C1466 C1469 1.409 . S
C1467 H1459 0.930 . S
C1467 C1468 1.355 . S
C1467 C1469 1.415 . S
C1468 C1467 1.355 . S
C1468 C1470 1.419 . S
C1469 C1464 1.425 . S
C1469 C1466 1.409 . S
C1469 C1467 1.415 . S
C1470 H1460 0.930 . S
C1470 C1468 1.419 . S
C1470 C1471 1.362 . S
C1471 H1461 0.930 . S
C1471 C1464 1.409 . S
C1471 C1470 1.362 . S
C455 C135 1.516 . S
C460 C8 1.611 . S
C471 C22 1.597 1_455 S
C476 C373 1.478 . S
C487 C163 1.479 . S
C492 C36 1.599 . S
C503 C345 1.560 . S
C508 C50 1.594 . S
C519 C64 1.610 . S
C524 C219 1.533 . S
C535 C401 1.529 . S
C540 C78 1.611 . S
C551 C92 1.588 . S
C556 C191 1.484 . S
C567 C429 1.489 . S
C572 C106 1.606 1_455 S
C583 C23 1.561 . S
C588 C120 1.596 . S
C599 C134 1.587 1_655 S
C604 C261 1.487 . S
C615 C51 1.517 . S
C620 C148 1.611 . S
C631 C162 1.611 . S
C636 C233 1.532 . S
C647 C176 1.596 . S
C652 C107 1.561 . S
C663 C289 1.558 . S
C668 C190 1.602 . S
C679 C204 1.594 . S
C684 C79 1.560 . S
C695 C317 1.560 . S
C700 C218 1.594 1_655 S
C711 C359 1.480 . S
C716 C232 1.592 . S
C727 C149 1.479 . S
C732 C246 1.599 . S
C743 C260 1.596 . S
C748 C387 1.561 . S
C759 C121 1.478 . S
C764 C274 1.596 1_655 S
C775 C443 1.484 . S
C780 C288 1.588 . S
C791 C302 1.595 1_655 S
C796 C177 1.478 . S
C807 C415 1.481 . S
C812 C316 1.591 . S
C823 C205 1.510 . S
C828 C330 1.582 . S
C839 C247 1.560 . S
C844 C344 1.599 . S
C855 C358 1.604 . S
C860 C37 1.556 . S
C871 C372 1.608 . S
C876 C275 1.495 . S
C887 C386 1.594 1_455 S
C892 C9 1.479 . S
C903 C331 1.478 . S
C908 C400 1.594 . S
C919 C414 1.588 1_455 S
C924 C65 1.486 . S
C935 C428 1.604 . S
C940 C303 1.555 . S
C951 C442 1.606 . S
C956 C93 1.551 . S
C967 C342 1.492 . S
C972 C6 1.492 . S
C983 C20 1.485 . S
C988 C132 1.485 . S
C999 C34 1.497 . S
C1004 C370 1.497 . S
C1015 C48 1.498 . S
C1020 C160 1.498 . S
C1031 C62 1.490 . S
C1036 C398 1.490 . S
C1047 C76 1.491 . S
C1052 C188 1.491 . S
C1063 C426 1.485 . S
C1068 C90 1.485 . S
C1079 C104 1.496 . S
C1084 C216 1.496 . S
C1095 C118 1.501 . S
C1100 C230 1.501 . S
C1111 C146 1.485 . S
C1116 C258 1.485 . S
C1127 C286 1.496 . S
C1132 C174 1.496 . S
C1143 C314 1.491 . S
C1148 C202 1.491 . S
C1159 C244 1.487 . S
C1164 C356 1.487 . S
C1175 C384 1.488 . S
C1180 C272 1.488 . S
C1191 C300 1.485 . S
C1196 C412 1.485 . S
C1207 C440 1.498 . S
C1212 C328 1.498 . S
C1223 C301 1.328 . S
C1228 C7 1.287 . S
C1239 C315 1.335 . S
C1244 C21 1.279 . S
C1255 C35 1.311 . S
C1260 C329 1.304 . S
C1271 C287 1.282 . S
C1276 C49 1.333 . S
C1287 C273 1.322 . S
C1292 C63 1.293 . S
C1303 C231 1.294 . S
C1308 C77 1.320 . S
C1319 C91 1.280 . S
C1324 C245 1.336 . S
C1335 C259 1.291 . S
C1340 C105 1.325 . S
C1351 C413 1.275 . S
C1356 C119 1.339 . S
C1367 C427 1.338 . S
C1372 C133 1.277 . S
C1383 C441 1.333 . S
C1388 C147 1.281 . S
C1399 C161 1.322 . S
C1404 C399 1.294 . S
C1415 C385 1.335 . S
C1420 C175 1.281 . S
C1431 C343 1.318 . S
C1436 C189 1.296 . S
C1447 C357 1.328 . S
C1452 C203 1.288 . S
C1463 C371 1.282 . S
C1468 C217 1.333 . S
