# Generated by pormake.
# Topology sxg, (6)-cn, num edge types: 1
# Building blocks:
#     Node 0, Type 0, BuildingBlock: OJICUG_clean_sbu_0, # of connection points: 6
#     Node 1, Type 0, BuildingBlock: OJICUG_clean_sbu_0, # of connection points: 6
#     Node 2, Type 0, BuildingBlock: OJICUG_clean_sbu_0, # of connection points: 6
#     Node 3, Type 0, BuildingBlock: OJICUG_clean_sbu_0, # of connection points: 6
#     Node 4, Type 0, BuildingBlock: OJICUG_clean_sbu_0, # of connection points: 6
#     Node 5, Type 0, BuildingBlock: OJICUG_clean_sbu_0, # of connection points: 6
#     Node 6, Type 0, BuildingBlock: OJICUG_clean_sbu_0, # of connection points: 6
#     Node 7, Type 0, BuildingBlock: OJICUG_clean_sbu_0, # of connection points: 6
#     Node 8, Type 0, BuildingBlock: OJICUG_clean_sbu_0, # of connection points: 6
#     Node 9, Type 0, BuildingBlock: OJICUG_clean_sbu_0, # of connection points: 6
#     Node 10, Type 0, BuildingBlock: OJICUG_clean_sbu_0, # of connection points: 6
#     Node 11, Type 0, BuildingBlock: OJICUG_clean_sbu_0, # of connection points: 6
#     Node 12, Type 0, BuildingBlock: OJICUG_clean_sbu_0, # of connection points: 6
#     Node 13, Type 0, BuildingBlock: OJICUG_clean_sbu_0, # of connection points: 6
#     Node 14, Type 0, BuildingBlock: OJICUG_clean_sbu_0, # of connection points: 6
#     Node 15, Type 0, BuildingBlock: OJICUG_clean_sbu_0, # of connection points: 6
#     Node 16, Type 0, BuildingBlock: OJICUG_clean_sbu_0, # of connection points: 6
#     Node 17, Type 0, BuildingBlock: OJICUG_clean_sbu_0, # of connection points: 6
#     Node 18, Type 0, BuildingBlock: OJICUG_clean_sbu_0, # of connection points: 6
#     Node 19, Type 0, BuildingBlock: OJICUG_clean_sbu_0, # of connection points: 6
#     Node 20, Type 0, BuildingBlock: OJICUG_clean_sbu_0, # of connection points: 6
#     Node 21, Type 0, BuildingBlock: OJICUG_clean_sbu_0, # of connection points: 6
#     Node 22, Type 0, BuildingBlock: OJICUG_clean_sbu_0, # of connection points: 6
#     Node 23, Type 0, BuildingBlock: OJICUG_clean_sbu_0, # of connection points: 6
#     Edge 24, Type (0, 0), None
#     Edge 25, Type (0, 0), None
#     Edge 26, Type (0, 0), None
#     Edge 27, Type (0, 0), None
#     Edge 28, Type (0, 0), None
#     Edge 29, Type (0, 0), None
#     Edge 30, Type (0, 0), None
#     Edge 31, Type (0, 0), None
#     Edge 32, Type (0, 0), None
#     Edge 33, Type (0, 0), None
#     Edge 34, Type (0, 0), None
#     Edge 35, Type (0, 0), None
#     Edge 36, Type (0, 0), None
#     Edge 37, Type (0, 0), None
#     Edge 38, Type (0, 0), None
#     Edge 39, Type (0, 0), None
#     Edge 40, Type (0, 0), None
#     Edge 41, Type (0, 0), None
#     Edge 42, Type (0, 0), None
#     Edge 43, Type (0, 0), None
#     Edge 44, Type (0, 0), None
#     Edge 45, Type (0, 0), None
#     Edge 46, Type (0, 0), None
#     Edge 47, Type (0, 0), None
#     Edge 48, Type (0, 0), None
#     Edge 49, Type (0, 0), None
#     Edge 50, Type (0, 0), None
#     Edge 51, Type (0, 0), None
#     Edge 52, Type (0, 0), None
#     Edge 53, Type (0, 0), None
#     Edge 54, Type (0, 0), None
#     Edge 55, Type (0, 0), None
#     Edge 56, Type (0, 0), None
#     Edge 57, Type (0, 0), None
#     Edge 58, Type (0, 0), None
#     Edge 59, Type (0, 0), None
#     Edge 60, Type (0, 0), None
#     Edge 61, Type (0, 0), None
#     Edge 62, Type (0, 0), None
#     Edge 63, Type (0, 0), None
#     Edge 64, Type (0, 0), None
#     Edge 65, Type (0, 0), None
#     Edge 66, Type (0, 0), None
#     Edge 67, Type (0, 0), None
#     Edge 68, Type (0, 0), None
#     Edge 69, Type (0, 0), None
#     Edge 70, Type (0, 0), None
#     Edge 71, Type (0, 0), None
#     Edge 72, Type (0, 0), None
#     Edge 73, Type (0, 0), None
#     Edge 74, Type (0, 0), None
#     Edge 75, Type (0, 0), None
#     Edge 76, Type (0, 0), None
#     Edge 77, Type (0, 0), None
#     Edge 78, Type (0, 0), None
#     Edge 79, Type (0, 0), None
#     Edge 80, Type (0, 0), None
#     Edge 81, Type (0, 0), None
#     Edge 82, Type (0, 0), None
#     Edge 83, Type (0, 0), None
#     Edge 84, Type (0, 0), None
#     Edge 85, Type (0, 0), None
#     Edge 86, Type (0, 0), None
#     Edge 87, Type (0, 0), None
#     Edge 88, Type (0, 0), None
#     Edge 89, Type (0, 0), None
#     Edge 90, Type (0, 0), None
#     Edge 91, Type (0, 0), None
#     Edge 92, Type (0, 0), None
#     Edge 93, Type (0, 0), None
#     Edge 94, Type (0, 0), None
#     Edge 95, Type (0, 0), None
# Relax obj value: 0.142
# Max RMSD: 0.235
# Mean RMSD: 0.235
data_MOF--net-sxg--node1-OJICUG_clean_sbu_0--edge1-none
_symmetry_space_group_name_H-M    P1
_symmetry_Int_Tables_number       1
_symmetry_cell_setting            triclinic
loop_
_symmetry_equiv_pos_as_xyz
'x, y, z'
_cell_length_a     22.448626
_cell_length_b     22.449017
_cell_length_c     22.448618
_cell_angle_alpha  90.00019
_cell_angle_beta   90.000164
_cell_angle_gamma 90.00018
loop_
_atom_site_label
_atom_site_type_symbol
_atom_site_fract_x
_atom_site_fract_y
_atom_site_fract_z
_atom_type_partial_charge
Sc0 Sc 0.11213 0.42154 0.13807 0.0
Sc1 Sc 0.06342 0.38529 0.28122 0.0
Sc2 Sc 0.08387 0.27475 0.17756 0.0
O3 O 0.08294 0.36144 0.19779 0.0
C4 C 0.02796 0.32644 0.06385 0.0
C5 C 1.00564 0.48853 0.19731 0.0
C6 C 0.98109 0.28338 0.27876 0.0
C7 C 0.1832 0.45536 0.25649 0.0
C8 C 0.20107 0.32095 0.1253 0.0
C9 C 0.12937 0.26095 0.2968 0.0
O10 O 0.06216 0.37263 0.06741 0.0
O11 O 0.0178 0.46635 0.24869 0.0
O12 O 0.01424 0.25204 0.24441 0.0
O13 O 0.16678 0.46992 0.20373 0.0
O14 O 0.15729 0.28592 0.11709 0.0
O15 O 0.09885 0.30271 0.32029 0.0
O16 O 0.19396 0.37621 0.12769 0.0
O17 O 0.14997 0.42503 0.29085 0.0
O18 O 0.14789 0.26467 0.24421 0.0
O19 O 0.03388 0.47448 0.15038 0.0
O20 O 0.02266 0.28839 0.10584 0.0
O21 O 0.98059 0.33985 0.27501 0.0
Sc22 Sc 0.40477 0.59534 0.63807 0.0
Sc23 Sc 0.45348 0.63159 0.78122 0.0
Sc24 Sc 0.43303 0.74213 0.67756 0.0
O25 O 0.43396 0.65544 0.69779 0.0
C26 C 0.48894 0.69044 0.56385 0.0
C27 C 0.51126 0.52835 0.69731 0.0
C28 C 0.53581 0.7335 0.77876 0.0
C29 C 0.3337 0.56152 0.75649 0.0
C30 C 0.31583 0.69593 0.6253 0.0
C31 C 0.38753 0.75593 0.79679 0.0
O32 O 0.45474 0.64425 0.5674 0.0
O33 O 0.4991 0.55053 0.74869 0.0
O34 O 0.50266 0.76484 0.74441 0.0
O35 O 0.35012 0.54696 0.70373 0.0
O36 O 0.35961 0.73096 0.61709 0.0
O37 O 0.41806 0.71417 0.82029 0.0
O38 O 0.32294 0.64067 0.62769 0.0
O39 O 0.36693 0.59185 0.79085 0.0
O40 O 0.36901 0.75222 0.74421 0.0
O41 O 0.48302 0.5424 0.65038 0.0
O42 O 0.49424 0.72849 0.60584 0.0
O43 O 0.53631 0.67703 0.77501 0.0
Sc44 Sc 0.58387 0.24213 0.83934 0.0
Sc45 Sc 0.56342 0.13159 0.73568 0.0
Sc46 Sc 0.61213 0.09534 0.87883 0.0
O47 O 0.58294 0.15544 0.81911 0.0
C48 C 0.70107 0.19593 0.8916 0.0
C49 C 0.62937 0.25593 0.7201 0.0
C50 C 0.6832 0.06152 0.76041 0.0
C51 C 0.48109 0.23351 0.73814 0.0
C52 C 0.52796 0.19045 0.95305 0.0
C53 C 0.50564 0.02835 0.81959 0.0
O54 O 0.65729 0.23097 0.89981 0.0
O55 O 0.59885 0.21417 0.69661 0.0
O56 O 0.66678 0.04696 0.81317 0.0
O57 O 0.51424 0.26484 0.77249 0.0
O58 O 0.56216 0.14425 0.94949 0.0
O59 O 0.5178 0.05053 0.76821 0.0
O60 O 0.52266 0.22849 0.91106 0.0
O61 O 0.48059 0.17703 0.74189 0.0
O62 O 0.53388 0.0424 0.86652 0.0
O63 O 0.64789 0.25222 0.77269 0.0
O64 O 0.69396 0.14067 0.88921 0.0
O65 O 0.64997 0.09185 0.72605 0.0
Sc66 Sc 0.93303 0.77475 0.33934 0.0
Sc67 Sc 0.95348 0.88529 0.23568 0.0
Sc68 Sc 0.90477 0.92154 0.37883 0.0
O69 O 0.93396 0.86144 0.31911 0.0
C70 C 0.81583 0.82095 0.3916 0.0
C71 C 0.88753 0.76096 0.2201 0.0
C72 C 0.8337 0.95536 0.26041 0.0
C73 C 0.03581 0.78338 0.23814 0.0
C74 C 0.98894 0.82644 0.45305 0.0
C75 C 0.01126 0.98853 0.31959 0.0
O76 O 0.85961 0.78592 0.39981 0.0
O77 O 0.91805 0.80271 0.19661 0.0
O78 O 0.85012 0.96992 0.31317 0.0
O79 O 1.00265 0.75204 0.27249 0.0
O80 O 0.95474 0.87263 0.44949 0.0
O81 O 0.9991 0.96635 0.26821 0.0
O82 O 0.99424 0.78839 0.41106 0.0
O83 O 0.03631 0.83985 0.24189 0.0
O84 O 0.98302 0.97448 0.36652 0.0
O85 O 0.86901 0.76467 0.27269 0.0
O86 O 0.82294 0.87621 0.38921 0.0
O87 O 0.86693 0.92503 0.22605 0.0
Sc88 Sc 0.13807 0.11211 0.42156 0.0
Sc89 Sc 0.28122 0.06341 0.3853 0.0
Sc90 Sc 0.17756 0.08385 0.27477 0.0
O91 O 0.19778 0.08292 0.36146 0.0
C92 C 0.06385 0.02795 0.32645 0.0
C93 C 0.19732 1.00562 0.48854 0.0
C94 C 0.27876 0.98108 0.28339 0.0
C95 C 0.25648 0.18318 0.45538 0.0
C96 C 0.12529 0.20104 0.32097 0.0
C97 C 0.29679 0.12936 0.26097 0.0
O98 O 0.0674 0.06214 0.37265 0.0
O99 O 0.24869 0.01778 0.46636 0.0
O100 O 0.24441 0.01423 0.25205 0.0
O101 O 0.20373 0.16676 0.46994 0.0
O102 O 0.11709 0.15726 0.28594 0.0
O103 O 0.32028 0.09884 0.30273 0.0
O104 O 0.12768 0.19393 0.37623 0.0
O105 O 0.29084 0.14995 0.42505 0.0
O106 O 0.2442 0.14787 0.26468 0.0
O107 O 0.15038 0.03386 0.4745 0.0
O108 O 0.10584 0.02264 0.28841 0.0
O109 O 0.27501 0.98058 0.33987 0.0
Sc110 Sc 0.33934 0.93303 0.77477 0.0
Sc111 Sc 0.23568 0.95347 0.8853 0.0
Sc112 Sc 0.37883 0.90478 0.92156 0.0
O113 O 0.31912 0.93396 0.86146 0.0
C114 C 0.39161 0.81584 0.82097 0.0
C115 C 0.22011 0.88752 0.76097 0.0
C116 C 0.26042 0.8337 0.95538 0.0
C117 C 0.23814 0.0358 0.78339 0.0
C118 C 0.45305 0.98894 0.82645 0.0
C119 C 0.31959 0.01127 0.98854 0.0
O120 O 0.39981 0.85962 0.78594 0.0
O121 O 0.19662 0.91805 0.80273 0.0
O122 O 0.31318 0.85012 0.96994 0.0
O123 O 0.27249 1.00265 0.75205 0.0
O124 O 0.4495 0.95474 0.87265 0.0
O125 O 0.26821 0.9991 0.96636 0.0
O126 O 0.41106 0.99425 0.78841 0.0
O127 O 0.24189 0.0363 0.83987 0.0
O128 O 0.36652 0.98302 0.9745 0.0
O129 O 0.2727 0.86901 0.76468 0.0
O130 O 0.38922 0.82295 0.87623 0.0
O131 O 0.22606 0.86693 0.92505 0.0
Sc132 Sc 0.67756 0.43303 0.74213 0.0
Sc133 Sc 0.78122 0.45347 0.6316 0.0
Sc134 Sc 0.63807 0.40478 0.59534 0.0
O135 O 0.69778 0.43396 0.65544 0.0
C136 C 0.62529 0.31584 0.69593 0.0
C137 C 0.79679 0.38752 0.75593 0.0
C138 C 0.75648 0.3337 0.56152 0.0
C139 C 0.77876 0.5358 0.73351 0.0
C140 C 0.56385 0.48894 0.69045 0.0
C141 C 0.69731 0.51127 0.52836 0.0
O142 O 0.61709 0.35962 0.73096 0.0
O143 O 0.82028 0.41805 0.71417 0.0
O144 O 0.70372 0.35012 0.54696 0.0
O145 O 0.74441 0.50265 0.76485 0.0
O146 O 0.5674 0.45474 0.64425 0.0
O147 O 0.74869 0.4991 0.55054 0.0
O148 O 0.60584 0.49425 0.72849 0.0
O149 O 0.77501 0.5363 0.67703 0.0
O150 O 0.65038 0.48302 0.5424 0.0
O151 O 0.7442 0.36901 0.75222 0.0
O152 O 0.62768 0.32295 0.64067 0.0
O153 O 0.79084 0.36693 0.59185 0.0
Sc154 Sc 0.87883 0.6121 0.09534 0.0
Sc155 Sc 0.73568 0.56341 0.1316 0.0
Sc156 Sc 0.83934 0.58385 0.24213 0.0
O157 O 0.81912 0.58292 0.15544 0.0
C158 C 0.95305 0.52795 0.19045 0.0
C159 C 0.81959 0.50561 0.02836 0.0
C160 C 0.73814 0.48108 0.23351 0.0
C161 C 0.76042 0.68318 0.06152 0.0
C162 C 0.89161 0.70104 0.19593 0.0
C163 C 0.72011 0.62936 0.25593 0.0
O164 O 0.9495 0.56214 0.14425 0.0
O165 O 0.76821 0.51778 0.05054 0.0
O166 O 0.77249 0.51423 0.26485 0.0
O167 O 0.81318 0.66676 0.04696 0.0
O168 O 0.89981 0.65726 0.23096 0.0
O169 O 0.69662 0.59884 0.21417 0.0
O170 O 0.88922 0.69393 0.14067 0.0
O171 O 0.72606 0.64995 0.09185 0.0
O172 O 0.7727 0.64787 0.25222 0.0
O173 O 0.86652 0.53386 0.0424 0.0
O174 O 0.91106 0.52264 0.22849 0.0
O175 O 0.74189 0.48058 0.17704 0.0
Sc176 Sc 0.42155 0.13807 0.11212 0.0
Sc177 Sc 0.3853 0.28121 0.06342 0.0
Sc178 Sc 0.27476 0.17756 0.08387 0.0
O179 O 0.36145 0.19778 0.08294 0.0
C180 C 0.32645 0.06385 0.02796 0.0
C181 C 0.48855 0.19731 1.00564 0.0
C182 C 0.28338 0.27876 0.9811 0.0
C183 C 0.45538 0.25648 0.1832 0.0
C184 C 0.32096 0.12529 0.20106 0.0
C185 C 0.26099 0.29679 0.12942 0.0
O186 O 0.37265 0.0674 0.06216 0.0
O187 O 0.46636 0.24869 0.01779 0.0
O188 O 0.25204 0.24441 0.01426 0.0
O189 O 0.46994 0.20372 0.16678 0.0
O190 O 0.28593 0.11707 0.15727 0.0
O191 O 0.30272 0.32027 0.09885 0.0
O192 O 0.37623 0.12768 0.19395 0.0
O193 O 0.42505 0.29084 0.14997 0.0
O194 O 0.26465 0.24419 0.1479 0.0
O195 O 0.4745 0.15038 0.03388 0.0
O196 O 0.28841 0.10585 0.02265 0.0
O197 O 0.33985 0.275 0.98059 0.0
Sc198 Sc 0.77476 0.33933 0.93303 0.0
Sc199 Sc 0.8853 0.23567 0.95348 0.0
Sc200 Sc 0.92155 0.37882 0.90478 0.0
O201 O 0.86145 0.3191 0.93396 0.0
C202 C 0.82096 0.3916 0.81584 0.0
C203 C 0.76099 0.2201 0.88748 0.0
C204 C 0.95538 0.2604 0.8337 0.0
C205 C 0.78338 0.23812 0.0358 0.0
C206 C 0.82645 0.45303 0.98894 0.0
C207 C 0.98855 0.31957 0.01126 0.0
O208 O 0.78593 0.39981 0.85963 0.0
O209 O 0.80272 0.19662 0.91805 0.0
O210 O 0.96994 0.31316 0.85012 0.0
O211 O 0.75204 0.27247 1.00264 0.0
O212 O 0.87265 0.44948 0.95474 0.0
O213 O 0.96636 0.2682 0.99911 0.0
O214 O 0.78841 0.41103 0.99425 0.0
O215 O 0.83985 0.24188 0.03631 0.0
O216 O 0.9745 0.3665 0.98302 0.0
O217 O 0.76466 0.27269 0.869 0.0
O218 O 0.87623 0.38921 0.82295 0.0
O219 O 0.92505 0.22604 0.86693 0.0
Sc220 Sc 0.74214 0.67755 0.43303 0.0
Sc221 Sc 0.6316 0.78121 0.45348 0.0
Sc222 Sc 0.59535 0.63806 0.40478 0.0
O223 O 0.65545 0.69778 0.43396 0.0
C224 C 0.69594 0.62528 0.31584 0.0
C225 C 0.75591 0.79679 0.38748 0.0
C226 C 0.56152 0.75648 0.3337 0.0
C227 C 0.73352 0.77876 0.5358 0.0
C228 C 0.69045 0.56385 0.48894 0.0
C229 C 0.52835 0.69731 0.51126 0.0
O230 O 0.73097 0.61707 0.35963 0.0
O231 O 0.71418 0.82027 0.41805 0.0
O232 O 0.54696 0.70372 0.35012 0.0
O233 O 0.76486 0.74441 0.50264 0.0
O234 O 0.64425 0.5674 0.45474 0.0
O235 O 0.55054 0.74868 0.49911 0.0
O236 O 0.72849 0.60585 0.49425 0.0
O237 O 0.67705 0.775 0.53631 0.0
O238 O 0.5424 0.65038 0.48302 0.0
O239 O 0.75224 0.74419 0.369 0.0
O240 O 0.64067 0.62767 0.32295 0.0
O241 O 0.59185 0.79084 0.36693 0.0
Sc242 Sc 0.09535 0.87882 0.61212 0.0
Sc243 Sc 0.1316 0.73567 0.56342 0.0
Sc244 Sc 0.24214 0.83933 0.58387 0.0
O245 O 0.15545 0.8191 0.58294 0.0
C246 C 0.19045 0.95303 0.52796 0.0
C247 C 0.02835 0.81957 0.50564 0.0
C248 C 0.23352 0.73813 0.4811 0.0
C249 C 0.06152 0.7604 0.6832 0.0
C250 C 0.19594 0.8916 0.70106 0.0
C251 C 0.25591 0.7201 0.62942 0.0
O252 O 0.14425 0.94948 0.56216 0.0
O253 O 0.05054 0.7682 0.51779 0.0
O254 O 0.26486 0.77247 0.51426 0.0
O255 O 0.04696 0.81316 0.66678 0.0
O256 O 0.23097 0.89981 0.65727 0.0
O257 O 0.21418 0.69662 0.59885 0.0
O258 O 0.14067 0.88921 0.69395 0.0
O259 O 0.09185 0.72604 0.64996 0.0
O260 O 0.25225 0.7727 0.6479 0.0
O261 O 0.0424 0.8665 0.53388 0.0
O262 O 0.22849 0.91104 0.52265 0.0
O263 O 0.17705 0.74188 0.48059 0.0
Sc264 Sc 0.93302 0.74213 0.83933 0.0
Sc265 Sc 0.95348 0.63159 0.73568 0.0
Sc266 Sc 0.90478 0.59534 0.87883 0.0
O267 O 0.93397 0.65544 0.81911 0.0
C268 C 0.98894 0.69045 0.95304 0.0
C269 C 0.03583 0.73351 0.73816 0.0
C270 C 0.01127 0.52835 0.81958 0.0
C271 C 0.88752 0.75592 0.72009 0.0
C272 C 0.81582 0.69593 0.89159 0.0
C273 C 0.83369 0.56154 0.76042 0.0
O274 O 0.99423 0.72849 0.91106 0.0
O275 O 0.03631 0.67703 0.74188 0.0
O276 O 0.98303 0.5424 0.86652 0.0
O277 O 0.86901 0.75222 0.77268 0.0
O278 O 0.82295 0.64066 0.8892 0.0
O279 O 0.86693 0.59186 0.72605 0.0
O280 O 0.8596 0.73097 0.89979 0.0
O281 O 0.91806 0.71417 0.69661 0.0
O282 O 0.85014 0.54695 0.81317 0.0
O283 O 1.00265 0.76484 0.77249 0.0
O284 O 0.95474 0.64425 0.94949 0.0
O285 O 0.9991 0.55053 0.7682 0.0
Sc286 Sc 0.58388 0.27475 0.33933 0.0
Sc287 Sc 0.56342 0.38529 0.23568 0.0
Sc288 Sc 0.61212 0.42154 0.37883 0.0
O289 O 0.58293 0.36144 0.31911 0.0
C290 C 0.52796 0.32643 0.45305 0.0
C291 C 0.48107 0.28338 0.23816 0.0
C292 C 0.50563 0.48853 0.31958 0.0
C293 C 0.62938 0.26096 0.22009 0.0
C294 C 0.70108 0.32096 0.39159 0.0
C295 C 0.6832 0.45534 0.26042 0.0
O296 O 0.52267 0.28839 0.41106 0.0
O297 O 0.48059 0.33986 0.24188 0.0
O298 O 0.53387 0.47448 0.36652 0.0
O299 O 0.64789 0.26466 0.27268 0.0
O300 O 0.69395 0.37622 0.3892 0.0
O301 O 0.64997 0.42502 0.22605 0.0
O302 O 0.6573 0.28591 0.3998 0.0
O303 O 0.59884 0.30271 0.19661 0.0
O304 O 0.66676 0.46993 0.31317 0.0
O305 O 0.51425 0.25204 0.27249 0.0
O306 O 0.56216 0.37263 0.44949 0.0
O307 O 0.5178 0.46635 0.26821 0.0
Sc308 Sc 0.43302 0.77475 0.17757 0.0
Sc309 Sc 0.45348 0.88529 0.28122 0.0
Sc310 Sc 0.40478 0.92154 0.13807 0.0
O311 O 0.43397 0.86144 0.19779 0.0
C312 C 0.48894 0.82643 0.06385 0.0
C313 C 0.53583 0.78338 0.27874 0.0
C314 C 0.51127 0.98853 0.19732 0.0
C315 C 0.38752 0.76096 0.29681 0.0
C316 C 0.31582 0.82096 0.12531 0.0
C317 C 0.3337 0.95534 0.25648 0.0
O318 O 0.49423 0.78839 0.10584 0.0
O319 O 0.53631 0.83985 0.27502 0.0
O320 O 0.48303 0.97448 0.15038 0.0
O321 O 0.36901 0.76466 0.24422 0.0
O322 O 0.32295 0.87622 0.1277 0.0
O323 O 0.36693 0.92502 0.29085 0.0
O324 O 0.3596 0.78591 0.11711 0.0
O325 O 0.41806 0.80271 0.32029 0.0
O326 O 0.35014 0.96993 0.20373 0.0
O327 O 0.50265 0.75204 0.24441 0.0
O328 O 0.45474 0.87263 0.06741 0.0
O329 O 0.4991 0.96635 0.24869 0.0
Sc330 Sc 0.08388 0.24213 0.67757 0.0
Sc331 Sc 0.06342 0.13159 0.78122 0.0
Sc332 Sc 0.11212 0.09534 0.63807 0.0
O333 O 0.08293 0.15544 0.69779 0.0
C334 C 0.02796 0.19045 0.56386 0.0
C335 C 0.98107 0.2335 0.77874 0.0
C336 C 1.00563 0.02835 0.69732 0.0
C337 C 0.12938 0.25592 0.79681 0.0
C338 C 0.20108 0.19593 0.62531 0.0
C339 C 0.1832 0.06154 0.75648 0.0
O340 O 0.02267 0.22849 0.60584 0.0
O341 O 0.98059 0.17703 0.77502 0.0
O342 O 0.03387 0.0424 0.65038 0.0
O343 O 0.14789 0.25222 0.74422 0.0
O344 O 0.19395 0.14066 0.6277 0.0
O345 O 0.14997 0.09186 0.79085 0.0
O346 O 0.1573 0.23097 0.61711 0.0
O347 O 0.09884 0.21417 0.82029 0.0
O348 O 0.16676 0.04695 0.70373 0.0
O349 O 0.01425 0.26484 0.74441 0.0
O350 O 0.06216 0.14425 0.56741 0.0
O351 O 0.0178 0.05053 0.74869 0.0
Sc352 Sc 0.87883 0.90478 0.59534 0.0
Sc353 Sc 0.73568 0.95348 0.6316 0.0
Sc354 Sc 0.83933 0.93303 0.74214 0.0
O355 O 0.81911 0.93397 0.65544 0.0
C356 C 0.89159 0.81584 0.69593 0.0
C357 C 0.76043 0.83369 0.56154 0.0
C358 C 0.72009 0.88752 0.75592 0.0
C359 C 0.81958 0.01127 0.52835 0.0
C360 C 0.95305 0.98893 0.69046 0.0
C361 C 0.73816 0.03582 0.73351 0.0
O362 O 0.88922 0.82295 0.64066 0.0
O363 O 0.72606 0.86693 0.59185 0.0
O364 O 0.77268 0.86901 0.75222 0.0
O365 O 0.86652 0.98303 0.5424 0.0
O366 O 0.91106 0.99424 0.7285 0.0
O367 O 0.74188 0.03631 0.67703 0.0
O368 O 0.94949 0.95474 0.64425 0.0
O369 O 0.7682 0.9991 0.55053 0.0
O370 O 0.77249 1.00265 0.76485 0.0
O371 O 0.81317 0.85014 0.54695 0.0
O372 O 0.8998 0.85961 0.73097 0.0
O373 O 0.69661 0.91806 0.71417 0.0
Sc374 Sc 0.67757 0.08386 0.24214 0.0
Sc375 Sc 0.78122 0.06341 0.1316 0.0
Sc376 Sc 0.63807 0.1121 0.09534 0.0
O377 O 0.69779 0.08292 0.15544 0.0
C378 C 0.56385 0.02795 0.19046 0.0
C379 C 0.77874 0.98106 0.23351 0.0
C380 C 0.69732 1.00561 0.02835 0.0
C381 C 0.7968 0.12937 0.25592 0.0
C382 C 0.62531 0.20105 0.19593 0.0
C383 C 0.75647 0.18319 0.06154 0.0
O384 O 0.60584 0.02264 0.2285 0.0
O385 O 0.77502 0.98057 0.17703 0.0
O386 O 0.65038 0.03385 0.0424 0.0
O387 O 0.74422 0.14787 0.25222 0.0
O388 O 0.62768 0.19393 0.14066 0.0
O389 O 0.79084 0.14996 0.09185 0.0
O390 O 0.6171 0.15727 0.23097 0.0
O391 O 0.82029 0.09883 0.21417 0.0
O392 O 0.70372 0.16675 0.04695 0.0
O393 O 0.74441 0.01423 0.26485 0.0
O394 O 0.56741 0.06214 0.14425 0.0
O395 O 0.7487 0.01778 0.05053 0.0
Sc396 Sc 0.33933 0.58385 0.27476 0.0
Sc397 Sc 0.23568 0.56341 0.38531 0.0
Sc398 Sc 0.37883 0.6121 0.42156 0.0
O399 O 0.31911 0.58292 0.36146 0.0
C400 C 0.45305 0.52795 0.32644 0.0
C401 C 0.23816 0.48106 0.28339 0.0
C402 C 0.31958 0.50561 0.48855 0.0
C403 C 0.2201 0.62936 0.26098 0.0
C404 C 0.39159 0.70105 0.32097 0.0
C405 C 0.26043 0.68319 0.45536 0.0
O406 O 0.41106 0.52264 0.28841 0.0
O407 O 0.24188 0.48057 0.33987 0.0
O408 O 0.36652 0.53385 0.4745 0.0
O409 O 0.27269 0.64787 0.26468 0.0
O410 O 0.38922 0.69393 0.37624 0.0
O411 O 0.22606 0.64996 0.42505 0.0
O412 O 0.3998 0.65727 0.28593 0.0
O413 O 0.19662 0.59883 0.30273 0.0
O414 O 0.31318 0.66675 0.46995 0.0
O415 O 0.27249 0.51423 0.25205 0.0
O416 O 0.44949 0.56214 0.37265 0.0
O417 O 0.26821 0.51778 0.46637 0.0
Sc418 Sc 0.13807 0.40478 0.92156 0.0
Sc419 Sc 0.28122 0.45348 0.8853 0.0
Sc420 Sc 0.17757 0.43303 0.77476 0.0
O421 O 0.19779 0.43397 0.86146 0.0
C422 C 0.12531 0.31584 0.82097 0.0
C423 C 0.25647 0.3337 0.95536 0.0
C424 C 0.2968 0.38752 0.76098 0.0
C425 C 0.19732 0.51127 0.98854 0.0
C426 C 0.06385 0.48893 0.82644 0.0
C427 C 0.27874 0.53582 0.78339 0.0
O428 O 0.12768 0.32295 0.87624 0.0
O429 O 0.29084 0.36693 0.92505 0.0
O430 O 0.24421 0.36901 0.76468 0.0
O431 O 0.15038 0.48303 0.9745 0.0
O432 O 0.10584 0.49424 0.7884 0.0
O433 O 0.27502 0.53631 0.83987 0.0
O434 O 0.06741 0.45474 0.87265 0.0
O435 O 0.24869 0.4991 0.96637 0.0
O436 O 0.24441 0.50265 0.75205 0.0
O437 O 0.20372 0.35014 0.96995 0.0
O438 O 0.1171 0.35961 0.78593 0.0
O439 O 0.32029 0.41806 0.80273 0.0
Sc440 Sc 0.59535 0.87881 0.90478 0.0
Sc441 Sc 0.6316 0.73567 0.95348 0.0
Sc442 Sc 0.74214 0.83932 0.93303 0.0
O443 O 0.65545 0.8191 0.93396 0.0
C444 C 0.69593 0.89158 0.81584 0.0
C445 C 0.56154 0.76041 0.8337 0.0
C446 C 0.7559 0.72008 0.88747 0.0
C447 C 0.52835 0.81956 0.01126 0.0
C448 C 0.69046 0.95303 0.98894 0.0
C449 C 0.73352 0.73815 0.03582 0.0
O450 O 0.64067 0.8892 0.82295 0.0
O451 O 0.59186 0.72604 0.86693 0.0
O452 O 0.75225 0.77268 0.869 0.0
O453 O 0.5424 0.8665 0.98303 0.0
O454 O 0.72849 0.91103 0.99425 0.0
O455 O 0.67704 0.74187 0.03631 0.0
O456 O 0.64425 0.94947 0.95475 0.0
O457 O 0.55054 0.76819 0.99911 0.0
O458 O 0.76486 0.77247 1.00264 0.0
O459 O 0.54696 0.81316 0.85013 0.0
O460 O 0.73097 0.89979 0.85962 0.0
O461 O 0.71418 0.69661 0.91806 0.0
Sc462 Sc 0.24214 0.67756 0.08388 0.0
Sc463 Sc 0.1316 0.78121 0.06342 0.0
Sc464 Sc 0.09535 0.63807 0.11212 0.0
O465 O 0.15545 0.69778 0.08294 0.0
C466 C 0.19046 0.56385 0.02796 0.0
C467 C 0.23352 0.77874 0.98108 0.0
C468 C 0.02835 0.69732 1.00564 0.0
C469 C 0.2559 0.7968 0.12943 0.0
C470 C 0.19593 0.6253 0.20106 0.0
C471 C 0.06154 0.75647 0.1832 0.0
O472 O 0.22849 0.60585 0.02265 0.0
O473 O 0.17704 0.77501 0.98059 0.0
O474 O 0.0424 0.65038 0.03387 0.0
O475 O 0.25225 0.7442 0.1479 0.0
O476 O 0.14067 0.62768 0.19395 0.0
O477 O 0.09186 0.79084 0.14997 0.0
O478 O 0.23097 0.61709 0.15728 0.0
O479 O 0.21418 0.82027 0.09884 0.0
O480 O 0.04696 0.70372 0.16677 0.0
O481 O 0.26486 0.74441 0.01426 0.0
O482 O 0.14425 0.56741 0.06215 0.0
O483 O 0.05054 0.74869 0.01779 0.0
Sc484 Sc 0.27476 0.33932 0.58387 0.0
Sc485 Sc 0.3853 0.23567 0.56342 0.0
Sc486 Sc 0.42155 0.37881 0.61212 0.0
O487 O 0.36145 0.3191 0.58294 0.0
C488 C 0.32644 0.45303 0.52796 0.0
C489 C 0.28338 0.23815 0.48108 0.0
C490 C 0.48855 0.31956 0.50564 0.0
C491 C 0.261 0.22008 0.62943 0.0
C492 C 0.32097 0.39159 0.70106 0.0
C493 C 0.45536 0.26041 0.6832 0.0
O494 O 0.28841 0.41103 0.52265 0.0
O495 O 0.33986 0.24187 0.48059 0.0
O496 O 0.4745 0.3665 0.53387 0.0
O497 O 0.26465 0.27268 0.6479 0.0
O498 O 0.37623 0.38921 0.69395 0.0
O499 O 0.42504 0.22604 0.64997 0.0
O500 O 0.28593 0.3998 0.65728 0.0
O501 O 0.30272 0.19661 0.59884 0.0
O502 O 0.46994 0.31316 0.66677 0.0
O503 O 0.25204 0.27247 0.51426 0.0
O504 O 0.37265 0.44948 0.56216 0.0
O505 O 0.46636 0.26819 0.51779 0.0
Sc506 Sc 0.92155 0.13807 0.40478 0.0
Sc507 Sc 0.8853 0.28121 0.45348 0.0
Sc508 Sc 0.77476 0.17756 0.43302 0.0
O509 O 0.86145 0.19778 0.43396 0.0
C510 C 0.82097 0.1253 0.31584 0.0
C511 C 0.95536 0.25647 0.3337 0.0
C512 C 0.761 0.2968 0.38747 0.0
C513 C 0.98855 0.19732 0.51126 0.0
C514 C 0.82644 0.06385 0.48894 0.0
C515 C 0.78337 0.27874 0.53582 0.0
O516 O 0.87623 0.12768 0.32295 0.0
O517 O 0.92504 0.29084 0.36693 0.0
O518 O 0.76465 0.2442 0.369 0.0
O519 O 0.9745 0.15038 0.48303 0.0
O520 O 0.7884 0.10585 0.49425 0.0
O521 O 0.83986 0.27501 0.53631 0.0
O522 O 0.87265 0.06741 0.45475 0.0
O523 O 0.96636 0.24869 0.49911 0.0
O524 O 0.75204 0.24441 0.50264 0.0
O525 O 0.96994 0.20372 0.35013 0.0
O526 O 0.78593 0.11709 0.35962 0.0
O527 O 0.80272 0.32027 0.41806 0.0
loop_
_geom_bond_atom_site_label_1
_geom_bond_atom_site_label_2
_geom_bond_distance
_geom_bond_site_symmetry_2
_ccdc_geom_bond_type
Sc0 O3 2.025 . S
Sc0 O10 2.105 1_455 S
Sc0 O13 2.105 . S
Sc0 O16 2.105 . S
Sc0 O19 2.105 1_455 S
Sc1 O3 2.025 . S
Sc1 O11 2.105 1_455 S
Sc1 O15 2.105 . S
Sc1 O17 2.105 . S
Sc1 O21 2.105 1_455 S
Sc2 O3 2.025 . S
Sc2 O12 2.105 1_455 S
Sc2 O14 2.105 . S
Sc2 O18 2.105 . S
Sc2 O20 2.105 1_455 S
O3 Sc0 2.025 . S
O3 Sc1 2.025 . S
O3 Sc2 2.025 . S
C4 O10 1.268 . S
C4 O20 1.268 . S
C5 O11 1.268 . S
C5 O19 1.268 . S
C6 O12 1.268 . S
C6 O21 1.268 . S
C7 O13 1.268 . S
C7 O17 1.268 . S
C8 O14 1.268 . S
C8 O16 1.268 . S
C9 O15 1.268 . S
C9 O18 1.268 . S
O10 Sc0 2.105 1_655 S
O10 C4 1.268 . S
O11 Sc1 2.105 1_655 S
O11 C5 1.268 . S
O12 Sc2 2.105 1_655 S
O12 C6 1.268 . S
O13 Sc0 2.105 . S
O13 C7 1.268 . S
O14 Sc2 2.105 . S
O14 C8 1.268 . S
O15 Sc1 2.105 . S
O15 C9 1.268 . S
O16 Sc0 2.105 . S
O16 C8 1.268 . S
O17 Sc1 2.105 . S
O17 C7 1.268 . S
O18 Sc2 2.105 . S
O18 C9 1.268 . S
O19 Sc0 2.105 1_655 S
O19 C5 1.268 . S
O20 Sc2 2.105 1_655 S
O20 C4 1.268 . S
O21 Sc1 2.105 1_655 S
O21 C6 1.268 . S
Sc22 O25 2.025 . S
Sc22 O32 2.105 . S
Sc22 O35 2.105 . S
Sc22 O38 2.105 . S
Sc22 O41 2.105 . S
Sc23 O25 2.025 . S
Sc23 O33 2.105 . S
Sc23 O37 2.105 . S
Sc23 O39 2.105 . S
Sc23 O43 2.105 . S
Sc24 O25 2.025 . S
Sc24 O34 2.105 . S
Sc24 O36 2.105 . S
Sc24 O40 2.105 . S
Sc24 O42 2.105 . S
O25 Sc22 2.025 . S
O25 Sc23 2.025 . S
O25 Sc24 2.025 . S
C26 O32 1.268 . S
C26 O42 1.268 . S
C27 O33 1.268 . S
C27 O41 1.268 . S
C28 O34 1.268 . S
C28 O43 1.268 . S
C29 O35 1.268 . S
C29 O39 1.268 . S
C30 O36 1.268 . S
C30 O38 1.268 . S
C31 O37 1.268 . S
C31 O40 1.268 . S
O32 Sc22 2.105 . S
O32 C26 1.268 . S
O33 Sc23 2.105 . S
O33 C27 1.268 . S
O34 Sc24 2.105 . S
O34 C28 1.268 . S
O35 Sc22 2.105 . S
O35 C29 1.268 . S
O36 Sc24 2.105 . S
O36 C30 1.268 . S
O37 Sc23 2.105 . S
O37 C31 1.268 . S
O38 Sc22 2.105 . S
O38 C30 1.268 . S
O39 Sc23 2.105 . S
O39 C29 1.268 . S
O40 Sc24 2.105 . S
O40 C31 1.268 . S
O41 Sc22 2.105 . S
O41 C27 1.268 . S
O42 Sc24 2.105 . S
O42 C26 1.268 . S
O43 Sc23 2.105 . S
O43 C28 1.268 . S
Sc44 O47 2.025 . S
Sc44 O54 2.105 . S
Sc44 O57 2.105 . S
Sc44 O60 2.105 . S
Sc44 O63 2.105 . S
Sc45 O47 2.025 . S
Sc45 O55 2.105 . S
Sc45 O59 2.105 . S
Sc45 O61 2.105 . S
Sc45 O65 2.105 . S
Sc46 O47 2.025 . S
Sc46 O56 2.105 . S
Sc46 O58 2.105 . S
Sc46 O62 2.105 . S
Sc46 O64 2.105 . S
O47 Sc44 2.025 . S
O47 Sc45 2.025 . S
O47 Sc46 2.025 . S
C48 O54 1.268 . S
C48 O64 1.268 . S
C49 O55 1.268 . S
C49 O63 1.268 . S
C50 O56 1.268 . S
C50 O65 1.268 . S
C51 O57 1.268 . S
C51 O61 1.268 . S
C52 O58 1.268 . S
C52 O60 1.268 . S
C53 O59 1.268 . S
C53 O62 1.268 . S
O54 Sc44 2.105 . S
O54 C48 1.268 . S
O55 Sc45 2.105 . S
O55 C49 1.268 . S
O56 Sc46 2.105 . S
O56 C50 1.268 . S
O57 Sc44 2.105 . S
O57 C51 1.268 . S
O58 Sc46 2.105 . S
O58 C52 1.268 . S
O59 Sc45 2.105 . S
O59 C53 1.268 . S
O60 Sc44 2.105 . S
O60 C52 1.268 . S
O61 Sc45 2.105 . S
O61 C51 1.268 . S
O62 Sc46 2.105 . S
O62 C53 1.268 . S
O63 Sc44 2.105 . S
O63 C49 1.268 . S
O64 Sc46 2.105 . S
O64 C48 1.268 . S
O65 Sc45 2.105 . S
O65 C50 1.268 . S
Sc66 O69 2.025 . S
Sc66 O76 2.105 . S
Sc66 O79 2.105 1_655 S
Sc66 O82 2.105 1_655 S
Sc66 O85 2.105 . S
Sc67 O69 2.025 . S
Sc67 O77 2.105 . S
Sc67 O81 2.105 1_655 S
Sc67 O83 2.105 1_655 S
Sc67 O87 2.105 . S
Sc68 O69 2.025 . S
Sc68 O78 2.105 . S
Sc68 O80 2.105 1_655 S
Sc68 O84 2.105 1_655 S
Sc68 O86 2.105 . S
O69 Sc66 2.025 . S
O69 Sc67 2.025 . S
O69 Sc68 2.025 . S
C70 O76 1.268 . S
C70 O86 1.268 . S
C71 O77 1.268 . S
C71 O85 1.268 . S
C72 O78 1.268 . S
C72 O87 1.268 . S
C73 O79 1.268 . S
C73 O83 1.268 . S
C74 O80 1.268 . S
C74 O82 1.268 . S
C75 O81 1.268 . S
C75 O84 1.268 . S
O76 Sc66 2.105 . S
O76 C70 1.268 . S
O77 Sc67 2.105 . S
O77 C71 1.268 . S
O78 Sc68 2.105 . S
O78 C72 1.268 . S
O79 Sc66 2.105 1_455 S
O79 C73 1.268 . S
O80 Sc68 2.105 1_455 S
O80 C74 1.268 . S
O81 Sc67 2.105 1_455 S
O81 C75 1.268 . S
O82 Sc66 2.105 1_455 S
O82 C74 1.268 . S
O83 Sc67 2.105 1_455 S
O83 C73 1.268 . S
O84 Sc68 2.105 1_455 S
O84 C75 1.268 . S
O85 Sc66 2.105 . S
O85 C71 1.268 . S
O86 Sc68 2.105 . S
O86 C70 1.268 . S
O87 Sc67 2.105 . S
O87 C72 1.268 . S
Sc88 O91 2.025 . S
Sc88 O98 2.105 1_545 S
Sc88 O101 2.105 . S
Sc88 O104 2.105 . S
Sc88 O107 2.105 1_545 S
Sc89 O91 2.025 . S
Sc89 O99 2.105 1_545 S
Sc89 O103 2.105 . S
Sc89 O105 2.105 . S
Sc89 O109 2.105 1_545 S
Sc90 O91 2.025 . S
Sc90 O100 2.105 1_545 S
Sc90 O102 2.105 . S
Sc90 O106 2.105 . S
Sc90 O108 2.105 1_545 S
O91 Sc88 2.025 . S
O91 Sc89 2.025 . S
O91 Sc90 2.025 . S
C92 O98 1.268 . S
C92 O108 1.268 . S
C93 O99 1.268 . S
C93 O107 1.268 . S
C94 O100 1.268 . S
C94 O109 1.268 . S
C95 O101 1.268 . S
C95 O105 1.268 . S
C96 O102 1.268 . S
C96 O104 1.268 . S
C97 O103 1.268 . S
C97 O106 1.268 . S
O98 Sc88 2.105 1_565 S
O98 C92 1.268 . S
O99 Sc89 2.105 1_565 S
O99 C93 1.268 . S
O100 Sc90 2.105 1_565 S
O100 C94 1.268 . S
O101 Sc88 2.105 . S
O101 C95 1.268 . S
O102 Sc90 2.105 . S
O102 C96 1.268 . S
O103 Sc89 2.105 . S
O103 C97 1.268 . S
O104 Sc88 2.105 . S
O104 C96 1.268 . S
O105 Sc89 2.105 . S
O105 C95 1.268 . S
O106 Sc90 2.105 . S
O106 C97 1.268 . S
O107 Sc88 2.105 1_565 S
O107 C93 1.268 . S
O108 Sc90 2.105 1_565 S
O108 C92 1.268 . S
O109 Sc89 2.105 1_565 S
O109 C94 1.268 . S
Sc110 O113 2.025 . S
Sc110 O120 2.105 . S
Sc110 O123 2.105 1_565 S
Sc110 O126 2.105 1_565 S
Sc110 O129 2.105 . S
Sc111 O113 2.025 . S
Sc111 O121 2.105 . S
Sc111 O125 2.105 1_565 S
Sc111 O127 2.105 1_565 S
Sc111 O131 2.105 . S
Sc112 O113 2.025 . S
Sc112 O122 2.105 . S
Sc112 O124 2.105 1_565 S
Sc112 O128 2.105 1_565 S
Sc112 O130 2.105 . S
O113 Sc110 2.025 . S
O113 Sc111 2.025 . S
O113 Sc112 2.025 . S
C114 O120 1.268 . S
C114 O130 1.268 . S
C115 O121 1.268 . S
C115 O129 1.268 . S
C116 O122 1.268 . S
C116 O131 1.268 . S
C117 O123 1.268 . S
C117 O127 1.268 . S
C118 O124 1.268 . S
C118 O126 1.268 . S
C119 O125 1.268 . S
C119 O128 1.268 . S
O120 Sc110 2.105 . S
O120 C114 1.268 . S
O121 Sc111 2.105 . S
O121 C115 1.268 . S
O122 Sc112 2.105 . S
O122 C116 1.268 . S
O123 Sc110 2.105 1_545 S
O123 C117 1.268 . S
O124 Sc112 2.105 1_545 S
O124 C118 1.268 . S
O125 Sc111 2.105 1_545 S
O125 C119 1.268 . S
O126 Sc110 2.105 1_545 S
O126 C118 1.268 . S
O127 Sc111 2.105 1_545 S
O127 C117 1.268 . S
O128 Sc112 2.105 1_545 S
O128 C119 1.268 . S
O129 Sc110 2.105 . S
O129 C115 1.268 . S
O130 Sc112 2.105 . S
O130 C114 1.268 . S
O131 Sc111 2.105 . S
O131 C116 1.268 . S
Sc132 O135 2.025 . S
Sc132 O142 2.105 . S
Sc132 O145 2.105 . S
Sc132 O148 2.105 . S
Sc132 O151 2.105 . S
Sc133 O135 2.025 . S
Sc133 O143 2.105 . S
Sc133 O147 2.105 . S
Sc133 O149 2.105 . S
Sc133 O153 2.105 . S
Sc134 O135 2.025 . S
Sc134 O144 2.105 . S
Sc134 O146 2.105 . S
Sc134 O150 2.105 . S
Sc134 O152 2.105 . S
O135 Sc132 2.025 . S
O135 Sc133 2.025 . S
O135 Sc134 2.025 . S
C136 O142 1.268 . S
C136 O152 1.268 . S
C137 O143 1.268 . S
C137 O151 1.268 . S
C138 O144 1.268 . S
C138 O153 1.268 . S
C139 O145 1.268 . S
C139 O149 1.268 . S
C140 O146 1.268 . S
C140 O148 1.268 . S
C141 O147 1.268 . S
C141 O150 1.268 . S
O142 Sc132 2.105 . S
O142 C136 1.268 . S
O143 Sc133 2.105 . S
O143 C137 1.268 . S
O144 Sc134 2.105 . S
O144 C138 1.268 . S
O145 Sc132 2.105 . S
O145 C139 1.268 . S
O146 Sc134 2.105 . S
O146 C140 1.268 . S
O147 Sc133 2.105 . S
O147 C141 1.268 . S
O148 Sc132 2.105 . S
O148 C140 1.268 . S
O149 Sc133 2.105 . S
O149 C139 1.268 . S
O150 Sc134 2.105 . S
O150 C141 1.268 . S
O151 Sc132 2.105 . S
O151 C137 1.268 . S
O152 Sc134 2.105 . S
O152 C136 1.268 . S
O153 Sc133 2.105 . S
O153 C138 1.268 . S
Sc154 O157 2.025 . S
Sc154 O164 2.105 . S
Sc154 O167 2.105 . S
Sc154 O170 2.105 . S
Sc154 O173 2.105 . S
Sc155 O157 2.025 . S
Sc155 O165 2.105 . S
Sc155 O169 2.105 . S
Sc155 O171 2.105 . S
Sc155 O175 2.105 . S
Sc156 O157 2.025 . S
Sc156 O166 2.105 . S
Sc156 O168 2.105 . S
Sc156 O172 2.105 . S
Sc156 O174 2.105 . S
O157 Sc154 2.025 . S
O157 Sc155 2.025 . S
O157 Sc156 2.025 . S
C158 O164 1.268 . S
C158 O174 1.268 . S
C159 O165 1.268 . S
C159 O173 1.268 . S
C160 O166 1.268 . S
C160 O175 1.268 . S
C161 O167 1.268 . S
C161 O171 1.268 . S
C162 O168 1.268 . S
C162 O170 1.268 . S
C163 O169 1.268 . S
C163 O172 1.268 . S
O164 Sc154 2.105 . S
O164 C158 1.268 . S
O165 Sc155 2.105 . S
O165 C159 1.268 . S
O166 Sc156 2.105 . S
O166 C160 1.268 . S
O167 Sc154 2.105 . S
O167 C161 1.268 . S
O168 Sc156 2.105 . S
O168 C162 1.268 . S
O169 Sc155 2.105 . S
O169 C163 1.268 . S
O170 Sc154 2.105 . S
O170 C162 1.268 . S
O171 Sc155 2.105 . S
O171 C161 1.268 . S
O172 Sc156 2.105 . S
O172 C163 1.268 . S
O173 Sc154 2.105 . S
O173 C159 1.268 . S
O174 Sc156 2.105 . S
O174 C158 1.268 . S
O175 Sc155 2.105 . S
O175 C160 1.268 . S
Sc176 O179 2.025 . S
Sc176 O186 2.105 1_554 S
Sc176 O189 2.105 . S
Sc176 O192 2.105 . S
Sc176 O195 2.105 1_554 S
Sc177 O179 2.025 . S
Sc177 O187 2.105 1_554 S
Sc177 O191 2.105 . S
Sc177 O193 2.105 . S
Sc177 O197 2.105 1_554 S
Sc178 O179 2.025 . S
Sc178 O188 2.105 1_554 S
Sc178 O190 2.105 . S
Sc178 O194 2.105 . S
Sc178 O196 2.105 1_554 S
O179 Sc176 2.025 . S
O179 Sc177 2.025 . S
O179 Sc178 2.025 . S
C180 O186 1.268 . S
C180 O196 1.268 . S
C181 O187 1.268 . S
C181 O195 1.268 . S
C182 O188 1.268 . S
C182 O197 1.268 . S
C183 O189 1.268 . S
C183 O193 1.268 . S
C184 O190 1.268 . S
C184 O192 1.268 . S
C185 O191 1.268 . S
C185 O194 1.268 . S
O186 Sc176 2.105 1_556 S
O186 C180 1.268 . S
O187 Sc177 2.105 1_556 S
O187 C181 1.268 . S
O188 Sc178 2.105 1_556 S
O188 C182 1.268 . S
O189 Sc176 2.105 . S
O189 C183 1.268 . S
O190 Sc178 2.105 . S
O190 C184 1.268 . S
O191 Sc177 2.105 . S
O191 C185 1.268 . S
O192 Sc176 2.105 . S
O192 C184 1.268 . S
O193 Sc177 2.105 . S
O193 C183 1.268 . S
O194 Sc178 2.105 . S
O194 C185 1.268 . S
O195 Sc176 2.105 1_556 S
O195 C181 1.268 . S
O196 Sc178 2.105 1_556 S
O196 C180 1.268 . S
O197 Sc177 2.105 1_556 S
O197 C182 1.268 . S
Sc198 O201 2.025 . S
Sc198 O208 2.105 . S
Sc198 O211 2.105 1_556 S
Sc198 O214 2.105 1_556 S
Sc198 O217 2.105 . S
Sc199 O201 2.025 . S
Sc199 O209 2.105 . S
Sc199 O213 2.105 1_556 S
Sc199 O215 2.105 1_556 S
Sc199 O219 2.105 . S
Sc200 O201 2.025 . S
Sc200 O210 2.105 . S
Sc200 O212 2.105 1_556 S
Sc200 O216 2.105 1_556 S
Sc200 O218 2.105 . S
O201 Sc198 2.025 . S
O201 Sc199 2.025 . S
O201 Sc200 2.025 . S
C202 O208 1.268 . S
C202 O218 1.268 . S
C203 O209 1.268 . S
C203 O217 1.268 . S
C204 O210 1.268 . S
C204 O219 1.268 . S
C205 O211 1.268 . S
C205 O215 1.268 . S
C206 O212 1.268 . S
C206 O214 1.268 . S
C207 O213 1.268 . S
C207 O216 1.268 . S
O208 Sc198 2.105 . S
O208 C202 1.268 . S
O209 Sc199 2.105 . S
O209 C203 1.268 . S
O210 Sc200 2.105 . S
O210 C204 1.268 . S
O211 Sc198 2.105 1_554 S
O211 C205 1.268 . S
O212 Sc200 2.105 1_554 S
O212 C206 1.268 . S
O213 Sc199 2.105 1_554 S
O213 C207 1.268 . S
O214 Sc198 2.105 1_554 S
O214 C206 1.268 . S
O215 Sc199 2.105 1_554 S
O215 C205 1.268 . S
O216 Sc200 2.105 1_554 S
O216 C207 1.268 . S
O217 Sc198 2.105 . S
O217 C203 1.268 . S
O218 Sc200 2.105 . S
O218 C202 1.268 . S
O219 Sc199 2.105 . S
O219 C204 1.268 . S
Sc220 O223 2.025 . S
Sc220 O230 2.105 . S
Sc220 O233 2.105 . S
Sc220 O236 2.105 . S
Sc220 O239 2.105 . S
Sc221 O223 2.025 . S
Sc221 O231 2.105 . S
Sc221 O235 2.105 . S
Sc221 O237 2.105 . S
Sc221 O241 2.105 . S
Sc222 O223 2.025 . S
Sc222 O232 2.105 . S
Sc222 O234 2.105 . S
Sc222 O238 2.105 . S
Sc222 O240 2.105 . S
O223 Sc220 2.025 . S
O223 Sc221 2.025 . S
O223 Sc222 2.025 . S
C224 O230 1.268 . S
C224 O240 1.268 . S
C225 O231 1.268 . S
C225 O239 1.268 . S
C226 O232 1.268 . S
C226 O241 1.268 . S
C227 O233 1.268 . S
C227 O237 1.268 . S
C228 O234 1.268 . S
C228 O236 1.268 . S
C229 O235 1.268 . S
C229 O238 1.268 . S
O230 Sc220 2.105 . S
O230 C224 1.268 . S
O231 Sc221 2.105 . S
O231 C225 1.268 . S
O232 Sc222 2.105 . S
O232 C226 1.268 . S
O233 Sc220 2.105 . S
O233 C227 1.268 . S
O234 Sc222 2.105 . S
O234 C228 1.268 . S
O235 Sc221 2.105 . S
O235 C229 1.268 . S
O236 Sc220 2.105 . S
O236 C228 1.268 . S
O237 Sc221 2.105 . S
O237 C227 1.268 . S
O238 Sc222 2.105 . S
O238 C229 1.268 . S
O239 Sc220 2.105 . S
O239 C225 1.268 . S
O240 Sc222 2.105 . S
O240 C224 1.268 . S
O241 Sc221 2.105 . S
O241 C226 1.268 . S
Sc242 O245 2.025 . S
Sc242 O252 2.105 . S
Sc242 O255 2.105 . S
Sc242 O258 2.105 . S
Sc242 O261 2.105 . S
Sc243 O245 2.025 . S
Sc243 O253 2.105 . S
Sc243 O257 2.105 . S
Sc243 O259 2.105 . S
Sc243 O263 2.105 . S
Sc244 O245 2.025 . S
Sc244 O254 2.105 . S
Sc244 O256 2.105 . S
Sc244 O260 2.105 . S
Sc244 O262 2.105 . S
O245 Sc242 2.025 . S
O245 Sc243 2.025 . S
O245 Sc244 2.025 . S
C246 O252 1.268 . S
C246 O262 1.268 . S
C247 O253 1.268 . S
C247 O261 1.268 . S
C248 O254 1.268 . S
C248 O263 1.268 . S
C249 O255 1.268 . S
C249 O259 1.268 . S
C250 O256 1.268 . S
C250 O258 1.268 . S
C251 O257 1.268 . S
C251 O260 1.268 . S
O252 Sc242 2.105 . S
O252 C246 1.268 . S
O253 Sc243 2.105 . S
O253 C247 1.268 . S
O254 Sc244 2.105 . S
O254 C248 1.268 . S
O255 Sc242 2.105 . S
O255 C249 1.268 . S
O256 Sc244 2.105 . S
O256 C250 1.268 . S
O257 Sc243 2.105 . S
O257 C251 1.268 . S
O258 Sc242 2.105 . S
O258 C250 1.268 . S
O259 Sc243 2.105 . S
O259 C249 1.268 . S
O260 Sc244 2.105 . S
O260 C251 1.268 . S
O261 Sc242 2.105 . S
O261 C247 1.268 . S
O262 Sc244 2.105 . S
O262 C246 1.268 . S
O263 Sc243 2.105 . S
O263 C248 1.268 . S
Sc264 O267 2.025 . S
Sc264 O274 2.105 1_655 S
Sc264 O277 2.105 . S
Sc264 O280 2.105 . S
Sc264 O283 2.105 1_655 S
Sc265 O267 2.025 . S
Sc265 O275 2.105 1_655 S
Sc265 O279 2.105 . S
Sc265 O281 2.105 . S
Sc265 O285 2.105 1_655 S
Sc266 O267 2.025 . S
Sc266 O276 2.105 1_655 S
Sc266 O278 2.105 . S
Sc266 O282 2.105 . S
Sc266 O284 2.105 1_655 S
O267 Sc264 2.025 . S
O267 Sc265 2.025 . S
O267 Sc266 2.025 . S
C268 O274 1.268 . S
C268 O284 1.268 . S
C269 O275 1.268 . S
C269 O283 1.268 . S
C270 O276 1.268 . S
C270 O285 1.268 . S
C271 O277 1.268 . S
C271 O281 1.268 . S
C272 O278 1.268 . S
C272 O280 1.268 . S
C273 O279 1.268 . S
C273 O282 1.268 . S
O274 Sc264 2.105 1_455 S
O274 C268 1.268 . S
O275 Sc265 2.105 1_455 S
O275 C269 1.268 . S
O276 Sc266 2.105 1_455 S
O276 C270 1.268 . S
O277 Sc264 2.105 . S
O277 C271 1.268 . S
O278 Sc266 2.105 . S
O278 C272 1.268 . S
O279 Sc265 2.105 . S
O279 C273 1.268 . S
O280 Sc264 2.105 . S
O280 C272 1.268 . S
O281 Sc265 2.105 . S
O281 C271 1.268 . S
O282 Sc266 2.105 . S
O282 C273 1.268 . S
O283 Sc264 2.105 1_455 S
O283 C269 1.268 . S
O284 Sc266 2.105 1_455 S
O284 C268 1.268 . S
O285 Sc265 2.105 1_455 S
O285 C270 1.268 . S
Sc286 O289 2.025 . S
Sc286 O296 2.105 . S
Sc286 O299 2.105 . S
Sc286 O302 2.105 . S
Sc286 O305 2.105 . S
Sc287 O289 2.025 . S
Sc287 O297 2.105 . S
Sc287 O301 2.105 . S
Sc287 O303 2.105 . S
Sc287 O307 2.105 . S
Sc288 O289 2.025 . S
Sc288 O298 2.105 . S
Sc288 O300 2.105 . S
Sc288 O304 2.105 . S
Sc288 O306 2.105 . S
O289 Sc286 2.025 . S
O289 Sc287 2.025 . S
O289 Sc288 2.025 . S
C290 O296 1.268 . S
C290 O306 1.268 . S
C291 O297 1.268 . S
C291 O305 1.268 . S
C292 O298 1.268 . S
C292 O307 1.268 . S
C293 O299 1.268 . S
C293 O303 1.268 . S
C294 O300 1.268 . S
C294 O302 1.268 . S
C295 O301 1.268 . S
C295 O304 1.268 . S
O296 Sc286 2.105 . S
O296 C290 1.268 . S
O297 Sc287 2.105 . S
O297 C291 1.268 . S
O298 Sc288 2.105 . S
O298 C292 1.268 . S
O299 Sc286 2.105 . S
O299 C293 1.268 . S
O300 Sc288 2.105 . S
O300 C294 1.268 . S
O301 Sc287 2.105 . S
O301 C295 1.268 . S
O302 Sc286 2.105 . S
O302 C294 1.268 . S
O303 Sc287 2.105 . S
O303 C293 1.268 . S
O304 Sc288 2.105 . S
O304 C295 1.268 . S
O305 Sc286 2.105 . S
O305 C291 1.268 . S
O306 Sc288 2.105 . S
O306 C290 1.268 . S
O307 Sc287 2.105 . S
O307 C292 1.268 . S
Sc308 O311 2.025 . S
Sc308 O318 2.105 . S
Sc308 O321 2.105 . S
Sc308 O324 2.105 . S
Sc308 O327 2.105 . S
Sc309 O311 2.025 . S
Sc309 O319 2.105 . S
Sc309 O323 2.105 . S
Sc309 O325 2.105 . S
Sc309 O329 2.105 . S
Sc310 O311 2.025 . S
Sc310 O320 2.105 . S
Sc310 O322 2.105 . S
Sc310 O326 2.105 . S
Sc310 O328 2.105 . S
O311 Sc308 2.025 . S
O311 Sc309 2.025 . S
O311 Sc310 2.025 . S
C312 O318 1.268 . S
C312 O328 1.268 . S
C313 O319 1.268 . S
C313 O327 1.268 . S
C314 O320 1.268 . S
C314 O329 1.268 . S
C315 O321 1.268 . S
C315 O325 1.268 . S
C316 O322 1.268 . S
C316 O324 1.268 . S
C317 O323 1.268 . S
C317 O326 1.268 . S
O318 Sc308 2.105 . S
O318 C312 1.268 . S
O319 Sc309 2.105 . S
O319 C313 1.268 . S
O320 Sc310 2.105 . S
O320 C314 1.268 . S
O321 Sc308 2.105 . S
O321 C315 1.268 . S
O322 Sc310 2.105 . S
O322 C316 1.268 . S
O323 Sc309 2.105 . S
O323 C317 1.268 . S
O324 Sc308 2.105 . S
O324 C316 1.268 . S
O325 Sc309 2.105 . S
O325 C315 1.268 . S
O326 Sc310 2.105 . S
O326 C317 1.268 . S
O327 Sc308 2.105 . S
O327 C313 1.268 . S
O328 Sc310 2.105 . S
O328 C312 1.268 . S
O329 Sc309 2.105 . S
O329 C314 1.268 . S
Sc330 O333 2.025 . S
Sc330 O340 2.105 1_455 S
Sc330 O343 2.105 . S
Sc330 O346 2.105 . S
Sc330 O349 2.105 1_455 S
Sc331 O333 2.025 . S
Sc331 O341 2.105 1_455 S
Sc331 O345 2.105 . S
Sc331 O347 2.105 . S
Sc331 O351 2.105 1_455 S
Sc332 O333 2.025 . S
Sc332 O342 2.105 1_455 S
Sc332 O344 2.105 . S
Sc332 O348 2.105 . S
Sc332 O350 2.105 1_455 S
O333 Sc330 2.025 . S
O333 Sc331 2.025 . S
O333 Sc332 2.025 . S
C334 O340 1.268 . S
C334 O350 1.268 . S
C335 O341 1.268 . S
C335 O349 1.268 . S
C336 O342 1.268 . S
C336 O351 1.268 . S
C337 O343 1.268 . S
C337 O347 1.268 . S
C338 O344 1.268 . S
C338 O346 1.268 . S
C339 O345 1.268 . S
C339 O348 1.268 . S
O340 Sc330 2.105 1_655 S
O340 C334 1.268 . S
O341 Sc331 2.105 1_655 S
O341 C335 1.268 . S
O342 Sc332 2.105 1_655 S
O342 C336 1.268 . S
O343 Sc330 2.105 . S
O343 C337 1.268 . S
O344 Sc332 2.105 . S
O344 C338 1.268 . S
O345 Sc331 2.105 . S
O345 C339 1.268 . S
O346 Sc330 2.105 . S
O346 C338 1.268 . S
O347 Sc331 2.105 . S
O347 C337 1.268 . S
O348 Sc332 2.105 . S
O348 C339 1.268 . S
O349 Sc330 2.105 1_655 S
O349 C335 1.268 . S
O350 Sc332 2.105 1_655 S
O350 C334 1.268 . S
O351 Sc331 2.105 1_655 S
O351 C336 1.268 . S
Sc352 O355 2.025 . S
Sc352 O362 2.105 . S
Sc352 O365 2.105 1_565 S
Sc352 O368 2.105 1_565 S
Sc352 O371 2.105 . S
Sc353 O355 2.025 . S
Sc353 O363 2.105 . S
Sc353 O367 2.105 1_565 S
Sc353 O369 2.105 1_565 S
Sc353 O373 2.105 . S
Sc354 O355 2.025 . S
Sc354 O364 2.105 . S
Sc354 O366 2.105 1_565 S
Sc354 O370 2.105 1_565 S
Sc354 O372 2.105 . S
O355 Sc352 2.025 . S
O355 Sc353 2.025 . S
O355 Sc354 2.025 . S
C356 O362 1.268 . S
C356 O372 1.268 . S
C357 O363 1.268 . S
C357 O371 1.268 . S
C358 O364 1.268 . S
C358 O373 1.268 . S
C359 O365 1.268 . S
C359 O369 1.268 . S
C360 O366 1.268 . S
C360 O368 1.268 . S
C361 O367 1.268 . S
C361 O370 1.268 . S
O362 Sc352 2.105 . S
O362 C356 1.268 . S
O363 Sc353 2.105 . S
O363 C357 1.268 . S
O364 Sc354 2.105 . S
O364 C358 1.268 . S
O365 Sc352 2.105 1_545 S
O365 C359 1.268 . S
O366 Sc354 2.105 1_545 S
O366 C360 1.268 . S
O367 Sc353 2.105 1_545 S
O367 C361 1.268 . S
O368 Sc352 2.105 1_545 S
O368 C360 1.268 . S
O369 Sc353 2.105 1_545 S
O369 C359 1.268 . S
O370 Sc354 2.105 1_545 S
O370 C361 1.268 . S
O371 Sc352 2.105 . S
O371 C357 1.268 . S
O372 Sc354 2.105 . S
O372 C356 1.268 . S
O373 Sc353 2.105 . S
O373 C358 1.268 . S
Sc374 O377 2.025 . S
Sc374 O384 2.105 1_545 S
Sc374 O387 2.105 . S
Sc374 O390 2.105 . S
Sc374 O393 2.105 1_545 S
Sc375 O377 2.025 . S
Sc375 O385 2.105 1_545 S
Sc375 O389 2.105 . S
Sc375 O391 2.105 . S
Sc375 O395 2.105 1_545 S
Sc376 O377 2.025 . S
Sc376 O386 2.105 1_545 S
Sc376 O388 2.105 . S
Sc376 O392 2.105 . S
Sc376 O394 2.105 1_545 S
O377 Sc374 2.025 . S
O377 Sc375 2.025 . S
O377 Sc376 2.025 . S
C378 O384 1.268 . S
C378 O394 1.268 . S
C379 O385 1.268 . S
C379 O393 1.268 . S
C380 O386 1.268 . S
C380 O395 1.268 . S
C381 O387 1.268 . S
C381 O391 1.268 . S
C382 O388 1.268 . S
C382 O390 1.268 . S
C383 O389 1.268 . S
C383 O392 1.268 . S
O384 Sc374 2.105 1_565 S
O384 C378 1.268 . S
O385 Sc375 2.105 1_565 S
O385 C379 1.268 . S
O386 Sc376 2.105 1_565 S
O386 C380 1.268 . S
O387 Sc374 2.105 . S
O387 C381 1.268 . S
O388 Sc376 2.105 . S
O388 C382 1.268 . S
O389 Sc375 2.105 . S
O389 C383 1.268 . S
O390 Sc374 2.105 . S
O390 C382 1.268 . S
O391 Sc375 2.105 . S
O391 C381 1.268 . S
O392 Sc376 2.105 . S
O392 C383 1.268 . S
O393 Sc374 2.105 1_565 S
O393 C379 1.268 . S
O394 Sc376 2.105 1_565 S
O394 C378 1.268 . S
O395 Sc375 2.105 1_565 S
O395 C380 1.268 . S
Sc396 O399 2.025 . S
Sc396 O406 2.105 . S
Sc396 O409 2.105 . S
Sc396 O412 2.105 . S
Sc396 O415 2.105 . S
Sc397 O399 2.025 . S
Sc397 O407 2.105 . S
Sc397 O411 2.105 . S
Sc397 O413 2.105 . S
Sc397 O417 2.105 . S
Sc398 O399 2.025 . S
Sc398 O408 2.105 . S
Sc398 O410 2.105 . S
Sc398 O414 2.105 . S
Sc398 O416 2.105 . S
O399 Sc396 2.025 . S
O399 Sc397 2.025 . S
O399 Sc398 2.025 . S
C400 O406 1.268 . S
C400 O416 1.268 . S
C401 O407 1.268 . S
C401 O415 1.268 . S
C402 O408 1.268 . S
C402 O417 1.268 . S
C403 O409 1.268 . S
C403 O413 1.268 . S
C404 O410 1.268 . S
C404 O412 1.268 . S
C405 O411 1.268 . S
C405 O414 1.268 . S
O406 Sc396 2.105 . S
O406 C400 1.268 . S
O407 Sc397 2.105 . S
O407 C401 1.268 . S
O408 Sc398 2.105 . S
O408 C402 1.268 . S
O409 Sc396 2.105 . S
O409 C403 1.268 . S
O410 Sc398 2.105 . S
O410 C404 1.268 . S
O411 Sc397 2.105 . S
O411 C405 1.268 . S
O412 Sc396 2.105 . S
O412 C404 1.268 . S
O413 Sc397 2.105 . S
O413 C403 1.268 . S
O414 Sc398 2.105 . S
O414 C405 1.268 . S
O415 Sc396 2.105 . S
O415 C401 1.268 . S
O416 Sc398 2.105 . S
O416 C400 1.268 . S
O417 Sc397 2.105 . S
O417 C402 1.268 . S
Sc418 O421 2.025 . S
Sc418 O428 2.105 . S
Sc418 O431 2.105 . S
Sc418 O434 2.105 . S
Sc418 O437 2.105 . S
Sc419 O421 2.025 . S
Sc419 O429 2.105 . S
Sc419 O433 2.105 . S
Sc419 O435 2.105 . S
Sc419 O439 2.105 . S
Sc420 O421 2.025 . S
Sc420 O430 2.105 . S
Sc420 O432 2.105 . S
Sc420 O436 2.105 . S
Sc420 O438 2.105 . S
O421 Sc418 2.025 . S
O421 Sc419 2.025 . S
O421 Sc420 2.025 . S
C422 O428 1.268 . S
C422 O438 1.268 . S
C423 O429 1.268 . S
C423 O437 1.268 . S
C424 O430 1.268 . S
C424 O439 1.268 . S
C425 O431 1.268 . S
C425 O435 1.268 . S
C426 O432 1.268 . S
C426 O434 1.268 . S
C427 O433 1.268 . S
C427 O436 1.268 . S
O428 Sc418 2.105 . S
O428 C422 1.268 . S
O429 Sc419 2.105 . S
O429 C423 1.268 . S
O430 Sc420 2.105 . S
O430 C424 1.268 . S
O431 Sc418 2.105 . S
O431 C425 1.268 . S
O432 Sc420 2.105 . S
O432 C426 1.268 . S
O433 Sc419 2.105 . S
O433 C427 1.268 . S
O434 Sc418 2.105 . S
O434 C426 1.268 . S
O435 Sc419 2.105 . S
O435 C425 1.268 . S
O436 Sc420 2.105 . S
O436 C427 1.268 . S
O437 Sc418 2.105 . S
O437 C423 1.268 . S
O438 Sc420 2.105 . S
O438 C422 1.268 . S
O439 Sc419 2.105 . S
O439 C424 1.268 . S
Sc440 O443 2.025 . S
Sc440 O450 2.105 . S
Sc440 O453 2.105 1_556 S
Sc440 O456 2.105 1_556 S
Sc440 O459 2.105 . S
Sc441 O443 2.025 . S
Sc441 O451 2.105 . S
Sc441 O455 2.105 1_556 S
Sc441 O457 2.105 1_556 S
Sc441 O461 2.105 . S
Sc442 O443 2.025 . S
Sc442 O452 2.105 . S
Sc442 O454 2.105 1_556 S
Sc442 O458 2.105 1_556 S
Sc442 O460 2.105 . S
O443 Sc440 2.025 . S
O443 Sc441 2.025 . S
O443 Sc442 2.025 . S
C444 O450 1.268 . S
C444 O460 1.268 . S
C445 O451 1.268 . S
C445 O459 1.268 . S
C446 O452 1.268 . S
C446 O461 1.268 . S
C447 O453 1.268 . S
C447 O457 1.268 . S
C448 O454 1.268 . S
C448 O456 1.268 . S
C449 O455 1.268 . S
C449 O458 1.268 . S
O450 Sc440 2.105 . S
O450 C444 1.268 . S
O451 Sc441 2.105 . S
O451 C445 1.268 . S
O452 Sc442 2.105 . S
O452 C446 1.268 . S
O453 Sc440 2.105 1_554 S
O453 C447 1.268 . S
O454 Sc442 2.105 1_554 S
O454 C448 1.268 . S
O455 Sc441 2.105 1_554 S
O455 C449 1.268 . S
O456 Sc440 2.105 1_554 S
O456 C448 1.268 . S
O457 Sc441 2.105 1_554 S
O457 C447 1.268 . S
O458 Sc442 2.105 1_554 S
O458 C449 1.268 . S
O459 Sc440 2.105 . S
O459 C445 1.268 . S
O460 Sc442 2.105 . S
O460 C444 1.268 . S
O461 Sc441 2.105 . S
O461 C446 1.268 . S
Sc462 O465 2.025 . S
Sc462 O472 2.105 1_554 S
Sc462 O475 2.105 . S
Sc462 O478 2.105 . S
Sc462 O481 2.105 1_554 S
Sc463 O465 2.025 . S
Sc463 O473 2.105 1_554 S
Sc463 O477 2.105 . S
Sc463 O479 2.105 . S
Sc463 O483 2.105 1_554 S
Sc464 O465 2.025 . S
Sc464 O474 2.105 1_554 S
Sc464 O476 2.105 . S
Sc464 O480 2.105 . S
Sc464 O482 2.105 1_554 S
O465 Sc462 2.025 . S
O465 Sc463 2.025 . S
O465 Sc464 2.025 . S
C466 O472 1.268 . S
C466 O482 1.268 . S
C467 O473 1.268 . S
C467 O481 1.268 . S
C468 O474 1.268 . S
C468 O483 1.268 . S
C469 O475 1.268 . S
C469 O479 1.268 . S
C470 O476 1.268 . S
C470 O478 1.268 . S
C471 O477 1.268 . S
C471 O480 1.268 . S
O472 Sc462 2.105 1_556 S
O472 C466 1.268 . S
O473 Sc463 2.105 1_556 S
O473 C467 1.268 . S
O474 Sc464 2.105 1_556 S
O474 C468 1.268 . S
O475 Sc462 2.105 . S
O475 C469 1.268 . S
O476 Sc464 2.105 . S
O476 C470 1.268 . S
O477 Sc463 2.105 . S
O477 C471 1.268 . S
O478 Sc462 2.105 . S
O478 C470 1.268 . S
O479 Sc463 2.105 . S
O479 C469 1.268 . S
O480 Sc464 2.105 . S
O480 C471 1.268 . S
O481 Sc462 2.105 1_556 S
O481 C467 1.268 . S
O482 Sc464 2.105 1_556 S
O482 C466 1.268 . S
O483 Sc463 2.105 1_556 S
O483 C468 1.268 . S
Sc484 O487 2.025 . S
Sc484 O494 2.105 . S
Sc484 O497 2.105 . S
Sc484 O500 2.105 . S
Sc484 O503 2.105 . S
Sc485 O487 2.025 . S
Sc485 O495 2.105 . S
Sc485 O499 2.105 . S
Sc485 O501 2.105 . S
Sc485 O505 2.105 . S
Sc486 O487 2.025 . S
Sc486 O496 2.105 . S
Sc486 O498 2.105 . S
Sc486 O502 2.105 . S
Sc486 O504 2.105 . S
O487 Sc484 2.025 . S
O487 Sc485 2.025 . S
O487 Sc486 2.025 . S
C488 O494 1.268 . S
C488 O504 1.268 . S
C489 O495 1.268 . S
C489 O503 1.268 . S
C490 O496 1.268 . S
C490 O505 1.268 . S
C491 O497 1.268 . S
C491 O501 1.268 . S
C492 O498 1.268 . S
C492 O500 1.268 . S
C493 O499 1.268 . S
C493 O502 1.268 . S
O494 Sc484 2.105 . S
O494 C488 1.268 . S
O495 Sc485 2.105 . S
O495 C489 1.268 . S
O496 Sc486 2.105 . S
O496 C490 1.268 . S
O497 Sc484 2.105 . S
O497 C491 1.268 . S
O498 Sc486 2.105 . S
O498 C492 1.268 . S
O499 Sc485 2.105 . S
O499 C493 1.268 . S
O500 Sc484 2.105 . S
O500 C492 1.268 . S
O501 Sc485 2.105 . S
O501 C491 1.268 . S
O502 Sc486 2.105 . S
O502 C493 1.268 . S
O503 Sc484 2.105 . S
O503 C489 1.268 . S
O504 Sc486 2.105 . S
O504 C488 1.268 . S
O505 Sc485 2.105 . S
O505 C490 1.268 . S
Sc506 O509 2.025 . S
Sc506 O516 2.105 . S
Sc506 O519 2.105 . S
Sc506 O522 2.105 . S
Sc506 O525 2.105 . S
Sc507 O509 2.025 . S
Sc507 O517 2.105 . S
Sc507 O521 2.105 . S
Sc507 O523 2.105 . S
Sc507 O527 2.105 . S
Sc508 O509 2.025 . S
Sc508 O518 2.105 . S
Sc508 O520 2.105 . S
Sc508 O524 2.105 . S
Sc508 O526 2.105 . S
O509 Sc506 2.025 . S
O509 Sc507 2.025 . S
O509 Sc508 2.025 . S
C510 O516 1.268 . S
C510 O526 1.268 . S
C511 O517 1.268 . S
C511 O525 1.268 . S
C512 O518 1.268 . S
C512 O527 1.268 . S
C513 O519 1.268 . S
C513 O523 1.268 . S
C514 O520 1.268 . S
C514 O522 1.268 . S
C515 O521 1.268 . S
C515 O524 1.268 . S
O516 Sc506 2.105 . S
O516 C510 1.268 . S
O517 Sc507 2.105 . S
O517 C511 1.268 . S
O518 Sc508 2.105 . S
O518 C512 1.268 . S
O519 Sc506 2.105 . S
O519 C513 1.268 . S
O520 Sc508 2.105 . S
O520 C514 1.268 . S
O521 Sc507 2.105 . S
O521 C515 1.268 . S
O522 Sc506 2.105 . S
O522 C514 1.268 . S
O523 Sc507 2.105 . S
O523 C513 1.268 . S
O524 Sc508 2.105 . S
O524 C515 1.268 . S
O525 Sc506 2.105 . S
O525 C511 1.268 . S
O526 Sc508 2.105 . S
O526 C510 1.268 . S
O527 Sc507 2.105 . S
O527 C512 1.268 . S
C7 C401 1.905 . S
C427 C29 1.905 . S
C50 C361 1.905 . S
C72 C379 1.905 . S
C489 C95 1.905 . S
C116 C467 1.905 . S
C515 C138 1.905 . S
C161 C449 1.905 . S
C183 C291 1.905 . S
C204 C335 1.905 . S
C313 C226 1.905 . S
C249 C269 1.905 . S
C273 C139 1.905 . S
C295 C160 1.905 . S
C317 C94 1.905 . S
C117 C339 1.905 . S
C357 C227 1.905 . S
C205 C383 1.905 . S
C248 C405 1.905 . S
C182 C423 1.905 . S
C28 C445 1.905 . S
C73 C471 1.905 . S
C51 C493 1.905 . S
C511 C6 1.905 . S
C96 C9 2.065 . S
C114 C31 2.065 . S
C136 C49 2.065 . S
C162 C71 2.065 . S
C97 C184 2.065 . S
C115 C250 2.065 . S
C137 C202 2.065 . S
C163 C224 2.065 . S
C185 C8 2.065 . S
C203 C48 2.065 . S
C225 C70 2.065 . S
C30 C251 2.065 . S
C356 C271 2.065 . S
C382 C293 2.065 . S
C315 C404 2.065 . S
C337 C422 2.065 . S
C444 C358 2.065 . S
C381 C510 2.065 . S
C470 C403 2.065 . S
C424 C492 2.065 . S
C272 C446 2.065 . S
C469 C316 2.065 . S
C491 C338 2.065 . S
C294 C512 2.065 . S
C4 C207 1.454 . S
C229 C26 1.454 . S
C181 C52 1.454 . S
C247 C74 1.454 . S
C92 C75 1.454 . S
C53 C118 1.454 . S
C140 C27 1.454 . S
C5 C158 1.454 . S
C180 C119 1.454 . S
C206 C159 1.454 . S
C228 C141 1.454 . S
C246 C93 1.454 . S
C268 C468 1.454 . S
C290 C490 1.454 . S
C447 C312 1.454 . S
C513 C334 1.454 . S
C360 C336 1.454 . S
C378 C314 1.454 . S
C292 C400 1.454 . S
C426 C270 1.454 . S
C448 C380 1.454 . S
C425 C466 1.454 . S
C488 C402 1.454 . S
C514 C359 1.454 . S
