# Generated by pormake.
# Topology uop, (4)-cn, num edge types: 1
# Building blocks:
#     Node 0, Type 0, BuildingBlock: CEKHIL_clean_sbu_0, # of connection points: 4
#     Node 1, Type 0, BuildingBlock: CEKHIL_clean_sbu_0, # of connection points: 4
#     Node 2, Type 0, BuildingBlock: CEKHIL_clean_sbu_0, # of connection points: 4
#     Node 3, Type 0, BuildingBlock: CEKHIL_clean_sbu_0, # of connection points: 4
#     Node 4, Type 0, BuildingBlock: CEKHIL_clean_sbu_0, # of connection points: 4
#     Node 5, Type 0, BuildingBlock: CEKHIL_clean_sbu_0, # of connection points: 4
#     Node 6, Type 0, BuildingBlock: CEKHIL_clean_sbu_0, # of connection points: 4
#     Node 7, Type 0, BuildingBlock: CEKHIL_clean_sbu_0, # of connection points: 4
#     Node 8, Type 0, BuildingBlock: CEKHIL_clean_sbu_0, # of connection points: 4
#     Node 9, Type 0, BuildingBlock: CEKHIL_clean_sbu_0, # of connection points: 4
#     Node 10, Type 0, BuildingBlock: CEKHIL_clean_sbu_0, # of connection points: 4
#     Node 11, Type 0, BuildingBlock: CEKHIL_clean_sbu_0, # of connection points: 4
#     Edge 12, Type (0, 0), BuildingBlock: OJICUG_clean_linker_0, # of connection points: 2
#     Edge 13, Type (0, 0), BuildingBlock: OJICUG_clean_linker_0, # of connection points: 2
#     Edge 14, Type (0, 0), BuildingBlock: OJICUG_clean_linker_0, # of connection points: 2
#     Edge 15, Type (0, 0), BuildingBlock: OJICUG_clean_linker_0, # of connection points: 2
#     Edge 16, Type (0, 0), BuildingBlock: OJICUG_clean_linker_0, # of connection points: 2
#     Edge 17, Type (0, 0), BuildingBlock: OJICUG_clean_linker_0, # of connection points: 2
#     Edge 18, Type (0, 0), BuildingBlock: OJICUG_clean_linker_0, # of connection points: 2
#     Edge 19, Type (0, 0), BuildingBlock: OJICUG_clean_linker_0, # of connection points: 2
#     Edge 20, Type (0, 0), BuildingBlock: OJICUG_clean_linker_0, # of connection points: 2
#     Edge 21, Type (0, 0), BuildingBlock: OJICUG_clean_linker_0, # of connection points: 2
#     Edge 22, Type (0, 0), BuildingBlock: OJICUG_clean_linker_0, # of connection points: 2
#     Edge 23, Type (0, 0), BuildingBlock: OJICUG_clean_linker_0, # of connection points: 2
#     Edge 24, Type (0, 0), BuildingBlock: OJICUG_clean_linker_0, # of connection points: 2
#     Edge 25, Type (0, 0), BuildingBlock: OJICUG_clean_linker_0, # of connection points: 2
#     Edge 26, Type (0, 0), BuildingBlock: OJICUG_clean_linker_0, # of connection points: 2
#     Edge 27, Type (0, 0), BuildingBlock: OJICUG_clean_linker_0, # of connection points: 2
#     Edge 28, Type (0, 0), BuildingBlock: OJICUG_clean_linker_0, # of connection points: 2
#     Edge 29, Type (0, 0), BuildingBlock: OJICUG_clean_linker_0, # of connection points: 2
#     Edge 30, Type (0, 0), BuildingBlock: OJICUG_clean_linker_0, # of connection points: 2
#     Edge 31, Type (0, 0), BuildingBlock: OJICUG_clean_linker_0, # of connection points: 2
#     Edge 32, Type (0, 0), BuildingBlock: OJICUG_clean_linker_0, # of connection points: 2
#     Edge 33, Type (0, 0), BuildingBlock: OJICUG_clean_linker_0, # of connection points: 2
#     Edge 34, Type (0, 0), BuildingBlock: OJICUG_clean_linker_0, # of connection points: 2
#     Edge 35, Type (0, 0), BuildingBlock: OJICUG_clean_linker_0, # of connection points: 2
# Relax obj value: 0.153
# Max RMSD: 0.167
# Mean RMSD: 0.162
data_MOF--net-uop--node1-CEKHIL_clean_sbu_0--edge1-OJICUG_clean_linker_0
_symmetry_space_group_name_H-M    P1
_symmetry_Int_Tables_number       1
_symmetry_cell_setting            triclinic
loop_
_symmetry_equiv_pos_as_xyz
'x, y, z'
_cell_length_a     24.1607
_cell_length_b     23.241502
_cell_length_c     32.260782
_cell_angle_alpha  90.000079
_cell_angle_beta   90.010629
_cell_angle_gamma 121.27234
loop_
_atom_site_label
_atom_site_type_symbol
_atom_site_fract_x
_atom_site_fract_y
_atom_site_fract_z
_atom_type_partial_charge
Co0 Co 0.22497 0.38638 0.2293 0.0
O1 O 0.13546 0.3324 0.2437 0.0
O2 O 0.1763 0.33087 0.18247 0.0
C3 C 0.26467 0.36794 0.28636 0.0
O4 O 0.31699 0.43428 0.20593 0.0
Co5 Co 0.30844 0.51281 0.28378 0.0
O6 O 0.37997 0.51823 0.25046 0.0
C7 C 0.21861 0.51379 0.22413 0.0
C8 C 0.1257 0.30848 0.20644 0.0
C9 C 0.37267 0.48255 0.21853 0.0
O10 O 0.21078 0.45923 0.20865 0.0
O11 O 0.25041 0.54011 0.2575 0.0
O12 O 0.24373 0.32423 0.25643 0.0
O13 O 0.25246 0.41572 0.28335 0.0
Co14 Co 0.85303 0.25296 0.52168 0.0
O15 O 0.93358 0.26861 0.54297 0.0
O16 O 0.87368 0.30543 0.57148 0.0
C17 C 0.80692 0.14236 0.51033 0.0
O18 O 0.76678 0.24438 0.50967 0.0
Co19 Co 0.81899 0.21652 0.43096 0.0
O20 O 0.73182 0.19745 0.44699 0.0
C21 C 0.91597 0.35516 0.45062 0.0
C22 C 0.92551 0.30167 0.5724 0.0
C23 C 0.7229 0.21794 0.48152 0.0
O24 O 0.90191 0.33801 0.48866 0.0
O25 O 0.89027 0.31319 0.42077 0.0
O26 O 0.80694 0.1654 0.54693 0.0
O27 O 0.84136 0.18724 0.4822 0.0
Co28 Co 0.61824 0.84511 0.87156 0.0
O29 O 0.6708 0.80846 0.88467 0.0
O30 O 0.66653 0.84767 0.82286 0.0
C31 C 0.64329 0.91062 0.9272 0.0
O32 O 0.57028 0.88951 0.84926 0.0
Co33 Co 0.50364 0.80646 0.93168 0.0
O34 O 0.49321 0.87 0.89636 0.0
C35 C 0.49208 0.70793 0.87115 0.0
C36 C 0.69046 0.82041 0.84663 0.0
C37 C 0.524 0.89665 0.86285 0.0
O38 O 0.54512 0.75376 0.85453 0.0
O39 O 0.47029 0.71642 0.90525 0.0
O40 O 0.68158 0.93107 0.89529 0.0
O41 O 0.59656 0.84841 0.92664 0.0
Co42 Co 0.76435 0.61178 0.22769 0.0
O43 O 0.8539 0.66525 0.24197 0.0
O44 O 0.81294 0.66779 0.18098 0.0
C45 C 0.72554 0.63014 0.28518 0.0
O46 O 0.67215 0.56449 0.20462 0.0
Co47 Co 0.68098 0.48509 0.28193 0.0
O48 O 0.60935 0.48039 0.2491 0.0
C49 C 0.77016 0.48416 0.22172 0.0
C50 C 0.86358 0.6898 0.20489 0.0
C51 C 0.6165 0.51633 0.21734 0.0
O52 O 0.77798 0.53883 0.20641 0.0
O53 O 0.7387 0.45781 0.25518 0.0
O54 O 0.74622 0.67398 0.25535 0.0
O55 O 0.73733 0.58211 0.28175 0.0
Co56 Co 0.14001 0.74448 0.52338 0.0
O57 O 0.05629 0.72122 0.54309 0.0
O58 O 0.12155 0.69272 0.57329 0.0
C59 C 0.17912 0.85415 0.51181 0.0
O60 O 0.22944 0.761 0.51277 0.0
Co61 Co 0.17346 0.78257 0.43242 0.0
O62 O 0.2608 0.80097 0.44821 0.0
C63 C 0.08745 0.64127 0.45218 0.0
C64 C 0.06698 0.69118 0.57321 0.0
C65 C 0.27174 0.78463 0.48364 0.0
O66 O 0.09984 0.65917 0.49025 0.0
O67 O 0.10745 0.68383 0.42244 0.0
O68 O 0.17897 0.83206 0.54872 0.0
O69 O 0.14782 0.80819 0.48361 0.0
Co70 Co 0.37574 0.14891 0.87074 0.0
O71 O 0.32248 0.1848 0.88357 0.0
O72 O 0.32789 0.14628 0.82177 0.0
C73 C 0.3504 0.08327 0.92629 0.0
O74 O 0.42461 0.10532 0.84875 0.0
Co75 Co 0.48975 0.18807 0.93151 0.0
O76 O 0.50124 0.12513 0.8963 0.0
C77 C 0.50099 0.28673 0.87121 0.0
C78 C 0.30338 0.17308 0.84541 0.0
C79 C 0.47097 0.09852 0.86262 0.0
O80 O 0.44854 0.24061 0.85417 0.0
O81 O 0.52245 0.27826 0.90547 0.0
O82 O 0.31255 0.06263 0.89416 0.0
O83 O 0.39685 0.14559 0.92591 0.0
Co84 Co 0.59861 0.74411 0.47345 0.0
O85 O 0.6632 0.72817 0.45191 0.0
O86 O 0.56645 0.69184 0.42364 0.0
C87 C 0.66325 0.85462 0.48489 0.0
O88 O 0.52121 0.75302 0.48564 0.0
Co89 Co 0.60124 0.78031 0.56422 0.0
O90 O 0.53352 0.80008 0.54829 0.0
C91 C 0.55911 0.64157 0.54437 0.0
C92 C 0.62193 0.69539 0.42251 0.0
C93 C 0.50405 0.77972 0.51378 0.0
O94 O 0.56234 0.65893 0.50636 0.0
O95 O 0.57542 0.68344 0.57429 0.0
O96 O 0.64012 0.8317 0.44829 0.0
O97 O 0.65284 0.80965 0.51297 0.0
Co98 Co 0.83951 0.60847 0.76685 0.0
O99 O 0.80424 0.66259 0.75212 0.0
O100 O 0.84679 0.66465 0.8134 0.0
C101 C 0.89728 0.62607 0.70976 0.0
O102 O 0.88352 0.56061 0.79048 0.0
Co103 Co 0.79615 0.48138 0.7129 0.0
O104 O 0.86258 0.4764 0.74615 0.0
C105 C 0.70559 0.48181 0.77215 0.0
C106 C 0.81872 0.68702 0.78925 0.0
C107 C 0.89105 0.51234 0.77798 0.0
O108 O 0.75251 0.53611 0.78773 0.0
O109 O 0.71095 0.45527 0.73883 0.0
O110 O 0.92029 0.67008 0.73952 0.0
O111 O 0.83732 0.57848 0.71295 0.0
Co112 Co 0.22144 0.84575 0.12219 0.0
O113 O 0.1322 0.80903 0.10928 0.0
O114 O 0.17614 0.8495 0.17079 0.0
C115 C 0.26135 0.90992 0.06606 0.0
O116 O 0.31403 0.89049 0.14412 0.0
Co117 Co 0.29661 0.80547 0.06241 0.0
O118 O 0.371 0.86999 0.09705 0.0
C119 C 0.20981 0.70832 0.12356 0.0
C120 C 0.1248 0.82186 0.14718 0.0
C121 C 0.3673 0.89741 0.13035 0.0
O122 O 0.20322 0.75471 0.13995 0.0
O123 O 0.23962 0.71597 0.08935 0.0
O124 O 0.24389 0.9312 0.09775 0.0
O125 O 0.24581 0.8477 0.06713 0.0
Co126 Co 0.39249 0.25127 0.47217 0.0
O127 O 0.33127 0.27368 0.45269 0.0
O128 O 0.42478 0.3027 0.42204 0.0
C129 C 0.32273 0.14154 0.48407 0.0
O130 O 0.46607 0.23559 0.48256 0.0
Co131 Co 0.38908 0.21404 0.56317 0.0
O132 O 0.45844 0.19635 0.54724 0.0
C133 C 0.44356 0.35512 0.54306 0.0
C134 C 0.37147 0.30371 0.42235 0.0
C135 C 0.48537 0.21258 0.51172 0.0
O136 O 0.4374 0.33686 0.50503 0.0
O137 O 0.42173 0.31283 0.57296 0.0
O138 O 0.34426 0.1635 0.44709 0.0
O139 O 0.33728 0.18759 0.5122 0.0
Co140 Co 0.15454 0.38538 0.76561 0.0
O141 O 0.19036 0.33181 0.75079 0.0
O142 O 0.14765 0.32925 0.81208 0.0
C143 C 0.09654 0.36731 0.70853 0.0
O144 O 0.11 0.4326 0.7894 0.0
Co145 Co 0.19689 0.51232 0.71186 0.0
O146 O 0.13042 0.51689 0.74531 0.0
C147 C 0.2879 0.51303 0.77124 0.0
C148 C 0.17591 0.30718 0.78787 0.0
C149 C 0.10219 0.48076 0.7771 0.0
O150 O 0.24137 0.45818 0.78656 0.0
O151 O 0.28225 0.53961 0.73804 0.0
O152 O 0.07386 0.32336 0.73832 0.0
O153 O 0.15637 0.41528 0.71169 0.0
Co154 Co 0.76824 0.1518 0.12178 0.0
O155 O 0.85762 0.1884 0.10932 0.0
O156 O 0.81329 0.14935 0.17092 0.0
C157 C 0.72879 0.08622 0.0661 0.0
O158 O 0.67554 0.10744 0.14344 0.0
Co159 Co 0.69316 0.19034 0.0608 0.0
O160 O 0.61865 0.12684 0.0957 0.0
C161 C 0.77906 0.28897 0.12164 0.0
C162 C 0.86481 0.17657 0.14749 0.0
C163 C 0.6223 0.10025 0.12939 0.0
O164 O 0.78616 0.24317 0.13847 0.0
O165 O 0.74915 0.28041 0.08736 0.0
O166 O 0.74609 0.06581 0.09832 0.0
O167 O 0.74416 0.14842 0.06646 0.0
C168 C 0.19075 0.59244 0.13091 0.0
C169 C 0.19311 0.64865 0.14891 0.0
H170 H 0.19545 0.50428 0.14098 0.0
C171 C 0.19089 0.65251 0.19234 0.0
H172 H 0.19157 0.58771 0.09754 0.0
C173 C 0.19431 0.60544 0.21725 0.0
C174 C 0.19865 0.55304 0.19914 0.0
H175 H 0.19217 0.69498 0.20721 0.0
H176 H 0.19753 0.61243 0.25056 0.0
C177 C 0.1929 0.54462 0.15586 0.0
C178 C 0.62028 0.20736 0.45612 0.0
C179 C 0.66022 0.21249 0.48931 0.0
H180 H 0.53358 0.20358 0.43725 0.0
C181 C 0.64032 0.21368 0.53007 0.0
H182 H 0.63432 0.20625 0.42438 0.0
C183 C 0.58216 0.2111 0.53747 0.0
C184 C 0.54341 0.20848 0.50421 0.0
H185 H 0.66986 0.21696 0.55629 0.0
H186 H 0.56864 0.21334 0.56918 0.0
C187 C 0.5627 0.20597 0.46349 0.0
C188 C 0.39455 0.59243 0.86431 0.0
C189 C 0.44869 0.648 0.8461 0.0
H190 H 0.3013 0.50473 0.85454 0.0
C191 C 0.45471 0.6511 0.80266 0.0
H192 H 0.38899 0.5883 0.8977 0.0
C193 C 0.404 0.60397 0.77792 0.0
C194 C 0.34711 0.55224 0.79621 0.0
H195 H 0.49608 0.69305 0.78762 0.0
H196 H 0.4078 0.61041 0.74457 0.0
C197 C 0.34437 0.54453 0.83953 0.0
C198 C 0.79583 0.39357 0.21476 0.0
C199 C 0.78985 0.44488 0.19654 0.0
H200 H 0.79943 0.30481 0.20504 0.0
C201 C 0.79381 0.45211 0.15318 0.0
H202 H 0.79399 0.38753 0.24813 0.0
C203 C 0.79599 0.40415 0.12836 0.0
C204 C 0.79542 0.34898 0.14657 0.0
H205 H 0.78991 0.49159 0.13822 0.0
H206 H 0.79385 0.40793 0.09499 0.0
C207 C 0.79929 0.34639 0.18998 0.0
C208 C 0.4122 0.79057 0.5392 0.0
C209 C 0.44698 0.78547 0.50601 0.0
H210 H 0.32917 0.79413 0.55807 0.0
C211 C 0.42593 0.78436 0.46524 0.0
H212 H 0.42734 0.79163 0.57094 0.0
C213 C 0.37029 0.78684 0.45784 0.0
C214 C 0.33411 0.78927 0.4911 0.0
H215 H 0.4522 0.78112 0.43902 0.0
H216 H 0.35448 0.78456 0.42613 0.0
C217 C 0.35596 0.79186 0.53183 0.0
C218 C 0.53833 0.34451 0.80303 0.0
C219 C 0.54432 0.34703 0.84647 0.0
H220 H 0.58547 0.38566 0.74509 0.0
C221 C 0.59847 0.40232 0.8649 0.0
H222 H 0.49691 0.30287 0.78782 0.0
C223 C 0.64883 0.45031 0.84029 0.0
C224 C 0.6462 0.44297 0.79695 0.0
H225 H 0.60397 0.40607 0.89829 0.0
H226 H 0.69196 0.48978 0.85544 0.0
C227 C 0.5892 0.39174 0.77846 0.0
C228 C 0.50096 0.44341 0.19696 0.0
C229 C 0.55655 0.50818 0.19968 0.0
H230 H 0.3973 0.3845 0.19905 0.0
C231 C 0.5498 0.56448 0.19711 0.0
H232 H 0.50504 0.39923 0.19911 0.0
C233 C 0.48811 0.55602 0.19799 0.0
C234 C 0.43254 0.49119 0.20038 0.0
H235 H 0.5918 0.61487 0.19966 0.0
H236 H 0.48406 0.60015 0.20091 0.0
C237 C 0.43926 0.43497 0.19678 0.0
C238 C 0.00225 0.5372 0.41368 0.0
C239 C 0.05069 0.56772 0.44428 0.0
H240 H 0.92046 0.44419 0.39124 0.0
C241 C 0.05965 0.52646 0.47182 0.0
H242 H 0.99432 0.56788 0.39208 0.0
C243 C 0.01822 0.45702 0.47131 0.0
C244 C 0.96649 0.42643 0.44319 0.0
H245 H 0.09721 0.5482 0.49527 0.0
H246 H 0.02485 0.42731 0.49448 0.0
C247 C 0.96018 0.46663 0.41315 0.0
C248 C 0.4336 0.98246 0.83969 0.0
C249 C 0.4843 0.04961 0.84336 0.0
H250 H 0.4071 0.87915 0.84275 0.0
C251 C 0.54863 0.06479 0.84097 0.0
H252 H 0.38367 0.96953 0.84198 0.0
C253 C 0.56208 0.0131 0.8405 0.0
C254 C 0.51127 0.94589 0.84345 0.0
H255 H 0.58847 0.11635 0.844 0.0
H256 H 0.61193 0.02599 0.84342 0.0
C257 C 0.44703 0.93076 0.84026 0.0
C258 C 0.49209 0.53023 0.58205 0.0
C259 C 0.53801 0.57014 0.55168 0.0
H260 H 0.42523 0.42918 0.6035 0.0
C261 C 0.55832 0.53916 0.52323 0.0
H262 H 0.47547 0.55296 0.60424 0.0
C263 C 0.53008 0.4697 0.52278 0.0
C264 C 0.48045 0.42874 0.55072 0.0
H265 H 0.59423 0.56862 0.49982 0.0
H266 H 0.5453 0.44769 0.49911 0.0
C267 C 0.46336 0.45961 0.58158 0.0
C268 C 0.93424 0.43981 0.79828 0.0
C269 C 0.94283 0.50439 0.79587 0.0
H270 H 0.97984 0.38168 0.796 0.0
C271 C 0.00558 0.56099 0.79892 0.0
H272 H 0.88623 0.39541 0.79578 0.0
C273 C 0.05917 0.55313 0.79813 0.0
C274 C 0.05054 0.48857 0.79534 0.0
H275 H 0.01354 0.61127 0.79664 0.0
H276 H 0.10714 0.59755 0.79553 0.0
C277 C 0.98784 0.43195 0.79855 0.0
C278 C 0.47885 0.93232 0.15232 0.0
C279 C 0.42953 0.94721 0.14921 0.0
H280 H 0.58096 0.9713 0.15027 0.0
C281 C 0.44576 0.01444 0.15174 0.0
H282 H 0.46731 0.88071 0.15012 0.0
C283 C 0.51079 0.06623 0.15091 0.0
C284 C 0.56008 0.05121 0.14859 0.0
H285 H 0.40865 0.02715 0.14884 0.0
H286 H 0.52229 0.11771 0.14766 0.0
C287 C 0.54389 0.98415 0.15253 0.0
C288 C 0.34349 0.34036 0.31404 0.0
C289 C 0.30048 0.3628 0.32106 0.0
H290 H 0.40194 0.30609 0.34142 0.0
C291 C 0.28764 0.37417 0.36157 0.0
H292 H 0.35429 0.33202 0.28279 0.0
C293 C 0.31346 0.35778 0.39499 0.0
C294 C 0.35392 0.33206 0.38799 0.0
H295 H 0.25453 0.39156 0.36739 0.0
H296 H 0.30009 0.36298 0.42621 0.0
C297 C 0.37094 0.32604 0.3474 0.0
C298 C 0.94878 0.32555 0.64719 0.0
C299 C 0.97146 0.32961 0.6067 0.0
H300 H 0.97172 0.33369 0.71185 0.0
C301 C 0.03733 0.35389 0.59972 0.0
H302 H 0.89804 0.30677 0.6531 0.0
C303 C 0.07964 0.37103 0.63314 0.0
C304 C 0.05576 0.36177 0.67366 0.0
H305 H 0.05559 0.35765 0.56854 0.0
H306 H 0.1299 0.38735 0.6274 0.0
C307 C 0.99061 0.34053 0.6806 0.0
C308 C 0.63924 0.92862 0.00262 0.0
C309 C 0.65544 0.95509 0.96246 0.0
H310 H 0.65096 0.9506 0.06757 0.0
C311 C 0.68892 0.02505 0.95646 0.0
H312 H 0.61325 0.87474 0.00781 0.0
C313 C 0.70919 0.06828 0.99046 0.0
C314 C 0.69757 0.0418 0.03067 0.0
H315 H 0.70116 0.04629 0.92555 0.0
H316 H 0.73721 0.12215 0.98529 0.0
C317 C 0.66097 0.97184 0.03663 0.0
C318 C 0.68148 0.64351 0.39445 0.0
C319 C 0.63967 0.66768 0.38794 0.0
H320 H 0.74028 0.61019 0.36611 0.0
C321 C 0.62044 0.6718 0.34763 0.0
H322 H 0.69644 0.63971 0.4255 0.0
C323 C 0.64684 0.65693 0.31392 0.0
C324 C 0.69094 0.63576 0.32039 0.0
H325 H 0.5883 0.6905 0.34207 0.0
H326 H 0.63429 0.66378 0.2828 0.0
C327 C 0.70622 0.62649 0.36074 0.0
C328 C 0.95515 0.63641 0.60091 0.0
C329 C 0.02138 0.66229 0.60765 0.0
H330 H 0.8627 0.60235 0.62888 0.0
C331 C 0.04476 0.66804 0.64812 0.0
H332 H 0.93632 0.63139 0.56977 0.0
C333 C 0.00328 0.65343 0.68166 0.0
C334 C 0.93781 0.63099 0.6749 0.0
H335 H 0.09577 0.68808 0.6539 0.0
H336 H 0.0227 0.66169 0.71284 0.0
C337 C 0.91324 0.61974 0.63449 0.0
C338 C 0.33069 0.02359 0.03613 0.0
C339 C 0.2935 0.9536 0.03052 0.0
H340 H 0.37975 0.12022 0.00679 0.0
C341 C 0.28228 0.92645 0.9905 0.0
H342 H 0.34042 0.04532 0.06694 0.0
C343 C 0.30352 0.96915 0.95625 0.0
C344 C 0.33752 0.0392 0.96185 0.0
H345 H 0.25383 0.87251 0.98564 0.0
H346 H 0.29153 0.94746 0.92544 0.0
C347 C 0.35336 0.06626 0.0019 0.0
C348 C 0.98181 0.22018 0.13509 0.0
C349 C 0.93016 0.19869 0.16323 0.0
H350 H 0.08459 0.27118 0.12672 0.0
C351 C 0.94309 0.20537 0.20584 0.0
H352 H 0.97318 0.21496 0.10197 0.0
C353 C 0.00701 0.23768 0.21993 0.0
C354 C 0.05892 0.26346 0.19163 0.0
H355 H 0.90427 0.18905 0.22817 0.0
H356 H 0.01581 0.24514 0.25297 0.0
C357 C 0.04566 0.25214 0.14917 0.0
C358 C 0.75095 0.02477 0.53764 0.0
C359 C 0.77277 0.06892 0.50339 0.0
H360 H 0.69983 0.92228 0.55881 0.0
C361 C 0.76005 0.04197 0.46332 0.0
H362 H 0.76028 0.04412 0.56903 0.0
C363 C 0.72487 0.9722 0.45762 0.0
C364 C 0.70249 0.92805 0.49188 0.0
H365 H 0.77612 0.07467 0.43645 0.0
H366 H 0.71501 0.95286 0.42623 0.0
C367 C 0.71652 0.95499 0.53194 0.0
C368 C 0.79521 0.74417 0.84609 0.0
C369 C 0.79749 0.73267 0.8037 0.0
H370 H 0.75969 0.78182 0.89287 0.0
C371 C 0.77205 0.75879 0.7751 0.0
H372 H 0.81461 0.72489 0.86877 0.0
C373 C 0.74061 0.79149 0.78881 0.0
C374 C 0.73385 0.79821 0.83134 0.0
H375 H 0.77373 0.75123 0.74209 0.0
H376 H 0.71855 0.80799 0.76624 0.0
C377 C 0.76349 0.77653 0.8598 0.0
C378 C 0.98198 0.76154 0.21883 0.0
C379 C 0.93035 0.73524 0.19029 0.0
H380 H 0.08464 0.81056 0.22758 0.0
C381 C 0.94399 0.7463 0.14787 0.0
H382 H 0.97286 0.75435 0.25185 0.0
C383 C 0.00799 0.77835 0.13408 0.0
C384 C 0.05937 0.80017 0.1625 0.0
H385 H 0.90525 0.72686 0.12524 0.0
H386 H 0.01695 0.78325 0.101 0.0
C387 C 0.04604 0.79395 0.20504 0.0
C388 C 0.23438 0.97237 0.53816 0.0
C389 C 0.21231 0.92746 0.50426 0.0
H390 H 0.28608 0.0753 0.55857 0.0
C391 C 0.22453 0.95363 0.464 0.0
H392 H 0.22547 0.95369 0.5697 0.0
C393 C 0.25965 0.02332 0.45778 0.0
C394 C 0.28268 0.06823 0.49168 0.0
H395 H 0.20829 0.92041 0.43737 0.0
H396 H 0.26924 0.04198 0.42624 0.0
C397 C 0.26895 0.04207 0.53194 0.0
C398 C 0.22339 0.23617 0.77362 0.0
C399 C 0.19711 0.26145 0.80219 0.0
H400 H 0.27729 0.18738 0.76487 0.0
C401 C 0.19823 0.24878 0.84451 0.0
H402 H 0.2226 0.24462 0.74066 0.0
C403 C 0.22962 0.2161 0.85825 0.0
C404 C 0.26011 0.19528 0.8299 0.0
H405 H 0.17812 0.26734 0.86716 0.0
H406 H 0.23252 0.20991 0.89132 0.0
C407 C 0.25452 0.20316 0.78736 0.0
loop_
_geom_bond_atom_site_label_1
_geom_bond_atom_site_label_2
_geom_bond_distance
_geom_bond_site_symmetry_2
_ccdc_geom_bond_type
Co0 O1 2.216 . S
Co0 O2 2.091 . S
Co0 O4 2.004 . S
Co0 O10 2.021 . S
Co0 O12 2.137 . S
Co0 O13 2.244 . S
O1 Co0 2.216 . S
O1 C8 1.247 . S
O2 Co0 2.091 . S
O2 C8 1.261 . S
C3 O12 1.247 . S
C3 O13 1.272 . S
O4 Co0 2.004 . S
O4 C9 1.259 . S
Co5 O6 2.061 . S
Co5 O11 2.052 . S
Co5 O13 2.135 . S
O6 Co5 2.061 . S
O6 C9 1.235 . S
C7 O10 1.238 . S
C7 O11 1.241 . S
C8 O1 1.247 . S
C8 O2 1.261 . S
C9 O4 1.259 . S
C9 O6 1.235 . S
O10 Co0 2.021 . S
O10 C7 1.238 . S
O11 Co5 2.052 . S
O11 C7 1.241 . S
O12 Co0 2.137 . S
O12 C3 1.247 . S
O13 Co0 2.244 . S
O13 C3 1.272 . S
O13 Co5 2.135 . S
Co14 O15 2.216 . S
Co14 O16 2.091 . S
Co14 O18 2.004 . S
Co14 O24 2.021 . S
Co14 O26 2.137 . S
Co14 O27 2.244 . S
O15 Co14 2.216 . S
O15 C22 1.247 . S
O16 Co14 2.091 . S
O16 C22 1.261 . S
C17 O26 1.247 . S
C17 O27 1.272 . S
O18 Co14 2.004 . S
O18 C23 1.259 . S
Co19 O20 2.061 . S
Co19 O25 2.052 . S
Co19 O27 2.135 . S
O20 Co19 2.061 . S
O20 C23 1.235 . S
C21 O24 1.238 . S
C21 O25 1.241 . S
C22 O15 1.247 . S
C22 O16 1.261 . S
C23 O18 1.259 . S
C23 O20 1.235 . S
O24 Co14 2.021 . S
O24 C21 1.238 . S
O25 Co19 2.052 . S
O25 C21 1.241 . S
O26 Co14 2.137 . S
O26 C17 1.247 . S
O27 Co14 2.244 . S
O27 C17 1.272 . S
O27 Co19 2.135 . S
Co28 O29 2.216 . S
Co28 O30 2.091 . S
Co28 O32 2.004 . S
Co28 O38 2.021 . S
Co28 O40 2.137 . S
Co28 O41 2.244 . S
O29 Co28 2.216 . S
O29 C36 1.247 . S
O30 Co28 2.091 . S
O30 C36 1.261 . S
C31 O40 1.247 . S
C31 O41 1.272 . S
O32 Co28 2.004 . S
O32 C37 1.259 . S
Co33 O34 2.061 . S
Co33 O39 2.052 . S
Co33 O41 2.135 . S
O34 Co33 2.061 . S
O34 C37 1.235 . S
C35 O38 1.238 . S
C35 O39 1.241 . S
C36 O29 1.247 . S
C36 O30 1.261 . S
C37 O32 1.259 . S
C37 O34 1.235 . S
O38 Co28 2.021 . S
O38 C35 1.238 . S
O39 Co33 2.052 . S
O39 C35 1.241 . S
O40 Co28 2.137 . S
O40 C31 1.247 . S
O41 Co28 2.244 . S
O41 C31 1.272 . S
O41 Co33 2.135 . S
Co42 O43 2.216 . S
Co42 O44 2.091 . S
Co42 O46 2.004 . S
Co42 O52 2.021 . S
Co42 O54 2.137 . S
Co42 O55 2.244 . S
O43 Co42 2.216 . S
O43 C50 1.247 . S
O44 Co42 2.091 . S
O44 C50 1.261 . S
C45 O54 1.247 . S
C45 O55 1.272 . S
O46 Co42 2.004 . S
O46 C51 1.259 . S
Co47 O48 2.061 . S
Co47 O53 2.052 . S
Co47 O55 2.135 . S
O48 Co47 2.061 . S
O48 C51 1.235 . S
C49 O52 1.238 . S
C49 O53 1.241 . S
C50 O43 1.247 . S
C50 O44 1.261 . S
C51 O46 1.259 . S
C51 O48 1.235 . S
O52 Co42 2.021 . S
O52 C49 1.238 . S
O53 Co47 2.052 . S
O53 C49 1.241 . S
O54 Co42 2.137 . S
O54 C45 1.247 . S
O55 Co42 2.244 . S
O55 C45 1.272 . S
O55 Co47 2.135 . S
Co56 O57 2.216 . S
Co56 O58 2.091 . S
Co56 O60 2.004 . S
Co56 O66 2.021 . S
Co56 O68 2.137 . S
Co56 O69 2.244 . S
O57 Co56 2.216 . S
O57 C64 1.247 . S
O58 Co56 2.091 . S
O58 C64 1.261 . S
C59 O68 1.247 . S
C59 O69 1.272 . S
O60 Co56 2.004 . S
O60 C65 1.259 . S
Co61 O62 2.061 . S
Co61 O67 2.052 . S
Co61 O69 2.135 . S
O62 Co61 2.061 . S
O62 C65 1.235 . S
C63 O66 1.238 . S
C63 O67 1.241 . S
C64 O57 1.247 . S
C64 O58 1.261 . S
C65 O60 1.259 . S
C65 O62 1.235 . S
O66 Co56 2.021 . S
O66 C63 1.238 . S
O67 Co61 2.052 . S
O67 C63 1.241 . S
O68 Co56 2.137 . S
O68 C59 1.247 . S
O69 Co56 2.244 . S
O69 C59 1.272 . S
O69 Co61 2.135 . S
Co70 O71 2.216 . S
Co70 O72 2.091 . S
Co70 O74 2.004 . S
Co70 O80 2.021 . S
Co70 O82 2.137 . S
Co70 O83 2.244 . S
O71 Co70 2.216 . S
O71 C78 1.247 . S
O72 Co70 2.091 . S
O72 C78 1.261 . S
C73 O82 1.247 . S
C73 O83 1.272 . S
O74 Co70 2.004 . S
O74 C79 1.259 . S
Co75 O76 2.061 . S
Co75 O81 2.052 . S
Co75 O83 2.135 . S
O76 Co75 2.061 . S
O76 C79 1.235 . S
C77 O80 1.238 . S
C77 O81 1.241 . S
C78 O71 1.247 . S
C78 O72 1.261 . S
C79 O74 1.259 . S
C79 O76 1.235 . S
O80 Co70 2.021 . S
O80 C77 1.238 . S
O81 Co75 2.052 . S
O81 C77 1.241 . S
O82 Co70 2.137 . S
O82 C73 1.247 . S
O83 Co70 2.244 . S
O83 C73 1.272 . S
O83 Co75 2.135 . S
Co84 O85 2.216 . S
Co84 O86 2.091 . S
Co84 O88 2.004 . S
Co84 O94 2.021 . S
Co84 O96 2.137 . S
Co84 O97 2.244 . S
O85 Co84 2.216 . S
O85 C92 1.247 . S
O86 Co84 2.091 . S
O86 C92 1.261 . S
C87 O96 1.247 . S
C87 O97 1.272 . S
O88 Co84 2.004 . S
O88 C93 1.259 . S
Co89 O90 2.061 . S
Co89 O95 2.052 . S
Co89 O97 2.135 . S
O90 Co89 2.061 . S
O90 C93 1.235 . S
C91 O94 1.238 . S
C91 O95 1.241 . S
C92 O85 1.247 . S
C92 O86 1.261 . S
C93 O88 1.259 . S
C93 O90 1.235 . S
O94 Co84 2.021 . S
O94 C91 1.238 . S
O95 Co89 2.052 . S
O95 C91 1.241 . S
O96 Co84 2.137 . S
O96 C87 1.247 . S
O97 Co84 2.244 . S
O97 C87 1.272 . S
O97 Co89 2.135 . S
Co98 O99 2.216 . S
Co98 O100 2.091 . S
Co98 O102 2.004 . S
Co98 O108 2.021 . S
Co98 O110 2.137 . S
Co98 O111 2.244 . S
O99 Co98 2.216 . S
O99 C106 1.247 . S
O100 Co98 2.091 . S
O100 C106 1.261 . S
C101 O110 1.247 . S
C101 O111 1.272 . S
O102 Co98 2.004 . S
O102 C107 1.259 . S
Co103 O104 2.061 . S
Co103 O109 2.052 . S
Co103 O111 2.135 . S
O104 Co103 2.061 . S
O104 C107 1.235 . S
C105 O108 1.238 . S
C105 O109 1.241 . S
C106 O99 1.247 . S
C106 O100 1.261 . S
C107 O102 1.259 . S
C107 O104 1.235 . S
O108 Co98 2.021 . S
O108 C105 1.238 . S
O109 Co103 2.052 . S
O109 C105 1.241 . S
O110 Co98 2.137 . S
O110 C101 1.247 . S
O111 Co98 2.244 . S
O111 C101 1.272 . S
O111 Co103 2.135 . S
Co112 O113 2.216 . S
Co112 O114 2.091 . S
Co112 O116 2.004 . S
Co112 O122 2.021 . S
Co112 O124 2.137 . S
Co112 O125 2.244 . S
O113 Co112 2.216 . S
O113 C120 1.247 . S
O114 Co112 2.091 . S
O114 C120 1.261 . S
C115 O124 1.247 . S
C115 O125 1.272 . S
O116 Co112 2.004 . S
O116 C121 1.259 . S
Co117 O118 2.061 . S
Co117 O123 2.052 . S
Co117 O125 2.135 . S
O118 Co117 2.061 . S
O118 C121 1.235 . S
C119 O122 1.238 . S
C119 O123 1.241 . S
C120 O113 1.247 . S
C120 O114 1.261 . S
C121 O116 1.259 . S
C121 O118 1.235 . S
O122 Co112 2.021 . S
O122 C119 1.238 . S
O123 Co117 2.052 . S
O123 C119 1.241 . S
O124 Co112 2.137 . S
O124 C115 1.247 . S
O125 Co112 2.244 . S
O125 C115 1.272 . S
O125 Co117 2.135 . S
Co126 O127 2.216 . S
Co126 O128 2.091 . S
Co126 O130 2.004 . S
Co126 O136 2.021 . S
Co126 O138 2.137 . S
Co126 O139 2.244 . S
O127 Co126 2.216 . S
O127 C134 1.247 . S
O128 Co126 2.091 . S
O128 C134 1.261 . S
C129 O138 1.247 . S
C129 O139 1.272 . S
O130 Co126 2.004 . S
O130 C135 1.259 . S
Co131 O132 2.061 . S
Co131 O137 2.052 . S
Co131 O139 2.135 . S
O132 Co131 2.061 . S
O132 C135 1.235 . S
C133 O136 1.238 . S
C133 O137 1.241 . S
C134 O127 1.247 . S
C134 O128 1.261 . S
C135 O130 1.259 . S
C135 O132 1.235 . S
O136 Co126 2.021 . S
O136 C133 1.238 . S
O137 Co131 2.052 . S
O137 C133 1.241 . S
O138 Co126 2.137 . S
O138 C129 1.247 . S
O139 Co126 2.244 . S
O139 C129 1.272 . S
O139 Co131 2.135 . S
Co140 O141 2.216 . S
Co140 O142 2.091 . S
Co140 O144 2.004 . S
Co140 O150 2.021 . S
Co140 O152 2.137 . S
Co140 O153 2.244 . S
O141 Co140 2.216 . S
O141 C148 1.247 . S
O142 Co140 2.091 . S
O142 C148 1.261 . S
C143 O152 1.247 . S
C143 O153 1.272 . S
O144 Co140 2.004 . S
O144 C149 1.259 . S
Co145 O146 2.061 . S
Co145 O151 2.052 . S
Co145 O153 2.135 . S
O146 Co145 2.061 . S
O146 C149 1.235 . S
C147 O150 1.238 . S
C147 O151 1.241 . S
C148 O141 1.247 . S
C148 O142 1.261 . S
C149 O144 1.259 . S
C149 O146 1.235 . S
O150 Co140 2.021 . S
O150 C147 1.238 . S
O151 Co145 2.052 . S
O151 C147 1.241 . S
O152 Co140 2.137 . S
O152 C143 1.247 . S
O153 Co140 2.244 . S
O153 C143 1.272 . S
O153 Co145 2.135 . S
Co154 O155 2.216 . S
Co154 O156 2.091 . S
Co154 O158 2.004 . S
Co154 O164 2.021 . S
Co154 O166 2.137 . S
Co154 O167 2.244 . S
O155 Co154 2.216 . S
O155 C162 1.247 . S
O156 Co154 2.091 . S
O156 C162 1.261 . S
C157 O166 1.247 . S
C157 O167 1.272 . S
O158 Co154 2.004 . S
O158 C163 1.259 . S
Co159 O160 2.061 . S
Co159 O165 2.052 . S
Co159 O167 2.135 . S
O160 Co159 2.061 . S
O160 C163 1.235 . S
C161 O164 1.238 . S
C161 O165 1.241 . S
C162 O155 1.247 . S
C162 O156 1.261 . S
C163 O158 1.259 . S
C163 O160 1.235 . S
O164 Co154 2.021 . S
O164 C161 1.238 . S
O165 Co159 2.052 . S
O165 C161 1.241 . S
O166 Co154 2.137 . S
O166 C157 1.247 . S
O167 Co154 2.244 . S
O167 C157 1.272 . S
O167 Co159 2.135 . S
C168 C169 1.387 . S
C168 H172 0.950 . S
C168 C177 1.390 . S
C169 C168 1.387 . S
C169 C171 1.387 . S
H170 C177 0.950 . S
C171 C169 1.387 . S
C171 C173 1.390 . S
C171 H175 0.950 . S
H172 C168 0.950 . S
C173 C171 1.390 . S
C173 C174 1.387 . S
C173 H176 0.950 . S
C174 C173 1.387 . S
C174 C177 1.387 . S
H175 C171 0.950 . S
H176 C173 0.950 . S
C177 C168 1.390 . S
C177 H170 0.950 . S
C177 C174 1.387 . S
C178 C179 1.387 . S
C178 H182 0.950 . S
C178 C187 1.390 . S
C179 C178 1.387 . S
C179 C181 1.387 . S
H180 C187 0.950 . S
C181 C179 1.387 . S
C181 C183 1.390 . S
C181 H185 0.950 . S
H182 C178 0.950 . S
C183 C181 1.390 . S
C183 C184 1.387 . S
C183 H186 0.950 . S
C184 C183 1.387 . S
C184 C187 1.387 . S
H185 C181 0.950 . S
H186 C183 0.950 . S
C187 C178 1.390 . S
C187 H180 0.950 . S
C187 C184 1.387 . S
C188 C189 1.387 . S
C188 H192 0.950 . S
C188 C197 1.390 . S
C189 C188 1.387 . S
C189 C191 1.387 . S
H190 C197 0.950 . S
C191 C189 1.387 . S
C191 C193 1.390 . S
C191 H195 0.950 . S
H192 C188 0.950 . S
C193 C191 1.390 . S
C193 C194 1.387 . S
C193 H196 0.950 . S
C194 C193 1.387 . S
C194 C197 1.387 . S
H195 C191 0.950 . S
H196 C193 0.950 . S
C197 C188 1.390 . S
C197 H190 0.950 . S
C197 C194 1.387 . S
C198 C199 1.387 . S
C198 H202 0.950 . S
C198 C207 1.390 . S
C199 C198 1.387 . S
C199 C201 1.387 . S
H200 C207 0.950 . S
C201 C199 1.387 . S
C201 C203 1.390 . S
C201 H205 0.950 . S
H202 C198 0.950 . S
C203 C201 1.390 . S
C203 C204 1.387 . S
C203 H206 0.950 . S
C204 C203 1.387 . S
C204 C207 1.387 . S
H205 C201 0.950 . S
H206 C203 0.950 . S
C207 C198 1.390 . S
C207 H200 0.950 . S
C207 C204 1.387 . S
C208 C209 1.387 . S
C208 H212 0.950 . S
C208 C217 1.390 . S
C209 C208 1.387 . S
C209 C211 1.387 . S
H210 C217 0.950 . S
C211 C209 1.387 . S
C211 C213 1.390 . S
C211 H215 0.950 . S
H212 C208 0.950 . S
C213 C211 1.390 . S
C213 C214 1.387 . S
C213 H216 0.950 . S
C214 C213 1.387 . S
C214 C217 1.387 . S
H215 C211 0.950 . S
H216 C213 0.950 . S
C217 C208 1.390 . S
C217 H210 0.950 . S
C217 C214 1.387 . S
C218 C219 1.387 . S
C218 H222 0.950 . S
C218 C227 1.390 . S
C219 C218 1.387 . S
C219 C221 1.387 . S
H220 C227 0.950 . S
C221 C219 1.387 . S
C221 C223 1.390 . S
C221 H225 0.950 . S
H222 C218 0.950 . S
C223 C221 1.390 . S
C223 C224 1.387 . S
C223 H226 0.950 . S
C224 C223 1.387 . S
C224 C227 1.387 . S
H225 C221 0.950 . S
H226 C223 0.950 . S
C227 C218 1.390 . S
C227 H220 0.950 . S
C227 C224 1.387 . S
C228 C229 1.387 . S
C228 H232 0.950 . S
C228 C237 1.390 . S
C229 C228 1.387 . S
C229 C231 1.387 . S
H230 C237 0.950 . S
C231 C229 1.387 . S
C231 C233 1.390 . S
C231 H235 0.950 . S
H232 C228 0.950 . S
C233 C231 1.390 . S
C233 C234 1.387 . S
C233 H236 0.950 . S
C234 C233 1.387 . S
C234 C237 1.387 . S
H235 C231 0.950 . S
H236 C233 0.950 . S
C237 C228 1.390 . S
C237 H230 0.950 . S
C237 C234 1.387 . S
C238 C239 1.387 . S
C238 H242 0.950 . S
C238 C247 1.390 1_455 S
C239 C238 1.387 . S
C239 C241 1.387 . S
H240 C247 0.950 . S
C241 C239 1.387 . S
C241 C243 1.390 1_455 S
C241 H245 0.950 . S
H242 C238 0.950 . S
C243 C241 1.390 1_655 S
C243 C244 1.387 . S
C243 H246 0.950 . S
C244 C243 1.387 . S
C244 C247 1.387 . S
H245 C241 0.950 . S
H246 C243 0.950 . S
C247 C238 1.390 1_655 S
C247 H240 0.950 . S
C247 C244 1.387 . S
C248 C249 1.387 . S
C248 H252 0.950 . S
C248 C257 1.390 1_545 S
C249 C248 1.387 . S
C249 C251 1.387 . S
H250 C257 0.950 . S
C251 C249 1.387 . S
C251 C253 1.390 1_545 S
C251 H255 0.950 . S
H252 C248 0.950 . S
C253 C251 1.390 1_565 S
C253 C254 1.387 . S
C253 H256 0.950 . S
C254 C253 1.387 . S
C254 C257 1.387 . S
H255 C251 0.950 . S
H256 C253 0.950 . S
C257 C248 1.390 1_565 S
C257 H250 0.950 . S
C257 C254 1.387 . S
C258 C259 1.387 . S
C258 H262 0.950 . S
C258 C267 1.390 . S
C259 C258 1.387 . S
C259 C261 1.387 . S
H260 C267 0.950 . S
C261 C259 1.387 . S
C261 C263 1.390 . S
C261 H265 0.950 . S
H262 C258 0.950 . S
C263 C261 1.390 . S
C263 C264 1.387 . S
C263 H266 0.950 . S
C264 C263 1.387 . S
C264 C267 1.387 . S
H265 C261 0.950 . S
H266 C263 0.950 . S
C267 C258 1.390 . S
C267 H260 0.950 . S
C267 C264 1.387 . S
C268 C269 1.387 . S
C268 H272 0.950 . S
C268 C277 1.390 1_655 S
C269 C268 1.387 . S
C269 C271 1.387 . S
H270 C277 0.950 . S
C271 C269 1.387 . S
C271 C273 1.390 1_655 S
C271 H275 0.950 . S
H272 C268 0.950 . S
C273 C271 1.390 1_455 S
C273 C274 1.387 . S
C273 H276 0.950 . S
C274 C273 1.387 . S
C274 C277 1.387 . S
H275 C271 0.950 . S
H276 C273 0.950 . S
C277 C268 1.390 1_455 S
C277 H270 0.950 . S
C277 C274 1.387 . S
C278 C279 1.387 . S
C278 H282 0.950 . S
C278 C287 1.390 1_565 S
C279 C278 1.387 . S
C279 C281 1.387 . S
H280 C287 0.950 . S
C281 C279 1.387 . S
C281 C283 1.390 1_565 S
C281 H285 0.950 . S
H282 C278 0.950 . S
C283 C281 1.390 1_545 S
C283 C284 1.387 . S
C283 H286 0.950 . S
C284 C283 1.387 . S
C284 C287 1.387 . S
H285 C281 0.950 . S
H286 C283 0.950 . S
C287 C278 1.390 1_545 S
C287 H280 0.950 . S
C287 C284 1.387 . S
C288 C289 1.387 . S
C288 H292 0.950 . S
C288 C297 1.390 . S
C289 C288 1.387 . S
C289 C291 1.387 . S
H290 C297 0.950 . S
C291 C289 1.387 . S
C291 C293 1.390 . S
C291 H295 0.950 . S
H292 C288 0.950 . S
C293 C291 1.390 . S
C293 C294 1.387 . S
C293 H296 0.950 . S
C294 C293 1.387 . S
C294 C297 1.387 . S
H295 C291 0.950 . S
H296 C293 0.950 . S
C297 C288 1.390 . S
C297 H290 0.950 . S
C297 C294 1.387 . S
C298 C299 1.387 . S
C298 H302 0.950 . S
C298 C307 1.390 . S
C299 C298 1.387 . S
C299 C301 1.387 1_655 S
H300 C307 0.950 . S
C301 C299 1.387 1_455 S
C301 C303 1.390 . S
C301 H305 0.950 . S
H302 C298 0.950 . S
C303 C301 1.390 . S
C303 C304 1.387 . S
C303 H306 0.950 . S
C304 C303 1.387 . S
C304 C307 1.387 1_455 S
H305 C301 0.950 . S
H306 C303 0.950 . S
C307 C298 1.390 . S
C307 H300 0.950 . S
C307 C304 1.387 1_655 S
C308 C309 1.387 . S
C308 H312 0.950 . S
C308 C317 1.390 1_566 S
C309 C308 1.387 . S
C309 C311 1.387 . S
H310 C317 0.950 . S
C311 C309 1.387 . S
C311 C313 1.390 1_566 S
C311 H315 0.950 . S
H312 C308 0.950 . S
C313 C311 1.390 1_544 S
C313 C314 1.387 . S
C313 H316 0.950 . S
C314 C313 1.387 . S
C314 C317 1.387 . S
H315 C311 0.950 . S
H316 C313 0.950 . S
C317 C308 1.390 1_544 S
C317 H310 0.950 . S
C317 C314 1.387 . S
C318 C319 1.387 . S
C318 H322 0.950 . S
C318 C327 1.390 . S
C319 C318 1.387 . S
C319 C321 1.387 . S
H320 C327 0.950 . S
C321 C319 1.387 . S
C321 C323 1.390 . S
C321 H325 0.950 . S
H322 C318 0.950 . S
C323 C321 1.390 . S
C323 C324 1.387 . S
C323 H326 0.950 . S
C324 C323 1.387 . S
C324 C327 1.387 . S
H325 C321 0.950 . S
H326 C323 0.950 . S
C327 C318 1.390 . S
C327 H320 0.950 . S
C327 C324 1.387 . S
C328 C329 1.387 1_655 S
C328 H332 0.950 . S
C328 C337 1.390 . S
C329 C328 1.387 1_455 S
C329 C331 1.387 . S
H330 C337 0.950 . S
C331 C329 1.387 . S
C331 C333 1.390 . S
C331 H335 0.950 . S
H332 C328 0.950 . S
C333 C331 1.390 . S
C333 C334 1.387 1_455 S
C333 H336 0.950 . S
C334 C333 1.387 1_655 S
C334 C337 1.387 . S
H335 C331 0.950 . S
H336 C333 0.950 . S
C337 C328 1.390 . S
C337 H330 0.950 . S
C337 C334 1.387 . S
C338 C339 1.387 . S
C338 H342 0.950 . S
C338 C347 1.390 1_564 S
C339 C338 1.387 . S
C339 C341 1.387 . S
H340 C347 0.950 . S
C341 C339 1.387 . S
C341 C343 1.390 1_564 S
C341 H345 0.950 . S
H342 C338 0.950 . S
C343 C341 1.390 1_546 S
C343 C344 1.387 . S
C343 H346 0.950 . S
C344 C343 1.387 . S
C344 C347 1.387 . S
H345 C341 0.950 . S
H346 C343 0.950 . S
C347 C338 1.390 1_546 S
C347 H340 0.950 . S
C347 C344 1.387 . S
C348 C349 1.387 . S
C348 H352 0.950 . S
C348 C357 1.390 1_655 S
C349 C348 1.387 . S
C349 C351 1.387 . S
H350 C357 0.950 . S
C351 C349 1.387 . S
C351 C353 1.390 1_655 S
C351 H355 0.950 . S
H352 C348 0.950 . S
C353 C351 1.390 1_455 S
C353 C354 1.387 . S
C353 H356 0.950 . S
C354 C353 1.387 . S
C354 C357 1.387 . S
H355 C351 0.950 . S
H356 C353 0.950 . S
C357 C348 1.390 1_455 S
C357 H350 0.950 . S
C357 C354 1.387 . S
C358 C359 1.387 . S
C358 H362 0.950 . S
C358 C367 1.390 1_545 S
C359 C358 1.387 . S
C359 C361 1.387 . S
H360 C367 0.950 . S
C361 C359 1.387 . S
C361 C363 1.390 1_545 S
C361 H365 0.950 . S
H362 C358 0.950 . S
C363 C361 1.390 1_565 S
C363 C364 1.387 . S
C363 H366 0.950 . S
C364 C363 1.387 . S
C364 C367 1.387 . S
H365 C361 0.950 . S
H366 C363 0.950 . S
C367 C358 1.390 1_565 S
C367 H360 0.950 . S
C367 C364 1.387 . S
C368 C369 1.387 . S
C368 H372 0.950 . S
C368 C377 1.390 . S
C369 C368 1.387 . S
C369 C371 1.387 . S
H370 C377 0.950 . S
C371 C369 1.387 . S
C371 C373 1.390 . S
C371 H375 0.950 . S
H372 C368 0.950 . S
C373 C371 1.390 . S
C373 C374 1.387 . S
C373 H376 0.950 . S
C374 C373 1.387 . S
C374 C377 1.387 . S
H375 C371 0.950 . S
H376 C373 0.950 . S
C377 C368 1.390 . S
C377 H370 0.950 . S
C377 C374 1.387 . S
C378 C379 1.387 . S
C378 H382 0.950 . S
C378 C387 1.390 1_655 S
C379 C378 1.387 . S
C379 C381 1.387 . S
H380 C387 0.950 . S
C381 C379 1.387 . S
C381 C383 1.390 1_655 S
C381 H385 0.950 . S
H382 C378 0.950 . S
C383 C381 1.390 1_455 S
C383 C384 1.387 . S
C383 H386 0.950 . S
C384 C383 1.387 . S
C384 C387 1.387 . S
H385 C381 0.950 . S
H386 C383 0.950 . S
C387 C378 1.390 1_455 S
C387 H380 0.950 . S
C387 C384 1.387 . S
C388 C389 1.387 . S
C388 H392 0.950 . S
C388 C397 1.390 1_565 S
C389 C388 1.387 . S
C389 C391 1.387 . S
H390 C397 0.950 . S
C391 C389 1.387 . S
C391 C393 1.390 1_565 S
C391 H395 0.950 . S
H392 C388 0.950 . S
C393 C391 1.390 1_545 S
C393 C394 1.387 . S
C393 H396 0.950 . S
C394 C393 1.387 . S
C394 C397 1.387 . S
H395 C391 0.950 . S
H396 C393 0.950 . S
C397 C388 1.390 1_545 S
C397 H390 0.950 . S
C397 C394 1.387 . S
C398 C399 1.387 . S
C398 H402 0.950 . S
C398 C407 1.390 . S
C399 C398 1.387 . S
C399 C401 1.387 . S
H400 C407 0.950 . S
C401 C399 1.387 . S
C401 C403 1.390 . S
C401 H405 0.950 . S
H402 C398 0.950 . S
C403 C401 1.390 . S
C403 C404 1.387 . S
C403 H406 0.950 . S
C404 C403 1.387 . S
C404 C407 1.387 . S
H405 C401 0.950 . S
H406 C403 0.950 . S
C407 C398 1.390 . S
C407 H400 0.950 . S
C407 C404 1.387 . S
C169 C119 1.671 . S
C174 C7 1.682 . S
C179 C23 1.767 . S
C184 C135 1.767 . S
C189 C35 1.671 . S
C194 C147 1.682 . S
C199 C49 1.683 . S
C204 C161 1.669 . S
C209 C93 1.767 . S
C214 C65 1.767 . S
C219 C77 1.669 . S
C224 C105 1.683 . S
C229 C51 1.197 . S
C234 C9 1.197 . S
C239 C63 1.311 . S
C244 C21 1.311 . S
C249 C79 1.090 . S
C254 C37 1.090 . S
C259 C91 1.311 . S
C264 C133 1.311 . S
C269 C107 1.193 . S
C274 C149 1.193 . S
C279 C121 1.090 . S
C284 C163 1.090 . S
C289 C3 1.568 . S
C294 C134 1.561 . S
C299 C22 1.561 . S
C304 C143 1.568 . S
C309 C31 1.553 . S
C314 C157 1.553 . S
C319 C92 1.562 . S
C324 C45 1.567 . S
C329 C64 1.562 . S
C334 C101 1.567 . S
C339 C115 1.553 . S
C344 C73 1.553 . S
C349 C162 1.383 . S
C354 C8 1.377 . S
C359 C17 1.429 . S
C364 C87 1.429 . S
C369 C106 1.378 . S
C374 C36 1.383 . S
C379 C50 1.376 . S
C384 C120 1.381 . S
C389 C59 1.429 . S
C394 C129 1.429 . S
C399 C148 1.376 . S
C404 C78 1.380 . S
