# Generated by pormake.
# Topology umk, (4)-cn, num edge types: 1
# Building blocks:
#     Node 0, Type 0, BuildingBlock: TATPOV_clean_sbu_0, # of connection points: 4
#     Node 1, Type 0, BuildingBlock: TATPOV_clean_sbu_0, # of connection points: 4
#     Node 2, Type 0, BuildingBlock: TATPOV_clean_sbu_0, # of connection points: 4
#     Node 3, Type 0, BuildingBlock: TATPOV_clean_sbu_0, # of connection points: 4
#     Node 4, Type 0, BuildingBlock: TATPOV_clean_sbu_0, # of connection points: 4
#     Node 5, Type 0, BuildingBlock: TATPOV_clean_sbu_0, # of connection points: 4
#     Node 6, Type 0, BuildingBlock: TATPOV_clean_sbu_0, # of connection points: 4
#     Node 7, Type 0, BuildingBlock: TATPOV_clean_sbu_0, # of connection points: 4
#     Node 8, Type 0, BuildingBlock: TATPOV_clean_sbu_0, # of connection points: 4
#     Node 9, Type 0, BuildingBlock: TATPOV_clean_sbu_0, # of connection points: 4
#     Node 10, Type 0, BuildingBlock: TATPOV_clean_sbu_0, # of connection points: 4
#     Node 11, Type 0, BuildingBlock: TATPOV_clean_sbu_0, # of connection points: 4
#     Node 12, Type 0, BuildingBlock: TATPOV_clean_sbu_0, # of connection points: 4
#     Node 13, Type 0, BuildingBlock: TATPOV_clean_sbu_0, # of connection points: 4
#     Node 14, Type 0, BuildingBlock: TATPOV_clean_sbu_0, # of connection points: 4
#     Node 15, Type 0, BuildingBlock: TATPOV_clean_sbu_0, # of connection points: 4
#     Node 16, Type 0, BuildingBlock: TATPOV_clean_sbu_0, # of connection points: 4
#     Node 17, Type 0, BuildingBlock: TATPOV_clean_sbu_0, # of connection points: 4
#     Node 18, Type 0, BuildingBlock: TATPOV_clean_sbu_0, # of connection points: 4
#     Node 19, Type 0, BuildingBlock: TATPOV_clean_sbu_0, # of connection points: 4
#     Node 20, Type 0, BuildingBlock: TATPOV_clean_sbu_0, # of connection points: 4
#     Node 21, Type 0, BuildingBlock: TATPOV_clean_sbu_0, # of connection points: 4
#     Node 22, Type 0, BuildingBlock: TATPOV_clean_sbu_0, # of connection points: 4
#     Node 23, Type 0, BuildingBlock: TATPOV_clean_sbu_0, # of connection points: 4
#     Edge 24, Type (0, 0), BuildingBlock: OJICUG_clean_linker_0, # of connection points: 2
#     Edge 25, Type (0, 0), BuildingBlock: OJICUG_clean_linker_0, # of connection points: 2
#     Edge 26, Type (0, 0), BuildingBlock: OJICUG_clean_linker_0, # of connection points: 2
#     Edge 27, Type (0, 0), BuildingBlock: OJICUG_clean_linker_0, # of connection points: 2
#     Edge 28, Type (0, 0), BuildingBlock: OJICUG_clean_linker_0, # of connection points: 2
#     Edge 29, Type (0, 0), BuildingBlock: OJICUG_clean_linker_0, # of connection points: 2
#     Edge 30, Type (0, 0), BuildingBlock: OJICUG_clean_linker_0, # of connection points: 2
#     Edge 31, Type (0, 0), BuildingBlock: OJICUG_clean_linker_0, # of connection points: 2
#     Edge 32, Type (0, 0), BuildingBlock: OJICUG_clean_linker_0, # of connection points: 2
#     Edge 33, Type (0, 0), BuildingBlock: OJICUG_clean_linker_0, # of connection points: 2
#     Edge 34, Type (0, 0), BuildingBlock: OJICUG_clean_linker_0, # of connection points: 2
#     Edge 35, Type (0, 0), BuildingBlock: OJICUG_clean_linker_0, # of connection points: 2
#     Edge 36, Type (0, 0), BuildingBlock: OJICUG_clean_linker_0, # of connection points: 2
#     Edge 37, Type (0, 0), BuildingBlock: OJICUG_clean_linker_0, # of connection points: 2
#     Edge 38, Type (0, 0), BuildingBlock: OJICUG_clean_linker_0, # of connection points: 2
#     Edge 39, Type (0, 0), BuildingBlock: OJICUG_clean_linker_0, # of connection points: 2
#     Edge 40, Type (0, 0), BuildingBlock: OJICUG_clean_linker_0, # of connection points: 2
#     Edge 41, Type (0, 0), BuildingBlock: OJICUG_clean_linker_0, # of connection points: 2
#     Edge 42, Type (0, 0), BuildingBlock: OJICUG_clean_linker_0, # of connection points: 2
#     Edge 43, Type (0, 0), BuildingBlock: OJICUG_clean_linker_0, # of connection points: 2
#     Edge 44, Type (0, 0), BuildingBlock: OJICUG_clean_linker_0, # of connection points: 2
#     Edge 45, Type (0, 0), BuildingBlock: OJICUG_clean_linker_0, # of connection points: 2
#     Edge 46, Type (0, 0), BuildingBlock: OJICUG_clean_linker_0, # of connection points: 2
#     Edge 47, Type (0, 0), BuildingBlock: OJICUG_clean_linker_0, # of connection points: 2
#     Edge 48, Type (0, 0), BuildingBlock: OJICUG_clean_linker_0, # of connection points: 2
#     Edge 49, Type (0, 0), BuildingBlock: OJICUG_clean_linker_0, # of connection points: 2
#     Edge 50, Type (0, 0), BuildingBlock: OJICUG_clean_linker_0, # of connection points: 2
#     Edge 51, Type (0, 0), BuildingBlock: OJICUG_clean_linker_0, # of connection points: 2
#     Edge 52, Type (0, 0), BuildingBlock: OJICUG_clean_linker_0, # of connection points: 2
#     Edge 53, Type (0, 0), BuildingBlock: OJICUG_clean_linker_0, # of connection points: 2
#     Edge 54, Type (0, 0), BuildingBlock: OJICUG_clean_linker_0, # of connection points: 2
#     Edge 55, Type (0, 0), BuildingBlock: OJICUG_clean_linker_0, # of connection points: 2
#     Edge 56, Type (0, 0), BuildingBlock: OJICUG_clean_linker_0, # of connection points: 2
#     Edge 57, Type (0, 0), BuildingBlock: OJICUG_clean_linker_0, # of connection points: 2
#     Edge 58, Type (0, 0), BuildingBlock: OJICUG_clean_linker_0, # of connection points: 2
#     Edge 59, Type (0, 0), BuildingBlock: OJICUG_clean_linker_0, # of connection points: 2
#     Edge 60, Type (0, 0), BuildingBlock: OJICUG_clean_linker_0, # of connection points: 2
#     Edge 61, Type (0, 0), BuildingBlock: OJICUG_clean_linker_0, # of connection points: 2
#     Edge 62, Type (0, 0), BuildingBlock: OJICUG_clean_linker_0, # of connection points: 2
#     Edge 63, Type (0, 0), BuildingBlock: OJICUG_clean_linker_0, # of connection points: 2
#     Edge 64, Type (0, 0), BuildingBlock: OJICUG_clean_linker_0, # of connection points: 2
#     Edge 65, Type (0, 0), BuildingBlock: OJICUG_clean_linker_0, # of connection points: 2
#     Edge 66, Type (0, 0), BuildingBlock: OJICUG_clean_linker_0, # of connection points: 2
#     Edge 67, Type (0, 0), BuildingBlock: OJICUG_clean_linker_0, # of connection points: 2
#     Edge 68, Type (0, 0), BuildingBlock: OJICUG_clean_linker_0, # of connection points: 2
#     Edge 69, Type (0, 0), BuildingBlock: OJICUG_clean_linker_0, # of connection points: 2
#     Edge 70, Type (0, 0), BuildingBlock: OJICUG_clean_linker_0, # of connection points: 2
#     Edge 71, Type (0, 0), BuildingBlock: OJICUG_clean_linker_0, # of connection points: 2
# Relax obj value: 0.093
# Max RMSD: 0.114
# Mean RMSD: 0.114
data_MOF--net-umk--node1-TATPOV_clean_sbu_0--edge1-OJICUG_clean_linker_0
_symmetry_space_group_name_H-M    P1
_symmetry_Int_Tables_number       1
_symmetry_cell_setting            triclinic
loop_
_symmetry_equiv_pos_as_xyz
'x, y, z'
_cell_length_a     47.572307
_cell_length_b     47.436101
_cell_length_c     32.220865
_cell_angle_alpha  89.741404
_cell_angle_beta   90.135012
_cell_angle_gamma 119.87974
loop_
_atom_site_label
_atom_site_type_symbol
_atom_site_fract_x
_atom_site_fract_y
_atom_site_fract_z
_atom_type_partial_charge
Zn0 Zn 0.36283 0.47173 0.08666 0.0
Zn1 Zn 0.30596 0.45101 0.07651 0.0
O2 O 0.30913 0.4538 0.14114 0.0
O3 O 0.35692 0.45754 0.14558 0.0
O4 O 0.2601 0.44046 0.06412 0.0
O5 O 0.37944 0.51825 0.07279 0.0
O6 O 0.33199 0.49428 0.04237 0.0
C7 C 0.33132 0.45334 0.16293 0.0
C8 C 0.33732 0.41522 0.03963 0.0
O9 O 0.31132 0.41242 0.05493 0.0
O10 O 0.36357 0.44186 0.04339 0.0
C11 C 0.24548 0.42624 0.03096 0.0
O12 O 0.2594 0.41522 0.00568 0.0
C13 C 0.36001 0.51931 0.04695 0.0
Zn14 Zn 0.89259 0.36158 0.59923 0.0
Zn15 Zn 0.86538 0.30518 0.56702 0.0
O16 O 0.84507 0.29677 0.62573 0.0
O17 O 0.87483 0.34448 0.6551 0.0
O18 O 0.83922 0.26048 0.543 0.0
O19 O 0.86961 0.37779 0.56342 0.0
O20 O 0.85344 0.33286 0.52783 0.0
C21 C 0.8529 0.31502 0.65743 0.0
C22 C 0.939 0.3449 0.57133 0.0
O23 O 0.91397 0.31706 0.56565 0.0
O24 O 0.93608 0.36867 0.5832 0.0
C25 C 0.84457 0.24952 0.50988 0.0
O26 O 0.87097 0.26797 0.48839 0.0
C27 C 0.8552 0.36044 0.53229 0.0
Zn28 Zn 0.55988 0.91213 0.07041 0.0
Zn29 Zn 0.57091 0.87125 0.03862 0.0
O30 O 0.55957 0.85615 0.09907 0.0
O31 O 0.56749 0.90121 0.12825 0.0
O32 O 0.57681 0.83525 0.016 0.0
O33 O 0.51435 0.89082 0.0488 0.0
O34 O 0.53035 0.86523 0.00682 0.0
C35 C 0.56209 0.87238 0.13148 0.0
C36 C 0.61849 0.94347 0.02733 0.0
O37 O 0.61461 0.91486 0.02945 0.0
O38 O 0.59582 0.94833 0.03852 0.0
C39 C 0.5937 0.83551 0.9854 0.0
O40 O 0.61117 0.86262 0.96454 0.0
C41 C 0.50892 0.87233 0.01807 0.0
Zn42 Zn 0.63056 0.52811 0.57854 0.0
Zn43 Zn 0.68351 0.54259 0.54834 0.0
O44 O 0.68779 0.53255 0.60986 0.0
O45 O 0.64844 0.53814 0.63645 0.0
O46 O 0.72619 0.55225 0.52289 0.0
O47 O 0.60944 0.48203 0.55852 0.0
O48 O 0.65099 0.5009 0.51613 0.0
C49 C 0.67306 0.53495 0.64135 0.0
C50 C 0.6539 0.58614 0.53515 0.0
O51 O 0.67976 0.58442 0.53849 0.0
O52 O 0.627 0.56203 0.54545 0.0
C53 C 0.75142 0.55835 0.54357 0.0
O54 O 0.75133 0.56121 0.58408 0.0
C55 C 0.62328 0.47794 0.52759 0.0
Zn56 Zn 0.08563 0.66157 0.13396 0.0
Zn57 Zn 0.12766 0.71445 0.09162 0.0
O58 O 0.14324 0.72499 0.1525 0.0
O59 O 0.1063 0.68278 0.18751 0.0
O60 O 0.16303 0.75333 0.06203 0.0
O61 O 0.10138 0.63445 0.10352 0.0
O62 O 0.13397 0.67819 0.06751 0.0
C63 C 0.13181 0.71027 0.18677 0.0
C64 C 0.05463 0.69002 0.08587 0.0
O65 O 0.08342 0.7105 0.07433 0.0
O66 O 0.04962 0.66743 0.11102 0.0
C67 C 0.16139 0.76233 0.02537 0.0
O68 O 0.13385 0.74705 0.00502 0.0
C69 C 0.12267 0.64814 0.07551 0.0
Zn70 Zn 0.50732 0.11518 0.64641 0.0
Zn71 Zn 0.47075 0.1299 0.60055 0.0
O72 O 0.47427 0.15378 0.65594 0.0
O73 O 0.51047 0.1465 0.6896 0.0
O74 O 0.44995 0.14783 0.5623 0.0
O75 O 0.54325 0.13023 0.60537 0.0
O76 O 0.5135 0.14441 0.56817 0.0
C77 C 0.49276 0.15933 0.68712 0.0
C78 C 0.44454 0.05933 0.62467 0.0
O79 O 0.44057 0.07985 0.60339 0.0
O80 O 0.47012 0.0688 0.64598 0.0
C81 C 0.43093 0.15774 0.57425 0.0
O82 O 0.42064 0.15254 0.61284 0.0
C83 C 0.53945 0.14311 0.57302 0.0
Zn84 Zn 0.46139 0.60596 0.84149 0.0
Zn85 Zn 0.50478 0.64953 0.89284 0.0
O86 O 0.50914 0.67277 0.83729 0.0
O87 O 0.46951 0.63911 0.79686 0.0
O88 O 0.53309 0.68752 0.92934 0.0
O89 O 0.42463 0.59188 0.88186 0.0
O90 O 0.4614 0.62645 0.92495 0.0
C91 C 0.49402 0.66682 0.80296 0.0
C92 C 0.51555 0.59527 0.86757 0.0
O93 O 0.52528 0.62079 0.88942 0.0
O94 O 0.49026 0.58513 0.84529 0.0
C95 C 0.55923 0.71137 0.91559 0.0
O96 O 0.5698 0.70925 0.87877 0.0
C97 C 0.4322 0.60458 0.9175 0.0
Zn98 Zn 0.87592 0.47608 0.33483 0.0
Zn99 Zn 0.86268 0.50981 0.38834 0.0
O100 O 0.84744 0.51581 0.33112 0.0
O101 O 0.85076 0.48167 0.28842 0.0
O102 O 0.84264 0.52979 0.42369 0.0
O103 O 0.85625 0.43565 0.36962 0.0
O104 O 0.84658 0.46444 0.41468 0.0
C105 C 0.84291 0.50305 0.29536 0.0
C106 C 0.93237 0.53439 0.37182 0.0
O107 O 0.91167 0.53775 0.39303 0.0
O108 O 0.92297 0.51134 0.34584 0.0
C109 C 0.84603 0.53563 0.46234 0.0
O110 O 0.86578 0.52933 0.48383 0.0
C111 C 0.84571 0.43801 0.40466 0.0
Zn112 Zn 0.38216 0.86884 0.8448 0.0
Zn113 Zn 0.3404 0.85759 0.90282 0.0
O114 O 0.31349 0.82993 0.85223 0.0
O115 O 0.35051 0.83501 0.80748 0.0
O116 O 0.30475 0.84355 0.94524 0.0
O117 O 0.4098 0.85816 0.87978 0.0
O118 O 0.37494 0.84842 0.93025 0.0
C119 C 0.32112 0.82232 0.81793 0.0
C120 C 0.37917 0.92596 0.86897 0.0
O121 O 0.359 0.90679 0.89583 0.0
O122 O 0.39111 0.91518 0.84251 0.0
C123 C 0.27888 0.84316 0.93401 0.0
O124 O 0.27772 0.85433 0.89703 0.0
C125 C 0.40107 0.85011 0.91697 0.0
Zn126 Zn 0.48067 0.36889 0.39426 0.0
Zn127 Zn 0.46051 0.31672 0.42427 0.0
O128 O 0.45322 0.30578 0.36109 0.0
O129 O 0.45512 0.35126 0.34262 0.0
O130 O 0.44956 0.27401 0.45167 0.0
O131 O 0.52815 0.38474 0.39568 0.0
O132 O 0.50754 0.34898 0.44595 0.0
C133 C 0.4483 0.32259 0.33412 0.0
C134 C 0.43511 0.35837 0.45517 0.0
O135 O 0.42734 0.32918 0.44675 0.0
O136 O 0.46126 0.38144 0.44091 0.0
C137 C 0.42977 0.26125 0.48168 0.0
O138 O 0.41464 0.27594 0.49613 0.0
C139 C 0.53193 0.37365 0.42962 0.0
Zn140 Zn 0.13224 0.54004 0.88616 0.0
Zn141 Zn 0.13233 0.49907 0.9374 0.0
O142 O 0.15646 0.49976 0.88312 0.0
O143 O 0.1653 0.54235 0.84642 0.0
O144 O 0.14617 0.47441 0.97586 0.0
O145 O 0.14384 0.57588 0.92589 0.0
O146 O 0.14145 0.54022 0.9716 0.0
C147 C 0.16874 0.51782 0.85126 0.0
C148 C 0.06912 0.47928 0.8992 0.0
O149 O 0.08379 0.4719 0.92657 0.0
O150 O 0.08454 0.50551 0.87854 0.0
C151 C 0.14743 0.44989 0.96241 0.0
O152 O 0.13561 0.43853 0.92544 0.0
C153 C 0.1452 0.56824 0.96311 0.0
Zn154 Zn 0.62686 0.13823 0.35777 0.0
Zn155 Zn 0.66864 0.13378 0.40705 0.0
O156 O 0.6916 0.15498 0.35214 0.0
O157 O 0.65977 0.16622 0.31498 0.0
O158 O 0.70651 0.1435 0.44424 0.0
O159 O 0.61051 0.15719 0.40017 0.0
O160 O 0.64368 0.1508 0.44154 0.0
C161 C 0.68662 0.16718 0.31963 0.0
C162 C 0.61559 0.0714 0.37626 0.0
O163 O 0.64049 0.08491 0.39962 0.0
O164 O 0.6066 0.08865 0.35611 0.0
C165 C 0.73316 0.14729 0.43016 0.0
O166 O 0.7346 0.13964 0.3914 0.0
C167 C 0.62191 0.15867 0.43607 0.0
Zn168 Zn 0.58827 0.46382 0.84578 0.0
Zn169 Zn 0.6344 0.50664 0.89384 0.0
O170 O 0.65444 0.50829 0.83634 0.0
O171 O 0.61789 0.46764 0.79954 0.0
O172 O 0.67438 0.53394 0.92877 0.0
O173 O 0.57298 0.42731 0.88632 0.0
O174 O 0.60964 0.46371 0.92794 0.0
C175 C 0.64617 0.49167 0.80308 0.0
C176 C 0.58225 0.521 0.86965 0.0
O177 O 0.608 0.52989 0.89078 0.0
O178 O 0.57026 0.49498 0.84857 0.0
C179 C 0.69972 0.55784 0.91335 0.0
O180 O 0.69882 0.56699 0.87506 0.0
C181 C 0.58647 0.43482 0.92151 0.0
Zn182 Zn 0.13872 0.63125 0.37878 0.0
Zn183 Zn 0.13105 0.66885 0.42959 0.0
O184 O 0.15054 0.69238 0.37395 0.0
O185 O 0.16645 0.66458 0.33643 0.0
O186 O 0.1416 0.70601 0.46917 0.0
O187 O 0.15732 0.61272 0.41867 0.0
O188 O 0.14639 0.64118 0.46261 0.0
C189 C 0.16398 0.68967 0.34128 0.0
C190 C 0.07056 0.61735 0.39534 0.0
O191 O 0.08251 0.64094 0.42091 0.0
O192 O 0.08913 0.6102 0.37522 0.0
C193 C 0.15115 0.73491 0.45668 0.0
O194 O 0.14946 0.7403 0.417 0.0
C195 C 0.15575 0.62067 0.45559 0.0
Zn196 Zn 0.51785 0.12145 0.87656 0.0
Zn197 Zn 0.48273 0.12843 0.92903 0.0
O198 O 0.4853 0.15604 0.87679 0.0
O199 O 0.52578 0.15883 0.84119 0.0
O200 O 0.46209 0.1438 0.9711 0.0
O201 O 0.55292 0.12694 0.91403 0.0
O202 O 0.52436 0.13544 0.96077 0.0
C203 C 0.5048 0.16737 0.84618 0.0
C204 C 0.45414 0.06389 0.88832 0.0
O205 O 0.45129 0.0801 0.91784 0.0
O206 O 0.47931 0.07673 0.8657 0.0
C207 C 0.44009 0.15043 0.96143 0.0
O208 O 0.42789 0.1439 0.92376 0.0
C209 C 0.5494 0.13364 0.95082 0.0
Zn210 Zn 0.39366 0.48236 0.40191 0.0
Zn211 Zn 0.34063 0.46348 0.43033 0.0
O212 O 0.33147 0.46151 0.36676 0.0
O213 O 0.37621 0.46295 0.3467 0.0
O214 O 0.29836 0.4528 0.45699 0.0
O215 O 0.41188 0.52983 0.41082 0.0
O216 O 0.37267 0.50856 0.45662 0.0
C217 C 0.34834 0.4585 0.33827 0.0
C218 C 0.37734 0.43105 0.45757 0.0
O219 O 0.34924 0.4268 0.44984 0.0
O220 O 0.40209 0.45652 0.4447 0.0
C221 C 0.29262 0.44281 0.49435 0.0
O222 O 0.31421 0.43859 0.51471 0.0
C223 C 0.39878 0.53288 0.44321 0.0
Zn224 Zn 0.87072 0.40454 0.8439 0.0
Zn225 Zn 0.86193 0.36176 0.90079 0.0
O226 O 0.84249 0.336 0.84666 0.0
O227 O 0.84259 0.3714 0.80249 0.0
O228 O 0.84669 0.32507 0.942 0.0
O229 O 0.85279 0.42711 0.87689 0.0
O230 O 0.84602 0.39174 0.92576 0.0
C231 C 0.83513 0.34253 0.81131 0.0
C232 C 0.93034 0.40782 0.87601 0.0
O233 O 0.91143 0.38498 0.90035 0.0
O234 O 0.91874 0.41894 0.84922 0.0
C235 C 0.85161 0.30137 0.93608 0.0
O236 O 0.86952 0.30244 0.90446 0.0
C237 C 0.84411 0.41636 0.91331 0.0
Zn238 Zn 0.477 0.87273 0.33075 0.0
Zn239 Zn 0.51493 0.86267 0.38093 0.0
O240 O 0.52077 0.84976 0.32242 0.0
O241 O 0.48253 0.84876 0.28314 0.0
O242 O 0.53701 0.84345 0.41459 0.0
O243 O 0.43789 0.85159 0.36721 0.0
O244 O 0.47 0.8438 0.409 0.0
C245 C 0.50635 0.84415 0.28763 0.0
C246 C 0.535 0.93154 0.3645 0.0
O247 O 0.54068 0.91205 0.38542 0.0
O248 O 0.5108 0.92052 0.34013 0.0
C249 C 0.54868 0.85095 0.45097 0.0
O250 O 0.548 0.87487 0.47046 0.0
C251 C 0.44246 0.84121 0.40129 0.0
Zn252 Zn 0.45197 0.362 0.09609 0.0
Zn253 Zn 0.42872 0.30498 0.06925 0.0
O254 O 0.42862 0.29803 0.13315 0.0
O255 O 0.43931 0.34647 0.15405 0.0
O256 O 0.41619 0.26106 0.04514 0.0
O257 O 0.49737 0.37882 0.07675 0.0
O258 O 0.47372 0.33356 0.04101 0.0
C259 C 0.4315 0.3174 0.16224 0.0
C260 C 0.39634 0.34389 0.04596 0.0
O261 O 0.39317 0.31564 0.04948 0.0
O262 O 0.42119 0.36842 0.06036 0.0
C263 C 0.43086 0.24672 0.05902 0.0
O264 O 0.45144 0.26005 0.0898 0.0
C265 C 0.49864 0.36113 0.04847 0.0
Zn266 Zn 0.10278 0.479 0.6408 0.0
Zn267 Zn 0.14168 0.46335 0.59987 0.0
O268 O 0.15961 0.47029 0.6601 0.0
O269 O 0.12582 0.48132 0.69348 0.0
O270 O 0.1721 0.45386 0.56781 0.0
O271 O 0.11827 0.51961 0.60586 0.0
O272 O 0.14908 0.50538 0.57139 0.0
C273 C 0.14997 0.47698 0.69353 0.0
C274 C 0.06821 0.41678 0.60079 0.0
O275 O 0.0963 0.42342 0.58846 0.0
O276 O 0.06464 0.43648 0.62345 0.0
C277 C 0.18523 0.43839 0.58279 0.0
O278 O 0.17794 0.42672 0.62073 0.0
C279 C 0.13866 0.52512 0.57734 0.0
Zn280 Zn 0.66202 0.09318 0.11505 0.0
Zn281 Zn 0.71068 0.13781 0.06945 0.0
O282 O 0.72278 0.15386 0.12998 0.0
O283 O 0.68425 0.11483 0.16738 0.0
O284 O 0.74598 0.17573 0.03837 0.0
O285 O 0.63029 0.10452 0.08769 0.0
O286 O 0.67076 0.13906 0.04848 0.0
C287 C 0.7103 0.14175 0.16509 0.0
C288 C 0.69234 0.0664 0.06295 0.0
O289 O 0.71025 0.0956 0.05034 0.0
O290 O 0.67083 0.05982 0.09024 0.0
C291 C 0.77182 0.17968 0.02154 0.0
O292 O 0.77824 0.15576 0.02169 0.0
C293 C 0.64095 0.12533 0.05863 0.0
Zn294 Zn 0.54646 0.64471 0.60356 0.0
Zn295 Zn 0.5593 0.6943 0.55691 0.0
O296 O 0.5513 0.70581 0.61665 0.0
O297 O 0.55046 0.66753 0.65622 0.0
O298 O 0.56707 0.73375 0.52337 0.0
O299 O 0.5025 0.61875 0.57624 0.0
O300 O 0.51705 0.65859 0.53115 0.0
C301 C 0.54995 0.69375 0.6525 0.0
C302 C 0.60378 0.66422 0.55709 0.0
O303 O 0.59833 0.68659 0.54423 0.0
O304 O 0.58458 0.64286 0.5823 0.0
C305 C 0.5769 0.7617 0.5391 0.0
O306 O 0.58547 0.76651 0.57834 0.0
C307 C 0.49655 0.63021 0.54397 0.0
Zn308 Zn 0.89476 0.56147 0.07887 0.0
Zn309 Zn 0.85693 0.57577 0.05172 0.0
O310 O 0.84082 0.55995 0.11137 0.0
O311 O 0.88718 0.56947 0.1378 0.0
O312 O 0.8222 0.58421 0.02917 0.0
O313 O 0.87127 0.51598 0.05743 0.0
O314 O 0.85102 0.5374 0.01482 0.0
C315 C 0.85809 0.56248 0.14284 0.0
C316 C 0.92958 0.6211 0.04243 0.0
O317 O 0.90209 0.61918 0.04818 0.0
O318 O 0.93196 0.59591 0.04679 0.0
C319 C 0.82155 0.59236 -0.00828 0.0
O320 O 0.84629 0.59913 0.96743 0.0
C321 C 0.85528 0.51378 0.02508 0.0
Zn322 Zn 0.36537 0.85767 0.61979 0.0
Zn323 Zn 0.3173 0.85432 0.57925 0.0
O324 O 0.29827 0.82825 0.63423 0.0
O325 O 0.33832 0.82364 0.66061 0.0
O326 O 0.27663 0.8423 0.54592 0.0
O327 O 0.38401 0.84493 0.574 0.0
O328 O 0.34219 0.83994 0.53871 0.0
C329 C 0.30897 0.81647 0.66151 0.0
C330 C 0.36676 0.91984 0.61199 0.0
O331 O 0.34195 0.90416 0.58881 0.0
O332 O 0.37965 0.90507 0.62954 0.0
C333 C 0.24855 0.82965 0.56224 0.0
O334 O 0.24582 0.82843 0.60284 0.0
C335 C 0.36784 0.8377 0.54078 0.0
C336 C 0.31351 0.46138 0.23343 0.0
C337 C 0.32871 0.44873 0.20831 0.0
H338 H 0.30772 0.47442 0.29549 0.0
C339 C 0.34553 0.43479 0.22714 0.0
H340 H 0.30035 0.47221 0.21953 0.0
C341 C 0.34966 0.43601 0.26987 0.0
C342 C 0.3371 0.45123 0.29491 0.0
H343 H 0.35696 0.42429 0.20859 0.0
H344 H 0.36418 0.42643 0.28312 0.0
C345 C 0.31771 0.46263 0.27673 0.0
C346 C 0.81188 0.31371 0.70394 0.0
C347 C 0.83487 0.30409 0.6963 0.0
H348 H 0.79321 0.33328 0.7487 0.0
C349 C 0.84902 0.29676 0.72978 0.0
H350 H 0.801 0.31979 0.67837 0.0
C351 C 0.84415 0.30397 0.77023 0.0
C352 C 0.82588 0.3194 0.7769 0.0
H353 H 0.86715 0.28972 0.72435 0.0
H354 H 0.85861 0.30216 0.79502 0.0
C355 C 0.80752 0.32153 0.74417 0.0
C356 C 0.55606 0.86189 0.24624 0.0
C357 C 0.52238 0.84138 0.25025 0.0
H358 H 0.59543 0.8885 0.20397 0.0
C359 C 0.50395 0.8252 0.21518 0.0
H360 H 0.57075 0.87489 0.27281 0.0
C361 C 0.51842 0.83214 0.17602 0.0
C362 C 0.55112 0.85607 0.17161 0.0
H363 H 0.47795 0.80942 0.2176 0.0
H364 H 0.50323 0.82165 0.14892 0.0
C365 C 0.57023 0.86976 0.20695 0.0
C366 C 0.66325 0.48372 0.73326 0.0
C367 C 0.66564 0.50488 0.76516 0.0
H368 H 0.66552 0.47768 0.66773 0.0
C369 C 0.67916 0.5382 0.75644 0.0
H370 H 0.65278 0.45792 0.73929 0.0
C371 C 0.68544 0.54924 0.71543 0.0
C372 C 0.67956 0.52733 0.68309 0.0
H373 H 0.68099 0.55497 0.78044 0.0
H374 H 0.69199 0.57418 0.70867 0.0
C375 C 0.67061 0.49502 0.69242 0.0
C376 C 0.18452 0.70906 0.26969 0.0
C377 C 0.16714 0.70973 0.30451 0.0
H378 H 0.18738 0.7105 0.20333 0.0
C379 C 0.14535 0.72147 0.29983 0.0
H380 H 0.2016 0.70034 0.27246 0.0
C381 C 0.13669 0.72649 0.2602 0.0
C382 C 0.15072 0.72116 0.22513 0.0
H383 H 0.13164 0.72241 0.32607 0.0
H384 H 0.11655 0.73093 0.25689 0.0
C385 C 0.1765 0.71505 0.23013 0.0
C386 C 0.52396 0.20261 0.78452 0.0
C387 C 0.49775 0.18174 0.80989 0.0
H388 H 0.54247 0.21204 0.7226 0.0
C389 C 0.46671 0.16425 0.79212 0.0
H390 H 0.54806 0.21665 0.79761 0.0
C391 C 0.4635 0.16158 0.74887 0.0
C392 C 0.49128 0.17674 0.7238 0.0
H393 H 0.44603 0.14812 0.81106 0.0
H394 H 0.44047 0.14362 0.73581 0.0
C395 C 0.52078 0.19991 0.74148 0.0
C396 C 0.55851 0.71224 0.72498 0.0
C397 C 0.53957 0.70445 0.68896 0.0
H398 H 0.55848 0.70755 0.79089 0.0
C399 C 0.50636 0.6938 0.69244 0.0
H400 H 0.58413 0.72015 0.7229 0.0
C401 C 0.49134 0.6853 0.73128 0.0
C402 C 0.50965 0.68828 0.76692 0.0
H403 H 0.49127 0.68732 0.66493 0.0
H404 H 0.46511 0.673 0.7328 0.0
C405 C 0.54367 0.70473 0.76393 0.0
C406 C 0.82032 0.49978 0.22467 0.0
C407 C 0.8361 0.51828 0.25986 0.0
H408 H 0.81373 0.50031 0.15897 0.0
C409 C 0.85204 0.55238 0.25735 0.0
H410 H 0.80795 0.47346 0.22593 0.0
C411 C 0.85617 0.56765 0.21892 0.0
C412 C 0.84322 0.54898 0.18306 0.0
H413 H 0.86462 0.56718 0.28404 0.0
H414 H 0.87189 0.59375 0.21666 0.0
C415 C 0.82346 0.51513 0.1865 0.0
C416 C 0.27938 0.81884 0.72278 0.0
C417 C 0.29094 0.80158 0.6999 0.0
H418 H 0.2791 0.83814 0.7826 0.0
C419 C 0.2976 0.77951 0.72072 0.0
H420 H 0.2737 0.83575 0.70736 0.0
C421 C 0.30067 0.78089 0.7638 0.0
C422 C 0.29696 0.80425 0.78585 0.0
H423 H 0.30599 0.76549 0.7036 0.0
H424 H 0.31151 0.76804 0.77863 0.0
C425 C 0.2824 0.82016 0.76605 0.0
C426 C 0.41477 0.31954 0.27425 0.0
C427 C 0.43591 0.31042 0.29231 0.0
H428 H 0.39626 0.32802 0.21806 0.0
C429 C 0.44969 0.29617 0.2675 0.0
H430 H 0.40365 0.33032 0.29289 0.0
C431 C 0.44531 0.29474 0.22427 0.0
C432 C 0.42718 0.30757 0.20606 0.0
H433 H 0.46623 0.28916 0.28087 0.0
H434 H 0.45861 0.28671 0.20503 0.0
C435 C 0.41048 0.31817 0.23151 0.0
C436 C 0.15477 0.46114 0.76494 0.0
C437 C 0.16823 0.48364 0.73233 0.0
H438 H 0.14602 0.45461 0.83024 0.0
C439 C 0.19066 0.51616 0.74133 0.0
H440 H 0.13709 0.436 0.75855 0.0
C441 C 0.19527 0.52707 0.78231 0.0
C442 C 0.1776 0.50542 0.81455 0.0
H443 H 0.20101 0.53395 0.71652 0.0
H444 H 0.20931 0.55297 0.78806 0.0
C445 C 0.15987 0.47192 0.80604 0.0
C446 C 0.72274 0.15495 0.27745 0.0
C447 C 0.70749 0.17358 0.28295 0.0
H448 H 0.73604 0.12994 0.23346 0.0
C449 C 0.70463 0.1905 0.24881 0.0
H450 H 0.72548 0.14175 0.30319 0.0
C451 C 0.71183 0.18452 0.20892 0.0
C452 C 0.72125 0.16112 0.20298 0.0
H453 H 0.69327 0.20528 0.25227 0.0
H454 H 0.70544 0.19449 0.18258 0.0
C455 C 0.72901 0.14825 0.23749 0.0
C456 C 0.17621 0.41776 0.96402 0.0
C457 C 0.16781 0.43883 0.98401 0.0
H458 H 0.20726 0.39711 0.96328 0.0
C459 C 0.18216 0.45215 0.0225 0.0
H460 H 0.16552 0.40692 0.93445 0.0
C461 C 0.20601 0.44636 0.03916 0.0
C462 C 0.21619 0.42731 0.01753 0.0
H463 H 0.17607 0.46828 0.03888 0.0
H464 H 0.21764 0.45824 0.06791 0.0
C465 C 0.20023 0.41217 0.98052 0.0
C466 C 0.79347 0.18344 0.433 0.0
C467 C 0.76338 0.16776 0.45358 0.0
H468 H 0.843 0.22175 0.43472 0.0
C469 C 0.76183 0.17578 0.49508 0.0
H470 H 0.79553 0.17772 0.40104 0.0
C471 C 0.78902 0.2009 0.51437 0.0
C472 C 0.81833 0.21872 0.49249 0.0
H473 H 0.73912 0.1639 0.51195 0.0
H474 H 0.78646 0.20754 0.54568 0.0
C475 C 0.82069 0.20878 0.45226 0.0
C476 C 0.57019 0.77548 -0.00707 0.0
C477 C 0.58984 0.80427 0.97059 0.0
H478 H 0.5455 0.72354 -0.00668 0.0
C479 C 0.60312 0.8023 0.93256 0.0
H480 H 0.55991 0.77611 0.02264 0.0
C481 C 0.59496 0.77198 0.91582 0.0
C482 C 0.57327 0.74315 0.93677 0.0
H483 H 0.61855 0.82404 0.91476 0.0
H484 H 0.60421 0.77117 0.88543 0.0
C485 C 0.56196 0.74527 0.97618 0.0
C486 C 0.77924 0.55556 0.47933 0.0
C487 C 0.77858 0.5573 0.52277 0.0
H488 H 0.80123 0.5478 0.42625 0.0
C489 C 0.80246 0.55508 0.54609 0.0
H490 H 0.76139 0.55746 0.46042 0.0
C491 C 0.82533 0.54931 0.52646 0.0
C492 C 0.82483 0.54584 0.48314 0.0
H493 H 0.80267 0.55641 0.57965 0.0
H494 H 0.84262 0.54646 0.54534 0.0
C495 C 0.80214 0.54999 0.45974 0.0
C496 C 0.21873 0.81769 0.94223 0.0
C497 C 0.24912 0.82617 0.9595 0.0
H498 H 0.16712 0.79081 0.94945 0.0
C499 C 0.25042 0.81599 9e-05 0.0
H500 H 0.21688 0.82519 0.91102 0.0
C501 C 0.22189 0.79655 0.02224 0.0
C502 C 0.19143 0.78654 0.00409 0.0
H503 H 0.27344 0.82227 0.01437 0.0
H504 H 0.22377 0.7883 0.05299 0.0
C505 C 0.19017 0.79792 0.9642 0.0
C506 C 0.44178 0.19027 0.50888 0.0
C507 C 0.42605 0.18042 0.54751 0.0
H508 H 0.45529 0.22346 0.45782 0.0
C509 C 0.40873 0.19521 0.56219 0.0
H510 H 0.45522 0.1793 0.4965 0.0
C511 C 0.40876 0.2206 0.5399 0.0
C512 C 0.42621 0.23178 0.50257 0.0
H513 H 0.39623 0.18812 0.59173 0.0
H514 H 0.39616 0.23228 0.5528 0.0
C515 C 0.44193 0.21571 0.48672 0.0
C516 C 0.76181 0.57183 -0.00363 0.0
C517 C 0.79101 0.58843 0.97396 0.0
H518 H 0.71003 0.54914 -0.00516 0.0
C519 C 0.79008 0.59818 0.93298 0.0
H520 H 0.76163 0.56402 0.02806 0.0
C521 C 0.76046 0.5899 0.91406 0.0
C522 C 0.7311 0.57135 0.93557 0.0
H523 H 0.81213 0.61116 0.91494 0.0
H524 H 0.76053 0.59667 0.8819 0.0
C525 C 0.73217 0.56321 0.9773 0.0
C526 C 0.16937 0.75822 0.52767 0.0
C527 C 0.17149 0.76243 0.48441 0.0
H528 H 0.19175 0.7769 0.58649 0.0
C529 C 0.19649 0.79161 0.46763 0.0
H530 H 0.15028 0.73604 0.54144 0.0
C531 C 0.22065 0.81471 0.49331 0.0
C532 C 0.21979 0.8094 0.5363 0.0
H533 H 0.19882 0.79558 0.43439 0.0
H534 H 0.24085 0.83592 0.47931 0.0
C535 C 0.19309 0.7817 0.55344 0.0
C536 C 0.41358 0.1837 0.97612 0.0
C537 C 0.43292 0.17067 -0.01043 0.0
H538 H 0.39754 0.21789 0.98763 0.0
C539 C 0.44823 0.18004 0.02846 0.0
H540 H 0.40131 0.17689 0.94642 0.0
C541 C 0.44608 0.20354 0.05202 0.0
C542 C 0.42857 0.21821 0.03727 0.0
H543 H 0.46309 0.1703 0.03995 0.0
H544 H 0.4593 0.21115 0.08103 0.0
C545 C 0.41143 0.20725 -0.00026 0.0
C546 C 0.21697 0.44716 0.51755 0.0
C547 C 0.21071 0.43642 0.55899 0.0
H548 H 0.24752 0.45733 0.46453 0.0
C549 C 0.23028 0.42563 0.57806 0.0
H550 H 0.20222 0.45545 0.50187 0.0
C551 C 0.25641 0.42688 0.55667 0.0
C552 C 0.26334 0.43872 0.51572 0.0
H553 H 0.22605 0.41715 0.60993 0.0
H554 H 0.27157 0.4192 0.57257 0.0
C555 C 0.24293 0.4482 0.49611 0.0
C556 C 0.83863 0.24463 0.95484 0.0
C557 C 0.83364 0.27118 0.96089 0.0
H558 H 0.82313 0.19481 0.96946 0.0
C559 C 0.80947 0.2678 -0.01126 0.0
H560 H 0.85712 0.24649 0.93365 0.0
C561 C 0.78989 0.23823 0.00878 0.0
C562 C 0.79414 0.21135 0.00183 0.0
H563 H 0.80495 0.28771 -0.00581 0.0
H564 H 0.77107 0.23638 0.02938 0.0
C565 C 0.81916 0.21502 0.9753 0.0
C566 C 0.57053 0.83648 0.51366 0.0
C567 C 0.55976 0.83046 0.4723 0.0
H568 H 0.58481 0.81968 0.56714 0.0
C569 C 0.55774 0.80328 0.45204 0.0
H570 H 0.57254 0.85727 0.5301 0.0
C571 C 0.56468 0.78173 0.47324 0.0
C572 C 0.57397 0.78688 0.51517 0.0
H573 H 0.54977 0.798 0.42008 0.0
H574 H 0.5618 0.76048 0.45704 0.0
C575 C 0.57764 0.81494 0.53486 0.0
C576 C 0.36368 0.39171 -0.00279 0.0
C577 C 0.33993 0.38682 0.02666 0.0
H578 H 0.40017 0.38029 0.97962 0.0
C579 C 0.32772 0.35939 0.05275 0.0
H580 H 0.37344 0.41264 0.9767 0.0
C581 C 0.34309 0.34069 0.05432 0.0
C582 C 0.37052 0.34927 0.02962 0.0
H583 H 0.3096 0.35522 0.07597 0.0
H584 H 0.33645 0.32267 0.07872 0.0
C585 C 0.37895 0.37312 -0.0012 0.0
C586 C 0.02644 0.38924 0.54682 0.0
C587 C 0.03872 0.38798 0.58598 0.0
H588 H 0.98354 0.375 0.51069 0.0
C589 C 0.01819 0.36471 0.615 0.0
H590 H 0.04176 0.40753 0.52436 0.0
C591 C 0.98504 0.34555 0.60678 0.0
C592 C 0.97204 0.35004 0.56986 0.0
H593 H 0.02711 0.36383 0.64568 0.0
H594 H 0.96912 0.33051 0.63147 0.0
C595 C 0.99316 0.37054 0.53893 0.0
C596 C 0.67245 0.98148 0.05503 0.0
C597 C 0.65055 0.97254 0.02182 0.0
H598 H 0.70476 0.02058 0.09446 0.0
C599 C 0.65332 0.99671 -0.00595 0.0
H600 H 0.67052 0.96333 0.07716 0.0
C601 C 0.67369 0.02959 0.00335 0.0
C602 C 0.69064 0.03845 0.04111 0.0
H603 H 0.63643 0.99039 0.96845 0.0
H604 H 0.67181 0.04765 0.98469 0.0
C605 C 0.69215 0.01436 0.06495 0.0
C606 C 0.6332 0.61806 0.49851 0.0
C607 C 0.65453 0.61713 0.52795 0.0
H608 H 0.60142 0.63646 0.48364 0.0
C609 C 0.66675 0.6406 0.55946 0.0
H610 H 0.62308 0.59985 0.47434 0.0
C611 C 0.65378 0.66111 0.56533 0.0
C612 C 0.62911 0.65887 0.53912 0.0
H613 H 0.68272 0.63993 0.583 0.0
H614 H 0.65997 0.67559 0.59331 0.0
C615 C 0.62089 0.63915 0.50376 0.0
C616 C 0.98477 0.65638 0.01462 0.0
C617 C 0.96029 0.65231 0.04244 0.0
H618 H 0.03552 0.67382 0.0064 0.0
C619 C 0.96913 0.6706 0.07913 0.0
H620 H 0.97854 0.64213 0.98643 0.0
C621 C 0.00175 0.68799 0.09112 0.0
C622 C 0.02587 0.68813 0.06589 0.0
H623 H 0.95076 0.66744 0.10144 0.0
H624 H 0.00763 0.69789 0.12221 0.0
C625 C 0.01745 0.67454 0.0261 0.0
C626 C 0.42274 0.00365 0.65392 0.0
C627 C 0.4206 0.024 0.62378 0.0
H628 H 0.40715 0.95524 0.67409 0.0
C629 C 0.39751 0.00979 0.59184 0.0
H630 H 0.43981 0.01368 0.67937 0.0
C631 C 0.37845 0.97574 0.58881 0.0
C632 C 0.38231 0.95554 0.61766 0.0
H633 H 0.39523 0.02484 0.56822 0.0
H634 H 0.36195 0.9653 0.56289 0.0
C635 C 0.40392 0.97 0.65089 0.0
C636 C 0.52185 0.5485 0.84438 0.0
C637 C 0.53326 0.5769 0.86815 0.0
H638 H 0.52819 0.50885 0.82625 0.0
C639 C 0.56131 0.58709 0.89242 0.0
H640 H 0.50036 0.53987 0.8253 0.0
C641 C 0.57745 0.56913 0.89296 0.0
C642 C 0.56581 0.54062 0.86929 0.0
H643 H 0.57076 0.60887 0.91109 0.0
H644 H 0.59892 0.57752 0.91202 0.0
C645 C 0.53787 0.53063 0.84496 0.0
C646 C 0.98982 0.55286 0.35309 0.0
C647 C 0.96758 0.55678 0.37749 0.0
H648 H 0.03928 0.56877 0.33945 0.0
C649 C 0.97947 0.58168 0.40734 0.0
H650 H 0.98162 0.53408 0.32968 0.0
C651 C 0.01296 0.60185 0.41301 0.0
C652 C 0.03508 0.59741 0.38895 0.0
H653 H 0.96296 0.58537 0.42659 0.0
H654 H 0.02147 0.62057 0.43652 0.0
C655 C 0.02304 0.57285 0.35874 0.0
C656 C 0.40855 0.00998 0.91295 0.0
C657 C 0.42967 0.02943 0.88125 0.0
H658 H 0.37548 0.96148 0.93387 0.0
C659 C 0.42972 0.01489 0.84338 0.0
H660 H 0.40789 0.02058 0.94238 0.0
C661 C 0.41121 0.98135 0.83845 0.0
C662 C 0.39225 0.96148 0.87131 0.0
H663 H 0.44524 0.02928 0.81803 0.0
H664 H 0.41313 0.97087 0.80953 0.0
C665 C 0.38996 0.97618 0.90802 0.0
C666 C 0.36652 0.37418 0.45526 0.0
C667 C 0.38226 0.40492 0.4741 0.0
H668 H 0.37144 0.33377 0.43529 0.0
C669 C 0.40976 0.41366 0.49866 0.0
H670 H 0.34531 0.36701 0.43606 0.0
C671 C 0.42458 0.39469 0.49833 0.0
C672 C 0.41207 0.36689 0.47334 0.0
H673 H 0.42212 0.43716 0.51373 0.0
H674 H 0.44807 0.40408 0.51302 0.0
C675 C 0.38147 0.35511 0.45488 0.0
C676 C 0.01404 0.43306 0.91921 0.0
C677 C 0.03391 0.45834 0.89177 0.0
H678 H 0.96547 0.39702 0.93582 0.0
C679 C 0.01958 0.46483 0.85759 0.0
H680 H 0.02438 0.42742 0.94577 0.0
C681 C 0.98614 0.44751 0.85185 0.0
C682 C 0.966 0.42323 0.88019 0.0
H683 H 0.03415 0.48384 0.83551 0.0
H684 H 0.97605 0.45381 0.82562 0.0
C685 C 0.98032 0.41566 0.91349 0.0
C686 C 0.58338 0.98106 0.39448 0.0
C687 C 0.5564 0.96722 0.36776 0.0
H688 H 0.62351 0.02499 0.41816 0.0
C689 C 0.54977 0.98791 0.3435 0.0
H690 H 0.5892 0.96578 0.4135 0.0
C691 C 0.56929 0.02152 0.34606 0.0
C692 C 0.59607 0.03552 0.37299 0.0
H693 H 0.52931 0.97821 0.32243 0.0
H694 H 0.56314 0.03652 0.32696 0.0
C695 C 0.60307 0.01495 0.39707 0.0
C696 C 0.37771 0.56294 0.9446 0.0
C697 C 0.40899 0.58926 0.95219 0.0
H698 H 0.33699 0.52011 0.96935 0.0
C699 C 0.41994 0.59645 -0.00661 0.0
H700 H 0.36831 0.55702 0.91327 0.0
C701 C 0.40202 0.5752 0.02547 0.0
C702 C 0.37272 0.54658 0.01697 0.0
H703 H 0.44368 0.61678 0.00048 0.0
H704 H 0.41243 0.57982 0.05633 0.0
C705 C 0.35965 0.5418 0.9768 0.0
C706 C 0.83854 0.40021 0.50961 0.0
C707 C 0.84386 0.3744 0.4997 0.0
H708 H 0.83395 0.44014 0.48712 0.0
C709 C 0.84291 0.36567 0.45797 0.0
H710 H 0.83856 0.40711 0.54163 0.0
C711 C 0.8404 0.38477 0.42656 0.0
C712 C 0.83858 0.41272 0.4365 0.0
H713 H 0.84672 0.34575 0.44947 0.0
H714 H 0.84227 0.37897 0.39457 0.0
C715 C 0.83574 0.41907 0.47833 0.0
C716 C 0.42565 0.85687 0.98732 0.0
C717 C 0.42425 0.84804 0.94557 0.0
H718 H 0.45386 0.87177 0.04299 0.0
C719 C 0.44888 0.84298 0.92956 0.0
H720 H 0.40711 0.86105 0.00046 0.0
C721 C 0.47566 0.84906 0.95387 0.0
C722 C 0.47846 0.86071 -0.00553 0.0
H723 H 0.44832 0.83598 0.89747 0.0
H724 H 0.49497 0.84643 0.94006 0.0
C725 C 0.45263 0.86336 0.01148 0.0
C726 C 0.58787 0.42151 0.43621 0.0
C727 C 0.56091 0.39485 0.45482 0.0
H728 H 0.62928 0.46889 0.44492 0.0
C729 C 0.55869 0.39325 0.49831 0.0
H730 H 0.59036 0.42334 0.40274 0.0
C731 C 0.58059 0.41958 0.52228 0.0
C732 C 0.60549 0.44769 0.5033 0.0
H733 H 0.53832 0.3731 0.51368 0.0
H734 H 0.57682 0.41872 0.55551 0.0
C735 C 0.61013 0.44766 0.46032 0.0
C736 C 0.1576 0.62304 0.98728 0.0
C737 C 0.1458 0.59 -0.00383 0.0
H738 H 0.15984 0.66736 0.0055 0.0
C739 C 0.12965 0.57715 0.03393 0.0
H740 H 0.17024 0.63363 0.95845 0.0
C741 C 0.12315 0.59639 0.06069 0.0
C742 C 0.13308 0.62889 0.05037 0.0
H743 H 0.1201 0.55171 0.04147 0.0
H744 H 0.10926 0.58542 0.08862 0.0
C745 C 0.1515 0.64233 0.0142 0.0
C746 C 0.55745 0.16206 0.50013 0.0
C747 C 0.56397 0.154 0.53961 0.0
H748 H 0.57121 0.17061 0.43619 0.0
C749 C 0.59301 0.15356 0.5459 0.0
H750 H 0.5355 0.16303 0.49438 0.0
C751 C 0.6136 0.15811 0.51264 0.0
C752 C 0.60548 0.16303 0.47236 0.0
H753 H 0.59907 0.14802 0.57615 0.0
H754 H 0.63472 0.15559 0.51813 0.0
C755 C 0.57802 0.16653 0.46678 0.0
C756 C 0.52387 0.36182 0.98021 0.0
C757 C 0.52665 0.37529 0.01976 0.0
H758 H 0.54135 0.37017 0.91775 0.0
C759 C 0.55406 0.40553 0.02876 0.0
H760 H 0.50328 0.33841 0.97241 0.0
C761 C 0.57603 0.42371 -0.00255 0.0
C762 C 0.57078 0.41204 0.95656 0.0
H763 H 0.55722 0.41632 0.0592 0.0
H764 H 0.59529 0.44806 0.00457 0.0
C765 C 0.54571 0.3801 0.94884 0.0
C766 C 0.14502 0.60096 0.52906 0.0
C767 C 0.15844 0.60144 0.49008 0.0
H768 H 0.12807 0.57629 0.5872 0.0
C769 C 0.16935 0.57931 0.48239 0.0
H770 H 0.1364 0.61768 0.53605 0.0
C771 C 0.1646 0.55557 0.51178 0.0
C772 C 0.14859 0.55333 0.54929 0.0
H773 H 0.17998 0.57917 0.45275 0.0
H774 H 0.17186 0.53792 0.50408 0.0
C775 C 0.13999 0.57703 0.55828 0.0
C776 C 0.58644 0.12073 0.04761 0.0
C777 C 0.61845 0.1319 0.0342 0.0
H778 H 0.53934 0.11337 0.03182 0.0
C779 C 0.62826 0.14749 -0.00453 0.0
H780 H 0.57826 0.10884 0.07747 0.0
C781 C 0.60602 0.14972 0.96944 0.0
C782 C 0.57365 0.137 0.98185 0.0
H783 H 0.65274 0.15653 0.98425 0.0
H784 H 0.61386 0.16032 0.93885 0.0
C785 C 0.56425 0.12354 0.02172 0.0
C786 C 0.44114 0.58168 0.53755 0.0
C787 C 0.46732 0.60919 0.51931 0.0
H788 H 0.39784 0.53617 0.52748 0.0
C789 C 0.46688 0.61425 0.4764 0.0
H790 H 0.44064 0.57741 0.57067 0.0
C791 C 0.44254 0.59049 0.45164 0.0
C792 C 0.41793 0.56161 0.4695 0.0
H793 H 0.48661 0.63534 0.46152 0.0
H794 H 0.44416 0.59374 0.41825 0.0
C795 C 0.41644 0.55822 0.51287 0.0
C796 C 0.83454 0.46249 0.92862 0.0
C797 C 0.83793 0.43627 0.94303 0.0
H798 H 0.83711 0.50769 0.94352 0.0
C799 C 0.84137 0.4331 0.98578 0.0
H800 H 0.83151 0.46541 0.89584 0.0
C801 C 0.84491 0.45748 0.01295 0.0
C802 C 0.84472 0.48528 -0.00209 0.0
H803 H 0.84388 0.41313 -0.00208 0.0
H804 H 0.84958 0.45538 0.04542 0.0
C805 C 0.83779 0.48676 0.95589 0.0
C806 C 0.42476 0.82392 0.47434 0.0
C807 C 0.41811 0.83162 0.43476 0.0
H808 H 0.41358 0.81932 0.53899 0.0
C809 C 0.39064 0.83519 0.42938 0.0
H810 H 0.44542 0.82056 0.47951 0.0
C811 C 0.37231 0.83451 0.46365 0.0
C812 C 0.38123 0.8303 0.50376 0.0
H813 H 0.38464 0.84082 0.39917 0.0
H814 H 0.35276 0.83968 0.45902 0.0
C815 C 0.40653 0.82331 0.50849 0.0
loop_
_geom_bond_atom_site_label_1
_geom_bond_atom_site_label_2
_geom_bond_distance
_geom_bond_site_symmetry_2
_ccdc_geom_bond_type
Zn0 O3 2.031 . S
Zn0 O5 2.049 . S
Zn0 O10 2.067 . S
Zn1 O2 1.962 . S
Zn1 O4 1.986 . S
Zn1 O6 1.996 . S
Zn1 O9 1.943 . S
O2 Zn1 1.962 . S
O2 C7 1.254 . S
O3 Zn0 2.031 . S
O3 C7 1.269 . S
O4 Zn1 1.986 . S
O4 C11 1.262 . S
O5 Zn0 2.049 . S
O5 C13 1.260 . S
O6 Zn1 1.996 . S
O6 C13 1.257 . S
C7 O2 1.254 . S
C7 O3 1.269 . S
C8 O9 1.249 . S
C8 O10 1.270 . S
O9 Zn1 1.943 . S
O9 C8 1.249 . S
O10 Zn0 2.067 . S
O10 C8 1.270 . S
C11 O4 1.262 . S
C11 O12 1.232 . S
O12 C11 1.232 . S
C13 O5 1.260 . S
C13 O6 1.257 . S
Zn14 O17 2.031 . S
Zn14 O19 2.049 . S
Zn14 O24 2.067 . S
Zn15 O16 1.962 . S
Zn15 O18 1.986 . S
Zn15 O20 1.996 . S
Zn15 O23 1.943 . S
O16 Zn15 1.962 . S
O16 C21 1.254 . S
O17 Zn14 2.031 . S
O17 C21 1.269 . S
O18 Zn15 1.986 . S
O18 C25 1.262 . S
O19 Zn14 2.049 . S
O19 C27 1.260 . S
O20 Zn15 1.996 . S
O20 C27 1.257 . S
C21 O16 1.254 . S
C21 O17 1.269 . S
C22 O23 1.249 . S
C22 O24 1.270 . S
O23 Zn15 1.943 . S
O23 C22 1.249 . S
O24 Zn14 2.067 . S
O24 C22 1.270 . S
C25 O18 1.262 . S
C25 O26 1.232 . S
O26 C25 1.232 . S
C27 O19 1.260 . S
C27 O20 1.257 . S
Zn28 O31 2.031 . S
Zn28 O33 2.049 . S
Zn28 O38 2.067 . S
Zn29 O30 1.962 . S
Zn29 O32 1.986 . S
Zn29 O34 1.996 . S
Zn29 O37 1.943 . S
O30 Zn29 1.962 . S
O30 C35 1.254 . S
O31 Zn28 2.031 . S
O31 C35 1.269 . S
O32 Zn29 1.986 . S
O32 C39 1.262 . S
O33 Zn28 2.049 . S
O33 C41 1.260 . S
O34 Zn29 1.996 . S
O34 C41 1.257 . S
C35 O30 1.254 . S
C35 O31 1.269 . S
C36 O37 1.249 . S
C36 O38 1.270 . S
O37 Zn29 1.943 . S
O37 C36 1.249 . S
O38 Zn28 2.067 . S
O38 C36 1.270 . S
C39 O32 1.262 . S
C39 O40 1.232 . S
O40 C39 1.232 . S
C41 O33 1.260 . S
C41 O34 1.257 . S
Zn42 O45 2.031 . S
Zn42 O47 2.049 . S
Zn42 O52 2.067 . S
Zn43 O44 1.962 . S
Zn43 O46 1.986 . S
Zn43 O48 1.996 . S
Zn43 O51 1.943 . S
O44 Zn43 1.962 . S
O44 C49 1.254 . S
O45 Zn42 2.031 . S
O45 C49 1.269 . S
O46 Zn43 1.986 . S
O46 C53 1.262 . S
O47 Zn42 2.049 . S
O47 C55 1.260 . S
O48 Zn43 1.996 . S
O48 C55 1.257 . S
C49 O44 1.254 . S
C49 O45 1.269 . S
C50 O51 1.249 . S
C50 O52 1.270 . S
O51 Zn43 1.943 . S
O51 C50 1.249 . S
O52 Zn42 2.067 . S
O52 C50 1.270 . S
C53 O46 1.262 . S
C53 O54 1.232 . S
O54 C53 1.232 . S
C55 O47 1.260 . S
C55 O48 1.257 . S
Zn56 O59 2.031 . S
Zn56 O61 2.049 . S
Zn56 O66 2.067 . S
Zn57 O58 1.962 . S
Zn57 O60 1.986 . S
Zn57 O62 1.996 . S
Zn57 O65 1.943 . S
O58 Zn57 1.962 . S
O58 C63 1.254 . S
O59 Zn56 2.031 . S
O59 C63 1.269 . S
O60 Zn57 1.986 . S
O60 C67 1.262 . S
O61 Zn56 2.049 . S
O61 C69 1.260 . S
O62 Zn57 1.996 . S
O62 C69 1.257 . S
C63 O58 1.254 . S
C63 O59 1.269 . S
C64 O65 1.249 . S
C64 O66 1.270 . S
O65 Zn57 1.943 . S
O65 C64 1.249 . S
O66 Zn56 2.067 . S
O66 C64 1.270 . S
C67 O60 1.262 . S
C67 O68 1.232 . S
O68 C67 1.232 . S
C69 O61 1.260 . S
C69 O62 1.257 . S
Zn70 O73 2.031 . S
Zn70 O75 2.049 . S
Zn70 O80 2.067 . S
Zn71 O72 1.962 . S
Zn71 O74 1.986 . S
Zn71 O76 1.996 . S
Zn71 O79 1.943 . S
O72 Zn71 1.962 . S
O72 C77 1.254 . S
O73 Zn70 2.031 . S
O73 C77 1.269 . S
O74 Zn71 1.986 . S
O74 C81 1.262 . S
O75 Zn70 2.049 . S
O75 C83 1.260 . S
O76 Zn71 1.996 . S
O76 C83 1.257 . S
C77 O72 1.254 . S
C77 O73 1.269 . S
C78 O79 1.249 . S
C78 O80 1.270 . S
O79 Zn71 1.943 . S
O79 C78 1.249 . S
O80 Zn70 2.067 . S
O80 C78 1.270 . S
C81 O74 1.262 . S
C81 O82 1.232 . S
O82 C81 1.232 . S
C83 O75 1.260 . S
C83 O76 1.257 . S
Zn84 O87 2.031 . S
Zn84 O89 2.049 . S
Zn84 O94 2.067 . S
Zn85 O86 1.962 . S
Zn85 O88 1.986 . S
Zn85 O90 1.996 . S
Zn85 O93 1.943 . S
O86 Zn85 1.962 . S
O86 C91 1.254 . S
O87 Zn84 2.031 . S
O87 C91 1.269 . S
O88 Zn85 1.986 . S
O88 C95 1.262 . S
O89 Zn84 2.049 . S
O89 C97 1.260 . S
O90 Zn85 1.996 . S
O90 C97 1.257 . S
C91 O86 1.254 . S
C91 O87 1.269 . S
C92 O93 1.249 . S
C92 O94 1.270 . S
O93 Zn85 1.943 . S
O93 C92 1.249 . S
O94 Zn84 2.067 . S
O94 C92 1.270 . S
C95 O88 1.262 . S
C95 O96 1.232 . S
O96 C95 1.232 . S
C97 O89 1.260 . S
C97 O90 1.257 . S
Zn98 O101 2.031 . S
Zn98 O103 2.049 . S
Zn98 O108 2.067 . S
Zn99 O100 1.962 . S
Zn99 O102 1.986 . S
Zn99 O104 1.996 . S
Zn99 O107 1.943 . S
O100 Zn99 1.962 . S
O100 C105 1.254 . S
O101 Zn98 2.031 . S
O101 C105 1.269 . S
O102 Zn99 1.986 . S
O102 C109 1.262 . S
O103 Zn98 2.049 . S
O103 C111 1.260 . S
O104 Zn99 1.996 . S
O104 C111 1.257 . S
C105 O100 1.254 . S
C105 O101 1.269 . S
C106 O107 1.249 . S
C106 O108 1.270 . S
O107 Zn99 1.943 . S
O107 C106 1.249 . S
O108 Zn98 2.067 . S
O108 C106 1.270 . S
C109 O102 1.262 . S
C109 O110 1.232 . S
O110 C109 1.232 . S
C111 O103 1.260 . S
C111 O104 1.257 . S
Zn112 O115 2.031 . S
Zn112 O117 2.049 . S
Zn112 O122 2.067 . S
Zn113 O114 1.962 . S
Zn113 O116 1.986 . S
Zn113 O118 1.996 . S
Zn113 O121 1.943 . S
O114 Zn113 1.962 . S
O114 C119 1.254 . S
O115 Zn112 2.031 . S
O115 C119 1.269 . S
O116 Zn113 1.986 . S
O116 C123 1.262 . S
O117 Zn112 2.049 . S
O117 C125 1.260 . S
O118 Zn113 1.996 . S
O118 C125 1.257 . S
C119 O114 1.254 . S
C119 O115 1.269 . S
C120 O121 1.249 . S
C120 O122 1.270 . S
O121 Zn113 1.943 . S
O121 C120 1.249 . S
O122 Zn112 2.067 . S
O122 C120 1.270 . S
C123 O116 1.262 . S
C123 O124 1.232 . S
O124 C123 1.232 . S
C125 O117 1.260 . S
C125 O118 1.257 . S
Zn126 O129 2.031 . S
Zn126 O131 2.049 . S
Zn126 O136 2.067 . S
Zn127 O128 1.962 . S
Zn127 O130 1.986 . S
Zn127 O132 1.996 . S
Zn127 O135 1.943 . S
O128 Zn127 1.962 . S
O128 C133 1.254 . S
O129 Zn126 2.031 . S
O129 C133 1.269 . S
O130 Zn127 1.986 . S
O130 C137 1.262 . S
O131 Zn126 2.049 . S
O131 C139 1.260 . S
O132 Zn127 1.996 . S
O132 C139 1.257 . S
C133 O128 1.254 . S
C133 O129 1.269 . S
C134 O135 1.249 . S
C134 O136 1.270 . S
O135 Zn127 1.943 . S
O135 C134 1.249 . S
O136 Zn126 2.067 . S
O136 C134 1.270 . S
C137 O130 1.262 . S
C137 O138 1.232 . S
O138 C137 1.232 . S
C139 O131 1.260 . S
C139 O132 1.257 . S
Zn140 O143 2.031 . S
Zn140 O145 2.049 . S
Zn140 O150 2.067 . S
Zn141 O142 1.962 . S
Zn141 O144 1.986 . S
Zn141 O146 1.996 . S
Zn141 O149 1.943 . S
O142 Zn141 1.962 . S
O142 C147 1.254 . S
O143 Zn140 2.031 . S
O143 C147 1.269 . S
O144 Zn141 1.986 . S
O144 C151 1.262 . S
O145 Zn140 2.049 . S
O145 C153 1.260 . S
O146 Zn141 1.996 . S
O146 C153 1.257 . S
C147 O142 1.254 . S
C147 O143 1.269 . S
C148 O149 1.249 . S
C148 O150 1.270 . S
O149 Zn141 1.943 . S
O149 C148 1.249 . S
O150 Zn140 2.067 . S
O150 C148 1.270 . S
C151 O144 1.262 . S
C151 O152 1.232 . S
O152 C151 1.232 . S
C153 O145 1.260 . S
C153 O146 1.257 . S
Zn154 O157 2.031 . S
Zn154 O159 2.049 . S
Zn154 O164 2.067 . S
Zn155 O156 1.962 . S
Zn155 O158 1.986 . S
Zn155 O160 1.996 . S
Zn155 O163 1.943 . S
O156 Zn155 1.962 . S
O156 C161 1.254 . S
O157 Zn154 2.031 . S
O157 C161 1.269 . S
O158 Zn155 1.986 . S
O158 C165 1.262 . S
O159 Zn154 2.049 . S
O159 C167 1.260 . S
O160 Zn155 1.996 . S
O160 C167 1.257 . S
C161 O156 1.254 . S
C161 O157 1.269 . S
C162 O163 1.249 . S
C162 O164 1.270 . S
O163 Zn155 1.943 . S
O163 C162 1.249 . S
O164 Zn154 2.067 . S
O164 C162 1.270 . S
C165 O158 1.262 . S
C165 O166 1.232 . S
O166 C165 1.232 . S
C167 O159 1.260 . S
C167 O160 1.257 . S
Zn168 O171 2.031 . S
Zn168 O173 2.049 . S
Zn168 O178 2.067 . S
Zn169 O170 1.962 . S
Zn169 O172 1.986 . S
Zn169 O174 1.996 . S
Zn169 O177 1.943 . S
O170 Zn169 1.962 . S
O170 C175 1.254 . S
O171 Zn168 2.031 . S
O171 C175 1.269 . S
O172 Zn169 1.986 . S
O172 C179 1.262 . S
O173 Zn168 2.049 . S
O173 C181 1.260 . S
O174 Zn169 1.996 . S
O174 C181 1.257 . S
C175 O170 1.254 . S
C175 O171 1.269 . S
C176 O177 1.249 . S
C176 O178 1.270 . S
O177 Zn169 1.943 . S
O177 C176 1.249 . S
O178 Zn168 2.067 . S
O178 C176 1.270 . S
C179 O172 1.262 . S
C179 O180 1.232 . S
O180 C179 1.232 . S
C181 O173 1.260 . S
C181 O174 1.257 . S
Zn182 O185 2.031 . S
Zn182 O187 2.049 . S
Zn182 O192 2.067 . S
Zn183 O184 1.962 . S
Zn183 O186 1.986 . S
Zn183 O188 1.996 . S
Zn183 O191 1.943 . S
O184 Zn183 1.962 . S
O184 C189 1.254 . S
O185 Zn182 2.031 . S
O185 C189 1.269 . S
O186 Zn183 1.986 . S
O186 C193 1.262 . S
O187 Zn182 2.049 . S
O187 C195 1.260 . S
O188 Zn183 1.996 . S
O188 C195 1.257 . S
C189 O184 1.254 . S
C189 O185 1.269 . S
C190 O191 1.249 . S
C190 O192 1.270 . S
O191 Zn183 1.943 . S
O191 C190 1.249 . S
O192 Zn182 2.067 . S
O192 C190 1.270 . S
C193 O186 1.262 . S
C193 O194 1.232 . S
O194 C193 1.232 . S
C195 O187 1.260 . S
C195 O188 1.257 . S
Zn196 O199 2.031 . S
Zn196 O201 2.049 . S
Zn196 O206 2.067 . S
Zn197 O198 1.962 . S
Zn197 O200 1.986 . S
Zn197 O202 1.996 . S
Zn197 O205 1.943 . S
O198 Zn197 1.962 . S
O198 C203 1.254 . S
O199 Zn196 2.031 . S
O199 C203 1.269 . S
O200 Zn197 1.986 . S
O200 C207 1.262 . S
O201 Zn196 2.049 . S
O201 C209 1.260 . S
O202 Zn197 1.996 . S
O202 C209 1.257 . S
C203 O198 1.254 . S
C203 O199 1.269 . S
C204 O205 1.249 . S
C204 O206 1.270 . S
O205 Zn197 1.943 . S
O205 C204 1.249 . S
O206 Zn196 2.067 . S
O206 C204 1.270 . S
C207 O200 1.262 . S
C207 O208 1.232 . S
O208 C207 1.232 . S
C209 O201 1.260 . S
C209 O202 1.257 . S
Zn210 O213 2.031 . S
Zn210 O215 2.049 . S
Zn210 O220 2.067 . S
Zn211 O212 1.962 . S
Zn211 O214 1.986 . S
Zn211 O216 1.996 . S
Zn211 O219 1.943 . S
O212 Zn211 1.962 . S
O212 C217 1.254 . S
O213 Zn210 2.031 . S
O213 C217 1.269 . S
O214 Zn211 1.986 . S
O214 C221 1.262 . S
O215 Zn210 2.049 . S
O215 C223 1.260 . S
O216 Zn211 1.996 . S
O216 C223 1.257 . S
C217 O212 1.254 . S
C217 O213 1.269 . S
C218 O219 1.249 . S
C218 O220 1.270 . S
O219 Zn211 1.943 . S
O219 C218 1.249 . S
O220 Zn210 2.067 . S
O220 C218 1.270 . S
C221 O214 1.262 . S
C221 O222 1.232 . S
O222 C221 1.232 . S
C223 O215 1.260 . S
C223 O216 1.257 . S
Zn224 O227 2.031 . S
Zn224 O229 2.049 . S
Zn224 O234 2.067 . S
Zn225 O226 1.962 . S
Zn225 O228 1.986 . S
Zn225 O230 1.996 . S
Zn225 O233 1.943 . S
O226 Zn225 1.962 . S
O226 C231 1.254 . S
O227 Zn224 2.031 . S
O227 C231 1.269 . S
O228 Zn225 1.986 . S
O228 C235 1.262 . S
O229 Zn224 2.049 . S
O229 C237 1.260 . S
O230 Zn225 1.996 . S
O230 C237 1.257 . S
C231 O226 1.254 . S
C231 O227 1.269 . S
C232 O233 1.249 . S
C232 O234 1.270 . S
O233 Zn225 1.943 . S
O233 C232 1.249 . S
O234 Zn224 2.067 . S
O234 C232 1.270 . S
C235 O228 1.262 . S
C235 O236 1.232 . S
O236 C235 1.232 . S
C237 O229 1.260 . S
C237 O230 1.257 . S
Zn238 O241 2.031 . S
Zn238 O243 2.049 . S
Zn238 O248 2.067 . S
Zn239 O240 1.962 . S
Zn239 O242 1.986 . S
Zn239 O244 1.996 . S
Zn239 O247 1.943 . S
O240 Zn239 1.962 . S
O240 C245 1.254 . S
O241 Zn238 2.031 . S
O241 C245 1.269 . S
O242 Zn239 1.986 . S
O242 C249 1.262 . S
O243 Zn238 2.049 . S
O243 C251 1.260 . S
O244 Zn239 1.996 . S
O244 C251 1.257 . S
C245 O240 1.254 . S
C245 O241 1.269 . S
C246 O247 1.249 . S
C246 O248 1.270 . S
O247 Zn239 1.943 . S
O247 C246 1.249 . S
O248 Zn238 2.067 . S
O248 C246 1.270 . S
C249 O242 1.262 . S
C249 O250 1.232 . S
O250 C249 1.232 . S
C251 O243 1.260 . S
C251 O244 1.257 . S
Zn252 O255 2.031 . S
Zn252 O257 2.049 . S
Zn252 O262 2.067 . S
Zn253 O254 1.962 . S
Zn253 O256 1.986 . S
Zn253 O258 1.996 . S
Zn253 O261 1.943 . S
O254 Zn253 1.962 . S
O254 C259 1.254 . S
O255 Zn252 2.031 . S
O255 C259 1.269 . S
O256 Zn253 1.986 . S
O256 C263 1.262 . S
O257 Zn252 2.049 . S
O257 C265 1.260 . S
O258 Zn253 1.996 . S
O258 C265 1.257 . S
C259 O254 1.254 . S
C259 O255 1.269 . S
C260 O261 1.249 . S
C260 O262 1.270 . S
O261 Zn253 1.943 . S
O261 C260 1.249 . S
O262 Zn252 2.067 . S
O262 C260 1.270 . S
C263 O256 1.262 . S
C263 O264 1.232 . S
O264 C263 1.232 . S
C265 O257 1.260 . S
C265 O258 1.257 . S
Zn266 O269 2.031 . S
Zn266 O271 2.049 . S
Zn266 O276 2.067 . S
Zn267 O268 1.962 . S
Zn267 O270 1.986 . S
Zn267 O272 1.996 . S
Zn267 O275 1.943 . S
O268 Zn267 1.962 . S
O268 C273 1.254 . S
O269 Zn266 2.031 . S
O269 C273 1.269 . S
O270 Zn267 1.986 . S
O270 C277 1.262 . S
O271 Zn266 2.049 . S
O271 C279 1.260 . S
O272 Zn267 1.996 . S
O272 C279 1.257 . S
C273 O268 1.254 . S
C273 O269 1.269 . S
C274 O275 1.249 . S
C274 O276 1.270 . S
O275 Zn267 1.943 . S
O275 C274 1.249 . S
O276 Zn266 2.067 . S
O276 C274 1.270 . S
C277 O270 1.262 . S
C277 O278 1.232 . S
O278 C277 1.232 . S
C279 O271 1.260 . S
C279 O272 1.257 . S
Zn280 O283 2.031 . S
Zn280 O285 2.049 . S
Zn280 O290 2.067 . S
Zn281 O282 1.962 . S
Zn281 O284 1.986 . S
Zn281 O286 1.996 . S
Zn281 O289 1.943 . S
O282 Zn281 1.962 . S
O282 C287 1.254 . S
O283 Zn280 2.031 . S
O283 C287 1.269 . S
O284 Zn281 1.986 . S
O284 C291 1.262 . S
O285 Zn280 2.049 . S
O285 C293 1.260 . S
O286 Zn281 1.996 . S
O286 C293 1.257 . S
C287 O282 1.254 . S
C287 O283 1.269 . S
C288 O289 1.249 . S
C288 O290 1.270 . S
O289 Zn281 1.943 . S
O289 C288 1.249 . S
O290 Zn280 2.067 . S
O290 C288 1.270 . S
C291 O284 1.262 . S
C291 O292 1.232 . S
O292 C291 1.232 . S
C293 O285 1.260 . S
C293 O286 1.257 . S
Zn294 O297 2.031 . S
Zn294 O299 2.049 . S
Zn294 O304 2.067 . S
Zn295 O296 1.962 . S
Zn295 O298 1.986 . S
Zn295 O300 1.996 . S
Zn295 O303 1.943 . S
O296 Zn295 1.962 . S
O296 C301 1.254 . S
O297 Zn294 2.031 . S
O297 C301 1.269 . S
O298 Zn295 1.986 . S
O298 C305 1.262 . S
O299 Zn294 2.049 . S
O299 C307 1.260 . S
O300 Zn295 1.996 . S
O300 C307 1.257 . S
C301 O296 1.254 . S
C301 O297 1.269 . S
C302 O303 1.249 . S
C302 O304 1.270 . S
O303 Zn295 1.943 . S
O303 C302 1.249 . S
O304 Zn294 2.067 . S
O304 C302 1.270 . S
C305 O298 1.262 . S
C305 O306 1.232 . S
O306 C305 1.232 . S
C307 O299 1.260 . S
C307 O300 1.257 . S
Zn308 O311 2.031 . S
Zn308 O313 2.049 . S
Zn308 O318 2.067 . S
Zn309 O310 1.962 . S
Zn309 O312 1.986 . S
Zn309 O314 1.996 . S
Zn309 O317 1.943 . S
O310 Zn309 1.962 . S
O310 C315 1.254 . S
O311 Zn308 2.031 . S
O311 C315 1.269 . S
O312 Zn309 1.986 . S
O312 C319 1.262 . S
O313 Zn308 2.049 . S
O313 C321 1.260 . S
O314 Zn309 1.996 . S
O314 C321 1.257 . S
C315 O310 1.254 . S
C315 O311 1.269 . S
C316 O317 1.249 . S
C316 O318 1.270 . S
O317 Zn309 1.943 . S
O317 C316 1.249 . S
O318 Zn308 2.067 . S
O318 C316 1.270 . S
C319 O312 1.262 . S
C319 O320 1.232 . S
O320 C319 1.232 . S
C321 O313 1.260 . S
C321 O314 1.257 . S
Zn322 O325 2.031 . S
Zn322 O327 2.049 . S
Zn322 O332 2.067 . S
Zn323 O324 1.962 . S
Zn323 O326 1.986 . S
Zn323 O328 1.996 . S
Zn323 O331 1.943 . S
O324 Zn323 1.962 . S
O324 C329 1.254 . S
O325 Zn322 2.031 . S
O325 C329 1.269 . S
O326 Zn323 1.986 . S
O326 C333 1.262 . S
O327 Zn322 2.049 . S
O327 C335 1.260 . S
O328 Zn323 1.996 . S
O328 C335 1.257 . S
C329 O324 1.254 . S
C329 O325 1.269 . S
C330 O331 1.249 . S
C330 O332 1.270 . S
O331 Zn323 1.943 . S
O331 C330 1.249 . S
O332 Zn322 2.067 . S
O332 C330 1.270 . S
C333 O326 1.262 . S
C333 O334 1.232 . S
O334 C333 1.232 . S
C335 O327 1.260 . S
C335 O328 1.257 . S
C336 C337 1.387 . S
C336 H340 0.950 . S
C336 C345 1.390 . S
C337 C336 1.387 . S
C337 C339 1.387 . S
H338 C345 0.950 . S
C339 C337 1.387 . S
C339 C341 1.390 . S
C339 H343 0.950 . S
H340 C336 0.950 . S
C341 C339 1.390 . S
C341 C342 1.387 . S
C341 H344 0.950 . S
C342 C341 1.387 . S
C342 C345 1.387 . S
H343 C339 0.950 . S
H344 C341 0.950 . S
C345 C336 1.390 . S
C345 H338 0.950 . S
C345 C342 1.387 . S
C346 C347 1.387 . S
C346 H350 0.950 . S
C346 C355 1.390 . S
C347 C346 1.387 . S
C347 C349 1.387 . S
H348 C355 0.950 . S
C349 C347 1.387 . S
C349 C351 1.390 . S
C349 H353 0.950 . S
H350 C346 0.950 . S
C351 C349 1.390 . S
C351 C352 1.387 . S
C351 H354 0.950 . S
C352 C351 1.387 . S
C352 C355 1.387 . S
H353 C349 0.950 . S
H354 C351 0.950 . S
C355 C346 1.390 . S
C355 H348 0.950 . S
C355 C352 1.387 . S
C356 C357 1.387 . S
C356 H360 0.950 . S
C356 C365 1.390 . S
C357 C356 1.387 . S
C357 C359 1.387 . S
H358 C365 0.950 . S
C359 C357 1.387 . S
C359 C361 1.390 . S
C359 H363 0.950 . S
H360 C356 0.950 . S
C361 C359 1.390 . S
C361 C362 1.387 . S
C361 H364 0.950 . S
C362 C361 1.387 . S
C362 C365 1.387 . S
H363 C359 0.950 . S
H364 C361 0.950 . S
C365 C356 1.390 . S
C365 H358 0.950 . S
C365 C362 1.387 . S
C366 C367 1.387 . S
C366 H370 0.950 . S
C366 C375 1.390 . S
C367 C366 1.387 . S
C367 C369 1.387 . S
H368 C375 0.950 . S
C369 C367 1.387 . S
C369 C371 1.390 . S
C369 H373 0.950 . S
H370 C366 0.950 . S
C371 C369 1.390 . S
C371 C372 1.387 . S
C371 H374 0.950 . S
C372 C371 1.387 . S
C372 C375 1.387 . S
H373 C369 0.950 . S
H374 C371 0.950 . S
C375 C366 1.390 . S
C375 H368 0.950 . S
C375 C372 1.387 . S
C376 C377 1.387 . S
C376 H380 0.950 . S
C376 C385 1.390 . S
C377 C376 1.387 . S
C377 C379 1.387 . S
H378 C385 0.950 . S
C379 C377 1.387 . S
C379 C381 1.390 . S
C379 H383 0.950 . S
H380 C376 0.950 . S
C381 C379 1.390 . S
C381 C382 1.387 . S
C381 H384 0.950 . S
C382 C381 1.387 . S
C382 C385 1.387 . S
H383 C379 0.950 . S
H384 C381 0.950 . S
C385 C376 1.390 . S
C385 H378 0.950 . S
C385 C382 1.387 . S
C386 C387 1.387 . S
C386 H390 0.950 . S
C386 C395 1.390 . S
C387 C386 1.387 . S
C387 C389 1.387 . S
H388 C395 0.950 . S
C389 C387 1.387 . S
C389 C391 1.390 . S
C389 H393 0.950 . S
H390 C386 0.950 . S
C391 C389 1.390 . S
C391 C392 1.387 . S
C391 H394 0.950 . S
C392 C391 1.387 . S
C392 C395 1.387 . S
H393 C389 0.950 . S
H394 C391 0.950 . S
C395 C386 1.390 . S
C395 H388 0.950 . S
C395 C392 1.387 . S
C396 C397 1.387 . S
C396 H400 0.950 . S
C396 C405 1.390 . S
C397 C396 1.387 . S
C397 C399 1.387 . S
H398 C405 0.950 . S
C399 C397 1.387 . S
C399 C401 1.390 . S
C399 H403 0.950 . S
H400 C396 0.950 . S
C401 C399 1.390 . S
C401 C402 1.387 . S
C401 H404 0.950 . S
C402 C401 1.387 . S
C402 C405 1.387 . S
H403 C399 0.950 . S
H404 C401 0.950 . S
C405 C396 1.390 . S
C405 H398 0.950 . S
C405 C402 1.387 . S
C406 C407 1.387 . S
C406 H410 0.950 . S
C406 C415 1.390 . S
C407 C406 1.387 . S
C407 C409 1.387 . S
H408 C415 0.950 . S
C409 C407 1.387 . S
C409 C411 1.390 . S
C409 H413 0.950 . S
H410 C406 0.950 . S
C411 C409 1.390 . S
C411 C412 1.387 . S
C411 H414 0.950 . S
C412 C411 1.387 . S
C412 C415 1.387 . S
H413 C409 0.950 . S
H414 C411 0.950 . S
C415 C406 1.390 . S
C415 H408 0.950 . S
C415 C412 1.387 . S
C416 C417 1.387 . S
C416 H420 0.950 . S
C416 C425 1.390 . S
C417 C416 1.387 . S
C417 C419 1.387 . S
H418 C425 0.950 . S
C419 C417 1.387 . S
C419 C421 1.390 . S
C419 H423 0.950 . S
H420 C416 0.950 . S
C421 C419 1.390 . S
C421 C422 1.387 . S
C421 H424 0.950 . S
C422 C421 1.387 . S
C422 C425 1.387 . S
H423 C419 0.950 . S
H424 C421 0.950 . S
C425 C416 1.390 . S
C425 H418 0.950 . S
C425 C422 1.387 . S
C426 C427 1.387 . S
C426 H430 0.950 . S
C426 C435 1.390 . S
C427 C426 1.387 . S
C427 C429 1.387 . S
H428 C435 0.950 . S
C429 C427 1.387 . S
C429 C431 1.390 . S
C429 H433 0.950 . S
H430 C426 0.950 . S
C431 C429 1.390 . S
C431 C432 1.387 . S
C431 H434 0.950 . S
C432 C431 1.387 . S
C432 C435 1.387 . S
H433 C429 0.950 . S
H434 C431 0.950 . S
C435 C426 1.390 . S
C435 H428 0.950 . S
C435 C432 1.387 . S
C436 C437 1.387 . S
C436 H440 0.950 . S
C436 C445 1.390 . S
C437 C436 1.387 . S
C437 C439 1.387 . S
H438 C445 0.950 . S
C439 C437 1.387 . S
C439 C441 1.390 . S
C439 H443 0.950 . S
H440 C436 0.950 . S
C441 C439 1.390 . S
C441 C442 1.387 . S
C441 H444 0.950 . S
C442 C441 1.387 . S
C442 C445 1.387 . S
H443 C439 0.950 . S
H444 C441 0.950 . S
C445 C436 1.390 . S
C445 H438 0.950 . S
C445 C442 1.387 . S
C446 C447 1.387 . S
C446 H450 0.950 . S
C446 C455 1.390 . S
C447 C446 1.387 . S
C447 C449 1.387 . S
H448 C455 0.950 . S
C449 C447 1.387 . S
C449 C451 1.390 . S
C449 H453 0.950 . S
H450 C446 0.950 . S
C451 C449 1.390 . S
C451 C452 1.387 . S
C451 H454 0.950 . S
C452 C451 1.387 . S
C452 C455 1.387 . S
H453 C449 0.950 . S
H454 C451 0.950 . S
C455 C446 1.390 . S
C455 H448 0.950 . S
C455 C452 1.387 . S
C456 C457 1.387 . S
C456 H460 0.950 . S
C456 C465 1.390 1_556 S
C457 C456 1.387 . S
C457 C459 1.387 . S
H458 C465 0.950 . S
C459 C457 1.387 . S
C459 C461 1.390 1_556 S
C459 H463 0.950 . S
H460 C456 0.950 . S
C461 C459 1.390 1_554 S
C461 C462 1.387 . S
C461 H464 0.950 . S
C462 C461 1.387 . S
C462 C465 1.387 . S
H463 C459 0.950 . S
H464 C461 0.950 . S
C465 C456 1.390 1_554 S
C465 H458 0.950 . S
C465 C462 1.387 . S
C466 C467 1.387 . S
C466 H470 0.950 . S
C466 C475 1.390 . S
C467 C466 1.387 . S
C467 C469 1.387 . S
H468 C475 0.950 . S
C469 C467 1.387 . S
C469 C471 1.390 . S
C469 H473 0.950 . S
H470 C466 0.950 . S
C471 C469 1.390 . S
C471 C472 1.387 . S
C471 H474 0.950 . S
C472 C471 1.387 . S
C472 C475 1.387 . S
H473 C469 0.950 . S
H474 C471 0.950 . S
C475 C466 1.390 . S
C475 H468 0.950 . S
C475 C472 1.387 . S
C476 C477 1.387 . S
C476 H480 0.950 . S
C476 C485 1.390 . S
C477 C476 1.387 . S
C477 C479 1.387 1_554 S
H478 C485 0.950 . S
C479 C477 1.387 1_556 S
C479 C481 1.390 . S
C479 H483 0.950 . S
H480 C476 0.950 . S
C481 C479 1.390 . S
C481 C482 1.387 . S
C481 H484 0.950 . S
C482 C481 1.387 . S
C482 C485 1.387 1_556 S
H483 C479 0.950 . S
H484 C481 0.950 . S
C485 C476 1.390 . S
C485 H478 0.950 . S
C485 C482 1.387 1_554 S
C486 C487 1.387 . S
C486 H490 0.950 . S
C486 C495 1.390 . S
C487 C486 1.387 . S
C487 C489 1.387 . S
H488 C495 0.950 . S
C489 C487 1.387 . S
C489 C491 1.390 . S
C489 H493 0.950 . S
H490 C486 0.950 . S
C491 C489 1.390 . S
C491 C492 1.387 . S
C491 H494 0.950 . S
C492 C491 1.387 . S
C492 C495 1.387 . S
H493 C489 0.950 . S
H494 C491 0.950 . S
C495 C486 1.390 . S
C495 H488 0.950 . S
C495 C492 1.387 . S
C496 C497 1.387 1_554 S
C496 H500 0.950 . S
C496 C505 1.390 . S
C497 C496 1.387 1_556 S
C497 C499 1.387 . S
H498 C505 0.950 . S
C499 C497 1.387 . S
C499 C501 1.390 . S
C499 H503 0.950 . S
H500 C496 0.950 . S
C501 C499 1.390 . S
C501 C502 1.387 1_556 S
C501 H504 0.950 . S
C502 C501 1.387 1_554 S
C502 C505 1.387 . S
H503 C499 0.950 . S
H504 C501 0.950 . S
C505 C496 1.390 . S
C505 H498 0.950 . S
C505 C502 1.387 . S
C506 C507 1.387 . S
C506 H510 0.950 . S
C506 C515 1.390 . S
C507 C506 1.387 . S
C507 C509 1.387 . S
H508 C515 0.950 . S
C509 C507 1.387 . S
C509 C511 1.390 . S
C509 H513 0.950 . S
H510 C506 0.950 . S
C511 C509 1.390 . S
C511 C512 1.387 . S
C511 H514 0.950 . S
C512 C511 1.387 . S
C512 C515 1.387 . S
H513 C509 0.950 . S
H514 C511 0.950 . S
C515 C506 1.390 . S
C515 H508 0.950 . S
C515 C512 1.387 . S
C516 C517 1.387 . S
C516 H520 0.950 . S
C516 C525 1.390 1_554 S
C517 C516 1.387 . S
C517 C519 1.387 . S
H518 C525 0.950 . S
C519 C517 1.387 . S
C519 C521 1.390 1_554 S
C519 H523 0.950 . S
H520 C516 0.950 . S
C521 C519 1.390 1_556 S
C521 C522 1.387 . S
C521 H524 0.950 . S
C522 C521 1.387 . S
C522 C525 1.387 . S
H523 C519 0.950 . S
H524 C521 0.950 . S
C525 C516 1.390 1_556 S
C525 H518 0.950 . S
C525 C522 1.387 . S
C526 C527 1.387 . S
C526 H530 0.950 . S
C526 C535 1.390 . S
C527 C526 1.387 . S
C527 C529 1.387 . S
H528 C535 0.950 . S
C529 C527 1.387 . S
C529 C531 1.390 . S
C529 H533 0.950 . S
H530 C526 0.950 . S
C531 C529 1.390 . S
C531 C532 1.387 . S
C531 H534 0.950 . S
C532 C531 1.387 . S
C532 C535 1.387 . S
H533 C529 0.950 . S
H534 C531 0.950 . S
C535 C526 1.390 . S
C535 H528 0.950 . S
C535 C532 1.387 . S
C536 C537 1.387 . S
C536 H540 0.950 . S
C536 C545 1.390 . S
C537 C536 1.387 . S
C537 C539 1.387 1_556 S
H538 C545 0.950 . S
C539 C537 1.387 1_554 S
C539 C541 1.390 . S
C539 H543 0.950 . S
H540 C536 0.950 . S
C541 C539 1.390 . S
C541 C542 1.387 . S
C541 H544 0.950 . S
C542 C541 1.387 . S
C542 C545 1.387 1_554 S
H543 C539 0.950 . S
H544 C541 0.950 . S
C545 C536 1.390 . S
C545 H538 0.950 . S
C545 C542 1.387 1_556 S
C546 C547 1.387 . S
C546 H550 0.950 . S
C546 C555 1.390 . S
C547 C546 1.387 . S
C547 C549 1.387 . S
H548 C555 0.950 . S
C549 C547 1.387 . S
C549 C551 1.390 . S
C549 H553 0.950 . S
H550 C546 0.950 . S
C551 C549 1.390 . S
C551 C552 1.387 . S
C551 H554 0.950 . S
C552 C551 1.387 . S
C552 C555 1.387 . S
H553 C549 0.950 . S
H554 C551 0.950 . S
C555 C546 1.390 . S
C555 H548 0.950 . S
C555 C552 1.387 . S
C556 C557 1.387 1_554 S
C556 H560 0.950 . S
C556 C565 1.390 . S
C557 C556 1.387 1_556 S
C557 C559 1.387 . S
H558 C565 0.950 . S
C559 C557 1.387 . S
C559 C561 1.390 . S
C559 H563 0.950 . S
H560 C556 0.950 . S
C561 C559 1.390 . S
C561 C562 1.387 1_556 S
C561 H564 0.950 . S
C562 C561 1.387 1_554 S
C562 C565 1.387 . S
H563 C559 0.950 . S
H564 C561 0.950 . S
C565 C556 1.390 . S
C565 H558 0.950 . S
C565 C562 1.387 . S
C566 C567 1.387 . S
C566 H570 0.950 . S
C566 C575 1.390 . S
C567 C566 1.387 . S
C567 C569 1.387 . S
H568 C575 0.950 . S
C569 C567 1.387 . S
C569 C571 1.390 . S
C569 H573 0.950 . S
H570 C566 0.950 . S
C571 C569 1.390 . S
C571 C572 1.387 . S
C571 H574 0.950 . S
C572 C571 1.387 . S
C572 C575 1.387 . S
H573 C569 0.950 . S
H574 C571 0.950 . S
C575 C566 1.390 . S
C575 H568 0.950 . S
C575 C572 1.387 . S
C576 C577 1.387 . S
C576 H580 0.947 . S
C576 C585 1.390 . S
C577 C576 1.387 . S
C577 C579 1.387 . S
H578 C585 0.947 . S
C579 C577 1.387 . S
C579 C581 1.390 . S
C579 H583 0.950 . S
H580 C576 0.947 . S
C581 C579 1.390 . S
C581 C582 1.387 . S
C581 H584 0.950 . S
C582 C581 1.387 . S
C582 C585 1.387 . S
H583 C579 0.950 . S
H584 C581 0.950 . S
C585 C576 1.390 . S
C585 H578 0.947 . S
C585 C582 1.387 . S
C586 C587 1.387 . S
C586 H590 0.950 . S
C586 C595 1.390 1_455 S
C587 C586 1.387 . S
C587 C589 1.387 . S
H588 C595 0.950 . S
C589 C587 1.387 . S
C589 C591 1.390 1_455 S
C589 H593 0.950 . S
H590 C586 0.950 . S
C591 C589 1.390 1_655 S
C591 C592 1.387 . S
C591 H594 0.950 . S
C592 C591 1.387 . S
C592 C595 1.387 . S
H593 C589 0.950 . S
H594 C591 0.950 . S
C595 C586 1.390 1_655 S
C595 H588 0.950 . S
C595 C592 1.387 . S
C596 C597 1.387 . S
C596 H600 0.950 . S
C596 C605 1.390 1_565 S
C597 C596 1.387 . S
C597 C599 1.387 . S
H598 C605 0.950 . S
C599 C597 1.387 . S
C599 C601 1.390 1_565 S
C599 H603 0.949 . S
H600 C596 0.950 . S
C601 C599 1.390 1_545 S
C601 C602 1.387 . S
C601 H604 0.948 . S
C602 C601 1.387 . S
C602 C605 1.387 . S
H603 C599 0.949 . S
H604 C601 0.948 . S
C605 C596 1.390 1_545 S
C605 H598 0.950 . S
C605 C602 1.387 . S
C606 C607 1.387 . S
C606 H610 0.950 . S
C606 C615 1.390 . S
C607 C606 1.387 . S
C607 C609 1.387 . S
H608 C615 0.950 . S
C609 C607 1.387 . S
C609 C611 1.390 . S
C609 H613 0.950 . S
H610 C606 0.950 . S
C611 C609 1.390 . S
C611 C612 1.387 . S
C611 H614 0.950 . S
C612 C611 1.387 . S
C612 C615 1.387 . S
H613 C609 0.950 . S
H614 C611 0.950 . S
C615 C606 1.390 . S
C615 H608 0.950 . S
C615 C612 1.387 . S
C616 C617 1.387 . S
C616 H620 0.947 . S
C616 C625 1.390 1_655 S
C617 C616 1.387 . S
C617 C619 1.387 . S
H618 C625 0.947 . S
C619 C617 1.387 . S
C619 C621 1.390 1_655 S
C619 H623 0.950 . S
H620 C616 0.947 . S
C621 C619 1.390 1_455 S
C621 C622 1.387 . S
C621 H624 0.950 . S
C622 C621 1.387 . S
C622 C625 1.387 . S
H623 C619 0.950 . S
H624 C621 0.950 . S
C625 C616 1.390 1_455 S
C625 H618 0.947 . S
C625 C622 1.387 . S
C626 C627 1.387 . S
C626 H630 0.950 . S
C626 C635 1.390 1_545 S
C627 C626 1.387 . S
C627 C629 1.387 . S
H628 C635 0.950 . S
C629 C627 1.387 . S
C629 C631 1.390 1_545 S
C629 H633 0.950 . S
H630 C626 0.950 . S
C631 C629 1.390 1_565 S
C631 C632 1.387 . S
C631 H634 0.950 . S
C632 C631 1.387 . S
C632 C635 1.387 . S
H633 C629 0.950 . S
H634 C631 0.950 . S
C635 C626 1.390 1_565 S
C635 H628 0.950 . S
C635 C632 1.387 . S
C636 C637 1.387 . S
C636 H640 0.947 . S
C636 C645 1.390 . S
C637 C636 1.387 . S
C637 C639 1.387 . S
H638 C645 0.947 . S
C639 C637 1.387 . S
C639 C641 1.390 . S
C639 H643 0.950 . S
H640 C636 0.947 . S
C641 C639 1.390 . S
C641 C642 1.387 . S
C641 H644 0.950 . S
C642 C641 1.387 . S
C642 C645 1.387 . S
H643 C639 0.950 . S
H644 C641 0.950 . S
C645 C636 1.390 . S
C645 H638 0.947 . S
C645 C642 1.387 . S
C646 C647 1.387 . S
C646 H650 0.950 . S
C646 C655 1.390 1_655 S
C647 C646 1.387 . S
C647 C649 1.387 . S
H648 C655 0.950 . S
C649 C647 1.387 . S
C649 C651 1.390 1_655 S
C649 H653 0.950 . S
H650 C646 0.950 . S
C651 C649 1.390 1_455 S
C651 C652 1.387 . S
C651 H654 0.950 . S
C652 C651 1.387 . S
C652 C655 1.387 . S
H653 C649 0.950 . S
H654 C651 0.950 . S
C655 C646 1.390 1_455 S
C655 H648 0.950 . S
C655 C652 1.387 . S
C656 C657 1.387 . S
C656 H660 0.950 . S
C656 C665 1.390 1_545 S
C657 C656 1.387 . S
C657 C659 1.387 . S
H658 C665 0.950 . S
C659 C657 1.387 . S
C659 C661 1.390 1_545 S
C659 H663 0.950 . S
H660 C656 0.950 . S
C661 C659 1.390 1_565 S
C661 C662 1.387 . S
C661 H664 0.950 . S
C662 C661 1.387 . S
C662 C665 1.387 . S
H663 C659 0.950 . S
H664 C661 0.950 . S
C665 C656 1.390 1_565 S
C665 H658 0.950 . S
C665 C662 1.387 . S
C666 C667 1.387 . S
C666 H670 0.950 . S
C666 C675 1.390 . S
C667 C666 1.387 . S
C667 C669 1.387 . S
H668 C675 0.950 . S
C669 C667 1.387 . S
C669 C671 1.390 . S
C669 H673 0.950 . S
H670 C666 0.950 . S
C671 C669 1.390 . S
C671 C672 1.387 . S
C671 H674 0.950 . S
C672 C671 1.387 . S
C672 C675 1.387 . S
H673 C669 0.950 . S
H674 C671 0.950 . S
C675 C666 1.390 . S
C675 H668 0.950 . S
C675 C672 1.387 . S
C676 C677 1.387 . S
C676 H680 0.950 . S
C676 C685 1.390 1_455 S
C677 C676 1.387 . S
C677 C679 1.387 . S
H678 C685 0.950 . S
C679 C677 1.387 . S
C679 C681 1.390 1_455 S
C679 H683 0.947 . S
H680 C676 0.950 . S
C681 C679 1.390 1_655 S
C681 C682 1.387 . S
C681 H684 0.947 . S
C682 C681 1.387 . S
C682 C685 1.387 . S
H683 C679 0.947 . S
H684 C681 0.947 . S
C685 C676 1.390 1_655 S
C685 H678 0.950 . S
C685 C682 1.387 . S
C686 C687 1.387 . S
C686 H690 0.950 . S
C686 C695 1.390 1_565 S
C687 C686 1.387 . S
C687 C689 1.387 . S
H688 C695 0.950 . S
C689 C687 1.387 . S
C689 C691 1.390 1_565 S
C689 H693 0.950 . S
H690 C686 0.950 . S
C691 C689 1.390 1_545 S
C691 C692 1.387 . S
C691 H694 0.950 . S
C692 C691 1.387 . S
C692 C695 1.387 . S
H693 C689 0.950 . S
H694 C691 0.950 . S
C695 C686 1.390 1_545 S
C695 H688 0.950 . S
C695 C692 1.387 . S
C696 C697 1.387 . S
C696 H700 0.950 . S
C696 C705 1.390 . S
C697 C696 1.387 . S
C697 C699 1.387 1_556 S
H698 C705 0.950 . S
C699 C697 1.387 1_554 S
C699 C701 1.390 . S
C699 H703 0.950 . S
H700 C696 0.950 . S
C701 C699 1.390 . S
C701 C702 1.387 . S
C701 H704 0.950 . S
C702 C701 1.387 . S
C702 C705 1.387 1_554 S
H703 C699 0.950 . S
H704 C701 0.950 . S
C705 C696 1.390 . S
C705 H698 0.950 . S
C705 C702 1.387 1_556 S
C706 C707 1.387 . S
C706 H710 0.950 . S
C706 C715 1.390 . S
C707 C706 1.387 . S
C707 C709 1.387 . S
H708 C715 0.950 . S
C709 C707 1.387 . S
C709 C711 1.390 . S
C709 H713 0.950 . S
H710 C706 0.950 . S
C711 C709 1.390 . S
C711 C712 1.387 . S
C711 H714 0.950 . S
C712 C711 1.387 . S
C712 C715 1.387 . S
H713 C709 0.950 . S
H714 C711 0.950 . S
C715 C706 1.390 . S
C715 H708 0.950 . S
C715 C712 1.387 . S
C716 C717 1.387 . S
C716 H720 0.950 . S
C716 C725 1.390 1_556 S
C717 C716 1.387 . S
C717 C719 1.387 . S
H718 C725 0.950 . S
C719 C717 1.387 . S
C719 C721 1.390 1_556 S
C719 H723 0.950 . S
H720 C716 0.950 . S
C721 C719 1.390 1_554 S
C721 C722 1.387 . S
C721 H724 0.950 . S
C722 C721 1.387 . S
C722 C725 1.387 . S
H723 C719 0.950 . S
H724 C721 0.950 . S
C725 C716 1.390 1_554 S
C725 H718 0.950 . S
C725 C722 1.387 . S
C726 C727 1.387 . S
C726 H730 0.950 . S
C726 C735 1.390 . S
C727 C726 1.387 . S
C727 C729 1.387 . S
H728 C735 0.950 . S
C729 C727 1.387 . S
C729 C731 1.390 . S
C729 H733 0.950 . S
H730 C726 0.950 . S
C731 C729 1.390 . S
C731 C732 1.387 . S
C731 H734 0.950 . S
C732 C731 1.387 . S
C732 C735 1.387 . S
H733 C729 0.950 . S
H734 C731 0.950 . S
C735 C726 1.390 . S
C735 H728 0.950 . S
C735 C732 1.387 . S
C736 C737 1.387 . S
C736 H740 0.950 . S
C736 C745 1.390 . S
C737 C736 1.387 . S
C737 C739 1.387 1_556 S
H738 C745 0.950 . S
C739 C737 1.387 1_554 S
C739 C741 1.390 . S
C739 H743 0.950 . S
H740 C736 0.950 . S
C741 C739 1.390 . S
C741 C742 1.387 . S
C741 H744 0.950 . S
C742 C741 1.387 . S
C742 C745 1.387 1_554 S
H743 C739 0.950 . S
H744 C741 0.950 . S
C745 C736 1.390 . S
C745 H738 0.950 . S
C745 C742 1.387 1_556 S
C746 C747 1.387 . S
C746 H750 0.950 . S
C746 C755 1.390 . S
C747 C746 1.387 . S
C747 C749 1.387 . S
H748 C755 0.950 . S
C749 C747 1.387 . S
C749 C751 1.390 . S
C749 H753 0.950 . S
H750 C746 0.950 . S
C751 C749 1.390 . S
C751 C752 1.387 . S
C751 H754 0.950 . S
C752 C751 1.387 . S
C752 C755 1.387 . S
H753 C749 0.950 . S
H754 C751 0.950 . S
C755 C746 1.390 . S
C755 H748 0.950 . S
C755 C752 1.387 . S
C756 C757 1.387 1_556 S
C756 H760 0.950 . S
C756 C765 1.390 . S
C757 C756 1.387 1_554 S
C757 C759 1.387 . S
H758 C765 0.950 . S
C759 C757 1.387 . S
C759 C761 1.390 . S
C759 H763 0.950 . S
H760 C756 0.950 . S
C761 C759 1.390 . S
C761 C762 1.387 1_554 S
C761 H764 0.950 . S
C762 C761 1.387 1_556 S
C762 C765 1.387 . S
H763 C759 0.950 . S
H764 C761 0.950 . S
C765 C756 1.390 . S
C765 H758 0.950 . S
C765 C762 1.387 . S
C766 C767 1.387 . S
C766 H770 0.950 . S
C766 C775 1.390 . S
C767 C766 1.387 . S
C767 C769 1.387 . S
H768 C775 0.950 . S
C769 C767 1.387 . S
C769 C771 1.390 . S
C769 H773 0.950 . S
H770 C766 0.950 . S
C771 C769 1.390 . S
C771 C772 1.387 . S
C771 H774 0.950 . S
C772 C771 1.387 . S
C772 C775 1.387 . S
H773 C769 0.950 . S
H774 C771 0.950 . S
C775 C766 1.390 . S
C775 H768 0.950 . S
C775 C772 1.387 . S
C776 C777 1.387 . S
C776 H780 0.950 . S
C776 C785 1.390 1_554 S
C777 C776 1.387 . S
C777 C779 1.387 . S
H778 C785 0.950 . S
C779 C777 1.387 . S
C779 C781 1.390 1_554 S
C779 H783 0.950 . S
H780 C776 0.950 . S
C781 C779 1.390 1_556 S
C781 C782 1.387 . S
C781 H784 0.950 . S
C782 C781 1.387 . S
C782 C785 1.387 . S
H783 C779 0.950 . S
H784 C781 0.950 . S
C785 C776 1.390 1_556 S
C785 H778 0.950 . S
C785 C782 1.387 . S
C786 C787 1.387 . S
C786 H790 0.950 . S
C786 C795 1.390 . S
C787 C786 1.387 . S
C787 C789 1.387 . S
H788 C795 0.950 . S
C789 C787 1.387 . S
C789 C791 1.390 . S
C789 H793 0.950 . S
H790 C786 0.950 . S
C791 C789 1.390 . S
C791 C792 1.387 . S
C791 H794 0.950 . S
C792 C791 1.387 . S
C792 C795 1.387 . S
H793 C789 0.950 . S
H794 C791 0.950 . S
C795 C786 1.390 . S
C795 H788 0.950 . S
C795 C792 1.387 . S
C796 C797 1.387 . S
C796 H800 0.950 . S
C796 C805 1.390 . S
C797 C796 1.387 . S
C797 C799 1.387 1_556 S
H798 C805 0.950 . S
C799 C797 1.387 1_554 S
C799 C801 1.390 . S
C799 H803 0.950 . S
H800 C796 0.950 . S
C801 C799 1.390 . S
C801 C802 1.387 . S
C801 H804 0.950 . S
C802 C801 1.387 . S
C802 C805 1.387 1_554 S
H803 C799 0.950 . S
H804 C801 0.950 . S
C805 C796 1.390 . S
C805 H798 0.950 . S
C805 C802 1.387 1_556 S
C806 C807 1.387 . S
C806 H810 0.950 . S
C806 C815 1.390 . S
C807 C806 1.387 . S
C807 C809 1.387 . S
H808 C815 0.950 . S
C809 C807 1.387 . S
C809 C811 1.390 . S
C809 H813 0.950 . S
H810 C806 0.950 . S
C811 C809 1.390 . S
C811 C812 1.387 . S
C811 H814 0.950 . S
C812 C811 1.387 . S
C812 C815 1.387 . S
H813 C809 0.950 . S
H814 C811 0.950 . S
C815 C806 1.390 . S
C815 H808 0.950 . S
C815 C812 1.387 . S
C337 C7 1.497 . S
C342 C217 1.499 . S
C347 C21 1.498 . S
C352 C231 1.498 . S
C357 C245 1.497 . S
C362 C35 1.498 . S
C367 C175 1.499 . S
C372 C49 1.497 . S
C377 C189 1.498 . S
C382 C63 1.498 . S
C387 C203 1.498 . S
C392 C77 1.497 . S
C397 C301 1.498 . S
C402 C91 1.498 . S
C407 C105 1.497 . S
C412 C315 1.498 . S
C417 C329 1.497 . S
C422 C119 1.498 . S
C427 C133 1.498 . S
C432 C259 1.498 . S
C437 C273 1.497 . S
C442 C147 1.498 . S
C447 C161 1.498 . S
C452 C287 1.497 . S
C457 C151 1.319 . S
C462 C11 1.319 . S
C467 C165 1.318 . S
C472 C25 1.317 . S
C477 C39 1.317 . S
C482 C95 1.316 . S
C487 C53 1.317 . S
C492 C109 1.317 . S
C497 C123 1.318 . S
C502 C67 1.319 . S
C507 C81 1.318 . S
C512 C137 1.317 . S
C517 C319 1.319 . S
C522 C179 1.319 . S
C527 C193 1.318 . S
C532 C333 1.317 . S
C537 C207 1.317 . S
C542 C263 1.318 . S
C547 C277 1.319 . S
C552 C221 1.319 . S
C557 C235 1.318 . S
C562 C291 1.317 . S
C567 C249 1.317 . S
C572 C305 1.317 . S
C577 C8 1.184 . S
C582 C260 1.179 . S
C587 C274 1.179 . S
C592 C22 1.184 . S
C597 C36 1.179 . S
C602 C288 1.184 . S
C607 C50 1.184 . S
C612 C302 1.179 . S
C617 C316 1.179 . S
C622 C64 1.184 . S
C627 C78 1.181 . S
C632 C330 1.182 . S
C637 C92 1.184 . S
C642 C176 1.179 . S
C647 C106 1.184 . S
C652 C190 1.179 . S
C657 C204 1.179 . S
C662 C120 1.184 . S
C667 C218 1.184 . S
C672 C134 1.179 . S
C677 C148 1.179 . S
C682 C232 1.184 . S
C687 C246 1.184 . S
C692 C162 1.179 . S
C697 C97 1.453 . S
C702 C13 1.451 . S
C707 C27 1.450 . S
C712 C111 1.448 . S
C717 C125 1.452 . S
C722 C41 1.452 . S
C727 C139 1.452 . S
C732 C55 1.449 . S
C737 C153 1.451 . S
C742 C69 1.449 . S
C747 C83 1.449 . S
C752 C167 1.449 . S
C757 C265 1.452 . S
C762 C181 1.449 . S
C767 C195 1.452 . S
C772 C279 1.450 . S
C777 C293 1.452 . S
C782 C209 1.452 . S
C787 C307 1.448 . S
C792 C223 1.450 . S
C797 C237 1.449 . S
C802 C321 1.451 . S
C807 C251 1.452 . S
C812 C335 1.452 . S
