# Generated by pormake.
# Topology wfw, (7)-cn, num edge types: 1
# Building blocks:
#     Node 0, Type 0, BuildingBlock: HICVOG_clean_sbu_0, # of connection points: 7
#     Node 1, Type 0, BuildingBlock: HICVOG_clean_sbu_0, # of connection points: 7
#     Node 2, Type 0, BuildingBlock: HICVOG_clean_sbu_0, # of connection points: 7
#     Node 3, Type 0, BuildingBlock: HICVOG_clean_sbu_0, # of connection points: 7
#     Node 4, Type 0, BuildingBlock: HICVOG_clean_sbu_0, # of connection points: 7
#     Node 5, Type 0, BuildingBlock: HICVOG_clean_sbu_0, # of connection points: 7
#     Node 6, Type 0, BuildingBlock: HICVOG_clean_sbu_0, # of connection points: 7
#     Node 7, Type 0, BuildingBlock: HICVOG_clean_sbu_0, # of connection points: 7
#     Node 8, Type 0, BuildingBlock: HICVOG_clean_sbu_0, # of connection points: 7
#     Node 9, Type 0, BuildingBlock: HICVOG_clean_sbu_0, # of connection points: 7
#     Node 10, Type 0, BuildingBlock: HICVOG_clean_sbu_0, # of connection points: 7
#     Node 11, Type 0, BuildingBlock: HICVOG_clean_sbu_0, # of connection points: 7
#     Node 12, Type 0, BuildingBlock: HICVOG_clean_sbu_0, # of connection points: 7
#     Node 13, Type 0, BuildingBlock: HICVOG_clean_sbu_0, # of connection points: 7
#     Node 14, Type 0, BuildingBlock: HICVOG_clean_sbu_0, # of connection points: 7
#     Node 15, Type 0, BuildingBlock: HICVOG_clean_sbu_0, # of connection points: 7
#     Edge 16, Type (0, 0), BuildingBlock: UVAHIK_clean_linker_0, # of connection points: 2
#     Edge 17, Type (0, 0), BuildingBlock: UVAHIK_clean_linker_0, # of connection points: 2
#     Edge 18, Type (0, 0), BuildingBlock: UVAHIK_clean_linker_0, # of connection points: 2
#     Edge 19, Type (0, 0), BuildingBlock: UVAHIK_clean_linker_0, # of connection points: 2
#     Edge 20, Type (0, 0), BuildingBlock: UVAHIK_clean_linker_0, # of connection points: 2
#     Edge 21, Type (0, 0), BuildingBlock: UVAHIK_clean_linker_0, # of connection points: 2
#     Edge 22, Type (0, 0), BuildingBlock: UVAHIK_clean_linker_0, # of connection points: 2
#     Edge 23, Type (0, 0), BuildingBlock: UVAHIK_clean_linker_0, # of connection points: 2
#     Edge 24, Type (0, 0), BuildingBlock: UVAHIK_clean_linker_0, # of connection points: 2
#     Edge 25, Type (0, 0), BuildingBlock: UVAHIK_clean_linker_0, # of connection points: 2
#     Edge 26, Type (0, 0), BuildingBlock: UVAHIK_clean_linker_0, # of connection points: 2
#     Edge 27, Type (0, 0), BuildingBlock: UVAHIK_clean_linker_0, # of connection points: 2
#     Edge 28, Type (0, 0), BuildingBlock: UVAHIK_clean_linker_0, # of connection points: 2
#     Edge 29, Type (0, 0), BuildingBlock: UVAHIK_clean_linker_0, # of connection points: 2
#     Edge 30, Type (0, 0), BuildingBlock: UVAHIK_clean_linker_0, # of connection points: 2
#     Edge 31, Type (0, 0), BuildingBlock: UVAHIK_clean_linker_0, # of connection points: 2
#     Edge 32, Type (0, 0), BuildingBlock: UVAHIK_clean_linker_0, # of connection points: 2
#     Edge 33, Type (0, 0), BuildingBlock: UVAHIK_clean_linker_0, # of connection points: 2
#     Edge 34, Type (0, 0), BuildingBlock: UVAHIK_clean_linker_0, # of connection points: 2
#     Edge 35, Type (0, 0), BuildingBlock: UVAHIK_clean_linker_0, # of connection points: 2
#     Edge 36, Type (0, 0), BuildingBlock: UVAHIK_clean_linker_0, # of connection points: 2
#     Edge 37, Type (0, 0), BuildingBlock: UVAHIK_clean_linker_0, # of connection points: 2
#     Edge 38, Type (0, 0), BuildingBlock: UVAHIK_clean_linker_0, # of connection points: 2
#     Edge 39, Type (0, 0), BuildingBlock: UVAHIK_clean_linker_0, # of connection points: 2
#     Edge 40, Type (0, 0), BuildingBlock: UVAHIK_clean_linker_0, # of connection points: 2
#     Edge 41, Type (0, 0), BuildingBlock: UVAHIK_clean_linker_0, # of connection points: 2
#     Edge 42, Type (0, 0), BuildingBlock: UVAHIK_clean_linker_0, # of connection points: 2
#     Edge 43, Type (0, 0), BuildingBlock: UVAHIK_clean_linker_0, # of connection points: 2
#     Edge 44, Type (0, 0), BuildingBlock: UVAHIK_clean_linker_0, # of connection points: 2
#     Edge 45, Type (0, 0), BuildingBlock: UVAHIK_clean_linker_0, # of connection points: 2
#     Edge 46, Type (0, 0), BuildingBlock: UVAHIK_clean_linker_0, # of connection points: 2
#     Edge 47, Type (0, 0), BuildingBlock: UVAHIK_clean_linker_0, # of connection points: 2
#     Edge 48, Type (0, 0), BuildingBlock: UVAHIK_clean_linker_0, # of connection points: 2
#     Edge 49, Type (0, 0), BuildingBlock: UVAHIK_clean_linker_0, # of connection points: 2
#     Edge 50, Type (0, 0), BuildingBlock: UVAHIK_clean_linker_0, # of connection points: 2
#     Edge 51, Type (0, 0), BuildingBlock: UVAHIK_clean_linker_0, # of connection points: 2
#     Edge 52, Type (0, 0), BuildingBlock: UVAHIK_clean_linker_0, # of connection points: 2
#     Edge 53, Type (0, 0), BuildingBlock: UVAHIK_clean_linker_0, # of connection points: 2
#     Edge 54, Type (0, 0), BuildingBlock: UVAHIK_clean_linker_0, # of connection points: 2
#     Edge 55, Type (0, 0), BuildingBlock: UVAHIK_clean_linker_0, # of connection points: 2
#     Edge 56, Type (0, 0), BuildingBlock: UVAHIK_clean_linker_0, # of connection points: 2
#     Edge 57, Type (0, 0), BuildingBlock: UVAHIK_clean_linker_0, # of connection points: 2
#     Edge 58, Type (0, 0), BuildingBlock: UVAHIK_clean_linker_0, # of connection points: 2
#     Edge 59, Type (0, 0), BuildingBlock: UVAHIK_clean_linker_0, # of connection points: 2
#     Edge 60, Type (0, 0), BuildingBlock: UVAHIK_clean_linker_0, # of connection points: 2
#     Edge 61, Type (0, 0), BuildingBlock: UVAHIK_clean_linker_0, # of connection points: 2
#     Edge 62, Type (0, 0), BuildingBlock: UVAHIK_clean_linker_0, # of connection points: 2
#     Edge 63, Type (0, 0), BuildingBlock: UVAHIK_clean_linker_0, # of connection points: 2
#     Edge 64, Type (0, 0), BuildingBlock: UVAHIK_clean_linker_0, # of connection points: 2
#     Edge 65, Type (0, 0), BuildingBlock: UVAHIK_clean_linker_0, # of connection points: 2
#     Edge 66, Type (0, 0), BuildingBlock: UVAHIK_clean_linker_0, # of connection points: 2
#     Edge 67, Type (0, 0), BuildingBlock: UVAHIK_clean_linker_0, # of connection points: 2
#     Edge 68, Type (0, 0), BuildingBlock: UVAHIK_clean_linker_0, # of connection points: 2
#     Edge 69, Type (0, 0), BuildingBlock: UVAHIK_clean_linker_0, # of connection points: 2
#     Edge 70, Type (0, 0), BuildingBlock: UVAHIK_clean_linker_0, # of connection points: 2
#     Edge 71, Type (0, 0), BuildingBlock: UVAHIK_clean_linker_0, # of connection points: 2
# Relax obj value: 0.096
# Max RMSD: 0.170
# Mean RMSD: 0.170
data_MOF--net-wfw--node1-HICVOG_clean_sbu_0--edge1-UVAHIK_clean_linker_0
_symmetry_space_group_name_H-M    P1
_symmetry_Int_Tables_number       1
_symmetry_cell_setting            triclinic
loop_
_symmetry_equiv_pos_as_xyz
'x, y, z'
_cell_length_a     57.336531
_cell_length_b     57.414866
_cell_length_c     43.889904
_cell_angle_alpha  89.98778
_cell_angle_beta   90.024599
_cell_angle_gamma 90.036805
loop_
_atom_site_label
_atom_site_type_symbol
_atom_site_fract_x
_atom_site_fract_y
_atom_site_fract_z
_atom_type_partial_charge
Zn0 Zn 0.54955 0.24485 0.40341 0.0
C1 C 0.56081 0.18589 0.3555 0.0
N2 N 0.57931 0.18464 0.37413 0.0
C3 C 0.57571 0.20248 0.39325 0.0
N4 N 0.55599 0.21426 0.3867 0.0
N5 N 0.54643 0.20376 0.36276 0.0
C6 C 0.52568 0.22312 0.28768 0.0
O7 O 0.53366 0.23991 0.30516 0.0
O8 O 0.54955 0.24556 0.44974 0.0
Zn9 Zn 0.51481 0.20765 0.34656 0.0
N10 N 0.57483 0.26457 0.38973 0.0
C11 C 0.59705 0.27875 0.34795 0.0
C12 C 0.57921 0.26478 0.35933 0.0
C13 C 0.58776 0.2776 0.40942 0.0
N14 N 0.60983 0.29193 0.36746 0.0
C15 C 0.60586 0.29178 0.39806 0.0
O16 O 0.49928 0.23896 0.35559 0.0
C17 C 0.50208 0.25739 0.3714 0.0
O18 O 0.51969 0.25998 0.38878 0.0
H19 H 0.56884 0.25419 0.34412 0.0
H20 H 0.58362 0.27722 0.43345 0.0
C21 C 0.4739 0.17634 0.35481 0.0
C22 C 0.46097 0.16002 0.37201 0.0
C23 C 0.49203 0.1576 0.40756 0.0
C24 C 0.50459 0.17394 0.39093 0.0
N25 N 0.49546 0.18311 0.36492 0.0
N26 N 0.47054 0.15121 0.39791 0.0
H27 H 0.46663 0.1841 0.33443 0.0
C28 C 0.53108 0.24255 0.46531 0.0
O29 O 0.51166 0.237 0.45116 0.0
O30 O 0.51623 0.20551 0.30031 0.0
H31 H 0.52137 0.1796 0.39924 0.0
H32 H 0.60069 0.27919 0.32377 0.0
H33 H 0.49914 0.15032 0.42831 0.0
Zn34 Zn 0.31022 0.51482 0.34506 0.0
C35 C 0.31413 0.57695 0.38951 0.0
N36 N 0.33198 0.58054 0.37037 0.0
C37 C 0.3313 0.56151 0.35261 0.0
N38 N 0.31389 0.54673 0.36059 0.0
N39 N 0.30304 0.5567 0.38395 0.0
C40 C 0.2737 0.53076 0.46391 0.0
O41 O 0.2748 0.51076 0.44946 0.0
O42 O 0.31125 0.51624 0.29876 0.0
Zn43 Zn 0.27316 0.54978 0.40219 0.0
N44 N 0.33584 0.49606 0.36209 0.0
C45 C 0.36473 0.49426 0.40112 0.0
C46 C 0.34698 0.50612 0.38612 0.0
C47 C 0.34189 0.47419 0.3525 0.0
N48 N 0.37055 0.47252 0.39191 0.0
C49 C 0.35972 0.46202 0.36803 0.0
O50 O 0.25834 0.51995 0.38761 0.0
C51 C 0.26069 0.502 0.37088 0.0
O52 O 0.27908 0.49873 0.35506 0.0
H53 H 0.34195 0.52317 0.39405 0.0
H54 H 0.33266 0.4662 0.3337 0.0
C55 C 0.24108 0.58836 0.4106 0.0
C56 C 0.22573 0.60583 0.40024 0.0
C57 C 0.23434 0.59512 0.34916 0.0
C58 C 0.24944 0.57786 0.35955 0.0
N59 N 0.2524 0.5747 0.38996 0.0
N60 N 0.2228 0.60855 0.36964 0.0
H61 H 0.24362 0.58524 0.43468 0.0
C62 C 0.29317 0.52547 0.28698 0.0
O63 O 0.2768 0.53327 0.30525 0.0
O64 O 0.27399 0.54955 0.44853 0.0
H65 H 0.25867 0.56691 0.34356 0.0
H66 H 0.37363 0.50214 0.42026 0.0
H67 H 0.23171 0.59776 0.325 0.0
Zn68 Zn 0.96649 0.27193 0.40265 0.0
C69 C 0.95795 0.33174 0.35526 0.0
N70 N 0.93873 0.33282 0.37265 0.0
C71 C 0.94131 0.31447 0.3912 0.0
N72 N 0.9611 0.30259 0.38555 0.0
N73 N 0.97182 0.31349 0.36277 0.0
C74 C 0.99332 0.29447 0.28958 0.0
O75 O 0.98373 0.27877 0.30739 0.0
O76 O 0.96684 0.27162 0.44898 0.0
Zn77 Zn 1.00388 0.30877 0.34818 0.0
N78 N 0.94058 0.25279 0.38937 0.0
C79 C 0.91784 0.23923 0.34768 0.0
C80 C 0.93588 0.25296 0.35904 0.0
C81 C 0.92776 0.23961 0.40903 0.0
N82 N 0.90523 0.22585 0.36712 0.0
C83 C 0.90951 0.22561 0.39765 0.0
O84 O 0.01805 0.2766 0.35667 0.0
C85 C 0.01385 0.25796 0.3715 0.0
O86 O 0.99569 0.25592 0.38794 0.0
H87 H 0.9462 0.26361 0.34385 0.0
H88 H 0.93213 0.23964 0.433 0.0
C89 C 0.04212 0.34391 0.35827 0.0
C90 C 0.05355 0.36018 0.37745 0.0
C91 C 0.0268 0.35106 0.4171 0.0
C92 C 0.01572 0.33509 0.39831 0.0
N93 N 0.02321 0.33194 0.36922 0.0
N94 N 0.04527 0.36316 0.40627 0.0
H95 H 0.04791 0.34105 0.33512 0.0
C96 C 0.98555 0.27408 0.46424 0.0
O97 O 1.00508 0.27853 0.44969 0.0
O98 O 1.00387 0.31159 0.30194 0.0
H99 H 1.00114 0.32517 0.40696 0.0
H100 H 0.91396 0.23909 0.32356 0.0
H101 H 0.02084 0.3538 0.4402 0.0
Zn102 Zn 0.24662 0.96723 0.40153 0.0
C103 C 0.18684 0.9557 0.35513 0.0
N104 N 0.18607 0.93701 0.37346 0.0
C105 C 0.20422 0.94059 0.39215 0.0
N106 N 0.21564 0.96055 0.38571 0.0
N107 N 0.20461 0.97027 0.36229 0.0
C108 C 0.22138 0.99166 0.28802 0.0
O109 O 0.23802 0.98303 0.30523 0.0
O110 O 0.24906 0.96769 0.44777 0.0
Zn111 Zn 0.20766 1.00231 0.34712 0.0
N112 N 0.2664 0.94219 0.3873 0.0
C113 C 0.281 0.92068 0.34516 0.0
C114 C 0.26685 0.93826 0.35681 0.0
C115 C 0.27936 0.92905 0.40683 0.0
N116 N 0.29412 0.90772 0.36451 0.0
C117 C 0.29372 0.91123 0.3952 0.0
O118 O 0.23914 0.0181 0.35487 0.0
C119 C 0.25804 0.01495 0.36962 0.0
O120 O 0.26103 0.99708 0.38632 0.0
H121 H 0.25632 0.94879 0.34172 0.0
H122 H 0.27882 0.93283 0.43096 0.0
C123 C 0.17171 0.03957 0.3571 0.0
C124 C 0.1546 0.05028 0.37569 0.0
C125 C 0.16266 0.02276 0.41477 0.0
C126 C 0.17947 0.01238 0.39657 0.0
N127 N 0.18355 0.02059 0.36799 0.0
N128 N 0.15068 0.04128 0.40394 0.0
H129 H 0.17531 0.04596 0.33439 0.0
C130 C 0.24141 0.98395 0.46471 0.0
O131 O 0.22946 1.00104 0.45237 0.0
O132 O 0.20421 1.00166 0.30099 0.0
H133 H 0.18927 0.99779 0.4053 0.0
H134 H 0.28163 0.91741 0.3209 0.0
H135 H 0.15918 0.01621 0.43743 0.0
Zn136 Zn 0.0155 0.80859 0.15984 0.0
C137 C 0.07656 0.81516 0.11355 0.0
N138 N 0.0796 0.83335 0.13227 0.0
C139 C 0.06104 0.83185 0.15078 0.0
N140 N 0.04708 0.81356 0.14373 0.0
N141 N 0.05708 0.80298 0.12016 0.0
C142 C 0.03364 0.77691 0.04137 0.0
O143 O 0.0164 0.78853 0.05392 0.0
O144 O 0.01637 0.81253 0.20588 0.0
Zn145 Zn 0.05164 0.77183 0.10428 0.0
N146 N 0.99498 0.83067 0.13879 0.0
C147 C 0.98785 0.84752 0.09007 0.0
C148 C 1.00143 0.83389 0.10927 0.0
C149 C 0.97518 0.84085 0.15004 0.0
N150 N 0.96804 0.85726 0.10095 0.0
C151 C 0.96113 0.85444 0.13038 0.0
O152 O 0.02306 0.75573 0.12058 0.0
C153 C 1.00548 0.75753 0.1381 0.0
O154 O 1.00157 0.77612 0.15311 0.0
H155 H 0.01684 0.82546 0.10043 0.0
H156 H 0.97004 0.83773 0.1734 0.0
C157 C 0.0915 0.74163 0.09669 0.0
C158 C 0.10998 0.72759 0.10714 0.0
C159 C 0.10048 0.73792 0.15806 0.0
C160 C 0.08219 0.75174 0.14757 0.0
N161 N 0.07796 0.7532 0.11719 0.0
N162 N 0.11381 0.7261 0.13771 0.0
H163 H 0.08749 0.74291 0.07267 0.0
C164 C 0.02729 0.79596 0.21891 0.0
O165 O 0.03672 0.77975 0.20176 0.0
O166 O 0.05022 0.76959 0.05806 0.0
H167 H 0.07128 0.76112 0.16347 0.0
H168 H 0.9928 0.85005 0.06652 0.0
H169 H 0.10399 0.73646 0.1822 0.0
Zn170 Zn 0.70975 0.0137 0.1588 0.0
C171 C 0.70437 0.07496 0.11356 0.0
N172 N 0.68597 0.0781 0.13191 0.0
C173 C 0.68701 0.05941 0.15024 0.0
N174 N 0.70531 0.0454 0.1435 0.0
N175 N 0.7163 0.05543 0.12031 0.0
C176 C 0.74772 0.02985 0.04265 0.0
O177 O 0.74672 0.00996 0.0574 0.0
O178 O 0.70584 0.01398 0.20477 0.0
Zn179 Zn 0.74713 0.04978 0.10395 0.0
N180 N 0.68717 0.99412 0.1372 0.0
C181 C 0.66975 0.98932 0.08837 0.0
C182 C 0.68532 1.00065 0.10752 0.0
C183 C 0.6743 0.97595 0.14845 0.0
N184 N 0.65672 0.97159 0.09949 0.0
C185 C 0.65844 0.96431 0.12893 0.0
O186 O 0.76373 0.02112 0.12004 0.0
C187 C 0.7611 1.00347 0.1373 0.0
O188 O 0.74207 0.99985 0.15154 0.0
H189 H 0.69593 0.01468 0.09873 0.0
H190 H 0.67611 0.97093 0.17209 0.0
C191 C 0.77791 0.08923 0.09523 0.0
C192 C 0.79104 0.10862 0.10508 0.0
C193 C 0.77852 0.10128 0.15587 0.0
C194 C 0.76583 0.08203 0.14598 0.0
N195 N 0.76578 0.07637 0.11595 0.0
N196 N 0.79077 0.11403 0.13532 0.0
H197 H 0.77692 0.08449 0.07144 0.0
C198 C 0.72243 0.02482 0.21792 0.0
O199 O 0.73858 0.03453 0.20089 0.0
O200 O 0.74713 0.04877 0.0577 0.0
H201 H 0.75593 0.07169 0.16203 0.0
H202 H 0.66803 0.99452 0.06479 0.0
H203 H 0.77867 0.10607 0.1797 0.0
Zn204 Zn 0.50346 0.70828 0.15852 0.0
C205 C 0.44117 0.70293 0.11459 0.0
N206 N 0.43842 0.68455 0.13305 0.0
C207 C 0.45751 0.68559 0.1507 0.0
N208 N 0.47147 0.70382 0.14341 0.0
N209 N 0.46096 0.71478 0.12051 0.0
C210 C 0.48147 0.737 0.04011 0.0
O211 O 0.49685 0.72245 0.05147 0.0
O212 O 0.50304 0.70503 0.20466 0.0
Zn213 Zn 0.46649 0.74566 0.10415 0.0
N214 N 0.52271 0.68489 0.13772 0.0
C215 C 0.52605 0.66526 0.09016 0.0
C216 C 0.51517 0.68153 0.10868 0.0
C217 C 0.54144 0.67276 0.1489 0.0
N218 N 0.54431 0.65299 0.10123 0.0
C219 C 0.5526 0.65612 0.13003 0.0
O220 O 0.49557 0.76142 0.11959 0.0
C221 C 0.51371 0.75925 0.13609 0.0
O222 O 0.51791 0.74047 0.15062 0.0
H223 H 0.50067 0.69145 0.09991 0.0
H224 H 0.54724 0.67571 0.17204 0.0
C225 C 0.42752 0.77697 0.09642 0.0
C226 C 0.40839 0.79037 0.10646 0.0
C227 C 0.41575 0.77757 0.15713 0.0
C228 C 0.43475 0.76459 0.14704 0.0
N229 N 0.44027 0.76456 0.11697 0.0
N230 N 0.4031 0.79009 0.13673 0.0
H231 H 0.43211 0.77599 0.07259 0.0
C232 C 0.49237 0.72183 0.21752 0.0
O233 O 0.48286 0.73791 0.20021 0.0
O234 O 0.46727 0.74721 0.05789 0.0
H235 H 0.44498 0.75447 0.16295 0.0
H236 H 0.52004 0.66237 0.0671 0.0
H237 H 0.41107 0.77772 0.181 0.0
Zn238 Zn 0.80975 0.50287 0.16136 0.0
C239 C 0.81635 0.44123 0.11664 0.0
N240 N 0.83448 0.43843 0.13554 0.0
C241 C 0.83303 0.45727 0.15353 0.0
N242 N 0.81477 0.47113 0.14604 0.0
N243 N 0.80425 0.46083 0.12262 0.0
C244 C 0.77353 0.48533 0.04369 0.0
O245 O 0.77624 0.50521 0.05808 0.0
O246 O 0.81254 0.50247 0.20766 0.0
Zn247 Zn 0.77356 0.46627 0.10551 0.0
N248 N 0.83284 0.52238 0.14063 0.0
C249 C 0.85125 0.52692 0.0924 0.0
C250 C 0.83523 0.51576 0.11105 0.0
C251 C 0.84558 0.54051 0.15222 0.0
N252 N 0.86415 0.54459 0.10387 0.0
C253 C 0.86189 0.55199 0.13319 0.0
O254 O 0.75729 0.49529 0.12039 0.0
C255 C 0.7591 0.51315 0.13741 0.0
O256 O 0.77755 0.51708 0.15282 0.0
H257 H 0.8247 0.50179 0.10196 0.0
H258 H 0.84334 0.54563 0.17576 0.0
C259 C 0.74142 0.42764 0.09901 0.0
C260 C 0.72774 0.40909 0.1101 0.0
C261 C 0.74161 0.4169 0.16011 0.0
C262 C 0.75507 0.43522 0.149 0.0
N263 N 0.75463 0.44031 0.11879 0.0
N264 N 0.72824 0.40439 0.14052 0.0
H265 H 0.74124 0.43236 0.07516 0.0
C266 C 0.7953 0.49211 0.22002 0.0
O267 O 0.77938 0.48285 0.2022 0.0
O268 O 0.77309 0.46654 0.05908 0.0
H269 H 0.76576 0.44543 0.1643 0.0
H270 H 0.8534 0.52163 0.06891 0.0
H271 H 0.74169 0.4127 0.18414 0.0
Zn272 Zn 0.47187 0.77387 0.60234 0.0
C273 C 0.45786 0.83114 0.65208 0.0
N274 N 0.43946 0.83211 0.63324 0.0
C275 C 0.44394 0.81496 0.61338 0.0
N276 N 0.4642 0.80396 0.6196 0.0
N277 N 0.4732 0.81427 0.64406 0.0
C278 C 0.49591 0.79014 0.71885 0.0
O279 O 0.49279 0.77262 0.70005 0.0
O280 O 0.47436 0.77362 0.55599 0.0
Zn281 Zn 0.50462 0.81107 0.66163 0.0
N282 N 0.44663 0.75324 0.61396 0.0
C283 C 0.42464 0.73631 0.65419 0.0
C284 C 0.44285 0.75048 0.64428 0.0
C285 C 0.43286 0.74243 0.59298 0.0
N286 N 0.41105 0.7253 0.63334 0.0
C287 C 0.41462 0.72776 0.60282 0.0
O288 O 0.52255 0.78115 0.65095 0.0
C289 C 0.51949 0.76264 0.63539 0.0
O290 O 0.50156 0.75992 0.61868 0.0
H291 H 0.45384 0.7594 0.66057 0.0
H292 H 0.4359 0.74557 0.56904 0.0
C293 C 0.54504 0.8435 0.65883 0.0
C294 C 0.556 0.86425 0.649 0.0
C295 C 0.52269 0.87335 0.6193 0.0
C296 C 0.51203 0.85283 0.6287 0.0
N297 N 0.52298 0.83847 0.64882 0.0
N298 N 0.54428 0.87861 0.62971 0.0
H299 H 0.55375 0.83178 0.67443 0.0
C300 C 0.48169 0.75481 0.54395 0.0
O301 O 0.48733 0.73738 0.56189 0.0
O302 O 0.50105 0.81005 0.70789 0.0
H303 H 0.49502 0.84854 0.61988 0.0
H304 H 0.42135 0.73401 0.67827 0.0
H305 H 0.51391 0.88501 0.60369 0.0
Zn306 Zn 0.74534 0.46817 0.60512 0.0
C307 C 0.6857 0.45914 0.65262 0.0
N308 N 0.68364 0.44086 0.63376 0.0
C309 C 0.70174 0.44373 0.61482 0.0
N310 N 0.71446 0.46279 0.62175 0.0
N311 N 0.70431 0.47268 0.64571 0.0
C312 C 0.72399 0.49288 0.72036 0.0
O313 O 0.73993 0.48389 0.70236 0.0
O314 O 0.74637 0.46919 0.55879 0.0
Zn315 Zn 0.70934 0.50422 0.6618 0.0
N316 N 0.76414 0.44193 0.61774 0.0
C317 C 0.7796 0.41934 0.6584 0.0
C318 C 0.76579 0.43769 0.64809 0.0
C319 C 0.7755 0.42837 0.59708 0.0
N320 N 0.7912 0.40597 0.63789 0.0
C321 C 0.78952 0.40981 0.60734 0.0
O322 O 0.7414 0.51846 0.65349 0.0
C323 C 0.75985 0.51455 0.63814 0.0
O324 O 0.76161 0.49684 0.62088 0.0
H325 H 0.75655 0.44861 0.66411 0.0
H326 H 0.77406 0.4324 0.57308 0.0
C327 C 0.67461 0.54294 0.65299 0.0
C328 C 0.65829 0.55474 0.63429 0.0
C329 C 0.66667 0.52842 0.59397 0.0
C330 C 0.68273 0.51699 0.61226 0.0
N331 N 0.68623 0.52405 0.64149 0.0
N332 N 0.65489 0.54685 0.60538 0.0
H333 H 0.67779 0.54847 0.67619 0.0
C334 C 0.74654 0.48802 0.54349 0.0
O335 O 0.74428 0.50795 0.55788 0.0
O336 O 0.70669 0.50327 0.70818 0.0
H337 H 0.69245 0.50251 0.60307 0.0
H338 H 0.7812 0.41582 0.68252 0.0
H339 H 0.66364 0.52279 0.57079 0.0
Zn340 Zn 0.04783 0.74661 0.60425 0.0
C341 C 0.06348 0.68913 0.65321 0.0
N342 N 0.08246 0.68942 0.63537 0.0
C343 C 0.07795 0.70706 0.61622 0.0
N344 N 0.05709 0.71707 0.62184 0.0
N345 N 0.04789 0.70574 0.64536 0.0
C346 C 0.02029 0.72472 0.72017 0.0
O347 O 0.02276 0.74335 0.7031 0.0
O348 O 0.04744 0.74678 0.55783 0.0
Zn349 Zn 0.01593 0.70654 0.66073 0.0
N350 N 0.07097 0.7687 0.61815 0.0
C351 C 0.08837 0.78757 0.66066 0.0
C352 C 0.07209 0.77205 0.64873 0.0
C353 C 0.08568 0.78007 0.59883 0.0
N354 N 0.10285 0.79915 0.64147 0.0
C355 C 0.10215 0.7959 0.61072 0.0
O356 O 0.9974 0.73598 0.65081 0.0
C357 C 0.99889 0.7546 0.63513 0.0
O358 O 0.01653 0.75883 0.61843 0.0
H359 H 0.06037 0.76269 0.66367 0.0
H360 H 0.08417 0.7771 0.57461 0.0
C361 C 0.97986 0.66947 0.65316 0.0
C362 C 0.97049 0.65007 0.63743 0.0
C363 C 1.00141 0.65261 0.60153 0.0
C364 C 0.01041 0.67175 0.61681 0.0
N365 N 0.99985 0.67971 0.64255 0.0
N366 N 0.98182 0.64231 0.61214 0.0
H367 H 0.97162 0.67616 0.67352 0.0
C368 C 0.03949 0.76527 0.54559 0.0
O369 O 0.03238 0.78223 0.5634 0.0
O370 O 0.01723 0.70507 0.70725 0.0
H371 H 0.02578 0.68021 0.60798 0.0
H372 H 0.08943 0.79048 0.68496 0.0
H373 H 0.00982 0.64606 0.58121 0.0
Zn374 Zn 0.81306 0.01328 0.66138 0.0
C375 C 0.81308 0.07403 0.61335 0.0
N376 N 0.8303 0.07932 0.63284 0.0
C377 C 0.83057 0.06086 0.65154 0.0
N378 N 0.81442 0.0447 0.64376 0.0
N379 N 0.80322 0.05319 0.61965 0.0
C380 C 0.75433 0.03399 0.54436 0.0
O381 O 0.73725 0.02734 0.56233 0.0
O382 O 0.81319 0.01651 0.70755 0.0
Zn383 Zn 0.77337 0.04361 0.60264 0.0
N384 N 0.84071 0.99597 0.64741 0.0
C385 C 0.8753 0.99744 0.61734 0.0
C386 C 0.85463 1.0075 0.62731 0.0
C387 C 0.84632 0.97396 0.65686 0.0
N388 N 0.88115 0.97588 0.62721 0.0
C389 C 0.86722 0.96361 0.64649 0.0
O390 O 0.76112 0.01274 0.6183 0.0
C391 C 0.76516 0.99557 0.63588 0.0
O392 O 0.78367 0.9945 0.65191 0.0
H393 H 0.84986 0.02451 0.61902 0.0
H394 H 0.83495 0.96482 0.6725 0.0
C395 C 0.74039 0.08177 0.59493 0.0
C396 C 0.72388 0.09804 0.60562 0.0
C397 C 0.73019 0.08435 0.65608 0.0
C398 C 0.74634 0.06824 0.64534 0.0
N399 N 0.75103 0.06713 0.61506 0.0
N400 N 0.71929 0.0987 0.63606 0.0
H401 H 0.74437 0.08031 0.57093 0.0
C402 C 0.79417 0.02384 0.71901 0.0
O403 O 0.7769 0.02901 0.70055 0.0
O404 O 0.77294 0.0419 0.55637 0.0
H405 H 0.75504 0.05656 0.66092 0.0
H406 H 0.88662 1.00667 0.60174 0.0
H407 H 0.7262 0.08536 0.68014 0.0
Zn408 Zn 1.0049 0.20595 0.84489 0.0
C409 C 0.94404 0.20602 0.89266 0.0
N410 N 0.93866 0.18871 0.87341 0.0
C411 C 0.95723 0.18819 0.85482 0.0
N412 N 0.97349 0.2043 0.86249 0.0
N413 N 0.96497 0.21562 0.88644 0.0
C414 C 0.99277 0.24446 0.96665 0.0
O415 O 0.01301 0.2425 0.95288 0.0
O416 O 1.00167 0.2067 0.79861 0.0
Zn417 Zn 0.97449 0.24496 0.90435 0.0
N418 N 0.02232 0.17814 0.85815 0.0
C419 C 0.02093 0.14324 0.88755 0.0
C420 C 0.01081 0.16399 0.87799 0.0
C421 C 0.04439 0.1727 0.84863 0.0
N422 N 0.04253 0.13757 0.8776 0.0
C423 C 0.0548 0.15173 0.85862 0.0
O424 O 1.00566 0.25736 0.88994 0.0
C425 C 0.02279 0.25335 0.87224 0.0
O426 O 0.02359 0.23515 0.85562 0.0
H427 H 0.9938 0.16864 0.88643 0.0
H428 H 0.05352 0.18428 0.83325 0.0
C429 C 0.93688 0.27813 0.91224 0.0
C430 C 0.92029 0.29443 0.90184 0.0
C431 C 0.93328 0.28804 0.85109 0.0
C432 C 0.94962 0.27198 0.86154 0.0
N433 N 0.95121 0.26744 0.89181 0.0
N434 N 0.91914 0.29891 0.87139 0.0
H435 H 0.93877 0.27428 0.93623 0.0
C436 C 0.99508 0.22614 0.78757 0.0
O437 O 0.99062 0.24332 0.80643 0.0
O438 O 0.97424 0.24459 0.9507 0.0
H439 H 0.96104 0.26318 0.84571 0.0
H440 H 0.01172 0.13174 0.90293 0.0
H441 H 0.93188 0.29191 0.82704 0.0
Zn442 Zn 0.31187 1.00252 0.84533 0.0
C443 C 0.3103 0.94137 0.89167 0.0
N444 N 0.32781 0.93607 0.87266 0.0
C445 C 0.32846 0.95464 0.8541 0.0
N446 N 0.3122 0.97076 0.86147 0.0
N447 N 0.30076 0.96229 0.88535 0.0
C448 C 0.25276 0.98049 0.96136 0.0
O449 O 0.23584 0.98775 0.94353 0.0
O450 O 0.31307 1.00058 0.79885 0.0
Zn451 Zn 0.27138 0.97211 0.9027 0.0
N452 N 0.3392 0.01836 0.86276 0.0
C453 C 0.36745 0.01639 0.90249 0.0
C454 C 0.3479 1.00754 0.88791 0.0
C455 C 0.3491 0.0385 0.85213 0.0
N456 N 0.37743 0.0361 0.89181 0.0
C457 C 0.36894 0.04771 0.86714 0.0
O458 O 0.25973 1.00347 0.88826 0.0
C459 C 0.26418 0.02079 0.87111 0.0
O460 O 0.28272 0.0217 0.85512 0.0
H461 H 0.33972 0.99207 0.89685 0.0
H462 H 0.34183 0.04698 0.83227 0.0
C463 C 0.23766 0.9345 0.90806 0.0
C464 C 0.22169 0.91817 0.89613 0.0
C465 C 0.22973 0.93232 0.84629 0.0
C466 C 0.24538 0.94844 0.85825 0.0
N467 N 0.24895 0.94931 0.88881 0.0
N468 N 0.21824 0.91772 0.86542 0.0
H469 H 0.24082 0.93581 0.93227 0.0
C470 C 0.2933 0.99778 0.78606 0.0
O471 O 0.27465 0.99593 0.80325 0.0
O472 O 0.27123 0.97247 0.94913 0.0
H473 H 0.25471 0.96022 0.84336 0.0
H474 H 0.37459 1.00775 0.92231 0.0
H475 H 0.22665 0.93145 0.822 0.0
Zn476 Zn 0.549 0.27379 0.90261 0.0
C477 C 0.55804 0.33353 0.85537 0.0
N478 N 0.57632 0.3355 0.87428 0.0
C479 C 0.57341 0.31736 0.89312 0.0
N480 N 0.55433 0.30469 0.88607 0.0
N481 N 0.54448 0.3149 0.86211 0.0
C482 C 0.52471 0.29472 0.78738 0.0
O483 O 0.53375 0.27902 0.80569 0.0
O484 O 0.54573 0.27322 0.94887 0.0
Zn485 Zn 0.5131 0.30974 0.84552 0.0
N486 N 0.57614 0.25556 0.89154 0.0
C487 C 0.60143 0.24277 0.85205 0.0
C488 C 0.58194 0.25526 0.86155 0.0
C489 C 0.58912 0.24388 0.91258 0.0
N490 N 0.61423 0.23089 0.8729 0.0
C491 C 0.60866 0.23087 0.90308 0.0
O492 O 0.49889 0.27763 0.85342 0.0
C493 C 0.5032 0.25897 0.86809 0.0
O494 O 0.52097 0.25723 0.88531 0.0
H495 H 0.57152 0.26481 0.84524 0.0
H496 H 0.58439 0.24507 0.93634 0.0
C497 C 0.47446 0.34454 0.85281 0.0
C498 C 0.4624 0.36107 0.87081 0.0
C499 C 0.48765 0.35267 0.9123 0.0
C500 C 0.4994 0.33643 0.89464 0.0
N501 N 0.49297 0.33282 0.86519 0.0
N502 N 0.46961 0.36459 0.90001 0.0
H503 H 0.4695 0.34136 0.82939 0.0
C504 C 0.53868 0.25431 0.96098 0.0
O505 O 0.53359 0.23665 0.94316 0.0
O506 O 0.51438 0.31218 0.7992 0.0
H507 H 0.51367 0.3267 0.90444 0.0
H508 H 0.60632 0.24244 0.82825 0.0
H509 H 0.49279 0.35579 0.93567 0.0
Zn510 Zn 0.20658 0.51382 0.84474 0.0
C511 C 0.20343 0.57569 0.89003 0.0
N512 N 0.18569 0.57952 0.87079 0.0
C513 C 0.18612 0.56048 0.85307 0.0
N514 N 0.20328 0.54548 0.86111 0.0
N515 N 0.21425 0.55527 0.88451 0.0
C516 C 0.24515 0.52872 0.96345 0.0
O517 O 0.24398 0.50868 0.94908 0.0
O518 O 0.20639 0.51626 0.79845 0.0
Zn519 Zn 0.2444 0.5481 0.90173 0.0
N520 N 0.17987 0.49537 0.85942 0.0
C521 C 0.14603 0.49556 0.89099 0.0
C522 C 0.16618 0.50629 0.88034 0.0
C523 C 0.17452 0.47336 0.84966 0.0
N524 N 0.14044 0.47401 0.88085 0.0
C525 C 0.15414 0.46238 0.86067 0.0
O526 O 0.25889 0.51842 0.88615 0.0
C527 C 0.25601 0.50038 0.86971 0.0
O528 O 0.23724 0.49707 0.85471 0.0
H529 H 0.17071 0.52334 0.88875 0.0
H530 H 0.18567 0.46475 0.83328 0.0
C531 C 0.27584 0.58707 0.90987 0.0
C532 C 0.29084 0.60484 0.89953 0.0
C533 C 0.28258 0.59384 0.84845 0.0
C534 C 0.2678 0.5763 0.85884 0.0
N535 N 0.26484 0.57315 0.88925 0.0
N536 N 0.2938 0.60756 0.86894 0.0
H537 H 0.27329 0.58395 0.93395 0.0
C538 C 0.22487 0.52499 0.7871 0.0
O539 O 0.24146 0.53183 0.80571 0.0
O540 O 0.24452 0.54749 0.94806 0.0
H541 H 0.25878 0.56516 0.84286 0.0
H542 H 0.13491 0.50429 0.90728 0.0
H543 H 0.28521 0.59649 0.82429 0.0
C544 C 0.56727 0.17786 0.30086 0.0
C545 C 0.55899 0.1701 0.32917 0.0
C546 C 0.57633 0.16197 0.27971 0.0
C547 C 0.58517 0.09936 0.26054 0.0
H548 H 0.64725 0.1203 0.2386 0.0
C549 C 0.64702 0.05642 0.17084 0.0
C550 C 0.67111 0.05759 0.17649 0.0
C551 C 0.63101 0.06546 0.19189 0.0
C552 C 0.63006 0.11405 0.24476 0.0
H553 H 0.5521 0.13965 0.35672 0.0
H554 H 0.56724 0.11181 0.31953 0.0
H555 H 0.6213 0.14635 0.2661 0.0
H556 H 0.69728 0.068 0.20923 0.0
H557 H 0.66946 0.08315 0.2464 0.0
H558 H 0.59414 0.06698 0.23879 0.0
C559 C 0.56669 0.13009 0.31348 0.0
C560 C 0.615 0.12916 0.26008 0.0
C561 C 0.5578 0.14602 0.3347 0.0
C562 C 0.6788 0.06604 0.20475 0.0
C563 C 0.66285 0.07523 0.22572 0.0
C564 C 0.6002 0.08427 0.24469 0.0
C565 C 0.57732 0.13801 0.28654 0.0
C566 C 0.59237 0.12207 0.26823 0.0
C567 C 0.63889 0.07622 0.21877 0.0
C568 C 0.62292 0.0914 0.23686 0.0
H569 H 0.56912 0.19633 0.29643 0.0
H570 H 0.58412 0.16862 0.25898 0.0
H571 H 0.56789 0.09333 0.26662 0.0
H572 H 0.6407 0.05063 0.14883 0.0
H573 H 0.61272 0.06601 0.18575 0.0
C574 C 0.34287 0.56553 0.29847 0.0
C575 C 0.3486 0.55845 0.32814 0.0
C576 C 0.36033 0.57306 0.27834 0.0
C577 C 0.41738 0.60219 0.28385 0.0
H578 H 0.41523 0.59984 0.19571 0.0
C579 C 0.45318 0.67467 0.20494 0.0
C580 C 0.46068 0.66864 0.17556 0.0
C581 C 0.44549 0.65744 0.22528 0.0
C582 C 0.41643 0.60044 0.22032 0.0
H583 H 0.37705 0.55217 0.35939 0.0
H584 H 0.40761 0.56447 0.3241 0.0
H585 H 0.38983 0.57443 0.22541 0.0
H586 H 0.46745 0.6399 0.14504 0.0
H587 H 0.4548 0.60974 0.1807 0.0
H588 H 0.44356 0.62862 0.27876 0.0
C589 C 0.38968 0.56456 0.31635 0.0
C590 C 0.40162 0.586 0.23736 0.0
C591 C 0.37222 0.55706 0.33638 0.0
C592 C 0.46229 0.64497 0.16785 0.0
C593 C 0.45457 0.62774 0.18808 0.0
C594 C 0.4321 0.61672 0.26681 0.0
C595 C 0.38386 0.57385 0.28766 0.0
C596 C 0.40159 0.58696 0.26937 0.0
C597 C 0.44489 0.63384 0.21643 0.0
C598 C 0.43155 0.61635 0.2348 0.0
H599 H 0.32476 0.56756 0.29191 0.0
H600 H 0.35512 0.58018 0.25653 0.0
H601 H 0.41768 0.6037 0.30844 0.0
H602 H 0.45084 0.6928 0.21103 0.0
H603 H 0.43804 0.66289 0.24679 0.0
C604 C 0.87361 0.46218 0.17092 0.0
C605 C 0.84989 0.46047 0.17855 0.0
C606 C 0.89085 0.45438 0.1911 0.0
C607 C 0.90204 0.43161 0.26961 0.0
H608 H 0.94445 0.38977 0.22783 0.0
C609 C 0.9541 0.34298 0.30103 0.0
C610 C 0.96139 0.34882 0.33059 0.0
C611 C 0.94634 0.36032 0.28089 0.0
C612 C 0.93285 0.40145 0.23988 0.0
H613 H 0.82567 0.45048 0.21392 0.0
H614 H 0.85564 0.43749 0.24962 0.0
H615 H 0.91873 0.41501 0.19836 0.0
H616 H 0.96785 0.37738 0.36153 0.0
H617 H 0.95512 0.40771 0.32622 0.0
H618 H 0.91541 0.41729 0.31112 0.0
C619 C 0.86109 0.44505 0.22816 0.0
C620 C 0.91822 0.41615 0.22298 0.0
C621 C 0.84384 0.45284 0.20788 0.0
C622 C 0.96283 0.37245 0.33861 0.0
C623 C 0.95506 0.38978 0.31858 0.0
C624 C 0.91678 0.41701 0.28652 0.0
C625 C 0.88473 0.44452 0.21934 0.0
C626 C 0.90228 0.43114 0.23759 0.0
C627 C 0.94551 0.38384 0.29008 0.0
C628 C 0.93209 0.4014 0.2719 0.0
H629 H 0.87871 0.46747 0.14817 0.0
H630 H 0.90888 0.45468 0.18374 0.0
H631 H 0.89011 0.44296 0.28166 0.0
H632 H 0.95193 0.32488 0.29466 0.0
H633 H 0.93902 0.35501 0.25923 0.0
C634 C 0.17549 0.95124 0.30095 0.0
C635 C 0.16956 0.9584 0.33052 0.0
C636 C 0.15817 0.94362 0.28067 0.0
C637 C 0.10142 0.91404 0.2855 0.0
H638 H 0.10353 0.91723 0.1974 0.0
C639 C 0.06624 0.84209 0.20518 0.0
C640 C 0.05832 0.84847 0.1761 0.0
C641 C 0.07393 0.8591 0.22582 0.0
C642 C 0.10236 0.91639 0.222 0.0
H643 H 0.14093 0.96453 0.3615 0.0
H644 H 0.11062 0.95191 0.32598 0.0
H645 H 0.12872 0.9426 0.22752 0.0
H646 H 0.05098 0.87759 0.14639 0.0
H647 H 0.06373 0.90734 0.18257 0.0
H648 H 0.07553 0.88738 0.27996 0.0
C649 C 0.12859 0.95195 0.31839 0.0
C650 C 0.11703 0.93081 0.23927 0.0
C651 C 0.1459 0.95961 0.33856 0.0
C652 C 0.05645 0.87224 0.16897 0.0
C653 C 0.0642 0.88924 0.1895 0.0
C654 C 0.08687 0.89952 0.26823 0.0
C655 C 0.1346 0.94272 0.28976 0.0
C656 C 0.11705 0.92957 0.27126 0.0
C657 C 0.07417 0.88283 0.21757 0.0
C658 C 0.0874 0.90021 0.23622 0.0
H659 H 0.19362 0.94922 0.2946 0.0
H660 H 0.16352 0.9365 0.25893 0.0
H661 H 0.10113 0.91233 0.31007 0.0
H662 H 0.06884 0.8239 0.21077 0.0
H663 H 0.08164 0.85343 0.2471 0.0
C664 C 0.34117 0.95029 0.80038 0.0
C665 C 0.34655 0.95656 0.83045 0.0
C666 C 0.35878 0.94255 0.78064 0.0
C667 C 0.40028 0.92934 0.74051 0.0
H668 H 0.44131 0.88564 0.78145 0.0
C669 C 0.46112 0.87165 0.67017 0.0
C670 C 0.46 0.84786 0.67737 0.0
C671 C 0.45319 0.88843 0.69081 0.0
C672 C 0.43007 0.89781 0.76963 0.0
H673 H 0.37448 0.96119 0.86297 0.0
H674 H 0.40535 0.94861 0.82836 0.0
H675 H 0.4152 0.91008 0.81132 0.0
H676 H 0.4509 0.82296 0.71232 0.0
H677 H 0.43721 0.85214 0.74864 0.0
H678 H 0.41422 0.9162 0.69875 0.0
C679 C 0.38758 0.94921 0.81999 0.0
C680 C 0.41524 0.91208 0.78679 0.0
C681 C 0.36998 0.95686 0.83966 0.0
C682 C 0.45264 0.84124 0.70659 0.0
C683 C 0.44455 0.85803 0.72726 0.0
C684 C 0.41513 0.91509 0.72335 0.0
C685 C 0.38207 0.94079 0.79075 0.0
C686 C 0.39981 0.92776 0.77246 0.0
C687 C 0.44356 0.88175 0.71896 0.0
C688 C 0.42995 0.89881 0.73763 0.0
H689 H 0.32315 0.94927 0.79304 0.0
H690 H 0.35378 0.93614 0.75838 0.0
H691 H 0.38881 0.94128 0.72867 0.0
H692 H 0.46619 0.87718 0.64751 0.0
H693 H 0.45321 0.90653 0.68386 0.0
C694 C 0.67744 0.45292 0.70719 0.0
C695 C 0.66992 0.46143 0.67889 0.0
C696 C 0.66129 0.44396 0.7281 0.0
C697 C 0.59832 0.43535 0.74614 0.0
H698 H 0.61877 0.37304 0.76734 0.0
C699 C 0.5545 0.37325 0.83446 0.0
C700 C 0.55596 0.34919 0.82896 0.0
C701 C 0.56355 0.38926 0.81345 0.0
C702 C 0.61264 0.39029 0.76135 0.0
H703 H 0.63968 0.469 0.65119 0.0
H704 H 0.6114 0.45401 0.68794 0.0
H705 H 0.64524 0.39913 0.74075 0.0
H706 H 0.56658 0.32307 0.79637 0.0
H707 H 0.58175 0.35092 0.75921 0.0
H708 H 0.56563 0.42628 0.7671 0.0
C709 C 0.62968 0.45428 0.69417 0.0
C710 C 0.628 0.40544 0.74658 0.0
C711 C 0.64587 0.46309 0.67321 0.0
C712 C 0.5645 0.34152 0.80076 0.0
C713 C 0.57368 0.35749 0.7798 0.0
C714 C 0.58297 0.42022 0.7614 0.0
C715 C 0.63733 0.44331 0.721 0.0
C716 C 0.6211 0.42816 0.73876 0.0
C717 C 0.57455 0.38143 0.78674 0.0
C718 C 0.58993 0.39742 0.76897 0.0
H719 H 0.69587 0.4507 0.71173 0.0
H720 H 0.66772 0.43591 0.74878 0.0
H721 H 0.59244 0.4527 0.74028 0.0
H722 H 0.54857 0.37956 0.8564 0.0
H723 H 0.56396 0.40754 0.81956 0.0
C724 C 0.05951 0.64777 0.66751 0.0
C725 C 0.06068 0.67113 0.67678 0.0
C726 C 0.06652 0.6299 0.68716 0.0
C727 C 0.0865 0.61653 0.76649 0.0
H728 H 0.1294 0.57502 0.725 0.0
C729 C 0.1751 0.5649 0.79886 0.0
C730 C 0.16902 0.55769 0.82833 0.0
C731 C 0.15788 0.57254 0.77848 0.0
C732 C 0.11743 0.58637 0.73697 0.0
H733 H 0.06875 0.69415 0.71426 0.0
H734 H 0.08078 0.66307 0.74886 0.0
H735 H 0.10493 0.60131 0.69542 0.0
H736 H 0.14024 0.5513 0.85902 0.0
H737 H 0.11009 0.56362 0.82321 0.0
H738 H 0.09996 0.60255 0.80809 0.0
C739 C 0.07417 0.65834 0.7266 0.0
C740 C 0.10314 0.60131 0.71998 0.0
C741 C 0.06708 0.67621 0.70689 0.0
C742 C 0.14533 0.55625 0.83614 0.0
C743 C 0.1281 0.56379 0.81581 0.0
C744 C 0.10077 0.60157 0.78348 0.0
C745 C 0.07515 0.63506 0.71641 0.0
C746 C 0.08783 0.61698 0.73452 0.0
C747 C 0.13425 0.57327 0.78736 0.0
C748 C 0.11682 0.58663 0.76898 0.0
H749 H 0.05506 0.64348 0.64417 0.0
H750 H 0.06653 0.61217 0.67875 0.0
H751 H 0.07483 0.62817 0.77848 0.0
H752 H 0.19327 0.56696 0.79267 0.0
H753 H 0.16336 0.57983 0.75689 0.0
C754 C 0.95884 0.14702 0.83889 0.0
C755 C 0.95878 0.17061 0.83048 0.0
C756 C 0.95094 0.1299 0.81871 0.0
C757 C 0.91347 0.10302 0.78523 0.0
H758 H 0.91641 0.10585 0.69718 0.0
C759 C 0.8417 0.06633 0.70569 0.0
C760 C 0.84794 0.05934 0.67619 0.0
C761 C 0.85873 0.07446 0.72605 0.0
C762 C 0.91563 0.10445 0.72176 0.0
H763 H 0.95129 0.19476 0.79402 0.0
H764 H 0.93758 0.16498 0.7585 0.0
H765 H 0.94189 0.13069 0.72743 0.0
H766 H 0.87685 0.0542 0.6453 0.0
H767 H 0.90667 0.06725 0.68108 0.0
H768 H 0.88702 0.07697 0.77955 0.0
C769 C 0.94418 0.15949 0.78047 0.0
C770 C 0.9301 0.11897 0.73913 0.0
C771 C 0.95227 0.17662 0.8007 0.0
C772 C 0.87164 0.05889 0.66822 0.0
C773 C 0.88867 0.06687 0.68854 0.0
C774 C 0.899 0.0885 0.76786 0.0
C775 C 0.94231 0.13604 0.78979 0.0
C776 C 0.92896 0.11876 0.77112 0.0
C777 C 0.88233 0.07592 0.71714 0.0
C778 C 0.89957 0.08928 0.73586 0.0
H779 H 0.96319 0.14199 0.862 0.0
H780 H 0.95026 0.11201 0.82648 0.0
H781 H 0.91177 0.10253 0.80979 0.0
H782 H 0.82348 0.06765 0.712 0.0
H783 H 0.85309 0.0814 0.74776 0.0
C784 C 0.54476 0.26918 0.01447 0.0
C785 C 0.53701 0.25161 0.99458 0.0
C786 C 0.5436 0.26603 0.04614 0.0
C787 C 0.51406 0.23074 0.10575 0.0
H788 H 0.5659 0.25026 0.15636 0.0
C789 C 0.51942 0.20769 0.23444 0.0
C790 C 0.52753 0.22529 0.25403 0.0
C791 C 0.52086 0.21041 0.20271 0.0
C792 C 0.55115 0.24491 0.14263 0.0
H793 H 0.52187 0.21699 0.99248 0.0
H794 H 0.51997 0.21152 0.04734 0.0
H795 H 0.56742 0.25674 0.1015 0.0
H796 H 0.54367 0.25949 0.25551 0.0
H797 H 0.54588 0.26428 0.20065 0.0
H798 H 0.49774 0.219 0.14687 0.0
C799 C 0.52671 0.22783 0.03862 0.0
C800 C 0.55202 0.24867 0.11113 0.0
C801 C 0.52795 0.23094 0.00708 0.0
C802 C 0.53728 0.24552 0.24117 0.0
C803 C 0.53871 0.24823 0.2096 0.0
C804 C 0.51317 0.22702 0.13726 0.0
C805 C 0.53456 0.24528 0.05861 0.0
C806 C 0.53349 0.24165 0.09226 0.0
C807 C 0.53047 0.23077 0.18988 0.0
C808 C 0.53168 0.23409 0.15616 0.0
H809 H 0.55187 0.2853 0.00562 0.0
H810 H 0.5496 0.27993 0.06086 0.0
H811 H 0.49932 0.22539 0.09198 0.0
H812 H 0.51191 0.19185 0.24359 0.0
H813 H 0.5146 0.19647 0.18824 0.0
C814 C 0.25398 0.55052 0.01182 0.0
C815 C 0.24932 0.52936 0.99686 0.0
C816 C 0.25952 0.55085 0.04291 0.0
C817 C 0.28043 0.51239 0.10567 0.0
H818 H 0.25809 0.56238 0.15725 0.0
C819 C 0.30746 0.52025 0.23299 0.0
C820 C 0.28987 0.52698 0.25346 0.0
C821 C 0.30368 0.5214 0.20141 0.0
C822 C 0.26439 0.54818 0.14325 0.0
H823 H 0.24623 0.49202 0.00316 0.0
H824 H 0.25528 0.49265 0.05735 0.0
H825 H 0.24822 0.56224 0.10335 0.0
H826 H 0.25451 0.54026 0.25669 0.0
H827 H 0.24784 0.54182 0.20219 0.0
H828 H 0.2959 0.4979 0.14585 0.0
C829 C 0.25525 0.50896 0.04498 0.0
C830 C 0.25894 0.54827 0.11217 0.0
C831 C 0.24983 0.50862 0.01389 0.0
C832 C 0.26853 0.53502 0.24165 0.0
C833 C 0.26474 0.53608 0.21025 0.0
C834 C 0.2858 0.51226 0.13681 0.0
C835 C 0.26042 0.53005 0.05989 0.0
C836 C 0.26673 0.53028 0.09295 0.0
C837 C 0.28221 0.52928 0.18963 0.0
C838 C 0.27767 0.53005 0.15611 0.0
H839 H 0.25383 0.56682 0.9994 0.0
H840 H 0.26361 0.5674 0.05346 0.0
H841 H 0.28708 0.49843 0.09155 0.0
H842 H 0.32414 0.51409 0.24133 0.0
H843 H 0.31765 0.51627 0.18624 0.0
C844 C 1.00098 0.30822 0.23576 0.0
C845 C 0.99221 0.29138 0.256 0.0
C846 C 1.00015 0.30449 0.20415 0.0
C847 C 0.97107 0.26746 0.14522 0.0
H848 H 0.02376 0.28527 0.09513 0.0
C849 C 0.97068 0.25532 0.01406 0.0
C850 C 0.99176 0.24894 0.99996 0.0
C851 C 0.97015 0.26131 0.04499 0.0
C852 C 1.00896 0.27997 0.1088 0.0
H853 H 0.97565 0.25742 0.25874 0.0
H854 H 0.97464 0.2508 0.20429 0.0
H855 H 0.02389 0.29454 0.14929 0.0
H856 H 0.02868 0.24324 0.00765 0.0
H857 H 0.02765 0.253 0.06161 0.0
H858 H 0.95652 0.25209 0.1051 0.0
C859 C 0.98173 0.26712 0.21251 0.0
C860 C 1.00889 0.28563 0.13985 0.0
C861 C 0.98248 0.27088 0.24391 0.0
C862 C 0.01216 0.24817 0.01771 0.0
C863 C 0.0116 0.25402 0.04866 0.0
C864 C 0.9712 0.2617 0.11425 0.0
C865 C 0.99054 0.28383 0.19211 0.0
C866 C 0.99004 0.27923 0.15859 0.0
C867 C 0.99065 0.26093 0.0627 0.0
C868 C 0.99023 0.26768 0.09561 0.0
H869 H 1.0085 0.32425 0.24433 0.0
H870 H 1.00688 0.31787 0.18914 0.0
H871 H 0.95605 0.26255 0.15874 0.0
H872 H 0.95465 0.25621 1.00105 0.0
H873 H 0.95373 0.26677 0.05482 0.0
C874 C 0.20611 0.99909 0.23491 0.0
C875 C 0.22325 0.98982 0.25435 0.0
C876 C 0.20867 0.99767 0.20316 0.0
C877 C 0.24112 0.96572 0.14264 0.0
H878 H 0.22554 0.01925 0.09285 0.0
C879 C 0.2666 0.97202 0.01481 0.0
C880 C 0.2498 0.9814 0.99496 0.0
C881 C 0.26327 0.97284 0.04647 0.0
C882 C 0.22977 1.00404 0.10636 0.0
H883 H 0.25639 0.97156 0.25552 0.0
H884 H 0.26089 0.96934 0.20065 0.0
H885 H 0.21898 0.02068 0.1477 0.0
H886 H 0.21633 0.99899 0.99293 0.0
H887 H 0.21054 1.00026 0.04773 0.0
H888 H 0.252 0.94913 0.10131 0.0
C889 C 0.24533 0.97745 0.20973 0.0
C890 C 0.22594 1.00485 0.13785 0.0
C891 C 0.24279 0.97888 0.24131 0.0
C892 C 0.22969 0.99164 0.00749 0.0
C893 C 0.22641 0.99252 0.03901 0.0
C894 C 0.24497 0.96493 0.11116 0.0
C895 C 0.22838 0.98687 0.19017 0.0
C896 C 0.23162 0.98573 0.15644 0.0
C897 C 0.24313 0.98315 0.05896 0.0
C898 C 0.23937 0.98408 0.09259 0.0
H899 H 0.1908 1.00754 0.2442 0.0
H900 H 0.19513 1.00489 0.18878 0.0
H901 H 0.24538 0.95053 0.15615 0.0
H902 H 0.28227 0.96398 0.00592 0.0
H903 H 0.27662 0.96563 0.06117 0.0
C904 C 0.0195 0.81113 0.27194 0.0
C905 C 0.02925 0.79425 0.25258 0.0
C906 C 0.02103 0.80868 0.30371 0.0
C907 C 0.05384 0.77709 0.36433 0.0
H908 H 1.0 0.79167 0.41414 0.0
C909 C 0.04796 0.75148 0.49215 0.0
C910 C 0.03846 0.76819 0.51199 0.0
C911 C 0.04704 0.75478 0.46049 0.0
C912 C 0.01529 0.78771 0.40061 0.0
H913 H 0.04843 0.76166 0.25154 0.0
H914 H 0.05079 0.75731 0.30641 0.0
H915 H 0.99838 0.79811 0.35927 0.0
H916 H 0.02052 0.80144 0.51402 0.0
H917 H 0.01904 0.80715 0.4592 0.0
H918 H 0.07068 0.76654 0.40569 0.0
C919 C 0.04226 0.77262 0.29728 0.0
C920 C 0.01437 0.79149 0.36911 0.0
C921 C 0.04075 0.77507 0.26569 0.0
C922 C 0.02798 0.78816 0.49946 0.0
C923 C 0.02698 0.79139 0.46794 0.0
C924 C 0.05473 0.77326 0.39582 0.0
C925 C 0.03237 0.78932 0.31678 0.0
C926 C 0.03361 0.78616 0.35052 0.0
C927 C 0.03649 0.77478 0.448 0.0
C928 C 0.03546 0.77851 0.41438 0.0
H929 H 0.01062 0.82616 0.26259 0.0
H930 H 0.01344 0.82204 0.31803 0.0
H931 H 0.06913 0.77312 0.35084 0.0
H932 H 0.05618 0.73592 0.50105 0.0
H933 H 0.05436 0.74152 0.44578 0.0
C934 C 0.74329 0.03798 0.26487 0.0
C935 C 0.7242 0.02639 0.2516 0.0
C936 C 0.74579 0.03909 0.29648 0.0
C937 C 0.72749 0.01002 0.36773 0.0
H938 H 0.75184 0.06612 0.40536 0.0
C939 C 0.73135 0.02225 0.49837 0.0
C940 C 0.75132 0.03285 0.51081 0.0
C941 C 0.72794 0.02144 0.46686 0.0
C942 C 0.74528 0.05023 0.39519 0.0
H943 H 0.69251 1.00719 0.26132 0.0
H944 H 0.69674 0.00935 0.31679 0.0
H945 H 0.74501 0.06523 0.35055 0.0
H946 H 0.78345 0.0509 0.49975 0.0
H947 H 0.77754 0.04942 0.44456 0.0
H948 H 0.72771 0.99507 0.41244 0.0
C949 C 0.70997 0.0173 0.30258 0.0
C950 C 0.74132 0.04971 0.36373 0.0
C951 C 0.70746 0.01616 0.27081 0.0
C952 C 0.76789 0.04258 0.49092 0.0
C953 C 0.76441 0.04186 0.45931 0.0
C954 C 0.73139 0.01056 0.39921 0.0
C955 C 0.72924 0.02872 0.31581 0.0
C956 C 0.73248 0.02956 0.34954 0.0
C957 C 0.74437 0.03129 0.4469 0.0
C958 C 0.74041 0.03065 0.41333 0.0
H959 H 0.75657 0.04603 0.25084 0.0
H960 H 0.76104 0.04771 0.30573 0.0
H961 H 0.72103 0.99408 0.35757 0.0
H962 H 0.71819 0.01461 0.51299 0.0
H963 H 0.71218 0.01344 0.45816 0.0
C964 C 0.50037 0.70705 0.27072 0.0
C965 C 0.49081 0.72394 0.2512 0.0
C966 C 0.49916 0.70982 0.30246 0.0
C967 C 0.46744 0.74268 0.3629 0.0
H968 H 0.52105 0.72696 0.4126 0.0
C969 C 0.47428 0.76885 0.49036 0.0
C970 C 0.48313 0.7519 0.51038 0.0
C971 C 0.47522 0.76542 0.45873 0.0
C972 C 0.50583 0.73125 0.3991 0.0
H973 H 0.47234 0.75694 0.24985 0.0
H974 H 0.47056 0.76185 0.30467 0.0
H975 H 0.52229 0.72014 0.35777 0.0
H976 H 0.50003 0.71812 0.51276 0.0
H977 H 0.50158 0.71221 0.45796 0.0
H978 H 0.45106 0.75394 0.40422 0.0
C979 C 0.47868 0.74627 0.2957 0.0
C980 C 0.50652 0.72726 0.36763 0.0
C981 C 0.47985 0.7435 0.26413 0.0
C982 C 0.49308 0.73159 0.49805 0.0
C983 C 0.49411 0.72823 0.46655 0.0
C984 C 0.46678 0.74673 0.39434 0.0
C985 C 0.48834 0.72953 0.31536 0.0
C986 C 0.48736 0.73298 0.34907 0.0
C987 C 0.48514 0.74504 0.44644 0.0
C988 C 0.48598 0.74109 0.41286 0.0
H989 H 0.50883 0.69173 0.26151 0.0
H990 H 0.50655 0.69642 0.3169 0.0
H991 H 0.45219 0.74695 0.34946 0.0
H992 H 0.46647 0.78467 0.49909 0.0
H993 H 0.46834 0.77883 0.44389 0.0
C994 C 0.75088 0.50832 0.49308 0.0
C995 C 0.75125 0.48761 0.51019 0.0
C996 C 0.75665 0.50821 0.46208 0.0
C997 C 0.76304 0.46877 0.39526 0.0
H998 H 0.79664 0.52127 0.36107 0.0
C999 C 0.77165 0.48142 0.26574 0.0
C1000 C 0.79231 0.49084 0.25362 0.0
C1001 C 0.76802 0.48047 0.29716 0.0
C1002 C 0.78751 0.50632 0.37026 0.0
H1003 H 0.75783 0.45045 0.50789 0.0
H1004 H 0.76825 0.4503 0.45408 0.0
H1005 H 0.78775 0.52054 0.41537 0.0
H1006 H 0.82557 0.5064 0.26529 0.0
H1007 H 0.81941 0.5044 0.3205 0.0
H1008 H 0.76327 0.45428 0.3504 0.0
C1009 C 0.76315 0.46663 0.46443 0.0
C1010 C 0.78208 0.50606 0.4014 0.0
C1011 C 0.75725 0.46672 0.49541 0.0
C1012 C 0.80942 0.49912 0.27386 0.0
C1013 C 0.80582 0.49807 0.30551 0.0
C1014 C 0.76857 0.46899 0.36421 0.0
C1015 C 0.76308 0.4874 0.44734 0.0
C1016 C 0.76955 0.48738 0.4143 0.0
C1017 C 0.78501 0.48874 0.31757 0.0
C1018 C 0.78061 0.4879 0.35115 0.0
H1019 H 0.74626 0.52471 0.50367 0.0
H1020 H 0.7559 0.52447 0.44964 0.0
H1021 H 0.75322 0.45417 0.40416 0.0
H1022 H 0.75798 0.47498 0.25091 0.0
H1023 H 0.75159 0.47361 0.30539 0.0
C1024 C 0.49236 0.72767 0.98604 0.0
C1025 C 0.48134 0.74247 0.00707 0.0
C1026 C 0.49281 0.73329 0.95498 0.0
C1027 C 0.49168 0.7823 0.90217 0.0
H1028 H 0.47253 0.73681 0.84195 0.0
C1029 C 0.48901 0.80416 0.77259 0.0
C1030 C 0.49417 0.78607 0.75213 0.0
C1031 C 0.48659 0.79954 0.80386 0.0
C1032 C 0.47836 0.74966 0.85831 0.0
H1033 H 0.4622 0.77485 0.01195 0.0
H1034 H 0.46354 0.7849 0.9578 0.0
H1035 H 0.47046 0.72709 0.89586 0.0
H1036 H 0.50164 0.74917 0.74851 0.0
H1037 H 0.49858 0.74135 0.80257 0.0
H1038 H 0.50048 0.80461 0.86482 0.0
C1039 C 0.47165 0.76887 0.96538 0.0
C1040 C 0.477 0.74407 0.88927 0.0
C1041 C 0.47077 0.76302 0.99634 0.0
C1042 C 0.49734 0.76346 0.76361 0.0
C1043 C 0.49537 0.75893 0.79475 0.0
C1044 C 0.49347 0.78778 0.87112 0.0
C1045 C 0.48267 0.75406 0.94439 0.0
C1046 C 0.48371 0.76028 0.91153 0.0
C1047 C 0.48965 0.77679 0.81541 0.0
C1048 C 0.48698 0.77147 0.84867 0.0
H1049 H 0.50062 0.7117 0.99356 0.0
H1050 H 0.50151 0.7216 0.93929 0.0
H1051 H 0.49711 0.79508 0.91888 0.0
H1052 H 0.48633 0.82174 0.76435 0.0
H1053 H 0.48191 0.81376 0.81885 0.0
C1054 C 0.7101 0.49959 0.77439 0.0
C1055 C 0.72698 0.49114 0.75396 0.0
C1056 C 0.71374 0.49814 0.80602 0.0
C1057 C 0.75039 0.46768 0.86422 0.0
H1058 H 0.73282 0.51935 0.91609 0.0
C1059 C 0.76217 0.46442 0.99548 0.0
C1060 C 0.76882 0.48508 0.01036 0.0
C1061 C 0.75616 0.4646 0.96452 0.0
C1062 C 0.73803 0.50482 0.90193 0.0
H1063 H 0.7609 0.47452 0.75091 0.0
H1064 H 0.76733 0.47242 0.80536 0.0
H1065 H 0.72372 0.52068 0.86186 0.0
H1066 H 0.77492 0.52204 0.00398 0.0
H1067 H 0.76508 0.52226 0.95001 0.0
H1068 H 0.76546 0.45219 0.90394 0.0
C1069 C 0.75107 0.47974 0.79728 0.0
C1070 C 0.73248 0.50544 0.87082 0.0
C1071 C 0.74742 0.48112 0.76588 0.0
C1072 C 0.76977 0.50581 0.99334 0.0
C1073 C 0.76389 0.50598 0.96237 0.0
C1074 C 0.75602 0.4671 0.89525 0.0
C1075 C 0.73433 0.48821 0.81788 0.0
C1076 C 0.73881 0.48698 0.85144 0.0
C1077 C 0.75677 0.48543 0.94754 0.0
C1078 C 0.75012 0.48575 0.91455 0.0
H1079 H 0.69413 0.50733 0.76599 0.0
H1080 H 0.70034 0.50464 0.82115 0.0
H1081 H 0.75524 0.45295 0.85019 0.0
H1082 H 0.76112 0.44814 0.0079 0.0
H1083 H 0.75054 0.44846 0.95408 0.0
C1084 C 0.0282 0.70937 0.77306 0.0
C1085 C 0.02043 0.72731 0.75375 0.0
C1086 C 0.02953 0.71298 0.80469 0.0
C1087 C 1.00486 0.74759 0.86676 0.0
H1088 H 0.06406 0.73994 0.90816 0.0
C1089 C 0.0183 0.78319 0.98841 0.0
C1090 C 0.03311 0.77113 0.0084 0.0
C1091 C 0.017 0.77697 0.9576 0.0
C1092 C 0.04724 0.74179 0.89725 0.0
H1093 H 1.00736 0.76273 0.75242 0.0
H1094 H 1.00895 0.76865 0.80738 0.0
H1095 H 0.06046 0.72901 0.8546 0.0
H1096 H 0.05826 0.74306 0.01167 0.0
H1097 H 0.05533 0.73158 0.95845 0.0
H1098 H 0.99128 0.75979 0.90913 0.0
C1099 C 0.01429 0.75198 0.79817 0.0
C1100 C 0.04524 0.73555 0.86647 0.0
C1101 C 0.01349 0.7486 0.76669 0.0
C1102 C 0.04676 0.75283 0.99682 0.0
C1103 C 0.04516 0.74632 0.96614 0.0
C1104 C 1.00669 0.75342 0.89761 0.0
C1105 C 0.02253 0.73434 0.8175 0.0
C1106 C 0.02413 0.73872 0.85081 0.0
C1107 C 0.03014 0.7582 0.94602 0.0
C1108 C 0.02802 0.751 0.91328 0.0
H1109 H 0.03379 0.69285 0.76367 0.0
H1110 H 0.03591 0.69908 0.81915 0.0
H1111 H 0.9883 0.75004 0.85528 0.0
H1112 H 1.00771 0.79752 0.99654 0.0
H1113 H 1.00569 0.78704 0.94288 0.0
C1114 C 0.80904 0.02113 0.77303 0.0
C1115 C 0.79088 0.02597 0.75246 0.0
C1116 C 0.80529 0.02262 0.80457 0.0
C1117 C 0.7645 0.04747 0.86217 0.0
H1118 H 0.79049 1.00005 0.91503 0.0
C1119 C 0.75528 0.05133 0.99368 0.0
C1120 C 0.75164 0.03019 0.00919 0.0
C1121 C 0.76052 0.05148 0.96251 0.0
C1122 C 0.78294 0.01334 0.90058 0.0
H1123 H 0.75457 0.03635 0.74902 0.0
H1124 H 0.74802 0.03859 0.80354 0.0
H1125 H 0.7991 0.99923 0.86066 0.0
H1126 H 0.7501 0.99267 0.0038 0.0
H1127 H 0.75875 0.99296 0.94948 0.0
H1128 H 0.74774 0.06117 0.90187 0.0
C1129 C 0.76527 0.03401 0.79552 0.0
C1130 C 0.78816 0.01307 0.86941 0.0
C1131 C 0.76902 0.03256 0.76414 0.0
C1132 C 0.7529 0.00927 0.99264 0.0
C1133 C 0.75808 0.00942 0.96149 0.0
C1134 C 0.75925 0.04773 0.89331 0.0
C1135 C 0.7833 0.029 0.81622 0.0
C1136 C 0.77885 0.03001 0.84972 0.0
C1137 C 0.76219 0.03051 0.94603 0.0
C1138 C 0.76824 0.03057 0.91292 0.0
H1139 H 0.82612 0.01612 0.7648 0.0
H1140 H 0.81967 0.0189 0.81982 0.0
H1141 H 0.75724 0.061 0.84782 0.0
H1142 H 0.75451 0.06778 0.00572 0.0
H1143 H 0.76378 0.06804 0.9515 0.0
C1144 C 0.99609 0.21179 0.73316 0.0
C1145 C 0.99316 0.23004 0.75418 0.0
C1146 C 0.99476 0.21609 0.7017 0.0
C1147 C 1.00094 0.26385 0.64561 0.0
H1148 H 0.96787 0.22249 0.59074 0.0
C1149 C 1.00641 0.27312 0.51454 0.0
C1150 C 0.98574 0.27013 0.49772 0.0
C1151 C 1.00705 0.26818 0.54576 0.0
C1152 C 0.97706 0.23429 0.6058 0.0
H1153 H 0.98617 0.26705 0.7585 0.0
H1154 H 0.98388 0.27444 0.70409 0.0
H1155 H 0.96941 0.21351 0.64521 0.0
H1156 H 0.9494 0.25984 0.50078 0.0
H1157 H 0.95052 0.25128 0.55532 0.0
H1158 H 1.00843 0.28475 0.60641 0.0
C1159 C 0.98745 0.25686 0.71175 0.0
C1160 C 0.97816 0.229 0.63696 0.0
C1161 C 0.98862 0.25256 0.74304 0.0
C1162 C 0.96563 0.26233 0.51301 0.0
C1163 C 0.96631 0.25724 0.54424 0.0
C1164 C 0.99998 0.26905 0.6145 0.0
C1165 C 0.99066 0.23876 0.69063 0.0
C1166 C 0.99 0.2438 0.65729 0.0
C1167 C 0.98706 0.26001 0.56098 0.0
C1168 C 0.98797 0.25439 0.59417 0.0
H1169 H 0.99952 0.19423 0.74098 0.0
H1170 H 0.99742 0.20177 0.68603 0.0
H1171 H 0.01043 0.27551 0.66054 0.0
H1172 H 0.02224 0.27904 0.50354 0.0
H1173 H 0.02338 0.2703 0.55785 0.0
C1174 C 0.2348 0.9988 0.51778 0.0
C1175 C 0.24712 0.98429 0.4977 0.0
C1176 C 0.24097 1.00004 0.54861 0.0
C1177 C 0.27648 0.97014 0.60894 0.0
H1178 H 0.26764 0.02888 0.65091 0.0
C1179 C 0.30859 0.98939 0.73327 0.0
C1180 C 0.29064 0.99728 0.75248 0.0
C1181 C 0.30498 0.98789 0.70165 0.0
C1182 C 0.27025 0.01238 0.63945 0.0
H1183 H 0.27556 0.95957 0.49433 0.0
H1184 H 0.28692 0.96236 0.54765 0.0
H1185 H 0.25797 0.02587 0.59704 0.0
H1186 H 0.25516 0.01033 0.75364 0.0
H1187 H 0.24923 1.00841 0.69872 0.0
H1188 H 0.28933 0.95701 0.65162 0.0
C1189 C 0.27205 0.97237 0.53997 0.0
C1190 C 0.26447 0.01052 0.60857 0.0
C1191 C 0.2656 0.97083 0.50924 0.0
C1192 C 0.26931 1.00411 0.73946 0.0
C1193 C 0.26592 1.00312 0.70799 0.0
C1194 C 0.28266 0.97215 0.63975 0.0
C1195 C 0.25993 0.98712 0.56015 0.0
C1196 C 0.2671 0.98926 0.5929 0.0
C1197 C 0.2836 0.99483 0.68874 0.0
C1198 C 0.27925 0.99319 0.65541 0.0
H1199 H 0.22033 0.00923 0.50969 0.0
H1200 H 0.23072 0.01112 0.56339 0.0
H1201 H 0.27852 0.95337 0.598 0.0
H1202 H 0.32515 0.98388 0.74271 0.0
H1203 H 0.31891 0.98147 0.68727 0.0
C1204 C 0.51869 0.30823 0.73306 0.0
C1205 C 0.5258 0.29102 0.7539 0.0
C1206 C 0.51931 0.30387 0.70155 0.0
C1207 C 0.51823 0.25522 0.64661 0.0
H1208 H 0.5439 0.29945 0.58888 0.0
C1209 C 0.51091 0.24262 0.51608 0.0
C1210 C 0.53092 0.2473 0.4986 0.0
C1211 C 0.51017 0.2483 0.54708 0.0
C1212 C 0.53675 0.28689 0.60475 0.0
H1213 H 0.53942 0.25586 0.75781 0.0
H1214 H 0.54031 0.24834 0.70341 0.0
H1215 H 0.54261 0.30931 0.64318 0.0
H1216 H 0.56598 0.2615 0.50022 0.0
H1217 H 0.56464 0.27145 0.55436 0.0
H1218 H 0.51249 0.23273 0.60843 0.0
C1219 C 0.53413 0.26512 0.71126 0.0
C1220 C 0.5358 0.29264 0.63579 0.0
C1221 C 0.53374 0.26954 0.74252 0.0
C1222 C 0.55028 0.25762 0.51299 0.0
C1223 C 0.54946 0.2635 0.54397 0.0
C1224 C 0.51896 0.24958 0.61563 0.0
C1225 C 0.52678 0.28212 0.69035 0.0
C1226 C 0.52673 0.27677 0.65712 0.0
C1227 C 0.52936 0.25898 0.56137 0.0
C1228 C 0.52837 0.26525 0.59432 0.0
H1229 H 0.51256 0.32499 0.74107 0.0
H1230 H 0.51349 0.3173 0.68599 0.0
H1231 H 0.51094 0.24268 0.66241 0.0
H1232 H 0.49566 0.23473 0.50576 0.0
H1233 H 0.49436 0.24472 0.55975 0.0
C1234 C 0.21073 0.52082 0.73287 0.0
C1235 C 0.22835 0.52698 0.75365 0.0
C1236 C 0.21468 0.5223 0.70136 0.0
C1237 C 0.25462 0.5491 0.64402 0.0
H1238 H 0.23159 0.50004 0.59138 0.0
C1239 C 0.26521 0.55237 0.51254 0.0
C1240 C 0.26976 0.53128 0.49737 0.0
C1241 C 0.25971 0.55255 0.54365 0.0
C1242 C 0.23833 0.51381 0.60576 0.0
H1243 H 0.26391 0.53964 0.75748 0.0
H1244 H 0.27085 0.54182 0.70305 0.0
H1245 H 0.22251 0.49913 0.64559 0.0
H1246 H 0.27275 0.4939 0.50335 0.0
H1247 H 0.26373 0.49426 0.55753 0.0
H1248 H 0.27109 0.56336 0.60443 0.0
C1249 C 0.25383 0.53624 0.71086 0.0
C1250 C 0.23282 0.51346 0.63685 0.0
C1251 C 0.24987 0.53483 0.7422 0.0
C1252 C 0.26923 0.51046 0.51423 0.0
C1253 C 0.26383 0.51064 0.54531 0.0
C1254 C 0.26019 0.54941 0.61297 0.0
C1255 C 0.23634 0.52996 0.68994 0.0
C1256 C 0.24106 0.53099 0.65648 0.0
C1257 C 0.25871 0.53165 0.56042 0.0
C1258 C 0.25229 0.53167 0.59343 0.0
H1259 H 0.19391 0.51482 0.74093 0.0
H1260 H 0.2007 0.51757 0.68596 0.0
H1261 H 0.26102 0.56309 0.6583 0.0
H1262 H 0.26538 0.56874 0.50026 0.0
H1263 H 0.25569 0.56905 0.55437 0.0
C1264 C 0.61555 0.20863 0.41288 0.0
C1265 C 0.59161 0.20681 0.41893 0.0
C1266 C 0.63191 0.20352 0.4355 0.0
C1267 C 0.64032 0.18817 0.51732 0.0
H1268 H 0.68389 0.14322 0.48403 0.0
C1269 C 0.68808 0.12094 0.59279 0.0
C1270 C 0.71076 0.11385 0.5849 0.0
C1271 C 0.6753 0.13573 0.57378 0.0
C1272 C 0.67224 0.15604 0.49378 0.0
H1273 H 0.56584 0.19974 0.45366 0.0
H1274 H 0.59438 0.19099 0.49349 0.0
H1275 H 0.65892 0.16523 0.44996 0.0
H1276 H 0.73817 0.11778 0.55119 0.0
H1277 H 0.71598 0.14371 0.51813 0.0
H1278 H 0.65347 0.17863 0.56127 0.0
C1279 C 0.60063 0.19667 0.47142 0.0
C1280 C 0.65786 0.16874 0.47417 0.0
C1281 C 0.58423 0.2019 0.44871 0.0
C1282 C 0.72054 0.12235 0.55769 0.0
C1283 C 0.7078 0.13732 0.53873 0.0
C1284 C 0.65485 0.17554 0.53701 0.0
C1285 C 0.62462 0.19614 0.46453 0.0
C1286 C 0.6415 0.18475 0.48565 0.0
C1287 C 0.68492 0.14409 0.54642 0.0
C1288 C 0.67076 0.15901 0.52552 0.0
H1289 H 0.62161 0.21212 0.38994 0.0
H1290 H 0.65026 0.20379 0.42962 0.0
H1291 H 0.62802 0.20046 0.5269 0.0
H1292 H 0.67994 0.11469 0.61351 0.0
H1293 H 0.65764 0.14015 0.58028 0.0
C1294 C 0.31628 0.58519 0.44483 0.0
C1295 C 0.31 0.59253 0.4155 0.0
C1296 C 0.32117 0.6016 0.46758 0.0
C1297 C 0.32956 0.64011 0.51423 0.0
H1298 H 0.36636 0.69039 0.47995 0.0
C1299 C 0.37663 0.70837 0.58997 0.0
C1300 C 0.39935 0.71479 0.58118 0.0
C1301 C 0.36244 0.69515 0.57062 0.0
C1302 C 0.35622 0.67643 0.48996 0.0
H1303 H 0.30187 0.62233 0.38738 0.0
H1304 H 0.30917 0.651 0.42735 0.0
H1305 H 0.34544 0.6642 0.4463 0.0
H1306 H 0.42505 0.71165 0.54504 0.0
H1307 H 0.40041 0.68871 0.51149 0.0
H1308 H 0.34148 0.65177 0.55792 0.0
C1309 C 0.31105 0.6327 0.43277 0.0
C1310 C 0.34382 0.66158 0.47064 0.0
C1311 C 0.30649 0.61631 0.40999 0.0
C1312 C 0.40748 0.70767 0.55241 0.0
C1313 C 0.3933 0.6944 0.5331 0.0
C1314 C 0.34206 0.65498 0.53362 0.0
C1315 C 0.31982 0.62563 0.46128 0.0
C1316 C 0.33057 0.64298 0.48242 0.0
C1317 C 0.37062 0.68787 0.54198 0.0
C1318 C 0.35589 0.67309 0.52167 0.0
H1319 H 0.3197 0.56695 0.44932 0.0
H1320 H 0.32795 0.59542 0.48913 0.0
H1321 H 0.31943 0.62612 0.52417 0.0
H1322 H 0.36975 0.71359 0.61191 0.0
H1323 H 0.34499 0.69071 0.57809 0.0
C1324 C 0.82486 0.38611 0.59492 0.0
C1325 C 0.80302 0.3949 0.58604 0.0
C1326 C 0.83803 0.37235 0.57505 0.0
C1327 C 0.84398 0.3585 0.49283 0.0
H1328 H 0.88553 0.31025 0.52255 0.0
C1329 C 0.90083 0.30904 0.40894 0.0
C1330 C 0.92466 0.30997 0.41597 0.0
C1331 C 0.88413 0.31333 0.43141 0.0
C1332 C 0.87396 0.32363 0.51395 0.0
H1333 H 0.7773 0.39502 0.54978 0.0
H1334 H 0.79999 0.37071 0.51533 0.0
H1335 H 0.85952 0.33025 0.5581 0.0
H1336 H 0.94986 0.31499 0.45204 0.0
H1337 H 0.9207 0.32205 0.49163 0.0
H1338 H 0.85849 0.35205 0.44883 0.0
C1339 C 0.80738 0.37506 0.53731 0.0
C1340 C 0.85913 0.33522 0.53431 0.0
C1341 C 0.79433 0.38906 0.55707 0.0
C1342 C 0.93155 0.31334 0.44632 0.0
C1343 C 0.91482 0.31765 0.46889 0.0
C1344 C 0.85858 0.34678 0.47253 0.0
C1345 C 0.82955 0.36672 0.54587 0.0
C1346 C 0.84417 0.35307 0.52408 0.0
C1347 C 0.891 0.31892 0.46128 0.0
C1348 C 0.87394 0.32939 0.48284 0.0
H1349 H 0.83207 0.39032 0.61706 0.0
H1350 H 0.85513 0.36665 0.58236 0.0
H1351 H 0.83315 0.37242 0.48408 0.0
H1352 H 0.89517 0.30678 0.38557 0.0
H1353 H 0.8659 0.31379 0.42494 0.0
C1354 C 0.20722 0.90138 0.41516 0.0
C1355 C 0.20794 0.92563 0.4189 0.0
C1356 C 0.20233 0.88683 0.4399 0.0
C1357 C 0.16882 0.89067 0.51102 0.0
H1358 H 0.18549 0.8255 0.51872 0.0
C1359 C 0.12603 0.83162 0.60111 0.0
C1360 C 0.11806 0.80977 0.59098 0.0
C1361 C 0.1406 0.84526 0.58287 0.0
C1362 C 0.18062 0.84366 0.51676 0.0
H1363 H 0.20473 0.95368 0.45137 0.0
H1364 H 0.19787 0.92839 0.49511 0.0
H1365 H 0.20719 0.85048 0.48358 0.0
H1366 H 0.12039 0.78467 0.55405 0.0
H1367 H 0.14546 0.80874 0.52201 0.0
H1368 H 0.14207 0.88384 0.54372 0.0
C1369 C 0.2008 0.92049 0.47304 0.0
C1370 C 0.19308 0.858 0.49668 0.0
C1371 C 0.20545 0.93502 0.44817 0.0
C1372 C 0.12563 0.80163 0.56238 0.0
C1373 C 0.14034 0.81528 0.54416 0.0
C1374 C 0.15652 0.87641 0.53117 0.0
C1375 C 0.19791 0.89631 0.4689 0.0
C1376 C 0.18709 0.88164 0.49316 0.0
C1377 C 0.14776 0.83738 0.55407 0.0
C1378 C 0.16201 0.85266 0.53396 0.0
H1379 H 0.20855 0.8938 0.39262 0.0
H1380 H 0.20008 0.8684 0.43562 0.0
H1381 H 0.16323 0.90858 0.5085 0.0
H1382 H 0.12069 0.83845 0.62302 0.0
H1383 H 0.14623 0.86206 0.59136 0.0
C1384 C 0.21607 0.89456 0.94441 0.0
C1385 C 0.20791 0.90212 0.9158 0.0
C1386 C 0.20247 0.87976 0.96256 0.0
C1387 C 0.14128 0.86301 0.97504 0.0
H1388 H 0.16759 0.81299 0.02342 0.0
C1389 C 0.08269 0.81362 0.05762 0.0
C1390 C 0.09187 0.81164 0.08708 0.0
C1391 C 0.09738 0.81833 0.03292 0.0
C1392 C 0.15996 0.8269 0.01008 0.0
H1393 H 0.17926 0.89931 0.88365 0.0
H1394 H 0.15579 0.87355 0.91513 0.0
H1395 H 0.19255 0.8348 0.98837 0.0
H1396 H 0.1235 0.81191 0.11391 0.0
H1397 H 0.14917 0.82043 0.07116 0.0
H1398 H 0.109 0.85595 0.99734 0.0
C1399 C 0.17254 0.8793 0.92371 0.0
C1400 C 0.17429 0.83943 0.99006 0.0
C1401 C 0.18611 0.89399 0.90558 0.0
C1402 C 0.1161 0.81289 0.09122 0.0
C1403 C 0.13079 0.81778 0.06664 0.0
C1404 C 0.12703 0.85061 0.9951 0.0
C1405 C 0.18041 0.87219 0.95256 0.0
C1406 C 0.16516 0.85783 0.97259 0.0
C1407 C 0.12149 0.82171 0.03741 0.0
C1408 C 0.1362 0.83258 0.01322 0.0
H1409 H 0.23299 0.8999 0.95283 0.0
H1410 H 0.20901 0.87468 0.98474 0.0
H1411 H 0.13373 0.87729 0.96229 0.0
H1412 H 0.06402 0.81387 0.0541 0.0
H1413 H 0.08963 0.82089 0.01067 0.0
C1414 C 0.71251 0.11468 0.09483 0.0
C1415 C 0.70922 0.09102 0.0883 0.0
C1416 C 0.70836 0.13154 0.07252 0.0
C1417 C 0.69191 0.14097 0.99083 0.0
H1418 H 0.65286 0.1892 0.02581 0.0
C1419 C 0.64651 0.21173 0.91717 0.0
C1420 C 0.62323 0.21704 0.92465 0.0
C1421 C 0.66017 0.19786 0.93638 0.0
C1422 C 0.66366 0.17584 0.01562 0.0
H1423 H 0.70058 0.06611 0.05315 0.0
H1424 H 0.69311 0.09545 0.01406 0.0
H1425 H 0.67331 0.16235 0.05911 0.0
H1426 H 0.59601 0.21112 0.95825 0.0
H1427 H 0.6198 0.18723 0.99164 0.0
H1428 H 0.68124 0.15397 0.9472 0.0
C1429 C 0.69931 0.10115 0.03614 0.0
C1430 C 0.67575 0.16061 0.03476 0.0
C1431 C 0.70374 0.08427 0.05845 0.0
C1432 C 0.614 0.20809 0.95197 0.0
C1433 C 0.62767 0.19424 0.97117 0.0
C1434 C 0.67977 0.15626 0.97162 0.0
C1435 C 0.70031 0.12504 0.04343 0.0
C1436 C 0.68981 0.14276 0.02267 0.0
C1437 C 0.65091 0.18888 0.96359 0.0
C1438 C 0.66517 0.17363 0.98381 0.0
H1439 H 0.71653 0.12022 0.11784 0.0
H1440 H 0.70993 0.14973 0.07871 0.0
H1441 H 0.70265 0.12753 0.98072 0.0
H1442 H 0.65426 0.21833 0.89639 0.0
H1443 H 0.67805 0.19429 0.92999 0.0
C1444 C 0.40093 0.70925 0.09633 0.0
C1445 C 0.42475 0.70744 0.08957 0.0
C1446 C 0.38419 0.70486 0.0739 0.0
C1447 C 0.37443 0.69261 0.99162 0.0
H1448 H 0.33192 0.64575 0.02279 0.0
C1449 C 0.3263 0.62817 0.91256 0.0
C1450 C 0.30403 0.6201 0.92078 0.0
C1451 C 0.33914 0.64239 0.93224 0.0
C1452 C 0.34324 0.65913 0.01365 0.0
H1453 H 0.44989 0.70051 0.05407 0.0
H1454 H 0.42077 0.69342 0.01451 0.0
H1455 H 0.35715 0.66667 0.05773 0.0
H1456 H 0.27728 0.6217 0.95566 0.0
H1457 H 0.29949 0.64677 0.98983 0.0
H1458 H 0.36065 0.68484 0.94742 0.0
C1459 C 0.41491 0.69863 0.03695 0.0
C1460 C 0.35777 0.67118 0.03378 0.0
C1461 C 0.43165 0.70301 0.05948 0.0
C1462 C 0.29463 0.62708 0.94891 0.0
C1463 C 0.30739 0.64153 0.96851 0.0
C1464 C 0.3597 0.68069 0.97145 0.0
C1465 C 0.39102 0.6983 0.04435 0.0
C1466 C 0.37379 0.68781 0.023 0.0
C1467 C 0.32993 0.64922 0.96056 0.0
C1468 C 0.34419 0.66346 0.98214 0.0
H1469 H 0.39525 0.71227 0.11954 0.0
H1470 H 0.36593 0.7051 0.08019 0.0
H1471 H 0.38649 0.70541 0.98264 0.0
H1472 H 0.33408 0.62307 0.89108 0.0
H1473 H 0.35656 0.64754 0.92547 0.0
C1474 C 0.81653 0.43238 0.06126 0.0
C1475 C 0.81234 0.42502 0.09123 0.0
C1476 C 0.82177 0.41605 0.03852 0.0
C1477 C 0.85087 0.35943 0.03509 0.0
H1478 H 0.83919 0.36353 0.94832 0.0
C1479 C 0.89658 0.29743 0.9503 0.0
C1480 C 0.90456 0.30733 0.92289 0.0
C1481 C 0.88173 0.30996 0.96964 0.0
C1482 C 0.84277 0.36224 0.97248 0.0
H1483 H 0.80841 0.39507 0.12064 0.0
H1484 H 0.81675 0.36651 0.08091 0.0
H1485 H 0.81754 0.38859 0.98335 0.0
H1486 H 0.90285 0.33808 0.89427 0.0
H1487 H 0.87756 0.36001 0.92816 0.0
H1488 H 0.87666 0.33386 0.02445 0.0
C1489 C 0.81644 0.3848 0.0749 0.0
C1490 C 0.83026 0.37655 0.99255 0.0
C1491 C 0.81134 0.4011 0.09755 0.0
C1492 C 0.89702 0.32988 0.91515 0.0
C1493 C 0.88233 0.34243 0.93454 0.0
C1494 C 0.86343 0.34527 0.01509 0.0
C1495 C 0.82303 0.39214 0.04556 0.0
C1496 C 0.83433 0.37547 0.0241 0.0
C1497 C 0.87454 0.33271 0.96213 0.0
C1498 C 0.8598 0.34665 0.98347 0.0
H1499 H 0.81812 0.45076 0.05609 0.0
H1500 H 0.82685 0.42234 0.01622 0.0
H1501 H 0.85489 0.35847 0.05917 0.0
H1502 H 0.90146 0.27988 0.95668 0.0
H1503 H 0.87575 0.3017 0.9904 0.0
C1504 C 0.4047 0.81173 0.59044 0.0
C1505 C 0.42897 0.81128 0.58654 0.0
C1506 C 0.38997 0.8163 0.5658 0.0
C1507 C 0.39268 0.84865 0.49338 0.0
H1508 H 0.32733 0.83158 0.48875 0.0
C1509 C 0.33021 0.88827 0.40387 0.0
C1510 C 0.30884 0.89667 0.4151 0.0
C1511 C 0.34475 0.87458 0.42212 0.0
C1512 C 0.34554 0.83654 0.48982 0.0
H1513 H 0.45689 0.81446 0.55375 0.0
H1514 H 0.43122 0.82087 0.51016 0.0
H1515 H 0.3532 0.81064 0.52348 0.0
H1516 H 0.28558 0.89632 0.45412 0.0
H1517 H 0.31107 0.87249 0.48603 0.0
H1518 H 0.38495 0.87462 0.45985 0.0
C1519 C 0.42346 0.81806 0.53234 0.0
C1520 C 0.3604 0.82454 0.50972 0.0
C1521 C 0.43821 0.8137 0.55715 0.0
C1522 C 0.30212 0.89059 0.4449 0.0
C1523 C 0.31658 0.87665 0.46306 0.0
C1524 C 0.37789 0.86044 0.47328 0.0
C1525 C 0.39922 0.82062 0.53663 0.0
C1526 C 0.38409 0.83076 0.51227 0.0
C1527 C 0.33814 0.86865 0.45194 0.0
C1528 C 0.35407 0.85485 0.47171 0.0
H1529 H 0.39721 0.81035 0.61303 0.0
H1530 H 0.37151 0.81831 0.57027 0.0
H1531 H 0.41062 0.85438 0.49503 0.0
H1532 H 0.3359 0.89256 0.38101 0.0
H1533 H 0.36116 0.86852 0.41281 0.0
C1534 C 0.62577 0.3005 0.4482 0.0
C1535 C 0.62027 0.30693 0.41809 0.0
C1536 C 0.63962 0.31498 0.46645 0.0
C1537 C 0.65677 0.37613 0.47564 0.0
H1538 H 0.70517 0.35134 0.52811 0.0
C1539 C 0.70365 0.43682 0.55892 0.0
C1540 C 0.70527 0.42811 0.58867 0.0
C1541 C 0.69931 0.42172 0.53449 0.0
C1542 C 0.69167 0.35857 0.51368 0.0
H1543 H 0.62534 0.33351 0.38358 0.0
H1544 H 0.64925 0.35877 0.4155 0.0
H1545 H 0.68432 0.32536 0.49343 0.0
H1546 H 0.70465 0.39696 0.61631 0.0
H1547 H 0.69676 0.37066 0.57416 0.0
H1548 H 0.66316 0.40905 0.49661 0.0
C1549 C 0.64279 0.34258 0.42499 0.0
C1550 C 0.67971 0.34365 0.49384 0.0
C1551 C 0.62917 0.32804 0.40667 0.0
C1552 C 0.70394 0.404 0.59342 0.0
C1553 C 0.69941 0.38893 0.56915 0.0
C1554 C 0.66853 0.39099 0.49565 0.0
C1555 C 0.64814 0.33627 0.45511 0.0
C1556 C 0.6619 0.35222 0.47491 0.0
C1557 C 0.69597 0.39769 0.53953 0.0
C1558 C 0.68591 0.38238 0.51533 0.0
H1559 H 0.61965 0.28417 0.4576 0.0
H1560 H 0.64332 0.3097 0.48965 0.0
H1561 H 0.64297 0.38324 0.46157 0.0
H1562 H 0.70359 0.45542 0.55486 0.0
H1563 H 0.69717 0.42909 0.51195 0.0
C1564 C 0.22144 0.62816 0.44952 0.0
C1565 C 0.21219 0.62086 0.42143 0.0
C1566 C 0.20848 0.64263 0.46885 0.0
C1567 C 0.15577 0.68138 0.47083 0.0
H1568 H 0.15944 0.66963 0.55761 0.0
C1569 C 0.08559 0.70674 0.56052 0.0
C1570 C 0.09337 0.71172 0.59013 0.0
C1571 C 0.1017 0.70166 0.53741 0.0
C1572 C 0.15849 0.67349 0.53348 0.0
H1573 H 0.18212 0.62315 0.39164 0.0
H1574 H 0.15929 0.64759 0.4256 0.0
H1575 H 0.1842 0.64781 0.52311 0.0
H1576 H 0.12377 0.71728 0.61836 0.0
H1577 H 0.15188 0.70904 0.57801 0.0
H1578 H 0.12913 0.70639 0.4815 0.0
C1579 C 0.17675 0.64273 0.43252 0.0
C1580 C 0.17276 0.66093 0.5136 0.0
C1581 C 0.1898 0.62852 0.41308 0.0
C1582 C 0.11739 0.71377 0.59557 0.0
C1583 C 0.13345 0.70873 0.57258 0.0
C1584 C 0.14128 0.6938 0.49077 0.0
C1585 C 0.18586 0.65 0.46073 0.0
C1586 C 0.1715 0.6645 0.48194 0.0
C1587 C 0.12577 0.70129 0.54375 0.0
C1588 C 0.14239 0.6899 0.52234 0.0
H1589 H 0.23886 0.62309 0.45638 0.0
H1590 H 0.21633 0.64821 0.49007 0.0
H1591 H 0.15455 0.68496 0.44667 0.0
H1592 H 0.06718 0.70429 0.55603 0.0
H1593 H 0.0952 0.69592 0.51548 0.0
C1594 C 0.88692 0.18889 0.406 0.0
C1595 C 0.8953 0.21016 0.41753 0.0
C1596 C 0.87332 0.17414 0.42408 0.0
C1597 C 0.8348 0.17267 0.49104 0.0
H1598 H 0.85302 0.1078 0.49624 0.0
C1599 C 0.80825 0.11293 0.59022 0.0
C1600 C 0.80869 0.08868 0.58641 0.0
C1601 C 0.81295 0.12776 0.56574 0.0
C1602 C 0.84716 0.12567 0.49456 0.0
H1603 H 0.89518 0.23297 0.45695 0.0
H1604 H 0.87134 0.20714 0.48856 0.0
H1605 H 0.87369 0.13377 0.4619 0.0
H1606 H 0.81332 0.0609 0.55377 0.0
H1607 H 0.81983 0.08668 0.51038 0.0
H1608 H 0.80823 0.16465 0.52366 0.0
C1609 C 0.87549 0.20188 0.46549 0.0
C1610 C 0.85923 0.14064 0.47498 0.0
C1611 C 0.88939 0.21653 0.44751 0.0
C1612 C 0.8119 0.07952 0.55711 0.0
C1613 C 0.81635 0.09437 0.53243 0.0
C1614 C 0.82248 0.15762 0.51035 0.0
C1615 C 0.86743 0.18045 0.45401 0.0
C1616 C 0.8535 0.16439 0.47343 0.0
C1617 C 0.81825 0.11864 0.53679 0.0
C1618 C 0.8288 0.13398 0.51291 0.0
H1619 H 0.8911 0.18347 0.38301 0.0
H1620 H 0.86725 0.15783 0.41453 0.0
H1621 H 0.82974 0.19083 0.48994 0.0
H1622 H 0.80625 0.12039 0.61276 0.0
H1623 H 0.81438 0.14623 0.57031 0.0
C1624 C 0.81349 0.11464 0.05594 0.0
C1625 C 0.80512 0.12333 0.08387 0.0
C1626 C 0.82738 0.1285 0.03699 0.0
C1627 C 0.86673 0.1795 0.03762 0.0
H1628 H 0.85798 0.17644 0.95017 0.0
C1629 C 0.90559 0.21563 0.91455 0.0
C1630 C 0.92931 0.211 0.91927 0.0
C1631 C 0.88935 0.21131 0.93761 0.0
C1632 C 0.86047 0.17791 0.97455 0.0
H1633 H 0.80503 0.15363 0.11348 0.0
H1634 H 0.82922 0.17766 0.0804 0.0
H1635 H 0.83149 0.15546 0.9835 0.0
H1636 H 0.95502 0.19976 0.95215 0.0
H1637 H 0.92678 0.19212 0.99256 0.0
H1638 H 0.89593 0.20184 0.02849 0.0
C1639 C 0.8251 0.16006 0.07331 0.0
C1640 C 0.84545 0.16553 0.99366 0.0
C1641 C 0.81114 0.14625 0.09223 0.0
C1642 C 0.93686 0.20404 0.94827 0.0
C1643 C 0.92059 0.19948 0.97133 0.0
C1644 C 0.88186 0.19188 0.01843 0.0
C1645 C 0.83342 0.15136 0.04546 0.0
C1646 C 0.84858 0.16585 0.0254 0.0
C1647 C 0.89651 0.20177 0.96563 0.0
C1648 C 0.87908 0.19103 0.9866 0.0
H1649 H 0.80995 0.09694 0.04888 0.0
H1650 H 0.83386 0.12106 0.01595 0.0
H1651 H 0.86971 0.18004 0.06197 0.0
H1652 H 0.89938 0.22077 0.89221 0.0
H1653 H 0.87101 0.21385 0.9327 0.0
C1654 C 0.37089 0.8108 0.09363 0.0
C1655 C 0.39381 0.80465 0.08533 0.0
C1656 C 0.35714 0.82472 0.07458 0.0
C1657 C 0.35188 0.84442 0.9946 0.0
H1658 H 0.31492 0.89474 0.02838 0.0
C1659 C 0.31211 0.93477 0.94743 0.0
C1660 C 0.30542 0.92683 0.9185 0.0
C1661 C 0.31691 0.91882 0.97079 0.0
C1662 C 0.32507 0.88072 0.01861 0.0
H1663 H 0.42033 0.80938 0.05044 0.0
H1664 H 0.39633 0.83323 0.01731 0.0
H1665 H 0.33688 0.86908 0.06243 0.0
H1666 H 0.2963 0.8965 0.89189 0.0
H1667 H 0.30357 0.8687 0.93289 0.0
H1668 H 0.34101 0.85642 0.95085 0.0
C1669 C 0.38882 0.82684 0.03836 0.0
C1670 C 0.33754 0.8659 0.03812 0.0
C1671 C 0.40261 0.81299 0.05743 0.0
C1672 C 0.30123 0.90301 0.91416 0.0
C1673 C 0.30577 0.8871 0.93751 0.0
C1674 C 0.33942 0.85912 0.97517 0.0
C1675 C 0.36591 0.83289 0.04667 0.0
C1676 C 0.3514 0.8478 0.02629 0.0
C1677 C 0.31509 0.89469 0.96548 0.0
C1678 C 0.32605 0.87766 0.98683 0.0
H1679 H 0.36345 0.80474 0.11488 0.0
H1680 H 0.33951 0.82887 0.08157 0.0
H1681 H 0.36211 0.83048 0.98472 0.0
H1682 H 0.31605 0.95303 0.95104 0.0
H1683 H 0.32408 0.92534 0.99196 0.0
C1684 C 0.71836 0.3902 0.05954 0.0
C1685 C 0.71236 0.39498 0.08999 0.0
C1686 C 0.70367 0.37666 0.04118 0.0
C1687 C 0.64245 0.35947 0.03282 0.0
H1688 H 0.6667 0.31227 0.97823 0.0
C1689 C 0.58082 0.31446 0.94888 0.0
C1690 C 0.58927 0.31347 0.91896 0.0
C1691 C 0.59617 0.31829 0.97322 0.0
C1692 C 0.65962 0.32544 0.99325 0.0
H1693 H 0.68637 0.38895 0.12503 0.0
H1694 H 0.66072 0.3656 0.0929 0.0
H1695 H 0.69311 0.33242 0.01309 0.0
H1696 H 0.62022 0.31459 0.89089 0.0
H1697 H 0.64694 0.32163 0.93288 0.0
H1698 H 0.60926 0.3535 0.01225 0.0
C1699 C 0.67673 0.37237 0.08324 0.0
C1700 C 0.67479 0.33699 0.0132 0.0
C1701 C 0.6915 0.38568 0.10166 0.0
C1702 C 0.61337 0.31487 0.9139 0.0
C1703 C 0.62869 0.31889 0.93808 0.0
C1704 C 0.62735 0.34814 0.01269 0.0
C1705 C 0.6826 0.36775 0.05277 0.0
C1706 C 0.66641 0.35437 0.03289 0.0
C1707 C 0.62019 0.32171 0.96793 0.0
C1708 C 0.63576 0.33122 0.99223 0.0
H1709 H 0.73451 0.39666 0.04994 0.0
H1710 H 0.7086 0.37352 0.01772 0.0
H1711 H 0.6355 0.37295 0.0475 0.0
H1712 H 0.56224 0.31445 0.95322 0.0
H1713 H 0.589 0.31997 0.99594 0.0
C1714 C 0.13096 0.72244 0.05711 0.0
C1715 C 0.1248 0.71384 0.08599 0.0
C1716 C 0.14484 0.70917 0.03745 0.0
C1717 C 0.18362 0.65657 0.03456 0.0
H1718 H 0.1676 0.65826 0.94883 0.0
C1719 C 0.20441 0.58457 0.94545 0.0
C1720 C 0.20829 0.59177 0.91532 0.0
C1721 C 0.20039 0.60109 0.96836 0.0
C1722 C 0.17264 0.65786 0.97262 0.0
H1723 H 0.12868 0.68474 0.11701 0.0
H1724 H 0.1521 0.66128 0.08245 0.0
H1725 H 0.14744 0.68372 0.98409 0.0
H1726 H 0.21283 0.62154 0.88575 0.0
H1727 H 0.2063 0.65041 0.92572 0.0
H1728 H 0.2081 0.6297 0.02284 0.0
C1729 C 0.14676 0.67847 0.07512 0.0
C1730 C 0.16105 0.67254 0.99294 0.0
C1731 C 0.13315 0.69187 0.09491 0.0
C1732 C 0.21012 0.61563 0.90894 0.0
C1733 C 0.20612 0.63211 0.93173 0.0
C1734 C 0.19507 0.64164 0.01419 0.0
C1735 C 0.15271 0.68686 0.04601 0.0
C1736 C 0.1662 0.67202 0.02426 0.0
C1737 C 0.19993 0.62501 0.9613 0.0
C1738 C 0.18961 0.64206 0.98298 0.0
H1739 H 0.12533 0.73956 0.0498 0.0
H1740 H 0.14946 0.71651 0.01554 0.0
H1741 H 0.18838 0.6559 0.05842 0.0
H1742 H 0.20211 0.56628 0.95068 0.0
H1743 H 0.19555 0.59506 0.99087 0.0
C1744 C 0.43248 0.13844 0.33886 0.0
C1745 C 0.43697 0.1526 0.36428 0.0
C1746 C 0.41115 0.12647 0.33633 0.0
C1747 C 0.36526 0.10338 0.38742 0.0
H1748 H 0.33316 0.08709 0.31267 0.0
C1749 C 0.29797 0.02917 0.38419 0.0
C1750 C 0.2774 0.03223 0.36715 0.0
C1751 C 0.31633 0.04511 0.38209 0.0
C1752 C 0.3418 0.09165 0.33378 0.0
H1753 H 0.42242 0.16655 0.40588 0.0
H1754 H 0.38505 0.14667 0.40095 0.0
H1755 H 0.3663 0.11407 0.31107 0.0
H1756 H 0.26031 0.05462 0.33416 0.0
H1757 H 0.29244 0.08263 0.33068 0.0
H1758 H 0.3409 0.08124 0.41023 0.0
C1759 C 0.39802 0.14414 0.38333 0.0
C1760 C 0.36095 0.10695 0.33283 0.0
C1761 C 0.41931 0.15581 0.38598 0.0
C1762 C 0.27583 0.05169 0.34771 0.0
C1763 C 0.29433 0.06769 0.34554 0.0
C1764 C 0.34626 0.08814 0.38836 0.0
C1765 C 0.39398 0.12851 0.35919 0.0
C1766 C 0.37298 0.11298 0.35968 0.0
C1767 C 0.31477 0.06467 0.36289 0.0
C1768 C 0.33437 0.08186 0.36157 0.0
H1769 H 0.44601 0.13536 0.32212 0.0
H1770 H 0.40874 0.11453 0.31749 0.0
H1771 H 0.37423 0.10721 0.40855 0.0
H1772 H 0.29997 0.01437 0.39928 0.0
H1773 H 0.33192 0.04195 0.39539 0.0
C1774 C 0.36175 0.42011 0.38153 0.0
C1775 C 0.36674 0.4379 0.36062 0.0
C1776 C 0.37318 0.39862 0.37976 0.0
C1777 C 0.41272 0.36166 0.33216 0.0
H1778 H 0.4333 0.33934 0.41111 0.0
C1779 C 0.46629 0.27593 0.34796 0.0
C1780 C 0.48475 0.27671 0.36913 0.0
C1781 C 0.45042 0.29448 0.34557 0.0
C1782 C 0.42782 0.34534 0.38883 0.0
H1783 H 0.38717 0.44716 0.32106 0.0
H1784 H 0.40737 0.40959 0.31786 0.0
H1785 H 0.40787 0.37306 0.40811 0.0
H1786 H 0.50079 0.29783 0.40441 0.0
H1787 H 0.47336 0.32993 0.40018 0.0
H1788 H 0.43341 0.33417 0.31297 0.0
C1789 C 0.39424 0.41197 0.3353 0.0
C1790 C 0.4129 0.36456 0.3871 0.0
C1791 C 0.38261 0.43348 0.33699 0.0
C1792 C 0.48681 0.29648 0.38789 0.0
C1793 C 0.47094 0.31491 0.38559 0.0
C1794 C 0.42766 0.34231 0.33391 0.0
C1795 C 0.39027 0.39453 0.35735 0.0
C1796 C 0.40521 0.37314 0.35876 0.0
C1797 C 0.4525 0.31421 0.36443 0.0
C1798 C 0.43563 0.33405 0.36229 0.0
H1799 H 0.34983 0.42325 0.40023 0.0
H1800 H 0.36926 0.38551 0.39675 0.0
H1801 H 0.40708 0.36763 0.30995 0.0
H1802 H 0.46413 0.26104 0.33308 0.0
H1803 H 0.43634 0.29322 0.3292 0.0
C1804 C 0.24148 0.46557 0.34979 0.0
C1805 C 0.24095 0.48506 0.36928 0.0
C1806 C 0.22236 0.45025 0.34808 0.0
C1807 C 0.16928 0.43275 0.39153 0.0
H1808 H 0.14676 0.4087 0.31434 0.0
C1809 C 0.07733 0.39634 0.38168 0.0
C1810 C 0.07431 0.37425 0.36838 0.0
C1811 C 0.09827 0.40848 0.37865 0.0
C1812 C 0.15301 0.41509 0.33608 0.0
H1813 H 0.21956 0.50359 0.40212 0.0
H1814 H 0.18658 0.47737 0.39891 0.0
H1815 H 0.18265 0.43207 0.3159 0.0
H1816 H 0.09083 0.3482 0.33989 0.0
H1817 H 0.1277 0.3698 0.3342 0.0
H1818 H 0.13955 0.41636 0.41166 0.0
C1819 C 0.20184 0.47354 0.38527 0.0
C1820 C 0.1736 0.42844 0.33702 0.0
C1821 C 0.22082 0.48875 0.38697 0.0
C1822 C 0.09245 0.36524 0.35024 0.0
C1823 C 0.11361 0.37756 0.34711 0.0
C1824 C 0.14878 0.41962 0.39055 0.0
C1825 C 0.20228 0.454 0.36593 0.0
C1826 C 0.18172 0.4379 0.36473 0.0
C1827 C 0.11697 0.39897 0.3622 0.0
C1828 C 0.14006 0.41104 0.36278 0.0
H1829 H 0.25663 0.46217 0.33575 0.0
H1830 H 0.22341 0.43533 0.33307 0.0
H1831 H 0.17527 0.43909 0.41341 0.0
H1832 H 0.06366 0.404 0.39546 0.0
H1833 H 0.10004 0.42517 0.38994 0.0
C1834 C 0.02502 0.21693 0.38488 0.0
C1835 C 0.03011 0.23773 0.36928 0.0
C1836 C 0.03987 0.19769 0.38293 0.0
C1837 C 0.08729 0.17093 0.33696 0.0
H1838 H 0.0951 0.13376 0.40999 0.0
C1839 C 0.15021 0.08987 0.35029 0.0
C1840 C 0.14061 0.07103 0.36659 0.0
C1841 C 0.13776 0.11092 0.34741 0.0
C1842 C 0.09301 0.14385 0.3893 0.0
H1843 H 0.05503 0.25433 0.33908 0.0
H1844 H 0.08121 0.2207 0.336 0.0
H1845 H 0.07228 0.16934 0.41209 0.0
H1846 H 0.10976 0.05904 0.39051 0.0
H1847 H 0.08831 0.09524 0.38533 0.0
H1848 H 0.10834 0.14513 0.31437 0.0
C1849 C 0.0655 0.2193 0.34955 0.0
C1850 C 0.07984 0.16428 0.39048 0.0
C1851 C 0.05054 0.23865 0.35148 0.0
C1852 C 0.11786 0.07326 0.37819 0.0
C1853 C 0.10556 0.0941 0.37536 0.0
C1854 C 0.10068 0.15041 0.33583 0.0
C1855 C 0.06042 0.19858 0.36543 0.0
C1856 C 0.07629 0.17788 0.36422 0.0
C1857 C 0.11559 0.11347 0.36088 0.0
C1858 C 0.10322 0.13635 0.36188 0.0
H1859 H 0.00941 0.21537 0.39863 0.0
H1860 H 0.03503 0.18195 0.39497 0.0
H1861 H 0.08492 0.1809 0.31625 0.0
H1862 H 0.16776 0.08884 0.34132 0.0
H1863 H 0.14594 0.12554 0.33603 0.0
C1864 C 0.77807 0.96577 0.15701 0.0
C1865 C 0.78096 0.98695 0.14125 0.0
C1866 C 0.79681 0.9503 0.16059 0.0
C1867 C 0.86151 0.94706 0.1588 0.0
H1868 H 0.85158 0.88146 0.14239 0.0
C1869 C 0.93683 0.87924 0.16582 0.0
C1870 C 0.9387 0.86526 0.13965 0.0
C1871 C 0.91666 0.89266 0.17087 0.0
C1872 C 0.85463 0.89971 0.14723 0.0
H1873 H 0.80612 1.00841 0.11721 0.0
H1874 H 0.83864 0.98153 0.12351 0.0
H1875 H 0.81855 0.90829 0.14114 0.0
H1876 H 0.92062 0.85353 0.09912 0.0
H1877 H 0.88552 0.8763 0.1082 0.0
H1878 H 0.89772 0.93854 0.16407 0.0
C1879 C 0.82191 0.97693 0.13326 0.0
C1880 C 0.83566 0.91508 0.14669 0.0
C1881 C 0.80315 0.99229 0.12944 0.0
C1882 C 0.91964 0.86408 0.11956 0.0
C1883 C 0.89947 0.87709 0.12482 0.0
C1884 C 0.88046 0.93164 0.15962 0.0
C1885 C 0.81899 0.95569 0.1488 0.0
C1886 C 0.8389 0.93904 0.15187 0.0
C1887 C 0.89788 0.892 0.15012 0.0
C1888 C 0.87734 0.90783 0.15324 0.0
H1889 H 0.76128 0.96105 0.16647 0.0
H1890 H 0.79397 0.93417 0.17285 0.0
H1891 H 0.86461 0.96536 0.16326 0.0
H1892 H 0.95136 0.88073 0.18148 0.0
H1893 H 0.91594 0.90389 0.19066 0.0
C1894 C 0.55021 0.77861 0.15674 0.0
C1895 C 0.53001 0.77946 0.13848 0.0
C1896 C 0.56527 0.79791 0.15866 0.0
C1897 C 0.58088 0.85188 0.11649 0.0
H1898 H 0.60809 0.87261 0.19275 0.0
C1899 C 0.6212 0.94223 0.1252 0.0
C1900 C 0.64343 0.9444 0.13842 0.0
C1901 C 0.6082 0.92185 0.12854 0.0
C1902 C 0.6008 0.86688 0.17125 0.0
H1903 H 0.5098 0.80165 0.10834 0.0
H1904 H 0.53566 0.83493 0.11187 0.0
H1905 H 0.58421 0.83708 0.19154 0.0
H1906 H 0.66892 0.92708 0.16699 0.0
H1907 H 0.64593 0.89115 0.17303 0.0
H1908 H 0.59709 0.88158 0.09617 0.0
C1909 C 0.5402 0.8193 0.12434 0.0
C1910 C 0.58715 0.84651 0.17052 0.0
C1911 C 0.52522 0.80014 0.12246 0.0
C1912 C 0.65176 0.92606 0.15674 0.0
C1913 C 0.63864 0.90545 0.16007 0.0
C1914 C 0.59437 0.87213 0.11725 0.0
C1915 C 0.56054 0.81846 0.14225 0.0
C1916 C 0.57662 0.83901 0.14318 0.0
C1917 C 0.61704 0.90285 0.14508 0.0
C1918 C 0.60413 0.88022 0.14469 0.0
H1919 H 0.55445 0.76303 0.16949 0.0
H1920 H 0.58083 0.79658 0.17255 0.0
H1921 H 0.57367 0.84635 0.09486 0.0
H1922 H 0.61412 0.9561 0.11124 0.0
H1923 H 0.59138 0.92074 0.11738 0.0
C1924 C 0.71826 0.5247 0.12316 0.0
C1925 C 0.73884 0.52943 0.1395 0.0
C1926 C 0.69905 0.53963 0.12489 0.0
C1927 C 0.67177 0.58667 0.17106 0.0
H1928 H 0.63601 0.59577 0.09705 0.0
C1929 C 0.59162 0.65071 0.15676 0.0
C1930 C 0.573 0.6417 0.13945 0.0
C1931 C 0.61248 0.63792 0.16001 0.0
C1932 C 0.64568 0.59332 0.11802 0.0
H1933 H 0.75507 0.55378 0.1708 0.0
H1934 H 0.7215 0.5801 0.1735 0.0
H1935 H 0.67137 0.57256 0.09561 0.0
H1936 H 0.56112 0.61154 0.11406 0.0
H1937 H 0.59693 0.5895 0.11991 0.0
H1938 H 0.64578 0.60775 0.19327 0.0
C1939 C 0.72024 0.5646 0.15953 0.0
C1940 C 0.666 0.57991 0.11722 0.0
C1941 C 0.73956 0.54957 0.15783 0.0
C1942 C 0.57519 0.61918 0.12718 0.0
C1943 C 0.59582 0.60655 0.13038 0.0
C1944 C 0.65137 0.60029 0.17182 0.0
C1945 C 0.69975 0.5599 0.14289 0.0
C1946 C 0.67911 0.57591 0.1438 0.0
C1947 C 0.61503 0.616 0.14591 0.0
C1948 C 0.6378 0.60332 0.14539 0.0
H1949 H 0.71686 0.50933 0.10897 0.0
H1950 H 0.68348 0.53508 0.11224 0.0
H1951 H 0.68136 0.58396 0.19202 0.0
H1952 H 0.59062 0.66807 0.16628 0.0
H1953 H 0.62696 0.64566 0.1722 0.0
C1954 C 0.99443 0.71633 0.12548 0.0
C1955 C 0.98947 0.73715 0.14108 0.0
C1956 C 0.97962 0.69708 0.12774 0.0
C1957 C 0.93254 0.67021 0.17413 0.0
H1958 H 0.92332 0.63407 0.10052 0.0
C1959 C 0.86803 0.59049 0.16049 0.0
C1960 C 0.87676 0.57188 0.14301 0.0
C1961 C 0.8811 0.61114 0.16379 0.0
C1962 C 0.92583 0.64383 0.12139 0.0
H1963 H 0.9649 0.75373 0.17175 0.0
H1964 H 0.93878 0.72004 0.1754 0.0
H1965 H 0.94659 0.66937 0.09866 0.0
H1966 H 0.90669 0.5597 0.11741 0.0
H1967 H 0.92931 0.59516 0.12347 0.0
H1968 H 0.91146 0.64437 0.19666 0.0
C1969 C 0.95436 0.71866 0.16158 0.0
C1970 C 0.93925 0.66412 0.12034 0.0
C1971 C 0.96928 0.73803 0.15934 0.0
C1972 C 0.89931 0.57379 0.13071 0.0
C1973 C 0.91225 0.59421 0.13401 0.0
C1974 C 0.91893 0.64982 0.17515 0.0
C1975 C 0.95924 0.69798 0.14556 0.0
C1976 C 0.94326 0.67737 0.14677 0.0
C1977 C 0.90303 0.61347 0.1496 0.0
C1978 C 0.91586 0.63612 0.14887 0.0
H1979 H 0.00987 0.7148 0.11141 0.0
H1980 H 0.98429 0.68135 0.11559 0.0
H1981 H 0.93527 0.67994 0.19497 0.0
H1982 H 0.85063 0.58966 0.17001 0.0
H1983 H 0.87353 0.62566 0.17601 0.0
C1984 C 0.74607 0.96289 0.66509 0.0
C1985 C 0.74703 0.97714 0.63901 0.0
C1986 C 0.72773 0.94697 0.66913 0.0
C1987 C 0.68162 0.91445 0.62814 0.0
H1988 H 0.6478 0.91682 0.70458 0.0
C1989 C 0.59931 0.85793 0.64927 0.0
C1990 C 0.57988 0.87122 0.65807 0.0
C1991 C 0.62185 0.86748 0.65076 0.0
C1992 C 0.65718 0.9158 0.68321 0.0
H1993 H 0.72981 0.98514 0.59627 0.0
H1994 H 0.69819 0.95717 0.60307 0.0
H1995 H 0.68341 0.93986 0.69826 0.0
H1996 H 0.56878 0.90434 0.6765 0.0
H1997 H 0.60801 0.92067 0.6802 0.0
H1998 H 0.6551 0.89082 0.61283 0.0
C1999 C 0.71154 0.95837 0.62047 0.0
C2000 C 0.67765 0.9289 0.67964 0.0
C2001 C 0.72962 0.97451 0.61666 0.0
C2002 C 0.58351 0.89361 0.67004 0.0
C2003 C 0.60599 0.90296 0.67209 0.0
C2004 C 0.66135 0.90109 0.63187 0.0
C2005 C 0.71015 0.94464 0.64694 0.0
C2006 C 0.68984 0.92879 0.65182 0.0
C2007 C 0.62537 0.89034 0.66153 0.0
C2008 C 0.6486 0.90198 0.65922 0.0
H2009 H 0.7591 0.96451 0.68284 0.0
H2010 H 0.72723 0.93656 0.6897 0.0
H2011 H 0.69069 0.91385 0.60651 0.0
H2012 H 0.59692 0.84081 0.63938 0.0
H2013 H 0.63645 0.8573 0.64257 0.0
C2014 C 0.62212 0.5785 0.6319 0.0
C2015 C 0.64466 0.57554 0.64392 0.0
C2016 C 0.61043 0.59967 0.63469 0.0
C2017 C 0.6058 0.6556 0.67423 0.0
H2018 H 0.58182 0.67619 0.59608 0.0
C2019 C 0.55619 0.74408 0.65675 0.0
C2020 C 0.5365 0.74303 0.63758 0.0
C2021 C 0.57145 0.72498 0.6592 0.0
C2022 C 0.58818 0.67069 0.61817 0.0
H2023 H 0.67201 0.5923 0.67006 0.0
H2024 H 0.65119 0.62962 0.67536 0.0
H2025 H 0.60386 0.64016 0.59931 0.0
H2026 H 0.51748 0.72071 0.60628 0.0
H2027 H 0.54359 0.68785 0.6107 0.0
H2028 H 0.58942 0.68601 0.69316 0.0
C2029 C 0.64274 0.61532 0.66365 0.0
C2030 C 0.6009 0.65002 0.62 0.0
C2031 C 0.65459 0.59392 0.66077 0.0
C2032 C 0.53252 0.72242 0.62102 0.0
C2033 C 0.54766 0.70348 0.62345 0.0
C2034 C 0.59281 0.67636 0.67244 0.0
C2035 C 0.62088 0.61862 0.6496 0.0
C2036 C 0.60941 0.6419 0.64809 0.0
C2037 C 0.5674 0.70444 0.64244 0.0
C2038 C 0.58335 0.68386 0.64444 0.0
H2039 H 0.61382 0.56464 0.61911 0.0
H2040 H 0.59341 0.60147 0.62421 0.0
H2041 H 0.61218 0.6498 0.69618 0.0
H2042 H 0.55977 0.7596 0.66998 0.0
H2043 H 0.58653 0.7264 0.67395 0.0
C2044 C 0.94632 0.61405 0.63857 0.0
C2045 C 0.94866 0.63771 0.64633 0.0
C2046 C 0.9249 0.60274 0.64097 0.0
C2047 C 0.8669 0.60172 0.67478 0.0
H2048 H 0.85036 0.57069 0.59929 0.0
C2049 C 0.77889 0.55151 0.65746 0.0
C2050 C 0.78017 0.53064 0.64067 0.0
C2051 C 0.79827 0.56643 0.65952 0.0
C2052 C 0.85473 0.57899 0.6207 0.0
H2053 H 0.93026 0.66764 0.66454 0.0
H2054 H 0.89255 0.64746 0.66933 0.0
H2055 H 0.88634 0.59293 0.60235 0.0
H2056 H 0.80317 0.50902 0.61343 0.0
H2057 H 0.83668 0.5345 0.61749 0.0
H2058 H 0.83552 0.58706 0.69342 0.0
C2059 C 0.90756 0.63787 0.66119 0.0
C2060 C 0.87534 0.59187 0.62237 0.0
C2061 C 0.92919 0.64937 0.65859 0.0
C2062 C 0.80134 0.52501 0.62631 0.0
C2063 C 0.82063 0.53978 0.62848 0.0
C2064 C 0.84625 0.58854 0.67322 0.0
C2065 C 0.9051 0.61466 0.65136 0.0
C2066 C 0.88194 0.60299 0.64955 0.0
C2067 C 0.81939 0.56082 0.64486 0.0
C2068 C 0.84016 0.57658 0.64629 0.0
H2069 H 0.96097 0.60438 0.62947 0.0
H2070 H 0.92366 0.58472 0.63381 0.0
H2071 H 0.87157 0.61012 0.69602 0.0
H2072 H 0.76288 0.55642 0.66886 0.0
H2073 H 0.79658 0.58252 0.67218 0.0
C2074 C 0.96612 0.77386 0.66387 0.0
C2075 C 0.98043 0.77269 0.63786 0.0
C2076 C 0.95027 0.79225 0.66764 0.0
C2077 C 0.91775 0.83792 0.62623 0.0
H2078 H 0.9211 0.87279 0.70178 0.0
C2079 C 0.86128 0.92027 0.64744 0.0
C2080 C 0.87477 0.93984 0.65509 0.0
C2081 C 0.87096 0.89782 0.64898 0.0
C2082 C 0.9198 0.8631 0.68067 0.0
H2083 H 0.98862 0.78954 0.59495 0.0
H2084 H 0.96066 0.82123 0.60124 0.0
H2085 H 0.94394 0.83705 0.69593 0.0
H2086 H 0.90843 0.95132 0.67157 0.0
H2087 H 0.925 0.91225 0.67541 0.0
H2088 H 0.89397 0.86423 0.61074 0.0
C2089 C 0.9618 0.80802 0.6188 0.0
C2090 C 0.93279 0.84258 0.67737 0.0
C2091 C 0.97792 0.78991 0.61528 0.0
C2092 C 0.89757 0.93648 0.66594 0.0
C2093 C 0.90705 0.9141 0.66809 0.0
C2094 C 0.90446 0.85824 0.62971 0.0
C2095 C 0.94804 0.80963 0.64523 0.0
C2096 C 0.93232 0.83002 0.64986 0.0
C2097 C 0.89414 0.89455 0.65874 0.0
C2098 C 0.90571 0.87134 0.65674 0.0
H2099 H 0.9677 0.76099 0.68179 0.0
H2100 H 0.93983 0.79295 0.68818 0.0
H2101 H 0.9169 0.82856 0.60483 0.0
H2102 H 0.84381 0.92243 0.63846 0.0
H2103 H 0.86056 0.88307 0.6417 0.0
C2104 C 0.2293 0.04249 0.89091 0.0
C2105 C 0.24632 0.03947 0.86817 0.0
C2106 C 0.21124 0.05865 0.88716 0.0
C2107 C 0.17633 0.08679 0.82809 0.0
H2108 H 0.15483 0.12624 0.89408 0.0
C2109 C 0.08219 0.12156 0.83934 0.0
C2110 C 0.07866 0.14436 0.85 0.0
C2111 C 0.10466 0.11226 0.8372 0.0
C2112 C 0.16078 0.11558 0.87527 0.0
H2113 H 0.25777 0.05138 0.82373 0.0
H2114 H 0.2259 0.07934 0.81697 0.0
H2115 H 0.19067 0.10358 0.90017 0.0
H2116 H 0.09591 0.17549 0.86627 0.0
H2117 H 0.13544 0.15905 0.86302 0.0
H2118 H 0.14592 0.09807 0.80367 0.0
C2119 C 0.22671 0.06926 0.83781 0.0
C2120 C 0.1812 0.10244 0.87887 0.0
C2121 C 0.24505 0.05336 0.84179 0.0
C2122 C 0.09818 0.15802 0.85745 0.0
C2123 C 0.12074 0.14852 0.85591 0.0
C2124 C 0.15572 0.09966 0.82468 0.0
C2125 C 0.20948 0.07196 0.86036 0.0
C2126 C 0.18905 0.08763 0.85549 0.0
C2127 C 0.12417 0.12534 0.84635 0.0
C2128 C 0.14751 0.11396 0.84838 0.0
H2129 H 0.22974 0.03213 0.91152 0.0
H2130 H 0.19816 0.06014 0.90485 0.0
H2131 H 0.18181 0.07545 0.80973 0.0
H2132 H 0.0674 0.11057 0.83385 0.0
H2133 H 0.10663 0.09431 0.83005 0.0
C2134 C 0.40497 0.0718 0.86449 0.0
C2135 C 0.38102 0.06965 0.85813 0.0
C2136 C 0.41623 0.09324 0.86217 0.0
C2137 C 0.41593 0.15205 0.83078 0.0
H2138 H 0.44976 0.16668 0.9049 0.0
C2139 C 0.46602 0.23993 0.84938 0.0
C2140 C 0.48743 0.23846 0.865 0.0
C2141 C 0.45129 0.22043 0.84709 0.0
C2142 C 0.44068 0.16285 0.88386 0.0
H2143 H 0.35044 0.08839 0.84245 0.0
H2144 H 0.37049 0.12616 0.83782 0.0
H2145 H 0.42757 0.13072 0.90161 0.0
H2146 H 0.51031 0.21497 0.88967 0.0
H2147 H 0.48514 0.18126 0.8852 0.0
H2148 H 0.42971 0.18399 0.81271 0.0
C2149 C 0.38037 0.11099 0.84479 0.0
C2150 C 0.42783 0.14224 0.88206 0.0
C2151 C 0.36893 0.08934 0.84729 0.0
C2152 C 0.49386 0.21695 0.87781 0.0
C2153 C 0.47928 0.19754 0.87539 0.0
C2154 C 0.42907 0.17271 0.83246 0.0
C2155 C 0.40395 0.11325 0.85329 0.0
C2156 C 0.41567 0.13634 0.85535 0.0
C2157 C 0.45765 0.19899 0.86031 0.0
C2158 C 0.44203 0.17813 0.85885 0.0
H2159 H 0.41495 0.05698 0.87247 0.0
H2160 H 0.43452 0.09433 0.86827 0.0
H2161 H 0.40671 0.14793 0.80992 0.0
H2162 H 0.4605 0.2562 0.83919 0.0
H2163 H 0.43474 0.22228 0.83545 0.0
C2164 C 0.29767 0.48925 0.87951 0.0
C2165 C 0.27593 0.48386 0.86637 0.0
C2166 C 0.31704 0.47496 0.87473 0.0
C2167 C 0.33594 0.41584 0.85447 0.0
H2168 H 0.39447 0.44694 0.83692 0.0
C2169 C 0.42377 0.36506 0.84319 0.0
C2170 C 0.44222 0.37501 0.85986 0.0
C2171 C 0.40308 0.37769 0.83815 0.0
C2172 C 0.37832 0.43792 0.8419 0.0
H2173 H 0.25755 0.45859 0.8385 0.0
H2174 H 0.29154 0.43335 0.83057 0.0
H2175 H 0.35876 0.46965 0.84084 0.0
H2176 H 0.45382 0.40627 0.883 0.0
H2177 H 0.4183 0.42809 0.8742 0.0
H2178 H 0.35575 0.38416 0.8566 0.0
C2179 C 0.29345 0.44883 0.84444 0.0
C2180 C 0.35782 0.45098 0.84416 0.0
C2181 C 0.274 0.46332 0.84897 0.0
C2182 C 0.43997 0.3981 0.87002 0.0
C2183 C 0.41956 0.4107 0.86481 0.0
C2184 C 0.35657 0.40273 0.85241 0.0
C2185 C 0.3153 0.45473 0.85687 0.0
C2186 C 0.33647 0.44022 0.85125 0.0
C2187 C 0.40061 0.40059 0.84936 0.0
C2188 C 0.37814 0.41371 0.84691 0.0
H2189 H 0.29994 0.50483 0.89312 0.0
H2190 H 0.33349 0.47981 0.88511 0.0
H2191 H 0.31978 0.40703 0.85999 0.0
H2192 H 0.42485 0.34719 0.83542 0.0
H2193 H 0.38889 0.36941 0.82598 0.0
C2194 C 0.04432 0.2883 0.89223 0.0
C2195 C 0.04141 0.2713 0.86945 0.0
C2196 C 0.06049 0.30638 0.8886 0.0
C2197 C 0.08898 0.34117 0.82965 0.0
H2198 H 0.12818 0.36282 0.8959 0.0
C2199 C 0.12407 0.43515 0.84075 0.0
C2200 C 0.14682 0.43862 0.8517 0.0
C2201 C 0.11469 0.41272 0.83855 0.0
C2202 C 0.11759 0.35683 0.87702 0.0
H2203 H 0.05359 0.25988 0.82513 0.0
H2204 H 0.08156 0.29175 0.8186 0.0
H2205 H 0.10537 0.32708 0.90198 0.0
H2206 H 0.17781 0.42139 0.86849 0.0
H2207 H 0.16125 0.38193 0.86512 0.0
H2208 H 0.10049 0.37143 0.80515 0.0
C2209 C 0.07136 0.29094 0.83935 0.0
C2210 C 0.10436 0.33647 0.88061 0.0
C2211 C 0.05544 0.2726 0.84319 0.0
C2212 C 0.16038 0.41912 0.8594 0.0
C2213 C 0.15081 0.39662 0.85779 0.0
C2214 C 0.10193 0.36172 0.82624 0.0
C2215 C 0.07394 0.30816 0.8619 0.0
C2216 C 0.08964 0.32857 0.85713 0.0
C2217 C 0.12766 0.39323 0.84796 0.0
C2218 C 0.11615 0.36997 0.85004 0.0
H2219 H 0.03385 0.28784 0.91276 0.0
H2220 H 0.06189 0.31946 0.90629 0.0
H2221 H 0.0777 0.33565 0.8112 0.0
H2222 H 0.11315 0.44994 0.83513 0.0
H2223 H 0.09676 0.41078 0.83119 0.0
loop_
_geom_bond_atom_site_label_1
_geom_bond_atom_site_label_2
_geom_bond_distance
_geom_bond_site_symmetry_2
_ccdc_geom_bond_type
Zn0 N4 2.020 . S
Zn0 O8 2.019 . S
Zn0 N10 2.119 . S
Zn0 O18 1.975 . S
C1 N2 1.334 . S
C1 N5 1.336 . S
N2 C1 1.334 . S
N2 C3 1.334 . S
C3 N2 1.334 . S
C3 N4 1.336 . S
N4 Zn0 2.020 . S
N4 C3 1.336 . S
N4 N5 1.354 . S
N5 C1 1.336 . S
N5 N4 1.354 . S
N5 Zn9 2.020 . S
C6 O7 1.244 . S
C6 O30 1.257 . S
O7 C6 1.244 . S
O8 Zn0 2.019 . S
O8 C28 1.257 . S
Zn9 N5 2.020 . S
Zn9 O16 1.975 . S
Zn9 N25 2.119 . S
Zn9 O30 2.019 . S
N10 Zn0 2.119 . S
N10 C12 1.334 . S
N10 C13 1.328 . S
C11 C12 1.391 . S
C11 N14 1.329 . S
C11 H32 0.930 . S
C12 N10 1.334 . S
C12 C11 1.391 . S
C12 H19 0.930 . S
C13 N10 1.328 . S
C13 C15 1.392 . S
C13 H20 0.930 . S
N14 C11 1.329 . S
N14 C15 1.331 . S
C15 C13 1.392 . S
C15 N14 1.331 . S
O16 Zn9 1.975 . S
O16 C17 1.252 . S
C17 O16 1.252 . S
C17 O18 1.252 . S
O18 Zn0 1.975 . S
O18 C17 1.252 . S
H19 C12 0.930 . S
H20 C13 0.930 . S
C21 C22 1.392 . S
C21 N25 1.328 . S
C21 H27 0.930 . S
C22 C21 1.392 . S
C22 N26 1.331 . S
C23 C24 1.391 . S
C23 N26 1.329 . S
C23 H33 0.930 . S
C24 C23 1.391 . S
C24 N25 1.334 . S
C24 H31 0.930 . S
N25 Zn9 2.119 . S
N25 C21 1.328 . S
N25 C24 1.334 . S
N26 C22 1.331 . S
N26 C23 1.329 . S
H27 C21 0.930 . S
C28 O8 1.257 . S
C28 O29 1.244 . S
O29 C28 1.244 . S
O30 C6 1.257 . S
O30 Zn9 2.019 . S
H31 C24 0.930 . S
H32 C11 0.930 . S
H33 C23 0.930 . S
Zn34 N38 2.020 . S
Zn34 O42 2.019 . S
Zn34 N44 2.119 . S
Zn34 O52 1.975 . S
C35 N36 1.334 . S
C35 N39 1.336 . S
N36 C35 1.334 . S
N36 C37 1.334 . S
C37 N36 1.334 . S
C37 N38 1.336 . S
N38 Zn34 2.020 . S
N38 C37 1.336 . S
N38 N39 1.354 . S
N39 C35 1.336 . S
N39 N38 1.354 . S
N39 Zn43 2.020 . S
C40 O41 1.244 . S
C40 O64 1.257 . S
O41 C40 1.244 . S
O42 Zn34 2.019 . S
O42 C62 1.257 . S
Zn43 N39 2.020 . S
Zn43 O50 1.975 . S
Zn43 N59 2.119 . S
Zn43 O64 2.019 . S
N44 Zn34 2.119 . S
N44 C46 1.334 . S
N44 C47 1.328 . S
C45 C46 1.391 . S
C45 N48 1.329 . S
C45 H66 0.930 . S
C46 N44 1.334 . S
C46 C45 1.391 . S
C46 H53 0.930 . S
C47 N44 1.328 . S
C47 C49 1.392 . S
C47 H54 0.930 . S
N48 C45 1.329 . S
N48 C49 1.331 . S
C49 C47 1.392 . S
C49 N48 1.331 . S
O50 Zn43 1.975 . S
O50 C51 1.252 . S
C51 O50 1.252 . S
C51 O52 1.252 . S
O52 Zn34 1.975 . S
O52 C51 1.252 . S
H53 C46 0.930 . S
H54 C47 0.930 . S
C55 C56 1.392 . S
C55 N59 1.328 . S
C55 H61 0.930 . S
C56 C55 1.392 . S
C56 N60 1.331 . S
C57 C58 1.391 . S
C57 N60 1.329 . S
C57 H67 0.930 . S
C58 C57 1.391 . S
C58 N59 1.334 . S
C58 H65 0.930 . S
N59 Zn43 2.119 . S
N59 C55 1.328 . S
N59 C58 1.334 . S
N60 C56 1.331 . S
N60 C57 1.329 . S
H61 C55 0.930 . S
C62 O42 1.257 . S
C62 O63 1.244 . S
O63 C62 1.244 . S
O64 C40 1.257 . S
O64 Zn43 2.019 . S
H65 C58 0.930 . S
H66 C45 0.930 . S
H67 C57 0.930 . S
Zn68 N72 2.020 . S
Zn68 O76 2.019 . S
Zn68 N78 2.119 . S
Zn68 O86 1.975 1_655 S
C69 N70 1.334 . S
C69 N73 1.336 . S
N70 C69 1.334 . S
N70 C71 1.334 . S
C71 N70 1.334 . S
C71 N72 1.336 . S
N72 Zn68 2.020 . S
N72 C71 1.336 . S
N72 N73 1.354 . S
N73 C69 1.336 . S
N73 N72 1.354 . S
N73 Zn77 2.020 . S
C74 O75 1.244 . S
C74 O98 1.257 1_655 S
O75 C74 1.244 . S
O76 Zn68 2.019 . S
O76 C96 1.257 . S
Zn77 N73 2.020 . S
Zn77 O84 1.975 1_655 S
Zn77 N93 2.119 1_655 S
Zn77 O98 2.019 1_655 S
N78 Zn68 2.119 . S
N78 C80 1.334 . S
N78 C81 1.328 . S
C79 C80 1.391 . S
C79 N82 1.329 . S
C79 H100 0.930 . S
C80 N78 1.334 . S
C80 C79 1.391 . S
C80 H87 0.930 . S
C81 N78 1.328 . S
C81 C83 1.392 . S
C81 H88 0.930 . S
N82 C79 1.329 . S
N82 C83 1.331 . S
C83 C81 1.392 . S
C83 N82 1.331 . S
O84 Zn77 1.975 1_455 S
O84 C85 1.252 . S
C85 O84 1.252 . S
C85 O86 1.252 . S
O86 Zn68 1.975 1_455 S
O86 C85 1.252 . S
H87 C80 0.930 . S
H88 C81 0.930 . S
C89 C90 1.392 . S
C89 N93 1.328 . S
C89 H95 0.930 . S
C90 C89 1.392 . S
C90 N94 1.331 . S
C91 C92 1.391 . S
C91 N94 1.329 . S
C91 H101 0.930 . S
C92 C91 1.391 . S
C92 N93 1.334 . S
C92 H99 0.930 . S
N93 Zn77 2.119 1_455 S
N93 C89 1.328 . S
N93 C92 1.334 . S
N94 C90 1.331 . S
N94 C91 1.329 . S
H95 C89 0.930 . S
C96 O76 1.257 . S
C96 O97 1.244 . S
O97 C96 1.244 . S
O98 C74 1.257 1_455 S
O98 Zn77 2.019 1_455 S
H99 C92 0.930 . S
H100 C79 0.930 . S
H101 C91 0.930 . S
Zn102 N106 2.020 . S
Zn102 O110 2.019 . S
Zn102 N112 2.119 . S
Zn102 O120 1.975 1_565 S
C103 N104 1.334 . S
C103 N107 1.336 . S
N104 C103 1.334 . S
N104 C105 1.334 . S
C105 N104 1.334 . S
C105 N106 1.336 . S
N106 Zn102 2.020 . S
N106 C105 1.336 . S
N106 N107 1.354 . S
N107 C103 1.336 . S
N107 N106 1.354 . S
N107 Zn111 2.020 . S
C108 O109 1.244 . S
C108 O132 1.257 1_565 S
O109 C108 1.244 . S
O110 Zn102 2.019 . S
O110 C130 1.257 . S
Zn111 N107 2.020 . S
Zn111 O118 1.975 1_565 S
Zn111 N127 2.119 1_565 S
Zn111 O132 2.019 1_565 S
N112 Zn102 2.119 . S
N112 C114 1.334 . S
N112 C115 1.328 . S
C113 C114 1.391 . S
C113 N116 1.329 . S
C113 H134 0.930 . S
C114 N112 1.334 . S
C114 C113 1.391 . S
C114 H121 0.930 . S
C115 N112 1.328 . S
C115 C117 1.392 . S
C115 H122 0.930 . S
N116 C113 1.329 . S
N116 C117 1.331 . S
C117 C115 1.392 . S
C117 N116 1.331 . S
O118 Zn111 1.975 1_545 S
O118 C119 1.252 . S
C119 O118 1.252 . S
C119 O120 1.252 . S
O120 Zn102 1.975 1_545 S
O120 C119 1.252 . S
H121 C114 0.930 . S
H122 C115 0.930 . S
C123 C124 1.392 . S
C123 N127 1.328 . S
C123 H129 0.930 . S
C124 C123 1.392 . S
C124 N128 1.331 . S
C125 C126 1.391 . S
C125 N128 1.329 . S
C125 H135 0.930 . S
C126 C125 1.391 . S
C126 N127 1.334 . S
C126 H133 0.930 . S
N127 Zn111 2.119 1_545 S
N127 C123 1.328 . S
N127 C126 1.334 . S
N128 C124 1.331 . S
N128 C125 1.329 . S
H129 C123 0.930 . S
C130 O110 1.257 . S
C130 O131 1.244 . S
O131 C130 1.244 . S
O132 C108 1.257 1_545 S
O132 Zn111 2.019 1_545 S
H133 C126 0.930 . S
H134 C113 0.930 . S
H135 C125 0.930 . S
Zn136 N140 2.020 . S
Zn136 O144 2.019 1_455 S
Zn136 N146 2.119 1_455 S
Zn136 O154 1.975 1_455 S
C137 N138 1.334 . S
C137 N141 1.336 . S
N138 C137 1.334 . S
N138 C139 1.334 . S
C139 N138 1.334 . S
C139 N140 1.336 . S
N140 Zn136 2.020 . S
N140 C139 1.336 . S
N140 N141 1.354 . S
N141 C137 1.336 . S
N141 N140 1.354 . S
N141 Zn145 2.020 . S
C142 O143 1.244 . S
C142 O166 1.257 . S
O143 C142 1.244 . S
O144 Zn136 2.019 1_655 S
O144 C164 1.257 1_655 S
Zn145 N141 2.020 . S
Zn145 O152 1.975 1_455 S
Zn145 N161 2.119 . S
Zn145 O166 2.019 . S
N146 Zn136 2.119 1_655 S
N146 C148 1.334 . S
N146 C149 1.328 . S
C147 C148 1.391 . S
C147 N150 1.329 . S
C147 H168 0.930 . S
C148 N146 1.334 . S
C148 C147 1.391 . S
C148 H155 0.930 . S
C149 N146 1.328 . S
C149 C151 1.392 . S
C149 H156 0.930 . S
N150 C147 1.329 . S
N150 C151 1.331 . S
C151 C149 1.392 . S
C151 N150 1.331 . S
O152 Zn145 1.975 1_655 S
O152 C153 1.252 . S
C153 O152 1.252 . S
C153 O154 1.252 . S
O154 Zn136 1.975 1_655 S
O154 C153 1.252 . S
H155 C148 0.930 . S
H156 C149 0.930 . S
C157 C158 1.392 . S
C157 N161 1.328 . S
C157 H163 0.930 . S
C158 C157 1.392 . S
C158 N162 1.331 . S
C159 C160 1.391 . S
C159 N162 1.329 . S
C159 H169 0.930 . S
C160 C159 1.391 . S
C160 N161 1.334 . S
C160 H167 0.930 . S
N161 Zn145 2.119 . S
N161 C157 1.328 . S
N161 C160 1.334 . S
N162 C158 1.331 . S
N162 C159 1.329 . S
H163 C157 0.930 . S
C164 O144 1.257 1_455 S
C164 O165 1.244 . S
O165 C164 1.244 . S
O166 C142 1.257 . S
O166 Zn145 2.019 . S
H167 C160 0.930 . S
H168 C147 0.930 . S
H169 C159 0.930 . S
Zn170 N174 2.020 . S
Zn170 O178 2.019 1_545 S
Zn170 N180 2.119 1_545 S
Zn170 O188 1.975 1_545 S
C171 N172 1.334 . S
C171 N175 1.336 . S
N172 C171 1.334 . S
N172 C173 1.334 . S
C173 N172 1.334 . S
C173 N174 1.336 . S
N174 Zn170 2.020 . S
N174 C173 1.336 . S
N174 N175 1.354 . S
N175 C171 1.336 . S
N175 N174 1.354 . S
N175 Zn179 2.020 . S
C176 O177 1.244 . S
C176 O200 1.257 . S
O177 C176 1.244 . S
O178 Zn170 2.019 1_565 S
O178 C198 1.257 1_565 S
Zn179 N175 2.020 . S
Zn179 O186 1.975 1_545 S
Zn179 N195 2.119 . S
Zn179 O200 2.019 . S
N180 Zn170 2.119 1_565 S
N180 C182 1.334 . S
N180 C183 1.328 . S
C181 C182 1.391 . S
C181 N184 1.329 . S
C181 H202 0.930 . S
C182 N180 1.334 . S
C182 C181 1.391 . S
C182 H189 0.930 . S
C183 N180 1.328 . S
C183 C185 1.392 . S
C183 H190 0.930 . S
N184 C181 1.329 . S
N184 C185 1.331 . S
C185 C183 1.392 . S
C185 N184 1.331 . S
O186 Zn179 1.975 1_565 S
O186 C187 1.252 . S
C187 O186 1.252 . S
C187 O188 1.252 . S
O188 Zn170 1.975 1_565 S
O188 C187 1.252 . S
H189 C182 0.930 . S
H190 C183 0.930 . S
C191 C192 1.392 . S
C191 N195 1.328 . S
C191 H197 0.930 . S
C192 C191 1.392 . S
C192 N196 1.331 . S
C193 C194 1.391 . S
C193 N196 1.329 . S
C193 H203 0.930 . S
C194 C193 1.391 . S
C194 N195 1.334 . S
C194 H201 0.930 . S
N195 Zn179 2.119 . S
N195 C191 1.328 . S
N195 C194 1.334 . S
N196 C192 1.331 . S
N196 C193 1.329 . S
H197 C191 0.930 . S
C198 O178 1.257 1_545 S
C198 O199 1.244 . S
O199 C198 1.244 . S
O200 C176 1.257 . S
O200 Zn179 2.019 . S
H201 C194 0.930 . S
H202 C181 0.930 . S
H203 C193 0.930 . S
Zn204 N208 2.020 . S
Zn204 O212 2.019 . S
Zn204 N214 2.119 . S
Zn204 O222 1.975 . S
C205 N206 1.334 . S
C205 N209 1.336 . S
N206 C205 1.334 . S
N206 C207 1.334 . S
C207 N206 1.334 . S
C207 N208 1.336 . S
N208 Zn204 2.020 . S
N208 C207 1.336 . S
N208 N209 1.354 . S
N209 C205 1.336 . S
N209 N208 1.354 . S
N209 Zn213 2.020 . S
C210 O211 1.244 . S
C210 O234 1.257 . S
O211 C210 1.244 . S
O212 Zn204 2.019 . S
O212 C232 1.257 . S
Zn213 N209 2.020 . S
Zn213 O220 1.975 . S
Zn213 N229 2.119 . S
Zn213 O234 2.019 . S
N214 Zn204 2.119 . S
N214 C216 1.334 . S
N214 C217 1.328 . S
C215 C216 1.391 . S
C215 N218 1.329 . S
C215 H236 0.930 . S
C216 N214 1.334 . S
C216 C215 1.391 . S
C216 H223 0.930 . S
C217 N214 1.328 . S
C217 C219 1.392 . S
C217 H224 0.930 . S
N218 C215 1.329 . S
N218 C219 1.331 . S
C219 C217 1.392 . S
C219 N218 1.331 . S
O220 Zn213 1.975 . S
O220 C221 1.252 . S
C221 O220 1.252 . S
C221 O222 1.252 . S
O222 Zn204 1.975 . S
O222 C221 1.252 . S
H223 C216 0.930 . S
H224 C217 0.930 . S
C225 C226 1.392 . S
C225 N229 1.328 . S
C225 H231 0.930 . S
C226 C225 1.392 . S
C226 N230 1.331 . S
C227 C228 1.391 . S
C227 N230 1.329 . S
C227 H237 0.930 . S
C228 C227 1.391 . S
C228 N229 1.334 . S
C228 H235 0.930 . S
N229 Zn213 2.119 . S
N229 C225 1.328 . S
N229 C228 1.334 . S
N230 C226 1.331 . S
N230 C227 1.329 . S
H231 C225 0.930 . S
C232 O212 1.257 . S
C232 O233 1.244 . S
O233 C232 1.244 . S
O234 C210 1.257 . S
O234 Zn213 2.019 . S
H235 C228 0.930 . S
H236 C215 0.930 . S
H237 C227 0.930 . S
Zn238 N242 2.020 . S
Zn238 O246 2.019 . S
Zn238 N248 2.119 . S
Zn238 O256 1.975 . S
C239 N240 1.334 . S
C239 N243 1.336 . S
N240 C239 1.334 . S
N240 C241 1.334 . S
C241 N240 1.334 . S
C241 N242 1.336 . S
N242 Zn238 2.020 . S
N242 C241 1.336 . S
N242 N243 1.354 . S
N243 C239 1.336 . S
N243 N242 1.354 . S
N243 Zn247 2.020 . S
C244 O245 1.244 . S
C244 O268 1.257 . S
O245 C244 1.244 . S
O246 Zn238 2.019 . S
O246 C266 1.257 . S
Zn247 N243 2.020 . S
Zn247 O254 1.975 . S
Zn247 N263 2.119 . S
Zn247 O268 2.019 . S
N248 Zn238 2.119 . S
N248 C250 1.334 . S
N248 C251 1.328 . S
C249 C250 1.391 . S
C249 N252 1.329 . S
C249 H270 0.930 . S
C250 N248 1.334 . S
C250 C249 1.391 . S
C250 H257 0.930 . S
C251 N248 1.328 . S
C251 C253 1.392 . S
C251 H258 0.930 . S
N252 C249 1.329 . S
N252 C253 1.331 . S
C253 C251 1.392 . S
C253 N252 1.331 . S
O254 Zn247 1.975 . S
O254 C255 1.252 . S
C255 O254 1.252 . S
C255 O256 1.252 . S
O256 Zn238 1.975 . S
O256 C255 1.252 . S
H257 C250 0.930 . S
H258 C251 0.930 . S
C259 C260 1.392 . S
C259 N263 1.328 . S
C259 H265 0.930 . S
C260 C259 1.392 . S
C260 N264 1.331 . S
C261 C262 1.391 . S
C261 N264 1.329 . S
C261 H271 0.930 . S
C262 C261 1.391 . S
C262 N263 1.334 . S
C262 H269 0.930 . S
N263 Zn247 2.119 . S
N263 C259 1.328 . S
N263 C262 1.334 . S
N264 C260 1.331 . S
N264 C261 1.329 . S
H265 C259 0.930 . S
C266 O246 1.257 . S
C266 O267 1.244 . S
O267 C266 1.244 . S
O268 C244 1.257 . S
O268 Zn247 2.019 . S
H269 C262 0.930 . S
H270 C249 0.930 . S
H271 C261 0.930 . S
Zn272 N276 2.020 . S
Zn272 O280 2.019 . S
Zn272 N282 2.119 . S
Zn272 O290 1.975 . S
C273 N274 1.334 . S
C273 N277 1.336 . S
N274 C273 1.334 . S
N274 C275 1.334 . S
C275 N274 1.334 . S
C275 N276 1.336 . S
N276 Zn272 2.020 . S
N276 C275 1.336 . S
N276 N277 1.354 . S
N277 C273 1.336 . S
N277 N276 1.354 . S
N277 Zn281 2.020 . S
C278 O279 1.244 . S
C278 O302 1.257 . S
O279 C278 1.244 . S
O280 Zn272 2.019 . S
O280 C300 1.257 . S
Zn281 N277 2.020 . S
Zn281 O288 1.975 . S
Zn281 N297 2.119 . S
Zn281 O302 2.019 . S
N282 Zn272 2.119 . S
N282 C284 1.334 . S
N282 C285 1.328 . S
C283 C284 1.391 . S
C283 N286 1.329 . S
C283 H304 0.930 . S
C284 N282 1.334 . S
C284 C283 1.391 . S
C284 H291 0.930 . S
C285 N282 1.328 . S
C285 C287 1.392 . S
C285 H292 0.930 . S
N286 C283 1.329 . S
N286 C287 1.331 . S
C287 C285 1.392 . S
C287 N286 1.331 . S
O288 Zn281 1.975 . S
O288 C289 1.252 . S
C289 O288 1.252 . S
C289 O290 1.252 . S
O290 Zn272 1.975 . S
O290 C289 1.252 . S
H291 C284 0.930 . S
H292 C285 0.930 . S
C293 C294 1.392 . S
C293 N297 1.328 . S
C293 H299 0.930 . S
C294 C293 1.392 . S
C294 N298 1.331 . S
C295 C296 1.391 . S
C295 N298 1.329 . S
C295 H305 0.930 . S
C296 C295 1.391 . S
C296 N297 1.334 . S
C296 H303 0.930 . S
N297 Zn281 2.119 . S
N297 C293 1.328 . S
N297 C296 1.334 . S
N298 C294 1.331 . S
N298 C295 1.329 . S
H299 C293 0.930 . S
C300 O280 1.257 . S
C300 O301 1.244 . S
O301 C300 1.244 . S
O302 C278 1.257 . S
O302 Zn281 2.019 . S
H303 C296 0.930 . S
H304 C283 0.930 . S
H305 C295 0.930 . S
Zn306 N310 2.020 . S
Zn306 O314 2.019 . S
Zn306 N316 2.119 . S
Zn306 O324 1.975 . S
C307 N308 1.334 . S
C307 N311 1.336 . S
N308 C307 1.334 . S
N308 C309 1.334 . S
C309 N308 1.334 . S
C309 N310 1.336 . S
N310 Zn306 2.020 . S
N310 C309 1.336 . S
N310 N311 1.354 . S
N311 C307 1.336 . S
N311 N310 1.354 . S
N311 Zn315 2.020 . S
C312 O313 1.244 . S
C312 O336 1.257 . S
O313 C312 1.244 . S
O314 Zn306 2.019 . S
O314 C334 1.257 . S
Zn315 N311 2.020 . S
Zn315 O322 1.975 . S
Zn315 N331 2.119 . S
Zn315 O336 2.019 . S
N316 Zn306 2.119 . S
N316 C318 1.334 . S
N316 C319 1.328 . S
C317 C318 1.391 . S
C317 N320 1.329 . S
C317 H338 0.930 . S
C318 N316 1.334 . S
C318 C317 1.391 . S
C318 H325 0.930 . S
C319 N316 1.328 . S
C319 C321 1.392 . S
C319 H326 0.930 . S
N320 C317 1.329 . S
N320 C321 1.331 . S
C321 C319 1.392 . S
C321 N320 1.331 . S
O322 Zn315 1.975 . S
O322 C323 1.252 . S
C323 O322 1.252 . S
C323 O324 1.252 . S
O324 Zn306 1.975 . S
O324 C323 1.252 . S
H325 C318 0.930 . S
H326 C319 0.930 . S
C327 C328 1.392 . S
C327 N331 1.328 . S
C327 H333 0.930 . S
C328 C327 1.392 . S
C328 N332 1.331 . S
C329 C330 1.391 . S
C329 N332 1.329 . S
C329 H339 0.930 . S
C330 C329 1.391 . S
C330 N331 1.334 . S
C330 H337 0.930 . S
N331 Zn315 2.119 . S
N331 C327 1.328 . S
N331 C330 1.334 . S
N332 C328 1.331 . S
N332 C329 1.329 . S
H333 C327 0.930 . S
C334 O314 1.257 . S
C334 O335 1.244 . S
O335 C334 1.244 . S
O336 C312 1.257 . S
O336 Zn315 2.019 . S
H337 C330 0.930 . S
H338 C317 0.930 . S
H339 C329 0.930 . S
Zn340 N344 2.020 . S
Zn340 O348 2.019 . S
Zn340 N350 2.119 . S
Zn340 O358 1.975 1_455 S
C341 N342 1.334 . S
C341 N345 1.336 . S
N342 C341 1.334 . S
N342 C343 1.334 . S
C343 N342 1.334 . S
C343 N344 1.336 . S
N344 Zn340 2.020 . S
N344 C343 1.336 . S
N344 N345 1.354 . S
N345 C341 1.336 . S
N345 N344 1.354 . S
N345 Zn349 2.020 . S
C346 O347 1.244 . S
C346 O370 1.257 1_455 S
O347 C346 1.244 . S
O348 Zn340 2.019 . S
O348 C368 1.257 . S
Zn349 N345 2.020 . S
Zn349 O356 1.975 1_455 S
Zn349 N365 2.119 1_455 S
Zn349 O370 2.019 1_455 S
N350 Zn340 2.119 . S
N350 C352 1.334 . S
N350 C353 1.328 . S
C351 C352 1.391 . S
C351 N354 1.329 . S
C351 H372 0.930 . S
C352 N350 1.334 . S
C352 C351 1.391 . S
C352 H359 0.930 . S
C353 N350 1.328 . S
C353 C355 1.392 . S
C353 H360 0.930 . S
N354 C351 1.329 . S
N354 C355 1.331 . S
C355 C353 1.392 . S
C355 N354 1.331 . S
O356 Zn349 1.975 1_655 S
O356 C357 1.252 . S
C357 O356 1.252 . S
C357 O358 1.252 . S
O358 Zn340 1.975 1_655 S
O358 C357 1.252 . S
H359 C352 0.930 . S
H360 C353 0.930 . S
C361 C362 1.392 . S
C361 N365 1.328 . S
C361 H367 0.930 . S
C362 C361 1.392 . S
C362 N366 1.331 . S
C363 C364 1.391 . S
C363 N366 1.329 . S
C363 H373 0.930 . S
C364 C363 1.391 . S
C364 N365 1.334 . S
C364 H371 0.930 . S
N365 Zn349 2.119 1_655 S
N365 C361 1.328 . S
N365 C364 1.334 . S
N366 C362 1.331 . S
N366 C363 1.329 . S
H367 C361 0.930 . S
C368 O348 1.257 . S
C368 O369 1.244 . S
O369 C368 1.244 . S
O370 C346 1.257 1_655 S
O370 Zn349 2.019 1_655 S
H371 C364 0.930 . S
H372 C351 0.930 . S
H373 C363 0.930 . S
Zn374 N378 2.020 . S
Zn374 O382 2.019 1_545 S
Zn374 N384 2.119 1_545 S
Zn374 O392 1.975 1_545 S
C375 N376 1.334 . S
C375 N379 1.336 . S
N376 C375 1.334 . S
N376 C377 1.334 . S
C377 N376 1.334 . S
C377 N378 1.336 . S
N378 Zn374 2.020 . S
N378 C377 1.336 . S
N378 N379 1.354 . S
N379 C375 1.336 . S
N379 N378 1.354 . S
N379 Zn383 2.020 . S
C380 O381 1.244 . S
C380 O404 1.257 . S
O381 C380 1.244 . S
O382 Zn374 2.019 1_565 S
O382 C402 1.257 1_565 S
Zn383 N379 2.020 . S
Zn383 O390 1.975 1_545 S
Zn383 N399 2.119 . S
Zn383 O404 2.019 . S
N384 Zn374 2.119 1_565 S
N384 C386 1.334 . S
N384 C387 1.328 . S
C385 C386 1.391 . S
C385 N388 1.329 . S
C385 H406 0.930 . S
C386 N384 1.334 . S
C386 C385 1.391 . S
C386 H393 0.930 . S
C387 N384 1.328 . S
C387 C389 1.392 . S
C387 H394 0.930 . S
N388 C385 1.329 . S
N388 C389 1.331 . S
C389 C387 1.392 . S
C389 N388 1.331 . S
O390 Zn383 1.975 1_565 S
O390 C391 1.252 . S
C391 O390 1.252 . S
C391 O392 1.252 . S
O392 Zn374 1.975 1_565 S
O392 C391 1.252 . S
H393 C386 0.930 . S
H394 C387 0.930 . S
C395 C396 1.392 . S
C395 N399 1.328 . S
C395 H401 0.930 . S
C396 C395 1.392 . S
C396 N400 1.331 . S
C397 C398 1.391 . S
C397 N400 1.329 . S
C397 H407 0.930 . S
C398 C397 1.391 . S
C398 N399 1.334 . S
C398 H405 0.930 . S
N399 Zn383 2.119 . S
N399 C395 1.328 . S
N399 C398 1.334 . S
N400 C396 1.331 . S
N400 C397 1.329 . S
H401 C395 0.930 . S
C402 O382 1.257 1_545 S
C402 O403 1.244 . S
O403 C402 1.244 . S
O404 C380 1.257 . S
O404 Zn383 2.019 . S
H405 C398 0.930 . S
H406 C385 0.930 . S
H407 C397 0.930 . S
Zn408 N412 2.020 . S
Zn408 O416 2.019 1_655 S
Zn408 N418 2.119 1_655 S
Zn408 O426 1.975 1_655 S
C409 N410 1.334 . S
C409 N413 1.336 . S
N410 C409 1.334 . S
N410 C411 1.334 . S
C411 N410 1.334 . S
C411 N412 1.336 . S
N412 Zn408 2.020 . S
N412 C411 1.336 . S
N412 N413 1.354 . S
N413 C409 1.336 . S
N413 N412 1.354 . S
N413 Zn417 2.020 . S
C414 O415 1.244 . S
C414 O438 1.257 . S
O415 C414 1.244 . S
O416 Zn408 2.019 1_455 S
O416 C436 1.257 1_455 S
Zn417 N413 2.020 . S
Zn417 O424 1.975 1_655 S
Zn417 N433 2.119 . S
Zn417 O438 2.019 . S
N418 Zn408 2.119 1_455 S
N418 C420 1.334 . S
N418 C421 1.328 . S
C419 C420 1.391 . S
C419 N422 1.329 . S
C419 H440 0.930 . S
C420 N418 1.334 . S
C420 C419 1.391 . S
C420 H427 0.930 . S
C421 N418 1.328 . S
C421 C423 1.392 . S
C421 H428 0.930 . S
N422 C419 1.329 . S
N422 C423 1.331 . S
C423 C421 1.392 . S
C423 N422 1.331 . S
O424 Zn417 1.975 1_455 S
O424 C425 1.252 . S
C425 O424 1.252 . S
C425 O426 1.252 . S
O426 Zn408 1.975 1_455 S
O426 C425 1.252 . S
H427 C420 0.930 . S
H428 C421 0.930 . S
C429 C430 1.392 . S
C429 N433 1.328 . S
C429 H435 0.930 . S
C430 C429 1.392 . S
C430 N434 1.331 . S
C431 C432 1.391 . S
C431 N434 1.329 . S
C431 H441 0.930 . S
C432 C431 1.391 . S
C432 N433 1.334 . S
C432 H439 0.930 . S
N433 Zn417 2.119 . S
N433 C429 1.328 . S
N433 C432 1.334 . S
N434 C430 1.331 . S
N434 C431 1.329 . S
H435 C429 0.930 . S
C436 O416 1.257 1_655 S
C436 O437 1.244 . S
O437 C436 1.244 . S
O438 C414 1.257 . S
O438 Zn417 2.019 . S
H439 C432 0.930 . S
H440 C419 0.930 . S
H441 C431 0.930 . S
Zn442 N446 2.020 . S
Zn442 O450 2.019 1_565 S
Zn442 N452 2.119 1_565 S
Zn442 O460 1.975 1_565 S
C443 N444 1.334 . S
C443 N447 1.336 . S
N444 C443 1.334 . S
N444 C445 1.334 . S
C445 N444 1.334 . S
C445 N446 1.336 . S
N446 Zn442 2.020 . S
N446 C445 1.336 . S
N446 N447 1.354 . S
N447 C443 1.336 . S
N447 N446 1.354 . S
N447 Zn451 2.020 . S
C448 O449 1.244 . S
C448 O472 1.257 . S
O449 C448 1.244 . S
O450 Zn442 2.019 1_545 S
O450 C470 1.257 1_545 S
Zn451 N447 2.020 . S
Zn451 O458 1.975 1_565 S
Zn451 N467 2.119 . S
Zn451 O472 2.019 . S
N452 Zn442 2.119 1_545 S
N452 C454 1.334 . S
N452 C455 1.328 . S
C453 C454 1.391 . S
C453 N456 1.329 . S
C453 H474 0.930 . S
C454 N452 1.334 . S
C454 C453 1.391 . S
C454 H461 0.930 . S
C455 N452 1.328 . S
C455 C457 1.392 . S
C455 H462 0.930 . S
N456 C453 1.329 . S
N456 C457 1.331 . S
C457 C455 1.392 . S
C457 N456 1.331 . S
O458 Zn451 1.975 1_545 S
O458 C459 1.252 . S
C459 O458 1.252 . S
C459 O460 1.252 . S
O460 Zn442 1.975 1_545 S
O460 C459 1.252 . S
H461 C454 0.930 . S
H462 C455 0.930 . S
C463 C464 1.392 . S
C463 N467 1.328 . S
C463 H469 0.930 . S
C464 C463 1.392 . S
C464 N468 1.331 . S
C465 C466 1.391 . S
C465 N468 1.329 . S
C465 H475 0.930 . S
C466 C465 1.391 . S
C466 N467 1.334 . S
C466 H473 0.930 . S
N467 Zn451 2.119 . S
N467 C463 1.328 . S
N467 C466 1.334 . S
N468 C464 1.331 . S
N468 C465 1.329 . S
H469 C463 0.930 . S
C470 O450 1.257 1_565 S
C470 O471 1.244 . S
O471 C470 1.244 . S
O472 C448 1.257 . S
O472 Zn451 2.019 . S
H473 C466 0.930 . S
H474 C453 0.930 . S
H475 C465 0.930 . S
Zn476 N480 2.020 . S
Zn476 O484 2.019 . S
Zn476 N486 2.119 . S
Zn476 O494 1.975 . S
C477 N478 1.334 . S
C477 N481 1.336 . S
N478 C477 1.334 . S
N478 C479 1.334 . S
C479 N478 1.334 . S
C479 N480 1.336 . S
N480 Zn476 2.020 . S
N480 C479 1.336 . S
N480 N481 1.354 . S
N481 C477 1.336 . S
N481 N480 1.354 . S
N481 Zn485 2.020 . S
C482 O483 1.244 . S
C482 O506 1.257 . S
O483 C482 1.244 . S
O484 Zn476 2.019 . S
O484 C504 1.257 . S
Zn485 N481 2.020 . S
Zn485 O492 1.975 . S
Zn485 N501 2.119 . S
Zn485 O506 2.019 . S
N486 Zn476 2.119 . S
N486 C488 1.334 . S
N486 C489 1.328 . S
C487 C488 1.391 . S
C487 N490 1.329 . S
C487 H508 0.930 . S
C488 N486 1.334 . S
C488 C487 1.391 . S
C488 H495 0.930 . S
C489 N486 1.328 . S
C489 C491 1.392 . S
C489 H496 0.930 . S
N490 C487 1.329 . S
N490 C491 1.331 . S
C491 C489 1.392 . S
C491 N490 1.331 . S
O492 Zn485 1.975 . S
O492 C493 1.252 . S
C493 O492 1.252 . S
C493 O494 1.252 . S
O494 Zn476 1.975 . S
O494 C493 1.252 . S
H495 C488 0.930 . S
H496 C489 0.930 . S
C497 C498 1.392 . S
C497 N501 1.328 . S
C497 H503 0.930 . S
C498 C497 1.392 . S
C498 N502 1.331 . S
C499 C500 1.391 . S
C499 N502 1.329 . S
C499 H509 0.930 . S
C500 C499 1.391 . S
C500 N501 1.334 . S
C500 H507 0.930 . S
N501 Zn485 2.119 . S
N501 C497 1.328 . S
N501 C500 1.334 . S
N502 C498 1.331 . S
N502 C499 1.329 . S
H503 C497 0.930 . S
C504 O484 1.257 . S
C504 O505 1.244 . S
O505 C504 1.244 . S
O506 C482 1.257 . S
O506 Zn485 2.019 . S
H507 C500 0.930 . S
H508 C487 0.930 . S
H509 C499 0.930 . S
Zn510 N514 2.020 . S
Zn510 O518 2.019 . S
Zn510 N520 2.119 . S
Zn510 O528 1.975 . S
C511 N512 1.334 . S
C511 N515 1.336 . S
N512 C511 1.334 . S
N512 C513 1.334 . S
C513 N512 1.334 . S
C513 N514 1.336 . S
N514 Zn510 2.020 . S
N514 C513 1.336 . S
N514 N515 1.354 . S
N515 C511 1.336 . S
N515 N514 1.354 . S
N515 Zn519 2.020 . S
C516 O517 1.244 . S
C516 O540 1.257 . S
O517 C516 1.244 . S
O518 Zn510 2.019 . S
O518 C538 1.257 . S
Zn519 N515 2.020 . S
Zn519 O526 1.975 . S
Zn519 N535 2.119 . S
Zn519 O540 2.019 . S
N520 Zn510 2.119 . S
N520 C522 1.334 . S
N520 C523 1.328 . S
C521 C522 1.391 . S
C521 N524 1.329 . S
C521 H542 0.930 . S
C522 N520 1.334 . S
C522 C521 1.391 . S
C522 H529 0.930 . S
C523 N520 1.328 . S
C523 C525 1.392 . S
C523 H530 0.930 . S
N524 C521 1.329 . S
N524 C525 1.331 . S
C525 C523 1.392 . S
C525 N524 1.331 . S
O526 Zn519 1.975 . S
O526 C527 1.252 . S
C527 O526 1.252 . S
C527 O528 1.252 . S
O528 Zn510 1.975 . S
O528 C527 1.252 . S
H529 C522 0.930 . S
H530 C523 0.930 . S
C531 C532 1.392 . S
C531 N535 1.328 . S
C531 H537 0.930 . S
C532 C531 1.392 . S
C532 N536 1.331 . S
C533 C534 1.391 . S
C533 N536 1.329 . S
C533 H543 0.930 . S
C534 C533 1.391 . S
C534 N535 1.334 . S
C534 H541 0.930 . S
N535 Zn519 2.119 . S
N535 C531 1.328 . S
N535 C534 1.334 . S
N536 C532 1.331 . S
N536 C533 1.329 . S
H537 C531 0.930 . S
C538 O518 1.257 . S
C538 O539 1.244 . S
O539 C538 1.244 . S
O540 C516 1.257 . S
O540 Zn519 2.019 . S
H541 C534 0.930 . S
H542 C521 0.930 . S
H543 C533 0.930 . S
C544 C545 1.349 . S
C544 C546 1.327 . S
C544 H569 0.950 . S
C545 C544 1.349 . S
C545 C561 1.349 . S
C546 C544 1.327 . S
C546 C565 1.429 . S
C546 H570 0.950 . S
C547 C564 1.574 . S
C547 C566 1.368 . S
C547 H571 0.949 . S
H548 C552 0.949 . S
C549 C550 1.349 . S
C549 C551 1.327 . S
C549 H572 0.950 . S
C550 C549 1.349 . S
C550 C562 1.349 . S
C551 C549 1.327 . S
C551 C567 1.429 . S
C551 H573 0.950 . S
C552 H548 0.949 . S
C552 C560 1.574 . S
C552 C568 1.368 . S
H553 C561 0.950 . S
H554 C559 0.950 . S
H555 C560 0.949 . S
H556 C562 0.950 . S
H557 C563 0.950 . S
H558 C564 0.949 . S
C559 H554 0.950 . S
C559 C561 1.327 . S
C559 C565 1.429 . S
C560 C552 1.574 . S
C560 H555 0.949 . S
C560 C566 1.368 . S
C561 C545 1.349 . S
C561 H553 0.950 . S
C561 C559 1.327 . S
C562 C550 1.349 . S
C562 H556 0.950 . S
C562 C563 1.327 . S
C563 H557 0.950 . S
C563 C562 1.327 . S
C563 C567 1.429 . S
C564 C547 1.574 . S
C564 H558 0.949 . S
C564 C568 1.368 . S
C565 C546 1.429 . S
C565 C559 1.429 . S
C565 C566 1.523 . S
C566 C547 1.368 . S
C566 C560 1.368 . S
C566 C565 1.523 . S
C567 C551 1.429 . S
C567 C563 1.429 . S
C567 C568 1.523 . S
C568 C552 1.368 . S
C568 C564 1.368 . S
C568 C567 1.523 . S
H569 C544 0.950 . S
H570 C546 0.950 . S
H571 C547 0.949 . S
H572 C549 0.950 . S
H573 C551 0.950 . S
C574 C575 1.349 . S
C574 C576 1.327 . S
C574 H599 0.950 . S
C575 C574 1.349 . S
C575 C591 1.349 . S
C576 C574 1.327 . S
C576 C595 1.429 . S
C576 H600 0.950 . S
C577 C594 1.574 . S
C577 C596 1.368 . S
C577 H601 0.949 . S
H578 C582 0.949 . S
C579 C580 1.349 . S
C579 C581 1.327 . S
C579 H602 0.950 . S
C580 C579 1.349 . S
C580 C592 1.349 . S
C581 C579 1.327 . S
C581 C597 1.429 . S
C581 H603 0.950 . S
C582 H578 0.949 . S
C582 C590 1.574 . S
C582 C598 1.368 . S
H583 C591 0.950 . S
H584 C589 0.950 . S
H585 C590 0.949 . S
H586 C592 0.950 . S
H587 C593 0.950 . S
H588 C594 0.949 . S
C589 H584 0.950 . S
C589 C591 1.327 . S
C589 C595 1.429 . S
C590 C582 1.574 . S
C590 H585 0.949 . S
C590 C596 1.368 . S
C591 C575 1.349 . S
C591 H583 0.950 . S
C591 C589 1.327 . S
C592 C580 1.349 . S
C592 H586 0.950 . S
C592 C593 1.327 . S
C593 H587 0.950 . S
C593 C592 1.327 . S
C593 C597 1.429 . S
C594 C577 1.574 . S
C594 H588 0.949 . S
C594 C598 1.368 . S
C595 C576 1.429 . S
C595 C589 1.429 . S
C595 C596 1.523 . S
C596 C577 1.368 . S
C596 C590 1.368 . S
C596 C595 1.523 . S
C597 C581 1.429 . S
C597 C593 1.429 . S
C597 C598 1.523 . S
C598 C582 1.368 . S
C598 C594 1.368 . S
C598 C597 1.523 . S
H599 C574 0.950 . S
H600 C576 0.950 . S
H601 C577 0.949 . S
H602 C579 0.950 . S
H603 C581 0.950 . S
C604 C605 1.349 . S
C604 C606 1.327 . S
C604 H629 0.950 . S
C605 C604 1.349 . S
C605 C621 1.349 . S
C606 C604 1.327 . S
C606 C625 1.429 . S
C606 H630 0.950 . S
C607 C624 1.574 . S
C607 C626 1.368 . S
C607 H631 0.949 . S
H608 C612 0.949 . S
C609 C610 1.349 . S
C609 C611 1.327 . S
C609 H632 0.950 . S
C610 C609 1.349 . S
C610 C622 1.349 . S
C611 C609 1.327 . S
C611 C627 1.429 . S
C611 H633 0.950 . S
C612 H608 0.949 . S
C612 C620 1.574 . S
C612 C628 1.368 . S
H613 C621 0.950 . S
H614 C619 0.950 . S
H615 C620 0.949 . S
H616 C622 0.950 . S
H617 C623 0.950 . S
H618 C624 0.949 . S
C619 H614 0.950 . S
C619 C621 1.327 . S
C619 C625 1.429 . S
C620 C612 1.574 . S
C620 H615 0.949 . S
C620 C626 1.368 . S
C621 C605 1.349 . S
C621 H613 0.950 . S
C621 C619 1.327 . S
C622 C610 1.349 . S
C622 H616 0.950 . S
C622 C623 1.327 . S
C623 H617 0.950 . S
C623 C622 1.327 . S
C623 C627 1.429 . S
C624 C607 1.574 . S
C624 H618 0.949 . S
C624 C628 1.368 . S
C625 C606 1.429 . S
C625 C619 1.429 . S
C625 C626 1.523 . S
C626 C607 1.368 . S
C626 C620 1.368 . S
C626 C625 1.523 . S
C627 C611 1.429 . S
C627 C623 1.429 . S
C627 C628 1.523 . S
C628 C612 1.368 . S
C628 C624 1.368 . S
C628 C627 1.523 . S
H629 C604 0.950 . S
H630 C606 0.950 . S
H631 C607 0.949 . S
H632 C609 0.950 . S
H633 C611 0.950 . S
C634 C635 1.349 . S
C634 C636 1.327 . S
C634 H659 0.950 . S
C635 C634 1.349 . S
C635 C651 1.349 . S
C636 C634 1.327 . S
C636 C655 1.429 . S
C636 H660 0.950 . S
C637 C654 1.574 . S
C637 C656 1.368 . S
C637 H661 0.949 . S
H638 C642 0.949 . S
C639 C640 1.349 . S
C639 C641 1.327 . S
C639 H662 0.950 . S
C640 C639 1.349 . S
C640 C652 1.349 . S
C641 C639 1.327 . S
C641 C657 1.429 . S
C641 H663 0.950 . S
C642 H638 0.949 . S
C642 C650 1.574 . S
C642 C658 1.368 . S
H643 C651 0.950 . S
H644 C649 0.950 . S
H645 C650 0.949 . S
H646 C652 0.950 . S
H647 C653 0.950 . S
H648 C654 0.949 . S
C649 H644 0.950 . S
C649 C651 1.327 . S
C649 C655 1.429 . S
C650 C642 1.574 . S
C650 H645 0.949 . S
C650 C656 1.368 . S
C651 C635 1.349 . S
C651 H643 0.950 . S
C651 C649 1.327 . S
C652 C640 1.349 . S
C652 H646 0.950 . S
C652 C653 1.327 . S
C653 H647 0.950 . S
C653 C652 1.327 . S
C653 C657 1.429 . S
C654 C637 1.574 . S
C654 H648 0.949 . S
C654 C658 1.368 . S
C655 C636 1.429 . S
C655 C649 1.429 . S
C655 C656 1.523 . S
C656 C637 1.368 . S
C656 C650 1.368 . S
C656 C655 1.523 . S
C657 C641 1.429 . S
C657 C653 1.429 . S
C657 C658 1.523 . S
C658 C642 1.368 . S
C658 C654 1.368 . S
C658 C657 1.523 . S
H659 C634 0.950 . S
H660 C636 0.950 . S
H661 C637 0.949 . S
H662 C639 0.950 . S
H663 C641 0.950 . S
C664 C665 1.349 . S
C664 C666 1.327 . S
C664 H689 0.950 . S
C665 C664 1.349 . S
C665 C681 1.349 . S
C666 C664 1.327 . S
C666 C685 1.429 . S
C666 H690 0.950 . S
C667 C684 1.574 . S
C667 C686 1.368 . S
C667 H691 0.949 . S
H668 C672 0.949 . S
C669 C670 1.349 . S
C669 C671 1.327 . S
C669 H692 0.950 . S
C670 C669 1.349 . S
C670 C682 1.349 . S
C671 C669 1.327 . S
C671 C687 1.429 . S
C671 H693 0.950 . S
C672 H668 0.949 . S
C672 C680 1.574 . S
C672 C688 1.368 . S
H673 C681 0.950 . S
H674 C679 0.950 . S
H675 C680 0.949 . S
H676 C682 0.950 . S
H677 C683 0.950 . S
H678 C684 0.949 . S
C679 H674 0.950 . S
C679 C681 1.327 . S
C679 C685 1.429 . S
C680 C672 1.574 . S
C680 H675 0.949 . S
C680 C686 1.368 . S
C681 C665 1.349 . S
C681 H673 0.950 . S
C681 C679 1.327 . S
C682 C670 1.349 . S
C682 H676 0.950 . S
C682 C683 1.327 . S
C683 H677 0.950 . S
C683 C682 1.327 . S
C683 C687 1.429 . S
C684 C667 1.574 . S
C684 H678 0.949 . S
C684 C688 1.368 . S
C685 C666 1.429 . S
C685 C679 1.429 . S
C685 C686 1.523 . S
C686 C667 1.368 . S
C686 C680 1.368 . S
C686 C685 1.523 . S
C687 C671 1.429 . S
C687 C683 1.429 . S
C687 C688 1.523 . S
C688 C672 1.368 . S
C688 C684 1.368 . S
C688 C687 1.523 . S
H689 C664 0.950 . S
H690 C666 0.950 . S
H691 C667 0.949 . S
H692 C669 0.950 . S
H693 C671 0.950 . S
C694 C695 1.349 . S
C694 C696 1.327 . S
C694 H719 0.950 . S
C695 C694 1.349 . S
C695 C711 1.349 . S
C696 C694 1.327 . S
C696 C715 1.429 . S
C696 H720 0.950 . S
C697 C714 1.574 . S
C697 C716 1.368 . S
C697 H721 0.949 . S
H698 C702 0.949 . S
C699 C700 1.349 . S
C699 C701 1.327 . S
C699 H722 0.950 . S
C700 C699 1.349 . S
C700 C712 1.349 . S
C701 C699 1.327 . S
C701 C717 1.429 . S
C701 H723 0.950 . S
C702 H698 0.949 . S
C702 C710 1.574 . S
C702 C718 1.368 . S
H703 C711 0.950 . S
H704 C709 0.950 . S
H705 C710 0.949 . S
H706 C712 0.950 . S
H707 C713 0.950 . S
H708 C714 0.949 . S
C709 H704 0.950 . S
C709 C711 1.327 . S
C709 C715 1.429 . S
C710 C702 1.574 . S
C710 H705 0.949 . S
C710 C716 1.368 . S
C711 C695 1.349 . S
C711 H703 0.950 . S
C711 C709 1.327 . S
C712 C700 1.349 . S
C712 H706 0.950 . S
C712 C713 1.327 . S
C713 H707 0.950 . S
C713 C712 1.327 . S
C713 C717 1.429 . S
C714 C697 1.574 . S
C714 H708 0.949 . S
C714 C718 1.368 . S
C715 C696 1.429 . S
C715 C709 1.429 . S
C715 C716 1.523 . S
C716 C697 1.368 . S
C716 C710 1.368 . S
C716 C715 1.523 . S
C717 C701 1.429 . S
C717 C713 1.429 . S
C717 C718 1.523 . S
C718 C702 1.368 . S
C718 C714 1.368 . S
C718 C717 1.523 . S
H719 C694 0.950 . S
H720 C696 0.950 . S
H721 C697 0.949 . S
H722 C699 0.950 . S
H723 C701 0.950 . S
C724 C725 1.349 . S
C724 C726 1.327 . S
C724 H749 0.950 . S
C725 C724 1.349 . S
C725 C741 1.349 . S
C726 C724 1.327 . S
C726 C745 1.429 . S
C726 H750 0.950 . S
C727 C744 1.574 . S
C727 C746 1.368 . S
C727 H751 0.949 . S
H728 C732 0.949 . S
C729 C730 1.349 . S
C729 C731 1.327 . S
C729 H752 0.950 . S
C730 C729 1.349 . S
C730 C742 1.349 . S
C731 C729 1.327 . S
C731 C747 1.429 . S
C731 H753 0.950 . S
C732 H728 0.949 . S
C732 C740 1.574 . S
C732 C748 1.368 . S
H733 C741 0.950 . S
H734 C739 0.950 . S
H735 C740 0.949 . S
H736 C742 0.950 . S
H737 C743 0.950 . S
H738 C744 0.949 . S
C739 H734 0.950 . S
C739 C741 1.327 . S
C739 C745 1.429 . S
C740 C732 1.574 . S
C740 H735 0.949 . S
C740 C746 1.368 . S
C741 C725 1.349 . S
C741 H733 0.950 . S
C741 C739 1.327 . S
C742 C730 1.349 . S
C742 H736 0.950 . S
C742 C743 1.327 . S
C743 H737 0.950 . S
C743 C742 1.327 . S
C743 C747 1.429 . S
C744 C727 1.574 . S
C744 H738 0.949 . S
C744 C748 1.368 . S
C745 C726 1.429 . S
C745 C739 1.429 . S
C745 C746 1.523 . S
C746 C727 1.368 . S
C746 C740 1.368 . S
C746 C745 1.523 . S
C747 C731 1.429 . S
C747 C743 1.429 . S
C747 C748 1.523 . S
C748 C732 1.368 . S
C748 C744 1.368 . S
C748 C747 1.523 . S
H749 C724 0.950 . S
H750 C726 0.950 . S
H751 C727 0.949 . S
H752 C729 0.950 . S
H753 C731 0.950 . S
C754 C755 1.349 . S
C754 C756 1.327 . S
C754 H779 0.950 . S
C755 C754 1.349 . S
C755 C771 1.349 . S
C756 C754 1.327 . S
C756 C775 1.429 . S
C756 H780 0.950 . S
C757 C774 1.574 . S
C757 C776 1.368 . S
C757 H781 0.949 . S
H758 C762 0.949 . S
C759 C760 1.349 . S
C759 C761 1.327 . S
C759 H782 0.950 . S
C760 C759 1.349 . S
C760 C772 1.349 . S
C761 C759 1.327 . S
C761 C777 1.429 . S
C761 H783 0.950 . S
C762 H758 0.949 . S
C762 C770 1.574 . S
C762 C778 1.368 . S
H763 C771 0.950 . S
H764 C769 0.950 . S
H765 C770 0.949 . S
H766 C772 0.950 . S
H767 C773 0.950 . S
H768 C774 0.949 . S
C769 H764 0.950 . S
C769 C771 1.327 . S
C769 C775 1.429 . S
C770 C762 1.574 . S
C770 H765 0.949 . S
C770 C776 1.368 . S
C771 C755 1.349 . S
C771 H763 0.950 . S
C771 C769 1.327 . S
C772 C760 1.349 . S
C772 H766 0.950 . S
C772 C773 1.327 . S
C773 H767 0.950 . S
C773 C772 1.327 . S
C773 C777 1.429 . S
C774 C757 1.574 . S
C774 H768 0.949 . S
C774 C778 1.368 . S
C775 C756 1.429 . S
C775 C769 1.429 . S
C775 C776 1.523 . S
C776 C757 1.368 . S
C776 C770 1.368 . S
C776 C775 1.523 . S
C777 C761 1.429 . S
C777 C773 1.429 . S
C777 C778 1.523 . S
C778 C762 1.368 . S
C778 C774 1.368 . S
C778 C777 1.523 . S
H779 C754 0.950 . S
H780 C756 0.950 . S
H781 C757 0.949 . S
H782 C759 0.950 . S
H783 C761 0.950 . S
C784 C785 1.334 1_554 S
C784 C786 1.327 . S
C784 H809 0.950 . S
C785 C784 1.334 1_556 S
C785 C801 1.332 1_556 S
C786 C784 1.327 . S
C786 C805 1.429 . S
C786 H810 0.950 . S
C787 C804 1.574 . S
C787 C806 1.368 . S
C787 H811 0.949 . S
H788 C792 0.949 . S
C789 C790 1.349 . S
C789 C791 1.327 . S
C789 H812 0.950 . S
C790 C789 1.349 . S
C790 C802 1.349 . S
C791 C789 1.327 . S
C791 C807 1.429 . S
C791 H813 0.950 . S
C792 H788 0.949 . S
C792 C800 1.574 . S
C792 C808 1.368 . S
H793 C801 0.950 . S
H794 C799 0.950 . S
H795 C800 0.949 . S
H796 C802 0.950 . S
H797 C803 0.950 . S
H798 C804 0.949 . S
C799 H794 0.950 . S
C799 C801 1.327 . S
C799 C805 1.429 . S
C800 C792 1.574 . S
C800 H795 0.949 . S
C800 C806 1.368 . S
C801 C785 1.332 1_554 S
C801 H793 0.950 . S
C801 C799 1.327 . S
C802 C790 1.349 . S
C802 H796 0.950 . S
C802 C803 1.327 . S
C803 H797 0.950 . S
C803 C802 1.327 . S
C803 C807 1.429 . S
C804 C787 1.574 . S
C804 H798 0.949 . S
C804 C808 1.368 . S
C805 C786 1.429 . S
C805 C799 1.429 . S
C805 C806 1.523 . S
C806 C787 1.368 . S
C806 C800 1.368 . S
C806 C805 1.523 . S
C807 C791 1.429 . S
C807 C803 1.429 . S
C807 C808 1.523 . S
C808 C792 1.368 . S
C808 C804 1.368 . S
C808 C807 1.523 . S
H809 C784 0.950 . S
H810 C786 0.950 . S
H811 C787 0.949 . S
H812 C789 0.950 . S
H813 C791 0.950 . S
C814 C815 1.329 1_554 S
C814 C816 1.327 . S
C814 H839 0.950 . S
C815 C814 1.329 1_556 S
C815 C831 1.337 1_556 S
C816 C814 1.327 . S
C816 C835 1.429 . S
C816 H840 0.950 . S
C817 C834 1.574 . S
C817 C836 1.368 . S
C817 H841 0.949 . S
H818 C822 0.949 . S
C819 C820 1.349 . S
C819 C821 1.327 . S
C819 H842 0.950 . S
C820 C819 1.349 . S
C820 C832 1.349 . S
C821 C819 1.327 . S
C821 C837 1.429 . S
C821 H843 0.950 . S
C822 H818 0.949 . S
C822 C830 1.574 . S
C822 C838 1.368 . S
H823 C831 0.950 1_556 S
H824 C829 0.950 . S
H825 C830 0.949 . S
H826 C832 0.950 . S
H827 C833 0.950 . S
H828 C834 0.949 . S
C829 H824 0.950 . S
C829 C831 1.327 . S
C829 C835 1.429 . S
C830 C822 1.574 . S
C830 H825 0.949 . S
C830 C836 1.368 . S
C831 C815 1.337 1_554 S
C831 H823 0.950 1_554 S
C831 C829 1.327 . S
C832 C820 1.349 . S
C832 H826 0.950 . S
C832 C833 1.327 . S
C833 H827 0.950 . S
C833 C832 1.327 . S
C833 C837 1.429 . S
C834 C817 1.574 . S
C834 H828 0.949 . S
C834 C838 1.368 . S
C835 C816 1.429 . S
C835 C829 1.429 . S
C835 C836 1.523 . S
C836 C817 1.368 . S
C836 C830 1.368 . S
C836 C835 1.523 . S
C837 C821 1.429 . S
C837 C833 1.429 . S
C837 C838 1.523 . S
C838 C822 1.368 . S
C838 C834 1.368 . S
C838 C837 1.523 . S
H839 C814 0.950 . S
H840 C816 0.950 . S
H841 C817 0.949 . S
H842 C819 0.950 . S
H843 C821 0.950 . S
C844 C845 1.349 1_455 S
C844 C846 1.327 . S
C844 H869 0.950 . S
C845 C844 1.349 1_655 S
C845 C861 1.349 . S
C846 C844 1.327 . S
C846 C865 1.429 1_455 S
C846 H870 0.950 . S
C847 C864 1.574 . S
C847 C866 1.368 . S
C847 H871 0.949 . S
H848 C852 0.949 . S
C849 C850 1.331 1_554 S
C849 C851 1.327 . S
C849 H872 0.950 . S
C850 C849 1.331 1_556 S
C850 C862 1.335 1_656 S
C851 C849 1.327 . S
C851 C867 1.429 . S
C851 H873 0.950 . S
C852 H848 0.949 . S
C852 C860 1.574 . S
C852 C868 1.368 1_455 S
H853 C861 0.950 . S
H854 C859 0.950 . S
H855 C860 0.949 . S
H856 C862 0.959 . S
H857 C863 0.950 . S
H858 C864 0.949 . S
C859 H854 0.950 . S
C859 C861 1.327 . S
C859 C865 1.429 . S
C860 C852 1.574 . S
C860 H855 0.949 . S
C860 C866 1.368 1_455 S
C861 C845 1.349 . S
C861 H853 0.950 . S
C861 C859 1.327 . S
C862 C850 1.335 1_454 S
C862 H856 0.959 . S
C862 C863 1.327 . S
C863 H857 0.950 . S
C863 C862 1.327 . S
C863 C867 1.429 1_455 S
C864 C847 1.574 . S
C864 H858 0.949 . S
C864 C868 1.368 . S
C865 C846 1.429 1_655 S
C865 C859 1.429 . S
C865 C866 1.523 . S
C866 C847 1.368 . S
C866 C860 1.368 1_655 S
C866 C865 1.523 . S
C867 C851 1.429 . S
C867 C863 1.429 1_655 S
C867 C868 1.523 . S
C868 C852 1.368 1_655 S
C868 C864 1.368 . S
C868 C867 1.523 . S
H869 C844 0.950 . S
H870 C846 0.950 . S
H871 C847 0.949 . S
H872 C849 0.950 . S
H873 C851 0.950 . S
C874 C875 1.349 1_545 S
C874 C876 1.327 . S
C874 H899 0.950 . S
C875 C874 1.349 1_565 S
C875 C891 1.349 . S
C876 C874 1.327 . S
C876 C895 1.429 1_545 S
C876 H900 0.950 . S
C877 C894 1.574 . S
C877 C896 1.368 . S
C877 H901 0.949 . S
H878 C882 0.949 . S
C879 C880 1.335 1_554 S
C879 C881 1.327 . S
C879 H902 0.948 1_554 S
C880 C879 1.335 1_556 S
C880 C892 1.331 1_566 S
C881 C879 1.327 . S
C881 C897 1.429 . S
C881 H903 0.950 . S
C882 H878 0.949 . S
C882 C890 1.574 . S
C882 C898 1.368 1_545 S
H883 C891 0.950 . S
H884 C889 0.950 . S
H885 C890 0.949 . S
H886 C892 0.950 . S
H887 C893 0.950 . S
H888 C894 0.949 . S
C889 H884 0.950 . S
C889 C891 1.327 . S
C889 C895 1.429 . S
C890 C882 1.574 . S
C890 H885 0.949 . S
C890 C896 1.368 1_545 S
C891 C875 1.349 . S
C891 H883 0.950 . S
C891 C889 1.327 . S
C892 C880 1.331 1_544 S
C892 H886 0.950 . S
C892 C893 1.327 . S
C893 H887 0.950 . S
C893 C892 1.327 . S
C893 C897 1.429 1_545 S
C894 C877 1.574 . S
C894 H888 0.949 . S
C894 C898 1.368 . S
C895 C876 1.429 1_565 S
C895 C889 1.429 . S
C895 C896 1.523 . S
C896 C877 1.368 . S
C896 C890 1.368 1_565 S
C896 C895 1.523 . S
C897 C881 1.429 . S
C897 C893 1.429 1_565 S
C897 C898 1.523 . S
C898 C882 1.368 1_565 S
C898 C894 1.368 . S
C898 C897 1.523 . S
H899 C874 0.950 . S
H900 C876 0.950 . S
H901 C877 0.949 . S
H902 C879 0.948 1_556 S
H903 C881 0.950 . S
C904 C905 1.349 1_655 S
C904 C906 1.327 . S
C904 H929 0.950 . S
C905 C904 1.349 1_455 S
C905 C921 1.349 . S
C906 C904 1.327 . S
C906 C925 1.429 1_655 S
C906 H930 0.950 . S
C907 C924 1.574 . S
C907 C926 1.368 . S
C907 H931 0.949 . S
H908 C912 0.953 . S
C909 C910 1.349 . S
C909 C911 1.327 . S
C909 H932 0.950 . S
C910 C909 1.349 . S
C910 C922 1.349 . S
C911 C909 1.327 . S
C911 C927 1.429 . S
C911 H933 0.950 . S
C912 H908 0.953 . S
C912 C920 1.574 . S
C912 C928 1.363 1_655 S
H913 C921 0.950 . S
H914 C919 0.950 . S
H915 C920 0.949 . S
H916 C922 0.950 1_655 S
H917 C923 0.950 1_655 S
H918 C924 0.949 . S
C919 H914 0.950 . S
C919 C921 1.327 . S
C919 C925 1.429 . S
C920 C912 1.574 . S
C920 H915 0.949 . S
C920 C926 1.368 1_655 S
C921 C905 1.349 . S
C921 H913 0.950 . S
C921 C919 1.327 . S
C922 C910 1.349 . S
C922 H916 0.950 1_455 S
C922 C923 1.327 . S
C923 H917 0.950 1_455 S
C923 C922 1.327 . S
C923 C927 1.429 . S
C924 C907 1.574 . S
C924 H918 0.949 . S
C924 C928 1.368 . S
C925 C906 1.429 1_455 S
C925 C919 1.429 . S
C925 C926 1.523 . S
C926 C907 1.368 . S
C926 C920 1.368 1_455 S
C926 C925 1.523 . S
C927 C911 1.429 . S
C927 C923 1.429 . S
C927 C928 1.523 . S
C928 C912 1.363 1_455 S
C928 C924 1.368 . S
C928 C927 1.523 . S
H929 C904 0.950 . S
H930 C906 0.950 . S
H931 C907 0.949 . S
H932 C909 0.950 . S
H933 C911 0.950 . S
C934 C935 1.349 . S
C934 C936 1.327 . S
C934 H959 0.950 . S
C935 C934 1.349 . S
C935 C951 1.349 1_545 S
C936 C934 1.327 . S
C936 C955 1.429 . S
C936 H960 0.950 . S
C937 C954 1.574 . S
C937 C956 1.368 1_565 S
C937 H961 0.949 . S
H938 C942 0.949 . S
C939 C940 1.349 1_565 S
C939 C941 1.327 . S
C939 H962 0.950 . S
C940 C939 1.349 1_545 S
C940 C952 1.349 . S
C941 C939 1.327 . S
C941 C957 1.429 1_565 S
C941 H963 0.950 . S
C942 H938 0.949 . S
C942 C950 1.574 . S
C942 C958 1.368 . S
H943 C951 0.950 . S
H944 C949 0.950 . S
H945 C950 0.949 . S
H946 C952 0.950 . S
H947 C953 0.950 . S
H948 C954 0.949 . S
C949 H944 0.950 . S
C949 C951 1.327 . S
C949 C955 1.429 1_565 S
C950 C942 1.574 . S
C950 H945 0.949 . S
C950 C956 1.368 . S
C951 C935 1.349 1_565 S
C951 H943 0.950 . S
C951 C949 1.327 . S
C952 C940 1.349 . S
C952 H946 0.950 . S
C952 C953 1.327 . S
C953 H947 0.950 . S
C953 C952 1.327 . S
C953 C957 1.429 . S
C954 C937 1.574 . S
C954 H948 0.949 . S
C954 C958 1.368 1_565 S
C955 C936 1.429 . S
C955 C949 1.429 1_545 S
C955 C956 1.523 . S
C956 C937 1.368 1_545 S
C956 C950 1.368 . S
C956 C955 1.523 . S
C957 C941 1.429 1_545 S
C957 C953 1.429 . S
C957 C958 1.523 . S
C958 C942 1.368 . S
C958 C954 1.368 1_545 S
C958 C957 1.523 . S
H959 C934 0.950 . S
H960 C936 0.950 . S
H961 C937 0.949 . S
H962 C939 0.950 . S
H963 C941 0.950 . S
C964 C965 1.349 . S
C964 C966 1.327 . S
C964 H989 0.950 . S
C965 C964 1.349 . S
C965 C981 1.349 . S
C966 C964 1.327 . S
C966 C985 1.429 . S
C966 H990 0.950 . S
C967 C984 1.574 . S
C967 C986 1.368 . S
C967 H991 0.949 . S
H968 C972 0.949 . S
C969 C970 1.349 . S
C969 C971 1.327 . S
C969 H992 0.950 . S
C970 C969 1.349 . S
C970 C982 1.349 . S
C971 C969 1.327 . S
C971 C987 1.429 . S
C971 H993 0.950 . S
C972 H968 0.949 . S
C972 C980 1.574 . S
C972 C988 1.368 . S
H973 C981 0.950 . S
H974 C979 0.950 . S
H975 C980 0.949 . S
H976 C982 0.950 . S
H977 C983 0.950 . S
H978 C984 0.949 . S
C979 H974 0.950 . S
C979 C981 1.327 . S
C979 C985 1.429 . S
C980 C972 1.574 . S
C980 H975 0.949 . S
C980 C986 1.368 . S
C981 C965 1.349 . S
C981 H973 0.950 . S
C981 C979 1.327 . S
C982 C970 1.349 . S
C982 H976 0.950 . S
C982 C983 1.327 . S
C983 H977 0.950 . S
C983 C982 1.327 . S
C983 C987 1.429 . S
C984 C967 1.574 . S
C984 H978 0.949 . S
C984 C988 1.368 . S
C985 C966 1.429 . S
C985 C979 1.429 . S
C985 C986 1.523 . S
C986 C967 1.368 . S
C986 C980 1.368 . S
C986 C985 1.523 . S
C987 C971 1.429 . S
C987 C983 1.429 . S
C987 C988 1.523 . S
C988 C972 1.368 . S
C988 C984 1.368 . S
C988 C987 1.523 . S
H989 C964 0.950 . S
H990 C966 0.950 . S
H991 C967 0.949 . S
H992 C969 0.950 . S
H993 C971 0.950 . S
C994 C995 1.349 . S
C994 C996 1.327 . S
C994 H1019 0.950 . S
C995 C994 1.349 . S
C995 C1011 1.349 . S
C996 C994 1.327 . S
C996 C1015 1.429 . S
C996 H1020 0.950 . S
C997 C1014 1.574 . S
C997 C1016 1.368 . S
C997 H1021 0.949 . S
H998 C1002 0.949 . S
C999 C1000 1.349 . S
C999 C1001 1.327 . S
C999 H1022 0.950 . S
C1000 C999 1.349 . S
C1000 C1012 1.349 . S
C1001 C999 1.327 . S
C1001 C1017 1.429 . S
C1001 H1023 0.950 . S
C1002 H998 0.949 . S
C1002 C1010 1.574 . S
C1002 C1018 1.368 . S
H1003 C1011 0.950 . S
H1004 C1009 0.950 . S
H1005 C1010 0.949 . S
H1006 C1012 0.950 . S
H1007 C1013 0.950 . S
H1008 C1014 0.949 . S
C1009 H1004 0.950 . S
C1009 C1011 1.327 . S
C1009 C1015 1.429 . S
C1010 C1002 1.574 . S
C1010 H1005 0.949 . S
C1010 C1016 1.368 . S
C1011 C995 1.349 . S
C1011 H1003 0.950 . S
C1011 C1009 1.327 . S
C1012 C1000 1.349 . S
C1012 H1006 0.950 . S
C1012 C1013 1.327 . S
C1013 H1007 0.950 . S
C1013 C1012 1.327 . S
C1013 C1017 1.429 . S
C1014 C997 1.574 . S
C1014 H1008 0.949 . S
C1014 C1018 1.368 . S
C1015 C996 1.429 . S
C1015 C1009 1.429 . S
C1015 C1016 1.523 . S
C1016 C997 1.368 . S
C1016 C1010 1.368 . S
C1016 C1015 1.523 . S
C1017 C1001 1.429 . S
C1017 C1013 1.429 . S
C1017 C1018 1.523 . S
C1018 C1002 1.368 . S
C1018 C1014 1.368 . S
C1018 C1017 1.523 . S
H1019 C994 0.950 . S
H1020 C996 0.950 . S
H1021 C997 0.949 . S
H1022 C999 0.950 . S
H1023 C1001 0.950 . S
C1024 C1025 1.328 1_556 S
C1024 C1026 1.327 . S
C1024 H1049 0.950 . S
C1025 C1024 1.328 1_554 S
C1025 C1041 1.338 1_554 S
C1026 C1024 1.327 . S
C1026 C1045 1.429 . S
C1026 H1050 0.950 . S
C1027 C1044 1.574 . S
C1027 C1046 1.368 . S
C1027 H1051 0.949 . S
H1028 C1032 0.949 . S
C1029 C1030 1.349 . S
C1029 C1031 1.327 . S
C1029 H1052 0.950 . S
C1030 C1029 1.349 . S
C1030 C1042 1.349 . S
C1031 C1029 1.327 . S
C1031 C1047 1.429 . S
C1031 H1053 0.950 . S
C1032 H1028 0.949 . S
C1032 C1040 1.574 . S
C1032 C1048 1.368 . S
H1033 C1041 0.950 1_554 S
H1034 C1039 0.950 . S
H1035 C1040 0.949 . S
H1036 C1042 0.950 . S
H1037 C1043 0.950 . S
H1038 C1044 0.949 . S
C1039 H1034 0.950 . S
C1039 C1041 1.327 . S
C1039 C1045 1.429 . S
C1040 C1032 1.574 . S
C1040 H1035 0.949 . S
C1040 C1046 1.368 . S
C1041 C1025 1.338 1_556 S
C1041 H1033 0.950 1_556 S
C1041 C1039 1.327 . S
C1042 C1030 1.349 . S
C1042 H1036 0.950 . S
C1042 C1043 1.327 . S
C1043 H1037 0.950 . S
C1043 C1042 1.327 . S
C1043 C1047 1.429 . S
C1044 C1027 1.574 . S
C1044 H1038 0.949 . S
C1044 C1048 1.368 . S
C1045 C1026 1.429 . S
C1045 C1039 1.429 . S
C1045 C1046 1.523 . S
C1046 C1027 1.368 . S
C1046 C1040 1.368 . S
C1046 C1045 1.523 . S
C1047 C1031 1.429 . S
C1047 C1043 1.429 . S
C1047 C1048 1.523 . S
C1048 C1032 1.368 . S
C1048 C1044 1.368 . S
C1048 C1047 1.523 . S
H1049 C1024 0.950 . S
H1050 C1026 0.950 . S
H1051 C1027 0.949 . S
H1052 C1029 0.950 . S
H1053 C1031 0.950 . S
C1054 C1055 1.349 . S
C1054 C1056 1.327 . S
C1054 H1079 0.950 . S
C1055 C1054 1.349 . S
C1055 C1071 1.349 . S
C1056 C1054 1.327 . S
C1056 C1075 1.429 . S
C1056 H1080 0.950 . S
C1057 C1074 1.574 . S
C1057 C1076 1.368 . S
C1057 H1081 0.949 . S
H1058 C1062 0.949 . S
C1059 C1060 1.329 1_556 S
C1059 C1061 1.327 . S
C1059 H1082 0.950 . S
C1060 C1059 1.329 1_554 S
C1060 C1072 1.337 1_554 S
C1061 C1059 1.327 . S
C1061 C1077 1.429 . S
C1061 H1083 0.950 . S
C1062 H1058 0.949 . S
C1062 C1070 1.574 . S
C1062 C1078 1.368 . S
H1063 C1071 0.950 . S
H1064 C1069 0.950 . S
H1065 C1070 0.949 . S
H1066 C1072 0.950 1_554 S
H1067 C1073 0.950 . S
H1068 C1074 0.949 . S
C1069 H1064 0.950 . S
C1069 C1071 1.327 . S
C1069 C1075 1.429 . S
C1070 C1062 1.574 . S
C1070 H1065 0.949 . S
C1070 C1076 1.368 . S
C1071 C1055 1.349 . S
C1071 H1063 0.950 . S
C1071 C1069 1.327 . S
C1072 C1060 1.337 1_556 S
C1072 H1066 0.950 1_556 S
C1072 C1073 1.327 . S
C1073 H1067 0.950 . S
C1073 C1072 1.327 . S
C1073 C1077 1.429 . S
C1074 C1057 1.574 . S
C1074 H1068 0.949 . S
C1074 C1078 1.368 . S
C1075 C1056 1.429 . S
C1075 C1069 1.429 . S
C1075 C1076 1.523 . S
C1076 C1057 1.368 . S
C1076 C1070 1.368 . S
C1076 C1075 1.523 . S
C1077 C1061 1.429 . S
C1077 C1073 1.429 . S
C1077 C1078 1.523 . S
C1078 C1062 1.368 . S
C1078 C1074 1.368 . S
C1078 C1077 1.523 . S
H1079 C1054 0.950 . S
H1080 C1056 0.950 . S
H1081 C1057 0.949 . S
H1082 C1059 0.950 . S
H1083 C1061 0.950 . S
C1084 C1085 1.349 . S
C1084 C1086 1.327 . S
C1084 H1109 0.950 . S
C1085 C1084 1.349 . S
C1085 C1101 1.349 1_455 S
C1086 C1084 1.327 . S
C1086 C1105 1.429 . S
C1086 H1110 0.950 . S
C1087 C1104 1.574 . S
C1087 C1106 1.368 1_655 S
C1087 H1111 0.949 . S
H1088 C1092 0.949 . S
C1089 C1090 1.358 1_556 S
C1089 C1091 1.326 1_455 S
C1089 H1112 0.925 1_455 S
C1090 C1089 1.358 1_554 S
C1090 C1102 1.337 1_554 S
C1091 C1089 1.326 1_655 S
C1091 C1107 1.428 1_655 S
C1091 H1113 0.951 . S
C1092 H1088 0.949 . S
C1092 C1100 1.574 . S
C1092 C1108 1.368 . S
H1093 C1101 0.950 . S
H1094 C1099 0.950 . S
H1095 C1100 0.949 . S
H1096 C1102 0.950 1_554 S
H1097 C1103 0.950 . S
H1098 C1104 0.949 . S
C1099 H1094 0.950 . S
C1099 C1101 1.327 . S
C1099 C1105 1.429 1_655 S
C1100 C1092 1.574 . S
C1100 H1095 0.949 . S
C1100 C1106 1.368 . S
C1101 C1085 1.349 1_655 S
C1101 H1093 0.950 . S
C1101 C1099 1.327 . S
C1102 C1090 1.337 1_556 S
C1102 H1096 0.950 1_556 S
C1102 C1103 1.327 . S
C1103 H1097 0.950 . S
C1103 C1102 1.327 . S
C1103 C1107 1.429 . S
C1104 C1087 1.574 . S
C1104 H1098 0.949 . S
C1104 C1108 1.368 1_655 S
C1105 C1086 1.429 . S
C1105 C1099 1.429 1_455 S
C1105 C1106 1.523 . S
C1106 C1087 1.368 1_455 S
C1106 C1100 1.368 . S
C1106 C1105 1.523 . S
C1107 C1091 1.428 1_455 S
C1107 C1103 1.429 . S
C1107 C1108 1.523 . S
C1108 C1092 1.368 . S
C1108 C1104 1.368 1_455 S
C1108 C1107 1.523 . S
H1109 C1084 0.950 . S
H1110 C1086 0.950 . S
H1111 C1087 0.949 . S
H1112 C1089 0.925 1_655 S
H1113 C1091 0.951 . S
C1114 C1115 1.349 1_565 S
C1114 C1116 1.327 . S
C1114 H1139 0.950 . S
C1115 C1114 1.349 1_545 S
C1115 C1131 1.349 . S
C1116 C1114 1.327 . S
C1116 C1135 1.429 1_565 S
C1116 H1140 0.950 . S
C1117 C1134 1.574 . S
C1117 C1136 1.368 . S
C1117 H1141 0.949 . S
H1118 C1122 0.949 . S
C1119 C1120 1.329 1_556 S
C1119 C1121 1.327 . S
C1119 H1142 0.950 . S
C1120 C1119 1.329 1_554 S
C1120 C1132 1.337 1_544 S
C1121 C1119 1.327 . S
C1121 C1137 1.429 . S
C1121 H1143 0.950 . S
C1122 H1118 0.949 . S
C1122 C1130 1.574 . S
C1122 C1138 1.368 1_565 S
H1123 C1131 0.950 . S
H1124 C1129 0.950 . S
H1125 C1130 0.949 . S
H1126 C1132 0.950 1_554 S
H1127 C1133 0.950 . S
H1128 C1134 0.949 . S
C1129 H1124 0.950 . S
C1129 C1131 1.327 . S
C1129 C1135 1.429 . S
C1130 C1122 1.574 . S
C1130 H1125 0.949 . S
C1130 C1136 1.368 1_565 S
C1131 C1115 1.349 . S
C1131 H1123 0.950 . S
C1131 C1129 1.327 . S
C1132 C1120 1.337 1_566 S
C1132 H1126 0.950 1_556 S
C1132 C1133 1.327 . S
C1133 H1127 0.950 . S
C1133 C1132 1.327 . S
C1133 C1137 1.429 1_565 S
C1134 C1117 1.574 . S
C1134 H1128 0.949 . S
C1134 C1138 1.368 . S
C1135 C1116 1.429 1_545 S
C1135 C1129 1.429 . S
C1135 C1136 1.523 . S
C1136 C1117 1.368 . S
C1136 C1130 1.368 1_545 S
C1136 C1135 1.523 . S
C1137 C1121 1.429 . S
C1137 C1133 1.429 1_545 S
C1137 C1138 1.523 . S
C1138 C1122 1.368 1_545 S
C1138 C1134 1.368 . S
C1138 C1137 1.523 . S
H1139 C1114 0.950 . S
H1140 C1116 0.950 . S
H1141 C1117 0.949 . S
H1142 C1119 0.950 . S
H1143 C1121 0.950 . S
C1144 C1145 1.349 . S
C1144 C1146 1.327 . S
C1144 H1169 0.950 . S
C1145 C1144 1.349 . S
C1145 C1161 1.349 1_655 S
C1146 C1144 1.327 . S
C1146 C1165 1.429 . S
C1146 H1170 0.950 . S
C1147 C1164 1.573 1_455 S
C1147 C1166 1.350 1_455 S
C1147 H1171 0.968 . S
H1148 C1152 0.949 . S
C1149 C1150 1.349 . S
C1149 C1151 1.327 . S
C1149 H1172 0.950 1_655 S
C1150 C1149 1.349 . S
C1150 C1162 1.349 . S
C1151 C1149 1.327 . S
C1151 C1167 1.429 . S
C1151 H1173 0.950 1_655 S
C1152 H1148 0.949 . S
C1152 C1160 1.574 . S
C1152 C1168 1.368 . S
H1153 C1161 0.950 . S
H1154 C1159 0.950 . S
H1155 C1160 0.949 . S
H1156 C1162 0.950 . S
H1157 C1163 0.950 . S
H1158 C1164 0.950 1_455 S
C1159 H1154 0.950 . S
C1159 C1161 1.327 . S
C1159 C1165 1.429 1_455 S
C1160 C1152 1.574 . S
C1160 H1155 0.949 . S
C1160 C1166 1.368 . S
C1161 C1145 1.349 1_455 S
C1161 H1153 0.950 . S
C1161 C1159 1.327 . S
C1162 C1150 1.349 . S
C1162 H1156 0.950 . S
C1162 C1163 1.327 . S
C1163 H1157 0.950 . S
C1163 C1162 1.327 . S
C1163 C1167 1.429 . S
C1164 C1147 1.573 1_655 S
C1164 H1158 0.950 1_655 S
C1164 C1168 1.367 . S
C1165 C1146 1.429 . S
C1165 C1159 1.429 1_655 S
C1165 C1166 1.523 . S
C1166 C1147 1.350 1_655 S
C1166 C1160 1.368 . S
C1166 C1165 1.523 . S
C1167 C1151 1.429 . S
C1167 C1163 1.429 . S
C1167 C1168 1.523 . S
C1168 C1152 1.368 . S
C1168 C1164 1.367 . S
C1168 C1167 1.523 . S
H1169 C1144 0.950 . S
H1170 C1146 0.950 . S
H1171 C1147 0.968 . S
H1172 C1149 0.950 1_455 S
H1173 C1151 0.950 1_455 S
C1174 C1175 1.331 1_545 S
C1174 C1176 1.329 . S
C1174 H1199 0.967 . S
C1175 C1174 1.331 1_565 S
C1175 C1191 1.349 . S
C1176 C1174 1.329 . S
C1176 C1195 1.429 1_545 S
C1176 H1200 0.950 . S
C1177 C1194 1.574 . S
C1177 C1196 1.368 . S
C1177 H1201 0.949 . S
H1178 C1182 0.949 . S
C1179 C1180 1.349 . S
C1179 C1181 1.327 . S
C1179 H1202 0.950 . S
C1180 C1179 1.349 . S
C1180 C1192 1.349 1_565 S
C1181 C1179 1.327 . S
C1181 C1197 1.429 . S
C1181 H1203 0.950 . S
C1182 H1178 0.949 . S
C1182 C1190 1.574 . S
C1182 C1198 1.368 1_545 S
H1183 C1191 0.950 . S
H1184 C1189 0.950 . S
H1185 C1190 0.949 . S
H1186 C1192 0.950 . S
H1187 C1193 0.950 . S
H1188 C1194 0.949 . S
C1189 H1184 0.950 . S
C1189 C1191 1.327 . S
C1189 C1195 1.429 . S
C1190 C1182 1.574 . S
C1190 H1185 0.949 . S
C1190 C1196 1.368 1_545 S
C1191 C1175 1.349 . S
C1191 H1183 0.950 . S
C1191 C1189 1.327 . S
C1192 C1180 1.349 1_545 S
C1192 H1186 0.950 . S
C1192 C1193 1.327 . S
C1193 H1187 0.950 . S
C1193 C1192 1.327 . S
C1193 C1197 1.429 1_545 S
C1194 C1177 1.574 . S
C1194 H1188 0.949 . S
C1194 C1198 1.368 . S
C1195 C1176 1.429 1_565 S
C1195 C1189 1.429 . S
C1195 C1196 1.523 . S
C1196 C1177 1.368 . S
C1196 C1190 1.368 1_565 S
C1196 C1195 1.523 . S
C1197 C1181 1.429 . S
C1197 C1193 1.429 1_565 S
C1197 C1198 1.523 . S
C1198 C1182 1.368 1_565 S
C1198 C1194 1.368 . S
C1198 C1197 1.523 . S
H1199 C1174 0.967 . S
H1200 C1176 0.950 . S
H1201 C1177 0.949 . S
H1202 C1179 0.950 . S
H1203 C1181 0.950 . S
C1204 C1205 1.349 . S
C1204 C1206 1.327 . S
C1204 H1229 0.950 . S
C1205 C1204 1.349 . S
C1205 C1221 1.349 . S
C1206 C1204 1.327 . S
C1206 C1225 1.429 . S
C1206 H1230 0.950 . S
C1207 C1224 1.574 . S
C1207 C1226 1.368 . S
C1207 H1231 0.949 . S
H1208 C1212 0.949 . S
C1209 C1210 1.349 . S
C1209 C1211 1.327 . S
C1209 H1232 0.950 . S
C1210 C1209 1.349 . S
C1210 C1222 1.349 . S
C1211 C1209 1.327 . S
C1211 C1227 1.429 . S
C1211 H1233 0.950 . S
C1212 H1208 0.949 . S
C1212 C1220 1.574 . S
C1212 C1228 1.368 . S
H1213 C1221 0.950 . S
H1214 C1219 0.950 . S
H1215 C1220 0.949 . S
H1216 C1222 0.950 . S
H1217 C1223 0.950 . S
H1218 C1224 0.949 . S
C1219 H1214 0.950 . S
C1219 C1221 1.327 . S
C1219 C1225 1.429 . S
C1220 C1212 1.574 . S
C1220 H1215 0.949 . S
C1220 C1226 1.368 . S
C1221 C1205 1.349 . S
C1221 H1213 0.950 . S
C1221 C1219 1.327 . S
C1222 C1210 1.349 . S
C1222 H1216 0.950 . S
C1222 C1223 1.327 . S
C1223 H1217 0.950 . S
C1223 C1222 1.327 . S
C1223 C1227 1.429 . S
C1224 C1207 1.574 . S
C1224 H1218 0.949 . S
C1224 C1228 1.368 . S
C1225 C1206 1.429 . S
C1225 C1219 1.429 . S
C1225 C1226 1.523 . S
C1226 C1207 1.368 . S
C1226 C1220 1.368 . S
C1226 C1225 1.523 . S
C1227 C1211 1.429 . S
C1227 C1223 1.429 . S
C1227 C1228 1.523 . S
C1228 C1212 1.368 . S
C1228 C1224 1.368 . S
C1228 C1227 1.523 . S
H1229 C1204 0.950 . S
H1230 C1206 0.950 . S
H1231 C1207 0.949 . S
H1232 C1209 0.950 . S
H1233 C1211 0.950 . S
C1234 C1235 1.349 . S
C1234 C1236 1.327 . S
C1234 H1259 0.950 . S
C1235 C1234 1.349 . S
C1235 C1251 1.349 . S
C1236 C1234 1.327 . S
C1236 C1255 1.429 . S
C1236 H1260 0.950 . S
C1237 C1254 1.574 . S
C1237 C1256 1.368 . S
C1237 H1261 0.949 . S
H1238 C1242 0.949 . S
C1239 C1240 1.349 . S
C1239 C1241 1.327 . S
C1239 H1262 0.950 . S
C1240 C1239 1.349 . S
C1240 C1252 1.349 . S
C1241 C1239 1.327 . S
C1241 C1257 1.429 . S
C1241 H1263 0.950 . S
C1242 H1238 0.949 . S
C1242 C1250 1.574 . S
C1242 C1258 1.368 . S
H1243 C1251 0.950 . S
H1244 C1249 0.950 . S
H1245 C1250 0.949 . S
H1246 C1252 0.950 . S
H1247 C1253 0.950 . S
H1248 C1254 0.949 . S
C1249 H1244 0.950 . S
C1249 C1251 1.327 . S
C1249 C1255 1.429 . S
C1250 C1242 1.574 . S
C1250 H1245 0.949 . S
C1250 C1256 1.368 . S
C1251 C1235 1.349 . S
C1251 H1243 0.950 . S
C1251 C1249 1.327 . S
C1252 C1240 1.349 . S
C1252 H1246 0.950 . S
C1252 C1253 1.327 . S
C1253 H1247 0.950 . S
C1253 C1252 1.327 . S
C1253 C1257 1.429 . S
C1254 C1237 1.574 . S
C1254 H1248 0.949 . S
C1254 C1258 1.368 . S
C1255 C1236 1.429 . S
C1255 C1249 1.429 . S
C1255 C1256 1.523 . S
C1256 C1237 1.368 . S
C1256 C1250 1.368 . S
C1256 C1255 1.523 . S
C1257 C1241 1.429 . S
C1257 C1253 1.429 . S
C1257 C1258 1.523 . S
C1258 C1242 1.368 . S
C1258 C1254 1.368 . S
C1258 C1257 1.523 . S
H1259 C1234 0.950 . S
H1260 C1236 0.950 . S
H1261 C1237 0.949 . S
H1262 C1239 0.950 . S
H1263 C1241 0.950 . S
C1264 C1265 1.349 . S
C1264 C1266 1.327 . S
C1264 H1289 0.950 . S
C1265 C1264 1.349 . S
C1265 C1281 1.349 . S
C1266 C1264 1.327 . S
C1266 C1285 1.429 . S
C1266 H1290 0.950 . S
C1267 C1284 1.574 . S
C1267 C1286 1.368 . S
C1267 H1291 0.949 . S
H1268 C1272 0.949 . S
C1269 C1270 1.349 . S
C1269 C1271 1.327 . S
C1269 H1292 0.950 . S
C1270 C1269 1.349 . S
C1270 C1282 1.349 . S
C1271 C1269 1.327 . S
C1271 C1287 1.429 . S
C1271 H1293 0.950 . S
C1272 H1268 0.949 . S
C1272 C1280 1.574 . S
C1272 C1288 1.368 . S
H1273 C1281 0.950 . S
H1274 C1279 0.950 . S
H1275 C1280 0.949 . S
H1276 C1282 0.950 . S
H1277 C1283 0.950 . S
H1278 C1284 0.949 . S
C1279 H1274 0.950 . S
C1279 C1281 1.327 . S
C1279 C1285 1.429 . S
C1280 C1272 1.574 . S
C1280 H1275 0.949 . S
C1280 C1286 1.368 . S
C1281 C1265 1.349 . S
C1281 H1273 0.950 . S
C1281 C1279 1.327 . S
C1282 C1270 1.349 . S
C1282 H1276 0.950 . S
C1282 C1283 1.327 . S
C1283 H1277 0.950 . S
C1283 C1282 1.327 . S
C1283 C1287 1.429 . S
C1284 C1267 1.574 . S
C1284 H1278 0.949 . S
C1284 C1288 1.368 . S
C1285 C1266 1.429 . S
C1285 C1279 1.429 . S
C1285 C1286 1.523 . S
C1286 C1267 1.368 . S
C1286 C1280 1.368 . S
C1286 C1285 1.523 . S
C1287 C1271 1.429 . S
C1287 C1283 1.429 . S
C1287 C1288 1.523 . S
C1288 C1272 1.368 . S
C1288 C1284 1.368 . S
C1288 C1287 1.523 . S
H1289 C1264 0.950 . S
H1290 C1266 0.950 . S
H1291 C1267 0.949 . S
H1292 C1269 0.950 . S
H1293 C1271 0.950 . S
C1294 C1295 1.349 . S
C1294 C1296 1.327 . S
C1294 H1319 0.950 . S
C1295 C1294 1.349 . S
C1295 C1311 1.349 . S
C1296 C1294 1.327 . S
C1296 C1315 1.429 . S
C1296 H1320 0.950 . S
C1297 C1314 1.574 . S
C1297 C1316 1.368 . S
C1297 H1321 0.949 . S
H1298 C1302 0.949 . S
C1299 C1300 1.349 . S
C1299 C1301 1.327 . S
C1299 H1322 0.950 . S
C1300 C1299 1.349 . S
C1300 C1312 1.349 . S
C1301 C1299 1.327 . S
C1301 C1317 1.429 . S
C1301 H1323 0.950 . S
C1302 H1298 0.949 . S
C1302 C1310 1.574 . S
C1302 C1318 1.368 . S
H1303 C1311 0.950 . S
H1304 C1309 0.950 . S
H1305 C1310 0.949 . S
H1306 C1312 0.950 . S
H1307 C1313 0.950 . S
H1308 C1314 0.949 . S
C1309 H1304 0.950 . S
C1309 C1311 1.327 . S
C1309 C1315 1.429 . S
C1310 C1302 1.574 . S
C1310 H1305 0.949 . S
C1310 C1316 1.368 . S
C1311 C1295 1.349 . S
C1311 H1303 0.950 . S
C1311 C1309 1.327 . S
C1312 C1300 1.349 . S
C1312 H1306 0.950 . S
C1312 C1313 1.327 . S
C1313 H1307 0.950 . S
C1313 C1312 1.327 . S
C1313 C1317 1.429 . S
C1314 C1297 1.574 . S
C1314 H1308 0.949 . S
C1314 C1318 1.368 . S
C1315 C1296 1.429 . S
C1315 C1309 1.429 . S
C1315 C1316 1.523 . S
C1316 C1297 1.368 . S
C1316 C1310 1.368 . S
C1316 C1315 1.523 . S
C1317 C1301 1.429 . S
C1317 C1313 1.429 . S
C1317 C1318 1.523 . S
C1318 C1302 1.368 . S
C1318 C1314 1.368 . S
C1318 C1317 1.523 . S
H1319 C1294 0.950 . S
H1320 C1296 0.950 . S
H1321 C1297 0.949 . S
H1322 C1299 0.950 . S
H1323 C1301 0.950 . S
C1324 C1325 1.349 . S
C1324 C1326 1.327 . S
C1324 H1349 0.950 . S
C1325 C1324 1.349 . S
C1325 C1341 1.349 . S
C1326 C1324 1.327 . S
C1326 C1345 1.429 . S
C1326 H1350 0.950 . S
C1327 C1344 1.574 . S
C1327 C1346 1.368 . S
C1327 H1351 0.949 . S
H1328 C1332 0.949 . S
C1329 C1330 1.349 . S
C1329 C1331 1.327 . S
C1329 H1352 0.950 . S
C1330 C1329 1.349 . S
C1330 C1342 1.349 . S
C1331 C1329 1.327 . S
C1331 C1347 1.429 . S
C1331 H1353 0.950 . S
C1332 H1328 0.949 . S
C1332 C1340 1.574 . S
C1332 C1348 1.368 . S
H1333 C1341 0.950 . S
H1334 C1339 0.950 . S
H1335 C1340 0.949 . S
H1336 C1342 0.950 . S
H1337 C1343 0.950 . S
H1338 C1344 0.949 . S
C1339 H1334 0.950 . S
C1339 C1341 1.327 . S
C1339 C1345 1.429 . S
C1340 C1332 1.574 . S
C1340 H1335 0.949 . S
C1340 C1346 1.368 . S
C1341 C1325 1.349 . S
C1341 H1333 0.950 . S
C1341 C1339 1.327 . S
C1342 C1330 1.349 . S
C1342 H1336 0.950 . S
C1342 C1343 1.327 . S
C1343 H1337 0.950 . S
C1343 C1342 1.327 . S
C1343 C1347 1.429 . S
C1344 C1327 1.574 . S
C1344 H1338 0.949 . S
C1344 C1348 1.368 . S
C1345 C1326 1.429 . S
C1345 C1339 1.429 . S
C1345 C1346 1.523 . S
C1346 C1327 1.368 . S
C1346 C1340 1.368 . S
C1346 C1345 1.523 . S
C1347 C1331 1.429 . S
C1347 C1343 1.429 . S
C1347 C1348 1.523 . S
C1348 C1332 1.368 . S
C1348 C1344 1.368 . S
C1348 C1347 1.523 . S
H1349 C1324 0.950 . S
H1350 C1326 0.950 . S
H1351 C1327 0.949 . S
H1352 C1329 0.950 . S
H1353 C1331 0.950 . S
C1354 C1355 1.349 . S
C1354 C1356 1.327 . S
C1354 H1379 0.950 . S
C1355 C1354 1.349 . S
C1355 C1371 1.349 . S
C1356 C1354 1.327 . S
C1356 C1375 1.429 . S
C1356 H1380 0.950 . S
C1357 C1374 1.574 . S
C1357 C1376 1.368 . S
C1357 H1381 0.949 . S
H1358 C1362 0.949 . S
C1359 C1360 1.349 . S
C1359 C1361 1.327 . S
C1359 H1382 0.950 . S
C1360 C1359 1.349 . S
C1360 C1372 1.349 . S
C1361 C1359 1.327 . S
C1361 C1377 1.429 . S
C1361 H1383 0.950 . S
C1362 H1358 0.949 . S
C1362 C1370 1.574 . S
C1362 C1378 1.368 . S
H1363 C1371 0.950 . S
H1364 C1369 0.950 . S
H1365 C1370 0.949 . S
H1366 C1372 0.950 . S
H1367 C1373 0.950 . S
H1368 C1374 0.949 . S
C1369 H1364 0.950 . S
C1369 C1371 1.327 . S
C1369 C1375 1.429 . S
C1370 C1362 1.574 . S
C1370 H1365 0.949 . S
C1370 C1376 1.368 . S
C1371 C1355 1.349 . S
C1371 H1363 0.950 . S
C1371 C1369 1.327 . S
C1372 C1360 1.349 . S
C1372 H1366 0.950 . S
C1372 C1373 1.327 . S
C1373 H1367 0.950 . S
C1373 C1372 1.327 . S
C1373 C1377 1.429 . S
C1374 C1357 1.574 . S
C1374 H1368 0.949 . S
C1374 C1378 1.368 . S
C1375 C1356 1.429 . S
C1375 C1369 1.429 . S
C1375 C1376 1.523 . S
C1376 C1357 1.368 . S
C1376 C1370 1.368 . S
C1376 C1375 1.523 . S
C1377 C1361 1.429 . S
C1377 C1373 1.429 . S
C1377 C1378 1.523 . S
C1378 C1362 1.368 . S
C1378 C1374 1.368 . S
C1378 C1377 1.523 . S
H1379 C1354 0.950 . S
H1380 C1356 0.950 . S
H1381 C1357 0.949 . S
H1382 C1359 0.950 . S
H1383 C1361 0.950 . S
C1384 C1385 1.349 . S
C1384 C1386 1.327 . S
C1384 H1409 0.950 . S
C1385 C1384 1.349 . S
C1385 C1401 1.349 . S
C1386 C1384 1.327 . S
C1386 C1405 1.429 . S
C1386 H1410 0.950 . S
C1387 C1404 1.574 1_556 S
C1387 C1406 1.368 . S
C1387 H1411 0.949 . S
H1388 C1392 0.949 . S
C1389 C1390 1.349 . S
C1389 C1391 1.327 . S
C1389 H1412 0.950 . S
C1390 C1389 1.349 . S
C1390 C1402 1.349 . S
C1391 C1389 1.327 . S
C1391 C1407 1.429 . S
C1391 H1413 0.950 . S
C1392 H1388 0.949 . S
C1392 C1400 1.574 . S
C1392 C1408 1.368 . S
H1393 C1401 0.950 . S
H1394 C1399 0.950 . S
H1395 C1400 0.949 . S
H1396 C1402 0.950 . S
H1397 C1403 0.950 . S
H1398 C1404 0.949 . S
C1399 H1394 0.950 . S
C1399 C1401 1.327 . S
C1399 C1405 1.429 . S
C1400 C1392 1.574 . S
C1400 H1395 0.949 . S
C1400 C1406 1.368 1_554 S
C1401 C1385 1.349 . S
C1401 H1393 0.950 . S
C1401 C1399 1.327 . S
C1402 C1390 1.349 . S
C1402 H1396 0.950 . S
C1402 C1403 1.327 . S
C1403 H1397 0.950 . S
C1403 C1402 1.327 . S
C1403 C1407 1.429 . S
C1404 C1387 1.574 1_554 S
C1404 H1398 0.949 . S
C1404 C1408 1.368 . S
C1405 C1386 1.429 . S
C1405 C1399 1.429 . S
C1405 C1406 1.523 . S
C1406 C1387 1.368 . S
C1406 C1400 1.368 1_556 S
C1406 C1405 1.523 . S
C1407 C1391 1.429 . S
C1407 C1403 1.429 . S
C1407 C1408 1.523 . S
C1408 C1392 1.368 . S
C1408 C1404 1.368 . S
C1408 C1407 1.523 . S
H1409 C1384 0.950 . S
H1410 C1386 0.950 . S
H1411 C1387 0.949 . S
H1412 C1389 0.950 . S
H1413 C1391 0.950 . S
C1414 C1415 1.349 . S
C1414 C1416 1.327 . S
C1414 H1439 0.950 . S
C1415 C1414 1.349 . S
C1415 C1431 1.349 . S
C1416 C1414 1.327 . S
C1416 C1435 1.429 . S
C1416 H1440 0.950 . S
C1417 C1434 1.574 1_554 S
C1417 C1436 1.368 . S
C1417 H1441 0.949 . S
H1418 C1422 0.949 . S
C1419 C1420 1.349 . S
C1419 C1421 1.327 . S
C1419 H1442 0.950 . S
C1420 C1419 1.349 . S
C1420 C1432 1.349 . S
C1421 C1419 1.327 . S
C1421 C1437 1.429 . S
C1421 H1443 0.950 . S
C1422 H1418 0.949 . S
C1422 C1430 1.574 . S
C1422 C1438 1.368 1_554 S
H1423 C1431 0.950 . S
H1424 C1429 0.950 . S
H1425 C1430 0.949 . S
H1426 C1432 0.950 . S
H1427 C1433 0.950 . S
H1428 C1434 0.949 . S
C1429 H1424 0.950 . S
C1429 C1431 1.327 . S
C1429 C1435 1.429 . S
C1430 C1422 1.574 . S
C1430 H1425 0.949 . S
C1430 C1436 1.368 . S
C1431 C1415 1.349 . S
C1431 H1423 0.950 . S
C1431 C1429 1.327 . S
C1432 C1420 1.349 . S
C1432 H1426 0.950 . S
C1432 C1433 1.327 . S
C1433 H1427 0.950 . S
C1433 C1432 1.327 . S
C1433 C1437 1.429 . S
C1434 C1417 1.574 1_556 S
C1434 H1428 0.949 . S
C1434 C1438 1.368 . S
C1435 C1416 1.429 . S
C1435 C1429 1.429 . S
C1435 C1436 1.523 . S
C1436 C1417 1.368 . S
C1436 C1430 1.368 . S
C1436 C1435 1.523 . S
C1437 C1421 1.429 . S
C1437 C1433 1.429 . S
C1437 C1438 1.523 . S
C1438 C1422 1.368 1_556 S
C1438 C1434 1.368 . S
C1438 C1437 1.523 . S
H1439 C1414 0.950 . S
H1440 C1416 0.950 . S
H1441 C1417 0.949 . S
H1442 C1419 0.950 . S
H1443 C1421 0.950 . S
C1444 C1445 1.349 . S
C1444 C1446 1.327 . S
C1444 H1469 0.950 . S
C1445 C1444 1.349 . S
C1445 C1461 1.349 . S
C1446 C1444 1.327 . S
C1446 C1465 1.429 . S
C1446 H1470 0.950 . S
C1447 C1464 1.574 1_554 S
C1447 C1466 1.368 . S
C1447 H1471 0.949 1_554 S
H1448 C1452 0.949 . S
C1449 C1450 1.349 . S
C1449 C1451 1.327 . S
C1449 H1472 0.950 . S
C1450 C1449 1.349 . S
C1450 C1462 1.349 . S
C1451 C1449 1.327 . S
C1451 C1467 1.429 . S
C1451 H1473 0.950 . S
C1452 H1448 0.949 . S
C1452 C1460 1.574 . S
C1452 C1468 1.368 1_554 S
H1453 C1461 0.950 . S
H1454 C1459 0.950 . S
H1455 C1460 0.949 . S
H1456 C1462 0.950 . S
H1457 C1463 0.950 . S
H1458 C1464 0.949 . S
C1459 H1454 0.950 . S
C1459 C1461 1.327 . S
C1459 C1465 1.429 . S
C1460 C1452 1.574 . S
C1460 H1455 0.949 . S
C1460 C1466 1.368 . S
C1461 C1445 1.349 . S
C1461 H1453 0.950 . S
C1461 C1459 1.327 . S
C1462 C1450 1.349 . S
C1462 H1456 0.950 . S
C1462 C1463 1.327 . S
C1463 H1457 0.950 . S
C1463 C1462 1.327 . S
C1463 C1467 1.429 . S
C1464 C1447 1.574 1_556 S
C1464 H1458 0.949 . S
C1464 C1468 1.368 . S
C1465 C1446 1.429 . S
C1465 C1459 1.429 . S
C1465 C1466 1.523 . S
C1466 C1447 1.368 . S
C1466 C1460 1.368 . S
C1466 C1465 1.523 . S
C1467 C1451 1.429 . S
C1467 C1463 1.429 . S
C1467 C1468 1.523 . S
C1468 C1452 1.368 1_556 S
C1468 C1464 1.368 . S
C1468 C1467 1.523 . S
H1469 C1444 0.950 . S
H1470 C1446 0.950 . S
H1471 C1447 0.949 1_556 S
H1472 C1449 0.950 . S
H1473 C1451 0.950 . S
C1474 C1475 1.349 . S
C1474 C1476 1.327 . S
C1474 H1499 0.950 . S
C1475 C1474 1.349 . S
C1475 C1491 1.349 . S
C1476 C1474 1.327 . S
C1476 C1495 1.429 . S
C1476 H1500 0.950 . S
C1477 C1494 1.574 . S
C1477 C1496 1.368 . S
C1477 H1501 0.949 . S
H1478 C1482 0.949 . S
C1479 C1480 1.349 . S
C1479 C1481 1.327 . S
C1479 H1502 0.950 . S
C1480 C1479 1.349 . S
C1480 C1492 1.349 . S
C1481 C1479 1.327 . S
C1481 C1497 1.429 . S
C1481 H1503 0.950 1_556 S
C1482 H1478 0.949 . S
C1482 C1490 1.574 . S
C1482 C1498 1.368 . S
H1483 C1491 0.950 . S
H1484 C1489 0.950 . S
H1485 C1490 0.949 . S
H1486 C1492 0.950 . S
H1487 C1493 0.950 . S
H1488 C1494 0.949 . S
C1489 H1484 0.950 . S
C1489 C1491 1.327 . S
C1489 C1495 1.429 . S
C1490 C1482 1.574 . S
C1490 H1485 0.949 . S
C1490 C1496 1.368 1_556 S
C1491 C1475 1.349 . S
C1491 H1483 0.950 . S
C1491 C1489 1.327 . S
C1492 C1480 1.349 . S
C1492 H1486 0.950 . S
C1492 C1493 1.327 . S
C1493 H1487 0.950 . S
C1493 C1492 1.327 . S
C1493 C1497 1.429 . S
C1494 C1477 1.574 . S
C1494 H1488 0.949 . S
C1494 C1498 1.368 1_554 S
C1495 C1476 1.429 . S
C1495 C1489 1.429 . S
C1495 C1496 1.523 . S
C1496 C1477 1.368 . S
C1496 C1490 1.368 1_554 S
C1496 C1495 1.523 . S
C1497 C1481 1.429 . S
C1497 C1493 1.429 . S
C1497 C1498 1.523 . S
C1498 C1482 1.368 . S
C1498 C1494 1.368 1_556 S
C1498 C1497 1.523 . S
H1499 C1474 0.950 . S
H1500 C1476 0.950 . S
H1501 C1477 0.949 . S
H1502 C1479 0.950 . S
H1503 C1481 0.950 1_554 S
C1504 C1505 1.349 . S
C1504 C1506 1.327 . S
C1504 H1529 0.950 . S
C1505 C1504 1.349 . S
C1505 C1521 1.349 . S
C1506 C1504 1.327 . S
C1506 C1525 1.429 . S
C1506 H1530 0.950 . S
C1507 C1524 1.574 . S
C1507 C1526 1.368 . S
C1507 H1531 0.949 . S
H1508 C1512 0.949 . S
C1509 C1510 1.349 . S
C1509 C1511 1.327 . S
C1509 H1532 0.950 . S
C1510 C1509 1.349 . S
C1510 C1522 1.349 . S
C1511 C1509 1.327 . S
C1511 C1527 1.429 . S
C1511 H1533 0.950 . S
C1512 H1508 0.949 . S
C1512 C1520 1.574 . S
C1512 C1528 1.368 . S
H1513 C1521 0.950 . S
H1514 C1519 0.950 . S
H1515 C1520 0.949 . S
H1516 C1522 0.950 . S
H1517 C1523 0.950 . S
H1518 C1524 0.949 . S
C1519 H1514 0.950 . S
C1519 C1521 1.327 . S
C1519 C1525 1.429 . S
C1520 C1512 1.574 . S
C1520 H1515 0.949 . S
C1520 C1526 1.368 . S
C1521 C1505 1.349 . S
C1521 H1513 0.950 . S
C1521 C1519 1.327 . S
C1522 C1510 1.349 . S
C1522 H1516 0.950 . S
C1522 C1523 1.327 . S
C1523 H1517 0.950 . S
C1523 C1522 1.327 . S
C1523 C1527 1.429 . S
C1524 C1507 1.574 . S
C1524 H1518 0.949 . S
C1524 C1528 1.368 . S
C1525 C1506 1.429 . S
C1525 C1519 1.429 . S
C1525 C1526 1.523 . S
C1526 C1507 1.368 . S
C1526 C1520 1.368 . S
C1526 C1525 1.523 . S
C1527 C1511 1.429 . S
C1527 C1523 1.429 . S
C1527 C1528 1.523 . S
C1528 C1512 1.368 . S
C1528 C1524 1.368 . S
C1528 C1527 1.523 . S
H1529 C1504 0.950 . S
H1530 C1506 0.950 . S
H1531 C1507 0.949 . S
H1532 C1509 0.950 . S
H1533 C1511 0.950 . S
C1534 C1535 1.349 . S
C1534 C1536 1.327 . S
C1534 H1559 0.950 . S
C1535 C1534 1.349 . S
C1535 C1551 1.349 . S
C1536 C1534 1.327 . S
C1536 C1555 1.429 . S
C1536 H1560 0.950 . S
C1537 C1554 1.574 . S
C1537 C1556 1.368 . S
C1537 H1561 0.949 . S
H1538 C1542 0.949 . S
C1539 C1540 1.349 . S
C1539 C1541 1.327 . S
C1539 H1562 0.950 . S
C1540 C1539 1.349 . S
C1540 C1552 1.349 . S
C1541 C1539 1.327 . S
C1541 C1557 1.429 . S
C1541 H1563 0.950 . S
C1542 H1538 0.949 . S
C1542 C1550 1.574 . S
C1542 C1558 1.368 . S
H1543 C1551 0.950 . S
H1544 C1549 0.950 . S
H1545 C1550 0.949 . S
H1546 C1552 0.950 . S
H1547 C1553 0.950 . S
H1548 C1554 0.949 . S
C1549 H1544 0.950 . S
C1549 C1551 1.327 . S
C1549 C1555 1.429 . S
C1550 C1542 1.574 . S
C1550 H1545 0.949 . S
C1550 C1556 1.368 . S
C1551 C1535 1.349 . S
C1551 H1543 0.950 . S
C1551 C1549 1.327 . S
C1552 C1540 1.349 . S
C1552 H1546 0.950 . S
C1552 C1553 1.327 . S
C1553 H1547 0.950 . S
C1553 C1552 1.327 . S
C1553 C1557 1.429 . S
C1554 C1537 1.574 . S
C1554 H1548 0.949 . S
C1554 C1558 1.368 . S
C1555 C1536 1.429 . S
C1555 C1549 1.429 . S
C1555 C1556 1.523 . S
C1556 C1537 1.368 . S
C1556 C1550 1.368 . S
C1556 C1555 1.523 . S
C1557 C1541 1.429 . S
C1557 C1553 1.429 . S
C1557 C1558 1.523 . S
C1558 C1542 1.368 . S
C1558 C1554 1.368 . S
C1558 C1557 1.523 . S
H1559 C1534 0.950 . S
H1560 C1536 0.950 . S
H1561 C1537 0.949 . S
H1562 C1539 0.950 . S
H1563 C1541 0.950 . S
C1564 C1565 1.349 . S
C1564 C1566 1.327 . S
C1564 H1589 0.950 . S
C1565 C1564 1.349 . S
C1565 C1581 1.349 . S
C1566 C1564 1.327 . S
C1566 C1585 1.429 . S
C1566 H1590 0.950 . S
C1567 C1584 1.574 . S
C1567 C1586 1.368 . S
C1567 H1591 0.949 . S
H1568 C1572 0.949 . S
C1569 C1570 1.349 . S
C1569 C1571 1.327 . S
C1569 H1592 0.950 . S
C1570 C1569 1.349 . S
C1570 C1582 1.349 . S
C1571 C1569 1.327 . S
C1571 C1587 1.429 . S
C1571 H1593 0.950 . S
C1572 H1568 0.949 . S
C1572 C1580 1.574 . S
C1572 C1588 1.368 . S
H1573 C1581 0.950 . S
H1574 C1579 0.950 . S
H1575 C1580 0.949 . S
H1576 C1582 0.950 . S
H1577 C1583 0.950 . S
H1578 C1584 0.949 . S
C1579 H1574 0.950 . S
C1579 C1581 1.327 . S
C1579 C1585 1.429 . S
C1580 C1572 1.574 . S
C1580 H1575 0.949 . S
C1580 C1586 1.368 . S
C1581 C1565 1.349 . S
C1581 H1573 0.950 . S
C1581 C1579 1.327 . S
C1582 C1570 1.349 . S
C1582 H1576 0.950 . S
C1582 C1583 1.327 . S
C1583 H1577 0.950 . S
C1583 C1582 1.327 . S
C1583 C1587 1.429 . S
C1584 C1567 1.574 . S
C1584 H1578 0.949 . S
C1584 C1588 1.368 . S
C1585 C1566 1.429 . S
C1585 C1579 1.429 . S
C1585 C1586 1.523 . S
C1586 C1567 1.368 . S
C1586 C1580 1.368 . S
C1586 C1585 1.523 . S
C1587 C1571 1.429 . S
C1587 C1583 1.429 . S
C1587 C1588 1.523 . S
C1588 C1572 1.368 . S
C1588 C1584 1.368 . S
C1588 C1587 1.523 . S
H1589 C1564 0.950 . S
H1590 C1566 0.950 . S
H1591 C1567 0.949 . S
H1592 C1569 0.950 . S
H1593 C1571 0.950 . S
C1594 C1595 1.349 . S
C1594 C1596 1.327 . S
C1594 H1619 0.950 . S
C1595 C1594 1.349 . S
C1595 C1611 1.349 . S
C1596 C1594 1.327 . S
C1596 C1615 1.429 . S
C1596 H1620 0.950 . S
C1597 C1614 1.574 . S
C1597 C1616 1.368 . S
C1597 H1621 0.949 . S
H1598 C1602 0.949 . S
C1599 C1600 1.349 . S
C1599 C1601 1.327 . S
C1599 H1622 0.950 . S
C1600 C1599 1.349 . S
C1600 C1612 1.349 . S
C1601 C1599 1.327 . S
C1601 C1617 1.429 . S
C1601 H1623 0.950 . S
C1602 H1598 0.949 . S
C1602 C1610 1.574 . S
C1602 C1618 1.368 . S
H1603 C1611 0.950 . S
H1604 C1609 0.950 . S
H1605 C1610 0.949 . S
H1606 C1612 0.950 . S
H1607 C1613 0.950 . S
H1608 C1614 0.949 . S
C1609 H1604 0.950 . S
C1609 C1611 1.327 . S
C1609 C1615 1.429 . S
C1610 C1602 1.574 . S
C1610 H1605 0.949 . S
C1610 C1616 1.368 . S
C1611 C1595 1.349 . S
C1611 H1603 0.950 . S
C1611 C1609 1.327 . S
C1612 C1600 1.349 . S
C1612 H1606 0.950 . S
C1612 C1613 1.327 . S
C1613 H1607 0.950 . S
C1613 C1612 1.327 . S
C1613 C1617 1.429 . S
C1614 C1597 1.574 . S
C1614 H1608 0.949 . S
C1614 C1618 1.368 . S
C1615 C1596 1.429 . S
C1615 C1609 1.429 . S
C1615 C1616 1.523 . S
C1616 C1597 1.368 . S
C1616 C1610 1.368 . S
C1616 C1615 1.523 . S
C1617 C1601 1.429 . S
C1617 C1613 1.429 . S
C1617 C1618 1.523 . S
C1618 C1602 1.368 . S
C1618 C1614 1.368 . S
C1618 C1617 1.523 . S
H1619 C1594 0.950 . S
H1620 C1596 0.950 . S
H1621 C1597 0.949 . S
H1622 C1599 0.950 . S
H1623 C1601 0.950 . S
C1624 C1625 1.349 . S
C1624 C1626 1.327 . S
C1624 H1649 0.950 . S
C1625 C1624 1.349 . S
C1625 C1641 1.349 . S
C1626 C1624 1.327 . S
C1626 C1645 1.429 . S
C1626 H1650 0.950 . S
C1627 C1644 1.574 1_554 S
C1627 C1646 1.368 . S
C1627 H1651 0.949 . S
H1628 C1632 0.949 . S
C1629 C1630 1.349 . S
C1629 C1631 1.327 . S
C1629 H1652 0.950 . S
C1630 C1629 1.349 . S
C1630 C1642 1.349 . S
C1631 C1629 1.327 . S
C1631 C1647 1.429 . S
C1631 H1653 0.950 . S
C1632 H1628 0.949 . S
C1632 C1640 1.574 . S
C1632 C1648 1.368 . S
H1633 C1641 0.950 . S
H1634 C1639 0.950 . S
H1635 C1640 0.949 . S
H1636 C1642 0.950 . S
H1637 C1643 0.950 . S
H1638 C1644 0.949 . S
C1639 H1634 0.950 . S
C1639 C1641 1.327 . S
C1639 C1645 1.429 . S
C1640 C1632 1.574 . S
C1640 H1635 0.949 . S
C1640 C1646 1.368 1_556 S
C1641 C1625 1.349 . S
C1641 H1633 0.950 . S
C1641 C1639 1.327 . S
C1642 C1630 1.349 . S
C1642 H1636 0.950 . S
C1642 C1643 1.327 . S
C1643 H1637 0.950 . S
C1643 C1642 1.327 . S
C1643 C1647 1.429 . S
C1644 C1627 1.574 1_556 S
C1644 H1638 0.949 . S
C1644 C1648 1.368 . S
C1645 C1626 1.429 . S
C1645 C1639 1.429 . S
C1645 C1646 1.523 . S
C1646 C1627 1.368 . S
C1646 C1640 1.368 1_554 S
C1646 C1645 1.523 . S
C1647 C1631 1.429 . S
C1647 C1643 1.429 . S
C1647 C1648 1.523 . S
C1648 C1632 1.368 . S
C1648 C1644 1.368 . S
C1648 C1647 1.523 . S
H1649 C1624 0.950 . S
H1650 C1626 0.950 . S
H1651 C1627 0.949 . S
H1652 C1629 0.950 . S
H1653 C1631 0.950 . S
C1654 C1655 1.349 . S
C1654 C1656 1.327 . S
C1654 H1679 0.950 . S
C1655 C1654 1.349 . S
C1655 C1671 1.349 . S
C1656 C1654 1.327 . S
C1656 C1675 1.429 . S
C1656 H1680 0.950 . S
C1657 C1674 1.574 . S
C1657 C1676 1.368 1_556 S
C1657 H1681 0.949 . S
H1658 C1662 0.949 . S
C1659 C1660 1.349 . S
C1659 C1661 1.327 . S
C1659 H1682 0.950 . S
C1660 C1659 1.349 . S
C1660 C1672 1.349 . S
C1661 C1659 1.327 . S
C1661 C1677 1.429 . S
C1661 H1683 0.950 . S
C1662 H1658 0.949 . S
C1662 C1670 1.574 1_556 S
C1662 C1678 1.368 . S
H1663 C1671 0.950 . S
H1664 C1669 0.950 . S
H1665 C1670 0.949 . S
H1666 C1672 0.950 . S
H1667 C1673 0.950 . S
H1668 C1674 0.949 . S
C1669 H1664 0.950 . S
C1669 C1671 1.327 . S
C1669 C1675 1.429 . S
C1670 C1662 1.574 1_554 S
C1670 H1665 0.949 . S
C1670 C1676 1.368 . S
C1671 C1655 1.349 . S
C1671 H1663 0.950 . S
C1671 C1669 1.327 . S
C1672 C1660 1.349 . S
C1672 H1666 0.950 . S
C1672 C1673 1.327 . S
C1673 H1667 0.950 . S
C1673 C1672 1.327 . S
C1673 C1677 1.429 . S
C1674 C1657 1.574 . S
C1674 H1668 0.949 . S
C1674 C1678 1.368 . S
C1675 C1656 1.429 . S
C1675 C1669 1.429 . S
C1675 C1676 1.523 . S
C1676 C1657 1.368 1_554 S
C1676 C1670 1.368 . S
C1676 C1675 1.523 . S
C1677 C1661 1.429 . S
C1677 C1673 1.429 . S
C1677 C1678 1.523 . S
C1678 C1662 1.368 . S
C1678 C1674 1.368 . S
C1678 C1677 1.523 . S
H1679 C1654 0.950 . S
H1680 C1656 0.950 . S
H1681 C1657 0.949 . S
H1682 C1659 0.950 . S
H1683 C1661 0.950 . S
C1684 C1685 1.349 . S
C1684 C1686 1.327 . S
C1684 H1709 0.950 . S
C1685 C1684 1.349 . S
C1685 C1701 1.349 . S
C1686 C1684 1.327 . S
C1686 C1705 1.429 . S
C1686 H1710 0.950 . S
C1687 C1704 1.574 1_554 S
C1687 C1706 1.368 . S
C1687 H1711 0.949 . S
H1688 C1692 0.949 . S
C1689 C1690 1.349 . S
C1689 C1691 1.327 . S
C1689 H1712 0.950 . S
C1690 C1689 1.349 . S
C1690 C1702 1.349 . S
C1691 C1689 1.327 . S
C1691 C1707 1.429 . S
C1691 H1713 0.950 . S
C1692 H1688 0.949 . S
C1692 C1700 1.574 . S
C1692 C1708 1.368 . S
H1693 C1701 0.950 . S
H1694 C1699 0.950 . S
H1695 C1700 0.949 . S
H1696 C1702 0.950 . S
H1697 C1703 0.950 . S
H1698 C1704 0.949 . S
C1699 H1694 0.950 . S
C1699 C1701 1.327 . S
C1699 C1705 1.429 . S
C1700 C1692 1.574 . S
C1700 H1695 0.949 . S
C1700 C1706 1.368 1_556 S
C1701 C1685 1.349 . S
C1701 H1693 0.950 . S
C1701 C1699 1.327 . S
C1702 C1690 1.349 . S
C1702 H1696 0.950 . S
C1702 C1703 1.327 . S
C1703 H1697 0.950 . S
C1703 C1702 1.327 . S
C1703 C1707 1.429 . S
C1704 C1687 1.574 1_556 S
C1704 H1698 0.949 . S
C1704 C1708 1.368 . S
C1705 C1686 1.429 . S
C1705 C1699 1.429 . S
C1705 C1706 1.523 . S
C1706 C1687 1.368 . S
C1706 C1700 1.368 1_554 S
C1706 C1705 1.523 . S
C1707 C1691 1.429 . S
C1707 C1703 1.429 . S
C1707 C1708 1.523 . S
C1708 C1692 1.368 . S
C1708 C1704 1.368 . S
C1708 C1707 1.523 . S
H1709 C1684 0.950 . S
H1710 C1686 0.950 . S
H1711 C1687 0.949 . S
H1712 C1689 0.950 . S
H1713 C1691 0.950 . S
C1714 C1715 1.349 . S
C1714 C1716 1.327 . S
C1714 H1739 0.950 . S
C1715 C1714 1.349 . S
C1715 C1731 1.349 . S
C1716 C1714 1.327 . S
C1716 C1735 1.429 . S
C1716 H1740 0.950 1_554 S
C1717 C1734 1.574 . S
C1717 C1736 1.368 . S
C1717 H1741 0.949 . S
H1718 C1722 0.949 . S
C1719 C1720 1.349 . S
C1719 C1721 1.327 . S
C1719 H1742 0.950 . S
C1720 C1719 1.349 . S
C1720 C1732 1.349 . S
C1721 C1719 1.327 . S
C1721 C1737 1.429 . S
C1721 H1743 0.950 . S
C1722 H1718 0.949 . S
C1722 C1730 1.574 . S
C1722 C1738 1.368 . S
H1723 C1731 0.950 . S
H1724 C1729 0.950 . S
H1725 C1730 0.949 . S
H1726 C1732 0.950 . S
H1727 C1733 0.950 . S
H1728 C1734 0.949 . S
C1729 H1724 0.950 . S
C1729 C1731 1.327 . S
C1729 C1735 1.429 . S
C1730 C1722 1.574 . S
C1730 H1725 0.949 . S
C1730 C1736 1.368 1_556 S
C1731 C1715 1.349 . S
C1731 H1723 0.950 . S
C1731 C1729 1.327 . S
C1732 C1720 1.349 . S
C1732 H1726 0.950 . S
C1732 C1733 1.327 . S
C1733 H1727 0.950 . S
C1733 C1732 1.327 . S
C1733 C1737 1.429 . S
C1734 C1717 1.574 . S
C1734 H1728 0.949 . S
C1734 C1738 1.368 1_554 S
C1735 C1716 1.429 . S
C1735 C1729 1.429 . S
C1735 C1736 1.523 . S
C1736 C1717 1.368 . S
C1736 C1730 1.368 1_554 S
C1736 C1735 1.523 . S
C1737 C1721 1.429 . S
C1737 C1733 1.429 . S
C1737 C1738 1.523 . S
C1738 C1722 1.368 . S
C1738 C1734 1.368 1_556 S
C1738 C1737 1.523 . S
H1739 C1714 0.950 . S
H1740 C1716 0.950 1_556 S
H1741 C1717 0.949 . S
H1742 C1719 0.950 . S
H1743 C1721 0.950 . S
C1744 C1745 1.349 . S
C1744 C1746 1.327 . S
C1744 H1769 0.950 . S
C1745 C1744 1.349 . S
C1745 C1761 1.349 . S
C1746 C1744 1.327 . S
C1746 C1765 1.429 . S
C1746 H1770 0.950 . S
C1747 C1764 1.574 . S
C1747 C1766 1.368 . S
C1747 H1771 0.949 . S
H1748 C1752 0.949 . S
C1749 C1750 1.349 . S
C1749 C1751 1.327 . S
C1749 H1772 0.950 . S
C1750 C1749 1.349 . S
C1750 C1762 1.349 . S
C1751 C1749 1.327 . S
C1751 C1767 1.429 . S
C1751 H1773 0.950 . S
C1752 H1748 0.949 . S
C1752 C1760 1.574 . S
C1752 C1768 1.368 . S
H1753 C1761 0.950 . S
H1754 C1759 0.950 . S
H1755 C1760 0.949 . S
H1756 C1762 0.950 . S
H1757 C1763 0.950 . S
H1758 C1764 0.949 . S
C1759 H1754 0.950 . S
C1759 C1761 1.327 . S
C1759 C1765 1.429 . S
C1760 C1752 1.574 . S
C1760 H1755 0.949 . S
C1760 C1766 1.368 . S
C1761 C1745 1.349 . S
C1761 H1753 0.950 . S
C1761 C1759 1.327 . S
C1762 C1750 1.349 . S
C1762 H1756 0.950 . S
C1762 C1763 1.327 . S
C1763 H1757 0.950 . S
C1763 C1762 1.327 . S
C1763 C1767 1.429 . S
C1764 C1747 1.574 . S
C1764 H1758 0.949 . S
C1764 C1768 1.368 . S
C1765 C1746 1.429 . S
C1765 C1759 1.429 . S
C1765 C1766 1.523 . S
C1766 C1747 1.368 . S
C1766 C1760 1.368 . S
C1766 C1765 1.523 . S
C1767 C1751 1.429 . S
C1767 C1763 1.429 . S
C1767 C1768 1.523 . S
C1768 C1752 1.368 . S
C1768 C1764 1.368 . S
C1768 C1767 1.523 . S
H1769 C1744 0.950 . S
H1770 C1746 0.950 . S
H1771 C1747 0.949 . S
H1772 C1749 0.950 . S
H1773 C1751 0.950 . S
C1774 C1775 1.349 . S
C1774 C1776 1.327 . S
C1774 H1799 0.950 . S
C1775 C1774 1.349 . S
C1775 C1791 1.349 . S
C1776 C1774 1.327 . S
C1776 C1795 1.429 . S
C1776 H1800 0.950 . S
C1777 C1794 1.574 . S
C1777 C1796 1.368 . S
C1777 H1801 0.949 . S
H1778 C1782 0.949 . S
C1779 C1780 1.349 . S
C1779 C1781 1.327 . S
C1779 H1802 0.950 . S
C1780 C1779 1.349 . S
C1780 C1792 1.349 . S
C1781 C1779 1.327 . S
C1781 C1797 1.429 . S
C1781 H1803 0.950 . S
C1782 H1778 0.949 . S
C1782 C1790 1.574 . S
C1782 C1798 1.368 . S
H1783 C1791 0.950 . S
H1784 C1789 0.950 . S
H1785 C1790 0.949 . S
H1786 C1792 0.950 . S
H1787 C1793 0.950 . S
H1788 C1794 0.949 . S
C1789 H1784 0.950 . S
C1789 C1791 1.327 . S
C1789 C1795 1.429 . S
C1790 C1782 1.574 . S
C1790 H1785 0.949 . S
C1790 C1796 1.368 . S
C1791 C1775 1.349 . S
C1791 H1783 0.950 . S
C1791 C1789 1.327 . S
C1792 C1780 1.349 . S
C1792 H1786 0.950 . S
C1792 C1793 1.327 . S
C1793 H1787 0.950 . S
C1793 C1792 1.327 . S
C1793 C1797 1.429 . S
C1794 C1777 1.574 . S
C1794 H1788 0.949 . S
C1794 C1798 1.368 . S
C1795 C1776 1.429 . S
C1795 C1789 1.429 . S
C1795 C1796 1.523 . S
C1796 C1777 1.368 . S
C1796 C1790 1.368 . S
C1796 C1795 1.523 . S
C1797 C1781 1.429 . S
C1797 C1793 1.429 . S
C1797 C1798 1.523 . S
C1798 C1782 1.368 . S
C1798 C1794 1.368 . S
C1798 C1797 1.523 . S
H1799 C1774 0.950 . S
H1800 C1776 0.950 . S
H1801 C1777 0.949 . S
H1802 C1779 0.950 . S
H1803 C1781 0.950 . S
C1804 C1805 1.349 . S
C1804 C1806 1.327 . S
C1804 H1829 0.950 . S
C1805 C1804 1.349 . S
C1805 C1821 1.349 . S
C1806 C1804 1.327 . S
C1806 C1825 1.429 . S
C1806 H1830 0.950 . S
C1807 C1824 1.574 . S
C1807 C1826 1.368 . S
C1807 H1831 0.949 . S
H1808 C1812 0.949 . S
C1809 C1810 1.349 . S
C1809 C1811 1.327 . S
C1809 H1832 0.950 . S
C1810 C1809 1.349 . S
C1810 C1822 1.349 . S
C1811 C1809 1.327 . S
C1811 C1827 1.429 . S
C1811 H1833 0.950 . S
C1812 H1808 0.949 . S
C1812 C1820 1.574 . S
C1812 C1828 1.368 . S
H1813 C1821 0.950 . S
H1814 C1819 0.950 . S
H1815 C1820 0.949 . S
H1816 C1822 0.950 . S
H1817 C1823 0.950 . S
H1818 C1824 0.949 . S
C1819 H1814 0.950 . S
C1819 C1821 1.327 . S
C1819 C1825 1.429 . S
C1820 C1812 1.574 . S
C1820 H1815 0.949 . S
C1820 C1826 1.368 . S
C1821 C1805 1.349 . S
C1821 H1813 0.950 . S
C1821 C1819 1.327 . S
C1822 C1810 1.349 . S
C1822 H1816 0.950 . S
C1822 C1823 1.327 . S
C1823 H1817 0.950 . S
C1823 C1822 1.327 . S
C1823 C1827 1.429 . S
C1824 C1807 1.574 . S
C1824 H1818 0.949 . S
C1824 C1828 1.368 . S
C1825 C1806 1.429 . S
C1825 C1819 1.429 . S
C1825 C1826 1.523 . S
C1826 C1807 1.368 . S
C1826 C1820 1.368 . S
C1826 C1825 1.523 . S
C1827 C1811 1.429 . S
C1827 C1823 1.429 . S
C1827 C1828 1.523 . S
C1828 C1812 1.368 . S
C1828 C1824 1.368 . S
C1828 C1827 1.523 . S
H1829 C1804 0.950 . S
H1830 C1806 0.950 . S
H1831 C1807 0.949 . S
H1832 C1809 0.950 . S
H1833 C1811 0.950 . S
C1834 C1835 1.349 . S
C1834 C1836 1.327 . S
C1834 H1859 0.950 . S
C1835 C1834 1.349 . S
C1835 C1851 1.349 . S
C1836 C1834 1.327 . S
C1836 C1855 1.429 . S
C1836 H1860 0.950 . S
C1837 C1854 1.574 . S
C1837 C1856 1.368 . S
C1837 H1861 0.949 . S
H1838 C1842 0.949 . S
C1839 C1840 1.349 . S
C1839 C1841 1.327 . S
C1839 H1862 0.950 . S
C1840 C1839 1.349 . S
C1840 C1852 1.349 . S
C1841 C1839 1.327 . S
C1841 C1857 1.429 . S
C1841 H1863 0.950 . S
C1842 H1838 0.949 . S
C1842 C1850 1.574 . S
C1842 C1858 1.368 . S
H1843 C1851 0.950 . S
H1844 C1849 0.950 . S
H1845 C1850 0.949 . S
H1846 C1852 0.950 . S
H1847 C1853 0.950 . S
H1848 C1854 0.949 . S
C1849 H1844 0.950 . S
C1849 C1851 1.327 . S
C1849 C1855 1.429 . S
C1850 C1842 1.574 . S
C1850 H1845 0.949 . S
C1850 C1856 1.368 . S
C1851 C1835 1.349 . S
C1851 H1843 0.950 . S
C1851 C1849 1.327 . S
C1852 C1840 1.349 . S
C1852 H1846 0.950 . S
C1852 C1853 1.327 . S
C1853 H1847 0.950 . S
C1853 C1852 1.327 . S
C1853 C1857 1.429 . S
C1854 C1837 1.574 . S
C1854 H1848 0.949 . S
C1854 C1858 1.368 . S
C1855 C1836 1.429 . S
C1855 C1849 1.429 . S
C1855 C1856 1.523 . S
C1856 C1837 1.368 . S
C1856 C1850 1.368 . S
C1856 C1855 1.523 . S
C1857 C1841 1.429 . S
C1857 C1853 1.429 . S
C1857 C1858 1.523 . S
C1858 C1842 1.368 . S
C1858 C1854 1.368 . S
C1858 C1857 1.523 . S
H1859 C1834 0.950 . S
H1860 C1836 0.950 . S
H1861 C1837 0.949 . S
H1862 C1839 0.950 . S
H1863 C1841 0.950 . S
C1864 C1865 1.349 . S
C1864 C1866 1.327 . S
C1864 H1889 0.950 . S
C1865 C1864 1.349 . S
C1865 C1881 1.349 . S
C1866 C1864 1.327 . S
C1866 C1885 1.429 . S
C1866 H1890 0.950 . S
C1867 C1884 1.574 . S
C1867 C1886 1.368 . S
C1867 H1891 0.949 . S
H1868 C1872 0.949 . S
C1869 C1870 1.349 . S
C1869 C1871 1.327 . S
C1869 H1892 0.950 . S
C1870 C1869 1.349 . S
C1870 C1882 1.349 . S
C1871 C1869 1.327 . S
C1871 C1887 1.429 . S
C1871 H1893 0.950 . S
C1872 H1868 0.949 . S
C1872 C1880 1.574 . S
C1872 C1888 1.368 . S
H1873 C1881 0.950 . S
H1874 C1879 0.950 . S
H1875 C1880 0.949 . S
H1876 C1882 0.950 . S
H1877 C1883 0.950 . S
H1878 C1884 0.949 . S
C1879 H1874 0.950 . S
C1879 C1881 1.327 . S
C1879 C1885 1.429 . S
C1880 C1872 1.574 . S
C1880 H1875 0.949 . S
C1880 C1886 1.368 . S
C1881 C1865 1.349 . S
C1881 H1873 0.950 . S
C1881 C1879 1.327 . S
C1882 C1870 1.349 . S
C1882 H1876 0.950 . S
C1882 C1883 1.327 . S
C1883 H1877 0.950 . S
C1883 C1882 1.327 . S
C1883 C1887 1.429 . S
C1884 C1867 1.574 . S
C1884 H1878 0.949 . S
C1884 C1888 1.368 . S
C1885 C1866 1.429 . S
C1885 C1879 1.429 . S
C1885 C1886 1.523 . S
C1886 C1867 1.368 . S
C1886 C1880 1.368 . S
C1886 C1885 1.523 . S
C1887 C1871 1.429 . S
C1887 C1883 1.429 . S
C1887 C1888 1.523 . S
C1888 C1872 1.368 . S
C1888 C1884 1.368 . S
C1888 C1887 1.523 . S
H1889 C1864 0.950 . S
H1890 C1866 0.950 . S
H1891 C1867 0.949 . S
H1892 C1869 0.950 . S
H1893 C1871 0.950 . S
C1894 C1895 1.349 . S
C1894 C1896 1.327 . S
C1894 H1919 0.950 . S
C1895 C1894 1.349 . S
C1895 C1911 1.349 . S
C1896 C1894 1.327 . S
C1896 C1915 1.429 . S
C1896 H1920 0.950 . S
C1897 C1914 1.574 . S
C1897 C1916 1.368 . S
C1897 H1921 0.949 . S
H1898 C1902 0.949 . S
C1899 C1900 1.349 . S
C1899 C1901 1.327 . S
C1899 H1922 0.950 . S
C1900 C1899 1.349 . S
C1900 C1912 1.349 . S
C1901 C1899 1.327 . S
C1901 C1917 1.429 . S
C1901 H1923 0.950 . S
C1902 H1898 0.949 . S
C1902 C1910 1.574 . S
C1902 C1918 1.368 . S
H1903 C1911 0.950 . S
H1904 C1909 0.950 . S
H1905 C1910 0.949 . S
H1906 C1912 0.950 . S
H1907 C1913 0.950 . S
H1908 C1914 0.949 . S
C1909 H1904 0.950 . S
C1909 C1911 1.327 . S
C1909 C1915 1.429 . S
C1910 C1902 1.574 . S
C1910 H1905 0.949 . S
C1910 C1916 1.368 . S
C1911 C1895 1.349 . S
C1911 H1903 0.950 . S
C1911 C1909 1.327 . S
C1912 C1900 1.349 . S
C1912 H1906 0.950 . S
C1912 C1913 1.327 . S
C1913 H1907 0.950 . S
C1913 C1912 1.327 . S
C1913 C1917 1.429 . S
C1914 C1897 1.574 . S
C1914 H1908 0.949 . S
C1914 C1918 1.368 . S
C1915 C1896 1.429 . S
C1915 C1909 1.429 . S
C1915 C1916 1.523 . S
C1916 C1897 1.368 . S
C1916 C1910 1.368 . S
C1916 C1915 1.523 . S
C1917 C1901 1.429 . S
C1917 C1913 1.429 . S
C1917 C1918 1.523 . S
C1918 C1902 1.368 . S
C1918 C1914 1.368 . S
C1918 C1917 1.523 . S
H1919 C1894 0.950 . S
H1920 C1896 0.950 . S
H1921 C1897 0.949 . S
H1922 C1899 0.950 . S
H1923 C1901 0.950 . S
C1924 C1925 1.349 . S
C1924 C1926 1.327 . S
C1924 H1949 0.950 . S
C1925 C1924 1.349 . S
C1925 C1941 1.349 . S
C1926 C1924 1.327 . S
C1926 C1945 1.429 . S
C1926 H1950 0.950 . S
C1927 C1944 1.574 . S
C1927 C1946 1.368 . S
C1927 H1951 0.949 . S
H1928 C1932 0.949 . S
C1929 C1930 1.349 . S
C1929 C1931 1.327 . S
C1929 H1952 0.950 . S
C1930 C1929 1.349 . S
C1930 C1942 1.349 . S
C1931 C1929 1.327 . S
C1931 C1947 1.429 . S
C1931 H1953 0.950 . S
C1932 H1928 0.949 . S
C1932 C1940 1.574 . S
C1932 C1948 1.368 . S
H1933 C1941 0.950 . S
H1934 C1939 0.950 . S
H1935 C1940 0.949 . S
H1936 C1942 0.950 . S
H1937 C1943 0.950 . S
H1938 C1944 0.949 . S
C1939 H1934 0.950 . S
C1939 C1941 1.327 . S
C1939 C1945 1.429 . S
C1940 C1932 1.574 . S
C1940 H1935 0.949 . S
C1940 C1946 1.368 . S
C1941 C1925 1.349 . S
C1941 H1933 0.950 . S
C1941 C1939 1.327 . S
C1942 C1930 1.349 . S
C1942 H1936 0.950 . S
C1942 C1943 1.327 . S
C1943 H1937 0.950 . S
C1943 C1942 1.327 . S
C1943 C1947 1.429 . S
C1944 C1927 1.574 . S
C1944 H1938 0.949 . S
C1944 C1948 1.368 . S
C1945 C1926 1.429 . S
C1945 C1939 1.429 . S
C1945 C1946 1.523 . S
C1946 C1927 1.368 . S
C1946 C1940 1.368 . S
C1946 C1945 1.523 . S
C1947 C1931 1.429 . S
C1947 C1943 1.429 . S
C1947 C1948 1.523 . S
C1948 C1932 1.368 . S
C1948 C1944 1.368 . S
C1948 C1947 1.523 . S
H1949 C1924 0.950 . S
H1950 C1926 0.950 . S
H1951 C1927 0.949 . S
H1952 C1929 0.950 . S
H1953 C1931 0.950 . S
C1954 C1955 1.349 . S
C1954 C1956 1.327 . S
C1954 H1979 0.950 . S
C1955 C1954 1.349 . S
C1955 C1971 1.349 . S
C1956 C1954 1.327 . S
C1956 C1975 1.429 . S
C1956 H1980 0.950 . S
C1957 C1974 1.574 . S
C1957 C1976 1.368 . S
C1957 H1981 0.949 . S
H1958 C1962 0.949 . S
C1959 C1960 1.349 . S
C1959 C1961 1.327 . S
C1959 H1982 0.950 . S
C1960 C1959 1.349 . S
C1960 C1972 1.349 . S
C1961 C1959 1.327 . S
C1961 C1977 1.429 . S
C1961 H1983 0.950 . S
C1962 H1958 0.949 . S
C1962 C1970 1.574 . S
C1962 C1978 1.368 . S
H1963 C1971 0.950 . S
H1964 C1969 0.950 . S
H1965 C1970 0.949 . S
H1966 C1972 0.950 . S
H1967 C1973 0.950 . S
H1968 C1974 0.949 . S
C1969 H1964 0.950 . S
C1969 C1971 1.327 . S
C1969 C1975 1.429 . S
C1970 C1962 1.574 . S
C1970 H1965 0.949 . S
C1970 C1976 1.368 . S
C1971 C1955 1.349 . S
C1971 H1963 0.950 . S
C1971 C1969 1.327 . S
C1972 C1960 1.349 . S
C1972 H1966 0.950 . S
C1972 C1973 1.327 . S
C1973 H1967 0.950 . S
C1973 C1972 1.327 . S
C1973 C1977 1.429 . S
C1974 C1957 1.574 . S
C1974 H1968 0.949 . S
C1974 C1978 1.368 . S
C1975 C1956 1.429 . S
C1975 C1969 1.429 . S
C1975 C1976 1.523 . S
C1976 C1957 1.368 . S
C1976 C1970 1.368 . S
C1976 C1975 1.523 . S
C1977 C1961 1.429 . S
C1977 C1973 1.429 . S
C1977 C1978 1.523 . S
C1978 C1962 1.368 . S
C1978 C1974 1.368 . S
C1978 C1977 1.523 . S
H1979 C1954 0.950 . S
H1980 C1956 0.950 . S
H1981 C1957 0.949 . S
H1982 C1959 0.950 . S
H1983 C1961 0.950 . S
C1984 C1985 1.349 . S
C1984 C1986 1.327 . S
C1984 H2009 0.950 . S
C1985 C1984 1.349 . S
C1985 C2001 1.349 . S
C1986 C1984 1.327 . S
C1986 C2005 1.429 . S
C1986 H2010 0.950 . S
C1987 C2004 1.574 . S
C1987 C2006 1.368 . S
C1987 H2011 0.949 . S
H1988 C1992 0.949 . S
C1989 C1990 1.349 . S
C1989 C1991 1.327 . S
C1989 H2012 0.950 . S
C1990 C1989 1.349 . S
C1990 C2002 1.349 . S
C1991 C1989 1.327 . S
C1991 C2007 1.429 . S
C1991 H2013 0.950 . S
C1992 H1988 0.949 . S
C1992 C2000 1.574 . S
C1992 C2008 1.368 . S
H1993 C2001 0.950 . S
H1994 C1999 0.950 . S
H1995 C2000 0.949 . S
H1996 C2002 0.950 . S
H1997 C2003 0.950 . S
H1998 C2004 0.949 . S
C1999 H1994 0.950 . S
C1999 C2001 1.327 . S
C1999 C2005 1.429 . S
C2000 C1992 1.574 . S
C2000 H1995 0.949 . S
C2000 C2006 1.368 . S
C2001 C1985 1.349 . S
C2001 H1993 0.950 . S
C2001 C1999 1.327 . S
C2002 C1990 1.349 . S
C2002 H1996 0.950 . S
C2002 C2003 1.327 . S
C2003 H1997 0.950 . S
C2003 C2002 1.327 . S
C2003 C2007 1.429 . S
C2004 C1987 1.574 . S
C2004 H1998 0.949 . S
C2004 C2008 1.368 . S
C2005 C1986 1.429 . S
C2005 C1999 1.429 . S
C2005 C2006 1.523 . S
C2006 C1987 1.368 . S
C2006 C2000 1.368 . S
C2006 C2005 1.523 . S
C2007 C1991 1.429 . S
C2007 C2003 1.429 . S
C2007 C2008 1.523 . S
C2008 C1992 1.368 . S
C2008 C2004 1.368 . S
C2008 C2007 1.523 . S
H2009 C1984 0.950 . S
H2010 C1986 0.950 . S
H2011 C1987 0.949 . S
H2012 C1989 0.950 . S
H2013 C1991 0.950 . S
C2014 C2015 1.349 . S
C2014 C2016 1.327 . S
C2014 H2039 0.950 . S
C2015 C2014 1.349 . S
C2015 C2031 1.349 . S
C2016 C2014 1.327 . S
C2016 C2035 1.429 . S
C2016 H2040 0.950 . S
C2017 C2034 1.574 . S
C2017 C2036 1.368 . S
C2017 H2041 0.949 . S
H2018 C2022 0.949 . S
C2019 C2020 1.349 . S
C2019 C2021 1.327 . S
C2019 H2042 0.950 . S
C2020 C2019 1.349 . S
C2020 C2032 1.349 . S
C2021 C2019 1.327 . S
C2021 C2037 1.429 . S
C2021 H2043 0.950 . S
C2022 H2018 0.949 . S
C2022 C2030 1.574 . S
C2022 C2038 1.368 . S
H2023 C2031 0.950 . S
H2024 C2029 0.950 . S
H2025 C2030 0.949 . S
H2026 C2032 0.950 . S
H2027 C2033 0.950 . S
H2028 C2034 0.949 . S
C2029 H2024 0.950 . S
C2029 C2031 1.327 . S
C2029 C2035 1.429 . S
C2030 C2022 1.574 . S
C2030 H2025 0.949 . S
C2030 C2036 1.368 . S
C2031 C2015 1.349 . S
C2031 H2023 0.950 . S
C2031 C2029 1.327 . S
C2032 C2020 1.349 . S
C2032 H2026 0.950 . S
C2032 C2033 1.327 . S
C2033 H2027 0.950 . S
C2033 C2032 1.327 . S
C2033 C2037 1.429 . S
C2034 C2017 1.574 . S
C2034 H2028 0.949 . S
C2034 C2038 1.368 . S
C2035 C2016 1.429 . S
C2035 C2029 1.429 . S
C2035 C2036 1.523 . S
C2036 C2017 1.368 . S
C2036 C2030 1.368 . S
C2036 C2035 1.523 . S
C2037 C2021 1.429 . S
C2037 C2033 1.429 . S
C2037 C2038 1.523 . S
C2038 C2022 1.368 . S
C2038 C2034 1.368 . S
C2038 C2037 1.523 . S
H2039 C2014 0.950 . S
H2040 C2016 0.950 . S
H2041 C2017 0.949 . S
H2042 C2019 0.950 . S
H2043 C2021 0.950 . S
C2044 C2045 1.349 . S
C2044 C2046 1.327 . S
C2044 H2069 0.950 . S
C2045 C2044 1.349 . S
C2045 C2061 1.349 . S
C2046 C2044 1.327 . S
C2046 C2065 1.429 . S
C2046 H2070 0.950 . S
C2047 C2064 1.574 . S
C2047 C2066 1.368 . S
C2047 H2071 0.949 . S
H2048 C2052 0.949 . S
C2049 C2050 1.349 . S
C2049 C2051 1.327 . S
C2049 H2072 0.950 . S
C2050 C2049 1.349 . S
C2050 C2062 1.349 . S
C2051 C2049 1.327 . S
C2051 C2067 1.429 . S
C2051 H2073 0.950 . S
C2052 H2048 0.949 . S
C2052 C2060 1.574 . S
C2052 C2068 1.368 . S
H2053 C2061 0.950 . S
H2054 C2059 0.950 . S
H2055 C2060 0.949 . S
H2056 C2062 0.950 . S
H2057 C2063 0.950 . S
H2058 C2064 0.949 . S
C2059 H2054 0.950 . S
C2059 C2061 1.327 . S
C2059 C2065 1.429 . S
C2060 C2052 1.574 . S
C2060 H2055 0.949 . S
C2060 C2066 1.368 . S
C2061 C2045 1.349 . S
C2061 H2053 0.950 . S
C2061 C2059 1.327 . S
C2062 C2050 1.349 . S
C2062 H2056 0.950 . S
C2062 C2063 1.327 . S
C2063 H2057 0.950 . S
C2063 C2062 1.327 . S
C2063 C2067 1.429 . S
C2064 C2047 1.574 . S
C2064 H2058 0.949 . S
C2064 C2068 1.368 . S
C2065 C2046 1.429 . S
C2065 C2059 1.429 . S
C2065 C2066 1.523 . S
C2066 C2047 1.368 . S
C2066 C2060 1.368 . S
C2066 C2065 1.523 . S
C2067 C2051 1.429 . S
C2067 C2063 1.429 . S
C2067 C2068 1.523 . S
C2068 C2052 1.368 . S
C2068 C2064 1.368 . S
C2068 C2067 1.523 . S
H2069 C2044 0.950 . S
H2070 C2046 0.950 . S
H2071 C2047 0.949 . S
H2072 C2049 0.950 . S
H2073 C2051 0.950 . S
C2074 C2075 1.349 . S
C2074 C2076 1.327 . S
C2074 H2099 0.950 . S
C2075 C2074 1.349 . S
C2075 C2091 1.349 . S
C2076 C2074 1.327 . S
C2076 C2095 1.429 . S
C2076 H2100 0.950 . S
C2077 C2094 1.574 . S
C2077 C2096 1.368 . S
C2077 H2101 0.949 . S
H2078 C2082 0.949 . S
C2079 C2080 1.349 . S
C2079 C2081 1.327 . S
C2079 H2102 0.950 . S
C2080 C2079 1.349 . S
C2080 C2092 1.349 . S
C2081 C2079 1.327 . S
C2081 C2097 1.429 . S
C2081 H2103 0.950 . S
C2082 H2078 0.949 . S
C2082 C2090 1.574 . S
C2082 C2098 1.368 . S
H2083 C2091 0.950 . S
H2084 C2089 0.950 . S
H2085 C2090 0.949 . S
H2086 C2092 0.950 . S
H2087 C2093 0.950 . S
H2088 C2094 0.949 . S
C2089 H2084 0.950 . S
C2089 C2091 1.327 . S
C2089 C2095 1.429 . S
C2090 C2082 1.574 . S
C2090 H2085 0.949 . S
C2090 C2096 1.368 . S
C2091 C2075 1.349 . S
C2091 H2083 0.950 . S
C2091 C2089 1.327 . S
C2092 C2080 1.349 . S
C2092 H2086 0.950 . S
C2092 C2093 1.327 . S
C2093 H2087 0.950 . S
C2093 C2092 1.327 . S
C2093 C2097 1.429 . S
C2094 C2077 1.574 . S
C2094 H2088 0.949 . S
C2094 C2098 1.368 . S
C2095 C2076 1.429 . S
C2095 C2089 1.429 . S
C2095 C2096 1.523 . S
C2096 C2077 1.368 . S
C2096 C2090 1.368 . S
C2096 C2095 1.523 . S
C2097 C2081 1.429 . S
C2097 C2093 1.429 . S
C2097 C2098 1.523 . S
C2098 C2082 1.368 . S
C2098 C2094 1.368 . S
C2098 C2097 1.523 . S
H2099 C2074 0.950 . S
H2100 C2076 0.950 . S
H2101 C2077 0.949 . S
H2102 C2079 0.950 . S
H2103 C2081 0.950 . S
C2104 C2105 1.349 . S
C2104 C2106 1.327 . S
C2104 H2129 0.950 . S
C2105 C2104 1.349 . S
C2105 C2121 1.349 . S
C2106 C2104 1.327 . S
C2106 C2125 1.429 . S
C2106 H2130 0.950 . S
C2107 C2124 1.574 . S
C2107 C2126 1.368 . S
C2107 H2131 0.949 . S
H2108 C2112 0.949 . S
C2109 C2110 1.349 . S
C2109 C2111 1.327 . S
C2109 H2132 0.950 . S
C2110 C2109 1.349 . S
C2110 C2122 1.349 . S
C2111 C2109 1.327 . S
C2111 C2127 1.429 . S
C2111 H2133 0.950 . S
C2112 H2108 0.949 . S
C2112 C2120 1.574 . S
C2112 C2128 1.368 . S
H2113 C2121 0.950 . S
H2114 C2119 0.950 . S
H2115 C2120 0.949 . S
H2116 C2122 0.950 . S
H2117 C2123 0.950 . S
H2118 C2124 0.949 . S
C2119 H2114 0.950 . S
C2119 C2121 1.327 . S
C2119 C2125 1.429 . S
C2120 C2112 1.574 . S
C2120 H2115 0.949 . S
C2120 C2126 1.368 . S
C2121 C2105 1.349 . S
C2121 H2113 0.950 . S
C2121 C2119 1.327 . S
C2122 C2110 1.349 . S
C2122 H2116 0.950 . S
C2122 C2123 1.327 . S
C2123 H2117 0.950 . S
C2123 C2122 1.327 . S
C2123 C2127 1.429 . S
C2124 C2107 1.574 . S
C2124 H2118 0.949 . S
C2124 C2128 1.368 . S
C2125 C2106 1.429 . S
C2125 C2119 1.429 . S
C2125 C2126 1.523 . S
C2126 C2107 1.368 . S
C2126 C2120 1.368 . S
C2126 C2125 1.523 . S
C2127 C2111 1.429 . S
C2127 C2123 1.429 . S
C2127 C2128 1.523 . S
C2128 C2112 1.368 . S
C2128 C2124 1.368 . S
C2128 C2127 1.523 . S
H2129 C2104 0.950 . S
H2130 C2106 0.950 . S
H2131 C2107 0.949 . S
H2132 C2109 0.950 . S
H2133 C2111 0.950 . S
C2134 C2135 1.349 . S
C2134 C2136 1.327 . S
C2134 H2159 0.950 . S
C2135 C2134 1.349 . S
C2135 C2151 1.349 . S
C2136 C2134 1.327 . S
C2136 C2155 1.429 . S
C2136 H2160 0.950 . S
C2137 C2154 1.574 . S
C2137 C2156 1.368 . S
C2137 H2161 0.949 . S
H2138 C2142 0.949 . S
C2139 C2140 1.349 . S
C2139 C2141 1.327 . S
C2139 H2162 0.950 . S
C2140 C2139 1.349 . S
C2140 C2152 1.349 . S
C2141 C2139 1.327 . S
C2141 C2157 1.429 . S
C2141 H2163 0.950 . S
C2142 H2138 0.949 . S
C2142 C2150 1.574 . S
C2142 C2158 1.368 . S
H2143 C2151 0.950 . S
H2144 C2149 0.950 . S
H2145 C2150 0.949 . S
H2146 C2152 0.950 . S
H2147 C2153 0.950 . S
H2148 C2154 0.949 . S
C2149 H2144 0.950 . S
C2149 C2151 1.327 . S
C2149 C2155 1.429 . S
C2150 C2142 1.574 . S
C2150 H2145 0.949 . S
C2150 C2156 1.368 . S
C2151 C2135 1.349 . S
C2151 H2143 0.950 . S
C2151 C2149 1.327 . S
C2152 C2140 1.349 . S
C2152 H2146 0.950 . S
C2152 C2153 1.327 . S
C2153 H2147 0.950 . S
C2153 C2152 1.327 . S
C2153 C2157 1.429 . S
C2154 C2137 1.574 . S
C2154 H2148 0.949 . S
C2154 C2158 1.368 . S
C2155 C2136 1.429 . S
C2155 C2149 1.429 . S
C2155 C2156 1.523 . S
C2156 C2137 1.368 . S
C2156 C2150 1.368 . S
C2156 C2155 1.523 . S
C2157 C2141 1.429 . S
C2157 C2153 1.429 . S
C2157 C2158 1.523 . S
C2158 C2142 1.368 . S
C2158 C2154 1.368 . S
C2158 C2157 1.523 . S
H2159 C2134 0.950 . S
H2160 C2136 0.950 . S
H2161 C2137 0.949 . S
H2162 C2139 0.950 . S
H2163 C2141 0.950 . S
C2164 C2165 1.349 . S
C2164 C2166 1.327 . S
C2164 H2189 0.950 . S
C2165 C2164 1.349 . S
C2165 C2181 1.349 . S
C2166 C2164 1.327 . S
C2166 C2185 1.429 . S
C2166 H2190 0.950 . S
C2167 C2184 1.574 . S
C2167 C2186 1.368 . S
C2167 H2191 0.949 . S
H2168 C2172 0.949 . S
C2169 C2170 1.349 . S
C2169 C2171 1.327 . S
C2169 H2192 0.950 . S
C2170 C2169 1.349 . S
C2170 C2182 1.349 . S
C2171 C2169 1.327 . S
C2171 C2187 1.429 . S
C2171 H2193 0.950 . S
C2172 H2168 0.949 . S
C2172 C2180 1.574 . S
C2172 C2188 1.368 . S
H2173 C2181 0.950 . S
H2174 C2179 0.950 . S
H2175 C2180 0.949 . S
H2176 C2182 0.950 . S
H2177 C2183 0.950 . S
H2178 C2184 0.949 . S
C2179 H2174 0.950 . S
C2179 C2181 1.327 . S
C2179 C2185 1.429 . S
C2180 C2172 1.574 . S
C2180 H2175 0.949 . S
C2180 C2186 1.368 . S
C2181 C2165 1.349 . S
C2181 H2173 0.950 . S
C2181 C2179 1.327 . S
C2182 C2170 1.349 . S
C2182 H2176 0.950 . S
C2182 C2183 1.327 . S
C2183 H2177 0.950 . S
C2183 C2182 1.327 . S
C2183 C2187 1.429 . S
C2184 C2167 1.574 . S
C2184 H2178 0.949 . S
C2184 C2188 1.368 . S
C2185 C2166 1.429 . S
C2185 C2179 1.429 . S
C2185 C2186 1.523 . S
C2186 C2167 1.368 . S
C2186 C2180 1.368 . S
C2186 C2185 1.523 . S
C2187 C2171 1.429 . S
C2187 C2183 1.429 . S
C2187 C2188 1.523 . S
C2188 C2172 1.368 . S
C2188 C2184 1.368 . S
C2188 C2187 1.523 . S
H2189 C2164 0.950 . S
H2190 C2166 0.950 . S
H2191 C2167 0.949 . S
H2192 C2169 0.950 . S
H2193 C2171 0.950 . S
C2194 C2195 1.349 . S
C2194 C2196 1.327 . S
C2194 H2219 0.950 . S
C2195 C2194 1.349 . S
C2195 C2211 1.349 . S
C2196 C2194 1.327 . S
C2196 C2215 1.429 . S
C2196 H2220 0.950 . S
C2197 C2214 1.574 . S
C2197 C2216 1.368 . S
C2197 H2221 0.949 . S
H2198 C2202 0.949 . S
C2199 C2200 1.349 . S
C2199 C2201 1.327 . S
C2199 H2222 0.950 . S
C2200 C2199 1.349 . S
C2200 C2212 1.349 . S
C2201 C2199 1.327 . S
C2201 C2217 1.429 . S
C2201 H2223 0.950 . S
C2202 H2198 0.949 . S
C2202 C2210 1.574 . S
C2202 C2218 1.368 . S
H2203 C2211 0.950 . S
H2204 C2209 0.950 . S
H2205 C2210 0.949 . S
H2206 C2212 0.950 . S
H2207 C2213 0.950 . S
H2208 C2214 0.949 . S
C2209 H2204 0.950 . S
C2209 C2211 1.327 . S
C2209 C2215 1.429 . S
C2210 C2202 1.574 . S
C2210 H2205 0.949 . S
C2210 C2216 1.368 . S
C2211 C2195 1.349 . S
C2211 H2203 0.950 . S
C2211 C2209 1.327 . S
C2212 C2200 1.349 . S
C2212 H2206 0.950 . S
C2212 C2213 1.327 . S
C2213 H2207 0.950 . S
C2213 C2212 1.327 . S
C2213 C2217 1.429 . S
C2214 C2197 1.574 . S
C2214 H2208 0.949 . S
C2214 C2218 1.368 . S
C2215 C2196 1.429 . S
C2215 C2209 1.429 . S
C2215 C2216 1.523 . S
C2216 C2197 1.368 . S
C2216 C2210 1.368 . S
C2216 C2215 1.523 . S
C2217 C2201 1.429 . S
C2217 C2213 1.429 . S
C2217 C2218 1.523 . S
C2218 C2202 1.368 . S
C2218 C2214 1.368 . S
C2218 C2217 1.523 . S
H2219 C2194 0.950 . S
H2220 C2196 0.950 . S
H2221 C2197 0.949 . S
H2222 C2199 0.950 . S
H2223 C2201 0.950 . S
C545 C1 1.755 . S
C550 C173 1.755 . S
C575 C37 1.755 . S
C580 C207 1.755 . S
C605 C241 1.755 . S
C610 C69 1.755 . S
C635 C103 1.755 . S
C640 C139 1.755 . S
C665 C445 1.755 . S
C670 C273 1.755 . S
C695 C307 1.755 . S
C700 C477 1.755 . S
C725 C341 1.755 . S
C730 C513 1.755 . S
C755 C411 1.755 . S
C760 C377 1.755 . S
C785 C504 1.354 . S
C790 C6 1.326 . S
C815 C516 1.354 . S
C820 C62 1.326 . S
C845 C74 1.326 . S
C850 C414 1.354 . S
C875 C108 1.326 . S
C880 C448 1.354 . S
C905 C164 1.326 . S
C910 C368 1.321 . S
C935 C198 1.326 . S
C940 C380 1.321 . S
C965 C232 1.326 . S
C970 C300 1.321 . S
C995 C334 1.321 . S
C1000 C266 1.326 . S
C1025 C210 1.354 . S
C1030 C278 1.326 . S
C1055 C312 1.326 . S
C1060 C244 1.354 . S
C1085 C346 1.326 . S
C1090 C142 1.354 . S
C1115 C402 1.326 . S
C1120 C176 1.354 . S
C1145 C436 1.326 . S
C1150 C96 1.321 . S
C1175 C130 1.321 . S
C1180 C470 1.326 . S
C1205 C482 1.326 . S
C1210 C28 1.321 . S
C1235 C538 1.326 . S
C1240 C40 1.321 . S
C1265 C3 1.475 . S
C1270 C396 1.557 . S
C1295 C35 1.475 . S
C1300 C287 1.557 . S
C1325 C321 1.557 . S
C1330 C71 1.474 . S
C1355 C105 1.475 . S
C1360 C355 1.557 . S
C1385 C464 1.557 . S
C1390 C137 1.475 . S
C1415 C171 1.474 . S
C1420 C491 1.557 . S
C1445 C205 1.475 . S
C1450 C532 1.557 . S
C1475 C239 1.475 . S
C1480 C430 1.557 . S
C1505 C275 1.475 . S
C1510 C117 1.557 . S
C1535 C15 1.557 . S
C1540 C309 1.475 . S
C1565 C56 1.557 . S
C1570 C343 1.474 . S
C1595 C83 1.557 . S
C1600 C375 1.475 . S
C1625 C192 1.557 . S
C1630 C409 1.475 . S
C1655 C226 1.557 . S
C1660 C443 1.474 . S
C1685 C260 1.557 . S
C1690 C479 1.475 . S
C1715 C158 1.557 . S
C1720 C511 1.475 . S
C1745 C22 1.749 . S
C1750 C119 1.960 . S
C1775 C49 1.749 . S
C1780 C17 1.960 . S
C1805 C51 1.960 . S
C1810 C90 1.750 . S
C1835 C85 1.960 . S
C1840 C124 1.749 . S
C1865 C187 1.960 . S
C1870 C151 1.749 . S
C1895 C221 1.960 . S
C1900 C185 1.750 . S
C1925 C255 1.960 . S
C1930 C219 1.749 . S
C1955 C153 1.960 . S
C1960 C253 1.749 . S
C1985 C391 1.960 . S
C1990 C294 1.749 . S
C2015 C328 1.749 . S
C2020 C289 1.960 . S
C2045 C362 1.750 . S
C2050 C323 1.960 . S
C2075 C357 1.960 . S
C2080 C389 1.749 . S
C2105 C459 1.960 . S
C2110 C423 1.749 . S
C2135 C457 1.750 . S
C2140 C493 1.960 . S
C2165 C527 1.960 . S
C2170 C498 1.749 . S
C2195 C425 1.960 . S
C2200 C525 1.749 . S
