# Generated by pormake.
# Topology upa, (4)-cn, num edge types: 1
# Building blocks:
#     Node 0, Type 0, BuildingBlock: QUQFOY_clean_sbu_3, # of connection points: 4
#     Node 1, Type 0, BuildingBlock: QUQFOY_clean_sbu_3, # of connection points: 4
#     Node 2, Type 0, BuildingBlock: QUQFOY_clean_sbu_3, # of connection points: 4
#     Node 3, Type 0, BuildingBlock: QUQFOY_clean_sbu_3, # of connection points: 4
#     Node 4, Type 0, BuildingBlock: QUQFOY_clean_sbu_3, # of connection points: 4
#     Node 5, Type 0, BuildingBlock: QUQFOY_clean_sbu_3, # of connection points: 4
#     Node 6, Type 0, BuildingBlock: QUQFOY_clean_sbu_3, # of connection points: 4
#     Node 7, Type 0, BuildingBlock: QUQFOY_clean_sbu_3, # of connection points: 4
#     Edge 8, Type (0, 0), BuildingBlock: FUNLAD_clean_linker_1, # of connection points: 2
#     Edge 9, Type (0, 0), BuildingBlock: FUNLAD_clean_linker_1, # of connection points: 2
#     Edge 10, Type (0, 0), BuildingBlock: FUNLAD_clean_linker_1, # of connection points: 2
#     Edge 11, Type (0, 0), BuildingBlock: FUNLAD_clean_linker_1, # of connection points: 2
#     Edge 12, Type (0, 0), BuildingBlock: FUNLAD_clean_linker_1, # of connection points: 2
#     Edge 13, Type (0, 0), BuildingBlock: FUNLAD_clean_linker_1, # of connection points: 2
#     Edge 14, Type (0, 0), BuildingBlock: FUNLAD_clean_linker_1, # of connection points: 2
#     Edge 15, Type (0, 0), BuildingBlock: FUNLAD_clean_linker_1, # of connection points: 2
#     Edge 16, Type (0, 0), BuildingBlock: FUNLAD_clean_linker_1, # of connection points: 2
#     Edge 17, Type (0, 0), BuildingBlock: FUNLAD_clean_linker_1, # of connection points: 2
#     Edge 18, Type (0, 0), BuildingBlock: FUNLAD_clean_linker_1, # of connection points: 2
#     Edge 19, Type (0, 0), BuildingBlock: FUNLAD_clean_linker_1, # of connection points: 2
#     Edge 20, Type (0, 0), BuildingBlock: FUNLAD_clean_linker_1, # of connection points: 2
#     Edge 21, Type (0, 0), BuildingBlock: FUNLAD_clean_linker_1, # of connection points: 2
#     Edge 22, Type (0, 0), BuildingBlock: FUNLAD_clean_linker_1, # of connection points: 2
#     Edge 23, Type (0, 0), BuildingBlock: FUNLAD_clean_linker_1, # of connection points: 2
# Relax obj value: 0.209
# Max RMSD: 0.129
# Mean RMSD: 0.129
data_MOF--net-upa--node1-QUQFOY_clean_sbu_3--edge1-FUNLAD_clean_linker_1
_symmetry_space_group_name_H-M    P1
_symmetry_Int_Tables_number       1
_symmetry_cell_setting            triclinic
loop_
_symmetry_equiv_pos_as_xyz
'x, y, z'
_cell_length_a     28.523124
_cell_length_b     28.489365
_cell_length_c     47.073162
_cell_angle_alpha  90.430096
_cell_angle_beta   89.540644
_cell_angle_gamma 91.061176
loop_
_atom_site_label
_atom_site_type_symbol
_atom_site_fract_x
_atom_site_fract_y
_atom_site_fract_z
_atom_type_partial_charge
C0 C 0.05907 0.27418 0.31881 0.0
O1 O 0.05378 0.28144 0.34526 0.0
Cd2 Cd 0.09254 0.23802 0.38148 0.0
O3 O 0.09248 0.24896 0.30944 0.0
Cd4 Cd 0.16094 0.20629 0.32995 0.0
C5 C 0.07536 0.12969 0.34952 0.0
O6 O 0.17529 0.24197 0.37689 0.0
O7 O 0.19713 0.17031 0.37075 0.0
O8 O 0.22799 0.24231 0.30445 0.0
C9 C 0.19537 0.20617 0.38677 0.0
O10 O 0.06673 0.15802 0.36987 0.0
C11 C 0.23918 0.20494 0.29131 0.0
O12 O 0.10672 0.13896 0.33081 0.0
O13 O 0.21269 0.16911 0.29489 0.0
C14 C 0.22308 0.57474 0.80307 0.0
O15 O 0.20451 0.56519 0.827 0.0
Cd16 Cd 0.22886 0.60114 0.87066 0.0
O17 O 0.25065 0.61024 0.80029 0.0
Cd18 Cd 0.28269 0.6772 0.82992 0.0
C19 C 0.34753 0.59008 0.85675 0.0
O20 O 0.22581 0.68428 0.86863 0.0
O21 O 0.29563 0.71072 0.87727 0.0
O22 O 0.25724 0.7425 0.80029 0.0
C23 C 0.25375 0.70433 0.88591 0.0
O24 O 0.31065 0.57741 0.87029 0.0
C25 C 0.29838 0.75758 0.79437 0.0
O26 O 0.34761 0.62482 0.83979 0.0
O27 O 0.33231 0.73465 0.80424 0.0
C28 C 0.89921 0.68657 0.31732 0.0
O29 O 0.90462 0.68465 0.344 0.0
Cd30 Cd 0.86256 0.73451 0.37594 0.0
O31 O 0.86383 0.70695 0.30681 0.0
Cd32 Cd 0.78992 0.74487 0.32564 0.0
C33 C 0.86656 0.83397 0.33377 0.0
O34 O 0.7809 0.718 0.37504 0.0
O35 O 0.75123 0.78507 0.36506 0.0
O36 O 0.73105 0.69266 0.30328 0.0
C37 C 0.75663 0.75274 0.383 0.0
O38 O 0.87961 0.81184 0.3557 0.0
C39 C 0.70987 0.72527 0.29068 0.0
O40 O 0.83467 0.81728 0.31762 0.0
O41 O 0.72759 0.76641 0.2928 0.0
C42 C 0.77417 0.39941 0.80376 0.0
O43 O 0.79715 0.40215 0.82669 0.0
Cd44 Cd 0.76498 0.36981 0.86963 0.0
O45 O 0.74075 0.36933 0.80089 0.0
Cd46 Cd 0.7041 0.30175 0.82783 0.0
C47 C 0.64922 0.39591 0.85467 0.0
O48 O 0.75626 0.28704 0.86758 0.0
O49 O 0.68277 0.27022 0.87424 0.0
O50 O 0.72824 0.2366 0.79675 0.0
C51 C 0.72421 0.27104 0.88394 0.0
O52 O 0.68691 0.40383 0.86839 0.0
C53 C 0.68686 0.22348 0.79014 0.0
O54 O 0.64512 0.3611 0.83755 0.0
O55 O 0.65342 0.24758 0.80019 0.0
C56 C 0.56258 0.22281 0.18518 0.0
O57 O 0.54996 0.21375 0.15989 0.0
Cd58 Cd 0.59116 0.23951 0.11845 0.0
O59 O 0.60292 0.2412 0.19021 0.0
Cd60 Cd 0.67497 0.26766 0.16241 0.0
C61 C 0.60345 0.35438 0.14239 0.0
O62 O 0.67094 0.21768 0.12004 0.0
O63 O 0.71085 0.28211 0.11552 0.0
O64 O 0.73154 0.22421 0.19067 0.0
C65 C 0.69657 0.24378 0.10444 0.0
O66 O 0.58475 0.32387 0.12585 0.0
C67 C 0.75683 0.25973 0.19731 0.0
O68 O 0.6368 0.34384 0.1589 0.0
O69 O 0.74342 0.29939 0.18859 0.0
C70 C 0.26751 0.06848 0.68103 0.0
O71 O 0.27051 0.05662 0.65502 0.0
Cd72 Cd 0.22668 0.09208 0.61765 0.0
O73 O 0.24538 0.10516 0.68842 0.0
Cd74 Cd 0.20056 0.16869 0.66473 0.0
C75 C 0.12203 0.08035 0.65343 0.0
O76 O 0.23467 0.17563 0.61669 0.0
O77 O 0.16344 0.19881 0.62242 0.0
O78 O 0.23612 0.2385 0.68787 0.0
C79 C 0.19904 0.19528 0.60633 0.0
O80 O 0.14726 0.06863 0.63214 0.0
C81 C 0.19821 0.25111 0.69987 0.0
O82 O 0.13432 0.11396 0.66987 0.0
O83 O 0.16239 0.22465 0.69645 0.0
C84 C 0.3961 0.76606 0.18605 0.0
O85 O 0.40223 0.78558 0.16216 0.0
Cd86 Cd 0.36822 0.74997 0.12116 0.0
O87 O 0.36204 0.73698 0.19009 0.0
Cd88 Cd 0.28983 0.70743 0.1638 0.0
C89 C 0.37396 0.63377 0.14404 0.0
O90 O 0.28602 0.75818 0.12236 0.0
O91 O 0.25709 0.68819 0.1171 0.0
O92 O 0.23205 0.74612 0.19439 0.0
C93 C 0.26503 0.72844 0.10656 0.0
O94 O 0.38911 0.66796 0.12899 0.0
C95 C 0.20833 0.70915 0.2001 0.0
O96 O 0.33715 0.6373 0.15938 0.0
O97 O 0.22342 0.6707 0.18997 0.0
C98 C 0.7016 0.90578 0.67628 0.0
O99 O 0.69775 0.91564 0.65012 0.0
Cd100 Cd 0.72648 0.86918 0.61077 0.0
O101 O 0.71727 0.86611 0.68382 0.0
Cd102 Cd 0.74654 0.79278 0.65991 0.0
C103 C 0.83716 0.86219 0.63825 0.0
O104 O 0.70594 0.78837 0.61387 0.0
O105 O 0.77091 0.75097 0.61751 0.0
O106 O 0.69965 0.73477 0.68667 0.0
C107 C 0.73587 0.76122 0.60259 0.0
O108 O 0.81049 0.87546 0.61841 0.0
C109 C 0.73454 0.71289 0.69622 0.0
O110 O 0.82244 0.83468 0.65779 0.0
O111 O 0.77506 0.72968 0.69034 0.0
H112 H 0.02303 0.07855 0.36522 0.0
C113 C 0.04654 0.08653 0.34751 0.0
H114 H 0.06944 0.06522 0.30658 0.0
H115 H 0.00158 0.85506 0.33388 0.0
H116 H 0.08565 0.84592 0.32878 0.0
H117 H 0.13797 0.9147 0.32146 0.0
H118 H 0.1065 -0.00686 0.31889 0.0
C119 C 0.04605 0.05848 0.32448 0.0
C120 C 0.01421 0.01662 0.32378 0.0
C121 C 0.03316 0.97116 0.32503 0.0
C122 C 0.00304 0.93167 0.32975 0.0
C123 C 0.0229 0.88648 0.33088 0.0
C124 C 0.07108 0.88067 0.32787 0.0
C125 C 0.10055 0.91941 0.32372 0.0
C126 C 0.08203 0.96423 0.32233 0.0
H127 H 0.88266 0.89433 0.3058 0.0
C128 C 0.89092 0.87816 0.32595 0.0
H129 H 0.93389 0.88025 0.36222 0.0
H130 H 0.96618 0.0974 0.3151 0.0
H131 H 0.88203 0.10719 0.31977 0.0
H132 H 0.83014 0.04011 0.33226 0.0
H133 H 0.86173 0.9628 0.33936 0.0
C134 C 0.92443 0.89724 0.34253 0.0
C135 C 0.95411 0.93791 0.33348 0.0
C136 C 0.93483 0.98316 0.33046 0.0
C137 C 0.96493 0.02234 0.32478 0.0
C138 C 0.94494 0.06687 0.32057 0.0
C139 C 0.89674 0.07291 0.32304 0.0
C140 C 0.86751 0.0351 0.32994 0.0
C141 C 0.88613 -0.00927 0.33377 0.0
H142 H 0.38434 0.52699 0.8698 0.0
C143 C 0.38908 0.56062 0.85927 0.0
H144 H 0.43614 0.60532 0.83712 0.0
H145 H 0.54763 0.42482 0.899 0.0
H146 H 0.51977 0.45601 0.94396 0.0
H147 H 0.47171 0.52714 0.94566 0.0
H148 H 0.44993 0.56636 0.90226 0.0
C149 C 0.43118 0.57221 0.84814 0.0
C150 C 0.46982 0.53761 0.84782 0.0
C151 C 0.48534 0.51744 0.87351 0.0
C152 C 0.51607 0.47873 0.87266 0.0
C153 C 0.52687 0.45616 0.89846 0.0
C154 C 0.51073 0.47344 0.92444 0.0
C155 C 0.48348 0.51331 0.92539 0.0
C156 C 0.47084 0.5352 0.9003 0.0
H157 H 0.61883 0.46168 0.8702 0.0
C158 C 0.61147 0.43012 0.85775 0.0
H159 H 0.56231 0.39429 0.83186 0.0
H160 H 0.44916 0.56965 0.79455 0.0
H161 H 0.48338 0.54369 0.75006 0.0
H162 H 0.54266 0.48177 0.74901 0.0
H163 H 0.56729 0.44473 0.79241 0.0
C164 C 0.56967 0.42486 0.84515 0.0
C165 C 0.53485 0.46317 0.84628 0.0
C166 C 0.52175 0.48537 0.82074 0.0
C167 C 0.48868 0.52215 0.82146 0.0
C168 C 0.47484 0.54229 0.79546 0.0
C169 C 0.49418 0.52767 0.76968 0.0
C170 C 0.52748 0.49276 0.76908 0.0
C171 C 0.54121 0.4717 0.7942 0.0
H172 H 0.603 0.42941 0.15516 0.0
C173 C 0.58396 0.40196 0.14368 0.0
H174 H 0.52276 0.38355 0.12085 0.0
H175 H 0.45611 0.57597 0.18948 0.0
H176 H 0.46977 0.53346 0.23297 0.0
H177 H 0.50395 0.45454 0.23158 0.0
H178 H 0.52619 0.41849 0.18684 0.0
C179 C 0.54183 0.41084 0.13247 0.0
C180 C 0.52023 0.45788 0.13387 0.0
C181 C 0.50524 0.47722 0.16023 0.0
C182 C 0.48266 0.52132 0.16092 0.0
C183 C 0.47111 0.54149 0.18762 0.0
C184 C 0.47909 0.51762 0.21277 0.0
C185 C 0.49854 0.4733 0.212 0.0
C186 C 0.51148 0.45314 0.18612 0.0
H187 H 0.38386 0.55868 0.15343 0.0
C188 C 0.40056 0.58994 0.14453 0.0
H189 H 0.46224 0.61967 0.12647 0.0
H190 H 0.5467 0.43183 0.08002 0.0
H191 H 0.53012 0.47292 0.03643 0.0
H192 H 0.48627 0.54676 0.03739 0.0
H193 H 0.45921 0.58018 0.08193 0.0
C194 C 0.44532 0.58853 0.13536 0.0
C195 C 0.47224 0.54433 0.13516 0.0
C196 C 0.48746 0.52513 0.10886 0.0
C197 C 0.51182 0.48207 0.10825 0.0
C198 C 0.52726 0.464 0.08171 0.0
C199 C 0.51812 0.48731 0.0565 0.0
C200 C 0.49352 0.52891 0.05705 0.0
C201 C 0.47826 0.54775 0.08283 0.0
H202 H 0.06495 0.05584 0.68183 0.0
C203 C 0.07987 0.05215 0.66063 0.0
H204 H 0.07655 0.0168 0.62123 0.0
H205 H 0.97452 0.83105 0.65499 0.0
H206 H 0.05045 0.80381 0.63865 0.0
H207 H 0.11486 0.86009 0.62831 0.0
H208 H 0.10429 0.94382 0.63454 0.0
C209 C 0.06107 0.02094 0.64226 0.0
C210 C 0.02288 -0.01262 0.65066 0.0
C211 C 0.03053 0.93838 0.64788 0.0
C212 C -0.00642 0.90575 0.65391 0.0
C213 C 0.00154 0.85716 0.65043 0.0
C214 C 0.04493 0.84109 0.64123 0.0
C215 C 0.08126 0.87282 0.63549 0.0
C216 C 0.07451 0.92087 0.63893 0.0
H217 H 0.89815 0.89867 0.61964 0.0
C218 C 0.88463 0.88281 0.63909 0.0
H219 H 0.8941 0.87724 0.6835 0.0
H220 H -0.00646 0.07885 0.65559 0.0
H221 H 0.91915 0.10455 0.67462 0.0
H222 H 0.85853 0.04699 0.68988 0.0
H223 H 0.87134 0.96335 0.68492 0.0
C224 C 0.90821 0.88957 0.66333 0.0
C225 C 0.94948 0.92201 0.66311 0.0
C226 C 0.94264 0.97056 0.66774 0.0
C227 C 0.97874 0.00353 0.66055 0.0
C228 C 0.9688 0.05203 0.66245 0.0
C229 C 0.92587 0.06735 0.67299 0.0
C230 C 0.89159 0.03499 0.68139 0.0
C231 C 0.89945 -0.01288 0.6785 0.0
H232 H 0.22378 0.16954 0.42363 0.0
C233 C 0.20781 0.202 0.417 0.0
H234 H 0.18088 0.26707 0.43071 0.0
H235 H 0.1696 0.13032 0.5451 0.0
H236 H 0.10925 0.08729 0.51934 0.0
H237 H 0.09 0.10812 0.47007 0.0
H238 H 0.13168 0.17142 0.44612 0.0
C239 C 0.19646 0.23415 0.43678 0.0
C240 C 0.20426 0.22506 0.46755 0.0
C241 C 0.17794 0.18933 0.48171 0.0
C242 C 0.18732 0.17894 0.51061 0.0
C243 C 0.16254 0.14114 0.52361 0.0
C244 C 0.12799 0.11587 0.50899 0.0
C245 C 0.11729 0.12747 0.48123 0.0
C246 C 0.1418 0.16372 0.46765 0.0
H247 H 0.16256 0.22154 0.56882 0.0
C248 C 0.1953 0.20679 0.57593 0.0
H249 H 0.26227 0.18342 0.56329 0.0
H250 H 0.2602 0.29619 0.44702 0.0
H251 H 0.31855 0.34133 0.4734 0.0
H252 H 0.33277 0.32526 0.524 0.0
H253 H 0.28894 0.26378 0.54855 0.0
C254 C 0.22889 0.19729 0.55667 0.0
C255 C 0.22122 0.20597 0.52584 0.0
C256 C 0.24705 0.24204 0.5118 0.0
C257 C 0.23855 0.2516 0.48265 0.0
C258 C 0.26505 0.28767 0.46916 0.0
C259 C 0.29865 0.31383 0.48404 0.0
C260 C 0.30668 0.30476 0.51253 0.0
C261 C 0.28128 0.26936 0.52637 0.0
H262 H 0.20621 0.69836 0.9231 0.0
C263 C 0.24127 0.70911 0.91629 0.0
H264 H 0.30902 0.73071 0.92922 0.0
H265 H 0.18536 0.76956 0.04732 0.0
H266 H 0.14682 0.8305 0.02097 0.0
H267 H 0.16239 0.84097 0.96976 0.0
H268 H 0.21604 0.79007 0.94448 0.0
C269 C 0.27331 0.72196 0.9358 0.0
C270 C 0.26401 0.71685 0.96681 0.0
C271 C 0.23347 0.74767 0.98139 0.0
C272 C 0.22583 0.74275 0.01117 0.0
C273 C 0.1937 0.77276 0.02496 0.0
C274 C 0.17111 0.80772 0.01005 0.0
C275 C 0.17978 0.81353 0.98119 0.0
C276 C 0.21053 0.78395 0.96691 0.0
H277 H 0.27508 0.76954 0.0673 0.0
C278 C 0.26083 0.73671 0.07577 0.0
H279 H 0.23142 0.67007 0.06612 0.0
H280 H 0.32327 0.65068 0.94513 0.0
H281 H 0.36352 0.59123 0.97164 0.0
H282 H 0.35298 0.58482 0.02353 0.0
H283 H 0.30184 0.63751 0.04917 0.0
C284 C 0.24416 0.70356 0.05785 0.0
C285 C 0.24996 0.708 0.02646 0.0
C286 C 0.28036 0.67706 0.0118 0.0
C287 C 0.28721 0.68136 0.98196 0.0
C288 C 0.31732 0.64956 0.96784 0.0
C289 C 0.3406 0.61513 0.98279 0.0
C290 C 0.33459 0.61147 0.01199 0.0
C291 C 0.30495 0.64195 0.02643 0.0
H292 H 0.76081 0.72249 0.56505 0.0
C293 C 0.73561 0.74832 0.57221 0.0
H294 H 0.68676 0.79852 0.55924 0.0
H295 H 0.80169 0.81191 0.44204 0.0
H296 H 0.82626 0.88434 0.46511 0.0
H297 H 0.80144 0.90226 0.51426 0.0
H298 H 0.75226 0.84742 0.54071 0.0
C299 C 0.7099 0.7704 0.55285 0.0
C300 C 0.71887 0.76212 0.52198 0.0
C301 C 0.74587 0.79543 0.50634 0.0
C302 C 0.75898 0.78569 0.47768 0.0
C303 C 0.78882 0.81823 0.46335 0.0
C304 C 0.80365 0.85984 0.47647 0.0
C305 C 0.78978 0.86988 0.50416 0.0
C306 C 0.76147 0.83809 0.51908 0.0
H307 H 0.71942 0.78954 0.41751 0.0
C308 C 0.74139 0.75967 0.41274 0.0
H309 H 0.77793 0.70268 0.42971 0.0
H310 H 0.66485 0.69215 0.54548 0.0
H311 H 0.63952 0.6196 0.52242 0.0
H312 H 0.66101 0.6031 0.47252 0.0
H313 H 0.70799 0.65893 0.44535 0.0
C314 C 0.75639 0.73298 0.43413 0.0
C315 C 0.7434 0.74337 0.4643 0.0
C316 C 0.71594 0.71033 0.4799 0.0
C317 C 0.70363 0.71975 0.50873 0.0
C318 C 0.67575 0.68639 0.52368 0.0
C319 C 0.66079 0.64474 0.51066 0.0
C320 C 0.67287 0.63546 0.48255 0.0
C321 C 0.69997 0.66779 0.46722 0.0
H322 H 0.76823 0.27098 0.92243 0.0
C323 C 0.733 0.26421 0.91453 0.0
H324 H 0.66238 0.24911 0.92524 0.0
H325 H 0.77366 0.19638 0.04485 0.0
H326 H 0.8104 0.13414 0.01774 0.0
H327 H 0.79796 0.12643 0.9661 0.0
H328 H 0.74934 0.18136 0.94117 0.0
C329 C 0.698 0.25407 0.93295 0.0
C330 C 0.70459 0.25695 0.96431 0.0
C331 C 0.73205 0.22371 0.97869 0.0
C332 C 0.73779 0.22709 0.00869 0.0
C333 C 0.76692 0.19459 0.02229 0.0
C334 C 0.78841 0.15882 0.00696 0.0
C335 C 0.78152 0.15456 0.97787 0.0
C336 C 0.75369 0.18648 0.96379 0.0
H337 H 0.68233 0.20419 0.06479 0.0
C338 C 0.69979 0.23528 0.07349 0.0
H339 H 0.73572 0.29883 0.0643 0.0
H340 H 0.65021 0.32696 0.94342 0.0
H341 H 0.61106 0.38725 0.97077 0.0
H342 H 0.61829 0.39107 0.02292 0.0
H343 H 0.66504 0.33484 0.048 0.0
C344 C 0.71996 0.2667 0.05581 0.0
C345 C 0.71482 0.26278 0.02437 0.0
C346 C 0.68696 0.2957 0.01001 0.0
C347 C 0.68202 0.29291 0.97999 0.0
C348 C 0.65457 0.32681 0.96623 0.0
C349 C 0.63198 0.36177 0.98166 0.0
C350 C 0.63612 0.36397 0.01101 0.0
C351 C 0.66321 0.33147 0.02513 0.0
H352 H 0.53844 0.22626 0.23013 0.0
C353 C 0.52756 0.21832 0.20852 0.0
H354 H 0.4703 0.20585 0.18111 0.0
H355 H 0.35214 0.15568 0.29713 0.0
H356 H 0.39951 0.08607 0.2994 0.0
H357 H 0.46709 0.0758 0.26706 0.0
H358 H 0.48824 0.13567 0.23257 0.0
C359 C 0.48169 0.21113 0.2029 0.0
C360 C 0.44393 0.21857 0.22444 0.0
C361 C 0.4313 0.18286 0.24397 0.0
C362 C 0.39114 0.18802 0.26187 0.0
C363 C 0.38085 0.15274 0.28213 0.0
C364 C 0.40805 0.11275 0.28385 0.0
C365 C 0.44618 0.10702 0.26569 0.0
C366 C 0.4579 0.1416 0.24597 0.0
H367 H 0.28529 0.1723 0.25914 0.0
C368 C 0.28208 0.20204 0.27358 0.0
H369 H 0.31541 0.26225 0.29098 0.0
H370 H 0.46187 0.29604 0.19189 0.0
H371 H 0.41564 0.36656 0.19011 0.0
H372 H 0.34426 0.37432 0.21959 0.0
H373 H 0.3189 0.31189 0.25119 0.0
C374 C 0.31834 0.23261 0.27645 0.0
C375 C 0.36262 0.22822 0.25943 0.0
C376 C 0.37676 0.26498 0.24088 0.0
C377 C 0.41749 0.2602 0.22349 0.0
C378 C 0.43088 0.29756 0.20526 0.0
C379 C 0.40473 0.33829 0.20408 0.0
C380 C 0.36461 0.34269 0.22072 0.0
C381 C 0.35051 0.30656 0.23885 0.0
H382 H 0.34216 0.80684 0.76894 0.0
C383 C 0.30686 0.79995 0.77691 0.0
H384 H 0.23721 0.82323 0.77899 0.0
H385 H 0.35712 0.01442 0.73594 0.0
H386 H 0.39771 0.01133 0.78099 0.0
H387 H 0.3835 0.94557 0.81393 0.0
H388 H 0.32944 0.88204 0.80183 0.0
C389 C 0.27263 0.83032 0.77125 0.0
C390 C 0.28018 0.87178 0.75232 0.0
C391 C 0.31071 0.9096 0.76021 0.0
C392 C 0.3173 0.94876 0.74178 0.0
C393 C 0.34963 -0.01522 0.74957 0.0
C394 C 0.3733 0.98333 0.7753 0.0
C395 C 0.36543 0.94621 0.79381 0.0
C396 C 0.33451 0.90974 0.78649 0.0
H397 H 0.27005 0.04188 0.72496 0.0
C398 C 0.28096 0.03465 0.70321 0.0
H399 H 0.30682 -0.01589 0.67452 0.0
H400 H 0.21909 0.80564 0.73058 0.0
H401 H 0.17503 0.81114 0.687 0.0
H402 H 0.18321 0.88088 0.6565 0.0
H403 H 0.23519 0.94528 0.66926 0.0
C404 C 0.29743 -0.00809 0.69646 0.0
C405 C 0.29186 0.9511 0.71608 0.0
C406 C 0.26042 0.91384 0.7086 0.0
C407 C 0.25492 0.87409 0.72655 0.0
C408 C 0.22402 0.83709 0.71809 0.0
C409 C 0.19855 0.83968 0.69306 0.0
C410 C 0.20314 0.87888 0.67587 0.0
C411 C 0.2335 0.91559 0.68343 0.0
H412 H 0.64891 0.681 0.27814 0.0
C413 C 0.66438 0.71604 0.27656 0.0
H414 H 0.65497 0.78572 0.2635 0.0
H415 H 0.48431 0.66972 0.19376 0.0
H416 H 0.54493 0.62261 0.17219 0.0
H417 H 0.6273 0.63159 0.18713 0.0
H418 H 0.64942 0.68727 0.22394 0.0
C419 C 0.64015 0.75031 0.26413 0.0
C420 C 0.59039 0.74358 0.2548 0.0
C421 C 0.57821 0.71141 0.23272 0.0
C422 C 0.53079 0.70716 0.22352 0.0
C423 C 0.51964 0.67458 0.20157 0.0
C424 C 0.55415 0.64733 0.18891 0.0
C425 C 0.6005 0.65232 0.19736 0.0
C426 C 0.61265 0.68417 0.21879 0.0
H427 H 0.45661 0.8028 0.2053 0.0
C428 C 0.43396 0.77181 0.20706 0.0
H429 H 0.42772 0.70311 0.22317 0.0
H430 H 0.60035 0.80617 0.29902 0.0
H431 H 0.53934 0.85298 0.32048 0.0
H432 H 0.45775 0.84657 0.30371 0.0
H433 H 0.43672 0.7931 0.26532 0.0
C434 C 0.44782 0.7359 0.22318 0.0
C435 C 0.49589 0.73632 0.23559 0.0
C436 C 0.50777 0.76759 0.25804 0.0
C437 C 0.55493 0.7712 0.26767 0.0
C438 C 0.5654 0.8024 0.29045 0.0
C439 C 0.53062 0.82936 0.30311 0.0
C440 C 0.48469 0.82577 0.29366 0.0
C441 C 0.47316 0.79517 0.27149 0.0
H442 H 0.64218 0.17588 0.76405 0.0
C443 C 0.67753 0.18166 0.77196 0.0
H444 H 0.74635 0.15615 0.77347 0.0
H445 H 0.62125 0.96775 0.73083 0.0
H446 H 0.58039 0.97312 0.77606 0.0
H447 H 0.59635 0.03911 0.809 0.0
H448 H 0.6524 0.1007 0.79665 0.0
C449 C 0.71087 0.15017 0.76583 0.0
C450 C 0.70228 0.10849 0.74684 0.0
C451 C 0.6708 0.07159 0.75492 0.0
C452 C 0.66341 0.03207 0.73654 0.0
C453 C 0.62973 -0.00264 0.74445 0.0
C454 C 0.60579 0.00018 0.77029 0.0
C455 C 0.61464 0.03743 0.78879 0.0
C456 C 0.64672 0.07277 0.78133 0.0
H457 H 0.70518 0.93587 0.71974 0.0
C458 C 0.69482 0.9431 0.69806 0.0
H459 H 0.67362 -0.00544 0.66919 0.0
H460 H 0.7648 0.17267 0.72461 0.0
H461 H 0.80875 0.16527 0.68063 0.0
H462 H 0.79941 0.095 0.65018 0.0
H463 H 0.74613 0.03174 0.66346 0.0
C464 C 0.68252 -0.01297 0.69107 0.0
C465 C 0.68922 0.02822 0.71073 0.0
C466 C 0.7214 0.0647 0.70297 0.0
C467 C 0.7276 0.10487 0.72087 0.0
C468 C 0.75925 0.14102 0.71215 0.0
C469 C 0.78464 0.13735 0.68687 0.0
C470 C 0.77926 0.09787 0.66969 0.0
C471 C 0.7483 0.06182 0.67757 0.0
H472 H -0.00281 0.31552 0.30805 0.0
C473 C 0.02118 0.28936 0.29985 0.0
H474 H 0.03214 0.23809 0.26787 0.0
H475 H 0.80122 0.25563 0.26971 0.0
H476 H 0.80648 0.21483 0.31447 0.0
H477 H 0.88337 0.19768 0.3352 0.0
H478 H 0.95537 0.22218 0.31161 0.0
C479 C 0.00962 0.2655 0.27605 0.0
C480 C 0.96326 0.27191 0.26209 0.0
C481 C 0.92139 0.25516 0.27543 0.0
C482 C 0.87704 0.26259 0.26261 0.0
C483 C 0.83586 0.24866 0.27758 0.0
C484 C 0.83835 0.22557 0.30348 0.0
C485 C 0.88162 0.21609 0.31522 0.0
C486 C 0.92273 0.23066 0.30149 0.0
H487 H 0.81096 0.21873 0.21875 0.0
C488 C 0.80067 0.25415 0.21351 0.0
H489 H 0.81917 0.32609 0.21523 0.0
H490 H 0.03644 0.30682 0.23059 0.0
H491 H 0.03186 0.34356 0.18434 0.0
H492 H 0.95563 0.35286 0.16086 0.0
H493 H 0.88352 0.32584 0.18343 0.0
C494 C 0.8285 0.29072 0.22121 0.0
C495 C 0.87467 0.28411 0.23552 0.0
C496 C 0.91672 0.29981 0.22192 0.0
C497 C 0.9609 0.29386 0.23527 0.0
C498 C 0.00211 0.31021 0.22128 0.0
C499 C -3e-05 0.33135 0.19475 0.0
C500 C 0.95704 0.33663 0.18155 0.0
C501 C 0.91584 0.32107 0.19482 0.0
H502 H 0.1633 0.29998 0.72941 0.0
C503 C 0.19481 0.29488 0.7167 0.0
H504 H 0.25882 0.32564 0.7025 0.0
H505 H 0.16272 0.52426 0.7346 0.0
H506 H 0.1415 0.52008 0.68483 0.0
H507 H 0.15735 0.44915 0.6562 0.0
H508 H 0.19414 0.38167 0.67729 0.0
C509 C 0.22774 0.32918 0.71577 0.0
C510 C 0.22181 0.37343 0.7324 0.0
C511 C 0.20151 0.41305 0.71963 0.0
C512 C 0.19334 0.45443 0.73601 0.0
C513 C 0.17098 0.49254 0.723 0.0
C514 C 0.15837 0.49049 0.69447 0.0
C515 C 0.16722 0.45052 0.67836 0.0
C516 C 0.18835 0.41206 0.69071 0.0
H517 H 0.24165 0.54515 0.76095 0.0
C518 C 0.21969 0.53977 0.77967 0.0
H519 H 0.17622 0.49235 0.80235 0.0
H520 H 0.26391 0.30471 0.76271 0.0
H521 H 0.28794 0.30947 0.81199 0.0
H522 H 0.27594 0.38166 0.84017 0.0
H523 H 0.23972 0.44935 0.81938 0.0
C524 C 0.19672 0.49841 0.78312 0.0
C525 C 0.20663 0.45645 0.76499 0.0
C526 C 0.22833 0.41718 0.77746 0.0
C527 C 0.23574 0.37565 0.76117 0.0
C528 C 0.25734 0.33703 0.77417 0.0
C529 C 0.27142 0.33932 0.80241 0.0
C530 C 0.26463 0.37994 0.81828 0.0
C531 C 0.24351 0.41852 0.80607 0.0
H532 H 0.15272 0.74654 0.22339 0.0
C533 C 0.16402 0.71195 0.21662 0.0
H534 H 0.14677 0.63973 0.21479 0.0
H535 H 0.00377 0.73496 0.31353 0.0
H536 H 0.07412 0.75675 0.33916 0.0
H537 H 0.15234 0.74078 0.319 0.0
H538 H 0.16055 0.70377 0.27279 0.0
C539 C 0.13654 0.67419 0.22239 0.0
C540 C 0.08946 0.6787 0.23648 0.0
C541 C 0.08523 0.69773 0.26436 0.0
C542 C 0.04003 0.7042 0.2768 0.0
C543 C 0.03701 0.72681 0.30366 0.0
C544 C 0.0772 0.73994 0.31855 0.0
C545 C 0.12121 0.73113 0.30715 0.0
C546 C 0.1254 0.71022 0.28043 0.0
H547 H 0.96273 0.64614 0.30806 0.0
C548 C 0.93867 0.67117 0.29915 0.0
H549 H 0.92888 0.72083 0.26672 0.0
H550 H 0.08419 0.6414 0.18274 0.0
H551 H 0.01371 0.61622 0.15813 0.0
H552 H 0.93594 0.62332 0.18088 0.0
H553 H 0.92815 0.65604 0.22839 0.0
C554 C 0.95158 0.69447 0.27549 0.0
C555 C -0.00095 0.68864 0.26223 0.0
C556 C 0.0033 0.66887 0.23464 0.0
C557 C 0.04837 0.66409 0.22171 0.0
C558 C 0.05112 0.64517 0.19384 0.0
C559 C 0.01087 0.63068 0.1794 0.0
C560 C 0.96707 0.63473 0.19219 0.0
C561 C 0.9631 0.6536 0.21946 0.0
H562 H 0.81403 0.4577 0.78389 0.0
C563 C 0.7815 0.43729 0.78279 0.0
H564 H 0.71198 0.43568 0.76783 0.0
H565 H 0.71014 0.6583 0.76601 0.0
H566 H 0.65866 0.64086 0.8058 0.0
H567 H 0.64695 0.55952 0.82237 0.0
H568 H 0.68757 0.49536 0.79962 0.0
C569 C 0.74597 0.45355 0.76723 0.0
C570 C 0.74874 0.50148 0.75456 0.0
C571 C 0.72329 0.53853 0.76737 0.0
C572 C 0.72862 0.5853 0.75708 0.0
C573 C 0.70558 0.62189 0.77183 0.0
C574 C 0.67628 0.61243 0.79499 0.0
C575 C 0.6698 0.56668 0.80437 0.0
C576 C 0.69327 0.53012 0.79102 0.0
H577 H 0.69236 0.65333 0.71296 0.0
C578 C 0.72775 0.66794 0.71145 0.0
H579 H 0.79932 0.65739 0.71933 0.0
H580 H 0.79922 0.4381 0.72383 0.0
H581 H 0.84798 0.45442 0.68247 0.0
H582 H 0.85538 0.53468 0.66348 0.0
H583 H 0.81433 0.5991 0.68568 0.0
C584 C 0.76379 0.64345 0.72167 0.0
C585 C 0.75763 0.59466 0.733 0.0
C586 C 0.78193 0.55717 0.7197 0.0
C587 C 0.77762 0.51071 0.73056 0.0
C588 C 0.80185 0.47406 0.71668 0.0
C589 C 0.82974 0.48289 0.69283 0.0
C590 C 0.8339 0.52808 0.68214 0.0
C591 C 0.81026 0.56485 0.69523 0.0
loop_
_geom_bond_atom_site_label_1
_geom_bond_atom_site_label_2
_geom_bond_distance
_geom_bond_site_symmetry_2
_ccdc_geom_bond_type
C0 O1 1.306 . S
C0 O3 1.160 . S
O1 C0 1.306 . S
O1 Cd2 2.228 . S
Cd2 O1 2.228 . S
Cd2 O6 2.273 . S
Cd2 O10 2.277 . S
O3 C0 1.160 . S
O3 Cd4 2.203 . S
Cd4 O3 2.203 . S
Cd4 O6 2.411 . S
Cd4 O7 2.333 . S
Cd4 O8 2.352 . S
Cd4 O12 2.277 . S
Cd4 O13 2.356 . S
C5 O10 1.209 . S
C5 O12 1.226 . S
O6 Cd2 2.273 . S
O6 Cd4 2.411 . S
O6 C9 1.320 . S
O7 Cd4 2.333 . S
O7 C9 1.214 . S
O8 Cd4 2.352 . S
O8 C11 1.258 . S
C9 O6 1.320 . S
C9 O7 1.214 . S
O10 Cd2 2.277 . S
O10 C5 1.209 . S
C11 O8 1.258 . S
C11 O13 1.282 . S
O12 Cd4 2.277 . S
O12 C5 1.226 . S
O13 Cd4 2.356 . S
O13 C11 1.282 . S
C14 O15 1.306 . S
C14 O17 1.160 . S
O15 C14 1.306 . S
O15 Cd16 2.228 . S
Cd16 O15 2.228 . S
Cd16 O20 2.273 . S
Cd16 O24 2.277 . S
O17 C14 1.160 . S
O17 Cd18 2.203 . S
Cd18 O17 2.203 . S
Cd18 O20 2.411 . S
Cd18 O21 2.333 . S
Cd18 O22 2.352 . S
Cd18 O26 2.277 . S
Cd18 O27 2.356 . S
C19 O24 1.209 . S
C19 O26 1.226 . S
O20 Cd16 2.273 . S
O20 Cd18 2.411 . S
O20 C23 1.320 . S
O21 Cd18 2.333 . S
O21 C23 1.214 . S
O22 Cd18 2.352 . S
O22 C25 1.258 . S
C23 O20 1.320 . S
C23 O21 1.214 . S
O24 Cd16 2.277 . S
O24 C19 1.209 . S
C25 O22 1.258 . S
C25 O27 1.282 . S
O26 Cd18 2.277 . S
O26 C19 1.226 . S
O27 Cd18 2.356 . S
O27 C25 1.282 . S
C28 O29 1.306 . S
C28 O31 1.160 . S
O29 C28 1.306 . S
O29 Cd30 2.228 . S
Cd30 O29 2.228 . S
Cd30 O34 2.273 . S
Cd30 O38 2.277 . S
O31 C28 1.160 . S
O31 Cd32 2.203 . S
Cd32 O31 2.203 . S
Cd32 O34 2.411 . S
Cd32 O35 2.333 . S
Cd32 O36 2.352 . S
Cd32 O40 2.277 . S
Cd32 O41 2.356 . S
C33 O38 1.209 . S
C33 O40 1.226 . S
O34 Cd30 2.273 . S
O34 Cd32 2.411 . S
O34 C37 1.320 . S
O35 Cd32 2.333 . S
O35 C37 1.214 . S
O36 Cd32 2.352 . S
O36 C39 1.258 . S
C37 O34 1.320 . S
C37 O35 1.214 . S
O38 Cd30 2.277 . S
O38 C33 1.209 . S
C39 O36 1.258 . S
C39 O41 1.282 . S
O40 Cd32 2.277 . S
O40 C33 1.226 . S
O41 Cd32 2.356 . S
O41 C39 1.282 . S
C42 O43 1.306 . S
C42 O45 1.160 . S
O43 C42 1.306 . S
O43 Cd44 2.228 . S
Cd44 O43 2.228 . S
Cd44 O48 2.273 . S
Cd44 O52 2.277 . S
O45 C42 1.160 . S
O45 Cd46 2.203 . S
Cd46 O45 2.203 . S
Cd46 O48 2.411 . S
Cd46 O49 2.333 . S
Cd46 O50 2.352 . S
Cd46 O54 2.277 . S
Cd46 O55 2.356 . S
C47 O52 1.209 . S
C47 O54 1.226 . S
O48 Cd44 2.273 . S
O48 Cd46 2.411 . S
O48 C51 1.320 . S
O49 Cd46 2.333 . S
O49 C51 1.214 . S
O50 Cd46 2.352 . S
O50 C53 1.258 . S
C51 O48 1.320 . S
C51 O49 1.214 . S
O52 Cd44 2.277 . S
O52 C47 1.209 . S
C53 O50 1.258 . S
C53 O55 1.282 . S
O54 Cd46 2.277 . S
O54 C47 1.226 . S
O55 Cd46 2.356 . S
O55 C53 1.282 . S
C56 O57 1.306 . S
C56 O59 1.160 . S
O57 C56 1.306 . S
O57 Cd58 2.228 . S
Cd58 O57 2.228 . S
Cd58 O62 2.273 . S
Cd58 O66 2.277 . S
O59 C56 1.160 . S
O59 Cd60 2.203 . S
Cd60 O59 2.203 . S
Cd60 O62 2.411 . S
Cd60 O63 2.333 . S
Cd60 O64 2.352 . S
Cd60 O68 2.277 . S
Cd60 O69 2.356 . S
C61 O66 1.209 . S
C61 O68 1.226 . S
O62 Cd58 2.273 . S
O62 Cd60 2.411 . S
O62 C65 1.320 . S
O63 Cd60 2.333 . S
O63 C65 1.214 . S
O64 Cd60 2.352 . S
O64 C67 1.258 . S
C65 O62 1.320 . S
C65 O63 1.214 . S
O66 Cd58 2.277 . S
O66 C61 1.209 . S
C67 O64 1.258 . S
C67 O69 1.282 . S
O68 Cd60 2.277 . S
O68 C61 1.226 . S
O69 Cd60 2.356 . S
O69 C67 1.282 . S
C70 O71 1.306 . S
C70 O73 1.160 . S
O71 C70 1.306 . S
O71 Cd72 2.228 . S
Cd72 O71 2.228 . S
Cd72 O76 2.273 . S
Cd72 O80 2.277 . S
O73 C70 1.160 . S
O73 Cd74 2.203 . S
Cd74 O73 2.203 . S
Cd74 O76 2.411 . S
Cd74 O77 2.333 . S
Cd74 O78 2.352 . S
Cd74 O82 2.277 . S
Cd74 O83 2.356 . S
C75 O80 1.209 . S
C75 O82 1.226 . S
O76 Cd72 2.273 . S
O76 Cd74 2.411 . S
O76 C79 1.320 . S
O77 Cd74 2.333 . S
O77 C79 1.214 . S
O78 Cd74 2.352 . S
O78 C81 1.258 . S
C79 O76 1.320 . S
C79 O77 1.214 . S
O80 Cd72 2.277 . S
O80 C75 1.209 . S
C81 O78 1.258 . S
C81 O83 1.282 . S
O82 Cd74 2.277 . S
O82 C75 1.226 . S
O83 Cd74 2.356 . S
O83 C81 1.282 . S
C84 O85 1.306 . S
C84 O87 1.160 . S
O85 C84 1.306 . S
O85 Cd86 2.228 . S
Cd86 O85 2.228 . S
Cd86 O90 2.273 . S
Cd86 O94 2.277 . S
O87 C84 1.160 . S
O87 Cd88 2.203 . S
Cd88 O87 2.203 . S
Cd88 O90 2.411 . S
Cd88 O91 2.333 . S
Cd88 O92 2.352 . S
Cd88 O96 2.277 . S
Cd88 O97 2.356 . S
C89 O94 1.209 . S
C89 O96 1.226 . S
O90 Cd86 2.273 . S
O90 Cd88 2.411 . S
O90 C93 1.320 . S
O91 Cd88 2.333 . S
O91 C93 1.214 . S
O92 Cd88 2.352 . S
O92 C95 1.258 . S
C93 O90 1.320 . S
C93 O91 1.214 . S
O94 Cd86 2.277 . S
O94 C89 1.209 . S
C95 O92 1.258 . S
C95 O97 1.282 . S
O96 Cd88 2.277 . S
O96 C89 1.226 . S
O97 Cd88 2.356 . S
O97 C95 1.282 . S
C98 O99 1.306 . S
C98 O101 1.160 . S
O99 C98 1.306 . S
O99 Cd100 2.228 . S
Cd100 O99 2.228 . S
Cd100 O104 2.273 . S
Cd100 O108 2.277 . S
O101 C98 1.160 . S
O101 Cd102 2.203 . S
Cd102 O101 2.203 . S
Cd102 O104 2.411 . S
Cd102 O105 2.333 . S
Cd102 O106 2.352 . S
Cd102 O110 2.277 . S
Cd102 O111 2.356 . S
C103 O108 1.209 . S
C103 O110 1.226 . S
O104 Cd100 2.273 . S
O104 Cd102 2.411 . S
O104 C107 1.320 . S
O105 Cd102 2.333 . S
O105 C107 1.214 . S
O106 Cd102 2.352 . S
O106 C109 1.258 . S
C107 O104 1.320 . S
C107 O105 1.214 . S
O108 Cd100 2.277 . S
O108 C103 1.209 . S
C109 O106 1.258 . S
C109 O111 1.282 . S
O110 Cd102 2.277 . S
O110 C103 1.226 . S
O111 Cd102 2.356 . S
O111 C109 1.282 . S
H112 C113 0.951 . S
C113 H112 0.951 . S
C113 C119 1.265 . S
H114 C119 0.950 . S
H115 C123 0.957 . S
H116 C124 0.950 . S
H117 C125 0.951 . S
H118 C126 0.951 1_545 S
C119 C113 1.265 . S
C119 H114 0.950 . S
C119 C120 1.478 . S
C120 C119 1.478 . S
C120 C121 1.397 1_545 S
C120 C137 1.394 . S
C121 C120 1.397 1_565 S
C121 C122 1.438 1_455 S
C121 C126 1.429 . S
C122 C121 1.438 1_655 S
C122 C123 1.428 . S
C122 C135 1.394 . S
C123 H115 0.957 . S
C123 C122 1.428 . S
C123 C124 1.337 1_655 S
C124 H116 0.950 . S
C124 C123 1.337 1_455 S
C124 C125 1.424 . S
C125 H117 0.951 . S
C125 C124 1.424 . S
C125 C126 1.347 . S
C126 H118 0.951 1_565 S
C126 C121 1.429 . S
C126 C125 1.347 . S
H127 C128 0.951 . S
C128 H127 0.951 . S
C128 C134 1.265 . S
H129 C134 0.950 . S
H130 C138 0.957 . S
H131 C139 0.950 . S
H132 C140 0.951 . S
H133 C141 0.951 1_565 S
C134 C128 1.265 . S
C134 H129 0.950 . S
C134 C135 1.478 . S
C135 C122 1.394 . S
C135 C134 1.478 . S
C135 C136 1.397 1_565 S
C136 C135 1.397 1_545 S
C136 C137 1.438 1_655 S
C136 C141 1.429 . S
C137 C120 1.394 . S
C137 C136 1.438 1_455 S
C137 C138 1.428 . S
C138 H130 0.957 . S
C138 C137 1.428 . S
C138 C139 1.337 1_455 S
C139 H131 0.950 . S
C139 C138 1.337 1_655 S
C139 C140 1.424 . S
C140 H132 0.951 . S
C140 C139 1.424 . S
C140 C141 1.347 . S
C141 H133 0.951 1_545 S
C141 C136 1.429 . S
C141 C140 1.347 . S
H142 C143 0.951 . S
C143 H142 0.951 . S
C143 C149 1.265 . S
H144 C149 0.950 . S
H145 C153 0.949 . S
H146 C154 0.950 . S
H147 C155 0.951 . S
H148 C156 0.951 . S
C149 C143 1.265 . S
C149 H144 0.950 . S
C149 C150 1.478 . S
C150 C149 1.478 . S
C150 C151 1.397 . S
C150 C167 1.394 . S
C151 C150 1.397 . S
C151 C152 1.438 . S
C151 C156 1.429 . S
C152 C151 1.438 . S
C152 C153 1.428 . S
C152 C165 1.394 . S
C153 H145 0.949 . S
C153 C152 1.428 . S
C153 C154 1.345 . S
C154 H146 0.950 . S
C154 C153 1.345 . S
C154 C155 1.424 . S
C155 H147 0.951 . S
C155 C154 1.424 . S
C155 C156 1.347 . S
C156 H148 0.951 . S
C156 C151 1.429 . S
C156 C155 1.347 . S
H157 C158 0.951 . S
C158 H157 0.951 . S
C158 C164 1.265 . S
H159 C164 0.950 . S
H160 C168 0.949 . S
H161 C169 0.950 . S
H162 C170 0.951 . S
H163 C171 0.951 . S
C164 C158 1.265 . S
C164 H159 0.950 . S
C164 C165 1.478 . S
C165 C152 1.394 . S
C165 C164 1.478 . S
C165 C166 1.397 . S
C166 C165 1.397 . S
C166 C167 1.438 . S
C166 C171 1.429 . S
C167 C150 1.394 . S
C167 C166 1.438 . S
C167 C168 1.428 . S
C168 H160 0.949 . S
C168 C167 1.428 . S
C168 C169 1.345 . S
C169 H161 0.950 . S
C169 C168 1.345 . S
C169 C170 1.424 . S
C170 H162 0.951 . S
C170 C169 1.424 . S
C170 C171 1.347 . S
C171 H163 0.951 . S
C171 C166 1.429 . S
C171 C170 1.347 . S
H172 C173 0.951 . S
C173 H172 0.951 . S
C173 C179 1.265 . S
H174 C179 0.950 . S
H175 C183 0.949 . S
H176 C184 0.950 . S
H177 C185 0.951 . S
H178 C186 0.951 . S
C179 C173 1.265 . S
C179 H174 0.950 . S
C179 C180 1.478 . S
C180 C179 1.478 . S
C180 C181 1.397 . S
C180 C197 1.394 . S
C181 C180 1.397 . S
C181 C182 1.438 . S
C181 C186 1.429 . S
C182 C181 1.438 . S
C182 C183 1.428 . S
C182 C195 1.394 . S
C183 H175 0.949 . S
C183 C182 1.428 . S
C183 C184 1.345 . S
C184 H176 0.950 . S
C184 C183 1.345 . S
C184 C185 1.424 . S
C185 H177 0.951 . S
C185 C184 1.424 . S
C185 C186 1.347 . S
C186 H178 0.951 . S
C186 C181 1.429 . S
C186 C185 1.347 . S
H187 C188 0.951 . S
C188 H187 0.951 . S
C188 C194 1.265 . S
H189 C194 0.950 . S
H190 C198 0.949 . S
H191 C199 0.950 . S
H192 C200 0.951 . S
H193 C201 0.951 . S
C194 C188 1.265 . S
C194 H189 0.950 . S
C194 C195 1.478 . S
C195 C182 1.394 . S
C195 C194 1.478 . S
C195 C196 1.397 . S
C196 C195 1.397 . S
C196 C197 1.438 . S
C196 C201 1.429 . S
C197 C180 1.394 . S
C197 C196 1.438 . S
C197 C198 1.428 . S
C198 H190 0.949 . S
C198 C197 1.428 . S
C198 C199 1.345 . S
C199 H191 0.950 . S
C199 C198 1.345 . S
C199 C200 1.424 . S
C200 H192 0.951 . S
C200 C199 1.424 . S
C200 C201 1.347 . S
C201 H193 0.951 . S
C201 C196 1.429 . S
C201 C200 1.347 . S
H202 C203 0.951 . S
C203 H202 0.951 . S
C203 C209 1.265 . S
H204 C209 0.950 . S
H205 C213 0.949 . S
H206 C214 0.949 1_655 S
H207 C215 0.951 . S
H208 C216 0.951 1_545 S
C209 C203 1.265 . S
C209 H204 0.950 . S
C209 C210 1.478 . S
C210 C209 1.478 . S
C210 C211 1.397 1_545 S
C210 C227 1.394 . S
C211 C210 1.397 1_565 S
C211 C212 1.438 1_455 S
C211 C216 1.429 . S
C212 C211 1.438 1_655 S
C212 C213 1.428 . S
C212 C225 1.394 . S
C213 H205 0.949 . S
C213 C212 1.428 . S
C213 C214 1.345 1_655 S
C214 H206 0.949 1_455 S
C214 C213 1.345 1_455 S
C214 C215 1.424 . S
C215 H207 0.951 . S
C215 C214 1.424 . S
C215 C216 1.347 . S
C216 H208 0.951 1_565 S
C216 C211 1.429 . S
C216 C215 1.347 . S
H217 C218 0.951 . S
C218 H217 0.951 . S
C218 C224 1.265 . S
H219 C224 0.950 . S
H220 C228 0.949 . S
H221 C229 0.949 1_455 S
H222 C230 0.951 . S
H223 C231 0.951 1_565 S
C224 C218 1.265 . S
C224 H219 0.950 . S
C224 C225 1.478 . S
C225 C212 1.394 . S
C225 C224 1.478 . S
C225 C226 1.397 1_565 S
C226 C225 1.397 1_545 S
C226 C227 1.438 1_655 S
C226 C231 1.429 . S
C227 C210 1.394 . S
C227 C226 1.438 1_455 S
C227 C228 1.428 . S
C228 H220 0.949 . S
C228 C227 1.428 . S
C228 C229 1.345 1_455 S
C229 H221 0.949 1_655 S
C229 C228 1.345 1_655 S
C229 C230 1.424 . S
C230 H222 0.951 . S
C230 C229 1.424 . S
C230 C231 1.347 . S
C231 H223 0.951 1_545 S
C231 C226 1.429 . S
C231 C230 1.347 . S
H232 C233 0.951 . S
C233 H232 0.951 . S
C233 C239 1.265 . S
H234 C239 0.950 . S
H235 C243 0.949 . S
H236 C244 0.950 . S
H237 C245 0.951 . S
H238 C246 0.951 . S
C239 C233 1.265 . S
C239 H234 0.950 . S
C239 C240 1.478 . S
C240 C239 1.478 . S
C240 C241 1.397 . S
C240 C257 1.394 . S
C241 C240 1.397 . S
C241 C242 1.438 . S
C241 C246 1.429 . S
C242 C241 1.438 . S
C242 C243 1.428 . S
C242 C255 1.394 . S
C243 H235 0.949 . S
C243 C242 1.428 . S
C243 C244 1.345 . S
C244 H236 0.950 . S
C244 C243 1.345 . S
C244 C245 1.424 . S
C245 H237 0.951 . S
C245 C244 1.424 . S
C245 C246 1.347 . S
C246 H238 0.951 . S
C246 C241 1.429 . S
C246 C245 1.347 . S
H247 C248 0.951 . S
C248 H247 0.951 . S
C248 C254 1.265 . S
H249 C254 0.950 . S
H250 C258 0.949 . S
H251 C259 0.950 . S
H252 C260 0.951 . S
H253 C261 0.951 . S
C254 C248 1.265 . S
C254 H249 0.950 . S
C254 C255 1.478 . S
C255 C242 1.394 . S
C255 C254 1.478 . S
C255 C256 1.397 . S
C256 C255 1.397 . S
C256 C257 1.438 . S
C256 C261 1.429 . S
C257 C240 1.394 . S
C257 C256 1.438 . S
C257 C258 1.428 . S
C258 H250 0.949 . S
C258 C257 1.428 . S
C258 C259 1.345 . S
C259 H251 0.950 . S
C259 C258 1.345 . S
C259 C260 1.424 . S
C260 H252 0.951 . S
C260 C259 1.424 . S
C260 C261 1.347 . S
C261 H253 0.951 . S
C261 C256 1.429 . S
C261 C260 1.347 . S
H262 C263 0.951 . S
C263 H262 0.951 . S
C263 C269 1.265 . S
H264 C269 0.950 . S
H265 C273 0.949 . S
H266 C274 0.949 1_554 S
H267 C275 0.951 . S
H268 C276 0.951 . S
C269 C263 1.265 . S
C269 H264 0.950 . S
C269 C270 1.478 . S
C270 C269 1.478 . S
C270 C271 1.397 . S
C270 C287 1.394 . S
C271 C270 1.397 . S
C271 C272 1.438 1_556 S
C271 C276 1.429 . S
C272 C271 1.438 1_554 S
C272 C273 1.428 . S
C272 C285 1.394 . S
C273 H265 0.949 . S
C273 C272 1.428 . S
C273 C274 1.345 1_554 S
C274 H266 0.949 1_556 S
C274 C273 1.345 1_556 S
C274 C275 1.424 . S
C275 H267 0.951 . S
C275 C274 1.424 . S
C275 C276 1.347 . S
C276 H268 0.951 . S
C276 C271 1.429 . S
C276 C275 1.347 . S
H277 C278 0.951 . S
C278 H277 0.951 . S
C278 C284 1.265 . S
H279 C284 0.950 . S
H280 C288 0.949 . S
H281 C289 0.949 1_556 S
H282 C290 0.951 . S
H283 C291 0.951 . S
C284 C278 1.265 . S
C284 H279 0.950 . S
C284 C285 1.478 . S
C285 C272 1.394 . S
C285 C284 1.478 . S
C285 C286 1.397 . S
C286 C285 1.397 . S
C286 C287 1.438 1_554 S
C286 C291 1.429 . S
C287 C270 1.394 . S
C287 C286 1.438 1_556 S
C287 C288 1.428 . S
C288 H280 0.949 . S
C288 C287 1.428 . S
C288 C289 1.345 1_556 S
C289 H281 0.949 1_554 S
C289 C288 1.345 1_554 S
C289 C290 1.424 . S
C290 H282 0.951 . S
C290 C289 1.424 . S
C290 C291 1.347 . S
C291 H283 0.951 . S
C291 C286 1.429 . S
C291 C290 1.347 . S
H292 C293 0.951 . S
C293 H292 0.951 . S
C293 C299 1.265 . S
H294 C299 0.950 . S
H295 C303 0.949 . S
H296 C304 0.950 . S
H297 C305 0.951 . S
H298 C306 0.951 . S
C299 C293 1.265 . S
C299 H294 0.950 . S
C299 C300 1.478 . S
C300 C299 1.478 . S
C300 C301 1.397 . S
C300 C317 1.394 . S
C301 C300 1.397 . S
C301 C302 1.438 . S
C301 C306 1.429 . S
C302 C301 1.438 . S
C302 C303 1.428 . S
C302 C315 1.394 . S
C303 H295 0.949 . S
C303 C302 1.428 . S
C303 C304 1.345 . S
C304 H296 0.950 . S
C304 C303 1.345 . S
C304 C305 1.424 . S
C305 H297 0.951 . S
C305 C304 1.424 . S
C305 C306 1.347 . S
C306 H298 0.951 . S
C306 C301 1.429 . S
C306 C305 1.347 . S
H307 C308 0.951 . S
C308 H307 0.951 . S
C308 C314 1.265 . S
H309 C314 0.950 . S
H310 C318 0.949 . S
H311 C319 0.950 . S
H312 C320 0.951 . S
H313 C321 0.951 . S
C314 C308 1.265 . S
C314 H309 0.950 . S
C314 C315 1.478 . S
C315 C302 1.394 . S
C315 C314 1.478 . S
C315 C316 1.397 . S
C316 C315 1.397 . S
C316 C317 1.438 . S
C316 C321 1.429 . S
C317 C300 1.394 . S
C317 C316 1.438 . S
C317 C318 1.428 . S
C318 H310 0.949 . S
C318 C317 1.428 . S
C318 C319 1.345 . S
C319 H311 0.950 . S
C319 C318 1.345 . S
C319 C320 1.424 . S
C320 H312 0.951 . S
C320 C319 1.424 . S
C320 C321 1.347 . S
C321 H313 0.951 . S
C321 C316 1.429 . S
C321 C320 1.347 . S
H322 C323 0.951 . S
C323 H322 0.951 . S
C323 C329 1.265 . S
H324 C329 0.950 . S
H325 C333 0.949 . S
H326 C334 0.950 . S
H327 C335 0.951 . S
H328 C336 0.951 . S
C329 C323 1.265 . S
C329 H324 0.950 . S
C329 C330 1.478 . S
C330 C329 1.478 . S
C330 C331 1.397 . S
C330 C347 1.394 . S
C331 C330 1.397 . S
C331 C332 1.438 1_556 S
C331 C336 1.429 . S
C332 C331 1.438 1_554 S
C332 C333 1.428 . S
C332 C345 1.394 . S
C333 H325 0.949 . S
C333 C332 1.428 . S
C333 C334 1.345 . S
C334 H326 0.950 . S
C334 C333 1.345 . S
C334 C335 1.424 1_554 S
C335 H327 0.951 . S
C335 C334 1.424 1_556 S
C335 C336 1.347 . S
C336 H328 0.951 . S
C336 C331 1.429 . S
C336 C335 1.347 . S
H337 C338 0.951 . S
C338 H337 0.951 . S
C338 C344 1.265 . S
H339 C344 0.950 . S
H340 C348 0.949 . S
H341 C349 0.950 . S
H342 C350 0.951 . S
H343 C351 0.951 . S
C344 C338 1.265 . S
C344 H339 0.950 . S
C344 C345 1.478 . S
C345 C332 1.394 . S
C345 C344 1.478 . S
C345 C346 1.397 . S
C346 C345 1.397 . S
C346 C347 1.438 1_554 S
C346 C351 1.429 . S
C347 C330 1.394 . S
C347 C346 1.438 1_556 S
C347 C348 1.428 . S
C348 H340 0.949 . S
C348 C347 1.428 . S
C348 C349 1.345 . S
C349 H341 0.950 . S
C349 C348 1.345 . S
C349 C350 1.424 1_556 S
C350 H342 0.951 . S
C350 C349 1.424 1_554 S
C350 C351 1.347 . S
C351 H343 0.951 . S
C351 C346 1.429 . S
C351 C350 1.347 . S
H352 C353 0.951 . S
C353 H352 0.951 . S
C353 C359 1.265 . S
H354 C359 0.950 . S
H355 C363 0.949 . S
H356 C364 0.950 . S
H357 C365 0.951 . S
H358 C366 0.951 . S
C359 C353 1.265 . S
C359 H354 0.950 . S
C359 C360 1.478 . S
C360 C359 1.478 . S
C360 C361 1.397 . S
C360 C377 1.394 . S
C361 C360 1.397 . S
C361 C362 1.438 . S
C361 C366 1.429 . S
C362 C361 1.438 . S
C362 C363 1.428 . S
C362 C375 1.394 . S
C363 H355 0.949 . S
C363 C362 1.428 . S
C363 C364 1.345 . S
C364 H356 0.950 . S
C364 C363 1.345 . S
C364 C365 1.424 . S
C365 H357 0.951 . S
C365 C364 1.424 . S
C365 C366 1.347 . S
C366 H358 0.951 . S
C366 C361 1.429 . S
C366 C365 1.347 . S
H367 C368 0.951 . S
C368 H367 0.951 . S
C368 C374 1.265 . S
H369 C374 0.950 . S
H370 C378 0.949 . S
H371 C379 0.950 . S
H372 C380 0.951 . S
H373 C381 0.951 . S
C374 C368 1.265 . S
C374 H369 0.950 . S
C374 C375 1.478 . S
C375 C362 1.394 . S
C375 C374 1.478 . S
C375 C376 1.397 . S
C376 C375 1.397 . S
C376 C377 1.438 . S
C376 C381 1.429 . S
C377 C360 1.394 . S
C377 C376 1.438 . S
C377 C378 1.428 . S
C378 H370 0.949 . S
C378 C377 1.428 . S
C378 C379 1.345 . S
C379 H371 0.950 . S
C379 C378 1.345 . S
C379 C380 1.424 . S
C380 H372 0.951 . S
C380 C379 1.424 . S
C380 C381 1.347 . S
C381 H373 0.951 . S
C381 C376 1.429 . S
C381 C380 1.347 . S
H382 C383 0.951 . S
C383 H382 0.951 . S
C383 C389 1.265 . S
H384 C389 0.950 . S
H385 C393 0.949 1_545 S
H386 C394 0.950 1_545 S
H387 C395 0.951 . S
H388 C396 0.951 . S
C389 C383 1.265 . S
C389 H384 0.950 . S
C389 C390 1.478 . S
C390 C389 1.478 . S
C390 C391 1.397 . S
C390 C407 1.394 . S
C391 C390 1.397 . S
C391 C392 1.438 . S
C391 C396 1.429 . S
C392 C391 1.438 . S
C392 C393 1.428 . S
C392 C405 1.394 . S
C393 H385 0.949 1_565 S
C393 C392 1.428 . S
C393 C394 1.345 . S
C394 H386 0.950 1_565 S
C394 C393 1.345 . S
C394 C395 1.424 . S
C395 H387 0.951 . S
C395 C394 1.424 . S
C395 C396 1.347 . S
C396 H388 0.951 . S
C396 C391 1.429 . S
C396 C395 1.347 . S
H397 C398 0.951 . S
C398 H397 0.951 . S
C398 C404 1.265 1_545 S
H399 C404 0.950 . S
H400 C408 0.949 . S
H401 C409 0.950 . S
H402 C410 0.951 . S
H403 C411 0.951 . S
C404 C398 1.265 1_565 S
C404 H399 0.950 . S
C404 C405 1.478 . S
C405 C392 1.394 . S
C405 C404 1.478 . S
C405 C406 1.397 . S
C406 C405 1.397 . S
C406 C407 1.438 . S
C406 C411 1.429 . S
C407 C390 1.394 . S
C407 C406 1.438 . S
C407 C408 1.428 . S
C408 H400 0.949 . S
C408 C407 1.428 . S
C408 C409 1.345 . S
C409 H401 0.950 . S
C409 C408 1.345 . S
C409 C410 1.424 . S
C410 H402 0.951 . S
C410 C409 1.424 . S
C410 C411 1.347 . S
C411 H403 0.951 . S
C411 C406 1.429 . S
C411 C410 1.347 . S
H412 C413 0.951 . S
C413 H412 0.951 . S
C413 C419 1.265 . S
H414 C419 0.950 . S
H415 C423 0.949 . S
H416 C424 0.950 . S
H417 C425 0.951 . S
H418 C426 0.951 . S
C419 C413 1.265 . S
C419 H414 0.950 . S
C419 C420 1.478 . S
C420 C419 1.478 . S
C420 C421 1.397 . S
C420 C437 1.394 . S
C421 C420 1.397 . S
C421 C422 1.438 . S
C421 C426 1.429 . S
C422 C421 1.438 . S
C422 C423 1.428 . S
C422 C435 1.394 . S
C423 H415 0.949 . S
C423 C422 1.428 . S
C423 C424 1.345 . S
C424 H416 0.950 . S
C424 C423 1.345 . S
C424 C425 1.424 . S
C425 H417 0.951 . S
C425 C424 1.424 . S
C425 C426 1.347 . S
C426 H418 0.951 . S
C426 C421 1.429 . S
C426 C425 1.347 . S
H427 C428 0.951 . S
C428 H427 0.951 . S
C428 C434 1.265 . S
H429 C434 0.950 . S
H430 C438 0.949 . S
H431 C439 0.950 . S
H432 C440 0.951 . S
H433 C441 0.951 . S
C434 C428 1.265 . S
C434 H429 0.950 . S
C434 C435 1.478 . S
C435 C422 1.394 . S
C435 C434 1.478 . S
C435 C436 1.397 . S
C436 C435 1.397 . S
C436 C437 1.438 . S
C436 C441 1.429 . S
C437 C420 1.394 . S
C437 C436 1.438 . S
C437 C438 1.428 . S
C438 H430 0.949 . S
C438 C437 1.428 . S
C438 C439 1.345 . S
C439 H431 0.950 . S
C439 C438 1.345 . S
C439 C440 1.424 . S
C440 H432 0.951 . S
C440 C439 1.424 . S
C440 C441 1.347 . S
C441 H433 0.951 . S
C441 C436 1.429 . S
C441 C440 1.347 . S
H442 C443 0.951 . S
C443 H442 0.951 . S
C443 C449 1.265 . S
H444 C449 0.950 . S
H445 C453 0.949 . S
H446 C454 0.950 . S
H447 C455 0.951 . S
H448 C456 0.951 . S
C449 C443 1.265 . S
C449 H444 0.950 . S
C449 C450 1.478 . S
C450 C449 1.478 . S
C450 C451 1.397 . S
C450 C467 1.394 . S
C451 C450 1.397 . S
C451 C452 1.438 . S
C451 C456 1.429 . S
C452 C451 1.438 . S
C452 C453 1.428 . S
C452 C465 1.394 . S
C453 H445 0.949 . S
C453 C452 1.428 . S
C453 C454 1.345 . S
C454 H446 0.950 . S
C454 C453 1.345 . S
C454 C455 1.424 . S
C455 H447 0.951 . S
C455 C454 1.424 . S
C455 C456 1.347 . S
C456 H448 0.951 . S
C456 C451 1.429 . S
C456 C455 1.347 . S
H457 C458 0.951 . S
C458 H457 0.951 . S
C458 C464 1.265 1_565 S
H459 C464 0.950 . S
H460 C468 0.949 . S
H461 C469 0.950 . S
H462 C470 0.951 . S
H463 C471 0.951 . S
C464 C458 1.265 1_545 S
C464 H459 0.950 . S
C464 C465 1.478 . S
C465 C452 1.394 . S
C465 C464 1.478 . S
C465 C466 1.397 . S
C466 C465 1.397 . S
C466 C467 1.438 . S
C466 C471 1.429 . S
C467 C450 1.394 . S
C467 C466 1.438 . S
C467 C468 1.428 . S
C468 H460 0.949 . S
C468 C467 1.428 . S
C468 C469 1.345 . S
C469 H461 0.950 . S
C469 C468 1.345 . S
C469 C470 1.424 . S
C470 H462 0.951 . S
C470 C469 1.424 . S
C470 C471 1.347 . S
C471 H463 0.951 . S
C471 C466 1.429 . S
C471 C470 1.347 . S
H472 C473 0.951 1_655 S
C473 H472 0.951 1_455 S
C473 C479 1.265 1_455 S
H474 C479 0.950 1_455 S
H475 C483 0.949 . S
H476 C484 0.950 . S
H477 C485 0.951 . S
H478 C486 0.951 . S
C479 C473 1.265 1_655 S
C479 H474 0.950 1_655 S
C479 C480 1.478 . S
C480 C479 1.478 . S
C480 C481 1.397 . S
C480 C497 1.394 . S
C481 C480 1.397 . S
C481 C482 1.438 . S
C481 C486 1.429 . S
C482 C481 1.438 . S
C482 C483 1.428 . S
C482 C495 1.394 . S
C483 H475 0.949 . S
C483 C482 1.428 . S
C483 C484 1.345 . S
C484 H476 0.950 . S
C484 C483 1.345 . S
C484 C485 1.424 . S
C485 H477 0.951 . S
C485 C484 1.424 . S
C485 C486 1.347 . S
C486 H478 0.951 . S
C486 C481 1.429 . S
C486 C485 1.347 . S
H487 C488 0.951 . S
C488 H487 0.951 . S
C488 C494 1.265 . S
H489 C494 0.950 . S
H490 C498 0.949 . S
H491 C499 0.950 . S
H492 C500 0.951 . S
H493 C501 0.951 . S
C494 C488 1.265 . S
C494 H489 0.950 . S
C494 C495 1.478 . S
C495 C482 1.394 . S
C495 C494 1.478 . S
C495 C496 1.397 . S
C496 C495 1.397 . S
C496 C497 1.438 . S
C496 C501 1.429 . S
C497 C480 1.394 . S
C497 C496 1.438 . S
C497 C498 1.428 . S
C498 H490 0.949 . S
C498 C497 1.428 . S
C498 C499 1.345 . S
C499 H491 0.950 . S
C499 C498 1.345 . S
C499 C500 1.424 . S
C500 H492 0.951 . S
C500 C499 1.424 . S
C500 C501 1.347 . S
C501 H493 0.951 . S
C501 C496 1.429 . S
C501 C500 1.347 . S
H502 C503 0.951 . S
C503 H502 0.951 . S
C503 C509 1.265 . S
H504 C509 0.950 . S
H505 C513 0.949 . S
H506 C514 0.950 . S
H507 C515 0.951 . S
H508 C516 0.951 . S
C509 C503 1.265 . S
C509 H504 0.950 . S
C509 C510 1.478 . S
C510 C509 1.478 . S
C510 C511 1.397 . S
C510 C527 1.394 . S
C511 C510 1.397 . S
C511 C512 1.438 . S
C511 C516 1.429 . S
C512 C511 1.438 . S
C512 C513 1.428 . S
C512 C525 1.394 . S
C513 H505 0.949 . S
C513 C512 1.428 . S
C513 C514 1.345 . S
C514 H506 0.950 . S
C514 C513 1.345 . S
C514 C515 1.424 . S
C515 H507 0.951 . S
C515 C514 1.424 . S
C515 C516 1.347 . S
C516 H508 0.951 . S
C516 C511 1.429 . S
C516 C515 1.347 . S
H517 C518 0.951 . S
C518 H517 0.951 . S
C518 C524 1.265 . S
H519 C524 0.950 . S
H520 C528 0.949 . S
H521 C529 0.950 . S
H522 C530 0.951 . S
H523 C531 0.951 . S
C524 C518 1.265 . S
C524 H519 0.950 . S
C524 C525 1.478 . S
C525 C512 1.394 . S
C525 C524 1.478 . S
C525 C526 1.397 . S
C526 C525 1.397 . S
C526 C527 1.438 . S
C526 C531 1.429 . S
C527 C510 1.394 . S
C527 C526 1.438 . S
C527 C528 1.428 . S
C528 H520 0.949 . S
C528 C527 1.428 . S
C528 C529 1.345 . S
C529 H521 0.950 . S
C529 C528 1.345 . S
C529 C530 1.424 . S
C530 H522 0.951 . S
C530 C529 1.424 . S
C530 C531 1.347 . S
C531 H523 0.951 . S
C531 C526 1.429 . S
C531 C530 1.347 . S
H532 C533 0.951 . S
C533 H532 0.951 . S
C533 C539 1.265 . S
H534 C539 0.950 . S
H535 C543 0.949 . S
H536 C544 0.950 . S
H537 C545 0.951 . S
H538 C546 0.951 . S
C539 C533 1.265 . S
C539 H534 0.950 . S
C539 C540 1.478 . S
C540 C539 1.478 . S
C540 C541 1.397 . S
C540 C557 1.394 . S
C541 C540 1.397 . S
C541 C542 1.438 . S
C541 C546 1.429 . S
C542 C541 1.438 . S
C542 C543 1.428 . S
C542 C555 1.394 . S
C543 H535 0.949 . S
C543 C542 1.428 . S
C543 C544 1.345 . S
C544 H536 0.950 . S
C544 C543 1.345 . S
C544 C545 1.424 . S
C545 H537 0.951 . S
C545 C544 1.424 . S
C545 C546 1.347 . S
C546 H538 0.951 . S
C546 C541 1.429 . S
C546 C545 1.347 . S
H547 C548 0.951 1_455 S
C548 H547 0.951 1_655 S
C548 C554 1.265 1_655 S
H549 C554 0.950 1_655 S
H550 C558 0.949 . S
H551 C559 0.950 . S
H552 C560 0.951 . S
H553 C561 0.951 . S
C554 C548 1.265 1_455 S
C554 H549 0.950 1_455 S
C554 C555 1.478 . S
C555 C542 1.394 . S
C555 C554 1.478 . S
C555 C556 1.397 . S
C556 C555 1.397 . S
C556 C557 1.438 . S
C556 C561 1.429 . S
C557 C540 1.394 . S
C557 C556 1.438 . S
C557 C558 1.428 . S
C558 H550 0.949 . S
C558 C557 1.428 . S
C558 C559 1.345 . S
C559 H551 0.950 . S
C559 C558 1.345 . S
C559 C560 1.424 . S
C560 H552 0.951 . S
C560 C559 1.424 . S
C560 C561 1.347 . S
C561 H553 0.951 . S
C561 C556 1.429 . S
C561 C560 1.347 . S
H562 C563 0.951 . S
C563 H562 0.951 . S
C563 C569 1.265 . S
H564 C569 0.950 . S
H565 C573 0.949 . S
H566 C574 0.950 . S
H567 C575 0.951 . S
H568 C576 0.951 . S
C569 C563 1.265 . S
C569 H564 0.950 . S
C569 C570 1.478 . S
C570 C569 1.478 . S
C570 C571 1.397 . S
C570 C587 1.394 . S
C571 C570 1.397 . S
C571 C572 1.438 . S
C571 C576 1.429 . S
C572 C571 1.438 . S
C572 C573 1.428 . S
C572 C585 1.394 . S
C573 H565 0.949 . S
C573 C572 1.428 . S
C573 C574 1.345 . S
C574 H566 0.950 . S
C574 C573 1.345 . S
C574 C575 1.424 . S
C575 H567 0.951 . S
C575 C574 1.424 . S
C575 C576 1.347 . S
C576 H568 0.951 . S
C576 C571 1.429 . S
C576 C575 1.347 . S
H577 C578 0.951 . S
C578 H577 0.951 . S
C578 C584 1.265 . S
H579 C584 0.950 . S
H580 C588 0.949 . S
H581 C589 0.950 . S
H582 C590 0.951 . S
H583 C591 0.951 . S
C584 C578 1.265 . S
C584 H579 0.950 . S
C584 C585 1.478 . S
C585 C572 1.394 . S
C585 C584 1.478 . S
C585 C586 1.397 . S
C586 C585 1.397 . S
C586 C587 1.438 . S
C586 C591 1.429 . S
C587 C570 1.394 . S
C587 C586 1.438 . S
C587 C588 1.428 . S
C588 H580 0.949 . S
C588 C587 1.428 . S
C588 C589 1.345 . S
C589 H581 0.950 . S
C589 C588 1.345 . S
C589 C590 1.424 . S
C590 H582 0.951 . S
C590 C589 1.424 . S
C590 C591 1.347 . S
C591 H583 0.951 . S
C591 C586 1.429 . S
C591 C590 1.347 . S
C113 C5 0.406 . S
C128 C33 0.402 . S
C143 C19 0.403 . S
C158 C47 0.402 . S
C173 C61 0.521 . S
C188 C89 0.518 . S
C203 C75 0.419 . S
C218 C103 0.435 . S
C233 C9 1.352 . S
C248 C79 1.331 . S
C263 C23 1.399 . S
C278 C93 1.373 . S
C293 C107 1.332 . S
C308 C37 1.358 . S
C323 C51 1.401 . S
C338 C65 1.389 . S
C353 C56 1.692 . S
C368 C11 1.723 . S
C383 C25 1.696 . S
C398 C70 1.637 . S
C413 C39 1.734 . S
C428 C84 1.667 . S
C443 C53 1.715 . S
C458 C98 1.680 . S
C473 C0 1.687 . S
C488 C67 1.748 . S
C503 C81 1.698 . S
C518 C14 1.634 . S
C533 C95 1.737 . S
C548 C28 1.671 . S
C563 C42 1.714 . S
C578 C109 1.762 . S
