# Generated by pormake.
# Topology sxc, (6)-cn, num edge types: 1
# Building blocks:
#     Node 0, Type 0, BuildingBlock: BETFAJ_clean_sbu_0, # of connection points: 6
#     Node 1, Type 0, BuildingBlock: BETFAJ_clean_sbu_0, # of connection points: 6
#     Node 2, Type 0, BuildingBlock: BETFAJ_clean_sbu_0, # of connection points: 6
#     Edge 3, Type (0, 0), BuildingBlock: UVAHIK_clean_linker_0, # of connection points: 2
#     Edge 4, Type (0, 0), BuildingBlock: UVAHIK_clean_linker_0, # of connection points: 2
#     Edge 5, Type (0, 0), BuildingBlock: UVAHIK_clean_linker_0, # of connection points: 2
#     Edge 6, Type (0, 0), BuildingBlock: UVAHIK_clean_linker_0, # of connection points: 2
#     Edge 7, Type (0, 0), BuildingBlock: UVAHIK_clean_linker_0, # of connection points: 2
#     Edge 8, Type (0, 0), BuildingBlock: UVAHIK_clean_linker_0, # of connection points: 2
#     Edge 9, Type (0, 0), BuildingBlock: UVAHIK_clean_linker_0, # of connection points: 2
#     Edge 10, Type (0, 0), BuildingBlock: UVAHIK_clean_linker_0, # of connection points: 2
#     Edge 11, Type (0, 0), BuildingBlock: UVAHIK_clean_linker_0, # of connection points: 2
# Relax obj value: 0.215
# Max RMSD: 0.143
# Mean RMSD: 0.078
data_MOF--net-sxc--node1-BETFAJ_clean_sbu_0--edge1-UVAHIK_clean_linker_0
_symmetry_space_group_name_H-M    P1
_symmetry_Int_Tables_number       1
_symmetry_cell_setting            triclinic
loop_
_symmetry_equiv_pos_as_xyz
'x, y, z'
_cell_length_a     20.469225
_cell_length_b     21.221959
_cell_length_c     57.783253
_cell_angle_alpha  93.619247
_cell_angle_beta   92.281863
_cell_angle_gamma 94.210225
loop_
_atom_site_label
_atom_site_type_symbol
_atom_site_fract_x
_atom_site_fract_y
_atom_site_fract_z
_atom_type_partial_charge
Sm0 Sm 0.13787 0.10954 0.98592 0.0
Sm1 Sm 0.98802 0.10012 0.98945 0.0
C2 C 0.25623 0.13153 0.97042 0.0
C3 C 0.30686 0.18227 0.97754 0.0
C4 C 0.36253 0.19251 0.96455 0.0
C5 C 0.40722 0.24482 0.9704 0.0
C6 C 0.39639 0.28764 0.98924 0.0
C7 C 0.34131 0.2759 0.00254 0.0
C8 C 0.29691 0.22385 0.99669 0.0
C9 C 0.11052 0.12165 0.03269 0.0
C10 C 1.05956 0.24664 0.99059 0.0
C11 C 0.86578 1.06826 -0.00047 0.0
C12 C 0.8315 1.00616 0.00263 0.0
C13 C 0.785 0.99956 0.01964 0.0
C14 C 0.75446 0.93988 0.02312 0.0
C15 C 0.77031 0.88591 0.00967 0.0
C16 C 0.81692 0.89298 0.99264 0.0
C17 C 0.84725 0.95238 0.98919 0.0
C18 C 1.03129 0.11515 0.94558 0.0
C19 C 0.06623 0.96252 0.98704 0.0
O20 O 0.2035 0.15075 0.96031 0.0
O21 O 0.24307 1.09057 0.98597 0.0
O22 O 0.07025 0.11406 0.01558 0.0
O23 O 0.16942 0.12408 0.02523 0.0
O24 O 0.11298 0.21765 0.98473 0.0
O25 O 1.00584 0.21163 0.99583 0.0
O26 O 0.91131 1.088 0.01542 0.0
O27 O 0.88361 1.07776 0.97847 0.0
O28 O 1.05457 1.07871 0.95986 0.0
O29 O 0.98287 0.14365 0.95422 0.0
O30 O 1.01109 0.99143 0.99027 0.0
O31 O 0.12157 0.99742 0.98361 0.0
H32 H 0.37055 0.16107 0.94959 0.0
H33 H 0.4489 0.25296 0.95972 0.0
H34 H 0.33207 0.30743 0.01733 0.0
H35 H 0.25389 0.21683 0.00683 0.0
H36 H 0.77268 1.04043 0.03033 0.0
H37 H 0.71909 0.93586 0.03649 0.0
H38 H 0.82946 0.85265 0.98172 0.0
H39 H 0.88319 0.95612 0.97599 0.0
Sm40 Sm 1.04075 0.19538 0.3207 0.0
Sm41 Sm 1.02884 1.06016 0.32456 0.0
C42 C 1.04642 0.31846 0.31717 0.0
C43 C 0.08511 0.36546 0.33305 0.0
C44 C 0.13251 0.40787 0.32442 0.0
C45 C 0.17704 0.4446 0.33966 0.0
C46 C 0.17489 0.43937 0.3638 0.0
C47 C 0.12651 0.39783 0.37237 0.0
C48 C 0.08219 0.36133 0.3572 0.0
C49 C 1.06091 0.162 0.36598 0.0
C50 C 0.89183 0.12352 0.31883 0.0
C51 C 1.04483 0.94877 0.34053 0.0
C52 C 0.09239 0.9329 0.35886 0.0
C53 C 0.0785 0.94126 0.38249 0.0
C54 C 0.1256 0.93138 0.3998 0.0
C55 C 0.18751 0.9126 0.39387 0.0
C56 C 0.20143 0.90467 0.37026 0.0
C57 C 0.15446 0.91458 0.35298 0.0
C58 C 1.01418 1.09028 0.27882 0.0
C59 C 0.17705 0.13116 0.32213 0.0
O60 O 0.9969 0.28754 0.32608 0.0
O61 O 0.08095 0.2815 0.30443 0.0
O62 O 1.01637 0.13822 0.35175 0.0
O63 O 0.096 0.20567 0.35663 0.0
O64 O 0.92893 0.17121 0.3113 0.0
O65 O 0.91947 1.07546 0.32749 0.0
O66 O 0.99868 0.98408 0.34738 0.0
O67 O 0.06923 0.96577 0.32107 0.0
O68 O 1.05579 0.11698 0.29368 0.0
O69 O 0.98048 1.04398 0.28759 0.0
O70 O 0.14146 1.08552 0.33137 0.0
O71 O 0.14758 0.17754 0.31309 0.0
H72 H 0.13634 0.41114 0.30588 0.0
H73 H 0.21316 0.47703 0.33258 0.0
H74 H 0.12391 0.39227 0.39082 0.0
H75 H 1.04716 0.32817 0.36447 0.0
H76 H 1.0313 0.95574 0.38768 0.0
H77 H 0.11329 0.93767 0.41782 0.0
H78 H 0.24796 0.88853 0.36504 0.0
H79 H 0.1669 0.90791 0.33499 0.0
Sm80 Sm 0.09113 1.06102 0.65997 0.0
Sm81 Sm 0.09385 0.19531 0.65331 0.0
C82 C 0.06928 0.94443 0.67303 0.0
C83 C 1.01414 0.89692 0.669 0.0
C84 C 1.01293 0.84069 0.68043 0.0
C85 C 0.9588 0.79653 0.67713 0.0
C86 C 0.90543 0.80829 0.66234 0.0
C87 C 0.90744 0.86461 0.65075 0.0
C88 C 0.96141 0.90859 0.65407 0.0
C89 C 0.09415 1.087 0.61369 0.0
C90 C 0.94918 0.12705 0.65458 0.0
C91 C 0.11685 0.31176 0.64025 0.0
C92 C 0.17476 0.35648 0.64285 0.0
C93 C 0.17839 0.41088 0.63035 0.0
C94 C 0.2354 0.45167 0.63207 0.0
C95 C 0.28928 0.43827 0.64633 0.0
C96 C 0.28491 0.38379 0.65897 0.0
C97 C 0.22808 0.34325 0.65724 0.0
C98 C 0.08878 0.16883 0.69944 0.0
C99 C 0.23559 0.12962 0.65877 0.0
O100 O 1.05736 0.99472 0.68596 0.0
O101 O 0.10124 0.95794 0.65465 0.0
O102 O 1.05898 0.11272 0.62847 0.0
O103 O 0.12797 1.04517 0.62301 0.0
O104 O 0.98027 1.0802 0.66293 0.0
O105 O 0.98286 0.17523 0.64626 0.0
O106 O 0.12314 0.26125 0.62662 0.0
O107 O 0.08896 0.29896 0.65952 0.0
O108 O 0.12519 0.14353 0.68495 0.0
O109 O 1.05499 0.21034 0.68991 0.0
O110 O 0.20441 0.17586 0.65007 0.0
O111 O 0.20195 1.08194 0.66739 0.0
H112 H 1.05347 0.83126 0.69202 0.0
H113 H 0.95861 0.75328 0.68614 0.0
H114 H 0.86659 0.87543 0.63956 0.0
H115 H 0.96169 0.95211 0.64521 0.0
H116 H 0.13751 0.42143 0.61911 0.0
H117 H 0.23738 0.49359 0.62228 0.0
H118 H 0.32599 0.37165 0.66977 0.0
H119 H 0.22605 0.30107 0.6669 0.0
C120 C 1.0042 0.3538 0.99563 0.0
C121 C 1.0601 0.3203 0.99072 0.0
C122 C 1.00471 0.42136 0.99531 0.0
C123 C 0.12045 0.5751 0.99273 0.0
H124 H 0.9583 0.654 0.98254 0.0
C125 C 0.12183 0.85534 0.98315 0.0
C126 C 0.06554 0.88891 0.98734 0.0
C127 C 0.12111 0.78781 0.98357 0.0
C128 C 1.00467 0.63404 0.98572 0.0
H129 H 0.1612 0.33676 0.98155 0.0
H130 H 0.16222 0.45183 0.98084 0.0
H131 H 0.95723 0.53944 0.98332 0.0
H132 H 0.9637 0.87258 0.99556 0.0
H133 H 0.96224 0.75761 0.99649 0.0
H134 H 0.16791 0.6696 0.99519 0.0
C135 C 0.11722 0.42639 0.98529 0.0
C136 C 1.00401 0.56652 0.98618 0.0
C137 C 0.11662 0.35887 0.98556 0.0
C138 C 1.00849 0.85042 0.99201 0.0
C139 C 1.0077 0.78291 0.99244 0.0
C140 C 0.1211 0.64261 0.9923 0.0
C141 C 1.06125 0.46027 0.99011 0.0
C142 C 0.06189 0.53442 0.98968 0.0
C143 C 0.06402 0.74893 0.98824 0.0
C144 C 0.06325 0.67475 0.98875 0.0
H145 H 0.95921 0.32764 -0.00025 0.0
H146 H 0.9601 0.443 -0.00049 0.0
H147 H 0.16679 0.55508 0.99591 0.0
H148 H 0.16724 0.8814 0.97942 0.0
H149 H 0.16607 0.7662 0.97984 0.0
C150 C 0.28325 1.08082 0.33108 0.0
C151 C 0.25046 0.13043 0.32191 0.0
C152 C 0.35197 1.07999 0.33054 0.0
C153 C 0.49873 0.15132 0.30141 0.0
H154 H 0.59611 1.08536 0.35218 0.0
C155 C 0.78604 0.17418 0.30905 0.0
C156 C 0.81825 0.1239 0.31799 0.0
C157 C 0.71719 0.17494 0.30916 0.0
C158 C 0.56992 0.10331 0.33765 0.0
H159 H 0.26567 0.21845 0.30507 0.0
H160 H 0.38459 0.2175 0.30441 0.0
H161 H 0.47737 1.08652 0.35322 0.0
H162 H 0.80169 1.03448 0.33385 0.0
H163 H 0.68285 1.03553 0.33384 0.0
H164 H 0.59146 0.16831 0.2859 0.0
C165 C 0.35736 0.17844 0.31172 0.0
C166 C 0.50126 0.10394 0.33825 0.0
C167 C 0.28873 0.17924 0.31226 0.0
C168 C 0.77921 1.07423 0.32684 0.0
C169 C 0.71058 1.07507 0.32701 0.0
C170 C 0.56744 0.15078 0.30083 0.0
C171 C 0.3904 0.12875 0.32081 0.0
C172 C 0.46424 0.12793 0.32014 0.0
C173 C 0.67817 0.12557 0.3183 0.0
C174 C 0.60439 0.12667 0.31893 0.0
H175 H 0.25579 1.04218 0.3386 0.0
H176 H 0.37479 1.04035 0.33747 0.0
H177 H 0.47256 0.16923 0.28687 0.0
H178 H 0.81406 0.21345 0.30214 0.0
H179 H 0.69469 0.21509 0.30247 0.0
C180 C 0.81929 0.73764 0.67922 0.0
C181 C 0.84643 0.76356 0.65967 0.0
C182 C 0.76051 0.69974 0.67699 0.0
C183 C 0.61209 0.67083 0.63917 0.0
H184 H 0.58283 0.5216 0.67391 0.0
C185 C 0.37722 0.50178 0.62727 0.0
C186 C 0.35088 0.47951 0.64757 0.0
C187 C 0.43786 0.5367 0.62827 0.0
C188 C 0.59017 0.56354 0.66429 0.0
H189 H 0.83522 0.76791 0.62234 0.0
H190 H 0.73245 0.70139 0.61843 0.0
H191 H 0.69073 0.57917 0.67614 0.0
H192 H 0.36572 0.4785 0.68492 0.0
H193 H 0.47162 0.53957 0.68666 0.0
H194 H 0.5114 0.65533 0.62741 0.0
C195 C 0.75604 0.71137 0.63551 0.0
C196 C 0.65187 0.59636 0.66553 0.0
C197 C 0.81479 0.74929 0.63775 0.0
C198 C 0.38542 0.4942 0.66895 0.0
C199 C 0.446 0.529 0.66994 0.0
C200 C 0.55038 0.63795 0.63791 0.0
C201 C 0.72785 0.68701 0.65517 0.0
C202 C 0.66332 0.65052 0.65309 0.0
C203 C 0.47317 0.54987 0.64958 0.0
C204 C 0.53875 0.58426 0.65058 0.0
H205 H 0.84219 0.74856 0.69637 0.0
H206 H 0.73951 0.68222 0.69248 0.0
H207 H 0.61924 0.71302 0.62967 0.0
H208 H 0.35201 0.49048 0.61052 0.0
H209 H 0.45796 0.55177 0.61229 0.0
C210 C 0.84282 0.17683 0.6464 0.0
C211 C 0.87575 0.12604 0.6546 0.0
C212 C 0.77424 0.17714 0.64684 0.0
C213 C 0.62088 1.07168 0.65178 0.0
H214 H 0.54342 0.23022 0.66572 0.0
C215 C 0.3421 1.08021 0.66705 0.0
C216 C 0.30904 0.13078 0.65876 0.0
C217 C 0.41069 1.08003 0.6666 0.0
C218 C 0.56389 0.18552 0.6615 0.0
H219 H 0.86097 1.03527 0.66958 0.0
H220 H 0.74173 1.03596 0.67054 0.0
H221 H 0.66222 0.22853 0.66487 0.0
H222 H 0.32358 0.22137 0.64362 0.0
H223 H 0.44284 0.22093 0.64266 0.0
H224 H 0.52256 1.02866 0.64842 0.0
C225 C 0.76891 1.07552 0.66351 0.0
C226 C 0.63249 0.18452 0.66101 0.0
C227 C 0.83767 1.07524 0.66309 0.0
C228 C 0.34699 0.18154 0.65018 0.0
C229 C 0.41575 0.18142 0.64976 0.0
C230 C 0.55229 1.07268 0.65228 0.0
C231 C 0.73595 0.12665 0.65548 0.0
C232 C 0.66231 0.12758 0.65613 0.0
C233 C 0.44885 0.13046 0.65786 0.0
C234 C 0.52248 0.1296 0.65717 0.0
H235 H 0.87007 0.2168 0.63965 0.0
H236 H 0.7512 0.21694 0.64012 0.0
H237 H 0.64134 1.02698 0.64755 0.0
H238 H 0.31495 1.04028 0.67388 0.0
H239 H 0.43386 1.04037 0.67338 0.0
C240 C 0.77316 0.7683 0.01154 0.0
C241 C 0.73746 0.82249 0.01279 0.0
C242 C 0.74131 0.70804 0.01234 0.0
C243 C 0.58662 0.62281 0.02785 0.0
H244 H 0.62962 0.4973 0.98025 0.0
C245 C 0.41334 0.40397 -0.00012 0.0
C246 C 0.44023 0.34609 0.99443 0.0
C247 C 0.45383 0.45943 0.00454 0.0
C248 C 0.61775 0.53134 0.99391 0.0
H249 H 0.64059 0.85592 0.01651 0.0
H250 H 0.58503 0.75078 0.018 0.0
H251 H 0.69315 0.59933 0.98478 0.0
H252 H 0.53084 0.30091 0.98983 0.0
H253 H 0.60195 0.39817 -0.00198 0.0
H254 H 0.51053 0.55521 0.03674 0.0
C255 C 0.63776 0.75494 0.0166 0.0
C256 C 0.65416 0.58985 0.99651 0.0
C257 C 0.66959 0.81522 0.01576 0.0
C258 C 0.50869 0.34492 0.99376 0.0
C259 C 0.54934 0.40056 -0.00153 0.0
C260 C 0.55032 0.56426 0.0253 0.0
C261 C 0.6731 0.70065 0.01449 0.0
C262 C 0.63826 0.63662 0.01324 0.0
C263 C 0.52229 0.45847 0.00388 0.0
C264 C 0.5647 0.51829 0.00802 0.0
H265 H 0.82574 0.77241 0.0097 0.0
H266 H 0.77001 0.66716 0.01105 0.0
H267 H 0.5739 0.65752 0.04115 0.0
H268 H 0.36073 0.40673 8e-05 0.0
H269 H 0.4313 0.50341 0.00813 0.0
C270 C 0.28809 0.48837 0.3753 0.0
C271 C 0.22148 0.47843 0.38011 0.0
C272 C 0.33001 0.5306 0.38959 0.0
C273 C 0.33152 0.64341 0.44274 0.0
H274 H 0.39224 0.76216 0.39878 0.0
C275 C 0.21081 0.85092 0.42815 0.0
C276 C 0.23409 0.8919 0.41168 0.0
C277 C 0.2532 0.81195 0.4388 0.0
C278 C 0.378 0.73009 0.41185 0.0
H279 H 0.14758 0.50184 0.40442 0.0
H280 H 0.21921 0.57608 0.42876 0.0
H281 H 0.3836 0.6513 0.38763 0.0
H282 H 0.32176 0.93485 0.39747 0.0
H283 H 0.39598 0.86655 0.41607 0.0
H284 H 0.3192 0.72375 0.46601 0.0
C285 C 0.2403 0.55046 0.41445 0.0
C286 C 0.37288 0.66555 0.40531 0.0
C287 C 0.1987 0.5082 0.40028 0.0
C288 C 0.30216 0.90166 0.4094 0.0
C289 C 0.34473 0.8628 0.42018 0.0
C290 C 0.33653 0.70822 0.44928 0.0
C291 C 0.3059 0.56416 0.40883 0.0
C292 C 0.34247 0.62241 0.41972 0.0
C293 C 0.31943 0.81289 0.43292 0.0
C294 C 0.35194 0.75233 0.43277 0.0
H295 H 0.30737 0.46482 0.36015 0.0
H296 H 0.38039 0.53943 0.38489 0.0
H297 H 0.31102 0.61078 0.4547 0.0
H298 H 0.15877 0.8429 0.43064 0.0
H299 H 0.23151 0.77512 0.44884 0.0
C300 C 0.07064 0.13409 0.24488 0.0
C301 C 1.01831 1.09708 0.25345 0.0
C302 C 0.07729 0.13748 0.22095 0.0
C303 C 0.98778 0.11666 0.16397 0.0
H304 H 0.15962 1.0938 0.14038 0.0
C305 C 1.03354 0.09926 0.06472 0.0
C306 C 0.09492 0.1228 0.05758 0.0
C307 C 1.02161 1.09646 0.08845 0.0
C308 C 0.11145 0.10148 0.14657 0.0
H309 H 0.93079 1.03617 0.24357 0.0
H310 H 0.94175 1.04307 0.20165 0.0
H311 H 0.14334 1.08985 0.18172 0.0
H312 H 0.19116 0.1637 0.06966 0.0
H313 H 0.16995 0.16153 0.11071 0.0
H314 H 0.95607 0.12983 0.12892 0.0
C315 C 0.97786 1.06911 0.21351 0.0
C316 C 0.10211 0.09884 0.17038 0.0
C317 C 0.97171 1.06498 0.23751 0.0
C318 C 0.14346 0.1449 0.07461 0.0
C319 C 0.13136 0.143 0.09824 0.0
C320 C 0.99729 0.12018 0.14012 0.0
C321 C 1.0313 0.10471 0.20493 0.0
C322 C 1.04029 0.10665 0.17943 0.0
C323 C 0.07063 0.11778 0.10562 0.0
C324 C 1.05946 0.11299 0.13103 0.0
H325 H 0.10732 0.15955 0.25668 0.0
H326 H 0.11857 0.16593 0.21495 0.0
H327 H 0.9396 0.12325 0.1704 0.0
H328 H 0.99545 1.08118 0.052 0.0
H329 H 0.97449 1.07598 0.09325 0.0
C330 C 0.10691 0.19132 0.40638 0.0
C331 C 0.06417 0.15184 0.39119 0.0
C332 C 0.10894 0.18366 0.43029 0.0
C333 C 0.07395 0.18232 0.4811 0.0
H334 H 0.0708 1.0149 0.50442 0.0
C335 C 1.05041 0.14012 0.57912 0.0
C336 C 0.08958 1.09523 0.58833 0.0
C337 C 1.04606 0.14696 0.5551 0.0
C338 C 0.07201 1.06206 0.49823 0.0
H339 H 0.99084 1.07258 0.38915 0.0
H340 H 0.9948 1.05857 0.43095 0.0
H341 H 0.06678 1.02621 0.46259 0.0
H342 H 0.15528 1.0227 0.57955 0.0
H343 H 0.14783 1.03457 0.53782 0.0
H344 H 0.08005 0.21824 0.51671 0.0
C345 C 1.02675 1.09562 0.42437 0.0
C346 C 0.06902 1.0685 0.4742 0.0
C347 C 1.02426 0.10374 0.40042 0.0
C348 C 0.12442 1.05755 0.57301 0.0
C349 C 0.1198 1.06409 0.54904 0.0
C350 C 0.07649 0.17587 0.50512 0.0
C351 C 0.06869 0.13592 0.43967 0.0
C352 C 0.07036 0.12875 0.46529 0.0
C353 C 0.0805 0.1088 0.5397 0.0
C354 C 0.07596 0.11566 0.51405 0.0
H355 H 0.13845 0.22874 0.39981 0.0
H356 H 0.14256 0.21495 0.44144 0.0
H357 H 0.07436 0.22945 0.47491 0.0
H358 H 1.02299 0.16989 0.59048 0.0
H359 H 1.0149 0.18154 0.54856 0.0
C360 C 1.05336 0.19687 0.73947 0.0
C361 C 0.09071 0.15995 0.72478 0.0
C362 C 1.05505 0.19026 0.76341 0.0
C363 C 0.09333 1.08136 0.80884 0.0
H364 H 0.09308 0.23413 0.84932 0.0
C365 C 0.09251 1.07945 0.91036 0.0
C366 C 1.04907 0.11949 0.92099 0.0
C367 C 0.10539 1.08307 0.88669 0.0
C368 C 0.09271 0.19085 0.83832 0.0
H369 H 0.1584 1.08613 0.72374 0.0
H370 H 0.16133 1.07435 0.76581 0.0
H371 H 0.10012 0.24202 0.80767 0.0
H372 H 0.98602 0.19522 0.91519 0.0
H373 H 1.00802 0.2014 0.87442 0.0
H374 H 0.08474 1.03025 0.83966 0.0
C375 C 0.13065 0.10851 0.7587 0.0
C376 C 0.09672 0.1954 0.81436 0.0
C377 C 0.12924 0.11544 0.73462 0.0
C378 C 1.01981 0.16368 0.9076 0.0
C379 C 1.03283 0.16753 0.88416 0.0
C380 C 0.08917 1.07677 0.83293 0.0
C381 C 0.09397 0.14633 0.77345 0.0
C382 C 0.09566 0.14076 0.79919 0.0
C383 C 0.07561 0.12727 0.87327 0.0
C384 C 0.08732 0.13149 0.84795 0.0
H385 H 1.02277 0.23127 0.73246 0.0
H386 H 1.02514 0.21935 0.77407 0.0
H387 H 0.09216 1.03824 0.79771 0.0
H388 H 0.11583 1.0449 0.92024 0.0
H389 H 0.13893 1.05158 0.87894 0.0
loop_
_geom_bond_atom_site_label_1
_geom_bond_atom_site_label_2
_geom_bond_distance
_geom_bond_site_symmetry_2
_ccdc_geom_bond_type
Sm0 C2 2.846 . S
Sm0 O20 2.543 1_554 S
Sm0 O21 2.450 . S
Sm0 O22 2.681 1_455 S
Sm0 O23 2.464 . S
Sm0 O24 2.396 . S
Sm0 O28 2.386 1_554 S
Sm0 O31 2.408 1_545 S
Sm1 C11 2.842 1_546 S
Sm1 O22 2.386 1_556 S
Sm1 O25 2.408 1_556 S
Sm1 O26 2.543 1_546 S
Sm1 O27 2.450 1_545 S
Sm1 O28 2.681 1_655 S
Sm1 O29 2.464 1_545 S
Sm1 O30 2.396 1_545 S
C2 Sm0 2.846 . S
C2 C3 1.506 . S
C2 O20 1.261 1_554 S
C2 O21 1.242 . S
C3 C2 1.506 . S
C3 C4 1.358 1_554 S
C3 C8 1.382 . S
C4 C3 1.358 1_556 S
C4 C5 1.385 . S
C4 H32 0.930 . S
C5 C4 1.385 . S
C5 C6 1.380 1_556 S
C5 H33 0.929 . S
C6 C5 1.380 1_554 S
C6 C7 1.352 . S
C7 C6 1.352 . S
C7 C8 1.398 . S
C7 H34 0.930 . S
C8 C3 1.382 . S
C8 C7 1.398 . S
C8 H35 0.929 . S
C9 O22 1.271 1_455 S
C9 O23 1.251 . S
C10 O24 1.250 1_655 S
C10 O25 1.273 . S
C11 Sm1 2.842 1_564 S
C11 C12 1.508 . S
C11 O26 1.278 . S
C11 O27 1.222 1_554 S
C12 C11 1.508 . S
C12 C13 1.358 . S
C12 C17 1.382 1_554 S
C13 C12 1.358 . S
C13 C14 1.385 . S
C13 H36 0.930 . S
C14 C13 1.385 . S
C14 C15 1.395 . S
C14 H37 0.929 . S
C15 C14 1.395 . S
C15 C16 1.335 1_554 S
C16 C15 1.335 1_556 S
C16 C17 1.398 . S
C16 H38 0.930 . S
C17 C12 1.382 1_556 S
C17 C16 1.398 . S
C17 H39 0.929 . S
C18 O28 1.271 1_655 S
C18 O29 1.249 1_545 S
C19 O30 1.252 1_455 S
C19 O31 1.272 1_556 S
O20 Sm0 2.543 1_556 S
O20 C2 1.261 1_556 S
O21 Sm0 2.450 . S
O21 C2 1.242 . S
O22 Sm0 2.681 1_655 S
O22 Sm1 2.386 1_554 S
O22 C9 1.271 1_655 S
O23 Sm0 2.464 . S
O23 C9 1.251 . S
O24 Sm0 2.396 . S
O24 C10 1.250 1_455 S
O25 Sm1 2.408 1_554 S
O25 C10 1.273 . S
O26 Sm1 2.543 1_564 S
O26 C11 1.278 . S
O27 Sm1 2.450 1_565 S
O27 C11 1.222 1_556 S
O28 Sm0 2.386 1_556 S
O28 Sm1 2.681 1_455 S
O28 C18 1.271 1_455 S
O29 Sm1 2.464 1_565 S
O29 C18 1.249 1_565 S
O30 Sm1 2.396 1_565 S
O30 C19 1.252 1_655 S
O31 Sm0 2.408 1_565 S
O31 C19 1.272 1_554 S
H32 C4 0.930 . S
H33 C5 0.929 . S
H34 C7 0.930 . S
H35 C8 0.929 . S
H36 C13 0.930 . S
H37 C14 0.929 . S
H38 C16 0.930 . S
H39 C17 0.929 . S
Sm40 C42 2.846 . S
Sm40 O60 2.543 . S
Sm40 O61 2.450 . S
Sm40 O62 2.681 . S
Sm40 O63 2.464 . S
Sm40 O64 2.396 1_455 S
Sm40 O68 2.386 . S
Sm40 O71 2.408 . S
Sm41 C51 2.841 1_655 S
Sm41 O62 2.384 1_665 S
Sm41 O65 2.416 . S
Sm41 O66 2.537 1_655 S
Sm41 O67 2.446 1_655 S
Sm41 O68 2.681 1_665 S
Sm41 O69 2.463 1_655 S
Sm41 O70 2.387 1_655 S
C42 Sm40 2.846 . S
C42 C43 1.506 . S
C42 O60 1.261 . S
C42 O61 1.242 . S
C43 C42 1.506 . S
C43 C44 1.358 1_455 S
C43 C48 1.382 . S
C44 C43 1.358 1_655 S
C44 C45 1.385 . S
C44 H72 0.930 . S
C45 C44 1.385 . S
C45 C46 1.395 . S
C45 H73 0.929 . S
C46 C45 1.395 . S
C46 C47 1.333 1_655 S
C47 C46 1.333 1_455 S
C47 C48 1.400 . S
C47 H74 0.930 . S
C48 C43 1.382 . S
C48 C47 1.400 . S
C48 H75 0.929 . S
C49 O62 1.271 . S
C49 O63 1.251 . S
C50 O64 1.252 . S
C50 O65 1.272 1_545 S
C51 Sm41 2.841 1_455 S
C51 C52 1.506 . S
C51 O66 1.261 . S
C51 O67 1.242 . S
C52 C51 1.506 . S
C52 C53 1.358 . S
C52 C57 1.382 . S
C53 C52 1.358 . S
C53 C54 1.385 . S
C53 H76 0.930 . S
C54 C53 1.385 . S
C54 C55 1.395 . S
C54 H77 0.929 . S
C55 C54 1.395 . S
C55 C56 1.335 . S
C56 C55 1.335 . S
C56 C57 1.398 . S
C56 H78 0.930 . S
C57 C52 1.382 . S
C57 C56 1.398 . S
C57 H79 0.929 . S
C58 O68 1.271 . S
C58 O69 1.251 1_545 S
C59 O70 1.252 1_545 S
C59 O71 1.272 . S
O60 Sm40 2.543 . S
O60 C42 1.261 . S
O61 Sm40 2.450 . S
O61 C42 1.242 . S
O62 Sm40 2.681 . S
O62 Sm41 2.384 1_445 S
O62 C49 1.271 . S
O63 Sm40 2.464 . S
O63 C49 1.251 . S
O64 Sm40 2.396 1_655 S
O64 C50 1.252 . S
O65 Sm41 2.416 . S
O65 C50 1.272 1_565 S
O66 Sm41 2.537 1_455 S
O66 C51 1.261 . S
O67 Sm41 2.446 1_455 S
O67 C51 1.242 . S
O68 Sm40 2.386 . S
O68 Sm41 2.681 1_445 S
O68 C58 1.271 . S
O69 Sm41 2.463 1_455 S
O69 C58 1.251 1_565 S
O70 Sm41 2.387 1_455 S
O70 C59 1.252 1_565 S
O71 Sm40 2.408 . S
O71 C59 1.272 . S
H72 C44 0.930 . S
H73 C45 0.929 . S
H74 C47 0.930 . S
H75 C48 0.929 . S
H76 C53 0.930 . S
H77 C54 0.929 . S
H78 C56 0.930 . S
H79 C57 0.929 . S
Sm80 C82 2.846 1_455 S
Sm80 O100 2.543 1_455 S
Sm80 O101 2.450 1_455 S
Sm80 O102 2.681 1_565 S
Sm80 O103 2.464 . S
Sm80 O104 2.396 1_455 S
Sm80 O108 2.386 1_565 S
Sm80 O111 2.408 . S
Sm81 C91 2.846 . S
Sm81 O102 2.386 . S
Sm81 O105 2.408 1_455 S
Sm81 O106 2.543 . S
Sm81 O107 2.450 . S
Sm81 O108 2.681 . S
Sm81 O109 2.464 . S
Sm81 O110 2.396 . S
C82 Sm80 2.846 1_655 S
C82 C83 1.506 . S
C82 O100 1.261 . S
C82 O101 1.242 . S
C83 C82 1.506 . S
C83 C84 1.358 . S
C83 C88 1.382 . S
C84 C83 1.358 . S
C84 C85 1.385 . S
C84 H112 0.930 . S
C85 C84 1.385 . S
C85 C86 1.395 . S
C85 H113 0.929 . S
C86 C85 1.395 . S
C86 C87 1.335 . S
C87 C86 1.335 . S
C87 C88 1.398 . S
C87 H114 0.930 . S
C88 C83 1.382 . S
C88 C87 1.398 . S
C88 H115 0.929 . S
C89 O102 1.270 1_565 S
C89 O103 1.254 . S
C90 O104 1.252 1_545 S
C90 O105 1.272 . S
C91 Sm81 2.846 . S
C91 C92 1.506 . S
C91 O106 1.261 . S
C91 O107 1.242 . S
C92 C91 1.506 . S
C92 C93 1.358 . S
C92 C97 1.382 . S
C93 C92 1.358 . S
C93 C94 1.385 . S
C93 H116 0.930 . S
C94 C93 1.385 . S
C94 C95 1.395 . S
C94 H117 0.929 . S
C95 C94 1.395 . S
C95 C96 1.335 . S
C96 C95 1.335 . S
C96 C97 1.398 . S
C96 H118 0.930 . S
C97 C92 1.382 . S
C97 C96 1.398 . S
C97 H119 0.929 . S
C98 O108 1.271 . S
C98 O109 1.251 . S
C99 O110 1.252 . S
C99 O111 1.272 1_545 S
O100 Sm80 2.543 1_655 S
O100 C82 1.261 . S
O101 Sm80 2.450 1_655 S
O101 C82 1.242 . S
O102 Sm80 2.681 1_545 S
O102 Sm81 2.386 . S
O102 C89 1.270 1_545 S
O103 Sm80 2.464 . S
O103 C89 1.254 . S
O104 Sm80 2.396 1_655 S
O104 C90 1.252 1_565 S
O105 Sm81 2.408 1_655 S
O105 C90 1.272 . S
O106 Sm81 2.543 . S
O106 C91 1.261 . S
O107 Sm81 2.450 . S
O107 C91 1.242 . S
O108 Sm80 2.386 1_545 S
O108 Sm81 2.681 . S
O108 C98 1.271 . S
O109 Sm81 2.464 . S
O109 C98 1.251 . S
O110 Sm81 2.396 . S
O110 C99 1.252 . S
O111 Sm80 2.408 . S
O111 C99 1.272 1_565 S
H112 C84 0.930 . S
H113 C85 0.929 . S
H114 C87 0.930 . S
H115 C88 0.929 . S
H116 C93 0.930 . S
H117 C94 0.929 . S
H118 C96 0.930 . S
H119 C97 0.929 . S
C120 C121 1.349 1_656 S
C120 C122 1.327 . S
C120 H145 0.950 . S
C121 C120 1.349 1_454 S
C121 C137 1.349 . S
C122 C120 1.327 . S
C122 C141 1.429 1_656 S
C122 H146 0.950 . S
C123 C140 1.574 . S
C123 C142 1.368 . S
C123 H147 0.949 . S
H124 C128 0.949 . S
C125 C126 1.387 . S
C125 C127 1.327 . S
C125 H148 0.950 . S
C126 C125 1.387 . S
C126 C138 1.316 1_454 S
C127 C125 1.327 . S
C127 C143 1.429 . S
C127 H149 0.950 . S
C128 H124 0.949 . S
C128 C136 1.574 . S
C128 C144 1.368 1_656 S
H129 C137 0.950 . S
H130 C135 0.950 . S
H131 C136 0.949 . S
H132 C138 0.950 . S
H133 C139 0.950 . S
H134 C140 0.949 . S
C135 H130 0.950 . S
C135 C137 1.327 . S
C135 C141 1.429 . S
C136 C128 1.574 . S
C136 H131 0.949 . S
C136 C142 1.368 1_656 S
C137 C121 1.349 . S
C137 H129 0.950 . S
C137 C135 1.327 . S
C138 C126 1.316 1_656 S
C138 H132 0.950 . S
C138 C139 1.327 . S
C139 H133 0.950 . S
C139 C138 1.327 . S
C139 C143 1.429 1_656 S
C140 C123 1.574 . S
C140 H134 0.949 . S
C140 C144 1.368 . S
C141 C122 1.429 1_454 S
C141 C135 1.429 . S
C141 C142 1.523 . S
C142 C123 1.368 . S
C142 C136 1.368 1_454 S
C142 C141 1.523 . S
C143 C127 1.429 . S
C143 C139 1.429 1_454 S
C143 C144 1.523 . S
C144 C128 1.368 1_454 S
C144 C140 1.368 . S
C144 C143 1.523 . S
H145 C120 0.950 . S
H146 C122 0.950 . S
H147 C123 0.949 . S
H148 C125 0.950 . S
H149 C127 0.950 . S
C150 C151 1.349 1_565 S
C150 C152 1.327 . S
C150 H175 0.950 . S
C151 C150 1.349 1_545 S
C151 C167 1.349 . S
C152 C150 1.327 . S
C152 C171 1.429 1_565 S
C152 H176 0.950 . S
C153 C170 1.574 . S
C153 C172 1.368 . S
C153 H177 0.949 . S
H154 C158 0.935 1_565 S
C155 C156 1.349 . S
C155 C157 1.327 . S
C155 H178 0.950 . S
C156 C155 1.349 . S
C156 C168 1.349 . S
C157 C155 1.327 . S
C157 C173 1.429 . S
C157 H179 0.950 . S
C158 H154 0.935 1_545 S
C158 C166 1.578 1_545 S
C158 C174 1.380 . S
H159 C167 0.950 . S
H160 C165 0.950 . S
H161 C166 0.949 . S
H162 C168 0.950 1_565 S
H163 C169 0.950 1_565 S
H164 C170 0.949 . S
C165 H160 0.950 . S
C165 C167 1.327 . S
C165 C171 1.429 . S
C166 C158 1.578 1_565 S
C166 H161 0.949 . S
C166 C172 1.368 1_565 S
C167 C151 1.349 . S
C167 H159 0.950 . S
C167 C165 1.327 . S
C168 C156 1.349 . S
C168 H162 0.950 1_545 S
C168 C169 1.327 . S
C169 H163 0.950 1_545 S
C169 C168 1.327 . S
C169 C173 1.429 . S
C170 C153 1.574 . S
C170 H164 0.949 . S
C170 C174 1.368 . S
C171 C152 1.429 1_545 S
C171 C165 1.429 . S
C171 C172 1.523 . S
C172 C153 1.368 . S
C172 C166 1.368 1_545 S
C172 C171 1.523 . S
C173 C157 1.429 . S
C173 C169 1.429 . S
C173 C174 1.523 . S
C174 C158 1.380 . S
C174 C170 1.368 . S
C174 C173 1.523 . S
H175 C150 0.950 . S
H176 C152 0.950 . S
H177 C153 0.949 . S
H178 C155 0.950 . S
H179 C157 0.950 . S
C180 C181 1.349 . S
C180 C182 1.327 . S
C180 H205 0.950 . S
C181 C180 1.349 . S
C181 C197 1.349 . S
C182 C180 1.327 . S
C182 C201 1.429 . S
C182 H206 0.950 . S
C183 C200 1.574 . S
C183 C202 1.368 . S
C183 H207 0.949 . S
H184 C188 0.949 . S
C185 C186 1.349 . S
C185 C187 1.327 . S
C185 H208 0.950 . S
C186 C185 1.349 . S
C186 C198 1.349 . S
C187 C185 1.327 . S
C187 C203 1.429 . S
C187 H209 0.950 . S
C188 H184 0.949 . S
C188 C196 1.574 . S
C188 C204 1.368 . S
H189 C197 0.950 . S
H190 C195 0.950 . S
H191 C196 0.949 . S
H192 C198 0.950 . S
H193 C199 0.950 . S
H194 C200 0.949 . S
C195 H190 0.950 . S
C195 C197 1.327 . S
C195 C201 1.429 . S
C196 C188 1.574 . S
C196 H191 0.949 . S
C196 C202 1.368 . S
C197 C181 1.349 . S
C197 H189 0.950 . S
C197 C195 1.327 . S
C198 C186 1.349 . S
C198 H192 0.950 . S
C198 C199 1.327 . S
C199 H193 0.950 . S
C199 C198 1.327 . S
C199 C203 1.429 . S
C200 C183 1.574 . S
C200 H194 0.949 . S
C200 C204 1.368 . S
C201 C182 1.429 . S
C201 C195 1.429 . S
C201 C202 1.523 . S
C202 C183 1.368 . S
C202 C196 1.368 . S
C202 C201 1.523 . S
C203 C187 1.429 . S
C203 C199 1.429 . S
C203 C204 1.523 . S
C204 C188 1.368 . S
C204 C200 1.368 . S
C204 C203 1.523 . S
H205 C180 0.950 . S
H206 C182 0.950 . S
H207 C183 0.949 . S
H208 C185 0.950 . S
H209 C187 0.950 . S
C210 C211 1.349 . S
C210 C212 1.327 . S
C210 H235 0.950 . S
C211 C210 1.349 . S
C211 C227 1.349 1_545 S
C212 C210 1.327 . S
C212 C231 1.429 . S
C212 H236 0.950 . S
C213 C230 1.574 . S
C213 C232 1.368 1_565 S
C213 H237 0.949 . S
H214 C218 0.949 . S
C215 C216 1.349 1_565 S
C215 C217 1.327 . S
C215 H238 0.950 . S
C216 C215 1.349 1_545 S
C216 C228 1.349 . S
C217 C215 1.327 . S
C217 C233 1.429 1_565 S
C217 H239 0.950 . S
C218 H214 0.949 . S
C218 C226 1.574 . S
C218 C234 1.368 . S
H219 C227 0.950 . S
H220 C225 0.950 . S
H221 C226 0.949 . S
H222 C228 0.950 . S
H223 C229 0.950 . S
H224 C230 0.949 . S
C225 H220 0.950 . S
C225 C227 1.327 . S
C225 C231 1.429 1_565 S
C226 C218 1.574 . S
C226 H221 0.949 . S
C226 C232 1.368 . S
C227 C211 1.349 1_565 S
C227 H219 0.950 . S
C227 C225 1.327 . S
C228 C216 1.349 . S
C228 H222 0.950 . S
C228 C229 1.327 . S
C229 H223 0.950 . S
C229 C228 1.327 . S
C229 C233 1.429 . S
C230 C213 1.574 . S
C230 H224 0.949 . S
C230 C234 1.368 1_565 S
C231 C212 1.429 . S
C231 C225 1.429 1_545 S
C231 C232 1.523 . S
C232 C213 1.368 1_545 S
C232 C226 1.368 . S
C232 C231 1.523 . S
C233 C217 1.429 1_545 S
C233 C229 1.429 . S
C233 C234 1.523 . S
C234 C218 1.368 . S
C234 C230 1.368 1_545 S
C234 C233 1.523 . S
H235 C210 0.950 . S
H236 C212 0.950 . S
H237 C213 0.949 . S
H238 C215 0.950 . S
H239 C217 0.950 . S
C240 C241 1.349 1_556 S
C240 C242 1.327 . S
C240 H265 0.950 . S
C241 C240 1.349 1_554 S
C241 C257 1.349 . S
C242 C240 1.327 . S
C242 C261 1.429 1_556 S
C242 H266 0.950 . S
C243 C260 1.574 . S
C243 C262 1.368 . S
C243 H267 0.949 . S
H244 C248 0.949 . S
C245 C246 1.348 1_554 S
C245 C247 1.327 . S
C245 H268 0.950 . S
C246 C245 1.348 1_556 S
C246 C258 1.350 . S
C247 C245 1.327 . S
C247 C263 1.447 . S
C247 H269 0.950 . S
C248 H244 0.949 . S
C248 C256 1.574 . S
C248 C264 1.333 1_556 S
H249 C257 0.950 . S
H250 C255 0.950 . S
H251 C256 0.949 . S
H252 C258 0.950 . S
H253 C259 0.950 . S
H254 C260 0.949 . S
C255 H250 0.950 . S
C255 C257 1.327 . S
C255 C261 1.429 . S
C256 C248 1.574 . S
C256 H251 0.949 . S
C256 C262 1.368 1_556 S
C257 C241 1.349 . S
C257 H249 0.950 . S
C257 C255 1.327 . S
C258 C246 1.350 . S
C258 H252 0.950 . S
C258 C259 1.327 . S
C259 H253 0.950 . S
C259 C258 1.327 . S
C259 C263 1.413 1_556 S
C260 C243 1.574 . S
C260 H254 0.949 . S
C260 C264 1.401 . S
C261 C242 1.429 1_554 S
C261 C255 1.429 . S
C261 C262 1.523 . S
C262 C243 1.368 . S
C262 C256 1.368 1_554 S
C262 C261 1.523 . S
C263 C247 1.447 . S
C263 C259 1.413 1_554 S
C263 C264 1.525 . S
C264 C248 1.333 1_554 S
C264 C260 1.401 . S
C264 C263 1.525 . S
H265 C240 0.950 . S
H266 C242 0.950 . S
H267 C243 0.949 . S
H268 C245 0.950 . S
H269 C247 0.950 . S
C270 C271 1.349 . S
C270 C272 1.327 . S
C270 H295 0.950 . S
C271 C270 1.349 . S
C271 C287 1.349 . S
C272 C270 1.327 . S
C272 C291 1.429 . S
C272 H296 0.950 . S
C273 C290 1.574 . S
C273 C292 1.368 . S
C273 H297 0.949 . S
H274 C278 0.949 . S
C275 C276 1.349 . S
C275 C277 1.327 . S
C275 H298 0.950 . S
C276 C275 1.349 . S
C276 C288 1.349 . S
C277 C275 1.327 . S
C277 C293 1.429 . S
C277 H299 0.950 . S
C278 H274 0.949 . S
C278 C286 1.574 1_455 S
C278 C294 1.368 . S
H279 C287 0.950 . S
H280 C285 0.950 . S
H281 C286 0.949 . S
H282 C288 0.950 . S
H283 C289 0.950 . S
H284 C290 0.949 . S
C285 H280 0.950 . S
C285 C287 1.327 1_455 S
C285 C291 1.429 1_455 S
C286 C278 1.574 1_655 S
C286 H281 0.949 . S
C286 C292 1.368 1_655 S
C287 C271 1.349 . S
C287 H279 0.950 . S
C287 C285 1.327 1_655 S
C288 C276 1.349 . S
C288 H282 0.950 . S
C288 C289 1.327 . S
C289 H283 0.950 . S
C289 C288 1.327 . S
C289 C293 1.429 . S
C290 C273 1.574 . S
C290 H284 0.949 . S
C290 C294 1.368 . S
C291 C272 1.429 . S
C291 C285 1.429 1_655 S
C291 C292 1.523 1_655 S
C292 C273 1.368 . S
C292 C286 1.368 1_455 S
C292 C291 1.523 1_455 S
C293 C277 1.429 . S
C293 C289 1.429 . S
C293 C294 1.523 . S
C294 C278 1.368 . S
C294 C290 1.368 . S
C294 C293 1.523 . S
H295 C270 0.950 . S
H296 C272 0.950 . S
H297 C273 0.949 . S
H298 C275 0.950 . S
H299 C277 0.950 . S
C300 C301 1.349 . S
C300 C302 1.327 . S
C300 H325 0.950 . S
C301 C300 1.349 . S
C301 C317 1.349 1_445 S
C302 C300 1.327 . S
C302 C321 1.429 . S
C302 H326 0.950 . S
C303 C320 1.574 . S
C303 C322 1.368 1_665 S
C303 H327 0.949 . S
H304 C308 0.949 . S
C305 C306 1.349 1_665 S
C305 C307 1.327 . S
C305 H328 0.950 . S
C306 C305 1.349 1_445 S
C306 C318 1.349 . S
C307 C305 1.327 . S
C307 C323 1.429 1_665 S
C307 H329 0.950 . S
C308 H304 0.949 . S
C308 C316 1.574 . S
C308 C324 1.368 . S
H309 C317 0.950 . S
H310 C315 0.950 . S
H311 C316 0.949 . S
H312 C318 0.950 . S
H313 C319 0.950 . S
H314 C320 0.949 . S
C315 H310 0.950 . S
C315 C317 1.327 . S
C315 C321 1.429 1_665 S
C316 C308 1.574 . S
C316 H311 0.949 . S
C316 C322 1.368 . S
C317 C301 1.349 1_665 S
C317 H309 0.950 . S
C317 C315 1.327 . S
C318 C306 1.349 . S
C318 H312 0.950 . S
C318 C319 1.327 . S
C319 H313 0.950 . S
C319 C318 1.327 . S
C319 C323 1.429 . S
C320 C303 1.574 . S
C320 H314 0.949 . S
C320 C324 1.368 1_665 S
C321 C302 1.429 . S
C321 C315 1.429 1_445 S
C321 C322 1.523 . S
C322 C303 1.368 1_445 S
C322 C316 1.368 . S
C322 C321 1.523 . S
C323 C307 1.429 1_445 S
C323 C319 1.429 . S
C323 C324 1.523 . S
C324 C308 1.368 . S
C324 C320 1.368 1_445 S
C324 C323 1.523 . S
H325 C300 0.950 . S
H326 C302 0.950 . S
H327 C303 0.949 . S
H328 C305 0.950 . S
H329 C307 0.950 . S
C330 C331 1.349 1_565 S
C330 C332 1.327 . S
C330 H355 0.950 . S
C331 C330 1.349 1_545 S
C331 C347 1.349 . S
C332 C330 1.327 . S
C332 C351 1.429 1_565 S
C332 H356 0.950 . S
C333 C350 1.574 . S
C333 C352 1.368 . S
C333 H357 0.949 . S
H334 C338 0.949 . S
C335 C336 1.349 . S
C335 C337 1.327 . S
C335 H358 0.950 . S
C336 C335 1.349 . S
C336 C348 1.349 1_545 S
C337 C335 1.327 . S
C337 C353 1.429 . S
C337 H359 0.950 . S
C338 H334 0.949 . S
C338 C346 1.574 . S
C338 C354 1.368 1_565 S
H339 C347 0.950 . S
H340 C345 0.950 . S
H341 C346 0.949 . S
H342 C348 0.950 . S
H343 C349 0.950 . S
H344 C350 0.949 . S
C345 H340 0.950 . S
C345 C347 1.327 . S
C345 C351 1.429 . S
C346 C338 1.574 . S
C346 H341 0.949 . S
C346 C352 1.368 1_565 S
C347 C331 1.349 . S
C347 H339 0.950 . S
C347 C345 1.327 . S
C348 C336 1.349 1_565 S
C348 H342 0.950 . S
C348 C349 1.327 . S
C349 H343 0.950 . S
C349 C348 1.327 . S
C349 C353 1.429 1_565 S
C350 C333 1.574 . S
C350 H344 0.949 . S
C350 C354 1.368 . S
C351 C332 1.429 1_545 S
C351 C345 1.429 . S
C351 C352 1.523 . S
C352 C333 1.368 . S
C352 C346 1.368 1_545 S
C352 C351 1.523 . S
C353 C337 1.429 . S
C353 C349 1.429 1_545 S
C353 C354 1.523 . S
C354 C338 1.368 1_545 S
C354 C350 1.368 . S
C354 C353 1.523 . S
H355 C330 0.950 . S
H356 C332 0.950 . S
H357 C333 0.949 . S
H358 C335 0.950 . S
H359 C337 0.950 . S
C360 C361 1.349 . S
C360 C362 1.327 . S
C360 H385 0.950 . S
C361 C360 1.349 . S
C361 C377 1.349 1_545 S
C362 C360 1.327 . S
C362 C381 1.429 . S
C362 H386 0.950 . S
C363 C380 1.574 . S
C363 C382 1.368 1_565 S
C363 H387 0.949 . S
H364 C368 0.949 . S
C365 C366 1.349 1_565 S
C365 C367 1.327 . S
C365 H388 0.950 . S
C366 C365 1.349 1_545 S
C366 C378 1.349 . S
C367 C365 1.327 . S
C367 C383 1.429 1_565 S
C367 H389 0.950 . S
C368 H364 0.949 . S
C368 C376 1.574 . S
C368 C384 1.368 . S
H369 C377 0.950 . S
H370 C375 0.950 . S
H371 C376 0.949 . S
H372 C378 0.950 1_655 S
H373 C379 0.944 1_655 S
H374 C380 0.949 . S
C375 H370 0.950 . S
C375 C377 1.327 . S
C375 C381 1.429 1_565 S
C376 C368 1.574 . S
C376 H371 0.949 . S
C376 C382 1.368 . S
C377 C361 1.349 1_565 S
C377 H369 0.950 . S
C377 C375 1.327 . S
C378 C366 1.349 . S
C378 H372 0.950 1_455 S
C378 C379 1.327 . S
C379 H373 0.944 1_455 S
C379 C378 1.327 . S
C379 C383 1.429 . S
C380 C363 1.574 . S
C380 H374 0.949 . S
C380 C384 1.368 1_565 S
C381 C362 1.429 . S
C381 C375 1.429 1_545 S
C381 C382 1.523 . S
C382 C363 1.368 1_545 S
C382 C376 1.368 . S
C382 C381 1.523 . S
C383 C367 1.429 1_545 S
C383 C379 1.429 . S
C383 C384 1.523 . S
C384 C368 1.368 . S
C384 C380 1.368 1_545 S
C384 C383 1.523 . S
H385 C360 0.950 . S
H386 C362 0.950 . S
H387 C363 0.949 . S
H388 C365 0.950 . S
H389 C367 0.950 . S
C121 C10 4.852 1_455 S
C126 C19 4.846 1_554 S
C151 C59 3.028 . S
C156 C50 3.028 . S
C181 C86 0.582 . S
C186 C95 0.582 . S
C211 C90 2.984 . S
C216 C99 2.984 . S
C241 C15 0.599 . S
C246 C6 0.596 1_556 S
C271 C46 0.866 . S
C276 C55 0.866 . S
C301 C58 1.457 . S
C306 C9 1.448 . S
C331 C49 1.465 . S
C336 C89 1.464 1_545 S
C361 C98 1.456 . S
C366 C18 1.467 1_455 S
