# Generated by pormake.
# Topology bcg, (8)-cn, num edge types: 1
# Building blocks:
#     Node 0, Type 0, BuildingBlock: TAGTUT_clean_sbu_3, # of connection points: 8
#     Node 1, Type 0, BuildingBlock: TAGTUT_clean_sbu_3, # of connection points: 8
#     Node 2, Type 0, BuildingBlock: TAGTUT_clean_sbu_3, # of connection points: 8
#     Node 3, Type 0, BuildingBlock: TAGTUT_clean_sbu_3, # of connection points: 8
#     Edge 4, Type (0, 0), BuildingBlock: FUNLAD_clean_linker_0, # of connection points: 2
#     Edge 5, Type (0, 0), BuildingBlock: FUNLAD_clean_linker_0, # of connection points: 2
#     Edge 6, Type (0, 0), BuildingBlock: FUNLAD_clean_linker_0, # of connection points: 2
#     Edge 7, Type (0, 0), BuildingBlock: FUNLAD_clean_linker_0, # of connection points: 2
#     Edge 8, Type (0, 0), BuildingBlock: FUNLAD_clean_linker_0, # of connection points: 2
#     Edge 9, Type (0, 0), BuildingBlock: FUNLAD_clean_linker_0, # of connection points: 2
#     Edge 10, Type (0, 0), BuildingBlock: FUNLAD_clean_linker_0, # of connection points: 2
#     Edge 11, Type (0, 0), BuildingBlock: FUNLAD_clean_linker_0, # of connection points: 2
#     Edge 12, Type (0, 0), BuildingBlock: FUNLAD_clean_linker_0, # of connection points: 2
#     Edge 13, Type (0, 0), BuildingBlock: FUNLAD_clean_linker_0, # of connection points: 2
#     Edge 14, Type (0, 0), BuildingBlock: FUNLAD_clean_linker_0, # of connection points: 2
#     Edge 15, Type (0, 0), BuildingBlock: FUNLAD_clean_linker_0, # of connection points: 2
#     Edge 16, Type (0, 0), BuildingBlock: FUNLAD_clean_linker_0, # of connection points: 2
#     Edge 17, Type (0, 0), BuildingBlock: FUNLAD_clean_linker_0, # of connection points: 2
#     Edge 18, Type (0, 0), BuildingBlock: FUNLAD_clean_linker_0, # of connection points: 2
#     Edge 19, Type (0, 0), BuildingBlock: FUNLAD_clean_linker_0, # of connection points: 2
# Relax obj value: 0.118
# Max RMSD: 0.247
# Mean RMSD: 0.247
data_MOF--net-bcg--node1-TAGTUT_clean_sbu_3--edge1-FUNLAD_clean_linker_0
_symmetry_space_group_name_H-M    P1
_symmetry_Int_Tables_number       1
_symmetry_cell_setting            triclinic
loop_
_symmetry_equiv_pos_as_xyz
'x, y, z'
_cell_length_a     17.264878
_cell_length_b     31.963379
_cell_length_c     37.316862
_cell_angle_alpha  90.505676
_cell_angle_beta   90.13423
_cell_angle_gamma 89.823125
loop_
_atom_site_label
_atom_site_type_symbol
_atom_site_fract_x
_atom_site_fract_y
_atom_site_fract_z
_atom_type_partial_charge
C0 C 0.40149 0.20496 0.01307 0.0
C1 C 0.2909 0.25574 0.13922 0.0
C2 C 0.07482 0.24398 0.08675 0.0
Mg3 Mg 0.32212 0.20626 0.93426 0.0
Mg4 Mg 0.19842 0.28089 0.91082 0.0
O5 O 0.22585 0.24 0.94388 0.0
Mg6 Mg 0.24114 0.25263 0.99604 0.0
O7 O 0.26205 0.25997 0.04863 0.0
Mg8 Mg 0.24754 0.2006 0.06413 0.0
Mg9 Mg 0.21294 0.30168 0.07533 0.0
C10 C 0.07391 0.2964 0.97232 0.0
O11 O 0.28176 0.32097 0.98963 0.0
O12 O 0.26965 0.18906 0.87828 0.0
O13 O 0.24703 0.35335 0.04126 0.0
O14 O 0.38443 0.26307 0.90985 0.0
O15 O 0.17884 0.23804 0.86709 0.0
O16 O 0.30217 0.316 0.90056 0.0
O17 O 0.2037 0.18625 0.00673 0.0
O18 O 0.25563 0.15242 0.9601 0.0
C19 C 0.21458 0.15253 0.98867 0.0
C20 C 0.21457 0.20407 0.85899 0.0
O21 O 0.1162 0.27816 0.99602 0.0
O22 O 0.28864 0.22144 0.12095 0.0
O23 O 0.09733 0.30345 0.94024 0.0
O24 O 0.12164 0.21307 0.08306 0.0
O25 O 0.26768 0.29069 0.12638 0.0
O26 O 0.09624 0.28157 0.08131 0.0
O27 O 0.3606 0.22626 0.99124 0.0
O28 O 0.37388 0.19285 0.04321 0.0
C29 C 0.37063 0.30064 0.90003 0.0
C30 C 0.27668 0.35389 0.00967 0.0
C31 C 0.89587 0.70719 0.0067 0.0
C32 C 0.78137 0.75379 0.13266 0.0
C33 C 0.56653 0.74282 0.07972 0.0
Mg34 Mg 0.81832 0.70985 0.92708 0.0
Mg35 Mg 0.69622 0.78552 0.90424 0.0
O36 O 0.72228 0.74365 0.93669 0.0
Mg37 Mg 0.73542 0.7548 0.98913 0.0
O38 O 0.75378 0.7606 0.0421 0.0
Mg39 Mg 0.73972 0.70073 0.05632 0.0
Mg40 Mg 0.70401 0.80139 0.06958 0.0
C41 C 0.569 0.7993 0.96463 0.0
O42 O 0.77573 0.82344 0.98465 0.0
O43 O 0.76642 0.69381 0.87064 0.0
O44 O 0.73865 0.85406 0.03673 0.0
O45 O 0.8811 0.76708 0.90348 0.0
O46 O 0.67708 0.74367 0.85976 0.0
O47 O 0.80023 0.82073 0.89483 0.0
O48 O 0.69816 0.68817 0.99839 0.0
O49 O 0.75137 0.65519 0.95168 0.0
C50 C 0.70975 0.65477 0.98005 0.0
C51 C 0.71204 0.70956 0.85134 0.0
O52 O 0.61007 0.77991 0.98816 0.0
O53 O 0.77931 0.71997 0.11375 0.0
O54 O 0.59447 0.80794 0.93319 0.0
O55 O 0.61363 0.71225 0.07501 0.0
O56 O 0.75853 0.78909 0.12041 0.0
O57 O 0.58745 0.78075 0.07545 0.0
O58 O 0.85586 0.72894 0.98478 0.0
O59 O 0.86622 0.69378 0.03599 0.0
C60 C 0.86831 0.80493 0.89415 0.0
C61 C 0.76962 0.85568 0.00544 0.0
C62 C 0.40432 0.78276 0.48776 0.0
C63 C 0.28188 0.73696 0.36358 0.0
C64 C 0.07033 0.74874 0.41812 0.0
Mg65 Mg 0.33341 0.77909 0.56811 0.0
Mg66 Mg 0.21371 0.70327 0.592 0.0
O67 O 0.23577 0.74631 0.56005 0.0
Mg68 Mg 0.245 0.73561 0.5073 0.0
O69 O 0.25948 0.73004 0.45417 0.0
Mg70 Mg 0.24496 0.79005 0.44033 0.0
Mg71 Mg 0.20805 0.68945 0.42721 0.0
C72 C 0.08022 0.69194 0.53377 0.0
O73 O 0.28531 0.66677 0.51104 0.0
O74 O 0.28903 0.79348 0.62601 0.0
O75 O 0.24314 0.63629 0.45969 0.0
O76 O 0.39804 0.72107 0.58909 0.0
O77 O 0.20164 0.74339 0.63829 0.0
O78 O 0.31886 0.66703 0.59779 0.0
O79 O 0.20744 0.80253 0.49895 0.0
O80 O 0.26382 0.83457 0.54542 0.0
C81 C 0.22024 0.83561 0.51755 0.0
C82 C 0.23812 0.777 0.64658 0.0
O83 O 0.11982 0.71111 0.50978 0.0
O84 O 0.28065 0.77073 0.38256 0.0
O85 O 0.10797 0.68279 0.56479 0.0
O86 O 0.11756 0.77914 0.42283 0.0
O87 O 0.26007 0.70162 0.37596 0.0
O88 O 0.09147 0.71073 0.42205 0.0
O89 O 0.36543 0.761 0.50987 0.0
O90 O 0.37315 0.79647 0.45884 0.0
C91 C 0.38678 0.68287 0.59754 0.0
C92 C 0.27652 0.63451 0.49051 0.0
C93 C 0.91327 0.28862 0.49657 0.0
C94 C 0.79185 0.24407 0.37207 0.0
C95 C 0.57976 0.25563 0.42594 0.0
Mg96 Mg 0.84276 0.28424 0.57683 0.0
Mg97 Mg 0.72079 0.2093 0.60051 0.0
O98 O 0.74471 0.25187 0.56846 0.0
Mg99 Mg 0.75368 0.24159 0.51566 0.0
O100 O 0.7681 0.2366 0.46256 0.0
Mg101 Mg 0.75405 0.29671 0.44904 0.0
Mg102 Mg 0.71739 0.19615 0.43525 0.0
C103 C 0.58854 0.1979 0.54173 0.0
O104 O 0.79401 0.17252 0.51878 0.0
O105 O 0.79792 0.29879 0.63469 0.0
O106 O 0.75385 0.14261 0.4669 0.0
O107 O 0.90624 0.22591 0.59787 0.0
O108 O 0.70805 0.24978 0.64639 0.0
O109 O 0.82512 0.1729 0.6074 0.0
O110 O 0.71608 0.30885 0.50783 0.0
O111 O 0.7749 0.34 0.55416 0.0
C112 C 0.73051 0.34163 0.52661 0.0
C113 C 0.74564 0.28293 0.6549 0.0
O114 O 0.62846 0.21718 0.51792 0.0
O115 O 0.79038 0.27782 0.39109 0.0
O116 O 0.61574 0.18877 0.57285 0.0
O117 O 0.62679 0.28606 0.43109 0.0
O118 O 0.76995 0.20872 0.38436 0.0
O119 O 0.60089 0.21758 0.42979 0.0
O120 O 0.87444 0.26655 0.51847 0.0
O121 O 0.88208 0.30279 0.46782 0.0
C122 C 0.89361 0.188 0.60682 0.0
C123 C 0.7868 0.14051 0.4978 0.0
C124 C 0.53785 0.2084 0.03486 0.0
C125 C 0.48539 0.20317 0.00637 0.0
C126 C 0.61509 0.21852 0.028 0.0
C127 C 0.64093 0.22304 0.99253 0.0
C128 C 0.59017 0.214 0.96416 0.0
C129 C 0.51282 0.20459 0.97099 0.0
C130 C 0.71949 0.23832 0.98409 0.0
C131 C 0.75619 0.26734 0.00422 0.0
C132 C 0.83428 0.283 0.99504 0.0
C133 C 0.88547 0.29419 0.0227 0.0
C134 C 0.963 0.30279 0.01511 0.0
C135 C 0.99026 0.30062 0.97974 0.0
H136 H 0.82051 0.27913 0.9372 0.0
C137 C 0.93685 0.29422 0.95176 0.0
C138 C 0.85954 0.28544 0.95932 0.0
H139 H 0.9557 0.29281 0.9241 0.0
H140 H 0.51814 0.20763 0.06239 0.0
H141 H 0.65379 0.22389 0.05043 0.0
H142 H 0.6092 0.2166 0.93662 0.0
H143 H 0.47359 0.2005 0.94855 0.0
H144 H 0.74583 0.22674 0.95951 0.0
H145 H 0.72991 0.27875 0.02887 0.0
H146 H 0.86657 0.2939 0.05036 0.0
H147 H 0.00231 0.30925 0.03695 0.0
C148 C 0.01296 0.72099 0.96976 0.0
C149 C 0.98082 0.70678 0.00201 0.0
C150 C 0.09123 0.73122 0.96783 0.0
C151 C 0.13902 0.72729 0.99814 0.0
C152 C 0.10879 0.70923 0.02924 0.0
C153 C 0.03017 0.69921 0.03127 0.0
C154 C 0.21998 0.74238 0.99825 0.0
C155 C 0.24307 0.7756 0.979 0.0
C156 C 0.32469 0.78956 0.97812 0.0
C157 C 0.35443 0.8062 0.94636 0.0
C158 C 0.43391 0.8133 0.94287 0.0
C159 C 0.4848 0.8041 0.97128 0.0
H160 H 0.35251 0.77393 0.0332 0.0
C161 C 0.45333 0.79199 0.00423 0.0
C162 C 0.37419 0.78471 0.00771 0.0
H163 H 0.49027 0.78567 0.02676 0.0
H164 H 0.97693 0.72618 0.94646 0.0
H165 H 0.11359 0.74306 0.94282 0.0
H166 H 0.14508 0.70501 0.05267 0.0
H167 H 0.00738 0.68807 0.05646 0.0
H168 H 0.2609 0.72624 0.01547 0.0
H169 H 0.20212 0.79172 0.96178 0.0
H170 H 0.31698 0.81115 0.92343 0.0
H171 H 0.45573 0.82314 0.9171 0.0
C172 C 0.52234 0.77213 0.52518 0.0
C173 C 0.48938 0.7834 0.49216 0.0
C174 C 0.60079 0.7621 0.52763 0.0
C175 C 0.64796 0.76315 0.49702 0.0
C176 C 0.61678 0.77823 0.46482 0.0
C177 C 0.53799 0.78814 0.46232 0.0
C178 C 0.72924 0.74812 0.49774 0.0
C179 C 0.75361 0.71733 0.51959 0.0
C180 C 0.83542 0.70334 0.52112 0.0
C181 C 0.86623 0.68986 0.55389 0.0
C182 C 0.94569 0.68233 0.55743 0.0
C183 C -0.00444 0.68784 0.52808 0.0
H184 H 0.86136 0.71291 0.46487 0.0
C185 C 0.96302 0.69689 0.49451 0.0
C186 C 0.88388 0.70469 0.49098 0.0
H187 H -0.00081 0.70006 0.47128 0.0
H188 H 0.48681 0.76925 0.54886 0.0
H189 H 0.6238 0.75274 0.55335 0.0
H190 H 0.65249 0.78021 0.44105 0.0
H191 H 0.51446 0.79688 0.4365 0.0
H192 H 0.76932 0.76218 0.479 0.0
H193 H 0.71354 0.70325 0.53833 0.0
H194 H 0.82962 0.68764 0.57734 0.0
H195 H 0.96842 0.67502 0.58373 0.0
C196 C 0.03127 0.27711 0.53375 0.0
C197 C -0.00171 0.28922 0.50096 0.0
C198 C 0.10968 0.26701 0.53599 0.0
C199 C 0.15679 0.26885 0.5054 0.0
C200 C 0.12564 0.28478 0.47351 0.0
C201 C 0.04685 0.29475 0.47121 0.0
C202 C 0.23798 0.25377 0.50585 0.0
C203 C 0.26205 0.22221 0.52694 0.0
C204 C 0.34388 0.20834 0.52842 0.0
C205 C 0.37433 0.19403 0.56099 0.0
C206 C 0.45385 0.18682 0.56467 0.0
C207 C 0.50409 0.19351 0.53565 0.0
H208 H 0.37053 0.2197 0.4725 0.0
C209 C 0.47196 0.20335 0.50216 0.0
C210 C 0.39276 0.2108 0.4985 0.0
H211 H 0.50845 0.20749 0.47917 0.0
H212 H -0.00424 0.27359 0.55738 0.0
H213 H 0.1327 0.25692 0.56151 0.0
H214 H 0.16134 0.28738 0.44979 0.0
H215 H 0.0233 0.30415 0.44558 0.0
H216 H 0.27826 0.26851 0.48759 0.0
H217 H 0.22174 0.20746 0.54518 0.0
H218 H 0.33736 0.19095 0.58425 0.0
H219 H 0.47625 0.17884 0.59088 0.0
C220 C 0.66255 0.58294 0.96432 0.0
C221 C 0.66506 0.61675 0.98865 0.0
C222 C 0.61117 0.5499 0.96955 0.0
C223 C 0.56115 0.55006 0.99926 0.0
C224 C 0.56709 0.58248 0.02468 0.0
C225 C 0.61818 0.61561 0.01937 0.0
C226 C 0.50242 0.51698 0.00473 0.0
C227 C 0.47014 0.49492 0.97765 0.0
C228 C 0.4127 0.4614 0.98377 0.0
C229 C 0.41146 0.42668 0.96056 0.0
C230 C 0.36389 0.39255 0.96782 0.0
C231 C 0.3157 0.39273 0.99814 0.0
H232 H 0.35781 0.49001 0.03028 0.0
C233 C 0.31277 0.42893 0.01981 0.0
C234 C 0.36073 0.46292 0.01271 0.0
H235 H 0.27557 0.43048 0.04312 0.0
H236 H 0.69838 0.58258 0.94053 0.0
H237 H 0.61067 0.52455 0.95016 0.0
H238 H 0.53021 0.58295 0.04814 0.0
H239 H 0.61915 0.64089 0.03881 0.0
H240 H 0.48408 0.51144 0.0321 0.0
H241 H 0.4884 0.50009 0.95023 0.0
H242 H 0.45013 0.42504 0.93775 0.0
H243 H 0.36795 0.36527 0.95069 0.0
C244 C 0.62145 0.38017 0.49707 0.0
C245 C 0.68644 0.38057 0.51985 0.0
C246 C 0.57284 0.4151 0.49497 0.0
C247 C 0.58838 0.4512 0.5156 0.0
C248 C 0.6558 0.45246 0.53662 0.0
C249 C 0.70406 0.41744 0.53895 0.0
C250 C 0.53609 0.48814 0.51571 0.0
C251 C 0.45918 0.48544 0.50991 0.0
C252 C 0.40764 0.52265 0.50891 0.0
C253 C 0.34216 0.52166 0.4866 0.0
C254 C 0.29669 0.55746 0.48209 0.0
C255 C 0.31517 0.59482 0.5003 0.0
H256 H 0.47149 0.5606 0.54748 0.0
C257 C 0.37745 0.5949 0.52463 0.0
C258 C 0.42325 0.55918 0.52894 0.0
H259 H 0.39342 0.62314 0.53898 0.0
H260 H 0.60639 0.35238 0.4818 0.0
H261 H 0.5231 0.41356 0.47732 0.0
H262 H 0.66982 0.48015 0.55227 0.0
H263 H 0.754 0.41893 0.55654 0.0
H264 H 0.56207 0.51834 0.52154 0.0
H265 H 0.43316 0.45526 0.50403 0.0
H266 H 0.32811 0.49367 0.47136 0.0
H267 H 0.24871 0.55625 0.46336 0.0
C268 C 0.16838 0.08037 0.9736 0.0
C269 C 0.16795 0.11508 0.99703 0.0
C270 C 0.11492 0.04811 0.97771 0.0
C271 C 0.0598 0.0499 0.00537 0.0
C272 C 0.06278 0.08307 0.03021 0.0
C273 C 0.116 0.11549 0.02599 0.0
C274 C -0.00128 0.01772 0.00911 0.0
C275 C 0.9692 0.99626 0.98099 0.0
C276 C 0.90992 0.96317 0.98499 0.0
C277 C 0.90934 0.92948 0.96064 0.0
C278 C 0.86011 0.8955 0.96593 0.0
C279 C 0.80971 0.8948 0.99546 0.0
H280 H 0.85194 0.9903 0.03134 0.0
C281 C 0.80604 0.93013 0.01816 0.0
C282 C 0.85556 0.96397 0.01298 0.0
H283 H 0.76711 0.93102 0.04088 0.0
H284 H 0.20817 0.07873 0.95123 0.0
H285 H 0.11665 0.02209 0.95899 0.0
H286 H 0.02189 0.08475 0.05216 0.0
H287 H 0.1144 0.14154 0.04468 0.0
H288 H 0.97656 0.01237 0.03588 0.0
H289 H 0.99139 0.00158 0.95421 0.0
H290 H 0.94977 0.92844 0.93847 0.0
H291 H 0.86465 0.86893 0.94796 0.0
C292 C 0.8242 0.06619 0.48392 0.0
C293 C 0.82695 0.10099 0.50726 0.0
C294 C 0.87249 0.03167 0.48946 0.0
C295 C 0.9246 0.03121 0.51849 0.0
C296 C 0.92356 0.06459 0.54311 0.0
C297 C 0.87576 0.09923 0.5374 0.0
C298 C 0.98159 -0.00308 0.52357 0.0
C299 C 0.01252 0.97508 0.49602 0.0
C300 C 0.071 0.94142 0.50077 0.0
C301 C 0.07557 0.90932 0.47497 0.0
C302 C 0.12664 0.87581 0.47954 0.0
C303 C 0.17496 0.87393 0.50987 0.0
H304 H 0.12284 0.96582 0.54981 0.0
C305 C 0.17366 0.90736 0.53462 0.0
C306 C 0.12227 0.94077 0.53013 0.0
H307 H 0.21056 0.90715 0.55813 0.0
H308 H 0.78674 0.06614 0.4606 0.0
H309 H 0.86939 0.00569 0.47072 0.0
H310 H 0.96235 0.06477 0.56599 0.0
H311 H 0.87983 0.12536 0.55575 0.0
H312 H 0.00067 0.99089 0.55078 0.0
H313 H -0.00662 0.98129 0.46883 0.0
H314 H 0.03771 0.90944 0.45177 0.0
H315 H 0.12661 0.85084 0.45979 0.0
C316 C 0.45887 0.23006 0.3962 0.0
C317 C 0.50551 0.26383 0.40725 0.0
C318 C 0.40621 0.23483 0.36809 0.0
C319 C 0.39908 0.2735 0.35074 0.0
C320 C 0.43675 0.30855 0.36533 0.0
C321 C 0.48984 0.30378 0.39337 0.0
C322 C 0.36176 0.27692 0.31505 0.0
C323 C 0.37186 0.24684 0.28985 0.0
C324 C 0.34972 0.25054 0.25144 0.0
C325 C 0.35288 0.2144 0.22978 0.0
C326 C 0.33566 0.2162 0.19325 0.0
C327 C 0.31506 0.25434 0.17735 0.0
H328 H 0.3291 0.31781 0.25067 0.0
C329 C 0.31302 0.29071 0.19886 0.0
C330 C 0.33025 0.28891 0.23545 0.0
H331 H 0.29749 0.32068 0.18754 0.0
H332 H 0.46777 0.19905 0.40699 0.0
H333 H 0.37508 0.20761 0.35839 0.0
H334 H 0.43071 0.3389 0.35291 0.0
H335 H 0.52358 0.33068 0.40173 0.0
H336 H 0.33431 0.3064 0.30845 0.0
H337 H 0.40173 0.2182 0.29729 0.0
H338 H 0.36856 0.18448 0.24119 0.0
H339 H 0.3377 0.18752 0.1776 0.0
C340 C 0.44428 0.76864 0.10803 0.0
C341 C 0.49147 0.73481 0.09741 0.0
C342 C 0.38934 0.76358 0.13498 0.0
C343 C 0.38075 0.72461 0.15162 0.0
C344 C 0.41919 0.68962 0.13725 0.0
C345 C 0.47443 0.69466 0.11033 0.0
C346 C 0.34238 0.7209 0.1869 0.0
C347 C 0.35339 0.75027 0.21258 0.0
C348 C 0.33269 0.74554 0.25096 0.0
C349 C 0.33638 0.78109 0.27328 0.0
C350 C 0.32166 0.7782 0.30992 0.0
C351 C 0.3031 0.73951 0.32523 0.0
H352 H 0.31374 0.67818 0.25053 0.0
C353 C 0.30028 0.70376 0.30302 0.0
C354 C 0.31505 0.70666 0.26632 0.0
H355 H 0.28624 0.67341 0.31389 0.0
H356 H 0.45426 0.7998 0.09788 0.0
H357 H 0.35778 0.79078 0.14456 0.0
H358 H 0.41213 0.65908 0.14917 0.0
H359 H 0.50851 0.66772 0.10216 0.0
H360 H 0.31434 0.69152 0.19297 0.0
H361 H 0.38367 0.77885 0.20568 0.0
H362 H 0.35078 0.81137 0.26232 0.0
H363 H 0.32416 0.80643 0.32614 0.0
C364 C 0.52766 0.6765 0.61204 0.0
C365 C 0.45271 0.65938 0.61311 0.0
C366 C 0.58459 0.66308 0.636 0.0
C367 C 0.5674 0.63259 0.66155 0.0
C368 C 0.49658 0.61101 0.65882 0.0
C369 C 0.43952 0.62439 0.63479 0.0
C370 C 0.61709 0.63029 0.69411 0.0
C371 C 0.58501 0.62638 0.72678 0.0
C372 C 0.62084 0.644 0.75972 0.0
C373 C 0.57188 0.66443 0.78418 0.0
C374 C 0.60227 0.6856 0.81372 0.0
C375 C 0.68235 0.68588 0.82014 0.0
H376 H 0.74021 0.62737 0.74811 0.0
C377 C 0.73166 0.66375 0.79674 0.0
C378 C 0.70118 0.64336 0.76635 0.0
H379 H 0.79361 0.66329 0.80136 0.0
H380 H 0.54047 0.70277 0.59492 0.0
H381 H 0.6393 0.67961 0.63693 0.0
H382 H 0.48284 0.58599 0.67709 0.0
H383 H 0.38306 0.60977 0.63561 0.0
H384 H 0.6761 0.64177 0.69206 0.0
H385 H 0.52399 0.61854 0.72874 0.0
H386 H 0.50983 0.66536 0.77975 0.0
H387 H 0.5628 0.70181 0.83166 0.0
C388 C 0.50928 0.30765 0.88174 0.0
C389 C 0.43397 0.32447 0.88302 0.0
C390 C 0.56376 0.32324 0.85773 0.0
C391 C 0.54393 0.35615 0.83454 0.0
C392 C 0.47195 0.37612 0.83905 0.0
C393 C 0.41751 0.36056 0.86314 0.0
C394 C 0.5876 0.364 0.80095 0.0
C395 C 0.65718 0.34696 0.79332 0.0
C396 C 0.68 0.33707 0.75587 0.0
C397 C 0.75856 0.33542 0.74616 0.0
C398 C 0.78055 0.31981 0.7124 0.0
C399 C 0.72425 0.30428 0.68857 0.0
H400 H 0.56298 0.32274 0.73802 0.0
C401 C 0.64585 0.30674 0.69803 0.0
C402 C 0.62386 0.3232 0.73113 0.0
H403 H 0.60138 0.29503 0.68005 0.0
H404 H 0.52446 0.28032 0.89727 0.0
H405 H 0.61837 0.30683 0.85545 0.0
H406 H 0.45521 0.40171 0.8218 0.0
H407 H 0.3605 0.37478 0.86392 0.0
H408 H 0.55555 0.3789 0.77938 0.0
H409 H 0.69426 0.33528 0.81453 0.0
H410 H 0.80291 0.34524 0.76499 0.0
H411 H 0.84146 0.31795 0.70567 0.0
C412 C 0.94884 0.72318 0.38893 0.0
C413 C -0.00454 0.75695 0.40001 0.0
C414 C 0.89519 0.7282 0.36126 0.0
C415 C 0.88707 0.76712 0.34442 0.0
C416 C 0.92474 0.80209 0.35915 0.0
C417 C 0.97881 0.79707 0.38673 0.0
C418 C 0.84915 0.77091 0.30892 0.0
C419 C 0.85971 0.74135 0.28332 0.0
C420 C 0.83792 0.74587 0.24496 0.0
C421 C 0.84059 0.71014 0.22279 0.0
C422 C 0.82409 0.71279 0.18623 0.0
C423 C 0.80475 0.75141 0.17084 0.0
H424 H 0.81912 0.8133 0.2451 0.0
C425 C 0.80317 0.78735 0.19288 0.0
C426 C 0.81969 0.78469 0.22947 0.0
H427 H 0.78864 0.81767 0.18195 0.0
H428 H 0.9585 0.69204 0.39928 0.0
H429 H 0.86414 0.70102 0.35143 0.0
H430 H 0.91796 0.83261 0.34711 0.0
H431 H 0.01248 0.82396 0.39518 0.0
H432 H 0.82115 0.80037 0.30273 0.0
H433 H 0.88992 0.71267 0.29033 0.0
H434 H 0.85539 0.67989 0.23382 0.0
H435 H 0.82571 0.68442 0.17016 0.0
C436 C 0.8123 0.21037 0.31193 0.0
C437 C 0.8135 0.24646 0.33377 0.0
C438 C 0.82742 0.21288 0.27527 0.0
C439 C 0.84378 0.2517 0.25952 0.0
C440 C 0.84602 0.28762 0.28146 0.0
C441 C 0.8309 0.28511 0.31812 0.0
C442 C 0.86472 0.25589 0.22114 0.0
C443 C 0.85283 0.22628 0.19573 0.0
C444 C 0.89087 0.22917 0.16032 0.0
C445 C 0.92705 0.19349 0.1459 0.0
C446 C 0.98157 0.19745 0.11851 0.0
C447 C 0.00014 0.2372 0.10516 0.0
H448 H 0.87118 0.2956 0.15301 0.0
C449 C 0.9553 0.27184 0.11607 0.0
C450 C 0.90103 0.26785 0.14342 0.0
H451 H 0.96665 0.3028 0.10577 0.0
H452 H 0.79932 0.18002 0.32307 0.0
H453 H 0.82752 0.18415 0.25979 0.0
H454 H 0.85949 0.31786 0.27019 0.0
H455 H 0.83214 0.31359 0.33406 0.0
H456 H 0.89567 0.28418 0.21401 0.0
H457 H 0.82377 0.19728 0.20212 0.0
H458 H 0.91874 0.16317 0.15803 0.0
H459 H 0.01391 0.16994 0.11021 0.0
C460 C 0.23595 0.15902 0.80419 0.0
C461 C 0.18567 0.17986 0.82798 0.0
C462 C 0.20633 0.13876 0.77358 0.0
C463 C 0.12595 0.13827 0.76709 0.0
C464 C 0.07606 0.15712 0.79207 0.0
C465 C 0.10555 0.17818 0.82187 0.0
C466 C 0.09106 0.12176 0.73354 0.0
C467 C 0.12292 0.12822 0.70114 0.0
C468 C 0.07316 0.13297 0.66884 0.0
C469 C 0.09084 0.16512 0.6449 0.0
C470 C 0.03417 0.18044 0.62167 0.0
C471 C 0.95895 0.16362 0.62189 0.0
H472 H 0.98781 0.08574 0.68198 0.0
C473 C 0.94512 0.1273 0.64182 0.0
C474 C 0.00195 0.11197 0.66507 0.0
H475 H 0.88848 0.11282 0.64182 0.0
H476 H 0.29798 0.15966 0.8086 0.0
H477 H 0.24609 0.12397 0.75495 0.0
H478 H 0.01395 0.15716 0.78775 0.0
H479 H 0.06546 0.19341 0.84013 0.0
H480 H 0.03036 0.11315 0.73514 0.0
H481 H 0.18164 0.14026 0.69974 0.0
H482 H 0.14586 0.18126 0.64662 0.0
H483 H 0.04756 0.20771 0.60584 0.0
C484 C 0.13919 0.79883 0.69101 0.0
C485 C 0.21704 0.7982 0.68041 0.0
C486 C 0.11786 0.81612 0.72392 0.0
C487 C 0.17415 0.83265 0.74734 0.0
C488 C 0.25212 0.83249 0.73663 0.0
C489 C 0.27333 0.81608 0.70303 0.0
C490 C 0.15238 0.84446 0.78452 0.0
C491 C 0.08292 0.8618 0.79183 0.0
C492 C 0.04071 0.85645 0.8262 0.0
C493 C 0.9693 0.87709 0.83043 0.0
C494 C 0.91543 0.86323 0.85555 0.0
C495 C 0.93189 0.82814 0.8767 0.0
H496 H 0.11519 0.80813 0.84866 0.0
C497 C 0.00698 0.81099 0.8757 0.0
C498 C 0.06093 0.82493 0.85068 0.0
H499 H 0.02213 0.78444 0.89218 0.0
H500 H 0.09468 0.78534 0.674 0.0
H501 H 0.05755 0.81454 0.7317 0.0
H502 H 0.29662 0.84438 0.75448 0.0
H503 H 0.33384 0.8157 0.69543 0.0
H504 H 0.19033 0.83422 0.80596 0.0
H505 H 0.04995 0.87508 0.76978 0.0
H506 H 0.95234 0.90168 0.81218 0.0
H507 H 0.85857 0.87763 0.856 0.0
loop_
_geom_bond_atom_site_label_1
_geom_bond_atom_site_label_2
_geom_bond_distance
_geom_bond_site_symmetry_2
_ccdc_geom_bond_type
C0 O27 1.312 1_554 S
C0 O28 1.208 . S
C1 O22 1.331 . S
C1 O25 1.244 . S
C2 O24 1.264 . S
C2 O26 1.273 . S
Mg3 O5 1.936 . S
Mg3 O12 2.081 . S
Mg3 O14 2.023 . S
Mg3 O18 2.031 . S
Mg3 O27 2.291 . S
Mg4 O5 1.963 . S
Mg4 O15 1.942 . S
Mg4 O16 1.955 . S
Mg4 O23 1.986 . S
O5 Mg3 1.936 . S
O5 Mg4 1.963 . S
O5 Mg6 1.915 1_556 S
Mg6 O5 1.915 1_554 S
Mg6 O7 1.915 . S
Mg6 O11 2.013 1_554 S
Mg6 O17 2.114 . S
Mg6 O21 2.013 . S
Mg6 O27 2.114 1_554 S
O7 Mg6 1.915 . S
O7 Mg8 1.936 . S
O7 Mg9 1.963 . S
Mg8 O7 1.936 . S
Mg8 O17 2.291 . S
Mg8 O22 2.081 . S
Mg8 O24 2.023 . S
Mg8 O28 2.031 . S
Mg9 O7 1.963 . S
Mg9 O13 1.986 . S
Mg9 O25 1.942 . S
Mg9 O26 1.955 . S
C10 O21 1.191 1_556 S
C10 O23 1.307 . S
O11 Mg6 2.013 1_556 S
O11 C30 1.191 1_556 S
O12 Mg3 2.081 . S
O12 C20 1.331 . S
O13 Mg9 1.986 . S
O13 C30 1.307 . S
O14 Mg3 2.023 . S
O14 C29 1.264 . S
O15 Mg4 1.942 . S
O15 C20 1.244 . S
O16 Mg4 1.955 . S
O16 C29 1.273 . S
O17 Mg6 2.114 . S
O17 Mg8 2.291 . S
O17 C19 1.312 1_554 S
O18 Mg3 2.031 . S
O18 C19 1.208 . S
C19 O17 1.312 1_556 S
C19 O18 1.208 . S
C20 O12 1.331 . S
C20 O15 1.244 . S
O21 Mg6 2.013 . S
O21 C10 1.191 1_554 S
O22 C1 1.331 . S
O22 Mg8 2.081 . S
O23 Mg4 1.986 . S
O23 C10 1.307 . S
O24 C2 1.264 . S
O24 Mg8 2.023 . S
O25 C1 1.244 . S
O25 Mg9 1.942 . S
O26 C2 1.273 . S
O26 Mg9 1.955 . S
O27 C0 1.312 1_556 S
O27 Mg3 2.291 . S
O27 Mg6 2.114 1_556 S
O28 C0 1.208 . S
O28 Mg8 2.031 . S
C29 O14 1.264 . S
C29 O16 1.273 . S
C30 O11 1.191 1_554 S
C30 O13 1.307 . S
C31 O58 1.312 1_554 S
C31 O59 1.208 . S
C32 O53 1.331 . S
C32 O56 1.244 . S
C33 O55 1.264 . S
C33 O57 1.273 . S
Mg34 O36 1.936 . S
Mg34 O43 2.081 . S
Mg34 O45 2.023 . S
Mg34 O49 2.031 . S
Mg34 O58 2.291 . S
Mg35 O36 1.963 . S
Mg35 O46 1.942 . S
Mg35 O47 1.955 . S
Mg35 O54 1.986 . S
O36 Mg34 1.936 . S
O36 Mg35 1.963 . S
O36 Mg37 1.915 1_556 S
Mg37 O36 1.915 1_554 S
Mg37 O38 1.915 . S
Mg37 O42 2.013 1_554 S
Mg37 O48 2.114 . S
Mg37 O52 2.013 . S
Mg37 O58 2.114 1_554 S
O38 Mg37 1.915 . S
O38 Mg39 1.936 . S
O38 Mg40 1.963 . S
Mg39 O38 1.936 . S
Mg39 O48 2.291 . S
Mg39 O53 2.081 . S
Mg39 O55 2.023 . S
Mg39 O59 2.031 . S
Mg40 O38 1.963 . S
Mg40 O44 1.986 . S
Mg40 O56 1.942 . S
Mg40 O57 1.955 . S
C41 O52 1.191 1_556 S
C41 O54 1.307 . S
O42 Mg37 2.013 1_556 S
O42 C61 1.191 1_556 S
O43 Mg34 2.081 . S
O43 C51 1.331 . S
O44 Mg40 1.986 . S
O44 C61 1.307 . S
O45 Mg34 2.023 . S
O45 C60 1.264 . S
O46 Mg35 1.942 . S
O46 C51 1.244 . S
O47 Mg35 1.955 . S
O47 C60 1.273 . S
O48 Mg37 2.114 . S
O48 Mg39 2.291 . S
O48 C50 1.312 1_554 S
O49 Mg34 2.031 . S
O49 C50 1.208 . S
C50 O48 1.312 1_556 S
C50 O49 1.208 . S
C51 O43 1.331 . S
C51 O46 1.244 . S
O52 Mg37 2.013 . S
O52 C41 1.191 1_554 S
O53 C32 1.331 . S
O53 Mg39 2.081 . S
O54 Mg35 1.986 . S
O54 C41 1.307 . S
O55 C33 1.264 . S
O55 Mg39 2.023 . S
O56 C32 1.244 . S
O56 Mg40 1.942 . S
O57 C33 1.273 . S
O57 Mg40 1.955 . S
O58 C31 1.312 1_556 S
O58 Mg34 2.291 . S
O58 Mg37 2.114 1_556 S
O59 C31 1.208 . S
O59 Mg39 2.031 . S
C60 O45 1.264 . S
C60 O47 1.273 . S
C61 O42 1.191 1_554 S
C61 O44 1.307 . S
C62 O89 1.312 . S
C62 O90 1.208 . S
C63 O84 1.331 . S
C63 O87 1.244 . S
C64 O86 1.264 . S
C64 O88 1.273 . S
Mg65 O67 1.936 . S
Mg65 O74 2.081 . S
Mg65 O76 2.023 . S
Mg65 O80 2.031 . S
Mg65 O89 2.291 . S
Mg66 O67 1.963 . S
Mg66 O77 1.942 . S
Mg66 O78 1.955 . S
Mg66 O85 1.986 . S
O67 Mg65 1.936 . S
O67 Mg66 1.963 . S
O67 Mg68 1.915 . S
Mg68 O67 1.915 . S
Mg68 O69 1.915 . S
Mg68 O73 2.013 . S
Mg68 O79 2.114 . S
Mg68 O83 2.013 . S
Mg68 O89 2.114 . S
O69 Mg68 1.915 . S
O69 Mg70 1.936 . S
O69 Mg71 1.963 . S
Mg70 O69 1.936 . S
Mg70 O79 2.291 . S
Mg70 O84 2.081 . S
Mg70 O86 2.023 . S
Mg70 O90 2.031 . S
Mg71 O69 1.963 . S
Mg71 O75 1.986 . S
Mg71 O87 1.942 . S
Mg71 O88 1.955 . S
C72 O83 1.191 . S
C72 O85 1.307 . S
O73 Mg68 2.013 . S
O73 C92 1.191 . S
O74 Mg65 2.081 . S
O74 C82 1.331 . S
O75 Mg71 1.986 . S
O75 C92 1.307 . S
O76 Mg65 2.023 . S
O76 C91 1.264 . S
O77 Mg66 1.942 . S
O77 C82 1.244 . S
O78 Mg66 1.955 . S
O78 C91 1.273 . S
O79 Mg68 2.114 . S
O79 Mg70 2.291 . S
O79 C81 1.312 . S
O80 Mg65 2.031 . S
O80 C81 1.208 . S
C81 O79 1.312 . S
C81 O80 1.208 . S
C82 O74 1.331 . S
C82 O77 1.244 . S
O83 Mg68 2.013 . S
O83 C72 1.191 . S
O84 C63 1.331 . S
O84 Mg70 2.081 . S
O85 Mg66 1.986 . S
O85 C72 1.307 . S
O86 C64 1.264 . S
O86 Mg70 2.023 . S
O87 C63 1.244 . S
O87 Mg71 1.942 . S
O88 C64 1.273 . S
O88 Mg71 1.955 . S
O89 C62 1.312 . S
O89 Mg65 2.291 . S
O89 Mg68 2.114 . S
O90 C62 1.208 . S
O90 Mg70 2.031 . S
C91 O76 1.264 . S
C91 O78 1.273 . S
C92 O73 1.191 . S
C92 O75 1.307 . S
C93 O120 1.312 . S
C93 O121 1.208 . S
C94 O115 1.331 . S
C94 O118 1.244 . S
C95 O117 1.264 . S
C95 O119 1.273 . S
Mg96 O98 1.936 . S
Mg96 O105 2.081 . S
Mg96 O107 2.023 . S
Mg96 O111 2.031 . S
Mg96 O120 2.291 . S
Mg97 O98 1.963 . S
Mg97 O108 1.942 . S
Mg97 O109 1.955 . S
Mg97 O116 1.986 . S
O98 Mg96 1.936 . S
O98 Mg97 1.963 . S
O98 Mg99 1.915 . S
Mg99 O98 1.915 . S
Mg99 O100 1.915 . S
Mg99 O104 2.013 . S
Mg99 O110 2.114 . S
Mg99 O114 2.013 . S
Mg99 O120 2.114 . S
O100 Mg99 1.915 . S
O100 Mg101 1.936 . S
O100 Mg102 1.963 . S
Mg101 O100 1.936 . S
Mg101 O110 2.291 . S
Mg101 O115 2.081 . S
Mg101 O117 2.023 . S
Mg101 O121 2.031 . S
Mg102 O100 1.963 . S
Mg102 O106 1.986 . S
Mg102 O118 1.942 . S
Mg102 O119 1.955 . S
C103 O114 1.191 . S
C103 O116 1.307 . S
O104 Mg99 2.013 . S
O104 C123 1.191 . S
O105 Mg96 2.081 . S
O105 C113 1.331 . S
O106 Mg102 1.986 . S
O106 C123 1.307 . S
O107 Mg96 2.023 . S
O107 C122 1.264 . S
O108 Mg97 1.942 . S
O108 C113 1.244 . S
O109 Mg97 1.955 . S
O109 C122 1.273 . S
O110 Mg99 2.114 . S
O110 Mg101 2.291 . S
O110 C112 1.312 . S
O111 Mg96 2.031 . S
O111 C112 1.208 . S
C112 O110 1.312 . S
C112 O111 1.208 . S
C113 O105 1.331 . S
C113 O108 1.244 . S
O114 Mg99 2.013 . S
O114 C103 1.191 . S
O115 C94 1.331 . S
O115 Mg101 2.081 . S
O116 Mg97 1.986 . S
O116 C103 1.307 . S
O117 C95 1.264 . S
O117 Mg101 2.023 . S
O118 C94 1.244 . S
O118 Mg102 1.942 . S
O119 C95 1.273 . S
O119 Mg102 1.955 . S
O120 C93 1.312 . S
O120 Mg96 2.291 . S
O120 Mg99 2.114 . S
O121 C93 1.208 . S
O121 Mg101 2.031 . S
C122 O107 1.264 . S
C122 O109 1.273 . S
C123 O104 1.191 . S
C123 O106 1.307 . S
C124 C125 1.386 1_554 S
C124 C126 1.383 . S
C124 H140 0.951 . S
C125 C124 1.386 1_556 S
C125 C129 1.383 . S
C126 C124 1.383 . S
C126 C127 1.402 1_554 S
C126 H141 0.951 . S
C127 C126 1.402 1_556 S
C127 C128 1.375 . S
C127 C130 1.481 . S
C128 C127 1.375 . S
C128 C129 1.367 . S
C128 H142 0.951 . S
C129 C125 1.383 . S
C129 C128 1.367 . S
C129 H143 0.950 . S
C130 C127 1.481 . S
C130 C131 1.297 1_556 S
C130 H144 0.950 . S
C131 C130 1.297 1_554 S
C131 C132 1.481 . S
C131 H145 0.950 . S
C132 C131 1.481 . S
C132 C133 1.387 . S
C132 C138 1.392 1_554 S
C133 C132 1.387 . S
C133 C134 1.369 . S
C133 H146 0.950 . S
C134 C133 1.369 . S
C134 C135 1.371 1_654 S
C134 H147 0.951 1_655 S
C135 C134 1.371 1_456 S
C135 C137 1.405 1_455 S
H136 C138 0.949 . S
C137 C135 1.405 1_655 S
C137 C138 1.385 . S
C137 H139 0.950 . S
C138 C132 1.392 1_556 S
C138 H136 0.949 . S
C138 C137 1.385 . S
H139 C137 0.950 . S
H140 C124 0.951 . S
H141 C126 0.951 . S
H142 C128 0.951 . S
H143 C129 0.950 . S
H144 C130 0.950 . S
H145 C131 0.950 . S
H146 C133 0.950 . S
H147 C134 0.951 1_455 S
C148 C149 1.386 1_456 S
C148 C150 1.383 . S
C148 H164 0.951 1_455 S
C149 C148 1.386 1_654 S
C149 C153 1.383 1_655 S
C150 C148 1.383 . S
C150 C151 1.402 1_556 S
C150 H165 0.951 . S
C151 C150 1.402 1_554 S
C151 C152 1.375 . S
C151 C154 1.481 . S
C152 C151 1.375 . S
C152 C153 1.367 . S
C152 H166 0.951 . S
C153 C149 1.383 1_455 S
C153 C152 1.367 . S
C153 H167 0.950 1_455 S
C154 C151 1.481 . S
C154 C155 1.297 1_554 S
C154 H168 0.950 . S
C155 C154 1.297 1_556 S
C155 C156 1.477 1_556 S
C155 H169 0.950 . S
C156 C155 1.477 1_554 S
C156 C157 1.355 1_554 S
C156 C162 1.425 . S
C157 C156 1.355 1_556 S
C157 C158 1.369 . S
C157 H170 0.950 . S
C158 C157 1.369 . S
C158 C159 1.392 1_556 S
C158 H171 0.951 . S
C159 C158 1.392 1_554 S
C159 C161 1.384 . S
H160 C162 0.949 . S
C161 C159 1.384 . S
C161 C162 1.385 . S
C161 H163 0.950 . S
C162 C156 1.425 . S
C162 H160 0.949 . S
C162 C161 1.385 . S
H163 C161 0.950 . S
H164 C148 0.951 1_655 S
H165 C150 0.951 . S
H166 C152 0.951 . S
H167 C153 0.950 1_655 S
H168 C154 0.950 . S
H169 C155 0.950 . S
H170 C157 0.950 . S
H171 C158 0.951 . S
C172 C173 1.386 . S
C172 C174 1.383 . S
C172 H188 0.951 . S
C173 C172 1.386 . S
C173 C177 1.383 . S
C174 C172 1.383 . S
C174 C175 1.402 . S
C174 H189 0.951 . S
C175 C174 1.402 . S
C175 C176 1.375 . S
C175 C178 1.481 . S
C176 C175 1.375 . S
C176 C177 1.367 . S
C176 H190 0.951 . S
C177 C173 1.383 . S
C177 C176 1.367 . S
C177 H191 0.950 . S
C178 C175 1.481 . S
C178 C179 1.297 . S
C178 H192 0.950 . S
C179 C178 1.297 . S
C179 C180 1.479 . S
C179 H193 0.950 . S
C180 C179 1.479 . S
C180 C181 1.375 . S
C180 C186 1.404 . S
C181 C180 1.375 . S
C181 C182 1.369 . S
C181 H194 0.950 . S
C182 C181 1.369 . S
C182 C183 1.392 1_655 S
C182 H195 0.951 . S
C183 C182 1.392 1_455 S
C183 C185 1.384 1_455 S
H184 C186 0.949 . S
C185 C183 1.384 1_655 S
C185 C186 1.385 . S
C185 H187 0.950 1_655 S
C186 C180 1.404 . S
C186 H184 0.949 . S
C186 C185 1.385 . S
H187 C185 0.950 1_455 S
H188 C172 0.951 . S
H189 C174 0.951 . S
H190 C176 0.951 . S
H191 C177 0.950 . S
H192 C178 0.950 . S
H193 C179 0.950 . S
H194 C181 0.950 . S
H195 C182 0.951 . S
C196 C197 1.386 1_455 S
C196 C198 1.383 . S
C196 H212 0.951 1_455 S
C197 C196 1.386 1_655 S
C197 C201 1.383 1_655 S
C198 C196 1.383 . S
C198 C199 1.402 . S
C198 H213 0.951 . S
C199 C198 1.402 . S
C199 C200 1.375 . S
C199 C202 1.481 . S
C200 C199 1.375 . S
C200 C201 1.367 . S
C200 H214 0.951 . S
C201 C197 1.383 1_455 S
C201 C200 1.367 . S
C201 H215 0.950 1_455 S
C202 C199 1.481 . S
C202 C203 1.297 . S
C202 H216 0.950 . S
C203 C202 1.297 . S
C203 C204 1.479 . S
C203 H217 0.950 . S
C204 C203 1.479 . S
C204 C205 1.375 . S
C204 C210 1.404 . S
C205 C204 1.375 . S
C205 C206 1.369 . S
C205 H218 0.950 . S
C206 C205 1.369 . S
C206 C207 1.392 . S
C206 H219 0.951 . S
C207 C206 1.392 . S
C207 C209 1.384 . S
H208 C210 0.949 . S
C209 C207 1.384 . S
C209 C210 1.385 . S
C209 H211 0.950 . S
C210 C204 1.404 . S
C210 H208 0.949 . S
C210 C209 1.385 . S
H211 C209 0.950 . S
H212 C196 0.951 1_655 S
H213 C198 0.951 . S
H214 C200 0.951 . S
H215 C201 0.950 1_655 S
H216 C202 0.950 . S
H217 C203 0.950 . S
H218 C205 0.950 . S
H219 C206 0.951 . S
C220 C221 1.386 . S
C220 C222 1.383 . S
C220 H236 0.951 . S
C221 C220 1.386 . S
C221 C225 1.383 . S
C222 C220 1.383 . S
C222 C223 1.402 . S
C222 H237 0.951 . S
C223 C222 1.402 . S
C223 C224 1.375 . S
C223 C226 1.481 . S
C224 C223 1.375 . S
C224 C225 1.367 . S
C224 H238 0.951 . S
C225 C221 1.383 . S
C225 C224 1.367 . S
C225 H239 0.950 . S
C226 C223 1.481 . S
C226 C227 1.297 . S
C226 H240 0.950 . S
C227 C226 1.297 . S
C227 C228 1.479 . S
C227 H241 0.950 . S
C228 C227 1.479 . S
C228 C229 1.375 . S
C228 C234 1.404 . S
C229 C228 1.375 . S
C229 C230 1.369 . S
C229 H242 0.950 . S
C230 C229 1.369 . S
C230 C231 1.392 . S
C230 H243 0.951 . S
C231 C230 1.392 . S
C231 C233 1.384 . S
H232 C234 0.949 . S
C233 C231 1.384 . S
C233 C234 1.385 . S
C233 H235 0.950 . S
C234 C228 1.404 . S
C234 H232 0.949 . S
C234 C233 1.385 . S
H235 C233 0.950 . S
H236 C220 0.951 . S
H237 C222 0.951 . S
H238 C224 0.951 . S
H239 C225 0.950 . S
H240 C226 0.950 . S
H241 C227 0.950 . S
H242 C229 0.950 . S
H243 C230 0.951 . S
C244 C245 1.386 . S
C244 C246 1.383 . S
C244 H260 0.951 . S
C245 C244 1.386 . S
C245 C249 1.383 . S
C246 C244 1.383 . S
C246 C247 1.402 . S
C246 H261 0.951 . S
C247 C246 1.402 . S
C247 C248 1.375 . S
C247 C250 1.481 . S
C248 C247 1.375 . S
C248 C249 1.367 . S
C248 H262 0.951 . S
C249 C245 1.383 . S
C249 C248 1.367 . S
C249 H263 0.950 . S
C250 C247 1.481 . S
C250 C251 1.297 . S
C250 H264 0.950 . S
C251 C250 1.297 . S
C251 C252 1.479 . S
C251 H265 0.950 . S
C252 C251 1.479 . S
C252 C253 1.375 . S
C252 C258 1.404 . S
C253 C252 1.375 . S
C253 C254 1.369 . S
C253 H266 0.950 . S
C254 C253 1.369 . S
C254 C255 1.392 . S
C254 H267 0.951 . S
C255 C254 1.392 . S
C255 C257 1.384 . S
H256 C258 0.949 . S
C257 C255 1.384 . S
C257 C258 1.385 . S
C257 H259 0.950 . S
C258 C252 1.404 . S
C258 H256 0.949 . S
C258 C257 1.385 . S
H259 C257 0.950 . S
H260 C244 0.951 . S
H261 C246 0.951 . S
H262 C248 0.951 . S
H263 C249 0.950 . S
H264 C250 0.950 . S
H265 C251 0.950 . S
H266 C253 0.950 . S
H267 C254 0.951 . S
C268 C269 1.386 1_556 S
C268 C270 1.383 . S
C268 H284 0.951 . S
C269 C268 1.386 1_554 S
C269 C273 1.383 . S
C270 C268 1.383 . S
C270 C271 1.402 1_556 S
C270 H285 0.951 . S
C271 C270 1.402 1_554 S
C271 C272 1.375 . S
C271 C274 1.487 . S
C272 C271 1.375 . S
C272 C273 1.367 . S
C272 H286 0.951 1_455 S
C273 C269 1.383 . S
C273 C272 1.367 . S
C273 H287 0.950 . S
C274 C271 1.487 . S
C274 C275 1.299 1_545 S
C274 H288 0.941 1_455 S
C275 C274 1.299 1_565 S
C275 C276 1.479 1_455 S
C275 H289 0.950 . S
C276 C275 1.479 1_655 S
C276 C277 1.375 1_554 S
C276 C282 1.404 . S
C277 C276 1.375 1_556 S
C277 C278 1.369 . S
C277 H290 0.950 1_655 S
C278 C277 1.369 . S
C278 C279 1.392 1_556 S
C278 H291 0.951 . S
C279 C278 1.392 1_554 S
C279 C281 1.384 . S
H280 C282 0.949 . S
C281 C279 1.384 . S
C281 C282 1.385 . S
C281 H283 0.950 . S
C282 C276 1.404 . S
C282 H280 0.949 . S
C282 C281 1.385 . S
H283 C281 0.950 . S
H284 C268 0.951 . S
H285 C270 0.951 . S
H286 C272 0.951 1_655 S
H287 C273 0.950 . S
H288 C274 0.941 1_655 S
H289 C275 0.950 . S
H290 C277 0.950 1_455 S
H291 C278 0.951 . S
C292 C293 1.386 . S
C292 C294 1.383 . S
C292 H308 0.951 . S
C293 C292 1.386 . S
C293 C297 1.383 . S
C294 C292 1.383 . S
C294 C295 1.402 . S
C294 H309 0.951 . S
C295 C294 1.402 . S
C295 C296 1.375 . S
C295 C298 1.481 1_655 S
C296 C295 1.375 . S
C296 C297 1.367 . S
C296 H310 0.951 1_655 S
C297 C293 1.383 . S
C297 C296 1.367 . S
C297 H311 0.950 . S
C298 C295 1.481 1_455 S
C298 C299 1.297 1_545 S
C298 H312 0.950 . S
C299 C298 1.297 1_565 S
C299 C300 1.479 . S
C299 H313 0.950 1_455 S
C300 C299 1.479 . S
C300 C301 1.375 . S
C300 C306 1.404 . S
C301 C300 1.375 . S
C301 C302 1.369 . S
C301 H314 0.950 1_455 S
C302 C301 1.369 . S
C302 C303 1.392 . S
C302 H315 0.951 . S
C303 C302 1.392 . S
C303 C305 1.384 . S
H304 C306 0.949 . S
C305 C303 1.384 . S
C305 C306 1.385 . S
C305 H307 0.950 . S
C306 C300 1.404 . S
C306 H304 0.949 . S
C306 C305 1.385 . S
H307 C305 0.950 . S
H308 C292 0.951 . S
H309 C294 0.951 . S
H310 C296 0.951 1_455 S
H311 C297 0.950 . S
H312 C298 0.950 . S
H313 C299 0.950 1_655 S
H314 C301 0.950 1_655 S
H315 C302 0.951 . S
C316 C317 1.386 . S
C316 C318 1.383 . S
C316 H332 0.951 . S
C317 C316 1.386 . S
C317 C321 1.383 . S
C318 C316 1.383 . S
C318 C319 1.402 . S
C318 H333 0.951 . S
C319 C318 1.402 . S
C319 C320 1.375 . S
C319 C322 1.481 . S
C320 C319 1.375 . S
C320 C321 1.367 . S
C320 H334 0.951 . S
C321 C317 1.383 . S
C321 C320 1.367 . S
C321 H335 0.950 . S
C322 C319 1.481 . S
C322 C323 1.297 . S
C322 H336 0.950 . S
C323 C322 1.297 . S
C323 C324 1.479 . S
C323 H337 0.950 . S
C324 C323 1.479 . S
C324 C325 1.375 . S
C324 C330 1.404 . S
C325 C324 1.375 . S
C325 C326 1.369 . S
C325 H338 0.950 . S
C326 C325 1.369 . S
C326 C327 1.392 . S
C326 H339 0.951 . S
C327 C326 1.392 . S
C327 C329 1.384 . S
H328 C330 0.949 . S
C329 C327 1.384 . S
C329 C330 1.385 . S
C329 H331 0.950 . S
C330 C324 1.404 . S
C330 H328 0.949 . S
C330 C329 1.385 . S
H331 C329 0.950 . S
H332 C316 0.951 . S
H333 C318 0.951 . S
H334 C320 0.951 . S
H335 C321 0.950 . S
H336 C322 0.950 . S
H337 C323 0.950 . S
H338 C325 0.950 . S
H339 C326 0.951 . S
C340 C341 1.386 . S
C340 C342 1.383 . S
C340 H356 0.951 . S
C341 C340 1.386 . S
C341 C345 1.383 . S
C342 C340 1.383 . S
C342 C343 1.402 . S
C342 H357 0.951 . S
C343 C342 1.402 . S
C343 C344 1.375 . S
C343 C346 1.481 . S
C344 C343 1.375 . S
C344 C345 1.367 . S
C344 H358 0.951 . S
C345 C341 1.383 . S
C345 C344 1.367 . S
C345 H359 0.950 . S
C346 C343 1.481 . S
C346 C347 1.297 . S
C346 H360 0.950 . S
C347 C346 1.297 . S
C347 C348 1.479 . S
C347 H361 0.950 . S
C348 C347 1.479 . S
C348 C349 1.375 . S
C348 C354 1.404 . S
C349 C348 1.375 . S
C349 C350 1.369 . S
C349 H362 0.950 . S
C350 C349 1.369 . S
C350 C351 1.392 . S
C350 H363 0.951 . S
C351 C350 1.392 . S
C351 C353 1.384 . S
H352 C354 0.949 . S
C353 C351 1.384 . S
C353 C354 1.385 . S
C353 H355 0.950 . S
C354 C348 1.404 . S
C354 H352 0.949 . S
C354 C353 1.385 . S
H355 C353 0.950 . S
H356 C340 0.951 . S
H357 C342 0.951 . S
H358 C344 0.951 . S
H359 C345 0.950 . S
H360 C346 0.950 . S
H361 C347 0.950 . S
H362 C349 0.950 . S
H363 C350 0.951 . S
C364 C365 1.386 . S
C364 C366 1.383 . S
C364 H380 0.951 . S
C365 C364 1.386 . S
C365 C369 1.383 . S
C366 C364 1.383 . S
C366 C367 1.402 . S
C366 H381 0.951 . S
C367 C366 1.402 . S
C367 C368 1.375 . S
C367 C370 1.481 . S
C368 C367 1.375 . S
C368 C369 1.367 . S
C368 H382 0.951 . S
C369 C365 1.383 . S
C369 C368 1.367 . S
C369 H383 0.950 . S
C370 C367 1.481 . S
C370 C371 1.297 . S
C370 H384 0.950 . S
C371 C370 1.297 . S
C371 C372 1.479 . S
C371 H385 0.950 . S
C372 C371 1.479 . S
C372 C373 1.375 . S
C372 C378 1.404 . S
C373 C372 1.375 . S
C373 C374 1.369 . S
C373 H386 0.950 . S
C374 C373 1.369 . S
C374 C375 1.392 . S
C374 H387 0.951 . S
C375 C374 1.392 . S
C375 C377 1.384 . S
H376 C378 0.949 . S
C377 C375 1.384 . S
C377 C378 1.385 . S
C377 H379 0.950 . S
C378 C372 1.404 . S
C378 H376 0.949 . S
C378 C377 1.385 . S
H379 C377 0.950 . S
H380 C364 0.951 . S
H381 C366 0.951 . S
H382 C368 0.951 . S
H383 C369 0.950 . S
H384 C370 0.950 . S
H385 C371 0.950 . S
H386 C373 0.950 . S
H387 C374 0.951 . S
C388 C389 1.386 . S
C388 C390 1.383 . S
C388 H404 0.951 . S
C389 C388 1.386 . S
C389 C393 1.383 . S
C390 C388 1.383 . S
C390 C391 1.402 . S
C390 H405 0.951 . S
C391 C390 1.402 . S
C391 C392 1.375 . S
C391 C394 1.481 . S
C392 C391 1.375 . S
C392 C393 1.367 . S
C392 H406 0.951 . S
C393 C389 1.383 . S
C393 C392 1.367 . S
C393 H407 0.950 . S
C394 C391 1.481 . S
C394 C395 1.297 . S
C394 H408 0.950 . S
C395 C394 1.297 . S
C395 C396 1.479 . S
C395 H409 0.950 . S
C396 C395 1.479 . S
C396 C397 1.375 . S
C396 C402 1.404 . S
C397 C396 1.375 . S
C397 C398 1.369 . S
C397 H410 0.950 . S
C398 C397 1.369 . S
C398 C399 1.392 . S
C398 H411 0.951 . S
C399 C398 1.392 . S
C399 C401 1.384 . S
H400 C402 0.949 . S
C401 C399 1.384 . S
C401 C402 1.385 . S
C401 H403 0.950 . S
C402 C396 1.404 . S
C402 H400 0.949 . S
C402 C401 1.385 . S
H403 C401 0.950 . S
H404 C388 0.951 . S
H405 C390 0.951 . S
H406 C392 0.951 . S
H407 C393 0.950 . S
H408 C394 0.950 . S
H409 C395 0.950 . S
H410 C397 0.950 . S
H411 C398 0.951 . S
C412 C413 1.386 . S
C412 C414 1.383 . S
C412 H428 0.951 . S
C413 C412 1.386 . S
C413 C417 1.383 . S
C414 C412 1.383 . S
C414 C415 1.402 . S
C414 H429 0.951 1_455 S
C415 C414 1.402 . S
C415 C416 1.375 . S
C415 C418 1.481 . S
C416 C415 1.375 . S
C416 C417 1.367 . S
C416 H430 0.951 . S
C417 C413 1.383 . S
C417 C416 1.367 . S
C417 H431 0.950 . S
C418 C415 1.481 . S
C418 C419 1.297 1_455 S
C418 H432 0.950 . S
C419 C418 1.297 1_655 S
C419 C420 1.479 . S
C419 H433 0.950 . S
C420 C419 1.479 . S
C420 C421 1.375 . S
C420 C426 1.404 . S
C421 C420 1.375 . S
C421 C422 1.369 . S
C421 H434 0.950 . S
C422 C421 1.369 . S
C422 C423 1.392 . S
C422 H435 0.951 . S
C423 C422 1.392 . S
C423 C425 1.384 . S
H424 C426 0.949 . S
C425 C423 1.384 . S
C425 C426 1.385 . S
C425 H427 0.950 . S
C426 C420 1.404 . S
C426 H424 0.949 . S
C426 C425 1.385 . S
H427 C425 0.950 . S
H428 C412 0.951 . S
H429 C414 0.951 1_655 S
H430 C416 0.951 . S
H431 C417 0.950 . S
H432 C418 0.950 . S
H433 C419 0.950 . S
H434 C421 0.950 . S
H435 C422 0.951 . S
C436 C437 1.386 . S
C436 C438 1.383 . S
C436 H452 0.951 . S
C437 C436 1.386 . S
C437 C441 1.383 . S
C438 C436 1.383 . S
C438 C439 1.402 . S
C438 H453 0.951 . S
C439 C438 1.402 . S
C439 C440 1.375 1_655 S
C439 C442 1.481 1_655 S
C440 C439 1.375 1_455 S
C440 C441 1.367 1_455 S
C440 H454 0.951 . S
C441 C437 1.383 . S
C441 C440 1.367 1_655 S
C441 H455 0.950 1_655 S
C442 C439 1.481 1_455 S
C442 C443 1.297 1_455 S
C442 H456 0.950 . S
C443 C442 1.297 1_655 S
C443 C444 1.479 1_655 S
C443 H457 0.950 . S
C444 C443 1.479 1_455 S
C444 C445 1.375 1_455 S
C444 C450 1.404 . S
C445 C444 1.375 1_655 S
C445 C446 1.369 1_655 S
C445 H458 0.950 . S
C446 C445 1.369 1_455 S
C446 C447 1.392 . S
C446 H459 0.951 1_455 S
C447 C446 1.392 . S
C447 C449 1.384 . S
H448 C450 0.949 . S
C449 C447 1.384 . S
C449 C450 1.385 . S
C449 H451 0.950 . S
C450 C444 1.404 . S
C450 H448 0.949 . S
C450 C449 1.385 . S
H451 C449 0.950 . S
H452 C436 0.951 . S
H453 C438 0.951 . S
H454 C440 0.951 . S
H455 C441 0.950 1_455 S
H456 C442 0.950 . S
H457 C443 0.950 . S
H458 C445 0.950 . S
H459 C446 0.951 1_655 S
C460 C461 1.386 . S
C460 C462 1.383 . S
C460 H476 0.951 . S
C461 C460 1.386 . S
C461 C465 1.383 . S
C462 C460 1.383 . S
C462 C463 1.402 . S
C462 H477 0.951 . S
C463 C462 1.402 . S
C463 C464 1.375 1_455 S
C463 C466 1.481 1_455 S
C464 C463 1.375 1_655 S
C464 C465 1.367 1_655 S
C464 H478 0.951 . S
C465 C461 1.383 . S
C465 C464 1.367 1_455 S
C465 H479 0.950 . S
C466 C463 1.481 1_655 S
C466 C467 1.297 . S
C466 H480 0.950 . S
C467 C466 1.297 . S
C467 C468 1.479 . S
C467 H481 0.950 1_655 S
C468 C467 1.479 . S
C468 C469 1.375 . S
C468 C474 1.404 . S
C469 C468 1.375 . S
C469 C470 1.369 . S
C469 H482 0.950 1_655 S
C470 C469 1.369 . S
C470 C471 1.392 . S
C470 H483 0.951 . S
C471 C470 1.392 . S
C471 C473 1.384 . S
H472 C474 0.949 . S
C473 C471 1.384 . S
C473 C474 1.385 . S
C473 H475 0.950 . S
C474 C468 1.404 . S
C474 H472 0.949 . S
C474 C473 1.385 . S
H475 C473 0.950 . S
H476 C460 0.951 . S
H477 C462 0.951 . S
H478 C464 0.951 . S
H479 C465 0.950 . S
H480 C466 0.950 . S
H481 C467 0.950 1_455 S
H482 C469 0.950 1_455 S
H483 C470 0.951 . S
C484 C485 1.386 . S
C484 C486 1.383 . S
C484 H500 0.951 1_455 S
C485 C484 1.386 . S
C485 C489 1.383 . S
C486 C484 1.383 . S
C486 C487 1.402 . S
C486 H501 0.951 1_455 S
C487 C486 1.402 . S
C487 C488 1.375 . S
C487 C490 1.481 . S
C488 C487 1.375 . S
C488 C489 1.367 . S
C488 H502 0.951 . S
C489 C485 1.383 . S
C489 C488 1.367 . S
C489 H503 0.950 . S
C490 C487 1.481 . S
C490 C491 1.297 1_455 S
C490 H504 0.950 . S
C491 C490 1.297 1_655 S
C491 C492 1.479 . S
C491 H505 0.950 . S
C492 C491 1.479 . S
C492 C493 1.375 . S
C492 C498 1.404 . S
C493 C492 1.375 . S
C493 C494 1.369 . S
C493 H506 0.950 . S
C494 C493 1.369 . S
C494 C495 1.392 . S
C494 H507 0.951 . S
C495 C494 1.392 . S
C495 C497 1.384 . S
H496 C498 0.949 1_455 S
C497 C495 1.384 . S
C497 C498 1.385 . S
C497 H499 0.950 . S
C498 C492 1.404 . S
C498 H496 0.949 1_655 S
C498 C497 1.385 . S
H499 C497 0.950 . S
H500 C484 0.951 1_655 S
H501 C486 0.951 1_655 S
H502 C488 0.951 . S
H503 C489 0.950 . S
H504 C490 0.950 . S
H505 C491 0.950 . S
H506 C493 0.950 . S
H507 C494 0.951 . S
C125 C0 1.342 1_556 S
C135 C10 1.266 . S
C149 C31 1.297 . S
C159 C41 1.341 1_554 S
C173 C62 1.310 . S
C183 C72 1.344 . S
C197 C93 1.297 . S
C207 C103 1.338 . S
C221 C50 1.557 1_554 S
C231 C30 1.507 . S
C245 C112 1.524 . S
C255 C92 1.566 . S
C269 C19 1.560 1_554 S
C279 C61 1.512 . S
C293 C123 1.540 . S
C303 C81 1.557 . S
C317 C95 1.141 . S
C327 C1 1.089 . S
C341 C33 1.148 . S
C351 C63 1.077 . S
C365 C91 1.213 . S
C375 C51 1.243 . S
C389 C29 1.184 . S
C399 C113 1.127 . S
C413 C64 1.149 . S
C423 C32 1.075 . S
C437 C94 1.141 . S
C447 C2 1.105 . S
C461 C20 1.241 . S
C471 C122 1.223 . S
C485 C82 1.166 . S
C495 C60 1.141 . S
