# Generated by pormake.
# Topology zfd, (5)-cn, num edge types: 1
# Building blocks:
#     Node 0, Type 0, BuildingBlock: XOMCOT_clean_sbu_1, # of connection points: 5
#     Node 1, Type 0, BuildingBlock: XOMCOT_clean_sbu_1, # of connection points: 5
#     Node 2, Type 0, BuildingBlock: XOMCOT_clean_sbu_1, # of connection points: 5
#     Node 3, Type 0, BuildingBlock: XOMCOT_clean_sbu_1, # of connection points: 5
#     Node 4, Type 0, BuildingBlock: XOMCOT_clean_sbu_1, # of connection points: 5
#     Node 5, Type 0, BuildingBlock: XOMCOT_clean_sbu_1, # of connection points: 5
#     Node 6, Type 0, BuildingBlock: XOMCOT_clean_sbu_1, # of connection points: 5
#     Node 7, Type 0, BuildingBlock: XOMCOT_clean_sbu_1, # of connection points: 5
#     Node 8, Type 0, BuildingBlock: XOMCOT_clean_sbu_1, # of connection points: 5
#     Node 9, Type 0, BuildingBlock: XOMCOT_clean_sbu_1, # of connection points: 5
#     Node 10, Type 0, BuildingBlock: XOMCOT_clean_sbu_1, # of connection points: 5
#     Node 11, Type 0, BuildingBlock: XOMCOT_clean_sbu_1, # of connection points: 5
#     Node 12, Type 0, BuildingBlock: XOMCOT_clean_sbu_1, # of connection points: 5
#     Node 13, Type 0, BuildingBlock: XOMCOT_clean_sbu_1, # of connection points: 5
#     Node 14, Type 0, BuildingBlock: XOMCOT_clean_sbu_1, # of connection points: 5
#     Node 15, Type 0, BuildingBlock: XOMCOT_clean_sbu_1, # of connection points: 5
#     Edge 16, Type (0, 0), BuildingBlock: EZIPEK_clean_linker_0, # of connection points: 2
#     Edge 17, Type (0, 0), BuildingBlock: EZIPEK_clean_linker_0, # of connection points: 2
#     Edge 18, Type (0, 0), BuildingBlock: EZIPEK_clean_linker_0, # of connection points: 2
#     Edge 19, Type (0, 0), BuildingBlock: EZIPEK_clean_linker_0, # of connection points: 2
#     Edge 20, Type (0, 0), BuildingBlock: EZIPEK_clean_linker_0, # of connection points: 2
#     Edge 21, Type (0, 0), BuildingBlock: EZIPEK_clean_linker_0, # of connection points: 2
#     Edge 22, Type (0, 0), BuildingBlock: EZIPEK_clean_linker_0, # of connection points: 2
#     Edge 23, Type (0, 0), BuildingBlock: EZIPEK_clean_linker_0, # of connection points: 2
#     Edge 24, Type (0, 0), BuildingBlock: EZIPEK_clean_linker_0, # of connection points: 2
#     Edge 25, Type (0, 0), BuildingBlock: EZIPEK_clean_linker_0, # of connection points: 2
#     Edge 26, Type (0, 0), BuildingBlock: EZIPEK_clean_linker_0, # of connection points: 2
#     Edge 27, Type (0, 0), BuildingBlock: EZIPEK_clean_linker_0, # of connection points: 2
#     Edge 28, Type (0, 0), BuildingBlock: EZIPEK_clean_linker_0, # of connection points: 2
#     Edge 29, Type (0, 0), BuildingBlock: EZIPEK_clean_linker_0, # of connection points: 2
#     Edge 30, Type (0, 0), BuildingBlock: EZIPEK_clean_linker_0, # of connection points: 2
#     Edge 31, Type (0, 0), BuildingBlock: EZIPEK_clean_linker_0, # of connection points: 2
#     Edge 32, Type (0, 0), BuildingBlock: EZIPEK_clean_linker_0, # of connection points: 2
#     Edge 33, Type (0, 0), BuildingBlock: EZIPEK_clean_linker_0, # of connection points: 2
#     Edge 34, Type (0, 0), BuildingBlock: EZIPEK_clean_linker_0, # of connection points: 2
#     Edge 35, Type (0, 0), BuildingBlock: EZIPEK_clean_linker_0, # of connection points: 2
#     Edge 36, Type (0, 0), BuildingBlock: EZIPEK_clean_linker_0, # of connection points: 2
#     Edge 37, Type (0, 0), BuildingBlock: EZIPEK_clean_linker_0, # of connection points: 2
#     Edge 38, Type (0, 0), BuildingBlock: EZIPEK_clean_linker_0, # of connection points: 2
#     Edge 39, Type (0, 0), BuildingBlock: EZIPEK_clean_linker_0, # of connection points: 2
#     Edge 40, Type (0, 0), BuildingBlock: EZIPEK_clean_linker_0, # of connection points: 2
#     Edge 41, Type (0, 0), BuildingBlock: EZIPEK_clean_linker_0, # of connection points: 2
#     Edge 42, Type (0, 0), BuildingBlock: EZIPEK_clean_linker_0, # of connection points: 2
#     Edge 43, Type (0, 0), BuildingBlock: EZIPEK_clean_linker_0, # of connection points: 2
#     Edge 44, Type (0, 0), BuildingBlock: EZIPEK_clean_linker_0, # of connection points: 2
#     Edge 45, Type (0, 0), BuildingBlock: EZIPEK_clean_linker_0, # of connection points: 2
#     Edge 46, Type (0, 0), BuildingBlock: EZIPEK_clean_linker_0, # of connection points: 2
#     Edge 47, Type (0, 0), BuildingBlock: EZIPEK_clean_linker_0, # of connection points: 2
#     Edge 48, Type (0, 0), BuildingBlock: EZIPEK_clean_linker_0, # of connection points: 2
#     Edge 49, Type (0, 0), BuildingBlock: EZIPEK_clean_linker_0, # of connection points: 2
#     Edge 50, Type (0, 0), BuildingBlock: EZIPEK_clean_linker_0, # of connection points: 2
#     Edge 51, Type (0, 0), BuildingBlock: EZIPEK_clean_linker_0, # of connection points: 2
#     Edge 52, Type (0, 0), BuildingBlock: EZIPEK_clean_linker_0, # of connection points: 2
#     Edge 53, Type (0, 0), BuildingBlock: EZIPEK_clean_linker_0, # of connection points: 2
#     Edge 54, Type (0, 0), BuildingBlock: EZIPEK_clean_linker_0, # of connection points: 2
#     Edge 55, Type (0, 0), BuildingBlock: EZIPEK_clean_linker_0, # of connection points: 2
# Relax obj value: 0.256
# Max RMSD: 0.191
# Mean RMSD: 0.191
data_MOF--net-zfd--node1-XOMCOT_clean_sbu_1--edge1-EZIPEK_clean_linker_0
_symmetry_space_group_name_H-M    P1
_symmetry_Int_Tables_number       1
_symmetry_cell_setting            triclinic
loop_
_symmetry_equiv_pos_as_xyz
'x, y, z'
_cell_length_a     52.191965
_cell_length_b     52.264004
_cell_length_c     15.514067
_cell_angle_alpha  89.934107
_cell_angle_beta   89.837713
_cell_angle_gamma 89.912558
loop_
_atom_site_label
_atom_site_type_symbol
_atom_site_fract_x
_atom_site_fract_y
_atom_site_fract_z
_atom_type_partial_charge
C0 C 0.11917 0.21374 0.22481 0.0
C1 C 0.14335 0.21293 0.25867 0.0
N2 N 0.15912 0.20227 0.19978 0.0
N3 N 0.11938 0.20304 0.1459 0.0
C4 C 0.1436 0.19478 0.13531 0.0
H5 H 0.10374 0.22517 0.25054 0.0
Co6 Co 0.10098 0.21864 0.06047 0.0
C7 C 0.12033 0.16814 0.94367 0.0
O8 O 0.12342 0.15261 1.00952 0.0
N9 N 0.08371 0.23566 0.97528 0.0
C10 C 0.07587 0.25371 0.84825 0.0
C11 C 0.09449 0.24526 0.9024 0.0
C12 C 0.05851 0.23904 0.96452 0.0
N13 N 0.05346 0.24943 0.88743 0.0
O14 O 0.06645 0.20153 0.11094 0.0
H15 H 0.11453 0.24487 0.88589 0.0
H16 H 0.04396 0.23185 1.00744 0.0
O17 O 0.11163 0.19113 0.96077 0.0
C18 C 0.05362 0.21485 0.16932 0.0
O19 O 0.06178 0.23817 0.18418 0.0
N20 N 0.13068 0.2391 0.03451 0.0
C21 C 0.17199 0.27363 0.02742 0.0
C22 C 0.17373 0.24929 0.98938 0.0
C23 C 0.15268 0.23254 0.99183 0.0
C24 C 0.12846 0.2629 0.06989 0.0
C25 C 0.14853 0.28061 0.06523 0.0
H26 H 0.15457 0.21398 0.96257 0.0
H27 H 0.11095 0.26807 0.10308 0.0
H28 H 0.15035 0.18649 0.07627 0.0
H29 H 0.14887 0.22103 0.31988 0.0
H30 H 0.07833 0.26011 0.78233 0.0
H31 H 0.19138 0.24313 0.95886 0.0
H32 H 0.14611 0.2993 0.09426 0.0
C33 C 0.81652 0.12361 0.22286 0.0
C34 C 0.81385 0.14849 0.24953 0.0
N35 N 0.82105 0.16398 0.18411 0.0
N36 N 0.82587 0.12349 0.14196 0.0
C37 C 0.8301 0.14814 0.12278 0.0
H38 H 0.80836 0.10718 0.25505 0.0
Co39 Co 0.81284 0.10176 0.0624 0.0
C40 C 0.83783 0.11849 0.88058 0.0
O41 O 0.81574 0.11199 0.84685 0.0
N42 N 0.79855 0.08021 0.98504 0.0
C43 C 0.77499 0.06115 0.88537 0.0
C44 C 0.77602 0.0812 0.94194 0.0
C45 C 0.81043 0.05935 0.95577 0.0
N46 N 0.79665 0.04763 0.89535 0.0
O47 O 0.83457 0.07127 0.11796 0.0
H48 H 0.76141 0.09568 0.94879 0.0
H49 H 0.8294 0.05335 0.975 0.0
O50 O 0.84022 0.11465 0.96422 0.0
C51 C 0.82279 0.0563 0.17354 0.0
O52 O 0.79833 0.06073 0.18671 0.0
N53 N 0.78855 0.12817 0.03044 0.0
C54 C 0.74933 0.165 1.02166 0.0
C55 C 0.7706 0.16638 0.96673 0.0
C56 C 0.7902 0.14804 0.97294 0.0
C57 C 0.7677 0.12664 0.08378 0.0
C58 C 0.74796 0.1448 0.08064 0.0
H59 H 0.80711 0.15125 0.93522 0.0
H60 H 0.76662 0.11126 0.1304 0.0
H61 H 0.83618 0.15423 0.05977 0.0
H62 H 0.80579 0.1544 0.31056 0.0
H63 H 0.75965 0.05664 0.84108 0.0
H64 H 0.77257 0.18215 0.92185 0.0
H65 H 0.73191 0.14325 0.12472 0.0
C66 C 0.91329 0.81676 0.18885 0.0
C67 C 0.89349 0.83229 0.21477 0.0
N68 N 0.88231 0.84167 0.14339 0.0
N69 N 0.91424 0.8168 0.10204 0.0
C70 C 0.8951 0.83208 0.07643 0.0
H71 H 0.92463 0.80461 0.23018 0.0
Co72 Co 0.93191 0.79558 0.03296 0.0
C73 C 0.91427 0.81574 0.84521 0.0
O74 O 0.90857 0.7918 0.82861 0.0
N75 N 0.94976 0.77342 0.96165 0.0
C76 C 0.96049 0.74605 0.85763 0.0
C77 C 0.94206 0.7525 0.91685 0.0
C78 C 0.97296 0.77884 0.92972 0.0
N79 N 0.97976 0.76271 0.86661 0.0
O80 O 0.96638 0.81323 0.07634 0.0
H81 H 0.9234 0.74371 0.91975 0.0
H82 H 0.98328 0.7962 0.94359 0.0
O83 O 0.92435 0.82029 0.92135 0.0
C84 C 0.97688 0.80375 0.14652 0.0
O85 O 0.96605 0.78335 0.17984 0.0
N86 N 0.90098 0.77558 1.01813 0.0
C87 C 0.8615 0.73858 0.0255 0.0
C88 C 0.85844 0.76145 0.97841 0.0
C89 C 0.87824 0.77991 0.97655 0.0
C90 C 0.90327 0.75433 0.06917 0.0
C91 C 0.88422 0.73547 0.07219 0.0
H92 H 0.87493 0.79756 0.94232 0.0
H93 H 0.92064 0.75156 0.10595 0.0
H94 H 0.88885 0.83432 1.01067 0.0
H95 H 0.88647 0.8348 0.27997 0.0
H96 H 0.95909 0.73165 0.80774 0.0
H97 H 0.84083 0.76507 0.94371 0.0
H98 H 0.88724 0.71848 0.11096 0.0
C99 C 0.2129 0.88935 0.19211 0.0
C100 C 0.19063 0.8775 0.21687 0.0
N101 N 0.1722 0.88456 0.1612 0.0
N102 N 0.20817 0.90301 0.12016 0.0
C103 C 0.18305 0.90072 0.10554 0.0
H104 H 0.23153 0.88671 0.22097 0.0
Co105 Co 0.23019 0.91915 0.04969 0.0
C106 C 0.20937 0.90235 0.85759 0.0
O107 O 0.23322 0.9015 0.83032 0.0
N108 N 0.25328 0.93596 0.98121 0.0
C109 C 0.2881 0.95398 0.92432 0.0
C110 C 0.27927 0.93654 0.98337 0.0
C111 C 0.24679 0.95333 0.92205 0.0
N112 N 0.26748 0.96442 0.88715 0.0
O113 O 0.21242 0.95377 0.08488 0.0
H114 H 0.29137 0.92633 0.02776 0.0
H115 H 0.2272 0.95875 0.9079 0.0
O116 O 0.20574 0.90979 0.93787 0.0
C117 C 0.21875 0.96227 0.1614 0.0
O118 O 0.23552 0.94865 0.20468 0.0
N119 N 0.25 0.888 0.03731 0.0
C120 C 0.28821 0.8495 0.04018 0.0
C121 C 0.26699 0.84782 0.98421 0.0
C122 C 0.24792 0.86718 0.98429 0.0
C123 C 0.26927 0.88848 0.09677 0.0
C124 C 0.28875 0.87006 0.09782 0.0
H125 H 0.23165 0.86508 0.9424 0.0
H126 H 0.2702 0.90424 0.14185 0.0
H127 H 0.17318 0.90902 0.05109 0.0
H128 H 0.18867 0.86287 0.26595 0.0
H129 H 0.30775 0.9598 0.91359 0.0
H130 H 0.26524 0.83176 0.94061 0.0
H131 H 0.30428 0.87195 0.14355 0.0
C132 C 0.13449 0.78877 0.32941 0.0
C133 C 0.13123 0.79482 0.24435 0.0
N134 N 0.1215 0.81865 0.23999 0.0
N135 N 0.12802 0.80908 0.3788 0.0
C136 C 0.12095 0.82723 0.32212 0.0
H137 H 0.13804 0.76965 0.35318 0.0
Co138 Co 0.11334 0.80506 0.48569 0.0
C139 C 0.15074 0.84081 0.60318 0.0
O140 O 0.16387 0.82031 0.62294 0.0
N141 N 0.09786 0.80001 0.59094 0.0
C142 C 0.09088 0.79055 0.72881 0.0
C143 C 0.10897 0.79728 0.6693 0.0
C144 C 0.07311 0.79447 0.60421 0.0
N145 N 0.06861 0.78873 0.68689 0.0
O146 O 0.0798 0.82242 0.43279 0.0
H147 H 0.12911 0.79806 0.68243 0.0
H148 H 0.05865 0.79377 0.55474 0.0
O149 O 0.13189 0.83879 0.54622 0.0
C150 C 0.0655 0.80651 0.3879 0.0
O151 O 0.07048 0.78204 0.39835 0.0
N152 N 0.14082 0.78241 0.51774 0.0
C153 C 0.17386 0.73985 0.51885 0.0
C154 C 0.18311 0.76432 0.49799 0.0
C155 C 0.16614 0.78529 0.4959 0.0
C156 C 0.13185 0.75852 0.53795 0.0
C157 C 0.14799 0.73722 0.54002 0.0
H158 H 0.17296 0.80348 0.47166 0.0
H159 H 0.11155 0.75542 0.54683 0.0
H160 H 0.11301 0.84549 0.34156 0.0
H161 H 0.13371 0.78187 0.19063 0.0
H162 H 0.09386 0.78623 0.79632 0.0
H163 H 0.20294 0.76693 0.47925 0.0
H164 H 0.14007 0.71855 0.55455 0.0
C165 C 0.24012 0.10712 0.38399 0.0
C166 C 0.24291 0.12561 0.32278 0.0
N167 N 0.22205 0.14048 0.32713 0.0
N168 N 0.21795 0.11084 0.42744 0.0
C169 C 0.20714 0.13138 0.39115 0.0
H170 H 0.25418 0.09266 0.39951 0.0
Co171 Co 0.21355 0.09156 0.52189 0.0
C172 C 0.17825 0.11782 0.66008 0.0
O173 O 0.19724 0.11139 0.71105 0.0
N174 N 0.21084 0.07053 0.61346 0.0
C175 C 0.19651 0.03845 0.69342 0.0
C176 C 0.1899 0.05657 0.63341 0.0
C177 C 0.22981 0.0608 0.66115 0.0
N178 N 0.22157 0.04142 0.70973 0.0
O179 O 0.19486 0.06419 0.44491 0.0
H180 H 0.17162 0.05815 0.60115 0.0
H181 H 0.24973 0.0657 0.655 0.0
O182 O 0.18037 0.11182 0.57723 0.0
C183 C 0.20995 0.04783 0.40541 0.0
O184 O 0.23436 0.04848 0.42526 0.0
N185 N 0.23623 0.11565 0.57946 0.0
C186 C 0.27467 0.15377 0.58763 0.0
C187 C 0.24871 0.16015 0.59421 0.0
C188 C 0.22991 0.14104 0.58808 0.0
C189 C 0.26169 0.10919 0.57635 0.0
C190 C 0.2811 0.12779 0.58153 0.0
H191 H 0.21055 0.14737 0.57933 0.0
H192 H 0.26724 0.09003 0.55823 0.0
H193 H 0.18958 0.14023 0.41356 0.0
H194 H 0.25906 0.12839 0.27983 0.0
H195 H 0.18463 0.02302 0.71735 0.0
H196 H 0.24289 0.18005 0.59633 0.0
H197 H 0.30092 0.1221 0.57347 0.0
C198 C 0.90703 0.25057 0.35762 0.0
C199 C 0.89075 0.25153 0.28928 0.0
N200 N 0.87576 0.23084 0.29429 0.0
N201 N 0.90203 0.22963 0.40595 0.0
C202 C 0.8827 0.21783 0.36585 0.0
H203 H 0.91983 0.26578 0.3765 0.0
Co204 Co 0.9157 0.23176 0.51169 0.0
C205 C 0.88603 0.19529 0.64339 0.0
O206 O 0.87838 0.21617 0.68206 0.0
N207 N 0.9303 0.23715 0.61821 0.0
C208 C 0.93754 0.25061 0.75212 0.0
C209 C 0.91977 0.24856 0.68871 0.0
C210 C 0.95478 0.23314 0.64 0.0
N211 N 0.95937 0.24112 0.72044 0.0
O212 O 0.94896 0.2123 0.45924 0.0
H213 H 0.90062 0.2561 0.69454 0.0
H214 H 0.96934 0.22571 0.59725 0.0
O215 O 0.89877 0.19746 0.56981 0.0
C216 C 0.96577 0.22402 0.40926 0.0
O217 O 0.96417 0.24902 0.40446 0.0
N218 N 0.88634 0.25303 0.54286 0.0
C219 C 0.84617 0.2894 0.55692 0.0
C220 C 0.84102 0.26304 0.55267 0.0
C221 C 0.86125 0.24527 0.54325 0.0
C222 C 0.89155 0.27869 0.54571 0.0
C223 C 0.87193 0.29704 0.55374 0.0
H224 H 0.8566 0.22537 0.53313 0.0
H225 H 0.91119 0.28506 0.53991 0.0
H226 H 0.87229 0.20174 0.39252 0.0
H227 H 0.88875 0.26698 0.24323 0.0
H228 H 0.93523 0.2597 0.81434 0.0
H229 H 0.82141 0.25631 0.55224 0.0
H230 H 0.87681 0.31716 0.55482 0.0
C231 C 0.7913 0.91721 0.36348 0.0
C232 C 0.7886 0.90792 0.28162 0.0
N233 N 0.81037 0.89568 0.26254 0.0
N234 N 0.81457 0.91065 0.39508 0.0
C235 C 0.82595 0.89758 0.33155 0.0
H236 H 0.77679 0.92743 0.39959 0.0
Co237 Co 0.82096 0.92028 0.50537 0.0
C238 C 0.85607 0.87607 0.58949 0.0
O239 O 0.83538 0.86339 0.61039 0.0
N240 N 0.82513 0.93118 0.61619 0.0
C241 C 0.82547 0.93356 0.75925 0.0
C242 C 0.82498 0.91743 0.69045 0.0
C243 C 0.82491 0.95557 0.64145 0.0
N244 N 0.82496 0.95733 0.72746 0.0
O245 O 0.84166 0.95152 0.45175 0.0
H246 H 0.82176 0.89727 0.69625 0.0
H247 H 0.82234 0.97164 0.59848 0.0
O248 O 0.85409 0.89602 0.53692 0.0
C249 C 0.82816 0.97 0.41606 0.0
O250 O 0.80336 0.96981 0.43001 0.0
N251 N 0.79721 0.89438 0.54185 0.0
C252 C 0.75337 0.86349 0.55052 0.0
C253 C 0.77529 0.8551 0.50693 0.0
C254 C 0.79682 0.87091 0.50232 0.0
C255 C 0.77588 0.90267 0.58514 0.0
C256 C 0.75392 0.88735 0.59146 0.0
H257 H 0.81292 0.86472 0.4636 0.0
H258 H 0.77515 0.92197 0.61006 0.0
H259 H 0.84473 0.88886 0.33654 0.0
H260 H 0.7719 0.90921 0.2406 0.0
H261 H 0.8233 0.92846 0.82655 0.0
H262 H 0.77533 0.83695 0.47323 0.0
H263 H 0.73703 0.89464 0.62395 0.0
C264 C 0.60878 0.74445 0.72359 0.0
C265 C 0.6302 0.7472 0.77356 0.0
N266 N 0.65004 0.73628 0.73174 0.0
N267 N 0.61487 0.73143 0.65147 0.0
C268 C 0.63979 0.72584 0.65985 0.0
H269 H 0.5907 0.75399 0.73463 0.0
Co270 Co 0.59746 0.73844 0.55278 0.0
C271 C 0.62282 0.70833 0.39749 0.0
O272 O 0.62238 0.73083 0.36016 0.0
N273 N 0.5794 0.74724 0.45604 0.0
C274 C 0.56789 0.76174 0.32728 0.0
C275 C 0.58323 0.76606 0.39722 0.0
C276 C 0.5609 0.73262 0.42257 0.0
N277 N 0.55388 0.74082 0.34444 0.0
O278 O 0.56636 0.71799 0.60375 0.0
H279 H 0.59727 0.78113 0.40127 0.0
H280 H 0.55342 0.7155 0.45261 0.0
O281 O 0.61421 0.70727 0.47756 0.0
C282 C 0.54837 0.73085 0.64358 0.0
O283 O 0.54911 0.7559 0.63733 0.0
N284 N 0.62488 0.76128 0.52167 0.0
C285 C 0.66359 0.79843 0.52184 0.0
C286 C 0.66821 0.77402 0.48875 0.0
C287 C 0.64899 0.75544 0.49231 0.0
C288 C 0.61996 0.78541 0.55151 0.0
C289 C 0.63899 0.80431 0.55199 0.0
H290 H 0.6545 0.73611 0.4776 0.0
H291 H 0.60131 0.78968 0.57857 0.0
H292 H 0.65059 0.71597 0.61056 0.0
H293 H 0.63098 0.75757 0.83354 0.0
H294 H 0.56682 0.77306 0.2689 0.0
H295 H 0.68719 0.76877 0.4664 0.0
H296 H 0.63483 0.82298 0.57888 0.0
C297 C 0.28403 0.61089 0.73444 0.0
C298 C 0.27798 0.63415 0.76945 0.0
N299 N 0.28967 0.65236 0.72229 0.0
N300 N 0.29998 0.61422 0.66692 0.0
C301 C 0.3034 0.63959 0.66184 0.0
H302 H 0.2751 0.59299 0.75168 0.0
Co303 Co 0.30105 0.58989 0.58325 0.0
C304 C 0.33317 0.60795 0.42465 0.0
O305 O 0.31502 0.59659 0.38057 0.0
N306 N 0.3006 0.5644 0.50475 0.0
C307 C 0.31295 0.53099 0.42765 0.0
C308 C 0.32104 0.55015 0.48114 0.0
C309 C 0.28027 0.5534 0.46736 0.0
N310 N 0.28745 0.53333 0.41962 0.0
O311 O 0.3233 0.56688 0.66222 0.0
H312 H 0.34048 0.55339 0.50242 0.0
H313 H 0.26063 0.55946 0.47568 0.0
O314 O 0.33157 0.60748 0.50948 0.0
C315 C 0.3104 0.55017 0.7073 0.0
O316 O 0.28565 0.54866 0.69328 0.0
N317 N 0.27596 0.61041 0.52149 0.0
C318 C 0.23751 0.64791 0.50231 0.0
C319 C 0.26189 0.65153 0.46747 0.0
C320 C 0.28086 0.63297 0.47916 0.0
C321 C 0.2515 0.60575 0.54939 0.0
C322 C 0.23197 0.62418 0.54043 0.0
H323 H 0.29981 0.63892 0.46349 0.0
H324 H 0.24766 0.58875 0.58708 0.0
H325 H 0.31446 0.64857 0.6114 0.0
H326 H 0.26508 0.63723 0.82298 0.0
H327 H 0.32464 0.51633 0.39776 0.0
H328 H 0.26698 0.66971 0.43844 0.0
H329 H 0.21332 0.62071 0.56882 0.0
C330 C 0.40876 0.26813 0.70618 0.0
C331 C 0.40298 0.26901 0.79213 0.0
N332 N 0.3969 0.29328 0.81003 0.0
N333 N 0.40602 0.29169 0.67084 0.0
C334 C 0.3988 0.30677 0.73608 0.0
H335 H 0.41519 0.25139 0.6714 0.0
Co336 Co 0.41647 0.29556 0.56004 0.0
C337 C 0.38001 0.33372 0.46255 0.0
O338 O 0.37162 0.31376 0.42044 0.0
N339 N 0.42852 0.29699 0.4471 0.0
C340 C 0.43445 0.29234 0.3056 0.0
C341 C 0.4176 0.28908 0.37243 0.0
C342 C 0.45206 0.30469 0.42358 0.0
N343 N 0.45605 0.30192 0.3388 0.0
O344 O 0.44877 0.31466 0.60966 0.0
H345 H 0.39913 0.28007 0.36608 0.0
H346 H 0.46679 0.31072 0.46762 0.0
O347 O 0.39592 0.33015 0.52741 0.0
C348 C 0.46571 0.30115 0.65211 0.0
O349 O 0.46311 0.27618 0.65049 0.0
N350 N 0.38782 0.27433 0.52819 0.0
C351 C 0.35022 0.23568 0.53766 0.0
C352 C 0.34455 0.26093 0.56171 0.0
C353 C 0.36363 0.27983 0.55767 0.0
C354 C 0.39349 0.24984 0.50337 0.0
C355 C 0.37493 0.23038 0.50645 0.0
H356 H 0.35948 0.2985 0.58428 0.0
H357 H 0.413 0.24493 0.48639 0.0
H358 H 0.39531 0.32713 0.73018 0.0
H359 H 0.40299 0.25329 0.83764 0.0
H360 H 0.43199 0.28608 0.23963 0.0
H361 H 0.32586 0.2657 0.58767 0.0
H362 H 0.3802 0.21104 0.48865 0.0
C363 C 0.6702 0.44433 0.61019 0.0
C364 C 0.65287 0.42827 0.64942 0.0
N365 N 0.65328 0.40604 0.60611 0.0
N366 N 0.68163 0.43165 0.54464 0.0
C367 C 0.66994 0.40895 0.54166 0.0
H368 H 0.67566 0.4629 0.63376 0.0
Co369 Co 0.71031 0.43902 0.48241 0.0
C370 C 0.69781 0.40864 0.30189 0.0
O371 O 0.72185 0.40614 0.27796 0.0
N372 N 0.73908 0.44677 0.41895 0.0
C373 C 0.77648 0.44959 0.34941 0.0
C374 C 0.76198 0.43508 0.40523 0.0
C375 C 0.74001 0.46794 0.37093 0.0
N376 N 0.76238 0.47011 0.32889 0.0
O377 O 0.72278 0.46241 0.58615 0.0
H378 H 0.76791 0.41702 0.43189 0.0
H379 H 0.72429 0.48138 0.36536 0.0
O380 O 0.69363 0.41957 0.37597 0.0
C381 C 0.71955 0.48715 0.59176 0.0
O382 O 0.71165 0.49903 0.52204 0.0
N383 N 0.72836 0.40788 0.52579 0.0
C384 C 0.76427 0.36758 0.5531 0.0
C385 C 0.74379 0.36481 0.49588 0.0
C386 C 0.72627 0.38491 0.48322 0.0
C387 C 0.74688 0.40985 0.58832 0.0
C388 C 0.76507 0.39016 0.60215 0.0
H389 H 0.71185 0.38185 0.43537 0.0
H390 H 0.74927 0.42737 0.62374 0.0
H391 H 0.67566 0.39341 0.50026 0.0
H392 H 0.64322 0.43148 0.71031 0.0
H393 H 0.79541 0.44529 0.32464 0.0
H394 H 0.74205 0.34758 0.45761 0.0
H395 H 0.78038 0.39312 0.64799 0.0
C396 C 0.62099 0.28009 0.83349 0.0
C397 C 0.63039 0.28858 0.75575 0.0
N398 N 0.62959 0.31423 0.75803 0.0
N399 N 0.61525 0.30055 0.88332 0.0
C400 C 0.62048 0.32103 0.83548 0.0
H401 H 0.61852 0.26035 0.85275 0.0
Co402 Co 0.60086 0.29969 0.98854 0.0
C403 C 0.63361 0.33662 0.10387 0.0
O404 O 0.6388 0.31638 0.15037 0.0
N405 N 0.58538 0.29749 0.09677 0.0
C406 C 0.57579 0.28946 0.23436 0.0
C407 C 0.59428 0.28765 0.17208 0.0
C408 C 0.56134 0.30492 0.11543 0.0
N409 N 0.55525 0.30022 0.19775 0.0
O410 O 0.56887 0.31801 0.93281 0.0
H411 H 0.61272 0.27883 0.18214 0.0
H412 H 0.54788 0.3125 0.06954 0.0
O413 O 0.61951 0.33389 0.03425 0.0
C414 C 0.55273 0.30342 0.89121 0.0
O415 O 0.55609 0.2786 0.89861 0.0
N416 N 0.6292 0.27904 0.02449 0.0
C417 C 0.6687 0.24253 0.03013 0.0
C418 C 0.67403 0.26825 1.01187 0.0
C419 C 0.65403 0.28613 1.00846 0.0
C420 C 0.62372 0.25392 0.04085 0.0
C421 C 0.64321 0.23551 0.04622 0.0
H422 H 0.65833 0.30533 0.98706 0.0
H423 H 0.60396 0.24792 0.04644 0.0
H424 H 0.61796 0.34057 0.85707 0.0
H425 H 0.63746 0.27713 0.70266 0.0
H426 H 0.57666 0.28205 0.29948 0.0
H427 H 0.69339 0.27426 0.99683 0.0
H428 H 0.6383 0.21573 0.05876 0.0
C429 C 0.72455 0.62842 0.861 0.0
C430 C 0.72454 0.65069 0.81618 0.0
N431 N 0.70404 0.66419 0.84134 0.0
N432 N 0.7048 0.62813 0.9179 0.0
C433 C 0.69221 0.65019 0.90308 0.0
H434 H 0.74015 0.61497 0.85913 0.0
Co435 Co 0.70689 0.6062 1.01106 0.0
C436 C 0.68762 0.63698 0.17858 0.0
O437 O 0.70796 0.62862 0.21973 0.0
N438 N 0.71028 0.58404 0.10012 0.0
C439 C 0.70235 0.55611 0.20439 0.0
C440 C 0.6921 0.57548 0.15502 0.0
C441 C 0.73098 0.56956 0.11558 0.0
N442 N 0.72673 0.55279 0.17868 0.0
O443 O 0.72107 0.5772 0.9245 0.0
H444 H 0.67245 0.58208 0.15624 0.0
H445 H 0.7481 0.56939 0.07712 0.0
O446 O 0.68575 0.63129 0.0965 0.0
C447 C 0.73656 0.56321 0.87736 0.0
O448 O 0.76104 0.56891 0.87761 0.0
N449 N 0.74 0.62406 0.0371 0.0
C450 C 0.78275 0.65801 0.04084 0.0
C451 C 0.75816 0.66634 0.06172 0.0
C452 C 0.73744 0.64943 0.05896 0.0
C453 C 0.76431 0.61544 1.01888 0.0
C454 C 0.78583 0.63194 1.02085 0.0
H455 H 0.71904 0.65798 0.06759 0.0
H456 H 0.76744 0.59625 0.99754 0.0
H457 H 0.67617 0.65687 0.94119 0.0
H458 H 0.7392 0.65716 0.77172 0.0
H459 H 0.69247 0.54453 0.25184 0.0
H460 H 0.7547 0.68632 0.07644 0.0
H461 H 0.80456 0.62459 1.00361 0.0
C462 C 0.3978 0.71683 0.86189 0.0
C463 C 0.37663 0.72051 0.81284 0.0
N464 N 0.36072 0.701 0.82791 0.0
N465 N 0.3952 0.69551 0.91106 0.0
C466 C 0.37222 0.68601 0.88784 0.0
H467 H 0.41257 0.73106 0.86922 0.0
Co468 Co 0.41579 0.69341 1.0087 0.0
C469 C 0.36939 0.66184 0.12077 0.0
O470 O 0.34846 0.65974 0.07464 0.0
N471 N 0.43535 0.69317 0.10415 0.0
C472 C 0.44694 0.69977 0.23909 0.0
C473 C 0.42659 0.69781 0.18466 0.0
C474 C 0.46082 0.69166 0.11116 0.0
N475 N 0.46833 0.69649 0.19199 0.0
O476 O 0.44747 0.70635 0.92844 0.0
H477 H 0.40689 0.70182 0.20154 0.0
H478 H 0.4737 0.68951 0.0573 0.0
O479 O 0.38903 0.67354 0.08676 0.0
C480 C 0.46768 0.72052 0.91297 0.0
O481 O 0.47388 0.73786 0.97034 0.0
N482 N 0.40065 0.72705 0.04067 0.0
C483 C 0.37011 0.77206 0.05085 0.0
C484 C 0.3597 0.74797 0.06505 0.0
C485 C 0.37493 0.72615 0.05904 0.0
C486 C 0.41175 0.75071 0.03239 0.0
C487 C 0.39681 0.77347 0.03666 0.0
H488 H 0.3648 0.7085 0.06164 0.0
H489 H 0.43179 0.75221 1.01731 0.0
H490 H 0.36306 0.67 0.91934 0.0
H491 H 0.37242 0.73711 0.77344 0.0
H492 H 0.44633 0.70639 0.3052 0.0
H493 H 0.33931 0.74583 0.07644 0.0
H494 H 0.40585 0.79184 0.02619 0.0
C495 C 0.33755 0.4066 0.89927 0.0
C496 C 0.35413 0.38745 0.87579 0.0
N497 N 0.36095 0.37478 0.94769 0.0
N498 N 0.33434 0.40583 0.98537 0.0
C499 C 0.34904 0.38642 1.01306 0.0
H500 H 0.32628 0.41808 0.85558 0.0
Co501 Co 0.30854 0.42039 0.04574 0.0
C502 C 0.32459 0.40565 0.23933 0.0
O503 O 0.30021 0.40317 0.259 0.0
N504 N 0.28157 0.43519 0.10445 0.0
C505 C 0.24275 0.44876 0.14382 0.0
C506 C 0.25615 0.43364 0.0873 0.0
C507 C 0.28322 0.45191 0.16954 0.0
N508 N 0.25998 0.46021 0.19439 0.0
O509 O 0.3235 0.45594 1.01803 0.0
H510 H 0.24755 0.42331 0.03486 0.0
H511 H 0.30113 0.45852 0.19658 0.0
O512 O 0.32984 0.41356 0.16137 0.0
C513 C 0.31388 0.46596 0.94818 0.0
O514 O 0.29532 0.45339 0.9102 0.0
N515 N 0.29184 0.38776 0.05225 0.0
C516 C 0.25756 0.34647 0.03903 0.0
C517 C 0.27711 0.34648 0.10142 0.0
C518 C 0.29406 0.36737 0.10723 0.0
C519 C 0.27524 0.38618 0.98466 0.0
C520 C 0.25732 0.36644 0.97879 0.0
H521 H 0.30889 0.36666 0.15509 0.0
H522 H 0.27479 0.40146 0.93756 0.0
H523 H 0.34784 0.3782 0.07681 0.0
H524 H 0.35815 0.38119 0.81061 0.0
H525 H 0.22229 0.45215 0.14504 0.0
H526 H 0.27873 0.33085 0.147 0.0
H527 H 0.24307 0.36704 0.92821 0.0
C528 C 0.20819 0.29835 0.95424 0.0
C529 C 0.19473 0.29145 0.03063 0.0
C530 C 0.22124 0.32205 0.11152 0.0
C531 C 0.2368 0.32642 0.03759 0.0
N532 N 0.24829 0.31313 0.89343 0.0
N533 N 0.1939 0.29213 0.18652 0.0
C534 C 0.23127 0.31283 0.9604 0.0
C535 C 0.20293 0.30189 0.11067 0.0
N536 N 0.19839 0.29234 0.87528 0.0
N537 N 0.22271 0.33794 0.18119 0.0
H538 H 0.18122 0.2768 0.18925 0.0
H539 H 0.2012 0.29744 0.24636 0.0
H540 H 0.23455 0.35396 0.18315 0.0
H541 H 0.20999 0.33687 0.23299 0.0
H542 H 0.20629 0.29905 0.81778 0.0
H543 H 0.18084 0.28317 0.86739 0.0
H544 H 0.24625 0.30165 0.83899 0.0
H545 H 0.26576 0.32272 0.89639 0.0
C546 C 0.70982 0.22344 0.08784 0.0
C547 C 0.68957 0.22278 0.02691 0.0
C548 C 0.70798 0.18354 0.96404 0.0
C549 C 0.72915 0.18538 1.02084 0.0
N550 N 0.75313 0.21036 0.12281 0.0
N551 N 0.67251 0.20539 0.8949 0.0
C552 C 0.73092 0.20634 0.07859 0.0
C553 C 0.68949 0.20367 0.96159 0.0
N554 N 0.70847 0.23973 0.15656 0.0
N555 N 0.70532 0.16237 0.91324 0.0
H556 H 0.65917 0.22018 0.88932 0.0
H557 H 0.67322 0.19361 0.84088 0.0
H558 H 0.71886 0.14767 0.91141 0.0
H559 H 0.68887 0.15851 0.87777 0.0
H560 H 0.72132 0.23917 0.20779 0.0
H561 H 0.69316 0.25223 0.16652 0.0
H562 H 0.75663 0.22676 0.15896 0.0
H563 H 0.76902 0.19842 0.11643 0.0
C564 C 0.81503 0.68488 0.95605 0.0
C565 C 0.80438 0.67726 0.03669 0.0
C566 C 0.82851 0.71206 0.10723 0.0
C567 C 0.84109 0.71801 0.02821 0.0
N568 N 0.84957 0.70651 0.88034 0.0
N569 N 0.8048 0.68079 0.19145 0.0
C570 C 0.83524 0.70339 0.95342 0.0
C571 C 0.81229 0.69006 0.11295 0.0
N572 N 0.80511 0.67531 0.88133 0.0
N573 N 0.83121 0.72805 0.17624 0.0
H574 H 0.7933 0.6646 0.19819 0.0
H575 H 0.81198 0.68759 0.24965 0.0
H576 H 0.8423 0.74463 0.17404 0.0
H577 H 0.8205 0.72631 0.23268 0.0
H578 H 0.81002 0.68228 0.82057 0.0
H579 H 0.7903 0.66194 0.88004 0.0
H580 H 0.84812 0.69453 0.82698 0.0
H581 H 0.86456 0.71963 0.87575 0.0
C582 C 0.33757 0.80065 0.12433 0.0
C583 C 0.35197 0.79471 0.04904 0.0
C584 C 0.32617 0.82656 0.96888 0.0
C585 C 0.30967 0.82987 0.04137 0.0
N586 N 0.29728 0.81579 0.18362 0.0
N587 N 0.3569 0.79928 0.8951 0.0
C588 C 0.3148 0.81577 0.118 0.0
C589 C 0.3455 0.80701 0.97005 0.0
N590 N 0.34587 0.79202 0.20258 0.0
N591 N 0.32406 0.84263 0.89977 0.0
H592 H 0.37109 0.78523 0.89283 0.0
H593 H 0.35084 0.80535 0.83451 0.0
H594 H 0.31056 0.85731 0.89669 0.0
H595 H 0.33723 0.8429 0.84918 0.0
H596 H 0.33769 0.79768 0.26086 0.0
H597 H 0.36262 0.78128 0.2096 0.0
H598 H 0.29868 0.80389 0.23733 0.0
H599 H 0.27993 0.82567 0.1803 0.0
C600 C 0.19453 0.70392 0.43423 0.0
C601 C 0.19053 0.7165 0.51444 0.0
C602 C 0.21647 0.68363 0.58726 0.0
C603 C 0.21947 0.6703 0.50787 0.0
N604 N 0.20836 0.6655 0.35847 0.0
N605 N 0.19458 0.71674 0.66903 0.0
C606 C 0.20766 0.67988 0.43201 0.0
C607 C 0.20057 0.70582 0.59143 0.0
N608 N 0.18597 0.71511 0.35997 0.0
N609 N 0.2298 0.67577 0.65817 0.0
H610 H 0.18432 0.73381 0.67457 0.0
H611 H 0.19832 0.70813 0.72823 0.0
H612 H 0.24105 0.65932 0.65908 0.0
H613 H 0.23125 0.68653 0.71427 0.0
H614 H 0.19064 0.70861 0.29853 0.0
H615 H 0.17542 0.73207 0.35928 0.0
H616 H 0.19813 0.66989 0.30294 0.0
H617 H 0.21763 0.64782 0.35516 0.0
C618 C 0.32563 0.20516 0.63499 0.0
C619 C 0.33094 0.21455 0.55059 0.0
C620 C 0.30142 0.18236 0.49053 0.0
C621 C 0.29456 0.17436 0.5753 0.0
N622 N 0.29778 0.18015 0.72873 0.0
N623 N 0.32113 0.21467 0.39909 0.0
C624 C 0.306 0.18639 0.64767 0.0
C625 C 0.3181 0.20379 0.47864 0.0
N626 N 0.34003 0.21353 0.70284 0.0
N627 N 0.29231 0.16915 0.42107 0.0
H628 H 0.33324 0.23019 0.38785 0.0
H629 H 0.31018 0.20978 0.34564 0.0
H630 H 0.27966 0.15384 0.42678 0.0
H631 H 0.29869 0.17205 0.35819 0.0
H632 H 0.33914 0.20558 0.7643 0.0
H633 H 0.35447 0.22718 0.69635 0.0
H634 H 0.30302 0.19018 0.78383 0.0
H635 H 0.28423 0.1659 0.74046 0.0
C636 C 0.80183 0.3442 0.48305 0.0
C637 C 0.78554 0.3477 0.55601 0.0
C638 C 0.81006 0.31397 0.6324 0.0
C639 C 0.82481 0.30909 0.5568 0.0
N640 N 0.83117 0.31648 0.40494 0.0
N641 N 0.77176 0.33299 0.69578 0.0
C642 C 0.81965 0.32337 0.48072 0.0
C643 C 0.78906 0.33178 0.62963 0.0
N644 N 0.80104 0.36144 0.4168 0.0
N645 N 0.81657 0.3021 0.70773 0.0
H646 H 0.75629 0.34564 0.69599 0.0
H647 H 0.77149 0.32011 0.74701 0.0
H648 H 0.83148 0.28884 0.71188 0.0
H649 H 0.80856 0.30678 0.7672 0.0
H650 H 0.81432 0.3617 0.36659 0.0
H651 H 0.78859 0.37703 0.41592 0.0
H652 H 0.82604 0.3241 0.34537 0.0
H653 H 0.84424 0.30142 0.40023 0.0
C654 C 0.72293 0.83105 0.61412 0.0
C655 C 0.72927 0.84819 0.54635 0.0
C656 C 0.69218 0.83319 0.46289 0.0
C657 C 0.68527 0.81677 0.53203 0.0
N658 N 0.69148 0.80252 0.67844 0.0
N659 N 0.71819 0.86871 0.41228 0.0
C660 C 0.69987 0.8165 0.60931 0.0
C661 C 0.71333 0.85018 0.47248 0.0
N662 N 0.73945 0.82806 0.68167 0.0
N663 N 0.67888 0.832 0.38717 0.0
H664 H 0.73372 0.8812 0.41633 0.0
H665 H 0.7059 0.87308 0.36166 0.0
H666 H 0.66271 0.82055 0.37911 0.0
H667 H 0.68465 0.8411 0.33068 0.0
H668 H 0.73764 0.81384 0.72826 0.0
H669 H 0.75613 0.83885 0.68829 0.0
H670 H 0.69963 0.80346 0.73947 0.0
H671 H 0.67505 0.79119 0.67676 0.0
C672 C 1.01149 0.20548 0.37791 0.0
C673 C 0.98634 0.21154 0.34794 0.0
C674 C 1.00451 0.2086 0.1965 0.0
C675 C 0.03022 0.20633 0.22683 0.0
N676 N 0.05749 0.20031 0.34918 0.0
N677 N 0.9592 0.21795 0.2251 0.0
C678 C 0.03326 0.20381 0.31854 0.0
C679 C 0.98306 0.21247 0.25597 0.0
N680 N 0.01454 0.20132 0.46414 0.0
N681 N 1.00056 0.20673 0.10987 0.0
H682 H 0.94317 0.21889 0.26526 0.0
H683 H 0.9553 0.22225 0.16098 0.0
H684 H 0.01557 0.20289 0.06724 0.0
H685 H 0.98259 0.20637 0.08112 0.0
H686 H 0.03151 0.19525 0.49258 0.0
H687 H 0.99914 0.20215 0.50707 0.0
H688 H 0.06253 0.2013 0.41387 0.0
H689 H 0.07287 0.19647 0.30811 0.0
C690 C 0.83809 0.0177 0.38197 0.0
C691 C 0.83773 0.9916 0.35418 0.0
C692 C 0.83483 1.00842 0.20225 0.0
C693 C 0.83467 0.03453 0.23011 0.0
N694 N 0.84249 0.06325 0.34728 0.0
N695 N 0.84241 0.96315 0.23438 0.0
C696 C 0.83844 0.03875 0.32033 0.0
C697 C 0.83836 0.98745 0.26314 0.0
N698 N 0.83713 0.02245 0.46841 0.0
N699 N 0.83012 1.00343 0.11748 0.0
H700 H 0.84484 0.9478 0.27665 0.0
H701 H 0.84624 0.95886 0.17016 0.0
H702 H 0.8285 0.01797 0.07177 0.0
H703 H 0.82659 0.98518 0.09349 0.0
H704 H 0.83401 0.0405 0.49473 0.0
H705 H 0.83854 1.00785 0.51409 0.0
H706 H 0.84746 0.06813 0.41007 0.0
H707 H 0.84338 0.07853 0.30399 0.0
C708 C 0.0214 0.82618 0.33707 0.0
C709 C 0.04476 0.813 0.31764 0.0
C710 C 0.02576 0.80392 0.17085 0.0
C711 C 1.00127 0.81339 0.19492 0.0
N712 N 0.97606 0.83394 0.3043 0.0
N713 N 0.06699 0.7867 0.21269 0.0
C714 C 0.9994 0.82488 0.27886 0.0
C715 C 0.04622 0.80136 0.2333 0.0
N716 N 0.01995 0.83959 0.41231 0.0
N717 N 0.02965 0.79728 0.08682 0.0
H718 H 0.08276 0.7848 0.25249 0.0
H719 H 0.06786 0.77488 0.15876 0.0
H720 H 0.01529 0.79913 0.04083 0.0
H721 H 0.04756 0.79289 0.06099 0.0
H722 H 1.00473 0.85154 0.42854 0.0
H723 H 0.03506 0.8402 0.4561 0.0
H724 H 0.97175 0.8396 0.36697 0.0
H725 H 0.9606 0.83501 0.26197 0.0
C726 C 0.21037 0.03266 0.2469 0.0
C727 C 0.20256 0.02822 0.33433 0.0
C728 C 0.1961 0.98232 0.29286 0.0
C729 C 0.20769 0.98597 0.20988 0.0
N730 N 0.22599 0.0156 0.1091 0.0
N731 N 0.18867 0.9977 0.43986 0.0
C732 C 0.2144 1.01157 0.18691 0.0
C733 C 0.19524 1.00274 0.35632 0.0
N734 N 0.21404 0.05739 0.22128 0.0
N735 N 0.1856 0.95899 0.31087 0.0
H736 H 0.1867 0.01215 0.48581 0.0
H737 H 0.18638 0.97932 0.46456 0.0
H738 H 0.18558 0.94409 0.26608 0.0
H739 H 0.17486 0.95515 0.36599 0.0
H740 H 0.21773 0.06283 0.15792 0.0
H741 H 0.21104 0.07278 0.26295 0.0
H742 H 0.23424 0.03288 0.09078 0.0
H743 H 0.22827 1.00102 0.0638 0.0
C744 C 0.04201 0.75543 0.75117 0.0
C745 C 0.04487 0.78089 0.72223 0.0
C746 C 1.00156 0.79109 0.76534 0.0
C747 C 1.00026 0.76714 0.80791 0.0
N748 N 0.01949 0.72697 0.84808 0.0
N749 N 0.02917 0.82397 0.70791 0.0
C750 C 0.0204 0.74916 0.8017 0.0
C751 C 0.02502 0.79898 0.72988 0.0
N752 N 0.05988 0.73744 0.72941 0.0
N753 N 0.98032 0.8062 0.75954 0.0
H754 H 0.04659 0.83051 0.68341 0.0
H755 H 0.01614 0.8386 0.72078 0.0
H756 H 0.96286 0.80083 0.78619 0.0
H757 H 0.97942 0.82275 0.72214 0.0
H758 H 0.05773 0.71801 0.74254 0.0
H759 H 0.07578 0.74173 0.69108 0.0
H760 H 0.03488 0.71435 0.85294 0.0
H761 H 1.00393 0.72205 0.88693 0.0
C762 C 0.26299 1.01019 0.87326 0.0
C763 C 0.26617 0.98619 0.83309 0.0
C764 C 0.24577 1.00148 0.7027 0.0
C765 C 0.23809 0.02345 0.74938 0.0
N766 N 0.24017 0.05068 0.87356 0.0
N767 N 0.26385 0.95875 0.71031 0.0
C768 C 0.24742 0.02867 0.83266 0.0
C769 C 0.25919 0.98207 0.74671 0.0
N770 N 0.27393 0.01447 0.95172 0.0
N771 N 0.23997 0.99937 0.61716 0.0
H772 H 0.27439 0.94467 0.74241 0.0
H773 H 0.25689 0.95308 0.65053 0.0
H774 H 0.2298 0.01338 0.58374 0.0
H775 H 0.24656 0.98463 0.57782 0.0
H776 H 0.27362 0.03201 0.98331 0.0
H777 H 0.28514 1.00072 0.98247 0.0
H778 H 0.24451 0.05492 0.93734 0.0
H779 H 0.22865 0.06447 0.84406 0.0
C780 C 0.99611 0.22069 0.78655 0.0
C781 C 0.98364 0.24316 0.75939 0.0
C782 C 0.01671 0.26985 0.82116 0.0
C783 C 0.02991 0.24735 0.84366 0.0
N784 N 0.03624 0.20175 0.82909 0.0
N785 N 0.98384 0.28852 0.73157 0.0
C786 C 0.02083 0.22277 0.821 0.0
C787 C 0.99444 0.26768 0.77103 0.0
N788 N 0.98398 0.19761 0.78137 0.0
N789 N 0.02534 0.29303 0.84922 0.0
H790 H 0.96789 0.28719 0.69143 0.0
H791 H 0.99219 0.3066 0.73196 0.0
H792 H 0.04194 0.29491 0.88606 0.0
H793 H 0.01513 0.31001 0.84155 0.0
H794 H 0.99122 0.18089 0.80868 0.0
H795 H 0.96564 0.19561 0.75575 0.0
H796 H 0.03125 0.18372 0.80609 0.0
H797 H 0.05509 0.20275 0.85076 0.0
C798 C 0.78756 1.00325 0.85913 0.0
C799 C 0.80383 0.02469 0.85314 0.0
C800 C 0.83591 0.99971 0.77698 0.0
C801 C 0.81817 0.97959 0.77333 0.0
N802 N 0.77501 0.96379 0.79191 0.0
N803 N 0.84195 0.04492 0.79667 0.0
C804 C 0.79332 0.9817 0.80899 0.0
C805 C 0.82769 0.02341 0.80948 0.0
N806 N 0.76741 1.00303 0.91548 0.0
N807 N 0.86057 0.99589 0.7502 0.0
H808 H 0.8363 0.06275 0.81944 0.0
H809 H 0.85819 0.04551 0.75764 0.0
H810 H 0.86692 0.97834 0.7259 0.0
H811 H 0.87512 1.00924 0.75885 0.0
H812 H 0.75637 0.9868 0.92715 0.0
H813 H 0.76358 0.01811 0.95769 0.0
H814 H 0.75593 0.96594 0.81038 0.0
H815 H 0.77823 0.94813 0.75166 0.0
C816 C 0.50076 0.72363 0.68448 0.0
C817 C 0.52729 0.71976 0.70371 0.0
C818 C 0.5141 0.71172 0.85671 0.0
C819 C 0.4874 0.71591 0.83805 0.0
N820 N 0.45583 0.71909 0.72613 0.0
N821 N 0.55785 0.70389 0.80553 0.0
C822 C 0.48097 0.71962 0.74929 0.0
C823 C 0.53338 0.71172 0.78898 0.0
N824 N 0.4944 0.7319 0.60377 0.0
N825 N 0.52137 0.70828 0.94042 0.0
H826 H 0.572 0.70352 0.758 0.0
H827 H 0.56353 0.69539 0.86309 0.0
H828 H 0.50834 0.70589 0.99058 0.0
H829 H 0.54031 0.70893 0.96108 0.0
H830 H 0.47624 0.73849 0.58717 0.0
H831 H 0.50784 0.73325 0.55398 0.0
H832 H 0.44953 0.71936 0.66255 0.0
H833 H 0.44139 0.71552 0.77059 0.0
C834 C 0.31103 0.51466 0.92471 0.0
C835 C 0.32251 0.49078 0.90325 0.0
C836 C 0.3333 0.50897 0.75833 0.0
C837 C 0.32096 0.53254 0.77857 0.0
N838 N 0.305 0.55991 0.89056 0.0
N839 N 0.35142 0.46858 0.80919 0.0
C840 C 0.31215 0.53596 0.86514 0.0
C841 C 0.33588 0.48917 0.823 0.0
N842 N 0.29799 0.51667 1.00078 0.0
N843 N 0.34147 0.50495 0.67584 0.0
H844 H 0.35457 0.45496 0.8572 0.0
H845 H 0.36326 0.46661 0.75548 0.0
H846 H 0.34083 0.51926 0.62899 0.0
H847 H 0.3477 0.48726 0.65305 0.0
H848 H 0.28651 0.53225 1.01693 0.0
H849 H 0.29789 0.50198 0.04647 0.0
H850 H 0.30015 0.56462 0.95371 0.0
H851 H 0.30673 0.57564 0.8496 0.0
C852 C 0.53548 0.30294 0.73602 0.0
C853 C 0.5327 0.31207 0.82263 0.0
C854 C 0.48704 0.32298 0.78518 0.0
C855 C 0.48933 0.31122 0.70233 0.0
N856 N 0.51779 0.29643 0.59184 0.0
N857 N 0.5054 0.33188 0.92769 0.0
C858 C 0.51427 0.30323 0.67609 0.0
C859 C 0.50843 0.32294 0.84573 0.0
N860 N 0.55846 0.29262 0.71208 0.0
N861 N 0.46435 0.33448 0.80549 0.0
H862 H 0.52072 0.33313 0.97042 0.0
H863 H 0.48796 0.33754 0.95409 0.0
H864 H 0.44883 0.33449 0.76326 0.0
H865 H 0.46146 0.3457 0.85995 0.0
H866 H 0.56136 0.28193 0.65638 0.0
H867 H 0.57475 0.29412 0.7503 0.0
H868 H 0.53556 0.29278 0.56387 0.0
H869 H 0.5029 0.29669 0.5472 0.0
C870 C 0.74388 0.51843 0.80948 0.0
C871 C 0.72838 0.54111 0.81574 0.0
C872 C 0.70319 0.52339 0.69273 0.0
C873 C 0.7216 0.50345 0.67601 0.0
N874 N 0.76173 0.48463 0.7189 0.0
N875 N 0.6946 0.56586 0.75037 0.0
C876 C 0.74241 0.50158 0.73521 0.0
C877 C 0.70828 0.54361 0.75417 0.0
N878 N 0.75973 0.51242 0.87639 0.0
N879 N 0.68 0.52263 0.65226 0.0
H880 H 0.69742 0.58102 0.79268 0.0
H881 H 0.68199 0.57009 0.70036 0.0
H882 H 0.67465 0.50782 0.61126 0.0
H883 H 0.66495 0.53494 0.66767 0.0
H884 H 0.76965 0.49515 0.8805 0.0
H885 H 0.76059 0.52339 0.93247 0.0
H886 H 0.77877 0.48429 0.7537 0.0
H887 H 0.76172 0.47246 0.66582 0.0
C888 C 0.5189 0.32455 0.25399 0.0
C889 C 0.53004 0.3008 0.23212 0.0
C890 C 0.49277 0.27783 0.28412 0.0
C891 C 0.48065 0.30161 0.29945 0.0
N892 N 0.4801 0.3475 0.29235 0.0
N893 N 0.52613 0.25552 0.20678 0.0
C894 C 0.49313 0.32503 0.28229 0.0
C895 C 0.51654 0.27759 0.24135 0.0
N896 N 0.53329 0.34631 0.24953 0.0
N897 N 0.48216 0.25567 0.31429 0.0
H898 H 0.54342 0.25483 0.17301 0.0
H899 H 0.5158 0.2385 0.20428 0.0
H900 H 0.46505 0.25515 0.34903 0.0
H901 H 0.49158 0.23809 0.31236 0.0
H902 H 0.52707 0.36406 0.27169 0.0
H903 H 0.55232 0.34619 0.22865 0.0
H904 H 0.4873 0.36525 0.27396 0.0
H905 H 0.46119 0.34807 0.31409 0.0
C906 C 0.74301 0.50937 0.15496 0.0
C907 C 0.74363 0.53259 0.20177 0.0
C908 C 0.77265 0.51431 0.30706 0.0
C909 C 0.76775 0.49024 0.27019 0.0
N910 N 0.75684 0.46489 0.14818 0.0
N911 N 0.76392 0.56001 0.30498 0.0
C912 C 0.75647 0.48808 0.18835 0.0
C913 C 0.76052 0.53609 0.27162 0.0
N914 N 0.72841 0.50759 0.08227 0.0
N915 N 0.78656 0.51534 0.38126 0.0
H916 H 0.7546 0.57603 0.27981 0.0
H917 H 0.77671 0.56425 0.3542 0.0
H918 H 0.79532 0.49897 0.40638 0.0
H919 H 0.78939 0.53184 0.41741 0.0
H920 H 0.72598 0.49088 0.04694 0.0
H921 H 0.71826 0.5231 0.05732 0.0
H922 H 0.7492 0.4614 0.08749 0.0
H923 H 0.76646 0.44929 0.17508 0.0
C924 C 0.51285 0.74545 0.27064 0.0
C925 C 0.53401 0.73 0.29367 0.0
C926 C 0.51262 0.69199 0.23826 0.0
C927 C 0.49212 0.70776 0.21352 0.0
N928 N 0.47551 0.7497 0.18092 0.0
N929 N 0.55638 0.68949 0.28738 0.0
C930 C 0.49338 0.73465 0.22046 0.0
C931 C 0.53472 0.7035 0.2731 0.0
N932 N 0.51008 0.76955 0.30359 0.0
N933 N 0.51026 0.66604 0.23202 0.0
H934 H 0.57257 0.69705 0.31658 0.0
H935 H 0.55892 0.67083 0.26551 0.0
H936 H 0.49424 0.65741 0.20437 0.0
H937 H 0.52336 0.65313 0.25794 0.0
H938 H 0.49361 0.78054 0.29505 0.0
H939 H 0.52272 0.77748 0.3479 0.0
H940 H 0.47698 0.76956 0.17751 0.0
H941 H 0.46064 0.74219 0.14421 0.0
C942 C 0.26514 0.52426 0.28534 0.0
C943 C 0.27136 0.5171 0.3705 0.0
C944 C 0.25886 0.47313 0.34424 0.0
C945 C 0.25573 0.47964 0.2567 0.0
N946 N 0.24827 0.5111 0.14681 0.0
N947 N 0.26837 0.48787 0.48913 0.0
C948 C 0.25584 0.50533 0.2287 0.0
C949 C 0.26584 0.49251 0.40296 0.0
N950 N 0.27023 0.54855 0.2576 0.0
N951 N 0.25696 0.44809 0.36849 0.0
H952 H 0.27377 0.50219 0.53226 0.0
H953 H 0.26361 0.47062 0.5186 0.0
H954 H 0.25123 0.43391 0.32528 0.0
H955 H 0.2614 0.44127 0.42967 0.0
H956 H 0.26883 0.55445 0.19372 0.0
H957 H 0.2769 0.56279 0.29883 0.0
H958 H 0.24625 0.52967 0.12356 0.0
H959 H 0.24205 0.49715 0.10377 0.0
C960 C 0.21455 0.18644 0.32037 0.0
C961 C 0.21716 0.1627 0.27756 0.0
C962 C 0.19833 0.1809 0.15024 0.0
C963 C 0.18661 0.19914 0.2042 0.0
N964 N 0.19677 0.22947 0.31437 0.0
N965 N 0.21463 0.13791 0.14605 0.0
C966 C 0.19939 0.20554 0.28099 0.0
C967 C 0.21086 0.16028 0.18954 0.0
N968 N 0.22513 0.18963 0.3998 0.0
N969 N 0.19805 0.18382 0.06327 0.0
H970 H 0.22334 0.12194 0.17348 0.0
H971 H 0.20763 0.13491 0.08399 0.0
H972 H 0.1908 0.20043 0.03572 0.0
H973 H 0.20773 0.17156 1.02129 0.0
H974 H 0.2222 0.20565 0.43836 0.0
H975 H 0.23703 0.17571 0.4265 0.0
H976 H 0.20629 0.23589 0.36905 0.0
H977 H 0.18607 0.24334 0.28214 0.0
C978 C 0.81233 0.20531 0.25327 0.0
C979 C 0.81984 0.19154 0.17942 0.0
C980 C 0.8564 0.21841 0.15683 0.0
C981 C 0.85369 0.22599 0.24367 0.0
N982 N 0.82505 0.23748 0.35815 0.0
N983 N 0.83336 0.20137 0.03492 0.0
C984 C 0.8298 0.22348 0.28595 0.0
C985 C 0.8365 0.2039 0.12138 0.0
N986 N 0.78954 0.19995 0.29219 0.0
N987 N 0.87835 0.22288 0.11159 0.0
H988 H 0.81754 0.19171 1.01031 0.0
H989 H 0.84467 0.21104 0.98998 0.0
H990 H 0.89364 0.23325 0.13656 0.0
H991 H 0.88162 0.21517 0.05056 0.0
H992 H 0.78305 0.20876 0.34824 0.0
H993 H 0.77691 0.18671 0.26529 0.0
H994 H 0.80832 0.23625 0.39449 0.0
H995 H 0.83794 0.25154 0.37791 0.0
C996 C 0.81518 0.85416 0.19966 0.0
C997 C 0.81573 0.88083 0.18839 0.0
C998 C 0.85552 0.87893 0.11016 0.0
C999 C 0.85778 0.85331 0.13835 0.0
N1000 N 0.83693 0.81375 0.17479 0.0
N1001 N 0.82745 0.91593 0.09895 0.0
C1002 C 0.83631 0.83981 0.17011 0.0
C1003 C 0.83255 0.89199 0.12888 0.0
N1004 N 0.79617 0.84361 0.24846 0.0
N1005 N 0.87593 0.89121 0.07393 0.0
H1006 H 0.81075 0.92555 0.11743 0.0
H1007 H 0.83839 0.92499 0.0517 0.0
H1008 H 0.89335 0.88207 0.06217 0.0
H1009 H 0.87596 0.91066 0.05935 0.0
H1010 H 0.79595 0.82456 0.26818 0.0
H1011 H 0.78079 0.85464 0.27047 0.0
H1012 H 0.82135 0.80269 0.19401 0.0
H1013 H 0.85258 0.80323 0.15221 0.0
C1014 C 0.12603 0.87713 0.17208 0.0
C1015 C 0.15039 0.86965 0.14101 0.0
C1016 C 0.1325 0.82925 0.09634 0.0
C1017 C 0.11488 0.83264 0.16311 0.0
N1018 N 0.08243 0.86281 0.20187 0.0
N1019 N 0.17643 0.8391 0.0615 0.0
C1020 C 0.10685 0.85806 0.17603 0.0
C1021 C 0.15346 0.84609 0.09632 0.0
N1022 N 0.12226 0.90124 0.20293 0.0
N1023 N 0.13096 0.80848 0.04408 0.0
H1024 H 0.19233 0.85113 0.0615 0.0
H1025 H 0.17967 0.82101 0.03535 0.0
H1026 H 0.11565 0.79571 0.04988 0.0
H1027 H 0.14354 0.80546 0.99273 0.0
H1028 H 0.10531 0.90719 0.23225 0.0
H1029 H 0.13662 0.91511 0.19976 0.0
H1030 H 0.07517 0.88111 0.21227 0.0
H1031 H 0.06928 0.8479 0.20698 0.0
C1032 C 0.90452 0.82727 0.68457 0.0
C1033 C 0.90676 0.83581 0.77278 0.0
C1034 C 0.88734 0.87721 0.71913 0.0
C1035 C 0.88014 0.86623 0.63836 0.0
N1036 N 0.88203 0.82937 0.54713 0.0
N1037 N 0.90077 0.87172 0.86881 0.0
C1038 C 0.88907 0.84096 0.62227 0.0
C1039 C 0.89859 0.86174 0.78809 0.0
N1040 N 0.91811 0.80638 0.65781 0.0
N1041 N 0.88391 0.9029 0.7292 0.0
H1042 H 0.91099 0.86279 0.91766 0.0
H1043 H 0.89189 0.88864 0.8879 0.0
H1044 H 0.87731 0.9143 0.67864 0.0
H1045 H 0.89024 0.91316 0.78249 0.0
H1046 H 0.91949 0.80087 0.59345 0.0
H1047 H 0.9306 0.79634 0.69734 0.0
H1048 H 0.88436 0.80986 0.53578 0.0
H1049 H 0.87257 0.8392 0.49791 0.0
C1050 C 0.17927 0.88046 0.63668 0.0
C1051 C 0.15821 0.86443 0.65945 0.0
C1052 C 0.16708 0.8763 0.81414 0.0
C1053 C 0.18835 0.89244 0.79175 0.0
N1054 N 0.20709 0.91623 0.67417 0.0
N1055 N 0.12787 0.85417 0.76984 0.0
C1056 C 0.19201 0.89639 0.70059 0.0
C1057 C 0.15083 0.86487 0.74823 0.0
N1058 N 0.1878 0.88002 0.55353 0.0
N1059 N 0.16301 0.87034 0.8983 0.0
H1060 H 0.11563 0.84682 0.72299 0.0
H1061 H 0.11972 0.85543 0.83103 0.0
H1062 H 0.1743 0.87757 0.94727 0.0
H1063 H 0.14984 0.85663 0.91841 0.0
H1064 H 0.20485 0.88859 0.53378 0.0
H1065 H 0.17828 0.86983 0.50544 0.0
H1066 H 0.20902 0.92164 0.60983 0.0
H1067 H 0.21502 0.92925 0.71746 0.0
C1068 C 0.15413 0.15875 0.71302 0.0
C1069 C 0.1556 0.13147 0.70786 0.0
C1070 C 0.12565 0.13061 0.83515 0.0
C1071 C 0.12859 0.15741 0.85213 0.0
N1072 N 0.14397 0.19744 0.79482 0.0
N1073 N 0.14187 0.09155 0.76897 0.0
C1074 C 0.14215 0.1716 0.78675 0.0
C1075 C 0.14088 0.11763 0.77017 0.0
N1076 N 0.16364 0.17249 0.64539 0.0
N1077 N 0.10704 0.1175 0.87867 0.0
H1078 H 0.15069 0.08148 0.71917 0.0
H1079 H 0.13495 0.08012 0.8189 0.0
H1080 H 0.09433 0.1265 0.92096 0.0
H1081 H 0.10205 0.09867 0.86474 0.0
H1082 H 0.162 0.19225 0.63938 0.0
H1083 H 0.17065 0.16349 0.59017 0.0
H1084 H 0.15651 0.20874 0.75906 0.0
H1085 H 0.13279 0.20759 0.83821 0.0
C1086 C 0.85347 0.13203 0.72611 0.0
C1087 C 0.85648 0.13397 0.81876 0.0
C1088 C 0.88757 0.16944 0.78495 0.0
C1089 C 0.8802 0.17057 0.6959 0.0
N1090 N 0.85336 0.15324 0.58566 0.0
N1091 N 0.87898 0.15602 0.9327 0.0
C1092 C 0.86251 0.15181 0.66783 0.0
C1093 C 0.87448 0.15295 0.84681 0.0
N1094 N 0.84306 0.11041 0.69186 0.0
N1095 N 0.90793 0.18394 0.81044 0.0
H1096 H 0.87342 0.14282 0.97904 0.0
H1097 H 0.88799 0.17206 0.9583 0.0
H1098 H 0.91809 0.19546 0.7674 0.0
H1099 H 0.9164 0.18254 0.87094 0.0
H1100 H 0.84245 0.10679 0.62586 0.0
H1101 H 0.8384 0.09458 0.72899 0.0
H1102 H 0.83794 0.14237 0.56402 0.0
H1103 H 0.86013 0.1666 0.54106 0.0
C1104 C 0.69859 0.69583 0.72467 0.0
C1105 C 0.69831 0.68964 0.81383 0.0
C1106 C 0.68182 0.73222 0.8464 0.0
C1107 C 0.67647 0.73436 0.75798 0.0
N1108 N 0.699 0.73123 0.62433 0.0
N1109 N 0.70153 0.70636 0.95836 0.0
C1110 C 0.69269 0.72104 0.70194 0.0
C1111 C 0.69368 0.70933 0.87539 0.0
N1112 N 0.70161 0.67769 0.6623 0.0
N1113 N 0.67595 0.75203 0.8998 0.0
H1114 H 0.71279 0.69087 0.97648 0.0
H1115 H 0.69881 0.71991 1.00658 0.0
H1116 H 0.67005 0.76962 0.87464 0.0
H1117 H 0.67769 0.75139 0.96655 0.0
H1118 H 0.70013 0.68201 0.59682 0.0
H1119 H 0.70245 0.65817 0.67549 0.0
H1120 H 0.71107 0.72196 0.58062 0.0
H1121 H 0.69408 0.75009 0.61037 0.0
C1122 C 0.29076 0.68728 0.82416 0.0
C1123 C 0.29008 0.67952 0.73772 0.0
C1124 C 0.32995 0.69984 0.70651 0.0
C1125 C 0.33502 0.69933 0.79661 0.0
N1126 N 0.31744 0.70338 0.93976 0.0
N1127 N 0.29648 0.69736 0.59798 0.0
C1128 C 0.3143 0.6968 0.8557 0.0
C1129 C 0.30488 0.69385 0.67997 0.0
N1130 N 0.2694 0.68478 0.87393 0.0
N1131 N 0.34904 0.70301 0.64727 0.0
H1132 H 0.27827 0.69112 0.58006 0.0
H1133 H 0.3065 0.70809 0.55235 0.0
H1134 H 0.36828 0.70466 0.6636 0.0
H1135 H 0.34592 0.70179 0.58118 0.0
H1136 H 0.26831 0.69013 0.9384 0.0
H1137 H 0.2522 0.67845 0.84726 0.0
H1138 H 0.30378 0.70047 0.98772 0.0
H1139 H 0.33383 0.71288 0.95969 0.0
C1140 C 0.3949 0.34296 0.96321 0.0
C1141 C 0.36885 0.34876 0.94946 0.0
C1142 C 0.3607 0.30616 0.89442 0.0
C1143 C 0.38737 0.30314 0.8888 0.0
N1144 N 0.42865 0.3111 0.94766 0.0
N1145 N 0.32541 0.33435 0.93003 0.0
C1146 C 0.40398 0.31884 0.93597 0.0
C1147 C 0.35107 0.32952 0.92623 0.0
N1148 N 0.41085 0.36123 0.99535 0.0
N1149 N 0.34528 0.28796 0.85889 0.0
H1150 H 0.31808 0.35196 0.94917 0.0
H1151 H 0.31138 0.32067 0.91878 0.0
H1152 H 0.35278 0.27075 0.83578 0.0
H1153 H 0.32553 0.28966 0.85214 0.0
H1154 H 0.4306 0.35897 1.0008 0.0
H1155 H 0.40401 0.37905 1.01542 0.0
H1156 H 0.44186 0.32096 0.98515 0.0
H1157 H 0.43504 0.29351 0.92385 0.0
C1158 C 0.62639 0.36812 0.61057 0.0
C1159 C 0.64808 0.38145 0.6406 0.0
C1160 C 0.66257 0.34436 0.7218 0.0
C1161 C 0.63972 0.332 0.69823 0.0
N1162 N 0.6031 0.32785 0.6075 0.0
N1163 N 0.68994 0.38126 0.70747 0.0
C1164 C 0.6228 0.34249 0.63712 0.0
C1165 C 0.66725 0.36921 0.6908 0.0
N1166 N 0.60935 0.38032 0.55787 0.0
N1167 N 0.67858 0.33276 0.77951 0.0
H1168 H 0.69363 0.40017 0.69052 0.0
H1169 H 0.70579 0.3722 0.73436 0.0
H1170 H 0.67578 0.31391 0.79974 0.0
H1171 H 0.69392 0.3418 0.80936 0.0
H1172 H 0.5925 0.37221 0.53521 0.0
H1173 H 0.61186 0.3993 0.53855 0.0
H1174 H 0.58973 0.33381 0.56214 0.0
H1175 H 0.60137 0.30866 0.62501 0.0
C1176 C 0.33682 0.39091 0.39377 0.0
C1177 C 0.3444 0.39432 0.30542 0.0
C1178 C 0.38256 0.36684 0.34033 0.0
C1179 C 0.3719 0.35953 0.42194 0.0
N1180 N 0.33791 0.36485 0.52441 0.0
N1181 N 0.38009 0.39195 0.20695 0.0
C1182 C 0.34894 0.37195 0.44822 0.0
C1183 C 0.36904 0.38419 0.28236 0.0
N1184 N 0.31894 0.40711 0.42791 0.0
N1185 N 0.40585 0.35678 0.31846 0.0
H1186 H 0.37331 0.40752 0.17203 0.0
H1187 H 0.39703 0.38469 0.18163 0.0
H1188 H 0.41647 0.34586 0.3619 0.0
H1189 H 0.41509 0.35939 0.25976 0.0
H1190 H 0.31392 0.40726 0.49293 0.0
H1191 H 0.31177 0.42275 0.39364 0.0
H1192 H 0.31952 0.37041 0.54284 0.0
H1193 H 0.34683 0.35221 0.56706 0.0
C1194 C 0.65222 0.3878 0.27448 0.0
C1195 C 0.67668 0.3962 0.24348 0.0
C1196 C 0.66691 0.37319 0.10479 0.0
C1197 C 0.64457 0.36174 0.1407 0.0
N1198 N 0.61597 0.35853 0.26192 0.0
N1199 N 0.69941 0.40648 0.11236 0.0
C1200 C 0.63721 0.36949 0.22585 0.0
C1201 C 0.68173 0.39156 0.15363 0.0
N1202 N 0.64207 0.39881 0.34662 0.0
N1203 N 0.67484 0.36553 0.02493 0.0
H1204 H 0.70818 0.42205 0.14208 0.0
H1205 H 0.7027 0.40588 0.04618 0.0
H1206 H 0.66387 0.35349 0.98619 0.0
H1207 H 0.69271 0.37002 0.99908 0.0
H1208 H 0.62374 0.39502 0.36982 0.0
H1209 H 0.65012 0.41474 0.37574 0.0
H1210 H 0.61142 0.35973 0.32717 0.0
H1211 H 0.60344 0.34706 0.22669 0.0
C1212 C 0.66299 0.64745 0.32122 0.0
C1213 C 0.66778 0.65306 0.23169 0.0
C1214 C 0.6365 0.68879 0.2497 0.0
C1215 C 0.63586 0.68658 0.34271 0.0
N1216 N 0.65355 0.66384 0.4647 0.0
N1217 N 0.66157 0.68405 0.11864 0.0
C1218 C 0.65045 0.66584 0.37769 0.0
C1219 C 0.65511 0.67504 0.19831 0.0
N1220 N 0.66935 0.62388 0.35263 0.0
N1221 N 0.61873 0.70349 0.20807 0.0
H1222 H 0.6756 0.67561 0.0805 0.0
H1223 H 0.65505 0.70156 0.09491 0.0
H1224 H 0.60389 0.71304 0.23907 0.0
H1225 H 0.61684 0.7036 0.14117 0.0
H1226 H 0.66439 0.61783 0.4145 0.0
H1227 H 0.67647 0.60928 0.31356 0.0
H1228 H 0.66632 0.65095 0.49272 0.0
H1229 H 0.64529 0.67643 0.50853 0.0
C1230 C 0.36524 0.61013 0.29951 0.0
C1231 C 0.35229 0.6232 0.36805 0.0
C1232 C 0.35709 0.66351 0.28262 0.0
C1233 C 0.36876 0.65017 0.21229 0.0
N1234 N 0.38946 0.6118 0.16418 0.0
N1235 N 0.34411 0.66377 0.43422 0.0
C1236 C 0.37472 0.62382 0.22471 0.0
C1237 C 0.35094 0.65039 0.36246 0.0
N1238 N 0.36758 0.58414 0.30474 0.0
N1239 N 0.35094 0.68871 0.27196 0.0
H1240 H 0.34126 0.65469 0.49326 0.0
H1241 H 0.34418 0.68365 0.43767 0.0
H1242 H 0.35621 0.699 0.2171 0.0
H1243 H 0.33965 0.69902 0.31513 0.0
H1244 H 0.37355 0.57258 0.25396 0.0
H1245 H 0.36267 0.57402 0.36043 0.0
H1246 H 0.39659 0.59331 0.17103 0.0
H1247 H 0.39644 0.6213 0.10977 0.0
loop_
_geom_bond_atom_site_label_1
_geom_bond_atom_site_label_2
_geom_bond_distance
_geom_bond_site_symmetry_2
_ccdc_geom_bond_type
C0 C1 1.351 . S
C0 N3 1.368 . S
C0 H5 0.931 . S
C1 C0 1.351 . S
C1 N2 1.373 . S
C1 H29 0.930 . S
N2 C1 1.373 . S
N2 C4 1.340 . S
N3 C0 1.368 . S
N3 C4 1.321 . S
N3 Co6 2.135 . S
C4 N2 1.340 . S
C4 N3 1.321 . S
C4 H28 0.930 . S
H5 C0 0.931 . S
Co6 N3 2.135 . S
Co6 N9 2.121 1_554 S
Co6 O14 2.055 . S
Co6 O17 2.039 1_554 S
Co6 N20 2.140 . S
C7 O8 1.227 . S
C7 O17 1.265 . S
O8 C7 1.227 . S
N9 Co6 2.121 1_556 S
N9 C11 1.375 . S
N9 C12 1.313 . S
C10 C11 1.338 . S
C10 N13 1.377 . S
C10 H30 0.930 . S
C11 N9 1.375 . S
C11 C10 1.338 . S
C11 H15 0.931 . S
C12 N9 1.313 . S
C12 N13 1.344 . S
C12 H16 0.930 . S
N13 C10 1.377 . S
N13 C12 1.344 . S
O14 Co6 2.055 . S
O14 C18 1.253 . S
H15 C11 0.931 . S
H16 C12 0.930 . S
O17 Co6 2.039 1_556 S
O17 C7 1.265 . S
C18 O14 1.253 . S
C18 O19 1.227 . S
O19 C18 1.227 . S
N20 Co6 2.140 . S
N20 C23 1.346 . S
N20 C24 1.345 1_554 S
C21 C22 1.386 1_556 S
C21 C25 1.392 . S
C22 C21 1.386 1_554 S
C22 C23 1.369 . S
C22 H31 0.929 . S
C23 N20 1.346 . S
C23 C22 1.369 . S
C23 H26 0.928 . S
C24 N20 1.345 1_556 S
C24 C25 1.371 . S
C24 H27 0.931 . S
C25 C21 1.392 . S
C25 C24 1.371 . S
C25 H32 0.930 . S
H26 C23 0.928 . S
H27 C24 0.931 . S
H28 C4 0.930 . S
H29 C1 0.930 . S
H30 C10 0.930 . S
H31 C22 0.929 . S
H32 C25 0.930 . S
C33 C34 1.351 . S
C33 N36 1.368 . S
C33 H38 0.931 . S
C34 C33 1.351 . S
C34 N35 1.373 . S
C34 H62 0.930 . S
N35 C34 1.373 . S
N35 C37 1.340 . S
N36 C33 1.368 . S
N36 C37 1.321 . S
N36 Co39 2.135 . S
C37 N35 1.340 . S
C37 N36 1.321 . S
C37 H61 0.930 . S
H38 C33 0.931 . S
Co39 N36 2.135 . S
Co39 N42 2.121 1_554 S
Co39 O47 2.055 . S
Co39 O50 2.039 1_554 S
Co39 N53 2.140 . S
C40 O41 1.227 . S
C40 O50 1.265 . S
O41 C40 1.227 . S
N42 Co39 2.121 1_556 S
N42 C44 1.375 . S
N42 C45 1.313 . S
C43 C44 1.338 . S
C43 N46 1.377 . S
C43 H63 0.930 . S
C44 N42 1.375 . S
C44 C43 1.338 . S
C44 H48 0.931 . S
C45 N42 1.313 . S
C45 N46 1.344 . S
C45 H49 0.930 . S
N46 C43 1.377 . S
N46 C45 1.344 . S
O47 Co39 2.055 . S
O47 C51 1.253 . S
H48 C44 0.931 . S
H49 C45 0.930 . S
O50 Co39 2.039 1_556 S
O50 C40 1.265 . S
C51 O47 1.253 . S
C51 O52 1.227 . S
O52 C51 1.227 . S
N53 Co39 2.140 . S
N53 C56 1.346 . S
N53 C57 1.345 1_554 S
C54 C55 1.386 1_556 S
C54 C58 1.392 . S
C55 C54 1.386 1_554 S
C55 C56 1.369 . S
C55 H64 0.929 . S
C56 N53 1.346 . S
C56 C55 1.369 . S
C56 H59 0.928 . S
C57 N53 1.345 1_556 S
C57 C58 1.371 . S
C57 H60 0.931 . S
C58 C54 1.392 . S
C58 C57 1.371 . S
C58 H65 0.930 . S
H59 C56 0.928 . S
H60 C57 0.931 . S
H61 C37 0.930 . S
H62 C34 0.930 . S
H63 C43 0.930 . S
H64 C55 0.929 . S
H65 C58 0.930 . S
C66 C67 1.351 . S
C66 N69 1.368 . S
C66 H71 0.931 . S
C67 C66 1.351 . S
C67 N68 1.373 . S
C67 H95 0.930 . S
N68 C67 1.373 . S
N68 C70 1.340 . S
N69 C66 1.368 . S
N69 C70 1.321 . S
N69 Co72 2.135 . S
C70 N68 1.340 . S
C70 N69 1.321 . S
C70 H94 0.930 . S
H71 C66 0.931 . S
Co72 N69 2.135 . S
Co72 N75 2.121 1_554 S
Co72 O80 2.055 . S
Co72 O83 2.039 1_554 S
Co72 N86 2.140 . S
C73 O74 1.227 . S
C73 O83 1.265 . S
O74 C73 1.227 . S
N75 Co72 2.121 1_556 S
N75 C77 1.375 . S
N75 C78 1.313 . S
C76 C77 1.338 . S
C76 N79 1.377 . S
C76 H96 0.930 . S
C77 N75 1.375 . S
C77 C76 1.338 . S
C77 H81 0.931 . S
C78 N75 1.313 . S
C78 N79 1.344 . S
C78 H82 0.930 . S
N79 C76 1.377 . S
N79 C78 1.344 . S
O80 Co72 2.055 . S
O80 C84 1.253 . S
H81 C77 0.931 . S
H82 C78 0.930 . S
O83 Co72 2.039 1_556 S
O83 C73 1.265 . S
C84 O80 1.253 . S
C84 O85 1.227 . S
O85 C84 1.227 . S
N86 Co72 2.140 . S
N86 C89 1.346 . S
N86 C90 1.345 1_554 S
C87 C88 1.386 1_556 S
C87 C91 1.392 . S
C88 C87 1.386 1_554 S
C88 C89 1.369 . S
C88 H97 0.929 . S
C89 N86 1.346 . S
C89 C88 1.369 . S
C89 H92 0.928 . S
C90 N86 1.345 1_556 S
C90 C91 1.371 . S
C90 H93 0.931 . S
C91 C87 1.392 . S
C91 C90 1.371 . S
C91 H98 0.930 . S
H92 C89 0.928 . S
H93 C90 0.931 . S
H94 C70 0.930 . S
H95 C67 0.930 . S
H96 C76 0.930 . S
H97 C88 0.929 . S
H98 C91 0.930 . S
C99 C100 1.351 . S
C99 N102 1.368 . S
C99 H104 0.931 . S
C100 C99 1.351 . S
C100 N101 1.373 . S
C100 H128 0.930 . S
N101 C100 1.373 . S
N101 C103 1.340 . S
N102 C99 1.368 . S
N102 C103 1.321 . S
N102 Co105 2.135 . S
C103 N101 1.340 . S
C103 N102 1.321 . S
C103 H127 0.930 . S
H104 C99 0.931 . S
Co105 N102 2.135 . S
Co105 N108 2.121 1_554 S
Co105 O113 2.055 . S
Co105 O116 2.039 1_554 S
Co105 N119 2.140 . S
C106 O107 1.227 . S
C106 O116 1.265 . S
O107 C106 1.227 . S
N108 Co105 2.121 1_556 S
N108 C110 1.375 . S
N108 C111 1.313 . S
C109 C110 1.338 . S
C109 N112 1.377 . S
C109 H129 0.930 . S
C110 N108 1.375 . S
C110 C109 1.338 . S
C110 H114 0.931 . S
C111 N108 1.313 . S
C111 N112 1.344 . S
C111 H115 0.930 . S
N112 C109 1.377 . S
N112 C111 1.344 . S
O113 Co105 2.055 . S
O113 C117 1.253 . S
H114 C110 0.931 . S
H115 C111 0.930 . S
O116 Co105 2.039 1_556 S
O116 C106 1.265 . S
C117 O113 1.253 . S
C117 O118 1.227 . S
O118 C117 1.227 . S
N119 Co105 2.140 . S
N119 C122 1.346 . S
N119 C123 1.345 1_554 S
C120 C121 1.386 1_556 S
C120 C124 1.392 . S
C121 C120 1.386 1_554 S
C121 C122 1.369 . S
C121 H130 0.929 . S
C122 N119 1.346 . S
C122 C121 1.369 . S
C122 H125 0.928 . S
C123 N119 1.345 1_556 S
C123 C124 1.371 . S
C123 H126 0.931 . S
C124 C120 1.392 . S
C124 C123 1.371 . S
C124 H131 0.930 . S
H125 C122 0.928 . S
H126 C123 0.931 . S
H127 C103 0.930 . S
H128 C100 0.930 . S
H129 C109 0.930 . S
H130 C121 0.929 . S
H131 C124 0.930 . S
C132 C133 1.351 . S
C132 N135 1.368 . S
C132 H137 0.931 . S
C133 C132 1.351 . S
C133 N134 1.373 . S
C133 H161 0.930 . S
N134 C133 1.373 . S
N134 C136 1.340 . S
N135 C132 1.368 . S
N135 C136 1.321 . S
N135 Co138 2.135 . S
C136 N134 1.340 . S
C136 N135 1.321 . S
C136 H160 0.930 . S
H137 C132 0.931 . S
Co138 N135 2.135 . S
Co138 N141 2.121 . S
Co138 O146 2.055 . S
Co138 O149 2.039 . S
Co138 N152 2.140 . S
C139 O140 1.227 . S
C139 O149 1.265 . S
O140 C139 1.227 . S
N141 Co138 2.121 . S
N141 C143 1.375 . S
N141 C144 1.313 . S
C142 C143 1.338 . S
C142 N145 1.377 . S
C142 H162 0.930 . S
C143 N141 1.375 . S
C143 C142 1.338 . S
C143 H147 0.931 . S
C144 N141 1.313 . S
C144 N145 1.344 . S
C144 H148 0.930 . S
N145 C142 1.377 . S
N145 C144 1.344 . S
O146 Co138 2.055 . S
O146 C150 1.253 . S
H147 C143 0.931 . S
H148 C144 0.930 . S
O149 Co138 2.039 . S
O149 C139 1.265 . S
C150 O146 1.253 . S
C150 O151 1.227 . S
O151 C150 1.227 . S
N152 Co138 2.140 . S
N152 C155 1.346 . S
N152 C156 1.345 . S
C153 C154 1.387 . S
C153 C157 1.391 . S
C154 C153 1.387 . S
C154 C155 1.369 . S
C154 H163 0.929 . S
C155 N152 1.346 . S
C155 C154 1.369 . S
C155 H158 0.928 . S
C156 N152 1.345 . S
C156 C157 1.371 . S
C156 H159 0.931 . S
C157 C153 1.391 . S
C157 C156 1.371 . S
C157 H164 0.930 . S
H158 C155 0.928 . S
H159 C156 0.931 . S
H160 C136 0.930 . S
H161 C133 0.930 . S
H162 C142 0.930 . S
H163 C154 0.929 . S
H164 C157 0.930 . S
C165 C166 1.351 . S
C165 N168 1.368 . S
C165 H170 0.931 . S
C166 C165 1.351 . S
C166 N167 1.373 . S
C166 H194 0.930 . S
N167 C166 1.373 . S
N167 C169 1.340 . S
N168 C165 1.368 . S
N168 C169 1.321 . S
N168 Co171 2.135 . S
C169 N167 1.340 . S
C169 N168 1.321 . S
C169 H193 0.930 . S
H170 C165 0.931 . S
Co171 N168 2.135 . S
Co171 N174 2.121 . S
Co171 O179 2.055 . S
Co171 O182 2.039 . S
Co171 N185 2.140 . S
C172 O173 1.227 . S
C172 O182 1.265 . S
O173 C172 1.227 . S
N174 Co171 2.121 . S
N174 C176 1.375 . S
N174 C177 1.313 . S
C175 C176 1.338 . S
C175 N178 1.377 . S
C175 H195 0.930 . S
C176 N174 1.375 . S
C176 C175 1.338 . S
C176 H180 0.931 . S
C177 N174 1.313 . S
C177 N178 1.344 . S
C177 H181 0.930 . S
N178 C175 1.377 . S
N178 C177 1.344 . S
O179 Co171 2.055 . S
O179 C183 1.253 . S
H180 C176 0.931 . S
H181 C177 0.930 . S
O182 Co171 2.039 . S
O182 C172 1.265 . S
C183 O179 1.253 . S
C183 O184 1.227 . S
O184 C183 1.227 . S
N185 Co171 2.140 . S
N185 C188 1.346 . S
N185 C189 1.345 . S
C186 C187 1.387 . S
C186 C190 1.391 . S
C187 C186 1.387 . S
C187 C188 1.369 . S
C187 H196 0.929 . S
C188 N185 1.346 . S
C188 C187 1.369 . S
C188 H191 0.928 . S
C189 N185 1.345 . S
C189 C190 1.371 . S
C189 H192 0.931 . S
C190 C186 1.391 . S
C190 C189 1.371 . S
C190 H197 0.930 . S
H191 C188 0.928 . S
H192 C189 0.931 . S
H193 C169 0.930 . S
H194 C166 0.930 . S
H195 C175 0.930 . S
H196 C187 0.929 . S
H197 C190 0.930 . S
C198 C199 1.351 . S
C198 N201 1.368 . S
C198 H203 0.931 . S
C199 C198 1.351 . S
C199 N200 1.373 . S
C199 H227 0.930 . S
N200 C199 1.373 . S
N200 C202 1.340 . S
N201 C198 1.368 . S
N201 C202 1.321 . S
N201 Co204 2.135 . S
C202 N200 1.340 . S
C202 N201 1.321 . S
C202 H226 0.930 . S
H203 C198 0.931 . S
Co204 N201 2.135 . S
Co204 N207 2.121 . S
Co204 O212 2.055 . S
Co204 O215 2.039 . S
Co204 N218 2.140 . S
C205 O206 1.227 . S
C205 O215 1.265 . S
O206 C205 1.227 . S
N207 Co204 2.121 . S
N207 C209 1.375 . S
N207 C210 1.313 . S
C208 C209 1.338 . S
C208 N211 1.377 . S
C208 H228 0.930 . S
C209 N207 1.375 . S
C209 C208 1.338 . S
C209 H213 0.931 . S
C210 N207 1.313 . S
C210 N211 1.344 . S
C210 H214 0.930 . S
N211 C208 1.377 . S
N211 C210 1.344 . S
O212 Co204 2.055 . S
O212 C216 1.253 . S
H213 C209 0.931 . S
H214 C210 0.930 . S
O215 Co204 2.039 . S
O215 C205 1.265 . S
C216 O212 1.253 . S
C216 O217 1.227 . S
O217 C216 1.227 . S
N218 Co204 2.140 . S
N218 C221 1.346 . S
N218 C222 1.345 . S
C219 C220 1.387 . S
C219 C223 1.391 . S
C220 C219 1.387 . S
C220 C221 1.369 . S
C220 H229 0.929 . S
C221 N218 1.346 . S
C221 C220 1.369 . S
C221 H224 0.928 . S
C222 N218 1.345 . S
C222 C223 1.371 . S
C222 H225 0.931 . S
C223 C219 1.391 . S
C223 C222 1.371 . S
C223 H230 0.930 . S
H224 C221 0.928 . S
H225 C222 0.931 . S
H226 C202 0.930 . S
H227 C199 0.930 . S
H228 C208 0.930 . S
H229 C220 0.929 . S
H230 C223 0.930 . S
C231 C232 1.351 . S
C231 N234 1.368 . S
C231 H236 0.931 . S
C232 C231 1.351 . S
C232 N233 1.373 . S
C232 H260 0.930 . S
N233 C232 1.373 . S
N233 C235 1.340 . S
N234 C231 1.368 . S
N234 C235 1.321 . S
N234 Co237 2.135 . S
C235 N233 1.340 . S
C235 N234 1.321 . S
C235 H259 0.930 . S
H236 C231 0.931 . S
Co237 N234 2.135 . S
Co237 N240 2.121 . S
Co237 O245 2.055 . S
Co237 O248 2.039 . S
Co237 N251 2.140 . S
C238 O239 1.227 . S
C238 O248 1.265 . S
O239 C238 1.227 . S
N240 Co237 2.121 . S
N240 C242 1.375 . S
N240 C243 1.313 . S
C241 C242 1.338 . S
C241 N244 1.377 . S
C241 H261 0.930 . S
C242 N240 1.375 . S
C242 C241 1.338 . S
C242 H246 0.931 . S
C243 N240 1.313 . S
C243 N244 1.344 . S
C243 H247 0.930 . S
N244 C241 1.377 . S
N244 C243 1.344 . S
O245 Co237 2.055 . S
O245 C249 1.253 . S
H246 C242 0.931 . S
H247 C243 0.930 . S
O248 Co237 2.039 . S
O248 C238 1.265 . S
C249 O245 1.253 . S
C249 O250 1.227 . S
O250 C249 1.227 . S
N251 Co237 2.140 . S
N251 C254 1.346 . S
N251 C255 1.345 . S
C252 C253 1.387 . S
C252 C256 1.391 . S
C253 C252 1.387 . S
C253 C254 1.369 . S
C253 H262 0.929 . S
C254 N251 1.346 . S
C254 C253 1.369 . S
C254 H257 0.928 . S
C255 N251 1.345 . S
C255 C256 1.371 . S
C255 H258 0.931 . S
C256 C252 1.391 . S
C256 C255 1.371 . S
C256 H263 0.930 . S
H257 C254 0.928 . S
H258 C255 0.931 . S
H259 C235 0.930 . S
H260 C232 0.930 . S
H261 C241 0.930 . S
H262 C253 0.929 . S
H263 C256 0.930 . S
C264 C265 1.351 . S
C264 N267 1.368 . S
C264 H269 0.931 . S
C265 C264 1.351 . S
C265 N266 1.373 . S
C265 H293 0.930 . S
N266 C265 1.373 . S
N266 C268 1.340 . S
N267 C264 1.368 . S
N267 C268 1.321 . S
N267 Co270 2.135 . S
C268 N266 1.340 . S
C268 N267 1.321 . S
C268 H292 0.930 . S
H269 C264 0.931 . S
Co270 N267 2.135 . S
Co270 N273 2.121 . S
Co270 O278 2.055 . S
Co270 O281 2.039 . S
Co270 N284 2.140 . S
C271 O272 1.227 . S
C271 O281 1.265 . S
O272 C271 1.227 . S
N273 Co270 2.121 . S
N273 C275 1.375 . S
N273 C276 1.313 . S
C274 C275 1.338 . S
C274 N277 1.377 . S
C274 H294 0.930 . S
C275 N273 1.375 . S
C275 C274 1.338 . S
C275 H279 0.931 . S
C276 N273 1.313 . S
C276 N277 1.344 . S
C276 H280 0.930 . S
N277 C274 1.377 . S
N277 C276 1.344 . S
O278 Co270 2.055 . S
O278 C282 1.253 . S
H279 C275 0.931 . S
H280 C276 0.930 . S
O281 Co270 2.039 . S
O281 C271 1.265 . S
C282 O278 1.253 . S
C282 O283 1.227 . S
O283 C282 1.227 . S
N284 Co270 2.140 . S
N284 C287 1.346 . S
N284 C288 1.345 . S
C285 C286 1.387 . S
C285 C289 1.391 . S
C286 C285 1.387 . S
C286 C287 1.369 . S
C286 H295 0.929 . S
C287 N284 1.346 . S
C287 C286 1.369 . S
C287 H290 0.928 . S
C288 N284 1.345 . S
C288 C289 1.371 . S
C288 H291 0.931 . S
C289 C285 1.391 . S
C289 C288 1.371 . S
C289 H296 0.930 . S
H290 C287 0.928 . S
H291 C288 0.931 . S
H292 C268 0.930 . S
H293 C265 0.930 . S
H294 C274 0.930 . S
H295 C286 0.929 . S
H296 C289 0.930 . S
C297 C298 1.351 . S
C297 N300 1.368 . S
C297 H302 0.931 . S
C298 C297 1.351 . S
C298 N299 1.373 . S
C298 H326 0.930 . S
N299 C298 1.373 . S
N299 C301 1.340 . S
N300 C297 1.368 . S
N300 C301 1.321 . S
N300 Co303 2.135 . S
C301 N299 1.340 . S
C301 N300 1.321 . S
C301 H325 0.930 . S
H302 C297 0.931 . S
Co303 N300 2.135 . S
Co303 N306 2.121 . S
Co303 O311 2.055 . S
Co303 O314 2.039 . S
Co303 N317 2.140 . S
C304 O305 1.227 . S
C304 O314 1.265 . S
O305 C304 1.227 . S
N306 Co303 2.121 . S
N306 C308 1.375 . S
N306 C309 1.313 . S
C307 C308 1.338 . S
C307 N310 1.377 . S
C307 H327 0.930 . S
C308 N306 1.375 . S
C308 C307 1.338 . S
C308 H312 0.931 . S
C309 N306 1.313 . S
C309 N310 1.344 . S
C309 H313 0.930 . S
N310 C307 1.377 . S
N310 C309 1.344 . S
O311 Co303 2.055 . S
O311 C315 1.253 . S
H312 C308 0.931 . S
H313 C309 0.930 . S
O314 Co303 2.039 . S
O314 C304 1.265 . S
C315 O311 1.253 . S
C315 O316 1.227 . S
O316 C315 1.227 . S
N317 Co303 2.140 . S
N317 C320 1.346 . S
N317 C321 1.345 . S
C318 C319 1.387 . S
C318 C322 1.391 . S
C319 C318 1.387 . S
C319 C320 1.369 . S
C319 H328 0.929 . S
C320 N317 1.346 . S
C320 C319 1.369 . S
C320 H323 0.928 . S
C321 N317 1.345 . S
C321 C322 1.371 . S
C321 H324 0.931 . S
C322 C318 1.391 . S
C322 C321 1.371 . S
C322 H329 0.930 . S
H323 C320 0.928 . S
H324 C321 0.931 . S
H325 C301 0.930 . S
H326 C298 0.930 . S
H327 C307 0.930 . S
H328 C319 0.929 . S
H329 C322 0.930 . S
C330 C331 1.351 . S
C330 N333 1.368 . S
C330 H335 0.931 . S
C331 C330 1.351 . S
C331 N332 1.373 . S
C331 H359 0.930 . S
N332 C331 1.373 . S
N332 C334 1.340 . S
N333 C330 1.368 . S
N333 C334 1.321 . S
N333 Co336 2.135 . S
C334 N332 1.340 . S
C334 N333 1.321 . S
C334 H358 0.930 . S
H335 C330 0.931 . S
Co336 N333 2.135 . S
Co336 N339 2.121 . S
Co336 O344 2.055 . S
Co336 O347 2.039 . S
Co336 N350 2.140 . S
C337 O338 1.227 . S
C337 O347 1.265 . S
O338 C337 1.227 . S
N339 Co336 2.121 . S
N339 C341 1.375 . S
N339 C342 1.313 . S
C340 C341 1.338 . S
C340 N343 1.377 . S
C340 H360 0.930 . S
C341 N339 1.375 . S
C341 C340 1.338 . S
C341 H345 0.931 . S
C342 N339 1.313 . S
C342 N343 1.344 . S
C342 H346 0.930 . S
N343 C340 1.377 . S
N343 C342 1.344 . S
O344 Co336 2.055 . S
O344 C348 1.253 . S
H345 C341 0.931 . S
H346 C342 0.930 . S
O347 Co336 2.039 . S
O347 C337 1.265 . S
C348 O344 1.253 . S
C348 O349 1.227 . S
O349 C348 1.227 . S
N350 Co336 2.140 . S
N350 C353 1.346 . S
N350 C354 1.345 . S
C351 C352 1.387 . S
C351 C355 1.391 . S
C352 C351 1.387 . S
C352 C353 1.369 . S
C352 H361 0.929 . S
C353 N350 1.346 . S
C353 C352 1.369 . S
C353 H356 0.928 . S
C354 N350 1.345 . S
C354 C355 1.371 . S
C354 H357 0.931 . S
C355 C351 1.391 . S
C355 C354 1.371 . S
C355 H362 0.930 . S
H356 C353 0.928 . S
H357 C354 0.931 . S
H358 C334 0.930 . S
H359 C331 0.930 . S
H360 C340 0.930 . S
H361 C352 0.929 . S
H362 C355 0.930 . S
C363 C364 1.351 . S
C363 N366 1.368 . S
C363 H368 0.931 . S
C364 C363 1.351 . S
C364 N365 1.373 . S
C364 H392 0.930 . S
N365 C364 1.373 . S
N365 C367 1.340 . S
N366 C363 1.368 . S
N366 C367 1.321 . S
N366 Co369 2.135 . S
C367 N365 1.340 . S
C367 N366 1.321 . S
C367 H391 0.930 . S
H368 C363 0.931 . S
Co369 N366 2.135 . S
Co369 N372 2.121 . S
Co369 O377 2.055 . S
Co369 O380 2.039 . S
Co369 N383 2.140 . S
C370 O371 1.227 . S
C370 O380 1.265 . S
O371 C370 1.227 . S
N372 Co369 2.121 . S
N372 C374 1.375 . S
N372 C375 1.313 . S
C373 C374 1.338 . S
C373 N376 1.377 . S
C373 H393 0.930 . S
C374 N372 1.375 . S
C374 C373 1.338 . S
C374 H378 0.931 . S
C375 N372 1.313 . S
C375 N376 1.344 . S
C375 H379 0.930 . S
N376 C373 1.377 . S
N376 C375 1.344 . S
O377 Co369 2.055 . S
O377 C381 1.253 . S
H378 C374 0.931 . S
H379 C375 0.930 . S
O380 Co369 2.039 . S
O380 C370 1.265 . S
C381 O377 1.253 . S
C381 O382 1.227 . S
O382 C381 1.227 . S
N383 Co369 2.140 . S
N383 C386 1.346 . S
N383 C387 1.345 . S
C384 C385 1.387 . S
C384 C388 1.391 . S
C385 C384 1.387 . S
C385 C386 1.369 . S
C385 H394 0.929 . S
C386 N383 1.346 . S
C386 C385 1.369 . S
C386 H389 0.928 . S
C387 N383 1.345 . S
C387 C388 1.371 . S
C387 H390 0.931 . S
C388 C384 1.391 . S
C388 C387 1.371 . S
C388 H395 0.930 . S
H389 C386 0.928 . S
H390 C387 0.931 . S
H391 C367 0.930 . S
H392 C364 0.930 . S
H393 C373 0.930 . S
H394 C385 0.929 . S
H395 C388 0.930 . S
C396 C397 1.351 . S
C396 N399 1.368 . S
C396 H401 0.931 . S
C397 C396 1.351 . S
C397 N398 1.373 . S
C397 H425 0.930 . S
N398 C397 1.373 . S
N398 C400 1.340 . S
N399 C396 1.368 . S
N399 C400 1.321 . S
N399 Co402 2.135 . S
C400 N398 1.340 . S
C400 N399 1.321 . S
C400 H424 0.930 . S
H401 C396 0.931 . S
Co402 N399 2.135 . S
Co402 N405 2.121 1_556 S
Co402 O410 2.055 . S
Co402 O413 2.039 1_556 S
Co402 N416 2.140 . S
C403 O404 1.227 . S
C403 O413 1.265 . S
O404 C403 1.227 . S
N405 Co402 2.121 1_554 S
N405 C407 1.375 . S
N405 C408 1.313 . S
C406 C407 1.338 . S
C406 N409 1.377 . S
C406 H426 0.930 . S
C407 N405 1.375 . S
C407 C406 1.338 . S
C407 H411 0.931 . S
C408 N405 1.313 . S
C408 N409 1.344 . S
C408 H412 0.930 . S
N409 C406 1.377 . S
N409 C408 1.344 . S
O410 Co402 2.055 . S
O410 C414 1.253 . S
H411 C407 0.931 . S
H412 C408 0.930 . S
O413 Co402 2.039 1_554 S
O413 C403 1.265 . S
C414 O410 1.253 . S
C414 O415 1.227 . S
O415 C414 1.227 . S
N416 Co402 2.140 . S
N416 C419 1.346 . S
N416 C420 1.345 1_556 S
C417 C418 1.387 1_554 S
C417 C421 1.391 . S
C418 C417 1.387 1_556 S
C418 C419 1.369 . S
C418 H427 0.929 . S
C419 N416 1.346 . S
C419 C418 1.369 . S
C419 H422 0.928 . S
C420 N416 1.345 1_554 S
C420 C421 1.371 . S
C420 H423 0.931 . S
C421 C417 1.391 . S
C421 C420 1.371 . S
C421 H428 0.930 . S
H422 C419 0.928 . S
H423 C420 0.931 . S
H424 C400 0.930 . S
H425 C397 0.930 . S
H426 C406 0.930 . S
H427 C418 0.929 . S
H428 C421 0.930 . S
C429 C430 1.351 . S
C429 N432 1.368 . S
C429 H434 0.931 . S
C430 C429 1.351 . S
C430 N431 1.373 . S
C430 H458 0.930 . S
N431 C430 1.373 . S
N431 C433 1.340 . S
N432 C429 1.368 . S
N432 C433 1.321 . S
N432 Co435 2.135 . S
C433 N431 1.340 . S
C433 N432 1.321 . S
C433 H457 0.930 . S
H434 C429 0.931 . S
Co435 N432 2.135 . S
Co435 N438 2.121 1_556 S
Co435 O443 2.055 . S
Co435 O446 2.039 1_556 S
Co435 N449 2.140 . S
C436 O437 1.227 . S
C436 O446 1.265 . S
O437 C436 1.227 . S
N438 Co435 2.121 1_554 S
N438 C440 1.375 . S
N438 C441 1.313 . S
C439 C440 1.338 . S
C439 N442 1.377 . S
C439 H459 0.930 . S
C440 N438 1.375 . S
C440 C439 1.338 . S
C440 H444 0.931 . S
C441 N438 1.313 . S
C441 N442 1.344 . S
C441 H445 0.930 . S
N442 C439 1.377 . S
N442 C441 1.344 . S
O443 Co435 2.055 . S
O443 C447 1.253 . S
H444 C440 0.931 . S
H445 C441 0.930 . S
O446 Co435 2.039 1_554 S
O446 C436 1.265 . S
C447 O443 1.253 . S
C447 O448 1.227 . S
O448 C447 1.227 . S
N449 Co435 2.140 . S
N449 C452 1.346 . S
N449 C453 1.345 1_556 S
C450 C451 1.387 1_554 S
C450 C454 1.391 . S
C451 C450 1.387 1_556 S
C451 C452 1.369 . S
C451 H460 0.929 . S
C452 N449 1.346 . S
C452 C451 1.369 . S
C452 H455 0.928 . S
C453 N449 1.345 1_554 S
C453 C454 1.371 . S
C453 H456 0.931 . S
C454 C450 1.391 . S
C454 C453 1.371 . S
C454 H461 0.930 . S
H455 C452 0.928 . S
H456 C453 0.931 . S
H457 C433 0.930 . S
H458 C430 0.930 . S
H459 C439 0.930 . S
H460 C451 0.929 . S
H461 C454 0.930 . S
C462 C463 1.351 . S
C462 N465 1.368 . S
C462 H467 0.931 . S
C463 C462 1.351 . S
C463 N464 1.373 . S
C463 H491 0.930 . S
N464 C463 1.373 . S
N464 C466 1.340 . S
N465 C462 1.368 . S
N465 C466 1.321 . S
N465 Co468 2.135 . S
C466 N464 1.340 . S
C466 N465 1.321 . S
C466 H490 0.930 . S
H467 C462 0.931 . S
Co468 N465 2.135 . S
Co468 N471 2.121 1_556 S
Co468 O476 2.055 . S
Co468 O479 2.039 1_556 S
Co468 N482 2.140 . S
C469 O470 1.227 . S
C469 O479 1.265 . S
O470 C469 1.227 . S
N471 Co468 2.121 1_554 S
N471 C473 1.375 . S
N471 C474 1.313 . S
C472 C473 1.338 . S
C472 N475 1.377 . S
C472 H492 0.930 . S
C473 N471 1.375 . S
C473 C472 1.338 . S
C473 H477 0.931 . S
C474 N471 1.313 . S
C474 N475 1.344 . S
C474 H478 0.930 . S
N475 C472 1.377 . S
N475 C474 1.344 . S
O476 Co468 2.055 . S
O476 C480 1.253 . S
H477 C473 0.931 . S
H478 C474 0.930 . S
O479 Co468 2.039 1_554 S
O479 C469 1.265 . S
C480 O476 1.253 . S
C480 O481 1.227 . S
O481 C480 1.227 . S
N482 Co468 2.140 . S
N482 C485 1.346 . S
N482 C486 1.345 1_556 S
C483 C484 1.387 1_554 S
C483 C487 1.391 . S
C484 C483 1.387 1_556 S
C484 C485 1.369 . S
C484 H493 0.929 . S
C485 N482 1.346 . S
C485 C484 1.369 . S
C485 H488 0.928 . S
C486 N482 1.345 1_554 S
C486 C487 1.371 . S
C486 H489 0.931 . S
C487 C483 1.391 . S
C487 C486 1.371 . S
C487 H494 0.930 . S
H488 C485 0.928 . S
H489 C486 0.931 . S
H490 C466 0.930 . S
H491 C463 0.930 . S
H492 C472 0.930 . S
H493 C484 0.929 . S
H494 C487 0.930 . S
C495 C496 1.351 . S
C495 N498 1.368 . S
C495 H500 0.931 . S
C496 C495 1.351 . S
C496 N497 1.373 . S
C496 H524 0.930 . S
N497 C496 1.373 . S
N497 C499 1.340 . S
N498 C495 1.368 . S
N498 C499 1.321 . S
N498 Co501 2.135 . S
C499 N497 1.340 . S
C499 N498 1.321 . S
C499 H523 0.930 . S
H500 C495 0.931 . S
Co501 N498 2.135 . S
Co501 N504 2.121 1_556 S
Co501 O509 2.055 . S
Co501 O512 2.039 1_556 S
Co501 N515 2.140 . S
C502 O503 1.227 . S
C502 O512 1.265 . S
O503 C502 1.227 . S
N504 Co501 2.121 1_554 S
N504 C506 1.375 . S
N504 C507 1.313 . S
C505 C506 1.338 . S
C505 N508 1.377 . S
C505 H525 0.930 . S
C506 N504 1.375 . S
C506 C505 1.338 . S
C506 H510 0.931 . S
C507 N504 1.313 . S
C507 N508 1.344 . S
C507 H511 0.930 . S
N508 C505 1.377 . S
N508 C507 1.344 . S
O509 Co501 2.055 . S
O509 C513 1.253 . S
H510 C506 0.931 . S
H511 C507 0.930 . S
O512 Co501 2.039 1_554 S
O512 C502 1.265 . S
C513 O509 1.253 . S
C513 O514 1.227 . S
O514 C513 1.227 . S
N515 Co501 2.140 . S
N515 C518 1.346 . S
N515 C519 1.345 1_556 S
C516 C517 1.387 1_554 S
C516 C520 1.391 . S
C517 C516 1.387 1_556 S
C517 C518 1.369 . S
C517 H526 0.929 . S
C518 N515 1.346 . S
C518 C517 1.369 . S
C518 H521 0.928 . S
C519 N515 1.345 1_554 S
C519 C520 1.371 . S
C519 H522 0.931 . S
C520 C516 1.391 . S
C520 C519 1.371 . S
C520 H527 0.930 . S
H521 C518 0.928 . S
H522 C519 0.931 . S
H523 C499 0.930 . S
H524 C496 0.930 . S
H525 C505 0.930 . S
H526 C517 0.929 . S
H527 C520 0.930 . S
C528 C529 1.368 . S
C528 C534 1.379 . S
C528 N536 1.356 . S
C529 C528 1.368 . S
C529 C535 1.358 1_556 S
C530 C531 1.363 . S
C530 C535 1.379 . S
C530 N537 1.356 . S
C531 C530 1.363 . S
C531 C534 1.363 1_554 S
N532 C534 1.356 . S
N532 H544 0.984 . S
N532 H545 0.985 . S
N533 C535 1.356 . S
N533 H538 0.984 . S
N533 H539 0.985 . S
C534 C528 1.379 . S
C534 C531 1.363 1_556 S
C534 N532 1.356 . S
C535 C529 1.358 1_554 S
C535 C530 1.379 . S
C535 N533 1.356 . S
N536 C528 1.356 . S
N536 H542 0.984 . S
N536 H543 0.984 . S
N537 C530 1.356 . S
N537 H540 0.984 . S
N537 H541 0.985 . S
H538 N533 0.984 . S
H539 N533 0.985 . S
H540 N537 0.984 . S
H541 N537 0.985 . S
H542 N536 0.984 . S
H543 N536 0.984 . S
H544 N532 0.984 . S
H545 N532 0.985 . S
C546 C547 1.363 . S
C546 C552 1.379 . S
C546 N554 1.356 . S
C547 C546 1.363 . S
C547 C553 1.363 1_554 S
C548 C549 1.368 . S
C548 C553 1.379 . S
C548 N555 1.356 . S
C549 C548 1.368 . S
C549 C552 1.358 1_556 S
N550 C552 1.356 . S
N550 H562 0.984 . S
N550 H563 0.985 . S
N551 C553 1.356 . S
N551 H556 0.984 . S
N551 H557 0.985 . S
C552 C546 1.379 . S
C552 C549 1.358 1_554 S
C552 N550 1.356 . S
C553 C547 1.363 1_556 S
C553 C548 1.379 . S
C553 N551 1.356 . S
N554 C546 1.356 . S
N554 H560 0.984 . S
N554 H561 0.984 . S
N555 C548 1.356 . S
N555 H558 0.984 . S
N555 H559 0.985 . S
H556 N551 0.984 . S
H557 N551 0.985 . S
H558 N555 0.984 . S
H559 N555 0.985 . S
H560 N554 0.984 . S
H561 N554 0.984 . S
H562 N550 0.984 . S
H563 N550 0.985 . S
C564 C565 1.363 1_556 S
C564 C570 1.379 . S
C564 N572 1.356 . S
C565 C564 1.363 1_554 S
C565 C571 1.363 . S
C566 C567 1.358 1_554 S
C566 C571 1.379 . S
C566 N573 1.356 . S
C567 C566 1.358 1_556 S
C567 C570 1.368 . S
N568 C570 1.356 . S
N568 H580 0.984 . S
N568 H581 0.985 . S
N569 C571 1.356 . S
N569 H574 0.984 . S
N569 H575 0.985 . S
C570 C564 1.379 . S
C570 C567 1.368 . S
C570 N568 1.356 . S
C571 C565 1.363 . S
C571 C566 1.379 . S
C571 N569 1.356 . S
N572 C564 1.356 . S
N572 H578 0.984 . S
N572 H579 0.984 . S
N573 C566 1.356 . S
N573 H576 0.984 . S
N573 H577 0.985 . S
H574 N569 0.984 . S
H575 N569 0.985 . S
H576 N573 0.984 . S
H577 N573 0.985 . S
H578 N572 0.984 . S
H579 N572 0.984 . S
H580 N568 0.984 . S
H581 N568 0.985 . S
C582 C583 1.363 . S
C582 C588 1.379 . S
C582 N590 1.356 . S
C583 C582 1.363 . S
C583 C589 1.363 1_554 S
C584 C585 1.368 . S
C584 C589 1.379 . S
C584 N591 1.356 . S
C585 C584 1.368 . S
C585 C588 1.358 1_556 S
N586 C588 1.356 . S
N586 H598 0.984 . S
N586 H599 0.985 . S
N587 C589 1.356 . S
N587 H592 0.984 . S
N587 H593 0.985 . S
C588 C582 1.379 . S
C588 C585 1.358 1_554 S
C588 N586 1.356 . S
C589 C583 1.363 1_556 S
C589 C584 1.379 . S
C589 N587 1.356 . S
N590 C582 1.356 . S
N590 H596 0.984 . S
N590 H597 0.984 . S
N591 C584 1.356 . S
N591 H594 0.984 . S
N591 H595 0.985 . S
H592 N587 0.984 . S
H593 N587 0.985 . S
H594 N591 0.984 . S
H595 N591 0.985 . S
H596 N590 0.984 . S
H597 N590 0.984 . S
H598 N586 0.984 . S
H599 N586 0.985 . S
C600 C601 1.363 . S
C600 C606 1.379 . S
C600 N608 1.356 . S
C601 C600 1.363 . S
C601 C607 1.363 . S
C602 C603 1.363 . S
C602 C607 1.379 . S
C602 N609 1.356 . S
C603 C602 1.363 . S
C603 C606 1.363 . S
N604 C606 1.356 . S
N604 H616 0.984 . S
N604 H617 0.985 . S
N605 C607 1.356 . S
N605 H610 0.984 . S
N605 H611 0.985 . S
C606 C600 1.379 . S
C606 C603 1.363 . S
C606 N604 1.356 . S
C607 C601 1.363 . S
C607 C602 1.379 . S
C607 N605 1.356 . S
N608 C600 1.356 . S
N608 H614 0.984 . S
N608 H615 0.984 . S
N609 C602 1.356 . S
N609 H612 0.984 . S
N609 H613 0.985 . S
H610 N605 0.984 . S
H611 N605 0.985 . S
H612 N609 0.984 . S
H613 N609 0.985 . S
H614 N608 0.984 . S
H615 N608 0.984 . S
H616 N604 0.984 . S
H617 N604 0.985 . S
C618 C619 1.363 . S
C618 C624 1.379 . S
C618 N626 1.356 . S
C619 C618 1.363 . S
C619 C625 1.363 . S
C620 C621 1.363 . S
C620 C625 1.379 . S
C620 N627 1.356 . S
C621 C620 1.363 . S
C621 C624 1.363 . S
N622 C624 1.356 . S
N622 H634 0.984 . S
N622 H635 0.985 . S
N623 C625 1.356 . S
N623 H628 0.984 . S
N623 H629 0.985 . S
C624 C618 1.379 . S
C624 C621 1.363 . S
C624 N622 1.356 . S
C625 C619 1.363 . S
C625 C620 1.379 . S
C625 N623 1.356 . S
N626 C618 1.356 . S
N626 H632 0.984 . S
N626 H633 0.984 . S
N627 C620 1.356 . S
N627 H630 0.984 . S
N627 H631 0.985 . S
H628 N623 0.984 . S
H629 N623 0.985 . S
H630 N627 0.984 . S
H631 N627 0.985 . S
H632 N626 0.984 . S
H633 N626 0.984 . S
H634 N622 0.984 . S
H635 N622 0.985 . S
C636 C637 1.363 . S
C636 C642 1.379 . S
C636 N644 1.356 . S
C637 C636 1.363 . S
C637 C643 1.363 . S
C638 C639 1.363 . S
C638 C643 1.379 . S
C638 N645 1.356 . S
C639 C638 1.363 . S
C639 C642 1.363 . S
N640 C642 1.356 . S
N640 H652 0.984 . S
N640 H653 0.985 . S
N641 C643 1.356 . S
N641 H646 0.984 . S
N641 H647 0.985 . S
C642 C636 1.379 . S
C642 C639 1.363 . S
C642 N640 1.356 . S
C643 C637 1.363 . S
C643 C638 1.379 . S
C643 N641 1.356 . S
N644 C636 1.356 . S
N644 H650 0.984 . S
N644 H651 0.984 . S
N645 C638 1.356 . S
N645 H648 0.984 . S
N645 H649 0.985 . S
H646 N641 0.984 . S
H647 N641 0.985 . S
H648 N645 0.984 . S
H649 N645 0.985 . S
H650 N644 0.984 . S
H651 N644 0.984 . S
H652 N640 0.984 . S
H653 N640 0.985 . S
C654 C655 1.363 . S
C654 C660 1.379 . S
C654 N662 1.356 . S
C655 C654 1.363 . S
C655 C661 1.363 . S
C656 C657 1.363 . S
C656 C661 1.379 . S
C656 N663 1.356 . S
C657 C656 1.363 . S
C657 C660 1.363 . S
N658 C660 1.356 . S
N658 H670 0.984 . S
N658 H671 0.985 . S
N659 C661 1.356 . S
N659 H664 0.984 . S
N659 H665 0.985 . S
C660 C654 1.379 . S
C660 C657 1.363 . S
C660 N658 1.356 . S
C661 C655 1.363 . S
C661 C656 1.379 . S
C661 N659 1.356 . S
N662 C654 1.356 . S
N662 H668 0.984 . S
N662 H669 0.984 . S
N663 C656 1.356 . S
N663 H666 0.984 . S
N663 H667 0.985 . S
H664 N659 0.984 . S
H665 N659 0.985 . S
H666 N663 0.984 . S
H667 N663 0.985 . S
H668 N662 0.984 . S
H669 N662 0.984 . S
H670 N658 0.984 . S
H671 N658 0.985 . S
C672 C673 1.345 1_455 S
C672 C678 1.396 . S
C672 N680 1.351 1_455 S
C673 C672 1.345 1_655 S
C673 C679 1.363 . S
C674 C675 1.345 1_655 S
C674 C679 1.396 . S
C674 N681 1.351 1_655 S
C675 C674 1.345 1_455 S
C675 C678 1.363 . S
N676 C678 1.356 . S
N676 H688 0.984 . S
N676 H689 0.985 . S
N677 C679 1.356 . S
N677 H682 0.984 . S
N677 H683 0.985 . S
C678 C672 1.396 . S
C678 C675 1.363 . S
C678 N676 1.356 . S
C679 C673 1.363 . S
C679 C674 1.396 . S
C679 N677 1.356 . S
N680 C672 1.351 1_655 S
N680 H686 0.984 1_655 S
N680 H687 0.984 . S
N681 C674 1.351 1_455 S
N681 H684 0.984 . S
N681 H685 0.985 1_455 S
H682 N677 0.984 . S
H683 N677 0.985 . S
H684 N681 0.984 . S
H685 N681 0.985 1_655 S
H686 N680 0.984 1_455 S
H687 N680 0.984 . S
H688 N676 0.984 . S
H689 N676 0.985 . S
C690 C691 1.363 1_545 S
C690 C696 1.379 . S
C690 N698 1.356 . S
C691 C690 1.363 1_565 S
C691 C697 1.363 . S
C692 C693 1.363 1_565 S
C692 C697 1.379 . S
C692 N699 1.356 . S
C693 C692 1.363 1_545 S
C693 C696 1.363 . S
N694 C696 1.356 . S
N694 H706 0.984 . S
N694 H707 0.985 . S
N695 C697 1.356 . S
N695 H700 0.984 . S
N695 H701 0.985 . S
C696 C690 1.379 . S
C696 C693 1.363 . S
C696 N694 1.356 . S
C697 C691 1.363 . S
C697 C692 1.379 . S
C697 N695 1.356 . S
N698 C690 1.356 . S
N698 H704 0.984 . S
N698 H705 0.984 1_545 S
N699 C692 1.356 . S
N699 H702 0.984 1_565 S
N699 H703 0.985 . S
H700 N695 0.984 . S
H701 N695 0.985 . S
H702 N699 0.984 1_545 S
H703 N699 0.985 . S
H704 N698 0.984 . S
H705 N698 0.984 1_565 S
H706 N694 0.984 . S
H707 N694 0.985 . S
C708 C709 1.345 1_655 S
C708 C714 1.396 . S
C708 N716 1.351 1_655 S
C709 C708 1.345 1_455 S
C709 C715 1.363 . S
C710 C711 1.345 1_455 S
C710 C715 1.396 . S
C710 N717 1.351 1_455 S
C711 C710 1.345 1_655 S
C711 C714 1.363 . S
N712 C714 1.356 . S
N712 H724 0.984 . S
N712 H725 0.985 . S
N713 C715 1.356 . S
N713 H718 0.984 . S
N713 H719 0.985 . S
C714 C708 1.396 . S
C714 C711 1.363 . S
C714 N712 1.356 . S
C715 C709 1.363 . S
C715 C710 1.396 . S
C715 N713 1.356 . S
N716 C708 1.351 1_455 S
N716 H722 0.984 1_455 S
N716 H723 0.984 . S
N717 C710 1.351 1_655 S
N717 H720 0.984 . S
N717 H721 0.985 1_655 S
H718 N713 0.984 . S
H719 N713 0.985 . S
H720 N717 0.984 . S
H721 N717 0.985 1_455 S
H722 N716 0.984 1_655 S
H723 N716 0.984 . S
H724 N712 0.984 . S
H725 N712 0.985 . S
C726 C727 1.363 . S
C726 C732 1.379 . S
C726 N734 1.356 . S
C727 C726 1.363 . S
C727 C733 1.363 1_545 S
C728 C729 1.363 . S
C728 C733 1.379 . S
C728 N735 1.356 . S
C729 C728 1.363 . S
C729 C732 1.363 1_565 S
N730 C732 1.356 . S
N730 H742 0.984 . S
N730 H743 0.985 1_545 S
N731 C733 1.356 . S
N731 H736 0.984 1_565 S
N731 H737 0.985 . S
C732 C726 1.379 . S
C732 C729 1.363 1_545 S
C732 N730 1.356 . S
C733 C727 1.363 1_565 S
C733 C728 1.379 . S
C733 N731 1.356 . S
N734 C726 1.356 . S
N734 H740 0.984 . S
N734 H741 0.984 . S
N735 C728 1.356 . S
N735 H738 0.984 . S
N735 H739 0.985 . S
H736 N731 0.984 1_545 S
H737 N731 0.985 . S
H738 N735 0.984 . S
H739 N735 0.985 . S
H740 N734 0.984 . S
H741 N734 0.984 . S
H742 N730 0.984 . S
H743 N730 0.985 1_565 S
C744 C745 1.363 . S
C744 C750 1.379 1_455 S
C744 N752 1.356 . S
C745 C744 1.363 . S
C745 C751 1.363 . S
C746 C747 1.363 . S
C746 C751 1.379 1_655 S
C746 N753 1.356 . S
C747 C746 1.363 . S
C747 C750 1.363 . S
N748 C750 1.356 . S
N748 H760 0.984 . S
N748 H761 0.985 . S
N749 C751 1.356 . S
N749 H754 0.984 . S
N749 H755 0.985 . S
C750 C744 1.379 1_655 S
C750 C747 1.363 . S
C750 N748 1.356 . S
C751 C745 1.363 . S
C751 C746 1.379 1_455 S
C751 N749 1.356 . S
N752 C744 1.356 . S
N752 H758 0.984 . S
N752 H759 0.984 . S
N753 C746 1.356 . S
N753 H756 0.984 . S
N753 H757 0.985 . S
H754 N749 0.984 . S
H755 N749 0.985 . S
H756 N753 0.984 . S
H757 N753 0.985 . S
H758 N752 0.984 . S
H759 N752 0.984 . S
H760 N748 0.984 . S
H761 N748 0.985 . S
C762 C763 1.363 . S
C762 C768 1.379 1_565 S
C762 N770 1.356 . S
C763 C762 1.363 . S
C763 C769 1.363 . S
C764 C765 1.363 . S
C764 C769 1.379 1_545 S
C764 N771 1.356 . S
C765 C764 1.363 . S
C765 C768 1.363 . S
N766 C768 1.356 . S
N766 H778 0.984 . S
N766 H779 0.985 . S
N767 C769 1.356 . S
N767 H772 0.984 . S
N767 H773 0.985 . S
C768 C762 1.379 1_545 S
C768 C765 1.363 . S
C768 N766 1.356 . S
C769 C763 1.363 . S
C769 C764 1.379 1_565 S
C769 N767 1.356 . S
N770 C762 1.356 . S
N770 H776 0.984 1_565 S
N770 H777 0.984 . S
N771 C764 1.356 . S
N771 H774 0.984 . S
N771 H775 0.985 1_545 S
H772 N767 0.984 . S
H773 N767 0.985 . S
H774 N771 0.984 . S
H775 N771 0.985 1_565 S
H776 N770 0.984 1_545 S
H777 N770 0.984 . S
H778 N766 0.984 . S
H779 N766 0.985 . S
C780 C781 1.363 . S
C780 C786 1.379 1_655 S
C780 N788 1.356 . S
C781 C780 1.363 . S
C781 C787 1.363 . S
C782 C783 1.363 . S
C782 C787 1.379 1_455 S
C782 N789 1.356 . S
C783 C782 1.363 . S
C783 C786 1.363 . S
N784 C786 1.356 . S
N784 H796 0.984 . S
N784 H797 0.985 . S
N785 C787 1.356 . S
N785 H790 0.984 . S
N785 H791 0.985 . S
C786 C780 1.379 1_455 S
C786 C783 1.363 . S
C786 N784 1.356 . S
C787 C781 1.363 . S
C787 C782 1.379 1_655 S
C787 N785 1.356 . S
N788 C780 1.356 . S
N788 H794 0.984 . S
N788 H795 0.984 . S
N789 C782 1.356 . S
N789 H792 0.984 . S
N789 H793 0.985 . S
H790 N785 0.984 . S
H791 N785 0.985 . S
H792 N789 0.984 . S
H793 N789 0.985 . S
H794 N788 0.984 . S
H795 N788 0.984 . S
H796 N784 0.984 . S
H797 N784 0.985 . S
C798 C799 1.363 . S
C798 C804 1.379 1_545 S
C798 N806 1.356 . S
C799 C798 1.363 . S
C799 C805 1.363 . S
C800 C801 1.363 . S
C800 C805 1.379 1_565 S
C800 N807 1.356 . S
C801 C800 1.363 . S
C801 C804 1.363 . S
N802 C804 1.356 . S
N802 H814 0.984 . S
N802 H815 0.985 . S
N803 C805 1.356 . S
N803 H808 0.984 . S
N803 H809 0.985 . S
C804 C798 1.379 1_565 S
C804 C801 1.363 . S
C804 N802 1.356 . S
C805 C799 1.363 . S
C805 C800 1.379 1_545 S
C805 N803 1.356 . S
N806 C798 1.356 . S
N806 H812 0.984 . S
N806 H813 0.984 . S
N807 C800 1.356 . S
N807 H810 0.984 . S
N807 H811 0.985 . S
H808 N803 0.984 . S
H809 N803 0.985 . S
H810 N807 0.984 . S
H811 N807 0.985 . S
H812 N806 0.984 . S
H813 N806 0.984 . S
H814 N802 0.984 . S
H815 N802 0.985 . S
C816 C817 1.363 . S
C816 C822 1.379 . S
C816 N824 1.356 . S
C817 C816 1.363 . S
C817 C823 1.363 . S
C818 C819 1.363 . S
C818 C823 1.379 . S
C818 N825 1.356 . S
C819 C818 1.363 . S
C819 C822 1.363 . S
N820 C822 1.356 . S
N820 H832 0.984 . S
N820 H833 0.985 . S
N821 C823 1.356 . S
N821 H826 0.984 . S
N821 H827 0.985 . S
C822 C816 1.379 . S
C822 C819 1.363 . S
C822 N820 1.356 . S
C823 C817 1.363 . S
C823 C818 1.379 . S
C823 N821 1.356 . S
N824 C816 1.356 . S
N824 H830 0.984 . S
N824 H831 0.984 . S
N825 C818 1.356 . S
N825 H828 0.984 . S
N825 H829 0.985 . S
H826 N821 0.984 . S
H827 N821 0.985 . S
H828 N825 0.984 . S
H829 N825 0.985 . S
H830 N824 0.984 . S
H831 N824 0.984 . S
H832 N820 0.984 . S
H833 N820 0.985 . S
C834 C835 1.363 . S
C834 C840 1.379 . S
C834 N842 1.356 . S
C835 C834 1.363 . S
C835 C841 1.363 . S
C836 C837 1.363 . S
C836 C841 1.379 . S
C836 N843 1.356 . S
C837 C836 1.363 . S
C837 C840 1.363 . S
N838 C840 1.356 . S
N838 H850 0.984 . S
N838 H851 0.985 . S
N839 C841 1.356 . S
N839 H844 0.984 . S
N839 H845 0.985 . S
C840 C834 1.379 . S
C840 C837 1.363 . S
C840 N838 1.356 . S
C841 C835 1.363 . S
C841 C836 1.379 . S
C841 N839 1.356 . S
N842 C834 1.356 . S
N842 H848 0.984 . S
N842 H849 0.984 . S
N843 C836 1.356 . S
N843 H846 0.984 . S
N843 H847 0.985 . S
H844 N839 0.984 . S
H845 N839 0.985 . S
H846 N843 0.984 . S
H847 N843 0.985 . S
H848 N842 0.984 . S
H849 N842 0.984 . S
H850 N838 0.984 . S
H851 N838 0.985 . S
C852 C853 1.363 . S
C852 C858 1.379 . S
C852 N860 1.356 . S
C853 C852 1.363 . S
C853 C859 1.363 . S
C854 C855 1.363 . S
C854 C859 1.379 . S
C854 N861 1.356 . S
C855 C854 1.363 . S
C855 C858 1.363 . S
N856 C858 1.356 . S
N856 H868 0.984 . S
N856 H869 0.985 . S
N857 C859 1.356 . S
N857 H862 0.984 . S
N857 H863 0.985 . S
C858 C852 1.379 . S
C858 C855 1.363 . S
C858 N856 1.356 . S
C859 C853 1.363 . S
C859 C854 1.379 . S
C859 N857 1.356 . S
N860 C852 1.356 . S
N860 H866 0.984 . S
N860 H867 0.984 . S
N861 C854 1.356 . S
N861 H864 0.984 . S
N861 H865 0.985 . S
H862 N857 0.984 . S
H863 N857 0.985 . S
H864 N861 0.984 . S
H865 N861 0.985 . S
H866 N860 0.984 . S
H867 N860 0.984 . S
H868 N856 0.984 . S
H869 N856 0.985 . S
C870 C871 1.363 . S
C870 C876 1.379 . S
C870 N878 1.356 . S
C871 C870 1.363 . S
C871 C877 1.363 . S
C872 C873 1.363 . S
C872 C877 1.379 . S
C872 N879 1.356 . S
C873 C872 1.363 . S
C873 C876 1.363 . S
N874 C876 1.356 . S
N874 H886 0.984 . S
N874 H887 0.985 . S
N875 C877 1.356 . S
N875 H880 0.984 . S
N875 H881 0.985 . S
C876 C870 1.379 . S
C876 C873 1.363 . S
C876 N874 1.356 . S
C877 C871 1.363 . S
C877 C872 1.379 . S
C877 N875 1.356 . S
N878 C870 1.356 . S
N878 H884 0.984 . S
N878 H885 0.984 . S
N879 C872 1.356 . S
N879 H882 0.984 . S
N879 H883 0.985 . S
H880 N875 0.984 . S
H881 N875 0.985 . S
H882 N879 0.984 . S
H883 N879 0.985 . S
H884 N878 0.984 . S
H885 N878 0.984 . S
H886 N874 0.984 . S
H887 N874 0.985 . S
C888 C889 1.363 . S
C888 C894 1.379 . S
C888 N896 1.356 . S
C889 C888 1.363 . S
C889 C895 1.363 . S
C890 C891 1.363 . S
C890 C895 1.379 . S
C890 N897 1.356 . S
C891 C890 1.363 . S
C891 C894 1.363 . S
N892 C894 1.356 . S
N892 H904 0.984 . S
N892 H905 0.985 . S
N893 C895 1.356 . S
N893 H898 0.984 . S
N893 H899 0.985 . S
C894 C888 1.379 . S
C894 C891 1.363 . S
C894 N892 1.356 . S
C895 C889 1.363 . S
C895 C890 1.379 . S
C895 N893 1.356 . S
N896 C888 1.356 . S
N896 H902 0.984 . S
N896 H903 0.984 . S
N897 C890 1.356 . S
N897 H900 0.984 . S
N897 H901 0.985 . S
H898 N893 0.984 . S
H899 N893 0.985 . S
H900 N897 0.984 . S
H901 N897 0.985 . S
H902 N896 0.984 . S
H903 N896 0.984 . S
H904 N892 0.984 . S
H905 N892 0.985 . S
C906 C907 1.363 . S
C906 C912 1.379 . S
C906 N914 1.356 . S
C907 C906 1.363 . S
C907 C913 1.363 . S
C908 C909 1.363 . S
C908 C913 1.379 . S
C908 N915 1.356 . S
C909 C908 1.363 . S
C909 C912 1.363 . S
N910 C912 1.356 . S
N910 H922 0.984 . S
N910 H923 0.985 . S
N911 C913 1.356 . S
N911 H916 0.984 . S
N911 H917 0.985 . S
C912 C906 1.379 . S
C912 C909 1.363 . S
C912 N910 1.356 . S
C913 C907 1.363 . S
C913 C908 1.379 . S
C913 N911 1.356 . S
N914 C906 1.356 . S
N914 H920 0.984 . S
N914 H921 0.984 . S
N915 C908 1.356 . S
N915 H918 0.984 . S
N915 H919 0.985 . S
H916 N911 0.984 . S
H917 N911 0.985 . S
H918 N915 0.984 . S
H919 N915 0.985 . S
H920 N914 0.984 . S
H921 N914 0.984 . S
H922 N910 0.984 . S
H923 N910 0.985 . S
C924 C925 1.363 . S
C924 C930 1.379 . S
C924 N932 1.356 . S
C925 C924 1.363 . S
C925 C931 1.363 . S
C926 C927 1.363 . S
C926 C931 1.379 . S
C926 N933 1.356 . S
C927 C926 1.363 . S
C927 C930 1.363 . S
N928 C930 1.356 . S
N928 H940 0.984 . S
N928 H941 0.985 . S
N929 C931 1.356 . S
N929 H934 0.984 . S
N929 H935 0.985 . S
C930 C924 1.379 . S
C930 C927 1.363 . S
C930 N928 1.356 . S
C931 C925 1.363 . S
C931 C926 1.379 . S
C931 N929 1.356 . S
N932 C924 1.356 . S
N932 H938 0.984 . S
N932 H939 0.984 . S
N933 C926 1.356 . S
N933 H936 0.984 . S
N933 H937 0.985 . S
H934 N929 0.984 . S
H935 N929 0.985 . S
H936 N933 0.984 . S
H937 N933 0.985 . S
H938 N932 0.984 . S
H939 N932 0.984 . S
H940 N928 0.984 . S
H941 N928 0.985 . S
C942 C943 1.363 . S
C942 C948 1.379 . S
C942 N950 1.356 . S
C943 C942 1.363 . S
C943 C949 1.363 . S
C944 C945 1.363 . S
C944 C949 1.379 . S
C944 N951 1.356 . S
C945 C944 1.363 . S
C945 C948 1.363 . S
N946 C948 1.356 . S
N946 H958 0.984 . S
N946 H959 0.985 . S
N947 C949 1.356 . S
N947 H952 0.984 . S
N947 H953 0.985 . S
C948 C942 1.379 . S
C948 C945 1.363 . S
C948 N946 1.356 . S
C949 C943 1.363 . S
C949 C944 1.379 . S
C949 N947 1.356 . S
N950 C942 1.356 . S
N950 H956 0.984 . S
N950 H957 0.984 . S
N951 C944 1.356 . S
N951 H954 0.984 . S
N951 H955 0.985 . S
H952 N947 0.984 . S
H953 N947 0.985 . S
H954 N951 0.984 . S
H955 N951 0.985 . S
H956 N950 0.984 . S
H957 N950 0.984 . S
H958 N946 0.984 . S
H959 N946 0.985 . S
C960 C961 1.363 . S
C960 C966 1.379 . S
C960 N968 1.356 . S
C961 C960 1.363 . S
C961 C967 1.363 . S
C962 C963 1.363 . S
C962 C967 1.379 . S
C962 N969 1.356 . S
C963 C962 1.363 . S
C963 C966 1.363 . S
N964 C966 1.356 . S
N964 H976 0.984 . S
N964 H977 0.985 . S
N965 C967 1.356 . S
N965 H970 0.984 . S
N965 H971 0.985 . S
C966 C960 1.379 . S
C966 C963 1.363 . S
C966 N964 1.356 . S
C967 C961 1.363 . S
C967 C962 1.379 . S
C967 N965 1.356 . S
N968 C960 1.356 . S
N968 H974 0.984 . S
N968 H975 0.984 . S
N969 C962 1.356 . S
N969 H972 0.984 . S
N969 H973 0.985 . S
H970 N965 0.984 . S
H971 N965 0.985 . S
H972 N969 0.984 . S
H973 N969 0.985 . S
H974 N968 0.984 . S
H975 N968 0.984 . S
H976 N964 0.984 . S
H977 N964 0.985 . S
C978 C979 1.363 . S
C978 C984 1.379 . S
C978 N986 1.356 . S
C979 C978 1.363 . S
C979 C985 1.363 . S
C980 C981 1.363 . S
C980 C985 1.379 . S
C980 N987 1.356 . S
C981 C980 1.363 . S
C981 C984 1.363 . S
N982 C984 1.356 . S
N982 H994 0.984 . S
N982 H995 0.985 . S
N983 C985 1.356 . S
N983 H988 0.984 . S
N983 H989 0.985 . S
C984 C978 1.379 . S
C984 C981 1.363 . S
C984 N982 1.356 . S
C985 C979 1.363 . S
C985 C980 1.379 . S
C985 N983 1.356 . S
N986 C978 1.356 . S
N986 H992 0.984 . S
N986 H993 0.984 . S
N987 C980 1.356 . S
N987 H990 0.984 . S
N987 H991 0.985 . S
H988 N983 0.984 . S
H989 N983 0.985 . S
H990 N987 0.984 . S
H991 N987 0.985 . S
H992 N986 0.984 . S
H993 N986 0.984 . S
H994 N982 0.984 . S
H995 N982 0.985 . S
C996 C997 1.363 . S
C996 C1002 1.379 . S
C996 N1004 1.356 . S
C997 C996 1.363 . S
C997 C1003 1.363 . S
C998 C999 1.363 . S
C998 C1003 1.379 . S
C998 N1005 1.356 . S
C999 C998 1.363 . S
C999 C1002 1.363 . S
N1000 C1002 1.356 . S
N1000 H1012 0.984 . S
N1000 H1013 0.985 . S
N1001 C1003 1.356 . S
N1001 H1006 0.984 . S
N1001 H1007 0.985 . S
C1002 C996 1.379 . S
C1002 C999 1.363 . S
C1002 N1000 1.356 . S
C1003 C997 1.363 . S
C1003 C998 1.379 . S
C1003 N1001 1.356 . S
N1004 C996 1.356 . S
N1004 H1010 0.984 . S
N1004 H1011 0.984 . S
N1005 C998 1.356 . S
N1005 H1008 0.984 . S
N1005 H1009 0.985 . S
H1006 N1001 0.984 . S
H1007 N1001 0.985 . S
H1008 N1005 0.984 . S
H1009 N1005 0.985 . S
H1010 N1004 0.984 . S
H1011 N1004 0.984 . S
H1012 N1000 0.984 . S
H1013 N1000 0.985 . S
C1014 C1015 1.363 . S
C1014 C1020 1.379 . S
C1014 N1022 1.356 . S
C1015 C1014 1.363 . S
C1015 C1021 1.363 . S
C1016 C1017 1.363 . S
C1016 C1021 1.379 . S
C1016 N1023 1.356 . S
C1017 C1016 1.363 . S
C1017 C1020 1.363 . S
N1018 C1020 1.356 . S
N1018 H1030 0.984 . S
N1018 H1031 0.985 . S
N1019 C1021 1.356 . S
N1019 H1024 0.984 . S
N1019 H1025 0.985 . S
C1020 C1014 1.379 . S
C1020 C1017 1.363 . S
C1020 N1018 1.356 . S
C1021 C1015 1.363 . S
C1021 C1016 1.379 . S
C1021 N1019 1.356 . S
N1022 C1014 1.356 . S
N1022 H1028 0.984 . S
N1022 H1029 0.984 . S
N1023 C1016 1.356 . S
N1023 H1026 0.984 . S
N1023 H1027 0.985 . S
H1024 N1019 0.984 . S
H1025 N1019 0.985 . S
H1026 N1023 0.984 . S
H1027 N1023 0.985 . S
H1028 N1022 0.984 . S
H1029 N1022 0.984 . S
H1030 N1018 0.984 . S
H1031 N1018 0.985 . S
C1032 C1033 1.363 . S
C1032 C1038 1.379 . S
C1032 N1040 1.356 . S
C1033 C1032 1.363 . S
C1033 C1039 1.363 . S
C1034 C1035 1.363 . S
C1034 C1039 1.379 . S
C1034 N1041 1.356 . S
C1035 C1034 1.363 . S
C1035 C1038 1.363 . S
N1036 C1038 1.356 . S
N1036 H1048 0.984 . S
N1036 H1049 0.985 . S
N1037 C1039 1.356 . S
N1037 H1042 0.984 . S
N1037 H1043 0.985 . S
C1038 C1032 1.379 . S
C1038 C1035 1.363 . S
C1038 N1036 1.356 . S
C1039 C1033 1.363 . S
C1039 C1034 1.379 . S
C1039 N1037 1.356 . S
N1040 C1032 1.356 . S
N1040 H1046 0.984 . S
N1040 H1047 0.984 . S
N1041 C1034 1.356 . S
N1041 H1044 0.984 . S
N1041 H1045 0.985 . S
H1042 N1037 0.984 . S
H1043 N1037 0.985 . S
H1044 N1041 0.984 . S
H1045 N1041 0.985 . S
H1046 N1040 0.984 . S
H1047 N1040 0.984 . S
H1048 N1036 0.984 . S
H1049 N1036 0.985 . S
C1050 C1051 1.363 . S
C1050 C1056 1.379 . S
C1050 N1058 1.356 . S
C1051 C1050 1.363 . S
C1051 C1057 1.363 . S
C1052 C1053 1.363 . S
C1052 C1057 1.379 . S
C1052 N1059 1.356 . S
C1053 C1052 1.363 . S
C1053 C1056 1.363 . S
N1054 C1056 1.356 . S
N1054 H1066 0.984 . S
N1054 H1067 0.985 . S
N1055 C1057 1.356 . S
N1055 H1060 0.984 . S
N1055 H1061 0.985 . S
C1056 C1050 1.379 . S
C1056 C1053 1.363 . S
C1056 N1054 1.356 . S
C1057 C1051 1.363 . S
C1057 C1052 1.379 . S
C1057 N1055 1.356 . S
N1058 C1050 1.356 . S
N1058 H1064 0.984 . S
N1058 H1065 0.984 . S
N1059 C1052 1.356 . S
N1059 H1062 0.984 . S
N1059 H1063 0.985 . S
H1060 N1055 0.984 . S
H1061 N1055 0.985 . S
H1062 N1059 0.984 . S
H1063 N1059 0.985 . S
H1064 N1058 0.984 . S
H1065 N1058 0.984 . S
H1066 N1054 0.984 . S
H1067 N1054 0.985 . S
C1068 C1069 1.363 . S
C1068 C1074 1.379 . S
C1068 N1076 1.356 . S
C1069 C1068 1.363 . S
C1069 C1075 1.363 . S
C1070 C1071 1.363 . S
C1070 C1075 1.379 . S
C1070 N1077 1.356 . S
C1071 C1070 1.363 . S
C1071 C1074 1.363 . S
N1072 C1074 1.356 . S
N1072 H1084 0.984 . S
N1072 H1085 0.985 . S
N1073 C1075 1.356 . S
N1073 H1078 0.984 . S
N1073 H1079 0.985 . S
C1074 C1068 1.379 . S
C1074 C1071 1.363 . S
C1074 N1072 1.356 . S
C1075 C1069 1.363 . S
C1075 C1070 1.379 . S
C1075 N1073 1.356 . S
N1076 C1068 1.356 . S
N1076 H1082 0.984 . S
N1076 H1083 0.984 . S
N1077 C1070 1.356 . S
N1077 H1080 0.984 . S
N1077 H1081 0.985 . S
H1078 N1073 0.984 . S
H1079 N1073 0.985 . S
H1080 N1077 0.984 . S
H1081 N1077 0.985 . S
H1082 N1076 0.984 . S
H1083 N1076 0.984 . S
H1084 N1072 0.984 . S
H1085 N1072 0.985 . S
C1086 C1087 1.363 . S
C1086 C1092 1.379 . S
C1086 N1094 1.356 . S
C1087 C1086 1.363 . S
C1087 C1093 1.363 . S
C1088 C1089 1.363 . S
C1088 C1093 1.379 . S
C1088 N1095 1.356 . S
C1089 C1088 1.363 . S
C1089 C1092 1.363 . S
N1090 C1092 1.356 . S
N1090 H1102 0.984 . S
N1090 H1103 0.985 . S
N1091 C1093 1.356 . S
N1091 H1096 0.984 . S
N1091 H1097 0.985 . S
C1092 C1086 1.379 . S
C1092 C1089 1.363 . S
C1092 N1090 1.356 . S
C1093 C1087 1.363 . S
C1093 C1088 1.379 . S
C1093 N1091 1.356 . S
N1094 C1086 1.356 . S
N1094 H1100 0.984 . S
N1094 H1101 0.984 . S
N1095 C1088 1.356 . S
N1095 H1098 0.984 . S
N1095 H1099 0.985 . S
H1096 N1091 0.984 . S
H1097 N1091 0.985 . S
H1098 N1095 0.984 . S
H1099 N1095 0.985 . S
H1100 N1094 0.984 . S
H1101 N1094 0.984 . S
H1102 N1090 0.984 . S
H1103 N1090 0.985 . S
C1104 C1105 1.363 . S
C1104 C1110 1.379 . S
C1104 N1112 1.356 . S
C1105 C1104 1.363 . S
C1105 C1111 1.363 . S
C1106 C1107 1.363 . S
C1106 C1111 1.379 . S
C1106 N1113 1.356 . S
C1107 C1106 1.363 . S
C1107 C1110 1.363 . S
N1108 C1110 1.356 . S
N1108 H1120 0.984 . S
N1108 H1121 0.985 . S
N1109 C1111 1.356 . S
N1109 H1114 0.984 . S
N1109 H1115 0.985 . S
C1110 C1104 1.379 . S
C1110 C1107 1.363 . S
C1110 N1108 1.356 . S
C1111 C1105 1.363 . S
C1111 C1106 1.379 . S
C1111 N1109 1.356 . S
N1112 C1104 1.356 . S
N1112 H1118 0.984 . S
N1112 H1119 0.984 . S
N1113 C1106 1.356 . S
N1113 H1116 0.984 . S
N1113 H1117 0.985 . S
H1114 N1109 0.984 . S
H1115 N1109 0.985 . S
H1116 N1113 0.984 . S
H1117 N1113 0.985 . S
H1118 N1112 0.984 . S
H1119 N1112 0.984 . S
H1120 N1108 0.984 . S
H1121 N1108 0.985 . S
C1122 C1123 1.363 . S
C1122 C1128 1.379 . S
C1122 N1130 1.356 . S
C1123 C1122 1.363 . S
C1123 C1129 1.363 . S
C1124 C1125 1.363 . S
C1124 C1129 1.379 . S
C1124 N1131 1.356 . S
C1125 C1124 1.363 . S
C1125 C1128 1.363 . S
N1126 C1128 1.356 . S
N1126 H1138 0.984 . S
N1126 H1139 0.985 . S
N1127 C1129 1.356 . S
N1127 H1132 0.984 . S
N1127 H1133 0.985 . S
C1128 C1122 1.379 . S
C1128 C1125 1.363 . S
C1128 N1126 1.356 . S
C1129 C1123 1.363 . S
C1129 C1124 1.379 . S
C1129 N1127 1.356 . S
N1130 C1122 1.356 . S
N1130 H1136 0.984 . S
N1130 H1137 0.984 . S
N1131 C1124 1.356 . S
N1131 H1134 0.984 . S
N1131 H1135 0.985 . S
H1132 N1127 0.984 . S
H1133 N1127 0.985 . S
H1134 N1131 0.984 . S
H1135 N1131 0.985 . S
H1136 N1130 0.984 . S
H1137 N1130 0.984 . S
H1138 N1126 0.984 . S
H1139 N1126 0.985 . S
C1140 C1141 1.363 . S
C1140 C1146 1.379 . S
C1140 N1148 1.356 . S
C1141 C1140 1.363 . S
C1141 C1147 1.363 . S
C1142 C1143 1.363 . S
C1142 C1147 1.379 . S
C1142 N1149 1.356 . S
C1143 C1142 1.363 . S
C1143 C1146 1.363 . S
N1144 C1146 1.356 . S
N1144 H1156 0.984 . S
N1144 H1157 0.985 . S
N1145 C1147 1.356 . S
N1145 H1150 0.984 . S
N1145 H1151 0.985 . S
C1146 C1140 1.379 . S
C1146 C1143 1.363 . S
C1146 N1144 1.356 . S
C1147 C1141 1.363 . S
C1147 C1142 1.379 . S
C1147 N1145 1.356 . S
N1148 C1140 1.356 . S
N1148 H1154 0.984 . S
N1148 H1155 0.984 . S
N1149 C1142 1.356 . S
N1149 H1152 0.984 . S
N1149 H1153 0.985 . S
H1150 N1145 0.984 . S
H1151 N1145 0.985 . S
H1152 N1149 0.984 . S
H1153 N1149 0.985 . S
H1154 N1148 0.984 . S
H1155 N1148 0.984 . S
H1156 N1144 0.984 . S
H1157 N1144 0.985 . S
C1158 C1159 1.363 . S
C1158 C1164 1.379 . S
C1158 N1166 1.356 . S
C1159 C1158 1.363 . S
C1159 C1165 1.363 . S
C1160 C1161 1.363 . S
C1160 C1165 1.379 . S
C1160 N1167 1.356 . S
C1161 C1160 1.363 . S
C1161 C1164 1.363 . S
N1162 C1164 1.356 . S
N1162 H1174 0.984 . S
N1162 H1175 0.985 . S
N1163 C1165 1.356 . S
N1163 H1168 0.984 . S
N1163 H1169 0.985 . S
C1164 C1158 1.379 . S
C1164 C1161 1.363 . S
C1164 N1162 1.356 . S
C1165 C1159 1.363 . S
C1165 C1160 1.379 . S
C1165 N1163 1.356 . S
N1166 C1158 1.356 . S
N1166 H1172 0.984 . S
N1166 H1173 0.984 . S
N1167 C1160 1.356 . S
N1167 H1170 0.984 . S
N1167 H1171 0.985 . S
H1168 N1163 0.984 . S
H1169 N1163 0.985 . S
H1170 N1167 0.984 . S
H1171 N1167 0.985 . S
H1172 N1166 0.984 . S
H1173 N1166 0.984 . S
H1174 N1162 0.984 . S
H1175 N1162 0.985 . S
C1176 C1177 1.363 . S
C1176 C1182 1.379 . S
C1176 N1184 1.356 . S
C1177 C1176 1.363 . S
C1177 C1183 1.363 . S
C1178 C1179 1.363 . S
C1178 C1183 1.379 . S
C1178 N1185 1.356 . S
C1179 C1178 1.363 . S
C1179 C1182 1.363 . S
N1180 C1182 1.356 . S
N1180 H1192 0.984 . S
N1180 H1193 0.985 . S
N1181 C1183 1.356 . S
N1181 H1186 0.984 . S
N1181 H1187 0.985 . S
C1182 C1176 1.379 . S
C1182 C1179 1.363 . S
C1182 N1180 1.356 . S
C1183 C1177 1.363 . S
C1183 C1178 1.379 . S
C1183 N1181 1.356 . S
N1184 C1176 1.356 . S
N1184 H1190 0.984 . S
N1184 H1191 0.984 . S
N1185 C1178 1.356 . S
N1185 H1188 0.984 . S
N1185 H1189 0.985 . S
H1186 N1181 0.984 . S
H1187 N1181 0.985 . S
H1188 N1185 0.984 . S
H1189 N1185 0.985 . S
H1190 N1184 0.984 . S
H1191 N1184 0.984 . S
H1192 N1180 0.984 . S
H1193 N1180 0.985 . S
C1194 C1195 1.363 . S
C1194 C1200 1.379 . S
C1194 N1202 1.356 . S
C1195 C1194 1.363 . S
C1195 C1201 1.363 . S
C1196 C1197 1.363 . S
C1196 C1201 1.379 . S
C1196 N1203 1.356 . S
C1197 C1196 1.363 . S
C1197 C1200 1.363 . S
N1198 C1200 1.356 . S
N1198 H1210 0.984 . S
N1198 H1211 0.985 . S
N1199 C1201 1.356 . S
N1199 H1204 0.984 . S
N1199 H1205 0.985 . S
C1200 C1194 1.379 . S
C1200 C1197 1.363 . S
C1200 N1198 1.356 . S
C1201 C1195 1.363 . S
C1201 C1196 1.379 . S
C1201 N1199 1.356 . S
N1202 C1194 1.356 . S
N1202 H1208 0.984 . S
N1202 H1209 0.984 . S
N1203 C1196 1.356 . S
N1203 H1206 0.984 . S
N1203 H1207 0.985 . S
H1204 N1199 0.984 . S
H1205 N1199 0.985 . S
H1206 N1203 0.984 . S
H1207 N1203 0.985 . S
H1208 N1202 0.984 . S
H1209 N1202 0.984 . S
H1210 N1198 0.984 . S
H1211 N1198 0.985 . S
C1212 C1213 1.363 . S
C1212 C1218 1.379 . S
C1212 N1220 1.356 . S
C1213 C1212 1.363 . S
C1213 C1219 1.363 . S
C1214 C1215 1.363 . S
C1214 C1219 1.379 . S
C1214 N1221 1.356 . S
C1215 C1214 1.363 . S
C1215 C1218 1.363 . S
N1216 C1218 1.356 . S
N1216 H1228 0.984 . S
N1216 H1229 0.985 . S
N1217 C1219 1.356 . S
N1217 H1222 0.984 . S
N1217 H1223 0.985 . S
C1218 C1212 1.379 . S
C1218 C1215 1.363 . S
C1218 N1216 1.356 . S
C1219 C1213 1.363 . S
C1219 C1214 1.379 . S
C1219 N1217 1.356 . S
N1220 C1212 1.356 . S
N1220 H1226 0.984 . S
N1220 H1227 0.984 . S
N1221 C1214 1.356 . S
N1221 H1224 0.984 . S
N1221 H1225 0.985 . S
H1222 N1217 0.984 . S
H1223 N1217 0.985 . S
H1224 N1221 0.984 . S
H1225 N1221 0.985 . S
H1226 N1220 0.984 . S
H1227 N1220 0.984 . S
H1228 N1216 0.984 . S
H1229 N1216 0.985 . S
C1230 C1231 1.363 . S
C1230 C1236 1.379 . S
C1230 N1238 1.356 . S
C1231 C1230 1.363 . S
C1231 C1237 1.363 . S
C1232 C1233 1.363 . S
C1232 C1237 1.379 . S
C1232 N1239 1.356 . S
C1233 C1232 1.363 . S
C1233 C1236 1.363 . S
N1234 C1236 1.356 . S
N1234 H1246 0.984 . S
N1234 H1247 0.985 . S
N1235 C1237 1.356 . S
N1235 H1240 0.984 . S
N1235 H1241 0.985 . S
C1236 C1230 1.379 . S
C1236 C1233 1.363 . S
C1236 N1234 1.356 . S
C1237 C1231 1.363 . S
C1237 C1232 1.379 . S
C1237 N1235 1.356 . S
N1238 C1230 1.356 . S
N1238 H1244 0.984 . S
N1238 H1245 0.984 . S
N1239 C1232 1.356 . S
N1239 H1242 0.984 . S
N1239 H1243 0.985 . S
H1240 N1235 0.984 . S
H1241 N1235 0.985 . S
H1242 N1239 0.984 . S
H1243 N1239 0.985 . S
H1244 N1238 0.984 . S
H1245 N1238 0.984 . S
H1246 N1234 0.984 . S
H1247 N1234 0.985 . S
C529 C21 1.312 . S
C531 C516 1.312 . S
C547 C417 1.312 . S
C549 C54 1.312 . S
C565 C450 1.312 . S
C567 C87 1.312 . S
C583 C483 1.312 . S
C585 C120 1.312 . S
C601 C153 1.312 . S
C603 C318 1.312 . S
C619 C351 1.312 . S
C621 C186 1.312 . S
C637 C384 1.312 . S
C639 C219 1.312 . S
C655 C252 1.312 . S
C657 C285 1.312 . S
C673 C216 2.022 . S
C675 C18 2.022 . S
C691 C249 2.022 . S
C693 C51 2.022 . S
C709 C150 2.022 . S
C711 C84 2.022 . S
C727 C183 2.022 . S
C729 C117 2.022 . S
C745 N145 0.894 . S
C747 N79 0.894 . S
C763 N112 0.894 . S
C765 N178 0.894 . S
C781 N211 0.894 . S
C783 N13 0.894 . S
C799 N46 0.894 . S
C801 N244 0.894 . S
C817 C282 2.022 . S
C819 C480 2.022 . S
C835 C513 2.022 . S
C837 C315 2.022 . S
C853 C414 2.022 . S
C855 C348 2.022 . S
C871 C447 2.022 . S
C873 C381 2.022 . S
C889 N409 0.894 . S
C891 N343 0.894 . S
C907 N442 0.894 . S
C909 N376 0.894 . S
C925 N277 0.894 . S
C927 N475 0.894 . S
C943 N310 0.894 . S
C945 N508 0.894 . S
C961 N167 0.890 . S
C963 N2 0.890 . S
C979 N35 0.890 . S
C981 N200 0.890 . S
C997 N233 0.890 . S
C999 N68 0.890 . S
C1015 N101 0.890 . S
C1017 N134 0.890 . S
C1033 C73 2.241 . S
C1035 C238 2.241 . S
C1051 C139 2.241 . S
C1053 C106 2.241 . S
C1069 C172 2.241 . S
C1071 C7 2.241 . S
C1087 C40 2.241 . S
C1089 C205 2.241 . S
C1105 N431 0.890 . S
C1107 N266 0.890 . S
C1123 N299 0.890 . S
C1125 N464 0.890 . S
C1141 N497 0.890 . S
C1143 N332 0.890 . S
C1159 N365 0.890 . S
C1161 N398 0.890 . S
C1177 C502 2.241 . S
C1179 C337 2.241 . S
C1195 C370 2.241 . S
C1197 C403 2.241 . S
C1213 C436 2.241 . S
C1215 C271 2.241 . S
C1231 C304 2.241 . S
C1233 C469 2.241 . S
