# Generated by pormake.
# Topology sst, (4)-cn, num edge types: 1
# Building blocks:
#     Node 0, Type 0, BuildingBlock: MUDLON_clean_sbu_0, # of connection points: 4
#     Node 1, Type 0, BuildingBlock: MUDLON_clean_sbu_0, # of connection points: 4
#     Node 2, Type 0, BuildingBlock: MUDLON_clean_sbu_0, # of connection points: 4
#     Node 3, Type 0, BuildingBlock: MUDLON_clean_sbu_0, # of connection points: 4
#     Node 4, Type 0, BuildingBlock: MUDLON_clean_sbu_0, # of connection points: 4
#     Node 5, Type 0, BuildingBlock: MUDLON_clean_sbu_0, # of connection points: 4
#     Node 6, Type 0, BuildingBlock: MUDLON_clean_sbu_0, # of connection points: 4
#     Node 7, Type 0, BuildingBlock: MUDLON_clean_sbu_0, # of connection points: 4
#     Node 8, Type 0, BuildingBlock: MUDLON_clean_sbu_0, # of connection points: 4
#     Node 9, Type 0, BuildingBlock: MUDLON_clean_sbu_0, # of connection points: 4
#     Node 10, Type 0, BuildingBlock: MUDLON_clean_sbu_0, # of connection points: 4
#     Node 11, Type 0, BuildingBlock: MUDLON_clean_sbu_0, # of connection points: 4
#     Node 12, Type 0, BuildingBlock: MUDLON_clean_sbu_0, # of connection points: 4
#     Node 13, Type 0, BuildingBlock: MUDLON_clean_sbu_0, # of connection points: 4
#     Node 14, Type 0, BuildingBlock: MUDLON_clean_sbu_0, # of connection points: 4
#     Node 15, Type 0, BuildingBlock: MUDLON_clean_sbu_0, # of connection points: 4
#     Node 16, Type 0, BuildingBlock: MUDLON_clean_sbu_0, # of connection points: 4
#     Node 17, Type 0, BuildingBlock: MUDLON_clean_sbu_0, # of connection points: 4
#     Node 18, Type 0, BuildingBlock: MUDLON_clean_sbu_0, # of connection points: 4
#     Node 19, Type 0, BuildingBlock: MUDLON_clean_sbu_0, # of connection points: 4
#     Node 20, Type 0, BuildingBlock: MUDLON_clean_sbu_0, # of connection points: 4
#     Node 21, Type 0, BuildingBlock: MUDLON_clean_sbu_0, # of connection points: 4
#     Node 22, Type 0, BuildingBlock: MUDLON_clean_sbu_0, # of connection points: 4
#     Node 23, Type 0, BuildingBlock: MUDLON_clean_sbu_0, # of connection points: 4
#     Node 24, Type 0, BuildingBlock: MUDLON_clean_sbu_0, # of connection points: 4
#     Node 25, Type 0, BuildingBlock: MUDLON_clean_sbu_0, # of connection points: 4
#     Node 26, Type 0, BuildingBlock: MUDLON_clean_sbu_0, # of connection points: 4
#     Node 27, Type 0, BuildingBlock: MUDLON_clean_sbu_0, # of connection points: 4
#     Node 28, Type 0, BuildingBlock: MUDLON_clean_sbu_0, # of connection points: 4
#     Node 29, Type 0, BuildingBlock: MUDLON_clean_sbu_0, # of connection points: 4
#     Node 30, Type 0, BuildingBlock: MUDLON_clean_sbu_0, # of connection points: 4
#     Node 31, Type 0, BuildingBlock: MUDLON_clean_sbu_0, # of connection points: 4
#     Node 32, Type 0, BuildingBlock: MUDLON_clean_sbu_0, # of connection points: 4
#     Node 33, Type 0, BuildingBlock: MUDLON_clean_sbu_0, # of connection points: 4
#     Node 34, Type 0, BuildingBlock: MUDLON_clean_sbu_0, # of connection points: 4
#     Node 35, Type 0, BuildingBlock: MUDLON_clean_sbu_0, # of connection points: 4
#     Node 36, Type 0, BuildingBlock: MUDLON_clean_sbu_0, # of connection points: 4
#     Node 37, Type 0, BuildingBlock: MUDLON_clean_sbu_0, # of connection points: 4
#     Node 38, Type 0, BuildingBlock: MUDLON_clean_sbu_0, # of connection points: 4
#     Node 39, Type 0, BuildingBlock: MUDLON_clean_sbu_0, # of connection points: 4
#     Node 40, Type 0, BuildingBlock: MUDLON_clean_sbu_0, # of connection points: 4
#     Node 41, Type 0, BuildingBlock: MUDLON_clean_sbu_0, # of connection points: 4
#     Node 42, Type 0, BuildingBlock: MUDLON_clean_sbu_0, # of connection points: 4
#     Node 43, Type 0, BuildingBlock: MUDLON_clean_sbu_0, # of connection points: 4
#     Node 44, Type 0, BuildingBlock: MUDLON_clean_sbu_0, # of connection points: 4
#     Node 45, Type 0, BuildingBlock: MUDLON_clean_sbu_0, # of connection points: 4
#     Node 46, Type 0, BuildingBlock: MUDLON_clean_sbu_0, # of connection points: 4
#     Node 47, Type 0, BuildingBlock: MUDLON_clean_sbu_0, # of connection points: 4
#     Edge 48, Type (0, 0), BuildingBlock: KIFKEQ_clean_linker_1, # of connection points: 2
#     Edge 49, Type (0, 0), BuildingBlock: KIFKEQ_clean_linker_1, # of connection points: 2
#     Edge 50, Type (0, 0), BuildingBlock: KIFKEQ_clean_linker_1, # of connection points: 2
#     Edge 51, Type (0, 0), BuildingBlock: KIFKEQ_clean_linker_1, # of connection points: 2
#     Edge 52, Type (0, 0), BuildingBlock: KIFKEQ_clean_linker_1, # of connection points: 2
#     Edge 53, Type (0, 0), BuildingBlock: KIFKEQ_clean_linker_1, # of connection points: 2
#     Edge 54, Type (0, 0), BuildingBlock: KIFKEQ_clean_linker_1, # of connection points: 2
#     Edge 55, Type (0, 0), BuildingBlock: KIFKEQ_clean_linker_1, # of connection points: 2
#     Edge 56, Type (0, 0), BuildingBlock: KIFKEQ_clean_linker_1, # of connection points: 2
#     Edge 57, Type (0, 0), BuildingBlock: KIFKEQ_clean_linker_1, # of connection points: 2
#     Edge 58, Type (0, 0), BuildingBlock: KIFKEQ_clean_linker_1, # of connection points: 2
#     Edge 59, Type (0, 0), BuildingBlock: KIFKEQ_clean_linker_1, # of connection points: 2
#     Edge 60, Type (0, 0), BuildingBlock: KIFKEQ_clean_linker_1, # of connection points: 2
#     Edge 61, Type (0, 0), BuildingBlock: KIFKEQ_clean_linker_1, # of connection points: 2
#     Edge 62, Type (0, 0), BuildingBlock: KIFKEQ_clean_linker_1, # of connection points: 2
#     Edge 63, Type (0, 0), BuildingBlock: KIFKEQ_clean_linker_1, # of connection points: 2
#     Edge 64, Type (0, 0), BuildingBlock: KIFKEQ_clean_linker_1, # of connection points: 2
#     Edge 65, Type (0, 0), BuildingBlock: KIFKEQ_clean_linker_1, # of connection points: 2
#     Edge 66, Type (0, 0), BuildingBlock: KIFKEQ_clean_linker_1, # of connection points: 2
#     Edge 67, Type (0, 0), BuildingBlock: KIFKEQ_clean_linker_1, # of connection points: 2
#     Edge 68, Type (0, 0), BuildingBlock: KIFKEQ_clean_linker_1, # of connection points: 2
#     Edge 69, Type (0, 0), BuildingBlock: KIFKEQ_clean_linker_1, # of connection points: 2
#     Edge 70, Type (0, 0), BuildingBlock: KIFKEQ_clean_linker_1, # of connection points: 2
#     Edge 71, Type (0, 0), BuildingBlock: KIFKEQ_clean_linker_1, # of connection points: 2
#     Edge 72, Type (0, 0), BuildingBlock: KIFKEQ_clean_linker_1, # of connection points: 2
#     Edge 73, Type (0, 0), BuildingBlock: KIFKEQ_clean_linker_1, # of connection points: 2
#     Edge 74, Type (0, 0), BuildingBlock: KIFKEQ_clean_linker_1, # of connection points: 2
#     Edge 75, Type (0, 0), BuildingBlock: KIFKEQ_clean_linker_1, # of connection points: 2
#     Edge 76, Type (0, 0), BuildingBlock: KIFKEQ_clean_linker_1, # of connection points: 2
#     Edge 77, Type (0, 0), BuildingBlock: KIFKEQ_clean_linker_1, # of connection points: 2
#     Edge 78, Type (0, 0), BuildingBlock: KIFKEQ_clean_linker_1, # of connection points: 2
#     Edge 79, Type (0, 0), BuildingBlock: KIFKEQ_clean_linker_1, # of connection points: 2
#     Edge 80, Type (0, 0), BuildingBlock: KIFKEQ_clean_linker_1, # of connection points: 2
#     Edge 81, Type (0, 0), BuildingBlock: KIFKEQ_clean_linker_1, # of connection points: 2
#     Edge 82, Type (0, 0), BuildingBlock: KIFKEQ_clean_linker_1, # of connection points: 2
#     Edge 83, Type (0, 0), BuildingBlock: KIFKEQ_clean_linker_1, # of connection points: 2
#     Edge 84, Type (0, 0), BuildingBlock: KIFKEQ_clean_linker_1, # of connection points: 2
#     Edge 85, Type (0, 0), BuildingBlock: KIFKEQ_clean_linker_1, # of connection points: 2
#     Edge 86, Type (0, 0), BuildingBlock: KIFKEQ_clean_linker_1, # of connection points: 2
#     Edge 87, Type (0, 0), BuildingBlock: KIFKEQ_clean_linker_1, # of connection points: 2
#     Edge 88, Type (0, 0), BuildingBlock: KIFKEQ_clean_linker_1, # of connection points: 2
#     Edge 89, Type (0, 0), BuildingBlock: KIFKEQ_clean_linker_1, # of connection points: 2
#     Edge 90, Type (0, 0), BuildingBlock: KIFKEQ_clean_linker_1, # of connection points: 2
#     Edge 91, Type (0, 0), BuildingBlock: KIFKEQ_clean_linker_1, # of connection points: 2
#     Edge 92, Type (0, 0), BuildingBlock: KIFKEQ_clean_linker_1, # of connection points: 2
#     Edge 93, Type (0, 0), BuildingBlock: KIFKEQ_clean_linker_1, # of connection points: 2
#     Edge 94, Type (0, 0), BuildingBlock: KIFKEQ_clean_linker_1, # of connection points: 2
#     Edge 95, Type (0, 0), BuildingBlock: KIFKEQ_clean_linker_1, # of connection points: 2
#     Edge 96, Type (0, 0), BuildingBlock: KIFKEQ_clean_linker_1, # of connection points: 2
#     Edge 97, Type (0, 0), BuildingBlock: KIFKEQ_clean_linker_1, # of connection points: 2
#     Edge 98, Type (0, 0), BuildingBlock: KIFKEQ_clean_linker_1, # of connection points: 2
#     Edge 99, Type (0, 0), BuildingBlock: KIFKEQ_clean_linker_1, # of connection points: 2
#     Edge 100, Type (0, 0), BuildingBlock: KIFKEQ_clean_linker_1, # of connection points: 2
#     Edge 101, Type (0, 0), BuildingBlock: KIFKEQ_clean_linker_1, # of connection points: 2
#     Edge 102, Type (0, 0), BuildingBlock: KIFKEQ_clean_linker_1, # of connection points: 2
#     Edge 103, Type (0, 0), BuildingBlock: KIFKEQ_clean_linker_1, # of connection points: 2
#     Edge 104, Type (0, 0), BuildingBlock: KIFKEQ_clean_linker_1, # of connection points: 2
#     Edge 105, Type (0, 0), BuildingBlock: KIFKEQ_clean_linker_1, # of connection points: 2
#     Edge 106, Type (0, 0), BuildingBlock: KIFKEQ_clean_linker_1, # of connection points: 2
#     Edge 107, Type (0, 0), BuildingBlock: KIFKEQ_clean_linker_1, # of connection points: 2
#     Edge 108, Type (0, 0), BuildingBlock: KIFKEQ_clean_linker_1, # of connection points: 2
#     Edge 109, Type (0, 0), BuildingBlock: KIFKEQ_clean_linker_1, # of connection points: 2
#     Edge 110, Type (0, 0), BuildingBlock: KIFKEQ_clean_linker_1, # of connection points: 2
#     Edge 111, Type (0, 0), BuildingBlock: KIFKEQ_clean_linker_1, # of connection points: 2
#     Edge 112, Type (0, 0), BuildingBlock: KIFKEQ_clean_linker_1, # of connection points: 2
#     Edge 113, Type (0, 0), BuildingBlock: KIFKEQ_clean_linker_1, # of connection points: 2
#     Edge 114, Type (0, 0), BuildingBlock: KIFKEQ_clean_linker_1, # of connection points: 2
#     Edge 115, Type (0, 0), BuildingBlock: KIFKEQ_clean_linker_1, # of connection points: 2
#     Edge 116, Type (0, 0), BuildingBlock: KIFKEQ_clean_linker_1, # of connection points: 2
#     Edge 117, Type (0, 0), BuildingBlock: KIFKEQ_clean_linker_1, # of connection points: 2
#     Edge 118, Type (0, 0), BuildingBlock: KIFKEQ_clean_linker_1, # of connection points: 2
#     Edge 119, Type (0, 0), BuildingBlock: KIFKEQ_clean_linker_1, # of connection points: 2
#     Edge 120, Type (0, 0), BuildingBlock: KIFKEQ_clean_linker_1, # of connection points: 2
#     Edge 121, Type (0, 0), BuildingBlock: KIFKEQ_clean_linker_1, # of connection points: 2
#     Edge 122, Type (0, 0), BuildingBlock: KIFKEQ_clean_linker_1, # of connection points: 2
#     Edge 123, Type (0, 0), BuildingBlock: KIFKEQ_clean_linker_1, # of connection points: 2
#     Edge 124, Type (0, 0), BuildingBlock: KIFKEQ_clean_linker_1, # of connection points: 2
#     Edge 125, Type (0, 0), BuildingBlock: KIFKEQ_clean_linker_1, # of connection points: 2
#     Edge 126, Type (0, 0), BuildingBlock: KIFKEQ_clean_linker_1, # of connection points: 2
#     Edge 127, Type (0, 0), BuildingBlock: KIFKEQ_clean_linker_1, # of connection points: 2
#     Edge 128, Type (0, 0), BuildingBlock: KIFKEQ_clean_linker_1, # of connection points: 2
#     Edge 129, Type (0, 0), BuildingBlock: KIFKEQ_clean_linker_1, # of connection points: 2
#     Edge 130, Type (0, 0), BuildingBlock: KIFKEQ_clean_linker_1, # of connection points: 2
#     Edge 131, Type (0, 0), BuildingBlock: KIFKEQ_clean_linker_1, # of connection points: 2
#     Edge 132, Type (0, 0), BuildingBlock: KIFKEQ_clean_linker_1, # of connection points: 2
#     Edge 133, Type (0, 0), BuildingBlock: KIFKEQ_clean_linker_1, # of connection points: 2
#     Edge 134, Type (0, 0), BuildingBlock: KIFKEQ_clean_linker_1, # of connection points: 2
#     Edge 135, Type (0, 0), BuildingBlock: KIFKEQ_clean_linker_1, # of connection points: 2
#     Edge 136, Type (0, 0), BuildingBlock: KIFKEQ_clean_linker_1, # of connection points: 2
#     Edge 137, Type (0, 0), BuildingBlock: KIFKEQ_clean_linker_1, # of connection points: 2
#     Edge 138, Type (0, 0), BuildingBlock: KIFKEQ_clean_linker_1, # of connection points: 2
#     Edge 139, Type (0, 0), BuildingBlock: KIFKEQ_clean_linker_1, # of connection points: 2
#     Edge 140, Type (0, 0), BuildingBlock: KIFKEQ_clean_linker_1, # of connection points: 2
#     Edge 141, Type (0, 0), BuildingBlock: KIFKEQ_clean_linker_1, # of connection points: 2
#     Edge 142, Type (0, 0), BuildingBlock: KIFKEQ_clean_linker_1, # of connection points: 2
#     Edge 143, Type (0, 0), BuildingBlock: KIFKEQ_clean_linker_1, # of connection points: 2
# Relax obj value: 0.001
# Max RMSD: 0.020
# Mean RMSD: 0.015
data_MOF--net-sst--node1-MUDLON_clean_sbu_0--edge1-KIFKEQ_clean_linker_1
_symmetry_space_group_name_H-M    P1
_symmetry_Int_Tables_number       1
_symmetry_cell_setting            triclinic
loop_
_symmetry_equiv_pos_as_xyz
'x, y, z'
_cell_length_a     60.742732
_cell_length_b     60.519126
_cell_length_c     60.889171
_cell_angle_alpha  91.182615
_cell_angle_beta   90.979452
_cell_angle_gamma 91.267775
loop_
_atom_site_label
_atom_site_type_symbol
_atom_site_fract_x
_atom_site_fract_y
_atom_site_fract_z
_atom_type_partial_charge
Mg0 Mg 0.13228 0.16398 0.37 0.0
C1 C 0.11943 0.20918 0.38025 0.0
O2 O 0.1156 0.2059 0.35912 0.0
C3 C 0.12868 0.11506 0.36962 0.0
O4 O 0.1246 0.12044 0.34918 0.0
C5 C 0.08646 0.15493 0.35624 0.0
O6 O 0.08836 0.14708 0.37612 0.0
O7 O 0.10353 0.16334 0.34747 0.0
O8 O 0.12648 0.19303 0.39133 0.0
O9 O 0.16564 0.16902 0.35706 0.0
C10 C 0.17686 0.18667 0.36153 0.0
O11 O 0.16727 0.20321 0.37149 0.0
O12 O 0.13274 0.13052 0.38379 0.0
Mg13 Mg 0.89652 0.18534 0.37263 0.0
C14 C 0.92696 0.22308 0.38881 0.0
O15 O 0.94044 0.21266 0.37577 0.0
C16 C 0.88828 0.13741 0.38114 0.0
O17 O 0.87194 0.1421 0.36774 0.0
C18 C 0.85057 0.19256 0.38519 0.0
O19 O 0.86224 0.1937 0.40357 0.0
O20 O 0.86076 0.18924 0.3673 0.0
O21 O 0.90799 0.21446 0.39215 0.0
O22 O 0.91904 0.18517 0.34483 0.0
C23 C 0.92638 0.16708 0.33718 0.0
O24 O 0.91582 0.14858 0.3416 0.0
O25 O 0.90132 0.15308 0.3877 0.0
Mg26 Mg 0.92019 0.93387 0.43245 0.0
C27 C 0.9176 0.9747 0.40053 0.0
O28 O 0.91333 0.96056 0.38428 0.0
C29 C 0.94095 0.89378 0.41141 0.0
O30 O 0.95817 0.90258 0.42189 0.0
C31 C 0.87223 0.93448 0.42992 0.0
O32 O 0.87926 0.93951 0.41033 0.0
O33 O 0.88654 0.93059 0.44485 0.0
O34 O 0.92138 0.96757 0.41971 0.0
O35 O 0.94818 0.93142 0.45564 0.0
C36 C 0.96405 0.94538 0.45385 0.0
O37 O 0.96117 0.96245 0.44123 0.0
O38 O 0.92327 0.90474 0.41055 0.0
Mg39 Mg 0.15967 0.91239 0.41889 0.0
C40 C 0.13409 0.95147 0.40036 0.0
O41 O 0.11801 0.94295 0.41184 0.0
C42 C 0.16873 0.86424 0.41651 0.0
O43 O 0.1818 0.87205 0.43238 0.0
C44 C 0.11912 0.90148 0.44431 0.0
O45 O 0.11997 0.88447 0.43062 0.0
O46 O 0.1353 0.91529 0.44505 0.0
O47 O 0.15181 0.94077 0.3983 0.0
O48 O 0.19486 0.91865 0.42688 0.0
C49 C 0.20582 0.9274 0.41146 0.0
O50 O 0.19533 0.9323 0.39323 0.0
O51 O 0.15708 0.87791 0.40594 0.0
Mg52 Mg 0.16539 0.88088 0.61277 0.0
C53 C 0.17274 0.92854 0.6055 0.0
O54 O 0.18198 0.92516 0.62476 0.0
C55 C 0.17752 0.83339 0.60118 0.0
O56 O 0.19513 0.83927 0.61282 0.0
C57 C 0.11885 0.88032 0.61395 0.0
O58 O 0.12477 0.87712 0.59349 0.0
O59 O 0.13389 0.88232 0.62874 0.0
O60 O 0.16473 0.91195 0.59456 0.0
O61 O 0.19534 0.88172 0.63301 0.0
C62 C 0.21235 0.88438 0.62135 0.0
O63 O 0.20956 0.887 0.60011 0.0
O64 O 0.16344 0.848 0.5965 0.0
Mg65 Mg 0.13436 0.12374 0.64694 0.0
C66 C 0.11622 0.16954 0.63849 0.0
O67 O 0.0982 0.15965 0.64529 0.0
C68 C 0.14749 0.08984 0.61249 0.0
O69 O 0.16518 0.10274 0.61293 0.0
C70 C 0.08861 0.11225 0.66294 0.0
O71 O 0.08883 0.10109 0.64422 0.0
O72 O 0.10641 0.12193 0.66975 0.0
O73 O 0.13323 0.158 0.6353 0.0
O74 O 0.16831 0.11906 0.65962 0.0
C75 C 0.18322 0.13257 0.6533 0.0
O76 O 0.17722 0.14986 0.64217 0.0
O77 O 0.13078 0.09593 0.62324 0.0
Mg78 Mg 0.88819 0.1552 0.6732 0.0
C79 C 0.87272 0.20202 0.66399 0.0
O80 O 0.85384 0.19315 0.66985 0.0
C81 C 0.90824 0.12082 0.64368 0.0
O82 O 0.92639 0.132 0.64901 0.0
C83 C 0.84704 0.12887 0.6863 0.0
O84 O 0.86012 0.11223 0.68267 0.0
O85 O 0.85507 0.14851 0.68603 0.0
O86 O 0.8895 0.18979 0.6627 0.0
O87 O 0.91838 0.14836 0.69244 0.0
C88 C 0.93513 0.16121 0.69028 0.0
O89 O 0.93238 0.18007 0.68041 0.0
O90 O 0.8898 0.12927 0.64807 0.0
Mg91 Mg 0.91168 0.90775 0.64704 0.0
C92 C 0.91872 0.9548 0.64047 0.0
O93 O 0.92465 0.94483 0.6222 0.0
C94 C 0.92431 0.86925 0.67619 0.0
O95 O 0.94446 0.8766 0.67298 0.0
C96 C 0.86685 0.91655 0.62765 0.0
O97 O 0.87203 0.93639 0.63547 0.0
O98 O 0.88157 0.90187 0.62752 0.0
O99 O 0.91221 0.94293 0.65628 0.0
O100 O 0.94328 0.90186 0.63193 0.0
C101 C 0.95933 0.91136 0.64235 0.0
O102 O 0.95509 0.92396 0.65953 0.0
O103 O 0.9082 0.88124 0.67072 0.0
Mg104 Mg 0.41588 0.16144 0.1286 0.0
C105 C 0.43841 0.20465 0.14452 0.0
O106 O 0.43066 0.19835 0.16346 0.0
C107 C 0.41762 0.11349 0.12037 0.0
O108 O 0.39929 0.11951 0.11068 0.0
C109 C 0.41412 0.16345 0.08156 0.0
O110 O 0.43503 0.16428 0.08747 0.0
O111 O 0.39974 0.16243 0.09651 0.0
O112 O 0.43682 0.19139 0.12803 0.0
O113 O 0.39595 0.16472 0.15794 0.0
C114 C 0.3933 0.14846 0.17067 0.0
O115 O 0.39969 0.12883 0.16422 0.0
O116 O 0.43005 0.12841 0.1295 0.0
Mg117 Mg 0.92298 0.42624 0.1735 0.0
C118 C 0.96769 0.44223 0.19161 0.0
O119 O 0.9588 0.43589 0.21003 0.0
C120 C 0.87889 0.44665 0.16523 0.0
O121 O 0.88448 0.44218 0.1449 0.0
C122 C 0.93539 0.41117 0.12756 0.0
O123 O 0.95528 0.41332 0.13627 0.0
O124 O 0.91884 0.41317 0.13993 0.0
O125 O 0.95564 0.44247 0.17432 0.0
O126 O 0.92301 0.40348 0.20075 0.0
C127 C 0.9049 0.39775 0.20945 0.0
O128 O 0.88639 0.40115 0.19869 0.0
O129 O 0.89328 0.44479 0.18047 0.0
Mg130 Mg 0.66103 0.89978 0.15957 0.0
C131 C 0.6805 0.94427 0.1733 0.0
O132 O 0.66766 0.94008 0.18989 0.0
C133 C 0.66376 0.85271 0.1649 0.0
O134 O 0.64395 0.85833 0.17092 0.0
C135 C 0.64214 0.91524 0.11628 0.0
O136 O 0.65444 0.93248 0.12237 0.0
O137 O 0.6398 0.8995 0.12973 0.0
O138 O 0.68245 0.92949 0.1583 0.0
O139 O 0.64707 0.8991 0.19289 0.0
C140 C 0.66144 0.89302 0.20694 0.0
O141 O 0.68139 0.88906 0.20005 0.0
O142 O 0.67675 0.86763 0.15775 0.0
Mg143 Mg 0.13016 0.65285 0.14861 0.0
C144 C 0.17719 0.6633 0.1644 0.0
O145 O 0.17003 0.65289 0.18166 0.0
C146 C 0.08368 0.65986 0.15123 0.0
O147 O 0.08701 0.63893 0.15518 0.0
C148 C 0.12617 0.65129 0.10205 0.0
O149 O 0.12549 0.67203 0.10881 0.0
O150 O 0.12828 0.63641 0.11643 0.0
O151 O 0.16344 0.66795 0.14922 0.0
O152 O 0.12501 0.63589 0.17946 0.0
C153 C 0.13301 0.61923 0.18883 0.0
O154 O 0.14761 0.60723 0.17866 0.0
O155 O 0.10026 0.67244 0.14747 0.0
Mg156 Mg 0.39679 0.91201 0.89107 0.0
C157 C 0.37427 0.9545 0.90342 0.0
O158 O 0.3895 0.954 0.91897 0.0
C159 C 0.38564 0.86677 0.86986 0.0
O160 O 0.3938 0.87672 0.85274 0.0
C161 C 0.41526 0.93666 0.85246 0.0
O162 O 0.40444 0.95271 0.86191 0.0
O163 O 0.41647 0.91819 0.86201 0.0
O164 O 0.37197 0.93788 0.89032 0.0
O165 O 0.41542 0.91493 0.92221 0.0
C166 C 0.42509 0.89847 0.93037 0.0
O167 O 0.42511 0.87975 0.91905 0.0
O168 O 0.38382 0.8778 0.8878 0.0
Mg169 Mg 0.159 0.36348 0.92488 0.0
C170 C 0.20184 0.38119 0.94056 0.0
O171 O 0.2009 0.36086 0.94768 0.0
C172 C 0.11172 0.35649 0.92448 0.0
O173 O 0.12045 0.33697 0.92675 0.0
C174 C 0.17308 0.36463 0.87901 0.0
O175 O 0.17505 0.38501 0.88674 0.0
O176 O 0.16653 0.34962 0.892 0.0
O177 O 0.18494 0.38866 0.93077 0.0
O178 O 0.15935 0.34514 0.95587 0.0
C179 C 0.15028 0.35677 0.97078 0.0
O180 O 0.1423 0.37594 0.96534 0.0
O181 O 0.12461 0.37319 0.92235 0.0
Mg182 Mg 0.64527 0.13039 0.90138 0.0
C183 C 0.66022 0.17312 0.88096 0.0
O184 O 0.65326 0.16203 0.86333 0.0
C185 C 0.66559 0.08824 0.91785 0.0
O186 O 0.6549 0.09444 0.93542 0.0
C187 C 0.62629 0.11111 0.85864 0.0
O188 O 0.63697 0.09385 0.8655 0.0
O189 O 0.6249 0.12788 0.87143 0.0
O190 O 0.66145 0.16307 0.89912 0.0
O191 O 0.62706 0.1307 0.93217 0.0
C192 C 0.62552 0.14863 0.94328 0.0
O193 O 0.63271 0.16713 0.93474 0.0
O194 O 0.66611 0.10109 0.90153 0.0
Mg195 Mg 0.87536 0.67069 0.88203 0.0
C196 C 0.92311 0.66224 0.88557 0.0
O197 O 0.92163 0.68333 0.89079 0.0
C198 C 0.83571 0.64675 0.86295 0.0
O199 O 0.84688 0.65058 0.84509 0.0
C200 C 0.8834 0.68899 0.83624 0.0
O201 O 0.90215 0.6788 0.83846 0.0
O202 O 0.87069 0.69026 0.85258 0.0
O203 O 0.90554 0.65147 0.88014 0.0
O204 O 0.87643 0.68976 0.9132 0.0
C205 C 0.88478 0.68008 0.92964 0.0
O206 O 0.89204 0.65995 0.92678 0.0
O207 O 0.84482 0.65109 0.88158 0.0
Mg208 Mg 0.17207 0.39181 0.17213 0.0
C209 C 0.2194 0.39492 0.17449 0.0
O210 O 0.21347 0.37515 0.18106 0.0
C211 C 0.12668 0.40376 0.18275 0.0
O212 O 0.13016 0.38523 0.19299 0.0
C213 C 0.15246 0.36344 0.13391 0.0
O214 O 0.13391 0.37038 0.1421 0.0
O215 O 0.17041 0.36807 0.14428 0.0
O216 O 0.20434 0.40799 0.16853 0.0
O217 O 0.17506 0.38107 0.2063 0.0
C218 C 0.17645 0.39823 0.2188 0.0
O219 O 0.17506 0.41766 0.20969 0.0
O220 O 0.14222 0.41188 0.17138 0.0
Mg221 Mg 0.12467 0.62677 0.8903 0.0
C222 C 0.11488 0.63284 0.84482 0.0
O223 O 0.11206 0.61181 0.84923 0.0
C224 C 0.12515 0.62509 0.93738 0.0
O225 O 0.12395 0.60467 0.92961 0.0
C226 C 0.17177 0.62769 0.89443 0.0
O227 O 0.16446 0.64707 0.90064 0.0
O228 O 0.15768 0.61284 0.88802 0.0
O229 O 0.12114 0.64603 0.86043 0.0
O230 O 0.09287 0.60856 0.89004 0.0
C231 C 0.07847 0.62092 0.89865 0.0
O232 O 0.08475 0.64041 0.9066 0.0
O233 O 0.12593 0.64079 0.92374 0.0
Mg234 Mg 0.37487 0.15345 0.87235 0.0
C235 C 0.38305 0.19982 0.87532 0.0
O236 O 0.40143 0.18938 0.87909 0.0
C237 C 0.35433 0.10923 0.8593 0.0
O238 O 0.36703 0.11263 0.84241 0.0
C239 C 0.38685 0.15951 0.8268 0.0
O240 O 0.36855 0.17034 0.82946 0.0
O241 O 0.39514 0.14988 0.8433 0.0
O242 O 0.36551 0.18826 0.87164 0.0
O243 O 0.39041 0.15159 0.90463 0.0
C244 C 0.37657 0.15681 0.91922 0.0
O245 O 0.35661 0.162 0.91279 0.0
O246 O 0.35177 0.12508 0.87307 0.0
Mg247 Mg 0.90537 0.39583 0.92071 0.0
C248 C 0.94668 0.37006 0.93502 0.0
O249 O 0.93768 0.36967 0.95448 0.0
C250 C 0.8639 0.37497 0.93915 0.0
O251 O 0.87395 0.38108 0.95762 0.0
C252 C 0.90917 0.39996 0.87369 0.0
O253 O 0.91132 0.37894 0.87811 0.0
O254 O 0.90569 0.4134 0.88961 0.0
O255 O 0.93589 0.37767 0.9189 0.0
O256 O 0.90658 0.41415 0.95197 0.0
C257 C 0.92438 0.41994 0.96204 0.0
O258 O 0.94301 0.41929 0.95144 0.0
O259 O 0.87407 0.37719 0.92115 0.0
Mg260 Mg 0.66196 0.87817 0.91553 0.0
C261 C 0.67281 0.92403 0.90084 0.0
O262 O 0.65871 0.91679 0.88561 0.0
C263 C 0.67901 0.83895 0.94075 0.0
O264 O 0.669 0.84921 0.95682 0.0
C265 C 0.66436 0.86371 0.86899 0.0
O266 O 0.68402 0.86029 0.87741 0.0
O267 O 0.64967 0.87135 0.88165 0.0
O268 O 0.67898 0.91068 0.91555 0.0
O269 O 0.63907 0.87998 0.94318 0.0
C270 C 0.63475 0.89835 0.95259 0.0
O271 O 0.64047 0.91677 0.94294 0.0
O272 O 0.68103 0.84864 0.92249 0.0
Mg273 Mg 0.87509 0.69339 0.12728 0.0
C274 C 0.92151 0.69009 0.14186 0.0
O275 O 0.91386 0.706 0.15436 0.0
C276 C 0.83952 0.67028 0.09919 0.0
O277 O 0.85081 0.67979 0.08365 0.0
C278 C 0.89181 0.7199 0.08918 0.0
O279 O 0.91075 0.71473 0.09818 0.0
O280 O 0.87433 0.71661 0.10004 0.0
O281 O 0.90843 0.68014 0.12814 0.0
O282 O 0.86917 0.70335 0.16163 0.0
C283 C 0.86759 0.68623 0.17345 0.0
O284 O 0.86808 0.66677 0.16352 0.0
O285 O 0.84737 0.67087 0.11874 0.0
Mg286 Mg 0.42993 0.90149 0.13835 0.0
C287 C 0.43727 0.9 0.09224 0.0
O288 O 0.41594 0.89976 0.09542 0.0
C289 C 0.43068 0.88751 0.185 0.0
O290 O 0.41217 0.87868 0.17709 0.0
C291 C 0.43369 0.94884 0.14008 0.0
O292 O 0.45348 0.94104 0.14331 0.0
O293 O 0.4176 0.93506 0.13763 0.0
O294 O 0.45028 0.90105 0.10893 0.0
O295 O 0.40878 0.87228 0.13132 0.0
C296 C 0.42085 0.85563 0.12791 0.0
O297 O 0.44231 0.85849 0.12991 0.0
O298 O 0.44332 0.89778 0.17192 0.0
Mg299 Mg 0.6536 0.14251 0.1472 0.0
C300 C 0.65493 0.19095 0.1529 0.0
O301 O 0.63558 0.18469 0.16019 0.0
C302 C 0.68716 0.10674 0.16012 0.0
O303 O 0.68914 0.11808 0.17868 0.0
C304 C 0.62362 0.15302 0.10717 0.0
O305 O 0.62345 0.17295 0.11606 0.0
O306 O 0.63292 0.13761 0.11753 0.0
O307 O 0.66787 0.17612 0.14605 0.0
O308 O 0.6382 0.13981 0.17946 0.0
C309 C 0.65019 0.14795 0.19514 0.0
O310 O 0.66902 0.15762 0.19031 0.0
O311 O 0.67555 0.11436 0.14453 0.0
Mg312 Mg 0.63747 0.63827 0.90725 0.0
C313 C 0.66763 0.67399 0.92902 0.0
O314 O 0.68315 0.66142 0.92123 0.0
C315 C 0.63425 0.59045 0.90686 0.0
O316 O 0.62665 0.59659 0.88764 0.0
C317 C 0.58795 0.63356 0.90685 0.0
O318 O 0.59316 0.61975 0.92237 0.0
O319 O 0.60335 0.64344 0.8967 0.0
O320 O 0.64765 0.66719 0.92746 0.0
O321 O 0.66177 0.63517 0.88167 0.0
C322 C 0.67238 0.651 0.87302 0.0
O323 O 0.66562 0.6713 0.87596 0.0
O324 O 0.63979 0.60542 0.92106 0.0
Mg325 Mg 0.38036 0.65302 0.86734 0.0
C326 C 0.36708 0.69997 0.86885 0.0
O327 O 0.35817 0.69158 0.88643 0.0
C328 C 0.40064 0.61396 0.84249 0.0
O329 O 0.41924 0.62305 0.84977 0.0
C330 C 0.33429 0.63844 0.86933 0.0
O331 O 0.33923 0.63847 0.84841 0.0
O332 O 0.34926 0.64436 0.88335 0.0
O333 O 0.37711 0.68704 0.85579 0.0
O334 O 0.41145 0.65324 0.88621 0.0
C335 C 0.42687 0.6637 0.87663 0.0
O336 O 0.42191 0.67434 0.85867 0.0
O337 O 0.38298 0.62479 0.84434 0.0
Mg338 Mg 0.40198 0.40952 0.89377 0.0
C339 C 0.39689 0.45655 0.8824 0.0
O340 O 0.39001 0.45563 0.9027 0.0
C341 C 0.40874 0.36443 0.87221 0.0
O342 O 0.42951 0.37029 0.87552 0.0
C343 C 0.35571 0.41631 0.90148 0.0
O344 O 0.35824 0.41706 0.88011 0.0
O345 O 0.37269 0.41348 0.91359 0.0
O346 O 0.40399 0.43899 0.87332 0.0
O347 O 0.43322 0.40477 0.91152 0.0
C348 C 0.44687 0.42061 0.91576 0.0
O349 O 0.44124 0.44083 0.91107 0.0
O350 O 0.39398 0.37837 0.87645 0.0
Mg351 Mg 0.65392 0.37955 0.92058 0.0
C352 C 0.65836 0.42688 0.92521 0.0
O353 O 0.65749 0.4189 0.9451 0.0
C354 C 0.63928 0.3358 0.89917 0.0
O355 O 0.6224 0.33869 0.91204 0.0
C356 C 0.60813 0.39043 0.92115 0.0
O357 O 0.61603 0.39577 0.90197 0.0
O358 O 0.62097 0.38136 0.93493 0.0
O359 O 0.65835 0.41324 0.90897 0.0
O360 O 0.68457 0.37406 0.93918 0.0
C361 C 0.69948 0.36844 0.92576 0.0
O362 O 0.69441 0.36714 0.90472 0.0
O363 O 0.65345 0.35142 0.89739 0.0
Mg364 Mg 0.6725 0.4002 0.18315 0.0
C365 C 0.66594 0.44612 0.17786 0.0
O366 O 0.67248 0.44301 0.19823 0.0
C367 C 0.68625 0.35427 0.17076 0.0
O368 O 0.70162 0.36009 0.18533 0.0
C369 C 0.6291 0.38672 0.20185 0.0
O370 O 0.63244 0.37009 0.18821 0.0
O371 O 0.6449 0.40051 0.20583 0.0
O372 O 0.66373 0.42934 0.16496 0.0
O373 O 0.70647 0.40851 0.1942 0.0
C374 C 0.71727 0.41796 0.17911 0.0
O375 O 0.70755 0.42047 0.15992 0.0
O376 O 0.67205 0.36843 0.16532 0.0
Mg377 Mg 0.64048 0.65103 0.13126 0.0
C378 C 0.66896 0.68864 0.15319 0.0
O379 O 0.68575 0.67738 0.14609 0.0
C380 C 0.64139 0.60359 0.13351 0.0
O381 O 0.6382 0.60804 0.11268 0.0
C382 C 0.59455 0.66093 0.13963 0.0
O383 O 0.6054 0.66616 0.15792 0.0
O384 O 0.60537 0.65385 0.12325 0.0
O385 O 0.64955 0.68049 0.15076 0.0
O386 O 0.66522 0.64796 0.10589 0.0
C387 C 0.67571 0.66423 0.09789 0.0
O388 O 0.66809 0.68422 0.10072 0.0
O389 O 0.64294 0.6196 0.14739 0.0
Mg390 Mg 0.38482 0.65042 0.12082 0.0
C391 C 0.37336 0.69713 0.11435 0.0
O392 O 0.36266 0.69155 0.13202 0.0
C393 C 0.40632 0.61209 0.09762 0.0
O394 O 0.42346 0.62554 0.10037 0.0
C395 C 0.33699 0.64655 0.12516 0.0
O396 O 0.34072 0.6442 0.10405 0.0
O397 O 0.35353 0.6484 0.1383 0.0
O398 O 0.38394 0.68225 0.10409 0.0
O399 O 0.4161 0.65119 0.13934 0.0
C400 C 0.42847 0.66847 0.13957 0.0
O401 O 0.42035 0.6871 0.13277 0.0
O402 O 0.38729 0.61928 0.10205 0.0
Mg403 Mg 0.43081 0.41277 0.15448 0.0
C404 C 0.43825 0.45173 0.1197 0.0
O405 O 0.45319 0.44031 0.10939 0.0
C406 C 0.45244 0.37026 0.14068 0.0
O407 O 0.46882 0.38041 0.15135 0.0
C408 C 0.38273 0.41473 0.15333 0.0
O409 O 0.38884 0.41848 0.13312 0.0
O410 O 0.39759 0.41098 0.16775 0.0
O411 O 0.4289 0.44369 0.13638 0.0
O412 O 0.4577 0.41484 0.17906 0.0
C413 C 0.47435 0.42745 0.17582 0.0
O414 O 0.47356 0.44119 0.15941 0.0
O415 O 0.43484 0.38084 0.13714 0.0
Mg416 Mg 0.86882 0.67357 0.63695 0.0
C417 C 0.90133 0.70511 0.65987 0.0
O418 O 0.89583 0.69332 0.67688 0.0
C419 C 0.86314 0.62462 0.6335 0.0
O420 O 0.847 0.63168 0.62104 0.0
C421 C 0.87045 0.66654 0.58918 0.0
O422 O 0.88753 0.65634 0.5973 0.0
O423 O 0.85768 0.67621 0.60252 0.0
O424 O 0.89532 0.69824 0.64074 0.0
O425 O 0.84838 0.68501 0.6639 0.0
C426 C 0.84315 0.67191 0.67913 0.0
O427 O 0.84459 0.65053 0.67548 0.0
O428 O 0.87629 0.63881 0.64272 0.0
Mg429 Mg 0.41382 0.90545 0.64976 0.0
C430 C 0.45885 0.89679 0.63678 0.0
O431 O 0.45426 0.91554 0.62742 0.0
C432 C 0.37003 0.89255 0.66842 0.0
O433 O 0.37558 0.90923 0.68167 0.0
C434 C 0.40553 0.90293 0.60283 0.0
O435 O 0.40314 0.88268 0.60997 0.0
O436 O 0.40967 0.91848 0.61684 0.0
O437 O 0.44389 0.88698 0.64756 0.0
O438 O 0.41781 0.92786 0.67836 0.0
C439 C 0.43521 0.92682 0.69024 0.0
O440 O 0.45165 0.91515 0.68302 0.0
O441 O 0.38391 0.88588 0.65448 0.0
Mg442 Mg 0.16682 0.37602 0.6677 0.0
C443 C 0.1831 0.37142 0.62345 0.0
O444 O 0.1621 0.36581 0.6226 0.0
C445 C 0.17989 0.3563 0.71288 0.0
O446 O 0.1789 0.33741 0.70186 0.0
C447 C 0.15888 0.42404 0.67475 0.0
O448 O 0.17482 0.42007 0.68889 0.0
O449 O 0.15051 0.40786 0.66346 0.0
O450 O 0.19175 0.37723 0.64198 0.0
O451 O 0.1486 0.34521 0.65874 0.0
C452 C 0.13635 0.33308 0.67047 0.0
O453 O 0.13124 0.34 0.6903 0.0
O454 O 0.17723 0.37422 0.70256 0.0
Mg455 Mg 0.63774 0.11326 0.64948 0.0
C456 C 0.68248 0.10062 0.67004 0.0
O457 O 0.67099 0.10003 0.68809 0.0
C458 C 0.59172 0.10038 0.64531 0.0
O459 O 0.59288 0.12105 0.65234 0.0
C460 C 0.64291 0.12307 0.60375 0.0
O461 O 0.64848 0.10243 0.60651 0.0
O462 O 0.63716 0.13427 0.6206 0.0
O463 O 0.67249 0.10333 0.65172 0.0
O464 O 0.63012 0.1264 0.68239 0.0
C465 C 0.62234 0.11137 0.69465 0.0
O466 O 0.61988 0.09122 0.68642 0.0
O467 O 0.60967 0.09046 0.64168 0.0
Mg468 Mg 0.92819 0.4298 0.4109 0.0
C469 C 0.92503 0.47601 0.40213 0.0
O470 O 0.90511 0.46738 0.4039 0.0
C471 C 0.94264 0.38517 0.42464 0.0
O472 O 0.92916 0.39082 0.44029 0.0
C473 C 0.90293 0.4049 0.37377 0.0
O474 O 0.90837 0.38744 0.38493 0.0
O475 O 0.90639 0.42405 0.38236 0.0
O476 O 0.94133 0.46331 0.40475 0.0
O477 O 0.9144 0.43232 0.44372 0.0
C478 C 0.92902 0.43745 0.45833 0.0
O479 O 0.94913 0.442 0.45191 0.0
O480 O 0.94779 0.39953 0.41042 0.0
Mg481 Mg 0.66141 0.9023 0.41856 0.0
C482 C 0.70864 0.90435 0.43275 0.0
O483 O 0.70293 0.8836 0.43586 0.0
C484 C 0.6253 0.93535 0.40672 0.0
O485 O 0.6356 0.93599 0.38795 0.0
C486 C 0.64439 0.88774 0.37204 0.0
O487 O 0.62502 0.8879 0.38132 0.0
O488 O 0.66164 0.89145 0.38389 0.0
O489 O 0.69408 0.91739 0.42559 0.0
O490 O 0.65807 0.87626 0.44309 0.0
C491 C 0.64621 0.87996 0.45978 0.0
O492 O 0.63448 0.89792 0.46031 0.0
O493 O 0.63341 0.92426 0.42235 0.0
Mg494 Mg 0.12547 0.65178 0.39779 0.0
C495 C 0.14556 0.69737 0.41422 0.0
O496 O 0.1471 0.68754 0.43321 0.0
C497 C 0.14753 0.61527 0.42371 0.0
O498 O 0.13791 0.62511 0.44029 0.0
C499 C 0.13179 0.63875 0.35222 0.0
O500 O 0.15156 0.6405 0.36128 0.0
O501 O 0.11529 0.64316 0.36406 0.0
O502 O 0.13845 0.68623 0.39748 0.0
O503 O 0.10052 0.6479 0.42291 0.0
C504 C 0.09345 0.66387 0.4345 0.0
O505 O 0.09786 0.6842 0.42854 0.0
O506 O 0.14744 0.62448 0.40508 0.0
Mg507 Mg 0.38938 0.18244 0.38033 0.0
C508 C 0.42875 0.21079 0.3998 0.0
O509 O 0.41772 0.21003 0.41816 0.0
C510 C 0.34253 0.1814 0.37149 0.0
O511 O 0.34987 0.1615 0.36737 0.0
C512 C 0.38543 0.17988 0.33309 0.0
O513 O 0.38056 0.20016 0.33907 0.0
O514 O 0.39115 0.1665 0.34792 0.0
O515 O 0.41974 0.20294 0.3822 0.0
O516 O 0.38822 0.16134 0.40901 0.0
C517 C 0.40491 0.15656 0.42076 0.0
O518 O 0.4247 0.16196 0.414 0.0
O519 O 0.35619 0.19629 0.37869 0.0
Mg520 Mg 0.66529 0.85686 0.65579 0.0
C521 C 0.6784 0.83571 0.61234 0.0
O522 O 0.69753 0.84474 0.61811 0.0
C523 C 0.65833 0.86137 0.70303 0.0
O524 O 0.65394 0.88059 0.69452 0.0
C525 C 0.71213 0.86924 0.65954 0.0
O526 O 0.7104 0.85102 0.67084 0.0
O527 O 0.69464 0.87747 0.65175 0.0
O528 O 0.66328 0.83482 0.62659 0.0
O529 O 0.63404 0.8728 0.65183 0.0
C530 C 0.61867 0.8582 0.6524 0.0
O531 O 0.62401 0.83755 0.65549 0.0
O532 O 0.66438 0.84585 0.69009 0.0
Mg533 Mg 0.63679 0.18085 0.39884 0.0
C534 C 0.6182 0.16239 0.35544 0.0
O535 O 0.60292 0.17669 0.3601 0.0
C536 C 0.64123 0.1779 0.44734 0.0
O537 O 0.64455 0.19903 0.44369 0.0
C538 C 0.68501 0.18163 0.40027 0.0
O539 O 0.67867 0.16223 0.40751 0.0
O540 O 0.67018 0.19532 0.39512 0.0
O541 O 0.63337 0.15915 0.36966 0.0
O542 O 0.60734 0.20169 0.39915 0.0
C543 C 0.5915 0.19393 0.41039 0.0
O544 O 0.59468 0.17579 0.42137 0.0
O545 O 0.63761 0.16484 0.4309 0.0
Mg546 Mg 0.90119 0.68535 0.3847 0.0
C547 C 0.92341 0.72834 0.40222 0.0
O548 O 0.91824 0.72006 0.42128 0.0
C549 C 0.91241 0.6381 0.3742 0.0
O550 O 0.89548 0.6413 0.36105 0.0
C551 C 0.89765 0.68536 0.33667 0.0
O552 O 0.91871 0.68335 0.34134 0.0
O553 O 0.88423 0.68635 0.35252 0.0
O554 O 0.92003 0.71663 0.38484 0.0
O555 O 0.88134 0.68646 0.41458 0.0
C556 C 0.87639 0.66869 0.4244 0.0
O557 O 0.88069 0.64969 0.41476 0.0
O558 O 0.91972 0.65429 0.38617 0.0
Mg559 Mg 0.41743 0.92578 0.39245 0.0
C560 C 0.46262 0.9347 0.40634 0.0
O561 O 0.45747 0.91443 0.41198 0.0
C562 C 0.37043 0.92326 0.39471 0.0
O563 O 0.37814 0.90314 0.39507 0.0
C564 C 0.43772 0.90906 0.3499 0.0
O565 O 0.45437 0.92092 0.35809 0.0
O566 O 0.42051 0.90658 0.36144 0.0
O567 O 0.44791 0.94595 0.39673 0.0
O568 O 0.41546 0.91023 0.4246 0.0
C569 C 0.41177 0.92543 0.43882 0.0
O570 O 0.41003 0.94579 0.43199 0.0
O571 O 0.3841 0.93926 0.39198 0.0
Mg572 Mg 0.18066 0.40354 0.42759 0.0
C573 C 0.20059 0.4094 0.38263 0.0
O574 O 0.20188 0.43005 0.38974 0.0
C575 C 0.20685 0.38511 0.46546 0.0
O576 O 0.20256 0.36675 0.45414 0.0
C577 C 0.165 0.45012 0.44041 0.0
O578 O 0.16624 0.4424 0.46039 0.0
O579 O 0.16854 0.4372 0.42414 0.0
O580 O 0.19454 0.39454 0.39585 0.0
O581 O 0.15722 0.37632 0.43247 0.0
C582 C 0.1438 0.36939 0.41748 0.0
O583 O 0.1412 0.38118 0.39978 0.0
O584 O 0.2016 0.40341 0.45712 0.0
Mg585 Mg 0.39226 0.10577 0.62596 0.0
C586 C 0.38326 0.1123 0.57854 0.0
O587 O 0.37187 0.09418 0.58264 0.0
C588 C 0.40626 0.11364 0.67122 0.0
O589 O 0.40455 0.09207 0.66847 0.0
C590 C 0.43331 0.08227 0.61131 0.0
O591 O 0.42972 0.09444 0.59407 0.0
O592 O 0.41857 0.08124 0.62596 0.0
O593 O 0.39348 0.12227 0.59441 0.0
O594 O 0.35733 0.09721 0.63249 0.0
C595 C 0.34724 0.11342 0.64115 0.0
O596 O 0.35839 0.132 0.6449 0.0
O597 O 0.40243 0.12571 0.65476 0.0
Mg598 Mg 0.89335 0.4166 0.6655 0.0
C599 C 0.88608 0.46243 0.65456 0.0
O600 O 0.90684 0.45877 0.65047 0.0
C601 C 0.8926 0.3686 0.65979 0.0
O602 O 0.9128 0.37542 0.65581 0.0
C603 C 0.89933 0.41129 0.61866 0.0
O604 O 0.87913 0.40445 0.62259 0.0
O605 O 0.91178 0.41718 0.63491 0.0
O606 O 0.87409 0.44669 0.6618 0.0
O607 O 0.90984 0.42028 0.69773 0.0
C608 C 0.8981 0.42957 0.71228 0.0
O609 O 0.87888 0.43716 0.70625 0.0
O610 O 0.87849 0.38303 0.66504 0.0
Mg611 Mg 0.11982 0.63129 0.63671 0.0
C612 C 0.10852 0.6306 0.59076 0.0
O613 O 0.13003 0.62916 0.59251 0.0
C614 C 0.12118 0.64879 0.68235 0.0
O615 O 0.14114 0.65273 0.67519 0.0
C616 C 0.13 0.67572 0.6214 0.0
O617 O 0.10844 0.67353 0.62064 0.0
O618 O 0.14124 0.65969 0.62848 0.0
O619 O 0.09729 0.6303 0.60823 0.0
O620 O 0.13356 0.59795 0.63934 0.0
C621 C 0.12439 0.58551 0.65336 0.0
O622 O 0.10864 0.59369 0.66537 0.0
O623 O 0.10689 0.6401 0.66902 0.0
H624 H 0.09746 0.9761 0.39385 0.0
H625 H 0.1685 0.98026 0.39287 0.0
H626 H 0.09584 1.01577 0.38718 0.0
H627 H 0.16681 1.02006 0.38666 0.0
H628 H 0.15147 0.09471 0.40282 0.0
H629 H 0.153 0.0548 0.40947 0.0
H630 H 0.10689 0.04206 0.35577 0.0
H631 H 0.1057 0.08159 0.34887 0.0
C632 C 0.11272 0.98543 0.392 0.0
C633 C 0.1331 0.97494 0.39372 0.0
C634 C 0.11178 1.00816 0.38825 0.0
C635 C 0.1312 1.02106 0.38662 0.0
C636 C 0.15158 1.01058 0.38809 0.0
C637 C 0.15253 0.98774 0.39138 0.0
C638 C 0.14155 0.08337 0.39259 0.0
C639 C 0.12849 0.0913 0.37532 0.0
C640 C 0.14256 0.06055 0.39626 0.0
C641 C 0.13011 0.04531 0.38307 0.0
C642 C 0.1166 0.05337 0.36624 0.0
C643 C 0.11598 0.07602 0.36228 0.0
H644 H 0.05264 0.12624 0.36274 0.0
H645 H 0.07009 0.18435 0.32642 0.0
H646 H 1.01452 0.12924 0.35089 0.0
H647 H 0.03146 0.18743 0.31432 0.0
H648 H 0.95721 0.20101 0.33529 0.0
H649 H 0.99703 0.19723 0.33352 0.0
H650 H 0.98817 0.12719 0.32038 0.0
H651 H 0.94843 0.13083 0.32271 0.0
C652 C 0.04836 0.13944 0.35181 0.0
C653 C 0.06435 0.1551 0.34559 0.0
C654 C 0.02647 0.14109 0.34486 0.0
C655 C 1.01983 0.15859 0.33162 0.0
C656 C 0.036 0.17381 0.32458 0.0
C657 C 0.05813 0.17196 0.33136 0.0
C658 C 0.96369 0.18488 0.33149 0.0
C659 C 0.94958 0.16613 0.32975 0.0
C660 C 0.98659 0.18273 0.33036 0.0
C661 C 0.99585 0.16181 0.32733 0.0
C662 C 0.98161 0.14347 0.32328 0.0
C663 C 0.95877 0.1456 0.32449 0.0
H664 H 0.92641 1.00829 0.43048 0.0
H665 H 0.90418 0.99605 0.36347 0.0
H666 H 0.91998 0.04765 0.42647 0.0
H667 H 0.89807 0.03548 0.35938 0.0
H668 H 0.86357 0.10104 0.36858 0.0
H669 H 0.87209 0.06234 0.37307 0.0
H670 H 0.93228 0.08132 0.40795 0.0
H671 H 0.92361 0.12034 0.40363 0.0
C672 C 0.92037 1.014 0.4148 0.0
C673 C 0.91568 0.99891 0.39733 0.0
C674 C 0.91678 0.03663 0.41248 0.0
C675 C 0.90831 0.04477 0.39268 0.0
C676 C 0.90424 0.02976 0.37501 0.0
C677 C 0.90791 1.00714 0.37729 0.0
C678 C 0.87859 0.09706 0.37734 0.0
C679 C 0.89291 0.11389 0.38573 0.0
C680 C 0.88357 0.07478 0.37973 0.0
C681 C 0.90301 0.06864 0.39063 0.0
C682 C 0.91712 0.08544 0.39953 0.0
C683 C 0.91215 0.10782 0.39707 0.0
H684 H 1.00105 0.97142 0.45122 0.0
H685 H 0.97876 0.9073 0.47276 0.0
H686 H 0.03897 0.96045 0.45535 0.0
H687 H 1.017 0.8965 0.47781 0.0
H688 H 0.10744 0.93966 0.46623 0.0
H689 H 0.07028 0.95051 0.47591 0.0
H690 H 0.045 0.88646 0.45356 0.0
H691 H 0.08197 0.87545 0.44482 0.0
C692 C 1.00423 0.95514 0.45744 0.0
C693 C 0.98677 0.94014 0.46132 0.0
C694 C 1.02613 0.94886 0.45999 0.0
C695 C 0.03126 0.92742 0.46665 0.0
C696 C 1.01376 0.91299 0.47218 0.0
C697 C 0.99178 0.91925 0.4695 0.0
C698 C 0.09401 0.92771 0.46397 0.0
C699 C 0.09771 0.90677 0.45447 0.0
C700 C 0.07262 0.934 0.46932 0.0
C701 C 0.05441 0.91954 0.4652 0.0
C702 C 0.05845 0.89807 0.45719 0.0
C703 C 0.07978 0.89177 0.45198 0.0
H704 H 0.20055 0.9633 0.61356 0.0
H705 H 0.13756 0.94614 0.58335 0.0
H706 H 0.19319 1.00236 0.60955 0.0
H707 H 0.12997 0.98566 0.57943 0.0
H708 H 0.11682 0.05577 0.61481 0.0
H709 H 0.12267 1.01652 0.60714 0.0
H710 H 0.18746 0.03224 0.5831 0.0
H711 H 0.18175 0.07131 0.59083 0.0
C712 C 0.18531 0.96792 0.60556 0.0
C713 C 0.16968 0.95166 0.5987 0.0
C714 C 0.18109 0.99035 0.6032 0.0
C715 C 0.16095 0.9972 0.59421 0.0
C716 C 0.1456 0.98092 0.58651 0.0
C717 C 0.15003 0.95832 0.58853 0.0
C718 C 0.1321 0.05093 0.6074 0.0
C719 C 0.14892 0.06674 0.60375 0.0
C720 C 0.13543 0.0284 0.60293 0.0
C721 C 0.15566 1.02119 0.59478 0.0
C722 C 0.17182 0.03718 0.58969 0.0
C723 C 0.16849 0.05964 0.59407 0.0
H724 H 0.9735 0.18557 0.69075 0.0
H725 H 0.94866 0.11861 0.69669 0.0
H726 H 1.0109 0.17218 0.68883 0.0
H727 H 0.98629 0.10516 0.69517 0.0
H728 H 0.07873 0.14427 0.69392 0.0
H729 H 0.04212 0.15494 0.70593 0.0
H730 H 1.01289 0.10153 0.66646 0.0
H731 H 0.04927 0.09073 0.65487 0.0
C732 C 0.97605 0.168 0.69219 0.0
C733 C 0.95797 0.1532 0.69376 0.0
C734 C 0.99761 0.16029 0.69119 0.0
C735 C 1.00176 0.13752 0.69163 0.0
C736 C 0.98376 0.12278 0.69445 0.0
C737 C 0.96215 0.13052 0.69557 0.0
C738 C 0.06452 0.1345 0.68823 0.0
C739 C 0.06701 0.11668 0.67333 0.0
C740 C 0.04347 0.14074 0.69495 0.0
C741 C 1.02439 0.12924 0.68707 0.0
C742 C 0.02708 0.1107 0.67312 0.0
C743 C 0.04804 0.10456 0.66633 0.0
H744 H 0.94477 0.09675 0.63515 0.0
H745 H 0.87434 0.09009 0.64286 0.0
H746 H 0.94762 0.05661 0.63463 0.0
H747 H 0.87729 0.04994 0.64239 0.0
H748 H 0.89642 0.98159 0.66911 0.0
H749 H 0.89353 1.02192 0.66796 0.0
H750 H 0.93656 1.02326 0.61226 0.0
H751 H 0.9395 0.98326 0.61342 0.0
C752 C 0.92984 0.08675 0.63631 0.0
C753 C 0.90934 0.0967 0.6391 0.0
C754 C 0.93149 0.06374 0.63609 0.0
C755 C 0.91272 0.05013 0.63881 0.0
C756 C 0.8921 0.06001 0.64068 0.0
C757 C 0.8904 0.08303 0.64068 0.0
C758 C 0.90541 0.99056 0.65679 0.0
C759 C 0.91818 0.97925 0.64137 0.0
C760 C 0.90359 1.01359 0.65597 0.0
C761 C 0.91472 1.02573 0.63991 0.0
C762 C 0.92788 1.01442 0.62488 0.0
C763 C 0.9295 0.99147 0.62554 0.0
H764 H 0.08437 0.8774 0.58496 0.0
H765 H 0.09995 0.88936 0.65377 0.0
H766 H 0.0459 0.88434 0.59167 0.0
H767 H 0.06101 0.89574 0.66064 0.0
H768 H 0.99608 0.93249 0.65896 0.0
H769 H 0.03431 0.92361 0.65272 0.0
H770 H 1.01332 0.87001 0.60868 0.0
H771 H 0.9749 0.8793 0.61455 0.0
C772 C 0.07955 0.88127 0.60162 0.0
C773 C 0.09527 0.88296 0.61884 0.0
C774 C 0.05739 0.88511 0.60547 0.0
C775 C 0.05034 0.89066 0.62666 0.0
C776 C 0.06597 0.89182 0.64404 0.0
C777 C 0.08824 0.88802 0.64016 0.0
C778 C 0.99959 0.91886 0.64785 0.0
C779 C 0.98246 0.90661 0.6372 0.0
C780 C 1.02153 0.91363 0.64446 0.0
C781 C 0.02691 0.89597 0.63038 0.0
C782 C 1.00976 0.88385 0.6195 0.0
C783 C 0.98775 0.88916 0.62284 0.0
H784 H 0.37371 0.15374 0.06236 0.0
H785 H 0.44097 0.17151 0.04727 0.0
H786 H 0.36475 0.15106 1.02309 0.0
H787 H 0.43195 0.16951 1.00828 0.0
H788 H 0.4144 0.14293 0.93959 0.0
H789 H 0.42299 0.1438 0.97898 0.0
H790 H 0.36029 0.17355 0.99162 0.0
H791 H 0.3515 0.17204 0.9526 0.0
C792 C 0.3865 0.15727 0.05068 0.0
C793 C 0.40803 0.1628 0.05792 0.0
C794 C 0.3814 0.1558 0.02817 0.0
C795 C 0.39767 0.15998 1.01247 0.0
C796 C 0.41911 0.16574 1.01983 0.0
C797 C 0.42423 0.16707 0.04225 0.0
C798 C 0.40248 0.14961 0.95082 0.0
C799 C 0.38229 0.15739 0.94296 0.0
C800 C 0.40742 0.15021 0.97338 0.0
C801 C 0.39231 0.15874 0.98852 0.0
C802 C 0.37215 0.16651 0.98054 0.0
C803 C 0.36719 0.16579 0.95809 0.0
H804 H 0.95887 0.43263 0.98937 0.0
H805 H 0.89064 0.41103 0.99 0.0
H806 H 0.96075 0.43061 0.02927 0.0
H807 H 0.89277 0.40787 0.02963 0.0
H808 H 0.89847 0.42094 0.10355 0.0
H809 H 0.89531 0.42535 0.06401 0.0
H810 H 0.96249 0.40445 0.05699 0.0
H811 H 0.96589 0.40114 0.09667 0.0
C812 C 0.94422 0.42759 0.99802 0.0
C813 C 0.92464 0.42194 0.98641 0.0
C814 C 0.94536 0.42612 1.02094 0.0
C815 C 0.92703 0.41868 0.03284 0.0
C816 C 0.90721 0.41384 1.02122 0.0
C817 C 0.906 0.4156 0.99836 0.0
C818 C 0.91249 0.41705 0.09354 0.0
C819 C 0.93245 0.41071 0.10331 0.0
C820 C 0.91069 0.41957 0.07078 0.0
C821 C 0.92871 0.41551 0.05712 0.0
C822 C 0.94841 0.40834 0.06691 0.0
C823 C 0.9503 0.40614 0.08969 0.0
H824 H 0.6191 0.93361 0.97581 0.0
H825 H 0.63604 0.8652 0.98278 0.0
H826 H 0.61515 0.9373 1.01541 0.0
H827 H 0.63327 0.86912 1.02251 0.0
H828 H 0.62163 0.87936 0.09504 0.0
H829 H 0.6141 0.87456 0.05558 0.0
H830 H 0.63944 0.94076 0.04519 0.0
H831 H 0.64602 0.94574 0.08425 0.0
C832 C 0.62176 0.91926 0.98578 0.0
C833 C 0.62818 0.8992 0.97606 0.0
C834 C 0.61972 0.92142 1.0086 0.0
C835 C 0.62443 0.90369 1.02245 0.0
C836 C 0.62941 0.88318 1.01256 0.0
C837 C 0.63111 0.88093 0.98966 0.0
C838 C 0.62513 0.89302 0.08433 0.0
C839 C 0.63452 0.91291 0.09291 0.0
C840 C 0.62102 0.89021 0.06162 0.0
C841 C 0.62623 0.90719 0.04693 0.0
C842 C 0.63479 0.92735 0.05577 0.0
C843 C 0.63876 0.93018 0.07835 0.0
H844 H 0.13435 0.66382 0.96048 0.0
H845 H 0.11608 0.59517 0.96884 0.0
H846 H 0.13501 0.66945 1.00034 0.0
H847 H 0.11594 0.60089 1.0084 0.0
H848 H 0.13823 0.6134 0.07992 0.0
H849 H 0.13868 0.60719 0.04007 0.0
H850 H 0.11131 0.67172 0.03065 0.0
H851 H 0.11163 0.6781 0.07008 0.0
C852 C 0.13031 0.65 0.9708 0.0
C853 C 0.12519 0.62909 0.96148 0.0
C854 C 0.13058 0.6532 0.99367 0.0
C855 C 0.12551 0.6356 1.0077 0.0
C856 C 0.12032 0.61473 0.99825 0.0
C857 C 0.12025 0.61151 0.97547 0.0
C858 C 0.13222 0.62614 0.06927 0.0
C859 C 0.12502 0.64625 0.07815 0.0
C860 C 0.13243 0.62262 0.04643 0.0
C861 C 0.12522 0.63906 0.03203 0.0
C862 C 0.11752 0.6589 0.04109 0.0
C863 C 0.11752 0.66248 0.06379 0.0
H864 H 0.46046 0.93025 0.06852 0.0
H865 H 0.42909 0.86571 0.06446 0.0
H866 H 0.46314 0.93034 0.02826 0.0
H867 H 0.43168 0.8656 0.02461 0.0
H868 H 0.44489 0.86563 0.9532 0.0
H869 H 0.45472 0.86554 0.99217 0.0
H870 H 0.4345 0.93326 0.9989 0.0
H871 H 0.42491 0.93348 0.95982 0.0
C872 C 0.45497 0.91575 0.05905 0.0
C873 C 0.44489 0.89782 0.06949 0.0
C874 C 0.4562 0.9159 0.03602 0.0
C875 C 0.44752 0.89802 1.02315 0.0
C876 C 0.4388 0.87952 0.0339 0.0
C877 C 0.43733 0.87953 0.05677 0.0
C878 C 0.44285 0.88064 0.96287 0.0
C879 C 0.43382 0.89948 0.95337 0.0
C880 C 0.44846 0.88055 0.98527 0.0
C881 C 0.44524 0.89932 0.99876 0.0
C882 C 0.4374 0.91857 0.989 0.0
C883 C 0.43174 0.91865 0.96658 0.0
H884 H 0.17913 0.3314 0.99463 0.0
H885 H 0.11953 0.36848 0.99992 0.0
H886 H 0.1798 0.32695 0.03474 0.0
H887 H 0.12024 0.36438 0.03938 0.0
H888 H 0.11744 0.34802 0.10888 0.0
H889 H 0.11646 0.33999 0.06952 0.0
H890 H 0.1868 0.35139 0.06715 0.0
H891 H 0.18786 0.35883 0.10674 0.0
C892 C 0.16594 0.33813 1.00427 0.0
C893 C 0.14931 0.35033 0.99414 0.0
C894 C 0.16642 0.33579 0.02724 0.0
C895 C 0.15008 0.34532 0.04041 0.0
C896 C 0.13293 0.3565 0.02993 0.0
C897 C 0.1326 0.35901 1.00721 0.0
C898 C 0.13279 0.34836 0.10008 0.0
C899 C 0.15267 0.35439 0.11098 0.0
C900 C 0.13222 0.34386 0.07744 0.0
C901 C 0.15149 0.34546 0.06498 0.0
C902 C 0.17164 0.3499 0.07615 0.0
C903 C 0.17224 0.35426 0.0989 0.0
H904 H 0.63281 0.118 0.07984 0.0
H905 H 0.60027 0.18073 0.08109 0.0
H906 H 0.62865 0.11603 0.04005 0.0
H907 H 0.59529 0.17838 0.04131 0.0
H908 H 0.6239 0.18372 0.97199 0.0
H909 H 0.61877 0.18309 1.01135 0.0
H910 H 0.60687 0.11242 1.00738 0.0
H911 H 0.61284 0.11299 0.96781 0.0
C912 C 0.62421 0.1311 0.07169 0.0
C913 C 0.61715 0.14968 0.08367 0.0
C914 C 0.62173 0.12993 0.04878 0.0
C915 C 0.61192 0.14722 0.03728 0.0
C916 C 0.60344 0.16502 0.04949 0.0
C917 C 0.60613 0.1663 0.07236 0.0
C918 C 0.6199 0.16805 0.9794 0.0
C919 C 0.61899 0.14838 0.9667 0.0
C920 C 0.61677 0.1677 1.00208 0.0
C921 C 0.61248 0.14768 1.01274 0.0
C922 C 0.61051 0.12811 0.99985 0.0
C923 C 0.61376 0.12845 0.9771 0.0
H924 H 0.86113 0.71486 0.94635 0.0
H925 H 0.91203 0.66919 0.96325 0.0
H926 H 0.86272 0.73013 0.98413 0.0
H927 H 0.91369 0.68437 1.00049 0.0
H928 H 0.92589 0.72433 0.06086 0.0
H929 H 0.92447 0.71913 1.02112 0.0
H930 H 0.85347 0.71563 1.02241 0.0
H931 H 0.85479 0.72104 0.06234 0.0
C932 C 0.87281 0.70828 0.95801 0.0
C933 C 0.88641 0.69077 0.95182 0.0
C934 C 0.87364 0.71694 0.97963 0.0
C935 C 0.88843 0.70856 0.99529 0.0
C936 C 0.90235 0.69145 0.98881 0.0
C937 C 0.90127 0.68261 0.96745 0.0
C938 C 0.90991 0.72301 0.0527 0.0
C939 C 0.89047 0.72267 0.06494 0.0
C940 C 0.90912 0.7199 0.02989 0.0
C941 C 0.88888 0.71649 1.01865 0.0
C942 C 0.86933 0.71818 0.03057 0.0
C943 C 0.87011 0.72125 0.0535 0.0
H944 H 0.0949 0.39418 0.21196 0.0
H945 H 0.10863 0.43647 0.15736 0.0
H946 H 0.05801 0.40826 0.21397 0.0
H947 H 0.0712 0.45099 0.15956 0.0
H948 H 0.99297 0.44275 0.15453 0.0
H949 H 0.03268 0.43757 0.15263 0.0
H950 H 0.03744 0.44059 0.22347 0.0
H951 H 0.9978 0.44521 0.22539 0.0
C952 C 0.09012 0.4067 0.20046 0.0
C953 C 0.10477 0.41412 0.18444 0.0
C954 C 0.06892 0.41497 0.20177 0.0
C955 C 0.06158 0.43092 0.18705 0.0
C956 C 0.0763 0.43866 0.17112 0.0
C957 C 0.09776 0.43044 0.16993 0.0
C958 C 1.00255 0.44281 0.1697 0.0
C959 C 0.9921 0.44405 0.19014 0.0
C960 C 1.02538 0.43988 0.16859 0.0
C961 C 0.03824 0.43821 0.1879 0.0
C962 C 0.02798 0.44125 0.20827 0.0
C963 C 1.00523 0.44404 0.20937 0.0
H964 H 0.05265 0.60862 0.86289 0.0
H965 H 0.05062 0.62372 0.93232 0.0
H966 H 1.01273 0.61418 0.85986 0.0
H967 H 1.01101 0.62885 0.92946 0.0
H968 H 0.9598 0.67853 0.90662 0.0
H969 H 0.99553 0.66184 0.91029 0.0
H970 H 0.97197 0.60472 0.8725 0.0
H971 H 0.93554 0.62158 0.86889 0.0
C972 C 0.04348 0.61197 0.87765 0.0
C973 C 0.05462 0.61573 0.89785 0.0
C974 C 1.02068 0.6153 0.87591 0.0
C975 C 1.00885 0.62242 0.89435 0.0
C976 C 1.01974 0.62377 0.9149 0.0
C977 C 0.04238 0.62061 0.91659 0.0
C978 C 0.96207 0.66239 0.89909 0.0
C979 C 0.94475 0.65141 0.88746 0.0
C980 C 0.98256 0.65272 0.90136 0.0
C981 C 0.98651 0.63182 0.89193 0.0
C982 C 0.96935 0.62081 0.88002 0.0
C983 C 0.94854 0.63042 0.878 0.0
H984 H 0.37575 0.99251 0.92835 0.0
H985 H 0.34888 0.96493 0.86738 0.0
H986 H 0.36455 0.02907 0.91766 0.0
H987 H 0.33707 1.00162 0.85685 0.0
H988 H 0.35735 0.07218 0.83335 0.0
H989 H 0.35622 0.03402 0.84483 0.0
H990 H 0.33664 0.05521 0.90967 0.0
H991 H 0.33838 0.09367 0.89826 0.0
C992 C 0.36696 0.99415 0.91286 0.0
C993 C 0.36347 0.97575 0.89863 0.0
C994 C 0.36036 1.01519 0.90677 0.0
C995 C 0.35005 1.01847 0.88626 0.0
C996 C 0.34529 0.99982 0.87261 0.0
C997 C 0.35191 0.97871 0.87873 0.0
C998 C 0.35233 0.06873 0.84994 0.0
C999 C 0.34827 0.08609 0.86495 0.0
C1000 C 0.35155 0.04672 0.85652 0.0
C1001 C 0.34665 0.04142 0.87832 0.0
C1002 C 0.34092 0.05867 0.89288 0.0
C1003 C 0.34169 0.08075 0.88627 0.0
H1004 H 0.08221 0.32545 0.93799 0.0
H1005 H 0.08633 0.39199 0.91374 0.0
H1006 H 0.0424 0.32797 0.94016 0.0
H1007 H 0.04614 0.39443 0.91586 0.0
H1008 H 0.97243 0.37901 0.89974 0.0
H1009 H 1.01229 0.37608 0.89719 0.0
H1010 H 1.01503 0.34937 0.96233 0.0
H1011 H 0.97509 0.3524 0.96504 0.0
C1012 C 0.07463 0.34065 0.93307 0.0
C1013 C 0.08748 0.35853 0.92563 0.0
C1014 C 0.05179 0.3421 0.93445 0.0
C1015 C 0.04115 0.36137 0.9282 0.0
C1016 C 0.05391 0.37928 0.92064 0.0
C1017 C 0.0769 0.37794 0.91952 0.0
C1018 C 0.98146 0.37228 0.91347 0.0
C1019 C 0.97051 0.36588 0.93261 0.0
C1020 C 1.00434 0.37084 0.91206 0.0
C1021 C 1.0168 0.36268 0.92961 0.0
C1022 C 1.00584 0.35566 0.9485 0.0
C1023 C 0.98296 0.35737 0.95004 0.0
H1024 H 0.68289 0.06708 0.88183 0.0
H1025 H 0.66561 0.05684 0.94944 0.0
H1026 H 0.69025 0.02773 0.87746 0.0
H1027 H 0.67232 1.01761 0.94493 0.0
H1028 H 0.66451 0.95513 0.87029 0.0
H1029 H 0.66774 0.995 0.87455 0.0
H1030 H 0.69703 0.98781 0.9391 0.0
H1031 H 0.69321 0.94758 0.935 0.0
C1032 C 0.68097 0.05653 0.89585 0.0
C1033 C 0.67345 0.06516 0.91592 0.0
C1034 C 0.68503 0.0339 0.89331 0.0
C1035 C 0.68164 1.01931 0.91076 0.0
C1036 C 0.67533 0.02823 0.93116 0.0
C1037 C 0.67132 0.05082 0.9337 0.0
C1038 C 0.67195 0.96197 0.8853 0.0
C1039 C 0.6784 0.94808 0.90239 0.0
C1040 C 0.67397 0.98495 0.88768 0.0
C1041 C 0.68253 0.99479 0.90724 0.0
C1042 C 0.69005 0.98086 0.92393 0.0
C1043 C 0.68804 0.95777 0.92152 0.0
H1044 H 0.06404 0.68812 0.12244 0.0
H1045 H 0.05158 0.64794 0.17881 0.0
H1046 H 1.02437 0.69565 0.11936 0.0
H1047 H 1.01242 0.65582 0.1761 0.0
H1048 H 0.94892 0.6968 0.17702 0.0
H1049 H 0.98861 0.69162 0.17921 0.0
H1050 H 0.98803 0.66858 0.11167 0.0
H1051 H 0.94792 0.6734 0.10952 0.0
C1052 C 0.05291 0.68136 0.13441 0.0
C1053 C 0.0608 0.6676 0.15095 0.0
C1054 C 0.03027 0.68542 0.13251 0.0
C1055 C 1.01539 0.6762 0.14744 0.0
C1056 C 1.02352 0.66316 0.16441 0.0
C1057 C 0.04592 0.65871 0.16599 0.0
C1058 C 0.9572 0.69051 0.16265 0.0
C1059 C 0.9453 0.68535 0.14314 0.0
C1060 C 0.97992 0.68761 0.16391 0.0
C1061 C 0.99137 0.67989 0.14557 0.0
C1062 C 0.97957 0.67478 0.12597 0.0
C1063 C 0.95665 0.67727 0.12483 0.0
H1064 H 0.39744 0.07937 0.09772 0.0
H1065 H 0.44653 0.09339 0.14854 0.0
H1066 H 0.40112 0.03998 0.10322 0.0
H1067 H 0.44986 0.05374 0.1545 0.0
H1068 H 0.46592 0.98078 0.14295 0.0
H1069 H 0.46272 1.02028 0.1382 0.0
H1070 H 0.39233 1.0118 0.12888 0.0
H1071 H 0.39566 0.97189 0.13304 0.0
C1072 C 0.40908 0.07403 0.11009 0.0
C1073 C 0.42172 0.08956 0.12269 0.0
C1074 C 0.41101 0.05138 0.1134 0.0
C1075 C 0.42557 0.04358 0.12949 0.0
C1076 C 0.43859 0.05911 0.14183 0.0
C1077 C 0.43672 0.08186 0.13842 0.0
C1078 C 0.4497 0.98727 0.13996 0.0
C1079 C 0.43103 0.97308 0.13829 0.0
C1080 C 0.44786 1.01004 0.13738 0.0
C1081 C 0.42729 1.01934 0.13311 0.0
C1082 C 0.40851 1.0052 0.13181 0.0
C1083 C 0.41037 0.98232 0.13433 0.0
H1084 H 0.67779 0.07549 0.12786 0.0
H1085 H 0.71199 0.08483 0.19027 0.0
H1086 H 0.68227 0.03575 0.13009 0.0
H1087 H 0.71706 0.04508 0.19218 0.0
H1088 H 0.68397 0.97675 0.20468 0.0
H1089 H 0.69153 1.01578 0.19968 0.0
H1090 H 0.70449 1.00309 0.13106 0.0
H1091 H 0.69636 0.96371 0.13605 0.0
C1092 C 0.68682 0.06914 0.14178 0.0
C1093 C 0.69417 0.08337 0.15909 0.0
C1094 C 0.6895 0.04628 0.14301 0.0
C1095 C 0.69971 0.03709 0.16151 0.0
C1096 C 0.70866 0.05151 0.17793 0.0
C1097 C 0.70587 0.07436 0.17677 0.0
C1098 C 0.68882 0.98216 0.18859 0.0
C1099 C 0.68934 0.96711 0.17073 0.0
C1100 C 0.69335 1.00462 0.18573 0.0
C1101 C 0.69852 1.01272 0.16492 0.0
C1102 C 0.70029 0.99748 0.14726 0.0
C1103 C 0.69581 0.97487 0.15015 0.0
H1104 H 0.65548 0.45863 0.95728 0.0
H1105 H 0.65799 0.45007 0.88675 0.0
H1106 H 0.65006 0.49791 0.95324 0.0
H1107 H 0.65331 0.48981 0.88269 0.0
H1108 H 0.61817 0.55554 0.88224 0.0
H1109 H 0.62539 0.51655 0.8865 0.0
H1110 H 0.66638 0.53229 0.94367 0.0
H1111 H 0.65851 0.57147 0.93974 0.0
C1112 C 0.65519 0.46517 0.94086 0.0
C1113 C 0.65707 0.45112 0.92231 0.0
C1114 C 0.65221 0.48783 0.93856 0.0
C1115 C 0.65115 0.49715 0.91765 0.0
C1116 C 0.65365 0.48318 0.89907 0.0
C1117 C 0.65652 0.46041 0.90137 0.0
C1118 C 0.62865 0.55071 0.89582 0.0
C1119 C 0.63774 0.56665 0.91069 0.0
C1120 C 0.63298 0.5283 0.89812 0.0
C1121 C 0.64667 0.52117 0.91528 0.0
C1122 C 0.65558 0.53711 0.93035 0.0
C1123 C 0.6511 0.55959 0.92813 0.0
H1124 H 0.5709 0.66948 0.88651 0.0
H1125 H 0.55187 0.60868 0.91758 0.0
H1126 H 0.53226 0.67828 0.88128 0.0
H1127 H 0.51323 0.61677 0.91135 0.0
H1128 H 0.44458 0.64454 0.91348 0.0
H1129 H 0.48349 0.63833 0.92164 0.0
H1130 H 0.50097 0.66925 0.86075 0.0
H1131 H 0.46261 0.67641 0.85336 0.0
C1132 C 0.55844 0.65783 0.89193 0.0
C1133 C 0.56447 0.63836 0.90239 0.0
C1134 C 0.5362 0.66282 0.88888 0.0
C1135 C 0.51938 0.64826 0.89585 0.0
C1136 C 0.52554 0.62866 0.90614 0.0
C1137 C 0.54777 0.62387 0.90951 0.0
C1138 C 0.45682 0.65025 0.90204 0.0
C1139 C 0.45042 0.66103 0.88282 0.0
C1140 C 0.47916 0.6465 0.90657 0.0
C1141 C 0.4956 0.65318 0.89183 0.0
C1142 C 0.48904 0.66421 0.87278 0.0
C1143 C 0.46686 0.66821 0.86845 0.0
H1144 H 0.37086 0.49103 0.89198 0.0
H1145 H 0.4207 0.47025 0.84674 0.0
H1146 H 0.37071 0.52727 0.8757 0.0
H1147 H 0.42062 0.50703 0.83028 0.0
H1148 H 0.43468 0.58518 0.83973 0.0
H1149 H 0.43251 0.54523 0.84403 0.0
H1150 H 0.36153 0.54737 0.8418 0.0
H1151 H 0.36362 0.58735 0.83771 0.0
C1152 C 0.38167 0.49415 0.87837 0.0
C1153 C 0.39592 0.4778 0.87076 0.0
C1154 C 0.38141 0.51491 0.86886 0.0
C1155 C 0.39556 0.52005 0.85159 0.0
C1156 C 0.40953 0.50356 0.84357 0.0
C1157 C 0.40954 0.48252 0.85294 0.0
C1158 C 0.41859 0.57709 0.83952 0.0
C1159 C 0.39933 0.58959 0.8388 0.0
C1160 C 0.41737 0.55413 0.84191 0.0
C1161 C 0.39685 0.54318 0.8437 0.0
C1162 C 0.3776 0.5554 0.84089 0.0
C1163 C 0.37881 0.57833 0.83839 0.0
H1164 H 0.47966 0.45069 0.92664 0.0
H1165 H 0.46638 0.38037 0.92086 0.0
H1166 H 0.51857 0.44379 0.93301 0.0
H1167 H 0.50553 0.37351 0.92696 0.0
H1168 H 0.57885 0.36935 0.94863 0.0
H1169 H 0.53928 0.37669 0.95213 0.0
H1170 H 0.54596 0.43058 0.90715 0.0
H1171 H 0.58483 0.42334 0.90374 0.0
C1172 C 0.48496 0.43373 0.92701 0.0
C1173 C 0.46987 0.41612 0.92292 0.0
C1174 C 0.50732 0.42978 0.93061 0.0
C1175 C 0.51525 0.4081 0.9302 0.0
C1176 C 0.49998 0.39039 0.9275 0.0
C1177 C 0.47754 0.39435 0.92388 0.0
C1178 C 0.57182 0.38295 0.93984 0.0
C1179 C 0.58492 0.39571 0.92585 0.0
C1180 C 0.54919 0.38707 0.9417 0.0
C1181 C 0.53945 0.40429 0.92997 0.0
C1182 C 0.55288 0.41742 0.91667 0.0
C1183 C 0.5752 0.41313 0.91459 0.0
H1184 H 0.64735 0.56777 0.10676 0.0
H1185 H 0.64097 0.58694 0.17504 0.0
H1186 H 0.65268 0.5297 0.1171 0.0
H1187 H 0.64537 0.54854 0.18543 0.0
H1188 H 0.6796 0.48424 0.19837 0.0
H1189 H 0.67292 0.52186 0.18764 0.0
H1190 H 0.63562 0.49733 0.13075 0.0
H1191 H 0.64318 0.45938 0.14118 0.0
C1192 C 0.64684 0.5638 0.12401 0.0
C1193 C 0.64385 0.58039 0.14012 0.0
C1194 C 0.64973 0.54188 0.12992 0.0
C1195 C 0.64949 0.53595 0.1521 0.0
C1196 C 0.64607 0.55254 0.16821 0.0
C1197 C 0.64343 0.57455 0.16228 0.0
C1198 C 0.66996 0.48683 0.18355 0.0
C1199 C 0.66188 0.46884 0.17062 0.0
C1200 C 0.66596 0.50847 0.17749 0.0
C1201 C 0.65353 0.51274 0.15844 0.0
C1202 C 0.64547 0.49469 0.14542 0.0
C1203 C 0.64972 0.47294 0.15138 0.0
H1204 H 0.5646 0.64089 0.11063 0.0
H1205 H 0.56936 0.68426 0.16783 0.0
H1206 H 0.52424 0.64206 0.11204 0.0
H1207 H 0.5294 0.68545 0.16915 0.0
H1208 H 0.45845 0.70212 0.14687 0.0
H1209 H 0.49852 0.70024 0.14647 0.0
H1210 H 0.49357 0.62933 0.13771 0.0
H1211 H 0.45337 0.63115 0.13825 0.0
C1212 C 0.55707 0.65079 0.12336 0.0
C1213 C 0.57019 0.6625 0.13909 0.0
C1214 C 0.534 0.6513 0.1243 0.0
C1215 C 0.52365 0.66379 0.14077 0.0
C1216 C 0.53684 0.67577 0.1562 0.0
C1217 C 0.55977 0.67503 0.15544 0.0
C1218 C 0.46588 0.68608 0.14521 0.0
C1219 C 0.45267 0.6668 0.14267 0.0
C1220 C 0.48885 0.68501 0.14494 0.0
C1221 C 0.49921 0.66466 0.14185 0.0
C1222 C 0.48605 0.64528 0.13982 0.0
C1223 C 0.46303 0.64632 0.14041 0.0
H1224 H 0.45727 0.477 0.08764 0.0
H1225 H 0.40593 0.47778 0.13587 0.0
H1226 H 0.44836 0.51482 0.07771 0.0
H1227 H 0.39739 0.51539 0.12633 0.0
H1228 H 0.37539 0.57821 0.09714 0.0
H1229 H 0.38211 0.53866 0.0987 0.0
H1230 H 0.45201 0.55176 0.09362 0.0
H1231 H 0.44527 0.59115 0.09155 0.0
C1232 C 0.44404 0.48515 0.09605 0.0
C1233 C 0.43243 0.47432 0.11265 0.0
C1234 C 0.43898 0.50688 0.09043 0.0
C1235 C 0.4221 0.51824 0.10118 0.0
C1236 C 0.41023 0.50715 0.1174 0.0
C1237 C 0.41531 0.48555 0.12305 0.0
C1238 C 0.39215 0.57263 0.09588 0.0
C1239 C 0.40978 0.58796 0.09443 0.0
C1240 C 0.39604 0.54993 0.09697 0.0
C1241 C 0.41765 0.54195 0.09666 0.0
C1242 C 0.43514 0.55719 0.09381 0.0
C1243 C 0.43126 0.57987 0.0927 0.0
H1244 H 0.59251 0.3599 0.19824 0.0
H1245 H 0.61333 0.42655 0.21653 0.0
H1246 H 0.55431 0.37103 0.19784 0.0
H1247 H 0.57489 0.43766 0.21653 0.0
H1248 H 0.48529 0.39365 0.20317 0.0
H1249 H 0.52209 0.38435 0.21636 0.0
H1250 H 0.54881 0.4431 0.18665 0.0
H1251 H 0.51214 0.45255 0.17387 0.0
C1252 C 0.5889 0.37681 0.2028 0.0
C1253 C 0.60605 0.39236 0.20716 0.0
C1254 C 0.5669 0.3832 0.20268 0.0
C1255 C 0.56144 0.40534 0.20686 0.0
C1256 C 0.5785 0.42055 0.21286 0.0
C1257 C 0.60056 0.41412 0.21308 0.0
C1258 C 0.49894 0.40485 0.19991 0.0
C1259 C 0.49575 0.42376 0.18727 0.0
C1260 C 0.52009 0.39943 0.20734 0.0
C1261 C 0.53853 0.41284 0.20241 0.0
C1262 C 0.53506 0.43246 0.19098 0.0
C1263 C 0.51397 0.43782 0.18349 0.0
H1264 H 0.87326 0.70469 0.45258 0.0
H1265 H 0.86431 0.63368 0.44941 0.0
H1266 H 0.86801 0.70425 0.49236 0.0
H1267 H 0.8589 0.63332 0.4889 0.0
H1268 H 0.88806 0.63879 0.55909 0.0
H1269 H 0.88539 0.63987 0.51935 0.0
H1270 H 0.84262 0.69575 0.52397 0.0
H1271 H 0.84534 0.69468 0.56431 0.0
C1272 C 0.86971 0.68905 0.46024 0.0
C1273 C 0.86949 0.66919 0.44777 0.0
C1274 C 0.86664 0.68882 0.48306 0.0
C1275 C 0.86335 0.66872 0.49389 0.0
C1276 C 0.8618 0.64906 0.48117 0.0
C1277 C 0.86482 0.64929 0.45845 0.0
C1278 C 0.87791 0.65125 0.55174 0.0
C1279 C 0.86694 0.66668 0.56494 0.0
C1280 C 0.87625 0.65176 0.52887 0.0
C1281 C 0.86371 0.66783 0.5184 0.0
C1282 C 0.85248 0.6832 0.53153 0.0
C1283 C 0.85392 0.68251 0.55461 0.0
H1284 H 0.39312 0.87352 0.57026 0.0
H1285 H 0.41731 0.94059 0.58105 0.0
H1286 H 0.39416 0.87841 0.53076 0.0
H1287 H 0.41889 0.94536 0.54136 0.0
H1288 H 0.3979 0.95397 0.47033 0.0
H1289 H 0.3957 0.94857 0.50955 0.0
H1290 H 0.4195 0.88224 0.50098 0.0
H1291 H 0.42119 0.88752 0.46125 0.0
C1292 C 0.39868 0.88935 0.5642 0.0
C1293 C 0.4051 0.9067 0.57885 0.0
C1294 C 0.39946 0.89208 0.54149 0.0
C1295 C 0.40673 0.91221 0.53279 0.0
C1296 C 0.41294 0.92968 0.54746 0.0
C1297 C 0.41208 0.92697 0.57023 0.0
C1298 C 0.40266 0.93817 0.47672 0.0
C1299 C 0.40981 0.92117 0.46261 0.0
C1300 C 0.40153 0.93515 0.49932 0.0
C1301 C 0.40762 0.91507 0.50855 0.0
C1302 C 0.4145 0.89788 0.49442 0.0
C1303 C 0.41554 0.90089 0.47166 0.0
H1304 H 0.22023 0.34911 0.48807 0.0
H1305 H 0.20659 0.41845 0.49677 0.0
H1306 H 0.22204 0.34517 0.5278 0.0
H1307 H 0.20794 0.41438 0.53655 0.0
H1308 H 0.21401 0.40184 0.60946 0.0
H1309 H 0.22714 0.40548 0.57164 0.0
H1310 H 0.19144 0.3453 0.55281 0.0
H1311 H 0.17858 0.34183 0.59008 0.0
C1312 C 0.21806 0.36363 0.49843 0.0
C1313 C 0.21287 0.384 0.48919 0.0
C1314 C 0.21902 0.36135 0.52125 0.0
C1315 C 0.21471 0.37935 0.53541 0.0
C1316 C 0.21142 0.40017 0.52618 0.0
C1317 C 0.21054 0.40249 0.50331 0.0
C1318 C 0.20962 0.38911 0.59731 0.0
C1319 C 0.19529 0.37156 0.60264 0.0
C1320 C 0.21693 0.39128 0.57563 0.0
C1321 C 0.21031 0.37571 0.55912 0.0
C1322 C 0.19716 0.35745 0.56504 0.0
C1323 C 0.18967 0.3555 0.58643 0.0
H1324 H 0.65769 0.10316 0.56657 0.0
H1325 H 0.62794 0.16329 0.58971 0.0
H1326 H 0.65693 0.11651 0.52933 0.0
H1327 H 0.62672 0.1766 0.55196 0.0
H1328 H 0.64981 0.20199 0.48506 0.0
H1329 H 0.64992 0.18941 0.52277 0.0
H1330 H 0.63196 0.1234 0.49959 0.0
H1331 H 0.63235 0.13592 0.46173 0.0
C1332 C 0.65088 0.11926 0.56373 0.0
C1333 C 0.64283 0.13214 0.58122 0.0
C1334 C 0.6503 0.12685 0.54223 0.0
C1335 C 0.64157 0.14755 0.53748 0.0
C1336 C 0.63372 0.16062 0.555 0.0
C1337 C 0.63435 0.153 0.57665 0.0
C1338 C 0.64589 0.18476 0.48796 0.0
C1339 C 0.64118 0.16994 0.47029 0.0
C1340 C 0.64579 0.17759 0.50967 0.0
C1341 C 0.64096 0.15538 0.51434 0.0
C1342 C 0.63608 0.14057 0.49665 0.0
C1343 C 0.63621 0.14775 0.4749 0.0
H1344 H 0.95889 0.44027 0.49223 0.0
H1345 H 0.88947 0.42958 0.47828 0.0
H1346 H 0.95287 0.43356 0.53086 0.0
H1347 H 0.88321 0.42375 0.51724 0.0
H1348 H 0.88195 0.39004 0.58258 0.0
H1349 H 0.88933 0.39708 0.54424 0.0
H1350 H 0.93806 0.44707 0.56405 0.0
H1351 H 0.93114 0.43929 0.60261 0.0
C1352 C 0.94224 0.43681 0.49746 0.0
C1353 C 0.92465 0.43537 0.4821 0.0
C1354 C 0.93877 0.43306 0.51972 0.0
C1355 C 0.91758 0.42794 0.52729 0.0
C1356 C 0.89986 0.42716 0.51199 0.0
C1357 C 0.90338 0.43071 0.48965 0.0
C1358 C 0.89443 0.40237 0.57875 0.0
C1359 C 0.90599 0.4141 0.59561 0.0
C1360 C 0.89848 0.40661 0.55672 0.0
C1361 C 0.91404 0.42292 0.55091 0.0
C1362 C 0.92607 0.43426 0.56783 0.0
C1363 C 0.92216 0.42981 0.58996 0.0
H1364 H 0.70645 0.83753 0.57782 0.0
H1365 H 0.6376 0.82863 0.59273 0.0
H1366 H 0.69687 0.84273 0.53942 0.0
H1367 H 0.628 0.83326 0.55402 0.0
H1368 H 0.62107 0.88224 0.49637 0.0
H1369 H 0.62769 0.86529 0.53157 0.0
H1370 H 0.68231 0.83002 0.50435 0.0
H1371 H 0.67593 0.84753 0.46901 0.0
C1372 C 0.68928 0.83603 0.57281 0.0
C1373 C 0.6728 0.83299 0.58851 0.0
C1374 C 0.68376 0.83892 0.55066 0.0
C1375 C 0.6616 0.83881 0.54355 0.0
C1376 C 0.64522 0.83393 0.55895 0.0
C1377 C 0.65075 0.83104 0.58116 0.0
C1378 C 0.63429 0.87059 0.49772 0.0
C1379 C 0.6481 0.86646 0.47987 0.0
C1380 C 0.63799 0.86068 0.51796 0.0
C1381 C 0.65565 0.84633 0.52098 0.0
C1382 C 0.66875 0.84122 0.50275 0.0
C1383 C 0.66499 0.85114 0.48241 0.0
H1384 H 0.12303 0.66417 0.56653 0.0
H1385 H 0.07329 0.61224 0.56723 0.0
H1386 H 0.11192 0.67332 0.52933 0.0
H1387 H 0.06221 0.62116 0.52931 0.0
H1388 H 0.08606 0.62384 0.45377 0.0
H1389 H 0.08304 0.61716 0.49299 0.0
H1390 H 0.08108 0.68746 0.50594 0.0
H1391 H 0.0842 0.69425 0.46678 0.0
C1392 C 0.1094 0.65496 0.55875 0.0
C1393 C 0.09901 0.6375 0.56963 0.0
C1394 C 0.10292 0.66029 0.53749 0.0
C1395 C 0.08614 0.64801 0.52637 0.0
C1396 C 0.07519 0.63091 0.53751 0.0
C1397 C 0.08142 0.62587 0.55915 0.0
C1398 C 0.08433 0.63788 0.46488 0.0
C1399 C 0.08582 0.65962 0.45712 0.0
C1400 C 0.08248 0.63402 0.48739 0.0
C1401 C 0.08216 0.6518 0.50258 0.0
C1402 C 0.0816 0.67344 0.49463 0.0
C1403 C 0.08333 0.67731 0.47215 0.0
H1404 H 0.36201 0.09526 0.54197 0.0
H1405 H 0.41024 0.14523 0.56283 0.0
H1406 H 0.3675 0.10493 0.50384 0.0
H1407 H 0.41549 0.15519 0.52452 0.0
H1408 H 0.43647 0.15024 0.45258 0.0
H1409 H 0.43098 0.13984 0.49064 0.0
H1410 H 0.36082 0.13442 0.47833 0.0
H1411 H 0.36629 0.14447 0.44024 0.0
C1412 C 0.37366 0.10847 0.53845 0.0
C1413 C 0.38568 0.11947 0.55551 0.0
C1414 C 0.37675 0.11407 0.51654 0.0
C1415 C 0.39198 0.13079 0.51106 0.0
C1416 C 0.40384 0.14201 0.52813 0.0
C1417 C 0.40069 0.13645 0.55011 0.0
C1418 C 0.41988 0.14658 0.45791 0.0
C1419 C 0.40183 0.14816 0.44329 0.0
C1420 C 0.41672 0.14085 0.47981 0.0
C1421 C 0.39544 0.13645 0.48762 0.0
C1422 C 0.37745 0.13752 0.47285 0.0
C1423 C 0.38059 0.14332 0.45098 0.0
H1424 H 0.47651 0.86407 0.66152 0.0
H1425 H 0.4932 0.91296 0.61344 0.0
H1426 H 0.51528 0.85481 0.66507 0.0
H1427 H 0.5318 0.90342 0.61665 0.0
H1428 H 0.60083 0.89917 0.64796 0.0
H1429 H 0.56187 0.90768 0.64346 0.0
H1430 H 0.54493 0.83801 0.64513 0.0
H1431 H 0.58356 0.82958 0.6501 0.0
C1432 C 0.48839 0.87259 0.65147 0.0
C1433 C 0.48181 0.88929 0.63727 0.0
C1434 C 0.5106 0.86729 0.65348 0.0
C1435 C 0.52664 0.87853 0.64127 0.0
C1436 C 0.51992 0.89477 0.6266 0.0
C1437 C 0.49776 0.90009 0.62464 0.0
C1438 C 0.58876 0.88572 0.64737 0.0
C1439 C 0.59527 0.86374 0.64946 0.0
C1440 C 0.56647 0.89056 0.64467 0.0
C1441 C 0.55031 0.8735 0.64396 0.0
C1442 C 0.55691 0.85155 0.64594 0.0
C1443 C 0.57911 0.84673 0.64868 0.0
H1444 H 0.45428 0.22485 0.43516 0.0
H1445 H 0.45818 0.20778 0.36613 0.0
H1446 H 0.49436 0.22652 0.43792 0.0
H1447 H 0.49827 0.20899 0.36902 0.0
H1448 H 0.57223 0.21961 0.37869 0.0
H1449 H 0.53325 0.22938 0.3758 0.0
H1450 H 0.52113 0.19784 0.43758 0.0
H1451 H 0.55965 0.18846 0.44049 0.0
C1452 C 0.46364 0.22181 0.42047 0.0
C1453 C 0.4529 0.21591 0.40049 0.0
C1454 C 0.48669 0.22263 0.42208 0.0
C1455 C 0.49965 0.21753 0.40378 0.0
C1456 C 0.48891 0.21313 0.38345 0.0
C1457 C 0.46583 0.21234 0.38182 0.0
C1458 C 0.56128 0.21526 0.39185 0.0
C1459 C 0.56904 0.2032 0.40978 0.0
C1460 C 0.5389 0.22067 0.39012 0.0
C1461 C 0.52393 0.21437 0.40643 0.0
C1462 C 0.53208 0.20327 0.42482 0.0
C1463 C 0.55424 0.19773 0.42643 0.0
H1464 H 0.90722 0.60401 0.34485 0.0
H1465 H 0.93586 0.62026 0.40869 0.0
H1466 H 0.91443 0.56516 0.3503 0.0
H1467 H 0.94288 0.58087 0.4143 0.0
H1468 H 0.96092 0.50494 0.40858 0.0
H1469 H 0.96229 0.54485 0.40086 0.0
H1470 H 0.89541 0.54013 0.37578 0.0
H1471 H 0.89404 0.50107 0.38333 0.0
C1472 C 0.91535 0.59933 0.35997 0.0
C1473 C 0.92066 0.61525 0.37646 0.0
C1474 C 0.91945 0.57699 0.36311 0.0
C1475 C 0.92887 0.56982 0.3829 0.0
C1476 C 0.93564 0.58586 0.39886 0.0
C1477 C 0.93158 0.60841 0.39566 0.0
C1478 C 0.94666 0.5125 0.40123 0.0
C1479 C 0.92738 0.49978 0.39657 0.0
C1480 C 0.94738 0.53533 0.39695 0.0
C1481 C 0.92901 0.54566 0.38754 0.0
C1482 C 0.90999 0.53274 0.3827 0.0
C1483 C 0.90917 0.51026 0.38719 0.0
H1484 H 0.48604 0.96597 0.38316 0.0
H1485 H 0.49177 0.92031 0.43637 0.0
H1486 H 0.52607 0.97281 0.38498 0.0
H1487 H 0.53118 0.92645 0.43782 0.0
H1488 H 0.60131 0.94231 0.44378 0.0
H1489 H 0.56204 0.94932 0.44584 0.0
H1490 H 0.55802 0.9524 0.37504 0.0
H1491 H 0.59744 0.94641 0.37311 0.0
C1492 C 0.49575 0.95779 0.39553 0.0
C1493 C 0.48579 0.94248 0.40951 0.0
C1494 C 0.5187 0.96151 0.39645 0.0
C1495 C 0.53203 0.9501 0.41147 0.0
C1496 C 0.52166 0.93584 0.42624 0.0
C1497 C 0.49894 0.93213 0.42527 0.0
C1498 C 0.59213 0.94499 0.42869 0.0
C1499 C 0.60248 0.9435 0.40828 0.0
C1500 C 0.56955 0.94888 0.42984 0.0
C1501 C 0.55663 0.95097 0.41057 0.0
C1502 C 0.56733 0.95102 0.39025 0.0
C1503 C 0.59 0.94745 0.38913 0.0
H1504 H 0.1504 0.58414 0.39071 0.0
H1505 H 0.15785 0.59295 0.46096 0.0
H1506 H 0.15423 0.54449 0.39428 0.0
H1507 H 0.16311 0.55341 0.46458 0.0
H1508 H 0.1472 0.48031 0.4686 0.0
H1509 H 0.14435 0.52001 0.46414 0.0
H1510 H 0.17538 0.51431 0.4009 0.0
H1511 H 0.17688 0.47445 0.40493 0.0
C1512 C 0.15349 0.57766 0.40689 0.0
C1513 C 0.15378 0.59175 0.42555 0.0
C1514 C 0.15573 0.55479 0.40899 0.0
C1515 C 0.15875 0.54537 0.42979 0.0
C1516 C 0.16015 0.55974 0.44832 0.0
C1517 C 0.15746 0.58255 0.44625 0.0
C1518 C 0.15321 0.48755 0.45365 0.0
C1519 C 0.16215 0.47417 0.43709 0.0
C1520 C 0.15185 0.51045 0.45116 0.0
C1521 C 0.15984 0.52075 0.43221 0.0
C1522 C 0.16869 0.5072 0.41559 0.0
C1523 C 0.16963 0.48424 0.41791 0.0
H1524 H 0.46754 0.07991 0.58289 0.0
H1525 H 0.45118 0.06926 0.65066 0.0
H1526 H 0.50655 0.07761 0.59225 0.0
H1527 H 0.49031 0.06664 0.65997 0.0
H1528 H 0.55589 0.10808 0.66957 0.0
H1529 H 0.518 0.09651 0.66186 0.0
H1530 H 0.539 0.05747 0.60617 0.0
H1531 H 0.57744 0.06925 0.61408 0.0
C1532 C 0.47222 0.07643 0.59969 0.0
C1533 C 0.45618 0.07511 0.61607 0.0
C1534 C 0.49466 0.07498 0.60504 0.0
C1535 C 0.50165 0.07228 0.62693 0.0
C1536 C 0.48552 0.06909 0.64299 0.0
C1537 C 0.46304 0.07042 0.63762 0.0
C1538 C 0.55253 0.09665 0.65592 0.0
C1539 C 0.56963 0.08968 0.64234 0.0
C1540 C 0.53075 0.08986 0.65159 0.0
C1541 C 0.52533 0.07606 0.63336 0.0
C1542 C 0.54259 0.0682 0.62029 0.0
C1543 C 0.56459 0.07479 0.62488 0.0
H1544 H 0.86364 0.48917 0.68292 0.0
H1545 H 0.89141 0.4864 0.61823 0.0
H1546 H 0.8569 0.52889 0.67856 0.0
H1547 H 0.88416 0.5256 0.61361 0.0
H1548 H 0.8471 0.59111 0.60705 0.0
H1549 H 0.84959 0.55137 0.61242 0.0
H1550 H 0.8856 0.56369 0.67328 0.0
H1551 H 0.88351 0.60371 0.66772 0.0
C1552 C 0.86765 0.49692 0.66757 0.0
C1553 C 0.87778 0.48478 0.65079 0.0
C1554 C 0.86408 0.51961 0.66517 0.0
C1555 C 0.8701 0.53028 0.64577 0.0
C1556 C 0.87927 0.51779 0.62868 0.0
C1557 C 0.88333 0.49537 0.63128 0.0
C1558 C 0.85557 0.58539 0.62159 0.0
C1559 C 0.86524 0.60056 0.6369 0.0
C1560 C 0.85694 0.56264 0.62466 0.0
C1561 C 0.86763 0.55448 0.64333 0.0
C1562 C 0.87705 0.56958 0.65886 0.0
C1563 C 0.87606 0.59243 0.65556 0.0
H1564 H 0.11595 0.55963 0.68827 0.0
H1565 H 0.14577 0.55789 0.6244 0.0
H1566 H 0.12344 0.52062 0.69265 0.0
H1567 H 0.15316 0.5184 0.6288 0.0
H1568 H 0.13847 0.44188 0.63857 0.0
H1569 H 0.13082 0.48106 0.63252 0.0
H1570 H 0.15741 0.49776 0.69706 0.0
H1571 H 0.16519 0.45902 0.703 0.0
C1572 C 0.12418 0.55093 0.67514 0.0
C1573 C 0.13034 0.56196 0.656 0.0
C1574 C 0.1285 0.52853 0.6777 0.0
C1575 C 0.13885 0.51637 0.66107 0.0
C1576 C 0.14499 0.52729 0.64184 0.0
C1577 C 0.14096 0.54993 0.6394 0.0
C1578 C 0.14248 0.45393 0.6515 0.0
C1579 C 0.15235 0.44729 0.67131 0.0
C1580 C 0.13832 0.47637 0.64795 0.0
C1581 C 0.14356 0.49253 0.6643 0.0
C1582 C 0.15306 0.48575 0.68419 0.0
C1583 C 0.15753 0.4635 0.68757 0.0
H1584 H 0.12899 0.22453 0.42261 0.0
H1585 H 0.10797 0.24596 0.35852 0.0
H1586 H 0.13045 0.26311 0.43571 0.0
H1587 H 0.11053 0.28393 0.37094 0.0
H1588 H 0.10754 0.35189 0.39579 0.0
H1589 H 0.09721 0.31295 0.39096 0.0
H1590 H 0.15189 0.29544 0.43309 0.0
H1591 H 0.16113 0.33444 0.43902 0.0
C1592 C 0.12454 0.23741 0.41138 0.0
C1593 C 0.11845 0.23208 0.3895 0.0
C1594 C 0.12554 0.25958 0.41881 0.0
C1595 C 0.12065 0.27691 0.40445 0.0
C1596 C 0.11396 0.2713 0.38278 0.0
C1597 C 0.11272 0.24931 0.37551 0.0
C1598 C 0.11699 0.3397 0.40442 0.0
C1599 C 0.13523 0.34625 0.41763 0.0
C1600 C 0.11126 0.31729 0.40148 0.0
C1601 C 0.12404 0.30076 0.41113 0.0
C1602 C 0.1415 0.30748 0.42544 0.0
C1603 C 0.14689 0.32995 0.4288 0.0
H1604 H 0.82586 0.19757 0.42167 0.0
H1605 H 0.81966 0.1909 0.35104 0.0
H1606 H 0.78608 0.19759 0.42455 0.0
H1607 H 0.77928 0.19099 0.35407 0.0
H1608 H 0.70605 0.21096 0.37274 0.0
H1609 H 0.74609 0.21559 0.36766 0.0
H1610 H 0.75776 0.16715 0.41732 0.0
H1611 H 0.71836 0.16245 0.42222 0.0
C1612 C 0.81604 0.19625 0.40667 0.0
C1613 C 0.8261 0.19401 0.38611 0.0
C1614 C 0.79314 0.19624 0.40837 0.0
C1615 C 0.77947 0.19414 0.38958 0.0
C1616 C 0.78938 0.19275 0.36886 0.0
C1617 C 0.81249 0.19257 0.36714 0.0
C1618 C 0.71725 0.20152 0.38268 0.0
C1619 C 0.709 0.1864 0.39795 0.0
C1620 C 0.74012 0.204 0.37963 0.0
C1621 C 0.75511 0.19175 0.39212 0.0
C1622 C 0.74673 0.17699 0.40757 0.0
C1623 C 0.72408 0.17426 0.41034 0.0
H1624 H 0.90828 0.86884 0.39007 0.0
H1625 H 0.97337 0.86427 0.41917 0.0
H1626 H 0.90645 0.8285 0.38536 0.0
H1627 H 0.9713 0.8242 0.41473 0.0
H1628 H 0.94051 0.75561 0.43481 0.0
H1629 H 0.94666 0.79561 0.43381 0.0
H1630 H 0.92544 0.7953 0.36581 0.0
H1631 H 0.91963 0.75514 0.36664 0.0
C1632 C 0.92233 0.85933 0.3951 0.0
C1633 C 0.9409 0.86987 0.40512 0.0
C1634 C 0.92129 0.83623 0.39238 0.0
C1635 C 0.93865 0.82318 0.39989 0.0
C1636 C 0.95757 0.83378 0.40901 0.0
C1637 C 0.95876 0.85681 0.41143 0.0
C1638 C 0.93749 0.764 0.41954 0.0
C1639 C 0.92964 0.75215 0.40081 0.0
C1640 C 0.94105 0.78691 0.41895 0.0
C1641 C 0.93646 0.79861 0.39974 0.0
C1642 C 0.929 0.78675 0.38087 0.0
C1643 C 0.92585 0.76373 0.38133 0.0
H1644 H 0.23534 0.91006 0.44099 0.0
H1645 H 0.23153 0.95165 0.38433 0.0
H1646 H 0.27561 0.91177 0.43939 0.0
H1647 H 0.2715 0.9531 0.38256 0.0
H1648 H 0.34627 0.96152 0.39265 0.0
H1649 H 0.30683 0.96535 0.39988 0.0
H1650 H 0.30177 0.8958 0.41391 0.0
H1651 H 0.34062 0.89201 0.40694 0.0
C1652 C 0.24306 0.91981 0.42842 0.0
C1653 C 0.23018 0.93051 0.41267 0.0
C1654 C 0.26613 0.9207 0.42739 0.0
C1655 C 0.27683 0.93242 0.4107 0.0
C1656 C 0.26391 0.94406 0.39571 0.0
C1657 C 0.24091 0.94306 0.39665 0.0
C1658 C 0.3367 0.94712 0.39734 0.0
C1659 C 0.34665 0.92645 0.39904 0.0
C1660 C 0.31411 0.94928 0.40148 0.0
C1661 C 0.30112 0.93089 0.40765 0.0
C1662 C 0.31125 0.9104 0.40962 0.0
C1663 C 0.3336 0.90821 0.40534 0.0
H1664 H 0.13712 0.81359 0.59315 0.0
H1665 H 0.2058 0.799 0.60289 0.0
H1666 H 0.12763 0.77449 0.59537 0.0
H1667 H 0.1965 0.75968 0.60416 0.0
H1668 H 0.16799 0.69677 0.63675 0.0
H1669 H 0.18074 0.73422 0.62825 0.0
H1670 H 0.12776 0.73897 0.58032 0.0
H1671 H 0.11458 0.70224 0.58973 0.0
C1672 C 0.15028 0.80195 0.59509 0.0
C1673 C 0.1722 0.80946 0.59794 0.0
C1674 C 0.14486 0.7794 0.59635 0.0
C1675 C 0.16126 0.7637 0.60018 0.0
C1676 C 0.18334 0.77119 0.60174 0.0
C1677 C 0.18871 0.79377 0.60075 0.0
C1678 C 0.15934 0.70578 0.6242 0.0
C1679 C 0.14018 0.69672 0.6141 0.0
C1680 C 0.16664 0.72726 0.61922 0.0
C1681 C 0.15511 0.73995 0.60376 0.0
C1682 C 0.13673 0.73013 0.59276 0.0
C1683 C 0.12925 0.70893 0.59802 0.0
H1684 H 0.2173 0.16206 0.65082 0.0
H1685 H 0.20338 0.09263 0.65987 0.0
H1686 H 0.25642 0.15494 0.64978 0.0
H1687 H 0.24308 0.0854 0.65898 0.0
H1688 H 0.31453 0.08367 0.62628 0.0
H1689 H 0.27463 0.08642 0.63192 0.0
H1690 H 0.28643 0.14407 0.67375 0.0
H1691 H 0.32568 0.14157 0.66795 0.0
C1692 C 0.22262 0.14525 0.65292 0.0
C1693 C 0.20714 0.12796 0.65559 0.0
C1694 C 0.24515 0.14115 0.65238 0.0
C1695 C 0.25302 0.11958 0.65436 0.0
C1696 C 0.23759 0.1022 0.6573 0.0
C1697 C 0.21488 0.10637 0.65807 0.0
C1698 C 0.30856 0.09671 0.63691 0.0
C1699 C 0.32333 0.11259 0.64636 0.0
C1700 C 0.28571 0.09827 0.64019 0.0
C1701 C 0.27724 0.11572 0.653 0.0
C1702 C 0.29223 0.13074 0.66337 0.0
C1703 C 0.31484 0.12924 0.66006 0.0
H1704 H 0.91039 0.22735 0.66036 0.0
H1705 H 0.83959 0.23192 0.66156 0.0
H1706 H 0.91376 0.2674 0.65867 0.0
H1707 H 0.84286 0.27203 0.65904 0.0
H1708 H 0.85877 0.34515 0.67907 0.0
H1709 H 0.8533 0.30489 0.67904 0.0
H1710 H 0.90878 0.29775 0.63614 0.0
H1711 H 0.91464 0.33751 0.63695 0.0
C1712 C 0.89551 0.23688 0.6599 0.0
C1713 C 0.87473 0.22635 0.66107 0.0
C1714 C 0.89741 0.25994 0.65884 0.0
C1715 C 0.87857 0.27317 0.65866 0.0
C1716 C 0.85776 0.26254 0.65947 0.0
C1717 C 0.85588 0.23947 0.66073 0.0
C1718 C 0.86963 0.33491 0.66953 0.0
C1719 C 0.88727 0.34453 0.65823 0.0
C1720 C 0.8665 0.31181 0.66943 0.0
C1721 C 0.8808 0.29786 0.65783 0.0
C1722 C 0.8978 0.30773 0.6458 0.0
C1723 C 0.90107 0.33065 0.64613 0.0
H1724 H 0.75191 0.85376 0.67243 0.0
H1725 H 0.72231 0.9032 0.63186 0.0
H1726 H 0.78816 0.86507 0.66009 0.0
H1727 H 0.75888 0.91444 0.61928 0.0
H1728 H 0.83137 0.94346 0.62847 0.0
H1729 H 0.79309 0.93239 0.63384 0.0
H1730 H 0.81042 0.8638 0.62691 0.0
H1731 H 0.84884 0.87482 0.62195 0.0
C1732 C 0.75312 0.86709 0.66089 0.0
C1733 C 0.73418 0.87759 0.65317 0.0
C1734 C 0.77393 0.8734 0.6536 0.0
C1735 C 0.7764 0.89041 0.63842 0.0
C1736 C 0.75751 0.90126 0.63098 0.0
C1737 C 0.73659 0.89487 0.63824 0.0
C1738 C 0.82696 0.92602 0.62759 0.0
C1739 C 0.84326 0.91002 0.62515 0.0
C1740 C 0.80497 0.91969 0.63063 0.0
C1741 C 0.7988 0.89721 0.63129 0.0
C1742 C 0.81477 0.88126 0.62701 0.0
C1743 C 0.83676 0.88759 0.62393 0.0
H1744 H 0.38519 0.11746 0.20174 0.0
H1745 H 0.38872 0.18803 0.19245 0.0
H1746 H 0.38076 0.12366 0.2411 0.0
H1747 H 0.38501 0.19422 0.23174 0.0
H1748 H 0.36298 0.20074 0.30106 0.0
H1749 H 0.36131 0.19198 0.262 0.0
H1750 H 0.40264 0.13578 0.27247 0.0
H1751 H 0.4036 0.1442 0.31197 0.0
C1752 C 0.38479 0.13431 0.20806 0.0
C1753 C 0.38735 0.15226 0.19393 0.0
C1754 C 0.38247 0.13785 0.23067 0.0
C1755 C 0.38273 0.15942 0.23971 0.0
C1756 C 0.38445 0.17736 0.22541 0.0
C1757 C 0.38663 0.17383 0.20281 0.0
C1758 C 0.37165 0.18643 0.29508 0.0
C1759 C 0.38365 0.17329 0.30958 0.0
C1760 C 0.37076 0.18146 0.27261 0.0
C1761 C 0.38207 0.16335 0.26394 0.0
C1762 C 0.39355 0.14976 0.27856 0.0
C1763 C 0.39424 0.15462 0.30118 0.0
H1764 H 0.90571 0.43705 0.34306 0.0
H1765 H 0.89104 0.36735 0.34999 0.0
H1766 H 0.90566 0.43201 0.30321 0.0
H1767 H 0.89045 0.36257 0.30983 0.0
H1768 H 0.87015 0.38208 0.23323 0.0
H1769 H 0.86725 0.38206 0.27339 0.0
H1770 H 0.9348 0.40498 0.27982 0.0
H1771 H 0.93805 0.40449 0.23993 0.0
C1772 C 0.90193 0.42075 0.33612 0.0
C1773 C 0.89848 0.40257 0.34977 0.0
C1774 C 0.90208 0.41788 0.3133 0.0
C1775 C 0.89832 0.39687 0.30358 0.0
C1776 C 0.89346 0.37891 0.31702 0.0
C1777 C 0.89375 0.38169 0.33995 0.0
C1778 C 0.88455 0.38658 0.24321 0.0
C1779 C 0.9043 0.39338 0.23333 0.0
C1780 C 0.88283 0.3866 0.26615 0.0
C1781 C 0.90071 0.39382 0.27955 0.0
C1782 C 0.92073 0.39955 0.26976 0.0
C1783 C 0.9226 0.39911 0.24691 0.0
H1784 H 0.68554 0.87067 0.23661 0.0
H1785 H 0.6267 0.90904 0.23095 0.0
H1786 H 0.68029 0.86771 0.27578 0.0
H1787 H 0.62167 0.90658 0.27077 0.0
H1788 H 0.61079 0.88257 0.34142 0.0
H1789 H 0.61338 0.88266 0.3014 0.0
H1790 H 0.68406 0.89085 0.30756 0.0
H1791 H 0.68153 0.89019 0.34731 0.0
C1792 C 0.67145 0.87858 0.24376 0.0
C1793 C 0.65667 0.89032 0.23062 0.0
C1794 C 0.6685 0.87696 0.26635 0.0
C1795 C 0.65077 0.88721 0.27665 0.0
C1796 C 0.63549 0.89839 0.26343 0.0
C1797 C 0.63838 0.89988 0.24061 0.0
C1798 C 0.62691 0.88415 0.33421 0.0
C1799 C 0.64597 0.88623 0.34767 0.0
C1800 C 0.62836 0.88441 0.31123 0.0
C1801 C 0.64892 0.88674 0.30112 0.0
C1802 C 0.66795 0.88864 0.31464 0.0
C1803 C 0.66651 0.88834 0.33754 0.0
H1804 H 0.10305 0.6409 0.21369 0.0
H1805 H 0.15322 0.59158 0.21787 0.0
H1806 H 0.10053 0.642 0.25341 0.0
H1807 H 0.15014 0.59213 0.25783 0.0
H1808 H 0.16447 0.62738 0.32455 0.0
H1809 H 0.16185 0.61838 0.28567 0.0
H1810 H 0.0912 0.62503 0.28736 0.0
H1811 H 0.09394 0.6347 0.3266 0.0
C1812 C 0.11324 0.6299 0.22306 0.0
C1813 C 0.12866 0.61644 0.21256 0.0
C1814 C 0.11164 0.63042 0.24593 0.0
C1815 C 0.12535 0.6174 0.25894 0.0
C1816 C 0.13966 0.60275 0.24834 0.0
C1817 C 0.14132 0.60228 0.22541 0.0
C1818 C 0.14831 0.62683 0.31675 0.0
C1819 C 0.12942 0.632 0.32871 0.0
C1820 C 0.14678 0.62138 0.2944 0.0
C1821 C 0.12631 0.62087 0.28328 0.0
C1822 C 0.10728 0.62547 0.29534 0.0
C1823 C 0.10882 0.63096 0.31784 0.0
H1824 H 0.43821 0.90712 0.82754 0.0
H1825 H 0.40817 0.97112 0.82509 0.0
H1826 H 0.44545 0.90877 0.78831 0.0
H1827 H 0.41545 0.97271 0.78586 0.0
H1828 H 0.40192 0.94622 0.71317 0.0
H1829 H 0.40007 0.95171 0.75294 0.0
H1830 H 0.4667 0.92917 0.76012 0.0
H1831 H 0.46862 0.92367 0.72047 0.0
C1832 C 0.43349 0.9217 0.81874 0.0
C1833 C 0.42251 0.93892 0.82946 0.0
C1834 C 0.43771 0.92269 0.79626 0.0
C1835 C 0.4309 0.94083 0.78397 0.0
C1836 C 0.42068 0.95842 0.79485 0.0
C1837 C 0.41664 0.95753 0.81736 0.0
C1838 C 0.41634 0.94291 0.72317 0.0
C1839 C 0.43532 0.93428 0.71361 0.0
C1840 C 0.4153 0.94608 0.74597 0.0
C1841 C 0.43316 0.94058 0.75968 0.0
C1842 C 0.45255 0.9332 0.75001 0.0
C1843 C 0.45366 0.93018 0.72725 0.0
H1844 H 0.15774 0.33013 0.85189 0.0
H1845 H 0.19761 0.39006 0.8522 0.0
H1846 H 0.16087 0.32721 0.81178 0.0
H1847 H 0.20123 0.38691 0.81266 0.0
H1848 H 0.17905 0.39207 0.74121 0.0
H1849 H 0.17875 0.39226 0.78114 0.0
H1850 H 0.18413 0.32119 0.78034 0.0
H1851 H 0.18389 0.32098 0.7402 0.0
C1852 C 0.16751 0.34241 0.84348 0.0
C1853 C 0.17721 0.36044 0.85525 0.0
C1854 C 0.16933 0.34077 0.82047 0.0
C1855 C 0.181 0.35706 0.80879 0.0
C1856 C 0.19159 0.37438 0.82087 0.0
C1857 C 0.18964 0.37609 0.84366 0.0
C1858 C 0.18036 0.37648 0.74949 0.0
C1859 C 0.18156 0.35654 0.73737 0.0
C1860 C 0.18028 0.37656 0.7725 0.0
C1861 C 0.18148 0.35672 0.78416 0.0
C1862 C 0.18293 0.33677 0.77202 0.0
C1863 C 0.18299 0.33669 0.74895 0.0
H1864 H 0.59579 0.08659 0.72005 0.0
H1865 H 0.63865 0.1445 0.72263 0.0
H1866 H 0.59244 0.08835 0.75975 0.0
H1867 H 0.63557 0.14607 0.76278 0.0
H1868 H 0.61592 0.14807 0.83538 0.0
H1869 H 0.61139 0.15071 0.79549 0.0
H1870 H 0.6189 0.08011 0.78874 0.0
H1871 H 0.62329 0.07745 0.82832 0.0
C1872 C 0.60434 0.09988 0.72911 0.0
C1873 C 0.61775 0.11523 0.71823 0.0
C1874 C 0.60246 0.10082 0.7519 0.0
C1875 C 0.61405 0.11708 0.7645 0.0
C1876 C 0.62637 0.13336 0.75354 0.0
C1877 C 0.62818 0.13246 0.73056 0.0
C1878 C 0.61618 0.13306 0.82539 0.0
C1879 C 0.62001 0.11252 0.83506 0.0
C1880 C 0.61378 0.13463 0.80253 0.0
C1881 C 0.61485 0.11565 0.7889 0.0
C1882 C 0.61773 0.09504 0.79872 0.0
C1883 C 0.62033 0.09351 0.82146 0.0
H1884 H 0.84041 0.69119 0.82239 0.0
H1885 H 0.90714 0.69683 0.79938 0.0
H1886 H 0.8266 0.69147 0.78442 0.0
H1887 H 0.89319 0.69781 0.76148 0.0
H1888 H 0.85917 0.71158 0.696 0.0
H1889 H 0.86682 0.72073 0.73473 0.0
H1890 H 0.83352 0.66045 0.75334 0.0
H1891 H 0.82654 0.6508 0.71462 0.0
C1892 C 0.85211 0.69316 0.80931 0.0
C1893 C 0.87492 0.69387 0.81389 0.0
C1894 C 0.84416 0.69322 0.78758 0.0
C1895 C 0.85882 0.69463 0.77005 0.0
C1896 C 0.88151 0.69688 0.7747 0.0
C1897 C 0.8895 0.69627 0.79639 0.0
C1898 C 0.85298 0.70051 0.70833 0.0
C1899 C 0.84244 0.68029 0.7022 0.0
C1900 C 0.85748 0.70574 0.7305 0.0
C1901 C 0.8509 0.69123 0.74698 0.0
C1902 C 0.8387 0.67198 0.74096 0.0
C1903 C 0.8347 0.66647 0.71879 0.0
H1904 H 0.25336 0.37189 0.19139 0.0
H1905 H 0.23946 0.43135 0.15613 0.0
H1906 H 0.29254 0.37923 0.18822 0.0
H1907 H 0.27912 0.43899 0.15327 0.0
H1908 H 0.34862 0.42496 0.12608 0.0
H1909 H 0.30943 0.423 0.13322 0.0
H1910 H 0.32336 0.40302 0.19963 0.0
H1911 H 0.36286 0.40459 0.19231 0.0
C1912 C 0.25866 0.38671 0.18312 0.0
C1913 C 0.24321 0.40094 0.17381 0.0
C1914 C 0.28123 0.39102 0.1815 0.0
C1915 C 0.28906 0.40969 0.17049 0.0
C1916 C 0.27363 0.42432 0.16168 0.0
C1917 C 0.25092 0.42003 0.16339 0.0
C1918 C 0.34341 0.42025 0.14228 0.0
C1919 C 0.35894 0.4147 0.15857 0.0
C1920 C 0.32086 0.41934 0.14643 0.0
C1921 C 0.31317 0.41283 0.16698 0.0
C1922 C 0.32871 0.40786 0.18351 0.0
C1923 C 0.35135 0.40882 0.17937 0.0
H1924 H 0.19525 0.59515 0.87323 0.0
H1925 H 0.20317 0.65338 0.91505 0.0
H1926 H 0.23541 0.59368 0.86987 0.0
H1927 H 0.24274 0.65226 0.91136 0.0
H1928 H 0.30126 0.6219 0.84266 0.0
H1929 H 0.26289 0.61536 0.85129 0.0
H1930 H 0.2767 0.63425 0.91902 0.0
H1931 H 0.31537 0.64136 0.91017 0.0
C1932 C 0.20552 0.60742 0.88192 0.0
C1933 C 0.19596 0.62451 0.89418 0.0
C1934 C 0.22852 0.6067 0.8799 0.0
C1935 C 0.24241 0.62296 0.89023 0.0
C1936 C 0.23275 0.63931 0.90336 0.0
C1937 C 0.20992 0.64007 0.90528 0.0
C1938 C 0.29624 0.62453 0.85948 0.0
C1939 C 0.31142 0.63247 0.87568 0.0
C1940 C 0.27417 0.62051 0.86447 0.0
C1941 C 0.26654 0.62432 0.88584 0.0
C1942 C 0.28191 0.6314 0.9023 0.0
C1943 C 0.30411 0.63541 0.89728 0.0
H1944 H 0.41585 0.22689 0.89098 0.0
H1945 H 0.35253 0.22822 0.85771 0.0
H1946 H 0.4202 0.26643 0.88728 0.0
H1947 H 0.3571 0.26845 0.85366 0.0
H1948 H 0.36807 0.34402 0.87548 0.0
H1949 H 0.35988 0.30425 0.8748 0.0
H1950 H 0.42734 0.2918 0.85802 0.0
H1951 H 0.43564 0.33132 0.85924 0.0
C1952 C 0.40279 0.23565 0.8828 0.0
C1953 C 0.38391 0.22431 0.87445 0.0
C1954 C 0.4054 0.25839 0.88051 0.0
C1955 C 0.38926 0.2706 0.86969 0.0
C1956 C 0.3699 0.25949 0.862 0.0
C1957 C 0.36725 0.2365 0.86434 0.0
C1958 C 0.38106 0.33279 0.87126 0.0
C1959 C 0.40263 0.34085 0.86774 0.0
C1960 C 0.37633 0.30999 0.87084 0.0
C1961 C 0.39305 0.2948 0.86683 0.0
C1962 C 0.41419 0.30301 0.86175 0.0
C1963 C 0.41894 0.3257 0.8623 0.0
H1964 H 0.83657 0.36606 0.90367 0.0
H1965 H 0.83684 0.37151 0.97453 0.0
H1966 H 0.7967 0.36163 0.90335 0.0
H1967 H 0.79684 0.36657 0.97424 0.0
H1968 H 0.72415 0.38854 0.95928 0.0
H1969 H 0.76427 0.387 0.96427 0.0
H1970 H 0.76669 0.33766 0.91209 0.0
H1971 H 0.72706 0.33979 0.90677 0.0
C1972 C 0.82818 0.36588 0.91922 0.0
C1973 C 0.83998 0.3692 0.9391 0.0
C1974 C 0.80524 0.36325 0.91907 0.0
C1975 C 0.79343 0.36376 0.9388 0.0
C1976 C 0.80531 0.36637 0.95874 0.0
C1977 C 0.8283 0.36902 0.95889 0.0
C1978 C 0.73328 0.37704 0.94929 0.0
C1979 C 0.72256 0.36448 0.9325 0.0
C1980 C 0.75626 0.37613 0.95209 0.0
C1981 C 0.76883 0.36252 0.93825 0.0
C1982 C 0.75771 0.3488 0.92261 0.0
C1983 C 0.73493 0.34988 0.91969 0.0
H1984 H 0.64084 0.70366 0.9493 0.0
H1985 H 0.70581 0.69758 0.92236 0.0
H1986 H 0.64737 0.74334 0.95467 0.0
H1987 H 0.71229 0.73733 0.92772 0.0
H1988 H 0.6964 0.8111 0.90965 0.0
H1989 H 0.69655 0.77074 0.90994 0.0
H1990 H 0.67031 0.7718 0.97538 0.0
H1991 H 0.67016 0.81206 0.97518 0.0
C1992 C 0.65665 0.71071 0.94488 0.0
C1993 C 0.67276 0.69741 0.93536 0.0
C1994 C 0.66044 0.73347 0.94803 0.0
C1995 C 0.68033 0.74353 0.94152 0.0
C1996 C 0.69674 0.73011 0.93272 0.0
C1997 C 0.69306 0.7073 0.92982 0.0
C1998 C 0.69112 0.80277 0.92429 0.0
C1999 C 0.68309 0.81489 0.94231 0.0
C2000 C 0.69124 0.77961 0.92447 0.0
C2001 C 0.68319 0.76805 0.94259 0.0
C2002 C 0.6763 0.7802 0.96105 0.0
C2003 C 0.67636 0.80332 0.96095 0.0
H2004 H 0.81465 0.67736 0.06228 0.0
H2005 H 0.81105 0.64913 0.12677 0.0
H2006 H 0.7748 0.67291 0.05778 0.0
H2007 H 0.77116 0.64453 0.1221 0.0
H2008 H 0.70071 0.62738 0.10215 0.0
H2009 H 0.74062 0.62518 0.09929 0.0
H2010 H 0.74376 0.69246 0.07719 0.0
H2011 H 0.70384 0.69483 0.08022 0.0
C2012 C 0.80546 0.66975 0.07532 0.0
C2013 C 0.81608 0.66374 0.09498 0.0
C2014 C 0.78259 0.66735 0.07276 0.0
C2015 C 0.76983 0.65854 0.08963 0.0
C2016 C 0.78057 0.65126 0.10873 0.0
C2017 C 0.80343 0.65394 0.11144 0.0
C2018 C 0.7098 0.64158 0.09619 0.0
C2019 C 0.69902 0.66137 0.09156 0.0
C2020 C 0.73271 0.64033 0.09473 0.0
C2021 C 0.74535 0.6587 0.08824 0.0
C2022 C 0.73446 0.67797 0.08215 0.0
C2023 C 0.71156 0.67934 0.0839 0.0
H2024 H 0.35048 0.73122 0.13166 0.0
H2025 H 0.40309 0.71713 0.08701 0.0
H2026 H 0.36001 0.7703 0.13102 0.0
H2027 H 0.41221 0.75663 0.08568 0.0
H2028 H 0.44379 0.81844 0.11977 0.0
H2029 H 0.42985 0.78143 0.11155 0.0
H2030 H 0.36318 0.80488 0.11301 0.0
H2031 H 0.37734 0.84229 0.12196 0.0
C2032 C 0.36377 0.73653 0.12123 0.0
C2033 C 0.37628 0.72097 0.10968 0.0
C2034 C 0.36914 0.75907 0.12074 0.0
C2035 C 0.38713 0.7667 0.10859 0.0
C2036 C 0.39855 0.75129 0.09563 0.0
C2037 C 0.39321 0.72865 0.09619 0.0
C2038 C 0.42613 0.81585 0.11825 0.0
C2039 C 0.41167 0.83337 0.12177 0.0
C2040 C 0.41811 0.79454 0.11323 0.0
C2041 C 0.39536 0.79004 0.11148 0.0
C2042 C 0.38082 0.80768 0.11443 0.0
C2043 C 0.3889 0.82913 0.11952 0.0
H2044 H 0.71418 0.32049 0.17902 0.0
H2045 H 0.65266 0.33469 0.14614 0.0
H2046 H 0.70773 0.28112 0.17171 0.0
H2047 H 0.64641 0.29527 0.13852 0.0
H2048 H 0.62806 0.22527 0.16135 0.0
H2049 H 0.63698 0.26451 0.16207 0.0
H2050 H 0.70383 0.25072 0.14404 0.0
H2051 H 0.69488 0.21096 0.14352 0.0
C2052 C 0.69945 0.31526 0.16989 0.0
C2053 C 0.68381 0.33077 0.16339 0.0
C2054 C 0.69583 0.29265 0.16558 0.0
C2055 C 0.67645 0.28498 0.15474 0.0
C2056 C 0.66135 0.30059 0.14724 0.0
C2057 C 0.665 0.32322 0.15148 0.0
C2058 C 0.64468 0.23049 0.15744 0.0
C2059 C 0.66079 0.2149 0.15248 0.0
C2060 C 0.64974 0.2531 0.15764 0.0
C2061 C 0.67108 0.26084 0.15298 0.0
C2062 C 0.68724 0.24529 0.14781 0.0
C2063 C 0.68211 0.22253 0.14745 0.0
H2064 H 0.91758 0.72523 0.69777 0.0
H2065 H 0.90086 0.73824 0.63004 0.0
H2066 H 0.92351 0.76501 0.70483 0.0
H2067 H 0.90628 0.77777 0.63735 0.0
H2068 H 0.88684 0.84471 0.66688 0.0
H2069 H 0.88337 0.8045 0.66411 0.0
H2070 H 0.9497 0.79876 0.68938 0.0
H2071 H 0.9535 0.83917 0.69177 0.0
C2072 C 0.91553 0.73649 0.68432 0.0
C2073 C 0.90874 0.72851 0.66333 0.0
C2074 C 0.91885 0.75923 0.68842 0.0
C2075 C 0.91499 0.77441 0.67172 0.0
C2076 C 0.90906 0.7664 0.65058 0.0
C2077 C 0.90617 0.74372 0.64637 0.0
C2078 C 0.90055 0.83496 0.67235 0.0
C2079 C 0.92051 0.84521 0.67944 0.0
C2080 C 0.89861 0.81193 0.67055 0.0
C2081 C 0.91639 0.7986 0.67621 0.0
C2082 C 0.93579 0.80869 0.68484 0.0
C2083 C 0.93791 0.83181 0.68625 0.0
H2084 H 0.2506 0.885 0.599 0.0
H2085 H 0.22521 0.88011 0.66465 0.0
H2086 H 0.28783 0.88241 0.6134 0.0
H2087 H 0.26295 0.87732 0.67919 0.0
H2088 H 0.33526 0.9072 0.6922 0.0
H2089 H 0.29628 0.90191 0.68302 0.0
H2090 H 0.31267 0.85629 0.63066 0.0
H2091 H 0.3517 0.86188 0.6395 0.0
C2092 C 0.25294 0.88326 0.61655 0.0
C2093 C 0.2349 0.88284 0.63069 0.0
C2094 C 0.27434 0.88152 0.62479 0.0
C2095 C 0.27835 0.87937 0.64741 0.0
C2096 C 0.26035 0.87895 0.66166 0.0
C2097 C 0.23878 0.88056 0.65335 0.0
C2098 C 0.33055 0.89565 0.67904 0.0
C2099 C 0.34663 0.88531 0.66628 0.0
C2100 C 0.30817 0.89256 0.67385 0.0
C2101 C 0.30143 0.87904 0.65584 0.0
C2102 C 0.31741 0.8672 0.64433 0.0
C2103 C 0.33978 0.8703 0.64949 0.0
H2104 H 0.14964 0.31159 0.63304 0.0
H2105 H 0.11078 0.30208 0.69101 0.0
H2106 H 0.1436 0.27277 0.62255 0.0
H2107 H 0.10487 0.26325 0.68053 0.0
H2108 H 0.08355 0.19848 0.64763 0.0
H2109 H 0.08677 0.2384 0.65309 0.0
H2110 H 0.15537 0.23653 0.63586 0.0
H2111 H 0.15215 0.19647 0.63024 0.0
C2112 C 0.13961 0.30131 0.64346 0.0
C2113 C 0.13072 0.31003 0.66294 0.0
C2114 C 0.13629 0.27898 0.63749 0.0
C2115 C 0.12384 0.26481 0.65072 0.0
C2116 C 0.11437 0.2737 0.66982 0.0
C2117 C 0.11782 0.296 0.67589 0.0
C2118 C 0.09928 0.20655 0.64469 0.0
C2119 C 0.11763 0.19415 0.63859 0.0
C2120 C 0.10115 0.22948 0.64799 0.0
C2121 C 0.12138 0.2407 0.64517 0.0
C2122 C 0.13949 0.22846 0.63807 0.0
C2123 C 0.13766 0.20546 0.63486 0.0
H2124 H 0.71137 0.11819 0.64058 0.0
H2125 H 0.70902 0.08716 0.70374 0.0
H2126 H 0.751 0.1251 0.64581 0.0
H2127 H 0.7487 0.09376 0.70874 0.0
H2128 H 0.82485 0.09028 0.69509 0.0
H2129 H 0.78529 0.08228 0.69106 0.0
H2130 H 0.77476 0.14978 0.67283 0.0
H2131 H 0.81426 0.15795 0.67723 0.0
C2132 C 0.71934 0.11248 0.65539 0.0
C2133 C 0.70698 0.10206 0.67172 0.0
C2134 C 0.74201 0.11666 0.65849 0.0
C2135 C 0.75296 0.11015 0.67778 0.0
C2136 C 0.74077 0.09895 0.6937 0.0
C2137 C 0.71803 0.09516 0.69081 0.0
C2138 C 0.81407 0.10352 0.69055 0.0
C2139 C 0.82276 0.12479 0.68658 0.0
C2140 C 0.7914 0.0989 0.68821 0.0
C2141 C 0.77692 0.11533 0.6814 0.0
C2142 C 0.78553 0.13671 0.67784 0.0
C2143 C 0.80814 0.14144 0.6806 0.0
H2144 H 0.93824 0.35264 0.45444 0.0
H2145 H 0.956 0.36347 0.38707 0.0
H2146 H 0.93722 0.3129 0.44746 0.0
H2147 H 0.95488 0.32346 0.38005 0.0
H2148 H 0.96322 0.24832 0.37883 0.0
H2149 H 0.97094 0.28703 0.38873 0.0
H2150 H 0.91129 0.28855 0.42623 0.0
H2151 H 0.90354 0.24982 0.4164 0.0
C2152 C 0.94234 0.34653 0.4382 0.0
C2153 C 0.94704 0.36129 0.42126 0.0
C2154 C 0.94157 0.32371 0.43418 0.0
C2155 C 0.94556 0.31499 0.41311 0.0
C2156 C 0.95176 0.32964 0.39649 0.0
C2157 C 0.95248 0.35258 0.40052 0.0
C2158 C 0.95185 0.2568 0.38942 0.0
C2159 C 0.93271 0.2459 0.39681 0.0
C2160 C 0.95624 0.27906 0.39495 0.0
C2161 C 0.94174 0.29094 0.40822 0.0
C2162 C 0.92295 0.27984 0.41617 0.0
C2163 C 0.91846 0.25764 0.41048 0.0
H2164 H 0.83957 0.94751 0.40241 0.0
H2165 H 0.85017 0.91785 0.46553 0.0
H2166 H 0.80011 0.94258 0.40606 0.0
H2167 H 0.8102 0.91321 0.4694 0.0
H2168 H 0.74198 0.88057 0.45032 0.0
H2169 H 0.78101 0.89016 0.45249 0.0
H2170 H 0.76776 0.954 0.42536 0.0
H2171 H 0.7285 0.94417 0.42276 0.0
C2172 C 0.83347 0.94013 0.41724 0.0
C2173 C 0.84812 0.9329 0.43361 0.0
C2174 C 0.81072 0.9375 0.41942 0.0
C2175 C 0.80186 0.92751 0.43802 0.0
C2176 C 0.81646 0.92079 0.45474 0.0
C2177 C 0.83936 0.92353 0.4526 0.0
C2178 C 0.74729 0.89676 0.44498 0.0
C2179 C 0.73206 0.91151 0.43612 0.0
C2180 C 0.76975 0.90234 0.44642 0.0
C2181 C 0.77765 0.92281 0.439 0.0
C2182 C 0.7623 0.93795 0.43094 0.0
C2183 C 0.73977 0.93238 0.42955 0.0
H2184 H 0.14043 0.7243 0.37858 0.0
H2185 H 0.16076 0.72574 0.4469 0.0
H2186 H 0.14659 0.76436 0.37715 0.0
H2187 H 0.16653 0.76557 0.44558 0.0
H2188 H 0.19543 0.83282 0.43288 0.0
H2189 H 0.19072 0.79292 0.43071 0.0
H2190 H 0.13214 0.79972 0.39045 0.0
H2191 H 0.13714 0.84008 0.39233 0.0
C2192 C 0.14629 0.7331 0.39327 0.0
C2193 C 0.1502 0.72166 0.41284 0.0
C2194 C 0.14966 0.75614 0.39249 0.0
C2195 C 0.15715 0.76834 0.41121 0.0
C2196 C 0.16113 0.7568 0.4307 0.0
C2197 C 0.15771 0.73386 0.4315 0.0
C2198 C 0.18159 0.82591 0.42339 0.0
C2199 C 0.16658 0.8398 0.4129 0.0
C2200 C 0.1788 0.80291 0.42228 0.0
C2201 C 0.16085 0.79293 0.4107 0.0
C2202 C 0.14623 0.80675 0.39946 0.0
C2203 C 0.14906 0.82992 0.40055 0.0
H2204 H 0.31602 0.16048 0.34128 0.0
H2205 H 0.31563 0.21144 0.39187 0.0
H2206 H 0.27654 0.16351 0.33597 0.0
H2207 H 0.27559 0.2139 0.3873 0.0
H2208 H 0.20458 0.22284 0.36531 0.0
H2209 H 0.24472 0.22376 0.3655 0.0
H2210 H 0.24433 0.15307 0.35369 0.0
H2211 H 0.20429 0.15237 0.35268 0.0
C2212 C 0.30742 0.17238 0.35131 0.0
C2213 C 0.31891 0.18558 0.36716 0.0
C2214 C 0.28468 0.174 0.34837 0.0
C2215 C 0.27261 0.18863 0.36146 0.0
C2216 C 0.28426 0.20252 0.37678 0.0
C2217 C 0.30722 0.20112 0.37948 0.0
C2218 C 0.21308 0.20754 0.36242 0.0
C2219 C 0.20116 0.18752 0.35894 0.0
C2220 C 0.23616 0.20804 0.36275 0.0
C2221 C 0.24797 0.1885 0.35976 0.0
C2222 C 0.23596 0.16857 0.3557 0.0
C2223 C 0.2129 0.16811 0.35517 0.0
H2224 H 0.64176 0.89075 0.73245 0.0
H2225 H 0.67082 0.82632 0.72859 0.0
H2226 H 0.64084 0.8887 0.77213 0.0
H2227 H 0.66948 0.82405 0.76873 0.0
H2228 H 0.69179 0.84409 0.83994 0.0
H2229 H 0.6881 0.84107 0.80024 0.0
H2230 H 0.62455 0.87151 0.80333 0.0
H2231 H 0.62851 0.875 0.84337 0.0
C2232 C 0.64778 0.87597 0.74005 0.0
C2233 C 0.65656 0.85876 0.72723 0.0
C2234 C 0.64703 0.87473 0.76292 0.0
C2235 C 0.65506 0.85623 0.7738 0.0
C2236 C 0.66336 0.83869 0.76096 0.0
C2237 C 0.66404 0.83991 0.73794 0.0
C2238 C 0.67689 0.85001 0.83225 0.0
C2239 C 0.66052 0.86 0.84493 0.0
C2240 C 0.67471 0.84807 0.80938 0.0
C2241 C 0.65608 0.8561 0.79841 0.0
C2242 C 0.63929 0.86541 0.81115 0.0
C2243 C 0.64147 0.8673 0.83414 0.0
H2244 H 0.12868 0.67162 0.82551 0.0
H2245 H 0.09392 0.6097 0.81188 0.0
H2246 H 0.12673 0.68009 0.78627 0.0
H2247 H 0.09247 0.61774 0.77317 0.0
H2248 H 0.08333 0.63846 0.7045 0.0
H2249 H 0.07825 0.63937 0.74423 0.0
H2250 H 0.14423 0.66647 0.75361 0.0
H2251 H 0.149 0.66622 0.71411 0.0
C2252 C 0.1204 0.65999 0.81423 0.0
C2253 C 0.1117 0.63989 0.8218 0.0
C2254 C 0.11938 0.66474 0.79174 0.0
C2255 C 0.10952 0.64955 0.77644 0.0
C2256 C 0.09992 0.63001 0.78434 0.0
C2257 C 0.10099 0.62527 0.80664 0.0
C2258 C 0.09658 0.64499 0.71504 0.0
C2259 C 0.11666 0.65197 0.7061 0.0
C2260 C 0.09373 0.64541 0.73784 0.0
C2261 C 0.11094 0.65273 0.75224 0.0
C2262 C 0.13053 0.6609 0.74315 0.0
C2263 C 0.13333 0.66055 0.7204 0.0
H2264 H 0.37215 0.17863 0.7895 0.0
H2265 H 0.4213 0.13403 0.81329 0.0
H2266 H 0.3821 0.17015 0.75203 0.0
H2267 H 0.43199 0.12609 0.77544 0.0
H2268 H 0.41497 0.09124 0.70847 0.0
H2269 H 0.41539 0.10522 0.74599 0.0
H2270 H 0.40718 0.17159 0.7227 0.0
H2271 H 0.4059 0.15729 0.68482 0.0
C2272 C 0.38544 0.16731 0.78675 0.0
C2273 C 0.39567 0.1567 0.80441 0.0
C2274 C 0.39134 0.16262 0.76515 0.0
C2275 C 0.40775 0.14727 0.76058 0.0
C2276 C 0.41898 0.13769 0.77833 0.0
C2277 C 0.41297 0.14232 0.80004 0.0
C2278 C 0.41352 0.10887 0.71126 0.0
C2279 C 0.41 0.1231 0.69363 0.0
C2280 C 0.414 0.11695 0.73288 0.0
C2281 C 0.41113 0.13954 0.7375 0.0
C2282 C 0.40904 0.15402 0.71977 0.0
C2283 C 0.40843 0.14588 0.69805 0.0
H2284 H 0.87697 0.44998 0.74589 0.0
H2285 H 0.93248 0.40866 0.73265 0.0
H2286 H 0.88256 0.44533 0.78507 0.0
H2287 H 0.93852 0.40447 0.77215 0.0
H2288 H 0.91871 0.37438 0.83807 0.0
H2289 H 0.91948 0.38445 0.79983 0.0
H2290 H 0.90452 0.45179 0.818 0.0
H2291 H 0.90325 0.44147 0.8567 0.0
C2292 C 0.89067 0.44021 0.75135 0.0
C2293 C 0.9041 0.42943 0.73605 0.0
C2294 C 0.89398 0.43769 0.77392 0.0
C2295 C 0.91084 0.42432 0.78187 0.0
C2296 C 0.92509 0.41456 0.76661 0.0
C2297 C 0.92176 0.41708 0.74395 0.0
C2298 C 0.91568 0.39141 0.83405 0.0
C2299 C 0.91072 0.40708 0.85053 0.0
C2300 C 0.91637 0.39725 0.81201 0.0
C2301 C 0.91215 0.41896 0.8057 0.0
C2302 C 0.90767 0.43484 0.82223 0.0
C2303 C 0.90699 0.42897 0.84442 0.0
H2304 H 0.65164 0.13851 0.33764 0.0
H2305 H 0.58926 0.1674 0.32106 0.0
H2306 H 0.65787 0.13087 0.29876 0.0
H2307 H 0.59569 0.16009 0.28222 0.0
H2308 H 0.61042 0.13456 0.21248 0.0
H2309 H 0.60094 0.13314 0.2515 0.0
H2310 H 0.66675 0.15621 0.26937 0.0
H2311 H 0.67615 0.15748 0.23093 0.0
C2312 C 0.63906 0.14286 0.32578 0.0
C2313 C 0.6201 0.15386 0.3325 0.0
C2314 C 0.6427 0.13862 0.30345 0.0
C2315 C 0.62745 0.14521 0.28732 0.0
C2316 C 0.60775 0.15473 0.29417 0.0
C2317 C 0.60413 0.15902 0.31648 0.0
C2318 C 0.62284 0.13917 0.2248 0.0
C2319 C 0.64399 0.14624 0.21855 0.0
C2320 C 0.61742 0.1384 0.24713 0.0
C2321 C 0.63314 0.1444 0.2636 0.0
C2322 C 0.65434 0.15107 0.25722 0.0
C2323 C 0.65966 0.15202 0.23507 0.0
H2324 H 0.9185 0.66775 0.30176 0.0
H2325 H 0.86068 0.70429 0.31859 0.0
H2326 H 0.90833 0.66927 0.26298 0.0
H2327 H 0.85071 0.70621 0.27921 0.0
H2328 H 0.86838 0.72315 0.20127 0.0
H2329 H 0.87276 0.7237 0.24161 0.0
H2330 H 0.8723 0.65245 0.24092 0.0
H2331 H 0.86758 0.65171 0.20124 0.0
C2332 C 0.9036 0.67615 0.29718 0.0
C2333 C 0.89035 0.68583 0.31328 0.0
C2334 C 0.89779 0.67701 0.27494 0.0
C2335 C 0.87879 0.68791 0.26811 0.0
C2336 C 0.86551 0.69781 0.28409 0.0
C2337 C 0.87111 0.69654 0.30656 0.0
C2338 C 0.86883 0.70764 0.2098 0.0
C2339 C 0.86781 0.68741 0.19792 0.0
C2340 C 0.87125 0.70796 0.23285 0.0
C2341 C 0.87296 0.68809 0.2443 0.0
C2342 C 0.87112 0.66799 0.2325 0.0
C2343 C 0.86843 0.66764 0.20969 0.0
H2344 H 0.45939 0.91399 0.20989 0.0
H2345 H 0.41104 0.86106 0.2149 0.0
H2346 H 0.46203 0.91683 0.24995 0.0
H2347 H 0.41412 0.86336 0.25475 0.0
H2348 H 0.40319 0.89379 0.32357 0.0
H2349 H 0.40326 0.88679 0.28399 0.0
H2350 H 0.47335 0.90063 0.28341 0.0
H2351 H 0.47309 0.90825 0.32282 0.0
C2352 C 0.44967 0.90265 0.21952 0.0
C2353 C 0.4349 0.88741 0.20915 0.0
C2354 C 0.45119 0.90423 0.24255 0.0
C2355 C 0.43809 0.89048 0.25577 0.0
C2356 C 0.42408 0.87459 0.24526 0.0
C2357 C 0.42245 0.87315 0.22232 0.0
C2358 C 0.41866 0.89502 0.31506 0.0
C2359 C 0.43809 0.90168 0.32643 0.0
C2360 C 0.41875 0.89096 0.29229 0.0
C2361 C 0.43831 0.89329 0.28029 0.0
C2362 C 0.45789 0.8991 0.2919 0.0
C2363 C 0.45776 0.90329 0.3146 0.0
H2364 H 0.18544 0.37215 0.36003 0.0
H2365 H 0.21767 0.43555 0.35093 0.0
H2366 H 0.18085 0.36742 0.32021 0.0
H2367 H 0.21368 0.43055 0.3113 0.0
H2368 H 0.17367 0.43198 0.2484 0.0
H2369 H 0.18207 0.43231 0.28734 0.0
H2370 H 0.19719 0.36294 0.28346 0.0
H2371 H 0.18826 0.36252 0.24388 0.0
C2372 C 0.19206 0.38482 0.34953 0.0
C2373 C 0.20168 0.40439 0.35869 0.0
C2374 C 0.18944 0.38208 0.32668 0.0
C2375 C 0.19646 0.39881 0.31252 0.0
C2376 C 0.20751 0.4176 0.32171 0.0
C2377 C 0.20996 0.4204 0.34447 0.0
C2378 C 0.17877 0.41671 0.25571 0.0
C2379 C 0.18043 0.39724 0.24291 0.0
C2380 C 0.1838 0.41696 0.27813 0.0
C2381 C 0.19079 0.39778 0.28855 0.0
C2382 C 0.19191 0.37804 0.27594 0.0
C2383 C 0.18679 0.37778 0.2533 0.0
H2384 H 0.70074 0.68007 0.85332 0.0
H2385 H 0.69587 0.61319 0.87672 0.0
H2386 H 0.74025 0.67561 0.84795 0.0
H2387 H 0.73531 0.60907 0.87175 0.0
H2388 H 0.80813 0.63175 0.89479 0.0
H2389 H 0.76783 0.62995 0.89326 0.0
H2390 H 0.76855 0.65134 0.82611 0.0
H2391 H 0.80877 0.65274 0.82739 0.0
C2392 C 0.70795 0.6643 0.85687 0.0
C2393 C 0.69512 0.64707 0.86556 0.0
C2394 C 0.73056 0.66176 0.8538 0.0
C2395 C 0.7408 0.64207 0.85967 0.0
C2396 C 0.72783 0.62447 0.86729 0.0
C2397 C 0.7052 0.62685 0.86999 0.0
C2398 C 0.7997 0.63562 0.87957 0.0
C2399 C 0.81165 0.64238 0.86124 0.0
C2400 C 0.77666 0.63455 0.87868 0.0
C2401 C 0.76514 0.64062 0.85959 0.0
C2402 C 0.77706 0.64669 0.84104 0.0
C2403 C 0.80009 0.64733 0.84178 0.0
H2404 H 0.73596 0.45321 0.15975 0.0
H2405 H 0.75045 0.4015 0.20518 0.0
H2406 H 0.77458 0.46445 0.15973 0.0
H2407 H 0.78967 0.41223 0.20456 0.0
H2408 H 0.85911 0.44285 0.20541 0.0
H2409 H 0.81962 0.43903 0.21231 0.0
H2410 H 0.80579 0.44884 0.14339 0.0
H2411 H 0.84483 0.45314 0.13669 0.0
C2412 C 0.74747 0.44431 0.16988 0.0
C2413 C 0.74025 0.42628 0.18224 0.0
C2414 C 0.76967 0.45069 0.16978 0.0
C2415 C 0.78542 0.43897 0.18173 0.0
C2416 C 0.77802 0.4217 0.19519 0.0
C2417 C 0.75558 0.41549 0.19553 0.0
C2418 C 0.84757 0.44474 0.19186 0.0
C2419 C 0.85517 0.44832 0.17047 0.0
C2420 C 0.82493 0.44228 0.19578 0.0
C2421 C 0.80942 0.44352 0.17843 0.0
C2422 C 0.81711 0.44809 0.15727 0.0
C2423 C 0.83961 0.45048 0.15337 0.0
H2424 H 0.7062 0.71507 0.15092 0.0
H2425 H 0.638 0.7158 0.16994 0.0
H2426 H 0.70897 0.75515 0.1569 0.0
H2427 H 0.64057 0.75553 0.1753 0.0
H2428 H 0.65064 0.82465 0.19611 0.0
H2429 H 0.65576 0.78499 0.19731 0.0
H2430 H 0.69548 0.78818 0.13918 0.0
H2431 H 0.691 0.82836 0.13862 0.0
C2432 C 0.69191 0.7237 0.15671 0.0
C2433 C 0.67185 0.71222 0.15992 0.0
C2434 C 0.69345 0.7467 0.15992 0.0
C2435 C 0.675 0.75864 0.16653 0.0
C2436 C 0.65525 0.74694 0.17056 0.0
C2437 C 0.65372 0.72407 0.16735 0.0
C2438 C 0.66077 0.81692 0.18378 0.0
C2439 C 0.67016 0.82947 0.16707 0.0
C2440 C 0.66362 0.79416 0.18441 0.0
C2441 C 0.67559 0.78326 0.16806 0.0
C2442 C 0.6862 0.79603 0.15208 0.0
C2443 C 0.68361 0.81902 0.15168 0.0
H2444 H 0.19853 0.67951 0.12849 0.0
H2445 H 0.21064 0.65096 0.19188 0.0
H2446 H 0.2376 0.67711 0.12036 0.0
H2447 H 0.24953 0.64801 0.18352 0.0
H2448 H 0.32252 0.65907 0.16622 0.0
H2449 H 0.28458 0.66627 0.1769 0.0
H2450 H 0.26173 0.64756 0.11141 0.0
H2451 H 0.29931 0.64082 0.10075 0.0
C2452 C 0.20953 0.67299 0.14081 0.0
C2453 C 0.20133 0.66528 0.16076 0.0
C2454 C 0.23194 0.67139 0.13607 0.0
C2455 C 0.24674 0.66198 0.15112 0.0
C2456 C 0.23872 0.65541 0.17156 0.0
C2457 C 0.21632 0.65705 0.17632 0.0
C2458 C 0.30935 0.65638 0.15418 0.0
C2459 C 0.31401 0.64938 0.13262 0.0
C2460 C 0.28759 0.66053 0.16028 0.0
C2461 C 0.27003 0.6578 0.14495 0.0
C2462 C 0.27479 0.65041 0.12354 0.0
C2463 C 0.29641 0.6463 0.11748 0.0
H2464 H 0.45241 0.23473 0.17601 0.0
H2465 H 0.43788 0.22813 0.10648 0.0
H2466 H 0.45791 0.27458 0.17219 0.0
H2467 H 0.443 0.26817 0.10278 0.0
H2468 H 0.42193 0.34272 0.1192 0.0
H2469 H 0.42134 0.30217 0.11787 0.0
H2470 H 0.48364 0.30219 0.15295 0.0
H2471 H 0.48451 0.34244 0.15404 0.0
C2472 C 0.45071 0.24174 0.15986 0.0
C2473 C 0.4448 0.22823 0.14156 0.0
C2474 C 0.45387 0.26457 0.15766 0.0
C2475 C 0.45078 0.27451 0.13719 0.0
C2476 C 0.44536 0.26097 0.11877 0.0
C2477 C 0.44263 0.23804 0.12088 0.0
C2478 C 0.4357 0.33408 0.12625 0.0
C2479 C 0.45319 0.34591 0.13683 0.0
C2480 C 0.43538 0.31086 0.12546 0.0
C2481 C 0.45237 0.29902 0.13549 0.0
C2482 C 0.47022 0.31085 0.14528 0.0
C2483 C 0.47072 0.33397 0.14579 0.0
H2484 H 0.34304 0.41263 0.94451 0.0
H2485 H 0.31741 0.42216 0.87885 0.0
H2486 H 0.30539 0.41038 0.9581 0.0
H2487 H 0.28018 0.41917 0.8921 0.0
H2488 H 0.23944 0.36981 0.96189 0.0
H2489 H 0.27651 0.3834 0.95551 0.0
H2490 H 0.25077 0.43325 0.91285 0.0
H2491 H 0.21342 0.41892 0.91863 0.0
C2492 C 0.32942 0.41444 0.93303 0.0
C2493 C 0.33325 0.41727 0.91056 0.0
C2494 C 0.30783 0.41308 0.94078 0.0
C2495 C 0.28964 0.41443 0.9262 0.0
C2496 C 0.29364 0.41836 0.90394 0.0
C2497 C 0.31511 0.41982 0.89626 0.0
C2498 C 0.24159 0.38393 0.95144 0.0
C2499 C 0.22348 0.39299 0.94042 0.0
C2500 C 0.26295 0.39189 0.94792 0.0
C2501 C 0.26678 0.40923 0.93338 0.0
C2502 C 0.24848 0.41953 0.92378 0.0
C2503 C 0.22703 0.41146 0.92723 0.0
H2504 H 0.67777 0.20205 0.9124 0.0
H2505 H 0.64519 0.19977 0.8487 0.0
H2506 H 0.67494 0.24246 0.91341 0.0
H2507 H 0.64187 0.23986 0.85016 0.0
H2508 H 0.61012 0.30253 0.88765 0.0
H2509 H 0.61823 0.26358 0.88056 0.0
H2510 H 0.68775 0.27851 0.88799 0.0
H2511 H 0.67975 0.31766 0.89435 0.0
C2512 C 0.67036 0.21015 0.8985 0.0
C2513 C 0.66169 0.19764 0.88051 0.0
C2514 C 0.66876 0.23324 0.89907 0.0
C2515 C 0.65809 0.24417 0.88189 0.0
C2516 C 0.65012 0.23179 0.86361 0.0
C2517 C 0.65213 0.20883 0.8628 0.0
C2518 C 0.62715 0.29759 0.88723 0.0
C2519 C 0.64428 0.31316 0.89137 0.0
C2520 C 0.63178 0.27534 0.88322 0.0
C2521 C 0.6536 0.26811 0.88385 0.0
C2522 C 0.6708 0.28371 0.88747 0.0
C2523 C 0.6662 0.3061 0.89089 0.0
H2524 H 0.39304 0.72523 0.84194 0.0
H2525 H 0.34192 0.73003 0.89009 0.0
H2526 H 0.39622 0.76558 0.84144 0.0
H2527 H 0.3446 0.77013 0.88918 0.0
H2528 H 0.3744 0.83923 0.90336 0.0
H2529 H 0.36882 0.79923 0.90158 0.0
H2530 H 0.37944 0.79945 0.83159 0.0
H2531 H 0.38562 0.83937 0.83352 0.0
C2532 C 0.3822 0.73488 0.8521 0.0
C2533 C 0.36733 0.72436 0.86614 0.0
C2534 C 0.38398 0.75806 0.85182 0.0
C2535 C 0.37084 0.77127 0.86548 0.0
C2536 C 0.35538 0.76063 0.87882 0.0
C2537 C 0.35371 0.73755 0.8792 0.0
C2538 C 0.37537 0.83078 0.88756 0.0
C2539 C 0.38048 0.84259 0.86861 0.0
C2540 C 0.37207 0.80778 0.88649 0.0
C2541 C 0.37368 0.79593 0.86641 0.0
C2542 C 0.3784 0.80785 0.8474 0.0
C2543 C 0.38178 0.83084 0.84849 0.0
loop_
_geom_bond_atom_site_label_1
_geom_bond_atom_site_label_2
_geom_bond_distance
_geom_bond_site_symmetry_2
_ccdc_geom_bond_type
Mg0 O7 2.141 . S
Mg0 O8 2.048 . S
Mg0 O9 2.048 . S
Mg0 O12 2.141 . S
C1 O2 1.313 . S
C1 O8 1.195 . S
O2 C1 1.313 . S
C3 O4 1.245 . S
C3 O12 1.289 . S
O4 C3 1.245 . S
C5 O6 1.245 . S
C5 O7 1.289 . S
O6 C5 1.245 . S
O7 Mg0 2.141 . S
O7 C5 1.289 . S
O8 Mg0 2.048 . S
O8 C1 1.195 . S
O9 Mg0 2.048 . S
O9 C10 1.195 . S
C10 O9 1.195 . S
C10 O11 1.313 . S
O11 C10 1.313 . S
O12 Mg0 2.141 . S
O12 C3 1.289 . S
Mg13 O20 2.141 . S
Mg13 O21 2.048 . S
Mg13 O22 2.048 . S
Mg13 O25 2.141 . S
C14 O15 1.313 . S
C14 O21 1.195 . S
O15 C14 1.313 . S
C16 O17 1.245 . S
C16 O25 1.289 . S
O17 C16 1.245 . S
C18 O19 1.245 . S
C18 O20 1.289 . S
O19 C18 1.245 . S
O20 Mg13 2.141 . S
O20 C18 1.289 . S
O21 Mg13 2.048 . S
O21 C14 1.195 . S
O22 Mg13 2.048 . S
O22 C23 1.195 . S
C23 O22 1.195 . S
C23 O24 1.313 . S
O24 C23 1.313 . S
O25 Mg13 2.141 . S
O25 C16 1.289 . S
Mg26 O33 2.141 . S
Mg26 O34 2.048 . S
Mg26 O35 2.048 . S
Mg26 O38 2.141 . S
C27 O28 1.313 . S
C27 O34 1.195 . S
O28 C27 1.313 . S
C29 O30 1.245 . S
C29 O38 1.289 . S
O30 C29 1.245 . S
C31 O32 1.245 . S
C31 O33 1.289 . S
O32 C31 1.245 . S
O33 Mg26 2.141 . S
O33 C31 1.289 . S
O34 Mg26 2.048 . S
O34 C27 1.195 . S
O35 Mg26 2.048 . S
O35 C36 1.195 . S
C36 O35 1.195 . S
C36 O37 1.313 . S
O37 C36 1.313 . S
O38 Mg26 2.141 . S
O38 C29 1.289 . S
Mg39 O46 2.141 . S
Mg39 O47 2.048 . S
Mg39 O48 2.048 . S
Mg39 O51 2.141 . S
C40 O41 1.313 . S
C40 O47 1.195 . S
O41 C40 1.313 . S
C42 O43 1.245 . S
C42 O51 1.289 . S
O43 C42 1.245 . S
C44 O45 1.245 . S
C44 O46 1.289 . S
O45 C44 1.245 . S
O46 Mg39 2.141 . S
O46 C44 1.289 . S
O47 Mg39 2.048 . S
O47 C40 1.195 . S
O48 Mg39 2.048 . S
O48 C49 1.195 . S
C49 O48 1.195 . S
C49 O50 1.313 . S
O50 C49 1.313 . S
O51 Mg39 2.141 . S
O51 C42 1.289 . S
Mg52 O59 2.141 . S
Mg52 O60 2.048 . S
Mg52 O61 2.048 . S
Mg52 O64 2.141 . S
C53 O54 1.313 . S
C53 O60 1.195 . S
O54 C53 1.313 . S
C55 O56 1.245 . S
C55 O64 1.289 . S
O56 C55 1.245 . S
C57 O58 1.245 . S
C57 O59 1.289 . S
O58 C57 1.245 . S
O59 Mg52 2.141 . S
O59 C57 1.289 . S
O60 Mg52 2.048 . S
O60 C53 1.195 . S
O61 Mg52 2.048 . S
O61 C62 1.195 . S
C62 O61 1.195 . S
C62 O63 1.313 . S
O63 C62 1.313 . S
O64 Mg52 2.141 . S
O64 C55 1.289 . S
Mg65 O72 2.141 . S
Mg65 O73 2.048 . S
Mg65 O74 2.048 . S
Mg65 O77 2.141 . S
C66 O67 1.313 . S
C66 O73 1.195 . S
O67 C66 1.313 . S
C68 O69 1.245 . S
C68 O77 1.289 . S
O69 C68 1.245 . S
C70 O71 1.245 . S
C70 O72 1.289 . S
O71 C70 1.245 . S
O72 Mg65 2.141 . S
O72 C70 1.289 . S
O73 Mg65 2.048 . S
O73 C66 1.195 . S
O74 Mg65 2.048 . S
O74 C75 1.195 . S
C75 O74 1.195 . S
C75 O76 1.313 . S
O76 C75 1.313 . S
O77 Mg65 2.141 . S
O77 C68 1.289 . S
Mg78 O85 2.141 . S
Mg78 O86 2.048 . S
Mg78 O87 2.048 . S
Mg78 O90 2.141 . S
C79 O80 1.313 . S
C79 O86 1.195 . S
O80 C79 1.313 . S
C81 O82 1.245 . S
C81 O90 1.289 . S
O82 C81 1.245 . S
C83 O84 1.245 . S
C83 O85 1.289 . S
O84 C83 1.245 . S
O85 Mg78 2.141 . S
O85 C83 1.289 . S
O86 Mg78 2.048 . S
O86 C79 1.195 . S
O87 Mg78 2.048 . S
O87 C88 1.195 . S
C88 O87 1.195 . S
C88 O89 1.313 . S
O89 C88 1.313 . S
O90 Mg78 2.141 . S
O90 C81 1.289 . S
Mg91 O98 2.141 . S
Mg91 O99 2.048 . S
Mg91 O100 2.048 . S
Mg91 O103 2.141 . S
C92 O93 1.313 . S
C92 O99 1.195 . S
O93 C92 1.313 . S
C94 O95 1.245 . S
C94 O103 1.289 . S
O95 C94 1.245 . S
C96 O97 1.245 . S
C96 O98 1.289 . S
O97 C96 1.245 . S
O98 Mg91 2.141 . S
O98 C96 1.289 . S
O99 Mg91 2.048 . S
O99 C92 1.195 . S
O100 Mg91 2.048 . S
O100 C101 1.195 . S
C101 O100 1.195 . S
C101 O102 1.313 . S
O102 C101 1.313 . S
O103 Mg91 2.141 . S
O103 C94 1.289 . S
Mg104 O111 2.141 . S
Mg104 O112 2.048 . S
Mg104 O113 2.048 . S
Mg104 O116 2.141 . S
C105 O106 1.313 . S
C105 O112 1.195 . S
O106 C105 1.313 . S
C107 O108 1.245 . S
C107 O116 1.289 . S
O108 C107 1.245 . S
C109 O110 1.245 . S
C109 O111 1.289 . S
O110 C109 1.245 . S
O111 Mg104 2.141 . S
O111 C109 1.289 . S
O112 Mg104 2.048 . S
O112 C105 1.195 . S
O113 Mg104 2.048 . S
O113 C114 1.195 . S
C114 O113 1.195 . S
C114 O115 1.313 . S
O115 C114 1.313 . S
O116 Mg104 2.141 . S
O116 C107 1.289 . S
Mg117 O124 2.141 . S
Mg117 O125 2.048 . S
Mg117 O126 2.048 . S
Mg117 O129 2.141 . S
C118 O119 1.313 . S
C118 O125 1.195 . S
O119 C118 1.313 . S
C120 O121 1.245 . S
C120 O129 1.289 . S
O121 C120 1.245 . S
C122 O123 1.245 . S
C122 O124 1.289 . S
O123 C122 1.245 . S
O124 Mg117 2.141 . S
O124 C122 1.289 . S
O125 Mg117 2.048 . S
O125 C118 1.195 . S
O126 Mg117 2.048 . S
O126 C127 1.195 . S
C127 O126 1.195 . S
C127 O128 1.313 . S
O128 C127 1.313 . S
O129 Mg117 2.141 . S
O129 C120 1.289 . S
Mg130 O137 2.141 . S
Mg130 O138 2.048 . S
Mg130 O139 2.048 . S
Mg130 O142 2.141 . S
C131 O132 1.313 . S
C131 O138 1.195 . S
O132 C131 1.313 . S
C133 O134 1.245 . S
C133 O142 1.289 . S
O134 C133 1.245 . S
C135 O136 1.245 . S
C135 O137 1.289 . S
O136 C135 1.245 . S
O137 Mg130 2.141 . S
O137 C135 1.289 . S
O138 Mg130 2.048 . S
O138 C131 1.195 . S
O139 Mg130 2.048 . S
O139 C140 1.195 . S
C140 O139 1.195 . S
C140 O141 1.313 . S
O141 C140 1.313 . S
O142 Mg130 2.141 . S
O142 C133 1.289 . S
Mg143 O150 2.141 . S
Mg143 O151 2.048 . S
Mg143 O152 2.048 . S
Mg143 O155 2.141 . S
C144 O145 1.313 . S
C144 O151 1.195 . S
O145 C144 1.313 . S
C146 O147 1.245 . S
C146 O155 1.289 . S
O147 C146 1.245 . S
C148 O149 1.245 . S
C148 O150 1.289 . S
O149 C148 1.245 . S
O150 Mg143 2.141 . S
O150 C148 1.289 . S
O151 Mg143 2.048 . S
O151 C144 1.195 . S
O152 Mg143 2.048 . S
O152 C153 1.195 . S
C153 O152 1.195 . S
C153 O154 1.313 . S
O154 C153 1.313 . S
O155 Mg143 2.141 . S
O155 C146 1.289 . S
Mg156 O163 2.141 . S
Mg156 O164 2.048 . S
Mg156 O165 2.048 . S
Mg156 O168 2.141 . S
C157 O158 1.313 . S
C157 O164 1.195 . S
O158 C157 1.313 . S
C159 O160 1.245 . S
C159 O168 1.289 . S
O160 C159 1.245 . S
C161 O162 1.245 . S
C161 O163 1.289 . S
O162 C161 1.245 . S
O163 Mg156 2.141 . S
O163 C161 1.289 . S
O164 Mg156 2.048 . S
O164 C157 1.195 . S
O165 Mg156 2.048 . S
O165 C166 1.195 . S
C166 O165 1.195 . S
C166 O167 1.313 . S
O167 C166 1.313 . S
O168 Mg156 2.141 . S
O168 C159 1.289 . S
Mg169 O176 2.141 . S
Mg169 O177 2.048 . S
Mg169 O178 2.048 . S
Mg169 O181 2.141 . S
C170 O171 1.313 . S
C170 O177 1.195 . S
O171 C170 1.313 . S
C172 O173 1.245 . S
C172 O181 1.289 . S
O173 C172 1.245 . S
C174 O175 1.245 . S
C174 O176 1.289 . S
O175 C174 1.245 . S
O176 Mg169 2.141 . S
O176 C174 1.289 . S
O177 Mg169 2.048 . S
O177 C170 1.195 . S
O178 Mg169 2.048 . S
O178 C179 1.195 . S
C179 O178 1.195 . S
C179 O180 1.313 . S
O180 C179 1.313 . S
O181 Mg169 2.141 . S
O181 C172 1.289 . S
Mg182 O189 2.141 . S
Mg182 O190 2.048 . S
Mg182 O191 2.048 . S
Mg182 O194 2.141 . S
C183 O184 1.313 . S
C183 O190 1.195 . S
O184 C183 1.313 . S
C185 O186 1.245 . S
C185 O194 1.289 . S
O186 C185 1.245 . S
C187 O188 1.245 . S
C187 O189 1.289 . S
O188 C187 1.245 . S
O189 Mg182 2.141 . S
O189 C187 1.289 . S
O190 Mg182 2.048 . S
O190 C183 1.195 . S
O191 Mg182 2.048 . S
O191 C192 1.195 . S
C192 O191 1.195 . S
C192 O193 1.313 . S
O193 C192 1.313 . S
O194 Mg182 2.141 . S
O194 C185 1.289 . S
Mg195 O202 2.141 . S
Mg195 O203 2.048 . S
Mg195 O204 2.048 . S
Mg195 O207 2.141 . S
C196 O197 1.313 . S
C196 O203 1.195 . S
O197 C196 1.313 . S
C198 O199 1.245 . S
C198 O207 1.289 . S
O199 C198 1.245 . S
C200 O201 1.245 . S
C200 O202 1.289 . S
O201 C200 1.245 . S
O202 Mg195 2.141 . S
O202 C200 1.289 . S
O203 Mg195 2.048 . S
O203 C196 1.195 . S
O204 Mg195 2.048 . S
O204 C205 1.195 . S
C205 O204 1.195 . S
C205 O206 1.313 . S
O206 C205 1.313 . S
O207 Mg195 2.141 . S
O207 C198 1.289 . S
Mg208 O215 2.141 . S
Mg208 O216 2.048 . S
Mg208 O217 2.048 . S
Mg208 O220 2.141 . S
C209 O210 1.313 . S
C209 O216 1.195 . S
O210 C209 1.313 . S
C211 O212 1.245 . S
C211 O220 1.289 . S
O212 C211 1.245 . S
C213 O214 1.245 . S
C213 O215 1.289 . S
O214 C213 1.245 . S
O215 Mg208 2.141 . S
O215 C213 1.289 . S
O216 Mg208 2.048 . S
O216 C209 1.195 . S
O217 Mg208 2.048 . S
O217 C218 1.195 . S
C218 O217 1.195 . S
C218 O219 1.313 . S
O219 C218 1.313 . S
O220 Mg208 2.141 . S
O220 C211 1.289 . S
Mg221 O228 2.141 . S
Mg221 O229 2.048 . S
Mg221 O230 2.048 . S
Mg221 O233 2.141 . S
C222 O223 1.313 . S
C222 O229 1.195 . S
O223 C222 1.313 . S
C224 O225 1.245 . S
C224 O233 1.289 . S
O225 C224 1.245 . S
C226 O227 1.245 . S
C226 O228 1.289 . S
O227 C226 1.245 . S
O228 Mg221 2.141 . S
O228 C226 1.289 . S
O229 Mg221 2.048 . S
O229 C222 1.195 . S
O230 Mg221 2.048 . S
O230 C231 1.195 . S
C231 O230 1.195 . S
C231 O232 1.313 . S
O232 C231 1.313 . S
O233 Mg221 2.141 . S
O233 C224 1.289 . S
Mg234 O241 2.141 . S
Mg234 O242 2.048 . S
Mg234 O243 2.048 . S
Mg234 O246 2.141 . S
C235 O236 1.313 . S
C235 O242 1.195 . S
O236 C235 1.313 . S
C237 O238 1.245 . S
C237 O246 1.289 . S
O238 C237 1.245 . S
C239 O240 1.245 . S
C239 O241 1.289 . S
O240 C239 1.245 . S
O241 Mg234 2.141 . S
O241 C239 1.289 . S
O242 Mg234 2.048 . S
O242 C235 1.195 . S
O243 Mg234 2.048 . S
O243 C244 1.195 . S
C244 O243 1.195 . S
C244 O245 1.313 . S
O245 C244 1.313 . S
O246 Mg234 2.141 . S
O246 C237 1.289 . S
Mg247 O254 2.141 . S
Mg247 O255 2.048 . S
Mg247 O256 2.048 . S
Mg247 O259 2.141 . S
C248 O249 1.313 . S
C248 O255 1.195 . S
O249 C248 1.313 . S
C250 O251 1.245 . S
C250 O259 1.289 . S
O251 C250 1.245 . S
C252 O253 1.245 . S
C252 O254 1.289 . S
O253 C252 1.245 . S
O254 Mg247 2.141 . S
O254 C252 1.289 . S
O255 Mg247 2.048 . S
O255 C248 1.195 . S
O256 Mg247 2.048 . S
O256 C257 1.195 . S
C257 O256 1.195 . S
C257 O258 1.313 . S
O258 C257 1.313 . S
O259 Mg247 2.141 . S
O259 C250 1.289 . S
Mg260 O267 2.141 . S
Mg260 O268 2.048 . S
Mg260 O269 2.048 . S
Mg260 O272 2.141 . S
C261 O262 1.313 . S
C261 O268 1.195 . S
O262 C261 1.313 . S
C263 O264 1.245 . S
C263 O272 1.289 . S
O264 C263 1.245 . S
C265 O266 1.245 . S
C265 O267 1.289 . S
O266 C265 1.245 . S
O267 Mg260 2.141 . S
O267 C265 1.289 . S
O268 Mg260 2.048 . S
O268 C261 1.195 . S
O269 Mg260 2.048 . S
O269 C270 1.195 . S
C270 O269 1.195 . S
C270 O271 1.313 . S
O271 C270 1.313 . S
O272 Mg260 2.141 . S
O272 C263 1.289 . S
Mg273 O280 2.141 . S
Mg273 O281 2.048 . S
Mg273 O282 2.048 . S
Mg273 O285 2.141 . S
C274 O275 1.313 . S
C274 O281 1.195 . S
O275 C274 1.313 . S
C276 O277 1.245 . S
C276 O285 1.289 . S
O277 C276 1.245 . S
C278 O279 1.245 . S
C278 O280 1.289 . S
O279 C278 1.245 . S
O280 Mg273 2.141 . S
O280 C278 1.289 . S
O281 Mg273 2.048 . S
O281 C274 1.195 . S
O282 Mg273 2.048 . S
O282 C283 1.195 . S
C283 O282 1.195 . S
C283 O284 1.313 . S
O284 C283 1.313 . S
O285 Mg273 2.141 . S
O285 C276 1.289 . S
Mg286 O293 2.141 . S
Mg286 O294 2.048 . S
Mg286 O295 2.048 . S
Mg286 O298 2.141 . S
C287 O288 1.313 . S
C287 O294 1.195 . S
O288 C287 1.313 . S
C289 O290 1.245 . S
C289 O298 1.289 . S
O290 C289 1.245 . S
C291 O292 1.245 . S
C291 O293 1.289 . S
O292 C291 1.245 . S
O293 Mg286 2.141 . S
O293 C291 1.289 . S
O294 Mg286 2.048 . S
O294 C287 1.195 . S
O295 Mg286 2.048 . S
O295 C296 1.195 . S
C296 O295 1.195 . S
C296 O297 1.313 . S
O297 C296 1.313 . S
O298 Mg286 2.141 . S
O298 C289 1.289 . S
Mg299 O306 2.141 . S
Mg299 O307 2.048 . S
Mg299 O308 2.048 . S
Mg299 O311 2.141 . S
C300 O301 1.313 . S
C300 O307 1.195 . S
O301 C300 1.313 . S
C302 O303 1.245 . S
C302 O311 1.289 . S
O303 C302 1.245 . S
C304 O305 1.245 . S
C304 O306 1.289 . S
O305 C304 1.245 . S
O306 Mg299 2.141 . S
O306 C304 1.289 . S
O307 Mg299 2.048 . S
O307 C300 1.195 . S
O308 Mg299 2.048 . S
O308 C309 1.195 . S
C309 O308 1.195 . S
C309 O310 1.313 . S
O310 C309 1.313 . S
O311 Mg299 2.141 . S
O311 C302 1.289 . S
Mg312 O319 2.141 . S
Mg312 O320 2.048 . S
Mg312 O321 2.048 . S
Mg312 O324 2.141 . S
C313 O314 1.313 . S
C313 O320 1.195 . S
O314 C313 1.313 . S
C315 O316 1.245 . S
C315 O324 1.289 . S
O316 C315 1.245 . S
C317 O318 1.245 . S
C317 O319 1.289 . S
O318 C317 1.245 . S
O319 Mg312 2.141 . S
O319 C317 1.289 . S
O320 Mg312 2.048 . S
O320 C313 1.195 . S
O321 Mg312 2.048 . S
O321 C322 1.195 . S
C322 O321 1.195 . S
C322 O323 1.313 . S
O323 C322 1.313 . S
O324 Mg312 2.141 . S
O324 C315 1.289 . S
Mg325 O332 2.141 . S
Mg325 O333 2.048 . S
Mg325 O334 2.048 . S
Mg325 O337 2.141 . S
C326 O327 1.313 . S
C326 O333 1.195 . S
O327 C326 1.313 . S
C328 O329 1.245 . S
C328 O337 1.289 . S
O329 C328 1.245 . S
C330 O331 1.245 . S
C330 O332 1.289 . S
O331 C330 1.245 . S
O332 Mg325 2.141 . S
O332 C330 1.289 . S
O333 Mg325 2.048 . S
O333 C326 1.195 . S
O334 Mg325 2.048 . S
O334 C335 1.195 . S
C335 O334 1.195 . S
C335 O336 1.313 . S
O336 C335 1.313 . S
O337 Mg325 2.141 . S
O337 C328 1.289 . S
Mg338 O345 2.141 . S
Mg338 O346 2.048 . S
Mg338 O347 2.048 . S
Mg338 O350 2.141 . S
C339 O340 1.313 . S
C339 O346 1.195 . S
O340 C339 1.313 . S
C341 O342 1.245 . S
C341 O350 1.289 . S
O342 C341 1.245 . S
C343 O344 1.245 . S
C343 O345 1.289 . S
O344 C343 1.245 . S
O345 Mg338 2.141 . S
O345 C343 1.289 . S
O346 Mg338 2.048 . S
O346 C339 1.195 . S
O347 Mg338 2.048 . S
O347 C348 1.195 . S
C348 O347 1.195 . S
C348 O349 1.313 . S
O349 C348 1.313 . S
O350 Mg338 2.141 . S
O350 C341 1.289 . S
Mg351 O358 2.141 . S
Mg351 O359 2.048 . S
Mg351 O360 2.048 . S
Mg351 O363 2.141 . S
C352 O353 1.313 . S
C352 O359 1.195 . S
O353 C352 1.313 . S
C354 O355 1.245 . S
C354 O363 1.289 . S
O355 C354 1.245 . S
C356 O357 1.245 . S
C356 O358 1.289 . S
O357 C356 1.245 . S
O358 Mg351 2.141 . S
O358 C356 1.289 . S
O359 Mg351 2.048 . S
O359 C352 1.195 . S
O360 Mg351 2.048 . S
O360 C361 1.195 . S
C361 O360 1.195 . S
C361 O362 1.313 . S
O362 C361 1.313 . S
O363 Mg351 2.141 . S
O363 C354 1.289 . S
Mg364 O371 2.141 . S
Mg364 O372 2.048 . S
Mg364 O373 2.048 . S
Mg364 O376 2.141 . S
C365 O366 1.313 . S
C365 O372 1.195 . S
O366 C365 1.313 . S
C367 O368 1.245 . S
C367 O376 1.289 . S
O368 C367 1.245 . S
C369 O370 1.245 . S
C369 O371 1.289 . S
O370 C369 1.245 . S
O371 Mg364 2.141 . S
O371 C369 1.289 . S
O372 Mg364 2.048 . S
O372 C365 1.195 . S
O373 Mg364 2.048 . S
O373 C374 1.195 . S
C374 O373 1.195 . S
C374 O375 1.313 . S
O375 C374 1.313 . S
O376 Mg364 2.141 . S
O376 C367 1.289 . S
Mg377 O384 2.141 . S
Mg377 O385 2.048 . S
Mg377 O386 2.048 . S
Mg377 O389 2.141 . S
C378 O379 1.313 . S
C378 O385 1.195 . S
O379 C378 1.313 . S
C380 O381 1.245 . S
C380 O389 1.289 . S
O381 C380 1.245 . S
C382 O383 1.245 . S
C382 O384 1.289 . S
O383 C382 1.245 . S
O384 Mg377 2.141 . S
O384 C382 1.289 . S
O385 Mg377 2.048 . S
O385 C378 1.195 . S
O386 Mg377 2.048 . S
O386 C387 1.195 . S
C387 O386 1.195 . S
C387 O388 1.313 . S
O388 C387 1.313 . S
O389 Mg377 2.141 . S
O389 C380 1.289 . S
Mg390 O397 2.141 . S
Mg390 O398 2.048 . S
Mg390 O399 2.048 . S
Mg390 O402 2.141 . S
C391 O392 1.313 . S
C391 O398 1.195 . S
O392 C391 1.313 . S
C393 O394 1.245 . S
C393 O402 1.289 . S
O394 C393 1.245 . S
C395 O396 1.245 . S
C395 O397 1.289 . S
O396 C395 1.245 . S
O397 Mg390 2.141 . S
O397 C395 1.289 . S
O398 Mg390 2.048 . S
O398 C391 1.195 . S
O399 Mg390 2.048 . S
O399 C400 1.195 . S
C400 O399 1.195 . S
C400 O401 1.313 . S
O401 C400 1.313 . S
O402 Mg390 2.141 . S
O402 C393 1.289 . S
Mg403 O410 2.141 . S
Mg403 O411 2.048 . S
Mg403 O412 2.048 . S
Mg403 O415 2.141 . S
C404 O405 1.313 . S
C404 O411 1.195 . S
O405 C404 1.313 . S
C406 O407 1.245 . S
C406 O415 1.289 . S
O407 C406 1.245 . S
C408 O409 1.245 . S
C408 O410 1.289 . S
O409 C408 1.245 . S
O410 Mg403 2.141 . S
O410 C408 1.289 . S
O411 Mg403 2.048 . S
O411 C404 1.195 . S
O412 Mg403 2.048 . S
O412 C413 1.195 . S
C413 O412 1.195 . S
C413 O414 1.313 . S
O414 C413 1.313 . S
O415 Mg403 2.141 . S
O415 C406 1.289 . S
Mg416 O423 2.141 . S
Mg416 O424 2.048 . S
Mg416 O425 2.048 . S
Mg416 O428 2.141 . S
C417 O418 1.313 . S
C417 O424 1.195 . S
O418 C417 1.313 . S
C419 O420 1.245 . S
C419 O428 1.289 . S
O420 C419 1.245 . S
C421 O422 1.245 . S
C421 O423 1.289 . S
O422 C421 1.245 . S
O423 Mg416 2.141 . S
O423 C421 1.289 . S
O424 Mg416 2.048 . S
O424 C417 1.195 . S
O425 Mg416 2.048 . S
O425 C426 1.195 . S
C426 O425 1.195 . S
C426 O427 1.313 . S
O427 C426 1.313 . S
O428 Mg416 2.141 . S
O428 C419 1.289 . S
Mg429 O436 2.141 . S
Mg429 O437 2.048 . S
Mg429 O438 2.048 . S
Mg429 O441 2.141 . S
C430 O431 1.313 . S
C430 O437 1.195 . S
O431 C430 1.313 . S
C432 O433 1.245 . S
C432 O441 1.289 . S
O433 C432 1.245 . S
C434 O435 1.245 . S
C434 O436 1.289 . S
O435 C434 1.245 . S
O436 Mg429 2.141 . S
O436 C434 1.289 . S
O437 Mg429 2.048 . S
O437 C430 1.195 . S
O438 Mg429 2.048 . S
O438 C439 1.195 . S
C439 O438 1.195 . S
C439 O440 1.313 . S
O440 C439 1.313 . S
O441 Mg429 2.141 . S
O441 C432 1.289 . S
Mg442 O449 2.141 . S
Mg442 O450 2.048 . S
Mg442 O451 2.048 . S
Mg442 O454 2.141 . S
C443 O444 1.313 . S
C443 O450 1.195 . S
O444 C443 1.313 . S
C445 O446 1.245 . S
C445 O454 1.289 . S
O446 C445 1.245 . S
C447 O448 1.245 . S
C447 O449 1.289 . S
O448 C447 1.245 . S
O449 Mg442 2.141 . S
O449 C447 1.289 . S
O450 Mg442 2.048 . S
O450 C443 1.195 . S
O451 Mg442 2.048 . S
O451 C452 1.195 . S
C452 O451 1.195 . S
C452 O453 1.313 . S
O453 C452 1.313 . S
O454 Mg442 2.141 . S
O454 C445 1.289 . S
Mg455 O462 2.141 . S
Mg455 O463 2.048 . S
Mg455 O464 2.048 . S
Mg455 O467 2.141 . S
C456 O457 1.313 . S
C456 O463 1.195 . S
O457 C456 1.313 . S
C458 O459 1.245 . S
C458 O467 1.289 . S
O459 C458 1.245 . S
C460 O461 1.245 . S
C460 O462 1.289 . S
O461 C460 1.245 . S
O462 Mg455 2.141 . S
O462 C460 1.289 . S
O463 Mg455 2.048 . S
O463 C456 1.195 . S
O464 Mg455 2.048 . S
O464 C465 1.195 . S
C465 O464 1.195 . S
C465 O466 1.313 . S
O466 C465 1.313 . S
O467 Mg455 2.141 . S
O467 C458 1.289 . S
Mg468 O475 2.141 . S
Mg468 O476 2.048 . S
Mg468 O477 2.048 . S
Mg468 O480 2.141 . S
C469 O470 1.313 . S
C469 O476 1.195 . S
O470 C469 1.313 . S
C471 O472 1.245 . S
C471 O480 1.289 . S
O472 C471 1.245 . S
C473 O474 1.245 . S
C473 O475 1.289 . S
O474 C473 1.245 . S
O475 Mg468 2.141 . S
O475 C473 1.289 . S
O476 Mg468 2.048 . S
O476 C469 1.195 . S
O477 Mg468 2.048 . S
O477 C478 1.195 . S
C478 O477 1.195 . S
C478 O479 1.313 . S
O479 C478 1.313 . S
O480 Mg468 2.141 . S
O480 C471 1.289 . S
Mg481 O488 2.141 . S
Mg481 O489 2.048 . S
Mg481 O490 2.048 . S
Mg481 O493 2.141 . S
C482 O483 1.313 . S
C482 O489 1.195 . S
O483 C482 1.313 . S
C484 O485 1.245 . S
C484 O493 1.289 . S
O485 C484 1.245 . S
C486 O487 1.245 . S
C486 O488 1.289 . S
O487 C486 1.245 . S
O488 Mg481 2.141 . S
O488 C486 1.289 . S
O489 Mg481 2.048 . S
O489 C482 1.195 . S
O490 Mg481 2.048 . S
O490 C491 1.195 . S
C491 O490 1.195 . S
C491 O492 1.313 . S
O492 C491 1.313 . S
O493 Mg481 2.141 . S
O493 C484 1.289 . S
Mg494 O501 2.141 . S
Mg494 O502 2.048 . S
Mg494 O503 2.048 . S
Mg494 O506 2.141 . S
C495 O496 1.313 . S
C495 O502 1.195 . S
O496 C495 1.313 . S
C497 O498 1.245 . S
C497 O506 1.289 . S
O498 C497 1.245 . S
C499 O500 1.245 . S
C499 O501 1.289 . S
O500 C499 1.245 . S
O501 Mg494 2.141 . S
O501 C499 1.289 . S
O502 Mg494 2.048 . S
O502 C495 1.195 . S
O503 Mg494 2.048 . S
O503 C504 1.195 . S
C504 O503 1.195 . S
C504 O505 1.313 . S
O505 C504 1.313 . S
O506 Mg494 2.141 . S
O506 C497 1.289 . S
Mg507 O514 2.141 . S
Mg507 O515 2.048 . S
Mg507 O516 2.048 . S
Mg507 O519 2.141 . S
C508 O509 1.313 . S
C508 O515 1.195 . S
O509 C508 1.313 . S
C510 O511 1.245 . S
C510 O519 1.289 . S
O511 C510 1.245 . S
C512 O513 1.245 . S
C512 O514 1.289 . S
O513 C512 1.245 . S
O514 Mg507 2.141 . S
O514 C512 1.289 . S
O515 Mg507 2.048 . S
O515 C508 1.195 . S
O516 Mg507 2.048 . S
O516 C517 1.195 . S
C517 O516 1.195 . S
C517 O518 1.313 . S
O518 C517 1.313 . S
O519 Mg507 2.141 . S
O519 C510 1.289 . S
Mg520 O527 2.141 . S
Mg520 O528 2.048 . S
Mg520 O529 2.048 . S
Mg520 O532 2.141 . S
C521 O522 1.313 . S
C521 O528 1.195 . S
O522 C521 1.313 . S
C523 O524 1.245 . S
C523 O532 1.289 . S
O524 C523 1.245 . S
C525 O526 1.245 . S
C525 O527 1.289 . S
O526 C525 1.245 . S
O527 Mg520 2.141 . S
O527 C525 1.289 . S
O528 Mg520 2.048 . S
O528 C521 1.195 . S
O529 Mg520 2.048 . S
O529 C530 1.195 . S
C530 O529 1.195 . S
C530 O531 1.313 . S
O531 C530 1.313 . S
O532 Mg520 2.141 . S
O532 C523 1.289 . S
Mg533 O540 2.141 . S
Mg533 O541 2.048 . S
Mg533 O542 2.048 . S
Mg533 O545 2.141 . S
C534 O535 1.313 . S
C534 O541 1.195 . S
O535 C534 1.313 . S
C536 O537 1.245 . S
C536 O545 1.289 . S
O537 C536 1.245 . S
C538 O539 1.245 . S
C538 O540 1.289 . S
O539 C538 1.245 . S
O540 Mg533 2.141 . S
O540 C538 1.289 . S
O541 Mg533 2.048 . S
O541 C534 1.195 . S
O542 Mg533 2.048 . S
O542 C543 1.195 . S
C543 O542 1.195 . S
C543 O544 1.313 . S
O544 C543 1.313 . S
O545 Mg533 2.141 . S
O545 C536 1.289 . S
Mg546 O553 2.141 . S
Mg546 O554 2.048 . S
Mg546 O555 2.048 . S
Mg546 O558 2.141 . S
C547 O548 1.313 . S
C547 O554 1.195 . S
O548 C547 1.313 . S
C549 O550 1.245 . S
C549 O558 1.289 . S
O550 C549 1.245 . S
C551 O552 1.245 . S
C551 O553 1.289 . S
O552 C551 1.245 . S
O553 Mg546 2.141 . S
O553 C551 1.289 . S
O554 Mg546 2.048 . S
O554 C547 1.195 . S
O555 Mg546 2.048 . S
O555 C556 1.195 . S
C556 O555 1.195 . S
C556 O557 1.313 . S
O557 C556 1.313 . S
O558 Mg546 2.141 . S
O558 C549 1.289 . S
Mg559 O566 2.141 . S
Mg559 O567 2.048 . S
Mg559 O568 2.048 . S
Mg559 O571 2.141 . S
C560 O561 1.313 . S
C560 O567 1.195 . S
O561 C560 1.313 . S
C562 O563 1.245 . S
C562 O571 1.289 . S
O563 C562 1.245 . S
C564 O565 1.245 . S
C564 O566 1.289 . S
O565 C564 1.245 . S
O566 Mg559 2.141 . S
O566 C564 1.289 . S
O567 Mg559 2.048 . S
O567 C560 1.195 . S
O568 Mg559 2.048 . S
O568 C569 1.195 . S
C569 O568 1.195 . S
C569 O570 1.313 . S
O570 C569 1.313 . S
O571 Mg559 2.141 . S
O571 C562 1.289 . S
Mg572 O579 2.141 . S
Mg572 O580 2.048 . S
Mg572 O581 2.048 . S
Mg572 O584 2.141 . S
C573 O574 1.313 . S
C573 O580 1.195 . S
O574 C573 1.313 . S
C575 O576 1.245 . S
C575 O584 1.289 . S
O576 C575 1.245 . S
C577 O578 1.245 . S
C577 O579 1.289 . S
O578 C577 1.245 . S
O579 Mg572 2.141 . S
O579 C577 1.289 . S
O580 Mg572 2.048 . S
O580 C573 1.195 . S
O581 Mg572 2.048 . S
O581 C582 1.195 . S
C582 O581 1.195 . S
C582 O583 1.313 . S
O583 C582 1.313 . S
O584 Mg572 2.141 . S
O584 C575 1.289 . S
Mg585 O592 2.141 . S
Mg585 O593 2.048 . S
Mg585 O594 2.048 . S
Mg585 O597 2.141 . S
C586 O587 1.313 . S
C586 O593 1.195 . S
O587 C586 1.313 . S
C588 O589 1.245 . S
C588 O597 1.289 . S
O589 C588 1.245 . S
C590 O591 1.245 . S
C590 O592 1.289 . S
O591 C590 1.245 . S
O592 Mg585 2.141 . S
O592 C590 1.289 . S
O593 Mg585 2.048 . S
O593 C586 1.195 . S
O594 Mg585 2.048 . S
O594 C595 1.195 . S
C595 O594 1.195 . S
C595 O596 1.313 . S
O596 C595 1.313 . S
O597 Mg585 2.141 . S
O597 C588 1.289 . S
Mg598 O605 2.141 . S
Mg598 O606 2.048 . S
Mg598 O607 2.048 . S
Mg598 O610 2.141 . S
C599 O600 1.313 . S
C599 O606 1.195 . S
O600 C599 1.313 . S
C601 O602 1.245 . S
C601 O610 1.289 . S
O602 C601 1.245 . S
C603 O604 1.245 . S
C603 O605 1.289 . S
O604 C603 1.245 . S
O605 Mg598 2.141 . S
O605 C603 1.289 . S
O606 Mg598 2.048 . S
O606 C599 1.195 . S
O607 Mg598 2.048 . S
O607 C608 1.195 . S
C608 O607 1.195 . S
C608 O609 1.313 . S
O609 C608 1.313 . S
O610 Mg598 2.141 . S
O610 C601 1.289 . S
Mg611 O618 2.141 . S
Mg611 O619 2.048 . S
Mg611 O620 2.048 . S
Mg611 O623 2.141 . S
C612 O613 1.313 . S
C612 O619 1.195 . S
O613 C612 1.313 . S
C614 O615 1.245 . S
C614 O623 1.289 . S
O615 C614 1.245 . S
C616 O617 1.245 . S
C616 O618 1.289 . S
O617 C616 1.245 . S
O618 Mg611 2.141 . S
O618 C616 1.289 . S
O619 Mg611 2.048 . S
O619 C612 1.195 . S
O620 Mg611 2.048 . S
O620 C621 1.195 . S
C621 O620 1.195 . S
C621 O622 1.313 . S
O622 C621 1.313 . S
O623 Mg611 2.141 . S
O623 C614 1.289 . S
H624 C632 0.950 . S
H625 C637 0.950 . S
H626 C634 0.950 . S
H627 C636 0.950 . S
H628 C638 0.950 . S
H629 C640 0.950 . S
H630 C642 0.950 . S
H631 C643 0.950 . S
C632 H624 0.950 . S
C632 C633 1.386 . S
C632 C634 1.391 . S
C633 C632 1.386 . S
C633 C637 1.393 . S
C634 H626 0.950 . S
C634 C632 1.391 . S
C634 C635 1.400 . S
C635 C634 1.400 . S
C635 C636 1.398 . S
C635 C641 1.491 1_565 S
C636 H627 0.950 . S
C636 C635 1.398 . S
C636 C637 1.391 . S
C637 H625 0.950 . S
C637 C633 1.393 . S
C637 C636 1.391 . S
C638 H628 0.950 . S
C638 C639 1.386 . S
C638 C640 1.391 . S
C639 C638 1.386 . S
C639 C643 1.393 . S
C640 H629 0.950 . S
C640 C638 1.391 . S
C640 C641 1.400 . S
C641 C635 1.491 1_545 S
C641 C640 1.400 . S
C641 C642 1.398 . S
C642 H630 0.950 . S
C642 C641 1.398 . S
C642 C643 1.391 . S
C643 H631 0.950 . S
C643 C639 1.393 . S
C643 C642 1.391 . S
H644 C652 0.950 . S
H645 C657 0.950 . S
H646 C654 0.950 . S
H647 C656 0.950 . S
H648 C658 0.950 . S
H649 C660 0.950 . S
H650 C662 0.950 . S
H651 C663 0.950 . S
C652 H644 0.950 . S
C652 C653 1.386 . S
C652 C654 1.391 . S
C653 C652 1.386 . S
C653 C657 1.393 . S
C654 H646 0.950 . S
C654 C652 1.391 . S
C654 C655 1.400 . S
C655 C654 1.400 . S
C655 C656 1.398 . S
C655 C661 1.491 1_455 S
C656 H647 0.950 . S
C656 C655 1.398 . S
C656 C657 1.391 . S
C657 H645 0.950 . S
C657 C653 1.393 . S
C657 C656 1.391 . S
C658 H648 0.950 . S
C658 C659 1.386 . S
C658 C660 1.391 . S
C659 C658 1.386 . S
C659 C663 1.393 . S
C660 H649 0.950 . S
C660 C658 1.391 . S
C660 C661 1.400 . S
C661 C655 1.491 1_655 S
C661 C660 1.400 . S
C661 C662 1.398 . S
C662 H650 0.950 . S
C662 C661 1.398 . S
C662 C663 1.391 . S
C663 H651 0.950 . S
C663 C659 1.393 . S
C663 C662 1.391 . S
H664 C672 0.950 . S
H665 C677 0.950 . S
H666 C674 0.950 . S
H667 C676 0.950 . S
H668 C678 0.950 . S
H669 C680 0.950 . S
H670 C682 0.950 . S
H671 C683 0.950 . S
C672 H664 0.950 . S
C672 C673 1.386 . S
C672 C674 1.391 . S
C673 C672 1.386 . S
C673 C677 1.393 . S
C674 H666 0.950 . S
C674 C672 1.391 . S
C674 C675 1.400 . S
C675 C674 1.400 . S
C675 C676 1.398 . S
C675 C681 1.491 1_565 S
C676 H667 0.950 . S
C676 C675 1.398 . S
C676 C677 1.391 . S
C677 H665 0.950 . S
C677 C673 1.393 . S
C677 C676 1.391 . S
C678 H668 0.950 . S
C678 C679 1.386 . S
C678 C680 1.391 . S
C679 C678 1.386 . S
C679 C683 1.393 . S
C680 H669 0.950 . S
C680 C678 1.391 . S
C680 C681 1.400 . S
C681 C675 1.491 1_545 S
C681 C680 1.400 . S
C681 C682 1.398 . S
C682 H670 0.950 . S
C682 C681 1.398 . S
C682 C683 1.391 . S
C683 H671 0.950 . S
C683 C679 1.393 . S
C683 C682 1.391 . S
H684 C692 0.950 . S
H685 C697 0.950 . S
H686 C694 0.950 . S
H687 C696 0.950 . S
H688 C698 0.950 . S
H689 C700 0.950 . S
H690 C702 0.950 . S
H691 C703 0.950 . S
C692 H684 0.950 . S
C692 C693 1.386 . S
C692 C694 1.391 . S
C693 C692 1.386 . S
C693 C697 1.393 . S
C694 H686 0.950 . S
C694 C692 1.391 . S
C694 C695 1.400 . S
C695 C694 1.400 . S
C695 C696 1.398 . S
C695 C701 1.491 1_655 S
C696 H687 0.950 . S
C696 C695 1.398 . S
C696 C697 1.391 . S
C697 H685 0.950 . S
C697 C693 1.393 . S
C697 C696 1.391 . S
C698 H688 0.950 . S
C698 C699 1.386 . S
C698 C700 1.391 . S
C699 C698 1.386 . S
C699 C703 1.393 . S
C700 H689 0.950 . S
C700 C698 1.391 . S
C700 C701 1.400 . S
C701 C695 1.491 1_455 S
C701 C700 1.400 . S
C701 C702 1.398 . S
C702 H690 0.950 . S
C702 C701 1.398 . S
C702 C703 1.391 . S
C703 H691 0.950 . S
C703 C699 1.393 . S
C703 C702 1.391 . S
H704 C712 0.950 . S
H705 C717 0.950 . S
H706 C714 0.950 . S
H707 C716 0.950 . S
H708 C718 0.950 . S
H709 C720 0.950 . S
H710 C722 0.950 . S
H711 C723 0.950 . S
C712 H704 0.950 . S
C712 C713 1.386 . S
C712 C714 1.391 . S
C713 C712 1.386 . S
C713 C717 1.393 . S
C714 H706 0.950 . S
C714 C712 1.391 . S
C714 C715 1.400 . S
C715 C714 1.400 . S
C715 C716 1.398 . S
C715 C721 1.491 1_565 S
C716 H707 0.950 . S
C716 C715 1.398 . S
C716 C717 1.391 . S
C717 H705 0.950 . S
C717 C713 1.393 . S
C717 C716 1.391 . S
C718 H708 0.950 . S
C718 C719 1.386 . S
C718 C720 1.391 . S
C719 C718 1.386 . S
C719 C723 1.393 . S
C720 H709 0.950 . S
C720 C718 1.391 . S
C720 C721 1.400 . S
C721 C715 1.491 1_545 S
C721 C720 1.400 . S
C721 C722 1.398 . S
C722 H710 0.950 . S
C722 C721 1.398 . S
C722 C723 1.391 . S
C723 H711 0.950 . S
C723 C719 1.393 . S
C723 C722 1.391 . S
H724 C732 0.950 . S
H725 C737 0.950 . S
H726 C734 0.950 . S
H727 C736 0.950 . S
H728 C738 0.950 . S
H729 C740 0.950 . S
H730 C742 0.950 . S
H731 C743 0.950 . S
C732 H724 0.950 . S
C732 C733 1.386 . S
C732 C734 1.391 . S
C733 C732 1.386 . S
C733 C737 1.393 . S
C734 H726 0.950 . S
C734 C732 1.391 . S
C734 C735 1.400 . S
C735 C734 1.400 . S
C735 C736 1.398 . S
C735 C741 1.491 1_655 S
C736 H727 0.950 . S
C736 C735 1.398 . S
C736 C737 1.391 . S
C737 H725 0.950 . S
C737 C733 1.393 . S
C737 C736 1.391 . S
C738 H728 0.950 . S
C738 C739 1.386 . S
C738 C740 1.391 . S
C739 C738 1.386 . S
C739 C743 1.393 . S
C740 H729 0.950 . S
C740 C738 1.391 . S
C740 C741 1.400 . S
C741 C735 1.491 1_455 S
C741 C740 1.400 . S
C741 C742 1.398 . S
C742 H730 0.950 . S
C742 C741 1.398 . S
C742 C743 1.391 . S
C743 H731 0.950 . S
C743 C739 1.393 . S
C743 C742 1.391 . S
H744 C752 0.950 . S
H745 C757 0.950 . S
H746 C754 0.950 . S
H747 C756 0.950 . S
H748 C758 0.950 . S
H749 C760 0.950 . S
H750 C762 0.950 . S
H751 C763 0.950 . S
C752 H744 0.950 . S
C752 C753 1.386 . S
C752 C754 1.391 . S
C753 C752 1.386 . S
C753 C757 1.393 . S
C754 H746 0.950 . S
C754 C752 1.391 . S
C754 C755 1.400 . S
C755 C754 1.400 . S
C755 C756 1.398 . S
C755 C761 1.491 1_545 S
C756 H747 0.950 . S
C756 C755 1.398 . S
C756 C757 1.391 . S
C757 H745 0.950 . S
C757 C753 1.393 . S
C757 C756 1.391 . S
C758 H748 0.950 . S
C758 C759 1.386 . S
C758 C760 1.391 . S
C759 C758 1.386 . S
C759 C763 1.393 . S
C760 H749 0.950 . S
C760 C758 1.391 . S
C760 C761 1.400 . S
C761 C755 1.491 1_565 S
C761 C760 1.400 . S
C761 C762 1.398 . S
C762 H750 0.950 . S
C762 C761 1.398 . S
C762 C763 1.391 . S
C763 H751 0.950 . S
C763 C759 1.393 . S
C763 C762 1.391 . S
H764 C772 0.950 . S
H765 C777 0.950 . S
H766 C774 0.950 . S
H767 C776 0.950 . S
H768 C778 0.950 . S
H769 C780 0.950 . S
H770 C782 0.950 . S
H771 C783 0.950 . S
C772 H764 0.950 . S
C772 C773 1.386 . S
C772 C774 1.391 . S
C773 C772 1.386 . S
C773 C777 1.393 . S
C774 H766 0.950 . S
C774 C772 1.391 . S
C774 C775 1.400 . S
C775 C774 1.400 . S
C775 C776 1.398 . S
C775 C781 1.491 1_455 S
C776 H767 0.950 . S
C776 C775 1.398 . S
C776 C777 1.391 . S
C777 H765 0.950 . S
C777 C773 1.393 . S
C777 C776 1.391 . S
C778 H768 0.950 . S
C778 C779 1.386 . S
C778 C780 1.391 . S
C779 C778 1.386 . S
C779 C783 1.393 . S
C780 H769 0.950 . S
C780 C778 1.391 . S
C780 C781 1.400 . S
C781 C775 1.491 1_655 S
C781 C780 1.400 . S
C781 C782 1.398 . S
C782 H770 0.950 . S
C782 C781 1.398 . S
C782 C783 1.391 . S
C783 H771 0.950 . S
C783 C779 1.393 . S
C783 C782 1.391 . S
H784 C792 0.950 . S
H785 C797 0.950 . S
H786 C794 0.950 . S
H787 C796 0.950 . S
H788 C798 0.950 . S
H789 C800 0.950 . S
H790 C802 0.950 . S
H791 C803 0.950 . S
C792 H784 0.950 . S
C792 C793 1.386 . S
C792 C794 1.391 . S
C793 C792 1.386 . S
C793 C797 1.393 . S
C794 H786 0.950 . S
C794 C792 1.391 . S
C794 C795 1.400 . S
C795 C794 1.400 . S
C795 C796 1.398 . S
C795 C801 1.491 1_554 S
C796 H787 0.950 . S
C796 C795 1.398 . S
C796 C797 1.391 . S
C797 H785 0.950 . S
C797 C793 1.393 . S
C797 C796 1.391 . S
C798 H788 0.950 . S
C798 C799 1.386 . S
C798 C800 1.391 . S
C799 C798 1.386 . S
C799 C803 1.393 . S
C800 H789 0.950 . S
C800 C798 1.391 . S
C800 C801 1.400 . S
C801 C795 1.491 1_556 S
C801 C800 1.400 . S
C801 C802 1.398 . S
C802 H790 0.950 . S
C802 C801 1.398 . S
C802 C803 1.391 . S
C803 H791 0.950 . S
C803 C799 1.393 . S
C803 C802 1.391 . S
H804 C812 0.950 . S
H805 C817 0.950 . S
H806 C814 0.950 . S
H807 C816 0.950 . S
H808 C818 0.950 . S
H809 C820 0.950 . S
H810 C822 0.950 . S
H811 C823 0.950 . S
C812 H804 0.950 . S
C812 C813 1.386 . S
C812 C814 1.391 . S
C813 C812 1.386 . S
C813 C817 1.393 . S
C814 H806 0.950 . S
C814 C812 1.391 . S
C814 C815 1.400 . S
C815 C814 1.400 . S
C815 C816 1.398 . S
C815 C821 1.491 1_556 S
C816 H807 0.950 . S
C816 C815 1.398 . S
C816 C817 1.391 . S
C817 H805 0.950 . S
C817 C813 1.393 . S
C817 C816 1.391 . S
C818 H808 0.950 . S
C818 C819 1.386 . S
C818 C820 1.391 . S
C819 C818 1.386 . S
C819 C823 1.393 . S
C820 H809 0.950 . S
C820 C818 1.391 . S
C820 C821 1.400 . S
C821 C815 1.491 1_554 S
C821 C820 1.400 . S
C821 C822 1.398 . S
C822 H810 0.950 . S
C822 C821 1.398 . S
C822 C823 1.391 . S
C823 H811 0.950 . S
C823 C819 1.393 . S
C823 C822 1.391 . S
H824 C832 0.950 . S
H825 C837 0.950 . S
H826 C834 0.950 . S
H827 C836 0.950 . S
H828 C838 0.950 . S
H829 C840 0.950 . S
H830 C842 0.950 . S
H831 C843 0.950 . S
C832 H824 0.950 . S
C832 C833 1.386 . S
C832 C834 1.391 . S
C833 C832 1.386 . S
C833 C837 1.393 . S
C834 H826 0.950 . S
C834 C832 1.391 . S
C834 C835 1.400 . S
C835 C834 1.400 . S
C835 C836 1.398 . S
C835 C841 1.491 1_556 S
C836 H827 0.950 . S
C836 C835 1.398 . S
C836 C837 1.391 . S
C837 H825 0.950 . S
C837 C833 1.393 . S
C837 C836 1.391 . S
C838 H828 0.950 . S
C838 C839 1.386 . S
C838 C840 1.391 . S
C839 C838 1.386 . S
C839 C843 1.393 . S
C840 H829 0.950 . S
C840 C838 1.391 . S
C840 C841 1.400 . S
C841 C835 1.491 1_554 S
C841 C840 1.400 . S
C841 C842 1.398 . S
C842 H830 0.950 . S
C842 C841 1.398 . S
C842 C843 1.391 . S
C843 H831 0.950 . S
C843 C839 1.393 . S
C843 C842 1.391 . S
H844 C852 0.950 . S
H845 C857 0.950 . S
H846 C854 0.950 . S
H847 C856 0.950 . S
H848 C858 0.950 . S
H849 C860 0.950 . S
H850 C862 0.950 . S
H851 C863 0.950 . S
C852 H844 0.950 . S
C852 C853 1.386 . S
C852 C854 1.391 . S
C853 C852 1.386 . S
C853 C857 1.393 . S
C854 H846 0.950 . S
C854 C852 1.391 . S
C854 C855 1.400 . S
C855 C854 1.400 . S
C855 C856 1.398 . S
C855 C861 1.491 1_556 S
C856 H847 0.950 . S
C856 C855 1.398 . S
C856 C857 1.391 . S
C857 H845 0.950 . S
C857 C853 1.393 . S
C857 C856 1.391 . S
C858 H848 0.950 . S
C858 C859 1.386 . S
C858 C860 1.391 . S
C859 C858 1.386 . S
C859 C863 1.393 . S
C860 H849 0.950 . S
C860 C858 1.391 . S
C860 C861 1.400 . S
C861 C855 1.491 1_554 S
C861 C860 1.400 . S
C861 C862 1.398 . S
C862 H850 0.950 . S
C862 C861 1.398 . S
C862 C863 1.391 . S
C863 H851 0.950 . S
C863 C859 1.393 . S
C863 C862 1.391 . S
H864 C872 0.950 . S
H865 C877 0.950 . S
H866 C874 0.950 . S
H867 C876 0.950 . S
H868 C878 0.950 . S
H869 C880 0.950 . S
H870 C882 0.950 . S
H871 C883 0.950 . S
C872 H864 0.950 . S
C872 C873 1.386 . S
C872 C874 1.391 . S
C873 C872 1.386 . S
C873 C877 1.393 . S
C874 H866 0.950 . S
C874 C872 1.391 . S
C874 C875 1.400 . S
C875 C874 1.400 . S
C875 C876 1.398 . S
C875 C881 1.491 1_554 S
C876 H867 0.950 . S
C876 C875 1.398 . S
C876 C877 1.391 . S
C877 H865 0.950 . S
C877 C873 1.393 . S
C877 C876 1.391 . S
C878 H868 0.950 . S
C878 C879 1.386 . S
C878 C880 1.391 . S
C879 C878 1.386 . S
C879 C883 1.393 . S
C880 H869 0.950 . S
C880 C878 1.391 . S
C880 C881 1.400 . S
C881 C875 1.491 1_556 S
C881 C880 1.400 . S
C881 C882 1.398 . S
C882 H870 0.950 . S
C882 C881 1.398 . S
C882 C883 1.391 . S
C883 H871 0.950 . S
C883 C879 1.393 . S
C883 C882 1.391 . S
H884 C892 0.950 . S
H885 C897 0.950 . S
H886 C894 0.950 . S
H887 C896 0.950 . S
H888 C898 0.950 . S
H889 C900 0.950 . S
H890 C902 0.950 . S
H891 C903 0.950 . S
C892 H884 0.950 . S
C892 C893 1.386 . S
C892 C894 1.391 . S
C893 C892 1.386 . S
C893 C897 1.393 . S
C894 H886 0.950 . S
C894 C892 1.391 . S
C894 C895 1.400 . S
C895 C894 1.400 . S
C895 C896 1.398 . S
C895 C901 1.491 1_556 S
C896 H887 0.950 . S
C896 C895 1.398 . S
C896 C897 1.391 . S
C897 H885 0.950 . S
C897 C893 1.393 . S
C897 C896 1.391 . S
C898 H888 0.950 . S
C898 C899 1.386 . S
C898 C900 1.391 . S
C899 C898 1.386 . S
C899 C903 1.393 . S
C900 H889 0.950 . S
C900 C898 1.391 . S
C900 C901 1.400 . S
C901 C895 1.491 1_554 S
C901 C900 1.400 . S
C901 C902 1.398 . S
C902 H890 0.950 . S
C902 C901 1.398 . S
C902 C903 1.391 . S
C903 H891 0.950 . S
C903 C899 1.393 . S
C903 C902 1.391 . S
H904 C912 0.950 . S
H905 C917 0.950 . S
H906 C914 0.950 . S
H907 C916 0.950 . S
H908 C918 0.950 . S
H909 C920 0.950 . S
H910 C922 0.950 . S
H911 C923 0.950 . S
C912 H904 0.950 . S
C912 C913 1.386 . S
C912 C914 1.391 . S
C913 C912 1.386 . S
C913 C917 1.393 . S
C914 H906 0.950 . S
C914 C912 1.391 . S
C914 C915 1.400 . S
C915 C914 1.400 . S
C915 C916 1.398 . S
C915 C921 1.491 1_554 S
C916 H907 0.950 . S
C916 C915 1.398 . S
C916 C917 1.391 . S
C917 H905 0.950 . S
C917 C913 1.393 . S
C917 C916 1.391 . S
C918 H908 0.950 . S
C918 C919 1.386 . S
C918 C920 1.391 . S
C919 C918 1.386 . S
C919 C923 1.393 . S
C920 H909 0.950 . S
C920 C918 1.391 . S
C920 C921 1.400 . S
C921 C915 1.491 1_556 S
C921 C920 1.400 . S
C921 C922 1.398 . S
C922 H910 0.950 . S
C922 C921 1.398 . S
C922 C923 1.391 . S
C923 H911 0.950 . S
C923 C919 1.393 . S
C923 C922 1.391 . S
H924 C932 0.950 . S
H925 C937 0.950 . S
H926 C934 0.950 . S
H927 C936 0.950 . S
H928 C938 0.950 . S
H929 C940 0.950 . S
H930 C942 0.950 . S
H931 C943 0.950 . S
C932 H924 0.950 . S
C932 C933 1.386 . S
C932 C934 1.391 . S
C933 C932 1.386 . S
C933 C937 1.393 . S
C934 H926 0.950 . S
C934 C932 1.391 . S
C934 C935 1.400 . S
C935 C934 1.400 . S
C935 C936 1.398 . S
C935 C941 1.491 1_556 S
C936 H927 0.950 . S
C936 C935 1.398 . S
C936 C937 1.391 . S
C937 H925 0.950 . S
C937 C933 1.393 . S
C937 C936 1.391 . S
C938 H928 0.950 . S
C938 C939 1.386 . S
C938 C940 1.391 . S
C939 C938 1.386 . S
C939 C943 1.393 . S
C940 H929 0.950 . S
C940 C938 1.391 . S
C940 C941 1.400 . S
C941 C935 1.491 1_554 S
C941 C940 1.400 . S
C941 C942 1.398 . S
C942 H930 0.950 . S
C942 C941 1.398 . S
C942 C943 1.391 . S
C943 H931 0.950 . S
C943 C939 1.393 . S
C943 C942 1.391 . S
H944 C952 0.950 . S
H945 C957 0.950 . S
H946 C954 0.950 . S
H947 C956 0.950 . S
H948 C958 0.950 . S
H949 C960 0.950 . S
H950 C962 0.950 . S
H951 C963 0.950 . S
C952 H944 0.950 . S
C952 C953 1.386 . S
C952 C954 1.391 . S
C953 C952 1.386 . S
C953 C957 1.393 . S
C954 H946 0.950 . S
C954 C952 1.391 . S
C954 C955 1.400 . S
C955 C954 1.400 . S
C955 C956 1.398 . S
C955 C961 1.491 1_455 S
C956 H947 0.950 . S
C956 C955 1.398 . S
C956 C957 1.391 . S
C957 H945 0.950 . S
C957 C953 1.393 . S
C957 C956 1.391 . S
C958 H948 0.950 . S
C958 C959 1.386 . S
C958 C960 1.391 . S
C959 C958 1.386 . S
C959 C963 1.393 . S
C960 H949 0.950 . S
C960 C958 1.391 . S
C960 C961 1.400 . S
C961 C955 1.491 1_655 S
C961 C960 1.400 . S
C961 C962 1.398 . S
C962 H950 0.950 . S
C962 C961 1.398 . S
C962 C963 1.391 . S
C963 H951 0.950 . S
C963 C959 1.393 . S
C963 C962 1.391 . S
H964 C972 0.950 . S
H965 C977 0.950 . S
H966 C974 0.950 . S
H967 C976 0.950 . S
H968 C978 0.950 . S
H969 C980 0.950 . S
H970 C982 0.950 . S
H971 C983 0.950 . S
C972 H964 0.950 . S
C972 C973 1.386 . S
C972 C974 1.391 . S
C973 C972 1.386 . S
C973 C977 1.393 . S
C974 H966 0.950 . S
C974 C972 1.391 . S
C974 C975 1.400 . S
C975 C974 1.400 . S
C975 C976 1.398 . S
C975 C981 1.491 1_455 S
C976 H967 0.950 . S
C976 C975 1.398 . S
C976 C977 1.391 . S
C977 H965 0.950 . S
C977 C973 1.393 . S
C977 C976 1.391 . S
C978 H968 0.950 . S
C978 C979 1.386 . S
C978 C980 1.391 . S
C979 C978 1.386 . S
C979 C983 1.393 . S
C980 H969 0.950 . S
C980 C978 1.391 . S
C980 C981 1.400 . S
C981 C975 1.491 1_655 S
C981 C980 1.400 . S
C981 C982 1.398 . S
C982 H970 0.950 . S
C982 C981 1.398 . S
C982 C983 1.391 . S
C983 H971 0.950 . S
C983 C979 1.393 . S
C983 C982 1.391 . S
H984 C992 0.950 . S
H985 C997 0.950 . S
H986 C994 0.950 . S
H987 C996 0.950 . S
H988 C998 0.950 . S
H989 C1000 0.950 . S
H990 C1002 0.950 . S
H991 C1003 0.950 . S
C992 H984 0.950 . S
C992 C993 1.386 . S
C992 C994 1.391 . S
C993 C992 1.386 . S
C993 C997 1.393 . S
C994 H986 0.950 . S
C994 C992 1.391 . S
C994 C995 1.400 . S
C995 C994 1.400 . S
C995 C996 1.398 . S
C995 C1001 1.491 1_565 S
C996 H987 0.950 . S
C996 C995 1.398 . S
C996 C997 1.391 . S
C997 H985 0.950 . S
C997 C993 1.393 . S
C997 C996 1.391 . S
C998 H988 0.950 . S
C998 C999 1.386 . S
C998 C1000 1.391 . S
C999 C998 1.386 . S
C999 C1003 1.393 . S
C1000 H989 0.950 . S
C1000 C998 1.391 . S
C1000 C1001 1.400 . S
C1001 C995 1.491 1_545 S
C1001 C1000 1.400 . S
C1001 C1002 1.398 . S
C1002 H990 0.950 . S
C1002 C1001 1.398 . S
C1002 C1003 1.391 . S
C1003 H991 0.950 . S
C1003 C999 1.393 . S
C1003 C1002 1.391 . S
H1004 C1012 0.950 . S
H1005 C1017 0.950 . S
H1006 C1014 0.950 . S
H1007 C1016 0.950 . S
H1008 C1018 0.950 . S
H1009 C1020 0.950 . S
H1010 C1022 0.950 . S
H1011 C1023 0.950 . S
C1012 H1004 0.950 . S
C1012 C1013 1.386 . S
C1012 C1014 1.391 . S
C1013 C1012 1.386 . S
C1013 C1017 1.393 . S
C1014 H1006 0.950 . S
C1014 C1012 1.391 . S
C1014 C1015 1.400 . S
C1015 C1014 1.400 . S
C1015 C1016 1.398 . S
C1015 C1021 1.491 1_455 S
C1016 H1007 0.950 . S
C1016 C1015 1.398 . S
C1016 C1017 1.391 . S
C1017 H1005 0.950 . S
C1017 C1013 1.393 . S
C1017 C1016 1.391 . S
C1018 H1008 0.950 . S
C1018 C1019 1.386 . S
C1018 C1020 1.391 . S
C1019 C1018 1.386 . S
C1019 C1023 1.393 . S
C1020 H1009 0.950 . S
C1020 C1018 1.391 . S
C1020 C1021 1.400 . S
C1021 C1015 1.491 1_655 S
C1021 C1020 1.400 . S
C1021 C1022 1.398 . S
C1022 H1010 0.950 . S
C1022 C1021 1.398 . S
C1022 C1023 1.391 . S
C1023 H1011 0.950 . S
C1023 C1019 1.393 . S
C1023 C1022 1.391 . S
H1024 C1032 0.950 . S
H1025 C1037 0.950 . S
H1026 C1034 0.950 . S
H1027 C1036 0.950 . S
H1028 C1038 0.950 . S
H1029 C1040 0.950 . S
H1030 C1042 0.950 . S
H1031 C1043 0.950 . S
C1032 H1024 0.950 . S
C1032 C1033 1.386 . S
C1032 C1034 1.391 . S
C1033 C1032 1.386 . S
C1033 C1037 1.393 . S
C1034 H1026 0.950 . S
C1034 C1032 1.391 . S
C1034 C1035 1.400 . S
C1035 C1034 1.400 . S
C1035 C1036 1.398 . S
C1035 C1041 1.491 1_545 S
C1036 H1027 0.950 . S
C1036 C1035 1.398 . S
C1036 C1037 1.391 . S
C1037 H1025 0.950 . S
C1037 C1033 1.393 . S
C1037 C1036 1.391 . S
C1038 H1028 0.950 . S
C1038 C1039 1.386 . S
C1038 C1040 1.391 . S
C1039 C1038 1.386 . S
C1039 C1043 1.393 . S
C1040 H1029 0.950 . S
C1040 C1038 1.391 . S
C1040 C1041 1.400 . S
C1041 C1035 1.491 1_565 S
C1041 C1040 1.400 . S
C1041 C1042 1.398 . S
C1042 H1030 0.950 . S
C1042 C1041 1.398 . S
C1042 C1043 1.391 . S
C1043 H1031 0.950 . S
C1043 C1039 1.393 . S
C1043 C1042 1.391 . S
H1044 C1052 0.950 . S
H1045 C1057 0.950 . S
H1046 C1054 0.950 . S
H1047 C1056 0.950 . S
H1048 C1058 0.950 . S
H1049 C1060 0.950 . S
H1050 C1062 0.950 . S
H1051 C1063 0.950 . S
C1052 H1044 0.950 . S
C1052 C1053 1.386 . S
C1052 C1054 1.391 . S
C1053 C1052 1.386 . S
C1053 C1057 1.393 . S
C1054 H1046 0.950 . S
C1054 C1052 1.391 . S
C1054 C1055 1.400 . S
C1055 C1054 1.400 . S
C1055 C1056 1.398 . S
C1055 C1061 1.491 1_455 S
C1056 H1047 0.950 . S
C1056 C1055 1.398 . S
C1056 C1057 1.391 . S
C1057 H1045 0.950 . S
C1057 C1053 1.393 . S
C1057 C1056 1.391 . S
C1058 H1048 0.950 . S
C1058 C1059 1.386 . S
C1058 C1060 1.391 . S
C1059 C1058 1.386 . S
C1059 C1063 1.393 . S
C1060 H1049 0.950 . S
C1060 C1058 1.391 . S
C1060 C1061 1.400 . S
C1061 C1055 1.491 1_655 S
C1061 C1060 1.400 . S
C1061 C1062 1.398 . S
C1062 H1050 0.950 . S
C1062 C1061 1.398 . S
C1062 C1063 1.391 . S
C1063 H1051 0.950 . S
C1063 C1059 1.393 . S
C1063 C1062 1.391 . S
H1064 C1072 0.950 . S
H1065 C1077 0.950 . S
H1066 C1074 0.950 . S
H1067 C1076 0.950 . S
H1068 C1078 0.950 . S
H1069 C1080 0.950 . S
H1070 C1082 0.950 . S
H1071 C1083 0.950 . S
C1072 H1064 0.950 . S
C1072 C1073 1.386 . S
C1072 C1074 1.391 . S
C1073 C1072 1.386 . S
C1073 C1077 1.393 . S
C1074 H1066 0.950 . S
C1074 C1072 1.391 . S
C1074 C1075 1.400 . S
C1075 C1074 1.400 . S
C1075 C1076 1.398 . S
C1075 C1081 1.491 1_545 S
C1076 H1067 0.950 . S
C1076 C1075 1.398 . S
C1076 C1077 1.391 . S
C1077 H1065 0.950 . S
C1077 C1073 1.393 . S
C1077 C1076 1.391 . S
C1078 H1068 0.950 . S
C1078 C1079 1.386 . S
C1078 C1080 1.391 . S
C1079 C1078 1.386 . S
C1079 C1083 1.393 . S
C1080 H1069 0.950 . S
C1080 C1078 1.391 . S
C1080 C1081 1.400 . S
C1081 C1075 1.491 1_565 S
C1081 C1080 1.400 . S
C1081 C1082 1.398 . S
C1082 H1070 0.950 . S
C1082 C1081 1.398 . S
C1082 C1083 1.391 . S
C1083 H1071 0.950 . S
C1083 C1079 1.393 . S
C1083 C1082 1.391 . S
H1084 C1092 0.950 . S
H1085 C1097 0.950 . S
H1086 C1094 0.950 . S
H1087 C1096 0.950 . S
H1088 C1098 0.950 . S
H1089 C1100 0.950 . S
H1090 C1102 0.950 . S
H1091 C1103 0.950 . S
C1092 H1084 0.950 . S
C1092 C1093 1.386 . S
C1092 C1094 1.391 . S
C1093 C1092 1.386 . S
C1093 C1097 1.393 . S
C1094 H1086 0.950 . S
C1094 C1092 1.391 . S
C1094 C1095 1.400 . S
C1095 C1094 1.400 . S
C1095 C1096 1.398 . S
C1095 C1101 1.491 1_545 S
C1096 H1087 0.950 . S
C1096 C1095 1.398 . S
C1096 C1097 1.391 . S
C1097 H1085 0.950 . S
C1097 C1093 1.393 . S
C1097 C1096 1.391 . S
C1098 H1088 0.950 . S
C1098 C1099 1.386 . S
C1098 C1100 1.391 . S
C1099 C1098 1.386 . S
C1099 C1103 1.393 . S
C1100 H1089 0.950 . S
C1100 C1098 1.391 . S
C1100 C1101 1.400 . S
C1101 C1095 1.491 1_565 S
C1101 C1100 1.400 . S
C1101 C1102 1.398 . S
C1102 H1090 0.950 . S
C1102 C1101 1.398 . S
C1102 C1103 1.391 . S
C1103 H1091 0.950 . S
C1103 C1099 1.393 . S
C1103 C1102 1.391 . S
H1104 C1112 0.950 . S
H1105 C1117 0.950 . S
H1106 C1114 0.950 . S
H1107 C1116 0.950 . S
H1108 C1118 0.950 . S
H1109 C1120 0.950 . S
H1110 C1122 0.950 . S
H1111 C1123 0.950 . S
C1112 H1104 0.950 . S
C1112 C1113 1.386 . S
C1112 C1114 1.391 . S
C1113 C1112 1.386 . S
C1113 C1117 1.393 . S
C1114 H1106 0.950 . S
C1114 C1112 1.391 . S
C1114 C1115 1.400 . S
C1115 C1114 1.400 . S
C1115 C1116 1.398 . S
C1115 C1121 1.491 . S
C1116 H1107 0.950 . S
C1116 C1115 1.398 . S
C1116 C1117 1.391 . S
C1117 H1105 0.950 . S
C1117 C1113 1.393 . S
C1117 C1116 1.391 . S
C1118 H1108 0.950 . S
C1118 C1119 1.386 . S
C1118 C1120 1.391 . S
C1119 C1118 1.386 . S
C1119 C1123 1.393 . S
C1120 H1109 0.950 . S
C1120 C1118 1.391 . S
C1120 C1121 1.400 . S
C1121 C1115 1.491 . S
C1121 C1120 1.400 . S
C1121 C1122 1.398 . S
C1122 H1110 0.950 . S
C1122 C1121 1.398 . S
C1122 C1123 1.391 . S
C1123 H1111 0.950 . S
C1123 C1119 1.393 . S
C1123 C1122 1.391 . S
H1124 C1132 0.950 . S
H1125 C1137 0.950 . S
H1126 C1134 0.950 . S
H1127 C1136 0.950 . S
H1128 C1138 0.950 . S
H1129 C1140 0.950 . S
H1130 C1142 0.950 . S
H1131 C1143 0.950 . S
C1132 H1124 0.950 . S
C1132 C1133 1.386 . S
C1132 C1134 1.391 . S
C1133 C1132 1.386 . S
C1133 C1137 1.393 . S
C1134 H1126 0.950 . S
C1134 C1132 1.391 . S
C1134 C1135 1.400 . S
C1135 C1134 1.400 . S
C1135 C1136 1.398 . S
C1135 C1141 1.491 . S
C1136 H1127 0.950 . S
C1136 C1135 1.398 . S
C1136 C1137 1.391 . S
C1137 H1125 0.950 . S
C1137 C1133 1.393 . S
C1137 C1136 1.391 . S
C1138 H1128 0.950 . S
C1138 C1139 1.386 . S
C1138 C1140 1.391 . S
C1139 C1138 1.386 . S
C1139 C1143 1.393 . S
C1140 H1129 0.950 . S
C1140 C1138 1.391 . S
C1140 C1141 1.400 . S
C1141 C1135 1.491 . S
C1141 C1140 1.400 . S
C1141 C1142 1.398 . S
C1142 H1130 0.950 . S
C1142 C1141 1.398 . S
C1142 C1143 1.391 . S
C1143 H1131 0.950 . S
C1143 C1139 1.393 . S
C1143 C1142 1.391 . S
H1144 C1152 0.950 . S
H1145 C1157 0.950 . S
H1146 C1154 0.950 . S
H1147 C1156 0.950 . S
H1148 C1158 0.950 . S
H1149 C1160 0.950 . S
H1150 C1162 0.950 . S
H1151 C1163 0.950 . S
C1152 H1144 0.950 . S
C1152 C1153 1.386 . S
C1152 C1154 1.391 . S
C1153 C1152 1.386 . S
C1153 C1157 1.393 . S
C1154 H1146 0.950 . S
C1154 C1152 1.391 . S
C1154 C1155 1.400 . S
C1155 C1154 1.400 . S
C1155 C1156 1.398 . S
C1155 C1161 1.491 . S
C1156 H1147 0.950 . S
C1156 C1155 1.398 . S
C1156 C1157 1.391 . S
C1157 H1145 0.950 . S
C1157 C1153 1.393 . S
C1157 C1156 1.391 . S
C1158 H1148 0.950 . S
C1158 C1159 1.386 . S
C1158 C1160 1.391 . S
C1159 C1158 1.386 . S
C1159 C1163 1.393 . S
C1160 H1149 0.950 . S
C1160 C1158 1.391 . S
C1160 C1161 1.400 . S
C1161 C1155 1.491 . S
C1161 C1160 1.400 . S
C1161 C1162 1.398 . S
C1162 H1150 0.950 . S
C1162 C1161 1.398 . S
C1162 C1163 1.391 . S
C1163 H1151 0.950 . S
C1163 C1159 1.393 . S
C1163 C1162 1.391 . S
H1164 C1172 0.950 . S
H1165 C1177 0.950 . S
H1166 C1174 0.950 . S
H1167 C1176 0.950 . S
H1168 C1178 0.950 . S
H1169 C1180 0.950 . S
H1170 C1182 0.950 . S
H1171 C1183 0.950 . S
C1172 H1164 0.950 . S
C1172 C1173 1.386 . S
C1172 C1174 1.391 . S
C1173 C1172 1.386 . S
C1173 C1177 1.393 . S
C1174 H1166 0.950 . S
C1174 C1172 1.391 . S
C1174 C1175 1.400 . S
C1175 C1174 1.400 . S
C1175 C1176 1.398 . S
C1175 C1181 1.491 . S
C1176 H1167 0.950 . S
C1176 C1175 1.398 . S
C1176 C1177 1.391 . S
C1177 H1165 0.950 . S
C1177 C1173 1.393 . S
C1177 C1176 1.391 . S
C1178 H1168 0.950 . S
C1178 C1179 1.386 . S
C1178 C1180 1.391 . S
C1179 C1178 1.386 . S
C1179 C1183 1.393 . S
C1180 H1169 0.950 . S
C1180 C1178 1.391 . S
C1180 C1181 1.400 . S
C1181 C1175 1.491 . S
C1181 C1180 1.400 . S
C1181 C1182 1.398 . S
C1182 H1170 0.950 . S
C1182 C1181 1.398 . S
C1182 C1183 1.391 . S
C1183 H1171 0.950 . S
C1183 C1179 1.393 . S
C1183 C1182 1.391 . S
H1184 C1192 0.950 . S
H1185 C1197 0.950 . S
H1186 C1194 0.950 . S
H1187 C1196 0.950 . S
H1188 C1198 0.950 . S
H1189 C1200 0.950 . S
H1190 C1202 0.950 . S
H1191 C1203 0.950 . S
C1192 H1184 0.950 . S
C1192 C1193 1.386 . S
C1192 C1194 1.391 . S
C1193 C1192 1.386 . S
C1193 C1197 1.393 . S
C1194 H1186 0.950 . S
C1194 C1192 1.391 . S
C1194 C1195 1.400 . S
C1195 C1194 1.400 . S
C1195 C1196 1.398 . S
C1195 C1201 1.491 . S
C1196 H1187 0.950 . S
C1196 C1195 1.398 . S
C1196 C1197 1.391 . S
C1197 H1185 0.950 . S
C1197 C1193 1.393 . S
C1197 C1196 1.391 . S
C1198 H1188 0.950 . S
C1198 C1199 1.386 . S
C1198 C1200 1.391 . S
C1199 C1198 1.386 . S
C1199 C1203 1.393 . S
C1200 H1189 0.950 . S
C1200 C1198 1.391 . S
C1200 C1201 1.400 . S
C1201 C1195 1.491 . S
C1201 C1200 1.400 . S
C1201 C1202 1.398 . S
C1202 H1190 0.950 . S
C1202 C1201 1.398 . S
C1202 C1203 1.391 . S
C1203 H1191 0.950 . S
C1203 C1199 1.393 . S
C1203 C1202 1.391 . S
H1204 C1212 0.950 . S
H1205 C1217 0.950 . S
H1206 C1214 0.950 . S
H1207 C1216 0.950 . S
H1208 C1218 0.950 . S
H1209 C1220 0.950 . S
H1210 C1222 0.950 . S
H1211 C1223 0.950 . S
C1212 H1204 0.950 . S
C1212 C1213 1.386 . S
C1212 C1214 1.391 . S
C1213 C1212 1.386 . S
C1213 C1217 1.393 . S
C1214 H1206 0.950 . S
C1214 C1212 1.391 . S
C1214 C1215 1.400 . S
C1215 C1214 1.400 . S
C1215 C1216 1.398 . S
C1215 C1221 1.491 . S
C1216 H1207 0.950 . S
C1216 C1215 1.398 . S
C1216 C1217 1.391 . S
C1217 H1205 0.950 . S
C1217 C1213 1.393 . S
C1217 C1216 1.391 . S
C1218 H1208 0.950 . S
C1218 C1219 1.386 . S
C1218 C1220 1.391 . S
C1219 C1218 1.386 . S
C1219 C1223 1.393 . S
C1220 H1209 0.950 . S
C1220 C1218 1.391 . S
C1220 C1221 1.400 . S
C1221 C1215 1.491 . S
C1221 C1220 1.400 . S
C1221 C1222 1.398 . S
C1222 H1210 0.950 . S
C1222 C1221 1.398 . S
C1222 C1223 1.391 . S
C1223 H1211 0.950 . S
C1223 C1219 1.393 . S
C1223 C1222 1.391 . S
H1224 C1232 0.950 . S
H1225 C1237 0.950 . S
H1226 C1234 0.950 . S
H1227 C1236 0.950 . S
H1228 C1238 0.950 . S
H1229 C1240 0.950 . S
H1230 C1242 0.950 . S
H1231 C1243 0.950 . S
C1232 H1224 0.950 . S
C1232 C1233 1.386 . S
C1232 C1234 1.391 . S
C1233 C1232 1.386 . S
C1233 C1237 1.393 . S
C1234 H1226 0.950 . S
C1234 C1232 1.391 . S
C1234 C1235 1.400 . S
C1235 C1234 1.400 . S
C1235 C1236 1.398 . S
C1235 C1241 1.491 . S
C1236 H1227 0.950 . S
C1236 C1235 1.398 . S
C1236 C1237 1.391 . S
C1237 H1225 0.950 . S
C1237 C1233 1.393 . S
C1237 C1236 1.391 . S
C1238 H1228 0.950 . S
C1238 C1239 1.386 . S
C1238 C1240 1.391 . S
C1239 C1238 1.386 . S
C1239 C1243 1.393 . S
C1240 H1229 0.950 . S
C1240 C1238 1.391 . S
C1240 C1241 1.400 . S
C1241 C1235 1.491 . S
C1241 C1240 1.400 . S
C1241 C1242 1.398 . S
C1242 H1230 0.950 . S
C1242 C1241 1.398 . S
C1242 C1243 1.391 . S
C1243 H1231 0.950 . S
C1243 C1239 1.393 . S
C1243 C1242 1.391 . S
H1244 C1252 0.950 . S
H1245 C1257 0.950 . S
H1246 C1254 0.950 . S
H1247 C1256 0.950 . S
H1248 C1258 0.950 . S
H1249 C1260 0.950 . S
H1250 C1262 0.950 . S
H1251 C1263 0.950 . S
C1252 H1244 0.950 . S
C1252 C1253 1.386 . S
C1252 C1254 1.391 . S
C1253 C1252 1.386 . S
C1253 C1257 1.393 . S
C1254 H1246 0.950 . S
C1254 C1252 1.391 . S
C1254 C1255 1.400 . S
C1255 C1254 1.400 . S
C1255 C1256 1.398 . S
C1255 C1261 1.491 . S
C1256 H1247 0.950 . S
C1256 C1255 1.398 . S
C1256 C1257 1.391 . S
C1257 H1245 0.950 . S
C1257 C1253 1.393 . S
C1257 C1256 1.391 . S
C1258 H1248 0.950 . S
C1258 C1259 1.386 . S
C1258 C1260 1.391 . S
C1259 C1258 1.386 . S
C1259 C1263 1.393 . S
C1260 H1249 0.950 . S
C1260 C1258 1.391 . S
C1260 C1261 1.400 . S
C1261 C1255 1.491 . S
C1261 C1260 1.400 . S
C1261 C1262 1.398 . S
C1262 H1250 0.950 . S
C1262 C1261 1.398 . S
C1262 C1263 1.391 . S
C1263 H1251 0.950 . S
C1263 C1259 1.393 . S
C1263 C1262 1.391 . S
H1264 C1272 0.950 . S
H1265 C1277 0.950 . S
H1266 C1274 0.950 . S
H1267 C1276 0.950 . S
H1268 C1278 0.950 . S
H1269 C1280 0.950 . S
H1270 C1282 0.950 . S
H1271 C1283 0.950 . S
C1272 H1264 0.950 . S
C1272 C1273 1.386 . S
C1272 C1274 1.391 . S
C1273 C1272 1.386 . S
C1273 C1277 1.393 . S
C1274 H1266 0.950 . S
C1274 C1272 1.391 . S
C1274 C1275 1.400 . S
C1275 C1274 1.400 . S
C1275 C1276 1.398 . S
C1275 C1281 1.491 . S
C1276 H1267 0.950 . S
C1276 C1275 1.398 . S
C1276 C1277 1.391 . S
C1277 H1265 0.950 . S
C1277 C1273 1.393 . S
C1277 C1276 1.391 . S
C1278 H1268 0.950 . S
C1278 C1279 1.386 . S
C1278 C1280 1.391 . S
C1279 C1278 1.386 . S
C1279 C1283 1.393 . S
C1280 H1269 0.950 . S
C1280 C1278 1.391 . S
C1280 C1281 1.400 . S
C1281 C1275 1.491 . S
C1281 C1280 1.400 . S
C1281 C1282 1.398 . S
C1282 H1270 0.950 . S
C1282 C1281 1.398 . S
C1282 C1283 1.391 . S
C1283 H1271 0.950 . S
C1283 C1279 1.393 . S
C1283 C1282 1.391 . S
H1284 C1292 0.950 . S
H1285 C1297 0.950 . S
H1286 C1294 0.950 . S
H1287 C1296 0.950 . S
H1288 C1298 0.950 . S
H1289 C1300 0.950 . S
H1290 C1302 0.950 . S
H1291 C1303 0.950 . S
C1292 H1284 0.950 . S
C1292 C1293 1.386 . S
C1292 C1294 1.391 . S
C1293 C1292 1.386 . S
C1293 C1297 1.393 . S
C1294 H1286 0.950 . S
C1294 C1292 1.391 . S
C1294 C1295 1.400 . S
C1295 C1294 1.400 . S
C1295 C1296 1.398 . S
C1295 C1301 1.491 . S
C1296 H1287 0.950 . S
C1296 C1295 1.398 . S
C1296 C1297 1.391 . S
C1297 H1285 0.950 . S
C1297 C1293 1.393 . S
C1297 C1296 1.391 . S
C1298 H1288 0.950 . S
C1298 C1299 1.386 . S
C1298 C1300 1.391 . S
C1299 C1298 1.386 . S
C1299 C1303 1.393 . S
C1300 H1289 0.950 . S
C1300 C1298 1.391 . S
C1300 C1301 1.400 . S
C1301 C1295 1.491 . S
C1301 C1300 1.400 . S
C1301 C1302 1.398 . S
C1302 H1290 0.950 . S
C1302 C1301 1.398 . S
C1302 C1303 1.391 . S
C1303 H1291 0.950 . S
C1303 C1299 1.393 . S
C1303 C1302 1.391 . S
H1304 C1312 0.950 . S
H1305 C1317 0.950 . S
H1306 C1314 0.950 . S
H1307 C1316 0.950 . S
H1308 C1318 0.950 . S
H1309 C1320 0.950 . S
H1310 C1322 0.950 . S
H1311 C1323 0.950 . S
C1312 H1304 0.950 . S
C1312 C1313 1.386 . S
C1312 C1314 1.391 . S
C1313 C1312 1.386 . S
C1313 C1317 1.393 . S
C1314 H1306 0.950 . S
C1314 C1312 1.391 . S
C1314 C1315 1.400 . S
C1315 C1314 1.400 . S
C1315 C1316 1.398 . S
C1315 C1321 1.491 . S
C1316 H1307 0.950 . S
C1316 C1315 1.398 . S
C1316 C1317 1.391 . S
C1317 H1305 0.950 . S
C1317 C1313 1.393 . S
C1317 C1316 1.391 . S
C1318 H1308 0.950 . S
C1318 C1319 1.386 . S
C1318 C1320 1.391 . S
C1319 C1318 1.386 . S
C1319 C1323 1.393 . S
C1320 H1309 0.950 . S
C1320 C1318 1.391 . S
C1320 C1321 1.400 . S
C1321 C1315 1.491 . S
C1321 C1320 1.400 . S
C1321 C1322 1.398 . S
C1322 H1310 0.950 . S
C1322 C1321 1.398 . S
C1322 C1323 1.391 . S
C1323 H1311 0.950 . S
C1323 C1319 1.393 . S
C1323 C1322 1.391 . S
H1324 C1332 0.950 . S
H1325 C1337 0.950 . S
H1326 C1334 0.950 . S
H1327 C1336 0.950 . S
H1328 C1338 0.950 . S
H1329 C1340 0.950 . S
H1330 C1342 0.950 . S
H1331 C1343 0.950 . S
C1332 H1324 0.950 . S
C1332 C1333 1.386 . S
C1332 C1334 1.391 . S
C1333 C1332 1.386 . S
C1333 C1337 1.393 . S
C1334 H1326 0.950 . S
C1334 C1332 1.391 . S
C1334 C1335 1.400 . S
C1335 C1334 1.400 . S
C1335 C1336 1.398 . S
C1335 C1341 1.491 . S
C1336 H1327 0.950 . S
C1336 C1335 1.398 . S
C1336 C1337 1.391 . S
C1337 H1325 0.950 . S
C1337 C1333 1.393 . S
C1337 C1336 1.391 . S
C1338 H1328 0.950 . S
C1338 C1339 1.386 . S
C1338 C1340 1.391 . S
C1339 C1338 1.386 . S
C1339 C1343 1.393 . S
C1340 H1329 0.950 . S
C1340 C1338 1.391 . S
C1340 C1341 1.400 . S
C1341 C1335 1.491 . S
C1341 C1340 1.400 . S
C1341 C1342 1.398 . S
C1342 H1330 0.950 . S
C1342 C1341 1.398 . S
C1342 C1343 1.391 . S
C1343 H1331 0.950 . S
C1343 C1339 1.393 . S
C1343 C1342 1.391 . S
H1344 C1352 0.950 . S
H1345 C1357 0.950 . S
H1346 C1354 0.950 . S
H1347 C1356 0.950 . S
H1348 C1358 0.950 . S
H1349 C1360 0.950 . S
H1350 C1362 0.950 . S
H1351 C1363 0.950 . S
C1352 H1344 0.950 . S
C1352 C1353 1.386 . S
C1352 C1354 1.391 . S
C1353 C1352 1.386 . S
C1353 C1357 1.393 . S
C1354 H1346 0.950 . S
C1354 C1352 1.391 . S
C1354 C1355 1.400 . S
C1355 C1354 1.400 . S
C1355 C1356 1.398 . S
C1355 C1361 1.491 . S
C1356 H1347 0.950 . S
C1356 C1355 1.398 . S
C1356 C1357 1.391 . S
C1357 H1345 0.950 . S
C1357 C1353 1.393 . S
C1357 C1356 1.391 . S
C1358 H1348 0.950 . S
C1358 C1359 1.386 . S
C1358 C1360 1.391 . S
C1359 C1358 1.386 . S
C1359 C1363 1.393 . S
C1360 H1349 0.950 . S
C1360 C1358 1.391 . S
C1360 C1361 1.400 . S
C1361 C1355 1.491 . S
C1361 C1360 1.400 . S
C1361 C1362 1.398 . S
C1362 H1350 0.950 . S
C1362 C1361 1.398 . S
C1362 C1363 1.391 . S
C1363 H1351 0.950 . S
C1363 C1359 1.393 . S
C1363 C1362 1.391 . S
H1364 C1372 0.950 . S
H1365 C1377 0.950 . S
H1366 C1374 0.950 . S
H1367 C1376 0.950 . S
H1368 C1378 0.950 . S
H1369 C1380 0.950 . S
H1370 C1382 0.950 . S
H1371 C1383 0.950 . S
C1372 H1364 0.950 . S
C1372 C1373 1.386 . S
C1372 C1374 1.391 . S
C1373 C1372 1.386 . S
C1373 C1377 1.393 . S
C1374 H1366 0.950 . S
C1374 C1372 1.391 . S
C1374 C1375 1.400 . S
C1375 C1374 1.400 . S
C1375 C1376 1.398 . S
C1375 C1381 1.491 . S
C1376 H1367 0.950 . S
C1376 C1375 1.398 . S
C1376 C1377 1.391 . S
C1377 H1365 0.950 . S
C1377 C1373 1.393 . S
C1377 C1376 1.391 . S
C1378 H1368 0.950 . S
C1378 C1379 1.386 . S
C1378 C1380 1.391 . S
C1379 C1378 1.386 . S
C1379 C1383 1.393 . S
C1380 H1369 0.950 . S
C1380 C1378 1.391 . S
C1380 C1381 1.400 . S
C1381 C1375 1.491 . S
C1381 C1380 1.400 . S
C1381 C1382 1.398 . S
C1382 H1370 0.950 . S
C1382 C1381 1.398 . S
C1382 C1383 1.391 . S
C1383 H1371 0.950 . S
C1383 C1379 1.393 . S
C1383 C1382 1.391 . S
H1384 C1392 0.950 . S
H1385 C1397 0.950 . S
H1386 C1394 0.950 . S
H1387 C1396 0.950 . S
H1388 C1398 0.950 . S
H1389 C1400 0.950 . S
H1390 C1402 0.950 . S
H1391 C1403 0.950 . S
C1392 H1384 0.950 . S
C1392 C1393 1.386 . S
C1392 C1394 1.391 . S
C1393 C1392 1.386 . S
C1393 C1397 1.393 . S
C1394 H1386 0.950 . S
C1394 C1392 1.391 . S
C1394 C1395 1.400 . S
C1395 C1394 1.400 . S
C1395 C1396 1.398 . S
C1395 C1401 1.491 . S
C1396 H1387 0.950 . S
C1396 C1395 1.398 . S
C1396 C1397 1.391 . S
C1397 H1385 0.950 . S
C1397 C1393 1.393 . S
C1397 C1396 1.391 . S
C1398 H1388 0.950 . S
C1398 C1399 1.386 . S
C1398 C1400 1.391 . S
C1399 C1398 1.386 . S
C1399 C1403 1.393 . S
C1400 H1389 0.950 . S
C1400 C1398 1.391 . S
C1400 C1401 1.400 . S
C1401 C1395 1.491 . S
C1401 C1400 1.400 . S
C1401 C1402 1.398 . S
C1402 H1390 0.950 . S
C1402 C1401 1.398 . S
C1402 C1403 1.391 . S
C1403 H1391 0.950 . S
C1403 C1399 1.393 . S
C1403 C1402 1.391 . S
H1404 C1412 0.950 . S
H1405 C1417 0.950 . S
H1406 C1414 0.950 . S
H1407 C1416 0.950 . S
H1408 C1418 0.950 . S
H1409 C1420 0.950 . S
H1410 C1422 0.950 . S
H1411 C1423 0.950 . S
C1412 H1404 0.950 . S
C1412 C1413 1.386 . S
C1412 C1414 1.391 . S
C1413 C1412 1.386 . S
C1413 C1417 1.393 . S
C1414 H1406 0.950 . S
C1414 C1412 1.391 . S
C1414 C1415 1.400 . S
C1415 C1414 1.400 . S
C1415 C1416 1.398 . S
C1415 C1421 1.491 . S
C1416 H1407 0.950 . S
C1416 C1415 1.398 . S
C1416 C1417 1.391 . S
C1417 H1405 0.950 . S
C1417 C1413 1.393 . S
C1417 C1416 1.391 . S
C1418 H1408 0.950 . S
C1418 C1419 1.386 . S
C1418 C1420 1.391 . S
C1419 C1418 1.386 . S
C1419 C1423 1.393 . S
C1420 H1409 0.950 . S
C1420 C1418 1.391 . S
C1420 C1421 1.400 . S
C1421 C1415 1.491 . S
C1421 C1420 1.400 . S
C1421 C1422 1.398 . S
C1422 H1410 0.950 . S
C1422 C1421 1.398 . S
C1422 C1423 1.391 . S
C1423 H1411 0.950 . S
C1423 C1419 1.393 . S
C1423 C1422 1.391 . S
H1424 C1432 0.950 . S
H1425 C1437 0.950 . S
H1426 C1434 0.950 . S
H1427 C1436 0.950 . S
H1428 C1438 0.950 . S
H1429 C1440 0.950 . S
H1430 C1442 0.950 . S
H1431 C1443 0.950 . S
C1432 H1424 0.950 . S
C1432 C1433 1.386 . S
C1432 C1434 1.391 . S
C1433 C1432 1.386 . S
C1433 C1437 1.393 . S
C1434 H1426 0.950 . S
C1434 C1432 1.391 . S
C1434 C1435 1.400 . S
C1435 C1434 1.400 . S
C1435 C1436 1.398 . S
C1435 C1441 1.491 . S
C1436 H1427 0.950 . S
C1436 C1435 1.398 . S
C1436 C1437 1.391 . S
C1437 H1425 0.950 . S
C1437 C1433 1.393 . S
C1437 C1436 1.391 . S
C1438 H1428 0.950 . S
C1438 C1439 1.386 . S
C1438 C1440 1.391 . S
C1439 C1438 1.386 . S
C1439 C1443 1.393 . S
C1440 H1429 0.950 . S
C1440 C1438 1.391 . S
C1440 C1441 1.400 . S
C1441 C1435 1.491 . S
C1441 C1440 1.400 . S
C1441 C1442 1.398 . S
C1442 H1430 0.950 . S
C1442 C1441 1.398 . S
C1442 C1443 1.391 . S
C1443 H1431 0.950 . S
C1443 C1439 1.393 . S
C1443 C1442 1.391 . S
H1444 C1452 0.950 . S
H1445 C1457 0.950 . S
H1446 C1454 0.950 . S
H1447 C1456 0.950 . S
H1448 C1458 0.950 . S
H1449 C1460 0.950 . S
H1450 C1462 0.950 . S
H1451 C1463 0.950 . S
C1452 H1444 0.950 . S
C1452 C1453 1.386 . S
C1452 C1454 1.391 . S
C1453 C1452 1.386 . S
C1453 C1457 1.393 . S
C1454 H1446 0.950 . S
C1454 C1452 1.391 . S
C1454 C1455 1.400 . S
C1455 C1454 1.400 . S
C1455 C1456 1.398 . S
C1455 C1461 1.491 . S
C1456 H1447 0.950 . S
C1456 C1455 1.398 . S
C1456 C1457 1.391 . S
C1457 H1445 0.950 . S
C1457 C1453 1.393 . S
C1457 C1456 1.391 . S
C1458 H1448 0.950 . S
C1458 C1459 1.386 . S
C1458 C1460 1.391 . S
C1459 C1458 1.386 . S
C1459 C1463 1.393 . S
C1460 H1449 0.950 . S
C1460 C1458 1.391 . S
C1460 C1461 1.400 . S
C1461 C1455 1.491 . S
C1461 C1460 1.400 . S
C1461 C1462 1.398 . S
C1462 H1450 0.950 . S
C1462 C1461 1.398 . S
C1462 C1463 1.391 . S
C1463 H1451 0.950 . S
C1463 C1459 1.393 . S
C1463 C1462 1.391 . S
H1464 C1472 0.950 . S
H1465 C1477 0.950 . S
H1466 C1474 0.950 . S
H1467 C1476 0.950 . S
H1468 C1478 0.950 . S
H1469 C1480 0.950 . S
H1470 C1482 0.950 . S
H1471 C1483 0.950 . S
C1472 H1464 0.950 . S
C1472 C1473 1.386 . S
C1472 C1474 1.391 . S
C1473 C1472 1.386 . S
C1473 C1477 1.393 . S
C1474 H1466 0.950 . S
C1474 C1472 1.391 . S
C1474 C1475 1.400 . S
C1475 C1474 1.400 . S
C1475 C1476 1.398 . S
C1475 C1481 1.491 . S
C1476 H1467 0.950 . S
C1476 C1475 1.398 . S
C1476 C1477 1.391 . S
C1477 H1465 0.950 . S
C1477 C1473 1.393 . S
C1477 C1476 1.391 . S
C1478 H1468 0.950 . S
C1478 C1479 1.386 . S
C1478 C1480 1.391 . S
C1479 C1478 1.386 . S
C1479 C1483 1.393 . S
C1480 H1469 0.950 . S
C1480 C1478 1.391 . S
C1480 C1481 1.400 . S
C1481 C1475 1.491 . S
C1481 C1480 1.400 . S
C1481 C1482 1.398 . S
C1482 H1470 0.950 . S
C1482 C1481 1.398 . S
C1482 C1483 1.391 . S
C1483 H1471 0.950 . S
C1483 C1479 1.393 . S
C1483 C1482 1.391 . S
H1484 C1492 0.950 . S
H1485 C1497 0.950 . S
H1486 C1494 0.950 . S
H1487 C1496 0.950 . S
H1488 C1498 0.950 . S
H1489 C1500 0.950 . S
H1490 C1502 0.950 . S
H1491 C1503 0.950 . S
C1492 H1484 0.950 . S
C1492 C1493 1.386 . S
C1492 C1494 1.391 . S
C1493 C1492 1.386 . S
C1493 C1497 1.393 . S
C1494 H1486 0.950 . S
C1494 C1492 1.391 . S
C1494 C1495 1.400 . S
C1495 C1494 1.400 . S
C1495 C1496 1.398 . S
C1495 C1501 1.491 . S
C1496 H1487 0.950 . S
C1496 C1495 1.398 . S
C1496 C1497 1.391 . S
C1497 H1485 0.950 . S
C1497 C1493 1.393 . S
C1497 C1496 1.391 . S
C1498 H1488 0.950 . S
C1498 C1499 1.386 . S
C1498 C1500 1.391 . S
C1499 C1498 1.386 . S
C1499 C1503 1.393 . S
C1500 H1489 0.950 . S
C1500 C1498 1.391 . S
C1500 C1501 1.400 . S
C1501 C1495 1.491 . S
C1501 C1500 1.400 . S
C1501 C1502 1.398 . S
C1502 H1490 0.950 . S
C1502 C1501 1.398 . S
C1502 C1503 1.391 . S
C1503 H1491 0.950 . S
C1503 C1499 1.393 . S
C1503 C1502 1.391 . S
H1504 C1512 0.950 . S
H1505 C1517 0.950 . S
H1506 C1514 0.950 . S
H1507 C1516 0.950 . S
H1508 C1518 0.950 . S
H1509 C1520 0.950 . S
H1510 C1522 0.950 . S
H1511 C1523 0.950 . S
C1512 H1504 0.950 . S
C1512 C1513 1.386 . S
C1512 C1514 1.391 . S
C1513 C1512 1.386 . S
C1513 C1517 1.393 . S
C1514 H1506 0.950 . S
C1514 C1512 1.391 . S
C1514 C1515 1.400 . S
C1515 C1514 1.400 . S
C1515 C1516 1.398 . S
C1515 C1521 1.491 . S
C1516 H1507 0.950 . S
C1516 C1515 1.398 . S
C1516 C1517 1.391 . S
C1517 H1505 0.950 . S
C1517 C1513 1.393 . S
C1517 C1516 1.391 . S
C1518 H1508 0.950 . S
C1518 C1519 1.386 . S
C1518 C1520 1.391 . S
C1519 C1518 1.386 . S
C1519 C1523 1.393 . S
C1520 H1509 0.950 . S
C1520 C1518 1.391 . S
C1520 C1521 1.400 . S
C1521 C1515 1.491 . S
C1521 C1520 1.400 . S
C1521 C1522 1.398 . S
C1522 H1510 0.950 . S
C1522 C1521 1.398 . S
C1522 C1523 1.391 . S
C1523 H1511 0.950 . S
C1523 C1519 1.393 . S
C1523 C1522 1.391 . S
H1524 C1532 0.950 . S
H1525 C1537 0.950 . S
H1526 C1534 0.950 . S
H1527 C1536 0.950 . S
H1528 C1538 0.950 . S
H1529 C1540 0.950 . S
H1530 C1542 0.950 . S
H1531 C1543 0.950 . S
C1532 H1524 0.950 . S
C1532 C1533 1.386 . S
C1532 C1534 1.391 . S
C1533 C1532 1.386 . S
C1533 C1537 1.393 . S
C1534 H1526 0.950 . S
C1534 C1532 1.391 . S
C1534 C1535 1.400 . S
C1535 C1534 1.400 . S
C1535 C1536 1.398 . S
C1535 C1541 1.491 . S
C1536 H1527 0.950 . S
C1536 C1535 1.398 . S
C1536 C1537 1.391 . S
C1537 H1525 0.950 . S
C1537 C1533 1.393 . S
C1537 C1536 1.391 . S
C1538 H1528 0.950 . S
C1538 C1539 1.386 . S
C1538 C1540 1.391 . S
C1539 C1538 1.386 . S
C1539 C1543 1.393 . S
C1540 H1529 0.950 . S
C1540 C1538 1.391 . S
C1540 C1541 1.400 . S
C1541 C1535 1.491 . S
C1541 C1540 1.400 . S
C1541 C1542 1.398 . S
C1542 H1530 0.950 . S
C1542 C1541 1.398 . S
C1542 C1543 1.391 . S
C1543 H1531 0.950 . S
C1543 C1539 1.393 . S
C1543 C1542 1.391 . S
H1544 C1552 0.950 . S
H1545 C1557 0.950 . S
H1546 C1554 0.950 . S
H1547 C1556 0.950 . S
H1548 C1558 0.950 . S
H1549 C1560 0.950 . S
H1550 C1562 0.950 . S
H1551 C1563 0.950 . S
C1552 H1544 0.950 . S
C1552 C1553 1.386 . S
C1552 C1554 1.391 . S
C1553 C1552 1.386 . S
C1553 C1557 1.393 . S
C1554 H1546 0.950 . S
C1554 C1552 1.391 . S
C1554 C1555 1.400 . S
C1555 C1554 1.400 . S
C1555 C1556 1.398 . S
C1555 C1561 1.491 . S
C1556 H1547 0.950 . S
C1556 C1555 1.398 . S
C1556 C1557 1.391 . S
C1557 H1545 0.950 . S
C1557 C1553 1.393 . S
C1557 C1556 1.391 . S
C1558 H1548 0.950 . S
C1558 C1559 1.386 . S
C1558 C1560 1.391 . S
C1559 C1558 1.386 . S
C1559 C1563 1.393 . S
C1560 H1549 0.950 . S
C1560 C1558 1.391 . S
C1560 C1561 1.400 . S
C1561 C1555 1.491 . S
C1561 C1560 1.400 . S
C1561 C1562 1.398 . S
C1562 H1550 0.950 . S
C1562 C1561 1.398 . S
C1562 C1563 1.391 . S
C1563 H1551 0.950 . S
C1563 C1559 1.393 . S
C1563 C1562 1.391 . S
H1564 C1572 0.950 . S
H1565 C1577 0.950 . S
H1566 C1574 0.950 . S
H1567 C1576 0.950 . S
H1568 C1578 0.950 . S
H1569 C1580 0.950 . S
H1570 C1582 0.950 . S
H1571 C1583 0.950 . S
C1572 H1564 0.950 . S
C1572 C1573 1.386 . S
C1572 C1574 1.391 . S
C1573 C1572 1.386 . S
C1573 C1577 1.393 . S
C1574 H1566 0.950 . S
C1574 C1572 1.391 . S
C1574 C1575 1.400 . S
C1575 C1574 1.400 . S
C1575 C1576 1.398 . S
C1575 C1581 1.491 . S
C1576 H1567 0.950 . S
C1576 C1575 1.398 . S
C1576 C1577 1.391 . S
C1577 H1565 0.950 . S
C1577 C1573 1.393 . S
C1577 C1576 1.391 . S
C1578 H1568 0.950 . S
C1578 C1579 1.386 . S
C1578 C1580 1.391 . S
C1579 C1578 1.386 . S
C1579 C1583 1.393 . S
C1580 H1569 0.950 . S
C1580 C1578 1.391 . S
C1580 C1581 1.400 . S
C1581 C1575 1.491 . S
C1581 C1580 1.400 . S
C1581 C1582 1.398 . S
C1582 H1570 0.950 . S
C1582 C1581 1.398 . S
C1582 C1583 1.391 . S
C1583 H1571 0.950 . S
C1583 C1579 1.393 . S
C1583 C1582 1.391 . S
H1584 C1592 0.950 . S
H1585 C1597 0.950 . S
H1586 C1594 0.950 . S
H1587 C1596 0.950 . S
H1588 C1598 0.950 . S
H1589 C1600 0.950 . S
H1590 C1602 0.950 . S
H1591 C1603 0.950 . S
C1592 H1584 0.950 . S
C1592 C1593 1.386 . S
C1592 C1594 1.391 . S
C1593 C1592 1.386 . S
C1593 C1597 1.393 . S
C1594 H1586 0.950 . S
C1594 C1592 1.391 . S
C1594 C1595 1.400 . S
C1595 C1594 1.400 . S
C1595 C1596 1.398 . S
C1595 C1601 1.491 . S
C1596 H1587 0.950 . S
C1596 C1595 1.398 . S
C1596 C1597 1.391 . S
C1597 H1585 0.950 . S
C1597 C1593 1.393 . S
C1597 C1596 1.391 . S
C1598 H1588 0.950 . S
C1598 C1599 1.386 . S
C1598 C1600 1.391 . S
C1599 C1598 1.386 . S
C1599 C1603 1.393 . S
C1600 H1589 0.950 . S
C1600 C1598 1.391 . S
C1600 C1601 1.400 . S
C1601 C1595 1.491 . S
C1601 C1600 1.400 . S
C1601 C1602 1.398 . S
C1602 H1590 0.950 . S
C1602 C1601 1.398 . S
C1602 C1603 1.391 . S
C1603 H1591 0.950 . S
C1603 C1599 1.393 . S
C1603 C1602 1.391 . S
H1604 C1612 0.950 . S
H1605 C1617 0.950 . S
H1606 C1614 0.950 . S
H1607 C1616 0.950 . S
H1608 C1618 0.950 . S
H1609 C1620 0.950 . S
H1610 C1622 0.950 . S
H1611 C1623 0.950 . S
C1612 H1604 0.950 . S
C1612 C1613 1.386 . S
C1612 C1614 1.391 . S
C1613 C1612 1.386 . S
C1613 C1617 1.393 . S
C1614 H1606 0.950 . S
C1614 C1612 1.391 . S
C1614 C1615 1.400 . S
C1615 C1614 1.400 . S
C1615 C1616 1.398 . S
C1615 C1621 1.491 . S
C1616 H1607 0.950 . S
C1616 C1615 1.398 . S
C1616 C1617 1.391 . S
C1617 H1605 0.950 . S
C1617 C1613 1.393 . S
C1617 C1616 1.391 . S
C1618 H1608 0.950 . S
C1618 C1619 1.386 . S
C1618 C1620 1.391 . S
C1619 C1618 1.386 . S
C1619 C1623 1.393 . S
C1620 H1609 0.950 . S
C1620 C1618 1.391 . S
C1620 C1621 1.400 . S
C1621 C1615 1.491 . S
C1621 C1620 1.400 . S
C1621 C1622 1.398 . S
C1622 H1610 0.950 . S
C1622 C1621 1.398 . S
C1622 C1623 1.391 . S
C1623 H1611 0.950 . S
C1623 C1619 1.393 . S
C1623 C1622 1.391 . S
H1624 C1632 0.950 . S
H1625 C1637 0.950 . S
H1626 C1634 0.950 . S
H1627 C1636 0.950 . S
H1628 C1638 0.950 . S
H1629 C1640 0.950 . S
H1630 C1642 0.950 . S
H1631 C1643 0.950 . S
C1632 H1624 0.950 . S
C1632 C1633 1.386 . S
C1632 C1634 1.391 . S
C1633 C1632 1.386 . S
C1633 C1637 1.393 . S
C1634 H1626 0.950 . S
C1634 C1632 1.391 . S
C1634 C1635 1.400 . S
C1635 C1634 1.400 . S
C1635 C1636 1.398 . S
C1635 C1641 1.491 . S
C1636 H1627 0.950 . S
C1636 C1635 1.398 . S
C1636 C1637 1.391 . S
C1637 H1625 0.950 . S
C1637 C1633 1.393 . S
C1637 C1636 1.391 . S
C1638 H1628 0.950 . S
C1638 C1639 1.386 . S
C1638 C1640 1.391 . S
C1639 C1638 1.386 . S
C1639 C1643 1.393 . S
C1640 H1629 0.950 . S
C1640 C1638 1.391 . S
C1640 C1641 1.400 . S
C1641 C1635 1.491 . S
C1641 C1640 1.400 . S
C1641 C1642 1.398 . S
C1642 H1630 0.950 . S
C1642 C1641 1.398 . S
C1642 C1643 1.391 . S
C1643 H1631 0.950 . S
C1643 C1639 1.393 . S
C1643 C1642 1.391 . S
H1644 C1652 0.950 . S
H1645 C1657 0.950 . S
H1646 C1654 0.950 . S
H1647 C1656 0.950 . S
H1648 C1658 0.950 . S
H1649 C1660 0.950 . S
H1650 C1662 0.950 . S
H1651 C1663 0.950 . S
C1652 H1644 0.950 . S
C1652 C1653 1.386 . S
C1652 C1654 1.391 . S
C1653 C1652 1.386 . S
C1653 C1657 1.393 . S
C1654 H1646 0.950 . S
C1654 C1652 1.391 . S
C1654 C1655 1.400 . S
C1655 C1654 1.400 . S
C1655 C1656 1.398 . S
C1655 C1661 1.491 . S
C1656 H1647 0.950 . S
C1656 C1655 1.398 . S
C1656 C1657 1.391 . S
C1657 H1645 0.950 . S
C1657 C1653 1.393 . S
C1657 C1656 1.391 . S
C1658 H1648 0.950 . S
C1658 C1659 1.386 . S
C1658 C1660 1.391 . S
C1659 C1658 1.386 . S
C1659 C1663 1.393 . S
C1660 H1649 0.950 . S
C1660 C1658 1.391 . S
C1660 C1661 1.400 . S
C1661 C1655 1.491 . S
C1661 C1660 1.400 . S
C1661 C1662 1.398 . S
C1662 H1650 0.950 . S
C1662 C1661 1.398 . S
C1662 C1663 1.391 . S
C1663 H1651 0.950 . S
C1663 C1659 1.393 . S
C1663 C1662 1.391 . S
H1664 C1672 0.950 . S
H1665 C1677 0.950 . S
H1666 C1674 0.950 . S
H1667 C1676 0.950 . S
H1668 C1678 0.950 . S
H1669 C1680 0.950 . S
H1670 C1682 0.950 . S
H1671 C1683 0.950 . S
C1672 H1664 0.950 . S
C1672 C1673 1.386 . S
C1672 C1674 1.391 . S
C1673 C1672 1.386 . S
C1673 C1677 1.393 . S
C1674 H1666 0.950 . S
C1674 C1672 1.391 . S
C1674 C1675 1.400 . S
C1675 C1674 1.400 . S
C1675 C1676 1.398 . S
C1675 C1681 1.491 . S
C1676 H1667 0.950 . S
C1676 C1675 1.398 . S
C1676 C1677 1.391 . S
C1677 H1665 0.950 . S
C1677 C1673 1.393 . S
C1677 C1676 1.391 . S
C1678 H1668 0.950 . S
C1678 C1679 1.386 . S
C1678 C1680 1.391 . S
C1679 C1678 1.386 . S
C1679 C1683 1.393 . S
C1680 H1669 0.950 . S
C1680 C1678 1.391 . S
C1680 C1681 1.400 . S
C1681 C1675 1.491 . S
C1681 C1680 1.400 . S
C1681 C1682 1.398 . S
C1682 H1670 0.950 . S
C1682 C1681 1.398 . S
C1682 C1683 1.391 . S
C1683 H1671 0.950 . S
C1683 C1679 1.393 . S
C1683 C1682 1.391 . S
H1684 C1692 0.950 . S
H1685 C1697 0.950 . S
H1686 C1694 0.950 . S
H1687 C1696 0.950 . S
H1688 C1698 0.950 . S
H1689 C1700 0.950 . S
H1690 C1702 0.950 . S
H1691 C1703 0.950 . S
C1692 H1684 0.950 . S
C1692 C1693 1.386 . S
C1692 C1694 1.391 . S
C1693 C1692 1.386 . S
C1693 C1697 1.393 . S
C1694 H1686 0.950 . S
C1694 C1692 1.391 . S
C1694 C1695 1.400 . S
C1695 C1694 1.400 . S
C1695 C1696 1.398 . S
C1695 C1701 1.491 . S
C1696 H1687 0.950 . S
C1696 C1695 1.398 . S
C1696 C1697 1.391 . S
C1697 H1685 0.950 . S
C1697 C1693 1.393 . S
C1697 C1696 1.391 . S
C1698 H1688 0.950 . S
C1698 C1699 1.386 . S
C1698 C1700 1.391 . S
C1699 C1698 1.386 . S
C1699 C1703 1.393 . S
C1700 H1689 0.950 . S
C1700 C1698 1.391 . S
C1700 C1701 1.400 . S
C1701 C1695 1.491 . S
C1701 C1700 1.400 . S
C1701 C1702 1.398 . S
C1702 H1690 0.950 . S
C1702 C1701 1.398 . S
C1702 C1703 1.391 . S
C1703 H1691 0.950 . S
C1703 C1699 1.393 . S
C1703 C1702 1.391 . S
H1704 C1712 0.950 . S
H1705 C1717 0.950 . S
H1706 C1714 0.950 . S
H1707 C1716 0.950 . S
H1708 C1718 0.950 . S
H1709 C1720 0.950 . S
H1710 C1722 0.950 . S
H1711 C1723 0.950 . S
C1712 H1704 0.950 . S
C1712 C1713 1.386 . S
C1712 C1714 1.391 . S
C1713 C1712 1.386 . S
C1713 C1717 1.393 . S
C1714 H1706 0.950 . S
C1714 C1712 1.391 . S
C1714 C1715 1.400 . S
C1715 C1714 1.400 . S
C1715 C1716 1.398 . S
C1715 C1721 1.491 . S
C1716 H1707 0.950 . S
C1716 C1715 1.398 . S
C1716 C1717 1.391 . S
C1717 H1705 0.950 . S
C1717 C1713 1.393 . S
C1717 C1716 1.391 . S
C1718 H1708 0.950 . S
C1718 C1719 1.386 . S
C1718 C1720 1.391 . S
C1719 C1718 1.386 . S
C1719 C1723 1.393 . S
C1720 H1709 0.950 . S
C1720 C1718 1.391 . S
C1720 C1721 1.400 . S
C1721 C1715 1.491 . S
C1721 C1720 1.400 . S
C1721 C1722 1.398 . S
C1722 H1710 0.950 . S
C1722 C1721 1.398 . S
C1722 C1723 1.391 . S
C1723 H1711 0.950 . S
C1723 C1719 1.393 . S
C1723 C1722 1.391 . S
H1724 C1732 0.950 . S
H1725 C1737 0.950 . S
H1726 C1734 0.950 . S
H1727 C1736 0.950 . S
H1728 C1738 0.950 . S
H1729 C1740 0.950 . S
H1730 C1742 0.950 . S
H1731 C1743 0.950 . S
C1732 H1724 0.950 . S
C1732 C1733 1.386 . S
C1732 C1734 1.391 . S
C1733 C1732 1.386 . S
C1733 C1737 1.393 . S
C1734 H1726 0.950 . S
C1734 C1732 1.391 . S
C1734 C1735 1.400 . S
C1735 C1734 1.400 . S
C1735 C1736 1.398 . S
C1735 C1741 1.491 . S
C1736 H1727 0.950 . S
C1736 C1735 1.398 . S
C1736 C1737 1.391 . S
C1737 H1725 0.950 . S
C1737 C1733 1.393 . S
C1737 C1736 1.391 . S
C1738 H1728 0.950 . S
C1738 C1739 1.386 . S
C1738 C1740 1.391 . S
C1739 C1738 1.386 . S
C1739 C1743 1.393 . S
C1740 H1729 0.950 . S
C1740 C1738 1.391 . S
C1740 C1741 1.400 . S
C1741 C1735 1.491 . S
C1741 C1740 1.400 . S
C1741 C1742 1.398 . S
C1742 H1730 0.950 . S
C1742 C1741 1.398 . S
C1742 C1743 1.391 . S
C1743 H1731 0.950 . S
C1743 C1739 1.393 . S
C1743 C1742 1.391 . S
H1744 C1752 0.950 . S
H1745 C1757 0.950 . S
H1746 C1754 0.950 . S
H1747 C1756 0.950 . S
H1748 C1758 0.950 . S
H1749 C1760 0.950 . S
H1750 C1762 0.950 . S
H1751 C1763 0.950 . S
C1752 H1744 0.950 . S
C1752 C1753 1.386 . S
C1752 C1754 1.391 . S
C1753 C1752 1.386 . S
C1753 C1757 1.393 . S
C1754 H1746 0.950 . S
C1754 C1752 1.391 . S
C1754 C1755 1.400 . S
C1755 C1754 1.400 . S
C1755 C1756 1.398 . S
C1755 C1761 1.491 . S
C1756 H1747 0.950 . S
C1756 C1755 1.398 . S
C1756 C1757 1.391 . S
C1757 H1745 0.950 . S
C1757 C1753 1.393 . S
C1757 C1756 1.391 . S
C1758 H1748 0.950 . S
C1758 C1759 1.386 . S
C1758 C1760 1.391 . S
C1759 C1758 1.386 . S
C1759 C1763 1.393 . S
C1760 H1749 0.950 . S
C1760 C1758 1.391 . S
C1760 C1761 1.400 . S
C1761 C1755 1.491 . S
C1761 C1760 1.400 . S
C1761 C1762 1.398 . S
C1762 H1750 0.950 . S
C1762 C1761 1.398 . S
C1762 C1763 1.391 . S
C1763 H1751 0.950 . S
C1763 C1759 1.393 . S
C1763 C1762 1.391 . S
H1764 C1772 0.950 . S
H1765 C1777 0.950 . S
H1766 C1774 0.950 . S
H1767 C1776 0.950 . S
H1768 C1778 0.950 . S
H1769 C1780 0.950 . S
H1770 C1782 0.950 . S
H1771 C1783 0.950 . S
C1772 H1764 0.950 . S
C1772 C1773 1.386 . S
C1772 C1774 1.391 . S
C1773 C1772 1.386 . S
C1773 C1777 1.393 . S
C1774 H1766 0.950 . S
C1774 C1772 1.391 . S
C1774 C1775 1.400 . S
C1775 C1774 1.400 . S
C1775 C1776 1.398 . S
C1775 C1781 1.491 . S
C1776 H1767 0.950 . S
C1776 C1775 1.398 . S
C1776 C1777 1.391 . S
C1777 H1765 0.950 . S
C1777 C1773 1.393 . S
C1777 C1776 1.391 . S
C1778 H1768 0.950 . S
C1778 C1779 1.386 . S
C1778 C1780 1.391 . S
C1779 C1778 1.386 . S
C1779 C1783 1.393 . S
C1780 H1769 0.950 . S
C1780 C1778 1.391 . S
C1780 C1781 1.400 . S
C1781 C1775 1.491 . S
C1781 C1780 1.400 . S
C1781 C1782 1.398 . S
C1782 H1770 0.950 . S
C1782 C1781 1.398 . S
C1782 C1783 1.391 . S
C1783 H1771 0.950 . S
C1783 C1779 1.393 . S
C1783 C1782 1.391 . S
H1784 C1792 0.950 . S
H1785 C1797 0.950 . S
H1786 C1794 0.950 . S
H1787 C1796 0.950 . S
H1788 C1798 0.950 . S
H1789 C1800 0.950 . S
H1790 C1802 0.950 . S
H1791 C1803 0.950 . S
C1792 H1784 0.950 . S
C1792 C1793 1.386 . S
C1792 C1794 1.391 . S
C1793 C1792 1.386 . S
C1793 C1797 1.393 . S
C1794 H1786 0.950 . S
C1794 C1792 1.391 . S
C1794 C1795 1.400 . S
C1795 C1794 1.400 . S
C1795 C1796 1.398 . S
C1795 C1801 1.491 . S
C1796 H1787 0.950 . S
C1796 C1795 1.398 . S
C1796 C1797 1.391 . S
C1797 H1785 0.950 . S
C1797 C1793 1.393 . S
C1797 C1796 1.391 . S
C1798 H1788 0.950 . S
C1798 C1799 1.386 . S
C1798 C1800 1.391 . S
C1799 C1798 1.386 . S
C1799 C1803 1.393 . S
C1800 H1789 0.950 . S
C1800 C1798 1.391 . S
C1800 C1801 1.400 . S
C1801 C1795 1.491 . S
C1801 C1800 1.400 . S
C1801 C1802 1.398 . S
C1802 H1790 0.950 . S
C1802 C1801 1.398 . S
C1802 C1803 1.391 . S
C1803 H1791 0.950 . S
C1803 C1799 1.393 . S
C1803 C1802 1.391 . S
H1804 C1812 0.950 . S
H1805 C1817 0.950 . S
H1806 C1814 0.950 . S
H1807 C1816 0.950 . S
H1808 C1818 0.950 . S
H1809 C1820 0.950 . S
H1810 C1822 0.950 . S
H1811 C1823 0.950 . S
C1812 H1804 0.950 . S
C1812 C1813 1.386 . S
C1812 C1814 1.391 . S
C1813 C1812 1.386 . S
C1813 C1817 1.393 . S
C1814 H1806 0.950 . S
C1814 C1812 1.391 . S
C1814 C1815 1.400 . S
C1815 C1814 1.400 . S
C1815 C1816 1.398 . S
C1815 C1821 1.491 . S
C1816 H1807 0.950 . S
C1816 C1815 1.398 . S
C1816 C1817 1.391 . S
C1817 H1805 0.950 . S
C1817 C1813 1.393 . S
C1817 C1816 1.391 . S
C1818 H1808 0.950 . S
C1818 C1819 1.386 . S
C1818 C1820 1.391 . S
C1819 C1818 1.386 . S
C1819 C1823 1.393 . S
C1820 H1809 0.950 . S
C1820 C1818 1.391 . S
C1820 C1821 1.400 . S
C1821 C1815 1.491 . S
C1821 C1820 1.400 . S
C1821 C1822 1.398 . S
C1822 H1810 0.950 . S
C1822 C1821 1.398 . S
C1822 C1823 1.391 . S
C1823 H1811 0.950 . S
C1823 C1819 1.393 . S
C1823 C1822 1.391 . S
H1824 C1832 0.950 . S
H1825 C1837 0.950 . S
H1826 C1834 0.950 . S
H1827 C1836 0.950 . S
H1828 C1838 0.950 . S
H1829 C1840 0.950 . S
H1830 C1842 0.950 . S
H1831 C1843 0.950 . S
C1832 H1824 0.950 . S
C1832 C1833 1.386 . S
C1832 C1834 1.391 . S
C1833 C1832 1.386 . S
C1833 C1837 1.393 . S
C1834 H1826 0.950 . S
C1834 C1832 1.391 . S
C1834 C1835 1.400 . S
C1835 C1834 1.400 . S
C1835 C1836 1.398 . S
C1835 C1841 1.491 . S
C1836 H1827 0.950 . S
C1836 C1835 1.398 . S
C1836 C1837 1.391 . S
C1837 H1825 0.950 . S
C1837 C1833 1.393 . S
C1837 C1836 1.391 . S
C1838 H1828 0.950 . S
C1838 C1839 1.386 . S
C1838 C1840 1.391 . S
C1839 C1838 1.386 . S
C1839 C1843 1.393 . S
C1840 H1829 0.950 . S
C1840 C1838 1.391 . S
C1840 C1841 1.400 . S
C1841 C1835 1.491 . S
C1841 C1840 1.400 . S
C1841 C1842 1.398 . S
C1842 H1830 0.950 . S
C1842 C1841 1.398 . S
C1842 C1843 1.391 . S
C1843 H1831 0.950 . S
C1843 C1839 1.393 . S
C1843 C1842 1.391 . S
H1844 C1852 0.950 . S
H1845 C1857 0.950 . S
H1846 C1854 0.950 . S
H1847 C1856 0.950 . S
H1848 C1858 0.950 . S
H1849 C1860 0.950 . S
H1850 C1862 0.950 . S
H1851 C1863 0.950 . S
C1852 H1844 0.950 . S
C1852 C1853 1.386 . S
C1852 C1854 1.391 . S
C1853 C1852 1.386 . S
C1853 C1857 1.393 . S
C1854 H1846 0.950 . S
C1854 C1852 1.391 . S
C1854 C1855 1.400 . S
C1855 C1854 1.400 . S
C1855 C1856 1.398 . S
C1855 C1861 1.491 . S
C1856 H1847 0.950 . S
C1856 C1855 1.398 . S
C1856 C1857 1.391 . S
C1857 H1845 0.950 . S
C1857 C1853 1.393 . S
C1857 C1856 1.391 . S
C1858 H1848 0.950 . S
C1858 C1859 1.386 . S
C1858 C1860 1.391 . S
C1859 C1858 1.386 . S
C1859 C1863 1.393 . S
C1860 H1849 0.950 . S
C1860 C1858 1.391 . S
C1860 C1861 1.400 . S
C1861 C1855 1.491 . S
C1861 C1860 1.400 . S
C1861 C1862 1.398 . S
C1862 H1850 0.950 . S
C1862 C1861 1.398 . S
C1862 C1863 1.391 . S
C1863 H1851 0.950 . S
C1863 C1859 1.393 . S
C1863 C1862 1.391 . S
H1864 C1872 0.950 . S
H1865 C1877 0.950 . S
H1866 C1874 0.950 . S
H1867 C1876 0.950 . S
H1868 C1878 0.950 . S
H1869 C1880 0.950 . S
H1870 C1882 0.950 . S
H1871 C1883 0.950 . S
C1872 H1864 0.950 . S
C1872 C1873 1.386 . S
C1872 C1874 1.391 . S
C1873 C1872 1.386 . S
C1873 C1877 1.393 . S
C1874 H1866 0.950 . S
C1874 C1872 1.391 . S
C1874 C1875 1.400 . S
C1875 C1874 1.400 . S
C1875 C1876 1.398 . S
C1875 C1881 1.491 . S
C1876 H1867 0.950 . S
C1876 C1875 1.398 . S
C1876 C1877 1.391 . S
C1877 H1865 0.950 . S
C1877 C1873 1.393 . S
C1877 C1876 1.391 . S
C1878 H1868 0.950 . S
C1878 C1879 1.386 . S
C1878 C1880 1.391 . S
C1879 C1878 1.386 . S
C1879 C1883 1.393 . S
C1880 H1869 0.950 . S
C1880 C1878 1.391 . S
C1880 C1881 1.400 . S
C1881 C1875 1.491 . S
C1881 C1880 1.400 . S
C1881 C1882 1.398 . S
C1882 H1870 0.950 . S
C1882 C1881 1.398 . S
C1882 C1883 1.391 . S
C1883 H1871 0.950 . S
C1883 C1879 1.393 . S
C1883 C1882 1.391 . S
H1884 C1892 0.950 . S
H1885 C1897 0.950 . S
H1886 C1894 0.950 . S
H1887 C1896 0.950 . S
H1888 C1898 0.950 . S
H1889 C1900 0.950 . S
H1890 C1902 0.950 . S
H1891 C1903 0.950 . S
C1892 H1884 0.950 . S
C1892 C1893 1.386 . S
C1892 C1894 1.391 . S
C1893 C1892 1.386 . S
C1893 C1897 1.393 . S
C1894 H1886 0.950 . S
C1894 C1892 1.391 . S
C1894 C1895 1.400 . S
C1895 C1894 1.400 . S
C1895 C1896 1.398 . S
C1895 C1901 1.491 . S
C1896 H1887 0.950 . S
C1896 C1895 1.398 . S
C1896 C1897 1.391 . S
C1897 H1885 0.950 . S
C1897 C1893 1.393 . S
C1897 C1896 1.391 . S
C1898 H1888 0.950 . S
C1898 C1899 1.386 . S
C1898 C1900 1.391 . S
C1899 C1898 1.386 . S
C1899 C1903 1.393 . S
C1900 H1889 0.950 . S
C1900 C1898 1.391 . S
C1900 C1901 1.400 . S
C1901 C1895 1.491 . S
C1901 C1900 1.400 . S
C1901 C1902 1.398 . S
C1902 H1890 0.950 . S
C1902 C1901 1.398 . S
C1902 C1903 1.391 . S
C1903 H1891 0.950 . S
C1903 C1899 1.393 . S
C1903 C1902 1.391 . S
H1904 C1912 0.950 . S
H1905 C1917 0.950 . S
H1906 C1914 0.950 . S
H1907 C1916 0.950 . S
H1908 C1918 0.950 . S
H1909 C1920 0.950 . S
H1910 C1922 0.950 . S
H1911 C1923 0.950 . S
C1912 H1904 0.950 . S
C1912 C1913 1.386 . S
C1912 C1914 1.391 . S
C1913 C1912 1.386 . S
C1913 C1917 1.393 . S
C1914 H1906 0.950 . S
C1914 C1912 1.391 . S
C1914 C1915 1.400 . S
C1915 C1914 1.400 . S
C1915 C1916 1.398 . S
C1915 C1921 1.491 . S
C1916 H1907 0.950 . S
C1916 C1915 1.398 . S
C1916 C1917 1.391 . S
C1917 H1905 0.950 . S
C1917 C1913 1.393 . S
C1917 C1916 1.391 . S
C1918 H1908 0.950 . S
C1918 C1919 1.386 . S
C1918 C1920 1.391 . S
C1919 C1918 1.386 . S
C1919 C1923 1.393 . S
C1920 H1909 0.950 . S
C1920 C1918 1.391 . S
C1920 C1921 1.400 . S
C1921 C1915 1.491 . S
C1921 C1920 1.400 . S
C1921 C1922 1.398 . S
C1922 H1910 0.950 . S
C1922 C1921 1.398 . S
C1922 C1923 1.391 . S
C1923 H1911 0.950 . S
C1923 C1919 1.393 . S
C1923 C1922 1.391 . S
H1924 C1932 0.950 . S
H1925 C1937 0.950 . S
H1926 C1934 0.950 . S
H1927 C1936 0.950 . S
H1928 C1938 0.950 . S
H1929 C1940 0.950 . S
H1930 C1942 0.950 . S
H1931 C1943 0.950 . S
C1932 H1924 0.950 . S
C1932 C1933 1.386 . S
C1932 C1934 1.391 . S
C1933 C1932 1.386 . S
C1933 C1937 1.393 . S
C1934 H1926 0.950 . S
C1934 C1932 1.391 . S
C1934 C1935 1.400 . S
C1935 C1934 1.400 . S
C1935 C1936 1.398 . S
C1935 C1941 1.491 . S
C1936 H1927 0.950 . S
C1936 C1935 1.398 . S
C1936 C1937 1.391 . S
C1937 H1925 0.950 . S
C1937 C1933 1.393 . S
C1937 C1936 1.391 . S
C1938 H1928 0.950 . S
C1938 C1939 1.386 . S
C1938 C1940 1.391 . S
C1939 C1938 1.386 . S
C1939 C1943 1.393 . S
C1940 H1929 0.950 . S
C1940 C1938 1.391 . S
C1940 C1941 1.400 . S
C1941 C1935 1.491 . S
C1941 C1940 1.400 . S
C1941 C1942 1.398 . S
C1942 H1930 0.950 . S
C1942 C1941 1.398 . S
C1942 C1943 1.391 . S
C1943 H1931 0.950 . S
C1943 C1939 1.393 . S
C1943 C1942 1.391 . S
H1944 C1952 0.950 . S
H1945 C1957 0.950 . S
H1946 C1954 0.950 . S
H1947 C1956 0.950 . S
H1948 C1958 0.950 . S
H1949 C1960 0.950 . S
H1950 C1962 0.950 . S
H1951 C1963 0.950 . S
C1952 H1944 0.950 . S
C1952 C1953 1.386 . S
C1952 C1954 1.391 . S
C1953 C1952 1.386 . S
C1953 C1957 1.393 . S
C1954 H1946 0.950 . S
C1954 C1952 1.391 . S
C1954 C1955 1.400 . S
C1955 C1954 1.400 . S
C1955 C1956 1.398 . S
C1955 C1961 1.491 . S
C1956 H1947 0.950 . S
C1956 C1955 1.398 . S
C1956 C1957 1.391 . S
C1957 H1945 0.950 . S
C1957 C1953 1.393 . S
C1957 C1956 1.391 . S
C1958 H1948 0.950 . S
C1958 C1959 1.386 . S
C1958 C1960 1.391 . S
C1959 C1958 1.386 . S
C1959 C1963 1.393 . S
C1960 H1949 0.950 . S
C1960 C1958 1.391 . S
C1960 C1961 1.400 . S
C1961 C1955 1.491 . S
C1961 C1960 1.400 . S
C1961 C1962 1.398 . S
C1962 H1950 0.950 . S
C1962 C1961 1.398 . S
C1962 C1963 1.391 . S
C1963 H1951 0.950 . S
C1963 C1959 1.393 . S
C1963 C1962 1.391 . S
H1964 C1972 0.950 . S
H1965 C1977 0.950 . S
H1966 C1974 0.950 . S
H1967 C1976 0.950 . S
H1968 C1978 0.950 . S
H1969 C1980 0.950 . S
H1970 C1982 0.950 . S
H1971 C1983 0.950 . S
C1972 H1964 0.950 . S
C1972 C1973 1.386 . S
C1972 C1974 1.391 . S
C1973 C1972 1.386 . S
C1973 C1977 1.393 . S
C1974 H1966 0.950 . S
C1974 C1972 1.391 . S
C1974 C1975 1.400 . S
C1975 C1974 1.400 . S
C1975 C1976 1.398 . S
C1975 C1981 1.491 . S
C1976 H1967 0.950 . S
C1976 C1975 1.398 . S
C1976 C1977 1.391 . S
C1977 H1965 0.950 . S
C1977 C1973 1.393 . S
C1977 C1976 1.391 . S
C1978 H1968 0.950 . S
C1978 C1979 1.386 . S
C1978 C1980 1.391 . S
C1979 C1978 1.386 . S
C1979 C1983 1.393 . S
C1980 H1969 0.950 . S
C1980 C1978 1.391 . S
C1980 C1981 1.400 . S
C1981 C1975 1.491 . S
C1981 C1980 1.400 . S
C1981 C1982 1.398 . S
C1982 H1970 0.950 . S
C1982 C1981 1.398 . S
C1982 C1983 1.391 . S
C1983 H1971 0.950 . S
C1983 C1979 1.393 . S
C1983 C1982 1.391 . S
H1984 C1992 0.950 . S
H1985 C1997 0.950 . S
H1986 C1994 0.950 . S
H1987 C1996 0.950 . S
H1988 C1998 0.950 . S
H1989 C2000 0.950 . S
H1990 C2002 0.950 . S
H1991 C2003 0.950 . S
C1992 H1984 0.950 . S
C1992 C1993 1.386 . S
C1992 C1994 1.391 . S
C1993 C1992 1.386 . S
C1993 C1997 1.393 . S
C1994 H1986 0.950 . S
C1994 C1992 1.391 . S
C1994 C1995 1.400 . S
C1995 C1994 1.400 . S
C1995 C1996 1.398 . S
C1995 C2001 1.491 . S
C1996 H1987 0.950 . S
C1996 C1995 1.398 . S
C1996 C1997 1.391 . S
C1997 H1985 0.950 . S
C1997 C1993 1.393 . S
C1997 C1996 1.391 . S
C1998 H1988 0.950 . S
C1998 C1999 1.386 . S
C1998 C2000 1.391 . S
C1999 C1998 1.386 . S
C1999 C2003 1.393 . S
C2000 H1989 0.950 . S
C2000 C1998 1.391 . S
C2000 C2001 1.400 . S
C2001 C1995 1.491 . S
C2001 C2000 1.400 . S
C2001 C2002 1.398 . S
C2002 H1990 0.950 . S
C2002 C2001 1.398 . S
C2002 C2003 1.391 . S
C2003 H1991 0.950 . S
C2003 C1999 1.393 . S
C2003 C2002 1.391 . S
H2004 C2012 0.950 . S
H2005 C2017 0.950 . S
H2006 C2014 0.950 . S
H2007 C2016 0.950 . S
H2008 C2018 0.950 . S
H2009 C2020 0.950 . S
H2010 C2022 0.950 . S
H2011 C2023 0.950 . S
C2012 H2004 0.950 . S
C2012 C2013 1.386 . S
C2012 C2014 1.391 . S
C2013 C2012 1.386 . S
C2013 C2017 1.393 . S
C2014 H2006 0.950 . S
C2014 C2012 1.391 . S
C2014 C2015 1.400 . S
C2015 C2014 1.400 . S
C2015 C2016 1.398 . S
C2015 C2021 1.491 . S
C2016 H2007 0.950 . S
C2016 C2015 1.398 . S
C2016 C2017 1.391 . S
C2017 H2005 0.950 . S
C2017 C2013 1.393 . S
C2017 C2016 1.391 . S
C2018 H2008 0.950 . S
C2018 C2019 1.386 . S
C2018 C2020 1.391 . S
C2019 C2018 1.386 . S
C2019 C2023 1.393 . S
C2020 H2009 0.950 . S
C2020 C2018 1.391 . S
C2020 C2021 1.400 . S
C2021 C2015 1.491 . S
C2021 C2020 1.400 . S
C2021 C2022 1.398 . S
C2022 H2010 0.950 . S
C2022 C2021 1.398 . S
C2022 C2023 1.391 . S
C2023 H2011 0.950 . S
C2023 C2019 1.393 . S
C2023 C2022 1.391 . S
H2024 C2032 0.950 . S
H2025 C2037 0.950 . S
H2026 C2034 0.950 . S
H2027 C2036 0.950 . S
H2028 C2038 0.950 . S
H2029 C2040 0.950 . S
H2030 C2042 0.950 . S
H2031 C2043 0.950 . S
C2032 H2024 0.950 . S
C2032 C2033 1.386 . S
C2032 C2034 1.391 . S
C2033 C2032 1.386 . S
C2033 C2037 1.393 . S
C2034 H2026 0.950 . S
C2034 C2032 1.391 . S
C2034 C2035 1.400 . S
C2035 C2034 1.400 . S
C2035 C2036 1.398 . S
C2035 C2041 1.491 . S
C2036 H2027 0.950 . S
C2036 C2035 1.398 . S
C2036 C2037 1.391 . S
C2037 H2025 0.950 . S
C2037 C2033 1.393 . S
C2037 C2036 1.391 . S
C2038 H2028 0.950 . S
C2038 C2039 1.386 . S
C2038 C2040 1.391 . S
C2039 C2038 1.386 . S
C2039 C2043 1.393 . S
C2040 H2029 0.950 . S
C2040 C2038 1.391 . S
C2040 C2041 1.400 . S
C2041 C2035 1.491 . S
C2041 C2040 1.400 . S
C2041 C2042 1.398 . S
C2042 H2030 0.950 . S
C2042 C2041 1.398 . S
C2042 C2043 1.391 . S
C2043 H2031 0.950 . S
C2043 C2039 1.393 . S
C2043 C2042 1.391 . S
H2044 C2052 0.950 . S
H2045 C2057 0.950 . S
H2046 C2054 0.950 . S
H2047 C2056 0.950 . S
H2048 C2058 0.950 . S
H2049 C2060 0.950 . S
H2050 C2062 0.950 . S
H2051 C2063 0.950 . S
C2052 H2044 0.950 . S
C2052 C2053 1.386 . S
C2052 C2054 1.391 . S
C2053 C2052 1.386 . S
C2053 C2057 1.393 . S
C2054 H2046 0.950 . S
C2054 C2052 1.391 . S
C2054 C2055 1.400 . S
C2055 C2054 1.400 . S
C2055 C2056 1.398 . S
C2055 C2061 1.491 . S
C2056 H2047 0.950 . S
C2056 C2055 1.398 . S
C2056 C2057 1.391 . S
C2057 H2045 0.950 . S
C2057 C2053 1.393 . S
C2057 C2056 1.391 . S
C2058 H2048 0.950 . S
C2058 C2059 1.386 . S
C2058 C2060 1.391 . S
C2059 C2058 1.386 . S
C2059 C2063 1.393 . S
C2060 H2049 0.950 . S
C2060 C2058 1.391 . S
C2060 C2061 1.400 . S
C2061 C2055 1.491 . S
C2061 C2060 1.400 . S
C2061 C2062 1.398 . S
C2062 H2050 0.950 . S
C2062 C2061 1.398 . S
C2062 C2063 1.391 . S
C2063 H2051 0.950 . S
C2063 C2059 1.393 . S
C2063 C2062 1.391 . S
H2064 C2072 0.950 . S
H2065 C2077 0.950 . S
H2066 C2074 0.950 . S
H2067 C2076 0.950 . S
H2068 C2078 0.950 . S
H2069 C2080 0.950 . S
H2070 C2082 0.950 . S
H2071 C2083 0.950 . S
C2072 H2064 0.950 . S
C2072 C2073 1.386 . S
C2072 C2074 1.391 . S
C2073 C2072 1.386 . S
C2073 C2077 1.393 . S
C2074 H2066 0.950 . S
C2074 C2072 1.391 . S
C2074 C2075 1.400 . S
C2075 C2074 1.400 . S
C2075 C2076 1.398 . S
C2075 C2081 1.491 . S
C2076 H2067 0.950 . S
C2076 C2075 1.398 . S
C2076 C2077 1.391 . S
C2077 H2065 0.950 . S
C2077 C2073 1.393 . S
C2077 C2076 1.391 . S
C2078 H2068 0.950 . S
C2078 C2079 1.386 . S
C2078 C2080 1.391 . S
C2079 C2078 1.386 . S
C2079 C2083 1.393 . S
C2080 H2069 0.950 . S
C2080 C2078 1.391 . S
C2080 C2081 1.400 . S
C2081 C2075 1.491 . S
C2081 C2080 1.400 . S
C2081 C2082 1.398 . S
C2082 H2070 0.950 . S
C2082 C2081 1.398 . S
C2082 C2083 1.391 . S
C2083 H2071 0.950 . S
C2083 C2079 1.393 . S
C2083 C2082 1.391 . S
H2084 C2092 0.950 . S
H2085 C2097 0.950 . S
H2086 C2094 0.950 . S
H2087 C2096 0.950 . S
H2088 C2098 0.950 . S
H2089 C2100 0.950 . S
H2090 C2102 0.950 . S
H2091 C2103 0.950 . S
C2092 H2084 0.950 . S
C2092 C2093 1.386 . S
C2092 C2094 1.391 . S
C2093 C2092 1.386 . S
C2093 C2097 1.393 . S
C2094 H2086 0.950 . S
C2094 C2092 1.391 . S
C2094 C2095 1.400 . S
C2095 C2094 1.400 . S
C2095 C2096 1.398 . S
C2095 C2101 1.491 . S
C2096 H2087 0.950 . S
C2096 C2095 1.398 . S
C2096 C2097 1.391 . S
C2097 H2085 0.950 . S
C2097 C2093 1.393 . S
C2097 C2096 1.391 . S
C2098 H2088 0.950 . S
C2098 C2099 1.386 . S
C2098 C2100 1.391 . S
C2099 C2098 1.386 . S
C2099 C2103 1.393 . S
C2100 H2089 0.950 . S
C2100 C2098 1.391 . S
C2100 C2101 1.400 . S
C2101 C2095 1.491 . S
C2101 C2100 1.400 . S
C2101 C2102 1.398 . S
C2102 H2090 0.950 . S
C2102 C2101 1.398 . S
C2102 C2103 1.391 . S
C2103 H2091 0.950 . S
C2103 C2099 1.393 . S
C2103 C2102 1.391 . S
H2104 C2112 0.950 . S
H2105 C2117 0.950 . S
H2106 C2114 0.950 . S
H2107 C2116 0.950 . S
H2108 C2118 0.950 . S
H2109 C2120 0.950 . S
H2110 C2122 0.950 . S
H2111 C2123 0.950 . S
C2112 H2104 0.950 . S
C2112 C2113 1.386 . S
C2112 C2114 1.391 . S
C2113 C2112 1.386 . S
C2113 C2117 1.393 . S
C2114 H2106 0.950 . S
C2114 C2112 1.391 . S
C2114 C2115 1.400 . S
C2115 C2114 1.400 . S
C2115 C2116 1.398 . S
C2115 C2121 1.491 . S
C2116 H2107 0.950 . S
C2116 C2115 1.398 . S
C2116 C2117 1.391 . S
C2117 H2105 0.950 . S
C2117 C2113 1.393 . S
C2117 C2116 1.391 . S
C2118 H2108 0.950 . S
C2118 C2119 1.386 . S
C2118 C2120 1.391 . S
C2119 C2118 1.386 . S
C2119 C2123 1.393 . S
C2120 H2109 0.950 . S
C2120 C2118 1.391 . S
C2120 C2121 1.400 . S
C2121 C2115 1.491 . S
C2121 C2120 1.400 . S
C2121 C2122 1.398 . S
C2122 H2110 0.950 . S
C2122 C2121 1.398 . S
C2122 C2123 1.391 . S
C2123 H2111 0.950 . S
C2123 C2119 1.393 . S
C2123 C2122 1.391 . S
H2124 C2132 0.950 . S
H2125 C2137 0.950 . S
H2126 C2134 0.950 . S
H2127 C2136 0.950 . S
H2128 C2138 0.950 . S
H2129 C2140 0.950 . S
H2130 C2142 0.950 . S
H2131 C2143 0.950 . S
C2132 H2124 0.950 . S
C2132 C2133 1.386 . S
C2132 C2134 1.391 . S
C2133 C2132 1.386 . S
C2133 C2137 1.393 . S
C2134 H2126 0.950 . S
C2134 C2132 1.391 . S
C2134 C2135 1.400 . S
C2135 C2134 1.400 . S
C2135 C2136 1.398 . S
C2135 C2141 1.491 . S
C2136 H2127 0.950 . S
C2136 C2135 1.398 . S
C2136 C2137 1.391 . S
C2137 H2125 0.950 . S
C2137 C2133 1.393 . S
C2137 C2136 1.391 . S
C2138 H2128 0.950 . S
C2138 C2139 1.386 . S
C2138 C2140 1.391 . S
C2139 C2138 1.386 . S
C2139 C2143 1.393 . S
C2140 H2129 0.950 . S
C2140 C2138 1.391 . S
C2140 C2141 1.400 . S
C2141 C2135 1.491 . S
C2141 C2140 1.400 . S
C2141 C2142 1.398 . S
C2142 H2130 0.950 . S
C2142 C2141 1.398 . S
C2142 C2143 1.391 . S
C2143 H2131 0.950 . S
C2143 C2139 1.393 . S
C2143 C2142 1.391 . S
H2144 C2152 0.950 . S
H2145 C2157 0.950 . S
H2146 C2154 0.950 . S
H2147 C2156 0.950 . S
H2148 C2158 0.950 . S
H2149 C2160 0.950 . S
H2150 C2162 0.950 . S
H2151 C2163 0.950 . S
C2152 H2144 0.950 . S
C2152 C2153 1.386 . S
C2152 C2154 1.391 . S
C2153 C2152 1.386 . S
C2153 C2157 1.393 . S
C2154 H2146 0.950 . S
C2154 C2152 1.391 . S
C2154 C2155 1.400 . S
C2155 C2154 1.400 . S
C2155 C2156 1.398 . S
C2155 C2161 1.491 . S
C2156 H2147 0.950 . S
C2156 C2155 1.398 . S
C2156 C2157 1.391 . S
C2157 H2145 0.950 . S
C2157 C2153 1.393 . S
C2157 C2156 1.391 . S
C2158 H2148 0.950 . S
C2158 C2159 1.386 . S
C2158 C2160 1.391 . S
C2159 C2158 1.386 . S
C2159 C2163 1.393 . S
C2160 H2149 0.950 . S
C2160 C2158 1.391 . S
C2160 C2161 1.400 . S
C2161 C2155 1.491 . S
C2161 C2160 1.400 . S
C2161 C2162 1.398 . S
C2162 H2150 0.950 . S
C2162 C2161 1.398 . S
C2162 C2163 1.391 . S
C2163 H2151 0.950 . S
C2163 C2159 1.393 . S
C2163 C2162 1.391 . S
H2164 C2172 0.950 . S
H2165 C2177 0.950 . S
H2166 C2174 0.950 . S
H2167 C2176 0.950 . S
H2168 C2178 0.950 . S
H2169 C2180 0.950 . S
H2170 C2182 0.950 . S
H2171 C2183 0.950 . S
C2172 H2164 0.950 . S
C2172 C2173 1.386 . S
C2172 C2174 1.391 . S
C2173 C2172 1.386 . S
C2173 C2177 1.393 . S
C2174 H2166 0.950 . S
C2174 C2172 1.391 . S
C2174 C2175 1.400 . S
C2175 C2174 1.400 . S
C2175 C2176 1.398 . S
C2175 C2181 1.491 . S
C2176 H2167 0.950 . S
C2176 C2175 1.398 . S
C2176 C2177 1.391 . S
C2177 H2165 0.950 . S
C2177 C2173 1.393 . S
C2177 C2176 1.391 . S
C2178 H2168 0.950 . S
C2178 C2179 1.386 . S
C2178 C2180 1.391 . S
C2179 C2178 1.386 . S
C2179 C2183 1.393 . S
C2180 H2169 0.950 . S
C2180 C2178 1.391 . S
C2180 C2181 1.400 . S
C2181 C2175 1.491 . S
C2181 C2180 1.400 . S
C2181 C2182 1.398 . S
C2182 H2170 0.950 . S
C2182 C2181 1.398 . S
C2182 C2183 1.391 . S
C2183 H2171 0.950 . S
C2183 C2179 1.393 . S
C2183 C2182 1.391 . S
H2184 C2192 0.950 . S
H2185 C2197 0.950 . S
H2186 C2194 0.950 . S
H2187 C2196 0.950 . S
H2188 C2198 0.950 . S
H2189 C2200 0.950 . S
H2190 C2202 0.950 . S
H2191 C2203 0.950 . S
C2192 H2184 0.950 . S
C2192 C2193 1.386 . S
C2192 C2194 1.391 . S
C2193 C2192 1.386 . S
C2193 C2197 1.393 . S
C2194 H2186 0.950 . S
C2194 C2192 1.391 . S
C2194 C2195 1.400 . S
C2195 C2194 1.400 . S
C2195 C2196 1.398 . S
C2195 C2201 1.491 . S
C2196 H2187 0.950 . S
C2196 C2195 1.398 . S
C2196 C2197 1.391 . S
C2197 H2185 0.950 . S
C2197 C2193 1.393 . S
C2197 C2196 1.391 . S
C2198 H2188 0.950 . S
C2198 C2199 1.386 . S
C2198 C2200 1.391 . S
C2199 C2198 1.386 . S
C2199 C2203 1.393 . S
C2200 H2189 0.950 . S
C2200 C2198 1.391 . S
C2200 C2201 1.400 . S
C2201 C2195 1.491 . S
C2201 C2200 1.400 . S
C2201 C2202 1.398 . S
C2202 H2190 0.950 . S
C2202 C2201 1.398 . S
C2202 C2203 1.391 . S
C2203 H2191 0.950 . S
C2203 C2199 1.393 . S
C2203 C2202 1.391 . S
H2204 C2212 0.950 . S
H2205 C2217 0.950 . S
H2206 C2214 0.950 . S
H2207 C2216 0.950 . S
H2208 C2218 0.950 . S
H2209 C2220 0.950 . S
H2210 C2222 0.950 . S
H2211 C2223 0.950 . S
C2212 H2204 0.950 . S
C2212 C2213 1.386 . S
C2212 C2214 1.391 . S
C2213 C2212 1.386 . S
C2213 C2217 1.393 . S
C2214 H2206 0.950 . S
C2214 C2212 1.391 . S
C2214 C2215 1.400 . S
C2215 C2214 1.400 . S
C2215 C2216 1.398 . S
C2215 C2221 1.491 . S
C2216 H2207 0.950 . S
C2216 C2215 1.398 . S
C2216 C2217 1.391 . S
C2217 H2205 0.950 . S
C2217 C2213 1.393 . S
C2217 C2216 1.391 . S
C2218 H2208 0.950 . S
C2218 C2219 1.386 . S
C2218 C2220 1.391 . S
C2219 C2218 1.386 . S
C2219 C2223 1.393 . S
C2220 H2209 0.950 . S
C2220 C2218 1.391 . S
C2220 C2221 1.400 . S
C2221 C2215 1.491 . S
C2221 C2220 1.400 . S
C2221 C2222 1.398 . S
C2222 H2210 0.950 . S
C2222 C2221 1.398 . S
C2222 C2223 1.391 . S
C2223 H2211 0.950 . S
C2223 C2219 1.393 . S
C2223 C2222 1.391 . S
H2224 C2232 0.950 . S
H2225 C2237 0.950 . S
H2226 C2234 0.950 . S
H2227 C2236 0.950 . S
H2228 C2238 0.950 . S
H2229 C2240 0.950 . S
H2230 C2242 0.950 . S
H2231 C2243 0.950 . S
C2232 H2224 0.950 . S
C2232 C2233 1.386 . S
C2232 C2234 1.391 . S
C2233 C2232 1.386 . S
C2233 C2237 1.393 . S
C2234 H2226 0.950 . S
C2234 C2232 1.391 . S
C2234 C2235 1.400 . S
C2235 C2234 1.400 . S
C2235 C2236 1.398 . S
C2235 C2241 1.491 . S
C2236 H2227 0.950 . S
C2236 C2235 1.398 . S
C2236 C2237 1.391 . S
C2237 H2225 0.950 . S
C2237 C2233 1.393 . S
C2237 C2236 1.391 . S
C2238 H2228 0.950 . S
C2238 C2239 1.386 . S
C2238 C2240 1.391 . S
C2239 C2238 1.386 . S
C2239 C2243 1.393 . S
C2240 H2229 0.950 . S
C2240 C2238 1.391 . S
C2240 C2241 1.400 . S
C2241 C2235 1.491 . S
C2241 C2240 1.400 . S
C2241 C2242 1.398 . S
C2242 H2230 0.950 . S
C2242 C2241 1.398 . S
C2242 C2243 1.391 . S
C2243 H2231 0.950 . S
C2243 C2239 1.393 . S
C2243 C2242 1.391 . S
H2244 C2252 0.950 . S
H2245 C2257 0.950 . S
H2246 C2254 0.950 . S
H2247 C2256 0.950 . S
H2248 C2258 0.950 . S
H2249 C2260 0.950 . S
H2250 C2262 0.950 . S
H2251 C2263 0.950 . S
C2252 H2244 0.950 . S
C2252 C2253 1.386 . S
C2252 C2254 1.391 . S
C2253 C2252 1.386 . S
C2253 C2257 1.393 . S
C2254 H2246 0.950 . S
C2254 C2252 1.391 . S
C2254 C2255 1.400 . S
C2255 C2254 1.400 . S
C2255 C2256 1.398 . S
C2255 C2261 1.491 . S
C2256 H2247 0.950 . S
C2256 C2255 1.398 . S
C2256 C2257 1.391 . S
C2257 H2245 0.950 . S
C2257 C2253 1.393 . S
C2257 C2256 1.391 . S
C2258 H2248 0.950 . S
C2258 C2259 1.386 . S
C2258 C2260 1.391 . S
C2259 C2258 1.386 . S
C2259 C2263 1.393 . S
C2260 H2249 0.950 . S
C2260 C2258 1.391 . S
C2260 C2261 1.400 . S
C2261 C2255 1.491 . S
C2261 C2260 1.400 . S
C2261 C2262 1.398 . S
C2262 H2250 0.950 . S
C2262 C2261 1.398 . S
C2262 C2263 1.391 . S
C2263 H2251 0.950 . S
C2263 C2259 1.393 . S
C2263 C2262 1.391 . S
H2264 C2272 0.950 . S
H2265 C2277 0.950 . S
H2266 C2274 0.950 . S
H2267 C2276 0.950 . S
H2268 C2278 0.950 . S
H2269 C2280 0.950 . S
H2270 C2282 0.950 . S
H2271 C2283 0.950 . S
C2272 H2264 0.950 . S
C2272 C2273 1.386 . S
C2272 C2274 1.391 . S
C2273 C2272 1.386 . S
C2273 C2277 1.393 . S
C2274 H2266 0.950 . S
C2274 C2272 1.391 . S
C2274 C2275 1.400 . S
C2275 C2274 1.400 . S
C2275 C2276 1.398 . S
C2275 C2281 1.491 . S
C2276 H2267 0.950 . S
C2276 C2275 1.398 . S
C2276 C2277 1.391 . S
C2277 H2265 0.950 . S
C2277 C2273 1.393 . S
C2277 C2276 1.391 . S
C2278 H2268 0.950 . S
C2278 C2279 1.386 . S
C2278 C2280 1.391 . S
C2279 C2278 1.386 . S
C2279 C2283 1.393 . S
C2280 H2269 0.950 . S
C2280 C2278 1.391 . S
C2280 C2281 1.400 . S
C2281 C2275 1.491 . S
C2281 C2280 1.400 . S
C2281 C2282 1.398 . S
C2282 H2270 0.950 . S
C2282 C2281 1.398 . S
C2282 C2283 1.391 . S
C2283 H2271 0.950 . S
C2283 C2279 1.393 . S
C2283 C2282 1.391 . S
H2284 C2292 0.950 . S
H2285 C2297 0.950 . S
H2286 C2294 0.950 . S
H2287 C2296 0.950 . S
H2288 C2298 0.950 . S
H2289 C2300 0.950 . S
H2290 C2302 0.950 . S
H2291 C2303 0.950 . S
C2292 H2284 0.950 . S
C2292 C2293 1.386 . S
C2292 C2294 1.391 . S
C2293 C2292 1.386 . S
C2293 C2297 1.393 . S
C2294 H2286 0.950 . S
C2294 C2292 1.391 . S
C2294 C2295 1.400 . S
C2295 C2294 1.400 . S
C2295 C2296 1.398 . S
C2295 C2301 1.491 . S
C2296 H2287 0.950 . S
C2296 C2295 1.398 . S
C2296 C2297 1.391 . S
C2297 H2285 0.950 . S
C2297 C2293 1.393 . S
C2297 C2296 1.391 . S
C2298 H2288 0.950 . S
C2298 C2299 1.386 . S
C2298 C2300 1.391 . S
C2299 C2298 1.386 . S
C2299 C2303 1.393 . S
C2300 H2289 0.950 . S
C2300 C2298 1.391 . S
C2300 C2301 1.400 . S
C2301 C2295 1.491 . S
C2301 C2300 1.400 . S
C2301 C2302 1.398 . S
C2302 H2290 0.950 . S
C2302 C2301 1.398 . S
C2302 C2303 1.391 . S
C2303 H2291 0.950 . S
C2303 C2299 1.393 . S
C2303 C2302 1.391 . S
H2304 C2312 0.950 . S
H2305 C2317 0.950 . S
H2306 C2314 0.950 . S
H2307 C2316 0.950 . S
H2308 C2318 0.950 . S
H2309 C2320 0.950 . S
H2310 C2322 0.950 . S
H2311 C2323 0.950 . S
C2312 H2304 0.950 . S
C2312 C2313 1.386 . S
C2312 C2314 1.391 . S
C2313 C2312 1.386 . S
C2313 C2317 1.393 . S
C2314 H2306 0.950 . S
C2314 C2312 1.391 . S
C2314 C2315 1.400 . S
C2315 C2314 1.400 . S
C2315 C2316 1.398 . S
C2315 C2321 1.491 . S
C2316 H2307 0.950 . S
C2316 C2315 1.398 . S
C2316 C2317 1.391 . S
C2317 H2305 0.950 . S
C2317 C2313 1.393 . S
C2317 C2316 1.391 . S
C2318 H2308 0.950 . S
C2318 C2319 1.386 . S
C2318 C2320 1.391 . S
C2319 C2318 1.386 . S
C2319 C2323 1.393 . S
C2320 H2309 0.950 . S
C2320 C2318 1.391 . S
C2320 C2321 1.400 . S
C2321 C2315 1.491 . S
C2321 C2320 1.400 . S
C2321 C2322 1.398 . S
C2322 H2310 0.950 . S
C2322 C2321 1.398 . S
C2322 C2323 1.391 . S
C2323 H2311 0.950 . S
C2323 C2319 1.393 . S
C2323 C2322 1.391 . S
H2324 C2332 0.950 . S
H2325 C2337 0.950 . S
H2326 C2334 0.950 . S
H2327 C2336 0.950 . S
H2328 C2338 0.950 . S
H2329 C2340 0.950 . S
H2330 C2342 0.950 . S
H2331 C2343 0.950 . S
C2332 H2324 0.950 . S
C2332 C2333 1.386 . S
C2332 C2334 1.391 . S
C2333 C2332 1.386 . S
C2333 C2337 1.393 . S
C2334 H2326 0.950 . S
C2334 C2332 1.391 . S
C2334 C2335 1.400 . S
C2335 C2334 1.400 . S
C2335 C2336 1.398 . S
C2335 C2341 1.491 . S
C2336 H2327 0.950 . S
C2336 C2335 1.398 . S
C2336 C2337 1.391 . S
C2337 H2325 0.950 . S
C2337 C2333 1.393 . S
C2337 C2336 1.391 . S
C2338 H2328 0.950 . S
C2338 C2339 1.386 . S
C2338 C2340 1.391 . S
C2339 C2338 1.386 . S
C2339 C2343 1.393 . S
C2340 H2329 0.950 . S
C2340 C2338 1.391 . S
C2340 C2341 1.400 . S
C2341 C2335 1.491 . S
C2341 C2340 1.400 . S
C2341 C2342 1.398 . S
C2342 H2330 0.950 . S
C2342 C2341 1.398 . S
C2342 C2343 1.391 . S
C2343 H2331 0.950 . S
C2343 C2339 1.393 . S
C2343 C2342 1.391 . S
H2344 C2352 0.950 . S
H2345 C2357 0.950 . S
H2346 C2354 0.950 . S
H2347 C2356 0.950 . S
H2348 C2358 0.950 . S
H2349 C2360 0.950 . S
H2350 C2362 0.950 . S
H2351 C2363 0.950 . S
C2352 H2344 0.950 . S
C2352 C2353 1.386 . S
C2352 C2354 1.391 . S
C2353 C2352 1.386 . S
C2353 C2357 1.393 . S
C2354 H2346 0.950 . S
C2354 C2352 1.391 . S
C2354 C2355 1.400 . S
C2355 C2354 1.400 . S
C2355 C2356 1.398 . S
C2355 C2361 1.491 . S
C2356 H2347 0.950 . S
C2356 C2355 1.398 . S
C2356 C2357 1.391 . S
C2357 H2345 0.950 . S
C2357 C2353 1.393 . S
C2357 C2356 1.391 . S
C2358 H2348 0.950 . S
C2358 C2359 1.386 . S
C2358 C2360 1.391 . S
C2359 C2358 1.386 . S
C2359 C2363 1.393 . S
C2360 H2349 0.950 . S
C2360 C2358 1.391 . S
C2360 C2361 1.400 . S
C2361 C2355 1.491 . S
C2361 C2360 1.400 . S
C2361 C2362 1.398 . S
C2362 H2350 0.950 . S
C2362 C2361 1.398 . S
C2362 C2363 1.391 . S
C2363 H2351 0.950 . S
C2363 C2359 1.393 . S
C2363 C2362 1.391 . S
H2364 C2372 0.950 . S
H2365 C2377 0.950 . S
H2366 C2374 0.950 . S
H2367 C2376 0.950 . S
H2368 C2378 0.950 . S
H2369 C2380 0.950 . S
H2370 C2382 0.950 . S
H2371 C2383 0.950 . S
C2372 H2364 0.950 . S
C2372 C2373 1.386 . S
C2372 C2374 1.391 . S
C2373 C2372 1.386 . S
C2373 C2377 1.393 . S
C2374 H2366 0.950 . S
C2374 C2372 1.391 . S
C2374 C2375 1.400 . S
C2375 C2374 1.400 . S
C2375 C2376 1.398 . S
C2375 C2381 1.491 . S
C2376 H2367 0.950 . S
C2376 C2375 1.398 . S
C2376 C2377 1.391 . S
C2377 H2365 0.950 . S
C2377 C2373 1.393 . S
C2377 C2376 1.391 . S
C2378 H2368 0.950 . S
C2378 C2379 1.386 . S
C2378 C2380 1.391 . S
C2379 C2378 1.386 . S
C2379 C2383 1.393 . S
C2380 H2369 0.950 . S
C2380 C2378 1.391 . S
C2380 C2381 1.400 . S
C2381 C2375 1.491 . S
C2381 C2380 1.400 . S
C2381 C2382 1.398 . S
C2382 H2370 0.950 . S
C2382 C2381 1.398 . S
C2382 C2383 1.391 . S
C2383 H2371 0.950 . S
C2383 C2379 1.393 . S
C2383 C2382 1.391 . S
H2384 C2392 0.950 . S
H2385 C2397 0.950 . S
H2386 C2394 0.950 . S
H2387 C2396 0.950 . S
H2388 C2398 0.950 . S
H2389 C2400 0.950 . S
H2390 C2402 0.950 . S
H2391 C2403 0.950 . S
C2392 H2384 0.950 . S
C2392 C2393 1.386 . S
C2392 C2394 1.391 . S
C2393 C2392 1.386 . S
C2393 C2397 1.393 . S
C2394 H2386 0.950 . S
C2394 C2392 1.391 . S
C2394 C2395 1.400 . S
C2395 C2394 1.400 . S
C2395 C2396 1.398 . S
C2395 C2401 1.491 . S
C2396 H2387 0.950 . S
C2396 C2395 1.398 . S
C2396 C2397 1.391 . S
C2397 H2385 0.950 . S
C2397 C2393 1.393 . S
C2397 C2396 1.391 . S
C2398 H2388 0.950 . S
C2398 C2399 1.386 . S
C2398 C2400 1.391 . S
C2399 C2398 1.386 . S
C2399 C2403 1.393 . S
C2400 H2389 0.950 . S
C2400 C2398 1.391 . S
C2400 C2401 1.400 . S
C2401 C2395 1.491 . S
C2401 C2400 1.400 . S
C2401 C2402 1.398 . S
C2402 H2390 0.950 . S
C2402 C2401 1.398 . S
C2402 C2403 1.391 . S
C2403 H2391 0.950 . S
C2403 C2399 1.393 . S
C2403 C2402 1.391 . S
H2404 C2412 0.950 . S
H2405 C2417 0.950 . S
H2406 C2414 0.950 . S
H2407 C2416 0.950 . S
H2408 C2418 0.950 . S
H2409 C2420 0.950 . S
H2410 C2422 0.950 . S
H2411 C2423 0.950 . S
C2412 H2404 0.950 . S
C2412 C2413 1.386 . S
C2412 C2414 1.391 . S
C2413 C2412 1.386 . S
C2413 C2417 1.393 . S
C2414 H2406 0.950 . S
C2414 C2412 1.391 . S
C2414 C2415 1.400 . S
C2415 C2414 1.400 . S
C2415 C2416 1.398 . S
C2415 C2421 1.491 . S
C2416 H2407 0.950 . S
C2416 C2415 1.398 . S
C2416 C2417 1.391 . S
C2417 H2405 0.950 . S
C2417 C2413 1.393 . S
C2417 C2416 1.391 . S
C2418 H2408 0.950 . S
C2418 C2419 1.386 . S
C2418 C2420 1.391 . S
C2419 C2418 1.386 . S
C2419 C2423 1.393 . S
C2420 H2409 0.950 . S
C2420 C2418 1.391 . S
C2420 C2421 1.400 . S
C2421 C2415 1.491 . S
C2421 C2420 1.400 . S
C2421 C2422 1.398 . S
C2422 H2410 0.950 . S
C2422 C2421 1.398 . S
C2422 C2423 1.391 . S
C2423 H2411 0.950 . S
C2423 C2419 1.393 . S
C2423 C2422 1.391 . S
H2424 C2432 0.950 . S
H2425 C2437 0.950 . S
H2426 C2434 0.950 . S
H2427 C2436 0.950 . S
H2428 C2438 0.950 . S
H2429 C2440 0.950 . S
H2430 C2442 0.950 . S
H2431 C2443 0.950 . S
C2432 H2424 0.950 . S
C2432 C2433 1.386 . S
C2432 C2434 1.391 . S
C2433 C2432 1.386 . S
C2433 C2437 1.393 . S
C2434 H2426 0.950 . S
C2434 C2432 1.391 . S
C2434 C2435 1.400 . S
C2435 C2434 1.400 . S
C2435 C2436 1.398 . S
C2435 C2441 1.491 . S
C2436 H2427 0.950 . S
C2436 C2435 1.398 . S
C2436 C2437 1.391 . S
C2437 H2425 0.950 . S
C2437 C2433 1.393 . S
C2437 C2436 1.391 . S
C2438 H2428 0.950 . S
C2438 C2439 1.386 . S
C2438 C2440 1.391 . S
C2439 C2438 1.386 . S
C2439 C2443 1.393 . S
C2440 H2429 0.950 . S
C2440 C2438 1.391 . S
C2440 C2441 1.400 . S
C2441 C2435 1.491 . S
C2441 C2440 1.400 . S
C2441 C2442 1.398 . S
C2442 H2430 0.950 . S
C2442 C2441 1.398 . S
C2442 C2443 1.391 . S
C2443 H2431 0.950 . S
C2443 C2439 1.393 . S
C2443 C2442 1.391 . S
H2444 C2452 0.950 . S
H2445 C2457 0.950 . S
H2446 C2454 0.950 . S
H2447 C2456 0.950 . S
H2448 C2458 0.950 . S
H2449 C2460 0.950 . S
H2450 C2462 0.950 . S
H2451 C2463 0.950 . S
C2452 H2444 0.950 . S
C2452 C2453 1.386 . S
C2452 C2454 1.391 . S
C2453 C2452 1.386 . S
C2453 C2457 1.393 . S
C2454 H2446 0.950 . S
C2454 C2452 1.391 . S
C2454 C2455 1.400 . S
C2455 C2454 1.400 . S
C2455 C2456 1.398 . S
C2455 C2461 1.491 . S
C2456 H2447 0.950 . S
C2456 C2455 1.398 . S
C2456 C2457 1.391 . S
C2457 H2445 0.950 . S
C2457 C2453 1.393 . S
C2457 C2456 1.391 . S
C2458 H2448 0.950 . S
C2458 C2459 1.386 . S
C2458 C2460 1.391 . S
C2459 C2458 1.386 . S
C2459 C2463 1.393 . S
C2460 H2449 0.950 . S
C2460 C2458 1.391 . S
C2460 C2461 1.400 . S
C2461 C2455 1.491 . S
C2461 C2460 1.400 . S
C2461 C2462 1.398 . S
C2462 H2450 0.950 . S
C2462 C2461 1.398 . S
C2462 C2463 1.391 . S
C2463 H2451 0.950 . S
C2463 C2459 1.393 . S
C2463 C2462 1.391 . S
H2464 C2472 0.950 . S
H2465 C2477 0.950 . S
H2466 C2474 0.950 . S
H2467 C2476 0.950 . S
H2468 C2478 0.950 . S
H2469 C2480 0.950 . S
H2470 C2482 0.950 . S
H2471 C2483 0.950 . S
C2472 H2464 0.950 . S
C2472 C2473 1.386 . S
C2472 C2474 1.391 . S
C2473 C2472 1.386 . S
C2473 C2477 1.393 . S
C2474 H2466 0.950 . S
C2474 C2472 1.391 . S
C2474 C2475 1.400 . S
C2475 C2474 1.400 . S
C2475 C2476 1.398 . S
C2475 C2481 1.491 . S
C2476 H2467 0.950 . S
C2476 C2475 1.398 . S
C2476 C2477 1.391 . S
C2477 H2465 0.950 . S
C2477 C2473 1.393 . S
C2477 C2476 1.391 . S
C2478 H2468 0.950 . S
C2478 C2479 1.386 . S
C2478 C2480 1.391 . S
C2479 C2478 1.386 . S
C2479 C2483 1.393 . S
C2480 H2469 0.950 . S
C2480 C2478 1.391 . S
C2480 C2481 1.400 . S
C2481 C2475 1.491 . S
C2481 C2480 1.400 . S
C2481 C2482 1.398 . S
C2482 H2470 0.950 . S
C2482 C2481 1.398 . S
C2482 C2483 1.391 . S
C2483 H2471 0.950 . S
C2483 C2479 1.393 . S
C2483 C2482 1.391 . S
H2484 C2492 0.950 . S
H2485 C2497 0.950 . S
H2486 C2494 0.950 . S
H2487 C2496 0.950 . S
H2488 C2498 0.950 . S
H2489 C2500 0.950 . S
H2490 C2502 0.950 . S
H2491 C2503 0.950 . S
C2492 H2484 0.950 . S
C2492 C2493 1.386 . S
C2492 C2494 1.391 . S
C2493 C2492 1.386 . S
C2493 C2497 1.393 . S
C2494 H2486 0.950 . S
C2494 C2492 1.391 . S
C2494 C2495 1.400 . S
C2495 C2494 1.400 . S
C2495 C2496 1.398 . S
C2495 C2501 1.491 . S
C2496 H2487 0.950 . S
C2496 C2495 1.398 . S
C2496 C2497 1.391 . S
C2497 H2485 0.950 . S
C2497 C2493 1.393 . S
C2497 C2496 1.391 . S
C2498 H2488 0.950 . S
C2498 C2499 1.386 . S
C2498 C2500 1.391 . S
C2499 C2498 1.386 . S
C2499 C2503 1.393 . S
C2500 H2489 0.950 . S
C2500 C2498 1.391 . S
C2500 C2501 1.400 . S
C2501 C2495 1.491 . S
C2501 C2500 1.400 . S
C2501 C2502 1.398 . S
C2502 H2490 0.950 . S
C2502 C2501 1.398 . S
C2502 C2503 1.391 . S
C2503 H2491 0.950 . S
C2503 C2499 1.393 . S
C2503 C2502 1.391 . S
H2504 C2512 0.950 . S
H2505 C2517 0.950 . S
H2506 C2514 0.950 . S
H2507 C2516 0.950 . S
H2508 C2518 0.950 . S
H2509 C2520 0.950 . S
H2510 C2522 0.950 . S
H2511 C2523 0.950 . S
C2512 H2504 0.950 . S
C2512 C2513 1.386 . S
C2512 C2514 1.391 . S
C2513 C2512 1.386 . S
C2513 C2517 1.393 . S
C2514 H2506 0.950 . S
C2514 C2512 1.391 . S
C2514 C2515 1.400 . S
C2515 C2514 1.400 . S
C2515 C2516 1.398 . S
C2515 C2521 1.491 . S
C2516 H2507 0.950 . S
C2516 C2515 1.398 . S
C2516 C2517 1.391 . S
C2517 H2505 0.950 . S
C2517 C2513 1.393 . S
C2517 C2516 1.391 . S
C2518 H2508 0.950 . S
C2518 C2519 1.386 . S
C2518 C2520 1.391 . S
C2519 C2518 1.386 . S
C2519 C2523 1.393 . S
C2520 H2509 0.950 . S
C2520 C2518 1.391 . S
C2520 C2521 1.400 . S
C2521 C2515 1.491 . S
C2521 C2520 1.400 . S
C2521 C2522 1.398 . S
C2522 H2510 0.950 . S
C2522 C2521 1.398 . S
C2522 C2523 1.391 . S
C2523 H2511 0.950 . S
C2523 C2519 1.393 . S
C2523 C2522 1.391 . S
H2524 C2532 0.950 . S
H2525 C2537 0.950 . S
H2526 C2534 0.950 . S
H2527 C2536 0.950 . S
H2528 C2538 0.950 . S
H2529 C2540 0.950 . S
H2530 C2542 0.950 . S
H2531 C2543 0.950 . S
C2532 H2524 0.950 . S
C2532 C2533 1.386 . S
C2532 C2534 1.391 . S
C2533 C2532 1.386 . S
C2533 C2537 1.393 . S
C2534 H2526 0.950 . S
C2534 C2532 1.391 . S
C2534 C2535 1.400 . S
C2535 C2534 1.400 . S
C2535 C2536 1.398 . S
C2535 C2541 1.491 . S
C2536 H2527 0.950 . S
C2536 C2535 1.398 . S
C2536 C2537 1.391 . S
C2537 H2525 0.950 . S
C2537 C2533 1.393 . S
C2537 C2536 1.391 . S
C2538 H2528 0.950 . S
C2538 C2539 1.386 . S
C2538 C2540 1.391 . S
C2539 C2538 1.386 . S
C2539 C2543 1.393 . S
C2540 H2529 0.950 . S
C2540 C2538 1.391 . S
C2540 C2541 1.400 . S
C2541 C2535 1.491 . S
C2541 C2540 1.400 . S
C2541 C2542 1.398 . S
C2542 H2530 0.950 . S
C2542 C2541 1.398 . S
C2542 C2543 1.391 . S
C2543 H2531 0.950 . S
C2543 C2539 1.393 . S
C2543 C2542 1.391 . S
C633 C40 1.497 . S
C639 C3 1.491 . S
C653 C5 1.459 . S
C659 C23 1.461 . S
C673 C27 1.494 . S
C679 C16 1.508 . S
C693 C36 1.505 . S
C699 C44 1.496 . S
C713 C53 1.486 . S
C719 C68 1.496 . S
C733 C88 1.504 . S
C739 C70 1.512 . S
C753 C81 1.493 . S
C759 C92 1.511 . S
C773 C57 1.490 . S
C779 C101 1.487 . S
C793 C109 1.435 . S
C799 C244 1.442 . S
C813 C257 1.510 . S
C819 C122 1.498 . S
C833 C270 1.515 . S
C839 C135 1.510 . S
C853 C224 1.424 . S
C859 C148 1.423 . S
C873 C287 1.559 . S
C879 C166 1.560 . S
C893 C179 1.470 . S
C899 C213 1.457 . S
C913 C304 1.494 . S
C919 C192 1.504 . S
C933 C205 1.533 . S
C939 C278 1.530 . S
C953 C211 1.479 . S
C959 C118 1.465 . S
C973 C231 1.538 . S
C979 C196 1.535 . S
C993 C157 1.522 . S
C999 C237 1.517 . S
C1013 C172 1.514 . S
C1019 C248 1.498 . S
C1033 C185 1.510 . S
C1039 C261 1.517 . S
C1053 C146 1.461 . S
C1059 C274 1.475 . S
C1073 C107 1.442 . S
C1079 C291 1.440 . S
C1093 C302 1.481 . S
C1099 C131 1.498 . S
C1113 C352 1.478 . S
C1119 C315 1.469 . S
C1133 C317 1.448 . S
C1139 C335 1.464 . S
C1153 C339 1.507 . S
C1159 C328 1.504 . S
C1173 C348 1.518 . S
C1179 C356 1.510 . S
C1193 C380 1.473 . S
C1199 C365 1.487 . S
C1213 C382 1.486 . S
C1219 C400 1.504 . S
C1233 C404 1.528 . S
C1239 C393 1.528 . S
C1253 C369 1.492 . S
C1259 C413 1.501 . S
C1273 C556 1.456 . S
C1279 C421 1.449 . S
C1293 C434 1.443 . S
C1299 C569 1.454 . S
C1313 C575 1.474 . S
C1319 C443 1.467 . S
C1333 C460 1.446 . S
C1339 C536 1.447 . S
C1353 C478 1.523 . S
C1359 C603 1.507 . S
C1373 C521 1.504 . S
C1379 C491 1.502 . S
C1393 C612 1.551 . S
C1399 C504 1.551 . S
C1413 C586 1.565 . S
C1419 C517 1.564 . S
C1433 C430 1.501 . S
C1439 C530 1.502 . S
C1453 C508 1.550 . S
C1459 C543 1.552 . S
C1473 C549 1.488 . S
C1479 C469 1.506 . S
C1493 C560 1.475 . S
C1499 C484 1.459 . S
C1513 C497 1.452 . S
C1519 C577 1.451 . S
C1533 C590 1.438 . S
C1539 C458 1.436 . S
C1553 C599 1.473 . S
C1559 C419 1.476 . S
C1573 C621 1.526 . S
C1579 C447 1.510 . S
C1593 C1 1.512 . S
C1599 C582 1.513 . S
C1613 C18 1.451 . S
C1619 C538 1.450 . S
C1633 C29 1.475 . S
C1639 C547 1.486 . S
C1653 C49 1.480 . S
C1659 C562 1.482 . S
C1673 C55 1.454 . S
C1679 C616 1.468 . S
C1693 C75 1.530 . S
C1699 C595 1.530 . S
C1713 C79 1.485 . S
C1719 C601 1.491 . S
C1733 C525 1.465 . S
C1739 C96 1.459 . S
C1753 C114 1.500 . S
C1759 C512 1.489 . S
C1773 C473 1.458 . S
C1779 C127 1.454 . S
C1793 C140 1.504 . S
C1799 C486 1.494 . S
C1813 C153 1.482 . S
C1819 C499 1.487 . S
C1833 C161 1.505 . S
C1839 C439 1.496 . S
C1853 C174 1.503 . S
C1859 C445 1.493 . S
C1873 C465 1.517 . S
C1879 C187 1.517 . S
C1893 C200 1.487 . S
C1899 C426 1.490 . S
C1913 C209 1.494 . S
C1919 C408 1.491 . S
C1933 C226 1.464 . S
C1939 C330 1.468 . S
C1953 C235 1.477 . S
C1959 C341 1.472 . S
C1973 C250 1.481 . S
C1979 C361 1.496 . S
C1993 C313 1.496 . S
C1999 C263 1.497 . S
C2013 C276 1.479 . S
C2019 C387 1.482 . S
C2033 C391 1.512 . S
C2039 C296 1.518 . S
C2053 C367 1.491 . S
C2059 C300 1.501 . S
C2073 C417 1.500 . S
C2079 C94 1.500 . S
C2093 C62 1.500 . S
C2099 C432 1.494 . S
C2113 C452 1.499 . S
C2119 C66 1.503 . S
C2133 C456 1.498 . S
C2139 C83 1.487 . S
C2153 C471 1.500 . S
C2159 C14 1.499 . S
C2173 C31 1.503 . S
C2179 C482 1.513 . S
C2193 C495 1.495 . S
C2199 C42 1.485 . S
C2213 C510 1.495 . S
C2219 C10 1.496 . S
C2233 C523 1.458 . S
C2239 C265 1.448 . S
C2253 C222 1.495 . S
C2259 C614 1.500 . S
C2273 C239 1.477 . S
C2279 C588 1.474 . S
C2293 C608 1.500 . S
C2299 C252 1.488 . S
C2313 C534 1.510 . S
C2319 C309 1.503 . S
C2333 C551 1.498 . S
C2339 C283 1.494 . S
C2353 C289 1.461 . S
C2359 C564 1.453 . S
C2373 C573 1.534 . S
C2379 C218 1.539 . S
C2393 C322 1.500 . S
C2399 C198 1.494 . S
C2413 C374 1.517 . S
C2419 C120 1.510 . S
C2433 C378 1.494 . S
C2439 C133 1.486 . S
C2453 C144 1.520 . S
C2459 C395 1.513 . S
C2473 C105 1.493 . S
C2479 C406 1.486 . S
C2493 C343 1.461 . S
C2499 C170 1.471 . S
C2513 C183 1.485 . S
C2519 C354 1.475 . S
C2533 C326 1.492 . S
C2539 C159 1.494 . S
