# Generated by pormake.
# Topology snw, (6)-cn, num edge types: 1
# Building blocks:
#     Node 0, Type 0, BuildingBlock: OJICUG_clean_sbu_0, # of connection points: 6
#     Node 1, Type 0, BuildingBlock: OJICUG_clean_sbu_0, # of connection points: 6
#     Node 2, Type 0, BuildingBlock: OJICUG_clean_sbu_0, # of connection points: 6
#     Node 3, Type 0, BuildingBlock: OJICUG_clean_sbu_0, # of connection points: 6
#     Node 4, Type 0, BuildingBlock: OJICUG_clean_sbu_0, # of connection points: 6
#     Node 5, Type 0, BuildingBlock: OJICUG_clean_sbu_0, # of connection points: 6
#     Node 6, Type 0, BuildingBlock: OJICUG_clean_sbu_0, # of connection points: 6
#     Node 7, Type 0, BuildingBlock: OJICUG_clean_sbu_0, # of connection points: 6
#     Edge 8, Type (0, 0), BuildingBlock: AJUNOK_clean_linker_0, # of connection points: 2
#     Edge 9, Type (0, 0), BuildingBlock: AJUNOK_clean_linker_0, # of connection points: 2
#     Edge 10, Type (0, 0), BuildingBlock: AJUNOK_clean_linker_0, # of connection points: 2
#     Edge 11, Type (0, 0), BuildingBlock: AJUNOK_clean_linker_0, # of connection points: 2
#     Edge 12, Type (0, 0), BuildingBlock: AJUNOK_clean_linker_0, # of connection points: 2
#     Edge 13, Type (0, 0), BuildingBlock: AJUNOK_clean_linker_0, # of connection points: 2
#     Edge 14, Type (0, 0), BuildingBlock: AJUNOK_clean_linker_0, # of connection points: 2
#     Edge 15, Type (0, 0), BuildingBlock: AJUNOK_clean_linker_0, # of connection points: 2
#     Edge 16, Type (0, 0), BuildingBlock: AJUNOK_clean_linker_0, # of connection points: 2
#     Edge 17, Type (0, 0), BuildingBlock: AJUNOK_clean_linker_0, # of connection points: 2
#     Edge 18, Type (0, 0), BuildingBlock: AJUNOK_clean_linker_0, # of connection points: 2
#     Edge 19, Type (0, 0), BuildingBlock: AJUNOK_clean_linker_0, # of connection points: 2
#     Edge 20, Type (0, 0), BuildingBlock: AJUNOK_clean_linker_0, # of connection points: 2
#     Edge 21, Type (0, 0), BuildingBlock: AJUNOK_clean_linker_0, # of connection points: 2
#     Edge 22, Type (0, 0), BuildingBlock: AJUNOK_clean_linker_0, # of connection points: 2
#     Edge 23, Type (0, 0), BuildingBlock: AJUNOK_clean_linker_0, # of connection points: 2
#     Edge 24, Type (0, 0), BuildingBlock: AJUNOK_clean_linker_0, # of connection points: 2
#     Edge 25, Type (0, 0), BuildingBlock: AJUNOK_clean_linker_0, # of connection points: 2
#     Edge 26, Type (0, 0), BuildingBlock: AJUNOK_clean_linker_0, # of connection points: 2
#     Edge 27, Type (0, 0), BuildingBlock: AJUNOK_clean_linker_0, # of connection points: 2
#     Edge 28, Type (0, 0), BuildingBlock: AJUNOK_clean_linker_0, # of connection points: 2
#     Edge 29, Type (0, 0), BuildingBlock: AJUNOK_clean_linker_0, # of connection points: 2
#     Edge 30, Type (0, 0), BuildingBlock: AJUNOK_clean_linker_0, # of connection points: 2
#     Edge 31, Type (0, 0), BuildingBlock: AJUNOK_clean_linker_0, # of connection points: 2
# Relax obj value: 0.000
# Max RMSD: 0.008
# Mean RMSD: 0.008
data_MOF--net-snw--node1-OJICUG_clean_sbu_0--edge1-AJUNOK_clean_linker_0
_symmetry_space_group_name_H-M    P1
_symmetry_Int_Tables_number       1
_symmetry_cell_setting            triclinic
loop_
_symmetry_equiv_pos_as_xyz
'x, y, z'
_cell_length_a     16.594984
_cell_length_b     16.592487
_cell_length_c     56.732179
_cell_angle_alpha  90.076452
_cell_angle_beta   90.051017
_cell_angle_gamma 90.006902
loop_
_atom_site_label
_atom_site_type_symbol
_atom_site_fract_x
_atom_site_fract_y
_atom_site_fract_z
_atom_type_partial_charge
Sc0 Sc 0.09685 0.24541 0.05862 0.0
Sc1 Sc 0.88447 0.23935 0.0583 0.0
Sc2 Sc 0.99014 0.24213 0.11223 0.0
O3 O 0.99046 0.2423 0.07638 0.0
C4 C 0.13895 0.12549 0.10092 0.0
C5 C -0.00551 0.12251 0.02725 0.0
C6 C 0.84861 0.11756 0.1006 0.0
C7 C 0.98781 0.36292 0.02755 0.0
C8 C 0.13181 0.36687 0.10115 0.0
C9 C 0.84117 0.35836 0.10076 0.0
O10 O 0.15024 0.1527 0.08023 0.0
O11 O 0.92623 0.14704 0.03447 0.0
O12 O 0.90296 0.14601 0.11405 0.0
O13 O 0.05576 0.33806 0.03493 0.0
O14 O 0.07726 0.3384 0.11449 0.0
O15 O 0.8303 0.3317 0.07996 0.0
O16 O 0.14554 0.33905 0.08066 0.0
O17 O 0.92157 0.33277 0.03445 0.0
O18 O 0.89628 0.33175 0.11426 0.0
O19 O 0.06041 0.15255 0.03448 0.0
O20 O 0.08381 0.15221 0.11438 0.0
O21 O 0.83524 0.1453 0.08008 0.0
Sc22 Sc 0.98838 0.85055 0.30853 0.0
Sc23 Sc 0.99333 0.63819 0.30854 0.0
Sc24 Sc 0.99034 0.74459 0.36232 0.0
O25 O 0.99067 0.74445 0.32647 0.0
C26 C 0.10997 0.89011 0.35083 0.0
C27 C 0.11196 0.74686 0.27782 0.0
C28 C 0.11187 0.59952 0.35138 0.0
C29 C 0.87149 0.74166 0.27718 0.0
C30 C 0.86865 0.88927 0.351 0.0
C31 C 0.87057 0.59924 0.35049 0.0
O32 O 0.08112 0.90307 0.33039 0.0
O33 O 0.08689 0.67876 0.28502 0.0
O34 O 0.08311 0.65374 0.3648 0.0
O35 O 0.89588 0.80981 0.2846 0.0
O36 O 0.89751 0.83545 0.36452 0.0
O37 O 0.89962 0.58616 0.33008 0.0
O38 O 0.89476 0.90075 0.33023 0.0
O39 O 0.90129 0.6756 0.28433 0.0
O40 O 0.89703 0.65455 0.36397 0.0
O41 O 0.08156 0.81302 0.28472 0.0
O42 O 0.08361 0.83467 0.36423 0.0
O43 O 0.08598 0.58782 0.33057 0.0
Sc44 Sc 0.5994 0.74192 0.5585 0.0
Sc45 Sc 0.38794 0.74915 0.55832 0.0
Sc46 Sc 0.49314 0.74814 0.61244 0.0
O47 O 0.49352 0.74638 0.57646 0.0
C48 C 0.63478 0.62284 0.60148 0.0
C49 C 0.48994 0.62408 0.52771 0.0
C50 C 0.34547 0.63046 0.60082 0.0
C51 C 0.49747 0.86488 0.52712 0.0
C52 C 0.64146 0.86428 0.6003 0.0
C53 C 0.35238 0.87259 0.60022 0.0
O54 O 0.64773 0.64911 0.5808 0.0
O55 O 0.42411 0.65513 0.53456 0.0
O56 O 0.39926 0.6577 0.61474 0.0
O57 O 0.56344 0.83438 0.53414 0.0
O58 O 0.58706 0.83866 0.61423 0.0
O59 O 0.33951 0.84382 0.57982 0.0
O60 O 0.65245 0.83506 0.57984 0.0
O61 O 0.42937 0.8407 0.53447 0.0
O62 O 0.4054 0.84426 0.61415 0.0
O63 O 0.55814 0.6485 0.53503 0.0
O64 O 0.58084 0.65233 0.61488 0.0
O65 O 0.33493 0.65766 0.58012 0.0
Sc66 Sc 0.49709 0.34736 0.80863 0.0
Sc67 Sc 0.4921 0.13519 0.80786 0.0
Sc68 Sc 0.49773 0.23909 0.86209 0.0
O69 O 0.49561 0.24056 0.82621 0.0
C70 C 0.61853 0.38449 0.85097 0.0
C71 C 0.61387 0.24019 0.77691 0.0
C72 C 0.61678 0.09427 0.84913 0.0
C73 C 0.3726 0.2446 0.77779 0.0
C74 C 0.37737 0.38519 0.85137 0.0
C75 C 0.37527 0.09487 0.85094 0.0
O76 O 0.59091 0.39726 0.83041 0.0
O77 O 0.58342 0.17384 0.78359 0.0
O78 O 0.59083 0.14813 0.86321 0.0
O79 O 0.40343 0.31057 0.78473 0.0
O80 O 0.40488 0.32985 0.86465 0.0
O81 O 0.40038 0.08379 0.83003 0.0
O82 O 0.4047 0.39825 0.83078 0.0
O83 O 0.39768 0.17631 0.78478 0.0
O84 O 0.40462 0.14861 0.86444 0.0
O85 O 0.58951 0.30798 0.78457 0.0
O86 O 0.59105 0.32944 0.8643 0.0
O87 O 0.58663 0.08263 0.8288 0.0
Sc88 Sc -0.00231 0.73927 0.8728 0.0
Sc89 Sc 0.1008 0.73887 0.92728 0.0
Sc90 Sc 0.88929 0.74473 0.92635 0.0
O91 O -0.00408 0.74099 0.90877 0.0
C92 C 0.85295 0.86198 0.88305 0.0
C93 C 0.14259 0.85932 0.88509 0.0
C94 C -0.00367 0.86358 0.95744 0.0
C95 C 0.14079 0.61731 0.88524 0.0
C96 C 0.85153 0.62054 0.88465 0.0
C97 C 0.9908 0.62227 0.95807 0.0
O98 O 0.90758 0.83287 0.86983 0.0
O99 O 0.1535 0.83137 0.9057 0.0
O100 O 0.92858 0.8391 0.9498 0.0
O101 O 0.08802 0.64539 0.87119 0.0
O102 O 0.83866 0.6505 0.90493 0.0
O103 O 0.05921 0.64631 0.95088 0.0
O104 O 0.90622 0.64651 0.87087 0.0
O105 O 0.15168 0.64516 0.90585 0.0
O106 O 0.92516 0.65313 0.95094 0.0
O107 O 0.08926 0.83189 0.87105 0.0
O108 O 0.84036 0.83653 0.90383 0.0
O109 O 0.06257 0.83226 0.95101 0.0
Sc110 Sc 0.4905 0.74204 0.12291 0.0
Sc111 Sc 0.49376 0.84878 0.17687 0.0
Sc112 Sc 0.48707 0.63747 0.17714 0.0
O113 O 0.49045 0.74277 0.15892 0.0
C114 C 0.36485 0.60177 0.13501 0.0
C115 C 0.37331 0.89005 0.13457 0.0
C116 C 0.37082 0.74755 0.20825 0.0
C117 C 0.61528 0.88344 0.1345 0.0
C118 C 0.60665 0.59354 0.13478 0.0
C119 C 0.61194 0.73996 0.2077 0.0
O120 O 0.39503 0.65341 0.12098 0.0
O121 O 0.40193 0.90149 0.15509 0.0
O122 O 0.39619 0.6794 0.20123 0.0
O123 O 0.58594 0.83056 0.12067 0.0
O124 O 0.57742 0.58285 0.15523 0.0
O125 O 0.58591 0.80791 0.20074 0.0
O126 O 0.58167 0.64861 0.12096 0.0
O127 O 0.58792 0.8962 0.15506 0.0
O128 O 0.58215 0.67365 0.20064 0.0
O129 O 0.39937 0.8354 0.12075 0.0
O130 O 0.39169 0.59003 0.15569 0.0
O131 O 0.40004 0.81352 0.20084 0.0
Sc132 Sc 0.49034 0.24463 0.37274 0.0
Sc133 Sc 0.59714 0.24802 0.42666 0.0
Sc134 Sc 0.38591 0.24171 0.427 0.0
O135 O 0.49112 0.2448 0.40874 0.0
C136 C 0.34502 0.36381 0.38509 0.0
C137 C 0.63369 0.36771 0.38408 0.0
C138 C 0.48896 0.36526 0.45791 0.0
C139 C 0.6361 0.12562 0.38459 0.0
C140 C 0.34725 0.12184 0.38448 0.0
C141 C 0.49566 0.12424 0.45772 0.0
O142 O 0.3991 0.33757 0.37112 0.0
O143 O 0.64537 0.34147 0.4048 0.0
O144 O 0.4229 0.33466 0.45102 0.0
O145 O 0.58144 0.15161 0.37079 0.0
O146 O 0.33638 0.14837 0.40523 0.0
O147 O 0.56138 0.15495 0.45069 0.0
O148 O 0.39963 0.15109 0.37054 0.0
O149 O 0.64878 0.15532 0.40492 0.0
O150 O 0.42733 0.1488 0.45056 0.0
O151 O 0.58098 0.33815 0.37025 0.0
O152 O 0.3333 0.33448 0.40549 0.0
O153 O 0.55691 0.34078 0.45048 0.0
Sc154 Sc 0.9931 0.24818 0.62292 0.0
Sc155 Sc 0.99209 0.35231 0.67716 0.0
Sc156 Sc -0.00306 0.14018 0.67639 0.0
O157 O -0.00592 0.2469 0.65881 0.0
C158 C 0.87677 0.0992 0.63386 0.0
C159 C 0.86916 0.38937 0.63528 0.0
C160 C 0.87418 0.24203 0.70776 0.0
C161 C 0.11083 0.39576 0.63463 0.0
C162 C 0.1179 0.106 0.63386 0.0
C163 C 0.11441 0.24823 0.70798 0.0
O164 O 0.90227 0.15541 0.62061 0.0
O165 O 0.89755 0.4016 0.65576 0.0
O166 O 0.90316 0.17606 0.70021 0.0
O167 O 0.08384 0.34097 0.62106 0.0
O168 O 0.09122 0.09268 0.65448 0.0
O169 O 0.08581 0.31483 0.70084 0.0
O170 O 0.08844 0.15995 0.62047 0.0
O171 O 0.0839 0.40662 0.65539 0.0
O172 O 0.08879 0.18052 0.70058 0.0
O173 O 0.89763 0.33662 0.62127 0.0
O174 O 0.90507 0.08688 0.65439 0.0
O175 O 0.90017 0.31033 0.70102 0.0
C176 C 0.05887 0.46375 0.00211 0.0
C177 C 0.98613 0.42922 0.00992 0.0
C178 C 0.05962 0.52559 0.98536 0.0
C179 C 0.98767 0.55597 0.97566 0.0
H180 H 0.11618 0.44297 0.00893 0.0
H181 H 0.11746 0.54982 0.98007 0.0
S182 S 0.78041 0.48596 0.98984 0.0
N183 N 0.83972 0.42995 0.00644 0.0
N184 N 0.84116 0.54589 0.97498 0.0
C185 C 0.91428 0.52193 0.98324 0.0
C186 C 0.9135 0.45881 0.00033 0.0
C187 C 0.70271 0.80996 0.23649 0.0
C188 C 0.67898 0.73836 0.22507 0.0
C189 C 0.76469 0.81035 0.25325 0.0
C190 C 0.80589 0.73918 0.25933 0.0
H191 H 0.67277 0.86647 0.23266 0.0
H192 H 0.77995 0.86712 0.26157 0.0
S193 S 0.7696 0.53574 0.23383 0.0
N194 N 0.70345 0.59443 0.22057 0.0
N195 N 0.81977 0.59506 0.252 0.0
C196 C 0.78337 0.6671 0.24787 0.0
C197 C 0.72012 0.66673 0.23079 0.0
C198 C 0.55966 0.52634 0.5009 0.0
C199 C 0.48737 0.55764 0.51011 0.0
C200 C 0.55942 0.46476 0.48402 0.0
C201 C 0.48684 0.43145 0.47559 0.0
H202 H 0.61738 0.54967 0.50666 0.0
H203 H 0.61697 0.44318 0.4776 0.0
S204 S 0.28029 0.49171 0.49395 0.0
N205 N 0.34067 0.55019 0.5095 0.0
N206 N 0.34017 0.43486 0.47777 0.0
C207 C 0.41387 0.46215 0.48462 0.0
C208 C 0.41411 0.52495 0.50185 0.0
C209 C 0.70801 0.3109 0.74927 0.0
C210 C 0.68032 0.23853 0.75936 0.0
C211 C 0.77022 0.31131 0.73261 0.0
C212 C 0.80771 0.23937 0.7253 0.0
H213 H 0.68129 0.36809 0.75416 0.0
H214 H 0.7888 0.36881 0.72541 0.0
S215 S 0.75877 0.03314 0.74656 0.0
N216 N 0.69613 0.09261 0.76094 0.0
N217 N 0.81272 0.09333 0.72969 0.0
C218 C 0.78073 0.16637 0.73526 0.0
C219 C 0.71729 0.16597 0.75225 0.0
C220 C 0.28471 0.17738 0.74772 0.0
C221 C 0.30571 0.24726 0.76041 0.0
C222 C 0.22314 0.1784 0.73083 0.0
C223 C 0.17977 0.24934 0.7259 0.0
H224 H 0.31664 0.12131 0.75061 0.0
H225 H 0.20998 0.12301 0.72146 0.0
S226 S 0.20781 0.4479 0.75526 0.0
N227 N 0.27589 0.38891 0.76754 0.0
N228 N 0.16038 0.39096 0.73584 0.0
C229 C 0.19948 0.3196 0.73867 0.0
C230 C 0.26226 0.31852 0.75589 0.0
C231 C 0.26587 0.67781 0.23253 0.0
C232 C 0.30489 0.74974 0.22596 0.0
C233 C 0.20418 0.67752 0.24934 0.0
C234 C 0.17856 0.74916 0.26033 0.0
H235 H 0.28274 0.62086 0.22459 0.0
H236 H 0.17607 0.62044 0.25357 0.0
S237 S 0.26202 0.95405 0.24987 0.0
N238 N 0.31385 0.89486 0.23209 0.0
N239 N 0.19825 0.8943 0.26368 0.0
C240 C 0.21718 0.82169 0.25401 0.0
C241 C 0.28009 0.822 0.23685 0.0
C242 C 0.42638 0.02485 0.48399 0.0
C243 C 0.49857 0.05772 0.47523 0.0
C244 C 0.42685 0.96302 0.50072 0.0
C245 C 0.49956 0.93096 0.50946 0.0
H246 H 0.36855 0.04706 0.47797 0.0
H247 H 0.36933 0.94027 0.5068 0.0
S248 S 0.70592 -0.00466 0.49225 0.0
N249 N 0.64536 0.053 0.47655 0.0
N250 N 0.6462 0.93705 0.50801 0.0
C251 C 0.57243 0.96308 0.50084 0.0
C252 C 0.57198 0.02621 0.48376 0.0
C253 C 0.92516 0.0201 0.00178 0.0
C254 C -0.00282 0.05671 0.00942 0.0
C255 C 0.92555 0.95843 0.98492 0.0
C256 C -0.00202 0.93039 0.97493 0.0
H257 H 0.8676 0.03893 0.00889 0.0
H258 H 0.86832 0.93223 0.97984 0.0
S259 S 0.20355 0.0071 0.98836 0.0
N260 N 0.14334 0.06089 0.00531 0.0
N261 N 0.14399 0.94535 0.97364 0.0
C262 C 0.07059 0.96675 0.98227 0.0
C263 C 0.07021 0.02965 -0.00053 0.0
C264 C 0.30081 0.96259 0.10211 0.0
C265 C 0.30885 0.94522 0.12625 0.0
C266 C 0.24499 0.0199 0.09409 0.0
C267 C 0.19413 0.06155 0.10985 0.0
H268 H 0.33962 0.93353 0.08932 0.0
H269 H 0.24242 0.03212 0.07536 0.0
S270 S 0.18672 0.03255 0.17481 0.0
N271 N 0.25797 0.97044 0.16578 0.0
N272 N 0.15297 0.07755 0.15083 0.0
C273 C 0.19959 0.04238 0.13401 0.0
C274 C 0.25695 0.98454 0.14217 0.0
C275 C 0.21429 -0.00284 0.34397 0.0
C276 C 0.17538 0.9438 0.3596 0.0
C277 C 0.27228 0.0523 0.35197 0.0
C278 C 0.29311 0.05698 0.37596 0.0
H279 H 0.1991 -0.00262 0.3254 0.0
H280 H 0.29879 0.0935 0.33937 0.0
S281 S 0.21528 0.92638 0.42391 0.0
N282 N 0.16667 0.8959 0.40013 0.0
N283 N 0.27512 -0.00029 0.41504 0.0
C284 C 0.25713 0.00214 0.39166 0.0
C285 C 0.19855 0.94553 0.38352 0.0
C286 C 0.22562 0.00283 0.64068 0.0
C287 C 0.18373 0.05344 0.62492 0.0
C288 C 0.28264 0.94698 0.63266 0.0
C289 C 0.29962 0.9388 0.60851 0.0
H290 H 0.21321 0.00501 0.65942 0.0
H291 H 0.31125 0.90779 0.64543 0.0
S292 S 0.2138 0.06224 0.56006 0.0
N293 N 0.16857 0.09579 0.58404 0.0
N294 N 0.27549 0.99054 0.56903 0.0
C295 C 0.26111 0.99133 0.59262 0.0
C296 C 0.2034 0.04874 0.6008 0.0
C297 C 0.21275 0.93317 0.85258 0.0
C298 C 0.19692 0.92439 0.87679 0.0
C299 C 0.26905 0.98956 0.84442 0.0
C300 C 0.31136 0.04026 0.86009 0.0
H301 H 0.1833 0.89446 0.83982 0.0
H302 H 0.28018 0.99246 0.82563 0.0
S303 S 0.28588 0.04648 0.92517 0.0
N304 N 0.22385 0.97483 0.9163 0.0
N305 N 0.32929 0.081 0.90105 0.0
C306 C 0.29355 0.03434 0.88432 0.0
C307 C 0.23662 0.97637 0.89264 0.0
C308 C 0.75135 0.97136 0.88955 0.0
C309 C 0.79885 0.92602 0.87379 0.0
C310 C 0.69472 0.02744 0.88143 0.0
C311 C 0.6824 0.04004 0.85718 0.0
H312 H 0.75697 0.96275 0.9084 0.0
H313 H 0.65854 0.05926 0.89432 0.0
S314 S 0.79529 0.94183 0.80847 0.0
N315 N 0.83288 0.90135 0.83266 0.0
N316 N 0.72621 0.00652 0.81743 0.0
C317 C 0.7313 -0.00274 0.84119 0.0
C318 C 0.78959 0.94052 0.84947 0.0
C319 C 0.77076 -0.00621 0.64069 0.0
C320 C 0.81298 0.0439 0.62489 0.0
C321 C 0.71357 0.9378 0.63268 0.0
C322 C 0.69689 0.92877 0.60851 0.0
H323 H 0.7824 -0.00283 0.65946 0.0
H324 H 0.68399 0.89967 0.64552 0.0
S325 S 0.78647 0.04833 0.55982 0.0
N326 N 0.83069 0.08308 0.58384 0.0
N327 N 0.72374 0.97771 0.56888 0.0
C328 C 0.73694 0.97981 0.59254 0.0
C329 C 0.79467 0.03739 0.60069 0.0
C330 C 0.76228 -0.00594 0.34419 0.0
C331 C 0.80428 0.94366 0.35999 0.0
C332 C 0.70594 0.0507 0.35221 0.0
C333 C 0.68986 0.06 0.37638 0.0
H334 H 0.7738 0.99081 0.32542 0.0
H335 H 0.67682 0.08931 0.33939 0.0
S336 S 0.77733 0.93856 0.42502 0.0
N337 N 0.82119 0.9035 0.401 0.0
N338 N 0.7157 0.01021 0.41598 0.0
C339 C 0.72901 0.00819 0.39234 0.0
C340 C 0.78593 0.94995 0.38418 0.0
C341 C 0.68733 0.9547 0.1019 0.0
C342 C 0.68122 0.93605 0.12599 0.0
C343 C 0.74311 0.01173 0.09381 0.0
C344 C 0.79571 0.05184 0.10945 0.0
H345 H 0.6466 0.92743 0.08926 0.0
H346 H 0.74372 0.02552 0.07516 0.0
S347 S 0.80997 0.01701 0.17406 0.0
N348 N 0.73676 0.9568 0.16521 0.0
N349 N 0.84186 0.06354 0.15012 0.0
C350 C 0.7929 0.0305 0.13349 0.0
C351 C 0.73559 0.97287 0.14172 0.0
C352 C 0.79449 0.45873 0.60283 0.0
C353 C 0.80306 0.44232 0.62699 0.0
C354 C 0.73836 0.5154 0.59476 0.0
C355 C 0.68783 0.55751 0.6105 0.0
H356 H 0.83349 0.42985 0.59005 0.0
H357 H 0.73585 0.52729 0.576 0.0
S358 S 0.68026 0.52929 0.67545 0.0
N359 N 0.75193 0.46749 0.6665 0.0
N360 N 0.64621 0.57376 0.65141 0.0
C361 C 0.69304 0.53856 0.63466 0.0
C362 C 0.75073 0.48121 0.64288 0.0
C363 C 0.78163 0.5456 0.85223 0.0
C364 C 0.79776 0.55489 0.87641 0.0
C365 C 0.72512 0.48908 0.84418 0.0
C366 C 0.68305 0.43877 0.85996 0.0
H367 H 0.81083 0.58416 0.83942 0.0
H368 H 0.71355 0.48582 0.82541 0.0
S369 S 0.70967 0.43392 0.92501 0.0
N370 N 0.7716 0.50532 0.916 0.0
N371 N 0.66583 0.39886 0.90096 0.0
C372 C 0.70137 0.44508 0.88415 0.0
C373 C 0.75843 0.50321 0.89235 0.0
C374 C 0.68493 0.52656 0.1023 0.0
C375 C 0.6706 0.53724 0.12656 0.0
C376 C 0.74074 0.46941 0.09412 0.0
C377 C 0.78539 0.42129 0.10987 0.0
H378 H 0.65131 0.56112 0.08943 0.0
H379 H 0.74857 0.46267 0.07527 0.0
S380 S 0.77356 0.42823 0.17523 0.0
N381 N 0.70823 0.49668 0.16632 0.0
N382 N 0.8128 0.38984 0.15099 0.0
C383 C 0.77324 0.43289 0.13421 0.0
C384 C 0.71599 0.49056 0.14252 0.0
C385 C 0.76732 0.49099 0.3436 0.0
C386 C 0.80491 0.54575 0.35915 0.0
C387 C 0.70936 0.43589 0.35157 0.0
C388 C 0.68729 0.43267 0.37546 0.0
H389 H 0.78363 0.48955 0.32512 0.0
H390 H 0.68396 0.39351 0.33906 0.0
S391 S 0.76091 0.56738 0.42313 0.0
N392 N 0.81064 0.59667 0.39947 0.0
N393 N 0.70237 0.4928 0.41431 0.0
C394 C 0.7218 0.48893 0.39106 0.0
C395 C 0.7803 0.54553 0.38295 0.0
C396 C 0.27522 0.4388 0.35273 0.0
C397 C 0.29073 0.4291 0.37692 0.0
C398 C 0.21878 0.49525 0.34468 0.0
C399 C 0.17604 0.54509 0.36046 0.0
H400 H 0.30498 0.40072 0.33988 0.0
H401 H 0.20786 0.49886 0.32588 0.0
S402 S 0.20061 0.54875 0.4256 0.0
N403 N 0.26309 0.47777 0.41658 0.0
N404 N 0.15736 0.58409 0.40152 0.0
C405 C 0.19357 0.53832 0.38469 0.0
C406 C 0.25063 0.48026 0.39289 0.0
C407 C 0.2374 0.47237 0.09441 0.0
C408 C 0.18446 0.43287 0.11003 0.0
C409 C 0.29311 0.52956 0.10248 0.0
C410 C 0.2988 0.54909 0.12653 0.0
H411 H 0.23719 0.45794 0.07579 0.0
H412 H 0.33413 0.55624 0.08986 0.0
S413 S 0.16872 0.47038 0.17449 0.0
N414 N 0.13728 0.42292 0.1506 0.0
N415 N 0.24231 0.53005 0.16568 0.0
C416 C 0.244 0.51301 0.14223 0.0
C417 C 0.18673 0.45516 0.13401 0.0
C418 C 0.21276 0.5448 0.85275 0.0
C419 C 0.19531 0.5524 0.8769 0.0
C420 C 0.27037 0.48951 0.84467 0.0
C421 C 0.31237 0.43881 0.86038 0.0
H422 H 0.18375 0.58377 0.84 0.0
H423 H 0.28275 0.48745 0.82593 0.0
S424 S 0.28266 0.42955 0.92526 0.0
N425 N 0.22024 0.50068 0.91634 0.0
N426 N 0.32812 0.3966 0.90125 0.0
C427 C 0.29281 0.44341 0.88452 0.0
C428 C 0.23456 0.50024 0.89274 0.0
C429 C 0.21444 0.50391 0.64136 0.0
C430 C 0.17464 0.4511 0.62571 0.0
C431 C 0.27148 0.55988 0.63331 0.0
C432 C 0.29044 0.56612 0.60923 0.0
H433 H 0.20092 0.50281 0.66004 0.0
H434 H 0.29909 0.6002 0.646 0.0
S435 S 0.20878 0.43837 0.56101 0.0
N436 N 0.16245 0.40606 0.58493 0.0
N437 N 0.26902 0.51143 0.56993 0.0
C438 C 0.25309 0.51229 0.59344 0.0
C439 C 0.19552 0.45478 0.60163 0.0
loop_
_geom_bond_atom_site_label_1
_geom_bond_atom_site_label_2
_geom_bond_distance
_geom_bond_site_symmetry_2
_ccdc_geom_bond_type
Sc0 O3 2.025 . S
Sc0 O10 2.105 . S
Sc0 O13 2.105 . S
Sc0 O16 2.105 . S
Sc0 O19 2.105 . S
Sc1 O3 2.025 1_655 S
Sc1 O11 2.105 . S
Sc1 O15 2.105 . S
Sc1 O17 2.105 . S
Sc1 O21 2.105 . S
Sc2 O3 2.025 . S
Sc2 O12 2.105 1_455 S
Sc2 O14 2.105 . S
Sc2 O18 2.105 1_455 S
Sc2 O20 2.105 . S
O3 Sc0 2.025 . S
O3 Sc1 2.025 1_455 S
O3 Sc2 2.025 . S
C4 O10 1.268 . S
C4 O20 1.268 . S
C5 O11 1.268 1_455 S
C5 O19 1.268 . S
C6 O12 1.268 . S
C6 O21 1.268 . S
C7 O13 1.268 . S
C7 O17 1.268 1_455 S
C8 O14 1.268 . S
C8 O16 1.268 . S
C9 O15 1.268 . S
C9 O18 1.268 . S
O10 Sc0 2.105 . S
O10 C4 1.268 . S
O11 Sc1 2.105 . S
O11 C5 1.268 1_655 S
O12 Sc2 2.105 1_655 S
O12 C6 1.268 . S
O13 Sc0 2.105 . S
O13 C7 1.268 . S
O14 Sc2 2.105 . S
O14 C8 1.268 . S
O15 Sc1 2.105 . S
O15 C9 1.268 . S
O16 Sc0 2.105 . S
O16 C8 1.268 . S
O17 Sc1 2.105 . S
O17 C7 1.268 1_655 S
O18 Sc2 2.105 1_655 S
O18 C9 1.268 . S
O19 Sc0 2.105 . S
O19 C5 1.268 . S
O20 Sc2 2.105 . S
O20 C4 1.268 . S
O21 Sc1 2.105 . S
O21 C6 1.268 . S
Sc22 O25 2.025 . S
Sc22 O32 2.105 . S
Sc22 O35 2.105 1_455 S
Sc22 O38 2.105 1_455 S
Sc22 O41 2.105 . S
Sc23 O25 2.025 . S
Sc23 O33 2.105 . S
Sc23 O37 2.105 1_455 S
Sc23 O39 2.105 1_455 S
Sc23 O43 2.105 . S
Sc24 O25 2.025 . S
Sc24 O34 2.105 . S
Sc24 O36 2.105 1_455 S
Sc24 O40 2.105 1_455 S
Sc24 O42 2.105 . S
O25 Sc22 2.025 . S
O25 Sc23 2.025 . S
O25 Sc24 2.025 . S
C26 O32 1.268 . S
C26 O42 1.268 . S
C27 O33 1.268 . S
C27 O41 1.268 . S
C28 O34 1.268 . S
C28 O43 1.268 . S
C29 O35 1.268 . S
C29 O39 1.268 . S
C30 O36 1.268 . S
C30 O38 1.268 . S
C31 O37 1.268 . S
C31 O40 1.268 . S
O32 Sc22 2.105 . S
O32 C26 1.268 . S
O33 Sc23 2.105 . S
O33 C27 1.268 . S
O34 Sc24 2.105 . S
O34 C28 1.268 . S
O35 Sc22 2.105 1_655 S
O35 C29 1.268 . S
O36 Sc24 2.105 1_655 S
O36 C30 1.268 . S
O37 Sc23 2.105 1_655 S
O37 C31 1.268 . S
O38 Sc22 2.105 1_655 S
O38 C30 1.268 . S
O39 Sc23 2.105 1_655 S
O39 C29 1.268 . S
O40 Sc24 2.105 1_655 S
O40 C31 1.268 . S
O41 Sc22 2.105 . S
O41 C27 1.268 . S
O42 Sc24 2.105 . S
O42 C26 1.268 . S
O43 Sc23 2.105 . S
O43 C28 1.268 . S
Sc44 O47 2.025 . S
Sc44 O54 2.105 . S
Sc44 O57 2.105 . S
Sc44 O60 2.105 . S
Sc44 O63 2.105 . S
Sc45 O47 2.025 . S
Sc45 O55 2.105 . S
Sc45 O59 2.105 . S
Sc45 O61 2.105 . S
Sc45 O65 2.105 . S
Sc46 O47 2.025 . S
Sc46 O56 2.105 . S
Sc46 O58 2.105 . S
Sc46 O62 2.105 . S
Sc46 O64 2.105 . S
O47 Sc44 2.025 . S
O47 Sc45 2.025 . S
O47 Sc46 2.025 . S
C48 O54 1.268 . S
C48 O64 1.268 . S
C49 O55 1.268 . S
C49 O63 1.268 . S
C50 O56 1.268 . S
C50 O65 1.268 . S
C51 O57 1.268 . S
C51 O61 1.268 . S
C52 O58 1.268 . S
C52 O60 1.268 . S
C53 O59 1.268 . S
C53 O62 1.268 . S
O54 Sc44 2.105 . S
O54 C48 1.268 . S
O55 Sc45 2.105 . S
O55 C49 1.268 . S
O56 Sc46 2.105 . S
O56 C50 1.268 . S
O57 Sc44 2.105 . S
O57 C51 1.268 . S
O58 Sc46 2.105 . S
O58 C52 1.268 . S
O59 Sc45 2.105 . S
O59 C53 1.268 . S
O60 Sc44 2.105 . S
O60 C52 1.268 . S
O61 Sc45 2.105 . S
O61 C51 1.268 . S
O62 Sc46 2.105 . S
O62 C53 1.268 . S
O63 Sc44 2.105 . S
O63 C49 1.268 . S
O64 Sc46 2.105 . S
O64 C48 1.268 . S
O65 Sc45 2.105 . S
O65 C50 1.268 . S
Sc66 O69 2.025 . S
Sc66 O76 2.105 . S
Sc66 O79 2.105 . S
Sc66 O82 2.105 . S
Sc66 O85 2.105 . S
Sc67 O69 2.025 . S
Sc67 O77 2.105 . S
Sc67 O81 2.105 . S
Sc67 O83 2.105 . S
Sc67 O87 2.105 . S
Sc68 O69 2.025 . S
Sc68 O78 2.105 . S
Sc68 O80 2.105 . S
Sc68 O84 2.105 . S
Sc68 O86 2.105 . S
O69 Sc66 2.025 . S
O69 Sc67 2.025 . S
O69 Sc68 2.025 . S
C70 O76 1.268 . S
C70 O86 1.268 . S
C71 O77 1.268 . S
C71 O85 1.268 . S
C72 O78 1.268 . S
C72 O87 1.268 . S
C73 O79 1.268 . S
C73 O83 1.268 . S
C74 O80 1.268 . S
C74 O82 1.268 . S
C75 O81 1.268 . S
C75 O84 1.268 . S
O76 Sc66 2.105 . S
O76 C70 1.268 . S
O77 Sc67 2.105 . S
O77 C71 1.268 . S
O78 Sc68 2.105 . S
O78 C72 1.268 . S
O79 Sc66 2.105 . S
O79 C73 1.268 . S
O80 Sc68 2.105 . S
O80 C74 1.268 . S
O81 Sc67 2.105 . S
O81 C75 1.268 . S
O82 Sc66 2.105 . S
O82 C74 1.268 . S
O83 Sc67 2.105 . S
O83 C73 1.268 . S
O84 Sc68 2.105 . S
O84 C75 1.268 . S
O85 Sc66 2.105 . S
O85 C71 1.268 . S
O86 Sc68 2.105 . S
O86 C70 1.268 . S
O87 Sc67 2.105 . S
O87 C72 1.268 . S
Sc88 O91 2.025 . S
Sc88 O98 2.105 1_455 S
Sc88 O101 2.105 . S
Sc88 O104 2.105 1_455 S
Sc88 O107 2.105 . S
Sc89 O91 2.025 . S
Sc89 O99 2.105 . S
Sc89 O103 2.105 . S
Sc89 O105 2.105 . S
Sc89 O109 2.105 . S
Sc90 O91 2.025 1_655 S
Sc90 O100 2.105 . S
Sc90 O102 2.105 . S
Sc90 O106 2.105 . S
Sc90 O108 2.105 . S
O91 Sc88 2.025 . S
O91 Sc89 2.025 . S
O91 Sc90 2.025 1_455 S
C92 O98 1.268 . S
C92 O108 1.268 . S
C93 O99 1.268 . S
C93 O107 1.268 . S
C94 O100 1.268 1_455 S
C94 O109 1.268 . S
C95 O101 1.268 . S
C95 O105 1.268 . S
C96 O102 1.268 . S
C96 O104 1.268 . S
C97 O103 1.268 . S
C97 O106 1.268 1_455 S
O98 Sc88 2.105 1_655 S
O98 C92 1.268 . S
O99 Sc89 2.105 . S
O99 C93 1.268 . S
O100 Sc90 2.105 . S
O100 C94 1.268 1_655 S
O101 Sc88 2.105 . S
O101 C95 1.268 . S
O102 Sc90 2.105 . S
O102 C96 1.268 . S
O103 Sc89 2.105 . S
O103 C97 1.268 . S
O104 Sc88 2.105 1_655 S
O104 C96 1.268 . S
O105 Sc89 2.105 . S
O105 C95 1.268 . S
O106 Sc90 2.105 . S
O106 C97 1.268 1_655 S
O107 Sc88 2.105 . S
O107 C93 1.268 . S
O108 Sc90 2.105 . S
O108 C92 1.268 . S
O109 Sc89 2.105 . S
O109 C94 1.268 . S
Sc110 O113 2.025 . S
Sc110 O120 2.105 . S
Sc110 O123 2.105 . S
Sc110 O126 2.105 . S
Sc110 O129 2.105 . S
Sc111 O113 2.025 . S
Sc111 O121 2.105 . S
Sc111 O125 2.105 . S
Sc111 O127 2.105 . S
Sc111 O131 2.105 . S
Sc112 O113 2.025 . S
Sc112 O122 2.105 . S
Sc112 O124 2.105 . S
Sc112 O128 2.105 . S
Sc112 O130 2.105 . S
O113 Sc110 2.025 . S
O113 Sc111 2.025 . S
O113 Sc112 2.025 . S
C114 O120 1.268 . S
C114 O130 1.268 . S
C115 O121 1.268 . S
C115 O129 1.268 . S
C116 O122 1.268 . S
C116 O131 1.268 . S
C117 O123 1.268 . S
C117 O127 1.268 . S
C118 O124 1.268 . S
C118 O126 1.268 . S
C119 O125 1.268 . S
C119 O128 1.268 . S
O120 Sc110 2.105 . S
O120 C114 1.268 . S
O121 Sc111 2.105 . S
O121 C115 1.268 . S
O122 Sc112 2.105 . S
O122 C116 1.268 . S
O123 Sc110 2.105 . S
O123 C117 1.268 . S
O124 Sc112 2.105 . S
O124 C118 1.268 . S
O125 Sc111 2.105 . S
O125 C119 1.268 . S
O126 Sc110 2.105 . S
O126 C118 1.268 . S
O127 Sc111 2.105 . S
O127 C117 1.268 . S
O128 Sc112 2.105 . S
O128 C119 1.268 . S
O129 Sc110 2.105 . S
O129 C115 1.268 . S
O130 Sc112 2.105 . S
O130 C114 1.268 . S
O131 Sc111 2.105 . S
O131 C116 1.268 . S
Sc132 O135 2.025 . S
Sc132 O142 2.105 . S
Sc132 O145 2.105 . S
Sc132 O148 2.105 . S
Sc132 O151 2.105 . S
Sc133 O135 2.025 . S
Sc133 O143 2.105 . S
Sc133 O147 2.105 . S
Sc133 O149 2.105 . S
Sc133 O153 2.105 . S
Sc134 O135 2.025 . S
Sc134 O144 2.105 . S
Sc134 O146 2.105 . S
Sc134 O150 2.105 . S
Sc134 O152 2.105 . S
O135 Sc132 2.025 . S
O135 Sc133 2.025 . S
O135 Sc134 2.025 . S
C136 O142 1.268 . S
C136 O152 1.268 . S
C137 O143 1.268 . S
C137 O151 1.268 . S
C138 O144 1.268 . S
C138 O153 1.268 . S
C139 O145 1.268 . S
C139 O149 1.268 . S
C140 O146 1.268 . S
C140 O148 1.268 . S
C141 O147 1.268 . S
C141 O150 1.268 . S
O142 Sc132 2.105 . S
O142 C136 1.268 . S
O143 Sc133 2.105 . S
O143 C137 1.268 . S
O144 Sc134 2.105 . S
O144 C138 1.268 . S
O145 Sc132 2.105 . S
O145 C139 1.268 . S
O146 Sc134 2.105 . S
O146 C140 1.268 . S
O147 Sc133 2.105 . S
O147 C141 1.268 . S
O148 Sc132 2.105 . S
O148 C140 1.268 . S
O149 Sc133 2.105 . S
O149 C139 1.268 . S
O150 Sc134 2.105 . S
O150 C141 1.268 . S
O151 Sc132 2.105 . S
O151 C137 1.268 . S
O152 Sc134 2.105 . S
O152 C136 1.268 . S
O153 Sc133 2.105 . S
O153 C138 1.268 . S
Sc154 O157 2.025 . S
Sc154 O164 2.105 1_455 S
Sc154 O167 2.105 . S
Sc154 O170 2.105 . S
Sc154 O173 2.105 1_455 S
Sc155 O157 2.025 . S
Sc155 O165 2.105 1_455 S
Sc155 O169 2.105 . S
Sc155 O171 2.105 . S
Sc155 O175 2.105 1_455 S
Sc156 O157 2.025 . S
Sc156 O166 2.105 1_455 S
Sc156 O168 2.105 . S
Sc156 O172 2.105 . S
Sc156 O174 2.105 1_455 S
O157 Sc154 2.025 . S
O157 Sc155 2.025 . S
O157 Sc156 2.025 . S
C158 O164 1.268 . S
C158 O174 1.268 . S
C159 O165 1.268 . S
C159 O173 1.268 . S
C160 O166 1.268 . S
C160 O175 1.268 . S
C161 O167 1.268 . S
C161 O171 1.268 . S
C162 O168 1.268 . S
C162 O170 1.268 . S
C163 O169 1.268 . S
C163 O172 1.268 . S
O164 Sc154 2.105 1_655 S
O164 C158 1.268 . S
O165 Sc155 2.105 1_655 S
O165 C159 1.268 . S
O166 Sc156 2.105 1_655 S
O166 C160 1.268 . S
O167 Sc154 2.105 . S
O167 C161 1.268 . S
O168 Sc156 2.105 . S
O168 C162 1.268 . S
O169 Sc155 2.105 . S
O169 C163 1.268 . S
O170 Sc154 2.105 . S
O170 C162 1.268 . S
O171 Sc155 2.105 . S
O171 C161 1.268 . S
O172 Sc156 2.105 . S
O172 C163 1.268 . S
O173 Sc154 2.105 1_655 S
O173 C159 1.268 . S
O174 Sc156 2.105 1_655 S
O174 C158 1.268 . S
O175 Sc155 2.105 1_655 S
O175 C160 1.268 . S
C176 C177 1.361 1_455 S
C176 C178 1.419 1_554 S
C176 H180 0.930 . S
C177 C176 1.361 1_655 S
C177 C186 1.437 . S
C178 C176 1.419 1_556 S
C178 C179 1.357 1_455 S
C178 H181 0.929 . S
C179 C178 1.357 1_655 S
C179 C185 1.435 . S
H180 C176 0.930 . S
H181 C178 0.929 . S
S182 N183 1.613 1_556 S
S182 N184 1.610 . S
N183 S182 1.613 1_554 S
N183 C186 1.350 . S
N184 S182 1.610 . S
N184 C185 1.351 . S
C185 C179 1.435 . S
C185 N184 1.351 . S
C185 C186 1.434 1_556 S
C186 C177 1.437 . S
C186 N183 1.350 . S
C186 C185 1.434 1_554 S
C187 C188 1.369 . S
C187 C189 1.419 . S
C187 H191 0.930 . S
C188 C187 1.369 . S
C188 C197 1.429 . S
C189 C187 1.419 . S
C189 C190 1.363 . S
C189 H192 0.929 . S
C190 C189 1.363 . S
C190 C196 1.428 . S
H191 C187 0.930 . S
H192 C189 0.929 . S
S193 N194 1.613 . S
S193 N195 1.610 . S
N194 S193 1.613 . S
N194 C197 1.350 . S
N195 S193 1.610 . S
N195 C196 1.351 . S
C196 C190 1.428 . S
C196 N195 1.351 . S
C196 C197 1.434 . S
C197 C188 1.429 . S
C197 N194 1.350 . S
C197 C196 1.434 . S
C198 C199 1.369 . S
C198 C200 1.419 . S
C198 H202 0.930 . S
C199 C198 1.369 . S
C199 C208 1.429 . S
C200 C198 1.419 . S
C200 C201 1.363 . S
C200 H203 0.929 . S
C201 C200 1.363 . S
C201 C207 1.428 . S
H202 C198 0.930 . S
H203 C200 0.929 . S
S204 N205 1.613 . S
S204 N206 1.610 . S
N205 S204 1.613 . S
N205 C208 1.350 . S
N206 S204 1.610 . S
N206 C207 1.351 . S
C207 C201 1.428 . S
C207 N206 1.351 . S
C207 C208 1.434 . S
C208 C199 1.429 . S
C208 N205 1.350 . S
C208 C207 1.434 . S
C209 C210 1.369 . S
C209 C211 1.419 . S
C209 H213 0.930 . S
C210 C209 1.369 . S
C210 C219 1.429 . S
C211 C209 1.419 . S
C211 C212 1.363 . S
C211 H214 0.929 . S
C212 C211 1.363 . S
C212 C218 1.428 . S
H213 C209 0.930 . S
H214 C211 0.929 . S
S215 N216 1.613 . S
S215 N217 1.610 . S
N216 S215 1.613 . S
N216 C219 1.350 . S
N217 S215 1.610 . S
N217 C218 1.351 . S
C218 C212 1.428 . S
C218 N217 1.351 . S
C218 C219 1.434 . S
C219 C210 1.429 . S
C219 N216 1.350 . S
C219 C218 1.434 . S
C220 C221 1.369 . S
C220 C222 1.419 . S
C220 H224 0.930 . S
C221 C220 1.369 . S
C221 C230 1.429 . S
C222 C220 1.419 . S
C222 C223 1.363 . S
C222 H225 0.929 . S
C223 C222 1.363 . S
C223 C229 1.428 . S
H224 C220 0.930 . S
H225 C222 0.929 . S
S226 N227 1.613 . S
S226 N228 1.610 . S
N227 S226 1.613 . S
N227 C230 1.350 . S
N228 S226 1.610 . S
N228 C229 1.351 . S
C229 C223 1.428 . S
C229 N228 1.351 . S
C229 C230 1.434 . S
C230 C221 1.429 . S
C230 N227 1.350 . S
C230 C229 1.434 . S
C231 C232 1.369 . S
C231 C233 1.419 . S
C231 H235 0.930 . S
C232 C231 1.369 . S
C232 C241 1.429 . S
C233 C231 1.419 . S
C233 C234 1.363 . S
C233 H236 0.929 . S
C234 C233 1.363 . S
C234 C240 1.428 . S
H235 C231 0.930 . S
H236 C233 0.929 . S
S237 N238 1.613 . S
S237 N239 1.610 . S
N238 S237 1.613 . S
N238 C241 1.350 . S
N239 S237 1.610 . S
N239 C240 1.351 . S
C240 C234 1.428 . S
C240 N239 1.351 . S
C240 C241 1.434 . S
C241 C232 1.429 . S
C241 N238 1.350 . S
C241 C240 1.434 . S
C242 C243 1.369 1_565 S
C242 C244 1.419 . S
C242 H246 0.930 . S
C243 C242 1.369 1_545 S
C243 C252 1.429 . S
C244 C242 1.419 . S
C244 C245 1.363 . S
C244 H247 0.929 . S
C245 C244 1.363 . S
C245 C251 1.428 1_565 S
H246 C242 0.930 . S
H247 C244 0.929 . S
S248 N249 1.613 . S
S248 N250 1.610 . S
N249 S248 1.613 . S
N249 C252 1.350 . S
N250 S248 1.610 . S
N250 C251 1.351 . S
C251 C245 1.428 1_545 S
C251 N250 1.351 . S
C251 C252 1.434 . S
C252 C243 1.429 . S
C252 N249 1.350 . S
C252 C251 1.434 . S
C253 C254 1.367 1_665 S
C253 C255 1.457 . S
C253 H257 0.930 . S
C254 C253 1.367 1_445 S
C254 C263 1.430 1_554 S
C255 C253 1.457 . S
C255 C256 1.319 1_654 S
C255 H258 0.935 . S
C256 C255 1.319 1_456 S
C256 C262 1.430 1_565 S
H257 C253 0.930 . S
H258 C255 0.935 . S
S259 N260 1.613 . S
S259 N261 1.610 . S
N260 S259 1.613 . S
N260 C263 1.350 . S
N261 S259 1.610 . S
N261 C262 1.351 . S
C262 C256 1.430 1_545 S
C262 N261 1.351 . S
C262 C263 1.434 . S
C263 C254 1.430 1_556 S
C263 N260 1.350 . S
C263 C262 1.434 . S
C264 C265 1.369 . S
C264 C266 1.419 1_565 S
C264 H268 0.930 . S
C265 C264 1.369 . S
C265 C274 1.429 . S
C266 C264 1.419 1_545 S
C266 C267 1.363 . S
C266 H269 0.929 . S
C267 C266 1.363 . S
C267 C273 1.428 . S
H268 C264 0.930 . S
H269 C266 0.929 . S
S270 N271 1.613 1_545 S
S270 N272 1.610 . S
N271 S270 1.613 1_565 S
N271 C274 1.350 . S
N272 S270 1.610 . S
N272 C273 1.351 . S
C273 C267 1.428 . S
C273 N272 1.351 . S
C273 C274 1.434 1_545 S
C274 C265 1.429 . S
C274 N271 1.350 . S
C274 C273 1.434 1_565 S
C275 C276 1.369 1_545 S
C275 C277 1.419 . S
C275 H279 0.930 . S
C276 C275 1.369 1_565 S
C276 C285 1.429 . S
C277 C275 1.419 . S
C277 C278 1.363 . S
C277 H280 0.929 . S
C278 C277 1.363 . S
C278 C284 1.428 1_545 S
H279 C275 0.930 . S
H280 C277 0.929 . S
S281 N282 1.613 . S
S281 N283 1.610 . S
N282 S281 1.613 . S
N282 C285 1.350 . S
N283 S281 1.610 . S
N283 C284 1.351 . S
C284 C278 1.428 1_565 S
C284 N283 1.351 . S
C284 C285 1.434 . S
C285 C276 1.429 . S
C285 N282 1.350 . S
C285 C284 1.434 . S
C286 C287 1.369 . S
C286 C288 1.419 1_545 S
C286 H290 0.930 . S
C287 C286 1.369 . S
C287 C296 1.429 . S
C288 C286 1.419 1_565 S
C288 C289 1.363 . S
C288 H291 0.929 . S
C289 C288 1.363 . S
C289 C295 1.428 . S
H290 C286 0.930 . S
H291 C288 0.929 . S
S292 N293 1.613 1_565 S
S292 N294 1.610 . S
N293 S292 1.613 1_545 S
N293 C296 1.350 . S
N294 S292 1.610 . S
N294 C295 1.351 . S
C295 C289 1.428 . S
C295 N294 1.351 . S
C295 C296 1.434 1_565 S
C296 C287 1.429 . S
C296 N293 1.350 . S
C296 C295 1.434 1_545 S
C297 C298 1.369 . S
C297 C299 1.419 1_565 S
C297 H301 0.930 . S
C298 C297 1.369 . S
C298 C307 1.421 1_565 S
C299 C297 1.419 1_545 S
C299 C300 1.363 . S
C299 H302 0.929 . S
C300 C299 1.363 . S
C300 C306 1.428 . S
H301 C297 0.930 . S
H302 C299 0.929 . S
S303 N304 1.613 . S
S303 N305 1.610 . S
N304 S303 1.613 . S
N304 C307 1.351 . S
N305 S303 1.610 . S
N305 C306 1.351 . S
C306 C300 1.428 . S
C306 N305 1.351 . S
C306 C307 1.442 . S
C307 C298 1.421 1_545 S
C307 N304 1.351 . S
C307 C306 1.442 . S
C308 C309 1.369 . S
C308 C310 1.419 1_565 S
C308 H312 0.930 . S
C309 C308 1.369 . S
C309 C318 1.429 . S
C310 C308 1.419 1_545 S
C310 C311 1.363 . S
C310 H313 0.929 . S
C311 C310 1.363 . S
C311 C317 1.428 . S
H312 C308 0.930 . S
H313 C310 0.929 . S
S314 N315 1.613 1_545 S
S314 N316 1.610 . S
N315 S314 1.613 1_565 S
N315 C318 1.350 . S
N316 S314 1.610 . S
N316 C317 1.351 . S
C317 C311 1.428 . S
C317 N316 1.351 . S
C317 C318 1.434 1_545 S
C318 C309 1.429 . S
C318 N315 1.350 . S
C318 C317 1.434 1_565 S
C319 C320 1.369 . S
C319 C321 1.419 1_545 S
C319 H323 0.930 . S
C320 C319 1.369 . S
C320 C329 1.429 . S
C321 C319 1.419 1_565 S
C321 C322 1.363 . S
C321 H324 0.929 . S
C322 C321 1.363 . S
C322 C328 1.428 1_565 S
H323 C319 0.930 . S
H324 C321 0.929 . S
S325 N326 1.613 . S
S325 N327 1.610 . S
N326 S325 1.613 . S
N326 C329 1.350 . S
N327 S325 1.610 . S
N327 C328 1.351 . S
C328 C322 1.428 1_545 S
C328 N327 1.351 . S
C328 C329 1.434 . S
C329 C320 1.429 . S
C329 N326 1.350 . S
C329 C328 1.434 . S
C330 C331 1.369 . S
C330 C332 1.419 1_565 S
C330 H334 0.930 1_565 S
C331 C330 1.369 . S
C331 C340 1.429 . S
C332 C330 1.419 1_545 S
C332 C333 1.363 . S
C332 H335 0.929 . S
C333 C332 1.363 . S
C333 C339 1.428 1_545 S
H334 C330 0.930 1_545 S
H335 C332 0.929 . S
S336 N337 1.613 . S
S336 N338 1.610 . S
N337 S336 1.613 . S
N337 C340 1.350 . S
N338 S336 1.610 . S
N338 C339 1.351 . S
C339 C333 1.428 1_565 S
C339 N338 1.351 . S
C339 C340 1.434 . S
C340 C331 1.429 . S
C340 N337 1.350 . S
C340 C339 1.434 . S
C341 C342 1.369 . S
C341 C343 1.419 . S
C341 H345 0.930 . S
C342 C341 1.369 . S
C342 C351 1.429 1_565 S
C343 C341 1.419 . S
C343 C344 1.363 1_565 S
C343 H346 0.929 . S
C344 C343 1.363 1_545 S
C344 C350 1.428 . S
H345 C341 0.930 . S
H346 C343 0.929 . S
S347 N348 1.613 . S
S347 N349 1.610 . S
N348 S347 1.613 . S
N348 C351 1.350 . S
N349 S347 1.610 . S
N349 C350 1.351 . S
C350 C344 1.428 . S
C350 N349 1.351 . S
C350 C351 1.434 . S
C351 C342 1.429 1_545 S
C351 N348 1.350 . S
C351 C350 1.434 . S
C352 C353 1.369 . S
C352 C354 1.419 . S
C352 H356 0.930 . S
C353 C352 1.369 . S
C353 C362 1.429 . S
C354 C352 1.419 . S
C354 C355 1.363 . S
C354 H357 0.929 . S
C355 C354 1.363 . S
C355 C361 1.428 . S
H356 C352 0.930 . S
H357 C354 0.929 . S
S358 N359 1.613 . S
S358 N360 1.610 . S
N359 S358 1.613 . S
N359 C362 1.350 . S
N360 S358 1.610 . S
N360 C361 1.351 . S
C361 C355 1.428 . S
C361 N360 1.351 . S
C361 C362 1.434 . S
C362 C353 1.429 . S
C362 N359 1.350 . S
C362 C361 1.434 . S
C363 C364 1.369 . S
C363 C365 1.419 . S
C363 H367 0.930 . S
C364 C363 1.369 . S
C364 C373 1.429 . S
C365 C363 1.419 . S
C365 C366 1.363 . S
C365 H368 0.929 . S
C366 C365 1.363 . S
C366 C372 1.428 . S
H367 C363 0.930 . S
H368 C365 0.929 . S
S369 N370 1.613 . S
S369 N371 1.610 . S
N370 S369 1.613 . S
N370 C373 1.350 . S
N371 S369 1.610 . S
N371 C372 1.351 . S
C372 C366 1.428 . S
C372 N371 1.351 . S
C372 C373 1.434 . S
C373 C364 1.429 . S
C373 N370 1.350 . S
C373 C372 1.434 . S
C374 C375 1.369 . S
C374 C376 1.419 . S
C374 H378 0.930 . S
C375 C374 1.369 . S
C375 C384 1.429 . S
C376 C374 1.419 . S
C376 C377 1.363 . S
C376 H379 0.929 . S
C377 C376 1.363 . S
C377 C383 1.428 . S
H378 C374 0.930 . S
H379 C376 0.929 . S
S380 N381 1.613 . S
S380 N382 1.610 . S
N381 S380 1.613 . S
N381 C384 1.350 . S
N382 S380 1.610 . S
N382 C383 1.351 . S
C383 C377 1.428 . S
C383 N382 1.351 . S
C383 C384 1.434 . S
C384 C375 1.429 . S
C384 N381 1.350 . S
C384 C383 1.434 . S
C385 C386 1.369 . S
C385 C387 1.419 . S
C385 H389 0.930 . S
C386 C385 1.369 . S
C386 C395 1.429 . S
C387 C385 1.419 . S
C387 C388 1.363 . S
C387 H390 0.929 . S
C388 C387 1.363 . S
C388 C394 1.428 . S
H389 C385 0.930 . S
H390 C387 0.929 . S
S391 N392 1.613 . S
S391 N393 1.610 . S
N392 S391 1.613 . S
N392 C395 1.350 . S
N393 S391 1.610 . S
N393 C394 1.351 . S
C394 C388 1.428 . S
C394 N393 1.351 . S
C394 C395 1.434 . S
C395 C386 1.429 . S
C395 N392 1.350 . S
C395 C394 1.434 . S
C396 C397 1.369 . S
C396 C398 1.419 . S
C396 H400 0.930 . S
C397 C396 1.369 . S
C397 C406 1.429 . S
C398 C396 1.419 . S
C398 C399 1.363 . S
C398 H401 0.929 . S
C399 C398 1.363 . S
C399 C405 1.428 . S
H400 C396 0.930 . S
H401 C398 0.929 . S
S402 N403 1.613 . S
S402 N404 1.610 . S
N403 S402 1.613 . S
N403 C406 1.350 . S
N404 S402 1.610 . S
N404 C405 1.351 . S
C405 C399 1.428 . S
C405 N404 1.351 . S
C405 C406 1.434 . S
C406 C397 1.429 . S
C406 N403 1.350 . S
C406 C405 1.434 . S
C407 C408 1.369 . S
C407 C409 1.419 . S
C407 H411 0.930 . S
C408 C407 1.369 . S
C408 C417 1.429 . S
C409 C407 1.419 . S
C409 C410 1.363 . S
C409 H412 0.929 . S
C410 C409 1.363 . S
C410 C416 1.428 . S
H411 C407 0.930 . S
H412 C409 0.929 . S
S413 N414 1.613 . S
S413 N415 1.610 . S
N414 S413 1.613 . S
N414 C417 1.350 . S
N415 S413 1.610 . S
N415 C416 1.351 . S
C416 C410 1.428 . S
C416 N415 1.351 . S
C416 C417 1.434 . S
C417 C408 1.429 . S
C417 N414 1.350 . S
C417 C416 1.434 . S
C418 C419 1.369 . S
C418 C420 1.419 . S
C418 H422 0.930 . S
C419 C418 1.369 . S
C419 C428 1.429 . S
C420 C418 1.419 . S
C420 C421 1.363 . S
C420 H423 0.929 . S
C421 C420 1.363 . S
C421 C427 1.428 . S
H422 C418 0.930 . S
H423 C420 0.929 . S
S424 N425 1.613 . S
S424 N426 1.610 . S
N425 S424 1.613 . S
N425 C428 1.350 . S
N426 S424 1.610 . S
N426 C427 1.351 . S
C427 C421 1.428 . S
C427 N426 1.351 . S
C427 C428 1.434 . S
C428 C419 1.429 . S
C428 N425 1.350 . S
C428 C427 1.434 . S
C429 C430 1.369 . S
C429 C431 1.419 . S
C429 H433 0.930 . S
C430 C429 1.369 . S
C430 C439 1.429 . S
C431 C429 1.419 . S
C431 C432 1.363 . S
C431 H434 0.929 . S
C432 C431 1.363 . S
C432 C438 1.428 . S
H433 C429 0.930 . S
H434 C431 0.929 . S
S435 N436 1.613 . S
S435 N437 1.610 . S
N436 S435 1.613 . S
N436 C439 1.350 . S
N437 S435 1.610 . S
N437 C438 1.351 . S
C438 C432 1.428 . S
C438 N437 1.351 . S
C438 C439 1.434 . S
C439 C430 1.429 . S
C439 N436 1.350 . S
C439 C438 1.434 . S
C177 C7 1.465 1_655 S
C179 C97 1.468 1_655 S
C188 C119 1.468 . S
C190 C29 1.467 . S
C199 C49 1.464 . S
C201 C138 1.469 . S
C210 C71 1.470 . S
C212 C160 1.466 . S
C221 C73 1.468 . S
C223 C163 1.464 . S
C232 C116 1.464 . S
C234 C27 1.468 . S
C243 C141 1.464 . S
C245 C51 1.469 . S
C254 C5 1.464 . S
C256 C94 1.469 . S
C265 C115 1.496 . S
C267 C4 1.493 . S
C276 C26 1.495 . S
C278 C140 1.495 . S
C287 C162 1.491 . S
C289 C53 1.492 . S
C298 C93 1.496 . S
C300 C75 1.493 . S
C309 C92 1.495 . S
C311 C72 1.497 . S
C320 C158 1.494 . S
C322 C52 1.496 . S
C331 C30 1.495 . S
C333 C139 1.496 . S
C342 C117 1.491 . S
C344 C6 1.492 . S
C353 C159 1.496 . S
C355 C48 1.496 . S
C364 C96 1.496 . S
C366 C70 1.497 . S
C375 C118 1.492 . S
C377 C9 1.493 . S
C386 C31 1.491 . S
C388 C137 1.493 . S
C397 C136 1.494 . S
C399 C28 1.491 . S
C408 C8 1.496 . S
C410 C114 1.495 . S
C419 C95 1.496 . S
C421 C74 1.494 . S
C430 C161 1.493 . S
C432 C50 1.494 . S
