# Generated by pormake.
# Topology ukb, (4)-cn, num edge types: 1
# Building blocks:
#     Node 0, Type 0, BuildingBlock: ICAMEG_clean_sbu_1, # of connection points: 4
#     Node 1, Type 0, BuildingBlock: ICAMEG_clean_sbu_1, # of connection points: 4
#     Node 2, Type 0, BuildingBlock: ICAMEG_clean_sbu_1, # of connection points: 4
#     Node 3, Type 0, BuildingBlock: ICAMEG_clean_sbu_1, # of connection points: 4
#     Node 4, Type 0, BuildingBlock: ICAMEG_clean_sbu_1, # of connection points: 4
#     Node 5, Type 0, BuildingBlock: ICAMEG_clean_sbu_1, # of connection points: 4
#     Node 6, Type 0, BuildingBlock: ICAMEG_clean_sbu_1, # of connection points: 4
#     Node 7, Type 0, BuildingBlock: ICAMEG_clean_sbu_1, # of connection points: 4
#     Node 8, Type 0, BuildingBlock: ICAMEG_clean_sbu_1, # of connection points: 4
#     Node 9, Type 0, BuildingBlock: ICAMEG_clean_sbu_1, # of connection points: 4
#     Node 10, Type 0, BuildingBlock: ICAMEG_clean_sbu_1, # of connection points: 4
#     Node 11, Type 0, BuildingBlock: ICAMEG_clean_sbu_1, # of connection points: 4
#     Node 12, Type 0, BuildingBlock: ICAMEG_clean_sbu_1, # of connection points: 4
#     Node 13, Type 0, BuildingBlock: ICAMEG_clean_sbu_1, # of connection points: 4
#     Node 14, Type 0, BuildingBlock: ICAMEG_clean_sbu_1, # of connection points: 4
#     Node 15, Type 0, BuildingBlock: ICAMEG_clean_sbu_1, # of connection points: 4
#     Edge 16, Type (0, 0), BuildingBlock: XIVTED_clean_linker_0, # of connection points: 2
#     Edge 17, Type (0, 0), BuildingBlock: XIVTED_clean_linker_0, # of connection points: 2
#     Edge 18, Type (0, 0), BuildingBlock: XIVTED_clean_linker_0, # of connection points: 2
#     Edge 19, Type (0, 0), BuildingBlock: XIVTED_clean_linker_0, # of connection points: 2
#     Edge 20, Type (0, 0), BuildingBlock: XIVTED_clean_linker_0, # of connection points: 2
#     Edge 21, Type (0, 0), BuildingBlock: XIVTED_clean_linker_0, # of connection points: 2
#     Edge 22, Type (0, 0), BuildingBlock: XIVTED_clean_linker_0, # of connection points: 2
#     Edge 23, Type (0, 0), BuildingBlock: XIVTED_clean_linker_0, # of connection points: 2
#     Edge 24, Type (0, 0), BuildingBlock: XIVTED_clean_linker_0, # of connection points: 2
#     Edge 25, Type (0, 0), BuildingBlock: XIVTED_clean_linker_0, # of connection points: 2
#     Edge 26, Type (0, 0), BuildingBlock: XIVTED_clean_linker_0, # of connection points: 2
#     Edge 27, Type (0, 0), BuildingBlock: XIVTED_clean_linker_0, # of connection points: 2
#     Edge 28, Type (0, 0), BuildingBlock: XIVTED_clean_linker_0, # of connection points: 2
#     Edge 29, Type (0, 0), BuildingBlock: XIVTED_clean_linker_0, # of connection points: 2
#     Edge 30, Type (0, 0), BuildingBlock: XIVTED_clean_linker_0, # of connection points: 2
#     Edge 31, Type (0, 0), BuildingBlock: XIVTED_clean_linker_0, # of connection points: 2
#     Edge 32, Type (0, 0), BuildingBlock: XIVTED_clean_linker_0, # of connection points: 2
#     Edge 33, Type (0, 0), BuildingBlock: XIVTED_clean_linker_0, # of connection points: 2
#     Edge 34, Type (0, 0), BuildingBlock: XIVTED_clean_linker_0, # of connection points: 2
#     Edge 35, Type (0, 0), BuildingBlock: XIVTED_clean_linker_0, # of connection points: 2
#     Edge 36, Type (0, 0), BuildingBlock: XIVTED_clean_linker_0, # of connection points: 2
#     Edge 37, Type (0, 0), BuildingBlock: XIVTED_clean_linker_0, # of connection points: 2
#     Edge 38, Type (0, 0), BuildingBlock: XIVTED_clean_linker_0, # of connection points: 2
#     Edge 39, Type (0, 0), BuildingBlock: XIVTED_clean_linker_0, # of connection points: 2
#     Edge 40, Type (0, 0), BuildingBlock: XIVTED_clean_linker_0, # of connection points: 2
#     Edge 41, Type (0, 0), BuildingBlock: XIVTED_clean_linker_0, # of connection points: 2
#     Edge 42, Type (0, 0), BuildingBlock: XIVTED_clean_linker_0, # of connection points: 2
#     Edge 43, Type (0, 0), BuildingBlock: XIVTED_clean_linker_0, # of connection points: 2
#     Edge 44, Type (0, 0), BuildingBlock: XIVTED_clean_linker_0, # of connection points: 2
#     Edge 45, Type (0, 0), BuildingBlock: XIVTED_clean_linker_0, # of connection points: 2
#     Edge 46, Type (0, 0), BuildingBlock: XIVTED_clean_linker_0, # of connection points: 2
#     Edge 47, Type (0, 0), BuildingBlock: XIVTED_clean_linker_0, # of connection points: 2
# Relax obj value: 0.076
# Max RMSD: 0.091
# Mean RMSD: 0.091
data_MOF--net-ukb--node1-ICAMEG_clean_sbu_1--edge1-XIVTED_clean_linker_0
_symmetry_space_group_name_H-M    P1
_symmetry_Int_Tables_number       1
_symmetry_cell_setting            triclinic
loop_
_symmetry_equiv_pos_as_xyz
'x, y, z'
_cell_length_a     46.573262
_cell_length_b     46.570091
_cell_length_c     42.979791
_cell_angle_alpha  90.008317
_cell_angle_beta   90.017918
_cell_angle_gamma 89.976484
loop_
_atom_site_label
_atom_site_type_symbol
_atom_site_fract_x
_atom_site_fract_y
_atom_site_fract_z
_atom_type_partial_charge
Co0 Co 0.57756 0.17928 0.15582 0.0
Co1 Co 0.53453 0.19759 0.2187 0.0
O2 O 0.54028 0.18227 0.17657 0.0
C3 C 0.54267 0.2139 0.11074 0.0
O4 O 0.53171 0.22887 0.13375 0.0
C5 C 0.5137 0.13789 0.2217 0.0
O6 O 0.53554 0.13089 0.20399 0.0
O7 O 0.56846 0.1763 0.2357 0.0
O8 O 0.59518 0.16377 0.19434 0.0
H9 H 0.56483 0.24513 0.31838 0.0
H10 H 0.526 0.15251 0.12767 0.0
O11 O 0.56079 0.19404 0.1161 0.0
H12 H 0.59439 0.07301 0.14369 0.0
H13 H 0.6438 0.15616 0.06658 0.0
H14 H 0.63739 0.19279 0.17402 0.0
H15 H 0.6076 0.12265 0.15765 0.0
H16 H 0.59699 0.15941 0.09314 0.0
O17 O 0.50968 0.16392 0.22973 0.0
H18 H 0.57194 0.22547 0.26562 0.0
H19 H 0.48386 0.2023 0.2608 0.0
H20 H 0.68469 0.18967 0.14843 0.0
H21 H 0.51199 0.10324 0.11307 0.0
H22 H 0.6881 0.17126 0.09431 0.0
H23 H 0.54627 0.06306 0.12121 0.0
O24 O 0.58804 0.21931 0.16838 0.0
H25 H 0.44253 0.2074 0.15856 0.0
H26 H 0.51378 0.25803 0.22332 0.0
H27 H 0.47242 0.28478 0.20217 0.0
H28 H 0.4364 0.25941 0.16958 0.0
H29 H 0.48438 0.18157 0.17995 0.0
H30 H 0.47584 0.22147 0.3136 0.0
H31 H 0.51649 0.24318 0.3427 0.0
O32 O 0.55926 0.23116 0.20855 0.0
C33 C 0.59015 0.16404 0.22343 0.0
C34 C 0.54693 0.2358 0.3059 0.0
C35 C 0.497 0.22248 0.30323 0.0
N36 N 0.5283 0.21295 0.26009 0.0
C37 C 0.55081 0.22472 0.27599 0.0
C38 C 0.50168 0.2116 0.27338 0.0
C39 C 0.51981 0.23467 0.31954 0.0
C40 C 0.54112 0.13517 0.13101 0.0
N41 N 0.56758 0.14044 0.14352 0.0
C42 C 0.53303 0.1073 0.12281 0.0
C43 C 0.55226 0.08476 0.12742 0.0
C44 C 0.57925 0.09033 0.14006 0.0
C45 C 0.58658 0.11846 0.14802 0.0
C46 C 0.6426 0.16423 0.09016 0.0
C47 C 0.63872 0.18466 0.1505 0.0
C48 C 0.61613 0.16622 0.10528 0.0
N49 N 0.61446 0.17625 0.13512 0.0
C50 C 0.66555 0.18299 0.13612 0.0
C51 C 0.66744 0.17268 0.10574 0.0
C52 C 0.57911 0.23687 0.18908 0.0
C53 C 0.45805 0.21869 0.17277 0.0
C54 C 0.49828 0.2469 0.20902 0.0
C55 C 0.47485 0.26212 0.19719 0.0
C56 C 0.45465 0.24787 0.17893 0.0
N57 N 0.50146 0.21827 0.20289 0.0
C58 C 0.48173 0.20415 0.18502 0.0
Co59 Co 0.30817 0.57043 0.65682 0.0
Co60 Co 0.30157 0.52649 0.72191 0.0
O61 O 0.31058 0.53284 0.6776 0.0
C62 C 0.2785 0.52931 0.61186 0.0
O63 O 0.28277 0.50668 0.62946 0.0
C64 C 0.36219 0.50716 0.71672 0.0
O65 O 0.36691 0.52778 0.69655 0.0
O66 O 0.32335 0.56141 0.73518 0.0
O67 O 0.32856 0.58849 0.69231 0.0
H68 H 0.26743 0.5556 0.82824 0.0
H69 H 0.33521 0.51967 0.62563 0.0
O70 O 0.28732 0.55408 0.62001 0.0
H71 H 0.40903 0.59533 0.62454 0.0
H72 H 0.31263 0.63859 0.56586 0.0
H73 H 0.29474 0.62931 0.6785 0.0
H74 H 0.36147 0.60458 0.64748 0.0
H75 H 0.31624 0.59143 0.59165 0.0
O76 O 0.33724 0.50321 0.72797 0.0
H77 H 0.27927 0.56313 0.77291 0.0
H78 H 0.30439 0.47579 0.7643 0.0
H79 H 0.29119 0.67694 0.65368 0.0
H80 H 0.38221 0.50965 0.60207 0.0
H81 H 0.30016 0.68179 0.59696 0.0
H82 H 0.41965 0.54759 0.60147 0.0
O83 O 0.27 0.57874 0.67625 0.0
H84 H 0.28879 0.43251 0.66624 0.0
H85 H 0.24294 0.50365 0.7352 0.0
H86 H 0.2159 0.46057 0.71931 0.0
H87 H 0.23887 0.42458 0.68465 0.0
H88 H 0.31492 0.47611 0.6824 0.0
H89 H 0.29305 0.46738 0.8196 0.0
H90 H 0.27432 0.50744 0.85194 0.0
O91 O 0.26608 0.54956 0.71757 0.0
C92 C 0.33269 0.58358 0.72108 0.0
C93 C 0.2755 0.53795 0.81437 0.0
C94 C 0.28991 0.48845 0.80953 0.0
N95 N 0.29232 0.51989 0.76534 0.0
C96 C 0.28217 0.54207 0.78301 0.0
C97 C 0.29635 0.49336 0.77825 0.0
C98 C 0.2794 0.51093 0.82766 0.0
C99 C 0.35101 0.53651 0.62502 0.0
N100 N 0.34522 0.56286 0.63753 0.0
C101 C 0.37778 0.53061 0.61184 0.0
C102 C 0.3988 0.55188 0.61158 0.0
C103 C 0.39286 0.57864 0.62452 0.0
C104 C 0.36586 0.58374 0.63754 0.0
C105 C 0.30873 0.63676 0.5906 0.0
C106 C 0.29888 0.63129 0.65384 0.0
C107 C 0.31065 0.6101 0.60533 0.0
N108 N 0.30591 0.60765 0.63662 0.0
C109 C 0.29674 0.65829 0.6399 0.0
C110 C 0.30174 0.66099 0.60807 0.0
C111 C 0.25629 0.56902 0.69969 0.0
C112 C 0.27856 0.44801 0.68139 0.0
C113 C 0.253 0.48822 0.71991 0.0
C114 C 0.23762 0.4638 0.7111 0.0
C115 C 0.25054 0.44359 0.69169 0.0
N116 N 0.28049 0.49239 0.70972 0.0
C117 C 0.29329 0.47268 0.69071 0.0
Co118 Co 0.93405 0.31134 0.15069 0.0
Co119 Co 0.97464 0.30826 0.21856 0.0
O120 O 0.97039 0.31549 0.17364 0.0
C121 C 0.97913 0.28335 0.10929 0.0
O122 O 0.00025 0.28929 0.12841 0.0
C123 C 0.99426 0.36843 0.21135 0.0
O124 O 0.97421 0.37234 0.19033 0.0
O125 O 0.93941 0.33074 0.22854 0.0
O126 O 0.91312 0.33148 0.18474 0.0
H127 H 0.94026 0.27948 0.32489 0.0
H128 H 0.98528 0.34035 0.12232 0.0
O129 O 0.95336 0.29066 0.11538 0.0
H130 H 0.90647 0.41048 0.11475 0.0
H131 H 0.87086 0.31157 0.05547 0.0
H132 H 0.87466 0.29588 0.16887 0.0
H133 H 0.89818 0.36292 0.13805 0.0
H134 H 0.91634 0.31748 0.08416 0.0
O135 O 0.99786 0.34399 0.22397 0.0
H136 H 0.93542 0.2888 0.26864 0.0
H137 H 0.02336 0.31247 0.26346 0.0
H138 H 0.82865 0.29003 0.14113 0.0
H139 H 0.99437 0.38732 0.09841 0.0
H140 H 0.82657 0.29788 0.08401 0.0
H141 H 0.95484 0.42294 0.09455 0.0
O142 O 0.92626 0.27321 0.17037 0.0
H143 H 0.07134 0.29249 0.16965 0.0
H144 H 0.99605 0.24995 0.2358 0.0
H145 H 0.03961 0.22192 0.22392 0.0
H146 H 0.07768 0.24323 0.1907 0.0
H147 H 0.02722 0.31962 0.18177 0.0
H148 H 0.02909 0.30361 0.3197 0.0
H149 H 0.98737 0.28688 0.35078 0.0
O150 O 0.95142 0.27276 0.21488 0.0
C151 C 0.91705 0.33782 0.21328 0.0
C152 C 0.95863 0.28667 0.31158 0.0
C153 C 0.00847 0.30025 0.30867 0.0
N154 N 0.97914 0.30093 0.26273 0.0
C155 C 0.95604 0.29191 0.2797 0.0
C156 C 0.00508 0.30527 0.27684 0.0
C157 C 0.98506 0.29085 0.32609 0.0
C158 C 0.96776 0.35527 0.12026 0.0
N159 N 0.94107 0.34844 0.13118 0.0
C160 C 0.97313 0.38207 0.1069 0.0
C161 C 0.95098 0.40208 0.10481 0.0
C162 C 0.92386 0.39511 0.11616 0.0
C163 C 0.91931 0.36811 0.12941 0.0
C164 C 0.87148 0.30814 0.08037 0.0
C165 C 0.87387 0.29954 0.14405 0.0
C166 C 0.8972 0.31137 0.09673 0.0
N167 N 0.89811 0.30724 0.12821 0.0
C168 C 0.84778 0.2961 0.12845 0.0
C169 C 0.84664 0.30047 0.0964 0.0
C170 C 0.93396 0.26132 0.19577 0.0
C171 C 0.05492 0.28299 0.18419 0.0
C172 C 0.01239 0.25928 0.22109 0.0
C173 C 0.03708 0.24335 0.21457 0.0
C174 C 0.05845 0.25533 0.19597 0.0
N175 N 0.00908 0.28639 0.20944 0.0
C176 C 0.02995 0.29829 0.19123 0.0
Co177 Co 0.19109 0.93088 0.65382 0.0
Co178 Co 0.19478 0.97242 0.721 0.0
O179 O 0.18738 0.9676 0.67613 0.0
C180 C 0.22073 0.97445 0.61178 0.0
O181 O 0.2151 0.99628 0.63007 0.0
C182 C 0.13432 0.99168 0.7137 0.0
O183 O 0.13054 0.97171 0.69255 0.0
O184 O 0.1728 0.93695 0.73176 0.0
O185 O 0.17001 0.91107 0.68776 0.0
H186 H 0.22532 0.93974 0.8274 0.0
H187 H 0.16359 0.98239 0.62435 0.0
O188 O 0.21264 0.94909 0.61858 0.0
H189 H 0.09199 0.90499 0.61634 0.0
H190 H 0.19101 0.86628 0.55971 0.0
H191 H 0.20497 0.87145 0.67332 0.0
H192 H 0.13903 0.89593 0.6406 0.0
H193 H 0.18555 0.9123 0.58748 0.0
O194 O 0.15873 0.99526 0.72642 0.0
H195 H 0.21556 0.93414 0.77131 0.0
H196 H 0.18995 0.02152 0.76536 0.0
H197 H 0.21034 0.82492 0.6465 0.0
H198 H 0.11716 0.99224 0.59949 0.0
H199 H 0.20336 0.82215 0.58928 0.0
H200 H 0.08082 0.95342 0.5954 0.0
O201 O 0.22881 0.92255 0.67421 0.0
H202 H 0.2088 0.06846 0.67 0.0
H203 H 0.25267 0.9952 0.73786 0.0
H204 H 0.27991 0.03901 0.72503 0.0
H205 H 0.25793 0.07607 0.69095 0.0
H206 H 0.18248 0.02411 0.68309 0.0
H207 H 0.1992 0.028 0.82143 0.0
H208 H 0.21712 0.98695 0.85282 0.0
O209 O 0.23065 0.94975 0.71724 0.0
C210 C 0.16453 0.91503 0.71646 0.0
C211 C 0.21759 0.95781 0.81395 0.0
C212 C 0.2029 0.00734 0.81061 0.0
N213 N 0.20239 0.97752 0.76504 0.0
C214 C 0.2121 0.95479 0.78217 0.0
C215 C 0.19764 0.00352 0.77888 0.0
C216 C 0.21296 0.9843 0.8282 0.0
C217 C 0.14833 0.96518 0.62222 0.0
N218 N 0.15445 0.93845 0.63355 0.0
C219 C 0.12185 0.97098 0.6083 0.0
C220 C 0.10144 0.94922 0.60609 0.0
C221 C 0.10769 0.92207 0.61784 0.0
C222 C 0.13438 0.91708 0.63164 0.0
C223 C 0.19406 0.86721 0.58465 0.0
C224 C 0.20168 0.87037 0.64845 0.0
C225 C 0.19108 0.89322 0.6005 0.0
N226 N 0.19472 0.89452 0.63205 0.0
C227 C 0.20485 0.84399 0.63337 0.0
C228 C 0.20097 0.84245 0.60126 0.0
C229 C 0.24145 0.93134 0.69876 0.0
C230 C 0.2186 0.05249 0.68491 0.0
C231 C 0.24306 0.01109 0.72279 0.0
C232 C 0.25853 0.03592 0.71572 0.0
C233 C 0.24618 0.05672 0.69663 0.0
N234 N 0.21602 0.00709 0.7112 0.0
C235 C 0.20375 0.02739 0.6925 0.0
Co236 Co 0.56829 0.30651 0.84661 0.0
Co237 Co 0.52516 0.3019 0.78066 0.0
O238 O 0.53105 0.31004 0.82526 0.0
C239 C 0.52582 0.27756 0.89059 0.0
O240 O 0.50345 0.28295 0.87297 0.0
C241 C 0.50622 0.36261 0.7869 0.0
O242 O 0.52652 0.36686 0.80758 0.0
O243 O 0.56048 0.3235 0.76847 0.0
O244 O 0.58733 0.32694 0.81175 0.0
H245 H 0.5553 0.26947 0.67404 0.0
H246 H 0.51768 0.33457 0.87717 0.0
O247 O 0.55095 0.28556 0.88278 0.0
H248 H 0.59536 0.40616 0.88126 0.0
H249 H 0.63522 0.30796 0.93879 0.0
H250 H 0.62716 0.29203 0.82569 0.0
H251 H 0.60367 0.35872 0.8576 0.0
H252 H 0.58854 0.31312 0.91226 0.0
O253 O 0.50233 0.3379 0.77501 0.0
H254 H 0.56223 0.28019 0.72974 0.0
H255 H 0.47504 0.30602 0.73755 0.0
H256 H 0.67431 0.28693 0.85125 0.0
H257 H 0.50859 0.38144 0.90145 0.0
H258 H 0.67855 0.2949 0.90821 0.0
H259 H 0.54756 0.41776 0.90357 0.0
O260 O 0.576 0.26843 0.8267 0.0
H261 H 0.43035 0.28913 0.8346 0.0
H262 H 0.50183 0.24378 0.76568 0.0
H263 H 0.45826 0.21693 0.78031 0.0
H264 H 0.4221 0.23965 0.81494 0.0
H265 H 0.47443 0.31507 0.81969 0.0
H266 H 0.46725 0.29581 0.68188 0.0
H267 H 0.50753 0.27729 0.64975 0.0
O268 O 0.54775 0.26606 0.78451 0.0
C269 C 0.58277 0.33191 0.78306 0.0
C270 C 0.53756 0.27745 0.68781 0.0
C271 C 0.48815 0.29227 0.6922 0.0
N272 N 0.51902 0.29352 0.73693 0.0
C273 C 0.54133 0.28349 0.71938 0.0
C274 C 0.49271 0.29807 0.7237 0.0
C275 C 0.51076 0.28187 0.67419 0.0
C276 C 0.53496 0.34985 0.87845 0.0
N277 N 0.56135 0.34349 0.86639 0.0
C278 C 0.52959 0.37656 0.89203 0.0
C279 C 0.55143 0.39696 0.89315 0.0
C280 C 0.57823 0.39047 0.88062 0.0
C281 C 0.58279 0.36355 0.86719 0.0
C282 C 0.63366 0.30448 0.91395 0.0
C283 C 0.62887 0.29574 0.85045 0.0
C284 C 0.60727 0.30729 0.89881 0.0
N285 N 0.60517 0.30309 0.8674 0.0
C286 C 0.65561 0.29273 0.86481 0.0
C287 C 0.65796 0.29717 0.89678 0.0
C288 C 0.56657 0.25547 0.80263 0.0
C289 C 0.44592 0.27901 0.81946 0.0
C290 C 0.48633 0.25373 0.78097 0.0
C291 C 0.46163 0.23847 0.78906 0.0
C292 C 0.44133 0.25124 0.80845 0.0
N293 N 0.49067 0.28097 0.79184 0.0
C294 C 0.47086 0.29364 0.81084 0.0
Co295 Co 0.18113 0.58133 0.34571 0.0
Co296 Co 0.1948 0.53533 0.2839 0.0
O297 O 0.18082 0.54328 0.32616 0.0
C298 C 0.21393 0.54551 0.39148 0.0
O299 O 0.22794 0.5331 0.36862 0.0
C300 C 0.13421 0.51632 0.28244 0.0
O301 O 0.1277 0.53843 0.3 0.0
O302 O 0.17436 0.56941 0.2663 0.0
O303 O 0.16642 0.59899 0.30675 0.0
H304 H 0.24065 0.56036 0.18163 0.0
H305 H 0.15085 0.53291 0.37607 0.0
O306 O 0.1951 0.56462 0.38579 0.0
H307 H 0.0767 0.60682 0.35875 0.0
H308 H 0.1644 0.65173 0.43288 0.0
H309 H 0.19925 0.63931 0.32538 0.0
H310 H 0.12696 0.61562 0.34346 0.0
H311 H 0.16357 0.60407 0.40788 0.0
O312 O 0.16012 0.51148 0.27462 0.0
H313 H 0.2227 0.57 0.23462 0.0
H314 H 0.19661 0.48303 0.24379 0.0
H315 H 0.20023 0.68743 0.34939 0.0
H316 H 0.10089 0.52332 0.39203 0.0
H317 H 0.18273 0.69385 0.40354 0.0
H318 H 0.06339 0.5604 0.38327 0.0
O319 O 0.22176 0.58836 0.33244 0.0
H320 H 0.20234 0.44543 0.34794 0.0
H321 H 0.25408 0.51146 0.27804 0.0
H322 H 0.27956 0.4698 0.30025 0.0
H323 H 0.25362 0.4364 0.33545 0.0
H324 H 0.1778 0.48756 0.32543 0.0
H325 H 0.21401 0.47251 0.1908 0.0
H326 H 0.23633 0.51131 0.1594 0.0
O327 O 0.22954 0.55891 0.29186 0.0
C328 C 0.16465 0.59259 0.27803 0.0
C329 C 0.23104 0.54325 0.19512 0.0
C330 C 0.21605 0.49396 0.20025 0.0
N331 N 0.20882 0.52706 0.24235 0.0
C332 C 0.22092 0.54857 0.22517 0.0
C333 C 0.20617 0.50006 0.23021 0.0
C334 C 0.22859 0.51574 0.18265 0.0
C335 C 0.13469 0.54924 0.37242 0.0
N336 N 0.14181 0.57478 0.35882 0.0
C337 C 0.10642 0.54365 0.38141 0.0
C338 C 0.08539 0.56444 0.37645 0.0
C339 C 0.09283 0.59049 0.36267 0.0
C340 C 0.12131 0.59531 0.35396 0.0
C341 C 0.17207 0.64921 0.40927 0.0
C342 C 0.19147 0.64198 0.3489 0.0
C343 C 0.17175 0.62225 0.39503 0.0
N344 N 0.18127 0.61893 0.36516 0.0
C345 C 0.19214 0.66925 0.36239 0.0
C346 C 0.18234 0.67284 0.39279 0.0
C347 C 0.23767 0.5783 0.31083 0.0
C348 C 0.21387 0.45982 0.33263 0.0
C349 C 0.24273 0.49717 0.29351 0.0
C350 C 0.25723 0.47353 0.30592 0.0
C351 C 0.24265 0.45479 0.32563 0.0
N352 N 0.21452 0.50197 0.30049 0.0
C353 C 0.20007 0.48366 0.31975 0.0
Co354 Co 0.93059 0.19121 0.84692 0.0
Co355 Co 0.97001 0.19607 0.77904 0.0
O356 O 0.96609 0.18589 0.82313 0.0
C357 C 0.97133 0.22245 0.88931 0.0
O358 O 0.97939 0.23946 0.86656 0.0
C359 C 0.98795 0.13508 0.7808 0.0
O360 O 0.9668 0.13007 0.80022 0.0
O361 O 0.9341 0.17499 0.7679 0.0
O362 O 0.90694 0.17926 0.81069 0.0
H363 H 0.93535 0.23309 0.67585 0.0
H364 H 0.97728 0.15501 0.87257 0.0
O365 O 0.95309 0.20262 0.88449 0.0
H366 H 0.8934 0.09089 0.86437 0.0
H367 H 0.86832 0.18402 0.94244 0.0
H368 H 0.87363 0.21687 0.83352 0.0
H369 H 0.88971 0.14177 0.84913 0.0
H370 H 0.9125 0.17695 0.91179 0.0
O371 O 0.9926 0.16035 0.77076 0.0
H372 H 0.93087 0.22009 0.73128 0.0
H373 H 0.01808 0.19343 0.7332 0.0
H374 H 0.82894 0.22415 0.86325 0.0
H375 H 0.98184 0.10433 0.88847 0.0
H376 H 0.82609 0.20768 0.91813 0.0
H377 H 0.93972 0.07186 0.88428 0.0
O378 O 0.92751 0.2322 0.83341 0.0
H379 H 0.0657 0.20733 0.83155 0.0
H380 H 0.99381 0.25405 0.76426 0.0
H381 H 0.0377 0.28045 0.7788 0.0
H382 H 0.07406 0.25703 0.81264 0.0
H383 H 0.02134 0.18185 0.81664 0.0
H384 H 0.02342 0.20588 0.67772 0.0
H385 H 0.98189 0.22599 0.64871 0.0
O386 O 0.94763 0.23196 0.78588 0.0
C387 C 0.91041 0.17195 0.78239 0.0
C388 C 0.95362 0.22443 0.68827 0.0
C389 C 0.00305 0.20912 0.6893 0.0
N390 N 0.97423 0.20622 0.73551 0.0
C391 C 0.95124 0.21711 0.71967 0.0
C392 C 0.99987 0.20204 0.72069 0.0
C393 C 0.97974 0.22041 0.67304 0.0
C394 C 0.95878 0.14108 0.87094 0.0
N395 N 0.93326 0.15137 0.85989 0.0
C396 C 0.96153 0.11238 0.87987 0.0
C397 C 0.9379 0.09416 0.87747 0.0
C398 C 0.91192 0.10481 0.86626 0.0
C399 C 0.90998 0.13363 0.85752 0.0
C400 C 0.86929 0.19127 0.91854 0.0
C401 C 0.87252 0.20952 0.85735 0.0
C402 C 0.89429 0.18741 0.90109 0.0
N403 N 0.89562 0.19639 0.87084 0.0
C404 C 0.84718 0.21376 0.87408 0.0
C405 C 0.8456 0.20454 0.90488 0.0
C406 C 0.93351 0.24427 0.80754 0.0
C407 C 0.05003 0.21776 0.81677 0.0
C408 C 0.00941 0.24382 0.77916 0.0
C409 C 0.03429 0.25882 0.78722 0.0
C410 C 0.05469 0.24565 0.80618 0.0
N411 N 0.005 0.21647 0.78962 0.0
C412 C 0.02491 0.20342 0.8082 0.0
Co413 Co 0.31536 0.92584 0.34561 0.0
Co414 Co 0.30781 0.97349 0.28434 0.0
O415 O 0.31836 0.96437 0.32744 0.0
C416 C 0.28298 0.96197 0.39135 0.0
O417 O 0.26894 0.97446 0.36856 0.0
C418 C 0.36749 0.99458 0.28997 0.0
O419 O 0.37337 0.97194 0.30698 0.0
O420 O 0.33085 0.94073 0.26799 0.0
O421 O 0.33009 0.90806 0.30654 0.0
H422 H 0.27274 0.95065 0.17658 0.0
H423 H 0.34752 0.97131 0.37906 0.0
O424 O 0.30142 0.94251 0.38564 0.0
H425 H 0.41772 0.8938 0.36092 0.0
H426 H 0.32534 0.85262 0.43122 0.0
H427 H 0.29442 0.86951 0.323 0.0
H428 H 0.36755 0.8886 0.34348 0.0
H429 H 0.32965 0.9007 0.40767 0.0
O430 O 0.34219 0.99884 0.27978 0.0
H431 H 0.28624 0.93965 0.23078 0.0
H432 H 0.30726 0.02721 0.2465 0.0
H433 H 0.28994 0.82101 0.34557 0.0
H434 H 0.3974 0.97725 0.39725 0.0
H435 H 0.30545 0.81234 0.40007 0.0
H436 H 0.43292 0.93836 0.38808 0.0
O437 O 0.27487 0.9216 0.3307 0.0
H438 H 0.29113 0.06106 0.35013 0.0
H439 H 0.2481 0.99475 0.27379 0.0
H440 H 0.21914 0.0347 0.29464 0.0
H441 H 0.24067 0.06823 0.33306 0.0
H442 H 0.31924 0.02066 0.32885 0.0
H443 H 0.29424 0.03911 0.19237 0.0
H444 H 0.27672 0.0007 0.15705 0.0
O445 O 0.27345 0.94844 0.28736 0.0
C446 C 0.3364 0.91597 0.27902 0.0
C447 C 0.28027 0.9676 0.19177 0.0
C448 C 0.29236 0.01723 0.20062 0.0
N449 N 0.2973 0.9828 0.24185 0.0
C450 C 0.28787 0.96151 0.2225 0.0
C451 C 0.29976 0.01035 0.23123 0.0
C452 C 0.28253 0.99567 0.18082 0.0
C453 C 0.36279 0.95418 0.37525 0.0
N454 N 0.35462 0.92965 0.36021 0.0
C455 C 0.39103 0.95771 0.38549 0.0
C456 C 0.41096 0.9359 0.3803 0.0
C457 C 0.40245 0.91091 0.36504 0.0
C458 C 0.37403 0.90813 0.35511 0.0
C459 C 0.31853 0.85613 0.40745 0.0
C460 C 0.30136 0.86586 0.34668 0.0
C461 C 0.32084 0.88333 0.39401 0.0
N462 N 0.31243 0.88788 0.36393 0.0
C463 C 0.2987 0.83837 0.35936 0.0
C464 C 0.30739 0.83353 0.38995 0.0
C465 C 0.26224 0.93053 0.30617 0.0
C466 C 0.28153 0.04664 0.33334 0.0
C467 C 0.25759 0.00918 0.29058 0.0
C468 C 0.2411 0.03181 0.30225 0.0
C469 C 0.25321 0.05063 0.32379 0.0
N470 N 0.28537 0.00546 0.30001 0.0
C471 C 0.29737 0.0238 0.32114 0.0
Co472 Co 0.42914 0.80729 0.85105 0.0
Co473 Co 0.47113 0.80286 0.78426 0.0
O474 O 0.46597 0.81102 0.82894 0.0
C475 C 0.47255 0.77815 0.89383 0.0
O476 O 0.49452 0.78371 0.87572 0.0
C477 C 0.48975 0.86371 0.7903 0.0
O478 O 0.46999 0.86777 0.8116 0.0
O479 O 0.43529 0.82406 0.77278 0.0
O480 O 0.40944 0.82787 0.81669 0.0
H481 H 0.43939 0.76954 0.67852 0.0
H482 H 0.48025 0.83529 0.88066 0.0
O483 O 0.44723 0.78619 0.88672 0.0
H484 H 0.40251 0.90675 0.88681 0.0
H485 H 0.36395 0.80817 0.94464 0.0
H486 H 0.36993 0.79288 0.83128 0.0
H487 H 0.39384 0.85938 0.86317 0.0
H488 H 0.41012 0.8135 0.91716 0.0
O489 O 0.49338 0.83911 0.77804 0.0
H490 H 0.43343 0.78037 0.73432 0.0
H491 H 0.52029 0.80765 0.73996 0.0
H492 H 0.32326 0.78763 0.8578 0.0
H493 H 0.48973 0.88209 0.9049 0.0
H494 H 0.32007 0.79528 0.91489 0.0
H495 H 0.45073 0.91836 0.90805 0.0
O496 O 0.42117 0.76925 0.83115 0.0
H497 H 0.56701 0.79149 0.83641 0.0
H498 H 0.49529 0.74522 0.76856 0.0
H499 H 0.53953 0.71904 0.78229 0.0
H500 H 0.57583 0.74224 0.81638 0.0
H501 H 0.52225 0.81673 0.82242 0.0
H502 H 0.52711 0.79735 0.68416 0.0
H503 H 0.4865 0.77804 0.65308 0.0
O504 O 0.44919 0.76669 0.78879 0.0
C505 C 0.41336 0.83267 0.78785 0.0
C506 C 0.45727 0.77787 0.69183 0.0
C507 C 0.50649 0.79352 0.69499 0.0
N508 N 0.47653 0.79445 0.74043 0.0
C509 C 0.45404 0.78397 0.72346 0.0
C510 C 0.50248 0.79937 0.72657 0.0
C511 C 0.4837 0.78267 0.67757 0.0
C512 C 0.46298 0.85054 0.88238 0.0
N513 N 0.43636 0.84419 0.87088 0.0
C514 C 0.46856 0.87722 0.89595 0.0
C515 C 0.4467 0.89758 0.89764 0.0
C516 C 0.41966 0.89109 0.88571 0.0
C517 C 0.4149 0.86421 0.87228 0.0
C518 C 0.36505 0.80483 0.91974 0.0
C519 C 0.36866 0.79646 0.85609 0.0
C520 C 0.39115 0.80773 0.90406 0.0
N521 N 0.39267 0.80371 0.87259 0.0
C522 C 0.3422 0.79336 0.871 0.0
C523 C 0.34044 0.79762 0.90304 0.0
C524 C 0.43061 0.75611 0.8072 0.0
C525 C 0.55138 0.78116 0.82151 0.0
C526 C 0.51082 0.75534 0.78365 0.0
C527 C 0.53591 0.74047 0.79122 0.0
C528 C 0.55629 0.75351 0.81031 0.0
N529 N 0.50615 0.78245 0.79474 0.0
C530 C 0.52604 0.79539 0.81343 0.0
Co531 Co 0.69162 0.42024 0.34051 0.0
Co532 Co 0.6927 0.46976 0.28136 0.0
O533 O 0.68336 0.45875 0.3242 0.0
C534 C 0.71667 0.45791 0.38976 0.0
O535 O 0.73003 0.4727 0.36816 0.0
C536 C 0.63192 0.48809 0.28824 0.0
O537 O 0.62687 0.46493 0.30471 0.0
O538 O 0.67092 0.43625 0.26497 0.0
O539 O 0.68277 0.40201 0.2994 0.0
H540 H 0.72634 0.45148 0.17208 0.0
H541 H 0.65074 0.45741 0.3748 0.0
O542 O 0.70053 0.43694 0.3823 0.0
H543 H 0.59518 0.37149 0.34531 0.0
H544 H 0.68888 0.34216 0.42152 0.0
H545 H 0.72319 0.36929 0.31706 0.0
H546 H 0.64633 0.37563 0.33126 0.0
H547 H 0.67805 0.39001 0.39994 0.0
O548 O 0.65703 0.49352 0.27822 0.0
H549 H 0.71468 0.43845 0.22624 0.0
H550 H 0.68974 0.52443 0.2452 0.0
H551 H 0.73432 0.32114 0.33765 0.0
H552 H 0.59973 0.45394 0.38974 0.0
H553 H 0.71712 0.3073 0.39025 0.0
H554 H 0.57157 0.41079 0.37485 0.0
O555 O 0.73269 0.42358 0.32825 0.0
H556 H 0.7061 0.55618 0.34969 0.0
H557 H 0.75088 0.49465 0.26991 0.0
H558 H 0.77806 0.53554 0.2914 0.0
H559 H 0.75563 0.56667 0.33155 0.0
H560 H 0.67979 0.51489 0.32774 0.0
H561 H 0.70088 0.53833 0.19117 0.0
H562 H 0.71945 0.50174 0.15423 0.0
O563 O 0.72873 0.44647 0.28258 0.0
C564 C 0.67223 0.41008 0.27346 0.0
C565 C 0.71835 0.46763 0.18798 0.0
C566 C 0.70403 0.51637 0.19868 0.0
N567 N 0.70176 0.48069 0.23893 0.0
C568 C 0.71177 0.4604 0.2187 0.0
C569 C 0.6977 0.50835 0.22923 0.0
C570 C 0.71445 0.49583 0.17797 0.0
C571 C 0.63871 0.43842 0.36854 0.0
N572 N 0.65153 0.41675 0.35223 0.0
C573 C 0.6098 0.43664 0.37694 0.0
C574 C 0.594 0.41245 0.36853 0.0
C575 C 0.60722 0.39041 0.35192 0.0
C576 C 0.63617 0.39293 0.34391 0.0
C577 C 0.69646 0.34792 0.39856 0.0
C578 C 0.7155 0.36339 0.3399 0.0
C579 C 0.69046 0.37502 0.38624 0.0
N580 N 0.69984 0.3824 0.35719 0.0
C581 C 0.72193 0.33611 0.35147 0.0
C582 C 0.7123 0.32837 0.38099 0.0
C583 C 0.74305 0.43184 0.3023 0.0
C584 C 0.71608 0.54282 0.33215 0.0
C585 C 0.74102 0.50802 0.28746 0.0
C586 C 0.75649 0.53119 0.29948 0.0
C587 C 0.74388 0.54867 0.32199 0.0
N588 N 0.71374 0.50246 0.29751 0.0
C589 C 0.70125 0.51948 0.31957 0.0
Co590 Co 0.06436 0.69292 0.84795 0.0
Co591 Co 0.02476 0.69637 0.77937 0.0
O592 O 0.02842 0.68863 0.8243 0.0
C593 C 0.01886 0.72125 0.88866 0.0
O594 O 0.99772 0.71501 0.86966 0.0
C595 C 0.00657 0.63546 0.78512 0.0
O596 O 0.02611 0.6317 0.80675 0.0
O597 O 0.06099 0.67521 0.76966 0.0
O598 O 0.08566 0.67258 0.81449 0.0
H599 H 0.05999 0.72848 0.67451 0.0
H600 H 0.0126 0.66401 0.87523 0.0
O601 O 0.04462 0.71386 0.88273 0.0
H602 H 0.09134 0.59406 0.88527 0.0
H603 H 0.12607 0.69336 0.94432 0.0
H604 H 0.12404 0.70818 0.83072 0.0
H605 H 0.10005 0.6415 0.86185 0.0
H606 H 0.08104 0.68721 0.91485 0.0
O607 O 0.00281 0.65999 0.77276 0.0
H608 H 0.0641 0.71833 0.73066 0.0
H609 H 0.97711 0.69105 0.73325 0.0
H610 H 0.1696 0.71426 0.85925 0.0
H611 H 0.00307 0.61715 0.89922 0.0
H612 H 0.17079 0.70685 0.91647 0.0
H613 H 0.04257 0.58163 0.90433 0.0
O614 O 0.07251 0.73096 0.82824 0.0
H615 H 0.92701 0.70808 0.82711 0.0
H616 H 0.00131 0.75396 0.76231 0.0
H617 H 0.9566 0.78023 0.77387 0.0
H618 H 0.91901 0.75724 0.80641 0.0
H619 H 0.97224 0.68274 0.81531 0.0
H620 H 0.97214 0.70067 0.67708 0.0
H621 H 0.01374 0.71963 0.64735 0.0
O622 O 0.04657 0.73261 0.78429 0.0
C623 C 0.08268 0.66731 0.78559 0.0
C624 C 0.04168 0.7203 0.68723 0.0
C625 C 0.99239 0.70466 0.68866 0.0
N626 N 0.02083 0.7043 0.73526 0.0
C627 C 0.04386 0.71459 0.71904 0.0
C628 C 0.99535 0.6992 0.72045 0.0
C629 C 0.01573 0.71531 0.67199 0.0
C630 C 0.03009 0.64912 0.87783 0.0
N631 N 0.057 0.65594 0.86756 0.0
C632 C 0.02448 0.62239 0.89124 0.0
C633 C 0.04662 0.60244 0.89403 0.0
C634 C 0.07397 0.60939 0.88332 0.0
C635 C 0.07875 0.63632 0.87001 0.0
C636 C 0.12583 0.6966 0.91938 0.0
C637 C 0.12444 0.7047 0.85559 0.0
C638 C 0.10038 0.69323 0.90258 0.0
N639 N 0.09996 0.69712 0.87104 0.0
C640 C 0.15028 0.70828 0.87163 0.0
C641 C 0.15092 0.70415 0.90374 0.0
C642 C 0.0642 0.74361 0.8035 0.0
C643 C 0.94321 0.71832 0.81287 0.0
C644 C 0.9852 0.74391 0.77673 0.0
C645 C 0.95985 0.75884 0.78307 0.0
C646 C 0.93875 0.74591 0.80129 0.0
N647 N 0.9894 0.71685 0.78818 0.0
C648 C 0.96881 0.70403 0.80602 0.0
Co649 Co 0.81475 0.07169 0.35264 0.0
Co650 Co 0.80831 0.03207 0.28483 0.0
O651 O 0.81905 0.03613 0.32875 0.0
C652 C 0.78278 0.03057 0.39363 0.0
O653 O 0.76707 0.02208 0.36996 0.0
C654 C 0.8694 0.01457 0.2865 0.0
O655 O 0.87412 0.03561 0.30613 0.0
O656 O 0.82879 0.06822 0.27318 0.0
O657 O 0.82775 0.09494 0.31657 0.0
H658 H 0.76919 0.0661 0.18231 0.0
H659 H 0.84912 0.02366 0.37836 0.0
O660 O 0.8022 0.04945 0.38994 0.0
H661 H 0.91617 0.10531 0.37116 0.0
H662 H 0.82328 0.13336 0.44851 0.0
H663 H 0.79136 0.12959 0.33917 0.0
H664 H 0.86553 0.11083 0.35555 0.0
H665 H 0.82899 0.08902 0.41776 0.0
O666 O 0.84425 0.00989 0.27607 0.0
H667 H 0.78296 0.0708 0.2375 0.0
H668 H 0.81105 0.98403 0.23893 0.0
H669 H 0.78547 0.17444 0.36901 0.0
H670 H 0.89951 0.01727 0.39461 0.0
H671 H 0.80148 0.17652 0.42409 0.0
H672 H 0.93345 0.05825 0.39092 0.0
O673 O 0.77397 0.0762 0.33885 0.0
H674 H 0.79885 0.93644 0.33789 0.0
H675 H 0.7506 0.00739 0.27071 0.0
H676 H 0.72489 0.96325 0.28578 0.0
H677 H 0.74908 0.92736 0.31957 0.0
H678 H 0.82362 0.98105 0.32248 0.0
H679 H 0.79784 0.97846 0.18368 0.0
H680 H 0.77663 0.01966 0.15503 0.0
O681 O 0.77226 0.05404 0.29236 0.0
C682 C 0.83351 0.09155 0.28784 0.0
C683 C 0.77834 0.04796 0.19456 0.0
C684 C 0.79446 0.99879 0.19532 0.0
N685 N 0.79759 0.02767 0.24148 0.0
C686 C 0.78609 0.05048 0.22584 0.0
C687 C 0.80196 0.0021 0.22658 0.0
C688 C 0.78254 0.02191 0.17926 0.0
C689 C 0.86369 0.04168 0.37696 0.0
N690 N 0.85438 0.06759 0.36597 0.0
C691 C 0.89223 0.03789 0.38608 0.0
C692 C 0.91127 0.06088 0.38396 0.0
C693 C 0.9016 0.08727 0.37283 0.0
C694 C 0.87292 0.09025 0.36388 0.0
C695 C 0.81624 0.13273 0.42451 0.0
C696 C 0.7985 0.13036 0.36309 0.0
C697 C 0.81934 0.10765 0.40701 0.0
N698 N 0.81062 0.10674 0.37665 0.0
C699 C 0.79506 0.1558 0.37988 0.0
C700 C 0.80402 0.15694 0.4108 0.0
C701 C 0.76095 0.06929 0.31379 0.0
C702 C 0.78808 0.95191 0.32315 0.0
C703 C 0.76114 0.99201 0.28562 0.0
C704 C 0.74655 0.96698 0.29396 0.0
C705 C 0.76015 0.94684 0.3129 0.0
N706 N 0.78852 0.99684 0.29578 0.0
C707 C 0.80201 0.97718 0.3143 0.0
Co708 Co 0.42589 0.68565 0.16067 0.0
Co709 Co 0.47199 0.69686 0.22291 0.0
O710 O 0.46374 0.68364 0.18045 0.0
C711 C 0.46293 0.71711 0.11509 0.0
O712 O 0.47479 0.73159 0.13794 0.0
C713 C 0.48888 0.6357 0.2232 0.0
O714 O 0.46609 0.63047 0.20617 0.0
O715 O 0.43732 0.67724 0.24006 0.0
O716 O 0.40715 0.67222 0.19956 0.0
H717 H 0.44825 0.74208 0.32589 0.0
H718 H 0.47275 0.65282 0.13046 0.0
O719 O 0.44364 0.69846 0.12068 0.0
H720 H 0.39561 0.58238 0.14899 0.0
H721 H 0.35554 0.67182 0.07288 0.0
H722 H 0.36868 0.70682 0.18024 0.0
H723 H 0.38919 0.63315 0.16374 0.0
H724 H 0.40288 0.66883 0.0984 0.0
O725 O 0.49489 0.66126 0.2315 0.0
H726 H 0.43808 0.72505 0.27266 0.0
H727 H 0.52428 0.69662 0.263 0.0
H728 H 0.3209 0.71002 0.15569 0.0
H729 H 0.47997 0.6023 0.11505 0.0
H730 H 0.31411 0.69245 0.10161 0.0
H731 H 0.44126 0.56667 0.12442 0.0
O732 O 0.42079 0.72657 0.17373 0.0
H733 H 0.5623 0.70282 0.15938 0.0
H734 H 0.49703 0.75555 0.22934 0.0
H735 H 0.53937 0.78023 0.20763 0.0
H736 H 0.57238 0.7538 0.17241 0.0
H737 H 0.51954 0.67907 0.18141 0.0
H738 H 0.53532 0.71308 0.31624 0.0
H739 H 0.49717 0.73611 0.34801 0.0
O740 O 0.44924 0.73238 0.21555 0.0
C741 C 0.41348 0.66952 0.2282 0.0
C742 C 0.46507 0.73215 0.31224 0.0
C743 C 0.51393 0.71584 0.30684 0.0
N744 N 0.48061 0.71006 0.26468 0.0
C745 C 0.45946 0.72255 0.28206 0.0
C746 C 0.50754 0.7065 0.27675 0.0
C747 C 0.49252 0.72877 0.32465 0.0
C748 C 0.4557 0.6375 0.13432 0.0
N749 N 0.43057 0.64595 0.14792 0.0
C750 C 0.45996 0.6089 0.12567 0.0
C751 C 0.43824 0.58891 0.13097 0.0
C752 C 0.41263 0.59771 0.14478 0.0
C753 C 0.40915 0.62647 0.15316 0.0
C754 C 0.35822 0.67953 0.09646 0.0
C755 C 0.36585 0.69899 0.15676 0.0
C756 C 0.385 0.67796 0.111 0.0
N757 N 0.38851 0.68753 0.14083 0.0
C758 C 0.33877 0.70093 0.14295 0.0
C759 C 0.33498 0.69109 0.1126 0.0
C760 C 0.43069 0.74162 0.19614 0.0
C761 C 0.5481 0.71456 0.17474 0.0
C762 C 0.5112 0.74397 0.21391 0.0
C763 C 0.5352 0.75802 0.20177 0.0
C764 C 0.55373 0.74317 0.18203 0.0
N765 N 0.50585 0.7159 0.20667 0.0
C766 C 0.52391 0.7012 0.18735 0.0
Co767 Co 0.80834 0.42745 0.65588 0.0
Co768 Co 0.80239 0.4717 0.72081 0.0
O769 O 0.81106 0.46512 0.67646 0.0
C770 C 0.77757 0.46836 0.61168 0.0
O771 O 0.78128 0.4907 0.62983 0.0
C772 C 0.86311 0.4906 0.71504 0.0
O773 O 0.86756 0.47013 0.69462 0.0
O774 O 0.82401 0.43665 0.73407 0.0
O775 O 0.82925 0.40957 0.69119 0.0
H776 H 0.7684 0.44322 0.82736 0.0
H777 H 0.8346 0.47794 0.62374 0.0
O778 O 0.78708 0.44367 0.61925 0.0
H779 H 0.90892 0.40268 0.62232 0.0
H780 H 0.81178 0.35887 0.56522 0.0
H781 H 0.79523 0.36868 0.67805 0.0
H782 H 0.8617 0.39338 0.64608 0.0
H783 H 0.81565 0.40615 0.59071 0.0
O784 O 0.83829 0.49462 0.7266 0.0
H785 H 0.77993 0.43544 0.77199 0.0
H786 H 0.80596 0.52246 0.76308 0.0
H787 H 0.79142 0.32093 0.65353 0.0
H788 H 0.88126 0.48801 0.59937 0.0
H789 H 0.79971 0.31582 0.59671 0.0
H790 H 0.91893 0.45026 0.5986 0.0
O791 O 0.77038 0.41928 0.67585 0.0
H792 H 0.79026 0.56563 0.66489 0.0
H793 H 0.74411 0.49532 0.73452 0.0
H794 H 0.71743 0.53865 0.71865 0.0
H795 H 0.74056 0.57423 0.68366 0.0
H796 H 0.81601 0.52178 0.681 0.0
H797 H 0.79496 0.5311 0.81843 0.0
H798 H 0.77592 0.49134 0.85093 0.0
O799 O 0.76664 0.44904 0.7167 0.0
C800 C 0.83351 0.41455 0.71993 0.0
C801 C 0.7766 0.46074 0.81342 0.0
C802 C 0.79155 0.51005 0.80841 0.0
N803 N 0.79341 0.47851 0.76427 0.0
C804 C 0.7831 0.45648 0.78203 0.0
C805 C 0.7978 0.50501 0.7771 0.0
C806 C 0.78086 0.48773 0.82664 0.0
C807 C 0.85055 0.46121 0.62311 0.0
N808 N 0.84511 0.43495 0.636 0.0
C809 C 0.8771 0.46712 0.60944 0.0
C810 C 0.89825 0.44596 0.60908 0.0
C811 C 0.89265 0.41928 0.62239 0.0
C812 C 0.86586 0.41416 0.63588 0.0
C813 C 0.80816 0.36082 0.59 0.0
C814 C 0.79907 0.36659 0.65335 0.0
C815 C 0.81025 0.38755 0.60456 0.0
N816 N 0.80587 0.39014 0.6359 0.0
C817 C 0.79679 0.33951 0.63958 0.0
C818 C 0.80141 0.33667 0.60769 0.0
C819 C 0.75671 0.42945 0.69909 0.0
C820 C 0.77996 0.55031 0.68017 0.0
C821 C 0.75422 0.51055 0.71906 0.0
C822 C 0.73906 0.53513 0.71027 0.0
C823 C 0.75206 0.5551 0.69068 0.0
N824 N 0.78158 0.506 0.70865 0.0
C825 C 0.79448 0.5255 0.68947 0.0
Co826 Co 0.07115 0.81669 0.14969 0.0
Co827 Co 0.03045 0.80887 0.21659 0.0
O828 O 0.03522 0.8204 0.173 0.0
C829 C 0.03083 0.785 0.1074 0.0
O830 O 0.02198 0.76897 0.13065 0.0
C831 C 0.01337 0.87006 0.21595 0.0
O832 O 0.03479 0.87495 0.19686 0.0
O833 O 0.06652 0.82888 0.22942 0.0
O834 O 0.09375 0.82944 0.1864 0.0
H835 H 0.06266 0.76765 0.31884 0.0
H836 H 0.02313 0.85099 0.12387 0.0
O837 O 0.04958 0.80444 0.11178 0.0
H838 H 0.10418 0.91856 0.13293 0.0
H839 H 0.13413 0.82677 0.05504 0.0
H840 H 0.12902 0.79362 0.16386 0.0
H841 H 0.10994 0.86778 0.14785 0.0
H842 H 0.08933 0.83184 0.08509 0.0
O843 O 0.00833 0.84477 0.22575 0.0
H844 H 0.06831 0.78241 0.26406 0.0
H845 H 0.98171 0.81097 0.2616 0.0
H846 H 0.17434 0.78836 0.13473 0.0
H847 H 0.01649 0.90153 0.10829 0.0
H848 H 0.17708 0.80499 0.0799 0.0
H849 H 0.05717 0.93574 0.11292 0.0
O850 O 0.0758 0.77577 0.16293 0.0
H851 H 0.93552 0.80092 0.16175 0.0
H852 H 0.00543 0.75093 0.22872 0.0
H853 H 0.9614 0.72573 0.21231 0.0
H854 H 0.92603 0.7508 0.17861 0.0
H855 H 0.98001 0.82518 0.1785 0.0
H856 H 0.9752 0.79677 0.31644 0.0
H857 H 0.01583 0.77482 0.34539 0.0
O858 O 0.0524 0.7729 0.20863 0.0
C859 C 0.08997 0.83426 0.21527 0.0
C860 C 0.04477 0.77711 0.30644 0.0
C861 C 0.99569 0.79349 0.30511 0.0
N862 N 0.02531 0.79733 0.25959 0.0
C863 C 0.04781 0.78542 0.2754 0.0
C864 C 0.99953 0.80155 0.27409 0.0
C865 C 0.0185 0.78117 0.32134 0.0
C866 C 0.04101 0.86569 0.1257 0.0
N867 N 0.06689 0.85644 0.13687 0.0
C868 C 0.03708 0.8943 0.11695 0.0
C869 C 0.0599 0.91349 0.1196 0.0
C870 C 0.08627 0.90388 0.13087 0.0
C871 C 0.08938 0.87513 0.13945 0.0
C872 C 0.13321 0.81946 0.07892 0.0
C873 C 0.13009 0.80104 0.14006 0.0
C874 C 0.10787 0.8222 0.09603 0.0
N875 N 0.10658 0.81314 0.12625 0.0
C876 C 0.15579 0.79795 0.12366 0.0
C877 C 0.15731 0.80726 0.09289 0.0
C878 C 0.06828 0.76216 0.18741 0.0
C879 C 0.95076 0.78977 0.17644 0.0
C880 C 0.99027 0.76187 0.21387 0.0
C881 C 0.96531 0.74755 0.20476 0.0
C882 C 0.94546 0.76164 0.18588 0.0
N883 N 0.99532 0.78945 0.20453 0.0
C884 C 0.97595 0.80342 0.18605 0.0
Co885 Co 0.69041 0.06398 0.65276 0.0
Co886 Co 0.69494 0.02532 0.72183 0.0
O887 O 0.68732 0.0282 0.67684 0.0
C888 C 0.71977 0.01882 0.61248 0.0
O889 O 0.71407 0.99766 0.63163 0.0
C890 C 0.63485 0.0052 0.71598 0.0
O891 O 0.63063 0.02509 0.69485 0.0
O892 O 0.67217 0.06062 0.73101 0.0
O893 O 0.66974 0.08519 0.68613 0.0
H894 H 0.72415 0.0628 0.82682 0.0
H895 H 0.66277 0.01116 0.62626 0.0
O896 O 0.7117 0.04443 0.61813 0.0
H897 H 0.59053 0.08779 0.61606 0.0
H898 H 0.68844 0.12456 0.55562 0.0
H899 H 0.70419 0.12425 0.6691 0.0
H900 H 0.6379 0.09807 0.63892 0.0
H901 H 0.68376 0.07972 0.58572 0.0
O902 O 0.65949 0.00181 0.72825 0.0
H903 H 0.71429 0.06608 0.77055 0.0
H904 H 0.69169 0.97775 0.76821 0.0
H905 H 0.70879 0.16964 0.63994 0.0
H906 H 0.616 7e-05 0.60285 0.0
H907 H 0.70091 0.16997 0.58278 0.0
H908 H 0.57933 0.03849 0.59766 0.0
O909 O 0.72829 0.07334 0.67213 0.0
H910 H 0.71152 0.92764 0.67556 0.0
H911 H 0.7536 0.00504 0.73921 0.0
H912 H 0.78207 0.96153 0.72835 0.0
H913 H 0.761 0.9224 0.6964 0.0
H914 H 0.68394 0.97171 0.68665 0.0
H915 H 0.70109 0.97357 0.82451 0.0
H916 H 0.71756 0.01629 0.85417 0.0
O917 O 0.73014 0.04887 0.71706 0.0
C918 C 0.66415 0.08217 0.71495 0.0
C919 C 0.71708 0.04401 0.81413 0.0
C920 C 0.70411 0.99394 0.81284 0.0
N921 N 0.70268 0.02208 0.76605 0.0
C922 C 0.71154 0.04572 0.78225 0.0
C923 C 0.69878 0.99645 0.78097 0.0
C924 C 0.71335 0.01792 0.82947 0.0
C925 C 0.64738 0.0282 0.62361 0.0
N926 N 0.65351 0.0554 0.63352 0.0
C927 C 0.62069 0.0217 0.61053 0.0
C928 C 0.6001 0.04323 0.60771 0.0
C929 C 0.60637 0.07087 0.61804 0.0
C930 C 0.63326 0.07655 0.63104 0.0
C931 C 0.69188 0.1247 0.58053 0.0
C932 C 0.70051 0.12427 0.64426 0.0
C933 C 0.68934 0.09936 0.59769 0.0
N934 N 0.69348 0.09941 0.62919 0.0
C935 C 0.70324 0.15001 0.62786 0.0
C936 C 0.69886 0.15017 0.59578 0.0
C937 C 0.7408 0.0663 0.6974 0.0
C938 C 0.72092 0.94452 0.68956 0.0
C939 C 0.74437 0.98822 0.72507 0.0
C940 C 0.76055 0.96357 0.71911 0.0
C941 C 0.7487 0.94161 0.70122 0.0
N942 N 0.71713 0.99091 0.71356 0.0
C943 C 0.70537 0.96946 0.69601 0.0
H944 H 0.49618 0.09055 0.1897 0.0
H945 H 0.41294 0.01326 0.32493 0.0
H946 H 0.48546 0.13472 0.27717 0.0
H947 H 0.37395 0.02116 0.23428 0.0
H948 H 0.45003 0.04809 0.30888 0.0
H949 H 0.46114 0.05436 0.20691 0.0
C950 C 0.48663 0.09244 0.2126 0.0
C951 C 0.49347 0.1156 0.23205 0.0
C952 C 0.43333 0.04198 0.29263 0.0
C953 C 0.45437 0.07421 0.25195 0.0
C954 C 0.41237 0.02216 0.30165 0.0
C955 C 0.39043 0.01459 0.28088 0.0
C956 C 0.43273 0.05331 0.26238 0.0
C957 C 0.39045 0.02669 0.25099 0.0
C958 C 0.4667 0.07194 0.22229 0.0
C959 C 0.48049 0.11722 0.26147 0.0
N960 N 0.41149 0.04526 0.24248 0.0
N961 N 0.46169 0.09659 0.27071 0.0
H962 H 0.36882 0.4839 0.77422 0.0
H963 H 0.48477 0.3708 0.72886 0.0
H964 H 0.40916 0.48848 0.68402 0.0
H965 H 0.4862 0.40847 0.82055 0.0
H966 H 0.4524 0.4091 0.71151 0.0
H967 H 0.407 0.45149 0.79178 0.0
C968 C 0.38578 0.4781 0.75815 0.0
C969 C 0.38589 0.48873 0.7276 0.0
C970 C 0.46003 0.40908 0.73533 0.0
C971 C 0.42913 0.45145 0.74739 0.0
C972 C 0.4783 0.38723 0.7453 0.0
C973 C 0.48803 0.38654 0.77619 0.0
C974 C 0.45075 0.42987 0.75664 0.0
C975 C 0.47918 0.40836 0.79652 0.0
C976 C 0.40758 0.45981 0.76826 0.0
C977 C 0.40841 0.48074 0.70776 0.0
N978 N 0.46057 0.42895 0.78653 0.0
N979 N 0.42895 0.46212 0.71785 0.0
H980 H 0.0135 0.37867 0.26986 0.0
H981 H 0.13237 0.4887 0.22676 0.0
H982 H 0.016 0.41262 0.17653 0.0
H983 H 0.0848 0.50012 0.31198 0.0
H984 H 0.09542 0.45515 0.20844 0.0
H985 H 0.04521 0.41762 0.28698 0.0
C986 C 0.02072 0.3944 0.25302 0.0
C987 C 0.01226 0.39255 0.22176 0.0
C988 C 0.09303 0.46523 0.23102 0.0
C989 C 0.04878 0.43651 0.24103 0.0
C990 C 0.1141 0.48414 0.24156 0.0
C991 C 0.11153 0.49705 0.27092 0.0
C992 C 0.0698 0.45854 0.2504 0.0
C993 C 0.08743 0.49061 0.28916 0.0
C994 C 0.0386 0.41661 0.26283 0.0
C995 C 0.02204 0.41347 0.20085 0.0
N996 N 0.06765 0.47135 0.27881 0.0
N997 N 0.04027 0.43441 0.21076 0.0
H998 H 0.12452 0.01271 0.77165 0.0
H999 H 0.01319 0.12956 0.7241 0.0
H1000 H 0.08967 0.01227 0.67865 0.0
H1001 H 0.00515 0.08734 0.813 0.0
H1002 H 0.04618 0.09163 0.70705 0.0
H1003 H 0.08577 0.04501 0.78796 0.0
C1004 C 0.10863 0.01939 0.7547 0.0
C1005 C 0.11021 0.00994 0.72375 0.0
C1006 C 0.03695 0.09059 0.73016 0.0
C1007 C 0.0664 0.04714 0.74213 0.0
C1008 C 0.01833 0.11223 0.73997 0.0
C1009 C 0.00656 0.1115 0.77001 0.0
C1010 C 0.04451 0.06861 0.75087 0.0
C1011 C 0.01375 0.08855 0.78963 0.0
C1012 C 0.08651 0.03762 0.76408 0.0
C1013 C 0.08906 0.01906 0.70274 0.0
N1014 N 0.03272 0.0682 0.77991 0.0
N1015 N 0.06822 0.03762 0.71219 0.0
H1016 H 0.51032 0.90906 0.82432 0.0
H1017 H 0.58827 0.98671 0.68262 0.0
H1018 H 0.51071 0.87239 0.73214 0.0
H1019 H 0.62706 0.98256 0.77368 0.0
H1020 H 0.55001 0.95436 0.70088 0.0
H1021 H 0.54393 0.94634 0.8062 0.0
C1022 C 0.51718 0.90912 0.80023 0.0
C1023 C 0.50801 0.88762 0.7797 0.0
C1024 C 0.56685 0.9608 0.71681 0.0
C1025 C 0.5456 0.93014 0.75889 0.0
C1026 C 0.58854 0.97921 0.70648 0.0
C1027 C 0.61088 0.98701 0.72663 0.0
C1028 C 0.56718 0.95091 0.74768 0.0
C1029 C 0.61034 0.97674 0.75734 0.0
C1030 C 0.53635 0.93022 0.79 0.0
C1031 C 0.51756 0.8885 0.74874 0.0
N1032 N 0.58873 0.95931 0.76702 0.0
N1033 N 0.53575 0.9095 0.7392 0.0
H1034 H 0.50285 0.58735 0.19061 0.0
H1035 H 0.58718 0.50701 0.32421 0.0
H1036 H 0.51745 0.63022 0.27818 0.0
H1037 H 0.62341 0.51317 0.23213 0.0
H1038 H 0.54997 0.54207 0.30889 0.0
H1039 H 0.53615 0.54911 0.20693 0.0
C1040 C 0.51283 0.58851 0.21336 0.0
C1041 C 0.50768 0.61194 0.23305 0.0
C1042 C 0.566 0.53543 0.29211 0.0
C1043 C 0.54474 0.56824 0.25198 0.0
C1044 C 0.58703 0.51548 0.30074 0.0
C1045 C 0.60832 0.50747 0.27939 0.0
C1046 C 0.56587 0.54646 0.26171 0.0
C1047 C 0.60741 0.51906 0.24927 0.0
C1048 C 0.53176 0.56683 0.22255 0.0
C1049 C 0.52115 0.61256 0.26227 0.0
N1050 N 0.58637 0.53782 0.2412 0.0
N1051 N 0.53895 0.59087 0.27101 0.0
H1052 H 0.98593 0.62661 0.7268 0.0
H1053 H 0.87023 0.51343 0.77265 0.0
H1054 H 0.98661 0.58968 0.81884 0.0
H1055 H 0.90993 0.50931 0.68209 0.0
H1056 H 0.90847 0.54575 0.7901 0.0
H1057 H 0.9539 0.58807 0.70943 0.0
C1058 C 0.97939 0.61028 0.7433 0.0
C1059 C 0.98878 0.61127 0.77431 0.0
C1060 C 0.90892 0.53754 0.76652 0.0
C1061 C 0.9519 0.56765 0.75473 0.0
C1062 C 0.88708 0.5193 0.75648 0.0
C1063 C 0.88697 0.50884 0.72586 0.0
C1064 C 0.9303 0.54603 0.74553 0.0
C1065 C 0.90935 0.51691 0.70589 0.0
C1066 C 0.96132 0.58828 0.73332 0.0
C1067 C 0.97986 0.58956 0.79473 0.0
N1068 N 0.92994 0.53549 0.71592 0.0
N1069 N 0.96145 0.56884 0.7847 0.0
H1070 H 0.91553 0.99616 0.32044 0.0
H1071 H 0.99616 0.91704 0.18268 0.0
H1072 H 0.87692 0.99055 0.22941 0.0
H1073 H 0.98829 0.87675 0.27264 0.0
H1074 H 0.96255 0.95472 0.19986 0.0
H1075 H 0.95308 0.96235 0.30336 0.0
C1076 C 0.91521 0.98808 0.2968 0.0
C1077 C 0.89314 0.9959 0.27629 0.0
C1078 C 0.96848 0.9377 0.2158 0.0
C1079 C 0.93601 0.95818 0.25662 0.0
C1080 C 0.98762 0.91637 0.20612 0.0
C1081 C 0.99476 0.8938 0.22627 0.0
C1082 C 0.95727 0.93682 0.24609 0.0
C1083 C 0.98308 0.89374 0.25637 0.0
C1084 C 0.93646 0.96882 0.28717 0.0
C1085 C 0.89351 0.9848 0.24594 0.0
N1086 N 0.96502 0.91506 0.2655 0.0
N1087 N 0.91475 0.96662 0.2369 0.0
H1088 H 0.63603 0.24909 0.18099 0.0
H1089 H 0.62366 0.41215 0.23766 0.0
H1090 H 0.55511 0.28817 0.20532 0.0
H1091 H 0.69395 0.35672 0.26345 0.0
H1092 H 0.60141 0.37169 0.20972 0.0
H1093 H 0.66053 0.29398 0.19503 0.0
C1094 C 0.62338 0.2673 0.1886 0.0
C1095 C 0.59357 0.2649 0.19233 0.0
C1096 C 0.62194 0.36865 0.2211 0.0
C1097 C 0.62128 0.31608 0.20799 0.0
C1098 C 0.63466 0.39165 0.23684 0.0
C1099 C 0.66051 0.38758 0.25297 0.0
C1100 C 0.6356 0.34175 0.22095 0.0
C1101 C 0.67385 0.36059 0.25149 0.0
C1102 C 0.63736 0.29277 0.19674 0.0
C1103 C 0.57818 0.28908 0.20249 0.0
N1104 N 0.66124 0.33867 0.23577 0.0
N1105 N 0.59222 0.31369 0.21005 0.0
H1106 H 0.22674 0.61346 0.67119 0.0
H1107 H 0.11772 0.62779 0.81219 0.0
H1108 H 0.22132 0.5535 0.74772 0.0
H1109 H 0.1004 0.6692 0.72438 0.0
H1110 H 0.15771 0.60252 0.78863 0.0
H1111 H 0.182 0.63599 0.68942 0.0
C1112 C 0.2161 0.60484 0.69155 0.0
C1113 C 0.22807 0.58166 0.70805 0.0
C1114 C 0.14513 0.61697 0.77432 0.0
C1115 C 0.17724 0.60742 0.729 0.0
C1116 C 0.12233 0.63156 0.78787 0.0
C1117 C 0.10579 0.65076 0.7703 0.0
C1118 C 0.15192 0.6218 0.74295 0.0
C1119 C 0.11262 0.65449 0.7387 0.0
C1120 C 0.19059 0.61769 0.70188 0.0
C1121 C 0.21324 0.57141 0.73426 0.0
N1122 N 0.13546 0.64035 0.72604 0.0
N1123 N 0.18888 0.58449 0.74399 0.0
H1124 H 0.85198 0.14173 0.31356 0.0
H1125 H 0.89563 0.227 0.16324 0.0
H1126 H 0.84631 0.09783 0.22514 0.0
H1127 H 0.94191 0.23248 0.25025 0.0
H1128 H 0.8709 0.18388 0.18306 0.0
H1129 H 0.87706 0.18083 0.28843 0.0
C1130 C 0.85602 0.14014 0.28882 0.0
C1131 C 0.8474 0.116 0.27162 0.0
C1132 C 0.88674 0.19453 0.19745 0.0
C1133 C 0.87594 0.16147 0.24251 0.0
C1134 C 0.90082 0.21909 0.18626 0.0
C1135 C 0.92072 0.23367 0.20518 0.0
C1136 C 0.89229 0.18504 0.22786 0.0
C1137 C 0.92661 0.22233 0.2348 0.0
C1138 C 0.87042 0.1626 0.2745 0.0
C1139 C 0.85287 0.11584 0.23939 0.0
N1140 N 0.91221 0.19903 0.24529 0.0
N1141 N 0.86679 0.13835 0.22575 0.0
H1142 H 0.27193 0.88755 0.67023 0.0
H1143 H 0.38072 0.87515 0.81232 0.0
H1144 H 0.27544 0.94655 0.74776 0.0
H1145 H 0.3953 0.82896 0.72679 0.0
H1146 H 0.34143 0.90079 0.78792 0.0
H1147 H 0.31658 0.86524 0.68899 0.0
C1148 C 0.28214 0.89602 0.69093 0.0
C1149 C 0.26966 0.91886 0.70754 0.0
C1150 C 0.35322 0.88521 0.77426 0.0
C1151 C 0.32047 0.89338 0.72907 0.0
C1152 C 0.37563 0.87041 0.78831 0.0
C1153 C 0.39112 0.84968 0.77169 0.0
C1154 C 0.34577 0.87909 0.74331 0.0
C1155 C 0.38384 0.84482 0.7404 0.0
C1156 C 0.30762 0.88328 0.70157 0.0
C1157 C 0.28394 0.92892 0.73419 0.0
N1158 N 0.36137 0.8592 0.72724 0.0
N1159 N 0.30832 0.916 0.74415 0.0
H1160 H 0.60949 0.22422 0.8317 0.0
H1161 H 0.6264 0.11892 0.68775 0.0
H1162 H 0.55181 0.22217 0.75292 0.0
H1163 H 0.66408 0.09822 0.7767 0.0
H1164 H 0.60111 0.15878 0.71159 0.0
H1165 H 0.63166 0.17955 0.8128 0.0
C1166 C 0.60129 0.21433 0.81069 0.0
C1167 C 0.57887 0.22722 0.79379 0.0
C1168 C 0.61472 0.14546 0.72606 0.0
C1169 C 0.60424 0.17648 0.77206 0.0
C1170 C 0.62931 0.12271 0.71237 0.0
C1171 C 0.64747 0.10524 0.7302 0.0
C1172 C 0.61854 0.15126 0.75784 0.0
C1173 C 0.65018 0.11114 0.76215 0.0
C1174 C 0.61393 0.18885 0.79997 0.0
C1175 C 0.56913 0.21335 0.76673 0.0
N1176 N 0.63608 0.13392 0.77496 0.0
N1177 N 0.58202 0.189 0.75665 0.0
H1178 H 0.39667 0.6148 0.2211 0.0
H1179 H 0.26053 0.62924 0.3328 0.0
H1180 H 0.38264 0.68953 0.27815 0.0
H1181 H 0.28151 0.55457 0.27775 0.0
H1182 H 0.30714 0.65027 0.31851 0.0
H1183 H 0.35699 0.59072 0.24709 0.0
C1184 C 0.3853 0.62594 0.23948 0.0
C1185 C 0.39266 0.65406 0.24754 0.0
C1186 C 0.30159 0.62912 0.30997 0.0
C1187 C 0.3467 0.62702 0.27709 0.0
C1188 C 0.27504 0.61708 0.31816 0.0
C1189 C 0.26688 0.5902 0.30617 0.0
C1190 C 0.32 0.61408 0.28978 0.0
C1191 C 0.28655 0.57544 0.28729 0.0
C1192 C 0.36261 0.61226 0.25435 0.0
C1193 C 0.37748 0.6677 0.27151 0.0
N1194 N 0.31195 0.58764 0.27957 0.0
N1195 N 0.35482 0.65417 0.28525 0.0
H1196 H 0.88011 0.38647 0.69822 0.0
H1197 H 0.89092 0.27486 0.83802 0.0
H1198 H 0.82764 0.39519 0.7803 0.0
H1199 H 0.95015 0.28018 0.76095 0.0
H1200 H 0.8688 0.32007 0.82052 0.0
H1201 H 0.90722 0.34868 0.72352 0.0
C1202 C 0.87432 0.38037 0.72169 0.0
C1203 C 0.85137 0.39366 0.73702 0.0
C1204 C 0.88694 0.31145 0.80783 0.0
C1205 C 0.88238 0.34999 0.76644 0.0
C1206 C 0.89962 0.2857 0.81783 0.0
C1207 C 0.9223 0.27345 0.80078 0.0
C1208 C 0.89706 0.32487 0.78065 0.0
C1209 C 0.93262 0.28847 0.77477 0.0
C1210 C 0.88994 0.35884 0.73629 0.0
C1211 C 0.84521 0.38534 0.76771 0.0
N1212 N 0.91981 0.3131 0.76546 0.0
N1213 N 0.86039 0.36365 0.78135 0.0
H1214 H 0.09639 0.8428 0.27881 0.0
H1215 H 0.23 0.94466 0.25555 0.0
H1216 H 0.13921 0.85625 0.19082 0.0
H1217 H 0.22951 0.88901 0.33608 0.0
H1218 H 0.18674 0.9215 0.23699 0.0
H1219 H 0.13687 0.8671 0.30507 0.0
C1220 C 0.1141 0.85086 0.26502 0.0
C1221 C 0.1141 0.84779 0.23243 0.0
C1222 C 0.19598 0.91451 0.25886 0.0
C1223 C 0.15971 0.87573 0.26215 0.0
C1224 C 0.22073 0.92775 0.26962 0.0
C1225 C 0.23386 0.91853 0.29731 0.0
C1226 C 0.18381 0.89197 0.27587 0.0
C1227 C 0.2203 0.89665 0.31449 0.0
C1228 C 0.13711 0.86456 0.28003 0.0
C1229 C 0.13779 0.85838 0.21581 0.0
N1230 N 0.19596 0.88391 0.30338 0.0
N1231 N 0.15935 0.8721 0.23079 0.0
H1232 H 0.32583 0.60212 0.78154 0.0
H1233 H 0.44955 0.71982 0.76186 0.0
H1234 H 0.37813 0.61385 0.69975 0.0
H1235 H 0.38506 0.72674 0.83375 0.0
H1236 H 0.42846 0.67496 0.74519 0.0
H1237 H 0.35184 0.642 0.8068 0.0
C1238 C 0.343 0.61283 0.76912 0.0
C1239 C 0.34967 0.60501 0.7384 0.0
C1240 C 0.41891 0.68614 0.76472 0.0
C1241 C 0.37935 0.65007 0.76694 0.0
C1242 C 0.43102 0.71187 0.77438 0.0
C1243 C 0.41894 0.72741 0.79913 0.0
C1244 C 0.39431 0.67562 0.77966 0.0
C1245 C 0.39501 0.7156 0.81444 0.0
C1246 C 0.35766 0.63559 0.78341 0.0
C1247 C 0.37196 0.61951 0.72322 0.0
N1248 N 0.38326 0.69046 0.80427 0.0
N1249 N 0.38591 0.6413 0.7376 0.0
H1250 H 0.9057 0.34146 0.27611 0.0
H1251 H 0.77279 0.44726 0.25023 0.0
H1252 H 0.87606 0.37162 0.18672 0.0
H1253 H 0.77971 0.39426 0.33243 0.0
H1254 H 0.81745 0.42709 0.23114 0.0
H1255 H 0.86568 0.3673 0.30095 0.0
C1256 C 0.891 0.35368 0.26174 0.0
C1257 C 0.89418 0.35426 0.22922 0.0
C1258 C 0.80933 0.41998 0.25346 0.0
C1259 C 0.84884 0.38394 0.25744 0.0
C1260 C 0.78379 0.43157 0.26451 0.0
C1261 C 0.77214 0.42222 0.2929 0.0
C1262 C 0.82359 0.39884 0.2708 0.0
C1263 C 0.78776 0.40198 0.31034 0.0
C1264 C 0.86817 0.36828 0.27592 0.0
C1265 C 0.87443 0.37033 0.21176 0.0
N1266 N 0.81265 0.39076 0.29889 0.0
N1267 N 0.85273 0.38451 0.22607 0.0
H1268 H 0.10734 0.77412 0.83306 0.0
H1269 H 0.12306 0.88185 0.69081 0.0
H1270 H 0.04932 0.77792 0.75468 0.0
H1271 H 0.16646 0.89767 0.7778 0.0
H1272 H 0.09675 0.84284 0.71486 0.0
H1273 H 0.12992 0.81877 0.81478 0.0
C1274 C 0.09911 0.78442 0.8123 0.0
C1275 C 0.07652 0.77199 0.79526 0.0
C1276 C 0.11185 0.85486 0.72891 0.0
C1277 C 0.10233 0.82276 0.77427 0.0
C1278 C 0.12704 0.8771 0.71507 0.0
C1279 C 0.14717 0.89285 0.73223 0.0
C1280 C 0.11699 0.84786 0.76018 0.0
C1281 C 0.15108 0.886 0.76378 0.0
C1282 C 0.11201 0.80989 0.80192 0.0
C1283 C 0.06678 0.78637 0.76854 0.0
N1284 N 0.13635 0.86369 0.77674 0.0
N1285 N 0.07987 0.81072 0.75882 0.0
H1286 H 0.60877 0.11014 0.2133 0.0
H1287 H 0.7337 0.11597 0.34048 0.0
H1288 H 0.61661 0.18035 0.27803 0.0
H1289 H 0.72144 0.04846 0.27296 0.0
H1290 H 0.68785 0.13734 0.32386 0.0
H1291 H 0.64643 0.08455 0.24083 0.0
C1292 C 0.61845 0.12009 0.23351 0.0
C1293 C 0.60999 0.1475 0.24317 0.0
C1294 C 0.69511 0.11762 0.31308 0.0
C1295 C 0.65362 0.11848 0.27485 0.0
C1296 C 0.7212 0.10535 0.32261 0.0
C1297 C 0.73165 0.0805 0.30786 0.0
C1298 C 0.67942 0.10478 0.28882 0.0
C1299 C 0.71456 0.06773 0.28482 0.0
C1300 C 0.63996 0.10546 0.24934 0.0
C1301 C 0.62273 0.15922 0.2699 0.0
N1302 N 0.68954 0.08009 0.27595 0.0
N1303 N 0.64434 0.1448 0.28462 0.0
H1304 H 0.38238 0.76691 0.17079 0.0
H1305 H 0.3907 0.89877 0.2894 0.0
H1306 H 0.45258 0.78323 0.23405 0.0
H1307 H 0.31942 0.88656 0.22696 0.0
H1308 H 0.41614 0.85953 0.2639 0.0
H1309 H 0.36126 0.81326 0.18559 0.0
C1310 C 0.39359 0.78035 0.18738 0.0
C1311 C 0.4192 0.77094 0.2014 0.0
C1312 C 0.39508 0.86549 0.25539 0.0
C1313 C 0.39512 0.82384 0.21845 0.0
C1314 C 0.38062 0.88791 0.26997 0.0
C1315 C 0.35304 0.89562 0.26023 0.0
C1316 C 0.38164 0.85028 0.23116 0.0
C1317 C 0.3408 0.88112 0.23492 0.0
C1318 C 0.38147 0.80677 0.19587 0.0
C1319 C 0.43271 0.7893 0.22279 0.0
N1320 N 0.35506 0.8588 0.22142 0.0
N1321 N 0.42043 0.81464 0.23076 0.0
H1322 H 0.72059 0.44789 0.74485 0.0
H1323 H 0.60114 0.32633 0.72239 0.0
H1324 H 0.72743 0.38391 0.67236 0.0
H1325 H 0.6146 0.37558 0.80611 0.0
H1326 H 0.64167 0.352 0.69801 0.0
H1327 H 0.67572 0.42667 0.76132 0.0
C1328 C 0.71264 0.42944 0.73217 0.0
C1329 C 0.72814 0.41755 0.70728 0.0
C1330 C 0.63552 0.35721 0.72164 0.0
C1331 C 0.67631 0.39285 0.72647 0.0
C1332 C 0.61238 0.34275 0.73545 0.0
C1333 C 0.6048 0.34868 0.76641 0.0
C1334 C 0.6506 0.37798 0.73885 0.0
C1335 C 0.62002 0.37001 0.7824 0.0
C1336 C 0.6869 0.41727 0.74172 0.0
C1337 C 0.71633 0.3937 0.69178 0.0
N1338 N 0.64212 0.38382 0.76847 0.0
N1339 N 0.69114 0.38196 0.70178 0.0
H1340 H 0.11078 0.61089 0.2883 0.0
H1341 H 0.11599 0.73604 0.16164 0.0
H1342 H 0.1808 0.61908 0.22347 0.0
H1343 H 0.0469 0.72163 0.2267 0.0
H1344 H 0.13784 0.69047 0.17834 0.0
H1345 H 0.08477 0.64821 0.26059 0.0
C1346 C 0.12058 0.62059 0.26802 0.0
C1347 C 0.14803 0.61234 0.25835 0.0
C1348 C 0.11767 0.69718 0.18855 0.0
C1349 C 0.11857 0.6555 0.22646 0.0
C1350 C 0.10513 0.72311 0.17896 0.0
C1351 C 0.0797 0.73291 0.19305 0.0
C1352 C 0.10456 0.68101 0.21224 0.0
C1353 C 0.06663 0.71527 0.2154 0.0
C1354 C 0.10572 0.64187 0.25209 0.0
C1355 C 0.15963 0.62507 0.23159 0.0
N1356 N 0.07929 0.69044 0.22439 0.0
N1357 N 0.14498 0.64646 0.21675 0.0
H1358 H 0.85856 0.15871 0.80797 0.0
H1359 H 0.77504 0.10232 0.66195 0.0
H1360 H 0.90519 0.15365 0.72116 0.0
H1361 H 0.76922 0.06273 0.7527 0.0
H1362 H 0.81797 0.12863 0.6798 0.0
H1363 H 0.81931 0.13245 0.78451 0.0
C1364 C 0.86069 0.15212 0.78393 0.0
C1365 C 0.88568 0.15797 0.76676 0.0
C1366 C 0.80727 0.11389 0.69546 0.0
C1367 C 0.84005 0.12814 0.73957 0.0
C1368 C 0.78282 0.09895 0.68542 0.0
C1369 C 0.76824 0.08044 0.70592 0.0
C1370 C 0.81661 0.11069 0.72631 0.0
C1371 C 0.7794 0.07686 0.73604 0.0
C1372 C 0.83814 0.13708 0.77058 0.0
C1373 C 0.88651 0.1493 0.73539 0.0
N1374 N 0.80258 0.09212 0.74538 0.0
N1375 N 0.86392 0.13476 0.72267 0.0
H1376 H 0.5619 0.18617 0.05902 0.0
H1377 H 0.48253 0.28485 0.93353 0.0
H1378 H 0.50652 0.25589 0.0872 0.0
H1379 H 0.56244 0.24034 0.91791 0.0
H1380 H 0.48253 0.26715 0.9877 0.0
H1381 H 0.55324 0.19837 0.00498 0.0
C1382 C 0.54779 0.20404 0.05393 0.0
C1383 C 0.53531 0.22033 0.07788 0.0
C1384 C 0.4998 0.26105 0.97218 0.0
C1385 C 0.52517 0.23433 0.01548 0.0
C1386 C 0.49968 0.27087 0.94132 0.0
C1387 C 0.52252 0.26397 0.92137 0.0
C1388 C 0.52263 0.24381 0.98266 0.0
C1389 C 0.54447 0.24619 0.9326 0.0
C1390 C 0.54286 0.21097 0.02294 0.0
C1391 C 0.51684 0.24296 0.06952 0.0
N1392 N 0.54396 0.23674 0.96242 0.0
N1393 N 0.51244 0.24944 0.03892 0.0
H1394 H 0.18897 0.56866 0.44297 0.0
H1395 H 0.28231 0.48477 0.56977 0.0
H1396 H 0.25341 0.5069 0.41557 0.0
H1397 H 0.24482 0.56853 0.58333 0.0
H1398 H 0.2644 0.48503 0.51567 0.0
H1399 H 0.20149 0.56074 0.49705 0.0
C1400 C 0.20573 0.55329 0.44825 0.0
C1401 C 0.22046 0.53875 0.42448 0.0
C1402 C 0.25992 0.50314 0.53072 0.0
C1403 C 0.23484 0.52949 0.48695 0.0
C1404 C 0.26987 0.5029 0.56155 0.0
C1405 C 0.265 0.52668 0.58092 0.0
C1406 C 0.24457 0.52706 0.5197 0.0
C1407 C 0.24912 0.54981 0.56912 0.0
C1408 C 0.21286 0.5488 0.47927 0.0
C1409 C 0.24171 0.51881 0.43309 0.0
N1410 N 0.23948 0.54939 0.53937 0.0
N1411 N 0.24841 0.51484 0.46371 0.0
H1412 H 0.02316 0.29487 0.0687 0.0
H1413 H 0.96103 0.18856 0.93965 0.0
H1414 H 0.94719 0.24307 0.0801 0.0
H1415 H 0.00206 0.26818 0.91364 0.0
H1416 H 0.96854 0.20032 0.99413 0.0
H1417 H 0.02722 0.27754 0.01455 0.0
C1418 C 0.00779 0.27937 0.06 0.0
C1419 C 0.98483 0.27026 0.07871 0.0
C1420 C 0.97618 0.21508 0.9765 0.0
C1421 C 0.98946 0.25041 0.01756 0.0
C1422 C 0.97192 0.20843 0.94531 0.0
C1423 C 0.98036 0.22773 0.92191 0.0
C1424 C 0.98921 0.24112 0.98463 0.0
C1425 C 0.99491 0.25284 0.93089 0.0
C1426 C 0.00998 0.26973 0.02918 0.0
C1427 C 0.96518 0.25058 0.06636 0.0
N1428 N 0.99865 0.259 0.96167 0.0
N1429 N 0.96798 0.24126 0.03662 0.0
H1430 H 0.31155 0.94234 0.4423 0.0
H1431 H 0.21305 0.01869 0.57014 0.0
H1432 H 0.24156 0.99818 0.41596 0.0
H1433 H 0.25863 0.93907 0.5837 0.0
H1434 H 0.23075 0.02016 0.516 0.0
H1435 H 0.3 0.95027 0.49663 0.0
C1436 C 0.29374 0.9564 0.44787 0.0
C1437 C 0.27714 0.96918 0.42436 0.0
C1438 C 0.23712 0.00264 0.53108 0.0
C1439 C 0.2639 0.97845 0.48708 0.0
C1440 C 0.22729 0.00194 0.56192 0.0
C1441 C 0.23447 0.97872 0.58125 0.0
C1442 C 0.25462 0.98027 0.52 0.0
C1443 C 0.25257 0.9573 0.56948 0.0
C1444 C 0.2872 0.96092 0.47902 0.0
C1445 C 0.25471 0.98763 0.4333 0.0
N1446 N 0.262 0.9586 0.53969 0.0
N1447 N 0.24855 0.99157 0.46405 0.0
H1448 H 0.4372 0.73973 0.92099 0.0
H1449 H 0.49914 0.7587 0.09104 0.0
H1450 H 0.51603 0.7861 0.93637 0.0
H1451 H 0.44327 0.68911 0.06373 0.0
H1452 H 0.50626 0.77032 0.03568 0.0
H1453 H 0.43921 0.72196 0.97423 0.0
C1454 C 0.4552 0.7458 0.93557 0.0
C1455 C 0.47654 0.76427 0.92434 0.0
C1456 C 0.49275 0.75232 0.04197 0.0
C1457 C 0.47866 0.74462 0.98574 0.0
C1458 C 0.48861 0.74572 0.07351 0.0
C1459 C 0.4702 0.72318 0.08214 0.0
C1460 C 0.47816 0.7364 0.0191 0.0
C1461 C 0.45728 0.70698 0.05838 0.0
C1462 C 0.45636 0.73568 0.96598 0.0
C1463 C 0.49933 0.77164 0.94418 0.0
N1464 N 0.46125 0.71411 0.02812 0.0
N1465 N 0.49958 0.76215 0.97421 0.0
H1466 H 0.77825 0.51491 0.57204 0.0
H1467 H 0.69291 0.43008 0.43924 0.0
H1468 H 0.74689 0.42814 0.58068 0.0
H1469 H 0.75145 0.49899 0.41702 0.0
H1470 H 0.70402 0.43625 0.49404 0.0
H1471 H 0.76042 0.51597 0.51797 0.0
C1472 C 0.76719 0.49633 0.56275 0.0
C1473 C 0.76408 0.47136 0.58073 0.0
C1474 C 0.71436 0.45015 0.47723 0.0
C1475 C 0.74368 0.47249 0.51948 0.0
C1476 C 0.70802 0.44668 0.44583 0.0
C1477 C 0.7216 0.46376 0.42329 0.0
C1478 C 0.73436 0.47096 0.4865 0.0
C1479 C 0.7407 0.48515 0.43354 0.0
C1480 C 0.75725 0.49688 0.53193 0.0
C1481 C 0.74987 0.44776 0.56756 0.0
N1482 N 0.74668 0.48806 0.46446 0.0
N1483 N 0.74022 0.44893 0.53783 0.0
H1484 H 0.04165 0.81771 0.0563 0.0
H1485 H 0.97589 0.70975 0.93065 0.0
H1486 H 0.9988 0.73964 0.08427 0.0
H1487 H 0.05025 0.76308 0.91572 0.0
H1488 H 0.97292 0.72795 0.98455 0.0
H1489 H 0.03282 0.80557 0.00217 0.0
C1490 C 0.03013 0.79807 0.05114 0.0
C1491 C 0.0215 0.77934 0.07498 0.0
C1492 C 0.98954 0.73592 0.9692 0.0
C1493 C 0.01118 0.76545 0.01263 0.0
C1494 C 0.99108 0.7258 0.93851 0.0
C1495 C 0.01332 0.73506 0.9189 0.0
C1496 C 0.00999 0.75583 0.9798 0.0
C1497 C 0.0328 0.75544 0.93018 0.0
C1498 C 0.0251 0.7912 0.02014 0.0
C1499 C 0.00612 0.75453 0.06665 0.0
N1500 N 0.03067 0.76515 0.95983 0.0
N1501 N 0.00168 0.7481 0.03604 0.0
H1502 H 0.76308 0.04943 0.58747 0.0
H1503 H 0.7368 0.99873 0.41544 0.0
H1504 H 0.70768 0.97733 0.56904 0.0
H1505 H 0.81496 0.04026 0.44538 0.0
H1506 H 0.72472 0.98969 0.47034 0.0
H1507 H 0.78165 0.04625 0.53453 0.0
C1508 C 0.75525 0.03257 0.5723 0.0
C1509 C 0.73407 0.01348 0.58252 0.0
C1510 C 0.74471 0.00036 0.4647 0.0
C1511 C 0.75446 0.0102 0.52154 0.0
C1512 C 0.75159 0.00555 0.43342 0.0
C1513 C 0.77665 0.02078 0.42577 0.0
C1514 C 0.7629 0.01075 0.48827 0.0
C1515 C 0.79511 0.02897 0.45006 0.0
C1516 C 0.7658 0.03074 0.54209 0.0
C1517 C 0.72432 0.99218 0.56197 0.0
N1518 N 0.78766 0.02423 0.4801 0.0
N1519 N 0.73423 0.9914 0.53212 0.0
loop_
_geom_bond_atom_site_label_1
_geom_bond_atom_site_label_2
_geom_bond_distance
_geom_bond_site_symmetry_2
_ccdc_geom_bond_type
Co0 O2 2.143 . S
Co0 O8 2.074 . S
Co0 O11 2.093 . S
Co0 O24 2.097 . S
Co0 N41 2.151 . S
Co0 N49 2.214 . S
Co1 O2 2.160 . S
Co1 O7 2.058 . S
Co1 O17 2.057 . S
Co1 O32 2.037 . S
Co1 N36 2.145 . S
Co1 N57 2.257 . S
O2 Co0 2.143 . S
O2 Co1 2.160 . S
C3 O4 1.278 . S
C3 O11 1.224 . S
O4 C3 1.278 . S
C5 O6 1.245 . S
C5 O17 1.232 . S
O6 C5 1.245 . S
O7 Co1 2.058 . S
O7 C33 1.269 . S
O8 Co0 2.074 . S
O8 C33 1.257 . S
H9 C34 0.930 . S
H10 C40 0.930 . S
O11 Co0 2.093 . S
O11 C3 1.224 . S
H12 C44 0.929 . S
H13 C46 0.930 . S
H14 C47 0.930 . S
H15 C45 0.929 . S
H16 C48 0.928 . S
O17 Co1 2.057 . S
O17 C5 1.232 . S
H18 C37 0.929 . S
H19 C38 0.929 . S
H20 C50 0.931 . S
H21 C42 0.929 . S
H22 C51 0.930 . S
H23 C43 0.931 . S
O24 Co0 2.097 . S
O24 C52 1.214 . S
H25 C53 0.929 . S
H26 C54 0.929 . S
H27 C55 0.930 . S
H28 C56 0.929 . S
H29 C58 0.930 . S
H30 C35 0.930 . S
H31 C39 0.930 . S
O32 Co1 2.037 . S
O32 C52 1.234 . S
C33 O7 1.269 . S
C33 O8 1.257 . S
C34 H9 0.930 . S
C34 C37 1.388 . S
C34 C39 1.418 . S
C35 H30 0.930 . S
C35 C38 1.404 . S
C35 C39 1.353 . S
N36 Co1 2.145 . S
N36 C37 1.397 . S
N36 C38 1.334 . S
C37 H18 0.929 . S
C37 C34 1.388 . S
C37 N36 1.397 . S
C38 H19 0.929 . S
C38 C35 1.404 . S
C38 N36 1.334 . S
C39 H31 0.930 . S
C39 C34 1.418 . S
C39 C35 1.353 . S
C40 H10 0.930 . S
C40 N41 1.330 . S
C40 C42 1.446 . S
N41 Co0 2.151 . S
N41 C40 1.330 . S
N41 C45 1.418 . S
C42 H21 0.929 . S
C42 C40 1.446 . S
C42 C43 1.332 . S
C43 H23 0.931 . S
C43 C42 1.332 . S
C43 C44 1.267 . S
C44 H12 0.929 . S
C44 C43 1.267 . S
C44 C45 1.251 . S
C45 H15 0.929 . S
C45 N41 1.418 . S
C45 C44 1.251 . S
C46 H13 0.930 . S
C46 C48 1.406 . S
C46 C51 1.261 . S
C47 H14 0.930 . S
C47 N49 1.325 . S
C47 C50 1.357 . S
C48 H16 0.928 . S
C48 C46 1.406 . S
C48 N49 1.261 . S
N49 Co0 2.214 . S
N49 C47 1.325 . S
N49 C48 1.261 . S
C50 H20 0.931 . S
C50 C47 1.357 . S
C50 C51 1.312 . S
C51 H22 0.930 . S
C51 C46 1.261 . S
C51 C50 1.312 . S
C52 O24 1.214 . S
C52 O32 1.234 . S
C53 H25 0.929 . S
C53 C56 1.391 . S
C53 C58 1.391 . S
C54 H26 0.929 . S
C54 C55 1.390 . S
C54 N57 1.391 . S
C55 H27 0.930 . S
C55 C54 1.390 . S
C55 C56 1.392 . S
C56 H28 0.929 . S
C56 C53 1.391 . S
C56 C55 1.392 . S
N57 Co1 2.257 . S
N57 C54 1.391 . S
N57 C58 1.388 . S
C58 H29 0.930 . S
C58 C53 1.391 . S
C58 N57 1.388 . S
Co59 O61 2.143 . S
Co59 O67 2.074 . S
Co59 O70 2.093 . S
Co59 O83 2.097 . S
Co59 N100 2.151 . S
Co59 N108 2.214 . S
Co60 O61 2.160 . S
Co60 O66 2.058 . S
Co60 O76 2.057 . S
Co60 O91 2.037 . S
Co60 N95 2.145 . S
Co60 N116 2.257 . S
O61 Co59 2.143 . S
O61 Co60 2.160 . S
C62 O63 1.278 . S
C62 O70 1.224 . S
O63 C62 1.278 . S
C64 O65 1.245 . S
C64 O76 1.232 . S
O65 C64 1.245 . S
O66 Co60 2.058 . S
O66 C92 1.269 . S
O67 Co59 2.074 . S
O67 C92 1.257 . S
H68 C93 0.930 . S
H69 C99 0.930 . S
O70 Co59 2.093 . S
O70 C62 1.224 . S
H71 C103 0.929 . S
H72 C105 0.930 . S
H73 C106 0.930 . S
H74 C104 0.929 . S
H75 C107 0.928 . S
O76 Co60 2.057 . S
O76 C64 1.232 . S
H77 C96 0.929 . S
H78 C97 0.929 . S
H79 C109 0.931 . S
H80 C101 0.929 . S
H81 C110 0.930 . S
H82 C102 0.931 . S
O83 Co59 2.097 . S
O83 C111 1.214 . S
H84 C112 0.929 . S
H85 C113 0.929 . S
H86 C114 0.930 . S
H87 C115 0.929 . S
H88 C117 0.930 . S
H89 C94 0.930 . S
H90 C98 0.930 . S
O91 Co60 2.037 . S
O91 C111 1.234 . S
C92 O66 1.269 . S
C92 O67 1.257 . S
C93 H68 0.930 . S
C93 C96 1.388 . S
C93 C98 1.418 . S
C94 H89 0.930 . S
C94 C97 1.404 . S
C94 C98 1.353 . S
N95 Co60 2.145 . S
N95 C96 1.397 . S
N95 C97 1.334 . S
C96 H77 0.929 . S
C96 C93 1.388 . S
C96 N95 1.397 . S
C97 H78 0.929 . S
C97 C94 1.404 . S
C97 N95 1.334 . S
C98 H90 0.930 . S
C98 C93 1.418 . S
C98 C94 1.353 . S
C99 H69 0.930 . S
C99 N100 1.330 . S
C99 C101 1.446 . S
N100 Co59 2.151 . S
N100 C99 1.330 . S
N100 C104 1.418 . S
C101 H80 0.929 . S
C101 C99 1.446 . S
C101 C102 1.332 . S
C102 H82 0.931 . S
C102 C101 1.332 . S
C102 C103 1.267 . S
C103 H71 0.929 . S
C103 C102 1.267 . S
C103 C104 1.251 . S
C104 H74 0.929 . S
C104 N100 1.418 . S
C104 C103 1.251 . S
C105 H72 0.930 . S
C105 C107 1.406 . S
C105 C110 1.261 . S
C106 H73 0.930 . S
C106 N108 1.325 . S
C106 C109 1.357 . S
C107 H75 0.928 . S
C107 C105 1.406 . S
C107 N108 1.261 . S
N108 Co59 2.214 . S
N108 C106 1.325 . S
N108 C107 1.261 . S
C109 H79 0.931 . S
C109 C106 1.357 . S
C109 C110 1.312 . S
C110 H81 0.930 . S
C110 C105 1.261 . S
C110 C109 1.312 . S
C111 O83 1.214 . S
C111 O91 1.234 . S
C112 H84 0.929 . S
C112 C115 1.391 . S
C112 C117 1.391 . S
C113 H85 0.929 . S
C113 C114 1.390 . S
C113 N116 1.391 . S
C114 H86 0.930 . S
C114 C113 1.390 . S
C114 C115 1.392 . S
C115 H87 0.929 . S
C115 C112 1.391 . S
C115 C114 1.392 . S
N116 Co60 2.257 . S
N116 C113 1.391 . S
N116 C117 1.388 . S
C117 H88 0.930 . S
C117 C112 1.391 . S
C117 N116 1.388 . S
Co118 O120 2.143 . S
Co118 O126 2.074 . S
Co118 O129 2.093 . S
Co118 O142 2.097 . S
Co118 N159 2.151 . S
Co118 N167 2.214 . S
Co119 O120 2.160 . S
Co119 O125 2.058 . S
Co119 O135 2.057 1_655 S
Co119 O150 2.037 . S
Co119 N154 2.145 . S
Co119 N175 2.257 1_655 S
O120 Co118 2.143 . S
O120 Co119 2.160 . S
C121 O122 1.278 1_655 S
C121 O129 1.224 . S
O122 C121 1.278 1_455 S
C123 O124 1.245 . S
C123 O135 1.232 . S
O124 C123 1.245 . S
O125 Co119 2.058 . S
O125 C151 1.269 . S
O126 Co118 2.074 . S
O126 C151 1.257 . S
H127 C152 0.930 . S
H128 C158 0.930 . S
O129 Co118 2.093 . S
O129 C121 1.224 . S
H130 C162 0.929 . S
H131 C164 0.930 . S
H132 C165 0.930 . S
H133 C163 0.929 . S
H134 C166 0.928 . S
O135 Co119 2.057 1_455 S
O135 C123 1.232 . S
H136 C155 0.929 . S
H137 C156 0.929 . S
H138 C168 0.931 . S
H139 C160 0.929 . S
H140 C169 0.930 . S
H141 C161 0.931 . S
O142 Co118 2.097 . S
O142 C170 1.214 . S
H143 C171 0.929 . S
H144 C172 0.939 . S
H145 C173 0.930 . S
H146 C174 0.929 . S
H147 C176 0.930 . S
H148 C153 0.930 . S
H149 C157 0.930 1_455 S
O150 Co119 2.037 . S
O150 C170 1.234 . S
C151 O125 1.269 . S
C151 O126 1.257 . S
C152 H127 0.930 . S
C152 C155 1.388 . S
C152 C157 1.418 . S
C153 H148 0.930 . S
C153 C156 1.404 . S
C153 C157 1.353 1_455 S
N154 Co119 2.145 . S
N154 C155 1.397 . S
N154 C156 1.334 1_655 S
C155 H136 0.929 . S
C155 C152 1.388 . S
C155 N154 1.397 . S
C156 H137 0.929 . S
C156 C153 1.404 . S
C156 N154 1.334 1_455 S
C157 H149 0.930 1_655 S
C157 C152 1.418 . S
C157 C153 1.353 1_655 S
C158 H128 0.930 . S
C158 N159 1.330 . S
C158 C160 1.446 . S
N159 Co118 2.151 . S
N159 C158 1.330 . S
N159 C163 1.418 . S
C160 H139 0.929 . S
C160 C158 1.446 . S
C160 C161 1.332 . S
C161 H141 0.931 . S
C161 C160 1.332 . S
C161 C162 1.267 . S
C162 H130 0.929 . S
C162 C161 1.267 . S
C162 C163 1.251 . S
C163 H133 0.929 . S
C163 N159 1.418 . S
C163 C162 1.251 . S
C164 H131 0.930 . S
C164 C166 1.406 . S
C164 C169 1.261 . S
C165 H132 0.930 . S
C165 N167 1.325 . S
C165 C168 1.357 . S
C166 H134 0.928 . S
C166 C164 1.406 . S
C166 N167 1.261 . S
N167 Co118 2.214 . S
N167 C165 1.325 . S
N167 C166 1.261 . S
C168 H138 0.931 . S
C168 C165 1.357 . S
C168 C169 1.312 . S
C169 H140 0.930 . S
C169 C164 1.261 . S
C169 C168 1.312 . S
C170 O142 1.214 . S
C170 O150 1.234 . S
C171 H143 0.929 . S
C171 C174 1.391 . S
C171 C176 1.391 . S
C172 H144 0.939 . S
C172 C173 1.390 . S
C172 N175 1.391 . S
C173 H145 0.930 . S
C173 C172 1.390 . S
C173 C174 1.392 . S
C174 H146 0.929 . S
C174 C171 1.391 . S
C174 C173 1.392 . S
N175 Co119 2.257 1_455 S
N175 C172 1.391 . S
N175 C176 1.388 . S
C176 H147 0.930 . S
C176 C171 1.391 . S
C176 N175 1.388 . S
Co177 O179 2.143 . S
Co177 O185 2.074 . S
Co177 O188 2.093 . S
Co177 O201 2.097 . S
Co177 N218 2.151 . S
Co177 N226 2.214 . S
Co178 O179 2.160 . S
Co178 O184 2.058 . S
Co178 O194 2.057 1_565 S
Co178 O209 2.037 . S
Co178 N213 2.145 . S
Co178 N234 2.257 1_565 S
O179 Co177 2.143 . S
O179 Co178 2.160 . S
C180 O181 1.278 1_565 S
C180 O188 1.224 . S
O181 C180 1.278 1_545 S
C182 O183 1.245 . S
C182 O194 1.232 . S
O183 C182 1.245 . S
O184 Co178 2.058 . S
O184 C210 1.269 . S
O185 Co177 2.074 . S
O185 C210 1.257 . S
H186 C211 0.930 . S
H187 C217 0.930 . S
O188 Co177 2.093 . S
O188 C180 1.224 . S
H189 C221 0.929 . S
H190 C223 0.930 . S
H191 C224 0.930 . S
H192 C222 0.929 . S
H193 C225 0.928 . S
O194 Co178 2.057 1_545 S
O194 C182 1.232 . S
H195 C214 0.929 . S
H196 C215 0.929 . S
H197 C227 0.931 . S
H198 C219 0.929 . S
H199 C228 0.930 . S
H200 C220 0.931 . S
O201 Co177 2.097 . S
O201 C229 1.214 . S
H202 C230 0.929 . S
H203 C231 0.939 . S
H204 C232 0.930 . S
H205 C233 0.929 . S
H206 C235 0.930 . S
H207 C212 0.930 . S
H208 C216 0.930 1_545 S
O209 Co178 2.037 . S
O209 C229 1.234 . S
C210 O184 1.269 . S
C210 O185 1.257 . S
C211 H186 0.930 . S
C211 C214 1.388 . S
C211 C216 1.418 . S
C212 H207 0.930 . S
C212 C215 1.404 . S
C212 C216 1.353 1_545 S
N213 Co178 2.145 . S
N213 C214 1.397 . S
N213 C215 1.334 1_565 S
C214 H195 0.929 . S
C214 C211 1.388 . S
C214 N213 1.397 . S
C215 H196 0.929 . S
C215 C212 1.404 . S
C215 N213 1.334 1_545 S
C216 H208 0.930 1_565 S
C216 C211 1.418 . S
C216 C212 1.353 1_565 S
C217 H187 0.930 . S
C217 N218 1.330 . S
C217 C219 1.446 . S
N218 Co177 2.151 . S
N218 C217 1.330 . S
N218 C222 1.418 . S
C219 H198 0.929 . S
C219 C217 1.446 . S
C219 C220 1.332 . S
C220 H200 0.931 . S
C220 C219 1.332 . S
C220 C221 1.267 . S
C221 H189 0.929 . S
C221 C220 1.267 . S
C221 C222 1.251 . S
C222 H192 0.929 . S
C222 N218 1.418 . S
C222 C221 1.251 . S
C223 H190 0.930 . S
C223 C225 1.406 . S
C223 C228 1.261 . S
C224 H191 0.930 . S
C224 N226 1.325 . S
C224 C227 1.357 . S
C225 H193 0.928 . S
C225 C223 1.406 . S
C225 N226 1.261 . S
N226 Co177 2.214 . S
N226 C224 1.325 . S
N226 C225 1.261 . S
C227 H197 0.931 . S
C227 C224 1.357 . S
C227 C228 1.312 . S
C228 H199 0.930 . S
C228 C223 1.261 . S
C228 C227 1.312 . S
C229 O201 1.214 . S
C229 O209 1.234 . S
C230 H202 0.929 . S
C230 C233 1.391 . S
C230 C235 1.391 . S
C231 H203 0.939 . S
C231 C232 1.390 . S
C231 N234 1.391 . S
C232 H204 0.930 . S
C232 C231 1.390 . S
C232 C233 1.392 . S
C233 H205 0.929 . S
C233 C230 1.391 . S
C233 C232 1.392 . S
N234 Co178 2.257 1_545 S
N234 C231 1.391 . S
N234 C235 1.388 . S
C235 H206 0.930 . S
C235 C230 1.391 . S
C235 N234 1.388 . S
Co236 O238 2.143 . S
Co236 O244 2.074 . S
Co236 O247 2.093 . S
Co236 O260 2.097 . S
Co236 N277 2.151 . S
Co236 N285 2.214 . S
Co237 O238 2.160 . S
Co237 O243 2.058 . S
Co237 O253 2.057 . S
Co237 O268 2.037 . S
Co237 N272 2.145 . S
Co237 N293 2.257 . S
O238 Co236 2.143 . S
O238 Co237 2.160 . S
C239 O240 1.278 . S
C239 O247 1.224 . S
O240 C239 1.278 . S
C241 O242 1.245 . S
C241 O253 1.232 . S
O242 C241 1.245 . S
O243 Co237 2.058 . S
O243 C269 1.269 . S
O244 Co236 2.074 . S
O244 C269 1.257 . S
H245 C270 0.930 . S
H246 C276 0.930 . S
O247 Co236 2.093 . S
O247 C239 1.224 . S
H248 C280 0.929 . S
H249 C282 0.930 . S
H250 C283 0.930 . S
H251 C281 0.929 . S
H252 C284 0.928 . S
O253 Co237 2.057 . S
O253 C241 1.232 . S
H254 C273 0.929 . S
H255 C274 0.929 . S
H256 C286 0.931 . S
H257 C278 0.929 . S
H258 C287 0.930 . S
H259 C279 0.931 . S
O260 Co236 2.097 . S
O260 C288 1.214 . S
H261 C289 0.929 . S
H262 C290 0.929 . S
H263 C291 0.930 . S
H264 C292 0.929 . S
H265 C294 0.930 . S
H266 C271 0.930 . S
H267 C275 0.930 . S
O268 Co237 2.037 . S
O268 C288 1.234 . S
C269 O243 1.269 . S
C269 O244 1.257 . S
C270 H245 0.930 . S
C270 C273 1.388 . S
C270 C275 1.418 . S
C271 H266 0.930 . S
C271 C274 1.404 . S
C271 C275 1.353 . S
N272 Co237 2.145 . S
N272 C273 1.397 . S
N272 C274 1.334 . S
C273 H254 0.929 . S
C273 C270 1.388 . S
C273 N272 1.397 . S
C274 H255 0.929 . S
C274 C271 1.404 . S
C274 N272 1.334 . S
C275 H267 0.930 . S
C275 C270 1.418 . S
C275 C271 1.353 . S
C276 H246 0.930 . S
C276 N277 1.330 . S
C276 C278 1.446 . S
N277 Co236 2.151 . S
N277 C276 1.330 . S
N277 C281 1.418 . S
C278 H257 0.929 . S
C278 C276 1.446 . S
C278 C279 1.332 . S
C279 H259 0.931 . S
C279 C278 1.332 . S
C279 C280 1.267 . S
C280 H248 0.929 . S
C280 C279 1.267 . S
C280 C281 1.251 . S
C281 H251 0.929 . S
C281 N277 1.418 . S
C281 C280 1.251 . S
C282 H249 0.930 . S
C282 C284 1.406 . S
C282 C287 1.261 . S
C283 H250 0.930 . S
C283 N285 1.325 . S
C283 C286 1.357 . S
C284 H252 0.928 . S
C284 C282 1.406 . S
C284 N285 1.261 . S
N285 Co236 2.214 . S
N285 C283 1.325 . S
N285 C284 1.261 . S
C286 H256 0.931 . S
C286 C283 1.357 . S
C286 C287 1.312 . S
C287 H258 0.930 . S
C287 C282 1.261 . S
C287 C286 1.312 . S
C288 O260 1.214 . S
C288 O268 1.234 . S
C289 H261 0.929 . S
C289 C292 1.391 . S
C289 C294 1.391 . S
C290 H262 0.929 . S
C290 C291 1.390 . S
C290 N293 1.391 . S
C291 H263 0.930 . S
C291 C290 1.390 . S
C291 C292 1.392 . S
C292 H264 0.929 . S
C292 C289 1.391 . S
C292 C291 1.392 . S
N293 Co237 2.257 . S
N293 C290 1.391 . S
N293 C294 1.388 . S
C294 H265 0.930 . S
C294 C289 1.391 . S
C294 N293 1.388 . S
Co295 O297 2.143 . S
Co295 O303 2.074 . S
Co295 O306 2.093 . S
Co295 O319 2.097 . S
Co295 N336 2.151 . S
Co295 N344 2.214 . S
Co296 O297 2.160 . S
Co296 O302 2.058 . S
Co296 O312 2.057 . S
Co296 O327 2.037 . S
Co296 N331 2.145 . S
Co296 N352 2.257 . S
O297 Co295 2.143 . S
O297 Co296 2.160 . S
C298 O299 1.278 . S
C298 O306 1.224 . S
O299 C298 1.278 . S
C300 O301 1.245 . S
C300 O312 1.232 . S
O301 C300 1.245 . S
O302 Co296 2.058 . S
O302 C328 1.269 . S
O303 Co295 2.074 . S
O303 C328 1.257 . S
H304 C329 0.930 . S
H305 C335 0.930 . S
O306 Co295 2.093 . S
O306 C298 1.224 . S
H307 C339 0.929 . S
H308 C341 0.930 . S
H309 C342 0.930 . S
H310 C340 0.929 . S
H311 C343 0.928 . S
O312 Co296 2.057 . S
O312 C300 1.232 . S
H313 C332 0.929 . S
H314 C333 0.929 . S
H315 C345 0.931 . S
H316 C337 0.929 . S
H317 C346 0.930 . S
H318 C338 0.931 . S
O319 Co295 2.097 . S
O319 C347 1.214 . S
H320 C348 0.929 . S
H321 C349 0.929 . S
H322 C350 0.930 . S
H323 C351 0.929 . S
H324 C353 0.930 . S
H325 C330 0.930 . S
H326 C334 0.930 . S
O327 Co296 2.037 . S
O327 C347 1.234 . S
C328 O302 1.269 . S
C328 O303 1.257 . S
C329 H304 0.930 . S
C329 C332 1.388 . S
C329 C334 1.418 . S
C330 H325 0.930 . S
C330 C333 1.404 . S
C330 C334 1.353 . S
N331 Co296 2.145 . S
N331 C332 1.397 . S
N331 C333 1.334 . S
C332 H313 0.929 . S
C332 C329 1.388 . S
C332 N331 1.397 . S
C333 H314 0.929 . S
C333 C330 1.404 . S
C333 N331 1.334 . S
C334 H326 0.930 . S
C334 C329 1.418 . S
C334 C330 1.353 . S
C335 H305 0.930 . S
C335 N336 1.330 . S
C335 C337 1.446 . S
N336 Co295 2.151 . S
N336 C335 1.330 . S
N336 C340 1.418 . S
C337 H316 0.929 . S
C337 C335 1.446 . S
C337 C338 1.332 . S
C338 H318 0.931 . S
C338 C337 1.332 . S
C338 C339 1.267 . S
C339 H307 0.929 . S
C339 C338 1.267 . S
C339 C340 1.251 . S
C340 H310 0.929 . S
C340 N336 1.418 . S
C340 C339 1.251 . S
C341 H308 0.930 . S
C341 C343 1.406 . S
C341 C346 1.261 . S
C342 H309 0.930 . S
C342 N344 1.325 . S
C342 C345 1.357 . S
C343 H311 0.928 . S
C343 C341 1.406 . S
C343 N344 1.261 . S
N344 Co295 2.214 . S
N344 C342 1.325 . S
N344 C343 1.261 . S
C345 H315 0.931 . S
C345 C342 1.357 . S
C345 C346 1.312 . S
C346 H317 0.930 . S
C346 C341 1.261 . S
C346 C345 1.312 . S
C347 O319 1.214 . S
C347 O327 1.234 . S
C348 H320 0.929 . S
C348 C351 1.391 . S
C348 C353 1.391 . S
C349 H321 0.929 . S
C349 C350 1.390 . S
C349 N352 1.391 . S
C350 H322 0.930 . S
C350 C349 1.390 . S
C350 C351 1.392 . S
C351 H323 0.929 . S
C351 C348 1.391 . S
C351 C350 1.392 . S
N352 Co296 2.257 . S
N352 C349 1.391 . S
N352 C353 1.388 . S
C353 H324 0.930 . S
C353 C348 1.391 . S
C353 N352 1.388 . S
Co354 O356 2.143 . S
Co354 O362 2.074 . S
Co354 O365 2.093 . S
Co354 O378 2.097 . S
Co354 N395 2.151 . S
Co354 N403 2.214 . S
Co355 O356 2.160 . S
Co355 O361 2.058 . S
Co355 O371 2.057 1_655 S
Co355 O386 2.037 . S
Co355 N390 2.145 . S
Co355 N411 2.257 1_655 S
O356 Co354 2.143 . S
O356 Co355 2.160 . S
C357 O358 1.278 1_655 S
C357 O365 1.224 . S
O358 C357 1.278 1_455 S
C359 O360 1.245 . S
C359 O371 1.232 . S
O360 C359 1.245 . S
O361 Co355 2.058 . S
O361 C387 1.269 . S
O362 Co354 2.074 . S
O362 C387 1.257 . S
H363 C388 0.930 . S
H364 C394 0.930 . S
O365 Co354 2.093 . S
O365 C357 1.224 . S
H366 C398 0.929 . S
H367 C400 0.930 . S
H368 C401 0.930 . S
H369 C399 0.929 . S
H370 C402 0.928 . S
O371 Co355 2.057 1_455 S
O371 C359 1.232 . S
H372 C391 0.929 . S
H373 C392 0.929 . S
H374 C404 0.931 . S
H375 C396 0.929 . S
H376 C405 0.930 . S
H377 C397 0.931 . S
O378 Co354 2.097 . S
O378 C406 1.214 . S
H379 C407 0.929 . S
H380 C408 0.939 . S
H381 C409 0.930 . S
H382 C410 0.929 . S
H383 C412 0.930 . S
H384 C389 0.930 . S
H385 C393 0.930 1_455 S
O386 Co355 2.037 . S
O386 C406 1.234 . S
C387 O361 1.269 . S
C387 O362 1.257 . S
C388 H363 0.930 . S
C388 C391 1.388 . S
C388 C393 1.418 . S
C389 H384 0.930 . S
C389 C392 1.404 . S
C389 C393 1.353 1_455 S
N390 Co355 2.145 . S
N390 C391 1.397 . S
N390 C392 1.334 1_655 S
C391 H372 0.929 . S
C391 C388 1.388 . S
C391 N390 1.397 . S
C392 H373 0.929 . S
C392 C389 1.404 . S
C392 N390 1.334 1_455 S
C393 H385 0.930 1_655 S
C393 C388 1.418 . S
C393 C389 1.353 1_655 S
C394 H364 0.930 . S
C394 N395 1.330 . S
C394 C396 1.446 . S
N395 Co354 2.151 . S
N395 C394 1.330 . S
N395 C399 1.418 . S
C396 H375 0.929 . S
C396 C394 1.446 . S
C396 C397 1.332 . S
C397 H377 0.931 . S
C397 C396 1.332 . S
C397 C398 1.267 . S
C398 H366 0.929 . S
C398 C397 1.267 . S
C398 C399 1.251 . S
C399 H369 0.929 . S
C399 N395 1.418 . S
C399 C398 1.251 . S
C400 H367 0.930 . S
C400 C402 1.406 . S
C400 C405 1.261 . S
C401 H368 0.930 . S
C401 N403 1.325 . S
C401 C404 1.357 . S
C402 H370 0.928 . S
C402 C400 1.406 . S
C402 N403 1.261 . S
N403 Co354 2.214 . S
N403 C401 1.325 . S
N403 C402 1.261 . S
C404 H374 0.931 . S
C404 C401 1.357 . S
C404 C405 1.312 . S
C405 H376 0.930 . S
C405 C400 1.261 . S
C405 C404 1.312 . S
C406 O378 1.214 . S
C406 O386 1.234 . S
C407 H379 0.929 . S
C407 C410 1.391 . S
C407 C412 1.391 . S
C408 H380 0.939 . S
C408 C409 1.390 . S
C408 N411 1.391 . S
C409 H381 0.930 . S
C409 C408 1.390 . S
C409 C410 1.392 . S
C410 H382 0.929 . S
C410 C407 1.391 . S
C410 C409 1.392 . S
N411 Co355 2.257 1_455 S
N411 C408 1.391 . S
N411 C412 1.388 . S
C412 H383 0.930 . S
C412 C407 1.391 . S
C412 N411 1.388 . S
Co413 O415 2.143 . S
Co413 O421 2.074 . S
Co413 O424 2.093 . S
Co413 O437 2.097 . S
Co413 N454 2.151 . S
Co413 N462 2.214 . S
Co414 O415 2.160 . S
Co414 O420 2.058 . S
Co414 O430 2.057 1_565 S
Co414 O445 2.037 . S
Co414 N449 2.145 . S
Co414 N470 2.257 1_565 S
O415 Co413 2.143 . S
O415 Co414 2.160 . S
C416 O417 1.278 1_565 S
C416 O424 1.224 . S
O417 C416 1.278 1_545 S
C418 O419 1.245 . S
C418 O430 1.232 . S
O419 C418 1.245 . S
O420 Co414 2.058 . S
O420 C446 1.269 . S
O421 Co413 2.074 . S
O421 C446 1.257 . S
H422 C447 0.930 . S
H423 C453 0.930 . S
O424 Co413 2.093 . S
O424 C416 1.224 . S
H425 C457 0.929 . S
H426 C459 0.930 . S
H427 C460 0.930 . S
H428 C458 0.929 . S
H429 C461 0.928 . S
O430 Co414 2.057 1_545 S
O430 C418 1.232 . S
H431 C450 0.929 . S
H432 C451 0.929 . S
H433 C463 0.931 . S
H434 C455 0.929 . S
H435 C464 0.930 . S
H436 C456 0.931 . S
O437 Co413 2.097 . S
O437 C465 1.214 . S
H438 C466 0.929 . S
H439 C467 0.939 . S
H440 C468 0.930 . S
H441 C469 0.929 . S
H442 C471 0.930 . S
H443 C448 0.930 . S
H444 C452 0.930 1_545 S
O445 Co414 2.037 . S
O445 C465 1.234 . S
C446 O420 1.269 . S
C446 O421 1.257 . S
C447 H422 0.930 . S
C447 C450 1.388 . S
C447 C452 1.418 . S
C448 H443 0.930 . S
C448 C451 1.404 . S
C448 C452 1.353 1_545 S
N449 Co414 2.145 . S
N449 C450 1.397 . S
N449 C451 1.334 1_565 S
C450 H431 0.929 . S
C450 C447 1.388 . S
C450 N449 1.397 . S
C451 H432 0.929 . S
C451 C448 1.404 . S
C451 N449 1.334 1_545 S
C452 H444 0.930 1_565 S
C452 C447 1.418 . S
C452 C448 1.353 1_565 S
C453 H423 0.930 . S
C453 N454 1.330 . S
C453 C455 1.446 . S
N454 Co413 2.151 . S
N454 C453 1.330 . S
N454 C458 1.418 . S
C455 H434 0.929 . S
C455 C453 1.446 . S
C455 C456 1.332 . S
C456 H436 0.931 . S
C456 C455 1.332 . S
C456 C457 1.267 . S
C457 H425 0.929 . S
C457 C456 1.267 . S
C457 C458 1.251 . S
C458 H428 0.929 . S
C458 N454 1.418 . S
C458 C457 1.251 . S
C459 H426 0.930 . S
C459 C461 1.406 . S
C459 C464 1.261 . S
C460 H427 0.930 . S
C460 N462 1.325 . S
C460 C463 1.357 . S
C461 H429 0.928 . S
C461 C459 1.406 . S
C461 N462 1.261 . S
N462 Co413 2.214 . S
N462 C460 1.325 . S
N462 C461 1.261 . S
C463 H433 0.931 . S
C463 C460 1.357 . S
C463 C464 1.312 . S
C464 H435 0.930 . S
C464 C459 1.261 . S
C464 C463 1.312 . S
C465 O437 1.214 . S
C465 O445 1.234 . S
C466 H438 0.929 . S
C466 C469 1.391 . S
C466 C471 1.391 . S
C467 H439 0.939 . S
C467 C468 1.390 . S
C467 N470 1.391 . S
C468 H440 0.930 . S
C468 C467 1.390 . S
C468 C469 1.392 . S
C469 H441 0.929 . S
C469 C466 1.391 . S
C469 C468 1.392 . S
N470 Co414 2.257 1_545 S
N470 C467 1.391 . S
N470 C471 1.388 . S
C471 H442 0.930 . S
C471 C466 1.391 . S
C471 N470 1.388 . S
Co472 O474 2.143 . S
Co472 O480 2.074 . S
Co472 O483 2.093 . S
Co472 O496 2.097 . S
Co472 N513 2.151 . S
Co472 N521 2.214 . S
Co473 O474 2.160 . S
Co473 O479 2.058 . S
Co473 O489 2.057 . S
Co473 O504 2.037 . S
Co473 N508 2.145 . S
Co473 N529 2.257 . S
O474 Co472 2.143 . S
O474 Co473 2.160 . S
C475 O476 1.278 . S
C475 O483 1.224 . S
O476 C475 1.278 . S
C477 O478 1.245 . S
C477 O489 1.232 . S
O478 C477 1.245 . S
O479 Co473 2.058 . S
O479 C505 1.269 . S
O480 Co472 2.074 . S
O480 C505 1.257 . S
H481 C506 0.930 . S
H482 C512 0.930 . S
O483 Co472 2.093 . S
O483 C475 1.224 . S
H484 C516 0.929 . S
H485 C518 0.930 . S
H486 C519 0.930 . S
H487 C517 0.929 . S
H488 C520 0.928 . S
O489 Co473 2.057 . S
O489 C477 1.232 . S
H490 C509 0.929 . S
H491 C510 0.929 . S
H492 C522 0.931 . S
H493 C514 0.929 . S
H494 C523 0.930 . S
H495 C515 0.931 . S
O496 Co472 2.097 . S
O496 C524 1.214 . S
H497 C525 0.929 . S
H498 C526 0.929 . S
H499 C527 0.930 . S
H500 C528 0.929 . S
H501 C530 0.930 . S
H502 C507 0.930 . S
H503 C511 0.930 . S
O504 Co473 2.037 . S
O504 C524 1.234 . S
C505 O479 1.269 . S
C505 O480 1.257 . S
C506 H481 0.930 . S
C506 C509 1.388 . S
C506 C511 1.418 . S
C507 H502 0.930 . S
C507 C510 1.404 . S
C507 C511 1.353 . S
N508 Co473 2.145 . S
N508 C509 1.397 . S
N508 C510 1.334 . S
C509 H490 0.929 . S
C509 C506 1.388 . S
C509 N508 1.397 . S
C510 H491 0.929 . S
C510 C507 1.404 . S
C510 N508 1.334 . S
C511 H503 0.930 . S
C511 C506 1.418 . S
C511 C507 1.353 . S
C512 H482 0.930 . S
C512 N513 1.330 . S
C512 C514 1.446 . S
N513 Co472 2.151 . S
N513 C512 1.330 . S
N513 C517 1.418 . S
C514 H493 0.929 . S
C514 C512 1.446 . S
C514 C515 1.332 . S
C515 H495 0.931 . S
C515 C514 1.332 . S
C515 C516 1.267 . S
C516 H484 0.929 . S
C516 C515 1.267 . S
C516 C517 1.251 . S
C517 H487 0.929 . S
C517 N513 1.418 . S
C517 C516 1.251 . S
C518 H485 0.930 . S
C518 C520 1.406 . S
C518 C523 1.261 . S
C519 H486 0.930 . S
C519 N521 1.325 . S
C519 C522 1.357 . S
C520 H488 0.928 . S
C520 C518 1.406 . S
C520 N521 1.261 . S
N521 Co472 2.214 . S
N521 C519 1.325 . S
N521 C520 1.261 . S
C522 H492 0.931 . S
C522 C519 1.357 . S
C522 C523 1.312 . S
C523 H494 0.930 . S
C523 C518 1.261 . S
C523 C522 1.312 . S
C524 O496 1.214 . S
C524 O504 1.234 . S
C525 H497 0.929 . S
C525 C528 1.391 . S
C525 C530 1.391 . S
C526 H498 0.929 . S
C526 C527 1.390 . S
C526 N529 1.391 . S
C527 H499 0.930 . S
C527 C526 1.390 . S
C527 C528 1.392 . S
C528 H500 0.929 . S
C528 C525 1.391 . S
C528 C527 1.392 . S
N529 Co473 2.257 . S
N529 C526 1.391 . S
N529 C530 1.388 . S
C530 H501 0.930 . S
C530 C525 1.391 . S
C530 N529 1.388 . S
Co531 O533 2.143 . S
Co531 O539 2.074 . S
Co531 O542 2.093 . S
Co531 O555 2.097 . S
Co531 N572 2.151 . S
Co531 N580 2.214 . S
Co532 O533 2.160 . S
Co532 O538 2.058 . S
Co532 O548 2.057 . S
Co532 O563 2.037 . S
Co532 N567 2.145 . S
Co532 N588 2.257 . S
O533 Co531 2.143 . S
O533 Co532 2.160 . S
C534 O535 1.278 . S
C534 O542 1.224 . S
O535 C534 1.278 . S
C536 O537 1.245 . S
C536 O548 1.232 . S
O537 C536 1.245 . S
O538 Co532 2.058 . S
O538 C564 1.269 . S
O539 Co531 2.074 . S
O539 C564 1.257 . S
H540 C565 0.930 . S
H541 C571 0.930 . S
O542 Co531 2.093 . S
O542 C534 1.224 . S
H543 C575 0.929 . S
H544 C577 0.930 . S
H545 C578 0.930 . S
H546 C576 0.929 . S
H547 C579 0.928 . S
O548 Co532 2.057 . S
O548 C536 1.232 . S
H549 C568 0.929 . S
H550 C569 0.929 . S
H551 C581 0.931 . S
H552 C573 0.929 . S
H553 C582 0.930 . S
H554 C574 0.931 . S
O555 Co531 2.097 . S
O555 C583 1.214 . S
H556 C584 0.929 . S
H557 C585 0.929 . S
H558 C586 0.930 . S
H559 C587 0.929 . S
H560 C589 0.930 . S
H561 C566 0.930 . S
H562 C570 0.930 . S
O563 Co532 2.037 . S
O563 C583 1.234 . S
C564 O538 1.269 . S
C564 O539 1.257 . S
C565 H540 0.930 . S
C565 C568 1.388 . S
C565 C570 1.418 . S
C566 H561 0.930 . S
C566 C569 1.404 . S
C566 C570 1.353 . S
N567 Co532 2.145 . S
N567 C568 1.397 . S
N567 C569 1.334 . S
C568 H549 0.929 . S
C568 C565 1.388 . S
C568 N567 1.397 . S
C569 H550 0.929 . S
C569 C566 1.404 . S
C569 N567 1.334 . S
C570 H562 0.930 . S
C570 C565 1.418 . S
C570 C566 1.353 . S
C571 H541 0.930 . S
C571 N572 1.330 . S
C571 C573 1.446 . S
N572 Co531 2.151 . S
N572 C571 1.330 . S
N572 C576 1.418 . S
C573 H552 0.929 . S
C573 C571 1.446 . S
C573 C574 1.332 . S
C574 H554 0.931 . S
C574 C573 1.332 . S
C574 C575 1.267 . S
C575 H543 0.929 . S
C575 C574 1.267 . S
C575 C576 1.251 . S
C576 H546 0.929 . S
C576 N572 1.418 . S
C576 C575 1.251 . S
C577 H544 0.930 . S
C577 C579 1.406 . S
C577 C582 1.261 . S
C578 H545 0.930 . S
C578 N580 1.325 . S
C578 C581 1.357 . S
C579 H547 0.928 . S
C579 C577 1.406 . S
C579 N580 1.261 . S
N580 Co531 2.214 . S
N580 C578 1.325 . S
N580 C579 1.261 . S
C581 H551 0.931 . S
C581 C578 1.357 . S
C581 C582 1.312 . S
C582 H553 0.930 . S
C582 C577 1.261 . S
C582 C581 1.312 . S
C583 O555 1.214 . S
C583 O563 1.234 . S
C584 H556 0.929 . S
C584 C587 1.391 . S
C584 C589 1.391 . S
C585 H557 0.929 . S
C585 C586 1.390 . S
C585 N588 1.391 . S
C586 H558 0.930 . S
C586 C585 1.390 . S
C586 C587 1.392 . S
C587 H559 0.929 . S
C587 C584 1.391 . S
C587 C586 1.392 . S
N588 Co532 2.257 . S
N588 C585 1.391 . S
N588 C589 1.388 . S
C589 H560 0.930 . S
C589 C584 1.391 . S
C589 N588 1.388 . S
Co590 O592 2.143 . S
Co590 O598 2.074 . S
Co590 O601 2.093 . S
Co590 O614 2.097 . S
Co590 N631 2.151 . S
Co590 N639 2.214 . S
Co591 O592 2.160 . S
Co591 O597 2.058 . S
Co591 O607 2.057 1_455 S
Co591 O622 2.037 . S
Co591 N626 2.145 . S
Co591 N647 2.257 1_455 S
O592 Co590 2.143 . S
O592 Co591 2.160 . S
C593 O594 1.278 1_455 S
C593 O601 1.224 . S
O594 C593 1.278 1_655 S
C595 O596 1.245 . S
C595 O607 1.232 . S
O596 C595 1.245 . S
O597 Co591 2.058 . S
O597 C623 1.269 . S
O598 Co590 2.074 . S
O598 C623 1.257 . S
H599 C624 0.930 . S
H600 C630 0.930 . S
O601 Co590 2.093 . S
O601 C593 1.224 . S
H602 C634 0.929 . S
H603 C636 0.930 . S
H604 C637 0.930 . S
H605 C635 0.929 . S
H606 C638 0.928 . S
O607 Co591 2.057 1_655 S
O607 C595 1.232 . S
H608 C627 0.929 . S
H609 C628 0.929 . S
H610 C640 0.931 . S
H611 C632 0.929 . S
H612 C641 0.930 . S
H613 C633 0.931 . S
O614 Co590 2.097 . S
O614 C642 1.214 . S
H615 C643 0.929 . S
H616 C644 0.939 . S
H617 C645 0.930 . S
H618 C646 0.929 . S
H619 C648 0.930 . S
H620 C625 0.930 . S
H621 C629 0.930 1_655 S
O622 Co591 2.037 . S
O622 C642 1.234 . S
C623 O597 1.269 . S
C623 O598 1.257 . S
C624 H599 0.930 . S
C624 C627 1.388 . S
C624 C629 1.418 . S
C625 H620 0.930 . S
C625 C628 1.404 . S
C625 C629 1.353 1_655 S
N626 Co591 2.145 . S
N626 C627 1.397 . S
N626 C628 1.334 1_455 S
C627 H608 0.929 . S
C627 C624 1.388 . S
C627 N626 1.397 . S
C628 H609 0.929 . S
C628 C625 1.404 . S
C628 N626 1.334 1_655 S
C629 H621 0.930 1_455 S
C629 C624 1.418 . S
C629 C625 1.353 1_455 S
C630 H600 0.930 . S
C630 N631 1.330 . S
C630 C632 1.446 . S
N631 Co590 2.151 . S
N631 C630 1.330 . S
N631 C635 1.418 . S
C632 H611 0.929 . S
C632 C630 1.446 . S
C632 C633 1.332 . S
C633 H613 0.931 . S
C633 C632 1.332 . S
C633 C634 1.267 . S
C634 H602 0.929 . S
C634 C633 1.267 . S
C634 C635 1.251 . S
C635 H605 0.929 . S
C635 N631 1.418 . S
C635 C634 1.251 . S
C636 H603 0.930 . S
C636 C638 1.406 . S
C636 C641 1.261 . S
C637 H604 0.930 . S
C637 N639 1.325 . S
C637 C640 1.357 . S
C638 H606 0.928 . S
C638 C636 1.406 . S
C638 N639 1.261 . S
N639 Co590 2.214 . S
N639 C637 1.325 . S
N639 C638 1.261 . S
C640 H610 0.931 . S
C640 C637 1.357 . S
C640 C641 1.312 . S
C641 H612 0.930 . S
C641 C636 1.261 . S
C641 C640 1.312 . S
C642 O614 1.214 . S
C642 O622 1.234 . S
C643 H615 0.929 . S
C643 C646 1.391 . S
C643 C648 1.391 . S
C644 H616 0.939 . S
C644 C645 1.390 . S
C644 N647 1.391 . S
C645 H617 0.930 . S
C645 C644 1.390 . S
C645 C646 1.392 . S
C646 H618 0.929 . S
C646 C643 1.391 . S
C646 C645 1.392 . S
N647 Co591 2.257 1_655 S
N647 C644 1.391 . S
N647 C648 1.388 . S
C648 H619 0.930 . S
C648 C643 1.391 . S
C648 N647 1.388 . S
Co649 O651 2.143 . S
Co649 O657 2.074 . S
Co649 O660 2.093 . S
Co649 O673 2.097 . S
Co649 N690 2.151 . S
Co649 N698 2.214 . S
Co650 O651 2.160 . S
Co650 O656 2.058 . S
Co650 O666 2.057 1_545 S
Co650 O681 2.037 . S
Co650 N685 2.145 . S
Co650 N706 2.257 1_545 S
O651 Co649 2.143 . S
O651 Co650 2.160 . S
C652 O653 1.278 1_545 S
C652 O660 1.224 . S
O653 C652 1.278 1_565 S
C654 O655 1.245 . S
C654 O666 1.232 . S
O655 C654 1.245 . S
O656 Co650 2.058 . S
O656 C682 1.269 . S
O657 Co649 2.074 . S
O657 C682 1.257 . S
H658 C683 0.930 . S
H659 C689 0.930 . S
O660 Co649 2.093 . S
O660 C652 1.224 . S
H661 C693 0.929 . S
H662 C695 0.930 . S
H663 C696 0.930 . S
H664 C694 0.929 . S
H665 C697 0.928 . S
O666 Co650 2.057 1_565 S
O666 C654 1.232 . S
H667 C686 0.929 . S
H668 C687 0.929 . S
H669 C699 0.931 . S
H670 C691 0.929 . S
H671 C700 0.930 . S
H672 C692 0.931 . S
O673 Co649 2.097 . S
O673 C701 1.214 . S
H674 C702 0.929 . S
H675 C703 0.939 . S
H676 C704 0.930 . S
H677 C705 0.929 . S
H678 C707 0.930 . S
H679 C684 0.930 . S
H680 C688 0.930 1_565 S
O681 Co650 2.037 . S
O681 C701 1.234 . S
C682 O656 1.269 . S
C682 O657 1.257 . S
C683 H658 0.930 . S
C683 C686 1.388 . S
C683 C688 1.418 . S
C684 H679 0.930 . S
C684 C687 1.404 . S
C684 C688 1.353 1_565 S
N685 Co650 2.145 . S
N685 C686 1.397 . S
N685 C687 1.334 1_545 S
C686 H667 0.929 . S
C686 C683 1.388 . S
C686 N685 1.397 . S
C687 H668 0.929 . S
C687 C684 1.404 . S
C687 N685 1.334 1_565 S
C688 H680 0.930 1_545 S
C688 C683 1.418 . S
C688 C684 1.353 1_545 S
C689 H659 0.930 . S
C689 N690 1.330 . S
C689 C691 1.446 . S
N690 Co649 2.151 . S
N690 C689 1.330 . S
N690 C694 1.418 . S
C691 H670 0.929 . S
C691 C689 1.446 . S
C691 C692 1.332 . S
C692 H672 0.931 . S
C692 C691 1.332 . S
C692 C693 1.267 . S
C693 H661 0.929 . S
C693 C692 1.267 . S
C693 C694 1.251 . S
C694 H664 0.929 . S
C694 N690 1.418 . S
C694 C693 1.251 . S
C695 H662 0.930 . S
C695 C697 1.406 . S
C695 C700 1.261 . S
C696 H663 0.930 . S
C696 N698 1.325 . S
C696 C699 1.357 . S
C697 H665 0.928 . S
C697 C695 1.406 . S
C697 N698 1.261 . S
N698 Co649 2.214 . S
N698 C696 1.325 . S
N698 C697 1.261 . S
C699 H669 0.931 . S
C699 C696 1.357 . S
C699 C700 1.312 . S
C700 H671 0.930 . S
C700 C695 1.261 . S
C700 C699 1.312 . S
C701 O673 1.214 . S
C701 O681 1.234 . S
C702 H674 0.929 . S
C702 C705 1.391 . S
C702 C707 1.391 . S
C703 H675 0.939 . S
C703 C704 1.390 . S
C703 N706 1.391 . S
C704 H676 0.930 . S
C704 C703 1.390 . S
C704 C705 1.392 . S
C705 H677 0.929 . S
C705 C702 1.391 . S
C705 C704 1.392 . S
N706 Co650 2.257 1_565 S
N706 C703 1.391 . S
N706 C707 1.388 . S
C707 H678 0.930 . S
C707 C702 1.391 . S
C707 N706 1.388 . S
Co708 O710 2.143 . S
Co708 O716 2.074 . S
Co708 O719 2.093 . S
Co708 O732 2.097 . S
Co708 N749 2.151 . S
Co708 N757 2.214 . S
Co709 O710 2.160 . S
Co709 O715 2.058 . S
Co709 O725 2.057 . S
Co709 O740 2.037 . S
Co709 N744 2.145 . S
Co709 N765 2.257 . S
O710 Co708 2.143 . S
O710 Co709 2.160 . S
C711 O712 1.278 . S
C711 O719 1.224 . S
O712 C711 1.278 . S
C713 O714 1.245 . S
C713 O725 1.232 . S
O714 C713 1.245 . S
O715 Co709 2.058 . S
O715 C741 1.269 . S
O716 Co708 2.074 . S
O716 C741 1.257 . S
H717 C742 0.930 . S
H718 C748 0.930 . S
O719 Co708 2.093 . S
O719 C711 1.224 . S
H720 C752 0.929 . S
H721 C754 0.930 . S
H722 C755 0.930 . S
H723 C753 0.929 . S
H724 C756 0.928 . S
O725 Co709 2.057 . S
O725 C713 1.232 . S
H726 C745 0.929 . S
H727 C746 0.929 . S
H728 C758 0.931 . S
H729 C750 0.929 . S
H730 C759 0.930 . S
H731 C751 0.931 . S
O732 Co708 2.097 . S
O732 C760 1.214 . S
H733 C761 0.929 . S
H734 C762 0.929 . S
H735 C763 0.930 . S
H736 C764 0.929 . S
H737 C766 0.930 . S
H738 C743 0.930 . S
H739 C747 0.930 . S
O740 Co709 2.037 . S
O740 C760 1.234 . S
C741 O715 1.269 . S
C741 O716 1.257 . S
C742 H717 0.930 . S
C742 C745 1.388 . S
C742 C747 1.418 . S
C743 H738 0.930 . S
C743 C746 1.404 . S
C743 C747 1.353 . S
N744 Co709 2.145 . S
N744 C745 1.397 . S
N744 C746 1.334 . S
C745 H726 0.929 . S
C745 C742 1.388 . S
C745 N744 1.397 . S
C746 H727 0.929 . S
C746 C743 1.404 . S
C746 N744 1.334 . S
C747 H739 0.930 . S
C747 C742 1.418 . S
C747 C743 1.353 . S
C748 H718 0.930 . S
C748 N749 1.330 . S
C748 C750 1.446 . S
N749 Co708 2.151 . S
N749 C748 1.330 . S
N749 C753 1.418 . S
C750 H729 0.929 . S
C750 C748 1.446 . S
C750 C751 1.332 . S
C751 H731 0.931 . S
C751 C750 1.332 . S
C751 C752 1.267 . S
C752 H720 0.929 . S
C752 C751 1.267 . S
C752 C753 1.251 . S
C753 H723 0.929 . S
C753 N749 1.418 . S
C753 C752 1.251 . S
C754 H721 0.930 . S
C754 C756 1.406 . S
C754 C759 1.261 . S
C755 H722 0.930 . S
C755 N757 1.325 . S
C755 C758 1.357 . S
C756 H724 0.928 . S
C756 C754 1.406 . S
C756 N757 1.261 . S
N757 Co708 2.214 . S
N757 C755 1.325 . S
N757 C756 1.261 . S
C758 H728 0.931 . S
C758 C755 1.357 . S
C758 C759 1.312 . S
C759 H730 0.930 . S
C759 C754 1.261 . S
C759 C758 1.312 . S
C760 O732 1.214 . S
C760 O740 1.234 . S
C761 H733 0.929 . S
C761 C764 1.391 . S
C761 C766 1.391 . S
C762 H734 0.929 . S
C762 C763 1.390 . S
C762 N765 1.391 . S
C763 H735 0.930 . S
C763 C762 1.390 . S
C763 C764 1.392 . S
C764 H736 0.929 . S
C764 C761 1.391 . S
C764 C763 1.392 . S
N765 Co709 2.257 . S
N765 C762 1.391 . S
N765 C766 1.388 . S
C766 H737 0.930 . S
C766 C761 1.391 . S
C766 N765 1.388 . S
Co767 O769 2.143 . S
Co767 O775 2.074 . S
Co767 O778 2.093 . S
Co767 O791 2.097 . S
Co767 N808 2.151 . S
Co767 N816 2.214 . S
Co768 O769 2.160 . S
Co768 O774 2.058 . S
Co768 O784 2.057 . S
Co768 O799 2.037 . S
Co768 N803 2.145 . S
Co768 N824 2.257 . S
O769 Co767 2.143 . S
O769 Co768 2.160 . S
C770 O771 1.278 . S
C770 O778 1.224 . S
O771 C770 1.278 . S
C772 O773 1.245 . S
C772 O784 1.232 . S
O773 C772 1.245 . S
O774 Co768 2.058 . S
O774 C800 1.269 . S
O775 Co767 2.074 . S
O775 C800 1.257 . S
H776 C801 0.930 . S
H777 C807 0.930 . S
O778 Co767 2.093 . S
O778 C770 1.224 . S
H779 C811 0.929 . S
H780 C813 0.930 . S
H781 C814 0.930 . S
H782 C812 0.929 . S
H783 C815 0.928 . S
O784 Co768 2.057 . S
O784 C772 1.232 . S
H785 C804 0.929 . S
H786 C805 0.929 . S
H787 C817 0.931 . S
H788 C809 0.929 . S
H789 C818 0.930 . S
H790 C810 0.931 . S
O791 Co767 2.097 . S
O791 C819 1.214 . S
H792 C820 0.929 . S
H793 C821 0.929 . S
H794 C822 0.930 . S
H795 C823 0.929 . S
H796 C825 0.930 . S
H797 C802 0.930 . S
H798 C806 0.930 . S
O799 Co768 2.037 . S
O799 C819 1.234 . S
C800 O774 1.269 . S
C800 O775 1.257 . S
C801 H776 0.930 . S
C801 C804 1.388 . S
C801 C806 1.418 . S
C802 H797 0.930 . S
C802 C805 1.404 . S
C802 C806 1.353 . S
N803 Co768 2.145 . S
N803 C804 1.397 . S
N803 C805 1.334 . S
C804 H785 0.929 . S
C804 C801 1.388 . S
C804 N803 1.397 . S
C805 H786 0.929 . S
C805 C802 1.404 . S
C805 N803 1.334 . S
C806 H798 0.930 . S
C806 C801 1.418 . S
C806 C802 1.353 . S
C807 H777 0.930 . S
C807 N808 1.330 . S
C807 C809 1.446 . S
N808 Co767 2.151 . S
N808 C807 1.330 . S
N808 C812 1.418 . S
C809 H788 0.929 . S
C809 C807 1.446 . S
C809 C810 1.332 . S
C810 H790 0.931 . S
C810 C809 1.332 . S
C810 C811 1.267 . S
C811 H779 0.929 . S
C811 C810 1.267 . S
C811 C812 1.251 . S
C812 H782 0.929 . S
C812 N808 1.418 . S
C812 C811 1.251 . S
C813 H780 0.930 . S
C813 C815 1.406 . S
C813 C818 1.261 . S
C814 H781 0.930 . S
C814 N816 1.325 . S
C814 C817 1.357 . S
C815 H783 0.928 . S
C815 C813 1.406 . S
C815 N816 1.261 . S
N816 Co767 2.214 . S
N816 C814 1.325 . S
N816 C815 1.261 . S
C817 H787 0.931 . S
C817 C814 1.357 . S
C817 C818 1.312 . S
C818 H789 0.930 . S
C818 C813 1.261 . S
C818 C817 1.312 . S
C819 O791 1.214 . S
C819 O799 1.234 . S
C820 H792 0.929 . S
C820 C823 1.391 . S
C820 C825 1.391 . S
C821 H793 0.929 . S
C821 C822 1.390 . S
C821 N824 1.391 . S
C822 H794 0.930 . S
C822 C821 1.390 . S
C822 C823 1.392 . S
C823 H795 0.929 . S
C823 C820 1.391 . S
C823 C822 1.392 . S
N824 Co768 2.257 . S
N824 C821 1.391 . S
N824 C825 1.388 . S
C825 H796 0.930 . S
C825 C820 1.391 . S
C825 N824 1.388 . S
Co826 O828 2.143 . S
Co826 O834 2.074 . S
Co826 O837 2.093 . S
Co826 O850 2.097 . S
Co826 N867 2.151 . S
Co826 N875 2.214 . S
Co827 O828 2.160 . S
Co827 O833 2.058 . S
Co827 O843 2.057 1_455 S
Co827 O858 2.037 . S
Co827 N862 2.145 . S
Co827 N883 2.257 1_455 S
O828 Co826 2.143 . S
O828 Co827 2.160 . S
C829 O830 1.278 1_455 S
C829 O837 1.224 . S
O830 C829 1.278 1_655 S
C831 O832 1.245 . S
C831 O843 1.232 . S
O832 C831 1.245 . S
O833 Co827 2.058 . S
O833 C859 1.269 . S
O834 Co826 2.074 . S
O834 C859 1.257 . S
H835 C860 0.930 . S
H836 C866 0.930 . S
O837 Co826 2.093 . S
O837 C829 1.224 . S
H838 C870 0.929 . S
H839 C872 0.930 . S
H840 C873 0.930 . S
H841 C871 0.929 . S
H842 C874 0.928 . S
O843 Co827 2.057 1_655 S
O843 C831 1.232 . S
H844 C863 0.929 . S
H845 C864 0.929 . S
H846 C876 0.931 . S
H847 C868 0.929 . S
H848 C877 0.930 . S
H849 C869 0.931 . S
O850 Co826 2.097 . S
O850 C878 1.214 . S
H851 C879 0.929 . S
H852 C880 0.939 . S
H853 C881 0.930 . S
H854 C882 0.929 . S
H855 C884 0.930 . S
H856 C861 0.930 . S
H857 C865 0.930 1_655 S
O858 Co827 2.037 . S
O858 C878 1.234 . S
C859 O833 1.269 . S
C859 O834 1.257 . S
C860 H835 0.930 . S
C860 C863 1.388 . S
C860 C865 1.418 . S
C861 H856 0.930 . S
C861 C864 1.404 . S
C861 C865 1.353 1_655 S
N862 Co827 2.145 . S
N862 C863 1.397 . S
N862 C864 1.334 1_455 S
C863 H844 0.929 . S
C863 C860 1.388 . S
C863 N862 1.397 . S
C864 H845 0.929 . S
C864 C861 1.404 . S
C864 N862 1.334 1_655 S
C865 H857 0.930 1_455 S
C865 C860 1.418 . S
C865 C861 1.353 1_455 S
C866 H836 0.930 . S
C866 N867 1.330 . S
C866 C868 1.446 . S
N867 Co826 2.151 . S
N867 C866 1.330 . S
N867 C871 1.418 . S
C868 H847 0.929 . S
C868 C866 1.446 . S
C868 C869 1.332 . S
C869 H849 0.931 . S
C869 C868 1.332 . S
C869 C870 1.267 . S
C870 H838 0.929 . S
C870 C869 1.267 . S
C870 C871 1.251 . S
C871 H841 0.929 . S
C871 N867 1.418 . S
C871 C870 1.251 . S
C872 H839 0.930 . S
C872 C874 1.406 . S
C872 C877 1.261 . S
C873 H840 0.930 . S
C873 N875 1.325 . S
C873 C876 1.357 . S
C874 H842 0.928 . S
C874 C872 1.406 . S
C874 N875 1.261 . S
N875 Co826 2.214 . S
N875 C873 1.325 . S
N875 C874 1.261 . S
C876 H846 0.931 . S
C876 C873 1.357 . S
C876 C877 1.312 . S
C877 H848 0.930 . S
C877 C872 1.261 . S
C877 C876 1.312 . S
C878 O850 1.214 . S
C878 O858 1.234 . S
C879 H851 0.929 . S
C879 C882 1.391 . S
C879 C884 1.391 . S
C880 H852 0.939 . S
C880 C881 1.390 . S
C880 N883 1.391 . S
C881 H853 0.930 . S
C881 C880 1.390 . S
C881 C882 1.392 . S
C882 H854 0.929 . S
C882 C879 1.391 . S
C882 C881 1.392 . S
N883 Co827 2.257 1_655 S
N883 C880 1.391 . S
N883 C884 1.388 . S
C884 H855 0.930 . S
C884 C879 1.391 . S
C884 N883 1.388 . S
Co885 O887 2.143 . S
Co885 O893 2.074 . S
Co885 O896 2.093 . S
Co885 O909 2.097 . S
Co885 N926 2.151 . S
Co885 N934 2.214 . S
Co886 O887 2.160 . S
Co886 O892 2.058 . S
Co886 O902 2.057 1_545 S
Co886 O917 2.037 . S
Co886 N921 2.145 . S
Co886 N942 2.257 1_545 S
O887 Co885 2.143 . S
O887 Co886 2.160 . S
C888 O889 1.278 1_545 S
C888 O896 1.224 . S
O889 C888 1.278 1_565 S
C890 O891 1.245 . S
C890 O902 1.232 . S
O891 C890 1.245 . S
O892 Co886 2.058 . S
O892 C918 1.269 . S
O893 Co885 2.074 . S
O893 C918 1.257 . S
H894 C919 0.930 . S
H895 C925 0.930 . S
O896 Co885 2.093 . S
O896 C888 1.224 . S
H897 C929 0.929 . S
H898 C931 0.930 . S
H899 C932 0.930 . S
H900 C930 0.929 . S
H901 C933 0.928 . S
O902 Co886 2.057 1_565 S
O902 C890 1.232 . S
H903 C922 0.929 . S
H904 C923 0.929 . S
H905 C935 0.931 . S
H906 C927 0.929 . S
H907 C936 0.930 . S
H908 C928 0.931 . S
O909 Co885 2.097 . S
O909 C937 1.214 . S
H910 C938 0.929 . S
H911 C939 0.939 . S
H912 C940 0.930 . S
H913 C941 0.929 . S
H914 C943 0.930 . S
H915 C920 0.930 . S
H916 C924 0.930 1_565 S
O917 Co886 2.037 . S
O917 C937 1.234 . S
C918 O892 1.269 . S
C918 O893 1.257 . S
C919 H894 0.930 . S
C919 C922 1.388 . S
C919 C924 1.418 . S
C920 H915 0.930 . S
C920 C923 1.404 . S
C920 C924 1.353 1_565 S
N921 Co886 2.145 . S
N921 C922 1.397 . S
N921 C923 1.334 1_545 S
C922 H903 0.929 . S
C922 C919 1.388 . S
C922 N921 1.397 . S
C923 H904 0.929 . S
C923 C920 1.404 . S
C923 N921 1.334 1_565 S
C924 H916 0.930 1_545 S
C924 C919 1.418 . S
C924 C920 1.353 1_545 S
C925 H895 0.930 . S
C925 N926 1.330 . S
C925 C927 1.446 . S
N926 Co885 2.151 . S
N926 C925 1.330 . S
N926 C930 1.418 . S
C927 H906 0.929 . S
C927 C925 1.446 . S
C927 C928 1.332 . S
C928 H908 0.931 . S
C928 C927 1.332 . S
C928 C929 1.267 . S
C929 H897 0.929 . S
C929 C928 1.267 . S
C929 C930 1.251 . S
C930 H900 0.929 . S
C930 N926 1.418 . S
C930 C929 1.251 . S
C931 H898 0.930 . S
C931 C933 1.406 . S
C931 C936 1.261 . S
C932 H899 0.930 . S
C932 N934 1.325 . S
C932 C935 1.357 . S
C933 H901 0.928 . S
C933 C931 1.406 . S
C933 N934 1.261 . S
N934 Co885 2.214 . S
N934 C932 1.325 . S
N934 C933 1.261 . S
C935 H905 0.931 . S
C935 C932 1.357 . S
C935 C936 1.312 . S
C936 H907 0.930 . S
C936 C931 1.261 . S
C936 C935 1.312 . S
C937 O909 1.214 . S
C937 O917 1.234 . S
C938 H910 0.929 . S
C938 C941 1.391 . S
C938 C943 1.391 . S
C939 H911 0.939 . S
C939 C940 1.390 . S
C939 N942 1.391 . S
C940 H912 0.930 . S
C940 C939 1.390 . S
C940 C941 1.392 . S
C941 H913 0.929 . S
C941 C938 1.391 . S
C941 C940 1.392 . S
N942 Co886 2.257 1_565 S
N942 C939 1.391 . S
N942 C943 1.388 . S
C943 H914 0.930 . S
C943 C938 1.391 . S
C943 N942 1.388 . S
H944 C950 0.930 . S
H945 C954 0.930 . S
H946 C959 0.929 . S
H947 C957 0.929 . S
H948 C952 0.929 . S
H949 C958 0.929 . S
C950 H944 0.930 . S
C950 C951 1.367 . S
C950 C958 1.378 . S
C951 C950 1.367 . S
C951 C959 1.433 . S
C952 H948 0.929 . S
C952 C954 1.378 . S
C952 C956 1.350 . S
C953 C956 1.463 . S
C953 C958 1.350 . S
C953 N961 1.427 . S
C954 H945 0.930 . S
C954 C952 1.378 . S
C954 C955 1.367 . S
C955 C954 1.367 . S
C955 C957 1.433 . S
C956 C952 1.350 . S
C956 C953 1.463 . S
C956 N960 1.427 . S
C957 H947 0.929 . S
C957 C955 1.433 . S
C957 N960 1.384 . S
C958 H949 0.929 . S
C958 C950 1.378 . S
C958 C953 1.350 . S
C959 H946 0.929 . S
C959 C951 1.433 . S
C959 N961 1.384 . S
N960 C956 1.427 . S
N960 C957 1.384 . S
N961 C953 1.427 . S
N961 C959 1.384 . S
H962 C968 0.930 . S
H963 C972 0.930 . S
H964 C977 0.929 . S
H965 C975 0.929 . S
H966 C970 0.929 . S
H967 C976 0.929 . S
C968 H962 0.930 . S
C968 C969 1.367 . S
C968 C976 1.378 . S
C969 C968 1.367 . S
C969 C977 1.433 . S
C970 H966 0.929 . S
C970 C972 1.378 . S
C970 C974 1.350 . S
C971 C974 1.463 . S
C971 C976 1.350 . S
C971 N979 1.427 . S
C972 H963 0.930 . S
C972 C970 1.378 . S
C972 C973 1.367 . S
C973 C972 1.367 . S
C973 C975 1.433 . S
C974 C970 1.350 . S
C974 C971 1.463 . S
C974 N978 1.427 . S
C975 H965 0.929 . S
C975 C973 1.433 . S
C975 N978 1.384 . S
C976 H967 0.929 . S
C976 C968 1.378 . S
C976 C971 1.350 . S
C977 H964 0.929 . S
C977 C969 1.433 . S
C977 N979 1.384 . S
N978 C974 1.427 . S
N978 C975 1.384 . S
N979 C971 1.427 . S
N979 C977 1.384 . S
H980 C986 0.930 . S
H981 C990 0.930 . S
H982 C995 0.929 . S
H983 C993 0.929 . S
H984 C988 0.929 . S
H985 C994 0.929 . S
C986 H980 0.930 . S
C986 C987 1.367 . S
C986 C994 1.378 . S
C987 C986 1.367 . S
C987 C995 1.433 . S
C988 H984 0.929 . S
C988 C990 1.378 . S
C988 C992 1.350 . S
C989 C992 1.463 . S
C989 C994 1.350 . S
C989 N997 1.427 . S
C990 H981 0.930 . S
C990 C988 1.378 . S
C990 C991 1.367 . S
C991 C990 1.367 . S
C991 C993 1.433 . S
C992 C988 1.350 . S
C992 C989 1.463 . S
C992 N996 1.427 . S
C993 H983 0.929 . S
C993 C991 1.433 . S
C993 N996 1.384 . S
C994 H985 0.929 . S
C994 C986 1.378 . S
C994 C989 1.350 . S
C995 H982 0.929 . S
C995 C987 1.433 . S
C995 N997 1.384 . S
N996 C992 1.427 . S
N996 C993 1.384 . S
N997 C989 1.427 . S
N997 C995 1.384 . S
H998 C1004 0.930 . S
H999 C1008 0.930 . S
H1000 C1013 0.929 . S
H1001 C1011 0.929 . S
H1002 C1006 0.929 . S
H1003 C1012 0.929 . S
C1004 H998 0.930 . S
C1004 C1005 1.367 . S
C1004 C1012 1.378 . S
C1005 C1004 1.367 . S
C1005 C1013 1.433 . S
C1006 H1002 0.929 . S
C1006 C1008 1.378 . S
C1006 C1010 1.350 . S
C1007 C1010 1.463 . S
C1007 C1012 1.350 . S
C1007 N1015 1.427 . S
C1008 H999 0.930 . S
C1008 C1006 1.378 . S
C1008 C1009 1.367 . S
C1009 C1008 1.367 . S
C1009 C1011 1.433 . S
C1010 C1006 1.350 . S
C1010 C1007 1.463 . S
C1010 N1014 1.427 . S
C1011 H1001 0.929 . S
C1011 C1009 1.433 . S
C1011 N1014 1.384 . S
C1012 H1003 0.929 . S
C1012 C1004 1.378 . S
C1012 C1007 1.350 . S
C1013 H1000 0.929 . S
C1013 C1005 1.433 . S
C1013 N1015 1.384 . S
N1014 C1010 1.427 . S
N1014 C1011 1.384 . S
N1015 C1007 1.427 . S
N1015 C1013 1.384 . S
H1016 C1022 0.930 . S
H1017 C1026 0.930 . S
H1018 C1031 0.929 . S
H1019 C1029 0.929 . S
H1020 C1024 0.929 . S
H1021 C1030 0.929 . S
C1022 H1016 0.930 . S
C1022 C1023 1.367 . S
C1022 C1030 1.378 . S
C1023 C1022 1.367 . S
C1023 C1031 1.433 . S
C1024 H1020 0.929 . S
C1024 C1026 1.378 . S
C1024 C1028 1.350 . S
C1025 C1028 1.463 . S
C1025 C1030 1.350 . S
C1025 N1033 1.427 . S
C1026 H1017 0.930 . S
C1026 C1024 1.378 . S
C1026 C1027 1.367 . S
C1027 C1026 1.367 . S
C1027 C1029 1.433 . S
C1028 C1024 1.350 . S
C1028 C1025 1.463 . S
C1028 N1032 1.427 . S
C1029 H1019 0.929 . S
C1029 C1027 1.433 . S
C1029 N1032 1.384 . S
C1030 H1021 0.929 . S
C1030 C1022 1.378 . S
C1030 C1025 1.350 . S
C1031 H1018 0.929 . S
C1031 C1023 1.433 . S
C1031 N1033 1.384 . S
N1032 C1028 1.427 . S
N1032 C1029 1.384 . S
N1033 C1025 1.427 . S
N1033 C1031 1.384 . S
H1034 C1040 0.930 . S
H1035 C1044 0.930 . S
H1036 C1049 0.929 . S
H1037 C1047 0.929 . S
H1038 C1042 0.929 . S
H1039 C1048 0.929 . S
C1040 H1034 0.930 . S
C1040 C1041 1.367 . S
C1040 C1048 1.378 . S
C1041 C1040 1.367 . S
C1041 C1049 1.433 . S
C1042 H1038 0.929 . S
C1042 C1044 1.378 . S
C1042 C1046 1.350 . S
C1043 C1046 1.463 . S
C1043 C1048 1.350 . S
C1043 N1051 1.427 . S
C1044 H1035 0.930 . S
C1044 C1042 1.378 . S
C1044 C1045 1.367 . S
C1045 C1044 1.367 . S
C1045 C1047 1.433 . S
C1046 C1042 1.350 . S
C1046 C1043 1.463 . S
C1046 N1050 1.427 . S
C1047 H1037 0.929 . S
C1047 C1045 1.433 . S
C1047 N1050 1.384 . S
C1048 H1039 0.929 . S
C1048 C1040 1.378 . S
C1048 C1043 1.350 . S
C1049 H1036 0.929 . S
C1049 C1041 1.433 . S
C1049 N1051 1.384 . S
N1050 C1046 1.427 . S
N1050 C1047 1.384 . S
N1051 C1043 1.427 . S
N1051 C1049 1.384 . S
H1052 C1058 0.930 . S
H1053 C1062 0.930 . S
H1054 C1067 0.929 . S
H1055 C1065 0.929 . S
H1056 C1060 0.929 . S
H1057 C1066 0.929 . S
C1058 H1052 0.930 . S
C1058 C1059 1.367 . S
C1058 C1066 1.378 . S
C1059 C1058 1.367 . S
C1059 C1067 1.433 . S
C1060 H1056 0.929 . S
C1060 C1062 1.378 . S
C1060 C1064 1.350 . S
C1061 C1064 1.463 . S
C1061 C1066 1.350 . S
C1061 N1069 1.427 . S
C1062 H1053 0.930 . S
C1062 C1060 1.378 . S
C1062 C1063 1.367 . S
C1063 C1062 1.367 . S
C1063 C1065 1.433 . S
C1064 C1060 1.350 . S
C1064 C1061 1.463 . S
C1064 N1068 1.427 . S
C1065 H1055 0.929 . S
C1065 C1063 1.433 . S
C1065 N1068 1.384 . S
C1066 H1057 0.929 . S
C1066 C1058 1.378 . S
C1066 C1061 1.350 . S
C1067 H1054 0.929 . S
C1067 C1059 1.433 . S
C1067 N1069 1.384 . S
N1068 C1064 1.427 . S
N1068 C1065 1.384 . S
N1069 C1061 1.427 . S
N1069 C1067 1.384 . S
H1070 C1076 0.930 . S
H1071 C1080 0.930 . S
H1072 C1085 0.929 . S
H1073 C1083 0.929 . S
H1074 C1078 0.929 . S
H1075 C1084 0.929 . S
C1076 H1070 0.930 . S
C1076 C1077 1.367 . S
C1076 C1084 1.378 . S
C1077 C1076 1.367 . S
C1077 C1085 1.433 . S
C1078 H1074 0.929 . S
C1078 C1080 1.378 . S
C1078 C1082 1.350 . S
C1079 C1082 1.463 . S
C1079 C1084 1.350 . S
C1079 N1087 1.427 . S
C1080 H1071 0.930 . S
C1080 C1078 1.378 . S
C1080 C1081 1.367 . S
C1081 C1080 1.367 . S
C1081 C1083 1.433 . S
C1082 C1078 1.350 . S
C1082 C1079 1.463 . S
C1082 N1086 1.427 . S
C1083 H1073 0.929 . S
C1083 C1081 1.433 . S
C1083 N1086 1.384 . S
C1084 H1075 0.929 . S
C1084 C1076 1.378 . S
C1084 C1079 1.350 . S
C1085 H1072 0.929 . S
C1085 C1077 1.433 . S
C1085 N1087 1.384 . S
N1086 C1082 1.427 . S
N1086 C1083 1.384 . S
N1087 C1079 1.427 . S
N1087 C1085 1.384 . S
H1088 C1094 0.930 . S
H1089 C1098 0.930 . S
H1090 C1103 0.929 . S
H1091 C1101 0.929 . S
H1092 C1096 0.929 . S
H1093 C1102 0.929 . S
C1094 H1088 0.930 . S
C1094 C1095 1.367 . S
C1094 C1102 1.378 . S
C1095 C1094 1.367 . S
C1095 C1103 1.433 . S
C1096 H1092 0.929 . S
C1096 C1098 1.378 . S
C1096 C1100 1.350 . S
C1097 C1100 1.463 . S
C1097 C1102 1.350 . S
C1097 N1105 1.427 . S
C1098 H1089 0.930 . S
C1098 C1096 1.378 . S
C1098 C1099 1.367 . S
C1099 C1098 1.367 . S
C1099 C1101 1.433 . S
C1100 C1096 1.350 . S
C1100 C1097 1.463 . S
C1100 N1104 1.427 . S
C1101 H1091 0.929 . S
C1101 C1099 1.433 . S
C1101 N1104 1.384 . S
C1102 H1093 0.929 . S
C1102 C1094 1.378 . S
C1102 C1097 1.350 . S
C1103 H1090 0.929 . S
C1103 C1095 1.433 . S
C1103 N1105 1.384 . S
N1104 C1100 1.427 . S
N1104 C1101 1.384 . S
N1105 C1097 1.427 . S
N1105 C1103 1.384 . S
H1106 C1112 0.930 . S
H1107 C1116 0.930 . S
H1108 C1121 0.929 . S
H1109 C1119 0.929 . S
H1110 C1114 0.929 . S
H1111 C1120 0.929 . S
C1112 H1106 0.930 . S
C1112 C1113 1.367 . S
C1112 C1120 1.378 . S
C1113 C1112 1.367 . S
C1113 C1121 1.433 . S
C1114 H1110 0.929 . S
C1114 C1116 1.378 . S
C1114 C1118 1.350 . S
C1115 C1118 1.463 . S
C1115 C1120 1.350 . S
C1115 N1123 1.427 . S
C1116 H1107 0.930 . S
C1116 C1114 1.378 . S
C1116 C1117 1.367 . S
C1117 C1116 1.367 . S
C1117 C1119 1.433 . S
C1118 C1114 1.350 . S
C1118 C1115 1.463 . S
C1118 N1122 1.427 . S
C1119 H1109 0.929 . S
C1119 C1117 1.433 . S
C1119 N1122 1.384 . S
C1120 H1111 0.929 . S
C1120 C1112 1.378 . S
C1120 C1115 1.350 . S
C1121 H1108 0.929 . S
C1121 C1113 1.433 . S
C1121 N1123 1.384 . S
N1122 C1118 1.427 . S
N1122 C1119 1.384 . S
N1123 C1115 1.427 . S
N1123 C1121 1.384 . S
H1124 C1130 0.930 . S
H1125 C1134 0.930 . S
H1126 C1139 0.929 . S
H1127 C1137 0.929 . S
H1128 C1132 0.929 . S
H1129 C1138 0.929 . S
C1130 H1124 0.930 . S
C1130 C1131 1.367 . S
C1130 C1138 1.378 . S
C1131 C1130 1.367 . S
C1131 C1139 1.433 . S
C1132 H1128 0.929 . S
C1132 C1134 1.378 . S
C1132 C1136 1.350 . S
C1133 C1136 1.463 . S
C1133 C1138 1.350 . S
C1133 N1141 1.427 . S
C1134 H1125 0.930 . S
C1134 C1132 1.378 . S
C1134 C1135 1.367 . S
C1135 C1134 1.367 . S
C1135 C1137 1.433 . S
C1136 C1132 1.350 . S
C1136 C1133 1.463 . S
C1136 N1140 1.427 . S
C1137 H1127 0.929 . S
C1137 C1135 1.433 . S
C1137 N1140 1.384 . S
C1138 H1129 0.929 . S
C1138 C1130 1.378 . S
C1138 C1133 1.350 . S
C1139 H1126 0.929 . S
C1139 C1131 1.433 . S
C1139 N1141 1.384 . S
N1140 C1136 1.427 . S
N1140 C1137 1.384 . S
N1141 C1133 1.427 . S
N1141 C1139 1.384 . S
H1142 C1148 0.930 . S
H1143 C1152 0.930 . S
H1144 C1157 0.929 . S
H1145 C1155 0.929 . S
H1146 C1150 0.929 . S
H1147 C1156 0.929 . S
C1148 H1142 0.930 . S
C1148 C1149 1.367 . S
C1148 C1156 1.378 . S
C1149 C1148 1.367 . S
C1149 C1157 1.433 . S
C1150 H1146 0.929 . S
C1150 C1152 1.378 . S
C1150 C1154 1.350 . S
C1151 C1154 1.463 . S
C1151 C1156 1.350 . S
C1151 N1159 1.427 . S
C1152 H1143 0.930 . S
C1152 C1150 1.378 . S
C1152 C1153 1.367 . S
C1153 C1152 1.367 . S
C1153 C1155 1.433 . S
C1154 C1150 1.350 . S
C1154 C1151 1.463 . S
C1154 N1158 1.427 . S
C1155 H1145 0.929 . S
C1155 C1153 1.433 . S
C1155 N1158 1.384 . S
C1156 H1147 0.929 . S
C1156 C1148 1.378 . S
C1156 C1151 1.350 . S
C1157 H1144 0.929 . S
C1157 C1149 1.433 . S
C1157 N1159 1.384 . S
N1158 C1154 1.427 . S
N1158 C1155 1.384 . S
N1159 C1151 1.427 . S
N1159 C1157 1.384 . S
H1160 C1166 0.930 . S
H1161 C1170 0.930 . S
H1162 C1175 0.929 . S
H1163 C1173 0.929 . S
H1164 C1168 0.929 . S
H1165 C1174 0.929 . S
C1166 H1160 0.930 . S
C1166 C1167 1.367 . S
C1166 C1174 1.378 . S
C1167 C1166 1.367 . S
C1167 C1175 1.433 . S
C1168 H1164 0.929 . S
C1168 C1170 1.378 . S
C1168 C1172 1.350 . S
C1169 C1172 1.463 . S
C1169 C1174 1.350 . S
C1169 N1177 1.427 . S
C1170 H1161 0.930 . S
C1170 C1168 1.378 . S
C1170 C1171 1.367 . S
C1171 C1170 1.367 . S
C1171 C1173 1.433 . S
C1172 C1168 1.350 . S
C1172 C1169 1.463 . S
C1172 N1176 1.427 . S
C1173 H1163 0.929 . S
C1173 C1171 1.433 . S
C1173 N1176 1.384 . S
C1174 H1165 0.929 . S
C1174 C1166 1.378 . S
C1174 C1169 1.350 . S
C1175 H1162 0.929 . S
C1175 C1167 1.433 . S
C1175 N1177 1.384 . S
N1176 C1172 1.427 . S
N1176 C1173 1.384 . S
N1177 C1169 1.427 . S
N1177 C1175 1.384 . S
H1178 C1184 0.930 . S
H1179 C1188 0.930 . S
H1180 C1193 0.929 . S
H1181 C1191 0.929 . S
H1182 C1186 0.929 . S
H1183 C1192 0.929 . S
C1184 H1178 0.930 . S
C1184 C1185 1.367 . S
C1184 C1192 1.378 . S
C1185 C1184 1.367 . S
C1185 C1193 1.433 . S
C1186 H1182 0.929 . S
C1186 C1188 1.378 . S
C1186 C1190 1.350 . S
C1187 C1190 1.463 . S
C1187 C1192 1.350 . S
C1187 N1195 1.427 . S
C1188 H1179 0.930 . S
C1188 C1186 1.378 . S
C1188 C1189 1.367 . S
C1189 C1188 1.367 . S
C1189 C1191 1.433 . S
C1190 C1186 1.350 . S
C1190 C1187 1.463 . S
C1190 N1194 1.427 . S
C1191 H1181 0.929 . S
C1191 C1189 1.433 . S
C1191 N1194 1.384 . S
C1192 H1183 0.929 . S
C1192 C1184 1.378 . S
C1192 C1187 1.350 . S
C1193 H1180 0.929 . S
C1193 C1185 1.433 . S
C1193 N1195 1.384 . S
N1194 C1190 1.427 . S
N1194 C1191 1.384 . S
N1195 C1187 1.427 . S
N1195 C1193 1.384 . S
H1196 C1202 0.930 . S
H1197 C1206 0.930 . S
H1198 C1211 0.929 . S
H1199 C1209 0.929 . S
H1200 C1204 0.929 . S
H1201 C1210 0.929 . S
C1202 H1196 0.930 . S
C1202 C1203 1.367 . S
C1202 C1210 1.378 . S
C1203 C1202 1.367 . S
C1203 C1211 1.433 . S
C1204 H1200 0.929 . S
C1204 C1206 1.378 . S
C1204 C1208 1.350 . S
C1205 C1208 1.463 . S
C1205 C1210 1.350 . S
C1205 N1213 1.427 . S
C1206 H1197 0.930 . S
C1206 C1204 1.378 . S
C1206 C1207 1.367 . S
C1207 C1206 1.367 . S
C1207 C1209 1.433 . S
C1208 C1204 1.350 . S
C1208 C1205 1.463 . S
C1208 N1212 1.427 . S
C1209 H1199 0.929 . S
C1209 C1207 1.433 . S
C1209 N1212 1.384 . S
C1210 H1201 0.929 . S
C1210 C1202 1.378 . S
C1210 C1205 1.350 . S
C1211 H1198 0.929 . S
C1211 C1203 1.433 . S
C1211 N1213 1.384 . S
N1212 C1208 1.427 . S
N1212 C1209 1.384 . S
N1213 C1205 1.427 . S
N1213 C1211 1.384 . S
H1214 C1220 0.930 . S
H1215 C1224 0.930 . S
H1216 C1229 0.929 . S
H1217 C1227 0.929 . S
H1218 C1222 0.929 . S
H1219 C1228 0.929 . S
C1220 H1214 0.930 . S
C1220 C1221 1.367 . S
C1220 C1228 1.378 . S
C1221 C1220 1.367 . S
C1221 C1229 1.433 . S
C1222 H1218 0.929 . S
C1222 C1224 1.378 . S
C1222 C1226 1.350 . S
C1223 C1226 1.463 . S
C1223 C1228 1.350 . S
C1223 N1231 1.427 . S
C1224 H1215 0.930 . S
C1224 C1222 1.378 . S
C1224 C1225 1.367 . S
C1225 C1224 1.367 . S
C1225 C1227 1.433 . S
C1226 C1222 1.350 . S
C1226 C1223 1.463 . S
C1226 N1230 1.427 . S
C1227 H1217 0.929 . S
C1227 C1225 1.433 . S
C1227 N1230 1.384 . S
C1228 H1219 0.929 . S
C1228 C1220 1.378 . S
C1228 C1223 1.350 . S
C1229 H1216 0.929 . S
C1229 C1221 1.433 . S
C1229 N1231 1.384 . S
N1230 C1226 1.427 . S
N1230 C1227 1.384 . S
N1231 C1223 1.427 . S
N1231 C1229 1.384 . S
H1232 C1238 0.930 . S
H1233 C1242 0.930 . S
H1234 C1247 0.929 . S
H1235 C1245 0.929 . S
H1236 C1240 0.929 . S
H1237 C1246 0.929 . S
C1238 H1232 0.930 . S
C1238 C1239 1.367 . S
C1238 C1246 1.378 . S
C1239 C1238 1.367 . S
C1239 C1247 1.433 . S
C1240 H1236 0.929 . S
C1240 C1242 1.378 . S
C1240 C1244 1.350 . S
C1241 C1244 1.463 . S
C1241 C1246 1.350 . S
C1241 N1249 1.427 . S
C1242 H1233 0.930 . S
C1242 C1240 1.378 . S
C1242 C1243 1.367 . S
C1243 C1242 1.367 . S
C1243 C1245 1.433 . S
C1244 C1240 1.350 . S
C1244 C1241 1.463 . S
C1244 N1248 1.427 . S
C1245 H1235 0.929 . S
C1245 C1243 1.433 . S
C1245 N1248 1.384 . S
C1246 H1237 0.929 . S
C1246 C1238 1.378 . S
C1246 C1241 1.350 . S
C1247 H1234 0.929 . S
C1247 C1239 1.433 . S
C1247 N1249 1.384 . S
N1248 C1244 1.427 . S
N1248 C1245 1.384 . S
N1249 C1241 1.427 . S
N1249 C1247 1.384 . S
H1250 C1256 0.930 . S
H1251 C1260 0.930 . S
H1252 C1265 0.929 . S
H1253 C1263 0.929 . S
H1254 C1258 0.929 . S
H1255 C1264 0.929 . S
C1256 H1250 0.930 . S
C1256 C1257 1.367 . S
C1256 C1264 1.378 . S
C1257 C1256 1.367 . S
C1257 C1265 1.433 . S
C1258 H1254 0.929 . S
C1258 C1260 1.378 . S
C1258 C1262 1.350 . S
C1259 C1262 1.463 . S
C1259 C1264 1.350 . S
C1259 N1267 1.427 . S
C1260 H1251 0.930 . S
C1260 C1258 1.378 . S
C1260 C1261 1.367 . S
C1261 C1260 1.367 . S
C1261 C1263 1.433 . S
C1262 C1258 1.350 . S
C1262 C1259 1.463 . S
C1262 N1266 1.427 . S
C1263 H1253 0.929 . S
C1263 C1261 1.433 . S
C1263 N1266 1.384 . S
C1264 H1255 0.929 . S
C1264 C1256 1.378 . S
C1264 C1259 1.350 . S
C1265 H1252 0.929 . S
C1265 C1257 1.433 . S
C1265 N1267 1.384 . S
N1266 C1262 1.427 . S
N1266 C1263 1.384 . S
N1267 C1259 1.427 . S
N1267 C1265 1.384 . S
H1268 C1274 0.930 . S
H1269 C1278 0.930 . S
H1270 C1283 0.929 . S
H1271 C1281 0.929 . S
H1272 C1276 0.929 . S
H1273 C1282 0.929 . S
C1274 H1268 0.930 . S
C1274 C1275 1.367 . S
C1274 C1282 1.378 . S
C1275 C1274 1.367 . S
C1275 C1283 1.433 . S
C1276 H1272 0.929 . S
C1276 C1278 1.378 . S
C1276 C1280 1.350 . S
C1277 C1280 1.463 . S
C1277 C1282 1.350 . S
C1277 N1285 1.427 . S
C1278 H1269 0.930 . S
C1278 C1276 1.378 . S
C1278 C1279 1.367 . S
C1279 C1278 1.367 . S
C1279 C1281 1.433 . S
C1280 C1276 1.350 . S
C1280 C1277 1.463 . S
C1280 N1284 1.427 . S
C1281 H1271 0.929 . S
C1281 C1279 1.433 . S
C1281 N1284 1.384 . S
C1282 H1273 0.929 . S
C1282 C1274 1.378 . S
C1282 C1277 1.350 . S
C1283 H1270 0.929 . S
C1283 C1275 1.433 . S
C1283 N1285 1.384 . S
N1284 C1280 1.427 . S
N1284 C1281 1.384 . S
N1285 C1277 1.427 . S
N1285 C1283 1.384 . S
H1286 C1292 0.930 . S
H1287 C1296 0.930 . S
H1288 C1301 0.929 . S
H1289 C1299 0.929 . S
H1290 C1294 0.929 . S
H1291 C1300 0.929 . S
C1292 H1286 0.930 . S
C1292 C1293 1.367 . S
C1292 C1300 1.378 . S
C1293 C1292 1.367 . S
C1293 C1301 1.433 . S
C1294 H1290 0.929 . S
C1294 C1296 1.378 . S
C1294 C1298 1.350 . S
C1295 C1298 1.463 . S
C1295 C1300 1.350 . S
C1295 N1303 1.427 . S
C1296 H1287 0.930 . S
C1296 C1294 1.378 . S
C1296 C1297 1.367 . S
C1297 C1296 1.367 . S
C1297 C1299 1.433 . S
C1298 C1294 1.350 . S
C1298 C1295 1.463 . S
C1298 N1302 1.427 . S
C1299 H1289 0.929 . S
C1299 C1297 1.433 . S
C1299 N1302 1.384 . S
C1300 H1291 0.929 . S
C1300 C1292 1.378 . S
C1300 C1295 1.350 . S
C1301 H1288 0.929 . S
C1301 C1293 1.433 . S
C1301 N1303 1.384 . S
N1302 C1298 1.427 . S
N1302 C1299 1.384 . S
N1303 C1295 1.427 . S
N1303 C1301 1.384 . S
H1304 C1310 0.930 . S
H1305 C1314 0.930 . S
H1306 C1319 0.929 . S
H1307 C1317 0.929 . S
H1308 C1312 0.929 . S
H1309 C1318 0.929 . S
C1310 H1304 0.930 . S
C1310 C1311 1.367 . S
C1310 C1318 1.378 . S
C1311 C1310 1.367 . S
C1311 C1319 1.433 . S
C1312 H1308 0.929 . S
C1312 C1314 1.378 . S
C1312 C1316 1.350 . S
C1313 C1316 1.463 . S
C1313 C1318 1.350 . S
C1313 N1321 1.427 . S
C1314 H1305 0.930 . S
C1314 C1312 1.378 . S
C1314 C1315 1.367 . S
C1315 C1314 1.367 . S
C1315 C1317 1.433 . S
C1316 C1312 1.350 . S
C1316 C1313 1.463 . S
C1316 N1320 1.427 . S
C1317 H1307 0.929 . S
C1317 C1315 1.433 . S
C1317 N1320 1.384 . S
C1318 H1309 0.929 . S
C1318 C1310 1.378 . S
C1318 C1313 1.350 . S
C1319 H1306 0.929 . S
C1319 C1311 1.433 . S
C1319 N1321 1.384 . S
N1320 C1316 1.427 . S
N1320 C1317 1.384 . S
N1321 C1313 1.427 . S
N1321 C1319 1.384 . S
H1322 C1328 0.930 . S
H1323 C1332 0.930 . S
H1324 C1337 0.929 . S
H1325 C1335 0.929 . S
H1326 C1330 0.929 . S
H1327 C1336 0.929 . S
C1328 H1322 0.930 . S
C1328 C1329 1.367 . S
C1328 C1336 1.378 . S
C1329 C1328 1.367 . S
C1329 C1337 1.433 . S
C1330 H1326 0.929 . S
C1330 C1332 1.378 . S
C1330 C1334 1.350 . S
C1331 C1334 1.463 . S
C1331 C1336 1.350 . S
C1331 N1339 1.427 . S
C1332 H1323 0.930 . S
C1332 C1330 1.378 . S
C1332 C1333 1.367 . S
C1333 C1332 1.367 . S
C1333 C1335 1.433 . S
C1334 C1330 1.350 . S
C1334 C1331 1.463 . S
C1334 N1338 1.427 . S
C1335 H1325 0.929 . S
C1335 C1333 1.433 . S
C1335 N1338 1.384 . S
C1336 H1327 0.929 . S
C1336 C1328 1.378 . S
C1336 C1331 1.350 . S
C1337 H1324 0.929 . S
C1337 C1329 1.433 . S
C1337 N1339 1.384 . S
N1338 C1334 1.427 . S
N1338 C1335 1.384 . S
N1339 C1331 1.427 . S
N1339 C1337 1.384 . S
H1340 C1346 0.930 . S
H1341 C1350 0.930 . S
H1342 C1355 0.929 . S
H1343 C1353 0.929 . S
H1344 C1348 0.929 . S
H1345 C1354 0.929 . S
C1346 H1340 0.930 . S
C1346 C1347 1.367 . S
C1346 C1354 1.378 . S
C1347 C1346 1.367 . S
C1347 C1355 1.433 . S
C1348 H1344 0.929 . S
C1348 C1350 1.378 . S
C1348 C1352 1.350 . S
C1349 C1352 1.463 . S
C1349 C1354 1.350 . S
C1349 N1357 1.427 . S
C1350 H1341 0.930 . S
C1350 C1348 1.378 . S
C1350 C1351 1.367 . S
C1351 C1350 1.367 . S
C1351 C1353 1.433 . S
C1352 C1348 1.350 . S
C1352 C1349 1.463 . S
C1352 N1356 1.427 . S
C1353 H1343 0.929 . S
C1353 C1351 1.433 . S
C1353 N1356 1.384 . S
C1354 H1345 0.929 . S
C1354 C1346 1.378 . S
C1354 C1349 1.350 . S
C1355 H1342 0.929 . S
C1355 C1347 1.433 . S
C1355 N1357 1.384 . S
N1356 C1352 1.427 . S
N1356 C1353 1.384 . S
N1357 C1349 1.427 . S
N1357 C1355 1.384 . S
H1358 C1364 0.930 . S
H1359 C1368 0.930 . S
H1360 C1373 0.929 . S
H1361 C1371 0.929 . S
H1362 C1366 0.929 . S
H1363 C1372 0.929 . S
C1364 H1358 0.930 . S
C1364 C1365 1.367 . S
C1364 C1372 1.378 . S
C1365 C1364 1.367 . S
C1365 C1373 1.433 . S
C1366 H1362 0.929 . S
C1366 C1368 1.378 . S
C1366 C1370 1.350 . S
C1367 C1370 1.463 . S
C1367 C1372 1.350 . S
C1367 N1375 1.427 . S
C1368 H1359 0.930 . S
C1368 C1366 1.378 . S
C1368 C1369 1.367 . S
C1369 C1368 1.367 . S
C1369 C1371 1.433 . S
C1370 C1366 1.350 . S
C1370 C1367 1.463 . S
C1370 N1374 1.427 . S
C1371 H1361 0.929 . S
C1371 C1369 1.433 . S
C1371 N1374 1.384 . S
C1372 H1363 0.929 . S
C1372 C1364 1.378 . S
C1372 C1367 1.350 . S
C1373 H1360 0.929 . S
C1373 C1365 1.433 . S
C1373 N1375 1.384 . S
N1374 C1370 1.427 . S
N1374 C1371 1.384 . S
N1375 C1367 1.427 . S
N1375 C1373 1.384 . S
H1376 C1382 0.930 . S
H1377 C1386 0.930 . S
H1378 C1391 0.929 . S
H1379 C1389 0.929 . S
H1380 C1384 0.929 . S
H1381 C1390 0.929 . S
C1382 H1376 0.930 . S
C1382 C1383 1.367 . S
C1382 C1390 1.378 . S
C1383 C1382 1.367 . S
C1383 C1391 1.433 . S
C1384 H1380 0.929 . S
C1384 C1386 1.378 . S
C1384 C1388 1.350 . S
C1385 C1388 1.463 1_554 S
C1385 C1390 1.350 . S
C1385 N1393 1.427 . S
C1386 H1377 0.930 . S
C1386 C1384 1.378 . S
C1386 C1387 1.367 . S
C1387 C1386 1.367 . S
C1387 C1389 1.433 . S
C1388 C1384 1.350 . S
C1388 C1385 1.463 1_556 S
C1388 N1392 1.427 . S
C1389 H1379 0.929 . S
C1389 C1387 1.433 . S
C1389 N1392 1.384 . S
C1390 H1381 0.929 . S
C1390 C1382 1.378 . S
C1390 C1385 1.350 . S
C1391 H1378 0.929 . S
C1391 C1383 1.433 . S
C1391 N1393 1.384 . S
N1392 C1388 1.427 . S
N1392 C1389 1.384 . S
N1393 C1385 1.427 . S
N1393 C1391 1.384 . S
H1394 C1400 0.930 . S
H1395 C1404 0.930 . S
H1396 C1409 0.929 . S
H1397 C1407 0.929 . S
H1398 C1402 0.929 . S
H1399 C1408 0.929 . S
C1400 H1394 0.930 . S
C1400 C1401 1.367 . S
C1400 C1408 1.378 . S
C1401 C1400 1.367 . S
C1401 C1409 1.433 . S
C1402 H1398 0.929 . S
C1402 C1404 1.378 . S
C1402 C1406 1.350 . S
C1403 C1406 1.463 . S
C1403 C1408 1.350 . S
C1403 N1411 1.427 . S
C1404 H1395 0.930 . S
C1404 C1402 1.378 . S
C1404 C1405 1.367 . S
C1405 C1404 1.367 . S
C1405 C1407 1.433 . S
C1406 C1402 1.350 . S
C1406 C1403 1.463 . S
C1406 N1410 1.427 . S
C1407 H1397 0.929 . S
C1407 C1405 1.433 . S
C1407 N1410 1.384 . S
C1408 H1399 0.929 . S
C1408 C1400 1.378 . S
C1408 C1403 1.350 . S
C1409 H1396 0.929 . S
C1409 C1401 1.433 . S
C1409 N1411 1.384 . S
N1410 C1406 1.427 . S
N1410 C1407 1.384 . S
N1411 C1403 1.427 . S
N1411 C1409 1.384 . S
H1412 C1418 0.930 . S
H1413 C1422 0.930 . S
H1414 C1427 0.929 . S
H1415 C1425 0.929 . S
H1416 C1420 0.929 . S
H1417 C1426 0.929 . S
C1418 H1412 0.930 . S
C1418 C1419 1.367 1_455 S
C1418 C1426 1.378 . S
C1419 C1418 1.367 1_655 S
C1419 C1427 1.433 . S
C1420 H1416 0.929 . S
C1420 C1422 1.378 . S
C1420 C1424 1.350 . S
C1421 C1424 1.463 1_554 S
C1421 C1426 1.350 1_655 S
C1421 N1429 1.427 . S
C1422 H1413 0.930 . S
C1422 C1420 1.378 . S
C1422 C1423 1.367 . S
C1423 C1422 1.367 . S
C1423 C1425 1.433 1_655 S
C1424 C1420 1.350 . S
C1424 C1421 1.463 1_556 S
C1424 N1428 1.427 1_655 S
C1425 H1415 0.929 . S
C1425 C1423 1.433 1_455 S
C1425 N1428 1.384 . S
C1426 H1417 0.929 . S
C1426 C1418 1.378 . S
C1426 C1421 1.350 1_455 S
C1427 H1414 0.929 . S
C1427 C1419 1.433 . S
C1427 N1429 1.384 . S
N1428 C1424 1.427 1_455 S
N1428 C1425 1.384 . S
N1429 C1421 1.427 . S
N1429 C1427 1.384 . S
H1430 C1436 0.930 . S
H1431 C1440 0.930 . S
H1432 C1445 0.929 . S
H1433 C1443 0.929 . S
H1434 C1438 0.929 . S
H1435 C1444 0.929 . S
C1436 H1430 0.930 . S
C1436 C1437 1.367 . S
C1436 C1444 1.378 . S
C1437 C1436 1.367 . S
C1437 C1445 1.433 1_565 S
C1438 H1434 0.929 . S
C1438 C1440 1.378 . S
C1438 C1442 1.350 1_545 S
C1439 C1442 1.463 . S
C1439 C1444 1.350 . S
C1439 N1447 1.427 1_565 S
C1440 H1431 0.930 . S
C1440 C1438 1.378 . S
C1440 C1441 1.367 1_545 S
C1441 C1440 1.367 1_565 S
C1441 C1443 1.433 . S
C1442 C1438 1.350 1_565 S
C1442 C1439 1.463 . S
C1442 N1446 1.427 . S
C1443 H1433 0.929 . S
C1443 C1441 1.433 . S
C1443 N1446 1.384 . S
C1444 H1435 0.929 . S
C1444 C1436 1.378 . S
C1444 C1439 1.350 . S
C1445 H1432 0.929 . S
C1445 C1437 1.433 1_545 S
C1445 N1447 1.384 . S
N1446 C1442 1.427 . S
N1446 C1443 1.384 . S
N1447 C1439 1.427 1_545 S
N1447 C1445 1.384 . S
H1448 C1454 0.930 . S
H1449 C1458 0.930 . S
H1450 C1463 0.929 . S
H1451 C1461 0.929 . S
H1452 C1456 0.929 . S
H1453 C1462 0.929 . S
C1454 H1448 0.930 . S
C1454 C1455 1.367 . S
C1454 C1462 1.378 . S
C1455 C1454 1.367 . S
C1455 C1463 1.433 . S
C1456 H1452 0.929 . S
C1456 C1458 1.378 . S
C1456 C1460 1.350 . S
C1457 C1460 1.463 1_556 S
C1457 C1462 1.350 . S
C1457 N1465 1.427 . S
C1458 H1449 0.930 . S
C1458 C1456 1.378 . S
C1458 C1459 1.367 . S
C1459 C1458 1.367 . S
C1459 C1461 1.433 . S
C1460 C1456 1.350 . S
C1460 C1457 1.463 1_554 S
C1460 N1464 1.427 . S
C1461 H1451 0.929 . S
C1461 C1459 1.433 . S
C1461 N1464 1.384 . S
C1462 H1453 0.929 . S
C1462 C1454 1.378 . S
C1462 C1457 1.350 . S
C1463 H1450 0.929 . S
C1463 C1455 1.433 . S
C1463 N1465 1.384 . S
N1464 C1460 1.427 . S
N1464 C1461 1.384 . S
N1465 C1457 1.427 . S
N1465 C1463 1.384 . S
H1466 C1472 0.930 . S
H1467 C1476 0.930 . S
H1468 C1481 0.929 . S
H1469 C1479 0.929 . S
H1470 C1474 0.929 . S
H1471 C1480 0.929 . S
C1472 H1466 0.930 . S
C1472 C1473 1.367 . S
C1472 C1480 1.378 . S
C1473 C1472 1.367 . S
C1473 C1481 1.433 . S
C1474 H1470 0.929 . S
C1474 C1476 1.378 . S
C1474 C1478 1.350 . S
C1475 C1478 1.463 . S
C1475 C1480 1.350 . S
C1475 N1483 1.427 . S
C1476 H1467 0.930 . S
C1476 C1474 1.378 . S
C1476 C1477 1.367 . S
C1477 C1476 1.367 . S
C1477 C1479 1.433 . S
C1478 C1474 1.350 . S
C1478 C1475 1.463 . S
C1478 N1482 1.427 . S
C1479 H1469 0.929 . S
C1479 C1477 1.433 . S
C1479 N1482 1.384 . S
C1480 H1471 0.929 . S
C1480 C1472 1.378 . S
C1480 C1475 1.350 . S
C1481 H1468 0.929 . S
C1481 C1473 1.433 . S
C1481 N1483 1.384 . S
N1482 C1478 1.427 . S
N1482 C1479 1.384 . S
N1483 C1475 1.427 . S
N1483 C1481 1.384 . S
H1484 C1490 0.930 . S
H1485 C1494 0.930 . S
H1486 C1499 0.929 . S
H1487 C1497 0.929 . S
H1488 C1492 0.929 . S
H1489 C1498 0.929 . S
C1490 H1484 0.930 . S
C1490 C1491 1.367 . S
C1490 C1498 1.378 . S
C1491 C1490 1.367 . S
C1491 C1499 1.433 1_455 S
C1492 H1488 0.929 . S
C1492 C1494 1.378 . S
C1492 C1496 1.350 1_655 S
C1493 C1496 1.463 1_554 S
C1493 C1498 1.350 . S
C1493 N1501 1.427 1_455 S
C1494 H1485 0.930 . S
C1494 C1492 1.378 . S
C1494 C1495 1.367 1_655 S
C1495 C1494 1.367 1_455 S
C1495 C1497 1.433 . S
C1496 C1492 1.350 1_455 S
C1496 C1493 1.463 1_556 S
C1496 N1500 1.427 . S
C1497 H1487 0.929 . S
C1497 C1495 1.433 . S
C1497 N1500 1.384 . S
C1498 H1489 0.929 . S
C1498 C1490 1.378 . S
C1498 C1493 1.350 . S
C1499 H1486 0.929 . S
C1499 C1491 1.433 1_655 S
C1499 N1501 1.384 . S
N1500 C1496 1.427 . S
N1500 C1497 1.384 . S
N1501 C1493 1.427 1_655 S
N1501 C1499 1.384 . S
H1502 C1508 0.930 . S
H1503 C1512 0.930 . S
H1504 C1517 0.929 . S
H1505 C1515 0.929 . S
H1506 C1510 0.929 . S
H1507 C1516 0.929 . S
C1508 H1502 0.930 . S
C1508 C1509 1.367 . S
C1508 C1516 1.378 . S
C1509 C1508 1.367 . S
C1509 C1517 1.433 1_545 S
C1510 H1506 0.929 . S
C1510 C1512 1.378 . S
C1510 C1514 1.350 1_565 S
C1511 C1514 1.463 . S
C1511 C1516 1.350 . S
C1511 N1519 1.427 1_545 S
C1512 H1503 0.930 . S
C1512 C1510 1.378 . S
C1512 C1513 1.367 1_565 S
C1513 C1512 1.367 1_545 S
C1513 C1515 1.433 . S
C1514 C1510 1.350 1_545 S
C1514 C1511 1.463 . S
C1514 N1518 1.427 . S
C1515 H1505 0.929 . S
C1515 C1513 1.433 . S
C1515 N1518 1.384 . S
C1516 H1507 0.929 . S
C1516 C1508 1.378 . S
C1516 C1511 1.350 . S
C1517 H1504 0.929 . S
C1517 C1509 1.433 1_565 S
C1517 N1519 1.384 . S
N1518 C1514 1.427 . S
N1518 C1515 1.384 . S
N1519 C1511 1.427 1_565 S
N1519 C1517 1.384 . S
C951 C5 1.476 . S
C955 C418 1.478 . S
C969 C64 1.473 . S
C973 C241 1.471 . S
C987 C123 1.473 . S
C991 C300 1.471 . S
C1005 C182 1.473 . S
C1009 C359 1.471 . S
C1023 C477 1.479 . S
C1027 C890 1.474 . S
C1041 C713 1.478 . S
C1045 C536 1.476 . S
C1059 C595 1.471 . S
C1063 C772 1.475 . S
C1077 C654 1.479 . S
C1081 C831 1.475 . S
C1095 C52 1.596 . S
C1099 C564 1.594 . S
C1113 C111 1.596 . S
C1117 C623 1.593 . S
C1131 C682 1.593 . S
C1135 C170 1.597 . S
C1149 C229 1.598 . S
C1153 C505 1.594 . S
C1167 C288 1.596 . S
C1171 C918 1.593 . S
C1185 C741 1.594 . S
C1189 C347 1.596 . S
C1203 C800 1.593 . S
C1207 C406 1.597 . S
C1221 C859 1.597 . S
C1225 C465 1.598 . S
C1239 C92 1.598 . S
C1243 C524 1.599 . S
C1257 C151 1.598 . S
C1261 C583 1.599 . S
C1275 C642 1.597 . S
C1279 C210 1.593 . S
C1293 C33 1.594 . S
C1297 C701 1.596 . S
C1311 C760 1.596 . S
C1315 C446 1.593 . S
C1329 C819 1.599 . S
C1333 C269 1.598 . S
C1347 C328 1.595 . S
C1351 C878 1.599 . S
C1365 C387 1.593 . S
C1369 C937 1.597 . S
C1383 C3 1.654 . S
C1387 C239 1.658 . S
C1401 C298 1.652 . S
C1405 C62 1.660 . S
C1419 C121 1.658 . S
C1423 C357 1.654 . S
C1437 C416 1.654 . S
C1441 C180 1.659 . S
C1455 C475 1.651 . S
C1459 C711 1.660 . S
C1473 C770 1.659 . S
C1477 C534 1.653 . S
C1491 C829 1.653 . S
C1495 C593 1.659 . S
C1509 C888 1.652 . S
C1513 C652 1.659 . S
