# Generated by pormake.
# Topology rob, (6)-cn, num edge types: 1
# Building blocks:
#     Node 0, Type 0, BuildingBlock: BETGAK_clean_sbu_0, # of connection points: 6
#     Node 1, Type 0, BuildingBlock: BETGAK_clean_sbu_0, # of connection points: 6
#     Node 2, Type 0, BuildingBlock: BETGAK_clean_sbu_0, # of connection points: 6
#     Node 3, Type 0, BuildingBlock: BETGAK_clean_sbu_0, # of connection points: 6
#     Edge 4, Type (0, 0), BuildingBlock: UVAHIK_clean_linker_0, # of connection points: 2
#     Edge 5, Type (0, 0), BuildingBlock: UVAHIK_clean_linker_0, # of connection points: 2
#     Edge 6, Type (0, 0), BuildingBlock: UVAHIK_clean_linker_0, # of connection points: 2
#     Edge 7, Type (0, 0), BuildingBlock: UVAHIK_clean_linker_0, # of connection points: 2
#     Edge 8, Type (0, 0), BuildingBlock: UVAHIK_clean_linker_0, # of connection points: 2
#     Edge 9, Type (0, 0), BuildingBlock: UVAHIK_clean_linker_0, # of connection points: 2
#     Edge 10, Type (0, 0), BuildingBlock: UVAHIK_clean_linker_0, # of connection points: 2
#     Edge 11, Type (0, 0), BuildingBlock: UVAHIK_clean_linker_0, # of connection points: 2
#     Edge 12, Type (0, 0), BuildingBlock: UVAHIK_clean_linker_0, # of connection points: 2
#     Edge 13, Type (0, 0), BuildingBlock: UVAHIK_clean_linker_0, # of connection points: 2
#     Edge 14, Type (0, 0), BuildingBlock: UVAHIK_clean_linker_0, # of connection points: 2
#     Edge 15, Type (0, 0), BuildingBlock: UVAHIK_clean_linker_0, # of connection points: 2
# Relax obj value: 0.113
# Max RMSD: 0.176
# Mean RMSD: 0.176
data_MOF--net-rob--node1-BETGAK_clean_sbu_0--edge1-UVAHIK_clean_linker_0
_symmetry_space_group_name_H-M    P1
_symmetry_Int_Tables_number       1
_symmetry_cell_setting            triclinic
loop_
_symmetry_equiv_pos_as_xyz
'x, y, z'
_cell_length_a     19.644126
_cell_length_b     31.569129
_cell_length_c     45.433571
_cell_angle_alpha  89.730573
_cell_angle_beta   119.40479
_cell_angle_gamma 89.991934
loop_
_atom_site_label
_atom_site_type_symbol
_atom_site_fract_x
_atom_site_fract_y
_atom_site_fract_z
_atom_type_partial_charge
La0 La 0.17826 0.28486 0.99385 0.0
La1 La 0.3303 0.26034 -0.00366 0.0
C2 C 0.06479 0.28681 0.00515 0.0
C3 C 0.0586 0.28647 0.03626 0.0
C4 C 0.11456 0.30677 0.06573 0.0
C5 C 0.10858 0.30564 0.09518 0.0
C6 C 0.04674 0.28398 0.09591 0.0
C7 C 0.99129 0.26334 0.06635 0.0
C8 C 0.99719 0.26464 0.03687 0.0
C9 C 0.26381 0.34828 0.993 0.0
C10 C 0.33321 0.26483 0.06466 0.0
C11 C 0.44561 0.25772 0.98622 0.0
C12 C 0.4562 0.26157 0.95629 0.0
C13 C 0.51009 0.2352 0.95344 0.0
C14 C 0.5188 0.23706 0.92467 0.0
C15 C 0.47334 0.26522 0.89803 0.0
C16 C 0.41969 0.29185 0.90108 0.0
C17 C 0.41148 0.29019 0.92999 0.0
C18 C 0.24467 0.19712 -0.0025 0.0
C19 C 0.17477 0.2799 0.92558 0.0
O20 O 0.09568 0.32063 -0.00029 0.0
O21 O 0.09131 0.25197 -0.00113 0.0
O22 O 0.18803 0.34862 0.97722 0.0
O23 O 0.28858 0.31468 0.01006 0.0
O24 O 0.2561 0.26774 0.04684 0.0
O25 O 0.37775 0.26652 0.05036 0.0
O26 O 0.40793 0.22411 0.98727 0.0
O27 O 0.42345 0.29188 0.99551 0.0
O28 O 0.32049 0.19685 0.01352 0.0
O29 O 0.2202 0.23058 0.98024 0.0
O30 O 0.25214 0.27831 0.9434 0.0
O31 O 0.13057 0.27736 0.94001 0.0
H32 H 0.16302 0.32352 0.06603 0.0
H33 H 0.15196 0.32228 0.11723 0.0
H34 H 0.94373 0.24567 0.06605 0.0
H35 H 0.95392 0.24835 0.01455 0.0
H36 H 0.54496 0.21279 0.97336 0.0
H37 H 0.56001 0.2158 0.92299 0.0
H38 H 0.38438 0.31421 0.88121 0.0
H39 H 0.36968 0.31105 0.93161 0.0
La40 La 0.67805 0.78785 0.99611 0.0
La41 La 0.82912 0.76085 -0.00141 0.0
C42 C 0.56299 0.79229 0.00632 0.0
C43 C 0.55244 0.78846 0.03625 0.0
C44 C 0.49831 0.81469 0.03905 0.0
C45 C 0.48962 0.8128 0.06782 0.0
C46 C 0.53537 0.78478 0.09453 0.0
C47 C 0.5893 0.75831 0.09154 0.0
C48 C 0.59747 0.75999 0.06262 0.0
C49 C 0.76421 0.84971 0.99343 0.0
C50 C 0.83316 0.7681 0.06696 0.0
C51 C 0.94394 0.75518 0.98831 0.0
C52 C 0.95507 0.7595 0.95855 0.0
C53 C 1.00341 0.73064 0.95405 0.0
C54 C 0.012 0.73281 0.92526 0.0
C55 C 0.97197 0.76382 0.90024 0.0
C56 C 0.924 0.79297 0.90496 0.0
C57 C 0.91594 0.79097 0.93391 0.0
C58 C 0.7424 0.69917 0.00128 0.0
C59 C 0.6749 0.78175 0.9279 0.0
O60 O 0.60252 0.82529 0.00569 0.0
O61 O 0.58318 0.75783 -0.00345 0.0
O62 O 0.6884 0.85045 0.97784 0.0
O63 O 0.78869 0.81662 0.01121 0.0
O64 O 0.75596 0.7711 0.04928 0.0
O65 O 0.87727 0.76838 0.05245 0.0
O66 O 0.90225 0.72274 0.98804 0.0
O67 O 0.92598 0.78963 -0.00099 0.0
O68 O 0.81819 0.69845 0.01708 0.0
O69 O 0.71843 0.73218 0.9834 0.0
O70 O 0.75213 0.77921 0.94575 0.0
O71 O 0.63045 0.78038 0.94224 0.0
H72 H 0.46321 0.83699 0.01908 0.0
H73 H 0.44818 0.83393 0.06946 0.0
H74 H 0.62484 0.73607 0.11145 0.0
H75 H 0.63945 0.73924 0.06103 0.0
H76 H 0.03388 0.70601 0.97265 0.0
H77 H 0.0487 0.7096 0.92226 0.0
H78 H 0.89301 0.81752 0.88638 0.0
H79 H 0.87849 0.81376 0.93683 0.0
La80 La 0.3288 0.78713 0.49832 0.0
La81 La 0.17709 0.7635 0.49615 0.0
C82 C 0.44206 0.78859 0.48685 0.0
C83 C 0.44814 0.78771 0.45571 0.0
C84 C 0.39172 0.80756 0.42589 0.0
C85 C 0.39778 0.8061 0.39648 0.0
C86 C 0.46018 0.78452 0.39614 0.0
C87 C 0.51603 0.76428 0.42605 0.0
C88 C 0.51005 0.76593 0.4555 0.0
C89 C 0.24296 0.85111 0.49813 0.0
C90 C 0.17375 0.76732 0.42785 0.0
C91 C 0.06348 0.76252 0.50739 0.0
C92 C 0.05669 0.76241 0.53838 0.0
C93 C 0.10804 0.73854 0.56695 0.0
C94 C 0.1017 0.73944 0.59631 0.0
C95 C 0.04419 0.76445 0.59788 0.0
C96 C 0.9933 0.78855 0.56923 0.0
C97 C 0.99948 0.78746 0.53982 0.0
C98 C 0.26305 0.69955 0.49632 0.0
C99 C 0.33276 0.78263 0.56679 0.0
O100 O 0.41071 0.82256 0.49169 0.0
O101 O 0.41609 0.75393 0.49379 0.0
O102 O 0.31874 0.85114 0.51408 0.0
O103 O 0.21831 0.8174 0.4815 0.0
O104 O 0.25095 0.76905 0.4457 0.0
O105 O 0.12933 0.77054 0.44212 0.0
O106 O 0.09307 0.72848 0.50159 0.0
O107 O 0.09144 0.79719 0.50153 0.0
O108 O 0.18725 0.69939 0.48046 0.0
O109 O 0.28738 0.73329 0.5129 0.0
O110 O 0.25553 0.78032 0.54909 0.0
O111 O 0.37693 0.78038 0.55234 0.0
H112 H 0.34288 0.82427 0.42529 0.0
H113 H 0.35406 0.82243 0.37415 0.0
H114 H 0.56403 0.74668 0.42667 0.0
H115 H 0.5537 0.74998 0.47811 0.0
H116 H 0.1533 0.71924 0.56666 0.0
H117 H 0.14141 0.7201 0.61763 0.0
H118 H 0.94925 0.80879 0.56961 0.0
H119 H 0.95983 0.80649 0.51822 0.0
La120 La 0.82954 0.29023 0.49613 0.0
La121 La 0.67859 0.26432 0.49393 0.0
C122 C 0.94441 0.29406 0.48574 0.0
C123 C 0.95503 0.28991 0.45587 0.0
C124 C 0.00892 0.31599 0.45275 0.0
C125 C 0.01767 0.31382 0.42401 0.0
C126 C 0.97224 0.28565 0.39767 0.0
C127 C 0.91857 0.25931 0.401 0.0
C128 C 0.91032 0.26127 0.42988 0.0
C129 C 0.74347 0.35276 0.49797 0.0
C130 C 0.67408 0.27107 0.42553 0.0
C131 C 0.56557 0.2607 0.50546 0.0
C132 C 0.55947 0.26139 0.53661 0.0
C133 C 0.61546 0.24112 0.56631 0.0
C134 C 0.60946 0.24255 0.59574 0.0
C135 C 0.54759 0.2645 0.59622 0.0
C136 C 0.49212 0.28511 0.56643 0.0
C137 C 0.49802 0.2835 0.53697 0.0
C138 C 0.7651 0.20178 0.49229 0.0
C139 C 0.8333 0.28415 0.56457 0.0
O140 O 0.90474 0.32722 0.48596 0.0
O141 O 0.92437 0.25979 0.49594 0.0
O142 O 0.81928 0.35305 0.51375 0.0
O143 O 0.71894 0.31965 0.48052 0.0
O144 O 0.7514 0.27291 0.44323 0.0
O145 O 0.63007 0.27273 0.44007 0.0
O146 O 0.5989 0.22733 0.50096 0.0
O147 O 0.58932 0.29585 0.49809 0.0
O148 O 0.68931 0.20133 0.47663 0.0
O149 O 0.78924 0.23498 0.50965 0.0
O150 O 0.75626 0.28099 0.54684 0.0
O151 O 0.87767 0.28323 0.55018 0.0
H152 H 0.04376 0.33841 0.47243 0.0
H153 H 0.0589 0.33487 0.42212 0.0
H154 H 0.88327 0.23695 0.38137 0.0
H155 H 0.86853 0.24063 0.43173 0.0
H156 H 0.66397 0.22415 0.56683 0.0
H157 H 0.65286 0.22592 0.61798 0.0
H158 H 0.44453 0.303 0.56593 0.0
H159 H 0.4547 0.29977 0.51445 0.0
C160 C 0.72541 0.62997 0.02364 0.0
C161 C 0.69246 0.66413 0.00108 0.0
C162 C 0.67888 0.59606 0.02296 0.0
C163 C 0.47382 0.56552 0.994 0.0
H164 H 0.55405 0.45118 0.00273 0.0
C165 C 0.27978 0.41822 0.97127 0.0
C166 C 0.3132 0.38381 0.9935 0.0
C167 C 0.32601 0.45233 0.97201 0.0
C168 C 0.53107 0.48291 0.00064 0.0
H169 H 0.5853 0.68962 0.95998 0.0
H170 H 0.50378 0.63045 0.95876 0.0
H171 H 0.63445 0.5111 0.00473 0.0
H172 H 0.4208 0.35812 0.03418 0.0
H173 H 0.50173 0.41768 0.03561 0.0
H174 H 0.37046 0.53732 0.98993 0.0
C175 C 0.56538 0.63005 0.9773 0.0
C176 C 0.5772 0.51729 0.00179 0.0
C177 C 0.61202 0.66393 0.97795 0.0
C178 C 0.39372 0.38403 0.01647 0.0
C179 C 0.44004 0.41812 0.01722 0.0
C180 C 0.4277 0.53113 0.99286 0.0
C181 C 0.59834 0.59558 -0.00032 0.0
C182 C 0.54918 0.55902 -0.00149 0.0
C183 C 0.40671 0.45278 0.99507 0.0
C184 C 0.45574 0.48938 0.99617 0.0
H185 H 0.78727 0.62941 0.04181 0.0
H186 H 0.70596 0.57034 0.04087 0.0
H187 H 0.45086 0.59726 0.99187 0.0
H188 H 0.21783 0.41877 0.95322 0.0
H189 H 0.29861 0.47818 0.95428 0.0
C190 C 0.27946 0.63013 0.47439 0.0
C191 C 0.31277 0.66427 0.4966 0.0
C192 C 0.32605 0.59646 0.47464 0.0
C193 C 0.53103 0.56737 0.5013 0.0
H194 H 0.45381 0.45241 0.4921 0.0
C195 C 0.72721 0.42158 0.52075 0.0
C196 C 0.6938 0.38774 0.49822 0.0
C197 C 0.68072 0.45512 0.52079 0.0
C198 C 0.47594 0.48434 0.49432 0.0
H199 H 0.4206 0.68984 0.53681 0.0
H200 H 0.50218 0.63103 0.53738 0.0
H201 H 0.37309 0.51134 0.49168 0.0
H202 H 0.58585 0.36256 0.45779 0.0
H203 H 0.50446 0.42112 0.45778 0.0
H204 H 0.63388 0.54036 0.50394 0.0
C205 C 0.44024 0.63048 0.51938 0.0
C206 C 0.42962 0.51816 0.49408 0.0
C207 C 0.39355 0.66413 0.51914 0.0
C208 C 0.61299 0.38802 0.47572 0.0
C209 C 0.5664 0.42153 0.47579 0.0
C210 C 0.57736 0.53355 0.50155 0.0
C211 C 0.40705 0.59616 0.49716 0.0
C212 C 0.45654 0.56013 0.49754 0.0
C213 C 0.59973 0.45559 0.49826 0.0
C214 C 0.55041 0.49159 0.49806 0.0
H215 H 0.21733 0.62951 0.45667 0.0
H216 H 0.29866 0.57089 0.45686 0.0
H217 H 0.55314 0.5993 0.50349 0.0
H218 H 0.78936 0.4221 0.53844 0.0
H219 H 0.70819 0.48051 0.53875 0.0
C220 C 0.22819 0.12757 0.01959 0.0
C221 C 0.19503 0.16187 -0.00279 0.0
C222 C 0.18161 0.09379 0.01911 0.0
C223 C 0.97655 0.06446 0.99133 0.0
H224 H 0.05462 0.94959 0.00023 0.0
C225 C 0.78075 0.91856 0.97046 0.0
C226 C 0.81397 0.88453 0.99311 0.0
C227 C 0.82731 0.95214 0.97058 0.0
C228 C 0.03227 0.98149 -0.00193 0.0
H229 H 0.08756 0.18769 0.95652 0.0
H230 H 0.00602 0.12871 0.95557 0.0
H231 H 0.13552 1.00887 0.00143 0.0
H232 H 0.92158 0.85893 0.03387 0.0
H233 H 1.00311 0.91752 0.03415 0.0
H234 H 0.87332 0.03709 0.98799 0.0
C235 C 0.06779 0.1281 0.97385 0.0
C236 C 0.07867 1.01549 -0.00122 0.0
C237 C 0.11445 0.16184 0.97433 0.0
C238 C 0.89464 0.88453 0.01582 0.0
C239 C 0.9413 0.91807 0.01593 0.0
C240 C 0.93015 0.03046 0.99062 0.0
C241 C 0.10084 0.09358 0.99618 0.0
C242 C 0.05141 0.0574 0.99543 0.0
C243 C 0.90813 0.9524 0.99341 0.0
C244 C 0.95743 0.98855 0.99399 0.0
H245 H 0.29018 0.12688 0.03756 0.0
H246 H 0.2088 0.06803 0.03696 0.0
H247 H 0.95422 0.09635 0.98921 0.0
H248 H 0.71869 0.91926 0.95261 0.0
H249 H 0.80005 0.97776 0.95259 0.0
C250 C 0.89553 0.16617 0.51519 0.0
C251 C 0.81486 0.1666 0.49244 0.0
C252 C 0.94199 0.13231 0.51558 0.0
C253 C 0.93005 1.01979 0.49084 0.0
H254 H 0.13532 0.04025 0.50127 0.0
C255 C 0.11277 0.88699 0.47501 0.0
C256 C 0.19353 0.88672 0.49758 0.0
C257 C 0.06643 0.92105 0.47441 0.0
C258 C 0.07851 0.03392 0.49874 0.0
H259 H 0.71945 0.13219 0.45219 0.0
H260 H 0.80038 0.07317 0.45268 0.0
H261 H 0.05522 0.09995 0.5001 0.0
H262 H 0.28926 0.9216 0.53727 0.0
H263 H 0.20855 0.98088 0.53648 0.0
H264 H 0.95336 0.95377 0.48956 0.0
C265 C 0.82783 0.09871 0.47049 0.0
C266 C 0.03255 0.06819 0.49805 0.0
C267 C 0.7815 0.1326 0.47007 0.0
C268 C 0.22714 0.92108 0.51952 0.0
C269 C 0.18091 0.95513 0.51893 0.0
C270 C 0.97603 0.98552 0.49156 0.0
C271 C 0.90865 0.09804 0.49332 0.0
C272 C 0.9577 0.06157 0.49407 0.0
C273 C 0.09995 0.95562 0.49632 0.0
C274 C 0.05088 0.99213 0.49552 0.0
H275 H 0.9226 0.19172 0.53302 0.0
H276 H 1.00381 0.13258 0.53379 0.0
H277 H 0.87322 1.01347 0.48829 0.0
H278 H 0.08546 0.86109 0.45757 0.0
H279 H 1.00452 0.9206 0.45636 0.0
C280 C 0.68274 0.27181 0.37256 0.0
C281 C 0.63705 0.26777 0.38843 0.0
C282 C 0.64883 0.26861 0.33761 0.0
C283 C 0.46162 0.27972 0.25943 0.0
H284 H 0.56866 0.21884 0.21999 0.0
C285 C 0.32136 0.25447 0.11638 0.0
C286 C 0.36908 0.261 0.10171 0.0
C287 C 0.35367 0.25273 0.15134 0.0
C288 C 0.53849 0.23627 0.23065 0.0
H289 H 0.51969 0.2572 0.37998 0.0
H290 H 0.46021 0.25149 0.31864 0.0
H291 H 0.6247 0.22019 0.28125 0.0
H292 H 0.48841 0.26991 0.11223 0.0
H293 H 0.54505 0.26721 0.17359 0.0
H294 H 0.37581 0.29617 0.20893 0.0
C295 C 0.52237 0.25742 0.33341 0.0
C296 C 0.57046 0.237 0.26569 0.0
C297 C 0.55644 0.26058 0.36851 0.0
C298 C 0.45016 0.2648 0.12278 0.0
C299 C 0.48258 0.26309 0.15789 0.0
C300 C 0.42969 0.27902 0.22442 0.0
C301 C 0.56833 0.26138 0.31764 0.0
C302 C 0.53258 0.25895 0.28044 0.0
C303 C 0.43448 0.25746 0.1725 0.0
C304 C 0.46797 0.25745 0.20967 0.0
H305 H 0.74478 0.27797 0.38705 0.0
H306 H 0.68556 0.27259 0.32617 0.0
H307 H 0.43172 0.29744 0.27008 0.0
H308 H 0.25873 0.25083 0.1009 0.0
H309 H 0.31524 0.24759 0.16181 0.0
C310 C 0.59367 0.78122 0.15775 0.0
C311 C 0.52728 0.78349 0.12547 0.0
C312 C 0.58608 0.78076 0.18683 0.0
C313 C 0.44545 0.80643 0.21696 0.0
H314 H 0.58611 0.73804 0.29428 0.0
C315 C 0.40053 0.78047 0.33271 0.0
C316 C 0.46731 0.78342 0.36487 0.0
C317 C 0.40736 0.78004 0.30345 0.0
C318 C 0.54677 0.75758 0.273 0.0
H319 H 0.40071 0.78609 0.09851 0.0
H320 H 0.38728 0.78463 0.14906 0.0
H321 H 0.59869 0.73774 0.2435 0.0
H322 H 0.59375 0.78875 0.39108 0.0
H323 H 0.60551 0.78723 0.34015 0.0
H324 H 0.39306 0.82582 0.24647 0.0
C325 C 0.44546 0.78422 0.15204 0.0
C326 C 0.55408 0.75752 0.24386 0.0
C327 C 0.4531 0.78495 0.12299 0.0
C328 C 0.54107 0.78565 0.36689 0.0
C329 C 0.54789 0.78489 0.33765 0.0
C330 C 0.43782 0.80624 0.24603 0.0
C331 C 0.51184 0.78228 0.18441 0.0
C332 C 0.50366 0.78204 0.21543 0.0
C333 C 0.48113 0.78221 0.30556 0.0
C334 C 0.48853 0.78192 0.27444 0.0
H335 H 0.65174 0.78065 0.16059 0.0
H336 H 0.63864 0.77999 0.21124 0.0
H337 H 0.40642 0.82632 0.19589 0.0
H338 H 0.34282 0.77794 0.33009 0.0
H339 H 0.35483 0.77739 0.27914 0.0
C340 C 0.68617 0.78845 0.87574 0.0
C341 C 0.63861 0.78551 0.89079 0.0
C342 C 0.65322 0.79078 0.84079 0.0
C343 C 0.47163 0.81583 0.76248 0.0
H344 H 0.56509 0.74691 0.72113 0.0
C345 C 0.32231 0.78702 0.61926 0.0
C346 C 0.36936 0.78623 0.60387 0.0
C347 C 0.35597 0.78924 0.65426 0.0
C348 C 0.53901 0.76681 0.73231 0.0
H349 H 0.51876 0.78331 0.88083 0.0
H350 H 0.46089 0.78688 0.81941 0.0
H351 H 0.62105 0.74621 0.78226 0.0
H352 H 0.4887 0.78808 0.61317 0.0
H353 H 0.54766 0.79255 0.6745 0.0
H354 H 0.38933 0.83627 0.71243 0.0
C355 C 0.5239 0.78783 0.83489 0.0
C356 C 0.57094 0.76634 0.76732 0.0
C357 C 0.55702 0.78557 0.87003 0.0
C358 C 0.45089 0.78838 0.62426 0.0
C359 C 0.48464 0.79074 0.65937 0.0
C360 C 0.4397 0.81634 0.72742 0.0
C361 C 0.57181 0.79007 0.81995 0.0
C362 C 0.53753 0.79079 0.78276 0.0
C363 C 0.43748 0.79093 0.67472 0.0
C364 C 0.47294 0.79171 0.71198 0.0
H365 H 0.74914 0.78871 0.89088 0.0
H366 H 0.69167 0.79321 0.83007 0.0
H367 H 0.44532 0.83543 0.77372 0.0
H368 H 0.25925 0.78551 0.60435 0.0
H369 H 0.31807 0.78871 0.66531 0.0
C370 C 0.46687 0.26388 0.62555 0.0
C371 C 0.54062 0.26564 0.62752 0.0
C372 C 0.4602 0.26472 0.65482 0.0
C373 C 0.5701 0.2429 0.74638 0.0
H374 H 0.4107 0.31242 0.7492 0.0
C375 C 0.55554 0.26464 0.86953 0.0
C376 C 0.48141 0.26645 0.86708 0.0
C377 C 0.56314 0.26527 0.84047 0.0
C378 C 0.4549 0.29236 0.74875 0.0
H379 H 0.66525 0.27038 0.66226 0.0
H380 H 0.65348 0.2711 0.71326 0.0
H381 H 0.42313 0.31193 0.69838 0.0
H382 H 0.35697 0.26981 0.83199 0.0
H383 H 0.36999 0.27033 0.78132 0.0
H384 H 0.60124 0.22275 0.79647 0.0
C385 C 0.60084 0.26873 0.68897 0.0
C386 C 0.46211 0.29219 0.71959 0.0
C387 C 0.60754 0.26821 0.65967 0.0
C388 C 0.41502 0.26898 0.83481 0.0
C389 C 0.42256 0.26935 0.80573 0.0
C390 C 0.56256 0.24283 0.77546 0.0
C391 C 0.52708 0.26704 0.6869 0.0
C392 C 0.51981 0.26746 0.71804 0.0
C393 C 0.49676 0.26746 0.80813 0.0
C394 C 0.50487 0.26759 0.77709 0.0
H395 H 0.41408 0.26108 0.60137 0.0
H396 H 0.40257 0.26275 0.65235 0.0
H397 H 0.61444 0.22303 0.74585 0.0
H398 H 0.60794 0.26329 0.894 0.0
H399 H 0.62129 0.26457 0.84344 0.0
C400 C 0.8245 0.77029 0.11991 0.0
C401 C 0.87008 0.76507 0.10411 0.0
C402 C 0.85836 0.76753 0.15491 0.0
C403 C 0.04573 0.77818 0.23284 0.0
H404 H 0.9376 0.72025 0.27337 0.0
C405 C 0.18544 0.75541 0.37632 0.0
C406 C 0.13783 0.76308 0.39086 0.0
C407 C 0.15312 0.7531 0.3414 0.0
C408 C 0.96808 0.73687 0.26239 0.0
H409 H 0.98716 0.75284 0.11272 0.0
H410 H 0.04654 0.74793 0.17414 0.0
H411 H 0.88162 0.72043 0.2121 0.0
H412 H 0.01869 0.7735 0.38016 0.0
H413 H 0.96203 0.76981 0.31885 0.0
H414 H 0.13179 0.79501 0.28304 0.0
C415 C 0.98452 0.75442 0.15928 0.0
C416 C 0.93616 0.73691 0.22735 0.0
C417 C 0.9505 0.75712 0.12414 0.0
C418 C 0.05685 0.76752 0.36971 0.0
C419 C 0.02441 0.76523 0.33464 0.0
C420 C 0.07762 0.77816 0.26786 0.0
C421 C 0.93869 0.7596 0.17498 0.0
C422 C 0.97443 0.7578 0.21222 0.0
C423 C 0.07241 0.7584 0.32015 0.0
C424 C 0.03895 0.75768 0.28299 0.0
H425 H 0.76263 0.77706 0.10534 0.0
H426 H 0.82176 0.77244 0.16628 0.0
H427 H 0.07594 0.79509 0.22187 0.0
H428 H 0.24799 0.75127 0.39187 0.0
H429 H 0.19146 0.74705 0.33104 0.0
C430 C 0.914 0.28165 0.3345 0.0
C431 C 0.98036 0.28411 0.36675 0.0
C432 C 0.9216 0.28104 0.30543 0.0
C433 C 0.06171 0.30673 0.27497 0.0
H434 H 0.92223 0.23785 0.1985 0.0
C435 C 0.10671 0.28051 0.1594 0.0
C436 C 0.03979 0.28314 0.12723 0.0
C437 C 0.10001 0.28021 0.18871 0.0
C438 C 0.96123 0.25753 0.21953 0.0
H439 H 0.10689 0.28686 0.39367 0.0
H440 H 0.12033 0.28516 0.34314 0.0
H441 H 0.90976 0.2377 0.24931 0.0
H442 H 0.91325 0.28807 0.10103 0.0
H443 H 0.90174 0.2868 0.15203 0.0
H444 H 0.11365 0.32613 0.24519 0.0
C445 C 0.06216 0.28471 0.34017 0.0
C446 C 0.95398 0.25755 0.24869 0.0
C447 C 0.05452 0.28558 0.36921 0.0
C448 C 0.96604 0.28521 0.12524 0.0
C449 C 0.95937 0.2846 0.15452 0.0
C450 C 0.06927 0.30647 0.24589 0.0
C451 C 0.99581 0.2826 0.30783 0.0
C452 C 1.00397 0.28225 0.27681 0.0
C453 C 0.02624 0.2822 0.18662 0.0
C454 C 0.01896 0.28198 0.21777 0.0
H455 H 0.85594 0.28108 0.33167 0.0
H456 H 0.86904 0.28013 0.28103 0.0
H457 H 0.1004 0.32675 0.2958 0.0
H458 H 0.16442 0.27811 0.16202 0.0
H459 H 0.15265 0.27778 0.21302 0.0
C460 C 0.95052 0.28472 0.62263 0.0
C461 C 0.86927 0.28781 0.6016 0.0
C462 C 0.9831 0.28655 0.65774 0.0
C463 C 0.93156 0.26987 0.72471 0.0
H464 H 0.12349 0.33106 0.78044 0.0
C465 C 0.05698 0.28974 0.86839 0.0
C466 C 0.13789 0.2834 0.88846 0.0
C467 C 0.02291 0.29268 0.83326 0.0
C468 C 0.07013 0.3136 0.7652 0.0
H469 H 0.7587 0.29676 0.60087 0.0
H470 H 0.81545 0.30017 0.66173 0.0
H471 H 0.06737 0.33165 0.71915 0.0
H472 H 0.24621 0.27463 0.88732 0.0
H473 H 0.18702 0.27962 0.82639 0.0
H474 H 0.93454 0.25157 0.77071 0.0
C475 C 0.85395 0.29551 0.65126 0.0
C476 C 0.03813 0.31388 0.73015 0.0
C477 C 0.82149 0.29366 0.61631 0.0
C478 C 0.18392 0.28012 0.87272 0.0
C479 C 0.15001 0.28309 0.83772 0.0
C480 C 0.96352 0.26961 0.75974 0.0
C481 C 0.93498 0.29157 0.67238 0.0
C482 C 0.96868 0.29187 0.70956 0.0
C483 C 0.06916 0.28934 0.8176 0.0
C484 C 0.03337 0.29126 0.78035 0.0
H485 H 0.98882 0.28016 0.61206 0.0
H486 H 0.04576 0.28305 0.67342 0.0
H487 H 0.87856 0.25209 0.70954 0.0
H488 H 0.01995 0.29253 0.87976 0.0
H489 H 0.96047 0.29788 0.81837 0.0
C490 C 0.10407 0.76374 0.6614 0.0
C491 C 0.03715 0.7653 0.62918 0.0
C492 C 0.09729 0.76407 0.69068 0.0
C493 C 0.96359 0.79413 0.72255 0.0
H494 H 0.0889 0.71651 0.79586 0.0
C495 C 0.91385 0.77195 0.83725 0.0
C496 C 0.9797 0.76536 0.86921 0.0
C497 C 0.92093 0.77239 0.80804 0.0
C498 C 0.05421 0.73886 0.77588 0.0
H499 H 0.91039 0.76796 0.60284 0.0
H500 H 0.89887 0.76928 0.65385 0.0
H501 H 0.10176 0.71684 0.74516 0.0
H502 H 0.10497 0.75509 0.89551 0.0
H503 H 0.11764 0.75648 0.84479 0.0
H504 H 0.91662 0.81655 0.75331 0.0
C505 C 0.95664 0.76814 0.6564 0.0
C506 C 0.06152 0.73895 0.74674 0.0
C507 C 0.96334 0.76748 0.62712 0.0
C508 C 0.05289 0.75963 0.87126 0.0
C509 C 0.06007 0.76032 0.8421 0.0
C510 C 0.95664 0.79425 0.75178 0.0
C511 C 0.0235 0.7663 0.68854 0.0
C512 C 0.0162 0.76652 0.71969 0.0
C513 C 0.99415 0.7665 0.81003 0.0
C514 C 1.00176 0.76657 0.77886 0.0
H515 H 0.16197 0.76283 0.6641 0.0
H516 H 0.15003 0.76321 0.71505 0.0
H517 H 0.92856 0.81617 0.70236 0.0
H518 H 0.85642 0.77588 0.83471 0.0
H519 H 0.86861 0.77655 0.78382 0.0
loop_
_geom_bond_atom_site_label_1
_geom_bond_atom_site_label_2
_geom_bond_distance
_geom_bond_site_symmetry_2
_ccdc_geom_bond_type
La0 C2 2.928 . S
La0 O20 2.521 . S
La0 O21 2.628 . S
La0 O22 2.554 . S
La0 O23 2.757 1_554 S
La0 O24 2.470 . S
La0 O29 2.482 . S
La0 O31 2.503 1_554 S
La1 C11 2.928 . S
La1 O23 2.482 . S
La1 O25 2.503 1_556 S
La1 O26 2.521 . S
La1 O27 2.628 . S
La1 O28 2.554 . S
La1 O29 2.757 1_556 S
La1 O30 2.470 . S
C2 La0 2.928 . S
C2 C3 1.503 . S
C2 O20 1.261 . S
C2 O21 1.243 . S
C3 C2 1.503 . S
C3 C4 1.394 . S
C3 C8 1.373 . S
C4 C3 1.394 . S
C4 C5 1.380 . S
C4 H32 0.930 . S
C5 C4 1.380 . S
C5 C6 1.376 . S
C5 H33 0.930 . S
C6 C5 1.376 . S
C6 C7 1.370 . S
C7 C6 1.370 . S
C7 C8 1.396 . S
C7 H34 0.929 . S
C8 C3 1.373 . S
C8 C7 1.396 . S
C8 H35 0.929 . S
C9 O22 1.240 . S
C9 O23 1.289 1_554 S
C10 O24 1.258 . S
C10 O25 1.256 . S
C11 La1 2.928 . S
C11 C12 1.503 . S
C11 O26 1.261 . S
C11 O27 1.243 . S
C12 C11 1.503 . S
C12 C13 1.394 . S
C12 C17 1.373 . S
C13 C12 1.394 . S
C13 C14 1.380 . S
C13 H36 0.930 . S
C14 C13 1.380 . S
C14 C15 1.376 . S
C14 H37 0.930 . S
C15 C14 1.376 . S
C15 C16 1.370 . S
C16 C15 1.370 . S
C16 C17 1.396 . S
C16 H38 0.929 . S
C17 C12 1.373 . S
C17 C16 1.396 . S
C17 H39 0.929 . S
C18 O28 1.240 . S
C18 O29 1.289 1_556 S
C19 O30 1.258 . S
C19 O31 1.256 . S
O20 La0 2.521 . S
O20 C2 1.261 . S
O21 La0 2.628 . S
O21 C2 1.243 . S
O22 La0 2.554 . S
O22 C9 1.240 . S
O23 La0 2.757 1_556 S
O23 La1 2.482 . S
O23 C9 1.289 1_556 S
O24 La0 2.470 . S
O24 C10 1.258 . S
O25 La1 2.503 1_554 S
O25 C10 1.256 . S
O26 La1 2.521 . S
O26 C11 1.261 . S
O27 La1 2.628 . S
O27 C11 1.243 . S
O28 La1 2.554 . S
O28 C18 1.240 . S
O29 La0 2.482 . S
O29 La1 2.757 1_554 S
O29 C18 1.289 1_554 S
O30 La1 2.470 . S
O30 C19 1.258 . S
O31 La0 2.503 1_556 S
O31 C19 1.256 . S
H32 C4 0.930 . S
H33 C5 0.930 . S
H34 C7 0.929 . S
H35 C8 0.929 . S
H36 C13 0.930 . S
H37 C14 0.930 . S
H38 C16 0.929 . S
H39 C17 0.929 . S
La40 C42 2.928 . S
La40 O60 2.521 . S
La40 O61 2.628 . S
La40 O62 2.554 . S
La40 O63 2.757 1_554 S
La40 O64 2.470 . S
La40 O69 2.482 . S
La40 O71 2.503 1_554 S
La41 C51 2.928 . S
La41 O63 2.482 . S
La41 O65 2.503 1_556 S
La41 O66 2.521 . S
La41 O67 2.628 . S
La41 O68 2.554 . S
La41 O69 2.757 1_556 S
La41 O70 2.470 . S
C42 La40 2.928 . S
C42 C43 1.503 . S
C42 O60 1.261 . S
C42 O61 1.243 . S
C43 C42 1.503 . S
C43 C44 1.394 . S
C43 C48 1.373 . S
C44 C43 1.394 . S
C44 C45 1.380 . S
C44 H72 0.930 . S
C45 C44 1.380 . S
C45 C46 1.376 . S
C45 H73 0.930 . S
C46 C45 1.376 . S
C46 C47 1.370 . S
C47 C46 1.370 . S
C47 C48 1.396 . S
C47 H74 0.929 . S
C48 C43 1.373 . S
C48 C47 1.396 . S
C48 H75 0.929 . S
C49 O62 1.240 . S
C49 O63 1.289 1_554 S
C50 O64 1.258 . S
C50 O65 1.256 . S
C51 La41 2.928 . S
C51 C52 1.503 . S
C51 O66 1.261 . S
C51 O67 1.243 . S
C52 C51 1.503 . S
C52 C53 1.394 . S
C52 C57 1.373 . S
C53 C52 1.394 . S
C53 C54 1.380 . S
C53 H76 0.930 . S
C54 C53 1.380 . S
C54 C55 1.376 . S
C54 H77 0.930 . S
C55 C54 1.376 . S
C55 C56 1.370 . S
C56 C55 1.370 . S
C56 C57 1.396 . S
C56 H78 0.929 . S
C57 C52 1.373 . S
C57 C56 1.396 . S
C57 H79 0.929 . S
C58 O68 1.240 . S
C58 O69 1.289 1_556 S
C59 O70 1.258 . S
C59 O71 1.256 . S
O60 La40 2.521 . S
O60 C42 1.261 . S
O61 La40 2.628 . S
O61 C42 1.243 . S
O62 La40 2.554 . S
O62 C49 1.240 . S
O63 La40 2.757 1_556 S
O63 La41 2.482 . S
O63 C49 1.289 1_556 S
O64 La40 2.470 . S
O64 C50 1.258 . S
O65 La41 2.503 1_554 S
O65 C50 1.256 . S
O66 La41 2.521 . S
O66 C51 1.261 . S
O67 La41 2.628 . S
O67 C51 1.243 . S
O68 La41 2.554 . S
O68 C58 1.240 . S
O69 La40 2.482 . S
O69 La41 2.757 1_554 S
O69 C58 1.289 1_554 S
O70 La41 2.470 . S
O70 C59 1.258 . S
O71 La40 2.503 1_556 S
O71 C59 1.256 . S
H72 C44 0.930 . S
H73 C45 0.930 . S
H74 C47 0.929 . S
H75 C48 0.929 . S
H76 C53 0.930 . S
H77 C54 0.930 . S
H78 C56 0.929 . S
H79 C57 0.929 . S
La80 C82 2.928 . S
La80 O100 2.521 . S
La80 O101 2.628 . S
La80 O102 2.554 . S
La80 O103 2.757 . S
La80 O104 2.470 . S
La80 O109 2.482 . S
La80 O111 2.503 . S
La81 C91 2.928 . S
La81 O103 2.482 . S
La81 O105 2.503 . S
La81 O106 2.521 . S
La81 O107 2.628 . S
La81 O108 2.554 . S
La81 O109 2.757 . S
La81 O110 2.470 . S
C82 La80 2.928 . S
C82 C83 1.503 . S
C82 O100 1.261 . S
C82 O101 1.243 . S
C83 C82 1.503 . S
C83 C84 1.394 . S
C83 C88 1.373 . S
C84 C83 1.394 . S
C84 C85 1.380 . S
C84 H112 0.930 . S
C85 C84 1.380 . S
C85 C86 1.376 . S
C85 H113 0.930 . S
C86 C85 1.376 . S
C86 C87 1.370 . S
C87 C86 1.370 . S
C87 C88 1.396 . S
C87 H114 0.929 . S
C88 C83 1.373 . S
C88 C87 1.396 . S
C88 H115 0.929 . S
C89 O102 1.240 . S
C89 O103 1.289 . S
C90 O104 1.258 . S
C90 O105 1.256 . S
C91 La81 2.928 . S
C91 C92 1.503 . S
C91 O106 1.261 . S
C91 O107 1.243 . S
C92 C91 1.503 . S
C92 C93 1.394 . S
C92 C97 1.373 . S
C93 C92 1.394 . S
C93 C94 1.380 . S
C93 H116 0.930 . S
C94 C93 1.380 . S
C94 C95 1.376 . S
C94 H117 0.930 . S
C95 C94 1.376 . S
C95 C96 1.370 . S
C96 C95 1.370 . S
C96 C97 1.396 . S
C96 H118 0.929 . S
C97 C92 1.373 . S
C97 C96 1.396 . S
C97 H119 0.929 . S
C98 O108 1.240 . S
C98 O109 1.289 . S
C99 O110 1.258 . S
C99 O111 1.256 . S
O100 La80 2.521 . S
O100 C82 1.261 . S
O101 La80 2.628 . S
O101 C82 1.243 . S
O102 La80 2.554 . S
O102 C89 1.240 . S
O103 La80 2.757 . S
O103 La81 2.482 . S
O103 C89 1.289 . S
O104 La80 2.470 . S
O104 C90 1.258 . S
O105 La81 2.503 . S
O105 C90 1.256 . S
O106 La81 2.521 . S
O106 C91 1.261 . S
O107 La81 2.628 . S
O107 C91 1.243 . S
O108 La81 2.554 . S
O108 C98 1.240 . S
O109 La80 2.482 . S
O109 La81 2.757 . S
O109 C98 1.289 . S
O110 La81 2.470 . S
O110 C99 1.258 . S
O111 La80 2.503 . S
O111 C99 1.256 . S
H112 C84 0.930 . S
H113 C85 0.930 . S
H114 C87 0.929 . S
H115 C88 0.929 . S
H116 C93 0.930 . S
H117 C94 0.930 . S
H118 C96 0.929 . S
H119 C97 0.929 . S
La120 C122 2.928 . S
La120 O140 2.521 . S
La120 O141 2.628 . S
La120 O142 2.554 . S
La120 O143 2.757 . S
La120 O144 2.470 . S
La120 O149 2.482 . S
La120 O151 2.503 . S
La121 C131 2.928 . S
La121 O143 2.482 . S
La121 O145 2.503 . S
La121 O146 2.521 . S
La121 O147 2.628 . S
La121 O148 2.554 . S
La121 O149 2.757 . S
La121 O150 2.470 . S
C122 La120 2.928 . S
C122 C123 1.503 . S
C122 O140 1.261 . S
C122 O141 1.243 . S
C123 C122 1.503 . S
C123 C124 1.394 . S
C123 C128 1.373 . S
C124 C123 1.394 . S
C124 C125 1.380 . S
C124 H152 0.930 . S
C125 C124 1.380 . S
C125 C126 1.376 . S
C125 H153 0.930 . S
C126 C125 1.376 . S
C126 C127 1.370 . S
C127 C126 1.370 . S
C127 C128 1.396 . S
C127 H154 0.929 . S
C128 C123 1.373 . S
C128 C127 1.396 . S
C128 H155 0.929 . S
C129 O142 1.240 . S
C129 O143 1.289 . S
C130 O144 1.258 . S
C130 O145 1.256 . S
C131 La121 2.928 . S
C131 C132 1.503 . S
C131 O146 1.261 . S
C131 O147 1.243 . S
C132 C131 1.503 . S
C132 C133 1.394 . S
C132 C137 1.373 . S
C133 C132 1.394 . S
C133 C134 1.380 . S
C133 H156 0.930 . S
C134 C133 1.380 . S
C134 C135 1.376 . S
C134 H157 0.930 . S
C135 C134 1.376 . S
C135 C136 1.370 . S
C136 C135 1.370 . S
C136 C137 1.396 . S
C136 H158 0.929 . S
C137 C132 1.373 . S
C137 C136 1.396 . S
C137 H159 0.929 . S
C138 O148 1.240 . S
C138 O149 1.289 . S
C139 O150 1.258 . S
C139 O151 1.256 . S
O140 La120 2.521 . S
O140 C122 1.261 . S
O141 La120 2.628 . S
O141 C122 1.243 . S
O142 La120 2.554 . S
O142 C129 1.240 . S
O143 La120 2.757 . S
O143 La121 2.482 . S
O143 C129 1.289 . S
O144 La120 2.470 . S
O144 C130 1.258 . S
O145 La121 2.503 . S
O145 C130 1.256 . S
O146 La121 2.521 . S
O146 C131 1.261 . S
O147 La121 2.628 . S
O147 C131 1.243 . S
O148 La121 2.554 . S
O148 C138 1.240 . S
O149 La120 2.482 . S
O149 La121 2.757 . S
O149 C138 1.289 . S
O150 La121 2.470 . S
O150 C139 1.258 . S
O151 La120 2.503 . S
O151 C139 1.256 . S
H152 C124 0.930 . S
H153 C125 0.930 . S
H154 C127 0.929 . S
H155 C128 0.929 . S
H156 C133 0.930 . S
H157 C134 0.930 . S
H158 C136 0.929 . S
H159 C137 0.929 . S
C160 C161 1.349 1_554 S
C160 C162 1.327 . S
C160 H185 0.950 . S
C161 C160 1.349 1_556 S
C161 C177 1.349 . S
C162 C160 1.327 . S
C162 C181 1.429 1_554 S
C162 H186 0.950 . S
C163 C180 1.574 . S
C163 C182 1.364 . S
C163 H187 0.949 . S
H164 C168 0.949 . S
C165 C166 1.349 1_556 S
C165 C167 1.327 . S
C165 H188 0.950 . S
C166 C165 1.349 1_554 S
C166 C178 1.349 . S
C167 C165 1.327 . S
C167 C183 1.429 1_556 S
C167 H189 0.950 . S
C168 H164 0.949 . S
C168 C176 1.574 . S
C168 C184 1.359 . S
H169 C177 0.950 . S
H170 C175 0.950 . S
H171 C176 0.949 . S
H172 C178 0.950 . S
H173 C179 0.950 . S
H174 C180 0.949 . S
C175 H170 0.950 . S
C175 C177 1.327 . S
C175 C181 1.429 . S
C176 C168 1.574 . S
C176 H171 0.949 . S
C176 C182 1.368 1_554 S
C177 C161 1.349 . S
C177 H169 0.950 . S
C177 C175 1.327 . S
C178 C166 1.349 . S
C178 H172 0.950 . S
C178 C179 1.327 . S
C179 H173 0.950 . S
C179 C178 1.327 . S
C179 C183 1.429 . S
C180 C163 1.574 . S
C180 H174 0.949 . S
C180 C184 1.369 1_556 S
C181 C162 1.429 1_556 S
C181 C175 1.429 . S
C181 C182 1.529 . S
C182 C163 1.364 . S
C182 C176 1.368 1_556 S
C182 C181 1.529 . S
C183 C167 1.429 1_554 S
C183 C179 1.429 . S
C183 C184 1.536 . S
C184 C168 1.359 . S
C184 C180 1.369 1_554 S
C184 C183 1.536 . S
H185 C160 0.950 . S
H186 C162 0.950 . S
H187 C163 0.949 . S
H188 C165 0.950 . S
H189 C167 0.950 . S
C190 C191 1.349 . S
C190 C192 1.327 . S
C190 H215 0.950 . S
C191 C190 1.349 . S
C191 C207 1.349 . S
C192 C190 1.327 . S
C192 C211 1.429 . S
C192 H216 0.950 . S
C193 C210 1.574 . S
C193 C212 1.368 . S
C193 H217 0.949 . S
H194 C198 0.949 . S
C195 C196 1.349 . S
C195 C197 1.327 . S
C195 H218 0.950 . S
C196 C195 1.349 . S
C196 C208 1.349 . S
C197 C195 1.327 . S
C197 C213 1.429 . S
C197 H219 0.950 . S
C198 H194 0.949 . S
C198 C206 1.574 . S
C198 C214 1.368 . S
H199 C207 0.950 . S
H200 C205 0.950 . S
H201 C206 0.949 . S
H202 C208 0.950 . S
H203 C209 0.950 . S
H204 C210 0.949 . S
C205 H200 0.950 . S
C205 C207 1.327 . S
C205 C211 1.429 . S
C206 C198 1.574 . S
C206 H201 0.949 . S
C206 C212 1.368 . S
C207 C191 1.349 . S
C207 H199 0.950 . S
C207 C205 1.327 . S
C208 C196 1.349 . S
C208 H202 0.950 . S
C208 C209 1.327 . S
C209 H203 0.950 . S
C209 C208 1.327 . S
C209 C213 1.429 . S
C210 C193 1.574 . S
C210 H204 0.949 . S
C210 C214 1.368 . S
C211 C192 1.429 . S
C211 C205 1.429 . S
C211 C212 1.523 . S
C212 C193 1.368 . S
C212 C206 1.368 . S
C212 C211 1.523 . S
C213 C197 1.429 . S
C213 C209 1.429 . S
C213 C214 1.523 . S
C214 C198 1.368 . S
C214 C210 1.368 . S
C214 C213 1.523 . S
H215 C190 0.950 . S
H216 C192 0.950 . S
H217 C193 0.949 . S
H218 C195 0.950 . S
H219 C197 0.950 . S
C220 C221 1.349 . S
C220 C222 1.327 . S
C220 H245 0.950 . S
C221 C220 1.349 . S
C221 C237 1.349 1_556 S
C222 C220 1.327 . S
C222 C241 1.429 . S
C222 H246 0.950 . S
C223 C240 1.574 . S
C223 C242 1.354 1_654 S
C223 H247 0.949 . S
H224 C228 0.949 . S
C225 C226 1.349 . S
C225 C227 1.327 . S
C225 H248 0.950 . S
C226 C225 1.349 . S
C226 C238 1.349 1_554 S
C227 C225 1.327 . S
C227 C243 1.429 . S
C227 H249 0.950 . S
C228 H224 0.949 . S
C228 C236 1.574 . S
C228 C244 1.337 1_456 S
H229 C237 0.950 . S
H230 C235 0.950 . S
H231 C236 0.949 . S
H232 C238 0.950 . S
H233 C239 0.950 . S
H234 C240 0.949 . S
C235 H230 0.950 . S
C235 C237 1.327 . S
C235 C241 1.429 1_554 S
C236 C228 1.574 . S
C236 H231 0.949 . S
C236 C242 1.378 1_565 S
C237 C221 1.349 1_554 S
C237 H229 0.950 . S
C237 C235 1.327 . S
C238 C226 1.349 1_556 S
C238 H232 0.950 . S
C238 C239 1.327 . S
C239 H233 0.950 . S
C239 C238 1.327 . S
C239 C243 1.429 1_556 S
C240 C223 1.574 . S
C240 H234 0.949 . S
C240 C244 1.390 1_545 S
C241 C222 1.429 . S
C241 C235 1.429 1_556 S
C241 C242 1.529 . S
C242 C223 1.354 1_456 S
C242 C236 1.378 1_545 S
C242 C241 1.529 . S
C243 C227 1.429 . S
C243 C239 1.429 1_554 S
C243 C244 1.536 . S
C244 C228 1.337 1_654 S
C244 C240 1.390 1_565 S
C244 C243 1.536 . S
H245 C220 0.950 . S
H246 C222 0.950 . S
H247 C223 0.949 . S
H248 C225 0.950 . S
H249 C227 0.950 . S
C250 C251 1.349 . S
C250 C252 1.327 . S
C250 H275 0.950 . S
C251 C250 1.349 . S
C251 C267 1.349 . S
C252 C250 1.327 . S
C252 C271 1.429 . S
C252 H276 0.950 . S
C253 C270 1.574 . S
C253 C272 1.368 1_565 S
C253 H277 0.949 . S
H254 C258 0.949 . S
C255 C256 1.349 . S
C255 C257 1.327 . S
C255 H278 0.950 . S
C256 C255 1.349 . S
C256 C268 1.349 . S
C257 C255 1.327 . S
C257 C273 1.429 . S
C257 H279 0.950 . S
C258 H254 0.949 . S
C258 C266 1.574 . S
C258 C274 1.368 1_545 S
H259 C267 0.950 . S
H260 C265 0.950 . S
H261 C266 0.949 . S
H262 C268 0.950 . S
H263 C269 0.950 . S
H264 C270 0.949 . S
C265 H260 0.950 . S
C265 C267 1.327 . S
C265 C271 1.429 . S
C266 C258 1.574 . S
C266 H261 0.949 . S
C266 C272 1.368 1_455 S
C267 C251 1.349 . S
C267 H259 0.950 . S
C267 C265 1.327 . S
C268 C256 1.349 . S
C268 H262 0.950 . S
C268 C269 1.327 . S
C269 H263 0.950 . S
C269 C268 1.327 . S
C269 C273 1.429 . S
C270 C253 1.574 . S
C270 H264 0.949 . S
C270 C274 1.368 1_655 S
C271 C252 1.429 . S
C271 C265 1.429 . S
C271 C272 1.523 . S
C272 C253 1.368 1_545 S
C272 C266 1.368 1_655 S
C272 C271 1.523 . S
C273 C257 1.429 . S
C273 C269 1.429 . S
C273 C274 1.523 . S
C274 C258 1.368 1_565 S
C274 C270 1.368 1_455 S
C274 C273 1.523 . S
H275 C250 0.950 . S
H276 C252 0.950 . S
H277 C253 0.949 . S
H278 C255 0.950 . S
H279 C257 0.950 . S
C280 C281 1.349 . S
C280 C282 1.327 . S
C280 H305 0.950 . S
C281 C280 1.349 . S
C281 C297 1.349 . S
C282 C280 1.327 . S
C282 C301 1.429 . S
C282 H306 0.950 . S
C283 C300 1.574 . S
C283 C302 1.368 . S
C283 H307 0.949 . S
H284 C288 0.949 . S
C285 C286 1.349 . S
C285 C287 1.327 . S
C285 H308 0.950 . S
C286 C285 1.349 . S
C286 C298 1.349 . S
C287 C285 1.327 . S
C287 C303 1.429 . S
C287 H309 0.950 . S
C288 H284 0.949 . S
C288 C296 1.574 . S
C288 C304 1.368 . S
H289 C297 0.950 . S
H290 C295 0.950 . S
H291 C296 0.949 . S
H292 C298 0.950 . S
H293 C299 0.950 . S
H294 C300 0.949 . S
C295 H290 0.950 . S
C295 C297 1.327 . S
C295 C301 1.429 . S
C296 C288 1.574 . S
C296 H291 0.949 . S
C296 C302 1.368 . S
C297 C281 1.349 . S
C297 H289 0.950 . S
C297 C295 1.327 . S
C298 C286 1.349 . S
C298 H292 0.950 . S
C298 C299 1.327 . S
C299 H293 0.950 . S
C299 C298 1.327 . S
C299 C303 1.429 . S
C300 C283 1.574 . S
C300 H294 0.949 . S
C300 C304 1.368 . S
C301 C282 1.429 . S
C301 C295 1.429 . S
C301 C302 1.523 . S
C302 C283 1.368 . S
C302 C296 1.368 . S
C302 C301 1.523 . S
C303 C287 1.429 . S
C303 C299 1.429 . S
C303 C304 1.523 . S
C304 C288 1.368 . S
C304 C300 1.368 . S
C304 C303 1.523 . S
H305 C280 0.950 . S
H306 C282 0.950 . S
H307 C283 0.949 . S
H308 C285 0.950 . S
H309 C287 0.950 . S
C310 C311 1.349 . S
C310 C312 1.327 . S
C310 H335 0.950 . S
C311 C310 1.349 . S
C311 C327 1.349 . S
C312 C310 1.327 . S
C312 C331 1.429 . S
C312 H336 0.950 . S
C313 C330 1.574 . S
C313 C332 1.368 . S
C313 H337 0.949 . S
H314 C318 0.949 . S
C315 C316 1.349 . S
C315 C317 1.327 . S
C315 H338 0.950 . S
C316 C315 1.349 . S
C316 C328 1.349 . S
C317 C315 1.327 . S
C317 C333 1.429 . S
C317 H339 0.950 . S
C318 H314 0.949 . S
C318 C326 1.574 . S
C318 C334 1.368 . S
H319 C327 0.950 . S
H320 C325 0.950 . S
H321 C326 0.949 . S
H322 C328 0.950 . S
H323 C329 0.950 . S
H324 C330 0.949 . S
C325 H320 0.950 . S
C325 C327 1.327 . S
C325 C331 1.429 . S
C326 C318 1.574 . S
C326 H321 0.949 . S
C326 C332 1.368 . S
C327 C311 1.349 . S
C327 H319 0.950 . S
C327 C325 1.327 . S
C328 C316 1.349 . S
C328 H322 0.950 . S
C328 C329 1.327 . S
C329 H323 0.950 . S
C329 C328 1.327 . S
C329 C333 1.429 . S
C330 C313 1.574 . S
C330 H324 0.949 . S
C330 C334 1.368 . S
C331 C312 1.429 . S
C331 C325 1.429 . S
C331 C332 1.523 . S
C332 C313 1.368 . S
C332 C326 1.368 . S
C332 C331 1.523 . S
C333 C317 1.429 . S
C333 C329 1.429 . S
C333 C334 1.523 . S
C334 C318 1.368 . S
C334 C330 1.368 . S
C334 C333 1.523 . S
H335 C310 0.950 . S
H336 C312 0.950 . S
H337 C313 0.949 . S
H338 C315 0.950 . S
H339 C317 0.950 . S
C340 C341 1.349 . S
C340 C342 1.327 . S
C340 H365 0.950 . S
C341 C340 1.349 . S
C341 C357 1.349 . S
C342 C340 1.327 . S
C342 C361 1.429 . S
C342 H366 0.950 . S
C343 C360 1.574 . S
C343 C362 1.368 . S
C343 H367 0.949 . S
H344 C348 0.949 . S
C345 C346 1.349 . S
C345 C347 1.327 . S
C345 H368 0.950 . S
C346 C345 1.349 . S
C346 C358 1.349 . S
C347 C345 1.327 . S
C347 C363 1.429 . S
C347 H369 0.950 . S
C348 H344 0.949 . S
C348 C356 1.574 . S
C348 C364 1.368 . S
H349 C357 0.950 . S
H350 C355 0.950 . S
H351 C356 0.949 . S
H352 C358 0.950 . S
H353 C359 0.950 . S
H354 C360 0.949 . S
C355 H350 0.950 . S
C355 C357 1.327 . S
C355 C361 1.429 . S
C356 C348 1.574 . S
C356 H351 0.949 . S
C356 C362 1.368 . S
C357 C341 1.349 . S
C357 H349 0.950 . S
C357 C355 1.327 . S
C358 C346 1.349 . S
C358 H352 0.950 . S
C358 C359 1.327 . S
C359 H353 0.950 . S
C359 C358 1.327 . S
C359 C363 1.429 . S
C360 C343 1.574 . S
C360 H354 0.949 . S
C360 C364 1.368 . S
C361 C342 1.429 . S
C361 C355 1.429 . S
C361 C362 1.523 . S
C362 C343 1.368 . S
C362 C356 1.368 . S
C362 C361 1.523 . S
C363 C347 1.429 . S
C363 C359 1.429 . S
C363 C364 1.523 . S
C364 C348 1.368 . S
C364 C360 1.368 . S
C364 C363 1.523 . S
H365 C340 0.950 . S
H366 C342 0.950 . S
H367 C343 0.949 . S
H368 C345 0.950 . S
H369 C347 0.950 . S
C370 C371 1.349 . S
C370 C372 1.327 . S
C370 H395 0.950 . S
C371 C370 1.349 . S
C371 C387 1.349 . S
C372 C370 1.327 . S
C372 C391 1.429 . S
C372 H396 0.950 . S
C373 C390 1.574 . S
C373 C392 1.368 . S
C373 H397 0.949 . S
H374 C378 0.949 . S
C375 C376 1.349 . S
C375 C377 1.327 . S
C375 H398 0.950 . S
C376 C375 1.349 . S
C376 C388 1.349 . S
C377 C375 1.327 . S
C377 C393 1.429 . S
C377 H399 0.950 . S
C378 H374 0.949 . S
C378 C386 1.574 . S
C378 C394 1.368 . S
H379 C387 0.950 . S
H380 C385 0.950 . S
H381 C386 0.949 . S
H382 C388 0.950 . S
H383 C389 0.950 . S
H384 C390 0.949 . S
C385 H380 0.950 . S
C385 C387 1.327 . S
C385 C391 1.429 . S
C386 C378 1.574 . S
C386 H381 0.949 . S
C386 C392 1.368 . S
C387 C371 1.349 . S
C387 H379 0.950 . S
C387 C385 1.327 . S
C388 C376 1.349 . S
C388 H382 0.950 . S
C388 C389 1.327 . S
C389 H383 0.950 . S
C389 C388 1.327 . S
C389 C393 1.429 . S
C390 C373 1.574 . S
C390 H384 0.949 . S
C390 C394 1.368 . S
C391 C372 1.429 . S
C391 C385 1.429 . S
C391 C392 1.523 . S
C392 C373 1.368 . S
C392 C386 1.368 . S
C392 C391 1.523 . S
C393 C377 1.429 . S
C393 C389 1.429 . S
C393 C394 1.523 . S
C394 C378 1.368 . S
C394 C390 1.368 . S
C394 C393 1.523 . S
H395 C370 0.950 . S
H396 C372 0.950 . S
H397 C373 0.949 . S
H398 C375 0.950 . S
H399 C377 0.950 . S
C400 C401 1.349 . S
C400 C402 1.327 . S
C400 H425 0.950 . S
C401 C400 1.349 . S
C401 C417 1.349 . S
C402 C400 1.327 . S
C402 C421 1.429 . S
C402 H426 0.950 . S
C403 C420 1.574 . S
C403 C422 1.368 1_455 S
C403 H427 0.949 . S
H404 C408 0.949 . S
C405 C406 1.349 . S
C405 C407 1.327 . S
C405 H428 0.950 . S
C406 C405 1.349 . S
C406 C418 1.349 . S
C407 C405 1.327 . S
C407 C423 1.429 . S
C407 H429 0.950 . S
C408 H404 0.949 . S
C408 C416 1.574 . S
C408 C424 1.368 1_655 S
H409 C417 0.950 . S
H410 C415 0.950 . S
H411 C416 0.949 . S
H412 C418 0.950 . S
H413 C419 0.950 . S
H414 C420 0.949 . S
C415 H410 0.950 . S
C415 C417 1.327 . S
C415 C421 1.429 . S
C416 C408 1.574 . S
C416 H411 0.949 . S
C416 C422 1.368 . S
C417 C401 1.349 . S
C417 H409 0.950 . S
C417 C415 1.327 . S
C418 C406 1.349 . S
C418 H412 0.950 . S
C418 C419 1.327 . S
C419 H413 0.950 . S
C419 C418 1.327 . S
C419 C423 1.429 . S
C420 C403 1.574 . S
C420 H414 0.949 . S
C420 C424 1.368 . S
C421 C402 1.429 . S
C421 C415 1.429 . S
C421 C422 1.523 . S
C422 C403 1.368 1_655 S
C422 C416 1.368 . S
C422 C421 1.523 . S
C423 C407 1.429 . S
C423 C419 1.429 . S
C423 C424 1.523 . S
C424 C408 1.368 1_455 S
C424 C420 1.368 . S
C424 C423 1.523 . S
H425 C400 0.950 . S
H426 C402 0.950 . S
H427 C403 0.949 . S
H428 C405 0.950 . S
H429 C407 0.950 . S
C430 C431 1.349 . S
C430 C432 1.327 . S
C430 H455 0.950 . S
C431 C430 1.349 . S
C431 C447 1.349 . S
C432 C430 1.327 . S
C432 C451 1.429 . S
C432 H456 0.950 . S
C433 C450 1.574 . S
C433 C452 1.368 1_455 S
C433 H457 0.949 . S
H434 C438 0.949 . S
C435 C436 1.349 . S
C435 C437 1.327 . S
C435 H458 0.950 . S
C436 C435 1.349 . S
C436 C448 1.349 . S
C437 C435 1.327 . S
C437 C453 1.429 . S
C437 H459 0.950 . S
C438 H434 0.949 . S
C438 C446 1.574 . S
C438 C454 1.368 1_655 S
H439 C447 0.950 1_455 S
H440 C445 0.950 . S
H441 C446 0.949 . S
H442 C448 0.950 1_655 S
H443 C449 0.950 . S
H444 C450 0.949 . S
C445 H440 0.950 . S
C445 C447 1.327 1_455 S
C445 C451 1.429 1_455 S
C446 C438 1.574 . S
C446 H441 0.949 . S
C446 C452 1.368 . S
C447 C431 1.349 . S
C447 H439 0.950 1_655 S
C447 C445 1.327 1_655 S
C448 C436 1.349 . S
C448 H442 0.950 1_455 S
C448 C449 1.327 1_455 S
C449 H443 0.950 . S
C449 C448 1.327 1_655 S
C449 C453 1.429 1_655 S
C450 C433 1.574 . S
C450 H444 0.949 . S
C450 C454 1.368 . S
C451 C432 1.429 . S
C451 C445 1.429 1_655 S
C451 C452 1.523 . S
C452 C433 1.368 1_655 S
C452 C446 1.368 . S
C452 C451 1.523 . S
C453 C437 1.429 . S
C453 C449 1.429 1_455 S
C453 C454 1.523 . S
C454 C438 1.368 1_455 S
C454 C450 1.368 . S
C454 C453 1.523 . S
H455 C430 0.950 . S
H456 C432 0.950 . S
H457 C433 0.949 . S
H458 C435 0.950 . S
H459 C437 0.950 . S
C460 C461 1.349 . S
C460 C462 1.327 . S
C460 H485 0.950 . S
C461 C460 1.349 . S
C461 C477 1.349 . S
C462 C460 1.327 . S
C462 C481 1.429 . S
C462 H486 0.950 . S
C463 C480 1.574 . S
C463 C482 1.368 . S
C463 H487 0.949 . S
H464 C468 0.949 . S
C465 C466 1.349 . S
C465 C467 1.327 . S
C465 H488 0.950 . S
C466 C465 1.349 . S
C466 C478 1.349 . S
C467 C465 1.327 . S
C467 C483 1.429 . S
C467 H489 0.950 . S
C468 H464 0.949 . S
C468 C476 1.574 . S
C468 C484 1.368 . S
H469 C477 0.950 . S
H470 C475 0.950 . S
H471 C476 0.949 . S
H472 C478 0.950 . S
H473 C479 0.950 . S
H474 C480 0.949 . S
C475 H470 0.950 . S
C475 C477 1.327 . S
C475 C481 1.429 . S
C476 C468 1.574 . S
C476 H471 0.949 . S
C476 C482 1.368 1_455 S
C477 C461 1.349 . S
C477 H469 0.950 . S
C477 C475 1.327 . S
C478 C466 1.349 . S
C478 H472 0.950 . S
C478 C479 1.327 . S
C479 H473 0.950 . S
C479 C478 1.327 . S
C479 C483 1.429 . S
C480 C463 1.574 . S
C480 H474 0.949 . S
C480 C484 1.368 1_655 S
C481 C462 1.429 . S
C481 C475 1.429 . S
C481 C482 1.523 . S
C482 C463 1.368 . S
C482 C476 1.368 1_655 S
C482 C481 1.523 . S
C483 C467 1.429 . S
C483 C479 1.429 . S
C483 C484 1.523 . S
C484 C468 1.368 . S
C484 C480 1.368 1_455 S
C484 C483 1.523 . S
H485 C460 0.950 . S
H486 C462 0.950 . S
H487 C463 0.949 . S
H488 C465 0.950 . S
H489 C467 0.950 . S
C490 C491 1.349 . S
C490 C492 1.327 . S
C490 H515 0.950 . S
C491 C490 1.349 . S
C491 C507 1.349 . S
C492 C490 1.327 . S
C492 C511 1.429 . S
C492 H516 0.950 . S
C493 C510 1.574 . S
C493 C512 1.368 1_655 S
C493 H517 0.949 . S
H494 C498 0.949 . S
C495 C496 1.349 . S
C495 C497 1.327 . S
C495 H518 0.950 . S
C496 C495 1.349 . S
C496 C508 1.349 . S
C497 C495 1.327 . S
C497 C513 1.429 . S
C497 H519 0.950 . S
C498 H494 0.949 . S
C498 C506 1.574 . S
C498 C514 1.368 1_455 S
H499 C507 0.950 1_655 S
H500 C505 0.950 . S
H501 C506 0.949 . S
H502 C508 0.950 1_455 S
H503 C509 0.950 . S
H504 C510 0.949 . S
C505 H500 0.950 . S
C505 C507 1.327 1_655 S
C505 C511 1.429 1_655 S
C506 C498 1.574 . S
C506 H501 0.949 . S
C506 C512 1.368 . S
C507 C491 1.349 . S
C507 H499 0.950 1_455 S
C507 C505 1.327 1_455 S
C508 C496 1.349 . S
C508 H502 0.950 1_655 S
C508 C509 1.327 1_655 S
C509 H503 0.950 . S
C509 C508 1.327 1_455 S
C509 C513 1.429 1_455 S
C510 C493 1.574 . S
C510 H504 0.949 . S
C510 C514 1.368 . S
C511 C492 1.429 . S
C511 C505 1.429 1_455 S
C511 C512 1.523 . S
C512 C493 1.368 1_455 S
C512 C506 1.368 . S
C512 C511 1.523 . S
C513 C497 1.429 . S
C513 C509 1.429 1_655 S
C513 C514 1.523 . S
C514 C498 1.368 1_655 S
C514 C510 1.368 . S
C514 C513 1.523 . S
H515 C490 0.950 . S
H516 C492 0.950 . S
H517 C493 0.949 . S
H518 C495 0.950 . S
H519 C497 0.950 . S
C161 C58 1.537 . S
C166 C9 1.537 . S
C191 C98 1.537 . S
C196 C129 1.537 . S
C221 C18 1.537 . S
C226 C49 1.537 . S
C251 C138 1.537 . S
C256 C89 1.537 . S
C281 C130 1.552 . S
C286 C10 1.552 . S
C311 C46 0.878 . S
C316 C86 0.878 . S
C341 C59 1.552 . S
C346 C99 1.552 . S
C371 C135 0.878 . S
C376 C15 0.878 . S
C401 C50 1.552 . S
C406 C90 1.552 . S
C431 C126 0.878 . S
C436 C6 0.878 . S
C461 C139 1.552 . S
C466 C19 1.552 . S
C491 C95 0.878 . S
C496 C55 0.878 . S
