# Generated by pormake.
# Topology rob, (6)-cn, num edge types: 1
# Building blocks:
#     Node 0, Type 0, BuildingBlock: HISSIN_clean_sbu_0, # of connection points: 6
#     Node 1, Type 0, BuildingBlock: HISSIN_clean_sbu_0, # of connection points: 6
#     Node 2, Type 0, BuildingBlock: HISSIN_clean_sbu_0, # of connection points: 6
#     Node 3, Type 0, BuildingBlock: HISSIN_clean_sbu_0, # of connection points: 6
#     Edge 4, Type (0, 0), BuildingBlock: FUNLAD_clean_linker_0, # of connection points: 2
#     Edge 5, Type (0, 0), BuildingBlock: FUNLAD_clean_linker_0, # of connection points: 2
#     Edge 6, Type (0, 0), BuildingBlock: FUNLAD_clean_linker_0, # of connection points: 2
#     Edge 7, Type (0, 0), BuildingBlock: FUNLAD_clean_linker_0, # of connection points: 2
#     Edge 8, Type (0, 0), BuildingBlock: FUNLAD_clean_linker_0, # of connection points: 2
#     Edge 9, Type (0, 0), BuildingBlock: FUNLAD_clean_linker_0, # of connection points: 2
#     Edge 10, Type (0, 0), BuildingBlock: FUNLAD_clean_linker_0, # of connection points: 2
#     Edge 11, Type (0, 0), BuildingBlock: FUNLAD_clean_linker_0, # of connection points: 2
#     Edge 12, Type (0, 0), BuildingBlock: FUNLAD_clean_linker_0, # of connection points: 2
#     Edge 13, Type (0, 0), BuildingBlock: FUNLAD_clean_linker_0, # of connection points: 2
#     Edge 14, Type (0, 0), BuildingBlock: FUNLAD_clean_linker_0, # of connection points: 2
#     Edge 15, Type (0, 0), BuildingBlock: FUNLAD_clean_linker_0, # of connection points: 2
# Relax obj value: 0.031
# Max RMSD: 0.128
# Mean RMSD: 0.128
data_MOF--net-rob--node1-HISSIN_clean_sbu_0--edge1-FUNLAD_clean_linker_0
_symmetry_space_group_name_H-M    P1
_symmetry_Int_Tables_number       1
_symmetry_cell_setting            triclinic
loop_
_symmetry_equiv_pos_as_xyz
'x, y, z'
_cell_length_a     18.030461
_cell_length_b     30.670348
_cell_length_c     40.968318
_cell_angle_alpha  95.498794
_cell_angle_beta   89.928817
_cell_angle_gamma 90.144165
loop_
_atom_site_label
_atom_site_type_symbol
_atom_site_fract_x
_atom_site_fract_y
_atom_site_fract_z
_atom_type_partial_charge
Eu0 Eu 0.17371 0.2682 0.03976 0.0
Eu1 Eu 0.31898 0.21736 1.00394 0.0
C2 C 0.17261 0.16546 0.01956 0.0
C3 C 0.03843 0.30023 0.1077 0.0
C4 C 0.05613 0.26231 0.12272 0.0
C5 C 0.97538 0.32917 0.15767 0.0
C6 C 0.03299 0.25765 0.1548 0.0
C7 C -0.00184 0.33368 0.12542 0.0
C8 C 0.9923 0.29101 0.1727 0.0
C9 C 0.06566 0.30584 0.07439 0.0
O10 O 0.26325 0.25326 0.96531 0.0
O11 O 0.14469 0.26128 0.98582 0.0
C12 C 0.19204 0.26016 0.96125 0.0
O13 O 0.24828 0.31987 0.02159 0.0
O14 O 0.37064 0.16069 0.97626 0.0
O15 O 0.4339 0.22001 0.98761 0.0
O16 O 0.35538 0.28256 0.02829 0.0
C17 C 0.32051 0.3194 0.0254 0.0
O18 O 0.25565 0.25682 0.0793 0.0
O19 O 0.32426 0.19881 0.05601 0.0
O20 O 0.22097 0.17216 0.99667 0.0
O21 O 0.13199 0.32257 0.07299 0.0
O22 O 0.05599 0.27264 0.05232 0.0
O23 O 0.15864 0.19591 0.04346 0.0
C24 C 0.4534 0.18152 0.93583 0.0
C25 C 0.42745 0.21389 0.91669 0.0
C26 C 0.52255 0.14882 0.88876 0.0
C27 C 0.44877 0.21375 0.88386 0.0
C28 C 0.50073 0.14885 0.9216 0.0
C29 C 0.49699 0.18138 0.86951 0.0
C30 C 0.43114 0.18199 0.9705 0.0
C31 C 0.30057 0.22367 0.0819 0.0
H32 H 0.0884 0.23641 0.10969 0.0
H33 H 0.9437 0.35531 0.1707 0.0
H34 H 0.04791 0.22815 0.16579 0.0
H35 H 0.98466 0.36337 0.11438 0.0
H36 H 0.39139 0.23964 0.92729 0.0
H37 H 0.55917 0.12318 0.87838 0.0
H38 H 0.42888 0.23966 0.86996 0.0
H39 H 0.52111 0.1235 0.93594 0.0
Eu40 Eu 0.67262 0.76532 0.036 0.0
Eu41 Eu 0.81627 0.71567 0.99829 0.0
C42 C 0.66655 0.66581 1.00947 0.0
C43 C 0.5414 0.80533 0.10484 0.0
C44 C 0.59087 0.79196 0.12833 0.0
C45 C 0.44909 0.82092 0.14748 0.0
C46 C 0.5691 0.7923 0.16114 0.0
C47 C 0.4709 0.82045 0.11468 0.0
C48 C 0.49736 0.806 0.171 0.0
C49 C 0.56048 0.79985 0.06981 0.0
O50 O 0.74047 0.73363 0.95824 0.0
O51 O 0.6651 0.78655 0.98474 0.0
C52 C 0.69255 0.76579 0.9578 0.0
O53 O 0.77141 0.8098 0.0447 0.0
O54 O 0.85672 0.66154 0.9646 0.0
O55 O 0.93415 0.70993 0.98636 0.0
O56 O 0.83369 0.78822 0.99735 0.0
C57 C 0.82 0.8175 0.02209 0.0
O58 O 0.72934 0.72752 0.07356 0.0
O59 O 0.8468 0.72118 0.05182 0.0
O60 O 0.73829 0.66426 1.01438 0.0
O61 O 0.61651 0.82265 0.06051 0.0
O62 O 0.56232 0.75941 0.05682 0.0
O63 O 0.63383 0.70346 1.00742 0.0
C64 C 0.95207 0.68354 0.93093 0.0
C65 C 0.93212 0.72096 0.91585 0.0
C66 C 0.01718 0.65584 0.88128 0.0
C67 C 0.95412 0.72575 0.88369 0.0
C68 C 0.99477 0.65102 0.9135 0.0
C69 C -0.00312 0.69323 0.86592 0.0
C70 C 0.92386 0.67732 0.96388 0.0
C71 C 0.80079 0.72039 0.07668 0.0
H72 H 0.6455 0.78003 0.12108 0.0
H73 H 0.39394 0.83237 0.15433 0.0
H74 H 0.60743 0.78021 0.17848 0.0
H75 H 0.43201 0.83084 0.09685 0.0
H76 H 0.89857 0.74624 0.92887 0.0
H77 H 0.05077 0.63042 0.86848 0.0
H78 H 0.93639 0.7546 0.87255 0.0
H79 H 0.01022 0.62176 0.9247 0.0
Eu80 Eu 0.17673 0.71934 0.4984 0.0
Eu81 Eu 0.32213 0.76549 0.537 0.0
C82 C 0.18177 0.82094 0.52149 0.0
C83 C 0.04246 0.68178 0.42952 0.0
C84 C 0.07973 0.70582 0.40704 0.0
C85 C 0.95924 0.65285 0.3861 0.0
C86 C 0.0563 0.70386 0.37438 0.0
C87 C 0.98266 0.65495 0.41877 0.0
C88 C 0.99515 0.67773 0.36355 0.0
C89 C 0.06355 0.68602 0.46439 0.0
O90 O 0.23652 0.75596 0.57564 0.0
O91 O 0.16602 0.70017 0.55016 0.0
C92 C 0.18865 0.72379 0.57685 0.0
O93 O 0.2727 0.67256 0.49071 0.0
O94 O 0.36819 0.82082 0.5678 0.0
O95 O 0.43752 0.76481 0.55328 0.0
O96 O 0.3314 0.69272 0.53906 0.0
C97 C 0.31894 0.66391 0.51391 0.0
O98 O 0.23836 0.75496 0.46102 0.0
O99 O 0.35523 0.75895 0.48363 0.0
O100 O 0.25403 0.81909 0.51832 0.0
O101 O 0.12012 0.66298 0.47246 0.0
O102 O 0.06568 0.72586 0.47858 0.0
O103 O 0.14276 0.78506 0.52299 0.0
C104 C 0.45171 0.79947 0.60686 0.0
C105 C 0.41305 0.77191 0.62643 0.0
C106 C 0.5237 0.82752 0.65437 0.0
C107 C 0.42911 0.7724 0.65984 0.0
C108 C 0.50722 0.82717 0.62097 0.0
C109 C 0.48447 0.80035 0.67425 0.0
C110 C 0.43085 0.80121 0.57234 0.0
C111 C 0.31034 0.76096 0.45851 0.0
H112 H 0.126 0.72679 0.41492 0.0
H113 H 0.91283 0.63182 0.37852 0.0
H114 H 0.08482 0.72381 0.35788 0.0
H115 H 0.9534 0.63604 0.43576 0.0
H116 H 0.36994 0.75029 0.61589 0.0
H117 H 0.56613 0.84971 0.66478 0.0
H118 H 0.39857 0.75066 0.67433 0.0
H119 H 0.53711 0.84895 0.60626 0.0
Eu120 Eu 0.67098 0.21354 0.50162 0.0
Eu121 Eu 0.81059 0.2646 0.54075 0.0
C122 C 0.66567 0.31545 0.5218 0.0
C123 C 0.54735 0.17479 0.43084 0.0
C124 C 0.58282 0.20439 0.41185 0.0
C125 C 0.48076 0.14405 0.38248 0.0
C126 C 0.56726 0.20391 0.37842 0.0
C127 C 0.49635 0.14461 0.41599 0.0
C128 C 0.51605 0.17371 0.36329 0.0
C129 C 0.567 0.17385 0.46556 0.0
O130 O 0.75152 0.22732 0.5778 0.0
O131 O 0.63529 0.22127 0.55488 0.0
C132 C 0.67984 0.22048 0.58028 0.0
O133 O 0.74008 0.16216 0.52259 0.0
O134 O 0.85404 0.32187 0.57076 0.0
O135 O 0.92432 0.26572 0.55902 0.0
O136 O 0.85067 0.19797 0.52034 0.0
C137 C 0.81271 0.1616 0.52148 0.0
O138 O 0.75974 0.22276 0.46412 0.0
O139 O 0.82227 0.28244 0.48862 0.0
O140 O 0.71057 0.30851 0.54588 0.0
O141 O 0.63127 0.15648 0.47074 0.0
O142 O 0.55619 0.21005 0.48445 0.0
O143 O 0.65641 0.28554 0.49709 0.0
C144 C 0.93349 0.30189 0.61231 0.0
C145 C 0.9095 0.26692 0.62945 0.0
C146 C 0.98747 0.33649 0.66268 0.0
C147 C 0.92483 0.26654 0.66285 0.0
C148 C 0.97226 0.33676 0.62916 0.0
C149 C 0.96422 0.30124 0.67988 0.0
C150 C 0.91582 0.30259 0.57723 0.0
C151 C 0.80442 0.25638 0.46236 0.0
H152 H 0.6232 0.22755 0.42285 0.0
H153 H 0.44052 0.1207 0.37166 0.0
H154 H 0.59623 0.22675 0.36431 0.0
H155 H 0.46896 0.12131 0.43026 0.0
H156 H 0.87878 0.23988 0.617 0.0
H157 H 0.01842 0.36353 0.67502 0.0
H158 H 0.90512 0.23925 0.67542 0.0
H159 H 0.99079 0.36416 0.6164 0.0
C160 C 0.65324 0.58504 1.01307 0.0
C161 C 0.62124 0.62541 1.00765 0.0
C162 C 0.60932 0.54739 1.0129 0.0
C163 C 0.53234 0.54945 1.00742 0.0
C164 C 0.50095 0.58951 1.001 0.0
C165 C 0.54473 0.62715 1.00129 0.0
C166 C 0.48328 0.51052 1.00767 0.0
C167 C 0.49841 0.47661 0.02514 0.0
C168 C 0.45035 0.43727 0.0254 0.0
C169 C 0.48273 0.39805 0.03313 0.0
C170 C 0.44034 0.36 0.03332 0.0
C171 C 0.36413 0.36037 0.02615 0.0
H172 H 0.34608 0.46789 1.01382 0.0
C173 C 0.33105 0.39985 0.0192 0.0
C174 C 0.37369 0.43799 0.01883 0.0
H175 H 0.27235 0.40127 1.01381 0.0
H176 H 0.71212 0.58252 1.01772 0.0
H177 H 0.63617 0.51679 1.01673 0.0
H178 H 0.44203 0.59191 0.99631 0.0
H179 H 0.51832 0.65768 0.99679 0.0
H180 H 0.43249 0.51054 0.99349 0.0
H181 H 0.5491 0.47689 0.03944 0.0
H182 H 0.54142 0.39665 0.03862 0.0
H183 H 0.46762 0.33023 0.03901 0.0
C184 C 0.40946 0.61217 0.53579 0.0
C185 C 0.35814 0.62135 0.51159 0.0
C186 C 0.4471 0.57223 0.53357 0.0
C187 C 0.4338 0.54027 0.50717 0.0
C188 C 0.38315 0.5497 0.48282 0.0
C189 C 0.34549 0.58969 0.48503 0.0
C190 C 0.47335 0.49752 0.5036 0.0
C191 C 0.5031 0.47896 0.52909 0.0
C192 C 0.54439 0.4368 0.52595 0.0
C193 C 0.59218 0.4279 0.5515 0.0
C194 C 0.6318 0.38871 0.55002 0.0
C195 C 0.6241 0.35717 0.52301 0.0
H196 H 0.49843 0.40989 0.47914 0.0
C197 C 0.5758 0.36575 0.4975 0.0
C198 C 0.53621 0.40508 0.49894 0.0
H199 H 0.56814 0.34199 0.47645 0.0
H200 H 0.4212 0.636 0.5564 0.0
H201 H 0.48757 0.56715 0.55228 0.0
H202 H 0.37233 0.52594 0.46205 0.0
H203 H 0.30659 0.59575 0.46586 0.0
H204 H 0.47724 0.48098 0.47904 0.0
H205 H 0.49837 0.49551 0.55362 0.0
H206 H 0.59928 0.45151 0.5727 0.0
H207 H 0.66828 0.38315 0.57019 0.0
C208 C 0.08373 0.11378 0.04319 0.0
C209 C 0.13456 0.12255 0.01861 0.0
C210 C 0.04888 0.07291 0.04244 0.0
C211 C 0.06387 0.03998 1.01691 0.0
C212 C 0.1151 0.04875 0.99256 0.0
C213 C 0.14984 0.08956 0.99329 0.0
C214 C 0.02925 -0.00425 1.01511 0.0
C215 C 0.96494 0.98697 0.02999 0.0
C216 C 0.93012 0.94277 0.02758 0.0
C217 C 0.87977 0.93298 0.05201 0.0
C218 C 0.84463 0.89219 0.05044 0.0
C219 C 0.85866 0.8603 0.02419 0.0
H220 H 0.98014 0.91751 0.98118 0.0
C221 C 0.90866 0.87012 0.99958 0.0
C222 C 0.94381 0.91093 1.00115 0.0
H223 H 0.92012 0.84649 0.97882 0.0
H224 H 0.07125 0.13834 0.06322 0.0
H225 H 0.01162 0.06721 0.0623 0.0
H226 H 0.12815 0.02397 0.97274 0.0
H227 H 0.18893 0.09508 0.97401 0.0
H228 H 0.05792 0.96972 1.0004 0.0
H229 H 0.93628 0.01286 0.04484 0.0
H230 H 0.86766 0.95696 0.07248 0.0
H231 H 0.80616 0.88581 0.06976 0.0
C232 C 0.93004 0.11783 0.52006 0.0
C233 C 0.85219 0.11935 0.52126 0.0
C234 C 0.96724 0.07784 0.5195 0.0
C235 C 0.92723 0.03846 0.52036 0.0
C236 C 0.84946 0.04007 0.52129 0.0
C237 C 0.81231 0.08002 0.52187 0.0
C238 C 0.96391 -0.00501 0.5192 0.0
C239 C 0.03496 -0.01078 0.52799 0.0
C240 C 0.071 0.94555 0.52651 0.0
C241 C 0.1485 0.94311 0.52368 0.0
C242 C 0.18458 0.9027 0.52203 0.0
C243 C 0.14384 0.86381 0.52349 0.0
H244 H 0.97084 0.90712 0.53199 0.0
C245 C 0.06638 0.86626 0.52694 0.0
C246 C 0.03032 0.90666 0.52857 0.0
H247 H 0.03339 0.83697 0.52851 0.0
H248 H 0.96244 0.1475 0.51928 0.0
H249 H 0.02706 0.0781 0.5177 0.0
H250 H 0.81719 0.01027 0.52171 0.0
H251 H 0.75226 0.07997 0.52268 0.0
H252 H 0.93016 0.96673 0.51095 0.0
H253 H 0.0691 0.01736 0.53608 0.0
H254 H 0.18127 0.97257 0.52238 0.0
H255 H 0.24439 0.90201 0.51955 0.0
C256 C 0.49052 0.2133 0.31365 0.0
C257 C 0.49897 0.17361 0.32775 0.0
C258 C 0.47306 0.21348 0.28046 0.0
C259 C 0.46298 0.1739 0.26053 0.0
C260 C 0.47355 0.13423 0.27435 0.0
C261 C 0.49086 0.13404 0.30765 0.0
C262 C 0.44142 0.17321 0.22539 0.0
C263 C 0.39906 0.20486 0.21442 0.0
C264 C 0.37364 0.20601 0.17997 0.0
C265 C 0.31402 0.23355 0.17435 0.0
C266 C 0.29 0.23831 0.14262 0.0
C267 C 0.32525 0.21583 0.11537 0.0
H268 H 0.45544 0.16168 0.15607 0.0
C269 C 0.38419 0.18746 0.12079 0.0
C270 C 0.40843 0.18266 0.15284 0.0
H271 H 0.41261 0.16978 0.10033 0.0
H272 H 0.49626 0.24437 0.32839 0.0
H273 H 0.4679 0.24478 0.27052 0.0
H274 H 0.46712 0.10328 0.25949 0.0
H275 H 0.49837 0.10289 0.31762 0.0
H276 H 0.45682 0.14482 0.20893 0.0
H277 H 0.37864 0.23083 0.23202 0.0
H278 H 0.28601 0.25189 0.19466 0.0
H279 H 0.24384 0.26009 0.13956 0.0
C280 C 0.5185 0.8131 0.23215 0.0
C281 C 0.47148 0.80244 0.20518 0.0
C282 C 0.49435 0.8083 0.26414 0.0
C283 C 0.42242 0.79248 0.26986 0.0
C284 C 0.37563 0.78212 0.24281 0.0
C285 C 0.39969 0.787 0.21096 0.0
C286 C 0.39302 0.78584 0.30314 0.0
C287 C 0.43043 0.79421 0.3316 0.0
C288 C 0.39827 0.7865 0.36413 0.0
C289 C 0.4462 0.78008 0.39026 0.0
C290 C 0.41798 0.77209 0.421 0.0
C291 C 0.34101 0.77056 0.42633 0.0
H292 H 0.28211 0.79278 0.35091 0.0
C293 C 0.29308 0.77805 0.40041 0.0
C294 C 0.32122 0.78618 0.3698 0.0
H295 H 0.2335 0.77792 0.40374 0.0
H296 H 0.57396 0.82544 0.22856 0.0
H297 H 0.53266 0.81698 0.28394 0.0
H298 H 0.32005 0.76982 0.24624 0.0
H299 H 0.36235 0.77775 0.19078 0.0
H300 H 0.33749 0.77225 0.30387 0.0
H301 H 0.48733 0.80559 0.33146 0.0
H302 H 0.50576 0.78066 0.38678 0.0
H303 H 0.45655 0.76669 0.44045 0.0
C304 C 0.60047 0.795 0.9191 0.0
C305 C 0.67154 0.77902 0.9253 0.0
C306 C 0.58101 0.80442 0.88733 0.0
C307 C 0.63304 0.79881 0.86158 0.0
C308 C 0.70467 0.78451 0.86828 0.0
C309 C 0.72339 0.77418 0.8996 0.0
C310 C 0.61566 0.8074 0.82737 0.0
C311 C 0.54921 0.79861 0.81316 0.0
C312 C 0.53444 0.80096 0.77749 0.0
C313 C 0.46062 0.79978 0.76647 0.0
C314 C 0.44425 0.79983 0.73309 0.0
C315 C 0.50147 0.801 0.70983 0.0
H316 H 0.6495 0.80124 0.76087 0.0
C317 C 0.5753 0.80219 0.72075 0.0
C318 C 0.59171 0.80191 0.75406 0.0
H319 H 0.62069 0.80221 0.7034 0.0
H320 H 0.55955 0.79913 0.93852 0.0
H321 H 0.52573 0.81632 0.88305 0.0
H322 H 0.74595 0.78024 0.84899 0.0
H323 H 0.77882 0.76238 0.90368 0.0
H324 H 0.66155 0.81818 0.81303 0.0
H325 H 0.50404 0.78769 0.82799 0.0
H326 H 0.41528 0.79867 0.78376 0.0
H327 H 0.38669 0.79924 0.72551 0.0
C328 C 0.6984 0.20328 0.63823 0.0
C329 C 0.64975 0.2115 0.61274 0.0
C330 C 0.67142 0.19627 0.66928 0.0
C331 C 0.59472 0.19787 0.67592 0.0
C332 C 0.54599 0.20511 0.65018 0.0
C333 C 0.57309 0.21184 0.61895 0.0
C334 C 0.56329 0.19172 0.709 0.0
C335 C 0.6038 0.19441 0.73687 0.0
C336 C 0.57313 0.18893 0.77006 0.0
C337 C 0.62224 0.17841 0.79472 0.0
C338 C 0.59726 0.17504 0.8267 0.0
C339 C 0.52245 0.18259 0.83499 0.0
H340 H 0.45844 0.20528 0.76029 0.0
C341 C 0.473 0.19293 0.81033 0.0
C342 C 0.49794 0.19608 0.77823 0.0
H343 H 0.41491 0.19879 0.81588 0.0
H344 H 0.75778 0.20207 0.63426 0.0
H345 H 0.71142 0.18921 0.68764 0.0
H346 H 0.48663 0.20611 0.65433 0.0
H347 H 0.534 0.21797 0.59988 0.0
H348 H 0.50421 0.18523 0.71023 0.0
H349 H 0.66283 0.2008 0.73585 0.0
H350 H 0.68055 0.17309 0.78929 0.0
H351 H 0.63709 0.16768 0.84515 0.0
C352 C 0.78242 0.7103 0.13632 0.0
C353 C 0.83033 0.71214 0.10936 0.0
C354 C 0.81046 0.70462 0.16747 0.0
C355 C 0.88733 0.70031 0.1724 0.0
C356 C 0.93504 0.70199 0.14541 0.0
C357 C 0.90699 0.70763 0.11427 0.0
C358 C 0.92029 0.69632 0.20539 0.0
C359 C 0.88238 0.6823 0.23086 0.0
C360 C 0.91384 0.68031 0.26438 0.0
C361 C 0.86454 0.67855 0.29079 0.0
C362 C 0.89084 0.67739 0.32278 0.0
C363 C 0.96743 0.67759 0.32925 0.0
H364 H 0.03087 0.67956 0.25112 0.0
C365 C 0.01699 0.6785 0.30276 0.0
C366 C 0.99064 0.67971 0.27071 0.0
H367 H 0.07633 0.6778 0.30673 0.0
H368 H 0.72308 0.71386 0.13355 0.0
H369 H 0.7716 0.7049 0.1876 0.0
H370 H 0.99447 0.69912 0.14844 0.0
H371 H 0.94568 0.70907 0.09415 0.0
H372 H 0.97809 0.70564 0.20849 0.0
H373 H 0.82473 0.67272 0.22755 0.0
H374 H 0.80516 0.67876 0.28677 0.0
H375 H 0.85094 0.67724 0.34255 0.0
C376 C 0.82274 0.23308 0.40265 0.0
C377 C 0.83442 0.26432 0.42961 0.0
C378 C 0.84823 0.24029 0.37141 0.0
C379 C 0.88539 0.27943 0.36598 0.0
C380 C 0.89827 0.31034 0.39308 0.0
C381 C 0.8731 0.30294 0.42453 0.0
C382 C 0.91292 0.28867 0.33281 0.0
C383 C 0.88985 0.26663 0.30444 0.0
C384 C 0.9184 0.2742 0.27125 0.0
C385 C 0.91186 0.24009 0.24595 0.0
C386 C 0.9362 0.24553 0.21419 0.0
C387 C 0.96688 0.28553 0.2067 0.0
H388 H 0.95341 0.34187 0.28236 0.0
C389 C 0.97275 0.31999 0.23186 0.0
C390 C 0.94899 0.3144 0.26383 0.0
H391 H -0.00369 0.3512 0.2269 0.0
H392 H 0.79393 0.20267 0.4056 0.0
H393 H 0.83917 0.21457 0.35191 0.0
H394 H 0.92737 0.34059 0.38987 0.0
H395 H 0.88316 0.3277 0.44471 0.0
H396 H 0.95379 0.31458 0.33196 0.0
H397 H 0.8489 0.24082 0.30507 0.0
H398 H 0.88794 0.2089 0.25079 0.0
H399 H 0.92988 0.21852 0.19533 0.0
C400 C 0.00614 0.26118 0.72723 0.0
C401 C 0.98189 0.30019 0.71529 0.0
C402 C 0.02379 0.26005 0.76035 0.0
C403 C 0.01783 0.29801 0.7824 0.0
C404 C 0.99187 0.33672 0.77067 0.0
C405 C 0.97466 0.33793 0.73743 0.0
C406 C 0.03783 0.29795 0.81768 0.0
C407 C 0.09164 0.27204 0.8279 0.0
C408 C 0.11572 0.27179 0.86261 0.0
C409 C 0.18768 0.25736 0.86866 0.0
C410 C 0.21235 0.25454 0.90062 0.0
C411 C 0.16539 0.26553 0.92758 0.0
H412 H 0.01202 0.29361 0.88576 0.0
C413 C 0.09307 0.28001 0.92167 0.0
C414 C 0.06847 0.28327 0.88948 0.0
H415 H 0.05531 0.28849 0.94185 0.0
H416 H 0.01247 0.23154 0.71085 0.0
H417 H 0.04145 0.22925 0.7686 0.0
H418 H 0.98595 0.36629 0.78717 0.0
H419 H 0.95502 0.36833 0.72912 0.0
H420 H 0.01103 0.32172 0.83517 0.0
H421 H 0.12295 0.25152 0.80972 0.0
H422 H 0.22513 0.24799 0.8485 0.0
H423 H 0.26803 0.24278 0.90405 0.0
C424 C 0.19228 0.7361 0.63804 0.0
C425 C 0.16057 0.71449 0.60956 0.0
C426 C 0.16733 0.72782 0.66909 0.0
C427 C 0.1088 0.69819 0.67264 0.0
C428 C 0.07782 0.67599 0.64422 0.0
C429 C 0.10332 0.68406 0.61298 0.0
C430 C 0.08063 0.68892 0.70556 0.0
C431 C 0.08822 0.71746 0.7326 0.0
C432 C 0.06294 0.7096 0.76624 0.0
C433 C 0.06326 0.74517 0.79055 0.0
C434 C 0.04215 0.73979 0.82273 0.0
C435 C 0.02009 0.69856 0.83159 0.0
H436 H 0.04165 0.63951 0.7575 0.0
C437 C 0.0201 0.66275 0.80738 0.0
C438 C 0.04143 0.66811 0.77509 0.0
H439 H 0.00291 0.63057 0.81328 0.0
H440 H 0.23719 0.75932 0.63651 0.0
H441 H 0.19525 0.74431 0.69015 0.0
H442 H 0.03335 0.65256 0.64616 0.0
H443 H 0.07795 0.66663 0.59159 0.0
H444 H 0.0508 0.65843 0.707 0.0
H445 H 0.11276 0.74931 0.73009 0.0
H446 H 0.08025 0.77743 0.7847 0.0
H447 H 0.04414 0.76797 0.84078 0.0
loop_
_geom_bond_atom_site_label_1
_geom_bond_atom_site_label_2
_geom_bond_distance
_geom_bond_site_symmetry_2
_ccdc_geom_bond_type
Eu0 C9 2.828 . S
Eu0 O11 2.392 1_554 S
Eu0 O13 2.418 . S
Eu0 O18 2.373 . S
Eu0 O21 2.488 . S
Eu0 O22 2.471 . S
Eu0 O23 2.349 . S
Eu1 O10 2.373 . S
Eu1 O14 2.488 . S
Eu1 O15 2.471 . S
Eu1 O16 2.349 . S
Eu1 O19 2.392 1_556 S
Eu1 O20 2.418 . S
Eu1 C30 2.828 . S
C2 O20 1.244 . S
C2 O23 1.265 1_556 S
C3 C4 1.379 . S
C3 C7 1.373 . S
C3 C9 1.505 . S
C4 C3 1.379 . S
C4 C6 1.369 . S
C4 H32 0.930 . S
C5 C7 1.383 . S
C5 C8 1.382 . S
C5 H33 0.930 . S
C6 C4 1.369 . S
C6 C8 1.392 . S
C6 H34 0.930 . S
C7 C3 1.373 . S
C7 C5 1.383 . S
C7 H35 0.931 . S
C8 C5 1.382 . S
C8 C6 1.392 . S
C9 Eu0 2.828 . S
C9 C3 1.505 . S
C9 O21 1.249 . S
C9 O22 1.244 . S
O10 Eu1 2.373 . S
O10 C12 1.258 . S
O11 Eu0 2.392 1_556 S
O11 C12 1.242 . S
C12 O10 1.258 . S
C12 O11 1.242 . S
O13 Eu0 2.418 . S
O13 C17 1.244 . S
O14 Eu1 2.488 . S
O14 C30 1.249 . S
O15 Eu1 2.471 . S
O15 C30 1.244 . S
O16 Eu1 2.349 . S
O16 C17 1.265 1_556 S
C17 O13 1.244 . S
C17 O16 1.265 1_554 S
O18 Eu0 2.373 . S
O18 C31 1.258 . S
O19 Eu1 2.392 1_554 S
O19 C31 1.242 . S
O20 Eu1 2.418 . S
O20 C2 1.244 . S
O21 Eu0 2.488 . S
O21 C9 1.249 . S
O22 Eu0 2.471 . S
O22 C9 1.244 . S
O23 Eu0 2.349 . S
O23 C2 1.265 1_554 S
C24 C25 1.379 . S
C24 C28 1.373 . S
C24 C30 1.505 . S
C25 C24 1.379 . S
C25 C27 1.369 . S
C25 H36 0.930 . S
C26 C28 1.383 . S
C26 C29 1.382 . S
C26 H37 0.930 . S
C27 C25 1.369 . S
C27 C29 1.392 . S
C27 H38 0.930 . S
C28 C24 1.373 . S
C28 C26 1.383 . S
C28 H39 0.931 . S
C29 C26 1.382 . S
C29 C27 1.392 . S
C30 Eu1 2.828 . S
C30 O14 1.249 . S
C30 O15 1.244 . S
C30 C24 1.505 . S
C31 O18 1.258 . S
C31 O19 1.242 . S
H32 C4 0.930 . S
H33 C5 0.930 . S
H34 C6 0.930 . S
H35 C7 0.931 . S
H36 C25 0.930 . S
H37 C26 0.930 . S
H38 C27 0.930 . S
H39 C28 0.931 . S
Eu40 C49 2.828 . S
Eu40 O51 2.392 1_554 S
Eu40 O53 2.418 . S
Eu40 O58 2.373 . S
Eu40 O61 2.488 . S
Eu40 O62 2.471 . S
Eu40 O63 2.349 . S
Eu41 O50 2.373 . S
Eu41 O54 2.488 . S
Eu41 O55 2.471 . S
Eu41 O56 2.349 . S
Eu41 O59 2.392 1_556 S
Eu41 O60 2.418 . S
Eu41 C70 2.828 . S
C42 O60 1.244 . S
C42 O63 1.265 1_556 S
C43 C44 1.379 . S
C43 C47 1.373 . S
C43 C49 1.505 . S
C44 C43 1.379 . S
C44 C46 1.369 . S
C44 H72 0.930 . S
C45 C47 1.383 . S
C45 C48 1.382 . S
C45 H73 0.930 . S
C46 C44 1.369 . S
C46 C48 1.392 . S
C46 H74 0.930 . S
C47 C43 1.373 . S
C47 C45 1.383 . S
C47 H75 0.931 . S
C48 C45 1.382 . S
C48 C46 1.392 . S
C49 Eu40 2.828 . S
C49 C43 1.505 . S
C49 O61 1.249 . S
C49 O62 1.244 . S
O50 Eu41 2.373 . S
O50 C52 1.258 . S
O51 Eu40 2.392 1_556 S
O51 C52 1.242 . S
C52 O50 1.258 . S
C52 O51 1.242 . S
O53 Eu40 2.418 . S
O53 C57 1.244 . S
O54 Eu41 2.488 . S
O54 C70 1.249 . S
O55 Eu41 2.471 . S
O55 C70 1.244 . S
O56 Eu41 2.349 . S
O56 C57 1.265 1_556 S
C57 O53 1.244 . S
C57 O56 1.265 1_554 S
O58 Eu40 2.373 . S
O58 C71 1.258 . S
O59 Eu41 2.392 1_554 S
O59 C71 1.242 . S
O60 Eu41 2.418 . S
O60 C42 1.244 . S
O61 Eu40 2.488 . S
O61 C49 1.249 . S
O62 Eu40 2.471 . S
O62 C49 1.244 . S
O63 Eu40 2.349 . S
O63 C42 1.265 1_554 S
C64 C65 1.379 . S
C64 C68 1.373 . S
C64 C70 1.505 . S
C65 C64 1.379 . S
C65 C67 1.369 . S
C65 H76 0.930 . S
C66 C68 1.383 . S
C66 C69 1.382 . S
C66 H77 0.930 . S
C67 C65 1.369 . S
C67 C69 1.392 . S
C67 H78 0.930 . S
C68 C64 1.373 . S
C68 C66 1.383 . S
C68 H79 0.931 . S
C69 C66 1.382 . S
C69 C67 1.392 . S
C70 Eu41 2.828 . S
C70 O54 1.249 . S
C70 O55 1.244 . S
C70 C64 1.505 . S
C71 O58 1.258 . S
C71 O59 1.242 . S
H72 C44 0.930 . S
H73 C45 0.930 . S
H74 C46 0.930 . S
H75 C47 0.931 . S
H76 C65 0.930 . S
H77 C66 0.930 . S
H78 C67 0.930 . S
H79 C68 0.931 . S
Eu80 C89 2.828 . S
Eu80 O91 2.392 . S
Eu80 O93 2.418 . S
Eu80 O98 2.373 . S
Eu80 O101 2.488 . S
Eu80 O102 2.471 . S
Eu80 O103 2.349 . S
Eu81 O90 2.373 . S
Eu81 O94 2.488 . S
Eu81 O95 2.471 . S
Eu81 O96 2.349 . S
Eu81 O99 2.392 . S
Eu81 O100 2.418 . S
Eu81 C110 2.828 . S
C82 O100 1.244 . S
C82 O103 1.265 . S
C83 C84 1.379 . S
C83 C87 1.373 . S
C83 C89 1.505 . S
C84 C83 1.379 . S
C84 C86 1.369 . S
C84 H112 0.930 . S
C85 C87 1.383 . S
C85 C88 1.382 . S
C85 H113 0.930 . S
C86 C84 1.369 . S
C86 C88 1.392 . S
C86 H114 0.930 . S
C87 C83 1.373 . S
C87 C85 1.383 . S
C87 H115 0.931 . S
C88 C85 1.382 . S
C88 C86 1.392 . S
C89 Eu80 2.828 . S
C89 C83 1.505 . S
C89 O101 1.249 . S
C89 O102 1.244 . S
O90 Eu81 2.373 . S
O90 C92 1.258 . S
O91 Eu80 2.392 . S
O91 C92 1.242 . S
C92 O90 1.258 . S
C92 O91 1.242 . S
O93 Eu80 2.418 . S
O93 C97 1.244 . S
O94 Eu81 2.488 . S
O94 C110 1.249 . S
O95 Eu81 2.471 . S
O95 C110 1.244 . S
O96 Eu81 2.349 . S
O96 C97 1.265 . S
C97 O93 1.244 . S
C97 O96 1.265 . S
O98 Eu80 2.373 . S
O98 C111 1.258 . S
O99 Eu81 2.392 . S
O99 C111 1.242 . S
O100 Eu81 2.418 . S
O100 C82 1.244 . S
O101 Eu80 2.488 . S
O101 C89 1.249 . S
O102 Eu80 2.471 . S
O102 C89 1.244 . S
O103 Eu80 2.349 . S
O103 C82 1.265 . S
C104 C105 1.379 . S
C104 C108 1.373 . S
C104 C110 1.505 . S
C105 C104 1.379 . S
C105 C107 1.369 . S
C105 H116 0.930 . S
C106 C108 1.383 . S
C106 C109 1.382 . S
C106 H117 0.930 . S
C107 C105 1.369 . S
C107 C109 1.392 . S
C107 H118 0.930 . S
C108 C104 1.373 . S
C108 C106 1.383 . S
C108 H119 0.931 . S
C109 C106 1.382 . S
C109 C107 1.392 . S
C110 Eu81 2.828 . S
C110 O94 1.249 . S
C110 O95 1.244 . S
C110 C104 1.505 . S
C111 O98 1.258 . S
C111 O99 1.242 . S
H112 C84 0.930 . S
H113 C85 0.930 . S
H114 C86 0.930 . S
H115 C87 0.931 . S
H116 C105 0.930 . S
H117 C106 0.930 . S
H118 C107 0.930 . S
H119 C108 0.931 . S
Eu120 C129 2.828 . S
Eu120 O131 2.392 . S
Eu120 O133 2.418 . S
Eu120 O138 2.373 . S
Eu120 O141 2.488 . S
Eu120 O142 2.471 . S
Eu120 O143 2.349 . S
Eu121 O130 2.373 . S
Eu121 O134 2.488 . S
Eu121 O135 2.471 . S
Eu121 O136 2.349 . S
Eu121 O139 2.392 . S
Eu121 O140 2.418 . S
Eu121 C150 2.828 . S
C122 O140 1.244 . S
C122 O143 1.265 . S
C123 C124 1.379 . S
C123 C127 1.373 . S
C123 C129 1.505 . S
C124 C123 1.379 . S
C124 C126 1.369 . S
C124 H152 0.930 . S
C125 C127 1.383 . S
C125 C128 1.382 . S
C125 H153 0.930 . S
C126 C124 1.369 . S
C126 C128 1.392 . S
C126 H154 0.930 . S
C127 C123 1.373 . S
C127 C125 1.383 . S
C127 H155 0.931 . S
C128 C125 1.382 . S
C128 C126 1.392 . S
C129 Eu120 2.828 . S
C129 C123 1.505 . S
C129 O141 1.249 . S
C129 O142 1.244 . S
O130 Eu121 2.373 . S
O130 C132 1.258 . S
O131 Eu120 2.392 . S
O131 C132 1.242 . S
C132 O130 1.258 . S
C132 O131 1.242 . S
O133 Eu120 2.418 . S
O133 C137 1.244 . S
O134 Eu121 2.488 . S
O134 C150 1.249 . S
O135 Eu121 2.471 . S
O135 C150 1.244 . S
O136 Eu121 2.349 . S
O136 C137 1.265 . S
C137 O133 1.244 . S
C137 O136 1.265 . S
O138 Eu120 2.373 . S
O138 C151 1.258 . S
O139 Eu121 2.392 . S
O139 C151 1.242 . S
O140 Eu121 2.418 . S
O140 C122 1.244 . S
O141 Eu120 2.488 . S
O141 C129 1.249 . S
O142 Eu120 2.471 . S
O142 C129 1.244 . S
O143 Eu120 2.349 . S
O143 C122 1.265 . S
C144 C145 1.379 . S
C144 C148 1.373 . S
C144 C150 1.505 . S
C145 C144 1.379 . S
C145 C147 1.369 . S
C145 H156 0.930 . S
C146 C148 1.383 . S
C146 C149 1.382 . S
C146 H157 0.930 . S
C147 C145 1.369 . S
C147 C149 1.392 . S
C147 H158 0.930 . S
C148 C144 1.373 . S
C148 C146 1.383 . S
C148 H159 0.931 . S
C149 C146 1.382 . S
C149 C147 1.392 . S
C150 Eu121 2.828 . S
C150 O134 1.249 . S
C150 O135 1.244 . S
C150 C144 1.505 . S
C151 O138 1.258 . S
C151 O139 1.242 . S
H152 C124 0.930 . S
H153 C125 0.930 . S
H154 C126 0.930 . S
H155 C127 0.931 . S
H156 C145 0.930 . S
H157 C146 0.930 . S
H158 C147 0.930 . S
H159 C148 0.931 . S
C160 C161 1.386 . S
C160 C162 1.383 . S
C160 H176 0.951 . S
C161 C160 1.386 . S
C161 C165 1.383 1_554 S
C162 C160 1.383 . S
C162 C163 1.402 . S
C162 H177 0.951 . S
C163 C162 1.402 . S
C163 C164 1.375 1_554 S
C163 C166 1.481 . S
C164 C163 1.375 1_556 S
C164 C165 1.367 . S
C164 H178 0.951 . S
C165 C161 1.383 1_556 S
C165 C164 1.367 . S
C165 H179 0.950 . S
C166 C163 1.481 . S
C166 C167 1.297 . S
C166 H180 0.950 1_554 S
C167 C166 1.297 . S
C167 C168 1.479 . S
C167 H181 0.950 . S
C168 C167 1.479 . S
C168 C169 1.375 . S
C168 C174 1.404 . S
C169 C168 1.375 . S
C169 C170 1.369 . S
C169 H182 0.950 . S
C170 C169 1.369 . S
C170 C171 1.392 . S
C170 H183 0.951 . S
C171 C170 1.392 . S
C171 C173 1.385 1_554 S
H172 C174 0.948 . S
C173 C171 1.385 1_556 S
C173 C174 1.385 1_556 S
C173 H175 0.949 . S
C174 C168 1.404 . S
C174 H172 0.948 . S
C174 C173 1.385 1_554 S
H175 C173 0.949 . S
H176 C160 0.951 . S
H177 C162 0.951 . S
H178 C164 0.951 . S
H179 C165 0.950 . S
H180 C166 0.950 1_556 S
H181 C167 0.950 . S
H182 C169 0.950 . S
H183 C170 0.951 . S
C184 C185 1.386 . S
C184 C186 1.383 . S
C184 H200 0.951 . S
C185 C184 1.386 . S
C185 C189 1.383 . S
C186 C184 1.383 . S
C186 C187 1.402 . S
C186 H201 0.951 . S
C187 C186 1.402 . S
C187 C188 1.375 . S
C187 C190 1.481 . S
C188 C187 1.375 . S
C188 C189 1.367 . S
C188 H202 0.951 . S
C189 C185 1.383 . S
C189 C188 1.367 . S
C189 H203 0.950 . S
C190 C187 1.481 . S
C190 C191 1.297 . S
C190 H204 0.950 . S
C191 C190 1.297 . S
C191 C192 1.479 . S
C191 H205 0.950 . S
C192 C191 1.479 . S
C192 C193 1.375 . S
C192 C198 1.404 . S
C193 C192 1.375 . S
C193 C194 1.369 . S
C193 H206 0.950 . S
C194 C193 1.369 . S
C194 C195 1.392 . S
C194 H207 0.951 . S
C195 C194 1.392 . S
C195 C197 1.384 . S
H196 C198 0.949 . S
C197 C195 1.384 . S
C197 C198 1.385 . S
C197 H199 0.950 . S
C198 C192 1.404 . S
C198 H196 0.949 . S
C198 C197 1.385 . S
H199 C197 0.950 . S
H200 C184 0.951 . S
H201 C186 0.951 . S
H202 C188 0.951 . S
H203 C189 0.950 . S
H204 C190 0.950 . S
H205 C191 0.950 . S
H206 C193 0.950 . S
H207 C194 0.951 . S
C208 C209 1.372 1_554 S
C208 C210 1.383 . S
C208 H224 0.951 . S
C209 C208 1.372 1_556 S
C209 C213 1.399 . S
C210 C208 1.383 . S
C210 C211 1.402 1_554 S
C210 H225 0.951 1_455 S
C211 C210 1.402 1_556 S
C211 C212 1.375 . S
C211 C214 1.481 . S
C212 C211 1.375 . S
C212 C213 1.367 . S
C212 H226 0.951 . S
C213 C209 1.399 . S
C213 C212 1.367 . S
C213 H227 0.950 . S
C214 C211 1.481 . S
C214 C215 1.297 1_445 S
C214 H228 0.950 1_545 S
C215 C214 1.297 1_665 S
C215 C216 1.479 . S
C215 H229 0.950 1_566 S
C216 C215 1.479 . S
C216 C217 1.375 1_556 S
C216 C222 1.404 . S
C217 C216 1.375 1_554 S
C217 C218 1.369 . S
C217 H230 0.950 . S
C218 C217 1.369 . S
C218 C219 1.376 1_554 S
C218 H231 0.951 . S
C219 C218 1.376 1_556 S
C219 C221 1.408 . S
H220 C222 0.949 . S
C221 C219 1.408 . S
C221 C222 1.385 . S
C221 H223 0.950 . S
C222 C216 1.404 . S
C222 H220 0.949 . S
C222 C221 1.385 . S
H223 C221 0.950 . S
H224 C208 0.951 . S
H225 C210 0.951 1_655 S
H226 C212 0.951 . S
H227 C213 0.950 . S
H228 C214 0.950 1_565 S
H229 C215 0.950 1_544 S
H230 C217 0.950 . S
H231 C218 0.951 . S
C232 C233 1.386 . S
C232 C234 1.383 . S
C232 H248 0.951 . S
C233 C232 1.386 . S
C233 C237 1.383 . S
C234 C232 1.383 . S
C234 C235 1.402 . S
C234 H249 0.951 1_655 S
C235 C234 1.402 . S
C235 C236 1.375 . S
C235 C238 1.481 . S
C236 C235 1.375 . S
C236 C237 1.367 . S
C236 H250 0.951 . S
C237 C233 1.383 . S
C237 C236 1.367 . S
C237 H251 0.950 . S
C238 C235 1.481 . S
C238 C239 1.297 1_645 S
C238 H252 0.950 1_545 S
C239 C238 1.297 1_465 S
C239 C240 1.479 . S
C239 H253 0.950 1_565 S
C240 C239 1.479 . S
C240 C241 1.375 . S
C240 C246 1.404 . S
C241 C240 1.375 . S
C241 C242 1.369 . S
C241 H254 0.950 . S
C242 C241 1.369 . S
C242 C243 1.392 . S
C242 H255 0.951 . S
C243 C242 1.392 . S
C243 C245 1.384 . S
H244 C246 0.949 1_655 S
C245 C243 1.384 . S
C245 C246 1.385 . S
C245 H247 0.950 . S
C246 C240 1.404 . S
C246 H244 0.949 1_455 S
C246 C245 1.385 . S
H247 C245 0.950 . S
H248 C232 0.951 . S
H249 C234 0.951 1_455 S
H250 C236 0.951 . S
H251 C237 0.950 . S
H252 C238 0.950 1_565 S
H253 C239 0.950 1_545 S
H254 C241 0.950 . S
H255 C242 0.951 . S
C256 C257 1.386 . S
C256 C258 1.383 . S
C256 H272 0.951 . S
C257 C256 1.386 . S
C257 C261 1.383 . S
C258 C256 1.383 . S
C258 C259 1.402 . S
C258 H273 0.951 . S
C259 C258 1.402 . S
C259 C260 1.375 . S
C259 C262 1.481 . S
C260 C259 1.375 . S
C260 C261 1.367 . S
C260 H274 0.951 . S
C261 C257 1.383 . S
C261 C260 1.367 . S
C261 H275 0.950 . S
C262 C259 1.481 . S
C262 C263 1.297 . S
C262 H276 0.950 . S
C263 C262 1.297 . S
C263 C264 1.479 . S
C263 H277 0.950 . S
C264 C263 1.479 . S
C264 C265 1.375 . S
C264 C270 1.404 . S
C265 C264 1.375 . S
C265 C266 1.369 . S
C265 H278 0.950 . S
C266 C265 1.369 . S
C266 C267 1.392 . S
C266 H279 0.951 . S
C267 C266 1.392 . S
C267 C269 1.384 . S
H268 C270 0.949 . S
C269 C267 1.384 . S
C269 C270 1.385 . S
C269 H271 0.950 . S
C270 C264 1.404 . S
C270 H268 0.949 . S
C270 C269 1.385 . S
H271 C269 0.950 . S
H272 C256 0.951 . S
H273 C258 0.951 . S
H274 C260 0.951 . S
H275 C261 0.950 . S
H276 C262 0.950 . S
H277 C263 0.950 . S
H278 C265 0.950 . S
H279 C266 0.951 . S
C280 C281 1.386 . S
C280 C282 1.383 . S
C280 H296 0.951 . S
C281 C280 1.386 . S
C281 C285 1.383 . S
C282 C280 1.383 . S
C282 C283 1.402 . S
C282 H297 0.951 . S
C283 C282 1.402 . S
C283 C284 1.375 . S
C283 C286 1.481 . S
C284 C283 1.375 . S
C284 C285 1.367 . S
C284 H298 0.951 . S
C285 C281 1.383 . S
C285 C284 1.367 . S
C285 H299 0.950 . S
C286 C283 1.481 . S
C286 C287 1.297 . S
C286 H300 0.950 . S
C287 C286 1.297 . S
C287 C288 1.479 . S
C287 H301 0.950 . S
C288 C287 1.479 . S
C288 C289 1.375 . S
C288 C294 1.404 . S
C289 C288 1.375 . S
C289 C290 1.369 . S
C289 H302 0.950 . S
C290 C289 1.369 . S
C290 C291 1.392 . S
C290 H303 0.951 . S
C291 C290 1.392 . S
C291 C293 1.384 . S
H292 C294 0.949 . S
C293 C291 1.384 . S
C293 C294 1.385 . S
C293 H295 0.950 . S
C294 C288 1.404 . S
C294 H292 0.949 . S
C294 C293 1.385 . S
H295 C293 0.950 . S
H296 C280 0.951 . S
H297 C282 0.951 . S
H298 C284 0.951 . S
H299 C285 0.950 . S
H300 C286 0.950 . S
H301 C287 0.950 . S
H302 C289 0.950 . S
H303 C290 0.951 . S
C304 C305 1.386 . S
C304 C306 1.383 . S
C304 H320 0.951 . S
C305 C304 1.386 . S
C305 C309 1.383 . S
C306 C304 1.383 . S
C306 C307 1.402 . S
C306 H321 0.951 . S
C307 C306 1.402 . S
C307 C308 1.375 . S
C307 C310 1.481 . S
C308 C307 1.375 . S
C308 C309 1.367 . S
C308 H322 0.951 . S
C309 C305 1.383 . S
C309 C308 1.367 . S
C309 H323 0.950 . S
C310 C307 1.481 . S
C310 C311 1.297 . S
C310 H324 0.950 . S
C311 C310 1.297 . S
C311 C312 1.479 . S
C311 H325 0.950 . S
C312 C311 1.479 . S
C312 C313 1.375 . S
C312 C318 1.404 . S
C313 C312 1.375 . S
C313 C314 1.369 . S
C313 H326 0.950 . S
C314 C313 1.369 . S
C314 C315 1.392 . S
C314 H327 0.951 . S
C315 C314 1.392 . S
C315 C317 1.384 . S
H316 C318 0.949 . S
C317 C315 1.384 . S
C317 C318 1.385 . S
C317 H319 0.950 . S
C318 C312 1.404 . S
C318 H316 0.949 . S
C318 C317 1.385 . S
H319 C317 0.950 . S
H320 C304 0.951 . S
H321 C306 0.951 . S
H322 C308 0.951 . S
H323 C309 0.950 . S
H324 C310 0.950 . S
H325 C311 0.950 . S
H326 C313 0.950 . S
H327 C314 0.951 . S
C328 C329 1.386 . S
C328 C330 1.383 . S
C328 H344 0.951 . S
C329 C328 1.386 . S
C329 C333 1.383 . S
C330 C328 1.383 . S
C330 C331 1.402 . S
C330 H345 0.951 . S
C331 C330 1.402 . S
C331 C332 1.375 . S
C331 C334 1.481 . S
C332 C331 1.375 . S
C332 C333 1.367 . S
C332 H346 0.951 . S
C333 C329 1.383 . S
C333 C332 1.367 . S
C333 H347 0.950 . S
C334 C331 1.481 . S
C334 C335 1.297 . S
C334 H348 0.950 . S
C335 C334 1.297 . S
C335 C336 1.479 . S
C335 H349 0.950 . S
C336 C335 1.479 . S
C336 C337 1.375 . S
C336 C342 1.404 . S
C337 C336 1.375 . S
C337 C338 1.369 . S
C337 H350 0.950 . S
C338 C337 1.369 . S
C338 C339 1.392 . S
C338 H351 0.951 . S
C339 C338 1.392 . S
C339 C341 1.384 . S
H340 C342 0.949 . S
C341 C339 1.384 . S
C341 C342 1.385 . S
C341 H343 0.950 . S
C342 C336 1.404 . S
C342 H340 0.949 . S
C342 C341 1.385 . S
H343 C341 0.950 . S
H344 C328 0.951 . S
H345 C330 0.951 . S
H346 C332 0.951 . S
H347 C333 0.950 . S
H348 C334 0.950 . S
H349 C335 0.950 . S
H350 C337 0.950 . S
H351 C338 0.951 . S
C352 C353 1.386 . S
C352 C354 1.383 . S
C352 H368 0.951 . S
C353 C352 1.386 . S
C353 C357 1.383 . S
C354 C352 1.383 . S
C354 C355 1.402 . S
C354 H369 0.951 . S
C355 C354 1.402 . S
C355 C356 1.375 . S
C355 C358 1.481 . S
C356 C355 1.375 . S
C356 C357 1.367 . S
C356 H370 0.951 . S
C357 C353 1.383 . S
C357 C356 1.367 . S
C357 H371 0.950 . S
C358 C355 1.481 . S
C358 C359 1.297 . S
C358 H372 0.950 . S
C359 C358 1.297 . S
C359 C360 1.479 . S
C359 H373 0.950 . S
C360 C359 1.479 . S
C360 C361 1.375 . S
C360 C366 1.404 1_655 S
C361 C360 1.375 . S
C361 C362 1.369 . S
C361 H374 0.950 . S
C362 C361 1.369 . S
C362 C363 1.392 1_655 S
C362 H375 0.951 . S
C363 C362 1.392 1_455 S
C363 C365 1.384 . S
H364 C366 0.949 . S
C365 C363 1.384 . S
C365 C366 1.385 . S
C365 H367 0.950 . S
C366 C360 1.404 1_455 S
C366 H364 0.949 . S
C366 C365 1.385 . S
H367 C365 0.950 . S
H368 C352 0.951 . S
H369 C354 0.951 . S
H370 C356 0.951 . S
H371 C357 0.950 . S
H372 C358 0.950 . S
H373 C359 0.950 . S
H374 C361 0.950 . S
H375 C362 0.951 . S
C376 C377 1.386 . S
C376 C378 1.383 . S
C376 H392 0.951 . S
C377 C376 1.386 . S
C377 C381 1.383 . S
C378 C376 1.383 . S
C378 C379 1.402 . S
C378 H393 0.951 . S
C379 C378 1.402 . S
C379 C380 1.375 . S
C379 C382 1.481 . S
C380 C379 1.375 . S
C380 C381 1.367 . S
C380 H394 0.951 . S
C381 C377 1.383 . S
C381 C380 1.367 . S
C381 H395 0.950 . S
C382 C379 1.481 . S
C382 C383 1.297 . S
C382 H396 0.950 . S
C383 C382 1.297 . S
C383 C384 1.479 . S
C383 H397 0.950 . S
C384 C383 1.479 . S
C384 C385 1.375 . S
C384 C390 1.404 . S
C385 C384 1.375 . S
C385 C386 1.369 . S
C385 H398 0.950 . S
C386 C385 1.369 . S
C386 C387 1.392 . S
C386 H399 0.951 . S
C387 C386 1.392 . S
C387 C389 1.384 . S
H388 C390 0.949 . S
C389 C387 1.384 . S
C389 C390 1.385 . S
C389 H391 0.950 1_655 S
C390 C384 1.404 . S
C390 H388 0.949 . S
C390 C389 1.385 . S
H391 C389 0.950 1_455 S
H392 C376 0.951 . S
H393 C378 0.951 . S
H394 C380 0.951 . S
H395 C381 0.950 . S
H396 C382 0.950 . S
H397 C383 0.950 . S
H398 C385 0.950 . S
H399 C386 0.951 . S
C400 C401 1.386 1_455 S
C400 C402 1.383 . S
C400 H416 0.951 . S
C401 C400 1.386 1_655 S
C401 C405 1.383 . S
C402 C400 1.383 . S
C402 C403 1.402 . S
C402 H417 0.951 . S
C403 C402 1.402 . S
C403 C404 1.375 1_455 S
C403 C406 1.481 . S
C404 C403 1.375 1_655 S
C404 C405 1.367 . S
C404 H418 0.951 . S
C405 C401 1.383 . S
C405 C404 1.367 . S
C405 H419 0.950 . S
C406 C403 1.481 . S
C406 C407 1.297 . S
C406 H420 0.950 . S
C407 C406 1.297 . S
C407 C408 1.479 . S
C407 H421 0.950 . S
C408 C407 1.479 . S
C408 C409 1.375 . S
C408 C414 1.404 . S
C409 C408 1.375 . S
C409 C410 1.369 . S
C409 H422 0.950 . S
C410 C409 1.369 . S
C410 C411 1.392 . S
C410 H423 0.951 . S
C411 C410 1.392 . S
C411 C413 1.384 . S
H412 C414 0.949 . S
C413 C411 1.384 . S
C413 C414 1.385 . S
C413 H415 0.950 . S
C414 C408 1.404 . S
C414 H412 0.949 . S
C414 C413 1.385 . S
H415 C413 0.950 . S
H416 C400 0.951 . S
H417 C402 0.951 . S
H418 C404 0.951 . S
H419 C405 0.950 . S
H420 C406 0.950 . S
H421 C407 0.950 . S
H422 C409 0.950 . S
H423 C410 0.951 . S
C424 C425 1.386 . S
C424 C426 1.383 . S
C424 H440 0.951 . S
C425 C424 1.386 . S
C425 C429 1.383 . S
C426 C424 1.383 . S
C426 C427 1.402 . S
C426 H441 0.951 . S
C427 C426 1.402 . S
C427 C428 1.375 . S
C427 C430 1.481 . S
C428 C427 1.375 . S
C428 C429 1.367 . S
C428 H442 0.951 . S
C429 C425 1.383 . S
C429 C428 1.367 . S
C429 H443 0.950 . S
C430 C427 1.481 . S
C430 C431 1.297 . S
C430 H444 0.950 . S
C431 C430 1.297 . S
C431 C432 1.479 . S
C431 H445 0.950 . S
C432 C431 1.479 . S
C432 C433 1.375 . S
C432 C438 1.404 1_455 S
C433 C432 1.375 . S
C433 C434 1.369 . S
C433 H446 0.950 . S
C434 C433 1.369 . S
C434 C435 1.392 1_455 S
C434 H447 0.951 . S
C435 C434 1.392 1_655 S
C435 C437 1.384 . S
H436 C438 0.949 . S
C437 C435 1.384 . S
C437 C438 1.385 . S
C437 H439 0.950 . S
C438 C432 1.404 1_655 S
C438 H436 0.949 . S
C438 C437 1.385 . S
H439 C437 0.950 . S
H440 C424 0.951 . S
H441 C426 0.951 . S
H442 C428 0.951 . S
H443 C429 0.950 . S
H444 C430 0.950 . S
H445 C431 0.950 . S
H446 C433 0.950 . S
H447 C434 0.951 . S
C161 C42 1.517 1_554 S
C171 C17 1.470 . S
C185 C97 1.489 . S
C195 C122 1.520 . S
C209 C2 1.492 . S
C219 C57 1.488 1_556 S
C233 C137 1.503 . S
C243 C82 1.472 . S
C257 C128 1.250 . S
C267 C31 1.242 . S
C281 C48 1.257 . S
C291 C111 1.255 . S
C305 C52 1.250 . S
C315 C109 1.253 . S
C329 C132 1.255 . S
C339 C29 1.237 . S
C353 C71 1.255 . S
C363 C88 1.249 . S
C377 C151 1.250 . S
C387 C8 1.247 1_655 S
C401 C149 1.257 . S
C411 C12 1.239 . S
C425 C92 1.258 . S
C435 C69 1.239 . S
