# Generated by pormake.
# Topology npo, (4)-cn, num edge types: 1
# Building blocks:
#     Node 0, Type 0, BuildingBlock: AZAVOO_clean_sbu_0, # of connection points: 4
#     Node 1, Type 0, BuildingBlock: AZAVOO_clean_sbu_0, # of connection points: 4
#     Node 2, Type 0, BuildingBlock: AZAVOO_clean_sbu_0, # of connection points: 4
#     Node 3, Type 0, BuildingBlock: AZAVOO_clean_sbu_0, # of connection points: 4
#     Node 4, Type 0, BuildingBlock: AZAVOO_clean_sbu_0, # of connection points: 4
#     Node 5, Type 0, BuildingBlock: AZAVOO_clean_sbu_0, # of connection points: 4
#     Edge 6, Type (0, 0), BuildingBlock: XUDNAN_clean_linker_2, # of connection points: 2
#     Edge 7, Type (0, 0), BuildingBlock: XUDNAN_clean_linker_2, # of connection points: 2
#     Edge 8, Type (0, 0), BuildingBlock: XUDNAN_clean_linker_2, # of connection points: 2
#     Edge 9, Type (0, 0), BuildingBlock: XUDNAN_clean_linker_2, # of connection points: 2
#     Edge 10, Type (0, 0), BuildingBlock: XUDNAN_clean_linker_2, # of connection points: 2
#     Edge 11, Type (0, 0), BuildingBlock: XUDNAN_clean_linker_2, # of connection points: 2
#     Edge 12, Type (0, 0), BuildingBlock: XUDNAN_clean_linker_2, # of connection points: 2
#     Edge 13, Type (0, 0), BuildingBlock: XUDNAN_clean_linker_2, # of connection points: 2
#     Edge 14, Type (0, 0), BuildingBlock: XUDNAN_clean_linker_2, # of connection points: 2
#     Edge 15, Type (0, 0), BuildingBlock: XUDNAN_clean_linker_2, # of connection points: 2
#     Edge 16, Type (0, 0), BuildingBlock: XUDNAN_clean_linker_2, # of connection points: 2
#     Edge 17, Type (0, 0), BuildingBlock: XUDNAN_clean_linker_2, # of connection points: 2
# Relax obj value: 0.261
# Max RMSD: 0.249
# Mean RMSD: 0.231
data_MOF--net-npo--node1-AZAVOO_clean_sbu_0--edge1-XUDNAN_clean_linker_2
_symmetry_space_group_name_H-M    P1
_symmetry_Int_Tables_number       1
_symmetry_cell_setting            triclinic
loop_
_symmetry_equiv_pos_as_xyz
'x, y, z'
_cell_length_a     44.690705
_cell_length_b     40.202892
_cell_length_c     26.15276
_cell_angle_alpha  90.201107
_cell_angle_beta   90.087019
_cell_angle_gamma 130.91914
loop_
_atom_site_label
_atom_site_type_symbol
_atom_site_fract_x
_atom_site_fract_y
_atom_site_fract_z
_atom_type_partial_charge
Mg0 Mg 0.51916 0.10893 0.1538 0.0
O1 O 0.58392 0.16285 0.17605 0.0
O2 O 0.61402 0.13576 0.18375 0.0
Mg3 Mg 0.56598 0.06129 0.17091 0.0
C4 C 0.61484 0.16806 0.18455 0.0
C5 C 0.49681 0.16731 0.163 0.0
O6 O 0.47149 0.1358 0.19518 0.0
O7 O 0.5373 0.10746 0.07298 0.0
O8 O 0.56059 0.07315 0.08754 0.0
O9 O 0.50082 0.092 0.23552 0.0
O10 O 0.51759 0.06112 0.18777 0.0
C11 C 0.55109 0.08972 0.05705 0.0
C12 C 0.50628 0.0642 0.23125 0.0
O13 O 0.51856 0.16393 0.13658 0.0
Mg14 Mg 0.42037 0.48565 0.81373 0.0
O15 O 0.4461 0.55129 0.77809 0.0
O16 O 0.51217 0.59648 0.77752 0.0
Mg17 Mg 0.52905 0.55874 0.81391 0.0
C18 C 0.47986 0.58809 0.76728 0.0
C19 C 0.34698 0.47653 0.80354 0.0
O20 O 0.37134 0.51221 0.83161 0.0
O21 O 0.43363 0.4673 0.73931 0.0
O22 O 0.4994 0.50911 0.74765 0.0
O23 O 0.42522 0.51005 0.89316 0.0
O24 O 0.47278 0.5165 0.85525 0.0
C25 C 0.46677 0.47966 0.72431 0.0
C26 C 0.46082 0.52412 0.89457 0.0
O27 O 0.35848 0.45658 0.78756 0.0
Mg28 Mg 0.95853 0.54917 0.26474 0.0
O29 O 0.90173 0.48294 0.23631 0.0
O30 O 0.91351 0.43824 0.21754 0.0
Mg31 Mg 0.98024 0.47842 0.22896 0.0
C32 C 0.88987 0.44567 0.22173 0.0
C33 C 0.89734 0.56164 0.26336 0.0
O34 O 0.8941 0.54715 0.21682 0.0
O35 O 0.95288 0.51623 0.33896 0.0
O36 O 0.9715 0.47848 0.31558 0.0
O37 O 0.97568 0.57712 0.18655 0.0
O38 O 0.99178 0.54045 0.22091 0.0
C39 C 0.96095 0.49184 0.34965 0.0
C40 C 0.99236 0.56042 0.18204 0.0
O41 O 0.92193 0.56635 0.29427 0.0
Mg42 Mg 0.49183 0.9012 0.65223 0.0
O43 O 0.4272 0.84648 0.6733 0.0
O44 O 0.39617 0.87247 0.68136 0.0
Mg45 Mg 0.44355 0.94711 0.67016 0.0
C46 C 0.39594 0.84059 0.68154 0.0
C47 C 0.51628 0.84461 0.65885 0.0
O48 O 0.54229 0.87676 0.69044 0.0
O49 O 0.47345 0.90254 0.5715 0.0
O50 O 0.44928 0.93589 0.58654 0.0
O51 O 0.51005 0.91797 0.7343 0.0
O52 O 0.49254 0.94826 0.68712 0.0
C53 C 0.4592 0.9198 0.55583 0.0
C54 C 0.50403 0.94531 0.73055 0.0
O55 O 0.49333 0.84698 0.63383 0.0
Mg56 Mg 0.60552 0.53357 0.31796 0.0
O57 O 0.57682 0.46654 0.28308 0.0
O58 O 0.51093 0.42171 0.28861 0.0
Mg59 Mg 0.4975 0.46311 0.32404 0.0
C60 C 0.54242 0.42935 0.27536 0.0
C61 C 0.69335 0.58217 0.32224 0.0
O62 O 0.68636 0.59369 0.36461 0.0
O63 O 0.59059 0.5507 0.24468 0.0
O64 O 0.52491 0.50775 0.25329 0.0
O65 O 0.60252 0.50899 0.39537 0.0
O66 O 0.55538 0.50621 0.36234 0.0
C67 C 0.55692 0.53654 0.22875 0.0
C68 C 0.5678 0.49701 0.39942 0.0
O69 O 0.66542 0.55863 0.28979 0.0
Mg70 Mg 0.05812 0.45933 0.76835 0.0
O71 O 0.11239 0.52533 0.73668 0.0
O72 O 0.09861 0.5676 0.71483 0.0
Mg73 Mg 0.03328 0.52758 0.73467 0.0
C74 C 0.12292 0.56117 0.71917 0.0
C75 C 0.09699 0.41744 0.76845 0.0
O76 O 0.06736 0.39081 0.73663 0.0
O77 O 0.06689 0.49382 0.84424 0.0
O78 O 0.05116 0.53379 0.81806 0.0
O79 O 0.03806 0.43196 0.68859 0.0
O80 O 0.02069 0.46484 0.73015 0.0
C81 C 0.06241 0.52171 0.85269 0.0
C82 C 0.01955 0.44667 0.6889 0.0
O83 O 0.09994 0.44762 0.79085 0.0
H84 H 0.45597 0.18589 0.21517 0.0
H85 H 0.55727 0.24456 0.1161 0.0
H86 H 0.57724 0.31744 0.12976 0.0
H87 H 0.43626 0.25921 0.17668 0.0
H88 H 0.42243 0.26098 0.24068 0.0
H89 H 0.41356 0.21269 0.21841 0.0
H90 H 0.45323 0.21868 0.29568 0.0
H91 H 0.46265 0.26721 0.31785 0.0
H92 H 0.50343 0.26903 0.30614 0.0
H93 H 0.59135 0.38464 0.16332 0.0
H94 H 0.59512 0.44145 0.20791 0.0
H95 H 0.48327 0.33951 0.28251 0.0
C96 C 0.48181 0.21387 0.19533 0.0
C97 C 0.50502 0.20946 0.16451 0.0
C98 C 0.53886 0.24701 0.13963 0.0
C99 C 0.55051 0.28861 0.14725 0.0
C100 C 0.52772 0.29202 0.17922 0.0
C101 C 0.49369 0.25561 0.20216 0.0
C102 C 0.4756 0.26866 0.23669 0.0
C103 C 0.43453 0.24924 0.21692 0.0
C104 C 0.47364 0.25509 0.29238 0.0
C105 C 0.50548 0.31822 0.23082 0.0
C106 C 0.53529 0.33095 0.19746 0.0
C107 C 0.56779 0.37508 0.18872 0.0
C108 C 0.5698 0.40709 0.21452 0.0
C109 C 0.53934 0.39485 0.24836 0.0
C110 C 0.50663 0.34979 0.25621 0.0
H111 H 0.31544 0.51356 0.83137 0.0
H112 H 0.28667 0.40058 0.75218 0.0
H113 H 0.21848 0.37143 0.73744 0.0
H114 H 0.22222 0.45626 0.89439 0.0
H115 H 0.22186 0.50057 0.88721 0.0
H116 H 0.26825 0.5124 0.89147 0.0
H117 H 0.29042 0.55418 0.80541 0.0
H118 H 0.24425 0.54277 0.80106 0.0
H119 H 0.25934 0.52672 0.74963 0.0
H120 H 0.15343 0.35516 0.73097 0.0
H121 H 0.09762 0.35427 0.73057 0.0
H122 H 0.16949 0.47778 0.81494 0.0
C123 C 0.29489 0.48267 0.81089 0.0
C124 C 0.30641 0.4593 0.79299 0.0
C125 C 0.27854 0.41907 0.76623 0.0
C126 C 0.23972 0.40221 0.7578 0.0
C127 C 0.22931 0.42598 0.77638 0.0
C128 C 0.25617 0.46544 0.80217 0.0
C129 C 0.23786 0.48499 0.81765 0.0
C130 C 0.23753 0.48876 0.87616 0.0
C131 C 0.25924 0.52981 0.79189 0.0
C132 C 0.1964 0.45037 0.79654 0.0
C133 C 0.192 0.41656 0.77292 0.0
C134 C 0.15653 0.38139 0.74951 0.0
C135 C 0.12497 0.38115 0.74957 0.0
C136 C 0.12907 0.41582 0.77295 0.0
C137 C 0.1652 0.45052 0.79723 0.0
H138 H 0.68971 0.19546 0.19045 0.0
H139 H 0.62655 0.24361 0.19575 0.0
H140 H 0.69 0.31962 0.20363 0.0
H141 H 0.76625 0.27343 0.28168 0.0
H142 H 0.8046 0.27933 0.24785 0.0
H143 H 0.75404 0.22848 0.24357 0.0
H144 H 0.75723 0.23456 0.14477 0.0
H145 H 0.80768 0.28565 0.14877 0.0
H146 H 0.77108 0.28339 0.11532 0.0
H147 H 0.75999 0.39039 0.21004 0.0
H148 H 0.83202 0.45123 0.21771 0.0
H149 H 0.85011 0.35758 0.20721 0.0
C150 C 0.68914 0.22191 0.19369 0.0
C151 C 0.65301 0.2134 0.19254 0.0
C152 C 0.65374 0.24913 0.19654 0.0
C153 C 0.68967 0.2925 0.20094 0.0
C154 C 0.72468 0.29974 0.20121 0.0
C155 C 0.72477 0.2655 0.19794 0.0
C156 C 0.76665 0.28241 0.19892 0.0
C157 C 0.77326 0.26488 0.2458 0.0
C158 C 0.7762 0.27081 0.14897 0.0
C159 C 0.79002 0.33149 0.20333 0.0
C160 C 0.7652 0.34073 0.20452 0.0
C161 C 0.77975 0.3836 0.20911 0.0
C162 C 0.82078 0.41796 0.21337 0.0
C163 C 0.84688 0.40932 0.21294 0.0
C164 C 0.8311 0.36542 0.20727 0.0
H165 H 0.56046 0.82851 0.7064 0.0
H166 H 0.45425 0.76589 0.61494 0.0
H167 H 0.43595 0.69387 0.62793 0.0
H168 H 0.57964 0.75536 0.66347 0.0
H169 H 0.59685 0.75564 0.72599 0.0
H170 H 0.60394 0.80293 0.70452 0.0
H171 H 0.56788 0.79841 0.78521 0.0
H172 H 0.56024 0.75087 0.80661 0.0
H173 H 0.5185 0.74798 0.79873 0.0
H174 H 0.42429 0.62805 0.66083 0.0
H175 H 0.42347 0.57307 0.70427 0.0
H176 H 0.53867 0.67809 0.77112 0.0
C177 C 0.53386 0.79982 0.68804 0.0
C178 C 0.50882 0.8029 0.65962 0.0
C179 C 0.47406 0.76447 0.63661 0.0
C180 C 0.46334 0.72335 0.64386 0.0
C181 C 0.48799 0.72128 0.67351 0.0
C182 C 0.52291 0.75855 0.69447 0.0
C183 C 0.5431 0.74695 0.72679 0.0
C184 C 0.58326 0.76637 0.7038 0.0
C185 C 0.54768 0.76194 0.78263 0.0
C186 C 0.51341 0.69723 0.72209 0.0
C187 C 0.48185 0.68315 0.69117 0.0
C188 C 0.44921 0.63865 0.68424 0.0
C189 C 0.4489 0.60771 0.70935 0.0
C190 C 0.48117 0.62136 0.74065 0.0
C191 C 0.51395 0.66673 0.74667 0.0
H192 H 0.71348 0.55193 0.24695 0.0
H193 H 0.7574 0.63017 0.3864 0.0
H194 H 0.81587 0.63609 0.3846 0.0
H195 H 0.74062 0.49022 0.27759 0.0
H196 H 0.75516 0.48899 0.21385 0.0
H197 H 0.7185 0.49424 0.22295 0.0
H198 H 0.76037 0.56584 0.1696 0.0
H199 H 0.797 0.56055 0.1598 0.0
H200 H 0.81131 0.61044 0.18709 0.0
H201 H 0.86609 0.62729 0.37267 0.0
H202 H 0.90721 0.60907 0.34735 0.0
H203 H 0.83155 0.53813 0.21481 0.0
C204 C 0.7358 0.57112 0.27649 0.0
C205 C 0.73081 0.59062 0.31679 0.0
C206 C 0.76053 0.61498 0.35507 0.0
C207 C 0.79388 0.61851 0.35444 0.0
C208 C 0.79731 0.59782 0.31507 0.0
C209 C 0.76937 0.57508 0.2764 0.0
C210 C 0.77937 0.55443 0.23962 0.0
C211 C 0.74646 0.50399 0.23847 0.0
C212 C 0.78751 0.574 0.18584 0.0
C213 C 0.81683 0.5684 0.26425 0.0
C214 C 0.82669 0.5934 0.30773 0.0
C215 C 0.859 0.60826 0.33829 0.0
C216 C 0.88206 0.59757 0.32377 0.0
C217 C 0.87277 0.57247 0.27897 0.0
C218 C 0.83972 0.55785 0.24893 0.0
H219 H 0.3206 0.81186 0.6871 0.0
H220 H 0.38541 0.76567 0.69059 0.0
H221 H 0.32249 0.68922 0.69685 0.0
H222 H 0.2451 0.73326 0.77699 0.0
H223 H 0.20616 0.72666 0.74362 0.0
H224 H 0.25645 0.7779 0.73971 0.0
H225 H 0.25256 0.77176 0.64081 0.0
H226 H 0.20239 0.72024 0.64446 0.0
H227 H 0.23915 0.72323 0.61049 0.0
H228 H 0.2529 0.61787 0.70296 0.0
H229 H 0.18114 0.55642 0.71197 0.0
H230 H 0.1612 0.64851 0.70323 0.0
C231 C 0.32164 0.78574 0.68951 0.0
C232 C 0.35808 0.79494 0.68839 0.0
C233 C 0.35797 0.75963 0.69136 0.0
C234 C 0.32235 0.716 0.6948 0.0
C235 C 0.28702 0.7081 0.6951 0.0
C236 C 0.28633 0.74192 0.69277 0.0
C237 C 0.24424 0.72434 0.69403 0.0
C238 C 0.23761 0.74156 0.74141 0.0
C239 C 0.234 0.73556 0.64449 0.0
C240 C 0.22146 0.67539 0.69769 0.0
C241 C 0.24673 0.66677 0.69811 0.0
C242 C 0.23278 0.62417 0.70249 0.0
C243 C 0.19192 0.58946 0.70752 0.0
C244 C 0.16541 0.59753 0.70809 0.0
C245 C 0.18053 0.64111 0.70233 0.0
H246 H 0.53339 0.95141 0.82533 0.0
H247 H 0.49154 1.00349 0.73306 0.0
H248 H 0.50514 0.05199 0.80421 0.0
H249 H 0.49373 0.94989 0.94303 0.0
H250 H 0.53542 0.96634 0.98058 0.0
H251 H 0.52332 0.93685 0.92145 0.0
H252 H 0.59467 0.99959 0.88908 0.0
H253 H 0.60675 0.02959 0.94795 0.0
H254 H 0.61349 0.05524 0.88764 0.0
H255 H 0.51964 0.09175 0.88736 0.0
H256 H 0.53175 0.11727 0.97719 0.0
H257 H 0.56784 0.04235 0.01215 0.0
C258 C 0.52702 0.97295 0.82009 0.0
C259 C 0.51087 0.97315 0.7739 0.0
C260 C 0.50331 1.00215 0.76838 0.0
C261 C 0.51131 0.03022 0.80841 0.0
C262 C 0.52744 0.02938 0.85337 0.0
C263 C 0.53528 1.00156 0.85937 0.0
C264 C 0.5516 0.00614 0.91198 0.0
C265 C 0.52438 0.96221 0.94096 0.0
C266 C 0.59416 0.0237 0.90895 0.0
C267 C 0.55069 0.04001 0.93502 0.0
C268 C 0.53697 0.05333 0.90061 0.0
C269 C 0.53095 0.08206 0.91455 0.0
C270 C 0.53798 0.09647 0.96558 0.0
C271 C 0.55087 0.08199 0.00175 0.0
C272 C 0.55845 0.05456 -0.01448 0.0
H273 H 0.50744 0.49242 0.43275 0.0
H274 H 0.576 0.45483 0.47205 0.0
H275 H 0.54359 0.42943 0.55628 0.0
H276 H 0.52013 0.54083 0.54451 0.0
H277 H 0.47181 0.52447 0.54887 0.0
H278 H 0.49164 0.52831 0.48743 0.0
H279 H 0.42969 0.4473 0.4676 0.0
H280 H 0.40951 0.44322 0.52926 0.0
H281 H 0.41542 0.4045 0.51126 0.0
H282 H 0.5161 0.42362 0.64013 0.0
H283 H 0.49674 0.43953 0.71851 0.0
H284 H 0.4452 0.48059 0.62714 0.0
C285 C 0.51436 0.47714 0.45835 0.0
C286 C 0.54387 0.47512 0.44587 0.0
C287 C 0.55327 0.45639 0.48085 0.0
C288 C 0.53479 0.44159 0.52862 0.0
C289 C 0.50692 0.44566 0.5407 0.0
C290 C 0.49652 0.46276 0.50647 0.0
C291 C 0.47078 0.47024 0.53164 0.0
C292 C 0.48975 0.51883 0.5279 0.0
C293 C 0.42885 0.43947 0.50856 0.0
C294 C 0.47058 0.45751 0.58617 0.0
C295 C 0.49068 0.44223 0.59016 0.0
C296 C 0.4992 0.43411 0.63736 0.0
C297 C 0.48817 0.44327 0.68164 0.0
C298 C 0.46873 0.46016 0.67838 0.0
C299 C 0.45863 0.46598 0.63021 0.0
H300 H 0.04038 0.47868 0.94452 0.0
H301 H 0.09472 0.60482 0.87571 0.0
H302 H 0.08952 0.63136 0.95728 0.0
H303 H 0.9697 0.46862 0.00948 0.0
H304 H 0.96988 0.44407 0.06689 0.0
H305 H 0.98561 0.4374 0.00744 0.0
H306 H 0.05308 0.47038 0.04775 0.0
H307 H 0.03727 0.47636 0.10787 0.0
H308 H 0.0827 0.52336 0.07905 0.0
H309 H 0.06587 0.63873 0.0375 0.0
H310 H 0.03261 0.63001 0.11797 0.0
H311 H 0.99507 0.50041 0.13784 0.0
C312 C 0.05286 0.51251 0.94757 0.0
C313 C 0.06823 0.53992 0.90422 0.0
C314 C 0.08301 0.5835 0.90875 0.0
C315 C 0.08023 0.59887 0.95489 0.0
C316 C 0.06286 0.57034 -0.00375 0.0
C317 C 0.05014 0.52839 -0.0064 0.0
C318 C 0.02879 0.50303 0.04216 0.0
C319 C 0.98597 0.46081 0.03077 0.0
C320 C 0.05185 0.49268 0.07092 0.0
C321 C 0.02982 0.5365 0.07109 0.0
C322 C 0.04985 0.57517 0.04395 0.0
C323 C 0.05113 0.60917 0.05994 0.0
C324 C 0.03183 0.60376 0.10529 0.0
C325 C 0.01189 0.56487 0.13422 0.0
C326 C 0.01108 0.53096 0.11709 0.0
H327 H 0.47733 0.05851 0.32595 0.0
H328 H 0.51769 1.00509 0.23276 0.0
H329 H 0.50384 0.95643 0.30326 0.0
H330 H 0.51709 0.05966 0.44338 0.0
H331 H 0.47575 0.04376 0.48092 0.0
H332 H 0.48778 0.07316 0.42213 0.0
H333 H 0.41615 0.01082 0.38927 0.0
H334 H 0.40412 0.98092 0.44781 0.0
H335 H 0.39685 0.95497 0.3872 0.0
H336 H 0.48952 0.91687 0.38597 0.0
H337 H 0.47776 0.89164 0.47555 0.0
H338 H 0.44297 0.96773 0.51168 0.0
C339 C 0.48329 0.03663 0.32036 0.0
C340 C 0.49914 0.03612 0.27413 0.0
C341 C 0.50617 0.00667 0.26814 0.0
C342 C 0.49802 0.97851 0.30779 0.0
C343 C 0.48225 0.9797 0.35283 0.0
C344 C 0.47487 0.00791 0.35926 0.0
C345 C 0.4589 1.00367 0.41188 0.0
C346 C 0.48654 0.04766 0.4413 0.0
C347 C 0.41648 0.98657 0.40883 0.0
C348 C 0.45952 0.96958 0.43446 0.0
C349 C 0.47278 0.95584 0.3998 0.0
C350 C 0.47856 0.92687 0.41335 0.0
C351 C 0.47174 0.91265 0.46424 0.0
C352 C 0.4593 0.92751 0.50065 0.0
C353 C 0.45197 0.9552 0.48483 0.0
H354 H 0.43559 0.51479 -0.00771 0.0
H355 H 0.54159 0.57696 0.90234 0.0
H356 H 0.58063 0.5981 0.98117 0.0
H357 H 0.48532 0.59177 0.10697 0.0
H358 H 0.45297 0.54662 0.15026 0.0
H359 H 0.43531 0.54559 0.08773 0.0
H360 H 0.41584 0.47015 0.06938 0.0
H361 H 0.43373 0.47112 0.13135 0.0
H362 H 0.45292 0.46506 0.07491 0.0
H363 H 0.60579 0.60128 0.06808 0.0
H364 H 0.61449 0.58552 0.15545 0.0
H365 H 0.49182 0.52 0.18852 0.0
C366 C 0.4673 0.53444 -0.01071 0.0
C367 C 0.48557 0.54447 0.94116 0.0
C368 C 0.5269 0.56892 0.93869 0.0
C369 C 0.54944 0.58134 0.9834 0.0
C370 C 0.53021 0.56918 0.0303 0.0
C371 C 0.49008 0.54657 0.03357 0.0
C372 C 0.47544 0.53205 0.08781 0.0
C373 C 0.46144 0.55542 0.10947 0.0
C374 C 0.44257 0.48163 0.091 0.0
C375 C 0.5131 0.548 0.11392 0.0
C376 C 0.5446 0.57025 0.08047 0.0
C377 C 0.58155 0.58472 0.09494 0.0
C378 C 0.5862 0.57552 0.14462 0.0
C379 C 0.55387 0.5515 0.1789 0.0
C380 C 0.51723 0.53864 0.16344 0.0
H381 H 0.02927 0.4338 0.58894 0.0
H382 H 0.96849 0.46164 0.6844 0.0
H383 H 0.94222 0.47015 0.60759 0.0
H384 H 0.05951 0.51171 0.49537 0.0
H385 H 0.05238 0.47873 0.44187 0.0
H386 H 0.06296 0.46986 0.50426 0.0
H387 H 0.99919 0.38763 0.49972 0.0
H388 H 0.98848 0.39622 0.43709 0.0
H389 H 0.95224 0.37325 0.48721 0.0
H390 H 0.92825 0.48331 0.52143 0.0
H391 H 0.92596 0.49813 0.43062 0.0
H392 H 0.99446 0.4603 0.3907 0.0
C393 C 0.00977 0.44076 0.5936 0.0
C394 C 1.00106 0.44725 0.64255 0.0
C395 C 0.97584 0.45691 0.64719 0.0
C396 C 0.96056 0.46157 0.60382 0.0
C397 C 0.97047 0.45609 0.55605 0.0
C398 C 0.9942 0.44555 0.55058 0.0
C399 C 1.00227 0.44418 0.49475 0.0
C400 C 0.04692 0.47815 0.48342 0.0
C401 C 0.98447 0.39754 0.47876 0.0
C402 C 0.98029 0.45679 0.46999 0.0
C403 C 0.96192 0.4632 0.50601 0.0
C404 C 0.94197 0.47775 0.49269 0.0
C405 C 0.94097 0.48625 0.44108 0.0
C406 C 0.95979 0.48012 0.40352 0.0
C407 C 0.97923 0.46465 0.41834 0.0
loop_
_geom_bond_atom_site_label_1
_geom_bond_atom_site_label_2
_geom_bond_distance
_geom_bond_site_symmetry_2
_ccdc_geom_bond_type
Mg0 O1 2.028 . S
Mg0 O7 1.986 . S
Mg0 O9 2.114 . S
Mg0 O10 2.251 . S
Mg0 O13 2.010 . S
O1 Mg0 2.028 . S
O1 C4 1.250 . S
O2 Mg3 2.028 . S
O2 C4 1.248 . S
Mg3 O2 2.028 . S
Mg3 O8 2.032 . S
Mg3 O10 2.079 . S
C4 O1 1.250 . S
C4 O2 1.248 . S
C5 O6 1.264 . S
C5 O13 1.249 . S
O6 C5 1.264 . S
O7 Mg0 1.986 . S
O7 C11 1.246 . S
O8 Mg3 2.032 . S
O8 C11 1.259 . S
O9 Mg0 2.114 . S
O9 C12 1.252 . S
O10 Mg0 2.251 . S
O10 Mg3 2.079 . S
O10 C12 1.273 . S
C11 O7 1.246 . S
C11 O8 1.259 . S
C12 O9 1.252 . S
C12 O10 1.273 . S
O13 Mg0 2.010 . S
O13 C5 1.249 . S
Mg14 O15 2.028 . S
Mg14 O21 1.986 . S
Mg14 O23 2.114 . S
Mg14 O24 2.251 . S
Mg14 O27 2.010 . S
O15 Mg14 2.028 . S
O15 C18 1.250 . S
O16 Mg17 2.028 . S
O16 C18 1.248 . S
Mg17 O16 2.028 . S
Mg17 O22 2.032 . S
Mg17 O24 2.079 . S
C18 O15 1.250 . S
C18 O16 1.248 . S
C19 O20 1.264 . S
C19 O27 1.249 . S
O20 C19 1.264 . S
O21 Mg14 1.986 . S
O21 C25 1.246 . S
O22 Mg17 2.032 . S
O22 C25 1.259 . S
O23 Mg14 2.114 . S
O23 C26 1.252 . S
O24 Mg14 2.251 . S
O24 Mg17 2.079 . S
O24 C26 1.273 . S
C25 O21 1.246 . S
C25 O22 1.259 . S
C26 O23 1.252 . S
C26 O24 1.273 . S
O27 Mg14 2.010 . S
O27 C19 1.249 . S
Mg28 O29 2.028 . S
Mg28 O35 1.986 . S
Mg28 O37 2.114 . S
Mg28 O38 2.251 . S
Mg28 O41 2.010 . S
O29 Mg28 2.028 . S
O29 C32 1.250 . S
O30 Mg31 2.028 . S
O30 C32 1.248 . S
Mg31 O30 2.028 . S
Mg31 O36 2.032 . S
Mg31 O38 2.079 . S
C32 O29 1.250 . S
C32 O30 1.248 . S
C33 O34 1.264 . S
C33 O41 1.249 . S
O34 C33 1.264 . S
O35 Mg28 1.986 . S
O35 C39 1.246 . S
O36 Mg31 2.032 . S
O36 C39 1.259 . S
O37 Mg28 2.114 . S
O37 C40 1.252 . S
O38 Mg28 2.251 . S
O38 Mg31 2.079 . S
O38 C40 1.273 . S
C39 O35 1.246 . S
C39 O36 1.259 . S
C40 O37 1.252 . S
C40 O38 1.273 . S
O41 Mg28 2.010 . S
O41 C33 1.249 . S
Mg42 O43 2.028 . S
Mg42 O49 1.986 . S
Mg42 O51 2.114 . S
Mg42 O52 2.251 . S
Mg42 O55 2.010 . S
O43 Mg42 2.028 . S
O43 C46 1.250 . S
O44 Mg45 2.028 . S
O44 C46 1.248 . S
Mg45 O44 2.028 . S
Mg45 O50 2.032 . S
Mg45 O52 2.079 . S
C46 O43 1.250 . S
C46 O44 1.248 . S
C47 O48 1.264 . S
C47 O55 1.249 . S
O48 C47 1.264 . S
O49 Mg42 1.986 . S
O49 C53 1.246 . S
O50 Mg45 2.032 . S
O50 C53 1.259 . S
O51 Mg42 2.114 . S
O51 C54 1.252 . S
O52 Mg42 2.251 . S
O52 Mg45 2.079 . S
O52 C54 1.273 . S
C53 O49 1.246 . S
C53 O50 1.259 . S
C54 O51 1.252 . S
C54 O52 1.273 . S
O55 Mg42 2.010 . S
O55 C47 1.249 . S
Mg56 O57 2.028 . S
Mg56 O63 1.986 . S
Mg56 O65 2.114 . S
Mg56 O66 2.251 . S
Mg56 O69 2.010 . S
O57 Mg56 2.028 . S
O57 C60 1.250 . S
O58 Mg59 2.028 . S
O58 C60 1.248 . S
Mg59 O58 2.028 . S
Mg59 O64 2.032 . S
Mg59 O66 2.079 . S
C60 O57 1.250 . S
C60 O58 1.248 . S
C61 O62 1.264 . S
C61 O69 1.249 . S
O62 C61 1.264 . S
O63 Mg56 1.986 . S
O63 C67 1.246 . S
O64 Mg59 2.032 . S
O64 C67 1.259 . S
O65 Mg56 2.114 . S
O65 C68 1.252 . S
O66 Mg56 2.251 . S
O66 Mg59 2.079 . S
O66 C68 1.273 . S
C67 O63 1.246 . S
C67 O64 1.259 . S
C68 O65 1.252 . S
C68 O66 1.273 . S
O69 Mg56 2.010 . S
O69 C61 1.249 . S
Mg70 O71 2.028 . S
Mg70 O77 1.986 . S
Mg70 O79 2.114 . S
Mg70 O80 2.251 . S
Mg70 O83 2.010 . S
O71 Mg70 2.028 . S
O71 C74 1.250 . S
O72 Mg73 2.028 . S
O72 C74 1.248 . S
Mg73 O72 2.028 . S
Mg73 O78 2.032 . S
Mg73 O80 2.079 . S
C74 O71 1.250 . S
C74 O72 1.248 . S
C75 O76 1.264 . S
C75 O83 1.249 . S
O76 C75 1.264 . S
O77 Mg70 1.986 . S
O77 C81 1.246 . S
O78 Mg73 2.032 . S
O78 C81 1.259 . S
O79 Mg70 2.114 . S
O79 C82 1.252 . S
O80 Mg70 2.251 . S
O80 Mg73 2.079 . S
O80 C82 1.273 . S
C81 O77 1.246 . S
C81 O78 1.259 . S
C82 O79 1.252 . S
C82 O80 1.273 . S
O83 Mg70 2.010 . S
O83 C75 1.249 . S
H84 C96 0.930 . S
H85 C98 0.930 . S
H86 C99 0.930 . S
H87 C103 0.959 . S
H88 C103 0.959 . S
H89 C103 0.961 . S
H90 C104 0.960 . S
H91 C104 0.961 . S
H92 C104 0.959 . S
H93 C107 0.929 . S
H94 C108 0.931 . S
H95 C110 0.930 . S
C96 H84 0.930 . S
C96 C97 1.399 . S
C96 C101 1.399 . S
C97 C96 1.399 . S
C97 C98 1.376 . S
C98 H85 0.930 . S
C98 C97 1.376 . S
C98 C99 1.388 . S
C99 H86 0.930 . S
C99 C98 1.388 . S
C99 C100 1.390 . S
C100 C99 1.390 . S
C100 C101 1.394 . S
C100 C106 1.465 . S
C101 C96 1.399 . S
C101 C100 1.394 . S
C101 C102 1.516 . S
C102 C101 1.516 . S
C102 C103 1.502 . S
C102 C104 1.561 . S
C102 C105 1.526 . S
C103 H87 0.959 . S
C103 H88 0.959 . S
C103 H89 0.961 . S
C103 C102 1.502 . S
C104 H90 0.960 . S
C104 H91 0.961 . S
C104 H92 0.959 . S
C104 C102 1.561 . S
C105 C102 1.526 . S
C105 C106 1.396 . S
C105 C110 1.390 . S
C106 C100 1.465 . S
C106 C105 1.396 . S
C106 C107 1.399 . S
C107 H93 0.929 . S
C107 C106 1.399 . S
C107 C108 1.385 . S
C108 H94 0.931 . S
C108 C107 1.385 . S
C108 C109 1.389 . S
C109 C108 1.389 . S
C109 C110 1.387 . S
C110 H95 0.930 . S
C110 C105 1.390 . S
C110 C109 1.387 . S
H111 C123 0.930 . S
H112 C125 0.930 . S
H113 C126 0.930 . S
H114 C130 0.959 . S
H115 C130 0.959 . S
H116 C130 0.961 . S
H117 C131 0.960 . S
H118 C131 0.961 . S
H119 C131 0.959 . S
H120 C134 0.929 . S
H121 C135 0.931 . S
H122 C137 0.930 . S
C123 H111 0.930 . S
C123 C124 1.399 . S
C123 C128 1.399 . S
C124 C123 1.399 . S
C124 C125 1.376 . S
C125 H112 0.930 . S
C125 C124 1.376 . S
C125 C126 1.388 . S
C126 H113 0.930 . S
C126 C125 1.388 . S
C126 C127 1.390 . S
C127 C126 1.390 . S
C127 C128 1.394 . S
C127 C133 1.465 . S
C128 C123 1.399 . S
C128 C127 1.394 . S
C128 C129 1.516 . S
C129 C128 1.516 . S
C129 C130 1.502 . S
C129 C131 1.561 . S
C129 C132 1.526 . S
C130 H114 0.959 . S
C130 H115 0.959 . S
C130 H116 0.961 . S
C130 C129 1.502 . S
C131 H117 0.960 . S
C131 H118 0.961 . S
C131 H119 0.959 . S
C131 C129 1.561 . S
C132 C129 1.526 . S
C132 C133 1.396 . S
C132 C137 1.390 . S
C133 C127 1.465 . S
C133 C132 1.396 . S
C133 C134 1.399 . S
C134 H120 0.929 . S
C134 C133 1.399 . S
C134 C135 1.385 . S
C135 H121 0.931 . S
C135 C134 1.385 . S
C135 C136 1.389 . S
C136 C135 1.389 . S
C136 C137 1.387 . S
C137 H122 0.930 . S
C137 C132 1.390 . S
C137 C136 1.387 . S
H138 C150 0.930 . S
H139 C152 0.930 . S
H140 C153 0.930 . S
H141 C157 0.959 . S
H142 C157 0.959 . S
H143 C157 0.961 . S
H144 C158 0.960 . S
H145 C158 0.961 . S
H146 C158 0.959 . S
H147 C161 0.929 . S
H148 C162 0.931 . S
H149 C164 0.930 . S
C150 H138 0.930 . S
C150 C151 1.399 . S
C150 C155 1.399 . S
C151 C150 1.399 . S
C151 C152 1.376 . S
C152 H139 0.930 . S
C152 C151 1.376 . S
C152 C153 1.388 . S
C153 H140 0.930 . S
C153 C152 1.388 . S
C153 C154 1.390 . S
C154 C153 1.390 . S
C154 C155 1.394 . S
C154 C160 1.465 . S
C155 C150 1.399 . S
C155 C154 1.394 . S
C155 C156 1.516 . S
C156 C155 1.516 . S
C156 C157 1.502 . S
C156 C158 1.561 . S
C156 C159 1.526 . S
C157 H141 0.959 . S
C157 H142 0.959 . S
C157 H143 0.961 . S
C157 C156 1.502 . S
C158 H144 0.960 . S
C158 H145 0.961 . S
C158 H146 0.959 . S
C158 C156 1.561 . S
C159 C156 1.526 . S
C159 C160 1.396 . S
C159 C164 1.390 . S
C160 C154 1.465 . S
C160 C159 1.396 . S
C160 C161 1.399 . S
C161 H147 0.929 . S
C161 C160 1.399 . S
C161 C162 1.385 . S
C162 H148 0.931 . S
C162 C161 1.385 . S
C162 C163 1.389 . S
C163 C162 1.389 . S
C163 C164 1.387 . S
C164 H149 0.930 . S
C164 C159 1.390 . S
C164 C163 1.387 . S
H165 C177 0.930 . S
H166 C179 0.930 . S
H167 C180 0.930 . S
H168 C184 0.959 . S
H169 C184 0.959 . S
H170 C184 0.961 . S
H171 C185 0.960 . S
H172 C185 0.961 . S
H173 C185 0.959 . S
H174 C188 0.929 . S
H175 C189 0.931 . S
H176 C191 0.930 . S
C177 H165 0.930 . S
C177 C178 1.399 . S
C177 C182 1.399 . S
C178 C177 1.399 . S
C178 C179 1.376 . S
C179 H166 0.930 . S
C179 C178 1.376 . S
C179 C180 1.388 . S
C180 H167 0.930 . S
C180 C179 1.388 . S
C180 C181 1.390 . S
C181 C180 1.390 . S
C181 C182 1.394 . S
C181 C187 1.465 . S
C182 C177 1.399 . S
C182 C181 1.394 . S
C182 C183 1.516 . S
C183 C182 1.516 . S
C183 C184 1.502 . S
C183 C185 1.561 . S
C183 C186 1.526 . S
C184 H168 0.959 . S
C184 H169 0.959 . S
C184 H170 0.961 . S
C184 C183 1.502 . S
C185 H171 0.960 . S
C185 H172 0.961 . S
C185 H173 0.959 . S
C185 C183 1.561 . S
C186 C183 1.526 . S
C186 C187 1.396 . S
C186 C191 1.390 . S
C187 C181 1.465 . S
C187 C186 1.396 . S
C187 C188 1.399 . S
C188 H174 0.929 . S
C188 C187 1.399 . S
C188 C189 1.385 . S
C189 H175 0.931 . S
C189 C188 1.385 . S
C189 C190 1.389 . S
C190 C189 1.389 . S
C190 C191 1.387 . S
C191 H176 0.930 . S
C191 C186 1.390 . S
C191 C190 1.387 . S
H192 C204 0.930 . S
H193 C206 0.930 . S
H194 C207 0.930 . S
H195 C211 0.959 . S
H196 C211 0.959 . S
H197 C211 0.961 . S
H198 C212 0.960 . S
H199 C212 0.961 . S
H200 C212 0.959 . S
H201 C215 0.929 . S
H202 C216 0.931 . S
H203 C218 0.930 . S
C204 H192 0.930 . S
C204 C205 1.399 . S
C204 C209 1.399 . S
C205 C204 1.399 . S
C205 C206 1.376 . S
C206 H193 0.930 . S
C206 C205 1.376 . S
C206 C207 1.388 . S
C207 H194 0.930 . S
C207 C206 1.388 . S
C207 C208 1.390 . S
C208 C207 1.390 . S
C208 C209 1.394 . S
C208 C214 1.465 . S
C209 C204 1.399 . S
C209 C208 1.394 . S
C209 C210 1.516 . S
C210 C209 1.516 . S
C210 C211 1.502 . S
C210 C212 1.561 . S
C210 C213 1.526 . S
C211 H195 0.959 . S
C211 H196 0.959 . S
C211 H197 0.961 . S
C211 C210 1.502 . S
C212 H198 0.960 . S
C212 H199 0.961 . S
C212 H200 0.959 . S
C212 C210 1.561 . S
C213 C210 1.526 . S
C213 C214 1.396 . S
C213 C218 1.390 . S
C214 C208 1.465 . S
C214 C213 1.396 . S
C214 C215 1.399 . S
C215 H201 0.929 . S
C215 C214 1.399 . S
C215 C216 1.385 . S
C216 H202 0.931 . S
C216 C215 1.385 . S
C216 C217 1.389 . S
C217 C216 1.389 . S
C217 C218 1.387 . S
C218 H203 0.930 . S
C218 C213 1.390 . S
C218 C217 1.387 . S
H219 C231 0.930 . S
H220 C233 0.930 . S
H221 C234 0.930 . S
H222 C238 0.959 . S
H223 C238 0.959 . S
H224 C238 0.961 . S
H225 C239 0.960 . S
H226 C239 0.961 . S
H227 C239 0.959 . S
H228 C242 0.929 . S
H229 C243 0.931 . S
H230 C245 0.930 . S
C231 H219 0.930 . S
C231 C232 1.399 . S
C231 C236 1.399 . S
C232 C231 1.399 . S
C232 C233 1.376 . S
C233 H220 0.930 . S
C233 C232 1.376 . S
C233 C234 1.388 . S
C234 H221 0.930 . S
C234 C233 1.388 . S
C234 C235 1.390 . S
C235 C234 1.390 . S
C235 C236 1.394 . S
C235 C241 1.465 . S
C236 C231 1.399 . S
C236 C235 1.394 . S
C236 C237 1.516 . S
C237 C236 1.516 . S
C237 C238 1.502 . S
C237 C239 1.561 . S
C237 C240 1.526 . S
C238 H222 0.959 . S
C238 H223 0.959 . S
C238 H224 0.961 . S
C238 C237 1.502 . S
C239 H225 0.960 . S
C239 H226 0.961 . S
C239 H227 0.959 . S
C239 C237 1.561 . S
C240 C237 1.526 . S
C240 C241 1.396 . S
C240 C245 1.390 . S
C241 C235 1.465 . S
C241 C240 1.396 . S
C241 C242 1.399 . S
C242 H228 0.929 . S
C242 C241 1.399 . S
C242 C243 1.385 . S
C243 H229 0.931 . S
C243 C242 1.385 . S
C243 C244 1.389 . S
C244 C243 1.389 . S
C244 C245 1.387 . S
C245 H230 0.930 . S
C245 C240 1.390 . S
C245 C244 1.387 . S
H246 C258 0.930 . S
H247 C260 0.930 . S
H248 C261 0.915 1_545 S
H249 C265 0.959 . S
H250 C265 0.959 . S
H251 C265 0.961 . S
H252 C266 0.960 1_565 S
H253 C266 0.961 . S
H254 C266 0.959 . S
H255 C269 0.929 1_556 S
H256 C270 0.931 . S
H257 C272 0.930 . S
C258 H246 0.930 . S
C258 C259 1.399 . S
C258 C263 1.399 . S
C259 C258 1.399 . S
C259 C260 1.376 . S
C260 H247 0.930 . S
C260 C259 1.376 . S
C260 C261 1.400 . S
C261 H248 0.915 1_565 S
C261 C260 1.400 . S
C261 C262 1.392 . S
C262 C261 1.392 . S
C262 C263 1.403 . S
C262 C268 1.460 1_566 S
C263 C258 1.399 . S
C263 C262 1.403 . S
C263 C264 1.516 1_556 S
C264 C263 1.516 1_554 S
C264 C265 1.502 . S
C264 C266 1.561 1_565 S
C264 C267 1.526 1_565 S
C265 H249 0.959 . S
C265 H250 0.959 . S
C265 H251 0.961 . S
C265 C264 1.502 . S
C266 H252 0.960 1_545 S
C266 H253 0.961 . S
C266 H254 0.959 . S
C266 C264 1.561 1_545 S
C267 C264 1.526 1_545 S
C267 C268 1.396 . S
C267 C272 1.390 . S
C268 C262 1.460 1_544 S
C268 C267 1.396 . S
C268 C269 1.399 . S
C269 H255 0.929 1_554 S
C269 C268 1.399 . S
C269 C270 1.385 . S
C270 H256 0.931 . S
C270 C269 1.385 . S
C270 C271 1.389 . S
C271 C270 1.389 . S
C271 C272 1.387 . S
C272 H257 0.930 . S
C272 C267 1.390 . S
C272 C271 1.387 . S
H273 C285 0.930 . S
H274 C287 0.930 . S
H275 C288 0.930 . S
H276 C292 0.959 . S
H277 C292 0.959 . S
H278 C292 0.961 . S
H279 C293 0.960 . S
H280 C293 0.961 . S
H281 C293 0.959 . S
H282 C296 0.929 . S
H283 C297 0.931 . S
H284 C299 0.930 . S
C285 H273 0.930 . S
C285 C286 1.399 . S
C285 C290 1.399 . S
C286 C285 1.399 . S
C286 C287 1.376 . S
C287 H274 0.930 . S
C287 C286 1.376 . S
C287 C288 1.388 . S
C288 H275 0.930 . S
C288 C287 1.388 . S
C288 C289 1.390 . S
C289 C288 1.390 . S
C289 C290 1.394 . S
C289 C295 1.465 . S
C290 C285 1.399 . S
C290 C289 1.394 . S
C290 C291 1.516 . S
C291 C290 1.516 . S
C291 C292 1.502 . S
C291 C293 1.561 . S
C291 C294 1.526 . S
C292 H276 0.959 . S
C292 H277 0.959 . S
C292 H278 0.961 . S
C292 C291 1.502 . S
C293 H279 0.960 . S
C293 H280 0.961 . S
C293 H281 0.959 . S
C293 C291 1.561 . S
C294 C291 1.526 . S
C294 C295 1.396 . S
C294 C299 1.390 . S
C295 C289 1.465 . S
C295 C294 1.396 . S
C295 C296 1.399 . S
C296 H282 0.929 . S
C296 C295 1.399 . S
C296 C297 1.385 . S
C297 H283 0.931 . S
C297 C296 1.385 . S
C297 C298 1.389 . S
C298 C297 1.389 . S
C298 C299 1.387 . S
C299 H284 0.930 . S
C299 C294 1.390 . S
C299 C298 1.387 . S
H300 C312 0.930 1_655 S
H301 C314 0.930 . S
H302 C315 0.930 . S
H303 C319 0.959 . S
H304 C319 0.959 1_554 S
H305 C319 0.961 . S
H306 C320 0.960 . S
H307 C320 0.961 . S
H308 C320 0.959 . S
H309 C323 0.929 . S
H310 C324 0.923 . S
H311 C326 0.930 . S
C312 H300 0.930 1_455 S
C312 C313 1.399 . S
C312 C317 1.399 1_455 S
C313 C312 1.399 . S
C313 C314 1.376 . S
C314 H301 0.930 . S
C314 C313 1.376 . S
C314 C315 1.388 . S
C315 H302 0.930 . S
C315 C314 1.388 . S
C315 C316 1.390 . S
C316 C315 1.390 . S
C316 C317 1.394 1_455 S
C316 C322 1.465 1_556 S
C317 C312 1.399 1_655 S
C317 C316 1.394 1_655 S
C317 C318 1.516 1_556 S
C318 C317 1.516 1_554 S
C318 C319 1.502 1_554 S
C318 C320 1.561 . S
C318 C321 1.526 . S
C319 H303 0.959 . S
C319 H304 0.959 1_556 S
C319 H305 0.961 . S
C319 C318 1.502 1_556 S
C320 H306 0.960 . S
C320 H307 0.961 . S
C320 H308 0.959 . S
C320 C318 1.561 . S
C321 C318 1.526 . S
C321 C322 1.396 1_655 S
C321 C326 1.390 . S
C322 C316 1.465 1_554 S
C322 C321 1.396 1_455 S
C322 C323 1.399 . S
C323 H309 0.929 . S
C323 C322 1.399 . S
C323 C324 1.407 . S
C324 H310 0.923 . S
C324 C323 1.407 . S
C324 C325 1.376 1_455 S
C325 C324 1.376 1_655 S
C325 C326 1.387 . S
C326 H311 0.930 . S
C326 C321 1.390 . S
C326 C325 1.387 . S
H327 C339 0.930 . S
H328 C341 0.928 . S
H329 C342 0.930 . S
H330 C346 0.959 . S
H331 C346 0.959 . S
H332 C346 0.961 . S
H333 C347 0.960 . S
H334 C347 0.961 . S
H335 C347 0.959 . S
H336 C350 0.929 . S
H337 C351 0.931 . S
H338 C353 0.930 1_545 S
C339 H327 0.930 . S
C339 C340 1.399 . S
C339 C344 1.399 . S
C340 C339 1.399 . S
C340 C341 1.376 . S
C341 H328 0.928 . S
C341 C340 1.376 . S
C341 C342 1.388 1_545 S
C342 H329 0.930 . S
C342 C341 1.388 1_565 S
C342 C343 1.390 . S
C343 C342 1.390 . S
C343 C344 1.394 1_565 S
C343 C349 1.465 . S
C344 C339 1.399 . S
C344 C343 1.394 1_545 S
C344 C345 1.516 . S
C345 C344 1.516 . S
C345 C346 1.502 . S
C345 C347 1.561 . S
C345 C348 1.526 . S
C346 H330 0.959 . S
C346 H331 0.959 . S
C346 H332 0.961 . S
C346 C345 1.502 . S
C347 H333 0.960 . S
C347 H334 0.961 . S
C347 H335 0.959 . S
C347 C345 1.561 . S
C348 C345 1.526 . S
C348 C349 1.396 1_545 S
C348 C353 1.390 1_545 S
C349 C343 1.465 . S
C349 C348 1.396 1_565 S
C349 C350 1.399 . S
C350 H336 0.929 . S
C350 C349 1.399 . S
C350 C351 1.385 . S
C351 H337 0.931 . S
C351 C350 1.385 . S
C351 C352 1.389 . S
C352 C351 1.389 . S
C352 C353 1.387 . S
C353 H338 0.930 1_565 S
C353 C348 1.390 1_565 S
C353 C352 1.387 . S
H354 C366 0.930 . S
H355 C368 0.930 . S
H356 C369 0.930 . S
H357 C373 0.959 . S
H358 C373 0.959 . S
H359 C373 0.961 . S
H360 C374 0.960 . S
H361 C374 0.961 1_554 S
H362 C374 0.959 . S
H363 C377 0.929 . S
H364 C378 0.931 . S
H365 C380 0.930 . S
C366 H354 0.930 . S
C366 C367 1.399 . S
C366 C371 1.399 . S
C367 C366 1.399 . S
C367 C368 1.376 . S
C368 H355 0.930 . S
C368 C367 1.376 . S
C368 C369 1.388 . S
C369 H356 0.930 . S
C369 C368 1.388 . S
C369 C370 1.390 . S
C370 C369 1.390 . S
C370 C371 1.394 . S
C370 C376 1.465 1_556 S
C371 C366 1.399 . S
C371 C370 1.394 . S
C371 C372 1.516 1_556 S
C372 C371 1.516 1_554 S
C372 C373 1.502 . S
C372 C374 1.561 1_554 S
C372 C375 1.526 . S
C373 H357 0.959 . S
C373 H358 0.959 . S
C373 H359 0.961 . S
C373 C372 1.502 . S
C374 H360 0.960 . S
C374 H361 0.961 1_556 S
C374 H362 0.959 . S
C374 C372 1.561 1_556 S
C375 C372 1.526 . S
C375 C376 1.396 . S
C375 C380 1.390 . S
C376 C370 1.465 1_554 S
C376 C375 1.396 . S
C376 C377 1.399 . S
C377 H363 0.929 . S
C377 C376 1.399 . S
C377 C378 1.385 . S
C378 H364 0.931 . S
C378 C377 1.385 . S
C378 C379 1.389 . S
C379 C378 1.389 . S
C379 C380 1.387 . S
C380 H365 0.930 . S
C380 C375 1.390 . S
C380 C379 1.387 . S
H381 C393 0.930 . S
H382 C395 0.930 . S
H383 C396 0.930 . S
H384 C400 0.959 . S
H385 C400 0.959 1_655 S
H386 C400 0.961 . S
H387 C401 0.960 . S
H388 C401 0.961 . S
H389 C401 0.959 . S
H390 C404 0.929 . S
H391 C405 0.931 . S
H392 C407 0.930 . S
C393 H381 0.930 . S
C393 C394 1.399 . S
C393 C398 1.399 . S
C394 C393 1.399 . S
C394 C395 1.376 . S
C395 H382 0.930 . S
C395 C394 1.376 . S
C395 C396 1.388 . S
C396 H383 0.930 . S
C396 C395 1.388 . S
C396 C397 1.390 . S
C397 C396 1.390 . S
C397 C398 1.394 . S
C397 C403 1.465 1_455 S
C398 C393 1.399 . S
C398 C397 1.394 . S
C398 C399 1.516 1_455 S
C399 C398 1.516 1_655 S
C399 C400 1.502 1_655 S
C399 C401 1.561 . S
C399 C402 1.526 . S
C400 H384 0.959 . S
C400 H385 0.959 1_455 S
C400 H386 0.961 . S
C400 C399 1.502 1_455 S
C401 H387 0.960 . S
C401 H388 0.961 . S
C401 H389 0.959 . S
C401 C399 1.561 . S
C402 C399 1.526 . S
C402 C403 1.396 . S
C402 C407 1.390 . S
C403 C397 1.465 1_655 S
C403 C402 1.396 . S
C403 C404 1.399 . S
C404 H390 0.929 . S
C404 C403 1.399 . S
C404 C405 1.385 . S
C405 H391 0.931 . S
C405 C404 1.385 . S
C405 C406 1.389 . S
C406 C405 1.389 . S
C406 C407 1.387 . S
C407 H392 0.930 . S
C407 C402 1.390 . S
C407 C406 1.387 . S
C97 C5 1.034 . S
C109 C60 1.029 . S
C124 C19 1.086 . S
C136 C75 1.065 . S
C151 C4 1.036 . S
C163 C32 1.043 . S
C178 C47 1.048 . S
C190 C18 1.038 . S
C205 C61 1.056 . S
C217 C33 1.073 . S
C232 C46 1.059 . S
C244 C74 1.054 . S
C259 C54 1.414 . S
C271 C11 1.404 . S
C286 C68 1.421 . S
C298 C25 1.425 . S
C313 C81 1.367 . S
C325 C40 1.441 . S
C340 C12 1.424 . S
C352 C53 1.354 . S
C367 C26 1.427 . S
C379 C67 1.429 . S
C394 C82 1.422 . S
C406 C39 1.422 . S
