# Generated by pormake.
# Topology ttw, (5)-cn, num edge types: 1
# Building blocks:
#     Node 0, Type 0, BuildingBlock: XOMCOT_clean_sbu_1, # of connection points: 5
#     Node 1, Type 0, BuildingBlock: XOMCOT_clean_sbu_1, # of connection points: 5
#     Node 2, Type 0, BuildingBlock: XOMCOT_clean_sbu_1, # of connection points: 5
#     Node 3, Type 0, BuildingBlock: XOMCOT_clean_sbu_1, # of connection points: 5
#     Node 4, Type 0, BuildingBlock: XOMCOT_clean_sbu_1, # of connection points: 5
#     Node 5, Type 0, BuildingBlock: XOMCOT_clean_sbu_1, # of connection points: 5
#     Edge 6, Type (0, 0), BuildingBlock: FUNLAD_clean_linker_0, # of connection points: 2
#     Edge 7, Type (0, 0), BuildingBlock: FUNLAD_clean_linker_0, # of connection points: 2
#     Edge 8, Type (0, 0), BuildingBlock: FUNLAD_clean_linker_0, # of connection points: 2
#     Edge 9, Type (0, 0), BuildingBlock: FUNLAD_clean_linker_0, # of connection points: 2
#     Edge 10, Type (0, 0), BuildingBlock: FUNLAD_clean_linker_0, # of connection points: 2
#     Edge 11, Type (0, 0), BuildingBlock: FUNLAD_clean_linker_0, # of connection points: 2
#     Edge 12, Type (0, 0), BuildingBlock: FUNLAD_clean_linker_0, # of connection points: 2
#     Edge 13, Type (0, 0), BuildingBlock: FUNLAD_clean_linker_0, # of connection points: 2
#     Edge 14, Type (0, 0), BuildingBlock: FUNLAD_clean_linker_0, # of connection points: 2
#     Edge 15, Type (0, 0), BuildingBlock: FUNLAD_clean_linker_0, # of connection points: 2
#     Edge 16, Type (0, 0), BuildingBlock: FUNLAD_clean_linker_0, # of connection points: 2
#     Edge 17, Type (0, 0), BuildingBlock: FUNLAD_clean_linker_0, # of connection points: 2
#     Edge 18, Type (0, 0), BuildingBlock: FUNLAD_clean_linker_0, # of connection points: 2
#     Edge 19, Type (0, 0), BuildingBlock: FUNLAD_clean_linker_0, # of connection points: 2
#     Edge 20, Type (0, 0), BuildingBlock: FUNLAD_clean_linker_0, # of connection points: 2
# Relax obj value: 0.325
# Max RMSD: 0.296
# Mean RMSD: 0.266
data_MOF--net-ttw--node1-XOMCOT_clean_sbu_1--edge1-FUNLAD_clean_linker_0
_symmetry_space_group_name_H-M    P1
_symmetry_Int_Tables_number       1
_symmetry_cell_setting            triclinic
loop_
_symmetry_equiv_pos_as_xyz
'x, y, z'
_cell_length_a     63.070957
_cell_length_b     63.688516
_cell_length_c     20.055176
_cell_angle_alpha  94.35824
_cell_angle_beta   94.532135
_cell_angle_gamma 120.65304
loop_
_atom_site_label
_atom_site_type_symbol
_atom_site_fract_x
_atom_site_fract_y
_atom_site_fract_z
_atom_type_partial_charge
C0 C 0.14139 0.54065 0.97255 0.0
C1 C 0.13608 0.53692 0.90362 0.0
N2 N 0.13977 0.55801 0.88303 0.0
N3 N 0.14892 0.56415 0.99621 0.0
C4 C 0.14678 0.57398 0.94029 0.0
H5 H 0.13927 0.5267 1.0033 0.0
Co6 Co 0.15799 0.57668 0.08886 0.0
C7 C 0.18865 0.62564 0.0324 0.0
O8 O 0.19654 0.61786 0.98301 0.0
N9 N 0.16623 0.58825 0.18059 0.0
C10 C 0.18432 0.61112 0.2803 0.0
C11 C 0.18575 0.60975 0.21232 0.0
C12 C 0.15325 0.57683 0.23024 0.0
N13 N 0.16381 0.59042 0.29167 0.0
O14 O 0.12823 0.57774 0.08909 0.0
H15 H 0.20018 0.62368 0.18797 0.0
H16 H 0.13616 0.55905 0.22108 0.0
O17 O 0.17481 0.61066 0.07067 0.0
C18 C 0.10723 0.55777 0.08209 0.0
O19 O 0.10626 0.53664 0.07337 0.0
N20 N 0.18693 0.57454 0.09066 0.0
C21 C 0.22504 0.56447 0.08428 0.0
C22 C 0.23013 0.58868 0.0869 0.0
C23 C 0.21086 0.59338 0.09082 0.0
C24 C 0.18224 0.55133 0.09502 0.0
C25 C 0.20083 0.54572 0.09011 0.0
H26 H 0.21557 0.61222 0.0947 0.0
H27 H 0.16379 0.53692 0.10154 0.0
H28 H 0.15024 0.59244 0.9412 0.0
H29 H 0.12976 0.51986 0.87129 0.0
H30 H 0.19766 0.62608 0.31843 0.0
H31 H 0.24874 0.60383 0.08441 0.0
H32 H 0.19633 0.52691 0.09106 0.0
C33 C 0.5737 0.07324 0.79314 0.0
C34 C 0.57142 0.06702 0.72479 0.0
N35 N 0.55293 0.06915 0.69427 0.0
N36 N 0.55703 0.07971 0.80652 0.0
C37 C 0.54412 0.07635 0.74525 0.0
H38 H 0.58718 0.07365 0.83091 0.0
Co39 Co 0.55573 0.09044 0.89565 0.0
C40 C 0.54441 0.12636 0.82439 0.0
O41 O 0.54943 0.12434 0.76277 0.0
N42 N 0.5545 0.10061 0.98561 0.0
C43 C 0.5595 0.12494 0.0785 0.0
C44 C 0.5625 0.12402 1.01157 0.0
C45 C 0.547 0.08764 0.03847 0.0
N46 N 0.54971 0.10208 0.09579 0.0
O47 O 0.52126 0.06663 0.88675 0.0
H48 H 0.57066 0.13966 0.98397 0.0
H49 H 0.53973 0.06804 0.03495 0.0
O50 O 0.54722 0.11409 0.86798 0.0
C51 C 0.51297 0.04375 0.88532 0.0
O52 O 0.52862 0.03591 0.88485 0.0
N53 N 0.59005 0.11417 0.90602 0.0
C54 C 0.63924 0.15306 0.93631 0.0
C55 C 0.62449 0.15082 0.87698 0.0
C56 C 0.60001 0.13114 0.86256 0.0
C57 C 0.60478 0.11467 0.9605 0.0
C58 C 0.62939 0.1342 0.9772 0.0
H59 H 0.58895 0.1299 0.81712 0.0
H60 H 0.59704 0.10054 0.99316 0.0
H61 H 0.52847 0.07893 0.73805 0.0
H62 H 0.5832 0.06223 0.69939 0.0
H63 H 0.56489 0.14143 0.11242 0.0
H64 H 0.63132 0.16479 0.84354 0.0
H65 H 0.64035 0.13489 0.02262 0.0
C66 C 0.49777 0.61844 0.01871 0.0
C67 C 0.50209 0.61662 0.95312 0.0
N68 N 0.48682 0.59314 0.92418 0.0
N69 N 0.47946 0.59634 0.03132 0.0
C70 C 0.47377 0.58109 0.97325 0.0
H71 H 0.5073 0.635 0.05492 0.0
Co72 Co 0.46835 0.59063 0.11631 0.0
C73 C 0.41698 0.56373 0.02538 0.0
O74 O 0.42426 0.56825 0.9659 0.0
N75 N 0.45807 0.58526 0.20184 0.0
C76 C 0.4372 0.58194 0.28855 0.0
C77 C 0.43831 0.58557 0.22204 0.0
C78 C 0.46893 0.58178 0.25741 0.0
N79 N 0.45647 0.57955 0.31098 0.0
O80 O 0.47013 0.56157 0.11146 0.0
H81 H 0.42601 0.58919 0.19109 0.0
H82 H 0.4858 0.5812 0.25873 0.0
O83 O 0.43303 0.57169 0.07835 0.0
C84 C 0.49246 0.56648 0.12249 0.0
O85 O 0.51059 0.58969 0.13305 0.0
N86 N 0.468 0.62 0.12353 0.0
C87 C 0.46955 0.66453 0.14264 0.0
C88 C 0.45532 0.64724 0.08567 0.0
C89 C 0.45483 0.62507 0.07693 0.0
C90 C 0.48283 0.63708 0.17765 0.0
C91 C 0.48361 0.65937 0.18875 0.0
H92 H 0.44423 0.61227 0.03211 0.0
H93 H 0.49393 0.63326 0.21286 0.0
H94 H 0.46033 0.56151 0.96705 0.0
H95 H 0.51491 0.63166 0.92804 0.0
H96 H 0.42381 0.58213 0.31883 0.0
H97 H 0.44431 0.65063 0.04871 0.0
H98 H 0.49519 0.67249 0.23273 0.0
C99 C 0.85635 0.42171 0.22515 0.0
C100 C 0.85399 0.41974 0.29219 0.0
N101 N 0.85268 0.43898 0.31939 0.0
N102 N 0.85626 0.44196 0.21013 0.0
C103 C 0.85417 0.45219 0.26866 0.0
H104 H 0.85855 0.40945 0.19002 0.0
Co105 Co 0.85974 0.45357 0.12741 0.0
C106 C 0.82039 0.46554 0.10337 0.0
O107 O 0.81753 0.45777 0.03886 0.0
N108 N 0.864 0.46599 0.04404 0.0
C109 C 0.87197 0.49269 0.97019 0.0
C110 C 0.87111 0.48956 0.03708 0.0
C111 C 0.86119 0.45536 0.98044 0.0
N112 N 0.86558 0.47107 0.93458 0.0
O113 O 0.88784 0.48475 0.1682 0.0
H114 H 0.87465 0.50351 0.07797 0.0
H115 H 0.85607 0.43654 0.96717 0.0
O116 O 0.83664 0.46496 0.14452 0.0
C117 C 0.90735 0.48466 0.18967 0.0
O118 O 0.90617 0.46348 0.19 0.0
N119 N 0.83358 0.42204 0.08792 0.0
C120 C 0.80048 0.37182 0.0459 0.0
C121 C 0.79266 0.38618 0.08003 0.0
C122 C 0.8096 0.41117 0.10171 0.0
C123 C 0.84161 0.40808 0.05691 0.0
C124 C 0.82529 0.38312 0.03402 0.0
H125 H 0.80363 0.42113 0.13312 0.0
H126 H 0.86116 0.41625 0.05223 0.0
H127 H 0.85397 0.46912 0.27402 0.0
H128 H 0.8541 0.40574 0.31937 0.0
H129 H 0.87618 0.50937 0.94938 0.0
H130 H 0.77378 0.37803 0.09164 0.0
H131 H 0.83235 0.37251 1.01022 0.0
C132 C 0.41834 0.89415 0.3397 0.0
C133 C 0.42029 0.90057 0.40767 0.0
N134 N 0.39879 0.89857 0.42085 0.0
N135 N 0.39556 0.88767 0.30952 0.0
C136 C 0.38428 0.89126 0.36021 0.0
H137 H 0.4326 0.89385 0.31375 0.0
Co138 Co 0.38672 0.87782 0.21569 0.0
C139 C 0.3356 0.84021 0.25827 0.0
O140 O 0.34061 0.84366 0.32432 0.0
N141 N 0.37878 0.86866 0.12193 0.0
C142 C 0.36224 0.84648 0.02068 0.0
C143 C 0.36413 0.8456 0.08897 0.0
C144 C 0.38599 0.88322 0.07249 0.0
N145 N 0.37591 0.87019 1.01018 0.0
O146 O 0.37714 0.9016 0.20652 0.0
H147 H 0.3555 0.8291 0.11309 0.0
H148 H 0.39821 0.90302 0.08218 0.0
O149 O 0.35252 0.85271 0.22248 0.0
C150 C 0.39363 0.92442 0.21925 0.0
O151 O 0.41553 0.931 0.25136 0.0
N152 N 0.39699 0.85499 0.22237 0.0
C153 C 0.41374 0.82208 0.22617 0.0
C154 C 0.3963 0.82089 0.26745 0.0
C155 C 0.38819 0.83751 0.26482 0.0
C156 C 0.41483 0.85724 0.18426 0.0
C157 C 0.42322 0.84076 0.18464 0.0
H158 H 0.37529 0.83664 0.29815 0.0
H159 H 0.42235 0.87171 0.15255 0.0
H160 H 0.36596 0.88884 0.35294 0.0
H161 H 0.436 0.90541 0.44492 0.0
H162 H 0.35196 0.83077 0.98175 0.0
H163 H 0.38912 0.8074 0.30218 0.0
H164 H 0.43667 0.84245 0.15177 0.0
C165 C 0.52808 0.36676 0.08788 0.0
C166 C 0.52446 0.36652 0.01928 0.0
N167 N 0.54671 0.38098 0.9989 0.0
N168 N 0.5525 0.38132 0.11111 0.0
C169 C 0.56343 0.38989 0.05571 0.0
H170 H 0.51391 0.35618 0.11862 0.0
Co171 Co 0.56544 0.38347 0.20005 0.0
C172 C 0.61677 0.42564 0.21301 0.0
O173 O 0.61323 0.43568 0.26739 0.0
N174 N 0.57792 0.38489 0.28972 0.0
C175 C 0.59977 0.38184 0.37706 0.0
C176 C 0.59761 0.38262 0.30874 0.0
C177 C 0.56845 0.38553 0.34769 0.0
N178 N 0.58144 0.38367 0.40156 0.0
O179 O 0.56216 0.41109 0.22379 0.0
H180 H 0.60925 0.38088 0.27464 0.0
H181 H 0.55173 0.38619 0.35005 0.0
O182 O 0.59902 0.4052 0.18131 0.0
C183 C 0.54086 0.40665 0.23601 0.0
O184 O 0.52342 0.38378 0.23919 0.0
N185 N 0.56702 0.35554 0.17488 0.0
C186 C 0.56055 0.31042 0.12394 0.0
C187 C 0.57966 0.33249 0.10637 0.0
C188 C 0.58248 0.35486 0.13194 0.0
C189 C 0.54893 0.33443 0.1946 0.0
C190 C 0.54541 0.3116 0.16993 0.0
H191 H 0.59639 0.37138 0.1145 0.0
H192 H 0.5365 0.33528 0.22745 0.0
H193 H 0.58332 0.40131 0.05623 0.0
H194 H 0.50681 0.35609 0.98672 0.0
H195 H 0.61353 0.37966 0.40638 0.0
H196 H 0.59197 0.33246 0.07171 0.0
H197 H 0.53026 0.29501 0.1843 0.0
C198 C 0.06175 0.53902 0.04863 0.0
C199 C 0.08411 0.55801 0.08593 0.0
C200 C 0.03935 0.53781 0.05589 0.0
C201 C 0.03872 0.55508 0.10215 0.0
C202 C 0.06118 0.57458 0.13819 0.0
C203 C 0.08378 0.57618 0.12948 0.0
C204 C 0.01413 0.55116 0.11407 0.0
C205 C 0.00863 0.55381 0.17651 0.0
C206 C 0.98241 0.54113 0.18982 0.0
C207 C 0.9759 0.5267 0.24264 0.0
C208 C 0.95095 0.5096 0.24631 0.0
C209 C 0.93211 0.50724 0.19854 0.0
H210 H 0.96805 0.55158 0.105 0.0
C211 C 0.93844 0.52364 0.15036 0.0
C212 C 0.96348 0.54034 0.14558 0.0
H213 H 0.92425 0.52205 0.11262 0.0
H214 H 0.06155 0.5249 1.01434 0.0
H215 H 0.0223 0.52267 0.02741 0.0
H216 H 0.06125 0.58834 0.17353 0.0
H217 H 0.10083 0.59101 0.15879 0.0
H218 H -0.00092 0.54157 0.07223 0.0
H219 H 0.02313 0.5608 0.21955 0.0
H220 H 0.99016 0.52709 0.27751 0.0
H221 H 0.94648 0.49709 0.28381 0.0
C222 C 0.37745 0.93377 0.11506 0.0
C223 C 0.39175 0.94208 0.17931 0.0
C224 C 0.38297 0.94989 0.06672 0.0
C225 C 0.40239 0.9746 0.0828 0.0
C226 C 0.41382 0.9836 0.14991 0.0
C227 C 0.40875 0.9674 0.1977 0.0
C228 C 0.41427 0.99016 0.02996 0.0
C229 C 0.41917 0.98082 0.97468 0.0
C230 C 0.44057 0.99633 0.93925 0.0
C231 C 0.4546 0.9865 0.91636 0.0
C232 C 0.4776 0.00166 0.89513 0.0
C233 C 0.48689 0.02695 0.8957 0.0
H234 H 0.4382 0.02921 0.95023 0.0
C235 C 0.47186 0.03638 0.91305 0.0
C236 C 0.44891 0.02121 0.93472 0.0
H237 H 0.47835 0.05575 0.91323 0.0
H238 H 0.3639 0.9144 0.09971 0.0
H239 H 0.37338 0.94263 1.01565 0.0
H240 H 0.4286 0.00267 0.16374 0.0
H241 H 0.41976 0.97436 0.24719 0.0
H242 H 0.42425 0.00998 0.04456 0.0
H243 H 0.41097 0.96099 0.96415 0.0
H244 H 0.44858 0.96739 0.91919 0.0
H245 H 0.48858 0.99377 0.88135 0.0
C246 C 0.55143 0.44936 0.21925 0.0
C247 C 0.53447 0.426 0.23563 0.0
C248 C 0.54418 0.46647 0.21022 0.0
C249 C 0.51973 0.4605 0.21711 0.0
C250 C 0.50327 0.43769 0.23716 0.0
C251 C 0.51049 0.42056 0.24599 0.0
C252 C 0.51076 0.47753 0.20392 0.0
C253 C 0.52042 0.49442 0.16128 0.0
C254 C 0.51204 0.5119 0.14876 0.0
C255 C 0.5293 0.53491 0.13144 0.0
C256 C 0.52266 0.55235 0.12158 0.0
C257 C 0.49841 0.54699 0.12748 0.0
H258 H 0.47347 0.48831 0.16402 0.0
C259 C 0.48072 0.52358 0.14195 0.0
C260 C 0.48749 0.50618 0.15282 0.0
H261 H 0.46187 0.51896 0.14661 0.0
H262 H 0.57013 0.45422 0.21157 0.0
H263 H 0.55779 0.48426 0.19767 0.0
H264 H 0.48448 0.43277 0.24394 0.0
H265 H 0.497 0.40279 0.25915 0.0
H266 H 0.49533 0.47559 0.22903 0.0
H267 H 0.53575 0.4963 0.1359 0.0
H268 H 0.54822 0.53967 0.12713 0.0
H269 H 0.53666 0.57017 0.10988 0.0
C270 C 0.16299 0.60275 0.41103 0.0
C271 C 0.15555 0.58417 0.35633 0.0
C272 C 0.15664 0.59681 0.47504 0.0
C273 C 0.14241 0.57203 0.48593 0.0
C274 C 0.13439 0.55349 0.4308 0.0
C275 C 0.14081 0.55945 0.36676 0.0
C276 C 0.13734 0.56466 0.5544 0.0
C277 C 0.14062 0.58011 0.60951 0.0
C278 C 0.13882 0.57311 0.67898 0.0
C279 C 0.135 0.58683 0.72978 0.0
C280 C 0.13488 0.58172 0.79655 0.0
C281 C 0.13869 0.56281 0.81399 0.0
H282 H 0.14673 0.54385 0.66008 0.0
C283 C 0.1425 0.54912 0.76304 0.0
C284 C 0.14267 0.55423 0.69663 0.0
H285 H 0.14622 0.53491 0.77471 0.0
H286 H 0.17403 0.62199 0.40474 0.0
H287 H 0.1637 0.61178 0.51582 0.0
H288 H 0.12357 0.53424 0.43756 0.0
H289 H 0.13491 0.54465 0.32609 0.0
H290 H 0.13087 0.54553 0.55931 0.0
H291 H 0.14485 0.59864 0.60437 0.0
H292 H 0.13227 0.60168 0.71788 0.0
H293 H 0.13181 0.59258 0.83437 0.0
C294 C 0.54696 0.07662 0.187 0.0
C295 C 0.54455 0.09557 0.16282 0.0
C296 C 0.54456 0.07239 0.25469 0.0
C297 C 0.53947 0.08696 0.29963 0.0
C298 C 0.53619 0.10523 0.27426 0.0
C299 C 0.53862 0.10943 0.20713 0.0
C300 C 0.53885 0.08514 0.37376 0.0
C301 C 0.53831 0.06676 0.40467 0.0
C302 C 0.53986 0.06654 0.47971 0.0
C303 C 0.54724 0.05129 0.5076 0.0
C304 C 0.55058 0.05149 0.57755 0.0
C305 C 0.54644 0.06682 0.62201 0.0
H306 H 0.52802 0.09251 0.50516 0.0
C307 C 0.53782 0.08119 0.59426 0.0
C308 C 0.53456 0.08107 0.52403 0.0
H309 H 0.53443 0.09319 0.62687 0.0
H310 H 0.55171 0.06572 0.15442 0.0
H311 H 0.54756 0.05829 0.27162 0.0
H312 H 0.53213 0.11671 0.30696 0.0
H313 H 0.53617 0.12387 0.19012 0.0
H314 H 0.53958 0.10034 0.40435 0.0
H315 H 0.53788 0.05163 0.37461 0.0
H316 H 0.55112 0.03959 0.4752 0.0
H317 H 0.55678 0.03983 0.59691 0.0
C318 C 0.50291 0.59526 0.81479 0.0
C319 C 0.48327 0.58414 0.85344 0.0
C320 C 0.49882 0.58911 0.74459 0.0
C321 C 0.47481 0.57176 0.71099 0.0
C322 C 0.45552 0.55965 0.75024 0.0
C323 C 0.45967 0.56574 0.82055 0.0
C324 C 0.46865 0.56647 0.6357 0.0
C325 C 0.48373 0.58037 0.59243 0.0
C326 C 0.47599 0.57723 0.51827 0.0
C327 C 0.49443 0.58763 0.47565 0.0
C328 C 0.48806 0.58752 0.40701 0.0
C329 C 0.46306 0.57727 0.37955 0.0
H330 H 0.43604 0.55851 0.52091 0.0
C331 C 0.44456 0.56621 0.42167 0.0
C332 C 0.45089 0.56622 0.4901 0.0
H333 H 0.42511 0.55793 0.40198 0.0
H334 H 0.52144 0.60911 0.83882 0.0
H335 H 0.51456 0.59836 0.71748 0.0
H336 H 0.43688 0.54604 0.72622 0.0
H337 H 0.44411 0.55687 0.84867 0.0
H338 H 0.45023 0.55109 0.61556 0.0
H339 H 0.50241 0.59541 0.61142 0.0
H340 H 0.51392 0.59642 0.49587 0.0
H341 H 0.50278 0.59639 0.37623 0.0
C342 C 0.87536 0.48419 0.82247 0.0
C343 C 0.86272 0.46544 0.86234 0.0
C344 C 0.87236 0.47871 0.75238 0.0
C345 C 0.85662 0.45432 0.72083 0.0
C346 C 0.84426 0.43558 0.76059 0.0
C347 C 0.84709 0.44107 0.83049 0.0
C348 C 0.85345 0.44754 0.64701 0.0
C349 C 0.85517 0.46285 0.60218 0.0
C350 C 0.85277 0.45617 0.52836 0.0
C351 C 0.86406 0.47508 0.48819 0.0
C352 C 0.86353 0.46949 0.41916 0.0
C353 C 0.85163 0.44486 0.3891 0.0
H354 H 0.8298 0.41638 0.52574 0.0
C355 C 0.83942 0.42596 0.42863 0.0
C356 C 0.83978 0.43151 0.49742 0.0
H357 H 0.82956 0.40684 0.40623 0.0
H358 H 0.88789 0.50305 0.8454 0.0
H359 H 0.88286 0.49351 0.72345 0.0
H360 H 0.83213 0.41663 0.73741 0.0
H361 H 0.83671 0.42619 0.85925 0.0
H362 H 0.84934 0.42913 0.62973 0.0
H363 H 0.85933 0.48126 0.61999 0.0
H364 H 0.87393 0.49422 0.51059 0.0
H365 H 0.87315 0.48443 0.38985 0.0
C366 C 0.41055 0.91629 0.54126 0.0
C367 C 0.39213 0.90044 0.48735 0.0
C368 C 0.40524 0.91534 0.60776 0.0
C369 C 0.38133 0.89826 0.62214 0.0
C370 C 0.36254 0.88357 0.5677 0.0
C371 C 0.36785 0.88463 0.50107 0.0
C372 C 0.37536 0.8943 0.69251 0.0
C373 C 0.39265 0.90166 0.74738 0.0
C374 C 0.38672 0.89455 0.8158 0.0
C375 C 0.4048 0.90831 0.87231 0.0
C376 C 0.401 0.90089 0.93651 0.0
C377 C 0.37913 0.87921 0.9455 0.0
H378 H 0.35028 0.86171 0.78332 0.0
C379 C 0.36079 0.86578 0.88927 0.0
C380 C 0.36451 0.87327 0.8253 0.0
H381 H 0.34357 0.84918 0.89445 0.0
H382 H 0.42931 0.92908 0.53208 0.0
H383 H 0.42011 0.92782 0.64731 0.0
H384 H 0.34386 0.87043 0.57686 0.0
H385 H 0.35327 0.87213 0.46076 0.0
H386 H 0.3558 0.8836 0.69828 0.0
H387 H 0.41224 0.91267 0.74246 0.0
H388 H 0.4222 0.92461 0.86648 0.0
H389 H 0.41558 0.91162 0.97849 0.0
C390 C 0.56815 0.39655 0.50211 0.0
C391 C 0.57588 0.38168 0.47002 0.0
C392 C 0.56377 0.39507 0.5697 0.0
C393 C 0.56659 0.37832 0.60584 0.0
C394 C 0.57373 0.36312 0.57298 0.0
C395 C 0.57863 0.36499 0.50627 0.0
C396 C 0.56113 0.37525 0.67653 0.0
C397 C 0.56546 0.39385 0.72334 0.0
C398 C 0.56055 0.39023 0.79441 0.0
C399 C 0.57558 0.40941 0.84725 0.0
C400 C 0.57133 0.40634 0.91445 0.0
C401 C 0.55157 0.38419 0.93003 0.0
H402 H 0.52842 0.3531 0.77076 0.0
C403 C 0.53634 0.36516 0.87699 0.0
C404 C 0.54078 0.3681 0.81012 0.0
H405 H 0.52108 0.3478 0.88719 0.0
H406 H 0.56591 0.40955 0.47521 0.0
H407 H 0.55775 0.40667 0.5931 0.0
H408 H 0.57578 0.34987 0.59928 0.0
H409 H 0.58427 0.3531 0.48255 0.0
H410 H 0.55481 0.35716 0.69159 0.0
H411 H 0.57417 0.41248 0.71044 0.0
H412 H 0.59082 0.42673 0.83658 0.0
H413 H 0.58322 0.42141 0.9541 0.0
C414 C 0.26861 0.57325 0.11132 0.0
C415 C 0.24474 0.55877 0.07421 0.0
C416 C 0.28748 0.5686 0.09918 0.0
C417 C 0.2829 0.54946 0.04919 0.0
C418 C 0.25904 0.535 1.01224 0.0
C419 C 0.24007 0.53941 0.0251 0.0
C420 C 0.30314 0.54549 0.03114 0.0
C421 C 0.32252 0.55023 0.07637 0.0
C422 C 0.34452 0.54939 0.05809 0.0
C423 C 0.35226 0.55367 0.99398 0.0
C424 C 0.37513 0.55664 0.98188 0.0
C425 C 0.39081 0.55553 0.0336 0.0
H426 H 0.35396 0.54338 0.15809 0.0
C427 C 0.38225 0.54957 0.09608 0.0
C428 C 0.3595 0.5468 0.10837 0.0
H429 H 0.39356 0.54797 0.13647 0.0
H430 H 0.27273 0.58828 0.14947 0.0
H431 H 0.30582 0.58055 0.12743 0.0
H432 H 0.2551 0.52035 0.97295 0.0
H433 H 0.22192 0.52815 0.99515 0.0
H434 H 0.30178 0.53822 0.9792 0.0
H435 H 0.32247 0.55518 0.1294 0.0
H436 H 0.34151 0.55622 0.95417 0.0
H437 H 0.38111 0.56123 0.93312 0.0
C438 C 0.67956 0.1881 0.9105 0.0
C439 C 0.66368 0.17605 0.95796 0.0
C440 C 0.70048 0.21171 0.92884 0.0
C441 C 0.70583 0.22383 0.99507 0.0
C442 C 0.69096 0.21107 0.0435 0.0
C443 C 0.67004 0.18748 0.02517 0.0
C444 C 0.72587 0.25002 1.01508 0.0
C445 C 0.73427 0.26662 0.97118 0.0
C446 C 0.75169 0.29342 0.9924 0.0
C447 C 0.76676 0.30779 0.94643 0.0
C448 C 0.78263 0.33323 0.96369 0.0
C449 C 0.7834 0.34489 0.02696 0.0
H450 H 0.74049 0.29487 0.09169 0.0
C451 C 0.76811 0.33058 0.07272 0.0
C452 C 0.7524 0.30513 0.05568 0.0
H453 H 0.76845 0.33902 0.12207 0.0
H454 H 0.67548 0.1795 0.85868 0.0
H455 H 0.71209 0.22044 0.89067 0.0
H456 H 0.69481 0.21984 0.09507 0.0
H457 H 0.65814 0.1788 0.06293 0.0
H458 H 0.73258 0.2561 0.0686 0.0
H459 H 0.72782 0.26073 0.91755 0.0
H460 H 0.76631 0.29928 0.89702 0.0
H461 H 0.79406 0.34384 0.92721 0.0
C462 C 0.46547 0.69495 0.21829 0.0
C463 C 0.46911 0.6875 0.15467 0.0
C464 C 0.46301 0.71549 0.22839 0.0
C465 C 0.46425 0.729 0.17501 0.0
C466 C 0.46908 0.72225 0.11238 0.0
C467 C 0.47124 0.70153 0.10204 0.0
C468 C 0.45989 0.74975 0.18275 0.0
C469 C 0.4431 0.74949 0.22065 0.0
C470 C 0.43633 0.76859 0.22301 0.0
C471 C 0.41191 0.76178 0.23179 0.0
C472 C 0.4046 0.77909 0.23262 0.0
C473 C 0.42173 0.80379 0.22605 0.0
H474 H 0.47279 0.79926 0.21225 0.0
C475 C 0.44639 0.81071 0.21884 0.0
C476 C 0.45362 0.79329 0.21715 0.0
H477 H 0.46023 0.82966 0.21523 0.0
H478 H 0.46375 0.68445 0.25971 0.0
H479 H 0.45996 0.72064 0.27783 0.0
H480 H 0.47036 0.73255 0.07073 0.0
H481 H 0.47439 0.69635 0.05275 0.0
H482 H 0.46882 0.76427 0.15138 0.0
H483 H 0.43228 0.73359 0.24613 0.0
H484 H 0.39827 0.74286 0.23656 0.0
H485 H 0.38537 0.77297 0.23723 0.0
C486 C 0.78649 0.47456 0.08321 0.0
C487 C 0.80149 0.47015 0.12851 0.0
C488 C 0.76592 0.47491 0.10292 0.0
C489 C 0.75962 0.47046 0.16828 0.0
C490 C 0.77566 0.46782 0.21503 0.0
C491 C 0.79641 0.46764 0.19538 0.0
C492 C 0.73598 0.46733 0.18808 0.0
C493 C 0.71536 0.45877 0.14294 0.0
C494 C 0.69044 0.45205 0.16126 0.0
C495 C 0.6693 0.43513 0.11551 0.0
C496 C 0.64542 0.42711 0.13154 0.0
C497 C 0.64207 0.43604 0.19357 0.0
H498 H 0.70294 0.47537 0.25814 0.0
C499 C 0.66318 0.45382 0.23828 0.0
C500 C 0.68715 0.46174 0.22239 0.0
H501 H 0.66124 0.46117 0.28637 0.0
H502 H 0.79022 0.47704 0.03167 0.0
H503 H 0.75477 0.4782 0.06626 0.0
H504 H 0.77149 0.46474 0.26602 0.0
H505 H 0.80767 0.46427 0.23154 0.0
H506 H 0.73493 0.46974 0.24163 0.0
H507 H 0.71603 0.45427 0.09014 0.0
H508 H 0.67122 0.42756 0.0677 0.0
H509 H 0.62959 0.41363 0.09557 0.0
C510 C 0.21957 0.66991 0.02356 0.0
C511 C 0.19937 0.65236 0.05253 0.0
C512 C 0.23186 0.69491 0.04957 0.0
C513 C 0.22402 0.70291 0.10482 0.0
C514 C 0.20313 0.68543 0.13153 0.0
C515 C 0.1909 0.66049 0.10566 0.0
C516 C 0.23854 0.72857 0.14066 0.0
C517 C 0.25578 0.74797 0.11407 0.0
C518 C 0.27332 0.77253 0.1541 0.0
C519 C 0.2862 0.79291 0.11968 0.0
C520 C 0.3054 0.81546 0.15431 0.0
C521 C 0.31237 0.81806 0.22415 0.0
H522 H 0.27042 0.76031 0.25334 0.0
C523 C 0.2986 0.79813 0.25933 0.0
C524 C 0.27938 0.77557 0.22474 0.0
H525 H 0.30356 0.79947 0.31309 0.0
H526 H 0.22663 0.66425 0.98279 0.0
H527 H 0.24818 0.70757 0.02822 0.0
H528 H 0.19668 0.69097 0.17411 0.0
H529 H 0.17531 0.64749 0.12903 0.0
H530 H 0.2351 0.73132 0.19184 0.0
H531 H 0.25769 0.74584 0.06107 0.0
H532 H 0.28196 0.79118 0.0654 0.0
H533 H 0.31537 0.83061 0.1259 0.0
C534 C 0.5307 0.14594 0.90981 0.0
C535 C 0.53937 0.14581 0.84742 0.0
C536 C 0.52921 0.16596 0.93649 0.0
C537 C 0.53633 0.18629 0.90116 0.0
C538 C 0.54332 0.18538 0.83673 0.0
C539 C 0.54493 0.16538 0.81014 0.0
C540 C 0.53734 0.20894 0.93053 0.0
C541 C 0.54243 0.21673 0.99749 0.0
C542 C 0.54623 0.24064 0.02793 0.0
C543 C 0.54479 0.24405 0.09712 0.0
C544 C 0.54931 0.2666 0.12846 0.0
C545 C 0.55562 0.28634 0.0913 0.0
H546 H 0.55466 0.25904 0.93798 0.0
C547 C 0.55707 0.28294 0.0221 0.0
C548 C 0.55257 0.26045 0.99081 0.0
H549 H 0.56159 0.29769 0.99179 0.0
H550 H 0.5255 0.13075 0.93879 0.0
H551 H 0.52265 0.16548 0.98494 0.0
H552 H 0.54855 0.20065 0.80803 0.0
H553 H 0.55148 0.16574 0.76167 0.0
H554 H 0.53531 0.2201 0.89527 0.0
H555 H 0.54458 0.20544 0.03216 0.0
H556 H 0.54024 0.22923 0.12717 0.0
H557 H 0.54827 0.2687 0.18199 0.0
loop_
_geom_bond_atom_site_label_1
_geom_bond_atom_site_label_2
_geom_bond_distance
_geom_bond_site_symmetry_2
_ccdc_geom_bond_type
C0 C1 1.351 . S
C0 N3 1.368 . S
C0 H5 0.931 . S
C1 C0 1.351 . S
C1 N2 1.373 . S
C1 H29 0.930 . S
N2 C1 1.373 . S
N2 C4 1.340 . S
N3 C0 1.368 . S
N3 C4 1.321 . S
N3 Co6 2.135 1_556 S
C4 N2 1.340 . S
C4 N3 1.321 . S
C4 H28 0.930 . S
H5 C0 0.931 . S
Co6 N3 2.135 1_554 S
Co6 N9 2.121 . S
Co6 O14 2.055 . S
Co6 O17 2.039 . S
Co6 N20 2.140 . S
C7 O8 1.227 . S
C7 O17 1.265 . S
O8 C7 1.227 . S
N9 Co6 2.121 . S
N9 C11 1.375 . S
N9 C12 1.313 . S
C10 C11 1.338 . S
C10 N13 1.377 . S
C10 H30 0.930 . S
C11 N9 1.375 . S
C11 C10 1.338 . S
C11 H15 0.931 . S
C12 N9 1.313 . S
C12 N13 1.344 . S
C12 H16 0.930 . S
N13 C10 1.377 . S
N13 C12 1.344 . S
O14 Co6 2.055 . S
O14 C18 1.253 . S
H15 C11 0.931 . S
H16 C12 0.930 . S
O17 Co6 2.039 . S
O17 C7 1.265 . S
C18 O14 1.253 . S
C18 O19 1.227 . S
O19 C18 1.227 . S
N20 Co6 2.140 . S
N20 C23 1.346 . S
N20 C24 1.345 . S
C21 C22 1.390 . S
C21 C25 1.391 . S
C22 C21 1.390 . S
C22 C23 1.369 . S
C22 H31 0.927 1_554 S
C23 N20 1.346 . S
C23 C22 1.369 . S
C23 H26 0.928 1_554 S
C24 N20 1.345 . S
C24 C25 1.371 . S
C24 H27 0.931 . S
C25 C21 1.391 . S
C25 C24 1.371 . S
C25 H32 0.930 . S
H26 C23 0.928 1_556 S
H27 C24 0.931 . S
H28 C4 0.930 . S
H29 C1 0.930 . S
H30 C10 0.930 . S
H31 C22 0.927 1_556 S
H32 C25 0.930 . S
C33 C34 1.351 . S
C33 N36 1.368 . S
C33 H38 0.931 . S
C34 C33 1.351 . S
C34 N35 1.373 . S
C34 H62 0.930 . S
N35 C34 1.373 . S
N35 C37 1.340 . S
N36 C33 1.368 . S
N36 C37 1.321 . S
N36 Co39 2.135 1_556 S
C37 N35 1.340 . S
C37 N36 1.321 . S
C37 H61 0.930 . S
H38 C33 0.931 . S
Co39 N36 2.135 1_554 S
Co39 N42 2.121 . S
Co39 O47 2.055 . S
Co39 O50 2.039 . S
Co39 N53 2.140 . S
C40 O41 1.227 . S
C40 O50 1.265 . S
O41 C40 1.227 . S
N42 Co39 2.121 . S
N42 C44 1.375 . S
N42 C45 1.313 . S
C43 C44 1.338 . S
C43 N46 1.377 . S
C43 H63 0.930 . S
C44 N42 1.375 . S
C44 C43 1.338 . S
C44 H48 0.931 . S
C45 N42 1.313 . S
C45 N46 1.344 . S
C45 H49 0.930 . S
N46 C43 1.377 . S
N46 C45 1.344 . S
O47 Co39 2.055 . S
O47 C51 1.253 . S
H48 C44 0.931 . S
H49 C45 0.930 . S
O50 Co39 2.039 . S
O50 C40 1.265 . S
C51 O47 1.253 . S
C51 O52 1.227 . S
O52 C51 1.227 . S
N53 Co39 2.140 . S
N53 C56 1.346 . S
N53 C57 1.345 . S
C54 C55 1.387 . S
C54 C58 1.391 . S
C55 C54 1.387 . S
C55 C56 1.369 . S
C55 H64 0.929 1_554 S
C56 N53 1.346 . S
C56 C55 1.369 . S
C56 H59 0.928 1_554 S
C57 N53 1.345 . S
C57 C58 1.371 . S
C57 H60 0.931 . S
C58 C54 1.391 . S
C58 C57 1.371 . S
C58 H65 0.930 . S
H59 C56 0.928 1_556 S
H60 C57 0.931 . S
H61 C37 0.930 . S
H62 C34 0.930 . S
H63 C43 0.930 . S
H64 C55 0.929 1_556 S
H65 C58 0.930 . S
C66 C67 1.351 . S
C66 N69 1.368 1_556 S
C66 H71 0.931 1_556 S
C67 C66 1.351 . S
C67 N68 1.373 . S
C67 H95 0.930 . S
N68 C67 1.373 . S
N68 C70 1.340 . S
N69 C66 1.368 1_554 S
N69 C70 1.321 1_554 S
N69 Co72 2.135 . S
C70 N68 1.340 . S
C70 N69 1.321 1_556 S
C70 H94 0.930 . S
H71 C66 0.931 1_554 S
Co72 N69 2.135 . S
Co72 N75 2.121 . S
Co72 O80 2.055 . S
Co72 O83 2.039 . S
Co72 N86 2.140 . S
C73 O74 1.227 . S
C73 O83 1.265 . S
O74 C73 1.227 . S
N75 Co72 2.121 . S
N75 C77 1.375 . S
N75 C78 1.313 . S
C76 C77 1.338 . S
C76 N79 1.377 . S
C76 H96 0.930 . S
C77 N75 1.375 . S
C77 C76 1.338 . S
C77 H81 0.931 . S
C78 N75 1.313 . S
C78 N79 1.344 . S
C78 H82 0.930 . S
N79 C76 1.377 . S
N79 C78 1.344 . S
O80 Co72 2.055 . S
O80 C84 1.253 . S
H81 C77 0.931 . S
H82 C78 0.930 . S
O83 Co72 2.039 . S
O83 C73 1.265 . S
C84 O80 1.253 . S
C84 O85 1.227 . S
O85 C84 1.227 . S
N86 Co72 2.140 . S
N86 C89 1.346 . S
N86 C90 1.345 . S
C87 C88 1.387 . S
C87 C91 1.391 . S
C88 C87 1.387 . S
C88 C89 1.369 . S
C88 H97 0.929 . S
C89 N86 1.346 . S
C89 C88 1.369 . S
C89 H92 0.928 . S
C90 N86 1.345 . S
C90 C91 1.371 . S
C90 H93 0.931 . S
C91 C87 1.391 . S
C91 C90 1.371 . S
C91 H98 0.930 . S
H92 C89 0.928 . S
H93 C90 0.931 . S
H94 C70 0.930 . S
H95 C67 0.930 . S
H96 C76 0.930 . S
H97 C88 0.929 . S
H98 C91 0.930 . S
C99 C100 1.351 . S
C99 N102 1.368 . S
C99 H104 0.931 . S
C100 C99 1.351 . S
C100 N101 1.373 . S
C100 H128 0.930 . S
N101 C100 1.373 . S
N101 C103 1.340 . S
N102 C99 1.368 . S
N102 C103 1.321 . S
N102 Co105 2.135 . S
C103 N101 1.340 . S
C103 N102 1.321 . S
C103 H127 0.930 . S
H104 C99 0.931 . S
Co105 N102 2.135 . S
Co105 N108 2.121 . S
Co105 O113 2.055 . S
Co105 O116 2.039 . S
Co105 N119 2.140 . S
C106 O107 1.227 . S
C106 O116 1.265 . S
O107 C106 1.227 . S
N108 Co105 2.121 . S
N108 C110 1.375 1_554 S
N108 C111 1.313 1_554 S
C109 C110 1.338 . S
C109 N112 1.377 . S
C109 H129 0.930 . S
C110 N108 1.375 1_556 S
C110 C109 1.338 . S
C110 H114 0.931 . S
C111 N108 1.313 1_556 S
C111 N112 1.344 . S
C111 H115 0.930 . S
N112 C109 1.377 . S
N112 C111 1.344 . S
O113 Co105 2.055 . S
O113 C117 1.253 . S
H114 C110 0.931 . S
H115 C111 0.930 . S
O116 Co105 2.039 . S
O116 C106 1.265 . S
C117 O113 1.253 . S
C117 O118 1.227 . S
O118 C117 1.227 . S
N119 Co105 2.140 . S
N119 C122 1.346 . S
N119 C123 1.345 . S
C120 C121 1.387 . S
C120 C124 1.391 . S
C121 C120 1.387 . S
C121 C122 1.369 . S
C121 H130 0.929 . S
C122 N119 1.346 . S
C122 C121 1.369 . S
C122 H125 0.928 . S
C123 N119 1.345 . S
C123 C124 1.371 . S
C123 H126 0.931 . S
C124 C120 1.391 . S
C124 C123 1.371 . S
C124 H131 0.930 . S
H125 C122 0.928 . S
H126 C123 0.931 . S
H127 C103 0.930 . S
H128 C100 0.930 . S
H129 C109 0.930 . S
H130 C121 0.929 . S
H131 C124 0.930 . S
C132 C133 1.351 . S
C132 N135 1.368 . S
C132 H137 0.931 . S
C133 C132 1.351 . S
C133 N134 1.373 . S
C133 H161 0.930 . S
N134 C133 1.373 . S
N134 C136 1.340 . S
N135 C132 1.368 . S
N135 C136 1.321 . S
N135 Co138 2.135 . S
C136 N134 1.340 . S
C136 N135 1.321 . S
C136 H160 0.930 . S
H137 C132 0.931 . S
Co138 N135 2.135 . S
Co138 N141 2.121 1_554 S
Co138 O146 2.055 . S
Co138 O149 2.039 . S
Co138 N152 2.140 . S
C139 O140 1.227 . S
C139 O149 1.265 . S
O140 C139 1.227 . S
N141 Co138 2.121 1_556 S
N141 C143 1.375 . S
N141 C144 1.313 . S
C142 C143 1.338 . S
C142 N145 1.377 . S
C142 H162 0.930 . S
C143 N141 1.375 . S
C143 C142 1.338 . S
C143 H147 0.931 . S
C144 N141 1.313 . S
C144 N145 1.344 . S
C144 H148 0.930 . S
N145 C142 1.377 . S
N145 C144 1.344 . S
O146 Co138 2.055 . S
O146 C150 1.253 . S
H147 C143 0.931 . S
H148 C144 0.930 . S
O149 Co138 2.039 . S
O149 C139 1.265 . S
C150 O146 1.253 . S
C150 O151 1.227 . S
O151 C150 1.227 . S
N152 Co138 2.140 . S
N152 C155 1.346 . S
N152 C156 1.345 . S
C153 C154 1.387 . S
C153 C157 1.391 . S
C154 C153 1.387 . S
C154 C155 1.369 . S
C154 H163 0.929 . S
C155 N152 1.346 . S
C155 C154 1.369 . S
C155 H158 0.928 . S
C156 N152 1.345 . S
C156 C157 1.371 . S
C156 H159 0.931 . S
C157 C153 1.391 . S
C157 C156 1.371 . S
C157 H164 0.930 . S
H158 C155 0.928 . S
H159 C156 0.931 . S
H160 C136 0.930 . S
H161 C133 0.930 . S
H162 C142 0.930 . S
H163 C154 0.929 . S
H164 C157 0.930 . S
C165 C166 1.351 . S
C165 N168 1.368 1_556 S
C165 H170 0.931 . S
C166 C165 1.351 . S
C166 N167 1.373 . S
C166 H194 0.930 . S
N167 C166 1.373 . S
N167 C169 1.340 . S
N168 C165 1.368 1_554 S
N168 C169 1.321 1_554 S
N168 Co171 2.135 . S
C169 N167 1.340 . S
C169 N168 1.321 1_556 S
C169 H193 0.930 . S
H170 C165 0.931 . S
Co171 N168 2.135 . S
Co171 N174 2.121 . S
Co171 O179 2.055 . S
Co171 O182 2.039 . S
Co171 N185 2.140 . S
C172 O173 1.227 . S
C172 O182 1.265 . S
O173 C172 1.227 . S
N174 Co171 2.121 . S
N174 C176 1.375 . S
N174 C177 1.313 . S
C175 C176 1.338 . S
C175 N178 1.377 . S
C175 H195 0.930 . S
C176 N174 1.375 . S
C176 C175 1.338 . S
C176 H180 0.931 . S
C177 N174 1.313 . S
C177 N178 1.344 . S
C177 H181 0.930 . S
N178 C175 1.377 . S
N178 C177 1.344 . S
O179 Co171 2.055 . S
O179 C183 1.253 . S
H180 C176 0.931 . S
H181 C177 0.930 . S
O182 Co171 2.039 . S
O182 C172 1.265 . S
C183 O179 1.253 . S
C183 O184 1.227 . S
O184 C183 1.227 . S
N185 Co171 2.140 . S
N185 C188 1.346 . S
N185 C189 1.345 . S
C186 C187 1.387 . S
C186 C190 1.391 . S
C187 C186 1.387 . S
C187 C188 1.369 . S
C187 H196 0.929 . S
C188 N185 1.346 . S
C188 C187 1.369 . S
C188 H191 0.928 . S
C189 N185 1.345 . S
C189 C190 1.371 . S
C189 H192 0.931 . S
C190 C186 1.391 . S
C190 C189 1.371 . S
C190 H197 0.930 . S
H191 C188 0.928 . S
H192 C189 0.931 . S
H193 C169 0.930 . S
H194 C166 0.930 . S
H195 C175 0.930 . S
H196 C187 0.929 . S
H197 C190 0.930 . S
C198 C199 1.386 . S
C198 C200 1.383 . S
C198 H214 0.951 1_554 S
C199 C198 1.386 . S
C199 C203 1.383 . S
C200 C198 1.383 . S
C200 C201 1.402 . S
C200 H215 0.951 . S
C201 C200 1.402 . S
C201 C202 1.375 . S
C201 C204 1.481 . S
C202 C201 1.375 . S
C202 C203 1.367 . S
C202 H216 0.951 . S
C203 C199 1.383 . S
C203 C202 1.367 . S
C203 H217 0.950 . S
C204 C201 1.481 . S
C204 C205 1.297 1_455 S
C204 H218 0.950 . S
C205 C204 1.297 1_655 S
C205 C206 1.479 . S
C205 H219 0.950 . S
C206 C205 1.479 . S
C206 C207 1.375 . S
C206 C212 1.404 . S
C207 C206 1.375 . S
C207 C208 1.369 . S
C207 H220 0.950 . S
C208 C207 1.369 . S
C208 C209 1.392 . S
C208 H221 0.951 . S
C209 C208 1.392 . S
C209 C211 1.384 . S
H210 C212 0.949 . S
C211 C209 1.384 . S
C211 C212 1.385 . S
C211 H213 0.950 . S
C212 C206 1.404 . S
C212 H210 0.949 . S
C212 C211 1.385 . S
H213 C211 0.950 . S
H214 C198 0.951 1_556 S
H215 C200 0.951 . S
H216 C202 0.951 . S
H217 C203 0.950 . S
H218 C204 0.950 . S
H219 C205 0.950 . S
H220 C207 0.950 . S
H221 C208 0.951 . S
C222 C223 1.386 . S
C222 C224 1.383 . S
C222 H238 0.951 . S
C223 C222 1.386 . S
C223 C227 1.383 . S
C224 C222 1.383 . S
C224 C225 1.402 . S
C224 H239 0.951 . S
C225 C224 1.402 . S
C225 C226 1.375 . S
C225 C228 1.481 . S
C226 C225 1.375 . S
C226 C227 1.367 . S
C226 H240 0.951 . S
C227 C223 1.383 . S
C227 C226 1.367 . S
C227 H241 0.950 . S
C228 C225 1.481 . S
C228 C229 1.292 1_565 S
C228 H242 0.950 . S
C229 C228 1.292 1_545 S
C229 C230 1.501 . S
C229 H243 0.932 1_545 S
C230 C229 1.501 . S
C230 C231 1.375 . S
C230 C236 1.404 . S
C231 C230 1.375 . S
C231 C232 1.369 . S
C231 H244 0.950 . S
C232 C231 1.369 . S
C232 C233 1.392 . S
C232 H245 0.951 . S
C233 C232 1.392 . S
C233 C235 1.384 . S
H234 C236 0.949 . S
C235 C233 1.384 . S
C235 C236 1.385 . S
C235 H237 0.950 . S
C236 C230 1.404 . S
C236 H234 0.949 . S
C236 C235 1.385 . S
H237 C235 0.950 . S
H238 C222 0.951 . S
H239 C224 0.951 . S
H240 C226 0.951 . S
H241 C227 0.950 . S
H242 C228 0.950 . S
H243 C229 0.932 1_565 S
H244 C231 0.950 . S
H245 C232 0.951 . S
C246 C247 1.386 . S
C246 C248 1.383 . S
C246 H262 0.951 . S
C247 C246 1.386 . S
C247 C251 1.383 . S
C248 C246 1.383 . S
C248 C249 1.402 . S
C248 H263 0.951 . S
C249 C248 1.402 . S
C249 C250 1.375 . S
C249 C252 1.481 . S
C250 C249 1.375 . S
C250 C251 1.367 . S
C250 H264 0.951 . S
C251 C247 1.383 . S
C251 C250 1.367 . S
C251 H265 0.950 . S
C252 C249 1.481 . S
C252 C253 1.297 . S
C252 H266 0.950 . S
C253 C252 1.297 . S
C253 C254 1.479 . S
C253 H267 0.950 . S
C254 C253 1.479 . S
C254 C255 1.375 . S
C254 C260 1.404 . S
C255 C254 1.375 . S
C255 C256 1.369 . S
C255 H268 0.950 . S
C256 C255 1.369 . S
C256 C257 1.392 . S
C256 H269 0.951 . S
C257 C256 1.392 . S
C257 C259 1.384 . S
H258 C260 0.949 . S
C259 C257 1.384 . S
C259 C260 1.385 . S
C259 H261 0.950 . S
C260 C254 1.404 . S
C260 H258 0.949 . S
C260 C259 1.385 . S
H261 C259 0.950 . S
H262 C246 0.951 . S
H263 C248 0.951 . S
H264 C250 0.951 . S
H265 C251 0.950 . S
H266 C252 0.950 . S
H267 C253 0.950 . S
H268 C255 0.950 . S
H269 C256 0.951 . S
C270 C271 1.386 . S
C270 C272 1.383 . S
C270 H286 0.951 . S
C271 C270 1.386 . S
C271 C275 1.383 . S
C272 C270 1.383 . S
C272 C273 1.402 . S
C272 H287 0.951 . S
C273 C272 1.402 . S
C273 C274 1.375 . S
C273 C276 1.481 . S
C274 C273 1.375 . S
C274 C275 1.367 . S
C274 H288 0.951 . S
C275 C271 1.383 . S
C275 C274 1.367 . S
C275 H289 0.950 . S
C276 C273 1.481 . S
C276 C277 1.297 . S
C276 H290 0.950 . S
C277 C276 1.297 . S
C277 C278 1.479 . S
C277 H291 0.950 . S
C278 C277 1.479 . S
C278 C279 1.375 . S
C278 C284 1.404 . S
C279 C278 1.375 . S
C279 C280 1.369 . S
C279 H292 0.950 . S
C280 C279 1.369 . S
C280 C281 1.392 . S
C280 H293 0.951 . S
C281 C280 1.392 . S
C281 C283 1.384 . S
H282 C284 0.949 . S
C283 C281 1.384 . S
C283 C284 1.385 . S
C283 H285 0.950 . S
C284 C278 1.404 . S
C284 H282 0.949 . S
C284 C283 1.385 . S
H285 C283 0.950 . S
H286 C270 0.951 . S
H287 C272 0.951 . S
H288 C274 0.951 . S
H289 C275 0.950 . S
H290 C276 0.950 . S
H291 C277 0.950 . S
H292 C279 0.950 . S
H293 C280 0.951 . S
C294 C295 1.386 . S
C294 C296 1.383 . S
C294 H310 0.951 . S
C295 C294 1.386 . S
C295 C299 1.383 . S
C296 C294 1.383 . S
C296 C297 1.402 . S
C296 H311 0.951 . S
C297 C296 1.402 . S
C297 C298 1.375 . S
C297 C300 1.481 . S
C298 C297 1.375 . S
C298 C299 1.367 . S
C298 H312 0.951 . S
C299 C295 1.383 . S
C299 C298 1.367 . S
C299 H313 0.950 . S
C300 C297 1.481 . S
C300 C301 1.297 . S
C300 H314 0.950 . S
C301 C300 1.297 . S
C301 C302 1.479 . S
C301 H315 0.950 . S
C302 C301 1.479 . S
C302 C303 1.375 . S
C302 C308 1.404 . S
C303 C302 1.375 . S
C303 C304 1.369 . S
C303 H316 0.950 . S
C304 C303 1.369 . S
C304 C305 1.392 . S
C304 H317 0.951 . S
C305 C304 1.392 . S
C305 C307 1.384 . S
H306 C308 0.949 . S
C307 C305 1.384 . S
C307 C308 1.385 . S
C307 H309 0.950 . S
C308 C302 1.404 . S
C308 H306 0.949 . S
C308 C307 1.385 . S
H309 C307 0.950 . S
H310 C294 0.951 . S
H311 C296 0.951 . S
H312 C298 0.951 . S
H313 C299 0.950 . S
H314 C300 0.950 . S
H315 C301 0.950 . S
H316 C303 0.950 . S
H317 C304 0.951 . S
C318 C319 1.386 . S
C318 C320 1.383 . S
C318 H334 0.951 . S
C319 C318 1.386 . S
C319 C323 1.383 . S
C320 C318 1.383 . S
C320 C321 1.402 . S
C320 H335 0.951 . S
C321 C320 1.402 . S
C321 C322 1.375 . S
C321 C324 1.481 . S
C322 C321 1.375 . S
C322 C323 1.367 . S
C322 H336 0.951 . S
C323 C319 1.383 . S
C323 C322 1.367 . S
C323 H337 0.950 . S
C324 C321 1.481 . S
C324 C325 1.297 . S
C324 H338 0.950 . S
C325 C324 1.297 . S
C325 C326 1.479 . S
C325 H339 0.950 . S
C326 C325 1.479 . S
C326 C327 1.375 . S
C326 C332 1.404 . S
C327 C326 1.375 . S
C327 C328 1.369 . S
C327 H340 0.950 . S
C328 C327 1.369 . S
C328 C329 1.392 . S
C328 H341 0.951 . S
C329 C328 1.392 . S
C329 C331 1.384 . S
H330 C332 0.949 . S
C331 C329 1.384 . S
C331 C332 1.385 . S
C331 H333 0.950 . S
C332 C326 1.404 . S
C332 H330 0.949 . S
C332 C331 1.385 . S
H333 C331 0.950 . S
H334 C318 0.951 . S
H335 C320 0.951 . S
H336 C322 0.951 . S
H337 C323 0.950 . S
H338 C324 0.950 . S
H339 C325 0.950 . S
H340 C327 0.950 . S
H341 C328 0.951 . S
C342 C343 1.386 . S
C342 C344 1.383 . S
C342 H358 0.951 . S
C343 C342 1.386 . S
C343 C347 1.383 . S
C344 C342 1.383 . S
C344 C345 1.402 . S
C344 H359 0.951 . S
C345 C344 1.402 . S
C345 C346 1.375 . S
C345 C348 1.481 . S
C346 C345 1.375 . S
C346 C347 1.367 . S
C346 H360 0.951 . S
C347 C343 1.383 . S
C347 C346 1.367 . S
C347 H361 0.950 . S
C348 C345 1.481 . S
C348 C349 1.297 . S
C348 H362 0.950 . S
C349 C348 1.297 . S
C349 C350 1.479 . S
C349 H363 0.950 . S
C350 C349 1.479 . S
C350 C351 1.375 . S
C350 C356 1.404 . S
C351 C350 1.375 . S
C351 C352 1.369 . S
C351 H364 0.950 . S
C352 C351 1.369 . S
C352 C353 1.392 . S
C352 H365 0.951 . S
C353 C352 1.392 . S
C353 C355 1.384 . S
H354 C356 0.949 . S
C355 C353 1.384 . S
C355 C356 1.385 . S
C355 H357 0.950 . S
C356 C350 1.404 . S
C356 H354 0.949 . S
C356 C355 1.385 . S
H357 C355 0.950 . S
H358 C342 0.951 . S
H359 C344 0.951 . S
H360 C346 0.951 . S
H361 C347 0.950 . S
H362 C348 0.950 . S
H363 C349 0.950 . S
H364 C351 0.950 . S
H365 C352 0.951 . S
C366 C367 1.386 . S
C366 C368 1.383 . S
C366 H382 0.951 . S
C367 C366 1.386 . S
C367 C371 1.383 . S
C368 C366 1.383 . S
C368 C369 1.402 . S
C368 H383 0.951 . S
C369 C368 1.402 . S
C369 C370 1.375 . S
C369 C372 1.481 . S
C370 C369 1.375 . S
C370 C371 1.367 . S
C370 H384 0.951 . S
C371 C367 1.383 . S
C371 C370 1.367 . S
C371 H385 0.950 . S
C372 C369 1.481 . S
C372 C373 1.297 . S
C372 H386 0.950 . S
C373 C372 1.297 . S
C373 C374 1.479 . S
C373 H387 0.950 . S
C374 C373 1.479 . S
C374 C375 1.375 . S
C374 C380 1.404 . S
C375 C374 1.375 . S
C375 C376 1.369 . S
C375 H388 0.950 . S
C376 C375 1.369 . S
C376 C377 1.392 . S
C376 H389 0.951 . S
C377 C376 1.392 . S
C377 C379 1.384 . S
H378 C380 0.949 . S
C379 C377 1.384 . S
C379 C380 1.385 . S
C379 H381 0.950 . S
C380 C374 1.404 . S
C380 H378 0.949 . S
C380 C379 1.385 . S
H381 C379 0.950 . S
H382 C366 0.951 . S
H383 C368 0.951 . S
H384 C370 0.951 . S
H385 C371 0.950 . S
H386 C372 0.950 . S
H387 C373 0.950 . S
H388 C375 0.950 . S
H389 C376 0.951 . S
C390 C391 1.386 . S
C390 C392 1.383 . S
C390 H406 0.951 . S
C391 C390 1.386 . S
C391 C395 1.383 . S
C392 C390 1.383 . S
C392 C393 1.402 . S
C392 H407 0.951 . S
C393 C392 1.402 . S
C393 C394 1.375 . S
C393 C396 1.481 . S
C394 C393 1.375 . S
C394 C395 1.367 . S
C394 H408 0.951 . S
C395 C391 1.383 . S
C395 C394 1.367 . S
C395 H409 0.950 . S
C396 C393 1.481 . S
C396 C397 1.297 . S
C396 H410 0.950 . S
C397 C396 1.297 . S
C397 C398 1.479 . S
C397 H411 0.950 . S
C398 C397 1.479 . S
C398 C399 1.375 . S
C398 C404 1.404 . S
C399 C398 1.375 . S
C399 C400 1.369 . S
C399 H412 0.950 . S
C400 C399 1.369 . S
C400 C401 1.392 . S
C400 H413 0.951 . S
C401 C400 1.392 . S
C401 C403 1.384 . S
H402 C404 0.949 . S
C403 C401 1.384 . S
C403 C404 1.385 . S
C403 H405 0.950 . S
C404 C398 1.404 . S
C404 H402 0.949 . S
C404 C403 1.385 . S
H405 C403 0.950 . S
H406 C390 0.951 . S
H407 C392 0.951 . S
H408 C394 0.951 . S
H409 C395 0.950 . S
H410 C396 0.950 . S
H411 C397 0.950 . S
H412 C399 0.950 . S
H413 C400 0.951 . S
C414 C415 1.386 . S
C414 C416 1.383 . S
C414 H430 0.957 . S
C415 C414 1.386 . S
C415 C419 1.383 . S
C416 C414 1.383 . S
C416 C417 1.402 . S
C416 H431 0.951 . S
C417 C416 1.402 . S
C417 C418 1.375 . S
C417 C420 1.481 . S
C418 C417 1.375 . S
C418 C419 1.367 . S
C418 H432 0.951 . S
C419 C415 1.383 . S
C419 C418 1.367 . S
C419 H433 0.950 . S
C420 C417 1.481 . S
C420 C421 1.297 . S
C420 H434 0.950 . S
C421 C420 1.297 . S
C421 C422 1.479 . S
C421 H435 0.950 . S
C422 C421 1.479 . S
C422 C423 1.375 . S
C422 C428 1.404 . S
C423 C422 1.375 . S
C423 C424 1.369 . S
C423 H436 0.950 . S
C424 C423 1.369 . S
C424 C425 1.392 . S
C424 H437 0.951 . S
C425 C424 1.392 . S
C425 C427 1.384 . S
H426 C428 0.949 . S
C427 C425 1.384 . S
C427 C428 1.385 . S
C427 H429 0.950 . S
C428 C422 1.404 . S
C428 H426 0.949 . S
C428 C427 1.385 . S
H429 C427 0.950 . S
H430 C414 0.957 . S
H431 C416 0.951 . S
H432 C418 0.951 . S
H433 C419 0.950 . S
H434 C420 0.950 . S
H435 C421 0.950 . S
H436 C423 0.950 . S
H437 C424 0.951 . S
C438 C439 1.386 . S
C438 C440 1.383 . S
C438 H454 0.951 1_554 S
C439 C438 1.386 . S
C439 C443 1.383 . S
C440 C438 1.383 . S
C440 C441 1.402 . S
C440 H455 0.951 1_554 S
C441 C440 1.402 . S
C441 C442 1.375 . S
C441 C444 1.481 . S
C442 C441 1.375 . S
C442 C443 1.367 . S
C442 H456 0.951 . S
C443 C439 1.383 . S
C443 C442 1.367 . S
C443 H457 0.950 . S
C444 C441 1.481 . S
C444 C445 1.297 . S
C444 H458 0.950 . S
C445 C444 1.297 . S
C445 C446 1.479 . S
C445 H459 0.950 . S
C446 C445 1.479 . S
C446 C447 1.375 . S
C446 C452 1.404 . S
C447 C446 1.375 . S
C447 C448 1.369 . S
C447 H460 0.950 1_554 S
C448 C447 1.369 . S
C448 C449 1.392 . S
C448 H461 0.951 1_554 S
C449 C448 1.392 . S
C449 C451 1.384 . S
H450 C452 0.949 . S
C451 C449 1.384 . S
C451 C452 1.385 . S
C451 H453 0.950 . S
C452 C446 1.404 . S
C452 H450 0.949 . S
C452 C451 1.385 . S
H453 C451 0.950 . S
H454 C438 0.951 1_556 S
H455 C440 0.951 1_556 S
H456 C442 0.951 . S
H457 C443 0.950 . S
H458 C444 0.950 . S
H459 C445 0.950 . S
H460 C447 0.950 1_556 S
H461 C448 0.951 1_556 S
C462 C463 1.386 . S
C462 C464 1.383 . S
C462 H478 0.951 . S
C463 C462 1.386 . S
C463 C467 1.383 . S
C464 C462 1.383 . S
C464 C465 1.402 . S
C464 H479 0.951 . S
C465 C464 1.402 . S
C465 C466 1.375 . S
C465 C468 1.481 . S
C466 C465 1.375 . S
C466 C467 1.367 . S
C466 H480 0.951 . S
C467 C463 1.383 . S
C467 C466 1.367 . S
C467 H481 0.950 . S
C468 C465 1.481 . S
C468 C469 1.297 . S
C468 H482 0.950 . S
C469 C468 1.297 . S
C469 C470 1.479 . S
C469 H483 0.950 . S
C470 C469 1.479 . S
C470 C471 1.375 . S
C470 C476 1.404 . S
C471 C470 1.375 . S
C471 C472 1.369 . S
C471 H484 0.950 . S
C472 C471 1.369 . S
C472 C473 1.392 . S
C472 H485 0.951 . S
C473 C472 1.392 . S
C473 C475 1.384 . S
H474 C476 0.949 . S
C475 C473 1.384 . S
C475 C476 1.385 . S
C475 H477 0.950 . S
C476 C470 1.404 . S
C476 H474 0.949 . S
C476 C475 1.385 . S
H477 C475 0.950 . S
H478 C462 0.951 . S
H479 C464 0.951 . S
H480 C466 0.951 . S
H481 C467 0.950 . S
H482 C468 0.950 . S
H483 C469 0.950 . S
H484 C471 0.950 . S
H485 C472 0.951 . S
C486 C487 1.386 . S
C486 C488 1.383 . S
C486 H502 0.951 . S
C487 C486 1.386 . S
C487 C491 1.383 . S
C488 C486 1.383 . S
C488 C489 1.402 . S
C488 H503 0.951 . S
C489 C488 1.402 . S
C489 C490 1.375 . S
C489 C492 1.481 . S
C490 C489 1.375 . S
C490 C491 1.367 . S
C490 H504 0.951 . S
C491 C487 1.383 . S
C491 C490 1.367 . S
C491 H505 0.950 . S
C492 C489 1.481 . S
C492 C493 1.297 . S
C492 H506 0.950 . S
C493 C492 1.297 . S
C493 C494 1.479 . S
C493 H507 0.950 . S
C494 C493 1.479 . S
C494 C495 1.375 . S
C494 C500 1.404 . S
C495 C494 1.375 . S
C495 C496 1.369 . S
C495 H508 0.950 . S
C496 C495 1.369 . S
C496 C497 1.392 . S
C496 H509 0.951 . S
C497 C496 1.392 . S
C497 C499 1.384 . S
H498 C500 0.949 . S
C499 C497 1.384 . S
C499 C500 1.385 . S
C499 H501 0.950 . S
C500 C494 1.404 . S
C500 H498 0.949 . S
C500 C499 1.385 . S
H501 C499 0.950 . S
H502 C486 0.951 . S
H503 C488 0.951 . S
H504 C490 0.951 . S
H505 C491 0.950 . S
H506 C492 0.950 . S
H507 C493 0.950 . S
H508 C495 0.950 . S
H509 C496 0.951 . S
C510 C511 1.396 . S
C510 C512 1.383 . S
C510 H526 0.940 1_554 S
C511 C510 1.396 . S
C511 C515 1.383 . S
C512 C510 1.383 . S
C512 C513 1.402 . S
C512 H527 0.951 1_554 S
C513 C512 1.402 . S
C513 C514 1.375 . S
C513 C516 1.481 . S
C514 C513 1.375 . S
C514 C515 1.367 . S
C514 H528 0.951 . S
C515 C511 1.383 . S
C515 C514 1.367 . S
C515 H529 0.950 . S
C516 C513 1.481 . S
C516 C517 1.297 . S
C516 H530 0.950 . S
C517 C516 1.297 . S
C517 C518 1.479 . S
C517 H531 0.950 . S
C518 C517 1.479 . S
C518 C519 1.375 . S
C518 C524 1.404 . S
C519 C518 1.375 . S
C519 C520 1.369 . S
C519 H532 0.950 1_554 S
C520 C519 1.369 . S
C520 C521 1.392 . S
C520 H533 0.951 1_554 S
C521 C520 1.392 . S
C521 C523 1.384 . S
H522 C524 0.949 . S
C523 C521 1.384 . S
C523 C524 1.385 . S
C523 H525 0.950 . S
C524 C518 1.404 . S
C524 H522 0.949 . S
C524 C523 1.385 . S
H525 C523 0.950 . S
H526 C510 0.940 1_556 S
H527 C512 0.951 1_556 S
H528 C514 0.951 . S
H529 C515 0.950 . S
H530 C516 0.950 . S
H531 C517 0.950 . S
H532 C519 0.950 1_556 S
H533 C520 0.951 1_556 S
C534 C535 1.386 . S
C534 C536 1.383 . S
C534 H550 0.951 . S
C535 C534 1.386 . S
C535 C539 1.383 1_554 S
C536 C534 1.383 . S
C536 C537 1.402 . S
C536 H551 0.951 . S
C537 C536 1.402 . S
C537 C538 1.375 1_554 S
C537 C540 1.481 . S
C538 C537 1.375 1_556 S
C538 C539 1.367 . S
C538 H552 0.951 . S
C539 C535 1.383 1_556 S
C539 C538 1.367 . S
C539 H553 0.950 . S
C540 C537 1.481 . S
C540 C541 1.297 . S
C540 H554 0.950 1_554 S
C541 C540 1.297 . S
C541 C542 1.479 . S
C541 H555 0.950 . S
C542 C541 1.479 . S
C542 C543 1.375 . S
C542 C548 1.404 . S
C543 C542 1.375 . S
C543 C544 1.369 . S
C543 H556 0.950 . S
C544 C543 1.369 . S
C544 C545 1.392 . S
C544 H557 0.951 . S
C545 C544 1.392 . S
C545 C547 1.384 . S
H546 C548 0.949 1_556 S
C547 C545 1.384 . S
C547 C548 1.385 . S
C547 H549 0.950 1_554 S
C548 C542 1.404 . S
C548 H546 0.949 1_554 S
C548 C547 1.385 . S
H549 C547 0.950 1_556 S
H550 C534 0.951 . S
H551 C536 0.951 . S
H552 C538 0.951 . S
H553 C539 0.950 . S
H554 C540 0.950 1_556 S
H555 C541 0.950 . S
H556 C543 0.950 . S
H557 C544 0.951 . S
C199 C18 0.895 . S
C209 C117 0.902 . S
C223 C150 0.772 . S
C233 C51 0.804 . S
C247 C183 0.875 . S
C257 C84 0.879 . S
C271 N13 1.459 . S
C281 N2 1.390 . S
C295 N46 1.421 . S
C305 N35 1.438 . S
C319 N68 1.476 . S
C329 N79 1.420 . S
C343 N112 1.447 . S
C353 N101 1.393 . S
C367 N134 1.426 . S
C377 N145 1.477 . S
C391 N178 1.441 . S
C401 N167 1.399 . S
C415 C21 0.648 . S
C425 C73 0.581 . S
C439 C54 0.525 . S
C449 C120 0.464 . S
C463 C87 0.631 . S
C473 C153 0.615 . S
C487 C106 0.678 . S
C497 C172 0.633 . S
C511 C7 0.804 . S
C521 C139 0.859 . S
C535 C40 0.626 . S
C545 C186 0.566 . S
