# Generated by pormake.
# Topology kag, (6)-cn, num edge types: 1
# Building blocks:
#     Node 0, Type 0, BuildingBlock: CUWYAW_clean_sbu_0, # of connection points: 6
#     Node 1, Type 0, BuildingBlock: CUWYAW_clean_sbu_0, # of connection points: 6
#     Node 2, Type 0, BuildingBlock: CUWYAW_clean_sbu_0, # of connection points: 6
#     Edge 3, Type (0, 0), BuildingBlock: TEMPAE_clean_linker_10, # of connection points: 2
#     Edge 4, Type (0, 0), BuildingBlock: TEMPAE_clean_linker_10, # of connection points: 2
#     Edge 5, Type (0, 0), BuildingBlock: TEMPAE_clean_linker_10, # of connection points: 2
#     Edge 6, Type (0, 0), BuildingBlock: TEMPAE_clean_linker_10, # of connection points: 2
#     Edge 7, Type (0, 0), BuildingBlock: TEMPAE_clean_linker_10, # of connection points: 2
#     Edge 8, Type (0, 0), BuildingBlock: TEMPAE_clean_linker_10, # of connection points: 2
#     Edge 9, Type (0, 0), BuildingBlock: TEMPAE_clean_linker_10, # of connection points: 2
#     Edge 10, Type (0, 0), BuildingBlock: TEMPAE_clean_linker_10, # of connection points: 2
#     Edge 11, Type (0, 0), BuildingBlock: TEMPAE_clean_linker_10, # of connection points: 2
# Relax obj value: 0.010
# Max RMSD: 0.070
# Mean RMSD: 0.056
data_MOF--net-kag--node1-CUWYAW_clean_sbu_0--edge1-TEMPAE_clean_linker_10
_symmetry_space_group_name_H-M    P1
_symmetry_Int_Tables_number       1
_symmetry_cell_setting            triclinic
loop_
_symmetry_equiv_pos_as_xyz
'x, y, z'
_cell_length_a     41.676065
_cell_length_b     41.641994
_cell_length_c     14.73616
_cell_angle_alpha  93.108593
_cell_angle_beta   91.48481
_cell_angle_gamma 119.95374
loop_
_atom_site_label
_atom_site_type_symbol
_atom_site_fract_x
_atom_site_fract_y
_atom_site_fract_z
_atom_type_partial_charge
C0 C 0.09137 0.62454 0.94524 0.0
Eu1 Eu 0.04748 0.55696 0.99063 0.0
C2 C 0.13056 0.6546 0.95137 0.0
C3 C 0.15324 0.66434 0.03195 0.0
C4 C 0.18963 0.69452 0.03662 0.0
C5 C 0.20406 0.71536 0.96071 0.0
C6 C 0.18139 0.70494 0.87978 0.0
C7 C 0.14507 0.67494 0.87531 0.0
C8 C 0.03309 0.53742 0.16407 0.0
C9 C 0.09252 0.5118 0.01008 0.0
C10 C 0.96079 0.40826 0.05883 0.0
Eu11 Eu 1.00489 0.47493 0.00883 0.0
C12 C 0.9216 0.37787 0.04841 0.0
C13 C 0.91352 0.34253 0.01261 0.0
C14 C 0.87713 0.3126 0.00694 0.0
C15 C 0.84791 0.31723 0.03757 0.0
C16 C 0.85593 0.35278 0.07253 0.0
C17 C 0.89239 0.38283 0.07773 0.0
C18 C 1.0176 0.49307 0.83344 0.0
C19 C 0.95992 0.52012 0.98777 0.0
O20 O 0.08293 0.59476 0.89276 0.0
O21 O 0.07365 0.61694 0.02012 0.0
O22 O 0.03142 0.56499 0.13246 0.0
O23 O 0.04354 0.52229 0.10471 0.0
O24 O 0.09237 0.5411 0.98007 0.0
O25 O 0.06218 0.48402 0.0392 0.0
O26 O 0.96848 0.43878 0.10749 0.0
O27 O 0.98021 0.41471 0.98687 0.0
O28 O 1.01644 0.46404 0.86458 0.0
O29 O 1.0091 0.50965 0.89401 0.0
O30 O 0.96006 0.4909 0.01836 0.0
O31 O 0.99028 0.54786 0.95848 0.0
H32 H 0.14274 0.64893 0.09148 0.0
H33 H 0.2065 0.70154 0.09962 0.0
H34 H 0.19139 0.7206 0.82044 0.0
H35 H 0.12802 0.66797 0.81258 0.0
H36 H 0.93554 0.33788 0.99031 0.0
H37 H 0.87204 0.28554 0.98077 0.0
H38 H 0.83399 0.35735 0.09585 0.0
H39 H 0.89769 0.40976 0.10561 0.0
C40 C 0.47951 0.08069 0.94276 0.0
Eu41 Eu 0.50529 0.03806 0.9927 0.0
C42 C 0.4878 0.11951 0.95137 0.0
C43 C 0.51985 0.14776 0.99993 0.0
C44 C 0.52658 0.18438 0.00744 0.0
C45 C 0.5014 0.1933 0.96621 0.0
C46 C 0.4694 0.1647 0.91766 0.0
C47 C 0.46273 0.12826 0.91036 0.0
C48 C 0.51129 0.02372 0.16805 0.0
C49 C 0.59558 0.08426 0.026 0.0
C50 C 0.56855 0.95243 0.07869 0.0
Eu51 Eu 0.54573 0.99636 0.02143 0.0
C52 C 0.55985 0.91325 0.06609 0.0
C53 C 0.56415 0.89816 0.98264 0.0
C54 C 0.55857 0.86201 0.97451 0.0
C55 C 0.54856 0.84011 0.04956 0.0
C56 C 0.54345 0.85503 0.13231 0.0
C57 C 0.54916 0.89118 0.14048 0.0
C58 C 0.54004 1.00946 0.84461 0.0
C59 C 0.45542 0.95034 0.98512 0.0
O60 O 0.50143 0.07359 0.89466 0.0
O61 O 0.47039 0.06268 0.01626 0.0
O62 O 0.48183 0.02162 0.13046 0.0
O63 O 0.53671 0.0345 0.11315 0.0
O64 O 0.56577 0.08352 0.99005 0.0
O65 O 0.59354 0.05426 0.05763 0.0
O66 O 0.54478 0.9588 0.12079 0.0
O67 O 0.58247 0.97339 0.01104 0.0
O68 O 0.5676 1.00756 0.88092 0.0
O69 O 0.51486 1.00043 0.90002 0.0
O70 O 0.48505 0.95107 0.02209 0.0
O71 O 0.45767 0.9804 0.95334 0.0
H72 H 0.53957 0.14148 0.03193 0.0
H73 H 0.55163 0.20577 0.04465 0.0
H74 H 0.44913 0.17037 0.88636 0.0
H75 H 0.43777 0.10677 0.87289 0.0
H76 H 0.57252 0.91444 0.92394 0.0
H77 H 0.56315 0.85166 0.91003 0.0
H78 H 0.53518 0.83881 0.19113 0.0
H79 H 0.54574 0.90211 0.20564 0.0
C80 C 0.63497 0.5588 0.94856 0.0
Eu81 Eu 0.56816 0.53702 1.00031 0.0
C82 C 0.66542 0.55037 0.95941 0.0
C83 C 0.69952 0.57754 1.00241 0.0
C84 C 0.72949 0.57133 0.0092 0.0
C85 C 0.72618 0.53787 0.97245 0.0
C86 C 0.6919 0.51046 0.9301 0.0
C87 C 0.66179 0.51659 0.92378 0.0
C88 C 0.54936 0.53265 0.17634 0.0
C89 C 0.52263 0.44685 0.012 0.0
C90 C 0.41809 0.47472 0.0646 0.0
Eu91 Eu 0.48606 0.49787 0.01924 0.0
C92 C 0.38807 0.48366 0.057 0.0
C93 C 0.38129 0.49745 0.97824 0.0
C94 C 0.35127 0.50374 0.97162 0.0
C95 C 0.32766 0.49658 0.04383 0.0
C96 C 0.33512 0.48346 0.12311 0.0
C97 C 0.36496 0.47706 0.12948 0.0
C98 C 0.50679 0.50247 0.84496 0.0
C99 C 0.53167 0.58817 0.01032 0.0
O100 O 0.60474 0.53453 0.90047 0.0
O101 O 0.62809 0.57376 0.02028 0.0
O102 O 0.5789 0.55999 0.1473 0.0
O103 O 0.53268 0.50723 0.11331 0.0
O104 O 0.55193 0.47593 0.98277 0.0
O105 O 0.49492 0.44988 0.04438 0.0
O106 O 0.4474 0.49763 0.11698 0.0
O107 O 0.4264 0.46268 0.99015 0.0
O108 O 0.4789 0.47336 0.87374 0.0
O109 O 0.52144 0.52816 0.90762 0.0
O110 O 0.50229 0.55896 0.03883 0.0
O111 O 0.55934 0.58519 0.97761 0.0
H112 H 0.70322 0.60395 0.02964 0.0
H113 H 0.7556 0.59321 0.04116 0.0
H114 H 0.68835 0.48424 0.90185 0.0
H115 H 0.63588 0.49504 0.89018 0.0
H116 H 0.39892 0.503 0.92159 0.0
H117 H 0.34657 0.51426 0.91006 0.0
H118 H 0.31729 0.47721 0.17952 0.0
H119 H 0.36968 0.46636 0.19076 0.0
C120 C 0.03133 0.53494 0.70641 0.0
C121 C 1.01832 0.49923 0.73521 0.0
C122 C 0.0343 0.54128 0.61336 0.0
C123 C 1.02173 0.5108 0.54719 0.0
C124 C 1.00692 0.4744 0.57607 0.0
C125 C 1.00632 0.4692 0.66966 0.0
C126 C 0.05168 0.58069 0.58606 0.0
C127 C 0.99139 0.4409 0.50815 0.0
C128 C 0.99966 0.52699 0.30688 0.0
C129 C 0.02963 0.52939 0.26076 0.0
C130 C 0.99614 0.51985 0.39939 0.0
C131 C 1.0243 0.51696 0.44795 0.0
C132 C 0.05498 0.51999 0.4015 0.0
C133 C 0.05679 0.52526 0.30785 0.0
C134 C 0.9621 0.51502 0.44483 0.0
C135 C 0.08636 0.51862 0.45118 0.0
H136 H 0.0401 0.55809 0.75665 0.0
H137 H 0.99569 0.44142 0.69158 0.0
H138 H 0.07487 0.5866 0.5418 0.0
H139 H 0.031 0.58438 0.5461 0.0
H140 H 0.06249 0.60143 0.64591 0.0
H141 H 0.97815 0.41435 0.54164 0.0
H142 H 0.9705 0.44101 0.46008 0.0
H143 H 1.01382 0.44195 0.46734 0.0
H144 H 0.97856 0.52998 0.26994 0.0
H145 H 0.08014 0.52747 0.27206 0.0
H146 H 0.97008 0.53764 0.49908 0.0
H147 H 0.94868 0.48837 0.47774 0.0
H148 H 0.94148 0.51523 0.39592 0.0
H149 H 0.09796 0.54007 0.50941 0.0
H150 H 0.10907 0.5233 0.40625 0.0
H151 H 0.07595 0.49123 0.47944 0.0
C152 C 0.48446 0.99772 0.31391 0.0
C153 C 0.51577 0.01927 0.2656 0.0
C154 C 0.4878 0.99417 0.40747 0.0
C155 C 0.52322 1.01361 0.45447 0.0
C156 C 0.55499 0.03532 0.40568 0.0
C157 C 0.55093 0.03741 0.31144 0.0
C158 C 0.45338 0.96983 0.45613 0.0
C159 C 0.59313 0.0572 0.45346 0.0
C160 C 0.52584 0.03513 0.71009 0.0
C161 C 0.53422 1.0095 0.74539 0.0
C162 C 0.52258 0.03704 0.6156 0.0
C163 C 0.52686 1.01199 0.55501 0.0
C164 C 0.53465 0.98551 0.59068 0.0
C165 C 0.53887 0.98503 0.68553 0.0
C166 C 0.51528 0.06637 0.58066 0.0
C167 C 0.53837 0.95762 0.52871 0.0
H168 H 0.45727 0.98342 0.27827 0.0
H169 H 0.57515 0.05423 0.27417 0.0
H170 H 0.4572 0.94928 0.49283 0.0
H171 H 0.44845 0.98704 0.50772 0.0
H172 H 0.42832 0.95464 0.40868 0.0
H173 H 0.61497 0.07277 0.40585 0.0
H174 H 0.5935 0.07727 0.50679 0.0
H175 H 0.60014 0.0383 0.48804 0.0
H176 H 0.52315 0.05457 0.75627 0.0
H177 H 0.54542 0.96521 0.71308 0.0
H178 H 0.48896 0.05305 0.53771 0.0
H179 H 0.53779 0.08429 0.53718 0.0
H180 H 0.51344 0.08423 0.63671 0.0
H181 H 0.51297 0.94155 0.48283 0.0
H182 H 0.5429 0.93788 0.56725 0.0
H183 H 0.56197 0.97224 0.48504 0.0
C184 C 0.52542 0.5411 0.71167 0.0
C185 C 0.51499 0.50715 0.74826 0.0
C186 C 0.53085 0.54509 0.61828 0.0
C187 C 0.52738 0.51487 0.56115 0.0
C188 C 0.51815 0.48091 0.59888 0.0
C189 C 0.51123 0.47721 0.69167 0.0
C190 C 0.5393 0.58129 0.58036 0.0
C191 C 0.51573 0.44856 0.54137 0.0
C192 C 0.50777 0.51019 0.30541 0.0
C193 C 0.54356 0.52713 0.27404 0.0
C194 C 0.50212 0.50669 0.39883 0.0
C195 C 0.53296 0.51865 0.46181 0.0
C196 C 0.56912 0.53449 0.42979 0.0
C197 C 0.57405 0.53938 0.33652 0.0
C198 C 0.46325 0.49099 0.43023 0.0
C199 C 0.60256 0.54599 0.49387 0.0
H200 H 0.52801 0.56415 0.75554 0.0
H201 H 0.50341 0.45104 0.72044 0.0
H202 H 0.56654 0.59397 0.54953 0.0
H203 H 0.51807 0.57601 0.52558 0.0
H204 H 0.53984 0.60161 0.63333 0.0
H205 H 0.51102 0.42515 0.58248 0.0
H206 H 0.4927 0.43822 0.48834 0.0
H207 H 0.54171 0.45766 0.50579 0.0
H208 H 0.48426 0.50068 0.25727 0.0
H209 H 0.60177 0.55211 0.31212 0.0
H210 H 0.46224 0.51105 0.4812 0.0
H211 H 0.45505 0.46506 0.46399 0.0
H212 H 0.44257 0.48475 0.37308 0.0
H213 H 0.60651 0.56888 0.54333 0.0
H214 H 0.62839 0.55544 0.45729 0.0
H215 H 0.59815 0.52234 0.53352 0.0
C216 C 0.12843 0.47979 0.04468 0.0
C217 C 0.12768 0.51075 0.01395 0.0
C218 C 0.16141 0.47833 0.04847 0.0
C219 C 0.19458 0.50857 0.021 0.0
C220 C 0.19407 0.53993 0.99003 0.0
C221 C 0.16067 0.54063 0.98679 0.0
C222 C 0.16074 0.44437 0.08193 0.0
C223 C 0.22883 0.57276 0.96032 0.0
C224 C 0.28547 0.51744 0.11014 0.0
C225 C 0.29473 0.50164 0.03604 0.0
C226 C 0.25336 0.52047 0.10561 0.0
C227 C 0.22978 0.50732 0.02507 0.0
C228 C 0.23931 0.49198 0.94942 0.0
C229 C 0.27165 0.48937 0.95576 0.0
C230 C 0.24438 0.53724 0.18758 0.0
C231 C 0.21487 0.47753 0.86242 0.0
H232 H 0.10317 0.45653 0.06578 0.0
H233 H 0.16049 0.56472 0.96299 0.0
H234 H 0.17003 0.43154 0.02854 0.0
H235 H 0.18033 0.45247 0.14247 0.0
H236 H 0.13267 0.42315 0.10047 0.0
H237 H 0.22386 0.59511 0.9384 0.0
H238 H 0.25055 0.5845 0.01701 0.0
H239 H 0.23992 0.56366 0.90302 0.0
H240 H 0.3034 0.52746 0.17198 0.0
H241 H 0.27831 0.47673 0.89857 0.0
H242 H 0.2176 0.51629 0.21292 0.0
H243 H 0.24114 0.5609 0.16832 0.0
H244 H 0.26616 0.54725 0.24398 0.0
H245 H 0.1872 0.45413 0.87613 0.0
H246 H 0.22684 0.46768 0.80866 0.0
H247 H 0.21052 0.49962 0.83613 0.0
C248 C 0.63434 0.15213 1.00145 0.0
C249 C 0.63183 0.11955 0.03141 0.0
C250 C 0.66863 0.18536 1.00323 0.0
C251 C 0.70132 0.18611 0.03554 0.0
C252 C 0.69893 0.15347 0.06697 0.0
C253 C 0.66427 0.12064 0.0646 0.0
C254 C 0.66995 0.21955 0.96936 0.0
C255 C 0.73309 0.15307 0.10201 0.0
C256 C 0.79504 0.25891 0.95895 0.0
C257 C 0.80951 0.28474 0.03523 0.0
C258 C 0.75967 0.22708 0.9576 0.0
C259 C 0.73818 0.22073 0.03455 0.0
C260 C 0.75235 0.24699 0.11122 0.0
C261 C 0.78778 0.2787 0.11055 0.0
C262 C 0.74549 0.19997 0.8742 0.0
C263 C 0.73042 0.24118 0.19475 0.0
H264 H 0.60949 0.1517 0.97586 0.0
H265 H 0.66273 0.0957 0.0879 0.0
H266 H 0.68312 0.2429 0.0229 0.0
H267 H 0.68721 0.22833 0.90964 0.0
H268 H 0.64191 0.21475 0.94934 0.0
H269 H 0.72644 0.12574 0.12629 0.0
H270 H 0.75274 0.15964 0.04726 0.0
H271 H 0.74755 0.17479 0.15889 0.0
H272 H 0.81145 0.26362 0.90005 0.0
H273 H 0.79891 0.29827 0.17015 0.0
H274 H 0.71846 0.19592 0.84768 0.0
H275 H 0.74074 0.17248 0.89243 0.0
H276 H 0.76514 0.20947 0.819 0.0
H277 H 0.70277 0.2375 0.1759 0.0
H278 H 0.74477 0.2648 0.24747 0.0
H279 H 0.7257 0.21542 0.22482 0.0
C280 C 0.52795 0.7782 0.96384 0.0
C281 C 0.54464 0.80237 0.04249 0.0
C282 C 0.52491 0.74295 0.95591 0.0
C283 C 0.53879 0.73144 0.02842 0.0
C284 C 0.55544 0.75557 0.10816 0.0
C285 C 0.55824 0.79068 0.11411 0.0
C286 C 0.50695 0.71805 0.86977 0.0
C287 C 0.57065 0.74443 0.18701 0.0
C288 C 0.50382 0.62837 0.04684 0.0
C289 C 0.53302 0.62459 0.0127 0.0
C290 C 0.50511 0.66281 0.05125 0.0
C291 C 0.53633 0.69434 0.02081 0.0
C292 C 0.56567 0.69064 0.98527 0.0
C293 C 0.56368 0.65587 0.98168 0.0
C294 C 0.47323 0.66555 0.08957 0.0
C295 C 0.5994 0.72352 0.95187 0.0
H296 H 0.51694 0.78672 0.90856 0.0
H297 H 0.57176 0.8093 0.17453 0.0
H298 H 0.52686 0.71134 0.83747 0.0
H299 H 0.48276 0.6914 0.88612 0.0
H300 H 0.49746 0.73104 0.81972 0.0
H301 H 0.58213 0.76607 0.24491 0.0
H302 H 0.54847 0.71817 0.21152 0.0
H303 H 0.59291 0.73917 0.16438 0.0
H304 H 0.47995 0.60442 0.07083 0.0
H305 H 0.58636 0.65333 0.95498 0.0
H306 H 0.4618 0.6767 0.03931 0.0
H307 H 0.48325 0.68523 0.1513 0.0
H308 H 0.45049 0.63825 0.10789 0.0
H309 H 0.59088 0.73588 0.89809 0.0
H310 H 0.61939 0.71585 0.92399 0.0
H311 H 0.6138 0.74534 0.00857 0.0
C312 C 0.89155 0.49073 0.00803 0.0
C313 C 0.92482 0.52127 0.98448 0.0
C314 C 0.85825 0.49162 0.00628 0.0
C315 C 0.85816 0.52388 0.98074 0.0
C316 C 0.89161 0.55475 0.95668 0.0
C317 C 0.92447 0.55305 0.95868 0.0
C318 C 0.82319 0.45808 0.03213 0.0
C319 C 0.89276 0.58972 0.92935 0.0
C320 C 0.76761 0.51765 0.89885 0.0
C321 C 0.75882 0.53227 0.97609 0.0
C322 C 0.79955 0.51427 0.89976 0.0
C323 C 0.82322 0.52561 0.97996 0.0
C324 C 0.81406 0.53963 0.05873 0.0
C325 C 0.78206 0.54287 0.05577 0.0
C326 C 0.8084 0.49934 0.81423 0.0
C327 C 0.83837 0.55175 0.14582 0.0
H328 H 0.89142 0.46599 0.02793 0.0
H329 H 0.94998 0.57684 0.94059 0.0
H330 H 0.81207 0.46587 0.09169 0.0
H331 H 0.80164 0.44789 0.97525 0.0
H332 H 0.8278 0.43497 0.04922 0.0
H333 H 0.92089 0.61115 0.91173 0.0
H334 H 0.87306 0.5831 0.86979 0.0
H335 H 0.88389 0.60168 0.9858 0.0
H336 H 0.75005 0.5098 0.83672 0.0
H337 H 0.7752 0.55374 0.11606 0.0
H338 H 0.81177 0.47528 0.82866 0.0
H339 H 0.83509 0.52101 0.79011 0.0
H340 H 0.78649 0.49045 0.75856 0.0
H341 H 0.84188 0.52858 0.16788 0.0
H342 H 0.82676 0.56092 0.20192 0.0
H343 H 0.86637 0.57503 0.13404 0.0
C344 C 0.26525 0.75521 0.89342 0.0
C345 C 0.24214 0.74852 0.96613 0.0
C346 C 0.30044 0.78734 0.89551 0.0
C347 C 0.31292 0.81355 0.97212 0.0
C348 C 0.28999 0.80671 0.04636 0.0
C349 C 0.25494 0.7743 0.04252 0.0
C350 C 0.32412 0.79344 0.81524 0.0
C351 C 0.3022 0.83399 0.12921 0.0
C352 C 0.41628 0.88289 0.01295 0.0
C353 C 0.41913 0.91509 0.97938 0.0
C354 C 0.38199 0.84965 0.0106 0.0
C355 C 0.34965 0.84847 0.97388 0.0
C356 C 0.35236 0.88077 0.93927 0.0
C357 C 0.38702 0.91364 0.9424 0.0
C358 C 0.38033 0.81584 0.04808 0.0
C359 C 0.31856 0.88068 0.89947 0.0
H360 H 0.25581 0.73522 0.83466 0.0
H361 H 0.23712 0.76962 0.0985 0.0
H362 H 0.32966 0.81936 0.78465 0.0
H363 H 0.35134 0.79695 0.83807 0.0
H364 H 0.31075 0.77001 0.76176 0.0
H365 H 0.28159 0.82412 0.18223 0.0
H366 H 0.32911 0.83892 0.1593 0.0
H367 H 0.30653 0.86112 0.10917 0.0
H368 H 0.44086 0.88362 0.04176 0.0
H369 H 0.38883 0.9383 0.91636 0.0
H370 H 0.36856 0.79236 0.9948 0.0
H371 H 0.36169 0.80696 0.10524 0.0
H372 H 0.40807 0.82112 0.07289 0.0
H373 H 0.30538 0.85906 0.84191 0.0
H374 H 0.32536 0.90797 0.87464 0.0
H375 H 0.29777 0.87364 0.95156 0.0
C376 C 0.55245 0.40779 0.98657 0.0
C377 C 0.52136 0.41049 0.00981 0.0
C378 C 0.55134 0.37344 0.98191 0.0
C379 C 0.51827 0.34084 1.00022 0.0
C380 C 0.48692 0.34342 0.02461 0.0
C381 C 0.48888 0.37818 0.02941 0.0
C382 C 0.58546 0.37197 0.9563 0.0
C383 C 0.45105 0.30933 0.04412 0.0
C384 C 0.5002 0.24686 0.89881 0.0
C385 C 0.50792 0.23202 0.97412 0.0
C386 C 0.50398 0.28238 0.90611 0.0
C387 C 0.51592 0.30382 0.99079 0.0
C388 C 0.5246 0.28941 0.06662 0.0
C389 C 0.52051 0.25372 0.0574 0.0
C390 C 0.4946 0.29671 0.82343 0.0
C391 C 0.53747 0.31141 0.15802 0.0
H392 H 0.57776 0.43257 0.97169 0.0
H393 H 0.46468 0.37989 0.04724 0.0
H394 H 0.5935 0.35898 0.00942 0.0
H395 H 0.57935 0.35441 0.89173 0.0
H396 H 0.60943 0.39998 0.94756 0.0
H397 H 0.42952 0.31614 0.0645 0.0
H398 H 0.4401 0.28948 0.98271 0.0
H399 H 0.45603 0.29497 0.09933 0.0
H400 H 0.49107 0.23059 0.83379 0.0
H401 H 0.5262 0.24239 0.11618 0.0
H402 H 0.51874 0.32366 0.80848 0.0
H403 H 0.47138 0.30178 0.8371 0.0
H404 H 0.48651 0.27697 0.76205 0.0
H405 H 0.56209 0.33911 0.15101 0.0
H406 H 0.54471 0.29704 0.20915 0.0
H407 H 0.51531 0.31613 0.1841 0.0
loop_
_geom_bond_atom_site_label_1
_geom_bond_atom_site_label_2
_geom_bond_distance
_geom_bond_site_symmetry_2
_ccdc_geom_bond_type
C0 Eu1 2.835 . S
C0 C2 1.499 1_554 S
C0 O20 1.257 1_554 S
C0 O21 1.260 . S
Eu1 C0 2.835 . S
Eu1 O20 2.473 1_554 S
Eu1 O21 2.480 . S
Eu1 O22 2.430 . S
Eu1 O23 2.670 1_455 S
Eu1 O24 2.394 . S
Eu1 O29 2.355 1_554 S
Eu1 O31 2.374 1_455 S
C2 C0 1.499 1_556 S
C2 C3 1.373 1_556 S
C2 C7 1.382 . S
C3 C2 1.373 1_554 S
C3 C4 1.395 . S
C3 H32 0.931 . S
C4 C3 1.395 . S
C4 C5 1.383 1_554 S
C4 H33 0.931 . S
C5 C4 1.383 1_556 S
C5 C6 1.394 . S
C6 C5 1.394 . S
C6 C7 1.378 . S
C6 H34 0.931 . S
C7 C2 1.382 . S
C7 C6 1.378 . S
C7 H35 0.931 . S
C8 O22 1.259 . S
C8 O23 1.270 1_455 S
C9 O24 1.251 . S
C9 O25 1.251 1_554 S
C10 Eu11 2.835 . S
C10 C12 1.499 1_556 S
C10 O26 1.257 1_556 S
C10 O27 1.260 . S
Eu11 C10 2.835 . S
Eu11 O23 2.355 1_556 S
Eu11 O25 2.374 1_655 S
Eu11 O26 2.473 1_556 S
Eu11 O27 2.480 . S
Eu11 O28 2.430 . S
Eu11 O29 2.670 1_655 S
Eu11 O30 2.394 . S
C12 C10 1.499 1_554 S
C12 C13 1.371 1_554 S
C12 C17 1.385 . S
C13 C12 1.371 1_556 S
C13 C14 1.395 . S
C13 H36 0.931 . S
C14 C13 1.395 . S
C14 C15 1.383 1_556 S
C14 H37 0.931 . S
C15 C14 1.383 1_554 S
C15 C16 1.394 . S
C16 C15 1.394 . S
C16 C17 1.378 . S
C16 H38 0.931 . S
C17 C12 1.385 . S
C17 C16 1.378 . S
C17 H39 0.931 . S
C18 O28 1.259 . S
C18 O29 1.270 1_655 S
C19 O30 1.251 . S
C19 O31 1.250 1_556 S
O20 C0 1.257 1_556 S
O20 Eu1 2.473 1_556 S
O21 C0 1.260 . S
O21 Eu1 2.480 . S
O22 Eu1 2.430 . S
O22 C8 1.259 . S
O23 Eu1 2.670 1_655 S
O23 C8 1.270 1_655 S
O23 Eu11 2.355 1_554 S
O24 Eu1 2.394 . S
O24 C9 1.251 . S
O25 C9 1.251 1_556 S
O25 Eu11 2.374 1_455 S
O26 C10 1.257 1_554 S
O26 Eu11 2.473 1_554 S
O27 C10 1.260 . S
O27 Eu11 2.480 . S
O28 Eu11 2.430 . S
O28 C18 1.259 . S
O29 Eu1 2.355 1_556 S
O29 Eu11 2.670 1_455 S
O29 C18 1.270 1_455 S
O30 Eu11 2.394 . S
O30 C19 1.251 . S
O31 Eu1 2.374 1_655 S
O31 C19 1.250 1_554 S
H32 C3 0.931 . S
H33 C4 0.931 . S
H34 C6 0.931 . S
H35 C7 0.931 . S
H36 C13 0.931 . S
H37 C14 0.931 . S
H38 C16 0.931 . S
H39 C17 0.931 . S
C40 Eu41 2.833 1_556 S
C40 C42 1.502 . S
C40 O60 1.264 . S
C40 O61 1.252 1_556 S
Eu41 C40 2.833 1_554 S
Eu41 O60 2.473 1_554 S
Eu41 O61 2.480 . S
Eu41 O62 2.430 . S
Eu41 O63 2.670 1_545 S
Eu41 O64 2.394 . S
Eu41 O69 2.355 1_554 S
Eu41 O71 2.374 1_544 S
C42 C40 1.502 . S
C42 C43 1.377 1_556 S
C42 C47 1.377 . S
C43 C42 1.377 1_554 S
C43 C44 1.395 . S
C43 H72 0.931 . S
C44 C43 1.395 . S
C44 C45 1.383 1_554 S
C44 H73 0.931 . S
C45 C44 1.383 1_556 S
C45 C46 1.394 . S
C46 C45 1.394 . S
C46 C47 1.378 . S
C46 H74 0.931 . S
C47 C42 1.377 . S
C47 C46 1.378 . S
C47 H75 0.931 . S
C48 O62 1.259 . S
C48 O63 1.270 1_545 S
C49 O64 1.251 . S
C49 O65 1.251 . S
C50 Eu51 2.833 1_554 S
C50 C52 1.502 . S
C50 O66 1.266 . S
C50 O67 1.250 1_554 S
Eu51 C50 2.833 1_556 S
Eu51 O63 2.355 1_556 S
Eu51 O65 2.374 1_566 S
Eu51 O66 2.473 1_556 S
Eu51 O67 2.480 . S
Eu51 O68 2.430 . S
Eu51 O69 2.670 1_565 S
Eu51 O70 2.394 . S
C52 C50 1.502 . S
C52 C53 1.377 1_554 S
C52 C57 1.377 . S
C53 C52 1.377 1_556 S
C53 C54 1.395 . S
C53 H76 0.931 . S
C54 C53 1.395 . S
C54 C55 1.383 1_556 S
C54 H77 0.931 . S
C55 C54 1.383 1_554 S
C55 C56 1.394 . S
C56 C55 1.394 . S
C56 C57 1.378 . S
C56 H78 0.931 . S
C57 C52 1.377 . S
C57 C56 1.378 . S
C57 H79 0.931 . S
C58 O68 1.259 . S
C58 O69 1.270 1_565 S
C59 O70 1.251 . S
C59 O71 1.251 . S
O60 C40 1.264 . S
O60 Eu41 2.473 1_556 S
O61 C40 1.252 1_554 S
O61 Eu41 2.480 . S
O62 Eu41 2.430 . S
O62 C48 1.259 . S
O63 Eu41 2.670 1_565 S
O63 C48 1.270 1_565 S
O63 Eu51 2.355 1_554 S
O64 Eu41 2.394 . S
O64 C49 1.251 . S
O65 C49 1.251 . S
O65 Eu51 2.374 1_544 S
O66 C50 1.266 . S
O66 Eu51 2.473 1_554 S
O67 C50 1.250 1_556 S
O67 Eu51 2.480 . S
O68 Eu51 2.430 . S
O68 C58 1.259 . S
O69 Eu41 2.355 1_556 S
O69 Eu51 2.670 1_545 S
O69 C58 1.270 1_545 S
O70 Eu51 2.394 . S
O70 C59 1.251 . S
O71 Eu41 2.374 1_566 S
O71 C59 1.251 . S
H72 C43 0.931 . S
H73 C44 0.931 . S
H74 C46 0.931 . S
H75 C47 0.931 . S
H76 C53 0.931 . S
H77 C54 0.931 . S
H78 C56 0.931 . S
H79 C57 0.931 . S
C80 Eu81 2.835 . S
C80 C82 1.500 1_554 S
C80 O100 1.257 1_554 S
C80 O101 1.260 . S
Eu81 C80 2.835 . S
Eu81 O100 2.473 1_554 S
Eu81 O101 2.480 . S
Eu81 O102 2.430 . S
Eu81 O103 2.670 . S
Eu81 O104 2.394 . S
Eu81 O109 2.355 1_554 S
Eu81 O111 2.374 . S
C82 C80 1.500 1_556 S
C82 C83 1.377 1_556 S
C82 C87 1.377 . S
C83 C82 1.377 1_554 S
C83 C84 1.395 . S
C83 H112 0.931 . S
C84 C83 1.395 . S
C84 C85 1.383 1_554 S
C84 H113 0.931 . S
C85 C84 1.383 1_556 S
C85 C86 1.394 . S
C86 C85 1.394 . S
C86 C87 1.378 . S
C86 H114 0.931 . S
C87 C82 1.377 . S
C87 C86 1.378 . S
C87 H115 0.931 . S
C88 O102 1.259 . S
C88 O103 1.270 . S
C89 O104 1.251 . S
C89 O105 1.251 1_554 S
C90 Eu91 2.835 . S
C90 C92 1.500 1_556 S
C90 O106 1.257 1_556 S
C90 O107 1.260 . S
Eu91 C90 2.835 . S
Eu91 O103 2.355 1_556 S
Eu91 O105 2.374 . S
Eu91 O106 2.473 1_556 S
Eu91 O107 2.480 . S
Eu91 O108 2.430 . S
Eu91 O109 2.670 . S
Eu91 O110 2.394 . S
C92 C90 1.500 1_554 S
C92 C93 1.377 1_554 S
C92 C97 1.377 . S
C93 C92 1.377 1_556 S
C93 C94 1.395 . S
C93 H116 0.931 . S
C94 C93 1.395 . S
C94 C95 1.383 1_556 S
C94 H117 0.931 . S
C95 C94 1.383 1_554 S
C95 C96 1.394 . S
C96 C95 1.394 . S
C96 C97 1.378 . S
C96 H118 0.931 . S
C97 C92 1.377 . S
C97 C96 1.378 . S
C97 H119 0.931 . S
C98 O108 1.259 . S
C98 O109 1.270 . S
C99 O110 1.251 . S
C99 O111 1.251 1_556 S
O100 C80 1.257 1_556 S
O100 Eu81 2.473 1_556 S
O101 C80 1.260 . S
O101 Eu81 2.480 . S
O102 Eu81 2.430 . S
O102 C88 1.259 . S
O103 Eu81 2.670 . S
O103 C88 1.270 . S
O103 Eu91 2.355 1_554 S
O104 Eu81 2.394 . S
O104 C89 1.251 . S
O105 C89 1.251 1_556 S
O105 Eu91 2.374 . S
O106 C90 1.257 1_554 S
O106 Eu91 2.473 1_554 S
O107 C90 1.260 . S
O107 Eu91 2.480 . S
O108 Eu91 2.430 . S
O108 C98 1.259 . S
O109 Eu81 2.355 1_556 S
O109 Eu91 2.670 . S
O109 C98 1.270 . S
O110 Eu91 2.394 . S
O110 C99 1.251 . S
O111 Eu81 2.374 . S
O111 C99 1.251 1_554 S
H112 C83 0.931 . S
H113 C84 0.931 . S
H114 C86 0.931 . S
H115 C87 0.931 . S
H116 C93 0.931 . S
H117 C94 0.931 . S
H118 C96 0.931 . S
H119 C97 0.931 . S
C120 C121 1.391 . S
C120 C122 1.394 . S
C120 H136 0.931 . S
C121 C120 1.391 . S
C121 C125 1.376 1_455 S
C122 C120 1.394 . S
C122 C123 1.369 . S
C122 C126 1.531 . S
C123 C122 1.369 . S
C123 C124 1.413 1_455 S
C123 C131 1.503 . S
C124 C123 1.413 1_655 S
C124 C125 1.395 . S
C124 C127 1.506 . S
C125 C121 1.376 1_655 S
C125 C124 1.395 . S
C125 H137 0.929 . S
C126 C122 1.531 . S
C126 H138 0.960 . S
C126 H139 0.962 . S
C126 H140 0.960 . S
C127 C124 1.506 . S
C127 H141 0.961 . S
C127 H142 0.961 . S
C127 H143 0.961 1_655 S
C128 C129 1.370 1_655 S
C128 C130 1.363 . S
C128 H144 0.931 . S
C129 C128 1.370 1_455 S
C129 C133 1.408 . S
C130 C128 1.363 . S
C130 C131 1.370 1_655 S
C130 C134 1.524 . S
C131 C123 1.503 . S
C131 C130 1.370 1_455 S
C131 C132 1.403 . S
C132 C131 1.403 . S
C132 C133 1.404 . S
C132 C135 1.539 . S
C133 C129 1.408 . S
C133 C132 1.404 . S
C133 H145 0.930 . S
C134 C130 1.524 . S
C134 H146 0.956 . S
C134 H147 0.961 . S
C134 H148 0.961 . S
C135 C132 1.539 . S
C135 H149 0.958 . S
C135 H150 0.961 . S
C135 H151 0.960 . S
H136 C120 0.931 . S
H137 C125 0.929 . S
H138 C126 0.960 . S
H139 C126 0.962 . S
H140 C126 0.960 . S
H141 C127 0.961 . S
H142 C127 0.961 . S
H143 C127 0.961 1_455 S
H144 C128 0.931 . S
H145 C133 0.930 . S
H146 C134 0.956 . S
H147 C134 0.961 . S
H148 C134 0.961 . S
H149 C135 0.958 . S
H150 C135 0.961 . S
H151 C135 0.960 . S
C152 C153 1.391 . S
C152 C154 1.394 . S
C152 H168 0.931 . S
C153 C152 1.391 . S
C153 C157 1.376 1_565 S
C154 C152 1.394 . S
C154 C155 1.369 . S
C154 C158 1.531 . S
C155 C154 1.369 . S
C155 C156 1.410 . S
C155 C163 1.503 . S
C156 C155 1.410 . S
C156 C157 1.392 1_565 S
C156 C159 1.511 1_565 S
C157 C153 1.376 1_545 S
C157 C156 1.392 1_545 S
C157 H169 0.929 . S
C158 C154 1.531 . S
C158 H170 0.960 . S
C158 H171 0.936 1_565 S
C158 H172 0.960 . S
C159 C156 1.511 1_545 S
C159 H173 0.961 . S
C159 H174 0.961 . S
C159 H175 0.961 1_545 S
C160 C161 1.370 1_545 S
C160 C162 1.363 . S
C160 H176 0.931 . S
C161 C160 1.370 1_565 S
C161 C165 1.408 . S
C162 C160 1.363 . S
C162 C163 1.370 1_545 S
C162 C166 1.524 . S
C163 C155 1.503 . S
C163 C162 1.370 1_565 S
C163 C164 1.403 . S
C164 C163 1.403 . S
C164 C165 1.404 . S
C164 C167 1.539 . S
C165 C161 1.408 . S
C165 C164 1.404 . S
C165 H177 0.930 . S
C166 C162 1.524 . S
C166 H178 0.956 . S
C166 H179 0.961 . S
C166 H180 0.961 . S
C167 C164 1.539 . S
C167 H181 0.958 . S
C167 H182 0.961 . S
C167 H183 0.960 . S
H168 C152 0.931 . S
H169 C157 0.929 . S
H170 C158 0.960 . S
H171 C158 0.936 1_545 S
H172 C158 0.960 . S
H173 C159 0.961 . S
H174 C159 0.961 . S
H175 C159 0.961 1_565 S
H176 C160 0.931 . S
H177 C165 0.930 . S
H178 C166 0.956 . S
H179 C166 0.961 . S
H180 C166 0.961 . S
H181 C167 0.958 . S
H182 C167 0.961 . S
H183 C167 0.960 . S
C184 C185 1.391 . S
C184 C186 1.394 . S
C184 H200 0.931 . S
C185 C184 1.391 . S
C185 C189 1.376 . S
C186 C184 1.394 . S
C186 C187 1.369 . S
C186 C190 1.531 . S
C187 C186 1.369 . S
C187 C188 1.410 . S
C187 C195 1.503 . S
C188 C187 1.410 . S
C188 C189 1.392 . S
C188 C191 1.511 . S
C189 C185 1.376 . S
C189 C188 1.392 . S
C189 H201 0.929 . S
C190 C186 1.531 . S
C190 H202 0.960 . S
C190 H203 0.962 . S
C190 H204 0.960 . S
C191 C188 1.511 . S
C191 H205 0.961 . S
C191 H206 0.961 . S
C191 H207 0.961 . S
C192 C193 1.370 . S
C192 C194 1.363 . S
C192 H208 0.931 . S
C193 C192 1.370 . S
C193 C197 1.408 . S
C194 C192 1.363 . S
C194 C195 1.370 . S
C194 C198 1.524 . S
C195 C187 1.503 . S
C195 C194 1.370 . S
C195 C196 1.403 . S
C196 C195 1.403 . S
C196 C197 1.404 . S
C196 C199 1.539 . S
C197 C193 1.408 . S
C197 C196 1.404 . S
C197 H209 0.930 . S
C198 C194 1.524 . S
C198 H210 0.956 . S
C198 H211 0.961 . S
C198 H212 0.961 . S
C199 C196 1.539 . S
C199 H213 0.958 . S
C199 H214 0.961 . S
C199 H215 0.960 . S
H200 C184 0.931 . S
H201 C189 0.929 . S
H202 C190 0.960 . S
H203 C190 0.962 . S
H204 C190 0.960 . S
H205 C191 0.961 . S
H206 C191 0.961 . S
H207 C191 0.961 . S
H208 C192 0.931 . S
H209 C197 0.930 . S
H210 C198 0.956 . S
H211 C198 0.961 . S
H212 C198 0.961 . S
H213 C199 0.958 . S
H214 C199 0.961 . S
H215 C199 0.960 . S
C216 C217 1.391 . S
C216 C218 1.394 . S
C216 H232 0.931 . S
C217 C216 1.391 . S
C217 C221 1.376 1_554 S
C218 C216 1.394 . S
C218 C219 1.375 . S
C218 C222 1.531 . S
C219 C218 1.375 . S
C219 C220 1.404 1_554 S
C219 C227 1.504 . S
C220 C219 1.404 1_556 S
C220 C221 1.392 . S
C220 C223 1.511 . S
C221 C217 1.376 1_556 S
C221 C220 1.392 . S
C221 H233 0.929 . S
C222 C218 1.531 . S
C222 H234 0.960 . S
C222 H235 0.962 . S
C222 H236 0.960 . S
C223 C220 1.511 . S
C223 H237 0.961 . S
C223 H238 0.961 . S
C223 H239 0.961 . S
C224 C225 1.370 . S
C224 C226 1.363 . S
C224 H240 0.931 . S
C225 C224 1.370 . S
C225 C229 1.408 1_554 S
C226 C224 1.363 . S
C226 C227 1.370 . S
C226 C230 1.524 . S
C227 C219 1.504 . S
C227 C226 1.370 . S
C227 C228 1.403 1_554 S
C228 C227 1.403 1_556 S
C228 C229 1.404 . S
C228 C231 1.539 . S
C229 C225 1.408 1_556 S
C229 C228 1.404 . S
C229 H241 0.930 . S
C230 C226 1.524 . S
C230 H242 0.956 . S
C230 H243 0.961 . S
C230 H244 0.961 . S
C231 C228 1.539 . S
C231 H245 0.958 . S
C231 H246 0.961 . S
C231 H247 0.960 . S
H232 C216 0.931 . S
H233 C221 0.929 . S
H234 C222 0.960 . S
H235 C222 0.962 . S
H236 C222 0.960 . S
H237 C223 0.961 . S
H238 C223 0.961 . S
H239 C223 0.961 . S
H240 C224 0.931 . S
H241 C229 0.930 . S
H242 C230 0.956 . S
H243 C230 0.961 . S
H244 C230 0.961 . S
H245 C231 0.958 . S
H246 C231 0.961 . S
H247 C231 0.960 . S
C248 C249 1.391 . S
C248 C250 1.394 . S
C248 H264 0.931 . S
C249 C248 1.391 . S
C249 C253 1.376 . S
C250 C248 1.394 . S
C250 C251 1.369 . S
C250 C254 1.531 . S
C251 C250 1.369 . S
C251 C252 1.410 . S
C251 C259 1.503 . S
C252 C251 1.410 . S
C252 C253 1.392 . S
C252 C255 1.511 . S
C253 C249 1.376 . S
C253 C252 1.392 . S
C253 H265 0.929 . S
C254 C250 1.531 . S
C254 H266 0.960 . S
C254 H267 0.962 . S
C254 H268 0.960 . S
C255 C252 1.511 . S
C255 H269 0.961 1_554 S
C255 H270 0.961 1_554 S
C255 H271 0.961 . S
C256 C257 1.370 1_556 S
C256 C258 1.363 . S
C256 H272 0.931 . S
C257 C256 1.370 1_554 S
C257 C261 1.408 . S
C258 C256 1.363 . S
C258 C259 1.370 1_556 S
C258 C262 1.524 . S
C259 C251 1.503 . S
C259 C258 1.370 1_554 S
C259 C260 1.403 . S
C260 C259 1.403 . S
C260 C261 1.404 . S
C260 C263 1.539 . S
C261 C257 1.408 . S
C261 C260 1.404 . S
C261 H273 0.930 . S
C262 C258 1.524 . S
C262 H274 0.956 . S
C262 H275 0.961 . S
C262 H276 0.961 . S
C263 C260 1.539 . S
C263 H277 0.958 . S
C263 H278 0.961 . S
C263 H279 0.960 . S
H264 C248 0.931 . S
H265 C253 0.929 . S
H266 C254 0.960 . S
H267 C254 0.962 . S
H268 C254 0.960 . S
H269 C255 0.961 1_556 S
H270 C255 0.961 1_556 S
H271 C255 0.961 . S
H272 C256 0.931 . S
H273 C261 0.930 . S
H274 C262 0.956 . S
H275 C262 0.961 . S
H276 C262 0.961 . S
H277 C263 0.958 . S
H278 C263 0.961 . S
H279 C263 0.960 . S
C280 C281 1.391 1_556 S
C280 C282 1.394 . S
C280 H296 0.931 . S
C281 C280 1.391 1_554 S
C281 C285 1.376 . S
C282 C280 1.394 . S
C282 C283 1.369 1_556 S
C282 C286 1.531 . S
C283 C282 1.369 1_554 S
C283 C284 1.410 . S
C283 C291 1.503 . S
C284 C283 1.410 . S
C284 C285 1.392 . S
C284 C287 1.511 . S
C285 C281 1.376 . S
C285 C284 1.392 . S
C285 H297 0.929 . S
C286 C282 1.531 . S
C286 H298 0.960 . S
C286 H299 0.962 . S
C286 H300 0.960 . S
C287 C284 1.511 . S
C287 H301 0.961 . S
C287 H302 0.961 . S
C287 H303 0.961 . S
C288 C289 1.370 . S
C288 C290 1.363 . S
C288 H304 0.931 . S
C289 C288 1.370 . S
C289 C293 1.408 1_554 S
C290 C288 1.363 . S
C290 C291 1.370 . S
C290 C294 1.524 . S
C291 C283 1.503 . S
C291 C290 1.370 . S
C291 C292 1.403 1_554 S
C292 C291 1.403 1_556 S
C292 C293 1.404 . S
C292 C295 1.539 . S
C293 C289 1.408 1_556 S
C293 C292 1.404 . S
C293 H305 0.930 . S
C294 C290 1.524 . S
C294 H306 0.956 . S
C294 H307 0.961 . S
C294 H308 0.961 . S
C295 C292 1.539 . S
C295 H309 0.958 . S
C295 H310 0.961 . S
C295 H311 0.960 . S
H296 C280 0.931 . S
H297 C285 0.929 . S
H298 C286 0.960 . S
H299 C286 0.962 . S
H300 C286 0.960 . S
H301 C287 0.961 . S
H302 C287 0.961 . S
H303 C287 0.961 . S
H304 C288 0.931 . S
H305 C293 0.930 . S
H306 C294 0.956 . S
H307 C294 0.961 . S
H308 C294 0.961 . S
H309 C295 0.958 . S
H310 C295 0.961 . S
H311 C295 0.960 . S
C312 C313 1.391 . S
C312 C314 1.394 . S
C312 H328 0.931 . S
C313 C312 1.391 . S
C313 C317 1.376 1_556 S
C314 C312 1.394 . S
C314 C315 1.369 . S
C314 C318 1.531 . S
C315 C314 1.369 . S
C315 C316 1.410 1_556 S
C315 C323 1.503 . S
C316 C315 1.410 1_554 S
C316 C317 1.392 . S
C316 C319 1.511 . S
C317 C313 1.376 1_554 S
C317 C316 1.392 . S
C317 H329 0.929 . S
C318 C314 1.531 . S
C318 H330 0.960 . S
C318 H331 0.962 . S
C318 H332 0.960 . S
C319 C316 1.511 . S
C319 H333 0.961 . S
C319 H334 0.961 . S
C319 H335 0.961 . S
C320 C321 1.370 . S
C320 C322 1.363 . S
C320 H336 0.931 . S
C321 C320 1.370 . S
C321 C325 1.408 . S
C322 C320 1.363 . S
C322 C323 1.370 . S
C322 C326 1.524 . S
C323 C315 1.503 . S
C323 C322 1.370 . S
C323 C324 1.403 . S
C324 C323 1.403 . S
C324 C325 1.404 . S
C324 C327 1.539 1_556 S
C325 C321 1.408 . S
C325 C324 1.404 . S
C325 H337 0.930 1_556 S
C326 C322 1.524 . S
C326 H338 0.956 . S
C326 H339 0.961 . S
C326 H340 0.961 . S
C327 C324 1.539 1_554 S
C327 H341 0.958 1_554 S
C327 H342 0.961 . S
C327 H343 0.960 . S
H328 C312 0.931 . S
H329 C317 0.929 . S
H330 C318 0.960 . S
H331 C318 0.962 . S
H332 C318 0.960 . S
H333 C319 0.961 . S
H334 C319 0.961 . S
H335 C319 0.961 . S
H336 C320 0.931 . S
H337 C325 0.930 1_554 S
H338 C326 0.956 . S
H339 C326 0.961 . S
H340 C326 0.961 . S
H341 C327 0.958 1_556 S
H342 C327 0.961 . S
H343 C327 0.960 . S
C344 C345 1.391 . S
C344 C346 1.394 . S
C344 H360 0.931 . S
C345 C344 1.391 . S
C345 C349 1.376 . S
C346 C344 1.394 . S
C346 C347 1.369 . S
C346 C350 1.531 . S
C347 C346 1.369 . S
C347 C348 1.410 . S
C347 C355 1.503 . S
C348 C347 1.410 . S
C348 C349 1.392 . S
C348 C351 1.511 . S
C349 C345 1.376 . S
C349 C348 1.392 . S
C349 H361 0.929 . S
C350 C346 1.531 . S
C350 H362 0.960 . S
C350 H363 0.962 . S
C350 H364 0.960 . S
C351 C348 1.511 . S
C351 H365 0.961 1_556 S
C351 H366 0.961 1_556 S
C351 H367 0.961 . S
C352 C353 1.370 1_554 S
C352 C354 1.363 . S
C352 H368 0.931 . S
C353 C352 1.370 1_556 S
C353 C357 1.408 . S
C354 C352 1.363 . S
C354 C355 1.370 1_554 S
C354 C358 1.524 . S
C355 C347 1.503 . S
C355 C354 1.370 1_556 S
C355 C356 1.403 . S
C356 C355 1.403 . S
C356 C357 1.404 . S
C356 C359 1.539 . S
C357 C353 1.408 . S
C357 C356 1.404 . S
C357 H369 0.930 . S
C358 C354 1.524 . S
C358 H370 0.956 . S
C358 H371 0.961 . S
C358 H372 0.961 . S
C359 C356 1.539 . S
C359 H373 0.958 . S
C359 H374 0.961 . S
C359 H375 0.960 . S
H360 C344 0.931 . S
H361 C349 0.929 . S
H362 C350 0.960 . S
H363 C350 0.962 . S
H364 C350 0.960 . S
H365 C351 0.961 1_554 S
H366 C351 0.961 1_554 S
H367 C351 0.961 . S
H368 C352 0.931 . S
H369 C357 0.930 . S
H370 C358 0.956 . S
H371 C358 0.961 . S
H372 C358 0.961 . S
H373 C359 0.958 . S
H374 C359 0.961 . S
H375 C359 0.960 . S
C376 C377 1.391 . S
C376 C378 1.394 . S
C376 H392 0.931 . S
C377 C376 1.391 . S
C377 C381 1.376 1_554 S
C378 C376 1.394 . S
C378 C379 1.369 . S
C378 C382 1.531 . S
C379 C378 1.369 . S
C379 C380 1.410 1_554 S
C379 C387 1.503 1_554 S
C380 C379 1.410 1_556 S
C380 C381 1.392 . S
C380 C383 1.511 . S
C381 C377 1.376 1_556 S
C381 C380 1.392 . S
C381 H393 0.929 . S
C382 C378 1.531 . S
C382 H394 0.960 . S
C382 H395 0.962 . S
C382 H396 0.960 . S
C383 C380 1.511 . S
C383 H397 0.961 . S
C383 H398 0.961 . S
C383 H399 0.961 1_556 S
C384 C385 1.370 . S
C384 C386 1.363 . S
C384 H400 0.931 . S
C385 C384 1.370 . S
C385 C389 1.408 1_556 S
C386 C384 1.363 . S
C386 C387 1.370 . S
C386 C390 1.524 . S
C387 C379 1.503 1_556 S
C387 C386 1.370 . S
C387 C388 1.403 1_556 S
C388 C387 1.403 1_554 S
C388 C389 1.404 . S
C388 C391 1.539 . S
C389 C385 1.408 1_554 S
C389 C388 1.404 . S
C389 H401 0.930 . S
C390 C386 1.524 . S
C390 H402 0.956 . S
C390 H403 0.961 . S
C390 H404 0.961 . S
C391 C388 1.539 . S
C391 H405 0.958 . S
C391 H406 0.961 . S
C391 H407 0.960 . S
H392 C376 0.931 . S
H393 C381 0.929 . S
H394 C382 0.960 . S
H395 C382 0.962 . S
H396 C382 0.960 . S
H397 C383 0.961 . S
H398 C383 0.961 . S
H399 C383 0.961 1_554 S
H400 C384 0.931 . S
H401 C389 0.930 . S
H402 C390 0.956 . S
H403 C390 0.961 . S
H404 C390 0.961 . S
H405 C391 0.958 . S
H406 C391 0.961 . S
H407 C391 0.960 . S
C121 C18 1.441 1_455 S
C129 C8 1.445 . S
C153 C48 1.453 1_565 S
C161 C58 1.433 . S
C185 C98 1.473 . S
C193 C88 1.433 . S
C217 C9 1.590 . S
C225 C95 1.590 . S
C249 C49 1.573 . S
C257 C15 1.595 . S
C281 C55 1.585 . S
C289 C99 1.594 1_554 S
C313 C19 1.592 . S
C321 C85 1.594 . S
C345 C5 1.594 . S
C353 C59 1.583 . S
C377 C89 1.584 . S
C385 C45 1.595 . S
