# Generated by pormake.
# Topology wip, (6)-cn, num edge types: 1
# Building blocks:
#     Node 0, Type 0, BuildingBlock: CUWYAW_clean_sbu_0, # of connection points: 6
#     Node 1, Type 0, BuildingBlock: CUWYAW_clean_sbu_0, # of connection points: 6
#     Node 2, Type 0, BuildingBlock: CUWYAW_clean_sbu_0, # of connection points: 6
#     Node 3, Type 0, BuildingBlock: CUWYAW_clean_sbu_0, # of connection points: 6
#     Node 4, Type 0, BuildingBlock: CUWYAW_clean_sbu_0, # of connection points: 6
#     Node 5, Type 0, BuildingBlock: CUWYAW_clean_sbu_0, # of connection points: 6
#     Node 6, Type 0, BuildingBlock: CUWYAW_clean_sbu_0, # of connection points: 6
#     Node 7, Type 0, BuildingBlock: CUWYAW_clean_sbu_0, # of connection points: 6
#     Node 8, Type 0, BuildingBlock: CUWYAW_clean_sbu_0, # of connection points: 6
#     Node 9, Type 0, BuildingBlock: CUWYAW_clean_sbu_0, # of connection points: 6
#     Node 10, Type 0, BuildingBlock: CUWYAW_clean_sbu_0, # of connection points: 6
#     Node 11, Type 0, BuildingBlock: CUWYAW_clean_sbu_0, # of connection points: 6
#     Node 12, Type 0, BuildingBlock: CUWYAW_clean_sbu_0, # of connection points: 6
#     Node 13, Type 0, BuildingBlock: CUWYAW_clean_sbu_0, # of connection points: 6
#     Node 14, Type 0, BuildingBlock: CUWYAW_clean_sbu_0, # of connection points: 6
#     Node 15, Type 0, BuildingBlock: CUWYAW_clean_sbu_0, # of connection points: 6
#     Node 16, Type 0, BuildingBlock: CUWYAW_clean_sbu_0, # of connection points: 6
#     Node 17, Type 0, BuildingBlock: CUWYAW_clean_sbu_0, # of connection points: 6
#     Node 18, Type 0, BuildingBlock: CUWYAW_clean_sbu_0, # of connection points: 6
#     Node 19, Type 0, BuildingBlock: CUWYAW_clean_sbu_0, # of connection points: 6
#     Node 20, Type 0, BuildingBlock: CUWYAW_clean_sbu_0, # of connection points: 6
#     Node 21, Type 0, BuildingBlock: CUWYAW_clean_sbu_0, # of connection points: 6
#     Node 22, Type 0, BuildingBlock: CUWYAW_clean_sbu_0, # of connection points: 6
#     Node 23, Type 0, BuildingBlock: CUWYAW_clean_sbu_0, # of connection points: 6
#     Node 24, Type 0, BuildingBlock: CUWYAW_clean_sbu_0, # of connection points: 6
#     Node 25, Type 0, BuildingBlock: CUWYAW_clean_sbu_0, # of connection points: 6
#     Node 26, Type 0, BuildingBlock: CUWYAW_clean_sbu_0, # of connection points: 6
#     Node 27, Type 0, BuildingBlock: CUWYAW_clean_sbu_0, # of connection points: 6
#     Node 28, Type 0, BuildingBlock: CUWYAW_clean_sbu_0, # of connection points: 6
#     Node 29, Type 0, BuildingBlock: CUWYAW_clean_sbu_0, # of connection points: 6
#     Node 30, Type 0, BuildingBlock: CUWYAW_clean_sbu_0, # of connection points: 6
#     Node 31, Type 0, BuildingBlock: CUWYAW_clean_sbu_0, # of connection points: 6
#     Edge 32, Type (0, 0), BuildingBlock: AJUNOK_clean_linker_0, # of connection points: 2
#     Edge 33, Type (0, 0), BuildingBlock: AJUNOK_clean_linker_0, # of connection points: 2
#     Edge 34, Type (0, 0), BuildingBlock: AJUNOK_clean_linker_0, # of connection points: 2
#     Edge 35, Type (0, 0), BuildingBlock: AJUNOK_clean_linker_0, # of connection points: 2
#     Edge 36, Type (0, 0), BuildingBlock: AJUNOK_clean_linker_0, # of connection points: 2
#     Edge 37, Type (0, 0), BuildingBlock: AJUNOK_clean_linker_0, # of connection points: 2
#     Edge 38, Type (0, 0), BuildingBlock: AJUNOK_clean_linker_0, # of connection points: 2
#     Edge 39, Type (0, 0), BuildingBlock: AJUNOK_clean_linker_0, # of connection points: 2
#     Edge 40, Type (0, 0), BuildingBlock: AJUNOK_clean_linker_0, # of connection points: 2
#     Edge 41, Type (0, 0), BuildingBlock: AJUNOK_clean_linker_0, # of connection points: 2
#     Edge 42, Type (0, 0), BuildingBlock: AJUNOK_clean_linker_0, # of connection points: 2
#     Edge 43, Type (0, 0), BuildingBlock: AJUNOK_clean_linker_0, # of connection points: 2
#     Edge 44, Type (0, 0), BuildingBlock: AJUNOK_clean_linker_0, # of connection points: 2
#     Edge 45, Type (0, 0), BuildingBlock: AJUNOK_clean_linker_0, # of connection points: 2
#     Edge 46, Type (0, 0), BuildingBlock: AJUNOK_clean_linker_0, # of connection points: 2
#     Edge 47, Type (0, 0), BuildingBlock: AJUNOK_clean_linker_0, # of connection points: 2
#     Edge 48, Type (0, 0), BuildingBlock: AJUNOK_clean_linker_0, # of connection points: 2
#     Edge 49, Type (0, 0), BuildingBlock: AJUNOK_clean_linker_0, # of connection points: 2
#     Edge 50, Type (0, 0), BuildingBlock: AJUNOK_clean_linker_0, # of connection points: 2
#     Edge 51, Type (0, 0), BuildingBlock: AJUNOK_clean_linker_0, # of connection points: 2
#     Edge 52, Type (0, 0), BuildingBlock: AJUNOK_clean_linker_0, # of connection points: 2
#     Edge 53, Type (0, 0), BuildingBlock: AJUNOK_clean_linker_0, # of connection points: 2
#     Edge 54, Type (0, 0), BuildingBlock: AJUNOK_clean_linker_0, # of connection points: 2
#     Edge 55, Type (0, 0), BuildingBlock: AJUNOK_clean_linker_0, # of connection points: 2
#     Edge 56, Type (0, 0), BuildingBlock: AJUNOK_clean_linker_0, # of connection points: 2
#     Edge 57, Type (0, 0), BuildingBlock: AJUNOK_clean_linker_0, # of connection points: 2
#     Edge 58, Type (0, 0), BuildingBlock: AJUNOK_clean_linker_0, # of connection points: 2
#     Edge 59, Type (0, 0), BuildingBlock: AJUNOK_clean_linker_0, # of connection points: 2
#     Edge 60, Type (0, 0), BuildingBlock: AJUNOK_clean_linker_0, # of connection points: 2
#     Edge 61, Type (0, 0), BuildingBlock: AJUNOK_clean_linker_0, # of connection points: 2
#     Edge 62, Type (0, 0), BuildingBlock: AJUNOK_clean_linker_0, # of connection points: 2
#     Edge 63, Type (0, 0), BuildingBlock: AJUNOK_clean_linker_0, # of connection points: 2
#     Edge 64, Type (0, 0), BuildingBlock: AJUNOK_clean_linker_0, # of connection points: 2
#     Edge 65, Type (0, 0), BuildingBlock: AJUNOK_clean_linker_0, # of connection points: 2
#     Edge 66, Type (0, 0), BuildingBlock: AJUNOK_clean_linker_0, # of connection points: 2
#     Edge 67, Type (0, 0), BuildingBlock: AJUNOK_clean_linker_0, # of connection points: 2
#     Edge 68, Type (0, 0), BuildingBlock: AJUNOK_clean_linker_0, # of connection points: 2
#     Edge 69, Type (0, 0), BuildingBlock: AJUNOK_clean_linker_0, # of connection points: 2
#     Edge 70, Type (0, 0), BuildingBlock: AJUNOK_clean_linker_0, # of connection points: 2
#     Edge 71, Type (0, 0), BuildingBlock: AJUNOK_clean_linker_0, # of connection points: 2
#     Edge 72, Type (0, 0), BuildingBlock: AJUNOK_clean_linker_0, # of connection points: 2
#     Edge 73, Type (0, 0), BuildingBlock: AJUNOK_clean_linker_0, # of connection points: 2
#     Edge 74, Type (0, 0), BuildingBlock: AJUNOK_clean_linker_0, # of connection points: 2
#     Edge 75, Type (0, 0), BuildingBlock: AJUNOK_clean_linker_0, # of connection points: 2
#     Edge 76, Type (0, 0), BuildingBlock: AJUNOK_clean_linker_0, # of connection points: 2
#     Edge 77, Type (0, 0), BuildingBlock: AJUNOK_clean_linker_0, # of connection points: 2
#     Edge 78, Type (0, 0), BuildingBlock: AJUNOK_clean_linker_0, # of connection points: 2
#     Edge 79, Type (0, 0), BuildingBlock: AJUNOK_clean_linker_0, # of connection points: 2
#     Edge 80, Type (0, 0), BuildingBlock: AJUNOK_clean_linker_0, # of connection points: 2
#     Edge 81, Type (0, 0), BuildingBlock: AJUNOK_clean_linker_0, # of connection points: 2
#     Edge 82, Type (0, 0), BuildingBlock: AJUNOK_clean_linker_0, # of connection points: 2
#     Edge 83, Type (0, 0), BuildingBlock: AJUNOK_clean_linker_0, # of connection points: 2
#     Edge 84, Type (0, 0), BuildingBlock: AJUNOK_clean_linker_0, # of connection points: 2
#     Edge 85, Type (0, 0), BuildingBlock: AJUNOK_clean_linker_0, # of connection points: 2
#     Edge 86, Type (0, 0), BuildingBlock: AJUNOK_clean_linker_0, # of connection points: 2
#     Edge 87, Type (0, 0), BuildingBlock: AJUNOK_clean_linker_0, # of connection points: 2
#     Edge 88, Type (0, 0), BuildingBlock: AJUNOK_clean_linker_0, # of connection points: 2
#     Edge 89, Type (0, 0), BuildingBlock: AJUNOK_clean_linker_0, # of connection points: 2
#     Edge 90, Type (0, 0), BuildingBlock: AJUNOK_clean_linker_0, # of connection points: 2
#     Edge 91, Type (0, 0), BuildingBlock: AJUNOK_clean_linker_0, # of connection points: 2
#     Edge 92, Type (0, 0), BuildingBlock: AJUNOK_clean_linker_0, # of connection points: 2
#     Edge 93, Type (0, 0), BuildingBlock: AJUNOK_clean_linker_0, # of connection points: 2
#     Edge 94, Type (0, 0), BuildingBlock: AJUNOK_clean_linker_0, # of connection points: 2
#     Edge 95, Type (0, 0), BuildingBlock: AJUNOK_clean_linker_0, # of connection points: 2
#     Edge 96, Type (0, 0), BuildingBlock: AJUNOK_clean_linker_0, # of connection points: 2
#     Edge 97, Type (0, 0), BuildingBlock: AJUNOK_clean_linker_0, # of connection points: 2
#     Edge 98, Type (0, 0), BuildingBlock: AJUNOK_clean_linker_0, # of connection points: 2
#     Edge 99, Type (0, 0), BuildingBlock: AJUNOK_clean_linker_0, # of connection points: 2
#     Edge 100, Type (0, 0), BuildingBlock: AJUNOK_clean_linker_0, # of connection points: 2
#     Edge 101, Type (0, 0), BuildingBlock: AJUNOK_clean_linker_0, # of connection points: 2
#     Edge 102, Type (0, 0), BuildingBlock: AJUNOK_clean_linker_0, # of connection points: 2
#     Edge 103, Type (0, 0), BuildingBlock: AJUNOK_clean_linker_0, # of connection points: 2
#     Edge 104, Type (0, 0), BuildingBlock: AJUNOK_clean_linker_0, # of connection points: 2
#     Edge 105, Type (0, 0), BuildingBlock: AJUNOK_clean_linker_0, # of connection points: 2
#     Edge 106, Type (0, 0), BuildingBlock: AJUNOK_clean_linker_0, # of connection points: 2
#     Edge 107, Type (0, 0), BuildingBlock: AJUNOK_clean_linker_0, # of connection points: 2
#     Edge 108, Type (0, 0), BuildingBlock: AJUNOK_clean_linker_0, # of connection points: 2
#     Edge 109, Type (0, 0), BuildingBlock: AJUNOK_clean_linker_0, # of connection points: 2
#     Edge 110, Type (0, 0), BuildingBlock: AJUNOK_clean_linker_0, # of connection points: 2
#     Edge 111, Type (0, 0), BuildingBlock: AJUNOK_clean_linker_0, # of connection points: 2
#     Edge 112, Type (0, 0), BuildingBlock: AJUNOK_clean_linker_0, # of connection points: 2
#     Edge 113, Type (0, 0), BuildingBlock: AJUNOK_clean_linker_0, # of connection points: 2
#     Edge 114, Type (0, 0), BuildingBlock: AJUNOK_clean_linker_0, # of connection points: 2
#     Edge 115, Type (0, 0), BuildingBlock: AJUNOK_clean_linker_0, # of connection points: 2
#     Edge 116, Type (0, 0), BuildingBlock: AJUNOK_clean_linker_0, # of connection points: 2
#     Edge 117, Type (0, 0), BuildingBlock: AJUNOK_clean_linker_0, # of connection points: 2
#     Edge 118, Type (0, 0), BuildingBlock: AJUNOK_clean_linker_0, # of connection points: 2
#     Edge 119, Type (0, 0), BuildingBlock: AJUNOK_clean_linker_0, # of connection points: 2
#     Edge 120, Type (0, 0), BuildingBlock: AJUNOK_clean_linker_0, # of connection points: 2
#     Edge 121, Type (0, 0), BuildingBlock: AJUNOK_clean_linker_0, # of connection points: 2
#     Edge 122, Type (0, 0), BuildingBlock: AJUNOK_clean_linker_0, # of connection points: 2
#     Edge 123, Type (0, 0), BuildingBlock: AJUNOK_clean_linker_0, # of connection points: 2
#     Edge 124, Type (0, 0), BuildingBlock: AJUNOK_clean_linker_0, # of connection points: 2
#     Edge 125, Type (0, 0), BuildingBlock: AJUNOK_clean_linker_0, # of connection points: 2
#     Edge 126, Type (0, 0), BuildingBlock: AJUNOK_clean_linker_0, # of connection points: 2
#     Edge 127, Type (0, 0), BuildingBlock: AJUNOK_clean_linker_0, # of connection points: 2
# Relax obj value: 0.625
# Max RMSD: 0.234
# Mean RMSD: 0.234
data_MOF--net-wip--node1-CUWYAW_clean_sbu_0--edge1-AJUNOK_clean_linker_0
_symmetry_space_group_name_H-M    P1
_symmetry_Int_Tables_number       1
_symmetry_cell_setting            triclinic
loop_
_symmetry_equiv_pos_as_xyz
'x, y, z'
_cell_length_a     47.430467
_cell_length_b     47.430067
_cell_length_c     25.907638
_cell_angle_alpha  89.988156
_cell_angle_beta   90.099943
_cell_angle_gamma 89.989868
loop_
_atom_site_label
_atom_site_type_symbol
_atom_site_fract_x
_atom_site_fract_y
_atom_site_fract_z
_atom_type_partial_charge
C0 C 0.13275 0.51738 0.28847 0.0
Eu1 Eu 0.10618 0.47515 0.24709 0.0
C2 C 0.14489 0.52647 0.33733 0.0
C3 C 0.12864 0.5254 0.38206 0.0
C4 C 0.14116 0.52962 0.42944 0.0
C5 C 0.17024 0.53555 0.43346 0.0
C6 C 0.18592 0.53935 0.38801 0.0
C7 C 0.17329 0.53463 0.34005 0.0
C8 C 0.05299 0.48039 0.20635 0.0
C9 C 0.06483 0.43728 0.32112 0.0
C10 C 0.05723 0.38859 0.14434 0.0
Eu11 Eu 0.08533 0.42201 0.20549 0.0
C12 C 0.0399 0.39627 0.09823 0.0
C13 C 0.03269 0.37614 1.06071 0.0
C14 C 0.016 0.38366 1.01779 0.0
C15 C 0.00585 0.41144 1.01158 0.0
C16 C 0.01334 0.43157 1.04908 0.0
C17 C 0.03021 0.42412 0.0916 0.0
C18 C 0.12381 0.41045 0.28372 0.0
C19 C 0.10976 0.47058 0.12182 0.0
O20 O 0.14562 0.49656 0.26514 0.0
O21 O 0.10527 0.51508 0.28699 0.0
O22 O 0.07271 0.499 0.20108 0.0
O23 O 0.0636 0.46002 0.22968 0.0
O24 O 0.08471 0.45726 0.3205 0.0
O25 O 0.05835 0.42363 0.27788 0.0
O26 O 0.04751 0.39756 0.18859 0.0
O27 O 0.0846 0.39224 0.14057 0.0
O28 O 0.10558 0.39294 0.26431 0.0
O29 O 0.1259 0.43146 0.25145 0.0
O30 O 0.0964 0.44644 0.12955 0.0
O31 O 0.11912 0.48423 0.16283 0.0
H32 H 0.10668 0.51911 0.38111 0.0
H33 H 0.12823 0.52483 0.46259 0.0
H34 H 0.20825 0.54405 0.38962 0.0
H35 H 0.18599 0.53593 0.3054 0.0
H36 H 0.03991 0.35458 0.06461 0.0
H37 H 0.01077 0.36761 0.98963 0.0
H38 H 0.00655 0.45327 1.04512 0.0
H39 H 0.03575 0.44024 0.11939 0.0
C40 C 0.73072 0.88157 0.54757 0.0
Eu41 Eu 0.77043 0.85234 0.50285 0.0
C42 C 0.72615 0.90146 0.59052 0.0
C43 C 0.72107 0.89134 0.64046 0.0
C44 C 0.72063 0.90988 0.68201 0.0
C45 C 0.72538 0.93883 0.67448 0.0
C46 C 0.72775 0.94937 0.62418 0.0
C47 C 0.72754 0.9308 0.58229 0.0
C48 C 0.7635 0.79922 0.46307 0.0
C49 C 0.80747 0.80886 0.57564 0.0
C50 C 0.85687 0.80012 0.40009 0.0
Eu51 Eu 0.82401 0.82915 0.46087 0.0
C52 C 0.85049 0.78304 0.35241 0.0
C53 C 0.84665 0.79592 0.30391 0.0
C54 C 0.83932 0.77991 0.26011 0.0
C55 C 0.83577 0.75042 0.26317 0.0
C56 C 0.83962 0.73752 0.3116 0.0
C57 C 0.84712 0.75352 0.35533 0.0
C58 C 0.83572 0.86775 0.53915 0.0
C59 C 0.77541 0.85345 0.37613 0.0
O60 O 0.74574 0.89079 0.50875 0.0
O61 O 0.73654 0.85531 0.55928 0.0
O62 O 0.74443 0.81877 0.46142 0.0
O63 O 0.78453 0.80983 0.48446 0.0
O64 O 0.78805 0.82925 0.57462 0.0
O65 O 0.82157 0.80209 0.53309 0.0
O66 O 0.84692 0.79033 0.44359 0.0
O67 O 0.85453 0.8277 0.39727 0.0
O68 O 0.85307 0.84906 0.52077 0.0
O69 O 0.81509 0.87002 0.50594 0.0
O70 O 0.8002 0.84138 0.38492 0.0
O71 O 0.76054 0.86196 0.41656 0.0
H72 H 0.71904 0.86896 0.64797 0.0
H73 H 0.7192 0.90119 0.72054 0.0
H74 H 0.73157 0.9716 0.6176 0.0
H75 H 0.73031 0.93927 0.54381 0.0
H76 H 0.84926 0.81846 0.2997 0.0
H77 H 0.83628 0.79073 0.2237 0.0
H78 H 0.8374 0.71489 0.31548 0.0
H79 H 0.85033 0.74269 0.3916 0.0
C80 C 0.36416 0.48983 0.79833 0.0
Eu81 Eu 0.39422 0.52673 0.74919 0.0
C82 C 0.34625 0.49025 0.8437 0.0
C83 C 0.35113 0.51004 0.88256 0.0
C84 C 0.3314 0.51377 0.92133 0.0
C85 C 0.30624 0.49806 0.92151 0.0
C86 C 0.30217 0.47714 0.88397 0.0
C87 C 0.32225 0.47317 0.84533 0.0
C88 C 0.44749 0.51649 0.71286 0.0
C89 C 0.43616 0.56507 0.82066 0.0
C90 C 0.44783 0.60939 0.64258 0.0
Eu91 Eu 0.41824 0.57711 0.70354 0.0
C92 C 0.46472 0.60352 0.59476 0.0
C93 C 0.45168 0.59908 0.54654 0.0
C94 C 0.4678 0.59305 0.50235 0.0
C95 C 0.49745 0.59131 0.50489 0.0
C96 C 0.51046 0.59535 0.55317 0.0
C97 C 0.49436 0.60154 0.59733 0.0
C98 C 0.37908 0.59274 0.77894 0.0
C99 C 0.39374 0.52771 0.62255 0.0
O100 O 0.35453 0.50486 0.75975 0.0
O101 O 0.3912 0.49336 0.80639 0.0
O102 O 0.4269 0.49862 0.71062 0.0
O103 O 0.43802 0.53859 0.73248 0.0
O104 O 0.41481 0.54685 0.82094 0.0
O105 O 0.44462 0.57653 0.7766 0.0
O106 O 0.45764 0.59868 0.68549 0.0
O107 O 0.42023 0.6075 0.63978 0.0
O108 O 0.39909 0.60809 0.75959 0.0
O109 O 0.37637 0.57113 0.74822 0.0
O110 O 0.40697 0.55198 0.62909 0.0
O111 O 0.38399 0.51474 0.66419 0.0
H112 H 0.36984 0.52312 0.88225 0.0
H113 H 0.3361 0.52877 0.95165 0.0
H114 H 0.28344 0.46411 0.88416 0.0
H115 H 0.31866 0.4574 0.8158 0.0
H116 H 0.42896 0.60013 0.54282 0.0
H117 H 0.45696 0.58957 0.46608 0.0
H118 H 0.53319 0.59426 0.55664 0.0
H119 H 0.5052 0.60479 0.63367 0.0
C120 C 0.76395 0.11093 1.03282 0.0
Eu121 Eu 0.72448 0.14292 0.99539 0.0
C122 C 0.77053 0.08998 0.07249 0.0
C123 C 0.77799 0.06225 1.05837 0.0
C124 C 0.78513 0.04238 0.0962 0.0
C125 C 0.78499 0.05033 0.14815 0.0
C126 C 0.7771 0.07798 0.16177 0.0
C127 C 0.77047 0.09768 0.1244 0.0
C128 C 0.7336 0.19694 0.9605 0.0
C129 C 0.68914 0.18505 0.07114 0.0
C130 C 0.64011 0.19532 0.89617 0.0
Eu131 Eu 0.67336 0.16614 0.95556 0.0
C132 C 0.64784 0.2118 0.84925 0.0
C133 C 0.62857 0.21567 0.8087 0.0
C134 C 0.63637 0.23073 0.76414 0.0
C135 C 0.66364 0.24229 0.7591 0.0
C136 C 0.6828 0.23857 0.79998 0.0
C137 C 0.67509 0.22335 0.84426 0.0
C138 C 0.65958 0.12756 1.03307 0.0
C139 C 0.72093 0.14352 0.86851 0.0
O140 O 0.74646 0.10288 0.99669 0.0
O141 O 0.76 0.13715 1.04732 0.0
O142 O 0.75146 0.17648 0.95627 0.0
O143 O 0.712 0.18694 0.98083 0.0
O144 O 0.70752 0.16371 0.07022 0.0
O145 O 0.67623 0.19286 1.02792 0.0
O146 O 0.65031 0.20493 0.9397 0.0
O147 O 0.64227 0.16779 0.89276 0.0
O148 O 0.64361 0.1475 1.01503 0.0
O149 O 0.68023 0.1244 1.00022 0.0
O150 O 0.69654 0.15604 0.87786 0.0
O151 O 0.735 0.13397 0.90902 0.0
H152 H 0.77845 0.05607 1.01813 0.0
H153 H 0.79106 0.02119 0.08502 0.0
H154 H 0.77626 0.08458 0.20176 0.0
H155 H 0.76499 0.11885 0.13648 0.0
H156 H 0.60751 0.20697 0.81138 0.0
H157 H 0.62097 0.23345 0.73363 0.0
H158 H 0.70399 0.24694 0.79726 0.0
H159 H 0.69057 0.22044 0.87457 0.0
C160 C 0.14239 0.47766 0.73903 0.0
Eu161 Eu 0.11155 0.51795 0.77767 0.0
C162 C 0.16284 0.47036 0.69873 0.0
C163 C 0.15413 0.45468 0.6556 0.0
C164 C 0.17024 0.45544 0.61064 0.0
C165 C 0.19404 0.47301 0.60885 0.0
C166 C 0.20643 0.48147 0.65518 0.0
C167 C 0.19046 0.48104 0.7002 0.0
C168 C 0.05811 0.50967 0.81569 0.0
C169 C 0.06822 0.55445 0.7048 0.0
C170 C 0.056 0.60114 0.8818 0.0
Eu171 Eu 0.08722 0.56997 0.82182 0.0
C172 C 0.03825 0.5939 0.92806 0.0
C173 C 0.0473 0.60062 0.97835 0.0
C174 C 0.03079 0.59364 1.02164 0.0
C175 C 0.00462 0.5798 1.01608 0.0
C176 C 0.99577 0.57268 0.96591 0.0
C177 C 0.0122 0.57977 0.92262 0.0
C178 C 0.12643 0.58458 0.74633 0.0
C179 C 0.11116 0.52114 0.90476 0.0
O180 O 0.15101 0.49509 0.77501 0.0
O181 O 0.11636 0.48268 0.72436 0.0
O182 O 0.0781 0.49117 0.81784 0.0
O183 O 0.06846 0.53095 0.79507 0.0
O184 O 0.0895 0.53588 0.70453 0.0
O185 O 0.06089 0.5671 0.74859 0.0
O186 O 0.04743 0.59139 0.8372 0.0
O187 O 0.08354 0.59953 0.88679 0.0
O188 O 0.10709 0.60073 0.76604 0.0
O189 O 0.12882 0.56289 0.77719 0.0
O190 O 0.09881 0.54577 0.89701 0.0
O191 O 0.12036 0.50717 0.86386 0.0
H192 H 0.13354 0.44481 0.65457 0.0
H193 H 0.16091 0.44763 0.57522 0.0
H194 H 0.22561 0.49359 0.65426 0.0
H195 H 0.19848 0.49172 0.73407 0.0
H196 H 0.06723 0.61129 0.98431 0.0
H197 H 0.03861 0.59904 1.05967 0.0
H198 H 0.97577 0.56214 0.95999 0.0
H199 H 0.00428 0.57423 0.88478 0.0
C200 C 0.77174 0.88259 0.98565 0.0
Eu201 Eu 0.73185 0.85289 1.02834 0.0
C202 C 0.7763 0.90266 0.94322 0.0
C203 C 0.77997 0.89294 0.89264 0.0
C204 C 0.77795 0.91172 0.85168 0.0
C205 C 0.77186 0.94024 0.86089 0.0
C206 C 0.77213 0.95066 0.91126 0.0
C207 C 0.775 0.93191 0.95248 0.0
C208 C 0.73855 0.79919 0.06613 0.0
C209 C 0.69343 0.81105 0.95578 0.0
C210 C 0.64586 0.80314 0.1325 0.0
Eu211 Eu 0.67905 0.83154 0.07119 0.0
C212 C 0.65296 0.78609 0.17943 0.0
C213 C 0.63211 0.77865 0.2154 0.0
C214 C 0.63891 0.7624 0.25928 0.0
C215 C 0.66674 0.75302 0.26831 0.0
C216 C 0.68751 0.76026 0.23189 0.0
C217 C 0.68077 0.77675 0.18836 0.0
C218 C 0.6671 0.87095 0.99378 0.0
C219 C 0.72832 0.85384 0.15534 0.0
O220 O 0.75587 0.89165 1.0235 0.0
O221 O 0.76643 0.85628 0.97344 0.0
O222 O 0.75771 0.81861 0.06805 0.0
O223 O 0.71731 0.81007 1.04578 0.0
O224 O 0.71316 0.83116 0.95584 0.0
O225 O 0.68011 0.80452 0.99918 0.0
O226 O 0.65543 0.79327 0.08878 0.0
O227 O 0.64911 0.83057 0.13583 0.0
O228 O 0.64981 0.85224 1.01231 0.0
O229 O 0.68813 0.87263 1.02622 0.0
O230 O 0.70321 0.84254 0.14719 0.0
O231 O 0.74287 0.86204 0.11436 0.0
H232 H 0.78224 0.87067 0.88435 0.0
H233 H 0.77818 0.90345 0.8127 0.0
H234 H 0.76816 0.97278 0.91871 0.0
H235 H 0.77364 0.94004 0.99148 0.0
H236 H 0.61052 0.78539 0.2096 0.0
H237 H 0.62228 0.757 0.28611 0.0
H238 H 0.70915 0.75365 0.23763 0.0
H239 H 0.6974 0.78229 0.16164 0.0
C240 C 0.36728 0.51878 0.23311 0.0
Eu241 Eu 0.39577 0.47951 0.27977 0.0
C242 C 0.34836 0.51931 0.189 0.0
C243 C 0.35131 0.49877 0.1508 0.0
C244 C 0.33058 0.49561 0.11368 0.0
C245 C 0.30604 0.51237 0.11482 0.0
C246 C 0.30372 0.5339 0.15173 0.0
C247 C 0.32485 0.5373 0.18891 0.0
C248 C 0.44944 0.48727 0.31735 0.0
C249 C 0.43855 0.44248 0.2082 0.0
C250 C 0.44196 0.39283 0.38407 0.0
Eu251 Eu 0.41631 0.42772 0.32196 0.0
C252 C 0.45905 0.39802 0.43201 0.0
C253 C 0.44883 0.39018 0.48094 0.0
C254 C 0.46449 0.39586 0.52601 0.0
C255 C 0.49091 0.40947 0.52348 0.0
C256 C 0.50101 0.4174 0.47457 0.0
C257 C 0.48543 0.41169 0.42962 0.0
C258 C 0.37693 0.41505 0.24445 0.0
C259 C 0.39425 0.47704 0.40567 0.0
O260 O 0.3576 0.50427 0.27215 0.0
O261 O 0.39383 0.51345 0.22332 0.0
O262 O 0.42931 0.50561 0.32077 0.0
O263 O 0.43911 0.46559 0.29746 0.0
O264 O 0.41775 0.46134 0.20773 0.0
O265 O 0.44477 0.42895 0.25161 0.0
O266 O 0.45278 0.40161 0.34051 0.0
O267 O 0.41475 0.39772 0.38655 0.0
O268 O 0.39679 0.39882 0.26195 0.0
O269 O 0.37499 0.43611 0.27673 0.0
O270 O 0.40664 0.45246 0.39767 0.0
O271 O 0.38528 0.49103 0.36466 0.0
H272 H 0.36923 0.48458 0.15049 0.0
H273 H 0.33392 0.47992 0.08392 0.0
H274 H 0.28546 0.54762 0.1523 0.0
H275 H 0.3223 0.55309 0.21876 0.0
H276 H 0.42857 0.37985 0.48444 0.0
H277 H 0.45568 0.38993 0.56297 0.0
H278 H 0.52126 0.42777 0.47091 0.0
H279 H 0.49418 0.41812 0.39294 0.0
C280 C 0.74156 0.10834 0.46577 0.0
Eu281 Eu 0.77307 0.14083 0.52229 0.0
C282 C 0.74973 0.09014 0.4228 0.0
C283 C 0.73051 0.08181 0.38459 0.0
C284 C 0.73975 0.06545 0.34281 0.0
C285 C 0.76826 0.05722 0.33928 0.0
C286 C 0.78699 0.06567 0.37794 0.0
C287 C 0.77792 0.08192 0.41912 0.0
C288 C 0.76073 0.19348 0.55856 0.0
C289 C 0.81012 0.1873 0.45554 0.0
C290 C 0.8545 0.19628 0.6338 0.0
Eu291 Eu 0.82301 0.16672 0.57116 0.0
C292 C 0.84706 0.21344 0.68006 0.0
C293 C 0.86813 0.22337 0.71351 0.0
C294 C 0.86116 0.24 0.75659 0.0
C295 C 0.83288 0.2471 0.76749 0.0
C296 C 0.81184 0.23747 0.73338 0.0
C297 C 0.81883 0.22077 0.69037 0.0
C298 C 0.83915 0.12707 0.49642 0.0
C299 C 0.77179 0.14229 0.64988 0.0
O300 O 0.75189 0.10073 0.51063 0.0
O301 O 0.74439 0.13537 0.45713 0.0
O302 O 0.74277 0.17282 0.55687 0.0
O303 O 0.78363 0.18427 0.5418 0.0
O304 O 0.79268 0.16521 0.45322 0.0
O305 O 0.82139 0.19474 0.5004 0.0
O306 O 0.84488 0.20582 0.58985 0.0
O307 O 0.85169 0.16882 0.63767 0.0
O308 O 0.85395 0.14834 0.51259 0.0
O309 O 0.81794 0.12472 0.5279 0.0
O310 O 0.79647 0.15508 0.64415 0.0
O311 O 0.75908 0.13243 0.60764 0.0
H312 H 0.70866 0.08837 0.38655 0.0
H313 H 0.72487 0.06013 0.3126 0.0
H314 H 0.80845 0.05843 0.3775 0.0
H315 H 0.79283 0.08772 0.44884 0.0
H316 H 0.89004 0.21833 0.70625 0.0
H317 H 0.87799 0.24743 0.78139 0.0
H318 H 0.7899 0.24241 0.74054 0.0
H319 H 0.80211 0.21353 0.6651 0.0
C320 C 0.95555 0.6013 0.37592 0.0
Eu321 Eu 0.92181 0.57045 0.31968 0.0
C322 C 0.97154 0.59518 0.42483 0.0
C323 C 0.95767 0.58984 0.47182 0.0
C324 C 0.97292 0.58249 0.51651 0.0
C325 C 0.00261 0.58055 0.51592 0.0
C326 C 0.01648 0.5858 0.46887 0.0
C327 C 0.0012 0.59307 0.42412 0.0
C328 C 0.88158 0.58414 0.24507 0.0
C329 C 0.89795 0.52369 0.40641 0.0
C330 C 0.86043 0.48095 0.24652 0.0
Eu331 Eu 0.89572 0.51874 0.27943 0.0
C332 C 0.83713 0.47719 0.21064 0.0
C333 C 0.83232 0.45064 0.18876 0.0
C334 C 0.8142 0.4481 0.1466 0.0
C335 C 0.80164 0.47235 0.12551 0.0
C336 C 0.80354 0.49798 0.15221 0.0
C337 C 0.82103 0.50037 0.19497 0.0
C338 C 0.94989 0.50907 0.31193 0.0
C339 C 0.93716 0.55465 0.20154 0.0
O340 O 0.96381 0.58731 0.33517 0.0
O341 O 0.92792 0.6034 0.37818 0.0
O342 O 0.90162 0.60054 0.2618 0.0
O343 O 0.87936 0.56356 0.27812 0.0
O344 O 0.90875 0.54892 0.39711 0.0
O345 O 0.89009 0.50827 0.36639 0.0
O346 O 0.85537 0.49795 0.28521 0.0
O347 O 0.88555 0.48452 0.22628 0.0
O348 O 0.92947 0.4911 0.31632 0.0
O349 O 0.9395 0.53074 0.29238 0.0
O350 O 0.91721 0.53472 0.20429 0.0
O351 O 0.94515 0.56864 0.24351 0.0
H352 H 0.93494 0.5911 0.47405 0.0
H353 H 0.96133 0.57803 0.55155 0.0
H354 H 0.03925 0.58467 0.46678 0.0
H355 H 0.01264 0.5969 0.38865 0.0
H356 H 0.84416 0.43239 0.20162 0.0
H357 H 0.81304 0.42812 0.12641 0.0
H358 H 0.79479 0.51702 0.13587 0.0
H359 H 0.82383 0.52084 0.21277 0.0
C360 C 0.14171 0.1962 0.13292 0.0
Eu361 Eu 0.17388 0.16642 0.07249 0.0
C362 C 0.14946 0.21255 0.18015 0.0
C363 C 0.12932 0.21889 0.21808 0.0
C364 C 0.13674 0.23478 0.262 0.0
C365 C 0.16446 0.24493 0.26898 0.0
C366 C 0.18468 0.23815 0.2312 0.0
C367 C 0.17729 0.22217 0.18751 0.0
C368 C 0.16085 0.12772 0.99509 0.0
C369 C 0.22174 0.14164 0.15759 0.0
C370 C 0.26418 0.1096 0.99022 0.0
Eu371 Eu 0.2259 0.14157 1.0313 0.0
C372 C 0.27081 0.09277 0.94454 0.0
C373 C 0.2748 0.06348 0.94886 0.0
C374 C 0.28031 0.04723 0.90497 0.0
C375 C 0.28223 0.06033 0.85662 0.0
C376 C 0.27915 0.08982 0.85321 0.0
C377 C 0.27378 0.10584 0.8966 0.0
C378 C 0.23485 0.19444 0.0707 0.0
C379 C 0.19073 0.18643 0.9578 0.0
O380 O 0.15213 0.20578 0.08957 0.0
O381 O 0.14339 0.1686 0.13605 0.0
O382 O 0.14429 0.14734 1.01258 0.0
O383 O 0.18122 0.12493 1.0284 0.0
O384 O 0.19781 0.15519 0.14861 0.0
O385 O 0.2355 0.13139 0.11731 0.0
O386 O 0.24418 0.09994 1.02022 0.0
O387 O 0.26337 0.13707 0.98458 0.0
O388 O 0.25269 0.17384 0.07455 0.0
O389 O 0.21365 0.18481 1.0484 0.0
O390 O 0.20937 0.16521 0.95836 0.0
O391 O 0.17717 0.19348 1.00071 0.0
H392 H 0.10778 0.21169 0.21364 0.0
H393 H 0.12061 0.23949 0.29026 0.0
H394 H 0.20635 0.24491 0.23569 0.0
H395 H 0.19342 0.21736 0.15928 0.0
H396 H 0.27342 0.05323 0.98611 0.0
H397 H 0.28288 0.02464 0.90875 0.0
H398 H 0.27973 0.10068 0.81642 0.0
H399 H 0.27111 0.12839 0.89203 0.0
C400 C 0.55284 0.39112 0.88758 0.0
Eu401 Eu 0.58035 0.42329 0.82359 0.0
C402 C 0.53659 0.39773 0.93556 0.0
C403 C 0.54999 0.40034 0.98387 0.0
C404 C 0.53472 0.40859 1.02782 0.0
C405 C 0.50564 0.41444 1.0247 0.0
C406 C 0.49212 0.41097 0.97675 0.0
C407 C 0.50734 0.40277 0.9329 0.0
C408 C 0.61892 0.40555 0.74868 0.0
C409 C 0.6045 0.47457 0.90239 0.0
C410 C 0.63576 0.5041 0.71826 0.0
Eu411 Eu 0.60465 0.47174 0.7757 0.0
C412 C 0.65241 0.49648 0.67226 0.0
C413 C 0.63871 0.49257 0.62458 0.0
C414 C 0.64763 0.47082 0.58961 0.0
C415 C 0.67472 0.45836 0.60247 0.0
C416 C 0.69109 0.46744 0.64388 0.0
C417 C 0.67971 0.48594 0.67934 0.0
C418 C 0.55214 0.48468 0.81189 0.0
C419 C 0.55945 0.43384 0.70807 0.0
O420 O 0.54208 0.40074 0.84452 0.0
O421 O 0.58039 0.39394 0.88902 0.0
O422 O 0.59748 0.39159 0.76602 0.0
O423 O 0.62235 0.42716 0.77916 0.0
O424 O 0.59099 0.45029 0.89678 0.0
O425 O 0.61464 0.48652 0.8599 0.0
O426 O 0.64456 0.49271 0.76148 0.0
O427 O 0.60833 0.5024 0.71335 0.0
O428 O 0.57358 0.5016 0.81366 0.0
O429 O 0.56048 0.46174 0.79365 0.0
O430 O 0.58061 0.45233 0.70616 0.0
O431 O 0.55233 0.42225 0.7527 0.0
H432 H 0.57237 0.39635 0.98767 0.0
H433 H 0.54579 0.41081 0.06418 0.0
H434 H 0.46963 0.41435 0.97312 0.0
H435 H 0.49615 0.40063 0.89663 0.0
H436 H 0.61924 0.50399 0.6182 0.0
H437 H 0.62581 0.44805 0.51083 0.0
H438 H 0.71189 0.45881 0.65023 0.0
H439 H 0.69132 0.49022 0.71445 0.0
C440 C 0.36181 0.8062 0.63807 0.0
Eu441 Eu 0.3264 0.83183 0.57723 0.0
C442 C 0.35669 0.78903 0.68574 0.0
C443 C 0.3443 0.80087 0.7301 0.0
C444 C 0.33721 0.78397 0.7727 0.0
C445 C 0.34212 0.75464 0.7724 0.0
C446 C 0.35524 0.74296 0.72855 0.0
C447 C 0.36232 0.75988 0.68587 0.0
C448 C 0.33931 0.87095 0.49946 0.0
C449 C 0.2786 0.8537 0.66214 0.0
C450 C 0.23277 0.88086 0.4968 0.0
Eu451 Eu 0.27517 0.85356 0.53705 0.0
C452 C 0.22618 0.90298 0.45931 0.0
C453 C 0.20968 0.89649 0.41602 0.0
C454 C 0.20857 0.9153 0.37477 0.0
C455 C 0.22418 0.9404 0.37687 0.0
C456 C 0.23611 0.94894 0.42343 0.0
C457 C 0.23764 0.93014 0.46445 0.0
C458 C 0.26743 0.79982 0.575 0.0
C459 C 0.31173 0.81087 0.46312 0.0
O460 O 0.3526 0.79517 0.5949 0.0
O461 O 0.35701 0.83349 0.64052 0.0
O462 O 0.35519 0.8509 0.51714 0.0
O463 O 0.31856 0.87371 0.53212 0.0
O464 O 0.29989 0.83669 0.65227 0.0
O465 O 0.26803 0.86763 0.62236 0.0
O466 O 0.2465 0.88891 0.53794 0.0
O467 O 0.24192 0.85679 0.47869 0.0
O468 O 0.2496 0.82018 0.58006 0.0
O469 O 0.28833 0.80993 0.55284 0.0
O470 O 0.29322 0.83215 0.46322 0.0
O471 O 0.32438 0.80366 0.50688 0.0
H472 H 0.33949 0.82317 0.73169 0.0
H473 H 0.32724 0.79389 0.80559 0.0
H474 H 0.36032 0.72072 0.72724 0.0
H475 H 0.37192 0.75004 0.6525 0.0
H476 H 0.19988 0.87596 0.41213 0.0
H477 H 0.19912 0.90843 0.33878 0.0
H478 H 0.24768 0.96841 0.42516 0.0
H479 H 0.24978 0.93602 0.49813 0.0
C480 C 0.95025 0.39387 0.64839 0.0
Eu481 Eu 0.92129 0.42681 0.70919 0.0
C482 C 0.96687 0.39987 0.60019 0.0
C483 C 0.95349 0.40571 0.55277 0.0
C484 C 0.96929 0.41234 0.50845 0.0
C485 C 0.999 0.41329 0.50995 0.0
C486 C 0.01239 0.40769 0.5574 0.0
C487 C 0.99659 0.40088 0.60167 0.0
C488 C 0.88196 0.41278 0.78522 0.0
C489 C 0.89823 0.47574 0.62575 0.0
C490 C 0.86422 0.51557 0.79428 0.0
Eu491 Eu 0.89726 0.47825 0.75273 0.0
C492 C 0.84113 0.51513 0.83139 0.0
C493 C 0.83971 0.5358 0.8699 0.0
C494 C 0.82227 0.53167 0.91254 0.0
C495 C 0.8066 0.50671 0.91674 0.0
C496 C 0.80573 0.48775 0.87546 0.0
C497 C 0.82263 0.49208 0.8326 0.0
C498 C 0.95121 0.48735 0.71748 0.0
C499 C 0.93962 0.4408 0.82606 0.0
O500 O 0.96031 0.40436 0.69129 0.0
O501 O 0.92264 0.39596 0.64612 0.0
O502 O 0.90204 0.39697 0.76727 0.0
O503 O 0.87929 0.43382 0.75313 0.0
O504 O 0.91072 0.45119 0.63352 0.0
O505 O 0.88872 0.48944 0.6667 0.0
O506 O 0.85893 0.50288 0.75052 0.0
O507 O 0.88931 0.50963 0.81265 0.0
O508 O 0.93152 0.50628 0.71782 0.0
O509 O 0.94066 0.46565 0.73643 0.0
O510 O 0.91841 0.45938 0.82573 0.0
O511 O 0.94766 0.42847 0.78241 0.0
H512 H 0.93073 0.40531 0.5498 0.0
H513 H 0.95816 0.41693 0.47289 0.0
H514 H 0.03518 0.40805 0.56006 0.0
H515 H 0.0077 0.39639 0.63727 0.0
H516 H 0.85376 0.55381 0.86917 0.0
H517 H 0.82371 0.54612 0.94484 0.0
H518 H 0.7951 0.46773 0.87943 0.0
H519 H 0.82336 0.47584 0.8032 0.0
C520 C 0.35436 0.19397 0.39732 0.0
Eu521 Eu 0.32127 0.16543 0.45825 0.0
C522 C 0.34823 0.21126 0.35 0.0
C523 C 0.35123 0.1998 0.30018 0.0
C524 C 0.34463 0.21581 0.25603 0.0
C525 C 0.33502 0.24386 0.26026 0.0
C526 C 0.33186 0.25524 0.31007 0.0
C527 C 0.33846 0.23927 0.35418 0.0
C528 C 0.33577 0.1258 0.5342 0.0
C529 C 0.27201 0.1423 0.37546 0.0
C530 C 0.23392 0.10954 0.54631 0.0
Eu531 Eu 0.27053 0.14238 0.50232 0.0
C532 C 0.23753 0.0848 0.57897 0.0
C533 C 0.21914 0.07982 0.62015 0.0
C534 C 0.22673 0.0606 0.65854 0.0
C535 C 0.25291 0.04678 0.65595 0.0
C536 C 0.26937 0.04923 0.61129 0.0
C537 C 0.26179 0.06821 0.57311 0.0
C538 C 0.26056 0.19585 0.46542 0.0
C539 C 0.30606 0.18718 0.57344 0.0
O540 O 0.34475 0.20379 0.44107 0.0
O541 O 0.35133 0.16651 0.39392 0.0
O542 O 0.35135 0.14615 0.51666 0.0
O543 O 0.31456 0.12353 0.50241 0.0
O544 O 0.29682 0.15442 0.38253 0.0
O545 O 0.25838 0.13344 0.41693 0.0
O546 O 0.24285 0.10618 0.49909 0.0
O547 O 0.242 0.13354 0.5665 0.0
O548 O 0.24235 0.17554 0.46499 0.0
O549 O 0.28261 0.18592 0.48432 0.0
O550 O 0.28759 0.16594 0.5744 0.0
O551 O 0.31922 0.19344 0.52963 0.0
H552 H 0.3585 0.17832 0.29523 0.0
H553 H 0.34678 0.20603 0.21847 0.0
H554 H 0.32464 0.27674 0.31498 0.0
H555 H 0.33578 0.24897 0.39169 0.0
H556 H 0.20028 0.09245 0.6249 0.0
H557 H 0.21396 0.05938 0.69312 0.0
H558 H 0.28982 0.03919 0.60877 0.0
H559 H 0.27626 0.07165 0.54139 0.0
C560 C 0.55297 0.61393 0.13941 0.0
Eu561 Eu 0.58197 0.58074 0.19952 0.0
C562 C 0.5355 0.60692 0.09343 0.0
C563 C 0.53081 0.62685 1.0543 0.0
C564 C 0.51411 0.62004 1.01117 0.0
C565 C 0.50154 0.59323 1.00643 0.0
C566 C 0.50648 0.57325 1.04556 0.0
C567 C 0.52331 0.57998 0.0884 0.0
C568 C 0.6215 0.59694 0.27456 0.0
C569 C 0.60469 0.5308 0.11672 0.0
C570 C 0.64005 0.49808 0.28968 0.0
Eu571 Eu 0.60615 0.53205 0.243 0.0
C572 C 0.65618 0.4995 0.33698 0.0
C573 C 0.64613 0.51534 0.37862 0.0
C574 C 0.65921 0.51328 0.42623 0.0
C575 C 0.68129 0.49396 0.43318 0.0
C576 C 0.69354 0.48097 0.38983 0.0
C577 C 0.68092 0.48378 0.34168 0.0
C578 C 0.55235 0.51993 0.21139 0.0
C579 C 0.56383 0.56877 0.31667 0.0
O580 O 0.54352 0.60418 0.18329 0.0
O581 O 0.58032 0.61061 0.13484 0.0
O582 O 0.60061 0.61178 0.25713 0.0
O583 O 0.62431 0.57599 0.24264 0.0
O584 O 0.59116 0.55496 0.12376 0.0
O585 O 0.61535 0.51865 0.15837 0.0
O586 O 0.64835 0.51535 0.25341 0.0
O587 O 0.61262 0.49723 0.2955 0.0
O588 O 0.57357 0.50289 0.20689 0.0
O589 O 0.56146 0.54268 0.22929 0.0
O590 O 0.58505 0.55033 0.31646 0.0
O591 O 0.55561 0.58033 0.27251 0.0
H592 H 0.54003 0.64768 1.05711 0.0
H593 H 0.51079 0.63588 0.98165 0.0
H594 H 0.4977 0.55223 1.04265 0.0
H595 H 0.52683 0.56404 0.11769 0.0
H596 H 0.62736 0.5282 0.37501 0.0
H597 H 0.65034 0.52461 0.45863 0.0
H598 H 0.71068 0.46604 0.39386 0.0
H599 H 0.68917 0.47201 0.30918 0.0
C600 C 0.14374 0.80222 0.89444 0.0
Eu601 Eu 0.1761 0.82976 0.95846 0.0
C602 C 0.15053 0.78503 0.8471 0.0
C603 C 0.14783 0.79637 0.79701 0.0
C604 C 0.15539 0.78048 0.75311 0.0
C605 C 0.16632 0.75296 0.75802 0.0
C606 C 0.16865 0.74152 0.80789 0.0
C607 C 0.16053 0.75713 0.85151 0.0
C608 C 0.16048 0.86986 1.0334 0.0
C609 C 0.22517 0.85375 0.8768 0.0
C610 C 0.26014 0.89239 1.04669 0.0
Eu611 Eu 0.22559 0.85731 1.00251 0.0
C612 C 0.25929 0.91348 0.08728 0.0
C613 C 0.23364 0.92019 0.11075 0.0
C614 C 0.23332 0.93764 0.15376 0.0
C615 C 0.25865 0.94863 0.17353 0.0
C616 C 0.28394 0.94418 0.14668 0.0
C617 C 0.28429 0.92633 0.1039 0.0
C618 C 0.23874 0.80405 0.96769 0.0
C619 C 0.19068 0.81096 0.07361 0.0
O620 O 0.15207 0.79198 0.93895 0.0
O621 O 0.14747 0.82966 0.89173 0.0
O622 O 0.14631 0.84766 1.01974 0.0
O623 O 0.1806 0.87259 0.9998 0.0
O624 O 0.20434 0.83594 0.88579 0.0
O625 O 0.23485 0.86847 0.91649 0.0
O626 O 0.24516 0.89852 1.00584 0.0
O627 O 0.25721 0.86614 1.06143 0.0
O628 O 0.25618 0.82513 0.96782 0.0
O629 O 0.21617 0.81299 0.98614 0.0
O630 O 0.20724 0.8339 0.07442 0.0
O631 O 0.17946 0.80236 1.02936 0.0
H632 H 0.13997 0.81762 0.7917 0.0
H633 H 0.15307 0.78989 0.71524 0.0
H634 H 0.17633 0.7202 0.81317 0.0
H635 H 0.16208 0.7472 0.88883 0.0
H636 H 0.21419 0.91054 0.09777 0.0
H637 H 0.21366 0.94019 0.17449 0.0
H638 H 0.30368 0.95225 0.16172 0.0
H639 H 0.30417 0.92158 0.08529 0.0
C640 C 0.63889 0.01681 0.78651 0.0
Eu641 Eu 0.60679 0.97748 0.74888 0.0
C642 C 0.65937 0.023 0.8273 0.0
C643 C 0.65017 0.03446 0.87411 0.0
C644 C 0.66879 0.03676 0.91518 0.0
C645 C 0.69677 0.02756 0.90989 0.0
C646 C 0.70683 0.01915 0.86163 0.0
C647 C 0.68821 0.01721 0.82016 0.0
C648 C 0.55279 0.98633 0.71392 0.0
C649 C 0.56383 0.94322 0.82602 0.0
C650 C 0.5512 0.89361 0.65066 0.0
Eu651 Eu 0.58167 0.92574 0.71025 0.0
C652 C 0.53368 0.90164 0.60462 0.0
C653 C 0.53197 0.88405 0.56107 0.0
C654 C 0.5156 0.89183 0.51784 0.0
C655 C 0.50021 0.91733 0.51705 0.0
C656 C 0.5022 0.93503 0.56053 0.0
C657 C 0.51876 0.92738 0.60345 0.0
C658 C 0.62255 0.91265 0.78514 0.0
C659 C 0.6038 0.97414 0.62302 0.0
O660 O 0.64699 0.99898 0.75087 0.0
O661 O 0.61254 0.01321 0.80032 0.0
O662 O 0.57319 0.00425 0.70894 0.0
O663 O 0.56302 0.96512 0.73508 0.0
O664 O 0.58522 0.96155 0.8237 0.0
O665 O 0.55582 0.9293 0.78389 0.0
O666 O 0.54245 0.90317 0.69526 0.0
O667 O 0.57871 0.89558 0.64596 0.0
O668 O 0.60132 0.89702 0.77134 0.0
O669 O 0.62445 0.93279 0.75093 0.0
O670 O 0.59072 0.95002 0.63295 0.0
O671 O 0.61478 0.98782 0.66267 0.0
H672 H 0.62828 0.04014 0.88 0.0
H673 H 0.66063 0.04327 0.95239 0.0
H674 H 0.72847 0.01229 0.85709 0.0
H675 H 0.69606 0.00982 0.78338 0.0
H676 H 0.54335 0.86425 0.56041 0.0
H677 H 0.51475 0.87768 0.48506 0.0
H678 H 0.49134 0.95511 0.56103 0.0
H679 H 0.52001 0.9418 0.63578 0.0
C680 C 0.22732 0.3788 1.04981 0.0
Eu681 Eu 0.26798 0.35191 1.00372 0.0
C682 C 0.22245 0.39892 0.09195 0.0
C683 C 0.22377 0.39008 0.1435 0.0
C684 C 0.22127 0.40967 0.18299 0.0
C685 C 0.21758 0.43836 0.17164 0.0
C686 C 0.21495 0.44725 0.12045 0.0
C687 C 0.21684 0.42746 0.0807 0.0
C688 C 0.26155 0.29825 0.96618 0.0
C689 C 0.30828 0.31146 0.07523 0.0
C690 C 0.35285 0.30416 0.89615 0.0
Eu691 Eu 0.31984 0.33187 0.95886 0.0
C692 C 0.34568 0.28756 0.84878 0.0
C693 C 0.36622 0.28147 0.81142 0.0
C694 C 0.35942 0.26547 0.76727 0.0
C695 C 0.33183 0.25513 0.75916 0.0
C696 C 0.31137 0.26108 0.79697 0.0
C697 C 0.31816 0.27716 0.84096 0.0
C698 C 0.33278 0.37121 1.03568 0.0
C699 C 0.26981 0.35379 0.87679 0.0
O700 O 0.24091 0.38859 1.00976 0.0
O701 O 0.23506 0.35314 1.0621 0.0
O702 O 0.24253 0.3177 0.9632 0.0
O703 O 0.28278 0.30922 0.98619 0.0
O704 O 0.28803 0.331 0.07576 0.0
O705 O 0.3211 0.30503 1.03129 0.0
O706 O 0.34341 0.29383 0.93957 0.0
O707 O 0.34954 0.33161 0.89377 0.0
O708 O 0.34936 0.35216 1.01625 0.0
O709 O 0.31115 0.3731 1.0046 0.0
O710 O 0.29529 0.34323 0.88373 0.0
O711 O 0.25541 0.36115 0.91844 0.0
H712 H 0.22752 0.36821 0.15348 0.0
H713 H 0.22347 0.4026 0.2226 0.0
H714 H 0.21228 0.46938 0.11132 0.0
H715 H 0.21517 0.43464 1.04111 0.0
H716 H 0.38761 0.28898 0.81645 0.0
H717 H 0.37591 0.26093 0.73966 0.0
H718 H 0.28994 0.25365 0.79216 0.0
H719 H 0.3018 0.28148 0.869 0.0
C720 C 0.8658 0.98262 0.29442 0.0
Eu721 Eu 0.89649 0.02146 0.25123 0.0
C722 C 0.84439 0.97848 0.33472 0.0
C723 C 0.85253 0.97122 0.38491 0.0
C724 C 0.83255 0.97033 0.42403 0.0
C725 C 0.80406 0.97652 0.41356 0.0
C726 C 0.79554 0.98132 0.36283 0.0
C727 C 0.81554 0.98181 0.32336 0.0
C728 C 0.94985 0.0141 0.21289 0.0
C729 C 0.9391 0.05992 0.32194 0.0
C730 C 0.9458 0.10745 0.14532 0.0
Eu731 Eu 0.91791 0.07405 0.20662 0.0
C732 C 0.96223 0.10024 0.09811 0.0
C733 C 0.96946 0.12101 1.06189 0.0
C734 C 0.98515 0.11401 1.01765 0.0
C735 C 0.99402 0.08604 1.00854 0.0
C736 C 0.98697 0.06534 1.04521 0.0
C737 C 0.97113 0.07232 0.0892 0.0
C738 C 0.8798 0.08632 0.28516 0.0
C739 C 0.89509 0.02442 0.12382 0.0
O740 O 0.85784 0.99743 0.25433 0.0
O741 O 0.89171 0.98831 0.30898 0.0
O742 O 0.93036 0.99497 0.21231 0.0
O743 O 0.93916 0.03567 0.23226 0.0
O744 O 0.919 0.04021 0.3228 0.0
O745 O 0.94544 0.07289 0.27806 0.0
O746 O 0.95607 0.09759 0.18857 0.0
O747 O 0.91833 0.10439 0.14261 0.0
O748 O 0.89817 0.1036 0.26566 0.0
O749 O 0.87757 0.0653 0.25307 0.0
O750 O 0.90592 0.04983 0.13114 0.0
O751 O 0.8876 0.00986 0.16529 0.0
H752 H 0.87447 0.96759 0.39454 0.0
H753 H 0.83979 0.96674 0.46319 0.0
H754 H 0.77365 0.98551 0.35448 0.0
H755 H 0.80863 0.98569 0.28425 0.0
H756 H 0.96301 0.14268 0.06782 0.0
H757 H 0.99053 0.13058 0.99065 0.0
H758 H 0.99326 0.04362 1.03939 0.0
H759 H 0.96578 0.0558 0.11635 0.0
C760 C 0.26965 0.60905 0.53902 0.0
Eu761 Eu 0.23181 0.64278 0.5008 0.0
C762 C 0.2691 0.58399 0.57135 0.0
C763 C 0.2906 0.57935 0.6074 0.0
C764 C 0.28618 0.56044 0.64777 0.0
C765 C 0.25998 0.54696 0.65243 0.0
C766 C 0.24047 0.54849 0.61205 0.0
C767 C 0.24505 0.56684 0.57133 0.0
C768 C 0.24147 0.69681 0.4672 0.0
C769 C 0.19484 0.68528 0.57444 0.0
C770 C 0.14721 0.69565 0.39834 0.0
Eu771 Eu 0.1807 0.66636 0.45765 0.0
C772 C 0.15361 0.71252 0.35128 0.0
C773 C 0.13202 0.72102 0.31763 0.0
C774 C 0.13814 0.7373 0.27368 0.0
C775 C 0.16606 0.74543 0.26212 0.0
C776 C 0.1876 0.73715 0.29634 0.0
C777 C 0.18147 0.72084 0.34022 0.0
C778 C 0.16652 0.62725 0.53386 0.0
C779 C 0.22934 0.64385 0.37379 0.0
O780 O 0.25795 0.60572 0.49377 0.0
O781 O 0.2623 0.63274 0.5614 0.0
O782 O 0.26002 0.67681 0.46658 0.0
O783 O 0.21934 0.68641 0.48481 0.0
O784 O 0.21439 0.66493 0.57395 0.0
O785 O 0.18141 0.69233 0.53129 0.0
O786 O 0.15808 0.7053 0.44121 0.0
O787 O 0.14978 0.66816 0.39457 0.0
O788 O 0.1508 0.64722 0.51532 0.0
O789 O 0.18759 0.62437 0.50193 0.0
O790 O 0.20456 0.65586 0.3814 0.0
O791 O 0.24313 0.63473 0.41488 0.0
H792 H 0.30947 0.59224 0.60725 0.0
H793 H 0.30128 0.55976 0.67919 0.0
H794 H 0.21973 0.53947 0.61646 0.0
H795 H 0.22826 0.57003 0.54349 0.0
H796 H 0.11037 0.71514 0.32541 0.0
H797 H 0.12091 0.7437 0.2488 0.0
H798 H 0.2093 0.74288 0.28867 0.0
H799 H 0.19857 0.71469 0.36561 0.0
C800 C 0.6343 0.99064 0.232 0.0
Eu801 Eu 0.60199 0.02578 0.27948 0.0
C802 C 0.65497 0.99307 0.19078 0.0
C803 C 0.65194 0.97624 0.14708 0.0
C804 C 0.67024 0.97954 0.10588 0.0
C805 C 0.69288 0.99883 0.10859 0.0
C806 C 0.69579 0.01559 0.15278 0.0
C807 C 0.6768 0.01302 0.19333 0.0
C808 C 0.54906 0.01559 0.31709 0.0
C809 C 0.55778 0.06211 0.20868 0.0
C810 C 0.55023 0.1094 0.38552 0.0
Eu811 Eu 0.57861 0.07657 0.32396 0.0
C812 C 0.53372 0.10267 0.43338 0.0
C813 C 0.54702 0.09427 0.47959 0.0
C814 C 0.53107 0.08608 0.52284 0.0
C815 C 0.50136 0.08568 0.52107 0.0
C816 C 0.48809 0.09435 0.4751 0.0
C817 C 0.50402 0.10287 0.43209 0.0
C818 C 0.61779 0.09014 0.24657 0.0
C819 C 0.60179 0.02626 0.40601 0.0
O820 O 0.64119 0.00281 0.27559 0.0
O821 O 0.60797 0.99481 0.21858 0.0
O822 O 0.56925 0.99718 0.31644 0.0
O823 O 0.55858 0.03777 0.29803 0.0
O824 O 0.5794 0.04413 0.20769 0.0
O825 O 0.55057 0.07446 0.25275 0.0
O826 O 0.53993 0.09932 0.34246 0.0
O827 O 0.57784 0.10719 0.38742 0.0
O828 O 0.59698 0.10572 0.26234 0.0
O829 O 0.62022 0.0698 0.27999 0.0
O830 O 0.58983 0.05127 0.39919 0.0
O831 O 0.61071 0.01275 0.36441 0.0
H832 H 0.63471 0.96131 0.14396 0.0
H833 H 0.66545 0.96789 0.0711 0.0
H834 H 0.71268 0.03081 0.15596 0.0
H835 H 0.67936 0.02659 0.22662 0.0
H836 H 0.5698 0.09367 0.48229 0.0
H837 H 0.54204 0.07962 0.55759 0.0
H838 H 0.4653 0.09492 0.47256 0.0
H839 H 0.49302 0.10937 0.39741 0.0
C840 C 0.25808 0.39197 0.48755 0.0
Eu841 Eu 0.22465 0.35588 0.53066 0.0
C842 C 0.25477 0.41426 0.44904 0.0
C843 C 0.27285 0.41472 0.40667 0.0
C844 C 0.26761 0.43303 0.36592 0.0
C845 C 0.24459 0.4519 0.36746 0.0
C846 C 0.22765 0.45255 0.41174 0.0
C847 C 0.23245 0.43367 0.45197 0.0
C848 C 0.23611 0.30226 0.56457 0.0
C849 C 0.19024 0.3109 0.45651 0.0
C850 C 0.14107 0.29961 0.63288 0.0
Eu851 Eu 0.17341 0.32904 0.57197 0.0
C852 C 0.14881 0.28314 0.68004 0.0
C853 C 0.12835 0.27566 0.71668 0.0
C854 C 0.13579 0.26012 0.76099 0.0
C855 C 0.16387 0.25148 0.76967 0.0
C856 C 0.1843 0.25887 0.73278 0.0
C857 C 0.17692 0.27472 0.68887 0.0
C858 C 0.15969 0.3696 0.49738 0.0
C859 C 0.22157 0.35305 0.65726 0.0
O860 O 0.24545 0.39642 0.53167 0.0
O861 O 0.25521 0.36605 0.47073 0.0
O862 O 0.25444 0.3226 0.5638 0.0
O863 O 0.21372 0.31203 0.54653 0.0
O864 O 0.20755 0.33319 0.45755 0.0
O865 O 0.17745 0.30245 0.49946 0.0
O866 O 0.15107 0.28998 0.58928 0.0
O867 O 0.14323 0.32715 0.63605 0.0
O868 O 0.1443 0.34821 0.5111 0.0
O869 O 0.17972 0.3716 0.53154 0.0
O870 O 0.19765 0.3396 0.6479 0.0
O871 O 0.2354 0.36363 0.61727 0.0
H872 H 0.28999 0.3997 0.40362 0.0
H873 H 0.28038 0.43053 0.33169 0.0
H874 H 0.20954 0.46633 0.41365 0.0
H875 H 0.21794 0.43348 0.48421 0.0
H876 H 0.10658 0.28186 0.71108 0.0
H877 H 0.11947 0.25467 0.78843 0.0
H878 H 0.20613 0.25288 0.73844 0.0
H879 H 0.1933 0.28053 0.66185 0.0
C880 C 0.86601 0.01776 0.72857 0.0
Eu881 Eu 0.8949 0.97911 0.77708 0.0
C882 C 0.84865 0.01997 0.68174 0.0
C883 C 0.85869 0.00952 0.63463 0.0
C884 C 0.84042 0.00653 0.59308 0.0
C885 C 0.81178 0.0134 0.59818 0.0
C886 C 0.80206 0.02599 0.64363 0.0
C887 C 0.8206 0.02953 0.68527 0.0
C888 C 0.94816 0.98812 0.81506 0.0
C889 C 0.93928 0.94305 0.70503 0.0
C890 C 0.94891 0.89528 0.88134 0.0
Eu891 Eu 0.9194 0.92736 0.81999 0.0
C892 C 0.96636 0.9024 0.92809 0.0
C893 C 0.95757 0.89452 0.97789 0.0
C894 C 0.97365 0.90168 1.02172 0.0
C895 C 0.99911 0.91689 1.01716 0.0
C896 C 0.0077 0.92509 0.96746 0.0
C897 C 0.99171 0.91782 0.92366 0.0
C898 C 0.87934 0.91333 0.74498 0.0
C899 C 0.89494 0.97596 0.90391 0.0
O900 O 0.85562 0.00202 0.76542 0.0
O901 O 0.89307 0.01376 0.72212 0.0
O902 O 0.92772 0.00613 0.81843 0.0
O903 O 0.93825 0.96664 0.79425 0.0
O904 O 0.91723 0.96062 0.70473 0.0
O905 O 0.94694 0.93054 0.74871 0.0
O906 O 0.9582 0.90447 0.83687 0.0
O907 O 0.92141 0.89779 0.88526 0.0
O908 O 0.90025 0.89776 0.76034 0.0
O909 O 0.87721 0.93429 0.77739 0.0
O910 O 0.90853 0.95201 0.89537 0.0
O911 O 0.88476 0.98963 0.86317 0.0
H912 H 0.88019 0.00215 0.63061 0.0
H913 H 0.84824 0.99703 0.55782 0.0
H914 H 0.78 0.03137 0.64799 0.0
H915 H 0.81254 0.03774 0.72138 0.0
H916 H 0.93814 0.88286 0.98302 0.0
H917 H 0.966 0.89543 1.05938 0.0
H918 H 0.02717 0.93667 0.96226 0.0
H919 H 0.99941 0.92427 0.88622 0.0
C920 C 0.23907 0.61232 0.98677 0.0
Eu921 Eu 0.27662 0.64463 1.02939 0.0
C922 C 0.23772 0.59225 0.94467 0.0
C923 C 0.21295 0.57696 0.93537 0.0
C924 C 0.2115 0.5587 0.8932 0.0
C925 C 0.23519 0.55506 0.86165 0.0
C926 C 0.26049 0.56898 0.87349 0.0
C927 C 0.26148 0.5881 0.91392 0.0
C928 C 0.26709 0.69814 0.06581 0.0
C929 C 0.31332 0.68739 0.95648 0.0
C930 C 0.35944 0.70014 0.13344 0.0
Eu931 Eu 0.32788 0.66914 0.07353 0.0
C932 C 0.35302 0.7159 0.18235 0.0
C933 C 0.34872 0.70179 0.22951 0.0
C934 C 0.34119 0.7167 0.27436 0.0
C935 C 0.33816 0.7463 0.27383 0.0
C936 C 0.34242 0.7604 0.22664 0.0
C937 C 0.34979 0.74545 0.1817 0.0
C938 C 0.34234 0.63014 0.99696 0.0
C939 C 0.2794 0.64432 0.15629 0.0
O940 O 0.25522 0.60443 1.02517 0.0
O941 O 0.24275 0.63877 0.97366 0.0
O942 O 0.24917 0.67761 0.06874 0.0
O943 O 0.28887 0.68829 1.04586 0.0
O944 O 0.29484 0.66615 0.95658 0.0
O945 O 0.32593 0.69524 1.00003 0.0
O946 O 0.34724 0.70971 0.09164 0.0
O947 O 0.35962 0.67242 0.13494 0.0
O948 O 0.35842 0.64968 1.0164 0.0
O949 O 0.3212 0.62764 1.02871 0.0
O950 O 0.30419 0.65646 0.14884 0.0
O951 O 0.2652 0.63578 0.11512 0.0
H952 H 0.19446 0.58014 0.95917 0.0
H953 H 0.19156 0.54895 0.88321 0.0
H954 H 0.27867 0.56712 0.84838 0.0
H955 H 0.28057 0.60001 0.92083 0.0
H956 H 0.35094 0.67912 0.23177 0.0
H957 H 0.33749 0.7049 0.30948 0.0
H958 H 0.34045 0.78312 0.22458 0.0
H959 H 0.35285 0.75709 0.14617 0.0
C960 C 0.4427 0.10698 0.88384 0.0
Eu961 Eu 0.41714 0.07173 0.82266 0.0
C962 C 0.46003 0.10083 0.93072 0.0
C963 C 0.46238 0.12049 0.971 0.0
C964 C 0.47824 0.1142 1.01554 0.0
C965 C 0.4922 0.08805 1.02093 0.0
C966 C 0.49015 0.06862 0.98009 0.0
C967 C 0.47404 0.07478 0.93596 0.0
C968 C 0.37786 0.08438 0.74558 0.0
C969 C 0.39503 0.02483 0.90894 0.0
C970 C 0.36825 0.97686 0.74699 0.0
Eu971 Eu 0.39526 0.02024 0.78434 0.0
C972 C 0.3462 0.96892 0.71054 0.0
C973 C 0.34926 0.94452 0.68065 0.0
C974 C 0.33126 0.93993 0.63885 0.0
C975 C 0.31091 0.96037 0.62591 0.0
C976 C 0.30495 0.98171 0.66157 0.0
C977 C 0.32276 0.98631 0.70323 0.0
C978 C 0.44978 0.0136 0.82035 0.0
C979 C 0.43599 0.05722 0.7076 0.0
O980 O 0.45335 0.09842 0.83994 0.0
O981 O 0.41558 0.10166 0.88717 0.0
O982 O 0.39805 0.10025 0.7627 0.0
O983 O 0.3749 0.06369 0.77843 0.0
O984 O 0.41277 0.04535 0.89813 0.0
O985 O 0.38073 0.01435 0.86962 0.0
O986 O 0.35997 0.99144 0.7869 0.0
O987 O 0.39194 0.98619 0.72765 0.0
O988 O 0.42999 0.99516 0.82575 0.0
O989 O 0.43888 0.03398 0.79796 0.0
O990 O 0.41484 0.03858 0.70923 0.0
O991 O 0.4441 0.07003 0.75072 0.0
H992 H 0.45185 0.1407 0.96814 0.0
H993 H 0.47975 0.12994 1.04568 0.0
H994 H 0.50054 0.04834 0.98271 0.0
H995 H 0.47231 0.05895 0.90605 0.0
H996 H 0.36678 0.93028 0.68713 0.0
H997 H 0.33576 0.92264 0.61278 0.0
H998 H 0.28903 0.99716 0.65356 0.0
H999 H 0.31954 0.00466 0.72718 0.0
C1000 C 0.64575 0.69856 0.63034 0.0
Eu1001 Eu 0.67752 0.66711 0.57199 0.0
C1002 C 0.65282 0.71489 0.67763 0.0
C1003 C 0.63153 0.72452 0.71072 0.0
C1004 C 0.63828 0.74034 0.75491 0.0
C1005 C 0.66654 0.74685 0.7672 0.0
C1006 C 0.68781 0.73746 0.73353 0.0
C1007 C 0.68105 0.72159 0.68942 0.0
C1008 C 0.66167 0.62986 0.49342 0.0
C1009 C 0.72586 0.64225 0.65556 0.0
C1010 C 0.76348 0.60634 0.4856 0.0
Eu1011 Eu 0.72818 0.64135 0.52751 0.0
C1012 C 0.75936 0.58219 0.45167 0.0
C1013 C 0.77932 0.57521 0.41396 0.0
C1014 C 0.77215 0.55613 0.37494 0.0
C1015 C 0.7449 0.54451 0.37344 0.0
C1016 C 0.72639 0.54947 0.41419 0.0
C1017 C 0.73353 0.56797 0.45326 0.0
C1018 C 0.73942 0.6943 0.56498 0.0
C1019 C 0.69363 0.68687 0.45577 0.0
O1020 O 0.65769 0.70754 0.58796 0.0
O1021 O 0.64639 0.67095 0.63415 0.0
O1022 O 0.64631 0.6495 0.51409 0.0
O1023 O 0.68281 0.62599 0.52508 0.0
O1024 O 0.70098 0.65431 0.64814 0.0
O1025 O 0.73965 0.63335 0.6141 0.0
O1026 O 0.7527 0.60302 0.53162 0.0
O1027 O 0.75769 0.63108 0.46557 0.0
O1028 O 0.7574 0.67376 0.56436 0.0
O1029 O 0.71728 0.68478 0.54587 0.0
O1030 O 0.71171 0.66523 0.45515 0.0
O1031 O 0.68086 0.69402 0.49951 0.0
H1032 H 0.60963 0.71989 0.70231 0.0
H1033 H 0.6213 0.74767 0.77937 0.0
H1034 H 0.70975 0.74198 0.74179 0.0
H1035 H 0.69792 0.71454 0.66441 0.0
H1036 H 0.79943 0.58602 0.41248 0.0
H1037 H 0.78653 0.55311 0.34296 0.0
H1038 H 0.70501 0.54231 0.41184 0.0
H1039 H 0.71776 0.57313 0.48197 0.0
C1040 C 0.05144 0.89493 0.37862 0.0
Eu1041 Eu 0.0816 0.92745 0.31962 0.0
C1042 C 0.03472 0.90213 0.42568 0.0
C1043 C 0.03078 0.88233 0.46531 0.0
C1044 C 0.01544 0.88939 0.50997 0.0
C1045 C 0.00365 0.91651 0.51628 0.0
C1046 C 0.00729 0.93616 0.47614 0.0
C1047 C 0.02279 0.92916 0.43171 0.0
C1048 C 0.1211 0.91306 0.24381 0.0
C1049 C 0.10501 0.97463 0.40652 0.0
C1050 C 0.14381 0.01625 0.24489 0.0
Eu1051 Eu 0.10911 0.97841 0.28039 0.0
C1052 C 0.16631 0.02114 0.20776 0.0
C1053 C 0.17483 0.04873 0.19657 0.0
C1054 C 0.19409 0.05368 0.15688 0.0
C1055 C 0.20419 0.03105 0.12705 0.0
C1056 C 0.19726 0.00336 0.14171 0.0
C1057 C 0.17902 0.99849 0.18265 0.0
C1058 C 0.0553 0.98926 0.3145 0.0
C1059 C 0.06516 0.94362 0.20373 0.0
O1060 O 0.04212 0.9056 0.33513 0.0
O1061 O 0.07903 0.89667 0.38269 0.0
O1062 O 0.10045 0.89746 0.26013 0.0
O1063 O 0.12429 0.93317 0.27762 0.0
O1064 O 0.08812 0.95324 0.39568 0.0
O1065 O 0.11925 0.98581 0.36765 0.0
O1066 O 0.14993 0.99874 0.28223 0.0
O1067 O 0.11828 0.01266 0.22654 0.0
O1068 O 0.07604 0.00694 0.31799 0.0
O1069 O 0.06499 0.96769 0.29377 0.0
O1070 O 0.08647 0.96218 0.20598 0.0
O1071 O 0.05622 0.93071 0.24613 0.0
H1072 H 0.03962 0.86136 0.4618 0.0
H1073 H 0.01264 0.87349 0.53951 0.0
H1074 H 0.99857 0.95718 0.47949 0.0
H1075 H 0.02559 0.94504 0.4021 0.0
H1076 H 0.16572 0.06646 0.21697 0.0
H1077 H 0.19913 0.07524 0.14661 0.0
H1078 H 0.20399 0.98543 0.11912 0.0
H1079 H 0.17407 0.97707 0.19353 0.0
C1080 C 0.85355 0.30338 0.13074 0.0
Eu1081 Eu 0.82054 0.33296 0.07089 0.0
C1082 C 0.84799 0.28689 0.1791 0.0
C1083 C 0.84219 0.30033 0.22637 0.0
C1084 C 0.83559 0.28459 0.27074 0.0
C1085 C 0.83487 0.25487 0.26944 0.0
C1086 C 0.84063 0.24144 0.22217 0.0
C1087 C 0.84722 0.25719 0.17778 0.0
C1088 C 0.8361 0.37177 0.99495 0.0
C1089 C 0.7712 0.3554 0.15367 0.0
C1090 C 0.73042 0.38914 0.98723 0.0
Eu1091 Eu 0.76949 0.3567 1.02605 0.0
C1092 C 0.72435 0.41118 0.9489 0.0
C1093 C 0.70795 0.40471 0.90536 0.0
C1094 C 0.70858 0.42255 0.86256 0.0
C1095 C 0.72676 0.44591 0.86286 0.0
C1096 C 0.73664 0.45596 0.91026 0.0
C1097 C 0.73627 0.43822 0.95316 0.0
C1098 C 0.75993 0.30273 1.06157 0.0
C1099 C 0.80578 0.3135 0.95389 0.0
O1100 O 0.84216 0.29345 0.0885 0.0
O1101 O 0.85192 0.33101 0.13306 0.0
O1102 O 0.85144 0.35169 1.01416 0.0
O1103 O 0.81436 0.37462 1.02555 0.0
O1104 O 0.79648 0.34434 0.14644 0.0
O1105 O 0.75705 0.36373 0.11225 0.0
O1106 O 0.74674 0.39625 1.02596 0.0
O1107 O 0.7357 0.36365 0.97002 0.0
O1108 O 0.74147 0.32283 1.06204 0.0
O1109 O 0.78188 0.3131 1.04312 0.0
O1110 O 0.78735 0.33483 0.95303 0.0
O1111 O 0.81826 0.30636 0.99801 0.0
H1112 H 0.84251 0.32309 0.2291 0.0
H1113 H 0.83074 0.29579 0.30604 0.0
H1114 H 0.84043 0.21865 0.21962 0.0
H1115 H 0.85161 0.24607 0.14218 0.0
H1116 H 0.69725 0.3846 0.90229 0.0
H1117 H 0.69982 0.41494 0.82649 0.0
H1118 H 0.74931 0.47481 0.91141 0.0
H1119 H 0.74768 0.44454 0.98746 0.0
C1120 C 0.45047 0.89804 0.15344 0.0
Eu1121 Eu 0.41951 0.92943 0.21319 0.0
C1122 C 0.46722 0.90498 0.1058 0.0
C1123 C 0.45539 0.90229 1.05612 0.0
C1124 C 0.47086 0.90963 1.01177 0.0
C1125 C 0.49869 0.91995 1.01553 0.0
C1126 C 0.51057 0.92245 0.06519 0.0
C1127 C 0.49512 0.9151 0.10952 0.0
C1128 C 0.3801 0.91274 0.28752 0.0
C1129 C 0.39423 0.97531 0.12697 0.0
C1130 C 0.35486 0.01475 0.29278 0.0
Eu1131 Eu 0.38995 0.97867 0.25267 0.0
C1132 C 0.33252 0.01419 0.33145 0.0
C1133 C 0.33138 0.03532 0.36919 0.0
C1134 C 0.31596 0.0308 0.41426 0.0
C1135 C 0.30208 0.00501 0.42164 0.0
C1136 C 0.30023 0.98575 0.38083 0.0
C1137 C 0.31516 0.99041 0.33568 0.0
C1138 C 0.44328 0.99186 0.21868 0.0
C1139 C 0.43509 0.94549 0.32919 0.0
O1140 O 0.45961 0.90872 0.19703 0.0
O1141 O 0.4228 0.89893 0.1499 0.0
O1142 O 0.40215 0.89892 0.27207 0.0
O1143 O 0.376 0.93294 0.25419 0.0
O1144 O 0.4125 0.95523 0.13804 0.0
O1145 O 0.37882 0.98524 0.16552 0.0
O1146 O 0.34978 0.00035 0.25077 0.0
O1147 O 0.38052 0.01094 0.31019 0.0
O1148 O 0.42196 0.00883 0.21595 0.0
O1149 O 0.43452 0.97003 0.23961 0.0
O1150 O 0.41174 0.96144 0.32739 0.0
O1151 O 0.44531 0.93432 0.28611 0.0
H1152 H 0.43404 0.8946 1.05141 0.0
H1153 H 0.46089 0.90743 0.97435 0.0
H1154 H 0.5321 0.9296 0.06988 0.0
H1155 H 0.50516 0.91736 0.14686 0.0
H1156 H 0.34452 0.05394 0.36609 0.0
H1157 H 0.31812 0.0456 0.44591 0.0
H1158 H 0.2912 0.9651 0.38683 0.0
H1159 H 0.31572 0.97382 0.30697 0.0
C1160 C 0.85703 0.69548 0.89996 0.0
Eu1161 Eu 0.82502 0.66485 0.95953 0.0
C1162 C 0.84956 0.71123 0.85207 0.0
C1163 C 0.87043 0.72371 0.82127 0.0
C1164 C 0.86301 0.73952 0.77729 0.0
C1165 C 0.83451 0.74322 0.76289 0.0
C1166 C 0.81374 0.7302 0.79351 0.0
C1167 C 0.82114 0.71476 0.83774 0.0
C1168 C 0.83998 0.62502 1.03463 0.0
C1169 C 0.77629 0.64118 0.87508 0.0
C1170 C 0.738 0.60462 1.04303 0.0
Eu1171 Eu 0.77448 0.63896 1.00267 0.0
C1172 C 0.73432 0.5834 0.08297 0.0
C1173 C 0.70739 0.57226 0.09178 0.0
C1174 C 0.70301 0.55346 0.1324 0.0
C1175 C 0.72558 0.54581 0.16451 0.0
C1176 C 0.75277 0.55604 0.15383 0.0
C1177 C 0.7572 0.57455 0.11296 0.0
C1178 C 0.76338 0.69251 0.9677 0.0
C1179 C 0.81002 0.68341 0.07595 0.0
O1180 O 0.8453 0.70496 0.94216 0.0
O1181 O 0.85626 0.66783 0.89739 0.0
O1182 O 0.855 0.64639 1.01958 0.0
O1183 O 0.81938 0.62254 1.00167 0.0
O1184 O 0.80111 0.65312 0.88352 0.0
O1185 O 0.7623 0.63185 0.91601 0.0
O1186 O 0.75502 0.59769 1.00538 0.0
O1187 O 0.74111 0.63079 1.05838 0.0
O1188 O 0.74552 0.67184 0.96605 0.0
O1189 O 0.7855 0.68284 0.98683 0.0
O1190 O 0.79195 0.66168 0.07599 0.0
O1191 O 0.82215 0.69131 1.03212 0.0
H1192 H 0.89247 0.72151 0.83154 0.0
H1193 H 0.87965 0.74924 0.75493 0.0
H1194 H 0.79166 0.73171 0.78319 0.0
H1195 H 0.80451 0.70576 0.86105 0.0
H1196 H 0.6896 0.57888 0.06845 0.0
H1197 H 0.68176 0.54657 0.14114 0.0
H1198 H 0.7701 0.55181 0.18 0.0
H1199 H 0.77811 0.58306 0.10644 0.0
C1200 C 0.05288 0.10848 0.64603 0.0
Eu1201 Eu 0.07984 0.07463 0.70754 0.0
C1202 C 0.03659 0.10241 0.59776 0.0
C1203 C 0.05024 0.09462 0.55167 0.0
C1204 C 0.03464 0.08721 0.50763 0.0
C1205 C 0.00495 0.08729 0.5083 0.0
C1206 C 0.99128 0.09488 0.55437 0.0
C1207 C 0.00688 0.10253 0.59835 0.0
C1208 C 0.11958 0.08936 0.78354 0.0
C1209 C 0.10344 0.02577 0.62436 0.0
C1210 C 0.14036 0.99181 0.80085 0.0
Eu1211 Eu 0.10628 0.02472 0.75069 0.0
C1212 C 0.16208 0.99842 0.83888 0.0
C1213 C 0.1689 0.97913 0.8778 0.0
C1214 C 0.18721 0.98711 0.91744 0.0
C1215 C 0.19883 0.01439 0.91812 0.0
C1216 C 0.19342 0.03282 0.87722 0.0
C1217 C 0.17489 0.02509 0.83816 0.0
C1218 C 0.05339 0.01218 0.71411 0.0
C1219 C 0.05924 0.05945 0.82096 0.0
O1220 O 0.04196 0.09865 0.6888 0.0
O1221 O 0.08042 0.10533 0.64452 0.0
O1222 O 0.09738 0.10358 0.77027 0.0
O1223 O 0.12241 0.06945 0.74952 0.0
O1224 O 0.08647 0.04735 0.63355 0.0
O1225 O 0.11756 0.01528 0.66435 0.0
O1226 O 0.14549 0.00133 0.75448 0.0
O1227 O 0.11442 0.99648 0.81558 0.0
O1228 O 0.0742 0.9944 0.71519 0.0
O1229 O 0.06233 0.03458 0.7332 0.0
O1230 O 0.08194 0.04265 0.82194 0.0
O1231 O 0.05138 0.0713 0.77689 0.0
H1232 H 0.07303 0.09386 0.54965 0.0
H1233 H 0.04588 0.08099 0.4731 0.0
H1234 H 0.96847 0.0953 0.55618 0.0
H1235 H 0.99565 0.10832 0.63313 0.0
H1236 H 0.15906 0.95852 0.87887 0.0
H1237 H 0.19055 0.97277 0.94945 0.0
H1238 H 0.20238 0.05371 0.87737 0.0
H1239 H 0.16997 0.04019 0.80813 0.0
C1240 C 0.64132 0.29606 0.39802 0.0
Eu1241 Eu 0.67455 0.32543 0.45727 0.0
C1242 C 0.64837 0.27981 0.35044 0.0
C1243 C 0.62811 0.27502 0.31186 0.0
C1244 C 0.63503 0.25961 0.26719 0.0
C1245 C 0.66235 0.24847 0.26021 0.0
C1246 C 0.68253 0.25317 0.29905 0.0
C1247 C 0.67572 0.26886 0.34328 0.0
C1248 C 0.66141 0.36079 0.53969 0.0
C1249 C 0.72081 0.3525 0.37158 0.0
C1250 C 0.76727 0.37869 0.53779 0.0
Eu1251 Eu 0.72653 0.34959 0.49701 0.0
C1252 C 0.77527 0.39238 0.58602 0.0
C1253 C 0.77399 0.3773 0.63215 0.0
C1254 C 0.77734 0.39114 0.67855 0.0
C1255 C 0.78238 0.42045 0.68019 0.0
C1256 C 0.78586 0.43518 0.63363 0.0
C1257 C 0.78248 0.4211 0.58663 0.0
C1258 C 0.7347 0.29712 0.45432 0.0
C1259 C 0.69297 0.30478 0.5706 0.0
O1260 O 0.65232 0.28629 0.44079 0.0
O1261 O 0.64309 0.32367 0.39506 0.0
O1262 O 0.64527 0.34157 0.51963 0.0
O1263 O 0.68144 0.36573 0.50625 0.0
O1264 O 0.69776 0.33742 0.38024 0.0
O1265 O 0.73377 0.36328 0.41227 0.0
O1266 O 0.74625 0.39016 0.51249 0.0
O1267 O 0.76608 0.3511 0.53845 0.0
O1268 O 0.75211 0.31794 0.44955 0.0
O1269 O 0.71422 0.30639 0.4788 0.0
O1270 O 0.71077 0.32662 0.57047 0.0
O1271 O 0.67991 0.29724 0.52735 0.0
H1272 H 0.60693 0.28322 0.31621 0.0
H1273 H 0.61893 0.25624 0.23816 0.0
H1274 H 0.70379 0.24518 0.29472 0.0
H1275 H 0.69195 0.27254 0.37192 0.0
H1276 H 0.76839 0.35515 0.63289 0.0
H1277 H 0.77277 0.37901 0.71287 0.0
H1278 H 0.78968 0.45769 0.63359 0.0
H1279 H 0.78396 0.43291 0.55094 0.0
C1280 C 0.2081 0.51265 0.48529 0.0
C1281 C 0.18433 0.53061 0.48371 0.0
C1282 C 0.21263 0.49466 0.52745 0.0
C1283 C 0.19355 0.49456 0.56846 0.0
H1284 H 0.22143 0.51012 0.45181 0.0
H1285 H 0.22981 0.47965 0.52646 0.0
S1286 S 0.13355 0.54321 0.58913 0.0
N1287 N 0.14699 0.55284 0.53321 0.0
N1288 N 0.15383 0.51748 0.61019 0.0
C1289 C 0.17262 0.51549 0.57078 0.0
C1290 C 0.16885 0.53441 0.52924 0.0
C1291 C 0.73024 0.95595 0.81274 0.0
C1292 C 0.75974 0.95644 0.8182 0.0
C1293 C 0.71778 0.95551 0.76379 0.0
C1294 C 0.73465 0.95545 0.71942 0.0
H1295 H 0.71698 0.95145 0.84558 0.0
H1296 H 0.6954 0.95122 0.76076 0.0
S1297 S 0.81212 0.96229 0.71438 0.0
N1298 N 0.80484 0.96179 0.77653 0.0
N1299 N 0.7815 0.96127 0.68443 0.0
C1300 C 0.76358 0.96081 0.72494 0.0
C1301 C 0.77622 0.96115 0.77464 0.0
C1302 C 0.28308 0.52842 0.98632 0.0
C1303 C 0.28698 0.50126 0.96574 0.0
C1304 C 0.2822 0.53247 1.0396 0.0
C1305 C 0.28546 0.50927 0.07254 0.0
H1306 H 0.28655 0.54664 0.96239 0.0
H1307 H 0.28489 0.55373 1.05409 0.0
S1308 S 0.28321 0.43416 1.03699 0.0
N1309 N 0.28406 0.45096 0.98145 0.0
N1310 N 0.28133 0.45864 0.08196 0.0
C1311 C 0.28089 0.48221 1.05222 0.0
C1312 C 0.28233 0.47806 0.99801 0.0
C1313 C 0.80596 0.05085 0.27281 0.0
C1314 C 0.77947 0.04285 0.29287 0.0
C1315 C 0.81377 0.04324 0.22275 0.0
C1316 C 0.79358 0.03117 0.18999 0.0
H1317 H 0.81934 0.06556 0.29304 0.0
H1318 H 0.83195 0.05355 0.206 0.0
S1319 S 0.73548 0.98626 0.23683 0.0
N1320 N 0.74226 0.00774 0.28549 0.0
N1321 N 0.75717 0.99531 0.18968 0.0
C1322 C 0.77186 0.01604 0.21367 0.0
C1323 C 0.76395 0.02269 0.26516 0.0
C1324 C 0.8209 0.46791 1.03876 0.0
C1325 C 0.79738 0.47416 0.06956 0.0
C1326 C 0.82316 0.47873 0.98926 0.0
C1327 C 0.80167 0.4953 0.96812 0.0
H1328 H 0.83897 0.45683 1.05448 0.0
H1329 H 0.84244 0.47499 0.96787 0.0
S1330 S 0.73411 0.51437 1.02946 0.0
N1331 N 0.75095 0.49579 0.07385 0.0
N1332 N 0.75528 0.51598 0.97897 0.0
C1333 C 0.77731 0.50051 0.99684 0.0
C1334 C 0.77502 0.48965 1.04791 0.0
C1335 C 0.30037 0.05712 0.76842 0.0
C1336 C 0.28474 0.04436 0.80796 0.0
C1337 C 0.29066 0.05614 0.71794 0.0
C1338 C 0.26714 0.03984 0.70456 0.0
H1339 H 0.31683 0.07214 0.77764 0.0
H1340 H 0.29948 0.07082 0.69059 0.0
S1341 S 0.22958 0.9899 0.78931 0.0
N1342 N 0.25106 0.00718 0.82848 0.0
N1343 N 0.23477 0.00304 0.73104 0.0
C1344 C 0.2554 0.022 0.74172 0.0
C1345 C 0.26432 0.02418 0.7941 0.0
C1346 C 0.70917 0.46667 0.4989 0.0
C1347 C 0.68392 0.47988 0.48299 0.0
C1348 C 0.70982 0.4463 0.53888 0.0
C1349 C 0.68528 0.4377 0.56502 0.0
H1350 H 0.7289 0.47255 0.48089 0.0
H1351 H 0.72999 0.43949 0.55355 0.0
S1352 S 0.59999 0.46216 0.56422 0.0
N1353 N 0.62874 0.48658 0.51578 0.0
N1354 N 0.63062 0.42833 0.57091 0.0
C1355 C 0.66098 0.43482 0.53732 0.0
C1356 C 0.65938 0.46933 0.50369 0.0
C1357 C 0.22879 0.97116 0.29896 0.0
C1358 C 0.23858 0.949 0.32977 0.0
C1359 C 0.23944 0.97461 0.24894 0.0
C1360 C 0.25922 0.95545 0.22875 0.0
H1361 H 0.21174 0.98453 0.31215 0.0
H1362 H 0.23042 0.99058 0.2244 0.0
S1363 S 0.29464 0.89738 0.29919 0.0
N1364 N 0.27228 0.91093 0.34107 0.0
N1365 N 0.29134 0.91664 0.24652 0.0
C1366 C 0.27156 0.93561 0.26195 0.0
C1367 C 0.26112 0.93235 0.31263 0.0
C1368 C 0.71346 0.03327 1.04739 0.0
C1369 C 0.70974 0.00489 1.06189 0.0
C1370 C 0.71459 0.04076 0.99544 0.0
C1371 C 0.7119 0.02014 0.95715 0.0
H1372 H 0.71116 0.05016 0.07506 0.0
H1373 H 0.71271 0.06279 0.98532 0.0
S1374 S 0.70882 0.94283 0.9762 0.0
N1375 N 0.71193 0.95589 1.03488 0.0
N1376 N 0.70969 0.97023 0.93703 0.0
C1377 C 0.71308 0.99162 0.97131 0.0
C1378 C 0.71339 0.98394 1.0242 0.0
C1379 C 0.1992 0.45762 0.25245 0.0
C1380 C 0.22007 0.45836 0.21436 0.0
C1381 C 0.20642 0.46116 0.30429 0.0
C1382 C 0.23474 0.46525 0.3189 0.0
H1383 H 0.17835 0.4499 0.2431 0.0
H1384 H 0.19062 0.45605 0.33264 0.0
S1385 S 0.29486 0.47746 0.232 0.0
N1386 N 0.26842 0.46973 0.19307 0.0
N1387 N 0.28157 0.47857 0.29066 0.0
C1388 C 0.2542 0.47229 0.28029 0.0
C1389 C 0.24701 0.46803 0.22759 0.0
C1390 C 0.78009 0.01105 0.4681 0.0
C1391 C 0.78525 0.98256 0.45733 0.0
C1392 C 0.7846 0.02182 0.51782 0.0
C1393 C 0.7925 0.0035 0.5577 0.0
H1394 H 0.77733 0.02537 0.43675 0.0
H1395 H 0.78558 0.04445 0.52326 0.0
S1396 S 0.7956 0.92611 0.55107 0.0
N1397 N 0.78829 0.93567 0.49158 0.0
N1398 N 0.79723 0.95511 0.5855 0.0
C1399 C 0.79064 0.9744 0.54903 0.0
C1400 C 0.78601 0.96389 0.49852 0.0
C1401 C 0.23344 0.56748 0.72319 0.0
C1402 C 0.24846 0.54428 0.70419 0.0
C1403 C 0.22462 0.56832 0.7741 0.0
C1404 C 0.23174 0.5465 0.80809 0.0
H1405 H 0.22984 0.58583 0.69909 0.0
H1406 H 0.21508 0.5876 0.78832 0.0
S1407 S 0.26477 0.47849 0.77372 0.0
N1408 N 0.26621 0.49716 0.72003 0.0
N1409 N 0.24986 0.49891 0.81768 0.0
C1410 C 0.24466 0.52214 0.7887 0.0
C1411 C 0.25336 0.52113 0.73621 0.0
C1412 C 0.3279 0.96609 0.53696 0.0
C1413 C 0.30482 0.96629 0.57102 0.0
C1414 C 0.32639 0.97927 0.48935 0.0
C1415 C 0.30182 0.99311 0.47355 0.0
H1416 H 0.34807 0.95729 0.54814 0.0
H1417 H 0.34485 0.97889 0.46466 0.0
S1418 S 0.23458 0.998 0.54503 0.0
N1419 N 0.25558 0.97956 0.58327 0.0
N1420 N 0.25355 0.00604 0.49362 0.0
C1421 C 0.27826 0.99319 0.50592 0.0
C1422 C 0.27952 0.97915 0.55454 0.0
C1423 C 0.70692 0.55563 0.24967 0.0
C1424 C 0.72009 0.53604 0.21719 0.0
C1425 C 0.7136 0.55653 0.3018 0.0
C1426 C 0.73264 0.53718 0.32337 0.0
H1427 H 0.69466 0.57287 0.23373 0.0
H1428 H 0.70626 0.57436 0.3241 0.0
S1429 S 0.76379 0.47535 0.25838 0.0
N1430 N 0.74698 0.49249 0.21197 0.0
N1431 N 0.75898 0.49382 0.31175 0.0
C1432 C 0.74248 0.51488 0.29311 0.0
C1433 C 0.73599 0.51418 0.23948 0.0
C1434 C 0.19756 0.05336 1.04223 0.0
C1435 C 0.21419 0.03585 0.07377 0.0
C1436 C 0.19548 0.04834 0.98947 0.0
C1437 C 0.20999 0.02578 0.9667 0.0
H1438 H 0.18301 0.06841 1.05888 0.0
H1439 H 0.17968 0.05984 0.96791 0.0
S1440 S 0.26444 0.98147 1.02844 0.0
N1441 N 0.25186 0.001 0.07596 0.0
N1442 N 0.24695 0.99085 0.97603 0.0
C1443 C 0.2301 0.01126 0.99594 0.0
C1444 C 0.23268 0.01673 1.04972 0.0
C1445 C 0.75879 0.45803 0.73174 0.0
C1446 C 0.77811 0.43537 0.72975 0.0
C1447 C 0.74331 0.46351 0.77677 0.0
C1448 C 0.74711 0.44656 0.82039 0.0
H1449 H 0.75328 0.46951 0.69708 0.0
H1450 H 0.72693 0.47938 0.77627 0.0
S1451 S 0.79712 0.38731 0.83621 0.0
N1452 N 0.80372 0.39978 0.77813 0.0
N1453 N 0.7728 0.40812 0.86056 0.0
C1454 C 0.76863 0.42622 0.82055 0.0
C1455 C 0.785 0.42148 0.77586 0.0
C1456 C 0.14992 0.36445 0.39974 0.0
C1457 C 0.1564 0.38256 0.44179 0.0
C1458 C 0.14215 0.37415 0.3494 0.0
C1459 C 0.13901 0.40306 0.33606 0.0
H1460 H 0.14964 0.34196 0.40613 0.0
H1461 H 0.13715 0.35828 0.32076 0.0
S1462 S 0.14836 0.46036 0.43309 0.0
N1463 N 0.15672 0.43181 0.46625 0.0
N1464 N 0.14063 0.44995 0.3738 0.0
C1465 C 0.14481 0.42177 0.37794 0.0
C1466 C 0.15363 0.41169 0.42957 0.0
C1467 C 0.88153 0.90463 0.64638 0.0
C1468 C 0.86477 0.90726 0.69159 0.0
C1469 C 0.8713 0.89396 0.59803 0.0
C1470 C 0.84324 0.88444 0.59001 0.0
H1471 H 0.90363 0.90966 0.64876 0.0
H1472 H 0.88622 0.89217 0.5666 0.0
S1473 S 0.79047 0.88208 0.69685 0.0
N1474 N 0.81849 0.89586 0.72516 0.0
N1475 N 0.79919 0.87662 0.63593 0.0
C1476 C 0.82612 0.88621 0.63532 0.0
C1477 C 0.83674 0.89719 0.68497 0.0
C1478 C 0.33965 0.59325 0.91724 0.0
C1479 C 0.34772 0.61961 0.93975 0.0
C1480 C 0.3481 0.58452 0.86544 0.0
C1481 C 0.36542 0.60139 0.83247 0.0
H1482 H 0.32722 0.57887 0.94019 0.0
H1483 H 0.34124 0.56422 0.85142 0.0
S1484 S 0.39015 0.67354 0.86897 0.0
N1485 N 0.37306 0.66279 0.92059 0.0
N1486 N 0.38763 0.64743 0.82739 0.0
C1487 C 0.37235 0.6281 0.8542 0.0
C1488 C 0.36409 0.63674 0.90606 0.0
C1489 C 0.62235 0.11262 0.10039 0.0
C1490 C 0.65117 0.11223 0.08509 0.0
C1491 C 0.61253 0.10441 0.15052 0.0
C1492 C 0.63035 0.09438 0.1907 0.0
H1493 H 0.60676 0.12053 0.07345 0.0
H1494 H 0.59025 0.10683 0.15825 0.0
S1495 S 0.70821 0.09154 0.17679 0.0
N1496 N 0.69796 0.1024 0.11902 0.0
N1497 N 0.67946 0.08647 0.21132 0.0
C1498 C 0.65933 0.09354 0.17652 0.0
C1499 C 0.6696 0.1024 0.12497 0.0
C1500 C 0.16569 0.58656 0.67106 0.0
C1501 C 0.13792 0.59139 0.69044 0.0
C1502 C 0.17544 0.5971 0.62118 0.0
C1503 C 0.15773 0.61237 0.58614 0.0
H1504 H 0.18014 0.57498 0.6951 0.0
H1505 H 0.19715 0.59361 0.61061 0.0
S1506 S 0.08259 0.62982 0.61558 0.0
N1507 N 0.0933 0.61308 0.66774 0.0
N1508 N 0.11 0.6302 0.57669 0.0
C1509 C 0.12983 0.61642 0.60507 0.0
C1510 C 0.12044 0.60669 0.65564 0.0
C1511 C 0.62038 0.90501 0.88455 0.0
C1512 C 0.63721 0.90804 0.83941 0.0
C1513 C 0.63091 0.89553 0.93364 0.0
C1514 C 0.65942 0.88771 0.94291 0.0
H1515 H 0.59802 0.90873 0.88168 0.0
H1516 H 0.61582 0.89309 0.96465 0.0
S1517 S 0.71245 0.88571 0.83692 0.0
N1518 N 0.68422 0.89845 0.80764 0.0
N1519 N 0.70391 0.88134 0.8982 0.0
C1520 C 0.67673 0.89014 0.89802 0.0
C1521 C 0.66581 0.8999 0.84747 0.0
C1522 C 0.33487 0.41019 0.17448 0.0
C1523 C 0.36397 0.40906 0.18913 0.0
C1524 C 0.3243 0.39938 0.12532 0.0
C1525 C 0.34215 0.38767 0.08615 0.0
H1526 H 0.31975 0.4179 0.20234 0.0
H1527 H 0.30173 0.39892 0.11949 0.0
S1528 S 0.41972 0.37874 0.10391 0.0
N1529 N 0.40949 0.39298 0.15875 0.0
N1530 N 0.39101 0.37638 0.06843 0.0
C1531 C 0.3711 0.38726 0.10048 0.0
C1532 C 0.38149 0.39691 0.15052 0.0
C1533 C 0.84955 0.13194 0.39863 0.0
C1534 C 0.84487 0.11395 0.44167 0.0
C1535 C 0.85866 0.12225 0.349 0.0
C1536 C 0.86461 0.09359 0.33742 0.0
H1537 H 0.84717 0.15438 0.40357 0.0
H1538 H 0.86207 0.13799 0.31937 0.0
S1539 S 0.86046 0.03708 0.43734 0.0
N1540 N 0.84991 0.06536 0.46914 0.0
N1541 N 0.86713 0.0473 0.37754 0.0
C1542 C 0.86098 0.07516 0.38047 0.0
C1543 C 0.8513 0.08517 0.43149 0.0
C1544 C 0.86102 0.62041 0.18121 0.0
C1545 C 0.86517 0.59156 0.19388 0.0
C1546 C 0.8517 0.63007 0.13166 0.0
C1547 C 0.84483 0.61195 0.08975 0.0
H1548 H 0.86632 0.63626 0.2097 0.0
H1549 H 0.8511 0.65258 0.12566 0.0
S1550 S 0.85644 0.53444 0.09587 0.0
N1551 N 0.86457 0.54489 0.15498 0.0
N1552 N 0.84613 0.56286 0.06411 0.0
C1553 C 0.84895 0.58288 0.10113 0.0
C1554 C 0.85912 0.57287 0.15195 0.0
C1555 C 0.11511 0.09775 0.88178 0.0
C1556 C 0.13298 0.09354 0.83848 0.0
C1557 C 0.12491 0.10628 0.9317 0.0
C1558 C 0.15361 0.11196 0.94338 0.0
H1559 H 0.09263 0.09572 0.87671 0.0
H1560 H 0.10922 0.10972 0.96138 0.0
S1561 S 0.20962 0.10981 0.84246 0.0
N1562 N 0.18131 0.09932 0.81062 0.0
N1563 N 0.19978 0.1149 0.90298 0.0
C1564 C 0.17201 0.10833 0.90024 0.0
C1565 C 0.16181 0.09947 0.84883 0.0
C1566 C 0.62467 0.37278 0.6098 0.0
C1567 C 0.6533 0.37419 0.59348 0.0
C1568 C 0.61464 0.38394 0.65774 0.0
C1569 C 0.63217 0.39719 0.69516 0.0
H1570 H 0.60921 0.36337 0.58429 0.0
H1571 H 0.59235 0.38185 0.66566 0.0
S1572 S 0.71004 0.39928 0.682 0.0
N1573 N 0.70005 0.38529 0.62643 0.0
N1574 N 0.68116 0.40629 0.71504 0.0
C1575 C 0.6612 0.39721 0.68152 0.0
C1576 C 0.67166 0.38558 0.63205 0.0
C1577 C 0.33975 0.91071 0.42452 0.0
C1578 C 0.34501 0.88283 0.44331 0.0
C1579 C 0.34965 0.92072 0.37441 0.0
C1580 C 0.36454 0.90324 0.33855 0.0
H1581 H 0.32889 0.92532 0.44946 0.0
H1582 H 0.34641 0.94261 0.36462 0.0
S1583 S 0.38238 0.82804 0.36546 0.0
N1584 N 0.36642 0.83836 0.4186 0.0
N1585 N 0.38203 0.85566 0.32701 0.0
C1586 C 0.36859 0.87521 0.35647 0.0
C1587 C 0.35964 0.86552 0.40728 0.0
C1588 C 0.85295 0.42227 0.87331 0.0
C1589 C 0.86637 0.40403 0.83675 0.0
C1590 C 0.84165 0.4124 0.92256 0.0
C1591 C 0.84382 0.38385 0.93978 0.0
H1592 H 0.85165 0.44446 0.86451 0.0
H1593 H 0.83171 0.4274 0.94785 0.0
S1594 S 0.87816 0.32734 0.86148 0.0
N1595 N 0.88052 0.35536 0.82421 0.0
N1596 N 0.86226 0.33823 0.91431 0.0
C1597 C 0.85779 0.36596 0.90384 0.0
C1598 C 0.86823 0.37556 0.85386 0.0
C1599 C 0.34024 0.08474 0.60592 0.0
C1600 C 0.34169 0.11362 0.59002 0.0
C1601 C 0.35055 0.07483 0.65588 0.0
C1602 C 0.3619 0.09323 0.6945 0.0
H1603 H 0.33241 0.06932 0.57866 0.0
H1604 H 0.35008 0.05241 0.66369 0.0
S1605 S 0.37228 0.17034 0.67298 0.0
N1606 N 0.35813 0.15947 0.61841 0.0
N1607 N 0.37395 0.14217 0.71001 0.0
C1608 C 0.36292 0.12193 0.67873 0.0
C1609 C 0.35377 0.13164 0.62798 0.0
C1610 C 0.65235 0.58655 0.36007 0.0
C1611 C 0.63597 0.60473 0.32789 0.0
C1612 C 0.66165 0.59408 0.41202 0.0
C1613 C 0.65553 0.62063 0.43559 0.0
H1614 H 0.65766 0.56605 0.34518 0.0
H1615 H 0.67275 0.57849 0.43455 0.0
S1616 S 0.61528 0.67749 0.36774 0.0
N1617 N 0.61596 0.65175 0.32509 0.0
N1618 N 0.63242 0.66538 0.41847 0.0
C1619 C 0.63988 0.63907 0.40277 0.0
C1620 C 0.6306 0.63145 0.35077 0.0
C1621 C 0.15079 0.86597 0.1317 0.0
C1622 C 0.15596 0.88352 0.08817 0.0
C1623 C 0.14218 0.87625 0.18131 0.0
C1624 C 0.13713 0.90516 0.19246 0.0
H1625 H 0.15227 0.84341 0.1271 0.0
H1626 H 0.13812 0.86079 0.21116 0.0
S1627 S 0.14135 0.96056 0.09009 0.0
N1628 N 0.15222 0.93197 1.05961 0.0
N1629 N 0.13463 0.95087 0.15014 0.0
C1630 C 0.14132 0.92314 0.14875 0.0
C1631 C 0.15088 0.91257 0.09801 0.0
C1632 C 0.99772 0.52091 0.2798 0.0
C1633 C 0.97724 0.5001 0.28986 0.0
C1634 C 0.02105 0.51542 0.24816 0.0
C1635 C 0.02483 0.48884 0.22513 0.0
H1636 H 0.99539 0.54188 0.29581 0.0
H1637 H 0.03675 0.5318 0.2435 0.0
S1638 S 0.97703 0.42728 0.23708 0.0
N1639 N 0.96218 0.45188 0.27296 0.0
N1640 N 0.00583 0.44178 0.21327 0.0
C1641 C 0.00429 0.46802 0.2341 0.0
C1642 C 0.98073 0.47346 0.26679 0.0
C1643 C 0.73053 0.76665 0.50833 0.0
C1644 C 0.75605 0.77081 0.4818 0.0
C1645 C 0.72649 0.74294 0.53972 0.0
C1646 C 0.74771 0.72241 0.54583 0.0
H1647 H 0.71388 0.78225 0.50641 0.0
H1648 H 0.70619 0.74018 0.55817 0.0
S1649 S 0.81848 0.72376 0.4851 0.0
N1650 N 0.80268 0.75243 0.46347 0.0
N1651 N 0.79545 0.70827 0.52336 0.0
C1652 C 0.77343 0.72654 0.52005 0.0
C1653 C 0.77734 0.75041 0.48743 0.0
C1654 C 0.50271 0.47495 0.78572 0.0
C1655 C 0.52459 0.49476 0.79208 0.0
C1656 C 0.47867 0.48111 0.7562 0.0
C1657 C 0.47552 0.5074 0.7317 0.0
H1658 H 0.50451 0.45417 0.80284 0.0
H1659 H 0.4621 0.46545 0.75404 0.0
S1660 S 0.52677 0.56644 0.73439 0.0
N1661 N 0.54152 0.54176 0.77034 0.0
N1662 N 0.49647 0.55312 0.71465 0.0
C1663 C 0.4973 0.52728 0.73725 0.0
C1664 C 0.52167 0.52115 0.76772 0.0
C1665 C 0.72245 0.24661 0.98315 0.0
C1666 C 0.74256 0.22479 0.9808 0.0
C1667 C 0.72711 0.27101 1.01269 0.0
C1668 C 0.75202 0.27449 1.04167 0.0
H1669 H 0.70257 0.24449 0.96285 0.0
H1670 H 0.71136 0.28753 1.01161 0.0
S1671 S 0.81049 0.22293 1.05233 0.0
N1672 N 0.78792 0.2079 1.01233 0.0
N1673 N 0.79645 0.25362 0.06788 0.0
C1674 C 0.77206 0.25268 1.04039 0.0
C1675 C 0.76749 0.22796 1.00989 0.0
C1676 C 0.98476 0.51956 0.76295 0.0
C1677 C 0.97992 0.49437 0.73571 0.0
C1678 C 0.00926 0.52324 0.79257 0.0
C1679 C 0.02979 0.50187 0.7966 0.0
H1680 H 0.96918 0.53626 0.76278 0.0
H1681 H 0.01259 0.54334 0.81138 0.0
S1682 S 0.0277 0.43253 0.73034 0.0
N1683 N 0.99823 0.44834 0.7126 0.0
N1684 N 0.04388 0.45488 0.76915 0.0
C1685 C 0.02524 0.47664 0.76931 0.0
C1686 C 0.00055 0.47313 0.73843 0.0
C1687 C 0.77552 0.74182 0.99067 0.0
C1688 C 0.7548 0.72061 0.98718 0.0
C1689 C 0.77118 0.76631 1.02 0.0
C1690 C 0.74589 0.77063 1.04721 0.0
H1691 H 0.79562 0.73911 0.97148 0.0
H1692 H 0.78748 0.7823 1.01993 0.0
S1693 S 0.68532 0.72131 1.05311 0.0
N1694 N 0.70823 0.70538 1.01509 0.0
N1695 N 0.70012 0.75147 0.06969 0.0
C1696 C 0.72509 0.74956 1.04437 0.0
C1697 C 0.72942 0.72466 1.01434 0.0
C1698 C 0.4811 0.52343 0.27681 0.0
C1699 C 0.47734 0.49605 0.29663 0.0
C1700 C 0.50441 0.53016 0.24582 0.0
C1701 C 0.52513 0.50995 0.23331 0.0
H1702 H 0.46549 0.53965 0.28383 0.0
H1703 H 0.50654 0.55169 0.23235 0.0
S1704 S 0.52544 0.43527 0.27639 0.0
N1705 N 0.49663 0.4487 0.30221 0.0
N1706 N 0.54024 0.46125 0.24384 0.0
C1707 C 0.52164 0.48248 0.25287 0.0
C1708 C 0.49799 0.47568 0.2848 0.0
C1709 C 0.72853 0.22385 0.50653 0.0
C1710 C 0.75263 0.22134 0.5379 0.0
C1711 C 0.72449 0.24744 0.47482 0.0
C1712 C 0.74445 0.26938 0.47272 0.0
H1713 H 0.71295 0.20717 0.50531 0.0
H1714 H 0.70495 0.24908 0.45333 0.0
S1715 S 0.81088 0.27318 0.54845 0.0
N1716 N 0.79643 0.24299 0.56579 0.0
N1717 N 0.78913 0.28715 0.50571 0.0
C1718 C 0.76876 0.26703 0.50366 0.0
C1719 C 0.77262 0.24322 0.53658 0.0
C1720 C 0.22792 0.26635 1.01167 0.0
C1721 C 0.25402 0.27023 0.98699 0.0
C1722 C 0.22308 0.24297 1.04347 0.0
C1723 C 0.24402 0.22236 1.05175 0.0
H1724 H 0.2113 0.28188 1.00777 0.0
H1725 H 0.20233 0.2404 1.06028 0.0
S1726 S 0.31619 0.22301 0.99645 0.0
N1727 N 0.30115 0.25174 0.9733 0.0
N1728 N 0.29214 0.20776 1.033 0.0
C1729 C 0.27036 0.22618 1.02784 0.0
C1730 C 0.2752 0.24993 0.99516 0.0
C1731 C 0.27467 0.72796 0.51584 0.0
C1732 C 0.24915 0.72464 0.48875 0.0
C1733 C 0.27916 0.75123 0.54817 0.0
C1734 C 0.25838 0.77213 0.55484 0.0
H1735 H 0.29105 0.71211 0.51337 0.0
H1736 H 0.29953 0.75344 0.5668 0.0
S1737 S 0.18805 0.77343 0.49168 0.0
N1738 N 0.20305 0.74437 0.47001 0.0
N1739 N 0.21128 0.78795 0.53104 0.0
C1740 C 0.2327 0.76897 0.52818 0.0
C1741 C 0.22829 0.74544 0.49479 0.0
C1742 C 0.27332 0.24504 0.48906 0.0
C1743 C 0.25241 0.22401 0.48514 0.0
C1744 C 0.26911 0.26947 0.51872 0.0
C1745 C 0.24385 0.27374 0.54606 0.0
H1746 H 0.29342 0.24226 0.46989 0.0
H1747 H 0.28542 0.28545 0.51882 0.0
S1748 S 0.18292 0.22478 0.551 0.0
N1749 N 0.20563 0.20907 0.51236 0.0
N1750 N 0.19817 0.25448 0.56878 0.0
C1751 C 0.22307 0.25265 0.54324 0.0
C1752 C 0.22709 0.22808 0.51237 0.0
C1753 C 0.27829 0.7478 1.04222 0.0
C1754 C 0.25815 0.72602 1.04579 0.0
C1755 C 0.27308 0.77229 1.01312 0.0
C1756 C 0.24763 0.77577 0.9858 0.0
H1757 H 0.29848 0.74565 1.06147 0.0
H1758 H 0.28872 0.78892 1.01347 0.0
S1759 S 0.18896 0.72423 0.97887 0.0
N1760 N 0.21223 0.70924 1.01742 0.0
N1761 N 0.2028 0.75482 0.96214 0.0
C1762 C 0.22772 0.75385 0.98798 0.0
C1763 C 0.23276 0.72921 1.01827 0.0
C1764 C 0.48173 0.97917 0.77703 0.0
C1765 C 0.47784 0.00556 0.80058 0.0
C1766 C 0.50492 0.97412 0.74482 0.0
C1767 C 0.52517 0.9952 0.73478 0.0
H1768 H 0.46628 0.96258 0.78189 0.0
H1769 H 0.50749 0.95319 0.72879 0.0
S1770 S 0.52455 0.06795 0.78753 0.0
N1771 N 0.49617 0.05297 0.81199 0.0
N1772 N 0.53962 0.04358 0.75143 0.0
C1773 C 0.52144 0.02172 0.75798 0.0
C1774 C 0.498 0.02674 0.79119 0.0
C1775 C 0.00629 0.97729 0.29062 0.0
C1776 C 0.02731 0.99811 0.29524 0.0
C1777 C 0.98228 0.98152 0.25999 0.0
C1778 C 0.97823 0.00684 0.23266 0.0
H1779 H 0.00889 0.95709 0.30959 0.0
H1780 H 0.96642 0.9651 0.25914 0.0
S1781 S 0.02709 0.06787 0.23023 0.0
N1782 N 0.04261 0.04492 0.26889 0.0
N1783 N 0.99739 0.05285 0.21157 0.0
C1784 C 0.9991 0.02779 0.23675 0.0
C1785 C 0.02351 0.02357 0.2682 0.0
C1786 C 0.49383 0.98267 0.23204 0.0
C1787 C 0.471 0.00136 0.23732 0.0
C1788 C 0.51834 0.98578 0.26172 0.0
C1789 C 0.5209 0.00766 0.29813 0.0
H1790 H 0.49233 0.96491 0.20584 0.0
H1791 H 0.53573 0.97147 0.25477 0.0
S1792 S 0.4668 0.06136 0.32894 0.0
N1793 N 0.4521 0.04182 0.28351 0.0
N1794 N 0.49856 0.04802 0.33836 0.0
C1795 C 0.49823 0.02639 0.30398 0.0
C1796 C 0.47325 0.02326 0.27374 0.0
C1797 C 0.99788 0.97687 0.79512 0.0
C1798 C 0.97585 0.99675 0.7944 0.0
C1799 C 0.02211 0.98036 0.76482 0.0
C1800 C 0.0251 0.00378 0.73198 0.0
H1801 H 0.99602 0.95802 0.81841 0.0
H1802 H 0.03899 0.96511 0.76868 0.0
S1803 S 0.97259 0.06058 0.71147 0.0
N1804 N 0.95799 0.03989 0.75515 0.0
N1805 N 0.0035 0.04632 0.69824 0.0
C1806 C 0.00292 0.02337 0.72964 0.0
C1807 C 0.97841 0.02003 0.76095 0.0
C1808 C 0.99717 0.41173 0.91539 0.0
C1809 C 0.98837 0.41952 0.96526 0.0
C1810 C 0.98143 0.419 0.87121 0.0
C1811 C 0.95594 0.43433 0.87449 0.0
H1812 H 0.01664 0.40013 0.9103 0.0
H1813 H 0.98952 0.41249 0.83401 0.0
S1814 S 0.92273 0.4588 0.99626 0.0
N1815 N 0.95194 0.44291 1.01542 0.0
N1816 N 0.92237 0.45643 0.93265 0.0
C1817 C 0.9468 0.44221 0.9242 0.0
C1818 C 0.96296 0.43488 0.96934 0.0
C1819 C 0.80124 0.69677 0.17027 0.0
C1820 C 0.81661 0.70022 0.12409 0.0
C1821 C 0.80748 0.71281 0.21506 0.0
C1822 C 0.82929 0.73314 0.21565 0.0
H1823 H 0.78411 0.68169 0.17184 0.0
H1824 H 0.79487 0.70953 0.24934 0.0
S1825 S 0.87782 0.74863 0.10712 0.0
N1826 N 0.85611 0.72464 0.08376 0.0
N1827 N 0.86744 0.75423 0.16696 0.0
C1828 C 0.84513 0.73634 0.1702 0.0
C1829 C 0.83892 0.72008 0.12487 0.0
C1830 C 0.55208 0.55993 0.41115 0.0
C1831 C 0.5475 0.57517 0.36508 0.0
C1832 C 0.53611 0.56531 0.45619 0.0
C1833 C 0.51473 0.58604 0.45712 0.0
H1834 H 0.56792 0.5435 0.4124 0.0
H1835 H 0.54023 0.55279 0.49034 0.0
S1836 S 0.49594 0.63374 0.34884 0.0
N1837 N 0.52088 0.61332 0.32499 0.0
N1838 N 0.49132 0.62313 0.40888 0.0
C1839 C 0.51041 0.6018 0.4118 0.0
C1840 C 0.52664 0.59647 0.36615 0.0
C1841 C 0.68499 0.2845 0.71326 0.0
C1842 C 0.67227 0.25761 0.71093 0.0
C1843 C 0.69238 0.29942 0.66802 0.0
C1844 C 0.68748 0.28798 0.61858 0.0
H1845 H 0.68868 0.29438 0.75035 0.0
H1846 H 0.70132 0.32033 0.67185 0.0
S1847 S 0.65811 0.21673 0.59164 0.0
N1848 N 0.65747 0.21929 0.65514 0.0
N1849 N 0.67119 0.24687 0.57074 0.0
C1850 C 0.67574 0.26065 0.616 0.0
C1851 C 0.66819 0.24561 0.66189 0.0
C1852 C 0.95729 0.54077 0.11393 0.0
C1853 C 0.95227 0.56135 0.15211 0.0
C1854 C 0.97393 0.54681 0.06989 0.0
C1855 C 0.98625 0.57365 1.06222 0.0
H1856 H 0.94903 0.51965 0.11879 0.0
H1857 H 0.97771 0.53012 1.04223 0.0
S1858 S 0.97617 0.63597 0.14686 0.0
N1859 N 0.95887 0.61045 0.17632 0.0
N1860 N 0.98965 0.62158 0.09441 0.0
C1861 C 0.98037 0.59459 0.09913 0.0
C1862 C 0.96355 0.58851 0.14368 0.0
C1863 C 0.69596 0.69516 0.35852 0.0
C1864 C 0.68795 0.7044 0.40818 0.0
C1865 C 0.68935 0.71093 0.31364 0.0
C1866 C 0.6742 0.73655 0.31628 0.0
H1867 H 0.70704 0.67534 0.3541 0.0
H1868 H 0.6957 0.70273 0.27643 0.0
S1869 S 0.65039 0.77161 0.43655 0.0
N1870 N 0.66537 0.74219 0.45666 0.0
N1871 N 0.65308 0.7712 0.37308 0.0
C1872 C 0.66662 0.74628 0.36561 0.0
C1873 C 0.67344 0.73043 0.41118 0.0
C1874 C 0.53735 0.44786 0.6229 0.0
C1875 C 0.54217 0.42732 0.66114 0.0
C1876 C 0.52077 0.44201 0.57887 0.0
C1877 C 0.50805 0.4154 0.57128 0.0
H1878 H 0.54614 0.4688 0.62736 0.0
H1879 H 0.51763 0.45864 0.55077 0.0
S1880 S 0.51485 0.35396 0.65932 0.0
N1881 N 0.53306 0.37912 0.68811 0.0
N1882 N 0.50234 0.36808 0.60571 0.0
C1883 C 0.51269 0.39472 0.60942 0.0
C1884 C 0.52954 0.40069 0.65418 0.0
C1885 C 0.80086 0.30323 0.85766 0.0
C1886 C 0.81183 0.29599 0.90658 0.0
C1887 C 0.80742 0.28734 0.813 0.0
C1888 C 0.8254 0.26361 0.81519 0.0
H1889 H 0.78731 0.32147 0.85363 0.0
H1890 H 0.79873 0.29398 0.77628 0.0
S1891 S 0.85817 0.23422 0.93367 0.0
N1892 N 0.84079 0.26221 0.95397 0.0
N1893 N 0.8526 0.23279 0.87089 0.0
C1894 C 0.83599 0.25584 0.86385 0.0
C1895 C 0.82934 0.27184 0.90917 0.0
C1896 C 0.05655 0.54711 0.60947 0.0
C1897 C 0.05108 0.56067 0.65688 0.0
C1898 C 0.04107 0.55363 0.56421 0.0
C1899 C 0.01905 0.57372 0.56435 0.0
H1900 H 0.07287 0.53124 0.60719 0.0
H1901 H 0.04618 0.54255 0.5289 0.0
S1902 S 0.99637 0.61597 0.67752 0.0
N1903 N 0.02181 0.59571 0.70016 0.0
N1904 N 0.99328 0.60769 0.61595 0.0
C1905 C 0.01331 0.58734 0.61142 0.0
C1906 C 0.02906 0.58087 0.65729 0.0
C1907 C 0.17019 0.26863 0.41006 0.0
C1908 C 0.18533 0.29425 0.40781 0.0
C1909 C 0.16378 0.25296 0.3654 0.0
C1910 C 0.17223 0.26197 0.31601 0.0
H1911 H 0.16298 0.26049 0.44679 0.0
H1912 H 0.15215 0.23345 0.36971 0.0
S1913 S 0.21184 0.32779 0.2877 0.0
N1914 N 0.20846 0.32793 0.35115 0.0
N1915 N 0.19632 0.29863 0.26747 0.0
C1916 C 0.18762 0.28741 0.313 0.0
C1917 C 0.19416 0.30346 0.35865 0.0
C1918 C 0.47672 0.41552 0.16232 0.0
C1919 C 0.45622 0.43711 0.16132 0.0
C1920 C 0.4928 0.40873 0.11852 0.0
C1921 C 0.48927 0.42322 0.07155 0.0
H1922 H 0.48003 0.40318 0.19697 0.0
H1923 H 0.50764 0.39142 0.1212 0.0
S1924 S 0.44091 0.4837 1.0495 0.0
N1925 N 0.43483 0.47431 0.10983 0.0
N1926 N 0.46537 0.46189 1.02802 0.0
C1927 C 0.46959 0.44553 0.0704 0.0
C1928 C 0.45308 0.4524 0.11504 0.0
C1929 C 0.33929 0.7467 0.86868 0.0
C1930 C 0.33414 0.73675 0.81829 0.0
C1931 C 0.33219 0.73074 0.91251 0.0
C1932 C 0.31938 0.70398 0.90845 0.0
H1933 H 0.34937 0.76694 0.87451 0.0
H1934 H 0.33689 0.73959 0.95009 0.0
S1935 S 0.30136 0.66771 0.78589 0.0
N1936 N 0.31514 0.69803 0.76723 0.0
N1937 N 0.30207 0.66808 0.84959 0.0
C1938 C 0.31392 0.6937 0.85845 0.0
C1939 C 0.32131 0.70996 0.81355 0.0
C1940 C 0.05341 0.4453 0.41617 0.0
C1941 C 0.04822 0.4309 0.3694 0.0
C1942 C 0.03771 0.43948 0.46141 0.0
C1943 C 0.0159 0.41919 0.46187 0.0
H1944 H 0.06972 0.46126 0.41798 0.0
H1945 H 0.04244 0.45126 0.49617 0.0
S1946 S 0.99495 0.37398 0.3514 0.0
N1947 N 0.02024 0.39413 0.32805 0.0
N1948 N 0.99112 0.38366 0.41213 0.0
C1949 C 0.0108 0.40441 0.41573 0.0
C1950 C 0.02681 0.41011 0.36993 0.0
C1951 C 0.29746 0.29417 0.16587 0.0
C1952 C 0.31566 0.29495 0.12291 0.0
C1953 C 0.30379 0.27774 0.20993 0.0
C1954 C 0.32861 0.26134 0.21308 0.0
H1955 H 0.27792 0.30598 0.16525 0.0
H1956 H 0.28887 0.27757 0.24153 0.0
S1957 S 0.38465 0.25799 0.11337 0.0
N1958 N 0.36052 0.27891 0.08804 0.0
N1959 N 0.37233 0.24861 0.17036 0.0
C1960 C 0.34723 0.26244 0.17085 0.0
C1961 C 0.34081 0.27907 0.12607 0.0
C1962 C 0.49451 0.59146 0.91015 0.0
C1963 C 0.48415 0.58586 0.95998 0.0
C1964 C 0.47888 0.58456 0.86577 0.0
C1965 C 0.45209 0.57176 0.86901 0.0
H1966 H 0.51509 0.60098 0.90533 0.0
H1967 H 0.48808 0.58921 0.8285 0.0
S1968 S 0.41437 0.55446 0.99042 0.0
N1969 N 0.44473 0.56783 1.01 0.0
N1970 N 0.4154 0.55492 0.92672 0.0
C1971 C 0.44131 0.56628 0.91864 0.0
C1972 C 0.45729 0.57328 0.96397 0.0
C1973 C 0.15511 0.73188 0.67071 0.0
C1974 C 0.17441 0.73584 0.71141 0.0
C1975 C 0.1619 0.71529 0.62731 0.0
C1976 C 0.18835 0.70185 0.62236 0.0
H1977 H 0.13437 0.74139 0.67271 0.0
H1978 H 0.1461 0.71284 0.59741 0.0
S1979 S 0.24751 0.70798 0.71546 0.0
N1980 N 0.22182 0.72632 0.74232 0.0
N1981 N 0.23462 0.69545 0.66082 0.0
C1982 C 0.20803 0.70604 0.66235 0.0
C1983 C 0.20107 0.72291 0.7067 0.0
C1984 C 0.47935 0.93072 0.376 0.0
C1985 C 0.45114 0.94028 0.37851 0.0
C1986 C 0.49484 0.92362 0.4206 0.0
C1987 C 0.48306 0.92574 0.47031 0.0
H1988 H 0.48972 0.92854 0.339 0.0
H1989 H 0.51639 0.91648 0.41602 0.0
S1990 S 0.40978 0.94874 0.49899 0.0
N1991 N 0.41199 0.95103 0.4355 0.0
N1992 N 0.44098 0.93776 0.51918 0.0
C1993 C 0.45496 0.93555 0.47364 0.0
C1994 C 0.43909 0.94277 0.42797 0.0
C1995 C 0.30251 0.19691 0.66996 0.0
C1996 C 0.31125 0.2054 0.62028 0.0
C1997 C 0.30892 0.21308 0.71441 0.0
C1998 C 0.32438 0.23849 0.71132 0.0
H1999 H 0.29121 0.17725 0.67481 0.0
H2000 H 0.30222 0.20525 0.7517 0.0
S2001 S 0.34922 0.27211 0.59024 0.0
N2002 N 0.33438 0.24247 0.57091 0.0
N2003 N 0.34599 0.27248 0.65364 0.0
C2004 C 0.33237 0.24767 0.66178 0.0
C2005 C 0.3259 0.2313 0.61664 0.0
C2006 C 0.03518 0.06253 0.96274 0.0
C2007 C 0.01001 0.07841 0.96043 0.0
C2008 C 0.05075 0.05599 0.91777 0.0
C2009 C 0.04177 0.06492 0.86845 0.0
H2010 H 0.04323 0.05559 0.99976 0.0
H2011 H 0.07024 0.0443 0.92189 0.0
S2012 S 0.97548 0.10439 0.84098 0.0
N2013 N 0.97577 0.1009 0.90432 0.0
N2014 N 0.00457 0.08899 0.82051 0.0
C2015 C 0.01607 0.08005 0.86573 0.0
C2016 C 0.00038 0.0867 0.91139 0.0
C2017 C 0.19592 0.80175 0.17006 0.0
C2018 C 0.18497 0.79382 0.1215 0.0
C2019 C 0.19001 0.78602 0.21519 0.0
C2020 C 0.17272 0.76178 0.21386 0.0
H2021 H 0.20897 0.82039 0.17342 0.0
H2022 H 0.19868 0.79318 0.25159 0.0
S2023 S 0.14007 0.73073 0.09673 0.0
N2024 N 0.15651 0.75907 0.0755 0.0
N2025 N 0.1461 0.72982 0.15941 0.0
C2026 C 0.16208 0.75338 0.1656 0.0
C2027 C 0.16802 0.76926 0.11982 0.0
C2028 C 0.49055 0.08941 0.6161 0.0
C2029 C 0.4844 0.07738 0.56774 0.0
C2030 C 0.47478 0.08268 0.66036 0.0
C2031 C 0.45208 0.06338 0.65886 0.0
H2032 H 0.50749 0.1046 0.61971 0.0
H2033 H 0.48054 0.09294 0.69619 0.0
S2034 S 0.42837 0.02442 0.54223 0.0
N2035 N 0.45468 0.04417 0.52134 0.0
N2036 N 0.42508 0.0315 0.60437 0.0
C2037 C 0.44594 0.0508 0.61081 0.0
C2038 C 0.462 0.05781 0.56546 0.0
C2039 C 0.1867 0.20974 0.8154 0.0
C2040 C 0.17187 0.23554 0.81778 0.0
C2041 C 0.1933 0.19419 0.86051 0.0
C2042 C 0.18547 0.20382 0.91 0.0
H2043 H 0.19272 0.2012 0.77825 0.0
H2044 H 0.20416 0.17426 0.85642 0.0
S2045 S 0.1498 0.27217 0.93752 0.0
N2046 N 0.15197 0.27116 0.87399 0.0
N2047 N 0.1642 0.24254 0.95807 0.0
C2048 C 0.17161 0.23021 0.91271 0.0
C2049 C 0.16487 0.24586 0.86694 0.0
C2050 C 0.04464 0.95723 0.11628 0.0
C2051 C 0.05032 0.93669 0.1542 0.0
C2052 C 0.02828 0.95076 0.07201 0.0
C2053 C 0.01701 0.9235 1.06379 0.0
H2054 H 0.05214 0.9786 0.12156 0.0
H2055 H 0.02391 0.96743 1.04455 0.0
S2056 S 0.02926 0.86129 0.1479 0.0
N2057 N 0.04547 0.88736 0.17794 0.0
N2058 N 0.01539 0.87532 0.09537 0.0
C2059 C 0.02358 0.90264 0.10054 0.0
C2060 C 0.04003 0.9092 0.14541 0.0
C2061 C 0.30441 0.79962 0.36779 0.0
C2062 C 0.318 0.79396 0.41515 0.0
C2063 C 0.3109 0.78424 0.3225 0.0
C2064 C 0.33123 0.76244 0.32242 0.0
H2065 H 0.28869 0.81613 0.36551 0.0
H2066 H 0.29969 0.78936 0.28727 0.0
S2067 S 0.37446 0.74035 0.43499 0.0
N2068 N 0.35372 0.76524 0.458 0.0
N2069 N 0.36598 0.73724 0.37351 0.0
C2070 C 0.34515 0.75681 0.36932 0.0
C2071 C 0.33853 0.77227 0.41534 0.0
C2072 C 0.53567 0.06885 0.06645 0.0
C2073 C 0.50844 0.08083 0.06916 0.0
C2074 C 0.5513 0.06238 0.11141 0.0
C2075 C 0.54045 0.06766 0.16113 0.0
H2076 H 0.54521 0.06487 1.02921 0.0
H2077 H 0.5723 0.05372 0.10707 0.0
S2078 S 0.46881 0.09542 0.18967 0.0
N2079 N 0.47045 0.0952 0.12605 0.0
N2080 N 0.49963 0.08359 0.20989 0.0
C2081 C 0.51291 0.07884 0.16427 0.0
C2082 C 0.49702 0.08529 0.11861 0.0
C2083 C 0.69235 0.78603 0.81458 0.0
C2084 C 0.67378 0.76278 0.81555 0.0
C2085 C 0.6988 0.80144 0.85977 0.0
C2086 C 0.68702 0.79423 0.90798 0.0
H2087 H 0.70165 0.79266 0.77841 0.0
H2088 H 0.71296 0.81926 0.85672 0.0
S2089 S 0.63915 0.73336 0.93201 0.0
N2090 N 0.64532 0.73218 0.86942 0.0
N2091 N 0.65685 0.76089 0.95358 0.0
C2092 C 0.66889 0.77055 0.90941 0.0
C2093 C 0.66242 0.75495 0.86354 0.0
C2094 C 0.9616 0.93823 0.5625 0.0
C2095 C 0.98794 0.92436 0.56474 0.0
C2096 C 0.94629 0.94489 0.60769 0.0
C2097 C 0.95655 0.93787 0.65722 0.0
H2098 H 0.95243 0.94347 0.52541 0.0
H2099 H 0.92591 0.95498 0.60364 0.0
S2100 S 0.02639 0.90527 0.68469 0.0
N2101 N 0.02485 0.90669 0.62111 0.0
N2102 N 0.99634 0.91866 0.70531 0.0
C2103 C 0.98342 0.92504 0.6599 0.0
C2104 C 0.99897 0.9184 0.61402 0.0
C2105 C 0.80934 0.21522 0.31605 0.0
C2106 C 0.82857 0.23794 0.31727 0.0
C2107 C 0.80331 0.19911 0.3606 0.0
C2108 C 0.81636 0.20485 0.40844 0.0
H2109 H 0.79859 0.21 0.2804 0.0
H2110 H 0.78831 0.18199 0.35737 0.0
S2111 S 0.86981 0.26096 0.43167 0.0
N2112 N 0.86156 0.2644 0.3701 0.0
N2113 N 0.85038 0.23464 0.45321 0.0
C2114 C 0.83588 0.22738 0.40991 0.0
C2115 C 0.84192 0.24374 0.36466 0.0
C2116 C 0.53059 0.91411 0.87997 0.0
C2117 C 0.54763 0.93838 0.87512 0.0
C2118 C 0.51498 0.90852 0.925 0.0
C2119 C 0.51547 0.92691 0.96772 0.0
H2120 H 0.52947 0.89896 0.84877 0.0
H2121 H 0.5027 0.88929 0.92657 0.0
S2122 S 0.55484 0.99462 0.97398 0.0
N2123 N 0.56294 0.98169 0.91668 0.0
N2124 N 0.53352 0.97137 1.00093 0.0
C2125 C 0.53214 0.95148 0.96329 0.0
C2126 C 0.54816 0.95716 0.91726 0.0
C2127 C 0.83565 0.77277 0.62517 0.0
C2128 C 0.81321 0.79233 0.62404 0.0
C2129 C 0.84223 0.75718 0.66981 0.0
C2130 C 0.8267 0.7602 0.71578 0.0
H2131 H 0.84851 0.76944 0.59122 0.0
H2132 H 0.85958 0.74236 0.66801 0.0
S2133 S 0.7655 0.80823 0.73391 0.0
N2134 N 0.77492 0.81325 0.67327 0.0
N2135 N 0.7877 0.78463 0.75729 0.0
C2136 C 0.80403 0.77955 0.71526 0.0
C2137 C 0.79724 0.79541 0.66957 0.0
C2138 C 0.96596 0.06068 0.46202 0.0
C2139 C 0.98834 0.08026 0.46066 0.0
C2140 C 0.95024 0.05401 0.41728 0.0
C2141 C 0.95607 0.06683 0.36932 0.0
H2142 H 0.96073 0.05019 0.49789 0.0
H2143 H 0.93334 0.03875 0.42045 0.0
S2144 S 0.01165 0.12086 0.34602 0.0
N2145 N 0.01477 0.11313 0.40783 0.0
N2146 N 0.9857 0.10094 0.32437 0.0
C2147 C 0.9783 0.08671 0.36785 0.0
C2148 C 0.99428 0.09331 0.41321 0.0
C2149 C 0.68921 0.19054 0.16872 0.0
C2150 C 0.68372 0.20179 0.11932 0.0
C2151 C 0.68255 0.20574 0.21408 0.0
C2152 C 0.66999 0.23272 0.21192 0.0
H2153 H 0.69818 0.16964 0.17245 0.0
H2154 H 0.68676 0.19606 0.25117 0.0
S2155 S 0.65442 0.27317 0.09273 0.0
N2156 N 0.66702 0.24286 0.07168 0.0
N2157 N 0.65462 0.27087 0.15628 0.0
C2158 C 0.66522 0.24448 0.16291 0.0
C2159 C 0.67205 0.22919 0.1169 0.0
C2160 C 0.11444 0.47898 0.96997 0.0
C2161 C 0.11294 0.50851 0.96043 0.0
C2162 C 0.11359 0.467 1.02103 0.0
C2163 C 0.11208 0.48365 0.06663 0.0
H2164 H 0.11546 0.46472 0.93741 0.0
H2165 H 0.11413 0.44427 1.02469 0.0
S2166 S 0.10737 0.56207 0.0652 0.0
N2167 N 0.1092 0.55386 1.00335 0.0
N2168 N 0.10883 0.53193 0.09703 0.0
C2169 C 0.11102 0.51318 1.05763 0.0
C2170 C 0.11111 0.52532 1.00573 0.0
C2171 C 0.72331 0.85387 0.25627 0.0
C2172 C 0.74064 0.85578 0.21151 0.0
C2173 C 0.73431 0.85423 0.30816 0.0
C2174 C 0.76364 0.85573 0.31964 0.0
H2175 H 0.70072 0.85196 0.25131 0.0
H2176 H 0.71951 0.85244 0.33976 0.0
S2177 S 0.81898 0.86094 0.2181 0.0
N2178 N 0.78944 0.85956 0.18434 0.0
N2179 N 0.80964 0.85941 0.27944 0.0
C2180 C 0.78118 0.8576 0.27529 0.0
C2181 C 0.76995 0.85785 0.22253 0.0
C2182 C 0.39066 0.53095 0.52192 0.0
C2183 C 0.39171 0.51431 0.56761 0.0
C2184 C 0.3904 0.51901 0.47087 0.0
C2185 C 0.39212 0.48952 0.46138 0.0
H2186 H 0.39005 0.55368 0.5255 0.0
H2187 H 0.38966 0.5333 0.4383 0.0
S2188 S 0.39673 0.43594 0.56638 0.0
N2189 N 0.39481 0.46606 0.59819 0.0
N2190 N 0.39557 0.44416 0.50444 0.0
C2191 C 0.39352 0.47268 0.50675 0.0
C2192 C 0.39298 0.4848 0.5587 0.0
C2193 C 0.77429 0.13695 0.75081 0.0
C2194 C 0.758 0.14063 0.70502 0.0
C2195 C 0.76234 0.13694 0.80201 0.0
C2196 C 0.73318 0.14159 0.81207 0.0
H2197 H 0.79683 0.13394 0.74719 0.0
H2198 H 0.77649 0.13394 0.83437 0.0
S2199 S 0.68068 0.15457 0.70727 0.0
N2200 N 0.71039 0.14986 0.67518 0.0
N2201 N 0.68863 0.15112 0.76906 0.0
C2202 C 0.71672 0.14583 0.76661 0.0
C2203 C 0.72879 0.14503 0.7144 0.0
C2204 C 0.89865 0.4713 0.52509 0.0
C2205 C 0.89627 0.48838 0.57005 0.0
C2206 C 0.89824 0.48255 0.47355 0.0
C2207 C 0.89616 0.51188 0.4627 0.0
H2208 H 0.90089 0.44873 0.52961 0.0
H2209 H 0.90036 0.46794 0.44168 0.0
S2210 S 0.88958 0.56663 0.56513 0.0
N2211 N 0.89147 0.53694 0.59832 0.0
N2212 N 0.8914 0.55765 0.50361 0.0
C2213 C 0.89382 0.52921 0.50725 0.0
C2214 C 0.89366 0.51771 0.55973 0.0
C2215 C 0.26322 0.13564 0.22381 0.0
C2216 C 0.23401 0.13986 0.21368 0.0
C2217 C 0.27515 0.13631 0.27497 0.0
C2218 C 0.2587 0.14031 0.32028 0.0
H2219 H 0.27738 0.13254 0.19157 0.0
H2220 H 0.29772 0.13357 0.27895 0.0
S2221 S 0.18122 0.15315 0.31736 0.0
N2222 N 0.18926 0.14918 0.25578 0.0
N2223 N 0.211 0.14916 0.34973 0.0
C2224 C 0.22945 0.1442 0.31076 0.0
C2225 C 0.21743 0.14431 0.25866 0.0
C2226 C 0.60566 0.51868 0.96449 0.0
C2227 C 0.60655 0.4889 0.95712 0.0
C2228 C 0.60509 0.53185 1.01479 0.0
C2229 C 0.60631 0.51642 1.062 0.0
H2230 H 0.60453 0.53215 0.93081 0.0
H2231 H 0.60373 0.55462 1.01654 0.0
S2232 S 0.60931 0.4379 0.06656 0.0
N2233 N 0.60845 0.44468 1.00403 0.0
N2234 N 0.60862 0.4688 0.09595 0.0
C2235 C 0.60773 0.48669 1.05507 0.0
C2236 C 0.60751 0.47328 1.004 0.0
C2237 C 0.24274 0.87934 0.79246 0.0
C2238 C 0.23939 0.85443 0.82253 0.0
C2239 C 0.25469 0.8792 0.74124 0.0
C2240 C 0.2651 0.85431 0.71714 0.0
H2241 H 0.23548 0.8992 0.80818 0.0
H2242 H 0.25614 0.89901 0.72062 0.0
S2243 S 0.26188 0.78324 0.77834 0.0
N2244 N 0.24754 0.804 0.82221 0.0
N2245 N 0.27069 0.80388 0.72959 0.0
C2246 C 0.26218 0.82945 0.74731 0.0
C2247 C 0.24927 0.82947 0.79845 0.0
C2248 C 0.60947 0.016 0.55745 0.0
C2249 C 0.60454 0.98682 0.56701 0.0
C2250 C 0.60855 0.02841 0.50666 0.0
C2251 C 0.60356 0.0125 0.46098 0.0
H2252 H 0.61351 0.02979 0.58993 0.0
H2253 H 0.612 0.0509 0.50326 0.0
S2254 S 0.588 0.93547 0.46228 0.0
N2255 N 0.59304 0.94282 0.52393 0.0
N2256 N 0.59266 0.96535 0.43063 0.0
C2257 C 0.59875 0.9833 0.4699 0.0
C2258 C 0.59888 0.97082 0.5217 0.0
C2259 C 0.26207 0.36099 0.72504 0.0
C2260 C 0.23331 0.35491 0.71379 0.0
C2261 C 0.27346 0.36084 0.77663 0.0
C2262 C 0.25685 0.35548 0.82131 0.0
H2263 H 0.27631 0.36527 0.69339 0.0
H2264 H 0.29574 0.36504 0.78147 0.0
S2265 S 0.18053 0.33725 0.81544 0.0
N2266 N 0.18888 0.34225 0.75426 0.0
N2267 N 0.20963 0.34308 0.8489 0.0
C2268 C 0.22806 0.34963 0.81069 0.0
C2269 C 0.21661 0.34906 0.75816 0.0
C2270 C 0.89034 0.02865 1.02289 0.0
C2271 C 0.89303 0.01165 0.06802 0.0
C2272 C 0.88984 0.01725 0.97125 0.0
C2273 C 0.89287 0.98797 0.96033 0.0
H2274 H 0.8886 0.05128 1.02737 0.0
H2275 H 0.88786 0.03184 0.9393 0.0
S2276 S 0.90178 0.93361 1.06319 0.0
N2277 N 0.89897 0.96325 0.09625 0.0
N2278 N 0.8992 0.94244 1.00169 0.0
C2279 C 0.89583 0.97081 1.00514 0.0
C2280 C 0.8956 0.98233 1.05766 0.0
C2281 C 0.2256 0.64426 0.27282 0.0
C2282 C 0.2423 0.64202 0.31837 0.0
C2283 C 0.23735 0.64387 0.22163 0.0
C2284 C 0.26681 0.64202 0.21188 0.0
H2285 H 0.20298 0.64643 0.2766 0.0
H2286 H 0.22306 0.64592 0.18921 0.0
S2287 S 0.32063 0.63582 0.31618 0.0
N2288 N 0.29063 0.6375 0.34831 0.0
N2289 N 0.3122 0.63762 0.25438 0.0
C2290 C 0.28371 0.63981 0.25703 0.0
C2291 C 0.27173 0.63957 0.30906 0.0
C2292 C 0.36865 0.99574 1.04438 0.0
C2293 C 0.39371 0.98817 0.07141 0.0
C2294 C 0.36883 0.0067 0.99235 0.0
C2295 C 0.39414 0.01187 0.96435 0.0
H2296 H 0.34851 0.99269 1.06321 0.0
H2297 H 0.34884 0.01168 0.97428 0.0
S2298 S 0.46573 0.99628 1.01621 0.0
N2299 N 0.44466 0.98669 1.06372 0.0
N2300 N 0.44503 0.00812 0.96968 0.0
C2301 C 0.4192 0.00473 0.99135 0.0
C2302 C 0.41897 0.99278 1.04328 0.0
C2303 C 0.73439 0.63654 0.80829 0.0
C2304 C 0.76376 0.63971 0.81868 0.0
C2305 C 0.72252 0.63724 0.75688 0.0
C2306 C 0.73906 0.64026 0.7113 0.0
H2307 H 0.72009 0.63417 0.84051 0.0
H2308 H 0.69987 0.63528 0.75294 0.0
S2309 S 0.81698 0.65036 0.71455 0.0
N2310 N 0.80876 0.64713 0.77619 0.0
N2311 N 0.78712 0.64722 0.68217 0.0
C2312 C 0.76843 0.64321 0.72112 0.0
C2313 C 0.78043 0.64326 0.77342 0.0
C2314 C 0.12979 0.99039 0.49338 0.0
C2315 C 0.10519 0.9878 0.46203 0.0
C2316 C 0.1293 0.00178 0.54518 0.0
C2317 C 0.10436 0.0124 0.5689 0.0
H2318 H 0.14973 0.98308 0.47811 0.0
H2319 H 0.14893 0.00271 0.5665 0.0
S2320 S 0.03396 0.01117 0.50458 0.0
N2321 N 0.05492 0.99691 0.46094 0.0
N2322 N 0.0542 0.01901 0.5545 0.0
C2323 C 0.0798 0.01019 0.53752 0.0
C2324 C 0.08016 0.99784 0.48574 0.0
C2325 C 0.71714 0.35174 0.27019 0.0
C2326 C 0.73352 0.3553 0.31589 0.0
C2327 C 0.72894 0.35292 0.21895 0.0
C2328 C 0.75823 0.35689 0.20924 0.0
H2329 H 0.69474 0.34788 0.27389 0.0
H2330 H 0.7149 0.34978 0.18647 0.0
S2331 S 0.81126 0.36698 0.31387 0.0
N2332 N 0.78139 0.36328 0.34585 0.0
N2333 N 0.80308 0.3645 0.25204 0.0
C2334 C 0.7748 0.36036 0.25454 0.0
C2335 C 0.76272 0.35985 0.30656 0.0
loop_
_geom_bond_atom_site_label_1
_geom_bond_atom_site_label_2
_geom_bond_distance
_geom_bond_site_symmetry_2
_ccdc_geom_bond_type
C0 Eu1 2.835 . S
C0 C2 1.500 . S
C0 O20 1.257 . S
C0 O21 1.260 . S
Eu1 C0 2.835 . S
Eu1 O20 2.473 . S
Eu1 O21 2.480 . S
Eu1 O22 2.430 . S
Eu1 O23 2.670 . S
Eu1 O24 2.394 . S
Eu1 O29 2.355 . S
Eu1 O31 2.374 . S
C2 C0 1.500 . S
C2 C3 1.377 . S
C2 C7 1.377 . S
C3 C2 1.377 . S
C3 C4 1.395 . S
C3 H32 0.931 . S
C4 C3 1.395 . S
C4 C5 1.383 . S
C4 H33 0.931 . S
C5 C4 1.383 . S
C5 C6 1.394 . S
C6 C5 1.394 . S
C6 C7 1.378 . S
C6 H34 0.931 . S
C7 C2 1.377 . S
C7 C6 1.378 . S
C7 H35 0.931 . S
C8 O22 1.259 . S
C8 O23 1.270 . S
C9 O24 1.251 . S
C9 O25 1.251 . S
C10 Eu11 2.835 . S
C10 C12 1.500 1_554 S
C10 O26 1.257 . S
C10 O27 1.260 . S
Eu11 C10 2.835 . S
Eu11 O23 2.355 . S
Eu11 O25 2.374 . S
Eu11 O26 2.473 . S
Eu11 O27 2.480 . S
Eu11 O28 2.430 . S
Eu11 O29 2.670 . S
Eu11 O30 2.394 . S
C12 C10 1.500 1_556 S
C12 C13 1.377 . S
C12 C17 1.377 . S
C13 C12 1.377 . S
C13 C14 1.395 . S
C13 H36 0.931 . S
C14 C13 1.395 . S
C14 C15 1.383 . S
C14 H37 0.931 . S
C15 C14 1.383 . S
C15 C16 1.394 . S
C16 C15 1.394 . S
C16 C17 1.378 . S
C16 H38 0.931 . S
C17 C12 1.377 . S
C17 C16 1.378 . S
C17 H39 0.931 . S
C18 O28 1.259 . S
C18 O29 1.270 . S
C19 O30 1.251 . S
C19 O31 1.251 . S
O20 C0 1.257 . S
O20 Eu1 2.473 . S
O21 C0 1.260 . S
O21 Eu1 2.480 . S
O22 Eu1 2.430 . S
O22 C8 1.259 . S
O23 Eu1 2.670 . S
O23 C8 1.270 . S
O23 Eu11 2.355 . S
O24 Eu1 2.394 . S
O24 C9 1.251 . S
O25 C9 1.251 . S
O25 Eu11 2.374 . S
O26 C10 1.257 . S
O26 Eu11 2.473 . S
O27 C10 1.260 . S
O27 Eu11 2.480 . S
O28 Eu11 2.430 . S
O28 C18 1.259 . S
O29 Eu1 2.355 . S
O29 Eu11 2.670 . S
O29 C18 1.270 . S
O30 Eu11 2.394 . S
O30 C19 1.251 . S
O31 Eu1 2.374 . S
O31 C19 1.251 . S
H32 C3 0.931 . S
H33 C4 0.931 . S
H34 C6 0.931 . S
H35 C7 0.931 . S
H36 C13 0.931 . S
H37 C14 0.931 . S
H38 C16 0.931 . S
H39 C17 0.931 . S
C40 Eu41 2.835 . S
C40 C42 1.500 . S
C40 O60 1.257 . S
C40 O61 1.260 . S
Eu41 C40 2.835 . S
Eu41 O60 2.473 . S
Eu41 O61 2.480 . S
Eu41 O62 2.430 . S
Eu41 O63 2.670 . S
Eu41 O64 2.394 . S
Eu41 O69 2.355 . S
Eu41 O71 2.374 . S
C42 C40 1.500 . S
C42 C43 1.377 . S
C42 C47 1.377 . S
C43 C42 1.377 . S
C43 C44 1.395 . S
C43 H72 0.931 . S
C44 C43 1.395 . S
C44 C45 1.383 . S
C44 H73 0.931 . S
C45 C44 1.383 . S
C45 C46 1.394 . S
C46 C45 1.394 . S
C46 C47 1.378 . S
C46 H74 0.931 . S
C47 C42 1.377 . S
C47 C46 1.378 . S
C47 H75 0.931 . S
C48 O62 1.259 . S
C48 O63 1.270 . S
C49 O64 1.251 . S
C49 O65 1.251 . S
C50 Eu51 2.835 . S
C50 C52 1.500 . S
C50 O66 1.257 . S
C50 O67 1.260 . S
Eu51 C50 2.835 . S
Eu51 O63 2.355 . S
Eu51 O65 2.374 . S
Eu51 O66 2.473 . S
Eu51 O67 2.480 . S
Eu51 O68 2.430 . S
Eu51 O69 2.670 . S
Eu51 O70 2.394 . S
C52 C50 1.500 . S
C52 C53 1.377 . S
C52 C57 1.377 . S
C53 C52 1.377 . S
C53 C54 1.395 . S
C53 H76 0.931 . S
C54 C53 1.395 . S
C54 C55 1.383 . S
C54 H77 0.931 . S
C55 C54 1.383 . S
C55 C56 1.394 . S
C56 C55 1.394 . S
C56 C57 1.378 . S
C56 H78 0.931 . S
C57 C52 1.377 . S
C57 C56 1.378 . S
C57 H79 0.931 . S
C58 O68 1.259 . S
C58 O69 1.270 . S
C59 O70 1.251 . S
C59 O71 1.251 . S
O60 C40 1.257 . S
O60 Eu41 2.473 . S
O61 C40 1.260 . S
O61 Eu41 2.480 . S
O62 Eu41 2.430 . S
O62 C48 1.259 . S
O63 Eu41 2.670 . S
O63 C48 1.270 . S
O63 Eu51 2.355 . S
O64 Eu41 2.394 . S
O64 C49 1.251 . S
O65 C49 1.251 . S
O65 Eu51 2.374 . S
O66 C50 1.257 . S
O66 Eu51 2.473 . S
O67 C50 1.260 . S
O67 Eu51 2.480 . S
O68 Eu51 2.430 . S
O68 C58 1.259 . S
O69 Eu41 2.355 . S
O69 Eu51 2.670 . S
O69 C58 1.270 . S
O70 Eu51 2.394 . S
O70 C59 1.251 . S
O71 Eu41 2.374 . S
O71 C59 1.251 . S
H72 C43 0.931 . S
H73 C44 0.931 . S
H74 C46 0.931 . S
H75 C47 0.931 . S
H76 C53 0.931 . S
H77 C54 0.931 . S
H78 C56 0.931 . S
H79 C57 0.931 . S
C80 Eu81 2.835 . S
C80 C82 1.500 . S
C80 O100 1.257 . S
C80 O101 1.260 . S
Eu81 C80 2.835 . S
Eu81 O100 2.473 . S
Eu81 O101 2.480 . S
Eu81 O102 2.430 . S
Eu81 O103 2.670 . S
Eu81 O104 2.394 . S
Eu81 O109 2.355 . S
Eu81 O111 2.374 . S
C82 C80 1.500 . S
C82 C83 1.377 . S
C82 C87 1.377 . S
C83 C82 1.377 . S
C83 C84 1.395 . S
C83 H112 0.931 . S
C84 C83 1.395 . S
C84 C85 1.383 . S
C84 H113 0.931 . S
C85 C84 1.383 . S
C85 C86 1.394 . S
C86 C85 1.394 . S
C86 C87 1.378 . S
C86 H114 0.931 . S
C87 C82 1.377 . S
C87 C86 1.378 . S
C87 H115 0.931 . S
C88 O102 1.259 . S
C88 O103 1.270 . S
C89 O104 1.251 . S
C89 O105 1.251 . S
C90 Eu91 2.835 . S
C90 C92 1.500 . S
C90 O106 1.257 . S
C90 O107 1.260 . S
Eu91 C90 2.835 . S
Eu91 O103 2.355 . S
Eu91 O105 2.374 . S
Eu91 O106 2.473 . S
Eu91 O107 2.480 . S
Eu91 O108 2.430 . S
Eu91 O109 2.670 . S
Eu91 O110 2.394 . S
C92 C90 1.500 . S
C92 C93 1.377 . S
C92 C97 1.377 . S
C93 C92 1.377 . S
C93 C94 1.395 . S
C93 H116 0.931 . S
C94 C93 1.395 . S
C94 C95 1.383 . S
C94 H117 0.931 . S
C95 C94 1.383 . S
C95 C96 1.394 . S
C96 C95 1.394 . S
C96 C97 1.378 . S
C96 H118 0.931 . S
C97 C92 1.377 . S
C97 C96 1.378 . S
C97 H119 0.931 . S
C98 O108 1.259 . S
C98 O109 1.270 . S
C99 O110 1.251 . S
C99 O111 1.251 . S
O100 C80 1.257 . S
O100 Eu81 2.473 . S
O101 C80 1.260 . S
O101 Eu81 2.480 . S
O102 Eu81 2.430 . S
O102 C88 1.259 . S
O103 Eu81 2.670 . S
O103 C88 1.270 . S
O103 Eu91 2.355 . S
O104 Eu81 2.394 . S
O104 C89 1.251 . S
O105 C89 1.251 . S
O105 Eu91 2.374 . S
O106 C90 1.257 . S
O106 Eu91 2.473 . S
O107 C90 1.260 . S
O107 Eu91 2.480 . S
O108 Eu91 2.430 . S
O108 C98 1.259 . S
O109 Eu81 2.355 . S
O109 Eu91 2.670 . S
O109 C98 1.270 . S
O110 Eu91 2.394 . S
O110 C99 1.251 . S
O111 Eu81 2.374 . S
O111 C99 1.251 . S
H112 C83 0.931 . S
H113 C84 0.931 . S
H114 C86 0.931 . S
H115 C87 0.931 . S
H116 C93 0.931 . S
H117 C94 0.931 . S
H118 C96 0.931 . S
H119 C97 0.931 . S
C120 Eu121 2.835 1_554 S
C120 C122 1.500 . S
C120 O140 1.257 . S
C120 O141 1.260 . S
Eu121 C120 2.835 1_556 S
Eu121 O140 2.473 1_556 S
Eu121 O141 2.480 1_556 S
Eu121 O142 2.430 . S
Eu121 O143 2.670 . S
Eu121 O144 2.394 . S
Eu121 O149 2.355 . S
Eu121 O151 2.374 . S
C122 C120 1.500 . S
C122 C123 1.377 . S
C122 C127 1.377 . S
C123 C122 1.377 . S
C123 C124 1.395 . S
C123 H152 0.931 . S
C124 C123 1.395 . S
C124 C125 1.383 . S
C124 H153 0.931 . S
C125 C124 1.383 . S
C125 C126 1.394 . S
C126 C125 1.394 . S
C126 C127 1.378 . S
C126 H154 0.931 . S
C127 C122 1.377 . S
C127 C126 1.378 . S
C127 H155 0.931 . S
C128 O142 1.259 . S
C128 O143 1.270 . S
C129 O144 1.251 . S
C129 O145 1.251 . S
C130 Eu131 2.835 . S
C130 C132 1.500 . S
C130 O146 1.257 . S
C130 O147 1.260 . S
Eu131 C130 2.835 . S
Eu131 O143 2.355 . S
Eu131 O145 2.374 . S
Eu131 O146 2.473 . S
Eu131 O147 2.480 . S
Eu131 O148 2.430 . S
Eu131 O149 2.670 . S
Eu131 O150 2.394 . S
C132 C130 1.500 . S
C132 C133 1.377 . S
C132 C137 1.377 . S
C133 C132 1.377 . S
C133 C134 1.395 . S
C133 H156 0.931 . S
C134 C133 1.395 . S
C134 C135 1.383 . S
C134 H157 0.931 . S
C135 C134 1.383 . S
C135 C136 1.394 . S
C136 C135 1.394 . S
C136 C137 1.378 . S
C136 H158 0.931 . S
C137 C132 1.377 . S
C137 C136 1.378 . S
C137 H159 0.931 . S
C138 O148 1.259 . S
C138 O149 1.270 . S
C139 O150 1.251 . S
C139 O151 1.251 . S
O140 C120 1.257 . S
O140 Eu121 2.473 1_554 S
O141 C120 1.260 . S
O141 Eu121 2.480 1_554 S
O142 Eu121 2.430 . S
O142 C128 1.259 . S
O143 Eu121 2.670 . S
O143 C128 1.270 . S
O143 Eu131 2.355 . S
O144 Eu121 2.394 . S
O144 C129 1.251 . S
O145 C129 1.251 . S
O145 Eu131 2.374 . S
O146 C130 1.257 . S
O146 Eu131 2.473 . S
O147 C130 1.260 . S
O147 Eu131 2.480 . S
O148 Eu131 2.430 . S
O148 C138 1.259 . S
O149 Eu121 2.355 . S
O149 Eu131 2.670 . S
O149 C138 1.270 . S
O150 Eu131 2.394 . S
O150 C139 1.251 . S
O151 Eu121 2.374 . S
O151 C139 1.251 . S
H152 C123 0.931 . S
H153 C124 0.931 . S
H154 C126 0.931 . S
H155 C127 0.931 . S
H156 C133 0.931 . S
H157 C134 0.931 . S
H158 C136 0.931 . S
H159 C137 0.931 . S
C160 Eu161 2.835 . S
C160 C162 1.500 . S
C160 O180 1.257 . S
C160 O181 1.260 . S
Eu161 C160 2.835 . S
Eu161 O180 2.473 . S
Eu161 O181 2.480 . S
Eu161 O182 2.430 . S
Eu161 O183 2.670 . S
Eu161 O184 2.394 . S
Eu161 O189 2.355 . S
Eu161 O191 2.374 . S
C162 C160 1.500 . S
C162 C163 1.377 . S
C162 C167 1.377 . S
C163 C162 1.377 . S
C163 C164 1.395 . S
C163 H192 0.931 . S
C164 C163 1.395 . S
C164 C165 1.383 . S
C164 H193 0.931 . S
C165 C164 1.383 . S
C165 C166 1.394 . S
C166 C165 1.394 . S
C166 C167 1.378 . S
C166 H194 0.931 . S
C167 C162 1.377 . S
C167 C166 1.378 . S
C167 H195 0.931 . S
C168 O182 1.259 . S
C168 O183 1.270 . S
C169 O184 1.251 . S
C169 O185 1.251 . S
C170 Eu171 2.835 . S
C170 C172 1.500 . S
C170 O186 1.257 . S
C170 O187 1.260 . S
Eu171 C170 2.835 . S
Eu171 O183 2.355 . S
Eu171 O185 2.374 . S
Eu171 O186 2.473 . S
Eu171 O187 2.480 . S
Eu171 O188 2.430 . S
Eu171 O189 2.670 . S
Eu171 O190 2.394 . S
C172 C170 1.500 . S
C172 C173 1.377 . S
C172 C177 1.377 . S
C173 C172 1.377 . S
C173 C174 1.395 . S
C173 H196 0.931 . S
C174 C173 1.395 . S
C174 C175 1.383 1_556 S
C174 H197 0.931 . S
C175 C174 1.383 1_554 S
C175 C176 1.394 1_554 S
C176 C175 1.394 1_556 S
C176 C177 1.378 . S
C176 H198 0.931 1_556 S
C177 C172 1.377 . S
C177 C176 1.378 . S
C177 H199 0.931 . S
C178 O188 1.259 . S
C178 O189 1.270 . S
C179 O190 1.251 . S
C179 O191 1.251 . S
O180 C160 1.257 . S
O180 Eu161 2.473 . S
O181 C160 1.260 . S
O181 Eu161 2.480 . S
O182 Eu161 2.430 . S
O182 C168 1.259 . S
O183 Eu161 2.670 . S
O183 C168 1.270 . S
O183 Eu171 2.355 . S
O184 Eu161 2.394 . S
O184 C169 1.251 . S
O185 C169 1.251 . S
O185 Eu171 2.374 . S
O186 C170 1.257 . S
O186 Eu171 2.473 . S
O187 C170 1.260 . S
O187 Eu171 2.480 . S
O188 Eu171 2.430 . S
O188 C178 1.259 . S
O189 Eu161 2.355 . S
O189 Eu171 2.670 . S
O189 C178 1.270 . S
O190 Eu171 2.394 . S
O190 C179 1.251 . S
O191 Eu161 2.374 . S
O191 C179 1.251 . S
H192 C163 0.931 . S
H193 C164 0.931 . S
H194 C166 0.931 . S
H195 C167 0.931 . S
H196 C173 0.931 . S
H197 C174 0.931 . S
H198 C176 0.931 1_554 S
H199 C177 0.931 . S
C200 Eu201 2.835 . S
C200 C202 1.500 . S
C200 O220 1.257 . S
C200 O221 1.260 . S
Eu201 C200 2.835 . S
Eu201 O220 2.473 . S
Eu201 O221 2.480 . S
Eu201 O222 2.430 . S
Eu201 O223 2.670 1_556 S
Eu201 O224 2.394 . S
Eu201 O229 2.355 . S
Eu201 O231 2.374 1_556 S
C202 C200 1.500 . S
C202 C203 1.377 . S
C202 C207 1.377 . S
C203 C202 1.377 . S
C203 C204 1.395 . S
C203 H232 0.931 . S
C204 C203 1.395 . S
C204 C205 1.383 . S
C204 H233 0.931 . S
C205 C204 1.383 . S
C205 C206 1.394 . S
C206 C205 1.394 . S
C206 C207 1.378 . S
C206 H234 0.931 . S
C207 C202 1.377 . S
C207 C206 1.378 . S
C207 H235 0.931 . S
C208 O222 1.259 1_554 S
C208 O223 1.270 . S
C209 O224 1.251 . S
C209 O225 1.251 . S
C210 Eu211 2.835 . S
C210 C212 1.500 . S
C210 O226 1.257 . S
C210 O227 1.260 . S
Eu211 C210 2.835 . S
Eu211 O223 2.355 . S
Eu211 O225 2.374 1_554 S
Eu211 O226 2.473 . S
Eu211 O227 2.480 . S
Eu211 O228 2.430 . S
Eu211 O229 2.670 1_554 S
Eu211 O230 2.394 . S
C212 C210 1.500 . S
C212 C213 1.377 . S
C212 C217 1.377 . S
C213 C212 1.377 . S
C213 C214 1.395 . S
C213 H236 0.931 . S
C214 C213 1.395 . S
C214 C215 1.383 . S
C214 H237 0.931 . S
C215 C214 1.383 . S
C215 C216 1.394 . S
C216 C215 1.394 . S
C216 C217 1.378 . S
C216 H238 0.931 . S
C217 C212 1.377 . S
C217 C216 1.378 . S
C217 H239 0.931 . S
C218 O228 1.259 1_556 S
C218 O229 1.270 . S
C219 O230 1.251 . S
C219 O231 1.251 . S
O220 C200 1.257 . S
O220 Eu201 2.473 . S
O221 C200 1.260 . S
O221 Eu201 2.480 . S
O222 Eu201 2.430 . S
O222 C208 1.259 1_556 S
O223 Eu201 2.670 1_554 S
O223 C208 1.270 . S
O223 Eu211 2.355 . S
O224 Eu201 2.394 . S
O224 C209 1.251 . S
O225 C209 1.251 . S
O225 Eu211 2.374 1_556 S
O226 C210 1.257 . S
O226 Eu211 2.473 . S
O227 C210 1.260 . S
O227 Eu211 2.480 . S
O228 Eu211 2.430 . S
O228 C218 1.259 1_554 S
O229 Eu201 2.355 . S
O229 Eu211 2.670 1_556 S
O229 C218 1.270 . S
O230 Eu211 2.394 . S
O230 C219 1.251 . S
O231 Eu201 2.374 1_554 S
O231 C219 1.251 . S
H232 C203 0.931 . S
H233 C204 0.931 . S
H234 C206 0.931 . S
H235 C207 0.931 . S
H236 C213 0.931 . S
H237 C214 0.931 . S
H238 C216 0.931 . S
H239 C217 0.931 . S
C240 Eu241 2.835 . S
C240 C242 1.500 . S
C240 O260 1.257 . S
C240 O261 1.260 . S
Eu241 C240 2.835 . S
Eu241 O260 2.473 . S
Eu241 O261 2.480 . S
Eu241 O262 2.430 . S
Eu241 O263 2.670 . S
Eu241 O264 2.394 . S
Eu241 O269 2.355 . S
Eu241 O271 2.374 . S
C242 C240 1.500 . S
C242 C243 1.377 . S
C242 C247 1.377 . S
C243 C242 1.377 . S
C243 C244 1.395 . S
C243 H272 0.931 . S
C244 C243 1.395 . S
C244 C245 1.383 1_554 S
C244 H273 0.931 1_554 S
C245 C244 1.383 1_556 S
C245 C246 1.394 . S
C246 C245 1.394 . S
C246 C247 1.378 1_556 S
C246 H274 0.931 . S
C247 C242 1.377 . S
C247 C246 1.378 1_554 S
C247 H275 0.931 . S
C248 O262 1.259 . S
C248 O263 1.270 . S
C249 O264 1.251 . S
C249 O265 1.251 . S
C250 Eu251 2.835 . S
C250 C252 1.500 . S
C250 O266 1.257 . S
C250 O267 1.260 . S
Eu251 C250 2.835 . S
Eu251 O263 2.355 . S
Eu251 O265 2.374 . S
Eu251 O266 2.473 . S
Eu251 O267 2.480 . S
Eu251 O268 2.430 . S
Eu251 O269 2.670 . S
Eu251 O270 2.394 . S
C252 C250 1.500 . S
C252 C253 1.377 . S
C252 C257 1.377 . S
C253 C252 1.377 . S
C253 C254 1.395 . S
C253 H276 0.931 . S
C254 C253 1.395 . S
C254 C255 1.383 . S
C254 H277 0.931 . S
C255 C254 1.383 . S
C255 C256 1.394 . S
C256 C255 1.394 . S
C256 C257 1.378 . S
C256 H278 0.931 . S
C257 C252 1.377 . S
C257 C256 1.378 . S
C257 H279 0.931 . S
C258 O268 1.259 . S
C258 O269 1.270 . S
C259 O270 1.251 . S
C259 O271 1.251 . S
O260 C240 1.257 . S
O260 Eu241 2.473 . S
O261 C240 1.260 . S
O261 Eu241 2.480 . S
O262 Eu241 2.430 . S
O262 C248 1.259 . S
O263 Eu241 2.670 . S
O263 C248 1.270 . S
O263 Eu251 2.355 . S
O264 Eu241 2.394 . S
O264 C249 1.251 . S
O265 C249 1.251 . S
O265 Eu251 2.374 . S
O266 C250 1.257 . S
O266 Eu251 2.473 . S
O267 C250 1.260 . S
O267 Eu251 2.480 . S
O268 Eu251 2.430 . S
O268 C258 1.259 . S
O269 Eu241 2.355 . S
O269 Eu251 2.670 . S
O269 C258 1.270 . S
O270 Eu251 2.394 . S
O270 C259 1.251 . S
O271 Eu241 2.374 . S
O271 C259 1.251 . S
H272 C243 0.931 . S
H273 C244 0.931 1_556 S
H274 C246 0.931 . S
H275 C247 0.931 . S
H276 C253 0.931 . S
H277 C254 0.931 . S
H278 C256 0.931 . S
H279 C257 0.931 . S
C280 Eu281 2.835 . S
C280 C282 1.500 . S
C280 O300 1.257 . S
C280 O301 1.260 . S
Eu281 C280 2.835 . S
Eu281 O300 2.473 . S
Eu281 O301 2.480 . S
Eu281 O302 2.430 . S
Eu281 O303 2.670 . S
Eu281 O304 2.394 . S
Eu281 O309 2.355 . S
Eu281 O311 2.374 . S
C282 C280 1.500 . S
C282 C283 1.377 . S
C282 C287 1.377 . S
C283 C282 1.377 . S
C283 C284 1.395 . S
C283 H312 0.931 . S
C284 C283 1.395 . S
C284 C285 1.383 . S
C284 H313 0.931 . S
C285 C284 1.383 . S
C285 C286 1.394 . S
C286 C285 1.394 . S
C286 C287 1.378 . S
C286 H314 0.931 . S
C287 C282 1.377 . S
C287 C286 1.378 . S
C287 H315 0.931 . S
C288 O302 1.259 . S
C288 O303 1.270 . S
C289 O304 1.251 . S
C289 O305 1.251 . S
C290 Eu291 2.835 . S
C290 C292 1.500 . S
C290 O306 1.257 . S
C290 O307 1.260 . S
Eu291 C290 2.835 . S
Eu291 O303 2.355 . S
Eu291 O305 2.374 . S
Eu291 O306 2.473 . S
Eu291 O307 2.480 . S
Eu291 O308 2.430 . S
Eu291 O309 2.670 . S
Eu291 O310 2.394 . S
C292 C290 1.500 . S
C292 C293 1.377 . S
C292 C297 1.377 . S
C293 C292 1.377 . S
C293 C294 1.395 . S
C293 H316 0.931 . S
C294 C293 1.395 . S
C294 C295 1.383 . S
C294 H317 0.931 . S
C295 C294 1.383 . S
C295 C296 1.394 . S
C296 C295 1.394 . S
C296 C297 1.378 . S
C296 H318 0.931 . S
C297 C292 1.377 . S
C297 C296 1.378 . S
C297 H319 0.931 . S
C298 O308 1.259 . S
C298 O309 1.270 . S
C299 O310 1.251 . S
C299 O311 1.251 . S
O300 C280 1.257 . S
O300 Eu281 2.473 . S
O301 C280 1.260 . S
O301 Eu281 2.480 . S
O302 Eu281 2.430 . S
O302 C288 1.259 . S
O303 Eu281 2.670 . S
O303 C288 1.270 . S
O303 Eu291 2.355 . S
O304 Eu281 2.394 . S
O304 C289 1.251 . S
O305 C289 1.251 . S
O305 Eu291 2.374 . S
O306 C290 1.257 . S
O306 Eu291 2.473 . S
O307 C290 1.260 . S
O307 Eu291 2.480 . S
O308 Eu291 2.430 . S
O308 C298 1.259 . S
O309 Eu281 2.355 . S
O309 Eu291 2.670 . S
O309 C298 1.270 . S
O310 Eu291 2.394 . S
O310 C299 1.251 . S
O311 Eu281 2.374 . S
O311 C299 1.251 . S
H312 C283 0.931 . S
H313 C284 0.931 . S
H314 C286 0.931 . S
H315 C287 0.931 . S
H316 C293 0.931 . S
H317 C294 0.931 . S
H318 C296 0.931 . S
H319 C297 0.931 . S
C320 Eu321 2.835 . S
C320 C322 1.500 . S
C320 O340 1.257 . S
C320 O341 1.260 . S
Eu321 C320 2.835 . S
Eu321 O340 2.473 . S
Eu321 O341 2.480 . S
Eu321 O342 2.430 . S
Eu321 O343 2.670 . S
Eu321 O344 2.394 . S
Eu321 O349 2.355 . S
Eu321 O351 2.374 . S
C322 C320 1.500 . S
C322 C323 1.377 . S
C322 C327 1.377 . S
C323 C322 1.377 . S
C323 C324 1.395 . S
C323 H352 0.931 . S
C324 C323 1.395 . S
C324 C325 1.383 . S
C324 H353 0.931 . S
C325 C324 1.383 . S
C325 C326 1.394 . S
C326 C325 1.394 . S
C326 C327 1.378 . S
C326 H354 0.931 . S
C327 C322 1.377 . S
C327 C326 1.378 . S
C327 H355 0.931 . S
C328 O342 1.259 . S
C328 O343 1.270 . S
C329 O344 1.251 . S
C329 O345 1.251 . S
C330 Eu331 2.835 . S
C330 C332 1.500 . S
C330 O346 1.257 . S
C330 O347 1.260 . S
Eu331 C330 2.835 . S
Eu331 O343 2.355 . S
Eu331 O345 2.374 . S
Eu331 O346 2.473 . S
Eu331 O347 2.480 . S
Eu331 O348 2.430 . S
Eu331 O349 2.670 . S
Eu331 O350 2.394 . S
C332 C330 1.500 . S
C332 C333 1.377 . S
C332 C337 1.377 . S
C333 C332 1.377 . S
C333 C334 1.395 . S
C333 H356 0.931 . S
C334 C333 1.395 . S
C334 C335 1.383 1_554 S
C334 H357 0.931 1_554 S
C335 C334 1.383 1_556 S
C335 C336 1.394 . S
C336 C335 1.394 . S
C336 C337 1.378 1_556 S
C336 H358 0.931 . S
C337 C332 1.377 . S
C337 C336 1.378 1_554 S
C337 H359 0.931 . S
C338 O348 1.259 . S
C338 O349 1.270 . S
C339 O350 1.251 . S
C339 O351 1.251 . S
O340 C320 1.257 . S
O340 Eu321 2.473 . S
O341 C320 1.260 . S
O341 Eu321 2.480 . S
O342 Eu321 2.430 . S
O342 C328 1.259 . S
O343 Eu321 2.670 . S
O343 C328 1.270 . S
O343 Eu331 2.355 . S
O344 Eu321 2.394 . S
O344 C329 1.251 . S
O345 C329 1.251 . S
O345 Eu331 2.374 . S
O346 C330 1.257 . S
O346 Eu331 2.473 . S
O347 C330 1.260 . S
O347 Eu331 2.480 . S
O348 Eu331 2.430 . S
O348 C338 1.259 . S
O349 Eu321 2.355 . S
O349 Eu331 2.670 . S
O349 C338 1.270 . S
O350 Eu331 2.394 . S
O350 C339 1.251 . S
O351 Eu321 2.374 . S
O351 C339 1.251 . S
H352 C323 0.931 . S
H353 C324 0.931 . S
H354 C326 0.931 . S
H355 C327 0.931 . S
H356 C333 0.931 . S
H357 C334 0.931 1_556 S
H358 C336 0.931 . S
H359 C337 0.931 . S
C360 Eu361 2.835 . S
C360 C362 1.500 . S
C360 O380 1.257 . S
C360 O381 1.260 . S
Eu361 C360 2.835 . S
Eu361 O380 2.473 . S
Eu361 O381 2.480 . S
Eu361 O382 2.430 . S
Eu361 O383 2.670 1_554 S
Eu361 O384 2.394 . S
Eu361 O389 2.355 . S
Eu361 O391 2.374 1_554 S
C362 C360 1.500 . S
C362 C363 1.377 . S
C362 C367 1.377 . S
C363 C362 1.377 . S
C363 C364 1.395 . S
C363 H392 0.931 . S
C364 C363 1.395 . S
C364 C365 1.383 . S
C364 H393 0.931 . S
C365 C364 1.383 . S
C365 C366 1.394 . S
C366 C365 1.394 . S
C366 C367 1.378 . S
C366 H394 0.931 . S
C367 C362 1.377 . S
C367 C366 1.378 . S
C367 H395 0.931 . S
C368 O382 1.259 1_556 S
C368 O383 1.270 . S
C369 O384 1.251 . S
C369 O385 1.251 . S
C370 Eu371 2.835 . S
C370 C372 1.500 . S
C370 O386 1.257 . S
C370 O387 1.260 . S
Eu371 C370 2.835 . S
Eu371 O383 2.355 . S
Eu371 O385 2.374 1_556 S
Eu371 O386 2.473 . S
Eu371 O387 2.480 . S
Eu371 O388 2.430 . S
Eu371 O389 2.670 1_556 S
Eu371 O390 2.394 . S
C372 C370 1.500 . S
C372 C373 1.377 . S
C372 C377 1.377 . S
C373 C372 1.377 . S
C373 C374 1.395 . S
C373 H396 0.931 . S
C374 C373 1.395 . S
C374 C375 1.383 . S
C374 H397 0.931 . S
C375 C374 1.383 . S
C375 C376 1.394 . S
C376 C375 1.394 . S
C376 C377 1.378 . S
C376 H398 0.931 . S
C377 C372 1.377 . S
C377 C376 1.378 . S
C377 H399 0.931 . S
C378 O388 1.259 1_554 S
C378 O389 1.270 . S
C379 O390 1.251 . S
C379 O391 1.251 . S
O380 C360 1.257 . S
O380 Eu361 2.473 . S
O381 C360 1.260 . S
O381 Eu361 2.480 . S
O382 Eu361 2.430 . S
O382 C368 1.259 1_554 S
O383 Eu361 2.670 1_556 S
O383 C368 1.270 . S
O383 Eu371 2.355 . S
O384 Eu361 2.394 . S
O384 C369 1.251 . S
O385 C369 1.251 . S
O385 Eu371 2.374 1_554 S
O386 C370 1.257 . S
O386 Eu371 2.473 . S
O387 C370 1.260 . S
O387 Eu371 2.480 . S
O388 Eu371 2.430 . S
O388 C378 1.259 1_556 S
O389 Eu361 2.355 . S
O389 Eu371 2.670 1_554 S
O389 C378 1.270 . S
O390 Eu371 2.394 . S
O390 C379 1.251 . S
O391 Eu361 2.374 1_556 S
O391 C379 1.251 . S
H392 C363 0.931 . S
H393 C364 0.931 . S
H394 C366 0.931 . S
H395 C367 0.931 . S
H396 C373 0.931 . S
H397 C374 0.931 . S
H398 C376 0.931 . S
H399 C377 0.931 . S
C400 Eu401 2.835 . S
C400 C402 1.500 . S
C400 O420 1.257 . S
C400 O421 1.260 . S
Eu401 C400 2.835 . S
Eu401 O420 2.473 . S
Eu401 O421 2.480 . S
Eu401 O422 2.430 . S
Eu401 O423 2.670 . S
Eu401 O424 2.394 . S
Eu401 O429 2.355 . S
Eu401 O431 2.374 . S
C402 C400 1.500 . S
C402 C403 1.377 . S
C402 C407 1.377 . S
C403 C402 1.377 . S
C403 C404 1.395 . S
C403 H432 0.931 . S
C404 C403 1.395 . S
C404 C405 1.383 1_556 S
C404 H433 0.931 . S
C405 C404 1.383 1_554 S
C405 C406 1.394 1_554 S
C406 C405 1.394 1_556 S
C406 C407 1.378 . S
C406 H434 0.931 1_556 S
C407 C402 1.377 . S
C407 C406 1.378 . S
C407 H435 0.931 . S
C408 O422 1.259 . S
C408 O423 1.270 . S
C409 O424 1.251 . S
C409 O425 1.251 . S
C410 Eu411 2.835 . S
C410 C412 1.500 . S
C410 O426 1.257 . S
C410 O427 1.260 . S
Eu411 C410 2.835 . S
Eu411 O423 2.355 . S
Eu411 O425 2.374 . S
Eu411 O426 2.473 . S
Eu411 O427 2.480 . S
Eu411 O428 2.430 . S
Eu411 O429 2.670 . S
Eu411 O430 2.394 . S
C412 C410 1.500 . S
C412 C413 1.377 . S
C412 C417 1.377 . S
C413 C412 1.377 . S
C413 C414 1.395 . S
C413 H436 0.931 . S
C414 C413 1.395 . S
C414 C415 1.383 . S
C414 H437 0.931 . S
C415 C414 1.383 . S
C415 C416 1.394 . S
C416 C415 1.394 . S
C416 C417 1.378 . S
C416 H438 0.931 . S
C417 C412 1.377 . S
C417 C416 1.378 . S
C417 H439 0.931 . S
C418 O428 1.259 . S
C418 O429 1.270 . S
C419 O430 1.251 . S
C419 O431 1.251 . S
O420 C400 1.257 . S
O420 Eu401 2.473 . S
O421 C400 1.260 . S
O421 Eu401 2.480 . S
O422 Eu401 2.430 . S
O422 C408 1.259 . S
O423 Eu401 2.670 . S
O423 C408 1.270 . S
O423 Eu411 2.355 . S
O424 Eu401 2.394 . S
O424 C409 1.251 . S
O425 C409 1.251 . S
O425 Eu411 2.374 . S
O426 C410 1.257 . S
O426 Eu411 2.473 . S
O427 C410 1.260 . S
O427 Eu411 2.480 . S
O428 Eu411 2.430 . S
O428 C418 1.259 . S
O429 Eu401 2.355 . S
O429 Eu411 2.670 . S
O429 C418 1.270 . S
O430 Eu411 2.394 . S
O430 C419 1.251 . S
O431 Eu401 2.374 . S
O431 C419 1.251 . S
H432 C403 0.931 . S
H433 C404 0.931 . S
H434 C406 0.931 1_554 S
H435 C407 0.931 . S
H436 C413 0.931 . S
H437 C414 0.931 . S
H438 C416 0.931 . S
H439 C417 0.931 . S
C440 Eu441 2.835 . S
C440 C442 1.500 . S
C440 O460 1.257 . S
C440 O461 1.260 . S
Eu441 C440 2.835 . S
Eu441 O460 2.473 . S
Eu441 O461 2.480 . S
Eu441 O462 2.430 . S
Eu441 O463 2.670 . S
Eu441 O464 2.394 . S
Eu441 O469 2.355 . S
Eu441 O471 2.374 . S
C442 C440 1.500 . S
C442 C443 1.377 . S
C442 C447 1.377 . S
C443 C442 1.377 . S
C443 C444 1.395 . S
C443 H472 0.931 . S
C444 C443 1.395 . S
C444 C445 1.383 . S
C444 H473 0.931 . S
C445 C444 1.383 . S
C445 C446 1.394 . S
C446 C445 1.394 . S
C446 C447 1.378 . S
C446 H474 0.931 . S
C447 C442 1.377 . S
C447 C446 1.378 . S
C447 H475 0.931 . S
C448 O462 1.259 . S
C448 O463 1.270 . S
C449 O464 1.251 . S
C449 O465 1.251 . S
C450 Eu451 2.835 . S
C450 C452 1.500 . S
C450 O466 1.257 . S
C450 O467 1.260 . S
Eu451 C450 2.835 . S
Eu451 O463 2.355 . S
Eu451 O465 2.374 . S
Eu451 O466 2.473 . S
Eu451 O467 2.480 . S
Eu451 O468 2.430 . S
Eu451 O469 2.670 . S
Eu451 O470 2.394 . S
C452 C450 1.500 . S
C452 C453 1.377 . S
C452 C457 1.377 . S
C453 C452 1.377 . S
C453 C454 1.395 . S
C453 H476 0.931 . S
C454 C453 1.395 . S
C454 C455 1.383 . S
C454 H477 0.931 . S
C455 C454 1.383 . S
C455 C456 1.394 . S
C456 C455 1.394 . S
C456 C457 1.378 . S
C456 H478 0.931 . S
C457 C452 1.377 . S
C457 C456 1.378 . S
C457 H479 0.931 . S
C458 O468 1.259 . S
C458 O469 1.270 . S
C459 O470 1.251 . S
C459 O471 1.251 . S
O460 C440 1.257 . S
O460 Eu441 2.473 . S
O461 C440 1.260 . S
O461 Eu441 2.480 . S
O462 Eu441 2.430 . S
O462 C448 1.259 . S
O463 Eu441 2.670 . S
O463 C448 1.270 . S
O463 Eu451 2.355 . S
O464 Eu441 2.394 . S
O464 C449 1.251 . S
O465 C449 1.251 . S
O465 Eu451 2.374 . S
O466 C450 1.257 . S
O466 Eu451 2.473 . S
O467 C450 1.260 . S
O467 Eu451 2.480 . S
O468 Eu451 2.430 . S
O468 C458 1.259 . S
O469 Eu441 2.355 . S
O469 Eu451 2.670 . S
O469 C458 1.270 . S
O470 Eu451 2.394 . S
O470 C459 1.251 . S
O471 Eu441 2.374 . S
O471 C459 1.251 . S
H472 C443 0.931 . S
H473 C444 0.931 . S
H474 C446 0.931 . S
H475 C447 0.931 . S
H476 C453 0.931 . S
H477 C454 0.931 . S
H478 C456 0.931 . S
H479 C457 0.931 . S
C480 Eu481 2.835 . S
C480 C482 1.500 . S
C480 O500 1.257 . S
C480 O501 1.260 . S
Eu481 C480 2.835 . S
Eu481 O500 2.473 . S
Eu481 O501 2.480 . S
Eu481 O502 2.430 . S
Eu481 O503 2.670 . S
Eu481 O504 2.394 . S
Eu481 O509 2.355 . S
Eu481 O511 2.374 . S
C482 C480 1.500 . S
C482 C483 1.377 . S
C482 C487 1.377 . S
C483 C482 1.377 . S
C483 C484 1.395 . S
C483 H512 0.931 . S
C484 C483 1.395 . S
C484 C485 1.383 . S
C484 H513 0.931 . S
C485 C484 1.383 . S
C485 C486 1.394 . S
C486 C485 1.394 . S
C486 C487 1.378 . S
C486 H514 0.931 . S
C487 C482 1.377 . S
C487 C486 1.378 . S
C487 H515 0.931 . S
C488 O502 1.259 . S
C488 O503 1.270 . S
C489 O504 1.251 . S
C489 O505 1.251 . S
C490 Eu491 2.835 . S
C490 C492 1.500 . S
C490 O506 1.257 . S
C490 O507 1.260 . S
Eu491 C490 2.835 . S
Eu491 O503 2.355 . S
Eu491 O505 2.374 . S
Eu491 O506 2.473 . S
Eu491 O507 2.480 . S
Eu491 O508 2.430 . S
Eu491 O509 2.670 . S
Eu491 O510 2.394 . S
C492 C490 1.500 . S
C492 C493 1.377 . S
C492 C497 1.377 . S
C493 C492 1.377 . S
C493 C494 1.395 . S
C493 H516 0.931 . S
C494 C493 1.395 . S
C494 C495 1.383 . S
C494 H517 0.931 . S
C495 C494 1.383 . S
C495 C496 1.394 . S
C496 C495 1.394 . S
C496 C497 1.378 . S
C496 H518 0.931 . S
C497 C492 1.377 . S
C497 C496 1.378 . S
C497 H519 0.931 . S
C498 O508 1.259 . S
C498 O509 1.270 . S
C499 O510 1.251 . S
C499 O511 1.251 . S
O500 C480 1.257 . S
O500 Eu481 2.473 . S
O501 C480 1.260 . S
O501 Eu481 2.480 . S
O502 Eu481 2.430 . S
O502 C488 1.259 . S
O503 Eu481 2.670 . S
O503 C488 1.270 . S
O503 Eu491 2.355 . S
O504 Eu481 2.394 . S
O504 C489 1.251 . S
O505 C489 1.251 . S
O505 Eu491 2.374 . S
O506 C490 1.257 . S
O506 Eu491 2.473 . S
O507 C490 1.260 . S
O507 Eu491 2.480 . S
O508 Eu491 2.430 . S
O508 C498 1.259 . S
O509 Eu481 2.355 . S
O509 Eu491 2.670 . S
O509 C498 1.270 . S
O510 Eu491 2.394 . S
O510 C499 1.251 . S
O511 Eu481 2.374 . S
O511 C499 1.251 . S
H512 C483 0.931 . S
H513 C484 0.931 . S
H514 C486 0.931 . S
H515 C487 0.931 . S
H516 C493 0.931 . S
H517 C494 0.931 . S
H518 C496 0.931 . S
H519 C497 0.931 . S
C520 Eu521 2.835 . S
C520 C522 1.500 . S
C520 O540 1.257 . S
C520 O541 1.260 . S
Eu521 C520 2.835 . S
Eu521 O540 2.473 . S
Eu521 O541 2.480 . S
Eu521 O542 2.430 . S
Eu521 O543 2.670 . S
Eu521 O544 2.394 . S
Eu521 O549 2.355 . S
Eu521 O551 2.374 . S
C522 C520 1.500 . S
C522 C523 1.377 . S
C522 C527 1.377 . S
C523 C522 1.377 . S
C523 C524 1.395 . S
C523 H552 0.931 . S
C524 C523 1.395 . S
C524 C525 1.383 . S
C524 H553 0.931 . S
C525 C524 1.383 . S
C525 C526 1.394 . S
C526 C525 1.394 . S
C526 C527 1.378 . S
C526 H554 0.931 . S
C527 C522 1.377 . S
C527 C526 1.378 . S
C527 H555 0.931 . S
C528 O542 1.259 . S
C528 O543 1.270 . S
C529 O544 1.251 . S
C529 O545 1.251 . S
C530 Eu531 2.835 . S
C530 C532 1.500 . S
C530 O546 1.257 . S
C530 O547 1.260 . S
Eu531 C530 2.835 . S
Eu531 O543 2.355 . S
Eu531 O545 2.374 . S
Eu531 O546 2.473 . S
Eu531 O547 2.480 . S
Eu531 O548 2.430 . S
Eu531 O549 2.670 . S
Eu531 O550 2.394 . S
C532 C530 1.500 . S
C532 C533 1.377 . S
C532 C537 1.377 . S
C533 C532 1.377 . S
C533 C534 1.395 . S
C533 H556 0.931 . S
C534 C533 1.395 . S
C534 C535 1.383 . S
C534 H557 0.931 . S
C535 C534 1.383 . S
C535 C536 1.394 . S
C536 C535 1.394 . S
C536 C537 1.378 . S
C536 H558 0.931 . S
C537 C532 1.377 . S
C537 C536 1.378 . S
C537 H559 0.931 . S
C538 O548 1.259 . S
C538 O549 1.270 . S
C539 O550 1.251 . S
C539 O551 1.251 . S
O540 C520 1.257 . S
O540 Eu521 2.473 . S
O541 C520 1.260 . S
O541 Eu521 2.480 . S
O542 Eu521 2.430 . S
O542 C528 1.259 . S
O543 Eu521 2.670 . S
O543 C528 1.270 . S
O543 Eu531 2.355 . S
O544 Eu521 2.394 . S
O544 C529 1.251 . S
O545 C529 1.251 . S
O545 Eu531 2.374 . S
O546 C530 1.257 . S
O546 Eu531 2.473 . S
O547 C530 1.260 . S
O547 Eu531 2.480 . S
O548 Eu531 2.430 . S
O548 C538 1.259 . S
O549 Eu521 2.355 . S
O549 Eu531 2.670 . S
O549 C538 1.270 . S
O550 Eu531 2.394 . S
O550 C539 1.251 . S
O551 Eu521 2.374 . S
O551 C539 1.251 . S
H552 C523 0.931 . S
H553 C524 0.931 . S
H554 C526 0.931 . S
H555 C527 0.931 . S
H556 C533 0.931 . S
H557 C534 0.931 . S
H558 C536 0.931 . S
H559 C537 0.931 . S
C560 Eu561 2.835 . S
C560 C562 1.500 1_554 S
C560 O580 1.257 . S
C560 O581 1.260 . S
Eu561 C560 2.835 . S
Eu561 O580 2.473 . S
Eu561 O581 2.480 . S
Eu561 O582 2.430 . S
Eu561 O583 2.670 . S
Eu561 O584 2.394 . S
Eu561 O589 2.355 . S
Eu561 O591 2.374 . S
C562 C560 1.500 1_556 S
C562 C563 1.377 . S
C562 C567 1.377 . S
C563 C562 1.377 . S
C563 C564 1.395 . S
C563 H592 0.931 . S
C564 C563 1.395 . S
C564 C565 1.383 . S
C564 H593 0.931 . S
C565 C564 1.383 . S
C565 C566 1.394 . S
C566 C565 1.394 . S
C566 C567 1.378 . S
C566 H594 0.931 . S
C567 C562 1.377 . S
C567 C566 1.378 . S
C567 H595 0.931 . S
C568 O582 1.259 . S
C568 O583 1.270 . S
C569 O584 1.251 . S
C569 O585 1.251 . S
C570 Eu571 2.835 . S
C570 C572 1.500 . S
C570 O586 1.257 . S
C570 O587 1.260 . S
Eu571 C570 2.835 . S
Eu571 O583 2.355 . S
Eu571 O585 2.374 . S
Eu571 O586 2.473 . S
Eu571 O587 2.480 . S
Eu571 O588 2.430 . S
Eu571 O589 2.670 . S
Eu571 O590 2.394 . S
C572 C570 1.500 . S
C572 C573 1.377 . S
C572 C577 1.377 . S
C573 C572 1.377 . S
C573 C574 1.395 . S
C573 H596 0.931 . S
C574 C573 1.395 . S
C574 C575 1.383 . S
C574 H597 0.931 . S
C575 C574 1.383 . S
C575 C576 1.394 . S
C576 C575 1.394 . S
C576 C577 1.378 . S
C576 H598 0.931 . S
C577 C572 1.377 . S
C577 C576 1.378 . S
C577 H599 0.931 . S
C578 O588 1.259 . S
C578 O589 1.270 . S
C579 O590 1.251 . S
C579 O591 1.251 . S
O580 C560 1.257 . S
O580 Eu561 2.473 . S
O581 C560 1.260 . S
O581 Eu561 2.480 . S
O582 Eu561 2.430 . S
O582 C568 1.259 . S
O583 Eu561 2.670 . S
O583 C568 1.270 . S
O583 Eu571 2.355 . S
O584 Eu561 2.394 . S
O584 C569 1.251 . S
O585 C569 1.251 . S
O585 Eu571 2.374 . S
O586 C570 1.257 . S
O586 Eu571 2.473 . S
O587 C570 1.260 . S
O587 Eu571 2.480 . S
O588 Eu571 2.430 . S
O588 C578 1.259 . S
O589 Eu561 2.355 . S
O589 Eu571 2.670 . S
O589 C578 1.270 . S
O590 Eu571 2.394 . S
O590 C579 1.251 . S
O591 Eu561 2.374 . S
O591 C579 1.251 . S
H592 C563 0.931 . S
H593 C564 0.931 . S
H594 C566 0.931 . S
H595 C567 0.931 . S
H596 C573 0.931 . S
H597 C574 0.931 . S
H598 C576 0.931 . S
H599 C577 0.931 . S
C600 Eu601 2.835 . S
C600 C602 1.500 . S
C600 O620 1.257 . S
C600 O621 1.260 . S
Eu601 C600 2.835 . S
Eu601 O620 2.473 . S
Eu601 O621 2.480 . S
Eu601 O622 2.430 . S
Eu601 O623 2.670 . S
Eu601 O624 2.394 . S
Eu601 O629 2.355 . S
Eu601 O631 2.374 . S
C602 C600 1.500 . S
C602 C603 1.377 . S
C602 C607 1.377 . S
C603 C602 1.377 . S
C603 C604 1.395 . S
C603 H632 0.931 . S
C604 C603 1.395 . S
C604 C605 1.383 . S
C604 H633 0.931 . S
C605 C604 1.383 . S
C605 C606 1.394 . S
C606 C605 1.394 . S
C606 C607 1.378 . S
C606 H634 0.931 . S
C607 C602 1.377 . S
C607 C606 1.378 . S
C607 H635 0.931 . S
C608 O622 1.259 . S
C608 O623 1.270 . S
C609 O624 1.251 . S
C609 O625 1.251 . S
C610 Eu611 2.835 1_554 S
C610 C612 1.500 . S
C610 O626 1.257 . S
C610 O627 1.260 . S
Eu611 C610 2.835 1_556 S
Eu611 O623 2.355 . S
Eu611 O625 2.374 . S
Eu611 O626 2.473 1_556 S
Eu611 O627 2.480 1_556 S
Eu611 O628 2.430 . S
Eu611 O629 2.670 . S
Eu611 O630 2.394 . S
C612 C610 1.500 . S
C612 C613 1.377 . S
C612 C617 1.377 . S
C613 C612 1.377 . S
C613 C614 1.395 . S
C613 H636 0.931 . S
C614 C613 1.395 . S
C614 C615 1.383 . S
C614 H637 0.931 . S
C615 C614 1.383 . S
C615 C616 1.394 . S
C616 C615 1.394 . S
C616 C617 1.378 . S
C616 H638 0.931 . S
C617 C612 1.377 . S
C617 C616 1.378 . S
C617 H639 0.931 . S
C618 O628 1.259 . S
C618 O629 1.270 . S
C619 O630 1.251 . S
C619 O631 1.251 . S
O620 C600 1.257 . S
O620 Eu601 2.473 . S
O621 C600 1.260 . S
O621 Eu601 2.480 . S
O622 Eu601 2.430 . S
O622 C608 1.259 . S
O623 Eu601 2.670 . S
O623 C608 1.270 . S
O623 Eu611 2.355 . S
O624 Eu601 2.394 . S
O624 C609 1.251 . S
O625 C609 1.251 . S
O625 Eu611 2.374 . S
O626 C610 1.257 . S
O626 Eu611 2.473 1_554 S
O627 C610 1.260 . S
O627 Eu611 2.480 1_554 S
O628 Eu611 2.430 . S
O628 C618 1.259 . S
O629 Eu601 2.355 . S
O629 Eu611 2.670 . S
O629 C618 1.270 . S
O630 Eu611 2.394 . S
O630 C619 1.251 . S
O631 Eu601 2.374 . S
O631 C619 1.251 . S
H632 C603 0.931 . S
H633 C604 0.931 . S
H634 C606 0.931 . S
H635 C607 0.931 . S
H636 C613 0.931 . S
H637 C614 0.931 . S
H638 C616 0.931 . S
H639 C617 0.931 . S
C640 Eu641 2.835 . S
C640 C642 1.500 . S
C640 O660 1.257 . S
C640 O661 1.260 . S
Eu641 C640 2.835 . S
Eu641 O660 2.473 . S
Eu641 O661 2.480 . S
Eu641 O662 2.430 . S
Eu641 O663 2.670 . S
Eu641 O664 2.394 . S
Eu641 O669 2.355 . S
Eu641 O671 2.374 . S
C642 C640 1.500 . S
C642 C643 1.377 . S
C642 C647 1.377 . S
C643 C642 1.377 . S
C643 C644 1.395 1_565 S
C643 H672 0.931 1_565 S
C644 C643 1.395 1_545 S
C644 C645 1.383 1_545 S
C644 H673 0.931 . S
C645 C644 1.383 1_565 S
C645 C646 1.394 . S
C646 C645 1.394 . S
C646 C647 1.378 . S
C646 H674 0.931 . S
C647 C642 1.377 . S
C647 C646 1.378 . S
C647 H675 0.931 . S
C648 O662 1.259 . S
C648 O663 1.270 . S
C649 O664 1.251 . S
C649 O665 1.251 . S
C650 Eu651 2.835 . S
C650 C652 1.500 . S
C650 O666 1.257 . S
C650 O667 1.260 . S
Eu651 C650 2.835 . S
Eu651 O663 2.355 . S
Eu651 O665 2.374 . S
Eu651 O666 2.473 . S
Eu651 O667 2.480 . S
Eu651 O668 2.430 . S
Eu651 O669 2.670 . S
Eu651 O670 2.394 . S
C652 C650 1.500 . S
C652 C653 1.377 . S
C652 C657 1.377 . S
C653 C652 1.377 . S
C653 C654 1.395 . S
C653 H676 0.931 . S
C654 C653 1.395 . S
C654 C655 1.383 . S
C654 H677 0.931 . S
C655 C654 1.383 . S
C655 C656 1.394 . S
C656 C655 1.394 . S
C656 C657 1.378 . S
C656 H678 0.931 . S
C657 C652 1.377 . S
C657 C656 1.378 . S
C657 H679 0.931 . S
C658 O668 1.259 . S
C658 O669 1.270 . S
C659 O670 1.251 . S
C659 O671 1.251 . S
O660 C640 1.257 . S
O660 Eu641 2.473 . S
O661 C640 1.260 . S
O661 Eu641 2.480 . S
O662 Eu641 2.430 . S
O662 C648 1.259 . S
O663 Eu641 2.670 . S
O663 C648 1.270 . S
O663 Eu651 2.355 . S
O664 Eu641 2.394 . S
O664 C649 1.251 . S
O665 C649 1.251 . S
O665 Eu651 2.374 . S
O666 C650 1.257 . S
O666 Eu651 2.473 . S
O667 C650 1.260 . S
O667 Eu651 2.480 . S
O668 Eu651 2.430 . S
O668 C658 1.259 . S
O669 Eu641 2.355 . S
O669 Eu651 2.670 . S
O669 C658 1.270 . S
O670 Eu651 2.394 . S
O670 C659 1.251 . S
O671 Eu641 2.374 . S
O671 C659 1.251 . S
H672 C643 0.931 1_545 S
H673 C644 0.931 . S
H674 C646 0.931 . S
H675 C647 0.931 . S
H676 C653 0.931 . S
H677 C654 0.931 . S
H678 C656 0.931 . S
H679 C657 0.931 . S
C680 Eu681 2.835 1_554 S
C680 C682 1.500 . S
C680 O700 1.257 . S
C680 O701 1.260 . S
Eu681 C680 2.835 1_556 S
Eu681 O700 2.473 1_556 S
Eu681 O701 2.480 1_556 S
Eu681 O702 2.430 . S
Eu681 O703 2.670 . S
Eu681 O704 2.394 . S
Eu681 O709 2.355 . S
Eu681 O711 2.374 . S
C682 C680 1.500 . S
C682 C683 1.377 . S
C682 C687 1.377 . S
C683 C682 1.377 . S
C683 C684 1.395 . S
C683 H712 0.931 . S
C684 C683 1.395 . S
C684 C685 1.383 . S
C684 H713 0.931 . S
C685 C684 1.383 . S
C685 C686 1.394 . S
C686 C685 1.394 . S
C686 C687 1.378 . S
C686 H714 0.931 . S
C687 C682 1.377 . S
C687 C686 1.378 . S
C687 H715 0.931 . S
C688 O702 1.259 . S
C688 O703 1.270 . S
C689 O704 1.251 . S
C689 O705 1.251 . S
C690 Eu691 2.835 . S
C690 C692 1.500 . S
C690 O706 1.257 . S
C690 O707 1.260 . S
Eu691 C690 2.835 . S
Eu691 O703 2.355 . S
Eu691 O705 2.374 . S
Eu691 O706 2.473 . S
Eu691 O707 2.480 . S
Eu691 O708 2.430 . S
Eu691 O709 2.670 . S
Eu691 O710 2.394 . S
C692 C690 1.500 . S
C692 C693 1.377 . S
C692 C697 1.377 . S
C693 C692 1.377 . S
C693 C694 1.395 . S
C693 H716 0.931 . S
C694 C693 1.395 . S
C694 C695 1.383 . S
C694 H717 0.931 . S
C695 C694 1.383 . S
C695 C696 1.394 . S
C696 C695 1.394 . S
C696 C697 1.378 . S
C696 H718 0.931 . S
C697 C692 1.377 . S
C697 C696 1.378 . S
C697 H719 0.931 . S
C698 O708 1.259 . S
C698 O709 1.270 . S
C699 O710 1.251 . S
C699 O711 1.251 . S
O700 C680 1.257 . S
O700 Eu681 2.473 1_554 S
O701 C680 1.260 . S
O701 Eu681 2.480 1_554 S
O702 Eu681 2.430 . S
O702 C688 1.259 . S
O703 Eu681 2.670 . S
O703 C688 1.270 . S
O703 Eu691 2.355 . S
O704 Eu681 2.394 . S
O704 C689 1.251 . S
O705 C689 1.251 . S
O705 Eu691 2.374 . S
O706 C690 1.257 . S
O706 Eu691 2.473 . S
O707 C690 1.260 . S
O707 Eu691 2.480 . S
O708 Eu691 2.430 . S
O708 C698 1.259 . S
O709 Eu681 2.355 . S
O709 Eu691 2.670 . S
O709 C698 1.270 . S
O710 Eu691 2.394 . S
O710 C699 1.251 . S
O711 Eu681 2.374 . S
O711 C699 1.251 . S
H712 C683 0.931 . S
H713 C684 0.931 . S
H714 C686 0.931 . S
H715 C687 0.931 . S
H716 C693 0.931 . S
H717 C694 0.931 . S
H718 C696 0.931 . S
H719 C697 0.931 . S
C720 Eu721 2.835 . S
C720 C722 1.500 . S
C720 O740 1.257 . S
C720 O741 1.260 . S
Eu721 C720 2.835 . S
Eu721 O740 2.473 . S
Eu721 O741 2.480 . S
Eu721 O742 2.430 . S
Eu721 O743 2.670 . S
Eu721 O744 2.394 . S
Eu721 O749 2.355 . S
Eu721 O751 2.374 . S
C722 C720 1.500 . S
C722 C723 1.377 . S
C722 C727 1.377 . S
C723 C722 1.377 . S
C723 C724 1.395 1_545 S
C723 H752 0.931 1_545 S
C724 C723 1.395 1_565 S
C724 C725 1.383 1_565 S
C724 H753 0.931 . S
C725 C724 1.383 1_545 S
C725 C726 1.394 . S
C726 C725 1.394 . S
C726 C727 1.378 . S
C726 H754 0.931 . S
C727 C722 1.377 . S
C727 C726 1.378 . S
C727 H755 0.931 . S
C728 O742 1.259 . S
C728 O743 1.270 . S
C729 O744 1.251 . S
C729 O745 1.251 . S
C730 Eu731 2.835 . S
C730 C732 1.500 1_554 S
C730 O746 1.257 . S
C730 O747 1.260 . S
Eu731 C730 2.835 . S
Eu731 O743 2.355 . S
Eu731 O745 2.374 . S
Eu731 O746 2.473 . S
Eu731 O747 2.480 . S
Eu731 O748 2.430 . S
Eu731 O749 2.670 . S
Eu731 O750 2.394 . S
C732 C730 1.500 1_556 S
C732 C733 1.377 . S
C732 C737 1.377 . S
C733 C732 1.377 . S
C733 C734 1.395 . S
C733 H756 0.931 . S
C734 C733 1.395 . S
C734 C735 1.383 . S
C734 H757 0.931 . S
C735 C734 1.383 . S
C735 C736 1.394 . S
C736 C735 1.394 . S
C736 C737 1.378 . S
C736 H758 0.931 . S
C737 C732 1.377 . S
C737 C736 1.378 . S
C737 H759 0.931 . S
C738 O748 1.259 . S
C738 O749 1.270 . S
C739 O750 1.251 . S
C739 O751 1.251 . S
O740 C720 1.257 . S
O740 Eu721 2.473 . S
O741 C720 1.260 . S
O741 Eu721 2.480 . S
O742 Eu721 2.430 . S
O742 C728 1.259 . S
O743 Eu721 2.670 . S
O743 C728 1.270 . S
O743 Eu731 2.355 . S
O744 Eu721 2.394 . S
O744 C729 1.251 . S
O745 C729 1.251 . S
O745 Eu731 2.374 . S
O746 C730 1.257 . S
O746 Eu731 2.473 . S
O747 C730 1.260 . S
O747 Eu731 2.480 . S
O748 Eu731 2.430 . S
O748 C738 1.259 . S
O749 Eu721 2.355 . S
O749 Eu731 2.670 . S
O749 C738 1.270 . S
O750 Eu731 2.394 . S
O750 C739 1.251 . S
O751 Eu721 2.374 . S
O751 C739 1.251 . S
H752 C723 0.931 1_565 S
H753 C724 0.931 . S
H754 C726 0.931 . S
H755 C727 0.931 . S
H756 C733 0.931 . S
H757 C734 0.931 . S
H758 C736 0.931 . S
H759 C737 0.931 . S
C760 Eu761 2.835 . S
C760 C762 1.500 . S
C760 O780 1.257 . S
C760 O781 1.260 . S
Eu761 C760 2.835 . S
Eu761 O780 2.473 . S
Eu761 O781 2.480 . S
Eu761 O782 2.430 . S
Eu761 O783 2.670 . S
Eu761 O784 2.394 . S
Eu761 O789 2.355 . S
Eu761 O791 2.374 . S
C762 C760 1.500 . S
C762 C763 1.377 . S
C762 C767 1.377 . S
C763 C762 1.377 . S
C763 C764 1.395 . S
C763 H792 0.931 . S
C764 C763 1.395 . S
C764 C765 1.383 . S
C764 H793 0.931 . S
C765 C764 1.383 . S
C765 C766 1.394 . S
C766 C765 1.394 . S
C766 C767 1.378 . S
C766 H794 0.931 . S
C767 C762 1.377 . S
C767 C766 1.378 . S
C767 H795 0.931 . S
C768 O782 1.259 . S
C768 O783 1.270 . S
C769 O784 1.251 . S
C769 O785 1.251 . S
C770 Eu771 2.835 . S
C770 C772 1.500 . S
C770 O786 1.257 . S
C770 O787 1.260 . S
Eu771 C770 2.835 . S
Eu771 O783 2.355 . S
Eu771 O785 2.374 . S
Eu771 O786 2.473 . S
Eu771 O787 2.480 . S
Eu771 O788 2.430 . S
Eu771 O789 2.670 . S
Eu771 O790 2.394 . S
C772 C770 1.500 . S
C772 C773 1.377 . S
C772 C777 1.377 . S
C773 C772 1.377 . S
C773 C774 1.395 . S
C773 H796 0.931 . S
C774 C773 1.395 . S
C774 C775 1.383 . S
C774 H797 0.931 . S
C775 C774 1.383 . S
C775 C776 1.394 . S
C776 C775 1.394 . S
C776 C777 1.378 . S
C776 H798 0.931 . S
C777 C772 1.377 . S
C777 C776 1.378 . S
C777 H799 0.931 . S
C778 O788 1.259 . S
C778 O789 1.270 . S
C779 O790 1.251 . S
C779 O791 1.251 . S
O780 C760 1.257 . S
O780 Eu761 2.473 . S
O781 C760 1.260 . S
O781 Eu761 2.480 . S
O782 Eu761 2.430 . S
O782 C768 1.259 . S
O783 Eu761 2.670 . S
O783 C768 1.270 . S
O783 Eu771 2.355 . S
O784 Eu761 2.394 . S
O784 C769 1.251 . S
O785 C769 1.251 . S
O785 Eu771 2.374 . S
O786 C770 1.257 . S
O786 Eu771 2.473 . S
O787 C770 1.260 . S
O787 Eu771 2.480 . S
O788 Eu771 2.430 . S
O788 C778 1.259 . S
O789 Eu761 2.355 . S
O789 Eu771 2.670 . S
O789 C778 1.270 . S
O790 Eu771 2.394 . S
O790 C779 1.251 . S
O791 Eu761 2.374 . S
O791 C779 1.251 . S
H792 C763 0.931 . S
H793 C764 0.931 . S
H794 C766 0.931 . S
H795 C767 0.931 . S
H796 C773 0.931 . S
H797 C774 0.931 . S
H798 C776 0.931 . S
H799 C777 0.931 . S
C800 Eu801 2.835 . S
C800 C802 1.500 . S
C800 O820 1.257 . S
C800 O821 1.260 . S
Eu801 C800 2.835 . S
Eu801 O820 2.473 . S
Eu801 O821 2.480 . S
Eu801 O822 2.430 . S
Eu801 O823 2.670 . S
Eu801 O824 2.394 . S
Eu801 O829 2.355 . S
Eu801 O831 2.374 . S
C802 C800 1.500 . S
C802 C803 1.377 . S
C802 C807 1.377 . S
C803 C802 1.377 . S
C803 C804 1.395 1_545 S
C803 H832 0.931 1_545 S
C804 C803 1.395 1_565 S
C804 C805 1.383 1_564 S
C804 H833 0.931 1_554 S
C805 C804 1.383 1_546 S
C805 C806 1.394 . S
C806 C805 1.394 . S
C806 C807 1.378 1_556 S
C806 H834 0.931 . S
C807 C802 1.377 . S
C807 C806 1.378 1_554 S
C807 H835 0.931 . S
C808 O822 1.259 . S
C808 O823 1.270 . S
C809 O824 1.251 . S
C809 O825 1.251 . S
C810 Eu811 2.835 . S
C810 C812 1.500 . S
C810 O826 1.257 . S
C810 O827 1.260 . S
Eu811 C810 2.835 . S
Eu811 O823 2.355 . S
Eu811 O825 2.374 . S
Eu811 O826 2.473 . S
Eu811 O827 2.480 . S
Eu811 O828 2.430 . S
Eu811 O829 2.670 . S
Eu811 O830 2.394 . S
C812 C810 1.500 . S
C812 C813 1.377 . S
C812 C817 1.377 . S
C813 C812 1.377 . S
C813 C814 1.395 . S
C813 H836 0.931 . S
C814 C813 1.395 . S
C814 C815 1.383 . S
C814 H837 0.931 . S
C815 C814 1.383 . S
C815 C816 1.394 . S
C816 C815 1.394 . S
C816 C817 1.378 . S
C816 H838 0.931 . S
C817 C812 1.377 . S
C817 C816 1.378 . S
C817 H839 0.931 . S
C818 O828 1.259 . S
C818 O829 1.270 . S
C819 O830 1.251 . S
C819 O831 1.251 . S
O820 C800 1.257 . S
O820 Eu801 2.473 . S
O821 C800 1.260 . S
O821 Eu801 2.480 . S
O822 Eu801 2.430 . S
O822 C808 1.259 . S
O823 Eu801 2.670 . S
O823 C808 1.270 . S
O823 Eu811 2.355 . S
O824 Eu801 2.394 . S
O824 C809 1.251 . S
O825 C809 1.251 . S
O825 Eu811 2.374 . S
O826 C810 1.257 . S
O826 Eu811 2.473 . S
O827 C810 1.260 . S
O827 Eu811 2.480 . S
O828 Eu811 2.430 . S
O828 C818 1.259 . S
O829 Eu801 2.355 . S
O829 Eu811 2.670 . S
O829 C818 1.270 . S
O830 Eu811 2.394 . S
O830 C819 1.251 . S
O831 Eu801 2.374 . S
O831 C819 1.251 . S
H832 C803 0.931 1_565 S
H833 C804 0.931 1_556 S
H834 C806 0.931 . S
H835 C807 0.931 . S
H836 C813 0.931 . S
H837 C814 0.931 . S
H838 C816 0.931 . S
H839 C817 0.931 . S
C840 Eu841 2.835 . S
C840 C842 1.500 . S
C840 O860 1.257 . S
C840 O861 1.260 . S
Eu841 C840 2.835 . S
Eu841 O860 2.473 . S
Eu841 O861 2.480 . S
Eu841 O862 2.430 . S
Eu841 O863 2.670 . S
Eu841 O864 2.394 . S
Eu841 O869 2.355 . S
Eu841 O871 2.374 . S
C842 C840 1.500 . S
C842 C843 1.377 . S
C842 C847 1.377 . S
C843 C842 1.377 . S
C843 C844 1.395 . S
C843 H872 0.931 . S
C844 C843 1.395 . S
C844 C845 1.383 . S
C844 H873 0.931 . S
C845 C844 1.383 . S
C845 C846 1.394 . S
C846 C845 1.394 . S
C846 C847 1.378 . S
C846 H874 0.931 . S
C847 C842 1.377 . S
C847 C846 1.378 . S
C847 H875 0.931 . S
C848 O862 1.259 . S
C848 O863 1.270 . S
C849 O864 1.251 . S
C849 O865 1.251 . S
C850 Eu851 2.835 . S
C850 C852 1.500 . S
C850 O866 1.257 . S
C850 O867 1.260 . S
Eu851 C850 2.835 . S
Eu851 O863 2.355 . S
Eu851 O865 2.374 . S
Eu851 O866 2.473 . S
Eu851 O867 2.480 . S
Eu851 O868 2.430 . S
Eu851 O869 2.670 . S
Eu851 O870 2.394 . S
C852 C850 1.500 . S
C852 C853 1.377 . S
C852 C857 1.377 . S
C853 C852 1.377 . S
C853 C854 1.395 . S
C853 H876 0.931 . S
C854 C853 1.395 . S
C854 C855 1.383 . S
C854 H877 0.931 . S
C855 C854 1.383 . S
C855 C856 1.394 . S
C856 C855 1.394 . S
C856 C857 1.378 . S
C856 H878 0.931 . S
C857 C852 1.377 . S
C857 C856 1.378 . S
C857 H879 0.931 . S
C858 O868 1.259 . S
C858 O869 1.270 . S
C859 O870 1.251 . S
C859 O871 1.251 . S
O860 C840 1.257 . S
O860 Eu841 2.473 . S
O861 C840 1.260 . S
O861 Eu841 2.480 . S
O862 Eu841 2.430 . S
O862 C848 1.259 . S
O863 Eu841 2.670 . S
O863 C848 1.270 . S
O863 Eu851 2.355 . S
O864 Eu841 2.394 . S
O864 C849 1.251 . S
O865 C849 1.251 . S
O865 Eu851 2.374 . S
O866 C850 1.257 . S
O866 Eu851 2.473 . S
O867 C850 1.260 . S
O867 Eu851 2.480 . S
O868 Eu851 2.430 . S
O868 C858 1.259 . S
O869 Eu841 2.355 . S
O869 Eu851 2.670 . S
O869 C858 1.270 . S
O870 Eu851 2.394 . S
O870 C859 1.251 . S
O871 Eu841 2.374 . S
O871 C859 1.251 . S
H872 C843 0.931 . S
H873 C844 0.931 . S
H874 C846 0.931 . S
H875 C847 0.931 . S
H876 C853 0.931 . S
H877 C854 0.931 . S
H878 C856 0.931 . S
H879 C857 0.931 . S
C880 Eu881 2.835 . S
C880 C882 1.500 . S
C880 O900 1.257 . S
C880 O901 1.260 . S
Eu881 C880 2.835 . S
Eu881 O900 2.473 . S
Eu881 O901 2.480 . S
Eu881 O902 2.430 . S
Eu881 O903 2.670 . S
Eu881 O904 2.394 . S
Eu881 O909 2.355 . S
Eu881 O911 2.374 . S
C882 C880 1.500 . S
C882 C883 1.377 . S
C882 C887 1.377 . S
C883 C882 1.377 . S
C883 C884 1.395 1_565 S
C883 H912 0.931 1_565 S
C884 C883 1.395 1_545 S
C884 C885 1.383 1_545 S
C884 H913 0.931 . S
C885 C884 1.383 1_565 S
C885 C886 1.394 . S
C886 C885 1.394 . S
C886 C887 1.378 . S
C886 H914 0.931 . S
C887 C882 1.377 . S
C887 C886 1.378 . S
C887 H915 0.931 . S
C888 O902 1.259 . S
C888 O903 1.270 . S
C889 O904 1.251 . S
C889 O905 1.251 . S
C890 Eu891 2.835 . S
C890 C892 1.500 . S
C890 O906 1.257 . S
C890 O907 1.260 . S
Eu891 C890 2.835 . S
Eu891 O903 2.355 . S
Eu891 O905 2.374 . S
Eu891 O906 2.473 . S
Eu891 O907 2.480 . S
Eu891 O908 2.430 . S
Eu891 O909 2.670 . S
Eu891 O910 2.394 . S
C892 C890 1.500 . S
C892 C893 1.377 . S
C892 C897 1.377 . S
C893 C892 1.377 . S
C893 C894 1.395 . S
C893 H916 0.931 . S
C894 C893 1.395 . S
C894 C895 1.383 1_556 S
C894 H917 0.931 . S
C895 C894 1.383 1_554 S
C895 C896 1.394 1_554 S
C896 C895 1.394 1_556 S
C896 C897 1.378 . S
C896 H918 0.931 1_556 S
C897 C892 1.377 . S
C897 C896 1.378 . S
C897 H919 0.931 . S
C898 O908 1.259 . S
C898 O909 1.270 . S
C899 O910 1.251 . S
C899 O911 1.251 . S
O900 C880 1.257 . S
O900 Eu881 2.473 . S
O901 C880 1.260 . S
O901 Eu881 2.480 . S
O902 Eu881 2.430 . S
O902 C888 1.259 . S
O903 Eu881 2.670 . S
O903 C888 1.270 . S
O903 Eu891 2.355 . S
O904 Eu881 2.394 . S
O904 C889 1.251 . S
O905 C889 1.251 . S
O905 Eu891 2.374 . S
O906 C890 1.257 . S
O906 Eu891 2.473 . S
O907 C890 1.260 . S
O907 Eu891 2.480 . S
O908 Eu891 2.430 . S
O908 C898 1.259 . S
O909 Eu881 2.355 . S
O909 Eu891 2.670 . S
O909 C898 1.270 . S
O910 Eu891 2.394 . S
O910 C899 1.251 . S
O911 Eu881 2.374 . S
O911 C899 1.251 . S
H912 C883 0.931 1_545 S
H913 C884 0.931 . S
H914 C886 0.931 . S
H915 C887 0.931 . S
H916 C893 0.931 . S
H917 C894 0.931 . S
H918 C896 0.931 1_554 S
H919 C897 0.931 . S
C920 Eu921 2.835 . S
C920 C922 1.500 . S
C920 O940 1.257 . S
C920 O941 1.260 . S
Eu921 C920 2.835 . S
Eu921 O940 2.473 . S
Eu921 O941 2.480 . S
Eu921 O942 2.430 . S
Eu921 O943 2.670 1_556 S
Eu921 O944 2.394 . S
Eu921 O949 2.355 . S
Eu921 O951 2.374 1_556 S
C922 C920 1.500 . S
C922 C923 1.377 . S
C922 C927 1.377 . S
C923 C922 1.377 . S
C923 C924 1.395 . S
C923 H952 0.931 . S
C924 C923 1.395 . S
C924 C925 1.383 . S
C924 H953 0.931 . S
C925 C924 1.383 . S
C925 C926 1.394 . S
C926 C925 1.394 . S
C926 C927 1.378 . S
C926 H954 0.931 . S
C927 C922 1.377 . S
C927 C926 1.378 . S
C927 H955 0.931 . S
C928 O942 1.259 1_554 S
C928 O943 1.270 . S
C929 O944 1.251 . S
C929 O945 1.251 . S
C930 Eu931 2.835 . S
C930 C932 1.500 . S
C930 O946 1.257 . S
C930 O947 1.260 . S
Eu931 C930 2.835 . S
Eu931 O943 2.355 . S
Eu931 O945 2.374 1_554 S
Eu931 O946 2.473 . S
Eu931 O947 2.480 . S
Eu931 O948 2.430 . S
Eu931 O949 2.670 1_554 S
Eu931 O950 2.394 . S
C932 C930 1.500 . S
C932 C933 1.377 . S
C932 C937 1.377 . S
C933 C932 1.377 . S
C933 C934 1.395 . S
C933 H956 0.931 . S
C934 C933 1.395 . S
C934 C935 1.383 . S
C934 H957 0.931 . S
C935 C934 1.383 . S
C935 C936 1.394 . S
C936 C935 1.394 . S
C936 C937 1.378 . S
C936 H958 0.931 . S
C937 C932 1.377 . S
C937 C936 1.378 . S
C937 H959 0.931 . S
C938 O948 1.259 1_556 S
C938 O949 1.270 . S
C939 O950 1.251 . S
C939 O951 1.251 . S
O940 C920 1.257 . S
O940 Eu921 2.473 . S
O941 C920 1.260 . S
O941 Eu921 2.480 . S
O942 Eu921 2.430 . S
O942 C928 1.259 1_556 S
O943 Eu921 2.670 1_554 S
O943 C928 1.270 . S
O943 Eu931 2.355 . S
O944 Eu921 2.394 . S
O944 C929 1.251 . S
O945 C929 1.251 . S
O945 Eu931 2.374 1_556 S
O946 C930 1.257 . S
O946 Eu931 2.473 . S
O947 C930 1.260 . S
O947 Eu931 2.480 . S
O948 Eu931 2.430 . S
O948 C938 1.259 1_554 S
O949 Eu921 2.355 . S
O949 Eu931 2.670 1_556 S
O949 C938 1.270 . S
O950 Eu931 2.394 . S
O950 C939 1.251 . S
O951 Eu921 2.374 1_554 S
O951 C939 1.251 . S
H952 C923 0.931 . S
H953 C924 0.931 . S
H954 C926 0.931 . S
H955 C927 0.931 . S
H956 C933 0.931 . S
H957 C934 0.931 . S
H958 C936 0.931 . S
H959 C937 0.931 . S
C960 Eu961 2.835 . S
C960 C962 1.500 . S
C960 O980 1.257 . S
C960 O981 1.260 . S
Eu961 C960 2.835 . S
Eu961 O980 2.473 . S
Eu961 O981 2.480 . S
Eu961 O982 2.430 . S
Eu961 O983 2.670 . S
Eu961 O984 2.394 . S
Eu961 O989 2.355 . S
Eu961 O991 2.374 . S
C962 C960 1.500 . S
C962 C963 1.377 . S
C962 C967 1.377 . S
C963 C962 1.377 . S
C963 C964 1.395 . S
C963 H992 0.931 . S
C964 C963 1.395 . S
C964 C965 1.383 1_556 S
C964 H993 0.931 . S
C965 C964 1.383 1_554 S
C965 C966 1.394 1_554 S
C966 C965 1.394 1_556 S
C966 C967 1.378 . S
C966 H994 0.931 1_556 S
C967 C962 1.377 . S
C967 C966 1.378 . S
C967 H995 0.931 . S
C968 O982 1.259 . S
C968 O983 1.270 . S
C969 O984 1.251 . S
C969 O985 1.251 . S
C970 Eu971 2.835 . S
C970 C972 1.500 . S
C970 O986 1.257 . S
C970 O987 1.260 . S
Eu971 C970 2.835 . S
Eu971 O983 2.355 . S
Eu971 O985 2.374 . S
Eu971 O986 2.473 . S
Eu971 O987 2.480 . S
Eu971 O988 2.430 . S
Eu971 O989 2.670 . S
Eu971 O990 2.394 . S
C972 C970 1.500 . S
C972 C973 1.377 . S
C972 C977 1.377 . S
C973 C972 1.377 . S
C973 C974 1.395 1_545 S
C973 H996 0.931 1_545 S
C974 C973 1.395 1_565 S
C974 C975 1.383 1_565 S
C974 H997 0.931 . S
C975 C974 1.383 1_545 S
C975 C976 1.394 . S
C976 C975 1.394 . S
C976 C977 1.378 . S
C976 H998 0.931 . S
C977 C972 1.377 . S
C977 C976 1.378 . S
C977 H999 0.931 . S
C978 O988 1.259 . S
C978 O989 1.270 . S
C979 O990 1.251 . S
C979 O991 1.251 . S
O980 C960 1.257 . S
O980 Eu961 2.473 . S
O981 C960 1.260 . S
O981 Eu961 2.480 . S
O982 Eu961 2.430 . S
O982 C968 1.259 . S
O983 Eu961 2.670 . S
O983 C968 1.270 . S
O983 Eu971 2.355 . S
O984 Eu961 2.394 . S
O984 C969 1.251 . S
O985 C969 1.251 . S
O985 Eu971 2.374 . S
O986 C970 1.257 . S
O986 Eu971 2.473 . S
O987 C970 1.260 . S
O987 Eu971 2.480 . S
O988 Eu971 2.430 . S
O988 C978 1.259 . S
O989 Eu961 2.355 . S
O989 Eu971 2.670 . S
O989 C978 1.270 . S
O990 Eu971 2.394 . S
O990 C979 1.251 . S
O991 Eu961 2.374 . S
O991 C979 1.251 . S
H992 C963 0.931 . S
H993 C964 0.931 . S
H994 C966 0.931 1_554 S
H995 C967 0.931 . S
H996 C973 0.931 1_565 S
H997 C974 0.931 . S
H998 C976 0.931 . S
H999 C977 0.931 . S
C1000 Eu1001 2.835 . S
C1000 C1002 1.500 . S
C1000 O1020 1.257 . S
C1000 O1021 1.260 . S
Eu1001 C1000 2.835 . S
Eu1001 O1020 2.473 . S
Eu1001 O1021 2.480 . S
Eu1001 O1022 2.430 . S
Eu1001 O1023 2.670 . S
Eu1001 O1024 2.394 . S
Eu1001 O1029 2.355 . S
Eu1001 O1031 2.374 . S
C1002 C1000 1.500 . S
C1002 C1003 1.377 . S
C1002 C1007 1.377 . S
C1003 C1002 1.377 . S
C1003 C1004 1.395 . S
C1003 H1032 0.931 . S
C1004 C1003 1.395 . S
C1004 C1005 1.383 . S
C1004 H1033 0.931 . S
C1005 C1004 1.383 . S
C1005 C1006 1.394 . S
C1006 C1005 1.394 . S
C1006 C1007 1.378 . S
C1006 H1034 0.931 . S
C1007 C1002 1.377 . S
C1007 C1006 1.378 . S
C1007 H1035 0.931 . S
C1008 O1022 1.259 . S
C1008 O1023 1.270 . S
C1009 O1024 1.251 . S
C1009 O1025 1.251 . S
C1010 Eu1011 2.835 . S
C1010 C1012 1.500 . S
C1010 O1026 1.257 . S
C1010 O1027 1.260 . S
Eu1011 C1010 2.835 . S
Eu1011 O1023 2.355 . S
Eu1011 O1025 2.374 . S
Eu1011 O1026 2.473 . S
Eu1011 O1027 2.480 . S
Eu1011 O1028 2.430 . S
Eu1011 O1029 2.670 . S
Eu1011 O1030 2.394 . S
C1012 C1010 1.500 . S
C1012 C1013 1.377 . S
C1012 C1017 1.377 . S
C1013 C1012 1.377 . S
C1013 C1014 1.395 . S
C1013 H1036 0.931 . S
C1014 C1013 1.395 . S
C1014 C1015 1.383 . S
C1014 H1037 0.931 . S
C1015 C1014 1.383 . S
C1015 C1016 1.394 . S
C1016 C1015 1.394 . S
C1016 C1017 1.378 . S
C1016 H1038 0.931 . S
C1017 C1012 1.377 . S
C1017 C1016 1.378 . S
C1017 H1039 0.931 . S
C1018 O1028 1.259 . S
C1018 O1029 1.270 . S
C1019 O1030 1.251 . S
C1019 O1031 1.251 . S
O1020 C1000 1.257 . S
O1020 Eu1001 2.473 . S
O1021 C1000 1.260 . S
O1021 Eu1001 2.480 . S
O1022 Eu1001 2.430 . S
O1022 C1008 1.259 . S
O1023 Eu1001 2.670 . S
O1023 C1008 1.270 . S
O1023 Eu1011 2.355 . S
O1024 Eu1001 2.394 . S
O1024 C1009 1.251 . S
O1025 C1009 1.251 . S
O1025 Eu1011 2.374 . S
O1026 C1010 1.257 . S
O1026 Eu1011 2.473 . S
O1027 C1010 1.260 . S
O1027 Eu1011 2.480 . S
O1028 Eu1011 2.430 . S
O1028 C1018 1.259 . S
O1029 Eu1001 2.355 . S
O1029 Eu1011 2.670 . S
O1029 C1018 1.270 . S
O1030 Eu1011 2.394 . S
O1030 C1019 1.251 . S
O1031 Eu1001 2.374 . S
O1031 C1019 1.251 . S
H1032 C1003 0.931 . S
H1033 C1004 0.931 . S
H1034 C1006 0.931 . S
H1035 C1007 0.931 . S
H1036 C1013 0.931 . S
H1037 C1014 0.931 . S
H1038 C1016 0.931 . S
H1039 C1017 0.931 . S
C1040 Eu1041 2.835 . S
C1040 C1042 1.500 . S
C1040 O1060 1.257 . S
C1040 O1061 1.260 . S
Eu1041 C1040 2.835 . S
Eu1041 O1060 2.473 . S
Eu1041 O1061 2.480 . S
Eu1041 O1062 2.430 . S
Eu1041 O1063 2.670 . S
Eu1041 O1064 2.394 . S
Eu1041 O1069 2.355 . S
Eu1041 O1071 2.374 . S
C1042 C1040 1.500 . S
C1042 C1043 1.377 . S
C1042 C1047 1.377 . S
C1043 C1042 1.377 . S
C1043 C1044 1.395 . S
C1043 H1072 0.931 . S
C1044 C1043 1.395 . S
C1044 C1045 1.383 . S
C1044 H1073 0.931 . S
C1045 C1044 1.383 . S
C1045 C1046 1.394 . S
C1046 C1045 1.394 . S
C1046 C1047 1.378 . S
C1046 H1074 0.931 . S
C1047 C1042 1.377 . S
C1047 C1046 1.378 . S
C1047 H1075 0.931 . S
C1048 O1062 1.259 . S
C1048 O1063 1.270 . S
C1049 O1064 1.251 . S
C1049 O1065 1.251 . S
C1050 Eu1051 2.835 . S
C1050 C1052 1.500 . S
C1050 O1066 1.257 . S
C1050 O1067 1.260 . S
Eu1051 C1050 2.835 . S
Eu1051 O1063 2.355 . S
Eu1051 O1065 2.374 . S
Eu1051 O1066 2.473 . S
Eu1051 O1067 2.480 . S
Eu1051 O1068 2.430 . S
Eu1051 O1069 2.670 . S
Eu1051 O1070 2.394 . S
C1052 C1050 1.500 . S
C1052 C1053 1.377 . S
C1052 C1057 1.377 . S
C1053 C1052 1.377 . S
C1053 C1054 1.395 1_565 S
C1053 H1076 0.931 1_565 S
C1054 C1053 1.395 1_545 S
C1054 C1055 1.383 1_544 S
C1054 H1077 0.931 1_554 S
C1055 C1054 1.383 1_566 S
C1055 C1056 1.394 . S
C1056 C1055 1.394 . S
C1056 C1057 1.378 1_556 S
C1056 H1078 0.931 . S
C1057 C1052 1.377 . S
C1057 C1056 1.378 1_554 S
C1057 H1079 0.931 . S
C1058 O1068 1.259 . S
C1058 O1069 1.270 . S
C1059 O1070 1.251 . S
C1059 O1071 1.251 . S
O1060 C1040 1.257 . S
O1060 Eu1041 2.473 . S
O1061 C1040 1.260 . S
O1061 Eu1041 2.480 . S
O1062 Eu1041 2.430 . S
O1062 C1048 1.259 . S
O1063 Eu1041 2.670 . S
O1063 C1048 1.270 . S
O1063 Eu1051 2.355 . S
O1064 Eu1041 2.394 . S
O1064 C1049 1.251 . S
O1065 C1049 1.251 . S
O1065 Eu1051 2.374 . S
O1066 C1050 1.257 . S
O1066 Eu1051 2.473 . S
O1067 C1050 1.260 . S
O1067 Eu1051 2.480 . S
O1068 Eu1051 2.430 . S
O1068 C1058 1.259 . S
O1069 Eu1041 2.355 . S
O1069 Eu1051 2.670 . S
O1069 C1058 1.270 . S
O1070 Eu1051 2.394 . S
O1070 C1059 1.251 . S
O1071 Eu1041 2.374 . S
O1071 C1059 1.251 . S
H1072 C1043 0.931 . S
H1073 C1044 0.931 . S
H1074 C1046 0.931 . S
H1075 C1047 0.931 . S
H1076 C1053 0.931 1_545 S
H1077 C1054 0.931 1_556 S
H1078 C1056 0.931 . S
H1079 C1057 0.931 . S
C1080 Eu1081 2.835 . S
C1080 C1082 1.500 . S
C1080 O1100 1.257 . S
C1080 O1101 1.260 . S
Eu1081 C1080 2.835 . S
Eu1081 O1100 2.473 . S
Eu1081 O1101 2.480 . S
Eu1081 O1102 2.430 . S
Eu1081 O1103 2.670 1_554 S
Eu1081 O1104 2.394 . S
Eu1081 O1109 2.355 . S
Eu1081 O1111 2.374 1_554 S
C1082 C1080 1.500 . S
C1082 C1083 1.377 . S
C1082 C1087 1.377 . S
C1083 C1082 1.377 . S
C1083 C1084 1.395 . S
C1083 H1112 0.931 . S
C1084 C1083 1.395 . S
C1084 C1085 1.383 . S
C1084 H1113 0.931 . S
C1085 C1084 1.383 . S
C1085 C1086 1.394 . S
C1086 C1085 1.394 . S
C1086 C1087 1.378 . S
C1086 H1114 0.931 . S
C1087 C1082 1.377 . S
C1087 C1086 1.378 . S
C1087 H1115 0.931 . S
C1088 O1102 1.259 1_556 S
C1088 O1103 1.270 . S
C1089 O1104 1.251 . S
C1089 O1105 1.251 . S
C1090 Eu1091 2.835 . S
C1090 C1092 1.500 . S
C1090 O1106 1.257 . S
C1090 O1107 1.260 . S
Eu1091 C1090 2.835 . S
Eu1091 O1103 2.355 . S
Eu1091 O1105 2.374 1_556 S
Eu1091 O1106 2.473 . S
Eu1091 O1107 2.480 . S
Eu1091 O1108 2.430 . S
Eu1091 O1109 2.670 1_556 S
Eu1091 O1110 2.394 . S
C1092 C1090 1.500 . S
C1092 C1093 1.377 . S
C1092 C1097 1.377 . S
C1093 C1092 1.377 . S
C1093 C1094 1.395 . S
C1093 H1116 0.931 . S
C1094 C1093 1.395 . S
C1094 C1095 1.383 . S
C1094 H1117 0.931 . S
C1095 C1094 1.383 . S
C1095 C1096 1.394 . S
C1096 C1095 1.394 . S
C1096 C1097 1.378 . S
C1096 H1118 0.931 . S
C1097 C1092 1.377 . S
C1097 C1096 1.378 . S
C1097 H1119 0.931 . S
C1098 O1108 1.259 1_554 S
C1098 O1109 1.270 . S
C1099 O1110 1.251 . S
C1099 O1111 1.251 . S
O1100 C1080 1.257 . S
O1100 Eu1081 2.473 . S
O1101 C1080 1.260 . S
O1101 Eu1081 2.480 . S
O1102 Eu1081 2.430 . S
O1102 C1088 1.259 1_554 S
O1103 Eu1081 2.670 1_556 S
O1103 C1088 1.270 . S
O1103 Eu1091 2.355 . S
O1104 Eu1081 2.394 . S
O1104 C1089 1.251 . S
O1105 C1089 1.251 . S
O1105 Eu1091 2.374 1_554 S
O1106 C1090 1.257 . S
O1106 Eu1091 2.473 . S
O1107 C1090 1.260 . S
O1107 Eu1091 2.480 . S
O1108 Eu1091 2.430 . S
O1108 C1098 1.259 1_556 S
O1109 Eu1081 2.355 . S
O1109 Eu1091 2.670 1_554 S
O1109 C1098 1.270 . S
O1110 Eu1091 2.394 . S
O1110 C1099 1.251 . S
O1111 Eu1081 2.374 1_556 S
O1111 C1099 1.251 . S
H1112 C1083 0.931 . S
H1113 C1084 0.931 . S
H1114 C1086 0.931 . S
H1115 C1087 0.931 . S
H1116 C1093 0.931 . S
H1117 C1094 0.931 . S
H1118 C1096 0.931 . S
H1119 C1097 0.931 . S
C1120 Eu1121 2.835 . S
C1120 C1122 1.500 1_554 S
C1120 O1140 1.257 . S
C1120 O1141 1.260 . S
Eu1121 C1120 2.835 . S
Eu1121 O1140 2.473 . S
Eu1121 O1141 2.480 . S
Eu1121 O1142 2.430 . S
Eu1121 O1143 2.670 . S
Eu1121 O1144 2.394 . S
Eu1121 O1149 2.355 . S
Eu1121 O1151 2.374 . S
C1122 C1120 1.500 1_556 S
C1122 C1123 1.377 . S
C1122 C1127 1.377 . S
C1123 C1122 1.377 . S
C1123 C1124 1.395 . S
C1123 H1152 0.931 . S
C1124 C1123 1.395 . S
C1124 C1125 1.383 . S
C1124 H1153 0.931 . S
C1125 C1124 1.383 . S
C1125 C1126 1.394 . S
C1126 C1125 1.394 . S
C1126 C1127 1.378 . S
C1126 H1154 0.931 . S
C1127 C1122 1.377 . S
C1127 C1126 1.378 . S
C1127 H1155 0.931 . S
C1128 O1142 1.259 . S
C1128 O1143 1.270 . S
C1129 O1144 1.251 . S
C1129 O1145 1.251 . S
C1130 Eu1131 2.835 . S
C1130 C1132 1.500 . S
C1130 O1146 1.257 . S
C1130 O1147 1.260 . S
Eu1131 C1130 2.835 . S
Eu1131 O1143 2.355 . S
Eu1131 O1145 2.374 . S
Eu1131 O1146 2.473 . S
Eu1131 O1147 2.480 . S
Eu1131 O1148 2.430 . S
Eu1131 O1149 2.670 . S
Eu1131 O1150 2.394 . S
C1132 C1130 1.500 . S
C1132 C1133 1.377 . S
C1132 C1137 1.377 . S
C1133 C1132 1.377 . S
C1133 C1134 1.395 1_565 S
C1133 H1156 0.931 1_565 S
C1134 C1133 1.395 1_545 S
C1134 C1135 1.383 1_545 S
C1134 H1157 0.931 . S
C1135 C1134 1.383 1_565 S
C1135 C1136 1.394 . S
C1136 C1135 1.394 . S
C1136 C1137 1.378 . S
C1136 H1158 0.931 . S
C1137 C1132 1.377 . S
C1137 C1136 1.378 . S
C1137 H1159 0.931 . S
C1138 O1148 1.259 . S
C1138 O1149 1.270 . S
C1139 O1150 1.251 . S
C1139 O1151 1.251 . S
O1140 C1120 1.257 . S
O1140 Eu1121 2.473 . S
O1141 C1120 1.260 . S
O1141 Eu1121 2.480 . S
O1142 Eu1121 2.430 . S
O1142 C1128 1.259 . S
O1143 Eu1121 2.670 . S
O1143 C1128 1.270 . S
O1143 Eu1131 2.355 . S
O1144 Eu1121 2.394 . S
O1144 C1129 1.251 . S
O1145 C1129 1.251 . S
O1145 Eu1131 2.374 . S
O1146 C1130 1.257 . S
O1146 Eu1131 2.473 . S
O1147 C1130 1.260 . S
O1147 Eu1131 2.480 . S
O1148 Eu1131 2.430 . S
O1148 C1138 1.259 . S
O1149 Eu1121 2.355 . S
O1149 Eu1131 2.670 . S
O1149 C1138 1.270 . S
O1150 Eu1131 2.394 . S
O1150 C1139 1.251 . S
O1151 Eu1121 2.374 . S
O1151 C1139 1.251 . S
H1152 C1123 0.931 . S
H1153 C1124 0.931 . S
H1154 C1126 0.931 . S
H1155 C1127 0.931 . S
H1156 C1133 0.931 1_545 S
H1157 C1134 0.931 . S
H1158 C1136 0.931 . S
H1159 C1137 0.931 . S
C1160 Eu1161 2.835 . S
C1160 C1162 1.500 . S
C1160 O1180 1.257 . S
C1160 O1181 1.260 . S
Eu1161 C1160 2.835 . S
Eu1161 O1180 2.473 . S
Eu1161 O1181 2.480 . S
Eu1161 O1182 2.430 . S
Eu1161 O1183 2.670 . S
Eu1161 O1184 2.394 . S
Eu1161 O1189 2.355 . S
Eu1161 O1191 2.374 . S
C1162 C1160 1.500 . S
C1162 C1163 1.377 . S
C1162 C1167 1.377 . S
C1163 C1162 1.377 . S
C1163 C1164 1.395 . S
C1163 H1192 0.931 . S
C1164 C1163 1.395 . S
C1164 C1165 1.383 . S
C1164 H1193 0.931 . S
C1165 C1164 1.383 . S
C1165 C1166 1.394 . S
C1166 C1165 1.394 . S
C1166 C1167 1.378 . S
C1166 H1194 0.931 . S
C1167 C1162 1.377 . S
C1167 C1166 1.378 . S
C1167 H1195 0.931 . S
C1168 O1182 1.259 . S
C1168 O1183 1.270 . S
C1169 O1184 1.251 . S
C1169 O1185 1.251 . S
C1170 Eu1171 2.835 1_554 S
C1170 C1172 1.500 . S
C1170 O1186 1.257 . S
C1170 O1187 1.260 . S
Eu1171 C1170 2.835 1_556 S
Eu1171 O1183 2.355 . S
Eu1171 O1185 2.374 . S
Eu1171 O1186 2.473 1_556 S
Eu1171 O1187 2.480 1_556 S
Eu1171 O1188 2.430 . S
Eu1171 O1189 2.670 . S
Eu1171 O1190 2.394 . S
C1172 C1170 1.500 . S
C1172 C1173 1.377 . S
C1172 C1177 1.377 . S
C1173 C1172 1.377 . S
C1173 C1174 1.395 . S
C1173 H1196 0.931 . S
C1174 C1173 1.395 . S
C1174 C1175 1.383 . S
C1174 H1197 0.931 . S
C1175 C1174 1.383 . S
C1175 C1176 1.394 . S
C1176 C1175 1.394 . S
C1176 C1177 1.378 . S
C1176 H1198 0.931 . S
C1177 C1172 1.377 . S
C1177 C1176 1.378 . S
C1177 H1199 0.931 . S
C1178 O1188 1.259 . S
C1178 O1189 1.270 . S
C1179 O1190 1.251 . S
C1179 O1191 1.251 . S
O1180 C1160 1.257 . S
O1180 Eu1161 2.473 . S
O1181 C1160 1.260 . S
O1181 Eu1161 2.480 . S
O1182 Eu1161 2.430 . S
O1182 C1168 1.259 . S
O1183 Eu1161 2.670 . S
O1183 C1168 1.270 . S
O1183 Eu1171 2.355 . S
O1184 Eu1161 2.394 . S
O1184 C1169 1.251 . S
O1185 C1169 1.251 . S
O1185 Eu1171 2.374 . S
O1186 C1170 1.257 . S
O1186 Eu1171 2.473 1_554 S
O1187 C1170 1.260 . S
O1187 Eu1171 2.480 1_554 S
O1188 Eu1171 2.430 . S
O1188 C1178 1.259 . S
O1189 Eu1161 2.355 . S
O1189 Eu1171 2.670 . S
O1189 C1178 1.270 . S
O1190 Eu1171 2.394 . S
O1190 C1179 1.251 . S
O1191 Eu1161 2.374 . S
O1191 C1179 1.251 . S
H1192 C1163 0.931 . S
H1193 C1164 0.931 . S
H1194 C1166 0.931 . S
H1195 C1167 0.931 . S
H1196 C1173 0.931 . S
H1197 C1174 0.931 . S
H1198 C1176 0.931 . S
H1199 C1177 0.931 . S
C1200 Eu1201 2.835 . S
C1200 C1202 1.500 . S
C1200 O1220 1.257 . S
C1200 O1221 1.260 . S
Eu1201 C1200 2.835 . S
Eu1201 O1220 2.473 . S
Eu1201 O1221 2.480 . S
Eu1201 O1222 2.430 . S
Eu1201 O1223 2.670 . S
Eu1201 O1224 2.394 . S
Eu1201 O1229 2.355 . S
Eu1201 O1231 2.374 . S
C1202 C1200 1.500 . S
C1202 C1203 1.377 . S
C1202 C1207 1.377 . S
C1203 C1202 1.377 . S
C1203 C1204 1.395 . S
C1203 H1232 0.931 . S
C1204 C1203 1.395 . S
C1204 C1205 1.383 . S
C1204 H1233 0.931 . S
C1205 C1204 1.383 . S
C1205 C1206 1.394 . S
C1206 C1205 1.394 . S
C1206 C1207 1.378 . S
C1206 H1234 0.931 . S
C1207 C1202 1.377 . S
C1207 C1206 1.378 . S
C1207 H1235 0.931 . S
C1208 O1222 1.259 . S
C1208 O1223 1.270 . S
C1209 O1224 1.251 . S
C1209 O1225 1.251 . S
C1210 Eu1211 2.835 . S
C1210 C1212 1.500 . S
C1210 O1226 1.257 . S
C1210 O1227 1.260 . S
Eu1211 C1210 2.835 . S
Eu1211 O1223 2.355 . S
Eu1211 O1225 2.374 . S
Eu1211 O1226 2.473 . S
Eu1211 O1227 2.480 . S
Eu1211 O1228 2.430 . S
Eu1211 O1229 2.670 . S
Eu1211 O1230 2.394 . S
C1212 C1210 1.500 . S
C1212 C1213 1.377 . S
C1212 C1217 1.377 . S
C1213 C1212 1.377 . S
C1213 C1214 1.395 1_545 S
C1213 H1236 0.931 1_545 S
C1214 C1213 1.395 1_565 S
C1214 C1215 1.383 1_565 S
C1214 H1237 0.931 . S
C1215 C1214 1.383 1_545 S
C1215 C1216 1.394 . S
C1216 C1215 1.394 . S
C1216 C1217 1.378 . S
C1216 H1238 0.931 . S
C1217 C1212 1.377 . S
C1217 C1216 1.378 . S
C1217 H1239 0.931 . S
C1218 O1228 1.259 . S
C1218 O1229 1.270 . S
C1219 O1230 1.251 . S
C1219 O1231 1.251 . S
O1220 C1200 1.257 . S
O1220 Eu1201 2.473 . S
O1221 C1200 1.260 . S
O1221 Eu1201 2.480 . S
O1222 Eu1201 2.430 . S
O1222 C1208 1.259 . S
O1223 Eu1201 2.670 . S
O1223 C1208 1.270 . S
O1223 Eu1211 2.355 . S
O1224 Eu1201 2.394 . S
O1224 C1209 1.251 . S
O1225 C1209 1.251 . S
O1225 Eu1211 2.374 . S
O1226 C1210 1.257 . S
O1226 Eu1211 2.473 . S
O1227 C1210 1.260 . S
O1227 Eu1211 2.480 . S
O1228 Eu1211 2.430 . S
O1228 C1218 1.259 . S
O1229 Eu1201 2.355 . S
O1229 Eu1211 2.670 . S
O1229 C1218 1.270 . S
O1230 Eu1211 2.394 . S
O1230 C1219 1.251 . S
O1231 Eu1201 2.374 . S
O1231 C1219 1.251 . S
H1232 C1203 0.931 . S
H1233 C1204 0.931 . S
H1234 C1206 0.931 . S
H1235 C1207 0.931 . S
H1236 C1213 0.931 1_565 S
H1237 C1214 0.931 . S
H1238 C1216 0.931 . S
H1239 C1217 0.931 . S
C1240 Eu1241 2.835 . S
C1240 C1242 1.500 . S
C1240 O1260 1.257 . S
C1240 O1261 1.260 . S
Eu1241 C1240 2.835 . S
Eu1241 O1260 2.473 . S
Eu1241 O1261 2.480 . S
Eu1241 O1262 2.430 . S
Eu1241 O1263 2.670 . S
Eu1241 O1264 2.394 . S
Eu1241 O1269 2.355 . S
Eu1241 O1271 2.374 . S
C1242 C1240 1.500 . S
C1242 C1243 1.377 . S
C1242 C1247 1.377 . S
C1243 C1242 1.377 . S
C1243 C1244 1.395 . S
C1243 H1272 0.931 . S
C1244 C1243 1.395 . S
C1244 C1245 1.383 . S
C1244 H1273 0.931 . S
C1245 C1244 1.383 . S
C1245 C1246 1.394 . S
C1246 C1245 1.394 . S
C1246 C1247 1.378 . S
C1246 H1274 0.931 . S
C1247 C1242 1.377 . S
C1247 C1246 1.378 . S
C1247 H1275 0.931 . S
C1248 O1262 1.259 . S
C1248 O1263 1.270 . S
C1249 O1264 1.251 . S
C1249 O1265 1.251 . S
C1250 Eu1251 2.835 . S
C1250 C1252 1.500 . S
C1250 O1266 1.257 . S
C1250 O1267 1.260 . S
Eu1251 C1250 2.835 . S
Eu1251 O1263 2.355 . S
Eu1251 O1265 2.374 . S
Eu1251 O1266 2.473 . S
Eu1251 O1267 2.480 . S
Eu1251 O1268 2.430 . S
Eu1251 O1269 2.670 . S
Eu1251 O1270 2.394 . S
C1252 C1250 1.500 . S
C1252 C1253 1.377 . S
C1252 C1257 1.377 . S
C1253 C1252 1.377 . S
C1253 C1254 1.395 . S
C1253 H1276 0.931 . S
C1254 C1253 1.395 . S
C1254 C1255 1.383 . S
C1254 H1277 0.931 . S
C1255 C1254 1.383 . S
C1255 C1256 1.394 . S
C1256 C1255 1.394 . S
C1256 C1257 1.378 . S
C1256 H1278 0.931 . S
C1257 C1252 1.377 . S
C1257 C1256 1.378 . S
C1257 H1279 0.931 . S
C1258 O1268 1.259 . S
C1258 O1269 1.270 . S
C1259 O1270 1.251 . S
C1259 O1271 1.251 . S
O1260 C1240 1.257 . S
O1260 Eu1241 2.473 . S
O1261 C1240 1.260 . S
O1261 Eu1241 2.480 . S
O1262 Eu1241 2.430 . S
O1262 C1248 1.259 . S
O1263 Eu1241 2.670 . S
O1263 C1248 1.270 . S
O1263 Eu1251 2.355 . S
O1264 Eu1241 2.394 . S
O1264 C1249 1.251 . S
O1265 C1249 1.251 . S
O1265 Eu1251 2.374 . S
O1266 C1250 1.257 . S
O1266 Eu1251 2.473 . S
O1267 C1250 1.260 . S
O1267 Eu1251 2.480 . S
O1268 Eu1251 2.430 . S
O1268 C1258 1.259 . S
O1269 Eu1241 2.355 . S
O1269 Eu1251 2.670 . S
O1269 C1258 1.270 . S
O1270 Eu1251 2.394 . S
O1270 C1259 1.251 . S
O1271 Eu1241 2.374 . S
O1271 C1259 1.251 . S
H1272 C1243 0.931 . S
H1273 C1244 0.931 . S
H1274 C1246 0.931 . S
H1275 C1247 0.931 . S
H1276 C1253 0.931 . S
H1277 C1254 0.931 . S
H1278 C1256 0.931 . S
H1279 C1257 0.931 . S
C1280 C1281 1.369 . S
C1280 C1282 1.419 . S
C1280 H1284 0.930 . S
C1281 C1280 1.369 . S
C1281 C1290 1.429 . S
C1282 C1280 1.419 . S
C1282 C1283 1.363 . S
C1282 H1285 0.929 . S
C1283 C1282 1.363 . S
C1283 C1289 1.428 . S
H1284 C1280 0.930 . S
H1285 C1282 0.929 . S
S1286 N1287 1.613 . S
S1286 N1288 1.610 . S
N1287 S1286 1.613 . S
N1287 C1290 1.350 . S
N1288 S1286 1.610 . S
N1288 C1289 1.351 . S
C1289 C1283 1.428 . S
C1289 N1288 1.351 . S
C1289 C1290 1.434 . S
C1290 C1281 1.429 . S
C1290 N1287 1.350 . S
C1290 C1289 1.434 . S
C1291 C1292 1.369 . S
C1291 C1293 1.419 . S
C1291 H1295 0.930 . S
C1292 C1291 1.369 . S
C1292 C1301 1.429 . S
C1293 C1291 1.419 . S
C1293 C1294 1.363 . S
C1293 H1296 0.929 . S
C1294 C1293 1.363 . S
C1294 C1300 1.428 . S
H1295 C1291 0.930 . S
H1296 C1293 0.929 . S
S1297 N1298 1.613 . S
S1297 N1299 1.610 . S
N1298 S1297 1.613 . S
N1298 C1301 1.350 . S
N1299 S1297 1.610 . S
N1299 C1300 1.351 . S
C1300 C1294 1.428 . S
C1300 N1299 1.351 . S
C1300 C1301 1.434 . S
C1301 C1292 1.429 . S
C1301 N1298 1.350 . S
C1301 C1300 1.434 . S
C1302 C1303 1.369 . S
C1302 C1304 1.419 . S
C1302 H1306 0.930 1_556 S
C1303 C1302 1.369 . S
C1303 C1312 1.429 . S
C1304 C1302 1.419 . S
C1304 C1305 1.363 . S
C1304 H1307 0.929 1_556 S
C1305 C1304 1.363 . S
C1305 C1311 1.428 . S
H1306 C1302 0.930 1_554 S
H1307 C1304 0.929 1_554 S
S1308 N1309 1.613 . S
S1308 N1310 1.610 . S
N1309 S1308 1.613 . S
N1309 C1312 1.350 . S
N1310 S1308 1.610 . S
N1310 C1311 1.351 . S
C1311 C1305 1.428 . S
C1311 N1310 1.351 . S
C1311 C1312 1.434 . S
C1312 C1303 1.429 . S
C1312 N1309 1.350 . S
C1312 C1311 1.434 . S
C1313 C1314 1.369 . S
C1313 C1315 1.419 . S
C1313 H1317 0.930 . S
C1314 C1313 1.369 . S
C1314 C1323 1.429 . S
C1315 C1313 1.419 . S
C1315 C1316 1.363 . S
C1315 H1318 0.929 . S
C1316 C1315 1.363 . S
C1316 C1322 1.428 . S
H1317 C1313 0.930 . S
H1318 C1315 0.929 . S
S1319 N1320 1.613 . S
S1319 N1321 1.610 . S
N1320 S1319 1.613 . S
N1320 C1323 1.350 . S
N1321 S1319 1.610 . S
N1321 C1322 1.351 . S
C1322 C1316 1.428 . S
C1322 N1321 1.351 . S
C1322 C1323 1.434 . S
C1323 C1314 1.429 . S
C1323 N1320 1.350 . S
C1323 C1322 1.434 . S
C1324 C1325 1.369 . S
C1324 C1326 1.419 . S
C1324 H1328 0.930 . S
C1325 C1324 1.369 . S
C1325 C1334 1.429 . S
C1326 C1324 1.419 . S
C1326 C1327 1.363 . S
C1326 H1329 0.929 . S
C1327 C1326 1.363 . S
C1327 C1333 1.428 . S
H1328 C1324 0.930 . S
H1329 C1326 0.929 . S
S1330 N1331 1.613 . S
S1330 N1332 1.610 . S
N1331 S1330 1.613 . S
N1331 C1334 1.350 1_554 S
N1332 S1330 1.610 . S
N1332 C1333 1.351 1_554 S
C1333 C1327 1.428 . S
C1333 N1332 1.351 1_556 S
C1333 C1334 1.434 . S
C1334 C1325 1.429 . S
C1334 N1331 1.350 1_556 S
C1334 C1333 1.434 . S
C1335 C1336 1.369 . S
C1335 C1337 1.419 . S
C1335 H1339 0.930 . S
C1336 C1335 1.369 . S
C1336 C1345 1.429 . S
C1337 C1335 1.419 . S
C1337 C1338 1.363 . S
C1337 H1340 0.929 . S
C1338 C1337 1.363 . S
C1338 C1344 1.428 . S
H1339 C1335 0.930 . S
H1340 C1337 0.929 . S
S1341 N1342 1.613 . S
S1341 N1343 1.610 . S
N1342 S1341 1.613 . S
N1342 C1345 1.350 . S
N1343 S1341 1.610 . S
N1343 C1344 1.351 . S
C1344 C1338 1.428 . S
C1344 N1343 1.351 . S
C1344 C1345 1.434 . S
C1345 C1336 1.429 . S
C1345 N1342 1.350 . S
C1345 C1344 1.434 . S
C1346 C1347 1.369 . S
C1346 C1348 1.419 . S
C1346 H1350 0.930 . S
C1347 C1346 1.369 . S
C1347 C1356 1.429 . S
C1348 C1346 1.419 . S
C1348 C1349 1.363 . S
C1348 H1351 0.929 . S
C1349 C1348 1.363 . S
C1349 C1355 1.428 . S
H1350 C1346 0.930 . S
H1351 C1348 0.929 . S
S1352 N1353 1.613 . S
S1352 N1354 1.610 . S
N1353 S1352 1.613 . S
N1353 C1356 1.350 . S
N1354 S1352 1.610 . S
N1354 C1355 1.351 . S
C1355 C1349 1.428 . S
C1355 N1354 1.351 . S
C1355 C1356 1.434 . S
C1356 C1347 1.429 . S
C1356 N1353 1.350 . S
C1356 C1355 1.434 . S
C1357 C1358 1.369 . S
C1357 C1359 1.419 . S
C1357 H1361 0.930 . S
C1358 C1357 1.369 . S
C1358 C1367 1.429 . S
C1359 C1357 1.419 . S
C1359 C1360 1.363 . S
C1359 H1362 0.929 . S
C1360 C1359 1.363 . S
C1360 C1366 1.428 . S
H1361 C1357 0.930 . S
H1362 C1359 0.929 . S
S1363 N1364 1.613 . S
S1363 N1365 1.610 . S
N1364 S1363 1.613 . S
N1364 C1367 1.350 . S
N1365 S1363 1.610 . S
N1365 C1366 1.351 . S
C1366 C1360 1.428 . S
C1366 N1365 1.351 . S
C1366 C1367 1.434 . S
C1367 C1358 1.429 . S
C1367 N1364 1.350 . S
C1367 C1366 1.434 . S
C1368 C1369 1.369 . S
C1368 C1370 1.419 1_545 S
C1368 H1372 0.930 . S
C1369 C1368 1.369 . S
C1369 C1378 1.429 . S
C1370 C1368 1.419 1_565 S
C1370 C1371 1.363 . S
C1370 H1373 0.929 . S
C1371 C1370 1.363 . S
C1371 C1377 1.428 . S
H1372 C1368 0.930 . S
H1373 C1370 0.929 . S
S1374 N1375 1.613 1_565 S
S1374 N1376 1.610 . S
N1375 S1374 1.613 1_545 S
N1375 C1378 1.350 1_554 S
N1376 S1374 1.610 . S
N1376 C1377 1.351 1_554 S
C1377 C1371 1.428 . S
C1377 N1376 1.351 1_556 S
C1377 C1378 1.434 1_565 S
C1378 C1369 1.429 . S
C1378 N1375 1.350 1_556 S
C1378 C1377 1.434 1_545 S
C1379 C1380 1.369 . S
C1379 C1381 1.419 . S
C1379 H1383 0.930 . S
C1380 C1379 1.369 . S
C1380 C1389 1.429 . S
C1381 C1379 1.419 . S
C1381 C1382 1.363 . S
C1381 H1384 0.929 . S
C1382 C1381 1.363 . S
C1382 C1388 1.428 . S
H1383 C1379 0.930 . S
H1384 C1381 0.929 . S
S1385 N1386 1.613 . S
S1385 N1387 1.610 . S
N1386 S1385 1.613 . S
N1386 C1389 1.350 . S
N1387 S1385 1.610 . S
N1387 C1388 1.351 . S
C1388 C1382 1.428 . S
C1388 N1387 1.351 . S
C1388 C1389 1.434 . S
C1389 C1380 1.429 . S
C1389 N1386 1.350 . S
C1389 C1388 1.434 . S
C1390 C1391 1.369 . S
C1390 C1392 1.419 1_545 S
C1390 H1394 0.930 . S
C1391 C1390 1.369 . S
C1391 C1400 1.429 . S
C1392 C1390 1.419 1_565 S
C1392 C1393 1.363 . S
C1392 H1395 0.929 . S
C1393 C1392 1.363 . S
C1393 C1399 1.428 . S
H1394 C1390 0.930 . S
H1395 C1392 0.929 . S
S1396 N1397 1.613 1_565 S
S1396 N1398 1.610 . S
N1397 S1396 1.613 1_545 S
N1397 C1400 1.350 . S
N1398 S1396 1.610 . S
N1398 C1399 1.351 . S
C1399 C1393 1.428 . S
C1399 N1398 1.351 . S
C1399 C1400 1.434 1_565 S
C1400 C1391 1.429 . S
C1400 N1397 1.350 . S
C1400 C1399 1.434 1_545 S
C1401 C1402 1.369 . S
C1401 C1403 1.419 . S
C1401 H1405 0.930 . S
C1402 C1401 1.369 . S
C1402 C1411 1.429 . S
C1403 C1401 1.419 . S
C1403 C1404 1.363 . S
C1403 H1406 0.929 . S
C1404 C1403 1.363 . S
C1404 C1410 1.428 . S
H1405 C1401 0.930 . S
H1406 C1403 0.929 . S
S1407 N1408 1.613 . S
S1407 N1409 1.610 . S
N1408 S1407 1.613 . S
N1408 C1411 1.350 . S
N1409 S1407 1.610 . S
N1409 C1410 1.351 . S
C1410 C1404 1.428 . S
C1410 N1409 1.351 . S
C1410 C1411 1.434 . S
C1411 C1402 1.429 . S
C1411 N1408 1.350 . S
C1411 C1410 1.434 . S
C1412 C1413 1.369 . S
C1412 C1414 1.419 1_545 S
C1412 H1416 0.930 . S
C1413 C1412 1.369 . S
C1413 C1422 1.429 . S
C1414 C1412 1.419 1_565 S
C1414 C1415 1.363 . S
C1414 H1417 0.929 . S
C1415 C1414 1.363 . S
C1415 C1421 1.428 . S
H1416 C1412 0.930 . S
H1417 C1414 0.929 . S
S1418 N1419 1.613 . S
S1418 N1420 1.610 1_545 S
N1419 S1418 1.613 . S
N1419 C1422 1.350 . S
N1420 S1418 1.610 1_565 S
N1420 C1421 1.351 . S
C1421 C1415 1.428 . S
C1421 N1420 1.351 . S
C1421 C1422 1.434 1_565 S
C1422 C1413 1.429 . S
C1422 N1419 1.350 . S
C1422 C1421 1.434 1_545 S
C1423 C1424 1.369 . S
C1423 C1425 1.419 . S
C1423 H1427 0.930 . S
C1424 C1423 1.369 . S
C1424 C1433 1.429 . S
C1425 C1423 1.419 . S
C1425 C1426 1.363 . S
C1425 H1428 0.929 . S
C1426 C1425 1.363 . S
C1426 C1432 1.428 . S
H1427 C1423 0.930 . S
H1428 C1425 0.929 . S
S1429 N1430 1.613 . S
S1429 N1431 1.610 . S
N1430 S1429 1.613 . S
N1430 C1433 1.350 . S
N1431 S1429 1.610 . S
N1431 C1432 1.351 . S
C1432 C1426 1.428 . S
C1432 N1431 1.351 . S
C1432 C1433 1.434 . S
C1433 C1424 1.429 . S
C1433 N1430 1.350 . S
C1433 C1432 1.434 . S
C1434 C1435 1.369 . S
C1434 C1436 1.419 1_565 S
C1434 H1438 0.930 1_556 S
C1435 C1434 1.369 . S
C1435 C1444 1.429 . S
C1436 C1434 1.419 1_545 S
C1436 C1437 1.363 . S
C1436 H1439 0.929 1_556 S
C1437 C1436 1.363 . S
C1437 C1443 1.428 . S
H1438 C1434 0.930 1_554 S
H1439 C1436 0.929 1_554 S
S1440 N1441 1.613 . S
S1440 N1442 1.610 1_565 S
N1441 S1440 1.613 . S
N1441 C1444 1.350 . S
N1442 S1440 1.610 1_545 S
N1442 C1443 1.351 . S
C1443 C1437 1.428 . S
C1443 N1442 1.351 . S
C1443 C1444 1.434 1_545 S
C1444 C1435 1.429 . S
C1444 N1441 1.350 . S
C1444 C1443 1.434 1_565 S
C1445 C1446 1.369 . S
C1445 C1447 1.419 . S
C1445 H1449 0.930 . S
C1446 C1445 1.369 . S
C1446 C1455 1.429 . S
C1447 C1445 1.419 . S
C1447 C1448 1.363 . S
C1447 H1450 0.929 . S
C1448 C1447 1.363 . S
C1448 C1454 1.428 . S
H1449 C1445 0.930 . S
H1450 C1447 0.929 . S
S1451 N1452 1.613 . S
S1451 N1453 1.610 . S
N1452 S1451 1.613 . S
N1452 C1455 1.350 . S
N1453 S1451 1.610 . S
N1453 C1454 1.351 . S
C1454 C1448 1.428 . S
C1454 N1453 1.351 . S
C1454 C1455 1.434 . S
C1455 C1446 1.429 . S
C1455 N1452 1.350 . S
C1455 C1454 1.434 . S
C1456 C1457 1.369 . S
C1456 C1458 1.419 . S
C1456 H1460 0.930 . S
C1457 C1456 1.369 . S
C1457 C1466 1.429 . S
C1458 C1456 1.419 . S
C1458 C1459 1.363 . S
C1458 H1461 0.929 . S
C1459 C1458 1.363 . S
C1459 C1465 1.428 . S
H1460 C1456 0.930 . S
H1461 C1458 0.929 . S
S1462 N1463 1.613 . S
S1462 N1464 1.610 . S
N1463 S1462 1.613 . S
N1463 C1466 1.350 . S
N1464 S1462 1.610 . S
N1464 C1465 1.351 . S
C1465 C1459 1.428 . S
C1465 N1464 1.351 . S
C1465 C1466 1.434 . S
C1466 C1457 1.429 . S
C1466 N1463 1.350 . S
C1466 C1465 1.434 . S
C1467 C1468 1.369 . S
C1467 C1469 1.419 . S
C1467 H1471 0.930 . S
C1468 C1467 1.369 . S
C1468 C1477 1.429 . S
C1469 C1467 1.419 . S
C1469 C1470 1.363 . S
C1469 H1472 0.929 . S
C1470 C1469 1.363 . S
C1470 C1476 1.428 . S
H1471 C1467 0.930 . S
H1472 C1469 0.929 . S
S1473 N1474 1.613 . S
S1473 N1475 1.610 . S
N1474 S1473 1.613 . S
N1474 C1477 1.350 . S
N1475 S1473 1.610 . S
N1475 C1476 1.351 . S
C1476 C1470 1.428 . S
C1476 N1475 1.351 . S
C1476 C1477 1.434 . S
C1477 C1468 1.429 . S
C1477 N1474 1.350 . S
C1477 C1476 1.434 . S
C1478 C1479 1.369 . S
C1478 C1480 1.419 . S
C1478 H1482 0.930 . S
C1479 C1478 1.369 . S
C1479 C1488 1.429 . S
C1480 C1478 1.419 . S
C1480 C1481 1.363 . S
C1480 H1483 0.929 . S
C1481 C1480 1.363 . S
C1481 C1487 1.428 . S
H1482 C1478 0.930 . S
H1483 C1480 0.929 . S
S1484 N1485 1.613 . S
S1484 N1486 1.610 . S
N1485 S1484 1.613 . S
N1485 C1488 1.350 . S
N1486 S1484 1.610 . S
N1486 C1487 1.351 . S
C1487 C1481 1.428 . S
C1487 N1486 1.351 . S
C1487 C1488 1.434 . S
C1488 C1479 1.429 . S
C1488 N1485 1.350 . S
C1488 C1487 1.434 . S
C1489 C1490 1.369 . S
C1489 C1491 1.419 . S
C1489 H1493 0.930 . S
C1490 C1489 1.369 . S
C1490 C1499 1.429 . S
C1491 C1489 1.419 . S
C1491 C1492 1.363 . S
C1491 H1494 0.929 . S
C1492 C1491 1.363 . S
C1492 C1498 1.428 . S
H1493 C1489 0.930 . S
H1494 C1491 0.929 . S
S1495 N1496 1.613 . S
S1495 N1497 1.610 . S
N1496 S1495 1.613 . S
N1496 C1499 1.350 . S
N1497 S1495 1.610 . S
N1497 C1498 1.351 . S
C1498 C1492 1.428 . S
C1498 N1497 1.351 . S
C1498 C1499 1.434 . S
C1499 C1490 1.429 . S
C1499 N1496 1.350 . S
C1499 C1498 1.434 . S
C1500 C1501 1.369 . S
C1500 C1502 1.419 . S
C1500 H1504 0.930 . S
C1501 C1500 1.369 . S
C1501 C1510 1.429 . S
C1502 C1500 1.419 . S
C1502 C1503 1.363 . S
C1502 H1505 0.929 . S
C1503 C1502 1.363 . S
C1503 C1509 1.428 . S
H1504 C1500 0.930 . S
H1505 C1502 0.929 . S
S1506 N1507 1.613 . S
S1506 N1508 1.610 . S
N1507 S1506 1.613 . S
N1507 C1510 1.350 . S
N1508 S1506 1.610 . S
N1508 C1509 1.351 . S
C1509 C1503 1.428 . S
C1509 N1508 1.351 . S
C1509 C1510 1.434 . S
C1510 C1501 1.429 . S
C1510 N1507 1.350 . S
C1510 C1509 1.434 . S
C1511 C1512 1.369 . S
C1511 C1513 1.419 . S
C1511 H1515 0.930 . S
C1512 C1511 1.369 . S
C1512 C1521 1.429 . S
C1513 C1511 1.419 . S
C1513 C1514 1.363 . S
C1513 H1516 0.929 . S
C1514 C1513 1.363 . S
C1514 C1520 1.428 . S
H1515 C1511 0.930 . S
H1516 C1513 0.929 . S
S1517 N1518 1.613 . S
S1517 N1519 1.610 . S
N1518 S1517 1.613 . S
N1518 C1521 1.350 . S
N1519 S1517 1.610 . S
N1519 C1520 1.351 . S
C1520 C1514 1.428 . S
C1520 N1519 1.351 . S
C1520 C1521 1.434 . S
C1521 C1512 1.429 . S
C1521 N1518 1.350 . S
C1521 C1520 1.434 . S
C1522 C1523 1.369 . S
C1522 C1524 1.419 . S
C1522 H1526 0.930 . S
C1523 C1522 1.369 . S
C1523 C1532 1.429 . S
C1524 C1522 1.419 . S
C1524 C1525 1.363 . S
C1524 H1527 0.929 . S
C1525 C1524 1.363 . S
C1525 C1531 1.428 . S
H1526 C1522 0.930 . S
H1527 C1524 0.929 . S
S1528 N1529 1.613 . S
S1528 N1530 1.610 . S
N1529 S1528 1.613 . S
N1529 C1532 1.350 . S
N1530 S1528 1.610 . S
N1530 C1531 1.351 . S
C1531 C1525 1.428 . S
C1531 N1530 1.351 . S
C1531 C1532 1.434 . S
C1532 C1523 1.429 . S
C1532 N1529 1.350 . S
C1532 C1531 1.434 . S
C1533 C1534 1.369 . S
C1533 C1535 1.419 . S
C1533 H1537 0.930 . S
C1534 C1533 1.369 . S
C1534 C1543 1.429 . S
C1535 C1533 1.419 . S
C1535 C1536 1.363 . S
C1535 H1538 0.929 . S
C1536 C1535 1.363 . S
C1536 C1542 1.428 . S
H1537 C1533 0.930 . S
H1538 C1535 0.929 . S
S1539 N1540 1.613 . S
S1539 N1541 1.610 . S
N1540 S1539 1.613 . S
N1540 C1543 1.350 . S
N1541 S1539 1.610 . S
N1541 C1542 1.351 . S
C1542 C1536 1.428 . S
C1542 N1541 1.351 . S
C1542 C1543 1.434 . S
C1543 C1534 1.429 . S
C1543 N1540 1.350 . S
C1543 C1542 1.434 . S
C1544 C1545 1.369 . S
C1544 C1546 1.419 . S
C1544 H1548 0.930 . S
C1545 C1544 1.369 . S
C1545 C1554 1.429 . S
C1546 C1544 1.419 . S
C1546 C1547 1.363 . S
C1546 H1549 0.929 . S
C1547 C1546 1.363 . S
C1547 C1553 1.428 . S
H1548 C1544 0.930 . S
H1549 C1546 0.929 . S
S1550 N1551 1.613 . S
S1550 N1552 1.610 . S
N1551 S1550 1.613 . S
N1551 C1554 1.350 . S
N1552 S1550 1.610 . S
N1552 C1553 1.351 . S
C1553 C1547 1.428 . S
C1553 N1552 1.351 . S
C1553 C1554 1.434 . S
C1554 C1545 1.429 . S
C1554 N1551 1.350 . S
C1554 C1553 1.434 . S
C1555 C1556 1.369 . S
C1555 C1557 1.419 . S
C1555 H1559 0.930 . S
C1556 C1555 1.369 . S
C1556 C1565 1.429 . S
C1557 C1555 1.419 . S
C1557 C1558 1.363 . S
C1557 H1560 0.929 . S
C1558 C1557 1.363 . S
C1558 C1564 1.428 . S
H1559 C1555 0.930 . S
H1560 C1557 0.929 . S
S1561 N1562 1.613 . S
S1561 N1563 1.610 . S
N1562 S1561 1.613 . S
N1562 C1565 1.350 . S
N1563 S1561 1.610 . S
N1563 C1564 1.351 . S
C1564 C1558 1.428 . S
C1564 N1563 1.351 . S
C1564 C1565 1.434 . S
C1565 C1556 1.429 . S
C1565 N1562 1.350 . S
C1565 C1564 1.434 . S
C1566 C1567 1.369 . S
C1566 C1568 1.419 . S
C1566 H1570 0.930 . S
C1567 C1566 1.369 . S
C1567 C1576 1.429 . S
C1568 C1566 1.419 . S
C1568 C1569 1.363 . S
C1568 H1571 0.929 . S
C1569 C1568 1.363 . S
C1569 C1575 1.428 . S
H1570 C1566 0.930 . S
H1571 C1568 0.929 . S
S1572 N1573 1.613 . S
S1572 N1574 1.610 . S
N1573 S1572 1.613 . S
N1573 C1576 1.350 . S
N1574 S1572 1.610 . S
N1574 C1575 1.351 . S
C1575 C1569 1.428 . S
C1575 N1574 1.351 . S
C1575 C1576 1.434 . S
C1576 C1567 1.429 . S
C1576 N1573 1.350 . S
C1576 C1575 1.434 . S
C1577 C1578 1.369 . S
C1577 C1579 1.419 . S
C1577 H1581 0.930 . S
C1578 C1577 1.369 . S
C1578 C1587 1.429 . S
C1579 C1577 1.419 . S
C1579 C1580 1.363 . S
C1579 H1582 0.929 . S
C1580 C1579 1.363 . S
C1580 C1586 1.428 . S
H1581 C1577 0.930 . S
H1582 C1579 0.929 . S
S1583 N1584 1.613 . S
S1583 N1585 1.610 . S
N1584 S1583 1.613 . S
N1584 C1587 1.350 . S
N1585 S1583 1.610 . S
N1585 C1586 1.351 . S
C1586 C1580 1.428 . S
C1586 N1585 1.351 . S
C1586 C1587 1.434 . S
C1587 C1578 1.429 . S
C1587 N1584 1.350 . S
C1587 C1586 1.434 . S
C1588 C1589 1.369 . S
C1588 C1590 1.419 . S
C1588 H1592 0.930 . S
C1589 C1588 1.369 . S
C1589 C1598 1.429 . S
C1590 C1588 1.419 . S
C1590 C1591 1.363 . S
C1590 H1593 0.929 . S
C1591 C1590 1.363 . S
C1591 C1597 1.428 . S
H1592 C1588 0.930 . S
H1593 C1590 0.929 . S
S1594 N1595 1.613 . S
S1594 N1596 1.610 . S
N1595 S1594 1.613 . S
N1595 C1598 1.350 . S
N1596 S1594 1.610 . S
N1596 C1597 1.351 . S
C1597 C1591 1.428 . S
C1597 N1596 1.351 . S
C1597 C1598 1.434 . S
C1598 C1589 1.429 . S
C1598 N1595 1.350 . S
C1598 C1597 1.434 . S
C1599 C1600 1.369 . S
C1599 C1601 1.419 . S
C1599 H1603 0.930 . S
C1600 C1599 1.369 . S
C1600 C1609 1.429 . S
C1601 C1599 1.419 . S
C1601 C1602 1.363 . S
C1601 H1604 0.929 . S
C1602 C1601 1.363 . S
C1602 C1608 1.428 . S
H1603 C1599 0.930 . S
H1604 C1601 0.929 . S
S1605 N1606 1.613 . S
S1605 N1607 1.610 . S
N1606 S1605 1.613 . S
N1606 C1609 1.350 . S
N1607 S1605 1.610 . S
N1607 C1608 1.351 . S
C1608 C1602 1.428 . S
C1608 N1607 1.351 . S
C1608 C1609 1.434 . S
C1609 C1600 1.429 . S
C1609 N1606 1.350 . S
C1609 C1608 1.434 . S
C1610 C1611 1.369 . S
C1610 C1612 1.419 . S
C1610 H1614 0.930 . S
C1611 C1610 1.369 . S
C1611 C1620 1.429 . S
C1612 C1610 1.419 . S
C1612 C1613 1.363 . S
C1612 H1615 0.929 . S
C1613 C1612 1.363 . S
C1613 C1619 1.428 . S
H1614 C1610 0.930 . S
H1615 C1612 0.929 . S
S1616 N1617 1.613 . S
S1616 N1618 1.610 . S
N1617 S1616 1.613 . S
N1617 C1620 1.350 . S
N1618 S1616 1.610 . S
N1618 C1619 1.351 . S
C1619 C1613 1.428 . S
C1619 N1618 1.351 . S
C1619 C1620 1.434 . S
C1620 C1611 1.429 . S
C1620 N1617 1.350 . S
C1620 C1619 1.434 . S
C1621 C1622 1.369 . S
C1621 C1623 1.419 . S
C1621 H1625 0.930 . S
C1622 C1621 1.369 . S
C1622 C1631 1.429 . S
C1623 C1621 1.419 . S
C1623 C1624 1.363 . S
C1623 H1626 0.929 . S
C1624 C1623 1.363 . S
C1624 C1630 1.428 . S
H1625 C1621 0.930 . S
H1626 C1623 0.929 . S
S1627 N1628 1.613 . S
S1627 N1629 1.610 . S
N1628 S1627 1.613 . S
N1628 C1631 1.350 . S
N1629 S1627 1.610 . S
N1629 C1630 1.351 . S
C1630 C1624 1.428 . S
C1630 N1629 1.351 . S
C1630 C1631 1.434 . S
C1631 C1622 1.429 . S
C1631 N1628 1.350 . S
C1631 C1630 1.434 . S
C1632 C1633 1.369 1_455 S
C1632 C1634 1.419 . S
C1632 H1636 0.930 . S
C1633 C1632 1.369 1_655 S
C1633 C1642 1.429 . S
C1634 C1632 1.419 . S
C1634 C1635 1.363 . S
C1634 H1637 0.929 . S
C1635 C1634 1.363 . S
C1635 C1641 1.428 1_455 S
H1636 C1632 0.930 . S
H1637 C1634 0.929 . S
S1638 N1639 1.613 . S
S1638 N1640 1.610 . S
N1639 S1638 1.613 . S
N1639 C1642 1.350 . S
N1640 S1638 1.610 . S
N1640 C1641 1.351 . S
C1641 C1635 1.428 1_655 S
C1641 N1640 1.351 . S
C1641 C1642 1.434 . S
C1642 C1633 1.429 . S
C1642 N1639 1.350 . S
C1642 C1641 1.434 . S
C1643 C1644 1.369 . S
C1643 C1645 1.419 . S
C1643 H1647 0.930 . S
C1644 C1643 1.369 . S
C1644 C1653 1.429 . S
C1645 C1643 1.419 . S
C1645 C1646 1.363 . S
C1645 H1648 0.929 . S
C1646 C1645 1.363 . S
C1646 C1652 1.428 . S
H1647 C1643 0.930 . S
H1648 C1645 0.929 . S
S1649 N1650 1.613 . S
S1649 N1651 1.610 . S
N1650 S1649 1.613 . S
N1650 C1653 1.350 . S
N1651 S1649 1.610 . S
N1651 C1652 1.351 . S
C1652 C1646 1.428 . S
C1652 N1651 1.351 . S
C1652 C1653 1.434 . S
C1653 C1644 1.429 . S
C1653 N1650 1.350 . S
C1653 C1652 1.434 . S
C1654 C1655 1.369 . S
C1654 C1656 1.419 . S
C1654 H1658 0.930 . S
C1655 C1654 1.369 . S
C1655 C1664 1.429 . S
C1656 C1654 1.419 . S
C1656 C1657 1.363 . S
C1656 H1659 0.929 . S
C1657 C1656 1.363 . S
C1657 C1663 1.428 . S
H1658 C1654 0.930 . S
H1659 C1656 0.929 . S
S1660 N1661 1.613 . S
S1660 N1662 1.610 . S
N1661 S1660 1.613 . S
N1661 C1664 1.350 . S
N1662 S1660 1.610 . S
N1662 C1663 1.351 . S
C1663 C1657 1.428 . S
C1663 N1662 1.351 . S
C1663 C1664 1.434 . S
C1664 C1655 1.429 . S
C1664 N1661 1.350 . S
C1664 C1663 1.434 . S
C1665 C1666 1.369 . S
C1665 C1667 1.419 . S
C1665 H1669 0.930 . S
C1666 C1665 1.369 . S
C1666 C1675 1.429 . S
C1667 C1665 1.419 . S
C1667 C1668 1.363 . S
C1667 H1670 0.929 1_556 S
C1668 C1667 1.363 . S
C1668 C1674 1.428 . S
H1669 C1665 0.930 . S
H1670 C1667 0.929 1_554 S
S1671 N1672 1.613 . S
S1671 N1673 1.610 . S
N1672 S1671 1.613 . S
N1672 C1675 1.350 . S
N1673 S1671 1.610 . S
N1673 C1674 1.351 . S
C1674 C1668 1.428 . S
C1674 N1673 1.351 . S
C1674 C1675 1.434 . S
C1675 C1666 1.429 . S
C1675 N1672 1.350 . S
C1675 C1674 1.434 . S
C1676 C1677 1.369 . S
C1676 C1678 1.419 . S
C1676 H1680 0.930 . S
C1677 C1676 1.369 . S
C1677 C1686 1.429 1_655 S
C1678 C1676 1.419 . S
C1678 C1679 1.363 1_655 S
C1678 H1681 0.929 . S
C1679 C1678 1.363 1_455 S
C1679 C1685 1.428 . S
H1680 C1676 0.930 . S
H1681 C1678 0.929 . S
S1682 N1683 1.613 . S
S1682 N1684 1.610 . S
N1683 S1682 1.613 . S
N1683 C1686 1.350 . S
N1684 S1682 1.610 . S
N1684 C1685 1.351 . S
C1685 C1679 1.428 . S
C1685 N1684 1.351 . S
C1685 C1686 1.434 . S
C1686 C1677 1.429 1_455 S
C1686 N1683 1.350 . S
C1686 C1685 1.434 . S
C1687 C1688 1.369 . S
C1687 C1689 1.419 . S
C1687 H1691 0.930 . S
C1688 C1687 1.369 . S
C1688 C1697 1.429 . S
C1689 C1687 1.419 . S
C1689 C1690 1.363 . S
C1689 H1692 0.929 1_556 S
C1690 C1689 1.363 . S
C1690 C1696 1.428 . S
H1691 C1687 0.930 . S
H1692 C1689 0.929 1_554 S
S1693 N1694 1.613 . S
S1693 N1695 1.610 . S
N1694 S1693 1.613 . S
N1694 C1697 1.350 . S
N1695 S1693 1.610 . S
N1695 C1696 1.351 . S
C1696 C1690 1.428 . S
C1696 N1695 1.351 . S
C1696 C1697 1.434 . S
C1697 C1688 1.429 . S
C1697 N1694 1.350 . S
C1697 C1696 1.434 . S
C1698 C1699 1.369 . S
C1698 C1700 1.419 . S
C1698 H1702 0.930 . S
C1699 C1698 1.369 . S
C1699 C1708 1.429 . S
C1700 C1698 1.419 . S
C1700 C1701 1.363 . S
C1700 H1703 0.929 . S
C1701 C1700 1.363 . S
C1701 C1707 1.428 . S
H1702 C1698 0.930 . S
H1703 C1700 0.929 . S
S1704 N1705 1.613 . S
S1704 N1706 1.610 . S
N1705 S1704 1.613 . S
N1705 C1708 1.350 . S
N1706 S1704 1.610 . S
N1706 C1707 1.351 . S
C1707 C1701 1.428 . S
C1707 N1706 1.351 . S
C1707 C1708 1.434 . S
C1708 C1699 1.429 . S
C1708 N1705 1.350 . S
C1708 C1707 1.434 . S
C1709 C1710 1.369 . S
C1709 C1711 1.419 . S
C1709 H1713 0.930 . S
C1710 C1709 1.369 . S
C1710 C1719 1.429 . S
C1711 C1709 1.419 . S
C1711 C1712 1.363 . S
C1711 H1714 0.929 . S
C1712 C1711 1.363 . S
C1712 C1718 1.428 . S
H1713 C1709 0.930 . S
H1714 C1711 0.929 . S
S1715 N1716 1.613 . S
S1715 N1717 1.610 . S
N1716 S1715 1.613 . S
N1716 C1719 1.350 . S
N1717 S1715 1.610 . S
N1717 C1718 1.351 . S
C1718 C1712 1.428 . S
C1718 N1717 1.351 . S
C1718 C1719 1.434 . S
C1719 C1710 1.429 . S
C1719 N1716 1.350 . S
C1719 C1718 1.434 . S
C1720 C1721 1.369 . S
C1720 C1722 1.419 . S
C1720 H1724 0.930 . S
C1721 C1720 1.369 . S
C1721 C1730 1.429 . S
C1722 C1720 1.419 . S
C1722 C1723 1.363 . S
C1722 H1725 0.929 . S
C1723 C1722 1.363 . S
C1723 C1729 1.428 . S
H1724 C1720 0.930 . S
H1725 C1722 0.929 . S
S1726 N1727 1.613 . S
S1726 N1728 1.610 . S
N1727 S1726 1.613 . S
N1727 C1730 1.350 . S
N1728 S1726 1.610 . S
N1728 C1729 1.351 . S
C1729 C1723 1.428 . S
C1729 N1728 1.351 . S
C1729 C1730 1.434 . S
C1730 C1721 1.429 . S
C1730 N1727 1.350 . S
C1730 C1729 1.434 . S
C1731 C1732 1.369 . S
C1731 C1733 1.419 . S
C1731 H1735 0.930 . S
C1732 C1731 1.369 . S
C1732 C1741 1.429 . S
C1733 C1731 1.419 . S
C1733 C1734 1.363 . S
C1733 H1736 0.929 . S
C1734 C1733 1.363 . S
C1734 C1740 1.428 . S
H1735 C1731 0.930 . S
H1736 C1733 0.929 . S
S1737 N1738 1.613 . S
S1737 N1739 1.610 . S
N1738 S1737 1.613 . S
N1738 C1741 1.350 . S
N1739 S1737 1.610 . S
N1739 C1740 1.351 . S
C1740 C1734 1.428 . S
C1740 N1739 1.351 . S
C1740 C1741 1.434 . S
C1741 C1732 1.429 . S
C1741 N1738 1.350 . S
C1741 C1740 1.434 . S
C1742 C1743 1.369 . S
C1742 C1744 1.419 . S
C1742 H1746 0.930 . S
C1743 C1742 1.369 . S
C1743 C1752 1.429 . S
C1744 C1742 1.419 . S
C1744 C1745 1.363 . S
C1744 H1747 0.929 . S
C1745 C1744 1.363 . S
C1745 C1751 1.428 . S
H1746 C1742 0.930 . S
H1747 C1744 0.929 . S
S1748 N1749 1.613 . S
S1748 N1750 1.610 . S
N1749 S1748 1.613 . S
N1749 C1752 1.350 . S
N1750 S1748 1.610 . S
N1750 C1751 1.351 . S
C1751 C1745 1.428 . S
C1751 N1750 1.351 . S
C1751 C1752 1.434 . S
C1752 C1743 1.429 . S
C1752 N1749 1.350 . S
C1752 C1751 1.434 . S
C1753 C1754 1.369 . S
C1753 C1755 1.419 . S
C1753 H1757 0.930 1_556 S
C1754 C1753 1.369 . S
C1754 C1763 1.429 . S
C1755 C1753 1.419 . S
C1755 C1756 1.363 . S
C1755 H1758 0.929 . S
C1756 C1755 1.363 . S
C1756 C1762 1.428 . S
H1757 C1753 0.930 1_554 S
H1758 C1755 0.929 . S
S1759 N1760 1.613 . S
S1759 N1761 1.610 . S
N1760 S1759 1.613 . S
N1760 C1763 1.350 . S
N1761 S1759 1.610 . S
N1761 C1762 1.351 . S
C1762 C1756 1.428 . S
C1762 N1761 1.351 . S
C1762 C1763 1.434 . S
C1763 C1754 1.429 . S
C1763 N1760 1.350 . S
C1763 C1762 1.434 . S
C1764 C1765 1.369 . S
C1764 C1766 1.419 1_545 S
C1764 H1768 0.930 . S
C1765 C1764 1.369 . S
C1765 C1774 1.429 . S
C1766 C1764 1.419 1_565 S
C1766 C1767 1.363 . S
C1766 H1769 0.929 . S
C1767 C1766 1.363 . S
C1767 C1773 1.428 . S
H1768 C1764 0.930 . S
H1769 C1766 0.929 . S
S1770 N1771 1.613 . S
S1770 N1772 1.610 1_545 S
N1771 S1770 1.613 . S
N1771 C1774 1.350 . S
N1772 S1770 1.610 1_565 S
N1772 C1773 1.351 . S
C1773 C1767 1.428 . S
C1773 N1772 1.351 . S
C1773 C1774 1.434 1_565 S
C1774 C1765 1.429 . S
C1774 N1771 1.350 . S
C1774 C1773 1.434 1_545 S
C1775 C1776 1.369 1_645 S
C1775 C1777 1.419 . S
C1775 H1779 0.930 . S
C1776 C1775 1.369 1_465 S
C1776 C1785 1.429 . S
C1777 C1775 1.419 . S
C1777 C1778 1.363 . S
C1777 H1780 0.929 . S
C1778 C1777 1.363 . S
C1778 C1784 1.428 1_645 S
H1779 C1775 0.930 . S
H1780 C1777 0.929 . S
S1781 N1782 1.613 . S
S1781 N1783 1.610 . S
N1782 S1781 1.613 . S
N1782 C1785 1.350 . S
N1783 S1781 1.610 . S
N1783 C1784 1.351 . S
C1784 C1778 1.428 1_465 S
C1784 N1783 1.351 . S
C1784 C1785 1.434 . S
C1785 C1776 1.429 . S
C1785 N1782 1.350 . S
C1785 C1784 1.434 . S
C1786 C1787 1.369 1_545 S
C1786 C1788 1.419 . S
C1786 H1790 0.930 . S
C1787 C1786 1.369 1_565 S
C1787 C1796 1.429 . S
C1788 C1786 1.419 . S
C1788 C1789 1.363 . S
C1788 H1791 0.929 . S
C1789 C1788 1.363 . S
C1789 C1795 1.428 1_545 S
H1790 C1786 0.930 . S
H1791 C1788 0.929 . S
S1792 N1793 1.613 . S
S1792 N1794 1.610 . S
N1793 S1792 1.613 . S
N1793 C1796 1.350 . S
N1794 S1792 1.610 . S
N1794 C1795 1.351 . S
C1795 C1789 1.428 1_565 S
C1795 N1794 1.351 . S
C1795 C1796 1.434 . S
C1796 C1787 1.429 . S
C1796 N1793 1.350 . S
C1796 C1795 1.434 . S
C1797 C1798 1.369 1_455 S
C1797 C1799 1.419 . S
C1797 H1801 0.930 . S
C1798 C1797 1.369 1_655 S
C1798 C1807 1.429 1_565 S
C1799 C1797 1.419 . S
C1799 C1800 1.363 1_565 S
C1799 H1802 0.929 . S
C1800 C1799 1.363 1_545 S
C1800 C1806 1.428 1_455 S
H1801 C1797 0.930 . S
H1802 C1799 0.929 . S
S1803 N1804 1.613 . S
S1803 N1805 1.610 . S
N1804 S1803 1.613 . S
N1804 C1807 1.350 . S
N1805 S1803 1.610 . S
N1805 C1806 1.351 . S
C1806 C1800 1.428 1_655 S
C1806 N1805 1.351 . S
C1806 C1807 1.434 . S
C1807 C1798 1.429 1_545 S
C1807 N1804 1.350 . S
C1807 C1806 1.434 . S
C1808 C1809 1.369 . S
C1808 C1810 1.419 1_455 S
C1808 H1812 0.930 . S
C1809 C1808 1.369 . S
C1809 C1818 1.429 1_455 S
C1810 C1808 1.419 1_655 S
C1810 C1811 1.363 . S
C1810 H1813 0.929 1_655 S
C1811 C1810 1.363 . S
C1811 C1817 1.428 . S
H1812 C1808 0.930 . S
H1813 C1810 0.929 1_455 S
S1814 N1815 1.613 . S
S1814 N1816 1.610 . S
N1815 S1814 1.613 . S
N1815 C1818 1.350 . S
N1816 S1814 1.610 . S
N1816 C1817 1.351 . S
C1817 C1811 1.428 . S
C1817 N1816 1.351 . S
C1817 C1818 1.434 . S
C1818 C1809 1.429 1_655 S
C1818 N1815 1.350 . S
C1818 C1817 1.434 . S
C1819 C1820 1.369 . S
C1819 C1821 1.419 . S
C1819 H1823 0.930 . S
C1820 C1819 1.369 . S
C1820 C1829 1.429 . S
C1821 C1819 1.419 . S
C1821 C1822 1.363 . S
C1821 H1824 0.929 . S
C1822 C1821 1.363 . S
C1822 C1828 1.428 . S
H1823 C1819 0.930 . S
H1824 C1821 0.929 . S
S1825 N1826 1.613 . S
S1825 N1827 1.610 . S
N1826 S1825 1.613 . S
N1826 C1829 1.350 . S
N1827 S1825 1.610 . S
N1827 C1828 1.351 . S
C1828 C1822 1.428 . S
C1828 N1827 1.351 . S
C1828 C1829 1.434 . S
C1829 C1820 1.429 . S
C1829 N1826 1.350 . S
C1829 C1828 1.434 . S
C1830 C1831 1.369 . S
C1830 C1832 1.419 . S
C1830 H1834 0.930 . S
C1831 C1830 1.369 . S
C1831 C1840 1.429 . S
C1832 C1830 1.419 . S
C1832 C1833 1.363 . S
C1832 H1835 0.929 . S
C1833 C1832 1.363 . S
C1833 C1839 1.428 . S
H1834 C1830 0.930 . S
H1835 C1832 0.929 . S
S1836 N1837 1.613 . S
S1836 N1838 1.610 . S
N1837 S1836 1.613 . S
N1837 C1840 1.350 . S
N1838 S1836 1.610 . S
N1838 C1839 1.351 . S
C1839 C1833 1.428 . S
C1839 N1838 1.351 . S
C1839 C1840 1.434 . S
C1840 C1831 1.429 . S
C1840 N1837 1.350 . S
C1840 C1839 1.434 . S
C1841 C1842 1.369 . S
C1841 C1843 1.419 . S
C1841 H1845 0.930 . S
C1842 C1841 1.369 . S
C1842 C1851 1.429 . S
C1843 C1841 1.419 . S
C1843 C1844 1.363 . S
C1843 H1846 0.929 . S
C1844 C1843 1.363 . S
C1844 C1850 1.428 . S
H1845 C1841 0.930 . S
H1846 C1843 0.929 . S
S1847 N1848 1.613 . S
S1847 N1849 1.610 . S
N1848 S1847 1.613 . S
N1848 C1851 1.350 . S
N1849 S1847 1.610 . S
N1849 C1850 1.351 . S
C1850 C1844 1.428 . S
C1850 N1849 1.351 . S
C1850 C1851 1.434 . S
C1851 C1842 1.429 . S
C1851 N1848 1.350 . S
C1851 C1850 1.434 . S
C1852 C1853 1.369 . S
C1852 C1854 1.419 1_655 S
C1852 H1856 0.930 1_655 S
C1853 C1852 1.369 . S
C1853 C1862 1.429 . S
C1854 C1852 1.419 1_455 S
C1854 C1855 1.363 . S
C1854 H1857 0.929 . S
C1855 C1854 1.363 . S
C1855 C1861 1.428 1_455 S
H1856 C1852 0.930 1_455 S
H1857 C1854 0.929 . S
S1858 N1859 1.613 . S
S1858 N1860 1.610 . S
N1859 S1858 1.613 . S
N1859 C1862 1.350 . S
N1860 S1858 1.610 . S
N1860 C1861 1.351 . S
C1861 C1855 1.428 1_655 S
C1861 N1860 1.351 . S
C1861 C1862 1.434 . S
C1862 C1853 1.429 . S
C1862 N1859 1.350 . S
C1862 C1861 1.434 . S
C1863 C1864 1.369 . S
C1863 C1865 1.419 . S
C1863 H1867 0.930 . S
C1864 C1863 1.369 . S
C1864 C1873 1.429 . S
C1865 C1863 1.419 . S
C1865 C1866 1.363 . S
C1865 H1868 0.929 . S
C1866 C1865 1.363 . S
C1866 C1872 1.428 . S
H1867 C1863 0.930 . S
H1868 C1865 0.929 . S
S1869 N1870 1.613 . S
S1869 N1871 1.610 . S
N1870 S1869 1.613 . S
N1870 C1873 1.350 . S
N1871 S1869 1.610 . S
N1871 C1872 1.351 . S
C1872 C1866 1.428 . S
C1872 N1871 1.351 . S
C1872 C1873 1.434 . S
C1873 C1864 1.429 . S
C1873 N1870 1.350 . S
C1873 C1872 1.434 . S
C1874 C1875 1.369 . S
C1874 C1876 1.419 . S
C1874 H1878 0.930 . S
C1875 C1874 1.369 . S
C1875 C1884 1.429 . S
C1876 C1874 1.419 . S
C1876 C1877 1.363 . S
C1876 H1879 0.929 . S
C1877 C1876 1.363 . S
C1877 C1883 1.428 . S
H1878 C1874 0.930 . S
H1879 C1876 0.929 . S
S1880 N1881 1.613 . S
S1880 N1882 1.610 . S
N1881 S1880 1.613 . S
N1881 C1884 1.350 . S
N1882 S1880 1.610 . S
N1882 C1883 1.351 . S
C1883 C1877 1.428 . S
C1883 N1882 1.351 . S
C1883 C1884 1.434 . S
C1884 C1875 1.429 . S
C1884 N1881 1.350 . S
C1884 C1883 1.434 . S
C1885 C1886 1.369 . S
C1885 C1887 1.419 . S
C1885 H1889 0.930 . S
C1886 C1885 1.369 . S
C1886 C1895 1.429 . S
C1887 C1885 1.419 . S
C1887 C1888 1.363 . S
C1887 H1890 0.929 . S
C1888 C1887 1.363 . S
C1888 C1894 1.428 . S
H1889 C1885 0.930 . S
H1890 C1887 0.929 . S
S1891 N1892 1.613 . S
S1891 N1893 1.610 . S
N1892 S1891 1.613 . S
N1892 C1895 1.350 . S
N1893 S1891 1.610 . S
N1893 C1894 1.351 . S
C1894 C1888 1.428 . S
C1894 N1893 1.351 . S
C1894 C1895 1.434 . S
C1895 C1886 1.429 . S
C1895 N1892 1.350 . S
C1895 C1894 1.434 . S
C1896 C1897 1.369 . S
C1896 C1898 1.419 1_455 S
C1896 H1900 0.930 . S
C1897 C1896 1.369 . S
C1897 C1906 1.429 . S
C1898 C1896 1.419 1_655 S
C1898 C1899 1.363 . S
C1898 H1901 0.929 . S
C1899 C1898 1.363 . S
C1899 C1905 1.428 1_655 S
H1900 C1896 0.930 . S
H1901 C1898 0.929 . S
S1902 N1903 1.613 . S
S1902 N1904 1.610 . S
N1903 S1902 1.613 . S
N1903 C1906 1.350 . S
N1904 S1902 1.610 . S
N1904 C1905 1.351 . S
C1905 C1899 1.428 1_455 S
C1905 N1904 1.351 . S
C1905 C1906 1.434 . S
C1906 C1897 1.429 . S
C1906 N1903 1.350 . S
C1906 C1905 1.434 . S
C1907 C1908 1.369 . S
C1907 C1909 1.419 . S
C1907 H1911 0.930 . S
C1908 C1907 1.369 . S
C1908 C1917 1.429 . S
C1909 C1907 1.419 . S
C1909 C1910 1.363 . S
C1909 H1912 0.929 . S
C1910 C1909 1.363 . S
C1910 C1916 1.428 . S
H1911 C1907 0.930 . S
H1912 C1909 0.929 . S
S1913 N1914 1.613 . S
S1913 N1915 1.610 . S
N1914 S1913 1.613 . S
N1914 C1917 1.350 . S
N1915 S1913 1.610 . S
N1915 C1916 1.351 . S
C1916 C1910 1.428 . S
C1916 N1915 1.351 . S
C1916 C1917 1.434 . S
C1917 C1908 1.429 . S
C1917 N1914 1.350 . S
C1917 C1916 1.434 . S
C1918 C1919 1.369 . S
C1918 C1920 1.419 . S
C1918 H1922 0.930 . S
C1919 C1918 1.369 . S
C1919 C1928 1.429 . S
C1920 C1918 1.419 . S
C1920 C1921 1.363 . S
C1920 H1923 0.929 . S
C1921 C1920 1.363 . S
C1921 C1927 1.428 . S
H1922 C1918 0.930 . S
H1923 C1920 0.929 . S
S1924 N1925 1.613 . S
S1924 N1926 1.610 . S
N1925 S1924 1.613 . S
N1925 C1928 1.350 . S
N1926 S1924 1.610 . S
N1926 C1927 1.351 . S
C1927 C1921 1.428 . S
C1927 N1926 1.351 . S
C1927 C1928 1.434 . S
C1928 C1919 1.429 . S
C1928 N1925 1.350 . S
C1928 C1927 1.434 . S
C1929 C1930 1.369 . S
C1929 C1931 1.419 . S
C1929 H1933 0.930 . S
C1930 C1929 1.369 . S
C1930 C1939 1.429 . S
C1931 C1929 1.419 . S
C1931 C1932 1.363 . S
C1931 H1934 0.929 . S
C1932 C1931 1.363 . S
C1932 C1938 1.428 . S
H1933 C1929 0.930 . S
H1934 C1931 0.929 . S
S1935 N1936 1.613 . S
S1935 N1937 1.610 . S
N1936 S1935 1.613 . S
N1936 C1939 1.350 . S
N1937 S1935 1.610 . S
N1937 C1938 1.351 . S
C1938 C1932 1.428 . S
C1938 N1937 1.351 . S
C1938 C1939 1.434 . S
C1939 C1930 1.429 . S
C1939 N1936 1.350 . S
C1939 C1938 1.434 . S
C1940 C1941 1.369 . S
C1940 C1942 1.419 1_455 S
C1940 H1944 0.930 1_455 S
C1941 C1940 1.369 . S
C1941 C1950 1.429 . S
C1942 C1940 1.419 1_655 S
C1942 C1943 1.363 . S
C1942 H1945 0.929 . S
C1943 C1942 1.363 . S
C1943 C1949 1.428 1_655 S
H1944 C1940 0.930 1_655 S
H1945 C1942 0.929 . S
S1946 N1947 1.613 . S
S1946 N1948 1.610 . S
N1947 S1946 1.613 . S
N1947 C1950 1.350 . S
N1948 S1946 1.610 . S
N1948 C1949 1.351 . S
C1949 C1943 1.428 1_455 S
C1949 N1948 1.351 . S
C1949 C1950 1.434 . S
C1950 C1941 1.429 . S
C1950 N1947 1.350 . S
C1950 C1949 1.434 . S
C1951 C1952 1.369 . S
C1951 C1953 1.419 . S
C1951 H1955 0.930 . S
C1952 C1951 1.369 . S
C1952 C1961 1.429 . S
C1953 C1951 1.419 . S
C1953 C1954 1.363 . S
C1953 H1956 0.929 . S
C1954 C1953 1.363 . S
C1954 C1960 1.428 . S
H1955 C1951 0.930 . S
H1956 C1953 0.929 . S
S1957 N1958 1.613 . S
S1957 N1959 1.610 . S
N1958 S1957 1.613 . S
N1958 C1961 1.350 . S
N1959 S1957 1.610 . S
N1959 C1960 1.351 . S
C1960 C1954 1.428 . S
C1960 N1959 1.351 . S
C1960 C1961 1.434 . S
C1961 C1952 1.429 . S
C1961 N1958 1.350 . S
C1961 C1960 1.434 . S
C1962 C1963 1.369 . S
C1962 C1964 1.419 . S
C1962 H1966 0.930 . S
C1963 C1962 1.369 . S
C1963 C1972 1.429 . S
C1964 C1962 1.419 . S
C1964 C1965 1.363 . S
C1964 H1967 0.929 . S
C1965 C1964 1.363 . S
C1965 C1971 1.428 . S
H1966 C1962 0.930 . S
H1967 C1964 0.929 . S
S1968 N1969 1.613 . S
S1968 N1970 1.610 . S
N1969 S1968 1.613 . S
N1969 C1972 1.350 . S
N1970 S1968 1.610 . S
N1970 C1971 1.351 . S
C1971 C1965 1.428 . S
C1971 N1970 1.351 . S
C1971 C1972 1.434 . S
C1972 C1963 1.429 . S
C1972 N1969 1.350 . S
C1972 C1971 1.434 . S
C1973 C1974 1.369 . S
C1973 C1975 1.419 . S
C1973 H1977 0.930 . S
C1974 C1973 1.369 . S
C1974 C1983 1.429 . S
C1975 C1973 1.419 . S
C1975 C1976 1.363 . S
C1975 H1978 0.929 . S
C1976 C1975 1.363 . S
C1976 C1982 1.428 . S
H1977 C1973 0.930 . S
H1978 C1975 0.929 . S
S1979 N1980 1.613 . S
S1979 N1981 1.610 . S
N1980 S1979 1.613 . S
N1980 C1983 1.350 . S
N1981 S1979 1.610 . S
N1981 C1982 1.351 . S
C1982 C1976 1.428 . S
C1982 N1981 1.351 . S
C1982 C1983 1.434 . S
C1983 C1974 1.429 . S
C1983 N1980 1.350 . S
C1983 C1982 1.434 . S
C1984 C1985 1.369 . S
C1984 C1986 1.419 . S
C1984 H1988 0.930 . S
C1985 C1984 1.369 . S
C1985 C1994 1.429 . S
C1986 C1984 1.419 . S
C1986 C1987 1.363 . S
C1986 H1989 0.929 . S
C1987 C1986 1.363 . S
C1987 C1993 1.428 . S
H1988 C1984 0.930 . S
H1989 C1986 0.929 . S
S1990 N1991 1.613 . S
S1990 N1992 1.610 . S
N1991 S1990 1.613 . S
N1991 C1994 1.350 . S
N1992 S1990 1.610 . S
N1992 C1993 1.351 . S
C1993 C1987 1.428 . S
C1993 N1992 1.351 . S
C1993 C1994 1.434 . S
C1994 C1985 1.429 . S
C1994 N1991 1.350 . S
C1994 C1993 1.434 . S
C1995 C1996 1.369 . S
C1995 C1997 1.419 . S
C1995 H1999 0.930 . S
C1996 C1995 1.369 . S
C1996 C2005 1.429 . S
C1997 C1995 1.419 . S
C1997 C1998 1.363 . S
C1997 H2000 0.929 . S
C1998 C1997 1.363 . S
C1998 C2004 1.428 . S
H1999 C1995 0.930 . S
H2000 C1997 0.929 . S
S2001 N2002 1.613 . S
S2001 N2003 1.610 . S
N2002 S2001 1.613 . S
N2002 C2005 1.350 . S
N2003 S2001 1.610 . S
N2003 C2004 1.351 . S
C2004 C1998 1.428 . S
C2004 N2003 1.351 . S
C2004 C2005 1.434 . S
C2005 C1996 1.429 . S
C2005 N2002 1.350 . S
C2005 C2004 1.434 . S
C2006 C2007 1.369 1_455 S
C2006 C2008 1.419 . S
C2006 H2010 0.930 . S
C2007 C2006 1.369 1_655 S
C2007 C2016 1.429 . S
C2008 C2006 1.419 . S
C2008 C2009 1.363 . S
C2008 H2011 0.929 . S
C2009 C2008 1.363 . S
C2009 C2015 1.449 . S
H2010 C2006 0.930 . S
H2011 C2008 0.929 . S
S2012 N2013 1.613 . S
S2012 N2014 1.610 . S
N2013 S2012 1.613 . S
N2013 C2016 1.350 . S
N2014 S2012 1.610 . S
N2014 C2015 1.341 1_655 S
C2015 C2009 1.449 . S
C2015 N2014 1.341 1_455 S
C2015 C2016 1.421 1_455 S
C2016 C2007 1.429 . S
C2016 N2013 1.350 . S
C2016 C2015 1.421 1_655 S
C2017 C2018 1.369 . S
C2017 C2019 1.419 . S
C2017 H2021 0.930 . S
C2018 C2017 1.369 . S
C2018 C2027 1.429 . S
C2019 C2017 1.419 . S
C2019 C2020 1.363 . S
C2019 H2022 0.929 . S
C2020 C2019 1.363 . S
C2020 C2026 1.428 . S
H2021 C2017 0.930 . S
H2022 C2019 0.929 . S
S2023 N2024 1.613 . S
S2023 N2025 1.610 1_556 S
N2024 S2023 1.613 . S
N2024 C2027 1.350 1_556 S
N2025 S2023 1.610 1_554 S
N2025 C2026 1.351 . S
C2026 C2020 1.428 . S
C2026 N2025 1.351 . S
C2026 C2027 1.434 . S
C2027 C2018 1.429 . S
C2027 N2024 1.350 1_554 S
C2027 C2026 1.434 . S
C2028 C2029 1.369 . S
C2028 C2030 1.419 . S
C2028 H2032 0.930 . S
C2029 C2028 1.369 . S
C2029 C2038 1.429 . S
C2030 C2028 1.419 . S
C2030 C2031 1.363 . S
C2030 H2033 0.929 . S
C2031 C2030 1.363 . S
C2031 C2037 1.428 . S
H2032 C2028 0.930 . S
H2033 C2030 0.929 . S
S2034 N2035 1.613 . S
S2034 N2036 1.610 . S
N2035 S2034 1.613 . S
N2035 C2038 1.350 . S
N2036 S2034 1.610 . S
N2036 C2037 1.351 . S
C2037 C2031 1.428 . S
C2037 N2036 1.351 . S
C2037 C2038 1.434 . S
C2038 C2029 1.429 . S
C2038 N2035 1.350 . S
C2038 C2037 1.434 . S
C2039 C2040 1.369 . S
C2039 C2041 1.419 . S
C2039 H2043 0.930 . S
C2040 C2039 1.369 . S
C2040 C2049 1.429 . S
C2041 C2039 1.419 . S
C2041 C2042 1.363 . S
C2041 H2044 0.929 . S
C2042 C2041 1.363 . S
C2042 C2048 1.428 . S
H2043 C2039 0.930 . S
H2044 C2041 0.929 . S
S2045 N2046 1.613 . S
S2045 N2047 1.610 . S
N2046 S2045 1.613 . S
N2046 C2049 1.350 . S
N2047 S2045 1.610 . S
N2047 C2048 1.351 . S
C2048 C2042 1.428 . S
C2048 N2047 1.351 . S
C2048 C2049 1.434 . S
C2049 C2040 1.429 . S
C2049 N2046 1.350 . S
C2049 C2048 1.434 . S
C2050 C2051 1.369 . S
C2050 C2052 1.419 1_455 S
C2050 H2054 0.930 1_455 S
C2051 C2050 1.369 . S
C2051 C2060 1.429 . S
C2052 C2050 1.419 1_655 S
C2052 C2053 1.363 . S
C2052 H2055 0.929 . S
C2053 C2052 1.363 . S
C2053 C2059 1.428 1_655 S
H2054 C2050 0.930 1_655 S
H2055 C2052 0.929 . S
S2056 N2057 1.613 . S
S2056 N2058 1.610 . S
N2057 S2056 1.613 . S
N2057 C2060 1.350 . S
N2058 S2056 1.610 . S
N2058 C2059 1.351 . S
C2059 C2053 1.428 1_455 S
C2059 N2058 1.351 . S
C2059 C2060 1.434 . S
C2060 C2051 1.429 . S
C2060 N2057 1.350 . S
C2060 C2059 1.434 . S
C2061 C2062 1.369 . S
C2061 C2063 1.419 . S
C2061 H2065 0.930 . S
C2062 C2061 1.369 . S
C2062 C2071 1.429 . S
C2063 C2061 1.419 . S
C2063 C2064 1.363 . S
C2063 H2066 0.929 . S
C2064 C2063 1.363 . S
C2064 C2070 1.428 . S
H2065 C2061 0.930 . S
H2066 C2063 0.929 . S
S2067 N2068 1.613 . S
S2067 N2069 1.610 . S
N2068 S2067 1.613 . S
N2068 C2071 1.350 . S
N2069 S2067 1.610 . S
N2069 C2070 1.351 . S
C2070 C2064 1.428 . S
C2070 N2069 1.351 . S
C2070 C2071 1.434 . S
C2071 C2062 1.429 . S
C2071 N2068 1.350 . S
C2071 C2070 1.434 . S
C2072 C2073 1.369 . S
C2072 C2074 1.419 . S
C2072 H2076 0.930 . S
C2073 C2072 1.369 . S
C2073 C2082 1.429 . S
C2074 C2072 1.419 . S
C2074 C2075 1.363 . S
C2074 H2077 0.929 . S
C2075 C2074 1.363 . S
C2075 C2081 1.428 . S
H2076 C2072 0.930 . S
H2077 C2074 0.929 . S
S2078 N2079 1.613 . S
S2078 N2080 1.610 . S
N2079 S2078 1.613 . S
N2079 C2082 1.350 . S
N2080 S2078 1.610 . S
N2080 C2081 1.351 . S
C2081 C2075 1.428 . S
C2081 N2080 1.351 . S
C2081 C2082 1.434 . S
C2082 C2073 1.429 . S
C2082 N2079 1.350 . S
C2082 C2081 1.434 . S
C2083 C2084 1.369 . S
C2083 C2085 1.419 . S
C2083 H2087 0.930 . S
C2084 C2083 1.369 . S
C2084 C2093 1.429 . S
C2085 C2083 1.419 . S
C2085 C2086 1.363 . S
C2085 H2088 0.929 . S
C2086 C2085 1.363 . S
C2086 C2092 1.428 . S
H2087 C2083 0.930 . S
H2088 C2085 0.929 . S
S2089 N2090 1.613 . S
S2089 N2091 1.610 . S
N2090 S2089 1.613 . S
N2090 C2093 1.350 . S
N2091 S2089 1.610 . S
N2091 C2092 1.351 . S
C2092 C2086 1.428 . S
C2092 N2091 1.351 . S
C2092 C2093 1.434 . S
C2093 C2084 1.429 . S
C2093 N2090 1.350 . S
C2093 C2092 1.434 . S
C2094 C2095 1.369 1_655 S
C2094 C2096 1.419 . S
C2094 H2098 0.930 . S
C2095 C2094 1.369 1_455 S
C2095 C2104 1.429 . S
C2096 C2094 1.419 . S
C2096 C2097 1.363 . S
C2096 H2099 0.929 . S
C2097 C2096 1.363 . S
C2097 C2103 1.428 . S
H2098 C2094 0.930 . S
H2099 C2096 0.929 . S
S2100 N2101 1.613 . S
S2100 N2102 1.610 1_455 S
N2101 S2100 1.613 . S
N2101 C2104 1.350 . S
N2102 S2100 1.610 1_655 S
N2102 C2103 1.351 . S
C2103 C2097 1.428 . S
C2103 N2102 1.351 . S
C2103 C2104 1.434 1_655 S
C2104 C2095 1.429 . S
C2104 N2101 1.350 . S
C2104 C2103 1.434 1_455 S
C2105 C2106 1.369 . S
C2105 C2107 1.419 . S
C2105 H2109 0.930 . S
C2106 C2105 1.369 . S
C2106 C2115 1.429 . S
C2107 C2105 1.419 . S
C2107 C2108 1.363 . S
C2107 H2110 0.929 . S
C2108 C2107 1.363 . S
C2108 C2114 1.428 . S
H2109 C2105 0.930 . S
H2110 C2107 0.929 . S
S2111 N2112 1.613 . S
S2111 N2113 1.610 . S
N2112 S2111 1.613 . S
N2112 C2115 1.350 . S
N2113 S2111 1.610 . S
N2113 C2114 1.351 . S
C2114 C2108 1.428 . S
C2114 N2113 1.351 . S
C2114 C2115 1.434 . S
C2115 C2106 1.429 . S
C2115 N2112 1.350 . S
C2115 C2114 1.434 . S
C2116 C2117 1.369 . S
C2116 C2118 1.419 . S
C2116 H2120 0.930 . S
C2117 C2116 1.369 . S
C2117 C2126 1.429 . S
C2118 C2116 1.419 . S
C2118 C2119 1.363 . S
C2118 H2121 0.929 . S
C2119 C2118 1.363 . S
C2119 C2125 1.428 . S
H2120 C2116 0.930 . S
H2121 C2118 0.929 . S
S2122 N2123 1.613 . S
S2122 N2124 1.610 . S
N2123 S2122 1.613 . S
N2123 C2126 1.350 . S
N2124 S2122 1.610 . S
N2124 C2125 1.351 . S
C2125 C2119 1.428 . S
C2125 N2124 1.351 . S
C2125 C2126 1.434 . S
C2126 C2117 1.429 . S
C2126 N2123 1.350 . S
C2126 C2125 1.434 . S
C2127 C2128 1.369 . S
C2127 C2129 1.419 . S
C2127 H2131 0.930 . S
C2128 C2127 1.369 . S
C2128 C2137 1.429 . S
C2129 C2127 1.419 . S
C2129 C2130 1.363 . S
C2129 H2132 0.929 . S
C2130 C2129 1.363 . S
C2130 C2136 1.428 . S
H2131 C2127 0.930 . S
H2132 C2129 0.929 . S
S2133 N2134 1.613 . S
S2133 N2135 1.610 . S
N2134 S2133 1.613 . S
N2134 C2137 1.350 . S
N2135 S2133 1.610 . S
N2135 C2136 1.351 . S
C2136 C2130 1.428 . S
C2136 N2135 1.351 . S
C2136 C2137 1.434 . S
C2137 C2128 1.429 . S
C2137 N2134 1.350 . S
C2137 C2136 1.434 . S
C2138 C2139 1.369 . S
C2138 C2140 1.419 1_455 S
C2138 H2142 0.930 . S
C2139 C2138 1.369 . S
C2139 C2148 1.429 1_455 S
C2140 C2138 1.419 1_655 S
C2140 C2141 1.363 . S
C2140 H2143 0.929 . S
C2141 C2140 1.363 . S
C2141 C2147 1.428 . S
H2142 C2138 0.930 . S
H2143 C2140 0.929 . S
S2144 N2145 1.613 . S
S2144 N2146 1.610 . S
N2145 S2144 1.613 . S
N2145 C2148 1.350 . S
N2146 S2144 1.610 . S
N2146 C2147 1.351 . S
C2147 C2141 1.428 . S
C2147 N2146 1.351 . S
C2147 C2148 1.434 . S
C2148 C2139 1.429 1_655 S
C2148 N2145 1.350 . S
C2148 C2147 1.434 . S
C2149 C2150 1.369 . S
C2149 C2151 1.419 . S
C2149 H2153 0.930 . S
C2150 C2149 1.369 . S
C2150 C2159 1.429 . S
C2151 C2149 1.419 . S
C2151 C2152 1.363 . S
C2151 H2154 0.929 . S
C2152 C2151 1.363 . S
C2152 C2158 1.428 . S
H2153 C2149 0.930 . S
H2154 C2151 0.929 . S
S2155 N2156 1.613 . S
S2155 N2157 1.610 . S
N2156 S2155 1.613 . S
N2156 C2159 1.350 . S
N2157 S2155 1.610 . S
N2157 C2158 1.351 . S
C2158 C2152 1.428 . S
C2158 N2157 1.351 . S
C2158 C2159 1.434 . S
C2159 C2150 1.429 . S
C2159 N2156 1.350 . S
C2159 C2158 1.434 . S
C2160 C2161 1.369 . S
C2160 C2162 1.419 . S
C2160 H2164 0.930 . S
C2161 C2160 1.369 . S
C2161 C2170 1.429 . S
C2162 C2160 1.419 . S
C2162 C2163 1.363 . S
C2162 H2165 0.929 . S
C2163 C2162 1.363 . S
C2163 C2169 1.428 . S
H2164 C2160 0.930 . S
H2165 C2162 0.929 . S
S2166 N2167 1.613 1_554 S
S2166 N2168 1.610 . S
N2167 S2166 1.613 1_556 S
N2167 C2170 1.350 . S
N2168 S2166 1.610 . S
N2168 C2169 1.351 1_554 S
C2169 C2163 1.428 . S
C2169 N2168 1.351 1_556 S
C2169 C2170 1.434 . S
C2170 C2161 1.429 . S
C2170 N2167 1.350 . S
C2170 C2169 1.434 . S
C2171 C2172 1.369 . S
C2171 C2173 1.419 . S
C2171 H2175 0.930 . S
C2172 C2171 1.369 . S
C2172 C2181 1.429 . S
C2173 C2171 1.419 . S
C2173 C2174 1.363 . S
C2173 H2176 0.929 . S
C2174 C2173 1.363 . S
C2174 C2180 1.428 . S
H2175 C2171 0.930 . S
H2176 C2173 0.929 . S
S2177 N2178 1.613 . S
S2177 N2179 1.610 . S
N2178 S2177 1.613 . S
N2178 C2181 1.350 . S
N2179 S2177 1.610 . S
N2179 C2180 1.351 . S
C2180 C2174 1.428 . S
C2180 N2179 1.351 . S
C2180 C2181 1.434 . S
C2181 C2172 1.429 . S
C2181 N2178 1.350 . S
C2181 C2180 1.434 . S
C2182 C2183 1.369 . S
C2182 C2184 1.419 . S
C2182 H2186 0.930 . S
C2183 C2182 1.369 . S
C2183 C2192 1.429 . S
C2184 C2182 1.419 . S
C2184 C2185 1.363 . S
C2184 H2187 0.929 . S
C2185 C2184 1.363 . S
C2185 C2191 1.428 . S
H2186 C2182 0.930 . S
H2187 C2184 0.929 . S
S2188 N2189 1.613 . S
S2188 N2190 1.610 . S
N2189 S2188 1.613 . S
N2189 C2192 1.350 . S
N2190 S2188 1.610 . S
N2190 C2191 1.351 . S
C2191 C2185 1.428 . S
C2191 N2190 1.351 . S
C2191 C2192 1.434 . S
C2192 C2183 1.429 . S
C2192 N2189 1.350 . S
C2192 C2191 1.434 . S
C2193 C2194 1.369 . S
C2193 C2195 1.419 . S
C2193 H2197 0.930 . S
C2194 C2193 1.369 . S
C2194 C2203 1.429 . S
C2195 C2193 1.419 . S
C2195 C2196 1.363 . S
C2195 H2198 0.929 . S
C2196 C2195 1.363 . S
C2196 C2202 1.428 . S
H2197 C2193 0.930 . S
H2198 C2195 0.929 . S
S2199 N2200 1.613 . S
S2199 N2201 1.610 . S
N2200 S2199 1.613 . S
N2200 C2203 1.350 . S
N2201 S2199 1.610 . S
N2201 C2202 1.351 . S
C2202 C2196 1.428 . S
C2202 N2201 1.351 . S
C2202 C2203 1.434 . S
C2203 C2194 1.429 . S
C2203 N2200 1.350 . S
C2203 C2202 1.434 . S
C2204 C2205 1.369 . S
C2204 C2206 1.419 . S
C2204 H2208 0.930 . S
C2205 C2204 1.369 . S
C2205 C2214 1.429 . S
C2206 C2204 1.419 . S
C2206 C2207 1.363 . S
C2206 H2209 0.929 . S
C2207 C2206 1.363 . S
C2207 C2213 1.428 . S
H2208 C2204 0.930 . S
H2209 C2206 0.929 . S
S2210 N2211 1.613 . S
S2210 N2212 1.610 . S
N2211 S2210 1.613 . S
N2211 C2214 1.350 . S
N2212 S2210 1.610 . S
N2212 C2213 1.351 . S
C2213 C2207 1.428 . S
C2213 N2212 1.351 . S
C2213 C2214 1.434 . S
C2214 C2205 1.429 . S
C2214 N2211 1.350 . S
C2214 C2213 1.434 . S
C2215 C2216 1.369 . S
C2215 C2217 1.419 . S
C2215 H2219 0.930 . S
C2216 C2215 1.369 . S
C2216 C2225 1.429 . S
C2217 C2215 1.419 . S
C2217 C2218 1.363 . S
C2217 H2220 0.929 . S
C2218 C2217 1.363 . S
C2218 C2224 1.428 . S
H2219 C2215 0.930 . S
H2220 C2217 0.929 . S
S2221 N2222 1.613 . S
S2221 N2223 1.610 . S
N2222 S2221 1.613 . S
N2222 C2225 1.350 . S
N2223 S2221 1.610 . S
N2223 C2224 1.351 . S
C2224 C2218 1.428 . S
C2224 N2223 1.351 . S
C2224 C2225 1.434 . S
C2225 C2216 1.429 . S
C2225 N2222 1.350 . S
C2225 C2224 1.434 . S
C2226 C2227 1.369 . S
C2226 C2228 1.419 . S
C2226 H2230 0.930 . S
C2227 C2226 1.369 . S
C2227 C2236 1.429 . S
C2228 C2226 1.419 . S
C2228 C2229 1.363 . S
C2228 H2231 0.929 . S
C2229 C2228 1.363 . S
C2229 C2235 1.428 . S
H2230 C2226 0.930 . S
H2231 C2228 0.929 . S
S2232 N2233 1.613 . S
S2232 N2234 1.610 1_556 S
N2233 S2232 1.613 . S
N2233 C2236 1.350 . S
N2234 S2232 1.610 1_554 S
N2234 C2235 1.351 1_554 S
C2235 C2229 1.428 . S
C2235 N2234 1.351 1_556 S
C2235 C2236 1.434 . S
C2236 C2227 1.429 . S
C2236 N2233 1.350 . S
C2236 C2235 1.434 . S
C2237 C2238 1.369 . S
C2237 C2239 1.419 . S
C2237 H2241 0.930 . S
C2238 C2237 1.369 . S
C2238 C2247 1.429 . S
C2239 C2237 1.419 . S
C2239 C2240 1.363 . S
C2239 H2242 0.929 . S
C2240 C2239 1.363 . S
C2240 C2246 1.428 . S
H2241 C2237 0.930 . S
H2242 C2239 0.929 . S
S2243 N2244 1.613 . S
S2243 N2245 1.610 . S
N2244 S2243 1.613 . S
N2244 C2247 1.350 . S
N2245 S2243 1.610 . S
N2245 C2246 1.351 . S
C2246 C2240 1.428 . S
C2246 N2245 1.351 . S
C2246 C2247 1.434 . S
C2247 C2238 1.429 . S
C2247 N2244 1.350 . S
C2247 C2246 1.434 . S
C2248 C2249 1.345 1_545 S
C2248 C2250 1.441 . S
C2248 H2252 0.934 . S
C2249 C2248 1.345 1_565 S
C2249 C2258 1.429 . S
C2250 C2248 1.441 . S
C2250 C2251 1.363 . S
C2250 H2253 0.929 . S
C2251 C2250 1.363 . S
C2251 C2257 1.428 1_545 S
H2252 C2248 0.934 . S
H2253 C2250 0.929 . S
S2254 N2255 1.613 . S
S2254 N2256 1.610 . S
N2255 S2254 1.613 . S
N2255 C2258 1.350 . S
N2256 S2254 1.610 . S
N2256 C2257 1.351 . S
C2257 C2251 1.428 1_565 S
C2257 N2256 1.351 . S
C2257 C2258 1.434 . S
C2258 C2249 1.429 . S
C2258 N2255 1.350 . S
C2258 C2257 1.434 . S
C2259 C2260 1.369 . S
C2259 C2261 1.419 . S
C2259 H2263 0.930 . S
C2260 C2259 1.369 . S
C2260 C2269 1.429 . S
C2261 C2259 1.419 . S
C2261 C2262 1.363 . S
C2261 H2264 0.929 . S
C2262 C2261 1.363 . S
C2262 C2268 1.428 . S
H2263 C2259 0.930 . S
H2264 C2261 0.929 . S
S2265 N2266 1.613 . S
S2265 N2267 1.610 . S
N2266 S2265 1.613 . S
N2266 C2269 1.350 . S
N2267 S2265 1.610 . S
N2267 C2268 1.351 . S
C2268 C2262 1.428 . S
C2268 N2267 1.351 . S
C2268 C2269 1.434 . S
C2269 C2260 1.429 . S
C2269 N2266 1.350 . S
C2269 C2268 1.434 . S
C2270 C2271 1.369 . S
C2270 C2272 1.419 . S
C2270 H2274 0.930 . S
C2271 C2270 1.369 . S
C2271 C2280 1.429 1_545 S
C2272 C2270 1.419 . S
C2272 C2273 1.363 1_545 S
C2272 H2275 0.929 . S
C2273 C2272 1.363 1_565 S
C2273 C2279 1.428 . S
H2274 C2270 0.930 . S
H2275 C2272 0.929 . S
S2276 N2277 1.613 . S
S2276 N2278 1.610 1_554 S
N2277 S2276 1.613 . S
N2277 C2280 1.350 1_554 S
N2278 S2276 1.610 1_556 S
N2278 C2279 1.351 . S
C2279 C2273 1.428 . S
C2279 N2278 1.351 . S
C2279 C2280 1.434 . S
C2280 C2271 1.429 1_565 S
C2280 N2277 1.350 1_556 S
C2280 C2279 1.434 . S
C2281 C2282 1.369 . S
C2281 C2283 1.419 . S
C2281 H2285 0.930 . S
C2282 C2281 1.369 . S
C2282 C2291 1.429 . S
C2283 C2281 1.419 . S
C2283 C2284 1.363 . S
C2283 H2286 0.929 . S
C2284 C2283 1.363 . S
C2284 C2290 1.428 . S
H2285 C2281 0.930 . S
H2286 C2283 0.929 . S
S2287 N2288 1.613 . S
S2287 N2289 1.610 . S
N2288 S2287 1.613 . S
N2288 C2291 1.350 . S
N2289 S2287 1.610 . S
N2289 C2290 1.351 . S
C2290 C2284 1.428 . S
C2290 N2289 1.351 . S
C2290 C2291 1.434 . S
C2291 C2282 1.429 . S
C2291 N2288 1.350 . S
C2291 C2290 1.434 . S
C2292 C2293 1.369 . S
C2292 C2294 1.419 1_565 S
C2292 H2296 0.930 . S
C2293 C2292 1.369 . S
C2293 C2302 1.429 . S
C2294 C2292 1.419 1_545 S
C2294 C2295 1.363 . S
C2294 H2297 0.929 . S
C2295 C2294 1.363 . S
C2295 C2301 1.428 . S
H2296 C2292 0.930 . S
H2297 C2294 0.929 . S
S2298 N2299 1.613 1_545 S
S2298 N2300 1.610 . S
N2299 S2298 1.613 1_565 S
N2299 C2302 1.350 . S
N2300 S2298 1.610 . S
N2300 C2301 1.351 . S
C2301 C2295 1.428 . S
C2301 N2300 1.351 . S
C2301 C2302 1.434 1_545 S
C2302 C2293 1.429 . S
C2302 N2299 1.350 . S
C2302 C2301 1.434 1_565 S
C2303 C2304 1.369 . S
C2303 C2305 1.419 . S
C2303 H2307 0.930 . S
C2304 C2303 1.369 . S
C2304 C2313 1.429 . S
C2305 C2303 1.419 . S
C2305 C2306 1.363 . S
C2305 H2308 0.929 . S
C2306 C2305 1.363 . S
C2306 C2312 1.428 . S
H2307 C2303 0.930 . S
H2308 C2305 0.929 . S
S2309 N2310 1.613 . S
S2309 N2311 1.610 . S
N2310 S2309 1.613 . S
N2310 C2313 1.350 . S
N2311 S2309 1.610 . S
N2311 C2312 1.351 . S
C2312 C2306 1.428 . S
C2312 N2311 1.351 . S
C2312 C2313 1.434 . S
C2313 C2304 1.429 . S
C2313 N2310 1.350 . S
C2313 C2312 1.434 . S
C2314 C2315 1.369 . S
C2314 C2316 1.419 1_565 S
C2314 H2318 0.930 . S
C2315 C2314 1.369 . S
C2315 C2324 1.429 . S
C2316 C2314 1.419 1_545 S
C2316 C2317 1.363 . S
C2316 H2319 0.929 . S
C2317 C2316 1.363 . S
C2317 C2323 1.428 . S
H2318 C2314 0.930 . S
H2319 C2316 0.929 . S
S2320 N2321 1.613 1_545 S
S2320 N2322 1.610 . S
N2321 S2320 1.613 1_565 S
N2321 C2324 1.350 . S
N2322 S2320 1.610 . S
N2322 C2323 1.351 . S
C2323 C2317 1.428 . S
C2323 N2322 1.351 . S
C2323 C2324 1.434 1_545 S
C2324 C2315 1.429 . S
C2324 N2321 1.350 . S
C2324 C2323 1.434 1_565 S
C2325 C2326 1.369 . S
C2325 C2327 1.419 . S
C2325 H2329 0.930 . S
C2326 C2325 1.369 . S
C2326 C2335 1.429 . S
C2327 C2325 1.419 . S
C2327 C2328 1.363 . S
C2327 H2330 0.929 . S
C2328 C2327 1.363 . S
C2328 C2334 1.428 . S
H2329 C2325 0.930 . S
H2330 C2327 0.929 . S
S2331 N2332 1.613 . S
S2331 N2333 1.610 . S
N2332 S2331 1.613 . S
N2332 C2335 1.350 . S
N2333 S2331 1.610 . S
N2333 C2334 1.351 . S
C2334 C2328 1.428 . S
C2334 N2333 1.351 . S
C2334 C2335 1.434 . S
C2335 C2326 1.429 . S
C2335 N2332 1.350 . S
C2335 C2334 1.434 . S
C1281 C5 1.026 . S
C1283 C165 1.045 . S
C1292 C205 1.029 . S
C1294 C45 1.044 . S
C1303 C85 1.028 . S
C1305 C245 1.046 . S
C1314 C285 1.046 . S
C1316 C125 1.030 . S
C1325 C335 1.026 . S
C1327 C495 1.045 . S
C1336 C375 1.043 . S
C1338 C535 1.034 . S
C1347 C575 1.047 . S
C1349 C415 1.027 . S
C1358 C455 1.046 . S
C1360 C615 1.030 . S
C1369 C805 1.026 . S
C1371 C645 1.045 . S
C1380 C685 1.041 . S
C1382 C845 1.026 . S
C1391 C725 1.027 . S
C1393 C885 1.045 . S
C1402 C765 1.044 . S
C1404 C925 1.034 . S
C1413 C975 1.047 . S
C1415 C1135 1.032 . S
C1424 C1175 1.028 . S
C1426 C1015 1.043 . S
C1435 C1055 1.047 . S
C1437 C1215 1.032 . S
C1446 C1255 1.023 . S
C1448 C1095 1.043 . S
C1457 C858 3.153 . S
C1459 C18 3.150 . S
C1468 C898 3.155 . S
C1470 C58 3.149 . S
C1479 C938 3.150 . S
C1481 C98 3.152 . S
C1490 C138 3.155 1_554 S
C1492 C818 3.154 . S
C1501 C178 3.149 . S
C1503 C778 3.153 . S
C1512 C658 3.154 . S
C1514 C218 3.149 . S
C1523 C258 3.149 . S
C1525 C698 3.153 1_554 S
C1534 C298 3.156 . S
C1536 C738 3.151 . S
C1545 C328 3.150 . S
C1547 C1168 3.155 1_554 S
C1556 C1208 3.155 . S
C1558 C368 3.154 . S
C1567 C1248 3.148 . S
C1569 C408 3.155 . S
C1578 C448 3.154 . S
C1580 C1128 3.150 . S
C1589 C488 3.153 . S
C1591 C1088 3.150 . S
C1600 C528 3.150 . S
C1602 C968 3.151 . S
C1611 C568 3.152 . S
C1613 C1008 3.150 . S
C1622 C608 3.156 1_554 S
C1624 C1048 3.152 . S
C1633 C338 1.576 . S
C1635 C8 1.587 . S
C1644 C48 1.590 . S
C1646 C1018 1.577 . S
C1655 C418 1.580 . S
C1657 C88 1.585 . S
C1666 C128 1.582 . S
C1668 C1098 1.582 1_556 S
C1677 C498 1.590 . S
C1679 C168 1.576 . S
C1688 C1178 1.586 . S
C1690 C208 1.580 1_556 S
C1699 C248 1.586 . S
C1701 C578 1.579 . S
C1710 C288 1.589 . S
C1712 C1258 1.578 . S
C1721 C688 1.587 . S
C1723 C378 1.579 1_556 S
C1732 C768 1.590 . S
C1734 C458 1.576 . S
C1743 C538 1.588 . S
C1745 C848 1.578 . S
C1754 C928 1.575 1_556 S
C1756 C618 1.588 . S
C1765 C978 1.589 . S
C1767 C648 1.577 . S
C1776 C1058 1.575 . S
C1778 C728 1.588 . S
C1787 C1138 1.575 . S
C1789 C808 1.587 . S
C1798 C888 1.577 . S
C1800 C1218 1.586 . S
C1809 C15 1.614 . S
C1811 C499 1.730 . S
C1820 C1179 1.728 1_554 S
C1822 C55 1.616 . S
C1831 C579 1.730 . S
C1833 C95 1.617 . S
C1842 C135 1.616 . S
C1844 C1259 1.724 . S
C1853 C339 1.731 . S
C1855 C175 1.614 . S
C1864 C1019 1.723 . S
C1866 C215 1.615 . S
C1875 C419 1.728 . S
C1877 C255 1.618 . S
C1886 C1099 1.723 . S
C1888 C295 1.616 . S
C1897 C169 1.726 . S
C1899 C325 1.620 . S
C1908 C849 1.730 . S
C1910 C365 1.611 . S
C1919 C249 1.728 . S
C1921 C405 1.611 . S
C1930 C445 1.609 . S
C1932 C929 1.727 . S
C1941 C9 1.728 . S
C1943 C485 1.618 . S
C1952 C689 1.726 1_554 S
C1954 C525 1.618 . S
C1963 C565 1.614 . S
C1965 C89 1.730 . S
C1974 C605 1.612 . S
C1976 C769 1.725 . S
C1985 C1139 1.731 . S
C1987 C655 1.613 . S
C1996 C539 1.723 . S
C1998 C695 1.614 . S
C2007 C735 1.613 . S
C2009 C1219 1.726 . S
C2018 C619 1.723 1_554 S
C2020 C775 1.618 . S
C2029 C815 1.609 . S
C2031 C979 1.728 . S
C2040 C855 1.615 . S
C2042 C379 1.724 . S
C2051 C1059 1.731 . S
C2053 C895 1.613 . S
C2062 C459 1.729 . S
C2064 C935 1.615 . S
C2073 C965 1.615 . S
C2075 C809 1.726 . S
C2084 C1005 1.616 . S
C2086 C209 1.724 . S
C2095 C1045 1.621 . S
C2097 C889 1.726 . S
C2106 C1085 1.619 . S
C2108 C289 1.726 . S
C2117 C649 1.727 . S
C2119 C1125 1.612 . S
C2128 C49 1.730 . S
C2130 C1165 1.610 . S
C2139 C1205 1.616 . S
C2141 C729 1.729 . S
C2150 C129 1.725 1_554 S
C2152 C1245 1.612 . S
C2161 C179 3.431 . S
C2163 C19 3.430 1_556 S
C2172 C219 3.429 . S
C2174 C59 3.430 . S
C2183 C99 3.428 . S
C2185 C259 3.431 . S
C2194 C299 3.429 . S
C2196 C139 3.430 . S
C2205 C489 3.428 . S
C2207 C329 3.430 . S
C2216 C369 3.432 . S
C2218 C529 3.430 . S
C2227 C409 3.431 . S
C2229 C569 3.429 1_556 S
C2238 C609 3.429 . S
C2240 C449 3.430 . S
C2249 C659 3.430 . S
C2251 C819 3.429 . S
C2260 C859 3.432 . S
C2262 C699 3.431 . S
C2271 C739 3.428 1_556 S
C2273 C899 3.430 . S
C2282 C779 3.429 . S
C2284 C939 3.431 . S
C2293 C1129 3.428 1_556 S
C2295 C969 3.430 . S
C2304 C1169 3.431 . S
C2306 C1009 3.429 . S
C2315 C1049 3.428 . S
C2317 C1209 3.430 . S
C2326 C1249 3.430 . S
C2328 C1089 3.432 . S
