# Generated by pormake.
# Topology wht, (6)-cn, num edge types: 1
# Building blocks:
#     Node 0, Type 0, BuildingBlock: OJICUG_clean_sbu_0, # of connection points: 6
#     Node 1, Type 0, BuildingBlock: OJICUG_clean_sbu_0, # of connection points: 6
#     Node 2, Type 0, BuildingBlock: OJICUG_clean_sbu_0, # of connection points: 6
#     Node 3, Type 0, BuildingBlock: OJICUG_clean_sbu_0, # of connection points: 6
#     Node 4, Type 0, BuildingBlock: OJICUG_clean_sbu_0, # of connection points: 6
#     Node 5, Type 0, BuildingBlock: OJICUG_clean_sbu_0, # of connection points: 6
#     Node 6, Type 0, BuildingBlock: OJICUG_clean_sbu_0, # of connection points: 6
#     Node 7, Type 0, BuildingBlock: OJICUG_clean_sbu_0, # of connection points: 6
#     Edge 8, Type (0, 0), BuildingBlock: MIFKUJ_clean_linker_0, # of connection points: 2
#     Edge 9, Type (0, 0), BuildingBlock: MIFKUJ_clean_linker_0, # of connection points: 2
#     Edge 10, Type (0, 0), BuildingBlock: MIFKUJ_clean_linker_0, # of connection points: 2
#     Edge 11, Type (0, 0), BuildingBlock: MIFKUJ_clean_linker_0, # of connection points: 2
#     Edge 12, Type (0, 0), BuildingBlock: MIFKUJ_clean_linker_0, # of connection points: 2
#     Edge 13, Type (0, 0), BuildingBlock: MIFKUJ_clean_linker_0, # of connection points: 2
#     Edge 14, Type (0, 0), BuildingBlock: MIFKUJ_clean_linker_0, # of connection points: 2
#     Edge 15, Type (0, 0), BuildingBlock: MIFKUJ_clean_linker_0, # of connection points: 2
#     Edge 16, Type (0, 0), BuildingBlock: MIFKUJ_clean_linker_0, # of connection points: 2
#     Edge 17, Type (0, 0), BuildingBlock: MIFKUJ_clean_linker_0, # of connection points: 2
#     Edge 18, Type (0, 0), BuildingBlock: MIFKUJ_clean_linker_0, # of connection points: 2
#     Edge 19, Type (0, 0), BuildingBlock: MIFKUJ_clean_linker_0, # of connection points: 2
#     Edge 20, Type (0, 0), BuildingBlock: MIFKUJ_clean_linker_0, # of connection points: 2
#     Edge 21, Type (0, 0), BuildingBlock: MIFKUJ_clean_linker_0, # of connection points: 2
#     Edge 22, Type (0, 0), BuildingBlock: MIFKUJ_clean_linker_0, # of connection points: 2
#     Edge 23, Type (0, 0), BuildingBlock: MIFKUJ_clean_linker_0, # of connection points: 2
#     Edge 24, Type (0, 0), BuildingBlock: MIFKUJ_clean_linker_0, # of connection points: 2
#     Edge 25, Type (0, 0), BuildingBlock: MIFKUJ_clean_linker_0, # of connection points: 2
#     Edge 26, Type (0, 0), BuildingBlock: MIFKUJ_clean_linker_0, # of connection points: 2
#     Edge 27, Type (0, 0), BuildingBlock: MIFKUJ_clean_linker_0, # of connection points: 2
#     Edge 28, Type (0, 0), BuildingBlock: MIFKUJ_clean_linker_0, # of connection points: 2
#     Edge 29, Type (0, 0), BuildingBlock: MIFKUJ_clean_linker_0, # of connection points: 2
#     Edge 30, Type (0, 0), BuildingBlock: MIFKUJ_clean_linker_0, # of connection points: 2
#     Edge 31, Type (0, 0), BuildingBlock: MIFKUJ_clean_linker_0, # of connection points: 2
# Relax obj value: 0.284
# Max RMSD: 0.260
# Mean RMSD: 0.260
data_MOF--net-wht--node1-OJICUG_clean_sbu_0--edge1-MIFKUJ_clean_linker_0
_symmetry_space_group_name_H-M    P1
_symmetry_Int_Tables_number       1
_symmetry_cell_setting            triclinic
loop_
_symmetry_equiv_pos_as_xyz
'x, y, z'
_cell_length_a     33.797229
_cell_length_b     33.806224
_cell_length_c     63.189878
_cell_angle_alpha  89.987577
_cell_angle_beta   89.907205
_cell_angle_gamma 89.855577
loop_
_atom_site_label
_atom_site_type_symbol
_atom_site_fract_x
_atom_site_fract_y
_atom_site_fract_z
_atom_type_partial_charge
Sc0 Sc 0.08343 0.16844 0.13545 0.0
Sc1 Sc 0.16168 0.22856 0.1531 0.0
Sc2 Sc 0.06383 0.26459 0.15397 0.0
O3 O 0.10294 0.2204 0.14764 0.0
C4 C 0.02768 0.23077 0.1116 0.0
C5 C 0.16061 0.18518 0.10818 0.0
C6 C 0.13623 0.31156 0.13363 0.0
C7 C 0.15304 0.13868 0.16614 0.0
C8 C 0.01784 0.1874 0.16984 0.0
C9 C 0.12214 0.26944 0.19338 0.0
O10 O 0.04188 0.19619 0.11395 0.0
O11 O 0.17797 0.20501 0.12253 0.0
O12 O 0.09989 0.3089 0.13864 0.0
O13 O 0.12259 0.13293 0.15474 0.0
O14 O 0.0227 0.22471 0.16904 0.0
O15 O 0.1515 0.25353 0.18405 0.0
O16 O 0.03882 0.163 0.15936 0.0
O17 O 0.16923 0.17229 0.16793 0.0
O18 O 0.08902 0.27531 0.18446 0.0
O19 O 0.12619 0.17073 0.11048 0.0
O20 O 0.03441 0.25867 0.12444 0.0
O21 O 0.16155 0.28532 0.13837 0.0
Sc22 Sc 0.19372 0.55596 0.41157 0.0
Sc23 Sc 0.2345 0.65026 0.40172 0.0
Sc24 Sc 0.27872 0.56576 0.37984 0.0
O25 O 0.23563 0.59063 0.39778 0.0
C26 C 0.27461 0.50812 0.41916 0.0
C27 C 0.2116 0.61972 0.44772 0.0
C28 C 0.32673 0.63663 0.4012 0.0
C29 C 0.14293 0.62985 0.39649 0.0
C30 C 0.20575 0.50942 0.36876 0.0
C31 C 0.25205 0.63947 0.35226 0.0
O32 O 0.23809 0.51498 0.42274 0.0
O33 O 0.22588 0.64558 0.4353 0.0
O34 O 0.32459 0.60532 0.39021 0.0
O35 O 0.1456 0.59339 0.40123 0.0
O36 O 0.24061 0.52229 0.36621 0.0
O37 O 0.24282 0.66087 0.36813 0.0
O38 O 0.18362 0.52072 0.38381 0.0
O39 O 0.1723 0.65313 0.39639 0.0
O40 O 0.26423 0.60394 0.35387 0.0
O41 O 0.19842 0.58663 0.44132 0.0
O42 O 0.29444 0.52579 0.40485 0.0
O43 O 0.29645 0.65498 0.4078 0.0
Sc44 Sc 0.9511 0.81087 0.64049 0.0
Sc45 Sc 0.86367 0.75976 0.64807 0.0
Sc46 Sc 0.9528 0.71929 0.66583 0.0
O47 O 0.92256 0.76328 0.6516 0.0
C48 C 0.01172 0.74082 0.62964 0.0
C49 C 0.89117 0.79791 0.60409 0.0
C50 C 0.88928 0.67345 0.63758 0.0
C51 C 0.86998 0.84858 0.65822 0.0
C52 C 0.9948 0.79785 0.68322 0.0
C53 C 0.87708 0.72141 0.69401 0.0
O54 O 0.00253 0.77732 0.63058 0.0
O55 O 0.86429 0.78759 0.61711 0.0
O56 O 0.91668 0.67326 0.65143 0.0
O57 O 0.90298 0.85076 0.64849 0.0
O58 O 0.9924 0.76027 0.68183 0.0
O59 O 0.8552 0.73108 0.67843 0.0
O60 O 0.97663 0.82125 0.67082 0.0
O61 O 0.85422 0.81573 0.66303 0.0
O62 O 0.91462 0.72097 0.69288 0.0
O63 O 0.92705 0.80248 0.60949 0.0
O64 O 0.99292 0.7143 0.63969 0.0
O65 O 0.86984 0.70416 0.63255 0.0
Sc66 Sc 0.69031 0.41548 0.88357 0.0
Sc67 Sc 0.75098 0.33302 0.89291 0.0
Sc68 Sc 0.78659 0.42899 0.90381 0.0
O69 O 0.74266 0.39255 0.89352 0.0
C70 C 0.75139 0.47721 0.86441 0.0
C71 C 0.70463 0.34671 0.84984 0.0
C72 C 0.83439 0.3651 0.87663 0.0
C73 C 0.66221 0.33967 0.90938 0.0
C74 C 0.70995 0.4703 0.92339 0.0
C75 C 0.79415 0.35585 0.93578 0.0
O76 O 0.71864 0.45887 0.86393 0.0
O77 O 0.72859 0.32728 0.86128 0.0
O78 O 0.83088 0.39992 0.88416 0.0
O79 O 0.65642 0.37448 0.90239 0.0
O80 O 0.74674 0.46211 0.92436 0.0
O81 O 0.77531 0.33183 0.92413 0.0
O82 O 0.68723 0.45608 0.90936 0.0
O83 O 0.69431 0.32086 0.90655 0.0
O84 O 0.80087 0.39152 0.93044 0.0
O85 O 0.68773 0.37816 0.85614 0.0
O86 O 0.77786 0.47039 0.87824 0.0
O87 O 0.80835 0.33859 0.87923 0.0
Sc88 Sc 0.5661 0.22447 0.57937 0.0
Sc89 Sc 0.66088 0.2667 0.58364 0.0
Sc90 Sc 0.57746 0.31923 0.6017 0.0
O91 O 0.60149 0.2702 0.58817 0.0
C92 C 0.51542 0.30051 0.56571 0.0
C93 C 0.62671 0.23257 0.5406 0.0
C94 C 0.64768 0.35891 0.57581 0.0
C95 C 0.64127 0.1774 0.59601 0.0
C96 C 0.5262 0.24995 0.62264 0.0
C97 C 0.65349 0.3022 0.63007 0.0
O98 O 0.52293 0.26362 0.56538 0.0
O99 O 0.6537 0.25007 0.55102 0.0
O100 O 0.61409 0.36049 0.58476 0.0
O101 O 0.6044 0.1794 0.59237 0.0
O102 O 0.53775 0.28557 0.62129 0.0
O103 O 0.67228 0.28252 0.6161 0.0
O104 O 0.53524 0.22365 0.60912 0.0
O105 O 0.66443 0.20624 0.59303 0.0
O106 O 0.61949 0.31736 0.62699 0.0
O107 O 0.59427 0.22106 0.54881 0.0
O108 O 0.53384 0.32478 0.57743 0.0
O109 O 0.66707 0.32697 0.57394 0.0
Sc110 Sc 0.19673 0.09128 0.85885 0.0
Sc111 Sc 0.25921 0.17175 0.84858 0.0
Sc112 Sc 0.29574 0.07454 0.84358 0.0
O113 O 0.25046 0.11245 0.85009 0.0
C114 C 0.25458 0.02982 0.88176 0.0
C115 C 0.20909 0.16173 0.8911 0.0
C116 C 0.33697 0.14066 0.87157 0.0
C117 C 0.17234 0.16737 0.83099 0.0
C118 C 0.22102 0.03478 0.8209 0.0
C119 C 0.31005 0.14156 0.80907 0.0
O120 O 0.22045 0.04452 0.87865 0.0
O121 O 0.2293 0.18226 0.87817 0.0
O122 O 0.33695 0.10627 0.86344 0.0
O123 O 0.16457 0.13561 0.84099 0.0
O124 O 0.25818 0.03831 0.82378 0.0
O125 O 0.29134 0.16831 0.8191 0.0
O126 O 0.19512 0.0532 0.83177 0.0
O127 O 0.20658 0.18264 0.83075 0.0
O128 O 0.31356 0.1064 0.81587 0.0
O129 O 0.19599 0.12753 0.88665 0.0
O130 O 0.28435 0.03882 0.87062 0.0
O131 O 0.31154 0.16698 0.86712 0.0
Sc132 Sc 0.4259 0.76163 0.08737 0.0
Sc133 Sc 0.3277 0.72808 0.09178 0.0
Sc134 Sc 0.40586 0.66694 0.10838 0.0
O135 O 0.3866 0.71876 0.09568 0.0
C136 C 0.46826 0.68271 0.07114 0.0
C137 C 0.36094 0.76948 0.05055 0.0
C138 C 0.33463 0.63728 0.07925 0.0
C139 C 0.35756 0.8113 0.10954 0.0
C140 C 0.46574 0.72755 0.12952 0.0
C141 C 0.33103 0.68722 0.1372 0.0
O142 O 0.46167 0.7198 0.06966 0.0
O143 O 0.33442 0.74998 0.0602 0.0
O144 O 0.36684 0.63164 0.08919 0.0
O145 O 0.39395 0.80666 0.1049 0.0
O146 O 0.4469 0.69516 0.12939 0.0
O147 O 0.31435 0.70866 0.12332 0.0
O148 O 0.4618 0.75351 0.11514 0.0
O149 O 0.33118 0.7863 0.10464 0.0
O150 O 0.36367 0.66943 0.13393 0.0
O151 O 0.3947 0.77656 0.05858 0.0
O152 O 0.4506 0.66055 0.08442 0.0
O153 O 0.31725 0.67057 0.07876 0.0
Sc154 Sc 0.69684 0.93795 0.32993 0.0
Sc155 Sc 0.74236 0.85097 0.34739 0.0
Sc156 Sc 0.79246 0.94029 0.35087 0.0
O157 O 0.7438 0.90982 0.3427 0.0
C158 C 0.77066 0.98005 0.30773 0.0
C159 C 0.69701 0.86011 0.30318 0.0
C160 C 0.82902 0.8598 0.332 0.0
C161 C 0.65702 0.87519 0.36139 0.0
C162 C 0.72269 -2e-05 0.36389 0.0
C163 C 0.78672 0.88201 0.38881 0.0
O164 O 0.73359 0.97635 0.31076 0.0
O165 O 0.71001 0.83946 0.31852 0.0
O166 O 0.83246 0.89329 0.34107 0.0
O167 O 0.65457 0.90265 0.34762 0.0
O168 O 0.75913 0.99093 0.3621 0.0
O169 O 0.77446 0.85408 0.37706 0.0
O170 O 0.69537 0.9806 0.35487 0.0
O171 O 0.68871 0.85612 0.365 0.0
O172 O 0.79049 0.91743 0.38249 0.0
O173 O 0.69466 0.89757 0.30389 0.0
O174 O 0.79664 0.96483 0.31979 0.0
O175 O 0.79598 0.84243 0.33008 0.0
H176 H 0.95336 0.22705 0.18555 0.0
H177 H 0.89766 0.19899 0.20525 0.0
H178 H 0.9535 0.08407 0.20329 0.0
H179 H 0.00849 0.11149 0.18325 0.0
H180 H 0.87758 0.07806 0.19393 0.0
H181 H 0.95626 0.14492 0.24756 0.0
H182 H 0.98828 0.20301 0.26373 0.0
H183 H 0.87578 0.26179 0.26812 0.0
H184 H 0.84317 0.20418 0.25171 0.0
H185 H 0.83763 0.96885 0.28494 0.0
H186 H 0.86412 0.01126 0.25708 0.0
H187 H 0.76267 0.08826 0.2626 0.0
H188 H 0.73529 0.04515 0.29035 0.0
H189 H 0.84338 0.12424 0.26621 0.0
H190 H 0.76467 0.04643 0.21998 0.0
H191 H 0.73609 0.98496 0.20572 0.0
H192 H 0.85217 0.94342 0.18904 0.0
H193 H 0.88155 0.00435 0.2035 0.0
C194 C 0.95382 0.19584 0.18944 0.0
C195 C 0.98531 0.17145 0.18286 0.0
C196 C 0.92196 0.17988 0.20064 0.0
C197 C 0.92149 0.13947 0.20571 0.0
C198 C 0.9531 0.11526 0.19934 0.0
C199 C 0.98463 0.13104 0.18799 0.0
C200 C 0.88868 0.12187 0.21796 0.0
C201 C 0.86999 0.08821 0.20971 0.0
C202 C 0.87781 0.13602 0.23824 0.0
C203 C 0.89738 0.17052 0.24816 0.0
C204 C 0.93841 0.17037 0.25183 0.0
C205 C 0.95666 0.20317 0.26105 0.0
C206 C 0.9341 0.23613 0.26687 0.0
C207 C 0.89323 0.23629 0.26355 0.0
C208 C 0.87485 0.20358 0.25429 0.0
C209 C 0.82072 0.99454 0.28005 0.0
C210 C 0.78454 0.00389 0.28977 0.0
C211 C 0.83576 0.01858 0.26411 0.0
C212 C 0.81516 0.05263 0.25784 0.0
C213 C 0.77872 0.06189 0.26724 0.0
C214 C 0.76317 0.03727 0.28296 0.0
C215 C 0.8339 0.07951 0.24252 0.0
C216 C 0.84995 0.11491 0.25015 0.0
C217 C 0.84282 0.06665 0.22181 0.0
C218 C 0.82533 0.02998 0.21291 0.0
C219 C 0.78415 0.02409 0.2134 0.0
C220 C 0.76779 0.98934 0.20526 0.0
C221 C 0.7923 0.96029 0.19649 0.0
C222 C 0.83322 0.96596 0.19582 0.0
C223 C 0.84973 0.00065 0.20396 0.0
H224 H 0.77958 0.93341 0.1902 0.0
H225 H 0.94827 0.2615 0.27402 0.0
H226 H 0.24162 0.4565 0.44747 0.0
H227 H 0.27618 0.4113 0.4713 0.0
H228 H 0.38818 0.44841 0.44525 0.0
H229 H 0.35401 0.49306 0.42108 0.0
H230 H 0.38842 0.37025 0.45322 0.0
H231 H 0.35191 0.49105 0.48959 0.0
H232 H 0.30474 0.54182 0.502 0.0
H233 H 0.24119 0.45371 0.53718 0.0
H234 H 0.2877 0.4023 0.5247 0.0
H235 H 0.49528 0.37781 0.55947 0.0
H236 H 0.44747 0.40431 0.53449 0.0
H237 H 0.41704 0.28597 0.51491 0.0
H238 H 0.46565 0.25893 0.53967 0.0
H239 H 0.36979 0.3976 0.52978 0.0
H240 H 0.39851 0.28936 0.46133 0.0
H241 H 0.4507 0.24369 0.44886 0.0
H242 H 0.53941 0.31628 0.47791 0.0
H243 H 0.48783 0.36264 0.49025 0.0
C244 C 0.2736 0.45483 0.44667 0.0
C245 C 0.29511 0.47881 0.43258 0.0
C246 C 0.29324 0.42891 0.46026 0.0
C247 C 0.33468 0.42693 0.46016 0.0
C248 C 0.35613 0.44949 0.44551 0.0
C249 C 0.33654 0.47519 0.43181 0.0
C250 C 0.35605 0.40406 0.47645 0.0
C251 C 0.38409 0.37586 0.46998 0.0
C252 C 0.35061 0.41182 0.49826 0.0
C253 C 0.32298 0.44278 0.50602 0.0
C254 C 0.32772 0.48247 0.49986 0.0
C255 C 0.30113 0.51136 0.50692 0.0
C256 C 0.26991 0.50098 0.52032 0.0
C257 C 0.26533 0.4617 0.52676 0.0
C258 C 0.2918 0.43267 0.5197 0.0
C259 C 0.47834 0.35727 0.54998 0.0
C260 C 0.48458 0.31622 0.55145 0.0
C261 C 0.45084 0.37251 0.53578 0.0
C262 C 0.42898 0.3471 0.52278 0.0
C263 C 0.43402 0.30605 0.52467 0.0
C264 C 0.46178 0.2907 0.53882 0.0
C265 C 0.40259 0.36417 0.50657 0.0
C266 C 0.37352 0.39127 0.51306 0.0
C267 C 0.40786 0.35618 0.48477 0.0
C268 C 0.43926 0.32915 0.47692 0.0
C269 C 0.42918 0.29563 0.46496 0.0
C270 C 0.45864 0.26963 0.45793 0.0
C271 C 0.49833 0.27699 0.46267 0.0
C272 C 0.50866 0.31053 0.47432 0.0
C273 C 0.47932 0.33666 0.48134 0.0
H274 H 0.52108 0.25676 0.45728 0.0
H275 H 0.24933 0.52338 0.52575 0.0
H276 H 0.06084 0.76469 0.70115 0.0
H277 H 0.11027 0.79834 0.72306 0.0
H278 H 0.03905 0.9045 0.72216 0.0
H279 H 0.9904 0.87158 0.69998 0.0
H280 H 0.113 0.92096 0.7122 0.0
H281 H 0.04638 0.84268 0.76616 0.0
H282 H 0.02368 0.78051 0.78256 0.0
H283 H 0.14365 0.73886 0.78589 0.0
H284 H 0.16701 0.80064 0.76926 0.0
H285 H 0.15107 0.03848 0.79998 0.0
H286 H 0.12505 0.99151 0.77431 0.0
H287 H 0.23176 0.92186 0.7791 0.0
H288 H 0.25849 0.96932 0.80482 0.0
H289 H 0.15673 0.87896 0.78367 0.0
H290 H 0.22266 0.96562 0.73596 0.0
H291 H 0.24283 0.03019 0.7214 0.0
H292 H 0.12164 0.058 0.70742 0.0
H293 H 0.10063 0.9939 0.72222 0.0
C294 C 0.05553 0.79501 0.70593 0.0
C295 C 0.02191 0.81562 0.69878 0.0
C296 C 0.0838 0.8142 0.71839 0.0
C297 C 0.07842 0.854 0.72412 0.0
C298 C 0.04404 0.87394 0.71769 0.0
C299 C 0.01616 0.85504 0.7051 0.0
C300 C 0.10874 0.87589 0.73623 0.0
C301 C 0.12254 0.91177 0.72783 0.0
C302 C 0.12244 0.8631 0.75625 0.0
C303 C 0.10837 0.82601 0.76622 0.0
C304 C 0.06787 0.82011 0.77022 0.0
C305 C 0.0549 0.78498 0.77959 0.0
C306 C 0.08219 0.75569 0.78519 0.0
C307 C 0.12253 0.76153 0.78149 0.0
C308 C 0.13566 0.79659 0.77211 0.0
C309 C 0.16917 0.01334 0.7955 0.0
C310 C 0.20678 0.0075 0.80441 0.0
C311 C 0.15433 0.98664 0.78079 0.0
C312 C 0.17663 0.95345 0.77482 0.0
C313 C 0.21429 0.94746 0.78353 0.0
C314 C 0.22951 0.97462 0.79809 0.0
C315 C 0.1592 0.92473 0.76 0.0
C316 C 0.148 0.88756 0.7678 0.0
C317 C 0.14754 0.93646 0.73949 0.0
C318 C 0.16006 0.97493 0.73029 0.0
C319 C 0.20027 0.98559 0.7299 0.0
C320 C 0.21186 0.02212 0.72159 0.0
C321 C 0.18354 0.04819 0.71351 0.0
C322 C 0.14356 0.03776 0.71368 0.0
C323 C 0.1318 0.0013 0.722 0.0
H324 H 0.19256 0.07646 0.70708 0.0
H325 H 0.07209 0.72852 0.79245 0.0
H326 H 0.50709 0.71556 0.0371 0.0
H327 H 0.55397 0.68272 0.01319 0.0
H328 H 0.54445 0.57545 0.04977 0.0
H329 H 0.49745 0.60747 0.07343 0.0
H330 H 0.62641 0.64551 0.01811 0.0
H331 H 0.54096 0.49776 0.01608 0.0
H332 H 0.47283 0.47315 0.02087 0.0
H333 H 0.42649 0.58601 0.0018 0.0
H334 H 0.49428 0.61108 -0.0034 0.0
H335 H 0.73658 0.49111 0.96319 0.0
H336 H 0.70099 0.53134 0.98957 0.0
H337 H 0.60684 0.55105 0.94474 0.0
H338 H 0.64147 0.51114 0.91872 0.0
H339 H 0.57822 0.52541 0.98123 0.0
H340 H 0.67089 0.62417 0.95757 0.0
H341 H 0.73721 0.65154 0.95061 0.0
H342 H 0.76592 0.64186 0.01659 0.0
H343 H 0.6999 0.61392 0.02389 0.0
C344 C 0.5151 0.68504 0.04011 0.0
C345 C 0.498 0.66404 0.05703 0.0
C346 C 0.54207 0.66641 0.02651 0.0
C347 C 0.55231 0.62656 0.0296 0.0
C348 C 0.53651 0.60607 0.04693 0.0
C349 C 0.50951 0.62448 0.06042 0.0
C350 C 0.57751 0.60547 0.01405 0.0
C351 C 0.61599 0.61921 0.01005 0.0
C352 C 0.56371 0.57135 0.00343 0.0
C353 C 0.52273 0.5564 0.00618 0.0
C354 C 0.51622 0.51726 0.01284 0.0
C355 C 0.47766 0.50324 0.01563 0.0
C356 C 0.44535 0.52804 0.01171 0.0
C357 C 0.45153 0.56687 0.00491 0.0
C358 C 0.49002 0.58101 0.00206 0.0
C359 C 0.70853 0.50447 0.95895 0.0
C360 C 0.69163 0.49747 0.93897 0.0
C361 C 0.68827 0.52743 0.97399 0.0
C362 C 0.65113 0.54394 0.96913 0.0
C363 C 0.6352 0.53823 0.94892 0.0
C364 C 0.65513 0.51532 0.93405 0.0
C365 C 0.62725 0.56539 0.98516 0.0
C366 C 0.5889 0.55156 0.98936 0.0
C367 C 0.64099 0.59972 0.9956 0.0
C368 C 0.68063 0.61655 0.99124 0.0
C369 C 0.69147 0.62756 0.97056 0.0
C370 C 0.72898 0.64324 0.96656 0.0
C371 C 0.75581 0.64833 0.98314 0.0
C372 C 0.74514 0.63784 0.00376 0.0
C373 C 0.70767 0.62211 0.00784 0.0
H374 H 0.78483 0.66048 0.98001 0.0
H375 H 0.41553 0.51714 0.0139 0.0
H376 H 0.06392 0.28121 0.2226 0.0
H377 H 0.07055 0.31088 0.25765 0.0
H378 H 0.19685 0.31943 0.24859 0.0
H379 H 0.1906 0.28857 0.2138 0.0
H380 H 0.18026 0.30175 0.28863 0.0
H381 H 0.13325 0.39738 0.23683 0.0
H382 H 0.08674 0.4225 0.2099 0.0
H383 H 0.99209 0.41927 0.2553 0.0
H384 H 0.03802 0.3937 0.28243 0.0
H385 H 0.24799 0.47199 0.33794 0.0
H386 H 0.22535 0.42128 0.31365 0.0
H387 H 0.10864 0.42645 0.34124 0.0
H388 H 0.13104 0.47783 0.36586 0.0
H389 H 0.10885 0.42923 0.29731 0.0
H390 H 0.16302 0.34743 0.35121 0.0
H391 H 0.21263 0.3258 0.37735 0.0
H392 H 0.29682 0.30568 0.32753 0.0
H393 H 0.24794 0.32776 0.30109 0.0
C394 C 0.09317 0.289 0.22819 0.0
C395 C 0.12673 0.2832 0.21536 0.0
C396 C 0.09688 0.30591 0.2482 0.0
C397 C 0.13406 0.31808 0.2555 0.0
C398 C 0.16785 0.31031 0.24321 0.0
C399 C 0.16424 0.29281 0.22332 0.0
C400 C 0.13769 0.34183 0.27504 0.0
C401 C 0.16468 0.32962 0.29057 0.0
C402 C 0.11643 0.37763 0.27781 0.0
C403 C 0.08891 0.39321 0.26155 0.0
C404 C 0.10246 0.4018 0.24101 0.0
C405 C 0.07623 0.41614 0.22573 0.0
C406 C 0.03646 0.42235 0.23087 0.0
C407 C 0.02288 0.41436 0.25133 0.0
C408 C 0.04899 0.39996 0.26666 0.0
C409 C 0.21747 0.46247 0.33897 0.0
C410 C 0.19131 0.47902 0.35388 0.0
C411 C 0.2047 0.43318 0.32516 0.0
C412 C 0.16557 0.41969 0.32596 0.0
C413 C 0.13909 0.43631 0.3406 0.0
C414 C 0.15193 0.46563 0.35458 0.0
C415 C 0.15241 0.38979 0.31052 0.0
C416 C 0.12362 0.40084 0.29572 0.0
C417 C 0.17234 0.35318 0.30833 0.0
C418 C 0.20179 0.33941 0.32416 0.0
C419 C 0.19218 0.33862 0.34582 0.0
C420 C 0.22018 0.32625 0.3607 0.0
C421 C 0.25786 0.31441 0.35411 0.0
C422 C 0.26761 0.31483 0.33261 0.0
C423 C 0.23973 0.32721 0.31767 0.0
H424 H 0.2795 0.30486 0.36565 0.0
H425 H 0.01619 0.43345 0.21901 0.0
H426 H 0.03186 0.66588 0.61724 0.0
H427 H 0.08126 0.64687 0.59098 0.0
H428 H 0.11573 0.76901 0.58403 0.0
H429 H 0.06576 0.78846 0.60996 0.0
H430 H 0.09979 0.7379 0.5472 0.0
H431 H 0.17883 0.69919 0.606 0.0
H432 H 0.19426 0.66619 0.63979 0.0
H433 H 0.17236 0.55291 0.61149 0.0
H434 H 0.15621 0.58524 0.57759 0.0
H435 H 0.23375 0.68815 0.46759 0.0
H436 H 0.21589 0.70913 0.50329 0.0
H437 H 0.16157 0.59587 0.51488 0.0
H438 H 0.17967 0.57427 0.47931 0.0
H439 H 0.19678 0.62767 0.5511 0.0
H440 H 0.10657 0.6672 0.49526 0.0
H441 H 0.08972 0.69902 0.4613 0.0
H442 H 0.13158 0.81047 0.48482 0.0
H443 H 0.14925 0.77911 0.51882 0.0
C444 C 0.05035 0.68868 0.6104 0.0
C445 C 0.04456 0.72875 0.61554 0.0
C446 C 0.07883 0.6777 0.59548 0.0
C447 C 0.10242 0.7065 0.58567 0.0
C448 C 0.09784 0.74632 0.59143 0.0
C449 C 0.06919 0.75737 0.60622 0.0
C450 C 0.12838 0.69559 0.56769 0.0
C451 C 0.12174 0.71449 0.54825 0.0
C452 C 0.15627 0.66433 0.5689 0.0
C453 C 0.16604 0.64471 0.58926 0.0
C454 C 0.177 0.66726 0.60701 0.0
C455 C 0.18593 0.64867 0.62618 0.0
C456 C 0.18422 0.60749 0.6278 0.0
C457 C 0.17366 0.58481 0.61022 0.0
C458 C 0.16467 0.60326 0.59101 0.0
C459 C 0.21872 0.66733 0.47784 0.0
C460 C 0.20723 0.62986 0.47038 0.0
C461 C 0.20868 0.67938 0.49826 0.0
C462 C 0.1868 0.65429 0.5115 0.0
C463 C 0.17834 0.61569 0.50482 0.0
C464 C 0.18845 0.60354 0.48441 0.0
C465 C 0.16786 0.66993 0.53085 0.0
C466 C 0.17553 0.65173 0.55036 0.0
C467 C 0.14071 0.70177 0.52979 0.0
C468 C 0.12966 0.72074 0.50946 0.0
C469 C 0.11244 0.69843 0.49312 0.0
C470 C 0.10271 0.71638 0.47388 0.0
C471 C 0.10968 0.75672 0.47088 0.0
C472 C 0.12628 0.77921 0.48715 0.0
C473 C 0.13615 0.76137 0.5064 0.0
H474 H 0.10213 0.77056 0.45598 0.0
H475 H 0.19115 0.59315 0.64266 0.0
H476 H 0.81904 0.52026 0.85852 0.0
H477 H 0.83271 0.56835 0.83073 0.0
H478 H 0.71571 0.55104 0.80523 0.0
H479 H 0.70186 0.5023 0.83279 0.0
H480 H 0.77002 0.54985 0.77458 0.0
H481 H 0.73821 0.63538 0.83213 0.0
H482 H 0.74161 0.66123 0.86856 0.0
H483 H 0.86457 0.68862 0.85993 0.0
H484 H 0.86208 0.6624 0.82354 0.0
H485 H 0.79878 0.70427 0.70056 0.0
H486 H 0.76992 0.67022 0.73099 0.0
H487 H 0.88365 0.66951 0.76185 0.0
H488 H 0.91276 0.70384 0.73169 0.0
H489 H 0.82249 0.68389 0.7897 0.0
H490 H 0.85528 0.59058 0.7339 0.0
H491 H 0.85194 0.56486 0.69741 0.0
H492 H 0.72591 0.55294 0.70293 0.0
H493 H 0.72847 0.57889 0.73941 0.0
C494 C 0.79605 0.52677 0.84711 0.0
C495 C 0.7593 0.5074 0.84795 0.0
C496 C 0.80388 0.55446 0.83127 0.0
C497 C 0.77503 0.56366 0.81609 0.0
C498 C 0.73832 0.54445 0.81685 0.0
C499 C 0.73047 0.51664 0.83265 0.0
C500 C 0.78392 0.59221 0.79895 0.0
C501 C 0.78071 0.57945 0.77789 0.0
C502 C 0.79841 0.63061 0.80328 0.0
C503 C 0.80001 0.64665 0.82514 0.0
C504 C 0.76605 0.64666 0.83804 0.0
C505 C 0.76781 0.66142 0.85868 0.0
C506 C 0.8033 0.67649 0.86657 0.0
C507 C 0.8371 0.67692 0.85381 0.0
C508 C 0.83552 0.66216 0.83316 0.0
C509 C 0.81755 0.69755 0.71397 0.0
C510 C 0.85823 0.70634 0.71356 0.0
C511 C 0.801 0.67797 0.73131 0.0
C512 C 0.82483 0.66684 0.74847 0.0
C513 C 0.86482 0.67774 0.7487 0.0
C514 C 0.88142 0.69722 0.73138 0.0
C515 C 0.80912 0.64124 0.76548 0.0
C516 C 0.81115 0.65451 0.78647 0.0
C517 C 0.79348 0.60332 0.7611 0.0
C518 C 0.79201 0.58707 0.7393 0.0
C519 C 0.82683 0.58266 0.72729 0.0
C520 C 0.82509 0.56798 0.70662 0.0
C521 C 0.78873 0.55732 0.69785 0.0
C522 C 0.75405 0.56122 0.70975 0.0
C523 C 0.75563 0.57584 0.73043 0.0
H524 H 0.78743 0.54599 0.68184 0.0
H525 H 0.8046 0.6879 0.88256 0.0
H526 H 0.9913 0.17836 0.08467 0.0
H527 H 0.94615 0.19439 0.05553 0.0
H528 H 0.96112 0.31886 0.06825 0.0
H529 H 0.00536 0.30333 0.09735 0.0
H530 H 0.88508 0.30174 0.06274 0.0
H531 H 0.00896 0.2723 0.02816 0.0
H532 H 0.06635 0.23019 0.01955 0.0
H533 H 0.9895 0.14387 0.99166 0.0
H534 H 0.93139 0.18487 0.00074 0.0
H535 H 0.83127 0.39768 0.96714 0.0
H536 H 0.86529 0.37097 -0.00187 0.0
H537 H 0.83099 0.25284 0.98024 0.0
H538 H 0.79689 0.27905 0.94925 0.0
H539 H 0.9112 0.25973 0.9888 0.0
H540 H 0.78753 0.29287 0.02136 0.0
H541 H 0.73092 0.33592 0.03027 0.0
H542 H 0.809 0.41744 0.06122 0.0
H543 H 0.86619 0.37514 0.05223 0.0
C544 C 0.98504 0.20911 0.08118 0.0
C545 C 0.00179 0.23953 0.09337 0.0
C546 C 0.95926 0.21821 0.06456 0.0
C547 C 0.95034 0.25783 0.05977 0.0
C548 C 0.96733 0.28811 0.07181 0.0
C549 C 0.99275 0.27911 0.08841 0.0
C550 C 0.92359 0.26835 0.04216 0.0
C551 C 0.8909 0.29274 0.04655 0.0
C552 C 0.93076 0.2558 0.02114 0.0
C553 C 0.96575 0.23144 0.01537 0.0
C554 C 0.00423 0.24418 0.02036 0.0
C555 C 0.03692 0.22054 0.01537 0.0
C556 C 0.03162 0.18441 0.00504 0.0
C557 C 0.99357 0.17184 -0.00031 0.0
C558 C 0.96073 0.19523 0.00479 0.0
C559 C 0.83056 0.36607 0.9699 0.0
C560 C 0.81144 0.34054 0.95566 0.0
C561 C 0.84993 0.35088 0.98763 0.0
C562 C 0.85053 0.30997 0.99141 0.0
C563 C 0.83085 0.28449 0.97752 0.0
C564 C 0.81124 0.29963 0.95988 0.0
C565 C 0.87325 0.29373 0.00937 0.0
C566 C 0.90512 0.26828 0.00503 0.0
C567 C 0.86556 0.30555 0.03042 0.0
C568 C 0.83119 0.33096 0.03597 0.0
C569 C 0.79268 0.32012 0.02992 0.0
C570 C 0.76047 0.34437 0.03502 0.0
C571 C 0.76637 0.37943 0.04626 0.0
C572 C 0.80448 0.39028 0.05249 0.0
C573 C 0.83679 0.36615 0.04742 0.0
H574 H 0.7414 0.39817 0.05019 0.0
H575 H 0.05699 0.16618 0.00117 0.0
H576 H 0.57242 0.21731 0.50973 0.0
H577 H 0.58543 0.19068 0.47444 0.0
H578 H 0.71106 0.19721 0.48599 0.0
H579 H 0.69833 0.22501 0.52101 0.0
H580 H 0.6952 0.21143 0.44499 0.0
H581 H 0.66085 0.11246 0.49705 0.0
H582 H 0.61881 0.0822 0.52456 0.0
H583 H 0.52316 0.07287 0.48019 0.0
H584 H 0.5646 0.10343 0.45247 0.0
H585 H 0.77096 0.04493 0.38902 0.0
H586 H 0.75108 0.09645 0.41394 0.0
H587 H 0.62945 0.08313 0.39468 0.0
H588 H 0.64883 0.03127 0.3699 0.0
H589 H 0.63793 0.07732 0.43668 0.0
H590 H 0.68035 0.16697 0.38263 0.0
H591 H 0.7263 0.19449 0.35613 0.0
H592 H 0.81112 0.21864 0.40493 0.0
H593 H 0.76592 0.19075 0.4317 0.0
C594 C 0.60282 0.21371 0.5046 0.0
C595 C 0.63438 0.22249 0.51826 0.0
C596 C 0.61019 0.19857 0.48444 0.0
C597 C 0.64918 0.19114 0.47784 0.0
C598 C 0.68075 0.20261 0.49083 0.0
C599 C 0.67341 0.21834 0.51087 0.0
C600 C 0.65705 0.16732 0.45866 0.0
C601 C 0.6828 0.18208 0.44312 0.0
C602 C 0.64048 0.1292 0.45619 0.0
C603 C 0.61563 0.1106 0.47278 0.0
C604 C 0.63077 0.10417 0.49322 0.0
C605 C 0.60707 0.08693 0.50883 0.0
C606 C 0.56829 0.07574 0.50415 0.0
C607 C 0.55318 0.08162 0.48381 0.0
C608 C 0.57676 0.09886 0.46813 0.0
C609 C 0.74003 0.05329 0.38985 0.0
C610 C 0.71144 0.03367 0.37759 0.0
C611 C 0.72878 0.08296 0.404 0.0
C612 C 0.68884 0.09376 0.40601 0.0
C613 C 0.66044 0.07522 0.39331 0.0
C614 C 0.67161 0.04552 0.37919 0.0
C615 C 0.67622 0.12127 0.42292 0.0
C616 C 0.64974 0.10701 0.43819 0.0
C617 C 0.69263 0.15949 0.42521 0.0
C618 C 0.71982 0.1765 0.40916 0.0
C619 C 0.70892 0.17788 0.38769 0.0
C620 C 0.73481 0.1936 0.37262 0.0
C621 C 0.77163 0.20824 0.37883 0.0
C622 C 0.7826 0.20728 0.40014 0.0
C623 C 0.75682 0.19157 0.41527 0.0
H624 H 0.79164 0.22039 0.36714 0.0
H625 H 0.54997 0.06242 0.51626 0.0
H626 H 0.30185 0.20944 0.78568 0.0
H627 H 0.33733 0.22716 0.75327 0.0
H628 H 0.39905 0.11538 0.75475 0.0
H629 H 0.36387 0.0973 0.78705 0.0
H630 H 0.44896 0.17888 0.74831 0.0
H631 H 0.32881 0.12677 0.72011 0.0
H632 H 0.25656 0.12008 0.71633 0.0
H633 H 0.2481 0.24129 0.69645 0.0
H634 H 0.32032 0.24886 0.70043 0.0
H635 H 0.52248 0.17761 0.64165 0.0
H636 H 0.48521 0.15986 0.67358 0.0
H637 H 0.4384 0.27845 0.67713 0.0
H638 H 0.47632 0.29677 0.64554 0.0
H639 H 0.38115 0.212 0.68097 0.0
H640 H 0.50339 0.26247 0.70885 0.0
H641 H 0.57569 0.26742 0.71331 0.0
H642 H 0.58044 0.14657 0.73401 0.0
H643 H 0.50824 0.14058 0.72923 0.0
C644 C 0.32284 0.18854 0.77907 0.0
C645 C 0.33 0.15195 0.78897 0.0
C646 C 0.34298 0.19868 0.76054 0.0
C647 C 0.37068 0.17249 0.75166 0.0
C648 C 0.37781 0.13597 0.76142 0.0
C649 C 0.35749 0.12566 0.77983 0.0
C650 C 0.39284 0.18347 0.73237 0.0
C651 C 0.43423 0.18564 0.73349 0.0
C652 C 0.37337 0.19291 0.71324 0.0
C653 C 0.32993 0.18851 0.7108 0.0
C654 C 0.31151 0.15211 0.71513 0.0
C655 C 0.27057 0.14813 0.7129 0.0
C656 C 0.24773 0.18027 0.70621 0.0
C657 C 0.26582 0.21643 0.70167 0.0
C658 C 0.30677 0.22058 0.70389 0.0
C659 C 0.50408 0.19982 0.64918 0.0
C660 C 0.50224 0.23856 0.64116 0.0
C661 C 0.48304 0.1897 0.66743 0.0
C662 C 0.45936 0.21797 0.67764 0.0
C663 C 0.45668 0.25637 0.66941 0.0
C664 C 0.47836 0.26675 0.65144 0.0
C665 C 0.43723 0.20737 0.69693 0.0
C666 C 0.39585 0.20525 0.69579 0.0
C667 C 0.45677 0.19766 0.71601 0.0
C668 C 0.5004 0.20089 0.71835 0.0
C669 C 0.51989 0.23674 0.71402 0.0
C670 C 0.56085 0.23978 0.71668 0.0
C671 C 0.58263 0.20727 0.72384 0.0
C672 C 0.56352 0.17167 0.72838 0.0
C673 C 0.52258 0.16843 0.72568 0.0
H674 H 0.6143 0.20968 0.72592 0.0
H675 H 0.21604 0.17713 0.70449 0.0
H676 H 0.40597 0.81953 0.02635 0.0
H677 H 0.3834 0.86059 -0.00304 0.0
H678 H 0.26841 0.80584 -3e-05 0.0
H679 H 0.29077 0.76412 0.02911 0.0
H680 H 0.28943 0.8202 0.95959 0.0
H681 H 0.28333 0.8922 0.02428 0.0
H682 H 0.30769 0.91953 0.05798 0.0
H683 H 0.39473 0.98754 0.02447 0.0
H684 H 0.37136 0.96007 0.99057 0.0
H685 H 0.19995 0.98317 0.90227 0.0
H686 H 0.21296 0.93587 0.93106 0.0
H687 H 0.33647 0.96756 0.93005 0.0
H688 H 0.32402 0.0142 0.9015 0.0
H689 H 0.30291 0.96484 0.97091 0.0
H690 H 0.31042 0.88686 0.90635 0.0
H691 H 0.28353 0.8599 0.87311 0.0
H692 H 0.18912 0.80447 0.90757 0.0
H693 H 0.21518 0.83161 0.94101 0.0
C694 C 0.37612 0.81559 0.02053 0.0
C695 C 0.35004 0.7889 0.03035 0.0
C696 C 0.36319 0.83929 0.00381 0.0
C697 C 0.32394 0.83692 -0.00332 0.0
C698 C 0.29871 0.80837 0.00538 0.0
C699 C 0.3116 0.78457 0.02207 0.0
C700 C 0.30865 0.86579 0.98106 0.0
C701 C 0.29185 0.85182 0.9622 0.0
C702 C 0.31169 0.90707 0.98451 0.0
C703 C 0.32585 0.92372 0.00488 0.0
C704 C 0.3079 0.9127 0.0241 0.0
C705 C 0.3215 0.92826 0.04324 0.0
C706 C 0.35281 0.95517 0.04337 0.0
C707 C 0.37053 0.96664 0.02435 0.0
C708 C 0.35711 0.95109 0.00516 0.0
C709 C 0.2298 0.98005 0.90827 0.0
C710 C 0.26102 0.00206 0.89948 0.0
C711 C 0.23717 0.95305 0.92462 0.0
C712 C 0.27571 0.94822 0.93252 0.0
C713 C 0.30658 0.97086 0.92411 0.0
C714 C 0.29939 0.99731 0.9077 0.0
C715 C 0.28469 0.9192 0.94931 0.0
C716 C 0.30016 0.9332 0.96845 0.0
C717 C 0.27999 0.87807 0.9462 0.0
C718 C 0.26445 0.86166 0.92613 0.0
C719 C 0.28372 0.86923 0.90681 0.0
C720 C 0.26867 0.85386 0.88794 0.0
C721 C 0.23456 0.8306 0.88821 0.0
C722 C 0.21549 0.82256 0.90737 0.0
C723 C 0.23039 0.83792 0.92629 0.0
H724 H 0.22296 0.81871 0.87359 0.0
H725 H 0.36327 0.9672 0.05821 0.0
H726 H 0.50952 0.79426 0.13633 0.0
H727 H 0.55424 0.80774 0.1656 0.0
H728 H 0.52939 0.69287 0.19216 0.0
H729 H 0.48381 0.67929 0.16308 0.0
H730 H 0.52876 0.74739 0.22214 0.0
H731 H 0.61764 0.71081 0.16726 0.0
H732 H 0.64693 0.71105 0.13151 0.0
H733 H 0.67758 0.83352 0.13856 0.0
H734 H 0.64794 0.8342 0.17425 0.0
H735 H 0.6793 0.78149 0.2987 0.0
H736 H 0.64662 0.74987 0.26861 0.0
H737 H 0.64658 0.86095 0.23501 0.0
H738 H 0.67936 0.89274 0.26482 0.0
H739 H 0.6647 0.79704 0.20922 0.0
H740 H 0.56781 0.83365 0.26282 0.0
H741 H 0.53995 0.83175 0.29891 0.0
H742 H 0.52544 0.70593 0.29413 0.0
H743 H 0.55391 0.707 0.25813 0.0
C744 C 0.5136 0.77171 0.14832 0.0
C745 C 0.49323 0.73555 0.14723 0.0
C746 C 0.53939 0.77941 0.16501 0.0
C747 C 0.54576 0.75099 0.18084 0.0
C748 C 0.52514 0.71507 0.18001 0.0
C749 C 0.49916 0.70736 0.16334 0.0
C750 C 0.57318 0.75952 0.19852 0.0
C751 C 0.55872 0.75749 0.21932 0.0
C752 C 0.61227 0.77287 0.19485 0.0
C753 C 0.6303 0.77261 0.1734 0.0
C754 C 0.63037 0.73788 0.16114 0.0
C755 C 0.64708 0.73784 0.14089 0.0
C756 C 0.66404 0.7723 0.13276 0.0
C757 C 0.66441 0.80685 0.14488 0.0
C758 C 0.6477 0.80707 0.16514 0.0
C759 C 0.67291 0.79906 0.28477 0.0
C760 C 0.68154 0.83975 0.28424 0.0
C761 C 0.65415 0.78095 0.26765 0.0
C762 C 0.64384 0.80325 0.24975 0.0
C763 C 0.65427 0.8433 0.24873 0.0
C764 C 0.6728 0.86145 0.26583 0.0
C765 C 0.61976 0.78592 0.23262 0.0
C766 C 0.6349 0.7863 0.21196 0.0
C767 C 0.5814 0.77081 0.23643 0.0
C768 C 0.56352 0.77033 0.2579 0.0
C769 C 0.55898 0.80554 0.26953 0.0
C770 C 0.54304 0.80462 0.28996 0.0
C771 C 0.53109 0.76872 0.29884 0.0
C772 C 0.53484 0.7337 0.28726 0.0
C773 C 0.55088 0.73444 0.26684 0.0
H774 H 0.51884 0.76806 0.31468 0.0
H775 H 0.67697 0.7722 0.11707 0.0
H776 H 0.24184 0.22823 0.90878 0.0
H777 H 0.24835 0.24252 0.94658 0.0
H778 H 0.17718 0.14048 0.9613 0.0
H779 H 0.1702 0.12593 0.92377 0.0
H780 H 0.19127 0.25219 0.98126 0.0
H781 H 0.23094 0.08696 -0.00339 0.0
H782 H 0.26371 0.03217 0.97761 0.0
H783 H 0.33032 0.11551 0.94076 0.0
H784 H 0.29854 0.17076 0.95978 0.0
H785 H 0.12606 0.16007 0.07175 0.0
H786 H 0.15164 0.16638 0.03597 0.0
H787 H 0.26204 0.21097 0.06016 0.0
H788 H 0.2363 0.20576 0.09645 0.0
H789 H 0.25307 0.14226 0.02171 0.0
H790 H 0.23386 0.27693 0.04352 0.0
H791 H 0.19868 0.32992 0.06273 0.0
H792 H 0.09508 0.31004 0.02499 0.0
H793 H 0.12955 0.25658 0.00574 0.0
C794 C 0.22673 0.20935 0.92002 0.0
C795 C 0.20589 0.17558 0.91323 0.0
C796 C 0.23063 0.21756 0.94159 0.0
C797 C 0.21398 0.19201 0.95657 0.0
C798 C 0.19079 0.16009 0.94985 0.0
C799 C 0.1867 0.15195 0.92838 0.0
C800 C 0.22234 0.19664 0.9793 0.0
C801 C 0.20563 0.22875 0.99013 0.0
C802 C 0.24196 0.16633 0.99067 0.0
C803 C 0.26217 0.13307 0.97961 0.0
C804 C 0.25284 0.09362 0.9846 0.0
C805 C 0.27119 0.06246 0.97379 0.0
C806 C 0.29904 0.07035 0.95799 0.0
C807 C 0.30868 0.10942 0.95299 0.0
C808 C 0.29048 0.14068 0.96377 0.0
C809 C 0.15604 0.17063 0.06965 0.0
C810 C 0.17902 0.18276 0.087 0.0
C811 C 0.17052 0.1743 0.04916 0.0
C812 C 0.20837 0.18959 0.04559 0.0
C813 C 0.23258 0.19939 0.06277 0.0
C814 C 0.21784 0.19632 0.08341 0.0
C815 C 0.22063 0.19696 0.02362 0.0
C816 C 0.24058 0.16674 0.01284 0.0
C817 C 0.20465 0.22935 0.01231 0.0
C818 C 0.18414 0.26234 0.02338 0.0
C819 C 0.20346 0.2836 0.03945 0.0
C820 C 0.1837 0.31382 0.05031 0.0
C821 C 0.14463 0.32328 0.04514 0.0
C822 C 0.12534 0.30268 0.02901 0.0
C823 C 0.145 0.27244 0.0181 0.0
H824 H 0.12936 0.34663 0.05358 0.0
H825 H 0.31321 0.0462 0.94965 0.0
H826 H 0.27076 0.73296 0.15286 0.0
H827 H 0.24907 0.73819 0.18964 0.0
H828 H 0.33063 0.64551 0.20717 0.0
H829 H 0.35307 0.64045 0.17055 0.0
H830 H 0.21598 0.68833 0.21756 0.0
H831 H 0.37363 0.66998 0.25489 0.0
H832 H 0.44288 0.68362 0.245 0.0
H833 H 0.40415 0.7728 0.20126 0.0
H834 H 0.33482 0.76017 0.21112 0.0
H835 H 0.23086 0.60034 0.31673 0.0
H836 H 0.23192 0.62481 0.28045 0.0
H837 H 0.26681 0.74017 0.30272 0.0
H838 H 0.26502 0.71582 0.33941 0.0
H839 H 0.31825 0.70772 0.27286 0.0
H840 H 0.18092 0.74218 0.27389 0.0
H841 H 0.10961 0.73531 0.28154 0.0
H842 H 0.10773 0.62409 0.24879 0.0
H843 H 0.17872 0.63101 0.24029 0.0
C844 C 0.28373 0.71324 0.16446 0.0
C845 C 0.31389 0.68641 0.15876 0.0
C846 C 0.2713 0.71637 0.18548 0.0
C847 C 0.28878 0.69277 0.20114 0.0
C848 C 0.31737 0.66458 0.19535 0.0
C849 C 0.32999 0.66156 0.17438 0.0
C850 C 0.27793 0.69802 0.22365 0.0
C851 C 0.2383 0.69291 0.22963 0.0
C852 C 0.3069 0.7055 0.23932 0.0
C853 C 0.34883 0.71403 0.23373 0.0
C854 C 0.37985 0.69277 0.24331 0.0
C855 C 0.41916 0.70025 0.23767 0.0
C856 C 0.42789 0.72898 0.22248 0.0
C857 C 0.39736 0.75049 0.213 0.0
C858 C 0.35804 0.7432 0.21863 0.0
C859 C 0.23811 0.63112 0.31394 0.0
C860 C 0.24837 0.6561 0.33079 0.0
C861 C 0.23828 0.64518 0.29323 0.0
C862 C 0.24919 0.68436 0.28892 0.0
C863 C 0.25804 0.70991 0.30578 0.0
C864 C 0.25707 0.69599 0.32665 0.0
C865 C 0.25674 0.69596 0.26673 0.0
C866 C 0.29586 0.70412 0.26073 0.0
C867 C 0.22734 0.69205 0.25102 0.0
C868 C 0.18508 0.687 0.25659 0.0
C869 C 0.16529 0.71619 0.2684 0.0
C870 C 0.12491 0.71242 0.27277 0.0
C871 C 0.10425 0.67912 0.26584 0.0
C872 C 0.1238 0.64981 0.25422 0.0
C873 C 0.16401 0.65382 0.24944 0.0
H874 H 0.07307 0.67611 0.2694 0.0
H875 H 0.45828 0.73455 0.21802 0.0
H876 H 0.74881 0.907 0.42406 0.0
H877 H 0.7655 0.8915 0.46085 0.0
H878 H 0.866 0.82301 0.43939 0.0
H879 H 0.84748 0.83653 0.40258 0.0
H880 H 0.83573 0.78607 0.46959 0.0
H881 H 0.8718 0.92134 0.46111 0.0
H882 H 0.86357 0.99184 0.4521 0.0
H883 H 0.773 0.00332 0.49943 0.0
H884 H 0.78023 0.9327 0.50852 0.0
H885 H 0.93852 0.7944 0.56911 0.0
H886 H 0.91983 0.80805 0.53237 0.0
H887 H 0.80054 0.83403 0.55236 0.0
H888 H 0.81867 0.81965 0.58909 0.0
H889 H 0.84102 0.89226 0.52369 0.0
H890 H 0.81241 0.75263 0.53238 0.0
H891 H 0.83138 0.68454 0.54203 0.0
H892 H 0.91997 0.684 0.49331 0.0
H893 H 0.90272 0.75271 0.4839 0.0
C894 C 0.77435 0.88856 0.42735 0.0
C895 C 0.79701 0.87289 0.41076 0.0
C896 C 0.7841 0.87995 0.44831 0.0
C897 C 0.81759 0.85677 0.453 0.0
C898 C 0.84007 0.84096 0.43625 0.0
C899 C 0.82963 0.8487 0.41527 0.0
C900 C 0.82895 0.84868 0.47532 0.0
C901 C 0.83734 0.80948 0.48129 0.0
C902 C 0.83081 0.87906 0.49077 0.0
C903 C 0.82625 0.92156 0.48532 0.0
C904 C 0.84988 0.9388 0.46947 0.0
C905 C 0.84543 0.9788 0.46437 0.0
C906 C 0.81768 0.00201 0.47514 0.0
C907 C 0.79441 0.98528 0.49108 0.0
C908 C 0.79868 0.94526 0.49621 0.0
C909 C 0.90831 0.803 0.56567 0.0
C910 C 0.88 0.80587 0.58193 0.0
C911 C 0.89772 0.81071 0.54473 0.0
C912 C 0.85887 0.82195 0.53979 0.0
C913 C 0.83067 0.82536 0.55597 0.0
C914 C 0.84102 0.81694 0.57687 0.0
C915 C 0.84759 0.83001 0.51767 0.0
C916 C 0.83928 0.86911 0.51183 0.0
C917 C 0.84696 0.79979 0.50225 0.0
C918 C 0.85654 0.75805 0.50758 0.0
C919 C 0.83621 0.73819 0.52385 0.0
C920 C 0.8466 0.69944 0.52926 0.0
C921 C 0.87674 0.67992 0.51826 0.0
C922 C 0.89662 0.69915 0.50183 0.0
C923 C 0.88662 0.73804 0.49648 0.0
H924 H 0.88468 0.6499 0.52247 0.0
H925 H 0.81429 0.03298 0.47118 0.0
H926 H 0.63583 0.35828 0.65931 0.0
H927 H 0.65734 0.36069 0.696 0.0
H928 H 0.73061 0.25767 0.68601 0.0
H929 H 0.70924 0.25506 0.64893 0.0
H930 H 0.67644 0.25203 0.72022 0.0
H931 H 0.77562 0.3399 0.6951 0.0
H932 H 0.80158 0.39601 0.67444 0.0
H933 H 0.72956 0.47639 0.71042 0.0
H934 H 0.70265 0.42081 0.73106 0.0
H935 H 0.73473 0.28112 0.8298 0.0
H936 H 0.73393 0.26737 0.79177 0.0
H937 H 0.66267 0.37156 0.78139 0.0
H938 H 0.66309 0.38558 0.81917 0.0
H939 H 0.73059 0.36969 0.75691 0.0
H940 H 0.62126 0.28501 0.77522 0.0
H941 H 0.58593 0.23068 0.79309 0.0
H942 H 0.66994 0.14697 0.76848 0.0
H943 H 0.70605 0.20094 0.75064 0.0
C944 C 0.65693 0.3364 0.6648 0.0
C945 C 0.67063 0.30628 0.65134 0.0
C946 C 0.6694 0.33801 0.68571 0.0
C947 C 0.69565 0.30947 0.69357 0.0
C948 C 0.71045 0.28001 0.68008 0.0
C949 C 0.69833 0.27866 0.65897 0.0
C950 C 0.7042 0.30884 0.7164 0.0
C951 C 0.68939 0.27717 0.72831 0.0
C952 C 0.7201 0.34225 0.72671 0.0
C953 C 0.737 0.37604 0.71464 0.0
C954 C 0.76515 0.36951 0.69856 0.0
C955 C 0.78006 0.40126 0.68684 0.0
C956 C 0.76722 0.43976 0.69109 0.0
C957 C 0.73955 0.44659 0.70714 0.0
C958 C 0.72451 0.41496 0.71889 0.0
C959 C 0.71832 0.30076 0.81947 0.0
C960 C 0.69929 0.33468 0.82753 0.0
C961 C 0.71791 0.29281 0.79777 0.0
C962 C 0.69856 0.31869 0.78386 0.0
C963 C 0.67804 0.35146 0.79193 0.0
C964 C 0.67819 0.35929 0.81356 0.0
C965 C 0.70162 0.3134 0.76075 0.0
C966 C 0.71872 0.34401 0.74884 0.0
C967 C 0.6873 0.27928 0.75042 0.0
C968 C 0.66677 0.24709 0.76194 0.0
C969 C 0.63258 0.25511 0.77391 0.0
C970 C 0.61229 0.22436 0.78394 0.0
C971 C 0.6258 0.18543 0.78201 0.0
C972 C 0.65962 0.17716 0.77004 0.0
C973 C 0.68001 0.20782 0.75998 0.0
H974 H 0.60996 0.16164 0.78972 0.0
H975 H 0.77872 0.46428 0.68197 0.0
H976 H 0.22485 0.13801 0.18611 0.0
H977 H 0.26933 0.08148 0.18879 0.0
H978 H 0.17613 0.00417 0.16776 0.0
H979 H 0.13129 0.06058 0.16471 0.0
H980 H 0.23529 0.96847 0.19698 0.0
H981 H 0.22268 0.04451 0.13086 0.0
H982 H 0.2239 0.10733 0.11097 0.0
H983 H 0.34332 0.12784 0.13125 0.0
H984 H 0.34247 0.06541 0.15157 0.0
H985 H 0.28334 0.82664 0.12404 0.0
H986 H 0.26076 0.88223 0.14484 0.0
H987 H 0.37872 0.93069 0.14504 0.0
H988 H 0.40208 0.87443 0.1237 0.0
H989 H 0.32332 0.98527 0.1346 0.0
H990 H 0.34074 0.89693 0.19165 0.0
H991 H 0.33831 0.83359 0.21084 0.0
H992 H 0.2114 0.83454 0.20776 0.0
H993 H 0.21305 0.89795 0.18847 0.0
C994 C 0.2132 0.10886 0.18275 0.0
C995 C 0.1748 0.10399 0.17451 0.0
C996 C 0.23875 0.07656 0.18441 0.0
C997 C 0.22612 0.03897 0.17809 0.0
C998 C 0.18635 0.03312 0.17264 0.0
C999 C 0.16082 0.06547 0.17078 0.0
C1000 C 0.25543 0.00818 0.17268 0.0
C1001 C 0.25484 0.97203 0.18349 0.0
C1002 C 0.28159 0.0135 0.1554 0.0
C1003 C 0.28234 0.05064 0.14293 0.0
C1004 C 0.24907 0.0626 0.1312 0.0
C1005 C 0.24969 0.0981 0.11984 0.0
C1006 C 0.28363 0.12162 0.1199 0.0
C1007 C 0.31702 0.10963 0.13127 0.0
C1008 C 0.31648 0.07422 0.14271 0.0
C1009 C 0.30482 0.84886 0.12846 0.0
C1010 C 0.34464 0.84602 0.12208 0.0
C1011 C 0.29182 0.8805 0.14065 0.0
C1012 C 0.31822 0.91008 0.14694 0.0
C1013 C 0.35801 0.90777 0.14057 0.0
C1014 C 0.37123 0.87578 0.12831 0.0
C1015 C 0.30252 0.9448 0.15849 0.0
C1016 C 0.30525 0.98188 0.1487 0.0
C1017 C 0.27847 0.94022 0.17672 0.0
C1018 C 0.27706 0.90224 0.18856 0.0
C1019 C 0.3123 0.88358 0.19498 0.0
C1020 C 0.31105 0.84763 0.2059 0.0
C1021 C 0.2747 0.82994 0.21047 0.0
C1022 C 0.23953 0.84829 0.20422 0.0
C1023 C 0.2406 0.88434 0.19337 0.0
H1024 H 0.27376 0.80207 0.2189 0.0
H1025 H 0.2841 0.14907 0.11108 0.0
H1026 H 0.34903 0.68824 0.4322 0.0
H1027 H 0.40815 0.72984 0.43226 0.0
H1028 H 0.44929 0.67179 0.37545 0.0
H1029 H 0.39148 0.629 0.37593 0.0
H1030 H 0.50943 0.69027 0.39732 0.0
H1031 H 0.39243 0.75943 0.37467 0.0
H1032 H 0.32425 0.7849 0.3781 0.0
H1033 H 0.3584 0.85323 0.43234 0.0
H1034 H 0.4267 0.82773 0.42937 0.0
H1035 H 0.58089 0.88068 0.34727 0.0
H1036 H 0.52421 0.84342 0.36068 0.0
H1037 H 0.59485 0.80086 0.41279 0.0
H1038 H 0.6518 0.8373 0.39926 0.0
H1039 H 0.47963 0.83418 0.39602 0.0
H1040 H 0.58268 0.70237 0.41603 0.0
H1041 H 0.64841 0.67685 0.4056 0.0
H1042 H 0.63744 0.73327 0.34499 0.0
H1043 H 0.5715 0.75858 0.35494 0.0
C1044 C 0.37125 0.68374 0.42006 0.0
C1045 C 0.3655 0.65575 0.40391 0.0
C1046 C 0.40484 0.70766 0.42003 0.0
C1047 C 0.43253 0.70472 0.40351 0.0
C1048 C 0.42824 0.67476 0.38831 0.0
C1049 C 0.39514 0.65027 0.38859 0.0
C1050 C 0.46403 0.7347 0.40086 0.0
C1051 C 0.50292 0.72172 0.39729 0.0
C1052 C 0.45543 0.77577 0.40021 0.0
C1053 C 0.4145 0.79134 0.40195 0.0
C1054 C 0.38531 0.7797 0.3874 0.0
C1055 C 0.34667 0.79415 0.38925 0.0
C1056 C 0.33697 0.82058 0.40547 0.0
C1057 C 0.36594 0.8327 0.41982 0.0
C1058 C 0.40461 0.81827 0.41806 0.0
C1059 C 0.58399 0.86434 0.36192 0.0
C1060 C 0.62086 0.86123 0.37202 0.0
C1061 C 0.55159 0.8431 0.36957 0.0
C1062 C 0.55571 0.81881 0.38746 0.0
C1063 C 0.59138 0.81892 0.39874 0.0
C1064 C 0.62384 0.83972 0.39099 0.0
C1065 C 0.52476 0.7896 0.39262 0.0
C1066 C 0.48612 0.80274 0.39655 0.0
C1067 C 0.53314 0.74855 0.39262 0.0
C1068 C 0.57243 0.73275 0.38636 0.0
C1069 C 0.59428 0.70918 0.40046 0.0
C1070 C 0.63156 0.69478 0.39463 0.0
C1071 C 0.64716 0.70357 0.37468 0.0
C1072 C 0.62542 0.72661 0.36047 0.0
C1073 C 0.58811 0.74101 0.3662 0.0
H1074 H 0.67605 0.69245 0.37022 0.0
H1075 H 0.30704 0.83174 0.40688 0.0
H1076 H 0.71863 0.15612 0.59477 0.0
H1077 H 0.74908 0.09656 0.60882 0.0
H1078 H 0.63509 0.0547 0.62973 0.0
H1079 H 0.60382 0.11496 0.61553 0.0
H1080 H 0.69767 0.04812 0.66063 0.0
H1081 H 0.67044 0.011 0.59001 0.0
H1082 H 0.66699 0.018 0.55123 0.0
H1083 H 0.79367 0.02472 0.54787 0.0
H1084 H 0.79791 0.01872 0.5867 0.0
H1085 H 0.79456 0.85568 0.67403 0.0
H1086 H 0.74927 0.91102 0.66808 0.0
H1087 H 0.84436 0.97857 0.64054 0.0
H1088 H 0.88989 0.92371 0.64639 0.0
H1089 H 0.77992 0.96439 0.61332 0.0
H1090 H 0.80491 0.00871 0.68493 0.0
H1091 H 0.80695 0.00151 0.72374 0.0
H1092 H 0.68215 0.97814 0.72484 0.0
H1093 H 0.67946 0.98465 0.68598 0.0
C1094 C 0.69983 0.13436 0.60232 0.0
C1095 C 0.65875 0.14024 0.60402 0.0
C1096 C 0.71733 0.10026 0.61029 0.0
C1097 C 0.69426 0.07126 0.62016 0.0
C1098 C 0.65326 0.07687 0.62209 0.0
C1099 C 0.6355 0.11107 0.61388 0.0
C1100 C 0.71395 0.03542 0.62836 0.0
C1101 C 0.71498 0.02914 0.65031 0.0
C1102 C 0.73671 0.0111 0.61479 0.0
C1103 C 0.73445 0.0147 0.59135 0.0
C1104 C 0.69757 0.01437 0.58105 0.0
C1105 C 0.69547 0.01811 0.55904 0.0
C1106 C 0.73008 0.02188 0.54711 0.0
C1107 C 0.76688 0.02185 0.55715 0.0
C1108 C 0.76915 0.01827 0.57917 0.0
C1109 C 0.80619 0.88272 0.66729 0.0
C1110 C 0.84573 0.88491 0.66027 0.0
C1111 C 0.7802 0.91431 0.66392 0.0
C1112 C 0.79345 0.94849 0.6536 0.0
C1113 C 0.8336 0.95216 0.64836 0.0
C1114 C 0.8596 0.92076 0.65179 0.0
C1115 C 0.76498 0.97813 0.64565 0.0
C1116 C 0.76217 0.98296 0.62365 0.0
C1117 C 0.74041 0.00071 0.65917 0.0
C1118 C 0.74208 0.99666 0.68252 0.0
C1119 C 0.77798 0.0016 0.69342 0.0
C1120 C 0.77923 0.99775 0.71544 0.0
C1121 C 0.74473 0.98923 0.72675 0.0
C1122 C 0.70887 0.98466 0.71606 0.0
C1123 C 0.70746 0.98845 0.69404 0.0
H1124 H 0.74576 0.98629 0.74379 0.0
H1125 H 0.72836 0.02479 0.53008 0.0
H1126 H 0.32642 0.18857 0.90533 0.0
H1127 H 0.37769 0.21686 0.92778 0.0
H1128 H 0.46558 0.14468 0.89661 0.0
H1129 H 0.41405 0.1157 0.87411 0.0
H1130 H 0.48111 0.16607 0.94249 0.0
H1131 H 0.44734 0.22385 0.87271 0.0
H1132 H 0.39817 0.24998 0.84746 0.0
H1133 H 0.3603 0.33587 0.89334 0.0
H1134 H 0.40892 0.30975 0.91897 0.0
H1135 H 0.65401 0.2602 0.91422 0.0
H1136 H 0.59452 0.22485 0.92393 0.0
H1137 H 0.53611 0.33546 0.93826 0.0
H1138 H 0.59548 0.37139 0.92739 0.0
H1139 H 0.49591 0.30006 0.91141 0.0
H1140 H 0.54689 0.25692 0.97626 0.0
H1141 H 0.59479 0.23122 0.00224 0.0
H1142 H 0.59957 0.12042 0.96914 0.0
H1143 H 0.55219 0.14558 0.94275 0.0
C1144 C 0.35658 0.17805 0.90358 0.0
C1145 C 0.36674 0.15103 0.88754 0.0
C1146 C 0.38563 0.19381 0.91663 0.0
C1147 C 0.42529 0.18317 0.9136 0.0
C1148 C 0.43498 0.15305 0.89916 0.0
C1149 C 0.40571 0.13688 0.88619 0.0
C1150 C 0.45663 0.20954 0.9214 0.0
C1151 C 0.48466 0.19544 0.93586 0.0
C1152 C 0.45989 0.24837 0.91333 0.0
C1153 C 0.43137 0.26462 0.89778 0.0
C1154 C 0.42835 0.24815 0.87743 0.0
C1155 C 0.40061 0.26296 0.86306 0.0
C1156 C 0.37605 0.2945 0.86881 0.0
C1157 C 0.37929 0.31139 0.88892 0.0
C1158 C 0.40692 0.29661 0.90337 0.0
C1159 C 0.6289 0.27707 0.91995 0.0
C1160 C 0.62909 0.31863 0.91958 0.0
C1161 C 0.59488 0.25668 0.92582 0.0
C1162 C 0.56067 0.27738 0.93194 0.0
C1163 C 0.56208 0.31884 0.9335 0.0
C1164 C 0.59592 0.33935 0.92719 0.0
C1165 C 0.52216 0.25647 0.93214 0.0
C1166 C 0.49234 0.27143 0.91893 0.0
C1167 C 0.51732 0.21875 0.94163 0.0
C1168 C 0.54595 0.20326 0.95745 0.0
C1169 C 0.55833 0.22716 0.97441 0.0
C1170 C 0.58538 0.21266 0.98924 0.0
C1171 C 0.60022 0.17422 0.98734 0.0
C1172 C 0.588 0.15018 0.97061 0.0
C1173 C 0.56096 0.16453 0.95573 0.0
H1174 H 0.62117 0.16305 -0.00117 0.0
H1175 H 0.35458 0.30592 0.85767 0.0
H1176 H 0.88487 0.65513 0.59602 0.0
H1177 H 0.84795 0.60015 0.58046 0.0
H1178 H 0.82171 0.55634 0.64318 0.0
H1179 H 0.86095 0.6098 0.65855 0.0
H1180 H 0.82685 0.49754 0.61945 0.0
H1181 H 0.75944 0.62097 0.61395 0.0
H1182 H 0.74896 0.69068 0.60389 0.0
H1183 H 0.75634 0.65935 0.53816 0.0
H1184 H 0.76802 0.58959 0.54782 0.0
H1185 H 0.62404 0.43452 0.58546 0.0
H1186 H 0.66821 0.49075 0.59046 0.0
H1187 H 0.76435 0.42429 0.56292 0.0
H1188 H 0.7206 0.36802 0.55766 0.0
H1189 H 0.72271 0.53835 0.5685 0.0
H1190 H 0.83677 0.42423 0.60038 0.0
H1191 H 0.83704 0.35811 0.61704 0.0
H1192 H 0.7192 0.37768 0.64033 0.0
H1193 H 0.71834 0.4438 0.62395 0.0
C1194 C 0.87234 0.63281 0.60634 0.0
C1195 C 0.87576 0.63619 0.62838 0.0
C1196 C 0.85084 0.60178 0.59751 0.0
C1197 C 0.83098 0.57479 0.61065 0.0
C1198 C 0.8366 0.57684 0.63268 0.0
C1199 C 0.85912 0.60722 0.64148 0.0
C1200 C 0.8023 0.5462 0.60166 0.0
C1201 C 0.8044 0.50657 0.60817 0.0
C1202 C 0.7719 0.55807 0.58748 0.0
C1203 C 0.76514 0.6001 0.58163 0.0
C1204 C 0.75926 0.62899 0.59735 0.0
C1205 C 0.75312 0.66853 0.59172 0.0
C1206 C 0.75216 0.67947 0.5704 0.0
C1207 C 0.75721 0.65085 0.55467 0.0
C1208 C 0.76374 0.61133 0.56021 0.0
C1209 C 0.65415 0.4323 0.57967 0.0
C1210 C 0.66905 0.39632 0.57171 0.0
C1211 C 0.67937 0.46452 0.58259 0.0
C1212 C 0.71965 0.46108 0.57758 0.0
C1213 C 0.73341 0.4271 0.5672 0.0
C1214 C 0.70826 0.395 0.56418 0.0
C1215 C 0.74819 0.49008 0.58596 0.0
C1216 C 0.7458 0.52957 0.57946 0.0
C1217 C 0.77702 0.47867 0.60099 0.0
C1218 C 0.77731 0.43867 0.61066 0.0
C1219 C 0.81091 0.41432 0.60902 0.0
C1220 C 0.81115 0.37684 0.61842 0.0
C1221 C 0.77803 0.36356 0.62962 0.0
C1222 C 0.74467 0.38778 0.6315 0.0
C1223 C 0.74427 0.42521 0.62212 0.0
H1224 H 0.77829 0.3346 0.63694 0.0
H1225 H 0.74741 0.71009 0.56607 0.0
H1226 H 0.09392 0.14719 0.82893 0.0
H1227 H 0.03852 0.19235 0.82372 0.0
H1228 H 0.11953 0.28661 0.8086 0.0
H1229 H 0.17526 0.24171 0.81375 0.0
H1230 H 0.07374 0.30381 0.84246 0.0
H1231 H 0.0517 0.26018 0.77235 0.0
H1232 H 0.04418 0.21235 0.74321 0.0
H1233 H 0.94185 0.16306 0.7736 0.0
H1234 H 0.94905 0.21016 0.80311 0.0
H1235 H 0.89495 0.41274 0.86195 0.0
H1236 H 0.95408 0.39154 0.84224 0.0
H1237 H 0.9133 0.27073 0.84443 0.0
H1238 H 0.85462 0.29136 0.86333 0.0
H1239 H 0.9443 0.2845 0.80721 0.0
H1240 H 0.98123 0.31023 0.88101 0.0
H1241 H 0.98942 0.3531 0.9123 0.0
H1242 H 0.06393 0.43105 0.87639 0.0
H1243 H 0.05581 0.38876 0.84483 0.0
C1244 C 0.10003 0.17715 0.82383 0.0
C1245 C 0.13913 0.19095 0.82222 0.0
C1246 C 0.06823 0.20295 0.82073 0.0
C1247 C 0.07494 0.24293 0.81588 0.0
C1248 C 0.11375 0.2559 0.81238 0.0
C1249 C 0.14558 0.23008 0.81535 0.0
C1250 C 0.04226 0.27187 0.81825 0.0
C1251 C 0.04576 0.30045 0.83426 0.0
C1252 C 0.00567 0.2671 0.80778 0.0
C1253 C 0.001 0.23874 0.79 0.0
C1254 C 0.02772 0.23899 0.7729 0.0
C1255 C 0.02349 0.21202 0.7563 0.0
C1256 C 0.99256 0.18468 0.75656 0.0
C1257 C 0.96576 0.18429 0.77341 0.0
C1258 C 0.96986 0.21119 0.79006 0.0
C1259 C 0.8986 0.38173 0.8581 0.0
C1260 C 0.87013 0.35379 0.8644 0.0
C1261 C 0.93231 0.36968 0.8468 0.0
C1262 C 0.93819 0.32948 0.84191 0.0
C1263 C 0.90933 0.30192 0.8478 0.0
C1264 C 0.87579 0.31386 0.85883 0.0
C1265 C 0.97536 0.31465 0.83218 0.0
C1266 C 0.97272 0.28885 0.81479 0.0
C1267 C 0.01266 0.32136 0.84162 0.0
C1268 C 0.01748 0.34672 0.86054 0.0
C1269 C -0.00088 0.33667 0.87977 0.0
C1270 C 0.00379 0.36082 0.89755 0.0
C1271 C 0.02706 0.39486 0.89631 0.0
C1272 C 0.04582 0.40474 0.87731 0.0
C1273 C 0.0412 0.38071 0.85948 0.0
H1274 H 0.03065 0.41352 0.91008 0.0
H1275 H 0.98935 0.16381 0.74369 0.0
H1276 H 0.35642 0.55938 0.08144 0.0
H1277 H 0.31383 0.50272 0.07563 0.0
H1278 H 0.22248 0.57943 0.05116 0.0
H1279 H 0.26476 0.63665 0.05729 0.0
H1280 H 0.19696 0.54065 0.0842 0.0
H1281 H 0.25932 0.50259 0.02078 0.0
H1282 H 0.31467 0.49022 -0.0038 0.0
H1283 H 0.35781 0.39761 0.03659 0.0
H1284 H 0.30319 0.40981 0.06163 0.0
H1285 H 0.09125 0.36402 0.11062 0.0
H1286 H 0.11527 0.41712 0.0875 0.0
H1287 H 0.23566 0.38697 0.1036 0.0
H1288 H 0.21223 0.33393 0.12625 0.0
H1289 H 0.22969 0.4037 0.06208 0.0
H1290 H 0.18459 0.46142 0.12946 0.0
H1291 H 0.13373 0.47624 0.1564 0.0
H1292 H 0.06203 0.53317 0.10926 0.0
H1293 H 0.11236 0.51827 0.082 0.0
C1294 C 0.32779 0.56423 0.0742 0.0
C1295 C 0.31365 0.60269 0.07037 0.0
C1296 C 0.30349 0.53162 0.07069 0.0
C1297 C 0.26483 0.53682 0.06302 0.0
C1298 C 0.25215 0.57479 0.05716 0.0
C1299 C 0.27639 0.60748 0.06074 0.0
C1300 C 0.23593 0.50423 0.06534 0.0
C1301 C 0.20334 0.51089 0.07869 0.0
C1302 C 0.24442 0.46537 0.05837 0.0
C1303 C 0.27702 0.45719 0.04313 0.0
C1304 C 0.28068 0.47968 0.02449 0.0
C1305 C 0.31196 0.4727 0.01047 0.0
C1306 C 0.33974 0.44316 0.01483 0.0
C1307 C 0.33623 0.42045 0.03321 0.0
C1308 C 0.30503 0.42733 0.04731 0.0
C1309 C 0.12282 0.3689 0.10929 0.0
C1310 C 0.14981 0.3451 0.12051 0.0
C1311 C 0.13647 0.39898 0.09595 0.0
C1312 C 0.17725 0.40593 0.09384 0.0
C1313 C 0.20409 0.38186 0.1048 0.0
C1314 C 0.19058 0.35179 0.11796 0.0
C1315 C 0.19268 0.44021 0.08187 0.0
C1316 C 0.22247 0.43376 0.06672 0.0
C1317 C 0.18205 0.47935 0.08733 0.0
C1318 C 0.15189 0.48828 0.10368 0.0
C1319 C 0.15783 0.47685 0.12484 0.0
C1320 C 0.12914 0.4853 0.14016 0.0
C1321 C 0.0946 0.5055 0.13453 0.0
C1322 C 0.08874 0.51741 0.11358 0.0
C1323 C 0.11732 0.50898 0.0982 0.0
H1324 H 0.07243 0.51203 0.14642 0.0
H1325 H 0.364 0.43788 0.00398 0.0
H1326 H 0.83409 0.78945 0.3107 0.0
H1327 H 0.8894 0.74304 0.31209 0.0
H1328 H 0.96063 0.83097 0.34337 0.0
H1329 H 0.90572 0.87774 0.34195 0.0
H1330 H 0.0058 0.77797 0.31876 0.0
H1331 H 0.90162 0.77655 0.37277 0.0
H1332 H 0.8319 0.77125 0.38407 0.0
H1333 H 0.82421 0.65629 0.35551 0.0
H1334 H 0.89375 0.66122 0.34375 0.0
H1335 H 0.11828 0.70574 0.39977 0.0
H1336 H 0.06293 0.73641 0.38137 0.0
H1337 H 0.02679 0.62244 0.35769 0.0
H1338 H 0.08258 0.59115 0.37629 0.0
H1339 H 0.96321 0.67578 0.37049 0.0
H1340 H 0.07779 0.67279 0.32689 0.0
H1341 H 0.14928 0.68052 0.32044 0.0
H1342 H 0.13935 0.80561 0.33087 0.0
H1343 H 0.06813 0.79848 0.33835 0.0
C1344 C 0.86192 0.79945 0.31725 0.0
C1345 C 0.86511 0.83691 0.32683 0.0
C1346 C 0.89353 0.77287 0.31794 0.0
C1347 C 0.92862 0.78335 0.32829 0.0
C1348 C 0.93362 0.8223 0.33542 0.0
C1349 C 0.90207 0.84898 0.33468 0.0
C1350 C 0.95653 0.7525 0.3355 0.0
C1351 C 0.99658 0.75535 0.32988 0.0
C1352 C 0.94418 0.72266 0.3498 0.0
C1353 C 0.90264 0.71944 0.35716 0.0
C1354 C 0.88496 0.75026 0.36879 0.0
C1355 C 0.84551 0.74733 0.37529 0.0
C1356 C 0.82362 0.71352 0.37046 0.0
C1357 C 0.84118 0.68251 0.35919 0.0
C1358 C 0.88059 0.68535 0.3526 0.0
C1359 C 0.0982 0.68704 0.39096 0.0
C1360 C 0.105 0.64619 0.38914 0.0
C1361 C 0.06667 0.70461 0.38045 0.0
C1362 C 0.04162 0.68172 0.36779 0.0
C1363 C 0.04624 0.64048 0.36727 0.0
C1364 C 0.07791 0.62271 0.37792 0.0
C1365 C 0.01256 0.70193 0.35418 0.0
C1366 C 0.97234 0.69725 0.35869 0.0
C1367 C 0.02491 0.7302 0.33899 0.0
C1368 C 0.06745 0.73502 0.33334 0.0
C1369 C 0.09085 0.70192 0.32803 0.0
C1370 C 0.13142 0.70615 0.32432 0.0
C1371 C 0.14886 0.74351 0.32532 0.0
C1372 C 0.12578 0.77668 0.3301 0.0
C1373 C 0.0853 0.77253 0.33415 0.0
H1374 H 0.18019 0.74679 0.32228 0.0
H1375 H 0.79308 0.7113 0.3755 0.0
loop_
_geom_bond_atom_site_label_1
_geom_bond_atom_site_label_2
_geom_bond_distance
_geom_bond_site_symmetry_2
_ccdc_geom_bond_type
Sc0 O3 2.025 . S
Sc0 O10 2.105 . S
Sc0 O13 2.105 . S
Sc0 O16 2.105 . S
Sc0 O19 2.105 . S
Sc1 O3 2.025 . S
Sc1 O11 2.105 . S
Sc1 O15 2.105 . S
Sc1 O17 2.105 . S
Sc1 O21 2.105 . S
Sc2 O3 2.025 . S
Sc2 O12 2.105 . S
Sc2 O14 2.105 . S
Sc2 O18 2.105 . S
Sc2 O20 2.105 . S
O3 Sc0 2.025 . S
O3 Sc1 2.025 . S
O3 Sc2 2.025 . S
C4 O10 1.268 . S
C4 O20 1.268 . S
C5 O11 1.268 . S
C5 O19 1.268 . S
C6 O12 1.268 . S
C6 O21 1.268 . S
C7 O13 1.268 . S
C7 O17 1.268 . S
C8 O14 1.268 . S
C8 O16 1.268 . S
C9 O15 1.268 . S
C9 O18 1.268 . S
O10 Sc0 2.105 . S
O10 C4 1.268 . S
O11 Sc1 2.105 . S
O11 C5 1.268 . S
O12 Sc2 2.105 . S
O12 C6 1.268 . S
O13 Sc0 2.105 . S
O13 C7 1.268 . S
O14 Sc2 2.105 . S
O14 C8 1.268 . S
O15 Sc1 2.105 . S
O15 C9 1.268 . S
O16 Sc0 2.105 . S
O16 C8 1.268 . S
O17 Sc1 2.105 . S
O17 C7 1.268 . S
O18 Sc2 2.105 . S
O18 C9 1.268 . S
O19 Sc0 2.105 . S
O19 C5 1.268 . S
O20 Sc2 2.105 . S
O20 C4 1.268 . S
O21 Sc1 2.105 . S
O21 C6 1.268 . S
Sc22 O25 2.025 . S
Sc22 O32 2.105 . S
Sc22 O35 2.105 . S
Sc22 O38 2.105 . S
Sc22 O41 2.105 . S
Sc23 O25 2.025 . S
Sc23 O33 2.105 . S
Sc23 O37 2.105 . S
Sc23 O39 2.105 . S
Sc23 O43 2.105 . S
Sc24 O25 2.025 . S
Sc24 O34 2.105 . S
Sc24 O36 2.105 . S
Sc24 O40 2.105 . S
Sc24 O42 2.105 . S
O25 Sc22 2.025 . S
O25 Sc23 2.025 . S
O25 Sc24 2.025 . S
C26 O32 1.268 . S
C26 O42 1.268 . S
C27 O33 1.268 . S
C27 O41 1.268 . S
C28 O34 1.268 . S
C28 O43 1.268 . S
C29 O35 1.268 . S
C29 O39 1.268 . S
C30 O36 1.268 . S
C30 O38 1.268 . S
C31 O37 1.268 . S
C31 O40 1.268 . S
O32 Sc22 2.105 . S
O32 C26 1.268 . S
O33 Sc23 2.105 . S
O33 C27 1.268 . S
O34 Sc24 2.105 . S
O34 C28 1.268 . S
O35 Sc22 2.105 . S
O35 C29 1.268 . S
O36 Sc24 2.105 . S
O36 C30 1.268 . S
O37 Sc23 2.105 . S
O37 C31 1.268 . S
O38 Sc22 2.105 . S
O38 C30 1.268 . S
O39 Sc23 2.105 . S
O39 C29 1.268 . S
O40 Sc24 2.105 . S
O40 C31 1.268 . S
O41 Sc22 2.105 . S
O41 C27 1.268 . S
O42 Sc24 2.105 . S
O42 C26 1.268 . S
O43 Sc23 2.105 . S
O43 C28 1.268 . S
Sc44 O47 2.025 . S
Sc44 O54 2.105 . S
Sc44 O57 2.105 . S
Sc44 O60 2.105 . S
Sc44 O63 2.105 . S
Sc45 O47 2.025 . S
Sc45 O55 2.105 . S
Sc45 O59 2.105 . S
Sc45 O61 2.105 . S
Sc45 O65 2.105 . S
Sc46 O47 2.025 . S
Sc46 O56 2.105 . S
Sc46 O58 2.105 . S
Sc46 O62 2.105 . S
Sc46 O64 2.105 . S
O47 Sc44 2.025 . S
O47 Sc45 2.025 . S
O47 Sc46 2.025 . S
C48 O54 1.268 . S
C48 O64 1.268 . S
C49 O55 1.268 . S
C49 O63 1.268 . S
C50 O56 1.268 . S
C50 O65 1.268 . S
C51 O57 1.268 . S
C51 O61 1.268 . S
C52 O58 1.268 . S
C52 O60 1.268 . S
C53 O59 1.268 . S
C53 O62 1.268 . S
O54 Sc44 2.105 . S
O54 C48 1.268 . S
O55 Sc45 2.105 . S
O55 C49 1.268 . S
O56 Sc46 2.105 . S
O56 C50 1.268 . S
O57 Sc44 2.105 . S
O57 C51 1.268 . S
O58 Sc46 2.105 . S
O58 C52 1.268 . S
O59 Sc45 2.105 . S
O59 C53 1.268 . S
O60 Sc44 2.105 . S
O60 C52 1.268 . S
O61 Sc45 2.105 . S
O61 C51 1.268 . S
O62 Sc46 2.105 . S
O62 C53 1.268 . S
O63 Sc44 2.105 . S
O63 C49 1.268 . S
O64 Sc46 2.105 . S
O64 C48 1.268 . S
O65 Sc45 2.105 . S
O65 C50 1.268 . S
Sc66 O69 2.025 . S
Sc66 O76 2.105 . S
Sc66 O79 2.105 . S
Sc66 O82 2.105 . S
Sc66 O85 2.105 . S
Sc67 O69 2.025 . S
Sc67 O77 2.105 . S
Sc67 O81 2.105 . S
Sc67 O83 2.105 . S
Sc67 O87 2.105 . S
Sc68 O69 2.025 . S
Sc68 O78 2.105 . S
Sc68 O80 2.105 . S
Sc68 O84 2.105 . S
Sc68 O86 2.105 . S
O69 Sc66 2.025 . S
O69 Sc67 2.025 . S
O69 Sc68 2.025 . S
C70 O76 1.268 . S
C70 O86 1.268 . S
C71 O77 1.268 . S
C71 O85 1.268 . S
C72 O78 1.268 . S
C72 O87 1.268 . S
C73 O79 1.268 . S
C73 O83 1.268 . S
C74 O80 1.268 . S
C74 O82 1.268 . S
C75 O81 1.268 . S
C75 O84 1.268 . S
O76 Sc66 2.105 . S
O76 C70 1.268 . S
O77 Sc67 2.105 . S
O77 C71 1.268 . S
O78 Sc68 2.105 . S
O78 C72 1.268 . S
O79 Sc66 2.105 . S
O79 C73 1.268 . S
O80 Sc68 2.105 . S
O80 C74 1.268 . S
O81 Sc67 2.105 . S
O81 C75 1.268 . S
O82 Sc66 2.105 . S
O82 C74 1.268 . S
O83 Sc67 2.105 . S
O83 C73 1.268 . S
O84 Sc68 2.105 . S
O84 C75 1.268 . S
O85 Sc66 2.105 . S
O85 C71 1.268 . S
O86 Sc68 2.105 . S
O86 C70 1.268 . S
O87 Sc67 2.105 . S
O87 C72 1.268 . S
Sc88 O91 2.025 . S
Sc88 O98 2.105 . S
Sc88 O101 2.105 . S
Sc88 O104 2.105 . S
Sc88 O107 2.105 . S
Sc89 O91 2.025 . S
Sc89 O99 2.105 . S
Sc89 O103 2.105 . S
Sc89 O105 2.105 . S
Sc89 O109 2.105 . S
Sc90 O91 2.025 . S
Sc90 O100 2.105 . S
Sc90 O102 2.105 . S
Sc90 O106 2.105 . S
Sc90 O108 2.105 . S
O91 Sc88 2.025 . S
O91 Sc89 2.025 . S
O91 Sc90 2.025 . S
C92 O98 1.268 . S
C92 O108 1.268 . S
C93 O99 1.268 . S
C93 O107 1.268 . S
C94 O100 1.268 . S
C94 O109 1.268 . S
C95 O101 1.268 . S
C95 O105 1.268 . S
C96 O102 1.268 . S
C96 O104 1.268 . S
C97 O103 1.268 . S
C97 O106 1.268 . S
O98 Sc88 2.105 . S
O98 C92 1.268 . S
O99 Sc89 2.105 . S
O99 C93 1.268 . S
O100 Sc90 2.105 . S
O100 C94 1.268 . S
O101 Sc88 2.105 . S
O101 C95 1.268 . S
O102 Sc90 2.105 . S
O102 C96 1.268 . S
O103 Sc89 2.105 . S
O103 C97 1.268 . S
O104 Sc88 2.105 . S
O104 C96 1.268 . S
O105 Sc89 2.105 . S
O105 C95 1.268 . S
O106 Sc90 2.105 . S
O106 C97 1.268 . S
O107 Sc88 2.105 . S
O107 C93 1.268 . S
O108 Sc90 2.105 . S
O108 C92 1.268 . S
O109 Sc89 2.105 . S
O109 C94 1.268 . S
Sc110 O113 2.025 . S
Sc110 O120 2.105 . S
Sc110 O123 2.105 . S
Sc110 O126 2.105 . S
Sc110 O129 2.105 . S
Sc111 O113 2.025 . S
Sc111 O121 2.105 . S
Sc111 O125 2.105 . S
Sc111 O127 2.105 . S
Sc111 O131 2.105 . S
Sc112 O113 2.025 . S
Sc112 O122 2.105 . S
Sc112 O124 2.105 . S
Sc112 O128 2.105 . S
Sc112 O130 2.105 . S
O113 Sc110 2.025 . S
O113 Sc111 2.025 . S
O113 Sc112 2.025 . S
C114 O120 1.268 . S
C114 O130 1.268 . S
C115 O121 1.268 . S
C115 O129 1.268 . S
C116 O122 1.268 . S
C116 O131 1.268 . S
C117 O123 1.268 . S
C117 O127 1.268 . S
C118 O124 1.268 . S
C118 O126 1.268 . S
C119 O125 1.268 . S
C119 O128 1.268 . S
O120 Sc110 2.105 . S
O120 C114 1.268 . S
O121 Sc111 2.105 . S
O121 C115 1.268 . S
O122 Sc112 2.105 . S
O122 C116 1.268 . S
O123 Sc110 2.105 . S
O123 C117 1.268 . S
O124 Sc112 2.105 . S
O124 C118 1.268 . S
O125 Sc111 2.105 . S
O125 C119 1.268 . S
O126 Sc110 2.105 . S
O126 C118 1.268 . S
O127 Sc111 2.105 . S
O127 C117 1.268 . S
O128 Sc112 2.105 . S
O128 C119 1.268 . S
O129 Sc110 2.105 . S
O129 C115 1.268 . S
O130 Sc112 2.105 . S
O130 C114 1.268 . S
O131 Sc111 2.105 . S
O131 C116 1.268 . S
Sc132 O135 2.025 . S
Sc132 O142 2.105 . S
Sc132 O145 2.105 . S
Sc132 O148 2.105 . S
Sc132 O151 2.105 . S
Sc133 O135 2.025 . S
Sc133 O143 2.105 . S
Sc133 O147 2.105 . S
Sc133 O149 2.105 . S
Sc133 O153 2.105 . S
Sc134 O135 2.025 . S
Sc134 O144 2.105 . S
Sc134 O146 2.105 . S
Sc134 O150 2.105 . S
Sc134 O152 2.105 . S
O135 Sc132 2.025 . S
O135 Sc133 2.025 . S
O135 Sc134 2.025 . S
C136 O142 1.268 . S
C136 O152 1.268 . S
C137 O143 1.268 . S
C137 O151 1.268 . S
C138 O144 1.268 . S
C138 O153 1.268 . S
C139 O145 1.268 . S
C139 O149 1.268 . S
C140 O146 1.268 . S
C140 O148 1.268 . S
C141 O147 1.268 . S
C141 O150 1.268 . S
O142 Sc132 2.105 . S
O142 C136 1.268 . S
O143 Sc133 2.105 . S
O143 C137 1.268 . S
O144 Sc134 2.105 . S
O144 C138 1.268 . S
O145 Sc132 2.105 . S
O145 C139 1.268 . S
O146 Sc134 2.105 . S
O146 C140 1.268 . S
O147 Sc133 2.105 . S
O147 C141 1.268 . S
O148 Sc132 2.105 . S
O148 C140 1.268 . S
O149 Sc133 2.105 . S
O149 C139 1.268 . S
O150 Sc134 2.105 . S
O150 C141 1.268 . S
O151 Sc132 2.105 . S
O151 C137 1.268 . S
O152 Sc134 2.105 . S
O152 C136 1.268 . S
O153 Sc133 2.105 . S
O153 C138 1.268 . S
Sc154 O157 2.025 . S
Sc154 O164 2.105 . S
Sc154 O167 2.105 . S
Sc154 O170 2.105 . S
Sc154 O173 2.105 . S
Sc155 O157 2.025 . S
Sc155 O165 2.105 . S
Sc155 O169 2.105 . S
Sc155 O171 2.105 . S
Sc155 O175 2.105 . S
Sc156 O157 2.025 . S
Sc156 O166 2.105 . S
Sc156 O168 2.105 . S
Sc156 O172 2.105 . S
Sc156 O174 2.105 . S
O157 Sc154 2.025 . S
O157 Sc155 2.025 . S
O157 Sc156 2.025 . S
C158 O164 1.268 . S
C158 O174 1.268 . S
C159 O165 1.268 . S
C159 O173 1.268 . S
C160 O166 1.268 . S
C160 O175 1.268 . S
C161 O167 1.268 . S
C161 O171 1.268 . S
C162 O168 1.268 . S
C162 O170 1.268 . S
C163 O169 1.268 . S
C163 O172 1.268 . S
O164 Sc154 2.105 . S
O164 C158 1.268 . S
O165 Sc155 2.105 . S
O165 C159 1.268 . S
O166 Sc156 2.105 . S
O166 C160 1.268 . S
O167 Sc154 2.105 . S
O167 C161 1.268 . S
O168 Sc156 2.105 . S
O168 C162 1.268 . S
O169 Sc155 2.105 . S
O169 C163 1.268 . S
O170 Sc154 2.105 . S
O170 C162 1.268 . S
O171 Sc155 2.105 . S
O171 C161 1.268 . S
O172 Sc156 2.105 . S
O172 C163 1.268 . S
O173 Sc154 2.105 . S
O173 C159 1.268 . S
O174 Sc156 2.105 . S
O174 C158 1.268 . S
O175 Sc155 2.105 . S
O175 C160 1.268 . S
H176 C194 0.951 . S
H177 C196 0.951 . S
H178 C198 0.951 1_455 S
H179 C199 0.950 . S
H180 C201 0.950 . S
H181 C204 0.950 . S
H182 C205 0.950 . S
H183 C207 0.950 . S
H184 C208 0.950 . S
H185 C209 0.951 1_565 S
H186 C211 0.951 . S
H187 C213 0.950 . S
H188 C214 0.950 . S
H189 C216 0.950 . S
H190 C219 0.950 1_545 S
H191 C220 0.950 . S
H192 C222 0.950 . S
H193 C223 0.950 1_545 S
C194 H176 0.951 . S
C194 C195 1.366 . S
C194 C196 1.388 . S
C195 C194 1.366 . S
C195 C199 1.385 1_655 S
C196 H177 0.951 . S
C196 C194 1.388 . S
C196 C197 1.366 . S
C197 C196 1.366 . S
C197 C198 1.414 . S
C197 C200 1.499 . S
C198 H178 0.951 1_655 S
C198 C197 1.414 . S
C198 C199 1.374 1_655 S
C199 H179 0.950 . S
C199 C195 1.385 1_455 S
C199 C198 1.374 1_455 S
C200 C197 1.499 . S
C200 C201 1.373 . S
C200 C202 1.389 . S
C201 H180 0.950 . S
C201 C200 1.373 . S
C201 C217 1.377 . S
C202 C200 1.389 . S
C202 C203 1.524 . S
C202 C216 1.377 . S
C203 C202 1.524 . S
C203 C204 1.397 . S
C203 C208 1.363 . S
C204 H181 0.950 . S
C204 C203 1.397 . S
C204 C205 1.334 . S
C205 H182 0.950 . S
C205 C204 1.334 . S
C205 C206 1.287 . S
C206 C205 1.287 . S
C206 C207 1.524 . S
C206 H225 0.913 . S
C207 H183 0.950 . S
C207 C206 1.524 . S
C207 C208 1.415 . S
C208 H184 0.950 . S
C208 C203 1.363 . S
C208 C207 1.415 . S
C209 H185 0.951 1_545 S
C209 C210 1.366 . S
C209 C211 1.388 . S
C210 C209 1.366 . S
C210 C214 1.385 . S
C211 H186 0.951 . S
C211 C209 1.388 . S
C211 C212 1.366 . S
C212 C211 1.366 . S
C212 C213 1.414 . S
C212 C215 1.499 . S
C213 H187 0.950 . S
C213 C212 1.414 . S
C213 C214 1.374 . S
C214 H188 0.950 . S
C214 C210 1.385 . S
C214 C213 1.374 . S
C215 C212 1.499 . S
C215 C216 1.373 . S
C215 C217 1.389 . S
C216 H189 0.950 . S
C216 C202 1.377 . S
C216 C215 1.373 . S
C217 C201 1.377 . S
C217 C215 1.389 . S
C217 C218 1.524 . S
C218 C217 1.524 . S
C218 C219 1.397 1_545 S
C218 C223 1.363 1_545 S
C219 H190 0.950 1_565 S
C219 C218 1.397 1_565 S
C219 C220 1.334 . S
C220 H191 0.950 . S
C220 C219 1.334 . S
C220 C221 1.287 . S
C221 C220 1.287 . S
C221 C222 1.524 . S
C221 H224 0.999 . S
C222 H192 0.950 . S
C222 C221 1.524 . S
C222 C223 1.415 . S
C223 H193 0.950 1_565 S
C223 C218 1.363 1_565 S
C223 C222 1.415 . S
H224 C221 0.999 . S
H225 C206 0.913 . S
H226 C244 0.951 . S
H227 C246 0.951 . S
H228 C248 0.950 . S
H229 C249 0.950 . S
H230 C251 0.950 . S
H231 C254 0.950 . S
H232 C255 0.950 . S
H233 C257 0.950 . S
H234 C258 0.950 . S
H235 C259 0.951 . S
H236 C261 0.951 . S
H237 C263 0.950 . S
H238 C264 0.950 . S
H239 C266 0.950 . S
H240 C269 0.950 . S
H241 C270 0.950 . S
H242 C272 0.950 . S
H243 C273 0.950 . S
C244 H226 0.951 . S
C244 C245 1.366 . S
C244 C246 1.388 . S
C245 C244 1.366 . S
C245 C249 1.385 . S
C246 H227 0.951 . S
C246 C244 1.388 . S
C246 C247 1.366 . S
C247 C246 1.366 . S
C247 C248 1.414 . S
C247 C250 1.499 . S
C248 H228 0.950 . S
C248 C247 1.414 . S
C248 C249 1.374 . S
C249 H229 0.950 . S
C249 C245 1.385 . S
C249 C248 1.374 . S
C250 C247 1.499 . S
C250 C251 1.373 . S
C250 C252 1.389 . S
C251 H230 0.950 . S
C251 C250 1.373 . S
C251 C267 1.377 . S
C252 C250 1.389 . S
C252 C253 1.524 . S
C252 C266 1.377 . S
C253 C252 1.524 . S
C253 C254 1.397 . S
C253 C258 1.363 . S
C254 H231 0.950 . S
C254 C253 1.397 . S
C254 C255 1.334 . S
C255 H232 0.950 . S
C255 C254 1.334 . S
C255 C256 1.287 . S
C256 C255 1.287 . S
C256 C257 1.524 . S
C256 H275 0.913 . S
C257 H233 0.950 . S
C257 C256 1.524 . S
C257 C258 1.415 . S
C258 H234 0.950 . S
C258 C253 1.363 . S
C258 C257 1.415 . S
C259 H235 0.951 . S
C259 C260 1.366 . S
C259 C261 1.388 . S
C260 C259 1.366 . S
C260 C264 1.385 . S
C261 H236 0.951 . S
C261 C259 1.388 . S
C261 C262 1.366 . S
C262 C261 1.366 . S
C262 C263 1.414 . S
C262 C265 1.499 . S
C263 H237 0.950 . S
C263 C262 1.414 . S
C263 C264 1.374 . S
C264 H238 0.950 . S
C264 C260 1.385 . S
C264 C263 1.374 . S
C265 C262 1.499 . S
C265 C266 1.373 . S
C265 C267 1.389 . S
C266 H239 0.950 . S
C266 C252 1.377 . S
C266 C265 1.373 . S
C267 C251 1.377 . S
C267 C265 1.389 . S
C267 C268 1.524 . S
C268 C267 1.524 . S
C268 C269 1.397 . S
C268 C273 1.363 . S
C269 H240 0.950 . S
C269 C268 1.397 . S
C269 C270 1.334 . S
C270 H241 0.950 . S
C270 C269 1.334 . S
C270 C271 1.287 . S
C271 C270 1.287 . S
C271 C272 1.524 . S
C271 H274 0.999 . S
C272 H242 0.950 . S
C272 C271 1.524 . S
C272 C273 1.415 . S
C273 H243 0.950 . S
C273 C268 1.363 . S
C273 C272 1.415 . S
H274 C271 0.999 . S
H275 C256 0.913 . S
H276 C294 0.951 . S
H277 C296 0.951 . S
H278 C298 0.950 1_655 S
H279 C299 0.950 . S
H280 C301 0.950 . S
H281 C304 0.950 . S
H282 C305 0.950 . S
H283 C307 0.950 . S
H284 C308 0.950 . S
H285 C309 0.939 1_545 S
H286 C311 0.951 . S
H287 C313 0.950 . S
H288 C314 0.950 . S
H289 C316 0.950 . S
H290 C319 0.950 . S
H291 C320 0.950 . S
H292 C322 0.950 . S
H293 C323 0.950 . S
C294 H276 0.951 . S
C294 C295 1.366 . S
C294 C296 1.388 . S
C295 C294 1.366 . S
C295 C299 1.385 1_455 S
C296 H277 0.951 . S
C296 C294 1.388 . S
C296 C297 1.366 . S
C297 C296 1.366 . S
C297 C298 1.414 . S
C297 C300 1.499 . S
C298 H278 0.950 1_455 S
C298 C297 1.414 . S
C298 C299 1.374 1_455 S
C299 H279 0.950 . S
C299 C295 1.385 1_655 S
C299 C298 1.374 1_655 S
C300 C297 1.499 . S
C300 C301 1.373 . S
C300 C302 1.389 . S
C301 H280 0.950 . S
C301 C300 1.373 . S
C301 C317 1.377 . S
C302 C300 1.389 . S
C302 C303 1.524 . S
C302 C316 1.377 . S
C303 C302 1.524 . S
C303 C304 1.397 . S
C303 C308 1.363 . S
C304 H281 0.950 . S
C304 C303 1.397 . S
C304 C305 1.334 . S
C305 H282 0.950 . S
C305 C304 1.334 . S
C305 C306 1.287 . S
C306 C305 1.287 . S
C306 C307 1.524 . S
C306 H325 0.913 . S
C307 H283 0.950 . S
C307 C306 1.524 . S
C307 C308 1.415 . S
C308 H284 0.950 . S
C308 C303 1.363 . S
C308 C307 1.415 . S
C309 H285 0.939 1_565 S
C309 C310 1.366 . S
C309 C311 1.388 . S
C310 C309 1.366 . S
C310 C314 1.385 . S
C311 H286 0.951 . S
C311 C309 1.388 . S
C311 C312 1.366 . S
C312 C311 1.366 . S
C312 C313 1.414 . S
C312 C315 1.499 . S
C313 H287 0.950 . S
C313 C312 1.414 . S
C313 C314 1.374 . S
C314 H288 0.950 . S
C314 C310 1.385 . S
C314 C313 1.374 . S
C315 C312 1.499 . S
C315 C316 1.373 . S
C315 C317 1.389 . S
C316 H289 0.950 . S
C316 C302 1.377 . S
C316 C315 1.373 . S
C317 C301 1.377 . S
C317 C315 1.389 . S
C317 C318 1.524 . S
C318 C317 1.524 . S
C318 C319 1.397 1_565 S
C318 C323 1.363 . S
C319 H290 0.950 . S
C319 C318 1.397 1_545 S
C319 C320 1.334 . S
C320 H291 0.950 . S
C320 C319 1.334 . S
C320 C321 1.287 . S
C321 C320 1.287 . S
C321 C322 1.524 . S
C321 H324 0.999 . S
C322 H292 0.950 . S
C322 C321 1.524 . S
C322 C323 1.415 1_545 S
C323 H293 0.950 . S
C323 C318 1.363 . S
C323 C322 1.415 1_565 S
H324 C321 0.999 . S
H325 C306 0.913 . S
H326 C344 0.951 . S
H327 C346 0.951 . S
H328 C348 0.950 . S
H329 C349 0.950 . S
H330 C351 0.950 . S
H331 C354 0.950 . S
H332 C355 0.950 . S
H333 C357 0.950 1_556 S
H334 C358 0.939 1_556 S
H335 C359 0.951 . S
H336 C361 0.951 . S
H337 C363 0.950 . S
H338 C364 0.950 . S
H339 C366 0.950 . S
H340 C369 0.950 . S
H341 C370 0.950 . S
H342 C372 0.950 1_554 S
H343 C373 0.938 1_554 S
C344 H326 0.951 . S
C344 C345 1.366 . S
C344 C346 1.388 . S
C345 C344 1.366 . S
C345 C349 1.385 . S
C346 H327 0.951 . S
C346 C344 1.388 . S
C346 C347 1.366 . S
C347 C346 1.366 . S
C347 C348 1.414 . S
C347 C350 1.499 . S
C348 H328 0.950 . S
C348 C347 1.414 . S
C348 C349 1.374 . S
C349 H329 0.950 . S
C349 C345 1.385 . S
C349 C348 1.374 . S
C350 C347 1.499 . S
C350 C351 1.373 . S
C350 C352 1.389 . S
C351 H330 0.950 . S
C351 C350 1.373 . S
C351 C367 1.377 1_554 S
C352 C350 1.389 . S
C352 C353 1.524 . S
C352 C366 1.377 1_554 S
C353 C352 1.524 . S
C353 C354 1.397 . S
C353 C358 1.371 . S
C354 H331 0.950 . S
C354 C353 1.397 . S
C354 C355 1.334 . S
C355 H332 0.950 . S
C355 C354 1.334 . S
C355 C356 1.287 . S
C356 C355 1.287 . S
C356 C357 1.524 . S
C356 H375 0.913 . S
C357 H333 0.950 1_554 S
C357 C356 1.524 . S
C357 C358 1.419 . S
C358 H334 0.939 1_554 S
C358 C353 1.371 . S
C358 C357 1.419 . S
C359 H335 0.951 . S
C359 C360 1.366 . S
C359 C361 1.388 . S
C360 C359 1.366 . S
C360 C364 1.385 . S
C361 H336 0.951 . S
C361 C359 1.388 . S
C361 C362 1.366 . S
C362 C361 1.366 . S
C362 C363 1.414 . S
C362 C365 1.499 . S
C363 H337 0.950 . S
C363 C362 1.414 . S
C363 C364 1.374 . S
C364 H338 0.950 . S
C364 C360 1.385 . S
C364 C363 1.374 . S
C365 C362 1.499 . S
C365 C366 1.373 . S
C365 C367 1.389 . S
C366 H339 0.950 . S
C366 C352 1.377 1_556 S
C366 C365 1.373 . S
C367 C351 1.377 1_556 S
C367 C365 1.389 . S
C367 C368 1.524 . S
C368 C367 1.524 . S
C368 C369 1.397 . S
C368 C373 1.371 . S
C369 H340 0.950 . S
C369 C368 1.397 . S
C369 C370 1.334 . S
C370 H341 0.950 . S
C370 C369 1.334 . S
C370 C371 1.287 . S
C371 C370 1.287 . S
C371 C372 1.524 . S
C371 H374 0.999 . S
C372 H342 0.950 1_556 S
C372 C371 1.524 . S
C372 C373 1.419 . S
C373 H343 0.938 1_556 S
C373 C368 1.371 . S
C373 C372 1.419 . S
H374 C371 0.999 . S
H375 C356 0.913 . S
H376 C394 0.951 . S
H377 C396 0.951 . S
H378 C398 0.950 . S
H379 C399 0.950 . S
H380 C401 0.950 . S
H381 C404 0.950 . S
H382 C405 0.950 . S
H383 C407 0.950 . S
H384 C408 0.950 . S
H385 C409 0.951 . S
H386 C411 0.951 . S
H387 C413 0.950 . S
H388 C414 0.950 . S
H389 C416 0.950 . S
H390 C419 0.950 . S
H391 C420 0.950 . S
H392 C422 0.950 . S
H393 C423 0.950 . S
C394 H376 0.951 . S
C394 C395 1.366 . S
C394 C396 1.388 . S
C395 C394 1.366 . S
C395 C399 1.385 . S
C396 H377 0.951 . S
C396 C394 1.388 . S
C396 C397 1.366 . S
C397 C396 1.366 . S
C397 C398 1.414 . S
C397 C400 1.499 . S
C398 H378 0.950 . S
C398 C397 1.414 . S
C398 C399 1.374 . S
C399 H379 0.950 . S
C399 C395 1.385 . S
C399 C398 1.374 . S
C400 C397 1.499 . S
C400 C401 1.373 . S
C400 C402 1.389 . S
C401 H380 0.950 . S
C401 C400 1.373 . S
C401 C417 1.377 . S
C402 C400 1.389 . S
C402 C403 1.524 . S
C402 C416 1.377 . S
C403 C402 1.524 . S
C403 C404 1.397 . S
C403 C408 1.363 . S
C404 H381 0.950 . S
C404 C403 1.397 . S
C404 C405 1.334 . S
C405 H382 0.950 . S
C405 C404 1.334 . S
C405 C406 1.287 . S
C406 C405 1.287 . S
C406 C407 1.524 . S
C406 H425 0.913 1_455 S
C407 H383 0.950 . S
C407 C406 1.524 . S
C407 C408 1.415 . S
C408 H384 0.950 . S
C408 C403 1.363 . S
C408 C407 1.415 . S
C409 H385 0.951 . S
C409 C410 1.366 . S
C409 C411 1.388 . S
C410 C409 1.366 . S
C410 C414 1.385 . S
C411 H386 0.951 . S
C411 C409 1.388 . S
C411 C412 1.366 . S
C412 C411 1.366 . S
C412 C413 1.414 . S
C412 C415 1.499 . S
C413 H387 0.950 . S
C413 C412 1.414 . S
C413 C414 1.374 . S
C414 H388 0.950 . S
C414 C410 1.385 . S
C414 C413 1.374 . S
C415 C412 1.499 . S
C415 C416 1.373 . S
C415 C417 1.389 . S
C416 H389 0.950 . S
C416 C402 1.377 . S
C416 C415 1.373 . S
C417 C401 1.377 . S
C417 C415 1.389 . S
C417 C418 1.524 . S
C418 C417 1.524 . S
C418 C419 1.397 . S
C418 C423 1.363 . S
C419 H390 0.950 . S
C419 C418 1.397 . S
C419 C420 1.334 . S
C420 H391 0.950 . S
C420 C419 1.334 . S
C420 C421 1.287 . S
C421 C420 1.287 . S
C421 C422 1.524 . S
C421 H424 0.999 . S
C422 H392 0.950 . S
C422 C421 1.524 . S
C422 C423 1.415 . S
C423 H393 0.950 . S
C423 C418 1.363 . S
C423 C422 1.415 . S
H424 C421 0.999 . S
H425 C406 0.913 1_655 S
H426 C444 0.951 1_655 S
H427 C446 0.951 . S
H428 C448 0.950 . S
H429 C449 0.950 . S
H430 C451 0.950 . S
H431 C454 0.950 . S
H432 C455 0.950 . S
H433 C457 0.950 1_655 S
H434 C458 0.950 . S
H435 C459 0.951 . S
H436 C461 0.951 . S
H437 C463 0.950 . S
H438 C464 0.950 . S
H439 C466 0.950 . S
H440 C469 0.950 . S
H441 C470 0.950 . S
H442 C472 0.950 . S
H443 C473 0.950 . S
C444 H426 0.951 1_455 S
C444 C445 1.366 . S
C444 C446 1.388 . S
C445 C444 1.366 . S
C445 C449 1.385 . S
C446 H427 0.951 . S
C446 C444 1.388 . S
C446 C447 1.366 . S
C447 C446 1.366 . S
C447 C448 1.414 . S
C447 C450 1.499 . S
C448 H428 0.950 . S
C448 C447 1.414 . S
C448 C449 1.374 . S
C449 H429 0.950 . S
C449 C445 1.385 . S
C449 C448 1.374 . S
C450 C447 1.499 . S
C450 C451 1.373 . S
C450 C452 1.389 . S
C451 H430 0.950 . S
C451 C450 1.373 . S
C451 C467 1.377 . S
C452 C450 1.389 . S
C452 C453 1.524 . S
C452 C466 1.377 . S
C453 C452 1.524 . S
C453 C454 1.397 . S
C453 C458 1.363 . S
C454 H431 0.950 . S
C454 C453 1.397 . S
C454 C455 1.334 . S
C455 H432 0.950 . S
C455 C454 1.334 . S
C455 C456 1.287 . S
C456 C455 1.287 . S
C456 C457 1.524 . S
C456 H475 0.913 1_455 S
C457 H433 0.950 1_455 S
C457 C456 1.524 . S
C457 C458 1.415 . S
C458 H434 0.950 . S
C458 C453 1.363 . S
C458 C457 1.415 . S
C459 H435 0.951 . S
C459 C460 1.366 . S
C459 C461 1.388 . S
C460 C459 1.366 . S
C460 C464 1.385 . S
C461 H436 0.951 . S
C461 C459 1.388 . S
C461 C462 1.366 . S
C462 C461 1.366 . S
C462 C463 1.414 . S
C462 C465 1.499 . S
C463 H437 0.950 . S
C463 C462 1.414 . S
C463 C464 1.374 . S
C464 H438 0.950 . S
C464 C460 1.385 . S
C464 C463 1.374 . S
C465 C462 1.499 . S
C465 C466 1.373 . S
C465 C467 1.389 . S
C466 H439 0.950 . S
C466 C452 1.377 . S
C466 C465 1.373 . S
C467 C451 1.377 . S
C467 C465 1.389 . S
C467 C468 1.524 . S
C468 C467 1.524 . S
C468 C469 1.397 . S
C468 C473 1.363 . S
C469 H440 0.950 . S
C469 C468 1.397 . S
C469 C470 1.334 . S
C470 H441 0.950 . S
C470 C469 1.334 . S
C470 C471 1.287 . S
C471 C470 1.287 . S
C471 C472 1.524 . S
C471 H474 0.999 . S
C472 H442 0.950 . S
C472 C471 1.524 . S
C472 C473 1.415 . S
C473 H443 0.950 . S
C473 C468 1.363 . S
C473 C472 1.415 . S
H474 C471 0.999 . S
H475 C456 0.913 1_655 S
H476 C494 0.951 . S
H477 C496 0.951 . S
H478 C498 0.950 . S
H479 C499 0.950 . S
H480 C501 0.950 . S
H481 C504 0.950 . S
H482 C505 0.950 . S
H483 C507 0.950 . S
H484 C508 0.950 . S
H485 C509 0.951 . S
H486 C511 0.951 . S
H487 C513 0.950 . S
H488 C514 0.950 . S
H489 C516 0.950 . S
H490 C519 0.950 . S
H491 C520 0.950 . S
H492 C522 0.950 . S
H493 C523 0.950 . S
C494 H476 0.951 . S
C494 C495 1.366 . S
C494 C496 1.388 . S
C495 C494 1.366 . S
C495 C499 1.385 . S
C496 H477 0.951 . S
C496 C494 1.388 . S
C496 C497 1.366 . S
C497 C496 1.366 . S
C497 C498 1.414 . S
C497 C500 1.499 . S
C498 H478 0.950 . S
C498 C497 1.414 . S
C498 C499 1.374 . S
C499 H479 0.950 . S
C499 C495 1.385 . S
C499 C498 1.374 . S
C500 C497 1.499 . S
C500 C501 1.373 . S
C500 C502 1.389 . S
C501 H480 0.950 . S
C501 C500 1.373 . S
C501 C517 1.377 . S
C502 C500 1.389 . S
C502 C503 1.524 . S
C502 C516 1.377 . S
C503 C502 1.524 . S
C503 C504 1.397 . S
C503 C508 1.363 . S
C504 H481 0.950 . S
C504 C503 1.397 . S
C504 C505 1.334 . S
C505 H482 0.950 . S
C505 C504 1.334 . S
C505 C506 1.287 . S
C506 C505 1.287 . S
C506 C507 1.524 . S
C506 H525 0.913 . S
C507 H483 0.950 . S
C507 C506 1.524 . S
C507 C508 1.415 . S
C508 H484 0.950 . S
C508 C503 1.363 . S
C508 C507 1.415 . S
C509 H485 0.951 . S
C509 C510 1.366 . S
C509 C511 1.388 . S
C510 C509 1.366 . S
C510 C514 1.385 . S
C511 H486 0.951 . S
C511 C509 1.388 . S
C511 C512 1.366 . S
C512 C511 1.366 . S
C512 C513 1.414 . S
C512 C515 1.499 . S
C513 H487 0.950 . S
C513 C512 1.414 . S
C513 C514 1.374 . S
C514 H488 0.950 . S
C514 C510 1.385 . S
C514 C513 1.374 . S
C515 C512 1.499 . S
C515 C516 1.373 . S
C515 C517 1.389 . S
C516 H489 0.950 . S
C516 C502 1.377 . S
C516 C515 1.373 . S
C517 C501 1.377 . S
C517 C515 1.389 . S
C517 C518 1.524 . S
C518 C517 1.524 . S
C518 C519 1.397 . S
C518 C523 1.363 . S
C519 H490 0.950 . S
C519 C518 1.397 . S
C519 C520 1.334 . S
C520 H491 0.950 . S
C520 C519 1.334 . S
C520 C521 1.287 . S
C521 C520 1.287 . S
C521 C522 1.524 . S
C521 H524 0.999 . S
C522 H492 0.950 . S
C522 C521 1.524 . S
C522 C523 1.415 . S
C523 H493 0.950 . S
C523 C518 1.363 . S
C523 C522 1.415 . S
H524 C521 0.999 . S
H525 C506 0.913 . S
H526 C544 0.951 . S
H527 C546 0.951 . S
H528 C548 0.950 . S
H529 C549 0.950 1_455 S
H530 C551 0.950 . S
H531 C554 0.950 . S
H532 C555 0.950 1_455 S
H533 C557 0.950 . S
H534 C558 0.950 . S
H535 C559 0.951 . S
H536 C561 0.951 . S
H537 C563 0.950 . S
H538 C564 0.950 . S
H539 C566 0.937 1_556 S
H540 C569 0.950 . S
H541 C570 0.950 . S
H542 C572 0.950 . S
H543 C573 0.950 . S
C544 H526 0.951 . S
C544 C545 1.366 . S
C544 C546 1.388 . S
C545 C544 1.366 . S
C545 C549 1.385 . S
C546 H527 0.951 . S
C546 C544 1.388 . S
C546 C547 1.366 . S
C547 C546 1.366 . S
C547 C548 1.414 . S
C547 C550 1.499 . S
C548 H528 0.950 . S
C548 C547 1.414 . S
C548 C549 1.374 . S
C549 H529 0.950 1_655 S
C549 C545 1.385 . S
C549 C548 1.374 . S
C550 C547 1.499 . S
C550 C551 1.373 . S
C550 C552 1.389 . S
C551 H530 0.950 . S
C551 C550 1.373 . S
C551 C567 1.377 . S
C552 C550 1.389 . S
C552 C553 1.524 . S
C552 C566 1.377 . S
C553 C552 1.524 . S
C553 C554 1.397 . S
C553 C558 1.363 . S
C554 H531 0.950 . S
C554 C553 1.397 . S
C554 C555 1.334 . S
C555 H532 0.950 1_655 S
C555 C554 1.334 . S
C555 C556 1.287 . S
C556 C555 1.287 . S
C556 C557 1.524 . S
C556 H575 0.913 . S
C557 H533 0.950 . S
C557 C556 1.524 . S
C557 C558 1.415 . S
C558 H534 0.950 . S
C558 C553 1.363 . S
C558 C557 1.415 . S
C559 H535 0.951 . S
C559 C560 1.366 . S
C559 C561 1.388 . S
C560 C559 1.366 . S
C560 C564 1.385 . S
C561 H536 0.951 . S
C561 C559 1.388 . S
C561 C562 1.366 . S
C562 C561 1.366 . S
C562 C563 1.414 . S
C562 C565 1.499 1_556 S
C563 H537 0.950 . S
C563 C562 1.414 . S
C563 C564 1.374 . S
C564 H538 0.950 . S
C564 C560 1.385 . S
C564 C563 1.374 . S
C565 C562 1.499 1_554 S
C565 C566 1.373 . S
C565 C567 1.389 . S
C566 H539 0.937 1_554 S
C566 C552 1.377 . S
C566 C565 1.373 . S
C567 C551 1.377 . S
C567 C565 1.389 . S
C567 C568 1.524 . S
C568 C567 1.524 . S
C568 C569 1.397 . S
C568 C573 1.363 . S
C569 H540 0.950 . S
C569 C568 1.397 . S
C569 C570 1.334 . S
C570 H541 0.950 . S
C570 C569 1.334 . S
C570 C571 1.287 . S
C571 C570 1.287 . S
C571 C572 1.524 . S
C571 H574 0.999 . S
C572 H542 0.950 . S
C572 C571 1.524 . S
C572 C573 1.415 . S
C573 H543 0.950 . S
C573 C568 1.363 . S
C573 C572 1.415 . S
H574 C571 0.999 . S
H575 C556 0.913 . S
H576 C594 0.951 . S
H577 C596 0.951 . S
H578 C598 0.950 . S
H579 C599 0.950 . S
H580 C601 0.950 . S
H581 C604 0.950 . S
H582 C605 0.950 . S
H583 C607 0.950 . S
H584 C608 0.950 . S
H585 C609 0.951 . S
H586 C611 0.951 . S
H587 C613 0.950 . S
H588 C614 0.950 . S
H589 C616 0.950 . S
H590 C619 0.950 . S
H591 C620 0.950 . S
H592 C622 0.950 . S
H593 C623 0.950 . S
C594 H576 0.951 . S
C594 C595 1.366 . S
C594 C596 1.388 . S
C595 C594 1.366 . S
C595 C599 1.385 . S
C596 H577 0.951 . S
C596 C594 1.388 . S
C596 C597 1.366 . S
C597 C596 1.366 . S
C597 C598 1.414 . S
C597 C600 1.499 . S
C598 H578 0.950 . S
C598 C597 1.414 . S
C598 C599 1.374 . S
C599 H579 0.950 . S
C599 C595 1.385 . S
C599 C598 1.374 . S
C600 C597 1.499 . S
C600 C601 1.373 . S
C600 C602 1.389 . S
C601 H580 0.950 . S
C601 C600 1.373 . S
C601 C617 1.377 . S
C602 C600 1.389 . S
C602 C603 1.524 . S
C602 C616 1.377 . S
C603 C602 1.524 . S
C603 C604 1.397 . S
C603 C608 1.363 . S
C604 H581 0.950 . S
C604 C603 1.397 . S
C604 C605 1.334 . S
C605 H582 0.950 . S
C605 C604 1.334 . S
C605 C606 1.287 . S
C606 C605 1.287 . S
C606 C607 1.524 . S
C606 H625 0.913 . S
C607 H583 0.950 . S
C607 C606 1.524 . S
C607 C608 1.415 . S
C608 H584 0.950 . S
C608 C603 1.363 . S
C608 C607 1.415 . S
C609 H585 0.951 . S
C609 C610 1.366 . S
C609 C611 1.388 . S
C610 C609 1.366 . S
C610 C614 1.385 . S
C611 H586 0.951 . S
C611 C609 1.388 . S
C611 C612 1.366 . S
C612 C611 1.366 . S
C612 C613 1.414 . S
C612 C615 1.499 . S
C613 H587 0.950 . S
C613 C612 1.414 . S
C613 C614 1.374 . S
C614 H588 0.950 . S
C614 C610 1.385 . S
C614 C613 1.374 . S
C615 C612 1.499 . S
C615 C616 1.373 . S
C615 C617 1.389 . S
C616 H589 0.950 . S
C616 C602 1.377 . S
C616 C615 1.373 . S
C617 C601 1.377 . S
C617 C615 1.389 . S
C617 C618 1.524 . S
C618 C617 1.524 . S
C618 C619 1.397 . S
C618 C623 1.363 . S
C619 H590 0.950 . S
C619 C618 1.397 . S
C619 C620 1.334 . S
C620 H591 0.950 . S
C620 C619 1.334 . S
C620 C621 1.287 . S
C621 C620 1.287 . S
C621 C622 1.524 . S
C621 H624 0.999 . S
C622 H592 0.950 . S
C622 C621 1.524 . S
C622 C623 1.415 . S
C623 H593 0.950 . S
C623 C618 1.363 . S
C623 C622 1.415 . S
H624 C621 0.999 . S
H625 C606 0.913 . S
H626 C644 0.951 . S
H627 C646 0.951 . S
H628 C648 0.950 . S
H629 C649 0.950 . S
H630 C651 0.950 . S
H631 C654 0.950 . S
H632 C655 0.950 . S
H633 C657 0.950 . S
H634 C658 0.950 . S
H635 C659 0.951 . S
H636 C661 0.951 . S
H637 C663 0.950 . S
H638 C664 0.950 . S
H639 C666 0.950 . S
H640 C669 0.950 . S
H641 C670 0.950 . S
H642 C672 0.950 . S
H643 C673 0.950 . S
C644 H626 0.951 . S
C644 C645 1.366 . S
C644 C646 1.388 . S
C645 C644 1.366 . S
C645 C649 1.385 . S
C646 H627 0.951 . S
C646 C644 1.388 . S
C646 C647 1.366 . S
C647 C646 1.366 . S
C647 C648 1.414 . S
C647 C650 1.499 . S
C648 H628 0.950 . S
C648 C647 1.414 . S
C648 C649 1.374 . S
C649 H629 0.950 . S
C649 C645 1.385 . S
C649 C648 1.374 . S
C650 C647 1.499 . S
C650 C651 1.373 . S
C650 C652 1.389 . S
C651 H630 0.950 . S
C651 C650 1.373 . S
C651 C667 1.377 . S
C652 C650 1.389 . S
C652 C653 1.524 . S
C652 C666 1.377 . S
C653 C652 1.524 . S
C653 C654 1.397 . S
C653 C658 1.363 . S
C654 H631 0.950 . S
C654 C653 1.397 . S
C654 C655 1.334 . S
C655 H632 0.950 . S
C655 C654 1.334 . S
C655 C656 1.287 . S
C656 C655 1.287 . S
C656 C657 1.524 . S
C656 H675 0.913 . S
C657 H633 0.950 . S
C657 C656 1.524 . S
C657 C658 1.415 . S
C658 H634 0.950 . S
C658 C653 1.363 . S
C658 C657 1.415 . S
C659 H635 0.951 . S
C659 C660 1.366 . S
C659 C661 1.388 . S
C660 C659 1.366 . S
C660 C664 1.385 . S
C661 H636 0.951 . S
C661 C659 1.388 . S
C661 C662 1.366 . S
C662 C661 1.366 . S
C662 C663 1.414 . S
C662 C665 1.499 . S
C663 H637 0.950 . S
C663 C662 1.414 . S
C663 C664 1.374 . S
C664 H638 0.950 . S
C664 C660 1.385 . S
C664 C663 1.374 . S
C665 C662 1.499 . S
C665 C666 1.373 . S
C665 C667 1.389 . S
C666 H639 0.950 . S
C666 C652 1.377 . S
C666 C665 1.373 . S
C667 C651 1.377 . S
C667 C665 1.389 . S
C667 C668 1.524 . S
C668 C667 1.524 . S
C668 C669 1.397 . S
C668 C673 1.363 . S
C669 H640 0.950 . S
C669 C668 1.397 . S
C669 C670 1.334 . S
C670 H641 0.950 . S
C670 C669 1.334 . S
C670 C671 1.287 . S
C671 C670 1.287 . S
C671 C672 1.524 . S
C671 H674 0.999 . S
C672 H642 0.950 . S
C672 C671 1.524 . S
C672 C673 1.415 . S
C673 H643 0.950 . S
C673 C668 1.363 . S
C673 C672 1.415 . S
H674 C671 0.999 . S
H675 C656 0.913 . S
H676 C694 0.951 . S
H677 C696 0.951 . S
H678 C698 0.950 . S
H679 C699 0.950 . S
H680 C701 0.950 . S
H681 C704 0.950 . S
H682 C705 0.950 . S
H683 C707 0.950 . S
H684 C708 0.944 1_556 S
H685 C709 0.951 . S
H686 C711 0.951 . S
H687 C713 0.950 . S
H688 C714 0.950 1_545 S
H689 C716 0.950 . S
H690 C719 0.950 . S
H691 C720 0.950 . S
H692 C722 0.950 . S
H693 C723 0.950 . S
C694 H676 0.951 . S
C694 C695 1.366 . S
C694 C696 1.388 . S
C695 C694 1.366 . S
C695 C699 1.385 . S
C696 H677 0.951 . S
C696 C694 1.388 . S
C696 C697 1.366 . S
C697 C696 1.366 . S
C697 C698 1.414 . S
C697 C700 1.499 1_554 S
C698 H678 0.950 . S
C698 C697 1.414 . S
C698 C699 1.374 . S
C699 H679 0.950 . S
C699 C695 1.385 . S
C699 C698 1.374 . S
C700 C697 1.499 1_556 S
C700 C701 1.373 . S
C700 C702 1.389 . S
C701 H680 0.950 . S
C701 C700 1.373 . S
C701 C717 1.377 . S
C702 C700 1.389 . S
C702 C703 1.524 1_556 S
C702 C716 1.377 . S
C703 C702 1.524 1_554 S
C703 C704 1.397 . S
C703 C708 1.363 . S
C704 H681 0.950 . S
C704 C703 1.397 . S
C704 C705 1.334 . S
C705 H682 0.950 . S
C705 C704 1.334 . S
C705 C706 1.287 . S
C706 C705 1.287 . S
C706 C707 1.524 . S
C706 H725 0.913 . S
C707 H683 0.950 . S
C707 C706 1.524 . S
C707 C708 1.415 . S
C708 H684 0.944 1_554 S
C708 C703 1.363 . S
C708 C707 1.415 . S
C709 H685 0.951 . S
C709 C710 1.366 . S
C709 C711 1.388 . S
C710 C709 1.366 . S
C710 C714 1.385 . S
C711 H686 0.951 . S
C711 C709 1.388 . S
C711 C712 1.366 . S
C712 C711 1.366 . S
C712 C713 1.414 . S
C712 C715 1.499 . S
C713 H687 0.950 . S
C713 C712 1.414 . S
C713 C714 1.374 . S
C714 H688 0.950 1_565 S
C714 C710 1.385 . S
C714 C713 1.374 . S
C715 C712 1.499 . S
C715 C716 1.373 . S
C715 C717 1.389 . S
C716 H689 0.950 . S
C716 C702 1.377 . S
C716 C715 1.373 . S
C717 C701 1.377 . S
C717 C715 1.389 . S
C717 C718 1.524 . S
C718 C717 1.524 . S
C718 C719 1.397 . S
C718 C723 1.363 . S
C719 H690 0.950 . S
C719 C718 1.397 . S
C719 C720 1.334 . S
C720 H691 0.950 . S
C720 C719 1.334 . S
C720 C721 1.287 . S
C721 C720 1.287 . S
C721 C722 1.524 . S
C721 H724 0.999 . S
C722 H692 0.950 . S
C722 C721 1.524 . S
C722 C723 1.415 . S
C723 H693 0.950 . S
C723 C718 1.363 . S
C723 C722 1.415 . S
H724 C721 0.999 . S
H725 C706 0.913 . S
H726 C744 0.951 . S
H727 C746 0.951 . S
H728 C748 0.950 . S
H729 C749 0.950 . S
H730 C751 0.950 . S
H731 C754 0.950 . S
H732 C755 0.950 . S
H733 C757 0.950 . S
H734 C758 0.950 . S
H735 C759 0.951 . S
H736 C761 0.951 . S
H737 C763 0.950 . S
H738 C764 0.950 . S
H739 C766 0.950 . S
H740 C769 0.950 . S
H741 C770 0.950 . S
H742 C772 0.950 . S
H743 C773 0.950 . S
C744 H726 0.951 . S
C744 C745 1.366 . S
C744 C746 1.388 . S
C745 C744 1.366 . S
C745 C749 1.385 . S
C746 H727 0.951 . S
C746 C744 1.388 . S
C746 C747 1.366 . S
C747 C746 1.366 . S
C747 C748 1.414 . S
C747 C750 1.499 . S
C748 H728 0.950 . S
C748 C747 1.414 . S
C748 C749 1.374 . S
C749 H729 0.950 . S
C749 C745 1.385 . S
C749 C748 1.374 . S
C750 C747 1.499 . S
C750 C751 1.373 . S
C750 C752 1.389 . S
C751 H730 0.950 . S
C751 C750 1.373 . S
C751 C767 1.377 . S
C752 C750 1.389 . S
C752 C753 1.524 . S
C752 C766 1.377 . S
C753 C752 1.524 . S
C753 C754 1.397 . S
C753 C758 1.363 . S
C754 H731 0.950 . S
C754 C753 1.397 . S
C754 C755 1.334 . S
C755 H732 0.950 . S
C755 C754 1.334 . S
C755 C756 1.287 . S
C756 C755 1.287 . S
C756 C757 1.524 . S
C756 H775 0.913 . S
C757 H733 0.950 . S
C757 C756 1.524 . S
C757 C758 1.415 . S
C758 H734 0.950 . S
C758 C753 1.363 . S
C758 C757 1.415 . S
C759 H735 0.951 . S
C759 C760 1.366 . S
C759 C761 1.388 . S
C760 C759 1.366 . S
C760 C764 1.385 . S
C761 H736 0.951 . S
C761 C759 1.388 . S
C761 C762 1.366 . S
C762 C761 1.366 . S
C762 C763 1.414 . S
C762 C765 1.499 . S
C763 H737 0.950 . S
C763 C762 1.414 . S
C763 C764 1.374 . S
C764 H738 0.950 . S
C764 C760 1.385 . S
C764 C763 1.374 . S
C765 C762 1.499 . S
C765 C766 1.373 . S
C765 C767 1.389 . S
C766 H739 0.950 . S
C766 C752 1.377 . S
C766 C765 1.373 . S
C767 C751 1.377 . S
C767 C765 1.389 . S
C767 C768 1.524 . S
C768 C767 1.524 . S
C768 C769 1.397 . S
C768 C773 1.363 . S
C769 H740 0.950 . S
C769 C768 1.397 . S
C769 C770 1.334 . S
C770 H741 0.950 . S
C770 C769 1.334 . S
C770 C771 1.287 . S
C771 C770 1.287 . S
C771 C772 1.524 . S
C771 H774 0.999 . S
C772 H742 0.950 . S
C772 C771 1.524 . S
C772 C773 1.415 . S
C773 H743 0.950 . S
C773 C768 1.363 . S
C773 C772 1.415 . S
H774 C771 0.999 . S
H775 C756 0.913 . S
H776 C794 0.951 . S
H777 C796 0.951 . S
H778 C798 0.950 . S
H779 C799 0.950 . S
H780 C801 0.950 . S
H781 C804 0.950 . S
H782 C805 0.950 . S
H783 C807 0.950 1_554 S
H784 C808 0.950 . S
H785 C809 0.951 . S
H786 C811 0.951 . S
H787 C813 0.950 . S
H788 C814 0.950 . S
H789 C816 0.950 . S
H790 C819 0.950 . S
H791 C820 0.950 . S
H792 C822 0.950 1_556 S
H793 C823 0.950 . S
C794 H776 0.951 . S
C794 C795 1.366 . S
C794 C796 1.388 . S
C795 C794 1.366 . S
C795 C799 1.385 . S
C796 H777 0.951 . S
C796 C794 1.388 . S
C796 C797 1.366 . S
C797 C796 1.366 . S
C797 C798 1.414 . S
C797 C800 1.499 . S
C798 H778 0.950 . S
C798 C797 1.414 . S
C798 C799 1.374 . S
C799 H779 0.950 . S
C799 C795 1.385 . S
C799 C798 1.374 . S
C800 C797 1.499 . S
C800 C801 1.373 . S
C800 C802 1.389 . S
C801 H780 0.950 . S
C801 C800 1.373 . S
C801 C817 1.377 1_556 S
C802 C800 1.389 . S
C802 C803 1.524 . S
C802 C816 1.377 1_556 S
C803 C802 1.524 . S
C803 C804 1.397 . S
C803 C808 1.363 1_556 S
C804 H781 0.950 . S
C804 C803 1.397 . S
C804 C805 1.334 . S
C805 H782 0.950 . S
C805 C804 1.334 . S
C805 C806 1.287 . S
C806 C805 1.287 . S
C806 C807 1.524 . S
C806 H825 0.913 1_545 S
C807 H783 0.950 1_556 S
C807 C806 1.524 . S
C807 C808 1.415 1_556 S
C808 H784 0.950 . S
C808 C803 1.363 1_554 S
C808 C807 1.415 1_554 S
C809 H785 0.951 . S
C809 C810 1.366 . S
C809 C811 1.388 . S
C810 C809 1.366 . S
C810 C814 1.385 . S
C811 H786 0.951 . S
C811 C809 1.388 . S
C811 C812 1.366 . S
C812 C811 1.366 . S
C812 C813 1.414 . S
C812 C815 1.499 . S
C813 H787 0.950 . S
C813 C812 1.414 . S
C813 C814 1.374 . S
C814 H788 0.950 . S
C814 C810 1.385 . S
C814 C813 1.374 . S
C815 C812 1.499 . S
C815 C816 1.373 . S
C815 C817 1.389 . S
C816 H789 0.950 . S
C816 C802 1.377 1_554 S
C816 C815 1.373 . S
C817 C801 1.377 1_554 S
C817 C815 1.389 . S
C817 C818 1.524 . S
C818 C817 1.524 . S
C818 C819 1.397 . S
C818 C823 1.363 1_554 S
C819 H790 0.950 . S
C819 C818 1.397 . S
C819 C820 1.334 . S
C820 H791 0.950 . S
C820 C819 1.334 . S
C820 C821 1.287 . S
C821 C820 1.287 . S
C821 C822 1.524 . S
C821 H824 0.999 . S
C822 H792 0.950 1_554 S
C822 C821 1.524 . S
C822 C823 1.415 1_554 S
C823 H793 0.950 . S
C823 C818 1.363 1_556 S
C823 C822 1.415 1_556 S
H824 C821 0.999 . S
H825 C806 0.913 1_565 S
H826 C844 0.951 . S
H827 C846 0.951 . S
H828 C848 0.950 . S
H829 C849 0.950 . S
H830 C851 0.950 . S
H831 C854 0.950 . S
H832 C855 0.950 . S
H833 C857 0.950 . S
H834 C858 0.950 . S
H835 C859 0.951 . S
H836 C861 0.951 . S
H837 C863 0.950 . S
H838 C864 0.950 . S
H839 C866 0.950 . S
H840 C869 0.950 . S
H841 C870 0.950 . S
H842 C872 0.950 . S
H843 C873 0.950 . S
C844 H826 0.951 . S
C844 C845 1.366 . S
C844 C846 1.388 . S
C845 C844 1.366 . S
C845 C849 1.385 . S
C846 H827 0.951 . S
C846 C844 1.388 . S
C846 C847 1.366 . S
C847 C846 1.366 . S
C847 C848 1.414 . S
C847 C850 1.499 . S
C848 H828 0.950 . S
C848 C847 1.414 . S
C848 C849 1.374 . S
C849 H829 0.950 . S
C849 C845 1.385 . S
C849 C848 1.374 . S
C850 C847 1.499 . S
C850 C851 1.373 . S
C850 C852 1.389 . S
C851 H830 0.950 . S
C851 C850 1.373 . S
C851 C867 1.377 . S
C852 C850 1.389 . S
C852 C853 1.524 . S
C852 C866 1.377 . S
C853 C852 1.524 . S
C853 C854 1.397 . S
C853 C858 1.363 . S
C854 H831 0.950 . S
C854 C853 1.397 . S
C854 C855 1.334 . S
C855 H832 0.950 . S
C855 C854 1.334 . S
C855 C856 1.287 . S
C856 C855 1.287 . S
C856 C857 1.524 . S
C856 H875 0.913 . S
C857 H833 0.950 . S
C857 C856 1.524 . S
C857 C858 1.415 . S
C858 H834 0.950 . S
C858 C853 1.363 . S
C858 C857 1.415 . S
C859 H835 0.951 . S
C859 C860 1.366 . S
C859 C861 1.388 . S
C860 C859 1.366 . S
C860 C864 1.385 . S
C861 H836 0.951 . S
C861 C859 1.388 . S
C861 C862 1.366 . S
C862 C861 1.366 . S
C862 C863 1.414 . S
C862 C865 1.499 . S
C863 H837 0.950 . S
C863 C862 1.414 . S
C863 C864 1.374 . S
C864 H838 0.950 . S
C864 C860 1.385 . S
C864 C863 1.374 . S
C865 C862 1.499 . S
C865 C866 1.373 . S
C865 C867 1.389 . S
C866 H839 0.950 . S
C866 C852 1.377 . S
C866 C865 1.373 . S
C867 C851 1.377 . S
C867 C865 1.389 . S
C867 C868 1.524 . S
C868 C867 1.524 . S
C868 C869 1.397 . S
C868 C873 1.363 . S
C869 H840 0.950 . S
C869 C868 1.397 . S
C869 C870 1.334 . S
C870 H841 0.950 . S
C870 C869 1.334 . S
C870 C871 1.287 . S
C871 C870 1.287 . S
C871 C872 1.524 . S
C871 H874 0.999 . S
C872 H842 0.950 . S
C872 C871 1.524 . S
C872 C873 1.415 . S
C873 H843 0.950 . S
C873 C868 1.363 . S
C873 C872 1.415 . S
H874 C871 0.999 . S
H875 C856 0.913 . S
H876 C894 0.951 . S
H877 C896 0.951 . S
H878 C898 0.950 . S
H879 C899 0.950 . S
H880 C901 0.950 . S
H881 C904 0.950 . S
H882 C905 0.950 . S
H883 C907 0.950 . S
H884 C908 0.950 . S
H885 C909 0.951 . S
H886 C911 0.951 . S
H887 C913 0.950 . S
H888 C914 0.950 . S
H889 C916 0.950 . S
H890 C919 0.950 . S
H891 C920 0.950 . S
H892 C922 0.950 . S
H893 C923 0.950 . S
C894 H876 0.951 . S
C894 C895 1.366 . S
C894 C896 1.388 . S
C895 C894 1.366 . S
C895 C899 1.385 . S
C896 H877 0.951 . S
C896 C894 1.388 . S
C896 C897 1.366 . S
C897 C896 1.366 . S
C897 C898 1.414 . S
C897 C900 1.499 . S
C898 H878 0.950 . S
C898 C897 1.414 . S
C898 C899 1.374 . S
C899 H879 0.950 . S
C899 C895 1.385 . S
C899 C898 1.374 . S
C900 C897 1.499 . S
C900 C901 1.373 . S
C900 C902 1.389 . S
C901 H880 0.950 . S
C901 C900 1.373 . S
C901 C917 1.377 . S
C902 C900 1.389 . S
C902 C903 1.524 . S
C902 C916 1.377 . S
C903 C902 1.524 . S
C903 C904 1.397 . S
C903 C908 1.363 . S
C904 H881 0.950 . S
C904 C903 1.397 . S
C904 C905 1.334 . S
C905 H882 0.950 . S
C905 C904 1.334 . S
C905 C906 1.287 . S
C906 C905 1.287 . S
C906 C907 1.524 . S
C906 H925 0.913 . S
C907 H883 0.950 . S
C907 C906 1.524 . S
C907 C908 1.415 . S
C908 H884 0.950 . S
C908 C903 1.363 . S
C908 C907 1.415 . S
C909 H885 0.951 . S
C909 C910 1.366 . S
C909 C911 1.388 . S
C910 C909 1.366 . S
C910 C914 1.385 . S
C911 H886 0.951 . S
C911 C909 1.388 . S
C911 C912 1.366 . S
C912 C911 1.366 . S
C912 C913 1.414 . S
C912 C915 1.499 . S
C913 H887 0.950 . S
C913 C912 1.414 . S
C913 C914 1.374 . S
C914 H888 0.950 . S
C914 C910 1.385 . S
C914 C913 1.374 . S
C915 C912 1.499 . S
C915 C916 1.373 . S
C915 C917 1.389 . S
C916 H889 0.950 . S
C916 C902 1.377 . S
C916 C915 1.373 . S
C917 C901 1.377 . S
C917 C915 1.389 . S
C917 C918 1.524 . S
C918 C917 1.524 . S
C918 C919 1.397 . S
C918 C923 1.363 . S
C919 H890 0.950 . S
C919 C918 1.397 . S
C919 C920 1.334 . S
C920 H891 0.950 . S
C920 C919 1.334 . S
C920 C921 1.287 . S
C921 C920 1.287 . S
C921 C922 1.524 . S
C921 H924 0.999 . S
C922 H892 0.950 . S
C922 C921 1.524 . S
C922 C923 1.415 . S
C923 H893 0.950 . S
C923 C918 1.363 . S
C923 C922 1.415 . S
H924 C921 0.999 . S
H925 C906 0.913 . S
H926 C944 0.951 . S
H927 C946 0.951 . S
H928 C948 0.950 . S
H929 C949 0.950 . S
H930 C951 0.950 . S
H931 C954 0.950 . S
H932 C955 0.950 . S
H933 C957 0.950 . S
H934 C958 0.950 . S
H935 C959 0.951 . S
H936 C961 0.951 . S
H937 C963 0.950 . S
H938 C964 0.950 . S
H939 C966 0.950 . S
H940 C969 0.950 . S
H941 C970 0.950 . S
H942 C972 0.950 . S
H943 C973 0.950 . S
C944 H926 0.951 . S
C944 C945 1.366 . S
C944 C946 1.388 . S
C945 C944 1.366 . S
C945 C949 1.385 . S
C946 H927 0.951 . S
C946 C944 1.388 . S
C946 C947 1.366 . S
C947 C946 1.366 . S
C947 C948 1.414 . S
C947 C950 1.499 . S
C948 H928 0.950 . S
C948 C947 1.414 . S
C948 C949 1.374 . S
C949 H929 0.950 . S
C949 C945 1.385 . S
C949 C948 1.374 . S
C950 C947 1.499 . S
C950 C951 1.373 . S
C950 C952 1.389 . S
C951 H930 0.950 . S
C951 C950 1.373 . S
C951 C967 1.377 . S
C952 C950 1.389 . S
C952 C953 1.524 . S
C952 C966 1.377 . S
C953 C952 1.524 . S
C953 C954 1.397 . S
C953 C958 1.363 . S
C954 H931 0.950 . S
C954 C953 1.397 . S
C954 C955 1.334 . S
C955 H932 0.950 . S
C955 C954 1.334 . S
C955 C956 1.287 . S
C956 C955 1.287 . S
C956 C957 1.524 . S
C956 H975 0.913 . S
C957 H933 0.950 . S
C957 C956 1.524 . S
C957 C958 1.415 . S
C958 H934 0.950 . S
C958 C953 1.363 . S
C958 C957 1.415 . S
C959 H935 0.951 . S
C959 C960 1.366 . S
C959 C961 1.388 . S
C960 C959 1.366 . S
C960 C964 1.385 . S
C961 H936 0.951 . S
C961 C959 1.388 . S
C961 C962 1.366 . S
C962 C961 1.366 . S
C962 C963 1.414 . S
C962 C965 1.499 . S
C963 H937 0.950 . S
C963 C962 1.414 . S
C963 C964 1.374 . S
C964 H938 0.950 . S
C964 C960 1.385 . S
C964 C963 1.374 . S
C965 C962 1.499 . S
C965 C966 1.373 . S
C965 C967 1.389 . S
C966 H939 0.950 . S
C966 C952 1.377 . S
C966 C965 1.373 . S
C967 C951 1.377 . S
C967 C965 1.389 . S
C967 C968 1.524 . S
C968 C967 1.524 . S
C968 C969 1.397 . S
C968 C973 1.363 . S
C969 H940 0.950 . S
C969 C968 1.397 . S
C969 C970 1.334 . S
C970 H941 0.950 . S
C970 C969 1.334 . S
C970 C971 1.287 . S
C971 C970 1.287 . S
C971 C972 1.524 . S
C971 H974 0.999 . S
C972 H942 0.950 . S
C972 C971 1.524 . S
C972 C973 1.415 . S
C973 H943 0.950 . S
C973 C968 1.363 . S
C973 C972 1.415 . S
H974 C971 0.999 . S
H975 C956 0.913 . S
H976 C994 0.951 . S
H977 C996 0.951 . S
H978 C998 0.950 . S
H979 C999 0.950 . S
H980 C1001 0.950 . S
H981 C1004 0.950 . S
H982 C1005 0.950 . S
H983 C1007 0.950 . S
H984 C1008 0.950 . S
H985 C1009 0.951 . S
H986 C1011 0.951 . S
H987 C1013 0.950 . S
H988 C1014 0.950 . S
H989 C1016 0.950 . S
H990 C1019 0.950 . S
H991 C1020 0.950 . S
H992 C1022 0.950 . S
H993 C1023 0.950 . S
C994 H976 0.951 . S
C994 C995 1.366 . S
C994 C996 1.388 . S
C995 C994 1.366 . S
C995 C999 1.385 . S
C996 H977 0.951 . S
C996 C994 1.388 . S
C996 C997 1.366 . S
C997 C996 1.366 . S
C997 C998 1.414 . S
C997 C1000 1.499 . S
C998 H978 0.950 . S
C998 C997 1.414 . S
C998 C999 1.374 . S
C999 H979 0.950 . S
C999 C995 1.385 . S
C999 C998 1.374 . S
C1000 C997 1.499 . S
C1000 C1001 1.373 1_545 S
C1000 C1002 1.389 . S
C1001 H980 0.950 . S
C1001 C1000 1.373 1_565 S
C1001 C1017 1.377 . S
C1002 C1000 1.389 . S
C1002 C1003 1.524 . S
C1002 C1016 1.377 . S
C1003 C1002 1.524 . S
C1003 C1004 1.397 . S
C1003 C1008 1.363 . S
C1004 H981 0.950 . S
C1004 C1003 1.397 . S
C1004 C1005 1.334 . S
C1005 H982 0.950 . S
C1005 C1004 1.334 . S
C1005 C1006 1.287 . S
C1006 C1005 1.287 . S
C1006 C1007 1.524 . S
C1006 H1025 0.913 . S
C1007 H983 0.950 . S
C1007 C1006 1.524 . S
C1007 C1008 1.415 . S
C1008 H984 0.950 . S
C1008 C1003 1.363 . S
C1008 C1007 1.415 . S
C1009 H985 0.951 . S
C1009 C1010 1.366 . S
C1009 C1011 1.388 . S
C1010 C1009 1.366 . S
C1010 C1014 1.385 . S
C1011 H986 0.951 . S
C1011 C1009 1.388 . S
C1011 C1012 1.366 . S
C1012 C1011 1.366 . S
C1012 C1013 1.414 . S
C1012 C1015 1.499 . S
C1013 H987 0.950 . S
C1013 C1012 1.414 . S
C1013 C1014 1.374 . S
C1014 H988 0.950 . S
C1014 C1010 1.385 . S
C1014 C1013 1.374 . S
C1015 C1012 1.499 . S
C1015 C1016 1.373 1_565 S
C1015 C1017 1.389 . S
C1016 H989 0.950 . S
C1016 C1002 1.377 . S
C1016 C1015 1.373 1_545 S
C1017 C1001 1.377 . S
C1017 C1015 1.389 . S
C1017 C1018 1.524 . S
C1018 C1017 1.524 . S
C1018 C1019 1.397 . S
C1018 C1023 1.363 . S
C1019 H990 0.950 . S
C1019 C1018 1.397 . S
C1019 C1020 1.334 . S
C1020 H991 0.950 . S
C1020 C1019 1.334 . S
C1020 C1021 1.287 . S
C1021 C1020 1.287 . S
C1021 C1022 1.524 . S
C1021 H1024 0.999 . S
C1022 H992 0.950 . S
C1022 C1021 1.524 . S
C1022 C1023 1.415 . S
C1023 H993 0.950 . S
C1023 C1018 1.363 . S
C1023 C1022 1.415 . S
H1024 C1021 0.999 . S
H1025 C1006 0.913 . S
H1026 C1044 0.951 . S
H1027 C1046 0.951 . S
H1028 C1048 0.950 . S
H1029 C1049 0.950 . S
H1030 C1051 0.950 . S
H1031 C1054 0.950 . S
H1032 C1055 0.950 . S
H1033 C1057 0.950 . S
H1034 C1058 0.950 . S
H1035 C1059 0.951 . S
H1036 C1061 0.951 . S
H1037 C1063 0.950 . S
H1038 C1064 0.950 . S
H1039 C1066 0.950 . S
H1040 C1069 0.950 . S
H1041 C1070 0.950 . S
H1042 C1072 0.950 . S
H1043 C1073 0.950 . S
C1044 H1026 0.951 . S
C1044 C1045 1.366 . S
C1044 C1046 1.388 . S
C1045 C1044 1.366 . S
C1045 C1049 1.385 . S
C1046 H1027 0.951 . S
C1046 C1044 1.388 . S
C1046 C1047 1.366 . S
C1047 C1046 1.366 . S
C1047 C1048 1.414 . S
C1047 C1050 1.499 . S
C1048 H1028 0.950 . S
C1048 C1047 1.414 . S
C1048 C1049 1.374 . S
C1049 H1029 0.950 . S
C1049 C1045 1.385 . S
C1049 C1048 1.374 . S
C1050 C1047 1.499 . S
C1050 C1051 1.373 . S
C1050 C1052 1.389 . S
C1051 H1030 0.950 . S
C1051 C1050 1.373 . S
C1051 C1067 1.377 . S
C1052 C1050 1.389 . S
C1052 C1053 1.524 . S
C1052 C1066 1.377 . S
C1053 C1052 1.524 . S
C1053 C1054 1.397 . S
C1053 C1058 1.363 . S
C1054 H1031 0.950 . S
C1054 C1053 1.397 . S
C1054 C1055 1.334 . S
C1055 H1032 0.950 . S
C1055 C1054 1.334 . S
C1055 C1056 1.287 . S
C1056 C1055 1.287 . S
C1056 C1057 1.524 . S
C1056 H1075 0.913 . S
C1057 H1033 0.950 . S
C1057 C1056 1.524 . S
C1057 C1058 1.415 . S
C1058 H1034 0.950 . S
C1058 C1053 1.363 . S
C1058 C1057 1.415 . S
C1059 H1035 0.951 . S
C1059 C1060 1.366 . S
C1059 C1061 1.388 . S
C1060 C1059 1.366 . S
C1060 C1064 1.385 . S
C1061 H1036 0.951 . S
C1061 C1059 1.388 . S
C1061 C1062 1.366 . S
C1062 C1061 1.366 . S
C1062 C1063 1.414 . S
C1062 C1065 1.499 . S
C1063 H1037 0.950 . S
C1063 C1062 1.414 . S
C1063 C1064 1.374 . S
C1064 H1038 0.950 . S
C1064 C1060 1.385 . S
C1064 C1063 1.374 . S
C1065 C1062 1.499 . S
C1065 C1066 1.373 . S
C1065 C1067 1.389 . S
C1066 H1039 0.950 . S
C1066 C1052 1.377 . S
C1066 C1065 1.373 . S
C1067 C1051 1.377 . S
C1067 C1065 1.389 . S
C1067 C1068 1.524 . S
C1068 C1067 1.524 . S
C1068 C1069 1.397 . S
C1068 C1073 1.363 . S
C1069 H1040 0.950 . S
C1069 C1068 1.397 . S
C1069 C1070 1.334 . S
C1070 H1041 0.950 . S
C1070 C1069 1.334 . S
C1070 C1071 1.287 . S
C1071 C1070 1.287 . S
C1071 C1072 1.524 . S
C1071 H1074 0.999 . S
C1072 H1042 0.950 . S
C1072 C1071 1.524 . S
C1072 C1073 1.415 . S
C1073 H1043 0.950 . S
C1073 C1068 1.363 . S
C1073 C1072 1.415 . S
H1074 C1071 0.999 . S
H1075 C1056 0.913 . S
H1076 C1094 0.951 . S
H1077 C1096 0.951 . S
H1078 C1098 0.950 . S
H1079 C1099 0.950 . S
H1080 C1101 0.950 . S
H1081 C1104 0.950 . S
H1082 C1105 0.950 . S
H1083 C1107 0.950 . S
H1084 C1108 0.950 . S
H1085 C1109 0.951 . S
H1086 C1111 0.951 . S
H1087 C1113 0.950 . S
H1088 C1114 0.950 . S
H1089 C1116 0.950 . S
H1090 C1119 0.950 . S
H1091 C1120 0.950 . S
H1092 C1122 0.950 . S
H1093 C1123 0.950 . S
C1094 H1076 0.951 . S
C1094 C1095 1.366 . S
C1094 C1096 1.388 . S
C1095 C1094 1.366 . S
C1095 C1099 1.385 . S
C1096 H1077 0.951 . S
C1096 C1094 1.388 . S
C1096 C1097 1.366 . S
C1097 C1096 1.366 . S
C1097 C1098 1.414 . S
C1097 C1100 1.499 . S
C1098 H1078 0.950 . S
C1098 C1097 1.414 . S
C1098 C1099 1.374 . S
C1099 H1079 0.950 . S
C1099 C1095 1.385 . S
C1099 C1098 1.374 . S
C1100 C1097 1.499 . S
C1100 C1101 1.373 . S
C1100 C1102 1.389 . S
C1101 H1080 0.950 . S
C1101 C1100 1.373 . S
C1101 C1117 1.377 1_545 S
C1102 C1100 1.389 . S
C1102 C1103 1.524 . S
C1102 C1116 1.377 1_545 S
C1103 C1102 1.524 . S
C1103 C1104 1.397 . S
C1103 C1108 1.363 . S
C1104 H1081 0.950 . S
C1104 C1103 1.397 . S
C1104 C1105 1.334 . S
C1105 H1082 0.950 . S
C1105 C1104 1.334 . S
C1105 C1106 1.287 . S
C1106 C1105 1.287 . S
C1106 C1107 1.524 . S
C1106 H1125 0.913 . S
C1107 H1083 0.950 . S
C1107 C1106 1.524 . S
C1107 C1108 1.415 . S
C1108 H1084 0.950 . S
C1108 C1103 1.363 . S
C1108 C1107 1.415 . S
C1109 H1085 0.951 . S
C1109 C1110 1.366 . S
C1109 C1111 1.388 . S
C1110 C1109 1.366 . S
C1110 C1114 1.385 . S
C1111 H1086 0.951 . S
C1111 C1109 1.388 . S
C1111 C1112 1.366 . S
C1112 C1111 1.366 . S
C1112 C1113 1.414 . S
C1112 C1115 1.499 . S
C1113 H1087 0.950 . S
C1113 C1112 1.414 . S
C1113 C1114 1.374 . S
C1114 H1088 0.950 . S
C1114 C1110 1.385 . S
C1114 C1113 1.374 . S
C1115 C1112 1.499 . S
C1115 C1116 1.373 . S
C1115 C1117 1.389 . S
C1116 H1089 0.950 . S
C1116 C1102 1.377 1_565 S
C1116 C1115 1.373 . S
C1117 C1101 1.377 1_565 S
C1117 C1115 1.389 . S
C1117 C1118 1.524 . S
C1118 C1117 1.524 . S
C1118 C1119 1.397 . S
C1118 C1123 1.363 . S
C1119 H1090 0.950 . S
C1119 C1118 1.397 . S
C1119 C1120 1.334 . S
C1120 H1091 0.950 . S
C1120 C1119 1.334 . S
C1120 C1121 1.287 . S
C1121 C1120 1.287 . S
C1121 C1122 1.524 . S
C1121 H1124 0.999 . S
C1122 H1092 0.950 . S
C1122 C1121 1.524 . S
C1122 C1123 1.415 . S
C1123 H1093 0.950 . S
C1123 C1118 1.363 . S
C1123 C1122 1.415 . S
H1124 C1121 0.999 . S
H1125 C1106 0.913 . S
H1126 C1144 0.951 . S
H1127 C1146 0.951 . S
H1128 C1148 0.950 . S
H1129 C1149 0.950 . S
H1130 C1151 0.950 . S
H1131 C1154 0.950 . S
H1132 C1155 0.950 . S
H1133 C1157 0.950 . S
H1134 C1158 0.950 . S
H1135 C1159 0.951 . S
H1136 C1161 0.951 . S
H1137 C1163 0.950 . S
H1138 C1164 0.950 . S
H1139 C1166 0.950 . S
H1140 C1169 0.950 . S
H1141 C1170 0.950 . S
H1142 C1172 0.950 . S
H1143 C1173 0.950 . S
C1144 H1126 0.951 . S
C1144 C1145 1.366 . S
C1144 C1146 1.388 . S
C1145 C1144 1.366 . S
C1145 C1149 1.385 . S
C1146 H1127 0.951 . S
C1146 C1144 1.388 . S
C1146 C1147 1.366 . S
C1147 C1146 1.366 . S
C1147 C1148 1.414 . S
C1147 C1150 1.499 . S
C1148 H1128 0.950 . S
C1148 C1147 1.414 . S
C1148 C1149 1.374 . S
C1149 H1129 0.950 . S
C1149 C1145 1.385 . S
C1149 C1148 1.374 . S
C1150 C1147 1.499 . S
C1150 C1151 1.373 . S
C1150 C1152 1.389 . S
C1151 H1130 0.950 . S
C1151 C1150 1.373 . S
C1151 C1167 1.377 . S
C1152 C1150 1.389 . S
C1152 C1153 1.524 . S
C1152 C1166 1.377 . S
C1153 C1152 1.524 . S
C1153 C1154 1.397 . S
C1153 C1158 1.363 . S
C1154 H1131 0.950 . S
C1154 C1153 1.397 . S
C1154 C1155 1.334 . S
C1155 H1132 0.950 . S
C1155 C1154 1.334 . S
C1155 C1156 1.287 . S
C1156 C1155 1.287 . S
C1156 C1157 1.524 . S
C1156 H1175 0.913 . S
C1157 H1133 0.950 . S
C1157 C1156 1.524 . S
C1157 C1158 1.415 . S
C1158 H1134 0.950 . S
C1158 C1153 1.363 . S
C1158 C1157 1.415 . S
C1159 H1135 0.951 . S
C1159 C1160 1.366 . S
C1159 C1161 1.388 . S
C1160 C1159 1.366 . S
C1160 C1164 1.385 . S
C1161 H1136 0.951 . S
C1161 C1159 1.388 . S
C1161 C1162 1.366 . S
C1162 C1161 1.366 . S
C1162 C1163 1.414 . S
C1162 C1165 1.499 . S
C1163 H1137 0.950 . S
C1163 C1162 1.414 . S
C1163 C1164 1.374 . S
C1164 H1138 0.950 . S
C1164 C1160 1.385 . S
C1164 C1163 1.374 . S
C1165 C1162 1.499 . S
C1165 C1166 1.373 . S
C1165 C1167 1.389 . S
C1166 H1139 0.950 . S
C1166 C1152 1.377 . S
C1166 C1165 1.373 . S
C1167 C1151 1.377 . S
C1167 C1165 1.389 . S
C1167 C1168 1.524 . S
C1168 C1167 1.524 . S
C1168 C1169 1.397 . S
C1168 C1173 1.363 . S
C1169 H1140 0.950 . S
C1169 C1168 1.397 . S
C1169 C1170 1.334 . S
C1170 H1141 0.950 . S
C1170 C1169 1.334 . S
C1170 C1171 1.287 . S
C1171 C1170 1.287 . S
C1171 C1172 1.524 . S
C1171 H1174 0.999 . S
C1172 H1142 0.950 . S
C1172 C1171 1.524 . S
C1172 C1173 1.415 . S
C1173 H1143 0.950 . S
C1173 C1168 1.363 . S
C1173 C1172 1.415 . S
H1174 C1171 0.999 . S
H1175 C1156 0.913 . S
H1176 C1194 0.951 . S
H1177 C1196 0.951 . S
H1178 C1198 0.950 . S
H1179 C1199 0.950 . S
H1180 C1201 0.950 . S
H1181 C1204 0.950 . S
H1182 C1205 0.950 . S
H1183 C1207 0.950 . S
H1184 C1208 0.950 . S
H1185 C1209 0.951 . S
H1186 C1211 0.951 . S
H1187 C1213 0.950 . S
H1188 C1214 0.950 . S
H1189 C1216 0.950 . S
H1190 C1219 0.950 . S
H1191 C1220 0.950 . S
H1192 C1222 0.950 . S
H1193 C1223 0.950 . S
C1194 H1176 0.951 . S
C1194 C1195 1.366 . S
C1194 C1196 1.388 . S
C1195 C1194 1.366 . S
C1195 C1199 1.385 . S
C1196 H1177 0.951 . S
C1196 C1194 1.388 . S
C1196 C1197 1.366 . S
C1197 C1196 1.366 . S
C1197 C1198 1.414 . S
C1197 C1200 1.499 . S
C1198 H1178 0.950 . S
C1198 C1197 1.414 . S
C1198 C1199 1.374 . S
C1199 H1179 0.950 . S
C1199 C1195 1.385 . S
C1199 C1198 1.374 . S
C1200 C1197 1.499 . S
C1200 C1201 1.373 . S
C1200 C1202 1.389 . S
C1201 H1180 0.950 . S
C1201 C1200 1.373 . S
C1201 C1217 1.377 . S
C1202 C1200 1.389 . S
C1202 C1203 1.524 . S
C1202 C1216 1.377 . S
C1203 C1202 1.524 . S
C1203 C1204 1.397 . S
C1203 C1208 1.363 . S
C1204 H1181 0.950 . S
C1204 C1203 1.397 . S
C1204 C1205 1.334 . S
C1205 H1182 0.950 . S
C1205 C1204 1.334 . S
C1205 C1206 1.287 . S
C1206 C1205 1.287 . S
C1206 C1207 1.524 . S
C1206 H1225 0.913 . S
C1207 H1183 0.950 . S
C1207 C1206 1.524 . S
C1207 C1208 1.415 . S
C1208 H1184 0.950 . S
C1208 C1203 1.363 . S
C1208 C1207 1.415 . S
C1209 H1185 0.951 . S
C1209 C1210 1.366 . S
C1209 C1211 1.388 . S
C1210 C1209 1.366 . S
C1210 C1214 1.385 . S
C1211 H1186 0.951 . S
C1211 C1209 1.388 . S
C1211 C1212 1.366 . S
C1212 C1211 1.366 . S
C1212 C1213 1.414 . S
C1212 C1215 1.499 . S
C1213 H1187 0.950 . S
C1213 C1212 1.414 . S
C1213 C1214 1.374 . S
C1214 H1188 0.950 . S
C1214 C1210 1.385 . S
C1214 C1213 1.374 . S
C1215 C1212 1.499 . S
C1215 C1216 1.373 . S
C1215 C1217 1.389 . S
C1216 H1189 0.950 . S
C1216 C1202 1.377 . S
C1216 C1215 1.373 . S
C1217 C1201 1.377 . S
C1217 C1215 1.389 . S
C1217 C1218 1.524 . S
C1218 C1217 1.524 . S
C1218 C1219 1.397 . S
C1218 C1223 1.363 . S
C1219 H1190 0.950 . S
C1219 C1218 1.397 . S
C1219 C1220 1.334 . S
C1220 H1191 0.950 . S
C1220 C1219 1.334 . S
C1220 C1221 1.287 . S
C1221 C1220 1.287 . S
C1221 C1222 1.524 . S
C1221 H1224 0.999 . S
C1222 H1192 0.950 . S
C1222 C1221 1.524 . S
C1222 C1223 1.415 . S
C1223 H1193 0.950 . S
C1223 C1218 1.363 . S
C1223 C1222 1.415 . S
H1224 C1221 0.999 . S
H1225 C1206 0.913 . S
H1226 C1244 0.951 . S
H1227 C1246 0.951 . S
H1228 C1248 0.950 . S
H1229 C1249 0.950 . S
H1230 C1251 0.950 . S
H1231 C1254 0.950 . S
H1232 C1255 0.950 . S
H1233 C1257 0.950 . S
H1234 C1258 0.950 . S
H1235 C1259 0.951 . S
H1236 C1261 0.951 . S
H1237 C1263 0.950 . S
H1238 C1264 0.950 . S
H1239 C1266 0.950 . S
H1240 C1269 0.950 . S
H1241 C1270 0.950 . S
H1242 C1272 0.950 . S
H1243 C1273 0.950 . S
C1244 H1226 0.951 . S
C1244 C1245 1.366 . S
C1244 C1246 1.388 . S
C1245 C1244 1.366 . S
C1245 C1249 1.385 . S
C1246 H1227 0.951 . S
C1246 C1244 1.388 . S
C1246 C1247 1.366 . S
C1247 C1246 1.366 . S
C1247 C1248 1.414 . S
C1247 C1250 1.499 . S
C1248 H1228 0.950 . S
C1248 C1247 1.414 . S
C1248 C1249 1.374 . S
C1249 H1229 0.950 . S
C1249 C1245 1.385 . S
C1249 C1248 1.374 . S
C1250 C1247 1.499 . S
C1250 C1251 1.373 . S
C1250 C1252 1.389 1_455 S
C1251 H1230 0.950 . S
C1251 C1250 1.373 . S
C1251 C1267 1.377 . S
C1252 C1250 1.389 1_655 S
C1252 C1253 1.524 . S
C1252 C1266 1.377 . S
C1253 C1252 1.524 . S
C1253 C1254 1.397 1_655 S
C1253 C1258 1.363 . S
C1254 H1231 0.950 . S
C1254 C1253 1.397 1_455 S
C1254 C1255 1.334 . S
C1255 H1232 0.950 . S
C1255 C1254 1.334 . S
C1255 C1256 1.287 1_455 S
C1256 C1255 1.287 1_655 S
C1256 C1257 1.524 . S
C1256 H1275 0.913 . S
C1257 H1233 0.950 . S
C1257 C1256 1.524 . S
C1257 C1258 1.415 . S
C1258 H1234 0.950 . S
C1258 C1253 1.363 . S
C1258 C1257 1.415 . S
C1259 H1235 0.951 . S
C1259 C1260 1.366 . S
C1259 C1261 1.388 . S
C1260 C1259 1.366 . S
C1260 C1264 1.385 . S
C1261 H1236 0.951 . S
C1261 C1259 1.388 . S
C1261 C1262 1.366 . S
C1262 C1261 1.366 . S
C1262 C1263 1.414 . S
C1262 C1265 1.499 . S
C1263 H1237 0.950 . S
C1263 C1262 1.414 . S
C1263 C1264 1.374 . S
C1264 H1238 0.950 . S
C1264 C1260 1.385 . S
C1264 C1263 1.374 . S
C1265 C1262 1.499 . S
C1265 C1266 1.373 . S
C1265 C1267 1.389 1_655 S
C1266 H1239 0.950 . S
C1266 C1252 1.377 . S
C1266 C1265 1.373 . S
C1267 C1251 1.377 . S
C1267 C1265 1.389 1_455 S
C1267 C1268 1.524 . S
C1268 C1267 1.524 . S
C1268 C1269 1.397 1_455 S
C1268 C1273 1.363 . S
C1269 H1240 0.950 . S
C1269 C1268 1.397 1_655 S
C1269 C1270 1.334 . S
C1270 H1241 0.950 . S
C1270 C1269 1.334 . S
C1270 C1271 1.287 1_655 S
C1271 C1270 1.287 1_455 S
C1271 C1272 1.524 . S
C1271 H1274 0.999 . S
C1272 H1242 0.950 . S
C1272 C1271 1.524 . S
C1272 C1273 1.415 . S
C1273 H1243 0.950 . S
C1273 C1268 1.363 . S
C1273 C1272 1.415 . S
H1274 C1271 0.999 . S
H1275 C1256 0.913 . S
H1276 C1294 0.951 . S
H1277 C1296 0.951 . S
H1278 C1298 0.950 . S
H1279 C1299 0.950 . S
H1280 C1301 0.950 . S
H1281 C1304 0.950 . S
H1282 C1305 0.950 . S
H1283 C1307 0.950 . S
H1284 C1308 0.950 . S
H1285 C1309 0.951 . S
H1286 C1311 0.951 . S
H1287 C1313 0.950 . S
H1288 C1314 0.950 . S
H1289 C1316 0.950 . S
H1290 C1319 0.950 . S
H1291 C1320 0.950 . S
H1292 C1322 0.950 . S
H1293 C1323 0.950 . S
C1294 H1276 0.951 . S
C1294 C1295 1.366 . S
C1294 C1296 1.388 . S
C1295 C1294 1.366 . S
C1295 C1299 1.385 . S
C1296 H1277 0.951 . S
C1296 C1294 1.388 . S
C1296 C1297 1.366 . S
C1297 C1296 1.366 . S
C1297 C1298 1.414 . S
C1297 C1300 1.499 . S
C1298 H1278 0.950 . S
C1298 C1297 1.414 . S
C1298 C1299 1.374 . S
C1299 H1279 0.950 . S
C1299 C1295 1.385 . S
C1299 C1298 1.374 . S
C1300 C1297 1.499 . S
C1300 C1301 1.373 . S
C1300 C1302 1.389 . S
C1301 H1280 0.950 . S
C1301 C1300 1.373 . S
C1301 C1317 1.377 . S
C1302 C1300 1.389 . S
C1302 C1303 1.524 . S
C1302 C1316 1.377 . S
C1303 C1302 1.524 . S
C1303 C1304 1.397 . S
C1303 C1308 1.363 . S
C1304 H1281 0.950 . S
C1304 C1303 1.397 . S
C1304 C1305 1.334 . S
C1305 H1282 0.950 . S
C1305 C1304 1.334 . S
C1305 C1306 1.287 . S
C1306 C1305 1.287 . S
C1306 C1307 1.524 . S
C1306 H1325 0.913 . S
C1307 H1283 0.950 . S
C1307 C1306 1.524 . S
C1307 C1308 1.415 . S
C1308 H1284 0.950 . S
C1308 C1303 1.363 . S
C1308 C1307 1.415 . S
C1309 H1285 0.951 . S
C1309 C1310 1.366 . S
C1309 C1311 1.388 . S
C1310 C1309 1.366 . S
C1310 C1314 1.385 . S
C1311 H1286 0.951 . S
C1311 C1309 1.388 . S
C1311 C1312 1.366 . S
C1312 C1311 1.366 . S
C1312 C1313 1.414 . S
C1312 C1315 1.499 . S
C1313 H1287 0.950 . S
C1313 C1312 1.414 . S
C1313 C1314 1.374 . S
C1314 H1288 0.950 . S
C1314 C1310 1.385 . S
C1314 C1313 1.374 . S
C1315 C1312 1.499 . S
C1315 C1316 1.373 . S
C1315 C1317 1.389 . S
C1316 H1289 0.950 . S
C1316 C1302 1.377 . S
C1316 C1315 1.373 . S
C1317 C1301 1.377 . S
C1317 C1315 1.389 . S
C1317 C1318 1.524 . S
C1318 C1317 1.524 . S
C1318 C1319 1.397 . S
C1318 C1323 1.363 . S
C1319 H1290 0.950 . S
C1319 C1318 1.397 . S
C1319 C1320 1.334 . S
C1320 H1291 0.950 . S
C1320 C1319 1.334 . S
C1320 C1321 1.287 . S
C1321 C1320 1.287 . S
C1321 C1322 1.524 . S
C1321 H1324 0.999 . S
C1322 H1292 0.950 . S
C1322 C1321 1.524 . S
C1322 C1323 1.415 . S
C1323 H1293 0.950 . S
C1323 C1318 1.363 . S
C1323 C1322 1.415 . S
H1324 C1321 0.999 . S
H1325 C1306 0.913 . S
H1326 C1344 0.951 . S
H1327 C1346 0.951 . S
H1328 C1348 0.950 . S
H1329 C1349 0.950 . S
H1330 C1351 0.950 . S
H1331 C1354 0.950 . S
H1332 C1355 0.950 . S
H1333 C1357 0.950 . S
H1334 C1358 0.950 . S
H1335 C1359 0.951 . S
H1336 C1361 0.951 . S
H1337 C1363 0.950 . S
H1338 C1364 0.950 . S
H1339 C1366 0.950 . S
H1340 C1369 0.950 . S
H1341 C1370 0.950 . S
H1342 C1372 0.950 . S
H1343 C1373 0.950 . S
C1344 H1326 0.951 . S
C1344 C1345 1.366 . S
C1344 C1346 1.388 . S
C1345 C1344 1.366 . S
C1345 C1349 1.385 . S
C1346 H1327 0.951 . S
C1346 C1344 1.388 . S
C1346 C1347 1.366 . S
C1347 C1346 1.366 . S
C1347 C1348 1.414 . S
C1347 C1350 1.499 . S
C1348 H1328 0.950 . S
C1348 C1347 1.414 . S
C1348 C1349 1.374 . S
C1349 H1329 0.950 . S
C1349 C1345 1.385 . S
C1349 C1348 1.374 . S
C1350 C1347 1.499 . S
C1350 C1351 1.373 1_655 S
C1350 C1352 1.389 . S
C1351 H1330 0.950 . S
C1351 C1350 1.373 1_455 S
C1351 C1367 1.377 . S
C1352 C1350 1.389 . S
C1352 C1353 1.524 . S
C1352 C1366 1.377 . S
C1353 C1352 1.524 . S
C1353 C1354 1.397 . S
C1353 C1358 1.363 . S
C1354 H1331 0.950 . S
C1354 C1353 1.397 . S
C1354 C1355 1.334 . S
C1355 H1332 0.950 . S
C1355 C1354 1.334 . S
C1355 C1356 1.287 . S
C1356 C1355 1.287 . S
C1356 C1357 1.524 . S
C1356 H1375 0.913 . S
C1357 H1333 0.950 . S
C1357 C1356 1.524 . S
C1357 C1358 1.415 . S
C1358 H1334 0.950 . S
C1358 C1353 1.363 . S
C1358 C1357 1.415 . S
C1359 H1335 0.951 . S
C1359 C1360 1.366 . S
C1359 C1361 1.388 . S
C1360 C1359 1.366 . S
C1360 C1364 1.385 . S
C1361 H1336 0.951 . S
C1361 C1359 1.388 . S
C1361 C1362 1.366 . S
C1362 C1361 1.366 . S
C1362 C1363 1.414 . S
C1362 C1365 1.499 . S
C1363 H1337 0.950 . S
C1363 C1362 1.414 . S
C1363 C1364 1.374 . S
C1364 H1338 0.950 . S
C1364 C1360 1.385 . S
C1364 C1363 1.374 . S
C1365 C1362 1.499 . S
C1365 C1366 1.373 1_455 S
C1365 C1367 1.389 . S
C1366 H1339 0.950 . S
C1366 C1352 1.377 . S
C1366 C1365 1.373 1_655 S
C1367 C1351 1.377 . S
C1367 C1365 1.389 . S
C1367 C1368 1.524 . S
C1368 C1367 1.524 . S
C1368 C1369 1.397 . S
C1368 C1373 1.363 . S
C1369 H1340 0.950 . S
C1369 C1368 1.397 . S
C1369 C1370 1.334 . S
C1370 H1341 0.950 . S
C1370 C1369 1.334 . S
C1370 C1371 1.287 . S
C1371 C1370 1.287 . S
C1371 C1372 1.524 . S
C1371 H1374 0.999 . S
C1372 H1342 0.950 . S
C1372 C1371 1.524 . S
C1372 C1373 1.415 . S
C1373 H1343 0.950 . S
C1373 C1368 1.363 . S
C1373 C1372 1.415 . S
H1374 C1371 0.999 . S
H1375 C1356 0.913 . S
C195 C8 1.674 1_655 S
C210 C158 1.674 1_545 S
C245 C26 1.674 . S
C260 C92 1.674 . S
C295 C52 1.674 1_455 S
C310 C118 1.674 1_565 S
C345 C136 1.674 . S
C360 C74 1.674 . S
C395 C9 1.321 . S
C410 C30 1.394 . S
C445 C48 1.394 1_455 S
C460 C27 1.321 . S
C495 C70 1.394 . S
C510 C53 1.321 . S
C545 C4 1.394 1_655 S
C560 C75 1.320 . S
C595 C93 1.321 . S
C610 C162 1.394 1_545 S
C645 C119 1.320 . S
C660 C96 1.394 . S
C695 C137 1.322 . S
C710 C114 1.394 1_565 S
C745 C140 1.394 . S
C760 C159 1.322 . S
C795 C115 0.594 . S
C810 C5 0.592 . S
C845 C141 0.594 . S
C860 C31 0.592 . S
C895 C163 0.594 . S
C910 C49 0.592 . S
C945 C97 0.594 . S
C960 C71 0.594 . S
C995 C7 1.320 . S
C1010 C139 1.350 . S
C1045 C28 1.319 . S
C1060 C161 1.350 . S
C1095 C95 1.349 . S
C1110 C51 1.319 . S
C1145 C116 1.350 . S
C1160 C73 1.319 . S
C1195 C50 1.349 . S
C1210 C94 1.321 . S
C1245 C117 1.319 . S
C1260 C72 1.349 . S
C1295 C138 1.319 . S
C1310 C6 1.349 . S
C1345 C160 1.321 . S
C1360 C29 1.349 . S
