# Generated by pormake.
# Topology vbm, (6)-cn, num edge types: 1
# Building blocks:
#     Node 0, Type 0, BuildingBlock: PAMTUU_clean_sbu_0, # of connection points: 6
#     Node 1, Type 0, BuildingBlock: PAMTUU_clean_sbu_0, # of connection points: 6
#     Node 2, Type 0, BuildingBlock: PAMTUU_clean_sbu_0, # of connection points: 6
#     Node 3, Type 0, BuildingBlock: PAMTUU_clean_sbu_0, # of connection points: 6
#     Node 4, Type 0, BuildingBlock: PAMTUU_clean_sbu_0, # of connection points: 6
#     Node 5, Type 0, BuildingBlock: PAMTUU_clean_sbu_0, # of connection points: 6
#     Node 6, Type 0, BuildingBlock: PAMTUU_clean_sbu_0, # of connection points: 6
#     Node 7, Type 0, BuildingBlock: PAMTUU_clean_sbu_0, # of connection points: 6
#     Node 8, Type 0, BuildingBlock: PAMTUU_clean_sbu_0, # of connection points: 6
#     Node 9, Type 0, BuildingBlock: PAMTUU_clean_sbu_0, # of connection points: 6
#     Node 10, Type 0, BuildingBlock: PAMTUU_clean_sbu_0, # of connection points: 6
#     Node 11, Type 0, BuildingBlock: PAMTUU_clean_sbu_0, # of connection points: 6
#     Node 12, Type 0, BuildingBlock: PAMTUU_clean_sbu_0, # of connection points: 6
#     Node 13, Type 0, BuildingBlock: PAMTUU_clean_sbu_0, # of connection points: 6
#     Node 14, Type 0, BuildingBlock: PAMTUU_clean_sbu_0, # of connection points: 6
#     Node 15, Type 0, BuildingBlock: PAMTUU_clean_sbu_0, # of connection points: 6
#     Edge 16, Type (0, 0), None
#     Edge 17, Type (0, 0), None
#     Edge 18, Type (0, 0), None
#     Edge 19, Type (0, 0), None
#     Edge 20, Type (0, 0), None
#     Edge 21, Type (0, 0), None
#     Edge 22, Type (0, 0), None
#     Edge 23, Type (0, 0), None
#     Edge 24, Type (0, 0), None
#     Edge 25, Type (0, 0), None
#     Edge 26, Type (0, 0), None
#     Edge 27, Type (0, 0), None
#     Edge 28, Type (0, 0), None
#     Edge 29, Type (0, 0), None
#     Edge 30, Type (0, 0), None
#     Edge 31, Type (0, 0), None
#     Edge 32, Type (0, 0), None
#     Edge 33, Type (0, 0), None
#     Edge 34, Type (0, 0), None
#     Edge 35, Type (0, 0), None
#     Edge 36, Type (0, 0), None
#     Edge 37, Type (0, 0), None
#     Edge 38, Type (0, 0), None
#     Edge 39, Type (0, 0), None
#     Edge 40, Type (0, 0), None
#     Edge 41, Type (0, 0), None
#     Edge 42, Type (0, 0), None
#     Edge 43, Type (0, 0), None
#     Edge 44, Type (0, 0), None
#     Edge 45, Type (0, 0), None
#     Edge 46, Type (0, 0), None
#     Edge 47, Type (0, 0), None
#     Edge 48, Type (0, 0), None
#     Edge 49, Type (0, 0), None
#     Edge 50, Type (0, 0), None
#     Edge 51, Type (0, 0), None
#     Edge 52, Type (0, 0), None
#     Edge 53, Type (0, 0), None
#     Edge 54, Type (0, 0), None
#     Edge 55, Type (0, 0), None
#     Edge 56, Type (0, 0), None
#     Edge 57, Type (0, 0), None
#     Edge 58, Type (0, 0), None
#     Edge 59, Type (0, 0), None
#     Edge 60, Type (0, 0), None
#     Edge 61, Type (0, 0), None
#     Edge 62, Type (0, 0), None
#     Edge 63, Type (0, 0), None
# Relax obj value: 0.110
# Max RMSD: 0.213
# Mean RMSD: 0.213
data_MOF--net-vbm--node1-PAMTUU_clean_sbu_0--edge1-none
_symmetry_space_group_name_H-M    P1
_symmetry_Int_Tables_number       1
_symmetry_cell_setting            triclinic
loop_
_symmetry_equiv_pos_as_xyz
'x, y, z'
_cell_length_a     22.86037
_cell_length_b     15.686781
_cell_length_c     24.840612
_cell_angle_alpha  89.944827
_cell_angle_beta   87.50188
_cell_angle_gamma 89.99915
loop_
_atom_site_label
_atom_site_type_symbol
_atom_site_fract_x
_atom_site_fract_y
_atom_site_fract_z
_atom_type_partial_charge
Tb0 Tb 0.02359 0.25108 0.15767 0.0
Tb1 Tb 0.10592 0.09913 0.10997 0.0
C2 C 0.0538 1.07886 0.22478 0.0
C3 C 0.0093 0.47195 0.17908 0.0
C4 C 0.05595 0.63207 0.14547 0.0
C5 C 0.02401 0.62267 0.19506 0.0
C6 C 0.00356 0.54284 0.2126 0.0
C7 C 0.04082 0.48031 0.12955 0.0
C8 C 0.0652 0.55849 0.11363 0.0
C9 C -0.01482 0.3882 0.19569 0.0
O10 O 0.11015 0.30741 0.14573 0.0
O11 O 0.1726 0.19637 0.12567 0.0
O12 O 0.10814 0.19295 0.04722 0.0
O13 O 0.0233 0.26553 0.06891 0.0
O14 O 0.17331 1.00827 0.11272 0.0
O15 O 0.11126 1.00489 0.04996 0.0
O16 O 0.01275 1.06089 0.109 0.0
O17 O -0.04679 0.17525 0.13178 0.0
O18 O 0.017 0.14341 0.21828 0.0
O19 O 0.10102 1.07342 0.1941 0.0
C20 C 0.16294 0.27764 0.13685 0.0
O21 O -0.04087 0.34642 0.15814 0.0
O22 O 0.02094 0.33947 0.22145 0.0
C23 C 0.0655 0.24325 0.03391 0.0
C24 C 0.12913 0.87595 0.09409 0.0
C25 C 0.07958 0.71733 0.12738 0.0
C26 C 0.09417 0.73423 0.07252 0.0
C27 C 0.12044 0.81131 0.05657 0.0
C28 C 0.11255 0.86107 0.14841 0.0
C29 C 0.08968 0.78238 0.16502 0.0
C30 C 0.14928 0.96145 0.07634 0.0
C31 C -0.03938 0.09748 0.11462 0.0
H32 H 0.01356 0.67683 0.22035 0.0
H33 H -0.01693 0.53655 0.25225 0.0
H34 H 0.04711 0.42609 0.10307 0.0
H35 H 0.09113 0.56022 0.07622 0.0
H36 H 0.08624 0.68806 0.04141 0.0
H37 H 0.13397 0.82017 0.01485 0.0
H38 H 0.11852 0.90955 0.17861 0.0
H39 H 0.08129 0.77308 0.20775 0.0
Tb40 Tb 0.85038 0.87716 0.13929 0.0
Tb41 Tb 0.76405 1.02623 0.11827 0.0
C42 C 0.81322 1.0249 0.22605 0.0
C43 C 0.87593 0.65471 0.15487 0.0
C44 C 0.82676 0.4925 0.13843 0.0
C45 C 0.7959 0.55409 0.16929 0.0
C46 C 0.81991 0.63458 0.17686 0.0
C47 C 0.90555 0.59481 0.12211 0.0
C48 C 0.88176 0.51405 0.11459 0.0
C49 C 0.90044 0.74087 0.16072 0.0
O50 O 0.7657 0.81271 0.1352 0.0
O51 O 0.70023 0.92344 0.13386 0.0
O52 O 0.75665 0.9416 0.05166 0.0
O53 O 0.84996 0.89583 0.05039 0.0
O54 O 0.70301 0.12077 0.14113 0.0
O55 O 0.74579 0.12006 0.0615 0.0
O56 O 0.85551 1.07672 0.11633 0.0
O57 O 0.91772 0.96184 0.11419 0.0
O58 O 0.85586 0.9739 0.2073 0.0
O59 O 0.76361 1.02293 0.20324 0.0
C60 C 0.71182 0.84095 0.13638 0.0
O61 O 0.91038 0.7816 0.11551 0.0
O62 O 0.87516 0.78928 0.19774 0.0
C63 C 0.80282 0.91543 0.02442 0.0
C64 C 0.74602 0.24984 0.10954 0.0
C65 C 0.80052 0.40753 0.12935 0.0
C66 C 0.80852 0.36719 0.07917 0.0
C67 C 0.78239 0.28879 0.06981 0.0
C68 C 0.73978 0.28839 0.16055 0.0
C69 C 0.76646 0.36667 0.17026 0.0
C70 C 0.71915 0.16607 0.0989 0.0
C71 C 0.90872 1.04326 0.11145 0.0
H72 H 0.7528 0.54082 0.1871 0.0
H73 H 0.79443 0.68078 0.20021 0.0
H74 H -0.05322 0.61089 0.10167 0.0
H75 H 0.90669 0.46864 0.09016 0.0
H76 H 0.83414 0.39665 0.04652 0.0
H77 H 0.79078 0.25884 0.03113 0.0
H78 H 0.71397 0.25853 0.19295 0.0
H79 H 0.76048 0.39493 0.20987 0.0
Tb80 Tb 0.01912 0.87623 0.36154 0.0
Tb81 Tb 0.10482 1.02565 0.38401 0.0
C82 C 0.0554 1.0274 0.27535 0.0
C83 C -0.00635 0.65334 0.34576 0.0
C84 C 0.04193 0.49066 0.36291 0.0
C85 C 0.07301 0.55159 0.33159 0.0
C86 C 0.04951 0.63237 0.32375 0.0
C87 C -0.03639 0.59389 0.37863 0.0
C88 C -0.01302 0.51295 0.38652 0.0
C89 C -0.03042 0.73972 0.33959 0.0
O90 O 0.10367 0.81228 0.36728 0.0
O91 O 0.16872 0.92361 0.36551 0.0
O92 O 0.11187 0.93812 0.44938 0.0
O93 O 0.01816 0.89544 0.45044 0.0
O94 O 0.16741 0.11996 0.36497 0.0
O95 O 0.11984 0.11817 0.44243 0.0
O96 O 0.01329 1.07563 0.38524 0.0
O97 O -0.04881 0.96068 0.38516 0.0
O98 O 0.01461 0.97206 0.29281 0.0
O99 O 0.10439 1.03093 0.2992 0.0
C100 C 0.15744 0.8409 0.36429 0.0
O101 O -0.04103 0.78042 0.38466 0.0
O102 O -0.00439 0.78805 0.3029 0.0
C103 C 0.06535 0.9135 0.47669 0.0
C104 C 0.12224 0.24852 0.39487 0.0
C105 C 0.06799 0.4058 0.37297 0.0
C106 C 0.05968 0.36669 0.42356 0.0
C107 C 0.08562 0.28848 0.43391 0.0
C108 C 0.12883 0.28583 0.34344 0.0
C109 C 0.10226 0.36389 0.33269 0.0
C110 C 0.14863 0.16471 0.40657 0.0
C111 C -0.03992 1.04201 0.38876 0.0
H112 H 0.11594 0.53765 0.31368 0.0
H113 H 0.07526 0.67817 0.30026 0.0
H114 H 0.92238 0.61047 0.39889 0.0
H115 H -0.03823 0.46799 0.41113 0.0
H116 H 0.03389 0.39693 0.45576 0.0
H117 H 0.07678 0.25941 0.4728 0.0
H118 H 0.15473 0.25512 0.31148 0.0
H119 H 0.1085 0.39115 0.29279 0.0
Tb120 Tb 0.84592 0.25016 0.3418 0.0
Tb121 Tb 0.76326 0.09853 0.38953 0.0
C122 C 0.81451 1.07958 0.27534 0.0
C123 C 0.86086 0.47056 0.31964 0.0
C124 C 0.81423 0.63084 0.35284 0.0
C125 C 0.84713 0.6216 0.30378 0.0
C126 C 0.86756 0.54172 0.28636 0.0
C127 C 0.82842 0.47883 0.3687 0.0
C128 C 0.80411 0.5571 0.38441 0.0
C129 C 0.88513 0.38672 0.30344 0.0
O130 O 0.75877 0.30598 0.35088 0.0
O131 O 0.69679 0.19747 0.37802 0.0
O132 O 0.76223 0.18958 0.45364 0.0
O133 O 0.84474 0.2673 0.43043 0.0
O134 O 0.69657 1.00699 0.38462 0.0
O135 O 0.75712 1.00279 0.44854 0.0
O136 O 0.85616 1.05925 0.38975 0.0
O137 O 0.91567 0.17474 0.36974 0.0
O138 O 0.85361 0.14073 0.28257 0.0
O139 O 0.76616 1.07986 0.30464 0.0
C140 C 0.70633 0.27758 0.36369 0.0
O141 O 0.91066 0.34512 0.34142 0.0
O142 O 0.84971 0.33782 0.27748 0.0
C143 C 0.80367 0.24267 0.46598 0.0
C144 C 0.74051 0.87449 0.40353 0.0
C145 C 0.79046 0.71608 0.37067 0.0
C146 C 0.77545 0.73284 0.42543 0.0
C147 C 0.74894 0.80979 0.44116 0.0
C148 C 0.75763 0.85987 0.34932 0.0
C149 C 0.7807 0.78121 0.3329 0.0
C150 C 0.71983 0.95966 0.42123 0.0
C151 C 0.90821 0.09629 0.3857 0.0
H152 H 0.8583 0.67599 0.27887 0.0
H153 H 0.88866 0.53556 0.24697 0.0
H154 H 0.82134 0.42445 0.39496 0.0
H155 H 0.7775 0.55879 0.42143 0.0
H156 H 0.78312 0.68655 0.45659 0.0
H157 H 0.7348 0.81843 0.48276 0.0
H158 H 0.75204 0.90861 0.31912 0.0
H159 H 0.78962 0.77197 0.29025 0.0
Tb160 Tb 0.76256 1.08034 0.89029 0.0
Tb161 Tb 0.84488 0.92849 0.84255 0.0
C162 C 0.80298 0.9362 0.96635 0.0
C163 C 0.7394 0.30361 0.90598 0.0
C164 C 0.78892 0.46224 0.87269 0.0
C165 C 0.7743 0.44537 0.92756 0.0
C166 C 0.74803 0.36829 0.9435 0.0
C167 C 0.75604 0.31845 0.85168 0.0
C168 C 0.77889 0.39715 0.83506 0.0
C169 C 0.71922 0.21814 0.92375 0.0
O170 O 0.85572 0.11862 0.8912 0.0
O171 O 0.91524 1.00414 0.86865 0.0
O172 O 0.85162 1.03642 0.78212 0.0
O173 O 0.76715 0.1053 0.80607 0.0
O174 O 0.90934 0.83313 0.84205 0.0
O175 O 0.84759 0.84023 0.77869 0.0
O176 O 0.75826 0.8722 0.8542 0.0
O177 O 0.69585 0.98298 0.87505 0.0
O178 O 0.76041 0.98672 0.95314 0.0
O179 O 0.84508 0.91375 0.9313 0.0
C180 C 0.90785 1.08196 0.88572 0.0
O181 O 0.69524 0.17129 0.88736 0.0
O182 O 0.75719 0.17473 0.95019 0.0
C183 C 0.81452 0.10057 0.77554 0.0
C184 C 0.85913 0.70769 0.82102 0.0
C185 C 0.81251 0.54753 0.85461 0.0
C186 C 0.84449 0.55695 0.80505 0.0
C187 C 0.86491 0.63679 0.78751 0.0
C188 C 0.82755 0.69931 0.87053 0.0
C189 C 0.80319 0.62111 0.88643 0.0
C190 C 0.8833 0.79143 0.80445 0.0
C191 C 0.7055 0.90184 0.8635 0.0
H192 H 0.78218 0.49156 0.95865 0.0
H193 H 0.73444 0.35945 0.98521 0.0
H194 H 0.75014 0.26992 0.82149 0.0
H195 H 0.78733 0.40644 0.79234 0.0
H196 H 0.85501 0.50278 0.77979 0.0
H197 H 0.88541 0.6431 0.74786 0.0
H198 H 0.82122 0.75353 0.897 0.0
H199 H 0.77722 0.61937 0.92381 0.0
Tb200 Tb 0.10442 0.15321 0.88189 0.0
Tb201 Tb 0.01804 0.30229 0.86099 0.0
C202 C 0.06567 0.26388 0.97583 0.0
C203 C 0.12247 0.92958 0.89045 0.0
C204 C 0.0679 0.77189 0.87082 0.0
C205 C 0.0599 0.81238 0.92095 0.0
C206 C 0.08606 0.89079 0.93022 0.0
C207 C 0.12869 0.89088 0.83949 0.0
C208 C 0.10199 0.8126 0.82987 0.0
C209 C 0.1494 1.01333 0.90099 0.0
O210 O 0.01297 0.1027 0.88394 0.0
O211 O -0.04925 0.21758 0.88615 0.0
O212 O 0.01247 0.20549 0.79302 0.0
O213 O 0.10485 0.15709 0.79692 0.0
O214 O -0.04193 0.39782 0.88489 0.0
O215 O -0.00689 0.39016 0.8026 0.0
O216 O 0.10274 0.36675 0.86492 0.0
O217 O 0.16823 0.25605 0.86649 0.0
O218 O 0.11183 0.23761 0.94861 0.0
O219 O 0.01854 0.28361 0.94988 0.0
C220 C -0.04024 0.13616 0.88888 0.0
O221 O 0.16533 1.05865 0.85871 0.0
O222 O 0.12297 1.05932 0.93852 0.0
C223 C 0.05521 0.15475 0.77419 0.0
C224 C -0.00757 0.5247 0.8455 0.0
C225 C 0.04166 0.6869 0.86184 0.0
C226 C 0.07253 0.6252 0.83109 0.0
C227 C 0.04851 0.54472 0.82356 0.0
C228 C -0.03719 0.58469 0.87818 0.0
C229 C -0.01337 0.66545 0.88565 0.0
C230 C -0.03209 0.43856 0.83966 0.0
C231 C 0.15663 0.33852 0.86387 0.0
H232 H 0.03425 0.78303 0.95362 0.0
H233 H 0.07769 0.92084 0.96888 0.0
H234 H 0.15453 0.92062 0.80706 0.0
H235 H 0.10797 0.78421 0.79029 0.0
H236 H 0.11566 0.6384 0.81331 0.0
H237 H 0.07398 0.49846 0.80027 0.0
H238 H 0.92155 0.56869 0.89858 0.0
H239 H -0.03832 0.71094 0.91002 0.0
Tb240 Tb 0.76356 0.15375 0.61658 0.0
Tb241 Tb 0.84937 0.30313 0.63882 0.0
C242 C 0.80301 0.26566 0.52371 0.0
C243 C 0.74603 0.93075 0.60605 0.0
C244 C 0.80033 0.77342 0.62767 0.0
C245 C 0.8086 0.81273 0.57713 0.0
C246 C 0.78261 0.89095 0.56691 0.0
C247 C 0.73947 0.89323 0.65741 0.0
C248 C 0.76606 0.81514 0.66802 0.0
C249 C 0.71958 1.01457 0.59449 0.0
O250 O 0.85508 0.10368 0.61526 0.0
O251 O 0.91719 0.21864 0.61497 0.0
O252 O 0.85403 0.20715 0.70746 0.0
O253 O 0.76384 0.14971 0.70143 0.0
O254 O 0.90949 0.39892 0.61561 0.0
O255 O 0.87307 0.39122 0.69744 0.0
O256 O 0.76481 0.36715 0.63321 0.0
O257 O 0.69967 0.25592 0.63465 0.0
O258 O 0.75651 0.24087 0.551 0.0
O259 O 0.85018 0.28397 0.54993 0.0
C260 C 0.90829 0.13729 0.61153 0.0
O261 O 0.70118 1.05939 0.63619 0.0
O262 O 0.74807 1.06104 0.5584 0.0
C263 C 0.81295 0.15243 0.72511 0.0
C264 C 0.87485 0.52594 0.6546 0.0
C265 C 0.82643 0.68855 0.63758 0.0
C266 C 0.79535 0.62746 0.66876 0.0
C267 C 0.81893 0.54671 0.67654 0.0
C268 C 0.90487 0.58553 0.62183 0.0
C269 C 0.88143 0.66645 0.61401 0.0
C270 C 0.89898 0.43959 0.66071 0.0
C271 C 0.71102 0.3386 0.63598 0.0
H272 H 0.83439 0.78261 0.54487 0.0
H273 H 0.79139 0.92016 0.52805 0.0
H274 H 0.71356 0.9238 0.68943 0.0
H275 H 0.75984 0.7877 0.70787 0.0
H276 H 0.75238 0.64125 0.68663 0.0
H277 H 0.7932 0.5008 0.69995 0.0
H278 H -0.05386 0.56909 0.6016 0.0
H279 H 0.90662 0.71154 0.58948 0.0
Tb280 Tb 0.10511 1.08088 0.61086 0.0
Tb281 Tb 0.0225 0.92928 0.65863 0.0
C282 C 0.06468 0.93673 0.53439 0.0
C283 C 0.12795 0.30498 0.59706 0.0
C284 C 0.07801 0.4634 0.62991 0.0
C285 C 0.09302 0.44663 0.57514 0.0
C286 C 0.11954 0.36968 0.55942 0.0
C287 C 0.11084 0.31962 0.65127 0.0
C288 C 0.08778 0.39828 0.66768 0.0
C289 C 0.14861 0.21982 0.57935 0.0
O290 O 0.01222 0.12014 0.6106 0.0
O291 O -0.04726 1.0046 0.63058 0.0
O292 O 0.01469 1.03885 0.71775 0.0
O293 O 0.10233 0.09911 0.69579 0.0
O294 O -0.04224 0.8343 0.65904 0.0
O295 O 0.01868 0.84172 0.723 0.0
O296 O 0.1097 0.87353 0.64974 0.0
O297 O 0.17157 0.98182 0.62201 0.0
O298 O 0.10602 0.99006 0.54663 0.0
O299 O 0.02373 0.9119 0.57002 0.0
C300 C -0.03982 1.08305 0.61461 0.0
O301 O 0.17179 0.17241 0.61596 0.0
O302 O 0.11134 0.17677 0.55197 0.0
C303 C 0.05393 0.0998 0.72501 0.0
C304 C 0.00761 0.70893 0.68088 0.0
C305 C 0.05425 0.54865 0.64771 0.0
C306 C 0.02132 0.55789 0.69675 0.0
C307 C 0.0009 0.63778 0.71416 0.0
C308 C 0.04008 0.70066 0.63184 0.0
C309 C 0.06439 0.62238 0.61614 0.0
C310 C -0.01671 0.79275 0.69705 0.0
C311 C 0.16209 0.90182 0.6366 0.0
H312 H 0.08535 0.49291 0.54398 0.0
H313 H 0.1337 0.36104 0.51783 0.0
H314 H 0.11643 0.27087 0.68147 0.0
H315 H 0.07886 0.40755 0.71033 0.0
H316 H 0.01012 0.50349 0.72164 0.0
H317 H -0.02022 0.64394 0.75355 0.0
H318 H 0.04718 0.75503 0.60557 0.0
H319 H 0.09102 0.62068 0.57913 0.0
Tb320 Tb 0.52358 0.75111 0.15768 0.0
Tb321 Tb 0.60588 0.59918 0.10995 0.0
C322 C 0.55378 0.57886 0.22475 0.0
C323 C 0.50936 0.97197 0.17911 0.0
C324 C 0.55602 0.13209 0.1455 0.0
C325 C 0.52412 0.12267 0.1951 0.0
C326 C 0.50368 1.04285 0.21264 0.0
C327 C 0.54085 0.98033 0.12956 0.0
C328 C 0.56523 1.05852 0.11364 0.0
C329 C 0.4852 0.88824 0.19572 0.0
O330 O 0.61013 0.80745 0.14579 0.0
O331 O 0.67256 0.69641 0.12564 0.0
O332 O 0.60815 0.69305 0.04724 0.0
O333 O 0.52327 0.76555 0.06892 0.0
O334 O 0.67328 0.50834 0.1127 0.0
O335 O 0.61121 0.50492 0.04996 0.0
O336 O 0.51269 0.56101 0.10894 0.0
O337 O 0.45317 0.67535 0.1318 0.0
O338 O 0.51695 0.64338 0.21826 0.0
O339 O 0.60101 0.57352 0.19408 0.0
C340 C 0.66292 0.77766 0.13689 0.0
O341 O 0.45914 0.84649 0.15815 0.0
O342 O 0.52093 0.83947 0.22148 0.0
C343 C 0.56549 0.7433 0.03392 0.0
C344 C 0.62913 0.376 0.0941 0.0
C345 C 0.57964 0.21735 0.12741 0.0
C346 C 0.59417 0.23427 0.07253 0.0
C347 C 0.62042 0.31136 0.05657 0.0
C348 C 0.61261 0.36109 0.14842 0.0
C349 C 0.58977 0.28239 0.16504 0.0
C350 C 0.64924 0.46151 0.07634 0.0
C351 C 0.46056 0.5976 0.11459 0.0
H352 H 0.51369 0.17683 0.2204 0.0
H353 H 0.48322 1.03655 0.25231 0.0
H354 H 0.5471 0.92612 0.10307 0.0
H355 H 0.59113 1.06025 0.07622 0.0
H356 H 0.58623 0.1881 0.04143 0.0
H357 H 0.63393 0.32023 0.01485 0.0
H358 H 0.6186 0.40956 0.17862 0.0
H359 H 0.58141 0.27307 0.20777 0.0
Tb360 Tb 0.35042 0.37726 0.1393 0.0
Tb361 Tb 0.26401 0.52628 0.1185 0.0
C362 C 0.31319 0.52459 0.22616 0.0
C363 C 0.376 0.15487 0.15483 0.0
C364 C 0.32676 0.99266 0.13853 0.0
C365 C 0.2959 1.05438 0.16927 0.0
C366 C 0.31993 0.13486 0.17678 0.0
C367 C 0.40561 0.09486 0.12214 0.0
C368 C 0.38178 1.01411 0.11469 0.0
C369 C 0.40055 0.241 0.16066 0.0
O370 O 0.26573 0.31277 0.1353 0.0
O371 O 0.2002 0.42342 0.13378 0.0
O372 O 0.25664 0.44207 0.05167 0.0
O373 O 0.3499 0.39591 0.05042 0.0
O374 O 0.20318 0.62085 0.14186 0.0
O375 O 0.24529 0.62023 0.06195 0.0
O376 O 0.35545 0.57684 0.11644 0.0
O377 O 0.41767 0.46198 0.11405 0.0
O378 O 0.35602 0.47408 0.20725 0.0
O379 O 0.26353 0.52202 0.20346 0.0
C380 C 0.21183 0.34095 0.13635 0.0
O381 O 0.4104 0.28172 0.11543 0.0
O382 O 0.37535 0.28941 0.19771 0.0
C383 C 0.3028 0.41573 0.02446 0.0
C384 C 0.24594 0.74994 0.11005 0.0
C385 C 0.30052 0.90766 0.1296 0.0
C386 C 0.30854 0.86707 0.0795 0.0
C387 C 0.28237 0.78865 0.07027 0.0
C388 C 0.23969 0.78873 0.16098 0.0
C389 C 0.26641 0.86702 0.17056 0.0
C390 C 0.21898 0.6662 0.09955 0.0
C391 C 0.40866 0.5434 0.11141 0.0
H392 H 0.25278 1.04121 0.18707 0.0
H393 H 0.29447 0.18114 0.20006 0.0
H394 H 0.44686 0.11085 0.10172 0.0
H395 H 0.40672 0.9686 0.09033 0.0
H396 H 0.3342 0.89636 0.04681 0.0
H397 H 0.29076 0.75853 0.03164 0.0
H398 H 0.21383 0.75906 0.19342 0.0
H399 H 0.26041 0.89547 0.21012 0.0
Tb400 Tb 0.51909 0.37625 0.36148 0.0
Tb401 Tb 0.60484 0.52569 0.38387 0.0
C402 C 0.55537 0.52729 0.27528 0.0
C403 C 0.49361 0.15339 0.34573 0.0
C404 C 0.542 0.99076 0.36282 0.0
C405 C 0.57308 1.05181 0.3316 0.0
C406 C 0.54953 0.13256 0.32379 0.0
C407 C 0.46358 0.09383 0.37852 0.0
C408 C 0.48699 1.01291 0.38637 0.0
C409 C 0.4695 0.23975 0.3396 0.0
O410 O 0.60364 0.31227 0.36708 0.0
O411 O 0.66872 0.42357 0.36556 0.0
O412 O 0.61191 0.43828 0.4493 0.0
O413 O 0.51821 0.39549 0.45037 0.0
O414 O 0.66736 0.62 0.36457 0.0
O415 O 0.62009 0.61829 0.44218 0.0
O416 O 0.51331 0.5757 0.38518 0.0
O417 O 0.45121 0.46074 0.38516 0.0
O418 O 0.5145 0.47213 0.29279 0.0
O419 O 0.60442 0.53051 0.29904 0.0
C420 C 0.65742 0.34087 0.36423 0.0
O421 O 0.45898 0.28044 0.38469 0.0
O422 O 0.49544 0.2881 0.30287 0.0
C423 C 0.5654 0.41363 0.47661 0.0
C424 C 0.62237 0.74862 0.39459 0.0
C425 C 0.56809 0.90592 0.37281 0.0
C426 C 0.5598 0.86673 0.42338 0.0
C427 C 0.58577 0.78851 0.43368 0.0
C428 C 0.62895 0.78603 0.34319 0.0
C429 C 0.60237 0.8641 0.33251 0.0
C430 C 0.64877 0.66479 0.40622 0.0
C431 C 0.4601 0.54207 0.38874 0.0
H432 H 0.61606 1.03797 0.31374 0.0
H433 H 0.57527 0.17844 0.30036 0.0
H434 H 0.4223 0.11031 0.39874 0.0
H435 H 0.46179 0.96786 0.41091 0.0
H436 H 0.53401 0.89691 0.4556 0.0
H437 H 0.57696 0.75939 0.47255 0.0
H438 H 0.65485 0.75538 0.3112 0.0
H439 H 0.60861 0.89145 0.29263 0.0
Tb440 Tb 0.34596 0.75013 0.34164 0.0
Tb441 Tb 0.26331 0.59855 0.38939 0.0
C442 C 0.31446 0.57971 0.27527 0.0
C443 C 0.36089 0.97046 0.31934 0.0
C444 C 0.31426 0.13075 0.35248 0.0
C445 C 0.34726 0.12152 0.30348 0.0
C446 C 0.36768 1.04162 0.28608 0.0
C447 C 0.32835 0.97873 0.36834 0.0
C448 C 0.30405 1.05701 0.38403 0.0
C449 C 0.38519 0.88662 0.30319 0.0
O450 O 0.25873 0.80583 0.35044 0.0
O451 O 0.19686 0.69766 0.37843 0.0
O452 O 0.26253 0.6892 0.45371 0.0
O453 O 0.34467 0.76766 0.43023 0.0
O454 O 0.19667 0.50698 0.38418 0.0
O455 O 0.25703 0.50259 0.44824 0.0
O456 O 0.35619 0.55921 0.38957 0.0
O457 O 0.41566 0.67482 0.36981 0.0
O458 O 0.3538 0.64049 0.28257 0.0
O459 O 0.26602 0.58065 0.30443 0.0
C460 C 0.20635 0.77761 0.36372 0.0
O461 O 0.41071 0.84508 0.34121 0.0
O462 O 0.34981 0.83765 0.27724 0.0
C463 C 0.3038 0.74269 0.4659 0.0
C464 C 0.24051 0.3744 0.4031 0.0
C465 C 0.29049 0.216 0.37028 0.0
C466 C 0.27544 0.23277 0.42503 0.0
C467 C 0.2489 0.30971 0.44074 0.0
C468 C 0.25767 0.35979 0.3489 0.0
C469 C 0.28075 0.28112 0.3325 0.0
C470 C 0.21981 0.45955 0.4208 0.0
C471 C 0.40822 0.59632 0.38568 0.0
H472 H 0.35851 0.17593 0.27862 0.0
H473 H 0.38884 1.03546 0.24671 0.0
H474 H 0.3212 0.92435 0.39459 0.0
H475 H 0.27737 1.05871 0.42101 0.0
H476 H 0.28308 0.18648 0.4562 0.0
H477 H 0.2347 0.31833 0.48233 0.0
H478 H 0.25211 0.40854 0.31869 0.0
H479 H 0.28972 0.27186 0.28985 0.0
Tb480 Tb 0.26256 0.58029 0.89034 0.0
Tb481 Tb 0.34485 0.42828 0.84264 0.0
C482 C 0.30294 0.43617 0.96636 0.0
C483 C 0.23926 0.8034 0.90634 0.0
C484 C 0.28878 0.96203 0.87303 0.0
C485 C 0.27426 0.94511 0.92791 0.0
C486 C 0.248 0.86803 0.94387 0.0
C487 C 0.25575 0.81833 0.85201 0.0
C488 C 0.27861 0.89702 0.83539 0.0
C489 C 0.21917 0.71787 0.92409 0.0
O490 O 0.35575 0.61842 0.89142 0.0
O491 O 0.41528 0.50418 0.86834 0.0
O492 O 0.35136 0.5358 0.78192 0.0
O493 O 0.26767 0.60655 0.80629 0.0
O494 O 0.4093 0.33292 0.84218 0.0
O495 O 0.34744 0.33982 0.7789 0.0
O496 O 0.25834 0.37192 0.85476 0.0
O497 O 0.1959 0.48315 0.87431 0.0
O498 O 0.26023 0.48629 0.95299 0.0
O499 O 0.34523 0.41405 0.9314 0.0
C500 C 0.40788 0.58188 0.88564 0.0
O501 O 0.1951 0.67107 0.88773 0.0
O502 O 0.25725 0.67444 0.95041 0.0
C503 C 0.31477 0.60064 0.77549 0.0
C504 C 0.3591 0.20738 0.8213 0.0
C505 C 0.31243 1.04728 0.85493 0.0
C506 C 0.34429 1.05668 0.8053 0.0
C507 C 0.36476 0.13649 0.78776 0.0
C508 C 0.32765 0.19902 0.87087 0.0
C509 C 0.30327 0.12085 0.8868 0.0
C510 C 0.38322 0.29111 0.80465 0.0
C511 C 0.20554 0.40181 0.86335 0.0
H512 H 0.28223 0.99126 0.95901 0.0
H513 H 0.23453 0.85914 0.98559 0.0
H514 H 0.24971 0.7699 0.8218 0.0
H515 H 0.28693 0.90635 0.79265 0.0
H516 H 0.35467 1.00253 0.77999 0.0
H517 H 0.3852 0.14278 0.74809 0.0
H518 H 0.32143 0.25324 0.89736 0.0
H519 H 0.27739 0.11912 0.92424 0.0
Tb520 Tb 0.60444 0.65319 0.88185 0.0
Tb521 Tb 0.51805 0.80221 0.86099 0.0
C522 C 0.56564 0.76382 0.97583 0.0
C523 C 0.6225 0.42954 0.89039 0.0
C524 C 0.56797 0.27182 0.87073 0.0
C525 C 0.55996 0.3123 0.92086 0.0
C526 C 0.5861 0.39072 0.93015 0.0
C527 C 0.62876 0.39084 0.83943 0.0
C528 C 0.60206 0.31256 0.82979 0.0
C529 C 0.64942 0.5133 0.90095 0.0
O530 O 0.513 0.60265 0.88381 0.0
O531 O 0.45078 0.71751 0.88622 0.0
O532 O 0.51253 0.70544 0.793 0.0
O533 O 0.60493 0.65711 0.79688 0.0
O534 O 0.45804 0.89777 0.88474 0.0
O535 O 0.49326 0.89004 0.80251 0.0
O536 O 0.60272 0.8667 0.86516 0.0
O537 O 0.66825 0.75603 0.86643 0.0
O538 O 0.6118 0.7375 0.94862 0.0
O539 O 0.51852 0.78359 0.94988 0.0
C540 C 0.45979 0.63609 0.88884 0.0
O541 O 0.66535 0.55863 0.85868 0.0
O542 O 0.62297 0.55927 0.93847 0.0
C543 C 0.5553 0.65478 0.77414 0.0
C544 C 0.49252 1.02462 0.84536 0.0
C545 C 0.54173 0.18683 0.86173 0.0
C546 C 0.57258 0.12518 0.83091 0.0
C547 C 0.54856 1.04469 0.82337 0.0
C548 C 0.46292 1.08456 0.87811 0.0
C549 C 0.48674 0.16532 0.88559 0.0
C550 C 0.46799 0.93847 0.83952 0.0
C551 C 0.65662 0.83851 0.86399 0.0
H552 H 0.53432 0.28293 0.95353 0.0
H553 H 0.57771 0.42076 0.9688 0.0
H554 H 0.65461 0.4206 0.80701 0.0
H555 H 0.60806 0.28419 0.79021 0.0
H556 H 0.61568 0.1384 0.81309 0.0
H557 H 0.57402 0.99846 0.80004 0.0
H558 H 0.42169 1.06852 0.89855 0.0
H559 H 0.46181 0.21077 0.91 0.0
Tb560 Tb 0.26365 0.65382 0.61617 0.0
Tb561 Tb 0.34933 0.80331 0.63872 0.0
C562 C 0.30311 0.76605 0.52357 0.0
C563 C 0.24623 0.43099 0.6052 0.0
C564 C 0.30047 0.27374 0.62719 0.0
C565 C 0.30879 0.31278 0.57658 0.0
C566 C 0.28285 0.39098 0.56618 0.0
C567 C 0.23964 0.39375 0.65664 0.0
C568 C 0.26619 0.3157 0.66743 0.0
C569 C 0.21987 0.51481 0.59345 0.0
O570 O 0.3552 0.60389 0.61492 0.0
O571 O 0.41729 0.71885 0.61521 0.0
O572 O 0.3538 0.70754 0.70749 0.0
O573 O 0.2642 0.64804 0.70096 0.0
O574 O 0.40946 0.89912 0.61559 0.0
O575 O 0.37282 0.89152 0.69735 0.0
O576 O 0.26477 0.86722 0.63298 0.0
O577 O 0.19976 0.75583 0.63483 0.0
O578 O 0.25658 0.74151 0.55089 0.0
O579 O 0.35031 0.78406 0.54982 0.0
C580 C 0.4084 0.63753 0.61152 0.0
O581 O 0.20099 0.55954 0.63503 0.0
O582 O 0.24878 0.56137 0.55768 0.0
C583 C 0.31315 0.6519 0.72485 0.0
C584 C 0.3748 1.02622 0.65447 0.0
C585 C 0.32653 0.1889 0.63729 0.0
C586 C 0.29544 0.12799 0.66861 0.0
C587 C 0.31894 1.04721 0.67647 0.0
C588 C 0.40485 1.08566 0.62161 0.0
C589 C 0.3815 0.1666 0.61371 0.0
C590 C 0.39885 0.93984 0.66066 0.0
C591 C 0.21101 0.83856 0.63603 0.0
H592 H 0.33458 0.2825 0.54439 0.0
H593 H 0.29171 0.42001 0.52729 0.0
H594 H 0.21374 0.42451 0.68859 0.0
H595 H 0.25995 0.28849 0.70735 0.0
H596 H 0.25251 0.14194 0.68651 0.0
H597 H 0.29318 1.00142 0.69996 0.0
H598 H 0.44609 1.06907 0.60137 0.0
H599 H 0.40672 0.21155 0.5891 0.0
Tb600 Tb 0.6052 0.58099 0.61078 0.0
Tb601 Tb 0.52253 0.42939 0.65852 0.0
C602 C 0.56473 0.43683 0.53431 0.0
C603 C 0.62792 0.80508 0.59692 0.0
C604 C 0.57792 0.96347 0.62976 0.0
C605 C 0.59299 0.94672 0.575 0.0
C606 C 0.61952 0.86979 0.55929 0.0
C607 C 0.61072 0.81967 0.65111 0.0
C608 C 0.58763 0.89832 0.66752 0.0
C609 C 0.64863 0.71993 0.57923 0.0
O610 O 0.51232 0.62034 0.61064 0.0
O611 O 0.45282 0.50476 0.63043 0.0
O612 O 0.51477 0.53893 0.71767 0.0
O613 O 0.60242 0.59921 0.69572 0.0
O614 O 0.45777 0.33445 0.65894 0.0
O615 O 0.51871 0.34179 0.72288 0.0
O616 O 0.60972 0.37363 0.64956 0.0
O617 O 0.67166 0.48196 0.62202 0.0
O618 O 0.60608 0.49015 0.54656 0.0
O619 O 0.52376 0.41203 0.56992 0.0
C620 C 0.46028 0.58325 0.61456 0.0
O621 O 0.67184 0.67257 0.61585 0.0
O622 O 0.6114 0.67682 0.55184 0.0
C623 C 0.55402 0.59985 0.72494 0.0
C624 C 0.50756 0.20902 0.68075 0.0
C625 C 0.55416 1.04872 0.64757 0.0
C626 C 0.52118 1.05795 0.69659 0.0
C627 C 0.50077 0.13785 0.714 0.0
C628 C 0.54007 0.20075 0.63174 0.0
C629 C 0.56437 0.12247 0.61604 0.0
C630 C 0.48329 0.29287 0.69693 0.0
C631 C 0.66213 0.40193 0.63653 0.0
H632 H 0.58535 0.99303 0.54384 0.0
H633 H 0.63372 0.86117 0.51769 0.0
H634 H 0.61627 0.7709 0.68131 0.0
H635 H 0.57866 0.90755 0.71017 0.0
H636 H 0.50995 1.00354 0.72147 0.0
H637 H 0.47961 0.144 0.75338 0.0
H638 H 0.54722 0.25513 0.60549 0.0
H639 H 0.59104 0.12077 0.57905 0.0
loop_
_geom_bond_atom_site_label_1
_geom_bond_atom_site_label_2
_geom_bond_distance
_geom_bond_site_symmetry_2
_ccdc_geom_bond_type
Tb0 C9 2.764 . S
Tb0 O10 2.325 . S
Tb0 O13 2.303 . S
Tb0 O17 2.322 . S
Tb0 O18 2.349 . S
Tb0 O21 2.415 . S
Tb0 O22 2.399 . S
Tb1 O11 2.322 . S
Tb1 O12 2.349 . S
Tb1 O14 2.415 1_545 S
Tb1 O15 2.399 1_545 S
Tb1 O16 2.325 1_545 S
Tb1 O19 2.303 . S
Tb1 C30 2.764 1_545 S
C2 O18 1.261 . S
C2 O19 1.257 . S
C3 C6 1.358 . S
C3 C7 1.332 . S
C3 C9 1.504 . S
C4 C5 1.373 . S
C4 C8 1.308 . S
C5 C4 1.373 . S
C5 C6 1.429 . S
C5 H32 0.932 . S
C6 C3 1.358 . S
C6 C5 1.429 . S
C6 H33 0.930 . S
C7 C3 1.332 . S
C7 C8 1.394 . S
C7 H34 0.932 . S
C8 C4 1.308 . S
C8 C7 1.394 . S
C8 H35 0.929 . S
C9 Tb0 2.764 . S
C9 C3 1.504 . S
C9 O21 1.239 . S
C9 O22 1.263 . S
O10 Tb0 2.325 . S
O10 C20 1.236 . S
O11 Tb1 2.322 . S
O11 C20 1.257 . S
O12 Tb1 2.349 . S
O12 C23 1.261 . S
O13 Tb0 2.303 . S
O13 C23 1.257 . S
O14 Tb1 2.415 1_565 S
O14 C30 1.239 . S
O15 Tb1 2.399 1_565 S
O15 C30 1.263 . S
O16 Tb1 2.325 1_565 S
O16 C31 1.236 1_565 S
O17 Tb0 2.322 . S
O17 C31 1.257 . S
O18 Tb0 2.349 . S
O18 C2 1.261 . S
O19 Tb1 2.303 . S
O19 C2 1.257 . S
C20 O10 1.236 . S
C20 O11 1.257 . S
O21 Tb0 2.415 . S
O21 C9 1.239 . S
O22 Tb0 2.399 . S
O22 C9 1.263 . S
C23 O12 1.261 . S
C23 O13 1.257 . S
C24 C27 1.358 . S
C24 C28 1.332 . S
C24 C30 1.504 . S
C25 C26 1.373 . S
C25 C29 1.308 . S
C26 C25 1.373 . S
C26 C27 1.429 . S
C26 H36 0.932 . S
C27 C24 1.358 . S
C27 C26 1.429 . S
C27 H37 0.930 . S
C28 C24 1.332 . S
C28 C29 1.394 . S
C28 H38 0.932 . S
C29 C25 1.308 . S
C29 C28 1.394 . S
C29 H39 0.929 . S
C30 Tb1 2.764 1_565 S
C30 O14 1.239 . S
C30 O15 1.263 . S
C30 C24 1.504 . S
C31 O16 1.236 1_545 S
C31 O17 1.257 . S
H32 C5 0.932 . S
H33 C6 0.930 . S
H34 C7 0.932 . S
H35 C8 0.929 . S
H36 C26 0.932 . S
H37 C27 0.930 . S
H38 C28 0.932 . S
H39 C29 0.929 . S
Tb40 C49 2.764 . S
Tb40 O50 2.325 . S
Tb40 O53 2.303 . S
Tb40 O57 2.322 . S
Tb40 O58 2.349 . S
Tb40 O61 2.415 . S
Tb40 O62 2.399 . S
Tb41 O51 2.322 . S
Tb41 O52 2.349 . S
Tb41 O54 2.415 1_565 S
Tb41 O55 2.399 1_565 S
Tb41 O56 2.325 1_565 S
Tb41 O59 2.303 . S
Tb41 C70 2.764 1_565 S
C42 O58 1.261 . S
C42 O59 1.257 . S
C43 C46 1.358 . S
C43 C47 1.332 . S
C43 C49 1.504 . S
C44 C45 1.373 . S
C44 C48 1.308 . S
C45 C44 1.373 . S
C45 C46 1.429 . S
C45 H72 0.932 . S
C46 C43 1.358 . S
C46 C45 1.429 . S
C46 H73 0.930 . S
C47 C43 1.332 . S
C47 C48 1.394 . S
C47 H74 0.932 . S
C48 C44 1.308 . S
C48 C47 1.394 . S
C48 H75 0.929 . S
C49 Tb40 2.764 . S
C49 C43 1.504 . S
C49 O61 1.239 . S
C49 O62 1.263 . S
O50 Tb40 2.325 . S
O50 C60 1.236 . S
O51 Tb41 2.322 . S
O51 C60 1.257 . S
O52 Tb41 2.349 . S
O52 C63 1.261 . S
O53 Tb40 2.303 . S
O53 C63 1.257 . S
O54 Tb41 2.415 1_545 S
O54 C70 1.239 . S
O55 Tb41 2.399 1_545 S
O55 C70 1.263 . S
O56 Tb41 2.325 1_545 S
O56 C71 1.236 1_545 S
O57 Tb40 2.322 . S
O57 C71 1.257 . S
O58 Tb40 2.349 . S
O58 C42 1.261 . S
O59 Tb41 2.303 . S
O59 C42 1.257 . S
C60 O50 1.236 . S
C60 O51 1.257 . S
O61 Tb40 2.415 . S
O61 C49 1.239 . S
O62 Tb40 2.399 . S
O62 C49 1.263 . S
C63 O52 1.261 . S
C63 O53 1.257 . S
C64 C67 1.358 . S
C64 C68 1.332 . S
C64 C70 1.504 . S
C65 C66 1.373 . S
C65 C69 1.308 . S
C66 C65 1.373 . S
C66 C67 1.429 . S
C66 H76 0.932 . S
C67 C64 1.358 . S
C67 C66 1.429 . S
C67 H77 0.930 . S
C68 C64 1.332 . S
C68 C69 1.394 . S
C68 H78 0.932 . S
C69 C65 1.308 . S
C69 C68 1.394 . S
C69 H79 0.929 . S
C70 Tb41 2.764 1_545 S
C70 O54 1.239 . S
C70 O55 1.263 . S
C70 C64 1.504 . S
C71 O56 1.236 1_565 S
C71 O57 1.257 . S
H72 C45 0.932 . S
H73 C46 0.930 . S
H74 C47 0.932 . S
H75 C48 0.929 . S
H76 C66 0.932 . S
H77 C67 0.930 . S
H78 C68 0.932 . S
H79 C69 0.929 . S
Tb80 C89 2.764 . S
Tb80 O90 2.325 . S
Tb80 O93 2.303 . S
Tb80 O97 2.322 . S
Tb80 O98 2.349 . S
Tb80 O101 2.415 . S
Tb80 O102 2.399 . S
Tb81 O91 2.322 . S
Tb81 O92 2.349 . S
Tb81 O94 2.415 1_565 S
Tb81 O95 2.399 1_565 S
Tb81 O96 2.325 1_565 S
Tb81 O99 2.303 . S
Tb81 C110 2.764 1_565 S
C82 O98 1.261 . S
C82 O99 1.257 . S
C83 C86 1.358 . S
C83 C87 1.332 . S
C83 C89 1.504 . S
C84 C85 1.373 . S
C84 C88 1.308 . S
C85 C84 1.373 . S
C85 C86 1.429 . S
C85 H112 0.932 . S
C86 C83 1.358 . S
C86 C85 1.429 . S
C86 H113 0.930 . S
C87 C83 1.332 . S
C87 C88 1.394 . S
C87 H114 0.932 . S
C88 C84 1.308 . S
C88 C87 1.394 . S
C88 H115 0.929 . S
C89 Tb80 2.764 . S
C89 C83 1.504 . S
C89 O101 1.239 . S
C89 O102 1.263 . S
O90 Tb80 2.325 . S
O90 C100 1.236 . S
O91 Tb81 2.322 . S
O91 C100 1.257 . S
O92 Tb81 2.349 . S
O92 C103 1.261 . S
O93 Tb80 2.303 . S
O93 C103 1.257 . S
O94 Tb81 2.415 1_545 S
O94 C110 1.239 . S
O95 Tb81 2.399 1_545 S
O95 C110 1.263 . S
O96 Tb81 2.325 1_545 S
O96 C111 1.236 1_545 S
O97 Tb80 2.322 . S
O97 C111 1.257 . S
O98 Tb80 2.349 . S
O98 C82 1.261 . S
O99 Tb81 2.303 . S
O99 C82 1.257 . S
C100 O90 1.236 . S
C100 O91 1.257 . S
O101 Tb80 2.415 . S
O101 C89 1.239 . S
O102 Tb80 2.399 . S
O102 C89 1.263 . S
C103 O92 1.261 . S
C103 O93 1.257 . S
C104 C107 1.358 . S
C104 C108 1.332 . S
C104 C110 1.504 . S
C105 C106 1.373 . S
C105 C109 1.308 . S
C106 C105 1.373 . S
C106 C107 1.429 . S
C106 H116 0.932 . S
C107 C104 1.358 . S
C107 C106 1.429 . S
C107 H117 0.930 . S
C108 C104 1.332 . S
C108 C109 1.394 . S
C108 H118 0.932 . S
C109 C105 1.308 . S
C109 C108 1.394 . S
C109 H119 0.929 . S
C110 Tb81 2.764 1_545 S
C110 O94 1.239 . S
C110 O95 1.263 . S
C110 C104 1.504 . S
C111 O96 1.236 1_565 S
C111 O97 1.257 . S
H112 C85 0.932 . S
H113 C86 0.930 . S
H114 C87 0.932 . S
H115 C88 0.929 . S
H116 C106 0.932 . S
H117 C107 0.930 . S
H118 C108 0.932 . S
H119 C109 0.929 . S
Tb120 C129 2.764 . S
Tb120 O130 2.325 . S
Tb120 O133 2.303 . S
Tb120 O137 2.322 . S
Tb120 O138 2.349 . S
Tb120 O141 2.415 . S
Tb120 O142 2.399 . S
Tb121 O131 2.322 . S
Tb121 O132 2.349 . S
Tb121 O134 2.415 1_545 S
Tb121 O135 2.399 1_545 S
Tb121 O136 2.325 1_545 S
Tb121 O139 2.303 . S
Tb121 C150 2.764 1_545 S
C122 O138 1.261 . S
C122 O139 1.257 . S
C123 C126 1.358 . S
C123 C127 1.332 . S
C123 C129 1.504 . S
C124 C125 1.373 . S
C124 C128 1.308 . S
C125 C124 1.373 . S
C125 C126 1.429 . S
C125 H152 0.932 . S
C126 C123 1.358 . S
C126 C125 1.429 . S
C126 H153 0.930 . S
C127 C123 1.332 . S
C127 C128 1.394 . S
C127 H154 0.932 . S
C128 C124 1.308 . S
C128 C127 1.394 . S
C128 H155 0.929 . S
C129 Tb120 2.764 . S
C129 C123 1.504 . S
C129 O141 1.239 . S
C129 O142 1.263 . S
O130 Tb120 2.325 . S
O130 C140 1.236 . S
O131 Tb121 2.322 . S
O131 C140 1.257 . S
O132 Tb121 2.349 . S
O132 C143 1.261 . S
O133 Tb120 2.303 . S
O133 C143 1.257 . S
O134 Tb121 2.415 1_565 S
O134 C150 1.239 . S
O135 Tb121 2.399 1_565 S
O135 C150 1.263 . S
O136 Tb121 2.325 1_565 S
O136 C151 1.236 1_565 S
O137 Tb120 2.322 . S
O137 C151 1.257 . S
O138 Tb120 2.349 . S
O138 C122 1.261 . S
O139 Tb121 2.303 . S
O139 C122 1.257 . S
C140 O130 1.236 . S
C140 O131 1.257 . S
O141 Tb120 2.415 . S
O141 C129 1.239 . S
O142 Tb120 2.399 . S
O142 C129 1.263 . S
C143 O132 1.261 . S
C143 O133 1.257 . S
C144 C147 1.358 . S
C144 C148 1.332 . S
C144 C150 1.504 . S
C145 C146 1.373 . S
C145 C149 1.308 . S
C146 C145 1.373 . S
C146 C147 1.429 . S
C146 H156 0.932 . S
C147 C144 1.358 . S
C147 C146 1.429 . S
C147 H157 0.930 . S
C148 C144 1.332 . S
C148 C149 1.394 . S
C148 H158 0.932 . S
C149 C145 1.308 . S
C149 C148 1.394 . S
C149 H159 0.929 . S
C150 Tb121 2.764 1_565 S
C150 O134 1.239 . S
C150 O135 1.263 . S
C150 C144 1.504 . S
C151 O136 1.236 1_545 S
C151 O137 1.257 . S
H152 C125 0.932 . S
H153 C126 0.930 . S
H154 C127 0.932 . S
H155 C128 0.929 . S
H156 C146 0.932 . S
H157 C147 0.930 . S
H158 C148 0.932 . S
H159 C149 0.929 . S
Tb160 C169 2.764 1_565 S
Tb160 O170 2.325 1_565 S
Tb160 O173 2.303 . S
Tb160 O177 2.322 . S
Tb160 O178 2.349 . S
Tb160 O181 2.415 1_565 S
Tb160 O182 2.399 1_565 S
Tb161 O171 2.322 . S
Tb161 O172 2.349 . S
Tb161 O174 2.415 . S
Tb161 O175 2.399 . S
Tb161 O176 2.325 . S
Tb161 O179 2.303 . S
Tb161 C190 2.764 . S
C162 O178 1.261 . S
C162 O179 1.257 . S
C163 C166 1.358 . S
C163 C167 1.332 . S
C163 C169 1.504 . S
C164 C165 1.373 . S
C164 C168 1.308 . S
C165 C164 1.373 . S
C165 C166 1.429 . S
C165 H192 0.932 . S
C166 C163 1.358 . S
C166 C165 1.429 . S
C166 H193 0.930 . S
C167 C163 1.332 . S
C167 C168 1.394 . S
C167 H194 0.932 . S
C168 C164 1.308 . S
C168 C167 1.394 . S
C168 H195 0.929 . S
C169 Tb160 2.764 1_545 S
C169 C163 1.504 . S
C169 O181 1.239 . S
C169 O182 1.263 . S
O170 Tb160 2.325 1_545 S
O170 C180 1.236 1_545 S
O171 Tb161 2.322 . S
O171 C180 1.257 . S
O172 Tb161 2.349 . S
O172 C183 1.261 . S
O173 Tb160 2.303 . S
O173 C183 1.257 . S
O174 Tb161 2.415 . S
O174 C190 1.239 . S
O175 Tb161 2.399 . S
O175 C190 1.263 . S
O176 Tb161 2.325 . S
O176 C191 1.236 . S
O177 Tb160 2.322 . S
O177 C191 1.257 . S
O178 Tb160 2.349 . S
O178 C162 1.261 . S
O179 Tb161 2.303 . S
O179 C162 1.257 . S
C180 O170 1.236 1_565 S
C180 O171 1.257 . S
O181 Tb160 2.415 1_545 S
O181 C169 1.239 . S
O182 Tb160 2.399 1_545 S
O182 C169 1.263 . S
C183 O172 1.261 . S
C183 O173 1.257 . S
C184 C187 1.358 . S
C184 C188 1.332 . S
C184 C190 1.504 . S
C185 C186 1.373 . S
C185 C189 1.308 . S
C186 C185 1.373 . S
C186 C187 1.429 . S
C186 H196 0.932 . S
C187 C184 1.358 . S
C187 C186 1.429 . S
C187 H197 0.930 . S
C188 C184 1.332 . S
C188 C189 1.394 . S
C188 H198 0.932 . S
C189 C185 1.308 . S
C189 C188 1.394 . S
C189 H199 0.929 . S
C190 Tb161 2.764 . S
C190 O174 1.239 . S
C190 O175 1.263 . S
C190 C184 1.504 . S
C191 O176 1.236 . S
C191 O177 1.257 . S
H192 C165 0.932 . S
H193 C166 0.930 . S
H194 C167 0.932 . S
H195 C168 0.929 . S
H196 C186 0.932 . S
H197 C187 0.930 . S
H198 C188 0.932 . S
H199 C189 0.929 . S
Tb200 C209 2.764 1_545 S
Tb200 O210 2.325 1_545 S
Tb200 O213 2.303 . S
Tb200 O217 2.322 . S
Tb200 O218 2.349 . S
Tb200 O221 2.415 1_545 S
Tb200 O222 2.399 1_545 S
Tb201 O211 2.322 . S
Tb201 O212 2.349 . S
Tb201 O214 2.415 . S
Tb201 O215 2.399 . S
Tb201 O216 2.325 . S
Tb201 O219 2.303 . S
Tb201 C230 2.764 . S
C202 O218 1.261 . S
C202 O219 1.257 . S
C203 C206 1.358 . S
C203 C207 1.332 . S
C203 C209 1.504 . S
C204 C205 1.373 . S
C204 C208 1.308 . S
C205 C204 1.373 . S
C205 C206 1.429 . S
C205 H232 0.932 . S
C206 C203 1.358 . S
C206 C205 1.429 . S
C206 H233 0.930 . S
C207 C203 1.332 . S
C207 C208 1.394 . S
C207 H234 0.932 . S
C208 C204 1.308 . S
C208 C207 1.394 . S
C208 H235 0.929 . S
C209 Tb200 2.764 1_565 S
C209 C203 1.504 . S
C209 O221 1.239 . S
C209 O222 1.263 . S
O210 Tb200 2.325 1_565 S
O210 C220 1.236 1_565 S
O211 Tb201 2.322 . S
O211 C220 1.257 . S
O212 Tb201 2.349 . S
O212 C223 1.261 . S
O213 Tb200 2.303 . S
O213 C223 1.257 . S
O214 Tb201 2.415 . S
O214 C230 1.239 . S
O215 Tb201 2.399 . S
O215 C230 1.263 . S
O216 Tb201 2.325 . S
O216 C231 1.236 . S
O217 Tb200 2.322 . S
O217 C231 1.257 . S
O218 Tb200 2.349 . S
O218 C202 1.261 . S
O219 Tb201 2.303 . S
O219 C202 1.257 . S
C220 O210 1.236 1_545 S
C220 O211 1.257 . S
O221 Tb200 2.415 1_565 S
O221 C209 1.239 . S
O222 Tb200 2.399 1_565 S
O222 C209 1.263 . S
C223 O212 1.261 . S
C223 O213 1.257 . S
C224 C227 1.358 . S
C224 C228 1.332 . S
C224 C230 1.504 . S
C225 C226 1.373 . S
C225 C229 1.308 . S
C226 C225 1.373 . S
C226 C227 1.429 . S
C226 H236 0.932 . S
C227 C224 1.358 . S
C227 C226 1.429 . S
C227 H237 0.930 . S
C228 C224 1.332 . S
C228 C229 1.394 . S
C228 H238 0.932 . S
C229 C225 1.308 . S
C229 C228 1.394 . S
C229 H239 0.929 . S
C230 Tb201 2.764 . S
C230 O214 1.239 . S
C230 O215 1.263 . S
C230 C224 1.504 . S
C231 O216 1.236 . S
C231 O217 1.257 . S
H232 C205 0.932 . S
H233 C206 0.930 . S
H234 C207 0.932 . S
H235 C208 0.929 . S
H236 C226 0.932 . S
H237 C227 0.930 . S
H238 C228 0.932 . S
H239 C229 0.929 . S
Tb240 C249 2.764 1_545 S
Tb240 O250 2.325 1_545 S
Tb240 O253 2.303 . S
Tb240 O257 2.322 . S
Tb240 O258 2.349 . S
Tb240 O261 2.415 1_545 S
Tb240 O262 2.399 1_545 S
Tb241 O251 2.322 . S
Tb241 O252 2.349 . S
Tb241 O254 2.415 . S
Tb241 O255 2.399 . S
Tb241 O256 2.325 . S
Tb241 O259 2.303 . S
Tb241 C270 2.764 . S
C242 O258 1.261 . S
C242 O259 1.257 . S
C243 C246 1.358 . S
C243 C247 1.332 . S
C243 C249 1.504 . S
C244 C245 1.373 . S
C244 C248 1.308 . S
C245 C244 1.373 . S
C245 C246 1.429 . S
C245 H272 0.932 . S
C246 C243 1.358 . S
C246 C245 1.429 . S
C246 H273 0.930 . S
C247 C243 1.332 . S
C247 C248 1.394 . S
C247 H274 0.932 . S
C248 C244 1.308 . S
C248 C247 1.394 . S
C248 H275 0.929 . S
C249 Tb240 2.764 1_565 S
C249 C243 1.504 . S
C249 O261 1.239 . S
C249 O262 1.263 . S
O250 Tb240 2.325 1_565 S
O250 C260 1.236 1_565 S
O251 Tb241 2.322 . S
O251 C260 1.257 . S
O252 Tb241 2.349 . S
O252 C263 1.261 . S
O253 Tb240 2.303 . S
O253 C263 1.257 . S
O254 Tb241 2.415 . S
O254 C270 1.239 . S
O255 Tb241 2.399 . S
O255 C270 1.263 . S
O256 Tb241 2.325 . S
O256 C271 1.236 . S
O257 Tb240 2.322 . S
O257 C271 1.257 . S
O258 Tb240 2.349 . S
O258 C242 1.261 . S
O259 Tb241 2.303 . S
O259 C242 1.257 . S
C260 O250 1.236 1_545 S
C260 O251 1.257 . S
O261 Tb240 2.415 1_565 S
O261 C249 1.239 . S
O262 Tb240 2.399 1_565 S
O262 C249 1.263 . S
C263 O252 1.261 . S
C263 O253 1.257 . S
C264 C267 1.358 . S
C264 C268 1.332 . S
C264 C270 1.504 . S
C265 C266 1.373 . S
C265 C269 1.308 . S
C266 C265 1.373 . S
C266 C267 1.429 . S
C266 H276 0.932 . S
C267 C264 1.358 . S
C267 C266 1.429 . S
C267 H277 0.930 . S
C268 C264 1.332 . S
C268 C269 1.394 . S
C268 H278 0.932 . S
C269 C265 1.308 . S
C269 C268 1.394 . S
C269 H279 0.929 . S
C270 Tb241 2.764 . S
C270 O254 1.239 . S
C270 O255 1.263 . S
C270 C264 1.504 . S
C271 O256 1.236 . S
C271 O257 1.257 . S
H272 C245 0.932 . S
H273 C246 0.930 . S
H274 C247 0.932 . S
H275 C248 0.929 . S
H276 C266 0.932 . S
H277 C267 0.930 . S
H278 C268 0.932 . S
H279 C269 0.929 . S
Tb280 C289 2.764 1_565 S
Tb280 O290 2.325 1_565 S
Tb280 O293 2.303 . S
Tb280 O297 2.322 . S
Tb280 O298 2.349 . S
Tb280 O301 2.415 1_565 S
Tb280 O302 2.399 1_565 S
Tb281 O291 2.322 . S
Tb281 O292 2.349 . S
Tb281 O294 2.415 . S
Tb281 O295 2.399 . S
Tb281 O296 2.325 . S
Tb281 O299 2.303 . S
Tb281 C310 2.764 . S
C282 O298 1.261 . S
C282 O299 1.257 . S
C283 C286 1.358 . S
C283 C287 1.332 . S
C283 C289 1.504 . S
C284 C285 1.373 . S
C284 C288 1.308 . S
C285 C284 1.373 . S
C285 C286 1.429 . S
C285 H312 0.932 . S
C286 C283 1.358 . S
C286 C285 1.429 . S
C286 H313 0.930 . S
C287 C283 1.332 . S
C287 C288 1.394 . S
C287 H314 0.932 . S
C288 C284 1.308 . S
C288 C287 1.394 . S
C288 H315 0.929 . S
C289 Tb280 2.764 1_545 S
C289 C283 1.504 . S
C289 O301 1.239 . S
C289 O302 1.263 . S
O290 Tb280 2.325 1_545 S
O290 C300 1.236 1_545 S
O291 Tb281 2.322 . S
O291 C300 1.257 . S
O292 Tb281 2.349 . S
O292 C303 1.261 . S
O293 Tb280 2.303 . S
O293 C303 1.257 . S
O294 Tb281 2.415 . S
O294 C310 1.239 . S
O295 Tb281 2.399 . S
O295 C310 1.263 . S
O296 Tb281 2.325 . S
O296 C311 1.236 . S
O297 Tb280 2.322 . S
O297 C311 1.257 . S
O298 Tb280 2.349 . S
O298 C282 1.261 . S
O299 Tb281 2.303 . S
O299 C282 1.257 . S
C300 O290 1.236 1_565 S
C300 O291 1.257 . S
O301 Tb280 2.415 1_545 S
O301 C289 1.239 . S
O302 Tb280 2.399 1_545 S
O302 C289 1.263 . S
C303 O292 1.261 . S
C303 O293 1.257 . S
C304 C307 1.358 . S
C304 C308 1.332 . S
C304 C310 1.504 . S
C305 C306 1.373 . S
C305 C309 1.308 . S
C306 C305 1.373 . S
C306 C307 1.429 . S
C306 H316 0.932 . S
C307 C304 1.358 . S
C307 C306 1.429 . S
C307 H317 0.930 . S
C308 C304 1.332 . S
C308 C309 1.394 . S
C308 H318 0.932 . S
C309 C305 1.308 . S
C309 C308 1.394 . S
C309 H319 0.929 . S
C310 Tb281 2.764 . S
C310 O294 1.239 . S
C310 O295 1.263 . S
C310 C304 1.504 . S
C311 O296 1.236 . S
C311 O297 1.257 . S
H312 C285 0.932 . S
H313 C286 0.930 . S
H314 C287 0.932 . S
H315 C288 0.929 . S
H316 C306 0.932 . S
H317 C307 0.930 . S
H318 C308 0.932 . S
H319 C309 0.929 . S
Tb320 C329 2.764 . S
Tb320 O330 2.325 . S
Tb320 O333 2.303 . S
Tb320 O337 2.322 . S
Tb320 O338 2.349 . S
Tb320 O341 2.415 . S
Tb320 O342 2.399 . S
Tb321 O331 2.322 . S
Tb321 O332 2.349 . S
Tb321 O334 2.415 . S
Tb321 O335 2.399 . S
Tb321 O336 2.325 . S
Tb321 O339 2.303 . S
Tb321 C350 2.764 . S
C322 O338 1.261 . S
C322 O339 1.257 . S
C323 C326 1.358 . S
C323 C327 1.332 . S
C323 C329 1.504 . S
C324 C325 1.373 . S
C324 C328 1.308 . S
C325 C324 1.373 . S
C325 C326 1.429 1_545 S
C325 H352 0.932 . S
C326 C323 1.358 . S
C326 C325 1.429 1_565 S
C326 H353 0.930 . S
C327 C323 1.332 . S
C327 C328 1.394 1_565 S
C327 H354 0.932 . S
C328 C324 1.308 . S
C328 C327 1.394 1_545 S
C328 H355 0.929 . S
C329 Tb320 2.764 . S
C329 C323 1.504 . S
C329 O341 1.239 . S
C329 O342 1.263 . S
O330 Tb320 2.325 . S
O330 C340 1.236 . S
O331 Tb321 2.322 . S
O331 C340 1.257 . S
O332 Tb321 2.349 . S
O332 C343 1.261 . S
O333 Tb320 2.303 . S
O333 C343 1.257 . S
O334 Tb321 2.415 . S
O334 C350 1.239 . S
O335 Tb321 2.399 . S
O335 C350 1.263 . S
O336 Tb321 2.325 . S
O336 C351 1.236 . S
O337 Tb320 2.322 . S
O337 C351 1.257 . S
O338 Tb320 2.349 . S
O338 C322 1.261 . S
O339 Tb321 2.303 . S
O339 C322 1.257 . S
C340 O330 1.236 . S
C340 O331 1.257 . S
O341 Tb320 2.415 . S
O341 C329 1.239 . S
O342 Tb320 2.399 . S
O342 C329 1.263 . S
C343 O332 1.261 . S
C343 O333 1.257 . S
C344 C347 1.358 . S
C344 C348 1.332 . S
C344 C350 1.504 . S
C345 C346 1.373 . S
C345 C349 1.308 . S
C346 C345 1.373 . S
C346 C347 1.429 . S
C346 H356 0.932 . S
C347 C344 1.358 . S
C347 C346 1.429 . S
C347 H357 0.930 . S
C348 C344 1.332 . S
C348 C349 1.394 . S
C348 H358 0.932 . S
C349 C345 1.308 . S
C349 C348 1.394 . S
C349 H359 0.929 . S
C350 Tb321 2.764 . S
C350 O334 1.239 . S
C350 O335 1.263 . S
C350 C344 1.504 . S
C351 O336 1.236 . S
C351 O337 1.257 . S
H352 C325 0.932 . S
H353 C326 0.930 . S
H354 C327 0.932 . S
H355 C328 0.929 . S
H356 C346 0.932 . S
H357 C347 0.930 . S
H358 C348 0.932 . S
H359 C349 0.929 . S
Tb360 C369 2.764 . S
Tb360 O370 2.325 . S
Tb360 O373 2.303 . S
Tb360 O377 2.322 . S
Tb360 O378 2.349 . S
Tb360 O381 2.415 . S
Tb360 O382 2.399 . S
Tb361 O371 2.322 . S
Tb361 O372 2.349 . S
Tb361 O374 2.415 . S
Tb361 O375 2.399 . S
Tb361 O376 2.325 . S
Tb361 O379 2.303 . S
Tb361 C390 2.764 . S
C362 O378 1.261 . S
C362 O379 1.257 . S
C363 C366 1.358 . S
C363 C367 1.332 . S
C363 C369 1.504 . S
C364 C365 1.373 . S
C364 C368 1.308 . S
C365 C364 1.373 . S
C365 C366 1.429 1_565 S
C365 H392 0.932 . S
C366 C363 1.358 . S
C366 C365 1.429 1_545 S
C366 H393 0.930 . S
C367 C363 1.332 . S
C367 C368 1.394 1_545 S
C367 H394 0.932 . S
C368 C364 1.308 . S
C368 C367 1.394 1_565 S
C368 H395 0.929 . S
C369 Tb360 2.764 . S
C369 C363 1.504 . S
C369 O381 1.239 . S
C369 O382 1.263 . S
O370 Tb360 2.325 . S
O370 C380 1.236 . S
O371 Tb361 2.322 . S
O371 C380 1.257 . S
O372 Tb361 2.349 . S
O372 C383 1.261 . S
O373 Tb360 2.303 . S
O373 C383 1.257 . S
O374 Tb361 2.415 . S
O374 C390 1.239 . S
O375 Tb361 2.399 . S
O375 C390 1.263 . S
O376 Tb361 2.325 . S
O376 C391 1.236 . S
O377 Tb360 2.322 . S
O377 C391 1.257 . S
O378 Tb360 2.349 . S
O378 C362 1.261 . S
O379 Tb361 2.303 . S
O379 C362 1.257 . S
C380 O370 1.236 . S
C380 O371 1.257 . S
O381 Tb360 2.415 . S
O381 C369 1.239 . S
O382 Tb360 2.399 . S
O382 C369 1.263 . S
C383 O372 1.261 . S
C383 O373 1.257 . S
C384 C387 1.358 . S
C384 C388 1.332 . S
C384 C390 1.504 . S
C385 C386 1.373 . S
C385 C389 1.308 . S
C386 C385 1.373 . S
C386 C387 1.429 . S
C386 H396 0.932 . S
C387 C384 1.358 . S
C387 C386 1.429 . S
C387 H397 0.930 . S
C388 C384 1.332 . S
C388 C389 1.394 . S
C388 H398 0.932 . S
C389 C385 1.308 . S
C389 C388 1.394 . S
C389 H399 0.929 . S
C390 Tb361 2.764 . S
C390 O374 1.239 . S
C390 O375 1.263 . S
C390 C384 1.504 . S
C391 O376 1.236 . S
C391 O377 1.257 . S
H392 C365 0.932 . S
H393 C366 0.930 . S
H394 C367 0.932 . S
H395 C368 0.929 . S
H396 C386 0.932 . S
H397 C387 0.930 . S
H398 C388 0.932 . S
H399 C389 0.929 . S
Tb400 C409 2.764 . S
Tb400 O410 2.325 . S
Tb400 O413 2.303 . S
Tb400 O417 2.322 . S
Tb400 O418 2.349 . S
Tb400 O421 2.415 . S
Tb400 O422 2.399 . S
Tb401 O411 2.322 . S
Tb401 O412 2.349 . S
Tb401 O414 2.415 . S
Tb401 O415 2.399 . S
Tb401 O416 2.325 . S
Tb401 O419 2.303 . S
Tb401 C430 2.764 . S
C402 O418 1.261 . S
C402 O419 1.257 . S
C403 C406 1.358 . S
C403 C407 1.332 . S
C403 C409 1.504 . S
C404 C405 1.373 . S
C404 C408 1.308 . S
C405 C404 1.373 . S
C405 C406 1.429 1_565 S
C405 H432 0.932 . S
C406 C403 1.358 . S
C406 C405 1.429 1_545 S
C406 H433 0.930 . S
C407 C403 1.332 . S
C407 C408 1.394 1_545 S
C407 H434 0.932 . S
C408 C404 1.308 . S
C408 C407 1.394 1_565 S
C408 H435 0.929 . S
C409 Tb400 2.764 . S
C409 C403 1.504 . S
C409 O421 1.239 . S
C409 O422 1.263 . S
O410 Tb400 2.325 . S
O410 C420 1.236 . S
O411 Tb401 2.322 . S
O411 C420 1.257 . S
O412 Tb401 2.349 . S
O412 C423 1.261 . S
O413 Tb400 2.303 . S
O413 C423 1.257 . S
O414 Tb401 2.415 . S
O414 C430 1.239 . S
O415 Tb401 2.399 . S
O415 C430 1.263 . S
O416 Tb401 2.325 . S
O416 C431 1.236 . S
O417 Tb400 2.322 . S
O417 C431 1.257 . S
O418 Tb400 2.349 . S
O418 C402 1.261 . S
O419 Tb401 2.303 . S
O419 C402 1.257 . S
C420 O410 1.236 . S
C420 O411 1.257 . S
O421 Tb400 2.415 . S
O421 C409 1.239 . S
O422 Tb400 2.399 . S
O422 C409 1.263 . S
C423 O412 1.261 . S
C423 O413 1.257 . S
C424 C427 1.358 . S
C424 C428 1.332 . S
C424 C430 1.504 . S
C425 C426 1.373 . S
C425 C429 1.308 . S
C426 C425 1.373 . S
C426 C427 1.429 . S
C426 H436 0.932 . S
C427 C424 1.358 . S
C427 C426 1.429 . S
C427 H437 0.930 . S
C428 C424 1.332 . S
C428 C429 1.394 . S
C428 H438 0.932 . S
C429 C425 1.308 . S
C429 C428 1.394 . S
C429 H439 0.929 . S
C430 Tb401 2.764 . S
C430 O414 1.239 . S
C430 O415 1.263 . S
C430 C424 1.504 . S
C431 O416 1.236 . S
C431 O417 1.257 . S
H432 C405 0.932 . S
H433 C406 0.930 . S
H434 C407 0.932 . S
H435 C408 0.929 . S
H436 C426 0.932 . S
H437 C427 0.930 . S
H438 C428 0.932 . S
H439 C429 0.929 . S
Tb440 C449 2.764 . S
Tb440 O450 2.325 . S
Tb440 O453 2.303 . S
Tb440 O457 2.322 . S
Tb440 O458 2.349 . S
Tb440 O461 2.415 . S
Tb440 O462 2.399 . S
Tb441 O451 2.322 . S
Tb441 O452 2.349 . S
Tb441 O454 2.415 . S
Tb441 O455 2.399 . S
Tb441 O456 2.325 . S
Tb441 O459 2.303 . S
Tb441 C470 2.764 . S
C442 O458 1.261 . S
C442 O459 1.257 . S
C443 C446 1.358 . S
C443 C447 1.332 . S
C443 C449 1.504 . S
C444 C445 1.373 . S
C444 C448 1.308 . S
C445 C444 1.373 . S
C445 C446 1.429 1_545 S
C445 H472 0.932 . S
C446 C443 1.358 . S
C446 C445 1.429 1_565 S
C446 H473 0.930 . S
C447 C443 1.332 . S
C447 C448 1.394 1_565 S
C447 H474 0.932 . S
C448 C444 1.308 . S
C448 C447 1.394 1_545 S
C448 H475 0.929 . S
C449 Tb440 2.764 . S
C449 C443 1.504 . S
C449 O461 1.239 . S
C449 O462 1.263 . S
O450 Tb440 2.325 . S
O450 C460 1.236 . S
O451 Tb441 2.322 . S
O451 C460 1.257 . S
O452 Tb441 2.349 . S
O452 C463 1.261 . S
O453 Tb440 2.303 . S
O453 C463 1.257 . S
O454 Tb441 2.415 . S
O454 C470 1.239 . S
O455 Tb441 2.399 . S
O455 C470 1.263 . S
O456 Tb441 2.325 . S
O456 C471 1.236 . S
O457 Tb440 2.322 . S
O457 C471 1.257 . S
O458 Tb440 2.349 . S
O458 C442 1.261 . S
O459 Tb441 2.303 . S
O459 C442 1.257 . S
C460 O450 1.236 . S
C460 O451 1.257 . S
O461 Tb440 2.415 . S
O461 C449 1.239 . S
O462 Tb440 2.399 . S
O462 C449 1.263 . S
C463 O452 1.261 . S
C463 O453 1.257 . S
C464 C467 1.358 . S
C464 C468 1.332 . S
C464 C470 1.504 . S
C465 C466 1.373 . S
C465 C469 1.308 . S
C466 C465 1.373 . S
C466 C467 1.429 . S
C466 H476 0.932 . S
C467 C464 1.358 . S
C467 C466 1.429 . S
C467 H477 0.930 . S
C468 C464 1.332 . S
C468 C469 1.394 . S
C468 H478 0.932 . S
C469 C465 1.308 . S
C469 C468 1.394 . S
C469 H479 0.929 . S
C470 Tb441 2.764 . S
C470 O454 1.239 . S
C470 O455 1.263 . S
C470 C464 1.504 . S
C471 O456 1.236 . S
C471 O457 1.257 . S
H472 C445 0.932 . S
H473 C446 0.930 . S
H474 C447 0.932 . S
H475 C448 0.929 . S
H476 C466 0.932 . S
H477 C467 0.930 . S
H478 C468 0.932 . S
H479 C469 0.929 . S
Tb480 C489 2.764 . S
Tb480 O490 2.325 . S
Tb480 O493 2.303 . S
Tb480 O497 2.322 . S
Tb480 O498 2.349 . S
Tb480 O501 2.415 . S
Tb480 O502 2.399 . S
Tb481 O491 2.322 . S
Tb481 O492 2.349 . S
Tb481 O494 2.415 . S
Tb481 O495 2.399 . S
Tb481 O496 2.325 . S
Tb481 O499 2.303 . S
Tb481 C510 2.764 . S
C482 O498 1.261 . S
C482 O499 1.257 . S
C483 C486 1.358 . S
C483 C487 1.332 . S
C483 C489 1.504 . S
C484 C485 1.373 . S
C484 C488 1.308 . S
C485 C484 1.373 . S
C485 C486 1.429 . S
C485 H512 0.932 . S
C486 C483 1.358 . S
C486 C485 1.429 . S
C486 H513 0.930 . S
C487 C483 1.332 . S
C487 C488 1.394 . S
C487 H514 0.932 . S
C488 C484 1.308 . S
C488 C487 1.394 . S
C488 H515 0.929 . S
C489 Tb480 2.764 . S
C489 C483 1.504 . S
C489 O501 1.239 . S
C489 O502 1.263 . S
O490 Tb480 2.325 . S
O490 C500 1.236 . S
O491 Tb481 2.322 . S
O491 C500 1.257 . S
O492 Tb481 2.349 . S
O492 C503 1.261 . S
O493 Tb480 2.303 . S
O493 C503 1.257 . S
O494 Tb481 2.415 . S
O494 C510 1.239 . S
O495 Tb481 2.399 . S
O495 C510 1.263 . S
O496 Tb481 2.325 . S
O496 C511 1.236 . S
O497 Tb480 2.322 . S
O497 C511 1.257 . S
O498 Tb480 2.349 . S
O498 C482 1.261 . S
O499 Tb481 2.303 . S
O499 C482 1.257 . S
C500 O490 1.236 . S
C500 O491 1.257 . S
O501 Tb480 2.415 . S
O501 C489 1.239 . S
O502 Tb480 2.399 . S
O502 C489 1.263 . S
C503 O492 1.261 . S
C503 O493 1.257 . S
C504 C507 1.358 . S
C504 C508 1.332 . S
C504 C510 1.504 . S
C505 C506 1.373 . S
C505 C509 1.308 . S
C506 C505 1.373 . S
C506 C507 1.429 1_565 S
C506 H516 0.932 . S
C507 C504 1.358 . S
C507 C506 1.429 1_545 S
C507 H517 0.930 . S
C508 C504 1.332 . S
C508 C509 1.394 1_545 S
C508 H518 0.932 . S
C509 C505 1.308 . S
C509 C508 1.394 1_565 S
C509 H519 0.929 . S
C510 Tb481 2.764 . S
C510 O494 1.239 . S
C510 O495 1.263 . S
C510 C504 1.504 . S
C511 O496 1.236 . S
C511 O497 1.257 . S
H512 C485 0.932 . S
H513 C486 0.930 . S
H514 C487 0.932 . S
H515 C488 0.929 . S
H516 C506 0.932 . S
H517 C507 0.930 . S
H518 C508 0.932 . S
H519 C509 0.929 . S
Tb520 C529 2.764 . S
Tb520 O530 2.325 . S
Tb520 O533 2.303 . S
Tb520 O537 2.322 . S
Tb520 O538 2.349 . S
Tb520 O541 2.415 . S
Tb520 O542 2.399 . S
Tb521 O531 2.322 . S
Tb521 O532 2.349 . S
Tb521 O534 2.415 . S
Tb521 O535 2.399 . S
Tb521 O536 2.325 . S
Tb521 O539 2.303 . S
Tb521 C550 2.764 . S
C522 O538 1.261 . S
C522 O539 1.257 . S
C523 C526 1.358 . S
C523 C527 1.332 . S
C523 C529 1.504 . S
C524 C525 1.373 . S
C524 C528 1.308 . S
C525 C524 1.373 . S
C525 C526 1.429 . S
C525 H552 0.932 . S
C526 C523 1.358 . S
C526 C525 1.429 . S
C526 H553 0.930 . S
C527 C523 1.332 . S
C527 C528 1.394 . S
C527 H554 0.932 . S
C528 C524 1.308 . S
C528 C527 1.394 . S
C528 H555 0.929 . S
C529 Tb520 2.764 . S
C529 C523 1.504 . S
C529 O541 1.239 . S
C529 O542 1.263 . S
O530 Tb520 2.325 . S
O530 C540 1.236 . S
O531 Tb521 2.322 . S
O531 C540 1.257 . S
O532 Tb521 2.349 . S
O532 C543 1.261 . S
O533 Tb520 2.303 . S
O533 C543 1.257 . S
O534 Tb521 2.415 . S
O534 C550 1.239 . S
O535 Tb521 2.399 . S
O535 C550 1.263 . S
O536 Tb521 2.325 . S
O536 C551 1.236 . S
O537 Tb520 2.322 . S
O537 C551 1.257 . S
O538 Tb520 2.349 . S
O538 C522 1.261 . S
O539 Tb521 2.303 . S
O539 C522 1.257 . S
C540 O530 1.236 . S
C540 O531 1.257 . S
O541 Tb520 2.415 . S
O541 C529 1.239 . S
O542 Tb520 2.399 . S
O542 C529 1.263 . S
C543 O532 1.261 . S
C543 O533 1.257 . S
C544 C547 1.358 . S
C544 C548 1.332 . S
C544 C550 1.504 . S
C545 C546 1.373 . S
C545 C549 1.308 . S
C546 C545 1.373 . S
C546 C547 1.429 1_545 S
C546 H556 0.932 . S
C547 C544 1.358 . S
C547 C546 1.429 1_565 S
C547 H557 0.930 . S
C548 C544 1.332 . S
C548 C549 1.394 1_565 S
C548 H558 0.932 . S
C549 C545 1.308 . S
C549 C548 1.394 1_545 S
C549 H559 0.929 . S
C550 Tb521 2.764 . S
C550 O534 1.239 . S
C550 O535 1.263 . S
C550 C544 1.504 . S
C551 O536 1.236 . S
C551 O537 1.257 . S
H552 C525 0.932 . S
H553 C526 0.930 . S
H554 C527 0.932 . S
H555 C528 0.929 . S
H556 C546 0.932 . S
H557 C547 0.930 . S
H558 C548 0.932 . S
H559 C549 0.929 . S
Tb560 C569 2.764 . S
Tb560 O570 2.325 . S
Tb560 O573 2.303 . S
Tb560 O577 2.322 . S
Tb560 O578 2.349 . S
Tb560 O581 2.415 . S
Tb560 O582 2.399 . S
Tb561 O571 2.322 . S
Tb561 O572 2.349 . S
Tb561 O574 2.415 . S
Tb561 O575 2.399 . S
Tb561 O576 2.325 . S
Tb561 O579 2.303 . S
Tb561 C590 2.764 . S
C562 O578 1.261 . S
C562 O579 1.257 . S
C563 C566 1.358 . S
C563 C567 1.332 . S
C563 C569 1.504 . S
C564 C565 1.373 . S
C564 C568 1.308 . S
C565 C564 1.373 . S
C565 C566 1.429 . S
C565 H592 0.932 . S
C566 C563 1.358 . S
C566 C565 1.429 . S
C566 H593 0.930 . S
C567 C563 1.332 . S
C567 C568 1.394 . S
C567 H594 0.932 . S
C568 C564 1.308 . S
C568 C567 1.394 . S
C568 H595 0.929 . S
C569 Tb560 2.764 . S
C569 C563 1.504 . S
C569 O581 1.239 . S
C569 O582 1.263 . S
O570 Tb560 2.325 . S
O570 C580 1.236 . S
O571 Tb561 2.322 . S
O571 C580 1.257 . S
O572 Tb561 2.349 . S
O572 C583 1.261 . S
O573 Tb560 2.303 . S
O573 C583 1.257 . S
O574 Tb561 2.415 . S
O574 C590 1.239 . S
O575 Tb561 2.399 . S
O575 C590 1.263 . S
O576 Tb561 2.325 . S
O576 C591 1.236 . S
O577 Tb560 2.322 . S
O577 C591 1.257 . S
O578 Tb560 2.349 . S
O578 C562 1.261 . S
O579 Tb561 2.303 . S
O579 C562 1.257 . S
C580 O570 1.236 . S
C580 O571 1.257 . S
O581 Tb560 2.415 . S
O581 C569 1.239 . S
O582 Tb560 2.399 . S
O582 C569 1.263 . S
C583 O572 1.261 . S
C583 O573 1.257 . S
C584 C587 1.358 . S
C584 C588 1.332 . S
C584 C590 1.504 . S
C585 C586 1.373 . S
C585 C589 1.308 . S
C586 C585 1.373 . S
C586 C587 1.429 1_545 S
C586 H596 0.932 . S
C587 C584 1.358 . S
C587 C586 1.429 1_565 S
C587 H597 0.930 . S
C588 C584 1.332 . S
C588 C589 1.394 1_565 S
C588 H598 0.932 . S
C589 C585 1.308 . S
C589 C588 1.394 1_545 S
C589 H599 0.929 . S
C590 Tb561 2.764 . S
C590 O574 1.239 . S
C590 O575 1.263 . S
C590 C584 1.504 . S
C591 O576 1.236 . S
C591 O577 1.257 . S
H592 C565 0.932 . S
H593 C566 0.930 . S
H594 C567 0.932 . S
H595 C568 0.929 . S
H596 C586 0.932 . S
H597 C587 0.930 . S
H598 C588 0.932 . S
H599 C589 0.929 . S
Tb600 C609 2.764 . S
Tb600 O610 2.325 . S
Tb600 O613 2.303 . S
Tb600 O617 2.322 . S
Tb600 O618 2.349 . S
Tb600 O621 2.415 . S
Tb600 O622 2.399 . S
Tb601 O611 2.322 . S
Tb601 O612 2.349 . S
Tb601 O614 2.415 . S
Tb601 O615 2.399 . S
Tb601 O616 2.325 . S
Tb601 O619 2.303 . S
Tb601 C630 2.764 . S
C602 O618 1.261 . S
C602 O619 1.257 . S
C603 C606 1.358 . S
C603 C607 1.332 . S
C603 C609 1.504 . S
C604 C605 1.373 . S
C604 C608 1.308 . S
C605 C604 1.373 . S
C605 C606 1.429 . S
C605 H632 0.932 . S
C606 C603 1.358 . S
C606 C605 1.429 . S
C606 H633 0.930 . S
C607 C603 1.332 . S
C607 C608 1.394 . S
C607 H634 0.932 . S
C608 C604 1.308 . S
C608 C607 1.394 . S
C608 H635 0.929 . S
C609 Tb600 2.764 . S
C609 C603 1.504 . S
C609 O621 1.239 . S
C609 O622 1.263 . S
O610 Tb600 2.325 . S
O610 C620 1.236 . S
O611 Tb601 2.322 . S
O611 C620 1.257 . S
O612 Tb601 2.349 . S
O612 C623 1.261 . S
O613 Tb600 2.303 . S
O613 C623 1.257 . S
O614 Tb601 2.415 . S
O614 C630 1.239 . S
O615 Tb601 2.399 . S
O615 C630 1.263 . S
O616 Tb601 2.325 . S
O616 C631 1.236 . S
O617 Tb600 2.322 . S
O617 C631 1.257 . S
O618 Tb600 2.349 . S
O618 C602 1.261 . S
O619 Tb601 2.303 . S
O619 C602 1.257 . S
C620 O610 1.236 . S
C620 O611 1.257 . S
O621 Tb600 2.415 . S
O621 C609 1.239 . S
O622 Tb600 2.399 . S
O622 C609 1.263 . S
C623 O612 1.261 . S
C623 O613 1.257 . S
C624 C627 1.358 . S
C624 C628 1.332 . S
C624 C630 1.504 . S
C625 C626 1.373 . S
C625 C629 1.308 . S
C626 C625 1.373 . S
C626 C627 1.429 1_565 S
C626 H636 0.932 . S
C627 C624 1.358 . S
C627 C626 1.429 1_545 S
C627 H637 0.930 . S
C628 C624 1.332 . S
C628 C629 1.394 1_545 S
C628 H638 0.932 . S
C629 C625 1.308 . S
C629 C628 1.394 1_565 S
C629 H639 0.929 . S
C630 Tb601 2.764 . S
C630 O614 1.239 . S
C630 O615 1.263 . S
C630 C624 1.504 . S
C631 O616 1.236 . S
C631 O617 1.257 . S
H632 C605 0.932 . S
H633 C606 0.930 . S
H634 C607 0.932 . S
H635 C608 0.929 . S
H636 C626 0.932 . S
H637 C627 0.930 . S
H638 C628 0.932 . S
H639 C629 0.929 . S
C20 C380 2.794 . S
C60 C340 2.794 . S
C460 C100 2.794 . S
C140 C420 2.794 . S
C551 C191 2.794 . S
C511 C231 2.794 . S
C631 C271 2.794 . S
C311 C591 2.794 . S
C82 C2 2.952 1_565 S
C122 C42 2.952 1_545 S
C263 C183 2.952 1_545 S
C223 C303 2.952 1_545 S
C402 C322 2.952 . S
C442 C362 2.952 . S
C503 C583 2.952 . S
C543 C623 2.952 . S
C202 C23 1.495 1_556 S
C162 C63 1.495 1_556 S
C103 C282 1.495 . S
C242 C143 1.495 . S
C343 C522 1.495 1_554 S
C482 C383 1.495 1_556 S
C423 C602 1.495 . S
C562 C463 1.495 . S
C71 C31 1.682 1_665 S
C151 C111 1.682 1_645 S
C220 C180 1.682 1_445 S
C260 C300 1.682 1_645 S
C391 C351 1.682 . S
C471 C431 1.682 . S
C500 C540 1.682 . S
C580 C620 1.682 . S
C25 C4 2.362 . S
C65 C44 2.362 . S
C105 C84 2.362 . S
C124 C145 2.362 . S
C164 C185 2.362 . S
C225 C204 2.362 . S
C244 C265 2.362 . S
C284 C305 2.362 . S
C324 C345 2.362 . S
C385 C364 2.362 . S
C404 C425 2.362 . S
C444 C465 2.362 . S
C484 C505 2.362 . S
C524 C545 2.362 . S
C585 C564 2.362 . S
C604 C625 2.362 . S
