# Generated by pormake.
# Topology sra, (4)-cn, num edge types: 1
# Building blocks:
#     Node 0, Type 0, BuildingBlock: QUQFOY_clean_sbu_1, # of connection points: 4
#     Node 1, Type 0, BuildingBlock: QUQFOY_clean_sbu_1, # of connection points: 4
#     Node 2, Type 0, BuildingBlock: QUQFOY_clean_sbu_1, # of connection points: 4
#     Node 3, Type 0, BuildingBlock: QUQFOY_clean_sbu_1, # of connection points: 4
#     Node 4, Type 0, BuildingBlock: QUQFOY_clean_sbu_1, # of connection points: 4
#     Node 5, Type 0, BuildingBlock: QUQFOY_clean_sbu_1, # of connection points: 4
#     Node 6, Type 0, BuildingBlock: QUQFOY_clean_sbu_1, # of connection points: 4
#     Node 7, Type 0, BuildingBlock: QUQFOY_clean_sbu_1, # of connection points: 4
#     Edge 8, Type (0, 0), BuildingBlock: ZUJKAS_clean_linker_0, # of connection points: 2
#     Edge 9, Type (0, 0), BuildingBlock: ZUJKAS_clean_linker_0, # of connection points: 2
#     Edge 10, Type (0, 0), BuildingBlock: ZUJKAS_clean_linker_0, # of connection points: 2
#     Edge 11, Type (0, 0), BuildingBlock: ZUJKAS_clean_linker_0, # of connection points: 2
#     Edge 12, Type (0, 0), BuildingBlock: ZUJKAS_clean_linker_0, # of connection points: 2
#     Edge 13, Type (0, 0), BuildingBlock: ZUJKAS_clean_linker_0, # of connection points: 2
#     Edge 14, Type (0, 0), BuildingBlock: ZUJKAS_clean_linker_0, # of connection points: 2
#     Edge 15, Type (0, 0), BuildingBlock: ZUJKAS_clean_linker_0, # of connection points: 2
#     Edge 16, Type (0, 0), BuildingBlock: ZUJKAS_clean_linker_0, # of connection points: 2
#     Edge 17, Type (0, 0), BuildingBlock: ZUJKAS_clean_linker_0, # of connection points: 2
#     Edge 18, Type (0, 0), BuildingBlock: ZUJKAS_clean_linker_0, # of connection points: 2
#     Edge 19, Type (0, 0), BuildingBlock: ZUJKAS_clean_linker_0, # of connection points: 2
#     Edge 20, Type (0, 0), BuildingBlock: ZUJKAS_clean_linker_0, # of connection points: 2
#     Edge 21, Type (0, 0), BuildingBlock: ZUJKAS_clean_linker_0, # of connection points: 2
#     Edge 22, Type (0, 0), BuildingBlock: ZUJKAS_clean_linker_0, # of connection points: 2
#     Edge 23, Type (0, 0), BuildingBlock: ZUJKAS_clean_linker_0, # of connection points: 2
# Relax obj value: 0.038
# Max RMSD: 0.082
# Mean RMSD: 0.082
data_MOF--net-sra--node1-QUQFOY_clean_sbu_1--edge1-ZUJKAS_clean_linker_0
_symmetry_space_group_name_H-M    P1
_symmetry_Int_Tables_number       1
_symmetry_cell_setting            triclinic
loop_
_symmetry_equiv_pos_as_xyz
'x, y, z'
_cell_length_a     36.825416
_cell_length_b     69.133728
_cell_length_c     43.084295
_cell_angle_alpha  90.02927
_cell_angle_beta   90.030198
_cell_angle_gamma 90.064843
loop_
_atom_site_label
_atom_site_type_symbol
_atom_site_fract_x
_atom_site_fract_y
_atom_site_fract_z
_atom_type_partial_charge
O0 O 0.97544 0.10398 0.16051 0.0
Cd1 Cd 0.02035 0.11008 0.13396 0.0
Cd2 Cd 0.05021 0.11679 0.19021 0.0
O3 O 0.99989 0.10765 0.20688 0.0
O4 O 1.01074 0.09741 0.09331 0.0
O5 O 0.05622 0.08904 0.12407 0.0
C6 C 0.03805 0.08626 0.09878 0.0
C7 C 0.10515 0.10503 0.20994 0.0
C8 C 0.97258 0.10363 0.18989 0.0
C9 C 0.04435 0.15044 0.14528 0.0
O10 O 0.05355 0.14441 0.17202 0.0
O11 O 0.03069 0.13891 0.12548 0.0
O12 O 0.08561 0.11718 0.22532 0.0
O13 O 0.09252 0.0987 0.18384 0.0
O14 O 0.10658 0.40365 0.15906 0.0
Cd15 Cd 0.06199 0.39746 0.13211 0.0
Cd16 Cd 0.03117 0.39119 0.18787 0.0
O17 O 0.0809 0.4008 0.20506 0.0
O18 O 0.07149 0.41025 0.09158 0.0
O19 O 0.02588 0.41839 0.12236 0.0
C20 C 0.04406 0.42131 0.09713 0.0
C21 C 0.97574 0.40251 0.20718 0.0
C22 C 0.10868 0.40448 0.18847 0.0
C23 C 0.03846 0.35714 0.14373 0.0
O24 O 0.02896 0.36336 0.17028 0.0
O25 O 0.05194 0.36859 0.12375 0.0
O26 O 0.99555 0.39058 0.22275 0.0
O27 O 0.98832 0.40887 0.18112 0.0
O28 O 0.97514 0.90509 0.83964 0.0
Cd29 Cd 0.02113 0.89824 0.86461 0.0
Cd30 Cd 0.04775 0.89252 0.80747 0.0
O31 O 0.9985 0.90369 0.7926 0.0
O32 O 0.01279 0.90981 0.90633 0.0
O33 O 0.05699 0.91924 0.87504 0.0
C34 C 0.03963 0.92131 0.90087 0.0
C35 C 0.10359 0.90428 0.79 0.0
C36 C 0.9717 0.907 0.81045 0.0
C37 C 0.04178 0.85771 0.84945 0.0
O38 O 0.04808 0.86412 0.82231 0.0
O39 O 0.03217 0.86922 0.87096 0.0
O40 O 0.08318 0.8937 0.7725 0.0
O41 O 0.09142 0.90895 0.81711 0.0
O42 O 0.10645 0.60448 0.84143 0.0
Cd43 Cd 0.06074 0.61102 0.86692 0.0
Cd44 Cd 0.03226 0.61612 0.81037 0.0
O45 O 0.08138 0.60506 0.79498 0.0
O46 O 0.06918 0.59919 0.90842 0.0
O47 O 0.02502 0.58991 0.87687 0.0
C48 C 0.04239 0.58769 0.90269 0.0
C49 C 0.9765 0.60429 0.7926 0.0
C50 C 0.10893 0.60224 0.81223 0.0
C51 C 0.0387 0.65125 0.85181 0.0
O52 O 0.03177 0.64461 0.82491 0.0
O53 O 0.04919 0.63997 0.8733 0.0
O54 O 0.99695 0.61491 0.77526 0.0
O55 O 0.98851 0.59966 0.81978 0.0
O56 O 0.47334 0.60365 0.66029 0.0
Cd57 Cd 0.52029 0.61037 0.63646 0.0
Cd58 Cd 0.54517 0.61514 0.69419 0.0
O59 O 0.49586 0.60345 0.7077 0.0
O60 O 0.51291 0.59918 0.59431 0.0
O61 O 0.55578 0.58918 0.62648 0.0
C62 C 0.53917 0.58742 0.60021 0.0
C63 C 0.60102 0.60337 0.71153 0.0
C64 C 0.46927 0.60091 0.68926 0.0
C65 C 0.54059 0.65059 0.65364 0.0
O66 O 0.54507 0.6438 0.68079 0.0
O67 O 0.53266 0.63937 0.63123 0.0
O68 O 0.58021 0.61341 0.72944 0.0
O69 O 0.58924 0.59922 0.68407 0.0
O70 O 0.60791 0.90396 0.6585 0.0
Cd71 Cd 0.56129 0.89738 0.63406 0.0
Cd72 Cd 0.53474 0.89316 0.69118 0.0
O73 O 0.5838 0.90491 0.70527 0.0
O74 O 0.56891 0.90872 0.59208 0.0
O75 O 0.52586 0.9186 0.62419 0.0
C76 C 0.54261 0.92046 0.59801 0.0
C77 C 0.47886 0.90488 0.70867 0.0
C78 C 0.61107 0.90704 0.68746 0.0
C79 C 0.54038 0.85737 0.65131 0.0
O80 O 0.53517 0.86439 0.67823 0.0
O81 O 0.54887 0.86841 0.62885 0.0
O82 O 0.49981 0.89487 0.7265 0.0
O83 O 0.49043 0.90896 0.68113 0.0
O84 O 0.47296 0.40391 0.34353 0.0
Cd85 Cd 0.51933 0.39801 0.36861 0.0
Cd86 Cd 0.54558 0.39147 0.31154 0.0
O87 O 0.49571 0.40179 0.29632 0.0
O88 O 0.51085 0.41041 0.40967 0.0
O89 O 0.55484 0.41942 0.37783 0.0
C90 C 0.53752 0.4219 0.4036 0.0
C91 C 0.60102 0.40281 0.29236 0.0
C92 C 0.46901 0.40516 0.31429 0.0
C93 C 0.54083 0.35747 0.35562 0.0
O94 O 0.54684 0.36347 0.32821 0.0
O95 O 0.53099 0.36925 0.37665 0.0
O96 O 0.58072 0.39134 0.27628 0.0
O97 O 0.58891 0.4087 0.31888 0.0
O98 O 0.60787 0.10589 0.34377 0.0
Cd99 Cd 0.56167 0.11129 0.36929 0.0
Cd100 Cd 0.53396 0.11757 0.31262 0.0
O101 O 0.584 0.10769 0.29691 0.0
O102 O 0.57051 0.09864 0.41009 0.0
O103 O 0.52656 0.08967 0.37812 0.0
C104 C 0.54399 0.08708 0.40382 0.0
C105 C 0.47868 0.10577 0.29359 0.0
C106 C 0.61122 0.10464 0.31447 0.0
C107 C 0.53862 0.15161 0.35679 0.0
O108 O 0.53206 0.14555 0.32949 0.0
O109 O 0.54941 0.13994 0.37761 0.0
O110 O 0.4985 0.11745 0.27751 0.0
O111 O 0.49115 0.09997 0.32003 0.0
H112 H 0.99106 0.33113 0.16847 0.0
H113 H 0.99186 0.29596 0.16259 0.0
H114 H 0.08296 0.30055 0.10007 0.0
H115 H 0.08099 0.33585 0.10461 0.0
H116 H 0.03951 0.27246 0.08166 0.0
H117 H 0.0643 0.26375 0.20751 0.0
H118 H 0.02233 0.27601 0.20021 0.0
H119 H 0.06466 0.28708 0.18892 0.0
C120 C 1.01096 0.32464 0.15317 0.0
C121 C 0.03622 0.33619 0.13726 0.0
C122 C 1.01159 0.30453 0.15002 0.0
C123 C 0.03827 0.29555 0.13173 0.0
C124 C 0.06235 0.30713 0.11456 0.0
H125 H 0.0944 0.17577 0.16785 0.0
H126 H 0.09617 0.2108 0.16054 0.0
C127 C 0.06119 0.3273 0.11715 0.0
C128 C 0.04193 0.27414 0.13155 0.0
H129 H 0.04987 0.23513 0.17949 0.0
C130 C 0.04204 0.26428 0.10303 0.0
C131 C 0.04617 0.26348 0.15937 0.0
C132 C 0.04978 0.27314 0.19068 0.0
C133 C 0.04546 0.24404 0.10162 0.0
C134 C 0.04752 0.23331 0.12958 0.0
C135 C 0.048 0.24325 0.15801 0.0
C136 C 0.04914 0.2118 0.13033 0.0
C137 C 0.04765 0.2345 0.07017 0.0
C138 C 0.02265 0.20053 0.11526 0.0
C139 C 0.02225 0.1804 0.11876 0.0
C140 C 0.04762 0.17126 0.13819 0.0
C141 C 0.07445 0.18247 0.15282 0.0
C142 C 0.07541 0.20249 0.14868 0.0
H143 H 0.05839 0.24464 0.05239 0.0
H144 H 0.06526 0.22149 0.07071 0.0
H145 H 0.02 0.23008 0.06276 0.0
H146 H 1.00139 0.20731 0.10177 0.0
H147 H 1.00097 0.17212 0.10755 0.0
H148 H 0.06691 0.82967 0.81032 0.0
H149 H 0.06638 0.79472 0.81838 0.0
H150 H 0.02128 0.80283 0.90977 0.0
H151 H 0.02153 0.83795 0.90194 0.0
H152 H 0.0993 0.7718 0.86723 0.0
H153 H 0.94844 0.76633 0.86355 0.0
H154 H 0.97255 0.78733 0.84951 0.0
H155 H 0.96765 0.78343 0.89046 0.0
C156 C 0.05704 0.82408 0.83224 0.0
C157 C 0.04401 0.83663 0.85541 0.0
C158 C 0.05685 0.80409 0.83681 0.0
C159 C 0.04341 0.79622 0.8645 0.0
C160 C 0.03134 0.80866 0.88807 0.0
H161 H 0.06035 0.67152 0.90343 0.0
H162 H 0.06057 0.70671 0.91048 0.0
C163 C 0.03166 0.82871 0.88359 0.0
C164 C 0.04119 0.77496 0.86801 0.0
H165 H 0.98108 0.73731 0.86914 0.0
C166 C 0.07351 0.76423 0.86804 0.0
C167 C 1.00743 0.7652 0.86876 0.0
C168 C 0.97194 0.77607 0.86787 0.0
C169 C 0.07296 0.74392 0.8682 0.0
C170 C 0.03919 0.73416 0.86855 0.0
C171 C 1.00688 0.74489 0.86912 0.0
C172 C 0.03688 0.71285 0.86561 0.0
C173 C 0.10841 0.73304 0.8667 0.0
C174 C 0.02255 0.7047 0.83844 0.0
C175 C 0.02237 0.68467 0.83431 0.0
C176 C 0.03632 0.67237 0.85742 0.0
C177 C 0.0495 0.68057 0.88514 0.0
C178 C 0.04981 0.70067 0.88917 0.0
H179 H 0.13174 0.74272 0.86156 0.0
H180 H 0.1135 0.7259 0.88934 0.0
H181 H 0.10715 0.72159 0.84863 0.0
H182 H 0.01235 0.71389 0.82003 0.0
H183 H 0.01184 0.67887 0.81275 0.0
H184 H 0.55176 0.6786 0.69728 0.0
H185 H 0.55257 0.71354 0.68987 0.0
H186 H 0.53677 0.70575 0.59146 0.0
H187 H 0.53512 0.6706 0.59872 0.0
H188 H 0.59782 0.73641 0.65519 0.0
H189 H 0.45517 0.74296 0.61386 0.0
H190 H 0.47243 0.72114 0.63146 0.0
H191 H 0.48344 0.72683 0.59188 0.0
C192 C 0.5485 0.68425 0.674 0.0
C193 C 0.54313 0.67176 0.64861 0.0
C194 C 0.54899 0.70426 0.66982 0.0
C195 C 0.54416 0.71226 0.6402 0.0
C196 C 0.53975 0.69989 0.61462 0.0
H197 H 0.54734 0.83688 0.59693 0.0
H198 H 0.54854 0.80158 0.59073 0.0
C199 C 0.53906 0.6798 0.6188 0.0
C200 C 0.54378 0.7336 0.63655 0.0
H201 H 0.48927 0.77179 0.61742 0.0
C202 C 0.57419 0.74412 0.64668 0.0
C203 C 0.51289 0.74364 0.62543 0.0
C204 C 0.47897 0.73313 0.61525 0.0
C205 C 0.57422 0.76441 0.64669 0.0
C206 C 0.54306 0.77439 0.63637 0.0
C207 C 0.51311 0.76397 0.62521 0.0
C208 C 0.54025 0.79562 0.63946 0.0
C209 C 0.60725 0.77511 0.65834 0.0
C210 C 0.53449 0.80379 0.6688 0.0
C211 C 0.53357 0.82384 0.67243 0.0
C212 C 0.53857 0.83613 0.64676 0.0
C213 C 0.54348 0.82784 0.61719 0.0
C214 C 0.54417 0.80771 0.61357 0.0
H215 H 0.63125 0.76548 0.66048 0.0
H216 H 0.61408 0.78726 0.64253 0.0
H217 H 0.60128 0.78133 0.68154 0.0
H218 H 0.53123 0.79462 0.689 0.0
H219 H 0.52969 0.82968 0.69553 0.0
H220 H 0.56592 0.329 0.31733 0.0
H221 H 0.56561 0.29417 0.32646 0.0
H222 H 0.52165 0.30333 0.41801 0.0
H223 H 0.5216 0.33836 0.40906 0.0
H224 H 0.59896 0.27167 0.37484 0.0
H225 H 0.44799 0.26652 0.37422 0.0
H226 H 0.47183 0.28744 0.35961 0.0
H227 H 0.46806 0.28361 0.40067 0.0
C228 C 0.55637 0.32368 0.33952 0.0
C229 C 0.5435 0.33649 0.36238 0.0
C230 C 0.5563 0.30376 0.34471 0.0
C231 C 0.5432 0.2962 0.37274 0.0
C232 C 0.53142 0.3089 0.39605 0.0
H233 H 0.56079 0.17102 0.40912 0.0
H234 H 0.56082 0.20609 0.4177 0.0
C235 C 0.53158 0.3289 0.39094 0.0
C236 C 0.54091 0.27496 0.37677 0.0
H237 H 0.48055 0.23744 0.37891 0.0
C238 C 0.57313 0.26416 0.37618 0.0
C239 C 0.5071 0.26527 0.37821 0.0
C240 C 0.47166 0.27621 0.37802 0.0
C241 C 0.57243 0.24385 0.37622 0.0
C242 C 0.5386 0.23416 0.3771 0.0
C243 C 0.50641 0.24496 0.37848 0.0
C244 C 0.53603 0.21291 0.37352 0.0
C245 C 0.60774 0.2329 0.37384 0.0
C246 C 0.52111 0.20516 0.34627 0.0
C247 C 0.52104 0.18521 0.34128 0.0
C248 C 0.5357 0.17257 0.36357 0.0
C249 C 0.54936 0.18034 0.39145 0.0
C250 C 0.54957 0.20037 0.39635 0.0
H251 H 0.63106 0.24257 0.36862 0.0
H252 H 0.61324 0.22548 0.39619 0.0
H253 H 0.60598 0.22167 0.35546 0.0
H254 H 0.51044 0.21462 0.32841 0.0
H255 H 0.51012 0.17974 0.31963 0.0
H256 H 0.43463 0.07666 0.31517 0.0
H257 H 0.37179 0.06979 0.2998 0.0
H258 H 0.37563 0.11714 0.23466 0.0
H259 H 0.43858 0.12336 0.2487 0.0
H260 H 0.31428 0.08999 0.30639 0.0
H261 H 0.32901 0.07843 0.18067 0.0
H262 H 0.36779 0.07946 0.20619 0.0
H263 H 0.34824 0.10137 0.19073 0.0
C264 C 0.42223 0.08532 0.29711 0.0
C265 C 0.4417 0.10043 0.28294 0.0
C266 C 0.38627 0.08142 0.28838 0.0
C267 C 0.36896 0.09267 0.26554 0.0
C268 C 0.38853 0.10775 0.25146 0.0
H269 H 0.14533 0.12336 0.25405 0.0
H270 H 0.20823 0.11739 0.26836 0.0
C271 C 0.42458 0.11141 0.25972 0.0
C272 C 0.32974 0.08978 0.25813 0.0
H273 H 0.26943 0.08896 0.19788 0.0
C274 C 0.30458 0.08941 0.28263 0.0
C275 C 0.31674 0.08849 0.22722 0.0
C276 C 0.34198 0.08672 0.19979 0.0
C277 C 0.26698 0.08891 0.27708 0.0
C278 C 0.25397 0.08962 0.24613 0.0
C279 C 0.27913 0.08883 0.22165 0.0
C280 C 0.21476 0.09236 0.23861 0.0
C281 C 0.24173 0.08762 0.30459 0.0
C282 C 0.19738 0.0807 0.2163 0.0
C283 C 0.16143 0.08445 0.2074 0.0
C284 C 0.14205 0.09982 0.22086 0.0
C285 C 0.15924 0.11121 0.24357 0.0
C286 C 0.19527 0.10769 0.252 0.0
H287 H 0.2547 0.07967 0.32407 0.0
H288 H 0.2355 0.10242 0.31301 0.0
H289 H 0.21591 0.08022 0.29852 0.0
H290 H 0.2118 0.06885 0.20541 0.0
H291 H 0.14899 0.07546 0.18974 0.0
H292 H 0.64074 0.38417 0.24838 0.0
H293 H 0.70417 0.38941 0.23476 0.0
H294 H 0.70883 0.43805 0.29748 0.0
H295 H 0.64558 0.43212 0.31256 0.0
H296 H 0.74107 0.41667 0.20903 0.0
H297 H 0.79277 0.40827 0.32924 0.0
H298 H 0.74614 0.40355 0.31916 0.0
H299 H 0.76165 0.42801 0.32494 0.0
C300 C 0.65516 0.39606 0.25921 0.0
C301 C 0.63822 0.40763 0.28177 0.0
C302 C 0.69153 0.39906 0.25137 0.0
C303 C 0.71176 0.41387 0.26557 0.0
C304 C 0.6943 0.42612 0.28693 0.0
H305 H 0.93191 0.43238 0.18812 0.0
H306 H 0.86873 0.4384 0.2033 0.0
C307 C 0.65802 0.42285 0.29532 0.0
C308 C 0.75117 0.41593 0.25824 0.0
H309 H 0.83586 0.41572 0.29072 0.0
C310 C 0.7618 0.41652 0.22692 0.0
C311 C 0.77835 0.41556 0.28153 0.0
C312 C 0.76925 0.41362 0.31556 0.0
C313 C 0.79857 0.41605 0.21819 0.0
C314 C 0.82575 0.41588 0.2415 0.0
C315 C 0.81513 0.41599 0.27283 0.0
C316 C 0.86511 0.4137 0.23409 0.0
C317 C 0.80764 0.41466 0.18409 0.0
C318 C 0.88492 0.39853 0.24763 0.0
C319 C 0.92124 0.39547 0.23975 0.0
C320 C 0.93856 0.40733 0.21779 0.0
C321 C 0.91918 0.42288 0.20489 0.0
C322 C 0.88293 0.42621 0.21332 0.0
H323 H 0.78399 0.4097 0.17016 0.0
H324 H 0.81563 0.42915 0.1754 0.0
H325 H 0.83049 0.40451 0.18004 0.0
H326 H 0.87199 0.38868 0.26376 0.0
H327 H 0.93533 0.38332 0.25007 0.0
H328 H 0.13674 0.89548 0.73512 0.0
H329 H 0.20063 0.89996 0.7216 0.0
H330 H 0.21935 0.9288 0.80888 0.0
H331 H 0.15525 0.92441 0.82271 0.0
H332 H 0.25566 0.94577 0.75247 0.0
H333 H 0.27863 0.86703 0.76995 0.0
H334 H 0.24163 0.87327 0.74461 0.0
H335 H 0.23926 0.8794 0.78506 0.0
C336 C 0.15424 0.90304 0.7513 0.0
C337 C 0.14094 0.90943 0.78014 0.0
C338 C 0.19077 0.90555 0.74353 0.0
C339 C 0.21472 0.91449 0.7644 0.0
C340 C 0.20124 0.92182 0.7925 0.0
H341 H 0.44786 0.89845 0.76526 0.0
H342 H 0.38446 0.90319 0.77999 0.0
C343 C 0.16463 0.91928 0.80036 0.0
C344 C 0.25421 0.91483 0.75782 0.0
H345 H 0.32753 0.88512 0.7496 0.0
C346 C 0.27149 0.93256 0.7519 0.0
C347 C 0.27477 0.89757 0.75749 0.0
C348 C 0.25783 0.87822 0.76485 0.0
C349 C 0.30882 0.9334 0.74501 0.0
C350 C 0.32915 0.91605 0.74388 0.0
C351 C 0.31188 0.8984 0.75035 0.0
C352 C 0.3684 0.91565 0.73604 0.0
C353 C 0.3263 0.95281 0.73937 0.0
C354 C 0.38061 0.92137 0.70656 0.0
C355 C 0.41697 0.91869 0.69804 0.0
C356 C 0.44167 0.91012 0.7188 0.0
C357 C 0.42959 0.90507 0.74868 0.0
C358 C 0.39333 0.90776 0.75716 0.0
H359 H 0.30945 0.96484 0.74856 0.0
H360 H 0.35361 0.95352 0.75027 0.0
H361 H 0.32963 0.95501 0.71402 0.0
H362 H 0.36173 0.92716 0.68968 0.0
H363 H 0.42535 0.92265 0.6748 0.0
H364 H 0.63339 0.61097 0.76727 0.0
H365 H 0.69731 0.60676 0.78095 0.0
H366 H 0.71764 0.58051 0.6919 0.0
H367 H 0.65354 0.58459 0.67792 0.0
H368 H 0.75435 0.56242 0.74646 0.0
H369 H 0.77432 0.6419 0.73632 0.0
H370 H 0.73772 0.63439 0.76116 0.0
H371 H 0.73529 0.62965 0.72023 0.0
C372 C 0.65127 0.60403 0.75072 0.0
C373 C 0.63841 0.59829 0.72136 0.0
C374 C 0.68781 0.60168 0.75858 0.0
C375 C 0.71222 0.59356 0.73728 0.0
C376 C 0.69919 0.58684 0.70862 0.0
H377 H 0.94455 0.61206 0.73683 0.0
H378 H 0.88111 0.60713 0.72229 0.0
C379 C 0.66257 0.58921 0.70068 0.0
C380 C 0.75169 0.59348 0.74406 0.0
H381 H 0.82391 0.6237 0.75501 0.0
C382 C 0.76966 0.57578 0.7483 0.0
C383 C 0.77159 0.61094 0.74603 0.0
C384 C 0.75394 0.63033 0.74046 0.0
C385 C 0.80705 0.57513 0.75507 0.0
C386 C 0.82672 0.59265 0.75779 0.0
C387 C 0.80875 0.61029 0.75305 0.0
C388 C 0.86603 0.59322 0.76536 0.0
C389 C 0.82531 0.55577 0.75884 0.0
C390 C 0.8788 0.58675 0.79427 0.0
C391 C 0.91518 0.58955 0.80269 0.0
C392 C 0.93934 0.59897 0.7824 0.0
C393 C 0.92671 0.60478 0.75304 0.0
C394 C 0.89042 0.60198 0.74467 0.0
H395 H 0.80871 0.54385 0.74889 0.0
H396 H 0.8524 0.55574 0.74753 0.0
H397 H 0.82929 0.5528 0.78392 0.0
H398 H 0.86033 0.58026 0.81081 0.0
H399 H 0.924 0.58498 0.82553 0.0
H400 H 0.6754 0.91033 0.65624 0.0
H401 H 0.73609 0.91411 0.67821 0.0
H402 H 0.69013 0.91816 0.77001 0.0
H403 H 0.62916 0.91399 0.74831 0.0
H404 H 0.7692 0.94243 0.7142 0.0
H405 H 0.76005 0.87271 0.7778 0.0
H406 H 0.72758 0.87966 0.74851 0.0
H407 H 0.72466 0.88961 0.78699 0.0
C408 C 0.67806 0.91218 0.68111 0.0
C409 C 0.64736 0.91162 0.70056 0.0
C410 C 0.71284 0.91437 0.69361 0.0
C411 C 0.71769 0.91603 0.72578 0.0
C412 C 0.68704 0.91647 0.74515 0.0
H413 H 0.90959 0.91538 0.84235 0.0
H414 H 0.84855 0.9197 0.82148 0.0
C415 C 0.65219 0.91419 0.73269 0.0
C416 C 0.75492 0.91647 0.73897 0.0
H417 H 0.8128 0.89144 0.78605 0.0
C418 C 0.77876 0.93131 0.72995 0.0
C419 C 0.7674 0.90184 0.75932 0.0
C420 C 0.74376 0.88494 0.76855 0.0
C421 C 0.81464 0.93205 0.74107 0.0
C422 C 0.82702 0.91744 0.76143 0.0
C423 C 0.80314 0.90267 0.77054 0.0
C424 C 0.86475 0.91694 0.77346 0.0
C425 C 0.83887 0.94855 0.73128 0.0
C426 C 0.89425 0.91415 0.75331 0.0
C427 C 0.92935 0.91164 0.76517 0.0
C428 C 0.93548 0.91176 0.79741 0.0
C429 C 0.90594 0.91515 0.8174 0.0
C430 C 0.87096 0.91764 0.80554 0.0
H431 H 0.82299 0.96089 0.72188 0.0
H432 H 0.85554 0.95376 0.75109 0.0
H433 H 0.8576 0.94347 0.71284 0.0
H434 H 0.88995 0.91323 0.72848 0.0
H435 H 0.95142 0.90899 0.74912 0.0
H436 H 0.4481 0.59704 0.75008 0.0
H437 H 0.38619 0.59296 0.76974 0.0
H438 H 0.34565 0.59029 0.67595 0.0
H439 H 0.40718 0.59449 0.65605 0.0
H440 H 0.31083 0.6177 0.71339 0.0
H441 H 0.31675 0.54618 0.7717 0.0
H442 H 0.35217 0.56273 0.78265 0.0
H443 H 0.35007 0.55384 0.7435 0.0
C444 C 0.42611 0.59525 0.73362 0.0
C445 C 0.43266 0.59617 0.70148 0.0
C446 C 0.39075 0.59283 0.74491 0.0
C447 C 0.36137 0.59115 0.72429 0.0
C448 C 0.36796 0.59148 0.69225 0.0
H449 H 0.12581 0.59707 0.75067 0.0
H450 H 0.18622 0.59263 0.72804 0.0
C451 C 0.40321 0.59388 0.68094 0.0
C452 C 0.3235 0.59077 0.73597 0.0
H453 H 0.26422 0.56532 0.78123 0.0
C454 C 0.3005 0.60616 0.72798 0.0
C455 C 0.31022 0.57575 0.75512 0.0
C456 C 0.33343 0.55859 0.76359 0.0
C457 C 0.26483 0.60722 0.73929 0.0
C458 C 0.25151 0.59223 0.75856 0.0
C459 C 0.27443 0.57674 0.76633 0.0
C460 C 0.21449 0.59295 0.7721 0.0
C461 C 0.24222 0.62475 0.73142 0.0
C462 C 0.21017 0.59373 0.8044 0.0
C463 C 0.17572 0.59607 0.81741 0.0
C464 C 0.14479 0.59768 0.79836 0.0
C465 C 0.14903 0.59605 0.76601 0.0
C466 C 0.18357 0.59362 0.75302 0.0
H467 H 0.25919 0.63694 0.7229 0.0
H468 H 0.22263 0.62092 0.71283 0.0
H469 H 0.22658 0.62976 0.75193 0.0
H470 H 0.23363 0.59314 0.81957 0.0
H471 H 0.17352 0.59717 0.84242 0.0
H472 H 0.6754 0.10069 0.34565 0.0
H473 H 0.73625 0.09781 0.32393 0.0
H474 H 0.69125 0.0969 0.23152 0.0
H475 H 0.63002 0.10031 0.25306 0.0
H476 H 0.76955 0.07096 0.28767 0.0
H477 H 0.76258 0.14135 0.22601 0.0
H478 H 0.72905 0.13403 0.25417 0.0
H479 H 0.7273 0.12474 0.21519 0.0
C480 C 0.67828 0.09979 0.32068 0.0
C481 C 0.64773 0.10095 0.30109 0.0
C482 C 0.71319 0.09811 0.3083 0.0
C483 C 0.71843 0.09754 0.27609 0.0
C484 C 0.68794 0.09781 0.25645 0.0
H485 H 0.90951 0.09501 0.15957 0.0
H486 H 0.84873 0.09198 0.18139 0.0
C487 C 0.65292 0.09962 0.26881 0.0
C488 C 0.7559 0.09716 0.26326 0.0
H489 H 0.81475 0.12221 0.21698 0.0
C490 C 0.77945 0.08218 0.27224 0.0
C491 C 0.76894 0.11191 0.24335 0.0
C492 C 0.74581 0.12902 0.23432 0.0
C493 C 0.81545 0.08139 0.26143 0.0
C494 C 0.82825 0.09602 0.24132 0.0
C495 C 0.80476 0.11097 0.23234 0.0
C496 C 0.86582 0.09611 0.22893 0.0
C497 C 0.8394 0.06478 0.27117 0.0
C498 C 0.89576 0.09925 0.24852 0.0
C499 C 0.93079 0.10107 0.2361 0.0
C500 C 0.93639 0.09981 0.20385 0.0
C501 C 0.90633 0.09609 0.1845 0.0
C502 C 0.87147 0.09436 0.1969 0.0
H503 H 0.82353 0.05279 0.2817 0.0
H504 H 0.85479 0.05907 0.25099 0.0
H505 H 0.85936 0.06998 0.28859 0.0
H506 H 0.89189 0.1009 0.2733 0.0
H507 H 0.95325 0.10398 0.25165 0.0
H508 H 0.17355 0.41029 0.15926 0.0
H509 H 0.23347 0.41351 0.18265 0.0
H510 H 0.18558 0.41126 0.27389 0.0
H511 H 0.12523 0.4075 0.25061 0.0
H512 H 0.26418 0.43986 0.22155 0.0
H513 H 0.25884 0.36768 0.27795 0.0
H514 H 0.22581 0.37529 0.24956 0.0
H515 H 0.22263 0.38361 0.28903 0.0
C516 C 0.17557 0.41057 0.18433 0.0
C517 C 0.14449 0.40842 0.20305 0.0
C518 C 0.20996 0.41245 0.19767 0.0
C519 C 0.21415 0.41225 0.23001 0.0
C520 C 0.18309 0.41098 0.24885 0.0
H521 H 0.40649 0.41187 0.34661 0.0
H522 H 0.3451 0.41541 0.32613 0.0
C523 C 0.14857 0.40897 0.23551 0.0
C524 C 0.25121 0.41278 0.24367 0.0
H525 H 0.31052 0.38689 0.28825 0.0
C526 C 0.2743 0.4283 0.23617 0.0
C527 C 0.2645 0.3976 0.26256 0.0
C528 C 0.24184 0.38001 0.27006 0.0
C529 C 0.31019 0.4291 0.24725 0.0
C530 C 0.32337 0.41393 0.2661 0.0
C531 C 0.30024 0.39853 0.27384 0.0
C532 C 0.36117 0.41356 0.27798 0.0
C533 C 0.33366 0.44623 0.23898 0.0
C534 C 0.3907 0.4115 0.25763 0.0
C535 C 0.42602 0.4094 0.26926 0.0
C536 C 0.43237 0.40927 0.30147 0.0
C537 C 0.40272 0.41188 0.32168 0.0
C538 C 0.36752 0.4139 0.31005 0.0
H539 H 0.3173 0.45856 0.23018 0.0
H540 H 0.3496 0.45113 0.25942 0.0
H541 H 0.3531 0.44193 0.22056 0.0
H542 H 0.3863 0.41091 0.23279 0.0
H543 H 0.44816 0.40735 0.25305 0.0
H544 H 0.99868 0.07416 0.04892 0.0
H545 H 1.00966 0.0461 0.01606 0.0
H546 H 0.10835 0.03399 0.06641 0.0
H547 H 0.09684 0.06185 0.10027 0.0
H548 H 0.06344 0.03647 0.97732 0.0
H549 H 0.05577 0.983 0.0734 0.0
H550 H 0.04328 0.008 0.07844 0.0
H551 H 0.09034 1.0011 0.07794 0.0
C552 C 0.02284 0.06561 0.053 0.0
C553 C 0.04674 0.07015 0.0774 0.0
C554 C 0.02911 0.04955 0.03413 0.0
C555 C 0.0595 0.03772 0.03907 0.0
C556 C 0.08425 0.04263 0.06264 0.0
H557 H 0.09737 0.94646 0.89903 0.0
H558 H 0.10847 0.97418 0.93329 0.0
C559 C 0.07777 0.05863 0.08182 0.0
C560 C 0.06431 0.02009 0.01978 0.0
H561 H 0.06634 0.97074 0.02329 0.0
C562 C 0.0644 0.02208 0.98735 0.0
C563 C 0.0652 1.00133 0.03293 0.0
C564 C 0.06333 0.99813 0.06756 0.0
C565 C 0.0641 0.00588 0.96768 0.0
C566 C 0.06487 0.98712 0.98083 0.0
C567 C 0.06603 0.98513 0.01326 0.0
C568 C 0.06071 0.96941 0.96159 0.0
C569 C 0.06095 0.00905 0.93311 0.0
C570 C 0.03121 0.957 0.96699 0.0
C571 C 0.0252 0.94102 0.94788 0.0
C572 C 0.04848 0.93713 0.92279 0.0
C573 C 0.07878 0.94917 0.91802 0.0
C574 C 0.08501 0.96509 0.93743 0.0
H575 H 0.05217 0.02401 0.92747 0.0
H576 H 0.08782 0.00664 0.92215 0.0
H577 H 0.04127 0.99876 0.92264 0.0
H578 H 0.01215 0.95999 0.98553 0.0
H579 H 1.00162 0.93204 0.95225 0.0
H580 H 0.08056 0.5765 0.95375 0.0
H581 H 0.07005 0.54829 0.98641 0.0
H582 H 0.97347 0.53464 0.93404 0.0
H583 H 0.98456 0.56263 0.9004 0.0
H584 H 0.01596 0.53729 0.02402 0.0
H585 H 0.0295 0.4848 0.92696 0.0
H586 H 0.04048 0.51007 0.92268 0.0
H587 H 0.99389 0.50225 0.92212 0.0
C588 C 0.05693 0.56759 0.94922 0.0
C589 C 0.03358 0.5717 0.92427 0.0
C590 C 0.05093 0.55146 0.96798 0.0
C591 C 0.02136 0.53912 0.96235 0.0
C592 C 0.99699 0.54367 0.93834 0.0
H593 H 0.98523 0.44567 0.09903 0.0
H594 H 0.97368 0.47376 0.06571 0.0
C595 C 1.00321 0.55974 0.91928 0.0
C596 C 0.01718 0.52127 0.98119 0.0
H597 H 0.01831 0.47195 0.97654 0.0
C598 C 0.01615 0.52299 0.01366 0.0
C599 C 0.0178 0.50261 0.96761 0.0
C600 C 0.0208 0.49973 0.93297 0.0
C601 C 0.01694 0.50663 0.03296 0.0
C602 C 0.01769 0.48798 0.01938 0.0
C603 C 0.01747 0.48625 0.9869 0.0
C604 C 0.02245 0.47018 0.03825 0.0
C605 C 0.01896 0.50954 0.06765 0.0
C606 C 0.05279 0.45836 0.03304 0.0
C607 C 0.05909 0.44218 0.05161 0.0
C608 C 0.03526 0.4375 0.07596 0.0
C609 C 1.00424 0.449 0.08062 0.0
C610 C 0.99775 0.46513 0.06174 0.0
H611 H 0.02661 0.52461 0.07382 0.0
H612 H 0.99197 0.50651 0.07801 0.0
H613 H 0.039 0.49955 0.07827 0.0
H614 H 0.07219 0.46193 0.01502 0.0
H615 H 0.08322 0.43364 0.04735 0.0
H616 H 0.49875 0.43387 0.4538 0.0
H617 H 0.50976 0.46208 0.48635 0.0
H618 H 0.60757 0.47458 0.43502 0.0
H619 H 0.59596 0.44659 0.40142 0.0
H620 H 0.56334 0.47216 0.52455 0.0
H621 H 0.55473 0.52529 0.42807 0.0
H622 H 0.54262 0.5002 0.42321 0.0
H623 H 0.58958 0.50737 0.42355 0.0
C624 C 0.52272 0.44254 0.44944 0.0
C625 C 0.54633 0.43808 0.42484 0.0
C626 C 0.52901 0.45868 0.46814 0.0
C627 C 0.55914 0.47068 0.46282 0.0
C628 C 0.58363 0.46583 0.43907 0.0
H629 H 0.59679 0.56229 0.60238 0.0
H630 H 0.60796 0.53454 0.56825 0.0
C631 C 0.57711 0.44975 0.42004 0.0
C632 C 0.56393 0.4884 0.48194 0.0
H633 H 0.56575 0.53773 0.47801 0.0
C634 C 0.56418 0.48651 0.51439 0.0
C635 C 0.56466 0.50712 0.46863 0.0
C636 C 0.56257 0.51022 0.43399 0.0
C637 C 0.56383 0.50278 0.53392 0.0
C638 C 0.56449 0.5215 0.52061 0.0
C639 C 0.56553 0.52338 0.48817 0.0
C640 C 0.56037 0.53927 0.53971 0.0
C641 C 0.56074 0.4997 0.56851 0.0
C642 C 0.531 0.5517 0.5341 0.0
C643 C 0.52499 0.56773 0.55311 0.0
C644 C 0.54811 0.57161 0.57833 0.0
C645 C 0.57831 0.55957 0.5833 0.0
C646 C 0.58457 0.54362 0.56397 0.0
H647 H 0.55185 0.48476 0.57426 0.0
H648 H 0.58767 0.50208 0.57943 0.0
H649 H 0.54117 0.51003 0.57896 0.0
H650 H 0.51201 0.54869 0.51549 0.0
H651 H 0.50149 0.5767 0.5486 0.0
H652 H 0.58056 0.93142 0.54672 0.0
H653 H 0.5702 0.9596 0.51396 0.0
H654 H 0.47396 0.97348 0.56647 0.0
H655 H 0.48496 0.94556 0.60025 0.0
H656 H 0.51663 0.97075 0.47639 0.0
H657 H 0.53005 0.02323 0.57348 0.0
H658 H 0.54071 0.99794 0.57785 0.0
H659 H 0.49421 0.00588 0.57825 0.0
C660 C 0.55703 0.94038 0.55125 0.0
C661 C 0.53378 0.93636 0.5763 0.0
C662 C 0.55111 0.95649 0.53243 0.0
C663 C 0.52171 0.9689 0.53809 0.0
C664 C 0.49738 0.96442 0.56216 0.0
H665 H 0.48583 0.06223 0.40121 0.0
H666 H 0.47451 0.03402 0.43433 0.0
C667 C 0.50354 0.94838 0.5813 0.0
C668 C 0.51767 0.98676 0.51924 0.0
H669 H 0.51866 0.03608 0.52392 0.0
C670 C 0.51677 0.98505 0.48676 0.0
C671 C 0.51824 0.00542 0.53283 0.0
C672 C 0.52119 0.00832 0.56748 0.0
C673 C 0.51764 1.00142 0.46747 0.0
C674 C 0.51825 0.02007 0.48107 0.0
C675 C 0.51792 0.02178 0.51355 0.0
C676 C 0.52292 0.0379 0.46222 0.0
C677 C 0.51985 0.9985 0.43279 0.0
C678 C 0.55294 0.04994 0.46774 0.0
C679 C 0.55907 0.0662 0.44931 0.0
C680 C 0.5354 0.07074 0.42478 0.0
C681 C 0.50472 0.05901 0.41977 0.0
C682 C 0.49837 0.04281 0.43853 0.0
H683 H 0.52781 0.98348 0.42668 0.0
H684 H 0.49284 1.00133 0.42233 0.0
H685 H 0.53974 0.00862 0.42222 0.0
H686 H 0.57223 0.04649 0.48592 0.0
H687 H 0.58295 0.07492 0.45382 0.0
loop_
_geom_bond_atom_site_label_1
_geom_bond_atom_site_label_2
_geom_bond_distance
_geom_bond_site_symmetry_2
_ccdc_geom_bond_type
O0 Cd1 2.239 . S
O0 C8 1.315 . S
Cd1 O0 2.239 . S
Cd1 O4 2.304 . S
Cd1 O5 2.431 1_655 S
Cd1 O11 2.230 1_655 S
Cd2 O3 2.240 1_455 S
Cd2 O10 2.223 . S
Cd2 O12 2.297 . S
Cd2 O13 2.439 . S
O3 Cd2 2.240 1_655 S
O3 C8 1.279 . S
O4 Cd1 2.304 . S
O4 C6 1.247 1_655 S
O5 Cd1 2.431 1_455 S
O5 C6 1.208 . S
C6 O4 1.247 1_455 S
C6 O5 1.208 . S
C7 O12 1.247 . S
C7 O13 1.208 . S
C8 O0 1.315 . S
C8 O3 1.279 . S
C9 O10 1.315 . S
C9 O11 1.279 . S
O10 Cd2 2.223 . S
O10 C9 1.315 . S
O11 Cd1 2.230 1_455 S
O11 C9 1.279 . S
O12 Cd2 2.297 . S
O12 C7 1.247 . S
O13 Cd2 2.439 . S
O13 C7 1.208 . S
O14 Cd15 2.223 . S
O14 C22 1.315 . S
Cd15 O14 2.223 . S
Cd15 O18 2.297 . S
Cd15 O19 2.439 . S
Cd15 O25 2.240 . S
Cd16 O17 2.240 . S
Cd16 O24 2.223 . S
Cd16 O26 2.297 1_455 S
Cd16 O27 2.439 1_455 S
O17 Cd16 2.240 . S
O17 C22 1.279 . S
O18 Cd15 2.297 . S
O18 C20 1.247 . S
O19 Cd15 2.439 . S
O19 C20 1.208 . S
C20 O18 1.247 . S
C20 O19 1.208 . S
C21 O26 1.247 . S
C21 O27 1.208 . S
C22 O14 1.315 . S
C22 O17 1.279 . S
C23 O24 1.315 . S
C23 O25 1.279 . S
O24 Cd16 2.223 . S
O24 C23 1.315 . S
O25 Cd15 2.240 . S
O25 C23 1.279 . S
O26 Cd16 2.297 1_655 S
O26 C21 1.247 . S
O27 Cd16 2.439 1_655 S
O27 C21 1.208 . S
O28 Cd29 2.239 . S
O28 C36 1.315 . S
Cd29 O28 2.239 . S
Cd29 O32 2.304 . S
Cd29 O33 2.431 1_655 S
Cd29 O39 2.230 1_655 S
Cd30 O31 2.240 1_455 S
Cd30 O38 2.223 . S
Cd30 O40 2.297 . S
Cd30 O41 2.439 . S
O31 Cd30 2.240 1_655 S
O31 C36 1.279 . S
O32 Cd29 2.304 . S
O32 C34 1.247 1_655 S
O33 Cd29 2.431 1_455 S
O33 C34 1.208 . S
C34 O32 1.247 1_455 S
C34 O33 1.208 . S
C35 O40 1.247 . S
C35 O41 1.208 . S
C36 O28 1.315 . S
C36 O31 1.279 . S
C37 O38 1.315 . S
C37 O39 1.279 . S
O38 Cd30 2.223 . S
O38 C37 1.315 . S
O39 Cd29 2.230 1_455 S
O39 C37 1.279 . S
O40 Cd30 2.297 . S
O40 C35 1.247 . S
O41 Cd30 2.439 . S
O41 C35 1.208 . S
O42 Cd43 2.223 . S
O42 C50 1.315 . S
Cd43 O42 2.223 . S
Cd43 O46 2.297 . S
Cd43 O47 2.439 . S
Cd43 O53 2.240 . S
Cd44 O45 2.240 . S
Cd44 O52 2.223 . S
Cd44 O54 2.297 1_455 S
Cd44 O55 2.439 1_455 S
O45 Cd44 2.240 . S
O45 C50 1.279 . S
O46 Cd43 2.297 . S
O46 C48 1.247 . S
O47 Cd43 2.439 . S
O47 C48 1.208 . S
C48 O46 1.247 . S
C48 O47 1.208 . S
C49 O54 1.247 . S
C49 O55 1.208 . S
C50 O42 1.315 . S
C50 O45 1.279 . S
C51 O52 1.315 . S
C51 O53 1.279 . S
O52 Cd44 2.223 . S
O52 C51 1.315 . S
O53 Cd43 2.240 . S
O53 C51 1.279 . S
O54 Cd44 2.297 1_655 S
O54 C49 1.247 . S
O55 Cd44 2.439 1_655 S
O55 C49 1.208 . S
O56 Cd57 2.223 . S
O56 C64 1.315 . S
Cd57 O56 2.223 . S
Cd57 O60 2.297 . S
Cd57 O61 2.439 . S
Cd57 O67 2.240 . S
Cd58 O59 2.240 . S
Cd58 O66 2.223 . S
Cd58 O68 2.297 . S
Cd58 O69 2.439 . S
O59 Cd58 2.240 . S
O59 C64 1.279 . S
O60 Cd57 2.297 . S
O60 C62 1.247 . S
O61 Cd57 2.439 . S
O61 C62 1.208 . S
C62 O60 1.247 . S
C62 O61 1.208 . S
C63 O68 1.247 . S
C63 O69 1.208 . S
C64 O56 1.315 . S
C64 O59 1.279 . S
C65 O66 1.315 . S
C65 O67 1.279 . S
O66 Cd58 2.223 . S
O66 C65 1.315 . S
O67 Cd57 2.240 . S
O67 C65 1.279 . S
O68 Cd58 2.297 . S
O68 C63 1.247 . S
O69 Cd58 2.439 . S
O69 C63 1.208 . S
O70 Cd71 2.223 . S
O70 C78 1.315 . S
Cd71 O70 2.223 . S
Cd71 O74 2.297 . S
Cd71 O75 2.439 . S
Cd71 O81 2.240 . S
Cd72 O73 2.240 . S
Cd72 O80 2.223 . S
Cd72 O82 2.297 . S
Cd72 O83 2.439 . S
O73 Cd72 2.240 . S
O73 C78 1.279 . S
O74 Cd71 2.297 . S
O74 C76 1.247 . S
O75 Cd71 2.439 . S
O75 C76 1.208 . S
C76 O74 1.247 . S
C76 O75 1.208 . S
C77 O82 1.247 . S
C77 O83 1.208 . S
C78 O70 1.315 . S
C78 O73 1.279 . S
C79 O80 1.315 . S
C79 O81 1.279 . S
O80 Cd72 2.223 . S
O80 C79 1.315 . S
O81 Cd71 2.240 . S
O81 C79 1.279 . S
O82 Cd72 2.297 . S
O82 C77 1.247 . S
O83 Cd72 2.439 . S
O83 C77 1.208 . S
O84 Cd85 2.223 . S
O84 C92 1.315 . S
Cd85 O84 2.223 . S
Cd85 O88 2.297 . S
Cd85 O89 2.439 . S
Cd85 O95 2.240 . S
Cd86 O87 2.240 . S
Cd86 O94 2.223 . S
Cd86 O96 2.297 . S
Cd86 O97 2.439 . S
O87 Cd86 2.240 . S
O87 C92 1.279 . S
O88 Cd85 2.297 . S
O88 C90 1.247 . S
O89 Cd85 2.439 . S
O89 C90 1.208 . S
C90 O88 1.247 . S
C90 O89 1.208 . S
C91 O96 1.247 . S
C91 O97 1.208 . S
C92 O84 1.315 . S
C92 O87 1.279 . S
C93 O94 1.315 . S
C93 O95 1.279 . S
O94 Cd86 2.223 . S
O94 C93 1.315 . S
O95 Cd85 2.240 . S
O95 C93 1.279 . S
O96 Cd86 2.297 . S
O96 C91 1.247 . S
O97 Cd86 2.439 . S
O97 C91 1.208 . S
O98 Cd99 2.223 . S
O98 C106 1.315 . S
Cd99 O98 2.223 . S
Cd99 O102 2.297 . S
Cd99 O103 2.439 . S
Cd99 O109 2.240 . S
Cd100 O101 2.240 . S
Cd100 O108 2.223 . S
Cd100 O110 2.297 . S
Cd100 O111 2.439 . S
O101 Cd100 2.240 . S
O101 C106 1.279 . S
O102 Cd99 2.297 . S
O102 C104 1.247 . S
O103 Cd99 2.439 . S
O103 C104 1.208 . S
C104 O102 1.247 . S
C104 O103 1.208 . S
C105 O110 1.247 . S
C105 O111 1.208 . S
C106 O98 1.315 . S
C106 O101 1.279 . S
C107 O108 1.315 . S
C107 O109 1.279 . S
O108 Cd100 2.223 . S
O108 C107 1.315 . S
O109 Cd99 2.240 . S
O109 C107 1.279 . S
O110 Cd100 2.297 . S
O110 C105 1.247 . S
O111 Cd100 2.439 . S
O111 C105 1.208 . S
H112 C120 0.929 1_655 S
H113 C122 0.930 1_655 S
H114 C124 0.930 . S
H115 C127 0.929 . S
H116 C130 0.930 . S
H117 C132 0.960 . S
H118 C132 0.960 . S
H119 C132 0.960 . S
C120 H112 0.929 1_455 S
C120 C121 1.377 . S
C120 C122 1.384 . S
C121 C120 1.377 . S
C121 C127 1.390 . S
C122 H113 0.930 1_455 S
C122 C120 1.384 . S
C122 C123 1.372 . S
C123 C122 1.372 . S
C123 C124 1.400 . S
C123 C128 1.490 . S
C124 H114 0.930 . S
C124 C123 1.400 . S
C124 C127 1.386 . S
H125 C141 0.930 . S
H126 C142 0.931 . S
C127 H115 0.929 . S
C127 C121 1.390 . S
C127 C124 1.386 . S
C128 C123 1.490 . S
C128 C130 1.395 . S
C128 C131 1.403 . S
H129 C135 0.930 . S
C130 H116 0.930 . S
C130 C128 1.395 . S
C130 C133 1.403 . S
C131 C128 1.403 . S
C131 C132 1.524 . S
C131 C135 1.400 . S
C132 H117 0.960 . S
C132 H118 0.960 . S
C132 H119 0.960 . S
C132 C131 1.524 . S
C133 C130 1.403 . S
C133 C134 1.392 . S
C133 C137 1.495 1_455 S
C134 C133 1.392 . S
C134 C135 1.385 . S
C134 C136 1.478 . S
C135 H129 0.930 . S
C135 C131 1.400 . S
C135 C134 1.385 . S
C136 C134 1.478 . S
C136 C138 1.381 1_455 S
C136 C142 1.383 . S
C137 C133 1.495 1_655 S
C137 H143 0.959 . S
C137 H144 0.961 1_655 S
C137 H145 0.960 . S
C138 C136 1.381 1_655 S
C138 C139 1.394 . S
C138 H146 0.930 . S
C139 C138 1.394 . S
C139 C140 1.383 1_655 S
C139 H147 0.929 . S
C140 C139 1.383 1_455 S
C140 C141 1.377 . S
C141 H125 0.930 . S
C141 C140 1.377 . S
C141 C142 1.379 . S
C142 H126 0.931 . S
C142 C136 1.383 . S
C142 C141 1.379 . S
H143 C137 0.959 . S
H144 C137 0.961 1_455 S
H145 C137 0.960 . S
H146 C138 0.930 . S
H147 C139 0.929 . S
H148 C156 0.929 . S
H149 C158 0.930 . S
H150 C160 0.930 . S
H151 C163 0.929 . S
H152 C166 0.930 . S
H153 C168 0.960 . S
H154 C168 0.960 . S
H155 C168 0.960 . S
C156 H148 0.929 . S
C156 C157 1.377 . S
C156 C158 1.384 . S
C157 C156 1.377 . S
C157 C163 1.390 . S
C158 H149 0.930 . S
C158 C156 1.384 . S
C158 C159 1.372 . S
C159 C158 1.372 . S
C159 C160 1.400 . S
C159 C164 1.490 . S
C160 H150 0.930 . S
C160 C159 1.400 . S
C160 C163 1.386 . S
H161 C177 0.930 . S
H162 C178 0.931 . S
C163 H151 0.929 . S
C163 C157 1.390 . S
C163 C160 1.386 . S
C164 C159 1.490 . S
C164 C166 1.395 . S
C164 C167 1.381 1_455 S
H165 C171 0.930 1_655 S
C166 H152 0.930 . S
C166 C164 1.395 . S
C166 C169 1.403 . S
C167 C164 1.381 1_655 S
C167 C168 1.551 . S
C167 C171 1.395 1_655 S
C168 H153 0.960 . S
C168 H154 0.960 . S
C168 H155 0.960 . S
C168 C167 1.551 . S
C169 C166 1.403 . S
C169 C170 1.392 . S
C169 C173 1.495 . S
C170 C169 1.392 . S
C170 C171 1.385 . S
C170 C172 1.478 . S
C171 H165 0.930 1_455 S
C171 C167 1.395 1_455 S
C171 C170 1.385 . S
C172 C170 1.478 . S
C172 C174 1.381 . S
C172 C178 1.383 . S
C173 C169 1.495 . S
C173 H179 0.959 . S
C173 H180 0.961 . S
C173 H181 0.960 . S
C174 C172 1.381 . S
C174 C175 1.394 . S
C174 H182 0.930 . S
C175 C174 1.394 . S
C175 C176 1.383 . S
C175 H183 0.929 . S
C176 C175 1.383 . S
C176 C177 1.377 . S
C177 H161 0.930 . S
C177 C176 1.377 . S
C177 C178 1.379 . S
C178 H162 0.931 . S
C178 C172 1.383 . S
C178 C177 1.379 . S
H179 C173 0.959 . S
H180 C173 0.961 . S
H181 C173 0.960 . S
H182 C174 0.930 . S
H183 C175 0.929 . S
H184 C192 0.929 . S
H185 C194 0.930 . S
H186 C196 0.930 . S
H187 C199 0.929 . S
H188 C202 0.930 . S
H189 C204 0.960 . S
H190 C204 0.960 . S
H191 C204 0.960 . S
C192 H184 0.929 . S
C192 C193 1.377 . S
C192 C194 1.384 . S
C193 C192 1.377 . S
C193 C199 1.390 . S
C194 H185 0.930 . S
C194 C192 1.384 . S
C194 C195 1.372 . S
C195 C194 1.372 . S
C195 C196 1.400 . S
C195 C200 1.490 . S
C196 H186 0.930 . S
C196 C195 1.400 . S
C196 C199 1.386 . S
H197 C213 0.930 . S
H198 C214 0.931 . S
C199 H187 0.929 . S
C199 C193 1.390 . S
C199 C196 1.386 . S
C200 C195 1.490 . S
C200 C202 1.395 . S
C200 C203 1.403 . S
H201 C207 0.930 . S
C202 H188 0.930 . S
C202 C200 1.395 . S
C202 C205 1.403 . S
C203 C200 1.403 . S
C203 C204 1.524 . S
C203 C207 1.400 . S
C204 H189 0.960 . S
C204 H190 0.960 . S
C204 H191 0.960 . S
C204 C203 1.524 . S
C205 C202 1.403 . S
C205 C206 1.392 . S
C205 C209 1.495 . S
C206 C205 1.392 . S
C206 C207 1.385 . S
C206 C208 1.478 . S
C207 H201 0.930 . S
C207 C203 1.400 . S
C207 C206 1.385 . S
C208 C206 1.478 . S
C208 C210 1.381 . S
C208 C214 1.383 . S
C209 C205 1.495 . S
C209 H215 0.959 . S
C209 H216 0.961 . S
C209 H217 0.960 . S
C210 C208 1.381 . S
C210 C211 1.394 . S
C210 H218 0.930 . S
C211 C210 1.394 . S
C211 C212 1.383 . S
C211 H219 0.929 . S
C212 C211 1.383 . S
C212 C213 1.377 . S
C213 H197 0.930 . S
C213 C212 1.377 . S
C213 C214 1.379 . S
C214 H198 0.931 . S
C214 C208 1.383 . S
C214 C213 1.379 . S
H215 C209 0.959 . S
H216 C209 0.961 . S
H217 C209 0.960 . S
H218 C210 0.930 . S
H219 C211 0.929 . S
H220 C228 0.929 . S
H221 C230 0.930 . S
H222 C232 0.930 . S
H223 C235 0.929 . S
H224 C238 0.930 . S
H225 C240 0.960 . S
H226 C240 0.960 . S
H227 C240 0.960 . S
C228 H220 0.929 . S
C228 C229 1.377 . S
C228 C230 1.384 . S
C229 C228 1.377 . S
C229 C235 1.390 . S
C230 H221 0.930 . S
C230 C228 1.384 . S
C230 C231 1.372 . S
C231 C230 1.372 . S
C231 C232 1.400 . S
C231 C236 1.490 . S
C232 H222 0.930 . S
C232 C231 1.400 . S
C232 C235 1.386 . S
H233 C249 0.930 . S
H234 C250 0.931 . S
C235 H223 0.929 . S
C235 C229 1.390 . S
C235 C232 1.386 . S
C236 C231 1.490 . S
C236 C238 1.395 . S
C236 C239 1.403 . S
H237 C243 0.930 . S
C238 H224 0.930 . S
C238 C236 1.395 . S
C238 C241 1.403 . S
C239 C236 1.403 . S
C239 C240 1.524 . S
C239 C243 1.400 . S
C240 H225 0.960 . S
C240 H226 0.960 . S
C240 H227 0.960 . S
C240 C239 1.524 . S
C241 C238 1.403 . S
C241 C242 1.392 . S
C241 C245 1.495 . S
C242 C241 1.392 . S
C242 C243 1.385 . S
C242 C244 1.478 . S
C243 H237 0.930 . S
C243 C239 1.400 . S
C243 C242 1.385 . S
C244 C242 1.478 . S
C244 C246 1.381 . S
C244 C250 1.383 . S
C245 C241 1.495 . S
C245 H251 0.959 . S
C245 H252 0.961 . S
C245 H253 0.960 . S
C246 C244 1.381 . S
C246 C247 1.394 . S
C246 H254 0.930 . S
C247 C246 1.394 . S
C247 C248 1.383 . S
C247 H255 0.929 . S
C248 C247 1.383 . S
C248 C249 1.377 . S
C249 H233 0.930 . S
C249 C248 1.377 . S
C249 C250 1.379 . S
C250 H234 0.931 . S
C250 C244 1.383 . S
C250 C249 1.379 . S
H251 C245 0.959 . S
H252 C245 0.961 . S
H253 C245 0.960 . S
H254 C246 0.930 . S
H255 C247 0.929 . S
H256 C264 0.929 . S
H257 C266 0.930 . S
H258 C268 0.930 . S
H259 C271 0.929 . S
H260 C274 0.930 . S
H261 C276 0.960 . S
H262 C276 0.960 . S
H263 C276 0.960 . S
C264 H256 0.929 . S
C264 C265 1.377 . S
C264 C266 1.384 . S
C265 C264 1.377 . S
C265 C271 1.390 . S
C266 H257 0.930 . S
C266 C264 1.384 . S
C266 C267 1.372 . S
C267 C266 1.372 . S
C267 C268 1.400 . S
C267 C272 1.490 . S
C268 H258 0.930 . S
C268 C267 1.400 . S
C268 C271 1.386 . S
H269 C285 0.930 . S
H270 C286 0.931 . S
C271 H259 0.929 . S
C271 C265 1.390 . S
C271 C268 1.386 . S
C272 C267 1.490 . S
C272 C274 1.395 . S
C272 C275 1.403 . S
H273 C279 0.930 . S
C274 H260 0.930 . S
C274 C272 1.395 . S
C274 C277 1.403 . S
C275 C272 1.403 . S
C275 C276 1.524 . S
C275 C279 1.400 . S
C276 H261 0.960 . S
C276 H262 0.960 . S
C276 H263 0.960 . S
C276 C275 1.524 . S
C277 C274 1.403 . S
C277 C278 1.392 . S
C277 C281 1.495 . S
C278 C277 1.392 . S
C278 C279 1.385 . S
C278 C280 1.478 . S
C279 H273 0.930 . S
C279 C275 1.400 . S
C279 C278 1.385 . S
C280 C278 1.478 . S
C280 C282 1.381 . S
C280 C286 1.383 . S
C281 C277 1.495 . S
C281 H287 0.959 . S
C281 H288 0.961 . S
C281 H289 0.960 . S
C282 C280 1.381 . S
C282 C283 1.394 . S
C282 H290 0.930 . S
C283 C282 1.394 . S
C283 C284 1.383 . S
C283 H291 0.929 . S
C284 C283 1.383 . S
C284 C285 1.377 . S
C285 H269 0.930 . S
C285 C284 1.377 . S
C285 C286 1.379 . S
C286 H270 0.931 . S
C286 C280 1.383 . S
C286 C285 1.379 . S
H287 C281 0.959 . S
H288 C281 0.961 . S
H289 C281 0.960 . S
H290 C282 0.930 . S
H291 C283 0.929 . S
H292 C300 0.929 . S
H293 C302 0.930 . S
H294 C304 0.930 . S
H295 C307 0.929 . S
H296 C310 0.930 . S
H297 C312 0.960 . S
H298 C312 0.960 . S
H299 C312 0.960 . S
C300 H292 0.929 . S
C300 C301 1.377 . S
C300 C302 1.384 . S
C301 C300 1.377 . S
C301 C307 1.390 . S
C302 H293 0.930 . S
C302 C300 1.384 . S
C302 C303 1.372 . S
C303 C302 1.372 . S
C303 C304 1.400 . S
C303 C308 1.490 . S
C304 H294 0.930 . S
C304 C303 1.400 . S
C304 C307 1.386 . S
H305 C321 0.930 . S
H306 C322 0.931 . S
C307 H295 0.929 . S
C307 C301 1.390 . S
C307 C304 1.386 . S
C308 C303 1.490 . S
C308 C310 1.395 . S
C308 C311 1.403 . S
H309 C315 0.930 . S
C310 H296 0.930 . S
C310 C308 1.395 . S
C310 C313 1.403 . S
C311 C308 1.403 . S
C311 C312 1.524 . S
C311 C315 1.400 . S
C312 H297 0.960 . S
C312 H298 0.960 . S
C312 H299 0.960 . S
C312 C311 1.524 . S
C313 C310 1.403 . S
C313 C314 1.392 . S
C313 C317 1.495 . S
C314 C313 1.392 . S
C314 C315 1.385 . S
C314 C316 1.478 . S
C315 H309 0.930 . S
C315 C311 1.400 . S
C315 C314 1.385 . S
C316 C314 1.478 . S
C316 C318 1.381 . S
C316 C322 1.383 . S
C317 C313 1.495 . S
C317 H323 0.959 . S
C317 H324 0.961 . S
C317 H325 0.960 . S
C318 C316 1.381 . S
C318 C319 1.394 . S
C318 H326 0.930 . S
C319 C318 1.394 . S
C319 C320 1.383 . S
C319 H327 0.929 . S
C320 C319 1.383 . S
C320 C321 1.377 . S
C321 H305 0.930 . S
C321 C320 1.377 . S
C321 C322 1.379 . S
C322 H306 0.931 . S
C322 C316 1.383 . S
C322 C321 1.379 . S
H323 C317 0.959 . S
H324 C317 0.961 . S
H325 C317 0.960 . S
H326 C318 0.930 . S
H327 C319 0.929 . S
H328 C336 0.929 . S
H329 C338 0.930 . S
H330 C340 0.930 . S
H331 C343 0.929 . S
H332 C346 0.930 . S
H333 C348 0.960 . S
H334 C348 0.960 . S
H335 C348 0.960 . S
C336 H328 0.929 . S
C336 C337 1.377 . S
C336 C338 1.384 . S
C337 C336 1.377 . S
C337 C343 1.390 . S
C338 H329 0.930 . S
C338 C336 1.384 . S
C338 C339 1.372 . S
C339 C338 1.372 . S
C339 C340 1.400 . S
C339 C344 1.490 . S
C340 H330 0.930 . S
C340 C339 1.400 . S
C340 C343 1.386 . S
H341 C357 0.930 . S
H342 C358 0.931 . S
C343 H331 0.929 . S
C343 C337 1.390 . S
C343 C340 1.386 . S
C344 C339 1.490 . S
C344 C346 1.395 . S
C344 C347 1.403 . S
H345 C351 0.930 . S
C346 H332 0.930 . S
C346 C344 1.395 . S
C346 C349 1.403 . S
C347 C344 1.403 . S
C347 C348 1.524 . S
C347 C351 1.400 . S
C348 H333 0.960 . S
C348 H334 0.960 . S
C348 H335 0.960 . S
C348 C347 1.524 . S
C349 C346 1.403 . S
C349 C350 1.392 . S
C349 C353 1.495 . S
C350 C349 1.392 . S
C350 C351 1.385 . S
C350 C352 1.478 . S
C351 H345 0.930 . S
C351 C347 1.400 . S
C351 C350 1.385 . S
C352 C350 1.478 . S
C352 C354 1.381 . S
C352 C358 1.383 . S
C353 C349 1.495 . S
C353 H359 0.959 . S
C353 H360 0.961 . S
C353 H361 0.960 . S
C354 C352 1.381 . S
C354 C355 1.394 . S
C354 H362 0.930 . S
C355 C354 1.394 . S
C355 C356 1.383 . S
C355 H363 0.929 . S
C356 C355 1.383 . S
C356 C357 1.377 . S
C357 H341 0.930 . S
C357 C356 1.377 . S
C357 C358 1.379 . S
C358 H342 0.931 . S
C358 C352 1.383 . S
C358 C357 1.379 . S
H359 C353 0.959 . S
H360 C353 0.961 . S
H361 C353 0.960 . S
H362 C354 0.930 . S
H363 C355 0.929 . S
H364 C372 0.929 . S
H365 C374 0.930 . S
H366 C376 0.930 . S
H367 C379 0.929 . S
H368 C382 0.930 . S
H369 C384 0.960 . S
H370 C384 0.960 . S
H371 C384 0.960 . S
C372 H364 0.929 . S
C372 C373 1.377 . S
C372 C374 1.384 . S
C373 C372 1.377 . S
C373 C379 1.390 . S
C374 H365 0.930 . S
C374 C372 1.384 . S
C374 C375 1.372 . S
C375 C374 1.372 . S
C375 C376 1.400 . S
C375 C380 1.490 . S
C376 H366 0.930 . S
C376 C375 1.400 . S
C376 C379 1.386 . S
H377 C393 0.930 . S
H378 C394 0.931 . S
C379 H367 0.929 . S
C379 C373 1.390 . S
C379 C376 1.386 . S
C380 C375 1.490 . S
C380 C382 1.395 . S
C380 C383 1.403 . S
H381 C387 0.930 . S
C382 H368 0.930 . S
C382 C380 1.395 . S
C382 C385 1.403 . S
C383 C380 1.403 . S
C383 C384 1.524 . S
C383 C387 1.400 . S
C384 H369 0.960 . S
C384 H370 0.960 . S
C384 H371 0.960 . S
C384 C383 1.524 . S
C385 C382 1.403 . S
C385 C386 1.392 . S
C385 C389 1.495 . S
C386 C385 1.392 . S
C386 C387 1.385 . S
C386 C388 1.478 . S
C387 H381 0.930 . S
C387 C383 1.400 . S
C387 C386 1.385 . S
C388 C386 1.478 . S
C388 C390 1.381 . S
C388 C394 1.383 . S
C389 C385 1.495 . S
C389 H395 0.959 . S
C389 H396 0.961 . S
C389 H397 0.960 . S
C390 C388 1.381 . S
C390 C391 1.394 . S
C390 H398 0.930 . S
C391 C390 1.394 . S
C391 C392 1.383 . S
C391 H399 0.929 . S
C392 C391 1.383 . S
C392 C393 1.377 . S
C393 H377 0.930 . S
C393 C392 1.377 . S
C393 C394 1.379 . S
C394 H378 0.931 . S
C394 C388 1.383 . S
C394 C393 1.379 . S
H395 C389 0.959 . S
H396 C389 0.961 . S
H397 C389 0.960 . S
H398 C390 0.930 . S
H399 C391 0.929 . S
H400 C408 0.929 . S
H401 C410 0.930 . S
H402 C412 0.930 . S
H403 C415 0.929 . S
H404 C418 0.930 . S
H405 C420 0.960 . S
H406 C420 0.960 . S
H407 C420 0.960 . S
C408 H400 0.929 . S
C408 C409 1.377 . S
C408 C410 1.384 . S
C409 C408 1.377 . S
C409 C415 1.390 . S
C410 H401 0.930 . S
C410 C408 1.384 . S
C410 C411 1.372 . S
C411 C410 1.372 . S
C411 C412 1.400 . S
C411 C416 1.490 . S
C412 H402 0.930 . S
C412 C411 1.400 . S
C412 C415 1.386 . S
H413 C429 0.930 . S
H414 C430 0.931 . S
C415 H403 0.929 . S
C415 C409 1.390 . S
C415 C412 1.386 . S
C416 C411 1.490 . S
C416 C418 1.395 . S
C416 C419 1.403 . S
H417 C423 0.930 . S
C418 H404 0.930 . S
C418 C416 1.395 . S
C418 C421 1.403 . S
C419 C416 1.403 . S
C419 C420 1.524 . S
C419 C423 1.400 . S
C420 H405 0.960 . S
C420 H406 0.960 . S
C420 H407 0.960 . S
C420 C419 1.524 . S
C421 C418 1.403 . S
C421 C422 1.392 . S
C421 C425 1.495 . S
C422 C421 1.392 . S
C422 C423 1.385 . S
C422 C424 1.478 . S
C423 H417 0.930 . S
C423 C419 1.400 . S
C423 C422 1.385 . S
C424 C422 1.478 . S
C424 C426 1.381 . S
C424 C430 1.383 . S
C425 C421 1.495 . S
C425 H431 0.959 . S
C425 H432 0.961 . S
C425 H433 0.960 . S
C426 C424 1.381 . S
C426 C427 1.394 . S
C426 H434 0.930 . S
C427 C426 1.394 . S
C427 C428 1.383 . S
C427 H435 0.929 . S
C428 C427 1.383 . S
C428 C429 1.377 . S
C429 H413 0.930 . S
C429 C428 1.377 . S
C429 C430 1.379 . S
C430 H414 0.931 . S
C430 C424 1.383 . S
C430 C429 1.379 . S
H431 C425 0.959 . S
H432 C425 0.961 . S
H433 C425 0.960 . S
H434 C426 0.930 . S
H435 C427 0.929 . S
H436 C444 0.929 . S
H437 C446 0.930 . S
H438 C448 0.930 . S
H439 C451 0.929 . S
H440 C454 0.930 . S
H441 C456 0.960 . S
H442 C456 0.960 . S
H443 C456 0.960 . S
C444 H436 0.929 . S
C444 C445 1.377 . S
C444 C446 1.384 . S
C445 C444 1.377 . S
C445 C451 1.390 . S
C446 H437 0.930 . S
C446 C444 1.384 . S
C446 C447 1.372 . S
C447 C446 1.372 . S
C447 C448 1.400 . S
C447 C452 1.490 . S
C448 H438 0.930 . S
C448 C447 1.400 . S
C448 C451 1.386 . S
H449 C465 0.930 . S
H450 C466 0.931 . S
C451 H439 0.929 . S
C451 C445 1.390 . S
C451 C448 1.386 . S
C452 C447 1.490 . S
C452 C454 1.395 . S
C452 C455 1.403 . S
H453 C459 0.930 . S
C454 H440 0.930 . S
C454 C452 1.395 . S
C454 C457 1.403 . S
C455 C452 1.403 . S
C455 C456 1.524 . S
C455 C459 1.400 . S
C456 H441 0.960 . S
C456 H442 0.960 . S
C456 H443 0.960 . S
C456 C455 1.524 . S
C457 C454 1.403 . S
C457 C458 1.392 . S
C457 C461 1.495 . S
C458 C457 1.392 . S
C458 C459 1.385 . S
C458 C460 1.478 . S
C459 H453 0.930 . S
C459 C455 1.400 . S
C459 C458 1.385 . S
C460 C458 1.478 . S
C460 C462 1.381 . S
C460 C466 1.383 . S
C461 C457 1.495 . S
C461 H467 0.959 . S
C461 H468 0.961 . S
C461 H469 0.960 . S
C462 C460 1.381 . S
C462 C463 1.394 . S
C462 H470 0.930 . S
C463 C462 1.394 . S
C463 C464 1.383 . S
C463 H471 0.929 . S
C464 C463 1.383 . S
C464 C465 1.377 . S
C465 H449 0.930 . S
C465 C464 1.377 . S
C465 C466 1.379 . S
C466 H450 0.931 . S
C466 C460 1.383 . S
C466 C465 1.379 . S
H467 C461 0.959 . S
H468 C461 0.961 . S
H469 C461 0.960 . S
H470 C462 0.930 . S
H471 C463 0.929 . S
H472 C480 0.929 . S
H473 C482 0.930 . S
H474 C484 0.930 . S
H475 C487 0.929 . S
H476 C490 0.930 . S
H477 C492 0.960 . S
H478 C492 0.960 . S
H479 C492 0.960 . S
C480 H472 0.929 . S
C480 C481 1.377 . S
C480 C482 1.384 . S
C481 C480 1.377 . S
C481 C487 1.390 . S
C482 H473 0.930 . S
C482 C480 1.384 . S
C482 C483 1.372 . S
C483 C482 1.372 . S
C483 C484 1.400 . S
C483 C488 1.490 . S
C484 H474 0.930 . S
C484 C483 1.400 . S
C484 C487 1.386 . S
H485 C501 0.930 . S
H486 C502 0.931 . S
C487 H475 0.929 . S
C487 C481 1.390 . S
C487 C484 1.386 . S
C488 C483 1.490 . S
C488 C490 1.395 . S
C488 C491 1.403 . S
H489 C495 0.930 . S
C490 H476 0.930 . S
C490 C488 1.395 . S
C490 C493 1.403 . S
C491 C488 1.403 . S
C491 C492 1.524 . S
C491 C495 1.400 . S
C492 H477 0.960 . S
C492 H478 0.960 . S
C492 H479 0.960 . S
C492 C491 1.524 . S
C493 C490 1.403 . S
C493 C494 1.392 . S
C493 C497 1.495 . S
C494 C493 1.392 . S
C494 C495 1.385 . S
C494 C496 1.478 . S
C495 H489 0.930 . S
C495 C491 1.400 . S
C495 C494 1.385 . S
C496 C494 1.478 . S
C496 C498 1.381 . S
C496 C502 1.383 . S
C497 C493 1.495 . S
C497 H503 0.959 . S
C497 H504 0.961 . S
C497 H505 0.960 . S
C498 C496 1.381 . S
C498 C499 1.394 . S
C498 H506 0.930 . S
C499 C498 1.394 . S
C499 C500 1.383 . S
C499 H507 0.929 . S
C500 C499 1.383 . S
C500 C501 1.377 . S
C501 H485 0.930 . S
C501 C500 1.377 . S
C501 C502 1.379 . S
C502 H486 0.931 . S
C502 C496 1.383 . S
C502 C501 1.379 . S
H503 C497 0.959 . S
H504 C497 0.961 . S
H505 C497 0.960 . S
H506 C498 0.930 . S
H507 C499 0.929 . S
H508 C516 0.929 . S
H509 C518 0.930 . S
H510 C520 0.930 . S
H511 C523 0.929 . S
H512 C526 0.930 . S
H513 C528 0.960 . S
H514 C528 0.960 . S
H515 C528 0.960 . S
C516 H508 0.929 . S
C516 C517 1.377 . S
C516 C518 1.384 . S
C517 C516 1.377 . S
C517 C523 1.390 . S
C518 H509 0.930 . S
C518 C516 1.384 . S
C518 C519 1.372 . S
C519 C518 1.372 . S
C519 C520 1.400 . S
C519 C524 1.490 . S
C520 H510 0.930 . S
C520 C519 1.400 . S
C520 C523 1.386 . S
H521 C537 0.930 . S
H522 C538 0.931 . S
C523 H511 0.929 . S
C523 C517 1.390 . S
C523 C520 1.386 . S
C524 C519 1.490 . S
C524 C526 1.395 . S
C524 C527 1.403 . S
H525 C531 0.930 . S
C526 H512 0.930 . S
C526 C524 1.395 . S
C526 C529 1.403 . S
C527 C524 1.403 . S
C527 C528 1.524 . S
C527 C531 1.400 . S
C528 H513 0.960 . S
C528 H514 0.960 . S
C528 H515 0.960 . S
C528 C527 1.524 . S
C529 C526 1.403 . S
C529 C530 1.392 . S
C529 C533 1.495 . S
C530 C529 1.392 . S
C530 C531 1.385 . S
C530 C532 1.478 . S
C531 H525 0.930 . S
C531 C527 1.400 . S
C531 C530 1.385 . S
C532 C530 1.478 . S
C532 C534 1.381 . S
C532 C538 1.383 . S
C533 C529 1.495 . S
C533 H539 0.959 . S
C533 H540 0.961 . S
C533 H541 0.960 . S
C534 C532 1.381 . S
C534 C535 1.394 . S
C534 H542 0.930 . S
C535 C534 1.394 . S
C535 C536 1.383 . S
C535 H543 0.929 . S
C536 C535 1.383 . S
C536 C537 1.377 . S
C537 H521 0.930 . S
C537 C536 1.377 . S
C537 C538 1.379 . S
C538 H522 0.931 . S
C538 C532 1.383 . S
C538 C537 1.379 . S
H539 C533 0.959 . S
H540 C533 0.961 . S
H541 C533 0.960 . S
H542 C534 0.930 . S
H543 C535 0.929 . S
H544 C552 0.929 . S
H545 C554 0.930 . S
H546 C556 0.930 . S
H547 C559 0.929 . S
H548 C562 0.930 . S
H549 C564 0.960 . S
H550 C564 0.960 . S
H551 C564 0.960 . S
C552 H544 0.929 . S
C552 C553 1.377 1_655 S
C552 C554 1.384 . S
C553 C552 1.377 1_455 S
C553 C559 1.390 . S
C554 H545 0.930 . S
C554 C552 1.384 . S
C554 C555 1.372 1_655 S
C555 C554 1.372 1_455 S
C555 C556 1.400 . S
C555 C560 1.490 . S
C556 H546 0.930 . S
C556 C555 1.400 . S
C556 C559 1.386 . S
H557 C573 0.930 . S
H558 C574 0.931 . S
C559 H547 0.929 . S
C559 C553 1.390 . S
C559 C556 1.386 . S
C560 C555 1.490 . S
C560 C562 1.395 1_454 S
C560 C563 1.403 1_545 S
H561 C567 0.930 . S
C562 H548 0.930 . S
C562 C560 1.395 1_656 S
C562 C565 1.403 . S
C563 C560 1.403 1_565 S
C563 C564 1.524 . S
C563 C567 1.400 . S
C564 H549 0.960 . S
C564 H550 0.960 . S
C564 H551 0.960 . S
C564 C563 1.524 . S
C565 C562 1.403 . S
C565 C566 1.392 1_645 S
C565 C569 1.495 . S
C566 C565 1.392 1_465 S
C566 C567 1.385 1_556 S
C566 C568 1.478 . S
C567 H561 0.930 . S
C567 C563 1.400 . S
C567 C566 1.385 1_554 S
C568 C566 1.478 . S
C568 C570 1.381 1_455 S
C568 C574 1.383 . S
C569 C565 1.495 . S
C569 H575 0.959 . S
C569 H576 0.960 . S
C569 H577 0.960 . S
C570 C568 1.381 1_655 S
C570 C571 1.394 . S
C570 H578 0.930 . S
C571 C570 1.394 . S
C571 C572 1.383 1_655 S
C571 H579 0.929 . S
C572 C571 1.383 1_455 S
C572 C573 1.377 . S
C573 H557 0.930 . S
C573 C572 1.377 . S
C573 C574 1.379 . S
C574 H558 0.931 . S
C574 C568 1.383 . S
C574 C573 1.379 . S
H575 C569 0.959 . S
H576 C569 0.960 . S
H577 C569 0.960 . S
H578 C570 0.930 . S
H579 C571 0.929 . S
H580 C588 0.929 . S
H581 C590 0.930 . S
H582 C592 0.933 . S
H583 C595 0.929 1_655 S
H584 C598 0.930 . S
H585 C600 0.960 . S
H586 C600 0.960 . S
H587 C600 0.960 . S
C588 H580 0.929 . S
C588 C589 1.377 . S
C588 C590 1.384 . S
C589 C588 1.377 . S
C589 C595 1.390 . S
C590 H581 0.930 . S
C590 C588 1.384 . S
C590 C591 1.372 . S
C591 C590 1.372 . S
C591 C592 1.400 . S
C591 C596 1.490 . S
C592 H582 0.933 . S
C592 C591 1.400 . S
C592 C595 1.386 . S
H593 C609 0.932 . S
H594 C610 0.931 . S
C595 H583 0.929 1_455 S
C595 C589 1.390 . S
C595 C592 1.386 . S
C596 C591 1.490 . S
C596 C598 1.395 1_556 S
C596 C599 1.403 . S
H597 C603 0.930 . S
C598 H584 0.930 . S
C598 C596 1.395 1_554 S
C598 C601 1.403 . S
C599 C596 1.403 . S
C599 C600 1.524 . S
C599 C603 1.400 . S
C600 H585 0.960 . S
C600 H586 0.960 . S
C600 H587 0.960 . S
C600 C599 1.524 . S
C601 C598 1.403 . S
C601 C602 1.392 . S
C601 C605 1.495 . S
C602 C601 1.392 . S
C602 C603 1.385 1_554 S
C602 C604 1.478 . S
C603 H597 0.930 . S
C603 C599 1.400 . S
C603 C602 1.385 1_556 S
C604 C602 1.478 . S
C604 C606 1.381 . S
C604 C610 1.383 . S
C605 C601 1.495 . S
C605 H611 0.959 . S
C605 H612 0.961 . S
C605 H613 0.960 . S
C606 C604 1.381 . S
C606 C607 1.394 . S
C606 H614 0.930 . S
C607 C606 1.394 . S
C607 C608 1.383 . S
C607 H615 0.929 . S
C608 C607 1.383 . S
C608 C609 1.377 . S
C609 H593 0.932 . S
C609 C608 1.377 . S
C609 C610 1.379 . S
C610 H594 0.931 . S
C610 C604 1.383 . S
C610 C609 1.379 . S
H611 C605 0.959 . S
H612 C605 0.961 . S
H613 C605 0.960 . S
H614 C606 0.930 . S
H615 C607 0.929 . S
H616 C624 0.929 . S
H617 C626 0.930 . S
H618 C628 0.930 . S
H619 C631 0.929 . S
H620 C634 0.930 . S
H621 C636 0.960 . S
H622 C636 0.960 . S
H623 C636 0.960 . S
C624 H616 0.929 . S
C624 C625 1.377 . S
C624 C626 1.384 . S
C625 C624 1.377 . S
C625 C631 1.390 . S
C626 H617 0.930 . S
C626 C624 1.384 . S
C626 C627 1.372 . S
C627 C626 1.372 . S
C627 C628 1.400 . S
C627 C632 1.490 . S
C628 H618 0.930 . S
C628 C627 1.400 . S
C628 C631 1.386 . S
H629 C645 0.930 . S
H630 C646 0.931 . S
C631 H619 0.929 . S
C631 C625 1.390 . S
C631 C628 1.386 . S
C632 C627 1.490 . S
C632 C634 1.395 . S
C632 C635 1.403 . S
H633 C639 0.930 . S
C634 H620 0.930 . S
C634 C632 1.395 . S
C634 C637 1.403 . S
C635 C632 1.403 . S
C635 C636 1.524 . S
C635 C639 1.400 . S
C636 H621 0.960 . S
C636 H622 0.960 . S
C636 H623 0.960 . S
C636 C635 1.524 . S
C637 C634 1.403 . S
C637 C638 1.392 . S
C637 C641 1.495 . S
C638 C637 1.392 . S
C638 C639 1.385 . S
C638 C640 1.478 . S
C639 H633 0.930 . S
C639 C635 1.400 . S
C639 C638 1.385 . S
C640 C638 1.478 . S
C640 C642 1.381 . S
C640 C646 1.383 . S
C641 C637 1.495 . S
C641 H647 0.959 . S
C641 H648 0.961 . S
C641 H649 0.960 . S
C642 C640 1.381 . S
C642 C643 1.394 . S
C642 H650 0.930 . S
C643 C642 1.394 . S
C643 C644 1.383 . S
C643 H651 0.929 . S
C644 C643 1.383 . S
C644 C645 1.377 . S
C645 H629 0.930 . S
C645 C644 1.377 . S
C645 C646 1.379 . S
C646 H630 0.931 . S
C646 C640 1.383 . S
C646 C645 1.379 . S
H647 C641 0.959 . S
H648 C641 0.961 . S
H649 C641 0.960 . S
H650 C642 0.930 . S
H651 C643 0.929 . S
H652 C660 0.929 . S
H653 C662 0.930 . S
H654 C664 0.930 . S
H655 C667 0.929 . S
H656 C670 0.930 . S
H657 C672 0.960 . S
H658 C672 0.960 . S
H659 C672 0.960 . S
C660 H652 0.929 . S
C660 C661 1.377 . S
C660 C662 1.384 . S
C661 C660 1.377 . S
C661 C667 1.390 . S
C662 H653 0.930 . S
C662 C660 1.384 . S
C662 C663 1.372 . S
C663 C662 1.372 . S
C663 C664 1.400 . S
C663 C668 1.490 . S
C664 H654 0.930 . S
C664 C663 1.400 . S
C664 C667 1.386 . S
H665 C681 0.930 . S
H666 C682 0.931 . S
C667 H655 0.929 . S
C667 C661 1.390 . S
C667 C664 1.386 . S
C668 C663 1.490 . S
C668 C670 1.395 . S
C668 C671 1.403 1_565 S
H669 C675 0.930 . S
C670 H656 0.930 . S
C670 C668 1.395 . S
C670 C673 1.403 . S
C671 C668 1.403 1_545 S
C671 C672 1.524 . S
C671 C675 1.400 . S
C672 H657 0.960 . S
C672 H658 0.960 . S
C672 H659 0.960 . S
C672 C671 1.524 . S
C673 C670 1.403 . S
C673 C674 1.392 1_565 S
C673 C677 1.495 . S
C674 C673 1.392 1_545 S
C674 C675 1.385 . S
C674 C676 1.478 . S
C675 H669 0.930 . S
C675 C671 1.400 . S
C675 C674 1.385 . S
C676 C674 1.478 . S
C676 C678 1.381 . S
C676 C682 1.383 . S
C677 C673 1.495 . S
C677 H683 0.959 . S
C677 H684 0.961 . S
C677 H685 0.960 . S
C678 C676 1.381 . S
C678 C679 1.394 . S
C678 H686 0.930 . S
C679 C678 1.394 . S
C679 C680 1.383 . S
C679 H687 0.929 . S
C680 C679 1.383 . S
C680 C681 1.377 . S
C681 H665 0.930 . S
C681 C680 1.377 . S
C681 C682 1.379 . S
C682 H666 0.931 . S
C682 C676 1.383 . S
C682 C681 1.379 . S
H683 C677 0.959 . S
H684 C677 0.961 . S
H685 C677 0.960 . S
H686 C678 0.930 . S
H687 C679 0.929 . S
C121 C23 1.474 . S
C140 C9 1.496 . S
C157 C37 1.478 . S
C176 C51 1.486 . S
C193 C65 1.483 . S
C212 C79 1.462 . S
C229 C93 1.483 . S
C248 C107 1.460 . S
C265 C105 1.251 . S
C284 C7 1.237 . S
C301 C91 1.254 . S
C320 C21 1.264 . S
C337 C35 1.251 . S
C356 C77 1.268 . S
C373 C63 1.249 . S
C392 C49 1.256 . S
C409 C78 1.712 . S
C428 C36 1.717 . S
C445 C64 1.716 . S
C464 C50 1.718 . S
C481 C106 1.712 . S
C500 C8 1.717 . S
C517 C22 1.715 . S
C536 C92 1.722 . S
C553 C6 1.503 . S
C572 C34 1.513 . S
C589 C48 1.503 . S
C608 C20 1.512 . S
C625 C90 1.504 . S
C644 C62 1.504 . S
C661 C76 1.503 . S
C680 C104 1.513 . S
