# Generated by pormake.
# Topology qtz-a, (4)-cn, num edge types: 1
# Building blocks:
#     Node 0, Type 0, BuildingBlock: QUQFOY_clean_sbu_3, # of connection points: 4
#     Node 1, Type 0, BuildingBlock: QUQFOY_clean_sbu_3, # of connection points: 4
#     Node 2, Type 0, BuildingBlock: QUQFOY_clean_sbu_3, # of connection points: 4
#     Node 3, Type 0, BuildingBlock: QUQFOY_clean_sbu_3, # of connection points: 4
#     Node 4, Type 0, BuildingBlock: QUQFOY_clean_sbu_3, # of connection points: 4
#     Node 5, Type 0, BuildingBlock: QUQFOY_clean_sbu_3, # of connection points: 4
#     Node 6, Type 0, BuildingBlock: QUQFOY_clean_sbu_3, # of connection points: 4
#     Node 7, Type 0, BuildingBlock: QUQFOY_clean_sbu_3, # of connection points: 4
#     Node 8, Type 0, BuildingBlock: QUQFOY_clean_sbu_3, # of connection points: 4
#     Node 9, Type 0, BuildingBlock: QUQFOY_clean_sbu_3, # of connection points: 4
#     Node 10, Type 0, BuildingBlock: QUQFOY_clean_sbu_3, # of connection points: 4
#     Node 11, Type 0, BuildingBlock: QUQFOY_clean_sbu_3, # of connection points: 4
#     Edge 12, Type (0, 0), BuildingBlock: CIFDUS_clean_linker_0, # of connection points: 2
#     Edge 13, Type (0, 0), BuildingBlock: CIFDUS_clean_linker_0, # of connection points: 2
#     Edge 14, Type (0, 0), BuildingBlock: CIFDUS_clean_linker_0, # of connection points: 2
#     Edge 15, Type (0, 0), BuildingBlock: CIFDUS_clean_linker_0, # of connection points: 2
#     Edge 16, Type (0, 0), BuildingBlock: CIFDUS_clean_linker_0, # of connection points: 2
#     Edge 17, Type (0, 0), BuildingBlock: CIFDUS_clean_linker_0, # of connection points: 2
#     Edge 18, Type (0, 0), BuildingBlock: CIFDUS_clean_linker_0, # of connection points: 2
#     Edge 19, Type (0, 0), BuildingBlock: CIFDUS_clean_linker_0, # of connection points: 2
#     Edge 20, Type (0, 0), BuildingBlock: CIFDUS_clean_linker_0, # of connection points: 2
#     Edge 21, Type (0, 0), BuildingBlock: CIFDUS_clean_linker_0, # of connection points: 2
#     Edge 22, Type (0, 0), BuildingBlock: CIFDUS_clean_linker_0, # of connection points: 2
#     Edge 23, Type (0, 0), BuildingBlock: CIFDUS_clean_linker_0, # of connection points: 2
#     Edge 24, Type (0, 0), BuildingBlock: CIFDUS_clean_linker_0, # of connection points: 2
#     Edge 25, Type (0, 0), BuildingBlock: CIFDUS_clean_linker_0, # of connection points: 2
#     Edge 26, Type (0, 0), BuildingBlock: CIFDUS_clean_linker_0, # of connection points: 2
#     Edge 27, Type (0, 0), BuildingBlock: CIFDUS_clean_linker_0, # of connection points: 2
#     Edge 28, Type (0, 0), BuildingBlock: CIFDUS_clean_linker_0, # of connection points: 2
#     Edge 29, Type (0, 0), BuildingBlock: CIFDUS_clean_linker_0, # of connection points: 2
#     Edge 30, Type (0, 0), BuildingBlock: CIFDUS_clean_linker_0, # of connection points: 2
#     Edge 31, Type (0, 0), BuildingBlock: CIFDUS_clean_linker_0, # of connection points: 2
#     Edge 32, Type (0, 0), BuildingBlock: CIFDUS_clean_linker_0, # of connection points: 2
#     Edge 33, Type (0, 0), BuildingBlock: CIFDUS_clean_linker_0, # of connection points: 2
#     Edge 34, Type (0, 0), BuildingBlock: CIFDUS_clean_linker_0, # of connection points: 2
#     Edge 35, Type (0, 0), BuildingBlock: CIFDUS_clean_linker_0, # of connection points: 2
# Relax obj value: 0.775
# Max RMSD: 0.703
# Mean RMSD: 0.703
data_MOF--net-qtz-a--node1-QUQFOY_clean_sbu_3--edge1-CIFDUS_clean_linker_0
_symmetry_space_group_name_H-M    P1
_symmetry_Int_Tables_number       1
_symmetry_cell_setting            triclinic
loop_
_symmetry_equiv_pos_as_xyz
'x, y, z'
_cell_length_a     32.277853
_cell_length_b     32.262426
_cell_length_c     47.566592
_cell_angle_alpha  90.122848
_cell_angle_beta   90.046101
_cell_angle_gamma 120.08781
loop_
_atom_site_label
_atom_site_type_symbol
_atom_site_fract_x
_atom_site_fract_y
_atom_site_fract_z
_atom_type_partial_charge
C0 C 0.60795 0.05374 0.13287 0.0
O1 O 0.61764 0.03857 0.11082 0.0
Cd2 Cd 0.68837 0.10005 0.08565 0.0
O3 O 0.63523 0.09752 0.13868 0.0
Cd4 Cd 0.63888 0.14861 0.10025 0.0
C5 C 0.59641 0.07448 0.04499 0.0
O6 O 0.70354 0.17558 0.06543 0.0
O7 O 0.70338 0.22991 0.09138 0.0
O8 O 0.63228 0.18554 0.1416 0.0
C9 C 0.71231 0.21841 0.06772 0.0
O10 O 0.63533 0.07372 0.04738 0.0
C11 C 0.60962 0.20364 0.12999 0.0
O12 O 0.58355 0.09484 0.06329 0.0
O13 O 0.59418 0.19013 0.10501 0.0
C14 C 0.53852 0.65167 0.48677 0.0
O15 O 0.57462 0.66373 0.47142 0.0
Cd16 Cd 0.56887 0.7088 0.4306 0.0
O17 O 0.51279 0.6689 0.47945 0.0
Cd18 Cd 0.48304 0.63499 0.43342 0.0
C19 C 0.55418 0.61048 0.40145 0.0
O20 O 0.49467 0.70698 0.41054 0.0
O21 O 0.4873 0.65001 0.38363 0.0
O22 O 0.41107 0.62338 0.45356 0.0
C23 C 0.48238 0.6862 0.38661 0.0
O24 O 0.57451 0.65557 0.39775 0.0
C25 C 0.38459 0.58018 0.44636 0.0
O26 O 0.52384 0.5908 0.42111 0.0
O27 O 0.40345 0.56043 0.43232 0.0
C28 C 0.88779 0.57438 0.79557 0.0
O29 O 0.91112 0.59989 0.77494 0.0
Cd30 Cd 0.87198 0.57516 0.72889 0.0
O31 O 0.84457 0.54378 0.79072 0.0
Cd32 Cd 0.83276 0.48499 0.75537 0.0
C33 C 0.93772 0.52314 0.72286 0.0
O34 O 0.80578 0.49949 0.70859 0.0
O35 O 0.75816 0.43625 0.73251 0.0
O36 O 0.79083 0.4522 0.79693 0.0
C37 C 0.76898 0.45754 0.70918 0.0
O38 O 0.932 0.55737 0.71447 0.0
C39 C 0.78521 0.41078 0.79308 0.0
O40 O 0.90797 0.49117 0.73942 0.0
O41 O 0.80761 0.40526 0.77266 0.0
C42 C 0.32523 0.88934 0.15357 0.0
O43 O 0.30727 0.91333 0.14395 0.0
Cd44 Cd 0.27218 0.8813 0.09714 0.0
O45 O 0.3033 0.84555 0.14673 0.0
Cd46 Cd 0.33122 0.83055 0.10373 0.0
C47 C 0.38578 0.94612 0.07855 0.0
O48 O 0.283 0.82678 0.06421 0.0
O49 O 0.26918 0.75864 0.08008 0.0
O50 O 0.35256 0.78045 0.12881 0.0
C51 C 0.27498 0.78467 0.05888 0.0
O52 O 0.34564 0.94478 0.07881 0.0
C53 C 0.38802 0.78886 0.11344 0.0
O54 O 0.3898 0.9109 0.087 0.0
O55 O 0.39767 0.81708 0.0928 0.0
C56 C 0.4485 0.37808 0.49113 0.0
O57 O 0.42621 0.36658 0.46798 0.0
Cd58 Cd 0.43053 0.30137 0.43938 0.0
O59 O 0.469 0.35524 0.49781 0.0
Cd60 Cd 0.48067 0.32975 0.45225 0.0
C61 C 0.44374 0.3752 0.40106 0.0
O62 O 0.49876 0.30731 0.40944 0.0
O63 O 0.55044 0.37842 0.42624 0.0
O64 O 0.51215 0.28068 0.46963 0.0
C65 C 0.53938 0.34623 0.40749 0.0
O66 O 0.41384 0.33084 0.39815 0.0
C67 C 0.54738 0.31819 0.48057 0.0
O68 O 0.4718 0.38947 0.42218 0.0
O69 O 0.54682 0.35735 0.48002 0.0
C70 C 0.08153 0.51602 0.80574 0.0
O71 O 0.09025 0.48298 0.79924 0.0
Cd72 Cd 0.16402 0.50717 0.76722 0.0
O73 O 0.10975 0.55736 0.79646 0.0
Cd74 Cd 0.16369 0.54229 0.7703 0.0
C75 C 0.09454 0.43997 0.73291 0.0
O76 O 0.20071 0.56741 0.72631 0.0
O77 O 0.18617 0.61841 0.74693 0.0
O78 O 0.23544 0.53958 0.79173 0.0
C79 C 0.20294 0.60783 0.72575 0.0
O80 O 0.1326 0.43846 0.7368 0.0
C81 C 0.24148 0.57165 0.80948 0.0
O82 O 0.09018 0.47239 0.74536 0.0
O83 O 0.20855 0.58204 0.81138 0.0
C84 C 0.92939 0.36196 0.52739 0.0
O85 O 0.92787 0.33864 0.54899 0.0
Cd86 Cd 0.84843 0.27394 0.56346 0.0
O87 O 0.88993 0.34682 0.51495 0.0
Cd88 Cd 0.83977 0.34519 0.5538 0.0
C89 C 0.90153 0.34803 0.61227 0.0
O90 O 0.78576 0.28281 0.58734 0.0
O91 O 0.75428 0.31226 0.55989 0.0
O92 O 0.81714 0.36098 0.51069 0.0
C93 C 0.7536 0.29398 0.5834 0.0
O94 O 0.88545 0.30389 0.60693 0.0
C95 C 0.81059 0.39425 0.51995 0.0
O96 O 0.89477 0.37506 0.59538 0.0
O97 O 0.82747 0.41153 0.54437 0.0
C98 C 0.47208 0.86081 0.85608 0.0
O99 O 0.51378 0.87003 0.86341 0.0
Cd100 Cd 0.52256 0.81343 0.89868 0.0
O101 O 0.43701 0.82194 0.86457 0.0
Cd102 Cd 0.4843 0.79906 0.89297 0.0
C103 C 0.56115 0.8941 0.93217 0.0
O104 O 0.46269 0.77073 0.93807 0.0
O105 O 0.40265 0.74426 0.90905 0.0
O106 O 0.50192 0.73366 0.88288 0.0
C107 C 0.41759 0.74798 0.93422 0.0
O108 O 0.58163 0.86934 0.93139 0.0
C109 C 0.50615 0.74192 0.85667 0.0
O110 O 0.5246 0.88123 0.91697 0.0
O111 O 0.5189 0.78478 0.84987 0.0
C112 C 0.57743 0.50355 0.18182 0.0
O113 O 0.61554 0.54321 0.18651 0.0
Cd114 Cd 0.68096 0.54266 0.21786 0.0
O115 O 0.57611 0.46609 0.19063 0.0
Cd116 Cd 0.65131 0.49492 0.21175 0.0
C117 C 0.62214 0.55653 0.25627 0.0
O118 O 0.67356 0.48251 0.25651 0.0
O119 O 0.62325 0.41984 0.23256 0.0
O120 O 0.7166 0.49512 0.18503 0.0
C121 C 0.64409 0.43756 0.25578 0.0
O122 O 0.66657 0.58618 0.25388 0.0
C123 C 0.68681 0.4671 0.16659 0.0
O124 O 0.60344 0.51927 0.24119 0.0
O125 O 0.64457 0.46013 0.16752 0.0
C126 C 0.07305 0.64829 0.52227 0.0
O127 O 0.06762 0.66406 0.54565 0.0
Cd128 Cd 0.13356 0.73048 0.57245 0.0
O129 O 0.11501 0.66808 0.5124 0.0
Cd130 Cd 0.16683 0.6594 0.54605 0.0
C131 C 0.11432 0.64118 0.61295 0.0
O132 O 0.20687 0.7281 0.57411 0.0
O133 O 0.25491 0.71339 0.55196 0.0
O134 O 0.19148 0.62666 0.50884 0.0
C135 C 0.24541 0.72686 0.57494 0.0
O136 O 0.11653 0.68177 0.61281 0.0
C137 C 0.18718 0.59152 0.52317 0.0
O138 O 0.12469 0.62456 0.5913 0.0
O139 O 0.1706 0.58648 0.54796 0.0
C140 C 0.44267 0.08007 0.86108 0.0
O141 O 0.41319 0.08825 0.87424 0.0
Cd142 Cd 0.44449 0.16011 0.90796 0.0
O143 O 0.48657 0.10929 0.86458 0.0
Cd144 Cd 0.49412 0.16731 0.89728 0.0
C145 C 0.43943 0.08378 0.94378 0.0
O146 O 0.51626 0.21189 0.93996 0.0
O147 O 0.56664 0.1928 0.92183 0.0
O148 O 0.50163 0.2326 0.86796 0.0
C149 C 0.55643 0.21298 0.94146 0.0
O150 O 0.41952 0.10871 0.94752 0.0
C151 C 0.53811 0.23397 0.85629 0.0
O152 O 0.46562 0.09156 0.92242 0.0
O153 O 0.54945 0.20288 0.86315 0.0
C154 C 0.31026 0.4281 0.19301 0.0
O155 O 0.30087 0.40599 0.2161 0.0
Cd156 Cd 0.27587 0.43642 0.25608 0.0
O157 O 0.30064 0.46145 0.19144 0.0
Cd158 Cd 0.34335 0.52153 0.22693 0.0
C159 C 0.38547 0.46605 0.27028 0.0
O160 O 0.3099 0.51962 0.27352 0.0
O161 O 0.30192 0.56343 0.2426 0.0
O162 O 0.36356 0.57278 0.18722 0.0
C163 C 0.30693 0.55659 0.26828 0.0
O164 O 0.34254 0.43905 0.27842 0.0
C165 C 0.40572 0.60273 0.1951 0.0
O166 O 0.39575 0.49681 0.25084 0.0
O167 O 0.42026 0.59457 0.21815 0.0
H168 H 0.64556 0.2449 0.06212 0.0
H169 H 0.75295 0.23171 0.0157 0.0
H170 H 0.71731 0.23743 0.97142 0.0
H171 H 0.64759 0.23084 0.94654 0.0
H172 H 0.53479 0.23395 0.99343 0.0
H173 H 0.58024 0.24718 0.03699 0.0
C174 C 0.66228 0.24511 0.04237 0.0
C175 C 0.70228 0.2384 0.04225 0.0
C176 C 0.63962 0.24513 0.0171 0.0
C177 C 0.7227 0.23753 0.01638 0.0
C178 C 0.70185 0.24011 0.99108 0.0
C179 C 0.63337 0.23545 0.9662 0.0
C180 C 0.58768 0.2311 0.9667 0.0
C181 C 0.65902 0.24151 0.99124 0.0
C182 C 0.56989 0.23733 0.99237 0.0
C183 C 0.59578 0.2446 0.01732 0.0
H184 H 0.29493 0.57307 0.32373 0.0
H185 H 0.3886 0.63475 0.25263 0.0
H186 H 0.45311 0.69015 0.28338 0.0
H187 H 0.48676 0.70894 0.33147 0.0
H188 H 0.3915 0.65551 0.40233 0.0
H189 H 0.32325 0.61117 0.37086 0.0
C190 C 0.32877 0.60007 0.31491 0.0
C191 C 0.33723 0.59921 0.28595 0.0
C192 C 0.36549 0.63347 0.33275 0.0
C193 C 0.38132 0.63439 0.27483 0.0
C194 C 0.41839 0.6661 0.29246 0.0
C195 C 0.4507 0.69004 0.3399 0.0
C196 C 0.44423 0.68544 0.36919 0.0
C197 C 0.41153 0.66452 0.3216 0.0
C198 C 0.39737 0.66011 0.37986 0.0
C199 C 0.35836 0.63381 0.36184 0.0
H200 H 0.74111 0.37114 0.5876 0.0
H201 H 0.73121 0.25328 0.63574 0.0
H202 H 0.72587 0.29119 0.67917 0.0
H203 H 0.73761 0.36318 0.70358 0.0
H204 H 0.76153 0.48686 0.65595 0.0
H205 H 0.74702 0.44115 0.61212 0.0
C206 C 0.73613 0.35282 0.60748 0.0
C207 C 0.73606 0.30891 0.60828 0.0
C208 C 0.73638 0.37646 0.6325 0.0
C209 C 0.73076 0.28657 0.63441 0.0
C210 C 0.72825 0.30858 0.65928 0.0
C211 C 0.73836 0.37988 0.68367 0.0
C212 C 0.75035 0.42843 0.68307 0.0
C213 C 0.73299 0.35435 0.65863 0.0
C214 C 0.75219 0.44962 0.65702 0.0
C215 C 0.74416 0.4235 0.63198 0.0
H216 H 0.25299 0.71136 0.02052 0.0
H217 H 0.36533 0.85076 0.04719 0.0
H218 H 0.42072 0.84702 0.01464 0.0
H219 H 0.43743 0.80689 0.97742 0.0
H220 H 0.32503 0.67391 0.94341 0.0
H221 H 0.26986 0.67138 0.98011 0.0
C222 C 0.2894 0.74096 0.01883 0.0
C223 C 0.30472 0.78172 0.03608 0.0
C224 C 0.3213 0.73925 -0.00097 0.0
C225 C 0.35221 0.81958 0.03385 0.0
C226 C 0.38424 0.81725 0.01541 0.0
C227 C 0.4011 0.77674 0.97834 0.0
C228 C 0.38547 0.74019 0.95817 0.0
C229 C 0.36919 0.77749 -0.00212 0.0
C230 C 0.33792 0.70216 0.95904 0.0
C231 C 0.30637 0.70103 0.97984 0.0
H232 H 0.50782 0.32176 0.35472 0.0
H233 H 0.63697 0.39964 0.40347 0.0
H234 H 0.68367 0.43301 0.36028 0.0
H235 H 0.68519 0.44699 0.30841 0.0
H236 H 0.5529 0.369 0.26175 0.0
H237 H 0.51012 0.33058 0.30418 0.0
C238 C 0.54638 0.34498 0.35581 0.0
C239 C 0.56902 0.358 0.38201 0.0
C240 C 0.57238 0.36522 0.33118 0.0
C241 C 0.61888 0.38906 0.38331 0.0
C242 C 0.64547 0.4084 0.35867 0.0
C243 C 0.64733 0.4206 0.30757 0.0
C244 C 0.62263 0.41013 0.28175 0.0
C245 C 0.62232 0.39786 0.33242 0.0
C246 C 0.57327 0.37674 0.28109 0.0
C247 C 0.54845 0.35484 0.30544 0.0
H248 H 0.25678 0.76073 0.62915 0.0
H249 H 0.24643 0.64357 0.57979 0.0
H250 H 0.23382 0.59669 0.62207 0.0
H251 H 0.21743 0.58534 0.67278 0.0
H252 H 0.23143 0.70303 0.72309 0.0
H253 H 0.25346 0.7538 0.6813 0.0
C254 C 0.25354 0.72566 0.62779 0.0
C255 C 0.2526 0.70598 0.60117 0.0
C256 C 0.24698 0.69874 0.65251 0.0
C257 C 0.2477 0.66006 0.59985 0.0
C258 C 0.24006 0.63285 0.62412 0.0
C259 C 0.22593 0.6223 0.67468 0.0
C260 C 0.22182 0.64003 0.70097 0.0
C261 C 0.23827 0.65126 0.65049 0.0
C262 C 0.2334 0.68816 0.70303 0.0
C263 C 0.24613 0.7173 0.67911 0.0
H264 H 0.5474 0.98101 0.04601 0.0
H265 H 0.58061 0.10219 0.99365 0.0
H266 H 0.5723 0.05457 0.95142 0.0
H267 H 0.57102 0.98276 0.9308 0.0
H268 H 0.55836 0.8714 0.98624 0.0
H269 H 0.54625 0.91146 0.02622 0.0
C270 C 0.55071 0.99613 0.02518 0.0
C271 C 0.56461 0.04452 0.02267 0.0
C272 C 0.55313 0.97124 0.00185 0.0
C273 C 0.56932 0.06455 0.99588 0.0
C274 C 0.56621 0.03785 0.9719 0.0
C275 C 0.56695 0.96827 0.95183 0.0
C276 C 0.56731 0.92531 0.95595 0.0
C277 C 0.56142 0.9923 0.97488 0.0
C278 C 0.56039 0.90561 0.98295 0.0
C279 C 0.55224 0.9278 0.00563 0.0
H280 H 0.61124 0.51601 0.30666 0.0
H281 H 0.56939 0.6006 0.257 0.0
H282 H 0.53292 0.61456 0.2985 0.0
H283 H 0.52992 0.61731 0.34947 0.0
H284 H 0.57709 0.53871 0.40061 0.0
H285 H 0.59373 0.50623 0.35786 0.0
C286 C 0.59371 0.53716 0.30513 0.0
C287 C 0.59459 0.55944 0.27961 0.0
C288 C 0.57448 0.54618 0.32918 0.0
C289 C 0.57038 0.58498 0.27695 0.0
C290 C 0.54955 0.59268 0.30053 0.0
C291 C 0.54319 0.59248 0.35122 0.0
C292 C 0.55424 0.58166 0.37772 0.0
C293 C 0.55414 0.57594 0.32691 0.0
C294 C 0.56962 0.54821 0.38016 0.0
C295 C 0.57925 0.52999 0.35581 0.0
H296 H 0.04818 0.54767 0.61854 0.0
H297 H 0.14629 0.67358 0.66524 0.0
H298 H 0.1079 0.6348 0.70925 0.0
H299 H 0.03201 0.57761 0.73093 0.0
H300 H 0.92507 0.46058 0.68212 0.0
H301 H 0.98092 0.48094 0.64306 0.0
C302 C 0.062 0.56559 0.63851 0.0
C303 C 0.09928 0.6133 0.63893 0.0
C304 C 0.03734 0.54435 0.66343 0.0
C305 C 0.11718 0.63684 0.66469 0.0
C306 C 0.0951 0.61475 0.68978 0.0
C307 C 0.02228 0.5551 0.71231 0.0
C308 C 0.97507 0.51775 0.70912 0.0
C309 C 0.05295 0.57015 0.68909 0.0
C310 C 0.96186 0.48882 0.68502 0.0
C311 C 0.99342 0.50134 0.66243 0.0
H312 H 0.41893 0.93101 0.03071 0.0
H313 H 0.4336 0.04241 0.08695 0.0
H314 H 0.46098 0.09953 0.04805 0.0
H315 H 0.45652 0.1097 -0.00255 0.0
H316 H 0.4326 0.99597 0.9403 0.0
H317 H 0.43142 0.94668 0.97999 0.0
C318 C 0.43012 0.96832 0.03454 0.0
C319 C 0.42348 0.98274 0.06121 0.0
C320 C 0.44108 -0.00071 0.01171 0.0
C321 C 0.43828 0.03093 0.06635 0.0
C322 C 0.45295 0.06315 0.04407 0.0
C323 C 0.45094 0.07402 0.99381 0.0
C324 C 0.44159 0.0548 0.96659 0.0
C325 C 0.45013 0.04639 0.01651 0.0
C326 C 0.43757 0.01011 0.9615 0.0
C327 C 0.43736 0.98234 0.98406 0.0
H328 H 0.41899 0.5101 0.31905 0.0
H329 H 0.43237 0.41762 0.25894 0.0
H330 H 0.46172 0.38593 0.29592 0.0
H331 H 0.46021 0.36902 0.34653 0.0
H332 H 0.44068 0.45738 0.40699 0.0
H333 H 0.43595 0.50598 0.3689 0.0
C334 C 0.43049 0.48459 0.31399 0.0
C335 C 0.42315 0.46541 0.28679 0.0
C336 C 0.44376 0.46433 0.33562 0.0
C337 C 0.43792 0.43258 0.27995 0.0
C338 C 0.45377 0.41393 0.30115 0.0
C339 C 0.45573 0.39948 0.3512 0.0
C340 C 0.44882 0.40893 0.37907 0.0
C341 C 0.45293 0.42681 0.32929 0.0
C342 C 0.44475 0.44914 0.38543 0.0
C343 C 0.4422 0.47682 0.36373 0.0
H344 H -0.00075 0.40691 0.73086 0.0
H345 H 0.11761 0.41827 0.68261 0.0
H346 H 0.06889 0.39533 0.63997 0.0
H347 H 0.99378 0.37526 0.61612 0.0
H348 H 0.87347 0.3587 0.66412 0.0
H349 H 0.92134 0.37961 0.7075 0.0
C350 C 0.01375 0.40294 0.71112 0.0
C351 C 0.06161 0.41369 0.70979 0.0
C352 C 0.98552 0.38967 0.68673 0.0
C353 C 0.08048 0.40909 0.68417 0.0
C354 C 0.05293 0.39678 0.65973 0.0
C355 C 0.97867 0.37739 0.63608 0.0
C356 C 0.93133 0.36762 0.63719 0.0
C357 C 0.00585 0.38804 0.6607 0.0
C358 C 0.91068 0.36796 0.66302 0.0
C359 C 0.93772 0.37911 0.68772 0.0
H360 H 0.38956 0.98577 0.14993 0.0
H361 H 0.38171 0.84974 0.16255 0.0
H362 H 0.46839 0.88758 0.15691 0.0
H363 H 0.54664 0.95934 0.14553 0.0
H364 H 0.55408 0.09595 0.1374 0.0
H365 H 0.46798 0.05821 0.14433 0.0
C366 C 0.40671 0.96435 0.15183 0.0
C367 C 0.37859 0.91437 0.15548 0.0
C368 C 0.45686 0.98666 0.14939 0.0
C369 C 0.40204 0.88778 0.1585 0.0
C370 C 0.45176 0.90951 0.1555 0.0
C371 C 0.5294 0.98081 0.14588 0.0
C372 C 0.55693 0.03051 0.14135 0.0
C373 C 0.47955 0.95885 0.15039 0.0
C374 C 0.53403 0.05786 0.14149 0.0
C375 C 0.4846 0.03621 0.14522 0.0
H376 H 0.40357 0.43082 0.49505 0.0
H377 H 0.5381 0.4366 0.51053 0.0
H378 H 0.57881 0.52341 0.51385 0.0
H379 H 0.57834 0.5983 0.5041 0.0
H380 H 0.44276 0.59292 0.49542 0.0
H381 H 0.40055 0.50596 0.49808 0.0
C382 C 0.4414 0.45102 0.50019 0.0
C383 C 0.46768 0.42723 0.5022 0.0
C384 C 0.46477 0.50127 0.50272 0.0
C385 C 0.51679 0.45388 0.50897 0.0
C386 C 0.54039 0.50377 0.51059 0.0
C387 C 0.53951 0.57822 0.50368 0.0
C388 C 0.51399 0.6021 0.49816 0.0
C389 C 0.5151 0.52799 0.5063 0.0
C390 C 0.46356 0.57549 0.49849 0.0
C391 C 0.43922 0.52556 0.50008 0.0
H392 H 0.06614 0.57468 0.83897 0.0
H393 H 0.99366 0.43631 0.79866 0.0
H394 H 0.91844 0.43727 0.79957 0.0
H395 H 0.88246 0.48842 0.79827 0.0
H396 H 0.95829 0.6311 0.83272 0.0
H397 H 0.02264 0.61739 0.84853 0.0
C398 C 0.03332 0.54386 0.83154 0.0
C399 C 0.03551 0.5062 0.81803 0.0
C400 C 0.99102 0.54607 0.83064 0.0
C401 C 0.99289 0.46592 0.80895 0.0
C402 C 0.94999 0.46683 0.80909 0.0
C403 C 0.91168 0.51556 0.81055 0.0
C404 C 0.91566 0.56078 0.81427 0.0
C405 C 0.94974 0.50836 0.81787 0.0
C406 C 0.95454 0.59612 0.8296 0.0
C407 C 0.99148 0.58835 0.83839 0.0
H408 H 0.94912 0.42932 0.48561 0.0
H409 H 0.98761 0.41417 0.57052 0.0
H410 H 0.0296 0.49996 0.57667 0.0
H411 H 0.05225 0.5793 0.55971 0.0
H412 H 0.02884 0.60022 0.47316 0.0
H413 H 0.98369 0.51262 0.46589 0.0
C414 C 0.96757 0.44492 0.50522 0.0
C415 C 0.96423 0.41461 0.52766 0.0
C416 C 0.99347 0.49542 0.50858 0.0
C417 C 0.9889 0.43584 0.55284 0.0
C418 C 0.01276 0.48525 0.55659 0.0
C419 C 0.03718 0.56481 0.53926 0.0
C420 C 0.04255 0.59606 0.51729 0.0
C421 C 0.01438 0.51521 0.53491 0.0
C422 C 0.02397 0.57673 0.49064 0.0
C423 C -0.0014 0.52671 0.48647 0.0
H424 H 0.39254 0.86944 0.85874 0.0
H425 H 0.53634 0.93804 0.82581 0.0
H426 H 0.53296 0.01062 0.81646 0.0
H427 H 0.49673 0.05914 0.82744 0.0
H428 H 0.35815 0.9947 0.86709 0.0
H429 H 0.3506 0.91559 0.86263 0.0
C430 C 0.4225 0.89972 0.84864 0.0
C431 C 0.46487 0.89853 0.84324 0.0
C432 C 0.42122 0.94229 0.8447 0.0
C433 C 0.50351 0.93816 0.83033 0.0
C434 C 0.50164 0.97975 0.82509 0.0
C435 C 0.46418 0.02758 0.83435 0.0
C436 C 0.4287 0.03292 0.84832 0.0
C437 C 0.46177 0.983 0.83363 0.0
C438 C 0.38625 0.99169 0.85653 0.0
C439 C 0.38228 0.94648 0.85436 0.0
H440 H 0.49652 0.42369 0.16666 0.0
H441 H 0.55645 0.5762 0.17661 0.0
H442 H 0.4759 0.5658 0.17437 0.0
H443 H 0.38903 0.51168 0.1789 0.0
H444 H 0.33063 0.3589 0.1772 0.0
H445 H 0.41002 0.37075 0.1665 0.0
C446 C 0.49214 0.45488 0.16768 0.0
C447 C 0.53237 0.50054 0.17216 0.0
C448 C 0.44582 0.44825 0.16817 0.0
C449 C 0.52615 0.54064 0.17314 0.0
C450 C 0.48001 0.53459 0.17218 0.0
C451 C 0.39332 0.48104 0.17527 0.0
C452 C 0.35382 0.43447 0.17866 0.0
C453 C 0.43956 0.48831 0.17104 0.0
C454 C 0.36028 0.39502 0.17444 0.0
C455 C 0.40574 0.40186 0.16859 0.0
H456 H 0.68514 0.39622 0.19503 0.0
H457 H 0.68993 0.44798 0.11108 0.0
H458 H 0.6592 0.36687 0.09228 0.0
H459 H 0.62391 0.28066 0.10055 0.0
H460 H 0.61475 0.2284 0.18502 0.0
H461 H 0.65076 0.31021 0.20333 0.0
C462 C 0.68142 0.38994 0.17249 0.0
C463 C 0.69115 0.42797 0.15425 0.0
C464 C 0.65993 0.34289 0.16231 0.0
C465 C 0.68426 0.41939 0.12527 0.0
C466 C 0.66539 0.37289 0.1147 0.0
C467 C 0.62866 0.28707 0.12302 0.0
C468 C 0.61609 0.24868 0.1415 0.0
C469 C 0.65127 0.33421 0.13317 0.0
C470 C 0.62338 0.25749 0.17052 0.0
C471 C 0.64489 0.30424 0.18088 0.0
H472 H 0.19135 0.56337 0.47014 0.0
H473 H 0.23893 0.56507 0.55509 0.0
H474 H 0.30148 0.55022 0.53794 0.0
H475 H 0.35244 0.55511 0.49854 0.0
H476 H 0.30708 0.55565 0.41352 0.0
H477 H 0.23245 0.54913 0.43071 0.0
C478 C 0.21418 0.55835 0.48484 0.0
C479 C 0.2111 0.56561 0.5137 0.0
C480 C 0.25042 0.55038 0.47476 0.0
C481 C 0.2406 0.55922 0.53277 0.0
C482 C 0.2767 0.55127 0.52295 0.0
C483 C 0.32499 0.55131 0.48385 0.0
C484 C 0.33455 0.5556 0.45495 0.0
C485 C 0.28334 0.54924 0.49397 0.0
C486 C 0.29968 0.55167 0.43587 0.0
C487 C 0.2575 0.54871 0.44574 0.0
H488 H 0.58682 0.22999 0.81241 0.0
H489 H 0.57158 0.32804 0.86723 0.0
H490 H 0.65345 0.39081 0.85633 0.0
H491 H 0.73049 0.41465 0.8344 0.0
H492 H 0.74586 0.31607 0.77972 0.0
H493 H 0.66338 0.25438 0.78963 0.0
C494 C 0.601 0.26576 0.82107 0.0
C495 C 0.5736 0.27484 0.84034 0.0
C496 C 0.64868 0.30011 0.81626 0.0
C497 C 0.59187 0.32082 0.8518 0.0
C498 C 0.63906 0.35607 0.8463 0.0
C499 C 0.71609 0.3794 0.82497 0.0
C500 C 0.74395 0.36995 0.80616 0.0
C501 C 0.66815 0.34536 0.8294 0.0
C502 C 0.72515 0.32405 0.79441 0.0
C503 C 0.67774 0.28923 0.79951 0.0
H504 H 0.4108 0.61694 0.13926 0.0
H505 H 0.45562 0.69071 0.2188 0.0
H506 H 0.46513 0.76359 0.19726 0.0
H507 H 0.43886 0.79699 0.15946 0.0
H508 H 0.39152 0.72262 0.08035 0.0
H509 H 0.40574 0.65935 0.09763 0.0
C510 C 0.42487 0.64977 0.15144 0.0
C511 C 0.43161 0.64866 0.18053 0.0
C512 C 0.42888 0.69093 0.13906 0.0
C513 C 0.45015 0.691 0.19633 0.0
C514 C 0.45494 0.73244 0.1841 0.0
C515 C 0.43403 0.76804 0.14567 0.0
C516 C 0.41404 0.7637 0.11894 0.0
C517 C 0.44123 0.73161 0.15602 0.0
C518 C 0.40727 0.72632 0.101 0.0
C519 C 0.41487 0.69002 0.111 0.0
H520 H 0.74882 0.33723 0.47974 0.0
H521 H 0.77795 0.45414 0.53609 0.0
H522 H 0.6951 0.43576 0.53137 0.0
H523 H 0.61361 0.38196 0.51534 0.0
H524 H 0.58312 0.26288 0.46081 0.0
H525 H 0.66738 0.28414 0.46285 0.0
C526 C 0.73754 0.35954 0.49057 0.0
C527 C 0.76944 0.39674 0.50863 0.0
C528 C 0.68927 0.34654 0.48946 0.0
C529 C 0.75418 0.42544 0.5221 0.0
C530 C 0.70661 0.41423 0.51992 0.0
C531 C 0.6253 0.36015 0.50431 0.0
C532 C 0.59247 0.32075 0.4882 0.0
C533 C 0.67363 0.37371 0.50468 0.0
C534 C 0.60772 0.29272 0.47389 0.0
C535 C 0.65598 0.3056 0.4745 0.0
H536 H 0.31501 0.55665 0.82517 0.0
H537 H 0.27671 0.6661 0.81365 0.0
H538 H 0.35949 0.72807 0.81905 0.0
H539 H 0.44116 0.7518 0.82799 0.0
H540 H 0.48049 0.64696 0.85122 0.0
H541 H 0.39962 0.5822 0.83856 0.0
C542 C 0.32497 0.5941 0.82441 0.0
C543 C 0.28981 0.60673 0.81918 0.0
C544 C 0.37297 0.63017 0.8285 0.0
C545 C 0.30289 0.65534 0.81816 0.0
C546 C 0.35039 0.69092 0.82073 0.0
C547 C 0.43283 0.71484 0.82955 0.0
C548 C 0.46712 0.70416 0.83991 0.0
C549 C 0.3856 0.67871 0.82565 0.0
C550 C 0.45498 0.65597 0.84253 0.0
C551 C 0.4085 0.61912 0.83597 0.0
loop_
_geom_bond_atom_site_label_1
_geom_bond_atom_site_label_2
_geom_bond_distance
_geom_bond_site_symmetry_2
_ccdc_geom_bond_type
C0 O1 1.306 . S
C0 O3 1.160 . S
O1 C0 1.306 . S
O1 Cd2 2.228 . S
Cd2 O1 2.228 . S
Cd2 O6 2.273 . S
Cd2 O10 2.277 . S
O3 C0 1.160 . S
O3 Cd4 2.203 . S
Cd4 O3 2.203 . S
Cd4 O6 2.411 . S
Cd4 O7 2.333 . S
Cd4 O8 2.352 . S
Cd4 O12 2.277 . S
Cd4 O13 2.356 . S
C5 O10 1.209 . S
C5 O12 1.226 . S
O6 Cd2 2.273 . S
O6 Cd4 2.411 . S
O6 C9 1.320 . S
O7 Cd4 2.333 . S
O7 C9 1.214 . S
O8 Cd4 2.352 . S
O8 C11 1.258 . S
C9 O6 1.320 . S
C9 O7 1.214 . S
O10 Cd2 2.277 . S
O10 C5 1.209 . S
C11 O8 1.258 . S
C11 O13 1.282 . S
O12 Cd4 2.277 . S
O12 C5 1.226 . S
O13 Cd4 2.356 . S
O13 C11 1.282 . S
C14 O15 1.306 . S
C14 O17 1.160 . S
O15 C14 1.306 . S
O15 Cd16 2.228 . S
Cd16 O15 2.228 . S
Cd16 O20 2.273 . S
Cd16 O24 2.277 . S
O17 C14 1.160 . S
O17 Cd18 2.203 . S
Cd18 O17 2.203 . S
Cd18 O20 2.411 . S
Cd18 O21 2.333 . S
Cd18 O22 2.352 . S
Cd18 O26 2.277 . S
Cd18 O27 2.356 . S
C19 O24 1.209 . S
C19 O26 1.226 . S
O20 Cd16 2.273 . S
O20 Cd18 2.411 . S
O20 C23 1.320 . S
O21 Cd18 2.333 . S
O21 C23 1.214 . S
O22 Cd18 2.352 . S
O22 C25 1.258 . S
C23 O20 1.320 . S
C23 O21 1.214 . S
O24 Cd16 2.277 . S
O24 C19 1.209 . S
C25 O22 1.258 . S
C25 O27 1.282 . S
O26 Cd18 2.277 . S
O26 C19 1.226 . S
O27 Cd18 2.356 . S
O27 C25 1.282 . S
C28 O29 1.306 . S
C28 O31 1.160 . S
O29 C28 1.306 . S
O29 Cd30 2.228 . S
Cd30 O29 2.228 . S
Cd30 O34 2.273 . S
Cd30 O38 2.277 . S
O31 C28 1.160 . S
O31 Cd32 2.203 . S
Cd32 O31 2.203 . S
Cd32 O34 2.411 . S
Cd32 O35 2.333 . S
Cd32 O36 2.352 . S
Cd32 O40 2.277 . S
Cd32 O41 2.356 . S
C33 O38 1.209 . S
C33 O40 1.226 . S
O34 Cd30 2.273 . S
O34 Cd32 2.411 . S
O34 C37 1.320 . S
O35 Cd32 2.333 . S
O35 C37 1.214 . S
O36 Cd32 2.352 . S
O36 C39 1.258 . S
C37 O34 1.320 . S
C37 O35 1.214 . S
O38 Cd30 2.277 . S
O38 C33 1.209 . S
C39 O36 1.258 . S
C39 O41 1.282 . S
O40 Cd32 2.277 . S
O40 C33 1.226 . S
O41 Cd32 2.356 . S
O41 C39 1.282 . S
C42 O43 1.306 . S
C42 O45 1.160 . S
O43 C42 1.306 . S
O43 Cd44 2.228 . S
Cd44 O43 2.228 . S
Cd44 O48 2.273 . S
Cd44 O52 2.277 . S
O45 C42 1.160 . S
O45 Cd46 2.203 . S
Cd46 O45 2.203 . S
Cd46 O48 2.411 . S
Cd46 O49 2.333 . S
Cd46 O50 2.352 . S
Cd46 O54 2.277 . S
Cd46 O55 2.356 . S
C47 O52 1.209 . S
C47 O54 1.226 . S
O48 Cd44 2.273 . S
O48 Cd46 2.411 . S
O48 C51 1.320 . S
O49 Cd46 2.333 . S
O49 C51 1.214 . S
O50 Cd46 2.352 . S
O50 C53 1.258 . S
C51 O48 1.320 . S
C51 O49 1.214 . S
O52 Cd44 2.277 . S
O52 C47 1.209 . S
C53 O50 1.258 . S
C53 O55 1.282 . S
O54 Cd46 2.277 . S
O54 C47 1.226 . S
O55 Cd46 2.356 . S
O55 C53 1.282 . S
C56 O57 1.306 . S
C56 O59 1.160 . S
O57 C56 1.306 . S
O57 Cd58 2.228 . S
Cd58 O57 2.228 . S
Cd58 O62 2.273 . S
Cd58 O66 2.277 . S
O59 C56 1.160 . S
O59 Cd60 2.203 . S
Cd60 O59 2.203 . S
Cd60 O62 2.411 . S
Cd60 O63 2.333 . S
Cd60 O64 2.352 . S
Cd60 O68 2.277 . S
Cd60 O69 2.356 . S
C61 O66 1.209 . S
C61 O68 1.226 . S
O62 Cd58 2.273 . S
O62 Cd60 2.411 . S
O62 C65 1.320 . S
O63 Cd60 2.333 . S
O63 C65 1.214 . S
O64 Cd60 2.352 . S
O64 C67 1.258 . S
C65 O62 1.320 . S
C65 O63 1.214 . S
O66 Cd58 2.277 . S
O66 C61 1.209 . S
C67 O64 1.258 . S
C67 O69 1.282 . S
O68 Cd60 2.277 . S
O68 C61 1.226 . S
O69 Cd60 2.356 . S
O69 C67 1.282 . S
C70 O71 1.306 . S
C70 O73 1.160 . S
O71 C70 1.306 . S
O71 Cd72 2.228 . S
Cd72 O71 2.228 . S
Cd72 O76 2.273 . S
Cd72 O80 2.277 . S
O73 C70 1.160 . S
O73 Cd74 2.203 . S
Cd74 O73 2.203 . S
Cd74 O76 2.411 . S
Cd74 O77 2.333 . S
Cd74 O78 2.352 . S
Cd74 O82 2.277 . S
Cd74 O83 2.356 . S
C75 O80 1.209 . S
C75 O82 1.226 . S
O76 Cd72 2.273 . S
O76 Cd74 2.411 . S
O76 C79 1.320 . S
O77 Cd74 2.333 . S
O77 C79 1.214 . S
O78 Cd74 2.352 . S
O78 C81 1.258 . S
C79 O76 1.320 . S
C79 O77 1.214 . S
O80 Cd72 2.277 . S
O80 C75 1.209 . S
C81 O78 1.258 . S
C81 O83 1.282 . S
O82 Cd74 2.277 . S
O82 C75 1.226 . S
O83 Cd74 2.356 . S
O83 C81 1.282 . S
C84 O85 1.306 . S
C84 O87 1.160 . S
O85 C84 1.306 . S
O85 Cd86 2.228 . S
Cd86 O85 2.228 . S
Cd86 O90 2.273 . S
Cd86 O94 2.277 . S
O87 C84 1.160 . S
O87 Cd88 2.203 . S
Cd88 O87 2.203 . S
Cd88 O90 2.411 . S
Cd88 O91 2.333 . S
Cd88 O92 2.352 . S
Cd88 O96 2.277 . S
Cd88 O97 2.356 . S
C89 O94 1.209 . S
C89 O96 1.226 . S
O90 Cd86 2.273 . S
O90 Cd88 2.411 . S
O90 C93 1.320 . S
O91 Cd88 2.333 . S
O91 C93 1.214 . S
O92 Cd88 2.352 . S
O92 C95 1.258 . S
C93 O90 1.320 . S
C93 O91 1.214 . S
O94 Cd86 2.277 . S
O94 C89 1.209 . S
C95 O92 1.258 . S
C95 O97 1.282 . S
O96 Cd88 2.277 . S
O96 C89 1.226 . S
O97 Cd88 2.356 . S
O97 C95 1.282 . S
C98 O99 1.306 . S
C98 O101 1.160 . S
O99 C98 1.306 . S
O99 Cd100 2.228 . S
Cd100 O99 2.228 . S
Cd100 O104 2.273 . S
Cd100 O108 2.277 . S
O101 C98 1.160 . S
O101 Cd102 2.203 . S
Cd102 O101 2.203 . S
Cd102 O104 2.411 . S
Cd102 O105 2.333 . S
Cd102 O106 2.352 . S
Cd102 O110 2.277 . S
Cd102 O111 2.356 . S
C103 O108 1.209 . S
C103 O110 1.226 . S
O104 Cd100 2.273 . S
O104 Cd102 2.411 . S
O104 C107 1.320 . S
O105 Cd102 2.333 . S
O105 C107 1.214 . S
O106 Cd102 2.352 . S
O106 C109 1.258 . S
C107 O104 1.320 . S
C107 O105 1.214 . S
O108 Cd100 2.277 . S
O108 C103 1.209 . S
C109 O106 1.258 . S
C109 O111 1.282 . S
O110 Cd102 2.277 . S
O110 C103 1.226 . S
O111 Cd102 2.356 . S
O111 C109 1.282 . S
C112 O113 1.306 . S
C112 O115 1.160 . S
O113 C112 1.306 . S
O113 Cd114 2.228 . S
Cd114 O113 2.228 . S
Cd114 O118 2.273 . S
Cd114 O122 2.277 . S
O115 C112 1.160 . S
O115 Cd116 2.203 . S
Cd116 O115 2.203 . S
Cd116 O118 2.411 . S
Cd116 O119 2.333 . S
Cd116 O120 2.352 . S
Cd116 O124 2.277 . S
Cd116 O125 2.356 . S
C117 O122 1.209 . S
C117 O124 1.226 . S
O118 Cd114 2.273 . S
O118 Cd116 2.411 . S
O118 C121 1.320 . S
O119 Cd116 2.333 . S
O119 C121 1.214 . S
O120 Cd116 2.352 . S
O120 C123 1.258 . S
C121 O118 1.320 . S
C121 O119 1.214 . S
O122 Cd114 2.277 . S
O122 C117 1.209 . S
C123 O120 1.258 . S
C123 O125 1.282 . S
O124 Cd116 2.277 . S
O124 C117 1.226 . S
O125 Cd116 2.356 . S
O125 C123 1.282 . S
C126 O127 1.306 . S
C126 O129 1.160 . S
O127 C126 1.306 . S
O127 Cd128 2.228 . S
Cd128 O127 2.228 . S
Cd128 O132 2.273 . S
Cd128 O136 2.277 . S
O129 C126 1.160 . S
O129 Cd130 2.203 . S
Cd130 O129 2.203 . S
Cd130 O132 2.411 . S
Cd130 O133 2.333 . S
Cd130 O134 2.352 . S
Cd130 O138 2.277 . S
Cd130 O139 2.356 . S
C131 O136 1.209 . S
C131 O138 1.226 . S
O132 Cd128 2.273 . S
O132 Cd130 2.411 . S
O132 C135 1.320 . S
O133 Cd130 2.333 . S
O133 C135 1.214 . S
O134 Cd130 2.352 . S
O134 C137 1.258 . S
C135 O132 1.320 . S
C135 O133 1.214 . S
O136 Cd128 2.277 . S
O136 C131 1.209 . S
C137 O134 1.258 . S
C137 O139 1.282 . S
O138 Cd130 2.277 . S
O138 C131 1.226 . S
O139 Cd130 2.356 . S
O139 C137 1.282 . S
C140 O141 1.306 . S
C140 O143 1.160 . S
O141 C140 1.306 . S
O141 Cd142 2.228 . S
Cd142 O141 2.228 . S
Cd142 O146 2.273 . S
Cd142 O150 2.277 . S
O143 C140 1.160 . S
O143 Cd144 2.203 . S
Cd144 O143 2.203 . S
Cd144 O146 2.411 . S
Cd144 O147 2.333 . S
Cd144 O148 2.352 . S
Cd144 O152 2.277 . S
Cd144 O153 2.356 . S
C145 O150 1.209 . S
C145 O152 1.226 . S
O146 Cd142 2.273 . S
O146 Cd144 2.411 . S
O146 C149 1.320 . S
O147 Cd144 2.333 . S
O147 C149 1.214 . S
O148 Cd144 2.352 . S
O148 C151 1.258 . S
C149 O146 1.320 . S
C149 O147 1.214 . S
O150 Cd142 2.277 . S
O150 C145 1.209 . S
C151 O148 1.258 . S
C151 O153 1.282 . S
O152 Cd144 2.277 . S
O152 C145 1.226 . S
O153 Cd144 2.356 . S
O153 C151 1.282 . S
C154 O155 1.306 . S
C154 O157 1.160 . S
O155 C154 1.306 . S
O155 Cd156 2.228 . S
Cd156 O155 2.228 . S
Cd156 O160 2.273 . S
Cd156 O164 2.277 . S
O157 C154 1.160 . S
O157 Cd158 2.203 . S
Cd158 O157 2.203 . S
Cd158 O160 2.411 . S
Cd158 O161 2.333 . S
Cd158 O162 2.352 . S
Cd158 O166 2.277 . S
Cd158 O167 2.356 . S
C159 O164 1.209 . S
C159 O166 1.226 . S
O160 Cd156 2.273 . S
O160 Cd158 2.411 . S
O160 C163 1.320 . S
O161 Cd158 2.333 . S
O161 C163 1.214 . S
O162 Cd158 2.352 . S
O162 C165 1.258 . S
C163 O160 1.320 . S
C163 O161 1.214 . S
O164 Cd156 2.277 . S
O164 C159 1.209 . S
C165 O162 1.258 . S
C165 O167 1.282 . S
O166 Cd158 2.277 . S
O166 C159 1.226 . S
O167 Cd158 2.356 . S
O167 C165 1.282 . S
H168 C174 0.930 . S
H169 C177 0.930 . S
H170 C178 0.930 . S
H171 C179 0.930 . S
H172 C182 0.930 . S
H173 C183 0.930 . S
C174 H168 0.930 . S
C174 C175 1.355 . S
C174 C176 1.415 . S
C175 C174 1.355 . S
C175 C177 1.419 1_554 S
C176 C174 1.415 . S
C176 C181 1.425 1_554 S
C176 C183 1.409 . S
C177 H169 0.930 . S
C177 C175 1.419 1_556 S
C177 C178 1.362 . S
C178 H170 0.930 . S
C178 C177 1.362 . S
C178 C181 1.409 . S
C179 H171 0.930 . S
C179 C180 1.355 . S
C179 C181 1.415 . S
C180 C179 1.355 . S
C180 C182 1.419 1_556 S
C181 C176 1.425 1_556 S
C181 C178 1.409 . S
C181 C179 1.415 . S
C182 H172 0.930 . S
C182 C180 1.419 1_554 S
C182 C183 1.362 . S
C183 H173 0.930 . S
C183 C176 1.409 . S
C183 C182 1.362 . S
H184 C190 0.930 . S
H185 C193 0.930 . S
H186 C194 0.930 . S
H187 C195 0.930 . S
H188 C198 0.930 . S
H189 C199 0.930 . S
C190 H184 0.930 . S
C190 C191 1.355 . S
C190 C192 1.415 . S
C191 C190 1.355 . S
C191 C193 1.419 . S
C192 C190 1.415 . S
C192 C197 1.425 . S
C192 C199 1.409 . S
C193 H185 0.930 . S
C193 C191 1.419 . S
C193 C194 1.362 . S
C194 H186 0.930 . S
C194 C193 1.362 . S
C194 C197 1.409 . S
C195 H187 0.930 . S
C195 C196 1.355 . S
C195 C197 1.415 . S
C196 C195 1.355 . S
C196 C198 1.419 . S
C197 C192 1.425 . S
C197 C194 1.409 . S
C197 C195 1.415 . S
C198 H188 0.930 . S
C198 C196 1.419 . S
C198 C199 1.362 . S
C199 H189 0.930 . S
C199 C192 1.409 . S
C199 C198 1.362 . S
H200 C206 0.930 . S
H201 C209 0.930 . S
H202 C210 0.930 . S
H203 C211 0.930 . S
H204 C214 0.930 . S
H205 C215 0.930 . S
C206 H200 0.930 . S
C206 C207 1.355 . S
C206 C208 1.415 . S
C207 C206 1.355 . S
C207 C209 1.419 . S
C208 C206 1.415 . S
C208 C213 1.425 . S
C208 C215 1.409 . S
C209 H201 0.930 . S
C209 C207 1.419 . S
C209 C210 1.362 . S
C210 H202 0.930 . S
C210 C209 1.362 . S
C210 C213 1.409 . S
C211 H203 0.930 . S
C211 C212 1.355 . S
C211 C213 1.415 . S
C212 C211 1.355 . S
C212 C214 1.419 . S
C213 C208 1.425 . S
C213 C210 1.409 . S
C213 C211 1.415 . S
C214 H204 0.930 . S
C214 C212 1.419 . S
C214 C215 1.362 . S
C215 H205 0.930 . S
C215 C208 1.409 . S
C215 C214 1.362 . S
H216 C222 0.930 . S
H217 C225 0.930 . S
H218 C226 0.930 . S
H219 C227 0.930 . S
H220 C230 0.930 . S
H221 C231 0.930 . S
C222 H216 0.930 . S
C222 C223 1.355 . S
C222 C224 1.415 1_554 S
C223 C222 1.355 . S
C223 C225 1.419 . S
C224 C222 1.415 1_556 S
C224 C229 1.425 1_556 S
C224 C231 1.409 . S
C225 H217 0.930 . S
C225 C223 1.419 . S
C225 C226 1.362 . S
C226 H218 0.930 . S
C226 C225 1.362 . S
C226 C229 1.409 . S
C227 H219 0.930 . S
C227 C228 1.355 . S
C227 C229 1.415 1_556 S
C228 C227 1.355 . S
C228 C230 1.419 . S
C229 C224 1.425 1_554 S
C229 C226 1.409 . S
C229 C227 1.415 1_554 S
C230 H220 0.930 . S
C230 C228 1.419 . S
C230 C231 1.362 . S
C231 H221 0.930 . S
C231 C224 1.409 . S
C231 C230 1.362 . S
H232 C238 0.930 . S
H233 C241 0.930 . S
H234 C242 0.930 . S
H235 C243 0.930 . S
H236 C246 0.930 . S
H237 C247 0.930 . S
C238 H232 0.930 . S
C238 C239 1.355 . S
C238 C240 1.415 . S
C239 C238 1.355 . S
C239 C241 1.419 . S
C240 C238 1.415 . S
C240 C245 1.425 . S
C240 C247 1.409 . S
C241 H233 0.930 . S
C241 C239 1.419 . S
C241 C242 1.362 . S
C242 H234 0.930 . S
C242 C241 1.362 . S
C242 C245 1.409 . S
C243 H235 0.930 . S
C243 C244 1.355 . S
C243 C245 1.415 . S
C244 C243 1.355 . S
C244 C246 1.419 . S
C245 C240 1.425 . S
C245 C242 1.409 . S
C245 C243 1.415 . S
C246 H236 0.930 . S
C246 C244 1.419 . S
C246 C247 1.362 . S
C247 H237 0.930 . S
C247 C240 1.409 . S
C247 C246 1.362 . S
H248 C254 0.930 . S
H249 C257 0.930 . S
H250 C258 0.930 . S
H251 C259 0.930 . S
H252 C262 0.930 . S
H253 C263 0.930 . S
C254 H248 0.930 . S
C254 C255 1.355 . S
C254 C256 1.415 . S
C255 C254 1.355 . S
C255 C257 1.419 . S
C256 C254 1.415 . S
C256 C261 1.425 . S
C256 C263 1.409 . S
C257 H249 0.930 . S
C257 C255 1.419 . S
C257 C258 1.362 . S
C258 H250 0.930 . S
C258 C257 1.362 . S
C258 C261 1.409 . S
C259 H251 0.930 . S
C259 C260 1.355 . S
C259 C261 1.415 . S
C260 C259 1.355 . S
C260 C262 1.419 . S
C261 C256 1.425 . S
C261 C258 1.409 . S
C261 C259 1.415 . S
C262 H252 0.930 . S
C262 C260 1.419 . S
C262 C263 1.362 . S
C263 H253 0.930 . S
C263 C256 1.409 . S
C263 C262 1.362 . S
H264 C270 0.930 1_565 S
H265 C273 0.930 . S
H266 C274 0.930 . S
H267 C275 0.930 1_545 S
H268 C278 0.930 . S
H269 C279 0.930 . S
C270 H264 0.930 1_545 S
C270 C271 1.355 . S
C270 C272 1.415 1_545 S
C271 C270 1.355 . S
C271 C273 1.419 . S
C272 C270 1.415 1_565 S
C272 C277 1.425 1_564 S
C272 C279 1.409 . S
C273 H265 0.930 . S
C273 C271 1.419 . S
C273 C274 1.362 1_554 S
C274 H266 0.930 . S
C274 C273 1.362 1_556 S
C274 C277 1.409 . S
C275 H267 0.930 1_565 S
C275 C276 1.355 . S
C275 C277 1.415 1_565 S
C276 C275 1.355 . S
C276 C278 1.419 . S
C277 C272 1.425 1_546 S
C277 C274 1.409 . S
C277 C275 1.415 1_545 S
C278 H268 0.930 . S
C278 C276 1.419 . S
C278 C279 1.362 1_556 S
C279 H269 0.930 . S
C279 C272 1.409 . S
C279 C278 1.362 1_554 S
H280 C286 0.930 . S
H281 C289 0.930 . S
H282 C290 0.930 . S
H283 C291 0.930 . S
H284 C294 0.930 . S
H285 C295 0.930 . S
C286 H280 0.930 . S
C286 C287 1.355 . S
C286 C288 1.415 . S
C287 C286 1.355 . S
C287 C289 1.419 . S
C288 C286 1.415 . S
C288 C293 1.425 . S
C288 C295 1.409 . S
C289 H281 0.930 . S
C289 C287 1.419 . S
C289 C290 1.362 . S
C290 H282 0.930 . S
C290 C289 1.362 . S
C290 C293 1.409 . S
C291 H283 0.930 . S
C291 C292 1.355 . S
C291 C293 1.415 . S
C292 C291 1.355 . S
C292 C294 1.419 . S
C293 C288 1.425 . S
C293 C290 1.409 . S
C293 C291 1.415 . S
C294 H284 0.930 . S
C294 C292 1.419 . S
C294 C295 1.362 . S
C295 H285 0.930 . S
C295 C288 1.409 . S
C295 C294 1.362 . S
H296 C302 0.930 . S
H297 C305 0.930 . S
H298 C306 0.930 . S
H299 C307 0.930 . S
H300 C310 0.930 . S
H301 C311 0.930 . S
C302 H296 0.930 . S
C302 C303 1.355 . S
C302 C304 1.415 1_455 S
C303 C302 1.355 . S
C303 C305 1.419 . S
C304 C302 1.415 1_655 S
C304 C309 1.425 1_655 S
C304 C311 1.409 . S
C305 H297 0.930 . S
C305 C303 1.419 . S
C305 C306 1.362 . S
C306 H298 0.930 . S
C306 C305 1.362 . S
C306 C309 1.409 . S
C307 H299 0.930 . S
C307 C308 1.355 . S
C307 C309 1.415 1_655 S
C308 C307 1.355 . S
C308 C310 1.419 . S
C309 C304 1.425 1_455 S
C309 C306 1.409 . S
C309 C307 1.415 1_455 S
C310 H300 0.930 . S
C310 C308 1.419 . S
C310 C311 1.362 . S
C311 H301 0.930 . S
C311 C304 1.409 . S
C311 C310 1.362 . S
H312 C318 0.930 . S
H313 C321 0.930 . S
H314 C322 0.930 . S
H315 C323 0.930 . S
H316 C326 0.930 . S
H317 C327 0.930 . S
C318 H312 0.930 . S
C318 C319 1.355 . S
C318 C320 1.415 1_554 S
C319 C318 1.355 . S
C319 C321 1.419 . S
C320 C318 1.415 1_556 S
C320 C325 1.425 1_566 S
C320 C327 1.409 . S
C321 H313 0.930 . S
C321 C319 1.419 . S
C321 C322 1.362 1_565 S
C322 H314 0.930 . S
C322 C321 1.362 1_545 S
C322 C325 1.409 . S
C323 H315 0.930 . S
C323 C324 1.355 . S
C323 C325 1.415 1_556 S
C324 C323 1.355 . S
C324 C326 1.419 . S
C325 C320 1.425 1_544 S
C325 C322 1.409 . S
C325 C323 1.415 1_554 S
C326 H316 0.930 . S
C326 C324 1.419 . S
C326 C327 1.362 1_545 S
C327 H317 0.930 . S
C327 C320 1.409 . S
C327 C326 1.362 1_565 S
H328 C334 0.930 . S
H329 C337 0.930 . S
H330 C338 0.930 . S
H331 C339 0.930 . S
H332 C342 0.930 . S
H333 C343 0.930 . S
C334 H328 0.930 . S
C334 C335 1.355 . S
C334 C336 1.415 . S
C335 C334 1.355 . S
C335 C337 1.419 . S
C336 C334 1.415 . S
C336 C341 1.425 . S
C336 C343 1.409 . S
C337 H329 0.930 . S
C337 C335 1.419 . S
C337 C338 1.362 . S
C338 H330 0.930 . S
C338 C337 1.362 . S
C338 C341 1.409 . S
C339 H331 0.930 . S
C339 C340 1.355 . S
C339 C341 1.415 . S
C340 C339 1.355 . S
C340 C342 1.419 . S
C341 C336 1.425 . S
C341 C338 1.409 . S
C341 C339 1.415 . S
C342 H332 0.930 . S
C342 C340 1.419 . S
C342 C343 1.362 . S
C343 H333 0.930 . S
C343 C336 1.409 . S
C343 C342 1.362 . S
H344 C350 0.930 . S
H345 C353 0.930 . S
H346 C354 0.930 . S
H347 C355 0.930 . S
H348 C358 0.930 . S
H349 C359 0.930 . S
C350 H344 0.930 . S
C350 C351 1.355 . S
C350 C352 1.415 1_455 S
C351 C350 1.355 . S
C351 C353 1.419 . S
C352 C350 1.415 1_655 S
C352 C357 1.425 1_655 S
C352 C359 1.409 . S
C353 H345 0.930 . S
C353 C351 1.419 . S
C353 C354 1.362 . S
C354 H346 0.930 . S
C354 C353 1.362 . S
C354 C357 1.409 . S
C355 H347 0.930 . S
C355 C356 1.355 . S
C355 C357 1.415 1_655 S
C356 C355 1.355 . S
C356 C358 1.419 . S
C357 C352 1.425 1_455 S
C357 C354 1.409 . S
C357 C355 1.415 1_455 S
C358 H348 0.930 . S
C358 C356 1.419 . S
C358 C359 1.362 . S
C359 H349 0.930 . S
C359 C352 1.409 . S
C359 C358 1.362 . S
H360 C366 0.928 1_545 S
H361 C369 0.930 . S
H362 C370 0.930 . S
H363 C371 0.928 1_565 S
H364 C374 0.930 . S
H365 C375 0.930 . S
C366 H360 0.928 1_565 S
C366 C367 1.356 . S
C366 C368 1.415 1_565 S
C367 C366 1.356 . S
C367 C369 1.419 . S
C368 C366 1.415 1_545 S
C368 C373 1.425 1_545 S
C368 C375 1.409 . S
C369 H361 0.930 . S
C369 C367 1.419 . S
C369 C370 1.362 . S
C370 H362 0.930 . S
C370 C369 1.362 . S
C370 C373 1.409 . S
C371 H363 0.928 1_545 S
C371 C372 1.356 . S
C371 C373 1.415 1_545 S
C372 C371 1.356 . S
C372 C374 1.419 . S
C373 C368 1.425 1_565 S
C373 C370 1.409 . S
C373 C371 1.415 1_565 S
C374 H364 0.930 . S
C374 C372 1.419 . S
C374 C375 1.362 . S
C375 H365 0.930 . S
C375 C368 1.409 . S
C375 C374 1.362 . S
H376 C382 0.930 . S
H377 C385 0.930 . S
H378 C386 0.930 . S
H379 C387 0.930 . S
H380 C390 0.930 . S
H381 C391 0.930 . S
C382 H376 0.930 . S
C382 C383 1.355 . S
C382 C384 1.415 . S
C383 C382 1.355 . S
C383 C385 1.419 . S
C384 C382 1.415 . S
C384 C389 1.425 . S
C384 C391 1.409 . S
C385 H377 0.930 . S
C385 C383 1.419 . S
C385 C386 1.362 . S
C386 H378 0.930 . S
C386 C385 1.362 . S
C386 C389 1.409 . S
C387 H379 0.930 . S
C387 C388 1.355 . S
C387 C389 1.415 . S
C388 C387 1.355 . S
C388 C390 1.419 . S
C389 C384 1.425 . S
C389 C386 1.409 . S
C389 C387 1.415 . S
C390 H380 0.930 . S
C390 C388 1.419 . S
C390 C391 1.362 . S
C391 H381 0.930 . S
C391 C384 1.409 . S
C391 C390 1.362 . S
H392 C398 0.930 . S
H393 C401 0.930 . S
H394 C402 0.930 . S
H395 C403 0.930 . S
H396 C406 0.930 . S
H397 C407 0.930 . S
C398 H392 0.930 . S
C398 C399 1.355 . S
C398 C400 1.415 . S
C399 C398 1.355 . S
C399 C401 1.419 1_455 S
C400 C398 1.415 . S
C400 C405 1.425 1_455 S
C400 C407 1.409 . S
C401 H393 0.930 . S
C401 C399 1.419 1_655 S
C401 C402 1.362 . S
C402 H394 0.930 . S
C402 C401 1.362 . S
C402 C405 1.409 . S
C403 H395 0.930 . S
C403 C404 1.355 . S
C403 C405 1.415 . S
C404 C403 1.355 . S
C404 C406 1.419 1_655 S
C405 C400 1.425 1_655 S
C405 C402 1.409 . S
C405 C403 1.415 . S
C406 H396 0.930 . S
C406 C404 1.419 1_455 S
C406 C407 1.362 . S
C407 H397 0.930 . S
C407 C400 1.409 . S
C407 C406 1.362 . S
H408 C414 0.930 . S
H409 C417 0.930 . S
H410 C418 0.930 . S
H411 C419 0.930 . S
H412 C422 0.930 . S
H413 C423 0.930 . S
C414 H408 0.930 . S
C414 C415 1.355 . S
C414 C416 1.414 . S
C415 C414 1.355 . S
C415 C417 1.419 . S
C416 C414 1.414 . S
C416 C421 1.428 1_655 S
C416 C423 1.409 1_655 S
C417 H409 0.930 . S
C417 C415 1.419 . S
C417 C418 1.362 . S
C418 H410 0.930 . S
C418 C417 1.362 . S
C418 C421 1.409 1_655 S
C419 H411 0.930 . S
C419 C420 1.355 . S
C419 C421 1.414 . S
C420 C419 1.355 . S
C420 C422 1.419 . S
C421 C416 1.428 1_455 S
C421 C418 1.409 1_455 S
C421 C419 1.414 . S
C422 H412 0.930 . S
C422 C420 1.419 . S
C422 C423 1.362 . S
C423 H413 0.930 . S
C423 C416 1.409 1_455 S
C423 C422 1.362 . S
H424 C430 0.930 . S
H425 C433 0.930 . S
H426 C434 0.930 . S
H427 C435 0.930 . S
H428 C438 0.930 . S
H429 C439 0.930 . S
C430 H424 0.930 . S
C430 C431 1.355 . S
C430 C432 1.415 . S
C431 C430 1.355 . S
C431 C433 1.419 . S
C432 C430 1.415 . S
C432 C437 1.425 1_565 S
C432 C439 1.409 . S
C433 H425 0.930 . S
C433 C431 1.419 . S
C433 C434 1.362 1_565 S
C434 H426 0.930 . S
C434 C433 1.362 1_545 S
C434 C437 1.409 . S
C435 H427 0.930 . S
C435 C436 1.355 . S
C435 C437 1.415 . S
C436 C435 1.355 . S
C436 C438 1.419 . S
C437 C432 1.425 1_545 S
C437 C434 1.409 . S
C437 C435 1.415 . S
C438 H428 0.930 . S
C438 C436 1.419 . S
C438 C439 1.362 1_545 S
C439 H429 0.930 . S
C439 C432 1.409 . S
C439 C438 1.362 1_565 S
H440 C446 0.930 . S
H441 C449 0.930 . S
H442 C450 0.930 . S
H443 C451 0.930 . S
H444 C454 0.930 . S
H445 C455 0.930 . S
C446 H440 0.930 . S
C446 C447 1.355 . S
C446 C448 1.415 . S
C447 C446 1.355 . S
C447 C449 1.419 . S
C448 C446 1.415 . S
C448 C453 1.425 . S
C448 C455 1.409 . S
C449 H441 0.930 . S
C449 C447 1.419 . S
C449 C450 1.362 . S
C450 H442 0.930 . S
C450 C449 1.362 . S
C450 C453 1.409 . S
C451 H443 0.930 . S
C451 C452 1.355 . S
C451 C453 1.415 . S
C452 C451 1.355 . S
C452 C454 1.419 . S
C453 C448 1.425 . S
C453 C450 1.409 . S
C453 C451 1.415 . S
C454 H444 0.930 . S
C454 C452 1.419 . S
C454 C455 1.362 . S
C455 H445 0.930 . S
C455 C448 1.409 . S
C455 C454 1.362 . S
H456 C462 0.930 . S
H457 C465 0.930 . S
H458 C466 0.930 . S
H459 C467 0.930 . S
H460 C470 0.930 . S
H461 C471 0.930 . S
C462 H456 0.930 . S
C462 C463 1.355 . S
C462 C464 1.415 . S
C463 C462 1.355 . S
C463 C465 1.419 . S
C464 C462 1.415 . S
C464 C469 1.425 . S
C464 C471 1.409 . S
C465 H457 0.930 . S
C465 C463 1.419 . S
C465 C466 1.362 . S
C466 H458 0.930 . S
C466 C465 1.362 . S
C466 C469 1.409 . S
C467 H459 0.930 . S
C467 C468 1.355 . S
C467 C469 1.415 . S
C468 C467 1.355 . S
C468 C470 1.419 . S
C469 C464 1.425 . S
C469 C466 1.409 . S
C469 C467 1.415 . S
C470 H460 0.930 . S
C470 C468 1.419 . S
C470 C471 1.362 . S
C471 H461 0.930 . S
C471 C464 1.409 . S
C471 C470 1.362 . S
H472 C478 0.930 . S
H473 C481 0.930 . S
H474 C482 0.930 . S
H475 C483 0.930 . S
H476 C486 0.930 . S
H477 C487 0.930 . S
C478 H472 0.930 . S
C478 C479 1.355 . S
C478 C480 1.415 . S
C479 C478 1.355 . S
C479 C481 1.419 . S
C480 C478 1.415 . S
C480 C485 1.425 . S
C480 C487 1.409 . S
C481 H473 0.930 . S
C481 C479 1.419 . S
C481 C482 1.362 . S
C482 H474 0.930 . S
C482 C481 1.362 . S
C482 C485 1.409 . S
C483 H475 0.930 . S
C483 C484 1.355 . S
C483 C485 1.415 . S
C484 C483 1.355 . S
C484 C486 1.419 . S
C485 C480 1.425 . S
C485 C482 1.409 . S
C485 C483 1.415 . S
C486 H476 0.930 . S
C486 C484 1.419 . S
C486 C487 1.362 . S
C487 H477 0.930 . S
C487 C480 1.409 . S
C487 C486 1.362 . S
H488 C494 0.930 . S
H489 C497 0.930 . S
H490 C498 0.930 . S
H491 C499 0.930 . S
H492 C502 0.930 . S
H493 C503 0.930 . S
C494 H488 0.930 . S
C494 C495 1.355 . S
C494 C496 1.415 . S
C495 C494 1.355 . S
C495 C497 1.419 . S
C496 C494 1.415 . S
C496 C501 1.425 . S
C496 C503 1.409 . S
C497 H489 0.930 . S
C497 C495 1.419 . S
C497 C498 1.362 . S
C498 H490 0.930 . S
C498 C497 1.362 . S
C498 C501 1.409 . S
C499 H491 0.930 . S
C499 C500 1.355 . S
C499 C501 1.415 . S
C500 C499 1.355 . S
C500 C502 1.419 . S
C501 C496 1.425 . S
C501 C498 1.409 . S
C501 C499 1.415 . S
C502 H492 0.930 . S
C502 C500 1.419 . S
C502 C503 1.362 . S
C503 H493 0.930 . S
C503 C496 1.409 . S
C503 C502 1.362 . S
H504 C510 0.930 . S
H505 C513 0.930 . S
H506 C514 0.930 . S
H507 C515 0.930 . S
H508 C518 0.930 . S
H509 C519 0.930 . S
C510 H504 0.930 . S
C510 C511 1.355 . S
C510 C512 1.415 . S
C511 C510 1.355 . S
C511 C513 1.419 . S
C512 C510 1.415 . S
C512 C517 1.425 . S
C512 C519 1.409 . S
C513 H505 0.930 . S
C513 C511 1.419 . S
C513 C514 1.362 . S
C514 H506 0.930 . S
C514 C513 1.362 . S
C514 C517 1.409 . S
C515 H507 0.930 . S
C515 C516 1.355 . S
C515 C517 1.415 . S
C516 C515 1.355 . S
C516 C518 1.419 . S
C517 C512 1.425 . S
C517 C514 1.409 . S
C517 C515 1.415 . S
C518 H508 0.930 . S
C518 C516 1.419 . S
C518 C519 1.362 . S
C519 H509 0.930 . S
C519 C512 1.409 . S
C519 C518 1.362 . S
H520 C526 0.930 . S
H521 C529 0.930 . S
H522 C530 0.930 . S
H523 C531 0.930 . S
H524 C534 0.930 . S
H525 C535 0.930 . S
C526 H520 0.930 . S
C526 C527 1.355 . S
C526 C528 1.415 . S
C527 C526 1.355 . S
C527 C529 1.419 . S
C528 C526 1.415 . S
C528 C533 1.425 . S
C528 C535 1.409 . S
C529 H521 0.930 . S
C529 C527 1.419 . S
C529 C530 1.362 . S
C530 H522 0.930 . S
C530 C529 1.362 . S
C530 C533 1.409 . S
C531 H523 0.930 . S
C531 C532 1.355 . S
C531 C533 1.415 . S
C532 C531 1.355 . S
C532 C534 1.419 . S
C533 C528 1.425 . S
C533 C530 1.409 . S
C533 C531 1.415 . S
C534 H524 0.930 . S
C534 C532 1.419 . S
C534 C535 1.362 . S
C535 H525 0.930 . S
C535 C528 1.409 . S
C535 C534 1.362 . S
H536 C542 0.930 . S
H537 C545 0.930 . S
H538 C546 0.930 . S
H539 C547 0.930 . S
H540 C550 0.930 . S
H541 C551 0.930 . S
C542 H536 0.930 . S
C542 C543 1.355 . S
C542 C544 1.415 . S
C543 C542 1.355 . S
C543 C545 1.419 . S
C544 C542 1.415 . S
C544 C549 1.425 . S
C544 C551 1.409 . S
C545 H537 0.930 . S
C545 C543 1.419 . S
C545 C546 1.362 . S
C546 H538 0.930 . S
C546 C545 1.362 . S
C546 C549 1.409 . S
C547 H539 0.930 . S
C547 C548 1.355 . S
C547 C549 1.415 . S
C548 C547 1.355 . S
C548 C550 1.419 . S
C549 C544 1.425 . S
C549 C546 1.409 . S
C549 C547 1.415 . S
C550 H540 0.930 . S
C550 C548 1.419 . S
C550 C551 1.362 . S
C551 H541 0.930 . S
C551 C544 1.409 . S
C551 C550 1.362 . S
C175 C9 2.251 . S
C180 C149 2.253 . S
C191 C163 2.181 . S
C196 C23 2.170 . S
C207 C93 2.246 . S
C212 C37 2.256 . S
C223 C51 2.173 . S
C228 C107 2.210 . S
C239 C65 2.214 . S
C244 C121 2.175 . S
C255 C135 2.171 . S
C260 C79 2.178 . S
C271 C5 0.968 . S
C276 C103 1.012 . S
C287 C117 1.040 . S
C292 C19 0.986 . S
C303 C131 0.957 . S
C308 C33 1.042 . S
C319 C47 0.990 . S
C324 C145 1.037 . S
C335 C159 0.982 . S
C340 C61 1.042 . S
C351 C75 0.957 . S
C356 C89 1.032 . S
C367 C42 2.396 . S
C372 C0 2.386 . S
C383 C56 2.400 . S
C388 C14 2.383 . S
C399 C70 2.427 . S
C404 C28 2.454 . S
C415 C84 2.390 . S
C420 C126 2.454 . S
C431 C98 2.453 . S
C436 C140 2.389 . S
C447 C112 2.448 . S
C452 C154 2.437 . S
C463 C123 1.373 . S
C468 C11 1.371 . S
C479 C137 1.337 . S
C484 C25 1.338 . S
C495 C151 1.338 . S
C500 C39 1.337 . S
C511 C165 1.338 . S
C516 C53 1.341 . S
C527 C95 1.342 . S
C532 C67 1.346 . S
C543 C81 1.348 . S
C548 C109 1.352 . S
