# Generated by pormake.
# Topology ukn, (4)-cn, num edge types: 1
# Building blocks:
#     Node 0, Type 0, BuildingBlock: GALJAG_clean_sbu_0, # of connection points: 4
#     Node 1, Type 0, BuildingBlock: GALJAG_clean_sbu_0, # of connection points: 4
#     Node 2, Type 0, BuildingBlock: GALJAG_clean_sbu_0, # of connection points: 4
#     Node 3, Type 0, BuildingBlock: GALJAG_clean_sbu_0, # of connection points: 4
#     Node 4, Type 0, BuildingBlock: GALJAG_clean_sbu_0, # of connection points: 4
#     Node 5, Type 0, BuildingBlock: GALJAG_clean_sbu_0, # of connection points: 4
#     Node 6, Type 0, BuildingBlock: GALJAG_clean_sbu_0, # of connection points: 4
#     Node 7, Type 0, BuildingBlock: GALJAG_clean_sbu_0, # of connection points: 4
#     Node 8, Type 0, BuildingBlock: GALJAG_clean_sbu_0, # of connection points: 4
#     Node 9, Type 0, BuildingBlock: GALJAG_clean_sbu_0, # of connection points: 4
#     Node 10, Type 0, BuildingBlock: GALJAG_clean_sbu_0, # of connection points: 4
#     Node 11, Type 0, BuildingBlock: GALJAG_clean_sbu_0, # of connection points: 4
#     Node 12, Type 0, BuildingBlock: GALJAG_clean_sbu_0, # of connection points: 4
#     Node 13, Type 0, BuildingBlock: GALJAG_clean_sbu_0, # of connection points: 4
#     Node 14, Type 0, BuildingBlock: GALJAG_clean_sbu_0, # of connection points: 4
#     Node 15, Type 0, BuildingBlock: GALJAG_clean_sbu_0, # of connection points: 4
#     Node 16, Type 0, BuildingBlock: GALJAG_clean_sbu_0, # of connection points: 4
#     Node 17, Type 0, BuildingBlock: GALJAG_clean_sbu_0, # of connection points: 4
#     Node 18, Type 0, BuildingBlock: GALJAG_clean_sbu_0, # of connection points: 4
#     Node 19, Type 0, BuildingBlock: GALJAG_clean_sbu_0, # of connection points: 4
#     Node 20, Type 0, BuildingBlock: GALJAG_clean_sbu_0, # of connection points: 4
#     Node 21, Type 0, BuildingBlock: GALJAG_clean_sbu_0, # of connection points: 4
#     Node 22, Type 0, BuildingBlock: GALJAG_clean_sbu_0, # of connection points: 4
#     Node 23, Type 0, BuildingBlock: GALJAG_clean_sbu_0, # of connection points: 4
#     Node 24, Type 0, BuildingBlock: GALJAG_clean_sbu_0, # of connection points: 4
#     Node 25, Type 0, BuildingBlock: GALJAG_clean_sbu_0, # of connection points: 4
#     Node 26, Type 0, BuildingBlock: GALJAG_clean_sbu_0, # of connection points: 4
#     Node 27, Type 0, BuildingBlock: GALJAG_clean_sbu_0, # of connection points: 4
#     Node 28, Type 0, BuildingBlock: GALJAG_clean_sbu_0, # of connection points: 4
#     Node 29, Type 0, BuildingBlock: GALJAG_clean_sbu_0, # of connection points: 4
#     Node 30, Type 0, BuildingBlock: GALJAG_clean_sbu_0, # of connection points: 4
#     Node 31, Type 0, BuildingBlock: GALJAG_clean_sbu_0, # of connection points: 4
#     Node 32, Type 0, BuildingBlock: GALJAG_clean_sbu_0, # of connection points: 4
#     Node 33, Type 0, BuildingBlock: GALJAG_clean_sbu_0, # of connection points: 4
#     Node 34, Type 0, BuildingBlock: GALJAG_clean_sbu_0, # of connection points: 4
#     Node 35, Type 0, BuildingBlock: GALJAG_clean_sbu_0, # of connection points: 4
#     Edge 36, Type (0, 0), BuildingBlock: EZIPEK_clean_linker_0, # of connection points: 2
#     Edge 37, Type (0, 0), BuildingBlock: EZIPEK_clean_linker_0, # of connection points: 2
#     Edge 38, Type (0, 0), BuildingBlock: EZIPEK_clean_linker_0, # of connection points: 2
#     Edge 39, Type (0, 0), BuildingBlock: EZIPEK_clean_linker_0, # of connection points: 2
#     Edge 40, Type (0, 0), BuildingBlock: EZIPEK_clean_linker_0, # of connection points: 2
#     Edge 41, Type (0, 0), BuildingBlock: EZIPEK_clean_linker_0, # of connection points: 2
#     Edge 42, Type (0, 0), BuildingBlock: EZIPEK_clean_linker_0, # of connection points: 2
#     Edge 43, Type (0, 0), BuildingBlock: EZIPEK_clean_linker_0, # of connection points: 2
#     Edge 44, Type (0, 0), BuildingBlock: EZIPEK_clean_linker_0, # of connection points: 2
#     Edge 45, Type (0, 0), BuildingBlock: EZIPEK_clean_linker_0, # of connection points: 2
#     Edge 46, Type (0, 0), BuildingBlock: EZIPEK_clean_linker_0, # of connection points: 2
#     Edge 47, Type (0, 0), BuildingBlock: EZIPEK_clean_linker_0, # of connection points: 2
#     Edge 48, Type (0, 0), BuildingBlock: EZIPEK_clean_linker_0, # of connection points: 2
#     Edge 49, Type (0, 0), BuildingBlock: EZIPEK_clean_linker_0, # of connection points: 2
#     Edge 50, Type (0, 0), BuildingBlock: EZIPEK_clean_linker_0, # of connection points: 2
#     Edge 51, Type (0, 0), BuildingBlock: EZIPEK_clean_linker_0, # of connection points: 2
#     Edge 52, Type (0, 0), BuildingBlock: EZIPEK_clean_linker_0, # of connection points: 2
#     Edge 53, Type (0, 0), BuildingBlock: EZIPEK_clean_linker_0, # of connection points: 2
#     Edge 54, Type (0, 0), BuildingBlock: EZIPEK_clean_linker_0, # of connection points: 2
#     Edge 55, Type (0, 0), BuildingBlock: EZIPEK_clean_linker_0, # of connection points: 2
#     Edge 56, Type (0, 0), BuildingBlock: EZIPEK_clean_linker_0, # of connection points: 2
#     Edge 57, Type (0, 0), BuildingBlock: EZIPEK_clean_linker_0, # of connection points: 2
#     Edge 58, Type (0, 0), BuildingBlock: EZIPEK_clean_linker_0, # of connection points: 2
#     Edge 59, Type (0, 0), BuildingBlock: EZIPEK_clean_linker_0, # of connection points: 2
#     Edge 60, Type (0, 0), BuildingBlock: EZIPEK_clean_linker_0, # of connection points: 2
#     Edge 61, Type (0, 0), BuildingBlock: EZIPEK_clean_linker_0, # of connection points: 2
#     Edge 62, Type (0, 0), BuildingBlock: EZIPEK_clean_linker_0, # of connection points: 2
#     Edge 63, Type (0, 0), BuildingBlock: EZIPEK_clean_linker_0, # of connection points: 2
#     Edge 64, Type (0, 0), BuildingBlock: EZIPEK_clean_linker_0, # of connection points: 2
#     Edge 65, Type (0, 0), BuildingBlock: EZIPEK_clean_linker_0, # of connection points: 2
#     Edge 66, Type (0, 0), BuildingBlock: EZIPEK_clean_linker_0, # of connection points: 2
#     Edge 67, Type (0, 0), BuildingBlock: EZIPEK_clean_linker_0, # of connection points: 2
#     Edge 68, Type (0, 0), BuildingBlock: EZIPEK_clean_linker_0, # of connection points: 2
#     Edge 69, Type (0, 0), BuildingBlock: EZIPEK_clean_linker_0, # of connection points: 2
#     Edge 70, Type (0, 0), BuildingBlock: EZIPEK_clean_linker_0, # of connection points: 2
#     Edge 71, Type (0, 0), BuildingBlock: EZIPEK_clean_linker_0, # of connection points: 2
#     Edge 72, Type (0, 0), BuildingBlock: EZIPEK_clean_linker_0, # of connection points: 2
#     Edge 73, Type (0, 0), BuildingBlock: EZIPEK_clean_linker_0, # of connection points: 2
#     Edge 74, Type (0, 0), BuildingBlock: EZIPEK_clean_linker_0, # of connection points: 2
#     Edge 75, Type (0, 0), BuildingBlock: EZIPEK_clean_linker_0, # of connection points: 2
#     Edge 76, Type (0, 0), BuildingBlock: EZIPEK_clean_linker_0, # of connection points: 2
#     Edge 77, Type (0, 0), BuildingBlock: EZIPEK_clean_linker_0, # of connection points: 2
#     Edge 78, Type (0, 0), BuildingBlock: EZIPEK_clean_linker_0, # of connection points: 2
#     Edge 79, Type (0, 0), BuildingBlock: EZIPEK_clean_linker_0, # of connection points: 2
#     Edge 80, Type (0, 0), BuildingBlock: EZIPEK_clean_linker_0, # of connection points: 2
#     Edge 81, Type (0, 0), BuildingBlock: EZIPEK_clean_linker_0, # of connection points: 2
#     Edge 82, Type (0, 0), BuildingBlock: EZIPEK_clean_linker_0, # of connection points: 2
#     Edge 83, Type (0, 0), BuildingBlock: EZIPEK_clean_linker_0, # of connection points: 2
#     Edge 84, Type (0, 0), BuildingBlock: EZIPEK_clean_linker_0, # of connection points: 2
#     Edge 85, Type (0, 0), BuildingBlock: EZIPEK_clean_linker_0, # of connection points: 2
#     Edge 86, Type (0, 0), BuildingBlock: EZIPEK_clean_linker_0, # of connection points: 2
#     Edge 87, Type (0, 0), BuildingBlock: EZIPEK_clean_linker_0, # of connection points: 2
#     Edge 88, Type (0, 0), BuildingBlock: EZIPEK_clean_linker_0, # of connection points: 2
#     Edge 89, Type (0, 0), BuildingBlock: EZIPEK_clean_linker_0, # of connection points: 2
#     Edge 90, Type (0, 0), BuildingBlock: EZIPEK_clean_linker_0, # of connection points: 2
#     Edge 91, Type (0, 0), BuildingBlock: EZIPEK_clean_linker_0, # of connection points: 2
#     Edge 92, Type (0, 0), BuildingBlock: EZIPEK_clean_linker_0, # of connection points: 2
#     Edge 93, Type (0, 0), BuildingBlock: EZIPEK_clean_linker_0, # of connection points: 2
#     Edge 94, Type (0, 0), BuildingBlock: EZIPEK_clean_linker_0, # of connection points: 2
#     Edge 95, Type (0, 0), BuildingBlock: EZIPEK_clean_linker_0, # of connection points: 2
#     Edge 96, Type (0, 0), BuildingBlock: EZIPEK_clean_linker_0, # of connection points: 2
#     Edge 97, Type (0, 0), BuildingBlock: EZIPEK_clean_linker_0, # of connection points: 2
#     Edge 98, Type (0, 0), BuildingBlock: EZIPEK_clean_linker_0, # of connection points: 2
#     Edge 99, Type (0, 0), BuildingBlock: EZIPEK_clean_linker_0, # of connection points: 2
#     Edge 100, Type (0, 0), BuildingBlock: EZIPEK_clean_linker_0, # of connection points: 2
#     Edge 101, Type (0, 0), BuildingBlock: EZIPEK_clean_linker_0, # of connection points: 2
#     Edge 102, Type (0, 0), BuildingBlock: EZIPEK_clean_linker_0, # of connection points: 2
#     Edge 103, Type (0, 0), BuildingBlock: EZIPEK_clean_linker_0, # of connection points: 2
#     Edge 104, Type (0, 0), BuildingBlock: EZIPEK_clean_linker_0, # of connection points: 2
#     Edge 105, Type (0, 0), BuildingBlock: EZIPEK_clean_linker_0, # of connection points: 2
#     Edge 106, Type (0, 0), BuildingBlock: EZIPEK_clean_linker_0, # of connection points: 2
#     Edge 107, Type (0, 0), BuildingBlock: EZIPEK_clean_linker_0, # of connection points: 2
# Relax obj value: 0.060
# Max RMSD: 0.091
# Mean RMSD: 0.091
data_MOF--net-ukn--node1-GALJAG_clean_sbu_0--edge1-EZIPEK_clean_linker_0
_symmetry_space_group_name_H-M    P1
_symmetry_Int_Tables_number       1
_symmetry_cell_setting            triclinic
loop_
_symmetry_equiv_pos_as_xyz
'x, y, z'
_cell_length_a     76.218931
_cell_length_b     76.197741
_cell_length_c     20.374134
_cell_angle_alpha  89.98832
_cell_angle_beta   89.99506
_cell_angle_gamma 119.99643
loop_
_atom_site_label
_atom_site_type_symbol
_atom_site_fract_x
_atom_site_fract_y
_atom_site_fract_z
_atom_type_partial_charge
In0 In 0.07747 0.29951 0.08035 0.0
O1 O 0.08385 0.27443 0.11216 0.0
O2 O 0.10881 0.30395 0.09178 0.0
C3 C 0.0383 0.27664 0.04683 0.0
C4 C 0.08149 0.31821 0.19653 0.0
C5 C 0.08936 0.31677 0.96097 0.0
O6 O 0.05068 0.27028 0.04241 0.0
O7 O 0.04529 0.29393 0.07239 0.0
O8 O 0.08536 0.32531 0.00707 0.0
O9 O 0.08821 0.30019 0.97584 0.0
C10 C 0.10284 0.28589 0.10861 0.0
O11 O 0.08873 0.32797 0.14381 0.0
O12 O 0.0716 0.29919 0.19022 0.0
In13 In 0.69687 0.77753 0.08268 0.0
O14 O 0.72033 0.81082 0.09879 0.0
O15 O 0.68907 0.80232 0.09331 0.0
C16 C 0.72215 0.76399 0.05013 0.0
C17 C 0.68033 0.76343 0.20217 0.0
C18 C 0.67842 0.76996 0.96499 0.0
O19 O 0.7285 0.7823 0.06434 0.0
O20 O 0.70329 0.75238 0.0556 0.0
O21 O 0.67034 0.75835 0.01363 0.0
O22 O 0.6953 0.7855 0.97634 0.0
C23 C 0.70718 0.81627 0.10037 0.0
O24 O 0.66976 0.75966 0.1509 0.0
O25 O 0.6992 0.77337 0.19294 0.0
In26 In 0.21866 0.91705 0.08554 0.0
O27 O 0.23508 0.90627 0.15404 0.0
O28 O 0.22228 0.92302 0.19576 0.0
C29 C 0.22899 0.90794 0.96934 0.0
C30 C 0.17978 0.88888 0.10215 0.0
C31 C 0.23228 0.95592 0.05363 0.0
O32 O 0.24082 0.91353 0.01811 0.0
O33 O 0.21195 0.90624 0.98004 0.0
O34 O 0.214 0.94239 0.04612 0.0
O35 O 0.24332 0.95014 0.08123 0.0
C36 C 0.23177 0.91361 0.20503 0.0
O37 O 0.1857 0.90755 0.10765 0.0
O38 O 0.19334 0.88457 0.08864 0.0
In39 In 0.2935 0.07581 0.91845 0.0
O40 O 0.32145 0.0855 0.85407 0.0
O41 O 0.29257 0.07017 0.80799 0.0
C42 C 0.30976 0.08573 0.03951 0.0
C43 C 0.28314 0.10416 0.89902 0.0
C44 C 0.26979 0.03638 0.94546 0.0
O45 O 0.31905 0.08352 0.99167 0.0
O46 O 0.29264 0.08353 0.02579 0.0
O47 O 0.26241 0.04746 0.93066 0.0
O48 O 0.28882 0.04487 0.94234 0.0
C49 C 0.31155 0.07903 0.80134 0.0
O50 O 0.27001 0.08552 0.89975 0.0
O51 O 0.3012 0.10833 0.90773 0.0
In52 In 0.91895 0.21948 0.90576 0.0
O53 O 0.91115 0.23814 0.83582 0.0
O54 O 0.92289 0.2204 0.79474 0.0
C55 C 0.91 0.2275 0.02548 0.0
C56 C 0.88938 0.18074 0.89879 0.0
C57 C 0.95842 0.23554 0.93249 0.0
O58 O 0.90975 0.23713 0.97512 0.0
O59 O 0.91444 0.21389 0.01492 0.0
O60 O 0.94739 0.21698 0.91867 0.0
O61 O 0.94992 0.24605 0.92775 0.0
C62 C 0.91606 0.23222 0.78476 0.0
O63 O 0.90785 0.18563 0.89648 0.0
O64 O 0.88595 0.19524 0.90418 0.0
In65 In 0.77657 0.69931 0.91654 0.0
O66 O 0.81027 0.72165 0.90238 0.0
O67 O 0.8003 0.68999 0.90619 0.0
C68 C 0.7638 0.72555 0.94343 0.0
C69 C 0.76187 0.68212 0.79821 0.0
C70 C 0.76802 0.68194 0.0365 0.0
O71 O 0.78207 0.73149 0.92962 0.0
O72 O 0.75198 0.7067 0.93968 0.0
O73 O 0.75587 0.67454 0.98882 0.0
O74 O 0.78458 0.69764 0.02307 0.0
C75 C 0.81491 0.70788 0.90063 0.0
O76 O 0.75805 0.67188 0.85034 0.0
O77 O 0.77241 0.70104 0.80599 0.0
In78 In 0.91698 0.69658 0.92807 0.0
O79 O 0.9074 0.66839 0.86521 0.0
O80 O 0.92231 0.69714 0.81769 0.0
C81 C 0.90647 0.67976 0.04842 0.0
C82 C 0.88891 0.70696 0.90407 0.0
C83 C 0.95604 0.72106 0.95979 0.0
O84 O 0.91162 0.67196 0.00291 0.0
O85 O 0.90579 0.69535 0.03221 0.0
O86 O 0.9434 0.72717 0.95996 0.0
O87 O 0.94934 0.70321 0.93953 0.0
C88 C 0.9137 0.67812 0.812 0.0
O89 O 0.90762 0.71971 0.89924 0.0
O90 O 0.88456 0.6892 0.91958 0.0
In91 In 0.29261 0.21697 0.90601 0.0
O92 O 0.2698 0.18394 0.88049 0.0
O93 O 0.30024 0.19201 0.90386 0.0
C94 C 0.26763 0.23052 0.94337 0.0
C95 C 0.30755 0.22997 0.78438 0.0
C96 C 0.31263 0.22804 0.02119 0.0
O97 O 0.26393 0.21278 0.956 0.0
O98 O 0.28285 0.2406 0.90705 0.0
O99 O 0.31926 0.23933 0.97101 0.0
O100 O 0.29674 0.21131 0.012 0.0
C101 C 0.28267 0.17825 0.88842 0.0
O102 O 0.31887 0.23223 0.83293 0.0
O103 O 0.28894 0.22204 0.79785 0.0
In104 In 0.77656 0.07614 0.92248 0.0
O105 O 0.75787 0.08531 0.85837 0.0
O106 O 0.77256 0.07111 0.81189 0.0
C107 C 0.76886 0.084 0.04423 0.0
C108 C 0.81484 0.10601 0.9074 0.0
C109 C 0.76235 0.03684 0.94687 0.0
O110 O 0.75769 0.08244 0.99606 0.0
O111 O 0.78387 0.08197 0.03079 0.0
O112 O 0.78105 0.04902 0.93899 0.0
O113 O 0.75094 0.04419 0.93825 0.0
C114 C 0.76174 0.07924 0.80555 0.0
O115 O 0.80989 0.08766 0.89924 0.0
O116 O 0.80063 0.10917 0.92276 0.0
In117 In 0.69517 0.91731 0.08345 0.0
O118 O 0.66732 0.90681 0.14913 0.0
O119 O 0.69643 0.9228 0.1938 0.0
C120 C 0.67701 0.90698 0.9649 0.0
C121 C 0.70661 0.88996 0.10411 0.0
C122 C 0.72053 0.95613 0.05144 0.0
O123 O 0.67103 0.91419 0.00982 0.0
O124 O 0.69134 0.90414 0.98096 0.0
O125 O 0.72594 0.94298 0.05013 0.0
O126 O 0.70283 0.95001 0.07223 0.0
C127 C 0.67747 0.91354 0.20133 0.0
O128 O 0.71914 0.90875 0.10748 0.0
O129 O 0.68852 0.88514 0.09171 0.0
In130 In 0.0757 0.77653 0.09629 0.0
O131 O 0.08633 0.80994 0.11507 0.0
O132 O 0.10854 0.80124 0.09666 0.0
C133 C 0.03635 0.76178 0.06962 0.0
C134 C 0.07891 0.76251 0.21485 0.0
C135 C 0.08444 0.76846 0.97613 0.0
O136 O 0.0483 0.78048 0.07826 0.0
O137 O 0.0439 0.75057 0.07898 0.0
O138 O 0.0829 0.75766 0.02536 0.0
O139 O 0.08203 0.78335 0.9878 0.0
C140 C 0.10483 0.81529 0.10876 0.0
O141 O 0.08452 0.75786 0.16259 0.0
O142 O 0.07144 0.77387 0.20743 0.0
In143 In 0.21407 0.29389 0.11077 0.0
O144 O 0.22896 0.31978 0.1853 0.0
O145 O 0.21922 0.28978 0.21869 0.0
C146 C 0.22534 0.31426 0.99591 0.0
C147 C 0.17519 0.28348 0.12765 0.0
C148 C 0.22799 0.26922 0.07319 0.0
O149 O 0.23657 0.32068 0.0462 0.0
O150 O 0.20853 0.29847 0.00489 0.0
O151 O 0.21025 0.26545 0.06007 0.0
O152 O 0.23786 0.28434 0.1101 0.0
C153 C 0.2269 0.3083 0.23321 0.0
O154 O 0.18081 0.27044 0.13089 0.0
O155 O 0.18909 0.30145 0.11771 0.0
In156 In 0.74247 0.63049 0.41866 0.0
O157 O 0.75522 0.65747 0.48975 0.0
O158 O 0.73108 0.62933 0.52327 0.0
C159 C 0.75159 0.6492 0.30083 0.0
C160 C 0.77068 0.62023 0.44232 0.0
C161 C 0.70494 0.60239 0.38334 0.0
O162 O 0.74438 0.6547 0.34722 0.0
O163 O 0.75475 0.6349 0.31486 0.0
O164 O 0.7185 0.59789 0.39465 0.0
O165 O 0.71006 0.62069 0.39287 0.0
C166 C 0.74384 0.64744 0.53678 0.0
O167 O 0.75208 0.60789 0.45141 0.0
O168 O 0.7749 0.63752 0.42185 0.0
In169 In 0.3618 0.1123 0.42006 0.0
O170 O 0.38532 0.14475 0.44838 0.0
O171 O 0.35492 0.13766 0.42862 0.0
C172 C 0.38881 0.10224 0.37617 0.0
C173 C 0.34636 0.09728 0.54005 0.0
C174 C 0.34158 0.10302 0.3049 0.0
O175 O 0.3929 0.12045 0.37926 0.0
O176 O 0.37161 0.08934 0.39784 0.0
O177 O 0.3384 0.08963 0.34733 0.0
O178 O 0.3538 0.12088 0.32259 0.0
C179 C 0.37277 0.15097 0.4435 0.0
O180 O 0.33545 0.09703 0.49303 0.0
O181 O 0.36472 0.10401 0.52566 0.0
In182 In 0.88176 0.25015 0.40674 0.0
O183 O 0.84908 0.24091 0.43192 0.0
O184 O 0.85705 0.21784 0.42025 0.0
C185 C 0.89001 0.28715 0.36743 0.0
C186 C 0.89757 0.2483 0.52352 0.0
C187 C 0.89193 0.24023 0.29138 0.0
O188 O 0.87272 0.27176 0.36029 0.0
O189 O 0.90276 0.28411 0.39708 0.0
O190 O 0.90505 0.25272 0.3306 0.0
O191 O 0.87402 0.23181 0.31238 0.0
C192 C 0.84344 0.22222 0.43198 0.0
O193 O 0.90109 0.24175 0.47115 0.0
O194 O 0.88694 0.25662 0.51661 0.0
In195 In 0.95809 0.4056 0.25072 0.0
O196 O 0.9848 0.40949 0.18897 0.0
O197 O 0.95732 0.40242 0.13957 0.0
C198 C 0.97065 0.41034 0.37643 0.0
C199 C 0.95651 0.43986 0.24071 0.0
C200 C 0.92971 0.36675 0.26271 0.0
O201 O 0.98212 0.41184 0.3292 0.0
O202 O 0.95316 0.40649 0.36 0.0
O203 O 0.92511 0.38016 0.24929 0.0
O204 O 0.94842 0.37275 0.26522 0.0
C205 C 0.97554 0.40661 0.13497 0.0
O206 O 0.9407 0.4228 0.2481 0.0
O207 O 0.97276 0.43942 0.23618 0.0
In208 In 0.58722 0.5524 0.24761 0.0
O209 O 0.57406 0.51836 0.23612 0.0
O210 O 0.55377 0.53008 0.23949 0.0
C211 C 0.62571 0.56349 0.27598 0.0
C212 C 0.58545 0.56711 0.1289 0.0
C213 C 0.5785 0.56106 0.36672 0.0
O214 O 0.61293 0.54549 0.2607 0.0
O215 O 0.61938 0.57592 0.27356 0.0
O216 O 0.58264 0.57303 0.31873 0.0
O217 O 0.57828 0.54477 0.35411 0.0
C218 C 0.55599 0.5148 0.23527 0.0
O219 O 0.58012 0.57217 0.18091 0.0
O220 O 0.59246 0.55538 0.13685 0.0
In221 In 0.44388 0.03863 0.24266 0.0
O222 O 0.47784 0.05982 0.2286 0.0
O223 O 0.46662 0.02795 0.23512 0.0
C224 C 0.43108 0.06502 0.26591 0.0
C225 C 0.42892 0.0212 0.12493 0.0
C226 C 0.43567 0.0223 0.36387 0.0
O227 O 0.44945 0.07089 0.2538 0.0
O228 O 0.41922 0.04617 0.26194 0.0
O229 O 0.42442 0.01335 0.31521 0.0
O230 O 0.45107 0.03916 0.3511 0.0
C231 C 0.48172 0.04551 0.22887 0.0
O232 O 0.42398 0.01128 0.17795 0.0
O233 O 0.44079 0.04 0.1314 0.0
In234 In 0.58363 0.03275 0.25485 0.0
O235 O 0.57353 0.05554 0.22955 0.0
O236 O 0.55092 0.02489 0.24975 0.0
C237 C 0.62295 0.05751 0.28131 0.0
C238 C 0.58016 0.01468 0.13803 0.0
C239 C 0.57424 0.01605 0.37515 0.0
O240 O 0.61049 0.06382 0.27928 0.0
O241 O 0.61587 0.03913 0.26654 0.0
O242 O 0.57708 0.00722 0.32727 0.0
O243 O 0.57564 0.03285 0.36202 0.0
C244 C 0.55493 0.04261 0.23524 0.0
O245 O 0.57415 0.00479 0.191 0.0
O246 O 0.58857 0.03367 0.14424 0.0
In247 In 0.96306 0.55358 0.25288 0.0
O248 O 0.98983 0.5725 0.18458 0.0
O249 O 0.96055 0.55515 0.14193 0.0
C250 C 0.98054 0.56466 0.37193 0.0
C251 C 0.95811 0.51634 0.24491 0.0
C252 C 0.93471 0.56374 0.27659 0.0
O253 O 0.98696 0.57656 0.32331 0.0
O254 O 0.96568 0.54738 0.35986 0.0
O255 O 0.93006 0.54558 0.26632 0.0
O256 O 0.95323 0.57661 0.27018 0.0
C257 C 0.97927 0.56681 0.13298 0.0
O258 O 0.94316 0.51925 0.24406 0.0
O259 O 0.97529 0.5321 0.24967 0.0
In260 In 0.44218 0.41055 0.25527 0.0
O261 O 0.41729 0.40967 0.18954 0.0
O262 O 0.44379 0.41293 0.14414 0.0
C263 C 0.43434 0.41997 0.37458 0.0
C264 C 0.48008 0.44102 0.24263 0.0
C265 C 0.43001 0.37144 0.27653 0.0
O266 O 0.42639 0.42227 0.32321 0.0
O267 O 0.44626 0.41326 0.36552 0.0
O268 O 0.44848 0.38443 0.26898 0.0
O269 O 0.41784 0.37794 0.26935 0.0
C270 C 0.42692 0.41198 0.13682 0.0
O271 O 0.47572 0.42275 0.23727 0.0
O272 O 0.4654 0.44388 0.25375 0.0
In273 In 0.36147 0.25211 0.40677 0.0
O274 O 0.38533 0.24355 0.43311 0.0
O275 O 0.35465 0.21995 0.4188 0.0
C276 C 0.38856 0.29052 0.37566 0.0
C277 C 0.34271 0.24837 0.52301 0.0
C278 C 0.34363 0.24293 0.28716 0.0
O279 O 0.39275 0.2765 0.37211 0.0
O280 O 0.37122 0.28541 0.39791 0.0
O281 O 0.33932 0.25204 0.33046 0.0
O282 O 0.35594 0.23747 0.30557 0.0
C283 C 0.37268 0.22476 0.43208 0.0
O284 O 0.33306 0.24132 0.47009 0.0
O285 O 0.36172 0.25808 0.51681 0.0
In286 In 0.74173 0.10861 0.42303 0.0
O287 O 0.75135 0.1415 0.44779 0.0
O288 O 0.7742 0.13404 0.4256 0.0
C289 C 0.70352 0.09582 0.38603 0.0
C290 C 0.7429 0.09485 0.54432 0.0
C291 C 0.75213 0.09903 0.30808 0.0
O292 O 0.71617 0.11438 0.39413 0.0
O293 O 0.70986 0.08374 0.39877 0.0
O294 O 0.74819 0.08787 0.35823 0.0
O295 O 0.75132 0.11498 0.31665 0.0
C296 C 0.76998 0.14756 0.44052 0.0
O297 O 0.75359 0.09454 0.49752 0.0
O298 O 0.73087 0.10103 0.52926 0.0
In299 In 0.88231 0.62838 0.43017 0.0
O300 O 0.89767 0.65433 0.50423 0.0
O301 O 0.8897 0.62466 0.536 0.0
C302 C 0.89005 0.64751 0.31342 0.0
C303 C 0.84403 0.61861 0.45336 0.0
C304 C 0.8945 0.60286 0.38849 0.0
O305 O 0.90343 0.65306 0.35772 0.0
O306 O 0.87283 0.63331 0.32972 0.0
O307 O 0.87595 0.59752 0.3928 0.0
O308 O 0.90668 0.62053 0.40857 0.0
C309 C 0.89671 0.64302 0.55115 0.0
O310 O 0.84933 0.60528 0.45399 0.0
O311 O 0.85804 0.63653 0.443 0.0
In312 In 0.41075 0.97043 0.74444 0.0
O313 O 0.42231 0.99662 0.81812 0.0
O314 O 0.39883 0.96773 0.84914 0.0
C315 C 0.42135 0.99077 0.62943 0.0
C316 C 0.43805 0.95904 0.76956 0.0
C317 C 0.37386 0.94296 0.70101 0.0
O318 O 0.41083 0.99352 0.67172 0.0
O319 O 0.42754 0.97899 0.64723 0.0
O320 O 0.38824 0.93925 0.70356 0.0
O321 O 0.37783 0.96004 0.72293 0.0
C322 C 0.41105 0.98588 0.86442 0.0
O323 O 0.41925 0.94642 0.77021 0.0
O324 O 0.44285 0.97715 0.75768 0.0
In325 In 0.02376 0.43637 0.75095 0.0
O326 O 0.04603 0.47019 0.76813 0.0
O327 O 0.01507 0.46074 0.74886 0.0
C328 C 0.05104 0.42615 0.71177 0.0
C329 C 0.00969 0.42278 0.87356 0.0
C330 C 0.00238 0.42377 0.63914 0.0
O331 O 0.05612 0.4442 0.72628 0.0
O332 O 0.03255 0.4133 0.71953 0.0
O333 O -0.00307 0.41282 0.69008 0.0
O334 O 0.01804 0.44088 0.64528 0.0
C335 C 0.03263 0.47516 0.76054 0.0
O336 O -0.00138 0.42323 0.82839 0.0
O337 O 0.02759 0.4283 0.85639 0.0
In338 In 0.5543 0.58666 0.74813 0.0
O339 O 0.57336 0.57906 0.81678 0.0
O340 O 0.55612 0.59116 0.85903 0.0
C341 C 0.56347 0.57723 0.63102 0.0
C342 C 0.51577 0.5568 0.75934 0.0
C343 C 0.56735 0.62559 0.71866 0.0
O344 O 0.57422 0.57969 0.68122 0.0
O345 O 0.54818 0.57913 0.64039 0.0
O346 O 0.54879 0.61283 0.72534 0.0
O347 O 0.5793 0.61902 0.72966 0.0
C348 C 0.56794 0.5843 0.86816 0.0
O349 O 0.52068 0.57518 0.76594 0.0
O350 O 0.53017 0.55357 0.74776 0.0
In351 In 0.62884 0.74514 0.582 0.0
O352 O 0.65659 0.75572 0.51551 0.0
O353 O 0.62735 0.73943 0.47176 0.0
C354 C 0.64684 0.75526 0.70046 0.0
C355 C 0.61659 0.77212 0.56399 0.0
C356 C 0.60476 0.70599 0.61252 0.0
O357 O 0.65499 0.75175 0.65204 0.0
O358 O 0.63016 0.75426 0.68864 0.0
O359 O 0.59833 0.71835 0.61169 0.0
O360 O 0.62287 0.71303 0.59448 0.0
C361 C 0.64629 0.74847 0.4639 0.0
O362 O 0.60458 0.75333 0.55737 0.0
O363 O 0.63457 0.7772 0.579 0.0
In364 In 0.25388 0.8835 0.58403 0.0
O365 O 0.24949 0.90519 0.51696 0.0
O366 O 0.25384 0.8823 0.47273 0.0
C367 C 0.24752 0.89235 0.70719 0.0
C368 C 0.22315 0.84524 0.58129 0.0
C369 C 0.29361 0.89806 0.59717 0.0
O370 O 0.23972 0.89571 0.65733 0.0
O371 O 0.25876 0.88511 0.69431 0.0
O372 O 0.28141 0.87931 0.5892 0.0
O373 O 0.28591 0.90937 0.59345 0.0
C374 C 0.25046 0.89675 0.46472 0.0
O375 O 0.24136 0.84924 0.5787 0.0
O376 O 0.22064 0.86031 0.58557 0.0
In377 In 0.11278 0.3683 0.57933 0.0
O378 O 0.0916 0.34253 0.50994 0.0
O379 O 0.11324 0.37068 0.46769 0.0
C380 C 0.10557 0.35002 0.69779 0.0
C381 C 0.15217 0.37971 0.57157 0.0
C382 C 0.09622 0.39144 0.60382 0.0
O383 O 0.1001 0.34002 0.64485 0.0
O384 O 0.11467 0.36897 0.69056 0.0
O385 O 0.11487 0.39904 0.59154 0.0
O386 O 0.08581 0.3724 0.59969 0.0
C387 C 0.09927 0.35269 0.45829 0.0
O388 O 0.14636 0.39258 0.57368 0.0
O389 O 0.13829 0.36142 0.57247 0.0
In390 In 0.25024 0.36322 0.61021 0.0
O391 O 0.24271 0.38783 0.58494 0.0
O392 O 0.21836 0.3576 0.6016 0.0
C393 C 0.28882 0.39013 0.64038 0.0
C394 C 0.24577 0.34419 0.4937 0.0
C395 C 0.2411 0.34529 0.72985 0.0
O396 O 0.27491 0.39446 0.64404 0.0
O397 O 0.28352 0.37268 0.61875 0.0
O398 O 0.25051 0.34126 0.68689 0.0
O399 O 0.23536 0.35735 0.71112 0.0
C400 C 0.22382 0.3758 0.58808 0.0
O401 O 0.23878 0.33466 0.54686 0.0
O402 O 0.25565 0.3632 0.49965 0.0
In403 In 0.6261 0.88382 0.58202 0.0
O404 O 0.60173 0.85093 0.56317 0.0
O405 O 0.63253 0.8581 0.57525 0.0
C406 C 0.60246 0.89954 0.61199 0.0
C407 C 0.64296 0.89667 0.46261 0.0
C408 C 0.64417 0.89131 0.70078 0.0
O409 O 0.59589 0.88072 0.61313 0.0
O410 O 0.62041 0.91023 0.59201 0.0
O411 O 0.65138 0.90397 0.65427 0.0
O412 O 0.62858 0.87487 0.68625 0.0
C413 C 0.61432 0.84471 0.56521 0.0
O414 O 0.65351 0.90086 0.51419 0.0
O415 O 0.62406 0.88643 0.47126 0.0
In416 In 0.10887 0.74164 0.59594 0.0
O417 O 0.1424 0.75294 0.57669 0.0
O418 O 0.13315 0.77461 0.59698 0.0
C419 C 0.09701 0.70318 0.62851 0.0
C420 C 0.09509 0.74407 0.47581 0.0
C421 C 0.09942 0.75109 0.71288 0.0
O422 O 0.11525 0.71589 0.61592 0.0
O423 O 0.08469 0.70953 0.62168 0.0
O424 O 0.08801 0.74717 0.66343 0.0
O425 O 0.11543 0.75051 0.70288 0.0
C426 C 0.14743 0.77131 0.58412 0.0
O427 O 0.09165 0.75136 0.52651 0.0
O428 O 0.10476 0.7349 0.48575 0.0
In429 In 0.03065 0.58424 0.75358 0.0
O430 O 0.05067 0.56985 0.7609 0.0
O431 O 0.01861 0.5504 0.75521 0.0
C432 C 0.05858 0.623 0.7312 0.0
C433 C 0.01451 0.58187 0.87323 0.0
C434 C 0.0131 0.57877 0.63509 0.0
O435 O 0.06353 0.60973 0.74207 0.0
O436 O 0.03994 0.61696 0.73586 0.0
O437 O 0.00599 0.58259 0.68566 0.0
O438 O 0.02868 0.57737 0.64485 0.0
C439 C 0.03584 0.55195 0.75946 0.0
O440 O 0.00394 0.57638 0.82165 0.0
O441 O 0.03325 0.58897 0.86459 0.0
In442 In 0.40921 0.44477 0.75633 0.0
O443 O 0.40757 0.41993 0.82375 0.0
O444 O 0.41225 0.44721 0.86746 0.0
C445 C 0.41796 0.43601 0.63749 0.0
C446 C 0.44024 0.48262 0.763 0.0
C447 C 0.37001 0.43237 0.73695 0.0
O448 O 0.42106 0.42884 0.68937 0.0
O449 O 0.41066 0.44745 0.64569 0.0
O450 O 0.38288 0.45088 0.74485 0.0
O451 O 0.37669 0.42031 0.74279 0.0
C452 C 0.41045 0.42999 0.87584 0.0
O453 O 0.42209 0.4788 0.76623 0.0
O454 O 0.44264 0.46746 0.75704 0.0
In455 In 0.54916 0.96521 0.75567 0.0
O456 O 0.56396 0.99132 0.82935 0.0
O457 O 0.55619 0.96181 0.86219 0.0
C458 C 0.55816 0.98399 0.63887 0.0
C459 C 0.51061 0.9558 0.77369 0.0
C460 C 0.56291 0.94045 0.72089 0.0
O461 O 0.56938 0.99188 0.68854 0.0
O462 O 0.54244 0.96711 0.64864 0.0
O463 O 0.54421 0.93399 0.72905 0.0
O464 O 0.57451 0.95897 0.73358 0.0
C465 C 0.56305 0.98018 0.87666 0.0
O466 O 0.51603 0.94271 0.78092 0.0
O467 O 0.52453 0.97328 0.75818 0.0
C468 C 0.13046 0.28847 0.17986 0.0
C469 C 0.11754 0.27936 0.12531 0.0
C470 C 0.13995 0.26774 0.08226 0.0
C471 C 0.15388 0.27855 0.13343 0.0
N472 N 0.16122 0.29561 0.23769 0.0
N473 N 0.10656 0.25586 0.03517 0.0
C474 C 0.14863 0.28766 0.18478 0.0
C475 C 0.12108 0.26731 0.08034 0.0
N476 N 0.1254 0.2983 0.22574 0.0
N477 N 0.14544 0.25928 0.03289 0.0
H478 H 0.0928 0.25565 0.03194 0.0
H479 H 0.1073 0.24532 0.00458 0.0
H480 H 0.15897 0.259 0.03303 0.0
H481 H 0.13714 0.25337 0.99001 0.0
H482 H 0.13481 0.3071 0.26364 0.0
H483 H 0.11139 0.29765 0.22552 0.0
H484 H 0.15807 0.30152 0.27909 0.0
H485 H 0.17469 0.29531 0.24173 0.0
C486 C 0.70574 0.84291 0.1663 0.0
C487 C 0.71229 0.83748 0.10869 0.0
C488 C 0.7222 0.87047 0.05966 0.0
C489 C 0.71233 0.87427 0.11208 0.0
N490 N 0.69584 0.86544 0.21742 0.0
N491 N 0.72681 0.84549 1.00013 0.0
C492 C 0.70465 0.86097 0.16655 0.0
C493 C 0.721 0.85128 0.05578 0.0
N494 N 0.70078 0.8308 0.22063 0.0
N495 N 0.73228 0.88502 0.01306 0.0
H496 H 0.72651 0.83171 0.99599 0.0
H497 H 0.73089 0.85377 0.95666 0.0
H498 H 0.73294 0.89902 0.01356 0.0
H499 H 0.74139 0.88397 0.97699 0.0
H500 H 0.69722 0.83447 0.26601 0.0
H501 H 0.70188 0.81769 0.22172 0.0
H502 H 0.68769 0.85535 0.25492 0.0
H503 H 0.69619 0.87928 0.22096 0.0
C504 C 0.13067 0.84608 0.16865 0.0
C505 C 0.12112 0.83664 0.10885 0.0
C506 C 0.14798 0.86424 0.0455 0.0
C507 C 0.1583 0.87298 0.10505 0.0
N508 N 0.15857 0.87513 0.22287 0.0
N509 N 0.11736 0.83842 0.99224 0.0
C510 C 0.14923 0.86489 0.16669 0.0
C511 C 0.12873 0.84635 0.04776 0.0
N512 N 0.12228 0.83661 0.22676 0.0
N513 N 0.157 0.87275 0.98691 0.0
H514 H 0.10309 0.8254 0.9929 0.0
H515 H 0.12115 0.84542 0.94652 0.0
H516 H 0.17045 0.88661 0.98373 0.0
H517 H 0.15164 0.86593 0.94147 0.0
H518 H 0.12928 0.84136 0.27223 0.0
H519 H 0.10814 0.82345 0.22929 0.0
H520 H 0.15236 0.87091 0.26958 0.0
H521 H 0.17229 0.88879 0.22243 0.0
C522 C 0.26675 0.12427 0.93326 0.0
C523 C 0.27824 0.12032 0.88693 0.0
C524 C 0.28909 0.15279 0.83297 0.0
C525 C 0.2781 0.15711 0.88035 0.0
N526 N 0.25267 0.14536 0.96545 0.0
N527 N 0.29512 0.12746 0.78241 0.0
C528 C 0.26545 0.14218 0.92664 0.0
C529 C 0.28769 0.13353 0.83328 0.0
N530 N 0.25837 0.11175 0.98616 0.0
N531 N 0.30143 0.16738 0.7892 0.0
H532 H 0.2939 0.11319 0.781 0.0
H533 H 0.30066 0.13561 0.73901 0.0
H534 H 0.30218 0.18138 0.78555 0.0
H535 H 0.31173 0.16608 0.75893 0.0
H536 H 0.25205 0.11514 0.02602 0.0
H537 H 0.25883 0.09841 0.99248 0.0
H538 H 0.24163 0.13422 0.9953 0.0
H539 H 0.2519 0.15862 0.96401 0.0
C540 C 0.84556 0.13054 0.84388 0.0
C541 C 0.83596 0.12272 0.9051 0.0
C542 C 0.86334 0.15146 0.96296 0.0
C543 C 0.87276 0.15956 0.9017 0.0
N544 N 0.8758 0.1553 0.78599 0.0
N545 N 0.8376 0.12252 0.02307 0.0
C546 C 0.86487 0.1485 0.84276 0.0
C547 C 0.84549 0.13219 0.96479 0.0
N548 N 0.83574 0.12137 0.78697 0.0
N549 N 0.87115 0.1625 0.01911 0.0
H550 H 0.82467 0.10822 0.02574 0.0
H551 H 0.84473 0.12771 0.06821 0.0
H552 H 0.88494 0.17605 0.02027 0.0
H553 H 0.86361 0.15877 0.06398 0.0
H554 H 0.84079 0.12754 0.74054 0.0
H555 H 0.8218 0.10795 0.78632 0.0
H556 H 0.87177 0.14714 0.74229 0.0
H557 H 0.88992 0.1685 0.78396 0.0
C558 C 0.85014 0.72213 0.9449 0.0
C559 C 0.83593 0.71206 0.89379 0.0
C560 C 0.85893 0.70263 0.84128 0.0
C561 C 0.8728 0.71204 0.89361 0.0
N562 N 0.88428 0.73485 0.98599 0.0
N563 N 0.82845 0.69733 0.78573 0.0
C564 C 0.86936 0.72334 0.94201 0.0
C565 C 0.8409 0.70378 0.8394 0.0
N566 N 0.84473 0.72917 0.99849 0.0
N567 N 0.86286 0.69221 0.7944 0.0
H568 H 0.81533 0.69838 0.78273 0.0
H569 H 0.83189 0.69261 0.74211 0.0
H570 H 0.87665 0.69243 0.79172 0.0
H571 H 0.85234 0.68283 0.75963 0.0
H572 H 0.85339 0.73432 0.04106 0.0
H573 H 0.83086 0.72866 1.00259 0.0
H574 H 0.8835 0.74505 0.01816 0.0
H575 H 0.89828 0.73553 0.98679 0.0
C576 C 0.81914 0.62523 0.5101 0.0
C577 C 0.82296 0.61412 0.46205 0.0
C578 C 0.78893 0.60139 0.41672 0.0
C579 C 0.7868 0.61545 0.45667 0.0
N580 N 0.79931 0.64057 0.54271 0.0
N581 N 0.81204 0.59207 0.3674 0.0
C582 C 0.80163 0.62713 0.50443 0.0
C583 C 0.80782 0.60187 0.41572 0.0
N584 N 0.83235 0.63392 0.5612 0.0
N585 N 0.77316 0.58802 0.3784 0.0
H586 H 0.8256 0.5919 0.36471 0.0
H587 H 0.80266 0.58515 0.32721 0.0
H588 H 0.75941 0.58782 0.37547 0.0
H589 H 0.77304 0.57601 0.35362 0.0
H590 H 0.82957 0.64057 0.6015 0.0
H591 H 0.8454 0.63287 0.56607 0.0
H592 H 0.81067 0.65135 0.57254 0.0
H593 H 0.78621 0.64167 0.5423 0.0
C594 C 0.36747 0.17684 0.50093 0.0
C595 C 0.37809 0.17229 0.45288 0.0
C596 C 0.38965 0.20513 0.39989 0.0
C597 C 0.37811 0.2091 0.4459 0.0
N598 N 0.3613 0.20226 0.55034 0.0
N599 N 0.40345 0.18382 0.36751 0.0
C600 C 0.36878 0.19607 0.49999 0.0
C601 C 0.3908 0.18714 0.40647 0.0
N602 N 0.35551 0.16245 0.54582 0.0
N603 N 0.39823 0.21776 0.34732 0.0
H604 H 0.40417 0.17054 0.36907 0.0
H605 H 0.41448 0.19487 0.3374 0.0
H606 H 0.39804 0.23125 0.34155 0.0
H607 H 0.40458 0.2144 0.30746 0.0
H608 H 0.34544 0.16383 0.57695 0.0
H609 H 0.35498 0.14856 0.54991 0.0
H610 H 0.35572 0.19425 0.59395 0.0
H611 H 0.36244 0.2165 0.55092 0.0
C612 C 0.8186 0.19312 0.4983 0.0
C613 C 0.8224 0.20616 0.44417 0.0
C614 C 0.78831 0.18352 0.40169 0.0
C615 C 0.78611 0.16884 0.44885 0.0
N616 N 0.79859 0.15934 0.5433 0.0
N617 N 0.81144 0.21433 0.34348 0.0
C618 C 0.801 0.17365 0.49813 0.0
C619 C 0.80723 0.20179 0.39639 0.0
N620 N 0.83186 0.19955 0.54985 0.0
N621 N 0.77256 0.17976 0.36091 0.0
H622 H 0.82498 0.22802 0.33847 0.0
H623 H 0.80207 0.21072 0.30262 0.0
H624 H 0.75878 0.16621 0.36141 0.0
H625 H 0.77252 0.19064 0.33011 0.0
H626 H 0.82929 0.1915 0.59346 0.0
H627 H 0.8447 0.21397 0.55129 0.0
H628 H 0.80992 0.16098 0.57549 0.0
H629 H 0.78544 0.14524 0.54655 0.0
C630 C 0.96492 0.49092 0.29734 0.0
C631 C 0.95592 0.49597 0.24541 0.0
C632 C 0.94522 0.4631 0.19352 0.0
C633 C 0.9563 0.45916 0.24169 0.0
N634 N 0.97981 0.47115 0.33323 0.0
N635 N 0.93961 0.48827 0.1395 0.0
C636 C 0.96714 0.47363 0.29159 0.0
C637 C 0.94643 0.48237 0.19245 0.0
N638 N 0.97056 0.50215 0.35377 0.0
N639 N 0.93386 0.44863 0.14807 0.0
H640 H 0.94023 0.50223 0.13683 0.0
H641 H 0.93474 0.48005 0.096 0.0
H642 H 0.93391 0.43502 0.14352 0.0
H643 H 0.92354 0.44962 0.11702 0.0
H644 H 0.97513 0.49787 0.3961 0.0
H645 H 0.96851 0.51455 0.361 0.0
H646 H 0.98986 0.4825 0.36476 0.0
H647 H 0.98166 0.45853 0.33315 0.0
C648 C 0.53325 0.48135 0.28806 0.0
C649 C 0.53839 0.4942 0.23242 0.0
C650 C 0.50603 0.47096 0.18029 0.0
C651 C 0.50088 0.45811 0.23591 0.0
N652 N 0.51047 0.44867 0.33702 0.0
N653 N 0.53225 0.49973 0.12053 0.0
C654 C 0.51488 0.46246 0.28773 0.0
C655 C 0.52554 0.48851 0.17686 0.0
N656 N 0.54528 0.48778 0.34273 0.0
N657 N 0.49211 0.46655 0.1315 0.0
H658 H 0.54664 0.5125 0.11648 0.0
H659 H 0.52442 0.49554 0.07623 0.0
H660 H 0.47814 0.45317 0.13038 0.0
H661 H 0.49392 0.47649 0.09364 0.0
H662 H 0.54113 0.48035 0.38775 0.0
H663 H 0.55901 0.50138 0.34467 0.0
H664 H 0.52091 0.44994 0.37233 0.0
H665 H 0.49674 0.43509 0.34016 0.0
C666 C 0.53511 0.05846 0.27536 0.0
C667 C 0.53865 0.04749 0.22599 0.0
C668 C 0.50741 0.04046 0.16963 0.0
C669 C 0.50243 0.04875 0.22395 0.0
N670 N 0.51062 0.06486 0.33025 0.0
N671 N 0.52916 0.02859 0.12488 0.0
C672 C 0.5162 0.05794 0.27674 0.0
C673 C 0.52515 0.03879 0.17236 0.0
N674 N 0.54965 0.06905 0.32149 0.0
N675 N 0.49529 0.03454 0.11516 0.0
H676 H 0.5428 0.0285 0.12277 0.0
H677 H 0.51885 0.01969 0.0889 0.0
H678 H 0.48233 0.03586 0.11163 0.0
H679 H 0.4988 0.02989 0.07154 0.0
H680 H 0.54892 0.07906 0.35461 0.0
H681 H 0.56335 0.06911 0.32358 0.0
H682 H 0.51882 0.06936 0.37384 0.0
H683 H 0.497 0.06493 0.33304 0.0
C684 C 0.45652 0.94091 0.73581 0.0
C685 C 0.45378 0.95348 0.78118 0.0
C686 C 0.48654 0.96352 0.83195 0.0
C687 C 0.48975 0.95174 0.78465 0.0
N688 N 0.47618 0.92531 0.7029 0.0
N689 N 0.46318 0.97243 0.88206 0.0
C690 C 0.47407 0.93893 0.74085 0.0
C691 C 0.46785 0.96334 0.83258 0.0
N692 N 0.44323 0.93218 0.68489 0.0
N693 N 0.50171 0.97546 0.87469 0.0
H694 H 0.44966 0.97271 0.88315 0.0
H695 H 0.47178 0.9782 0.92452 0.0
H696 H 0.51514 0.97504 0.87828 0.0
H697 H 0.50146 0.98638 0.9047 0.0
H698 H 0.44575 0.92504 0.64545 0.0
H699 H 0.43014 0.93313 0.67949 0.0
H700 H 0.46449 0.91415 0.67501 0.0
H701 H 0.48914 0.92398 0.70336 0.0
C702 C 0.03331 0.52222 0.69939 0.0
C703 C 0.03828 0.5339 0.75777 0.0
C704 C 0.04234 0.50813 0.81702 0.0
C705 C 0.03718 0.49642 0.7587 0.0
N706 N 0.03291 0.49425 0.64134 0.0
N707 N 0.05103 0.54023 0.86863 0.0
C708 C 0.03421 0.50407 0.69891 0.0
C709 C 0.04409 0.52764 0.81539 0.0
N710 N 0.02741 0.52832 0.64466 0.0
N711 N 0.04446 0.50012 0.87451 0.0
H712 H 0.05167 0.55422 0.87008 0.0
H713 H 0.05744 0.53753 0.90973 0.0
H714 H 0.04378 0.48614 0.87694 0.0
H715 H 0.04581 0.50672 0.92032 0.0
H716 H 0.02096 0.51919 0.6036 0.0
H717 H 0.02802 0.54226 0.64127 0.0
H718 H 0.03265 0.49997 0.59519 0.0
H719 H 0.03409 0.48121 0.6392 0.0
C720 C 0.46408 0.51552 0.81766 0.0
C721 C 0.45762 0.50341 0.76014 0.0
C722 C 0.48656 0.52954 0.69914 0.0
C723 C 0.49457 0.54014 0.7587 0.0
N724 N 0.49148 0.54411 0.87465 0.0
N725 N 0.46209 0.49841 0.64572 0.0
C726 C 0.48331 0.53359 0.81788 0.0
C727 C 0.46863 0.51035 0.70059 0.0
N728 N 0.45192 0.50958 0.87201 0.0
N729 N 0.49584 0.53821 0.64103 0.0
H730 H 0.44817 0.48501 0.64322 0.0
H731 H 0.47079 0.50125 0.60349 0.0
H732 H 0.50866 0.55259 0.63841 0.0
H733 H 0.4899 0.53217 0.59514 0.0
H734 H 0.45475 0.51857 0.91349 0.0
H735 H 0.43811 0.49605 0.87417 0.0
H736 H 0.48533 0.53893 0.92101 0.0
H737 H 0.50511 0.55784 0.87583 0.0
C738 C 0.60685 0.81308 0.62351 0.0
C739 C 0.60832 0.82311 0.56345 0.0
C740 C 0.60942 0.79615 0.50172 0.0
C741 C 0.60987 0.78718 0.56215 0.0
N742 N 0.60356 0.78326 0.67838 0.0
N743 N 0.60569 0.82237 0.44592 0.0
C744 C 0.60672 0.7944 0.62247 0.0
C745 C 0.60774 0.81393 0.5025 0.0
N746 N 0.60638 0.82191 0.68139 0.0
N747 N 0.61141 0.78807 0.44424 0.0
H748 H 0.60414 0.83523 0.44609 0.0
H749 H 0.60401 0.81598 0.3996 0.0
H750 H 0.61146 0.77441 0.44255 0.0
H751 H 0.61344 0.79494 0.3986 0.0
H752 H 0.60787 0.81689 0.7274 0.0
H753 H 0.60491 0.8348 0.68322 0.0
H754 H 0.59971 0.78677 0.7235 0.0
H755 H 0.60318 0.76938 0.67846 0.0
C756 C 0.17973 0.79473 0.52524 0.0
C757 C 0.16863 0.78787 0.58461 0.0
C758 C 0.19442 0.81758 0.64296 0.0
C759 C 0.20574 0.82446 0.58395 0.0
N760 N 0.21139 0.8184 0.47185 0.0
N761 N 0.16764 0.78943 0.70249 0.0
C762 C 0.1992 0.81251 0.52609 0.0
C763 C 0.17672 0.79827 0.64433 0.0
N764 N 0.17116 0.78493 0.46773 0.0
N765 N 0.2002 0.82979 0.69714 0.0
H766 H 0.15491 0.77499 0.7051 0.0
H767 H 0.17384 0.79539 0.74825 0.0
H768 H 0.21343 0.84382 0.69879 0.0
H769 H 0.19122 0.82668 0.73885 0.0
H770 H 0.17738 0.79046 0.42167 0.0
H771 H 0.15707 0.77171 0.4657 0.0
H772 H 0.20838 0.80943 0.4302 0.0
H773 H 0.22537 0.83175 0.47012 0.0
C774 C 0.19791 0.37748 0.51805 0.0
C775 C 0.20882 0.38231 0.57785 0.0
C776 C 0.18519 0.39119 0.62854 0.0
C777 C 0.17363 0.38515 0.56995 0.0
N778 N 0.17184 0.37903 0.45397 0.0
N779 N 0.21631 0.39833 0.68403 0.0
C780 C 0.18099 0.38042 0.51291 0.0
C781 C 0.20368 0.39087 0.63102 0.0
N782 N 0.20331 0.36943 0.46726 0.0
N783 N 0.17789 0.39604 0.68267 0.0
H784 H 0.22974 0.39789 0.6876 0.0
H785 H 0.21439 0.40634 0.72204 0.0
H786 H 0.16485 0.39723 0.68148 0.0
H787 H 0.18418 0.39808 0.7293 0.0
H788 H 0.19457 0.36334 0.42523 0.0
H789 H 0.21623 0.368 0.46849 0.0
H790 H 0.17723 0.37701 0.4093 0.0
H791 H 0.1599 0.38195 0.44937 0.0
C792 C 0.00339 0.24626 0.04135 0.0
C793 C 0.01789 0.26563 0.01717 0.0
C794 C 0.99468 0.26252 0.92886 0.0
C795 C 0.97934 0.24442 0.95772 0.0
N796 N 0.968 0.2205 0.04782 0.0
N797 N 0.02652 0.29359 0.94267 0.0
C798 C 0.98341 0.23649 0.01528 0.0
C799 C 0.01328 0.27421 0.96247 0.0
N800 N 0.00857 0.23731 0.08993 0.0
N801 N 0.99173 0.26812 0.8679 0.0
H802 H 0.04082 0.30254 0.96309 0.0
H803 H 0.02279 0.30136 0.90849 0.0
H804 H 0.97846 0.25955 0.84098 0.0
H805 H 0.00312 0.28 0.84113 0.0
H806 H -0.00051 0.22221 0.10367 0.0
H807 H 0.02252 0.24457 0.11391 0.0
H808 H 0.96965 0.21575 0.09417 0.0
H809 H 0.95303 0.213 0.0317 0.0
C810 C 0.76215 0.74854 0.02797 0.0
C811 C 0.75646 0.73923 0.96519 0.0
C812 C 0.73204 0.75094 0.95327 0.0
C813 C 0.73526 0.75711 0.01995 0.0
N814 N 0.75266 0.76139 0.12248 0.0
N815 N 0.73616 0.73135 0.86721 0.0
C816 C 0.75036 0.75612 0.05758 0.0
C817 C 0.7415 0.74046 0.92743 0.0
N818 N 0.77866 0.74999 0.05946 0.0
N819 N 0.7205 0.75579 0.91413 0.0
H820 H 0.74389 0.72494 0.84445 0.0
H821 H 0.72356 0.72936 0.84107 0.0
H822 H 0.71393 0.76409 0.93105 0.0
H823 H 0.71902 0.75337 0.86365 0.0
H824 H 0.78472 0.75834 0.10223 0.0
H825 H 0.78742 0.74425 0.04022 0.0
H826 H 0.76165 0.75872 0.15477 0.0
H827 H 0.74444 0.76723 0.14544 0.0
C828 C 0.23474 0.98996 0.04771 0.0
C829 C 0.24072 0.97624 0.02404 0.0
C830 C 0.26107 0.0004 0.93823 0.0
C831 C 0.25751 0.01514 0.96765 0.0
N832 N 0.2428 0.0249 0.05567 0.0
N833 N 0.26147 0.96912 0.95099 0.0
C834 C 0.2446 0.01016 0.0233 0.0
C835 C 0.25446 0.98166 0.97058 0.0
N836 N 0.21987 0.98382 0.09419 0.0
N837 N 0.27018 0.00407 0.87801 0.0
H838 H 0.25648 0.9548 0.97083 0.0
H839 H 0.27333 0.97347 0.91778 0.0
H840 H 0.27461 0.01743 0.85191 0.0
H841 H 0.27135 0.99312 0.85086 0.0
H842 H 0.21319 0.99233 0.10757 0.0
H843 H 0.2132 0.96959 0.11639 0.0
H844 H 0.23571 0.02265 0.10105 0.0
H845 H 0.24976 0.03993 0.04022 0.0
C846 C 0.98026 0.72581 0.05009 0.0
C847 C 0.97628 0.73273 0.99012 0.0
C848 C 0.01174 0.75968 0.98356 0.0
C849 C 0.01542 0.75341 0.04531 0.0
N850 N 0.00243 0.73378 0.1442 0.0
N851 N 0.98697 0.75823 0.90571 0.0
C852 C -0.00057 0.73743 0.08061 0.0
C853 C 0.99159 0.75043 0.95909 0.0
N854 N 0.96589 0.70797 0.07749 0.0
N855 N 0.02758 0.77339 0.94605 0.0
H856 H 0.97261 0.75128 0.88433 0.0
H857 H -0.00306 0.77234 0.88561 0.0
H858 H 0.04265 0.78026 0.96101 0.0
H859 H 0.026 0.77669 0.89756 0.0
H860 H 0.96881 0.70099 0.11657 0.0
H861 H 0.95131 0.69931 0.05872 0.0
H862 H 0.99081 0.72373 0.17493 0.0
H863 H 0.01621 0.74233 0.16849 0.0
C864 C 0.23574 0.22889 0.98778 0.0
C865 C 0.25699 0.23995 0.97651 0.0
C866 C 0.25805 0.27042 0.0185 0.0
C867 C 0.23764 0.25882 0.03992 0.0
N868 N 0.20826 0.22564 0.056 0.0
N869 N 0.28898 0.26979 0.0045 0.0
C870 C 0.22675 0.23762 0.02774 0.0
C871 C 0.26838 0.26028 0.99871 0.0
N872 N 0.22399 0.21049 0.95867 0.0
N873 N 0.26742 0.29104 0.01342 0.0
H874 H 0.29728 0.26245 0.99751 0.0
H875 H 0.29744 0.28417 0.0252 0.0
H876 H 0.25996 0.29921 0.02041 0.0
H877 H 0.28187 0.29966 0.99327 0.0
H878 H 0.20821 0.20276 0.96089 0.0
H879 H 0.22978 0.20403 0.92642 0.0
H880 H 0.20063 0.20988 0.0531 0.0
H881 H 0.2016 0.23123 0.08823 0.0
C882 C 0.75975 0.0117 0.03156 0.0
C883 C 0.75412 0.01576 0.96929 0.0
C884 C 0.72667 0.98064 0.9609 0.0
C885 C 0.73278 0.97637 0.02189 0.0
N886 N 0.75731 0.9864 0.10909 0.0
N887 N 0.73572 0.00344 0.868 0.0
C888 C 0.75016 0.99142 0.05495 0.0
C889 C 0.73862 -1e-05 0.9319 0.0
N890 N 0.77317 0.0273 0.07043 0.0
N891 N 0.70922 0.96637 0.93127 0.0
H892 H 0.74455 0.01741 0.84499 0.0
H893 H 0.72601 0.99207 0.83597 0.0
H894 H 0.70033 0.95173 0.94943 0.0
H895 H 0.70276 0.96941 0.89096 0.0
H896 H 0.77595 0.02544 0.11925 0.0
H897 H 0.78039 0.04244 0.05602 0.0
H898 H 0.77118 0.99622 0.13096 0.0
H899 H 0.75013 0.97187 0.12926 0.0
C900 C 0.64783 0.57346 0.37431 0.0
C901 C 0.64536 0.56907 0.30623 0.0
C902 C 0.68124 0.57947 0.29672 0.0
C903 C 0.68431 0.58757 0.3612 0.0
N904 N 0.67086 0.59161 0.46351 0.0
N905 N 0.65908 0.5674 0.20158 0.0
C906 C 0.66764 0.58419 0.40088 0.0
C907 C 0.66182 0.57158 0.26724 0.0
N908 N 0.63116 0.56691 0.41359 0.0
N909 N 0.69683 0.57944 0.26373 0.0
H910 H 0.64491 0.56113 0.17907 0.0
H911 H 0.67091 0.57119 0.16875 0.0
H912 H 0.7112 0.58505 0.28392 0.0
H913 H 0.69511 0.57225 0.21883 0.0
H914 H 0.63181 0.56807 0.46454 0.0
H915 H 0.61643 0.55852 0.39561 0.0
H916 H 0.65975 0.59207 0.49198 0.0
H917 H 0.685 0.59809 0.48632 0.0
C918 C 0.43048 0.08975 0.34645 0.0
C919 C 0.42363 0.07871 0.28671 0.0
C920 C 0.39533 0.08522 0.28212 0.0
C921 C 0.40197 0.09602 0.34226 0.0
N922 N 0.42805 0.11267 0.4239 0.0
N923 N 0.40344 0.07075 0.18886 0.0
C924 C 0.42039 0.09979 0.37153 0.0
C925 C 0.40726 0.078 0.25175 0.0
N926 N 0.44562 0.08948 0.38162 0.0
N927 N 0.37739 0.08144 0.25477 0.0
H928 H 0.41229 0.06577 0.16502 0.0
H929 H 0.39293 0.07152 0.15815 0.0
H930 H 0.3687 0.08734 0.27344 0.0
H931 H 0.37051 0.07155 0.21564 0.0
H932 H 0.44942 0.09493 0.4294 0.0
H933 H 0.45363 0.08258 0.36512 0.0
H934 H 0.44247 0.11776 0.44294 0.0
H935 H 0.4206 0.11956 0.44532 0.0
C936 C 0.90569 0.31029 0.27177 0.0
C937 C 0.89605 0.30651 0.33397 0.0
C938 C 0.90444 0.34186 0.34224 0.0
C939 C 0.9147 0.34578 0.28104 0.0
N940 N 0.92069 0.33344 0.17993 0.0
N941 N 0.88161 0.3167 0.42049 0.0
C942 C 0.91382 0.32981 0.24324 0.0
C943 C 0.8938 0.32166 0.36643 0.0
N944 N 0.90773 0.29543 0.24127 0.0
N945 N 0.90602 0.35755 0.37925 0.0
H946 H 0.87392 0.30203 0.43967 0.0
H947 H 0.87774 0.32657 0.4429 0.0
H948 H 0.91325 0.3725 0.36286 0.0
H949 H 0.90114 0.35599 0.42772 0.0
H950 H 0.91667 0.29784 0.1999 0.0
H951 H 0.9012 0.28071 0.25936 0.0
H952 H 0.91901 0.32217 0.14741 0.0
H953 H 0.92647 0.34766 0.15797 0.0
C954 C 0.66714 0.0859 0.39831 0.0
C955 C 0.68332 0.08869 0.35734 0.0
C956 C 0.66029 0.07498 0.26329 0.0
C957 C 0.6438 0.06994 0.3061 0.0
N958 N 0.63084 0.06849 0.41543 0.0
N959 N 0.69603 0.0861 0.25155 0.0
C960 C 0.64702 0.07506 0.3738 0.0
C961 C 0.68012 0.08338 0.28984 0.0
N962 N 0.67105 0.09361 0.4606 0.0
N963 N 0.65696 0.07216 0.19716 0.0
H964 H 0.71097 0.09353 0.26815 0.0
H965 H 0.69445 0.08028 0.20435 0.0
H966 H 0.64256 0.0661 0.17639 0.0
H967 H 0.66845 0.0772 0.16231 0.0
H968 H 0.66019 0.09399 0.49063 0.0
H969 H 0.68561 0.10118 0.48053 0.0
H970 H 0.63218 0.06955 0.46631 0.0
H971 H 0.61583 0.06054 0.3997 0.0
C972 C 0.89855 0.57216 0.38316 0.0
C973 C 0.90173 0.5905 0.35468 0.0
C974 C 0.92006 0.58611 0.26328 0.0
C975 C 0.92008 0.57 0.29761 0.0
N976 N 0.91013 0.54789 0.39224 0.0
N977 N 0.91626 0.61569 0.26859 0.0
C978 C 0.90918 0.56274 0.35746 0.0
C979 C 0.91259 0.59764 0.29474 0.0
N980 N 0.88575 0.56398 0.43549 0.0
N981 N 0.92689 0.59009 0.19994 0.0
H982 H 0.91045 0.62434 0.28827 0.0
H983 H 0.92616 0.6228 0.22962 0.0
H984 H 0.93202 0.5815 0.17526 0.0
H985 H 0.92551 0.60037 0.1698 0.0
H986 H 0.88106 0.54953 0.45371 0.0
H987 H 0.87857 0.57101 0.45787 0.0
H988 H 0.90484 0.54395 0.44014 0.0
H989 H 0.91738 0.54028 0.37526 0.0
C990 C 0.40784 0.33463 0.25693 0.0
C991 C 0.42276 0.35029 0.29617 0.0
C992 C 0.41863 0.32548 0.38029 0.0
C993 C 0.40149 0.3106 0.34596 0.0
N994 N 0.37891 0.30074 0.25279 0.0
N995 N 0.44164 0.36129 0.39775 0.0
C996 C 0.39592 0.31505 0.28431 0.0
C997 C 0.42829 0.3459 0.35811 0.0
N998 N 0.40539 0.33851 0.19306 0.0
N999 N 0.4255 0.32014 0.43442 0.0
H1000 H 0.44908 0.37647 0.3838 0.0
H1001 H 0.44431 0.3592 0.44646 0.0
H1002 H 0.41834 0.3054 0.453 0.0
H1003 H 0.43915 0.32985 0.45763 0.0
H1004 H 0.3961 0.32732 0.1598 0.0
H1005 H 0.41423 0.35271 0.17144 0.0
H1006 H 0.37273 0.30381 0.21178 0.0
H1007 H 0.37013 0.28598 0.26999 0.0
C1008 C 0.32 0.90026 0.67631 0.0
C1009 C 0.31503 0.90641 0.61649 0.0
C1010 C 0.3494 0.93542 0.60895 0.0
C1011 C 0.35436 0.9293 0.66869 0.0
N1012 N 0.3463 0.90366 0.75105 0.0
N1013 N 0.32598 0.92629 0.51763 0.0
C1014 C 0.34032 0.91085 0.6993 0.0
C1015 C 0.3301 0.9229 0.58018 0.0
N1016 N 0.30513 0.88537 0.71389 0.0
N1017 N 0.36298 0.95343 0.58043 0.0
H1018 H 0.31203 0.91705 0.495 0.0
H1019 H 0.33683 0.93689 0.486 0.0
H1020 H 0.37765 0.96256 0.59797 0.0
H1021 H 0.35939 0.95992 0.54149 0.0
H1022 H 0.30744 0.88218 0.76175 0.0
H1023 H 0.29002 0.87705 0.69963 0.0
H1024 H 0.33742 0.8892 0.7706 0.0
H1025 H 0.36079 0.91148 0.77126 0.0
C1026 C 0.07941 0.41869 0.72148 0.0
C1027 C 0.06516 0.42053 0.68188 0.0
C1028 C 0.07305 0.40547 0.58836 0.0
C1029 C 0.08731 0.40357 0.62782 0.0
N1030 N 0.10705 0.4116 0.7275 0.0
N1031 N 0.052 0.42078 0.57465 0.0
C1032 C 0.09157 0.41138 0.69287 0.0
C1033 C 0.06307 0.41547 0.61428 0.0
N1034 N 0.08057 0.42296 0.78707 0.0
N1035 N 0.06877 0.39737 0.5266 0.0
H1036 H 0.04485 0.42849 0.59208 0.0
H1037 H 0.05135 0.41923 0.52382 0.0
H1038 H 0.07666 0.39101 0.50456 0.0
H1039 H 0.05674 0.39598 0.49843 0.0
H1040 H 0.0888 0.41962 0.82053 0.0
H1041 H 0.07224 0.42883 0.80915 0.0
H1042 H 0.1123 0.419 0.77222 0.0
H1043 H 0.11577 0.40563 0.70956 0.0
C1044 C 0.57813 0.66218 0.73212 0.0
C1045 C 0.5745 0.64585 0.69049 0.0
C1046 C 0.58683 0.66864 0.59552 0.0
C1047 C 0.59272 0.68526 0.63846 0.0
N1048 N 0.59584 0.69856 0.74813 0.0
N1049 N 0.57548 0.63289 0.58332 0.0
C1050 C 0.58865 0.68224 0.70687 0.0
C1051 C 0.57877 0.64888 0.62224 0.0
N1052 N 0.57145 0.65845 0.79564 0.0
N1053 N 0.58849 0.67178 0.52913 0.0
H1054 H 0.56835 0.61799 0.60019 0.0
H1055 H 0.58063 0.6344 0.53521 0.0
H1056 H 0.59429 0.68613 0.50817 0.0
H1057 H 0.58268 0.66017 0.49459 0.0
H1058 H 0.57172 0.66942 0.82673 0.0
H1059 H 0.56409 0.64391 0.81586 0.0
H1060 H 0.59557 0.6974 0.79907 0.0
H1061 H 0.60345 0.71352 0.73171 0.0
C1062 C 0.33328 0.41023 0.75787 0.0
C1063 C 0.3488 0.42494 0.71771 0.0
C1064 C 0.32384 0.42001 0.63321 0.0
C1065 C 0.30904 0.40316 0.66894 0.0
N1066 N 0.29939 0.38131 0.76398 0.0
N1067 N 0.35959 0.44302 0.6147 0.0
C1068 C 0.31363 0.39808 0.7312 0.0
C1069 C 0.34428 0.42992 0.65509 0.0
N1070 N 0.33735 0.40818 0.82189 0.0
N1071 N 0.31839 0.42637 0.57813 0.0
H1072 H 0.37477 0.45071 0.62865 0.0
H1073 H 0.35745 0.44525 0.56559 0.0
H1074 H 0.30364 0.41901 0.55974 0.0
H1075 H 0.32804 0.43982 0.55375 0.0
H1076 H 0.32628 0.39907 0.85577 0.0
H1077 H 0.35162 0.41715 0.84289 0.0
H1078 H 0.30252 0.37545 0.80567 0.0
H1079 H 0.28459 0.37239 0.74724 0.0
C1080 C 0.57401 0.90711 0.60901 0.0
C1081 C 0.59119 0.90868 0.64135 0.0
C1082 C 0.58638 0.92685 0.73237 0.0
C1083 C 0.57099 0.92769 0.69607 0.0
N1084 N 0.55191 0.92117 0.59542 0.0
N1085 N 0.61537 0.92202 0.73051 0.0
C1086 C 0.56505 0.9183 0.63346 0.0
C1087 C 0.59787 0.91913 0.7021 0.0
N1088 N 0.56642 0.89516 0.55455 0.0
N1089 N 0.58955 0.93283 0.79665 0.0
H1090 H 0.62399 0.91607 0.71158 0.0
H1091 H 0.62219 0.93156 0.77048 0.0
H1092 H 0.58102 0.9381 0.82091 0.0
H1093 H 0.59912 0.93063 0.82778 0.0
H1094 H 0.55263 0.89164 0.53318 0.0
H1095 H 0.57318 0.88754 0.53343 0.0
H1096 H 0.54887 0.91667 0.54654 0.0
H1097 H 0.54527 0.92957 0.61061 0.0
C1098 C 0.08187 0.64775 0.64756 0.0
C1099 C 0.07302 0.644 0.71111 0.0
C1100 C 0.0852 0.68018 0.72527 0.0
C1101 C 0.09083 0.68327 0.65811 0.0
N1102 N 0.09461 0.67057 0.55408 0.0
N1103 N 0.06649 0.65623 0.81196 0.0
C1104 C 0.08954 0.66729 0.61911 0.0
C1105 C 0.07492 0.66016 0.75065 0.0
N1106 N 0.08269 0.63262 0.61418 0.0
N1107 N 0.09017 0.69648 0.76496 0.0
H1108 H 0.06027 0.64198 0.834 0.0
H1109 H 0.06493 0.66678 0.84 0.0
H1110 H 0.09809 0.71138 0.74802 0.0
H1111 H 0.08811 0.69548 0.81561 0.0
H1112 H 0.09063 0.63488 0.57052 0.0
H1113 H 0.07676 0.61798 0.63252 0.0
H1114 H 0.09171 0.65906 0.52082 0.0
H1115 H 0.10066 0.6848 0.53215 0.0
C1116 C 0.0821 0.32449 0.7809 0.0
C1117 C 0.10167 0.34055 0.76395 0.0
C1118 C 0.11279 0.34196 0.87802 0.0
C1119 C 0.09381 0.3248 0.89314 0.0
N1120 N 0.06215 0.29673 0.85493 0.0
N1121 N 0.13704 0.36095 0.79267 0.0
C1122 C 0.07905 0.31505 0.84323 0.0
C1123 C 0.11744 0.34834 0.81155 0.0
N1124 N 0.06606 0.31905 0.73956 0.0
N1125 N 0.12644 0.35208 0.92689 0.0
H1126 H 0.14125 0.36484 0.74381 0.0
H1127 H 0.14937 0.36566 0.8241 0.0
H1128 H 0.12399 0.34726 0.97567 0.0
H1129 H 0.13956 0.366 0.91977 0.0
H1130 H 0.05112 0.30892 0.75287 0.0
H1131 H 0.06724 0.32617 0.69481 0.0
H1132 H 0.05201 0.28805 0.81812 0.0
H1133 H 0.05912 0.28932 0.90001 0.0
C1134 C 0.66529 0.7475 0.86556 0.0
C1135 C 0.66933 0.76557 0.89851 0.0
C1136 C 0.66082 0.77776 0.79873 0.0
C1137 C 0.65537 0.7591 0.76751 0.0
N1138 N 0.6486 0.72464 0.77467 0.0
N1139 N 0.66738 0.7962 0.90115 0.0
C1140 C 0.65656 0.74352 0.80181 0.0
C1141 C 0.66613 0.78026 0.86635 0.0
N1142 N 0.67058 0.73451 0.89375 0.0
N1143 N 0.6615 0.79332 0.76316 0.0
H1144 H 0.67078 0.79829 0.95114 0.0
H1145 H 0.66319 0.80627 0.88227 0.0
H1146 H 0.65779 0.79206 0.71344 0.0
H1147 H 0.66742 0.80799 0.78123 0.0
H1148 H 0.67032 0.72248 0.86865 0.0
H1149 H 0.67688 0.73665 0.94047 0.0
H1150 H 0.64678 0.71205 0.80056 0.0
H1151 H 0.64215 0.72106 0.72797 0.0
C1152 C 0.23651 0.91735 0.85056 0.0
C1153 C 0.23475 0.90441 0.9034 0.0
C1154 C 0.24054 0.88285 0.82764 0.0
C1155 C 0.24397 0.89677 0.77561 0.0
N1156 N 0.25128 0.93034 0.74413 0.0
N1157 N 0.23829 0.87671 0.94493 0.0
C1158 C 0.24363 0.91489 0.78884 0.0
C1159 C 0.23797 0.88787 0.89285 0.0
N1160 N 0.23133 0.93199 0.85881 0.0
N1161 N 0.23849 0.86429 0.81489 0.0
H1162 H 0.2351 0.87895 0.99296 0.0
H1163 H 0.24315 0.86617 0.94122 0.0
H1164 H 0.24006 0.85953 0.76864 0.0
H1165 H 0.23337 0.85271 0.84952 0.0
H1166 H 0.23018 0.94023 0.81987 0.0
H1167 H 0.22665 0.93491 0.9035 0.0
H1168 H 0.25322 0.94462 0.75411 0.0
H1169 H 0.25804 0.92984 0.70021 0.0
C1170 C 0.30574 0.07798 0.16041 0.0
C1171 C 0.31797 0.08993 0.1073 0.0
C1172 C 0.34641 0.10807 0.18278 0.0
C1173 C 0.33334 0.09823 0.23704 0.0
N1174 N 0.29929 0.07659 0.27707 0.0
N1175 N 0.34876 0.11938 0.07065 0.0
C1176 C 0.31262 0.08393 0.22583 0.0
C1177 C 0.33798 0.10584 0.11917 0.0
N1178 N 0.28798 0.06045 0.14859 0.0
N1179 N 0.36697 0.11873 0.19091 0.0
H1180 H 0.34294 0.11879 0.02387 0.0
H1181 H 0.36263 0.13245 0.07905 0.0
H1182 H 0.37412 0.11997 0.23563 0.0
H1183 H 0.37705 0.12438 0.15162 0.0
H1184 H 0.27948 0.05024 0.18551 0.0
H1185 H 0.28293 0.05493 0.10144 0.0
H1186 H 0.28368 0.06765 0.27056 0.0
H1187 H 0.30349 0.08113 0.32552 0.0
C1188 C 0.88504 0.2381 0.17009 0.0
C1189 C 0.89682 0.23737 0.22312 0.0
C1190 C 0.91939 0.23433 0.14436 0.0
C1191 C 0.90585 0.2319 0.09269 0.0
N1192 N 0.87344 0.2274 0.05913 0.0
N1193 N 0.92314 0.23094 0.26076 0.0
C1194 C 0.88802 0.23268 0.10618 0.0
C1195 C 0.91347 0.23445 0.21034 0.0
N1196 N 0.87168 0.24489 0.17968 0.0
N1197 N 0.93825 0.23736 0.13043 0.0
H1198 H 0.9188 0.23011 0.3097 0.0
H1199 H 0.93408 0.22674 0.25333 0.0
H1200 H 0.9436 0.23854 0.08259 0.0
H1201 H 0.94935 0.24101 0.16607 0.0
H1202 H 0.86434 0.24758 0.14115 0.0
H1203 H 0.86963 0.25009 0.22471 0.0
H1204 H 0.85925 0.22569 0.06899 0.0
H1205 H 0.87464 0.22269 0.01213 0.0
C1206 C 0.74804 0.64444 0.17864 0.0
C1207 C 0.7549 0.65777 0.23343 0.0
C1208 C 0.76677 0.68658 0.15836 0.0
C1209 C 0.76301 0.67346 0.10401 0.0
N1210 N 0.75359 0.63995 0.06465 0.0
N1211 N 0.77429 0.69205 0.27431 0.0
C1212 C 0.75459 0.65237 0.11465 0.0
C1213 C 0.76522 0.67902 0.22311 0.0
N1214 N 0.73448 0.62431 0.18713 0.0
N1215 N 0.77089 0.70602 0.1485 0.0
H1216 H 0.77419 0.68721 0.32222 0.0
H1217 H 0.78368 0.70762 0.26791 0.0
H1218 H 0.77087 0.71176 0.10211 0.0
H1219 H 0.77191 0.71558 0.18669 0.0
H1220 H 0.72764 0.61433 0.1481 0.0
H1221 H 0.7282 0.61813 0.23263 0.0
H1222 H 0.74937 0.6248 0.07191 0.0
H1223 H 0.75901 0.64519 0.01754 0.0
C1224 C 0.91115 0.68483 0.17085 0.0
C1225 C 0.9021 0.67163 0.11636 0.0
C1226 C 0.88717 0.64254 0.19089 0.0
C1227 C 0.89431 0.65591 0.24575 0.0
N1228 N 0.90916 0.6901 0.28708 0.0
N1229 N 0.87741 0.63847 0.0766 0.0
C1230 C 0.90523 0.67716 0.23556 0.0
C1231 C 0.88896 0.65063 0.12691 0.0
N1232 N 0.92598 0.70452 0.16138 0.0
N1233 N 0.87943 0.62217 0.19902 0.0
H1234 H 0.87756 0.64389 0.02948 0.0
H1235 H 0.86603 0.62348 0.08343 0.0
H1236 H 0.8782 0.61534 0.24436 0.0
H1237 H 0.8762 0.61224 0.15979 0.0
H1238 H 0.9346 0.71398 0.19964 0.0
H1239 H 0.93116 0.71092 0.11526 0.0
H1240 H 0.9152 0.70566 0.28115 0.0
H1241 H 0.90443 0.68516 0.33493 0.0
C1242 C 0.30857 0.23231 0.14079 0.0
C1243 C 0.32149 0.23413 0.08782 0.0
C1244 C 0.34974 0.24519 0.16489 0.0
C1245 C 0.33602 0.24015 0.21853 0.0
N1246 N 0.30144 0.22531 0.2564 0.0
N1247 N 0.35387 0.23959 0.0503 0.0
C1248 C 0.31518 0.23282 0.20625 0.0
C1249 C 0.34198 0.23993 0.09994 0.0
N1250 N 0.29017 0.23068 0.12866 0.0
N1251 N 0.37019 0.25575 0.1753 0.0
H1252 H 0.34878 0.23573 1.00212 0.0
H1253 H 0.3682 0.24142 0.05812 0.0
H1254 H 0.37671 0.26062 0.22146 0.0
H1255 H 0.38072 0.26159 0.13726 0.0
H1256 H 0.28101 0.23128 0.16554 0.0
H1257 H 0.28509 0.23104 0.08142 0.0
H1258 H 0.28583 0.2179 0.24881 0.0
H1259 H 0.30541 0.22447 0.30477 0.0
C1260 C 0.74749 0.07218 0.14571 0.0
C1261 C 0.76461 0.08754 0.11217 0.0
C1262 C 0.77543 0.10822 0.21195 0.0
C1263 C 0.7571 0.094 0.24304 0.0
N1264 N 0.72434 0.06354 0.23726 0.0
N1265 N 0.79374 0.12118 0.10975 0.0
C1266 C 0.74279 0.07618 0.20955 0.0
C1267 C 0.77833 0.10582 0.14437 0.0
N1268 N 0.73612 0.05352 0.11751 0.0
N1269 N 0.79036 0.12365 0.24772 0.0
H1270 H 0.7963 0.12001 0.06007 0.0
H1271 H 0.80293 0.13567 0.1286 0.0
H1272 H 0.78894 0.12559 0.29776 0.0
H1273 H 0.80484 0.13332 0.22964 0.0
H1274 H 0.72488 0.04102 0.1425 0.0
H1275 H 0.73905 0.05001 0.07077 0.0
H1276 H 0.71242 0.05175 0.21184 0.0
H1277 H 0.72028 0.06571 0.28411 0.0
C1278 C 0.63952 0.89078 0.82329 0.0
C1279 C 0.65266 0.89555 0.76829 0.0
C1280 C 0.68188 0.91007 0.84233 0.0
C1281 C 0.6686 0.90303 0.89734 0.0
N1282 N 0.63457 0.8825 0.93884 0.0
N1283 N 0.68608 0.90545 0.72719 0.0
C1284 C 0.64735 0.89223 0.88752 0.0
C1285 C 0.67379 0.90403 0.7782 0.0
N1286 N 0.61972 0.88564 0.81486 0.0
N1287 N 0.70214 0.92319 0.85064 0.0
H1288 H 0.68072 0.9004 0.6799 0.0
H1289 H 0.70124 0.90958 0.73344 0.0
H1290 H 0.70886 0.92858 0.89625 0.0
H1291 H 0.71198 0.93041 0.81156 0.0
H1292 H 0.61025 0.88427 0.85381 0.0
H1293 H 0.61323 0.88482 0.76918 0.0
H1294 H 0.61907 0.87266 0.93284 0.0
H1295 H 0.63964 0.88242 0.9863 0.0
C1296 C 0.10848 0.7747 0.80818 0.0
C1297 C 0.09466 0.75594 0.77846 0.0
C1298 C 0.07327 0.74606 0.87684 0.0
C1299 C 0.08817 0.76384 0.90886 0.0
N1300 N 0.12115 0.79395 0.90891 0.0
N1301 N 0.06536 0.72244 0.78702 0.0
C1302 C 0.1061 0.7779 0.87554 0.0
C1303 C 0.07738 0.74127 0.81331 0.0
N1304 N 0.12347 0.78971 0.77131 0.0
N1305 N 0.05487 0.73416 0.90601 0.0
H1306 H 0.06764 0.71834 0.74036 0.0
H1307 H 0.05408 0.71036 0.81343 0.0
H1308 H 0.05124 0.73715 0.95246 0.0
H1309 H 0.0426 0.72232 0.882 0.0
H1310 H 0.13278 0.80442 0.78825 0.0
H1311 H 0.12542 0.78805 0.72147 0.0
H1312 H 0.13546 0.80351 0.88937 0.0
H1313 H 0.11998 0.79676 0.95837 0.0
C1314 C 0.23758 0.34362 0.91693 0.0
C1315 C 0.23166 0.32311 0.92929 0.0
C1316 C 0.2309 0.31682 0.81093 0.0
C1317 C 0.23824 0.33767 0.7985 0.0
N1318 N 0.25362 0.37183 0.8415 0.0
N1319 N 0.22832 0.29176 0.88917 0.0
C1320 C 0.24306 0.35137 0.85201 0.0
C1321 C 0.23005 0.31019 0.87657 0.0
N1322 N 0.23714 0.35553 0.96631 0.0
N1323 N 0.22371 0.30311 0.76067 0.0
H1324 H 0.22841 0.28665 0.9366 0.0
H1325 H 0.22908 0.28259 0.85266 0.0
H1326 H 0.2232 0.30711 0.71208 0.0
H1327 H 0.21629 0.28749 0.76818 0.0
H1328 H 0.23903 0.36988 0.95828 0.0
H1329 H 0.23316 0.35045 0.01446 0.0
H1330 H 0.25931 0.38239 0.87949 0.0
H1331 H 0.25862 0.37833 0.79536 0.0
C1332 C 0.99294 0.40355 0.53509 0.0
C1333 C 0.99126 0.4176 0.5764 0.0
C1334 C 0.97506 0.42619 0.48818 0.0
C1335 C 0.97684 0.4122 0.44629 0.0
N1336 N 0.98231 0.38377 0.43485 0.0
N1337 N 0.97685 0.43873 0.59898 0.0
C1338 C 0.98431 0.39977 0.47117 0.0
C1339 C 0.9811 0.42781 0.5549 0.0
N1340 N 0.00337 0.39432 0.55615 0.0
N1341 N 0.96843 0.43857 0.46376 0.0
H1342 H 0.98103 0.44011 0.64831 0.0
H1343 H 0.96763 0.44484 0.58854 0.0
H1344 H 0.96289 0.43737 0.41638 0.0
H1345 H 0.96951 0.45093 0.48913 0.0
H1346 H 0.00749 0.38604 0.5255 0.0
H1347 H 0.009 0.39593 0.60376 0.0
H1348 H 0.98559 0.37294 0.4528 0.0
H1349 H 0.97546 0.38011 0.38872 0.0
C1350 C 0.59009 0.58267 0.468 0.0
C1351 C 0.57468 0.56573 0.43378 0.0
C1352 C 0.55379 0.55468 0.53307 0.0
C1353 C 0.56824 0.57266 0.56519 0.0
N1354 N 0.59885 0.60528 0.56116 0.0
N1355 N 0.54058 0.53733 0.4297 0.0
C1356 C 0.5861 0.58706 0.53225 0.0
C1357 C 0.55617 0.55217 0.46525 0.0
N1358 N 0.60881 0.59411 0.44032 0.0
N1359 N 0.53814 0.53971 0.56806 0.0
H1360 H 0.54161 0.53524 0.37955 0.0
H1361 H 0.52602 0.52833 0.44831 0.0
H1362 H 0.53623 0.54084 0.61828 0.0
H1363 H 0.52823 0.52542 0.54901 0.0
H1364 H 0.62133 0.60506 0.46603 0.0
H1365 H 0.61239 0.59158 0.3932 0.0
H1366 H 0.61069 0.61733 0.53634 0.0
H1367 H 0.59672 0.60901 0.60856 0.0
C1368 C 0.43056 0.01948 0.54984 0.0
C1369 C 0.42442 -0.00116 0.56144 0.0
C1370 C 0.42705 0.99393 0.44359 0.0
C1371 C 0.43113 0.01393 0.43142 0.0
N1372 N 0.43166 0.04398 0.47193 0.0
N1373 N 0.41138 0.96512 0.51631 0.0
C1374 C 0.43142 0.02623 0.48427 0.0
C1375 C 0.42109 0.98566 0.50748 0.0
N1376 N 0.4364 0.03288 0.60087 0.0
N1377 N 0.42968 0.98305 0.39513 0.0
H1378 H 0.40573 0.95811 0.56142 0.0
H1379 H 0.40684 0.95491 0.47737 0.0
H1380 H 0.43466 0.98871 0.34804 0.0
H1381 H 0.42895 0.96922 0.40372 0.0
H1382 H 0.44292 0.04846 0.59418 0.0
H1383 H 0.43672 0.02875 0.64946 0.0
H1384 H 0.42998 0.05258 0.50853 0.0
H1385 H 0.43123 0.04893 0.42457 0.0
C1386 C 0.5493 -0.00185 0.54196 0.0
C1387 C 0.56306 0.99337 0.57298 0.0
C1388 C 0.58503 0.00511 0.47606 0.0
C1389 C 0.57021 0.00781 0.44261 0.0
N1390 N 0.53692 0.0042 0.43973 0.0
N1391 N 0.59228 0.98902 0.56626 0.0
C1392 C 0.55199 0.00364 0.47452 0.0
C1393 C 0.58051 0.99602 0.53928 0.0
N1394 N 0.53404 -0.00196 0.57758 0.0
N1395 N 0.60372 0.01198 0.44864 0.0
H1396 H 0.58949 0.98218 0.61234 0.0
H1397 H 0.6038 0.98842 0.54065 0.0
H1398 H 0.60774 0.01891 0.40267 0.0
H1399 H 0.61585 0.01248 0.47391 0.0
H1400 H 0.5248 0.0034 0.5596 0.0
H1401 H 0.53177 0.99434 0.62735 0.0
H1402 H 0.52247 -0.00078 0.45842 0.0
H1403 H 0.53823 0.00794 0.39003 0.0
C1404 C 0.97567 0.56421 0.49361 0.0
C1405 C 0.98908 0.57038 0.43909 0.0
C1406 C 0.01774 0.58653 0.51473 0.0
C1407 C 0.0045 0.57683 0.56846 0.0
N1408 N 0.97063 0.55321 0.60656 0.0
N1409 N 0.02348 0.58461 0.39915 0.0
C1410 C 0.98335 0.56483 0.55746 0.0
C1411 C 0.01032 0.5809 0.4498 0.0
N1412 N 0.95573 0.55844 0.48493 0.0
N1413 N 0.03721 0.60164 0.52544 0.0
H1414 H 0.01883 0.57989 0.35114 0.0
H1415 H 0.03897 0.5905 0.40629 0.0
H1416 H 0.0428 0.60712 0.57222 0.0
H1417 H 0.04689 0.61032 0.48768 0.0
H1418 H 0.94577 0.55542 0.52393 0.0
H1419 H 0.94982 0.55917 0.43952 0.0
H1420 H 0.95537 0.54274 0.59855 0.0
H1421 H 0.97561 0.55235 0.65343 0.0
C1422 C 0.40985 0.41387 0.4658 0.0
C1423 C 0.42995 0.42445 0.44118 0.0
C1424 C 0.44245 0.44055 0.54842 0.0
C1425 C 0.42218 0.43125 0.57121 0.0
N1426 N 0.38626 0.41121 0.55033 0.0
N1427 N 0.46495 0.45036 0.45445 0.0
C1428 C 0.40577 0.41862 0.52939 0.0
C1429 C 0.44618 0.43843 0.48133 0.0
N1430 N 0.39486 0.3985 0.42999 0.0
N1431 N 0.45811 0.45141 0.59087 0.0
H1432 H 0.46816 0.44961 0.40509 0.0
H1433 H 0.47691 0.4623 0.47921 0.0
H1434 H 0.45595 0.45397 0.63971 0.0
H1435 H 0.47324 0.45668 0.57919 0.0
H1436 H 0.38044 0.38873 0.44839 0.0
H1437 H 0.39724 0.39429 0.38362 0.0
H1438 H 0.37375 0.4041 0.51937 0.0
H1439 H 0.38257 0.41326 0.59792 0.0
C1440 C 0.07014 0.32726 0.3011 0.0
C1441 C 0.08599 0.32804 0.26211 0.0
C1442 C 0.10948 0.34255 0.35475 0.0
C1443 C 0.09424 0.34361 0.39162 0.0
N1444 N 0.06077 0.3393 0.39815 0.0
N1445 N 0.12157 0.33927 0.24828 0.0
C1446 C 0.0747 0.33651 0.36445 0.0
C1447 C 0.10594 0.3367 0.28771 0.0
N1448 N 0.05074 0.31764 0.27762 0.0
N1449 N 0.12689 0.34588 0.38505 0.0
H1450 H 0.11967 0.3343 0.19981 0.0
H1451 H 0.13672 0.34768 0.26221 0.0
H1452 H 0.12957 0.34912 0.43497 0.0
H1453 H 0.13766 0.34325 0.36274 0.0
H1454 H 0.03817 0.31444 0.30621 0.0
H1455 H 0.04705 0.3118 0.23012 0.0
H1456 H 0.047 0.33646 0.37837 0.0
H1457 H 0.06361 0.34592 0.44461 0.0
C1458 C 0.66342 0.74035 0.37301 0.0
C1459 C 0.65559 0.75244 0.39783 0.0
C1460 C 0.66243 0.77041 0.2928 0.0
C1461 C 0.67137 0.75914 0.26896 0.0
N1462 N 0.68263 0.73511 0.28765 0.0
N1463 N 0.65101 0.78138 0.3872 0.0
C1464 C 0.6726 0.74465 0.3096 0.0
C1465 C 0.65598 0.76811 0.35926 0.0
N1466 N 0.66153 0.72441 0.40937 0.0
N1467 N 0.66004 0.78332 0.25192 0.0
H1468 H 0.64647 0.78032 0.43603 0.0
H1469 H 0.65308 0.79448 0.36422 0.0
H1470 H 0.66558 0.78646 0.20408 0.0
H1471 H 0.65143 0.78999 0.26383 0.0
H1472 H 0.6649 0.71362 0.39168 0.0
H1473 H 0.6553 0.72117 0.45645 0.0
H1474 H 0.68606 0.72608 0.31717 0.0
H1475 H 0.68861 0.73713 0.24039 0.0
C1476 C 0.22474 0.89 0.29939 0.0
C1477 C 0.23666 0.90959 0.27173 0.0
C1478 C 0.25807 0.92087 0.37033 0.0
C1479 C 0.24551 0.9016 0.39924 0.0
N1480 N 0.21467 0.86917 0.3974 0.0
N1481 N 0.26283 0.94452 0.28277 0.0
C1482 C 0.22827 0.88649 0.36533 0.0
C1483 C 0.25274 0.92532 0.30795 0.0
N1484 N 0.21001 0.8747 0.26258 0.0
N1485 N 0.27556 0.93456 0.4012 0.0
H1486 H 0.25994 0.94811 0.23608 0.0
H1487 H 0.27314 0.95714 0.30949 0.0
H1488 H 0.2799 0.93179 0.44685 0.0
H1489 H 0.28653 0.94801 0.37976 0.0
H1490 H 0.20258 0.85955 0.27675 0.0
H1491 H 0.20597 0.87688 0.21566 0.0
H1492 H 0.20071 0.85854 0.37801 0.0
H1493 H 0.21641 0.86617 0.44617 0.0
C1494 C 0.32346 0.07198 0.62447 0.0
C1495 C 0.33863 0.09206 0.60837 0.0
C1496 C 0.33545 0.10361 0.71781 0.0
C1497 C 0.32141 0.08331 0.73578 0.0
N1498 N 0.30482 0.04765 0.7106 0.0
N1499 N 0.36209 0.12624 0.64436 0.0
C1500 C 0.31613 0.06732 0.69024 0.0
C1501 C 0.34569 0.10758 0.65665 0.0
N1502 N 0.31606 0.05736 0.57697 0.0
N1503 N 0.338 0.11932 0.75689 0.0
H1504 H 0.36964 0.13037 0.59953 0.0
H1505 H 0.36927 0.1372 0.68061 0.0
H1506 H 0.33029 0.11735 0.80093 0.0
H1507 H 0.34614 0.13444 0.74235 0.0
H1508 H 0.30334 0.0431 0.58347 0.0
H1509 H 0.32197 0.05985 0.52952 0.0
H1510 H 0.30212 0.03527 0.68176 0.0
H1511 H 0.29964 0.04368 0.7587 0.0
C1512 C 0.89651 0.22054 0.67994 0.0
C1513 C 0.91168 0.23659 0.71776 0.0
C1514 C 0.91726 0.26065 0.62892 0.0
C1515 C 0.90319 0.2443 0.58926 0.0
N1516 N 0.88097 0.20832 0.57359 0.0
N1517 N 0.93832 0.27135 0.72684 0.0
C1518 C 0.8934 0.22412 0.61362 0.0
C1519 C 0.92252 0.25654 0.69198 0.0
N1520 N 0.88425 0.20212 0.70867 0.0
N1521 N 0.9255 0.28009 0.60635 0.0
H1522 H 0.94247 0.26885 0.77321 0.0
H1523 H 0.94826 0.28568 0.70824 0.0
H1524 H 0.92293 0.28357 0.55907 0.0
H1525 H 0.93397 0.29283 0.63539 0.0
H1526 H 0.87143 0.19047 0.6863 0.0
H1527 H 0.88571 0.19898 0.75753 0.0
H1528 H 0.87551 0.19318 0.58571 0.0
H1529 H 0.87704 0.21019 0.52621 0.0
C1530 C 0.76189 0.65817 0.71366 0.0
C1531 C 0.75624 0.67263 0.73214 0.0
C1532 C 0.74301 0.67123 0.621 0.0
C1533 C 0.74708 0.65551 0.60471 0.0
N1534 N 0.75687 0.63126 0.63972 0.0
N1535 N 0.73828 0.69041 0.70747 0.0
C1536 C 0.75526 0.64802 0.65251 0.0
C1537 C 0.74596 0.67854 0.68684 0.0
N1538 N 0.7748 0.6551 0.75227 0.0
N1539 N 0.73634 0.67919 0.57359 0.0
H1540 H 0.73971 0.69561 0.75562 0.0
H1541 H 0.72892 0.6936 0.67876 0.0
H1542 H 0.73293 0.67346 0.52591 0.0
H1543 H 0.73534 0.69222 0.58033 0.0
H1544 H 0.78132 0.64656 0.7374 0.0
H1545 H 0.78084 0.66279 0.79616 0.0
H1546 H 0.76043 0.62381 0.67563 0.0
H1547 H 0.75316 0.62377 0.59475 0.0
C1548 C 0.92159 0.66614 0.63614 0.0
C1549 C 0.90173 0.6505 0.61988 0.0
C1550 C 0.88972 0.65334 0.729 0.0
C1551 C 0.90981 0.66801 0.74693 0.0
N1552 N 0.94553 0.68545 0.72237 0.0
N1553 N 0.86789 0.62602 0.65644 0.0
C1554 C 0.92596 0.67364 0.70176 0.0
C1555 C 0.88618 0.64298 0.66822 0.0
N1556 N 0.93631 0.6738 0.58897 0.0
N1557 N 0.87375 0.65028 0.76765 0.0
H1558 H 0.86398 0.61827 0.61201 0.0
H1559 H 0.85707 0.61862 0.69293 0.0
H1560 H 0.87537 0.65802 0.8114 0.0
H1561 H 0.85869 0.64164 0.75292 0.0
H1562 H 0.95031 0.68686 0.59538 0.0
H1563 H 0.93417 0.66766 0.54192 0.0
H1564 H 0.95806 0.68845 0.69387 0.0
H1565 H 0.94931 0.69073 0.77043 0.0
C1566 C 0.32969 0.25534 0.69869 0.0
C1567 C 0.31539 0.23503 0.71597 0.0
C1568 C 0.31953 0.2235 0.60751 0.0
C1569 C 0.33268 0.24392 0.58843 0.0
N1570 N 0.34741 0.27956 0.61134 0.0
N1571 N 0.29355 0.20027 0.68176 0.0
C1572 C 0.33702 0.25994 0.63288 0.0
C1573 C 0.30921 0.21931 0.66865 0.0
N1574 N 0.3362 0.27027 0.74506 0.0
N1575 N 0.31791 0.20795 0.56951 0.0
H1576 H 0.28598 0.19603 0.72653 0.0
H1577 H 0.28691 0.18901 0.64612 0.0
H1578 H 0.32566 0.21013 0.52541 0.0
H1579 H 0.31056 0.1929 0.58495 0.0
H1580 H 0.3484 0.28483 0.73799 0.0
H1581 H 0.33009 0.26784 0.7922 0.0
H1582 H 0.34933 0.29186 0.63916 0.0
H1583 H 0.35256 0.28346 0.56319 0.0
C1584 C 0.74469 0.06643 0.69627 0.0
C1585 C 0.75552 0.08285 0.74022 0.0
C1586 C 0.75448 0.10625 0.65969 0.0
C1587 C 0.74584 0.09029 0.61292 0.0
N1588 N 0.73395 0.05543 0.58426 0.0
N1589 N 0.77436 0.11899 0.75884 0.0
C1590 C 0.74136 0.07044 0.63048 0.0
C1591 C 0.76125 0.10291 0.72092 0.0
N1592 N 0.7369 0.04697 0.71821 0.0
N1593 N 0.75645 0.1247 0.64574 0.0
H1594 H 0.7804 0.11743 0.80288 0.0
H1595 H 0.78095 0.13401 0.74346 0.0
H1596 H 0.75269 0.12834 0.60062 0.0
H1597 H 0.76037 0.136 0.68087 0.0
H1598 H 0.72716 0.03428 0.69069 0.0
H1599 H 0.73866 0.04348 0.76639 0.0
H1600 H 0.7327 0.04132 0.59163 0.0
H1601 H 0.73005 0.05744 0.5369 0.0
C1602 C 0.65796 0.88911 0.29157 0.0
C1603 C 0.66801 0.90932 0.26738 0.0
C1604 C 0.66093 0.92126 0.37077 0.0
C1605 C 0.65202 0.90129 0.39611 0.0
N1606 N 0.64517 0.86692 0.38631 0.0
N1607 N 0.68094 0.94501 0.28484 0.0
C1608 C 0.65129 0.88538 0.35793 0.0
C1609 C 0.67011 0.92553 0.3074 0.0
N1610 N 0.65484 0.87344 0.25128 0.0
N1611 N 0.65997 0.93596 0.4065 0.0
H1612 H 0.68674 0.94862 0.23727 0.0
H1613 H 0.68512 0.95771 0.31402 0.0
H1614 H 0.65366 0.93338 0.4534 0.0
H1615 H 0.66417 0.9503 0.38839 0.0
H1616 H 0.64544 0.85825 0.26325 0.0
H1617 H 0.66063 0.87546 0.20382 0.0
H1618 H 0.64637 0.85531 0.36376 0.0
H1619 H 0.6405 0.86372 0.43509 0.0
C1620 C 0.07505 0.73299 0.37079 0.0
C1621 C 0.09078 0.74849 0.40877 0.0
C1622 C 0.10004 0.77222 0.31645 0.0
C1623 C 0.0832 0.7573 0.28069 0.0
N1624 N 0.05352 0.7242 0.27416 0.0
N1625 N 0.11742 0.7833 0.42088 0.0
C1626 C 0.07042 0.73782 0.30782 0.0
C1627 C 0.10299 0.76826 0.38254 0.0
N1628 N 0.06469 0.71366 0.39479 0.0
N1629 N 0.11371 0.78985 0.28609 0.0
H1630 H 0.12108 0.78082 0.46796 0.0
H1631 H 0.12502 0.79854 0.40774 0.0
H1632 H 0.11219 0.79314 0.23745 0.0
H1633 H 0.12745 0.80049 0.30678 0.0
H1634 H 0.05457 0.70119 0.36713 0.0
H1635 H 0.06715 0.70981 0.44168 0.0
H1636 H 0.04234 0.71053 0.29376 0.0
H1637 H 0.04996 0.72716 0.22751 0.0
C1638 C 0.21686 0.30935 0.3505 0.0
C1639 C 0.23226 0.31599 0.30183 0.0
C1640 C 0.25722 0.33862 0.38319 0.0
C1641 C 0.24131 0.334 0.42846 0.0
N1642 N 0.20532 0.31831 0.44865 0.0
N1643 N 0.26715 0.33781 0.27048 0.0
C1644 C 0.22096 0.32016 0.41061 0.0
C1645 C 0.25246 0.33098 0.31774 0.0
N1646 N 0.19824 0.29274 0.33987 0.0
N1647 N 0.27692 0.34955 0.40356 0.0
H1648 H 0.26471 0.33143 0.22375 0.0
H1649 H 0.28148 0.35046 0.27655 0.0
H1650 H 0.28097 0.35486 0.45149 0.0
H1651 H 0.28918 0.35173 0.37503 0.0
H1652 H 0.18735 0.28607 0.37662 0.0
H1653 H 0.1942 0.28438 0.29662 0.0
H1654 H 0.19022 0.31021 0.43396 0.0
H1655 H 0.20742 0.32664 0.4914 0.0
C1656 C 0.98601 0.39833 0.9582 0.0
C1657 C 0.00252 0.4178 0.94252 0.0
C1658 C 0.0018 0.42968 0.05399 0.0
C1659 C 0.98578 0.41003 0.07043 0.0
N1660 N 0.965 0.37474 0.04319 0.0
N1661 N 0.02853 0.45101 0.97838 0.0
C1662 C 0.97853 0.39408 0.02386 0.0
C1663 C 0.01128 0.43308 0.99153 0.0
N1664 N 0.9774 0.38396 0.91018 0.0
N1665 N 0.00704 0.44552 0.09622 0.0
H1666 H 0.03533 0.4549 0.93235 0.0
H1667 H 0.03702 0.46156 0.01441 0.0
H1668 H 0.00046 0.44391 0.14226 0.0
H1669 H 0.01667 0.46062 0.08365 0.0
H1670 H 0.96382 0.3704 0.91604 0.0
H1671 H 0.98338 0.38596 0.86294 0.0
H1672 H 0.96052 0.36203 0.01377 0.0
H1673 H 0.95949 0.37113 0.09108 0.0
C1674 C 0.56084 0.56271 0.04036 0.0
C1675 C 0.5812 0.57222 0.06286 0.0
C1676 C 0.59294 0.59069 0.95857 0.0
C1677 C 0.57276 0.58013 0.93473 0.0
N1678 N 0.53822 0.55306 0.94698 0.0
N1679 N 0.61694 0.59342 0.04214 0.0
C1680 C 0.55687 0.56538 0.97412 0.0
C1681 C 0.59737 0.58564 0.02145 0.0
N1682 N 0.54525 0.55102 0.08214 0.0
N1683 N 0.60769 0.60604 0.92206 0.0
H1684 H 0.62068 0.59085 0.08904 0.0
H1685 H 0.62947 0.60143 0.01182 0.0
H1686 H 0.60495 0.61002 0.87577 0.0
H1687 H 0.62226 0.61579 0.93927 0.0
H1688 H 0.5301 0.5458 0.07106 0.0
H1689 H 0.54738 0.54757 0.12989 0.0
H1690 H 0.52662 0.54055 0.97084 0.0
H1691 H 0.53488 0.55406 0.89798 0.0
C1692 C 0.42715 0.99569 0.04337 0.0
C1693 C 0.42291 0.01131 0.05953 0.0
C1694 C 0.41051 0.01018 0.94732 0.0
C1695 C 0.41345 0.99359 0.93283 0.0
N1696 N 0.42039 0.96766 0.97226 0.0
N1697 N 0.40713 0.03093 0.03136 0.0
C1698 C 0.42027 0.98533 0.98262 0.0
C1699 C 0.41366 0.01791 0.01267 0.0
N1700 N 0.43905 0.99166 0.0838 0.0
N1701 N 0.40467 0.01853 0.8987 0.0
H1702 H 0.4088 0.03652 0.07905 0.0
H1703 H 0.39847 0.03477 1.00153 0.0
H1704 H 0.40072 0.01236 0.85168 0.0
H1705 H 0.4047 0.03214 0.90392 0.0
H1706 H 0.44464 0.98217 0.07063 0.0
H1707 H 0.44524 -0.0006 0.12752 0.0
H1708 H 0.42289 0.95984 0.00965 0.0
H1709 H 0.41642 0.95982 0.92799 0.0
C1710 C 0.58793 0.00294 0.962 0.0
C1711 C 0.56792 0.98779 0.94512 0.0
C1712 C 0.55593 0.99058 0.05431 0.0
C1713 C 0.57613 0.00477 0.07272 0.0
N1714 N 0.61188 0.02171 0.04886 0.0
N1715 N 0.53353 0.96434 0.97927 0.0
C1716 C 0.5923 0.01024 0.0278 0.0
C1717 C 0.55218 0.98061 0.99271 0.0
N1718 N 0.60276 0.01036 0.91516 0.0
N1719 N 0.5401 0.98762 0.09353 0.0
H1720 H 0.52949 0.95713 0.93387 0.0
H1721 H 0.52242 0.95696 0.01493 0.0
H1722 H 0.54192 0.99492 0.13835 0.0
H1723 H 0.52501 0.97947 0.07878 0.0
H1724 H 0.61697 0.0231 0.92203 0.0
H1725 H 0.60053 0.0044 0.86782 0.0
H1726 H 0.62441 0.02455 0.02059 0.0
H1727 H 0.61564 0.02691 0.09701 0.0
C1728 C 0.99402 0.55806 0.96312 0.0
C1729 C 0.0054 0.57825 0.93951 0.0
C1730 C -0.0012 0.59104 0.04178 0.0
C1731 C 0.98843 0.57097 0.06667 0.0
N1732 N 0.97964 0.53593 0.05718 0.0
N1733 N 0.02083 0.61422 0.95769 0.0
C1734 C 0.98688 0.55459 0.02888 0.0
C1735 C 0.00852 0.59485 0.9794 0.0
N1736 N 0.99012 0.54215 0.92283 0.0
N1737 N -0.00135 0.60629 0.07668 0.0
H1738 H 0.02731 0.61756 0.911 0.0
H1739 H 0.02562 0.62699 0.98705 0.0
H1740 H 0.99171 0.604 0.12248 0.0
H1741 H 0.00405 0.62087 0.05854 0.0
H1742 H 0.97972 0.52712 0.93411 0.0
H1743 H -0.00368 0.54391 0.87604 0.0
H1744 H 0.9802 0.52394 0.03482 0.0
H1745 H 0.97474 0.53283 0.10575 0.0
C1746 C 0.41029 0.42591 0.0612 0.0
C1747 C 0.41961 0.41395 0.07095 0.0
C1748 C 0.42288 0.41212 0.9519 0.0
C1749 C 0.41205 0.42262 0.94207 0.0
N1750 N 0.38946 0.43295 0.98873 0.0
N1751 N 0.42801 0.38993 0.02416 0.0
C1752 C 0.40381 0.42741 0.99716 0.0
C1753 C 0.42371 0.40518 0.01582 0.0
N1754 N 0.4087 0.43694 0.11132 0.0
N1755 N 0.43355 0.40985 0.90197 0.0
H1756 H 0.42759 0.3836 0.06996 0.0
H1757 H 0.42948 0.38199 0.98492 0.0
H1758 H 0.43482 0.41588 0.85525 0.0
H1759 H 0.44314 0.40394 0.9093 0.0
H1760 H 0.40375 0.44732 0.10407 0.0
H1761 H 0.41433 0.43758 0.1583 0.0
H1762 H 0.38185 0.43496 0.02791 0.0
H1763 H 0.38339 0.43303 0.9429 0.0
loop_
_geom_bond_atom_site_label_1
_geom_bond_atom_site_label_2
_geom_bond_distance
_geom_bond_site_symmetry_2
_ccdc_geom_bond_type
In0 O1 2.294 . S
In0 O2 2.326 . S
In0 O6 2.266 . S
In0 O7 2.326 . S
In0 O8 2.266 . S
In0 O9 2.326 1_554 S
In0 O11 2.294 . S
In0 O12 2.326 . S
O1 In0 2.294 . S
O1 C10 1.240 . S
O2 In0 2.326 . S
O2 C10 1.252 . S
C3 O6 1.252 . S
C3 O7 1.260 . S
C4 O11 1.240 . S
C4 O12 1.252 . S
C5 O8 1.252 1_556 S
C5 O9 1.260 . S
O6 In0 2.266 . S
O6 C3 1.252 . S
O7 In0 2.326 . S
O7 C3 1.260 . S
O8 In0 2.266 . S
O8 C5 1.252 1_554 S
O9 In0 2.326 1_556 S
O9 C5 1.260 . S
C10 O1 1.240 . S
C10 O2 1.252 . S
O11 In0 2.294 . S
O11 C4 1.240 . S
O12 In0 2.326 . S
O12 C4 1.252 . S
In13 O14 2.294 . S
In13 O15 2.326 . S
In13 O19 2.266 . S
In13 O20 2.326 . S
In13 O21 2.266 . S
In13 O22 2.326 1_554 S
In13 O24 2.294 . S
In13 O25 2.326 . S
O14 In13 2.294 . S
O14 C23 1.240 . S
O15 In13 2.326 . S
O15 C23 1.252 . S
C16 O19 1.252 . S
C16 O20 1.260 . S
C17 O24 1.240 . S
C17 O25 1.252 . S
C18 O21 1.252 1_556 S
C18 O22 1.260 . S
O19 In13 2.266 . S
O19 C16 1.252 . S
O20 In13 2.326 . S
O20 C16 1.260 . S
O21 In13 2.266 . S
O21 C18 1.252 1_554 S
O22 In13 2.326 1_556 S
O22 C18 1.260 . S
C23 O14 1.240 . S
C23 O15 1.252 . S
O24 In13 2.294 . S
O24 C17 1.240 . S
O25 In13 2.326 . S
O25 C17 1.252 . S
In26 O27 2.294 . S
In26 O28 2.326 . S
In26 O32 2.266 . S
In26 O33 2.326 1_554 S
In26 O34 2.266 . S
In26 O35 2.326 . S
In26 O37 2.294 . S
In26 O38 2.326 . S
O27 In26 2.294 . S
O27 C36 1.240 . S
O28 In26 2.326 . S
O28 C36 1.252 . S
C29 O32 1.252 1_556 S
C29 O33 1.260 . S
C30 O37 1.240 . S
C30 O38 1.252 . S
C31 O34 1.252 . S
C31 O35 1.260 . S
O32 In26 2.266 . S
O32 C29 1.252 1_554 S
O33 In26 2.326 1_556 S
O33 C29 1.260 . S
O34 In26 2.266 . S
O34 C31 1.252 . S
O35 In26 2.326 . S
O35 C31 1.260 . S
C36 O27 1.240 . S
C36 O28 1.252 . S
O37 In26 2.294 . S
O37 C30 1.240 . S
O38 In26 2.326 . S
O38 C30 1.252 . S
In39 O40 2.294 . S
In39 O41 2.326 . S
In39 O45 2.266 . S
In39 O46 2.326 1_556 S
In39 O47 2.266 . S
In39 O48 2.326 . S
In39 O50 2.294 . S
In39 O51 2.326 . S
O40 In39 2.294 . S
O40 C49 1.240 . S
O41 In39 2.326 . S
O41 C49 1.252 . S
C42 O45 1.252 1_554 S
C42 O46 1.260 . S
C43 O50 1.240 . S
C43 O51 1.252 . S
C44 O47 1.252 . S
C44 O48 1.260 . S
O45 In39 2.266 . S
O45 C42 1.252 1_556 S
O46 In39 2.326 1_554 S
O46 C42 1.260 . S
O47 In39 2.266 . S
O47 C44 1.252 . S
O48 In39 2.326 . S
O48 C44 1.260 . S
C49 O40 1.240 . S
C49 O41 1.252 . S
O50 In39 2.294 . S
O50 C43 1.240 . S
O51 In39 2.326 . S
O51 C43 1.252 . S
In52 O53 2.294 . S
In52 O54 2.326 . S
In52 O58 2.266 . S
In52 O59 2.326 1_556 S
In52 O60 2.266 . S
In52 O61 2.326 . S
In52 O63 2.294 . S
In52 O64 2.326 . S
O53 In52 2.294 . S
O53 C62 1.240 . S
O54 In52 2.326 . S
O54 C62 1.252 . S
C55 O58 1.252 1_554 S
C55 O59 1.260 . S
C56 O63 1.240 . S
C56 O64 1.252 . S
C57 O60 1.252 . S
C57 O61 1.260 . S
O58 In52 2.266 . S
O58 C55 1.252 1_556 S
O59 In52 2.326 1_554 S
O59 C55 1.260 . S
O60 In52 2.266 . S
O60 C57 1.252 . S
O61 In52 2.326 . S
O61 C57 1.260 . S
C62 O53 1.240 . S
C62 O54 1.252 . S
O63 In52 2.294 . S
O63 C56 1.240 . S
O64 In52 2.326 . S
O64 C56 1.252 . S
In65 O66 2.294 . S
In65 O67 2.326 . S
In65 O71 2.266 . S
In65 O72 2.326 . S
In65 O73 2.266 . S
In65 O74 2.326 1_556 S
In65 O76 2.294 . S
In65 O77 2.326 . S
O66 In65 2.294 . S
O66 C75 1.240 . S
O67 In65 2.326 . S
O67 C75 1.252 . S
C68 O71 1.252 . S
C68 O72 1.260 . S
C69 O76 1.240 . S
C69 O77 1.252 . S
C70 O73 1.252 1_554 S
C70 O74 1.260 . S
O71 In65 2.266 . S
O71 C68 1.252 . S
O72 In65 2.326 . S
O72 C68 1.260 . S
O73 In65 2.266 . S
O73 C70 1.252 1_556 S
O74 In65 2.326 1_554 S
O74 C70 1.260 . S
C75 O66 1.240 . S
C75 O67 1.252 . S
O76 In65 2.294 . S
O76 C69 1.240 . S
O77 In65 2.326 . S
O77 C69 1.252 . S
In78 O79 2.294 . S
In78 O80 2.326 . S
In78 O84 2.266 . S
In78 O85 2.326 1_556 S
In78 O86 2.266 . S
In78 O87 2.326 . S
In78 O89 2.294 . S
In78 O90 2.326 . S
O79 In78 2.294 . S
O79 C88 1.240 . S
O80 In78 2.326 . S
O80 C88 1.252 . S
C81 O84 1.252 1_554 S
C81 O85 1.260 . S
C82 O89 1.240 . S
C82 O90 1.252 . S
C83 O86 1.252 . S
C83 O87 1.260 . S
O84 In78 2.266 . S
O84 C81 1.252 1_556 S
O85 In78 2.326 1_554 S
O85 C81 1.260 . S
O86 In78 2.266 . S
O86 C83 1.252 . S
O87 In78 2.326 . S
O87 C83 1.260 . S
C88 O79 1.240 . S
C88 O80 1.252 . S
O89 In78 2.294 . S
O89 C82 1.240 . S
O90 In78 2.326 . S
O90 C82 1.252 . S
In91 O92 2.294 . S
In91 O93 2.326 . S
In91 O97 2.266 . S
In91 O98 2.326 . S
In91 O99 2.266 . S
In91 O100 2.326 1_556 S
In91 O102 2.294 . S
In91 O103 2.326 . S
O92 In91 2.294 . S
O92 C101 1.240 . S
O93 In91 2.326 . S
O93 C101 1.252 . S
C94 O97 1.252 . S
C94 O98 1.260 . S
C95 O102 1.240 . S
C95 O103 1.252 . S
C96 O99 1.252 1_554 S
C96 O100 1.260 . S
O97 In91 2.266 . S
O97 C94 1.252 . S
O98 In91 2.326 . S
O98 C94 1.260 . S
O99 In91 2.266 . S
O99 C96 1.252 1_556 S
O100 In91 2.326 1_554 S
O100 C96 1.260 . S
C101 O92 1.240 . S
C101 O93 1.252 . S
O102 In91 2.294 . S
O102 C95 1.240 . S
O103 In91 2.326 . S
O103 C95 1.252 . S
In104 O105 2.294 . S
In104 O106 2.326 . S
In104 O110 2.266 . S
In104 O111 2.326 1_556 S
In104 O112 2.266 . S
In104 O113 2.326 . S
In104 O115 2.294 . S
In104 O116 2.326 . S
O105 In104 2.294 . S
O105 C114 1.240 . S
O106 In104 2.326 . S
O106 C114 1.252 . S
C107 O110 1.252 1_554 S
C107 O111 1.260 . S
C108 O115 1.240 . S
C108 O116 1.252 . S
C109 O112 1.252 . S
C109 O113 1.260 . S
O110 In104 2.266 . S
O110 C107 1.252 1_556 S
O111 In104 2.326 1_554 S
O111 C107 1.260 . S
O112 In104 2.266 . S
O112 C109 1.252 . S
O113 In104 2.326 . S
O113 C109 1.260 . S
C114 O105 1.240 . S
C114 O106 1.252 . S
O115 In104 2.294 . S
O115 C108 1.240 . S
O116 In104 2.326 . S
O116 C108 1.252 . S
In117 O118 2.294 . S
In117 O119 2.326 . S
In117 O123 2.266 . S
In117 O124 2.326 1_554 S
In117 O125 2.266 . S
In117 O126 2.326 . S
In117 O128 2.294 . S
In117 O129 2.326 . S
O118 In117 2.294 . S
O118 C127 1.240 . S
O119 In117 2.326 . S
O119 C127 1.252 . S
C120 O123 1.252 1_556 S
C120 O124 1.260 . S
C121 O128 1.240 . S
C121 O129 1.252 . S
C122 O125 1.252 . S
C122 O126 1.260 . S
O123 In117 2.266 . S
O123 C120 1.252 1_554 S
O124 In117 2.326 1_556 S
O124 C120 1.260 . S
O125 In117 2.266 . S
O125 C122 1.252 . S
O126 In117 2.326 . S
O126 C122 1.260 . S
C127 O118 1.240 . S
C127 O119 1.252 . S
O128 In117 2.294 . S
O128 C121 1.240 . S
O129 In117 2.326 . S
O129 C121 1.252 . S
In130 O131 2.294 . S
In130 O132 2.326 . S
In130 O136 2.266 . S
In130 O137 2.326 . S
In130 O138 2.266 . S
In130 O139 2.326 1_554 S
In130 O141 2.294 . S
In130 O142 2.326 . S
O131 In130 2.294 . S
O131 C140 1.240 . S
O132 In130 2.326 . S
O132 C140 1.252 . S
C133 O136 1.252 . S
C133 O137 1.260 . S
C134 O141 1.240 . S
C134 O142 1.252 . S
C135 O138 1.252 1_556 S
C135 O139 1.260 . S
O136 In130 2.266 . S
O136 C133 1.252 . S
O137 In130 2.326 . S
O137 C133 1.260 . S
O138 In130 2.266 . S
O138 C135 1.252 1_554 S
O139 In130 2.326 1_556 S
O139 C135 1.260 . S
C140 O131 1.240 . S
C140 O132 1.252 . S
O141 In130 2.294 . S
O141 C134 1.240 . S
O142 In130 2.326 . S
O142 C134 1.252 . S
In143 O144 2.294 . S
In143 O145 2.326 . S
In143 O149 2.266 . S
In143 O150 2.326 1_554 S
In143 O151 2.266 . S
In143 O152 2.326 . S
In143 O154 2.294 . S
In143 O155 2.326 . S
O144 In143 2.294 . S
O144 C153 1.240 . S
O145 In143 2.326 . S
O145 C153 1.252 . S
C146 O149 1.252 1_556 S
C146 O150 1.260 . S
C147 O154 1.240 . S
C147 O155 1.252 . S
C148 O151 1.252 . S
C148 O152 1.260 . S
O149 In143 2.266 . S
O149 C146 1.252 1_554 S
O150 In143 2.326 1_556 S
O150 C146 1.260 . S
O151 In143 2.266 . S
O151 C148 1.252 . S
O152 In143 2.326 . S
O152 C148 1.260 . S
C153 O144 1.240 . S
C153 O145 1.252 . S
O154 In143 2.294 . S
O154 C147 1.240 . S
O155 In143 2.326 . S
O155 C147 1.252 . S
In156 O157 2.294 . S
In156 O158 2.326 . S
In156 O162 2.266 . S
In156 O163 2.326 . S
In156 O164 2.266 . S
In156 O165 2.326 . S
In156 O167 2.294 . S
In156 O168 2.326 . S
O157 In156 2.294 . S
O157 C166 1.240 . S
O158 In156 2.326 . S
O158 C166 1.252 . S
C159 O162 1.252 . S
C159 O163 1.260 . S
C160 O167 1.240 . S
C160 O168 1.252 . S
C161 O164 1.252 . S
C161 O165 1.260 . S
O162 In156 2.266 . S
O162 C159 1.252 . S
O163 In156 2.326 . S
O163 C159 1.260 . S
O164 In156 2.266 . S
O164 C161 1.252 . S
O165 In156 2.326 . S
O165 C161 1.260 . S
C166 O157 1.240 . S
C166 O158 1.252 . S
O167 In156 2.294 . S
O167 C160 1.240 . S
O168 In156 2.326 . S
O168 C160 1.252 . S
In169 O170 2.294 . S
In169 O171 2.326 . S
In169 O175 2.266 . S
In169 O176 2.326 . S
In169 O177 2.266 . S
In169 O178 2.326 . S
In169 O180 2.294 . S
In169 O181 2.326 . S
O170 In169 2.294 . S
O170 C179 1.240 . S
O171 In169 2.326 . S
O171 C179 1.252 . S
C172 O175 1.252 . S
C172 O176 1.260 . S
C173 O180 1.240 . S
C173 O181 1.252 . S
C174 O177 1.252 . S
C174 O178 1.260 . S
O175 In169 2.266 . S
O175 C172 1.252 . S
O176 In169 2.326 . S
O176 C172 1.260 . S
O177 In169 2.266 . S
O177 C174 1.252 . S
O178 In169 2.326 . S
O178 C174 1.260 . S
C179 O170 1.240 . S
C179 O171 1.252 . S
O180 In169 2.294 . S
O180 C173 1.240 . S
O181 In169 2.326 . S
O181 C173 1.252 . S
In182 O183 2.294 . S
In182 O184 2.326 . S
In182 O188 2.266 . S
In182 O189 2.326 . S
In182 O190 2.266 . S
In182 O191 2.326 . S
In182 O193 2.294 . S
In182 O194 2.326 . S
O183 In182 2.294 . S
O183 C192 1.240 . S
O184 In182 2.326 . S
O184 C192 1.252 . S
C185 O188 1.252 . S
C185 O189 1.260 . S
C186 O193 1.240 . S
C186 O194 1.252 . S
C187 O190 1.252 . S
C187 O191 1.260 . S
O188 In182 2.266 . S
O188 C185 1.252 . S
O189 In182 2.326 . S
O189 C185 1.260 . S
O190 In182 2.266 . S
O190 C187 1.252 . S
O191 In182 2.326 . S
O191 C187 1.260 . S
C192 O183 1.240 . S
C192 O184 1.252 . S
O193 In182 2.294 . S
O193 C186 1.240 . S
O194 In182 2.326 . S
O194 C186 1.252 . S
In195 O196 2.294 . S
In195 O197 2.326 . S
In195 O201 2.266 . S
In195 O202 2.326 . S
In195 O203 2.266 . S
In195 O204 2.326 . S
In195 O206 2.294 . S
In195 O207 2.326 . S
O196 In195 2.294 . S
O196 C205 1.240 . S
O197 In195 2.326 . S
O197 C205 1.252 . S
C198 O201 1.252 . S
C198 O202 1.260 . S
C199 O206 1.240 . S
C199 O207 1.252 . S
C200 O203 1.252 . S
C200 O204 1.260 . S
O201 In195 2.266 . S
O201 C198 1.252 . S
O202 In195 2.326 . S
O202 C198 1.260 . S
O203 In195 2.266 . S
O203 C200 1.252 . S
O204 In195 2.326 . S
O204 C200 1.260 . S
C205 O196 1.240 . S
C205 O197 1.252 . S
O206 In195 2.294 . S
O206 C199 1.240 . S
O207 In195 2.326 . S
O207 C199 1.252 . S
In208 O209 2.294 . S
In208 O210 2.326 . S
In208 O214 2.266 . S
In208 O215 2.326 . S
In208 O216 2.266 . S
In208 O217 2.326 . S
In208 O219 2.294 . S
In208 O220 2.326 . S
O209 In208 2.294 . S
O209 C218 1.240 . S
O210 In208 2.326 . S
O210 C218 1.252 . S
C211 O214 1.252 . S
C211 O215 1.260 . S
C212 O219 1.240 . S
C212 O220 1.252 . S
C213 O216 1.252 . S
C213 O217 1.260 . S
O214 In208 2.266 . S
O214 C211 1.252 . S
O215 In208 2.326 . S
O215 C211 1.260 . S
O216 In208 2.266 . S
O216 C213 1.252 . S
O217 In208 2.326 . S
O217 C213 1.260 . S
C218 O209 1.240 . S
C218 O210 1.252 . S
O219 In208 2.294 . S
O219 C212 1.240 . S
O220 In208 2.326 . S
O220 C212 1.252 . S
In221 O222 2.294 . S
In221 O223 2.326 . S
In221 O227 2.266 . S
In221 O228 2.326 . S
In221 O229 2.266 . S
In221 O230 2.326 . S
In221 O232 2.294 . S
In221 O233 2.326 . S
O222 In221 2.294 . S
O222 C231 1.240 . S
O223 In221 2.326 . S
O223 C231 1.252 . S
C224 O227 1.252 . S
C224 O228 1.260 . S
C225 O232 1.240 . S
C225 O233 1.252 . S
C226 O229 1.252 . S
C226 O230 1.260 . S
O227 In221 2.266 . S
O227 C224 1.252 . S
O228 In221 2.326 . S
O228 C224 1.260 . S
O229 In221 2.266 . S
O229 C226 1.252 . S
O230 In221 2.326 . S
O230 C226 1.260 . S
C231 O222 1.240 . S
C231 O223 1.252 . S
O232 In221 2.294 . S
O232 C225 1.240 . S
O233 In221 2.326 . S
O233 C225 1.252 . S
In234 O235 2.294 . S
In234 O236 2.326 . S
In234 O240 2.266 . S
In234 O241 2.326 . S
In234 O242 2.266 . S
In234 O243 2.326 . S
In234 O245 2.294 . S
In234 O246 2.326 . S
O235 In234 2.294 . S
O235 C244 1.240 . S
O236 In234 2.326 . S
O236 C244 1.252 . S
C237 O240 1.252 . S
C237 O241 1.260 . S
C238 O245 1.240 . S
C238 O246 1.252 . S
C239 O242 1.252 . S
C239 O243 1.260 . S
O240 In234 2.266 . S
O240 C237 1.252 . S
O241 In234 2.326 . S
O241 C237 1.260 . S
O242 In234 2.266 . S
O242 C239 1.252 . S
O243 In234 2.326 . S
O243 C239 1.260 . S
C244 O235 1.240 . S
C244 O236 1.252 . S
O245 In234 2.294 . S
O245 C238 1.240 . S
O246 In234 2.326 . S
O246 C238 1.252 . S
In247 O248 2.294 . S
In247 O249 2.326 . S
In247 O253 2.266 . S
In247 O254 2.326 . S
In247 O255 2.266 . S
In247 O256 2.326 . S
In247 O258 2.294 . S
In247 O259 2.326 . S
O248 In247 2.294 . S
O248 C257 1.240 . S
O249 In247 2.326 . S
O249 C257 1.252 . S
C250 O253 1.252 . S
C250 O254 1.260 . S
C251 O258 1.240 . S
C251 O259 1.252 . S
C252 O255 1.252 . S
C252 O256 1.260 . S
O253 In247 2.266 . S
O253 C250 1.252 . S
O254 In247 2.326 . S
O254 C250 1.260 . S
O255 In247 2.266 . S
O255 C252 1.252 . S
O256 In247 2.326 . S
O256 C252 1.260 . S
C257 O248 1.240 . S
C257 O249 1.252 . S
O258 In247 2.294 . S
O258 C251 1.240 . S
O259 In247 2.326 . S
O259 C251 1.252 . S
In260 O261 2.294 . S
In260 O262 2.326 . S
In260 O266 2.266 . S
In260 O267 2.326 . S
In260 O268 2.266 . S
In260 O269 2.326 . S
In260 O271 2.294 . S
In260 O272 2.326 . S
O261 In260 2.294 . S
O261 C270 1.240 . S
O262 In260 2.326 . S
O262 C270 1.252 . S
C263 O266 1.252 . S
C263 O267 1.260 . S
C264 O271 1.240 . S
C264 O272 1.252 . S
C265 O268 1.252 . S
C265 O269 1.260 . S
O266 In260 2.266 . S
O266 C263 1.252 . S
O267 In260 2.326 . S
O267 C263 1.260 . S
O268 In260 2.266 . S
O268 C265 1.252 . S
O269 In260 2.326 . S
O269 C265 1.260 . S
C270 O261 1.240 . S
C270 O262 1.252 . S
O271 In260 2.294 . S
O271 C264 1.240 . S
O272 In260 2.326 . S
O272 C264 1.252 . S
In273 O274 2.294 . S
In273 O275 2.326 . S
In273 O279 2.266 . S
In273 O280 2.326 . S
In273 O281 2.266 . S
In273 O282 2.326 . S
In273 O284 2.294 . S
In273 O285 2.326 . S
O274 In273 2.294 . S
O274 C283 1.240 . S
O275 In273 2.326 . S
O275 C283 1.252 . S
C276 O279 1.252 . S
C276 O280 1.260 . S
C277 O284 1.240 . S
C277 O285 1.252 . S
C278 O281 1.252 . S
C278 O282 1.260 . S
O279 In273 2.266 . S
O279 C276 1.252 . S
O280 In273 2.326 . S
O280 C276 1.260 . S
O281 In273 2.266 . S
O281 C278 1.252 . S
O282 In273 2.326 . S
O282 C278 1.260 . S
C283 O274 1.240 . S
C283 O275 1.252 . S
O284 In273 2.294 . S
O284 C277 1.240 . S
O285 In273 2.326 . S
O285 C277 1.252 . S
In286 O287 2.294 . S
In286 O288 2.326 . S
In286 O292 2.266 . S
In286 O293 2.326 . S
In286 O294 2.266 . S
In286 O295 2.326 . S
In286 O297 2.294 . S
In286 O298 2.326 . S
O287 In286 2.294 . S
O287 C296 1.240 . S
O288 In286 2.326 . S
O288 C296 1.252 . S
C289 O292 1.252 . S
C289 O293 1.260 . S
C290 O297 1.240 . S
C290 O298 1.252 . S
C291 O294 1.252 . S
C291 O295 1.260 . S
O292 In286 2.266 . S
O292 C289 1.252 . S
O293 In286 2.326 . S
O293 C289 1.260 . S
O294 In286 2.266 . S
O294 C291 1.252 . S
O295 In286 2.326 . S
O295 C291 1.260 . S
C296 O287 1.240 . S
C296 O288 1.252 . S
O297 In286 2.294 . S
O297 C290 1.240 . S
O298 In286 2.326 . S
O298 C290 1.252 . S
In299 O300 2.294 . S
In299 O301 2.326 . S
In299 O305 2.266 . S
In299 O306 2.326 . S
In299 O307 2.266 . S
In299 O308 2.326 . S
In299 O310 2.294 . S
In299 O311 2.326 . S
O300 In299 2.294 . S
O300 C309 1.240 . S
O301 In299 2.326 . S
O301 C309 1.252 . S
C302 O305 1.252 . S
C302 O306 1.260 . S
C303 O310 1.240 . S
C303 O311 1.252 . S
C304 O307 1.252 . S
C304 O308 1.260 . S
O305 In299 2.266 . S
O305 C302 1.252 . S
O306 In299 2.326 . S
O306 C302 1.260 . S
O307 In299 2.266 . S
O307 C304 1.252 . S
O308 In299 2.326 . S
O308 C304 1.260 . S
C309 O300 1.240 . S
C309 O301 1.252 . S
O310 In299 2.294 . S
O310 C303 1.240 . S
O311 In299 2.326 . S
O311 C303 1.252 . S
In312 O313 2.294 . S
In312 O314 2.326 . S
In312 O318 2.266 . S
In312 O319 2.326 . S
In312 O320 2.266 . S
In312 O321 2.326 . S
In312 O323 2.294 . S
In312 O324 2.326 . S
O313 In312 2.294 . S
O313 C322 1.240 . S
O314 In312 2.326 . S
O314 C322 1.252 . S
C315 O318 1.252 . S
C315 O319 1.260 . S
C316 O323 1.240 . S
C316 O324 1.252 . S
C317 O320 1.252 . S
C317 O321 1.260 . S
O318 In312 2.266 . S
O318 C315 1.252 . S
O319 In312 2.326 . S
O319 C315 1.260 . S
O320 In312 2.266 . S
O320 C317 1.252 . S
O321 In312 2.326 . S
O321 C317 1.260 . S
C322 O313 1.240 . S
C322 O314 1.252 . S
O323 In312 2.294 . S
O323 C316 1.240 . S
O324 In312 2.326 . S
O324 C316 1.252 . S
In325 O326 2.294 . S
In325 O327 2.326 . S
In325 O331 2.266 . S
In325 O332 2.326 . S
In325 O333 2.266 . S
In325 O334 2.326 . S
In325 O336 2.294 . S
In325 O337 2.326 . S
O326 In325 2.294 . S
O326 C335 1.240 . S
O327 In325 2.326 . S
O327 C335 1.252 . S
C328 O331 1.252 . S
C328 O332 1.260 . S
C329 O336 1.240 . S
C329 O337 1.252 . S
C330 O333 1.252 . S
C330 O334 1.260 . S
O331 In325 2.266 . S
O331 C328 1.252 . S
O332 In325 2.326 . S
O332 C328 1.260 . S
O333 In325 2.266 . S
O333 C330 1.252 . S
O334 In325 2.326 . S
O334 C330 1.260 . S
C335 O326 1.240 . S
C335 O327 1.252 . S
O336 In325 2.294 . S
O336 C329 1.240 . S
O337 In325 2.326 . S
O337 C329 1.252 . S
In338 O339 2.294 . S
In338 O340 2.326 . S
In338 O344 2.266 . S
In338 O345 2.326 . S
In338 O346 2.266 . S
In338 O347 2.326 . S
In338 O349 2.294 . S
In338 O350 2.326 . S
O339 In338 2.294 . S
O339 C348 1.240 . S
O340 In338 2.326 . S
O340 C348 1.252 . S
C341 O344 1.252 . S
C341 O345 1.260 . S
C342 O349 1.240 . S
C342 O350 1.252 . S
C343 O346 1.252 . S
C343 O347 1.260 . S
O344 In338 2.266 . S
O344 C341 1.252 . S
O345 In338 2.326 . S
O345 C341 1.260 . S
O346 In338 2.266 . S
O346 C343 1.252 . S
O347 In338 2.326 . S
O347 C343 1.260 . S
C348 O339 1.240 . S
C348 O340 1.252 . S
O349 In338 2.294 . S
O349 C342 1.240 . S
O350 In338 2.326 . S
O350 C342 1.252 . S
In351 O352 2.294 . S
In351 O353 2.326 . S
In351 O357 2.266 . S
In351 O358 2.326 . S
In351 O359 2.266 . S
In351 O360 2.326 . S
In351 O362 2.294 . S
In351 O363 2.326 . S
O352 In351 2.294 . S
O352 C361 1.240 . S
O353 In351 2.326 . S
O353 C361 1.252 . S
C354 O357 1.252 . S
C354 O358 1.260 . S
C355 O362 1.240 . S
C355 O363 1.252 . S
C356 O359 1.252 . S
C356 O360 1.260 . S
O357 In351 2.266 . S
O357 C354 1.252 . S
O358 In351 2.326 . S
O358 C354 1.260 . S
O359 In351 2.266 . S
O359 C356 1.252 . S
O360 In351 2.326 . S
O360 C356 1.260 . S
C361 O352 1.240 . S
C361 O353 1.252 . S
O362 In351 2.294 . S
O362 C355 1.240 . S
O363 In351 2.326 . S
O363 C355 1.252 . S
In364 O365 2.294 . S
In364 O366 2.326 . S
In364 O370 2.266 . S
In364 O371 2.326 . S
In364 O372 2.266 . S
In364 O373 2.326 . S
In364 O375 2.294 . S
In364 O376 2.326 . S
O365 In364 2.294 . S
O365 C374 1.240 . S
O366 In364 2.326 . S
O366 C374 1.252 . S
C367 O370 1.252 . S
C367 O371 1.260 . S
C368 O375 1.240 . S
C368 O376 1.252 . S
C369 O372 1.252 . S
C369 O373 1.260 . S
O370 In364 2.266 . S
O370 C367 1.252 . S
O371 In364 2.326 . S
O371 C367 1.260 . S
O372 In364 2.266 . S
O372 C369 1.252 . S
O373 In364 2.326 . S
O373 C369 1.260 . S
C374 O365 1.240 . S
C374 O366 1.252 . S
O375 In364 2.294 . S
O375 C368 1.240 . S
O376 In364 2.326 . S
O376 C368 1.252 . S
In377 O378 2.294 . S
In377 O379 2.326 . S
In377 O383 2.266 . S
In377 O384 2.326 . S
In377 O385 2.266 . S
In377 O386 2.326 . S
In377 O388 2.294 . S
In377 O389 2.326 . S
O378 In377 2.294 . S
O378 C387 1.240 . S
O379 In377 2.326 . S
O379 C387 1.252 . S
C380 O383 1.252 . S
C380 O384 1.260 . S
C381 O388 1.240 . S
C381 O389 1.252 . S
C382 O385 1.252 . S
C382 O386 1.260 . S
O383 In377 2.266 . S
O383 C380 1.252 . S
O384 In377 2.326 . S
O384 C380 1.260 . S
O385 In377 2.266 . S
O385 C382 1.252 . S
O386 In377 2.326 . S
O386 C382 1.260 . S
C387 O378 1.240 . S
C387 O379 1.252 . S
O388 In377 2.294 . S
O388 C381 1.240 . S
O389 In377 2.326 . S
O389 C381 1.252 . S
In390 O391 2.294 . S
In390 O392 2.326 . S
In390 O396 2.266 . S
In390 O397 2.326 . S
In390 O398 2.266 . S
In390 O399 2.326 . S
In390 O401 2.294 . S
In390 O402 2.326 . S
O391 In390 2.294 . S
O391 C400 1.240 . S
O392 In390 2.326 . S
O392 C400 1.252 . S
C393 O396 1.252 . S
C393 O397 1.260 . S
C394 O401 1.240 . S
C394 O402 1.252 . S
C395 O398 1.252 . S
C395 O399 1.260 . S
O396 In390 2.266 . S
O396 C393 1.252 . S
O397 In390 2.326 . S
O397 C393 1.260 . S
O398 In390 2.266 . S
O398 C395 1.252 . S
O399 In390 2.326 . S
O399 C395 1.260 . S
C400 O391 1.240 . S
C400 O392 1.252 . S
O401 In390 2.294 . S
O401 C394 1.240 . S
O402 In390 2.326 . S
O402 C394 1.252 . S
In403 O404 2.294 . S
In403 O405 2.326 . S
In403 O409 2.266 . S
In403 O410 2.326 . S
In403 O411 2.266 . S
In403 O412 2.326 . S
In403 O414 2.294 . S
In403 O415 2.326 . S
O404 In403 2.294 . S
O404 C413 1.240 . S
O405 In403 2.326 . S
O405 C413 1.252 . S
C406 O409 1.252 . S
C406 O410 1.260 . S
C407 O414 1.240 . S
C407 O415 1.252 . S
C408 O411 1.252 . S
C408 O412 1.260 . S
O409 In403 2.266 . S
O409 C406 1.252 . S
O410 In403 2.326 . S
O410 C406 1.260 . S
O411 In403 2.266 . S
O411 C408 1.252 . S
O412 In403 2.326 . S
O412 C408 1.260 . S
C413 O404 1.240 . S
C413 O405 1.252 . S
O414 In403 2.294 . S
O414 C407 1.240 . S
O415 In403 2.326 . S
O415 C407 1.252 . S
In416 O417 2.294 . S
In416 O418 2.326 . S
In416 O422 2.266 . S
In416 O423 2.326 . S
In416 O424 2.266 . S
In416 O425 2.326 . S
In416 O427 2.294 . S
In416 O428 2.326 . S
O417 In416 2.294 . S
O417 C426 1.240 . S
O418 In416 2.326 . S
O418 C426 1.252 . S
C419 O422 1.252 . S
C419 O423 1.260 . S
C420 O427 1.240 . S
C420 O428 1.252 . S
C421 O424 1.252 . S
C421 O425 1.260 . S
O422 In416 2.266 . S
O422 C419 1.252 . S
O423 In416 2.326 . S
O423 C419 1.260 . S
O424 In416 2.266 . S
O424 C421 1.252 . S
O425 In416 2.326 . S
O425 C421 1.260 . S
C426 O417 1.240 . S
C426 O418 1.252 . S
O427 In416 2.294 . S
O427 C420 1.240 . S
O428 In416 2.326 . S
O428 C420 1.252 . S
In429 O430 2.294 . S
In429 O431 2.326 . S
In429 O435 2.266 . S
In429 O436 2.326 . S
In429 O437 2.266 . S
In429 O438 2.326 . S
In429 O440 2.294 . S
In429 O441 2.326 . S
O430 In429 2.294 . S
O430 C439 1.240 . S
O431 In429 2.326 . S
O431 C439 1.252 . S
C432 O435 1.252 . S
C432 O436 1.260 . S
C433 O440 1.240 . S
C433 O441 1.252 . S
C434 O437 1.252 . S
C434 O438 1.260 . S
O435 In429 2.266 . S
O435 C432 1.252 . S
O436 In429 2.326 . S
O436 C432 1.260 . S
O437 In429 2.266 . S
O437 C434 1.252 . S
O438 In429 2.326 . S
O438 C434 1.260 . S
C439 O430 1.240 . S
C439 O431 1.252 . S
O440 In429 2.294 . S
O440 C433 1.240 . S
O441 In429 2.326 . S
O441 C433 1.252 . S
In442 O443 2.294 . S
In442 O444 2.326 . S
In442 O448 2.266 . S
In442 O449 2.326 . S
In442 O450 2.266 . S
In442 O451 2.326 . S
In442 O453 2.294 . S
In442 O454 2.326 . S
O443 In442 2.294 . S
O443 C452 1.240 . S
O444 In442 2.326 . S
O444 C452 1.252 . S
C445 O448 1.252 . S
C445 O449 1.260 . S
C446 O453 1.240 . S
C446 O454 1.252 . S
C447 O450 1.252 . S
C447 O451 1.260 . S
O448 In442 2.266 . S
O448 C445 1.252 . S
O449 In442 2.326 . S
O449 C445 1.260 . S
O450 In442 2.266 . S
O450 C447 1.252 . S
O451 In442 2.326 . S
O451 C447 1.260 . S
C452 O443 1.240 . S
C452 O444 1.252 . S
O453 In442 2.294 . S
O453 C446 1.240 . S
O454 In442 2.326 . S
O454 C446 1.252 . S
In455 O456 2.294 . S
In455 O457 2.326 . S
In455 O461 2.266 . S
In455 O462 2.326 . S
In455 O463 2.266 . S
In455 O464 2.326 . S
In455 O466 2.294 . S
In455 O467 2.326 . S
O456 In455 2.294 . S
O456 C465 1.240 . S
O457 In455 2.326 . S
O457 C465 1.252 . S
C458 O461 1.252 . S
C458 O462 1.260 . S
C459 O466 1.240 . S
C459 O467 1.252 . S
C460 O463 1.252 . S
C460 O464 1.260 . S
O461 In455 2.266 . S
O461 C458 1.252 . S
O462 In455 2.326 . S
O462 C458 1.260 . S
O463 In455 2.266 . S
O463 C460 1.252 . S
O464 In455 2.326 . S
O464 C460 1.260 . S
C465 O456 1.240 . S
C465 O457 1.252 . S
O466 In455 2.294 . S
O466 C459 1.240 . S
O467 In455 2.326 . S
O467 C459 1.252 . S
C468 C469 1.363 . S
C468 C474 1.379 . S
C468 N476 1.356 . S
C469 C468 1.363 . S
C469 C475 1.363 . S
C470 C471 1.363 . S
C470 C475 1.379 . S
C470 N477 1.356 . S
C471 C470 1.363 . S
C471 C474 1.363 . S
N472 C474 1.356 . S
N472 H484 0.984 . S
N472 H485 0.985 . S
N473 C475 1.356 . S
N473 H478 0.984 . S
N473 H479 0.985 . S
C474 C468 1.379 . S
C474 C471 1.363 . S
C474 N472 1.356 . S
C475 C469 1.363 . S
C475 C470 1.379 . S
C475 N473 1.356 . S
N476 C468 1.356 . S
N476 H482 0.984 . S
N476 H483 0.984 . S
N477 C470 1.356 . S
N477 H480 0.984 . S
N477 H481 0.985 . S
H478 N473 0.984 . S
H479 N473 0.985 . S
H480 N477 0.984 . S
H481 N477 0.985 . S
H482 N476 0.984 . S
H483 N476 0.984 . S
H484 N472 0.984 . S
H485 N472 0.985 . S
C486 C487 1.363 . S
C486 C492 1.379 . S
C486 N494 1.356 . S
C487 C486 1.363 . S
C487 C493 1.363 . S
C488 C489 1.363 . S
C488 C493 1.379 . S
C488 N495 1.356 . S
C489 C488 1.363 . S
C489 C492 1.363 . S
N490 C492 1.356 . S
N490 H502 0.984 . S
N490 H503 0.985 . S
N491 C493 1.356 . S
N491 H496 0.984 . S
N491 H497 0.985 1_554 S
C492 C486 1.379 . S
C492 C489 1.363 . S
C492 N490 1.356 . S
C493 C487 1.363 . S
C493 C488 1.379 . S
C493 N491 1.356 . S
N494 C486 1.356 . S
N494 H500 0.984 . S
N494 H501 0.984 . S
N495 C488 1.356 . S
N495 H498 0.984 . S
N495 H499 0.985 1_554 S
H496 N491 0.984 . S
H497 N491 0.985 1_556 S
H498 N495 0.984 . S
H499 N495 0.985 1_556 S
H500 N494 0.984 . S
H501 N494 0.984 . S
H502 N490 0.984 . S
H503 N490 0.985 . S
C504 C505 1.363 . S
C504 C510 1.379 . S
C504 N512 1.356 . S
C505 C504 1.363 . S
C505 C511 1.363 . S
C506 C507 1.363 . S
C506 C511 1.379 . S
C506 N513 1.356 . S
C507 C506 1.363 . S
C507 C510 1.363 . S
N508 C510 1.356 . S
N508 H520 0.984 . S
N508 H521 0.985 . S
N509 C511 1.356 . S
N509 H514 0.984 . S
N509 H515 0.985 1_554 S
C510 C504 1.379 . S
C510 C507 1.363 . S
C510 N508 1.356 . S
C511 C505 1.363 . S
C511 C506 1.379 . S
C511 N509 1.356 . S
N512 C504 1.356 . S
N512 H518 0.984 . S
N512 H519 0.984 . S
N513 C506 1.356 . S
N513 H516 0.984 . S
N513 H517 0.985 1_554 S
H514 N509 0.984 . S
H515 N509 0.985 1_556 S
H516 N513 0.984 . S
H517 N513 0.985 1_556 S
H518 N512 0.984 . S
H519 N512 0.984 . S
H520 N508 0.984 . S
H521 N508 0.985 . S
C522 C523 1.363 . S
C522 C528 1.379 . S
C522 N530 1.356 . S
C523 C522 1.363 . S
C523 C529 1.363 . S
C524 C525 1.363 . S
C524 C529 1.379 . S
C524 N531 1.356 . S
C525 C524 1.363 . S
C525 C528 1.363 . S
N526 C528 1.356 . S
N526 H538 0.984 1_556 S
N526 H539 0.985 . S
N527 C529 1.356 . S
N527 H532 0.984 . S
N527 H533 0.985 . S
C528 C522 1.379 . S
C528 C525 1.363 . S
C528 N526 1.356 . S
C529 C523 1.363 . S
C529 C524 1.379 . S
C529 N527 1.356 . S
N530 C522 1.356 . S
N530 H536 0.984 1_556 S
N530 H537 0.984 . S
N531 C524 1.356 . S
N531 H534 0.984 . S
N531 H535 0.985 . S
H532 N527 0.984 . S
H533 N527 0.985 . S
H534 N531 0.984 . S
H535 N531 0.985 . S
H536 N530 0.984 1_554 S
H537 N530 0.984 . S
H538 N526 0.984 1_554 S
H539 N526 0.985 . S
C540 C541 1.363 . S
C540 C546 1.379 . S
C540 N548 1.356 . S
C541 C540 1.363 . S
C541 C547 1.363 . S
C542 C543 1.363 . S
C542 C547 1.379 . S
C542 N549 1.356 . S
C543 C542 1.363 . S
C543 C546 1.363 . S
N544 C546 1.356 . S
N544 H556 0.984 . S
N544 H557 0.985 . S
N545 C547 1.356 . S
N545 H550 0.984 . S
N545 H551 0.985 1_556 S
C546 C540 1.379 . S
C546 C543 1.363 . S
C546 N544 1.356 . S
C547 C541 1.363 . S
C547 C542 1.379 . S
C547 N545 1.356 . S
N548 C540 1.356 . S
N548 H554 0.984 . S
N548 H555 0.984 . S
N549 C542 1.356 . S
N549 H552 0.984 . S
N549 H553 0.985 1_556 S
H550 N545 0.984 . S
H551 N545 0.985 1_554 S
H552 N549 0.984 . S
H553 N549 0.985 1_554 S
H554 N548 0.984 . S
H555 N548 0.984 . S
H556 N544 0.984 . S
H557 N544 0.985 . S
C558 C559 1.363 . S
C558 C564 1.379 . S
C558 N566 1.356 . S
C559 C558 1.363 . S
C559 C565 1.363 . S
C560 C561 1.363 . S
C560 C565 1.379 . S
C560 N567 1.356 . S
C561 C560 1.363 . S
C561 C564 1.363 . S
N562 C564 1.356 . S
N562 H574 0.984 1_556 S
N562 H575 0.985 . S
N563 C565 1.356 . S
N563 H568 0.984 . S
N563 H569 0.985 . S
C564 C558 1.379 . S
C564 C561 1.363 . S
C564 N562 1.356 . S
C565 C559 1.363 . S
C565 C560 1.379 . S
C565 N563 1.356 . S
N566 C558 1.356 . S
N566 H572 0.984 1_556 S
N566 H573 0.984 . S
N567 C560 1.356 . S
N567 H570 0.984 . S
N567 H571 0.985 . S
H568 N563 0.984 . S
H569 N563 0.985 . S
H570 N567 0.984 . S
H571 N567 0.985 . S
H572 N566 0.984 1_554 S
H573 N566 0.984 . S
H574 N562 0.984 1_554 S
H575 N562 0.985 . S
C576 C577 1.363 . S
C576 C582 1.379 . S
C576 N584 1.356 . S
C577 C576 1.363 . S
C577 C583 1.363 . S
C578 C579 1.363 . S
C578 C583 1.379 . S
C578 N585 1.356 . S
C579 C578 1.363 . S
C579 C582 1.363 . S
N580 C582 1.356 . S
N580 H592 0.984 . S
N580 H593 0.985 . S
N581 C583 1.356 . S
N581 H586 0.984 . S
N581 H587 0.985 . S
C582 C576 1.379 . S
C582 C579 1.363 . S
C582 N580 1.356 . S
C583 C577 1.363 . S
C583 C578 1.379 . S
C583 N581 1.356 . S
N584 C576 1.356 . S
N584 H590 0.984 . S
N584 H591 0.984 . S
N585 C578 1.356 . S
N585 H588 0.984 . S
N585 H589 0.985 . S
H586 N581 0.984 . S
H587 N581 0.985 . S
H588 N585 0.984 . S
H589 N585 0.985 . S
H590 N584 0.984 . S
H591 N584 0.984 . S
H592 N580 0.984 . S
H593 N580 0.985 . S
C594 C595 1.363 . S
C594 C600 1.379 . S
C594 N602 1.356 . S
C595 C594 1.363 . S
C595 C601 1.363 . S
C596 C597 1.363 . S
C596 C601 1.379 . S
C596 N603 1.356 . S
C597 C596 1.363 . S
C597 C600 1.363 . S
N598 C600 1.356 . S
N598 H610 0.984 . S
N598 H611 0.985 . S
N599 C601 1.356 . S
N599 H604 0.984 . S
N599 H605 0.985 . S
C600 C594 1.379 . S
C600 C597 1.363 . S
C600 N598 1.356 . S
C601 C595 1.363 . S
C601 C596 1.379 . S
C601 N599 1.356 . S
N602 C594 1.356 . S
N602 H608 0.984 . S
N602 H609 0.984 . S
N603 C596 1.356 . S
N603 H606 0.984 . S
N603 H607 0.985 . S
H604 N599 0.984 . S
H605 N599 0.985 . S
H606 N603 0.984 . S
H607 N603 0.985 . S
H608 N602 0.984 . S
H609 N602 0.984 . S
H610 N598 0.984 . S
H611 N598 0.985 . S
C612 C613 1.363 . S
C612 C618 1.379 . S
C612 N620 1.356 . S
C613 C612 1.363 . S
C613 C619 1.363 . S
C614 C615 1.363 . S
C614 C619 1.379 . S
C614 N621 1.356 . S
C615 C614 1.363 . S
C615 C618 1.363 . S
N616 C618 1.356 . S
N616 H628 0.984 . S
N616 H629 0.985 . S
N617 C619 1.356 . S
N617 H622 0.984 . S
N617 H623 0.985 . S
C618 C612 1.379 . S
C618 C615 1.363 . S
C618 N616 1.356 . S
C619 C613 1.363 . S
C619 C614 1.379 . S
C619 N617 1.356 . S
N620 C612 1.356 . S
N620 H626 0.984 . S
N620 H627 0.984 . S
N621 C614 1.356 . S
N621 H624 0.984 . S
N621 H625 0.985 . S
H622 N617 0.984 . S
H623 N617 0.985 . S
H624 N621 0.984 . S
H625 N621 0.985 . S
H626 N620 0.984 . S
H627 N620 0.984 . S
H628 N616 0.984 . S
H629 N616 0.985 . S
C630 C631 1.363 . S
C630 C636 1.379 . S
C630 N638 1.356 . S
C631 C630 1.363 . S
C631 C637 1.363 . S
C632 C633 1.363 . S
C632 C637 1.379 . S
C632 N639 1.356 . S
C633 C632 1.363 . S
C633 C636 1.363 . S
N634 C636 1.356 . S
N634 H646 0.984 . S
N634 H647 0.985 . S
N635 C637 1.356 . S
N635 H640 0.984 . S
N635 H641 0.985 . S
C636 C630 1.379 . S
C636 C633 1.363 . S
C636 N634 1.356 . S
C637 C631 1.363 . S
C637 C632 1.379 . S
C637 N635 1.356 . S
N638 C630 1.356 . S
N638 H644 0.984 . S
N638 H645 0.984 . S
N639 C632 1.356 . S
N639 H642 0.984 . S
N639 H643 0.985 . S
H640 N635 0.984 . S
H641 N635 0.985 . S
H642 N639 0.984 . S
H643 N639 0.985 . S
H644 N638 0.984 . S
H645 N638 0.984 . S
H646 N634 0.984 . S
H647 N634 0.985 . S
C648 C649 1.363 . S
C648 C654 1.379 . S
C648 N656 1.356 . S
C649 C648 1.363 . S
C649 C655 1.363 . S
C650 C651 1.363 . S
C650 C655 1.379 . S
C650 N657 1.356 . S
C651 C650 1.363 . S
C651 C654 1.363 . S
N652 C654 1.356 . S
N652 H664 0.984 . S
N652 H665 0.985 . S
N653 C655 1.356 . S
N653 H658 0.984 . S
N653 H659 0.985 . S
C654 C648 1.379 . S
C654 C651 1.363 . S
C654 N652 1.356 . S
C655 C649 1.363 . S
C655 C650 1.379 . S
C655 N653 1.356 . S
N656 C648 1.356 . S
N656 H662 0.984 . S
N656 H663 0.984 . S
N657 C650 1.356 . S
N657 H660 0.984 . S
N657 H661 0.985 . S
H658 N653 0.984 . S
H659 N653 0.985 . S
H660 N657 0.984 . S
H661 N657 0.985 . S
H662 N656 0.984 . S
H663 N656 0.984 . S
H664 N652 0.984 . S
H665 N652 0.985 . S
C666 C667 1.363 . S
C666 C672 1.379 . S
C666 N674 1.356 . S
C667 C666 1.363 . S
C667 C673 1.363 . S
C668 C669 1.363 . S
C668 C673 1.379 . S
C668 N675 1.356 . S
C669 C668 1.363 . S
C669 C672 1.363 . S
N670 C672 1.356 . S
N670 H682 0.984 . S
N670 H683 0.985 . S
N671 C673 1.356 . S
N671 H676 0.984 . S
N671 H677 0.985 . S
C672 C666 1.379 . S
C672 C669 1.363 . S
C672 N670 1.356 . S
C673 C667 1.363 . S
C673 C668 1.379 . S
C673 N671 1.356 . S
N674 C666 1.356 . S
N674 H680 0.984 . S
N674 H681 0.984 . S
N675 C668 1.356 . S
N675 H678 0.984 . S
N675 H679 0.985 . S
H676 N671 0.984 . S
H677 N671 0.985 . S
H678 N675 0.984 . S
H679 N675 0.985 . S
H680 N674 0.984 . S
H681 N674 0.984 . S
H682 N670 0.984 . S
H683 N670 0.985 . S
C684 C685 1.363 . S
C684 C690 1.379 . S
C684 N692 1.356 . S
C685 C684 1.363 . S
C685 C691 1.363 . S
C686 C687 1.363 . S
C686 C691 1.379 . S
C686 N693 1.356 . S
C687 C686 1.363 . S
C687 C690 1.363 . S
N688 C690 1.356 . S
N688 H700 0.984 . S
N688 H701 0.985 . S
N689 C691 1.356 . S
N689 H694 0.984 . S
N689 H695 0.985 . S
C690 C684 1.379 . S
C690 C687 1.363 . S
C690 N688 1.356 . S
C691 C685 1.363 . S
C691 C686 1.379 . S
C691 N689 1.356 . S
N692 C684 1.356 . S
N692 H698 0.984 . S
N692 H699 0.984 . S
N693 C686 1.356 . S
N693 H696 0.984 . S
N693 H697 0.985 . S
H694 N689 0.984 . S
H695 N689 0.985 . S
H696 N693 0.984 . S
H697 N693 0.985 . S
H698 N692 0.984 . S
H699 N692 0.984 . S
H700 N688 0.984 . S
H701 N688 0.985 . S
C702 C703 1.363 . S
C702 C708 1.379 . S
C702 N710 1.356 . S
C703 C702 1.363 . S
C703 C709 1.363 . S
C704 C705 1.363 . S
C704 C709 1.379 . S
C704 N711 1.356 . S
C705 C704 1.363 . S
C705 C708 1.363 . S
N706 C708 1.356 . S
N706 H718 0.984 . S
N706 H719 0.985 . S
N707 C709 1.356 . S
N707 H712 0.984 . S
N707 H713 0.985 . S
C708 C702 1.379 . S
C708 C705 1.363 . S
C708 N706 1.356 . S
C709 C703 1.363 . S
C709 C704 1.379 . S
C709 N707 1.356 . S
N710 C702 1.356 . S
N710 H716 0.984 . S
N710 H717 0.984 . S
N711 C704 1.356 . S
N711 H714 0.984 . S
N711 H715 0.985 . S
H712 N707 0.984 . S
H713 N707 0.985 . S
H714 N711 0.984 . S
H715 N711 0.985 . S
H716 N710 0.984 . S
H717 N710 0.984 . S
H718 N706 0.984 . S
H719 N706 0.985 . S
C720 C721 1.363 . S
C720 C726 1.379 . S
C720 N728 1.356 . S
C721 C720 1.363 . S
C721 C727 1.363 . S
C722 C723 1.363 . S
C722 C727 1.379 . S
C722 N729 1.356 . S
C723 C722 1.363 . S
C723 C726 1.363 . S
N724 C726 1.356 . S
N724 H736 0.984 . S
N724 H737 0.985 . S
N725 C727 1.356 . S
N725 H730 0.984 . S
N725 H731 0.985 . S
C726 C720 1.379 . S
C726 C723 1.363 . S
C726 N724 1.356 . S
C727 C721 1.363 . S
C727 C722 1.379 . S
C727 N725 1.356 . S
N728 C720 1.356 . S
N728 H734 0.984 . S
N728 H735 0.984 . S
N729 C722 1.356 . S
N729 H732 0.984 . S
N729 H733 0.985 . S
H730 N725 0.984 . S
H731 N725 0.985 . S
H732 N729 0.984 . S
H733 N729 0.985 . S
H734 N728 0.984 . S
H735 N728 0.984 . S
H736 N724 0.984 . S
H737 N724 0.985 . S
C738 C739 1.363 . S
C738 C744 1.379 . S
C738 N746 1.356 . S
C739 C738 1.363 . S
C739 C745 1.363 . S
C740 C741 1.363 . S
C740 C745 1.379 . S
C740 N747 1.356 . S
C741 C740 1.363 . S
C741 C744 1.363 . S
N742 C744 1.356 . S
N742 H754 0.984 . S
N742 H755 0.985 . S
N743 C745 1.356 . S
N743 H748 0.984 . S
N743 H749 0.985 . S
C744 C738 1.379 . S
C744 C741 1.363 . S
C744 N742 1.356 . S
C745 C739 1.363 . S
C745 C740 1.379 . S
C745 N743 1.356 . S
N746 C738 1.356 . S
N746 H752 0.984 . S
N746 H753 0.984 . S
N747 C740 1.356 . S
N747 H750 0.984 . S
N747 H751 0.985 . S
H748 N743 0.984 . S
H749 N743 0.985 . S
H750 N747 0.984 . S
H751 N747 0.985 . S
H752 N746 0.984 . S
H753 N746 0.984 . S
H754 N742 0.984 . S
H755 N742 0.985 . S
C756 C757 1.363 . S
C756 C762 1.379 . S
C756 N764 1.356 . S
C757 C756 1.363 . S
C757 C763 1.363 . S
C758 C759 1.363 . S
C758 C763 1.379 . S
C758 N765 1.356 . S
C759 C758 1.363 . S
C759 C762 1.363 . S
N760 C762 1.356 . S
N760 H772 0.984 . S
N760 H773 0.985 . S
N761 C763 1.356 . S
N761 H766 0.984 . S
N761 H767 0.985 . S
C762 C756 1.379 . S
C762 C759 1.363 . S
C762 N760 1.356 . S
C763 C757 1.363 . S
C763 C758 1.379 . S
C763 N761 1.356 . S
N764 C756 1.356 . S
N764 H770 0.984 . S
N764 H771 0.984 . S
N765 C758 1.356 . S
N765 H768 0.984 . S
N765 H769 0.985 . S
H766 N761 0.984 . S
H767 N761 0.985 . S
H768 N765 0.984 . S
H769 N765 0.985 . S
H770 N764 0.984 . S
H771 N764 0.984 . S
H772 N760 0.984 . S
H773 N760 0.985 . S
C774 C775 1.363 . S
C774 C780 1.379 . S
C774 N782 1.356 . S
C775 C774 1.363 . S
C775 C781 1.363 . S
C776 C777 1.363 . S
C776 C781 1.379 . S
C776 N783 1.356 . S
C777 C776 1.363 . S
C777 C780 1.363 . S
N778 C780 1.356 . S
N778 H790 0.984 . S
N778 H791 0.985 . S
N779 C781 1.356 . S
N779 H784 0.984 . S
N779 H785 0.985 . S
C780 C774 1.379 . S
C780 C777 1.363 . S
C780 N778 1.356 . S
C781 C775 1.363 . S
C781 C776 1.379 . S
C781 N779 1.356 . S
N782 C774 1.356 . S
N782 H788 0.984 . S
N782 H789 0.984 . S
N783 C776 1.356 . S
N783 H786 0.984 . S
N783 H787 0.985 . S
H784 N779 0.984 . S
H785 N779 0.985 . S
H786 N783 0.984 . S
H787 N783 0.985 . S
H788 N782 0.984 . S
H789 N782 0.984 . S
H790 N778 0.984 . S
H791 N778 0.985 . S
C792 C793 1.363 . S
C792 C798 1.379 1_455 S
C792 N800 1.356 . S
C793 C792 1.363 . S
C793 C799 1.363 1_554 S
C794 C795 1.363 . S
C794 C799 1.379 1_655 S
C794 N801 1.356 . S
C795 C794 1.363 . S
C795 C798 1.363 1_556 S
N796 C798 1.358 . S
N796 H808 0.993 . S
N796 H809 0.975 1_554 S
N797 C799 1.358 . S
N797 H802 0.976 1_556 S
N797 H803 0.992 . S
C798 C792 1.379 1_655 S
C798 C795 1.363 1_554 S
C798 N796 1.358 . S
C799 C793 1.363 1_556 S
C799 C794 1.379 1_455 S
C799 N797 1.358 . S
N800 C792 1.356 . S
N800 H806 0.984 . S
N800 H807 0.984 . S
N801 C794 1.356 . S
N801 H804 0.984 . S
N801 H805 0.985 . S
H802 N797 0.976 1_554 S
H803 N797 0.992 . S
H804 N801 0.984 . S
H805 N801 0.985 . S
H806 N800 0.984 . S
H807 N800 0.984 . S
H808 N796 0.993 . S
H809 N796 0.975 1_556 S
C810 C811 1.363 . S
C810 C816 1.379 1_556 S
C810 N818 1.356 . S
C811 C810 1.363 . S
C811 C817 1.363 . S
C812 C813 1.363 . S
C812 C817 1.379 1_554 S
C812 N819 1.356 . S
C813 C812 1.363 . S
C813 C816 1.363 . S
N814 C816 1.356 . S
N814 H826 0.984 . S
N814 H827 0.985 . S
N815 C817 1.356 . S
N815 H820 0.984 . S
N815 H821 0.985 . S
C816 C810 1.379 1_554 S
C816 C813 1.363 . S
C816 N814 1.356 . S
C817 C811 1.363 . S
C817 C812 1.379 1_556 S
C817 N815 1.356 . S
N818 C810 1.356 . S
N818 H824 0.984 . S
N818 H825 0.984 . S
N819 C812 1.356 . S
N819 H822 0.984 . S
N819 H823 0.985 . S
H820 N815 0.984 . S
H821 N815 0.985 . S
H822 N819 0.984 . S
H823 N819 0.985 . S
H824 N818 0.984 . S
H825 N818 0.984 . S
H826 N814 0.984 . S
H827 N814 0.985 . S
C828 C829 1.363 . S
C828 C834 1.379 1_565 S
C828 N836 1.356 . S
C829 C828 1.363 . S
C829 C835 1.363 1_554 S
C830 C831 1.363 . S
C830 C835 1.379 1_545 S
C830 N837 1.356 . S
C831 C830 1.363 . S
C831 C834 1.363 1_556 S
N832 C834 1.356 . S
N832 H844 0.984 . S
N832 H845 0.985 1_554 S
N833 C835 1.356 . S
N833 H838 0.984 1_556 S
N833 H839 0.985 . S
C834 C828 1.379 1_545 S
C834 C831 1.363 1_554 S
C834 N832 1.356 . S
C835 C829 1.363 1_556 S
C835 C830 1.379 1_565 S
C835 N833 1.356 . S
N836 C828 1.356 . S
N836 H842 0.984 . S
N836 H843 0.984 . S
N837 C830 1.356 . S
N837 H840 0.984 . S
N837 H841 0.985 . S
H838 N833 0.984 1_554 S
H839 N833 0.985 . S
H840 N837 0.984 . S
H841 N837 0.985 . S
H842 N836 0.984 . S
H843 N836 0.984 . S
H844 N832 0.984 . S
H845 N832 0.985 1_556 S
C846 C847 1.363 1_554 S
C846 C852 1.379 1_655 S
C846 N854 1.356 . S
C847 C846 1.363 1_556 S
C847 C853 1.363 . S
C848 C849 1.363 1_556 S
C848 C853 1.379 1_455 S
C848 N855 1.356 . S
C849 C848 1.363 1_554 S
C849 C852 1.363 . S
N850 C852 1.356 . S
N850 H862 0.984 . S
N850 H863 0.985 . S
N851 C853 1.356 . S
N851 H856 0.984 . S
N851 H857 0.985 . S
C852 C846 1.379 1_455 S
C852 C849 1.363 . S
C852 N850 1.356 . S
C853 C847 1.363 . S
C853 C848 1.379 1_655 S
C853 N851 1.356 . S
N854 C846 1.356 . S
N854 H860 0.984 . S
N854 H861 0.984 1_554 S
N855 C848 1.356 . S
N855 H858 0.984 1_556 S
N855 H859 0.985 . S
H856 N851 0.984 . S
H857 N851 0.985 . S
H858 N855 0.984 1_554 S
H859 N855 0.985 . S
H860 N854 0.984 . S
H861 N854 0.984 1_556 S
H862 N850 0.984 . S
H863 N850 0.985 . S
C864 C865 1.363 . S
C864 C870 1.379 1_556 S
C864 N872 1.356 . S
C865 C864 1.363 . S
C865 C871 1.363 . S
C866 C867 1.363 . S
C866 C871 1.379 1_554 S
C866 N873 1.356 . S
C867 C866 1.363 . S
C867 C870 1.363 . S
N868 C870 1.356 . S
N868 H880 0.984 . S
N868 H881 0.985 . S
N869 C871 1.356 . S
N869 H874 0.984 . S
N869 H875 0.985 . S
C870 C864 1.379 1_554 S
C870 C867 1.363 . S
C870 N868 1.356 . S
C871 C865 1.363 . S
C871 C866 1.379 1_556 S
C871 N869 1.356 . S
N872 C864 1.356 . S
N872 H878 0.984 . S
N872 H879 0.984 . S
N873 C866 1.356 . S
N873 H876 0.984 . S
N873 H877 0.985 . S
H874 N869 0.984 . S
H875 N869 0.985 . S
H876 N873 0.984 . S
H877 N873 0.985 . S
H878 N872 0.984 . S
H879 N872 0.984 . S
H880 N868 0.984 . S
H881 N868 0.985 . S
C882 C883 1.363 1_554 S
C882 C888 1.379 1_545 S
C882 N890 1.356 . S
C883 C882 1.363 1_556 S
C883 C889 1.363 . S
C884 C885 1.363 1_556 S
C884 C889 1.379 1_565 S
C884 N891 1.356 . S
C885 C884 1.363 1_554 S
C885 C888 1.363 . S
N886 C888 1.356 . S
N886 H898 0.984 . S
N886 H899 0.985 . S
N887 C889 1.356 . S
N887 H892 0.984 . S
N887 H893 0.985 . S
C888 C882 1.379 1_565 S
C888 C885 1.363 . S
C888 N886 1.356 . S
C889 C883 1.363 . S
C889 C884 1.379 1_545 S
C889 N887 1.356 . S
N890 C882 1.356 . S
N890 H896 0.984 . S
N890 H897 0.984 . S
N891 C884 1.356 . S
N891 H894 0.984 . S
N891 H895 0.985 . S
H892 N887 0.984 . S
H893 N887 0.985 . S
H894 N891 0.984 . S
H895 N891 0.985 . S
H896 N890 0.984 . S
H897 N890 0.984 . S
H898 N886 0.984 . S
H899 N886 0.985 . S
C900 C901 1.363 . S
C900 C906 1.379 . S
C900 N908 1.356 . S
C901 C900 1.363 . S
C901 C907 1.363 . S
C902 C903 1.363 . S
C902 C907 1.379 . S
C902 N909 1.356 . S
C903 C902 1.363 . S
C903 C906 1.363 . S
N904 C906 1.356 . S
N904 H916 0.984 . S
N904 H917 0.985 . S
N905 C907 1.356 . S
N905 H910 0.984 . S
N905 H911 0.985 . S
C906 C900 1.379 . S
C906 C903 1.363 . S
C906 N904 1.356 . S
C907 C901 1.363 . S
C907 C902 1.379 . S
C907 N905 1.356 . S
N908 C900 1.356 . S
N908 H914 0.984 . S
N908 H915 0.984 . S
N909 C902 1.356 . S
N909 H912 0.984 . S
N909 H913 0.985 . S
H910 N905 0.984 . S
H911 N905 0.985 . S
H912 N909 0.984 . S
H913 N909 0.985 . S
H914 N908 0.984 . S
H915 N908 0.984 . S
H916 N904 0.984 . S
H917 N904 0.985 . S
C918 C919 1.363 . S
C918 C924 1.379 . S
C918 N926 1.356 . S
C919 C918 1.363 . S
C919 C925 1.363 . S
C920 C921 1.363 . S
C920 C925 1.379 . S
C920 N927 1.356 . S
C921 C920 1.363 . S
C921 C924 1.363 . S
N922 C924 1.356 . S
N922 H934 0.984 . S
N922 H935 0.985 . S
N923 C925 1.356 . S
N923 H928 0.984 . S
N923 H929 0.985 . S
C924 C918 1.379 . S
C924 C921 1.363 . S
C924 N922 1.356 . S
C925 C919 1.363 . S
C925 C920 1.379 . S
C925 N923 1.356 . S
N926 C918 1.356 . S
N926 H932 0.984 . S
N926 H933 0.984 . S
N927 C920 1.356 . S
N927 H930 0.984 . S
N927 H931 0.985 . S
H928 N923 0.984 . S
H929 N923 0.985 . S
H930 N927 0.984 . S
H931 N927 0.985 . S
H932 N926 0.984 . S
H933 N926 0.984 . S
H934 N922 0.984 . S
H935 N922 0.985 . S
C936 C937 1.363 . S
C936 C942 1.379 . S
C936 N944 1.356 . S
C937 C936 1.363 . S
C937 C943 1.363 . S
C938 C939 1.363 . S
C938 C943 1.379 . S
C938 N945 1.356 . S
C939 C938 1.363 . S
C939 C942 1.363 . S
N940 C942 1.356 . S
N940 H952 0.984 . S
N940 H953 0.985 . S
N941 C943 1.356 . S
N941 H946 0.984 . S
N941 H947 0.985 . S
C942 C936 1.379 . S
C942 C939 1.363 . S
C942 N940 1.356 . S
C943 C937 1.363 . S
C943 C938 1.379 . S
C943 N941 1.356 . S
N944 C936 1.356 . S
N944 H950 0.984 . S
N944 H951 0.984 . S
N945 C938 1.356 . S
N945 H948 0.984 . S
N945 H949 0.985 . S
H946 N941 0.984 . S
H947 N941 0.985 . S
H948 N945 0.984 . S
H949 N945 0.985 . S
H950 N944 0.984 . S
H951 N944 0.984 . S
H952 N940 0.984 . S
H953 N940 0.985 . S
C954 C955 1.363 . S
C954 C960 1.379 . S
C954 N962 1.356 . S
C955 C954 1.363 . S
C955 C961 1.363 . S
C956 C957 1.363 . S
C956 C961 1.379 . S
C956 N963 1.356 . S
C957 C956 1.363 . S
C957 C960 1.363 . S
N958 C960 1.356 . S
N958 H970 0.984 . S
N958 H971 0.985 . S
N959 C961 1.356 . S
N959 H964 0.984 . S
N959 H965 0.985 . S
C960 C954 1.379 . S
C960 C957 1.363 . S
C960 N958 1.356 . S
C961 C955 1.363 . S
C961 C956 1.379 . S
C961 N959 1.356 . S
N962 C954 1.356 . S
N962 H968 0.984 . S
N962 H969 0.984 . S
N963 C956 1.356 . S
N963 H966 0.984 . S
N963 H967 0.985 . S
H964 N959 0.984 . S
H965 N959 0.985 . S
H966 N963 0.984 . S
H967 N963 0.985 . S
H968 N962 0.984 . S
H969 N962 0.984 . S
H970 N958 0.984 . S
H971 N958 0.985 . S
C972 C973 1.363 . S
C972 C978 1.379 . S
C972 N980 1.356 . S
C973 C972 1.363 . S
C973 C979 1.363 . S
C974 C975 1.363 . S
C974 C979 1.379 . S
C974 N981 1.356 . S
C975 C974 1.363 . S
C975 C978 1.363 . S
N976 C978 1.356 . S
N976 H988 0.984 . S
N976 H989 0.985 . S
N977 C979 1.356 . S
N977 H982 0.984 . S
N977 H983 0.985 . S
C978 C972 1.379 . S
C978 C975 1.363 . S
C978 N976 1.356 . S
C979 C973 1.363 . S
C979 C974 1.379 . S
C979 N977 1.356 . S
N980 C972 1.356 . S
N980 H986 0.984 . S
N980 H987 0.984 . S
N981 C974 1.356 . S
N981 H984 0.984 . S
N981 H985 0.985 . S
H982 N977 0.984 . S
H983 N977 0.985 . S
H984 N981 0.984 . S
H985 N981 0.985 . S
H986 N980 0.984 . S
H987 N980 0.984 . S
H988 N976 0.984 . S
H989 N976 0.985 . S
C990 C991 1.363 . S
C990 C996 1.379 . S
C990 N998 1.356 . S
C991 C990 1.363 . S
C991 C997 1.363 . S
C992 C993 1.363 . S
C992 C997 1.379 . S
C992 N999 1.356 . S
C993 C992 1.363 . S
C993 C996 1.363 . S
N994 C996 1.356 . S
N994 H1006 0.984 . S
N994 H1007 0.985 . S
N995 C997 1.356 . S
N995 H1000 0.984 . S
N995 H1001 0.985 . S
C996 C990 1.379 . S
C996 C993 1.363 . S
C996 N994 1.356 . S
C997 C991 1.363 . S
C997 C992 1.379 . S
C997 N995 1.356 . S
N998 C990 1.356 . S
N998 H1004 0.984 . S
N998 H1005 0.984 . S
N999 C992 1.356 . S
N999 H1002 0.984 . S
N999 H1003 0.985 . S
H1000 N995 0.984 . S
H1001 N995 0.985 . S
H1002 N999 0.984 . S
H1003 N999 0.985 . S
H1004 N998 0.984 . S
H1005 N998 0.984 . S
H1006 N994 0.984 . S
H1007 N994 0.985 . S
C1008 C1009 1.363 . S
C1008 C1014 1.379 . S
C1008 N1016 1.356 . S
C1009 C1008 1.363 . S
C1009 C1015 1.363 . S
C1010 C1011 1.363 . S
C1010 C1015 1.379 . S
C1010 N1017 1.356 . S
C1011 C1010 1.363 . S
C1011 C1014 1.363 . S
N1012 C1014 1.356 . S
N1012 H1024 0.984 . S
N1012 H1025 0.985 . S
N1013 C1015 1.356 . S
N1013 H1018 0.984 . S
N1013 H1019 0.985 . S
C1014 C1008 1.379 . S
C1014 C1011 1.363 . S
C1014 N1012 1.356 . S
C1015 C1009 1.363 . S
C1015 C1010 1.379 . S
C1015 N1013 1.356 . S
N1016 C1008 1.356 . S
N1016 H1022 0.984 . S
N1016 H1023 0.984 . S
N1017 C1010 1.356 . S
N1017 H1020 0.984 . S
N1017 H1021 0.985 . S
H1018 N1013 0.984 . S
H1019 N1013 0.985 . S
H1020 N1017 0.984 . S
H1021 N1017 0.985 . S
H1022 N1016 0.984 . S
H1023 N1016 0.984 . S
H1024 N1012 0.984 . S
H1025 N1012 0.985 . S
C1026 C1027 1.363 . S
C1026 C1032 1.379 . S
C1026 N1034 1.356 . S
C1027 C1026 1.363 . S
C1027 C1033 1.363 . S
C1028 C1029 1.363 . S
C1028 C1033 1.379 . S
C1028 N1035 1.356 . S
C1029 C1028 1.363 . S
C1029 C1032 1.363 . S
N1030 C1032 1.356 . S
N1030 H1042 0.984 . S
N1030 H1043 0.985 . S
N1031 C1033 1.356 . S
N1031 H1036 0.984 . S
N1031 H1037 0.985 . S
C1032 C1026 1.379 . S
C1032 C1029 1.363 . S
C1032 N1030 1.356 . S
C1033 C1027 1.363 . S
C1033 C1028 1.379 . S
C1033 N1031 1.356 . S
N1034 C1026 1.356 . S
N1034 H1040 0.984 . S
N1034 H1041 0.984 . S
N1035 C1028 1.356 . S
N1035 H1038 0.984 . S
N1035 H1039 0.985 . S
H1036 N1031 0.984 . S
H1037 N1031 0.985 . S
H1038 N1035 0.984 . S
H1039 N1035 0.985 . S
H1040 N1034 0.984 . S
H1041 N1034 0.984 . S
H1042 N1030 0.984 . S
H1043 N1030 0.985 . S
C1044 C1045 1.363 . S
C1044 C1050 1.379 . S
C1044 N1052 1.356 . S
C1045 C1044 1.363 . S
C1045 C1051 1.363 . S
C1046 C1047 1.363 . S
C1046 C1051 1.379 . S
C1046 N1053 1.356 . S
C1047 C1046 1.363 . S
C1047 C1050 1.363 . S
N1048 C1050 1.356 . S
N1048 H1060 0.984 . S
N1048 H1061 0.985 . S
N1049 C1051 1.356 . S
N1049 H1054 0.984 . S
N1049 H1055 0.985 . S
C1050 C1044 1.379 . S
C1050 C1047 1.363 . S
C1050 N1048 1.356 . S
C1051 C1045 1.363 . S
C1051 C1046 1.379 . S
C1051 N1049 1.356 . S
N1052 C1044 1.356 . S
N1052 H1058 0.984 . S
N1052 H1059 0.984 . S
N1053 C1046 1.356 . S
N1053 H1056 0.984 . S
N1053 H1057 0.985 . S
H1054 N1049 0.984 . S
H1055 N1049 0.985 . S
H1056 N1053 0.984 . S
H1057 N1053 0.985 . S
H1058 N1052 0.984 . S
H1059 N1052 0.984 . S
H1060 N1048 0.984 . S
H1061 N1048 0.985 . S
C1062 C1063 1.363 . S
C1062 C1068 1.379 . S
C1062 N1070 1.356 . S
C1063 C1062 1.363 . S
C1063 C1069 1.363 . S
C1064 C1065 1.363 . S
C1064 C1069 1.379 . S
C1064 N1071 1.356 . S
C1065 C1064 1.363 . S
C1065 C1068 1.363 . S
N1066 C1068 1.356 . S
N1066 H1078 0.984 . S
N1066 H1079 0.985 . S
N1067 C1069 1.356 . S
N1067 H1072 0.984 . S
N1067 H1073 0.985 . S
C1068 C1062 1.379 . S
C1068 C1065 1.363 . S
C1068 N1066 1.356 . S
C1069 C1063 1.363 . S
C1069 C1064 1.379 . S
C1069 N1067 1.356 . S
N1070 C1062 1.356 . S
N1070 H1076 0.984 . S
N1070 H1077 0.984 . S
N1071 C1064 1.356 . S
N1071 H1074 0.984 . S
N1071 H1075 0.985 . S
H1072 N1067 0.984 . S
H1073 N1067 0.985 . S
H1074 N1071 0.984 . S
H1075 N1071 0.985 . S
H1076 N1070 0.984 . S
H1077 N1070 0.984 . S
H1078 N1066 0.984 . S
H1079 N1066 0.985 . S
C1080 C1081 1.363 . S
C1080 C1086 1.379 . S
C1080 N1088 1.356 . S
C1081 C1080 1.363 . S
C1081 C1087 1.363 . S
C1082 C1083 1.363 . S
C1082 C1087 1.379 . S
C1082 N1089 1.356 . S
C1083 C1082 1.363 . S
C1083 C1086 1.363 . S
N1084 C1086 1.356 . S
N1084 H1096 0.984 . S
N1084 H1097 0.985 . S
N1085 C1087 1.356 . S
N1085 H1090 0.984 . S
N1085 H1091 0.985 . S
C1086 C1080 1.379 . S
C1086 C1083 1.363 . S
C1086 N1084 1.356 . S
C1087 C1081 1.363 . S
C1087 C1082 1.379 . S
C1087 N1085 1.356 . S
N1088 C1080 1.356 . S
N1088 H1094 0.984 . S
N1088 H1095 0.984 . S
N1089 C1082 1.356 . S
N1089 H1092 0.984 . S
N1089 H1093 0.985 . S
H1090 N1085 0.984 . S
H1091 N1085 0.985 . S
H1092 N1089 0.984 . S
H1093 N1089 0.985 . S
H1094 N1088 0.984 . S
H1095 N1088 0.984 . S
H1096 N1084 0.984 . S
H1097 N1084 0.985 . S
C1098 C1099 1.363 . S
C1098 C1104 1.379 . S
C1098 N1106 1.356 . S
C1099 C1098 1.363 . S
C1099 C1105 1.363 . S
C1100 C1101 1.363 . S
C1100 C1105 1.379 . S
C1100 N1107 1.356 . S
C1101 C1100 1.363 . S
C1101 C1104 1.363 . S
N1102 C1104 1.356 . S
N1102 H1114 0.984 . S
N1102 H1115 0.985 . S
N1103 C1105 1.356 . S
N1103 H1108 0.984 . S
N1103 H1109 0.985 . S
C1104 C1098 1.379 . S
C1104 C1101 1.363 . S
C1104 N1102 1.356 . S
C1105 C1099 1.363 . S
C1105 C1100 1.379 . S
C1105 N1103 1.356 . S
N1106 C1098 1.356 . S
N1106 H1112 0.984 . S
N1106 H1113 0.984 . S
N1107 C1100 1.356 . S
N1107 H1110 0.984 . S
N1107 H1111 0.985 . S
H1108 N1103 0.984 . S
H1109 N1103 0.985 . S
H1110 N1107 0.984 . S
H1111 N1107 0.985 . S
H1112 N1106 0.984 . S
H1113 N1106 0.984 . S
H1114 N1102 0.984 . S
H1115 N1102 0.985 . S
C1116 C1117 1.363 . S
C1116 C1122 1.379 . S
C1116 N1124 1.356 . S
C1117 C1116 1.363 . S
C1117 C1123 1.363 . S
C1118 C1119 1.363 . S
C1118 C1123 1.379 . S
C1118 N1125 1.356 . S
C1119 C1118 1.363 . S
C1119 C1122 1.363 . S
N1120 C1122 1.356 . S
N1120 H1132 0.984 . S
N1120 H1133 0.985 . S
N1121 C1123 1.356 . S
N1121 H1126 0.984 . S
N1121 H1127 0.985 . S
C1122 C1116 1.379 . S
C1122 C1119 1.363 . S
C1122 N1120 1.356 . S
C1123 C1117 1.363 . S
C1123 C1118 1.379 . S
C1123 N1121 1.356 . S
N1124 C1116 1.356 . S
N1124 H1130 0.984 . S
N1124 H1131 0.984 . S
N1125 C1118 1.356 . S
N1125 H1128 0.984 . S
N1125 H1129 0.985 . S
H1126 N1121 0.984 . S
H1127 N1121 0.985 . S
H1128 N1125 0.984 . S
H1129 N1125 0.985 . S
H1130 N1124 0.984 . S
H1131 N1124 0.984 . S
H1132 N1120 0.984 . S
H1133 N1120 0.985 . S
C1134 C1135 1.363 . S
C1134 C1140 1.379 . S
C1134 N1142 1.356 . S
C1135 C1134 1.363 . S
C1135 C1141 1.363 . S
C1136 C1137 1.363 . S
C1136 C1141 1.379 . S
C1136 N1143 1.356 . S
C1137 C1136 1.363 . S
C1137 C1140 1.363 . S
N1138 C1140 1.356 . S
N1138 H1150 0.984 . S
N1138 H1151 0.985 . S
N1139 C1141 1.356 . S
N1139 H1144 0.984 . S
N1139 H1145 0.985 . S
C1140 C1134 1.379 . S
C1140 C1137 1.363 . S
C1140 N1138 1.356 . S
C1141 C1135 1.363 . S
C1141 C1136 1.379 . S
C1141 N1139 1.356 . S
N1142 C1134 1.356 . S
N1142 H1148 0.984 . S
N1142 H1149 0.984 . S
N1143 C1136 1.356 . S
N1143 H1146 0.984 . S
N1143 H1147 0.985 . S
H1144 N1139 0.984 . S
H1145 N1139 0.985 . S
H1146 N1143 0.984 . S
H1147 N1143 0.985 . S
H1148 N1142 0.984 . S
H1149 N1142 0.984 . S
H1150 N1138 0.984 . S
H1151 N1138 0.985 . S
C1152 C1153 1.363 . S
C1152 C1158 1.379 . S
C1152 N1160 1.356 . S
C1153 C1152 1.363 . S
C1153 C1159 1.363 . S
C1154 C1155 1.363 . S
C1154 C1159 1.379 . S
C1154 N1161 1.356 . S
C1155 C1154 1.363 . S
C1155 C1158 1.363 . S
N1156 C1158 1.356 . S
N1156 H1168 0.984 . S
N1156 H1169 0.985 . S
N1157 C1159 1.356 . S
N1157 H1162 0.984 . S
N1157 H1163 0.985 . S
C1158 C1152 1.379 . S
C1158 C1155 1.363 . S
C1158 N1156 1.356 . S
C1159 C1153 1.363 . S
C1159 C1154 1.379 . S
C1159 N1157 1.356 . S
N1160 C1152 1.356 . S
N1160 H1166 0.984 . S
N1160 H1167 0.984 . S
N1161 C1154 1.356 . S
N1161 H1164 0.984 . S
N1161 H1165 0.985 . S
H1162 N1157 0.984 . S
H1163 N1157 0.985 . S
H1164 N1161 0.984 . S
H1165 N1161 0.985 . S
H1166 N1160 0.984 . S
H1167 N1160 0.984 . S
H1168 N1156 0.984 . S
H1169 N1156 0.985 . S
C1170 C1171 1.363 . S
C1170 C1176 1.379 . S
C1170 N1178 1.356 . S
C1171 C1170 1.363 . S
C1171 C1177 1.363 . S
C1172 C1173 1.363 . S
C1172 C1177 1.379 . S
C1172 N1179 1.356 . S
C1173 C1172 1.363 . S
C1173 C1176 1.363 . S
N1174 C1176 1.356 . S
N1174 H1186 0.984 . S
N1174 H1187 0.985 . S
N1175 C1177 1.356 . S
N1175 H1180 0.984 . S
N1175 H1181 0.985 . S
C1176 C1170 1.379 . S
C1176 C1173 1.363 . S
C1176 N1174 1.356 . S
C1177 C1171 1.363 . S
C1177 C1172 1.379 . S
C1177 N1175 1.356 . S
N1178 C1170 1.356 . S
N1178 H1184 0.984 . S
N1178 H1185 0.984 . S
N1179 C1172 1.356 . S
N1179 H1182 0.984 . S
N1179 H1183 0.985 . S
H1180 N1175 0.984 . S
H1181 N1175 0.985 . S
H1182 N1179 0.984 . S
H1183 N1179 0.985 . S
H1184 N1178 0.984 . S
H1185 N1178 0.984 . S
H1186 N1174 0.984 . S
H1187 N1174 0.985 . S
C1188 C1189 1.363 . S
C1188 C1194 1.379 . S
C1188 N1196 1.356 . S
C1189 C1188 1.363 . S
C1189 C1195 1.363 . S
C1190 C1191 1.363 . S
C1190 C1195 1.379 . S
C1190 N1197 1.356 . S
C1191 C1190 1.363 . S
C1191 C1194 1.363 . S
N1192 C1194 1.356 . S
N1192 H1204 0.984 . S
N1192 H1205 0.985 . S
N1193 C1195 1.356 . S
N1193 H1198 0.984 . S
N1193 H1199 0.985 . S
C1194 C1188 1.379 . S
C1194 C1191 1.363 . S
C1194 N1192 1.356 . S
C1195 C1189 1.363 . S
C1195 C1190 1.379 . S
C1195 N1193 1.356 . S
N1196 C1188 1.356 . S
N1196 H1202 0.984 . S
N1196 H1203 0.984 . S
N1197 C1190 1.356 . S
N1197 H1200 0.984 . S
N1197 H1201 0.985 . S
H1198 N1193 0.984 . S
H1199 N1193 0.985 . S
H1200 N1197 0.984 . S
H1201 N1197 0.985 . S
H1202 N1196 0.984 . S
H1203 N1196 0.984 . S
H1204 N1192 0.984 . S
H1205 N1192 0.985 . S
C1206 C1207 1.363 . S
C1206 C1212 1.379 . S
C1206 N1214 1.356 . S
C1207 C1206 1.363 . S
C1207 C1213 1.363 . S
C1208 C1209 1.363 . S
C1208 C1213 1.379 . S
C1208 N1215 1.356 . S
C1209 C1208 1.363 . S
C1209 C1212 1.363 . S
N1210 C1212 1.356 . S
N1210 H1222 0.984 . S
N1210 H1223 0.985 . S
N1211 C1213 1.356 . S
N1211 H1216 0.984 . S
N1211 H1217 0.985 . S
C1212 C1206 1.379 . S
C1212 C1209 1.363 . S
C1212 N1210 1.356 . S
C1213 C1207 1.363 . S
C1213 C1208 1.379 . S
C1213 N1211 1.356 . S
N1214 C1206 1.356 . S
N1214 H1220 0.984 . S
N1214 H1221 0.984 . S
N1215 C1208 1.356 . S
N1215 H1218 0.984 . S
N1215 H1219 0.985 . S
H1216 N1211 0.984 . S
H1217 N1211 0.985 . S
H1218 N1215 0.984 . S
H1219 N1215 0.985 . S
H1220 N1214 0.984 . S
H1221 N1214 0.984 . S
H1222 N1210 0.984 . S
H1223 N1210 0.985 . S
C1224 C1225 1.363 . S
C1224 C1230 1.379 . S
C1224 N1232 1.356 . S
C1225 C1224 1.363 . S
C1225 C1231 1.363 . S
C1226 C1227 1.363 . S
C1226 C1231 1.379 . S
C1226 N1233 1.356 . S
C1227 C1226 1.363 . S
C1227 C1230 1.363 . S
N1228 C1230 1.356 . S
N1228 H1240 0.984 . S
N1228 H1241 0.985 . S
N1229 C1231 1.356 . S
N1229 H1234 0.984 . S
N1229 H1235 0.985 . S
C1230 C1224 1.379 . S
C1230 C1227 1.363 . S
C1230 N1228 1.356 . S
C1231 C1225 1.363 . S
C1231 C1226 1.379 . S
C1231 N1229 1.356 . S
N1232 C1224 1.356 . S
N1232 H1238 0.984 . S
N1232 H1239 0.984 . S
N1233 C1226 1.356 . S
N1233 H1236 0.984 . S
N1233 H1237 0.985 . S
H1234 N1229 0.984 . S
H1235 N1229 0.985 . S
H1236 N1233 0.984 . S
H1237 N1233 0.985 . S
H1238 N1232 0.984 . S
H1239 N1232 0.984 . S
H1240 N1228 0.984 . S
H1241 N1228 0.985 . S
C1242 C1243 1.363 . S
C1242 C1248 1.379 . S
C1242 N1250 1.356 . S
C1243 C1242 1.363 . S
C1243 C1249 1.363 . S
C1244 C1245 1.363 . S
C1244 C1249 1.379 . S
C1244 N1251 1.356 . S
C1245 C1244 1.363 . S
C1245 C1248 1.363 . S
N1246 C1248 1.356 . S
N1246 H1258 0.984 . S
N1246 H1259 0.985 . S
N1247 C1249 1.356 . S
N1247 H1252 0.984 . S
N1247 H1253 0.985 . S
C1248 C1242 1.379 . S
C1248 C1245 1.363 . S
C1248 N1246 1.356 . S
C1249 C1243 1.363 . S
C1249 C1244 1.379 . S
C1249 N1247 1.356 . S
N1250 C1242 1.356 . S
N1250 H1256 0.984 . S
N1250 H1257 0.984 . S
N1251 C1244 1.356 . S
N1251 H1254 0.984 . S
N1251 H1255 0.985 . S
H1252 N1247 0.984 . S
H1253 N1247 0.985 . S
H1254 N1251 0.984 . S
H1255 N1251 0.985 . S
H1256 N1250 0.984 . S
H1257 N1250 0.984 . S
H1258 N1246 0.984 . S
H1259 N1246 0.985 . S
C1260 C1261 1.363 . S
C1260 C1266 1.379 . S
C1260 N1268 1.356 . S
C1261 C1260 1.363 . S
C1261 C1267 1.363 . S
C1262 C1263 1.363 . S
C1262 C1267 1.379 . S
C1262 N1269 1.356 . S
C1263 C1262 1.363 . S
C1263 C1266 1.363 . S
N1264 C1266 1.356 . S
N1264 H1276 0.984 . S
N1264 H1277 0.985 . S
N1265 C1267 1.356 . S
N1265 H1270 0.984 . S
N1265 H1271 0.985 . S
C1266 C1260 1.379 . S
C1266 C1263 1.363 . S
C1266 N1264 1.356 . S
C1267 C1261 1.363 . S
C1267 C1262 1.379 . S
C1267 N1265 1.356 . S
N1268 C1260 1.356 . S
N1268 H1274 0.984 . S
N1268 H1275 0.984 . S
N1269 C1262 1.356 . S
N1269 H1272 0.984 . S
N1269 H1273 0.985 . S
H1270 N1265 0.984 . S
H1271 N1265 0.985 . S
H1272 N1269 0.984 . S
H1273 N1269 0.985 . S
H1274 N1268 0.984 . S
H1275 N1268 0.984 . S
H1276 N1264 0.984 . S
H1277 N1264 0.985 . S
C1278 C1279 1.363 . S
C1278 C1284 1.379 . S
C1278 N1286 1.356 . S
C1279 C1278 1.363 . S
C1279 C1285 1.363 . S
C1280 C1281 1.363 . S
C1280 C1285 1.379 . S
C1280 N1287 1.356 . S
C1281 C1280 1.363 . S
C1281 C1284 1.363 . S
N1282 C1284 1.356 . S
N1282 H1294 0.984 . S
N1282 H1295 0.985 . S
N1283 C1285 1.356 . S
N1283 H1288 0.984 . S
N1283 H1289 0.985 . S
C1284 C1278 1.379 . S
C1284 C1281 1.363 . S
C1284 N1282 1.356 . S
C1285 C1279 1.363 . S
C1285 C1280 1.379 . S
C1285 N1283 1.356 . S
N1286 C1278 1.356 . S
N1286 H1292 0.984 . S
N1286 H1293 0.984 . S
N1287 C1280 1.356 . S
N1287 H1290 0.984 . S
N1287 H1291 0.985 . S
H1288 N1283 0.984 . S
H1289 N1283 0.985 . S
H1290 N1287 0.984 . S
H1291 N1287 0.985 . S
H1292 N1286 0.984 . S
H1293 N1286 0.984 . S
H1294 N1282 0.984 . S
H1295 N1282 0.985 . S
C1296 C1297 1.363 . S
C1296 C1302 1.379 . S
C1296 N1304 1.356 . S
C1297 C1296 1.363 . S
C1297 C1303 1.363 . S
C1298 C1299 1.363 . S
C1298 C1303 1.379 . S
C1298 N1305 1.356 . S
C1299 C1298 1.363 . S
C1299 C1302 1.363 . S
N1300 C1302 1.356 . S
N1300 H1312 0.984 . S
N1300 H1313 0.985 . S
N1301 C1303 1.356 . S
N1301 H1306 0.984 . S
N1301 H1307 0.985 . S
C1302 C1296 1.379 . S
C1302 C1299 1.363 . S
C1302 N1300 1.356 . S
C1303 C1297 1.363 . S
C1303 C1298 1.379 . S
C1303 N1301 1.356 . S
N1304 C1296 1.356 . S
N1304 H1310 0.984 . S
N1304 H1311 0.984 . S
N1305 C1298 1.356 . S
N1305 H1308 0.984 . S
N1305 H1309 0.985 . S
H1306 N1301 0.984 . S
H1307 N1301 0.985 . S
H1308 N1305 0.984 . S
H1309 N1305 0.985 . S
H1310 N1304 0.984 . S
H1311 N1304 0.984 . S
H1312 N1300 0.984 . S
H1313 N1300 0.985 . S
C1314 C1315 1.363 . S
C1314 C1320 1.379 . S
C1314 N1322 1.356 . S
C1315 C1314 1.363 . S
C1315 C1321 1.363 . S
C1316 C1317 1.363 . S
C1316 C1321 1.379 . S
C1316 N1323 1.356 . S
C1317 C1316 1.363 . S
C1317 C1320 1.363 . S
N1318 C1320 1.356 . S
N1318 H1330 0.984 . S
N1318 H1331 0.985 . S
N1319 C1321 1.356 . S
N1319 H1324 0.984 . S
N1319 H1325 0.985 . S
C1320 C1314 1.379 . S
C1320 C1317 1.363 . S
C1320 N1318 1.356 . S
C1321 C1315 1.363 . S
C1321 C1316 1.379 . S
C1321 N1319 1.356 . S
N1322 C1314 1.356 . S
N1322 H1328 0.984 . S
N1322 H1329 0.984 . S
N1323 C1316 1.356 . S
N1323 H1326 0.984 . S
N1323 H1327 0.985 . S
H1324 N1319 0.984 . S
H1325 N1319 0.985 . S
H1326 N1323 0.984 . S
H1327 N1323 0.985 . S
H1328 N1322 0.984 . S
H1329 N1322 0.984 . S
H1330 N1318 0.984 . S
H1331 N1318 0.985 . S
C1332 C1333 1.363 . S
C1332 C1338 1.379 . S
C1332 N1340 1.356 . S
C1333 C1332 1.363 . S
C1333 C1339 1.363 1_455 S
C1334 C1335 1.363 . S
C1334 C1339 1.379 . S
C1334 N1341 1.356 . S
C1335 C1334 1.363 . S
C1335 C1338 1.363 1_655 S
N1336 C1338 1.339 . S
N1336 H1348 1.037 . S
N1336 H1349 0.954 1_455 S
N1337 C1339 1.356 . S
N1337 H1342 0.984 1_655 S
N1337 H1343 0.985 . S
C1338 C1332 1.379 . S
C1338 C1335 1.363 1_455 S
C1338 N1336 1.339 . S
C1339 C1333 1.363 1_655 S
C1339 C1334 1.379 . S
C1339 N1337 1.356 . S
N1340 C1332 1.356 . S
N1340 H1346 0.984 . S
N1340 H1347 0.984 . S
N1341 C1334 1.356 . S
N1341 H1344 0.984 . S
N1341 H1345 0.985 . S
H1342 N1337 0.984 1_455 S
H1343 N1337 0.985 . S
H1344 N1341 0.984 . S
H1345 N1341 0.985 . S
H1346 N1340 0.984 . S
H1347 N1340 0.984 . S
H1348 N1336 1.037 . S
H1349 N1336 0.954 1_655 S
C1350 C1351 1.363 . S
C1350 C1356 1.379 . S
C1350 N1358 1.356 . S
C1351 C1350 1.363 . S
C1351 C1357 1.363 . S
C1352 C1353 1.363 . S
C1352 C1357 1.379 . S
C1352 N1359 1.356 . S
C1353 C1352 1.363 . S
C1353 C1356 1.363 . S
N1354 C1356 1.356 . S
N1354 H1366 0.984 . S
N1354 H1367 0.985 . S
N1355 C1357 1.356 . S
N1355 H1360 0.984 . S
N1355 H1361 0.985 . S
C1356 C1350 1.379 . S
C1356 C1353 1.363 . S
C1356 N1354 1.356 . S
C1357 C1351 1.363 . S
C1357 C1352 1.379 . S
C1357 N1355 1.356 . S
N1358 C1350 1.356 . S
N1358 H1364 0.984 . S
N1358 H1365 0.984 . S
N1359 C1352 1.356 . S
N1359 H1362 0.984 . S
N1359 H1363 0.985 . S
H1360 N1355 0.984 . S
H1361 N1355 0.985 . S
H1362 N1359 0.984 . S
H1363 N1359 0.985 . S
H1364 N1358 0.984 . S
H1365 N1358 0.984 . S
H1366 N1354 0.984 . S
H1367 N1354 0.985 . S
C1368 C1369 1.363 1_545 S
C1368 C1374 1.379 . S
C1368 N1376 1.356 . S
C1369 C1368 1.363 1_565 S
C1369 C1375 1.363 . S
C1370 C1371 1.363 1_565 S
C1370 C1375 1.379 . S
C1370 N1377 1.356 . S
C1371 C1370 1.363 1_545 S
C1371 C1374 1.363 . S
N1372 C1374 1.356 . S
N1372 H1384 0.984 . S
N1372 H1385 0.985 . S
N1373 C1375 1.356 . S
N1373 H1378 0.984 . S
N1373 H1379 0.985 . S
C1374 C1368 1.379 . S
C1374 C1371 1.363 . S
C1374 N1372 1.356 . S
C1375 C1369 1.363 . S
C1375 C1370 1.379 . S
C1375 N1373 1.356 . S
N1376 C1368 1.356 . S
N1376 H1382 0.984 . S
N1376 H1383 0.984 . S
N1377 C1370 1.356 . S
N1377 H1380 0.984 . S
N1377 H1381 0.985 . S
H1378 N1373 0.984 . S
H1379 N1373 0.985 . S
H1380 N1377 0.984 . S
H1381 N1377 0.985 . S
H1382 N1376 0.984 . S
H1383 N1376 0.984 . S
H1384 N1372 0.984 . S
H1385 N1372 0.985 . S
C1386 C1387 1.363 1_545 S
C1386 C1392 1.379 . S
C1386 N1394 1.356 . S
C1387 C1386 1.363 1_565 S
C1387 C1393 1.363 . S
C1388 C1389 1.363 1_565 S
C1388 C1393 1.379 . S
C1388 N1395 1.356 . S
C1389 C1388 1.363 1_545 S
C1389 C1392 1.363 . S
N1390 C1392 1.356 . S
N1390 H1402 0.984 . S
N1390 H1403 0.985 . S
N1391 C1393 1.356 . S
N1391 H1396 0.984 . S
N1391 H1397 0.985 . S
C1392 C1386 1.379 . S
C1392 C1389 1.363 . S
C1392 N1390 1.356 . S
C1393 C1387 1.363 . S
C1393 C1388 1.379 . S
C1393 N1391 1.356 . S
N1394 C1386 1.356 . S
N1394 H1400 0.984 . S
N1394 H1401 0.984 1_545 S
N1395 C1388 1.356 . S
N1395 H1398 0.984 1_565 S
N1395 H1399 0.985 . S
H1396 N1391 0.984 . S
H1397 N1391 0.985 . S
H1398 N1395 0.984 1_545 S
H1399 N1395 0.985 . S
H1400 N1394 0.984 . S
H1401 N1394 0.984 1_565 S
H1402 N1390 0.984 . S
H1403 N1390 0.985 . S
C1404 C1405 1.363 . S
C1404 C1410 1.379 . S
C1404 N1412 1.356 . S
C1405 C1404 1.363 . S
C1405 C1411 1.363 1_655 S
C1406 C1407 1.363 . S
C1406 C1411 1.379 . S
C1406 N1413 1.356 . S
C1407 C1406 1.363 . S
C1407 C1410 1.363 1_455 S
N1408 C1410 1.356 . S
N1408 H1420 0.984 . S
N1408 H1421 0.985 . S
N1409 C1411 1.356 . S
N1409 H1414 0.984 . S
N1409 H1415 0.985 . S
C1410 C1404 1.379 . S
C1410 C1407 1.363 1_655 S
C1410 N1408 1.356 . S
C1411 C1405 1.363 1_455 S
C1411 C1406 1.379 . S
C1411 N1409 1.356 . S
N1412 C1404 1.356 . S
N1412 H1418 0.984 . S
N1412 H1419 0.984 . S
N1413 C1406 1.356 . S
N1413 H1416 0.984 . S
N1413 H1417 0.985 . S
H1414 N1409 0.984 . S
H1415 N1409 0.985 . S
H1416 N1413 0.984 . S
H1417 N1413 0.985 . S
H1418 N1412 0.984 . S
H1419 N1412 0.984 . S
H1420 N1408 0.984 . S
H1421 N1408 0.985 . S
C1422 C1423 1.363 . S
C1422 C1428 1.379 . S
C1422 N1430 1.356 . S
C1423 C1422 1.363 . S
C1423 C1429 1.363 . S
C1424 C1425 1.363 . S
C1424 C1429 1.379 . S
C1424 N1431 1.356 . S
C1425 C1424 1.363 . S
C1425 C1428 1.363 . S
N1426 C1428 1.356 . S
N1426 H1438 0.984 . S
N1426 H1439 0.985 . S
N1427 C1429 1.356 . S
N1427 H1432 0.984 . S
N1427 H1433 0.985 . S
C1428 C1422 1.379 . S
C1428 C1425 1.363 . S
C1428 N1426 1.356 . S
C1429 C1423 1.363 . S
C1429 C1424 1.379 . S
C1429 N1427 1.356 . S
N1430 C1422 1.356 . S
N1430 H1436 0.984 . S
N1430 H1437 0.984 . S
N1431 C1424 1.356 . S
N1431 H1434 0.984 . S
N1431 H1435 0.985 . S
H1432 N1427 0.984 . S
H1433 N1427 0.985 . S
H1434 N1431 0.984 . S
H1435 N1431 0.985 . S
H1436 N1430 0.984 . S
H1437 N1430 0.984 . S
H1438 N1426 0.984 . S
H1439 N1426 0.985 . S
C1440 C1441 1.363 . S
C1440 C1446 1.379 . S
C1440 N1448 1.356 . S
C1441 C1440 1.363 . S
C1441 C1447 1.363 . S
C1442 C1443 1.363 . S
C1442 C1447 1.379 . S
C1442 N1449 1.356 . S
C1443 C1442 1.363 . S
C1443 C1446 1.363 . S
N1444 C1446 1.356 . S
N1444 H1456 0.984 . S
N1444 H1457 0.985 . S
N1445 C1447 1.356 . S
N1445 H1450 0.984 . S
N1445 H1451 0.985 . S
C1446 C1440 1.379 . S
C1446 C1443 1.363 . S
C1446 N1444 1.356 . S
C1447 C1441 1.363 . S
C1447 C1442 1.379 . S
C1447 N1445 1.356 . S
N1448 C1440 1.356 . S
N1448 H1454 0.984 . S
N1448 H1455 0.984 . S
N1449 C1442 1.356 . S
N1449 H1452 0.984 . S
N1449 H1453 0.985 . S
H1450 N1445 0.984 . S
H1451 N1445 0.985 . S
H1452 N1449 0.984 . S
H1453 N1449 0.985 . S
H1454 N1448 0.984 . S
H1455 N1448 0.984 . S
H1456 N1444 0.984 . S
H1457 N1444 0.985 . S
C1458 C1459 1.363 . S
C1458 C1464 1.379 . S
C1458 N1466 1.356 . S
C1459 C1458 1.363 . S
C1459 C1465 1.363 . S
C1460 C1461 1.363 . S
C1460 C1465 1.379 . S
C1460 N1467 1.356 . S
C1461 C1460 1.363 . S
C1461 C1464 1.363 . S
N1462 C1464 1.356 . S
N1462 H1474 0.984 . S
N1462 H1475 0.985 . S
N1463 C1465 1.356 . S
N1463 H1468 0.984 . S
N1463 H1469 0.985 . S
C1464 C1458 1.379 . S
C1464 C1461 1.363 . S
C1464 N1462 1.356 . S
C1465 C1459 1.363 . S
C1465 C1460 1.379 . S
C1465 N1463 1.356 . S
N1466 C1458 1.356 . S
N1466 H1472 0.984 . S
N1466 H1473 0.984 . S
N1467 C1460 1.356 . S
N1467 H1470 0.984 . S
N1467 H1471 0.985 . S
H1468 N1463 0.984 . S
H1469 N1463 0.985 . S
H1470 N1467 0.984 . S
H1471 N1467 0.985 . S
H1472 N1466 0.984 . S
H1473 N1466 0.984 . S
H1474 N1462 0.984 . S
H1475 N1462 0.985 . S
C1476 C1477 1.363 . S
C1476 C1482 1.379 . S
C1476 N1484 1.356 . S
C1477 C1476 1.363 . S
C1477 C1483 1.363 . S
C1478 C1479 1.363 . S
C1478 C1483 1.379 . S
C1478 N1485 1.356 . S
C1479 C1478 1.363 . S
C1479 C1482 1.363 . S
N1480 C1482 1.356 . S
N1480 H1492 0.984 . S
N1480 H1493 0.985 . S
N1481 C1483 1.356 . S
N1481 H1486 0.984 . S
N1481 H1487 0.985 . S
C1482 C1476 1.379 . S
C1482 C1479 1.363 . S
C1482 N1480 1.356 . S
C1483 C1477 1.363 . S
C1483 C1478 1.379 . S
C1483 N1481 1.356 . S
N1484 C1476 1.356 . S
N1484 H1490 0.984 . S
N1484 H1491 0.984 . S
N1485 C1478 1.356 . S
N1485 H1488 0.984 . S
N1485 H1489 0.985 . S
H1486 N1481 0.984 . S
H1487 N1481 0.985 . S
H1488 N1485 0.984 . S
H1489 N1485 0.985 . S
H1490 N1484 0.984 . S
H1491 N1484 0.984 . S
H1492 N1480 0.984 . S
H1493 N1480 0.985 . S
C1494 C1495 1.363 . S
C1494 C1500 1.379 . S
C1494 N1502 1.356 . S
C1495 C1494 1.363 . S
C1495 C1501 1.363 . S
C1496 C1497 1.363 . S
C1496 C1501 1.379 . S
C1496 N1503 1.356 . S
C1497 C1496 1.363 . S
C1497 C1500 1.363 . S
N1498 C1500 1.356 . S
N1498 H1510 0.984 . S
N1498 H1511 0.985 . S
N1499 C1501 1.356 . S
N1499 H1504 0.984 . S
N1499 H1505 0.985 . S
C1500 C1494 1.379 . S
C1500 C1497 1.363 . S
C1500 N1498 1.356 . S
C1501 C1495 1.363 . S
C1501 C1496 1.379 . S
C1501 N1499 1.356 . S
N1502 C1494 1.356 . S
N1502 H1508 0.984 . S
N1502 H1509 0.984 . S
N1503 C1496 1.356 . S
N1503 H1506 0.984 . S
N1503 H1507 0.985 . S
H1504 N1499 0.984 . S
H1505 N1499 0.985 . S
H1506 N1503 0.984 . S
H1507 N1503 0.985 . S
H1508 N1502 0.984 . S
H1509 N1502 0.984 . S
H1510 N1498 0.984 . S
H1511 N1498 0.985 . S
C1512 C1513 1.363 . S
C1512 C1518 1.379 . S
C1512 N1520 1.356 . S
C1513 C1512 1.363 . S
C1513 C1519 1.363 . S
C1514 C1515 1.363 . S
C1514 C1519 1.379 . S
C1514 N1521 1.356 . S
C1515 C1514 1.363 . S
C1515 C1518 1.363 . S
N1516 C1518 1.356 . S
N1516 H1528 0.984 . S
N1516 H1529 0.985 . S
N1517 C1519 1.356 . S
N1517 H1522 0.984 . S
N1517 H1523 0.985 . S
C1518 C1512 1.379 . S
C1518 C1515 1.363 . S
C1518 N1516 1.356 . S
C1519 C1513 1.363 . S
C1519 C1514 1.379 . S
C1519 N1517 1.356 . S
N1520 C1512 1.356 . S
N1520 H1526 0.984 . S
N1520 H1527 0.984 . S
N1521 C1514 1.356 . S
N1521 H1524 0.984 . S
N1521 H1525 0.985 . S
H1522 N1517 0.984 . S
H1523 N1517 0.985 . S
H1524 N1521 0.984 . S
H1525 N1521 0.985 . S
H1526 N1520 0.984 . S
H1527 N1520 0.984 . S
H1528 N1516 0.984 . S
H1529 N1516 0.985 . S
C1530 C1531 1.363 . S
C1530 C1536 1.379 . S
C1530 N1538 1.356 . S
C1531 C1530 1.363 . S
C1531 C1537 1.363 . S
C1532 C1533 1.363 . S
C1532 C1537 1.379 . S
C1532 N1539 1.356 . S
C1533 C1532 1.363 . S
C1533 C1536 1.363 . S
N1534 C1536 1.356 . S
N1534 H1546 0.984 . S
N1534 H1547 0.985 . S
N1535 C1537 1.356 . S
N1535 H1540 0.984 . S
N1535 H1541 0.985 . S
C1536 C1530 1.379 . S
C1536 C1533 1.363 . S
C1536 N1534 1.356 . S
C1537 C1531 1.363 . S
C1537 C1532 1.379 . S
C1537 N1535 1.356 . S
N1538 C1530 1.356 . S
N1538 H1544 0.984 . S
N1538 H1545 0.984 . S
N1539 C1532 1.356 . S
N1539 H1542 0.984 . S
N1539 H1543 0.985 . S
H1540 N1535 0.984 . S
H1541 N1535 0.985 . S
H1542 N1539 0.984 . S
H1543 N1539 0.985 . S
H1544 N1538 0.984 . S
H1545 N1538 0.984 . S
H1546 N1534 0.984 . S
H1547 N1534 0.985 . S
C1548 C1549 1.363 . S
C1548 C1554 1.379 . S
C1548 N1556 1.356 . S
C1549 C1548 1.363 . S
C1549 C1555 1.363 . S
C1550 C1551 1.363 . S
C1550 C1555 1.379 . S
C1550 N1557 1.356 . S
C1551 C1550 1.363 . S
C1551 C1554 1.363 . S
N1552 C1554 1.356 . S
N1552 H1564 0.984 . S
N1552 H1565 0.985 . S
N1553 C1555 1.356 . S
N1553 H1558 0.984 . S
N1553 H1559 0.985 . S
C1554 C1548 1.379 . S
C1554 C1551 1.363 . S
C1554 N1552 1.356 . S
C1555 C1549 1.363 . S
C1555 C1550 1.379 . S
C1555 N1553 1.356 . S
N1556 C1548 1.356 . S
N1556 H1562 0.984 . S
N1556 H1563 0.984 . S
N1557 C1550 1.356 . S
N1557 H1560 0.984 . S
N1557 H1561 0.985 . S
H1558 N1553 0.984 . S
H1559 N1553 0.985 . S
H1560 N1557 0.984 . S
H1561 N1557 0.985 . S
H1562 N1556 0.984 . S
H1563 N1556 0.984 . S
H1564 N1552 0.984 . S
H1565 N1552 0.985 . S
C1566 C1567 1.363 . S
C1566 C1572 1.379 . S
C1566 N1574 1.356 . S
C1567 C1566 1.363 . S
C1567 C1573 1.363 . S
C1568 C1569 1.363 . S
C1568 C1573 1.379 . S
C1568 N1575 1.356 . S
C1569 C1568 1.363 . S
C1569 C1572 1.363 . S
N1570 C1572 1.356 . S
N1570 H1582 0.984 . S
N1570 H1583 0.985 . S
N1571 C1573 1.356 . S
N1571 H1576 0.984 . S
N1571 H1577 0.985 . S
C1572 C1566 1.379 . S
C1572 C1569 1.363 . S
C1572 N1570 1.356 . S
C1573 C1567 1.363 . S
C1573 C1568 1.379 . S
C1573 N1571 1.356 . S
N1574 C1566 1.356 . S
N1574 H1580 0.984 . S
N1574 H1581 0.984 . S
N1575 C1568 1.356 . S
N1575 H1578 0.984 . S
N1575 H1579 0.985 . S
H1576 N1571 0.984 . S
H1577 N1571 0.985 . S
H1578 N1575 0.984 . S
H1579 N1575 0.985 . S
H1580 N1574 0.984 . S
H1581 N1574 0.984 . S
H1582 N1570 0.984 . S
H1583 N1570 0.985 . S
C1584 C1585 1.363 . S
C1584 C1590 1.379 . S
C1584 N1592 1.356 . S
C1585 C1584 1.363 . S
C1585 C1591 1.363 . S
C1586 C1587 1.363 . S
C1586 C1591 1.379 . S
C1586 N1593 1.356 . S
C1587 C1586 1.363 . S
C1587 C1590 1.363 . S
N1588 C1590 1.356 . S
N1588 H1600 0.984 . S
N1588 H1601 0.985 . S
N1589 C1591 1.356 . S
N1589 H1594 0.984 . S
N1589 H1595 0.985 . S
C1590 C1584 1.379 . S
C1590 C1587 1.363 . S
C1590 N1588 1.356 . S
C1591 C1585 1.363 . S
C1591 C1586 1.379 . S
C1591 N1589 1.356 . S
N1592 C1584 1.356 . S
N1592 H1598 0.984 . S
N1592 H1599 0.984 . S
N1593 C1586 1.356 . S
N1593 H1596 0.984 . S
N1593 H1597 0.985 . S
H1594 N1589 0.984 . S
H1595 N1589 0.985 . S
H1596 N1593 0.984 . S
H1597 N1593 0.985 . S
H1598 N1592 0.984 . S
H1599 N1592 0.984 . S
H1600 N1588 0.984 . S
H1601 N1588 0.985 . S
C1602 C1603 1.363 . S
C1602 C1608 1.379 . S
C1602 N1610 1.356 . S
C1603 C1602 1.363 . S
C1603 C1609 1.363 . S
C1604 C1605 1.363 . S
C1604 C1609 1.379 . S
C1604 N1611 1.356 . S
C1605 C1604 1.363 . S
C1605 C1608 1.363 . S
N1606 C1608 1.356 . S
N1606 H1618 0.984 . S
N1606 H1619 0.985 . S
N1607 C1609 1.356 . S
N1607 H1612 0.984 . S
N1607 H1613 0.985 . S
C1608 C1602 1.379 . S
C1608 C1605 1.363 . S
C1608 N1606 1.356 . S
C1609 C1603 1.363 . S
C1609 C1604 1.379 . S
C1609 N1607 1.356 . S
N1610 C1602 1.356 . S
N1610 H1616 0.984 . S
N1610 H1617 0.984 . S
N1611 C1604 1.356 . S
N1611 H1614 0.984 . S
N1611 H1615 0.985 . S
H1612 N1607 0.984 . S
H1613 N1607 0.985 . S
H1614 N1611 0.984 . S
H1615 N1611 0.985 . S
H1616 N1610 0.984 . S
H1617 N1610 0.984 . S
H1618 N1606 0.984 . S
H1619 N1606 0.985 . S
C1620 C1621 1.363 . S
C1620 C1626 1.379 . S
C1620 N1628 1.356 . S
C1621 C1620 1.363 . S
C1621 C1627 1.363 . S
C1622 C1623 1.363 . S
C1622 C1627 1.379 . S
C1622 N1629 1.356 . S
C1623 C1622 1.363 . S
C1623 C1626 1.363 . S
N1624 C1626 1.356 . S
N1624 H1636 0.984 . S
N1624 H1637 0.985 . S
N1625 C1627 1.356 . S
N1625 H1630 0.984 . S
N1625 H1631 0.985 . S
C1626 C1620 1.379 . S
C1626 C1623 1.363 . S
C1626 N1624 1.356 . S
C1627 C1621 1.363 . S
C1627 C1622 1.379 . S
C1627 N1625 1.356 . S
N1628 C1620 1.356 . S
N1628 H1634 0.984 . S
N1628 H1635 0.984 . S
N1629 C1622 1.356 . S
N1629 H1632 0.984 . S
N1629 H1633 0.985 . S
H1630 N1625 0.984 . S
H1631 N1625 0.985 . S
H1632 N1629 0.984 . S
H1633 N1629 0.985 . S
H1634 N1628 0.984 . S
H1635 N1628 0.984 . S
H1636 N1624 0.984 . S
H1637 N1624 0.985 . S
C1638 C1639 1.363 . S
C1638 C1644 1.379 . S
C1638 N1646 1.356 . S
C1639 C1638 1.363 . S
C1639 C1645 1.363 . S
C1640 C1641 1.363 . S
C1640 C1645 1.379 . S
C1640 N1647 1.356 . S
C1641 C1640 1.363 . S
C1641 C1644 1.363 . S
N1642 C1644 1.356 . S
N1642 H1654 0.984 . S
N1642 H1655 0.985 . S
N1643 C1645 1.356 . S
N1643 H1648 0.984 . S
N1643 H1649 0.985 . S
C1644 C1638 1.379 . S
C1644 C1641 1.363 . S
C1644 N1642 1.356 . S
C1645 C1639 1.363 . S
C1645 C1640 1.379 . S
C1645 N1643 1.356 . S
N1646 C1638 1.356 . S
N1646 H1652 0.984 . S
N1646 H1653 0.984 . S
N1647 C1640 1.356 . S
N1647 H1650 0.984 . S
N1647 H1651 0.985 . S
H1648 N1643 0.984 . S
H1649 N1643 0.985 . S
H1650 N1647 0.984 . S
H1651 N1647 0.985 . S
H1652 N1646 0.984 . S
H1653 N1646 0.984 . S
H1654 N1642 0.984 . S
H1655 N1642 0.985 . S
C1656 C1657 1.363 1_655 S
C1656 C1662 1.379 1_556 S
C1656 N1664 1.356 . S
C1657 C1656 1.363 1_455 S
C1657 C1663 1.363 . S
C1658 C1659 1.363 1_455 S
C1658 C1663 1.379 1_554 S
C1658 N1665 1.356 . S
C1659 C1658 1.363 1_655 S
C1659 C1662 1.363 . S
N1660 C1662 1.356 . S
N1660 H1672 0.984 . S
N1660 H1673 0.985 . S
N1661 C1663 1.356 . S
N1661 H1666 0.984 . S
N1661 H1667 0.985 . S
C1662 C1656 1.379 1_554 S
C1662 C1659 1.363 . S
C1662 N1660 1.356 . S
C1663 C1657 1.363 . S
C1663 C1658 1.379 1_556 S
C1663 N1661 1.356 . S
N1664 C1656 1.356 . S
N1664 H1670 0.984 . S
N1664 H1671 0.984 . S
N1665 C1658 1.356 . S
N1665 H1668 0.984 . S
N1665 H1669 0.985 . S
H1666 N1661 0.984 . S
H1667 N1661 0.985 . S
H1668 N1665 0.984 . S
H1669 N1665 0.985 . S
H1670 N1664 0.984 . S
H1671 N1664 0.984 . S
H1672 N1660 0.984 . S
H1673 N1660 0.985 . S
C1674 C1675 1.363 . S
C1674 C1680 1.379 1_554 S
C1674 N1682 1.356 . S
C1675 C1674 1.363 . S
C1675 C1681 1.363 . S
C1676 C1677 1.363 . S
C1676 C1681 1.379 1_556 S
C1676 N1683 1.356 . S
C1677 C1676 1.363 . S
C1677 C1680 1.363 . S
N1678 C1680 1.356 . S
N1678 H1690 0.984 . S
N1678 H1691 0.985 . S
N1679 C1681 1.356 . S
N1679 H1684 0.984 . S
N1679 H1685 0.985 . S
C1680 C1674 1.379 1_556 S
C1680 C1677 1.363 . S
C1680 N1678 1.356 . S
C1681 C1675 1.363 . S
C1681 C1676 1.379 1_554 S
C1681 N1679 1.356 . S
N1682 C1674 1.356 . S
N1682 H1688 0.984 . S
N1682 H1689 0.984 . S
N1683 C1676 1.356 . S
N1683 H1686 0.984 . S
N1683 H1687 0.985 . S
H1684 N1679 0.984 . S
H1685 N1679 0.985 . S
H1686 N1683 0.984 . S
H1687 N1683 0.985 . S
H1688 N1682 0.984 . S
H1689 N1682 0.984 . S
H1690 N1678 0.984 . S
H1691 N1678 0.985 . S
C1692 C1693 1.363 1_565 S
C1692 C1698 1.379 1_554 S
C1692 N1700 1.356 . S
C1693 C1692 1.363 1_545 S
C1693 C1699 1.363 . S
C1694 C1695 1.363 1_545 S
C1694 C1699 1.379 1_556 S
C1694 N1701 1.356 . S
C1695 C1694 1.363 1_565 S
C1695 C1698 1.363 . S
N1696 C1698 1.356 . S
N1696 H1708 0.984 . S
N1696 H1709 0.985 . S
N1697 C1699 1.356 . S
N1697 H1702 0.984 . S
N1697 H1703 0.985 . S
C1698 C1692 1.379 1_556 S
C1698 C1695 1.363 . S
C1698 N1696 1.356 . S
C1699 C1693 1.363 . S
C1699 C1694 1.379 1_554 S
C1699 N1697 1.356 . S
N1700 C1692 1.356 . S
N1700 H1706 0.984 . S
N1700 H1707 0.984 . S
N1701 C1694 1.356 . S
N1701 H1704 0.984 . S
N1701 H1705 0.985 . S
H1702 N1697 0.984 . S
H1703 N1697 0.985 . S
H1704 N1701 0.984 . S
H1705 N1701 0.985 . S
H1706 N1700 0.984 . S
H1707 N1700 0.984 . S
H1708 N1696 0.984 . S
H1709 N1696 0.985 . S
C1710 C1711 1.363 1_545 S
C1710 C1716 1.379 1_556 S
C1710 N1718 1.356 . S
C1711 C1710 1.363 1_565 S
C1711 C1717 1.363 . S
C1712 C1713 1.363 1_565 S
C1712 C1717 1.379 1_554 S
C1712 N1719 1.356 . S
C1713 C1712 1.363 1_545 S
C1713 C1716 1.363 . S
N1714 C1716 1.356 . S
N1714 H1726 0.984 . S
N1714 H1727 0.985 . S
N1715 C1717 1.356 . S
N1715 H1720 0.984 . S
N1715 H1721 0.985 . S
C1716 C1710 1.379 1_554 S
C1716 C1713 1.363 . S
C1716 N1714 1.356 . S
C1717 C1711 1.363 . S
C1717 C1712 1.379 1_556 S
C1717 N1715 1.356 . S
N1718 C1710 1.356 . S
N1718 H1724 0.984 . S
N1718 H1725 0.984 . S
N1719 C1712 1.356 . S
N1719 H1722 0.984 . S
N1719 H1723 0.985 . S
H1720 N1715 0.984 . S
H1721 N1715 0.985 . S
H1722 N1719 0.984 . S
H1723 N1719 0.985 . S
H1724 N1718 0.984 . S
H1725 N1718 0.984 . S
H1726 N1714 0.984 . S
H1727 N1714 0.985 . S
C1728 C1729 1.363 1_655 S
C1728 C1734 1.379 1_556 S
C1728 N1736 1.356 . S
C1729 C1728 1.363 1_455 S
C1729 C1735 1.363 . S
C1730 C1731 1.363 1_455 S
C1730 C1735 1.379 1_554 S
C1730 N1737 1.356 . S
C1731 C1730 1.363 1_655 S
C1731 C1734 1.363 . S
N1732 C1734 1.356 . S
N1732 H1744 0.984 . S
N1732 H1745 0.985 . S
N1733 C1735 1.356 . S
N1733 H1738 0.984 . S
N1733 H1739 0.985 . S
C1734 C1728 1.379 1_554 S
C1734 C1731 1.363 . S
C1734 N1732 1.356 . S
C1735 C1729 1.363 . S
C1735 C1730 1.379 1_556 S
C1735 N1733 1.356 . S
N1736 C1728 1.356 . S
N1736 H1742 0.984 . S
N1736 H1743 0.984 . S
N1737 C1730 1.356 . S
N1737 H1740 0.984 . S
N1737 H1741 0.985 . S
H1738 N1733 0.984 . S
H1739 N1733 0.985 . S
H1740 N1737 0.984 . S
H1741 N1737 0.985 . S
H1742 N1736 0.984 . S
H1743 N1736 0.984 . S
H1744 N1732 0.984 . S
H1745 N1732 0.985 . S
C1746 C1747 1.363 . S
C1746 C1752 1.379 1_554 S
C1746 N1754 1.356 . S
C1747 C1746 1.363 . S
C1747 C1753 1.363 . S
C1748 C1749 1.363 . S
C1748 C1753 1.379 1_556 S
C1748 N1755 1.356 . S
C1749 C1748 1.363 . S
C1749 C1752 1.363 . S
N1750 C1752 1.356 . S
N1750 H1762 0.984 . S
N1750 H1763 0.985 . S
N1751 C1753 1.356 . S
N1751 H1756 0.984 . S
N1751 H1757 0.985 . S
C1752 C1746 1.379 1_556 S
C1752 C1749 1.363 . S
C1752 N1750 1.356 . S
C1753 C1747 1.363 . S
C1753 C1748 1.379 1_554 S
C1753 N1751 1.356 . S
N1754 C1746 1.356 . S
N1754 H1760 0.984 . S
N1754 H1761 0.984 . S
N1755 C1748 1.356 . S
N1755 H1758 0.984 . S
N1755 H1759 0.985 . S
H1756 N1751 0.984 . S
H1757 N1751 0.985 . S
H1758 N1755 0.984 . S
H1759 N1755 0.985 . S
H1760 N1754 0.984 . S
H1761 N1754 0.984 . S
H1762 N1750 0.984 . S
H1763 N1750 0.985 . S
C469 C10 1.482 . S
C471 C147 1.482 . S
C487 C23 1.481 . S
C489 C121 1.481 . S
C505 C140 1.482 . S
C507 C30 1.482 . S
C523 C43 1.481 . S
C525 C101 1.482 . S
C541 C108 1.482 . S
C543 C56 1.482 . S
C559 C75 1.481 . S
C561 C82 1.481 . S
C577 C303 1.482 . S
C579 C160 1.482 . S
C595 C179 1.482 . S
C597 C283 1.482 . S
C613 C192 1.482 . S
C615 C296 1.482 . S
C631 C251 1.482 . S
C633 C199 1.482 . S
C649 C218 1.482 . S
C651 C264 1.482 . S
C667 C244 1.481 . S
C669 C231 1.481 . S
C685 C316 1.482 . S
C687 C459 1.482 . S
C703 C439 1.482 . S
C705 C335 1.482 . S
C721 C446 1.482 . S
C723 C342 1.482 . S
C739 C413 1.482 . S
C741 C355 1.482 . S
C757 C426 1.482 . S
C759 C368 1.482 . S
C775 C400 1.482 . S
C777 C381 1.482 . S
C793 C3 1.431 . S
C795 C57 1.431 . S
C811 C68 1.431 . S
C813 C16 1.431 . S
C829 C31 1.432 . S
C831 C44 1.432 . S
C847 C83 1.431 . S
C849 C133 1.431 . S
C865 C94 1.431 . S
C867 C148 1.431 . S
C883 C109 1.432 . S
C885 C122 1.432 . S
C901 C211 1.432 . S
C903 C161 1.432 . S
C919 C224 1.431 . S
C921 C172 1.431 . S
C937 C185 1.432 . S
C939 C200 1.431 . S
C955 C289 1.432 . S
C957 C237 1.432 . S
C973 C304 1.431 . S
C975 C252 1.431 . S
C991 C265 1.432 . S
C993 C276 1.432 . S
C1009 C369 1.432 . S
C1011 C317 1.432 . S
C1027 C328 1.431 . S
C1029 C382 1.431 . S
C1045 C343 1.431 . S
C1047 C356 1.431 . S
C1063 C447 1.432 . S
C1065 C393 1.432 . S
C1081 C406 1.431 . S
C1083 C460 1.431 . S
C1099 C432 1.431 . S
C1101 C419 1.431 . S
C1117 C380 1.368 . S
C1119 C5 1.368 . S
C1135 C18 1.368 . S
C1137 C354 1.368 . S
C1153 C29 1.368 . S
C1155 C367 1.368 . S
C1171 C42 1.368 . S
C1173 C174 1.368 . S
C1189 C187 1.368 . S
C1191 C55 1.368 . S
C1207 C159 1.368 . S
C1209 C70 1.368 . S
C1225 C81 1.368 . S
C1227 C302 1.368 . S
C1243 C96 1.368 . S
C1245 C278 1.368 . S
C1261 C107 1.368 . S
C1263 C291 1.368 . S
C1279 C408 1.368 . S
C1281 C120 1.368 . S
C1297 C421 1.368 . S
C1299 C135 1.368 . S
C1315 C146 1.368 . S
C1317 C395 1.368 . S
C1333 C330 1.367 . S
C1335 C198 1.367 . S
C1351 C213 1.368 . S
C1353 C341 1.368 . S
C1369 C315 1.367 . S
C1371 C226 1.367 . S
C1387 C458 1.367 . S
C1389 C239 1.367 . S
C1405 C250 1.367 . S
C1407 C434 1.367 . S
C1423 C263 1.368 . S
C1425 C445 1.368 . S
C1441 C4 1.525 . S
C1443 C387 1.525 . S
C1459 C361 1.525 . S
C1461 C17 1.525 . S
C1477 C36 1.525 . S
C1479 C374 1.525 . S
C1495 C173 1.525 . S
C1497 C49 1.525 . S
C1513 C62 1.525 . S
C1515 C186 1.525 . S
C1531 C69 1.525 . S
C1533 C166 1.525 . S
C1549 C309 1.525 . S
C1551 C88 1.525 . S
C1567 C95 1.525 . S
C1569 C277 1.525 . S
C1585 C114 1.525 . S
C1587 C290 1.525 . S
C1603 C127 1.525 . S
C1605 C407 1.525 . S
C1621 C420 1.525 . S
C1623 C134 1.525 . S
C1639 C153 1.525 . S
C1641 C394 1.525 . S
C1657 C329 1.525 . S
C1659 C205 1.525 . S
C1675 C212 1.525 . S
C1677 C348 1.525 . S
C1693 C225 1.525 . S
C1695 C322 1.525 . S
C1711 C465 1.525 . S
C1713 C238 1.525 . S
C1729 C433 1.525 . S
C1731 C257 1.525 . S
C1747 C270 1.525 . S
C1749 C452 1.525 . S
