# Generated by pormake.
# Topology umq, (4)-cn, num edge types: 1
# Building blocks:
#     Node 0, Type 0, BuildingBlock: AZAVOO_clean_sbu_0, # of connection points: 4
#     Node 1, Type 0, BuildingBlock: AZAVOO_clean_sbu_0, # of connection points: 4
#     Node 2, Type 0, BuildingBlock: AZAVOO_clean_sbu_0, # of connection points: 4
#     Node 3, Type 0, BuildingBlock: AZAVOO_clean_sbu_0, # of connection points: 4
#     Node 4, Type 0, BuildingBlock: AZAVOO_clean_sbu_0, # of connection points: 4
#     Node 5, Type 0, BuildingBlock: AZAVOO_clean_sbu_0, # of connection points: 4
#     Node 6, Type 0, BuildingBlock: AZAVOO_clean_sbu_0, # of connection points: 4
#     Node 7, Type 0, BuildingBlock: AZAVOO_clean_sbu_0, # of connection points: 4
#     Node 8, Type 0, BuildingBlock: AZAVOO_clean_sbu_0, # of connection points: 4
#     Node 9, Type 0, BuildingBlock: AZAVOO_clean_sbu_0, # of connection points: 4
#     Node 10, Type 0, BuildingBlock: AZAVOO_clean_sbu_0, # of connection points: 4
#     Node 11, Type 0, BuildingBlock: AZAVOO_clean_sbu_0, # of connection points: 4
#     Node 12, Type 0, BuildingBlock: AZAVOO_clean_sbu_0, # of connection points: 4
#     Node 13, Type 0, BuildingBlock: AZAVOO_clean_sbu_0, # of connection points: 4
#     Node 14, Type 0, BuildingBlock: AZAVOO_clean_sbu_0, # of connection points: 4
#     Node 15, Type 0, BuildingBlock: AZAVOO_clean_sbu_0, # of connection points: 4
#     Node 16, Type 0, BuildingBlock: AZAVOO_clean_sbu_0, # of connection points: 4
#     Node 17, Type 0, BuildingBlock: AZAVOO_clean_sbu_0, # of connection points: 4
#     Node 18, Type 0, BuildingBlock: AZAVOO_clean_sbu_0, # of connection points: 4
#     Node 19, Type 0, BuildingBlock: AZAVOO_clean_sbu_0, # of connection points: 4
#     Node 20, Type 0, BuildingBlock: AZAVOO_clean_sbu_0, # of connection points: 4
#     Node 21, Type 0, BuildingBlock: AZAVOO_clean_sbu_0, # of connection points: 4
#     Node 22, Type 0, BuildingBlock: AZAVOO_clean_sbu_0, # of connection points: 4
#     Node 23, Type 0, BuildingBlock: AZAVOO_clean_sbu_0, # of connection points: 4
#     Node 24, Type 0, BuildingBlock: AZAVOO_clean_sbu_0, # of connection points: 4
#     Node 25, Type 0, BuildingBlock: AZAVOO_clean_sbu_0, # of connection points: 4
#     Node 26, Type 0, BuildingBlock: AZAVOO_clean_sbu_0, # of connection points: 4
#     Node 27, Type 0, BuildingBlock: AZAVOO_clean_sbu_0, # of connection points: 4
#     Node 28, Type 0, BuildingBlock: AZAVOO_clean_sbu_0, # of connection points: 4
#     Node 29, Type 0, BuildingBlock: AZAVOO_clean_sbu_0, # of connection points: 4
#     Node 30, Type 0, BuildingBlock: AZAVOO_clean_sbu_0, # of connection points: 4
#     Node 31, Type 0, BuildingBlock: AZAVOO_clean_sbu_0, # of connection points: 4
#     Edge 32, Type (0, 0), BuildingBlock: AJUNOK_clean_linker_0, # of connection points: 2
#     Edge 33, Type (0, 0), BuildingBlock: AJUNOK_clean_linker_0, # of connection points: 2
#     Edge 34, Type (0, 0), BuildingBlock: AJUNOK_clean_linker_0, # of connection points: 2
#     Edge 35, Type (0, 0), BuildingBlock: AJUNOK_clean_linker_0, # of connection points: 2
#     Edge 36, Type (0, 0), BuildingBlock: AJUNOK_clean_linker_0, # of connection points: 2
#     Edge 37, Type (0, 0), BuildingBlock: AJUNOK_clean_linker_0, # of connection points: 2
#     Edge 38, Type (0, 0), BuildingBlock: AJUNOK_clean_linker_0, # of connection points: 2
#     Edge 39, Type (0, 0), BuildingBlock: AJUNOK_clean_linker_0, # of connection points: 2
#     Edge 40, Type (0, 0), BuildingBlock: AJUNOK_clean_linker_0, # of connection points: 2
#     Edge 41, Type (0, 0), BuildingBlock: AJUNOK_clean_linker_0, # of connection points: 2
#     Edge 42, Type (0, 0), BuildingBlock: AJUNOK_clean_linker_0, # of connection points: 2
#     Edge 43, Type (0, 0), BuildingBlock: AJUNOK_clean_linker_0, # of connection points: 2
#     Edge 44, Type (0, 0), BuildingBlock: AJUNOK_clean_linker_0, # of connection points: 2
#     Edge 45, Type (0, 0), BuildingBlock: AJUNOK_clean_linker_0, # of connection points: 2
#     Edge 46, Type (0, 0), BuildingBlock: AJUNOK_clean_linker_0, # of connection points: 2
#     Edge 47, Type (0, 0), BuildingBlock: AJUNOK_clean_linker_0, # of connection points: 2
#     Edge 48, Type (0, 0), BuildingBlock: AJUNOK_clean_linker_0, # of connection points: 2
#     Edge 49, Type (0, 0), BuildingBlock: AJUNOK_clean_linker_0, # of connection points: 2
#     Edge 50, Type (0, 0), BuildingBlock: AJUNOK_clean_linker_0, # of connection points: 2
#     Edge 51, Type (0, 0), BuildingBlock: AJUNOK_clean_linker_0, # of connection points: 2
#     Edge 52, Type (0, 0), BuildingBlock: AJUNOK_clean_linker_0, # of connection points: 2
#     Edge 53, Type (0, 0), BuildingBlock: AJUNOK_clean_linker_0, # of connection points: 2
#     Edge 54, Type (0, 0), BuildingBlock: AJUNOK_clean_linker_0, # of connection points: 2
#     Edge 55, Type (0, 0), BuildingBlock: AJUNOK_clean_linker_0, # of connection points: 2
#     Edge 56, Type (0, 0), BuildingBlock: AJUNOK_clean_linker_0, # of connection points: 2
#     Edge 57, Type (0, 0), BuildingBlock: AJUNOK_clean_linker_0, # of connection points: 2
#     Edge 58, Type (0, 0), BuildingBlock: AJUNOK_clean_linker_0, # of connection points: 2
#     Edge 59, Type (0, 0), BuildingBlock: AJUNOK_clean_linker_0, # of connection points: 2
#     Edge 60, Type (0, 0), BuildingBlock: AJUNOK_clean_linker_0, # of connection points: 2
#     Edge 61, Type (0, 0), BuildingBlock: AJUNOK_clean_linker_0, # of connection points: 2
#     Edge 62, Type (0, 0), BuildingBlock: AJUNOK_clean_linker_0, # of connection points: 2
#     Edge 63, Type (0, 0), BuildingBlock: AJUNOK_clean_linker_0, # of connection points: 2
#     Edge 64, Type (0, 0), BuildingBlock: AJUNOK_clean_linker_0, # of connection points: 2
#     Edge 65, Type (0, 0), BuildingBlock: AJUNOK_clean_linker_0, # of connection points: 2
#     Edge 66, Type (0, 0), BuildingBlock: AJUNOK_clean_linker_0, # of connection points: 2
#     Edge 67, Type (0, 0), BuildingBlock: AJUNOK_clean_linker_0, # of connection points: 2
#     Edge 68, Type (0, 0), BuildingBlock: AJUNOK_clean_linker_0, # of connection points: 2
#     Edge 69, Type (0, 0), BuildingBlock: AJUNOK_clean_linker_0, # of connection points: 2
#     Edge 70, Type (0, 0), BuildingBlock: AJUNOK_clean_linker_0, # of connection points: 2
#     Edge 71, Type (0, 0), BuildingBlock: AJUNOK_clean_linker_0, # of connection points: 2
#     Edge 72, Type (0, 0), BuildingBlock: AJUNOK_clean_linker_0, # of connection points: 2
#     Edge 73, Type (0, 0), BuildingBlock: AJUNOK_clean_linker_0, # of connection points: 2
#     Edge 74, Type (0, 0), BuildingBlock: AJUNOK_clean_linker_0, # of connection points: 2
#     Edge 75, Type (0, 0), BuildingBlock: AJUNOK_clean_linker_0, # of connection points: 2
#     Edge 76, Type (0, 0), BuildingBlock: AJUNOK_clean_linker_0, # of connection points: 2
#     Edge 77, Type (0, 0), BuildingBlock: AJUNOK_clean_linker_0, # of connection points: 2
#     Edge 78, Type (0, 0), BuildingBlock: AJUNOK_clean_linker_0, # of connection points: 2
#     Edge 79, Type (0, 0), BuildingBlock: AJUNOK_clean_linker_0, # of connection points: 2
#     Edge 80, Type (0, 0), BuildingBlock: AJUNOK_clean_linker_0, # of connection points: 2
#     Edge 81, Type (0, 0), BuildingBlock: AJUNOK_clean_linker_0, # of connection points: 2
#     Edge 82, Type (0, 0), BuildingBlock: AJUNOK_clean_linker_0, # of connection points: 2
#     Edge 83, Type (0, 0), BuildingBlock: AJUNOK_clean_linker_0, # of connection points: 2
#     Edge 84, Type (0, 0), BuildingBlock: AJUNOK_clean_linker_0, # of connection points: 2
#     Edge 85, Type (0, 0), BuildingBlock: AJUNOK_clean_linker_0, # of connection points: 2
#     Edge 86, Type (0, 0), BuildingBlock: AJUNOK_clean_linker_0, # of connection points: 2
#     Edge 87, Type (0, 0), BuildingBlock: AJUNOK_clean_linker_0, # of connection points: 2
#     Edge 88, Type (0, 0), BuildingBlock: AJUNOK_clean_linker_0, # of connection points: 2
#     Edge 89, Type (0, 0), BuildingBlock: AJUNOK_clean_linker_0, # of connection points: 2
#     Edge 90, Type (0, 0), BuildingBlock: AJUNOK_clean_linker_0, # of connection points: 2
#     Edge 91, Type (0, 0), BuildingBlock: AJUNOK_clean_linker_0, # of connection points: 2
#     Edge 92, Type (0, 0), BuildingBlock: AJUNOK_clean_linker_0, # of connection points: 2
#     Edge 93, Type (0, 0), BuildingBlock: AJUNOK_clean_linker_0, # of connection points: 2
#     Edge 94, Type (0, 0), BuildingBlock: AJUNOK_clean_linker_0, # of connection points: 2
#     Edge 95, Type (0, 0), BuildingBlock: AJUNOK_clean_linker_0, # of connection points: 2
# Relax obj value: 0.097
# Max RMSD: 0.122
# Mean RMSD: 0.122
data_MOF--net-umq--node1-AZAVOO_clean_sbu_0--edge1-AJUNOK_clean_linker_0
_symmetry_space_group_name_H-M    P1
_symmetry_Int_Tables_number       1
_symmetry_cell_setting            triclinic
loop_
_symmetry_equiv_pos_as_xyz
'x, y, z'
_cell_length_a     48.748284
_cell_length_b     48.68401
_cell_length_c     33.383819
_cell_angle_alpha  89.973121
_cell_angle_beta   89.873157
_cell_angle_gamma 90.158791
loop_
_atom_site_label
_atom_site_type_symbol
_atom_site_fract_x
_atom_site_fract_y
_atom_site_fract_z
_atom_type_partial_charge
Mg0 Mg 0.21929 0.08754 0.18407 0.0
O1 O 0.2523 0.11961 0.19911 0.0
O2 O 0.25115 0.12518 0.2655 0.0
Mg3 Mg 0.21763 0.0988 0.29325 0.0
C4 C 0.26125 0.13081 0.23114 0.0
C5 C 0.23262 0.0604 0.10131 0.0
O6 O 0.22191 0.03944 0.12066 0.0
O7 O 0.2463 0.05342 0.20945 0.0
O8 O 0.24103 0.06032 0.27515 0.0
O9 O 0.18725 0.12016 0.1786 0.0
O10 O 0.19739 0.09884 0.23502 0.0
C11 C 0.25053 0.04641 0.24585 0.0
C12 C 0.18363 0.11748 0.21682 0.0
O13 O 0.23583 0.08294 0.12001 0.0
Mg14 Mg 0.88798 0.22321 0.1816 0.0
O15 O 0.85711 0.25668 0.19943 0.0
O16 O 0.85302 0.25425 0.26605 0.0
Mg17 Mg 0.87921 0.22007 0.2911 0.0
C18 C 0.84709 0.26526 0.23252 0.0
C19 C 0.91341 0.23684 0.09824 0.0
O20 O 0.93438 0.2257 0.11673 0.0
O21 O 0.92307 0.24974 0.20581 0.0
O22 O 0.91702 0.24424 0.27171 0.0
O23 O 0.85415 0.19207 0.17784 0.0
O24 O 0.87814 0.2004 0.23238 0.0
C25 C 0.93042 0.25407 0.24205 0.0
C26 C 0.85836 0.18741 0.21552 0.0
O27 O 0.89127 0.24038 0.11778 0.0
Mg28 Mg 0.752 0.89235 0.18249 0.0
O29 O 0.71978 0.85997 0.19961 0.0
O30 O 0.7213 0.85494 0.26599 0.0
Mg31 Mg 0.75361 0.88332 0.29201 0.0
C32 C 0.7113 0.84871 0.23189 0.0
C33 C 0.73285 0.87215 0.0989 0.0
O34 O 0.73844 0.84895 0.11721 0.0
O35 O 0.72402 0.92634 0.20595 0.0
O36 O 0.7286 0.92032 0.27194 0.0
O37 O 0.78433 0.8599 0.17954 0.0
O38 O 0.77443 0.88359 0.23393 0.0
C39 C 0.71895 0.93352 0.24207 0.0
C40 C 0.78829 0.86432 0.21734 0.0
O41 O 0.73522 0.89449 0.11838 0.0
Mg42 Mg 0.08663 0.75243 0.18767 0.0
O43 O 0.11641 0.71774 0.20254 0.0
O44 O 0.12024 0.71677 0.26919 0.0
Mg45 Mg 0.09513 0.75117 0.29713 0.0
C46 C 0.12628 0.70742 0.23456 0.0
C47 C 0.06082 0.74236 0.10337 0.0
O48 O 0.04076 0.75542 0.12149 0.0
O49 O 0.0506 0.72653 0.21033 0.0
O50 O 0.05598 0.72997 0.27652 0.0
O51 O 0.12136 0.78244 0.18416 0.0
O52 O 0.09867 0.77279 0.2398 0.0
C53 C 0.04252 0.72165 0.24611 0.0
C54 C 0.11871 0.78532 0.2225 0.0
O55 O 0.08228 0.73677 0.12329 0.0
Mg56 Mg 0.22138 0.89126 0.34669 0.0
O57 O 0.25552 0.86136 0.32833 0.0
O58 O 0.25218 0.85618 0.26195 0.0
Mg59 Mg 0.21681 0.8813 0.23757 0.0
C60 C 0.26382 0.85101 0.2953 0.0
C61 C 0.23411 0.91761 0.4295 0.0
O62 O 0.2211 0.93763 0.41131 0.0
O63 O 0.24619 0.92704 0.32066 0.0
O64 O 0.23997 0.92023 0.25508 0.0
O65 O 0.19214 0.85602 0.35253 0.0
O66 O 0.19832 0.8799 0.29704 0.0
C67 C 0.24979 0.93418 0.28411 0.0
C68 C 0.18706 0.85936 0.31479 0.0
O69 O 0.23926 0.89583 0.40984 0.0
Mg70 Mg 0.08037 0.22155 0.34233 0.0
O71 O 0.11443 0.2525 0.32648 0.0
O72 O 0.12066 0.2489 0.2603 0.0
Mg73 Mg 0.09136 0.21797 0.23322 0.0
C74 C 0.12686 0.25923 0.29419 0.0
C75 C 0.05644 0.23111 0.42685 0.0
O76 O 0.03754 0.21602 0.4094 0.0
O77 O 0.04784 0.25037 0.3167 0.0
O78 O 0.05488 0.24439 0.25114 0.0
O79 O 0.11194 0.18836 0.34723 0.0
O80 O 0.08952 0.19816 0.29179 0.0
C81 C 0.04149 0.25501 0.28012 0.0
C82 C 0.10833 0.18426 0.30928 0.0
O83 O 0.07698 0.23882 0.40609 0.0
Mg84 Mg 0.74952 0.08664 0.33878 0.0
O85 O 0.71669 0.11846 0.32285 0.0
O86 O 0.7184 0.12326 0.25621 0.0
Mg87 Mg 0.75233 0.09717 0.22956 0.0
C88 C 0.70792 0.129 0.29024 0.0
C89 C 0.73896 0.06033 0.42193 0.0
O90 O 0.7528 0.04101 0.40333 0.0
O91 O 0.72239 0.05262 0.3133 0.0
O92 O 0.72824 0.05885 0.24752 0.0
O93 O 0.78129 0.11954 0.34496 0.0
O94 O 0.77182 0.09811 0.28831 0.0
C95 C 0.71818 0.04543 0.27697 0.0
C96 C 0.78514 0.11704 0.30676 0.0
O97 O 0.73252 0.08179 0.40242 0.0
Mg98 Mg 0.88966 0.75768 0.34148 0.0
O99 O 0.85651 0.72546 0.32659 0.0
O100 O 0.8508 0.72811 0.26015 0.0
Mg101 Mg 0.87875 0.76022 0.23238 0.0
C102 C 0.84465 0.71793 0.29425 0.0
C103 C 0.91607 0.74995 0.42392 0.0
O104 O 0.93368 0.76538 0.40423 0.0
O105 O 0.92296 0.72989 0.31576 0.0
O106 O 0.91631 0.73527 0.2501 0.0
O107 O 0.85755 0.79009 0.34786 0.0
O108 O 0.87845 0.77998 0.29099 0.0
C109 C 0.92984 0.72533 0.2794 0.0
C110 C 0.8598 0.79357 0.30955 0.0
O111 O 0.895 0.74127 0.40536 0.0
Mg112 Mg 0.75499 0.89017 0.84148 0.0
O113 O 0.72455 0.85614 0.82434 0.0
O114 O 0.72799 0.8502 0.75815 0.0
Mg115 Mg 0.75892 0.8802 0.73218 0.0
C116 C 0.71773 0.84385 0.79208 0.0
C117 C 0.73369 0.8705 0.92511 0.0
O118 O 0.73855 0.84688 0.90753 0.0
O119 O 0.72591 0.92259 0.81645 0.0
O120 O 0.73199 0.91626 0.75073 0.0
O121 O 0.78871 0.85914 0.84589 0.0
O122 O 0.77861 0.88197 0.79084 0.0
C123 C 0.7212 0.92923 0.78 0.0
C124 C 0.79301 0.86341 0.80809 0.0
O125 O 0.73719 0.8925 0.90512 0.0
Mg126 Mg 0.08446 0.74951 0.84483 0.0
O127 O 0.11705 0.71752 0.82843 0.0
O128 O 0.12344 0.72072 0.76234 0.0
Mg129 Mg 0.09567 0.7533 0.73588 0.0
C130 C 0.12905 0.70999 0.79623 0.0
C131 C 0.06033 0.74049 0.92904 0.0
O132 O 0.04189 0.75601 0.9115 0.0
O133 O 0.0508 0.72208 0.81904 0.0
O134 O 0.05808 0.72805 0.7535 0.0
O135 O 0.11756 0.78096 0.8504 0.0
O136 O 0.09465 0.7727 0.79466 0.0
C137 C 0.04431 0.71777 0.78244 0.0
C138 C 0.11436 0.78523 0.81241 0.0
O139 O 0.08054 0.73209 0.90829 0.0
Mg140 Mg 0.2174 0.08562 0.84386 0.0
O141 O 0.25177 0.11541 0.82556 0.0
O142 O 0.24966 0.11937 0.7589 0.0
Mg143 Mg 0.21443 0.09426 0.73421 0.0
C144 C 0.26083 0.12498 0.79242 0.0
C145 C 0.23145 0.05973 0.92699 0.0
O146 O 0.2203 0.03868 0.90848 0.0
O147 O 0.24285 0.04994 0.81938 0.0
O148 O 0.23735 0.0559 0.75345 0.0
O149 O 0.1873 0.12034 0.84746 0.0
O150 O 0.195 0.09587 0.79312 0.0
C151 C 0.24692 0.04245 0.78309 0.0
C152 C 0.18256 0.11603 0.80982 0.0
O153 O 0.23467 0.08204 0.90763 0.0
Mg154 Mg 0.88447 0.22198 0.84113 0.0
O155 O 0.85449 0.25652 0.82587 0.0
O156 O 0.8507 0.25719 0.75918 0.0
Mg157 Mg 0.87588 0.22274 0.73156 0.0
C158 C 0.84465 0.26671 0.79371 0.0
C159 C 0.91175 0.23543 0.92393 0.0
O160 O 0.93299 0.22582 0.90418 0.0
O161 O 0.92013 0.24825 0.81811 0.0
O162 O 0.91468 0.24461 0.75194 0.0
O163 O 0.85005 0.19152 0.84475 0.0
O164 O 0.87261 0.20148 0.78913 0.0
C165 C 0.92803 0.25323 0.78228 0.0
C166 C 0.85277 0.18864 0.80641 0.0
O167 O 0.88898 0.2376 0.90566 0.0
Mg168 Mg 0.75212 0.08228 0.68013 0.0
O169 O 0.71881 0.11304 0.69781 0.0
O170 O 0.7217 0.11897 0.764 0.0
Mg171 Mg 0.75564 0.09233 0.78923 0.0
C172 C 0.71067 0.12428 0.73024 0.0
C173 C 0.74011 0.05761 0.59614 0.0
O174 O 0.75412 0.03772 0.61304 0.0
O175 O 0.72612 0.04724 0.70538 0.0
O176 O 0.73129 0.05422 0.77107 0.0
O177 O 0.78202 0.11686 0.67484 0.0
O178 O 0.77506 0.09305 0.73026 0.0
C179 C 0.72163 0.04037 0.7418 0.0
C180 C 0.78664 0.11351 0.71271 0.0
O181 O 0.73416 0.07858 0.61706 0.0
Mg182 Mg 0.89435 0.75703 0.68266 0.0
O183 O 0.86142 0.72483 0.69777 0.0
O184 O 0.85591 0.72632 0.76424 0.0
Mg185 Mg 0.88356 0.75859 0.79194 0.0
C186 C 0.84997 0.71635 0.72997 0.0
C187 C 0.91884 0.75015 0.59826 0.0
O188 O 0.93658 0.76622 0.61641 0.0
O189 O 0.92731 0.72842 0.70738 0.0
O190 O 0.92043 0.73302 0.77317 0.0
O191 O 0.86249 0.78974 0.67737 0.0
O192 O 0.88351 0.77898 0.73376 0.0
C193 C 0.93379 0.72308 0.74365 0.0
C194 C 0.86495 0.79294 0.71568 0.0
O195 O 0.89869 0.74088 0.61847 0.0
Mg196 Mg 0.22016 0.88668 0.68583 0.0
O197 O 0.2554 0.85742 0.70032 0.0
O198 O 0.2557 0.85229 0.76686 0.0
Mg199 Mg 0.22026 0.87563 0.79507 0.0
C200 C 0.26563 0.84726 0.73222 0.0
C201 C 0.23299 0.91556 0.6037 0.0
O202 O 0.22215 0.93617 0.62352 0.0
O203 O 0.24499 0.92264 0.71085 0.0
O204 O 0.24097 0.91547 0.77666 0.0
O205 O 0.19082 0.85138 0.68057 0.0
O206 O 0.19974 0.8733 0.73703 0.0
C207 C 0.24931 0.92988 0.74711 0.0
C208 C 0.18767 0.85338 0.71896 0.0
O209 O 0.23616 0.89278 0.62177 0.0
Mg210 Mg 0.08224 0.22393 0.68565 0.0
O211 O 0.11334 0.25793 0.69953 0.0
O212 O 0.1195 0.25761 0.76583 0.0
Mg213 Mg 0.09454 0.22337 0.79453 0.0
C214 C 0.12448 0.26755 0.73116 0.0
C215 C 0.05634 0.23184 0.60131 0.0
O216 O 0.03779 0.21644 0.61914 0.0
O217 O 0.04771 0.25012 0.71153 0.0
O218 O 0.0552 0.24556 0.77719 0.0
O219 O 0.11575 0.19297 0.67961 0.0
O220 O 0.09469 0.2027 0.73651 0.0
C221 C 0.04087 0.25446 0.74799 0.0
C222 C 0.11362 0.18952 0.71794 0.0
O223 O 0.07677 0.2401 0.62168 0.0
Mg224 Mg 0.72202 0.59024 0.68362 0.0
O225 O 0.75577 0.62141 0.6986 0.0
O226 O 0.7559 0.62541 0.76529 0.0
Mg227 Mg 0.72204 0.5995 0.79316 0.0
C228 C 0.76544 0.63169 0.73083 0.0
C229 C 0.73572 0.5631 0.60096 0.0
O230 O 0.72592 0.54183 0.6206 0.0
O231 O 0.74876 0.55526 0.70707 0.0
O232 O 0.74459 0.56118 0.77309 0.0
O233 O 0.69084 0.62388 0.67977 0.0
O234 O 0.70113 0.60164 0.73544 0.0
C235 C 0.75353 0.54767 0.74306 0.0
C236 C 0.68797 0.62112 0.71811 0.0
O237 O 0.73793 0.58589 0.61929 0.0
Mg238 Mg 0.39634 0.72549 0.68158 0.0
O239 O 0.36398 0.75768 0.69764 0.0
O240 O 0.35914 0.75643 0.76423 0.0
Mg241 Mg 0.3866 0.72373 0.79103 0.0
C242 C 0.35299 0.76634 0.73 0.0
C243 C 0.4213 0.73667 0.59731 0.0
O244 O 0.44155 0.72385 0.61521 0.0
O245 O 0.42988 0.75383 0.70561 0.0
O246 O 0.42383 0.74883 0.77156 0.0
O247 O 0.3641 0.69305 0.67669 0.0
O248 O 0.38575 0.70335 0.73279 0.0
C249 C 0.43691 0.75887 0.74177 0.0
C250 C 0.36687 0.68958 0.7149 0.0
O251 O 0.39985 0.74207 0.61754 0.0
Mg252 Mg 0.2539 0.39163 0.67972 0.0
O253 O 0.2187 0.36212 0.69553 0.0
O254 O 0.22082 0.35574 0.76175 0.0
Mg255 Mg 0.25605 0.37997 0.78859 0.0
C256 C 0.20973 0.35116 0.72779 0.0
C257 C 0.25379 0.41269 0.595 0.0
O258 O 0.27528 0.42355 0.6127 0.0
O259 O 0.22971 0.4276 0.70572 0.0
O260 O 0.23442 0.41967 0.77128 0.0
O261 O 0.28235 0.35597 0.67396 0.0
O262 O 0.27558 0.37917 0.72988 0.0
C263 C 0.22572 0.43437 0.7423 0.0
C264 C 0.28676 0.35874 0.71198 0.0
O265 O 0.23781 0.39777 0.61594 0.0
Mg266 Mg 0.58793 0.25515 0.68727 0.0
O267 O 0.61773 0.22029 0.70171 0.0
O268 O 0.62208 0.21938 0.76831 0.0
Mg269 Mg 0.59738 0.25389 0.79664 0.0
C270 C 0.62775 0.20992 0.73361 0.0
C271 C 0.56175 0.24679 0.60309 0.0
O272 O 0.54243 0.26062 0.6217 0.0
O273 O 0.5522 0.22928 0.71061 0.0
O274 O 0.55817 0.23256 0.77671 0.0
O275 O 0.6225 0.28532 0.68332 0.0
O276 O 0.60022 0.27537 0.73921 0.0
C277 C 0.54443 0.22434 0.7465 0.0
C278 C 0.61999 0.28816 0.72169 0.0
O279 O 0.58294 0.23985 0.62276 0.0
Mg280 Mg 0.72103 0.39542 0.84491 0.0
O281 O 0.75375 0.36401 0.82756 0.0
O282 O 0.75027 0.3571 0.76163 0.0
Mg283 Mg 0.7163 0.38364 0.73618 0.0
C284 C 0.76152 0.3522 0.79537 0.0
C285 C 0.73252 0.42029 0.9288 0.0
O286 O 0.71737 0.43942 0.91215 0.0
O287 O 0.74728 0.42964 0.81773 0.0
O288 O 0.74109 0.42181 0.7524 0.0
O289 O 0.69073 0.36129 0.85179 0.0
O290 O 0.69758 0.38426 0.79559 0.0
C291 C 0.75134 0.43591 0.78094 0.0
C292 C 0.6859 0.36419 0.8139 0.0
O293 O 0.7395 0.39973 0.90767 0.0
Mg294 Mg 0.58539 0.7245 0.84374 0.0
O295 O 0.61962 0.75478 0.82615 0.0
O296 O 0.62627 0.74942 0.76031 0.0
Mg297 Mg 0.59634 0.71832 0.73497 0.0
C298 C 0.63238 0.76053 0.79372 0.0
C299 C 0.56067 0.73765 0.92659 0.0
O300 O 0.5406 0.72452 0.90856 0.0
O301 O 0.55321 0.753 0.81701 0.0
O302 O 0.56051 0.74615 0.75171 0.0
O303 O 0.61701 0.69187 0.85047 0.0
O304 O 0.5944 0.70001 0.79444 0.0
C305 C 0.54718 0.75739 0.78029 0.0
C306 C 0.61369 0.6872 0.81261 0.0
O307 O 0.58223 0.74307 0.90656 0.0
Mg308 Mg 0.26054 0.58766 0.8417 0.0
O309 O 0.2272 0.6192 0.82683 0.0
O310 O 0.22804 0.62486 0.7605 0.0
Mg311 Mg 0.26136 0.59867 0.73258 0.0
C312 C 0.218 0.63029 0.79492 0.0
C313 C 0.24941 0.56101 0.9245 0.0
O314 O 0.26207 0.54128 0.90507 0.0
O315 O 0.23329 0.55335 0.81711 0.0
O316 O 0.23764 0.56034 0.7512 0.0
O317 O 0.29227 0.62105 0.8453 0.0
O318 O 0.28236 0.59811 0.79032 0.0
C319 C 0.22833 0.54653 0.7808 0.0
C320 C 0.29613 0.6173 0.80729 0.0
O321 O 0.24421 0.58318 0.90586 0.0
Mg322 Mg 0.38662 0.25139 0.83732 0.0
O323 O 0.35736 0.21612 0.82157 0.0
O324 O 0.35369 0.21614 0.75476 0.0
Mg325 Mg 0.3779 0.25161 0.72774 0.0
C326 C 0.34794 0.20603 0.78905 0.0
C327 C 0.37058 0.23185 0.9229 0.0
O328 O 0.34646 0.2346 0.90588 0.0
O329 O 0.42284 0.2265 0.8136 0.0
O330 O 0.41732 0.23086 0.74753 0.0
O331 O 0.35151 0.28068 0.84189 0.0
O332 O 0.37405 0.27192 0.78585 0.0
C333 C 0.4309 0.2223 0.77764 0.0
C334 C 0.35395 0.28392 0.80358 0.0
O335 O 0.39194 0.23575 0.90167 0.0
Mg336 Mg 0.25093 0.38936 0.33658 0.0
O337 O 0.21922 0.35538 0.32382 0.0
O338 O 0.22096 0.34915 0.25737 0.0
Mg339 Mg 0.25223 0.37713 0.2277 0.0
C340 C 0.21142 0.34313 0.29192 0.0
C341 C 0.25197 0.41111 0.42058 0.0
O342 O 0.27253 0.42249 0.40115 0.0
O343 O 0.22214 0.42181 0.31114 0.0
O344 O 0.22753 0.41493 0.24548 0.0
O345 O 0.28423 0.35826 0.34267 0.0
O346 O 0.2727 0.37804 0.2856 0.0
C347 C 0.21754 0.42854 0.27472 0.0
C348 C 0.28724 0.36019 0.30424 0.0
O349 O 0.23603 0.39527 0.40114 0.0
Mg350 Mg 0.58519 0.257 0.34408 0.0
O351 O 0.61595 0.22353 0.32618 0.0
O352 O 0.62034 0.22635 0.25952 0.0
Mg353 Mg 0.59489 0.26134 0.23472 0.0
C354 C 0.62598 0.21506 0.293 0.0
C355 C 0.5609 0.24825 0.42869 0.0
O356 O 0.543 0.26473 0.41183 0.0
O357 O 0.5504 0.23083 0.31836 0.0
O358 O 0.55664 0.23729 0.25268 0.0
O359 O 0.61889 0.28794 0.35056 0.0
O360 O 0.59677 0.2798 0.29411 0.0
C361 C 0.54321 0.227 0.28194 0.0
C362 C 0.61618 0.2924 0.31255 0.0
O363 O 0.58064 0.23933 0.40743 0.0
Mg364 Mg 0.72343 0.58636 0.34332 0.0
O365 O 0.75424 0.62052 0.32726 0.0
O366 O 0.75146 0.62589 0.26087 0.0
Mg367 Mg 0.72082 0.59616 0.23402 0.0
C368 C 0.76136 0.63255 0.29484 0.0
C369 C 0.73722 0.56146 0.4267 0.0
O370 O 0.72681 0.54012 0.408 0.0
O371 O 0.75266 0.55376 0.3189 0.0
O372 O 0.74715 0.55982 0.25309 0.0
O373 O 0.68989 0.61757 0.34726 0.0
O374 O 0.7004 0.59484 0.29227 0.0
C375 C 0.75758 0.54688 0.28259 0.0
C376 C 0.68602 0.61353 0.30935 0.0
O377 O 0.7402 0.58378 0.4073 0.0
Mg378 Mg 0.38843 0.72362 0.34209 0.0
O379 O 0.35783 0.75765 0.3259 0.0
O380 O 0.35316 0.75598 0.25928 0.0
Mg381 Mg 0.3779 0.72085 0.23298 0.0
C382 C 0.34773 0.76678 0.2932 0.0
C383 C 0.41677 0.73582 0.42324 0.0
O384 O 0.43631 0.72336 0.40316 0.0
O385 O 0.42343 0.74934 0.31612 0.0
O386 O 0.41719 0.7434 0.25041 0.0
O387 O 0.35456 0.6928 0.34873 0.0
O388 O 0.37623 0.70154 0.29195 0.0
C389 C 0.43091 0.75304 0.27976 0.0
C390 C 0.35705 0.68864 0.3106 0.0
O391 O 0.39422 0.74063 0.4055 0.0
Mg392 Mg 0.2551 0.58339 0.18301 0.0
O393 O 0.22114 0.61404 0.19922 0.0
O394 O 0.22179 0.61823 0.26582 0.0
Mg395 Mg 0.25495 0.59154 0.29257 0.0
C396 C 0.21181 0.62433 0.23167 0.0
C397 C 0.24615 0.55866 0.09883 0.0
O398 O 0.25913 0.53893 0.11774 0.0
O399 O 0.22806 0.54817 0.20526 0.0
O400 O 0.23121 0.5538 0.27148 0.0
O401 O 0.2858 0.61751 0.18079 0.0
O402 O 0.27643 0.5934 0.23507 0.0
C403 C 0.22241 0.5406 0.24103 0.0
C404 C 0.28942 0.61351 0.21877 0.0
O405 O 0.23966 0.5801 0.1184 0.0
Mg406 Mg 0.39088 0.25503 0.18092 0.0
O407 O 0.35879 0.22245 0.1979 0.0
O408 O 0.35261 0.22506 0.26401 0.0
Mg409 Mg 0.37983 0.25838 0.29001 0.0
C410 C 0.34713 0.21435 0.23008 0.0
C411 C 0.3726 0.23522 0.09699 0.0
O412 O 0.34915 0.24123 0.11432 0.0
O413 O 0.42507 0.22826 0.20665 0.0
O414 O 0.41775 0.23403 0.2722 0.0
O415 O 0.35785 0.28672 0.17586 0.0
O416 O 0.38086 0.27812 0.23123 0.0
C417 C 0.43175 0.22417 0.24323 0.0
C418 C 0.3616 0.29133 0.21365 0.0
O419 O 0.39448 0.23726 0.11749 0.0
Mg420 Mg 0.72348 0.39396 0.18696 0.0
O421 O 0.75625 0.36199 0.20286 0.0
O422 O 0.75487 0.35736 0.26944 0.0
Mg423 Mg 0.7219 0.38435 0.29632 0.0
C424 C 0.76507 0.35137 0.23536 0.0
C425 C 0.73481 0.4192 0.1031 0.0
O426 O 0.72243 0.43949 0.12168 0.0
O427 O 0.7511 0.42824 0.21094 0.0
O428 O 0.74647 0.42198 0.27691 0.0
O429 O 0.69153 0.3609 0.18355 0.0
O430 O 0.70119 0.38419 0.23834 0.0
C431 C 0.75608 0.43537 0.24709 0.0
C432 C 0.68752 0.36484 0.22148 0.0
O433 O 0.74001 0.39746 0.12278 0.0
Mg434 Mg 0.58552 0.7207 0.18411 0.0
O435 O 0.61707 0.75373 0.2004 0.0
O436 O 0.62213 0.7525 0.26685 0.0
Mg437 Mg 0.59536 0.71877 0.29339 0.0
C438 C 0.628 0.76265 0.2326 0.0
C439 C 0.55988 0.73495 0.10073 0.0
O440 O 0.53869 0.7234 0.11848 0.0
O441 O 0.55105 0.74743 0.20878 0.0
O442 O 0.5571 0.74234 0.27463 0.0
O443 O 0.61858 0.68921 0.17877 0.0
O444 O 0.59645 0.69853 0.23496 0.0
C445 C 0.5436 0.75179 0.24496 0.0
C446 C 0.61564 0.68536 0.21691 0.0
O447 O 0.58185 0.73814 0.12064 0.0
C448 C 0.31372 0.18348 0.26454 0.0
C449 C 0.32603 0.19231 0.22861 0.0
C450 C 0.29314 0.16354 0.26478 0.0
C451 C 0.28377 0.15137 0.22909 0.0
H452 H 0.31981 0.19215 0.29306 0.0
H453 H 0.28441 0.15783 0.29347 0.0
S454 S 0.30969 0.16652 0.12662 0.0
N455 N 0.32777 0.18684 0.15611 0.0
N456 N 0.28888 0.14923 0.15653 0.0
C457 C 0.2961 0.15965 0.19279 0.0
C458 C 0.31724 0.1801 0.19255 0.0
C459 C 0.81222 0.2948 0.19824 0.0
C460 C 0.8278 0.28865 0.23251 0.0
C461 C 0.79241 0.31565 0.19892 0.0
C462 C 0.78754 0.33105 0.23389 0.0
H463 H 0.81475 0.28291 0.17107 0.0
H464 H 0.78029 0.31915 0.17224 0.0
S465 S 0.82571 0.32568 0.32974 0.0
N466 N 0.83897 0.30154 0.30104 0.0
N467 N 0.80189 0.34057 0.3023 0.0
C468 C 0.80391 0.32594 0.26772 0.0
C469 C 0.824 0.30479 0.26704 0.0
C470 C 0.66078 0.79438 0.26643 0.0
C471 C 0.64858 0.78514 0.23072 0.0
C472 C 0.68073 0.81497 0.26624 0.0
C473 C 0.68949 0.8274 0.23035 0.0
H474 H 0.6551 0.78556 0.29507 0.0
H475 H 0.68942 0.821 0.29476 0.0
S476 S 0.66358 0.81132 0.12835 0.0
N477 N 0.64636 0.79041 0.15821 0.0
N478 N 0.68393 0.82932 0.15788 0.0
C479 C 0.67728 0.81867 0.19428 0.0
C480 C 0.65684 0.79753 0.19446 0.0
C481 C 0.17822 0.65434 0.26684 0.0
C482 C 0.18891 0.64432 0.2305 0.0
C483 C 0.15761 0.6741 0.26757 0.0
C484 C 0.14661 0.68488 0.23198 0.0
H485 H 0.18603 0.64717 0.29534 0.0
H486 H 0.15061 0.68125 0.29655 0.0
S487 S 0.16612 0.66447 0.12851 0.0
N488 N 0.18604 0.64579 0.15769 0.0
N489 N 0.14709 0.68312 0.15902 0.0
C490 C 0.15646 0.67454 0.19523 0.0
C491 C 0.17762 0.65426 0.19449 0.0
C492 C 0.29332 0.81642 0.33014 0.0
C493 C 0.28709 0.83158 0.29544 0.0
C494 C 0.31359 0.79603 0.32962 0.0
C495 C 0.32833 0.7901 0.29438 0.0
H496 H 0.28184 0.81964 0.35755 0.0
H497 H 0.31705 0.78424 0.35666 0.0
S498 S 0.32266 0.82685 0.19721 0.0
N499 N 0.2993 0.84127 0.22612 0.0
N500 N 0.3373 0.80309 0.22512 0.0
C501 C 0.32325 0.80611 0.26009 0.0
C502 C 0.30266 0.8268 0.26062 0.0
C503 C 0.17059 0.32059 0.32413 0.0
C504 C 0.19116 0.32059 0.29449 0.0
C505 C 0.1501 0.30024 0.32466 0.0
C506 C 0.1496 0.27932 0.29558 0.0
H507 H 0.16984 0.33683 0.34626 0.0
H508 H 0.13412 0.30139 0.3472 0.0
S509 S 0.20154 0.26766 0.21589 0.0
N510 N 0.21158 0.29613 0.23835 0.0
N511 N 0.17327 0.25808 0.23935 0.0
C512 C 0.1709 0.27837 0.26714 0.0
C513 C 0.19163 0.29896 0.2666 0.0
C514 C 0.68034 0.16445 0.32668 0.0
C515 C 0.68534 0.14918 0.29164 0.0
C516 C 0.66056 0.1853 0.32733 0.0
C517 C 0.64513 0.19158 0.29297 0.0
H518 H 0.69236 0.16089 0.35342 0.0
H519 H 0.65796 0.19711 0.35457 0.0
S520 S 0.64753 0.15484 0.19554 0.0
N521 N 0.67124 0.13985 0.22306 0.0
N522 N 0.63417 0.17891 0.22429 0.0
C523 C 0.64902 0.17554 0.25838 0.0
C524 C 0.66909 0.15438 0.25771 0.0
C525 C 0.8017 0.65636 0.32612 0.0
C526 C 0.78144 0.65534 0.29619 0.0
C527 C 0.82189 0.677 0.32596 0.0
C528 C 0.82242 0.69725 0.29587 0.0
H529 H 0.80243 0.64071 0.34917 0.0
H530 H 0.83757 0.67667 0.34891 0.0
S531 S 0.77134 0.70609 0.2145 0.0
N532 N 0.76143 0.67805 0.23829 0.0
N533 N 0.79915 0.71668 0.238 0.0
C534 C 0.80148 0.69713 0.26692 0.0
C535 C 0.78105 0.67622 0.26707 0.0
C536 C 0.67714 0.82098 0.82412 0.0
C537 C 0.69719 0.8215 0.79373 0.0
C538 C 0.65647 0.80087 0.82448 0.0
C539 C 0.65521 0.78059 0.7945 0.0
H540 H 0.67696 0.83663 0.84718 0.0
H541 H 0.64102 0.80165 0.84782 0.0
S542 S 0.7054 0.7705 0.71195 0.0
N543 N 0.71617 0.79832 0.7354 0.0
N544 N 0.67754 0.76057 0.73614 0.0
C545 C 0.67591 0.78018 0.76506 0.0
C546 C 0.69685 0.80061 0.76466 0.0
C547 C 0.16354 0.68064 0.76171 0.0
C548 C 0.15092 0.68887 0.79768 0.0
C549 C 0.18498 0.66174 0.76143 0.0
C550 C 0.19491 0.65005 0.79711 0.0
H551 H 0.15703 0.68897 0.73319 0.0
H552 H 0.19386 0.65643 0.73271 0.0
S553 S 0.16862 0.66403 0.89966 0.0
N554 N 0.14963 0.68345 0.87021 0.0
N555 N 0.19007 0.64772 0.86969 0.0
C556 C 0.18233 0.65776 0.83345 0.0
C557 C 0.16033 0.67716 0.83373 0.0
C558 C 0.31253 0.17855 0.82595 0.0
C559 C 0.3281 0.18305 0.79097 0.0
C560 C 0.29129 0.15909 0.82669 0.0
C561 C 0.28488 0.14351 0.79247 0.0
H562 H 0.31603 0.19085 0.85249 0.0
H563 H 0.27921 0.15697 0.85379 0.0
S564 S 0.32236 0.14442 0.69547 0.0
N565 N 0.33766 0.16814 0.72279 0.0
N566 N 0.29783 0.13167 0.72415 0.0
C567 C 0.3013 0.14675 0.75806 0.0
C568 C 0.32289 0.16649 0.75732 0.0
C569 C 0.81456 0.30097 0.76015 0.0
C570 C 0.82476 0.28966 0.79593 0.0
C571 C 0.7946 0.32143 0.76054 0.0
C572 C 0.78386 0.33163 0.79671 0.0
H573 H 0.82172 0.29377 0.73129 0.0
H574 H 0.78738 0.32907 0.73197 0.0
S575 S 0.80438 0.30997 0.89908 0.0
N576 N 0.82326 0.29093 0.86888 0.0
N577 N 0.78558 0.32953 0.86958 0.0
C578 C 0.79431 0.32109 0.8329 0.0
C579 C 0.81476 0.30011 0.83251 0.0
C580 C 0.65737 0.17491 0.76638 0.0
C581 C 0.64743 0.18681 0.73086 0.0
C582 C 0.67726 0.1544 0.76557 0.0
C583 C 0.68821 0.14474 0.72922 0.0
H584 H 0.65006 0.1817 0.79538 0.0
H585 H 0.6843 0.14633 0.79399 0.0
S586 S 0.66823 0.16791 0.62731 0.0
N587 N 0.64927 0.18658 0.6579 0.0
N588 N 0.68683 0.14787 0.65641 0.0
C589 C 0.67795 0.1558 0.69324 0.0
C590 C 0.65756 0.17684 0.69407 0.0
C591 C 0.7945 0.66706 0.76389 0.0
C592 C 0.78755 0.6526 0.72886 0.0
C593 C 0.8146 0.68744 0.76362 0.0
C594 C 0.82883 0.69441 0.72832 0.0
H595 H 0.78415 0.6629 0.792 0.0
H596 H 0.81881 0.6979 0.79159 0.0
S597 S 0.819 0.66236 0.62838 0.0
N598 N 0.79682 0.64636 0.65773 0.0
N599 N 0.83486 0.68487 0.65722 0.0
C600 C 0.82229 0.68008 0.69293 0.0
C601 C 0.80163 0.65916 0.69321 0.0
C602 C 0.30225 0.81982 0.76503 0.0
C603 C 0.28917 0.82817 0.72955 0.0
C604 C 0.32315 0.80035 0.7645 0.0
C605 C 0.33201 0.78826 0.72848 0.0
H606 H 0.29611 0.82808 0.79379 0.0
H607 H 0.33218 0.79455 0.79289 0.0
S608 S 0.30549 0.80386 0.62676 0.0
N609 N 0.28731 0.82359 0.65694 0.0
N610 N 0.32679 0.78682 0.65596 0.0
C611 C 0.31975 0.79696 0.69248 0.0
C612 C 0.29832 0.81693 0.69302 0.0
C613 C 0.15362 0.30324 0.76347 0.0
C614 C 0.14449 0.29044 0.72814 0.0
C615 C 0.17403 0.32335 0.76263 0.0
C616 C 0.18634 0.33166 0.72644 0.0
H617 H 0.14527 0.29744 0.79236 0.0
H618 H 0.18046 0.3321 0.79094 0.0
S619 S 0.16868 0.30596 0.62493 0.0
N620 N 0.14836 0.28855 0.65542 0.0
N621 N 0.18694 0.32651 0.65388 0.0
C622 C 0.17675 0.31986 0.69056 0.0
C623 C 0.15581 0.29924 0.69141 0.0
C624 C 0.24021 0.08349 0.03484 0.0
C625 C 0.23666 0.05913 0.05708 0.0
C626 C 0.23992 0.08334 0.99277 0.0
C627 C 0.23606 0.05881 0.9711 0.0
H628 H 0.24206 0.10309 0.04996 0.0
H629 H 0.24155 0.10282 0.97724 0.0
S630 S 0.23033 -0.01117 0.01483 0.0
N631 N 0.23244 0.00936 0.05403 0.0
N632 N 0.23188 0.00906 0.97519 0.0
C633 C 0.23433 0.03408 0.99292 0.0
C634 C 0.23463 0.03424 0.03577 0.0
C635 C 0.88905 0.24362 0.9905 0.0
C636 C 0.91327 0.23991 0.96805 0.0
C637 C 0.88945 0.24406 0.03255 0.0
C638 C 0.91408 0.24079 0.05399 0.0
H639 H 0.86939 0.24508 0.97561 0.0
H640 H 0.87008 0.24579 0.04829 0.0
S641 S 0.98374 0.23485 1.00956 0.0
N642 N 0.96301 0.23612 0.97058 0.0
N643 N 0.96373 0.23694 0.04939 0.0
C644 C 0.93865 0.23888 0.03191 0.0
C645 C 0.93826 0.23844 0.98907 0.0
C646 C 0.73342 0.89603 0.99047 0.0
C647 C 0.72867 0.87154 0.96907 0.0
C648 C 0.73321 0.89644 0.03254 0.0
C649 C 0.72825 0.87238 0.05488 0.0
H650 H 0.73869 0.91479 0.97475 0.0
H651 H 0.73832 0.91549 0.04756 0.0
S652 S 0.70952 0.80413 0.01334 0.0
N653 N 0.71514 0.82348 0.97352 0.0
N654 N 0.71482 0.82426 0.05236 0.0
C655 C 0.72147 0.84826 0.03385 0.0
C656 C 0.72165 0.84784 0.99104 0.0
C657 C 0.0373 0.74751 0.99527 0.0
C658 C 0.05947 0.7367 0.97332 0.0
C659 C 0.03743 0.74803 0.03723 0.0
C660 C 0.05977 0.7378 0.05926 0.0
H661 H 0.01997 0.75659 0.97998 0.0
H662 H 0.0202 0.75749 0.05236 0.0
S663 S 0.12151 0.70399 0.01654 0.0
N664 N 0.10334 0.71305 0.97703 0.0
N665 N 0.1036 0.71403 0.05591 0.0
C666 C 0.0814 0.72541 0.03784 0.0
C667 C 0.08125 0.72484 0.99493 0.0
C668 C 0.24317 0.89408 0.49508 0.0
C669 C 0.23827 0.91851 0.47368 0.0
C670 C 0.24279 0.89358 0.53713 0.0
C671 C 0.23752 0.91749 0.55961 0.0
H672 H 0.2461 0.87486 0.47932 0.0
H673 H 0.2455 0.87399 0.552 0.0
S674 S 0.22797 0.98764 0.51816 0.0
N675 N 0.23126 0.96786 0.47831 0.0
N676 N 0.23061 0.96696 0.55714 0.0
C677 C 0.23448 0.94241 0.53862 0.0
C678 C 0.23483 0.9429 0.49577 0.0
C679 C 0.03333 0.2246 0.53519 0.0
C680 C 0.05532 0.23583 0.55706 0.0
C681 C 0.03338 0.22442 0.49321 0.0
C682 C 0.05543 0.23544 0.47105 0.0
H683 H 0.01624 0.21495 0.55052 0.0
H684 H 0.0163 0.21463 0.47813 0.0
S685 S 0.11658 0.27046 0.51362 0.0
N686 N 0.09868 0.26065 0.55319 0.0
N687 N 0.09878 0.26026 0.47429 0.0
C688 C 0.07684 0.24822 0.49243 0.0
C689 C 0.07678 0.24843 0.53536 0.0
C690 C 0.7451 0.03508 0.52916 0.0
C691 C 0.73538 0.05731 0.55205 0.0
C692 C 0.74484 0.03575 0.4872 0.0
C693 C 0.73485 0.05868 0.46612 0.0
H694 H 0.754 0.01731 0.54364 0.0
H695 H 0.75355 0.01846 0.47126 0.0
S696 S 0.70349 0.12077 0.51171 0.0
N697 N 0.7128 0.10184 0.55038 0.0
N698 N 0.71232 0.10311 0.47152 0.0
C699 C 0.72341 0.08035 0.48856 0.0
C700 C 0.72367 0.07966 0.53146 0.0
C701 C 0.89727 0.7362 0.53295 0.0
C702 C 0.92015 0.7464 0.554 0.0
C703 C 0.89659 0.73616 0.49085 0.0
C704 C 0.91878 0.7463 0.46806 0.0
H705 H 0.87922 0.72921 0.54901 0.0
H706 H 0.87806 0.72915 0.47619 0.0
S707 S 0.98517 0.77156 0.50855 0.0
N708 N 0.96671 0.76419 0.54865 0.0
N709 N 0.96548 0.76409 0.4699 0.0
C710 C 0.94244 0.75496 0.48874 0.0
C711 C 0.94311 0.75502 0.53156 0.0
C712 C 0.74373 0.58593 0.53447 0.0
C713 C 0.74025 0.56163 0.55687 0.0
C714 C 0.74415 0.58554 0.49242 0.0
C715 C 0.7411 0.56083 0.47094 0.0
H716 H 0.74502 0.60564 0.5494 0.0
H717 H 0.74571 0.60496 0.47673 0.0
S718 S 0.73581 0.491 0.51528 0.0
N719 N 0.73692 0.51178 0.5543 0.0
N720 N 0.73768 0.51104 0.47547 0.0
C721 C 0.73941 0.53619 0.49298 0.0
C722 C 0.739 0.53659 0.53582 0.0
C723 C 0.39609 0.74636 0.49047 0.0
C724 C 0.41942 0.74022 0.46722 0.0
C725 C 0.39719 0.74659 0.5325 0.0
C726 C 0.42168 0.74066 0.55307 0.0
H727 H 0.37646 0.74989 0.47625 0.0
H728 H 0.37836 0.75028 0.54891 0.0
S729 S 0.48959 0.7276 0.50624 0.0
N730 N 0.46851 0.73123 0.468 0.0
N731 N 0.47056 0.73162 0.54675 0.0
C732 C 0.44556 0.73628 0.53016 0.0
C733 C 0.44444 0.73607 0.48736 0.0
C734 C 0.23278 0.39663 0.48754 0.0
C735 C 0.24976 0.41424 0.46486 0.0
C736 C 0.23319 0.39705 0.52969 0.0
C737 C 0.2506 0.41507 0.55078 0.0
H738 H 0.21983 0.38167 0.47272 0.0
H739 H 0.22055 0.38237 0.54575 0.0
S740 S 0.29638 0.46787 0.50563 0.0
N741 N 0.28248 0.45209 0.46693 0.0
N742 N 0.28324 0.45282 0.54561 0.0
C743 C 0.26651 0.43381 0.52843 0.0
C744 C 0.26609 0.43341 0.48566 0.0
C745 C 0.53849 0.25459 0.5373 0.0
C746 C 0.56044 0.24306 0.55882 0.0
C747 C 0.5383 0.25493 0.49533 0.0
C748 C 0.56 0.24369 0.47283 0.0
H749 H 0.52167 0.26441 0.5529 0.0
H750 H 0.52131 0.26497 0.48051 0.0
S751 S 0.62076 0.20775 0.51444 0.0
N752 N 0.6033 0.21769 0.55428 0.0
N753 N 0.60292 0.2183 0.47539 0.0
C754 C 0.58132 0.23057 0.49387 0.0
C755 C 0.58154 0.23026 0.53679 0.0
C756 C 0.72837 0.4435 0.99541 0.0
C757 C 0.73754 0.42089 0.97282 0.0
C758 C 0.72893 0.44323 0.03738 0.0
C759 C 0.73861 0.42031 0.05879 0.0
H760 H 0.71973 0.4613 0.98068 0.0
H761 H 0.72067 0.46084 0.05307 0.0
S762 S 0.76838 0.35716 0.01404 0.0
N763 N 0.75922 0.37592 0.97511 0.0
N764 N 0.76019 0.37539 0.05399 0.0
C765 C 0.74945 0.3982 0.03663 0.0
C766 C 0.74895 0.3985 0.99372 0.0
C767 C 0.53625 0.73209 0.03435 0.0
C768 C 0.55934 0.74016 0.05675 0.0
C769 C 0.53644 0.7328 0.99239 0.0
C770 C 0.55971 0.74164 0.97083 0.0
H771 H 0.51814 0.72407 0.04919 0.0
H772 H 0.51846 0.7253 0.9768 0.0
S773 S 0.62413 0.76889 0.01517 0.0
N774 N 0.60513 0.76021 0.05419 0.0
N775 N 0.60549 0.76153 0.97534 0.0
C776 C 0.58231 0.75156 0.99284 0.0
C777 C 0.58213 0.75081 0.03573 0.0
C778 C 0.23655 0.58169 0.03294 0.0
C779 C 0.24305 0.55768 0.05446 0.0
C780 C 0.23741 0.58227 0.99087 0.0
C781 C 0.24479 0.55886 0.96854 0.0
H782 H 0.23183 0.60057 0.04864 0.0
H783 H 0.23328 0.60156 0.9759 0.0
S784 S 0.25971 0.48972 1.01023 0.0
N785 N 0.25423 0.5091 0.04997 0.0
N786 N 0.25584 0.51017 0.97122 0.0
C787 C 0.24967 0.53428 0.98963 0.0
C788 C 0.2488 0.5337 0.03244 0.0
C789 C 0.34808 0.22677 0.98992 0.0
C790 C 0.37239 0.22837 0.96716 0.0
C791 C 0.34858 0.22759 0.03185 0.0
C792 C 0.37339 0.22999 0.05305 0.0
H793 H 0.32829 0.2259 0.9753 0.0
H794 H 0.32914 0.22727 0.04766 0.0
S795 S 0.44316 0.23121 1.00808 0.0
N796 N 0.42229 0.22971 0.96925 0.0
N797 N 0.42321 0.23123 0.04811 0.0
C798 C 0.39802 0.2298 0.03086 0.0
C799 C 0.39752 0.22901 0.98797 0.0
C800 C 0.26197 0.00985 0.29533 0.0
C801 C 0.26141 0.01869 0.25507 0.0
C802 C 0.26158 0.98191 0.30505 0.0
C803 C 0.26088 0.96185 0.27483 0.0
H804 H 0.25993 0.02445 0.31963 0.0
H805 H 0.25907 0.97624 0.33622 0.0
S806 S 0.26997 0.97421 0.16574 0.0
N807 N 0.26785 0.0052 0.18549 0.0
N808 N 0.26766 0.9526 0.20374 0.0
C809 C 0.26525 0.97039 0.23493 0.0
C810 C 0.26544 -0.00111 0.22501 0.0
C811 C 0.96643 0.26793 0.29097 0.0
C812 C 0.95779 0.26604 0.25075 0.0
C813 C -0.0057 0.26841 0.30078 0.0
C814 C 0.01442 0.26718 0.27065 0.0
H815 H 0.95179 0.26615 0.3153 0.0
H816 H -0.00013 0.26661 0.33206 0.0
S817 S 0.00233 0.27377 0.16121 0.0
N818 N 0.97134 0.27133 0.18095 0.0
N819 N 0.02381 0.27283 0.19935 0.0
C820 C 0.00598 0.27074 0.23058 0.0
C821 C 0.97755 0.27 0.22057 0.0
C822 C 0.70566 -0.00178 0.29933 0.0
C823 C 0.70651 0.0179 0.26855 0.0
C824 C 0.70572 0.97018 0.29039 0.0
C825 C 0.70692 0.9609 0.25039 0.0
H826 H 0.70791 0.00429 0.33037 0.0
H827 H 0.70782 0.95591 0.3151 0.0
S828 S 0.69795 0.00414 0.15987 0.0
N829 N 0.6998 0.02624 0.19727 0.0
N830 N 0.70048 0.9734 0.18044 0.0
C831 C 0.70262 0.98024 0.21978 0.0
C832 C 0.70233 0.00885 0.22892 0.0
C833 C -0.00507 0.71301 0.22201 0.0
C834 C 0.01426 0.71137 0.25307 0.0
C835 C 0.96684 0.7139 0.2305 0.0
C836 C 0.95714 0.71339 0.27035 0.0
H837 H 0.00145 0.71646 0.19137 0.0
H838 H 0.95298 0.71778 0.20582 0.0
S839 S -0.00109 0.69863 0.36055 0.0
N840 N 0.02146 0.7012 0.32375 0.0
N841 N 0.9686 0.70336 0.33975 0.0
C842 C 0.97595 0.70701 0.30081 0.0
C843 C 0.00458 0.7059 0.29211 0.0
C844 C 0.70817 0.97641 0.80126 0.0
C845 C 0.70877 0.95629 0.77111 0.0
C846 C 0.70859 0.00432 0.79142 0.0
C847 C 0.70975 0.013 0.75113 0.0
H848 H 0.71056 0.97078 0.83245 0.0
H849 H 0.71094 0.01894 0.81564 0.0
S850 S 0.70006 0.96853 0.66206 0.0
N851 N 0.70171 0.94696 0.70016 0.0
N852 N 0.70298 -0.00047 0.68162 0.0
C853 C 0.70511 -0.00674 0.72117 0.0
C854 C 0.70448 0.9648 0.73123 0.0
C855 C 0.96881 0.70767 0.79299 0.0
C856 C 0.96042 0.7098 0.75269 0.0
C857 C -0.00341 0.70611 0.80299 0.0
C858 C 0.01683 0.70645 0.77297 0.0
H859 H 0.95419 0.7102 0.81719 0.0
H860 H 0.00214 0.70784 0.83429 0.0
S861 S 0.00482 0.69968 0.66358 0.0
N862 N 0.97391 0.70349 0.68305 0.0
N863 N 0.02621 0.69999 0.70186 0.0
C864 C 0.00838 0.70299 0.73291 0.0
C865 C 0.98006 0.70483 0.7227 0.0
C866 C 0.25931 0.96713 0.79616 0.0
C867 C 0.25935 0.95798 0.75606 0.0
C868 C 0.25869 -0.00488 0.80534 0.0
C869 C 0.25832 0.01489 0.77472 0.0
H870 H 0.25706 0.95272 0.8207 0.0
H871 H 0.25573 0.00103 0.83632 0.0
S872 S 0.26893 0.00176 0.66613 0.0
N873 N 0.26664 0.97091 0.6864 0.0
N874 N 0.26605 0.02365 0.70365 0.0
C875 C 0.26325 0.00609 0.7351 0.0
C876 C 0.26365 0.97754 0.72572 0.0
C877 C 0.97542 0.26324 0.80602 0.0
C878 C 0.95593 0.26435 0.77514 0.0
C879 C 0.00349 0.26361 0.7973 0.0
C880 C 0.01301 0.26487 0.75739 0.0
H881 H 0.96917 0.25933 0.83665 0.0
H882 H 0.01759 0.26016 0.82182 0.0
S883 S 0.9703 0.27846 0.66774 0.0
N884 N 0.94803 0.27466 0.70466 0.0
N885 N 0.00087 0.27485 0.68823 0.0
C886 C -0.00617 0.2706 0.72716 0.0
C887 C 0.96521 0.27043 0.73609 0.0
C888 C 0.76663 0.51095 0.79124 0.0
C889 C 0.7645 0.51985 0.75114 0.0
C890 C 0.76591 0.48303 0.80092 0.0
C891 C 0.7633 0.46307 0.77079 0.0
H892 H 0.76599 0.52557 0.81568 0.0
H893 H 0.76455 0.47739 0.83225 0.0
S894 S 0.76843 0.47539 0.66113 0.0
N895 N 0.76787 0.50639 0.68111 0.0
N896 N 0.7671 0.45377 0.6992 0.0
C897 C 0.7664 0.47154 0.73059 0.0
C898 C 0.76691 0.50005 0.72074 0.0
C899 C 0.51211 0.77043 0.72964 0.0
C900 C 0.52062 0.77038 0.77001 0.0
C901 C 0.48426 0.77073 0.71971 0.0
C902 C 0.46412 0.77124 0.74985 0.0
H903 H 0.52673 0.76706 0.70567 0.0
H904 H 0.47868 0.76732 0.68871 0.0
S905 S 0.47615 0.78369 0.85813 0.0
N906 N 0.50712 0.7798 0.83889 0.0
N907 N 0.45468 0.78089 0.82014 0.0
C908 C 0.47254 0.77688 0.78937 0.0
C909 C 0.50092 0.77636 0.79953 0.0
C910 C 0.21609 0.47103 0.79251 0.0
C911 C 0.21566 0.4623 0.75221 0.0
C912 C 0.21665 0.49893 0.80232 0.0
C913 C 0.21661 0.51906 0.77217 0.0
H914 H 0.21869 0.45637 0.81663 0.0
H915 H 0.21993 0.50451 0.83335 0.0
S916 S 0.20481 0.50701 0.66368 0.0
N917 N 0.2075 0.47595 0.68312 0.0
N918 N 0.20804 0.52852 0.7016 0.0
C919 C 0.21127 0.51064 0.73253 0.0
C920 C 0.21092 0.48217 0.72249 0.0
C921 C 0.47822 0.2126 0.80175 0.0
C922 C 0.45913 0.21226 0.7703 0.0
C923 C 0.50637 0.21314 0.79382 0.0
C924 C 0.51642 0.21355 0.75417 0.0
H925 H 0.47153 0.21512 0.83248 0.0
H926 H 0.52011 0.21584 0.819 0.0
S927 S 0.47511 0.20271 0.66231 0.0
N928 N 0.45231 0.2046 0.69884 0.0
N929 N 0.50534 0.20612 0.68395 0.0
C930 C 0.49773 0.2087 0.72295 0.0
C931 C 0.469 0.20794 0.73106 0.0
C932 C 0.20712 0.50387 0.28817 0.0
C933 C 0.20983 0.51327 0.24838 0.0
C934 C 0.20552 0.47582 0.29682 0.0
C935 C 0.20648 0.45624 0.26593 0.0
H936 H 0.20904 0.51796 0.31313 0.0
H937 H 0.20661 0.46957 0.32791 0.0
S938 S 0.20186 0.47079 0.1569 0.0
N939 N 0.20505 0.50131 0.17794 0.0
N940 N 0.20157 0.44848 0.19417 0.0
C941 C 0.20384 0.46561 0.22615 0.0
C942 C 0.20567 0.49423 0.21732 0.0
C943 C 0.49581 0.2144 0.30324 0.0
C944 C 0.51594 0.21497 0.2731 0.0
C945 C 0.46796 0.21342 0.29337 0.0
C946 C 0.45934 0.21329 0.25303 0.0
H947 H 0.50129 0.21758 0.33432 0.0
H948 H 0.45324 0.2157 0.31749 0.0
S949 S 0.50432 0.20353 0.16445 0.0
N950 N 0.52567 0.2069 0.20245 0.0
N951 N 0.47322 0.20564 0.18387 0.0
C952 C 0.4793 0.20891 0.22329 0.0
C953 C 0.5077 0.20968 0.23338 0.0
C954 C 0.77038 0.49982 0.30477 0.0
C955 C 0.76977 0.51961 0.27415 0.0
C956 C 0.76977 0.4718 0.2956 0.0
C957 C 0.76835 0.46269 0.25554 0.0
H958 H 0.76817 0.50579 0.33586 0.0
H959 H 0.76745 0.45747 0.32022 0.0
S960 S 0.77793 0.50614 0.16526 0.0
N961 N 0.77659 0.52812 0.20286 0.0
N962 N 0.77489 0.47537 0.18562 0.0
C963 C 0.77298 0.48208 0.22505 0.0
C964 C 0.77385 0.51065 0.23441 0.0
C965 C 0.47842 0.76401 0.30214 0.0
C966 C 0.45884 0.7637 0.27131 0.0
C967 C 0.50646 0.76376 0.29331 0.0
C968 C 0.5159 0.76301 0.25335 0.0
H969 H 0.47223 0.76167 0.33314 0.0
H970 H 0.52062 0.76144 0.31805 0.0
S971 S 0.47306 0.77242 0.16266 0.0
N972 N 0.45085 0.77056 0.19997 0.0
N973 N 0.50365 0.76968 0.18336 0.0
C974 C 0.49668 0.76741 0.22267 0.0
C975 C 0.46807 0.76782 0.2317 0.0
C976 C 0.17164 0.14473 0.27763 0.0
C977 C 0.16465 0.13527 0.23919 0.0
C978 C 0.15317 0.16026 0.30043 0.0
C979 C 0.12704 0.16678 0.28557 0.0
H980 H 0.19166 0.14053 0.29002 0.0
H981 H 0.15959 0.16749 0.32963 0.0
S982 S 0.09829 0.14515 0.18748 0.0
N983 N 0.12975 0.13269 0.18764 0.0
N984 N 0.09462 0.16123 0.23068 0.0
C985 C 0.11972 0.1571 0.24726 0.0
C986 C 0.13867 0.14158 0.22395 0.0
C987 C 0.81399 0.16224 0.2244 0.0
C988 C 0.83996 0.16948 0.23931 0.0
C989 C 0.79613 0.14557 0.24669 0.0
C990 C 0.80357 0.13568 0.2847 0.0
H991 H 0.80727 0.16964 0.19544 0.0
H992 H 0.77623 0.14076 0.23425 0.0
S993 S 0.86974 0.1471 0.33638 0.0
N994 N 0.87274 0.16409 0.29378 0.0
N995 N 0.83868 0.13352 0.33595 0.0
C996 C 0.82936 0.14274 0.30004 0.0
C997 C 0.84772 0.15939 0.27722 0.0
C998 C 0.83101 0.80335 0.2496 0.0
C999 C 0.84083 0.81142 0.28738 0.0
C1000 C 0.81409 0.82061 0.22704 0.0
C1001 C 0.80637 0.84656 0.24153 0.0
H1002 H 0.83601 0.78339 0.23753 0.0
H1003 H 0.80684 0.81343 0.19823 0.0
S1004 S 0.82765 0.87764 0.33831 0.0
N1005 N 0.84206 0.84699 0.3382 0.0
N1006 N 0.81069 0.87985 0.29568 0.0
C1007 C 0.81612 0.85487 0.27937 0.0
C1008 C 0.83317 0.83715 0.3024 0.0
C1009 C 0.15957 0.84749 0.25431 0.0
C1010 C 0.17043 0.83955 0.29163 0.0
C1011 C 0.14354 0.82942 0.23159 0.0
C1012 C 0.13766 0.80285 0.24546 0.0
H1013 H 0.16306 0.868 0.24278 0.0
H1014 H 0.13504 0.83657 0.20351 0.0
S1015 S 0.16434 0.77062 0.33816 0.0
N1016 N 0.17613 0.80243 0.33963 0.0
N1017 N 0.14636 0.76838 0.29644 0.0
C1018 C 0.1492 0.79425 0.28188 0.0
C1019 C 0.16549 0.81266 0.30514 0.0
C1020 C 0.83656 0.80286 0.77625 0.0
C1021 C 0.84629 0.81092 0.73833 0.0
C1022 C 0.8196 0.82008 0.79891 0.0
C1023 C 0.81174 0.84597 0.78438 0.0
H1024 H 0.84156 0.7829 0.78828 0.0
H1025 H 0.81227 0.81286 0.82772 0.0
S1026 S 0.83311 0.87721 0.68757 0.0
N1027 N 0.84756 0.84658 0.68758 0.0
N1028 N 0.81613 0.87935 0.73029 0.0
C1029 C 0.82159 0.85436 0.74656 0.0
C1030 C 0.83868 0.83669 0.72343 0.0
C1031 C 0.14342 0.82904 0.72876 0.0
C1032 C 0.1704 0.83393 0.74141 0.0
C1033 C 0.12544 0.81323 0.75208 0.0
C1034 C 0.13389 0.80181 0.78879 0.0
H1035 H 0.1359 0.83823 0.70134 0.0
H1036 H 0.10461 0.81038 0.74159 0.0
S1037 S 0.20392 0.80491 0.83154 0.0
N1038 N 0.20576 0.82338 0.79013 0.0
N1039 N 0.17183 0.79417 0.83455 0.0
C1040 C 0.16117 0.80566 0.80092 0.0
C1041 C 0.1795 0.8216 0.777 0.0
C1042 C 0.14234 0.17889 0.77772 0.0
C1043 C 0.13224 0.17122 0.73992 0.0
C1044 C 0.1586 0.16093 0.80026 0.0
C1045 C 0.16514 0.13462 0.78582 0.0
H1046 H 0.13794 0.199 0.78985 0.0
H1047 H 0.16618 0.16778 0.82906 0.0
S1048 S 0.14186 0.10422 0.68952 0.0
N1049 N 0.12912 0.13559 0.6894 0.0
N1050 N 0.15881 0.10134 0.73205 0.0
C1051 C 0.15483 0.12666 0.74812 0.0
C1052 C 0.13865 0.14513 0.72503 0.0
C1053 C 0.82905 0.14397 0.79674 0.0
C1054 C 0.83418 0.17081 0.78335 0.0
C1055 C 0.81362 0.12561 0.77359 0.0
C1056 C 0.80273 0.13351 0.73628 0.0
H1057 H 0.83769 0.13685 0.82476 0.0
H1058 H 0.81064 0.10491 0.78474 0.0
S1059 S 0.80681 0.20299 0.69107 0.0
N1060 N 0.82458 0.20543 0.73296 0.0
N1061 N 0.79602 0.17085 0.68893 0.0
C1062 C 0.80688 0.16065 0.7233 0.0
C1063 C 0.8225 0.17935 0.74701 0.0
C1064 C 0.64287 0.64335 0.72933 0.0
C1065 C 0.67013 0.63949 0.74136 0.0
C1066 C 0.62467 0.65861 0.75292 0.0
C1067 C 0.63317 0.6705 0.78931 0.0
H1068 H 0.63538 0.63393 0.70205 0.0
H1069 H 0.6037 0.66085 0.74279 0.0
S1070 S 0.70368 0.66991 0.83058 0.0
N1071 N 0.70561 0.65133 0.78933 0.0
N1072 N 0.67132 0.67954 0.83421 0.0
C1073 C 0.66064 0.66752 0.80095 0.0
C1074 C 0.67918 0.65214 0.77677 0.0
C1075 C 0.32239 0.66111 0.79851 0.0
C1076 C 0.31423 0.63544 0.78335 0.0
C1077 C 0.33921 0.67871 0.776 0.0
C1078 C 0.3484 0.67128 0.73756 0.0
H1079 H 0.31554 0.66782 0.8278 0.0
H1080 H 0.34457 0.69844 0.78859 0.0
S1081 S 0.33439 0.60576 0.68504 0.0
N1082 N 0.31792 0.60292 0.7281 0.0
N1083 N 0.34889 0.63644 0.68565 0.0
C1084 C 0.34046 0.64575 0.72202 0.0
C1085 C 0.32359 0.62768 0.74501 0.0
C1086 C 0.32909 0.32787 0.79544 0.0
C1087 C 0.33488 0.30144 0.78112 0.0
C1088 C 0.31335 0.34615 0.77282 0.0
C1089 C 0.30276 0.33858 0.73518 0.0
H1090 H 0.33754 0.33477 0.82371 0.0
H1091 H 0.31 0.36659 0.78463 0.0
S1092 S 0.30848 0.27003 0.68761 0.0
N1093 N 0.32618 0.26738 0.72953 0.0
N1094 N 0.29696 0.30189 0.6865 0.0
C1095 C 0.30748 0.31178 0.72132 0.0
C1096 C 0.32345 0.29314 0.74447 0.0
C1097 C 0.64335 0.333 0.73076 0.0
C1098 C 0.6385 0.30619 0.74448 0.0
C1099 C 0.65863 0.3516 0.75364 0.0
C1100 C 0.66967 0.344 0.79098 0.0
H1101 H 0.6346 0.33989 0.7027 0.0
H1102 H 0.66142 0.37225 0.74221 0.0
S1103 S 0.6662 0.27478 0.8371 0.0
N1104 N 0.6484 0.27193 0.79529 0.0
N1105 N 0.67674 0.30702 0.83881 0.0
C1106 C 0.66574 0.31691 0.80434 0.0
C1107 C 0.65026 0.29795 0.78091 0.0
C1108 C 0.31688 0.31557 0.22212 0.0
C1109 C 0.34303 0.30915 0.23698 0.0
C1110 C 0.29871 0.33178 0.24437 0.0
C1111 C 0.30607 0.3421 0.2822 0.0
H1112 H 0.31023 0.30775 0.19335 0.0
H1113 H 0.27863 0.33582 0.23208 0.0
S1114 S 0.37262 0.33273 0.33358 0.0
N1115 N 0.37584 0.31559 0.29118 0.0
N1116 N 0.34131 0.34554 0.33316 0.0
C1117 C 0.33208 0.3359 0.29742 0.0
C1118 C 0.3507 0.31962 0.2747 0.0
C1119 C 0.64442 0.30332 0.25215 0.0
C1120 C 0.63517 0.31057 0.29062 0.0
C1121 C 0.66132 0.32099 0.22993 0.0
C1122 C 0.6695 0.34659 0.24538 0.0
H1123 H 0.63891 0.28371 0.23926 0.0
H1124 H 0.66815 0.31443 0.20056 0.0
S1125 S 0.64932 0.37569 0.34405 0.0
N1126 N 0.63475 0.34505 0.34302 0.0
N1127 N 0.66585 0.37876 0.30107 0.0
C1128 C 0.66016 0.35412 0.28384 0.0
C1129 C 0.64322 0.33594 0.30656 0.0
C1130 C 0.65975 0.65709 0.30049 0.0
C1131 C 0.66782 0.63139 0.28546 0.0
C1132 C 0.64318 0.67467 0.27785 0.0
C1133 C 0.63414 0.66719 0.2394 0.0
H1134 H 0.66653 0.66388 0.32975 0.0
H1135 H 0.63785 0.69441 0.29037 0.0
S1136 S 0.64804 0.6016 0.18715 0.0
N1137 N 0.66426 0.59879 0.23031 0.0
N1138 N 0.63371 0.63228 0.18758 0.0
C1139 C 0.64201 0.64163 0.22396 0.0
C1140 C 0.65863 0.62358 0.2471 0.0
C1141 C 0.31355 0.65842 0.22774 0.0
C1142 C 0.30617 0.63255 0.24319 0.0
C1143 C 0.3295 0.67677 0.25015 0.0
C1144 C 0.3385 0.66999 0.28886 0.0
H1145 H 0.30695 0.66462 0.19813 0.0
H1146 H 0.33458 0.69648 0.23712 0.0
S1147 S 0.32598 0.60458 0.34259 0.0
N1148 N 0.31017 0.60075 0.29927 0.0
N1149 N 0.33942 0.63573 0.34162 0.0
C1150 C 0.3311 0.64442 0.30491 0.0
C1151 C 0.31517 0.62554 0.28196 0.0
loop_
_geom_bond_atom_site_label_1
_geom_bond_atom_site_label_2
_geom_bond_distance
_geom_bond_site_symmetry_2
_ccdc_geom_bond_type
Mg0 O1 2.028 . S
Mg0 O7 1.986 . S
Mg0 O9 2.114 . S
Mg0 O10 2.251 . S
Mg0 O13 2.010 . S
O1 Mg0 2.028 . S
O1 C4 1.250 . S
O2 Mg3 2.028 . S
O2 C4 1.248 . S
Mg3 O2 2.028 . S
Mg3 O8 2.032 . S
Mg3 O10 2.079 . S
C4 O1 1.250 . S
C4 O2 1.248 . S
C5 O6 1.264 . S
C5 O13 1.249 . S
O6 C5 1.264 . S
O7 Mg0 1.986 . S
O7 C11 1.246 . S
O8 Mg3 2.032 . S
O8 C11 1.259 . S
O9 Mg0 2.114 . S
O9 C12 1.252 . S
O10 Mg0 2.251 . S
O10 Mg3 2.079 . S
O10 C12 1.273 . S
C11 O7 1.246 . S
C11 O8 1.259 . S
C12 O9 1.252 . S
C12 O10 1.273 . S
O13 Mg0 2.010 . S
O13 C5 1.249 . S
Mg14 O15 2.028 . S
Mg14 O21 1.986 . S
Mg14 O23 2.114 . S
Mg14 O24 2.251 . S
Mg14 O27 2.010 . S
O15 Mg14 2.028 . S
O15 C18 1.250 . S
O16 Mg17 2.028 . S
O16 C18 1.248 . S
Mg17 O16 2.028 . S
Mg17 O22 2.032 . S
Mg17 O24 2.079 . S
C18 O15 1.250 . S
C18 O16 1.248 . S
C19 O20 1.264 . S
C19 O27 1.249 . S
O20 C19 1.264 . S
O21 Mg14 1.986 . S
O21 C25 1.246 . S
O22 Mg17 2.032 . S
O22 C25 1.259 . S
O23 Mg14 2.114 . S
O23 C26 1.252 . S
O24 Mg14 2.251 . S
O24 Mg17 2.079 . S
O24 C26 1.273 . S
C25 O21 1.246 . S
C25 O22 1.259 . S
C26 O23 1.252 . S
C26 O24 1.273 . S
O27 Mg14 2.010 . S
O27 C19 1.249 . S
Mg28 O29 2.028 . S
Mg28 O35 1.986 . S
Mg28 O37 2.114 . S
Mg28 O38 2.251 . S
Mg28 O41 2.010 . S
O29 Mg28 2.028 . S
O29 C32 1.250 . S
O30 Mg31 2.028 . S
O30 C32 1.248 . S
Mg31 O30 2.028 . S
Mg31 O36 2.032 . S
Mg31 O38 2.079 . S
C32 O29 1.250 . S
C32 O30 1.248 . S
C33 O34 1.264 . S
C33 O41 1.249 . S
O34 C33 1.264 . S
O35 Mg28 1.986 . S
O35 C39 1.246 . S
O36 Mg31 2.032 . S
O36 C39 1.259 . S
O37 Mg28 2.114 . S
O37 C40 1.252 . S
O38 Mg28 2.251 . S
O38 Mg31 2.079 . S
O38 C40 1.273 . S
C39 O35 1.246 . S
C39 O36 1.259 . S
C40 O37 1.252 . S
C40 O38 1.273 . S
O41 Mg28 2.010 . S
O41 C33 1.249 . S
Mg42 O43 2.028 . S
Mg42 O49 1.986 . S
Mg42 O51 2.114 . S
Mg42 O52 2.251 . S
Mg42 O55 2.010 . S
O43 Mg42 2.028 . S
O43 C46 1.250 . S
O44 Mg45 2.028 . S
O44 C46 1.248 . S
Mg45 O44 2.028 . S
Mg45 O50 2.032 . S
Mg45 O52 2.079 . S
C46 O43 1.250 . S
C46 O44 1.248 . S
C47 O48 1.264 . S
C47 O55 1.249 . S
O48 C47 1.264 . S
O49 Mg42 1.986 . S
O49 C53 1.246 . S
O50 Mg45 2.032 . S
O50 C53 1.259 . S
O51 Mg42 2.114 . S
O51 C54 1.252 . S
O52 Mg42 2.251 . S
O52 Mg45 2.079 . S
O52 C54 1.273 . S
C53 O49 1.246 . S
C53 O50 1.259 . S
C54 O51 1.252 . S
C54 O52 1.273 . S
O55 Mg42 2.010 . S
O55 C47 1.249 . S
Mg56 O57 2.028 . S
Mg56 O63 1.986 . S
Mg56 O65 2.114 . S
Mg56 O66 2.251 . S
Mg56 O69 2.010 . S
O57 Mg56 2.028 . S
O57 C60 1.250 . S
O58 Mg59 2.028 . S
O58 C60 1.248 . S
Mg59 O58 2.028 . S
Mg59 O64 2.032 . S
Mg59 O66 2.079 . S
C60 O57 1.250 . S
C60 O58 1.248 . S
C61 O62 1.264 . S
C61 O69 1.249 . S
O62 C61 1.264 . S
O63 Mg56 1.986 . S
O63 C67 1.246 . S
O64 Mg59 2.032 . S
O64 C67 1.259 . S
O65 Mg56 2.114 . S
O65 C68 1.252 . S
O66 Mg56 2.251 . S
O66 Mg59 2.079 . S
O66 C68 1.273 . S
C67 O63 1.246 . S
C67 O64 1.259 . S
C68 O65 1.252 . S
C68 O66 1.273 . S
O69 Mg56 2.010 . S
O69 C61 1.249 . S
Mg70 O71 2.028 . S
Mg70 O77 1.986 . S
Mg70 O79 2.114 . S
Mg70 O80 2.251 . S
Mg70 O83 2.010 . S
O71 Mg70 2.028 . S
O71 C74 1.250 . S
O72 Mg73 2.028 . S
O72 C74 1.248 . S
Mg73 O72 2.028 . S
Mg73 O78 2.032 . S
Mg73 O80 2.079 . S
C74 O71 1.250 . S
C74 O72 1.248 . S
C75 O76 1.264 . S
C75 O83 1.249 . S
O76 C75 1.264 . S
O77 Mg70 1.986 . S
O77 C81 1.246 . S
O78 Mg73 2.032 . S
O78 C81 1.259 . S
O79 Mg70 2.114 . S
O79 C82 1.252 . S
O80 Mg70 2.251 . S
O80 Mg73 2.079 . S
O80 C82 1.273 . S
C81 O77 1.246 . S
C81 O78 1.259 . S
C82 O79 1.252 . S
C82 O80 1.273 . S
O83 Mg70 2.010 . S
O83 C75 1.249 . S
Mg84 O85 2.028 . S
Mg84 O91 1.986 . S
Mg84 O93 2.114 . S
Mg84 O94 2.251 . S
Mg84 O97 2.010 . S
O85 Mg84 2.028 . S
O85 C88 1.250 . S
O86 Mg87 2.028 . S
O86 C88 1.248 . S
Mg87 O86 2.028 . S
Mg87 O92 2.032 . S
Mg87 O94 2.079 . S
C88 O85 1.250 . S
C88 O86 1.248 . S
C89 O90 1.264 . S
C89 O97 1.249 . S
O90 C89 1.264 . S
O91 Mg84 1.986 . S
O91 C95 1.246 . S
O92 Mg87 2.032 . S
O92 C95 1.259 . S
O93 Mg84 2.114 . S
O93 C96 1.252 . S
O94 Mg84 2.251 . S
O94 Mg87 2.079 . S
O94 C96 1.273 . S
C95 O91 1.246 . S
C95 O92 1.259 . S
C96 O93 1.252 . S
C96 O94 1.273 . S
O97 Mg84 2.010 . S
O97 C89 1.249 . S
Mg98 O99 2.028 . S
Mg98 O105 1.986 . S
Mg98 O107 2.114 . S
Mg98 O108 2.251 . S
Mg98 O111 2.010 . S
O99 Mg98 2.028 . S
O99 C102 1.250 . S
O100 Mg101 2.028 . S
O100 C102 1.248 . S
Mg101 O100 2.028 . S
Mg101 O106 2.032 . S
Mg101 O108 2.079 . S
C102 O99 1.250 . S
C102 O100 1.248 . S
C103 O104 1.264 . S
C103 O111 1.249 . S
O104 C103 1.264 . S
O105 Mg98 1.986 . S
O105 C109 1.246 . S
O106 Mg101 2.032 . S
O106 C109 1.259 . S
O107 Mg98 2.114 . S
O107 C110 1.252 . S
O108 Mg98 2.251 . S
O108 Mg101 2.079 . S
O108 C110 1.273 . S
C109 O105 1.246 . S
C109 O106 1.259 . S
C110 O107 1.252 . S
C110 O108 1.273 . S
O111 Mg98 2.010 . S
O111 C103 1.249 . S
Mg112 O113 2.028 . S
Mg112 O119 1.986 . S
Mg112 O121 2.114 . S
Mg112 O122 2.251 . S
Mg112 O125 2.010 . S
O113 Mg112 2.028 . S
O113 C116 1.250 . S
O114 Mg115 2.028 . S
O114 C116 1.248 . S
Mg115 O114 2.028 . S
Mg115 O120 2.032 . S
Mg115 O122 2.079 . S
C116 O113 1.250 . S
C116 O114 1.248 . S
C117 O118 1.264 . S
C117 O125 1.249 . S
O118 C117 1.264 . S
O119 Mg112 1.986 . S
O119 C123 1.246 . S
O120 Mg115 2.032 . S
O120 C123 1.259 . S
O121 Mg112 2.114 . S
O121 C124 1.252 . S
O122 Mg112 2.251 . S
O122 Mg115 2.079 . S
O122 C124 1.273 . S
C123 O119 1.246 . S
C123 O120 1.259 . S
C124 O121 1.252 . S
C124 O122 1.273 . S
O125 Mg112 2.010 . S
O125 C117 1.249 . S
Mg126 O127 2.028 . S
Mg126 O133 1.986 . S
Mg126 O135 2.114 . S
Mg126 O136 2.251 . S
Mg126 O139 2.010 . S
O127 Mg126 2.028 . S
O127 C130 1.250 . S
O128 Mg129 2.028 . S
O128 C130 1.248 . S
Mg129 O128 2.028 . S
Mg129 O134 2.032 . S
Mg129 O136 2.079 . S
C130 O127 1.250 . S
C130 O128 1.248 . S
C131 O132 1.264 . S
C131 O139 1.249 . S
O132 C131 1.264 . S
O133 Mg126 1.986 . S
O133 C137 1.246 . S
O134 Mg129 2.032 . S
O134 C137 1.259 . S
O135 Mg126 2.114 . S
O135 C138 1.252 . S
O136 Mg126 2.251 . S
O136 Mg129 2.079 . S
O136 C138 1.273 . S
C137 O133 1.246 . S
C137 O134 1.259 . S
C138 O135 1.252 . S
C138 O136 1.273 . S
O139 Mg126 2.010 . S
O139 C131 1.249 . S
Mg140 O141 2.028 . S
Mg140 O147 1.986 . S
Mg140 O149 2.114 . S
Mg140 O150 2.251 . S
Mg140 O153 2.010 . S
O141 Mg140 2.028 . S
O141 C144 1.250 . S
O142 Mg143 2.028 . S
O142 C144 1.248 . S
Mg143 O142 2.028 . S
Mg143 O148 2.032 . S
Mg143 O150 2.079 . S
C144 O141 1.250 . S
C144 O142 1.248 . S
C145 O146 1.264 . S
C145 O153 1.249 . S
O146 C145 1.264 . S
O147 Mg140 1.986 . S
O147 C151 1.246 . S
O148 Mg143 2.032 . S
O148 C151 1.259 . S
O149 Mg140 2.114 . S
O149 C152 1.252 . S
O150 Mg140 2.251 . S
O150 Mg143 2.079 . S
O150 C152 1.273 . S
C151 O147 1.246 . S
C151 O148 1.259 . S
C152 O149 1.252 . S
C152 O150 1.273 . S
O153 Mg140 2.010 . S
O153 C145 1.249 . S
Mg154 O155 2.028 . S
Mg154 O161 1.986 . S
Mg154 O163 2.114 . S
Mg154 O164 2.251 . S
Mg154 O167 2.010 . S
O155 Mg154 2.028 . S
O155 C158 1.250 . S
O156 Mg157 2.028 . S
O156 C158 1.248 . S
Mg157 O156 2.028 . S
Mg157 O162 2.032 . S
Mg157 O164 2.079 . S
C158 O155 1.250 . S
C158 O156 1.248 . S
C159 O160 1.264 . S
C159 O167 1.249 . S
O160 C159 1.264 . S
O161 Mg154 1.986 . S
O161 C165 1.246 . S
O162 Mg157 2.032 . S
O162 C165 1.259 . S
O163 Mg154 2.114 . S
O163 C166 1.252 . S
O164 Mg154 2.251 . S
O164 Mg157 2.079 . S
O164 C166 1.273 . S
C165 O161 1.246 . S
C165 O162 1.259 . S
C166 O163 1.252 . S
C166 O164 1.273 . S
O167 Mg154 2.010 . S
O167 C159 1.249 . S
Mg168 O169 2.028 . S
Mg168 O175 1.986 . S
Mg168 O177 2.114 . S
Mg168 O178 2.251 . S
Mg168 O181 2.010 . S
O169 Mg168 2.028 . S
O169 C172 1.250 . S
O170 Mg171 2.028 . S
O170 C172 1.248 . S
Mg171 O170 2.028 . S
Mg171 O176 2.032 . S
Mg171 O178 2.079 . S
C172 O169 1.250 . S
C172 O170 1.248 . S
C173 O174 1.264 . S
C173 O181 1.249 . S
O174 C173 1.264 . S
O175 Mg168 1.986 . S
O175 C179 1.246 . S
O176 Mg171 2.032 . S
O176 C179 1.259 . S
O177 Mg168 2.114 . S
O177 C180 1.252 . S
O178 Mg168 2.251 . S
O178 Mg171 2.079 . S
O178 C180 1.273 . S
C179 O175 1.246 . S
C179 O176 1.259 . S
C180 O177 1.252 . S
C180 O178 1.273 . S
O181 Mg168 2.010 . S
O181 C173 1.249 . S
Mg182 O183 2.028 . S
Mg182 O189 1.986 . S
Mg182 O191 2.114 . S
Mg182 O192 2.251 . S
Mg182 O195 2.010 . S
O183 Mg182 2.028 . S
O183 C186 1.250 . S
O184 Mg185 2.028 . S
O184 C186 1.248 . S
Mg185 O184 2.028 . S
Mg185 O190 2.032 . S
Mg185 O192 2.079 . S
C186 O183 1.250 . S
C186 O184 1.248 . S
C187 O188 1.264 . S
C187 O195 1.249 . S
O188 C187 1.264 . S
O189 Mg182 1.986 . S
O189 C193 1.246 . S
O190 Mg185 2.032 . S
O190 C193 1.259 . S
O191 Mg182 2.114 . S
O191 C194 1.252 . S
O192 Mg182 2.251 . S
O192 Mg185 2.079 . S
O192 C194 1.273 . S
C193 O189 1.246 . S
C193 O190 1.259 . S
C194 O191 1.252 . S
C194 O192 1.273 . S
O195 Mg182 2.010 . S
O195 C187 1.249 . S
Mg196 O197 2.028 . S
Mg196 O203 1.986 . S
Mg196 O205 2.114 . S
Mg196 O206 2.251 . S
Mg196 O209 2.010 . S
O197 Mg196 2.028 . S
O197 C200 1.250 . S
O198 Mg199 2.028 . S
O198 C200 1.248 . S
Mg199 O198 2.028 . S
Mg199 O204 2.032 . S
Mg199 O206 2.079 . S
C200 O197 1.250 . S
C200 O198 1.248 . S
C201 O202 1.264 . S
C201 O209 1.249 . S
O202 C201 1.264 . S
O203 Mg196 1.986 . S
O203 C207 1.246 . S
O204 Mg199 2.032 . S
O204 C207 1.259 . S
O205 Mg196 2.114 . S
O205 C208 1.252 . S
O206 Mg196 2.251 . S
O206 Mg199 2.079 . S
O206 C208 1.273 . S
C207 O203 1.246 . S
C207 O204 1.259 . S
C208 O205 1.252 . S
C208 O206 1.273 . S
O209 Mg196 2.010 . S
O209 C201 1.249 . S
Mg210 O211 2.028 . S
Mg210 O217 1.986 . S
Mg210 O219 2.114 . S
Mg210 O220 2.251 . S
Mg210 O223 2.010 . S
O211 Mg210 2.028 . S
O211 C214 1.250 . S
O212 Mg213 2.028 . S
O212 C214 1.248 . S
Mg213 O212 2.028 . S
Mg213 O218 2.032 . S
Mg213 O220 2.079 . S
C214 O211 1.250 . S
C214 O212 1.248 . S
C215 O216 1.264 . S
C215 O223 1.249 . S
O216 C215 1.264 . S
O217 Mg210 1.986 . S
O217 C221 1.246 . S
O218 Mg213 2.032 . S
O218 C221 1.259 . S
O219 Mg210 2.114 . S
O219 C222 1.252 . S
O220 Mg210 2.251 . S
O220 Mg213 2.079 . S
O220 C222 1.273 . S
C221 O217 1.246 . S
C221 O218 1.259 . S
C222 O219 1.252 . S
C222 O220 1.273 . S
O223 Mg210 2.010 . S
O223 C215 1.249 . S
Mg224 O225 2.028 . S
Mg224 O231 1.986 . S
Mg224 O233 2.114 . S
Mg224 O234 2.251 . S
Mg224 O237 2.010 . S
O225 Mg224 2.028 . S
O225 C228 1.250 . S
O226 Mg227 2.028 . S
O226 C228 1.248 . S
Mg227 O226 2.028 . S
Mg227 O232 2.032 . S
Mg227 O234 2.079 . S
C228 O225 1.250 . S
C228 O226 1.248 . S
C229 O230 1.264 . S
C229 O237 1.249 . S
O230 C229 1.264 . S
O231 Mg224 1.986 . S
O231 C235 1.246 . S
O232 Mg227 2.032 . S
O232 C235 1.259 . S
O233 Mg224 2.114 . S
O233 C236 1.252 . S
O234 Mg224 2.251 . S
O234 Mg227 2.079 . S
O234 C236 1.273 . S
C235 O231 1.246 . S
C235 O232 1.259 . S
C236 O233 1.252 . S
C236 O234 1.273 . S
O237 Mg224 2.010 . S
O237 C229 1.249 . S
Mg238 O239 2.028 . S
Mg238 O245 1.986 . S
Mg238 O247 2.114 . S
Mg238 O248 2.251 . S
Mg238 O251 2.010 . S
O239 Mg238 2.028 . S
O239 C242 1.250 . S
O240 Mg241 2.028 . S
O240 C242 1.248 . S
Mg241 O240 2.028 . S
Mg241 O246 2.032 . S
Mg241 O248 2.079 . S
C242 O239 1.250 . S
C242 O240 1.248 . S
C243 O244 1.264 . S
C243 O251 1.249 . S
O244 C243 1.264 . S
O245 Mg238 1.986 . S
O245 C249 1.246 . S
O246 Mg241 2.032 . S
O246 C249 1.259 . S
O247 Mg238 2.114 . S
O247 C250 1.252 . S
O248 Mg238 2.251 . S
O248 Mg241 2.079 . S
O248 C250 1.273 . S
C249 O245 1.246 . S
C249 O246 1.259 . S
C250 O247 1.252 . S
C250 O248 1.273 . S
O251 Mg238 2.010 . S
O251 C243 1.249 . S
Mg252 O253 2.028 . S
Mg252 O259 1.986 . S
Mg252 O261 2.114 . S
Mg252 O262 2.251 . S
Mg252 O265 2.010 . S
O253 Mg252 2.028 . S
O253 C256 1.250 . S
O254 Mg255 2.028 . S
O254 C256 1.248 . S
Mg255 O254 2.028 . S
Mg255 O260 2.032 . S
Mg255 O262 2.079 . S
C256 O253 1.250 . S
C256 O254 1.248 . S
C257 O258 1.264 . S
C257 O265 1.249 . S
O258 C257 1.264 . S
O259 Mg252 1.986 . S
O259 C263 1.246 . S
O260 Mg255 2.032 . S
O260 C263 1.259 . S
O261 Mg252 2.114 . S
O261 C264 1.252 . S
O262 Mg252 2.251 . S
O262 Mg255 2.079 . S
O262 C264 1.273 . S
C263 O259 1.246 . S
C263 O260 1.259 . S
C264 O261 1.252 . S
C264 O262 1.273 . S
O265 Mg252 2.010 . S
O265 C257 1.249 . S
Mg266 O267 2.028 . S
Mg266 O273 1.986 . S
Mg266 O275 2.114 . S
Mg266 O276 2.251 . S
Mg266 O279 2.010 . S
O267 Mg266 2.028 . S
O267 C270 1.250 . S
O268 Mg269 2.028 . S
O268 C270 1.248 . S
Mg269 O268 2.028 . S
Mg269 O274 2.032 . S
Mg269 O276 2.079 . S
C270 O267 1.250 . S
C270 O268 1.248 . S
C271 O272 1.264 . S
C271 O279 1.249 . S
O272 C271 1.264 . S
O273 Mg266 1.986 . S
O273 C277 1.246 . S
O274 Mg269 2.032 . S
O274 C277 1.259 . S
O275 Mg266 2.114 . S
O275 C278 1.252 . S
O276 Mg266 2.251 . S
O276 Mg269 2.079 . S
O276 C278 1.273 . S
C277 O273 1.246 . S
C277 O274 1.259 . S
C278 O275 1.252 . S
C278 O276 1.273 . S
O279 Mg266 2.010 . S
O279 C271 1.249 . S
Mg280 O281 2.028 . S
Mg280 O287 1.986 . S
Mg280 O289 2.114 . S
Mg280 O290 2.251 . S
Mg280 O293 2.010 . S
O281 Mg280 2.028 . S
O281 C284 1.250 . S
O282 Mg283 2.028 . S
O282 C284 1.248 . S
Mg283 O282 2.028 . S
Mg283 O288 2.032 . S
Mg283 O290 2.079 . S
C284 O281 1.250 . S
C284 O282 1.248 . S
C285 O286 1.264 . S
C285 O293 1.249 . S
O286 C285 1.264 . S
O287 Mg280 1.986 . S
O287 C291 1.246 . S
O288 Mg283 2.032 . S
O288 C291 1.259 . S
O289 Mg280 2.114 . S
O289 C292 1.252 . S
O290 Mg280 2.251 . S
O290 Mg283 2.079 . S
O290 C292 1.273 . S
C291 O287 1.246 . S
C291 O288 1.259 . S
C292 O289 1.252 . S
C292 O290 1.273 . S
O293 Mg280 2.010 . S
O293 C285 1.249 . S
Mg294 O295 2.028 . S
Mg294 O301 1.986 . S
Mg294 O303 2.114 . S
Mg294 O304 2.251 . S
Mg294 O307 2.010 . S
O295 Mg294 2.028 . S
O295 C298 1.250 . S
O296 Mg297 2.028 . S
O296 C298 1.248 . S
Mg297 O296 2.028 . S
Mg297 O302 2.032 . S
Mg297 O304 2.079 . S
C298 O295 1.250 . S
C298 O296 1.248 . S
C299 O300 1.264 . S
C299 O307 1.249 . S
O300 C299 1.264 . S
O301 Mg294 1.986 . S
O301 C305 1.246 . S
O302 Mg297 2.032 . S
O302 C305 1.259 . S
O303 Mg294 2.114 . S
O303 C306 1.252 . S
O304 Mg294 2.251 . S
O304 Mg297 2.079 . S
O304 C306 1.273 . S
C305 O301 1.246 . S
C305 O302 1.259 . S
C306 O303 1.252 . S
C306 O304 1.273 . S
O307 Mg294 2.010 . S
O307 C299 1.249 . S
Mg308 O309 2.028 . S
Mg308 O315 1.986 . S
Mg308 O317 2.114 . S
Mg308 O318 2.251 . S
Mg308 O321 2.010 . S
O309 Mg308 2.028 . S
O309 C312 1.250 . S
O310 Mg311 2.028 . S
O310 C312 1.248 . S
Mg311 O310 2.028 . S
Mg311 O316 2.032 . S
Mg311 O318 2.079 . S
C312 O309 1.250 . S
C312 O310 1.248 . S
C313 O314 1.264 . S
C313 O321 1.249 . S
O314 C313 1.264 . S
O315 Mg308 1.986 . S
O315 C319 1.246 . S
O316 Mg311 2.032 . S
O316 C319 1.259 . S
O317 Mg308 2.114 . S
O317 C320 1.252 . S
O318 Mg308 2.251 . S
O318 Mg311 2.079 . S
O318 C320 1.273 . S
C319 O315 1.246 . S
C319 O316 1.259 . S
C320 O317 1.252 . S
C320 O318 1.273 . S
O321 Mg308 2.010 . S
O321 C313 1.249 . S
Mg322 O323 2.028 . S
Mg322 O329 1.986 . S
Mg322 O331 2.114 . S
Mg322 O332 2.251 . S
Mg322 O335 2.010 . S
O323 Mg322 2.028 . S
O323 C326 1.250 . S
O324 Mg325 2.028 . S
O324 C326 1.248 . S
Mg325 O324 2.028 . S
Mg325 O330 2.032 . S
Mg325 O332 2.079 . S
C326 O323 1.250 . S
C326 O324 1.248 . S
C327 O328 1.264 . S
C327 O335 1.249 . S
O328 C327 1.264 . S
O329 Mg322 1.986 . S
O329 C333 1.246 . S
O330 Mg325 2.032 . S
O330 C333 1.259 . S
O331 Mg322 2.114 . S
O331 C334 1.252 . S
O332 Mg322 2.251 . S
O332 Mg325 2.079 . S
O332 C334 1.273 . S
C333 O329 1.246 . S
C333 O330 1.259 . S
C334 O331 1.252 . S
C334 O332 1.273 . S
O335 Mg322 2.010 . S
O335 C327 1.249 . S
Mg336 O337 2.028 . S
Mg336 O343 1.986 . S
Mg336 O345 2.114 . S
Mg336 O346 2.251 . S
Mg336 O349 2.010 . S
O337 Mg336 2.028 . S
O337 C340 1.250 . S
O338 Mg339 2.028 . S
O338 C340 1.248 . S
Mg339 O338 2.028 . S
Mg339 O344 2.032 . S
Mg339 O346 2.079 . S
C340 O337 1.250 . S
C340 O338 1.248 . S
C341 O342 1.264 . S
C341 O349 1.249 . S
O342 C341 1.264 . S
O343 Mg336 1.986 . S
O343 C347 1.246 . S
O344 Mg339 2.032 . S
O344 C347 1.259 . S
O345 Mg336 2.114 . S
O345 C348 1.252 . S
O346 Mg336 2.251 . S
O346 Mg339 2.079 . S
O346 C348 1.273 . S
C347 O343 1.246 . S
C347 O344 1.259 . S
C348 O345 1.252 . S
C348 O346 1.273 . S
O349 Mg336 2.010 . S
O349 C341 1.249 . S
Mg350 O351 2.028 . S
Mg350 O357 1.986 . S
Mg350 O359 2.114 . S
Mg350 O360 2.251 . S
Mg350 O363 2.010 . S
O351 Mg350 2.028 . S
O351 C354 1.250 . S
O352 Mg353 2.028 . S
O352 C354 1.248 . S
Mg353 O352 2.028 . S
Mg353 O358 2.032 . S
Mg353 O360 2.079 . S
C354 O351 1.250 . S
C354 O352 1.248 . S
C355 O356 1.264 . S
C355 O363 1.249 . S
O356 C355 1.264 . S
O357 Mg350 1.986 . S
O357 C361 1.246 . S
O358 Mg353 2.032 . S
O358 C361 1.259 . S
O359 Mg350 2.114 . S
O359 C362 1.252 . S
O360 Mg350 2.251 . S
O360 Mg353 2.079 . S
O360 C362 1.273 . S
C361 O357 1.246 . S
C361 O358 1.259 . S
C362 O359 1.252 . S
C362 O360 1.273 . S
O363 Mg350 2.010 . S
O363 C355 1.249 . S
Mg364 O365 2.028 . S
Mg364 O371 1.986 . S
Mg364 O373 2.114 . S
Mg364 O374 2.251 . S
Mg364 O377 2.010 . S
O365 Mg364 2.028 . S
O365 C368 1.250 . S
O366 Mg367 2.028 . S
O366 C368 1.248 . S
Mg367 O366 2.028 . S
Mg367 O372 2.032 . S
Mg367 O374 2.079 . S
C368 O365 1.250 . S
C368 O366 1.248 . S
C369 O370 1.264 . S
C369 O377 1.249 . S
O370 C369 1.264 . S
O371 Mg364 1.986 . S
O371 C375 1.246 . S
O372 Mg367 2.032 . S
O372 C375 1.259 . S
O373 Mg364 2.114 . S
O373 C376 1.252 . S
O374 Mg364 2.251 . S
O374 Mg367 2.079 . S
O374 C376 1.273 . S
C375 O371 1.246 . S
C375 O372 1.259 . S
C376 O373 1.252 . S
C376 O374 1.273 . S
O377 Mg364 2.010 . S
O377 C369 1.249 . S
Mg378 O379 2.028 . S
Mg378 O385 1.986 . S
Mg378 O387 2.114 . S
Mg378 O388 2.251 . S
Mg378 O391 2.010 . S
O379 Mg378 2.028 . S
O379 C382 1.250 . S
O380 Mg381 2.028 . S
O380 C382 1.248 . S
Mg381 O380 2.028 . S
Mg381 O386 2.032 . S
Mg381 O388 2.079 . S
C382 O379 1.250 . S
C382 O380 1.248 . S
C383 O384 1.264 . S
C383 O391 1.249 . S
O384 C383 1.264 . S
O385 Mg378 1.986 . S
O385 C389 1.246 . S
O386 Mg381 2.032 . S
O386 C389 1.259 . S
O387 Mg378 2.114 . S
O387 C390 1.252 . S
O388 Mg378 2.251 . S
O388 Mg381 2.079 . S
O388 C390 1.273 . S
C389 O385 1.246 . S
C389 O386 1.259 . S
C390 O387 1.252 . S
C390 O388 1.273 . S
O391 Mg378 2.010 . S
O391 C383 1.249 . S
Mg392 O393 2.028 . S
Mg392 O399 1.986 . S
Mg392 O401 2.114 . S
Mg392 O402 2.251 . S
Mg392 O405 2.010 . S
O393 Mg392 2.028 . S
O393 C396 1.250 . S
O394 Mg395 2.028 . S
O394 C396 1.248 . S
Mg395 O394 2.028 . S
Mg395 O400 2.032 . S
Mg395 O402 2.079 . S
C396 O393 1.250 . S
C396 O394 1.248 . S
C397 O398 1.264 . S
C397 O405 1.249 . S
O398 C397 1.264 . S
O399 Mg392 1.986 . S
O399 C403 1.246 . S
O400 Mg395 2.032 . S
O400 C403 1.259 . S
O401 Mg392 2.114 . S
O401 C404 1.252 . S
O402 Mg392 2.251 . S
O402 Mg395 2.079 . S
O402 C404 1.273 . S
C403 O399 1.246 . S
C403 O400 1.259 . S
C404 O401 1.252 . S
C404 O402 1.273 . S
O405 Mg392 2.010 . S
O405 C397 1.249 . S
Mg406 O407 2.028 . S
Mg406 O413 1.986 . S
Mg406 O415 2.114 . S
Mg406 O416 2.251 . S
Mg406 O419 2.010 . S
O407 Mg406 2.028 . S
O407 C410 1.250 . S
O408 Mg409 2.028 . S
O408 C410 1.248 . S
Mg409 O408 2.028 . S
Mg409 O414 2.032 . S
Mg409 O416 2.079 . S
C410 O407 1.250 . S
C410 O408 1.248 . S
C411 O412 1.264 . S
C411 O419 1.249 . S
O412 C411 1.264 . S
O413 Mg406 1.986 . S
O413 C417 1.246 . S
O414 Mg409 2.032 . S
O414 C417 1.259 . S
O415 Mg406 2.114 . S
O415 C418 1.252 . S
O416 Mg406 2.251 . S
O416 Mg409 2.079 . S
O416 C418 1.273 . S
C417 O413 1.246 . S
C417 O414 1.259 . S
C418 O415 1.252 . S
C418 O416 1.273 . S
O419 Mg406 2.010 . S
O419 C411 1.249 . S
Mg420 O421 2.028 . S
Mg420 O427 1.986 . S
Mg420 O429 2.114 . S
Mg420 O430 2.251 . S
Mg420 O433 2.010 . S
O421 Mg420 2.028 . S
O421 C424 1.250 . S
O422 Mg423 2.028 . S
O422 C424 1.248 . S
Mg423 O422 2.028 . S
Mg423 O428 2.032 . S
Mg423 O430 2.079 . S
C424 O421 1.250 . S
C424 O422 1.248 . S
C425 O426 1.264 . S
C425 O433 1.249 . S
O426 C425 1.264 . S
O427 Mg420 1.986 . S
O427 C431 1.246 . S
O428 Mg423 2.032 . S
O428 C431 1.259 . S
O429 Mg420 2.114 . S
O429 C432 1.252 . S
O430 Mg420 2.251 . S
O430 Mg423 2.079 . S
O430 C432 1.273 . S
C431 O427 1.246 . S
C431 O428 1.259 . S
C432 O429 1.252 . S
C432 O430 1.273 . S
O433 Mg420 2.010 . S
O433 C425 1.249 . S
Mg434 O435 2.028 . S
Mg434 O441 1.986 . S
Mg434 O443 2.114 . S
Mg434 O444 2.251 . S
Mg434 O447 2.010 . S
O435 Mg434 2.028 . S
O435 C438 1.250 . S
O436 Mg437 2.028 . S
O436 C438 1.248 . S
Mg437 O436 2.028 . S
Mg437 O442 2.032 . S
Mg437 O444 2.079 . S
C438 O435 1.250 . S
C438 O436 1.248 . S
C439 O440 1.264 . S
C439 O447 1.249 . S
O440 C439 1.264 . S
O441 Mg434 1.986 . S
O441 C445 1.246 . S
O442 Mg437 2.032 . S
O442 C445 1.259 . S
O443 Mg434 2.114 . S
O443 C446 1.252 . S
O444 Mg434 2.251 . S
O444 Mg437 2.079 . S
O444 C446 1.273 . S
C445 O441 1.246 . S
C445 O442 1.259 . S
C446 O443 1.252 . S
C446 O444 1.273 . S
O447 Mg434 2.010 . S
O447 C439 1.249 . S
C448 C449 1.369 . S
C448 C450 1.419 . S
C448 H452 0.930 . S
C449 C448 1.369 . S
C449 C458 1.429 . S
C450 C448 1.419 . S
C450 C451 1.363 . S
C450 H453 0.929 . S
C451 C450 1.363 . S
C451 C457 1.428 . S
H452 C448 0.930 . S
H453 C450 0.929 . S
S454 N455 1.613 . S
S454 N456 1.610 . S
N455 S454 1.613 . S
N455 C458 1.350 . S
N456 S454 1.610 . S
N456 C457 1.351 . S
C457 C451 1.428 . S
C457 N456 1.351 . S
C457 C458 1.434 . S
C458 C449 1.429 . S
C458 N455 1.350 . S
C458 C457 1.434 . S
C459 C460 1.369 . S
C459 C461 1.419 . S
C459 H463 0.930 . S
C460 C459 1.369 . S
C460 C469 1.429 . S
C461 C459 1.419 . S
C461 C462 1.363 . S
C461 H464 0.929 . S
C462 C461 1.363 . S
C462 C468 1.428 . S
H463 C459 0.930 . S
H464 C461 0.929 . S
S465 N466 1.613 . S
S465 N467 1.610 . S
N466 S465 1.613 . S
N466 C469 1.350 . S
N467 S465 1.610 . S
N467 C468 1.351 . S
C468 C462 1.428 . S
C468 N467 1.351 . S
C468 C469 1.434 . S
C469 C460 1.429 . S
C469 N466 1.350 . S
C469 C468 1.434 . S
C470 C471 1.369 . S
C470 C472 1.419 . S
C470 H474 0.930 . S
C471 C470 1.369 . S
C471 C480 1.429 . S
C472 C470 1.419 . S
C472 C473 1.363 . S
C472 H475 0.929 . S
C473 C472 1.363 . S
C473 C479 1.428 . S
H474 C470 0.930 . S
H475 C472 0.929 . S
S476 N477 1.613 . S
S476 N478 1.610 . S
N477 S476 1.613 . S
N477 C480 1.350 . S
N478 S476 1.610 . S
N478 C479 1.351 . S
C479 C473 1.428 . S
C479 N478 1.351 . S
C479 C480 1.434 . S
C480 C471 1.429 . S
C480 N477 1.350 . S
C480 C479 1.434 . S
C481 C482 1.369 . S
C481 C483 1.419 . S
C481 H485 0.930 . S
C482 C481 1.369 . S
C482 C491 1.429 . S
C483 C481 1.419 . S
C483 C484 1.363 . S
C483 H486 0.929 . S
C484 C483 1.363 . S
C484 C490 1.428 . S
H485 C481 0.930 . S
H486 C483 0.929 . S
S487 N488 1.613 . S
S487 N489 1.610 . S
N488 S487 1.613 . S
N488 C491 1.350 . S
N489 S487 1.610 . S
N489 C490 1.351 . S
C490 C484 1.428 . S
C490 N489 1.351 . S
C490 C491 1.434 . S
C491 C482 1.429 . S
C491 N488 1.350 . S
C491 C490 1.434 . S
C492 C493 1.369 . S
C492 C494 1.419 . S
C492 H496 0.930 . S
C493 C492 1.369 . S
C493 C502 1.429 . S
C494 C492 1.419 . S
C494 C495 1.363 . S
C494 H497 0.929 . S
C495 C494 1.363 . S
C495 C501 1.428 . S
H496 C492 0.930 . S
H497 C494 0.929 . S
S498 N499 1.613 . S
S498 N500 1.610 . S
N499 S498 1.613 . S
N499 C502 1.350 . S
N500 S498 1.610 . S
N500 C501 1.351 . S
C501 C495 1.428 . S
C501 N500 1.351 . S
C501 C502 1.434 . S
C502 C493 1.429 . S
C502 N499 1.350 . S
C502 C501 1.434 . S
C503 C504 1.369 . S
C503 C505 1.419 . S
C503 H507 0.930 . S
C504 C503 1.369 . S
C504 C513 1.429 . S
C505 C503 1.419 . S
C505 C506 1.363 . S
C505 H508 0.929 . S
C506 C505 1.363 . S
C506 C512 1.428 . S
H507 C503 0.930 . S
H508 C505 0.929 . S
S509 N510 1.613 . S
S509 N511 1.610 . S
N510 S509 1.613 . S
N510 C513 1.350 . S
N511 S509 1.610 . S
N511 C512 1.351 . S
C512 C506 1.428 . S
C512 N511 1.351 . S
C512 C513 1.434 . S
C513 C504 1.429 . S
C513 N510 1.350 . S
C513 C512 1.434 . S
C514 C515 1.369 . S
C514 C516 1.419 . S
C514 H518 0.930 . S
C515 C514 1.369 . S
C515 C524 1.429 . S
C516 C514 1.419 . S
C516 C517 1.363 . S
C516 H519 0.929 . S
C517 C516 1.363 . S
C517 C523 1.428 . S
H518 C514 0.930 . S
H519 C516 0.929 . S
S520 N521 1.613 . S
S520 N522 1.610 . S
N521 S520 1.613 . S
N521 C524 1.350 . S
N522 S520 1.610 . S
N522 C523 1.351 . S
C523 C517 1.428 . S
C523 N522 1.351 . S
C523 C524 1.434 . S
C524 C515 1.429 . S
C524 N521 1.350 . S
C524 C523 1.434 . S
C525 C526 1.369 . S
C525 C527 1.419 . S
C525 H529 0.930 . S
C526 C525 1.369 . S
C526 C535 1.429 . S
C527 C525 1.419 . S
C527 C528 1.363 . S
C527 H530 0.929 . S
C528 C527 1.363 . S
C528 C534 1.428 . S
H529 C525 0.930 . S
H530 C527 0.929 . S
S531 N532 1.613 . S
S531 N533 1.610 . S
N532 S531 1.613 . S
N532 C535 1.350 . S
N533 S531 1.610 . S
N533 C534 1.351 . S
C534 C528 1.428 . S
C534 N533 1.351 . S
C534 C535 1.434 . S
C535 C526 1.429 . S
C535 N532 1.350 . S
C535 C534 1.434 . S
C536 C537 1.369 . S
C536 C538 1.419 . S
C536 H540 0.930 . S
C537 C536 1.369 . S
C537 C546 1.429 . S
C538 C536 1.419 . S
C538 C539 1.363 . S
C538 H541 0.929 . S
C539 C538 1.363 . S
C539 C545 1.428 . S
H540 C536 0.930 . S
H541 C538 0.929 . S
S542 N543 1.613 . S
S542 N544 1.610 . S
N543 S542 1.613 . S
N543 C546 1.350 . S
N544 S542 1.610 . S
N544 C545 1.351 . S
C545 C539 1.428 . S
C545 N544 1.351 . S
C545 C546 1.434 . S
C546 C537 1.429 . S
C546 N543 1.350 . S
C546 C545 1.434 . S
C547 C548 1.369 . S
C547 C549 1.419 . S
C547 H551 0.930 . S
C548 C547 1.369 . S
C548 C557 1.429 . S
C549 C547 1.419 . S
C549 C550 1.363 . S
C549 H552 0.929 . S
C550 C549 1.363 . S
C550 C556 1.428 . S
H551 C547 0.930 . S
H552 C549 0.929 . S
S553 N554 1.613 . S
S553 N555 1.610 . S
N554 S553 1.613 . S
N554 C557 1.350 . S
N555 S553 1.610 . S
N555 C556 1.351 . S
C556 C550 1.428 . S
C556 N555 1.351 . S
C556 C557 1.434 . S
C557 C548 1.429 . S
C557 N554 1.350 . S
C557 C556 1.434 . S
C558 C559 1.369 . S
C558 C560 1.419 . S
C558 H562 0.930 . S
C559 C558 1.369 . S
C559 C568 1.429 . S
C560 C558 1.419 . S
C560 C561 1.363 . S
C560 H563 0.929 . S
C561 C560 1.363 . S
C561 C567 1.428 . S
H562 C558 0.930 . S
H563 C560 0.929 . S
S564 N565 1.613 . S
S564 N566 1.610 . S
N565 S564 1.613 . S
N565 C568 1.350 . S
N566 S564 1.610 . S
N566 C567 1.351 . S
C567 C561 1.428 . S
C567 N566 1.351 . S
C567 C568 1.434 . S
C568 C559 1.429 . S
C568 N565 1.350 . S
C568 C567 1.434 . S
C569 C570 1.369 . S
C569 C571 1.419 . S
C569 H573 0.930 . S
C570 C569 1.369 . S
C570 C579 1.429 . S
C571 C569 1.419 . S
C571 C572 1.363 . S
C571 H574 0.929 . S
C572 C571 1.363 . S
C572 C578 1.428 . S
H573 C569 0.930 . S
H574 C571 0.929 . S
S575 N576 1.613 . S
S575 N577 1.610 . S
N576 S575 1.613 . S
N576 C579 1.350 . S
N577 S575 1.610 . S
N577 C578 1.351 . S
C578 C572 1.428 . S
C578 N577 1.351 . S
C578 C579 1.434 . S
C579 C570 1.429 . S
C579 N576 1.350 . S
C579 C578 1.434 . S
C580 C581 1.369 . S
C580 C582 1.419 . S
C580 H584 0.930 . S
C581 C580 1.369 . S
C581 C590 1.429 . S
C582 C580 1.419 . S
C582 C583 1.363 . S
C582 H585 0.929 . S
C583 C582 1.363 . S
C583 C589 1.428 . S
H584 C580 0.930 . S
H585 C582 0.929 . S
S586 N587 1.613 . S
S586 N588 1.610 . S
N587 S586 1.613 . S
N587 C590 1.350 . S
N588 S586 1.610 . S
N588 C589 1.351 . S
C589 C583 1.428 . S
C589 N588 1.351 . S
C589 C590 1.434 . S
C590 C581 1.429 . S
C590 N587 1.350 . S
C590 C589 1.434 . S
C591 C592 1.369 . S
C591 C593 1.419 . S
C591 H595 0.930 . S
C592 C591 1.369 . S
C592 C601 1.429 . S
C593 C591 1.419 . S
C593 C594 1.363 . S
C593 H596 0.929 . S
C594 C593 1.363 . S
C594 C600 1.428 . S
H595 C591 0.930 . S
H596 C593 0.929 . S
S597 N598 1.613 . S
S597 N599 1.610 . S
N598 S597 1.613 . S
N598 C601 1.350 . S
N599 S597 1.610 . S
N599 C600 1.351 . S
C600 C594 1.428 . S
C600 N599 1.351 . S
C600 C601 1.434 . S
C601 C592 1.429 . S
C601 N598 1.350 . S
C601 C600 1.434 . S
C602 C603 1.369 . S
C602 C604 1.419 . S
C602 H606 0.930 . S
C603 C602 1.369 . S
C603 C612 1.429 . S
C604 C602 1.419 . S
C604 C605 1.363 . S
C604 H607 0.929 . S
C605 C604 1.363 . S
C605 C611 1.428 . S
H606 C602 0.930 . S
H607 C604 0.929 . S
S608 N609 1.613 . S
S608 N610 1.610 . S
N609 S608 1.613 . S
N609 C612 1.350 . S
N610 S608 1.610 . S
N610 C611 1.351 . S
C611 C605 1.428 . S
C611 N610 1.351 . S
C611 C612 1.434 . S
C612 C603 1.429 . S
C612 N609 1.350 . S
C612 C611 1.434 . S
C613 C614 1.369 . S
C613 C615 1.419 . S
C613 H617 0.930 . S
C614 C613 1.369 . S
C614 C623 1.429 . S
C615 C613 1.419 . S
C615 C616 1.363 . S
C615 H618 0.929 . S
C616 C615 1.363 . S
C616 C622 1.428 . S
H617 C613 0.930 . S
H618 C615 0.929 . S
S619 N620 1.613 . S
S619 N621 1.610 . S
N620 S619 1.613 . S
N620 C623 1.350 . S
N621 S619 1.610 . S
N621 C622 1.351 . S
C622 C616 1.428 . S
C622 N621 1.351 . S
C622 C623 1.434 . S
C623 C614 1.429 . S
C623 N620 1.350 . S
C623 C622 1.434 . S
C624 C625 1.369 . S
C624 C626 1.419 1_554 S
C624 H628 0.930 . S
C625 C624 1.369 . S
C625 C634 1.429 . S
C626 C624 1.419 1_556 S
C626 C627 1.363 . S
C626 H629 0.929 . S
C627 C626 1.363 . S
C627 C633 1.428 . S
H628 C624 0.930 . S
H629 C626 0.929 . S
S630 N631 1.615 1_556 S
S630 N632 1.608 . S
N631 S630 1.615 1_554 S
N631 C634 1.350 . S
N632 S630 1.608 . S
N632 C633 1.351 . S
C633 C627 1.428 . S
C633 N632 1.351 . S
C633 C634 1.434 1_556 S
C634 C625 1.429 . S
C634 N631 1.350 . S
C634 C633 1.434 1_554 S
C635 C636 1.369 . S
C635 C637 1.419 1_556 S
C635 H639 0.930 . S
C636 C635 1.369 . S
C636 C645 1.429 . S
C637 C635 1.419 1_554 S
C637 C638 1.363 . S
C637 H640 0.929 . S
C638 C637 1.363 . S
C638 C644 1.428 . S
H639 C635 0.930 . S
H640 C637 0.929 . S
S641 N642 1.615 1_554 S
S641 N643 1.608 . S
N642 S641 1.615 1_556 S
N642 C645 1.350 . S
N643 S641 1.608 . S
N643 C644 1.351 . S
C644 C638 1.428 . S
C644 N643 1.351 . S
C644 C645 1.434 1_554 S
C645 C636 1.429 . S
C645 N642 1.350 . S
C645 C644 1.434 1_556 S
C646 C647 1.369 . S
C646 C648 1.419 1_556 S
C646 H650 0.930 . S
C647 C646 1.369 . S
C647 C656 1.429 . S
C648 C646 1.419 1_554 S
C648 C649 1.363 . S
C648 H651 0.929 . S
C649 C648 1.363 . S
C649 C655 1.428 . S
H650 C646 0.930 . S
H651 C648 0.929 . S
S652 N653 1.615 1_554 S
S652 N654 1.608 . S
N653 S652 1.615 1_556 S
N653 C656 1.350 . S
N654 S652 1.608 . S
N654 C655 1.351 . S
C655 C649 1.428 . S
C655 N654 1.351 . S
C655 C656 1.434 1_554 S
C656 C647 1.429 . S
C656 N653 1.350 . S
C656 C655 1.434 1_556 S
C657 C658 1.369 . S
C657 C659 1.419 1_556 S
C657 H661 0.930 . S
C658 C657 1.369 . S
C658 C667 1.429 . S
C659 C657 1.419 1_554 S
C659 C660 1.363 . S
C659 H662 0.929 . S
C660 C659 1.363 . S
C660 C666 1.428 . S
H661 C657 0.930 . S
H662 C659 0.929 . S
S663 N664 1.615 1_554 S
S663 N665 1.608 . S
N664 S663 1.615 1_556 S
N664 C667 1.350 . S
N665 S663 1.608 . S
N665 C666 1.351 . S
C666 C660 1.428 . S
C666 N665 1.351 . S
C666 C667 1.434 1_554 S
C667 C658 1.429 . S
C667 N664 1.350 . S
C667 C666 1.434 1_556 S
C668 C669 1.369 . S
C668 C670 1.419 . S
C668 H672 0.930 . S
C669 C668 1.369 . S
C669 C678 1.429 . S
C670 C668 1.419 . S
C670 C671 1.363 . S
C670 H673 0.929 . S
C671 C670 1.363 . S
C671 C677 1.428 . S
H672 C668 0.930 . S
H673 C670 0.929 . S
S674 N675 1.613 . S
S674 N676 1.610 . S
N675 S674 1.613 . S
N675 C678 1.350 . S
N676 S674 1.610 . S
N676 C677 1.351 . S
C677 C671 1.428 . S
C677 N676 1.351 . S
C677 C678 1.434 . S
C678 C669 1.429 . S
C678 N675 1.350 . S
C678 C677 1.434 . S
C679 C680 1.369 . S
C679 C681 1.419 . S
C679 H683 0.930 . S
C680 C679 1.369 . S
C680 C689 1.429 . S
C681 C679 1.419 . S
C681 C682 1.363 . S
C681 H684 0.929 . S
C682 C681 1.363 . S
C682 C688 1.428 . S
H683 C679 0.930 . S
H684 C681 0.929 . S
S685 N686 1.613 . S
S685 N687 1.610 . S
N686 S685 1.613 . S
N686 C689 1.350 . S
N687 S685 1.610 . S
N687 C688 1.351 . S
C688 C682 1.428 . S
C688 N687 1.351 . S
C688 C689 1.434 . S
C689 C680 1.429 . S
C689 N686 1.350 . S
C689 C688 1.434 . S
C690 C691 1.369 . S
C690 C692 1.419 . S
C690 H694 0.930 . S
C691 C690 1.369 . S
C691 C700 1.429 . S
C692 C690 1.419 . S
C692 C693 1.363 . S
C692 H695 0.929 . S
C693 C692 1.363 . S
C693 C699 1.428 . S
H694 C690 0.930 . S
H695 C692 0.929 . S
S696 N697 1.613 . S
S696 N698 1.610 . S
N697 S696 1.613 . S
N697 C700 1.350 . S
N698 S696 1.610 . S
N698 C699 1.351 . S
C699 C693 1.428 . S
C699 N698 1.351 . S
C699 C700 1.434 . S
C700 C691 1.429 . S
C700 N697 1.350 . S
C700 C699 1.434 . S
C701 C702 1.369 . S
C701 C703 1.419 . S
C701 H705 0.930 . S
C702 C701 1.369 . S
C702 C711 1.429 . S
C703 C701 1.419 . S
C703 C704 1.363 . S
C703 H706 0.929 . S
C704 C703 1.363 . S
C704 C710 1.428 . S
H705 C701 0.930 . S
H706 C703 0.929 . S
S707 N708 1.613 . S
S707 N709 1.610 . S
N708 S707 1.613 . S
N708 C711 1.350 . S
N709 S707 1.610 . S
N709 C710 1.351 . S
C710 C704 1.428 . S
C710 N709 1.351 . S
C710 C711 1.434 . S
C711 C702 1.429 . S
C711 N708 1.350 . S
C711 C710 1.434 . S
C712 C713 1.369 . S
C712 C714 1.419 . S
C712 H716 0.930 . S
C713 C712 1.369 . S
C713 C722 1.429 . S
C714 C712 1.419 . S
C714 C715 1.363 . S
C714 H717 0.929 . S
C715 C714 1.363 . S
C715 C721 1.428 . S
H716 C712 0.930 . S
H717 C714 0.929 . S
S718 N719 1.613 . S
S718 N720 1.610 . S
N719 S718 1.613 . S
N719 C722 1.350 . S
N720 S718 1.610 . S
N720 C721 1.351 . S
C721 C715 1.428 . S
C721 N720 1.351 . S
C721 C722 1.434 . S
C722 C713 1.429 . S
C722 N719 1.350 . S
C722 C721 1.434 . S
C723 C724 1.369 . S
C723 C725 1.419 . S
C723 H727 0.930 . S
C724 C723 1.369 . S
C724 C733 1.429 . S
C725 C723 1.419 . S
C725 C726 1.363 . S
C725 H728 0.929 . S
C726 C725 1.363 . S
C726 C732 1.428 . S
H727 C723 0.930 . S
H728 C725 0.929 . S
S729 N730 1.613 . S
S729 N731 1.610 . S
N730 S729 1.613 . S
N730 C733 1.350 . S
N731 S729 1.610 . S
N731 C732 1.351 . S
C732 C726 1.428 . S
C732 N731 1.351 . S
C732 C733 1.434 . S
C733 C724 1.429 . S
C733 N730 1.350 . S
C733 C732 1.434 . S
C734 C735 1.369 . S
C734 C736 1.419 . S
C734 H738 0.930 . S
C735 C734 1.369 . S
C735 C744 1.429 . S
C736 C734 1.419 . S
C736 C737 1.363 . S
C736 H739 0.929 . S
C737 C736 1.363 . S
C737 C743 1.428 . S
H738 C734 0.930 . S
H739 C736 0.929 . S
S740 N741 1.613 . S
S740 N742 1.610 . S
N741 S740 1.613 . S
N741 C744 1.350 . S
N742 S740 1.610 . S
N742 C743 1.351 . S
C743 C737 1.428 . S
C743 N742 1.351 . S
C743 C744 1.434 . S
C744 C735 1.429 . S
C744 N741 1.350 . S
C744 C743 1.434 . S
C745 C746 1.369 . S
C745 C747 1.419 . S
C745 H749 0.930 . S
C746 C745 1.369 . S
C746 C755 1.429 . S
C747 C745 1.419 . S
C747 C748 1.363 . S
C747 H750 0.929 . S
C748 C747 1.363 . S
C748 C754 1.428 . S
H749 C745 0.930 . S
H750 C747 0.929 . S
S751 N752 1.613 . S
S751 N753 1.610 . S
N752 S751 1.613 . S
N752 C755 1.350 . S
N753 S751 1.610 . S
N753 C754 1.351 . S
C754 C748 1.428 . S
C754 N753 1.351 . S
C754 C755 1.434 . S
C755 C746 1.429 . S
C755 N752 1.350 . S
C755 C754 1.434 . S
C756 C757 1.369 . S
C756 C758 1.419 1_556 S
C756 H760 0.930 . S
C757 C756 1.369 . S
C757 C766 1.429 . S
C758 C756 1.419 1_554 S
C758 C759 1.363 . S
C758 H761 0.929 . S
C759 C758 1.363 . S
C759 C765 1.428 . S
H760 C756 0.930 . S
H761 C758 0.929 . S
S762 N763 1.615 1_554 S
S762 N764 1.608 . S
N763 S762 1.615 1_556 S
N763 C766 1.350 . S
N764 S762 1.608 . S
N764 C765 1.351 . S
C765 C759 1.428 . S
C765 N764 1.351 . S
C765 C766 1.434 1_554 S
C766 C757 1.429 . S
C766 N763 1.350 . S
C766 C765 1.434 1_556 S
C767 C768 1.369 . S
C767 C769 1.419 1_554 S
C767 H771 0.930 . S
C768 C767 1.369 . S
C768 C777 1.429 . S
C769 C767 1.419 1_556 S
C769 C770 1.363 . S
C769 H772 0.929 . S
C770 C769 1.363 . S
C770 C776 1.428 . S
H771 C767 0.930 . S
H772 C769 0.929 . S
S773 N774 1.615 1_556 S
S773 N775 1.608 . S
N774 S773 1.615 1_554 S
N774 C777 1.350 . S
N775 S773 1.608 . S
N775 C776 1.351 . S
C776 C770 1.428 . S
C776 N775 1.351 . S
C776 C777 1.434 1_556 S
C777 C768 1.429 . S
C777 N774 1.350 . S
C777 C776 1.434 1_554 S
C778 C779 1.369 . S
C778 C780 1.419 1_554 S
C778 H782 0.930 . S
C779 C778 1.369 . S
C779 C788 1.429 . S
C780 C778 1.419 1_556 S
C780 C781 1.363 . S
C780 H783 0.929 . S
C781 C780 1.363 . S
C781 C787 1.428 . S
H782 C778 0.930 . S
H783 C780 0.929 . S
S784 N785 1.615 1_556 S
S784 N786 1.608 . S
N785 S784 1.615 1_554 S
N785 C788 1.350 . S
N786 S784 1.608 . S
N786 C787 1.351 . S
C787 C781 1.428 . S
C787 N786 1.351 . S
C787 C788 1.434 1_556 S
C788 C779 1.429 . S
C788 N785 1.350 . S
C788 C787 1.434 1_554 S
C789 C790 1.369 . S
C789 C791 1.419 1_556 S
C789 H793 0.930 . S
C790 C789 1.369 . S
C790 C799 1.429 . S
C791 C789 1.419 1_554 S
C791 C792 1.363 . S
C791 H794 0.929 . S
C792 C791 1.363 . S
C792 C798 1.428 . S
H793 C789 0.930 . S
H794 C791 0.929 . S
S795 N796 1.615 1_554 S
S795 N797 1.608 . S
N796 S795 1.615 1_556 S
N796 C799 1.350 . S
N797 S795 1.608 . S
N797 C798 1.351 . S
C798 C792 1.428 . S
C798 N797 1.351 . S
C798 C799 1.434 1_554 S
C799 C790 1.429 . S
C799 N796 1.350 . S
C799 C798 1.434 1_556 S
C800 C801 1.369 . S
C800 C802 1.419 1_545 S
C800 H804 0.930 . S
C801 C800 1.369 . S
C801 C810 1.429 . S
C802 C800 1.419 1_565 S
C802 C803 1.363 . S
C802 H805 0.929 . S
C803 C802 1.363 . S
C803 C809 1.428 . S
H804 C800 0.930 . S
H805 C802 0.929 . S
S806 N807 1.613 1_565 S
S806 N808 1.610 . S
N807 S806 1.613 1_545 S
N807 C810 1.350 . S
N808 S806 1.610 . S
N808 C809 1.351 . S
C809 C803 1.428 . S
C809 N808 1.351 . S
C809 C810 1.434 1_565 S
C810 C801 1.429 . S
C810 N807 1.350 . S
C810 C809 1.434 1_545 S
C811 C812 1.369 . S
C811 C813 1.419 1_655 S
C811 H815 0.930 . S
C812 C811 1.369 . S
C812 C821 1.429 . S
C813 C811 1.419 1_455 S
C813 C814 1.363 . S
C813 H816 0.929 . S
C814 C813 1.363 . S
C814 C820 1.428 . S
H815 C811 0.930 . S
H816 C813 0.929 . S
S817 N818 1.613 1_455 S
S817 N819 1.610 . S
N818 S817 1.613 1_655 S
N818 C821 1.350 . S
N819 S817 1.610 . S
N819 C820 1.351 . S
C820 C814 1.428 . S
C820 N819 1.351 . S
C820 C821 1.434 1_455 S
C821 C812 1.429 . S
C821 N818 1.350 . S
C821 C820 1.434 1_655 S
C822 C823 1.369 . S
C822 C824 1.419 1_545 S
C822 H826 0.930 . S
C823 C822 1.369 . S
C823 C832 1.429 . S
C824 C822 1.419 1_565 S
C824 C825 1.363 . S
C824 H827 0.929 . S
C825 C824 1.363 . S
C825 C831 1.428 . S
H826 C822 0.930 . S
H827 C824 0.929 . S
S828 N829 1.613 . S
S828 N830 1.610 1_545 S
N829 S828 1.613 . S
N829 C832 1.350 . S
N830 S828 1.610 1_565 S
N830 C831 1.351 . S
C831 C825 1.428 . S
C831 N830 1.351 . S
C831 C832 1.434 1_565 S
C832 C823 1.429 . S
C832 N829 1.350 . S
C832 C831 1.434 1_545 S
C833 C834 1.369 . S
C833 C835 1.419 1_455 S
C833 H837 0.930 . S
C834 C833 1.369 . S
C834 C843 1.429 . S
C835 C833 1.419 1_655 S
C835 C836 1.363 . S
C835 H838 0.929 . S
C836 C835 1.363 . S
C836 C842 1.428 . S
H837 C833 0.930 . S
H838 C835 0.929 . S
S839 N840 1.613 . S
S839 N841 1.610 1_455 S
N840 S839 1.613 . S
N840 C843 1.350 . S
N841 S839 1.610 1_655 S
N841 C842 1.351 . S
C842 C836 1.428 . S
C842 N841 1.351 . S
C842 C843 1.434 1_655 S
C843 C834 1.429 . S
C843 N840 1.350 . S
C843 C842 1.434 1_455 S
C844 C845 1.369 . S
C844 C846 1.419 1_565 S
C844 H848 0.930 . S
C845 C844 1.369 . S
C845 C854 1.429 . S
C846 C844 1.419 1_545 S
C846 C847 1.363 . S
C846 H849 0.929 . S
C847 C846 1.363 . S
C847 C853 1.428 . S
H848 C844 0.930 . S
H849 C846 0.929 . S
S850 N851 1.613 . S
S850 N852 1.610 1_565 S
N851 S850 1.613 . S
N851 C854 1.350 . S
N852 S850 1.610 1_545 S
N852 C853 1.351 . S
C853 C847 1.428 . S
C853 N852 1.351 . S
C853 C854 1.434 1_545 S
C854 C845 1.429 . S
C854 N851 1.350 . S
C854 C853 1.434 1_565 S
C855 C856 1.369 . S
C855 C857 1.419 1_655 S
C855 H859 0.930 . S
C856 C855 1.369 . S
C856 C865 1.429 . S
C857 C855 1.419 1_455 S
C857 C858 1.363 . S
C857 H860 0.929 . S
C858 C857 1.363 . S
C858 C864 1.428 . S
H859 C855 0.930 . S
H860 C857 0.929 . S
S861 N862 1.613 1_455 S
S861 N863 1.610 . S
N862 S861 1.613 1_655 S
N862 C865 1.350 . S
N863 S861 1.610 . S
N863 C864 1.351 . S
C864 C858 1.428 . S
C864 N863 1.351 . S
C864 C865 1.434 1_455 S
C865 C856 1.429 . S
C865 N862 1.350 . S
C865 C864 1.434 1_655 S
C866 C867 1.369 . S
C866 C868 1.419 1_565 S
C866 H870 0.930 . S
C867 C866 1.369 . S
C867 C876 1.429 . S
C868 C866 1.419 1_545 S
C868 C869 1.363 . S
C868 H871 0.929 . S
C869 C868 1.363 . S
C869 C875 1.428 . S
H870 C866 0.930 . S
H871 C868 0.929 . S
S872 N873 1.613 1_545 S
S872 N874 1.610 . S
N873 S872 1.613 1_565 S
N873 C876 1.350 . S
N874 S872 1.610 . S
N874 C875 1.351 . S
C875 C869 1.428 . S
C875 N874 1.351 . S
C875 C876 1.434 1_545 S
C876 C867 1.429 . S
C876 N873 1.350 . S
C876 C875 1.434 1_565 S
C877 C878 1.369 . S
C877 C879 1.419 1_655 S
C877 H881 0.930 . S
C878 C877 1.369 . S
C878 C887 1.429 . S
C879 C877 1.419 1_455 S
C879 C880 1.363 . S
C879 H882 0.929 . S
C880 C879 1.363 . S
C880 C886 1.428 . S
H881 C877 0.930 . S
H882 C879 0.929 . S
S883 N884 1.613 . S
S883 N885 1.610 1_655 S
N884 S883 1.613 . S
N884 C887 1.350 . S
N885 S883 1.610 1_455 S
N885 C886 1.351 . S
C886 C880 1.428 . S
C886 N885 1.351 . S
C886 C887 1.434 1_455 S
C887 C878 1.429 . S
C887 N884 1.350 . S
C887 C886 1.434 1_655 S
C888 C889 1.369 . S
C888 C890 1.419 . S
C888 H892 0.930 . S
C889 C888 1.369 . S
C889 C898 1.429 . S
C890 C888 1.419 . S
C890 C891 1.363 . S
C890 H893 0.929 . S
C891 C890 1.363 . S
C891 C897 1.428 . S
H892 C888 0.930 . S
H893 C890 0.929 . S
S894 N895 1.613 . S
S894 N896 1.610 . S
N895 S894 1.613 . S
N895 C898 1.350 . S
N896 S894 1.610 . S
N896 C897 1.351 . S
C897 C891 1.428 . S
C897 N896 1.351 . S
C897 C898 1.434 . S
C898 C889 1.429 . S
C898 N895 1.350 . S
C898 C897 1.434 . S
C899 C900 1.369 . S
C899 C901 1.419 . S
C899 H903 0.930 . S
C900 C899 1.369 . S
C900 C909 1.429 . S
C901 C899 1.419 . S
C901 C902 1.363 . S
C901 H904 0.929 . S
C902 C901 1.363 . S
C902 C908 1.428 . S
H903 C899 0.930 . S
H904 C901 0.929 . S
S905 N906 1.613 . S
S905 N907 1.610 . S
N906 S905 1.613 . S
N906 C909 1.350 . S
N907 S905 1.610 . S
N907 C908 1.351 . S
C908 C902 1.428 . S
C908 N907 1.351 . S
C908 C909 1.434 . S
C909 C900 1.429 . S
C909 N906 1.350 . S
C909 C908 1.434 . S
C910 C911 1.369 . S
C910 C912 1.419 . S
C910 H914 0.930 . S
C911 C910 1.369 . S
C911 C920 1.429 . S
C912 C910 1.419 . S
C912 C913 1.363 . S
C912 H915 0.929 . S
C913 C912 1.363 . S
C913 C919 1.428 . S
H914 C910 0.930 . S
H915 C912 0.929 . S
S916 N917 1.613 . S
S916 N918 1.610 . S
N917 S916 1.613 . S
N917 C920 1.350 . S
N918 S916 1.610 . S
N918 C919 1.351 . S
C919 C913 1.428 . S
C919 N918 1.351 . S
C919 C920 1.434 . S
C920 C911 1.429 . S
C920 N917 1.350 . S
C920 C919 1.434 . S
C921 C922 1.369 . S
C921 C923 1.419 . S
C921 H925 0.930 . S
C922 C921 1.369 . S
C922 C931 1.429 . S
C923 C921 1.419 . S
C923 C924 1.363 . S
C923 H926 0.929 . S
C924 C923 1.363 . S
C924 C930 1.428 . S
H925 C921 0.930 . S
H926 C923 0.929 . S
S927 N928 1.613 . S
S927 N929 1.610 . S
N928 S927 1.613 . S
N928 C931 1.350 . S
N929 S927 1.610 . S
N929 C930 1.351 . S
C930 C924 1.428 . S
C930 N929 1.351 . S
C930 C931 1.434 . S
C931 C922 1.429 . S
C931 N928 1.350 . S
C931 C930 1.434 . S
C932 C933 1.369 . S
C932 C934 1.419 . S
C932 H936 0.930 . S
C933 C932 1.369 . S
C933 C942 1.429 . S
C934 C932 1.419 . S
C934 C935 1.363 . S
C934 H937 0.929 . S
C935 C934 1.363 . S
C935 C941 1.428 . S
H936 C932 0.930 . S
H937 C934 0.929 . S
S938 N939 1.613 . S
S938 N940 1.610 . S
N939 S938 1.613 . S
N939 C942 1.350 . S
N940 S938 1.610 . S
N940 C941 1.351 . S
C941 C935 1.428 . S
C941 N940 1.351 . S
C941 C942 1.434 . S
C942 C933 1.429 . S
C942 N939 1.350 . S
C942 C941 1.434 . S
C943 C944 1.369 . S
C943 C945 1.419 . S
C943 H947 0.930 . S
C944 C943 1.369 . S
C944 C953 1.429 . S
C945 C943 1.419 . S
C945 C946 1.363 . S
C945 H948 0.929 . S
C946 C945 1.363 . S
C946 C952 1.428 . S
H947 C943 0.930 . S
H948 C945 0.929 . S
S949 N950 1.613 . S
S949 N951 1.610 . S
N950 S949 1.613 . S
N950 C953 1.350 . S
N951 S949 1.610 . S
N951 C952 1.351 . S
C952 C946 1.428 . S
C952 N951 1.351 . S
C952 C953 1.434 . S
C953 C944 1.429 . S
C953 N950 1.350 . S
C953 C952 1.434 . S
C954 C955 1.369 . S
C954 C956 1.419 . S
C954 H958 0.930 . S
C955 C954 1.369 . S
C955 C964 1.429 . S
C956 C954 1.419 . S
C956 C957 1.363 . S
C956 H959 0.929 . S
C957 C956 1.363 . S
C957 C963 1.428 . S
H958 C954 0.930 . S
H959 C956 0.929 . S
S960 N961 1.613 . S
S960 N962 1.610 . S
N961 S960 1.613 . S
N961 C964 1.350 . S
N962 S960 1.610 . S
N962 C963 1.351 . S
C963 C957 1.428 . S
C963 N962 1.351 . S
C963 C964 1.434 . S
C964 C955 1.429 . S
C964 N961 1.350 . S
C964 C963 1.434 . S
C965 C966 1.369 . S
C965 C967 1.419 . S
C965 H969 0.930 . S
C966 C965 1.369 . S
C966 C975 1.429 . S
C967 C965 1.419 . S
C967 C968 1.363 . S
C967 H970 0.929 . S
C968 C967 1.363 . S
C968 C974 1.428 . S
H969 C965 0.930 . S
H970 C967 0.929 . S
S971 N972 1.613 . S
S971 N973 1.610 . S
N972 S971 1.613 . S
N972 C975 1.350 . S
N973 S971 1.610 . S
N973 C974 1.351 . S
C974 C968 1.428 . S
C974 N973 1.351 . S
C974 C975 1.434 . S
C975 C966 1.429 . S
C975 N972 1.350 . S
C975 C974 1.434 . S
C976 C977 1.369 . S
C976 C978 1.419 . S
C976 H980 0.930 . S
C977 C976 1.369 . S
C977 C986 1.429 . S
C978 C976 1.419 . S
C978 C979 1.363 . S
C978 H981 0.929 . S
C979 C978 1.363 . S
C979 C985 1.428 . S
H980 C976 0.930 . S
H981 C978 0.929 . S
S982 N983 1.613 . S
S982 N984 1.610 . S
N983 S982 1.613 . S
N983 C986 1.350 . S
N984 S982 1.610 . S
N984 C985 1.351 . S
C985 C979 1.428 . S
C985 N984 1.351 . S
C985 C986 1.434 . S
C986 C977 1.429 . S
C986 N983 1.350 . S
C986 C985 1.434 . S
C987 C988 1.369 . S
C987 C989 1.419 . S
C987 H991 0.930 . S
C988 C987 1.369 . S
C988 C997 1.429 . S
C989 C987 1.419 . S
C989 C990 1.363 . S
C989 H992 0.929 . S
C990 C989 1.363 . S
C990 C996 1.428 . S
H991 C987 0.930 . S
H992 C989 0.929 . S
S993 N994 1.613 . S
S993 N995 1.610 . S
N994 S993 1.613 . S
N994 C997 1.350 . S
N995 S993 1.610 . S
N995 C996 1.351 . S
C996 C990 1.428 . S
C996 N995 1.351 . S
C996 C997 1.434 . S
C997 C988 1.429 . S
C997 N994 1.350 . S
C997 C996 1.434 . S
C998 C999 1.369 . S
C998 C1000 1.419 . S
C998 H1002 0.930 . S
C999 C998 1.369 . S
C999 C1008 1.429 . S
C1000 C998 1.419 . S
C1000 C1001 1.363 . S
C1000 H1003 0.929 . S
C1001 C1000 1.363 . S
C1001 C1007 1.428 . S
H1002 C998 0.930 . S
H1003 C1000 0.929 . S
S1004 N1005 1.613 . S
S1004 N1006 1.610 . S
N1005 S1004 1.613 . S
N1005 C1008 1.350 . S
N1006 S1004 1.610 . S
N1006 C1007 1.351 . S
C1007 C1001 1.428 . S
C1007 N1006 1.351 . S
C1007 C1008 1.434 . S
C1008 C999 1.429 . S
C1008 N1005 1.350 . S
C1008 C1007 1.434 . S
C1009 C1010 1.369 . S
C1009 C1011 1.419 . S
C1009 H1013 0.930 . S
C1010 C1009 1.369 . S
C1010 C1019 1.429 . S
C1011 C1009 1.419 . S
C1011 C1012 1.363 . S
C1011 H1014 0.929 . S
C1012 C1011 1.363 . S
C1012 C1018 1.428 . S
H1013 C1009 0.930 . S
H1014 C1011 0.929 . S
S1015 N1016 1.613 . S
S1015 N1017 1.610 . S
N1016 S1015 1.613 . S
N1016 C1019 1.350 . S
N1017 S1015 1.610 . S
N1017 C1018 1.351 . S
C1018 C1012 1.428 . S
C1018 N1017 1.351 . S
C1018 C1019 1.434 . S
C1019 C1010 1.429 . S
C1019 N1016 1.350 . S
C1019 C1018 1.434 . S
C1020 C1021 1.369 . S
C1020 C1022 1.419 . S
C1020 H1024 0.930 . S
C1021 C1020 1.369 . S
C1021 C1030 1.429 . S
C1022 C1020 1.419 . S
C1022 C1023 1.363 . S
C1022 H1025 0.929 . S
C1023 C1022 1.363 . S
C1023 C1029 1.428 . S
H1024 C1020 0.930 . S
H1025 C1022 0.929 . S
S1026 N1027 1.613 . S
S1026 N1028 1.610 . S
N1027 S1026 1.613 . S
N1027 C1030 1.350 . S
N1028 S1026 1.610 . S
N1028 C1029 1.351 . S
C1029 C1023 1.428 . S
C1029 N1028 1.351 . S
C1029 C1030 1.434 . S
C1030 C1021 1.429 . S
C1030 N1027 1.350 . S
C1030 C1029 1.434 . S
C1031 C1032 1.369 . S
C1031 C1033 1.419 . S
C1031 H1035 0.930 . S
C1032 C1031 1.369 . S
C1032 C1041 1.429 . S
C1033 C1031 1.419 . S
C1033 C1034 1.363 . S
C1033 H1036 0.929 . S
C1034 C1033 1.363 . S
C1034 C1040 1.428 . S
H1035 C1031 0.930 . S
H1036 C1033 0.929 . S
S1037 N1038 1.613 . S
S1037 N1039 1.610 . S
N1038 S1037 1.613 . S
N1038 C1041 1.350 . S
N1039 S1037 1.610 . S
N1039 C1040 1.351 . S
C1040 C1034 1.428 . S
C1040 N1039 1.351 . S
C1040 C1041 1.434 . S
C1041 C1032 1.429 . S
C1041 N1038 1.350 . S
C1041 C1040 1.434 . S
C1042 C1043 1.369 . S
C1042 C1044 1.419 . S
C1042 H1046 0.930 . S
C1043 C1042 1.369 . S
C1043 C1052 1.429 . S
C1044 C1042 1.419 . S
C1044 C1045 1.363 . S
C1044 H1047 0.929 . S
C1045 C1044 1.363 . S
C1045 C1051 1.428 . S
H1046 C1042 0.930 . S
H1047 C1044 0.929 . S
S1048 N1049 1.613 . S
S1048 N1050 1.610 . S
N1049 S1048 1.613 . S
N1049 C1052 1.350 . S
N1050 S1048 1.610 . S
N1050 C1051 1.351 . S
C1051 C1045 1.428 . S
C1051 N1050 1.351 . S
C1051 C1052 1.434 . S
C1052 C1043 1.429 . S
C1052 N1049 1.350 . S
C1052 C1051 1.434 . S
C1053 C1054 1.369 . S
C1053 C1055 1.419 . S
C1053 H1057 0.930 . S
C1054 C1053 1.369 . S
C1054 C1063 1.429 . S
C1055 C1053 1.419 . S
C1055 C1056 1.363 . S
C1055 H1058 0.929 . S
C1056 C1055 1.363 . S
C1056 C1062 1.428 . S
H1057 C1053 0.930 . S
H1058 C1055 0.929 . S
S1059 N1060 1.613 . S
S1059 N1061 1.610 . S
N1060 S1059 1.613 . S
N1060 C1063 1.350 . S
N1061 S1059 1.610 . S
N1061 C1062 1.351 . S
C1062 C1056 1.428 . S
C1062 N1061 1.351 . S
C1062 C1063 1.434 . S
C1063 C1054 1.429 . S
C1063 N1060 1.350 . S
C1063 C1062 1.434 . S
C1064 C1065 1.369 . S
C1064 C1066 1.419 . S
C1064 H1068 0.930 . S
C1065 C1064 1.369 . S
C1065 C1074 1.429 . S
C1066 C1064 1.419 . S
C1066 C1067 1.363 . S
C1066 H1069 0.929 . S
C1067 C1066 1.363 . S
C1067 C1073 1.428 . S
H1068 C1064 0.930 . S
H1069 C1066 0.929 . S
S1070 N1071 1.613 . S
S1070 N1072 1.610 . S
N1071 S1070 1.613 . S
N1071 C1074 1.350 . S
N1072 S1070 1.610 . S
N1072 C1073 1.351 . S
C1073 C1067 1.428 . S
C1073 N1072 1.351 . S
C1073 C1074 1.434 . S
C1074 C1065 1.429 . S
C1074 N1071 1.350 . S
C1074 C1073 1.434 . S
C1075 C1076 1.369 . S
C1075 C1077 1.419 . S
C1075 H1079 0.930 . S
C1076 C1075 1.369 . S
C1076 C1085 1.429 . S
C1077 C1075 1.419 . S
C1077 C1078 1.363 . S
C1077 H1080 0.929 . S
C1078 C1077 1.363 . S
C1078 C1084 1.428 . S
H1079 C1075 0.930 . S
H1080 C1077 0.929 . S
S1081 N1082 1.613 . S
S1081 N1083 1.610 . S
N1082 S1081 1.613 . S
N1082 C1085 1.350 . S
N1083 S1081 1.610 . S
N1083 C1084 1.351 . S
C1084 C1078 1.428 . S
C1084 N1083 1.351 . S
C1084 C1085 1.434 . S
C1085 C1076 1.429 . S
C1085 N1082 1.350 . S
C1085 C1084 1.434 . S
C1086 C1087 1.369 . S
C1086 C1088 1.419 . S
C1086 H1090 0.930 . S
C1087 C1086 1.369 . S
C1087 C1096 1.429 . S
C1088 C1086 1.419 . S
C1088 C1089 1.363 . S
C1088 H1091 0.929 . S
C1089 C1088 1.363 . S
C1089 C1095 1.428 . S
H1090 C1086 0.930 . S
H1091 C1088 0.929 . S
S1092 N1093 1.613 . S
S1092 N1094 1.610 . S
N1093 S1092 1.613 . S
N1093 C1096 1.350 . S
N1094 S1092 1.610 . S
N1094 C1095 1.351 . S
C1095 C1089 1.428 . S
C1095 N1094 1.351 . S
C1095 C1096 1.434 . S
C1096 C1087 1.429 . S
C1096 N1093 1.350 . S
C1096 C1095 1.434 . S
C1097 C1098 1.369 . S
C1097 C1099 1.419 . S
C1097 H1101 0.930 . S
C1098 C1097 1.369 . S
C1098 C1107 1.429 . S
C1099 C1097 1.419 . S
C1099 C1100 1.363 . S
C1099 H1102 0.929 . S
C1100 C1099 1.363 . S
C1100 C1106 1.428 . S
H1101 C1097 0.930 . S
H1102 C1099 0.929 . S
S1103 N1104 1.613 . S
S1103 N1105 1.610 . S
N1104 S1103 1.613 . S
N1104 C1107 1.350 . S
N1105 S1103 1.610 . S
N1105 C1106 1.351 . S
C1106 C1100 1.428 . S
C1106 N1105 1.351 . S
C1106 C1107 1.434 . S
C1107 C1098 1.429 . S
C1107 N1104 1.350 . S
C1107 C1106 1.434 . S
C1108 C1109 1.369 . S
C1108 C1110 1.419 . S
C1108 H1112 0.930 . S
C1109 C1108 1.369 . S
C1109 C1118 1.429 . S
C1110 C1108 1.419 . S
C1110 C1111 1.363 . S
C1110 H1113 0.929 . S
C1111 C1110 1.363 . S
C1111 C1117 1.428 . S
H1112 C1108 0.930 . S
H1113 C1110 0.929 . S
S1114 N1115 1.613 . S
S1114 N1116 1.610 . S
N1115 S1114 1.613 . S
N1115 C1118 1.350 . S
N1116 S1114 1.610 . S
N1116 C1117 1.351 . S
C1117 C1111 1.428 . S
C1117 N1116 1.351 . S
C1117 C1118 1.434 . S
C1118 C1109 1.429 . S
C1118 N1115 1.350 . S
C1118 C1117 1.434 . S
C1119 C1120 1.369 . S
C1119 C1121 1.419 . S
C1119 H1123 0.930 . S
C1120 C1119 1.369 . S
C1120 C1129 1.429 . S
C1121 C1119 1.419 . S
C1121 C1122 1.363 . S
C1121 H1124 0.929 . S
C1122 C1121 1.363 . S
C1122 C1128 1.428 . S
H1123 C1119 0.930 . S
H1124 C1121 0.929 . S
S1125 N1126 1.613 . S
S1125 N1127 1.610 . S
N1126 S1125 1.613 . S
N1126 C1129 1.350 . S
N1127 S1125 1.610 . S
N1127 C1128 1.351 . S
C1128 C1122 1.428 . S
C1128 N1127 1.351 . S
C1128 C1129 1.434 . S
C1129 C1120 1.429 . S
C1129 N1126 1.350 . S
C1129 C1128 1.434 . S
C1130 C1131 1.369 . S
C1130 C1132 1.419 . S
C1130 H1134 0.930 . S
C1131 C1130 1.369 . S
C1131 C1140 1.429 . S
C1132 C1130 1.419 . S
C1132 C1133 1.363 . S
C1132 H1135 0.929 . S
C1133 C1132 1.363 . S
C1133 C1139 1.428 . S
H1134 C1130 0.930 . S
H1135 C1132 0.929 . S
S1136 N1137 1.613 . S
S1136 N1138 1.610 . S
N1137 S1136 1.613 . S
N1137 C1140 1.350 . S
N1138 S1136 1.610 . S
N1138 C1139 1.351 . S
C1139 C1133 1.428 . S
C1139 N1138 1.351 . S
C1139 C1140 1.434 . S
C1140 C1131 1.429 . S
C1140 N1137 1.350 . S
C1140 C1139 1.434 . S
C1141 C1142 1.369 . S
C1141 C1143 1.419 . S
C1141 H1145 0.930 . S
C1142 C1141 1.369 . S
C1142 C1151 1.429 . S
C1143 C1141 1.419 . S
C1143 C1144 1.363 . S
C1143 H1146 0.929 . S
C1144 C1143 1.363 . S
C1144 C1150 1.428 . S
H1145 C1141 0.930 . S
H1146 C1143 0.929 . S
S1147 N1148 1.613 . S
S1147 N1149 1.610 . S
N1148 S1147 1.613 . S
N1148 C1151 1.350 . S
N1149 S1147 1.610 . S
N1149 C1150 1.351 . S
C1150 C1144 1.428 . S
C1150 N1149 1.351 . S
C1150 C1151 1.434 . S
C1151 C1142 1.429 . S
C1151 N1148 1.350 . S
C1151 C1150 1.434 . S
C449 C410 1.298 . S
C451 C4 1.297 . S
C460 C18 1.291 . S
C462 C424 1.292 . S
C471 C438 1.293 . S
C473 C32 1.294 . S
C482 C396 1.298 . S
C484 C46 1.297 . S
C493 C60 1.290 . S
C495 C382 1.291 . S
C504 C340 1.290 . S
C506 C74 1.291 . S
C515 C88 1.292 . S
C517 C354 1.293 . S
C526 C368 1.291 . S
C528 C102 1.291 . S
C537 C116 1.290 . S
C539 C298 1.291 . S
C548 C130 1.293 . S
C550 C312 1.294 . S
C559 C326 1.292 . S
C561 C144 1.293 . S
C570 C158 1.290 . S
C572 C284 1.291 . S
C581 C270 1.297 . S
C583 C172 1.296 . S
C592 C228 1.296 . S
C594 C186 1.295 . S
C603 C200 1.292 . S
C605 C242 1.292 . S
C614 C214 1.298 . S
C616 C256 1.297 . S
C625 C5 1.298 . S
C627 C145 1.299 . S
C636 C159 1.296 . S
C638 C19 1.298 . S
C647 C117 1.308 . S
C649 C33 1.307 . S
C658 C131 1.313 . S
C660 C47 1.311 . S
C669 C61 1.299 . S
C671 C201 1.300 . S
C680 C215 1.308 . S
C682 C75 1.308 . S
C691 C173 1.313 . S
C693 C89 1.311 . S
C702 C187 1.304 . S
C704 C103 1.303 . S
C713 C229 1.299 . S
C715 C369 1.300 . S
C724 C383 1.297 . S
C726 C243 1.299 . S
C735 C341 1.309 . S
C737 C257 1.308 . S
C746 C271 1.310 . S
C748 C355 1.308 . S
C757 C285 1.313 . S
C759 C425 1.311 . S
C768 C439 1.304 . S
C770 C299 1.304 . S
C779 C397 1.301 . S
C781 C313 1.301 . S
C790 C327 1.303 . S
C792 C411 1.303 . S
C801 C11 1.274 . S
C803 C67 1.269 . S
C812 C25 1.274 . S
C814 C81 1.269 . S
C823 C95 1.269 . S
C825 C39 1.273 . S
C834 C53 1.270 . S
C836 C109 1.273 . S
C845 C123 1.268 . S
C847 C179 1.273 . S
C856 C193 1.274 . S
C858 C137 1.269 . S
C867 C207 1.273 . S
C869 C151 1.269 . S
C878 C165 1.268 . S
C880 C221 1.273 . S
C889 C235 1.273 . S
C891 C291 1.269 . S
C900 C305 1.274 . S
C902 C249 1.269 . S
C911 C263 1.274 . S
C913 C319 1.269 . S
C922 C333 1.270 . S
C924 C277 1.273 . S
C933 C403 1.274 . S
C935 C347 1.269 . S
C944 C361 1.269 . S
C946 C417 1.272 . S
C955 C375 1.268 . S
C957 C431 1.273 . S
C966 C389 1.270 . S
C968 C445 1.272 . S
C977 C12 1.528 . S
C979 C82 1.527 . S
C988 C26 1.527 . S
C990 C96 1.527 . S
C999 C110 1.527 . S
C1001 C40 1.527 . S
C1010 C68 1.526 . S
C1012 C54 1.526 . S
C1021 C194 1.528 . S
C1023 C124 1.527 . S
C1032 C208 1.526 . S
C1034 C138 1.527 . S
C1043 C222 1.528 . S
C1045 C152 1.527 . S
C1054 C166 1.526 . S
C1056 C180 1.526 . S
C1065 C236 1.526 . S
C1067 C306 1.526 . S
C1076 C320 1.528 . S
C1078 C250 1.527 . S
C1087 C334 1.526 . S
C1089 C264 1.526 . S
C1098 C278 1.526 . S
C1100 C292 1.527 . S
C1109 C418 1.526 . S
C1111 C348 1.527 . S
C1120 C362 1.528 . S
C1122 C432 1.527 . S
C1131 C376 1.526 . S
C1133 C446 1.527 . S
C1142 C404 1.526 . S
C1144 C390 1.527 . S
