# Generated by pormake.
# Topology uki, (4)-cn, num edge types: 1
# Building blocks:
#     Node 0, Type 0, BuildingBlock: GALJAG_clean_sbu_0, # of connection points: 4
#     Node 1, Type 0, BuildingBlock: GALJAG_clean_sbu_0, # of connection points: 4
#     Node 2, Type 0, BuildingBlock: GALJAG_clean_sbu_0, # of connection points: 4
#     Node 3, Type 0, BuildingBlock: GALJAG_clean_sbu_0, # of connection points: 4
#     Node 4, Type 0, BuildingBlock: GALJAG_clean_sbu_0, # of connection points: 4
#     Node 5, Type 0, BuildingBlock: GALJAG_clean_sbu_0, # of connection points: 4
#     Node 6, Type 0, BuildingBlock: GALJAG_clean_sbu_0, # of connection points: 4
#     Node 7, Type 0, BuildingBlock: GALJAG_clean_sbu_0, # of connection points: 4
#     Node 8, Type 0, BuildingBlock: GALJAG_clean_sbu_0, # of connection points: 4
#     Node 9, Type 0, BuildingBlock: GALJAG_clean_sbu_0, # of connection points: 4
#     Node 10, Type 0, BuildingBlock: GALJAG_clean_sbu_0, # of connection points: 4
#     Node 11, Type 0, BuildingBlock: GALJAG_clean_sbu_0, # of connection points: 4
#     Node 12, Type 0, BuildingBlock: GALJAG_clean_sbu_0, # of connection points: 4
#     Node 13, Type 0, BuildingBlock: GALJAG_clean_sbu_0, # of connection points: 4
#     Node 14, Type 0, BuildingBlock: GALJAG_clean_sbu_0, # of connection points: 4
#     Node 15, Type 0, BuildingBlock: GALJAG_clean_sbu_0, # of connection points: 4
#     Edge 16, Type (0, 0), BuildingBlock: UVAHIK_clean_linker_0, # of connection points: 2
#     Edge 17, Type (0, 0), BuildingBlock: UVAHIK_clean_linker_0, # of connection points: 2
#     Edge 18, Type (0, 0), BuildingBlock: UVAHIK_clean_linker_0, # of connection points: 2
#     Edge 19, Type (0, 0), BuildingBlock: UVAHIK_clean_linker_0, # of connection points: 2
#     Edge 20, Type (0, 0), BuildingBlock: UVAHIK_clean_linker_0, # of connection points: 2
#     Edge 21, Type (0, 0), BuildingBlock: UVAHIK_clean_linker_0, # of connection points: 2
#     Edge 22, Type (0, 0), BuildingBlock: UVAHIK_clean_linker_0, # of connection points: 2
#     Edge 23, Type (0, 0), BuildingBlock: UVAHIK_clean_linker_0, # of connection points: 2
#     Edge 24, Type (0, 0), BuildingBlock: UVAHIK_clean_linker_0, # of connection points: 2
#     Edge 25, Type (0, 0), BuildingBlock: UVAHIK_clean_linker_0, # of connection points: 2
#     Edge 26, Type (0, 0), BuildingBlock: UVAHIK_clean_linker_0, # of connection points: 2
#     Edge 27, Type (0, 0), BuildingBlock: UVAHIK_clean_linker_0, # of connection points: 2
#     Edge 28, Type (0, 0), BuildingBlock: UVAHIK_clean_linker_0, # of connection points: 2
#     Edge 29, Type (0, 0), BuildingBlock: UVAHIK_clean_linker_0, # of connection points: 2
#     Edge 30, Type (0, 0), BuildingBlock: UVAHIK_clean_linker_0, # of connection points: 2
#     Edge 31, Type (0, 0), BuildingBlock: UVAHIK_clean_linker_0, # of connection points: 2
#     Edge 32, Type (0, 0), BuildingBlock: UVAHIK_clean_linker_0, # of connection points: 2
#     Edge 33, Type (0, 0), BuildingBlock: UVAHIK_clean_linker_0, # of connection points: 2
#     Edge 34, Type (0, 0), BuildingBlock: UVAHIK_clean_linker_0, # of connection points: 2
#     Edge 35, Type (0, 0), BuildingBlock: UVAHIK_clean_linker_0, # of connection points: 2
#     Edge 36, Type (0, 0), BuildingBlock: UVAHIK_clean_linker_0, # of connection points: 2
#     Edge 37, Type (0, 0), BuildingBlock: UVAHIK_clean_linker_0, # of connection points: 2
#     Edge 38, Type (0, 0), BuildingBlock: UVAHIK_clean_linker_0, # of connection points: 2
#     Edge 39, Type (0, 0), BuildingBlock: UVAHIK_clean_linker_0, # of connection points: 2
#     Edge 40, Type (0, 0), BuildingBlock: UVAHIK_clean_linker_0, # of connection points: 2
#     Edge 41, Type (0, 0), BuildingBlock: UVAHIK_clean_linker_0, # of connection points: 2
#     Edge 42, Type (0, 0), BuildingBlock: UVAHIK_clean_linker_0, # of connection points: 2
#     Edge 43, Type (0, 0), BuildingBlock: UVAHIK_clean_linker_0, # of connection points: 2
#     Edge 44, Type (0, 0), BuildingBlock: UVAHIK_clean_linker_0, # of connection points: 2
#     Edge 45, Type (0, 0), BuildingBlock: UVAHIK_clean_linker_0, # of connection points: 2
#     Edge 46, Type (0, 0), BuildingBlock: UVAHIK_clean_linker_0, # of connection points: 2
#     Edge 47, Type (0, 0), BuildingBlock: UVAHIK_clean_linker_0, # of connection points: 2
# Relax obj value: 0.105
# Max RMSD: 0.179
# Mean RMSD: 0.179
data_MOF--net-uki--node1-GALJAG_clean_sbu_0--edge1-UVAHIK_clean_linker_0
_symmetry_space_group_name_H-M    P1
_symmetry_Int_Tables_number       1
_symmetry_cell_setting            triclinic
loop_
_symmetry_equiv_pos_as_xyz
'x, y, z'
_cell_length_a     39.066139
_cell_length_b     39.04169
_cell_length_c     98.488841
_cell_angle_alpha  89.984508
_cell_angle_beta   89.991697
_cell_angle_gamma 90.001294
loop_
_atom_site_label
_atom_site_type_symbol
_atom_site_fract_x
_atom_site_fract_y
_atom_site_fract_z
_atom_type_partial_charge
In0 In 0.06317 0.24648 0.30838 0.0
O1 O 0.11614 0.2617 0.31597 0.0
O2 O 0.07722 0.2558 0.33075 0.0
C3 C 0.00373 0.28174 0.30955 0.0
C4 C 0.04956 0.17858 0.30824 0.0
C5 C 0.09014 0.26432 0.28419 0.0
O6 O 0.03257 0.29623 0.31021 0.0
O7 O 0.00498 0.24952 0.30893 0.0
O8 O 0.06259 0.27673 0.2887 0.0
O9 O 0.10419 0.24248 0.29185 0.0
C10 C 0.10821 0.26248 0.32835 0.0
O11 O 0.05308 0.19584 0.29753 0.0
O12 O 0.05359 0.19538 0.31905 0.0
In13 In 0.23747 0.92769 0.69723 0.0
O14 O 0.2614 0.91159 0.67698 0.0
O15 O 0.22178 0.88058 0.68532 0.0
C16 C 0.2615 0.99149 0.70161 0.0
C17 C 0.17102 0.9445 0.69554 0.0
C18 C 0.26997 0.89201 0.71685 0.0
O19 O 0.2708 0.9742 0.6914 0.0
O20 O 0.24084 0.97645 0.70939 0.0
O21 O 0.2384 0.89863 0.71746 0.0
O22 O 0.28478 0.90297 0.70635 0.0
C23 C 0.24284 0.88523 0.67578 0.0
O24 O 0.18298 0.92713 0.70529 0.0
O25 O 0.19248 0.95257 0.68648 0.0
In26 In 0.92453 0.76144 0.30499 0.0
O27 O 0.9278 0.81399 0.29495 0.0
O28 O 0.93142 0.81174 0.31644 0.0
C29 C 0.90637 0.7335 0.28098 0.0
C30 C 0.87626 0.74404 0.32349 0.0
C31 C 0.98895 0.73711 0.30713 0.0
O32 O 0.89166 0.75976 0.28567 0.0
O33 O 0.92947 0.72126 0.28846 0.0
O34 O 0.96334 0.72053 0.31143 0.0
O35 O 0.98197 0.76622 0.30231 0.0
C36 C 0.93185 0.83014 0.30592 0.0
O37 O 0.90753 0.74664 0.32651 0.0
O38 O 0.86955 0.74967 0.31119 0.0
In39 In 0.75762 0.07365 0.69332 0.0
O40 O 0.80847 0.07511 0.70466 0.0
O41 O 0.80976 0.06883 0.68322 0.0
C42 C 0.7199 0.09175 0.71509 0.0
C43 C 0.74364 0.11955 0.67355 0.0
C44 C 0.74099 0.0066 0.69249 0.0
O45 O 0.74985 0.10308 0.71327 0.0
O46 O 0.709 0.07239 0.70582 0.0
O47 O 0.72423 0.02894 0.686 0.0
O48 O 0.76653 0.01807 0.69884 0.0
C49 C 0.82646 0.07074 0.69416 0.0
O50 O 0.74534 0.08776 0.67133 0.0
O51 O 0.74849 0.12807 0.68574 0.0
In52 In 0.06947 0.25302 0.94914 0.0
O53 O 0.09336 0.22716 0.93045 0.0
O54 O 0.11664 0.2724 0.9381 0.0
C55 C 0.01189 0.21512 0.94608 0.0
C56 C 0.05094 0.3194 0.94968 0.0
C57 C 0.09634 0.23159 0.97299 0.0
O58 O 0.04033 0.20214 0.94924 0.0
O59 O 0.01296 0.24678 0.94373 0.0
O60 O 0.06718 0.24528 0.97216 0.0
O61 O 0.1123 0.22977 0.96188 0.0
C62 C 0.11713 0.24892 0.92933 0.0
O63 O 0.06263 0.30421 0.96002 0.0
O64 O 0.04906 0.30121 0.93912 0.0
In65 In 0.25734 0.91944 0.05473 0.0
O66 O 0.23506 0.90132 0.07509 0.0
O67 O 0.26367 0.86583 0.06332 0.0
C68 C 0.21817 0.97622 0.05702 0.0
C69 C 0.32481 0.9348 0.05532 0.0
C70 C 0.23795 0.89592 0.03012 0.0
O71 O 0.20582 0.94724 0.05415 0.0
O72 O 0.24983 0.97608 0.05947 0.0
O73 O 0.24771 0.92634 0.03201 0.0
O74 O 0.23854 0.87725 0.04058 0.0
C75 C 0.24682 0.87131 0.07401 0.0
O76 O 0.30974 0.92527 0.04466 0.0
O77 O 0.30605 0.93597 0.06571 0.0
In78 In 0.92503 0.73659 0.94944 0.0
O79 O 0.92912 0.68536 0.96038 0.0
O80 O 0.93261 0.68515 0.93886 0.0
C81 C 0.90088 0.76628 0.97227 0.0
C82 C 0.88027 0.75077 0.92923 0.0
C83 C 0.98987 0.76045 0.94867 0.0
O84 O 0.89056 0.73739 0.96824 0.0
O85 O 0.92278 0.78028 0.96468 0.0
O86 O 0.96508 0.77708 0.94372 0.0
O87 O 0.98192 0.73174 0.9536 0.0
C88 C 0.93328 0.66799 0.94971 0.0
O89 O 0.91222 0.75015 0.92739 0.0
O90 O 0.87103 0.74461 0.94124 0.0
In91 In 0.73893 0.07069 0.05627 0.0
O92 O 0.68854 0.06194 0.04515 0.0
O93 O 0.68739 0.06368 0.06673 0.0
C94 C 0.76757 0.09003 0.0325 0.0
C95 C 0.75165 0.11933 0.07522 0.0
C96 C 0.76576 0.00733 0.05907 0.0
O97 O 0.78204 0.07041 0.04087 0.0
O98 O 0.73846 0.10067 0.03617 0.0
O99 O 0.78303 0.03417 0.06112 0.0
O100 O 0.73474 0.01253 0.05623 0.0
C101 C 0.67083 0.0597 0.05584 0.0
O102 O 0.75254 0.08775 0.07786 0.0
O103 O 0.7447 0.12632 0.06304 0.0
In104 In 0.5854 0.73468 0.80251 0.0
O105 O 0.59954 0.75002 0.82426 0.0
O106 O 0.63986 0.74121 0.81024 0.0
C107 C 0.51878 0.75364 0.80219 0.0
C108 C 0.58112 0.66601 0.80346 0.0
C109 C 0.60736 0.76639 0.77978 0.0
O110 O 0.54193 0.77297 0.8068 0.0
O111 O 0.52917 0.7248 0.79827 0.0
O112 O 0.61141 0.73466 0.78166 0.0
O113 O 0.59283 0.78192 0.78941 0.0
C114 C 0.63142 0.74908 0.82218 0.0
O115 O 0.587 0.68216 0.79258 0.0
O116 O 0.57823 0.68452 0.81391 0.0
In117 In 0.74253 0.43567 0.19432 0.0
O118 O 0.75474 0.41733 0.17274 0.0
O119 O 0.7472 0.37972 0.18799 0.0
C120 C 0.77067 0.49856 0.19204 0.0
C121 C 0.67472 0.44826 0.19423 0.0
C122 C 0.77124 0.41499 0.21788 0.0
O123 O 0.78596 0.47183 0.18811 0.0
O124 O 0.7409 0.49354 0.19654 0.0
O125 O 0.74129 0.40633 0.2145 0.0
O126 O 0.78663 0.43338 0.20932 0.0
C127 C 0.75362 0.38591 0.1757 0.0
O128 O 0.69156 0.44388 0.20502 0.0
O129 O 0.69196 0.44557 0.18345 0.0
In130 In 0.42501 0.2591 0.80658 0.0
O131 O 0.43311 0.31091 0.79654 0.0
O132 O 0.45164 0.3042 0.8167 0.0
C133 C 0.39528 0.24453 0.78244 0.0
C134 C 0.38036 0.2532 0.82744 0.0
C135 C 0.47936 0.21632 0.80779 0.0
O136 O 0.4268 0.25046 0.7837 0.0
O137 O 0.37838 0.24701 0.79331 0.0
O138 O 0.4492 0.2059 0.80591 0.0
O139 O 0.48179 0.24804 0.80992 0.0
C140 C 0.44857 0.3238 0.80657 0.0
O141 O 0.3999 0.22903 0.82394 0.0
O142 O 0.38355 0.28015 0.82052 0.0
In143 In 0.25733 0.56891 0.19836 0.0
O144 O 0.31097 0.57236 0.20731 0.0
O145 O 0.30599 0.55773 0.18657 0.0
C146 C 0.22539 0.5921 0.22082 0.0
C147 C 0.24405 0.61484 0.17852 0.0
C148 C 0.23674 0.50284 0.19936 0.0
O149 O 0.25753 0.59339 0.21951 0.0
O150 O 0.20969 0.5797 0.21077 0.0
O151 O 0.21893 0.52585 0.19377 0.0
O152 O 0.26491 0.51306 0.20403 0.0
C153 C 0.32573 0.5632 0.19649 0.0
O154 O 0.24252 0.58292 0.17657 0.0
O155 O 0.25193 0.62348 0.19045 0.0
In156 In 0.56712 0.75969 0.44446 0.0
O157 O 0.56514 0.81135 0.45514 0.0
O158 O 0.56117 0.81085 0.4336 0.0
C159 C 0.58696 0.72767 0.46748 0.0
C160 C 0.61393 0.74463 0.42509 0.0
C161 C 0.50076 0.74045 0.44315 0.0
O162 O 0.59688 0.75753 0.46453 0.0
O163 O 0.56757 0.71409 0.4588 0.0
O164 O 0.52473 0.72102 0.43929 0.0
O165 O 0.51033 0.76949 0.4472 0.0
C166 C 0.56114 0.82841 0.44436 0.0
O167 O 0.58214 0.74364 0.42286 0.0
O168 O 0.62192 0.75288 0.43704 0.0
In169 In 0.7614 0.42167 0.54893 0.0
O170 O 0.74055 0.40519 0.56972 0.0
O171 O 0.76525 0.36782 0.55747 0.0
C172 C 0.72356 0.47921 0.55146 0.0
C173 C 0.82945 0.43418 0.54903 0.0
C174 C 0.74028 0.39823 0.52453 0.0
O175 O 0.71033 0.4501 0.54958 0.0
O176 O 0.75566 0.47895 0.55279 0.0
O177 O 0.74982 0.42873 0.52637 0.0
O178 O 0.74183 0.37948 0.53494 0.0
C179 C 0.75017 0.37447 0.56848 0.0
O180 O 0.81324 0.42658 0.5384 0.0
O181 O 0.81148 0.4351 0.55964 0.0
In182 In 0.42337 0.24147 0.44741 0.0
O183 O 0.42585 0.18833 0.45691 0.0
O184 O 0.43546 0.19264 0.43571 0.0
C185 C 0.4045 0.27527 0.47013 0.0
C186 C 0.37314 0.25355 0.42914 0.0
C187 C 0.48877 0.26319 0.44596 0.0
O188 O 0.39759 0.244 0.46834 0.0
O189 O 0.42005 0.28933 0.46041 0.0
O190 O 0.46496 0.27799 0.43955 0.0
O191 O 0.47953 0.23741 0.45273 0.0
C192 C 0.4338 0.17337 0.44599 0.0
O193 O 0.40428 0.25942 0.42663 0.0
O194 O 0.36743 0.24174 0.44084 0.0
In195 In 0.24062 0.58026 0.5518 0.0
O196 O 0.19113 0.56815 0.54051 0.0
O197 O 0.1938 0.55604 0.56156 0.0
C198 C 0.25519 0.6077 0.52726 0.0
C199 C 0.24643 0.62812 0.57159 0.0
C200 C 0.28187 0.52539 0.55551 0.0
O201 O 0.24498 0.62564 0.53711 0.0
O202 O 0.25718 0.57611 0.52971 0.0
O203 O 0.29299 0.55423 0.55181 0.0
O204 O 0.25032 0.52483 0.55815 0.0
C205 C 0.17624 0.55585 0.5508 0.0
O206 O 0.27189 0.61145 0.56729 0.0
O207 O 0.2185 0.62049 0.56599 0.0
C208 C 0.08746 0.29889 0.26292 0.0
C209 C 0.10574 0.27655 0.27143 0.0
C210 C 0.10333 0.31397 0.25172 0.0
C211 C 0.18774 0.34276 0.24154 0.0
H212 H 0.14215 0.36576 0.20776 0.0
C213 C 0.24689 0.44241 0.20639 0.0
C214 C 0.22408 0.46789 0.20201 0.0
C215 C 0.2346 0.41142 0.2115 0.0
C216 C 0.15524 0.35957 0.21714 0.0
H217 H 0.15435 0.25092 0.27448 0.0
H218 H 0.18227 0.27754 0.2549 0.0
H219 H 0.11609 0.32423 0.22321 0.0
H220 H 0.17069 0.48017 0.19862 0.0
H221 H 0.14905 0.42655 0.20793 0.0
H222 H 0.22583 0.37925 0.23599 0.0
C223 C 0.15569 0.28348 0.25695 0.0
C224 C 0.14036 0.33573 0.22596 0.0
C225 C 0.1397 0.26818 0.26813 0.0
C226 C 0.18885 0.46091 0.20192 0.0
C227 C 0.17648 0.43005 0.20721 0.0
C228 C 0.20247 0.36669 0.23279 0.0
C229 C 0.13789 0.30718 0.24883 0.0
C230 C 0.15604 0.32777 0.23841 0.0
C231 C 0.19919 0.40547 0.21255 0.0
C232 C 0.18599 0.37609 0.22064 0.0
H233 H 0.06119 0.30569 0.26518 0.0
H234 H 0.08902 0.33238 0.24576 0.0
H235 H 0.20022 0.3376 0.25114 0.0
H236 H 0.27425 0.447 0.20642 0.0
H237 H 0.25285 0.39272 0.21519 0.0
C238 C 0.47579 0.80037 0.79882 0.0
C239 C 0.48355 0.76528 0.79939 0.0
C240 C 0.44509 0.81146 0.79297 0.0
C241 C 0.37415 0.82856 0.78156 0.0
H242 H 0.36221 0.78211 0.74706 0.0
C243 C 0.27416 0.86935 0.74063 0.0
C244 C 0.28864 0.87377 0.72768 0.0
C245 C 0.29296 0.85359 0.751 0.0
C246 C 0.36504 0.79516 0.7567 0.0
H247 H 0.46392 0.71419 0.7957 0.0
H248 H 0.41017 0.73348 0.78575 0.0
H249 H 0.40272 0.7596 0.76353 0.0
H250 H 0.33369 0.86471 0.71533 0.0
H251 H 0.36615 0.8368 0.73331 0.0
H252 H 0.33727 0.86499 0.77432 0.0
C253 C 0.42808 0.75247 0.78947 0.0
C254 C 0.38799 0.7821 0.76622 0.0
C255 C 0.45878 0.74143 0.79522 0.0
C256 C 0.32187 0.86163 0.72521 0.0
C257 C 0.34038 0.8455 0.73548 0.0
C258 C 0.3509 0.84153 0.77204 0.0
C259 C 0.42164 0.78759 0.78766 0.0
C260 C 0.39344 0.79905 0.77863 0.0
C261 C 0.32624 0.8415 0.7485 0.0
C262 C 0.34689 0.82542 0.75937 0.0
H263 H 0.49445 0.81931 0.80196 0.0
H264 H 0.44095 0.8387 0.79169 0.0
H265 H 0.37768 0.84206 0.79106 0.0
H266 H 0.24861 0.87862 0.74281 0.0
H267 H 0.28148 0.85071 0.76095 0.0
C268 C 0.82398 0.5338 0.1929 0.0
C269 C 0.78817 0.53175 0.19383 0.0
C270 C 0.84126 0.56231 0.19807 0.0
C271 C 0.83076 0.6493 0.21299 0.0
H272 H 0.89574 0.61538 0.23951 0.0
C273 C 0.86502 0.72298 0.262 0.0
C274 C 0.8973 0.7177 0.26788 0.0
C275 C 0.85566 0.70523 0.25023 0.0
C276 C 0.87839 0.62571 0.23198 0.0
H277 H 0.74214 0.55933 0.19946 0.0
H278 H 0.77223 0.60897 0.20846 0.0
H279 H 0.87316 0.57684 0.22252 0.0
H280 H 0.94603 0.69183 0.26562 0.0
H281 H 0.9304 0.66203 0.24485 0.0
H282 H 0.83549 0.69814 0.22273 0.0
C283 C 0.78705 0.58868 0.2038 0.0
C284 C 0.86541 0.60346 0.22219 0.0
C285 C 0.7698 0.56013 0.1987 0.0
C286 C 0.92073 0.6959 0.26141 0.0
C287 C 0.91167 0.67871 0.24953 0.0
C288 C 0.84406 0.67177 0.22274 0.0
C289 C 0.82299 0.58927 0.20417 0.0
C290 C 0.84085 0.61475 0.2128 0.0
C291 C 0.87867 0.68229 0.244 0.0
C292 C 0.86744 0.66 0.23257 0.0
H293 H 0.83881 0.51238 0.18913 0.0
H294 H 0.86899 0.56235 0.19804 0.0
H295 H 0.81197 0.65873 0.20582 0.0
H296 H 0.84651 0.73971 0.26681 0.0
H297 H 0.8299 0.7084 0.24638 0.0
C298 C 0.54207 0.20988 0.80363 0.0
C299 C 0.50948 0.19486 0.80469 0.0
C300 C 0.56865 0.19257 0.79706 0.0
C301 C 0.57557 0.13248 0.76917 0.0
H302 H 0.67333 0.13829 0.77554 0.0
C303 C 0.67004 0.07976 0.73006 0.0
C304 C 0.69918 0.09953 0.72723 0.0
C305 C 0.64967 0.08709 0.74131 0.0
C306 C 0.6461 0.13668 0.77359 0.0
H307 H 0.48022 0.14853 0.80115 0.0
H308 H 0.52674 0.11814 0.78986 0.0
H309 H 0.63335 0.1571 0.79319 0.0
H310 H 0.73042 0.14198 0.73408 0.0
H311 H 0.69398 0.15577 0.75354 0.0
H312 H 0.58781 0.11366 0.74945 0.0
C313 C 0.53153 0.14358 0.79382 0.0
C314 C 0.62326 0.14725 0.78372 0.0
C315 C 0.50497 0.1609 0.80036 0.0
C316 C 0.708 0.12641 0.73603 0.0
C317 C 0.68728 0.13408 0.74723 0.0
C318 C 0.59827 0.1222 0.75905 0.0
C319 C 0.56305 0.15994 0.79147 0.0
C320 C 0.58773 0.14544 0.78156 0.0
C321 C 0.6576 0.11474 0.74989 0.0
C322 C 0.63383 0.12435 0.76107 0.0
H323 H 0.54635 0.23601 0.80693 0.0
H324 H 0.59262 0.20587 0.79542 0.0
H325 H 0.54839 0.1316 0.76702 0.0
H326 H 0.66292 0.05851 0.72358 0.0
H327 H 0.62751 0.07113 0.74322 0.0
C328 C 0.21393 0.03996 0.05844 0.0
C329 C 0.19891 0.0084 0.05508 0.0
C330 C 0.19958 0.0706 0.05379 0.0
C331 C 0.18394 0.12365 0.03245 0.0
H332 H 0.08819 0.13611 0.02344 0.0
C333 C 0.1407 0.19822 0.98551 0.0
C334 C 0.10931 0.21569 0.98559 0.0
C335 C 0.15115 0.17937 0.99681 0.0
C336 C 0.11498 0.13351 0.02606 0.0
H337 H 0.15566 0.98422 0.04519 0.0
H338 H 0.13112 0.03732 0.0368 0.0
H339 H 0.10472 0.09149 0.03943 0.0
H340 H 0.06498 0.22858 0.99781 0.0
H341 H 0.0835 0.196 0.01769 0.0
H342 H 0.19424 0.16551 0.01906 0.0
C343 C 0.15365 0.03876 0.04318 0.0
C344 C 0.1245 0.1076 0.03512 0.0
C345 C 0.1678 0.00818 0.04795 0.0
C346 C 0.08928 0.21525 0.99744 0.0
C347 C 0.09978 0.19641 0.00879 0.0
C348 C 0.17441 0.14967 0.02349 0.0
C349 C 0.17014 0.07026 0.04556 0.0
C350 C 0.15922 0.10157 0.03806 0.0
C351 C 0.13051 0.17764 0.00851 0.0
C352 C 0.13995 0.15413 0.0198 0.0
H353 H 0.23778 0.04092 0.06404 0.0
H354 H 0.21249 0.09443 0.05612 0.0
H355 H 0.21096 0.11973 0.03434 0.0
H356 H 0.15667 0.198 0.97652 0.0
H357 H 0.17471 0.16486 0.99612 0.0
C358 C 0.21655 0.84902 0.01515 0.0
C359 C 0.22411 0.88384 0.01703 0.0
C360 C 0.19961 0.83805 0.00345 0.0
C361 C 0.13652 0.86916 0.97964 0.0
H362 H 0.1522 0.78188 0.96192 0.0
C363 C 0.03133 0.80925 0.9469 0.0
C364 C 0.02448 0.77502 0.95035 0.0
C365 C 0.06218 0.82458 0.95082 0.0
C366 C 0.14747 0.80636 0.96674 0.0
H367 H 0.22143 0.93431 0.0079 0.0
H368 H 0.1913 0.91513 0.98749 0.0
H369 H 0.19566 0.80528 0.97715 0.0
H370 H 0.04547 0.72926 0.95964 0.0
H371 H 0.09857 0.75592 0.96669 0.0
H372 H 0.08753 0.86937 0.97006 0.0
C373 C 0.19855 0.89637 0.99507 0.0
C374 C 0.17241 0.81976 0.97542 0.0
C375 C 0.21585 0.9073 0.00672 0.0
C376 C 0.04994 0.75575 0.95689 0.0
C377 C 0.08062 0.77104 0.96084 0.0
C378 C 0.11146 0.85563 0.97107 0.0
C379 C 0.18961 0.86174 0.99346 0.0
C380 C 0.16665 0.85073 0.98231 0.0
C381 C 0.08666 0.80596 0.95828 0.0
C382 C 0.11609 0.82345 0.96491 0.0
H383 H 0.2227 0.83036 0.02292 0.0
H384 H 0.19273 0.81126 0.00258 0.0
H385 H 0.13121 0.89293 0.9849 0.0
H386 H 0.01224 0.82466 0.94177 0.0
H387 H 0.06627 0.85137 0.94847 0.0
C388 C 0.85965 0.76985 0.9917 0.0
C389 C 0.88847 0.78264 0.98484 0.0
C390 C 0.84718 0.78653 0.00326 0.0
C391 C 0.86972 0.84907 0.02995 0.0
H392 H 0.77434 0.87568 0.02777 0.0
C393 C 0.81683 0.97078 0.05465 0.0
C394 C 0.78165 0.97336 0.05733 0.0
C395 C 0.83052 0.9404 0.04949 0.0
C396 C 0.80077 0.86782 0.02885 0.0
H397 H 0.92762 0.82203 0.98493 0.0
H398 H 0.90596 0.85099 0.00511 0.0
H399 H 0.79724 0.83509 0.01149 0.0
H400 H 0.73387 0.94529 0.05822 0.0
H401 H 0.75798 0.89175 0.04979 0.0
H402 H 0.87348 0.88235 0.04715 0.0
C403 C 0.89305 0.82808 0.0016 0.0
C404 C 0.81392 0.84459 0.01943 0.0
C405 C 0.90524 0.8117 0.98998 0.0
C406 C 0.76105 0.94408 0.05607 0.0
C407 C 0.77483 0.91351 0.05113 0.0
C408 C 0.85647 0.87204 0.03949 0.0
C409 C 0.86362 0.81597 0.00825 0.0
C410 C 0.84875 0.83586 0.01961 0.0
C411 C 0.80936 0.91183 0.0471 0.0
C412 C 0.82208 0.88262 0.03878 0.0
H413 H 0.84632 0.74741 0.98798 0.0
H414 H 0.82448 0.77664 0.00821 0.0
H415 H 0.8966 0.84237 0.03042 0.0
H416 H 0.83331 0.993 0.05549 0.0
H417 H 0.85715 0.94031 0.04645 0.0
C418 C 0.81405 0.08289 0.01545 0.0
C419 C 0.78391 0.09957 0.01953 0.0
C420 C 0.8308 0.09255 0.00356 0.0
C421 C 0.84427 0.16703 0.98214 0.0
H422 H 0.89277 0.10168 0.95955 0.0
C423 C 0.94797 0.21368 0.94579 0.0
C424 C 0.97923 0.1965 0.94766 0.0
C425 C 0.91742 0.19917 0.95043 0.0
C426 C 0.87929 0.12026 0.96572 0.0
H427 H 0.74704 0.13877 0.01416 0.0
H428 H 0.77674 0.15609 0.99332 0.0
H429 H 0.85058 0.08134 0.97598 0.0
H430 H 0.00268 0.1494 0.95467 0.0
H431 H 0.94966 0.12427 0.96289 0.0
H432 H 0.87414 0.2058 0.97248 0.0
C433 C 0.78731 0.13549 0.99938 0.0
C434 C 0.85513 0.10863 0.97512 0.0
C435 C 0.77032 0.12558 0.01128 0.0
C436 C 0.97899 0.16329 0.95312 0.0
C437 C 0.94848 0.14881 0.95779 0.0
C438 C 0.86848 0.17866 0.97277 0.0
C439 C 0.81793 0.11926 0.99548 0.0
C440 C 0.83829 0.13181 0.98377 0.0
C441 C 0.91758 0.16724 0.95704 0.0
C442 C 0.88716 0.15532 0.96479 0.0
H443 H 0.82506 0.06263 0.02157 0.0
H444 H 0.85461 0.07991 0.00097 0.0
H445 H 0.83197 0.18552 0.98873 0.0
H446 H 0.94733 0.23923 0.94151 0.0
H447 H 0.89394 0.21371 0.94946 0.0
C448 C 0.61336 0.81964 0.76604 0.0
C449 C 0.61836 0.78419 0.76729 0.0
C450 C 0.62381 0.83689 0.75436 0.0
C451 C 0.63336 0.86614 0.72641 0.0
H452 H 0.72444 0.84761 0.71265 0.0
C453 C 0.69597 0.96127 0.69022 0.0
C454 C 0.72869 0.97125 0.6946 0.0
C455 C 0.68135 0.93084 0.69499 0.0
C456 C 0.69886 0.853 0.71631 0.0
H457 H 0.63775 0.73881 0.75721 0.0
H458 H 0.65596 0.76906 0.73665 0.0
H459 H 0.69964 0.80995 0.72976 0.0
H460 H 0.77305 0.95574 0.70631 0.0
H461 H 0.74755 0.90345 0.71483 0.0
H462 H 0.63344 0.91056 0.71381 0.0
C463 C 0.64419 0.78352 0.74479 0.0
C464 C 0.6845 0.83119 0.72603 0.0
C465 C 0.63373 0.76621 0.75653 0.0
C466 C 0.74766 0.94885 0.70283 0.0
C467 C 0.73306 0.91861 0.70764 0.0
C468 C 0.64779 0.88805 0.71679 0.0
C469 C 0.63939 0.81911 0.74359 0.0
C470 C 0.65212 0.83832 0.73158 0.0
C471 C 0.69915 0.90996 0.70427 0.0
C472 C 0.68125 0.88252 0.712 0.0
H473 H 0.60165 0.83422 0.77416 0.0
H474 H 0.62039 0.8644 0.75393 0.0
H475 H 0.60802 0.87189 0.73024 0.0
H476 H 0.68085 0.97794 0.68379 0.0
H477 H 0.65544 0.92458 0.69197 0.0
C478 C 0.94022 0.28342 0.30689 0.0
C479 C 0.97174 0.30069 0.30689 0.0
C480 C 0.91117 0.29878 0.30129 0.0
C481 C 0.87826 0.38002 0.28567 0.0
H482 H 0.83255 0.3168 0.26131 0.0
C483 C 0.81829 0.41981 0.23486 0.0
C484 C 0.78735 0.40463 0.2308 0.0
C485 C 0.83446 0.40943 0.24681 0.0
C486 C 0.84452 0.33472 0.26823 0.0
H487 H 0.99707 0.34853 0.30203 0.0
H488 H 0.94691 0.37496 0.29191 0.0
H489 H 0.87191 0.29487 0.27827 0.0
H490 H 0.74859 0.3673 0.23618 0.0
H491 H 0.77734 0.34861 0.25702 0.0
H492 H 0.85218 0.42001 0.27492 0.0
C493 C 0.94416 0.34982 0.29642 0.0
C494 C 0.86706 0.32216 0.27803 0.0
C495 C 0.97308 0.33461 0.3022 0.0
C496 C 0.77249 0.37933 0.23905 0.0
C497 C 0.78892 0.36864 0.25095 0.0
C498 C 0.85593 0.3926 0.27576 0.0
C499 C 0.9132 0.33153 0.29537 0.0
C500 C 0.88497 0.3447 0.28665 0.0
C501 C 0.82021 0.38343 0.25488 0.0
C502 C 0.83956 0.37011 0.26671 0.0
H503 H 0.9384 0.25733 0.31058 0.0
H504 H 0.88754 0.2843 0.301 0.0
H505 H 0.89105 0.39808 0.29229 0.0
H506 H 0.83026 0.43949 0.22873 0.0
H507 H 0.85878 0.42096 0.24946 0.0
C508 C 0.30393 0.03935 0.69874 0.0
C509 C 0.27395 0.0263 0.70467 0.0
C510 C 0.31714 0.07098 0.70299 0.0
C511 C 0.29562 0.14947 0.7227 0.0
H512 H 0.38973 0.14429 0.73496 0.0
C513 C 0.34585 0.22171 0.76913 0.0
C514 C 0.38032 0.23173 0.76965 0.0
C515 C 0.3331 0.20453 0.75777 0.0
C516 C 0.36368 0.14667 0.73133 0.0
H517 H 0.2332 0.03676 0.71904 0.0
H518 H 0.25599 0.0915 0.72637 0.0
H519 H 0.3668 0.09918 0.72057 0.0
H520 H 0.42791 0.23379 0.75833 0.0
H521 H 0.40554 0.20398 0.73844 0.0
H522 H 0.29205 0.19616 0.73402 0.0
C523 C 0.26939 0.07767 0.71846 0.0
C524 C 0.35054 0.12076 0.72306 0.0
C525 C 0.2565 0.04608 0.71435 0.0
C526 C 0.40126 0.22616 0.75825 0.0
C527 C 0.38851 0.20895 0.74689 0.0
C528 C 0.30876 0.1754 0.73097 0.0
C529 C 0.30022 0.09017 0.71306 0.0
C530 C 0.316 0.1212 0.71911 0.0
C531 C 0.35457 0.19702 0.74669 0.0
C532 C 0.34256 0.17359 0.7358 0.0
H533 H 0.31783 0.02459 0.69124 0.0
H534 H 0.34091 0.08008 0.69863 0.0
H535 H 0.26904 0.15076 0.71962 0.0
H536 H 0.32912 0.22568 0.77776 0.0
H537 H 0.30693 0.1954 0.75803 0.0
C538 C 0.02876 0.68699 0.30871 0.0
C539 C 0.02309 0.72149 0.30536 0.0
C540 C 0.05815 0.67015 0.30408 0.0
C541 C 0.10034 0.63644 0.28225 0.0
H542 H 0.18496 0.68182 0.27227 0.0
C543 C 0.17136 0.60248 0.23359 0.0
C544 C 0.20724 0.60369 0.23314 0.0
C545 C 0.15375 0.61322 0.24513 0.0
C546 C 0.1618 0.66842 0.27515 0.0
H547 H 0.04515 0.76628 0.29572 0.0
H548 H 0.09556 0.73699 0.28738 0.0
H549 H 0.14788 0.70743 0.28939 0.0
H550 H 0.25294 0.61678 0.24449 0.0
H551 H 0.22203 0.63544 0.26483 0.0
H552 H 0.11412 0.59755 0.268 0.0
C553 C 0.07785 0.72275 0.29367 0.0
C554 C 0.14033 0.6833 0.28487 0.0
C555 C 0.0487 0.7396 0.29839 0.0
C556 C 0.22524 0.6157 0.24454 0.0
C557 C 0.20755 0.62643 0.25616 0.0
C558 C 0.12191 0.62146 0.27265 0.0
C559 C 0.08222 0.68743 0.29593 0.0
C560 C 0.10863 0.66821 0.28812 0.0
C561 C 0.17156 0.62528 0.25658 0.0
C562 C 0.15215 0.638 0.26855 0.0
H563 H 0.0096 0.67247 0.31419 0.0
H564 H 0.0611 0.64314 0.3063 0.0
H565 H 0.07613 0.62404 0.28437 0.0
H566 H 0.15675 0.59346 0.22495 0.0
H567 H 0.12604 0.61273 0.24495 0.0
C568 C 0.7206 0.54314 0.55107 0.0
C569 C 0.70413 0.51135 0.54967 0.0
C570 C 0.70491 0.57309 0.54641 0.0
C571 C 0.62369 0.60828 0.53182 0.0
H572 H 0.68614 0.65968 0.50897 0.0
C573 C 0.582 0.67819 0.48337 0.0
C574 C 0.5974 0.70954 0.47998 0.0
C575 C 0.59272 0.65994 0.49478 0.0
C576 C 0.66841 0.64614 0.5155 0.0
H577 H 0.65726 0.4863 0.54336 0.0
H578 H 0.63019 0.53821 0.535 0.0
H579 H 0.70865 0.61715 0.52459 0.0
H580 H 0.63543 0.74693 0.48606 0.0
H581 H 0.65457 0.71468 0.50601 0.0
H582 H 0.58333 0.6362 0.52209 0.0
C583 C 0.65501 0.54032 0.53981 0.0
C584 C 0.68131 0.62174 0.52452 0.0
C585 C 0.6706 0.51043 0.54456 0.0
C586 C 0.6232 0.72275 0.48842 0.0
C587 C 0.63417 0.7043 0.4998 0.0
C588 C 0.61077 0.63256 0.52273 0.0
C589 C 0.67255 0.5718 0.54016 0.0
C590 C 0.65906 0.60177 0.5325 0.0
C591 C 0.61926 0.67252 0.50302 0.0
C592 C 0.63296 0.65101 0.51419 0.0
H593 H 0.74637 0.54466 0.55509 0.0
H594 H 0.71882 0.59702 0.54712 0.0
H595 H 0.60587 0.59382 0.538 0.0
H596 H 0.56195 0.66743 0.47708 0.0
H597 H 0.58105 0.63532 0.49687 0.0
C598 C 0.71778 0.40939 0.50116 0.0
C599 C 0.72595 0.38607 0.51154 0.0
C600 C 0.70036 0.39837 0.48956 0.0
C601 C 0.67338 0.32118 0.47034 0.0
H602 H 0.5893 0.37184 0.46452 0.0
C603 C 0.54894 0.25817 0.45394 0.0
C604 C 0.52383 0.277 0.447 0.0
C605 C 0.58018 0.27317 0.4573 0.0
C606 C 0.61303 0.3578 0.46566 0.0
H607 H 0.72419 0.33272 0.51759 0.0
H608 H 0.6939 0.31347 0.49737 0.0
H609 H 0.63347 0.39566 0.47908 0.0
H610 H 0.51265 0.32537 0.43715 0.0
H611 H 0.56761 0.35169 0.44295 0.0
H612 H 0.65228 0.28263 0.45736 0.0
C613 C 0.701 0.34022 0.49814 0.0
C614 C 0.63837 0.37147 0.47406 0.0
C615 C 0.7181 0.35128 0.50978 0.0
C616 C 0.53152 0.31032 0.44258 0.0
C617 C 0.56288 0.32543 0.44596 0.0
C618 C 0.64812 0.30759 0.46186 0.0
C619 C 0.69118 0.36377 0.48806 0.0
C620 C 0.66815 0.35265 0.47694 0.0
C621 C 0.58707 0.30739 0.45379 0.0
C622 C 0.61701 0.32507 0.45991 0.0
H623 H 0.72361 0.43638 0.50225 0.0
H624 H 0.69328 0.41703 0.48192 0.0
H625 H 0.69637 0.3064 0.4722 0.0
H626 H 0.5438 0.23235 0.45742 0.0
H627 H 0.59793 0.25857 0.46345 0.0
C628 C 0.33422 0.49481 0.54759 0.0
C629 C 0.30214 0.49368 0.55399 0.0
C630 C 0.34951 0.46476 0.54286 0.0
C631 C 0.32159 0.38118 0.53013 0.0
H632 H 0.41861 0.36998 0.52318 0.0
C633 C 0.37364 0.28005 0.49241 0.0
C634 C 0.39581 0.29412 0.48266 0.0
C635 C 0.36492 0.29876 0.50404 0.0
C636 C 0.39145 0.37266 0.52511 0.0
H637 H 0.26264 0.46001 0.5618 0.0
H638 H 0.28978 0.4074 0.55387 0.0
H639 H 0.39944 0.41255 0.53968 0.0
H640 H 0.42705 0.33824 0.47759 0.0
H641 H 0.41197 0.3707 0.49781 0.0
H642 H 0.31361 0.34201 0.51526 0.0
C643 C 0.30267 0.43157 0.55212 0.0
C644 C 0.38045 0.39706 0.53453 0.0
C645 C 0.28725 0.46168 0.55677 0.0
C646 C 0.40977 0.32678 0.4849 0.0
C647 C 0.40141 0.34524 0.49655 0.0
C648 C 0.33261 0.35661 0.52079 0.0
C649 C 0.33314 0.43291 0.54453 0.0
C650 C 0.34531 0.40251 0.53678 0.0
C651 C 0.37865 0.33162 0.50618 0.0
C652 C 0.36757 0.35298 0.51783 0.0
H653 H 0.34635 0.51909 0.54531 0.0
H654 H 0.37286 0.46694 0.53699 0.0
H655 H 0.29432 0.38487 0.53143 0.0
H656 H 0.3626 0.25487 0.49094 0.0
H657 H 0.34734 0.28765 0.51131 0.0
C658 C 0.45737 0.69369 0.44544 0.0
C659 C 0.46514 0.72878 0.44498 0.0
C660 C 0.42564 0.68265 0.45039 0.0
C661 C 0.3634 0.71243 0.47519 0.0
H662 H 0.31475 0.62921 0.46583 0.0
C663 C 0.26392 0.65785 0.5118 0.0
C664 C 0.26727 0.62264 0.51435 0.0
C665 C 0.27966 0.67262 0.50048 0.0
C666 C 0.32808 0.65252 0.46858 0.0
H667 H 0.44477 0.7799 0.4479 0.0
H668 H 0.38929 0.76069 0.45625 0.0
H669 H 0.3582 0.65186 0.45035 0.0
H670 H 0.28794 0.57491 0.50664 0.0
H671 H 0.31623 0.60066 0.48719 0.0
H672 H 0.33506 0.71236 0.49367 0.0
C673 C 0.40789 0.74166 0.45315 0.0
C674 C 0.35288 0.6655 0.45969 0.0
C675 C 0.43961 0.75266 0.44831 0.0
C676 C 0.28496 0.60217 0.50496 0.0
C677 C 0.30099 0.61695 0.49372 0.0
C678 C 0.33887 0.6994 0.48407 0.0
C679 C 0.40118 0.70657 0.45487 0.0
C680 C 0.37133 0.69521 0.46306 0.0
C681 C 0.29942 0.65252 0.49156 0.0
C682 C 0.32145 0.66884 0.48105 0.0
H683 H 0.47661 0.67473 0.44294 0.0
H684 H 0.42134 0.65542 0.45162 0.0
H685 H 0.37756 0.735 0.47824 0.0
H686 H 0.25011 0.67419 0.5188 0.0
H687 H 0.27729 0.69999 0.49896 0.0
C688 C 0.35314 0.27171 0.40608 0.0
C689 C 0.34557 0.25922 0.41912 0.0
C690 C 0.32714 0.27584 0.39647 0.0
C691 C 0.2331 0.28315 0.39263 0.0
H692 H 0.25105 0.2508 0.35611 0.0
C693 C 0.12613 0.26156 0.35278 0.0
C694 C 0.13387 0.26835 0.33911 0.0
C695 C 0.15159 0.26391 0.36273 0.0
C696 C 0.24571 0.2605 0.36619 0.0
H697 H 0.30483 0.24178 0.43238 0.0
H698 H 0.25952 0.24871 0.41557 0.0
H699 H 0.29627 0.24862 0.37304 0.0
H700 H 0.17379 0.28452 0.32523 0.0
H701 H 0.21791 0.28944 0.34258 0.0
H702 H 0.18239 0.29481 0.38576 0.0
C703 C 0.28545 0.25567 0.41281 0.0
C704 C 0.27168 0.2592 0.37591 0.0
C705 C 0.31144 0.2515 0.42242 0.0
C706 C 0.16714 0.27883 0.33567 0.0
C707 C 0.19249 0.28142 0.34561 0.0
C708 C 0.20709 0.28456 0.38288 0.0
C709 C 0.29303 0.26761 0.39969 0.0
C710 C 0.26565 0.27033 0.38926 0.0
C711 C 0.18524 0.2733 0.35922 0.0
C712 C 0.21305 0.2731 0.36955 0.0
H713 H 0.37919 0.27802 0.40327 0.0
H714 H 0.33376 0.28551 0.3865 0.0
H715 H 0.22777 0.29231 0.40279 0.0
H716 H 0.10072 0.25331 0.35572 0.0
H717 H 0.14517 0.25717 0.37309 0.0
C718 C 0.2804 0.66941 0.58572 0.0
C719 C 0.24877 0.65498 0.5821 0.0
C720 C 0.28193 0.69608 0.59522 0.0
C721 C 0.22614 0.76125 0.61193 0.0
H722 H 0.30051 0.7673 0.6379 0.0
C723 C 0.2183 0.83874 0.66145 0.0
C724 C 0.24537 0.86136 0.6642 0.0
C725 C 0.2205 0.81564 0.65068 0.0
C726 C 0.27981 0.76607 0.63059 0.0
H727 H 0.19413 0.65623 0.58584 0.0
H728 H 0.19679 0.70145 0.60271 0.0
H729 H 0.301 0.72205 0.62073 0.0
H730 H 0.29609 0.87744 0.65796 0.0
H731 H 0.30031 0.83608 0.63924 0.0
H732 H 0.20431 0.80435 0.62222 0.0
C733 C 0.22039 0.69331 0.59794 0.0
C734 C 0.28008 0.74024 0.62073 0.0
C735 C 0.21885 0.6671 0.58834 0.0
C736 C 0.27481 0.86035 0.65601 0.0
C737 C 0.27729 0.83667 0.64537 0.0
C738 C 0.22564 0.78663 0.6219 0.0
C739 C 0.25186 0.70854 0.60139 0.0
C740 C 0.25296 0.73719 0.61139 0.0
C741 C 0.25007 0.81423 0.6426 0.0
C742 C 0.25223 0.78903 0.63141 0.0
H743 H 0.30386 0.66062 0.58101 0.0
H744 H 0.30658 0.70734 0.59751 0.0
H745 H 0.20531 0.76042 0.60469 0.0
H746 H 0.19529 0.83899 0.66759 0.0
H747 H 0.19928 0.79841 0.64881 0.0
C748 C 0.63018 0.73241 0.40095 0.0
C749 C 0.63991 0.73813 0.41449 0.0
C750 C 0.65501 0.72836 0.39084 0.0
C751 C 0.74684 0.70903 0.38529 0.0
H752 H 0.73428 0.76094 0.3521 0.0
C753 C 0.85705 0.73598 0.34755 0.0
C754 C 0.84928 0.73703 0.33364 0.0
C755 C 0.83098 0.73211 0.35717 0.0
C756 C 0.73799 0.74579 0.3612 0.0
H757 H 0.6832 0.74322 0.42812 0.0
H758 H 0.72644 0.7363 0.4105 0.0
H759 H 0.68946 0.76097 0.36926 0.0
H760 H 0.80835 0.73349 0.31884 0.0
H761 H 0.76299 0.72609 0.33557 0.0
H762 H 0.79557 0.69413 0.37727 0.0
C763 C 0.69969 0.73467 0.40769 0.0
C764 C 0.71226 0.74584 0.37104 0.0
C765 C 0.6749 0.73885 0.41777 0.0
C766 C 0.8151 0.73302 0.32951 0.0
C767 C 0.78908 0.729 0.3391 0.0
C768 C 0.77256 0.70889 0.37541 0.0
C769 C 0.69005 0.72978 0.39408 0.0
C770 C 0.71652 0.72776 0.38326 0.0
C771 C 0.7966 0.72907 0.35307 0.0
C772 C 0.76859 0.72755 0.3633 0.0
H773 H 0.60339 0.73163 0.39812 0.0
H774 H 0.64677 0.72425 0.38046 0.0
H775 H 0.75069 0.69448 0.39453 0.0
H776 H 0.88316 0.7391 0.35104 0.0
H777 H 0.83768 0.73266 0.36784 0.0
C778 C 0.7396 0.13497 0.64895 0.0
C779 C 0.73848 0.145 0.66264 0.0
C780 C 0.73756 0.15945 0.63863 0.0
C781 C 0.71082 0.24772 0.63083 0.0
H782 H 0.7804 0.24221 0.60285 0.0
C783 C 0.73506 0.35738 0.59229 0.0
C784 C 0.74494 0.34821 0.57907 0.0
C785 C 0.73195 0.33237 0.6024 0.0
C786 C 0.76039 0.24389 0.61043 0.0
H787 H 0.73312 0.18829 0.67626 0.0
H788 H 0.72924 0.23103 0.6582 0.0
H789 H 0.77803 0.19857 0.62044 0.0
H790 H 0.75805 0.30567 0.56592 0.0
H791 H 0.75162 0.26206 0.58336 0.0
H792 H 0.69294 0.2929 0.62075 0.0
C793 C 0.73172 0.20427 0.65547 0.0
C794 C 0.75912 0.21887 0.62053 0.0
C795 C 0.73411 0.17983 0.6658 0.0
C796 C 0.75074 0.31355 0.57606 0.0
C797 C 0.74727 0.28857 0.5861 0.0
C798 C 0.71186 0.27263 0.62062 0.0
C799 C 0.73402 0.19438 0.64178 0.0
C800 C 0.7344 0.22054 0.63086 0.0
C801 C 0.73835 0.29766 0.59946 0.0
C802 C 0.73672 0.27106 0.61029 0.0
H803 H 0.74291 0.10831 0.64621 0.0
H804 H 0.73903 0.15108 0.62816 0.0
H805 H 0.69134 0.24949 0.63863 0.0
H806 H 0.73051 0.38395 0.59489 0.0
H807 H 0.72541 0.34041 0.6126 0.0
C808 C 0.1644 0.27589 0.91615 0.0
C809 C 0.1439 0.24713 0.91877 0.0
C810 C 0.19048 0.27438 0.9065 0.0
C811 C 0.22266 0.2231 0.8773 0.0
H812 H 0.30486 0.27644 0.88374 0.0
C813 C 0.34453 0.21793 0.84325 0.0
C814 C 0.35516 0.2502 0.83853 0.0
C815 C 0.31948 0.21539 0.85336 0.0
C816 C 0.28203 0.26144 0.88183 0.0
H817 H 0.13448 0.1942 0.91337 0.0
H818 H 0.18092 0.19105 0.89678 0.0
H819 H 0.25985 0.27537 0.90084 0.0
H820 H 0.34856 0.30503 0.84083 0.0
H821 H 0.30556 0.30055 0.85876 0.0
H822 H 0.24565 0.20871 0.85835 0.0
C823 C 0.17636 0.21511 0.90194 0.0
C824 C 0.25607 0.26099 0.89156 0.0
C825 C 0.14984 0.21681 0.91149 0.0
C826 C 0.34081 0.27983 0.84427 0.0
C827 C 0.31634 0.27729 0.85455 0.0
C828 C 0.24896 0.22312 0.86765 0.0
C829 C 0.19717 0.24387 0.89937 0.0
C830 C 0.22571 0.24236 0.88933 0.0
C831 C 0.30526 0.24508 0.85911 0.0
C832 C 0.27859 0.24276 0.86974 0.0
H833 H 0.16018 0.29973 0.92152 0.0
H834 H 0.20523 0.29735 0.90457 0.0
H835 H 0.19958 0.20877 0.87513 0.0
H836 H 0.3551 0.19469 0.83895 0.0
H837 H 0.3114 0.19027 0.85677 0.0
C838 C 0.23836 0.62995 0.15392 0.0
C839 C 0.23873 0.64021 0.16759 0.0
C840 C 0.23592 0.65432 0.14356 0.0
C841 C 0.20926 0.74238 0.13585 0.0
H842 H 0.27811 0.73761 0.10757 0.0
C843 C 0.23135 0.85306 0.09764 0.0
C844 C 0.24187 0.84457 0.08444 0.0
C845 C 0.22858 0.82766 0.10762 0.0
C846 C 0.25824 0.73908 0.11521 0.0
H847 H 0.23563 0.68381 0.18117 0.0
H848 H 0.2308 0.72634 0.16305 0.0
H849 H 0.27634 0.69366 0.12506 0.0
H850 H 0.25639 0.80281 0.07114 0.0
H851 H 0.2503 0.75846 0.08829 0.0
H852 H 0.19074 0.7875 0.12593 0.0
C853 C 0.23255 0.69949 0.16036 0.0
C854 C 0.25736 0.71388 0.12527 0.0
C855 C 0.23548 0.67518 0.17072 0.0
C856 C 0.2486 0.81016 0.08128 0.0
C857 C 0.24533 0.78475 0.09117 0.0
C858 C 0.20981 0.76739 0.12567 0.0
C859 C 0.2333 0.68935 0.14669 0.0
C860 C 0.23301 0.71538 0.13573 0.0
C861 C 0.23583 0.79317 0.10454 0.0
C862 C 0.23446 0.76618 0.11525 0.0
H863 H 0.24084 0.60317 0.15122 0.0
H864 H 0.2363 0.64581 0.1331 0.0
H865 H 0.19005 0.74397 0.14376 0.0
H866 H 0.22612 0.87943 0.10035 0.0
H867 H 0.22162 0.83526 0.11782 0.0
C868 C 0.8667 0.75973 0.90464 0.0
C869 C 0.85549 0.75656 0.91813 0.0
C870 C 0.84303 0.76293 0.89407 0.0
C871 C 0.75282 0.78457 0.88644 0.0
H872 H 0.76704 0.72674 0.85495 0.0
C873 C 0.64704 0.75853 0.84658 0.0
C874 C 0.65704 0.75514 0.83295 0.0
C875 C 0.67165 0.76194 0.85681 0.0
C876 C 0.7629 0.7435 0.86355 0.0
H877 H 0.81081 0.75522 0.93119 0.0
H878 H 0.76951 0.76074 0.91275 0.0
H879 H 0.80952 0.72747 0.873 0.0
H880 H 0.7005 0.75394 0.81927 0.0
H881 H 0.74334 0.76061 0.83702 0.0
H882 H 0.70606 0.80046 0.87701 0.0
C883 C 0.79656 0.76096 0.91033 0.0
C884 C 0.78729 0.74388 0.87391 0.0
C885 C 0.82022 0.7576 0.92089 0.0
C886 C 0.69202 0.75623 0.8297 0.0
C887 C 0.71659 0.75983 0.83989 0.0
C888 C 0.72846 0.7843 0.87604 0.0
C889 C 0.80768 0.76319 0.89679 0.0
C890 C 0.78244 0.76424 0.88552 0.0
C891 C 0.70677 0.7622 0.8536 0.0
C892 C 0.73311 0.7636 0.8645 0.0
H893 H 0.89374 0.75911 0.90222 0.0
H894 H 0.85239 0.76502 0.88375 0.0
H895 H 0.74856 0.80081 0.89519 0.0
H896 H 0.62024 0.7577 0.84938 0.0
H897 H 0.66318 0.76334 0.86726 0.0
C898 C 0.75693 0.18086 0.08195 0.0
C899 C 0.75684 0.14608 0.08562 0.0
C900 C 0.76006 0.2063 0.09184 0.0
C901 C 0.74432 0.22158 0.12804 0.0
H902 H 0.80043 0.30233 0.1225 0.0
C903 C 0.75898 0.32399 0.16968 0.0
C904 C 0.75817 0.35841 0.16555 0.0
C905 C 0.76162 0.29776 0.16009 0.0
C906 C 0.78438 0.2801 0.12414 0.0
H907 H 0.76062 0.11062 0.1025 0.0
H908 H 0.76605 0.15511 0.11981 0.0
H909 H 0.80016 0.25697 0.10543 0.0
H910 H 0.76 0.39246 0.14818 0.0
H911 H 0.76396 0.34664 0.13139 0.0
H912 H 0.72791 0.24483 0.14657 0.0
C913 C 0.76346 0.16268 0.10928 0.0
C914 C 0.78429 0.2541 0.11438 0.0
C915 C 0.76054 0.13722 0.09937 0.0
C916 C 0.76066 0.36614 0.15166 0.0
C917 C 0.76312 0.33987 0.14205 0.0
C918 C 0.74426 0.24762 0.13776 0.0
C919 C 0.76295 0.19751 0.10564 0.0
C920 C 0.76416 0.22461 0.1162 0.0
C921 C 0.7633 0.30533 0.14615 0.0
C922 C 0.7642 0.27727 0.13592 0.0
H923 H 0.75411 0.18846 0.07143 0.0
H924 H 0.75924 0.2329 0.08873 0.0
H925 H 0.72811 0.19944 0.12964 0.0
H926 H 0.75733 0.31725 0.18033 0.0
H927 H 0.76233 0.2715 0.16363 0.0
C928 C 0.94416 0.88558 0.29423 0.0
C929 C 0.93951 0.86712 0.30633 0.0
C930 C 0.95464 0.91977 0.2946 0.0
C931 C -0.00026 0.98093 0.31673 0.0
H932 H 0.96463 0.04854 0.29147 0.0
C933 C 0.03311 0.1248 0.32037 0.0
C934 C 0.03923 0.14224 0.30814 0.0
C935 C 0.02106 0.09112 0.32025 0.0
C936 C 0.97495 0.02984 0.29849 0.0
H937 H 0.94089 0.8702 0.3283 0.0
H938 H 0.95863 0.9301 0.32896 0.0
H939 H 0.94149 0.99053 0.29121 0.0
H940 H 0.03835 0.13796 0.28619 0.0
H941 H 0.01769 0.07899 0.28597 0.0
H942 H 0.03322 0.02024 0.324 0.0
C943 C 0.95484 0.91798 0.31918 0.0
C944 C 0.96165 0.99664 0.29836 0.0
C945 C 0.94444 0.88377 0.31881 0.0
C946 C 0.03376 0.12517 0.29578 0.0
C947 C 0.02169 0.0915 0.29565 0.0
C948 C 0.01299 0.01414 0.31688 0.0
C949 C 0.9606 0.9362 0.30708 0.0
C950 C 0.97395 0.97179 0.30745 0.0
C951 C 0.01487 0.07423 0.30788 0.0
C952 C 0.00082 0.03893 0.30774 0.0
H953 H 0.94066 0.87335 0.28446 0.0
H954 H 0.95916 0.93296 0.28509 0.0
H955 H 0.0102 0.96223 0.32371 0.0
H956 H 0.037 0.13738 0.33005 0.0
H957 H 0.01575 0.07861 0.32984 0.0
C958 C 0.87953 0.05705 0.70719 0.0
C959 C 0.86363 0.06435 0.69473 0.0
C960 C 0.91364 0.04639 0.70756 0.0
C961 C 0.99419 0.04464 0.68846 0.0
H962 H 0.01087 0.95996 0.70797 0.0
C963 C 0.12196 0.97206 0.6835 0.0
C964 C 0.13527 0.95655 0.69522 0.0
C965 C 0.08884 0.98551 0.68348 0.0
C966 C 0.00687 0.98389 0.70265 0.0
H967 H 0.87127 0.06796 0.67298 0.0
H968 H 0.93115 0.04989 0.67365 0.0
H969 H 0.95402 0.98554 0.70836 0.0
H970 H 0.12445 0.94276 0.7161 0.0
H971 H 0.06706 0.96702 0.71623 0.0
H972 H 0.04707 0.04345 0.68291 0.0
C973 C 0.91715 0.05222 0.6831 0.0
C974 C 0.97426 0.99849 0.70286 0.0
C975 C 0.88291 0.06246 0.68272 0.0
C976 C 0.11473 0.95433 0.70688 0.0
C977 C 0.08176 0.96815 0.70692 0.0
C978 C 0.02695 0.03027 0.68838 0.0
C979 C 0.93256 0.0433 0.69549 0.0
C980 C 0.96758 0.0289 0.69572 0.0
C981 C 0.06846 0.98412 0.69525 0.0
C982 C 0.03366 -0.00041 0.69541 0.0
H983 H 0.86525 0.05826 0.71661 0.0
H984 H 0.92508 0.03999 0.71725 0.0
H985 H 0.98972 0.06824 0.68295 0.0
H986 H 0.13722 0.97397 0.67434 0.0
H987 H 0.07922 0.99697 0.67422 0.0
C988 C 0.02892 0.37152 0.9379 0.0
C989 C 0.03914 0.35529 0.94996 0.0
C990 C 0.01648 0.40502 0.93815 0.0
C991 C 0.01428 0.48341 0.95924 0.0
H992 H 0.93808 0.50725 0.93581 0.0
C993 C 0.94639 0.61423 0.96243 0.0
C994 C 0.94102 0.63102 0.95 0.0
C995 C 0.95659 0.57995 0.9627 0.0
C996 C 0.95949 0.50099 0.94235 0.0
H997 H 0.04456 0.36134 0.97173 0.0
H998 H 0.02225 0.41972 0.97222 0.0
H999 H 0.96 0.44876 0.93584 0.0
H1000 H 0.94111 0.62495 0.92812 0.0
H1001 H 0.95876 0.56495 0.92859 0.0
H1002 H 0.01356 0.53568 0.96579 0.0
C1003 C 0.02435 0.40679 0.96253 0.0
C1004 C 0.97214 0.46754 0.94234 0.0
C1005 C 0.037 0.3733 0.96227 0.0
C1006 C 0.94504 0.61263 0.93785 0.0
C1007 C 0.95502 0.57827 0.93812 0.0
C1008 C 0.00148 0.51681 0.9593 0.0
C1009 C 0.01377 0.42298 0.95047 0.0
C1010 C -0.00016 0.45839 0.95072 0.0
C1011 C 0.96138 0.56174 0.95055 0.0
C1012 C 0.97409 0.52598 0.9508 0.0
H1013 H 0.03045 0.35831 0.92825 0.0
H1014 H 0.00919 0.41692 0.92864 0.0
H1015 H 0.03595 0.4774 0.96567 0.0
H1016 H 0.94346 0.62776 0.97196 0.0
H1017 H 0.96091 0.56773 0.97243 0.0
C1018 C 0.37644 0.95617 0.06765 0.0
C1019 C 0.36098 0.94565 0.05547 0.0
C1020 C 0.41003 0.96841 0.06769 0.0
C1021 C 0.4742 0.00791 0.04535 0.0
H1022 H 0.53804 0.98141 0.0736 0.0
C1023 C 0.61804 0.04184 0.0434 0.0
C1024 C 0.63425 0.05033 0.05567 0.0
C1025 C 0.58424 0.03016 0.04335 0.0
C1026 C 0.52039 0.98945 0.06575 0.0
H1027 H 0.36866 0.93905 0.03383 0.0
H1028 H 0.42746 0.96028 0.0339 0.0
H1029 H 0.48036 0.9576 0.07356 0.0
H1030 H 0.62757 0.05436 0.07746 0.0
H1031 H 0.56835 0.03458 0.07737 0.0
H1032 H 0.51412 0.0399 0.03757 0.0
C1033 C 0.41347 0.95941 0.04339 0.0
C1034 C 0.48738 0.97571 0.06571 0.0
C1035 C 0.37992 0.94704 0.04336 0.0
C1036 C 0.61576 0.04785 0.06785 0.0
C1037 C 0.58193 0.03628 0.06781 0.0
C1038 C 0.50717 0.02174 0.04542 0.0
C1039 C 0.42878 0.97048 0.05553 0.0
C1040 C 0.46395 0.98477 0.0555 0.0
C1041 C 0.56594 0.02683 0.05558 0.0
C1042 C 0.53066 0.01266 0.05561 0.0
H1043 H 0.36241 0.95545 0.07714 0.0
H1044 H 0.42102 0.97705 0.07718 0.0
H1045 H 0.45652 0.01579 0.03748 0.0
H1046 H 0.63172 0.04337 0.03385 0.0
H1047 H 0.57282 0.02277 0.03377 0.0
C1048 C 0.4651 0.37677 0.79399 0.0
C1049 C 0.46315 0.35862 0.80627 0.0
C1050 C 0.4801 0.4092 0.79357 0.0
C1051 C 0.53765 0.46686 0.81304 0.0
H1052 H 0.49881 0.53635 0.7895 0.0
C1053 C 0.5696 0.61166 0.81606 0.0
C1054 C 0.57436 0.62886 0.80368 0.0
C1055 C 0.55924 0.57741 0.81622 0.0
C1056 C 0.51016 0.51707 0.796 0.0
H1057 H 0.47483 0.36022 0.82777 0.0
H1058 H 0.5 0.41736 0.82715 0.0
H1059 H 0.47295 0.47967 0.79031 0.0
H1060 H 0.5733 0.6235 0.78176 0.0
H1061 H 0.55489 0.56372 0.78206 0.0
H1062 H 0.57423 0.50495 0.819 0.0
C1063 C 0.4908 0.40625 0.81776 0.0
C1064 C 0.4954 0.48455 0.79646 0.0
C1065 C 0.47612 0.37363 0.81815 0.0
C1066 C 0.5698 0.61088 0.79146 0.0
C1067 C 0.55908 0.57677 0.79162 0.0
C1068 C 0.55217 0.49957 0.81269 0.0
C1069 C 0.49313 0.42438 0.80545 0.0
C1070 C 0.50896 0.459 0.80498 0.0
C1071 C 0.55312 0.55992 0.804 0.0
C1072 C 0.53858 0.52493 0.80415 0.0
H1073 H 0.45555 0.36568 0.78465 0.0
H1074 H 0.48194 0.42212 0.78386 0.0
H1075 H 0.54913 0.44767 0.81954 0.0
H1076 H 0.57296 0.62492 0.82563 0.0
H1077 H 0.55466 0.56504 0.8259 0.0
C1078 C 0.62041 0.4623 0.18201 0.0
C1079 C 0.63833 0.45835 0.19427 0.0
C1080 C 0.58668 0.47417 0.18202 0.0
C1081 C 0.52664 0.52476 0.20246 0.0
H1082 H 0.45709 0.48211 0.18006 0.0
C1083 C 0.38281 0.55629 0.20761 0.0
C1084 C 0.3628 0.55629 0.19577 0.0
C1085 C 0.41709 0.54618 0.20713 0.0
C1086 C 0.47631 0.49469 0.18621 0.0
H1087 H 0.63491 0.46309 0.21617 0.0
H1088 H 0.57595 0.48379 0.21619 0.0
H1089 H 0.51528 0.45963 0.17984 0.0
H1090 H 0.36323 0.5472 0.17405 0.0
H1091 H 0.42326 0.53036 0.17314 0.0
H1092 H 0.48783 0.55998 0.20878 0.0
C1093 C 0.58809 0.47799 0.20657 0.0
C1094 C 0.50961 0.48169 0.18612 0.0
C1095 C 0.62172 0.4659 0.20656 0.0
C1096 C 0.37801 0.54724 0.18336 0.0
C1097 C 0.41232 0.53733 0.18286 0.0
C1098 C 0.49339 0.5379 0.2025 0.0
C1099 C 0.57033 0.48254 0.1943 0.0
C1100 C 0.53506 0.49648 0.1943 0.0
C1101 C 0.4321 0.53605 0.19478 0.0
C1102 C 0.46779 0.52293 0.19442 0.0
H1103 H 0.63262 0.45674 0.17238 0.0
H1104 H 0.57368 0.47764 0.17241 0.0
H1105 H 0.5459 0.53701 0.20871 0.0
H1106 H 0.37171 0.56301 0.21733 0.0
H1107 H 0.43146 0.54516 0.21652 0.0
C1108 C 0.44667 0.11788 0.45755 0.0
C1109 C 0.44368 0.1369 0.44551 0.0
C1110 C 0.45932 0.08443 0.45726 0.0
C1111 C 0.51196 0.02667 0.43608 0.0
H1112 H 0.47589 0.9565 0.45999 0.0
C1113 C 0.54796 0.88308 0.43221 0.0
C1114 C 0.55299 0.86533 0.44446 0.0
C1115 C 0.53631 0.91692 0.4323 0.0
C1116 C 0.48648 0.97595 0.45336 0.0
H1117 H 0.45044 0.1355 0.42367 0.0
H1118 H 0.47177 0.0768 0.42311 0.0
H1119 H 0.45007 0.01332 0.45995 0.0
H1120 H 0.55101 0.86939 0.4664 0.0
H1121 H 0.53074 0.92853 0.46656 0.0
H1122 H 0.5481 0.989 0.42939 0.0
C1123 C 0.46508 0.08796 0.43282 0.0
C1124 C 0.47168 0.00851 0.45333 0.0
C1125 C 0.45257 0.12148 0.43312 0.0
C1126 C 0.54732 0.88241 0.4568 0.0
C1127 C 0.53547 0.91616 0.45689 0.0
C1128 C 0.52663 0.99403 0.43606 0.0
C1129 C 0.4691 0.06921 0.44491 0.0
C1130 C 0.48429 0.0343 0.44471 0.0
C1131 C 0.52926 0.93355 0.44464 0.0
C1132 C 0.51412 0.96838 0.44474 0.0
H1133 H 0.44018 0.12918 0.46726 0.0
H1134 H 0.46243 0.07091 0.46679 0.0
H1135 H 0.52271 0.04609 0.42948 0.0
H1136 H 0.55209 0.87052 0.42254 0.0
H1137 H 0.53159 0.92962 0.4227 0.0
C1138 C 0.88362 0.44882 0.5612 0.0
C1139 C 0.86617 0.44288 0.54895 0.0
C1140 C 0.91795 0.45877 0.56109 0.0
C1141 C 0.98108 0.50204 0.53976 0.0
H1142 H 0.04731 0.46249 0.56455 0.0
C1143 C 0.12416 0.53821 0.53783 0.0
C1144 C 0.14118 0.54195 0.55029 0.0
C1145 C 0.09108 0.52469 0.53737 0.0
C1146 C 0.02905 0.47409 0.55767 0.0
H1147 H 0.87098 0.44211 0.52702 0.0
H1148 H 0.93099 0.45972 0.52684 0.0
H1149 H 0.98867 0.441 0.56435 0.0
H1150 H 0.13698 0.53477 0.57206 0.0
H1151 H 0.07897 0.512 0.57132 0.0
H1152 H 0.02104 0.53567 0.53328 0.0
C1153 C 0.91805 0.4568 0.5365 0.0
C1154 C 0.99552 0.46168 0.55754 0.0
C1155 C 0.8838 0.44656 0.53661 0.0
C1156 C 0.12451 0.53204 0.56229 0.0
C1157 C 0.09136 0.51875 0.56186 0.0
C1158 C 0.01452 0.51464 0.53997 0.0
C1159 C 0.93537 0.46324 0.54873 0.0
C1160 C 0.9712 0.47561 0.54861 0.0
C1161 C 0.07425 0.51485 0.54939 0.0
C1162 C 0.03889 0.5009 0.54896 0.0
H1163 H 0.87064 0.44618 0.57086 0.0
H1164 H 0.93061 0.46385 0.57066 0.0
H1165 H 0.96271 0.51357 0.53291 0.0
H1166 H 0.1365 0.54547 0.52841 0.0
H1167 H 0.07886 0.52158 0.52758 0.0
loop_
_geom_bond_atom_site_label_1
_geom_bond_atom_site_label_2
_geom_bond_distance
_geom_bond_site_symmetry_2
_ccdc_geom_bond_type
In0 O1 2.294 . S
In0 O2 2.326 . S
In0 O6 2.266 . S
In0 O7 2.326 . S
In0 O8 2.266 . S
In0 O9 2.326 . S
In0 O11 2.294 . S
In0 O12 2.326 . S
O1 In0 2.294 . S
O1 C10 1.240 . S
O2 In0 2.326 . S
O2 C10 1.252 . S
C3 O6 1.252 . S
C3 O7 1.260 . S
C4 O11 1.240 . S
C4 O12 1.252 . S
C5 O8 1.252 . S
C5 O9 1.260 . S
O6 In0 2.266 . S
O6 C3 1.252 . S
O7 In0 2.326 . S
O7 C3 1.260 . S
O8 In0 2.266 . S
O8 C5 1.252 . S
O9 In0 2.326 . S
O9 C5 1.260 . S
C10 O1 1.240 . S
C10 O2 1.252 . S
O11 In0 2.294 . S
O11 C4 1.240 . S
O12 In0 2.326 . S
O12 C4 1.252 . S
In13 O14 2.294 . S
In13 O15 2.326 . S
In13 O19 2.266 . S
In13 O20 2.326 . S
In13 O21 2.266 . S
In13 O22 2.326 . S
In13 O24 2.294 . S
In13 O25 2.326 . S
O14 In13 2.294 . S
O14 C23 1.240 . S
O15 In13 2.326 . S
O15 C23 1.252 . S
C16 O19 1.252 . S
C16 O20 1.260 . S
C17 O24 1.240 . S
C17 O25 1.252 . S
C18 O21 1.252 . S
C18 O22 1.260 . S
O19 In13 2.266 . S
O19 C16 1.252 . S
O20 In13 2.326 . S
O20 C16 1.260 . S
O21 In13 2.266 . S
O21 C18 1.252 . S
O22 In13 2.326 . S
O22 C18 1.260 . S
C23 O14 1.240 . S
C23 O15 1.252 . S
O24 In13 2.294 . S
O24 C17 1.240 . S
O25 In13 2.326 . S
O25 C17 1.252 . S
In26 O27 2.294 . S
In26 O28 2.326 . S
In26 O32 2.266 . S
In26 O33 2.326 . S
In26 O34 2.266 . S
In26 O35 2.326 . S
In26 O37 2.294 . S
In26 O38 2.326 . S
O27 In26 2.294 . S
O27 C36 1.240 . S
O28 In26 2.326 . S
O28 C36 1.252 . S
C29 O32 1.252 . S
C29 O33 1.260 . S
C30 O37 1.240 . S
C30 O38 1.252 . S
C31 O34 1.252 . S
C31 O35 1.260 . S
O32 In26 2.266 . S
O32 C29 1.252 . S
O33 In26 2.326 . S
O33 C29 1.260 . S
O34 In26 2.266 . S
O34 C31 1.252 . S
O35 In26 2.326 . S
O35 C31 1.260 . S
C36 O27 1.240 . S
C36 O28 1.252 . S
O37 In26 2.294 . S
O37 C30 1.240 . S
O38 In26 2.326 . S
O38 C30 1.252 . S
In39 O40 2.294 . S
In39 O41 2.326 . S
In39 O45 2.266 . S
In39 O46 2.326 . S
In39 O47 2.266 . S
In39 O48 2.326 . S
In39 O50 2.294 . S
In39 O51 2.326 . S
O40 In39 2.294 . S
O40 C49 1.240 . S
O41 In39 2.326 . S
O41 C49 1.252 . S
C42 O45 1.252 . S
C42 O46 1.260 . S
C43 O50 1.240 . S
C43 O51 1.252 . S
C44 O47 1.252 . S
C44 O48 1.260 . S
O45 In39 2.266 . S
O45 C42 1.252 . S
O46 In39 2.326 . S
O46 C42 1.260 . S
O47 In39 2.266 . S
O47 C44 1.252 . S
O48 In39 2.326 . S
O48 C44 1.260 . S
C49 O40 1.240 . S
C49 O41 1.252 . S
O50 In39 2.294 . S
O50 C43 1.240 . S
O51 In39 2.326 . S
O51 C43 1.252 . S
In52 O53 2.294 . S
In52 O54 2.326 . S
In52 O58 2.266 . S
In52 O59 2.326 . S
In52 O60 2.266 . S
In52 O61 2.326 . S
In52 O63 2.294 . S
In52 O64 2.326 . S
O53 In52 2.294 . S
O53 C62 1.240 . S
O54 In52 2.326 . S
O54 C62 1.252 . S
C55 O58 1.252 . S
C55 O59 1.260 . S
C56 O63 1.240 . S
C56 O64 1.252 . S
C57 O60 1.252 . S
C57 O61 1.260 . S
O58 In52 2.266 . S
O58 C55 1.252 . S
O59 In52 2.326 . S
O59 C55 1.260 . S
O60 In52 2.266 . S
O60 C57 1.252 . S
O61 In52 2.326 . S
O61 C57 1.260 . S
C62 O53 1.240 . S
C62 O54 1.252 . S
O63 In52 2.294 . S
O63 C56 1.240 . S
O64 In52 2.326 . S
O64 C56 1.252 . S
In65 O66 2.294 . S
In65 O67 2.326 . S
In65 O71 2.266 . S
In65 O72 2.326 . S
In65 O73 2.266 . S
In65 O74 2.326 . S
In65 O76 2.294 . S
In65 O77 2.326 . S
O66 In65 2.294 . S
O66 C75 1.240 . S
O67 In65 2.326 . S
O67 C75 1.252 . S
C68 O71 1.252 . S
C68 O72 1.260 . S
C69 O76 1.240 . S
C69 O77 1.252 . S
C70 O73 1.252 . S
C70 O74 1.260 . S
O71 In65 2.266 . S
O71 C68 1.252 . S
O72 In65 2.326 . S
O72 C68 1.260 . S
O73 In65 2.266 . S
O73 C70 1.252 . S
O74 In65 2.326 . S
O74 C70 1.260 . S
C75 O66 1.240 . S
C75 O67 1.252 . S
O76 In65 2.294 . S
O76 C69 1.240 . S
O77 In65 2.326 . S
O77 C69 1.252 . S
In78 O79 2.294 . S
In78 O80 2.326 . S
In78 O84 2.266 . S
In78 O85 2.326 . S
In78 O86 2.266 . S
In78 O87 2.326 . S
In78 O89 2.294 . S
In78 O90 2.326 . S
O79 In78 2.294 . S
O79 C88 1.240 . S
O80 In78 2.326 . S
O80 C88 1.252 . S
C81 O84 1.252 . S
C81 O85 1.260 . S
C82 O89 1.240 . S
C82 O90 1.252 . S
C83 O86 1.252 . S
C83 O87 1.260 . S
O84 In78 2.266 . S
O84 C81 1.252 . S
O85 In78 2.326 . S
O85 C81 1.260 . S
O86 In78 2.266 . S
O86 C83 1.252 . S
O87 In78 2.326 . S
O87 C83 1.260 . S
C88 O79 1.240 . S
C88 O80 1.252 . S
O89 In78 2.294 . S
O89 C82 1.240 . S
O90 In78 2.326 . S
O90 C82 1.252 . S
In91 O92 2.294 . S
In91 O93 2.326 . S
In91 O97 2.266 . S
In91 O98 2.326 . S
In91 O99 2.266 . S
In91 O100 2.326 . S
In91 O102 2.294 . S
In91 O103 2.326 . S
O92 In91 2.294 . S
O92 C101 1.240 . S
O93 In91 2.326 . S
O93 C101 1.252 . S
C94 O97 1.252 . S
C94 O98 1.260 . S
C95 O102 1.240 . S
C95 O103 1.252 . S
C96 O99 1.252 . S
C96 O100 1.260 . S
O97 In91 2.266 . S
O97 C94 1.252 . S
O98 In91 2.326 . S
O98 C94 1.260 . S
O99 In91 2.266 . S
O99 C96 1.252 . S
O100 In91 2.326 . S
O100 C96 1.260 . S
C101 O92 1.240 . S
C101 O93 1.252 . S
O102 In91 2.294 . S
O102 C95 1.240 . S
O103 In91 2.326 . S
O103 C95 1.252 . S
In104 O105 2.294 . S
In104 O106 2.326 . S
In104 O110 2.266 . S
In104 O111 2.326 . S
In104 O112 2.266 . S
In104 O113 2.326 . S
In104 O115 2.294 . S
In104 O116 2.326 . S
O105 In104 2.294 . S
O105 C114 1.240 . S
O106 In104 2.326 . S
O106 C114 1.252 . S
C107 O110 1.252 . S
C107 O111 1.260 . S
C108 O115 1.240 . S
C108 O116 1.252 . S
C109 O112 1.252 . S
C109 O113 1.260 . S
O110 In104 2.266 . S
O110 C107 1.252 . S
O111 In104 2.326 . S
O111 C107 1.260 . S
O112 In104 2.266 . S
O112 C109 1.252 . S
O113 In104 2.326 . S
O113 C109 1.260 . S
C114 O105 1.240 . S
C114 O106 1.252 . S
O115 In104 2.294 . S
O115 C108 1.240 . S
O116 In104 2.326 . S
O116 C108 1.252 . S
In117 O118 2.294 . S
In117 O119 2.326 . S
In117 O123 2.266 . S
In117 O124 2.326 . S
In117 O125 2.266 . S
In117 O126 2.326 . S
In117 O128 2.294 . S
In117 O129 2.326 . S
O118 In117 2.294 . S
O118 C127 1.240 . S
O119 In117 2.326 . S
O119 C127 1.252 . S
C120 O123 1.252 . S
C120 O124 1.260 . S
C121 O128 1.240 . S
C121 O129 1.252 . S
C122 O125 1.252 . S
C122 O126 1.260 . S
O123 In117 2.266 . S
O123 C120 1.252 . S
O124 In117 2.326 . S
O124 C120 1.260 . S
O125 In117 2.266 . S
O125 C122 1.252 . S
O126 In117 2.326 . S
O126 C122 1.260 . S
C127 O118 1.240 . S
C127 O119 1.252 . S
O128 In117 2.294 . S
O128 C121 1.240 . S
O129 In117 2.326 . S
O129 C121 1.252 . S
In130 O131 2.294 . S
In130 O132 2.326 . S
In130 O136 2.266 . S
In130 O137 2.326 . S
In130 O138 2.266 . S
In130 O139 2.326 . S
In130 O141 2.294 . S
In130 O142 2.326 . S
O131 In130 2.294 . S
O131 C140 1.240 . S
O132 In130 2.326 . S
O132 C140 1.252 . S
C133 O136 1.252 . S
C133 O137 1.260 . S
C134 O141 1.240 . S
C134 O142 1.252 . S
C135 O138 1.252 . S
C135 O139 1.260 . S
O136 In130 2.266 . S
O136 C133 1.252 . S
O137 In130 2.326 . S
O137 C133 1.260 . S
O138 In130 2.266 . S
O138 C135 1.252 . S
O139 In130 2.326 . S
O139 C135 1.260 . S
C140 O131 1.240 . S
C140 O132 1.252 . S
O141 In130 2.294 . S
O141 C134 1.240 . S
O142 In130 2.326 . S
O142 C134 1.252 . S
In143 O144 2.294 . S
In143 O145 2.326 . S
In143 O149 2.266 . S
In143 O150 2.326 . S
In143 O151 2.266 . S
In143 O152 2.326 . S
In143 O154 2.294 . S
In143 O155 2.326 . S
O144 In143 2.294 . S
O144 C153 1.240 . S
O145 In143 2.326 . S
O145 C153 1.252 . S
C146 O149 1.252 . S
C146 O150 1.260 . S
C147 O154 1.240 . S
C147 O155 1.252 . S
C148 O151 1.252 . S
C148 O152 1.260 . S
O149 In143 2.266 . S
O149 C146 1.252 . S
O150 In143 2.326 . S
O150 C146 1.260 . S
O151 In143 2.266 . S
O151 C148 1.252 . S
O152 In143 2.326 . S
O152 C148 1.260 . S
C153 O144 1.240 . S
C153 O145 1.252 . S
O154 In143 2.294 . S
O154 C147 1.240 . S
O155 In143 2.326 . S
O155 C147 1.252 . S
In156 O157 2.294 . S
In156 O158 2.326 . S
In156 O162 2.266 . S
In156 O163 2.326 . S
In156 O164 2.266 . S
In156 O165 2.326 . S
In156 O167 2.294 . S
In156 O168 2.326 . S
O157 In156 2.294 . S
O157 C166 1.240 . S
O158 In156 2.326 . S
O158 C166 1.252 . S
C159 O162 1.252 . S
C159 O163 1.260 . S
C160 O167 1.240 . S
C160 O168 1.252 . S
C161 O164 1.252 . S
C161 O165 1.260 . S
O162 In156 2.266 . S
O162 C159 1.252 . S
O163 In156 2.326 . S
O163 C159 1.260 . S
O164 In156 2.266 . S
O164 C161 1.252 . S
O165 In156 2.326 . S
O165 C161 1.260 . S
C166 O157 1.240 . S
C166 O158 1.252 . S
O167 In156 2.294 . S
O167 C160 1.240 . S
O168 In156 2.326 . S
O168 C160 1.252 . S
In169 O170 2.294 . S
In169 O171 2.326 . S
In169 O175 2.266 . S
In169 O176 2.326 . S
In169 O177 2.266 . S
In169 O178 2.326 . S
In169 O180 2.294 . S
In169 O181 2.326 . S
O170 In169 2.294 . S
O170 C179 1.240 . S
O171 In169 2.326 . S
O171 C179 1.252 . S
C172 O175 1.252 . S
C172 O176 1.260 . S
C173 O180 1.240 . S
C173 O181 1.252 . S
C174 O177 1.252 . S
C174 O178 1.260 . S
O175 In169 2.266 . S
O175 C172 1.252 . S
O176 In169 2.326 . S
O176 C172 1.260 . S
O177 In169 2.266 . S
O177 C174 1.252 . S
O178 In169 2.326 . S
O178 C174 1.260 . S
C179 O170 1.240 . S
C179 O171 1.252 . S
O180 In169 2.294 . S
O180 C173 1.240 . S
O181 In169 2.326 . S
O181 C173 1.252 . S
In182 O183 2.294 . S
In182 O184 2.326 . S
In182 O188 2.266 . S
In182 O189 2.326 . S
In182 O190 2.266 . S
In182 O191 2.326 . S
In182 O193 2.294 . S
In182 O194 2.326 . S
O183 In182 2.294 . S
O183 C192 1.240 . S
O184 In182 2.326 . S
O184 C192 1.252 . S
C185 O188 1.252 . S
C185 O189 1.260 . S
C186 O193 1.240 . S
C186 O194 1.252 . S
C187 O190 1.252 . S
C187 O191 1.260 . S
O188 In182 2.266 . S
O188 C185 1.252 . S
O189 In182 2.326 . S
O189 C185 1.260 . S
O190 In182 2.266 . S
O190 C187 1.252 . S
O191 In182 2.326 . S
O191 C187 1.260 . S
C192 O183 1.240 . S
C192 O184 1.252 . S
O193 In182 2.294 . S
O193 C186 1.240 . S
O194 In182 2.326 . S
O194 C186 1.252 . S
In195 O196 2.294 . S
In195 O197 2.326 . S
In195 O201 2.266 . S
In195 O202 2.326 . S
In195 O203 2.266 . S
In195 O204 2.326 . S
In195 O206 2.294 . S
In195 O207 2.326 . S
O196 In195 2.294 . S
O196 C205 1.240 . S
O197 In195 2.326 . S
O197 C205 1.252 . S
C198 O201 1.252 . S
C198 O202 1.260 . S
C199 O206 1.240 . S
C199 O207 1.252 . S
C200 O203 1.252 . S
C200 O204 1.260 . S
O201 In195 2.266 . S
O201 C198 1.252 . S
O202 In195 2.326 . S
O202 C198 1.260 . S
O203 In195 2.266 . S
O203 C200 1.252 . S
O204 In195 2.326 . S
O204 C200 1.260 . S
C205 O196 1.240 . S
C205 O197 1.252 . S
O206 In195 2.294 . S
O206 C199 1.240 . S
O207 In195 2.326 . S
O207 C199 1.252 . S
C208 C209 1.349 . S
C208 C210 1.327 . S
C208 H233 0.950 . S
C209 C208 1.349 . S
C209 C225 1.349 . S
C210 C208 1.327 . S
C210 C229 1.429 . S
C210 H234 0.950 . S
C211 C228 1.574 . S
C211 C230 1.368 . S
C211 H235 0.949 . S
H212 C216 0.949 . S
C213 C214 1.349 . S
C213 C215 1.327 . S
C213 H236 0.950 . S
C214 C213 1.349 . S
C214 C226 1.349 . S
C215 C213 1.327 . S
C215 C231 1.429 . S
C215 H237 0.950 . S
C216 H212 0.949 . S
C216 C224 1.574 . S
C216 C232 1.368 . S
H217 C225 0.950 . S
H218 C223 0.950 . S
H219 C224 0.949 . S
H220 C226 0.950 . S
H221 C227 0.950 . S
H222 C228 0.949 . S
C223 H218 0.950 . S
C223 C225 1.327 . S
C223 C229 1.429 . S
C224 C216 1.574 . S
C224 H219 0.949 . S
C224 C230 1.368 . S
C225 C209 1.349 . S
C225 H217 0.950 . S
C225 C223 1.327 . S
C226 C214 1.349 . S
C226 H220 0.950 . S
C226 C227 1.327 . S
C227 H221 0.950 . S
C227 C226 1.327 . S
C227 C231 1.429 . S
C228 C211 1.574 . S
C228 H222 0.949 . S
C228 C232 1.368 . S
C229 C210 1.429 . S
C229 C223 1.429 . S
C229 C230 1.523 . S
C230 C211 1.368 . S
C230 C224 1.368 . S
C230 C229 1.523 . S
C231 C215 1.429 . S
C231 C227 1.429 . S
C231 C232 1.523 . S
C232 C216 1.368 . S
C232 C228 1.368 . S
C232 C231 1.523 . S
H233 C208 0.950 . S
H234 C210 0.950 . S
H235 C211 0.949 . S
H236 C213 0.950 . S
H237 C215 0.950 . S
C238 C239 1.349 . S
C238 C240 1.327 . S
C238 H263 0.950 . S
C239 C238 1.349 . S
C239 C255 1.349 . S
C240 C238 1.327 . S
C240 C259 1.429 . S
C240 H264 0.950 . S
C241 C258 1.574 . S
C241 C260 1.368 . S
C241 H265 0.949 . S
H242 C246 0.949 . S
C243 C244 1.349 . S
C243 C245 1.327 . S
C243 H266 0.950 . S
C244 C243 1.349 . S
C244 C256 1.349 . S
C245 C243 1.327 . S
C245 C261 1.429 . S
C245 H267 0.950 . S
C246 H242 0.949 . S
C246 C254 1.574 . S
C246 C262 1.368 . S
H247 C255 0.950 . S
H248 C253 0.950 . S
H249 C254 0.949 . S
H250 C256 0.950 . S
H251 C257 0.950 . S
H252 C258 0.949 . S
C253 H248 0.950 . S
C253 C255 1.327 . S
C253 C259 1.429 . S
C254 C246 1.574 . S
C254 H249 0.949 . S
C254 C260 1.368 . S
C255 C239 1.349 . S
C255 H247 0.950 . S
C255 C253 1.327 . S
C256 C244 1.349 . S
C256 H250 0.950 . S
C256 C257 1.327 . S
C257 H251 0.950 . S
C257 C256 1.327 . S
C257 C261 1.429 . S
C258 C241 1.574 . S
C258 H252 0.949 . S
C258 C262 1.368 . S
C259 C240 1.429 . S
C259 C253 1.429 . S
C259 C260 1.523 . S
C260 C241 1.368 . S
C260 C254 1.368 . S
C260 C259 1.523 . S
C261 C245 1.429 . S
C261 C257 1.429 . S
C261 C262 1.523 . S
C262 C246 1.368 . S
C262 C258 1.368 . S
C262 C261 1.523 . S
H263 C238 0.950 . S
H264 C240 0.950 . S
H265 C241 0.949 . S
H266 C243 0.950 . S
H267 C245 0.950 . S
C268 C269 1.349 . S
C268 C270 1.327 . S
C268 H293 0.950 . S
C269 C268 1.349 . S
C269 C285 1.349 . S
C270 C268 1.327 . S
C270 C289 1.429 . S
C270 H294 0.950 . S
C271 C288 1.574 . S
C271 C290 1.368 . S
C271 H295 0.949 . S
H272 C276 0.949 . S
C273 C274 1.349 . S
C273 C275 1.327 . S
C273 H296 0.950 . S
C274 C273 1.349 . S
C274 C286 1.349 . S
C275 C273 1.327 . S
C275 C291 1.429 . S
C275 H297 0.950 . S
C276 H272 0.949 . S
C276 C284 1.574 . S
C276 C292 1.368 . S
H277 C285 0.950 . S
H278 C283 0.950 . S
H279 C284 0.949 . S
H280 C286 0.950 . S
H281 C287 0.950 . S
H282 C288 0.949 . S
C283 H278 0.950 . S
C283 C285 1.327 . S
C283 C289 1.429 . S
C284 C276 1.574 . S
C284 H279 0.949 . S
C284 C290 1.368 . S
C285 C269 1.349 . S
C285 H277 0.950 . S
C285 C283 1.327 . S
C286 C274 1.349 . S
C286 H280 0.950 . S
C286 C287 1.327 . S
C287 H281 0.950 . S
C287 C286 1.327 . S
C287 C291 1.429 . S
C288 C271 1.574 . S
C288 H282 0.949 . S
C288 C292 1.368 . S
C289 C270 1.429 . S
C289 C283 1.429 . S
C289 C290 1.523 . S
C290 C271 1.368 . S
C290 C284 1.368 . S
C290 C289 1.523 . S
C291 C275 1.429 . S
C291 C287 1.429 . S
C291 C292 1.523 . S
C292 C276 1.368 . S
C292 C288 1.368 . S
C292 C291 1.523 . S
H293 C268 0.950 . S
H294 C270 0.950 . S
H295 C271 0.949 . S
H296 C273 0.950 . S
H297 C275 0.950 . S
C298 C299 1.349 . S
C298 C300 1.327 . S
C298 H323 0.950 . S
C299 C298 1.349 . S
C299 C315 1.349 . S
C300 C298 1.327 . S
C300 C319 1.429 . S
C300 H324 0.950 . S
C301 C318 1.574 . S
C301 C320 1.368 . S
C301 H325 0.949 . S
H302 C306 0.949 . S
C303 C304 1.349 . S
C303 C305 1.327 . S
C303 H326 0.950 . S
C304 C303 1.349 . S
C304 C316 1.349 . S
C305 C303 1.327 . S
C305 C321 1.429 . S
C305 H327 0.950 . S
C306 H302 0.949 . S
C306 C314 1.574 . S
C306 C322 1.368 . S
H307 C315 0.950 . S
H308 C313 0.950 . S
H309 C314 0.949 . S
H310 C316 0.950 . S
H311 C317 0.950 . S
H312 C318 0.949 . S
C313 H308 0.950 . S
C313 C315 1.327 . S
C313 C319 1.429 . S
C314 C306 1.574 . S
C314 H309 0.949 . S
C314 C320 1.368 . S
C315 C299 1.349 . S
C315 H307 0.950 . S
C315 C313 1.327 . S
C316 C304 1.349 . S
C316 H310 0.950 . S
C316 C317 1.327 . S
C317 H311 0.950 . S
C317 C316 1.327 . S
C317 C321 1.429 . S
C318 C301 1.574 . S
C318 H312 0.949 . S
C318 C322 1.368 . S
C319 C300 1.429 . S
C319 C313 1.429 . S
C319 C320 1.523 . S
C320 C301 1.368 . S
C320 C314 1.368 . S
C320 C319 1.523 . S
C321 C305 1.429 . S
C321 C317 1.429 . S
C321 C322 1.523 . S
C322 C306 1.368 . S
C322 C318 1.368 . S
C322 C321 1.523 . S
H323 C298 0.950 . S
H324 C300 0.950 . S
H325 C301 0.949 . S
H326 C303 0.950 . S
H327 C305 0.950 . S
C328 C329 1.349 . S
C328 C330 1.327 . S
C328 H353 0.950 . S
C329 C328 1.349 . S
C329 C345 1.349 1_545 S
C330 C328 1.327 . S
C330 C349 1.429 . S
C330 H354 0.950 . S
C331 C348 1.565 1_554 S
C331 C350 1.382 . S
C331 H355 0.945 1_554 S
H332 C336 0.949 . S
C333 C334 1.349 . S
C333 C335 1.327 . S
C333 H356 0.950 . S
C334 C333 1.349 . S
C334 C346 1.349 . S
C335 C333 1.327 . S
C335 C351 1.429 . S
C335 H357 0.950 . S
C336 H332 0.949 . S
C336 C344 1.574 . S
C336 C352 1.368 1_554 S
H337 C345 0.950 . S
H338 C343 0.950 . S
H339 C344 0.949 . S
H340 C346 0.950 . S
H341 C347 0.950 1_554 S
H342 C348 0.949 . S
C343 H338 0.950 . S
C343 C345 1.327 1_545 S
C343 C349 1.429 . S
C344 C336 1.574 . S
C344 H339 0.949 . S
C344 C350 1.368 . S
C345 C329 1.349 1_565 S
C345 H337 0.950 . S
C345 C343 1.327 1_565 S
C346 C334 1.349 . S
C346 H340 0.950 . S
C346 C347 1.327 . S
C347 H341 0.950 1_556 S
C347 C346 1.327 . S
C347 C351 1.429 . S
C348 C331 1.565 1_556 S
C348 H342 0.949 . S
C348 C352 1.368 . S
C349 C330 1.429 . S
C349 C343 1.429 . S
C349 C350 1.523 . S
C350 C331 1.382 . S
C350 C344 1.368 . S
C350 C349 1.523 . S
C351 C335 1.429 . S
C351 C347 1.429 . S
C351 C352 1.523 . S
C352 C336 1.368 1_556 S
C352 C348 1.368 . S
C352 C351 1.523 . S
H353 C328 0.950 . S
H354 C330 0.950 . S
H355 C331 0.945 1_556 S
H356 C333 0.950 . S
H357 C335 0.950 . S
C358 C359 1.349 . S
C358 C360 1.327 . S
C358 H383 0.950 . S
C359 C358 1.349 . S
C359 C375 1.349 . S
C360 C358 1.327 . S
C360 C379 1.429 . S
C360 H384 0.950 . S
C361 C378 1.574 . S
C361 C380 1.368 1_556 S
C361 H385 0.949 . S
H362 C366 0.943 1_554 S
C363 C364 1.349 . S
C363 C365 1.327 . S
C363 H386 0.950 . S
C364 C363 1.349 . S
C364 C376 1.349 . S
C365 C363 1.327 . S
C365 C381 1.429 . S
C365 H387 0.950 . S
C366 H362 0.943 1_556 S
C366 C374 1.560 1_556 S
C366 C382 1.389 . S
H367 C375 0.950 . S
H368 C373 0.866 1_556 S
H369 C374 0.949 . S
H370 C376 0.950 1_655 S
H371 C377 0.950 . S
H372 C378 0.949 . S
C373 H368 0.866 1_554 S
C373 C375 1.327 . S
C373 C379 1.429 . S
C374 C366 1.560 1_554 S
C374 H369 0.949 . S
C374 C380 1.368 . S
C375 C359 1.349 . S
C375 H367 0.950 . S
C375 C373 1.327 . S
C376 C364 1.349 . S
C376 H370 0.950 1_455 S
C376 C377 1.327 . S
C377 H371 0.950 . S
C377 C376 1.327 . S
C377 C381 1.429 . S
C378 C361 1.574 . S
C378 H372 0.949 . S
C378 C382 1.368 . S
C379 C360 1.429 . S
C379 C373 1.429 . S
C379 C380 1.523 . S
C380 C361 1.368 1_554 S
C380 C374 1.368 . S
C380 C379 1.523 . S
C381 C365 1.429 . S
C381 C377 1.429 . S
C381 C382 1.523 . S
C382 C366 1.389 . S
C382 C378 1.368 . S
C382 C381 1.523 . S
H383 C358 0.950 . S
H384 C360 0.950 . S
H385 C361 0.949 . S
H386 C363 0.950 . S
H387 C365 0.950 . S
C388 C389 1.349 . S
C388 C390 1.327 . S
C388 H413 0.950 . S
C389 C388 1.349 . S
C389 C405 1.349 . S
C390 C388 1.327 . S
C390 C409 1.429 . S
C390 H414 0.950 . S
C391 C408 1.540 1_556 S
C391 C410 1.379 . S
C391 H415 0.972 . S
H392 C396 0.949 . S
C393 C394 1.349 . S
C393 C395 1.327 . S
C393 H416 0.950 1_565 S
C394 C393 1.349 . S
C394 C406 1.349 . S
C395 C393 1.327 . S
C395 C411 1.429 . S
C395 H417 0.950 . S
C396 H392 0.949 . S
C396 C404 1.574 . S
C396 C412 1.368 . S
H397 C405 0.950 . S
H398 C403 0.950 . S
H399 C404 0.949 1_556 S
H400 C406 0.950 . S
H401 C407 0.950 . S
H402 C408 0.949 . S
C403 H398 0.950 . S
C403 C405 1.327 . S
C403 C409 1.429 . S
C404 C396 1.574 . S
C404 H399 0.949 1_554 S
C404 C410 1.368 1_554 S
C405 C389 1.349 . S
C405 H397 0.950 . S
C405 C403 1.327 . S
C406 C394 1.349 . S
C406 H400 0.950 . S
C406 C407 1.327 . S
C407 H401 0.950 . S
C407 C406 1.327 . S
C407 C411 1.429 . S
C408 C391 1.540 1_554 S
C408 H402 0.949 . S
C408 C412 1.368 . S
C409 C390 1.429 . S
C409 C403 1.429 . S
C409 C410 1.523 . S
C410 C391 1.379 . S
C410 C404 1.368 1_556 S
C410 C409 1.523 . S
C411 C395 1.429 . S
C411 C407 1.429 . S
C411 C412 1.523 . S
C412 C396 1.368 . S
C412 C408 1.368 . S
C412 C411 1.523 . S
H413 C388 0.950 . S
H414 C390 0.950 . S
H415 C391 0.972 . S
H416 C393 0.950 1_545 S
H417 C395 0.950 . S
C418 C419 1.349 . S
C418 C420 1.327 . S
C418 H443 0.950 . S
C419 C418 1.349 . S
C419 C435 1.349 . S
C420 C418 1.327 . S
C420 C439 1.429 . S
C420 H444 0.950 1_554 S
C421 C438 1.528 1_554 S
C421 C440 1.368 . S
C421 H445 0.949 . S
H422 C426 0.949 . S
C423 C424 1.349 . S
C423 C425 1.327 . S
C423 H446 0.950 1_655 S
C424 C423 1.349 . S
C424 C436 1.349 . S
C425 C423 1.327 . S
C425 C441 1.429 . S
C425 H447 0.950 . S
C426 H422 0.949 . S
C426 C434 1.574 . S
C426 C442 1.368 . S
H427 C435 0.950 . S
H428 C433 0.950 . S
H429 C434 0.949 . S
H430 C436 0.950 . S
H431 C437 0.950 . S
H432 C438 0.932 1_554 S
C433 H428 0.950 . S
C433 C435 1.327 . S
C433 C439 1.429 . S
C434 C426 1.574 . S
C434 H429 0.949 . S
C434 C440 1.368 1_556 S
C435 C419 1.349 . S
C435 H427 0.950 . S
C435 C433 1.327 . S
C436 C424 1.349 . S
C436 H430 0.950 . S
C436 C437 1.327 . S
C437 H431 0.950 . S
C437 C436 1.327 . S
C437 C441 1.429 . S
C438 C421 1.528 1_556 S
C438 H432 0.932 1_556 S
C438 C442 1.438 . S
C439 C420 1.429 . S
C439 C433 1.429 . S
C439 C440 1.523 . S
C440 C421 1.368 . S
C440 C434 1.368 1_554 S
C440 C439 1.523 . S
C441 C425 1.429 . S
C441 C437 1.429 . S
C441 C442 1.523 . S
C442 C426 1.368 . S
C442 C438 1.438 . S
C442 C441 1.523 . S
H443 C418 0.950 . S
H444 C420 0.950 1_556 S
H445 C421 0.949 . S
H446 C423 0.950 1_455 S
H447 C425 0.950 . S
C448 C449 1.349 . S
C448 C450 1.327 . S
C448 H473 0.950 . S
C449 C448 1.349 . S
C449 C465 1.349 . S
C450 C448 1.327 . S
C450 C469 1.429 . S
C450 H474 0.950 . S
C451 C468 1.574 . S
C451 C470 1.368 . S
C451 H475 0.949 . S
H452 C456 0.949 . S
C453 C454 1.349 . S
C453 C455 1.327 . S
C453 H476 0.950 . S
C454 C453 1.349 . S
C454 C466 1.349 1_565 S
C455 C453 1.327 . S
C455 C471 1.429 . S
C455 H477 0.950 . S
C456 H452 0.949 . S
C456 C464 1.574 . S
C456 C472 1.368 . S
H457 C465 0.950 . S
H458 C463 0.950 . S
H459 C464 0.949 . S
H460 C466 0.950 . S
H461 C467 0.950 . S
H462 C468 0.949 . S
C463 H458 0.950 . S
C463 C465 1.327 . S
C463 C469 1.429 . S
C464 C456 1.574 . S
C464 H459 0.949 . S
C464 C470 1.368 . S
C465 C449 1.349 . S
C465 H457 0.950 . S
C465 C463 1.327 . S
C466 C454 1.349 1_545 S
C466 H460 0.950 . S
C466 C467 1.327 1_545 S
C467 H461 0.950 . S
C467 C466 1.327 1_565 S
C467 C471 1.429 . S
C468 C451 1.574 . S
C468 H462 0.949 . S
C468 C472 1.368 . S
C469 C450 1.429 . S
C469 C463 1.429 . S
C469 C470 1.523 . S
C470 C451 1.368 . S
C470 C464 1.368 . S
C470 C469 1.523 . S
C471 C455 1.429 . S
C471 C467 1.429 . S
C471 C472 1.523 . S
C472 C456 1.368 . S
C472 C468 1.368 . S
C472 C471 1.523 . S
H473 C448 0.950 . S
H474 C450 0.950 . S
H475 C451 0.949 . S
H476 C453 0.950 . S
H477 C455 0.950 . S
C478 C479 1.349 . S
C478 C480 1.327 . S
C478 H503 0.950 . S
C479 C478 1.349 . S
C479 C495 1.349 . S
C480 C478 1.327 . S
C480 C499 1.429 . S
C480 H504 0.950 . S
C481 C498 1.574 . S
C481 C500 1.368 . S
C481 H505 0.949 . S
H482 C486 0.949 . S
C483 C484 1.349 . S
C483 C485 1.327 . S
C483 H506 0.950 . S
C484 C483 1.349 . S
C484 C496 1.349 . S
C485 C483 1.327 . S
C485 C501 1.429 . S
C485 H507 0.950 . S
C486 H482 0.949 . S
C486 C494 1.574 . S
C486 C502 1.368 . S
H487 C495 0.950 1_455 S
H488 C493 0.950 . S
H489 C494 0.949 . S
H490 C496 0.950 . S
H491 C497 0.950 . S
H492 C498 0.949 . S
C493 H488 0.950 . S
C493 C495 1.327 . S
C493 C499 1.429 . S
C494 C486 1.574 . S
C494 H489 0.949 . S
C494 C500 1.368 . S
C495 C479 1.349 . S
C495 H487 0.950 1_655 S
C495 C493 1.327 . S
C496 C484 1.349 . S
C496 H490 0.950 . S
C496 C497 1.327 . S
C497 H491 0.950 . S
C497 C496 1.327 . S
C497 C501 1.429 . S
C498 C481 1.574 . S
C498 H492 0.949 . S
C498 C502 1.368 . S
C499 C480 1.429 . S
C499 C493 1.429 . S
C499 C500 1.523 . S
C500 C481 1.368 . S
C500 C494 1.368 . S
C500 C499 1.523 . S
C501 C485 1.429 . S
C501 C497 1.429 . S
C501 C502 1.523 . S
C502 C486 1.368 . S
C502 C498 1.368 . S
C502 C501 1.523 . S
H503 C478 0.950 . S
H504 C480 0.950 . S
H505 C481 0.949 . S
H506 C483 0.950 . S
H507 C485 0.950 . S
C508 C509 1.349 . S
C508 C510 1.327 . S
C508 H533 0.950 . S
C509 C508 1.349 . S
C509 C525 1.349 1_545 S
C510 C508 1.327 . S
C510 C529 1.429 . S
C510 H534 0.950 . S
C511 C528 1.574 . S
C511 C530 1.368 . S
C511 H535 0.949 . S
H512 C516 0.949 . S
C513 C514 1.349 . S
C513 C515 1.327 . S
C513 H536 0.950 . S
C514 C513 1.349 . S
C514 C526 1.349 . S
C515 C513 1.327 . S
C515 C531 1.429 . S
C515 H537 0.950 . S
C516 H512 0.949 . S
C516 C524 1.574 . S
C516 C532 1.368 . S
H517 C525 0.950 . S
H518 C523 0.950 . S
H519 C524 0.949 . S
H520 C526 0.950 . S
H521 C527 0.950 . S
H522 C528 0.949 . S
C523 H518 0.950 . S
C523 C525 1.327 1_545 S
C523 C529 1.429 . S
C524 C516 1.574 . S
C524 H519 0.949 . S
C524 C530 1.368 . S
C525 C509 1.349 1_565 S
C525 H517 0.950 . S
C525 C523 1.327 1_565 S
C526 C514 1.349 . S
C526 H520 0.950 . S
C526 C527 1.327 . S
C527 H521 0.950 . S
C527 C526 1.327 . S
C527 C531 1.429 . S
C528 C511 1.574 . S
C528 H522 0.949 . S
C528 C532 1.368 . S
C529 C510 1.429 . S
C529 C523 1.429 . S
C529 C530 1.523 . S
C530 C511 1.368 . S
C530 C524 1.368 . S
C530 C529 1.523 . S
C531 C515 1.429 . S
C531 C527 1.429 . S
C531 C532 1.523 . S
C532 C516 1.368 . S
C532 C528 1.368 . S
C532 C531 1.523 . S
H533 C508 0.950 . S
H534 C510 0.950 . S
H535 C511 0.949 . S
H536 C513 0.950 . S
H537 C515 0.950 . S
C538 C539 1.349 . S
C538 C540 1.327 . S
C538 H563 0.950 . S
C539 C538 1.349 . S
C539 C555 1.349 . S
C540 C538 1.327 . S
C540 C559 1.429 . S
C540 H564 0.950 . S
C541 C558 1.574 . S
C541 C560 1.368 . S
C541 H565 0.949 . S
H542 C546 0.949 . S
C543 C544 1.349 . S
C543 C545 1.327 . S
C543 H566 0.950 . S
C544 C543 1.349 . S
C544 C556 1.349 . S
C545 C543 1.327 . S
C545 C561 1.429 . S
C545 H567 0.950 . S
C546 H542 0.949 . S
C546 C554 1.574 . S
C546 C562 1.368 . S
H547 C555 0.950 1_655 S
H548 C553 0.950 . S
H549 C554 0.949 . S
H550 C556 0.950 . S
H551 C557 0.950 . S
H552 C558 0.949 . S
C553 H548 0.950 . S
C553 C555 1.327 . S
C553 C559 1.429 . S
C554 C546 1.574 . S
C554 H549 0.949 . S
C554 C560 1.368 . S
C555 C539 1.349 . S
C555 H547 0.950 1_455 S
C555 C553 1.327 . S
C556 C544 1.349 . S
C556 H550 0.950 . S
C556 C557 1.327 . S
C557 H551 0.950 . S
C557 C556 1.327 . S
C557 C561 1.429 . S
C558 C541 1.574 . S
C558 H552 0.949 . S
C558 C562 1.368 . S
C559 C540 1.429 . S
C559 C553 1.429 . S
C559 C560 1.523 . S
C560 C541 1.368 . S
C560 C554 1.368 . S
C560 C559 1.523 . S
C561 C545 1.429 . S
C561 C557 1.429 . S
C561 C562 1.523 . S
C562 C546 1.368 . S
C562 C558 1.368 . S
C562 C561 1.523 . S
H563 C538 0.950 . S
H564 C540 0.950 . S
H565 C541 0.949 . S
H566 C543 0.950 . S
H567 C545 0.950 . S
C568 C569 1.349 . S
C568 C570 1.327 . S
C568 H593 0.950 . S
C569 C568 1.349 . S
C569 C585 1.349 . S
C570 C568 1.327 . S
C570 C589 1.429 . S
C570 H594 0.950 . S
C571 C588 1.574 . S
C571 C590 1.368 . S
C571 H595 0.949 . S
H572 C576 0.949 . S
C573 C574 1.349 . S
C573 C575 1.327 . S
C573 H596 0.950 . S
C574 C573 1.349 . S
C574 C586 1.349 . S
C575 C573 1.327 . S
C575 C591 1.429 . S
C575 H597 0.950 . S
C576 H572 0.949 . S
C576 C584 1.574 . S
C576 C592 1.368 . S
H577 C585 0.950 . S
H578 C583 0.950 . S
H579 C584 0.949 . S
H580 C586 0.950 . S
H581 C587 0.950 . S
H582 C588 0.949 . S
C583 H578 0.950 . S
C583 C585 1.327 . S
C583 C589 1.429 . S
C584 C576 1.574 . S
C584 H579 0.949 . S
C584 C590 1.368 . S
C585 C569 1.349 . S
C585 H577 0.950 . S
C585 C583 1.327 . S
C586 C574 1.349 . S
C586 H580 0.950 . S
C586 C587 1.327 . S
C587 H581 0.950 . S
C587 C586 1.327 . S
C587 C591 1.429 . S
C588 C571 1.574 . S
C588 H582 0.949 . S
C588 C592 1.368 . S
C589 C570 1.429 . S
C589 C583 1.429 . S
C589 C590 1.523 . S
C590 C571 1.368 . S
C590 C584 1.368 . S
C590 C589 1.523 . S
C591 C575 1.429 . S
C591 C587 1.429 . S
C591 C592 1.523 . S
C592 C576 1.368 . S
C592 C588 1.368 . S
C592 C591 1.523 . S
H593 C568 0.950 . S
H594 C570 0.950 . S
H595 C571 0.949 . S
H596 C573 0.950 . S
H597 C575 0.950 . S
C598 C599 1.349 . S
C598 C600 1.327 . S
C598 H623 0.950 . S
C599 C598 1.349 . S
C599 C615 1.349 . S
C600 C598 1.327 . S
C600 C619 1.429 . S
C600 H624 0.950 . S
C601 C618 1.574 . S
C601 C620 1.368 . S
C601 H625 0.949 . S
H602 C606 0.949 . S
C603 C604 1.349 . S
C603 C605 1.327 . S
C603 H626 0.950 . S
C604 C603 1.349 . S
C604 C616 1.349 . S
C605 C603 1.327 . S
C605 C621 1.429 . S
C605 H627 0.950 . S
C606 H602 0.949 . S
C606 C614 1.574 . S
C606 C622 1.368 . S
H607 C615 0.950 . S
H608 C613 0.950 . S
H609 C614 0.949 . S
H610 C616 0.950 . S
H611 C617 0.950 . S
H612 C618 0.949 . S
C613 H608 0.950 . S
C613 C615 1.327 . S
C613 C619 1.429 . S
C614 C606 1.574 . S
C614 H609 0.949 . S
C614 C620 1.368 . S
C615 C599 1.349 . S
C615 H607 0.950 . S
C615 C613 1.327 . S
C616 C604 1.349 . S
C616 H610 0.950 . S
C616 C617 1.327 . S
C617 H611 0.950 . S
C617 C616 1.327 . S
C617 C621 1.429 . S
C618 C601 1.574 . S
C618 H612 0.949 . S
C618 C622 1.368 . S
C619 C600 1.429 . S
C619 C613 1.429 . S
C619 C620 1.523 . S
C620 C601 1.368 . S
C620 C614 1.368 . S
C620 C619 1.523 . S
C621 C605 1.429 . S
C621 C617 1.429 . S
C621 C622 1.523 . S
C622 C606 1.368 . S
C622 C618 1.368 . S
C622 C621 1.523 . S
H623 C598 0.950 . S
H624 C600 0.950 . S
H625 C601 0.949 . S
H626 C603 0.950 . S
H627 C605 0.950 . S
C628 C629 1.349 . S
C628 C630 1.327 . S
C628 H653 0.950 . S
C629 C628 1.349 . S
C629 C645 1.349 . S
C630 C628 1.327 . S
C630 C649 1.429 . S
C630 H654 0.950 . S
C631 C648 1.574 . S
C631 C650 1.368 . S
C631 H655 0.949 . S
H632 C636 0.949 . S
C633 C634 1.349 . S
C633 C635 1.327 . S
C633 H656 0.950 . S
C634 C633 1.349 . S
C634 C646 1.349 . S
C635 C633 1.327 . S
C635 C651 1.429 . S
C635 H657 0.950 . S
C636 H632 0.949 . S
C636 C644 1.574 . S
C636 C652 1.368 . S
H637 C645 0.950 . S
H638 C643 0.950 . S
H639 C644 0.949 . S
H640 C646 0.950 . S
H641 C647 0.950 . S
H642 C648 0.949 . S
C643 H638 0.950 . S
C643 C645 1.327 . S
C643 C649 1.429 . S
C644 C636 1.574 . S
C644 H639 0.949 . S
C644 C650 1.368 . S
C645 C629 1.349 . S
C645 H637 0.950 . S
C645 C643 1.327 . S
C646 C634 1.349 . S
C646 H640 0.950 . S
C646 C647 1.327 . S
C647 H641 0.950 . S
C647 C646 1.327 . S
C647 C651 1.429 . S
C648 C631 1.574 . S
C648 H642 0.949 . S
C648 C652 1.368 . S
C649 C630 1.429 . S
C649 C643 1.429 . S
C649 C650 1.523 . S
C650 C631 1.368 . S
C650 C644 1.368 . S
C650 C649 1.523 . S
C651 C635 1.429 . S
C651 C647 1.429 . S
C651 C652 1.523 . S
C652 C636 1.368 . S
C652 C648 1.368 . S
C652 C651 1.523 . S
H653 C628 0.950 . S
H654 C630 0.950 . S
H655 C631 0.949 . S
H656 C633 0.950 . S
H657 C635 0.950 . S
C658 C659 1.349 . S
C658 C660 1.327 . S
C658 H683 0.950 . S
C659 C658 1.349 . S
C659 C675 1.349 . S
C660 C658 1.327 . S
C660 C679 1.429 . S
C660 H684 0.950 . S
C661 C678 1.574 . S
C661 C680 1.368 . S
C661 H685 0.949 . S
H662 C666 0.949 . S
C663 C664 1.349 . S
C663 C665 1.327 . S
C663 H686 0.950 . S
C664 C663 1.349 . S
C664 C676 1.349 . S
C665 C663 1.327 . S
C665 C681 1.429 . S
C665 H687 0.950 . S
C666 H662 0.949 . S
C666 C674 1.574 . S
C666 C682 1.368 . S
H667 C675 0.950 . S
H668 C673 0.950 . S
H669 C674 0.949 . S
H670 C676 0.950 . S
H671 C677 0.950 . S
H672 C678 0.949 . S
C673 H668 0.950 . S
C673 C675 1.327 . S
C673 C679 1.429 . S
C674 C666 1.574 . S
C674 H669 0.949 . S
C674 C680 1.368 . S
C675 C659 1.349 . S
C675 H667 0.950 . S
C675 C673 1.327 . S
C676 C664 1.349 . S
C676 H670 0.950 . S
C676 C677 1.327 . S
C677 H671 0.950 . S
C677 C676 1.327 . S
C677 C681 1.429 . S
C678 C661 1.574 . S
C678 H672 0.949 . S
C678 C682 1.368 . S
C679 C660 1.429 . S
C679 C673 1.429 . S
C679 C680 1.523 . S
C680 C661 1.368 . S
C680 C674 1.368 . S
C680 C679 1.523 . S
C681 C665 1.429 . S
C681 C677 1.429 . S
C681 C682 1.523 . S
C682 C666 1.368 . S
C682 C678 1.368 . S
C682 C681 1.523 . S
H683 C658 0.950 . S
H684 C660 0.950 . S
H685 C661 0.949 . S
H686 C663 0.950 . S
H687 C665 0.950 . S
C688 C689 1.349 . S
C688 C690 1.327 . S
C688 H713 0.950 . S
C689 C688 1.349 . S
C689 C705 1.349 . S
C690 C688 1.327 . S
C690 C709 1.429 . S
C690 H714 0.950 . S
C691 C708 1.574 . S
C691 C710 1.368 . S
C691 H715 0.949 . S
H692 C696 0.949 . S
C693 C694 1.349 . S
C693 C695 1.327 . S
C693 H716 0.950 . S
C694 C693 1.349 . S
C694 C706 1.349 . S
C695 C693 1.327 . S
C695 C711 1.429 . S
C695 H717 0.950 . S
C696 H692 0.949 . S
C696 C704 1.574 . S
C696 C712 1.368 . S
H697 C705 0.950 . S
H698 C703 0.950 . S
H699 C704 0.949 . S
H700 C706 0.950 . S
H701 C707 0.950 . S
H702 C708 0.949 . S
C703 H698 0.950 . S
C703 C705 1.327 . S
C703 C709 1.429 . S
C704 C696 1.574 . S
C704 H699 0.949 . S
C704 C710 1.368 . S
C705 C689 1.349 . S
C705 H697 0.950 . S
C705 C703 1.327 . S
C706 C694 1.349 . S
C706 H700 0.950 . S
C706 C707 1.327 . S
C707 H701 0.950 . S
C707 C706 1.327 . S
C707 C711 1.429 . S
C708 C691 1.574 . S
C708 H702 0.949 . S
C708 C712 1.368 . S
C709 C690 1.429 . S
C709 C703 1.429 . S
C709 C710 1.523 . S
C710 C691 1.368 . S
C710 C704 1.368 . S
C710 C709 1.523 . S
C711 C695 1.429 . S
C711 C707 1.429 . S
C711 C712 1.523 . S
C712 C696 1.368 . S
C712 C708 1.368 . S
C712 C711 1.523 . S
H713 C688 0.950 . S
H714 C690 0.950 . S
H715 C691 0.949 . S
H716 C693 0.950 . S
H717 C695 0.950 . S
C718 C719 1.349 . S
C718 C720 1.327 . S
C718 H743 0.950 . S
C719 C718 1.349 . S
C719 C735 1.349 . S
C720 C718 1.327 . S
C720 C739 1.429 . S
C720 H744 0.950 . S
C721 C738 1.574 . S
C721 C740 1.368 . S
C721 H745 0.949 . S
H722 C726 0.949 . S
C723 C724 1.349 . S
C723 C725 1.327 . S
C723 H746 0.950 . S
C724 C723 1.349 . S
C724 C736 1.349 . S
C725 C723 1.327 . S
C725 C741 1.429 . S
C725 H747 0.950 . S
C726 H722 0.949 . S
C726 C734 1.574 . S
C726 C742 1.368 . S
H727 C735 0.950 . S
H728 C733 0.950 . S
H729 C734 0.949 . S
H730 C736 0.950 . S
H731 C737 0.950 . S
H732 C738 0.949 . S
C733 H728 0.950 . S
C733 C735 1.327 . S
C733 C739 1.429 . S
C734 C726 1.574 . S
C734 H729 0.949 . S
C734 C740 1.368 . S
C735 C719 1.349 . S
C735 H727 0.950 . S
C735 C733 1.327 . S
C736 C724 1.349 . S
C736 H730 0.950 . S
C736 C737 1.327 . S
C737 H731 0.950 . S
C737 C736 1.327 . S
C737 C741 1.429 . S
C738 C721 1.574 . S
C738 H732 0.949 . S
C738 C742 1.368 . S
C739 C720 1.429 . S
C739 C733 1.429 . S
C739 C740 1.523 . S
C740 C721 1.368 . S
C740 C734 1.368 . S
C740 C739 1.523 . S
C741 C725 1.429 . S
C741 C737 1.429 . S
C741 C742 1.523 . S
C742 C726 1.368 . S
C742 C738 1.368 . S
C742 C741 1.523 . S
H743 C718 0.950 . S
H744 C720 0.950 . S
H745 C721 0.949 . S
H746 C723 0.950 . S
H747 C725 0.950 . S
C748 C749 1.349 . S
C748 C750 1.327 . S
C748 H773 0.950 . S
C749 C748 1.349 . S
C749 C765 1.349 . S
C750 C748 1.327 . S
C750 C769 1.429 . S
C750 H774 0.950 . S
C751 C768 1.574 . S
C751 C770 1.368 . S
C751 H775 0.949 . S
H752 C756 0.949 . S
C753 C754 1.349 . S
C753 C755 1.327 . S
C753 H776 0.950 . S
C754 C753 1.349 . S
C754 C766 1.349 . S
C755 C753 1.327 . S
C755 C771 1.429 . S
C755 H777 0.950 . S
C756 H752 0.949 . S
C756 C764 1.574 . S
C756 C772 1.368 . S
H757 C765 0.950 . S
H758 C763 0.950 . S
H759 C764 0.949 . S
H760 C766 0.950 . S
H761 C767 0.950 . S
H762 C768 0.949 . S
C763 H758 0.950 . S
C763 C765 1.327 . S
C763 C769 1.429 . S
C764 C756 1.574 . S
C764 H759 0.949 . S
C764 C770 1.368 . S
C765 C749 1.349 . S
C765 H757 0.950 . S
C765 C763 1.327 . S
C766 C754 1.349 . S
C766 H760 0.950 . S
C766 C767 1.327 . S
C767 H761 0.950 . S
C767 C766 1.327 . S
C767 C771 1.429 . S
C768 C751 1.574 . S
C768 H762 0.949 . S
C768 C772 1.368 . S
C769 C750 1.429 . S
C769 C763 1.429 . S
C769 C770 1.523 . S
C770 C751 1.368 . S
C770 C764 1.368 . S
C770 C769 1.523 . S
C771 C755 1.429 . S
C771 C767 1.429 . S
C771 C772 1.523 . S
C772 C756 1.368 . S
C772 C768 1.368 . S
C772 C771 1.523 . S
H773 C748 0.950 . S
H774 C750 0.950 . S
H775 C751 0.949 . S
H776 C753 0.950 . S
H777 C755 0.950 . S
C778 C779 1.349 . S
C778 C780 1.327 . S
C778 H803 0.950 . S
C779 C778 1.349 . S
C779 C795 1.349 . S
C780 C778 1.327 . S
C780 C799 1.429 . S
C780 H804 0.950 . S
C781 C798 1.574 . S
C781 C800 1.368 . S
C781 H805 0.949 . S
H782 C786 0.949 . S
C783 C784 1.349 . S
C783 C785 1.327 . S
C783 H806 0.950 . S
C784 C783 1.349 . S
C784 C796 1.349 . S
C785 C783 1.327 . S
C785 C801 1.429 . S
C785 H807 0.950 . S
C786 H782 0.949 . S
C786 C794 1.574 . S
C786 C802 1.368 . S
H787 C795 0.950 . S
H788 C793 0.950 . S
H789 C794 0.949 . S
H790 C796 0.950 . S
H791 C797 0.950 . S
H792 C798 0.949 . S
C793 H788 0.950 . S
C793 C795 1.327 . S
C793 C799 1.429 . S
C794 C786 1.574 . S
C794 H789 0.949 . S
C794 C800 1.368 . S
C795 C779 1.349 . S
C795 H787 0.950 . S
C795 C793 1.327 . S
C796 C784 1.349 . S
C796 H790 0.950 . S
C796 C797 1.327 . S
C797 H791 0.950 . S
C797 C796 1.327 . S
C797 C801 1.429 . S
C798 C781 1.574 . S
C798 H792 0.949 . S
C798 C802 1.368 . S
C799 C780 1.429 . S
C799 C793 1.429 . S
C799 C800 1.523 . S
C800 C781 1.368 . S
C800 C794 1.368 . S
C800 C799 1.523 . S
C801 C785 1.429 . S
C801 C797 1.429 . S
C801 C802 1.523 . S
C802 C786 1.368 . S
C802 C798 1.368 . S
C802 C801 1.523 . S
H803 C778 0.950 . S
H804 C780 0.950 . S
H805 C781 0.949 . S
H806 C783 0.950 . S
H807 C785 0.950 . S
C808 C809 1.349 . S
C808 C810 1.327 . S
C808 H833 0.950 . S
C809 C808 1.349 . S
C809 C825 1.349 . S
C810 C808 1.327 . S
C810 C829 1.429 . S
C810 H834 0.950 . S
C811 C828 1.574 . S
C811 C830 1.368 . S
C811 H835 0.949 . S
H812 C816 0.949 . S
C813 C814 1.349 . S
C813 C815 1.327 . S
C813 H836 0.950 . S
C814 C813 1.349 . S
C814 C826 1.349 . S
C815 C813 1.327 . S
C815 C831 1.429 . S
C815 H837 0.950 . S
C816 H812 0.949 . S
C816 C824 1.574 . S
C816 C832 1.368 . S
H817 C825 0.950 . S
H818 C823 0.950 . S
H819 C824 0.949 . S
H820 C826 0.950 . S
H821 C827 0.950 . S
H822 C828 0.949 . S
C823 H818 0.950 . S
C823 C825 1.327 . S
C823 C829 1.429 . S
C824 C816 1.574 . S
C824 H819 0.949 . S
C824 C830 1.368 . S
C825 C809 1.349 . S
C825 H817 0.950 . S
C825 C823 1.327 . S
C826 C814 1.349 . S
C826 H820 0.950 . S
C826 C827 1.327 . S
C827 H821 0.950 . S
C827 C826 1.327 . S
C827 C831 1.429 . S
C828 C811 1.574 . S
C828 H822 0.949 . S
C828 C832 1.368 . S
C829 C810 1.429 . S
C829 C823 1.429 . S
C829 C830 1.523 . S
C830 C811 1.368 . S
C830 C824 1.368 . S
C830 C829 1.523 . S
C831 C815 1.429 . S
C831 C827 1.429 . S
C831 C832 1.523 . S
C832 C816 1.368 . S
C832 C828 1.368 . S
C832 C831 1.523 . S
H833 C808 0.950 . S
H834 C810 0.950 . S
H835 C811 0.949 . S
H836 C813 0.950 . S
H837 C815 0.950 . S
C838 C839 1.349 . S
C838 C840 1.327 . S
C838 H863 0.950 . S
C839 C838 1.349 . S
C839 C855 1.349 . S
C840 C838 1.327 . S
C840 C859 1.429 . S
C840 H864 0.950 . S
C841 C858 1.574 . S
C841 C860 1.368 . S
C841 H865 0.949 . S
H842 C846 0.949 . S
C843 C844 1.349 . S
C843 C845 1.327 . S
C843 H866 0.950 . S
C844 C843 1.349 . S
C844 C856 1.349 . S
C845 C843 1.327 . S
C845 C861 1.429 . S
C845 H867 0.950 . S
C846 H842 0.949 . S
C846 C854 1.574 . S
C846 C862 1.368 . S
H847 C855 0.950 . S
H848 C853 0.950 . S
H849 C854 0.949 . S
H850 C856 0.950 . S
H851 C857 0.950 . S
H852 C858 0.949 . S
C853 H848 0.950 . S
C853 C855 1.327 . S
C853 C859 1.429 . S
C854 C846 1.574 . S
C854 H849 0.949 . S
C854 C860 1.368 . S
C855 C839 1.349 . S
C855 H847 0.950 . S
C855 C853 1.327 . S
C856 C844 1.349 . S
C856 H850 0.950 . S
C856 C857 1.327 . S
C857 H851 0.950 . S
C857 C856 1.327 . S
C857 C861 1.429 . S
C858 C841 1.574 . S
C858 H852 0.949 . S
C858 C862 1.368 . S
C859 C840 1.429 . S
C859 C853 1.429 . S
C859 C860 1.523 . S
C860 C841 1.368 . S
C860 C854 1.368 . S
C860 C859 1.523 . S
C861 C845 1.429 . S
C861 C857 1.429 . S
C861 C862 1.523 . S
C862 C846 1.368 . S
C862 C858 1.368 . S
C862 C861 1.523 . S
H863 C838 0.950 . S
H864 C840 0.950 . S
H865 C841 0.949 . S
H866 C843 0.950 . S
H867 C845 0.950 . S
C868 C869 1.349 . S
C868 C870 1.327 . S
C868 H893 0.950 . S
C869 C868 1.349 . S
C869 C885 1.349 . S
C870 C868 1.327 . S
C870 C889 1.429 . S
C870 H894 0.950 . S
C871 C888 1.574 . S
C871 C890 1.368 . S
C871 H895 0.949 . S
H872 C876 0.949 . S
C873 C874 1.349 . S
C873 C875 1.327 . S
C873 H896 0.950 . S
C874 C873 1.349 . S
C874 C886 1.349 . S
C875 C873 1.327 . S
C875 C891 1.429 . S
C875 H897 0.950 . S
C876 H872 0.949 . S
C876 C884 1.574 . S
C876 C892 1.368 . S
H877 C885 0.950 . S
H878 C883 0.950 . S
H879 C884 0.949 . S
H880 C886 0.950 . S
H881 C887 0.950 . S
H882 C888 0.949 . S
C883 H878 0.950 . S
C883 C885 1.327 . S
C883 C889 1.429 . S
C884 C876 1.574 . S
C884 H879 0.949 . S
C884 C890 1.368 . S
C885 C869 1.349 . S
C885 H877 0.950 . S
C885 C883 1.327 . S
C886 C874 1.349 . S
C886 H880 0.950 . S
C886 C887 1.327 . S
C887 H881 0.950 . S
C887 C886 1.327 . S
C887 C891 1.429 . S
C888 C871 1.574 . S
C888 H882 0.949 . S
C888 C892 1.368 . S
C889 C870 1.429 . S
C889 C883 1.429 . S
C889 C890 1.523 . S
C890 C871 1.368 . S
C890 C884 1.368 . S
C890 C889 1.523 . S
C891 C875 1.429 . S
C891 C887 1.429 . S
C891 C892 1.523 . S
C892 C876 1.368 . S
C892 C888 1.368 . S
C892 C891 1.523 . S
H893 C868 0.950 . S
H894 C870 0.950 . S
H895 C871 0.949 . S
H896 C873 0.950 . S
H897 C875 0.950 . S
C898 C899 1.349 . S
C898 C900 1.327 . S
C898 H923 0.950 . S
C899 C898 1.349 . S
C899 C915 1.349 . S
C900 C898 1.327 . S
C900 C919 1.429 . S
C900 H924 0.950 . S
C901 C918 1.574 . S
C901 C920 1.368 . S
C901 H925 0.949 . S
H902 C906 0.949 . S
C903 C904 1.349 . S
C903 C905 1.327 . S
C903 H926 0.950 . S
C904 C903 1.349 . S
C904 C916 1.349 . S
C905 C903 1.327 . S
C905 C921 1.429 . S
C905 H927 0.950 . S
C906 H902 0.949 . S
C906 C914 1.574 . S
C906 C922 1.368 . S
H907 C915 0.950 . S
H908 C913 0.950 . S
H909 C914 0.949 . S
H910 C916 0.950 . S
H911 C917 0.950 . S
H912 C918 0.949 . S
C913 H908 0.950 . S
C913 C915 1.327 . S
C913 C919 1.429 . S
C914 C906 1.574 . S
C914 H909 0.949 . S
C914 C920 1.368 . S
C915 C899 1.349 . S
C915 H907 0.950 . S
C915 C913 1.327 . S
C916 C904 1.349 . S
C916 H910 0.950 . S
C916 C917 1.327 . S
C917 H911 0.950 . S
C917 C916 1.327 . S
C917 C921 1.429 . S
C918 C901 1.574 . S
C918 H912 0.949 . S
C918 C922 1.368 . S
C919 C900 1.429 . S
C919 C913 1.429 . S
C919 C920 1.523 . S
C920 C901 1.368 . S
C920 C914 1.368 . S
C920 C919 1.523 . S
C921 C905 1.429 . S
C921 C917 1.429 . S
C921 C922 1.523 . S
C922 C906 1.368 . S
C922 C918 1.368 . S
C922 C921 1.523 . S
H923 C898 0.950 . S
H924 C900 0.950 . S
H925 C901 0.949 . S
H926 C903 0.950 . S
H927 C905 0.950 . S
C928 C929 1.349 . S
C928 C930 1.327 . S
C928 H953 0.950 . S
C929 C928 1.349 . S
C929 C945 1.349 . S
C930 C928 1.327 . S
C930 C949 1.429 . S
C930 H954 0.950 . S
C931 C948 1.574 1_565 S
C931 C950 1.368 1_455 S
C931 H955 0.949 . S
H932 C936 0.949 . S
C933 C934 1.349 . S
C933 C935 1.327 . S
C933 H956 0.950 . S
C934 C933 1.349 . S
C934 C946 1.349 . S
C935 C933 1.327 . S
C935 C951 1.429 . S
C935 H957 0.950 . S
C936 H932 0.949 . S
C936 C944 1.574 1_545 S
C936 C952 1.368 1_655 S
H937 C945 0.950 . S
H938 C943 0.950 . S
H939 C944 0.949 . S
H940 C946 0.950 . S
H941 C947 0.950 . S
H942 C948 0.949 . S
C943 H938 0.950 . S
C943 C945 1.327 . S
C943 C949 1.429 . S
C944 C936 1.574 1_565 S
C944 H939 0.949 . S
C944 C950 1.368 . S
C945 C929 1.349 . S
C945 H937 0.950 . S
C945 C943 1.327 . S
C946 C934 1.349 . S
C946 H940 0.950 . S
C946 C947 1.327 . S
C947 H941 0.950 . S
C947 C946 1.327 . S
C947 C951 1.429 . S
C948 C931 1.574 1_545 S
C948 H942 0.949 . S
C948 C952 1.368 . S
C949 C930 1.429 . S
C949 C943 1.429 . S
C949 C950 1.523 . S
C950 C931 1.368 1_655 S
C950 C944 1.368 . S
C950 C949 1.523 . S
C951 C935 1.429 . S
C951 C947 1.429 . S
C951 C952 1.523 . S
C952 C936 1.368 1_455 S
C952 C948 1.368 . S
C952 C951 1.523 . S
H953 C928 0.950 . S
H954 C930 0.950 . S
H955 C931 0.949 . S
H956 C933 0.950 . S
H957 C935 0.950 . S
C958 C959 1.349 . S
C958 C960 1.327 . S
C958 H983 0.950 . S
C959 C958 1.349 . S
C959 C975 1.349 . S
C960 C958 1.327 . S
C960 C979 1.429 . S
C960 H984 0.950 . S
C961 C978 1.574 1_655 S
C961 C980 1.368 . S
C961 H985 0.949 . S
H962 C966 0.949 . S
C963 C964 1.349 . S
C963 C965 1.327 . S
C963 H986 0.950 . S
C964 C963 1.349 . S
C964 C976 1.349 . S
C965 C963 1.327 . S
C965 C981 1.429 . S
C965 H987 0.950 . S
C966 H962 0.949 . S
C966 C974 1.574 1_455 S
C966 C982 1.368 . S
H967 C975 0.950 . S
H968 C973 0.950 . S
H969 C974 0.949 . S
H970 C976 0.950 . S
H971 C977 0.950 . S
H972 C978 0.949 . S
C973 H968 0.950 . S
C973 C975 1.327 . S
C973 C979 1.429 . S
C974 C966 1.574 1_655 S
C974 H969 0.949 . S
C974 C980 1.368 1_565 S
C975 C959 1.349 . S
C975 H967 0.950 . S
C975 C973 1.327 . S
C976 C964 1.349 . S
C976 H970 0.950 . S
C976 C977 1.327 . S
C977 H971 0.950 . S
C977 C976 1.327 . S
C977 C981 1.429 . S
C978 C961 1.574 1_455 S
C978 H972 0.949 . S
C978 C982 1.368 1_545 S
C979 C960 1.429 . S
C979 C973 1.429 . S
C979 C980 1.523 . S
C980 C961 1.368 . S
C980 C974 1.368 1_545 S
C980 C979 1.523 . S
C981 C965 1.429 . S
C981 C977 1.429 . S
C981 C982 1.523 . S
C982 C966 1.368 . S
C982 C978 1.368 1_565 S
C982 C981 1.523 . S
H983 C958 0.950 . S
H984 C960 0.950 . S
H985 C961 0.949 . S
H986 C963 0.950 . S
H987 C965 0.950 . S
C988 C989 1.349 . S
C988 C990 1.327 . S
C988 H1013 0.950 . S
C989 C988 1.349 . S
C989 C1005 1.349 . S
C990 C988 1.327 . S
C990 C1009 1.429 . S
C990 H1014 0.950 . S
C991 C1008 1.574 . S
C991 C1010 1.368 . S
C991 H1015 0.949 . S
H992 C996 0.949 . S
C993 C994 1.349 . S
C993 C995 1.327 . S
C993 H1016 0.950 . S
C994 C993 1.349 . S
C994 C1006 1.349 . S
C995 C993 1.327 . S
C995 C1011 1.429 . S
C995 H1017 0.950 . S
C996 H992 0.949 . S
C996 C1004 1.574 . S
C996 C1012 1.368 . S
H997 C1005 0.950 . S
H998 C1003 0.950 . S
H999 C1004 0.949 . S
H1000 C1006 0.950 . S
H1001 C1007 0.950 . S
H1002 C1008 0.949 . S
C1003 H998 0.950 . S
C1003 C1005 1.327 . S
C1003 C1009 1.429 . S
C1004 C996 1.574 . S
C1004 H999 0.949 . S
C1004 C1010 1.368 1_655 S
C1005 C989 1.349 . S
C1005 H997 0.950 . S
C1005 C1003 1.327 . S
C1006 C994 1.349 . S
C1006 H1000 0.950 . S
C1006 C1007 1.327 . S
C1007 H1001 0.950 . S
C1007 C1006 1.327 . S
C1007 C1011 1.429 . S
C1008 C991 1.574 . S
C1008 H1002 0.949 . S
C1008 C1012 1.368 1_455 S
C1009 C990 1.429 . S
C1009 C1003 1.429 . S
C1009 C1010 1.523 . S
C1010 C991 1.368 . S
C1010 C1004 1.368 1_455 S
C1010 C1009 1.523 . S
C1011 C995 1.429 . S
C1011 C1007 1.429 . S
C1011 C1012 1.523 . S
C1012 C996 1.368 . S
C1012 C1008 1.368 1_655 S
C1012 C1011 1.523 . S
H1013 C988 0.950 . S
H1014 C990 0.950 . S
H1015 C991 0.949 . S
H1016 C993 0.950 . S
H1017 C995 0.950 . S
C1018 C1019 1.349 . S
C1018 C1020 1.327 . S
C1018 H1043 0.950 . S
C1019 C1018 1.349 . S
C1019 C1035 1.349 . S
C1020 C1018 1.327 . S
C1020 C1039 1.429 . S
C1020 H1044 0.950 . S
C1021 C1038 1.574 . S
C1021 C1040 1.368 1_545 S
C1021 H1045 0.949 . S
H1022 C1026 0.949 . S
C1023 C1024 1.349 . S
C1023 C1025 1.327 . S
C1023 H1046 0.950 . S
C1024 C1023 1.349 . S
C1024 C1036 1.349 . S
C1025 C1023 1.327 . S
C1025 C1041 1.429 . S
C1025 H1047 0.950 . S
C1026 H1022 0.949 . S
C1026 C1034 1.574 . S
C1026 C1042 1.368 1_565 S
H1027 C1035 0.950 . S
H1028 C1033 0.950 . S
H1029 C1034 0.949 . S
H1030 C1036 0.950 . S
H1031 C1037 0.950 . S
H1032 C1038 0.949 . S
C1033 H1028 0.950 . S
C1033 C1035 1.327 . S
C1033 C1039 1.429 . S
C1034 C1026 1.574 . S
C1034 H1029 0.949 . S
C1034 C1040 1.368 . S
C1035 C1019 1.349 . S
C1035 H1027 0.950 . S
C1035 C1033 1.327 . S
C1036 C1024 1.349 . S
C1036 H1030 0.950 . S
C1036 C1037 1.327 . S
C1037 H1031 0.950 . S
C1037 C1036 1.327 . S
C1037 C1041 1.429 . S
C1038 C1021 1.574 . S
C1038 H1032 0.949 . S
C1038 C1042 1.368 . S
C1039 C1020 1.429 . S
C1039 C1033 1.429 . S
C1039 C1040 1.523 . S
C1040 C1021 1.368 1_565 S
C1040 C1034 1.368 . S
C1040 C1039 1.523 . S
C1041 C1025 1.429 . S
C1041 C1037 1.429 . S
C1041 C1042 1.523 . S
C1042 C1026 1.368 1_545 S
C1042 C1038 1.368 . S
C1042 C1041 1.523 . S
H1043 C1018 0.950 . S
H1044 C1020 0.950 . S
H1045 C1021 0.949 . S
H1046 C1023 0.950 . S
H1047 C1025 0.950 . S
C1048 C1049 1.349 . S
C1048 C1050 1.327 . S
C1048 H1073 0.950 . S
C1049 C1048 1.349 . S
C1049 C1065 1.349 . S
C1050 C1048 1.327 . S
C1050 C1069 1.429 . S
C1050 H1074 0.950 . S
C1051 C1068 1.574 . S
C1051 C1070 1.368 . S
C1051 H1075 0.949 . S
H1052 C1056 0.949 . S
C1053 C1054 1.349 . S
C1053 C1055 1.327 . S
C1053 H1076 0.950 . S
C1054 C1053 1.349 . S
C1054 C1066 1.349 . S
C1055 C1053 1.327 . S
C1055 C1071 1.429 . S
C1055 H1077 0.950 . S
C1056 H1052 0.949 . S
C1056 C1064 1.574 . S
C1056 C1072 1.368 . S
H1057 C1065 0.950 . S
H1058 C1063 0.950 . S
H1059 C1064 0.949 . S
H1060 C1066 0.950 . S
H1061 C1067 0.950 . S
H1062 C1068 0.949 . S
C1063 H1058 0.950 . S
C1063 C1065 1.327 . S
C1063 C1069 1.429 . S
C1064 C1056 1.574 . S
C1064 H1059 0.949 . S
C1064 C1070 1.368 . S
C1065 C1049 1.349 . S
C1065 H1057 0.950 . S
C1065 C1063 1.327 . S
C1066 C1054 1.349 . S
C1066 H1060 0.950 . S
C1066 C1067 1.327 . S
C1067 H1061 0.950 . S
C1067 C1066 1.327 . S
C1067 C1071 1.429 . S
C1068 C1051 1.574 . S
C1068 H1062 0.949 . S
C1068 C1072 1.368 . S
C1069 C1050 1.429 . S
C1069 C1063 1.429 . S
C1069 C1070 1.523 . S
C1070 C1051 1.368 . S
C1070 C1064 1.368 . S
C1070 C1069 1.523 . S
C1071 C1055 1.429 . S
C1071 C1067 1.429 . S
C1071 C1072 1.523 . S
C1072 C1056 1.368 . S
C1072 C1068 1.368 . S
C1072 C1071 1.523 . S
H1073 C1048 0.950 . S
H1074 C1050 0.950 . S
H1075 C1051 0.949 . S
H1076 C1053 0.950 . S
H1077 C1055 0.950 . S
C1078 C1079 1.349 . S
C1078 C1080 1.327 . S
C1078 H1103 0.950 . S
C1079 C1078 1.349 . S
C1079 C1095 1.349 . S
C1080 C1078 1.327 . S
C1080 C1099 1.429 . S
C1080 H1104 0.950 . S
C1081 C1098 1.574 . S
C1081 C1100 1.368 . S
C1081 H1105 0.949 . S
H1082 C1086 0.949 . S
C1083 C1084 1.349 . S
C1083 C1085 1.327 . S
C1083 H1106 0.950 . S
C1084 C1083 1.349 . S
C1084 C1096 1.349 . S
C1085 C1083 1.327 . S
C1085 C1101 1.429 . S
C1085 H1107 0.950 . S
C1086 H1082 0.949 . S
C1086 C1094 1.574 . S
C1086 C1102 1.368 . S
H1087 C1095 0.950 . S
H1088 C1093 0.950 . S
H1089 C1094 0.949 . S
H1090 C1096 0.950 . S
H1091 C1097 0.950 . S
H1092 C1098 0.949 . S
C1093 H1088 0.950 . S
C1093 C1095 1.327 . S
C1093 C1099 1.429 . S
C1094 C1086 1.574 . S
C1094 H1089 0.949 . S
C1094 C1100 1.368 . S
C1095 C1079 1.349 . S
C1095 H1087 0.950 . S
C1095 C1093 1.327 . S
C1096 C1084 1.349 . S
C1096 H1090 0.950 . S
C1096 C1097 1.327 . S
C1097 H1091 0.950 . S
C1097 C1096 1.327 . S
C1097 C1101 1.429 . S
C1098 C1081 1.574 . S
C1098 H1092 0.949 . S
C1098 C1102 1.368 . S
C1099 C1080 1.429 . S
C1099 C1093 1.429 . S
C1099 C1100 1.523 . S
C1100 C1081 1.368 . S
C1100 C1094 1.368 . S
C1100 C1099 1.523 . S
C1101 C1085 1.429 . S
C1101 C1097 1.429 . S
C1101 C1102 1.523 . S
C1102 C1086 1.368 . S
C1102 C1098 1.368 . S
C1102 C1101 1.523 . S
H1103 C1078 0.950 . S
H1104 C1080 0.950 . S
H1105 C1081 0.949 . S
H1106 C1083 0.950 . S
H1107 C1085 0.950 . S
C1108 C1109 1.349 . S
C1108 C1110 1.327 . S
C1108 H1133 0.950 . S
C1109 C1108 1.349 . S
C1109 C1125 1.349 . S
C1110 C1108 1.327 . S
C1110 C1129 1.429 . S
C1110 H1134 0.950 . S
C1111 C1128 1.574 1_545 S
C1111 C1130 1.368 . S
C1111 H1135 0.949 . S
H1112 C1116 0.949 . S
C1113 C1114 1.349 . S
C1113 C1115 1.327 . S
C1113 H1136 0.950 . S
C1114 C1113 1.349 . S
C1114 C1126 1.349 . S
C1115 C1113 1.327 . S
C1115 C1131 1.429 . S
C1115 H1137 0.950 . S
C1116 H1112 0.949 . S
C1116 C1124 1.574 1_565 S
C1116 C1132 1.368 . S
H1117 C1125 0.950 . S
H1118 C1123 0.950 . S
H1119 C1124 0.949 . S
H1120 C1126 0.950 . S
H1121 C1127 0.950 . S
H1122 C1128 0.949 . S
C1123 H1118 0.950 . S
C1123 C1125 1.327 . S
C1123 C1129 1.429 . S
C1124 C1116 1.574 1_545 S
C1124 H1119 0.949 . S
C1124 C1130 1.368 . S
C1125 C1109 1.349 . S
C1125 H1117 0.950 . S
C1125 C1123 1.327 . S
C1126 C1114 1.349 . S
C1126 H1120 0.950 . S
C1126 C1127 1.327 . S
C1127 H1121 0.950 . S
C1127 C1126 1.327 . S
C1127 C1131 1.429 . S
C1128 C1111 1.574 1_565 S
C1128 H1122 0.949 . S
C1128 C1132 1.368 . S
C1129 C1110 1.429 . S
C1129 C1123 1.429 . S
C1129 C1130 1.523 . S
C1130 C1111 1.368 . S
C1130 C1124 1.368 . S
C1130 C1129 1.523 . S
C1131 C1115 1.429 . S
C1131 C1127 1.429 . S
C1131 C1132 1.523 . S
C1132 C1116 1.368 . S
C1132 C1128 1.368 . S
C1132 C1131 1.523 . S
H1133 C1108 0.950 . S
H1134 C1110 0.950 . S
H1135 C1111 0.949 . S
H1136 C1113 0.950 . S
H1137 C1115 0.950 . S
C1138 C1139 1.349 . S
C1138 C1140 1.327 . S
C1138 H1163 0.950 . S
C1139 C1138 1.349 . S
C1139 C1155 1.349 . S
C1140 C1138 1.327 . S
C1140 C1159 1.429 . S
C1140 H1164 0.950 . S
C1141 C1158 1.574 1_655 S
C1141 C1160 1.368 . S
C1141 H1165 0.949 . S
H1142 C1146 0.949 . S
C1143 C1144 1.349 . S
C1143 C1145 1.327 . S
C1143 H1166 0.950 . S
C1144 C1143 1.349 . S
C1144 C1156 1.349 . S
C1145 C1143 1.327 . S
C1145 C1161 1.429 . S
C1145 H1167 0.950 . S
C1146 H1142 0.949 . S
C1146 C1154 1.574 1_455 S
C1146 C1162 1.368 . S
H1147 C1155 0.950 . S
H1148 C1153 0.950 . S
H1149 C1154 0.949 . S
H1150 C1156 0.950 . S
H1151 C1157 0.950 . S
H1152 C1158 0.949 . S
C1153 H1148 0.950 . S
C1153 C1155 1.327 . S
C1153 C1159 1.429 . S
C1154 C1146 1.574 1_655 S
C1154 H1149 0.949 . S
C1154 C1160 1.368 . S
C1155 C1139 1.349 . S
C1155 H1147 0.950 . S
C1155 C1153 1.327 . S
C1156 C1144 1.349 . S
C1156 H1150 0.950 . S
C1156 C1157 1.327 . S
C1157 H1151 0.950 . S
C1157 C1156 1.327 . S
C1157 C1161 1.429 . S
C1158 C1141 1.574 1_455 S
C1158 H1152 0.949 . S
C1158 C1162 1.368 . S
C1159 C1140 1.429 . S
C1159 C1153 1.429 . S
C1159 C1160 1.523 . S
C1160 C1141 1.368 . S
C1160 C1154 1.368 . S
C1160 C1159 1.523 . S
C1161 C1145 1.429 . S
C1161 C1157 1.429 . S
C1161 C1162 1.523 . S
C1162 C1146 1.368 . S
C1162 C1158 1.368 . S
C1162 C1161 1.523 . S
H1163 C1138 0.950 . S
H1164 C1140 0.950 . S
H1165 C1141 0.949 . S
H1166 C1143 0.950 . S
H1167 C1145 0.950 . S
C209 C5 1.071 . S
C214 C148 1.058 . S
C239 C107 1.058 . S
C244 C18 1.071 . S
C269 C120 1.058 . S
C274 C29 1.071 . S
C299 C135 1.058 . S
C304 C42 1.071 . S
C329 C68 1.058 1_545 S
C334 C57 1.071 . S
C359 C70 1.071 . S
C364 C83 1.058 1_455 S
C389 C81 1.071 . S
C394 C96 1.058 1_565 S
C419 C94 1.071 . S
C424 C55 1.058 1_655 S
C449 C109 1.071 . S
C454 C44 1.058 1_565 S
C479 C3 1.058 1_655 S
C484 C122 1.071 . S
C509 C16 1.058 1_545 S
C514 C133 1.071 . S
C539 C31 1.058 1_455 S
C544 C146 1.071 . S
C569 C172 1.058 . S
C574 C159 1.071 . S
C599 C174 1.071 . S
C604 C187 1.058 . S
C629 C200 1.058 . S
C634 C185 1.071 . S
C659 C161 1.058 . S
C664 C198 1.071 . S
C689 C186 1.731 . S
C694 C10 1.731 . S
C719 C199 1.731 . S
C724 C23 1.731 . S
C749 C160 1.731 . S
C754 C30 1.731 . S
C779 C43 1.731 . S
C784 C179 1.731 . S
C809 C62 1.731 . S
C814 C134 1.731 . S
C839 C147 1.731 . S
C844 C75 1.731 . S
C869 C82 1.731 . S
C874 C114 1.731 . S
C899 C95 1.731 . S
C904 C127 1.731 . S
C929 C36 1.311 . S
C934 C4 1.311 . S
C959 C49 1.311 . S
C964 C17 1.311 . S
C989 C56 1.311 . S
C994 C88 1.311 . S
C1019 C69 1.311 . S
C1024 C101 1.311 . S
C1049 C140 1.311 . S
C1054 C108 1.311 . S
C1079 C121 1.311 . S
C1084 C153 1.311 . S
C1109 C192 1.311 . S
C1114 C166 1.311 . S
C1139 C173 1.311 . S
C1144 C205 1.311 . S
