# Generated by pormake.
# Topology uos, (4)-cn, num edge types: 1
# Building blocks:
#     Node 0, Type 0, BuildingBlock: AZAVOO_clean_sbu_0, # of connection points: 4
#     Node 1, Type 0, BuildingBlock: AZAVOO_clean_sbu_0, # of connection points: 4
#     Node 2, Type 0, BuildingBlock: AZAVOO_clean_sbu_0, # of connection points: 4
#     Node 3, Type 0, BuildingBlock: AZAVOO_clean_sbu_0, # of connection points: 4
#     Node 4, Type 0, BuildingBlock: AZAVOO_clean_sbu_0, # of connection points: 4
#     Node 5, Type 0, BuildingBlock: AZAVOO_clean_sbu_0, # of connection points: 4
#     Node 6, Type 0, BuildingBlock: AZAVOO_clean_sbu_0, # of connection points: 4
#     Node 7, Type 0, BuildingBlock: AZAVOO_clean_sbu_0, # of connection points: 4
#     Node 8, Type 0, BuildingBlock: AZAVOO_clean_sbu_0, # of connection points: 4
#     Node 9, Type 0, BuildingBlock: AZAVOO_clean_sbu_0, # of connection points: 4
#     Node 10, Type 0, BuildingBlock: AZAVOO_clean_sbu_0, # of connection points: 4
#     Node 11, Type 0, BuildingBlock: AZAVOO_clean_sbu_0, # of connection points: 4
#     Node 12, Type 0, BuildingBlock: AZAVOO_clean_sbu_0, # of connection points: 4
#     Node 13, Type 0, BuildingBlock: AZAVOO_clean_sbu_0, # of connection points: 4
#     Node 14, Type 0, BuildingBlock: AZAVOO_clean_sbu_0, # of connection points: 4
#     Node 15, Type 0, BuildingBlock: AZAVOO_clean_sbu_0, # of connection points: 4
#     Node 16, Type 0, BuildingBlock: AZAVOO_clean_sbu_0, # of connection points: 4
#     Node 17, Type 0, BuildingBlock: AZAVOO_clean_sbu_0, # of connection points: 4
#     Node 18, Type 0, BuildingBlock: AZAVOO_clean_sbu_0, # of connection points: 4
#     Node 19, Type 0, BuildingBlock: AZAVOO_clean_sbu_0, # of connection points: 4
#     Node 20, Type 0, BuildingBlock: AZAVOO_clean_sbu_0, # of connection points: 4
#     Node 21, Type 0, BuildingBlock: AZAVOO_clean_sbu_0, # of connection points: 4
#     Node 22, Type 0, BuildingBlock: AZAVOO_clean_sbu_0, # of connection points: 4
#     Node 23, Type 0, BuildingBlock: AZAVOO_clean_sbu_0, # of connection points: 4
#     Node 24, Type 0, BuildingBlock: AZAVOO_clean_sbu_0, # of connection points: 4
#     Node 25, Type 0, BuildingBlock: AZAVOO_clean_sbu_0, # of connection points: 4
#     Node 26, Type 0, BuildingBlock: AZAVOO_clean_sbu_0, # of connection points: 4
#     Node 27, Type 0, BuildingBlock: AZAVOO_clean_sbu_0, # of connection points: 4
#     Node 28, Type 0, BuildingBlock: AZAVOO_clean_sbu_0, # of connection points: 4
#     Node 29, Type 0, BuildingBlock: AZAVOO_clean_sbu_0, # of connection points: 4
#     Node 30, Type 0, BuildingBlock: AZAVOO_clean_sbu_0, # of connection points: 4
#     Node 31, Type 0, BuildingBlock: AZAVOO_clean_sbu_0, # of connection points: 4
#     Edge 32, Type (0, 0), BuildingBlock: TEMPAE_clean_linker_10, # of connection points: 2
#     Edge 33, Type (0, 0), BuildingBlock: TEMPAE_clean_linker_10, # of connection points: 2
#     Edge 34, Type (0, 0), BuildingBlock: TEMPAE_clean_linker_10, # of connection points: 2
#     Edge 35, Type (0, 0), BuildingBlock: TEMPAE_clean_linker_10, # of connection points: 2
#     Edge 36, Type (0, 0), BuildingBlock: TEMPAE_clean_linker_10, # of connection points: 2
#     Edge 37, Type (0, 0), BuildingBlock: TEMPAE_clean_linker_10, # of connection points: 2
#     Edge 38, Type (0, 0), BuildingBlock: TEMPAE_clean_linker_10, # of connection points: 2
#     Edge 39, Type (0, 0), BuildingBlock: TEMPAE_clean_linker_10, # of connection points: 2
#     Edge 40, Type (0, 0), BuildingBlock: TEMPAE_clean_linker_10, # of connection points: 2
#     Edge 41, Type (0, 0), BuildingBlock: TEMPAE_clean_linker_10, # of connection points: 2
#     Edge 42, Type (0, 0), BuildingBlock: TEMPAE_clean_linker_10, # of connection points: 2
#     Edge 43, Type (0, 0), BuildingBlock: TEMPAE_clean_linker_10, # of connection points: 2
#     Edge 44, Type (0, 0), BuildingBlock: TEMPAE_clean_linker_10, # of connection points: 2
#     Edge 45, Type (0, 0), BuildingBlock: TEMPAE_clean_linker_10, # of connection points: 2
#     Edge 46, Type (0, 0), BuildingBlock: TEMPAE_clean_linker_10, # of connection points: 2
#     Edge 47, Type (0, 0), BuildingBlock: TEMPAE_clean_linker_10, # of connection points: 2
#     Edge 48, Type (0, 0), BuildingBlock: TEMPAE_clean_linker_10, # of connection points: 2
#     Edge 49, Type (0, 0), BuildingBlock: TEMPAE_clean_linker_10, # of connection points: 2
#     Edge 50, Type (0, 0), BuildingBlock: TEMPAE_clean_linker_10, # of connection points: 2
#     Edge 51, Type (0, 0), BuildingBlock: TEMPAE_clean_linker_10, # of connection points: 2
#     Edge 52, Type (0, 0), BuildingBlock: TEMPAE_clean_linker_10, # of connection points: 2
#     Edge 53, Type (0, 0), BuildingBlock: TEMPAE_clean_linker_10, # of connection points: 2
#     Edge 54, Type (0, 0), BuildingBlock: TEMPAE_clean_linker_10, # of connection points: 2
#     Edge 55, Type (0, 0), BuildingBlock: TEMPAE_clean_linker_10, # of connection points: 2
#     Edge 56, Type (0, 0), BuildingBlock: TEMPAE_clean_linker_10, # of connection points: 2
#     Edge 57, Type (0, 0), BuildingBlock: TEMPAE_clean_linker_10, # of connection points: 2
#     Edge 58, Type (0, 0), BuildingBlock: TEMPAE_clean_linker_10, # of connection points: 2
#     Edge 59, Type (0, 0), BuildingBlock: TEMPAE_clean_linker_10, # of connection points: 2
#     Edge 60, Type (0, 0), BuildingBlock: TEMPAE_clean_linker_10, # of connection points: 2
#     Edge 61, Type (0, 0), BuildingBlock: TEMPAE_clean_linker_10, # of connection points: 2
#     Edge 62, Type (0, 0), BuildingBlock: TEMPAE_clean_linker_10, # of connection points: 2
#     Edge 63, Type (0, 0), BuildingBlock: TEMPAE_clean_linker_10, # of connection points: 2
#     Edge 64, Type (0, 0), BuildingBlock: TEMPAE_clean_linker_10, # of connection points: 2
#     Edge 65, Type (0, 0), BuildingBlock: TEMPAE_clean_linker_10, # of connection points: 2
#     Edge 66, Type (0, 0), BuildingBlock: TEMPAE_clean_linker_10, # of connection points: 2
#     Edge 67, Type (0, 0), BuildingBlock: TEMPAE_clean_linker_10, # of connection points: 2
#     Edge 68, Type (0, 0), BuildingBlock: TEMPAE_clean_linker_10, # of connection points: 2
#     Edge 69, Type (0, 0), BuildingBlock: TEMPAE_clean_linker_10, # of connection points: 2
#     Edge 70, Type (0, 0), BuildingBlock: TEMPAE_clean_linker_10, # of connection points: 2
#     Edge 71, Type (0, 0), BuildingBlock: TEMPAE_clean_linker_10, # of connection points: 2
#     Edge 72, Type (0, 0), BuildingBlock: TEMPAE_clean_linker_10, # of connection points: 2
#     Edge 73, Type (0, 0), BuildingBlock: TEMPAE_clean_linker_10, # of connection points: 2
#     Edge 74, Type (0, 0), BuildingBlock: TEMPAE_clean_linker_10, # of connection points: 2
#     Edge 75, Type (0, 0), BuildingBlock: TEMPAE_clean_linker_10, # of connection points: 2
#     Edge 76, Type (0, 0), BuildingBlock: TEMPAE_clean_linker_10, # of connection points: 2
#     Edge 77, Type (0, 0), BuildingBlock: TEMPAE_clean_linker_10, # of connection points: 2
#     Edge 78, Type (0, 0), BuildingBlock: TEMPAE_clean_linker_10, # of connection points: 2
#     Edge 79, Type (0, 0), BuildingBlock: TEMPAE_clean_linker_10, # of connection points: 2
#     Edge 80, Type (0, 0), BuildingBlock: TEMPAE_clean_linker_10, # of connection points: 2
#     Edge 81, Type (0, 0), BuildingBlock: TEMPAE_clean_linker_10, # of connection points: 2
#     Edge 82, Type (0, 0), BuildingBlock: TEMPAE_clean_linker_10, # of connection points: 2
#     Edge 83, Type (0, 0), BuildingBlock: TEMPAE_clean_linker_10, # of connection points: 2
#     Edge 84, Type (0, 0), BuildingBlock: TEMPAE_clean_linker_10, # of connection points: 2
#     Edge 85, Type (0, 0), BuildingBlock: TEMPAE_clean_linker_10, # of connection points: 2
#     Edge 86, Type (0, 0), BuildingBlock: TEMPAE_clean_linker_10, # of connection points: 2
#     Edge 87, Type (0, 0), BuildingBlock: TEMPAE_clean_linker_10, # of connection points: 2
#     Edge 88, Type (0, 0), BuildingBlock: TEMPAE_clean_linker_10, # of connection points: 2
#     Edge 89, Type (0, 0), BuildingBlock: TEMPAE_clean_linker_10, # of connection points: 2
#     Edge 90, Type (0, 0), BuildingBlock: TEMPAE_clean_linker_10, # of connection points: 2
#     Edge 91, Type (0, 0), BuildingBlock: TEMPAE_clean_linker_10, # of connection points: 2
#     Edge 92, Type (0, 0), BuildingBlock: TEMPAE_clean_linker_10, # of connection points: 2
#     Edge 93, Type (0, 0), BuildingBlock: TEMPAE_clean_linker_10, # of connection points: 2
#     Edge 94, Type (0, 0), BuildingBlock: TEMPAE_clean_linker_10, # of connection points: 2
#     Edge 95, Type (0, 0), BuildingBlock: TEMPAE_clean_linker_10, # of connection points: 2
# Relax obj value: 0.086
# Max RMSD: 0.112
# Mean RMSD: 0.112
data_MOF--net-uos--node1-AZAVOO_clean_sbu_0--edge1-TEMPAE_clean_linker_10
_symmetry_space_group_name_H-M    P1
_symmetry_Int_Tables_number       1
_symmetry_cell_setting            triclinic
loop_
_symmetry_equiv_pos_as_xyz
'x, y, z'
_cell_length_a     85.101002
_cell_length_b     85.078232
_cell_length_c     23.723522
_cell_angle_alpha  89.990317
_cell_angle_beta   89.984114
_cell_angle_gamma 90.001077
loop_
_atom_site_label
_atom_site_type_symbol
_atom_site_fract_x
_atom_site_fract_y
_atom_site_fract_z
_atom_type_partial_charge
Mg0 Mg 0.16485 0.16352 0.13719 0.0
O1 O 0.15316 0.15118 0.21253 0.0
O2 O 0.16677 0.15801 0.28939 0.0
Mg3 Mg 0.18643 0.17486 0.26419 0.0
C4 C 0.15564 0.15045 0.26558 0.0
C5 C 0.14916 0.15018 0.03527 0.0
O6 O 0.16431 0.14824 0.02728 0.0
O7 O 0.15345 0.18677 0.16182 0.0
O8 O 0.16869 0.19344 0.2347 0.0
O9 O 0.1818 0.14356 0.12684 0.0
O10 O 0.18626 0.16435 0.17986 0.0
C11 C 0.15765 0.1965 0.19988 0.0
C12 C 0.19092 0.1509 0.16156 0.0
O13 O 0.14453 0.15697 0.07994 0.0
Mg14 Mg 0.10576 0.93909 0.32556 0.0
O15 O 0.11005 0.92701 0.41027 0.0
O16 O 0.09871 0.94136 0.47818 0.0
Mg17 Mg 0.08823 0.96329 0.43622 0.0
C18 C 0.10652 0.92937 0.4619 0.0
C19 C 0.11801 0.91957 0.22902 0.0
O20 O 0.11948 0.93416 0.21164 0.0
O21 O 0.08013 0.93114 0.32766 0.0
O22 O 0.07017 0.94754 0.39216 0.0
O23 O 0.12815 0.95265 0.33791 0.0
O24 O 0.10453 0.96055 0.36525 0.0
C25 C 0.06855 0.93657 0.35581 0.0
C26 C 0.11945 0.96279 0.36403 0.0
O27 O 0.11267 0.91707 0.27816 0.0
Mg28 Mg 0.3302 0.83477 0.67285 0.0
O29 O 0.34117 0.8491 0.7452 0.0
O30 O 0.33029 0.84068 0.8255 0.0
Mg31 Mg 0.31342 0.82065 0.80561 0.0
C32 C 0.3396 0.84976 0.7987 0.0
C33 C 0.34358 0.85356 0.57416 0.0
O34 O 0.32861 0.85729 0.57341 0.0
O35 O 0.34527 0.81358 0.69436 0.0
O36 O 0.33372 0.80513 0.77345 0.0
O37 O 0.30998 0.8515 0.66669 0.0
O38 O 0.31007 0.83038 0.72053 0.0
C39 C 0.34411 0.80375 0.73479 0.0
C40 C 0.3028 0.8427 0.70294 0.0
O41 O 0.34854 0.84414 0.61168 0.0
Mg42 Mg 0.39686 0.0475 0.79499 0.0
O43 O 0.39108 0.05856 0.88021 0.0
O44 O 0.40261 0.04446 0.94833 0.0
Mg45 Mg 0.41508 0.02375 0.90545 0.0
C46 C 0.3942 0.05603 0.93205 0.0
C47 C 0.37478 0.07373 0.74662 0.0
O48 O 0.364 0.06516 0.7717 0.0
O49 O 0.42176 0.05722 0.80129 0.0
O50 O 0.43235 0.04123 0.86584 0.0
O51 O 0.37533 0.03256 0.80442 0.0
O52 O 0.39914 0.02579 0.83293 0.0
C53 C 0.43341 0.05258 0.83076 0.0
C54 C 0.38433 0.02286 0.83138 0.0
O55 O 0.38909 0.06964 0.75004 0.0
Mg56 Mg 0.16282 0.8298 0.83318 0.0
O57 O 0.1503 0.84512 0.76708 0.0
O58 O 0.1581 0.83648 0.68246 0.0
Mg59 Mg 0.17651 0.81733 0.69429 0.0
C60 C 0.14988 0.84561 0.71329 0.0
C61 C 0.15311 0.8388 0.94979 0.0
O62 O 0.16741 0.8331 0.9544 0.0
O63 O 0.14751 0.80853 0.81332 0.0
O64 O 0.15761 0.80091 0.73063 0.0
O65 O 0.18241 0.84692 0.83693 0.0
O66 O 0.1818 0.82659 0.77901 0.0
C67 C 0.14807 0.79903 0.7717 0.0
C68 C 0.18895 0.83901 0.79666 0.0
O69 O 0.1465 0.83848 0.9018 0.0
Mg70 Mg 0.40395 0.93327 0.18456 0.0
O71 O 0.39812 0.92129 0.10042 0.0
O72 O 0.40413 0.93807 0.03089 0.0
Mg73 Mg 0.41641 0.95929 0.07053 0.0
C74 C 0.3985 0.92503 0.04825 0.0
C75 C 0.40525 0.91075 0.28232 0.0
O76 O 0.41419 0.9226 0.29763 0.0
O77 O 0.42966 0.9268 0.17258 0.0
O78 O 0.43631 0.94345 0.10363 0.0
O79 O 0.38049 0.94503 0.17995 0.0
O80 O 0.40262 0.95516 0.14688 0.0
C81 C 0.43977 0.93256 0.13864 0.0
C82 C 0.38758 0.95586 0.15128 0.0
O83 O 0.39933 0.91086 0.23317 0.0
Mg84 Mg 0.32709 0.14578 0.30993 0.0
O85 O 0.34134 0.13285 0.24231 0.0
O86 O 0.33544 0.14416 0.15982 0.0
Mg87 Mg 0.31587 0.16217 0.17359 0.0
C88 C 0.34311 0.13417 0.18908 0.0
C89 C 0.34242 0.14274 0.42674 0.0
O90 O 0.33453 0.15592 0.43254 0.0
O91 O 0.34222 0.16786 0.30223 0.0
O92 O 0.33247 0.17826 0.22323 0.0
O93 O 0.30777 0.12825 0.30211 0.0
O94 O 0.3093 0.15008 0.2521 0.0
C95 C 0.34132 0.17909 0.26666 0.0
C96 C 0.30198 0.13719 0.26312 0.0
O97 O 0.34243 0.1359 0.37914 0.0
Mg98 Mg 0.0861 0.07042 0.65371 0.0
O99 O 0.09356 0.08229 0.57117 0.0
O100 O 0.0865 0.06653 0.49996 0.0
Mg101 Mg 0.07317 0.04555 0.53699 0.0
C102 C 0.09299 0.07903 0.51864 0.0
C103 C 0.08538 0.09263 0.7526 0.0
O104 O 0.07625 0.08091 0.76787 0.0
O105 O 0.06099 0.07841 0.63871 0.0
O106 O 0.05372 0.06188 0.57014 0.0
O107 O 0.10862 0.05664 0.65357 0.0
O108 O 0.08633 0.04865 0.61536 0.0
C109 C 0.0507 0.07298 0.60484 0.0
C110 C 0.10105 0.04632 0.62405 0.0
O111 O 0.0914 0.09243 0.70362 0.0
Mg112 Mg 0.82899 0.83879 0.86253 0.0
O113 O 0.84542 0.84515 0.78944 0.0
O114 O 0.83755 0.83189 0.71304 0.0
Mg115 Mg 0.81538 0.81833 0.73604 0.0
C116 C 0.84694 0.84133 0.73768 0.0
C117 C 0.84297 0.848 0.97711 0.0
O118 O 0.82968 0.84133 0.99204 0.0
O119 O 0.83968 0.81435 0.87046 0.0
O120 O 0.82986 0.80246 0.79416 0.0
O121 O 0.81326 0.85886 0.84046 0.0
O122 O 0.81084 0.83486 0.80597 0.0
C123 C 0.83799 0.80222 0.83939 0.0
C124 C 0.80607 0.84923 0.80696 0.0
O125 O 0.84645 0.84873 0.92513 0.0
Mg126 Mg 0.90511 0.07156 0.64594 0.0
O127 O 0.89442 0.08449 0.5698 0.0
O128 O 0.90405 0.07336 0.49139 0.0
Mg129 Mg 0.92198 0.05487 0.5167 0.0
C130 C 0.8952 0.08331 0.51614 0.0
C131 C 0.88837 0.08453 0.74914 0.0
O132 O 0.88731 0.06923 0.75555 0.0
O133 O 0.92799 0.08505 0.63505 0.0
O134 O 0.93742 0.07399 0.55644 0.0
O135 O 0.8864 0.05296 0.64175 0.0
O136 O 0.90899 0.05209 0.59577 0.0
C137 C 0.93851 0.08382 0.59696 0.0
C138 C 0.89545 0.04601 0.60571 0.0
O139 O 0.89544 0.08989 0.70608 0.0
Mg140 Mg 0.66143 0.16919 0.35515 0.0
O141 O 0.64852 0.15976 0.27681 0.0
O142 O 0.66356 0.16577 0.20214 0.0
Mg143 Mg 0.68539 0.17911 0.23118 0.0
C144 C 0.65128 0.15957 0.22379 0.0
C145 C 0.6356 0.1507 0.41655 0.0
O146 O 0.64125 0.14014 0.38155 0.0
O147 O 0.65334 0.19412 0.33276 0.0
O148 O 0.67015 0.19944 0.26257 0.0
O149 O 0.67563 0.14685 0.36294 0.0
O150 O 0.68244 0.16746 0.31198 0.0
C151 C 0.65925 0.20354 0.29654 0.0
C152 C 0.68516 0.15324 0.32725 0.0
O153 O 0.64055 0.16475 0.4129 0.0
Mg154 Mg 0.5863 0.9265 0.10718 0.0
O155 O 0.59552 0.91075 0.03601 0.0
O156 O 0.58308 0.91746 0.95652 0.0
Mg157 Mg 0.56734 0.93848 0.9756 0.0
C158 C 0.59285 0.90893 0.98347 0.0
C159 C 0.60289 0.91529 0.2156 0.0
O160 O 0.60365 0.93064 0.22138 0.0
O161 O 0.56258 0.91401 0.10908 0.0
O162 O 0.55139 0.92305 0.03023 0.0
O163 O 0.60538 0.94395 0.08994 0.0
O164 O 0.58201 0.94437 0.04956 0.0
C165 C 0.5509 0.91493 0.07548 0.0
C166 C 0.59585 0.95036 0.05411 0.0
O167 O 0.5963 0.90963 0.17209 0.0
Mg168 Mg 0.8166 0.16217 0.14069 0.0
O169 O 0.82925 0.15152 0.21737 0.0
O170 O 0.81759 0.16083 0.29518 0.0
Mg171 Mg 0.79947 0.17899 0.26874 0.0
C172 C 0.82772 0.1521 0.27092 0.0
C173 C 0.83048 0.15126 0.03038 0.0
O174 O 0.81637 0.15632 0.01716 0.0
O175 O 0.83011 0.18501 0.15167 0.0
O176 O 0.81904 0.19431 0.2305 0.0
O177 O 0.79822 0.1434 0.14537 0.0
O178 O 0.79675 0.1663 0.18893 0.0
C179 C 0.82895 0.19541 0.1902 0.0
C180 C 0.79078 0.15265 0.17953 0.0
O181 O 0.83497 0.15227 0.08132 0.0
Mg182 Mg 0.57736 0.07864 0.84487 0.0
O183 O 0.58482 0.09367 0.92134 0.0
O184 O 0.57577 0.08128 0.99811 0.0
Mg185 Mg 0.56203 0.05953 0.97207 0.0
C186 C 0.58332 0.09251 0.97485 0.0
C187 C 0.5976 0.10232 0.77487 0.0
O188 O 0.60873 0.09606 0.80599 0.0
O189 O 0.55218 0.0874 0.85081 0.0
O190 O 0.54351 0.07454 0.9268 0.0
O191 O 0.59914 0.06381 0.85257 0.0
O192 O 0.57673 0.05891 0.89613 0.0
C193 C 0.54126 0.08387 0.88539 0.0
C194 C 0.59123 0.05533 0.8879 0.0
O195 O 0.58346 0.09809 0.78286 0.0
Mg196 Mg 0.67654 0.83823 0.60399 0.0
O197 O 0.663 0.84739 0.68079 0.0
O198 O 0.67396 0.83653 0.75738 0.0
Mg199 Mg 0.69592 0.82288 0.73055 0.0
C200 C 0.66352 0.84512 0.73401 0.0
C201 C 0.66224 0.84911 0.49481 0.0
O202 O 0.67709 0.84637 0.48321 0.0
O203 O 0.6656 0.81371 0.61531 0.0
O204 O 0.68046 0.8048 0.68638 0.0
O205 O 0.69291 0.85897 0.60663 0.0
O206 O 0.69656 0.83678 0.65311 0.0
C207 C 0.67007 0.80272 0.64832 0.0
C208 C 0.70108 0.85088 0.64229 0.0
O209 O 0.6573 0.84622 0.54428 0.0
Mg210 Mg 0.92195 0.92243 0.36341 0.0
O211 O 0.91449 0.90591 0.43495 0.0
O212 O 0.92596 0.91416 0.51448 0.0
Mg213 Mg 0.93995 0.93628 0.4944 0.0
C214 C 0.91717 0.90459 0.4877 0.0
C215 C 0.90398 0.91098 0.26111 0.0
O216 O 0.90128 0.92618 0.26208 0.0
O217 O 0.94665 0.91199 0.36056 0.0
O218 O 0.95684 0.92182 0.43996 0.0
O219 O 0.90127 0.9376 0.38204 0.0
O220 O 0.92466 0.94063 0.42101 0.0
C221 C 0.95809 0.91374 0.39479 0.0
C222 C 0.91015 0.94489 0.41779 0.0
O223 O 0.91285 0.90508 0.2986 0.0
Mg224 Mg 0.67405 0.65734 0.64232 0.0
O225 O 0.66104 0.64648 0.718 0.0
O226 O 0.67209 0.65617 0.79619 0.0
Mg227 Mg 0.69014 0.67467 0.7709 0.0
C228 C 0.66232 0.64709 0.77161 0.0
C229 C 0.6541 0.63274 0.57858 0.0
O230 O 0.66234 0.62354 0.61184 0.0
O231 O 0.66049 0.68024 0.65091 0.0
O232 O 0.6712 0.69016 0.72917 0.0
O233 O 0.69236 0.63855 0.65011 0.0
O234 O 0.69362 0.66174 0.69189 0.0
C235 C 0.6616 0.69108 0.68785 0.0
C236 C 0.69948 0.64795 0.68461 0.0
O237 O 0.65584 0.64752 0.58238 0.0
Mg238 Mg 0.58332 0.44286 0.77319 0.0
O239 O 0.59162 0.43094 0.85499 0.0
O240 O 0.58624 0.44724 0.92661 0.0
Mg241 Mg 0.57259 0.46823 0.89146 0.0
C242 C 0.59204 0.43448 0.90735 0.0
C243 C 0.60144 0.41504 0.71959 0.0
O244 O 0.61232 0.42066 0.75329 0.0
O245 O 0.55835 0.43516 0.79371 0.0
O246 O 0.55263 0.45167 0.86422 0.0
O247 O 0.60619 0.45588 0.76947 0.0
O248 O 0.58471 0.46467 0.81131 0.0
C249 C 0.54885 0.44057 0.83054 0.0
C250 C 0.59946 0.46628 0.80107 0.0
O251 O 0.58773 0.42089 0.7216 0.0
Mg252 Mg 0.82599 0.34368 0.13533 0.0
O253 O 0.83955 0.35254 0.21296 0.0
O254 O 0.82516 0.34611 0.28868 0.0
Mg255 Mg 0.80279 0.33348 0.26039 0.0
C256 C 0.83733 0.3523 0.26628 0.0
C257 C 0.85212 0.36116 0.06947 0.0
O258 O 0.84637 0.37272 0.09985 0.0
O259 O 0.83369 0.31864 0.15546 0.0
O260 O 0.81728 0.31286 0.22624 0.0
O261 O 0.81187 0.36605 0.1284 0.0
O262 O 0.80511 0.34551 0.17957 0.0
C263 C 0.8279 0.30893 0.19083 0.0
C264 C 0.80214 0.3596 0.16334 0.0
O265 O 0.84685 0.34736 0.07712 0.0
Mg266 Mg 0.9071 0.5799 0.44293 0.0
O267 O 0.89728 0.59447 0.51667 0.0
O268 O 0.90864 0.58507 0.59483 0.0
Mg269 Mg 0.92578 0.56551 0.57176 0.0
C270 C 0.89914 0.59441 0.57012 0.0
C271 C 0.90509 0.59918 0.33355 0.0
O272 O 0.91884 0.59234 0.32783 0.0
O273 O 0.93041 0.59281 0.44559 0.0
O274 O 0.94184 0.58215 0.52117 0.0
O275 O 0.8882 0.56193 0.45392 0.0
O276 O 0.91123 0.56116 0.4968 0.0
C277 C 0.94222 0.5912 0.47815 0.0
C278 C 0.89752 0.55511 0.48942 0.0
O279 O 0.89731 0.59695 0.3786 0.0
Mg280 Mg 0.66519 0.3503 0.28674 0.0
O281 O 0.65203 0.3618 0.21247 0.0
O282 O 0.66343 0.35275 0.13385 0.0
Mg283 Mg 0.68258 0.33516 0.15686 0.0
C284 C 0.65333 0.3614 0.15879 0.0
C285 C 0.64437 0.37239 0.36011 0.0
O286 O 0.65193 0.38302 0.33044 0.0
O287 O 0.65263 0.32715 0.27277 0.0
O288 O 0.6645 0.31799 0.19546 0.0
O289 O 0.68309 0.36958 0.2861 0.0
O290 O 0.68514 0.34755 0.2376 0.0
C291 C 0.65462 0.31648 0.23575 0.0
C292 C 0.69088 0.36108 0.25048 0.0
O293 O 0.64665 0.35796 0.3495 0.0
Mg294 Mg 0.92282 0.42102 0.64779 0.0
O295 O 0.91273 0.40801 0.57031 0.0
O296 O 0.9212 0.42115 0.4944 0.0
Mg297 Mg 0.93719 0.44115 0.52155 0.0
C298 C 0.91322 0.41012 0.51695 0.0
C299 C 0.90131 0.39759 0.71101 0.0
O300 O 0.8912 0.40407 0.67617 0.0
O301 O 0.9471 0.41049 0.63439 0.0
O302 O 0.95529 0.42411 0.55939 0.0
O303 O 0.90225 0.43736 0.64856 0.0
O304 O 0.92423 0.44177 0.60168 0.0
C305 C 0.95763 0.41394 0.59813 0.0
C306 C 0.91019 0.44619 0.61442 0.0
O307 O 0.91572 0.40132 0.70711 0.0
Mg308 Mg 0.81455 0.65676 0.95745 0.0
O309 O 0.82685 0.65097 0.87401 0.0
O310 O 0.81119 0.65845 0.80295 0.0
Mg311 Mg 0.78962 0.67041 0.84148 0.0
C312 C 0.82384 0.65223 0.82145 0.0
C313 C 0.84236 0.63763 0.00619 0.0
O314 O 0.8357 0.62689 0.97438 0.0
O315 O 0.82188 0.68227 0.94629 0.0
O316 O 0.8055 0.68979 0.8776 0.0
O317 O 0.80143 0.63379 0.95346 0.0
O318 O 0.79306 0.65627 0.91731 0.0
C319 C 0.81638 0.69274 0.91323 0.0
C320 C 0.79121 0.6414 0.92376 0.0
O321 O 0.83673 0.65145 0.00655 0.0
Mg322 Mg 0.60446 0.55645 0.15216 0.0
O323 O 0.60922 0.57036 0.07113 0.0
O324 O 0.60057 0.55602 0.99825 0.0
Mg325 Mg 0.58824 0.53424 0.03382 0.0
C326 C 0.60733 0.5682 0.01828 0.0
C327 C 0.60304 0.57929 0.25107 0.0
O328 O 0.59083 0.57016 0.25992 0.0
O329 O 0.57896 0.56447 0.14863 0.0
O330 O 0.56979 0.54973 0.07776 0.0
O331 O 0.627 0.5433 0.13768 0.0
O332 O 0.60359 0.53568 0.10746 0.0
C333 C 0.56779 0.55992 0.1167 0.0
C334 C 0.61854 0.53364 0.10847 0.0
O335 O 0.61121 0.57722 0.20683 0.0
Mg336 Mg 0.32837 0.32043 0.41306 0.0
O337 O 0.34115 0.33197 0.33786 0.0
O338 O 0.33183 0.32055 0.25961 0.0
Mg339 Mg 0.31237 0.3034 0.28325 0.0
C340 C 0.34101 0.3302 0.28433 0.0
C341 C 0.34721 0.34538 0.47887 0.0
O342 O 0.33988 0.35409 0.44145 0.0
O343 O 0.34262 0.29778 0.40183 0.0
O344 O 0.33082 0.28778 0.32538 0.0
O345 O 0.30951 0.33863 0.40988 0.0
O346 O 0.30881 0.31637 0.3623 0.0
C347 C 0.34091 0.28696 0.36506 0.0
C348 C 0.3024 0.3297 0.37388 0.0
O349 O 0.34581 0.33052 0.47611 0.0
Mg350 Mg 0.42118 0.57023 0.18169 0.0
O351 O 0.41115 0.58393 0.1059 0.0
O352 O 0.41874 0.57131 0.02771 0.0
Mg353 Mg 0.43488 0.5512 0.05215 0.0
C354 C 0.41121 0.5823 0.05233 0.0
C355 C 0.4062 0.58518 0.28419 0.0
O356 O 0.40344 0.57007 0.28991 0.0
O357 O 0.44546 0.58087 0.16815 0.0
O358 O 0.45282 0.56846 0.08932 0.0
O359 O 0.40044 0.554 0.17985 0.0
O360 O 0.42251 0.54984 0.13336 0.0
C361 C 0.45546 0.57819 0.12921 0.0
C362 C 0.40838 0.54546 0.14484 0.0
O363 O 0.41393 0.58983 0.24152 0.0
Mg364 Mg 0.1686 0.65438 0.8132 0.0
O365 O 0.15653 0.64179 0.73905 0.0
O366 O 0.16919 0.64944 0.66099 0.0
Mg367 Mg 0.1887 0.6667 0.68393 0.0
C368 C 0.15854 0.64141 0.68566 0.0
C369 C 0.14646 0.63331 0.885 0.0
O370 O 0.15402 0.62249 0.85627 0.0
O371 O 0.15633 0.67737 0.79007 0.0
O372 O 0.17087 0.68483 0.71618 0.0
O373 O 0.18661 0.63505 0.82097 0.0
O374 O 0.18935 0.65607 0.76773 0.0
C375 C 0.16001 0.6874 0.75225 0.0
C376 C 0.19494 0.6429 0.78504 0.0
O377 O 0.14913 0.64769 0.87422 0.0
Mg378 Mg 0.10424 0.44489 0.66474 0.0
O379 O 0.1097 0.43221 0.58169 0.0
O380 O 0.09819 0.44572 0.51191 0.0
Mg381 Mg 0.08603 0.46722 0.55031 0.0
C382 C 0.10645 0.43419 0.52956 0.0
C383 C 0.12597 0.42016 0.72603 0.0
O384 O 0.13712 0.42781 0.69926 0.0
O385 O 0.07912 0.43543 0.66116 0.0
O386 O 0.06862 0.45073 0.59422 0.0
O387 O 0.12596 0.45948 0.65134 0.0
O388 O 0.1021 0.46588 0.62214 0.0
C389 C 0.06746 0.43992 0.63138 0.0
C390 C 0.1169 0.46881 0.62309 0.0
O391 O 0.11173 0.42389 0.7174 0.0
Mg392 Mg 0.33163 0.65669 0.67234 0.0
O393 O 0.34385 0.64735 0.75176 0.0
O394 O 0.32947 0.65513 0.82587 0.0
Mg395 Mg 0.30848 0.66942 0.79445 0.0
C396 C 0.34128 0.64795 0.80482 0.0
C397 C 0.35001 0.65256 0.56464 0.0
O398 O 0.33658 0.65882 0.54899 0.0
O399 O 0.34124 0.6812 0.69113 0.0
O400 O 0.32491 0.68851 0.76031 0.0
O401 O 0.31616 0.63528 0.66664 0.0
O402 O 0.3103 0.65665 0.71485 0.0
C403 C 0.33603 0.69145 0.72571 0.0
C404 C 0.30667 0.64255 0.70034 0.0
O405 O 0.35252 0.65055 0.61695 0.0
Mg406 Mg 0.08239 0.5651 0.29981 0.0
O407 O 0.09229 0.57616 0.38087 0.0
O408 O 0.08679 0.55977 0.45219 0.0
Mg409 Mg 0.07164 0.53971 0.41832 0.0
C410 C 0.0931 0.57229 0.43289 0.0
C411 C 0.1017 0.59175 0.24401 0.0
O412 O 0.11247 0.58531 0.27632 0.0
O413 O 0.05807 0.57413 0.32457 0.0
O414 O 0.05237 0.5574 0.39455 0.0
O415 O 0.10445 0.55084 0.29256 0.0
O416 O 0.08296 0.54303 0.33676 0.0
C417 C 0.04875 0.5689 0.36239 0.0
C418 C 0.0975 0.54071 0.32468 0.0
O419 O 0.08762 0.58693 0.24792 0.0
Mg420 Mg 0.16971 0.33764 0.16085 0.0
O421 O 0.15626 0.35291 0.22519 0.0
O422 O 0.16001 0.34176 0.30964 0.0
Mg423 Mg 0.17686 0.32117 0.30115 0.0
C424 C 0.15387 0.35229 0.27835 0.0
C425 C 0.15666 0.36342 0.08073 0.0
O426 O 0.1632 0.37226 0.11962 0.0
O427 O 0.15181 0.31775 0.16823 0.0
O428 O 0.15804 0.30758 0.25225 0.0
O429 O 0.19116 0.35243 0.17062 0.0
O430 O 0.18594 0.33154 0.22255 0.0
C431 C 0.14993 0.3075 0.20696 0.0
C432 C 0.19512 0.34318 0.21156 0.0
O433 O 0.1567 0.34859 0.08696 0.0
Mg434 Mg 0.40375 0.42249 0.90787 0.0
O435 O 0.39713 0.40496 0.97803 0.0
O436 O 0.40983 0.41266 0.05605 0.0
Mg437 Mg 0.42267 0.43567 0.0384 0.0
C438 C 0.40078 0.40317 0.02995 0.0
C439 C 0.38206 0.40094 0.83175 0.0
O440 O 0.37113 0.40546 0.86738 0.0
O441 O 0.42874 0.41301 0.90239 0.0
O442 O 0.43992 0.42293 0.97984 0.0
O443 O 0.38286 0.43762 0.9287 0.0
O444 O 0.40629 0.43968 0.96824 0.0
C445 C 0.44072 0.41521 0.93375 0.0
C446 C 0.3919 0.44422 0.9657 0.0
O447 O 0.39607 0.40567 0.83872 0.0
C448 C 0.28122 0.14285 0.19185 0.0
C449 C 0.28661 0.13373 0.23704 0.0
C450 C 0.26547 0.14227 0.17494 0.0
C451 C 0.25484 0.13245 0.2044 0.0
C452 C 0.26053 0.12208 0.24634 0.0
C453 C 0.27641 0.1228 0.26207 0.0
C454 C 0.25994 0.15329 0.12913 0.0
C455 C 0.24961 0.11133 0.27833 0.0
C456 C 0.21521 0.15182 0.22009 0.0
C457 C 0.20644 0.14449 0.17765 0.0
C458 C 0.2307 0.14731 0.23123 0.0
C459 C 0.23772 0.13529 0.19856 0.0
C460 C 0.22872 0.12727 0.15749 0.0
C461 C 0.21311 0.13194 0.14762 0.0
C462 C 0.23981 0.15604 0.2761 0.0
C463 C 0.23579 0.11439 0.12186 0.0
H464 H 0.28907 0.15113 0.17166 0.0
H465 H 0.28053 0.1156 0.29675 0.0
H466 H 0.25192 0.14713 0.09962 0.0
H467 H 0.25328 0.16314 0.14838 0.0
H468 H 0.26989 0.15829 0.10472 0.0
H469 H 0.25613 0.10195 0.30099 0.0
H470 H 0.24294 0.1183 0.30982 0.0
H471 H 0.24095 0.10578 0.24959 0.0
H472 H 0.2102 0.16146 0.24364 0.0
H473 H 0.2064 0.12622 0.11466 0.0
H474 H 0.24932 0.16302 0.2561 0.0
H475 H 0.24543 0.14761 0.30556 0.0
H476 H 0.23225 0.16415 0.30085 0.0
H477 H 0.24376 0.11968 0.09005 0.0
H478 H 0.22665 0.10751 0.09934 0.0
H479 H 0.24291 0.10627 0.14803 0.0
C480 C 0.13218 0.97224 0.45127 0.0
C481 C 0.12607 0.97553 0.39783 0.0
C482 C 0.133 0.98409 0.49241 0.0
C483 C 0.12747 -0.00064 0.47926 0.0
C484 C 0.12324 0.00305 0.42305 0.0
C485 C 0.1224 0.99099 0.38308 0.0
C486 C 0.13787 0.97974 0.55151 0.0
C487 C 0.11754 0.01924 0.40687 0.0
C488 C 0.10003 0.0202 0.57875 0.0
C489 C 0.10899 0.03318 0.59533 0.0
C490 C 0.10635 0.00856 0.54402 0.0
C491 C 0.12207 0.00997 0.52502 0.0
C492 C 0.13156 0.0225 0.54474 0.0
C493 C 0.12488 0.03402 0.57994 0.0
C494 C 0.09581 0.99528 0.52474 0.0
C495 C 0.1484 0.02431 0.52599 0.0
H496 H 0.13483 0.96018 0.4626 0.0
H497 H 0.11757 0.99339 0.34164 0.0
H498 H 0.14433 0.98953 0.57199 0.0
H499 H 0.12722 0.9773 0.57707 0.0
H500 H 0.14536 0.96905 0.55187 0.0
H501 H 0.11741 0.02091 0.36042 0.0
H502 H 0.1054 0.02094 0.42291 0.0
H503 H 0.12505 0.02846 0.426 0.0
H504 H 0.08781 0.01941 0.59143 0.0
H505 H 0.13185 0.04406 0.59287 0.0
H506 H 0.10158 0.98378 0.53201 0.0
H507 H 0.09358 0.99637 0.47882 0.0
H508 H 0.08431 0.99527 0.54691 0.0
H509 H 0.15433 0.01273 0.52274 0.0
H510 H 0.15515 0.03192 0.55534 0.0
H511 H 0.14865 0.02984 0.48364 0.0
C512 C 0.2118 0.83453 0.73249 0.0
C513 C 0.2047 0.84335 0.77536 0.0
C514 C 0.22763 0.83684 0.71832 0.0
C515 C 0.23657 0.84815 0.74813 0.0
C516 C 0.22921 0.85778 0.78892 0.0
C517 C 0.21332 0.8553 0.80193 0.0
C518 C 0.23501 0.82648 0.67393 0.0
C519 C 0.23835 0.86996 0.82157 0.0
C520 C 0.27936 0.83689 0.76253 0.0
C521 C 0.2864 0.84589 0.72002 0.0
C522 C 0.26326 0.83811 0.77383 0.0
C523 C 0.25391 0.84847 0.74134 0.0
C524 C 0.26104 0.85815 0.70012 0.0
C525 C 0.27726 0.8568 0.6901 0.0
C526 C 0.25614 0.82775 0.81882 0.0
C527 C 0.25144 0.8693 0.66462 0.0
H528 H 0.20521 0.82534 0.71154 0.0
H529 H 0.20789 0.86222 0.83498 0.0
H530 H 0.24188 0.83366 0.64363 0.0
H531 H 0.24328 0.81814 0.69428 0.0
H532 H 0.22611 0.8196 0.6502 0.0
H533 H 0.23052 0.87791 0.84588 0.0
H534 H 0.24637 0.86397 0.85156 0.0
H535 H 0.24572 0.87714 0.79284 0.0
H536 H 0.28631 0.82847 0.78593 0.0
H537 H 0.28261 0.86377 0.65703 0.0
H538 H 0.24815 0.81904 0.79901 0.0
H539 H 0.24902 0.83489 0.84846 0.0
H540 H 0.2652 0.82128 0.84329 0.0
H541 H 0.24386 0.86246 0.63552 0.0
H542 H 0.25895 0.87729 0.63917 0.0
H543 H 0.24358 0.87649 0.69156 0.0
C544 C 0.38717 0.99731 0.87949 0.0
C545 C 0.37795 0.01056 0.86843 0.0
C546 C 0.38381 0.98747 0.9251 0.0
C547 C 0.37101 0.99116 0.96095 0.0
C548 C 0.36068 0.00357 0.94645 0.0
C549 C 0.36428 0.01318 0.89996 0.0
C550 C 0.39498 0.97416 0.93826 0.0
C551 C 0.34677 0.00768 0.98293 0.0
C552 C 0.36798 0.96055 0.07559 0.0
C553 C 0.37902 0.96654 0.11376 0.0
C554 C 0.36377 0.96921 0.02745 0.0
C555 C 0.37072 0.98411 0.01819 0.0
C556 C 0.38039 0.99087 0.06034 0.0
C557 C 0.38457 0.98189 0.10737 0.0
C558 C 0.35329 0.96167 0.98389 0.0
C559 C 0.38787 0.00684 0.05272 0.0
H560 H 0.39765 0.99522 0.85455 0.0
H561 H 0.35714 0.02346 0.89136 0.0
H562 H 0.40224 0.97732 0.97546 0.0
H563 H 0.38841 0.9633 0.94881 0.0
H564 H 0.403 0.97159 0.90246 0.0
H565 H 0.33783 0.01448 0.959 0.0
H566 H 0.34117 0.99697 0.00049 0.0
H567 H 0.35078 0.01501 0.01882 0.0
H568 H 0.36385 0.94857 0.08036 0.0
H569 H 0.39312 0.98644 0.1371 0.0
H570 H 0.36066 0.95616 0.95077 0.0
H571 H 0.34565 0.97053 0.96322 0.0
H572 H 0.3458 0.95236 0.00282 0.0
H573 H 0.39725 0.00608 0.02028 0.0
H574 H 0.39321 0.01126 0.09242 0.0
H575 H 0.37909 0.01554 0.03788 0.0
C576 C 0.78481 0.86862 0.78442 0.0
C577 C 0.79219 0.85416 0.77388 0.0
C578 C 0.77012 0.87213 0.76045 0.0
C579 C 0.76275 0.86091 0.72526 0.0
C580 C 0.77075 0.84687 0.71105 0.0
C581 C 0.78533 0.84366 0.73569 0.0
C582 C 0.76206 0.88732 0.77603 0.0
C583 C 0.7634 0.83464 0.67311 0.0
C584 C 0.71938 0.85264 0.72327 0.0
C585 C 0.71545 0.85714 0.66837 0.0
C586 C 0.73449 0.85525 0.74452 0.0
C587 C 0.74593 0.86245 0.70969 0.0
C588 C 0.74154 0.86846 0.6563 0.0
C589 C 0.72624 0.86576 0.63621 0.0
C590 C 0.73856 0.84895 0.80223 0.0
C591 C 0.75332 0.87643 0.61837 0.0
H592 H 0.79009 0.87686 0.81369 0.0
H593 H 0.79095 0.83254 0.72688 0.0
H594 H 0.75583 0.89242 0.73926 0.0
H595 H 0.75317 0.88497 0.8092 0.0
H596 H 0.77052 0.89612 0.7926 0.0
H597 H 0.77181 0.82517 0.66164 0.0
H598 H 0.75321 0.8292 0.69484 0.0
H599 H 0.75899 0.84014 0.63381 0.0
H600 H 0.71085 0.84646 0.74882 0.0
H601 H 0.72313 0.86934 0.59378 0.0
H602 H 0.74524 0.85781 0.82674 0.0
H603 H 0.74615 0.83841 0.79769 0.0
H604 H 0.72794 0.84557 0.8266 0.0
H605 H 0.76111 0.88435 0.64284 0.0
H606 H 0.74746 0.88333 0.58461 0.0
H607 H 0.76084 0.86739 0.59813 0.0
C608 C 0.88847 0.96313 0.44664 0.0
C609 C 0.90405 0.95794 0.45256 0.0
C610 C 0.88323 0.97678 0.47414 0.0
C611 C 0.89385 0.98539 0.50802 0.0
C612 C 0.90928 0.97966 0.51682 0.0
C613 C 0.91418 0.96604 0.48888 0.0
C614 C 0.86666 0.98244 0.46422 0.0
C615 C 0.92097 0.98844 0.55295 0.0
C616 C 0.89461 0.0294 0.52025 0.0
C617 C 0.89081 0.03143 0.5771 0.0
C618 C 0.89414 0.01451 0.49542 0.0
C619 C 0.88984 0.00136 0.5286 0.0
C620 C 0.88439 0.00363 0.58444 0.0
C621 C 0.8849 0.01875 0.60816 0.0
C622 C 0.89974 0.01268 0.43535 0.0
C623 C 0.87945 0.98994 0.62079 0.0
H624 H 0.88053 0.95687 0.41886 0.0
H625 H 0.92621 0.96214 0.49381 0.0
H626 H 0.86134 0.98687 0.50386 0.0
H627 H 0.86684 0.99232 0.43372 0.0
H628 H 0.85906 0.973 0.4468 0.0
H629 H 0.932 0.98169 0.5595 0.0
H630 H 0.924 -0.00021 0.53252 0.0
H631 H 0.9158 0.99116 0.59474 0.0
H632 H 0.89869 0.03935 0.49585 0.0
H633 H 0.88188 0.0204 0.65218 0.0
H634 H 0.89171 0.00492 0.41129 0.0
H635 H 0.91153 0.00711 0.43521 0.0
H636 H 0.9006 0.02416 0.41322 0.0
H637 H 0.87238 0.98139 0.59626 0.0
H638 H 0.87253 0.99386 0.65793 0.0
H639 H 0.89008 0.98372 0.63621 0.0
C640 C 0.70245 0.14657 0.24715 0.0
C641 C 0.69884 0.1449 0.30432 0.0
C642 C 0.71752 0.14319 0.22702 0.0
C643 C 0.7292 0.13811 0.26536 0.0
C644 C 0.72497 0.13437 0.32156 0.0
C645 C 0.70972 0.13784 0.34058 0.0
C646 C 0.72138 0.14698 0.1664 0.0
C647 C 0.73699 0.12844 0.36316 0.0
C648 C 0.76965 0.13282 0.19998 0.0
C649 C 0.77589 0.14797 0.20687 0.0
C650 C 0.75476 0.12896 0.22183 0.0
C651 C 0.74595 0.14062 0.25037 0.0
C652 C 0.75256 0.15568 0.25955 0.0
C653 C 0.76741 0.15914 0.23773 0.0
C654 C 0.74825 0.11271 0.21193 0.0
C655 C 0.74359 0.16851 0.28979 0.0
H656 H 0.69379 0.15154 0.21882 0.0
H657 H 0.70682 0.13641 0.3848 0.0
H658 H 0.72804 0.15818 0.16464 0.0
H659 H 0.72887 0.13768 0.14768 0.0
H660 H 0.71062 0.14828 0.14029 0.0
H661 H 0.73131 0.12271 0.40001 0.0
H662 H 0.74512 0.11995 0.34292 0.0
H663 H 0.74409 0.13848 0.37872 0.0
H664 H 0.77619 0.12409 0.1764 0.0
H665 H 0.77207 0.17088 0.24307 0.0
H666 H 0.74043 0.11293 0.17455 0.0
H667 H 0.7412 0.10863 0.24846 0.0
H668 H 0.75777 0.10407 0.20374 0.0
H669 H 0.73302 0.17176 0.26502 0.0
H670 H 0.75078 0.17927 0.29616 0.0
H671 H 0.73955 0.1643 0.33158 0.0
C672 C 0.59277 0.03713 0.9695 0.0
C673 C 0.59815 0.04153 0.91606 0.0
C674 C 0.59624 0.0223 0.99175 0.0
C675 C 0.60531 0.01162 0.95957 0.0
C676 C 0.61213 0.01662 0.90813 0.0
C677 C 0.60847 0.03161 0.88689 0.0
C678 C 0.58897 0.0176 0.04735 0.0
C679 C 0.62211 0.00569 0.87315 0.0
C680 C 0.61349 0.97349 0.03718 0.0
C681 C 0.60017 0.96469 0.02232 0.0
C682 C 0.61608 0.98849 0.014 0.0
C683 C 0.60509 0.99471 0.97517 0.0
C684 C 0.59234 0.98533 0.95683 0.0
C685 C 0.59002 0.97049 0.98077 0.0
C686 C 0.62992 0.99804 0.03407 0.0
C687 C 0.58041 0.99142 0.91497 0.0
H688 H 0.58527 0.04502 0.99301 0.0
H689 H 0.61275 0.03506 0.84566 0.0
H690 H 0.57941 0.00898 0.0397 0.0
H691 H 0.59781 0.01184 0.07479 0.0
H692 H 0.58395 0.02782 0.07024 0.0
H693 H 0.62919 0.01221 0.84149 0.0
H694 H 0.63014 -0.00129 0.90022 0.0
H695 H 0.61439 0.99731 0.85041 0.0
H696 H 0.62145 0.96906 0.06911 0.0
H697 H 0.57979 0.96377 0.96859 0.0
H698 H 0.62588 0.00667 0.06599 0.0
H699 H 0.63528 0.00473 0.99882 0.0
H700 H 0.63907 0.99051 0.05373 0.0
H701 H 0.57348 0.00103 0.93456 0.0
H702 H 0.57215 0.98211 0.90087 0.0
H703 H 0.58639 0.99635 0.87738 0.0
C704 C 0.72278 0.65438 0.74282 0.0
C705 C 0.71328 0.64293 0.71769 0.0
C706 C 0.73572 0.65019 0.77579 0.0
C707 C 0.73919 0.63408 0.78449 0.0
C708 C 0.72973 0.6224 0.75886 0.0
C709 C 0.71688 0.62699 0.72535 0.0
C710 C 0.74564 0.66307 0.8016 0.0
C711 C 0.733 0.60515 0.76773 0.0
C712 C 0.78099 0.63141 0.83369 0.0
C713 C 0.77889 0.63347 0.89166 0.0
C714 C 0.76802 0.62958 0.79791 0.0
C715 C 0.75269 0.62989 0.82115 0.0
C716 C 0.75072 0.62998 0.88047 0.0
C717 C 0.76392 0.63195 0.91519 0.0
C718 C 0.7707 0.62943 0.73503 0.0
C719 C 0.7346 0.63005 0.90698 0.0
H720 H 0.72014 0.66672 0.73651 0.0
H721 H 0.70949 0.6181 0.70612 0.0
H722 H 0.74532 0.66217 0.84824 0.0
H723 H 0.75807 0.66176 0.78826 0.0
H724 H 0.74155 0.67499 0.7894 0.0
H725 H 0.72539 0.59758 0.74108 0.0
H726 H 0.74548 0.60246 0.75825 0.0
H727 H 0.73096 0.60208 0.81259 0.0
H728 H 0.79265 0.63263 0.8158 0.0
H729 H 0.76237 0.6337 0.96014 0.0
H730 H 0.76866 0.64141 0.718 0.0
H731 H 0.7624 0.62134 0.71372 0.0
H732 H 0.78292 0.6259 0.72435 0.0
H733 H 0.72947 0.64201 0.90349 0.0
H734 H 0.73508 0.62682 0.95233 0.0
H735 H 0.72662 0.6218 0.88486 0.0
C736 C 0.60085 0.49138 0.85303 0.0
C737 C 0.60855 0.47797 0.8332 0.0
C738 C 0.60764 0.50085 0.89451 0.0
C739 C 0.62252 0.49672 0.91691 0.0
C740 C 0.63105 0.48409 0.89294 0.0
C741 C 0.62392 0.47478 0.85112 0.0
C742 C 0.59811 0.5143 0.91827 0.0
C743 C 0.64708 0.47953 0.91456 0.0
C744 C 0.63358 0.52801 0.02152 0.0
C745 C 0.6254 0.52244 0.06866 0.0
C746 C 0.63466 0.5188 0.9725 0.0
C747 C 0.62733 0.50385 0.97136 0.0
C748 C 0.621 0.49746 0.02164 0.0
C749 C 0.61994 0.50696 0.06961 0.0
C750 C 0.64185 0.52587 0.92023 0.0
C751 C 0.61338 0.48142 0.0228 0.0
H752 H 0.58904 0.49396 0.83849 0.0
H753 H 0.62993 0.46441 0.83563 0.0
H754 H 0.59383 0.51108 0.96093 0.0
H755 H 0.60541 0.52503 0.92243 0.0
H756 H 0.58776 0.51713 0.8916 0.0
H757 H 0.6539 0.47312 0.88193 0.0
H758 H 0.65387 0.48999 0.92824 0.0
H759 H 0.64571 0.47165 0.95148 0.0
H760 H 0.63763 0.5401 0.02079 0.0
H761 H 0.61357 0.50277 0.10626 0.0
H762 H 0.63245 0.5313 0.89428 0.0
H763 H 0.64772 0.51676 0.89425 0.0
H764 H 0.6505 0.53518 0.93102 0.0
H765 H 0.60195 0.48192 0.00029 0.0
H766 H 0.61118 0.4773 0.06655 0.0
H767 H 0.62085 0.47264 0.00103 0.0
C768 C 0.71322 0.38028 0.24585 0.0
C769 C 0.70638 0.36606 0.2286 0.0
C770 C 0.72898 0.38374 0.23295 0.0
C771 C 0.73805 0.37261 0.20281 0.0
C772 C 0.73083 0.35881 0.18181 0.0
C773 C 0.71509 0.35574 0.19484 0.0
C774 C 0.73612 0.39877 0.25485 0.0
C775 C 0.74003 0.34663 0.1492 0.0
C776 C 0.77883 0.37629 0.14136 0.0
C777 C 0.78733 0.36726 0.18023 0.0
C778 C 0.76288 0.37972 0.15075 0.0
C779 C 0.75545 0.37392 0.19995 0.0
C780 C 0.76454 0.36647 0.24217 0.0
C781 C 0.7804 0.36327 0.23175 0.0
C782 C 0.7537 0.38817 0.10561 0.0
C783 C 0.75719 0.36035 0.29583 0.0
H784 H 0.70652 0.3884 0.27154 0.0
H785 H 0.70991 0.34477 0.18105 0.0
H786 H 0.74248 0.39632 0.2947 0.0
H787 H 0.74471 0.40371 0.22441 0.0
H788 H 0.72697 0.40776 0.26372 0.0
H789 H 0.73238 0.3372 0.13195 0.0
H790 H 0.74643 0.3522 0.11375 0.0
H791 H 0.74889 0.34112 0.17727 0.0
H792 H 0.78423 0.37954 0.10161 0.0
H793 H 0.78712 0.3568 0.26271 0.0
H794 H 0.74486 0.3962 0.12446 0.0
H795 H 0.74729 0.37943 0.0796 0.0
H796 H 0.76153 0.39504 0.07739 0.0
H797 H 0.74959 0.36944 0.3153 0.0
H798 H 0.76617 0.35665 0.32714 0.0
H799 H 0.74967 0.35006 0.28589 0.0
C800 C 0.89018 0.46778 0.61666 0.0
C801 C 0.90372 0.46114 0.59272 0.0
C802 C 0.88533 0.48303 0.60195 0.0
C803 C 0.89421 0.49171 0.56227 0.0
C804 C 0.90726 0.48463 0.53533 0.0
C805 C 0.91189 0.4695 0.55115 0.0
C806 C 0.87132 0.49016 0.63138 0.0
C807 C 0.91695 0.49339 0.49212 0.0
C808 C 0.88322 0.52953 0.489 0.0
C809 C 0.89331 0.54008 0.51643 0.0
C810 C 0.88216 0.51382 0.50672 0.0
C811 C 0.8913 0.50871 0.55306 0.0
C812 C 0.90011 0.51977 0.5845 0.0
C813 C 0.90106 0.53532 0.56557 0.0
C814 C 0.87247 0.50242 0.47255 0.0
C815 C 0.90976 0.51489 0.63496 0.0
H816 H 0.88377 0.46138 0.6488 0.0
H817 H 0.92228 0.46449 0.53215 0.0
H818 H 0.87546 0.49846 0.66425 0.0
H819 H 0.86395 0.49692 0.60139 0.0
H820 H 0.86392 0.48106 0.65203 0.0
H821 H 0.92581 0.48572 0.47147 0.0
H822 H 0.90926 0.49846 0.45907 0.0
H823 H 0.92321 0.50327 0.51282 0.0
H824 H 0.8771 0.53321 0.45114 0.0
H825 H 0.90851 0.54354 0.5878 0.0
H826 H 0.86633 0.49391 0.50028 0.0
H827 H 0.88035 0.49563 0.44434 0.0
H828 H 0.86365 0.50859 0.44607 0.0
H829 H 0.90283 0.50718 0.66328 0.0
H830 H 0.91399 0.52518 0.65949 0.0
H831 H 0.92014 0.5081 0.62051 0.0
C832 C 0.27921 0.34771 0.36805 0.0
C833 C 0.28732 0.33448 0.34799 0.0
C834 C 0.26417 0.35147 0.34769 0.0
C835 C 0.25722 0.34187 0.3059 0.0
C836 C 0.26563 0.3289 0.28385 0.0
C837 C 0.28051 0.3253 0.30552 0.0
C838 C 0.25548 0.3653 0.37252 0.0
C839 C 0.2587 0.31848 0.23868 0.0
C840 C 0.21334 0.3365 0.29051 0.0
C841 C 0.21025 0.3451 0.24138 0.0
C842 C 0.22842 0.33622 0.3142 0.0
C843 C 0.24075 0.34456 0.28757 0.0
C844 C 0.23752 0.35401 0.23987 0.0
C845 C 0.22224 0.35425 0.21752 0.0
C846 C 0.23133 0.32623 0.36578 0.0
C847 C 0.25038 0.36299 0.21013 0.0
H848 H 0.28437 0.35485 0.40103 0.0
H849 H 0.28662 0.31505 0.28982 0.0
H850 H 0.25092 0.37302 0.33858 0.0
H851 H 0.2452 0.36102 0.39688 0.0
H852 H 0.26303 0.3724 0.40099 0.0
H853 H 0.26725 0.30962 0.22302 0.0
H854 H 0.2483 0.31219 0.25566 0.0
H855 H 0.25465 0.32568 0.20249 0.0
H856 H 0.20413 0.32953 0.30952 0.0
H857 H 0.21994 0.36093 0.1795 0.0
H858 H 0.23807 0.33293 0.39777 0.0
H859 H 0.23848 0.31583 0.35396 0.0
H860 H 0.22022 0.32204 0.38524 0.0
H861 H 0.2576 0.36964 0.24085 0.0
H862 H 0.24563 0.37131 0.17833 0.0
H863 H 0.2583 0.35458 0.18838 0.0
C864 C 0.41047 0.52268 0.07939 0.0
C865 C 0.40159 0.53123 0.11851 0.0
C866 C 0.4049 0.5086 0.05661 0.0
C867 C 0.39015 0.50266 0.07419 0.0
C868 C 0.38086 0.51139 0.11252 0.0
C869 C 0.38669 0.52564 0.13419 0.0
C870 C 0.41516 0.49977 0.01527 0.0
C871 C 0.36515 0.50539 0.1326 0.0
C872 C 0.37849 0.46998 0.97583 0.0
C873 C 0.38664 0.45747 0.00064 0.0
C874 C 0.37789 0.4847 0.00254 0.0
C875 C 0.38544 0.4867 0.05528 0.0
C876 C 0.39175 0.47348 0.08356 0.0
C877 C 0.39243 0.45902 0.05553 0.0
C878 C 0.37091 0.49846 0.97124 0.0
C879 C 0.39949 0.47497 0.14055 0.0
H880 H 0.42204 0.52673 0.06741 0.0
H881 H 0.37976 0.53215 0.1646 0.0
H882 H 0.41912 0.48855 0.03441 0.0
H883 H 0.40841 0.49685 0.97669 0.0
H884 H 0.42573 0.50661 0.00274 0.0
H885 H 0.35811 0.51479 0.1531 0.0
H886 H 0.35827 0.50038 0.09717 0.0
H887 H 0.36704 0.49584 0.16373 0.0
H888 H 0.37397 0.46873 0.93333 0.0
H889 H 0.3984 0.44918 0.07515 0.0
H890 H 0.3805 0.50528 0.95106 0.0
H891 H 0.36461 0.50646 0.00044 0.0
H892 H 0.36266 0.49455 0.93777 0.0
H893 H 0.41125 0.48043 0.1354 0.0
H894 H 0.40104 0.46335 0.16118 0.0
H895 H 0.39249 0.48266 0.16874 0.0
C896 C 0.28488 0.64038 0.76963 0.0
C897 C 0.29167 0.63555 0.7188 0.0
C898 C 0.26907 0.63726 0.78147 0.0
C899 C 0.25987 0.62908 0.74136 0.0
C900 C 0.26718 0.6225 0.69318 0.0
C901 C 0.28308 0.62584 0.68235 0.0
C902 C 0.26187 0.64423 0.83402 0.0
C903 C 0.25788 0.61329 0.65035 0.0
C904 C 0.21744 0.62374 0.78756 0.0
C905 C 0.2107 0.63762 0.76658 0.0
C906 C 0.23326 0.62005 0.77639 0.0
C907 C 0.24249 0.63058 0.74412 0.0
C908 C 0.23542 0.64405 0.71995 0.0
C909 C 0.21966 0.64737 0.73148 0.0
C910 C 0.24027 0.6054 0.80191 0.0
C911 C 0.24477 0.65563 0.68509 0.0
H912 H 0.29167 0.64732 0.79899 0.0
H913 H 0.28837 0.62189 0.64326 0.0
H914 H 0.25441 0.65442 0.82225 0.0
H915 H 0.25424 0.63551 0.85542 0.0
H916 H 0.27094 0.64833 0.86433 0.0
H917 H 0.26565 0.60605 0.62311 0.0
H918 H 0.2492 0.6055 0.67133 0.0
H919 H 0.25128 0.62155 0.62299 0.0
H920 H 0.21057 0.61607 0.81449 0.0
H921 H 0.21464 0.65812 0.7151 0.0
H922 H 0.24645 0.60851 0.84152 0.0
H923 H 0.24897 0.59994 0.7731 0.0
H924 H 0.23105 0.5966 0.81219 0.0
H925 H 0.25369 0.66146 0.71209 0.0
H926 H 0.23724 0.66486 0.66592 0.0
H927 H 0.25113 0.64946 0.65082 0.0
C928 C 0.11702 0.49602 0.58843 0.0
C929 C 0.12303 0.48078 0.58462 0.0
C930 C 0.1178 0.50627 0.54239 0.0
C931 C 0.12435 0.50087 0.49099 0.0
C932 C 0.13203 0.48611 0.48914 0.0
C933 C 0.13129 0.47616 0.53637 0.0
C934 C 0.10982 0.52208 0.54672 0.0
C935 C 0.13936 0.48004 0.43552 0.0
C936 C 0.09836 0.51509 0.3735 0.0
C937 C 0.10629 0.52861 0.35583 0.0
C938 C 0.10488 0.50511 0.41402 0.0
C939 C 0.11966 0.5089 0.438 0.0
C940 C 0.12835 0.5218 0.41671 0.0
C941 C 0.12154 0.53154 0.37551 0.0
C942 C 0.09526 0.49134 0.43479 0.0
C943 C 0.14418 0.52613 0.44061 0.0
H944 H 0.11057 0.49946 0.6259 0.0
H945 H 0.13575 0.46424 0.53341 0.0
H946 H 0.11706 0.53135 0.52652 0.0
H947 H 0.09838 0.52165 0.52432 0.0
H948 H 0.1076 0.52548 0.59123 0.0
H949 H 0.14804 0.4706 0.44424 0.0
H950 H 0.13003 0.4751 0.40808 0.0
H951 H 0.14524 0.48964 0.41192 0.0
H952 H 0.08661 0.51278 0.35781 0.0
H953 H 0.12767 0.54206 0.36197 0.0
H954 H 0.09092 0.49383 0.47801 0.0
H955 H 0.10254 0.48055 0.43687 0.0
H956 H 0.08495 0.48898 0.40734 0.0
H957 H 0.14249 0.53325 0.47932 0.0
H958 H 0.15112 0.53324 0.41022 0.0
H959 H 0.15103 0.51552 0.45226 0.0
C960 C 0.12262 0.14969 0.98954 0.0
C961 C 0.1379 0.14368 0.99424 0.0
C962 C 0.11203 0.14344 0.94998 0.0
C963 C 0.11679 0.13066 0.91575 0.0
C964 C 0.13219 0.12453 0.92078 0.0
C965 C 0.1426 0.13125 0.95947 0.0
C966 C 0.09583 0.15049 0.94465 0.0
C967 C 0.13763 0.11069 0.88588 0.0
C968 C 0.08902 0.10099 0.85233 0.0
C969 C 0.0907 0.10424 0.7947 0.0
C970 C 0.09658 0.11025 0.89293 0.0
C971 C 0.10575 0.12323 0.87538 0.0
C972 C 0.10627 0.12742 0.81766 0.0
C973 C 0.09886 0.11775 0.77782 0.0
C974 C 0.09589 0.10525 0.95398 0.0
C975 C 0.11558 0.14144 0.79753 0.0
H976 H 0.11903 0.1594 0.01619 0.0
H977 H 0.15437 0.1265 0.96331 0.0
H978 H 0.09375 0.15428 0.90051 0.0
H979 H 0.08679 0.14154 0.95484 0.0
H980 H 0.09416 0.16076 0.97296 0.0
H981 H 0.14988 0.10715 0.8959 0.0
H982 H 0.1298 0.10046 0.89323 0.0
H983 H 0.13698 0.11363 0.8404 0.0
H984 H 0.08266 0.0906 0.86569 0.0
H985 H 0.09999 0.12044 0.73333 0.0
H986 H 0.09367 0.11549 0.98177 0.0
H987 H 0.1074 0.10017 0.96637 0.0
H988 H 0.08663 0.0963 0.96161 0.0
H989 H 0.1136 0.15171 0.82544 0.0
H990 H 0.11249 0.14476 0.75362 0.0
H991 H 0.12831 0.13862 0.79889 0.0
C992 C 0.13088 0.85391 0.99276 0.0
C993 C 0.14608 0.84767 0.99709 0.0
C994 C 0.12504 0.86422 0.03396 0.0
C995 C 0.13472 0.86848 0.08 0.0
C996 C 0.14972 0.86152 0.08619 0.0
C997 C 0.15517 0.85111 0.04484 0.0
C998 C 0.10886 0.8712 0.02655 0.0
C999 C 0.16044 0.86585 0.1345 0.0
C1000 C 0.12995 0.9094 0.14033 0.0
C1001 C 0.12218 0.90639 0.1913 0.0
C1002 C 0.13396 0.89714 0.10366 0.0
C1003 C 0.12999 0.88149 0.11806 0.0
C1004 C 0.122 0.87836 0.16917 0.0
C1005 C 0.11826 0.89086 0.20542 0.0
C1006 C 0.14262 0.90095 0.04973 0.0
C1007 C 0.11746 0.86182 0.18552 0.0
H1008 H 0.12373 0.85118 0.95624 0.0
H1009 H 0.16691 0.84628 0.04868 0.0
H1010 H 0.10215 0.87057 0.06659 0.0
H1011 H 0.10994 0.88379 0.01505 0.0
H1012 H 0.10206 0.86513 0.99304 0.0
H1013 H 0.17107 0.85828 0.13622 0.0
H1014 H 0.16426 0.87826 0.12982 0.0
H1015 H 0.15412 0.8649 0.17525 0.0
H1016 H 0.13303 0.92136 0.12917 0.0
H1017 H 0.11217 0.88847 0.24463 0.0
H1018 H 0.13578 0.89675 0.01289 0.0
H1019 H 0.1541 0.89477 0.04906 0.0
H1020 H 0.14477 0.91375 0.04469 0.0
H1021 H 0.11017 0.85645 0.15186 0.0
H1022 H 0.1108 0.86143 0.22578 0.0
H1023 H 0.12815 0.85447 0.19001 0.0
C1024 C 0.40268 0.90194 0.38211 0.0
C1025 C 0.39986 0.89921 0.32469 0.0
C1026 C 0.39523 0.8929 0.42362 0.0
C1027 C 0.38492 0.88069 0.40722 0.0
C1028 C 0.38308 0.87701 0.3494 0.0
C1029 C 0.3905 0.8864 0.3087 0.0
C1030 C 0.39741 0.89728 0.48483 0.0
C1031 C 0.37244 0.86385 0.33035 0.0
C1032 C 0.36911 0.8536 0.52142 0.0
C1033 C 0.35434 0.86034 0.53181 0.0
C1034 C 0.37917 0.85991 0.48024 0.0
C1035 C 0.37441 0.87339 0.44974 0.0
C1036 C 0.35956 0.88028 0.46047 0.0
C1037 C 0.34967 0.87358 0.50103 0.0
C1038 C 0.39481 0.85214 0.46917 0.0
C1039 C 0.35415 0.89481 0.42942 0.0
H1040 H 0.40998 0.91176 0.39485 0.0
H1041 H 0.38843 0.8841 0.26438 0.0
H1042 H 0.38647 0.9028 0.50088 0.0
H1043 H 0.39966 0.88667 0.51076 0.0
H1044 H 0.40726 0.90568 0.49093 0.0
H1045 H 0.37424 0.86089 0.2852 0.0
H1046 H 0.37443 0.85314 0.35607 0.0
H1047 H 0.36 0.86741 0.33624 0.0
H1048 H 0.37271 0.84328 0.54489 0.0
H1049 H 0.33831 0.87889 0.5091 0.0
H1050 H 0.4045 0.86054 0.47756 0.0
H1051 H 0.39566 0.8487 0.42415 0.0
H1052 H 0.39661 0.84152 0.49567 0.0
H1053 H 0.36263 0.90453 0.43619 0.0
H1054 H 0.34234 0.89881 0.44334 0.0
H1055 H 0.35371 0.89246 0.38346 0.0
C1056 C 0.38187 0.09663 0.68584 0.0
C1057 C 0.37029 0.08675 0.70864 0.0
C1058 C 0.37815 0.10763 0.64389 0.0
C1059 C 0.36252 0.10862 0.62397 0.0
C1060 C 0.35062 0.09931 0.64906 0.0
C1061 C 0.35465 0.08853 0.69138 0.0
C1062 C 0.39109 0.11755 0.61882 0.0
C1063 C 0.33381 0.10005 0.62886 0.0
C1064 C 0.34867 0.14194 0.52982 0.0
C1065 C 0.34927 0.13482 0.4765 0.0
C1066 C 0.35348 0.13377 0.57826 0.0
C1067 C 0.35887 0.1181 0.57312 0.0
C1068 C 0.36007 0.11109 0.51919 0.0
C1069 C 0.35533 0.11956 0.47152 0.0
C1070 C 0.35227 0.14169 0.63504 0.0
C1071 C 0.36578 0.09439 0.51198 0.0
H1072 H 0.39396 0.09546 0.69953 0.0
H1073 H 0.34563 0.08098 0.70897 0.0
H1074 H 0.39365 0.11347 0.57537 0.0
H1075 H 0.38738 0.13003 0.61595 0.0
H1076 H 0.4021 0.11689 0.64387 0.0
H1077 H 0.32576 0.09307 0.65595 0.0
H1078 H 0.32964 0.11239 0.6279 0.0
H1079 H 0.3331 0.09543 0.58518 0.0
H1080 H 0.34409 0.15377 0.53397 0.0
H1081 H 0.35588 0.11398 0.43049 0.0
H1082 H 0.36349 0.14051 0.65846 0.0
H1083 H 0.34303 0.13586 0.66056 0.0
H1084 H 0.34933 0.15437 0.63131 0.0
H1085 H 0.37753 0.09297 0.53156 0.0
H1086 H 0.36658 0.09089 0.46696 0.0
H1087 H 0.35765 0.0862 0.53379 0.0
C1088 C 0.86777 0.86186 0.00425 0.0
C1089 C 0.85321 0.85546 0.0198 0.0
C1090 C 0.87707 0.86994 0.04351 0.0
C1091 C 0.87161 0.87176 0.09948 0.0
C1092 C 0.85716 0.8649 0.11588 0.0
C1093 C 0.84816 0.85678 0.07587 0.0
C1094 C 0.89249 0.87698 0.02465 0.0
C1095 C 0.85092 0.86665 0.17517 0.0
C1096 C 0.89954 0.8848 0.21532 0.0
C1097 C 0.89621 0.90092 0.21857 0.0
C1098 C 0.8918 0.87515 0.17614 0.0
C1099 C 0.88041 0.8818 0.13978 0.0
C1100 C 0.87712 0.89808 0.14254 0.0
C1101 C 0.88509 0.90745 0.18175 0.0
C1102 C 0.89567 0.85784 0.17402 0.0
C1103 C 0.86498 0.90558 0.10462 0.0
H1104 H 0.87181 0.86078 0.96108 0.0
H1105 H 0.83694 0.85184 0.08827 0.0
H1106 H 0.89175 0.88999 0.02621 0.0
H1107 H 0.90208 0.87338 0.05355 0.0
H1108 H 0.89567 0.87342 0.98106 0.0
H1109 H 0.83998 0.8598 0.18207 0.0
H1110 H 0.85986 0.86275 0.20617 0.0
H1111 H 0.84842 0.87922 0.18385 0.0
H1112 H 0.90815 0.87969 0.24356 0.0
H1113 H 0.88243 0.91989 0.18401 0.0
H1114 H 0.89932 0.85449 0.13076 0.0
H1115 H 0.88507 0.85083 0.18446 0.0
H1116 H 0.90521 0.85461 0.20382 0.0
H1117 H 0.86807 0.90353 0.05978 0.0
H1118 H 0.86395 0.91845 0.11165 0.0
H1119 H 0.85333 0.90012 0.11205 0.0
C1120 C 0.83426 0.14037 0.93365 0.0
C1121 C 0.84035 0.14337 0.98752 0.0
C1122 C 0.84286 0.13173 0.89392 0.0
C1123 C 0.85797 0.12607 0.90826 0.0
C1124 C 0.86447 0.1296 0.9617 0.0
C1125 C 0.85554 0.13817 0.00086 0.0
C1126 C 0.83551 0.12814 0.83743 0.0
C1127 C 0.88062 0.12389 0.97819 0.0
C1128 C 0.87137 0.08913 0.83317 0.0
C1129 C 0.88109 0.09523 0.79076 0.0
C1130 C 0.86395 0.09905 0.87207 0.0
C1131 C 0.86643 0.11547 0.86882 0.0
C1132 C 0.87646 0.12171 0.82681 0.0
C1133 C 0.88363 0.11151 0.78802 0.0
C1134 C 0.85322 0.09196 0.91599 0.0
C1135 C 0.87947 0.13916 0.82246 0.0
H1136 H 0.82255 0.14438 0.92291 0.0
H1137 H 0.86037 0.14054 0.04228 0.0
H1138 H 0.84352 0.13169 0.8028 0.0
H1139 H 0.83358 0.11528 0.8335 0.0
H1140 H 0.82406 0.1342 0.83159 0.0
H1141 H 0.88452 0.1288 0.01927 0.0
H1142 H 0.88059 0.11088 0.98129 0.0
H1143 H 0.88934 0.12715 0.94541 0.0
H1144 H 0.86933 0.07657 0.83554 0.0
H1145 H 0.89119 0.11629 0.75551 0.0
H1146 H 0.84112 0.0966 0.91056 0.0
H1147 H 0.8572 0.09535 0.95882 0.0
H1148 H 0.85279 0.07893 0.91348 0.0
H1149 H 0.86833 0.14539 0.81294 0.0
H1150 H 0.88817 0.14205 0.78912 0.0
H1151 H 0.88383 0.14375 0.86333 0.0
C1152 C 0.58978 0.11827 0.6906 0.0
C1153 C 0.60162 0.11244 0.72612 0.0
C1154 C 0.59352 0.12618 0.6404 0.0
C1155 C 0.60947 0.12825 0.62533 0.0
C1156 C 0.62146 0.1231 0.66238 0.0
C1157 C 0.61739 0.11529 0.71238 0.0
C1158 C 0.58041 0.13166 0.6023 0.0
C1159 C 0.63863 0.12514 0.64793 0.0
C1160 C 0.62223 0.12975 0.47248 0.0
C1161 C 0.62633 0.14562 0.46619 0.0
C1162 C 0.616 0.1241 0.52331 0.0
C1163 C 0.61375 0.13458 0.56894 0.0
C1164 C 0.61688 0.1508 0.5617 0.0
C1165 C 0.62314 0.15614 0.51035 0.0
C1166 C 0.6127 0.10673 0.52919 0.0
C1167 C 0.61446 0.16236 0.60917 0.0
H1168 H 0.57755 0.11623 0.70106 0.0
H1169 H 0.62662 0.11092 0.73968 0.0
H1170 H 0.58239 0.14401 0.58901 0.0
H1171 H 0.58021 0.12435 0.56357 0.0
H1172 H 0.56873 0.13083 0.623 0.0
H1173 H 0.64648 0.12147 0.68294 0.0
H1174 H 0.64152 0.11802 0.61013 0.0
H1175 H 0.64113 0.1376 0.63749 0.0
H1176 H 0.62452 0.12156 0.43847 0.0
H1177 H 0.6262 0.16844 0.50582 0.0
H1178 H 0.60066 0.10481 0.54578 0.0
H1179 H 0.62104 0.10149 0.55986 0.0
H1180 H 0.61387 0.10038 0.4885 0.0
H1181 H 0.60274 0.16068 0.62879 0.0
H1182 H 0.61548 0.17474 0.59468 0.0
H1183 H 0.6234 0.16029 0.64239 0.0
C1184 C 0.65822 0.86107 0.39987 0.0
C1185 C 0.65206 0.85691 0.45264 0.0
C1186 C 0.64933 0.86978 0.36118 0.0
C1187 C 0.63386 0.87437 0.37543 0.0
C1188 C 0.62732 0.8697 0.4277 0.0
C1189 C 0.63652 0.86103 0.46581 0.0
C1190 C 0.65673 0.87454 0.30583 0.0
C1191 C 0.6108 0.87427 0.44409 0.0
C1192 C 0.61895 0.91112 0.30249 0.0
C1193 C 0.61006 0.90479 0.2582 0.0
C1194 C 0.62644 0.90133 0.34172 0.0
C1195 C 0.62493 0.88482 0.33677 0.0
C1196 C 0.61562 0.87836 0.29311 0.0
C1197 C 0.60834 0.88843 0.25418 0.0
C1198 C 0.63634 0.90866 0.38758 0.0
C1199 C 0.61365 0.86081 0.2868 0.0
H1200 H 0.67019 0.85789 0.3892 0.0
H1201 H 0.63165 0.85781 0.50643 0.0
H1202 H 0.64918 0.87082 0.27014 0.0
H1203 H 0.65776 0.88753 0.30386 0.0
H1204 H 0.6686 0.86936 0.30001 0.0
H1205 H 0.60704 0.86869 0.48422 0.0
H1206 H 0.61006 0.88722 0.44901 0.0
H1207 H 0.60242 0.87089 0.41039 0.0
H1208 H 0.62032 0.92375 0.30597 0.0
H1209 H 0.60141 0.88345 0.22027 0.0
H1210 H 0.64878 0.90502 0.38242 0.0
H1211 H 0.63239 0.90446 0.42953 0.0
H1212 H 0.63579 0.9217 0.38702 0.0
H1213 H 0.62515 0.85534 0.27679 0.0
H1214 H 0.60518 0.8577 0.25294 0.0
H1215 H 0.60951 0.85559 0.32702 0.0
C1216 C 0.64433 0.60974 0.52352 0.0
C1217 C 0.64429 0.62599 0.5332 0.0
C1218 C 0.63637 0.60329 0.47729 0.0
C1219 C 0.62808 0.61333 0.44012 0.0
C1220 C 0.62747 0.62967 0.45086 0.0
C1221 C 0.63563 0.63582 0.49726 0.0
C1222 C 0.63728 0.58578 0.46719 0.0
C1223 C 0.61859 0.64068 0.41245 0.0
C1224 C 0.62341 0.59696 0.29271 0.0
C1225 C 0.60848 0.59004 0.29592 0.0
C1226 C 0.62967 0.60522 0.33865 0.0
C1227 C 0.62072 0.60668 0.38869 0.0
C1228 C 0.60527 0.60058 0.39091 0.0
C1229 C 0.59934 0.59228 0.3445 0.0
C1230 C 0.64619 0.6116 0.3347 0.0
C1231 C 0.5953 0.60212 0.4433 0.0
H1232 H 0.65096 0.60206 0.55114 0.0
H1233 H 0.63547 0.64839 0.50465 0.0
H1234 H 0.62529 0.58074 0.46403 0.0
H1235 H 0.64332 0.58346 0.42656 0.0
H1236 H 0.64373 0.57955 0.50122 0.0
H1237 H 0.61822 0.65288 0.42916 0.0
H1238 H 0.62426 0.64091 0.37035 0.0
H1239 H 0.60637 0.63647 0.40638 0.0
H1240 H 0.63051 0.59534 0.25523 0.0
H1241 H 0.58773 0.5871 0.34707 0.0
H1242 H 0.65395 0.60502 0.36396 0.0
H1243 H 0.64648 0.62412 0.34766 0.0
H1244 H 0.65108 0.61062 0.29142 0.0
H1245 H 0.60032 0.59472 0.47735 0.0
H1246 H 0.58296 0.59839 0.43595 0.0
H1247 H 0.59531 0.61444 0.45856 0.0
C1248 C 0.62148 0.39993 0.66504 0.0
C1249 C 0.60584 0.40472 0.6719 0.0
C1250 C 0.62651 0.39286 0.61478 0.0
C1251 C 0.61562 0.39055 0.57043 0.0
C1252 C 0.59959 0.39427 0.57868 0.0
C1253 C 0.59487 0.40129 0.62943 0.0
C1254 C 0.64369 0.38883 0.60783 0.0
C1255 C 0.58761 0.39183 0.53259 0.0
C1256 C 0.63341 0.39293 0.42427 0.0
C1257 C 0.63523 0.37701 0.41054 0.0
C1258 C 0.62653 0.39746 0.47543 0.0
C1259 C 0.62136 0.3858 0.51381 0.0
C1260 C 0.62251 0.36973 0.49916 0.0
C1261 C 0.62942 0.36552 0.4476 0.0
C1262 C 0.62535 0.41475 0.48936 0.0
C1263 C 0.61707 0.35698 0.53891 0.0
H1264 H 0.63 0.40239 0.69783 0.0
H1265 H 0.58272 0.40483 0.63453 0.0
H1266 H 0.64504 0.37671 0.59131 0.0
H1267 H 0.6491 0.39693 0.57671 0.0
H1268 H 0.65027 0.3898 0.64811 0.0
H1269 H 0.57539 0.39331 0.54817 0.0
H1270 H 0.58967 0.40048 0.49838 0.0
H1271 H 0.5888 0.37994 0.5139 0.0
H1272 H 0.63778 0.40187 0.39576 0.0
H1273 H 0.63073 0.35318 0.43728 0.0
H1274 H 0.63287 0.41745 0.52631 0.0
H1275 H 0.61309 0.41781 0.50092 0.0
H1276 H 0.62907 0.42234 0.45366 0.0
H1277 H 0.62478 0.35677 0.57663 0.0
H1278 H 0.61734 0.34517 0.51897 0.0
H1279 H 0.60495 0.35939 0.55376 0.0
C1280 C 0.87953 0.38605 0.76813 0.0
C1281 C 0.89567 0.38852 0.7603 0.0
C1282 C 0.87374 0.37985 0.8188 0.0
C1283 C 0.88435 0.37597 0.86262 0.0
C1284 C 0.90072 0.37748 0.85365 0.0
C1285 C 0.90619 0.38374 0.80254 0.0
C1286 C 0.85619 0.37829 0.82658 0.0
C1287 C 0.9124 0.37331 0.89914 0.0
C1288 C 0.86688 0.38006 0.00874 0.0
C1289 C 0.86249 0.36454 0.02081 0.0
C1290 C 0.87465 0.38382 0.95838 0.0
C1291 C 0.87815 0.37176 0.91922 0.0
C1292 C 0.87459 0.35595 0.93259 0.0
C1293 C 0.86679 0.35252 0.98327 0.0
C1294 C 0.87836 0.40083 0.94583 0.0
C1295 C 0.87829 0.34276 0.89213 0.0
H1296 H 0.87132 0.38958 0.73559 0.0
H1297 H 0.9187 0.38551 0.79672 0.0
H1298 H 0.85318 0.36634 0.84187 0.0
H1299 H 0.85214 0.38678 0.85897 0.0
H1300 H 0.84962 0.38056 0.78694 0.0
H1301 H 0.92467 0.37321 0.88311 0.0
H1302 H 0.9116 0.38202 0.93381 0.0
H1303 H 0.90968 0.36161 0.91734 0.0
H1304 H 0.86372 0.38941 0.03763 0.0
H1305 H 0.86353 0.34047 0.99239 0.0
H1306 H 0.87121 0.40487 0.90951 0.0
H1307 H 0.8909 0.40213 0.93389 0.0
H1308 H 0.87592 0.40863 0.98234 0.0
H1309 H 0.87055 0.34368 0.85465 0.0
H1310 H 0.87653 0.33101 0.91159 0.0
H1311 H 0.8906 0.34365 0.87707 0.0
C1312 C 0.90648 0.61016 0.23586 0.0
C1313 C 0.89787 0.60754 0.28544 0.0
C1314 C 0.89923 0.61639 0.18764 0.0
C1315 C 0.88299 0.6199 0.18905 0.0
C1316 C 0.87441 0.61792 0.23969 0.0
C1317 C 0.88198 0.61184 0.28738 0.0
C1318 C 0.90879 0.61861 0.13463 0.0
C1319 C 0.85704 0.62152 0.24282 0.0
C1320 C 0.86216 0.64478 0.07972 0.0
C1321 C 0.85464 0.63322 0.04729 0.0
C1322 C 0.87219 0.64063 0.12424 0.0
C1323 C 0.87458 0.62456 0.13685 0.0
C1324 C 0.86771 0.61285 0.10235 0.0
C1325 C 0.85789 0.61733 0.05774 0.0
C1326 C 0.87955 0.65344 0.15948 0.0
C1327 C 0.86998 0.59557 0.11455 0.0
H1328 H 0.9188 0.60698 0.2342 0.0
H1329 H 0.87526 0.6099 0.32556 0.0
H1330 H 0.90501 0.60996 0.10239 0.0
H1331 H 0.9068 0.6305 0.11678 0.0
H1332 H 0.92158 0.61704 0.14226 0.0
H1333 H 0.85228 0.6201 0.28613 0.0
H1334 H 0.85476 0.63372 0.2286 0.0
H1335 H 0.85051 0.61354 0.21417 0.0
H1336 H 0.85984 0.6571 0.07148 0.0
H1337 H 0.85218 0.60833 0.03274 0.0
H1338 H 0.89224 0.65107 0.16604 0.0
H1339 H 0.87391 0.6537 0.20162 0.0
H1340 H 0.87823 0.66522 0.13981 0.0
H1341 H 0.88266 0.59278 0.11836 0.0
H1342 H 0.8648 0.58798 0.0813 0.0
H1343 H 0.86437 0.5926 0.15543 0.0
C1344 C 0.35571 0.36926 0.5321 0.0
C1345 C 0.35484 0.35283 0.52825 0.0
C1346 C 0.36108 0.3766 0.58141 0.0
C1347 C 0.36567 0.36729 0.62805 0.0
C1348 C 0.36542 0.3507 0.62369 0.0
C1349 C 0.36003 0.34366 0.57377 0.0
C1350 C 0.36131 0.39433 0.58426 0.0
C1351 C 0.3703 0.3404 0.67247 0.0
C1352 C 0.38964 0.38743 0.74205 0.0
C1353 C 0.37801 0.39139 0.78156 0.0
C1354 C 0.38586 0.37929 0.69244 0.0
C1355 C 0.37007 0.37498 0.68209 0.0
C1356 C 0.35834 0.37857 0.72243 0.0
C1357 C 0.36244 0.38675 0.77169 0.0
C1358 C 0.3987 0.37565 0.65045 0.0
C1359 C 0.34137 0.37411 0.71295 0.0
H1360 H 0.3518 0.37644 0.49707 0.0
H1361 H 0.35941 0.33095 0.57118 0.0
H1362 H 0.35284 0.39843 0.61664 0.0
H1363 H 0.37312 0.39853 0.59708 0.0
H1364 H 0.3582 0.39985 0.54331 0.0
H1365 H 0.37041 0.32773 0.66107 0.0
H1366 H 0.38217 0.34376 0.6875 0.0
H1367 H 0.36205 0.3421 0.70819 0.0
H1368 H 0.40172 0.39093 0.74933 0.0
H1369 H 0.35339 0.38971 0.80201 0.0
H1370 H 0.3964 0.38198 0.61042 0.0
H1371 H 0.39881 0.3629 0.64061 0.0
H1372 H 0.41051 0.37909 0.66611 0.0
H1373 H 0.3368 0.38025 0.67508 0.0
H1374 H 0.33379 0.37715 0.74948 0.0
H1375 H 0.3404 0.3613 0.70493 0.0
C1376 C 0.3561 0.64515 0.46525 0.0
C1377 C 0.36078 0.64587 0.5219 0.0
C1378 C 0.36492 0.63677 0.42543 0.0
C1379 C 0.37887 0.62908 0.44251 0.0
C1380 C 0.38425 0.63069 0.4987 0.0
C1381 C 0.37508 0.63899 0.53789 0.0
C1382 C 0.35872 0.63526 0.36602 0.0
C1383 C 0.39923 0.6229 0.5182 0.0
C1384 C 0.38852 0.59142 0.36481 0.0
C1385 C 0.3998 0.59646 0.32574 0.0
C1386 C 0.38181 0.60191 0.4034 0.0
C1387 C 0.38665 0.61782 0.40355 0.0
C1388 C 0.39831 0.62295 0.36513 0.0
C1389 C 0.40467 0.61222 0.32627 0.0
C1390 C 0.36926 0.596 0.4432 0.0
C1391 C 0.40392 0.63978 0.3647 0.0
H1392 H 0.34512 0.65051 0.45238 0.0
H1393 H 0.37886 0.63963 0.58146 0.0
H1394 H 0.36809 0.63791 0.33495 0.0
H1395 H 0.35486 0.62297 0.35856 0.0
H1396 H 0.3486 0.64321 0.35804 0.0
H1397 H 0.40295 0.62711 0.56047 0.0
H1398 H 0.39745 0.60999 0.52041 0.0
H1399 H 0.40888 0.6251 0.48774 0.0
H1400 H 0.38466 0.57928 0.36458 0.0
H1401 H 0.41347 0.61616 0.29637 0.0
H1402 H 0.35813 0.60247 0.43576 0.0
H1403 H 0.3728 0.59821 0.48749 0.0
H1404 H 0.36696 0.58323 0.43808 0.0
H1405 H 0.39409 0.64769 0.35288 0.0
H1406 H 0.41375 0.64166 0.33464 0.0
H1407 H 0.40784 0.64328 0.40749 0.0
C1408 C 0.13452 0.61302 0.94797 0.0
C1409 C 0.13694 0.6289 0.93486 0.0
C1410 C 0.12736 0.60857 0.99878 0.0
C1411 C 0.12253 0.62029 0.0375 0.0
C1412 C 0.12426 0.63635 0.02339 0.0
C1413 C 0.13142 0.64048 0.97215 0.0
C1414 C 0.12558 0.5913 0.01206 0.0
C1415 C 0.11919 0.64917 0.06347 0.0
C1416 C 0.09558 0.60554 0.15337 0.0
C1417 C 0.10644 0.60177 0.19582 0.0
C1418 C 0.10051 0.61238 0.10249 0.0
C1419 C 0.11666 0.61557 0.09407 0.0
C1420 C 0.12749 0.61284 0.13831 0.0
C1421 C 0.12225 0.60596 0.18865 0.0
C1422 C 0.08859 0.61524 0.0565 0.0
C1423 C 0.14479 0.61627 0.13123 0.0
H1424 H 0.13865 0.60401 0.91928 0.0
H1425 H 0.13321 0.65279 0.96233 0.0
H1426 H 0.13305 0.58822 0.04878 0.0
H1427 H 0.11324 0.58863 0.02367 0.0
H1428 H 0.129 0.5837 0.97601 0.0
H1429 H 0.11984 0.66101 0.04388 0.0
H1430 H 0.10699 0.6471 0.07815 0.0
H1431 H 0.12687 0.64905 0.10125 0.0
H1432 H 0.08332 0.60243 0.1586 0.0
H1433 H 0.1307 0.60322 0.22141 0.0
H1434 H 0.09039 0.60659 0.0221 0.0
H1435 H 0.09013 0.62713 0.03806 0.0
H1436 H 0.07634 0.6141 0.0721 0.0
H1437 H 0.14988 0.6081 0.09968 0.0
H1438 H 0.15139 0.61494 0.17135 0.0
H1439 H 0.14654 0.62839 0.11521 0.0
C1440 C 0.11803 0.40352 0.80815 0.0
C1441 C 0.12991 0.40915 0.77235 0.0
C1442 C 0.1217 0.39493 0.85687 0.0
C1443 C 0.13761 0.39175 0.86982 0.0
C1444 C 0.14959 0.39665 0.83229 0.0
C1445 C 0.1456 0.40535 0.78406 0.0
C1446 C 0.10858 0.38994 0.89589 0.0
C1447 C 0.16669 0.39327 0.84429 0.0
C1448 C 0.14935 0.3869 0.02314 0.0
C1449 C 0.15076 0.37054 0.02786 0.0
C1450 C 0.14483 0.39391 0.97214 0.0
C1451 C 0.14179 0.38433 0.92455 0.0
C1452 C 0.14293 0.36779 0.92924 0.0
C1453 C 0.14733 0.36108 0.98096 0.0
C1454 C 0.14353 0.41159 0.96898 0.0
C1455 C 0.13986 0.35722 0.87932 0.0
H1456 H 0.10586 0.40635 0.79942 0.0
H1457 H 0.15484 0.40956 0.75645 0.0
H1458 H 0.10956 0.37724 0.90588 0.0
H1459 H 0.10954 0.39646 0.93625 0.0
H1460 H 0.09679 0.3922 0.87756 0.0
H1461 H 0.17443 0.39662 0.80854 0.0
H1462 H 0.17045 0.39989 0.88224 0.0
H1463 H 0.16838 0.38059 0.85341 0.0
H1464 H 0.15191 0.39428 0.05923 0.0
H1465 H 0.14845 0.34842 0.98419 0.0
H1466 H 0.13162 0.415 0.9544 0.0
H1467 H 0.15207 0.41623 0.9378 0.0
H1468 H 0.1458 0.41732 0.01027 0.0
H1469 H 0.12795 0.35946 0.86212 0.0
H1470 H 0.14083 0.34457 0.89035 0.0
H1471 H 0.1484 0.35986 0.84524 0.0
C1472 C 0.14305 0.28549 0.1434 0.0
C1473 C 0.14082 0.29315 0.19504 0.0
C1474 C 0.14071 0.26921 0.13894 0.0
C1475 C 0.13567 0.26067 0.18692 0.0
C1476 C 0.1306 0.2689 0.23544 0.0
C1477 C 0.13356 0.28508 0.23946 0.0
C1478 C 0.14609 0.26096 0.08604 0.0
C1479 C 0.12422 0.26033 0.28616 0.0
C1480 C 0.13619 0.21589 0.17702 0.0
C1481 C 0.15105 0.21257 0.19981 0.0
C1482 C 0.13065 0.23147 0.17383 0.0
C1483 C 0.14039 0.24392 0.19262 0.0
C1484 C 0.15534 0.24052 0.21596 0.0
C1485 C 0.16034 0.22493 0.21996 0.0
C1486 C 0.11436 0.23453 0.15125 0.0
C1487 C 0.16634 0.25338 0.23562 0.0
H1488 H 0.14857 0.29174 0.10881 0.0
H1489 H 0.13154 0.29108 0.27914 0.0
H1490 H 0.1581 0.25622 0.09286 0.0
H1491 H 0.13829 0.25094 0.07564 0.0
H1492 H 0.14648 0.26911 0.04946 0.0
H1493 H 0.11722 0.26829 0.31349 0.0
H1494 H 0.11677 0.25026 0.27314 0.0
H1495 H 0.13414 0.25565 0.31145 0.0
H1496 H 0.12892 0.20632 0.16187 0.0
H1497 H 0.17189 0.22248 0.2371 0.0
H1498 H 0.11426 0.24475 0.1222 0.0
H1499 H 0.10643 0.23739 0.18693 0.0
H1500 H 0.10952 0.22414 0.12884 0.0
H1501 H 0.1685 0.26187 0.20096 0.0
H1502 H 0.17786 0.24872 0.25 0.0
H1503 H 0.16095 0.25994 0.27108 0.0
C1504 C 0.98516 0.90555 0.42024 0.0
C1505 C 0.97403 0.90872 0.37827 0.0
C1506 C 0.00127 0.90603 0.40822 0.0
C1507 C 0.00627 0.91009 0.3532 0.0
C1508 C 0.99509 0.91121 0.3092 0.0
C1509 C 0.979 0.91042 0.32226 0.0
C1510 C 0.01282 0.9042 0.45603 0.0
C1511 C -5e-05 0.91522 0.24978 0.0
C1512 C 0.03956 0.93933 0.35945 0.0
C1513 C 0.05267 0.92994 0.34777 0.0
C1514 C 0.02437 0.9331 0.35825 0.0
C1515 C 0.0222 0.91696 0.34575 0.0
C1516 C 0.03531 0.90753 0.33131 0.0
C1517 C 0.05046 0.91418 0.33222 0.0
C1518 C 0.01071 0.9437 0.37292 0.0
C1519 C 0.03351 0.89029 0.31794 0.0
H1520 H 0.98131 0.90395 0.46345 0.0
H1521 H 0.97041 0.91279 0.28958 0.0
H1522 H 0.0233 0.89748 0.44225 0.0
H1523 H 0.01686 0.916 0.46981 0.0
H1524 H 0.00746 0.89816 0.49285 0.0
H1525 H 0.99064 0.91214 0.21888 0.0
H1526 H 0.00218 0.92805 0.24685 0.0
H1527 H 0.01097 0.90907 0.23804 0.0
H1528 H 0.04121 0.95158 0.37063 0.0
H1529 H 0.06059 0.90687 0.32324 0.0
H1530 H 0.00535 0.93982 0.41323 0.0
H1531 H 0.00152 0.94299 0.33988 0.0
H1532 H 0.01432 0.95619 0.37748 0.0
H1533 H 0.0323 0.88361 0.35787 0.0
H1534 H 0.04388 0.88565 0.2949 0.0
H1535 H 0.02281 0.88809 0.29246 0.0
C1536 C 0.35433 0.78143 0.67815 0.0
C1537 C 0.35251 0.78861 0.73094 0.0
C1538 C 0.3564 0.76511 0.67399 0.0
C1539 C 0.35701 0.75598 0.72385 0.0
C1540 C 0.35791 0.76358 0.77681 0.0
C1541 C 0.35536 0.77984 0.77986 0.0
C1542 C 0.35556 0.75752 0.61659 0.0
C1543 C 0.3594 0.75433 0.83079 0.0
C1544 C 0.33108 0.72 0.72925 0.0
C1545 C 0.34187 0.70773 0.72302 0.0
C1546 C 0.33593 0.73567 0.72794 0.0
C1547 C 0.35212 0.73922 0.72184 0.0
C1548 C 0.36314 0.72687 0.71516 0.0
C1549 C 0.35783 0.71118 0.71511 0.0
C1550 C 0.32365 0.74843 0.73366 0.0
C1551 C 0.38051 0.73012 0.71027 0.0
H1552 H 0.35227 0.78819 0.64011 0.0
H1553 H 0.35429 0.78544 0.82075 0.0
H1554 H 0.36356 0.74726 0.6138 0.0
H1555 H 0.34341 0.75323 0.60925 0.0
H1556 H 0.35857 0.76597 0.58255 0.0
H1557 H 0.3636 0.76184 0.86605 0.0
H1558 H 0.34774 0.74949 0.8425 0.0
H1559 H 0.36762 0.74432 0.82539 0.0
H1560 H 0.31871 0.71733 0.73459 0.0
H1561 H 0.36617 0.70163 0.71063 0.0
H1562 H 0.32464 0.75691 0.6983 0.0
H1563 H 0.32553 0.75502 0.77342 0.0
H1564 H 0.3115 0.74365 0.73406 0.0
H1565 H 0.38283 0.74046 0.68307 0.0
H1566 H 0.38699 0.71983 0.69317 0.0
H1567 H 0.38526 0.7328 0.75273 0.0
C1568 C 0.46249 0.05229 0.83482 0.0
C1569 C 0.44861 0.06079 0.82648 0.0
C1570 C 0.47702 0.0599 0.83783 0.0
C1571 C 0.47768 0.0765 0.83358 0.0
C1572 C 0.46377 0.08514 0.82277 0.0
C1573 C 0.44935 0.07713 0.8189 0.0
C1574 C 0.4916 0.05015 0.84807 0.0
C1575 C 0.46393 0.10283 0.81858 0.0
C1576 C 0.51354 0.08827 0.91451 0.0
C1577 C 0.52485 0.08797 0.87162 0.0
C1578 C 0.49753 0.08673 0.90186 0.0
C1579 C 0.49287 0.08448 0.84515 0.0
C1580 C 0.50402 0.08629 0.80137 0.0
C1581 C 0.51995 0.08815 0.81517 0.0
C1582 C 0.4859 0.08551 0.94971 0.0
C1583 C 0.4995 0.08422 0.74034 0.0
H1584 H 0.46193 0.03964 0.84006 0.0
H1585 H 0.43858 0.08372 0.8128 0.0
H1586 H 0.5008 0.05309 0.81665 0.0
H1587 H 0.49641 0.05281 0.89047 0.0
H1588 H 0.4892 0.03733 0.8457 0.0
H1589 H 0.45323 0.10736 0.79724 0.0
H1590 H 0.46435 0.10789 0.86165 0.0
H1591 H 0.47445 0.10707 0.79552 0.0
H1592 H 0.51728 0.08844 0.9582 0.0
H1593 H 0.52866 0.08804 0.78177 0.0
H1594 H 0.48308 0.07295 0.95734 0.0
H1595 H 0.47479 0.09164 0.93903 0.0
H1596 H 0.49068 0.09056 0.98935 0.0
H1597 H 0.49848 0.07148 0.7309 0.0
H1598 H 0.50844 0.08935 0.7116 0.0
H1599 H 0.48794 0.08971 0.73143 0.0
C1600 C 0.1346 0.77627 0.72705 0.0
C1601 C 0.14013 0.78369 0.77589 0.0
C1602 C 0.1324 0.75994 0.72579 0.0
C1603 C 0.13662 0.75089 0.77349 0.0
C1604 C 0.14012 0.75856 0.82496 0.0
C1605 C 0.14162 0.77499 0.82572 0.0
C1606 C 0.12747 0.75222 0.67137 0.0
C1607 C 0.14448 0.74938 0.87706 0.0
C1608 C 0.13784 0.70602 0.77434 0.0
C1609 C 0.15312 0.70332 0.75435 0.0
C1610 C 0.13188 0.72142 0.77871 0.0
C1611 C 0.14173 0.73432 0.76529 0.0
C1612 C 0.15717 0.73155 0.74516 0.0
C1613 C 0.16252 0.71612 0.73897 0.0
C1614 C 0.11521 0.72371 0.79869 0.0
C1615 C 0.16832 0.74488 0.73152 0.0
H1616 H 0.13317 0.78306 0.68869 0.0
H1617 H 0.14583 0.78073 0.86363 0.0
H1618 H 0.13806 0.74816 0.64826 0.0
H1619 H 0.11996 0.74181 0.67978 0.0
H1620 H 0.12097 0.76054 0.64382 0.0
H1621 H 0.1448 0.75693 0.91523 0.0
H1622 H 0.13601 0.73968 0.88422 0.0
H1623 H 0.15628 0.74406 0.87116 0.0
H1624 H 0.13053 0.69612 0.78623 0.0
H1625 H 0.17441 0.71411 0.72418 0.0
H1626 H 0.10996 0.7347 0.78192 0.0
H1627 H 0.11508 0.72433 0.84539 0.0
H1628 H 0.10769 0.71363 0.78604 0.0
H1629 H 0.16363 0.75191 0.69591 0.0
H1630 H 0.18023 0.74065 0.71976 0.0
H1631 H 0.16948 0.75284 0.76835 0.0
C1632 C 0.46829 0.93651 0.12202 0.0
C1633 C 0.45606 0.92659 0.13911 0.0
C1634 C 0.48376 0.93105 0.11863 0.0
C1635 C 0.48708 0.91513 0.1316 0.0
C1636 C 0.47486 0.9051 0.15022 0.0
C1637 C 0.45945 0.91101 0.15421 0.0
C1638 C 0.49648 0.94228 0.09969 0.0
C1639 C 0.47788 0.88803 0.16355 0.0
C1640 C 0.52403 0.90536 0.05312 0.0
C1641 C 0.53535 0.90916 0.09372 0.0
C1642 C 0.50802 0.90513 0.06695 0.0
C1643 C 0.5033 0.90919 0.12229 0.0
C1644 C 0.51479 0.91107 0.16492 0.0
C1645 C 0.53077 0.91089 0.15015 0.0
C1646 C 0.49615 0.90247 0.02068 0.0
C1647 C 0.51028 0.91528 0.22453 0.0
H1648 H 0.46575 0.94862 0.11101 0.0
H1649 H 0.44998 0.90329 0.16719 0.0
H1650 H 0.50629 0.94233 0.13048 0.0
H1651 H 0.50131 0.93839 0.05854 0.0
H1652 H 0.49208 0.9545 0.09494 0.0
H1653 H 0.46793 0.88263 0.1869 0.0
H1654 H 0.47955 0.88145 0.12362 0.0
H1655 H 0.48877 0.88663 0.18873 0.0
H1656 H 0.52758 0.90377 0.00958 0.0
H1657 H 0.53951 0.91379 0.18175 0.0
H1658 H 0.49153 0.91398 0.00617 0.0
H1659 H 0.48606 0.89544 0.03629 0.0
H1660 H 0.50145 0.89636 0.98391 0.0
H1661 H 0.5073 0.92798 0.22642 0.0
H1662 H 0.52004 0.91302 0.25453 0.0
H1663 H 0.49978 0.9086 0.23838 0.0
C1664 C 0.35884 0.19625 0.32624 0.0
C1665 C 0.34847 0.19451 0.28059 0.0
C1666 C 0.36295 0.21127 0.34632 0.0
C1667 C 0.35605 0.22474 0.32145 0.0
C1668 C 0.34653 0.22304 0.27283 0.0
C1669 C 0.34313 0.208 0.25247 0.0
C1670 C 0.37387 0.21253 0.39613 0.0
C1671 C 0.33872 0.23701 0.245 0.0
C1672 C 0.3409 0.25984 0.39968 0.0
C1673 C 0.34895 0.27186 0.37182 0.0
C1674 C 0.34444 0.24405 0.3889 0.0
C1675 C 0.35649 0.24033 0.34986 0.0
C1676 C 0.36614 0.25248 0.3282 0.0
C1677 C 0.362 0.26822 0.33835 0.0
C1678 C 0.33389 0.23152 0.41339 0.0
C1679 C 0.37975 0.24892 0.2896 0.0
H1680 H 0.36325 0.18591 0.34774 0.0
H1681 H 0.33525 0.20684 0.21682 0.0
H1682 H 0.38019 0.22394 0.39681 0.0
H1683 H 0.367 0.21145 0.43566 0.0
H1684 H 0.38264 0.20285 0.39569 0.0
H1685 H 0.3318 0.23364 0.20718 0.0
H1686 H 0.33069 0.24285 0.27537 0.0
H1687 H 0.34765 0.24576 0.23201 0.0
H1688 H 0.33073 0.26277 0.42522 0.0
H1689 H 0.36819 0.27759 0.31669 0.0
H1690 H 0.34098 0.22178 0.43114 0.0
H1691 H 0.32639 0.22654 0.37952 0.0
H1692 H 0.32613 0.2362 0.4471 0.0
H1693 H 0.38576 0.2379 0.30245 0.0
H1694 H 0.38842 0.25869 0.2894 0.0
H1695 H 0.37539 0.24733 0.24592 0.0
C1696 C 0.96259 0.09602 0.55739 0.0
C1697 C 0.9538 0.09161 0.60472 0.0
C1698 C 0.9789 0.09796 0.56118 0.0
C1699 C 0.98651 0.09482 0.61301 0.0
C1700 C 0.97742 0.09251 0.66235 0.0
C1701 C 0.96105 0.0911 0.65768 0.0
C1702 C 0.98812 0.10124 0.50815 0.0
C1703 C 0.98504 0.08921 0.71854 0.0
C1704 C 0.02205 0.0687 0.59556 0.0
C1705 C 0.03446 0.07894 0.60762 0.0
C1706 C 0.00646 0.07376 0.5984 0.0
C1707 C 0.00316 0.08963 0.61224 0.0
C1708 C 0.01564 0.10011 0.62428 0.0
C1709 C 0.03121 0.09457 0.62245 0.0
C1710 C 0.99352 0.06203 0.58644 0.0
C1711 C 0.01263 0.1172 0.63735 0.0
H1712 H 0.9569 0.09667 0.51653 0.0
H1713 H 0.95423 0.08775 0.69439 0.0
H1714 H -0.00161 0.10887 0.51719 0.0
H1715 H 0.99258 0.09 0.49064 0.0
H1716 H 0.98071 0.10698 0.47555 0.0
H1717 H 0.9767 0.09101 0.75399 0.0
H1718 H 0.98907 0.0768 0.71945 0.0
H1719 H 0.99547 0.0968 0.72517 0.0
H1720 H 0.02454 0.05657 0.58476 0.0
H1721 H 0.04085 0.10252 0.63139 0.0
H1722 H 0.98696 0.0656 0.54811 0.0
H1723 H 0.98505 0.06174 0.62199 0.0
H1724 H 0.9981 0.04995 0.57978 0.0
H1725 H 0.00943 0.12341 0.59786 0.0
H1726 H 0.02314 0.12302 0.65559 0.0
H1727 H 0.00264 0.11855 0.667 0.0
C1728 C 0.81328 0.72142 0.89833 0.0
C1729 C 0.82281 0.70884 0.91487 0.0
C1730 C 0.81931 0.73666 0.89445 0.0
C1731 C 0.83539 0.73937 0.90651 0.0
C1732 C 0.84497 0.72684 0.92542 0.0
C1733 C 0.83852 0.71166 0.92973 0.0
C1734 C 0.80854 0.74974 0.87522 0.0
C1735 C 0.86217 0.72922 0.93824 0.0
C1736 C 0.8464 0.77474 0.8216 0.0
C1737 C 0.84312 0.78673 0.86027 0.0
C1738 C 0.84608 0.75895 0.83821 0.0
C1739 C 0.84204 0.75516 0.89446 0.0
C1740 C 0.84076 0.76727 0.93512 0.0
C1741 C 0.84143 0.78302 0.91752 0.0
C1742 C 0.84809 0.74638 0.79392 0.0
C1743 C 0.83667 0.76372 0.99567 0.0
H1744 H 0.80108 0.7193 0.88763 0.0
H1745 H 0.84593 0.70191 0.94241 0.0
H1746 H 0.80909 0.75975 0.90512 0.0
H1747 H 0.81241 0.75411 0.83338 0.0
H1748 H 0.79612 0.74586 0.8717 0.0
H1749 H 0.86702 0.71943 0.96392 0.0
H1750 H 0.86883 0.72977 0.89809 0.0
H1751 H 0.86416 0.74046 0.96085 0.0
H1752 H 0.84799 0.77764 0.77743 0.0
H1753 H 0.83897 0.79229 0.94763 0.0
H1754 H 0.83636 0.74195 0.78107 0.0
H1755 H 0.85487 0.73629 0.81083 0.0
H1756 H 0.85416 0.75095 0.75582 0.0
H1757 H 0.82387 0.7614 0.99892 0.0
H1758 H 0.83957 0.77373 0.02384 0.0
H1759 H 0.84292 0.75308 0.01075 0.0
C1760 C 0.63865 0.22464 0.29419 0.0
C1761 C 0.65448 0.22015 0.29561 0.0
C1762 C 0.63448 0.24053 0.28643 0.0
C1763 C 0.64648 0.25201 0.28123 0.0
C1764 C 0.66244 0.24748 0.28572 0.0
C1765 C 0.66622 0.23161 0.29212 0.0
C1766 C 0.61736 0.24485 0.28098 0.0
C1767 C 0.67565 0.25933 0.28192 0.0
C1768 C 0.64666 0.28997 0.20076 0.0
C1769 C 0.64747 0.30083 0.24506 0.0
C1770 C 0.64417 0.27395 0.21153 0.0
C1771 C 0.64285 0.2687 0.26798 0.0
C1772 C 0.64181 0.27983 0.31215 0.0
C1773 C 0.644 0.29583 0.30007 0.0
C1774 C 0.64476 0.2625 0.163 0.0
C1775 C 0.64036 0.27475 0.37288 0.0
H1776 H 0.6296 0.2157 0.29654 0.0
H1777 H 0.67846 0.22808 0.29381 0.0
H1778 H 0.6147 0.25582 0.30439 0.0
H1779 H 0.61461 0.24702 0.23594 0.0
H1780 H 0.60955 0.23533 0.29655 0.0
H1781 H 0.68732 0.25399 0.29054 0.0
H1782 H 0.67593 0.26456 0.23909 0.0
H1783 H 0.67372 0.26902 0.31242 0.0
H1784 H 0.64902 0.29381 0.158 0.0
H1785 H 0.64447 0.30417 0.33457 0.0
H1786 H 0.63596 0.25301 0.16869 0.0
H1787 H 0.65655 0.25694 0.16142 0.0
H1788 H 0.6426 0.26842 0.12198 0.0
H1789 H 0.63202 0.26481 0.37729 0.0
H1790 H 0.63639 0.28456 0.40033 0.0
H1791 H 0.652 0.2707 0.38816 0.0
C1792 C 0.82092 0.28084 0.19958 0.0
C1793 C 0.83233 0.2922 0.18773 0.0
C1794 C 0.82432 0.26482 0.19551 0.0
C1795 C 0.83971 0.25998 0.18074 0.0
C1796 C 0.85139 0.27139 0.16911 0.0
C1797 C 0.84749 0.28746 0.172 0.0
C1798 C 0.81134 0.2531 0.20696 0.0
C1799 C 0.86803 0.26667 0.15506 0.0
C1800 C 0.84236 0.21854 0.23201 0.0
C1801 C 0.83729 0.21045 0.18396 0.0
C1802 C 0.84564 0.23467 0.22963 0.0
C1803 C 0.84314 0.24288 0.17853 0.0
C1804 C 0.83987 0.23439 0.12853 0.0
C1805 C 0.83716 0.21814 0.13177 0.0
C1806 C 0.84981 0.24319 0.28335 0.0
C1807 C 0.83704 0.24266 0.07319 0.0
H1808 H 0.80912 0.28448 0.21093 0.0
H1809 H 0.85634 0.29628 0.16307 0.0
H1810 H 0.81009 0.24492 0.1708 0.0
H1811 H 0.81429 0.24596 0.24464 0.0
H1812 H 0.79982 0.25887 0.21444 0.0
H1813 H 0.87513 0.27679 0.13989 0.0
H1814 H 0.87373 0.26179 0.19331 0.0
H1815 H 0.86819 0.25732 0.1225 0.0
H1816 H 0.84268 0.2125 0.27227 0.0
H1817 H 0.83324 0.21187 0.09455 0.0
H1818 H 0.83904 0.24854 0.30151 0.0
H1819 H 0.85832 0.25279 0.27502 0.0
H1820 H 0.85488 0.23507 0.3152 0.0
H1821 H 0.82504 0.24778 0.07337 0.0
H1822 H 0.83794 0.23445 0.03693 0.0
H1823 H 0.84549 0.25243 0.06695 0.0
C1824 C 0.65207 0.71703 0.72235 0.0
C1825 C 0.65383 0.70638 0.67774 0.0
C1826 C 0.64971 0.73307 0.71192 0.0
C1827 C 0.64941 0.73855 0.65557 0.0
C1828 C 0.64888 0.72758 0.61078 0.0
C1829 C 0.65105 0.71153 0.62242 0.0
C1830 C 0.64971 0.74433 0.76108 0.0
C1831 C 0.64813 0.7329 0.5502 0.0
C1832 C 0.64818 0.7831 0.63783 0.0
C1833 C 0.66425 0.78657 0.64075 0.0
C1834 C 0.64296 0.76738 0.63982 0.0
C1835 C 0.65414 0.75508 0.64421 0.0
C1836 C 0.6704 0.75866 0.64319 0.0
C1837 C 0.67521 0.77433 0.64196 0.0
C1838 C 0.62555 0.76411 0.64071 0.0
C1839 C 0.68281 0.74597 0.64655 0.0
H1840 H 0.6538 0.71304 0.76532 0.0
H1841 H 0.65217 0.70333 0.58767 0.0
H1842 H 0.66153 0.74973 0.76516 0.0
H1843 H 0.64111 0.75394 0.75426 0.0
H1844 H 0.64687 0.73828 0.80133 0.0
H1845 H 0.64401 0.72332 0.52203 0.0
H1846 H 0.64023 0.74319 0.54542 0.0
H1847 H 0.66005 0.73651 0.53625 0.0
H1848 H 0.63973 0.79263 0.63706 0.0
H1849 H 0.68765 0.77708 0.64351 0.0
H1850 H 0.62162 0.76286 0.68508 0.0
H1851 H 0.62269 0.75301 0.6184 0.0
H1852 H 0.61879 0.77388 0.62128 0.0
H1853 H 0.6822 0.74006 0.68819 0.0
H1854 H 0.69488 0.75071 0.64101 0.0
H1855 H 0.68076 0.73692 0.61371 0.0
C1856 C 0.5206 0.44328 0.8544 0.0
C1857 C 0.53297 0.43376 0.83582 0.0
C1858 C 0.50566 0.437 0.86427 0.0
C1859 C 0.50308 0.42069 0.85655 0.0
C1860 C 0.51542 0.41104 0.83636 0.0
C1861 C 0.53024 0.41775 0.82569 0.0
C1862 C 0.49275 0.44782 0.88457 0.0
C1863 C 0.5132 0.39359 0.82853 0.0
C1864 C 0.4691 0.40958 0.9494 0.0
C1865 C 0.45651 0.41137 0.91188 0.0
C1866 C 0.48466 0.41066 0.93048 0.0
C1867 C 0.48763 0.41397 0.87296 0.0
C1868 C 0.47503 0.41401 0.834 0.0
C1869 C 0.45957 0.41256 0.85393 0.0
C1870 C 0.4978 0.41 0.97313 0.0
C1871 C 0.47767 0.41746 0.77232 0.0
H1872 H 0.52264 0.4557 0.86167 0.0
H1873 H 0.53985 0.41035 0.81168 0.0
H1874 H 0.48219 0.44656 0.85751 0.0
H1875 H 0.48929 0.44457 0.92815 0.0
H1876 H 0.4964 0.46035 0.88447 0.0
H1877 H 0.52305 0.3882 0.80458 0.0
H1878 H 0.51253 0.38784 0.87045 0.0
H1879 H 0.50202 0.39107 0.80625 0.0
H1880 H 0.46677 0.40841 0.99416 0.0
H1881 H 0.44987 0.4139 0.82466 0.0
H1882 H 0.5018 0.42212 0.98278 0.0
H1883 H 0.50801 0.40342 0.95612 0.0
H1884 H 0.49397 0.40438 0.01312 0.0
H1885 H 0.4796 0.43027 0.76676 0.0
H1886 H 0.46741 0.41396 0.74627 0.0
H1887 H 0.48827 0.41131 0.75639 0.0
C1888 C 0.96073 0.59847 0.401 0.0
C1889 C 0.95776 0.59692 0.45895 0.0
C1890 C 0.97617 0.59805 0.38018 0.0
C1891 C 0.98882 0.59637 0.4184 0.0
C1892 C 0.98595 0.59733 0.47709 0.0
C1893 C 0.9704 0.59742 0.49676 0.0
C1894 C 0.9787 0.59728 0.31729 0.0
C1895 C -0.00083 0.59628 0.51926 0.0
C1896 C 0.02045 0.56664 0.38484 0.0
C1897 C 0.0332 0.5762 0.37038 0.0
C1898 C 0.00583 0.57314 0.39815 0.0
C1899 C 0.00398 0.5897 0.39839 0.0
C1900 C 0.01671 0.59945 0.38229 0.0
C1901 C 0.0312 0.59254 0.36788 0.0
C1902 C 0.99249 0.56223 0.41365 0.0
C1903 C 0.01532 0.61713 0.38301 0.0
H1904 H 0.95103 0.59828 0.37139 0.0
H1905 H 0.96818 0.59658 0.54168 0.0
H1906 H 0.98941 0.60383 0.30475 0.0
H1907 H 0.98033 0.58483 0.30461 0.0
H1908 H 0.96848 0.60209 0.29377 0.0
H1909 H 0.99548 0.60047 0.56159 0.0
H1910 H 0.00299 0.58385 0.52318 0.0
H1911 H 0.00944 0.60326 0.50509 0.0
H1912 H 0.02197 0.55399 0.38627 0.0
H1913 H 0.04114 0.59994 0.35719 0.0
H1914 H 0.98194 0.56493 0.3879 0.0
H1915 H 0.98927 0.56394 0.45856 0.0
H1916 H 0.99558 0.54966 0.40735 0.0
H1917 H 0.00381 0.62102 0.36614 0.0
H1918 H 0.02485 0.62281 0.35829 0.0
H1919 H 0.01614 0.62133 0.42719 0.0
C1920 C 0.98451 0.40838 0.5622 0.0
C1921 C 0.97399 0.4088 0.60759 0.0
C1922 C 0.00076 0.4091 0.57132 0.0
C1923 C 0.00651 0.4107 0.62704 0.0
C1924 C 0.99606 0.40902 0.67308 0.0
C1925 C 0.97985 0.40794 0.66276 0.0
C1926 C 0.01158 0.41018 0.52105 0.0
C1927 C 0.00171 0.41047 0.73313 0.0
C1928 C 0.0507 0.416 0.64481 0.0
C1929 C 0.05202 0.43233 0.63833 0.0
C1930 C 0.03589 0.40864 0.64315 0.0
C1931 C 0.02222 0.41793 0.63588 0.0
C1932 C 0.02355 0.43452 0.63278 0.0
C1933 C 0.03844 0.44146 0.63335 0.0
C1934 C 0.03501 0.39095 0.6458 0.0
C1935 C 0.00929 0.44496 0.62642 0.0
H1936 H 0.98001 0.40877 0.51946 0.0
H1937 H 0.97176 0.40819 0.69807 0.0
H1938 H 0.01478 0.42267 0.51377 0.0
H1939 H 0.0226 0.40355 0.52871 0.0
H1940 H 0.00592 0.40559 0.4822 0.0
H1941 H 0.99306 0.40551 0.76339 0.0
H1942 H 0.01315 0.40444 0.73899 0.0
H1943 H 0.00342 0.42308 0.74336 0.0
H1944 H 0.06125 0.40892 0.6482 0.0
H1945 H 0.03949 0.45411 0.62887 0.0
H1946 H 0.03356 0.38624 0.60249 0.0
H1947 H 0.02475 0.387 0.67095 0.0
H1948 H 0.04586 0.38579 0.6641 0.0
H1949 H 0.00371 0.44284 0.58483 0.0
H1950 H 0.01228 0.45764 0.62948 0.0
H1951 H 0.00046 0.44217 0.65937 0.0
C1952 C 0.48042 0.58751 0.08667 0.0
C1953 C 0.47167 0.584 0.13505 0.0
C1954 C 0.49688 0.58781 0.08846 0.0
C1955 C 0.50465 0.58396 0.13937 0.0
C1956 C 0.49583 0.58226 0.18965 0.0
C1957 C 0.47936 0.5825 0.18698 0.0
C1958 C 0.50587 0.59036 0.03439 0.0
C1959 C 0.50363 0.57811 0.2448 0.0
C1960 C 0.53889 0.55643 0.11577 0.0
C1961 C 0.55183 0.5662 0.12548 0.0
C1962 C 0.52355 0.56203 0.12205 0.0
C1963 C 0.52105 0.57797 0.13692 0.0
C1964 C 0.53408 0.58792 0.14727 0.0
C1965 C 0.54939 0.58183 0.14209 0.0
C1966 C 0.51001 0.55088 0.11194 0.0
C1967 C 0.53189 0.60505 0.16161 0.0
H1968 H 0.47444 0.58884 0.04659 0.0
H1969 H 0.47258 0.57975 0.22443 0.0
H1970 H 0.5167 0.59729 0.04214 0.0
H1971 H 0.50944 0.57881 0.01681 0.0
H1972 H 0.49862 0.59652 0.00232 0.0
H1973 H 0.49575 0.58037 0.28127 0.0
H1974 H 0.50669 0.56543 0.2446 0.0
H1975 H 0.51467 0.58483 0.25068 0.0
H1976 H 0.54078 0.54429 0.10355 0.0
H1977 H 0.55943 0.58941 0.14921 0.0
H1978 H 0.50322 0.55473 0.07448 0.0
H1979 H 0.5019 0.55096 0.14857 0.0
H1980 H 0.51401 0.53861 0.10474 0.0
H1981 H 0.52792 0.61147 0.12345 0.0
H1982 H 0.54296 0.61054 0.17675 0.0
H1983 H 0.52269 0.60658 0.19426 0.0
C1984 C 0.15193 0.13311 0.34917 0.0
C1985 C 0.14566 0.14015 0.30072 0.0
C1986 C 0.14281 0.1231 0.38279 0.0
C1987 C 0.12689 0.12039 0.36848 0.0
C1988 C 0.12042 0.12762 0.31995 0.0
C1989 C 0.12996 0.13725 0.28612 0.0
C1990 C 0.15026 0.11529 0.43337 0.0
C1991 C 0.10339 0.12532 0.30418 0.0
C1992 C 0.10769 0.08383 0.42926 0.0
C1993 C 0.10069 0.08978 0.47831 0.0
C1994 C 0.11607 0.0937 0.39262 0.0
C1995 C 0.11709 0.10998 0.40458 0.0
C1996 C 0.10951 0.11614 0.45293 0.0
C1997 C 0.1016 0.10592 0.4897 0.0
C1998 C 0.12434 0.08662 0.34234 0.0
C1999 C 0.11001 0.13348 0.46635 0.0
H2000 H 0.16411 0.1352 0.36025 0.0
H2001 H 0.12507 0.14276 0.24884 0.0
H2002 H 0.14416 0.11902 0.47245 0.0
H2003 H 0.14901 0.10234 0.43013 0.0
H2004 H 0.16294 0.11819 0.43749 0.0
H2005 H 0.10008 0.13205 0.26584 0.0
H2006 H 0.10099 0.11268 0.29656 0.0
H2007 H 0.09572 0.12909 0.33954 0.0
H2008 H 0.10712 0.07132 0.42063 0.0
H2009 H 0.09608 0.11056 0.52738 0.0
H2010 H 0.13721 0.0884 0.34643 0.0
H2011 H 0.12057 0.09258 0.30304 0.0
H2012 H 0.122 0.07382 0.33806 0.0
H2013 H 0.12223 0.13704 0.47638 0.0
H2014 H 0.10237 0.13656 0.5027 0.0
H2015 H 0.10622 0.14043 0.42917 0.0
C2016 C 0.12671 0.91099 0.49911 0.0
C2017 C 0.11181 0.91782 0.50413 0.0
C2018 C 0.13191 0.89976 0.53808 0.0
C2019 C 0.12173 0.89484 0.58194 0.0
C2020 C 0.10664 0.90171 0.58719 0.0
C2021 C 0.10196 0.91336 0.54867 0.0
C2022 C 0.14826 0.89305 0.53195 0.0
C2023 C 0.0953 0.89642 0.63227 0.0
C2024 C 0.13228 0.85429 0.63566 0.0
C2025 C 0.14055 0.85787 0.68502 0.0
C2026 C 0.12511 0.86617 0.60379 0.0
C2027 C 0.1268 0.88205 0.62062 0.0
C2028 C 0.13468 0.88566 0.6716 0.0
C2029 C 0.14126 0.87346 0.70375 0.0
C2030 C 0.11635 0.86177 0.55073 0.0
C2031 C 0.13711 0.90246 0.69019 0.0
H2032 H 0.13437 0.91459 0.46493 0.0
H2033 H 0.09038 0.91859 0.55221 0.0
H2034 H 0.15475 0.89415 0.57233 0.0
H2035 H 0.14755 0.88036 0.52166 0.0
H2036 H 0.15511 0.89903 0.49834 0.0
H2037 H 0.08417 0.90324 0.63162 0.0
H2038 H 0.09248 0.88379 0.62619 0.0
H2039 H 0.10073 0.89759 0.67455 0.0
H2040 H 0.13168 0.84219 0.62144 0.0
H2041 H 0.14782 0.87621 0.74168 0.0
H2042 H 0.12323 0.86551 0.51332 0.0
H2043 H 0.10486 0.86792 0.54901 0.0
H2044 H 0.11427 0.84891 0.54774 0.0
H2045 H 0.14519 0.90842 0.66032 0.0
H2046 H 0.14221 0.90322 0.73321 0.0
H2047 H 0.12585 0.909 0.68954 0.0
C2048 C 0.39203 0.89796 0.01509 0.0
C2049 C 0.39132 0.91424 0.0069 0.0
C2050 C 0.3845 0.88762 0.97773 0.0
C2051 C 0.37565 0.89378 0.93221 0.0
C2052 C 0.37504 0.91024 0.92348 0.0
C2053 C 0.38309 0.92027 0.96053 0.0
C2054 C 0.38574 0.87014 0.98769 0.0
C2055 C 0.36538 0.91729 0.87649 0.0
C2056 C 0.3636 0.86633 0.81312 0.0
C2057 C 0.34867 0.86149 0.83113 0.0
C2058 C 0.37256 0.87687 0.8455 0.0
C2059 C 0.36622 0.88302 0.89615 0.0
C2060 C 0.35095 0.87853 0.91348 0.0
C2061 C 0.34246 0.86766 0.88118 0.0
C2062 C 0.38893 0.88112 0.82635 0.0
C2063 C 0.3436 0.88512 0.96642 0.0
H2064 H 0.39848 0.8933 0.05078 0.0
H2065 H 0.38239 0.93289 0.95457 0.0
H2066 H 0.37406 0.86536 0.99946 0.0
H2067 H 0.38948 0.8641 0.94846 0.0
H2068 H 0.39421 0.86723 0.02176 0.0
H2069 H 0.36666 0.93026 0.87405 0.0
H2070 H 0.36884 0.91213 0.83539 0.0
H2071 H 0.35278 0.91445 0.88316 0.0
H2072 H 0.36846 0.86151 0.77458 0.0
H2073 H 0.33084 0.86408 0.89489 0.0
H2074 H 0.39759 0.87737 0.85866 0.0
H2075 H 0.39004 0.89405 0.82179 0.0
H2076 H 0.39205 0.87552 0.78556 0.0
H2077 H 0.35047 0.88137 0.00379 0.0
H2078 H 0.33125 0.8812 0.97204 0.0
H2079 H 0.34383 0.89816 0.96527 0.0
C2080 C 0.37254 0.07295 0.96741 0.0
C2081 C 0.3877 0.06689 0.97443 0.0
C2082 C 0.36618 0.08353 0.00654 0.0
C2083 C 0.37545 0.08858 0.05271 0.0
C2084 C 0.39083 0.08253 0.05988 0.0
C2085 C 0.39668 0.07151 0.02107 0.0
C2086 C 0.34957 0.08934 0.99829 0.0
C2087 C 0.40122 0.08801 0.10754 0.0
C2088 C 0.36179 0.12765 0.11164 0.0
C2089 C 0.35325 0.12288 0.15911 0.0
C2090 C 0.36996 0.11667 0.07866 0.0
C2091 C 0.36905 0.1005 0.09239 0.0
C2092 C 0.36082 0.09568 0.14135 0.0
C2093 C 0.35321 0.107 0.17469 0.0
C2094 C 0.37904 0.12233 0.02786 0.0
C2095 C 0.3592 0.07852 0.15654 0.0
H2096 H 0.36556 0.06925 0.93155 0.0
H2097 H 0.40847 0.06689 0.02613 0.0
H2098 H 0.34258 0.08732 0.03713 0.0
H2099 H 0.34964 0.10218 0.99024 0.0
H2100 H 0.34359 0.08343 0.96246 0.0
H2101 H 0.41282 0.08202 0.10756 0.0
H2102 H 0.40316 0.10088 0.10403 0.0
H2103 H 0.3954 0.08586 0.14864 0.0
H2104 H 0.36188 0.13997 0.09985 0.0
H2105 H 0.34646 0.10329 0.21112 0.0
H2106 H 0.37291 0.11863 0.98878 0.0
H2107 H 0.39093 0.11698 0.02713 0.0
H2108 H 0.38027 0.13533 0.02722 0.0
H2109 H 0.35208 0.07247 0.12391 0.0
H2110 H 0.35345 0.07682 0.19812 0.0
H2111 H 0.37088 0.07274 0.15739 0.0
C2112 C 0.89293 0.88918 0.50683 0.0
C2113 C 0.90858 0.89261 0.52027 0.0
C2114 C 0.88378 0.87969 0.54227 0.0
C2115 C 0.89064 0.87308 0.59124 0.0
C2116 C 0.90673 0.87571 0.60304 0.0
C2117 C 0.91545 0.88571 0.5679 0.0
C2118 C 0.86656 0.87749 0.52899 0.0
C2119 C 0.91458 0.86841 0.65373 0.0
C2120 C 0.86305 0.86473 0.71305 0.0
C2121 C 0.85932 0.84892 0.70382 0.0
C2122 C 0.87343 0.87268 0.67711 0.0
C2123 C 0.88063 0.86444 0.6321 0.0
C2124 C 0.87752 0.84824 0.62445 0.0
C2125 C 0.86665 0.84072 0.65985 0.0
C2126 C 0.87614 0.89007 0.68579 0.0
C2127 C 0.8854 0.83895 0.5782 0.0
H2128 H 0.88758 0.89466 0.47029 0.0
H2129 H 0.9276 0.8883 0.57805 0.0
H2130 H 0.86362 0.8648 0.52725 0.0
H2131 H 0.85934 0.88278 0.56302 0.0
H2132 H 0.86319 0.88299 0.48828 0.0
H2133 H 0.92754 0.86996 0.65288 0.0
H2134 H 0.90997 0.87388 0.69282 0.0
H2135 H 0.91188 0.85566 0.65591 0.0
H2136 H 0.85726 0.8711 0.74678 0.0
H2137 H 0.86384 0.82844 0.65306 0.0
H2138 H 0.87215 0.89664 0.648 0.0
H2139 H 0.88885 0.89248 0.69114 0.0
H2140 H 0.86978 0.89468 0.7232 0.0
H2141 H 0.88114 0.84304 0.53653 0.0
H2142 H 0.88303 0.82614 0.5818 0.0
H2143 H 0.8983 0.84086 0.57924 0.0
C2144 C 0.83148 0.13492 0.35447 0.0
C2145 C 0.83778 0.14212 0.30644 0.0
C2146 C 0.84078 0.12529 0.38885 0.0
C2147 C 0.85689 0.1233 0.37584 0.0
C2148 C 0.86338 0.13079 0.32784 0.0
C2149 C 0.85364 0.13991 0.29303 0.0
C2150 C 0.83332 0.11707 0.43855 0.0
C2151 C 0.8806 0.12928 0.31359 0.0
C2152 C 0.88306 0.10936 0.49542 0.0
C2153 C 0.88532 0.09357 0.48098 0.0
C2154 C 0.87412 0.11931 0.46081 0.0
C2155 C 0.86684 0.1131 0.41191 0.0
C2156 C 0.86886 0.09706 0.39789 0.0
C2157 C 0.87831 0.08755 0.43214 0.0
C2158 C 0.87259 0.13646 0.47615 0.0
C2159 C 0.86087 0.0899 0.34718 0.0
H2160 H 0.81915 0.13655 0.36446 0.0
H2161 H 0.85851 0.14562 0.25607 0.0
H2162 H 0.83501 0.10418 0.43476 0.0
H2163 H 0.83908 0.12083 0.47824 0.0
H2164 H 0.82053 0.11954 0.44191 0.0
H2165 H 0.88394 0.13647 0.27636 0.0
H2166 H 0.88785 0.13303 0.35011 0.0
H2167 H 0.88354 0.11683 0.30477 0.0
H2168 H 0.88863 0.11401 0.533 0.0
H2169 H 0.87998 0.07527 0.42134 0.0
H2170 H 0.86009 0.1394 0.48417 0.0
H2171 H 0.87659 0.14389 0.44046 0.0
H2172 H 0.87955 0.13956 0.51417 0.0
H2173 H 0.84797 0.09166 0.35018 0.0
H2174 H 0.86327 0.07711 0.3432 0.0
H2175 H 0.86488 0.09583 0.30813 0.0
C2176 C 0.62416 0.15099 0.19714 0.0
C2177 C 0.64033 0.15122 0.18605 0.0
C2178 C 0.61379 0.14278 0.16164 0.0
C2179 C 0.61986 0.13419 0.11535 0.0
C2180 C 0.6362 0.13445 0.10403 0.0
C2181 C 0.64619 0.14316 0.13902 0.0
C2182 C 0.5964 0.14315 0.17405 0.0
C2183 C 0.64321 0.12504 0.05623 0.0
C2184 C 0.59747 0.09849 0.06394 0.0
C2185 C 0.59171 0.10368 0.01179 0.0
C2186 C 0.60647 0.10839 0.09832 0.0
C2187 C 0.60938 0.12403 0.08093 0.0
C2188 C 0.60308 0.12955 0.02929 0.0
C2189 C 0.59453 0.1192 0.99476 0.0
C2190 C 0.61336 0.1019 0.15221 0.0
C2191 C 0.60558 0.14629 0.01023 0.0
H2192 H 0.61961 0.15733 0.23326 0.0
H2193 H 0.65872 0.14323 0.13071 0.0
H2194 H 0.58976 0.14643 0.13555 0.0
H2195 H 0.59236 0.13128 0.18688 0.0
H2196 H 0.59344 0.15157 0.2082 0.0
H2197 H 0.65612 0.12667 0.05273 0.0
H2198 H 0.64075 0.11235 0.06271 0.0
H2199 H 0.63773 0.12847 0.01566 0.0
H2200 H 0.59546 0.08644 0.07697 0.0
H2201 H 0.58999 0.12325 0.95461 0.0
H2202 H 0.60961 0.10912 0.18871 0.0
H2203 H 0.62638 0.10244 0.15025 0.0
H2204 H 0.60982 0.08952 0.15995 0.0
H2205 H 0.60221 0.15456 0.04431 0.0
H2206 H 0.59867 0.14914 0.97183 0.0
H2207 H 0.6182 0.14827 0.00099 0.0
C2208 C 0.64604 0.84576 0.81841 0.0
C2209 C 0.65203 0.85321 0.7703 0.0
C2210 C 0.63552 0.85357 0.85438 0.0
C2211 C 0.63141 0.86938 0.84294 0.0
C2212 C 0.63745 0.87694 0.79433 0.0
C2213 C 0.64748 0.86865 0.75803 0.0
C2214 C 0.62889 0.84496 0.90469 0.0
C2215 C 0.6337 0.89392 0.78152 0.0
C2216 C 0.5956 0.88925 0.90621 0.0
C2217 C 0.60227 0.89745 0.95146 0.0
C2218 C 0.60482 0.87939 0.87218 0.0
C2219 C 0.62116 0.87823 0.8825 0.0
C2220 C 0.62788 0.8863 0.92884 0.0
C2221 C 0.61828 0.89562 0.96339 0.0
C2222 C 0.59714 0.87054 0.82442 0.0
C2223 C 0.64533 0.88571 0.9403 0.0
H2224 H 0.64948 0.83376 0.8276 0.0
H2225 H 0.65224 0.87444 0.72106 0.0
H2226 H 0.63302 0.85056 0.94419 0.0
H2227 H 0.61587 0.8457 0.90449 0.0
H2228 H 0.63237 0.83238 0.90534 0.0
H2229 H 0.63956 0.89812 0.74246 0.0
H2230 H 0.62083 0.89547 0.77667 0.0
H2231 H 0.63749 0.90146 0.81718 0.0
H2232 H 0.58318 0.89061 0.89726 0.0
H2233 H 0.62345 0.90211 0.99806 0.0
H2234 H 0.60057 0.85796 0.82576 0.0
H2235 H 0.60121 0.87534 0.78349 0.0
H2236 H 0.58411 0.87135 0.8259 0.0
H2237 H 0.64927 0.87337 0.94514 0.0
H2238 H 0.64862 0.89234 0.97887 0.0
H2239 H 0.6518 0.89076 0.90393 0.0
C2240 C 0.61275 0.596 0.99134 0.0
C2241 C 0.61377 0.57994 0.97888 0.0
C2242 C 0.61942 0.60726 0.95532 0.0
C2243 C 0.6278 0.60227 0.90693 0.0
C2244 C 0.62876 0.58604 0.89405 0.0
C2245 C 0.62149 0.57507 0.92976 0.0
C2246 C 0.61775 0.62447 0.96962 0.0
C2247 C 0.63802 0.5802 0.84394 0.0
C2248 C 0.63802 0.63132 0.79042 0.0
C2249 C 0.65315 0.63602 0.80647 0.0
C2250 C 0.62946 0.62054 0.82328 0.0
C2251 C 0.63646 0.61395 0.87205 0.0
C2252 C 0.65184 0.61851 0.88781 0.0
C2253 C 0.65989 0.62967 0.85533 0.0
C2254 C 0.61291 0.61631 0.80611 0.0
C2255 C 0.65991 0.61142 0.9385 0.0
H2256 H 0.60666 0.59974 0.02919 0.0
H2257 H 0.6224 0.56262 0.92053 0.0
H2258 H 0.62939 0.62942 0.98089 0.0
H2259 H 0.61338 0.63109 0.93247 0.0
H2260 H 0.60958 0.62645 0.00547 0.0
H2261 H 0.63733 0.56723 0.83913 0.0
H2262 H 0.63367 0.58577 0.80468 0.0
H2263 H 0.65055 0.58358 0.84869 0.0
H2264 H 0.6328 0.63624 0.75267 0.0
H2265 H 0.67169 0.63311 0.86734 0.0
H2266 H 0.60468 0.61882 0.84127 0.0
H2267 H 0.61213 0.60355 0.79708 0.0
H2268 H 0.60898 0.62289 0.7682 0.0
H2269 H 0.65323 0.61422 0.97735 0.0
H2270 H 0.67214 0.61576 0.94364 0.0
H2271 H 0.66022 0.59842 0.93453 0.0
C2272 C 0.64951 0.37789 0.07321 0.0
C2273 C 0.64351 0.37193 0.12395 0.0
C2274 C 0.64068 0.3882 0.03978 0.0
C2275 C 0.62526 0.39231 0.05664 0.0
C2276 C 0.61904 0.38618 0.1075 0.0
C2277 C 0.62834 0.37624 0.14109 0.0
C2278 C 0.64793 0.39481 0.98669 0.0
C2279 C 0.6025 0.38998 0.12606 0.0
C2280 C 0.60802 0.42956 0.99367 0.0
C2281 C 0.59986 0.42363 0.94698 0.0
C2282 C 0.61619 0.41948 0.03021 0.0
C2283 C 0.61577 0.40305 0.02071 0.0
C2284 C 0.60708 0.39697 0.9747 0.0
C2285 C 0.59943 0.40737 0.9378 0.0
C2286 C 0.6257 0.42647 0.07773 0.0
C2287 C 0.60604 0.37951 0.96399 0.0
H2288 H 0.66131 0.37474 0.06018 0.0
H2289 H 0.62366 0.37159 0.1802 0.0
H2290 H 0.64098 0.39113 0.94942 0.0
H2291 H 0.64771 0.40785 0.98807 0.0
H2292 H 0.66027 0.3909 0.98069 0.0
H2293 H 0.59927 0.38394 0.16593 0.0
H2294 H 0.60121 0.40284 0.13224 0.0
H2295 H 0.59405 0.38647 0.09276 0.0
H2296 H 0.60846 0.44215 0.00054 0.0
H2297 H 0.593 0.40276 0.90197 0.0
H2298 H 0.6383 0.42353 0.07187 0.0
H2299 H 0.62199 0.42136 0.11862 0.0
H2300 H 0.6245 0.43946 0.08009 0.0
H2301 H 0.61779 0.37487 0.95251 0.0
H2302 H 0.59769 0.37663 0.9295 0.0
H2303 H 0.60224 0.37332 0.00286 0.0
C2304 C 0.89686 0.40714 0.43081 0.0
C2305 C 0.90318 0.40044 0.47984 0.0
C2306 C 0.88653 0.39868 0.3963 0.0
C2307 C 0.88278 0.38294 0.41019 0.0
C2308 C 0.88949 0.37593 0.45875 0.0
C2309 C 0.89942 0.38487 0.49364 0.0
C2310 C 0.87926 0.40675 0.34592 0.0
C2311 C 0.8861 0.35904 0.47396 0.0
C2312 C 0.84423 0.36707 0.35347 0.0
C2313 C 0.84908 0.35965 0.30368 0.0
C2314 C 0.85511 0.37455 0.38884 0.0
C2315 C 0.87129 0.37416 0.37495 0.0
C2316 C 0.87631 0.36625 0.32559 0.0
C2317 C 0.86509 0.35931 0.28997 0.0
C2318 C 0.84922 0.3833 0.44007 0.0
C2319 C 0.89349 0.36523 0.3102 0.0
H2320 H 0.89958 0.41924 0.42036 0.0
H2321 H 0.90436 0.37965 0.53139 0.0
H2322 H 0.88213 0.40024 0.30678 0.0
H2323 H 0.86627 0.40681 0.35016 0.0
H2324 H 0.88337 0.41908 0.34114 0.0
H2325 H 0.89315 0.355 0.51061 0.0
H2326 H 0.87346 0.35765 0.48426 0.0
H2327 H 0.88864 0.35129 0.43746 0.0
H2328 H 0.83183 0.36743 0.36393 0.0
H2329 H 0.86887 0.35342 0.25175 0.0
H2330 H 0.85234 0.39593 0.43654 0.0
H2331 H 0.85496 0.37872 0.47868 0.0
H2332 H 0.83629 0.38231 0.44525 0.0
H2333 H 0.89808 0.37712 0.30033 0.0
H2334 H 0.89556 0.3575 0.27319 0.0
H2335 H 0.90036 0.36066 0.34643 0.0
C2336 C 0.82977 0.63745 0.73343 0.0
C2337 C 0.83515 0.64569 0.78072 0.0
C2338 C 0.84038 0.63002 0.69681 0.0
C2339 C 0.85674 0.63135 0.70681 0.0
C2340 C 0.86221 0.64034 0.75305 0.0
C2341 C 0.85132 0.64716 0.79015 0.0
C2342 C 0.83405 0.62011 0.64912 0.0
C2343 C 0.87956 0.64244 0.76412 0.0
C2344 C 0.88335 0.59847 0.65692 0.0
C2345 C 0.88888 0.60434 0.60542 0.0
C2346 C 0.87279 0.6071 0.68994 0.0
C2347 C 0.86804 0.62224 0.67193 0.0
C2348 C 0.8739 0.62843 0.62061 0.0
C2349 C 0.88405 0.61926 0.58733 0.0
C2350 C 0.86645 0.59987 0.7435 0.0
C2351 C 0.86949 0.64472 0.60102 0.0
H2352 H 0.81723 0.63623 0.7265 0.0
H2353 H 0.85545 0.65368 0.82653 0.0
H2354 H 0.83924 0.6239 0.60845 0.0
H2355 H 0.83745 0.60765 0.65571 0.0
H2356 H 0.82105 0.62078 0.64582 0.0
H2357 H 0.88186 0.65126 0.79766 0.0
H2358 H 0.88478 0.63108 0.77731 0.0
H2359 H 0.88567 0.64619 0.72503 0.0
H2360 H 0.8869 0.58683 0.67059 0.0
H2361 H 0.88837 0.62382 0.54755 0.0
H2362 H 0.85342 0.59943 0.74183 0.0
H2363 H 0.86971 0.60721 0.7803 0.0
H2364 H 0.87095 0.58777 0.75055 0.0
H2365 H 0.85665 0.64537 0.59337 0.0
H2366 H 0.87571 0.64812 0.56169 0.0
H2367 H 0.8723 0.65344 0.63434 0.0
C2368 C 0.35811 0.33356 0.20001 0.0
C2369 C 0.35143 0.33992 0.24896 0.0
C2370 C 0.36719 0.34287 0.16366 0.0
C2371 C 0.36914 0.35905 0.17562 0.0
C2372 C 0.36253 0.3655 0.22537 0.0
C2373 C 0.35396 0.35576 0.262 0.0
C2374 C 0.37451 0.33546 0.11213 0.0
C2375 C 0.36403 0.38277 0.23888 0.0
C2376 C 0.40137 0.38335 0.10733 0.0
C2377 C 0.39324 0.39055 0.06292 0.0
C2378 C 0.39383 0.37257 0.14303 0.0
C2379 C 0.37766 0.36936 0.13523 0.0
C2380 C 0.36947 0.37642 0.0898 0.0
C2381 C 0.37744 0.38675 0.05358 0.0
C2382 C 0.4031 0.36486 0.18974 0.0
C2383 C 0.35213 0.37359 0.08088 0.0
H2384 H 0.35625 0.32125 0.19019 0.0
H2385 H 0.34866 0.3607 0.29963 0.0
H2386 H 0.36915 0.34046 0.07348 0.0
H2387 H 0.38727 0.33812 0.11062 0.0
H2388 H 0.37292 0.3225 0.11135 0.0
H2389 H 0.35822 0.38592 0.27927 0.0
H2390 H 0.3766 0.38614 0.24147 0.0
H2391 H 0.35868 0.38984 0.20455 0.0
H2392 H 0.41362 0.38625 0.11439 0.0
H2393 H 0.3711 0.39248 0.01966 0.0
H2394 H 0.40149 0.35192 0.18837 0.0
H2395 H 0.39871 0.36896 0.23122 0.0
H2396 H 0.41585 0.36752 0.18695 0.0
H2397 H 0.3498 0.36085 0.07576 0.0
H2398 H 0.34753 0.37987 0.04326 0.0
H2399 H 0.34548 0.37759 0.1185 0.0
C2400 C 0.39437 0.58703 0.96849 0.0
C2401 C 0.40155 0.59288 0.01733 0.0
C2402 C 0.38477 0.59661 0.93509 0.0
C2403 C 0.38267 0.61258 0.94998 0.0
C2404 C 0.39015 0.61867 0.99867 0.0
C2405 C 0.39932 0.60865 0.0324 0.0
C2406 C 0.37664 0.58956 0.88444 0.0
C2407 C 0.38853 0.63574 0.01491 0.0
C2408 C 0.36809 0.63838 0.83039 0.0
C2409 C 0.35208 0.63966 0.8433 0.0
C2410 C 0.37836 0.6302 0.86623 0.0
C2411 C 0.37233 0.62272 0.915 0.0
C2412 C 0.35617 0.62408 0.92833 0.0
C2413 C 0.34628 0.63274 0.89271 0.0
C2414 C 0.3956 0.62937 0.85147 0.0
C2415 C 0.34921 0.61589 0.97901 0.0
H2416 H 0.39595 0.57479 0.95711 0.0
H2417 H 0.40496 0.61319 0.06999 0.0
H2418 H 0.36373 0.59108 0.88839 0.0
H2419 H 0.38036 0.59575 0.84552 0.0
H2420 H 0.37922 0.57684 0.87947 0.0
H2421 H 0.39569 0.63879 0.05248 0.0
H2422 H 0.3922 0.64334 0.97924 0.0
H2423 H 0.37605 0.6385 0.02409 0.0
H2424 H 0.3726 0.64387 0.79245 0.0
H2425 H 0.33387 0.63364 0.90252 0.0
H2426 H 0.39883 0.6171 0.84074 0.0
H2427 H 0.40284 0.6329 0.88825 0.0
H2428 H 0.39864 0.63703 0.81515 0.0
H2429 H 0.35075 0.60299 0.97466 0.0
H2430 H 0.33649 0.61844 0.9842 0.0
H2431 H 0.35544 0.61952 0.01792 0.0
C2432 C 0.15446 0.62469 0.60066 0.0
C2433 C 0.14852 0.63105 0.65086 0.0
C2434 C 0.14523 0.61487 0.56673 0.0
C2435 C 0.12952 0.61165 0.58259 0.0
C2436 C 0.12341 0.6181 0.63312 0.0
C2437 C 0.13307 0.62756 0.66713 0.0
C2438 C 0.15231 0.60788 0.51398 0.0
C2439 C 0.10661 0.61521 0.65072 0.0
C2440 C 0.10278 0.5987 0.46313 0.0
C2441 C 0.10196 0.58244 0.47209 0.0
C2442 C 0.11127 0.60842 0.49997 0.0
C2443 C 0.11951 0.60164 0.5458 0.0
C2444 C 0.11875 0.58521 0.55489 0.0
C2445 C 0.10981 0.57583 0.51834 0.0
C2446 C 0.11151 0.62593 0.48963 0.0
C2447 C 0.12773 0.57747 0.60228 0.0
H2448 H 0.16646 0.62722 0.58826 0.0
H2449 H 0.12843 0.63253 0.70579 0.0
H2450 H 0.15123 0.59489 0.51495 0.0
H2451 H 0.14582 0.61209 0.47635 0.0
H2452 H 0.16491 0.61099 0.50895 0.0
H2453 H 0.10361 0.62121 0.69089 0.0
H2454 H 0.09851 0.61944 0.61734 0.0
H2455 H 0.1045 0.60243 0.65588 0.0
H2456 H 0.09662 0.60384 0.42762 0.0
H2457 H 0.10931 0.56323 0.52503 0.0
H2458 H 0.12363 0.62978 0.47933 0.0
H2459 H 0.10788 0.63229 0.52833 0.0
H2460 H 0.10363 0.62945 0.45451 0.0
H2461 H 0.1405 0.57969 0.59701 0.0
H2462 H 0.12577 0.56456 0.60388 0.0
H2463 H 0.1242 0.58262 0.64332 0.0
C2464 C 0.13468 0.36063 0.35141 0.0
C2465 C 0.14445 0.3646 0.30607 0.0
C2466 C 0.12724 0.3723 0.38345 0.0
C2467 C 0.13008 0.38832 0.37095 0.0
C2468 C 0.13951 0.39238 0.32391 0.0
C2469 C 0.14642 0.38042 0.29141 0.0
C2470 C 0.11687 0.36746 0.43214 0.0
C2471 C 0.1431 0.40932 0.31001 0.0
C2472 C 0.10402 0.41923 0.4393 0.0
C2473 C 0.1126 0.4228 0.48811 0.0
C2474 C 0.10957 0.40806 0.40049 0.0
C2475 C 0.12424 0.40068 0.41002 0.0
C2476 C 0.13314 0.40461 0.45847 0.0
C2477 C 0.12709 0.41545 0.49737 0.0
C2478 C 0.09955 0.40384 0.35021 0.0
C2479 C 0.14901 0.39729 0.46947 0.0
H2480 H 0.13309 0.34836 0.36245 0.0
H2481 H 0.15411 0.38347 0.25662 0.0
H2482 H 0.1227 0.37048 0.47252 0.0
H2483 H 0.10556 0.37394 0.43071 0.0
H2484 H 0.11436 0.35465 0.432 0.0
H2485 H 0.14955 0.41054 0.26952 0.0
H2486 H 0.13211 0.41629 0.30758 0.0
H2487 H 0.15038 0.41449 0.34413 0.0
H2488 H 0.09276 0.42485 0.43227 0.0
H2489 H 0.13382 0.41834 0.53478 0.0
H2490 H 0.09632 0.39122 0.35225 0.0
H2491 H 0.10625 0.40561 0.31063 0.0
H2492 H 0.0886 0.41093 0.34815 0.0
H2493 H 0.14767 0.38447 0.47644 0.0
H2494 H 0.15492 0.40245 0.5069 0.0
H2495 H 0.15675 0.39886 0.43224 0.0
loop_
_geom_bond_atom_site_label_1
_geom_bond_atom_site_label_2
_geom_bond_distance
_geom_bond_site_symmetry_2
_ccdc_geom_bond_type
Mg0 O1 2.028 . S
Mg0 O7 1.986 . S
Mg0 O9 2.114 . S
Mg0 O10 2.251 . S
Mg0 O13 2.010 . S
O1 Mg0 2.028 . S
O1 C4 1.250 . S
O2 Mg3 2.028 . S
O2 C4 1.248 . S
Mg3 O2 2.028 . S
Mg3 O8 2.032 . S
Mg3 O10 2.079 . S
C4 O1 1.250 . S
C4 O2 1.248 . S
C5 O6 1.264 1_554 S
C5 O13 1.249 . S
O6 C5 1.264 1_556 S
O7 Mg0 1.986 . S
O7 C11 1.246 . S
O8 Mg3 2.032 . S
O8 C11 1.259 . S
O9 Mg0 2.114 . S
O9 C12 1.252 . S
O10 Mg0 2.251 . S
O10 Mg3 2.079 . S
O10 C12 1.273 . S
C11 O7 1.246 . S
C11 O8 1.259 . S
C12 O9 1.252 . S
C12 O10 1.273 . S
O13 Mg0 2.010 . S
O13 C5 1.249 . S
Mg14 O15 2.028 . S
Mg14 O21 1.986 . S
Mg14 O23 2.114 . S
Mg14 O24 2.251 . S
Mg14 O27 2.010 . S
O15 Mg14 2.028 . S
O15 C18 1.250 . S
O16 Mg17 2.028 . S
O16 C18 1.248 . S
Mg17 O16 2.028 . S
Mg17 O22 2.032 . S
Mg17 O24 2.079 . S
C18 O15 1.250 . S
C18 O16 1.248 . S
C19 O20 1.264 . S
C19 O27 1.249 . S
O20 C19 1.264 . S
O21 Mg14 1.986 . S
O21 C25 1.246 . S
O22 Mg17 2.032 . S
O22 C25 1.259 . S
O23 Mg14 2.114 . S
O23 C26 1.252 . S
O24 Mg14 2.251 . S
O24 Mg17 2.079 . S
O24 C26 1.273 . S
C25 O21 1.246 . S
C25 O22 1.259 . S
C26 O23 1.252 . S
C26 O24 1.273 . S
O27 Mg14 2.010 . S
O27 C19 1.249 . S
Mg28 O29 2.028 . S
Mg28 O35 1.986 . S
Mg28 O37 2.114 . S
Mg28 O38 2.251 . S
Mg28 O41 2.010 . S
O29 Mg28 2.028 . S
O29 C32 1.250 . S
O30 Mg31 2.028 . S
O30 C32 1.248 . S
Mg31 O30 2.028 . S
Mg31 O36 2.032 . S
Mg31 O38 2.079 . S
C32 O29 1.250 . S
C32 O30 1.248 . S
C33 O34 1.264 . S
C33 O41 1.249 . S
O34 C33 1.264 . S
O35 Mg28 1.986 . S
O35 C39 1.246 . S
O36 Mg31 2.032 . S
O36 C39 1.259 . S
O37 Mg28 2.114 . S
O37 C40 1.252 . S
O38 Mg28 2.251 . S
O38 Mg31 2.079 . S
O38 C40 1.273 . S
C39 O35 1.246 . S
C39 O36 1.259 . S
C40 O37 1.252 . S
C40 O38 1.273 . S
O41 Mg28 2.010 . S
O41 C33 1.249 . S
Mg42 O43 2.028 . S
Mg42 O49 1.986 . S
Mg42 O51 2.114 . S
Mg42 O52 2.251 . S
Mg42 O55 2.010 . S
O43 Mg42 2.028 . S
O43 C46 1.250 . S
O44 Mg45 2.028 . S
O44 C46 1.248 1_554 S
Mg45 O44 2.028 . S
Mg45 O50 2.032 1_554 S
Mg45 O52 2.079 1_554 S
C46 O43 1.250 . S
C46 O44 1.248 1_556 S
C47 O48 1.264 . S
C47 O55 1.249 . S
O48 C47 1.264 . S
O49 Mg42 1.986 . S
O49 C53 1.246 . S
O50 Mg45 2.032 1_556 S
O50 C53 1.259 . S
O51 Mg42 2.114 . S
O51 C54 1.252 . S
O52 Mg42 2.251 . S
O52 Mg45 2.079 1_556 S
O52 C54 1.273 . S
C53 O49 1.246 . S
C53 O50 1.259 . S
C54 O51 1.252 . S
C54 O52 1.273 . S
O55 Mg42 2.010 . S
O55 C47 1.249 . S
Mg56 O57 2.028 . S
Mg56 O63 1.986 . S
Mg56 O65 2.114 . S
Mg56 O66 2.251 . S
Mg56 O69 2.010 . S
O57 Mg56 2.028 . S
O57 C60 1.250 . S
O58 Mg59 2.028 . S
O58 C60 1.248 . S
Mg59 O58 2.028 . S
Mg59 O64 2.032 . S
Mg59 O66 2.079 . S
C60 O57 1.250 . S
C60 O58 1.248 . S
C61 O62 1.264 1_556 S
C61 O69 1.249 . S
O62 C61 1.264 1_554 S
O63 Mg56 1.986 . S
O63 C67 1.246 . S
O64 Mg59 2.032 . S
O64 C67 1.259 . S
O65 Mg56 2.114 . S
O65 C68 1.252 . S
O66 Mg56 2.251 . S
O66 Mg59 2.079 . S
O66 C68 1.273 . S
C67 O63 1.246 . S
C67 O64 1.259 . S
C68 O65 1.252 . S
C68 O66 1.273 . S
O69 Mg56 2.010 . S
O69 C61 1.249 . S
Mg70 O71 2.028 . S
Mg70 O77 1.986 . S
Mg70 O79 2.114 . S
Mg70 O80 2.251 . S
Mg70 O83 2.010 . S
O71 Mg70 2.028 . S
O71 C74 1.250 . S
O72 Mg73 2.028 . S
O72 C74 1.248 1_556 S
Mg73 O72 2.028 . S
Mg73 O78 2.032 1_556 S
Mg73 O80 2.079 1_556 S
C74 O71 1.250 . S
C74 O72 1.248 1_554 S
C75 O76 1.264 . S
C75 O83 1.249 . S
O76 C75 1.264 . S
O77 Mg70 1.986 . S
O77 C81 1.246 . S
O78 Mg73 2.032 1_554 S
O78 C81 1.259 . S
O79 Mg70 2.114 . S
O79 C82 1.252 . S
O80 Mg70 2.251 . S
O80 Mg73 2.079 1_554 S
O80 C82 1.273 . S
C81 O77 1.246 . S
C81 O78 1.259 . S
C82 O79 1.252 . S
C82 O80 1.273 . S
O83 Mg70 2.010 . S
O83 C75 1.249 . S
Mg84 O85 2.028 . S
Mg84 O91 1.986 . S
Mg84 O93 2.114 . S
Mg84 O94 2.251 . S
Mg84 O97 2.010 . S
O85 Mg84 2.028 . S
O85 C88 1.250 . S
O86 Mg87 2.028 . S
O86 C88 1.248 . S
Mg87 O86 2.028 . S
Mg87 O92 2.032 . S
Mg87 O94 2.079 . S
C88 O85 1.250 . S
C88 O86 1.248 . S
C89 O90 1.264 . S
C89 O97 1.249 . S
O90 C89 1.264 . S
O91 Mg84 1.986 . S
O91 C95 1.246 . S
O92 Mg87 2.032 . S
O92 C95 1.259 . S
O93 Mg84 2.114 . S
O93 C96 1.252 . S
O94 Mg84 2.251 . S
O94 Mg87 2.079 . S
O94 C96 1.273 . S
C95 O91 1.246 . S
C95 O92 1.259 . S
C96 O93 1.252 . S
C96 O94 1.273 . S
O97 Mg84 2.010 . S
O97 C89 1.249 . S
Mg98 O99 2.028 . S
Mg98 O105 1.986 . S
Mg98 O107 2.114 . S
Mg98 O108 2.251 . S
Mg98 O111 2.010 . S
O99 Mg98 2.028 . S
O99 C102 1.250 . S
O100 Mg101 2.028 . S
O100 C102 1.248 . S
Mg101 O100 2.028 . S
Mg101 O106 2.032 . S
Mg101 O108 2.079 . S
C102 O99 1.250 . S
C102 O100 1.248 . S
C103 O104 1.264 . S
C103 O111 1.249 . S
O104 C103 1.264 . S
O105 Mg98 1.986 . S
O105 C109 1.246 . S
O106 Mg101 2.032 . S
O106 C109 1.259 . S
O107 Mg98 2.114 . S
O107 C110 1.252 . S
O108 Mg98 2.251 . S
O108 Mg101 2.079 . S
O108 C110 1.273 . S
C109 O105 1.246 . S
C109 O106 1.259 . S
C110 O107 1.252 . S
C110 O108 1.273 . S
O111 Mg98 2.010 . S
O111 C103 1.249 . S
Mg112 O113 2.028 . S
Mg112 O119 1.986 . S
Mg112 O121 2.114 . S
Mg112 O122 2.251 . S
Mg112 O125 2.010 . S
O113 Mg112 2.028 . S
O113 C116 1.250 . S
O114 Mg115 2.028 . S
O114 C116 1.248 . S
Mg115 O114 2.028 . S
Mg115 O120 2.032 . S
Mg115 O122 2.079 . S
C116 O113 1.250 . S
C116 O114 1.248 . S
C117 O118 1.264 1_556 S
C117 O125 1.249 . S
O118 C117 1.264 1_554 S
O119 Mg112 1.986 . S
O119 C123 1.246 . S
O120 Mg115 2.032 . S
O120 C123 1.259 . S
O121 Mg112 2.114 . S
O121 C124 1.252 . S
O122 Mg112 2.251 . S
O122 Mg115 2.079 . S
O122 C124 1.273 . S
C123 O119 1.246 . S
C123 O120 1.259 . S
C124 O121 1.252 . S
C124 O122 1.273 . S
O125 Mg112 2.010 . S
O125 C117 1.249 . S
Mg126 O127 2.028 . S
Mg126 O133 1.986 . S
Mg126 O135 2.114 . S
Mg126 O136 2.251 . S
Mg126 O139 2.010 . S
O127 Mg126 2.028 . S
O127 C130 1.250 . S
O128 Mg129 2.028 . S
O128 C130 1.248 . S
Mg129 O128 2.028 . S
Mg129 O134 2.032 . S
Mg129 O136 2.079 . S
C130 O127 1.250 . S
C130 O128 1.248 . S
C131 O132 1.264 . S
C131 O139 1.249 . S
O132 C131 1.264 . S
O133 Mg126 1.986 . S
O133 C137 1.246 . S
O134 Mg129 2.032 . S
O134 C137 1.259 . S
O135 Mg126 2.114 . S
O135 C138 1.252 . S
O136 Mg126 2.251 . S
O136 Mg129 2.079 . S
O136 C138 1.273 . S
C137 O133 1.246 . S
C137 O134 1.259 . S
C138 O135 1.252 . S
C138 O136 1.273 . S
O139 Mg126 2.010 . S
O139 C131 1.249 . S
Mg140 O141 2.028 . S
Mg140 O147 1.986 . S
Mg140 O149 2.114 . S
Mg140 O150 2.251 . S
Mg140 O153 2.010 . S
O141 Mg140 2.028 . S
O141 C144 1.250 . S
O142 Mg143 2.028 . S
O142 C144 1.248 . S
Mg143 O142 2.028 . S
Mg143 O148 2.032 . S
Mg143 O150 2.079 . S
C144 O141 1.250 . S
C144 O142 1.248 . S
C145 O146 1.264 . S
C145 O153 1.249 . S
O146 C145 1.264 . S
O147 Mg140 1.986 . S
O147 C151 1.246 . S
O148 Mg143 2.032 . S
O148 C151 1.259 . S
O149 Mg140 2.114 . S
O149 C152 1.252 . S
O150 Mg140 2.251 . S
O150 Mg143 2.079 . S
O150 C152 1.273 . S
C151 O147 1.246 . S
C151 O148 1.259 . S
C152 O149 1.252 . S
C152 O150 1.273 . S
O153 Mg140 2.010 . S
O153 C145 1.249 . S
Mg154 O155 2.028 . S
Mg154 O161 1.986 . S
Mg154 O163 2.114 . S
Mg154 O164 2.251 . S
Mg154 O167 2.010 . S
O155 Mg154 2.028 . S
O155 C158 1.250 . S
O156 Mg157 2.028 . S
O156 C158 1.248 1_556 S
Mg157 O156 2.028 . S
Mg157 O162 2.032 1_556 S
Mg157 O164 2.079 1_556 S
C158 O155 1.250 . S
C158 O156 1.248 1_554 S
C159 O160 1.264 . S
C159 O167 1.249 . S
O160 C159 1.264 . S
O161 Mg154 1.986 . S
O161 C165 1.246 . S
O162 Mg157 2.032 1_554 S
O162 C165 1.259 . S
O163 Mg154 2.114 . S
O163 C166 1.252 . S
O164 Mg154 2.251 . S
O164 Mg157 2.079 1_554 S
O164 C166 1.273 . S
C165 O161 1.246 . S
C165 O162 1.259 . S
C166 O163 1.252 . S
C166 O164 1.273 . S
O167 Mg154 2.010 . S
O167 C159 1.249 . S
Mg168 O169 2.028 . S
Mg168 O175 1.986 . S
Mg168 O177 2.114 . S
Mg168 O178 2.251 . S
Mg168 O181 2.010 . S
O169 Mg168 2.028 . S
O169 C172 1.250 . S
O170 Mg171 2.028 . S
O170 C172 1.248 . S
Mg171 O170 2.028 . S
Mg171 O176 2.032 . S
Mg171 O178 2.079 . S
C172 O169 1.250 . S
C172 O170 1.248 . S
C173 O174 1.264 1_554 S
C173 O181 1.249 . S
O174 C173 1.264 1_556 S
O175 Mg168 1.986 . S
O175 C179 1.246 . S
O176 Mg171 2.032 . S
O176 C179 1.259 . S
O177 Mg168 2.114 . S
O177 C180 1.252 . S
O178 Mg168 2.251 . S
O178 Mg171 2.079 . S
O178 C180 1.273 . S
C179 O175 1.246 . S
C179 O176 1.259 . S
C180 O177 1.252 . S
C180 O178 1.273 . S
O181 Mg168 2.010 . S
O181 C173 1.249 . S
Mg182 O183 2.028 . S
Mg182 O189 1.986 . S
Mg182 O191 2.114 . S
Mg182 O192 2.251 . S
Mg182 O195 2.010 . S
O183 Mg182 2.028 . S
O183 C186 1.250 . S
O184 Mg185 2.028 . S
O184 C186 1.248 1_554 S
Mg185 O184 2.028 . S
Mg185 O190 2.032 1_554 S
Mg185 O192 2.079 1_554 S
C186 O183 1.250 . S
C186 O184 1.248 1_556 S
C187 O188 1.264 . S
C187 O195 1.249 . S
O188 C187 1.264 . S
O189 Mg182 1.986 . S
O189 C193 1.246 . S
O190 Mg185 2.032 1_556 S
O190 C193 1.259 . S
O191 Mg182 2.114 . S
O191 C194 1.252 . S
O192 Mg182 2.251 . S
O192 Mg185 2.079 1_556 S
O192 C194 1.273 . S
C193 O189 1.246 . S
C193 O190 1.259 . S
C194 O191 1.252 . S
C194 O192 1.273 . S
O195 Mg182 2.010 . S
O195 C187 1.249 . S
Mg196 O197 2.028 . S
Mg196 O203 1.986 . S
Mg196 O205 2.114 . S
Mg196 O206 2.251 . S
Mg196 O209 2.010 . S
O197 Mg196 2.028 . S
O197 C200 1.250 . S
O198 Mg199 2.028 . S
O198 C200 1.248 . S
Mg199 O198 2.028 . S
Mg199 O204 2.032 . S
Mg199 O206 2.079 . S
C200 O197 1.250 . S
C200 O198 1.248 . S
C201 O202 1.264 . S
C201 O209 1.249 . S
O202 C201 1.264 . S
O203 Mg196 1.986 . S
O203 C207 1.246 . S
O204 Mg199 2.032 . S
O204 C207 1.259 . S
O205 Mg196 2.114 . S
O205 C208 1.252 . S
O206 Mg196 2.251 . S
O206 Mg199 2.079 . S
O206 C208 1.273 . S
C207 O203 1.246 . S
C207 O204 1.259 . S
C208 O205 1.252 . S
C208 O206 1.273 . S
O209 Mg196 2.010 . S
O209 C201 1.249 . S
Mg210 O211 2.028 . S
Mg210 O217 1.986 . S
Mg210 O219 2.114 . S
Mg210 O220 2.251 . S
Mg210 O223 2.010 . S
O211 Mg210 2.028 . S
O211 C214 1.250 . S
O212 Mg213 2.028 . S
O212 C214 1.248 . S
Mg213 O212 2.028 . S
Mg213 O218 2.032 . S
Mg213 O220 2.079 . S
C214 O211 1.250 . S
C214 O212 1.248 . S
C215 O216 1.264 . S
C215 O223 1.249 . S
O216 C215 1.264 . S
O217 Mg210 1.986 . S
O217 C221 1.246 . S
O218 Mg213 2.032 . S
O218 C221 1.259 . S
O219 Mg210 2.114 . S
O219 C222 1.252 . S
O220 Mg210 2.251 . S
O220 Mg213 2.079 . S
O220 C222 1.273 . S
C221 O217 1.246 . S
C221 O218 1.259 . S
C222 O219 1.252 . S
C222 O220 1.273 . S
O223 Mg210 2.010 . S
O223 C215 1.249 . S
Mg224 O225 2.028 . S
Mg224 O231 1.986 . S
Mg224 O233 2.114 . S
Mg224 O234 2.251 . S
Mg224 O237 2.010 . S
O225 Mg224 2.028 . S
O225 C228 1.250 . S
O226 Mg227 2.028 . S
O226 C228 1.248 . S
Mg227 O226 2.028 . S
Mg227 O232 2.032 . S
Mg227 O234 2.079 . S
C228 O225 1.250 . S
C228 O226 1.248 . S
C229 O230 1.264 . S
C229 O237 1.249 . S
O230 C229 1.264 . S
O231 Mg224 1.986 . S
O231 C235 1.246 . S
O232 Mg227 2.032 . S
O232 C235 1.259 . S
O233 Mg224 2.114 . S
O233 C236 1.252 . S
O234 Mg224 2.251 . S
O234 Mg227 2.079 . S
O234 C236 1.273 . S
C235 O231 1.246 . S
C235 O232 1.259 . S
C236 O233 1.252 . S
C236 O234 1.273 . S
O237 Mg224 2.010 . S
O237 C229 1.249 . S
Mg238 O239 2.028 . S
Mg238 O245 1.986 . S
Mg238 O247 2.114 . S
Mg238 O248 2.251 . S
Mg238 O251 2.010 . S
O239 Mg238 2.028 . S
O239 C242 1.250 . S
O240 Mg241 2.028 . S
O240 C242 1.248 1_554 S
Mg241 O240 2.028 . S
Mg241 O246 2.032 1_554 S
Mg241 O248 2.079 1_554 S
C242 O239 1.250 . S
C242 O240 1.248 1_556 S
C243 O244 1.264 . S
C243 O251 1.249 . S
O244 C243 1.264 . S
O245 Mg238 1.986 . S
O245 C249 1.246 . S
O246 Mg241 2.032 1_556 S
O246 C249 1.259 . S
O247 Mg238 2.114 . S
O247 C250 1.252 . S
O248 Mg238 2.251 . S
O248 Mg241 2.079 1_556 S
O248 C250 1.273 . S
C249 O245 1.246 . S
C249 O246 1.259 . S
C250 O247 1.252 . S
C250 O248 1.273 . S
O251 Mg238 2.010 . S
O251 C243 1.249 . S
Mg252 O253 2.028 . S
Mg252 O259 1.986 . S
Mg252 O261 2.114 . S
Mg252 O262 2.251 . S
Mg252 O265 2.010 . S
O253 Mg252 2.028 . S
O253 C256 1.250 . S
O254 Mg255 2.028 . S
O254 C256 1.248 . S
Mg255 O254 2.028 . S
Mg255 O260 2.032 . S
Mg255 O262 2.079 . S
C256 O253 1.250 . S
C256 O254 1.248 . S
C257 O258 1.264 1_554 S
C257 O265 1.249 . S
O258 C257 1.264 1_556 S
O259 Mg252 1.986 . S
O259 C263 1.246 . S
O260 Mg255 2.032 . S
O260 C263 1.259 . S
O261 Mg252 2.114 . S
O261 C264 1.252 . S
O262 Mg252 2.251 . S
O262 Mg255 2.079 . S
O262 C264 1.273 . S
C263 O259 1.246 . S
C263 O260 1.259 . S
C264 O261 1.252 . S
C264 O262 1.273 . S
O265 Mg252 2.010 . S
O265 C257 1.249 . S
Mg266 O267 2.028 . S
Mg266 O273 1.986 . S
Mg266 O275 2.114 . S
Mg266 O276 2.251 . S
Mg266 O279 2.010 . S
O267 Mg266 2.028 . S
O267 C270 1.250 . S
O268 Mg269 2.028 . S
O268 C270 1.248 . S
Mg269 O268 2.028 . S
Mg269 O274 2.032 . S
Mg269 O276 2.079 . S
C270 O267 1.250 . S
C270 O268 1.248 . S
C271 O272 1.264 . S
C271 O279 1.249 . S
O272 C271 1.264 . S
O273 Mg266 1.986 . S
O273 C277 1.246 . S
O274 Mg269 2.032 . S
O274 C277 1.259 . S
O275 Mg266 2.114 . S
O275 C278 1.252 . S
O276 Mg266 2.251 . S
O276 Mg269 2.079 . S
O276 C278 1.273 . S
C277 O273 1.246 . S
C277 O274 1.259 . S
C278 O275 1.252 . S
C278 O276 1.273 . S
O279 Mg266 2.010 . S
O279 C271 1.249 . S
Mg280 O281 2.028 . S
Mg280 O287 1.986 . S
Mg280 O289 2.114 . S
Mg280 O290 2.251 . S
Mg280 O293 2.010 . S
O281 Mg280 2.028 . S
O281 C284 1.250 . S
O282 Mg283 2.028 . S
O282 C284 1.248 . S
Mg283 O282 2.028 . S
Mg283 O288 2.032 . S
Mg283 O290 2.079 . S
C284 O281 1.250 . S
C284 O282 1.248 . S
C285 O286 1.264 . S
C285 O293 1.249 . S
O286 C285 1.264 . S
O287 Mg280 1.986 . S
O287 C291 1.246 . S
O288 Mg283 2.032 . S
O288 C291 1.259 . S
O289 Mg280 2.114 . S
O289 C292 1.252 . S
O290 Mg280 2.251 . S
O290 Mg283 2.079 . S
O290 C292 1.273 . S
C291 O287 1.246 . S
C291 O288 1.259 . S
C292 O289 1.252 . S
C292 O290 1.273 . S
O293 Mg280 2.010 . S
O293 C285 1.249 . S
Mg294 O295 2.028 . S
Mg294 O301 1.986 . S
Mg294 O303 2.114 . S
Mg294 O304 2.251 . S
Mg294 O307 2.010 . S
O295 Mg294 2.028 . S
O295 C298 1.250 . S
O296 Mg297 2.028 . S
O296 C298 1.248 . S
Mg297 O296 2.028 . S
Mg297 O302 2.032 . S
Mg297 O304 2.079 . S
C298 O295 1.250 . S
C298 O296 1.248 . S
C299 O300 1.264 . S
C299 O307 1.249 . S
O300 C299 1.264 . S
O301 Mg294 1.986 . S
O301 C305 1.246 . S
O302 Mg297 2.032 . S
O302 C305 1.259 . S
O303 Mg294 2.114 . S
O303 C306 1.252 . S
O304 Mg294 2.251 . S
O304 Mg297 2.079 . S
O304 C306 1.273 . S
C305 O301 1.246 . S
C305 O302 1.259 . S
C306 O303 1.252 . S
C306 O304 1.273 . S
O307 Mg294 2.010 . S
O307 C299 1.249 . S
Mg308 O309 2.028 . S
Mg308 O315 1.986 . S
Mg308 O317 2.114 . S
Mg308 O318 2.251 . S
Mg308 O321 2.010 . S
O309 Mg308 2.028 . S
O309 C312 1.250 . S
O310 Mg311 2.028 . S
O310 C312 1.248 . S
Mg311 O310 2.028 . S
Mg311 O316 2.032 . S
Mg311 O318 2.079 . S
C312 O309 1.250 . S
C312 O310 1.248 . S
C313 O314 1.264 1_556 S
C313 O321 1.249 . S
O314 C313 1.264 1_554 S
O315 Mg308 1.986 . S
O315 C319 1.246 . S
O316 Mg311 2.032 . S
O316 C319 1.259 . S
O317 Mg308 2.114 . S
O317 C320 1.252 . S
O318 Mg308 2.251 . S
O318 Mg311 2.079 . S
O318 C320 1.273 . S
C319 O315 1.246 . S
C319 O316 1.259 . S
C320 O317 1.252 . S
C320 O318 1.273 . S
O321 Mg308 2.010 . S
O321 C313 1.249 . S
Mg322 O323 2.028 . S
Mg322 O329 1.986 . S
Mg322 O331 2.114 . S
Mg322 O332 2.251 . S
Mg322 O335 2.010 . S
O323 Mg322 2.028 . S
O323 C326 1.250 . S
O324 Mg325 2.028 . S
O324 C326 1.248 1_556 S
Mg325 O324 2.028 . S
Mg325 O330 2.032 1_556 S
Mg325 O332 2.079 1_556 S
C326 O323 1.250 . S
C326 O324 1.248 1_554 S
C327 O328 1.264 . S
C327 O335 1.249 . S
O328 C327 1.264 . S
O329 Mg322 1.986 . S
O329 C333 1.246 . S
O330 Mg325 2.032 1_554 S
O330 C333 1.259 . S
O331 Mg322 2.114 . S
O331 C334 1.252 . S
O332 Mg322 2.251 . S
O332 Mg325 2.079 1_554 S
O332 C334 1.273 . S
C333 O329 1.246 . S
C333 O330 1.259 . S
C334 O331 1.252 . S
C334 O332 1.273 . S
O335 Mg322 2.010 . S
O335 C327 1.249 . S
Mg336 O337 2.028 . S
Mg336 O343 1.986 . S
Mg336 O345 2.114 . S
Mg336 O346 2.251 . S
Mg336 O349 2.010 . S
O337 Mg336 2.028 . S
O337 C340 1.250 . S
O338 Mg339 2.028 . S
O338 C340 1.248 . S
Mg339 O338 2.028 . S
Mg339 O344 2.032 . S
Mg339 O346 2.079 . S
C340 O337 1.250 . S
C340 O338 1.248 . S
C341 O342 1.264 . S
C341 O349 1.249 . S
O342 C341 1.264 . S
O343 Mg336 1.986 . S
O343 C347 1.246 . S
O344 Mg339 2.032 . S
O344 C347 1.259 . S
O345 Mg336 2.114 . S
O345 C348 1.252 . S
O346 Mg336 2.251 . S
O346 Mg339 2.079 . S
O346 C348 1.273 . S
C347 O343 1.246 . S
C347 O344 1.259 . S
C348 O345 1.252 . S
C348 O346 1.273 . S
O349 Mg336 2.010 . S
O349 C341 1.249 . S
Mg350 O351 2.028 . S
Mg350 O357 1.986 . S
Mg350 O359 2.114 . S
Mg350 O360 2.251 . S
Mg350 O363 2.010 . S
O351 Mg350 2.028 . S
O351 C354 1.250 . S
O352 Mg353 2.028 . S
O352 C354 1.248 1_556 S
Mg353 O352 2.028 . S
Mg353 O358 2.032 1_556 S
Mg353 O360 2.079 1_556 S
C354 O351 1.250 . S
C354 O352 1.248 1_554 S
C355 O356 1.264 . S
C355 O363 1.249 . S
O356 C355 1.264 . S
O357 Mg350 1.986 . S
O357 C361 1.246 . S
O358 Mg353 2.032 1_554 S
O358 C361 1.259 . S
O359 Mg350 2.114 . S
O359 C362 1.252 . S
O360 Mg350 2.251 . S
O360 Mg353 2.079 1_554 S
O360 C362 1.273 . S
C361 O357 1.246 . S
C361 O358 1.259 . S
C362 O359 1.252 . S
C362 O360 1.273 . S
O363 Mg350 2.010 . S
O363 C355 1.249 . S
Mg364 O365 2.028 . S
Mg364 O371 1.986 . S
Mg364 O373 2.114 . S
Mg364 O374 2.251 . S
Mg364 O377 2.010 . S
O365 Mg364 2.028 . S
O365 C368 1.250 . S
O366 Mg367 2.028 . S
O366 C368 1.248 . S
Mg367 O366 2.028 . S
Mg367 O372 2.032 . S
Mg367 O374 2.079 . S
C368 O365 1.250 . S
C368 O366 1.248 . S
C369 O370 1.264 1_556 S
C369 O377 1.249 . S
O370 C369 1.264 1_554 S
O371 Mg364 1.986 . S
O371 C375 1.246 . S
O372 Mg367 2.032 . S
O372 C375 1.259 . S
O373 Mg364 2.114 . S
O373 C376 1.252 . S
O374 Mg364 2.251 . S
O374 Mg367 2.079 . S
O374 C376 1.273 . S
C375 O371 1.246 . S
C375 O372 1.259 . S
C376 O373 1.252 . S
C376 O374 1.273 . S
O377 Mg364 2.010 . S
O377 C369 1.249 . S
Mg378 O379 2.028 . S
Mg378 O385 1.986 . S
Mg378 O387 2.114 . S
Mg378 O388 2.251 . S
Mg378 O391 2.010 . S
O379 Mg378 2.028 . S
O379 C382 1.250 . S
O380 Mg381 2.028 . S
O380 C382 1.248 . S
Mg381 O380 2.028 . S
Mg381 O386 2.032 . S
Mg381 O388 2.079 . S
C382 O379 1.250 . S
C382 O380 1.248 . S
C383 O384 1.264 . S
C383 O391 1.249 . S
O384 C383 1.264 . S
O385 Mg378 1.986 . S
O385 C389 1.246 . S
O386 Mg381 2.032 . S
O386 C389 1.259 . S
O387 Mg378 2.114 . S
O387 C390 1.252 . S
O388 Mg378 2.251 . S
O388 Mg381 2.079 . S
O388 C390 1.273 . S
C389 O385 1.246 . S
C389 O386 1.259 . S
C390 O387 1.252 . S
C390 O388 1.273 . S
O391 Mg378 2.010 . S
O391 C383 1.249 . S
Mg392 O393 2.028 . S
Mg392 O399 1.986 . S
Mg392 O401 2.114 . S
Mg392 O402 2.251 . S
Mg392 O405 2.010 . S
O393 Mg392 2.028 . S
O393 C396 1.250 . S
O394 Mg395 2.028 . S
O394 C396 1.248 . S
Mg395 O394 2.028 . S
Mg395 O400 2.032 . S
Mg395 O402 2.079 . S
C396 O393 1.250 . S
C396 O394 1.248 . S
C397 O398 1.264 . S
C397 O405 1.249 . S
O398 C397 1.264 . S
O399 Mg392 1.986 . S
O399 C403 1.246 . S
O400 Mg395 2.032 . S
O400 C403 1.259 . S
O401 Mg392 2.114 . S
O401 C404 1.252 . S
O402 Mg392 2.251 . S
O402 Mg395 2.079 . S
O402 C404 1.273 . S
C403 O399 1.246 . S
C403 O400 1.259 . S
C404 O401 1.252 . S
C404 O402 1.273 . S
O405 Mg392 2.010 . S
O405 C397 1.249 . S
Mg406 O407 2.028 . S
Mg406 O413 1.986 . S
Mg406 O415 2.114 . S
Mg406 O416 2.251 . S
Mg406 O419 2.010 . S
O407 Mg406 2.028 . S
O407 C410 1.250 . S
O408 Mg409 2.028 . S
O408 C410 1.248 . S
Mg409 O408 2.028 . S
Mg409 O414 2.032 . S
Mg409 O416 2.079 . S
C410 O407 1.250 . S
C410 O408 1.248 . S
C411 O412 1.264 . S
C411 O419 1.249 . S
O412 C411 1.264 . S
O413 Mg406 1.986 . S
O413 C417 1.246 . S
O414 Mg409 2.032 . S
O414 C417 1.259 . S
O415 Mg406 2.114 . S
O415 C418 1.252 . S
O416 Mg406 2.251 . S
O416 Mg409 2.079 . S
O416 C418 1.273 . S
C417 O413 1.246 . S
C417 O414 1.259 . S
C418 O415 1.252 . S
C418 O416 1.273 . S
O419 Mg406 2.010 . S
O419 C411 1.249 . S
Mg420 O421 2.028 . S
Mg420 O427 1.986 . S
Mg420 O429 2.114 . S
Mg420 O430 2.251 . S
Mg420 O433 2.010 . S
O421 Mg420 2.028 . S
O421 C424 1.250 . S
O422 Mg423 2.028 . S
O422 C424 1.248 . S
Mg423 O422 2.028 . S
Mg423 O428 2.032 . S
Mg423 O430 2.079 . S
C424 O421 1.250 . S
C424 O422 1.248 . S
C425 O426 1.264 1_554 S
C425 O433 1.249 . S
O426 C425 1.264 1_556 S
O427 Mg420 1.986 . S
O427 C431 1.246 . S
O428 Mg423 2.032 . S
O428 C431 1.259 . S
O429 Mg420 2.114 . S
O429 C432 1.252 . S
O430 Mg420 2.251 . S
O430 Mg423 2.079 . S
O430 C432 1.273 . S
C431 O427 1.246 . S
C431 O428 1.259 . S
C432 O429 1.252 . S
C432 O430 1.273 . S
O433 Mg420 2.010 . S
O433 C425 1.249 . S
Mg434 O435 2.028 . S
Mg434 O441 1.986 . S
Mg434 O443 2.114 . S
Mg434 O444 2.251 . S
Mg434 O447 2.010 . S
O435 Mg434 2.028 . S
O435 C438 1.250 . S
O436 Mg437 2.028 . S
O436 C438 1.248 1_554 S
Mg437 O436 2.028 . S
Mg437 O442 2.032 1_554 S
Mg437 O444 2.079 1_554 S
C438 O435 1.250 . S
C438 O436 1.248 1_556 S
C439 O440 1.264 . S
C439 O447 1.249 . S
O440 C439 1.264 . S
O441 Mg434 1.986 . S
O441 C445 1.246 . S
O442 Mg437 2.032 1_556 S
O442 C445 1.259 . S
O443 Mg434 2.114 . S
O443 C446 1.252 . S
O444 Mg434 2.251 . S
O444 Mg437 2.079 1_556 S
O444 C446 1.273 . S
C445 O441 1.246 . S
C445 O442 1.259 . S
C446 O443 1.252 . S
C446 O444 1.273 . S
O447 Mg434 2.010 . S
O447 C439 1.249 . S
C448 C449 1.391 . S
C448 C450 1.394 . S
C448 H464 0.931 . S
C449 C448 1.391 . S
C449 C453 1.376 . S
C450 C448 1.394 . S
C450 C451 1.369 . S
C450 C454 1.531 . S
C451 C450 1.369 . S
C451 C452 1.410 . S
C451 C459 1.503 . S
C452 C451 1.410 . S
C452 C453 1.392 . S
C452 C455 1.511 . S
C453 C449 1.376 . S
C453 C452 1.392 . S
C453 H465 0.929 . S
C454 C450 1.531 . S
C454 H466 0.960 . S
C454 H467 0.962 . S
C454 H468 0.960 . S
C455 C452 1.511 . S
C455 H469 0.961 . S
C455 H470 0.961 . S
C455 H471 0.961 . S
C456 C457 1.370 . S
C456 C458 1.363 . S
C456 H472 0.931 . S
C457 C456 1.370 . S
C457 C461 1.408 . S
C458 C456 1.363 . S
C458 C459 1.370 . S
C458 C462 1.524 . S
C459 C451 1.503 . S
C459 C458 1.370 . S
C459 C460 1.403 . S
C460 C459 1.403 . S
C460 C461 1.404 . S
C460 C463 1.539 . S
C461 C457 1.408 . S
C461 C460 1.404 . S
C461 H473 0.930 . S
C462 C458 1.524 . S
C462 H474 0.956 . S
C462 H475 0.961 . S
C462 H476 0.961 . S
C463 C460 1.539 . S
C463 H477 0.958 . S
C463 H478 0.961 . S
C463 H479 0.960 . S
H464 C448 0.931 . S
H465 C453 0.929 . S
H466 C454 0.960 . S
H467 C454 0.962 . S
H468 C454 0.960 . S
H469 C455 0.961 . S
H470 C455 0.961 . S
H471 C455 0.961 . S
H472 C456 0.931 . S
H473 C461 0.930 . S
H474 C462 0.956 . S
H475 C462 0.961 . S
H476 C462 0.961 . S
H477 C463 0.958 . S
H478 C463 0.961 . S
H479 C463 0.960 . S
C480 C481 1.391 . S
C480 C482 1.394 . S
C480 H496 0.931 . S
C481 C480 1.391 . S
C481 C485 1.376 . S
C482 C480 1.394 . S
C482 C483 1.369 . S
C482 C486 1.531 . S
C483 C482 1.369 . S
C483 C484 1.410 . S
C483 C491 1.503 1_565 S
C484 C483 1.410 . S
C484 C485 1.392 . S
C484 C487 1.511 1_565 S
C485 C481 1.376 . S
C485 C484 1.392 . S
C485 H497 0.929 . S
C486 C482 1.531 . S
C486 H498 0.960 . S
C486 H499 0.962 . S
C486 H500 0.960 . S
C487 C484 1.511 1_545 S
C487 H501 0.945 1_545 S
C487 H502 0.961 . S
C487 H503 0.961 . S
C488 C489 1.370 . S
C488 C490 1.363 . S
C488 H504 0.931 . S
C489 C488 1.370 . S
C489 C493 1.408 . S
C490 C488 1.363 . S
C490 C491 1.370 . S
C490 C494 1.524 . S
C491 C483 1.503 1_545 S
C491 C490 1.370 . S
C491 C492 1.403 . S
C492 C491 1.403 . S
C492 C493 1.404 . S
C492 C495 1.539 . S
C493 C489 1.408 . S
C493 C492 1.404 . S
C493 H505 0.930 . S
C494 C490 1.524 . S
C494 H506 0.956 1_545 S
C494 H507 0.961 . S
C494 H508 0.961 . S
C495 C492 1.539 . S
C495 H509 0.958 . S
C495 H510 0.961 . S
C495 H511 0.981 . S
H496 C480 0.931 . S
H497 C485 0.929 . S
H498 C486 0.960 . S
H499 C486 0.962 . S
H500 C486 0.960 . S
H501 C487 0.945 1_565 S
H502 C487 0.961 . S
H503 C487 0.961 . S
H504 C488 0.931 . S
H505 C493 0.930 . S
H506 C494 0.956 1_565 S
H507 C494 0.961 . S
H508 C494 0.961 . S
H509 C495 0.958 . S
H510 C495 0.961 . S
H511 C495 0.981 . S
C512 C513 1.391 . S
C512 C514 1.394 . S
C512 H528 0.931 . S
C513 C512 1.391 . S
C513 C517 1.376 . S
C514 C512 1.394 . S
C514 C515 1.369 . S
C514 C518 1.531 . S
C515 C514 1.369 . S
C515 C516 1.410 . S
C515 C523 1.503 . S
C516 C515 1.410 . S
C516 C517 1.392 . S
C516 C519 1.511 . S
C517 C513 1.376 . S
C517 C516 1.392 . S
C517 H529 0.929 . S
C518 C514 1.531 . S
C518 H530 0.960 . S
C518 H531 0.962 . S
C518 H532 0.960 . S
C519 C516 1.511 . S
C519 H533 0.961 . S
C519 H534 0.961 . S
C519 H535 0.961 . S
C520 C521 1.370 . S
C520 C522 1.363 . S
C520 H536 0.931 . S
C521 C520 1.370 . S
C521 C525 1.408 . S
C522 C520 1.363 . S
C522 C523 1.370 . S
C522 C526 1.524 . S
C523 C515 1.503 . S
C523 C522 1.370 . S
C523 C524 1.403 . S
C524 C523 1.403 . S
C524 C525 1.404 . S
C524 C527 1.539 . S
C525 C521 1.408 . S
C525 C524 1.404 . S
C525 H537 0.930 . S
C526 C522 1.524 . S
C526 H538 0.956 . S
C526 H539 0.961 . S
C526 H540 0.961 . S
C527 C524 1.539 . S
C527 H541 0.958 . S
C527 H542 0.961 . S
C527 H543 0.960 . S
H528 C512 0.931 . S
H529 C517 0.929 . S
H530 C518 0.960 . S
H531 C518 0.962 . S
H532 C518 0.960 . S
H533 C519 0.961 . S
H534 C519 0.961 . S
H535 C519 0.961 . S
H536 C520 0.931 . S
H537 C525 0.930 . S
H538 C526 0.956 . S
H539 C526 0.961 . S
H540 C526 0.961 . S
H541 C527 0.958 . S
H542 C527 0.961 . S
H543 C527 0.960 . S
C544 C545 1.391 . S
C544 C546 1.394 . S
C544 H560 0.931 . S
C545 C544 1.391 . S
C545 C549 1.376 . S
C546 C544 1.394 . S
C546 C547 1.379 . S
C546 C550 1.531 . S
C547 C546 1.379 . S
C547 C548 1.405 1_556 S
C547 C555 1.499 1_546 S
C548 C547 1.405 1_554 S
C548 C549 1.392 1_554 S
C548 C551 1.511 . S
C549 C545 1.376 . S
C549 C548 1.392 1_556 S
C549 H561 0.929 1_556 S
C550 C546 1.531 . S
C550 H562 0.960 1_545 S
C550 H563 0.962 1_545 S
C550 H564 0.960 . S
C551 C548 1.511 . S
C551 H565 0.961 . S
C551 H566 0.961 . S
C551 H567 0.961 . S
C552 C553 1.370 . S
C552 C554 1.363 1_554 S
C552 H568 0.931 1_554 S
C553 C552 1.370 . S
C553 C557 1.408 . S
C554 C552 1.363 1_556 S
C554 C555 1.370 1_556 S
C554 C558 1.524 . S
C555 C547 1.499 1_564 S
C555 C554 1.370 1_554 S
C555 C556 1.403 . S
C556 C555 1.403 . S
C556 C557 1.404 . S
C556 C559 1.544 . S
C557 C553 1.408 . S
C557 C556 1.404 . S
C557 H569 0.930 . S
C558 C554 1.524 . S
C558 H570 0.956 . S
C558 H571 0.961 . S
C558 H572 0.961 . S
C559 C556 1.544 . S
C559 H573 0.957 1_565 S
C559 H574 0.963 . S
C559 H575 0.953 1_565 S
H560 C544 0.931 . S
H561 C549 0.929 1_554 S
H562 C550 0.960 1_565 S
H563 C550 0.962 1_565 S
H564 C550 0.960 . S
H565 C551 0.961 . S
H566 C551 0.961 . S
H567 C551 0.961 . S
H568 C552 0.931 1_556 S
H569 C557 0.930 . S
H570 C558 0.956 . S
H571 C558 0.961 . S
H572 C558 0.961 . S
H573 C559 0.957 1_545 S
H574 C559 0.963 . S
H575 C559 0.953 1_545 S
C576 C577 1.391 . S
C576 C578 1.394 . S
C576 H592 0.931 . S
C577 C576 1.391 . S
C577 C581 1.376 . S
C578 C576 1.394 . S
C578 C579 1.369 . S
C578 C582 1.531 . S
C579 C578 1.369 . S
C579 C580 1.410 . S
C579 C587 1.503 . S
C580 C579 1.410 . S
C580 C581 1.392 . S
C580 C583 1.511 . S
C581 C577 1.376 . S
C581 C580 1.392 . S
C581 H593 0.929 . S
C582 C578 1.531 . S
C582 H594 0.960 . S
C582 H595 0.962 . S
C582 H596 0.960 . S
C583 C580 1.511 . S
C583 H597 0.961 . S
C583 H598 0.961 . S
C583 H599 0.961 . S
C584 C585 1.370 . S
C584 C586 1.363 . S
C584 H600 0.931 . S
C585 C584 1.370 . S
C585 C589 1.408 . S
C586 C584 1.363 . S
C586 C587 1.370 . S
C586 C590 1.524 . S
C587 C579 1.503 . S
C587 C586 1.370 . S
C587 C588 1.403 . S
C588 C587 1.403 . S
C588 C589 1.404 . S
C588 C591 1.539 . S
C589 C585 1.408 . S
C589 C588 1.404 . S
C589 H601 0.930 . S
C590 C586 1.524 . S
C590 H602 0.956 . S
C590 H603 0.961 . S
C590 H604 0.961 . S
C591 C588 1.539 . S
C591 H605 0.958 . S
C591 H606 0.961 . S
C591 H607 0.960 . S
H592 C576 0.931 . S
H593 C581 0.929 . S
H594 C582 0.960 . S
H595 C582 0.962 . S
H596 C582 0.960 . S
H597 C583 0.961 . S
H598 C583 0.961 . S
H599 C583 0.961 . S
H600 C584 0.931 . S
H601 C589 0.930 . S
H602 C590 0.956 . S
H603 C590 0.961 . S
H604 C590 0.961 . S
H605 C591 0.958 . S
H606 C591 0.961 . S
H607 C591 0.960 . S
C608 C609 1.391 . S
C608 C610 1.394 . S
C608 H624 0.931 . S
C609 C608 1.391 . S
C609 C613 1.376 . S
C610 C608 1.394 . S
C610 C611 1.369 . S
C610 C614 1.531 . S
C611 C610 1.369 . S
C611 C612 1.410 . S
C611 C619 1.503 1_565 S
C612 C611 1.410 . S
C612 C613 1.392 . S
C612 C615 1.511 . S
C613 C609 1.376 . S
C613 C612 1.392 . S
C613 H625 0.929 . S
C614 C610 1.531 . S
C614 H626 0.960 . S
C614 H627 0.962 . S
C614 H628 0.960 . S
C615 C612 1.511 . S
C615 H629 0.961 . S
C615 H630 0.961 1_565 S
C615 H631 0.961 . S
C616 C617 1.370 . S
C616 C618 1.363 . S
C616 H632 0.931 . S
C617 C616 1.370 . S
C617 C621 1.408 . S
C618 C616 1.363 . S
C618 C619 1.370 . S
C618 C622 1.524 . S
C619 C611 1.503 1_545 S
C619 C618 1.370 . S
C619 C620 1.403 . S
C620 C619 1.403 . S
C620 C621 1.404 . S
C620 C623 1.495 1_545 S
C621 C617 1.408 . S
C621 C620 1.404 . S
C621 H633 0.930 . S
C622 C618 1.524 . S
C622 H634 0.956 . S
C622 H635 0.961 . S
C622 H636 0.961 . S
C623 C620 1.495 1_565 S
C623 H637 0.982 . S
C623 H638 0.936 1_565 S
C623 H639 1.010 . S
H624 C608 0.931 . S
H625 C613 0.929 . S
H626 C614 0.960 . S
H627 C614 0.962 . S
H628 C614 0.960 . S
H629 C615 0.961 . S
H630 C615 0.961 1_545 S
H631 C615 0.961 . S
H632 C616 0.931 . S
H633 C621 0.930 . S
H634 C622 0.956 . S
H635 C622 0.961 . S
H636 C622 0.961 . S
H637 C623 0.982 . S
H638 C623 0.936 1_545 S
H639 C623 1.010 . S
C640 C641 1.391 . S
C640 C642 1.394 . S
C640 H656 0.931 . S
C641 C640 1.391 . S
C641 C645 1.376 . S
C642 C640 1.394 . S
C642 C643 1.369 . S
C642 C646 1.531 . S
C643 C642 1.369 . S
C643 C644 1.410 . S
C643 C651 1.503 . S
C644 C643 1.410 . S
C644 C645 1.392 . S
C644 C647 1.511 . S
C645 C641 1.376 . S
C645 C644 1.392 . S
C645 H657 0.929 . S
C646 C642 1.531 . S
C646 H658 0.960 . S
C646 H659 0.962 . S
C646 H660 0.960 . S
C647 C644 1.511 . S
C647 H661 0.961 . S
C647 H662 0.961 . S
C647 H663 0.961 . S
C648 C649 1.370 . S
C648 C650 1.363 . S
C648 H664 0.931 . S
C649 C648 1.370 . S
C649 C653 1.408 . S
C650 C648 1.363 . S
C650 C651 1.370 . S
C650 C654 1.524 . S
C651 C643 1.503 . S
C651 C650 1.370 . S
C651 C652 1.403 . S
C652 C651 1.403 . S
C652 C653 1.404 . S
C652 C655 1.539 . S
C653 C649 1.408 . S
C653 C652 1.404 . S
C653 H665 0.930 . S
C654 C650 1.524 . S
C654 H666 0.956 . S
C654 H667 0.961 . S
C654 H668 0.961 . S
C655 C652 1.539 . S
C655 H669 0.958 . S
C655 H670 0.961 . S
C655 H671 0.960 . S
H656 C640 0.931 . S
H657 C645 0.929 . S
H658 C646 0.960 . S
H659 C646 0.962 . S
H660 C646 0.960 . S
H661 C647 0.961 . S
H662 C647 0.961 . S
H663 C647 0.961 . S
H664 C648 0.931 . S
H665 C653 0.930 . S
H666 C654 0.956 . S
H667 C654 0.961 . S
H668 C654 0.961 . S
H669 C655 0.958 . S
H670 C655 0.961 . S
H671 C655 0.960 . S
C672 C673 1.391 . S
C672 C674 1.394 . S
C672 H688 0.931 . S
C673 C672 1.391 . S
C673 C677 1.376 . S
C674 C672 1.394 . S
C674 C675 1.369 . S
C674 C678 1.531 . S
C675 C674 1.369 . S
C675 C676 1.410 . S
C675 C683 1.503 1_546 S
C676 C675 1.410 . S
C676 C677 1.392 . S
C676 C679 1.517 . S
C677 C673 1.376 . S
C677 C676 1.392 . S
C677 H689 0.929 . S
C678 C674 1.531 . S
C678 H690 0.960 1_545 S
C678 H691 0.962 . S
C678 H692 0.960 . S
C679 C676 1.517 . S
C679 H693 0.953 1_556 S
C679 H694 1.001 1_556 S
C679 H695 0.976 . S
C680 C681 1.370 . S
C680 C682 1.363 . S
C680 H696 0.931 . S
C681 C680 1.370 . S
C681 C685 1.408 1_554 S
C682 C680 1.363 . S
C682 C683 1.370 . S
C682 C686 1.524 1_565 S
C683 C675 1.503 1_564 S
C683 C682 1.370 . S
C683 C684 1.403 1_554 S
C684 C683 1.403 1_556 S
C684 C685 1.404 . S
C684 C687 1.539 . S
C685 C681 1.408 1_556 S
C685 C684 1.404 . S
C685 H697 0.930 . S
C686 C682 1.524 1_545 S
C686 H698 0.956 . S
C686 H699 0.961 . S
C686 H700 0.949 1_545 S
C687 C684 1.539 . S
C687 H701 0.958 . S
C687 H702 0.961 . S
C687 H703 0.960 . S
H688 C672 0.931 . S
H689 C677 0.929 . S
H690 C678 0.960 1_565 S
H691 C678 0.962 . S
H692 C678 0.960 . S
H693 C679 0.953 1_554 S
H694 C679 1.001 1_554 S
H695 C679 0.976 . S
H696 C680 0.931 . S
H697 C685 0.930 . S
H698 C686 0.956 . S
H699 C686 0.961 . S
H700 C686 0.949 1_565 S
H701 C687 0.958 . S
H702 C687 0.961 . S
H703 C687 0.960 . S
C704 C705 1.391 . S
C704 C706 1.394 . S
C704 H720 0.931 . S
C705 C704 1.391 . S
C705 C709 1.376 . S
C706 C704 1.394 . S
C706 C707 1.369 . S
C706 C710 1.531 . S
C707 C706 1.369 . S
C707 C708 1.410 . S
C707 C715 1.503 . S
C708 C707 1.410 . S
C708 C709 1.392 . S
C708 C711 1.511 . S
C709 C705 1.376 . S
C709 C708 1.392 . S
C709 H721 0.929 . S
C710 C706 1.531 . S
C710 H722 0.960 . S
C710 H723 0.962 . S
C710 H724 0.960 . S
C711 C708 1.511 . S
C711 H725 0.961 . S
C711 H726 0.961 . S
C711 H727 0.961 . S
C712 C713 1.370 . S
C712 C714 1.363 . S
C712 H728 0.931 . S
C713 C712 1.370 . S
C713 C717 1.408 . S
C714 C712 1.363 . S
C714 C715 1.370 . S
C714 C718 1.524 . S
C715 C707 1.503 . S
C715 C714 1.370 . S
C715 C716 1.403 . S
C716 C715 1.403 . S
C716 C717 1.404 . S
C716 C719 1.539 . S
C717 C713 1.408 . S
C717 C716 1.404 . S
C717 H729 0.930 . S
C718 C714 1.524 . S
C718 H730 0.956 . S
C718 H731 0.961 . S
C718 H732 0.961 . S
C719 C716 1.539 . S
C719 H733 0.958 . S
C719 H734 0.961 . S
C719 H735 0.960 . S
H720 C704 0.931 . S
H721 C709 0.929 . S
H722 C710 0.960 . S
H723 C710 0.962 . S
H724 C710 0.960 . S
H725 C711 0.961 . S
H726 C711 0.961 . S
H727 C711 0.961 . S
H728 C712 0.931 . S
H729 C717 0.930 . S
H730 C718 0.956 . S
H731 C718 0.961 . S
H732 C718 0.961 . S
H733 C719 0.958 . S
H734 C719 0.961 . S
H735 C719 0.960 . S
C736 C737 1.391 . S
C736 C738 1.394 . S
C736 H752 0.931 . S
C737 C736 1.391 . S
C737 C741 1.376 . S
C738 C736 1.394 . S
C738 C739 1.369 . S
C738 C742 1.531 . S
C739 C738 1.369 . S
C739 C740 1.410 1_556 S
C739 C747 1.503 1_556 S
C740 C739 1.410 1_554 S
C740 C741 1.392 1_554 S
C740 C743 1.511 . S
C741 C737 1.376 . S
C741 C740 1.392 1_556 S
C741 H753 0.929 1_556 S
C742 C738 1.531 . S
C742 H754 0.960 . S
C742 H755 0.962 . S
C742 H756 0.960 . S
C743 C740 1.511 . S
C743 H757 0.961 . S
C743 H758 0.961 . S
C743 H759 0.961 . S
C744 C745 1.370 . S
C744 C746 1.363 1_554 S
C744 H760 0.931 1_554 S
C745 C744 1.370 . S
C745 C749 1.408 . S
C746 C744 1.363 1_556 S
C746 C747 1.370 1_556 S
C746 C750 1.524 . S
C747 C739 1.503 1_554 S
C747 C746 1.370 1_554 S
C747 C748 1.403 . S
C748 C747 1.403 . S
C748 C749 1.404 . S
C748 C751 1.539 . S
C749 C745 1.408 . S
C749 C748 1.404 . S
C749 H761 0.930 . S
C750 C746 1.524 . S
C750 H762 0.956 . S
C750 H763 0.961 . S
C750 H764 0.961 . S
C751 C748 1.539 . S
C751 H765 0.958 . S
C751 H766 0.961 . S
C751 H767 0.960 . S
H752 C736 0.931 . S
H753 C741 0.929 1_554 S
H754 C742 0.960 . S
H755 C742 0.962 . S
H756 C742 0.960 . S
H757 C743 0.961 . S
H758 C743 0.961 . S
H759 C743 0.961 . S
H760 C744 0.931 1_556 S
H761 C749 0.930 . S
H762 C750 0.956 . S
H763 C750 0.961 . S
H764 C750 0.961 . S
H765 C751 0.958 . S
H766 C751 0.961 . S
H767 C751 0.960 . S
C768 C769 1.391 . S
C768 C770 1.394 . S
C768 H784 0.931 . S
C769 C768 1.391 . S
C769 C773 1.376 . S
C770 C768 1.394 . S
C770 C771 1.369 . S
C770 C774 1.531 . S
C771 C770 1.369 . S
C771 C772 1.410 . S
C771 C779 1.503 . S
C772 C771 1.410 . S
C772 C773 1.392 . S
C772 C775 1.511 . S
C773 C769 1.376 . S
C773 C772 1.392 . S
C773 H785 0.929 . S
C774 C770 1.531 . S
C774 H786 0.960 . S
C774 H787 0.962 . S
C774 H788 0.960 . S
C775 C772 1.511 . S
C775 H789 0.961 . S
C775 H790 0.961 . S
C775 H791 0.961 . S
C776 C777 1.370 . S
C776 C778 1.363 . S
C776 H792 0.931 . S
C777 C776 1.370 . S
C777 C781 1.408 . S
C778 C776 1.363 . S
C778 C779 1.370 . S
C778 C782 1.524 . S
C779 C771 1.503 . S
C779 C778 1.370 . S
C779 C780 1.403 . S
C780 C779 1.403 . S
C780 C781 1.404 . S
C780 C783 1.539 . S
C781 C777 1.408 . S
C781 C780 1.404 . S
C781 H793 0.930 . S
C782 C778 1.524 . S
C782 H794 0.956 . S
C782 H795 0.961 . S
C782 H796 0.961 . S
C783 C780 1.539 . S
C783 H797 0.958 . S
C783 H798 0.961 . S
C783 H799 0.960 . S
H784 C768 0.931 . S
H785 C773 0.929 . S
H786 C774 0.960 . S
H787 C774 0.962 . S
H788 C774 0.960 . S
H789 C775 0.961 . S
H790 C775 0.961 . S
H791 C775 0.961 . S
H792 C776 0.931 . S
H793 C781 0.930 . S
H794 C782 0.956 . S
H795 C782 0.961 . S
H796 C782 0.961 . S
H797 C783 0.958 . S
H798 C783 0.961 . S
H799 C783 0.960 . S
C800 C801 1.391 . S
C800 C802 1.394 . S
C800 H816 0.931 . S
C801 C800 1.391 . S
C801 C805 1.376 . S
C802 C800 1.394 . S
C802 C803 1.369 . S
C802 C806 1.531 . S
C803 C802 1.369 . S
C803 C804 1.410 . S
C803 C811 1.503 . S
C804 C803 1.410 . S
C804 C805 1.392 . S
C804 C807 1.511 . S
C805 C801 1.376 . S
C805 C804 1.392 . S
C805 H817 0.929 . S
C806 C802 1.531 . S
C806 H818 0.960 . S
C806 H819 0.962 . S
C806 H820 0.960 . S
C807 C804 1.511 . S
C807 H821 0.961 . S
C807 H822 0.961 . S
C807 H823 0.961 . S
C808 C809 1.370 . S
C808 C810 1.363 . S
C808 H824 0.931 . S
C809 C808 1.370 . S
C809 C813 1.408 . S
C810 C808 1.363 . S
C810 C811 1.370 . S
C810 C814 1.524 . S
C811 C803 1.503 . S
C811 C810 1.370 . S
C811 C812 1.403 . S
C812 C811 1.403 . S
C812 C813 1.404 . S
C812 C815 1.539 . S
C813 C809 1.408 . S
C813 C812 1.404 . S
C813 H825 0.930 . S
C814 C810 1.524 . S
C814 H826 0.956 . S
C814 H827 0.961 . S
C814 H828 0.961 . S
C815 C812 1.539 . S
C815 H829 0.958 . S
C815 H830 0.961 . S
C815 H831 0.960 . S
H816 C800 0.931 . S
H817 C805 0.929 . S
H818 C806 0.960 . S
H819 C806 0.962 . S
H820 C806 0.960 . S
H821 C807 0.961 . S
H822 C807 0.961 . S
H823 C807 0.961 . S
H824 C808 0.931 . S
H825 C813 0.930 . S
H826 C814 0.956 . S
H827 C814 0.961 . S
H828 C814 0.961 . S
H829 C815 0.958 . S
H830 C815 0.961 . S
H831 C815 0.960 . S
C832 C833 1.391 . S
C832 C834 1.394 . S
C832 H848 0.931 . S
C833 C832 1.391 . S
C833 C837 1.376 . S
C834 C832 1.394 . S
C834 C835 1.369 . S
C834 C838 1.531 . S
C835 C834 1.369 . S
C835 C836 1.410 . S
C835 C843 1.503 . S
C836 C835 1.410 . S
C836 C837 1.392 . S
C836 C839 1.511 . S
C837 C833 1.376 . S
C837 C836 1.392 . S
C837 H849 0.929 . S
C838 C834 1.531 . S
C838 H850 0.960 . S
C838 H851 0.962 . S
C838 H852 0.960 . S
C839 C836 1.511 . S
C839 H853 0.961 . S
C839 H854 0.961 . S
C839 H855 0.961 . S
C840 C841 1.370 . S
C840 C842 1.363 . S
C840 H856 0.931 . S
C841 C840 1.370 . S
C841 C845 1.408 . S
C842 C840 1.363 . S
C842 C843 1.370 . S
C842 C846 1.524 . S
C843 C835 1.503 . S
C843 C842 1.370 . S
C843 C844 1.403 . S
C844 C843 1.403 . S
C844 C845 1.404 . S
C844 C847 1.539 . S
C845 C841 1.408 . S
C845 C844 1.404 . S
C845 H857 0.930 . S
C846 C842 1.524 . S
C846 H858 0.956 . S
C846 H859 0.961 . S
C846 H860 0.961 . S
C847 C844 1.539 . S
C847 H861 0.958 . S
C847 H862 0.961 . S
C847 H863 0.960 . S
H848 C832 0.931 . S
H849 C837 0.929 . S
H850 C838 0.960 . S
H851 C838 0.962 . S
H852 C838 0.960 . S
H853 C839 0.961 . S
H854 C839 0.961 . S
H855 C839 0.961 . S
H856 C840 0.931 . S
H857 C845 0.930 . S
H858 C846 0.956 . S
H859 C846 0.961 . S
H860 C846 0.961 . S
H861 C847 0.958 . S
H862 C847 0.961 . S
H863 C847 0.960 . S
C864 C865 1.391 . S
C864 C866 1.394 . S
C864 H880 0.931 . S
C865 C864 1.391 . S
C865 C869 1.376 . S
C866 C864 1.394 . S
C866 C867 1.369 . S
C866 C870 1.531 . S
C867 C866 1.369 . S
C867 C868 1.410 . S
C867 C875 1.503 1_554 S
C868 C867 1.410 . S
C868 C869 1.392 . S
C868 C871 1.511 . S
C869 C865 1.376 . S
C869 C868 1.392 . S
C869 H881 0.929 . S
C870 C866 1.531 . S
C870 H882 0.960 . S
C870 H883 0.962 . S
C870 H884 0.960 . S
C871 C868 1.511 . S
C871 H885 0.961 1_554 S
C871 H886 0.961 1_554 S
C871 H887 0.961 . S
C872 C873 1.370 . S
C872 C874 1.363 . S
C872 H888 0.931 . S
C873 C872 1.370 . S
C873 C877 1.408 1_556 S
C874 C872 1.363 . S
C874 C875 1.370 . S
C874 C878 1.524 . S
C875 C867 1.503 1_556 S
C875 C874 1.370 . S
C875 C876 1.403 1_556 S
C876 C875 1.403 1_554 S
C876 C877 1.404 . S
C876 C879 1.539 . S
C877 C873 1.408 1_554 S
C877 C876 1.404 . S
C877 H889 0.930 . S
C878 C874 1.524 . S
C878 H890 0.956 . S
C878 H891 0.961 . S
C878 H892 0.961 . S
C879 C876 1.539 . S
C879 H893 0.958 . S
C879 H894 0.961 . S
C879 H895 0.960 . S
H880 C864 0.931 . S
H881 C869 0.929 . S
H882 C870 0.960 . S
H883 C870 0.962 . S
H884 C870 0.960 . S
H885 C871 0.961 1_556 S
H886 C871 0.961 1_556 S
H887 C871 0.961 . S
H888 C872 0.931 . S
H889 C877 0.930 . S
H890 C878 0.956 . S
H891 C878 0.961 . S
H892 C878 0.961 . S
H893 C879 0.958 . S
H894 C879 0.961 . S
H895 C879 0.960 . S
C896 C897 1.391 . S
C896 C898 1.394 . S
C896 H912 0.931 . S
C897 C896 1.391 . S
C897 C901 1.376 . S
C898 C896 1.394 . S
C898 C899 1.369 . S
C898 C902 1.531 . S
C899 C898 1.369 . S
C899 C900 1.410 . S
C899 C907 1.503 . S
C900 C899 1.410 . S
C900 C901 1.392 . S
C900 C903 1.511 . S
C901 C897 1.376 . S
C901 C900 1.392 . S
C901 H913 0.929 . S
C902 C898 1.531 . S
C902 H914 0.960 . S
C902 H915 0.962 . S
C902 H916 0.960 . S
C903 C900 1.511 . S
C903 H917 0.961 . S
C903 H918 0.961 . S
C903 H919 0.961 . S
C904 C905 1.370 . S
C904 C906 1.363 . S
C904 H920 0.931 . S
C905 C904 1.370 . S
C905 C909 1.408 . S
C906 C904 1.363 . S
C906 C907 1.370 . S
C906 C910 1.524 . S
C907 C899 1.503 . S
C907 C906 1.370 . S
C907 C908 1.403 . S
C908 C907 1.403 . S
C908 C909 1.404 . S
C908 C911 1.539 . S
C909 C905 1.408 . S
C909 C908 1.404 . S
C909 H921 0.930 . S
C910 C906 1.524 . S
C910 H922 0.956 . S
C910 H923 0.961 . S
C910 H924 0.961 . S
C911 C908 1.539 . S
C911 H925 0.958 . S
C911 H926 0.961 . S
C911 H927 0.960 . S
H912 C896 0.931 . S
H913 C901 0.929 . S
H914 C902 0.960 . S
H915 C902 0.962 . S
H916 C902 0.960 . S
H917 C903 0.961 . S
H918 C903 0.961 . S
H919 C903 0.961 . S
H920 C904 0.931 . S
H921 C909 0.930 . S
H922 C910 0.956 . S
H923 C910 0.961 . S
H924 C910 0.961 . S
H925 C911 0.958 . S
H926 C911 0.961 . S
H927 C911 0.960 . S
C928 C929 1.391 . S
C928 C930 1.394 . S
C928 H944 0.931 . S
C929 C928 1.391 . S
C929 C933 1.376 . S
C930 C928 1.394 . S
C930 C931 1.369 . S
C930 C934 1.531 . S
C931 C930 1.369 . S
C931 C932 1.410 . S
C931 C939 1.503 . S
C932 C931 1.410 . S
C932 C933 1.392 . S
C932 C935 1.511 . S
C933 C929 1.376 . S
C933 C932 1.392 . S
C933 H945 0.929 . S
C934 C930 1.531 . S
C934 H946 0.960 . S
C934 H947 0.962 . S
C934 H948 0.960 . S
C935 C932 1.511 . S
C935 H949 0.961 . S
C935 H950 0.961 . S
C935 H951 0.961 . S
C936 C937 1.370 . S
C936 C938 1.363 . S
C936 H952 0.931 . S
C937 C936 1.370 . S
C937 C941 1.408 . S
C938 C936 1.363 . S
C938 C939 1.370 . S
C938 C942 1.524 . S
C939 C931 1.503 . S
C939 C938 1.370 . S
C939 C940 1.403 . S
C940 C939 1.403 . S
C940 C941 1.404 . S
C940 C943 1.539 . S
C941 C937 1.408 . S
C941 C940 1.404 . S
C941 H953 0.930 . S
C942 C938 1.524 . S
C942 H954 0.956 . S
C942 H955 0.961 . S
C942 H956 0.961 . S
C943 C940 1.539 . S
C943 H957 0.958 . S
C943 H958 0.961 . S
C943 H959 0.960 . S
H944 C928 0.931 . S
H945 C933 0.929 . S
H946 C934 0.960 . S
H947 C934 0.962 . S
H948 C934 0.960 . S
H949 C935 0.961 . S
H950 C935 0.961 . S
H951 C935 0.961 . S
H952 C936 0.931 . S
H953 C941 0.930 . S
H954 C942 0.956 . S
H955 C942 0.961 . S
H956 C942 0.961 . S
H957 C943 0.958 . S
H958 C943 0.961 . S
H959 C943 0.960 . S
C960 C961 1.391 . S
C960 C962 1.394 . S
C960 H976 0.931 1_556 S
C961 C960 1.391 . S
C961 C965 1.376 . S
C962 C960 1.394 . S
C962 C963 1.369 . S
C962 C966 1.531 . S
C963 C962 1.369 . S
C963 C964 1.410 . S
C963 C971 1.503 . S
C964 C963 1.410 . S
C964 C965 1.392 . S
C964 C967 1.511 . S
C965 C961 1.376 . S
C965 C964 1.392 . S
C965 H977 0.929 . S
C966 C962 1.531 . S
C966 H978 0.960 . S
C966 H979 0.962 . S
C966 H980 0.960 . S
C967 C964 1.511 . S
C967 H981 0.961 . S
C967 H982 0.961 . S
C967 H983 0.961 . S
C968 C969 1.370 . S
C968 C970 1.363 . S
C968 H984 0.931 . S
C969 C968 1.370 . S
C969 C973 1.408 . S
C970 C968 1.363 . S
C970 C971 1.370 . S
C970 C974 1.524 . S
C971 C963 1.503 . S
C971 C970 1.370 . S
C971 C972 1.403 . S
C972 C971 1.403 . S
C972 C973 1.404 . S
C972 C975 1.539 . S
C973 C969 1.408 . S
C973 C972 1.404 . S
C973 H985 0.930 . S
C974 C970 1.524 . S
C974 H986 0.956 . S
C974 H987 0.961 . S
C974 H988 0.961 . S
C975 C972 1.539 . S
C975 H989 0.958 . S
C975 H990 0.961 . S
C975 H991 0.960 . S
H976 C960 0.931 1_554 S
H977 C965 0.929 . S
H978 C966 0.960 . S
H979 C966 0.962 . S
H980 C966 0.960 . S
H981 C967 0.961 . S
H982 C967 0.961 . S
H983 C967 0.961 . S
H984 C968 0.931 . S
H985 C973 0.930 . S
H986 C974 0.956 . S
H987 C974 0.961 . S
H988 C974 0.961 . S
H989 C975 0.958 . S
H990 C975 0.961 . S
H991 C975 0.960 . S
C992 C993 1.391 . S
C992 C994 1.394 . S
C992 H1008 0.931 . S
C993 C992 1.391 . S
C993 C997 1.376 . S
C994 C992 1.394 . S
C994 C995 1.369 . S
C994 C998 1.531 . S
C995 C994 1.369 . S
C995 C996 1.410 . S
C995 C1003 1.503 . S
C996 C995 1.410 . S
C996 C997 1.392 . S
C996 C999 1.511 . S
C997 C993 1.376 . S
C997 C996 1.392 . S
C997 H1009 0.929 . S
C998 C994 1.531 . S
C998 H1010 0.960 . S
C998 H1011 0.962 . S
C998 H1012 0.960 . S
C999 C996 1.511 . S
C999 H1013 0.961 . S
C999 H1014 0.961 . S
C999 H1015 0.961 . S
C1000 C1001 1.370 . S
C1000 C1002 1.363 . S
C1000 H1016 0.931 . S
C1001 C1000 1.370 . S
C1001 C1005 1.408 . S
C1002 C1000 1.363 . S
C1002 C1003 1.370 . S
C1002 C1006 1.524 . S
C1003 C995 1.503 . S
C1003 C1002 1.370 . S
C1003 C1004 1.403 . S
C1004 C1003 1.403 . S
C1004 C1005 1.404 . S
C1004 C1007 1.539 . S
C1005 C1001 1.408 . S
C1005 C1004 1.404 . S
C1005 H1017 0.930 . S
C1006 C1002 1.524 . S
C1006 H1018 0.956 . S
C1006 H1019 0.961 . S
C1006 H1020 0.961 . S
C1007 C1004 1.539 . S
C1007 H1021 0.958 . S
C1007 H1022 0.961 . S
C1007 H1023 0.960 . S
H1008 C992 0.931 . S
H1009 C997 0.929 . S
H1010 C998 0.960 . S
H1011 C998 0.962 . S
H1012 C998 0.960 . S
H1013 C999 0.961 . S
H1014 C999 0.961 . S
H1015 C999 0.961 . S
H1016 C1000 0.931 . S
H1017 C1005 0.930 . S
H1018 C1006 0.956 . S
H1019 C1006 0.961 . S
H1020 C1006 0.961 . S
H1021 C1007 0.958 . S
H1022 C1007 0.961 . S
H1023 C1007 0.960 . S
C1024 C1025 1.391 . S
C1024 C1026 1.394 . S
C1024 H1040 0.931 . S
C1025 C1024 1.391 . S
C1025 C1029 1.376 . S
C1026 C1024 1.394 . S
C1026 C1027 1.369 . S
C1026 C1030 1.531 . S
C1027 C1026 1.369 . S
C1027 C1028 1.410 . S
C1027 C1035 1.503 . S
C1028 C1027 1.410 . S
C1028 C1029 1.392 . S
C1028 C1031 1.511 . S
C1029 C1025 1.376 . S
C1029 C1028 1.392 . S
C1029 H1041 0.929 . S
C1030 C1026 1.531 . S
C1030 H1042 0.960 . S
C1030 H1043 0.962 . S
C1030 H1044 0.960 . S
C1031 C1028 1.511 . S
C1031 H1045 0.961 . S
C1031 H1046 0.961 . S
C1031 H1047 0.961 . S
C1032 C1033 1.370 . S
C1032 C1034 1.363 . S
C1032 H1048 0.931 . S
C1033 C1032 1.370 . S
C1033 C1037 1.408 . S
C1034 C1032 1.363 . S
C1034 C1035 1.370 . S
C1034 C1038 1.524 . S
C1035 C1027 1.503 . S
C1035 C1034 1.370 . S
C1035 C1036 1.403 . S
C1036 C1035 1.403 . S
C1036 C1037 1.404 . S
C1036 C1039 1.539 . S
C1037 C1033 1.408 . S
C1037 C1036 1.404 . S
C1037 H1049 0.930 . S
C1038 C1034 1.524 . S
C1038 H1050 0.956 . S
C1038 H1051 0.961 . S
C1038 H1052 0.961 . S
C1039 C1036 1.539 . S
C1039 H1053 0.958 . S
C1039 H1054 0.961 . S
C1039 H1055 0.960 . S
H1040 C1024 0.931 . S
H1041 C1029 0.929 . S
H1042 C1030 0.960 . S
H1043 C1030 0.962 . S
H1044 C1030 0.960 . S
H1045 C1031 0.961 . S
H1046 C1031 0.961 . S
H1047 C1031 0.961 . S
H1048 C1032 0.931 . S
H1049 C1037 0.930 . S
H1050 C1038 0.956 . S
H1051 C1038 0.961 . S
H1052 C1038 0.961 . S
H1053 C1039 0.958 . S
H1054 C1039 0.961 . S
H1055 C1039 0.960 . S
C1056 C1057 1.391 . S
C1056 C1058 1.394 . S
C1056 H1072 0.931 . S
C1057 C1056 1.391 . S
C1057 C1061 1.376 . S
C1058 C1056 1.394 . S
C1058 C1059 1.369 . S
C1058 C1062 1.531 . S
C1059 C1058 1.369 . S
C1059 C1060 1.410 . S
C1059 C1067 1.503 . S
C1060 C1059 1.410 . S
C1060 C1061 1.392 . S
C1060 C1063 1.511 . S
C1061 C1057 1.376 . S
C1061 C1060 1.392 . S
C1061 H1073 0.929 . S
C1062 C1058 1.531 . S
C1062 H1074 0.960 . S
C1062 H1075 0.962 . S
C1062 H1076 0.960 . S
C1063 C1060 1.511 . S
C1063 H1077 0.961 . S
C1063 H1078 0.961 . S
C1063 H1079 0.961 . S
C1064 C1065 1.370 . S
C1064 C1066 1.363 . S
C1064 H1080 0.931 . S
C1065 C1064 1.370 . S
C1065 C1069 1.408 . S
C1066 C1064 1.363 . S
C1066 C1067 1.370 . S
C1066 C1070 1.524 . S
C1067 C1059 1.503 . S
C1067 C1066 1.370 . S
C1067 C1068 1.403 . S
C1068 C1067 1.403 . S
C1068 C1069 1.404 . S
C1068 C1071 1.539 . S
C1069 C1065 1.408 . S
C1069 C1068 1.404 . S
C1069 H1081 0.930 . S
C1070 C1066 1.524 . S
C1070 H1082 0.956 . S
C1070 H1083 0.961 . S
C1070 H1084 0.961 . S
C1071 C1068 1.539 . S
C1071 H1085 0.958 . S
C1071 H1086 0.961 . S
C1071 H1087 0.960 . S
H1072 C1056 0.931 . S
H1073 C1061 0.929 . S
H1074 C1062 0.960 . S
H1075 C1062 0.962 . S
H1076 C1062 0.960 . S
H1077 C1063 0.961 . S
H1078 C1063 0.961 . S
H1079 C1063 0.961 . S
H1080 C1064 0.931 . S
H1081 C1069 0.930 . S
H1082 C1070 0.956 . S
H1083 C1070 0.961 . S
H1084 C1070 0.961 . S
H1085 C1071 0.958 . S
H1086 C1071 0.961 . S
H1087 C1071 0.960 . S
C1088 C1089 1.392 . S
C1088 C1090 1.394 1_556 S
C1088 H1104 0.931 . S
C1089 C1088 1.392 . S
C1089 C1093 1.358 1_556 S
C1090 C1088 1.394 1_554 S
C1090 C1091 1.369 . S
C1090 C1094 1.531 . S
C1091 C1090 1.369 . S
C1091 C1092 1.410 . S
C1091 C1099 1.503 . S
C1092 C1091 1.410 . S
C1092 C1093 1.392 . S
C1092 C1095 1.511 . S
C1093 C1089 1.358 1_554 S
C1093 C1092 1.392 . S
C1093 H1105 0.929 . S
C1094 C1090 1.531 . S
C1094 H1106 0.960 . S
C1094 H1107 0.962 . S
C1094 H1108 0.960 . S
C1095 C1092 1.511 . S
C1095 H1109 0.961 . S
C1095 H1110 0.961 . S
C1095 H1111 0.961 . S
C1096 C1097 1.370 . S
C1096 C1098 1.363 . S
C1096 H1112 0.931 . S
C1097 C1096 1.370 . S
C1097 C1101 1.408 . S
C1098 C1096 1.363 . S
C1098 C1099 1.370 . S
C1098 C1102 1.524 . S
C1099 C1091 1.503 . S
C1099 C1098 1.370 . S
C1099 C1100 1.403 . S
C1100 C1099 1.403 . S
C1100 C1101 1.404 . S
C1100 C1103 1.539 . S
C1101 C1097 1.408 . S
C1101 C1100 1.404 . S
C1101 H1113 0.930 . S
C1102 C1098 1.524 . S
C1102 H1114 0.956 . S
C1102 H1115 0.961 . S
C1102 H1116 0.961 . S
C1103 C1100 1.539 . S
C1103 H1117 0.958 . S
C1103 H1118 0.961 . S
C1103 H1119 0.960 . S
H1104 C1088 0.931 . S
H1105 C1093 0.929 . S
H1106 C1094 0.960 . S
H1107 C1094 0.962 . S
H1108 C1094 0.960 . S
H1109 C1095 0.961 . S
H1110 C1095 0.961 . S
H1111 C1095 0.961 . S
H1112 C1096 0.931 . S
H1113 C1101 0.930 . S
H1114 C1102 0.956 . S
H1115 C1102 0.961 . S
H1116 C1102 0.961 . S
H1117 C1103 0.958 . S
H1118 C1103 0.961 . S
H1119 C1103 0.960 . S
C1120 C1121 1.401 . S
C1120 C1122 1.394 . S
C1120 H1136 0.931 . S
C1121 C1120 1.401 . S
C1121 C1125 1.376 . S
C1122 C1120 1.394 . S
C1122 C1123 1.369 . S
C1122 C1126 1.531 . S
C1123 C1122 1.369 . S
C1123 C1124 1.410 . S
C1123 C1131 1.503 . S
C1124 C1123 1.410 . S
C1124 C1125 1.392 . S
C1124 C1127 1.511 . S
C1125 C1121 1.376 . S
C1125 C1124 1.392 . S
C1125 H1137 0.929 1_556 S
C1126 C1122 1.531 . S
C1126 H1138 0.960 . S
C1126 H1139 0.962 . S
C1126 H1140 0.960 . S
C1127 C1124 1.511 . S
C1127 H1141 0.961 . S
C1127 H1142 0.961 . S
C1127 H1143 0.961 . S
C1128 C1129 1.370 . S
C1128 C1130 1.363 . S
C1128 H1144 0.931 . S
C1129 C1128 1.370 . S
C1129 C1133 1.408 . S
C1130 C1128 1.363 . S
C1130 C1131 1.370 . S
C1130 C1134 1.524 . S
C1131 C1123 1.503 . S
C1131 C1130 1.370 . S
C1131 C1132 1.403 . S
C1132 C1131 1.403 . S
C1132 C1133 1.404 . S
C1132 C1135 1.539 . S
C1133 C1129 1.408 . S
C1133 C1132 1.404 . S
C1133 H1145 0.930 . S
C1134 C1130 1.524 . S
C1134 H1146 0.956 . S
C1134 H1147 0.961 . S
C1134 H1148 0.961 . S
C1135 C1132 1.539 . S
C1135 H1149 0.958 . S
C1135 H1150 0.961 . S
C1135 H1151 0.960 . S
H1136 C1120 0.931 . S
H1137 C1125 0.929 1_554 S
H1138 C1126 0.960 . S
H1139 C1126 0.962 . S
H1140 C1126 0.960 . S
H1141 C1127 0.961 . S
H1142 C1127 0.961 . S
H1143 C1127 0.961 . S
H1144 C1128 0.931 . S
H1145 C1133 0.930 . S
H1146 C1134 0.956 . S
H1147 C1134 0.961 . S
H1148 C1134 0.961 . S
H1149 C1135 0.958 . S
H1150 C1135 0.961 . S
H1151 C1135 0.960 . S
C1152 C1153 1.391 . S
C1152 C1154 1.394 . S
C1152 H1168 0.931 . S
C1153 C1152 1.391 . S
C1153 C1157 1.376 . S
C1154 C1152 1.394 . S
C1154 C1155 1.369 . S
C1154 C1158 1.531 . S
C1155 C1154 1.369 . S
C1155 C1156 1.410 . S
C1155 C1163 1.503 . S
C1156 C1155 1.410 . S
C1156 C1157 1.392 . S
C1156 C1159 1.511 . S
C1157 C1153 1.376 . S
C1157 C1156 1.392 . S
C1157 H1169 0.929 . S
C1158 C1154 1.531 . S
C1158 H1170 0.960 . S
C1158 H1171 0.962 . S
C1158 H1172 0.960 . S
C1159 C1156 1.511 . S
C1159 H1173 0.961 . S
C1159 H1174 0.961 . S
C1159 H1175 0.961 . S
C1160 C1161 1.370 . S
C1160 C1162 1.363 . S
C1160 H1176 0.931 . S
C1161 C1160 1.370 . S
C1161 C1165 1.408 . S
C1162 C1160 1.363 . S
C1162 C1163 1.370 . S
C1162 C1166 1.524 . S
C1163 C1155 1.503 . S
C1163 C1162 1.370 . S
C1163 C1164 1.403 . S
C1164 C1163 1.403 . S
C1164 C1165 1.404 . S
C1164 C1167 1.539 . S
C1165 C1161 1.408 . S
C1165 C1164 1.404 . S
C1165 H1177 0.930 . S
C1166 C1162 1.524 . S
C1166 H1178 0.956 . S
C1166 H1179 0.961 . S
C1166 H1180 0.961 . S
C1167 C1164 1.539 . S
C1167 H1181 0.958 . S
C1167 H1182 0.961 . S
C1167 H1183 0.960 . S
H1168 C1152 0.931 . S
H1169 C1157 0.929 . S
H1170 C1158 0.960 . S
H1171 C1158 0.962 . S
H1172 C1158 0.960 . S
H1173 C1159 0.961 . S
H1174 C1159 0.961 . S
H1175 C1159 0.961 . S
H1176 C1160 0.931 . S
H1177 C1165 0.930 . S
H1178 C1166 0.956 . S
H1179 C1166 0.961 . S
H1180 C1166 0.961 . S
H1181 C1167 0.958 . S
H1182 C1167 0.961 . S
H1183 C1167 0.960 . S
C1184 C1185 1.391 . S
C1184 C1186 1.394 . S
C1184 H1200 0.931 . S
C1185 C1184 1.391 . S
C1185 C1189 1.376 . S
C1186 C1184 1.394 . S
C1186 C1187 1.369 . S
C1186 C1190 1.531 . S
C1187 C1186 1.369 . S
C1187 C1188 1.410 . S
C1187 C1195 1.503 . S
C1188 C1187 1.410 . S
C1188 C1189 1.392 . S
C1188 C1191 1.511 . S
C1189 C1185 1.376 . S
C1189 C1188 1.392 . S
C1189 H1201 0.929 . S
C1190 C1186 1.531 . S
C1190 H1202 0.960 . S
C1190 H1203 0.962 . S
C1190 H1204 0.960 . S
C1191 C1188 1.511 . S
C1191 H1205 0.961 . S
C1191 H1206 0.961 . S
C1191 H1207 0.961 . S
C1192 C1193 1.370 . S
C1192 C1194 1.363 . S
C1192 H1208 0.931 . S
C1193 C1192 1.370 . S
C1193 C1197 1.408 . S
C1194 C1192 1.363 . S
C1194 C1195 1.370 . S
C1194 C1198 1.524 . S
C1195 C1187 1.503 . S
C1195 C1194 1.370 . S
C1195 C1196 1.403 . S
C1196 C1195 1.403 . S
C1196 C1197 1.404 . S
C1196 C1199 1.539 . S
C1197 C1193 1.408 . S
C1197 C1196 1.404 . S
C1197 H1209 0.930 . S
C1198 C1194 1.524 . S
C1198 H1210 0.956 . S
C1198 H1211 0.961 . S
C1198 H1212 0.961 . S
C1199 C1196 1.539 . S
C1199 H1213 0.958 . S
C1199 H1214 0.961 . S
C1199 H1215 0.960 . S
H1200 C1184 0.931 . S
H1201 C1189 0.929 . S
H1202 C1190 0.960 . S
H1203 C1190 0.962 . S
H1204 C1190 0.960 . S
H1205 C1191 0.961 . S
H1206 C1191 0.961 . S
H1207 C1191 0.961 . S
H1208 C1192 0.931 . S
H1209 C1197 0.930 . S
H1210 C1198 0.956 . S
H1211 C1198 0.961 . S
H1212 C1198 0.961 . S
H1213 C1199 0.958 . S
H1214 C1199 0.961 . S
H1215 C1199 0.960 . S
C1216 C1217 1.391 . S
C1216 C1218 1.394 . S
C1216 H1232 0.931 . S
C1217 C1216 1.391 . S
C1217 C1221 1.376 . S
C1218 C1216 1.394 . S
C1218 C1219 1.369 . S
C1218 C1222 1.531 . S
C1219 C1218 1.369 . S
C1219 C1220 1.410 . S
C1219 C1227 1.503 . S
C1220 C1219 1.410 . S
C1220 C1221 1.392 . S
C1220 C1223 1.511 . S
C1221 C1217 1.376 . S
C1221 C1220 1.392 . S
C1221 H1233 0.929 . S
C1222 C1218 1.531 . S
C1222 H1234 0.960 . S
C1222 H1235 0.962 . S
C1222 H1236 0.960 . S
C1223 C1220 1.511 . S
C1223 H1237 0.961 . S
C1223 H1238 0.961 . S
C1223 H1239 0.961 . S
C1224 C1225 1.370 . S
C1224 C1226 1.363 . S
C1224 H1240 0.931 . S
C1225 C1224 1.370 . S
C1225 C1229 1.408 . S
C1226 C1224 1.363 . S
C1226 C1227 1.370 . S
C1226 C1230 1.524 . S
C1227 C1219 1.503 . S
C1227 C1226 1.370 . S
C1227 C1228 1.403 . S
C1228 C1227 1.403 . S
C1228 C1229 1.404 . S
C1228 C1231 1.539 . S
C1229 C1225 1.408 . S
C1229 C1228 1.404 . S
C1229 H1241 0.930 . S
C1230 C1226 1.524 . S
C1230 H1242 0.956 . S
C1230 H1243 0.961 . S
C1230 H1244 0.961 . S
C1231 C1228 1.539 . S
C1231 H1245 0.958 . S
C1231 H1246 0.961 . S
C1231 H1247 0.960 . S
H1232 C1216 0.931 . S
H1233 C1221 0.929 . S
H1234 C1222 0.960 . S
H1235 C1222 0.962 . S
H1236 C1222 0.960 . S
H1237 C1223 0.961 . S
H1238 C1223 0.961 . S
H1239 C1223 0.961 . S
H1240 C1224 0.931 . S
H1241 C1229 0.930 . S
H1242 C1230 0.956 . S
H1243 C1230 0.961 . S
H1244 C1230 0.961 . S
H1245 C1231 0.958 . S
H1246 C1231 0.961 . S
H1247 C1231 0.960 . S
C1248 C1249 1.391 . S
C1248 C1250 1.394 . S
C1248 H1264 0.931 . S
C1249 C1248 1.391 . S
C1249 C1253 1.376 . S
C1250 C1248 1.394 . S
C1250 C1251 1.369 . S
C1250 C1254 1.531 . S
C1251 C1250 1.369 . S
C1251 C1252 1.410 . S
C1251 C1259 1.503 . S
C1252 C1251 1.410 . S
C1252 C1253 1.392 . S
C1252 C1255 1.511 . S
C1253 C1249 1.376 . S
C1253 C1252 1.392 . S
C1253 H1265 0.929 . S
C1254 C1250 1.531 . S
C1254 H1266 0.960 . S
C1254 H1267 0.962 . S
C1254 H1268 0.960 . S
C1255 C1252 1.511 . S
C1255 H1269 0.961 . S
C1255 H1270 0.961 . S
C1255 H1271 0.961 . S
C1256 C1257 1.370 . S
C1256 C1258 1.363 . S
C1256 H1272 0.931 . S
C1257 C1256 1.370 . S
C1257 C1261 1.408 . S
C1258 C1256 1.363 . S
C1258 C1259 1.370 . S
C1258 C1262 1.524 . S
C1259 C1251 1.503 . S
C1259 C1258 1.370 . S
C1259 C1260 1.403 . S
C1260 C1259 1.403 . S
C1260 C1261 1.404 . S
C1260 C1263 1.539 . S
C1261 C1257 1.408 . S
C1261 C1260 1.404 . S
C1261 H1273 0.930 . S
C1262 C1258 1.524 . S
C1262 H1274 0.956 . S
C1262 H1275 0.961 . S
C1262 H1276 0.961 . S
C1263 C1260 1.539 . S
C1263 H1277 0.958 . S
C1263 H1278 0.961 . S
C1263 H1279 0.960 . S
H1264 C1248 0.931 . S
H1265 C1253 0.929 . S
H1266 C1254 0.960 . S
H1267 C1254 0.962 . S
H1268 C1254 0.960 . S
H1269 C1255 0.961 . S
H1270 C1255 0.961 . S
H1271 C1255 0.961 . S
H1272 C1256 0.931 . S
H1273 C1261 0.930 . S
H1274 C1262 0.956 . S
H1275 C1262 0.961 . S
H1276 C1262 0.961 . S
H1277 C1263 0.958 . S
H1278 C1263 0.961 . S
H1279 C1263 0.960 . S
C1280 C1281 1.391 . S
C1280 C1282 1.394 . S
C1280 H1296 0.931 . S
C1281 C1280 1.391 . S
C1281 C1285 1.376 . S
C1282 C1280 1.394 . S
C1282 C1283 1.369 . S
C1282 C1286 1.531 . S
C1283 C1282 1.369 . S
C1283 C1284 1.410 . S
C1283 C1291 1.503 . S
C1284 C1283 1.410 . S
C1284 C1285 1.392 . S
C1284 C1287 1.511 . S
C1285 C1281 1.376 . S
C1285 C1284 1.392 . S
C1285 H1297 0.929 . S
C1286 C1282 1.531 . S
C1286 H1298 0.960 . S
C1286 H1299 0.962 . S
C1286 H1300 0.960 . S
C1287 C1284 1.511 . S
C1287 H1301 0.961 . S
C1287 H1302 0.961 . S
C1287 H1303 0.961 . S
C1288 C1289 1.372 . S
C1288 C1290 1.363 . S
C1288 H1304 0.931 1_556 S
C1289 C1288 1.372 . S
C1289 C1293 1.418 . S
C1290 C1288 1.363 . S
C1290 C1291 1.370 . S
C1290 C1294 1.524 . S
C1291 C1283 1.503 . S
C1291 C1290 1.370 . S
C1291 C1292 1.403 . S
C1292 C1291 1.403 . S
C1292 C1293 1.404 . S
C1292 C1295 1.539 . S
C1293 C1289 1.418 . S
C1293 C1292 1.404 . S
C1293 H1305 0.930 . S
C1294 C1290 1.524 . S
C1294 H1306 0.956 . S
C1294 H1307 0.961 . S
C1294 H1308 0.961 . S
C1295 C1292 1.539 . S
C1295 H1309 0.958 . S
C1295 H1310 0.961 . S
C1295 H1311 0.960 . S
H1296 C1280 0.931 . S
H1297 C1285 0.929 . S
H1298 C1286 0.960 . S
H1299 C1286 0.962 . S
H1300 C1286 0.960 . S
H1301 C1287 0.961 . S
H1302 C1287 0.961 . S
H1303 C1287 0.961 . S
H1304 C1288 0.931 1_554 S
H1305 C1293 0.930 . S
H1306 C1294 0.956 . S
H1307 C1294 0.961 . S
H1308 C1294 0.961 . S
H1309 C1295 0.958 . S
H1310 C1295 0.961 . S
H1311 C1295 0.960 . S
C1312 C1313 1.391 . S
C1312 C1314 1.394 . S
C1312 H1328 0.931 . S
C1313 C1312 1.391 . S
C1313 C1317 1.376 . S
C1314 C1312 1.394 . S
C1314 C1315 1.369 . S
C1314 C1318 1.531 . S
C1315 C1314 1.369 . S
C1315 C1316 1.410 . S
C1315 C1323 1.503 . S
C1316 C1315 1.410 . S
C1316 C1317 1.392 . S
C1316 C1319 1.511 . S
C1317 C1313 1.376 . S
C1317 C1316 1.392 . S
C1317 H1329 0.929 . S
C1318 C1314 1.531 . S
C1318 H1330 0.960 . S
C1318 H1331 0.962 . S
C1318 H1332 0.960 . S
C1319 C1316 1.511 . S
C1319 H1333 0.961 . S
C1319 H1334 0.961 . S
C1319 H1335 0.961 . S
C1320 C1321 1.372 . S
C1320 C1322 1.363 . S
C1320 H1336 0.931 1_554 S
C1321 C1320 1.372 . S
C1321 C1325 1.413 . S
C1322 C1320 1.363 . S
C1322 C1323 1.370 . S
C1322 C1326 1.524 . S
C1323 C1315 1.503 . S
C1323 C1322 1.370 . S
C1323 C1324 1.403 . S
C1324 C1323 1.403 . S
C1324 C1325 1.404 . S
C1324 C1327 1.539 . S
C1325 C1321 1.413 . S
C1325 C1324 1.404 . S
C1325 H1337 0.930 . S
C1326 C1322 1.524 . S
C1326 H1338 0.956 . S
C1326 H1339 0.961 . S
C1326 H1340 0.961 . S
C1327 C1324 1.539 . S
C1327 H1341 0.958 . S
C1327 H1342 0.961 . S
C1327 H1343 0.960 . S
H1328 C1312 0.931 . S
H1329 C1317 0.929 . S
H1330 C1318 0.960 . S
H1331 C1318 0.962 . S
H1332 C1318 0.960 . S
H1333 C1319 0.961 . S
H1334 C1319 0.961 . S
H1335 C1319 0.961 . S
H1336 C1320 0.931 1_556 S
H1337 C1325 0.930 . S
H1338 C1326 0.956 . S
H1339 C1326 0.961 . S
H1340 C1326 0.961 . S
H1341 C1327 0.958 . S
H1342 C1327 0.961 . S
H1343 C1327 0.960 . S
C1344 C1345 1.391 . S
C1344 C1346 1.394 . S
C1344 H1360 0.931 . S
C1345 C1344 1.391 . S
C1345 C1349 1.376 . S
C1346 C1344 1.394 . S
C1346 C1347 1.369 . S
C1346 C1350 1.531 . S
C1347 C1346 1.369 . S
C1347 C1348 1.410 . S
C1347 C1355 1.503 . S
C1348 C1347 1.410 . S
C1348 C1349 1.392 . S
C1348 C1351 1.511 . S
C1349 C1345 1.376 . S
C1349 C1348 1.392 . S
C1349 H1361 0.929 . S
C1350 C1346 1.531 . S
C1350 H1362 0.960 . S
C1350 H1363 0.962 . S
C1350 H1364 0.960 . S
C1351 C1348 1.511 . S
C1351 H1365 0.961 . S
C1351 H1366 0.961 . S
C1351 H1367 0.961 . S
C1352 C1353 1.370 . S
C1352 C1354 1.363 . S
C1352 H1368 0.931 . S
C1353 C1352 1.370 . S
C1353 C1357 1.408 . S
C1354 C1352 1.363 . S
C1354 C1355 1.370 . S
C1354 C1358 1.524 . S
C1355 C1347 1.503 . S
C1355 C1354 1.370 . S
C1355 C1356 1.403 . S
C1356 C1355 1.403 . S
C1356 C1357 1.404 . S
C1356 C1359 1.539 . S
C1357 C1353 1.408 . S
C1357 C1356 1.404 . S
C1357 H1369 0.930 . S
C1358 C1354 1.524 . S
C1358 H1370 0.956 . S
C1358 H1371 0.961 . S
C1358 H1372 0.961 . S
C1359 C1356 1.539 . S
C1359 H1373 0.958 . S
C1359 H1374 0.961 . S
C1359 H1375 0.960 . S
H1360 C1344 0.931 . S
H1361 C1349 0.929 . S
H1362 C1350 0.960 . S
H1363 C1350 0.962 . S
H1364 C1350 0.960 . S
H1365 C1351 0.961 . S
H1366 C1351 0.961 . S
H1367 C1351 0.961 . S
H1368 C1352 0.931 . S
H1369 C1357 0.930 . S
H1370 C1358 0.956 . S
H1371 C1358 0.961 . S
H1372 C1358 0.961 . S
H1373 C1359 0.958 . S
H1374 C1359 0.961 . S
H1375 C1359 0.960 . S
C1376 C1377 1.391 . S
C1376 C1378 1.394 . S
C1376 H1392 0.931 . S
C1377 C1376 1.391 . S
C1377 C1381 1.376 . S
C1378 C1376 1.394 . S
C1378 C1379 1.369 . S
C1378 C1382 1.531 . S
C1379 C1378 1.369 . S
C1379 C1380 1.410 . S
C1379 C1387 1.503 . S
C1380 C1379 1.410 . S
C1380 C1381 1.392 . S
C1380 C1383 1.511 . S
C1381 C1377 1.376 . S
C1381 C1380 1.392 . S
C1381 H1393 0.929 . S
C1382 C1378 1.531 . S
C1382 H1394 0.960 . S
C1382 H1395 0.962 . S
C1382 H1396 0.960 . S
C1383 C1380 1.511 . S
C1383 H1397 0.961 . S
C1383 H1398 0.961 . S
C1383 H1399 0.961 . S
C1384 C1385 1.370 . S
C1384 C1386 1.363 . S
C1384 H1400 0.931 . S
C1385 C1384 1.370 . S
C1385 C1389 1.408 . S
C1386 C1384 1.363 . S
C1386 C1387 1.370 . S
C1386 C1390 1.524 . S
C1387 C1379 1.503 . S
C1387 C1386 1.370 . S
C1387 C1388 1.403 . S
C1388 C1387 1.403 . S
C1388 C1389 1.404 . S
C1388 C1391 1.539 . S
C1389 C1385 1.408 . S
C1389 C1388 1.404 . S
C1389 H1401 0.930 . S
C1390 C1386 1.524 . S
C1390 H1402 0.956 . S
C1390 H1403 0.961 . S
C1390 H1404 0.961 . S
C1391 C1388 1.539 . S
C1391 H1405 0.958 . S
C1391 H1406 0.961 . S
C1391 H1407 0.960 . S
H1392 C1376 0.931 . S
H1393 C1381 0.929 . S
H1394 C1382 0.960 . S
H1395 C1382 0.962 . S
H1396 C1382 0.960 . S
H1397 C1383 0.961 . S
H1398 C1383 0.961 . S
H1399 C1383 0.961 . S
H1400 C1384 0.931 . S
H1401 C1389 0.930 . S
H1402 C1390 0.956 . S
H1403 C1390 0.961 . S
H1404 C1390 0.961 . S
H1405 C1391 0.958 . S
H1406 C1391 0.961 . S
H1407 C1391 0.960 . S
C1408 C1409 1.391 . S
C1408 C1410 1.403 . S
C1408 H1424 0.922 1_554 S
C1409 C1408 1.391 . S
C1409 C1413 1.386 . S
C1410 C1408 1.403 . S
C1410 C1411 1.369 . S
C1410 C1414 1.531 . S
C1411 C1410 1.369 . S
C1411 C1412 1.410 . S
C1411 C1419 1.503 . S
C1412 C1411 1.410 . S
C1412 C1413 1.392 . S
C1412 C1415 1.511 . S
C1413 C1409 1.386 . S
C1413 C1412 1.392 . S
C1413 H1425 0.929 . S
C1414 C1410 1.531 . S
C1414 H1426 0.960 . S
C1414 H1427 0.962 . S
C1414 H1428 0.960 . S
C1415 C1412 1.511 . S
C1415 H1429 0.961 . S
C1415 H1430 0.961 . S
C1415 H1431 0.961 . S
C1416 C1417 1.370 . S
C1416 C1418 1.363 . S
C1416 H1432 0.931 . S
C1417 C1416 1.370 . S
C1417 C1421 1.408 . S
C1418 C1416 1.363 . S
C1418 C1419 1.370 . S
C1418 C1422 1.524 . S
C1419 C1411 1.503 . S
C1419 C1418 1.370 . S
C1419 C1420 1.403 . S
C1420 C1419 1.403 . S
C1420 C1421 1.404 . S
C1420 C1423 1.539 . S
C1421 C1417 1.408 . S
C1421 C1420 1.404 . S
C1421 H1433 0.930 . S
C1422 C1418 1.524 . S
C1422 H1434 0.956 . S
C1422 H1435 0.961 . S
C1422 H1436 0.961 . S
C1423 C1420 1.539 . S
C1423 H1437 0.958 . S
C1423 H1438 0.961 . S
C1423 H1439 0.960 . S
H1424 C1408 0.922 1_556 S
H1425 C1413 0.929 . S
H1426 C1414 0.960 . S
H1427 C1414 0.962 . S
H1428 C1414 0.960 . S
H1429 C1415 0.961 . S
H1430 C1415 0.961 . S
H1431 C1415 0.961 . S
H1432 C1416 0.931 . S
H1433 C1421 0.930 . S
H1434 C1422 0.956 . S
H1435 C1422 0.961 . S
H1436 C1422 0.961 . S
H1437 C1423 0.958 . S
H1438 C1423 0.961 . S
H1439 C1423 0.960 . S
C1440 C1441 1.391 . S
C1440 C1442 1.394 . S
C1440 H1456 0.931 . S
C1441 C1440 1.391 . S
C1441 C1445 1.376 . S
C1442 C1440 1.394 . S
C1442 C1443 1.369 . S
C1442 C1446 1.531 . S
C1443 C1442 1.369 . S
C1443 C1444 1.410 . S
C1443 C1451 1.503 . S
C1444 C1443 1.410 . S
C1444 C1445 1.392 . S
C1444 C1447 1.511 . S
C1445 C1441 1.376 . S
C1445 C1444 1.392 . S
C1445 H1457 0.929 . S
C1446 C1442 1.531 . S
C1446 H1458 0.960 . S
C1446 H1459 0.962 . S
C1446 H1460 0.960 . S
C1447 C1444 1.511 . S
C1447 H1461 0.961 . S
C1447 H1462 0.961 . S
C1447 H1463 0.961 . S
C1448 C1449 1.373 . S
C1448 C1450 1.363 . S
C1448 H1464 0.931 1_556 S
C1449 C1448 1.373 . S
C1449 C1453 1.418 . S
C1450 C1448 1.363 . S
C1450 C1451 1.370 . S
C1450 C1454 1.524 . S
C1451 C1443 1.503 . S
C1451 C1450 1.370 . S
C1451 C1452 1.403 . S
C1452 C1451 1.403 . S
C1452 C1453 1.404 . S
C1452 C1455 1.539 . S
C1453 C1449 1.418 . S
C1453 C1452 1.404 . S
C1453 H1465 0.930 . S
C1454 C1450 1.524 . S
C1454 H1466 0.956 . S
C1454 H1467 0.961 . S
C1454 H1468 0.961 . S
C1455 C1452 1.539 . S
C1455 H1469 0.958 . S
C1455 H1470 0.961 . S
C1455 H1471 0.960 . S
H1456 C1440 0.931 . S
H1457 C1445 0.929 . S
H1458 C1446 0.960 . S
H1459 C1446 0.962 . S
H1460 C1446 0.960 . S
H1461 C1447 0.961 . S
H1462 C1447 0.961 . S
H1463 C1447 0.961 . S
H1464 C1448 0.931 1_554 S
H1465 C1453 0.930 . S
H1466 C1454 0.956 . S
H1467 C1454 0.961 . S
H1468 C1454 0.961 . S
H1469 C1455 0.958 . S
H1470 C1455 0.961 . S
H1471 C1455 0.960 . S
C1472 C1473 1.391 . S
C1472 C1474 1.394 . S
C1472 H1488 0.931 . S
C1473 C1472 1.391 . S
C1473 C1477 1.376 . S
C1474 C1472 1.394 . S
C1474 C1475 1.369 . S
C1474 C1478 1.531 . S
C1475 C1474 1.369 . S
C1475 C1476 1.410 . S
C1475 C1483 1.503 . S
C1476 C1475 1.410 . S
C1476 C1477 1.392 . S
C1476 C1479 1.511 . S
C1477 C1473 1.376 . S
C1477 C1476 1.392 . S
C1477 H1489 0.929 . S
C1478 C1474 1.531 . S
C1478 H1490 0.960 . S
C1478 H1491 0.962 . S
C1478 H1492 0.960 . S
C1479 C1476 1.511 . S
C1479 H1493 0.961 . S
C1479 H1494 0.961 . S
C1479 H1495 0.961 . S
C1480 C1481 1.370 . S
C1480 C1482 1.363 . S
C1480 H1496 0.931 . S
C1481 C1480 1.370 . S
C1481 C1485 1.408 . S
C1482 C1480 1.363 . S
C1482 C1483 1.370 . S
C1482 C1486 1.524 . S
C1483 C1475 1.503 . S
C1483 C1482 1.370 . S
C1483 C1484 1.403 . S
C1484 C1483 1.403 . S
C1484 C1485 1.404 . S
C1484 C1487 1.539 . S
C1485 C1481 1.408 . S
C1485 C1484 1.404 . S
C1485 H1497 0.930 . S
C1486 C1482 1.524 . S
C1486 H1498 0.956 . S
C1486 H1499 0.961 . S
C1486 H1500 0.961 . S
C1487 C1484 1.539 . S
C1487 H1501 0.958 . S
C1487 H1502 0.961 . S
C1487 H1503 0.960 . S
H1488 C1472 0.931 . S
H1489 C1477 0.929 . S
H1490 C1478 0.960 . S
H1491 C1478 0.962 . S
H1492 C1478 0.960 . S
H1493 C1479 0.961 . S
H1494 C1479 0.961 . S
H1495 C1479 0.961 . S
H1496 C1480 0.931 . S
H1497 C1485 0.930 . S
H1498 C1486 0.956 . S
H1499 C1486 0.961 . S
H1500 C1486 0.961 . S
H1501 C1487 0.958 . S
H1502 C1487 0.961 . S
H1503 C1487 0.960 . S
C1504 C1505 1.391 . S
C1504 C1506 1.394 . S
C1504 H1520 0.931 . S
C1505 C1504 1.391 . S
C1505 C1509 1.376 . S
C1506 C1504 1.394 . S
C1506 C1507 1.369 . S
C1506 C1510 1.531 . S
C1507 C1506 1.369 . S
C1507 C1508 1.410 . S
C1507 C1515 1.503 1_655 S
C1508 C1507 1.410 . S
C1508 C1509 1.392 . S
C1508 C1511 1.511 . S
C1509 C1505 1.376 . S
C1509 C1508 1.392 . S
C1509 H1521 0.929 . S
C1510 C1506 1.531 . S
C1510 H1522 0.960 1_655 S
C1510 H1523 0.962 . S
C1510 H1524 0.960 . S
C1511 C1508 1.511 . S
C1511 H1525 0.961 . S
C1511 H1526 0.961 1_655 S
C1511 H1527 0.961 . S
C1512 C1513 1.370 . S
C1512 C1514 1.363 . S
C1512 H1528 0.931 . S
C1513 C1512 1.370 . S
C1513 C1517 1.408 . S
C1514 C1512 1.363 . S
C1514 C1515 1.370 . S
C1514 C1518 1.524 . S
C1515 C1507 1.503 1_455 S
C1515 C1514 1.370 . S
C1515 C1516 1.403 . S
C1516 C1515 1.403 . S
C1516 C1517 1.404 . S
C1516 C1519 1.539 . S
C1517 C1513 1.408 . S
C1517 C1516 1.404 . S
C1517 H1529 0.930 . S
C1518 C1514 1.524 . S
C1518 H1530 0.983 . S
C1518 H1531 0.918 1_455 S
C1518 H1532 0.961 . S
C1519 C1516 1.539 . S
C1519 H1533 0.958 . S
C1519 H1534 0.961 . S
C1519 H1535 0.968 . S
H1520 C1504 0.931 . S
H1521 C1509 0.929 . S
H1522 C1510 0.960 1_455 S
H1523 C1510 0.962 . S
H1524 C1510 0.960 . S
H1525 C1511 0.961 . S
H1526 C1511 0.961 1_455 S
H1527 C1511 0.961 . S
H1528 C1512 0.931 . S
H1529 C1517 0.930 . S
H1530 C1518 0.983 . S
H1531 C1518 0.918 1_655 S
H1532 C1518 0.961 . S
H1533 C1519 0.958 . S
H1534 C1519 0.961 . S
H1535 C1519 0.968 . S
C1536 C1537 1.391 . S
C1536 C1538 1.394 . S
C1536 H1552 0.931 . S
C1537 C1536 1.391 . S
C1537 C1541 1.376 . S
C1538 C1536 1.394 . S
C1538 C1539 1.369 . S
C1538 C1542 1.531 . S
C1539 C1538 1.369 . S
C1539 C1540 1.410 . S
C1539 C1547 1.503 . S
C1540 C1539 1.410 . S
C1540 C1541 1.392 . S
C1540 C1543 1.511 . S
C1541 C1537 1.376 . S
C1541 C1540 1.392 . S
C1541 H1553 0.929 . S
C1542 C1538 1.531 . S
C1542 H1554 0.960 . S
C1542 H1555 0.962 . S
C1542 H1556 0.960 . S
C1543 C1540 1.511 . S
C1543 H1557 0.961 . S
C1543 H1558 0.961 . S
C1543 H1559 0.961 . S
C1544 C1545 1.370 . S
C1544 C1546 1.363 . S
C1544 H1560 0.931 . S
C1545 C1544 1.370 . S
C1545 C1549 1.408 . S
C1546 C1544 1.363 . S
C1546 C1547 1.370 . S
C1546 C1550 1.524 . S
C1547 C1539 1.503 . S
C1547 C1546 1.370 . S
C1547 C1548 1.403 . S
C1548 C1547 1.403 . S
C1548 C1549 1.404 . S
C1548 C1551 1.539 . S
C1549 C1545 1.408 . S
C1549 C1548 1.404 . S
C1549 H1561 0.930 . S
C1550 C1546 1.524 . S
C1550 H1562 0.956 . S
C1550 H1563 0.961 . S
C1550 H1564 0.961 . S
C1551 C1548 1.539 . S
C1551 H1565 0.958 . S
C1551 H1566 0.961 . S
C1551 H1567 0.960 . S
H1552 C1536 0.931 . S
H1553 C1541 0.929 . S
H1554 C1542 0.960 . S
H1555 C1542 0.962 . S
H1556 C1542 0.960 . S
H1557 C1543 0.961 . S
H1558 C1543 0.961 . S
H1559 C1543 0.961 . S
H1560 C1544 0.931 . S
H1561 C1549 0.930 . S
H1562 C1550 0.956 . S
H1563 C1550 0.961 . S
H1564 C1550 0.961 . S
H1565 C1551 0.958 . S
H1566 C1551 0.961 . S
H1567 C1551 0.960 . S
C1568 C1569 1.391 . S
C1568 C1570 1.394 . S
C1568 H1584 0.931 . S
C1569 C1568 1.391 . S
C1569 C1573 1.376 . S
C1570 C1568 1.394 . S
C1570 C1571 1.369 . S
C1570 C1574 1.531 . S
C1571 C1570 1.369 . S
C1571 C1572 1.410 . S
C1571 C1579 1.503 . S
C1572 C1571 1.410 . S
C1572 C1573 1.392 . S
C1572 C1575 1.511 . S
C1573 C1569 1.376 . S
C1573 C1572 1.392 . S
C1573 H1585 0.929 . S
C1574 C1570 1.531 . S
C1574 H1586 0.960 . S
C1574 H1587 0.962 1_556 S
C1574 H1588 0.960 . S
C1575 C1572 1.511 . S
C1575 H1589 0.961 . S
C1575 H1590 0.961 . S
C1575 H1591 0.961 . S
C1576 C1577 1.370 . S
C1576 C1578 1.363 . S
C1576 H1592 0.931 . S
C1577 C1576 1.370 . S
C1577 C1581 1.408 . S
C1578 C1576 1.363 . S
C1578 C1579 1.370 . S
C1578 C1582 1.524 . S
C1579 C1571 1.503 . S
C1579 C1578 1.370 . S
C1579 C1580 1.403 . S
C1580 C1579 1.403 . S
C1580 C1581 1.404 . S
C1580 C1583 1.539 . S
C1581 C1577 1.408 . S
C1581 C1580 1.404 . S
C1581 H1593 0.930 . S
C1582 C1578 1.524 . S
C1582 H1594 0.956 1_556 S
C1582 H1595 0.961 . S
C1582 H1596 0.961 1_556 S
C1583 C1580 1.539 . S
C1583 H1597 0.958 . S
C1583 H1598 0.961 . S
C1583 H1599 0.960 . S
H1584 C1568 0.931 . S
H1585 C1573 0.929 . S
H1586 C1574 0.960 . S
H1587 C1574 0.962 1_554 S
H1588 C1574 0.960 . S
H1589 C1575 0.961 . S
H1590 C1575 0.961 . S
H1591 C1575 0.961 . S
H1592 C1576 0.931 . S
H1593 C1581 0.930 . S
H1594 C1582 0.956 1_554 S
H1595 C1582 0.961 . S
H1596 C1582 0.961 1_554 S
H1597 C1583 0.958 . S
H1598 C1583 0.961 . S
H1599 C1583 0.960 . S
C1600 C1601 1.391 . S
C1600 C1602 1.394 . S
C1600 H1616 0.931 . S
C1601 C1600 1.391 . S
C1601 C1605 1.376 . S
C1602 C1600 1.394 . S
C1602 C1603 1.369 . S
C1602 C1606 1.531 . S
C1603 C1602 1.369 . S
C1603 C1604 1.410 . S
C1603 C1611 1.503 . S
C1604 C1603 1.410 . S
C1604 C1605 1.392 . S
C1604 C1607 1.511 . S
C1605 C1601 1.376 . S
C1605 C1604 1.392 . S
C1605 H1617 0.929 . S
C1606 C1602 1.531 . S
C1606 H1618 0.960 . S
C1606 H1619 0.962 . S
C1606 H1620 0.960 . S
C1607 C1604 1.511 . S
C1607 H1621 0.961 . S
C1607 H1622 0.961 . S
C1607 H1623 0.961 . S
C1608 C1609 1.370 . S
C1608 C1610 1.363 . S
C1608 H1624 0.931 . S
C1609 C1608 1.370 . S
C1609 C1613 1.408 . S
C1610 C1608 1.363 . S
C1610 C1611 1.370 . S
C1610 C1614 1.524 . S
C1611 C1603 1.503 . S
C1611 C1610 1.370 . S
C1611 C1612 1.403 . S
C1612 C1611 1.403 . S
C1612 C1613 1.404 . S
C1612 C1615 1.539 . S
C1613 C1609 1.408 . S
C1613 C1612 1.404 . S
C1613 H1625 0.930 . S
C1614 C1610 1.524 . S
C1614 H1626 0.956 . S
C1614 H1627 0.961 . S
C1614 H1628 0.961 . S
C1615 C1612 1.539 . S
C1615 H1629 0.958 . S
C1615 H1630 0.961 . S
C1615 H1631 0.960 . S
H1616 C1600 0.931 . S
H1617 C1605 0.929 . S
H1618 C1606 0.960 . S
H1619 C1606 0.962 . S
H1620 C1606 0.960 . S
H1621 C1607 0.961 . S
H1622 C1607 0.961 . S
H1623 C1607 0.961 . S
H1624 C1608 0.931 . S
H1625 C1613 0.930 . S
H1626 C1614 0.956 . S
H1627 C1614 0.961 . S
H1628 C1614 0.961 . S
H1629 C1615 0.958 . S
H1630 C1615 0.961 . S
H1631 C1615 0.960 . S
C1632 C1633 1.391 . S
C1632 C1634 1.394 . S
C1632 H1648 0.931 . S
C1633 C1632 1.391 . S
C1633 C1637 1.376 . S
C1634 C1632 1.394 . S
C1634 C1635 1.369 . S
C1634 C1638 1.531 . S
C1635 C1634 1.369 . S
C1635 C1636 1.410 . S
C1635 C1643 1.503 . S
C1636 C1635 1.410 . S
C1636 C1637 1.392 . S
C1636 C1639 1.511 . S
C1637 C1633 1.376 . S
C1637 C1636 1.392 . S
C1637 H1649 0.929 . S
C1638 C1634 1.531 . S
C1638 H1650 0.960 . S
C1638 H1651 0.962 . S
C1638 H1652 0.960 . S
C1639 C1636 1.511 . S
C1639 H1653 0.961 . S
C1639 H1654 0.961 . S
C1639 H1655 0.961 . S
C1640 C1641 1.370 . S
C1640 C1642 1.363 . S
C1640 H1656 0.931 . S
C1641 C1640 1.370 . S
C1641 C1645 1.408 . S
C1642 C1640 1.363 . S
C1642 C1643 1.370 . S
C1642 C1646 1.524 1_554 S
C1643 C1635 1.503 . S
C1643 C1642 1.370 . S
C1643 C1644 1.403 . S
C1644 C1643 1.403 . S
C1644 C1645 1.404 . S
C1644 C1647 1.539 . S
C1645 C1641 1.408 . S
C1645 C1644 1.404 . S
C1645 H1657 0.930 . S
C1646 C1642 1.524 1_556 S
C1646 H1658 0.956 1_556 S
C1646 H1659 0.961 . S
C1646 H1660 0.961 . S
C1647 C1644 1.539 . S
C1647 H1661 0.958 . S
C1647 H1662 0.961 . S
C1647 H1663 0.960 . S
H1648 C1632 0.931 . S
H1649 C1637 0.929 . S
H1650 C1638 0.960 . S
H1651 C1638 0.962 . S
H1652 C1638 0.960 . S
H1653 C1639 0.961 . S
H1654 C1639 0.961 . S
H1655 C1639 0.961 . S
H1656 C1640 0.931 . S
H1657 C1645 0.930 . S
H1658 C1646 0.956 1_554 S
H1659 C1646 0.961 . S
H1660 C1646 0.961 . S
H1661 C1647 0.958 . S
H1662 C1647 0.961 . S
H1663 C1647 0.960 . S
C1664 C1665 1.391 . S
C1664 C1666 1.394 . S
C1664 H1680 0.931 . S
C1665 C1664 1.391 . S
C1665 C1669 1.376 . S
C1666 C1664 1.394 . S
C1666 C1667 1.369 . S
C1666 C1670 1.531 . S
C1667 C1666 1.369 . S
C1667 C1668 1.410 . S
C1667 C1675 1.503 . S
C1668 C1667 1.410 . S
C1668 C1669 1.392 . S
C1668 C1671 1.511 . S
C1669 C1665 1.376 . S
C1669 C1668 1.392 . S
C1669 H1681 0.929 . S
C1670 C1666 1.531 . S
C1670 H1682 0.960 . S
C1670 H1683 0.962 . S
C1670 H1684 0.960 . S
C1671 C1668 1.511 . S
C1671 H1685 0.961 . S
C1671 H1686 0.961 . S
C1671 H1687 0.961 . S
C1672 C1673 1.370 . S
C1672 C1674 1.363 . S
C1672 H1688 0.931 . S
C1673 C1672 1.370 . S
C1673 C1677 1.408 . S
C1674 C1672 1.363 . S
C1674 C1675 1.370 . S
C1674 C1678 1.524 . S
C1675 C1667 1.503 . S
C1675 C1674 1.370 . S
C1675 C1676 1.403 . S
C1676 C1675 1.403 . S
C1676 C1677 1.404 . S
C1676 C1679 1.539 . S
C1677 C1673 1.408 . S
C1677 C1676 1.404 . S
C1677 H1689 0.930 . S
C1678 C1674 1.524 . S
C1678 H1690 0.956 . S
C1678 H1691 0.961 . S
C1678 H1692 0.961 . S
C1679 C1676 1.539 . S
C1679 H1693 0.958 . S
C1679 H1694 0.961 . S
C1679 H1695 0.960 . S
H1680 C1664 0.931 . S
H1681 C1669 0.929 . S
H1682 C1670 0.960 . S
H1683 C1670 0.962 . S
H1684 C1670 0.960 . S
H1685 C1671 0.961 . S
H1686 C1671 0.961 . S
H1687 C1671 0.961 . S
H1688 C1672 0.931 . S
H1689 C1677 0.930 . S
H1690 C1678 0.956 . S
H1691 C1678 0.961 . S
H1692 C1678 0.961 . S
H1693 C1679 0.958 . S
H1694 C1679 0.961 . S
H1695 C1679 0.960 . S
C1696 C1697 1.391 . S
C1696 C1698 1.394 . S
C1696 H1712 0.931 . S
C1697 C1696 1.391 . S
C1697 C1701 1.376 . S
C1698 C1696 1.394 . S
C1698 C1699 1.369 . S
C1698 C1702 1.531 . S
C1699 C1698 1.369 . S
C1699 C1700 1.410 . S
C1699 C1707 1.503 1_655 S
C1700 C1699 1.410 . S
C1700 C1701 1.392 . S
C1700 C1703 1.511 . S
C1701 C1697 1.376 . S
C1701 C1700 1.392 . S
C1701 H1713 0.929 . S
C1702 C1698 1.531 . S
C1702 H1714 0.960 1_655 S
C1702 H1715 0.962 . S
C1702 H1716 0.960 . S
C1703 C1700 1.511 . S
C1703 H1717 0.961 . S
C1703 H1718 0.961 1_655 S
C1703 H1719 0.961 . S
C1704 C1705 1.370 . S
C1704 C1706 1.363 . S
C1704 H1720 0.931 . S
C1705 C1704 1.370 . S
C1705 C1709 1.408 . S
C1706 C1704 1.363 . S
C1706 C1707 1.370 . S
C1706 C1710 1.524 . S
C1707 C1699 1.503 1_455 S
C1707 C1706 1.370 . S
C1707 C1708 1.403 . S
C1708 C1707 1.403 . S
C1708 C1709 1.404 . S
C1708 C1711 1.539 . S
C1709 C1705 1.408 . S
C1709 C1708 1.404 . S
C1709 H1721 0.930 . S
C1710 C1706 1.524 . S
C1710 H1722 0.983 . S
C1710 H1723 0.918 1_455 S
C1710 H1724 0.961 . S
C1711 C1708 1.539 . S
C1711 H1725 0.958 . S
C1711 H1726 0.961 . S
C1711 H1727 0.968 . S
H1712 C1696 0.931 . S
H1713 C1701 0.929 . S
H1714 C1702 0.960 1_455 S
H1715 C1702 0.962 . S
H1716 C1702 0.960 . S
H1717 C1703 0.961 . S
H1718 C1703 0.961 1_455 S
H1719 C1703 0.961 . S
H1720 C1704 0.931 . S
H1721 C1709 0.930 . S
H1722 C1710 0.983 . S
H1723 C1710 0.918 1_655 S
H1724 C1710 0.961 . S
H1725 C1711 0.958 . S
H1726 C1711 0.961 . S
H1727 C1711 0.968 . S
C1728 C1729 1.391 . S
C1728 C1730 1.394 . S
C1728 H1744 0.931 . S
C1729 C1728 1.391 . S
C1729 C1733 1.376 . S
C1730 C1728 1.394 . S
C1730 C1731 1.369 . S
C1730 C1734 1.531 . S
C1731 C1730 1.369 . S
C1731 C1732 1.410 . S
C1731 C1739 1.503 . S
C1732 C1731 1.410 . S
C1732 C1733 1.392 . S
C1732 C1735 1.511 . S
C1733 C1729 1.376 . S
C1733 C1732 1.392 . S
C1733 H1745 0.929 . S
C1734 C1730 1.531 . S
C1734 H1746 0.960 . S
C1734 H1747 0.962 . S
C1734 H1748 0.960 . S
C1735 C1732 1.511 . S
C1735 H1749 0.961 . S
C1735 H1750 0.961 . S
C1735 H1751 0.961 . S
C1736 C1737 1.370 . S
C1736 C1738 1.363 . S
C1736 H1752 0.931 . S
C1737 C1736 1.370 . S
C1737 C1741 1.408 . S
C1738 C1736 1.363 . S
C1738 C1739 1.370 . S
C1738 C1742 1.524 . S
C1739 C1731 1.503 . S
C1739 C1738 1.370 . S
C1739 C1740 1.403 . S
C1740 C1739 1.403 . S
C1740 C1741 1.404 . S
C1740 C1743 1.539 . S
C1741 C1737 1.408 . S
C1741 C1740 1.404 . S
C1741 H1753 0.930 . S
C1742 C1738 1.524 . S
C1742 H1754 0.956 . S
C1742 H1755 0.961 . S
C1742 H1756 0.961 . S
C1743 C1740 1.539 . S
C1743 H1757 0.958 . S
C1743 H1758 0.961 . S
C1743 H1759 0.960 . S
H1744 C1728 0.931 . S
H1745 C1733 0.929 . S
H1746 C1734 0.960 . S
H1747 C1734 0.962 . S
H1748 C1734 0.960 . S
H1749 C1735 0.961 . S
H1750 C1735 0.961 . S
H1751 C1735 0.961 . S
H1752 C1736 0.931 . S
H1753 C1741 0.930 . S
H1754 C1742 0.956 . S
H1755 C1742 0.961 . S
H1756 C1742 0.961 . S
H1757 C1743 0.958 . S
H1758 C1743 0.961 . S
H1759 C1743 0.960 . S
C1760 C1761 1.391 . S
C1760 C1762 1.394 . S
C1760 H1776 0.931 . S
C1761 C1760 1.391 . S
C1761 C1765 1.376 . S
C1762 C1760 1.394 . S
C1762 C1763 1.369 . S
C1762 C1766 1.531 . S
C1763 C1762 1.369 . S
C1763 C1764 1.410 . S
C1763 C1771 1.503 . S
C1764 C1763 1.410 . S
C1764 C1765 1.392 . S
C1764 C1767 1.511 . S
C1765 C1761 1.376 . S
C1765 C1764 1.392 . S
C1765 H1777 0.929 . S
C1766 C1762 1.531 . S
C1766 H1778 0.960 . S
C1766 H1779 0.962 . S
C1766 H1780 0.960 . S
C1767 C1764 1.511 . S
C1767 H1781 0.961 . S
C1767 H1782 0.961 . S
C1767 H1783 0.961 . S
C1768 C1769 1.370 . S
C1768 C1770 1.363 . S
C1768 H1784 0.931 . S
C1769 C1768 1.370 . S
C1769 C1773 1.408 . S
C1770 C1768 1.363 . S
C1770 C1771 1.370 . S
C1770 C1774 1.524 . S
C1771 C1763 1.503 . S
C1771 C1770 1.370 . S
C1771 C1772 1.403 . S
C1772 C1771 1.403 . S
C1772 C1773 1.404 . S
C1772 C1775 1.539 . S
C1773 C1769 1.408 . S
C1773 C1772 1.404 . S
C1773 H1785 0.930 . S
C1774 C1770 1.524 . S
C1774 H1786 0.956 . S
C1774 H1787 0.961 . S
C1774 H1788 0.961 . S
C1775 C1772 1.539 . S
C1775 H1789 0.958 . S
C1775 H1790 0.961 . S
C1775 H1791 0.960 . S
H1776 C1760 0.931 . S
H1777 C1765 0.929 . S
H1778 C1766 0.960 . S
H1779 C1766 0.962 . S
H1780 C1766 0.960 . S
H1781 C1767 0.961 . S
H1782 C1767 0.961 . S
H1783 C1767 0.961 . S
H1784 C1768 0.931 . S
H1785 C1773 0.930 . S
H1786 C1774 0.956 . S
H1787 C1774 0.961 . S
H1788 C1774 0.961 . S
H1789 C1775 0.958 . S
H1790 C1775 0.961 . S
H1791 C1775 0.960 . S
C1792 C1793 1.391 . S
C1792 C1794 1.394 . S
C1792 H1808 0.931 . S
C1793 C1792 1.391 . S
C1793 C1797 1.376 . S
C1794 C1792 1.394 . S
C1794 C1795 1.369 . S
C1794 C1798 1.531 . S
C1795 C1794 1.369 . S
C1795 C1796 1.410 . S
C1795 C1803 1.503 . S
C1796 C1795 1.410 . S
C1796 C1797 1.392 . S
C1796 C1799 1.511 . S
C1797 C1793 1.376 . S
C1797 C1796 1.392 . S
C1797 H1809 0.929 . S
C1798 C1794 1.531 . S
C1798 H1810 0.960 . S
C1798 H1811 0.962 . S
C1798 H1812 0.960 . S
C1799 C1796 1.511 . S
C1799 H1813 0.961 . S
C1799 H1814 0.961 . S
C1799 H1815 0.961 . S
C1800 C1801 1.370 . S
C1800 C1802 1.363 . S
C1800 H1816 0.931 . S
C1801 C1800 1.370 . S
C1801 C1805 1.408 . S
C1802 C1800 1.363 . S
C1802 C1803 1.370 . S
C1802 C1806 1.524 . S
C1803 C1795 1.503 . S
C1803 C1802 1.370 . S
C1803 C1804 1.403 . S
C1804 C1803 1.403 . S
C1804 C1805 1.404 . S
C1804 C1807 1.539 . S
C1805 C1801 1.408 . S
C1805 C1804 1.404 . S
C1805 H1817 0.930 . S
C1806 C1802 1.524 . S
C1806 H1818 0.956 . S
C1806 H1819 0.961 . S
C1806 H1820 0.961 . S
C1807 C1804 1.539 . S
C1807 H1821 0.958 . S
C1807 H1822 0.961 . S
C1807 H1823 0.960 . S
H1808 C1792 0.931 . S
H1809 C1797 0.929 . S
H1810 C1798 0.960 . S
H1811 C1798 0.962 . S
H1812 C1798 0.960 . S
H1813 C1799 0.961 . S
H1814 C1799 0.961 . S
H1815 C1799 0.961 . S
H1816 C1800 0.931 . S
H1817 C1805 0.930 . S
H1818 C1806 0.956 . S
H1819 C1806 0.961 . S
H1820 C1806 0.961 . S
H1821 C1807 0.958 . S
H1822 C1807 0.961 . S
H1823 C1807 0.960 . S
C1824 C1825 1.391 . S
C1824 C1826 1.394 . S
C1824 H1840 0.931 . S
C1825 C1824 1.391 . S
C1825 C1829 1.376 . S
C1826 C1824 1.394 . S
C1826 C1827 1.369 . S
C1826 C1830 1.531 . S
C1827 C1826 1.369 . S
C1827 C1828 1.410 . S
C1827 C1835 1.503 . S
C1828 C1827 1.410 . S
C1828 C1829 1.392 . S
C1828 C1831 1.511 . S
C1829 C1825 1.376 . S
C1829 C1828 1.392 . S
C1829 H1841 0.929 . S
C1830 C1826 1.531 . S
C1830 H1842 0.960 . S
C1830 H1843 0.962 . S
C1830 H1844 0.960 . S
C1831 C1828 1.511 . S
C1831 H1845 0.961 . S
C1831 H1846 0.961 . S
C1831 H1847 0.961 . S
C1832 C1833 1.370 . S
C1832 C1834 1.363 . S
C1832 H1848 0.931 . S
C1833 C1832 1.370 . S
C1833 C1837 1.408 . S
C1834 C1832 1.363 . S
C1834 C1835 1.370 . S
C1834 C1838 1.524 . S
C1835 C1827 1.503 . S
C1835 C1834 1.370 . S
C1835 C1836 1.403 . S
C1836 C1835 1.403 . S
C1836 C1837 1.404 . S
C1836 C1839 1.539 . S
C1837 C1833 1.408 . S
C1837 C1836 1.404 . S
C1837 H1849 0.930 . S
C1838 C1834 1.524 . S
C1838 H1850 0.956 . S
C1838 H1851 0.961 . S
C1838 H1852 0.961 . S
C1839 C1836 1.539 . S
C1839 H1853 0.958 . S
C1839 H1854 0.961 . S
C1839 H1855 0.960 . S
H1840 C1824 0.931 . S
H1841 C1829 0.929 . S
H1842 C1830 0.960 . S
H1843 C1830 0.962 . S
H1844 C1830 0.960 . S
H1845 C1831 0.961 . S
H1846 C1831 0.961 . S
H1847 C1831 0.961 . S
H1848 C1832 0.931 . S
H1849 C1837 0.930 . S
H1850 C1838 0.956 . S
H1851 C1838 0.961 . S
H1852 C1838 0.961 . S
H1853 C1839 0.958 . S
H1854 C1839 0.961 . S
H1855 C1839 0.960 . S
C1856 C1857 1.391 . S
C1856 C1858 1.394 . S
C1856 H1872 0.931 . S
C1857 C1856 1.391 . S
C1857 C1861 1.376 . S
C1858 C1856 1.394 . S
C1858 C1859 1.369 . S
C1858 C1862 1.531 . S
C1859 C1858 1.369 . S
C1859 C1860 1.410 . S
C1859 C1867 1.503 . S
C1860 C1859 1.410 . S
C1860 C1861 1.392 . S
C1860 C1863 1.511 . S
C1861 C1857 1.376 . S
C1861 C1860 1.392 . S
C1861 H1873 0.929 . S
C1862 C1858 1.531 . S
C1862 H1874 0.960 . S
C1862 H1875 0.962 . S
C1862 H1876 0.960 . S
C1863 C1860 1.511 . S
C1863 H1877 0.961 . S
C1863 H1878 0.961 . S
C1863 H1879 0.961 . S
C1864 C1865 1.370 . S
C1864 C1866 1.363 . S
C1864 H1880 0.931 . S
C1865 C1864 1.370 . S
C1865 C1869 1.408 . S
C1866 C1864 1.363 . S
C1866 C1867 1.370 . S
C1866 C1870 1.524 1_556 S
C1867 C1859 1.503 . S
C1867 C1866 1.370 . S
C1867 C1868 1.403 . S
C1868 C1867 1.403 . S
C1868 C1869 1.404 . S
C1868 C1871 1.539 . S
C1869 C1865 1.408 . S
C1869 C1868 1.404 . S
C1869 H1881 0.930 . S
C1870 C1866 1.524 1_554 S
C1870 H1882 0.956 1_554 S
C1870 H1883 0.961 . S
C1870 H1884 0.961 . S
C1871 C1868 1.539 . S
C1871 H1885 0.958 . S
C1871 H1886 0.961 . S
C1871 H1887 0.960 . S
H1872 C1856 0.931 . S
H1873 C1861 0.929 . S
H1874 C1862 0.960 . S
H1875 C1862 0.962 . S
H1876 C1862 0.960 . S
H1877 C1863 0.961 . S
H1878 C1863 0.961 . S
H1879 C1863 0.961 . S
H1880 C1864 0.931 . S
H1881 C1869 0.930 . S
H1882 C1870 0.956 1_556 S
H1883 C1870 0.961 . S
H1884 C1870 0.961 . S
H1885 C1871 0.958 . S
H1886 C1871 0.961 . S
H1887 C1871 0.960 . S
C1888 C1889 1.391 . S
C1888 C1890 1.394 . S
C1888 H1904 0.931 . S
C1889 C1888 1.391 . S
C1889 C1893 1.376 . S
C1890 C1888 1.394 . S
C1890 C1891 1.369 . S
C1890 C1894 1.531 . S
C1891 C1890 1.369 . S
C1891 C1892 1.410 . S
C1891 C1899 1.503 1_655 S
C1892 C1891 1.410 . S
C1892 C1893 1.392 . S
C1892 C1895 1.511 . S
C1893 C1889 1.376 . S
C1893 C1892 1.392 . S
C1893 H1905 0.929 . S
C1894 C1890 1.531 . S
C1894 H1906 0.960 1_655 S
C1894 H1907 0.962 . S
C1894 H1908 0.960 . S
C1895 C1892 1.511 . S
C1895 H1909 0.961 . S
C1895 H1910 0.961 1_655 S
C1895 H1911 0.961 . S
C1896 C1897 1.370 . S
C1896 C1898 1.363 . S
C1896 H1912 0.931 . S
C1897 C1896 1.370 . S
C1897 C1901 1.408 . S
C1898 C1896 1.363 . S
C1898 C1899 1.370 . S
C1898 C1902 1.524 . S
C1899 C1891 1.503 1_455 S
C1899 C1898 1.370 . S
C1899 C1900 1.403 . S
C1900 C1899 1.403 . S
C1900 C1901 1.404 . S
C1900 C1903 1.539 . S
C1901 C1897 1.408 . S
C1901 C1900 1.404 . S
C1901 H1913 0.930 . S
C1902 C1898 1.524 . S
C1902 H1914 0.983 . S
C1902 H1915 0.918 1_455 S
C1902 H1916 0.961 . S
C1903 C1900 1.539 . S
C1903 H1917 0.958 . S
C1903 H1918 0.961 . S
C1903 H1919 0.968 . S
H1904 C1888 0.931 . S
H1905 C1893 0.929 . S
H1906 C1894 0.960 1_455 S
H1907 C1894 0.962 . S
H1908 C1894 0.960 . S
H1909 C1895 0.961 . S
H1910 C1895 0.961 1_455 S
H1911 C1895 0.961 . S
H1912 C1896 0.931 . S
H1913 C1901 0.930 . S
H1914 C1902 0.983 . S
H1915 C1902 0.918 1_655 S
H1916 C1902 0.961 . S
H1917 C1903 0.958 . S
H1918 C1903 0.961 . S
H1919 C1903 0.968 . S
C1920 C1921 1.391 . S
C1920 C1922 1.394 . S
C1920 H1936 0.931 . S
C1921 C1920 1.391 . S
C1921 C1925 1.376 . S
C1922 C1920 1.394 . S
C1922 C1923 1.369 . S
C1922 C1926 1.531 . S
C1923 C1922 1.369 . S
C1923 C1924 1.410 . S
C1923 C1931 1.503 1_655 S
C1924 C1923 1.410 . S
C1924 C1925 1.392 . S
C1924 C1927 1.511 . S
C1925 C1921 1.376 . S
C1925 C1924 1.392 . S
C1925 H1937 0.929 . S
C1926 C1922 1.531 . S
C1926 H1938 0.960 1_655 S
C1926 H1939 0.962 . S
C1926 H1940 0.960 . S
C1927 C1924 1.511 . S
C1927 H1941 0.961 . S
C1927 H1942 0.961 1_655 S
C1927 H1943 0.961 . S
C1928 C1929 1.370 . S
C1928 C1930 1.363 . S
C1928 H1944 0.931 . S
C1929 C1928 1.370 . S
C1929 C1933 1.408 . S
C1930 C1928 1.363 . S
C1930 C1931 1.370 . S
C1930 C1934 1.524 . S
C1931 C1923 1.503 1_455 S
C1931 C1930 1.370 . S
C1931 C1932 1.403 . S
C1932 C1931 1.403 . S
C1932 C1933 1.404 . S
C1932 C1935 1.539 . S
C1933 C1929 1.408 . S
C1933 C1932 1.404 . S
C1933 H1945 0.930 . S
C1934 C1930 1.524 . S
C1934 H1946 0.983 . S
C1934 H1947 0.918 1_455 S
C1934 H1948 0.961 . S
C1935 C1932 1.539 . S
C1935 H1949 0.958 . S
C1935 H1950 0.961 . S
C1935 H1951 0.968 . S
H1936 C1920 0.931 . S
H1937 C1925 0.929 . S
H1938 C1926 0.960 1_455 S
H1939 C1926 0.962 . S
H1940 C1926 0.960 . S
H1941 C1927 0.961 . S
H1942 C1927 0.961 1_455 S
H1943 C1927 0.961 . S
H1944 C1928 0.931 . S
H1945 C1933 0.930 . S
H1946 C1934 0.983 . S
H1947 C1934 0.918 1_655 S
H1948 C1934 0.961 . S
H1949 C1935 0.958 . S
H1950 C1935 0.961 . S
H1951 C1935 0.968 . S
C1952 C1953 1.391 . S
C1952 C1954 1.394 . S
C1952 H1968 0.931 . S
C1953 C1952 1.391 . S
C1953 C1957 1.376 . S
C1954 C1952 1.394 . S
C1954 C1955 1.369 . S
C1954 C1958 1.531 . S
C1955 C1954 1.369 . S
C1955 C1956 1.410 . S
C1955 C1963 1.503 . S
C1956 C1955 1.410 . S
C1956 C1957 1.392 . S
C1956 C1959 1.511 . S
C1957 C1953 1.376 . S
C1957 C1956 1.392 . S
C1957 H1969 0.929 . S
C1958 C1954 1.531 . S
C1958 H1970 0.960 . S
C1958 H1971 0.962 1_554 S
C1958 H1972 0.960 . S
C1959 C1956 1.511 . S
C1959 H1973 0.961 . S
C1959 H1974 0.961 . S
C1959 H1975 0.961 . S
C1960 C1961 1.370 . S
C1960 C1962 1.363 . S
C1960 H1976 0.931 . S
C1961 C1960 1.370 . S
C1961 C1965 1.408 . S
C1962 C1960 1.363 . S
C1962 C1963 1.370 . S
C1962 C1966 1.524 . S
C1963 C1955 1.503 . S
C1963 C1962 1.370 . S
C1963 C1964 1.403 . S
C1964 C1963 1.403 . S
C1964 C1965 1.404 . S
C1964 C1967 1.539 . S
C1965 C1961 1.408 . S
C1965 C1964 1.404 . S
C1965 H1977 0.930 . S
C1966 C1962 1.524 . S
C1966 H1978 0.956 1_554 S
C1966 H1979 0.961 . S
C1966 H1980 0.961 1_554 S
C1967 C1964 1.539 . S
C1967 H1981 0.958 . S
C1967 H1982 0.961 . S
C1967 H1983 0.960 . S
H1968 C1952 0.931 . S
H1969 C1957 0.929 . S
H1970 C1958 0.960 . S
H1971 C1958 0.962 1_556 S
H1972 C1958 0.960 . S
H1973 C1959 0.961 . S
H1974 C1959 0.961 . S
H1975 C1959 0.961 . S
H1976 C1960 0.931 . S
H1977 C1965 0.930 . S
H1978 C1966 0.956 1_556 S
H1979 C1966 0.961 . S
H1980 C1966 0.961 1_556 S
H1981 C1967 0.958 . S
H1982 C1967 0.961 . S
H1983 C1967 0.960 . S
C1984 C1985 1.391 . S
C1984 C1986 1.394 . S
C1984 H2000 0.931 . S
C1985 C1984 1.391 . S
C1985 C1989 1.376 . S
C1986 C1984 1.394 . S
C1986 C1987 1.369 . S
C1986 C1990 1.531 . S
C1987 C1986 1.369 . S
C1987 C1988 1.410 . S
C1987 C1995 1.503 . S
C1988 C1987 1.410 . S
C1988 C1989 1.392 . S
C1988 C1991 1.511 . S
C1989 C1985 1.376 . S
C1989 C1988 1.392 . S
C1989 H2001 0.929 . S
C1990 C1986 1.531 . S
C1990 H2002 0.960 . S
C1990 H2003 0.962 . S
C1990 H2004 0.960 . S
C1991 C1988 1.511 . S
C1991 H2005 0.961 . S
C1991 H2006 0.961 . S
C1991 H2007 0.961 . S
C1992 C1993 1.370 . S
C1992 C1994 1.363 . S
C1992 H2008 0.931 . S
C1993 C1992 1.370 . S
C1993 C1997 1.408 . S
C1994 C1992 1.363 . S
C1994 C1995 1.370 . S
C1994 C1998 1.524 . S
C1995 C1987 1.503 . S
C1995 C1994 1.370 . S
C1995 C1996 1.403 . S
C1996 C1995 1.403 . S
C1996 C1997 1.404 . S
C1996 C1999 1.539 . S
C1997 C1993 1.408 . S
C1997 C1996 1.404 . S
C1997 H2009 0.930 . S
C1998 C1994 1.524 . S
C1998 H2010 0.956 . S
C1998 H2011 0.961 . S
C1998 H2012 0.961 . S
C1999 C1996 1.539 . S
C1999 H2013 0.958 . S
C1999 H2014 0.961 . S
C1999 H2015 0.960 . S
H2000 C1984 0.931 . S
H2001 C1989 0.929 . S
H2002 C1990 0.960 . S
H2003 C1990 0.962 . S
H2004 C1990 0.960 . S
H2005 C1991 0.961 . S
H2006 C1991 0.961 . S
H2007 C1991 0.961 . S
H2008 C1992 0.931 . S
H2009 C1997 0.930 . S
H2010 C1998 0.956 . S
H2011 C1998 0.961 . S
H2012 C1998 0.961 . S
H2013 C1999 0.958 . S
H2014 C1999 0.961 . S
H2015 C1999 0.960 . S
C2016 C2017 1.391 . S
C2016 C2018 1.394 . S
C2016 H2032 0.931 . S
C2017 C2016 1.391 . S
C2017 C2021 1.376 . S
C2018 C2016 1.394 . S
C2018 C2019 1.369 . S
C2018 C2022 1.531 . S
C2019 C2018 1.369 . S
C2019 C2020 1.410 . S
C2019 C2027 1.503 . S
C2020 C2019 1.410 . S
C2020 C2021 1.392 . S
C2020 C2023 1.511 . S
C2021 C2017 1.376 . S
C2021 C2020 1.392 . S
C2021 H2033 0.929 . S
C2022 C2018 1.531 . S
C2022 H2034 0.960 . S
C2022 H2035 0.962 . S
C2022 H2036 0.960 . S
C2023 C2020 1.511 . S
C2023 H2037 0.961 . S
C2023 H2038 0.961 . S
C2023 H2039 0.961 . S
C2024 C2025 1.370 . S
C2024 C2026 1.363 . S
C2024 H2040 0.931 . S
C2025 C2024 1.370 . S
C2025 C2029 1.408 . S
C2026 C2024 1.363 . S
C2026 C2027 1.370 . S
C2026 C2030 1.524 . S
C2027 C2019 1.503 . S
C2027 C2026 1.370 . S
C2027 C2028 1.403 . S
C2028 C2027 1.403 . S
C2028 C2029 1.404 . S
C2028 C2031 1.539 . S
C2029 C2025 1.408 . S
C2029 C2028 1.404 . S
C2029 H2041 0.930 . S
C2030 C2026 1.524 . S
C2030 H2042 0.956 . S
C2030 H2043 0.961 . S
C2030 H2044 0.961 . S
C2031 C2028 1.539 . S
C2031 H2045 0.958 . S
C2031 H2046 0.961 . S
C2031 H2047 0.960 . S
H2032 C2016 0.931 . S
H2033 C2021 0.929 . S
H2034 C2022 0.960 . S
H2035 C2022 0.962 . S
H2036 C2022 0.960 . S
H2037 C2023 0.961 . S
H2038 C2023 0.961 . S
H2039 C2023 0.961 . S
H2040 C2024 0.931 . S
H2041 C2029 0.930 . S
H2042 C2030 0.956 . S
H2043 C2030 0.961 . S
H2044 C2030 0.961 . S
H2045 C2031 0.958 . S
H2046 C2031 0.961 . S
H2047 C2031 0.960 . S
C2048 C2049 1.391 . S
C2048 C2050 1.394 . S
C2048 H2064 0.931 . S
C2049 C2048 1.391 . S
C2049 C2053 1.376 . S
C2050 C2048 1.394 . S
C2050 C2051 1.369 . S
C2050 C2054 1.531 . S
C2051 C2050 1.369 . S
C2051 C2052 1.410 . S
C2051 C2059 1.503 . S
C2052 C2051 1.410 . S
C2052 C2053 1.392 . S
C2052 C2055 1.511 . S
C2053 C2049 1.376 . S
C2053 C2052 1.392 . S
C2053 H2065 0.929 . S
C2054 C2050 1.531 . S
C2054 H2066 0.960 . S
C2054 H2067 0.962 . S
C2054 H2068 0.960 . S
C2055 C2052 1.511 . S
C2055 H2069 0.961 . S
C2055 H2070 0.961 . S
C2055 H2071 0.961 . S
C2056 C2057 1.370 . S
C2056 C2058 1.363 . S
C2056 H2072 0.931 . S
C2057 C2056 1.370 . S
C2057 C2061 1.408 . S
C2058 C2056 1.363 . S
C2058 C2059 1.370 . S
C2058 C2062 1.524 . S
C2059 C2051 1.503 . S
C2059 C2058 1.370 . S
C2059 C2060 1.403 . S
C2060 C2059 1.403 . S
C2060 C2061 1.404 . S
C2060 C2063 1.539 . S
C2061 C2057 1.408 . S
C2061 C2060 1.404 . S
C2061 H2073 0.930 . S
C2062 C2058 1.524 . S
C2062 H2074 0.956 . S
C2062 H2075 0.961 . S
C2062 H2076 0.961 . S
C2063 C2060 1.539 . S
C2063 H2077 0.958 . S
C2063 H2078 0.961 . S
C2063 H2079 0.960 . S
H2064 C2048 0.931 . S
H2065 C2053 0.929 . S
H2066 C2054 0.960 . S
H2067 C2054 0.962 . S
H2068 C2054 0.960 . S
H2069 C2055 0.961 . S
H2070 C2055 0.961 . S
H2071 C2055 0.961 . S
H2072 C2056 0.931 . S
H2073 C2061 0.930 . S
H2074 C2062 0.956 . S
H2075 C2062 0.961 . S
H2076 C2062 0.961 . S
H2077 C2063 0.958 . S
H2078 C2063 0.961 . S
H2079 C2063 0.960 . S
C2080 C2081 1.391 . S
C2080 C2082 1.394 . S
C2080 H2096 0.931 1_554 S
C2081 C2080 1.391 . S
C2081 C2085 1.376 . S
C2082 C2080 1.394 . S
C2082 C2083 1.369 . S
C2082 C2086 1.531 . S
C2083 C2082 1.369 . S
C2083 C2084 1.410 . S
C2083 C2091 1.503 . S
C2084 C2083 1.410 . S
C2084 C2085 1.392 . S
C2084 C2087 1.511 . S
C2085 C2081 1.376 . S
C2085 C2084 1.392 . S
C2085 H2097 0.929 . S
C2086 C2082 1.531 . S
C2086 H2098 0.960 . S
C2086 H2099 0.962 . S
C2086 H2100 0.960 . S
C2087 C2084 1.511 . S
C2087 H2101 0.961 . S
C2087 H2102 0.961 . S
C2087 H2103 0.961 . S
C2088 C2089 1.370 . S
C2088 C2090 1.363 . S
C2088 H2104 0.931 . S
C2089 C2088 1.370 . S
C2089 C2093 1.408 . S
C2090 C2088 1.363 . S
C2090 C2091 1.370 . S
C2090 C2094 1.524 . S
C2091 C2083 1.503 . S
C2091 C2090 1.370 . S
C2091 C2092 1.403 . S
C2092 C2091 1.403 . S
C2092 C2093 1.404 . S
C2092 C2095 1.539 . S
C2093 C2089 1.408 . S
C2093 C2092 1.404 . S
C2093 H2105 0.930 . S
C2094 C2090 1.524 . S
C2094 H2106 0.956 . S
C2094 H2107 0.961 . S
C2094 H2108 0.961 . S
C2095 C2092 1.539 . S
C2095 H2109 0.958 . S
C2095 H2110 0.961 . S
C2095 H2111 0.960 . S
H2096 C2080 0.931 1_556 S
H2097 C2085 0.929 . S
H2098 C2086 0.960 . S
H2099 C2086 0.962 . S
H2100 C2086 0.960 . S
H2101 C2087 0.961 . S
H2102 C2087 0.961 . S
H2103 C2087 0.961 . S
H2104 C2088 0.931 . S
H2105 C2093 0.930 . S
H2106 C2094 0.956 . S
H2107 C2094 0.961 . S
H2108 C2094 0.961 . S
H2109 C2095 0.958 . S
H2110 C2095 0.961 . S
H2111 C2095 0.960 . S
C2112 C2113 1.391 . S
C2112 C2114 1.394 . S
C2112 H2128 0.931 . S
C2113 C2112 1.391 . S
C2113 C2117 1.376 . S
C2114 C2112 1.394 . S
C2114 C2115 1.369 . S
C2114 C2118 1.531 . S
C2115 C2114 1.369 . S
C2115 C2116 1.410 . S
C2115 C2123 1.503 . S
C2116 C2115 1.410 . S
C2116 C2117 1.392 . S
C2116 C2119 1.511 . S
C2117 C2113 1.376 . S
C2117 C2116 1.392 . S
C2117 H2129 0.929 . S
C2118 C2114 1.531 . S
C2118 H2130 0.960 . S
C2118 H2131 0.962 . S
C2118 H2132 0.960 . S
C2119 C2116 1.511 . S
C2119 H2133 0.961 . S
C2119 H2134 0.961 . S
C2119 H2135 0.961 . S
C2120 C2121 1.370 . S
C2120 C2122 1.363 . S
C2120 H2136 0.931 . S
C2121 C2120 1.370 . S
C2121 C2125 1.408 . S
C2122 C2120 1.363 . S
C2122 C2123 1.370 . S
C2122 C2126 1.524 . S
C2123 C2115 1.503 . S
C2123 C2122 1.370 . S
C2123 C2124 1.403 . S
C2124 C2123 1.403 . S
C2124 C2125 1.404 . S
C2124 C2127 1.539 . S
C2125 C2121 1.408 . S
C2125 C2124 1.404 . S
C2125 H2137 0.930 . S
C2126 C2122 1.524 . S
C2126 H2138 0.956 . S
C2126 H2139 0.961 . S
C2126 H2140 0.961 . S
C2127 C2124 1.539 . S
C2127 H2141 0.958 . S
C2127 H2142 0.961 . S
C2127 H2143 0.960 . S
H2128 C2112 0.931 . S
H2129 C2117 0.929 . S
H2130 C2118 0.960 . S
H2131 C2118 0.962 . S
H2132 C2118 0.960 . S
H2133 C2119 0.961 . S
H2134 C2119 0.961 . S
H2135 C2119 0.961 . S
H2136 C2120 0.931 . S
H2137 C2125 0.930 . S
H2138 C2126 0.956 . S
H2139 C2126 0.961 . S
H2140 C2126 0.961 . S
H2141 C2127 0.958 . S
H2142 C2127 0.961 . S
H2143 C2127 0.960 . S
C2144 C2145 1.391 . S
C2144 C2146 1.394 . S
C2144 H2160 0.931 . S
C2145 C2144 1.391 . S
C2145 C2149 1.376 . S
C2146 C2144 1.394 . S
C2146 C2147 1.369 . S
C2146 C2150 1.531 . S
C2147 C2146 1.369 . S
C2147 C2148 1.410 . S
C2147 C2155 1.503 . S
C2148 C2147 1.410 . S
C2148 C2149 1.392 . S
C2148 C2151 1.511 . S
C2149 C2145 1.376 . S
C2149 C2148 1.392 . S
C2149 H2161 0.929 . S
C2150 C2146 1.531 . S
C2150 H2162 0.960 . S
C2150 H2163 0.962 . S
C2150 H2164 0.960 . S
C2151 C2148 1.511 . S
C2151 H2165 0.961 . S
C2151 H2166 0.961 . S
C2151 H2167 0.961 . S
C2152 C2153 1.370 . S
C2152 C2154 1.363 . S
C2152 H2168 0.931 . S
C2153 C2152 1.370 . S
C2153 C2157 1.408 . S
C2154 C2152 1.363 . S
C2154 C2155 1.370 . S
C2154 C2158 1.524 . S
C2155 C2147 1.503 . S
C2155 C2154 1.370 . S
C2155 C2156 1.403 . S
C2156 C2155 1.403 . S
C2156 C2157 1.404 . S
C2156 C2159 1.539 . S
C2157 C2153 1.408 . S
C2157 C2156 1.404 . S
C2157 H2169 0.930 . S
C2158 C2154 1.524 . S
C2158 H2170 0.956 . S
C2158 H2171 0.961 . S
C2158 H2172 0.961 . S
C2159 C2156 1.539 . S
C2159 H2173 0.958 . S
C2159 H2174 0.961 . S
C2159 H2175 0.960 . S
H2160 C2144 0.931 . S
H2161 C2149 0.929 . S
H2162 C2150 0.960 . S
H2163 C2150 0.962 . S
H2164 C2150 0.960 . S
H2165 C2151 0.961 . S
H2166 C2151 0.961 . S
H2167 C2151 0.961 . S
H2168 C2152 0.931 . S
H2169 C2157 0.930 . S
H2170 C2158 0.956 . S
H2171 C2158 0.961 . S
H2172 C2158 0.961 . S
H2173 C2159 0.958 . S
H2174 C2159 0.961 . S
H2175 C2159 0.960 . S
C2176 C2177 1.391 . S
C2176 C2178 1.394 . S
C2176 H2192 0.931 . S
C2177 C2176 1.391 . S
C2177 C2181 1.376 . S
C2178 C2176 1.394 . S
C2178 C2179 1.369 . S
C2178 C2182 1.531 . S
C2179 C2178 1.369 . S
C2179 C2180 1.410 . S
C2179 C2187 1.503 . S
C2180 C2179 1.410 . S
C2180 C2181 1.392 . S
C2180 C2183 1.511 . S
C2181 C2177 1.376 . S
C2181 C2180 1.392 . S
C2181 H2193 0.929 . S
C2182 C2178 1.531 . S
C2182 H2194 0.960 . S
C2182 H2195 0.962 . S
C2182 H2196 0.960 . S
C2183 C2180 1.511 . S
C2183 H2197 0.961 . S
C2183 H2198 0.961 . S
C2183 H2199 0.961 . S
C2184 C2185 1.370 . S
C2184 C2186 1.363 . S
C2184 H2200 0.931 . S
C2185 C2184 1.370 . S
C2185 C2189 1.408 1_554 S
C2186 C2184 1.363 . S
C2186 C2187 1.370 . S
C2186 C2190 1.524 . S
C2187 C2179 1.503 . S
C2187 C2186 1.370 . S
C2187 C2188 1.403 . S
C2188 C2187 1.403 . S
C2188 C2189 1.404 1_554 S
C2188 C2191 1.539 . S
C2189 C2185 1.408 1_556 S
C2189 C2188 1.404 1_556 S
C2189 H2201 0.930 . S
C2190 C2186 1.524 . S
C2190 H2202 0.956 . S
C2190 H2203 0.961 . S
C2190 H2204 0.961 . S
C2191 C2188 1.539 . S
C2191 H2205 0.958 . S
C2191 H2206 0.961 1_554 S
C2191 H2207 0.960 . S
H2192 C2176 0.931 . S
H2193 C2181 0.929 . S
H2194 C2182 0.960 . S
H2195 C2182 0.962 . S
H2196 C2182 0.960 . S
H2197 C2183 0.961 . S
H2198 C2183 0.961 . S
H2199 C2183 0.961 . S
H2200 C2184 0.931 . S
H2201 C2189 0.930 . S
H2202 C2190 0.956 . S
H2203 C2190 0.961 . S
H2204 C2190 0.961 . S
H2205 C2191 0.958 . S
H2206 C2191 0.961 1_556 S
H2207 C2191 0.960 . S
C2208 C2209 1.391 . S
C2208 C2210 1.394 . S
C2208 H2224 0.931 . S
C2209 C2208 1.391 . S
C2209 C2213 1.376 . S
C2210 C2208 1.394 . S
C2210 C2211 1.369 . S
C2210 C2214 1.531 . S
C2211 C2210 1.369 . S
C2211 C2212 1.410 . S
C2211 C2219 1.503 . S
C2212 C2211 1.410 . S
C2212 C2213 1.392 . S
C2212 C2215 1.511 . S
C2213 C2209 1.376 . S
C2213 C2212 1.392 . S
C2213 H2225 0.929 . S
C2214 C2210 1.531 . S
C2214 H2226 0.960 . S
C2214 H2227 0.962 . S
C2214 H2228 0.960 . S
C2215 C2212 1.511 . S
C2215 H2229 0.961 . S
C2215 H2230 0.961 . S
C2215 H2231 0.961 . S
C2216 C2217 1.370 . S
C2216 C2218 1.363 . S
C2216 H2232 0.931 . S
C2217 C2216 1.370 . S
C2217 C2221 1.408 1_556 S
C2218 C2216 1.363 . S
C2218 C2219 1.370 . S
C2218 C2222 1.524 . S
C2219 C2211 1.503 . S
C2219 C2218 1.370 . S
C2219 C2220 1.403 . S
C2220 C2219 1.403 . S
C2220 C2221 1.404 1_556 S
C2220 C2223 1.539 . S
C2221 C2217 1.408 1_554 S
C2221 C2220 1.404 1_554 S
C2221 H2233 0.930 . S
C2222 C2218 1.524 . S
C2222 H2234 0.956 . S
C2222 H2235 0.961 . S
C2222 H2236 0.961 . S
C2223 C2220 1.539 . S
C2223 H2237 0.958 . S
C2223 H2238 0.949 1_556 S
C2223 H2239 0.960 . S
H2224 C2208 0.931 . S
H2225 C2213 0.929 . S
H2226 C2214 0.960 . S
H2227 C2214 0.962 . S
H2228 C2214 0.960 . S
H2229 C2215 0.961 . S
H2230 C2215 0.961 . S
H2231 C2215 0.961 . S
H2232 C2216 0.931 . S
H2233 C2221 0.930 . S
H2234 C2222 0.956 . S
H2235 C2222 0.961 . S
H2236 C2222 0.961 . S
H2237 C2223 0.958 . S
H2238 C2223 0.949 1_554 S
H2239 C2223 0.960 . S
C2240 C2241 1.390 1_554 S
C2240 C2242 1.390 1_554 S
C2240 H2256 0.935 . S
C2241 C2240 1.390 1_556 S
C2241 C2245 1.376 . S
C2242 C2240 1.390 1_556 S
C2242 C2243 1.369 . S
C2242 C2246 1.531 . S
C2243 C2242 1.369 . S
C2243 C2244 1.410 . S
C2243 C2251 1.503 . S
C2244 C2243 1.410 . S
C2244 C2245 1.392 . S
C2244 C2247 1.511 . S
C2245 C2241 1.376 . S
C2245 C2244 1.392 . S
C2245 H2257 0.929 . S
C2246 C2242 1.531 . S
C2246 H2258 0.960 . S
C2246 H2259 0.962 . S
C2246 H2260 0.960 1_556 S
C2247 C2244 1.511 . S
C2247 H2261 0.961 . S
C2247 H2262 0.961 . S
C2247 H2263 0.961 . S
C2248 C2249 1.370 . S
C2248 C2250 1.363 . S
C2248 H2264 0.931 . S
C2249 C2248 1.370 . S
C2249 C2253 1.408 . S
C2250 C2248 1.363 . S
C2250 C2251 1.370 . S
C2250 C2254 1.524 . S
C2251 C2243 1.503 . S
C2251 C2250 1.370 . S
C2251 C2252 1.403 . S
C2252 C2251 1.403 . S
C2252 C2253 1.404 . S
C2252 C2255 1.539 . S
C2253 C2249 1.408 . S
C2253 C2252 1.404 . S
C2253 H2265 0.930 . S
C2254 C2250 1.524 . S
C2254 H2266 0.956 . S
C2254 H2267 0.961 . S
C2254 H2268 0.961 . S
C2255 C2252 1.539 . S
C2255 H2269 0.958 . S
C2255 H2270 0.961 . S
C2255 H2271 0.960 . S
H2256 C2240 0.935 . S
H2257 C2245 0.929 . S
H2258 C2246 0.960 . S
H2259 C2246 0.962 . S
H2260 C2246 0.960 1_554 S
H2261 C2247 0.961 . S
H2262 C2247 0.961 . S
H2263 C2247 0.961 . S
H2264 C2248 0.931 . S
H2265 C2253 0.930 . S
H2266 C2254 0.956 . S
H2267 C2254 0.961 . S
H2268 C2254 0.961 . S
H2269 C2255 0.958 . S
H2270 C2255 0.961 . S
H2271 C2255 0.960 . S
C2272 C2273 1.391 . S
C2272 C2274 1.394 . S
C2272 H2288 0.931 . S
C2273 C2272 1.391 . S
C2273 C2277 1.376 . S
C2274 C2272 1.394 . S
C2274 C2275 1.369 . S
C2274 C2278 1.531 . S
C2275 C2274 1.369 . S
C2275 C2276 1.410 . S
C2275 C2283 1.503 . S
C2276 C2275 1.410 . S
C2276 C2277 1.392 . S
C2276 C2279 1.511 . S
C2277 C2273 1.376 . S
C2277 C2276 1.392 . S
C2277 H2289 0.929 . S
C2278 C2274 1.531 . S
C2278 H2290 0.960 . S
C2278 H2291 0.962 . S
C2278 H2292 0.960 . S
C2279 C2276 1.511 . S
C2279 H2293 0.961 . S
C2279 H2294 0.961 . S
C2279 H2295 0.961 . S
C2280 C2281 1.370 . S
C2280 C2282 1.363 . S
C2280 H2296 0.931 . S
C2281 C2280 1.370 . S
C2281 C2285 1.408 . S
C2282 C2280 1.363 . S
C2282 C2283 1.370 . S
C2282 C2286 1.524 . S
C2283 C2275 1.503 . S
C2283 C2282 1.370 . S
C2283 C2284 1.403 . S
C2284 C2283 1.403 . S
C2284 C2285 1.404 . S
C2284 C2287 1.539 . S
C2285 C2281 1.408 . S
C2285 C2284 1.404 . S
C2285 H2297 0.930 1_554 S
C2286 C2282 1.524 . S
C2286 H2298 0.956 . S
C2286 H2299 0.961 . S
C2286 H2300 0.961 . S
C2287 C2284 1.539 . S
C2287 H2301 0.958 . S
C2287 H2302 0.961 . S
C2287 H2303 0.960 . S
H2288 C2272 0.931 . S
H2289 C2277 0.929 . S
H2290 C2278 0.960 . S
H2291 C2278 0.962 . S
H2292 C2278 0.960 . S
H2293 C2279 0.961 . S
H2294 C2279 0.961 . S
H2295 C2279 0.961 . S
H2296 C2280 0.931 . S
H2297 C2285 0.930 1_556 S
H2298 C2286 0.956 . S
H2299 C2286 0.961 . S
H2300 C2286 0.961 . S
H2301 C2287 0.958 . S
H2302 C2287 0.961 . S
H2303 C2287 0.960 . S
C2304 C2305 1.391 . S
C2304 C2306 1.394 . S
C2304 H2320 0.931 . S
C2305 C2304 1.391 . S
C2305 C2309 1.376 . S
C2306 C2304 1.394 . S
C2306 C2307 1.369 . S
C2306 C2310 1.531 . S
C2307 C2306 1.369 . S
C2307 C2308 1.410 . S
C2307 C2315 1.503 . S
C2308 C2307 1.410 . S
C2308 C2309 1.392 . S
C2308 C2311 1.511 . S
C2309 C2305 1.376 . S
C2309 C2308 1.392 . S
C2309 H2321 0.929 . S
C2310 C2306 1.531 . S
C2310 H2322 0.960 . S
C2310 H2323 0.962 . S
C2310 H2324 0.960 . S
C2311 C2308 1.511 . S
C2311 H2325 0.961 . S
C2311 H2326 0.961 . S
C2311 H2327 0.961 . S
C2312 C2313 1.370 . S
C2312 C2314 1.363 . S
C2312 H2328 0.931 . S
C2313 C2312 1.370 . S
C2313 C2317 1.408 . S
C2314 C2312 1.363 . S
C2314 C2315 1.370 . S
C2314 C2318 1.524 . S
C2315 C2307 1.503 . S
C2315 C2314 1.370 . S
C2315 C2316 1.403 . S
C2316 C2315 1.403 . S
C2316 C2317 1.404 . S
C2316 C2319 1.539 . S
C2317 C2313 1.408 . S
C2317 C2316 1.404 . S
C2317 H2329 0.930 . S
C2318 C2314 1.524 . S
C2318 H2330 0.956 . S
C2318 H2331 0.961 . S
C2318 H2332 0.961 . S
C2319 C2316 1.539 . S
C2319 H2333 0.958 . S
C2319 H2334 0.961 . S
C2319 H2335 0.960 . S
H2320 C2304 0.931 . S
H2321 C2309 0.929 . S
H2322 C2310 0.960 . S
H2323 C2310 0.962 . S
H2324 C2310 0.960 . S
H2325 C2311 0.961 . S
H2326 C2311 0.961 . S
H2327 C2311 0.961 . S
H2328 C2312 0.931 . S
H2329 C2317 0.930 . S
H2330 C2318 0.956 . S
H2331 C2318 0.961 . S
H2332 C2318 0.961 . S
H2333 C2319 0.958 . S
H2334 C2319 0.961 . S
H2335 C2319 0.960 . S
C2336 C2337 1.391 . S
C2336 C2338 1.394 . S
C2336 H2352 0.931 . S
C2337 C2336 1.391 . S
C2337 C2341 1.376 . S
C2338 C2336 1.394 . S
C2338 C2339 1.369 . S
C2338 C2342 1.531 . S
C2339 C2338 1.369 . S
C2339 C2340 1.410 . S
C2339 C2347 1.503 . S
C2340 C2339 1.410 . S
C2340 C2341 1.392 . S
C2340 C2343 1.511 . S
C2341 C2337 1.376 . S
C2341 C2340 1.392 . S
C2341 H2353 0.929 . S
C2342 C2338 1.531 . S
C2342 H2354 0.960 . S
C2342 H2355 0.962 . S
C2342 H2356 0.960 . S
C2343 C2340 1.511 . S
C2343 H2357 0.961 . S
C2343 H2358 0.961 . S
C2343 H2359 0.961 . S
C2344 C2345 1.370 . S
C2344 C2346 1.363 . S
C2344 H2360 0.931 . S
C2345 C2344 1.370 . S
C2345 C2349 1.408 . S
C2346 C2344 1.363 . S
C2346 C2347 1.370 . S
C2346 C2350 1.524 . S
C2347 C2339 1.503 . S
C2347 C2346 1.370 . S
C2347 C2348 1.403 . S
C2348 C2347 1.403 . S
C2348 C2349 1.404 . S
C2348 C2351 1.539 . S
C2349 C2345 1.408 . S
C2349 C2348 1.404 . S
C2349 H2361 0.930 . S
C2350 C2346 1.524 . S
C2350 H2362 0.956 . S
C2350 H2363 0.961 . S
C2350 H2364 0.961 . S
C2351 C2348 1.539 . S
C2351 H2365 0.958 . S
C2351 H2366 0.961 . S
C2351 H2367 0.960 . S
H2352 C2336 0.931 . S
H2353 C2341 0.929 . S
H2354 C2342 0.960 . S
H2355 C2342 0.962 . S
H2356 C2342 0.960 . S
H2357 C2343 0.961 . S
H2358 C2343 0.961 . S
H2359 C2343 0.961 . S
H2360 C2344 0.931 . S
H2361 C2349 0.930 . S
H2362 C2350 0.956 . S
H2363 C2350 0.961 . S
H2364 C2350 0.961 . S
H2365 C2351 0.958 . S
H2366 C2351 0.961 . S
H2367 C2351 0.960 . S
C2368 C2369 1.391 . S
C2368 C2370 1.394 . S
C2368 H2384 0.931 . S
C2369 C2368 1.391 . S
C2369 C2373 1.376 . S
C2370 C2368 1.394 . S
C2370 C2371 1.369 . S
C2370 C2374 1.531 . S
C2371 C2370 1.369 . S
C2371 C2372 1.410 . S
C2371 C2379 1.503 . S
C2372 C2371 1.410 . S
C2372 C2373 1.392 . S
C2372 C2375 1.511 . S
C2373 C2369 1.376 . S
C2373 C2372 1.392 . S
C2373 H2385 0.929 . S
C2374 C2370 1.531 . S
C2374 H2386 0.960 . S
C2374 H2387 0.962 . S
C2374 H2388 0.960 . S
C2375 C2372 1.511 . S
C2375 H2389 0.961 . S
C2375 H2390 0.961 . S
C2375 H2391 0.961 . S
C2376 C2377 1.370 . S
C2376 C2378 1.363 . S
C2376 H2392 0.931 . S
C2377 C2376 1.370 . S
C2377 C2381 1.408 . S
C2378 C2376 1.363 . S
C2378 C2379 1.370 . S
C2378 C2382 1.524 . S
C2379 C2371 1.503 . S
C2379 C2378 1.370 . S
C2379 C2380 1.403 . S
C2380 C2379 1.403 . S
C2380 C2381 1.404 . S
C2380 C2383 1.539 . S
C2381 C2377 1.408 . S
C2381 C2380 1.404 . S
C2381 H2393 0.930 1_554 S
C2382 C2378 1.524 . S
C2382 H2394 0.956 . S
C2382 H2395 0.961 . S
C2382 H2396 0.961 . S
C2383 C2380 1.539 . S
C2383 H2397 0.958 . S
C2383 H2398 0.961 . S
C2383 H2399 0.960 . S
H2384 C2368 0.931 . S
H2385 C2373 0.929 . S
H2386 C2374 0.960 . S
H2387 C2374 0.962 . S
H2388 C2374 0.960 . S
H2389 C2375 0.961 . S
H2390 C2375 0.961 . S
H2391 C2375 0.961 . S
H2392 C2376 0.931 . S
H2393 C2381 0.930 1_556 S
H2394 C2382 0.956 . S
H2395 C2382 0.961 . S
H2396 C2382 0.961 . S
H2397 C2383 0.958 . S
H2398 C2383 0.961 . S
H2399 C2383 0.960 . S
C2400 C2401 1.391 . S
C2400 C2402 1.394 . S
C2400 H2416 0.931 . S
C2401 C2400 1.391 . S
C2401 C2405 1.376 . S
C2402 C2400 1.394 . S
C2402 C2403 1.369 . S
C2402 C2406 1.531 . S
C2403 C2402 1.369 . S
C2403 C2404 1.410 . S
C2403 C2411 1.503 . S
C2404 C2403 1.410 . S
C2404 C2405 1.392 . S
C2404 C2407 1.511 . S
C2405 C2401 1.376 . S
C2405 C2404 1.392 . S
C2405 H2417 0.929 1_556 S
C2406 C2402 1.531 . S
C2406 H2418 0.960 . S
C2406 H2419 0.962 . S
C2406 H2420 0.960 . S
C2407 C2404 1.511 . S
C2407 H2421 0.961 . S
C2407 H2422 0.961 . S
C2407 H2423 0.961 . S
C2408 C2409 1.370 . S
C2408 C2410 1.363 . S
C2408 H2424 0.931 . S
C2409 C2408 1.370 . S
C2409 C2413 1.408 . S
C2410 C2408 1.363 . S
C2410 C2411 1.370 . S
C2410 C2414 1.524 . S
C2411 C2403 1.503 . S
C2411 C2410 1.370 . S
C2411 C2412 1.403 . S
C2412 C2411 1.403 . S
C2412 C2413 1.404 . S
C2412 C2415 1.539 . S
C2413 C2409 1.408 . S
C2413 C2412 1.404 . S
C2413 H2425 0.930 . S
C2414 C2410 1.524 . S
C2414 H2426 0.956 . S
C2414 H2427 0.961 . S
C2414 H2428 0.961 . S
C2415 C2412 1.539 . S
C2415 H2429 0.958 . S
C2415 H2430 0.961 . S
C2415 H2431 0.960 . S
H2416 C2400 0.931 . S
H2417 C2405 0.929 1_554 S
H2418 C2406 0.960 . S
H2419 C2406 0.962 . S
H2420 C2406 0.960 . S
H2421 C2407 0.961 . S
H2422 C2407 0.961 . S
H2423 C2407 0.961 . S
H2424 C2408 0.931 . S
H2425 C2413 0.930 . S
H2426 C2414 0.956 . S
H2427 C2414 0.961 . S
H2428 C2414 0.961 . S
H2429 C2415 0.958 . S
H2430 C2415 0.961 . S
H2431 C2415 0.960 . S
C2432 C2433 1.391 . S
C2432 C2434 1.394 . S
C2432 H2448 0.931 . S
C2433 C2432 1.391 . S
C2433 C2437 1.376 . S
C2434 C2432 1.394 . S
C2434 C2435 1.369 . S
C2434 C2438 1.531 . S
C2435 C2434 1.369 . S
C2435 C2436 1.410 . S
C2435 C2443 1.503 . S
C2436 C2435 1.410 . S
C2436 C2437 1.392 . S
C2436 C2439 1.511 . S
C2437 C2433 1.376 . S
C2437 C2436 1.392 . S
C2437 H2449 0.929 . S
C2438 C2434 1.531 . S
C2438 H2450 0.960 . S
C2438 H2451 0.962 . S
C2438 H2452 0.960 . S
C2439 C2436 1.511 . S
C2439 H2453 0.961 . S
C2439 H2454 0.961 . S
C2439 H2455 0.961 . S
C2440 C2441 1.370 . S
C2440 C2442 1.363 . S
C2440 H2456 0.931 . S
C2441 C2440 1.370 . S
C2441 C2445 1.408 . S
C2442 C2440 1.363 . S
C2442 C2443 1.370 . S
C2442 C2446 1.524 . S
C2443 C2435 1.503 . S
C2443 C2442 1.370 . S
C2443 C2444 1.403 . S
C2444 C2443 1.403 . S
C2444 C2445 1.404 . S
C2444 C2447 1.539 . S
C2445 C2441 1.408 . S
C2445 C2444 1.404 . S
C2445 H2457 0.930 . S
C2446 C2442 1.524 . S
C2446 H2458 0.956 . S
C2446 H2459 0.961 . S
C2446 H2460 0.961 . S
C2447 C2444 1.539 . S
C2447 H2461 0.958 . S
C2447 H2462 0.961 . S
C2447 H2463 0.960 . S
H2448 C2432 0.931 . S
H2449 C2437 0.929 . S
H2450 C2438 0.960 . S
H2451 C2438 0.962 . S
H2452 C2438 0.960 . S
H2453 C2439 0.961 . S
H2454 C2439 0.961 . S
H2455 C2439 0.961 . S
H2456 C2440 0.931 . S
H2457 C2445 0.930 . S
H2458 C2446 0.956 . S
H2459 C2446 0.961 . S
H2460 C2446 0.961 . S
H2461 C2447 0.958 . S
H2462 C2447 0.961 . S
H2463 C2447 0.960 . S
C2464 C2465 1.391 . S
C2464 C2466 1.394 . S
C2464 H2480 0.931 . S
C2465 C2464 1.391 . S
C2465 C2469 1.376 . S
C2466 C2464 1.394 . S
C2466 C2467 1.369 . S
C2466 C2470 1.531 . S
C2467 C2466 1.369 . S
C2467 C2468 1.410 . S
C2467 C2475 1.503 . S
C2468 C2467 1.410 . S
C2468 C2469 1.392 . S
C2468 C2471 1.511 . S
C2469 C2465 1.376 . S
C2469 C2468 1.392 . S
C2469 H2481 0.929 . S
C2470 C2466 1.531 . S
C2470 H2482 0.960 . S
C2470 H2483 0.962 . S
C2470 H2484 0.960 . S
C2471 C2468 1.511 . S
C2471 H2485 0.961 . S
C2471 H2486 0.961 . S
C2471 H2487 0.961 . S
C2472 C2473 1.370 . S
C2472 C2474 1.363 . S
C2472 H2488 0.931 . S
C2473 C2472 1.370 . S
C2473 C2477 1.408 . S
C2474 C2472 1.363 . S
C2474 C2475 1.370 . S
C2474 C2478 1.524 . S
C2475 C2467 1.503 . S
C2475 C2474 1.370 . S
C2475 C2476 1.403 . S
C2476 C2475 1.403 . S
C2476 C2477 1.404 . S
C2476 C2479 1.539 . S
C2477 C2473 1.408 . S
C2477 C2476 1.404 . S
C2477 H2489 0.930 . S
C2478 C2474 1.524 . S
C2478 H2490 0.956 . S
C2478 H2491 0.961 . S
C2478 H2492 0.961 . S
C2479 C2476 1.539 . S
C2479 H2493 0.958 . S
C2479 H2494 0.961 . S
C2479 H2495 0.960 . S
H2480 C2464 0.931 . S
H2481 C2469 0.929 . S
H2482 C2470 0.960 . S
H2483 C2470 0.962 . S
H2484 C2470 0.960 . S
H2485 C2471 0.961 . S
H2486 C2471 0.961 . S
H2487 C2471 0.961 . S
H2488 C2472 0.931 . S
H2489 C2477 0.930 . S
H2490 C2478 0.956 . S
H2491 C2478 0.961 . S
H2492 C2478 0.961 . S
H2493 C2479 0.958 . S
H2494 C2479 0.961 . S
H2495 C2479 0.960 . S
C449 C96 1.434 . S
C457 C12 1.447 . S
C481 C26 1.450 . S
C489 C110 1.449 . S
C513 C68 1.440 . S
C521 C40 1.449 . S
C545 C54 1.430 . S
C553 C82 1.445 . S
C577 C124 1.433 . S
C585 C208 1.445 . S
C609 C222 1.431 . S
C617 C138 1.444 . S
C641 C152 1.431 . S
C649 C180 1.439 . S
C673 C194 1.449 . S
C681 C166 1.444 . S
C705 C236 1.429 . S
C713 C320 1.445 . S
C737 C250 1.429 . S
C745 C334 1.444 . S
C769 C292 1.443 . S
C777 C264 1.440 . S
C801 C306 1.434 . S
C809 C278 1.439 . S
C833 C348 1.450 . S
C841 C432 1.449 . S
C865 C362 1.448 . S
C873 C446 1.443 . S
C897 C404 1.429 . S
C905 C376 1.440 . S
C929 C390 1.453 . S
C937 C418 1.447 . S
C961 C5 1.180 1_556 S
C969 C103 1.271 . S
C993 C61 1.175 1_554 S
C1001 C19 1.270 . S
C1025 C75 1.242 . S
C1033 C33 1.236 . S
C1057 C47 1.175 . S
C1065 C89 1.271 . S
C1089 C117 1.259 . S
C1097 C215 1.242 . S
C1121 C173 1.215 1_556 S
C1129 C131 1.252 . S
C1153 C187 1.306 . S
C1161 C145 1.217 . S
C1185 C201 1.216 . S
C1193 C159 1.254 . S
C1217 C229 1.300 . S
C1225 C327 1.217 . S
C1249 C243 1.295 . S
C1257 C285 1.227 . S
C1281 C299 1.298 . S
C1289 C257 1.219 1_556 S
C1313 C271 1.267 . S
C1321 C313 1.223 1_554 S
C1345 C341 1.195 . S
C1353 C439 1.264 . S
C1377 C397 1.228 . S
C1385 C355 1.249 . S
C1409 C369 1.206 1_554 S
C1417 C411 1.258 . S
C1441 C383 1.289 . S
C1449 C425 1.217 1_556 S
C1473 C431 1.462 . S
C1481 C11 1.465 . S
C1505 C221 1.464 . S
C1513 C25 1.469 . S
C1537 C39 1.487 . S
C1545 C403 1.476 . S
C1569 C53 1.465 . S
C1577 C193 1.469 . S
C1601 C67 1.439 . S
C1609 C375 1.456 . S
C1633 C81 1.487 . S
C1641 C165 1.477 . S
C1665 C95 1.451 . S
C1673 C347 1.460 . S
C1697 C137 1.481 . S
C1705 C109 1.475 . S
C1729 C319 1.487 . S
C1737 C123 1.477 . S
C1761 C151 1.482 . S
C1769 C291 1.473 . S
C1793 C263 1.488 . S
C1801 C179 1.477 . S
C1825 C235 1.438 . S
C1833 C207 1.457 . S
C1857 C249 1.486 . S
C1865 C445 1.477 . S
C1889 C277 1.487 . S
C1897 C417 1.477 . S
C1921 C305 1.441 . S
C1929 C389 1.458 . S
C1953 C361 1.488 . S
C1961 C333 1.477 . S
C1985 C4 1.006 . S
C1993 C102 1.005 . S
C2017 C18 0.976 . S
C2025 C60 1.017 . S
C2049 C74 1.045 1_556 S
C2057 C32 0.988 . S
C2081 C46 0.969 1_554 S
C2089 C88 1.020 . S
C2113 C214 1.027 . S
C2121 C116 1.002 . S
C2145 C172 1.011 . S
C2153 C130 0.997 . S
C2177 C144 0.964 . S
C2185 C186 1.023 1_554 S
C2209 C200 0.963 . S
C2217 C158 1.020 1_556 S
C2241 C326 1.003 1_556 S
C2249 C228 1.006 . S
C2273 C284 0.986 . S
C2281 C242 1.013 1_554 S
C2305 C298 0.967 . S
C2313 C256 1.021 . S
C2337 C312 0.974 . S
C2345 C270 1.018 . S
C2369 C340 0.968 . S
C2377 C438 1.016 1_554 S
C2401 C354 1.026 1_556 S
C2409 C396 0.992 . S
C2433 C368 1.020 . S
C2441 C410 0.994 . S
C2465 C424 0.963 . S
C2473 C382 1.020 . S
