# Generated by pormake.
# Topology zft, (5)-cn, num edge types: 1
# Building blocks:
#     Node 0, Type 0, BuildingBlock: XOMCOT_clean_sbu_1, # of connection points: 5
#     Node 1, Type 0, BuildingBlock: XOMCOT_clean_sbu_1, # of connection points: 5
#     Node 2, Type 0, BuildingBlock: XOMCOT_clean_sbu_1, # of connection points: 5
#     Node 3, Type 0, BuildingBlock: XOMCOT_clean_sbu_1, # of connection points: 5
#     Node 4, Type 0, BuildingBlock: XOMCOT_clean_sbu_1, # of connection points: 5
#     Node 5, Type 0, BuildingBlock: XOMCOT_clean_sbu_1, # of connection points: 5
#     Node 6, Type 0, BuildingBlock: XOMCOT_clean_sbu_1, # of connection points: 5
#     Node 7, Type 0, BuildingBlock: XOMCOT_clean_sbu_1, # of connection points: 5
#     Edge 8, Type (0, 0), BuildingBlock: EZIPEK_clean_linker_0, # of connection points: 2
#     Edge 9, Type (0, 0), BuildingBlock: EZIPEK_clean_linker_0, # of connection points: 2
#     Edge 10, Type (0, 0), BuildingBlock: EZIPEK_clean_linker_0, # of connection points: 2
#     Edge 11, Type (0, 0), BuildingBlock: EZIPEK_clean_linker_0, # of connection points: 2
#     Edge 12, Type (0, 0), BuildingBlock: EZIPEK_clean_linker_0, # of connection points: 2
#     Edge 13, Type (0, 0), BuildingBlock: EZIPEK_clean_linker_0, # of connection points: 2
#     Edge 14, Type (0, 0), BuildingBlock: EZIPEK_clean_linker_0, # of connection points: 2
#     Edge 15, Type (0, 0), BuildingBlock: EZIPEK_clean_linker_0, # of connection points: 2
#     Edge 16, Type (0, 0), BuildingBlock: EZIPEK_clean_linker_0, # of connection points: 2
#     Edge 17, Type (0, 0), BuildingBlock: EZIPEK_clean_linker_0, # of connection points: 2
#     Edge 18, Type (0, 0), BuildingBlock: EZIPEK_clean_linker_0, # of connection points: 2
#     Edge 19, Type (0, 0), BuildingBlock: EZIPEK_clean_linker_0, # of connection points: 2
#     Edge 20, Type (0, 0), BuildingBlock: EZIPEK_clean_linker_0, # of connection points: 2
#     Edge 21, Type (0, 0), BuildingBlock: EZIPEK_clean_linker_0, # of connection points: 2
#     Edge 22, Type (0, 0), BuildingBlock: EZIPEK_clean_linker_0, # of connection points: 2
#     Edge 23, Type (0, 0), BuildingBlock: EZIPEK_clean_linker_0, # of connection points: 2
#     Edge 24, Type (0, 0), BuildingBlock: EZIPEK_clean_linker_0, # of connection points: 2
#     Edge 25, Type (0, 0), BuildingBlock: EZIPEK_clean_linker_0, # of connection points: 2
#     Edge 26, Type (0, 0), BuildingBlock: EZIPEK_clean_linker_0, # of connection points: 2
#     Edge 27, Type (0, 0), BuildingBlock: EZIPEK_clean_linker_0, # of connection points: 2
# Relax obj value: 0.076
# Max RMSD: 0.109
# Mean RMSD: 0.109
data_MOF--net-zft--node1-XOMCOT_clean_sbu_1--edge1-EZIPEK_clean_linker_0
_symmetry_space_group_name_H-M    P1
_symmetry_Int_Tables_number       1
_symmetry_cell_setting            triclinic
loop_
_symmetry_equiv_pos_as_xyz
'x, y, z'
_cell_length_a     22.710364
_cell_length_b     22.692923
_cell_length_c     34.546692
_cell_angle_alpha  90.669454
_cell_angle_beta   89.786932
_cell_angle_gamma 90.068098
loop_
_atom_site_label
_atom_site_type_symbol
_atom_site_fract_x
_atom_site_fract_y
_atom_site_fract_z
_atom_type_partial_charge
C0 C 0.07513 0.24585 0.29817 0.0
C1 C 0.03178 0.20693 0.30868 0.0
N2 N 0.99137 0.20553 0.28039 0.0
N3 N 0.06185 0.26935 0.26361 0.0
C4 C 0.01026 0.24381 0.25336 0.0
H5 H 0.11521 0.25476 0.31398 0.0
Co6 Co 0.11676 0.31489 0.23772 0.0
C7 C 0.06414 0.35029 0.16296 0.0
O8 O 0.11263 0.32995 0.14686 0.0
N9 N 0.17437 0.36141 0.21258 0.0
C10 C 0.25145 0.39618 0.17983 0.0
C11 C 0.22438 0.34637 0.19338 0.0
C12 C 0.17259 0.42093 0.21018 0.0
N13 N 0.21891 0.4429 0.19064 0.0
O14 O 0.09964 0.38046 0.27302 0.0
H15 H 0.24088 0.30243 0.18869 0.0
H16 H 0.13807 0.448 0.22264 0.0
O17 O 0.05773 0.3445 0.19975 0.0
C18 C 0.13573 0.38855 0.30097 0.0
O19 O 0.18236 0.35462 0.30324 0.0
N20 N 0.1354 0.24757 0.20745 0.0
C21 C 0.17543 0.14555 0.17052 0.0
C22 C 0.12163 0.17055 0.15997 0.0
C23 C 0.10114 0.22038 0.18001 0.0
C24 C 0.1847 0.22013 0.22048 0.0
C25 C 0.20628 0.16976 0.20189 0.0
H26 H 0.05803 0.23698 0.17306 0.0
H27 H 0.20865 0.23903 0.24465 0.0
H28 H 0.98855 0.25043 0.22597 0.0
H29 H 0.03077 0.18021 0.33443 0.0
H30 H 0.2923 0.39819 0.16363 0.0
H31 H 0.09559 0.15138 0.13682 0.0
H32 H 0.24714 0.1503 0.21155 0.0
C33 C 0.27088 0.56916 0.53948 0.0
C34 C 0.30535 0.52155 0.54781 0.0
N35 N 0.30973 0.48796 0.51568 0.0
N36 N 0.25257 0.5654 0.50249 0.0
C37 C 0.27773 0.51552 0.48832 0.0
H38 H 0.26358 0.60674 0.55828 0.0
Co39 Co 0.21328 0.62881 0.48131 0.0
C40 C 0.14777 0.53703 0.43598 0.0
O41 O 0.13326 0.51006 0.46809 0.0
N42 N 0.17444 0.69474 0.46175 0.0
C43 C 0.1476 0.78835 0.45483 0.0
C44 C 0.19005 0.75126 0.46891 0.0
C45 C 0.12185 0.69855 0.4436 0.0
N46 N 0.10486 0.75511 0.43896 0.0
O47 O 0.14484 0.61133 0.51286 0.0
H48 H 0.22825 0.76495 0.4852 0.0
H49 H 0.0951 0.66084 0.43566 0.0
O50 O 0.18228 0.58132 0.43829 0.0
C51 C 0.1386 0.64217 0.54372 0.0
O52 O 0.17794 0.68308 0.55148 0.0
N53 N 0.28204 0.64769 0.45306 0.0
C54 C 0.38966 0.68061 0.42008 0.0
C55 C 0.35282 0.63987 0.40123 0.0
C56 C 0.29906 0.62391 0.41821 0.0
C57 C 0.31854 0.68554 0.47236 0.0
C58 C 0.372 0.70345 0.45613 0.0
H59 H 0.2724 0.59142 0.40359 0.0
H60 H 0.30613 0.7017 0.50081 0.0
H61 H 0.27611 0.5019 0.45821 0.0
H62 H 0.3291 0.5143 0.57445 0.0
H63 H 0.14687 0.83594 0.45738 0.0
H64 H 0.36568 0.62043 0.3737 0.0
H65 H 0.3998 0.73422 0.47184 0.0
C66 C 0.95852 0.77218 0.78696 0.0
C67 C 1.00404 0.81022 0.79415 0.0
N68 N 0.03744 0.81381 0.76206 0.0
N69 N 0.96144 0.75215 0.75005 0.0
C70 C 0.0115 0.77712 0.73591 0.0
H71 H 0.92292 0.76331 0.8068 0.0
Co72 Co 0.89704 0.70802 0.72977 0.0
C73 C 0.96997 0.69805 0.657 0.0
O74 O 0.9645 0.75446 0.64992 0.0
N75 N 0.8326 0.66389 0.71226 0.0
C76 C 0.74021 0.63216 0.70842 0.0
C77 C 0.77643 0.67624 0.72213 0.0
C78 C 0.82959 0.61239 0.69218 0.0
N79 N 0.77368 0.59204 0.68961 0.0
O80 O 0.91826 0.64311 0.76251 0.0
H81 H 0.76304 0.71411 0.7393 0.0
H82 H 0.86762 0.58922 0.68077 0.0
O83 O 0.94642 0.67562 0.68723 0.0
C84 C 0.88699 0.64231 0.79333 0.0
O85 O 0.84769 0.68407 0.7988 0.0
N86 N 0.87103 0.77348 0.70011 0.0
C87 C 0.8184 0.86995 0.66448 0.0
C88 C 0.81823 0.81448 0.64632 0.0
C89 C 0.84487 0.76676 0.66463 0.0
C90 C 0.86939 0.82718 0.71841 0.0
C91 C 0.84493 0.8761 0.70071 0.0
H92 H 0.84338 0.72407 0.65058 0.0
H93 H 0.88466 0.83257 0.74764 0.0
H94 H 0.02787 0.77084 0.70686 0.0
H95 H 0.01103 0.83518 0.82065 0.0
H96 H 0.69302 0.62912 0.71248 0.0
H97 H 0.79698 0.80801 0.61857 0.0
H98 H 0.84447 0.91809 0.71598 0.0
C99 C 0.78956 0.50208 0.03773 0.0
C100 C 0.74971 0.54669 0.04418 0.0
N101 N 0.71381 0.54895 1.01351 0.0
N102 N 0.77893 0.47568 1.00311 0.0
C103 C 0.73221 0.50593 0.98899 0.0
H104 H 0.82334 0.48948 0.05783 0.0
Co105 Co 0.81983 0.40919 0.98222 0.0
C106 C 0.87948 0.45976 0.90915 0.0
O107 O 0.89745 0.40905 0.89493 0.0
N108 N 0.85998 0.34261 0.96292 0.0
C109 C 0.88037 0.24904 0.94785 0.0
C110 C 0.83684 0.28794 0.95894 0.0
C111 C 0.91797 0.33533 0.95529 0.0
N112 N 0.93113 0.27924 0.9456 0.0
O113 O 0.88611 0.42567 1.01622 0.0
H114 H 0.79132 0.27669 0.96438 0.0
H115 H 0.9499 0.3706 0.95595 0.0
O116 O 0.85148 0.46219 0.94149 0.0
C117 C 0.88974 0.38973 0.04443 0.0
O118 O 0.85049 0.34728 0.04665 0.0
N119 N 0.75357 0.38848 0.95187 0.0
C120 C 0.65474 0.34129 0.91523 0.0
C121 C 0.70303 0.36019 0.89347 0.0
C122 C 0.75259 0.38256 0.91243 0.0
C123 C 0.70641 0.37061 0.97334 0.0
C124 C 0.65633 0.34712 0.95557 0.0
H125 H 0.79038 0.39284 0.89516 0.0
H126 H 0.7084 0.37325 1.0046 0.0
H127 H 0.71028 0.49543 0.96206 0.0
H128 H 0.74609 0.57418 0.0699 0.0
H129 H 0.87535 0.20238 0.94186 0.0
H130 H 0.70332 0.35531 0.86224 0.0
H131 H 0.61974 0.33231 0.97318 0.0
C132 C 0.55713 0.25263 0.50068 0.0
C133 C 0.51402 0.28895 0.48692 0.0
N134 N 0.47914 0.3042 0.51677 0.0
N135 N 0.54941 0.2441 0.53899 0.0
C136 C 0.50129 0.27683 0.54805 0.0
H137 H 0.59413 0.23614 0.48409 0.0
Co138 Co 0.60775 0.20274 0.56587 0.0
C139 C 0.52024 0.19971 0.63412 0.0
O140 O 0.5187 0.25704 0.63923 0.0
N141 N 0.66775 0.16184 0.59015 0.0
C142 C 0.75801 0.13477 0.60691 0.0
C143 C 0.72437 0.17967 0.59244 0.0
C144 C 0.66793 0.10593 0.60308 0.0
N145 N 0.72247 0.08835 0.61311 0.0
O146 O 0.58821 0.13228 0.53554 0.0
H147 H 0.74061 0.2217 0.58249 0.0
H148 H 0.6295 0.07768 0.6033 0.0
O149 O 0.55169 0.17662 0.60701 0.0
C150 C 0.62427 0.11928 0.5083 0.0
O151 O 0.6714 0.15208 0.50374 0.0
N152 N 0.6306 0.2728 0.59267 0.0
C153 C 0.67889 0.37643 0.62418 0.0
C154 C 0.66148 0.32999 0.64816 0.0
C155 C 0.63946 0.27775 0.6317 0.0
C156 C 0.64863 0.31715 0.569 0.0
C157 C 0.673 0.36906 0.58407 0.0
H158 H 0.63082 0.24096 0.65028 0.0
H159 H 0.64617 0.31158 0.53797 0.0
H160 H 0.48449 0.28383 0.57686 0.0
H161 H 0.5107 0.30603 0.45787 0.0
H162 H 0.80532 0.13494 0.61069 0.0
H163 H 0.66668 0.33339 0.67926 0.0
H164 H 0.68738 0.4032 0.56451 0.0
C165 C 0.21049 0.09903 0.78408 0.0
C166 C 0.17221 0.05786 0.76935 0.0
N167 N 0.19793 1.0047 0.77113 0.0
N168 N 0.25994 0.07238 0.79661 0.0
C169 C 0.25215 0.01496 0.78629 0.0
H170 H 0.20136 0.14556 0.78748 0.0
Co171 Co 0.31578 0.11782 0.825 0.0
C172 C 0.33382 1.00132 0.8738 0.0
O173 O 0.29889 0.96333 0.85679 0.0
N174 N 0.37014 0.16487 0.8528 0.0
C175 C 0.41633 0.20513 0.90343 0.0
C176 C 0.37005 0.17066 0.89183 0.0
C177 C 0.41717 0.19717 0.84128 0.0
N178 N 0.44592 0.22151 0.8717 0.0
O179 O 0.37653 0.09548 0.78815 0.0
H180 H 0.33837 0.1509 0.91097 0.0
H181 H 0.43092 0.20209 0.81153 0.0
O182 O 0.3382 0.05407 0.86131 0.0
C183 C 0.37467 0.12915 0.75873 0.0
O184 O 0.33392 0.1702 0.7581 0.0
N185 N 0.25472 0.14336 0.85815 0.0
C186 C 0.15365 0.1877 0.89359 0.0
C187 C 0.16592 0.12728 0.89446 0.0
C188 C 0.21666 0.10581 0.87613 0.0
C189 C 0.24368 0.20244 0.8577 0.0
C190 C 0.19348 0.22565 0.87555 0.0
H191 H 0.22369 0.05882 0.87454 0.0
H192 H 0.2727 0.23139 0.84185 0.0
H193 H 0.28459 0.98095 0.79036 0.0
H194 H 0.12759 0.0659 0.7598 0.0
H195 H 0.42839 0.21623 0.93292 0.0
H196 H 0.13512 0.09682 0.90747 0.0
H197 H 0.18446 0.27241 0.87382 0.0
C198 C 0.41948 0.72763 1.01097 0.0
C199 C 0.46033 0.68849 0.99625 0.0
N200 N 0.51153 0.69776 1.01479 0.0
N201 N 0.44479 0.76155 0.03863 0.0
C202 C 0.50138 0.74273 0.03992 0.0
H203 H 0.37333 0.72909 1.00347 0.0
Co204 Co 0.40286 0.81526 0.07028 0.0
C205 C 0.48532 0.80963 0.13935 0.0
O206 O 0.45184 0.7723 0.15794 0.0
N207 N 0.36065 0.87048 0.10168 0.0
C208 C 0.32145 0.91666 0.15299 0.0
C209 C 0.35599 0.87082 0.1408 0.0
C210 C 0.32682 0.91662 0.09083 0.0
N211 N 0.30334 0.94547 0.12164 0.0
O212 O 0.43001 0.87855 0.03759 0.0
H213 H 0.37359 0.83845 0.15984 0.0
H214 H 0.31849 0.92837 0.06115 0.0
O215 O 0.47198 0.82667 0.10514 0.0
C216 C 0.39754 0.88094 1.00751 0.0
O217 O 0.35262 0.84469 1.00468 0.0
N218 N 0.3709 0.75119 0.09867 0.0
C219 C 0.3142 0.65655 0.13385 0.0
C220 C 0.37372 0.65269 0.12354 0.0
C221 C 0.40127 0.70049 0.10606 0.0
C222 C 0.31174 0.75345 0.10605 0.0
C223 C 0.28325 0.70798 0.12535 0.0
H224 H 0.44758 0.69713 0.09962 0.0
H225 H 0.28584 0.7906 0.09684 0.0
H226 H 0.53344 0.75855 0.06067 0.0
H227 H 0.45226 0.65353 0.97534 0.0
H228 H 0.30935 0.92746 0.18258 0.0
H229 H 0.39882 0.61317 0.12924 0.0
H230 H 0.23681 0.71195 0.13219 0.0
C231 C 0.70684 0.01245 0.28811 0.0
C232 C 0.74095 0.0602 0.2787 0.0
N233 N 0.79735 0.04634 0.28559 0.0
N234 N 0.74139 0.96797 0.30045 0.0
C235 C 0.79677 0.99032 0.29852 0.0
H236 H 0.65931 0.01159 0.28797 0.0
Co237 Co 0.7111 0.89528 0.31859 0.0
C238 C 0.67995 0.98388 0.3804 0.0
O239 O 0.72884 0.01297 0.37386 0.0
N240 N 0.67923 0.82425 0.33602 0.0
C241 C 0.65865 0.72951 0.34551 0.0
C242 C 0.70023 0.76884 0.3321 0.0
C243 C 0.62503 0.81749 0.35175 0.0
N244 N 0.61157 0.76049 0.35786 0.0
O245 O 0.64503 0.90169 0.28393 0.0
H246 H 0.74192 0.75737 0.31888 0.0
H247 H 0.59475 0.85343 0.35726 0.0
O248 O 0.66832 0.93697 0.36098 0.0
C249 C 0.66002 0.88335 0.25017 0.0
O250 O 0.71542 0.86956 0.2438 0.0
N251 N 0.77918 0.88234 0.34835 0.0
C252 C 0.8856 0.84367 0.37949 0.0
C253 C 0.84513 0.87538 0.40238 0.0
C254 C 0.79142 0.89324 0.38647 0.0
C255 C 0.81866 0.85239 0.32574 0.0
C256 C 0.87165 0.83204 0.34075 0.0
H257 H 0.76025 0.91467 0.40521 0.0
H258 H 0.80814 0.84324 0.29576 0.0
H259 H 0.83584 0.96735 0.30777 0.0
H260 H 0.72546 0.10287 0.26945 0.0
H261 H 0.66199 0.68193 0.34536 0.0
H262 H 0.85438 0.88485 0.43256 0.0
H263 H 0.9016 0.80744 0.32221 0.0
C264 C 0.16366 0.48609 0.33138 0.0
C265 C 0.12686 0.43543 0.3311 0.0
C266 C 0.08671 0.46602 0.39458 0.0
C267 C 0.13024 0.51101 0.3971 0.0
N268 N 0.17866 0.58392 0.35774 0.0
N269 N 0.05024 0.37837 0.36125 0.0
C270 C 0.15964 0.52738 0.36252 0.0
C271 C 0.08657 0.42639 0.36207 0.0
N272 N 0.20402 0.49411 0.30256 0.0
N273 N 0.04253 0.46469 0.42151 0.0
H274 H 0.04657 0.35075 0.33708 0.0
H275 H 0.02557 0.36439 0.38487 0.0
H276 H 0.03734 0.49788 0.44239 0.0
H277 H 1.00688 0.43591 0.42027 0.0
H278 H 0.23661 0.52647 0.30377 0.0
H279 H 0.20766 0.46565 0.27886 0.0
H280 H 0.19668 0.59909 0.33192 0.0
H281 H 0.16773 0.61779 0.37706 0.0
C282 C 0.06469 0.64623 0.64114 0.0
C283 C 1.00687 0.66212 0.63006 0.0
C284 C 0.03028 0.63737 0.56207 0.0
C285 C 0.09035 0.63226 0.57249 0.0
N286 N 0.15939 0.60593 0.6217 0.0
N287 N 0.93113 0.66583 0.58171 0.0
C288 C 0.10577 0.6285 0.61212 0.0
C289 C 0.98835 0.65428 0.59105 0.0
N290 N 0.08141 0.65191 0.67898 0.0
N291 N 0.01334 0.62511 0.52495 0.0
H292 H 0.89903 0.67402 0.60274 0.0
H293 H 0.91545 0.66845 0.55353 0.0
H294 H 0.04276 0.61205 0.50336 0.0
H295 H 0.96973 0.62318 0.51595 0.0
H296 H 0.12483 0.6491 0.68828 0.0
H297 H 0.05183 0.66167 0.70126 0.0
H298 H 0.17256 0.5974 0.6499 0.0
H299 H 0.18817 0.58933 0.60073 0.0
C300 C 0.93808 0.53286 0.87011 0.0
C301 C 0.88246 0.51176 0.88317 0.0
C302 C 0.8341 0.5663 0.83153 0.0
C303 C 0.88837 0.59279 0.8212 0.0
N304 N 0.99148 0.60788 0.83454 0.0
N305 N 0.77633 0.52156 0.88174 0.0
C306 C 0.94047 0.57772 0.84141 0.0
C307 C 0.83014 0.53269 0.8657 0.0
N308 N 0.98861 0.51013 0.88519 0.0
N309 N 0.78649 0.57109 0.80769 0.0
H310 H 0.77095 0.49922 0.90748 0.0
H311 H 0.73754 0.54077 0.87199 0.0
H312 H 0.78842 0.59289 0.78137 0.0
H313 H 0.74757 0.54753 0.8117 0.0
H314 H 0.03027 0.51834 0.87374 0.0
H315 H 0.98856 0.48059 0.90812 0.0
H316 H 0.0292 0.60338 0.85128 0.0
H317 H 0.99489 0.64078 0.81384 0.0
C318 C 0.91477 0.38795 0.11512 0.0
C319 C 0.93404 0.39569 0.07634 0.0
C320 C 0.03584 0.39789 0.09983 0.0
C321 C 0.01753 0.37539 0.13654 0.0
N322 N 0.93482 0.35033 0.17856 0.0
N323 N 0.0153 0.40675 0.0317 0.0
C324 C 0.95573 0.37159 0.14433 0.0
C325 C 0.99511 0.40115 0.06874 0.0
N326 N 0.85708 0.39818 0.12444 0.0
N327 N 0.092 0.41815 0.09461 0.0
H328 H 0.98804 0.41405 1.00825 0.0
H329 H 0.05938 0.40104 1.02404 0.0
H330 H 0.12358 0.41877 0.11629 0.0
H331 H 0.10537 0.44087 0.07005 0.0
H332 H 0.84144 0.39967 0.15283 0.0
H333 H 0.82619 0.4119 0.1042 0.0
H334 H 0.89128 0.33686 0.18224 0.0
H335 H 0.95978 0.34447 0.2032 0.0
C336 C 0.59031 0.08796 0.44287 0.0
C337 C 0.61296 0.07167 0.47926 0.0
C338 C 0.64908 0.97963 0.44997 0.0
C339 C 0.64185 1.00448 0.41287 0.0
N340 N 0.60001 0.07975 0.37304 0.0
N341 N 0.65844 0.99858 0.51901 0.0
C342 C 0.60982 0.05754 0.40899 0.0
C343 C 0.63978 0.01579 0.48343 0.0
N344 N 0.54982 0.13206 0.44108 0.0
N345 N 0.66461 0.92184 0.45301 0.0
H346 H 0.64897 0.02303 0.54397 0.0
H347 H 0.6845 0.96156 0.52347 0.0
H348 H 0.66791 0.89423 0.42875 0.0
H349 H 0.66736 0.90001 0.47928 0.0
H350 H 0.52894 0.14444 0.41565 0.0
H351 H 0.53191 0.15058 0.46623 0.0
H352 H 0.58294 0.12165 0.36841 0.0
H353 H 0.61113 0.05654 0.3478 0.0
C354 C 0.4782 0.13123 0.72992 0.0
C355 C 0.41631 0.12518 0.72504 0.0
C356 C 0.42617 0.15201 0.65645 0.0
C357 C 0.48703 0.16245 0.66207 0.0
N358 N 0.57396 0.14479 0.69951 0.0
N359 N 0.33572 0.10901 0.68125 0.0
C360 C 0.514 0.14614 0.69735 0.0
C361 C 0.39187 0.12864 0.68733 0.0
N362 N 0.50248 0.12602 0.76583 0.0
N363 N 0.40076 0.16676 0.6221 0.0
H364 H 0.31056 0.09019 0.70327 0.0
H365 H 0.31644 0.1058 0.65401 0.0
H366 H 0.42527 0.18124 0.59842 0.0
H367 H 0.35545 0.16715 0.61763 0.0
H368 H 0.54544 0.13851 0.7724 0.0
H369 H 0.47913 0.11083 0.78967 0.0
H370 H 0.59703 0.1289 0.72317 0.0
H371 H 0.60061 0.15399 0.67573 0.0
C372 C 0.42181 0.90042 0.93834 0.0
C373 C 0.40694 0.92309 0.97547 0.0
C374 C 0.35524 1.00545 0.94605 0.0
C375 C 0.36722 0.98151 0.90855 0.0
N376 N 0.42637 0.91652 0.86892 0.0
N377 N 0.38127 1.00732 1.01421 0.0
C378 C 0.40565 0.93241 0.90471 0.0
C379 C 0.38155 0.97951 0.97903 0.0
N380 N 0.44913 0.84697 0.93544 0.0
N381 N 0.31467 0.04916 0.95078 0.0
H382 H 0.40203 0.98896 0.0381 0.0
H383 H 0.36694 0.05055 1.01838 0.0
H384 H 0.29198 0.06694 0.92772 0.0
H385 H 0.2997 0.06385 0.97775 0.0
H386 H 0.45498 0.82399 0.90945 0.0
H387 H 0.46447 0.82493 0.95977 0.0
H388 H 0.45801 0.88399 0.86434 0.0
H389 H 0.41569 0.93978 0.84402 0.0
C390 C 0.61103 0.80657 0.20889 0.0
C391 C 0.61584 0.86674 0.22029 0.0
C392 C 0.53998 0.89269 0.17287 0.0
C393 C 0.53728 0.83275 0.16056 0.0
N394 N 0.581 0.73634 0.15937 0.0
N395 N 0.5948 0.96863 0.20723 0.0
C396 C 0.5765 0.79099 0.1762 0.0
C397 C 0.58318 0.91036 0.20056 0.0
N398 N 0.6372 0.76378 0.23039 0.0
N399 N 0.49987 0.9323 0.1595 0.0
H400 H 0.62643 0.98291 0.22695 0.0
H401 H 0.57696 1.00243 0.19087 0.0
H402 H 0.4697 0.92219 0.1378 0.0
H403 H 0.49456 0.9744 0.17131 0.0
H404 H 0.62979 0.71891 0.22596 0.0
H405 H 0.66184 0.773 0.2551 0.0
H406 H 0.61279 0.70562 0.16708 0.0
H407 H 0.55687 0.72418 0.13487 0.0
C408 C 0.20693 0.98846 0.1363 0.0
C409 C 0.26526 0.99593 0.12284 0.0
C410 C 0.25431 0.10279 0.1282 0.0
C411 C 0.20091 0.09461 0.14894 0.0
N412 N 0.12655 0.02918 0.17431 0.0
N413 N 0.34705 0.05925 0.10826 0.0
C414 C 0.17646 0.03736 0.15279 0.0
C415 C 0.28934 0.05296 0.11861 0.0
N416 N 0.18169 0.93394 0.13394 0.0
N417 N 0.2715 0.15823 0.11803 0.0
H418 H 0.37408 0.02333 0.10188 0.0
H419 H 0.36913 0.09949 0.1088 0.0
H420 H 0.24632 0.19555 0.12449 0.0
H421 H 0.30743 0.16649 0.10005 0.0
H422 H 0.13758 0.92584 0.14032 0.0
H423 H 0.20402 0.8978 0.12202 0.0
H424 H 0.11033 0.98783 0.18161 0.0
H425 H 0.10329 0.06377 0.18724 0.0
C426 C 0.50417 0.74552 0.35088 0.0
C427 C 0.55649 0.73768 0.37239 0.0
C428 C 0.50075 0.68413 0.42173 0.0
C429 C 0.44731 0.69854 0.40273 0.0
N430 N 0.39768 0.75138 0.35207 0.0
N431 N 0.60391 0.70794 0.43105 0.0
C432 C 0.44884 0.7314 0.36794 0.0
C433 C 0.55463 0.70907 0.40856 0.0
N434 N 0.5077 0.76491 0.31366 0.0
N435 N 0.50028 0.6452 0.45161 0.0
H436 H 0.64369 0.72681 0.42245 0.0
H437 H 0.60392 0.69316 0.45948 0.0
H438 H 0.46188 0.6251 0.46154 0.0
H439 H 0.53845 0.62858 0.46404 0.0
H440 H 0.47174 0.76618 0.29507 0.0
H441 H 0.54778 0.77425 0.3002 0.0
H442 H 0.39655 0.78057 0.32904 0.0
H443 H 0.35631 0.74311 0.36404 0.0
C444 C 0.72139 1.00489 0.65842 0.0
C445 C 0.74091 0.02991 0.62336 0.0
C446 C 0.80927 0.94776 0.61315 0.0
C447 C 0.78776 0.92135 0.64748 0.0
N448 N 0.7118 0.91644 0.6964 0.0
N449 N 0.79054 0.01774 0.56218 0.0
C450 C 0.73991 0.94725 0.66803 0.0
C451 C 0.78084 0.99887 0.59904 0.0
N452 N 0.68796 0.03753 0.68356 0.0
N453 N 0.85851 0.92612 0.59514 0.0
H454 H 0.76874 0.05404 0.55078 0.0
H455 H 0.81502 0.9939 0.54183 0.0
H456 H 0.88132 0.88934 0.60485 0.0
H457 H 0.87952 0.94758 0.57245 0.0
H458 H 0.6771 0.02374 0.71135 0.0
H459 H 0.67603 0.08086 0.67792 0.0
H460 H 0.67344 0.93122 0.70999 0.0
H461 H 0.72335 0.8734 0.70348 0.0
C462 C 0.55377 0.22074 0.87676 0.0
C463 C 0.50092 0.25284 0.87234 0.0
C464 C 0.5513 0.34487 0.88979 0.0
C465 C 0.60363 0.31225 0.89622 0.0
N466 N 0.65897 0.22202 0.88907 0.0
N467 N 0.44961 0.34432 0.86735 0.0
C468 C 0.60632 0.25105 0.88719 0.0
C469 C 0.5001 0.31486 0.87626 0.0
N470 N 0.55235 0.16071 0.87318 0.0
N471 N 0.55043 0.40403 0.89781 0.0
H472 H 0.41198 0.32236 0.85757 0.0
H473 H 0.4457 0.38996 0.86712 0.0
H474 H 0.5879 0.42747 0.90625 0.0
H475 H 0.51274 0.42995 0.89726 0.0
H476 H 0.58716 0.13318 0.88028 0.0
H477 H 0.51471 0.13788 0.86441 0.0
H478 H 0.66534 0.17897 0.87929 0.0
H479 H 0.69784 0.24213 0.89829 0.0
C480 C 0.67827 0.48737 0.6324 0.0
C481 C 0.70451 0.43211 0.64071 0.0
C482 C 0.77469 0.48258 0.68377 0.0
C483 C 0.75284 0.53794 0.6718 0.0
N484 N 0.69352 0.5926 0.62724 0.0
N485 N 0.7877 0.37964 0.66696 0.0
C486 C 0.70748 0.54015 0.64382 0.0
C487 C 0.75573 0.43037 0.66428 0.0
N488 N 0.6243 0.48971 0.61513 0.0
N489 N 0.81131 0.47936 0.71491 0.0
H490 H 0.77704 0.34115 0.65175 0.0
H491 H 0.82822 0.37775 0.68094 0.0
H492 H 0.82405 0.51627 0.73103 0.0
H493 H 0.82387 0.43954 0.72712 0.0
H494 H 0.60108 0.52888 0.61172 0.0
H495 H 0.59992 0.45218 0.608 0.0
H496 H 0.66436 0.59602 0.60416 0.0
H497 H 0.71607 0.63154 0.63371 0.0
C498 C 0.0887 0.22746 0.94701 0.0
C499 C 0.09609 0.21058 0.90758 0.0
C500 C 0.99615 0.24427 0.89307 0.0
C501 C 0.98723 0.25689 0.93284 0.0
N502 N 0.02084 0.25601 0.99859 0.0
N503 N 0.05523 0.19522 0.84384 0.0
C504 C 0.03251 0.2474 0.96011 0.0
C505 C 0.04928 0.21679 0.88079 0.0
N506 N 0.13569 0.22545 0.97158 0.0
N507 N 0.95441 0.26076 0.86697 0.0
H508 H 0.09386 0.17573 0.83347 0.0
H509 H 0.02062 0.19255 0.82423 0.0
H510 H 0.91523 0.28138 0.87525 0.0
H511 H 0.96048 0.25866 0.83711 0.0
H512 H 0.13509 0.24258 0.99965 0.0
H513 H 0.17695 0.2097 0.96304 0.0
H514 H 0.04977 0.24498 1.02063 0.0
H515 H 0.98006 0.27088 1.00869 0.0
C516 C 0.23369 0.58009 0.13508 0.0
C517 C 0.28415 0.60603 0.1525 0.0
C518 C 0.28503 0.52791 0.20074 0.0
C519 C 0.23378 0.50351 0.18373 0.0
N520 N 0.14686 0.52133 0.14611 0.0
N521 N 0.34632 0.61458 0.20893 0.0
C522 C 0.20382 0.53462 0.1547 0.0
C523 C 0.30634 0.58308 0.18765 0.0
N524 N 0.21633 0.59569 0.09878 0.0
N525 N 0.31368 0.49778 0.22895 0.0
H526 H 0.36104 0.65627 0.20091 0.0
H527 H 0.36015 0.60214 0.23636 0.0
H528 H 0.29709 0.45883 0.24048 0.0
H529 H 0.35495 0.50993 0.23944 0.0
H530 H 0.18287 0.57371 0.08388 0.0
H531 H 0.23933 0.62574 0.08185 0.0
H532 H 0.12185 0.54584 0.12685 0.0
H533 H 0.1227 0.49081 0.16188 0.0
C534 C 0.9967 0.8399 0.37907 0.0
C535 C 0.94231 0.82186 0.39574 0.0
C536 C 0.99663 0.76534 0.44396 0.0
C537 C 0.04984 0.77656 0.42396 0.0
N538 N 0.09996 0.81699 0.36899 0.0
N539 N 0.8908 0.75698 0.43952 0.0
C540 C 0.04967 0.81172 0.39043 0.0
C541 C 0.94226 0.78163 0.42699 0.0
N542 N 0.99812 0.88553 0.35361 0.0
N543 N 0.99824 0.74176 0.48006 0.0
H544 H 0.85013 0.76573 0.42693 0.0
H545 H 0.88941 0.72335 0.4598 0.0
H546 H 0.03773 0.7321 0.49391 0.0
H547 H 0.96106 0.73804 0.49764 0.0
H548 H 0.03713 0.90397 0.34337 0.0
H549 H 0.96062 0.90901 0.34582 0.0
H550 H 0.10129 0.83743 0.34215 0.0
H551 H 0.1391 0.79599 0.37643 0.0
C552 C 0.89111 0.07802 0.25555 0.0
C553 C 0.84668 0.08631 0.28398 0.0
C554 C 0.89359 0.17851 0.30513 0.0
C555 C 0.94069 0.16744 0.27922 0.0
N556 N 0.98946 0.10342 0.23341 0.0
N557 N 0.80991 0.13889 0.33992 0.0
C558 C 0.94082 0.11633 0.25524 0.0
C559 C 0.849 0.13524 0.30986 0.0
N560 N 0.88466 0.03456 0.22824 0.0
N561 N 0.89129 0.23115 0.32464 0.0
H562 H 0.77759 0.10717 0.34463 0.0
H563 H 0.81267 0.17029 0.36205 0.0
H564 H 0.92348 0.26361 0.32136 0.0
H565 H 0.85537 0.24471 0.34128 0.0
H566 H 0.91245 0.02958 0.20439 0.0
H567 H 0.84852 1.00613 0.22786 0.0
H568 H 0.99493 0.06388 0.21824 0.0
H569 H 0.02647 0.13065 0.23276 0.0
C570 C 0.37509 0.33562 0.51512 0.0
C571 C 0.43568 0.35024 0.51624 0.0
C572 C 0.412 0.4546 0.50842 0.0
C573 C 0.35135 0.44072 0.51082 0.0
N574 N 0.27381 0.37019 0.51922 0.0
N575 N 0.51249 0.42303 0.51953 0.0
C576 C 0.33245 0.38163 0.51469 0.0
C577 C 0.45437 0.40967 0.51427 0.0
N578 N 0.35885 0.27769 0.51382 0.0
N579 N 0.42865 0.51092 0.50012 0.0
H580 H 0.5443 0.39092 0.52454 0.0
H581 H 0.52853 0.46587 0.52222 0.0
H582 H 0.39814 0.54443 0.4955 0.0
H583 H 0.47197 0.52329 0.49453 0.0
H584 H 0.31579 0.26341 0.5095 0.0
H585 H 0.38956 0.24356 0.51487 0.0
H586 H 0.25692 0.32893 0.52602 0.0
H587 H 0.24203 0.4033 0.51798 0.0
C588 C 0.09025 0.89651 0.72869 0.0
C589 C 0.08757 0.85307 0.75808 0.0
C590 C 0.1608 0.90841 0.79535 0.0
C591 C 0.16739 0.94923 0.76488 0.0
N592 N 0.14967 0.97216 0.69822 0.0
N593 N 0.13598 0.80827 0.81207 0.0
C594 C 0.13616 0.93948 0.72992 0.0
C595 C 0.12897 0.8556 0.7886 0.0
N596 N 0.04681 0.90047 0.70167 0.0
N597 N 0.17848 0.92267 0.83192 0.0
H598 H 0.11384 0.76857 0.80703 0.0
H599 H 0.16823 0.80683 0.83346 0.0
H600 H 0.19278 0.96482 0.83944 0.0
H601 H 0.17061 0.89561 0.85558 0.0
H602 H 0.04432 0.93503 0.68214 0.0
H603 H 0.01006 0.87314 0.7011 0.0
H604 H 0.13145 0.96399 0.67103 0.0
H605 H 0.18365 1.00319 0.69853 0.0
C606 C 0.66463 0.64085 0.99357 0.0
C607 C 0.66155 0.58464 1.01086 0.0
C608 C 0.56016 0.60418 0.03196 0.0
C609 C 0.56236 0.65965 1.01348 0.0
N610 N 0.61246 0.72877 0.97299 0.0
N611 N 0.60556 0.50851 0.04155 0.0
C612 C 0.61357 0.67743 0.9932 0.0
C613 C 0.60886 0.56504 0.02854 0.0
N614 N 0.71699 0.65932 0.97838 0.0
N615 N 0.51216 0.59006 0.05393 0.0
H616 H 0.64103 0.47941 0.03986 0.0
H617 H 0.56691 0.48897 0.05138 0.0
H618 H 0.47565 0.61755 0.05665 0.0
H619 H 0.50986 0.55327 0.07156 0.0
H620 H 0.72458 0.70174 0.96841 0.0
H621 H 0.75419 0.63236 0.97747 0.0
H622 H 0.6462 0.74258 0.95476 0.0
H623 H 0.57559 0.7562 0.97275 0.0
loop_
_geom_bond_atom_site_label_1
_geom_bond_atom_site_label_2
_geom_bond_distance
_geom_bond_site_symmetry_2
_ccdc_geom_bond_type
C0 C1 1.351 1_455 S
C0 N3 1.368 . S
C0 H5 0.931 . S
C1 C0 1.351 1_655 S
C1 N2 1.373 . S
C1 H29 0.930 . S
N2 C1 1.373 . S
N2 C4 1.340 . S
N3 C0 1.368 . S
N3 C4 1.321 1_455 S
N3 Co6 2.135 . S
C4 N2 1.340 . S
C4 N3 1.321 1_655 S
C4 H28 0.930 . S
H5 C0 0.931 . S
Co6 N3 2.135 . S
Co6 N9 2.121 . S
Co6 O14 2.055 . S
Co6 O17 2.039 1_455 S
Co6 N20 2.140 . S
C7 O8 1.227 1_655 S
C7 O17 1.265 . S
O8 C7 1.227 1_455 S
N9 Co6 2.121 . S
N9 C11 1.375 . S
N9 C12 1.313 . S
C10 C11 1.338 . S
C10 N13 1.377 . S
C10 H30 0.930 . S
C11 N9 1.375 . S
C11 C10 1.338 . S
C11 H15 0.931 . S
C12 N9 1.313 . S
C12 N13 1.344 . S
C12 H16 0.930 . S
N13 C10 1.377 . S
N13 C12 1.344 . S
O14 Co6 2.055 . S
O14 C18 1.253 . S
H15 C11 0.931 . S
H16 C12 0.930 . S
O17 Co6 2.039 1_655 S
O17 C7 1.265 . S
C18 O14 1.253 . S
C18 O19 1.227 . S
O19 C18 1.227 . S
N20 Co6 2.140 . S
N20 C23 1.346 . S
N20 C24 1.345 . S
C21 C22 1.387 . S
C21 C25 1.391 . S
C22 C21 1.387 . S
C22 C23 1.369 . S
C22 H31 0.929 . S
C23 N20 1.346 . S
C23 C22 1.369 . S
C23 H26 0.928 . S
C24 N20 1.345 . S
C24 C25 1.371 . S
C24 H27 0.931 . S
C25 C21 1.391 . S
C25 C24 1.371 . S
C25 H32 0.930 . S
H26 C23 0.928 . S
H27 C24 0.931 . S
H28 C4 0.930 . S
H29 C1 0.930 . S
H30 C10 0.930 . S
H31 C22 0.929 . S
H32 C25 0.930 . S
C33 C34 1.351 . S
C33 N36 1.368 . S
C33 H38 0.931 . S
C34 C33 1.351 . S
C34 N35 1.373 . S
C34 H62 0.930 . S
N35 C34 1.373 . S
N35 C37 1.340 . S
N36 C33 1.368 . S
N36 C37 1.321 . S
N36 Co39 2.135 . S
C37 N35 1.340 . S
C37 N36 1.321 . S
C37 H61 0.930 . S
H38 C33 0.931 . S
Co39 N36 2.135 . S
Co39 N42 2.121 . S
Co39 O47 2.055 . S
Co39 O50 2.039 . S
Co39 N53 2.140 . S
C40 O41 1.227 . S
C40 O50 1.265 . S
O41 C40 1.227 . S
N42 Co39 2.121 . S
N42 C44 1.375 . S
N42 C45 1.313 . S
C43 C44 1.338 . S
C43 N46 1.377 . S
C43 H63 0.930 . S
C44 N42 1.375 . S
C44 C43 1.338 . S
C44 H48 0.931 . S
C45 N42 1.313 . S
C45 N46 1.344 . S
C45 H49 0.930 . S
N46 C43 1.377 . S
N46 C45 1.344 . S
O47 Co39 2.055 . S
O47 C51 1.253 . S
H48 C44 0.931 . S
H49 C45 0.930 . S
O50 Co39 2.039 . S
O50 C40 1.265 . S
C51 O47 1.253 . S
C51 O52 1.227 . S
O52 C51 1.227 . S
N53 Co39 2.140 . S
N53 C56 1.346 . S
N53 C57 1.345 . S
C54 C55 1.387 . S
C54 C58 1.391 . S
C55 C54 1.387 . S
C55 C56 1.369 . S
C55 H64 0.929 . S
C56 N53 1.346 . S
C56 C55 1.369 . S
C56 H59 0.928 . S
C57 N53 1.345 . S
C57 C58 1.371 . S
C57 H60 0.931 . S
C58 C54 1.391 . S
C58 C57 1.371 . S
C58 H65 0.930 . S
H59 C56 0.928 . S
H60 C57 0.931 . S
H61 C37 0.930 . S
H62 C34 0.930 . S
H63 C43 0.930 . S
H64 C55 0.929 . S
H65 C58 0.930 . S
C66 C67 1.351 1_655 S
C66 N69 1.368 . S
C66 H71 0.931 . S
C67 C66 1.351 1_455 S
C67 N68 1.373 . S
C67 H95 0.930 . S
N68 C67 1.373 . S
N68 C70 1.340 . S
N69 C66 1.368 . S
N69 C70 1.321 1_655 S
N69 Co72 2.135 . S
C70 N68 1.340 . S
C70 N69 1.321 1_455 S
C70 H94 0.930 . S
H71 C66 0.931 . S
Co72 N69 2.135 . S
Co72 N75 2.121 . S
Co72 O80 2.055 . S
Co72 O83 2.039 1_655 S
Co72 N86 2.140 . S
C73 O74 1.227 1_455 S
C73 O83 1.265 . S
O74 C73 1.227 1_655 S
N75 Co72 2.121 . S
N75 C77 1.375 . S
N75 C78 1.313 . S
C76 C77 1.338 . S
C76 N79 1.377 . S
C76 H96 0.930 . S
C77 N75 1.375 . S
C77 C76 1.338 . S
C77 H81 0.931 . S
C78 N75 1.313 . S
C78 N79 1.344 . S
C78 H82 0.930 . S
N79 C76 1.377 . S
N79 C78 1.344 . S
O80 Co72 2.055 . S
O80 C84 1.253 . S
H81 C77 0.931 . S
H82 C78 0.930 . S
O83 Co72 2.039 1_455 S
O83 C73 1.265 . S
C84 O80 1.253 . S
C84 O85 1.227 . S
O85 C84 1.227 . S
N86 Co72 2.140 . S
N86 C89 1.346 . S
N86 C90 1.345 . S
C87 C88 1.387 . S
C87 C91 1.391 . S
C88 C87 1.387 . S
C88 C89 1.369 . S
C88 H97 0.929 . S
C89 N86 1.346 . S
C89 C88 1.369 . S
C89 H92 0.928 . S
C90 N86 1.345 . S
C90 C91 1.371 . S
C90 H93 0.931 . S
C91 C87 1.391 . S
C91 C90 1.371 . S
C91 H98 0.930 . S
H92 C89 0.928 . S
H93 C90 0.931 . S
H94 C70 0.930 . S
H95 C67 0.930 . S
H96 C76 0.930 . S
H97 C88 0.929 . S
H98 C91 0.930 . S
C99 C100 1.351 1_556 S
C99 N102 1.368 . S
C99 H104 0.931 1_556 S
C100 C99 1.351 1_554 S
C100 N101 1.373 1_554 S
C100 H128 0.930 . S
N101 C100 1.373 1_556 S
N101 C103 1.340 . S
N102 C99 1.368 . S
N102 C103 1.321 . S
N102 Co105 2.135 . S
C103 N101 1.340 . S
C103 N102 1.321 . S
C103 H127 0.930 . S
H104 C99 0.931 1_554 S
Co105 N102 2.135 . S
Co105 N108 2.121 . S
Co105 O113 2.055 . S
Co105 O116 2.039 . S
Co105 N119 2.140 . S
C106 O107 1.227 . S
C106 O116 1.265 . S
O107 C106 1.227 . S
N108 Co105 2.121 . S
N108 C110 1.375 . S
N108 C111 1.313 . S
C109 C110 1.338 . S
C109 N112 1.377 . S
C109 H129 0.930 . S
C110 N108 1.375 . S
C110 C109 1.338 . S
C110 H114 0.931 . S
C111 N108 1.313 . S
C111 N112 1.344 . S
C111 H115 0.930 . S
N112 C109 1.377 . S
N112 C111 1.344 . S
O113 Co105 2.055 . S
O113 C117 1.253 . S
H114 C110 0.931 . S
H115 C111 0.930 . S
O116 Co105 2.039 . S
O116 C106 1.265 . S
C117 O113 1.253 . S
C117 O118 1.227 . S
O118 C117 1.227 . S
N119 Co105 2.140 . S
N119 C122 1.346 . S
N119 C123 1.345 . S
C120 C121 1.387 . S
C120 C124 1.391 . S
C121 C120 1.387 . S
C121 C122 1.369 . S
C121 H130 0.929 . S
C122 N119 1.346 . S
C122 C121 1.369 . S
C122 H125 0.928 . S
C123 N119 1.345 . S
C123 C124 1.371 . S
C123 H126 0.931 . S
C124 C120 1.391 . S
C124 C123 1.371 . S
C124 H131 0.930 . S
H125 C122 0.928 . S
H126 C123 0.931 . S
H127 C103 0.930 . S
H128 C100 0.930 . S
H129 C109 0.930 . S
H130 C121 0.929 . S
H131 C124 0.930 . S
C132 C133 1.351 . S
C132 N135 1.368 . S
C132 H137 0.931 . S
C133 C132 1.351 . S
C133 N134 1.373 . S
C133 H161 0.930 . S
N134 C133 1.373 . S
N134 C136 1.340 . S
N135 C132 1.368 . S
N135 C136 1.321 . S
N135 Co138 2.135 . S
C136 N134 1.340 . S
C136 N135 1.321 . S
C136 H160 0.930 . S
H137 C132 0.931 . S
Co138 N135 2.135 . S
Co138 N141 2.121 . S
Co138 O146 2.055 . S
Co138 O149 2.039 . S
Co138 N152 2.140 . S
C139 O140 1.227 . S
C139 O149 1.265 . S
O140 C139 1.227 . S
N141 Co138 2.121 . S
N141 C143 1.375 . S
N141 C144 1.313 . S
C142 C143 1.338 . S
C142 N145 1.377 . S
C142 H162 0.930 . S
C143 N141 1.375 . S
C143 C142 1.338 . S
C143 H147 0.931 . S
C144 N141 1.313 . S
C144 N145 1.344 . S
C144 H148 0.930 . S
N145 C142 1.377 . S
N145 C144 1.344 . S
O146 Co138 2.055 . S
O146 C150 1.253 . S
H147 C143 0.931 . S
H148 C144 0.930 . S
O149 Co138 2.039 . S
O149 C139 1.265 . S
C150 O146 1.253 . S
C150 O151 1.227 . S
O151 C150 1.227 . S
N152 Co138 2.140 . S
N152 C155 1.346 . S
N152 C156 1.345 . S
C153 C154 1.387 . S
C153 C157 1.391 . S
C154 C153 1.387 . S
C154 C155 1.369 . S
C154 H163 0.929 . S
C155 N152 1.346 . S
C155 C154 1.369 . S
C155 H158 0.928 . S
C156 N152 1.345 . S
C156 C157 1.371 . S
C156 H159 0.931 . S
C157 C153 1.391 . S
C157 C156 1.371 . S
C157 H164 0.930 . S
H158 C155 0.928 . S
H159 C156 0.931 . S
H160 C136 0.930 . S
H161 C133 0.930 . S
H162 C142 0.930 . S
H163 C154 0.929 . S
H164 C157 0.930 . S
C165 C166 1.351 1_545 S
C165 N168 1.368 . S
C165 H170 0.931 . S
C166 C165 1.351 1_565 S
C166 N167 1.373 . S
C166 H194 0.930 . S
N167 C166 1.373 . S
N167 C169 1.340 . S
N168 C165 1.368 . S
N168 C169 1.321 1_545 S
N168 Co171 2.135 . S
C169 N167 1.340 . S
C169 N168 1.321 1_565 S
C169 H193 0.930 . S
H170 C165 0.931 . S
Co171 N168 2.135 . S
Co171 N174 2.121 . S
Co171 O179 2.055 . S
Co171 O182 2.039 1_545 S
Co171 N185 2.140 . S
C172 O173 1.227 1_565 S
C172 O182 1.265 . S
O173 C172 1.227 1_545 S
N174 Co171 2.121 . S
N174 C176 1.375 . S
N174 C177 1.313 . S
C175 C176 1.338 . S
C175 N178 1.377 . S
C175 H195 0.930 . S
C176 N174 1.375 . S
C176 C175 1.338 . S
C176 H180 0.931 . S
C177 N174 1.313 . S
C177 N178 1.344 . S
C177 H181 0.930 . S
N178 C175 1.377 . S
N178 C177 1.344 . S
O179 Co171 2.055 . S
O179 C183 1.253 . S
H180 C176 0.931 . S
H181 C177 0.930 . S
O182 Co171 2.039 1_565 S
O182 C172 1.265 . S
C183 O179 1.253 . S
C183 O184 1.227 . S
O184 C183 1.227 . S
N185 Co171 2.140 . S
N185 C188 1.346 . S
N185 C189 1.345 . S
C186 C187 1.387 . S
C186 C190 1.391 . S
C187 C186 1.387 . S
C187 C188 1.369 . S
C187 H196 0.929 . S
C188 N185 1.346 . S
C188 C187 1.369 . S
C188 H191 0.928 . S
C189 N185 1.345 . S
C189 C190 1.371 . S
C189 H192 0.931 . S
C190 C186 1.391 . S
C190 C189 1.371 . S
C190 H197 0.930 . S
H191 C188 0.928 . S
H192 C189 0.931 . S
H193 C169 0.930 . S
H194 C166 0.930 . S
H195 C175 0.930 . S
H196 C187 0.929 . S
H197 C190 0.930 . S
C198 C199 1.351 1_554 S
C198 N201 1.368 . S
C198 H203 0.931 1_554 S
C199 C198 1.351 1_556 S
C199 N200 1.373 1_556 S
C199 H227 0.930 . S
N200 C199 1.373 1_554 S
N200 C202 1.340 . S
N201 C198 1.368 . S
N201 C202 1.321 . S
N201 Co204 2.135 . S
C202 N200 1.340 . S
C202 N201 1.321 . S
C202 H226 0.930 . S
H203 C198 0.931 1_556 S
Co204 N201 2.135 . S
Co204 N207 2.121 . S
Co204 O212 2.055 . S
Co204 O215 2.039 . S
Co204 N218 2.140 . S
C205 O206 1.227 . S
C205 O215 1.265 . S
O206 C205 1.227 . S
N207 Co204 2.121 . S
N207 C209 1.375 . S
N207 C210 1.313 . S
C208 C209 1.338 . S
C208 N211 1.377 . S
C208 H228 0.930 . S
C209 N207 1.375 . S
C209 C208 1.338 . S
C209 H213 0.931 . S
C210 N207 1.313 . S
C210 N211 1.344 . S
C210 H214 0.930 . S
N211 C208 1.377 . S
N211 C210 1.344 . S
O212 Co204 2.055 . S
O212 C216 1.253 . S
H213 C209 0.931 . S
H214 C210 0.930 . S
O215 Co204 2.039 . S
O215 C205 1.265 . S
C216 O212 1.253 . S
C216 O217 1.227 . S
O217 C216 1.227 . S
N218 Co204 2.140 . S
N218 C221 1.346 . S
N218 C222 1.345 . S
C219 C220 1.387 . S
C219 C223 1.391 . S
C220 C219 1.387 . S
C220 C221 1.369 . S
C220 H229 0.929 . S
C221 N218 1.346 . S
C221 C220 1.369 . S
C221 H224 0.928 . S
C222 N218 1.345 . S
C222 C223 1.371 . S
C222 H225 0.931 . S
C223 C219 1.391 . S
C223 C222 1.371 . S
C223 H230 0.930 . S
H224 C221 0.928 . S
H225 C222 0.931 . S
H226 C202 0.930 . S
H227 C199 0.930 . S
H228 C208 0.930 . S
H229 C220 0.929 . S
H230 C223 0.930 . S
C231 C232 1.351 1_565 S
C231 N234 1.368 . S
C231 H236 0.931 . S
C232 C231 1.351 1_545 S
C232 N233 1.373 . S
C232 H260 0.930 . S
N233 C232 1.373 . S
N233 C235 1.340 . S
N234 C231 1.368 . S
N234 C235 1.321 1_565 S
N234 Co237 2.135 . S
C235 N233 1.340 . S
C235 N234 1.321 1_545 S
C235 H259 0.930 . S
H236 C231 0.931 . S
Co237 N234 2.135 . S
Co237 N240 2.121 . S
Co237 O245 2.055 . S
Co237 O248 2.039 1_565 S
Co237 N251 2.140 . S
C238 O239 1.227 1_545 S
C238 O248 1.265 . S
O239 C238 1.227 1_565 S
N240 Co237 2.121 . S
N240 C242 1.375 . S
N240 C243 1.313 . S
C241 C242 1.338 . S
C241 N244 1.377 . S
C241 H261 0.930 . S
C242 N240 1.375 . S
C242 C241 1.338 . S
C242 H246 0.931 . S
C243 N240 1.313 . S
C243 N244 1.344 . S
C243 H247 0.930 . S
N244 C241 1.377 . S
N244 C243 1.344 . S
O245 Co237 2.055 . S
O245 C249 1.253 . S
H246 C242 0.931 . S
H247 C243 0.930 . S
O248 Co237 2.039 1_545 S
O248 C238 1.265 . S
C249 O245 1.253 . S
C249 O250 1.227 . S
O250 C249 1.227 . S
N251 Co237 2.140 . S
N251 C254 1.346 . S
N251 C255 1.345 . S
C252 C253 1.387 . S
C252 C256 1.391 . S
C253 C252 1.387 . S
C253 C254 1.369 . S
C253 H262 0.929 . S
C254 N251 1.346 . S
C254 C253 1.369 . S
C254 H257 0.928 . S
C255 N251 1.345 . S
C255 C256 1.371 . S
C255 H258 0.931 . S
C256 C252 1.391 . S
C256 C255 1.371 . S
C256 H263 0.930 . S
H257 C254 0.928 . S
H258 C255 0.931 . S
H259 C235 0.930 . S
H260 C232 0.930 . S
H261 C241 0.930 . S
H262 C253 0.929 . S
H263 C256 0.930 . S
C264 C265 1.363 . S
C264 C270 1.379 . S
C264 N272 1.356 . S
C265 C264 1.363 . S
C265 C271 1.363 . S
C266 C267 1.363 . S
C266 C271 1.379 . S
C266 N273 1.356 . S
C267 C266 1.363 . S
C267 C270 1.363 . S
N268 C270 1.356 . S
N268 H280 0.984 . S
N268 H281 0.985 . S
N269 C271 1.356 . S
N269 H274 0.984 . S
N269 H275 0.985 . S
C270 C264 1.379 . S
C270 C267 1.363 . S
C270 N268 1.356 . S
C271 C265 1.363 . S
C271 C266 1.379 . S
C271 N269 1.356 . S
N272 C264 1.356 . S
N272 H278 0.984 . S
N272 H279 0.984 . S
N273 C266 1.356 . S
N273 H276 0.984 . S
N273 H277 0.985 . S
H274 N269 0.984 . S
H275 N269 0.985 . S
H276 N273 0.984 . S
H277 N273 0.985 . S
H278 N272 0.984 . S
H279 N272 0.984 . S
H280 N268 0.984 . S
H281 N268 0.985 . S
C282 C283 1.363 . S
C282 C288 1.379 . S
C282 N290 1.356 . S
C283 C282 1.363 . S
C283 C289 1.363 . S
C284 C285 1.363 . S
C284 C289 1.379 . S
C284 N291 1.356 . S
C285 C284 1.363 . S
C285 C288 1.363 . S
N286 C288 1.356 . S
N286 H298 0.984 . S
N286 H299 0.985 . S
N287 C289 1.356 1_655 S
N287 H292 0.984 . S
N287 H293 0.985 . S
C288 C282 1.379 . S
C288 C285 1.363 . S
C288 N286 1.356 . S
C289 C283 1.363 . S
C289 C284 1.379 . S
C289 N287 1.356 1_455 S
N290 C282 1.356 . S
N290 H296 0.984 . S
N290 H297 0.984 . S
N291 C284 1.356 . S
N291 H294 0.984 . S
N291 H295 0.985 . S
H292 N287 0.984 . S
H293 N287 0.985 . S
H294 N291 0.984 . S
H295 N291 0.985 . S
H296 N290 0.984 . S
H297 N290 0.984 . S
H298 N286 0.984 . S
H299 N286 0.985 . S
C300 C301 1.363 . S
C300 C306 1.379 . S
C300 N308 1.356 . S
C301 C300 1.363 . S
C301 C307 1.363 . S
C302 C303 1.363 . S
C302 C307 1.379 . S
C302 N309 1.356 . S
C303 C302 1.363 . S
C303 C306 1.363 . S
N304 C306 1.356 . S
N304 H316 0.984 1_655 S
N304 H317 0.985 . S
N305 C307 1.356 . S
N305 H310 0.984 . S
N305 H311 0.985 . S
C306 C300 1.379 . S
C306 C303 1.363 . S
C306 N304 1.356 . S
C307 C301 1.363 . S
C307 C302 1.379 . S
C307 N305 1.356 . S
N308 C300 1.356 . S
N308 H314 0.984 . S
N308 H315 0.984 . S
N309 C302 1.356 . S
N309 H312 0.984 . S
N309 H313 0.985 . S
H310 N305 0.984 . S
H311 N305 0.985 . S
H312 N309 0.984 . S
H313 N309 0.985 . S
H314 N308 0.984 . S
H315 N308 0.984 . S
H316 N304 0.984 1_455 S
H317 N304 0.985 . S
C318 C319 1.363 . S
C318 C324 1.379 . S
C318 N326 1.356 . S
C319 C318 1.363 . S
C319 C325 1.363 . S
C320 C321 1.363 . S
C320 C325 1.379 . S
C320 N327 1.356 1_655 S
C321 C320 1.363 . S
C321 C324 1.363 . S
N322 C324 1.356 . S
N322 H334 0.984 . S
N322 H335 0.985 . S
N323 C325 1.356 . S
N323 H328 0.983 1_554 S
N323 H329 0.985 . S
C324 C318 1.379 . S
C324 C321 1.363 . S
C324 N322 1.356 . S
C325 C319 1.363 . S
C325 C320 1.379 . S
C325 N323 1.356 . S
N326 C318 1.356 . S
N326 H332 0.984 . S
N326 H333 0.984 1_554 S
N327 C320 1.356 1_455 S
N327 H330 0.984 . S
N327 H331 0.985 . S
H328 N323 0.983 1_556 S
H329 N323 0.985 . S
H330 N327 0.984 . S
H331 N327 0.985 . S
H332 N326 0.984 . S
H333 N326 0.984 1_556 S
H334 N322 0.984 . S
H335 N322 0.985 . S
C336 C337 1.363 . S
C336 C342 1.379 . S
C336 N344 1.356 . S
C337 C336 1.363 . S
C337 C343 1.363 . S
C338 C339 1.363 . S
C338 C343 1.379 . S
C338 N345 1.356 1_545 S
C339 C338 1.363 . S
C339 C342 1.363 . S
N340 C342 1.356 . S
N340 H352 0.984 . S
N340 H353 0.985 . S
N341 C343 1.356 . S
N341 H346 0.984 . S
N341 H347 0.985 . S
C342 C336 1.379 . S
C342 C339 1.363 . S
C342 N340 1.356 . S
C343 C337 1.363 . S
C343 C338 1.379 . S
C343 N341 1.356 . S
N344 C336 1.356 . S
N344 H350 0.984 . S
N344 H351 0.984 . S
N345 C338 1.356 1_565 S
N345 H348 0.984 . S
N345 H349 0.985 . S
H346 N341 0.984 . S
H347 N341 0.985 . S
H348 N345 0.984 . S
H349 N345 0.985 . S
H350 N344 0.984 . S
H351 N344 0.984 . S
H352 N340 0.984 . S
H353 N340 0.985 . S
C354 C355 1.363 . S
C354 C360 1.379 . S
C354 N362 1.356 . S
C355 C354 1.363 . S
C355 C361 1.363 . S
C356 C357 1.363 . S
C356 C361 1.379 . S
C356 N363 1.356 . S
C357 C356 1.363 . S
C357 C360 1.363 . S
N358 C360 1.356 . S
N358 H370 0.984 . S
N358 H371 0.985 . S
N359 C361 1.356 . S
N359 H364 0.984 . S
N359 H365 0.985 . S
C360 C354 1.379 . S
C360 C357 1.363 . S
C360 N358 1.356 . S
C361 C355 1.363 . S
C361 C356 1.379 . S
C361 N359 1.356 . S
N362 C354 1.356 . S
N362 H368 0.984 . S
N362 H369 0.984 . S
N363 C356 1.356 . S
N363 H366 0.984 . S
N363 H367 0.985 . S
H364 N359 0.984 . S
H365 N359 0.985 . S
H366 N363 0.984 . S
H367 N363 0.985 . S
H368 N362 0.984 . S
H369 N362 0.984 . S
H370 N358 0.984 . S
H371 N358 0.985 . S
C372 C373 1.363 . S
C372 C378 1.379 . S
C372 N380 1.356 . S
C373 C372 1.363 . S
C373 C379 1.363 . S
C374 C375 1.363 . S
C374 C379 1.379 . S
C374 N381 1.356 1_565 S
C375 C374 1.363 . S
C375 C378 1.363 . S
N376 C378 1.356 . S
N376 H388 0.984 . S
N376 H389 0.985 . S
N377 C379 1.356 1_554 S
N377 H382 0.984 . S
N377 H383 0.985 . S
C378 C372 1.379 . S
C378 C375 1.363 . S
C378 N376 1.356 . S
C379 C373 1.363 . S
C379 C374 1.379 . S
C379 N377 1.356 1_556 S
N380 C372 1.356 . S
N380 H386 0.984 . S
N380 H387 0.984 . S
N381 C374 1.356 1_545 S
N381 H384 0.984 . S
N381 H385 0.985 . S
H382 N377 0.984 . S
H383 N377 0.985 . S
H384 N381 0.984 . S
H385 N381 0.985 . S
H386 N380 0.984 . S
H387 N380 0.984 . S
H388 N376 0.984 . S
H389 N376 0.985 . S
C390 C391 1.363 . S
C390 C396 1.379 . S
C390 N398 1.356 . S
C391 C390 1.363 . S
C391 C397 1.363 . S
C392 C393 1.363 . S
C392 C397 1.379 . S
C392 N399 1.356 . S
C393 C392 1.363 . S
C393 C396 1.363 . S
N394 C396 1.356 . S
N394 H406 0.984 . S
N394 H407 0.985 . S
N395 C397 1.356 . S
N395 H400 0.984 . S
N395 H401 0.985 1_565 S
C396 C390 1.379 . S
C396 C393 1.363 . S
C396 N394 1.356 . S
C397 C391 1.363 . S
C397 C392 1.379 . S
C397 N395 1.356 . S
N398 C390 1.356 . S
N398 H404 0.984 . S
N398 H405 0.984 . S
N399 C392 1.356 . S
N399 H402 0.984 . S
N399 H403 0.985 . S
H400 N395 0.984 . S
H401 N395 0.985 1_545 S
H402 N399 0.984 . S
H403 N399 0.985 . S
H404 N398 0.984 . S
H405 N398 0.984 . S
H406 N394 0.984 . S
H407 N394 0.985 . S
C408 C409 1.363 . S
C408 C414 1.379 . S
C408 N416 1.356 1_545 S
C409 C408 1.363 . S
C409 C415 1.363 . S
C410 C411 1.363 . S
C410 C415 1.379 . S
C410 N417 1.356 . S
C411 C410 1.363 . S
C411 C414 1.363 . S
N412 C414 1.356 . S
N412 H424 0.984 . S
N412 H425 0.985 . S
N413 C415 1.356 . S
N413 H418 0.984 . S
N413 H419 0.985 . S
C414 C408 1.379 . S
C414 C411 1.363 . S
C414 N412 1.356 . S
C415 C409 1.363 . S
C415 C410 1.379 . S
C415 N413 1.356 . S
N416 C408 1.356 1_565 S
N416 H422 0.984 . S
N416 H423 0.984 . S
N417 C410 1.356 . S
N417 H420 0.984 . S
N417 H421 0.985 . S
H418 N413 0.984 . S
H419 N413 0.985 . S
H420 N417 0.984 . S
H421 N417 0.985 . S
H422 N416 0.984 . S
H423 N416 0.984 . S
H424 N412 0.984 . S
H425 N412 0.985 . S
C426 C427 1.363 . S
C426 C432 1.379 . S
C426 N434 1.356 . S
C427 C426 1.363 . S
C427 C433 1.363 . S
C428 C429 1.363 . S
C428 C433 1.379 . S
C428 N435 1.356 . S
C429 C428 1.363 . S
C429 C432 1.363 . S
N430 C432 1.356 . S
N430 H442 0.984 . S
N430 H443 0.985 . S
N431 C433 1.356 . S
N431 H436 0.984 . S
N431 H437 0.985 . S
C432 C426 1.379 . S
C432 C429 1.363 . S
C432 N430 1.356 . S
C433 C427 1.363 . S
C433 C428 1.379 . S
C433 N431 1.356 . S
N434 C426 1.356 . S
N434 H440 0.984 . S
N434 H441 0.984 . S
N435 C428 1.356 . S
N435 H438 0.984 . S
N435 H439 0.985 . S
H436 N431 0.984 . S
H437 N431 0.985 . S
H438 N435 0.984 . S
H439 N435 0.985 . S
H440 N434 0.984 . S
H441 N434 0.984 . S
H442 N430 0.984 . S
H443 N430 0.985 . S
C444 C445 1.363 . S
C444 C450 1.379 . S
C444 N452 1.356 . S
C445 C444 1.363 . S
C445 C451 1.363 . S
C446 C447 1.363 . S
C446 C451 1.379 . S
C446 N453 1.356 . S
C447 C446 1.363 . S
C447 C450 1.363 . S
N448 C450 1.356 . S
N448 H460 0.984 . S
N448 H461 0.985 . S
N449 C451 1.356 1_545 S
N449 H454 0.984 . S
N449 H455 0.985 . S
C450 C444 1.379 . S
C450 C447 1.363 . S
C450 N448 1.356 . S
C451 C445 1.363 . S
C451 C446 1.379 . S
C451 N449 1.356 1_565 S
N452 C444 1.356 . S
N452 H458 0.984 . S
N452 H459 0.984 1_565 S
N453 C446 1.356 . S
N453 H456 0.984 . S
N453 H457 0.985 . S
H454 N449 0.984 . S
H455 N449 0.985 . S
H456 N453 0.984 . S
H457 N453 0.985 . S
H458 N452 0.984 . S
H459 N452 0.984 1_545 S
H460 N448 0.984 . S
H461 N448 0.985 . S
C462 C463 1.363 . S
C462 C468 1.379 . S
C462 N470 1.356 . S
C463 C462 1.363 . S
C463 C469 1.363 . S
C464 C465 1.363 . S
C464 C469 1.379 . S
C464 N471 1.356 . S
C465 C464 1.363 . S
C465 C468 1.363 . S
N466 C468 1.356 . S
N466 H478 0.984 . S
N466 H479 0.985 . S
N467 C469 1.356 . S
N467 H472 0.984 . S
N467 H473 0.985 . S
C468 C462 1.379 . S
C468 C465 1.363 . S
C468 N466 1.356 . S
C469 C463 1.363 . S
C469 C464 1.379 . S
C469 N467 1.356 . S
N470 C462 1.356 . S
N470 H476 0.984 . S
N470 H477 0.984 . S
N471 C464 1.356 . S
N471 H474 0.984 . S
N471 H475 0.985 . S
H472 N467 0.984 . S
H473 N467 0.985 . S
H474 N471 0.984 . S
H475 N471 0.985 . S
H476 N470 0.984 . S
H477 N470 0.984 . S
H478 N466 0.984 . S
H479 N466 0.985 . S
C480 C481 1.363 . S
C480 C486 1.379 . S
C480 N488 1.356 . S
C481 C480 1.363 . S
C481 C487 1.363 . S
C482 C483 1.363 . S
C482 C487 1.379 . S
C482 N489 1.356 . S
C483 C482 1.363 . S
C483 C486 1.363 . S
N484 C486 1.356 . S
N484 H496 0.984 . S
N484 H497 0.985 . S
N485 C487 1.356 . S
N485 H490 0.984 . S
N485 H491 0.985 . S
C486 C480 1.379 . S
C486 C483 1.363 . S
C486 N484 1.356 . S
C487 C481 1.363 . S
C487 C482 1.379 . S
C487 N485 1.356 . S
N488 C480 1.356 . S
N488 H494 0.984 . S
N488 H495 0.984 . S
N489 C482 1.356 . S
N489 H492 0.984 . S
N489 H493 0.985 . S
H490 N485 0.984 . S
H491 N485 0.985 . S
H492 N489 0.984 . S
H493 N489 0.985 . S
H494 N488 0.984 . S
H495 N488 0.984 . S
H496 N484 0.984 . S
H497 N484 0.985 . S
C498 C499 1.363 . S
C498 C504 1.379 . S
C498 N506 1.356 . S
C499 C498 1.363 . S
C499 C505 1.363 . S
C500 C501 1.363 . S
C500 C505 1.379 . S
C500 N507 1.356 . S
C501 C500 1.363 . S
C501 C504 1.363 . S
N502 C504 1.356 1_655 S
N502 H514 0.984 . S
N502 H515 0.985 . S
N503 C505 1.356 . S
N503 H508 0.984 . S
N503 H509 0.985 . S
C504 C498 1.379 . S
C504 C501 1.363 . S
C504 N502 1.356 1_455 S
C505 C499 1.363 . S
C505 C500 1.379 . S
C505 N503 1.356 . S
N506 C498 1.356 . S
N506 H512 0.984 . S
N506 H513 0.984 . S
N507 C500 1.356 . S
N507 H510 0.984 1_455 S
N507 H511 0.985 . S
H508 N503 0.984 . S
H509 N503 0.985 . S
H510 N507 0.984 1_655 S
H511 N507 0.985 . S
H512 N506 0.984 . S
H513 N506 0.984 . S
H514 N502 0.984 . S
H515 N502 0.985 . S
C516 C517 1.363 . S
C516 C522 1.379 . S
C516 N524 1.356 . S
C517 C516 1.363 . S
C517 C523 1.363 . S
C518 C519 1.363 . S
C518 C523 1.379 . S
C518 N525 1.356 . S
C519 C518 1.363 . S
C519 C522 1.363 . S
N520 C522 1.356 . S
N520 H532 0.984 . S
N520 H533 0.985 . S
N521 C523 1.356 . S
N521 H526 0.984 . S
N521 H527 0.985 . S
C522 C516 1.379 . S
C522 C519 1.363 . S
C522 N520 1.356 . S
C523 C517 1.363 . S
C523 C518 1.379 . S
C523 N521 1.356 . S
N524 C516 1.356 . S
N524 H530 0.984 . S
N524 H531 0.984 . S
N525 C518 1.356 . S
N525 H528 0.984 . S
N525 H529 0.985 . S
H526 N521 0.984 . S
H527 N521 0.985 . S
H528 N525 0.984 . S
H529 N525 0.985 . S
H530 N524 0.984 . S
H531 N524 0.984 . S
H532 N520 0.984 . S
H533 N520 0.985 . S
C534 C535 1.363 . S
C534 C540 1.379 . S
C534 N542 1.356 . S
C535 C534 1.363 . S
C535 C541 1.363 . S
C536 C537 1.363 . S
C536 C541 1.379 . S
C536 N543 1.356 1_655 S
C537 C536 1.363 . S
C537 C540 1.363 . S
N538 C540 1.356 . S
N538 H550 0.984 . S
N538 H551 0.985 1_655 S
N539 C541 1.356 . S
N539 H544 0.984 . S
N539 H545 0.985 . S
C540 C534 1.379 . S
C540 C537 1.363 . S
C540 N538 1.356 . S
C541 C535 1.363 . S
C541 C536 1.379 . S
C541 N539 1.356 . S
N542 C534 1.356 . S
N542 H548 0.984 . S
N542 H549 0.984 . S
N543 C536 1.356 1_455 S
N543 H546 0.984 . S
N543 H547 0.985 . S
H544 N539 0.984 . S
H545 N539 0.985 . S
H546 N543 0.984 . S
H547 N543 0.985 . S
H548 N542 0.984 . S
H549 N542 0.984 . S
H550 N538 0.984 . S
H551 N538 0.985 1_455 S
C552 C553 1.363 . S
C552 C558 1.379 . S
C552 N560 1.356 . S
C553 C552 1.363 . S
C553 C559 1.363 . S
C554 C555 1.363 . S
C554 C559 1.379 . S
C554 N561 1.356 . S
C555 C554 1.363 . S
C555 C558 1.363 . S
N556 C558 1.356 . S
N556 H568 0.984 1_655 S
N556 H569 0.985 . S
N557 C559 1.356 . S
N557 H562 0.984 . S
N557 H563 0.985 . S
C558 C552 1.379 . S
C558 C555 1.363 . S
C558 N556 1.356 . S
C559 C553 1.363 . S
C559 C554 1.379 . S
C559 N557 1.356 . S
N560 C552 1.356 . S
N560 H566 0.984 . S
N560 H567 0.984 . S
N561 C554 1.356 . S
N561 H564 0.984 . S
N561 H565 0.985 . S
H562 N557 0.984 . S
H563 N557 0.985 . S
H564 N561 0.984 . S
H565 N561 0.985 . S
H566 N560 0.984 . S
H567 N560 0.984 . S
H568 N556 0.984 1_455 S
H569 N556 0.985 . S
C570 C571 1.363 . S
C570 C576 1.379 . S
C570 N578 1.356 . S
C571 C570 1.363 . S
C571 C577 1.363 . S
C572 C573 1.363 . S
C572 C577 1.379 . S
C572 N579 1.356 . S
C573 C572 1.363 . S
C573 C576 1.363 . S
N574 C576 1.356 . S
N574 H586 0.984 . S
N574 H587 0.985 . S
N575 C577 1.356 . S
N575 H580 0.984 . S
N575 H581 0.985 . S
C576 C570 1.379 . S
C576 C573 1.363 . S
C576 N574 1.356 . S
C577 C571 1.363 . S
C577 C572 1.379 . S
C577 N575 1.356 . S
N578 C570 1.356 . S
N578 H584 0.984 . S
N578 H585 0.984 . S
N579 C572 1.356 . S
N579 H582 0.984 . S
N579 H583 0.985 . S
H580 N575 0.984 . S
H581 N575 0.985 . S
H582 N579 0.984 . S
H583 N579 0.985 . S
H584 N578 0.984 . S
H585 N578 0.984 . S
H586 N574 0.984 . S
H587 N574 0.985 . S
C588 C589 1.363 . S
C588 C594 1.379 . S
C588 N596 1.356 . S
C589 C588 1.363 . S
C589 C595 1.363 . S
C590 C591 1.363 . S
C590 C595 1.379 . S
C590 N597 1.356 . S
C591 C590 1.363 . S
C591 C594 1.363 . S
N592 C594 1.356 . S
N592 H604 0.984 . S
N592 H605 0.985 . S
N593 C595 1.356 . S
N593 H598 0.984 . S
N593 H599 0.985 . S
C594 C588 1.379 . S
C594 C591 1.363 . S
C594 N592 1.356 . S
C595 C589 1.363 . S
C595 C590 1.379 . S
C595 N593 1.356 . S
N596 C588 1.356 . S
N596 H602 0.984 . S
N596 H603 0.984 . S
N597 C590 1.356 . S
N597 H600 0.984 . S
N597 H601 0.985 . S
H598 N593 0.984 . S
H599 N593 0.985 . S
H600 N597 0.984 . S
H601 N597 0.985 . S
H602 N596 0.984 . S
H603 N596 0.984 . S
H604 N592 0.984 . S
H605 N592 0.985 . S
C606 C607 1.363 . S
C606 C612 1.379 . S
C606 N614 1.356 . S
C607 C606 1.363 . S
C607 C613 1.363 1_556 S
C608 C609 1.363 . S
C608 C613 1.379 . S
C608 N615 1.356 . S
C609 C608 1.363 . S
C609 C612 1.363 1_554 S
N610 C612 1.356 . S
N610 H622 0.984 . S
N610 H623 0.999 . S
N611 C613 1.356 . S
N611 H616 0.999 . S
N611 H617 0.985 . S
C612 C606 1.379 . S
C612 C609 1.363 1_556 S
C612 N610 1.356 . S
C613 C607 1.363 1_554 S
C613 C608 1.379 . S
C613 N611 1.356 . S
N614 C606 1.356 . S
N614 H620 0.984 . S
N614 H621 0.984 . S
N615 C608 1.356 . S
N615 H618 0.984 . S
N615 H619 0.985 . S
H616 N611 0.999 . S
H617 N611 0.985 . S
H618 N615 0.984 . S
H619 N615 0.985 . S
H620 N614 0.984 . S
H621 N614 0.984 . S
H622 N610 0.984 . S
H623 N610 0.999 . S
C265 C18 1.306 . S
C267 C40 1.305 . S
C283 C73 1.305 . S
C285 C51 1.306 . S
C301 C106 1.305 . S
C303 C84 1.306 . S
C319 C117 1.306 1_554 S
C321 C7 1.305 . S
C337 C150 1.306 . S
C339 C238 1.305 . S
C355 C183 1.306 . S
C357 C139 1.305 . S
C373 C216 1.306 1_556 S
C375 C172 1.305 . S
C391 C249 1.306 . S
C393 C205 1.305 . S
C409 N211 1.565 1_545 S
C411 C21 1.609 . S
C427 N244 1.565 . S
C429 C54 1.609 . S
C445 N145 1.565 1_565 S
C447 C87 1.609 . S
C463 N178 1.565 . S
C465 C120 1.609 . S
C481 C153 1.609 . S
C483 N79 1.565 . S
C499 C186 1.609 . S
C501 N112 1.565 1_455 S
C517 C219 1.609 . S
C519 N13 1.565 . S
C535 C252 1.609 . S
C537 N46 1.565 1_655 S
C553 N233 1.302 . S
C555 N2 1.302 . S
C571 N134 1.302 . S
C573 N35 1.302 . S
C589 N68 1.302 . S
C591 N167 1.302 . S
C607 N101 1.302 . S
C609 N200 1.302 . S
