# Generated by pormake.
# Topology ske, (6)-cn, num edge types: 1
# Building blocks:
#     Node 0, Type 0, BuildingBlock: BETDEL_clean_sbu_0, # of connection points: 6
#     Node 1, Type 0, BuildingBlock: BETDEL_clean_sbu_0, # of connection points: 6
#     Node 2, Type 0, BuildingBlock: BETDEL_clean_sbu_0, # of connection points: 6
#     Node 3, Type 0, BuildingBlock: BETDEL_clean_sbu_0, # of connection points: 6
#     Node 4, Type 0, BuildingBlock: BETDEL_clean_sbu_0, # of connection points: 6
#     Node 5, Type 0, BuildingBlock: BETDEL_clean_sbu_0, # of connection points: 6
#     Node 6, Type 0, BuildingBlock: BETDEL_clean_sbu_0, # of connection points: 6
#     Node 7, Type 0, BuildingBlock: BETDEL_clean_sbu_0, # of connection points: 6
#     Edge 8, Type (0, 0), BuildingBlock: TEMPAE_clean_linker_10, # of connection points: 2
#     Edge 9, Type (0, 0), BuildingBlock: TEMPAE_clean_linker_10, # of connection points: 2
#     Edge 10, Type (0, 0), BuildingBlock: TEMPAE_clean_linker_10, # of connection points: 2
#     Edge 11, Type (0, 0), BuildingBlock: TEMPAE_clean_linker_10, # of connection points: 2
#     Edge 12, Type (0, 0), BuildingBlock: TEMPAE_clean_linker_10, # of connection points: 2
#     Edge 13, Type (0, 0), BuildingBlock: TEMPAE_clean_linker_10, # of connection points: 2
#     Edge 14, Type (0, 0), BuildingBlock: TEMPAE_clean_linker_10, # of connection points: 2
#     Edge 15, Type (0, 0), BuildingBlock: TEMPAE_clean_linker_10, # of connection points: 2
#     Edge 16, Type (0, 0), BuildingBlock: TEMPAE_clean_linker_10, # of connection points: 2
#     Edge 17, Type (0, 0), BuildingBlock: TEMPAE_clean_linker_10, # of connection points: 2
#     Edge 18, Type (0, 0), BuildingBlock: TEMPAE_clean_linker_10, # of connection points: 2
#     Edge 19, Type (0, 0), BuildingBlock: TEMPAE_clean_linker_10, # of connection points: 2
#     Edge 20, Type (0, 0), BuildingBlock: TEMPAE_clean_linker_10, # of connection points: 2
#     Edge 21, Type (0, 0), BuildingBlock: TEMPAE_clean_linker_10, # of connection points: 2
#     Edge 22, Type (0, 0), BuildingBlock: TEMPAE_clean_linker_10, # of connection points: 2
#     Edge 23, Type (0, 0), BuildingBlock: TEMPAE_clean_linker_10, # of connection points: 2
#     Edge 24, Type (0, 0), BuildingBlock: TEMPAE_clean_linker_10, # of connection points: 2
#     Edge 25, Type (0, 0), BuildingBlock: TEMPAE_clean_linker_10, # of connection points: 2
#     Edge 26, Type (0, 0), BuildingBlock: TEMPAE_clean_linker_10, # of connection points: 2
#     Edge 27, Type (0, 0), BuildingBlock: TEMPAE_clean_linker_10, # of connection points: 2
#     Edge 28, Type (0, 0), BuildingBlock: TEMPAE_clean_linker_10, # of connection points: 2
#     Edge 29, Type (0, 0), BuildingBlock: TEMPAE_clean_linker_10, # of connection points: 2
#     Edge 30, Type (0, 0), BuildingBlock: TEMPAE_clean_linker_10, # of connection points: 2
#     Edge 31, Type (0, 0), BuildingBlock: TEMPAE_clean_linker_10, # of connection points: 2
# Relax obj value: 0.146
# Max RMSD: 0.161
# Mean RMSD: 0.158
data_MOF--net-ske--node1-BETDEL_clean_sbu_0--edge1-TEMPAE_clean_linker_10
_symmetry_space_group_name_H-M    P1
_symmetry_Int_Tables_number       1
_symmetry_cell_setting            triclinic
loop_
_symmetry_equiv_pos_as_xyz
'x, y, z'
_cell_length_a     71.963174
_cell_length_b     29.39584
_cell_length_c     15.668939
_cell_angle_alpha  89.975091
_cell_angle_beta   89.959999
_cell_angle_gamma 85.150555
loop_
_atom_site_label
_atom_site_type_symbol
_atom_site_fract_x
_atom_site_fract_y
_atom_site_fract_z
_atom_type_partial_charge
Dy0 Dy 0.15853 0.26005 0.56256 0.0
C1 C 0.07936 0.25785 0.55161 0.0
C2 C 0.19538 0.26833 0.60259 0.0
Dy3 Dy 0.11734 0.26201 0.56372 0.0
O4 O 0.18858 0.23185 0.5742 0.0
O5 O 0.18214 0.30125 0.60569 0.0
O6 O 0.16106 0.19319 0.49793 0.0
O7 O 0.13916 0.20637 0.5869 0.0
C8 C 0.14636 0.17819 0.53202 0.0
C9 C 0.13039 0.34571 0.57663 0.0
O10 O 0.12282 0.23911 0.69787 0.0
O11 O 0.15112 0.26974 0.70069 0.0
O12 O 0.08781 0.2864 0.59721 0.0
O13 O 0.09173 0.23054 0.51235 0.0
O14 O 0.11622 0.33284 0.61816 0.0
O15 O 0.13679 0.31347 0.52934 0.0
O16 O 0.15417 0.27493 0.42378 0.0
O17 O 0.12334 0.2565 0.42301 0.0
C18 C 0.13689 0.2539 0.74066 0.0
C19 C 0.13881 0.26569 0.38255 0.0
Dy20 Dy 0.85976 0.2577 0.57075 0.0
C21 C 0.93866 0.2611 0.5562 0.0
C22 C 0.82331 0.25855 0.62402 0.0
Dy23 Dy 0.90077 0.25517 0.56827 0.0
O24 O 0.83506 0.28757 0.64505 0.0
O25 O 0.83136 0.22854 0.57146 0.0
O26 O 0.85718 0.32321 0.50118 0.0
O27 O 0.87927 0.31164 0.58938 0.0
C28 C 0.87196 0.33881 0.53318 0.0
C29 C 0.88818 0.17109 0.58468 0.0
O30 O 0.89464 0.278 0.70207 0.0
O31 O 0.86878 0.2381 0.70344 0.0
O32 O 0.93034 0.23536 0.60826 0.0
O33 O 0.92621 0.28469 0.51045 0.0
O34 O 0.90281 0.18419 0.62214 0.0
O35 O 0.88123 0.20314 0.53827 0.0
O36 O 0.86303 0.24518 0.43047 0.0
O37 O 0.8945 0.2584 0.42767 0.0
C38 C 0.88176 0.25815 0.74479 0.0
C39 C 0.87865 0.25132 0.38825 0.0
Dy40 Dy 0.11731 0.76084 0.42813 0.0
C41 C 0.19485 0.77415 0.38813 0.0
C42 C 0.07938 0.75541 0.44133 0.0
Dy43 Dy 0.15845 0.76086 0.42822 0.0
O44 O 0.08773 0.7803 0.38794 0.0
O45 O 0.09183 0.73235 0.48792 0.0
O46 O 0.11512 0.83262 0.37787 0.0
O47 O 0.13641 0.81334 0.46254 0.0
C48 C 0.1295 0.84573 0.41703 0.0
C49 C 0.14722 0.67795 0.45767 0.0
O50 O 0.15305 0.77895 0.56561 0.0
O51 O 0.12401 0.75022 0.56712 0.0
O52 O 0.18949 0.74201 0.43681 0.0
O53 O 0.18033 0.80052 0.36498 0.0
O54 O 0.16211 0.69318 0.48938 0.0
O55 O 0.13953 0.70616 0.40403 0.0
O56 O 0.12225 0.73949 0.29286 0.0
O57 O 0.15184 0.76377 0.28829 0.0
C58 C 0.13873 0.76392 0.60751 0.0
C59 C 0.13698 0.7503 0.24953 0.0
Dy60 Dy 0.90074 0.75488 0.43135 0.0
C61 C 0.82309 0.75928 0.37589 0.0
C62 C 0.93868 0.75958 0.44462 0.0
Dy63 Dy 0.85956 0.75811 0.42882 0.0
O64 O 0.93035 0.73081 0.39902 0.0
O65 O 0.92619 0.7869 0.4832 0.0
O66 O 0.90246 0.68429 0.37636 0.0
O67 O 0.88094 0.70335 0.46099 0.0
C68 C 0.88785 0.67133 0.41434 0.0
C69 C 0.87211 0.83871 0.46633 0.0
O70 O 0.8628 0.74539 0.56906 0.0
O71 O 0.89436 0.75779 0.5719 0.0
O72 O 0.83479 0.78866 0.35589 0.0
O73 O 0.8312 0.72878 0.42731 0.0
O74 O 0.85725 0.8235 0.49848 0.0
O75 O 0.8793 0.81146 0.4099 0.0
O76 O 0.89491 0.77699 0.29694 0.0
O77 O 0.86856 0.73871 0.29592 0.0
C78 C 0.87847 0.75104 0.61126 0.0
C79 C 0.88179 0.7579 0.25452 0.0
Dy80 Dy 0.65879 0.75346 0.06242 0.0
C81 C 0.57982 0.7478 0.03512 0.0
C82 C 0.69499 0.76767 0.10403 0.0
Dy83 Dy 0.61733 0.75441 0.0598 0.0
O84 O 0.68995 0.73655 0.05218 0.0
O85 O 0.68026 0.79257 0.12955 0.0
O86 O 0.6627 0.68551 0.00138 0.0
O87 O 0.63953 0.69941 0.08296 0.0
C88 C 0.64743 0.67091 0.03048 0.0
C89 C 0.62998 0.83811 0.07889 0.0
O90 O 0.62058 0.74405 0.19994 0.0
O91 O 0.65217 0.7534 0.20217 0.0
O92 O 0.58969 0.77738 -0.00074 0.0
O93 O 0.59056 0.72082 0.08314 0.0
O94 O 0.61546 0.82466 0.11727 0.0
O95 O 0.63677 0.80654 0.03093 0.0
O96 O 0.65322 0.7726 0.92601 0.0
O97 O 0.62555 0.73787 0.92449 0.0
C98 C 0.6363 0.74785 0.24163 0.0
C99 C 0.63958 0.75478 0.88389 0.0
Dy100 Dy 0.35963 0.76351 0.06431 0.0
C101 C 0.43875 0.76647 0.03472 0.0
C102 C 0.32324 0.76472 0.11815 0.0
Dy103 Dy 0.40114 0.76016 0.05834 0.0
O104 O 0.33513 0.79325 0.14004 0.0
O105 O 0.33111 0.73506 0.06443 0.0
O106 O 0.35679 0.82902 0.99371 0.0
O107 O 0.37954 0.81668 0.07765 0.0
C108 C 0.37205 0.84391 0.02209 0.0
C109 C 0.38823 0.67733 0.08417 0.0
O110 O 0.39684 0.77498 0.19703 0.0
O111 O 0.36835 0.74504 0.19815 0.0
O112 O 0.42899 0.73621 0.00054 0.0
O113 O 0.42786 0.7942 0.08065 0.0
O114 O 0.40313 0.6908 0.11927 0.0
O115 O 0.38119 0.70847 0.03568 0.0
O116 O 0.36296 0.74875 0.9249 0.0
O117 O 0.39335 0.77026 0.92039 0.0
C118 C 0.3827 0.75979 0.23887 0.0
C119 C 0.37801 0.75867 0.88186 0.0
Dy120 Dy 0.61717 0.25457 0.93733 0.0
C121 C 0.69484 0.26756 0.89312 0.0
C122 C 0.57965 0.24784 0.96217 0.0
Dy123 Dy 0.65856 0.25374 0.93432 0.0
O124 O 0.58953 0.27728 -0.00169 0.0
O125 O 0.5904 0.22103 0.91385 0.0
O126 O 0.61509 0.32482 0.88008 0.0
O127 O 0.63659 0.30691 0.96573 0.0
C128 C 0.62962 0.33839 0.91795 0.0
C129 C 0.64724 0.17108 0.96671 0.0
O130 O 0.653 0.27295 0.07073 0.0
O131 O 0.62537 0.23812 0.07262 0.0
O132 O 0.68968 0.23633 0.94448 0.0
O133 O 0.68018 0.29278 0.86781 0.0
O134 O 0.66244 0.18593 -0.00407 0.0
O135 O 0.63937 0.19948 0.91394 0.0
O136 O 0.62039 0.24437 0.79714 0.0
O137 O 0.65198 0.25375 0.79462 0.0
C138 C 0.63939 0.25511 0.11306 0.0
C139 C 0.63611 0.24822 0.75531 0.0
Dy140 Dy 0.40097 0.26058 0.9373 0.0
C141 C 0.3234 0.26324 0.8743 0.0
C142 C 0.43854 0.26727 0.96149 0.0
Dy143 Dy 0.35956 0.26321 0.93066 0.0
O144 O 0.42874 0.23725 -0.0037 0.0
O145 O 0.4277 0.29462 0.91464 0.0
O146 O 0.40339 0.19112 0.87716 0.0
O147 O 0.38117 0.20836 0.95987 0.0
C148 C 0.3885 0.17732 0.91193 0.0
C149 C 0.37166 0.34411 0.97239 0.0
O150 O 0.36282 0.24838 0.07018 0.0
O151 O 0.39303 0.2709 0.07502 0.0
O152 O 0.33574 0.28946 0.84732 0.0
O153 O 0.3307 0.23663 0.93445 0.0
O154 O 0.35636 0.32911 3e-05 0.0
O155 O 0.37926 0.31687 0.91719 0.0
O156 O 0.3967 0.2751 0.79841 0.0
O157 O 0.36856 0.24365 0.79763 0.0
C158 C 0.37776 0.25881 0.11344 0.0
C159 C 0.38275 0.25905 0.75665 0.0
C160 C 0.22772 0.23232 0.62598 0.0
C161 C 0.2144 0.26931 0.63899 0.0
C162 C 0.24533 0.2306 0.66544 0.0
C163 C 0.24968 0.26641 0.72055 0.0
C164 C 0.23625 0.30392 0.73382 0.0
C165 C 0.21883 0.30509 0.69237 0.0
C166 C 0.2593 0.19041 0.648 0.0
C167 C 0.2402 0.3426 0.7926 0.0
C168 C 0.29011 0.24217 0.87764 0.0
C169 C 0.30445 0.26321 0.83681 0.0
C170 C 0.27211 0.24345 0.84131 0.0
C171 C 0.26853 0.26541 0.7615 0.0
C172 C 0.28311 0.2861 0.71982 0.0
C173 C 0.30076 0.28514 0.7583 0.0
C174 C 0.2569 0.22157 0.88848 0.0
C175 C 0.28012 0.309 0.63401 0.0
H176 H 0.22434 0.20446 0.58507 0.0
H177 H 0.2085 0.3335 0.70349 0.0
H178 H 0.27222 0.2025 0.62046 0.0
H179 H 0.26323 0.17256 0.70854 0.0
H180 H 0.25382 0.16549 0.60322 0.0
H181 H 0.22812 0.36855 0.79829 0.0
H182 H 0.24384 0.32906 0.85712 0.0
H183 H 0.25237 0.35962 0.76875 0.0
H184 H 0.29288 0.22532 0.9384 0.0
H185 H 0.31182 0.30122 0.72603 0.0
H186 H 0.2517 0.19399 0.84909 0.0
H187 H 0.24493 0.24719 0.90001 0.0
H188 H 0.26176 0.20691 0.95074 0.0
H189 H 0.27538 0.28429 0.58691 0.0
H190 H 0.29299 0.32275 0.60924 0.0
H191 H 0.26903 0.33745 0.63882 0.0
C192 C 0.71697 0.29614 0.78591 0.0
C193 C 0.71385 0.26838 0.85643 0.0
C194 C 0.73448 0.29393 0.74512 0.0
C195 C 0.74931 0.26354 0.77601 0.0
C196 C 0.74627 0.23591 0.84804 0.0
C197 C 0.72857 0.23851 0.88704 0.0
C198 C 0.73705 0.32387 0.66844 0.0
C199 C 0.76171 0.20352 0.8839 0.0
C200 C 0.79129 0.22955 0.63213 0.0
C201 C 0.8042 0.25934 0.66035 0.0
C202 C 0.77329 0.23073 0.66851 0.0
C203 C 0.76821 0.26203 0.73528 0.0
C204 C 0.78129 0.29197 0.76389 0.0
C205 C 0.79901 0.29042 0.72588 0.0
C206 C 0.75971 0.19852 0.63559 0.0
C207 C 0.77663 0.32551 0.83534 0.0
H208 H 0.7056 0.31894 0.76135 0.0
H209 H 0.72621 0.21675 0.94117 0.0
H210 H 0.74809 0.34708 0.68152 0.0
H211 H 0.74171 0.30249 0.61283 0.0
H212 H 0.72404 0.34482 0.65099 0.0
H213 H 0.75709 0.18425 0.93996 0.0
H214 H 0.76691 0.17878 0.83415 0.0
H215 H 0.77362 0.22279 0.90339 0.0
H216 H 0.79523 0.20549 0.58156 0.0
H217 H 0.80893 0.31345 0.7484 0.0
H218 H 0.74683 0.2182 0.61278 0.0
H219 H 0.7556 0.17603 0.68798 0.0
H220 H 0.76563 0.17683 0.58251 0.0
H221 H 0.76434 0.34895 0.81772 0.0
H222 H 0.7884 0.34625 0.85062 0.0
H223 H 0.7729 0.30699 0.89378 0.0
C224 C 0.29107 0.73652 0.12539 0.0
C225 C 0.30414 0.76561 0.15468 0.0
C226 C 0.27308 0.73778 0.16189 0.0
C227 C 0.26817 0.76844 0.22987 0.0
C228 C 0.28141 0.79766 0.25959 0.0
C229 C 0.29912 0.79606 0.22142 0.0
C230 C 0.25932 0.70634 0.12778 0.0
C231 C 0.27695 0.83048 0.33236 0.0
C232 C 0.21708 0.80341 0.28214 0.0
C233 C 0.21386 0.77491 0.35146 0.0
C234 C 0.23457 0.80116 0.24116 0.0
C235 C 0.24929 0.77001 0.27072 0.0
C236 C 0.24614 0.74165 0.34159 0.0
C237 C 0.22846 0.74426 0.38072 0.0
C238 C 0.23724 0.83185 0.16565 0.0
C239 C 0.26147 0.70845 0.37609 0.0
H240 H 0.29487 0.71294 0.07388 0.0
H241 H 0.30917 0.81855 0.24477 0.0
H242 H 0.25514 0.68339 0.17928 0.0
H243 H 0.2465 0.72661 0.10585 0.0
H244 H 0.26512 0.68513 0.0738 0.0
H245 H 0.28884 0.85067 0.34843 0.0
H246 H 0.26475 0.85444 0.3157 0.0
H247 H 0.27315 0.81142 0.39006 0.0
H248 H 0.20579 0.8268 0.25857 0.0
H249 H 0.22602 0.72194 0.43392 0.0
H250 H 0.24177 0.81098 0.1092 0.0
H251 H 0.24841 0.85457 0.17957 0.0
H252 H 0.2243 0.85333 0.14908 0.0
H253 H 0.26652 0.68415 0.32537 0.0
H254 H 0.25679 0.68871 0.43142 0.0
H255 H 0.2735 0.72714 0.39625 0.0
C256 C 0.71686 0.79567 0.21277 0.0
C257 C 0.71395 0.76862 0.14108 0.0
C258 C 0.73431 0.7935 0.25391 0.0
C259 C 0.74932 0.76393 0.22213 0.0
C260 C 0.74649 0.73706 0.14889 0.0
C261 C 0.72884 0.73953 0.10962 0.0
C262 C 0.73664 0.82258 0.33195 0.0
C263 C 0.76213 0.70559 0.11203 0.0
C264 C 0.79874 0.79184 0.27498 0.0
C265 C 0.80402 0.76007 0.33927 0.0
C266 C 0.78108 0.79328 0.23647 0.0
C267 C 0.76815 0.76251 0.26332 0.0
C268 C 0.77332 0.73052 0.32888 0.0
C269 C 0.79125 0.72948 0.36577 0.0
C270 C 0.77634 0.8276 0.16635 0.0
C271 C 0.75989 0.69741 0.35995 0.0
H272 H 0.70536 0.81784 0.23801 0.0
H273 H 0.72664 0.71833 0.05456 0.0
H274 H 0.74135 0.80062 0.38673 0.0
H275 H 0.74756 0.84632 0.32018 0.0
H276 H 0.72351 0.8429 0.34997 0.0
H277 H 0.75769 0.68689 0.05498 0.0
H278 H 0.77395 0.7255 0.09376 0.0
H279 H 0.7674 0.68035 0.1608 0.0
H280 H 0.80855 0.8155 0.25377 0.0
H281 H 0.79526 0.70486 0.41534 0.0
H282 H 0.76391 0.85043 0.18461 0.0
H283 H 0.77278 0.80966 0.10702 0.0
H284 H 0.78801 0.84891 0.15232 0.0
H285 H 0.74688 0.71638 0.38316 0.0
H286 H 0.76586 0.67523 0.41227 0.0
H287 H 0.75599 0.67541 0.30646 0.0
C288 C 0.11954 0.92865 0.3969 0.0
C289 C 0.1315 0.89457 0.43577 0.0
C290 C 0.12043 0.975 0.41716 0.0
C291 C 0.1337 0.9878 0.47735 0.0
C292 C 0.14577 0.95348 0.51714 0.0
C293 C 0.14451 0.90729 0.49592 0.0
C294 C 0.10735 0.01036 0.37296 0.0
C295 C 0.16024 0.96562 0.581 0.0
C296 C 0.1512 0.10529 0.4526 0.0
C297 C 0.14185 0.1304 0.51826 0.0
C298 C 0.14861 0.05918 0.43895 0.0
C299 C 0.13622 0.03719 0.49196 0.0
C300 C 0.12639 0.06247 0.55756 0.0
C301 C 0.12931 0.10895 0.57 0.0
C302 C 0.15933 0.0339 0.36803 0.0
C303 C 0.11297 0.04024 0.615 0.0
H304 H 0.10937 0.91907 0.35067 0.0
H305 H 0.15372 0.88111 0.52655 0.0
H306 H 0.0998 0.03281 0.42077 0.0
H307 H 0.11546 0.03237 0.33217 0.0
H308 H 0.09697 0.9947 0.33238 0.0
H309 H 0.16772 0.9349 0.61036 0.0
H310 H 0.17061 0.98576 0.54908 0.0
H311 H 0.15359 0.98727 0.63239 0.0
H312 H 0.16081 0.12167 0.41174 0.0
H313 H 0.12206 0.12819 0.62076 0.0
H314 H 0.14952 0.01994 0.3223 0.0
H315 H 0.16818 1.00456 0.39471 0.0
H316 H 0.16841 0.05605 0.3324 0.0
H317 H 0.10203 0.02568 0.57618 0.0
H318 H 0.10614 0.06464 0.66182 0.0
H319 H 0.12047 0.01157 0.65031 0.0
C320 C 0.88893 0.40855 0.56726 0.0
C321 C 0.87623 0.38657 0.51744 0.0
C322 C 0.89164 0.45501 0.55339 0.0
C323 C 0.88141 0.47974 0.48833 0.0
C324 C 0.86887 0.45721 0.43717 0.0
C325 C 0.8665 0.4111 0.45217 0.0
C326 C 0.90524 0.47782 0.60881 0.0
C327 C 0.85772 0.48197 0.36696 0.0
C328 C 0.87286 0.60951 0.49257 0.0
C329 C 0.88569 0.62244 0.43162 0.0
C330 C 0.8717 0.56328 0.51357 0.0
C331 C 0.88365 0.52913 0.47267 0.0
C332 C 0.89664 0.5421 0.41121 0.0
C333 C 0.89745 0.58851 0.39125 0.0
C334 C 0.85753 0.55091 0.57881 0.0
C335 C 0.90956 0.50688 0.36576 0.0
H336 H 0.89648 0.38973 0.61769 0.0
H337 H 0.85676 0.39428 0.41281 0.0
H338 H 0.9159 0.49254 0.56847 0.0
H339 H 0.89781 0.50645 0.6445 0.0
H340 H 0.91241 0.45376 0.65525 0.0
H341 H 0.8486 0.4594 0.33265 0.0
H342 H 0.84885 0.51115 0.39409 0.0
H343 H 0.86724 0.49609 0.32001 0.0
H344 H 0.86381 0.6356 0.52435 0.0
H345 H 0.90746 0.59825 0.34433 0.0
H346 H 0.86449 0.52986 0.63024 0.0
H347 H 0.84722 0.53008 0.54828 0.0
H348 H 0.84993 0.58153 0.60798 0.0
H349 H 0.91751 0.48481 0.4129 0.0
H350 H 0.9196 0.52266 0.32337 0.0
H351 H 0.9013 0.48446 0.32663 0.0
C352 C 0.88914 0.9083 0.43148 0.0
C353 C 0.87654 0.88634 0.48204 0.0
C354 C 0.89191 0.95475 0.44515 0.0
C355 C 0.88185 0.97947 0.51074 0.0
C356 C 0.86944 0.95695 0.5627 0.0
C357 C 0.86701 0.91086 0.5479 0.0
C358 C 0.90539 0.97755 0.38889 0.0
C359 C 0.85846 0.98169 0.63348 0.0
C360 C 0.89801 0.08829 0.60685 0.0
C361 C 0.8861 0.12219 0.56717 0.0
C362 C 0.89722 0.04189 0.58685 0.0
C363 C 0.88411 0.02888 0.52608 0.0
C364 C 0.87204 0.063 0.48579 0.0
C365 C 0.87318 0.10923 0.5068 0.0
C366 C 0.91028 1.00671 0.63161 0.0
C367 C 0.85773 0.05059 0.42132 0.0
H368 H 0.89654 0.88951 0.38058 0.0
H369 H 0.85735 0.89406 0.58784 0.0
H370 H 0.89786 1.0061 0.35336 0.0
H371 H 0.91612 0.99238 0.42859 0.0
H372 H 0.91248 0.95346 0.34227 0.0
H373 H 0.84944 0.95911 0.66845 0.0
H374 H 0.8681 0.99585 0.67979 0.0
H375 H 0.84952 0.01085 0.60676 0.0
H376 H 0.90809 0.09807 0.65331 0.0
H377 H 0.86402 0.13529 0.47556 0.0
H378 H 0.9181 0.98464 0.58407 0.0
H379 H 0.90214 0.98429 0.6714 0.0
H380 H 0.92043 0.02254 0.67326 0.0
H381 H 0.86459 0.02952 0.36964 0.0
H382 H 0.85008 0.08119 0.3924 0.0
H383 H 0.8475 0.02977 0.45247 0.0
C384 C 0.12923 0.60941 0.42621 0.0
C385 C 0.14294 0.63004 0.47219 0.0
C386 C 0.12623 0.56307 0.44001 0.0
C387 C 0.13721 0.53708 0.50099 0.0
C388 C 0.15086 0.5582 0.54807 0.0
C389 C 0.15347 0.60419 0.53333 0.0
C390 C 0.11144 0.5418 0.38908 0.0
C391 C 0.16287 0.53209 0.61383 0.0
C392 C 0.12169 0.42878 0.60248 0.0
C393 C 0.13253 0.39454 0.55829 0.0
C394 C 0.12258 0.47518 0.58242 0.0
C395 C 0.13466 0.4878 0.5167 0.0
C396 C 0.1456 0.45331 0.47165 0.0
C397 C 0.14443 0.40712 0.49306 0.0
C398 C 0.11078 0.51077 0.63252 0.0
C399 C 0.15877 0.46524 0.40167 0.0
H400 H 0.12102 0.62924 0.37913 0.0
H401 H 0.16401 0.61991 0.56982 0.0
H402 H 0.11791 0.51287 0.35088 0.0
H403 H 0.10122 0.52775 0.43277 0.0
H404 H 0.10387 0.56665 0.34529 0.0
H405 H 0.17286 0.5536 0.64506 0.0
H406 H 0.15396 0.51839 0.66386 0.0
H407 H 0.17088 0.50253 0.58334 0.0
H408 H 0.1124 0.4193 0.65274 0.0
H409 H 0.15275 0.38081 0.45829 0.0
H410 H 0.10234 0.5337 0.58848 0.0
H411 H 0.11992 0.53225 0.66914 0.0
H412 H 0.10125 0.49532 0.67791 0.0
H413 H 0.15119 0.48726 0.35332 0.0
H414 H 0.16545 0.43445 0.36929 0.0
H415 H 0.16987 0.48491 0.42874 0.0
C416 C 0.65249 0.59831 0.94998 0.0
C417 C 0.64271 0.62349 0.01429 0.0
C418 C 0.64969 0.55243 0.93475 0.0
C419 C 0.63669 0.53073 0.98493 0.0
C420 C 0.62637 0.5562 0.04882 0.0
C421 C 0.62947 0.60245 0.06272 0.0
C422 C 0.66092 0.52696 0.86563 0.0
C423 C 0.6123 0.53434 0.10333 0.0
C424 C 0.62041 0.42127 0.89079 0.0
C425 C 0.63189 0.3875 0.93317 0.0
C426 C 0.62144 0.46789 0.90876 0.0
C427 C 0.63429 0.48123 0.97049 0.0
C428 C 0.64592 0.44723 0.01345 0.0
C429 C 0.6446 0.40084 0.9942 0.0
C430 C 0.60888 0.50293 0.86105 0.0
C431 C 0.65991 0.45988 0.07922 0.0
H432 H 0.66262 0.61445 0.91159 0.0
H433 H 0.62185 0.62177 0.11234 0.0
H434 H 0.66964 0.49786 0.89394 0.0
H435 H 0.65147 0.51263 0.81871 0.0
H436 H 0.6702 0.54908 0.83108 0.0
H437 H 0.60494 0.55904 0.14806 0.0
H438 H 0.60183 0.51942 0.06228 0.0
H439 H 0.61941 0.50597 0.14089 0.0
H440 H 0.6105 0.41123 0.8438 0.0
H441 H 0.65344 0.37494 0.02755 0.0
H442 H 0.61742 0.52488 0.8222 0.0
H443 H 0.60074 0.52551 0.90678 0.0
H444 H 0.59901 0.48698 0.81808 0.0
H445 H 0.67045 0.48003 0.04866 0.0
H446 H 0.66723 0.4294 0.11009 0.0
H447 H 0.65284 0.48168 0.12935 0.0
C448 C 0.36712 0.91571 0.93884 0.0
C449 C 0.37664 0.89132 0.00486 0.0
C450 C 0.36962 0.96177 0.92347 0.0
C451 C 0.38202 0.98441 0.97525 0.0
C452 C 0.3921 0.95972 0.04079 0.0
C453 C 0.38932 0.91331 0.05481 0.0
C454 C 0.35865 0.98644 0.85265 0.0
C455 C 0.40553 0.9826 0.09709 0.0
C456 C 0.39814 0.09477 0.8841 0.0
C457 C 0.38622 0.12808 0.92533 0.0
C458 C 0.39724 0.04802 0.90126 0.0
C459 C 0.38405 0.03408 0.96089 0.0
C460 C 0.37189 0.0676 0.00233 0.0
C461 C 0.37311 0.11414 0.984 0.0
C462 C 0.41038 0.01351 0.85525 0.0
C463 C 0.35752 0.05427 0.0658 0.0
H464 H 0.35741 0.89883 0.89941 0.0
H465 H 0.3967 0.89462 0.10586 0.0
H466 H 0.34943 0.01505 0.87958 0.0
H467 H 0.36826 1.00136 0.80711 0.0
H468 H 0.3499 0.9636 0.81684 0.0
H469 H 0.41281 0.95841 0.14294 0.0
H470 H 0.4161 0.99812 0.05742 0.0
H471 H 0.39789 0.01065 0.13353 0.0
H472 H 0.40836 0.10528 0.8389 0.0
H473 H 0.36392 0.13969 0.01642 0.0
H474 H 0.40229 0.99093 0.81563 0.0
H475 H 0.41843 0.99149 0.90211 0.0
H476 H 0.42032 0.02992 0.81331 0.0
H477 H 0.34752 0.03314 0.03382 0.0
H478 H 0.34959 0.08443 0.09491 0.0
H479 H 0.36439 0.0332 0.11745 0.0
C480 C 0.36627 0.41617 0.05443 0.0
C481 C 0.37613 0.39161 0.98959 0.0
C482 C 0.36875 0.46222 0.06999 0.0
C483 C 0.38149 0.48467 0.01965 0.0
C484 C 0.39189 0.45982 0.95525 0.0
C485 C 0.38911 0.41342 0.94098 0.0
C486 C 0.35742 0.48706 0.13956 0.0
C487 C 0.40569 0.48249 0.90051 0.0
C488 C 0.37299 0.61448 0.01046 0.0
C489 C 0.38583 0.62817 0.07056 0.0
C490 C 0.37174 0.56799 0.99181 0.0
C491 C 0.38357 0.53427 0.03444 0.0
C492 C 0.39648 0.54796 0.09558 0.0
C493 C 0.39743 0.59466 0.11297 0.0
C494 C 0.35769 0.55494 0.92669 0.0
C495 C 0.40926 0.51323 0.14294 0.0
H496 H 0.35631 0.39944 0.09284 0.0
H497 H 0.39677 0.3946 0.89086 0.0
H498 H 0.36681 0.50177 0.18631 0.0
H499 H 0.34846 0.51585 0.11166 0.0
H500 H 0.34838 0.4644 0.17419 0.0
H501 H 0.41314 0.45822 0.85526 0.0
H502 H 0.39833 0.51072 0.86349 0.0
H503 H 0.41611 0.49773 0.94138 0.0
H504 H 0.36406 0.64018 0.97711 0.0
H505 H 0.40743 0.60497 0.1593 0.0
H506 H 0.34744 0.53399 0.95745 0.0
H507 H 0.36479 0.53379 0.87575 0.0
H508 H 0.35001 0.58523 0.89682 0.0
H509 H 0.40088 0.49078 0.18151 0.0
H510 H 0.41901 0.52944 0.18608 0.0
H511 H 0.41752 0.4911 0.09693 0.0
C512 C 0.6535 0.09714 0.04197 0.0
C513 C 0.6428 0.12332 0.98189 0.0
C514 C 0.65079 0.05115 0.05668 0.0
C515 C 0.6369 0.03039 0.01059 0.0
C516 C 0.62571 0.05679 0.95089 0.0
C517 C 0.62879 0.10309 0.93716 0.0
C518 C 0.66303 0.02463 0.12107 0.0
C519 C 0.61067 0.03594 0.90092 0.0
C520 C 0.64398 0.90049 -0.0021 0.0
C521 C 0.63221 0.88718 0.06305 0.0
C522 C 0.64516 0.94689 0.97823 0.0
C523 C 0.63441 0.98094 0.0252 0.0
C524 C 0.62252 0.96763 0.09113 0.0
C525 C 0.62155 0.92098 0.10918 0.0
C526 C 0.65809 0.95949 0.90774 0.0
C527 C 0.61096 1.00271 0.14335 0.0
H528 H 0.66427 0.11255 0.07749 0.0
H529 H 0.62045 0.12317 0.8909 0.0
H530 H 0.65429 0.01037 0.17116 0.0
H531 H 0.671 0.99544 0.08928 0.0
H532 H 0.67306 0.046 0.15235 0.0
H533 H 0.60283 0.06119 0.85876 0.0
H534 H 0.61696 1.00747 0.86108 0.0
H535 H 0.6007 0.02135 0.9452 0.0
H536 H 0.65216 0.87457 0.96155 0.0
H537 H 0.61237 0.91095 0.1594 0.0
H538 H 0.6693 0.97885 0.93466 0.0
H539 H 0.65034 0.98202 0.86066 0.0
H540 H 0.66463 0.92902 0.87386 0.0
H541 H 0.62026 0.02399 0.17948 0.0
H542 H 0.60169 0.98683 0.18934 0.0
H543 H 0.60226 0.02593 0.10076 0.0
C544 C 0.15416 0.24588 0.24345 0.0
C545 C 0.1387 0.26535 0.28865 0.0
C546 C 0.15366 0.24225 0.15415 0.0
C547 C 0.13756 0.25999 0.10924 0.0
C548 C 0.12207 0.28062 0.15482 0.0
C549 C 0.12271 0.28228 0.24423 0.0
C550 C 0.17025 0.21889 0.10796 0.0
C551 C 0.10492 0.30137 0.10916 0.0
C552 C 0.14443 0.2909 0.87712 0.0
C553 C 0.13661 0.25516 0.83466 0.0
C554 C 0.14451 0.29328 0.96641 0.0
C555 C 0.13713 0.25822 0.01443 0.0
C556 C 0.12935 0.22174 0.97183 0.0
C557 C 0.12889 0.22107 0.88212 0.0
C558 C 0.15236 0.3335 0.00927 0.0
C559 C 0.12182 0.18312 0.02099 0.0
H560 H 0.16641 0.23218 0.27819 0.0
H561 H 0.11078 0.29743 0.27949 0.0
H562 H 0.16575 0.19052 0.06835 0.0
H563 H 0.17633 0.2433 0.06419 0.0
H564 H 0.18129 0.20496 0.1526 0.0
H565 H 0.09429 0.31718 0.15399 0.0
H566 H 0.10885 0.32786 0.06364 0.0
H567 H 0.09852 0.27486 0.07148 0.0
H568 H 0.15023 0.31757 0.8403 0.0
H569 H 0.12296 0.19331 0.84912 0.0
H570 H 0.16456 0.32161 0.04904 0.0
H571 H 0.14176 0.35078 0.05243 0.0
H572 H 0.1568 0.35888 0.96253 0.0
H573 H 0.13286 0.16677 0.06303 0.0
H574 H 0.11674 0.15668 0.97829 0.0
H575 H 0.11016 0.19648 0.06272 0.0
C576 C 0.86308 0.2682 0.24787 0.0
C577 C 0.87871 0.25052 0.29405 0.0
C578 C 0.86358 0.27061 0.15828 0.0
C579 C 0.87992 0.25365 0.11408 0.0
C580 C 0.89557 0.23475 0.16063 0.0
C581 C 0.89487 0.23407 0.2501 0.0
C582 C 0.84677 0.29199 0.11102 0.0
C583 C 0.91303 0.21504 0.11594 0.0
C584 C 0.87453 0.22049 0.88176 0.0
C585 C 0.88188 0.25687 0.83904 0.0
C586 C 0.87405 0.21874 0.97117 0.0
C587 C 0.88057 0.25495 0.0191 0.0
C588 C 0.88789 0.29201 0.97624 0.0
C589 C 0.88872 0.29218 0.88654 0.0
C590 C 0.86667 0.17798 0.01433 0.0
C591 C 0.89457 0.33176 0.02509 0.0
H592 H 0.85067 0.28148 0.28192 0.0
H593 H 0.90695 0.22017 0.28582 0.0
H594 H 0.85083 0.32086 0.07142 0.0
H595 H 0.84132 0.26671 0.0671 0.0
H596 H 0.83538 0.30481 0.15493 0.0
H597 H 0.92375 0.20028 0.16142 0.0
H598 H 0.90957 0.18793 0.07081 0.0
H599 H 0.91914 0.24192 0.07797 0.0
H600 H 0.86936 0.19293 0.84511 0.0
H601 H 0.89425 0.32053 0.85353 0.0
H602 H 0.85426 0.18907 0.05344 0.0
H603 H 0.87737 0.16173 0.0582 0.0
H604 H 0.86271 0.15197 0.96782 0.0
H605 H 0.88317 0.34727 0.06618 0.0
H606 H 0.89934 0.35855 0.98221 0.0
H607 H 0.90627 0.31973 0.06773 0.0
C608 C 0.15351 0.73585 0.11124 0.0
C609 C 0.13696 0.74852 0.15548 0.0
C610 C 0.15408 0.73683 0.02173 0.0
C611 C 0.13787 0.75254 0.97565 0.0
C612 C 0.12111 0.76546 0.02022 0.0
C613 C 0.12077 0.76252 0.10972 0.0
C614 C 0.17203 0.72116 0.97654 0.0
C615 C 0.10367 0.78358 0.97356 0.0
C616 C 0.14494 0.79688 0.75059 0.0
C617 C 0.13908 0.76111 0.70127 0.0
C618 C 0.14435 0.79488 0.8402 0.0
C619 C 0.13846 0.75543 0.88082 0.0
C620 C 0.13307 0.71868 0.83076 0.0
C621 C 0.13312 0.72237 0.74154 0.0
C622 C 0.14968 0.8353 0.89134 0.0
C623 C 0.12737 0.67537 0.87135 0.0
H624 H 0.16603 0.72488 0.14677 0.0
H625 H 0.10804 0.77292 0.14411 0.0
H626 H 0.1695 0.69424 0.92934 0.0
H627 H 0.17729 0.75002 0.94083 0.0
H628 H 0.18306 0.70748 0.02152 0.0
H629 H 0.09191 0.79313 0.01775 0.0
H630 H 0.10656 0.81408 0.93556 0.0
H631 H 0.09929 0.75759 0.92821 0.0
H632 H 0.14942 0.82693 0.71906 0.0
H633 H 0.12878 0.69452 0.70299 0.0
H634 H 0.16174 0.82496 0.93307 0.0
H635 H 0.13793 0.84777 0.93349 0.0
H636 H 0.15338 0.86391 0.85003 0.0
H637 H 0.13851 0.66096 0.91493 0.0
H638 H 0.12457 0.64905 0.82323 0.0
H639 H 0.11461 0.68294 0.91033 0.0
C640 C 0.8946 0.73296 0.74917 0.0
C641 C 0.87852 0.75003 0.70543 0.0
C642 C 0.89534 0.73356 0.83862 0.0
C643 C 0.8798 0.75301 0.88535 0.0
C644 C 0.86353 0.77053 0.84138 0.0
C645 C 0.86298 0.76821 0.7518 0.0
C646 C 0.91272 0.71324 0.88309 0.0
C647 C 0.84685 0.79248 0.88885 0.0
C648 C 0.87433 0.72032 0.11793 0.0
C649 C 0.88192 0.75645 0.1603 0.0
C650 C 0.8738 0.71849 0.02854 0.0
C651 C 0.88052 0.75437 0.98031 0.0
C652 C 0.88809 0.79116 0.02282 0.0
C653 C 0.88896 0.79141 0.11249 0.0
C654 C 0.86615 0.67799 0.98575 0.0
C655 C 0.89499 0.83056 0.97361 0.0
H656 H 0.9066 0.71868 0.71329 0.0
H657 H 0.85063 0.78195 0.71789 0.0
H658 H 0.91904 0.7399 0.92074 0.0
H659 H 0.9091 0.68637 0.92848 0.0
H660 H 0.92332 0.69804 0.83749 0.0
H661 H 0.83549 0.80559 0.8451 0.0
H662 H 0.84128 0.76746 0.93306 0.0
H663 H 0.85109 0.82123 0.92818 0.0
H664 H 0.86901 0.69303 0.15483 0.0
H665 H 0.89467 0.81956 0.14525 0.0
H666 H 0.87674 0.66136 0.94173 0.0
H667 H 0.85376 0.68947 0.94684 0.0
H668 H 0.86207 0.65219 0.03247 0.0
H669 H 0.9066 0.81808 0.93079 0.0
H670 H 0.89996 0.85718 0.01625 0.0
H671 H 0.88365 0.84644 0.93268 0.0
C672 C 0.65267 0.73024 0.37917 0.0
C673 C 0.63643 0.74656 0.33578 0.0
C674 C 0.65346 0.73066 0.46857 0.0
C675 C 0.63779 0.74906 0.51556 0.0
C676 C 0.62134 0.76572 0.47202 0.0
C677 C 0.62077 0.76367 0.38249 0.0
C678 C 0.67105 0.71135 0.5127 0.0
C679 C 0.6045 0.7865 0.51993 0.0
C680 C 0.63272 0.71616 0.74802 0.0
C681 C 0.63984 0.753 0.78999 0.0
C682 C 0.63227 0.71409 0.6587 0.0
C683 C 0.63857 0.75045 0.61035 0.0
C684 C 0.64571 0.7879 0.65258 0.0
C685 C 0.64653 0.78838 0.74217 0.0
C686 C 0.6251 0.67293 0.61614 0.0
C687 C 0.65217 0.82777 0.6032 0.0
H688 H 0.66477 0.71675 0.3431 0.0
H689 H 0.60828 0.77679 0.34893 0.0
H690 H 0.6771 0.73842 0.55031 0.0
H691 H 0.66776 0.68417 0.55809 0.0
H692 H 0.68175 0.69682 0.46688 0.0
H693 H 0.59297 0.79887 0.47648 0.0
H694 H 0.59929 0.76101 0.56422 0.0
H695 H 0.60844 0.81559 0.55922 0.0
H696 H 0.62771 0.68857 0.78522 0.0
H697 H 0.65188 0.81704 0.77487 0.0
H698 H 0.63579 0.65709 0.57175 0.0
H699 H 0.61254 0.6835 0.57769 0.0
H700 H 0.62144 0.64674 0.663 0.0
H701 H 0.66383 0.81596 0.56014 0.0
H702 H 0.6569 0.85474 0.64572 0.0
H703 H 0.64065 0.843 0.56251 0.0
C704 C 0.36269 0.77426 0.74045 0.0
C705 C 0.37814 0.7567 0.78787 0.0
C706 C 0.3634 0.77537 0.65075 0.0
C707 C 0.37972 0.757 0.60793 0.0
C708 C 0.39513 0.73798 0.65594 0.0
C709 C 0.39426 0.73884 0.74535 0.0
C710 C 0.34689 0.79709 0.60189 0.0
C711 C 0.41252 0.71663 0.61292 0.0
C712 C 0.37477 0.72286 0.37566 0.0
C713 C 0.38278 0.7583 0.33302 0.0
C714 C 0.37396 0.72163 0.46512 0.0
C715 C 0.38073 0.75757 0.51295 0.0
C716 C 0.38872 0.79367 0.47003 0.0
C717 C 0.38994 0.79318 0.38046 0.0
C718 C 0.36595 0.68172 0.5084 0.0
C719 C 0.39565 0.83322 0.51864 0.0
H720 H 0.35031 0.78853 0.77357 0.0
H721 H 0.40617 0.725 0.78227 0.0
H722 H 0.35132 0.82537 0.56178 0.0
H723 H 0.34136 0.77177 0.5583 0.0
H724 H 0.33545 0.8108 0.64476 0.0
H725 H 0.42288 0.70131 0.65947 0.0
H726 H 0.40885 0.68965 0.56793 0.0
H727 H 0.41917 0.74271 0.57506 0.0
H728 H 0.36931 0.69572 0.3389 0.0
H729 H 0.39594 0.82085 0.34737 0.0
H730 H 0.35343 0.6938 0.54596 0.0
H731 H 0.37628 0.66524 0.55374 0.0
H732 H 0.36198 0.65565 0.46206 0.0
H733 H 0.38425 0.84962 0.55865 0.0
H734 H 0.40084 0.8594 0.47562 0.0
H735 H 0.4071 0.82079 0.56229 0.0
C736 C 0.63226 0.2169 0.24914 0.0
C737 C 0.63964 0.25337 0.20698 0.0
C738 C 0.6318 0.21487 0.33846 0.0
C739 C 0.63839 0.2509 0.38665 0.0
C740 C 0.64581 0.28797 0.34427 0.0
C741 C 0.64661 0.28841 0.25466 0.0
C742 C 0.62432 0.17411 0.38119 0.0
C743 C 0.65258 0.32748 0.3935 0.0
C744 C 0.62067 0.26476 0.61461 0.0
C745 C 0.63623 0.24697 0.6612 0.0
C746 C 0.62126 0.26687 0.52508 0.0
C747 C 0.63761 0.24955 0.48144 0.0
C748 C 0.65317 0.23047 0.52832 0.0
C749 C 0.65238 0.23003 0.61772 0.0
C750 C 0.60455 0.2884 0.4773 0.0
C751 C 0.67064 0.21043 0.48407 0.0
H752 H 0.62703 0.18956 0.21209 0.0
H753 H 0.65217 0.31679 0.22185 0.0
H754 H 0.63492 0.15782 0.42549 0.0
H755 H 0.61184 0.18524 0.41977 0.0
H756 H 0.62045 0.14813 0.33443 0.0
H757 H 0.65752 0.35417 0.35087 0.0
H758 H 0.64117 0.34322 0.43424 0.0
H759 H 0.66417 0.31516 0.43649 0.0
H760 H 0.60826 0.27836 0.64828 0.0
H761 H 0.6644 0.21603 0.65373 0.0
H762 H 0.59913 0.2632 0.4331 0.0
H763 H 0.60871 0.31725 0.43793 0.0
H764 H 0.5931 0.30129 0.52083 0.0
H765 H 0.66714 0.18343 0.43875 0.0
H766 H 0.68125 0.19545 0.52982 0.0
H767 H 0.67689 0.23719 0.44636 0.0
C768 C 0.39412 0.23933 0.24978 0.0
C769 C 0.37788 0.25659 0.20748 0.0
C770 C 0.39501 0.2383 0.33919 0.0
C771 C 0.3795 0.2565 0.38749 0.0
C772 C 0.36305 0.2742 0.34493 0.0
C773 C 0.36233 0.27329 0.25519 0.0
C774 C 0.41256 0.21765 0.38188 0.0
C775 C 0.34641 0.29504 0.39409 0.0
C776 C 0.37504 0.22178 0.61991 0.0
C777 C 0.38281 0.25757 0.66245 0.0
C778 C 0.37414 0.22063 0.53045 0.0
C779 C 0.38056 0.25702 0.48251 0.0
C780 C 0.3883 0.29348 0.52533 0.0
C781 C 0.38963 0.29291 0.61488 0.0
C782 C 0.36642 0.18035 0.48728 0.0
C783 C 0.39485 0.33349 0.47666 0.0
H784 H 0.40611 0.22612 0.21269 0.0
H785 H 0.34985 0.28708 0.22228 0.0
H786 H 0.41902 0.24404 0.41961 0.0
H787 H 0.40913 0.19044 0.42693 0.0
H788 H 0.42299 0.2028 0.33513 0.0
H789 H 0.33485 0.30819 0.35145 0.0
H790 H 0.34114 0.26937 0.43781 0.0
H791 H 0.3506 0.32359 0.4341 0.0
H792 H 0.36983 0.1943 0.65675 0.0
H793 H 0.39542 0.32087 0.64787 0.0
H794 H 0.37682 0.16439 0.44165 0.0
H795 H 0.35379 0.1919 0.45007 0.0
H796 H 0.3627 0.15399 0.53367 0.0
H797 H 0.40635 0.32166 0.43275 0.0
H798 H 0.39985 0.35992 0.51962 0.0
H799 H 0.3833 0.3494 0.43692 0.0
C800 C 0.05027 0.2273 0.49317 0.0
C801 C 0.05878 0.2581 0.54559 0.0
C802 C 0.03067 0.22793 0.48857 0.0
C803 C 0.01937 0.26003 0.5377 0.0
C804 C 0.02797 0.29148 0.58987 0.0
C805 C 0.04751 0.29014 0.59307 0.0
C806 C 0.02206 0.19385 0.43215 0.0
C807 C 0.01654 0.32608 0.64374 0.0
C808 C 0.9676 0.28771 0.48842 0.0
C809 C 0.95922 0.26122 0.54954 0.0
C810 C 0.98718 0.287 0.4824 0.0
C811 C 0.99861 0.25924 0.53897 0.0
C812 C 0.99014 0.23225 0.6003 0.0
C813 C 0.97061 0.23355 0.60471 0.0
C814 C 0.99565 0.31627 0.41616 0.0
C815 C 1.0017 0.20242 0.6623 0.0
H816 H 0.05892 0.20261 0.45611 0.0
H817 H 0.05399 0.31416 0.63358 0.0
H818 H 0.01412 0.17091 0.47176 0.0
H819 H 0.01203 0.21183 0.38725 0.0
H820 H 0.03268 0.17268 0.39478 0.0
H821 H 0.02534 0.34934 0.67827 0.0
H822 H 1.00648 0.34693 0.60312 0.0
H823 H 1.00833 0.30824 0.69129 0.0
H824 H 0.95885 0.30898 0.44541 0.0
H825 H 0.96423 0.21287 0.652 0.0
H826 H 1.00554 0.29489 0.37549 0.0
H827 H 1.00372 0.34194 0.44801 0.0
H828 H 0.98493 0.33442 0.37464 0.0
H829 H 0.01165 0.17841 0.62706 0.0
H830 H 0.993 0.18236 0.70427 0.0
H831 H 0.01004 0.22388 0.70305 0.0
C832 C 0.96767 0.79155 0.50113 0.0
C833 C 0.95925 0.75939 0.45147 0.0
C834 C 0.98726 0.79105 0.50608 0.0
C835 C 0.99864 0.75759 0.46035 0.0
C836 C 0.99012 0.72472 0.41121 0.0
C837 C 0.97059 0.72606 0.40738 0.0
C838 C 0.99579 0.82674 0.55904 0.0
C839 C 1.00163 0.68857 0.36114 0.0
C840 C 0.04748 0.78184 0.39059 0.0
C841 C 0.0588 0.75564 0.44827 0.0
C842 C 0.02795 0.78345 0.39508 0.0
C843 C 0.01941 0.75835 0.45912 0.0
C844 C 0.03077 0.73217 0.51831 0.0
C845 C 0.05036 0.73103 0.51207 0.0
C846 C 0.01646 0.8115 0.33019 0.0
C847 C 0.02222 0.70499 0.58757 0.0
H848 H 0.95895 0.81728 0.53551 0.0
H849 H 0.96418 0.70096 0.3691 0.0
H850 H 1.00578 0.81012 0.60568 0.0
H851 H 1.00375 0.84856 0.5172 0.0
H852 H 0.98511 0.8489 0.59421 0.0
H853 H 0.99289 0.6643 0.32905 0.0
H854 H 0.00991 0.70497 0.31184 0.0
H855 H 0.01165 0.66899 0.40393 0.0
H856 H 0.05391 0.80105 0.34121 0.0
H857 H 0.05906 0.71094 0.55705 0.0
H858 H 1.00646 0.83646 0.36297 0.0
H859 H 1.00817 0.78891 0.29154 0.0
H860 H 0.02522 0.83036 0.28637 0.0
H861 H 0.01229 0.72758 0.62585 0.0
H862 H 0.03289 0.68814 0.63098 0.0
H863 H 0.01418 0.67839 0.55849 0.0
C864 C 0.54934 0.72077 0.0827 0.0
C865 C 0.55922 0.74854 0.02948 0.0
C866 C 0.52971 0.72389 0.08233 0.0
C867 C 0.51971 0.7553 0.0269 0.0
C868 C 0.52968 0.78277 0.97186 0.0
C869 C 0.54929 0.77919 0.97409 0.0
C870 C 0.51965 0.69413 0.14233 0.0
C871 C 0.51963 0.81634 0.91123 0.0
C872 C 0.46935 0.73484 0.97479 0.0
C873 C 0.45934 0.76589 0.02918 0.0
C874 C 0.48895 0.73147 0.97259 0.0
C875 C 0.49884 0.75953 0.0267 0.0
C876 C 0.48877 0.79137 0.08106 0.0
C877 C 0.46914 0.79431 0.08136 0.0
C878 C 0.49909 0.69745 0.91302 0.0
C879 C 0.49875 0.82177 0.14007 0.0
H880 H 0.55696 0.69721 0.12597 0.0
H881 H 0.55687 0.80081 0.9329 0.0
H882 H 0.51062 0.71582 0.18623 0.0
H883 H 0.51044 0.67288 0.10565 0.0
H884 H 0.52942 0.67125 0.18098 0.0
H885 H 0.52941 0.83436 0.87104 0.0
H886 H 0.5103 0.79839 0.86882 0.0
H887 H 0.51072 0.84214 0.94773 0.0
H888 H 0.46184 0.71277 0.93433 0.0
H889 H 0.46146 0.81819 0.12382 0.0
H890 H 0.50797 0.67197 0.95038 0.0
H891 H 0.50846 0.71509 0.87023 0.0
H892 H 0.48937 0.6791 0.87323 0.0
H893 H 0.50771 0.80054 0.18491 0.0
H894 H 0.48892 0.84503 0.17772 0.0
H895 H 0.50801 0.84264 0.10275 0.0
C896 C 0.46899 0.29501 0.91504 0.0
C897 C 0.45913 0.26667 0.96722 0.0
C898 C 0.48863 0.29199 0.9155 0.0
C899 C 0.49865 0.26009 0.96994 0.0
C900 C 0.48869 0.23209 0.02402 0.0
C901 C 0.46909 0.23559 0.02174 0.0
C902 C 0.49867 0.32236 0.85659 0.0
C903 C 0.49877 0.19797 0.0836 0.0
C904 C 0.54916 0.22104 0.91429 0.0
C905 C 0.55904 0.24868 0.96768 0.0
C906 C 0.52953 0.22431 0.91448 0.0
C907 C 0.51952 0.25573 0.96988 0.0
C908 C 0.52949 0.28306 0.02509 0.0
C909 C 0.5491 0.27933 0.02306 0.0
C910 C 0.51947 0.19467 0.85434 0.0
C911 C 0.51943 0.31665 0.08569 0.0
H912 H 0.46136 0.31892 0.87248 0.0
H913 H 0.46153 0.21356 0.06218 0.0
H914 H 0.50794 0.34312 0.89398 0.0
H915 H 0.50763 0.30111 0.81174 0.0
H916 H 0.48888 0.34572 0.81896 0.0
H917 H 0.489 0.17966 0.12331 0.0
H918 H 0.50764 0.17247 0.04627 0.0
H919 H 0.50813 0.21552 0.12648 0.0
H920 H 0.55678 0.19749 0.87102 0.0
H921 H 0.55667 0.30084 0.06439 0.0
H922 H 0.5105 0.21645 0.81038 0.0
H923 H 0.5102 0.17347 0.89091 0.0
H924 H 0.52925 0.17176 0.81576 0.0
H925 H 0.51056 0.3425 0.04914 0.0
H926 H 0.5292 0.33458 0.12595 0.0
H927 H 0.51006 0.29872 0.12802 0.0
loop_
_geom_bond_atom_site_label_1
_geom_bond_atom_site_label_2
_geom_bond_distance
_geom_bond_site_symmetry_2
_ccdc_geom_bond_type
Dy0 O4 2.398 . S
Dy0 O5 2.491 . S
Dy0 O6 2.403 . S
Dy0 O7 2.664 . S
Dy0 O11 2.326 . S
Dy0 O15 2.310 . S
Dy0 O16 2.351 . S
C1 O12 1.185 . S
C1 O13 1.355 . S
C2 O4 1.185 . S
C2 O5 1.355 . S
Dy3 O7 2.310 . S
Dy3 O10 2.351 . S
Dy3 O12 2.398 . S
Dy3 O13 2.491 . S
Dy3 O14 2.403 . S
Dy3 O15 2.664 . S
Dy3 O17 2.326 . S
O4 Dy0 2.398 . S
O4 C2 1.185 . S
O5 Dy0 2.491 . S
O5 C2 1.355 . S
O6 Dy0 2.403 . S
O6 C8 1.254 . S
O7 Dy0 2.664 . S
O7 Dy3 2.310 . S
O7 C8 1.268 . S
C8 O6 1.254 . S
C8 O7 1.268 . S
C9 O14 1.254 . S
C9 O15 1.268 . S
O10 Dy3 2.351 . S
O10 C18 1.249 . S
O11 Dy0 2.326 . S
O11 C18 1.267 . S
O12 C1 1.185 . S
O12 Dy3 2.398 . S
O13 C1 1.355 . S
O13 Dy3 2.491 . S
O14 Dy3 2.403 . S
O14 C9 1.254 . S
O15 Dy0 2.310 . S
O15 Dy3 2.664 . S
O15 C9 1.268 . S
O16 Dy0 2.351 . S
O16 C19 1.249 . S
O17 Dy3 2.326 . S
O17 C19 1.267 . S
C18 O10 1.249 . S
C18 O11 1.267 . S
C19 O16 1.249 . S
C19 O17 1.267 . S
Dy20 O24 2.398 . S
Dy20 O25 2.491 . S
Dy20 O26 2.403 . S
Dy20 O27 2.664 . S
Dy20 O31 2.326 . S
Dy20 O35 2.310 . S
Dy20 O36 2.351 . S
C21 O32 1.185 . S
C21 O33 1.355 . S
C22 O24 1.185 . S
C22 O25 1.355 . S
Dy23 O27 2.310 . S
Dy23 O30 2.351 . S
Dy23 O32 2.398 . S
Dy23 O33 2.491 . S
Dy23 O34 2.403 . S
Dy23 O35 2.664 . S
Dy23 O37 2.326 . S
O24 Dy20 2.398 . S
O24 C22 1.185 . S
O25 Dy20 2.491 . S
O25 C22 1.355 . S
O26 Dy20 2.403 . S
O26 C28 1.254 . S
O27 Dy20 2.664 . S
O27 Dy23 2.310 . S
O27 C28 1.268 . S
C28 O26 1.254 . S
C28 O27 1.268 . S
C29 O34 1.254 . S
C29 O35 1.268 . S
O30 Dy23 2.351 . S
O30 C38 1.249 . S
O31 Dy20 2.326 . S
O31 C38 1.267 . S
O32 C21 1.185 . S
O32 Dy23 2.398 . S
O33 C21 1.355 . S
O33 Dy23 2.491 . S
O34 Dy23 2.403 . S
O34 C29 1.254 . S
O35 Dy20 2.310 . S
O35 Dy23 2.664 . S
O35 C29 1.268 . S
O36 Dy20 2.351 . S
O36 C39 1.249 . S
O37 Dy23 2.326 . S
O37 C39 1.267 . S
C38 O30 1.249 . S
C38 O31 1.267 . S
C39 O36 1.249 . S
C39 O37 1.267 . S
Dy40 O44 2.398 . S
Dy40 O45 2.491 . S
Dy40 O46 2.403 . S
Dy40 O47 2.664 . S
Dy40 O51 2.326 . S
Dy40 O55 2.310 . S
Dy40 O56 2.351 . S
C41 O52 1.185 . S
C41 O53 1.355 . S
C42 O44 1.185 . S
C42 O45 1.355 . S
Dy43 O47 2.310 . S
Dy43 O50 2.351 . S
Dy43 O52 2.398 . S
Dy43 O53 2.491 . S
Dy43 O54 2.403 . S
Dy43 O55 2.664 . S
Dy43 O57 2.326 . S
O44 Dy40 2.398 . S
O44 C42 1.185 . S
O45 Dy40 2.491 . S
O45 C42 1.355 . S
O46 Dy40 2.403 . S
O46 C48 1.254 . S
O47 Dy40 2.664 . S
O47 Dy43 2.310 . S
O47 C48 1.268 . S
C48 O46 1.254 . S
C48 O47 1.268 . S
C49 O54 1.254 . S
C49 O55 1.268 . S
O50 Dy43 2.351 . S
O50 C58 1.249 . S
O51 Dy40 2.326 . S
O51 C58 1.267 . S
O52 C41 1.185 . S
O52 Dy43 2.398 . S
O53 C41 1.355 . S
O53 Dy43 2.491 . S
O54 Dy43 2.403 . S
O54 C49 1.254 . S
O55 Dy40 2.310 . S
O55 Dy43 2.664 . S
O55 C49 1.268 . S
O56 Dy40 2.351 . S
O56 C59 1.249 . S
O57 Dy43 2.326 . S
O57 C59 1.267 . S
C58 O50 1.249 . S
C58 O51 1.267 . S
C59 O56 1.249 . S
C59 O57 1.267 . S
Dy60 O64 2.398 . S
Dy60 O65 2.491 . S
Dy60 O66 2.403 . S
Dy60 O67 2.664 . S
Dy60 O71 2.326 . S
Dy60 O75 2.310 . S
Dy60 O76 2.351 . S
C61 O72 1.185 . S
C61 O73 1.355 . S
C62 O64 1.185 . S
C62 O65 1.355 . S
Dy63 O67 2.310 . S
Dy63 O70 2.351 . S
Dy63 O72 2.398 . S
Dy63 O73 2.491 . S
Dy63 O74 2.403 . S
Dy63 O75 2.664 . S
Dy63 O77 2.326 . S
O64 Dy60 2.398 . S
O64 C62 1.185 . S
O65 Dy60 2.491 . S
O65 C62 1.355 . S
O66 Dy60 2.403 . S
O66 C68 1.254 . S
O67 Dy60 2.664 . S
O67 Dy63 2.310 . S
O67 C68 1.268 . S
C68 O66 1.254 . S
C68 O67 1.268 . S
C69 O74 1.254 . S
C69 O75 1.268 . S
O70 Dy63 2.351 . S
O70 C78 1.249 . S
O71 Dy60 2.326 . S
O71 C78 1.267 . S
O72 C61 1.185 . S
O72 Dy63 2.398 . S
O73 C61 1.355 . S
O73 Dy63 2.491 . S
O74 Dy63 2.403 . S
O74 C69 1.254 . S
O75 Dy60 2.310 . S
O75 Dy63 2.664 . S
O75 C69 1.268 . S
O76 Dy60 2.351 . S
O76 C79 1.249 . S
O77 Dy63 2.326 . S
O77 C79 1.267 . S
C78 O70 1.249 . S
C78 O71 1.267 . S
C79 O76 1.249 . S
C79 O77 1.267 . S
Dy80 O84 2.398 1_556 S
Dy80 O85 2.491 1_556 S
Dy80 O86 2.403 . S
Dy80 O87 2.664 . S
Dy80 O91 2.326 1_556 S
Dy80 O95 2.310 1_556 S
Dy80 O96 2.351 . S
C81 O92 1.185 . S
C81 O93 1.355 . S
C82 O84 1.185 . S
C82 O85 1.355 . S
Dy83 O87 2.310 1_554 S
Dy83 O90 2.351 . S
Dy83 O92 2.398 1_554 S
Dy83 O93 2.491 1_554 S
Dy83 O94 2.403 . S
Dy83 O95 2.664 . S
Dy83 O97 2.326 1_554 S
O84 Dy80 2.398 1_554 S
O84 C82 1.185 . S
O85 Dy80 2.491 1_554 S
O85 C82 1.355 . S
O86 Dy80 2.403 . S
O86 C88 1.254 . S
O87 Dy80 2.664 . S
O87 Dy83 2.310 1_556 S
O87 C88 1.268 . S
C88 O86 1.254 . S
C88 O87 1.268 . S
C89 O94 1.254 . S
C89 O95 1.268 . S
O90 Dy83 2.351 . S
O90 C98 1.249 . S
O91 Dy80 2.326 1_554 S
O91 C98 1.267 . S
O92 C81 1.185 . S
O92 Dy83 2.398 1_556 S
O93 C81 1.355 . S
O93 Dy83 2.491 1_556 S
O94 Dy83 2.403 . S
O94 C89 1.254 . S
O95 Dy80 2.310 1_554 S
O95 Dy83 2.664 . S
O95 C89 1.268 . S
O96 Dy80 2.351 . S
O96 C99 1.249 . S
O97 Dy83 2.326 1_556 S
O97 C99 1.267 . S
C98 O90 1.249 . S
C98 O91 1.267 . S
C99 O96 1.249 . S
C99 O97 1.267 . S
Dy100 O104 2.398 1_556 S
Dy100 O105 2.491 1_556 S
Dy100 O106 2.403 . S
Dy100 O107 2.664 . S
Dy100 O111 2.326 1_556 S
Dy100 O115 2.310 1_556 S
Dy100 O116 2.351 . S
C101 O112 1.185 . S
C101 O113 1.355 . S
C102 O104 1.185 . S
C102 O105 1.355 . S
Dy103 O107 2.310 1_554 S
Dy103 O110 2.351 . S
Dy103 O112 2.398 1_554 S
Dy103 O113 2.491 1_554 S
Dy103 O114 2.403 . S
Dy103 O115 2.664 . S
Dy103 O117 2.326 1_554 S
O104 Dy100 2.398 1_554 S
O104 C102 1.185 . S
O105 Dy100 2.491 1_554 S
O105 C102 1.355 . S
O106 Dy100 2.403 . S
O106 C108 1.254 . S
O107 Dy100 2.664 . S
O107 Dy103 2.310 1_556 S
O107 C108 1.268 . S
C108 O106 1.254 . S
C108 O107 1.268 . S
C109 O114 1.254 . S
C109 O115 1.268 . S
O110 Dy103 2.351 . S
O110 C118 1.249 . S
O111 Dy100 2.326 1_554 S
O111 C118 1.267 . S
O112 C101 1.185 . S
O112 Dy103 2.398 1_556 S
O113 C101 1.355 . S
O113 Dy103 2.491 1_556 S
O114 Dy103 2.403 . S
O114 C109 1.254 . S
O115 Dy100 2.310 1_554 S
O115 Dy103 2.664 . S
O115 C109 1.268 . S
O116 Dy100 2.351 . S
O116 C119 1.249 . S
O117 Dy103 2.326 1_556 S
O117 C119 1.267 . S
C118 O110 1.249 . S
C118 O111 1.267 . S
C119 O116 1.249 . S
C119 O117 1.267 . S
Dy120 O124 2.398 1_556 S
Dy120 O125 2.491 1_556 S
Dy120 O126 2.403 . S
Dy120 O127 2.664 . S
Dy120 O131 2.326 1_556 S
Dy120 O135 2.310 1_556 S
Dy120 O136 2.351 . S
C121 O132 1.185 . S
C121 O133 1.355 . S
C122 O124 1.185 . S
C122 O125 1.355 . S
Dy123 O127 2.310 1_554 S
Dy123 O130 2.351 . S
Dy123 O132 2.398 1_554 S
Dy123 O133 2.491 1_554 S
Dy123 O134 2.403 . S
Dy123 O135 2.664 . S
Dy123 O137 2.326 1_554 S
O124 Dy120 2.398 1_554 S
O124 C122 1.185 . S
O125 Dy120 2.491 1_554 S
O125 C122 1.355 . S
O126 Dy120 2.403 . S
O126 C128 1.254 . S
O127 Dy120 2.664 . S
O127 Dy123 2.310 1_556 S
O127 C128 1.268 . S
C128 O126 1.254 . S
C128 O127 1.268 . S
C129 O134 1.254 . S
C129 O135 1.268 . S
O130 Dy123 2.351 . S
O130 C138 1.249 . S
O131 Dy120 2.326 1_554 S
O131 C138 1.267 . S
O132 C121 1.185 . S
O132 Dy123 2.398 1_556 S
O133 C121 1.355 . S
O133 Dy123 2.491 1_556 S
O134 Dy123 2.403 . S
O134 C129 1.254 . S
O135 Dy120 2.310 1_554 S
O135 Dy123 2.664 . S
O135 C129 1.268 . S
O136 Dy120 2.351 . S
O136 C139 1.249 . S
O137 Dy123 2.326 1_556 S
O137 C139 1.267 . S
C138 O130 1.249 . S
C138 O131 1.267 . S
C139 O136 1.249 . S
C139 O137 1.267 . S
Dy140 O144 2.398 1_556 S
Dy140 O145 2.491 1_556 S
Dy140 O146 2.403 . S
Dy140 O147 2.664 . S
Dy140 O151 2.326 1_556 S
Dy140 O155 2.310 1_556 S
Dy140 O156 2.351 . S
C141 O152 1.185 . S
C141 O153 1.355 . S
C142 O144 1.185 . S
C142 O145 1.355 . S
Dy143 O147 2.310 1_554 S
Dy143 O150 2.351 . S
Dy143 O152 2.398 1_554 S
Dy143 O153 2.491 1_554 S
Dy143 O154 2.403 . S
Dy143 O155 2.664 . S
Dy143 O157 2.326 1_554 S
O144 Dy140 2.398 1_554 S
O144 C142 1.185 . S
O145 Dy140 2.491 1_554 S
O145 C142 1.355 . S
O146 Dy140 2.403 . S
O146 C148 1.254 . S
O147 Dy140 2.664 . S
O147 Dy143 2.310 1_556 S
O147 C148 1.268 . S
C148 O146 1.254 . S
C148 O147 1.268 . S
C149 O154 1.254 . S
C149 O155 1.268 . S
O150 Dy143 2.351 . S
O150 C158 1.249 . S
O151 Dy140 2.326 1_554 S
O151 C158 1.267 . S
O152 C141 1.185 . S
O152 Dy143 2.398 1_556 S
O153 C141 1.355 . S
O153 Dy143 2.491 1_556 S
O154 Dy143 2.403 . S
O154 C149 1.254 . S
O155 Dy140 2.310 1_554 S
O155 Dy143 2.664 . S
O155 C149 1.268 . S
O156 Dy140 2.351 . S
O156 C159 1.249 . S
O157 Dy143 2.326 1_556 S
O157 C159 1.267 . S
C158 O150 1.249 . S
C158 O151 1.267 . S
C159 O156 1.249 . S
C159 O157 1.267 . S
C160 C161 1.391 . S
C160 C162 1.394 . S
C160 H176 0.931 . S
C161 C160 1.391 . S
C161 C165 1.376 . S
C162 C160 1.394 . S
C162 C163 1.369 . S
C162 C166 1.531 . S
C163 C162 1.369 . S
C163 C164 1.410 . S
C163 C171 1.503 . S
C164 C163 1.410 . S
C164 C165 1.392 . S
C164 C167 1.511 . S
C165 C161 1.376 . S
C165 C164 1.392 . S
C165 H177 0.929 . S
C166 C162 1.531 . S
C166 H178 0.960 . S
C166 H179 0.962 . S
C166 H180 0.960 . S
C167 C164 1.511 . S
C167 H181 0.961 . S
C167 H182 0.961 . S
C167 H183 0.961 . S
C168 C169 1.370 . S
C168 C170 1.363 . S
C168 H184 0.931 . S
C169 C168 1.370 . S
C169 C173 1.408 . S
C170 C168 1.363 . S
C170 C171 1.370 . S
C170 C174 1.524 . S
C171 C163 1.503 . S
C171 C170 1.370 . S
C171 C172 1.403 . S
C172 C171 1.403 . S
C172 C173 1.404 . S
C172 C175 1.539 . S
C173 C169 1.408 . S
C173 C172 1.404 . S
C173 H185 0.930 . S
C174 C170 1.524 . S
C174 H186 0.956 . S
C174 H187 0.961 . S
C174 H188 0.961 . S
C175 C172 1.539 . S
C175 H189 0.958 . S
C175 H190 0.961 . S
C175 H191 0.960 . S
H176 C160 0.931 . S
H177 C165 0.929 . S
H178 C166 0.960 . S
H179 C166 0.962 . S
H180 C166 0.960 . S
H181 C167 0.961 . S
H182 C167 0.961 . S
H183 C167 0.961 . S
H184 C168 0.931 . S
H185 C173 0.930 . S
H186 C174 0.956 . S
H187 C174 0.961 . S
H188 C174 0.961 . S
H189 C175 0.958 . S
H190 C175 0.961 . S
H191 C175 0.960 . S
C192 C193 1.391 . S
C192 C194 1.394 . S
C192 H208 0.931 . S
C193 C192 1.391 . S
C193 C197 1.376 . S
C194 C192 1.394 . S
C194 C195 1.369 . S
C194 C198 1.531 . S
C195 C194 1.369 . S
C195 C196 1.410 . S
C195 C203 1.503 . S
C196 C195 1.410 . S
C196 C197 1.392 . S
C196 C199 1.511 . S
C197 C193 1.376 . S
C197 C196 1.392 . S
C197 H209 0.929 . S
C198 C194 1.531 . S
C198 H210 0.960 . S
C198 H211 0.962 . S
C198 H212 0.960 . S
C199 C196 1.511 . S
C199 H213 0.961 . S
C199 H214 0.961 . S
C199 H215 0.961 . S
C200 C201 1.370 . S
C200 C202 1.363 . S
C200 H216 0.931 . S
C201 C200 1.370 . S
C201 C205 1.408 . S
C202 C200 1.363 . S
C202 C203 1.370 . S
C202 C206 1.524 . S
C203 C195 1.503 . S
C203 C202 1.370 . S
C203 C204 1.403 . S
C204 C203 1.403 . S
C204 C205 1.404 . S
C204 C207 1.539 . S
C205 C201 1.408 . S
C205 C204 1.404 . S
C205 H217 0.930 . S
C206 C202 1.524 . S
C206 H218 0.956 . S
C206 H219 0.961 . S
C206 H220 0.961 . S
C207 C204 1.539 . S
C207 H221 0.958 . S
C207 H222 0.961 . S
C207 H223 0.960 . S
H208 C192 0.931 . S
H209 C197 0.929 . S
H210 C198 0.960 . S
H211 C198 0.962 . S
H212 C198 0.960 . S
H213 C199 0.961 . S
H214 C199 0.961 . S
H215 C199 0.961 . S
H216 C200 0.931 . S
H217 C205 0.930 . S
H218 C206 0.956 . S
H219 C206 0.961 . S
H220 C206 0.961 . S
H221 C207 0.958 . S
H222 C207 0.961 . S
H223 C207 0.960 . S
C224 C225 1.391 . S
C224 C226 1.394 . S
C224 H240 0.931 . S
C225 C224 1.391 . S
C225 C229 1.376 . S
C226 C224 1.394 . S
C226 C227 1.369 . S
C226 C230 1.531 . S
C227 C226 1.369 . S
C227 C228 1.410 . S
C227 C235 1.503 . S
C228 C227 1.410 . S
C228 C229 1.392 . S
C228 C231 1.511 . S
C229 C225 1.376 . S
C229 C228 1.392 . S
C229 H241 0.929 . S
C230 C226 1.531 . S
C230 H242 0.960 . S
C230 H243 0.962 . S
C230 H244 0.960 . S
C231 C228 1.511 . S
C231 H245 0.961 . S
C231 H246 0.961 . S
C231 H247 0.961 . S
C232 C233 1.370 . S
C232 C234 1.363 . S
C232 H248 0.931 . S
C233 C232 1.370 . S
C233 C237 1.408 . S
C234 C232 1.363 . S
C234 C235 1.370 . S
C234 C238 1.524 . S
C235 C227 1.503 . S
C235 C234 1.370 . S
C235 C236 1.403 . S
C236 C235 1.403 . S
C236 C237 1.404 . S
C236 C239 1.539 . S
C237 C233 1.408 . S
C237 C236 1.404 . S
C237 H249 0.930 . S
C238 C234 1.524 . S
C238 H250 0.956 . S
C238 H251 0.961 . S
C238 H252 0.961 . S
C239 C236 1.539 . S
C239 H253 0.958 . S
C239 H254 0.961 . S
C239 H255 0.960 . S
H240 C224 0.931 . S
H241 C229 0.929 . S
H242 C230 0.960 . S
H243 C230 0.962 . S
H244 C230 0.960 . S
H245 C231 0.961 . S
H246 C231 0.961 . S
H247 C231 0.961 . S
H248 C232 0.931 . S
H249 C237 0.930 . S
H250 C238 0.956 . S
H251 C238 0.961 . S
H252 C238 0.961 . S
H253 C239 0.958 . S
H254 C239 0.961 . S
H255 C239 0.960 . S
C256 C257 1.391 . S
C256 C258 1.394 . S
C256 H272 0.931 . S
C257 C256 1.391 . S
C257 C261 1.376 . S
C258 C256 1.394 . S
C258 C259 1.369 . S
C258 C262 1.531 . S
C259 C258 1.369 . S
C259 C260 1.410 . S
C259 C267 1.503 . S
C260 C259 1.410 . S
C260 C261 1.392 . S
C260 C263 1.511 . S
C261 C257 1.376 . S
C261 C260 1.392 . S
C261 H273 0.929 . S
C262 C258 1.531 . S
C262 H274 0.960 . S
C262 H275 0.962 . S
C262 H276 0.960 . S
C263 C260 1.511 . S
C263 H277 0.961 . S
C263 H278 0.961 . S
C263 H279 0.961 . S
C264 C265 1.370 . S
C264 C266 1.363 . S
C264 H280 0.931 . S
C265 C264 1.370 . S
C265 C269 1.408 . S
C266 C264 1.363 . S
C266 C267 1.370 . S
C266 C270 1.524 . S
C267 C259 1.503 . S
C267 C266 1.370 . S
C267 C268 1.403 . S
C268 C267 1.403 . S
C268 C269 1.404 . S
C268 C271 1.539 . S
C269 C265 1.408 . S
C269 C268 1.404 . S
C269 H281 0.930 . S
C270 C266 1.524 . S
C270 H282 0.956 . S
C270 H283 0.961 . S
C270 H284 0.961 . S
C271 C268 1.539 . S
C271 H285 0.958 . S
C271 H286 0.961 . S
C271 H287 0.960 . S
H272 C256 0.931 . S
H273 C261 0.929 . S
H274 C262 0.960 . S
H275 C262 0.962 . S
H276 C262 0.960 . S
H277 C263 0.961 . S
H278 C263 0.961 . S
H279 C263 0.961 . S
H280 C264 0.931 . S
H281 C269 0.930 . S
H282 C270 0.956 . S
H283 C270 0.961 . S
H284 C270 0.961 . S
H285 C271 0.958 . S
H286 C271 0.961 . S
H287 C271 0.960 . S
C288 C289 1.391 . S
C288 C290 1.394 . S
C288 H304 0.931 . S
C289 C288 1.391 . S
C289 C293 1.376 . S
C290 C288 1.394 . S
C290 C291 1.369 . S
C290 C294 1.531 . S
C291 C290 1.369 . S
C291 C292 1.410 . S
C291 C299 1.503 1_565 S
C292 C291 1.410 . S
C292 C293 1.392 . S
C292 C295 1.511 . S
C293 C289 1.376 . S
C293 C292 1.392 . S
C293 H305 0.929 . S
C294 C290 1.531 . S
C294 H306 0.960 1_565 S
C294 H307 0.962 . S
C294 H308 0.960 . S
C295 C292 1.511 . S
C295 H309 0.961 . S
C295 H310 0.961 . S
C295 H311 0.961 . S
C296 C297 1.370 . S
C296 C298 1.363 . S
C296 H312 0.931 . S
C297 C296 1.370 . S
C297 C301 1.408 . S
C298 C296 1.363 . S
C298 C299 1.370 . S
C298 C302 1.524 . S
C299 C291 1.503 1_545 S
C299 C298 1.370 . S
C299 C300 1.403 . S
C300 C299 1.403 . S
C300 C301 1.404 . S
C300 C303 1.539 . S
C301 C297 1.408 . S
C301 C300 1.404 . S
C301 H313 0.930 . S
C302 C298 1.524 . S
C302 H314 0.956 . S
C302 H315 0.961 1_545 S
C302 H316 0.961 . S
C303 C300 1.539 . S
C303 H317 0.958 . S
C303 H318 0.961 . S
C303 H319 0.961 . S
H304 C288 0.931 . S
H305 C293 0.929 . S
H306 C294 0.960 1_545 S
H307 C294 0.962 . S
H308 C294 0.960 . S
H309 C295 0.961 . S
H310 C295 0.961 . S
H311 C295 0.961 . S
H312 C296 0.931 . S
H313 C301 0.930 . S
H314 C302 0.956 . S
H315 C302 0.961 1_565 S
H316 C302 0.961 . S
H317 C303 0.958 . S
H318 C303 0.961 . S
H319 C303 0.961 . S
C320 C321 1.391 . S
C320 C322 1.394 . S
C320 H336 0.931 . S
C321 C320 1.391 . S
C321 C325 1.376 . S
C322 C320 1.394 . S
C322 C323 1.369 . S
C322 C326 1.531 . S
C323 C322 1.369 . S
C323 C324 1.410 . S
C323 C331 1.503 . S
C324 C323 1.410 . S
C324 C325 1.392 . S
C324 C327 1.511 . S
C325 C321 1.376 . S
C325 C324 1.392 . S
C325 H337 0.929 . S
C326 C322 1.531 . S
C326 H338 0.960 . S
C326 H339 0.962 . S
C326 H340 0.960 . S
C327 C324 1.511 . S
C327 H341 0.961 . S
C327 H342 0.961 . S
C327 H343 0.961 . S
C328 C329 1.370 . S
C328 C330 1.363 . S
C328 H344 0.931 . S
C329 C328 1.370 . S
C329 C333 1.408 . S
C330 C328 1.363 . S
C330 C331 1.370 . S
C330 C334 1.524 . S
C331 C323 1.503 . S
C331 C330 1.370 . S
C331 C332 1.403 . S
C332 C331 1.403 . S
C332 C333 1.404 . S
C332 C335 1.539 . S
C333 C329 1.408 . S
C333 C332 1.404 . S
C333 H345 0.930 . S
C334 C330 1.524 . S
C334 H346 0.956 . S
C334 H347 0.961 . S
C334 H348 0.961 . S
C335 C332 1.539 . S
C335 H349 0.958 . S
C335 H350 0.961 . S
C335 H351 0.960 . S
H336 C320 0.931 . S
H337 C325 0.929 . S
H338 C326 0.960 . S
H339 C326 0.962 . S
H340 C326 0.960 . S
H341 C327 0.961 . S
H342 C327 0.961 . S
H343 C327 0.961 . S
H344 C328 0.931 . S
H345 C333 0.930 . S
H346 C334 0.956 . S
H347 C334 0.961 . S
H348 C334 0.961 . S
H349 C335 0.958 . S
H350 C335 0.961 . S
H351 C335 0.960 . S
C352 C353 1.391 . S
C352 C354 1.394 . S
C352 H368 0.931 . S
C353 C352 1.391 . S
C353 C357 1.376 . S
C354 C352 1.394 . S
C354 C355 1.369 . S
C354 C358 1.531 . S
C355 C354 1.369 . S
C355 C356 1.410 . S
C355 C363 1.503 1_565 S
C356 C355 1.410 . S
C356 C357 1.392 . S
C356 C359 1.511 . S
C357 C353 1.376 . S
C357 C356 1.392 . S
C357 H369 0.929 . S
C358 C354 1.531 . S
C358 H370 0.960 . S
C358 H371 0.962 . S
C358 H372 0.960 . S
C359 C356 1.511 . S
C359 H373 0.961 . S
C359 H374 0.961 1_565 S
C359 H375 0.961 . S
C360 C361 1.370 . S
C360 C362 1.363 . S
C360 H376 0.931 . S
C361 C360 1.370 . S
C361 C365 1.408 . S
C362 C360 1.363 . S
C362 C363 1.370 . S
C362 C366 1.524 . S
C363 C355 1.503 1_545 S
C363 C362 1.370 . S
C363 C364 1.403 . S
C364 C363 1.403 . S
C364 C365 1.404 . S
C364 C367 1.539 . S
C365 C361 1.408 . S
C365 C364 1.404 . S
C365 H377 0.930 . S
C366 C362 1.524 . S
C366 H378 0.967 . S
C366 H379 0.961 . S
C366 H380 0.961 . S
C367 C364 1.539 . S
C367 H381 0.958 . S
C367 H382 0.961 . S
C367 H383 0.960 . S
H368 C352 0.931 . S
H369 C357 0.929 . S
H370 C358 0.960 . S
H371 C358 0.962 . S
H372 C358 0.960 . S
H373 C359 0.961 . S
H374 C359 0.961 1_545 S
H375 C359 0.961 . S
H376 C360 0.931 . S
H377 C365 0.930 . S
H378 C366 0.967 . S
H379 C366 0.961 . S
H380 C366 0.961 . S
H381 C367 0.958 . S
H382 C367 0.961 . S
H383 C367 0.960 . S
C384 C385 1.391 . S
C384 C386 1.394 . S
C384 H400 0.931 . S
C385 C384 1.391 . S
C385 C389 1.376 . S
C386 C384 1.394 . S
C386 C387 1.369 . S
C386 C390 1.531 . S
C387 C386 1.369 . S
C387 C388 1.410 . S
C387 C395 1.503 . S
C388 C387 1.410 . S
C388 C389 1.392 . S
C388 C391 1.511 . S
C389 C385 1.376 . S
C389 C388 1.392 . S
C389 H401 0.929 . S
C390 C386 1.531 . S
C390 H402 0.960 . S
C390 H403 0.962 . S
C390 H404 0.960 . S
C391 C388 1.511 . S
C391 H405 0.961 . S
C391 H406 0.961 . S
C391 H407 0.961 . S
C392 C393 1.370 . S
C392 C394 1.363 . S
C392 H408 0.931 . S
C393 C392 1.370 . S
C393 C397 1.408 . S
C394 C392 1.363 . S
C394 C395 1.370 . S
C394 C398 1.524 . S
C395 C387 1.503 . S
C395 C394 1.370 . S
C395 C396 1.403 . S
C396 C395 1.403 . S
C396 C397 1.404 . S
C396 C399 1.539 . S
C397 C393 1.408 . S
C397 C396 1.404 . S
C397 H409 0.930 . S
C398 C394 1.524 . S
C398 H410 0.956 . S
C398 H411 0.961 . S
C398 H412 0.961 . S
C399 C396 1.539 . S
C399 H413 0.958 . S
C399 H414 0.961 . S
C399 H415 0.960 . S
H400 C384 0.931 . S
H401 C389 0.929 . S
H402 C390 0.960 . S
H403 C390 0.962 . S
H404 C390 0.960 . S
H405 C391 0.961 . S
H406 C391 0.961 . S
H407 C391 0.961 . S
H408 C392 0.931 . S
H409 C397 0.930 . S
H410 C398 0.956 . S
H411 C398 0.961 . S
H412 C398 0.961 . S
H413 C399 0.958 . S
H414 C399 0.961 . S
H415 C399 0.960 . S
C416 C417 1.391 1_556 S
C416 C418 1.394 . S
C416 H432 0.931 . S
C417 C416 1.391 1_554 S
C417 C421 1.376 . S
C418 C416 1.394 . S
C418 C419 1.369 1_556 S
C418 C422 1.531 . S
C419 C418 1.369 1_554 S
C419 C420 1.410 . S
C419 C427 1.503 . S
C420 C419 1.410 . S
C420 C421 1.392 . S
C420 C423 1.511 . S
C421 C417 1.376 . S
C421 C420 1.392 . S
C421 H433 0.929 . S
C422 C418 1.531 . S
C422 H434 0.960 . S
C422 H435 0.962 . S
C422 H436 0.960 . S
C423 C420 1.511 . S
C423 H437 0.961 . S
C423 H438 0.961 . S
C423 H439 0.961 . S
C424 C425 1.370 . S
C424 C426 1.363 . S
C424 H440 0.931 . S
C425 C424 1.370 . S
C425 C429 1.408 1_556 S
C426 C424 1.363 . S
C426 C427 1.370 1_556 S
C426 C430 1.524 . S
C427 C419 1.503 . S
C427 C426 1.370 1_554 S
C427 C428 1.403 . S
C428 C427 1.403 . S
C428 C429 1.404 . S
C428 C431 1.539 . S
C429 C425 1.408 1_554 S
C429 C428 1.404 . S
C429 H441 0.930 . S
C430 C426 1.524 . S
C430 H442 0.956 . S
C430 H443 0.961 . S
C430 H444 0.961 . S
C431 C428 1.539 . S
C431 H445 0.958 . S
C431 H446 0.961 . S
C431 H447 0.960 . S
H432 C416 0.931 . S
H433 C421 0.929 . S
H434 C422 0.960 . S
H435 C422 0.962 . S
H436 C422 0.960 . S
H437 C423 0.961 . S
H438 C423 0.961 . S
H439 C423 0.961 . S
H440 C424 0.931 . S
H441 C429 0.930 . S
H442 C430 0.956 . S
H443 C430 0.961 . S
H444 C430 0.961 . S
H445 C431 0.958 . S
H446 C431 0.961 . S
H447 C431 0.960 . S
C448 C449 1.391 . S
C448 C450 1.394 . S
C448 H464 0.931 . S
C449 C448 1.391 . S
C449 C453 1.376 1_556 S
C450 C448 1.394 . S
C450 C451 1.369 . S
C450 C454 1.531 . S
C451 C450 1.369 . S
C451 C452 1.410 1_556 S
C451 C459 1.503 1_565 S
C452 C451 1.410 1_554 S
C452 C453 1.392 . S
C452 C455 1.511 . S
C453 C449 1.376 1_554 S
C453 C452 1.392 . S
C453 H465 0.929 . S
C454 C450 1.531 . S
C454 H466 0.960 1_565 S
C454 H467 0.962 . S
C454 H468 0.960 . S
C455 C452 1.511 . S
C455 H469 0.961 . S
C455 H470 0.961 1_565 S
C455 H471 0.961 . S
C456 C457 1.370 1_554 S
C456 C458 1.363 . S
C456 H472 0.931 . S
C457 C456 1.370 1_556 S
C457 C461 1.408 . S
C458 C456 1.363 . S
C458 C459 1.370 1_554 S
C458 C462 1.524 . S
C459 C451 1.503 1_545 S
C459 C458 1.370 1_556 S
C459 C460 1.403 . S
C460 C459 1.403 . S
C460 C461 1.404 . S
C460 C463 1.539 . S
C461 C457 1.408 . S
C461 C460 1.404 . S
C461 H473 0.930 . S
C462 C458 1.524 . S
C462 H474 0.956 1_544 S
C462 H475 0.961 1_545 S
C462 H476 0.961 . S
C463 C460 1.539 . S
C463 H477 0.958 . S
C463 H478 0.961 . S
C463 H479 0.960 . S
H464 C448 0.931 . S
H465 C453 0.929 . S
H466 C454 0.960 1_545 S
H467 C454 0.962 . S
H468 C454 0.960 . S
H469 C455 0.961 . S
H470 C455 0.961 1_545 S
H471 C455 0.961 . S
H472 C456 0.931 . S
H473 C461 0.930 . S
H474 C462 0.956 1_566 S
H475 C462 0.961 1_565 S
H476 C462 0.961 . S
H477 C463 0.958 . S
H478 C463 0.961 . S
H479 C463 0.960 . S
C480 C481 1.391 . S
C480 C482 1.394 . S
C480 H496 0.931 . S
C481 C480 1.391 . S
C481 C485 1.376 1_554 S
C482 C480 1.394 . S
C482 C483 1.369 . S
C482 C486 1.531 . S
C483 C482 1.369 . S
C483 C484 1.410 1_554 S
C483 C491 1.503 . S
C484 C483 1.410 1_556 S
C484 C485 1.392 . S
C484 C487 1.511 . S
C485 C481 1.376 1_556 S
C485 C484 1.392 . S
C485 H497 0.929 . S
C486 C482 1.531 . S
C486 H498 0.960 . S
C486 H499 0.962 . S
C486 H500 0.960 . S
C487 C484 1.511 . S
C487 H501 0.961 . S
C487 H502 0.961 . S
C487 H503 0.961 . S
C488 C489 1.370 1_556 S
C488 C490 1.363 . S
C488 H504 0.931 . S
C489 C488 1.370 1_554 S
C489 C493 1.408 . S
C490 C488 1.363 . S
C490 C491 1.370 1_556 S
C490 C494 1.524 . S
C491 C483 1.503 . S
C491 C490 1.370 1_554 S
C491 C492 1.403 . S
C492 C491 1.403 . S
C492 C493 1.404 . S
C492 C495 1.539 . S
C493 C489 1.408 . S
C493 C492 1.404 . S
C493 H505 0.930 . S
C494 C490 1.524 . S
C494 H506 0.956 . S
C494 H507 0.961 . S
C494 H508 0.961 . S
C495 C492 1.539 . S
C495 H509 0.958 . S
C495 H510 0.961 . S
C495 H511 0.960 . S
H496 C480 0.931 . S
H497 C485 0.929 . S
H498 C486 0.960 . S
H499 C486 0.962 . S
H500 C486 0.960 . S
H501 C487 0.961 . S
H502 C487 0.961 . S
H503 C487 0.961 . S
H504 C488 0.931 . S
H505 C493 0.930 . S
H506 C494 0.956 . S
H507 C494 0.961 . S
H508 C494 0.961 . S
H509 C495 0.958 . S
H510 C495 0.961 . S
H511 C495 0.960 . S
C512 C513 1.391 1_556 S
C512 C514 1.394 . S
C512 H528 0.931 . S
C513 C512 1.391 1_554 S
C513 C517 1.376 . S
C514 C512 1.394 . S
C514 C515 1.369 1_556 S
C514 C518 1.531 . S
C515 C514 1.369 1_554 S
C515 C516 1.410 . S
C515 C523 1.503 1_545 S
C516 C515 1.410 . S
C516 C517 1.392 . S
C516 C519 1.511 . S
C517 C513 1.376 . S
C517 C516 1.392 . S
C517 H529 0.929 . S
C518 C514 1.531 . S
C518 H530 0.960 1_545 S
C518 H531 0.962 . S
C518 H532 0.960 . S
C519 C516 1.511 . S
C519 H533 0.961 . S
C519 H534 0.945 1_545 S
C519 H535 0.961 . S
C520 C521 1.370 1_556 S
C520 C522 1.363 . S
C520 H536 0.931 . S
C521 C520 1.370 1_554 S
C521 C525 1.408 . S
C522 C520 1.363 . S
C522 C523 1.370 1_556 S
C522 C526 1.524 . S
C523 C515 1.503 1_565 S
C523 C522 1.370 1_554 S
C523 C524 1.403 . S
C524 C523 1.403 . S
C524 C525 1.404 . S
C524 C527 1.539 . S
C525 C521 1.408 . S
C525 C524 1.404 . S
C525 H537 0.930 . S
C526 C522 1.524 . S
C526 H538 0.962 . S
C526 H539 0.961 1_565 S
C526 H540 0.961 . S
C527 C524 1.539 . S
C527 H541 0.958 . S
C527 H542 0.961 . S
C527 H543 0.960 . S
H528 C512 0.931 . S
H529 C517 0.929 . S
H530 C518 0.960 1_565 S
H531 C518 0.962 . S
H532 C518 0.960 . S
H533 C519 0.961 . S
H534 C519 0.945 1_565 S
H535 C519 0.961 . S
H536 C520 0.931 . S
H537 C525 0.930 . S
H538 C526 0.962 . S
H539 C526 0.961 1_545 S
H540 C526 0.961 . S
H541 C527 0.958 . S
H542 C527 0.961 . S
H543 C527 0.960 . S
C544 C545 1.391 . S
C544 C546 1.394 . S
C544 H560 0.931 . S
C545 C544 1.391 . S
C545 C549 1.376 . S
C546 C544 1.394 . S
C546 C547 1.369 . S
C546 C550 1.531 . S
C547 C546 1.369 . S
C547 C548 1.410 . S
C547 C555 1.503 1_554 S
C548 C547 1.410 . S
C548 C549 1.392 . S
C548 C551 1.511 . S
C549 C545 1.376 . S
C549 C548 1.392 . S
C549 H561 0.929 . S
C550 C546 1.531 . S
C550 H562 0.960 1_554 S
C550 H563 0.962 . S
C550 H564 0.960 . S
C551 C548 1.511 . S
C551 H565 0.961 . S
C551 H566 0.961 1_554 S
C551 H567 0.961 . S
C552 C553 1.370 . S
C552 C554 1.363 . S
C552 H568 0.931 . S
C553 C552 1.370 . S
C553 C557 1.408 . S
C554 C552 1.363 . S
C554 C555 1.370 . S
C554 C558 1.524 . S
C555 C547 1.503 1_556 S
C555 C554 1.370 . S
C555 C556 1.403 . S
C556 C555 1.403 . S
C556 C557 1.404 . S
C556 C559 1.539 . S
C557 C553 1.408 . S
C557 C556 1.404 . S
C557 H569 0.930 . S
C558 C554 1.524 . S
C558 H570 0.956 1_556 S
C558 H571 0.961 1_556 S
C558 H572 0.961 . S
C559 C556 1.539 . S
C559 H573 0.958 . S
C559 H574 0.961 . S
C559 H575 0.960 . S
H560 C544 0.931 . S
H561 C549 0.929 . S
H562 C550 0.960 1_556 S
H563 C550 0.962 . S
H564 C550 0.960 . S
H565 C551 0.961 . S
H566 C551 0.961 1_556 S
H567 C551 0.961 . S
H568 C552 0.931 . S
H569 C557 0.930 . S
H570 C558 0.956 1_554 S
H571 C558 0.961 1_554 S
H572 C558 0.961 . S
H573 C559 0.958 . S
H574 C559 0.961 . S
H575 C559 0.960 . S
C576 C577 1.391 . S
C576 C578 1.394 . S
C576 H592 0.931 . S
C577 C576 1.391 . S
C577 C581 1.376 . S
C578 C576 1.394 . S
C578 C579 1.369 . S
C578 C582 1.531 . S
C579 C578 1.369 . S
C579 C580 1.410 . S
C579 C587 1.503 1_554 S
C580 C579 1.410 . S
C580 C581 1.392 . S
C580 C583 1.511 . S
C581 C577 1.376 . S
C581 C580 1.392 . S
C581 H593 0.929 . S
C582 C578 1.531 . S
C582 H594 0.960 1_554 S
C582 H595 0.962 . S
C582 H596 0.960 . S
C583 C580 1.511 . S
C583 H597 0.961 . S
C583 H598 0.961 1_554 S
C583 H599 0.961 . S
C584 C585 1.370 . S
C584 C586 1.363 . S
C584 H600 0.931 . S
C585 C584 1.370 . S
C585 C589 1.408 . S
C586 C584 1.363 . S
C586 C587 1.370 . S
C586 C590 1.524 . S
C587 C579 1.503 1_556 S
C587 C586 1.370 . S
C587 C588 1.403 . S
C588 C587 1.403 . S
C588 C589 1.404 . S
C588 C591 1.539 . S
C589 C585 1.408 . S
C589 C588 1.404 . S
C589 H601 0.930 . S
C590 C586 1.524 . S
C590 H602 0.956 . S
C590 H603 0.961 . S
C590 H604 0.961 . S
C591 C588 1.539 . S
C591 H605 0.958 . S
C591 H606 0.961 . S
C591 H607 0.960 . S
H592 C576 0.931 . S
H593 C581 0.929 . S
H594 C582 0.960 1_556 S
H595 C582 0.962 . S
H596 C582 0.960 . S
H597 C583 0.961 . S
H598 C583 0.961 1_556 S
H599 C583 0.961 . S
H600 C584 0.931 . S
H601 C589 0.930 . S
H602 C590 0.956 . S
H603 C590 0.961 . S
H604 C590 0.961 . S
H605 C591 0.958 . S
H606 C591 0.961 . S
H607 C591 0.960 . S
C608 C609 1.391 . S
C608 C610 1.394 . S
C608 H624 0.931 . S
C609 C608 1.391 . S
C609 C613 1.376 . S
C610 C608 1.394 . S
C610 C611 1.369 . S
C610 C614 1.531 . S
C611 C610 1.369 . S
C611 C612 1.410 . S
C611 C619 1.503 1_554 S
C612 C611 1.410 . S
C612 C613 1.392 . S
C612 C615 1.511 . S
C613 C609 1.376 . S
C613 C612 1.392 . S
C613 H625 0.929 . S
C614 C610 1.531 . S
C614 H626 0.960 1_554 S
C614 H627 0.962 . S
C614 H628 0.960 . S
C615 C612 1.511 . S
C615 H629 0.961 . S
C615 H630 0.961 . S
C615 H631 0.961 . S
C616 C617 1.370 . S
C616 C618 1.363 . S
C616 H632 0.931 . S
C617 C616 1.370 . S
C617 C621 1.408 . S
C618 C616 1.363 . S
C618 C619 1.370 . S
C618 C622 1.524 . S
C619 C611 1.503 1_556 S
C619 C618 1.370 . S
C619 C620 1.403 . S
C620 C619 1.403 . S
C620 C621 1.404 . S
C620 C623 1.539 . S
C621 C617 1.408 . S
C621 C620 1.404 . S
C621 H633 0.930 . S
C622 C618 1.524 . S
C622 H634 0.956 . S
C622 H635 0.961 1_556 S
C622 H636 0.961 . S
C623 C620 1.539 . S
C623 H637 0.958 . S
C623 H638 0.961 . S
C623 H639 0.960 1_556 S
H624 C608 0.931 . S
H625 C613 0.929 . S
H626 C614 0.960 1_556 S
H627 C614 0.962 . S
H628 C614 0.960 . S
H629 C615 0.961 . S
H630 C615 0.961 . S
H631 C615 0.961 . S
H632 C616 0.931 . S
H633 C621 0.930 . S
H634 C622 0.956 . S
H635 C622 0.961 1_554 S
H636 C622 0.961 . S
H637 C623 0.958 . S
H638 C623 0.961 . S
H639 C623 0.960 1_554 S
C640 C641 1.391 . S
C640 C642 1.394 . S
C640 H656 0.931 . S
C641 C640 1.391 . S
C641 C645 1.376 . S
C642 C640 1.394 . S
C642 C643 1.369 . S
C642 C646 1.531 . S
C643 C642 1.369 . S
C643 C644 1.410 . S
C643 C651 1.503 1_556 S
C644 C643 1.410 . S
C644 C645 1.392 . S
C644 C647 1.511 . S
C645 C641 1.376 . S
C645 C644 1.392 . S
C645 H657 0.929 . S
C646 C642 1.531 . S
C646 H658 0.960 1_556 S
C646 H659 0.962 1_556 S
C646 H660 0.960 . S
C647 C644 1.511 . S
C647 H661 0.961 . S
C647 H662 0.961 1_556 S
C647 H663 0.961 . S
C648 C649 1.370 . S
C648 C650 1.363 . S
C648 H664 0.931 . S
C649 C648 1.370 . S
C649 C653 1.408 . S
C650 C648 1.363 . S
C650 C651 1.370 . S
C650 C654 1.524 . S
C651 C643 1.503 1_554 S
C651 C650 1.370 . S
C651 C652 1.403 . S
C652 C651 1.403 . S
C652 C653 1.404 . S
C652 C655 1.539 . S
C653 C649 1.408 . S
C653 C652 1.404 . S
C653 H665 0.930 . S
C654 C650 1.524 . S
C654 H666 0.956 . S
C654 H667 0.961 1_554 S
C654 H668 0.961 . S
C655 C652 1.539 . S
C655 H669 0.958 . S
C655 H670 0.961 . S
C655 H671 0.960 . S
H656 C640 0.931 . S
H657 C645 0.929 . S
H658 C646 0.960 1_554 S
H659 C646 0.962 1_554 S
H660 C646 0.960 . S
H661 C647 0.961 . S
H662 C647 0.961 1_554 S
H663 C647 0.961 . S
H664 C648 0.931 . S
H665 C653 0.930 . S
H666 C654 0.956 . S
H667 C654 0.961 1_556 S
H668 C654 0.961 . S
H669 C655 0.958 . S
H670 C655 0.961 . S
H671 C655 0.960 . S
C672 C673 1.391 . S
C672 C674 1.394 . S
C672 H688 0.931 . S
C673 C672 1.391 . S
C673 C677 1.376 . S
C674 C672 1.394 . S
C674 C675 1.369 . S
C674 C678 1.531 . S
C675 C674 1.369 . S
C675 C676 1.410 . S
C675 C683 1.503 . S
C676 C675 1.410 . S
C676 C677 1.392 . S
C676 C679 1.511 . S
C677 C673 1.376 . S
C677 C676 1.392 . S
C677 H689 0.929 . S
C678 C674 1.531 . S
C678 H690 0.960 . S
C678 H691 0.962 . S
C678 H692 0.960 . S
C679 C676 1.511 . S
C679 H693 0.961 . S
C679 H694 0.961 . S
C679 H695 0.961 . S
C680 C681 1.370 . S
C680 C682 1.363 . S
C680 H696 0.931 . S
C681 C680 1.370 . S
C681 C685 1.408 . S
C682 C680 1.363 . S
C682 C683 1.370 . S
C682 C686 1.524 . S
C683 C675 1.503 . S
C683 C682 1.370 . S
C683 C684 1.403 . S
C684 C683 1.403 . S
C684 C685 1.404 . S
C684 C687 1.539 . S
C685 C681 1.408 . S
C685 C684 1.404 . S
C685 H697 0.930 . S
C686 C682 1.524 . S
C686 H698 0.956 . S
C686 H699 0.961 . S
C686 H700 0.961 . S
C687 C684 1.539 . S
C687 H701 0.958 . S
C687 H702 0.961 . S
C687 H703 0.960 . S
H688 C672 0.931 . S
H689 C677 0.929 . S
H690 C678 0.960 . S
H691 C678 0.962 . S
H692 C678 0.960 . S
H693 C679 0.961 . S
H694 C679 0.961 . S
H695 C679 0.961 . S
H696 C680 0.931 . S
H697 C685 0.930 . S
H698 C686 0.956 . S
H699 C686 0.961 . S
H700 C686 0.961 . S
H701 C687 0.958 . S
H702 C687 0.961 . S
H703 C687 0.960 . S
C704 C705 1.391 . S
C704 C706 1.394 . S
C704 H720 0.931 . S
C705 C704 1.391 . S
C705 C709 1.376 . S
C706 C704 1.394 . S
C706 C707 1.369 . S
C706 C710 1.531 . S
C707 C706 1.369 . S
C707 C708 1.410 . S
C707 C715 1.503 . S
C708 C707 1.410 . S
C708 C709 1.392 . S
C708 C711 1.511 . S
C709 C705 1.376 . S
C709 C708 1.392 . S
C709 H721 0.929 . S
C710 C706 1.531 . S
C710 H722 0.960 . S
C710 H723 0.962 . S
C710 H724 0.960 . S
C711 C708 1.511 . S
C711 H725 0.961 . S
C711 H726 0.961 . S
C711 H727 0.961 . S
C712 C713 1.370 . S
C712 C714 1.363 . S
C712 H728 0.931 . S
C713 C712 1.370 . S
C713 C717 1.408 . S
C714 C712 1.363 . S
C714 C715 1.370 . S
C714 C718 1.524 . S
C715 C707 1.503 . S
C715 C714 1.370 . S
C715 C716 1.403 . S
C716 C715 1.403 . S
C716 C717 1.404 . S
C716 C719 1.539 . S
C717 C713 1.408 . S
C717 C716 1.404 . S
C717 H729 0.930 . S
C718 C714 1.524 . S
C718 H730 0.956 . S
C718 H731 0.961 . S
C718 H732 0.961 . S
C719 C716 1.539 . S
C719 H733 0.958 . S
C719 H734 0.961 . S
C719 H735 0.960 . S
H720 C704 0.931 . S
H721 C709 0.929 . S
H722 C710 0.960 . S
H723 C710 0.962 . S
H724 C710 0.960 . S
H725 C711 0.961 . S
H726 C711 0.961 . S
H727 C711 0.961 . S
H728 C712 0.931 . S
H729 C717 0.930 . S
H730 C718 0.956 . S
H731 C718 0.961 . S
H732 C718 0.961 . S
H733 C719 0.958 . S
H734 C719 0.961 . S
H735 C719 0.960 . S
C736 C737 1.391 . S
C736 C738 1.394 . S
C736 H752 0.931 . S
C737 C736 1.391 . S
C737 C741 1.376 . S
C738 C736 1.394 . S
C738 C739 1.369 . S
C738 C742 1.531 . S
C739 C738 1.369 . S
C739 C740 1.410 . S
C739 C747 1.503 . S
C740 C739 1.410 . S
C740 C741 1.392 . S
C740 C743 1.511 . S
C741 C737 1.376 . S
C741 C740 1.392 . S
C741 H753 0.929 . S
C742 C738 1.531 . S
C742 H754 0.960 . S
C742 H755 0.962 . S
C742 H756 0.960 . S
C743 C740 1.511 . S
C743 H757 0.961 . S
C743 H758 0.961 . S
C743 H759 0.961 . S
C744 C745 1.370 . S
C744 C746 1.363 . S
C744 H760 0.931 . S
C745 C744 1.370 . S
C745 C749 1.408 . S
C746 C744 1.363 . S
C746 C747 1.370 . S
C746 C750 1.524 . S
C747 C739 1.503 . S
C747 C746 1.370 . S
C747 C748 1.403 . S
C748 C747 1.403 . S
C748 C749 1.404 . S
C748 C751 1.539 . S
C749 C745 1.408 . S
C749 C748 1.404 . S
C749 H761 0.930 . S
C750 C746 1.524 . S
C750 H762 0.956 . S
C750 H763 0.961 . S
C750 H764 0.961 . S
C751 C748 1.539 . S
C751 H765 0.958 . S
C751 H766 0.961 . S
C751 H767 0.960 . S
H752 C736 0.931 . S
H753 C741 0.929 . S
H754 C742 0.960 . S
H755 C742 0.962 . S
H756 C742 0.960 . S
H757 C743 0.961 . S
H758 C743 0.961 . S
H759 C743 0.961 . S
H760 C744 0.931 . S
H761 C749 0.930 . S
H762 C750 0.956 . S
H763 C750 0.961 . S
H764 C750 0.961 . S
H765 C751 0.958 . S
H766 C751 0.961 . S
H767 C751 0.960 . S
C768 C769 1.391 . S
C768 C770 1.394 . S
C768 H784 0.931 . S
C769 C768 1.391 . S
C769 C773 1.376 . S
C770 C768 1.394 . S
C770 C771 1.369 . S
C770 C774 1.531 . S
C771 C770 1.369 . S
C771 C772 1.410 . S
C771 C779 1.503 . S
C772 C771 1.410 . S
C772 C773 1.392 . S
C772 C775 1.511 . S
C773 C769 1.376 . S
C773 C772 1.392 . S
C773 H785 0.929 . S
C774 C770 1.531 . S
C774 H786 0.960 . S
C774 H787 0.962 . S
C774 H788 0.960 . S
C775 C772 1.511 . S
C775 H789 0.961 . S
C775 H790 0.961 . S
C775 H791 0.961 . S
C776 C777 1.370 . S
C776 C778 1.363 . S
C776 H792 0.931 . S
C777 C776 1.370 . S
C777 C781 1.408 . S
C778 C776 1.363 . S
C778 C779 1.370 . S
C778 C782 1.524 . S
C779 C771 1.503 . S
C779 C778 1.370 . S
C779 C780 1.403 . S
C780 C779 1.403 . S
C780 C781 1.404 . S
C780 C783 1.539 . S
C781 C777 1.408 . S
C781 C780 1.404 . S
C781 H793 0.930 . S
C782 C778 1.524 . S
C782 H794 0.956 . S
C782 H795 0.961 . S
C782 H796 0.961 . S
C783 C780 1.539 . S
C783 H797 0.958 . S
C783 H798 0.961 . S
C783 H799 0.960 . S
H784 C768 0.931 . S
H785 C773 0.929 . S
H786 C774 0.960 . S
H787 C774 0.962 . S
H788 C774 0.960 . S
H789 C775 0.961 . S
H790 C775 0.961 . S
H791 C775 0.961 . S
H792 C776 0.931 . S
H793 C781 0.930 . S
H794 C782 0.956 . S
H795 C782 0.961 . S
H796 C782 0.961 . S
H797 C783 0.958 . S
H798 C783 0.961 . S
H799 C783 0.960 . S
C800 C801 1.391 . S
C800 C802 1.394 . S
C800 H816 0.931 . S
C801 C800 1.391 . S
C801 C805 1.376 . S
C802 C800 1.394 . S
C802 C803 1.369 . S
C802 C806 1.531 . S
C803 C802 1.369 . S
C803 C804 1.410 . S
C803 C811 1.503 1_455 S
C804 C803 1.410 . S
C804 C805 1.392 . S
C804 C807 1.511 . S
C805 C801 1.376 . S
C805 C804 1.392 . S
C805 H817 0.929 . S
C806 C802 1.531 . S
C806 H818 1.003 . S
C806 H819 0.962 . S
C806 H820 0.960 . S
C807 C804 1.511 . S
C807 H821 0.961 . S
C807 H822 0.961 1_455 S
C807 H823 0.961 . S
C808 C809 1.370 . S
C808 C810 1.363 . S
C808 H824 0.931 . S
C809 C808 1.370 . S
C809 C813 1.408 . S
C810 C808 1.363 . S
C810 C811 1.370 . S
C810 C814 1.524 . S
C811 C803 1.503 1_655 S
C811 C810 1.370 . S
C811 C812 1.403 . S
C812 C811 1.403 . S
C812 C813 1.404 . S
C812 C815 1.539 . S
C813 C809 1.408 . S
C813 C812 1.404 . S
C813 H825 0.930 . S
C814 C810 1.524 . S
C814 H826 0.956 . S
C814 H827 0.961 . S
C814 H828 0.961 . S
C815 C812 1.539 . S
C815 H829 0.958 . S
C815 H830 0.961 . S
C815 H831 0.960 1_655 S
H816 C800 0.931 . S
H817 C805 0.929 . S
H818 C806 1.003 . S
H819 C806 0.962 . S
H820 C806 0.960 . S
H821 C807 0.961 . S
H822 C807 0.961 1_655 S
H823 C807 0.961 . S
H824 C808 0.931 . S
H825 C813 0.930 . S
H826 C814 0.956 . S
H827 C814 0.961 . S
H828 C814 0.961 . S
H829 C815 0.958 . S
H830 C815 0.961 . S
H831 C815 0.960 1_455 S
C832 C833 1.391 . S
C832 C834 1.394 . S
C832 H848 0.931 . S
C833 C832 1.391 . S
C833 C837 1.376 . S
C834 C832 1.394 . S
C834 C835 1.369 . S
C834 C838 1.531 . S
C835 C834 1.369 . S
C835 C836 1.410 . S
C835 C843 1.503 1_655 S
C836 C835 1.410 . S
C836 C837 1.392 . S
C836 C839 1.511 . S
C837 C833 1.376 . S
C837 C836 1.392 . S
C837 H849 0.929 . S
C838 C834 1.531 . S
C838 H850 0.979 . S
C838 H851 0.962 . S
C838 H852 0.960 . S
C839 C836 1.511 . S
C839 H853 0.961 . S
C839 H854 0.961 1_655 S
C839 H855 0.961 . S
C840 C841 1.370 . S
C840 C842 1.363 . S
C840 H856 0.931 . S
C841 C840 1.370 . S
C841 C845 1.408 . S
C842 C840 1.363 . S
C842 C843 1.370 . S
C842 C846 1.524 . S
C843 C835 1.503 1_455 S
C843 C842 1.370 . S
C843 C844 1.403 . S
C844 C843 1.403 . S
C844 C845 1.404 . S
C844 C847 1.539 . S
C845 C841 1.408 . S
C845 C844 1.404 . S
C845 H857 0.930 . S
C846 C842 1.524 . S
C846 H858 0.932 1_455 S
C846 H859 0.961 1_455 S
C846 H860 0.961 . S
C847 C844 1.539 . S
C847 H861 0.958 . S
C847 H862 0.961 . S
C847 H863 0.960 . S
H848 C832 0.931 . S
H849 C837 0.929 . S
H850 C838 0.979 . S
H851 C838 0.962 . S
H852 C838 0.960 . S
H853 C839 0.961 . S
H854 C839 0.961 1_455 S
H855 C839 0.961 . S
H856 C840 0.931 . S
H857 C845 0.930 . S
H858 C846 0.932 1_655 S
H859 C846 0.961 1_655 S
H860 C846 0.961 . S
H861 C847 0.958 . S
H862 C847 0.961 . S
H863 C847 0.960 . S
C864 C865 1.391 . S
C864 C866 1.394 . S
C864 H880 0.931 . S
C865 C864 1.391 . S
C865 C869 1.376 . S
C866 C864 1.394 . S
C866 C867 1.369 . S
C866 C870 1.531 . S
C867 C866 1.369 . S
C867 C868 1.410 . S
C867 C875 1.503 . S
C868 C867 1.410 . S
C868 C869 1.392 . S
C868 C871 1.511 . S
C869 C865 1.376 . S
C869 C868 1.392 . S
C869 H881 0.929 . S
C870 C866 1.531 . S
C870 H882 0.960 1_556 S
C870 H883 0.962 . S
C870 H884 0.960 1_556 S
C871 C868 1.511 . S
C871 H885 0.961 . S
C871 H886 0.961 . S
C871 H887 0.961 . S
C872 C873 1.370 . S
C872 C874 1.363 . S
C872 H888 0.931 . S
C873 C872 1.370 . S
C873 C877 1.408 . S
C874 C872 1.363 . S
C874 C875 1.370 . S
C874 C878 1.524 . S
C875 C867 1.503 . S
C875 C874 1.370 . S
C875 C876 1.403 . S
C876 C875 1.403 . S
C876 C877 1.404 . S
C876 C879 1.539 1_556 S
C877 C873 1.408 . S
C877 C876 1.404 . S
C877 H889 0.930 . S
C878 C874 1.524 . S
C878 H890 0.956 . S
C878 H891 0.961 . S
C878 H892 0.961 . S
C879 C876 1.539 1_554 S
C879 H893 0.958 . S
C879 H894 0.961 . S
C879 H895 0.964 . S
H880 C864 0.931 . S
H881 C869 0.929 . S
H882 C870 0.960 1_554 S
H883 C870 0.962 . S
H884 C870 0.960 1_554 S
H885 C871 0.961 . S
H886 C871 0.961 . S
H887 C871 0.961 . S
H888 C872 0.931 . S
H889 C877 0.930 . S
H890 C878 0.956 . S
H891 C878 0.961 . S
H892 C878 0.961 . S
H893 C879 0.958 . S
H894 C879 0.961 . S
H895 C879 0.964 . S
C896 C897 1.391 . S
C896 C898 1.394 . S
C896 H912 0.931 . S
C897 C896 1.391 . S
C897 C901 1.376 . S
C898 C896 1.394 . S
C898 C899 1.369 . S
C898 C902 1.531 . S
C899 C898 1.369 . S
C899 C900 1.410 . S
C899 C907 1.503 . S
C900 C899 1.410 . S
C900 C901 1.392 . S
C900 C903 1.511 . S
C901 C897 1.376 . S
C901 C900 1.392 . S
C901 H913 0.929 . S
C902 C898 1.531 . S
C902 H914 0.960 . S
C902 H915 0.962 . S
C902 H916 0.960 . S
C903 C900 1.511 . S
C903 H917 0.961 . S
C903 H918 0.961 . S
C903 H919 0.961 . S
C904 C905 1.370 . S
C904 C906 1.363 . S
C904 H920 0.931 . S
C905 C904 1.370 . S
C905 C909 1.408 . S
C906 C904 1.363 . S
C906 C907 1.370 . S
C906 C910 1.524 1_554 S
C907 C899 1.503 . S
C907 C906 1.370 . S
C907 C908 1.403 . S
C908 C907 1.403 . S
C908 C909 1.404 . S
C908 C911 1.539 . S
C909 C905 1.408 . S
C909 C908 1.404 . S
C909 H921 0.930 . S
C910 C906 1.524 1_556 S
C910 H922 0.956 . S
C910 H923 0.961 1_556 S
C910 H924 0.961 . S
C911 C908 1.539 . S
C911 H925 0.958 . S
C911 H926 0.961 . S
C911 H927 0.960 . S
H912 C896 0.931 . S
H913 C901 0.929 . S
H914 C902 0.960 . S
H915 C902 0.962 . S
H916 C902 0.960 . S
H917 C903 0.961 . S
H918 C903 0.961 . S
H919 C903 0.961 . S
H920 C904 0.931 . S
H921 C909 0.930 . S
H922 C910 0.956 . S
H923 C910 0.961 1_554 S
H924 C910 0.961 . S
H925 C911 0.958 . S
H926 C911 0.961 . S
H927 C911 0.960 . S
C161 C2 1.661 . S
C169 C141 1.672 . S
C193 C121 1.663 . S
C201 C22 1.672 . S
C225 C102 1.676 . S
C233 C41 1.666 . S
C257 C82 1.664 . S
C265 C61 1.672 . S
C289 C48 1.474 . S
C297 C8 1.460 . S
C321 C28 1.480 . S
C329 C68 1.451 . S
C353 C69 1.449 . S
C361 C29 1.471 . S
C385 C49 1.478 . S
C393 C9 1.459 . S
C417 C88 1.448 1_554 S
C425 C128 1.463 . S
C449 C108 1.427 . S
C457 C148 1.469 . S
C481 C149 1.468 . S
C489 C109 1.448 . S
C513 C129 1.433 . S
C521 C89 1.462 . S
C545 C19 1.652 . S
C553 C18 1.624 . S
C577 C39 1.648 . S
C585 C38 1.624 . S
C609 C59 1.608 . S
C617 C58 1.642 . S
C641 C78 1.643 . S
C649 C79 1.629 . S
C673 C98 1.648 . S
C681 C99 1.626 . S
C705 C119 1.649 . S
C713 C118 1.624 . S
C737 C138 1.633 . S
C745 C139 1.633 . S
C769 C158 1.645 . S
C777 C159 1.628 . S
C801 C1 1.852 . S
C809 C21 1.864 . S
C833 C62 1.897 . S
C841 C42 1.887 . S
C865 C81 1.846 . S
C873 C101 1.869 . S
C897 C142 1.900 . S
C905 C122 1.887 . S
