# Generated by pormake.
# Topology whp, (6)-cn, num edge types: 1
# Building blocks:
#     Node 0, Type 0, BuildingBlock: IZENUY_clean_sbu_0, # of connection points: 6
#     Node 1, Type 0, BuildingBlock: IZENUY_clean_sbu_0, # of connection points: 6
#     Node 2, Type 0, BuildingBlock: IZENUY_clean_sbu_0, # of connection points: 6
#     Node 3, Type 0, BuildingBlock: IZENUY_clean_sbu_0, # of connection points: 6
#     Node 4, Type 0, BuildingBlock: IZENUY_clean_sbu_0, # of connection points: 6
#     Node 5, Type 0, BuildingBlock: IZENUY_clean_sbu_0, # of connection points: 6
#     Node 6, Type 0, BuildingBlock: IZENUY_clean_sbu_0, # of connection points: 6
#     Node 7, Type 0, BuildingBlock: IZENUY_clean_sbu_0, # of connection points: 6
#     Node 8, Type 0, BuildingBlock: IZENUY_clean_sbu_0, # of connection points: 6
#     Node 9, Type 0, BuildingBlock: IZENUY_clean_sbu_0, # of connection points: 6
#     Node 10, Type 0, BuildingBlock: IZENUY_clean_sbu_0, # of connection points: 6
#     Node 11, Type 0, BuildingBlock: IZENUY_clean_sbu_0, # of connection points: 6
#     Node 12, Type 0, BuildingBlock: IZENUY_clean_sbu_0, # of connection points: 6
#     Node 13, Type 0, BuildingBlock: IZENUY_clean_sbu_0, # of connection points: 6
#     Node 14, Type 0, BuildingBlock: IZENUY_clean_sbu_0, # of connection points: 6
#     Node 15, Type 0, BuildingBlock: IZENUY_clean_sbu_0, # of connection points: 6
#     Edge 16, Type (0, 0), BuildingBlock: ZUJKAS_clean_linker_0, # of connection points: 2
#     Edge 17, Type (0, 0), BuildingBlock: ZUJKAS_clean_linker_0, # of connection points: 2
#     Edge 18, Type (0, 0), BuildingBlock: ZUJKAS_clean_linker_0, # of connection points: 2
#     Edge 19, Type (0, 0), BuildingBlock: ZUJKAS_clean_linker_0, # of connection points: 2
#     Edge 20, Type (0, 0), BuildingBlock: ZUJKAS_clean_linker_0, # of connection points: 2
#     Edge 21, Type (0, 0), BuildingBlock: ZUJKAS_clean_linker_0, # of connection points: 2
#     Edge 22, Type (0, 0), BuildingBlock: ZUJKAS_clean_linker_0, # of connection points: 2
#     Edge 23, Type (0, 0), BuildingBlock: ZUJKAS_clean_linker_0, # of connection points: 2
#     Edge 24, Type (0, 0), BuildingBlock: ZUJKAS_clean_linker_0, # of connection points: 2
#     Edge 25, Type (0, 0), BuildingBlock: ZUJKAS_clean_linker_0, # of connection points: 2
#     Edge 26, Type (0, 0), BuildingBlock: ZUJKAS_clean_linker_0, # of connection points: 2
#     Edge 27, Type (0, 0), BuildingBlock: ZUJKAS_clean_linker_0, # of connection points: 2
#     Edge 28, Type (0, 0), BuildingBlock: ZUJKAS_clean_linker_0, # of connection points: 2
#     Edge 29, Type (0, 0), BuildingBlock: ZUJKAS_clean_linker_0, # of connection points: 2
#     Edge 30, Type (0, 0), BuildingBlock: ZUJKAS_clean_linker_0, # of connection points: 2
#     Edge 31, Type (0, 0), BuildingBlock: ZUJKAS_clean_linker_0, # of connection points: 2
#     Edge 32, Type (0, 0), BuildingBlock: ZUJKAS_clean_linker_0, # of connection points: 2
#     Edge 33, Type (0, 0), BuildingBlock: ZUJKAS_clean_linker_0, # of connection points: 2
#     Edge 34, Type (0, 0), BuildingBlock: ZUJKAS_clean_linker_0, # of connection points: 2
#     Edge 35, Type (0, 0), BuildingBlock: ZUJKAS_clean_linker_0, # of connection points: 2
#     Edge 36, Type (0, 0), BuildingBlock: ZUJKAS_clean_linker_0, # of connection points: 2
#     Edge 37, Type (0, 0), BuildingBlock: ZUJKAS_clean_linker_0, # of connection points: 2
#     Edge 38, Type (0, 0), BuildingBlock: ZUJKAS_clean_linker_0, # of connection points: 2
#     Edge 39, Type (0, 0), BuildingBlock: ZUJKAS_clean_linker_0, # of connection points: 2
#     Edge 40, Type (0, 0), BuildingBlock: ZUJKAS_clean_linker_0, # of connection points: 2
#     Edge 41, Type (0, 0), BuildingBlock: ZUJKAS_clean_linker_0, # of connection points: 2
#     Edge 42, Type (0, 0), BuildingBlock: ZUJKAS_clean_linker_0, # of connection points: 2
#     Edge 43, Type (0, 0), BuildingBlock: ZUJKAS_clean_linker_0, # of connection points: 2
#     Edge 44, Type (0, 0), BuildingBlock: ZUJKAS_clean_linker_0, # of connection points: 2
#     Edge 45, Type (0, 0), BuildingBlock: ZUJKAS_clean_linker_0, # of connection points: 2
#     Edge 46, Type (0, 0), BuildingBlock: ZUJKAS_clean_linker_0, # of connection points: 2
#     Edge 47, Type (0, 0), BuildingBlock: ZUJKAS_clean_linker_0, # of connection points: 2
#     Edge 48, Type (0, 0), BuildingBlock: ZUJKAS_clean_linker_0, # of connection points: 2
#     Edge 49, Type (0, 0), BuildingBlock: ZUJKAS_clean_linker_0, # of connection points: 2
#     Edge 50, Type (0, 0), BuildingBlock: ZUJKAS_clean_linker_0, # of connection points: 2
#     Edge 51, Type (0, 0), BuildingBlock: ZUJKAS_clean_linker_0, # of connection points: 2
#     Edge 52, Type (0, 0), BuildingBlock: ZUJKAS_clean_linker_0, # of connection points: 2
#     Edge 53, Type (0, 0), BuildingBlock: ZUJKAS_clean_linker_0, # of connection points: 2
#     Edge 54, Type (0, 0), BuildingBlock: ZUJKAS_clean_linker_0, # of connection points: 2
#     Edge 55, Type (0, 0), BuildingBlock: ZUJKAS_clean_linker_0, # of connection points: 2
#     Edge 56, Type (0, 0), BuildingBlock: ZUJKAS_clean_linker_0, # of connection points: 2
#     Edge 57, Type (0, 0), BuildingBlock: ZUJKAS_clean_linker_0, # of connection points: 2
#     Edge 58, Type (0, 0), BuildingBlock: ZUJKAS_clean_linker_0, # of connection points: 2
#     Edge 59, Type (0, 0), BuildingBlock: ZUJKAS_clean_linker_0, # of connection points: 2
#     Edge 60, Type (0, 0), BuildingBlock: ZUJKAS_clean_linker_0, # of connection points: 2
#     Edge 61, Type (0, 0), BuildingBlock: ZUJKAS_clean_linker_0, # of connection points: 2
#     Edge 62, Type (0, 0), BuildingBlock: ZUJKAS_clean_linker_0, # of connection points: 2
#     Edge 63, Type (0, 0), BuildingBlock: ZUJKAS_clean_linker_0, # of connection points: 2
# Relax obj value: 0.321
# Max RMSD: 0.246
# Mean RMSD: 0.246
data_MOF--net-whp--node1-IZENUY_clean_sbu_0--edge1-ZUJKAS_clean_linker_0
_symmetry_space_group_name_H-M    P1
_symmetry_Int_Tables_number       1
_symmetry_cell_setting            triclinic
loop_
_symmetry_equiv_pos_as_xyz
'x, y, z'
_cell_length_a     61.255272
_cell_length_b     61.238742
_cell_length_c     37.006071
_cell_angle_alpha  89.956158
_cell_angle_beta   89.964026
_cell_angle_gamma 89.931236
loop_
_atom_site_label
_atom_site_type_symbol
_atom_site_fract_x
_atom_site_fract_y
_atom_site_fract_z
_atom_type_partial_charge
Fe0 Fe 0.33946 0.53038 0.3026 0.0
Fe1 Fe 0.31339 0.55957 0.3547 0.0
O2 O 0.3154 0.53561 0.3281 0.0
Fe3 Fe 0.29353 0.5166 0.32641 0.0
O4 O 0.29871 0.50874 0.27923 0.0
O5 O 0.32407 0.53153 0.26062 0.0
O6 O 0.34691 0.559 0.29559 0.0
C7 C 0.3361 0.57651 0.29754 0.0
C8 C 0.32827 0.48858 0.32843 0.0
O9 O 0.31906 0.57741 0.31652 0.0
C10 C 0.29263 0.53054 0.3997 0.0
O11 O 0.35602 0.52908 0.34324 0.0
O12 O 0.34206 0.55874 0.36852 0.0
O13 O 0.31096 0.49471 0.34402 0.0
O14 O 0.33712 0.5006 0.30482 0.0
C15 C 0.27152 0.55597 0.32203 0.0
O16 O 0.30759 0.54436 0.3955 0.0
O17 O 0.28404 0.52114 0.37286 0.0
C18 C 0.35617 0.54358 0.36753 0.0
O19 O 0.28435 0.56399 0.34535 0.0
O20 O 0.2748 0.53718 0.30888 0.0
C21 C 0.30802 0.51921 0.25398 0.0
Fe22 Fe 0.99143 0.29161 0.81487 0.0
Fe23 Fe 0.97639 0.33771 0.79403 0.0
O24 O 0.97211 0.31311 0.8183 0.0
Fe25 Fe 0.9486 0.31026 0.8458 0.0
O26 O 0.94529 0.28095 0.83746 0.0
O27 O 0.9709 0.2727 0.79803 0.0
O28 O 0.99813 0.2973 0.76737 0.0
C29 C 0.98732 0.30726 0.7432 0.0
C30 C 0.979 0.29033 0.88907 0.0
O31 O 0.97524 0.32331 0.75118 0.0
C32 C 0.96259 0.35361 0.85894 0.0
O33 O 0.01352 0.30905 0.83155 0.0
O34 O 0.00616 0.33614 0.79484 0.0
O35 O 0.96489 0.30523 0.88588 0.0
O36 O 0.9878 0.28186 0.86144 0.0
C37 C 0.93046 0.33241 0.78934 0.0
O38 O 0.97776 0.35342 0.8358 0.0
O39 O 0.94788 0.33908 0.85905 0.0
C40 C 0.01902 0.32675 0.81652 0.0
O41 O 0.94738 0.34418 0.78828 0.0
O42 O 0.93028 0.3151 0.80787 0.0
C43 C 0.95296 0.26845 0.81335 0.0
Fe44 Fe 0.21436 0.98675 0.32355 0.0
Fe45 Fe 0.16757 0.97165 0.3047 0.0
O46 O 0.19289 0.96739 0.32682 0.0
Fe47 Fe 0.19694 0.94346 0.35276 0.0
O48 O 0.21838 0.93454 0.32271 0.0
O49 O 0.23623 0.96574 0.3244 0.0
O50 O 0.21515 0.98426 0.27518 0.0
C51 C 0.19942 0.98584 0.25344 0.0
C52 C 0.21918 0.97517 0.39406 0.0
O53 O 0.17976 0.98468 0.2643 0.0
C54 C 0.15626 0.95566 0.3746 0.0
O55 O 0.19634 0.01105 0.3211 0.0
O56 O 0.1634 0.99738 0.32713 0.0
O57 O 0.21661 0.95561 0.38411 0.0
O58 O 0.21523 0.99058 0.3724 0.0
C59 C 0.17065 0.9276 0.29552 0.0
O60 O 0.15128 0.95956 0.34181 0.0
O61 O 0.17568 0.95144 0.38367 0.0
C62 C 0.17617 0.01341 0.32794 0.0
O63 O 0.16927 0.94593 0.28025 0.0
O64 O 0.178 0.92624 0.32727 0.0
C65 C 0.23549 0.94546 0.31683 0.0
Fe66 Fe 0.51385 0.21334 0.82196 0.0
Fe67 Fe 0.53125 0.16783 0.7994 0.0
O68 O 0.5339 0.19232 0.82461 0.0
Fe69 Fe 0.55687 0.19585 0.85301 0.0
O70 O 0.56586 0.21905 0.82682 0.0
O71 O 0.53395 0.23575 0.82674 0.0
O72 O 0.51753 0.2161 0.77394 0.0
C73 C 0.51733 0.20113 0.75067 0.0
C74 C 0.52307 0.21499 0.89396 0.0
O75 O 0.51894 0.18117 0.75954 0.0
C76 C 0.54598 0.15378 0.86871 0.0
O77 O 0.49042 0.19466 0.81605 0.0
O78 O 0.50511 0.16194 0.8195 0.0
O79 O 0.54302 0.21335 0.8858 0.0
O80 O 0.50854 0.21237 0.8703 0.0
C81 C 0.57522 0.17288 0.79375 0.0
O82 O 0.54314 0.15029 0.83515 0.0
O83 O 0.54886 0.17289 0.88046 0.0
C84 C 0.48867 0.17424 0.821 0.0
O85 O 0.55737 0.17152 0.77714 0.0
O86 O 0.57555 0.17887 0.82638 0.0
C87 C 0.5545 0.23597 0.82156 0.0
Fe88 Fe 0.80839 0.44479 0.14433 0.0
Fe89 Fe 0.79075 0.48828 0.17309 0.0
O90 O 0.81192 0.46842 0.17121 0.0
Fe91 Fe 0.83658 0.47184 0.19567 0.0
O92 O 0.83324 0.44618 0.21964 0.0
O93 O 0.82604 0.42698 0.17144 0.0
O94 O 0.78576 0.43606 0.17201 0.0
C95 C 0.76877 0.44729 0.17737 0.0
C96 C 0.85009 0.45583 0.12683 0.0
O97 O 0.76855 0.46773 0.17079 0.0
C98 C 0.82972 0.5138 0.17107 0.0
O99 O 0.79005 0.4575 0.11134 0.0
O100 O 0.791 0.49228 0.12442 0.0
O101 O 0.85382 0.45924 0.16018 0.0
O102 O 0.8309 0.45259 0.11563 0.0
C103 C 0.80375 0.48712 0.24429 0.0
O104 O 0.8093 0.51207 0.17634 0.0
O105 O 0.84211 0.49749 0.17381 0.0
C106 C 0.78759 0.47719 0.10205 0.0
O107 O 0.7886 0.486 0.22142 0.0
O108 O 0.82361 0.4851 0.23506 0.0
C109 C 0.83216 0.42799 0.20397 0.0
Fe110 Fe 0.05746 0.80777 0.65137 0.0
Fe111 Fe 0.01476 0.78994 0.68266 0.0
O112 O 0.03451 0.81111 0.67992 0.0
Fe113 Fe 0.03163 0.83562 0.70503 0.0
O114 O 0.05795 0.83219 0.72702 0.0
O115 O 0.07583 0.82539 0.67728 0.0
O116 O 0.06699 0.78494 0.67777 0.0
C117 C 0.05589 0.7679 0.68327 0.0
C118 C 0.04564 0.84944 0.63519 0.0
O119 O 0.03528 0.76778 0.67853 0.0
C120 C 0.98912 0.82886 0.6833 0.0
O121 O 0.04405 0.78964 0.61917 0.0
O122 O 0.00956 0.79066 0.6342 0.0
O123 O 0.04307 0.85314 0.66879 0.0
O124 O 0.04877 0.8303 0.62372 0.0
C125 C 0.01805 0.80229 0.75403 0.0
O126 O 0.99101 0.80842 0.68808 0.0
O127 O 0.00541 0.84126 0.68524 0.0
C128 C 0.0242 0.78773 0.61076 0.0
O129 O 0.01837 0.7874 0.73065 0.0
O130 O 0.01953 0.82227 0.74513 0.0
C131 C 0.07567 0.83134 0.70991 0.0
Fe132 Fe 0.69291 0.0607 0.15081 0.0
Fe133 Fe 0.712 0.0172 0.17853 0.0
O134 O 0.69051 0.03662 0.17707 0.0
Fe135 Fe 0.66635 0.03178 0.20222 0.0
O136 O 0.65967 0.06063 0.20953 0.0
O137 O 0.68832 0.07828 0.18973 0.0
O138 O 0.72228 0.06404 0.15863 0.0
C139 C 0.73514 0.0557 0.18161 0.0
C140 C 0.64954 0.04644 0.13841 0.0
O141 O 0.73117 0.03734 0.19577 0.0
C142 C 0.67692 0.98969 0.17682 0.0
O143 O 0.69766 0.0454 0.10965 0.0
O144 O 0.72109 0.0217 0.13182 0.0
O145 O 0.65008 0.03098 0.16104 0.0
O146 O 0.66392 0.06132 0.13839 0.0
C147 C 0.69757 0.01997 0.25112 0.0
O148 O 0.69427 0.99557 0.16118 0.0
O149 O 0.66804 1.00197 0.19998 0.0
C150 C 0.71232 0.03119 0.10512 0.0
O151 O 0.70693 0.00948 0.22589 0.0
O152 O 0.68155 0.03238 0.2444 0.0
C153 C 0.67118 0.07774 0.20859 0.0
Fe154 Fe 0.49022 0.71324 0.6845 0.0
Fe155 Fe 0.47345 0.6673 0.70615 0.0
O156 O 0.47027 0.69224 0.68226 0.0
Fe157 Fe 0.4468 0.69612 0.65513 0.0
O158 O 0.43789 0.71846 0.68336 0.0
O159 O 0.46964 0.73553 0.68265 0.0
O160 O 0.48803 0.71503 0.73291 0.0
C161 C 0.48873 0.69964 0.75542 0.0
C162 C 0.47914 0.7168 0.61337 0.0
O163 O 0.48639 0.67987 0.74596 0.0
C164 C 0.45879 0.65484 0.63659 0.0
O165 O 0.51393 0.69457 0.68757 0.0
O166 O 0.4993 0.66179 0.6847 0.0
O167 O 0.45951 0.71492 0.62309 0.0
O168 O 0.49425 0.71323 0.63567 0.0
C169 C 0.42956 0.67173 0.71366 0.0
O170 O 0.46109 0.65054 0.66998 0.0
O171 O 0.45512 0.67405 0.62583 0.0
C172 C 0.51561 0.67416 0.68223 0.0
O173 O 0.44762 0.67052 0.72971 0.0
O174 O 0.42885 0.67805 0.68119 0.0
C175 C 0.44916 0.7354 0.68901 0.0
Fe176 Fe 0.71385 0.48575 0.67401 0.0
Fe177 Fe 0.66746 0.4711 0.69601 0.0
O178 O 0.69214 0.46662 0.6721 0.0
Fe179 Fe 0.69521 0.4427 0.64586 0.0
O180 O 0.71742 0.4335 0.67409 0.0
O181 O 0.7355 0.46456 0.67176 0.0
O182 O 0.71573 0.48315 0.72232 0.0
C183 C 0.70051 0.48502 0.74497 0.0
C184 C 0.71692 0.4743 0.60314 0.0
O185 O 0.68065 0.48438 0.73519 0.0
C186 C 0.65396 0.45503 0.62743 0.0
O187 O 0.69601 0.51018 0.6775 0.0
O188 O 0.66288 0.49668 0.67329 0.0
O189 O 0.71408 0.45472 0.61293 0.0
O190 O 0.71371 0.48966 0.62519 0.0
C191 C 0.67068 0.42718 0.70559 0.0
O192 O 0.65009 0.45874 0.66065 0.0
O193 O 0.6731 0.45094 0.61665 0.0
C194 C 0.67574 0.51262 0.6715 0.0
O195 O 0.66984 0.44556 0.72072 0.0
O196 O 0.67693 0.42566 0.67315 0.0
C197 C 0.73472 0.44425 0.67917 0.0
Fe198 Fe 0.01592 0.71079 0.18479 0.0
Fe199 Fe 0.03214 0.66566 0.20837 0.0
O200 O 0.03595 0.68986 0.18291 0.0
Fe201 Fe 0.05961 0.69295 0.15584 0.0
O202 O 0.06201 0.72245 0.16336 0.0
O203 O 0.03569 0.73047 0.20176 0.0
O204 O 0.00848 0.70543 0.23206 0.0
C205 C 0.01929 0.69645 0.25723 0.0
C206 C 0.02916 0.71154 0.11107 0.0
O207 O 0.0324 0.68101 0.25045 0.0
C208 C 0.04696 0.64895 0.14456 0.0
O209 O 0.99468 0.69243 0.16783 0.0
O210 O 1.00233 0.66632 0.20629 0.0
O211 O 0.04356 0.69701 0.11516 0.0
O212 O 0.01994 0.72015 0.13815 0.0
C213 C 0.07797 0.67211 0.21357 0.0
O214 O 0.03169 0.6491 0.16752 0.0
O215 O 0.06116 0.66397 0.14368 0.0
C216 C 0.98961 0.67472 0.18327 0.0
O217 O 0.06123 0.66011 0.21535 0.0
O218 O 0.07786 0.68906 0.19417 0.0
C219 C 0.05369 0.73502 0.18683 0.0
Fe220 Fe 0.7906 0.01669 0.67907 0.0
Fe221 Fe 0.83686 0.03319 0.6992 0.0
O222 O 0.81169 0.03658 0.67615 0.0
Fe223 Fe 0.80744 0.06019 0.64937 0.0
O224 O 0.7854 0.06887 0.67839 0.0
O225 O 0.76833 0.0372 0.67721 0.0
O226 O 0.78914 0.01917 0.72743 0.0
C227 C 0.80467 0.01868 0.74969 0.0
C228 C 0.78676 0.02768 0.60798 0.0
O229 O 0.82442 0.02079 0.73977 0.0
C230 C 0.84861 0.0486 0.62905 0.0
O231 O 0.80904 0.99286 0.6824 0.0
O232 O 0.84184 0.00712 0.67815 0.0
O233 O 0.78847 0.04734 0.6177 0.0
O234 O 0.79042 0.01254 0.63028 0.0
C235 C 0.8329 0.07729 0.70667 0.0
O236 O 0.85333 0.04498 0.66202 0.0
O237 O 0.82921 0.0524 0.61938 0.0
C238 C 0.82936 0.99088 0.67677 0.0
O239 O 0.83444 0.05919 0.72252 0.0
O240 O 0.82567 0.07817 0.67481 0.0
C241 C 0.76849 0.0576 0.68402 0.0
Fe242 Fe 0.47759 0.83786 0.20686 0.0
Fe243 Fe 0.44949 0.81051 0.15525 0.0
O244 O 0.47324 0.81342 0.18204 0.0
Fe245 Fe 0.49283 0.79206 0.18459 0.0
O246 O 0.50026 0.79782 0.23178 0.0
O247 O 0.47671 0.82283 0.24925 0.0
O248 O 0.44872 0.84444 0.21333 0.0
C249 C 0.43168 0.83293 0.21188 0.0
C250 C 0.51982 0.82755 0.18193 0.0
O251 O 0.4314 0.81573 0.19327 0.0
C252 C 0.4794 0.79047 0.11108 0.0
O253 O 0.47852 0.8541 0.16571 0.0
O254 O 0.44927 0.83913 0.14102 0.0
O255 O 0.5143 0.80988 0.16687 0.0
O256 O 0.50743 0.83634 0.20507 0.0
C257 C 0.45418 0.76901 0.18874 0.0
O258 O 0.46514 0.80509 0.11481 0.0
O259 O 0.48877 0.78215 0.13825 0.0
C260 C 0.46399 0.85366 0.14146 0.0
O261 O 0.44605 0.78138 0.16481 0.0
O262 O 0.4727 0.77295 0.20232 0.0
C263 C 0.48927 0.80703 0.25655 0.0
Fe264 Fe 0.16839 0.53248 0.80574 0.0
Fe265 Fe 0.1969 0.55879 0.85764 0.0
O266 O 0.1931 0.5354 0.83024 0.0
Fe267 Fe 0.21408 0.51533 0.82812 0.0
O268 O 0.2163 0.51778 0.77978 0.0
O269 O 0.18133 0.51998 0.76581 0.0
O270 O 0.17176 0.55852 0.78279 0.0
C271 C 0.17277 0.57643 0.79924 0.0
C272 C 0.17496 0.49006 0.829 0.0
O273 O 0.1791 0.57695 0.83163 0.0
C274 C 0.21703 0.52608 0.8994 0.0
O275 O 0.15131 0.54445 0.84204 0.0
O276 O 0.17452 0.55077 0.8864 0.0
O277 O 0.19543 0.49173 0.82448 0.0
O278 O 0.16267 0.50644 0.82628 0.0
C279 C 0.23641 0.55623 0.82445 0.0
O280 O 0.21534 0.54579 0.88993 0.0
O281 O 0.21365 0.51109 0.87683 0.0
C282 C 0.15528 0.54745 0.87544 0.0
O283 O 0.21949 0.5676 0.82986 0.0
O284 O 0.23641 0.53574 0.83069 0.0
C285 C 0.20118 0.51763 0.75679 0.0
Fe286 Fe 0.94664 0.19634 0.34734 0.0
Fe287 Fe 0.98976 0.21334 0.31639 0.0
O288 O 0.96986 0.19229 0.31968 0.0
Fe289 Fe 0.97293 0.16732 0.29588 0.0
O290 O 0.94681 0.17024 0.27302 0.0
O291 O 0.92832 0.17862 0.32153 0.0
O292 O 0.93769 0.21889 0.31958 0.0
C293 C 0.94896 0.23581 0.31403 0.0
C294 C 0.95793 0.15478 0.36581 0.0
O295 O 0.96947 0.23572 0.31969 0.0
C296 C 0.0153 0.1744 0.31791 0.0
O297 O 0.96007 0.21465 0.37934 0.0
O298 O 0.9947 0.2133 0.36488 0.0
O299 O 0.9611 0.15047 0.33258 0.0
O300 O 0.95462 0.17411 0.37623 0.0
C301 C 0.98694 0.19983 0.24564 0.0
O302 O 0.01344 0.19471 0.31182 0.0
O303 O 0.99898 0.16201 0.31668 0.0
C304 C 0.97991 0.21651 0.38796 0.0
O305 O 0.98631 0.21515 0.26828 0.0
O306 O 0.98542 0.18 0.25547 0.0
C307 C 0.92885 0.17179 0.28937 0.0
Fe308 Fe 0.33543 0.97173 0.8049 0.0
Fe309 Fe 0.30766 0.94594 0.85865 0.0
O310 O 0.31074 0.96868 0.82952 0.0
Fe311 Fe 0.28931 0.98812 0.82578 0.0
O312 O 0.28743 0.98438 0.7777 0.0
O313 O 0.32249 0.98395 0.76456 0.0
O314 O 0.3323 0.94542 0.78296 0.0
C315 C 0.33162 0.9277 0.80019 0.0
C316 C 0.32791 0.01415 0.82624 0.0
O317 O 0.32566 0.92758 0.83292 0.0
C318 C 0.28606 0.9792 0.89782 0.0
O319 O 0.35279 0.96017 0.84115 0.0
O320 O 0.32996 0.95534 0.88648 0.0
O321 O 0.30757 0.01202 0.82072 0.0
O322 O 0.3406 0.99799 0.82496 0.0
C323 C 0.26795 0.94663 0.82575 0.0
O324 O 0.2891 0.95932 0.89041 0.0
O325 O 0.28913 0.99363 0.87411 0.0
C326 C 0.34904 0.95853 0.87482 0.0
O327 O 0.28507 0.9358 0.83231 0.0
O328 O 0.26749 0.96731 0.82948 0.0
C329 C 0.30266 0.98545 0.75497 0.0
Fe330 Fe 0.5146 0.29325 0.32095 0.0
Fe331 Fe 0.52763 0.33934 0.29673 0.0
O332 O 0.5335 0.31518 0.32142 0.0
Fe333 Fe 0.55816 0.31324 0.34617 0.0
O334 O 0.56206 0.28401 0.33807 0.0
O335 O 0.53486 0.27446 0.30263 0.0
O336 O 0.50604 0.29812 0.27395 0.0
C337 C 0.51588 0.30784 0.24838 0.0
C338 C 0.53005 0.29326 0.39356 0.0
O339 O 0.52774 0.32431 0.25451 0.0
C340 C 0.54329 0.35639 0.3595 0.0
O341 O 0.49286 0.31055 0.33941 0.0
O342 O 0.49796 0.33702 0.30052 0.0
O343 O 0.54391 0.30812 0.38824 0.0
O344 O 0.52015 0.28433 0.36744 0.0
C345 C 0.57344 0.33529 0.28746 0.0
O346 O 0.52729 0.35552 0.33801 0.0
O347 O 0.5584 0.34222 0.3586 0.0
C348 C 0.48634 0.32785 0.32425 0.0
O349 O 0.55618 0.34662 0.28785 0.0
O350 O 0.57467 0.31812 0.30613 0.0
C351 C 0.55374 0.27109 0.31525 0.0
H352 H 0.39982 0.54712 0.35443 0.0
H353 H 0.42769 0.55798 0.39886 0.0
H354 H 0.37981 0.55348 0.48403 0.0
H355 H 0.35195 0.54337 0.43976 0.0
H356 H 0.41365 0.59844 0.44252 0.0
H357 H 0.44061 0.52796 0.52601 0.0
H358 H 0.43232 0.52519 0.4793 0.0
H359 H 0.41214 0.52896 0.5139 0.0
C360 C 0.39557 0.54767 0.38284 0.0
C361 C 0.37392 0.54443 0.39398 0.0
C362 C 0.41143 0.55384 0.4081 0.0
C363 C 0.4058 0.55623 0.44468 0.0
C364 C 0.38453 0.55131 0.45603 0.0
H365 H 0.43502 0.61751 0.64254 0.0
H366 H 0.42669 0.5917 0.59385 0.0
C367 C 0.36865 0.54565 0.43079 0.0
C368 C 0.42023 0.56814 0.46971 0.0
H369 H 0.44655 0.56349 0.55053 0.0
C370 C 0.42136 0.59084 0.46575 0.0
C371 C 0.42974 0.55806 0.50015 0.0
C372 C 0.42884 0.53366 0.5052 0.0
C373 C 0.43055 0.60401 0.49265 0.0
C374 C 0.43981 0.59403 0.52368 0.0
C375 C 0.43959 0.57113 0.52673 0.0
C376 C 0.44783 0.60724 0.55454 0.0
C377 C 0.42866 0.62851 0.48862 0.0
C378 C 0.46322 0.62391 0.54917 0.0
C379 C 0.46739 0.63902 0.57652 0.0
C380 C 0.45698 0.63709 0.61015 0.0
C381 C 0.44321 0.61925 0.61674 0.0
C382 C 0.4385 0.60452 0.58898 0.0
H383 H 0.41612 0.63318 0.46834 0.0
H384 H 0.42433 0.63634 0.5147 0.0
H385 H 0.44452 0.6352 0.47933 0.0
H386 H 0.47122 0.62588 0.52327 0.0
H387 H 0.47831 0.65255 0.57114 0.0
H388 H 0.84767 0.4503 0.05388 0.0
H389 H 0.87706 0.44097 0.01241 0.0
H390 H 0.92366 0.44483 0.09948 0.0
H391 H 0.89409 0.45386 0.14171 0.0
H392 H 0.91608 0.46186 0.99273 0.0
H393 H 0.93127 0.38227 0.06181 0.0
H394 H 0.90739 0.39855 0.0713 0.0
H395 H 0.93353 0.40669 0.08848 0.0
C396 C 0.86416 0.44931 0.06434 0.0
C397 C 0.86845 0.45251 0.10129 0.0
C398 C 0.88099 0.44408 0.04049 0.0
C399 C 0.9025 0.44191 0.05293 0.0
C400 C 0.9071 0.44608 0.08944 0.0
H401 H 0.99176 0.37028 0.90753 0.0
H402 H 0.98343 0.39658 0.95614 0.0
C403 C 0.8902 0.45133 0.11348 0.0
C404 C 0.91945 0.43387 0.02759 0.0
H405 H 0.94745 0.38754 0.00533 0.0
C406 C 0.92339 0.44583 0.99586 0.0
C407 C 0.92909 0.41299 0.0318 0.0
C408 C 0.92511 0.39923 0.06502 0.0
C409 C 0.9354 0.43682 0.96719 0.0
C410 C 0.94351 0.41531 0.9703 0.0
C411 C 0.94122 0.40408 0.00314 0.0
C412 C 0.95035 0.40267 0.93815 0.0
C413 C 0.93832 0.44993 0.93303 0.0
C414 C 0.93462 0.39764 0.91194 0.0
C415 C 0.9392 0.38252 0.88488 0.0
C416 C 0.95971 0.37236 0.8832 0.0
C417 C 0.97595 0.37822 0.90812 0.0
C418 C 0.97119 0.39313 0.93582 0.0
H419 H 0.93768 0.46774 0.9386 0.0
H420 H 0.95407 0.44598 0.91966 0.0
H421 H 0.9249 0.44597 0.914 0.0
H422 H 0.91832 0.40446 0.91365 0.0
H423 H 0.92641 0.37809 0.86604 0.0
H424 H 0.05957 0.84674 0.56567 0.0
H425 H 0.06775 0.87622 0.52442 0.0
H426 H 0.04507 0.9232 0.60288 0.0
H427 H 0.03768 0.89337 0.64566 0.0
H428 H 0.04513 0.90756 0.49217 0.0
H429 H 0.1057 0.94509 0.5859 0.0
H430 H 0.09335 0.91907 0.59561 0.0
H431 H 0.07778 0.94378 0.60054 0.0
C432 C 0.05617 0.86329 0.57437 0.0
C433 C 0.04832 0.8677 0.60931 0.0
C434 C 0.06075 0.8802 0.55051 0.0
C435 C 0.05735 0.90201 0.56063 0.0
C436 C 0.04833 0.90654 0.59477 0.0
H437 H 0.11434 0.97187 0.37343 0.0
H438 H 0.0859 0.96664 0.41954 0.0
C439 C 0.04403 0.88949 0.61911 0.0
C440 C 0.0651 0.91939 0.53575 0.0
H441 H 0.10777 0.95456 0.52524 0.0
C442 C 0.05852 0.91828 0.49942 0.0
C443 C 0.08235 0.93358 0.54545 0.0
C444 C 0.09036 0.9355 0.5839 0.0
C445 C 0.07051 0.92861 0.47197 0.0
C446 C 0.08901 0.94119 0.48143 0.0
C447 C 0.09374 0.94466 0.51812 0.0
C448 C 0.10613 0.94675 0.45456 0.0
C449 C 0.06454 0.9241 0.4331 0.0
C450 C 0.12713 0.93807 0.45952 0.0
C451 C 0.14336 0.94139 0.43384 0.0
C452 C 0.13896 0.95325 0.40217 0.0
C453 C 0.11808 0.96238 0.39736 0.0
C454 C 0.10182 0.95936 0.4236 0.0
H455 H 0.05159 0.91151 0.43063 0.0
H456 H 0.05844 0.93934 0.42037 0.0
H457 H 0.07907 0.9185 0.41771 0.0
H458 H 0.13087 0.92818 0.48302 0.0
H459 H 0.15924 0.93411 0.43846 0.0
H460 H 0.55041 0.156 0.94179 0.0
H461 H 0.55971 0.1267 0.98329 0.0
H462 H 0.55723 0.08018 0.89594 0.0
H463 H 0.54837 0.10976 0.85355 0.0
H464 H 0.53995 0.08807 0.00342 0.0
H465 H 0.6193 0.0728 0.93367 0.0
H466 H 0.60271 0.09634 0.9234 0.0
H467 H 0.59479 0.06981 0.90749 0.0
C468 C 0.5517 0.13955 0.93123 0.0
C469 C 0.54902 0.13532 0.89415 0.0
C470 C 0.5569 0.12276 0.95513 0.0
C471 C 0.5595 0.1013 0.94266 0.0
C472 C 0.5557 0.0967 0.90601 0.0
H473 H 0.63121 0.01555 0.09452 0.0
H474 H 0.60462 0.02226 0.04565 0.0
C475 C 0.55053 0.11361 0.88188 0.0
C476 C 0.56775 0.08452 0.96818 0.0
H477 H 0.61467 0.05771 0.99104 0.0
C478 C 0.55605 0.08092 1.00031 0.0
C479 C 0.58873 0.0751 0.96405 0.0
C480 C 0.60226 0.07871 0.93046 0.0
C481 C 0.5655 0.06973 0.02948 0.0
C482 C 0.58711 0.06195 0.02636 0.0
C483 C 0.59804 0.06369 0.99317 0.0
C484 C 0.60018 0.05642 0.05867 0.0
C485 C 0.55288 0.06752 0.06427 0.0
C486 C 0.60623 0.07334 0.08209 0.0
C487 C 0.62156 0.06968 0.10919 0.0
C488 C 0.63088 0.04893 0.11376 0.0
C489 C 0.62399 0.03161 0.09166 0.0
C490 C 0.60892 0.03543 0.06382 0.0
H491 H 0.535 0.06848 0.05952 0.0
H492 H 0.55675 0.05184 0.07793 0.0
H493 H 0.5575 0.08104 0.0827 0.0
H494 H 0.59993 0.08972 0.07818 0.0
H495 H 0.62669 0.08327 0.1259 0.0
H496 H 0.51281 0.37631 0.4026 0.0
H497 H 0.52018 0.40357 0.45014 0.0
H498 H 0.58778 0.40564 0.41754 0.0
H499 H 0.58064 0.37841 0.37107 0.0
H500 H 0.55264 0.39391 0.50547 0.0
H501 H 0.57156 0.47078 0.43395 0.0
H502 H 0.5546 0.44964 0.41457 0.0
H503 H 0.5839 0.44748 0.4127 0.0
C504 C 0.52906 0.38311 0.40514 0.0
C505 C 0.54621 0.37532 0.38344 0.0
C506 C 0.53324 0.39859 0.43219 0.0
C507 C 0.55445 0.40681 0.43696 0.0
C508 C 0.57122 0.39984 0.41386 0.0
H509 H 0.65673 0.44698 0.55517 0.0
H510 H 0.62709 0.43987 0.51317 0.0
C511 C 0.56717 0.38417 0.38752 0.0
C512 C 0.56039 0.42006 0.46885 0.0
H513 H 0.59106 0.46457 0.49043 0.0
C514 C 0.56036 0.40976 0.50271 0.0
C515 C 0.57038 0.4407 0.465 0.0
C516 C 0.56994 0.4529 0.42962 0.0
C517 C 0.57225 0.41838 0.53181 0.0
C518 C 0.58404 0.43803 0.52688 0.0
C519 C 0.58215 0.44943 0.49408 0.0
C520 C 0.60137 0.44475 0.55247 0.0
C521 C 0.57381 0.40534 0.56636 0.0
C522 C 0.59674 0.45033 0.58846 0.0
C523 C 0.61379 0.45425 0.61285 0.0
C524 C 0.63568 0.45272 0.6015 0.0
C525 C 0.64011 0.44809 0.56501 0.0
C526 C 0.62315 0.44414 0.54084 0.0
H527 H 0.56575 0.38916 0.56411 0.0
H528 H 0.59117 0.40276 0.57389 0.0
H529 H 0.56582 0.41451 0.58858 0.0
H530 H 0.58002 0.45123 0.59784 0.0
H531 H 0.60982 0.458 0.64068 0.0
H532 H 0.111 0.54556 0.86267 0.0
H533 H 0.08152 0.55288 0.906 0.0
H534 H 0.1292 0.56273 0.99015 0.0
H535 H 0.15845 0.55495 0.94778 0.0
H536 H 0.09332 0.53966 0.01405 0.0
H537 H 0.06825 0.61483 0.93939 0.0
H538 H 0.06733 0.58931 0.91549 0.0
H539 H 0.09318 0.60052 0.92877 0.0
C540 C 0.11515 0.54907 0.8905 0.0
C541 C 0.13712 0.54999 0.90159 0.0
C542 C 0.09829 0.55334 0.91517 0.0
C543 C 0.10319 0.5587 0.95116 0.0
C544 C 0.12502 0.55865 0.96251 0.0
H545 H 0.08501 0.62888 0.12937 0.0
H546 H 0.09186 0.60139 0.08305 0.0
C547 C 0.14178 0.55432 0.9381 0.0
C548 C 0.08616 0.5659 0.97706 0.0
H549 H 0.05552 0.61068 0.99839 0.0
C550 C 0.08454 0.55488 0.01027 0.0
C551 C 0.07457 0.5857 0.97203 0.0
C552 C 0.07589 0.59842 0.93714 0.0
C553 C 0.07329 0.56411 0.03954 0.0
C554 C 0.06344 0.58481 0.03542 0.0
C555 C 0.06312 0.59477 0.0013 0.0
C556 C 0.05801 0.59843 0.06713 0.0
C557 C 0.07333 0.55245 0.07542 0.0
C558 C 0.03661 0.60564 0.0738 0.0
C559 C 0.0326 0.62119 0.10084 0.0
C560 C 0.05007 0.63007 0.12055 0.0
C561 C 0.0713 0.62228 0.11446 0.0
C562 C 0.0752 0.60651 0.08819 0.0
H563 H 0.07558 0.53457 0.07193 0.0
H564 H 0.08704 0.55866 0.09207 0.0
H565 H 0.05788 0.55547 0.09035 0.0
H566 H 0.02321 0.59976 0.05742 0.0
H567 H 0.01613 0.62716 0.10493 0.0
H568 H 0.96803 0.11108 0.35872 0.0
H569 H 0.9611 0.08194 0.403 0.0
H570 H 0.93391 0.12946 0.47648 0.0
H571 H 0.94156 0.15834 0.43374 0.0
H572 H 0.958 0.10047 0.51216 0.0
H573 H 0.9015 0.05683 0.41876 0.0
H574 H 0.92952 0.05953 0.40516 0.0
H575 H 0.91238 0.08333 0.40775 0.0
C576 C 0.96073 0.11523 0.38448 0.0
C577 C 0.95511 0.13699 0.3925 0.0
C578 C 0.95672 0.09858 0.40968 0.0
C579 C 0.94666 0.10344 0.44288 0.0
C580 C 0.94176 0.12525 0.45117 0.0
H581 H 0.84527 0.06819 0.56351 0.0
H582 H 0.87384 0.07461 0.51954 0.0
C583 C 0.94604 0.1418 0.42647 0.0
C584 C 0.93955 0.08628 0.46868 0.0
H585 H 0.89914 0.04862 0.47993 0.0
C586 C 0.94547 0.08871 0.50514 0.0
C587 C 0.92344 0.07075 0.45929 0.0
C588 C 0.91618 0.06741 0.42071 0.0
C589 C 0.93379 0.07824 0.5328 0.0
C590 C 0.91633 0.06422 0.52351 0.0
C591 C 0.91238 0.05959 0.48691 0.0
C592 C 0.89919 0.05822 0.55008 0.0
C593 C 0.93885 0.08403 0.57155 0.0
C594 C 0.90379 0.04663 0.582 0.0
C595 C 0.88739 0.04331 0.6079 0.0
C596 C 0.8661 0.05115 0.60181 0.0
C597 C 0.86146 0.06193 0.56918 0.0
C598 C 0.87781 0.06553 0.54382 0.0
H599 H 0.95097 0.09745 0.57368 0.0
H600 H 0.92377 0.08909 0.58596 0.0
H601 H 0.94565 0.06952 0.58555 0.0
H602 H 0.92005 0.04041 0.58709 0.0
H603 H 0.89134 0.03467 0.63259 0.0
H604 H 0.38633 0.93477 0.8666 0.0
H605 H 0.41249 0.92519 0.9142 0.0
H606 H 0.37917 0.96843 0.98802 0.0
H607 H 0.3522 0.97685 0.94118 0.0
H608 H 0.4412 0.94397 0.95823 0.0
H609 H 0.37205 0.91204 0.03981 0.0
H610 H 0.36862 0.92125 0.99397 0.0
H611 H 0.36987 0.94067 0.03046 0.0
C612 C 0.38487 0.94247 0.89285 0.0
C613 C 0.36718 0.95627 0.90058 0.0
C614 C 0.3998 0.93702 0.92002 0.0
C615 C 0.3974 0.94559 0.95505 0.0
C616 C 0.38089 0.96101 0.96163 0.0
H617 H 0.46026 0.8975 0.15329 0.0
H618 H 0.44828 0.92481 0.10854 0.0
C619 C 0.36562 0.96595 0.93484 0.0
C620 C 0.41082 0.93681 0.9852 0.0
H621 H 0.4069 0.90955 0.06553 0.0
C622 C 0.43369 0.93664 0.98186 0.0
C623 C 0.40103 0.92702 0.01596 0.0
C624 C 0.37657 0.92502 0.02019 0.0
C625 C 0.44694 0.92652 0.00801 0.0
C626 C 0.43706 0.91666 0.03833 0.0
C627 C 0.41436 0.91754 0.04243 0.0
C628 C 0.4493 0.90242 0.06337 0.0
C629 C 0.47132 0.9258 0.00274 0.0
C630 C 0.45417 0.88105 0.05249 0.0
C631 C 0.4605 0.86548 0.07793 0.0
C632 C 0.46245 0.87117 0.1145 0.0
C633 C 0.45918 0.89293 0.12508 0.0
C634 C 0.45235 0.90846 0.09963 0.0
H635 H 0.47682 0.93737 0.98147 0.0
H636 H 0.47981 0.92968 0.02845 0.0
H637 H 0.47621 0.90904 0.99465 0.0
H638 H 0.45153 0.87602 0.02476 0.0
H639 H 0.46278 0.84871 0.06936 0.0
H640 H 0.32425 0.46203 0.38854 0.0
H641 H 0.34404 0.42762 0.40031 0.0
H642 H 0.37393 0.43176 0.29503 0.0
H643 H 0.35453 0.46568 0.28321 0.0
H644 H 0.35689 0.38848 0.31607 0.0
H645 H 0.41247 0.42647 0.41745 0.0
H646 H 0.38336 0.42966 0.42226 0.0
H647 H 0.39727 0.44298 0.38578 0.0
C648 C 0.33482 0.45538 0.36781 0.0
C649 C 0.33791 0.46667 0.33504 0.0
C650 C 0.3462 0.43583 0.37463 0.0
C651 C 0.3606 0.42725 0.34863 0.0
C652 C 0.36294 0.43808 0.3155 0.0
H653 H 0.46141 0.35134 0.27803 0.0
H654 H 0.4277 0.37088 0.29063 0.0
C655 C 0.35185 0.45755 0.30884 0.0
C656 C 0.37423 0.40759 0.35551 0.0
H657 H 0.42286 0.39259 0.39343 0.0
C658 C 0.371 0.38911 0.33375 0.0
C659 C 0.39259 0.40835 0.37867 0.0
C660 C 0.39684 0.42789 0.40242 0.0
C661 C 0.38638 0.37208 0.33272 0.0
C662 C 0.40569 0.37374 0.35348 0.0
C663 C 0.40807 0.39134 0.37748 0.0
C664 C 0.42501 0.35971 0.34593 0.0
C665 C 0.38231 0.35292 0.30806 0.0
C666 C 0.43489 0.34686 0.37291 0.0
C667 C 0.45434 0.33542 0.36564 0.0
C668 C 0.46438 0.33712 0.33154 0.0
C669 C 0.45414 0.34967 0.30459 0.0
C670 C 0.43473 0.36077 0.31167 0.0
H671 H 0.36454 0.35013 0.30422 0.0
H672 H 0.38952 0.35639 0.28115 0.0
H673 H 0.38986 0.33776 0.31883 0.0
H674 H 0.42777 0.34601 0.39967 0.0
H675 H 0.46198 0.32606 0.38703 0.0
H676 H 0.03848 0.35713 0.77404 0.0
H677 H 0.07248 0.3763 0.78405 0.0
H678 H 0.08408 0.33823 0.88023 0.0
H679 H 0.0493 0.31884 0.87057 0.0
H680 H 0.08947 0.38181 0.89216 0.0
H681 H 0.13548 0.36003 0.76968 0.0
H682 H 0.10869 0.36908 0.75728 0.0
H683 H 0.11185 0.34476 0.78433 0.0
C684 C 0.04829 0.35251 0.79717 0.0
C685 C 0.04107 0.3364 0.82156 0.0
C686 C 0.06795 0.36339 0.80262 0.0
C687 C 0.08116 0.35845 0.83245 0.0
C688 C 0.07429 0.34213 0.85673 0.0
H689 H 0.1937 0.4489 0.82755 0.0
H690 H 0.17504 0.41363 0.83527 0.0
C691 C 0.05446 0.33104 0.85116 0.0
C692 C 0.10079 0.37213 0.83941 0.0
H693 H 0.14304 0.39642 0.7945 0.0
C694 C 0.10156 0.38457 0.87123 0.0
C695 C 0.11698 0.37549 0.81262 0.0
C696 C 0.11834 0.36141 0.77928 0.0
C697 C 0.11668 0.40164 0.87533 0.0
C698 C 0.13107 0.40674 0.84654 0.0
C699 C 0.13175 0.3929 0.81633 0.0
C700 C 0.14319 0.42781 0.84504 0.0
C701 C 0.11652 0.41455 0.91003 0.0
C702 C 0.13154 0.44747 0.84764 0.0
C703 C 0.14206 0.46747 0.84327 0.0
C704 C 0.16457 0.46846 0.83569 0.0
C705 C 0.17638 0.44876 0.83344 0.0
C706 C 0.16574 0.4286 0.83786 0.0
H707 H 0.11166 0.40409 0.93321 0.0
H708 H 0.13276 0.42179 0.91581 0.0
H709 H 0.10435 0.42792 0.90787 0.0
H710 H 0.11405 0.44739 0.85203 0.0
H711 H 0.13233 0.48221 0.8452 0.0
H712 H 0.13758 0.02266 0.36052 0.0
H713 H 0.11825 0.05737 0.36223 0.0
H714 H 0.17254 0.08889 0.3095 0.0
H715 H 0.19212 0.05376 0.30728 0.0
H716 H 0.12849 0.0985 0.39175 0.0
H717 H 0.12045 0.10168 0.24176 0.0
H718 H 0.12889 0.07716 0.265 0.0
H719 H 0.1475 0.09959 0.26037 0.0
C720 C 0.14559 0.03698 0.34955 0.0
C721 C 0.16634 0.03536 0.3334 0.0
C722 C 0.1345 0.05687 0.35066 0.0
C723 C 0.14375 0.0757 0.33551 0.0
C724 C 0.16493 0.07449 0.32086 0.0
H725 H 0.05617 0.18927 0.29802 0.0
H726 H 0.09112 0.16959 0.30414 0.0
C727 C 0.17618 0.05446 0.31989 0.0
C728 C 0.13035 0.09598 0.33379 0.0
H729 H 0.09969 0.12655 0.27537 0.0
C730 C 0.12256 0.10494 0.36626 0.0
C731 C 0.12263 0.10448 0.30055 0.0
C732 C 0.13013 0.09525 0.26483 0.0
C733 C 0.10642 0.12128 0.36642 0.0
C734 C 0.0976 0.12866 0.33327 0.0
C735 C 0.10647 0.12085 0.30075 0.0
C736 C 0.07717 0.1418 0.33191 0.0
C737 C 0.09834 0.1299 0.40218 0.0
C738 C 0.0578 0.13273 0.34541 0.0
C739 C 0.03799 0.14374 0.3417 0.0
C740 C 0.03696 0.16419 0.32441 0.0
C741 C 0.05645 0.17362 0.31168 0.0
C742 C 0.07639 0.16238 0.31506 0.0
H743 H 0.11101 0.12828 0.42349 0.0
H744 H 0.09344 0.14732 0.40003 0.0
H745 H 0.08389 0.1203 0.41081 0.0
H746 H 0.0579 0.11672 0.35793 0.0
H747 H 0.02333 0.13599 0.35192 0.0
H748 H 0.36644 0.02299 0.85901 0.0
H749 H 0.38548 0.05773 0.86258 0.0
H750 H 0.33167 0.08973 0.80921 0.0
H751 H 0.31228 0.05456 0.80538 0.0
H752 H 0.37304 0.09832 0.77799 0.0
H753 H 0.37605 0.11172 0.92537 0.0
H754 H 0.3842 0.08447 0.91382 0.0
H755 H 0.35672 0.09335 0.90456 0.0
C756 C 0.35843 0.03743 0.84843 0.0
C757 C 0.33784 0.03598 0.83181 0.0
C758 C 0.3693 0.05736 0.85078 0.0
C759 C 0.3599 0.07642 0.83665 0.0
C760 C 0.33912 0.07524 0.82062 0.0
H761 H 0.44775 0.1909 0.80573 0.0
H762 H 0.41258 0.1716 0.81038 0.0
C763 C 0.32805 0.05518 0.81856 0.0
C764 C 0.37299 0.09685 0.8361 0.0
H765 H 0.40563 0.12781 0.89048 0.0
C766 C 0.37968 0.10528 0.80257 0.0
C767 C 0.38159 0.10596 0.86819 0.0
C768 C 0.37408 0.09854 0.90502 0.0
C769 C 0.39617 0.12121 0.80027 0.0
C770 C 0.40602 0.129 0.83234 0.0
C771 C 0.39814 0.12176 0.8659 0.0
C772 C 0.42661 0.14177 0.83152 0.0
C773 C 0.40414 0.12839 0.76356 0.0
C774 C 0.44597 0.13159 0.84264 0.0
C775 C 0.4659 0.14244 0.83995 0.0
C776 C 0.46699 0.16387 0.82628 0.0
C777 C 0.44746 0.17441 0.81633 0.0
C778 C 0.4274 0.16339 0.81879 0.0
H779 H 0.39589 0.11951 0.74125 0.0
H780 H 0.40105 0.14612 0.76011 0.0
H781 H 0.42202 0.1257 0.76131 0.0
H782 H 0.44574 0.11495 0.85261 0.0
H783 H 0.48055 0.13386 0.8482 0.0
H784 H 0.97451 0.63798 0.21586 0.0
H785 H 0.94033 0.61908 0.20618 0.0
H786 H 0.92104 0.66764 0.128 0.0
H787 H 0.95592 0.68688 0.13724 0.0
H788 H 0.89757 0.63342 0.21569 0.0
H789 H 0.91404 0.60952 0.07294 0.0
H790 H 0.93532 0.61979 0.102 0.0
H791 H 0.91506 0.63807 0.08432 0.0
C792 C 0.96311 0.64485 0.19657 0.0
C793 C 0.9681 0.66403 0.17725 0.0
C794 C 0.94344 0.63397 0.19118 0.0
C795 C 0.92811 0.64183 0.16628 0.0
C796 C 0.93274 0.66113 0.1471 0.0
H797 H 0.81165 0.55516 0.17664 0.0
H798 H 0.83079 0.59028 0.17036 0.0
C799 C 0.95263 0.67215 0.15251 0.0
C800 C 0.90779 0.62899 0.16056 0.0
H801 H 0.88483 0.59243 0.10224 0.0
C802 C 0.89439 0.62482 0.19062 0.0
C803 C 0.90373 0.61777 0.12785 0.0
C804 C 0.91778 0.62132 0.09487 0.0
C805 C 0.87821 0.60857 0.18978 0.0
C806 C 0.87501 0.59642 0.15768 0.0
C807 C 0.88727 0.60177 0.12679 0.0
C808 C 0.86212 0.57581 0.15751 0.0
C809 C 0.86595 0.60334 0.22411 0.0
C810 C 0.87308 0.55609 0.15099 0.0
C811 C 0.86224 0.5362 0.15429 0.0
C812 C 0.84007 0.53538 0.16425 0.0
C813 C 0.82874 0.55518 0.1692 0.0
C814 C 0.8397 0.57526 0.16582 0.0
H815 H 0.87263 0.61218 0.24785 0.0
H816 H 0.84858 0.6081 0.22091 0.0
H817 H 0.86656 0.58554 0.22978 0.0
H818 H 0.89033 0.55603 0.14451 0.0
H819 H 0.8715 0.52136 0.14978 0.0
H820 H 0.98133 0.86868 0.65395 0.0
H821 H 0.9468 0.88806 0.64913 0.0
H822 H 0.91301 0.8326 0.69405 0.0
H823 H 0.94797 0.81284 0.69926 0.0
H824 H 0.90701 0.8767 0.61255 0.0
H825 H 0.89674 0.88479 0.76171 0.0
H826 H 0.92263 0.87739 0.74181 0.0
H827 H 0.90077 0.85795 0.74297 0.0
C828 C 0.96659 0.86044 0.66271 0.0
C829 C 0.96747 0.83925 0.67738 0.0
C830 C 0.94681 0.87157 0.65976 0.0
C831 C 0.92735 0.86192 0.67159 0.0
C832 C 0.9279 0.84045 0.68515 0.0
H833 H 0.81351 0.95034 0.69616 0.0
H834 H 0.83294 0.91517 0.69238 0.0
C835 C 0.94784 0.82914 0.6879 0.0
C836 C 0.90698 0.87513 0.67067 0.0
H837 H 0.87416 0.90622 0.72491 0.0
C838 C 0.89947 0.88277 0.6371 0.0
C839 C 0.89707 0.883 0.7027 0.0
C840 C 0.90466 0.87552 0.73946 0.0
C841 C 0.88327 0.89896 0.63478 0.0
C842 C 0.87457 0.90804 0.66685 0.0
C843 C 0.88088 0.89928 0.70035 0.0
C844 C 0.86159 0.92859 0.66638 0.0
C845 C 0.8762 0.90681 0.59795 0.0
C846 C 0.87122 0.94774 0.65302 0.0
C847 C 0.86031 0.9677 0.65535 0.0
C848 C 0.83945 0.96908 0.67113 0.0
C849 C 0.82948 0.94979 0.68361 0.0
C850 C 0.84058 0.92973 0.68159 0.0
H851 H 0.87836 0.89385 0.57725 0.0
H852 H 0.85885 0.91209 0.59808 0.0
H853 H 0.88644 0.92094 0.58989 0.0
H854 H 0.88756 0.94739 0.64182 0.0
H855 H 0.86848 0.98219 0.64541 0.0
H856 H 0.54121 0.85604 0.22535 0.0
H857 H 0.57459 0.87609 0.21286 0.0
H858 H 0.58107 0.84299 0.11063 0.0
H859 H 0.54719 0.82256 0.12304 0.0
H860 H 0.61839 0.85997 0.19555 0.0
H861 H 0.58065 0.91041 0.08659 0.0
H862 H 0.56406 0.89569 0.11875 0.0
H863 H 0.57865 0.88109 0.08438 0.0
C864 C 0.54973 0.85281 0.20025 0.0
C865 C 0.54142 0.83776 0.17507 0.0
C866 C 0.56889 0.86428 0.19322 0.0
C867 C 0.58022 0.86121 0.16073 0.0
C868 C 0.57245 0.84574 0.13579 0.0
H869 H 0.68035 0.96285 0.11709 0.0
H870 H 0.66105 0.92802 0.107 0.0
C871 C 0.5532 0.83399 0.14299 0.0
C872 C 0.59956 0.87514 0.15332 0.0
H873 H 0.61382 0.92261 0.11083 0.0
C874 C 0.61769 0.87333 0.17632 0.0
C875 C 0.59868 0.89253 0.12813 0.0
C876 C 0.5795 0.89526 0.103 0.0
C877 C 0.63419 0.88923 0.17652 0.0
C878 C 0.63235 0.90762 0.15355 0.0
C879 C 0.61519 0.90852 0.12845 0.0
C880 C 0.64565 0.92756 0.15964 0.0
C881 C 0.65291 0.88679 0.20265 0.0
C882 C 0.64333 0.93881 0.19239 0.0
C883 C 0.65404 0.95858 0.19801 0.0
C884 C 0.66746 0.96766 0.17106 0.0
C885 C 0.67027 0.95616 0.13846 0.0
C886 C 0.65923 0.93634 0.13263 0.0
H887 H 0.65602 0.86934 0.2091 0.0
H888 H 0.6681 0.89412 0.19163 0.0
H889 H 0.64877 0.89527 0.22825 0.0
H890 H 0.63266 0.93259 0.21336 0.0
H891 H 0.65151 0.96694 0.22346 0.0
H892 H 0.55673 0.68912 0.70016 0.0
H893 H 0.59155 0.66932 0.69335 0.0
H894 H 0.5576 0.61607 0.6421 0.0
H895 H 0.52313 0.63548 0.64879 0.0
H896 H 0.60031 0.62663 0.7231 0.0
H897 H 0.61006 0.62677 0.57462 0.0
H898 H 0.59277 0.64608 0.59802 0.0
H899 H 0.58307 0.61897 0.58838 0.0
C900 C 0.55681 0.67336 0.68688 0.0
C901 C 0.53715 0.66386 0.67509 0.0
C902 C 0.57668 0.66206 0.68311 0.0
C903 C 0.57722 0.64133 0.6668 0.0
C904 C 0.55768 0.63218 0.65418 0.0
H905 H 0.63683 0.52178 0.64005 0.0
H906 H 0.61768 0.55656 0.63792 0.0
C907 C 0.53793 0.64327 0.65828 0.0
C908 C 0.5976 0.62812 0.66521 0.0
H909 H 0.62783 0.59728 0.60676 0.0
C910 C 0.6068 0.62065 0.69769 0.0
C911 C 0.60607 0.62037 0.63204 0.0
C912 C 0.59762 0.62863 0.59627 0.0
C913 C 0.62294 0.60425 0.69792 0.0
C914 C 0.63029 0.59537 0.66472 0.0
C915 C 0.62218 0.60402 0.63221 0.0
C916 C 0.64357 0.57501 0.66324 0.0
C917 C 0.6308 0.59539 0.73369 0.0
C918 C 0.6649 0.57383 0.67725 0.0
C919 C 0.67605 0.55374 0.67846 0.0
C920 C 0.66595 0.53457 0.66586 0.0
C921 C 0.64504 0.53615 0.65035 0.0
C922 C 0.63405 0.55608 0.64899 0.0
H923 H 0.62142 0.60212 0.75685 0.0
H924 H 0.62947 0.57731 0.73417 0.0
H925 H 0.64824 0.59968 0.73743 0.0
H926 H 0.67271 0.5883 0.68791 0.0
H927 H 0.69213 0.55308 0.69055 0.0
H928 H 0.23274 0.48705 0.9262 0.0
H929 H 0.24817 0.48048 0.98662 0.0
H930 H 0.23581 0.54761 0.01519 0.0
H931 H 0.22038 0.55428 0.95565 0.0
H932 H 0.28451 0.50331 0.01944 0.0
H933 H 0.20824 0.51239 0.09859 0.0
H934 H 0.20829 0.50727 0.05053 0.0
H935 H 0.21277 0.53442 0.06745 0.0
C936 C 0.23313 0.50032 0.94552 0.0
C937 C 0.22535 0.52119 0.93609 0.0
C938 C 0.242 0.49656 0.97991 0.0
C939 C 0.2429 0.51352 0.00541 0.0
C940 C 0.23497 0.53423 0.9961 0.0
H941 H 0.32057 0.54137 0.19284 0.0
H942 H 0.30583 0.53725 0.13172 0.0
C943 C 0.22626 0.53802 0.96191 0.0
C944 C 0.2527 0.51014 0.04154 0.0
H945 H 0.24171 0.51588 0.13139 0.0
C946 C 0.27514 0.50571 0.044 0.0
C947 C 0.24039 0.51311 0.07347 0.0
C948 C 0.21604 0.51685 0.0725 0.0
C949 C 0.28578 0.50513 0.07764 0.0
C950 C 0.27367 0.50939 0.10944 0.0
C951 C 0.25105 0.51286 0.10698 0.0
C952 C 0.28401 0.51074 0.1456 0.0
C953 C 0.30986 0.50003 0.07879 0.0
C954 C 0.27648 0.4974 0.17378 0.0
C955 C 0.28467 0.49987 0.20871 0.0
C956 C 0.30059 0.51578 0.21629 0.0
C957 C 0.30845 0.52886 0.18788 0.0
C958 C 0.30014 0.52643 0.15287 0.0
H959 H 0.3152 0.49101 0.05428 0.0
H960 H 0.31918 0.51554 0.07994 0.0
H961 H 0.31406 0.4902 0.10303 0.0
H962 H 0.26397 0.48527 0.16882 0.0
H963 H 0.27825 0.48949 0.22988 0.0
H964 H 1.00116 0.26782 0.71843 0.0
H965 H 0.00383 0.25553 0.656 0.0
H966 H 0.98229 0.31883 0.61902 0.0
H967 H 0.97866 0.33096 0.68184 0.0
H968 H 0.96146 0.28899 0.58454 0.0
H969 H 0.04838 0.26572 0.58016 0.0
H970 H 0.03493 0.25164 0.61627 0.0
H971 H 0.03693 0.28102 0.61728 0.0
C972 C 0.99724 0.27924 0.69701 0.0
C973 C 0.98983 0.30042 0.70506 0.0
C974 C 0.99897 0.27223 0.66123 0.0
C975 C 0.99386 0.2864 0.63261 0.0
C976 C 0.98655 0.30764 0.64059 0.0
H977 H 0.01421 0.24286 0.40768 0.0
H978 H 0.01893 0.26154 0.46598 0.0
C979 C 0.98444 0.31456 0.67648 0.0
C980 C 0.99446 0.2784 0.59466 0.0
H981 H 0.02525 0.24906 0.53478 0.0
C982 C 0.97556 0.28057 0.57354 0.0
C983 C 0.01298 0.26779 0.57976 0.0
C984 C 0.0345 0.26664 0.59947 0.0
C985 C 0.97427 0.27153 0.5388 0.0
C986 C 0.99208 0.25923 0.52524 0.0
C987 C 0.01141 0.25804 0.54548 0.0
C988 C 0.99049 0.24684 0.49084 0.0
C989 C 0.95377 0.27531 0.51703 0.0
C990 C 0.97356 0.23171 0.48602 0.0
C991 C 0.97071 0.22134 0.45285 0.0
C992 C 0.98507 0.22542 0.42402 0.0
C993 C 0.00292 0.23943 0.42949 0.0
C994 C 0.00556 0.25015 0.46269 0.0
H995 H 0.94547 0.29067 0.52526 0.0
H996 H 0.95733 0.27617 0.48764 0.0
H997 H 0.94222 0.26167 0.5219 0.0
H998 H 0.96222 0.22826 0.50774 0.0
H999 H 0.95701 0.21034 0.44955 0.0
H1000 H 0.26402 0.01667 0.91731 0.0
H1001 H 0.24452 0.0234 0.97429 0.0
H1002 H 0.26614 0.96093 0.0147 0.0
H1003 H 0.28515 0.95396 0.95808 0.0
H1004 H 0.22206 0.96725 0.02379 0.0
H1005 H 0.26902 0.03892 0.07361 0.0
H1006 H 0.25726 0.04138 0.0293 0.0
H1007 H 0.2787 0.02192 0.03715 0.0
C1008 C 0.26482 0.00453 0.93856 0.0
C1009 C 0.27608 0.98476 0.93313 0.0
C1010 C 0.25368 0.00839 0.9711 0.0
C1011 C 0.2539 0.99267 0.99881 0.0
C1012 C 0.26561 0.97323 0.99364 0.0
H1013 H 0.23973 0.98745 0.22262 0.0
H1014 H 0.24905 0.99195 0.15938 0.0
C1015 C 0.27653 0.96931 0.96124 0.0
C1016 C 0.24168 0.99583 0.0331 0.0
H1017 H 0.24142 0.02526 0.11142 0.0
C1018 C 0.22605 0.98011 0.04282 0.0
C1019 C 0.24694 0.01262 0.0578 0.0
C1020 C 0.26399 0.02962 0.04924 0.0
C1021 C 0.21638 0.98001 0.07724 0.0
C1022 C 0.22216 0.99639 0.1024 0.0
C1023 C 0.23694 0.01279 0.092 0.0
C1024 C 0.21567 0.99499 0.14103 0.0
C1025 C 0.20116 0.96158 0.08713 0.0
C1026 C 0.19368 0.99539 0.15201 0.0
C1027 C 0.18817 0.99261 0.18858 0.0
C1028 C 0.2046 0.98958 0.21469 0.0
C1029 C 0.22657 0.98973 0.20345 0.0
C1030 C 0.23199 0.99239 0.16717 0.0
H1031 H 0.20137 0.94828 0.06673 0.0
H1032 H 0.2056 0.95456 0.11381 0.0
H1033 H 0.18423 0.96794 0.08901 0.0
H1034 H 0.18081 0.9977 0.13234 0.0
H1035 H 0.17112 0.99271 0.19631 0.0
H1036 H 0.5591 0.29472 0.44943 0.0
H1037 H 0.55598 0.27713 0.50843 0.0
H1038 H 0.49142 0.2545 0.48076 0.0
H1039 H 0.49497 0.27112 0.42088 0.0
H1040 H 0.53099 0.28278 0.56281 0.0
H1041 H 0.5167 0.19857 0.51454 0.0
H1042 H 0.52442 0.22038 0.48443 0.0
H1043 H 0.49634 0.21705 0.49793 0.0
C1044 C 0.54422 0.28601 0.45592 0.0
C1045 C 0.52733 0.28418 0.4304 0.0
C1046 C 0.54246 0.2759 0.48967 0.0
C1047 C 0.52367 0.26397 0.4989 0.0
C1048 C 0.50642 0.26288 0.47394 0.0
H1049 H 0.49373 0.23479 0.72324 0.0
H1050 H 0.49415 0.24877 0.66143 0.0
C1051 C 0.50836 0.27261 0.43984 0.0
C1052 C 0.52205 0.25323 0.53497 0.0
H1053 H 0.5103 0.20499 0.57733 0.0
C1054 C 0.52659 0.26573 0.56587 0.0
C1055 C 0.51675 0.23084 0.53917 0.0
C1056 C 0.51352 0.21588 0.50722 0.0
C1057 C 0.52572 0.25663 0.60067 0.0
C1058 C 0.51914 0.2346 0.605 0.0
C1059 C 0.51496 0.22197 0.57412 0.0
C1060 C 0.51676 0.22442 0.64134 0.0
C1061 C 0.53251 0.27067 0.63226 0.0
C1062 C 0.52801 0.20508 0.6501 0.0
C1063 C 0.5272 0.19662 0.6853 0.0
C1064 C 0.51534 0.20753 0.71231 0.0
C1065 C 0.50323 0.22621 0.70302 0.0
C1066 C 0.50365 0.23434 0.66778 0.0
H1067 H 0.54368 0.28398 0.62364 0.0
H1068 H 0.51783 0.2784 0.6443 0.0
H1069 H 0.54084 0.26088 0.65344 0.0
H1070 H 0.53807 0.19698 0.63009 0.0
H1071 H 0.53676 0.18225 0.69182 0.0
H1072 H 0.7671 0.50709 0.26918 0.0
H1073 H 0.75434 0.50973 0.33138 0.0
H1074 H 0.81295 0.47758 0.36826 0.0
H1075 H 0.8262 0.4755 0.30572 0.0
H1076 H 0.74458 0.47611 0.37242 0.0
H1077 H 0.80734 0.52544 0.44255 0.0
H1078 H 0.80567 0.52385 0.39391 0.0
H1079 H 0.81856 0.50232 0.41924 0.0
C1080 C 0.7775 0.50092 0.29056 0.0
C1081 C 0.79765 0.49102 0.28251 0.0
C1082 C 0.77016 0.50246 0.32616 0.0
C1083 C 0.78268 0.49398 0.35466 0.0
C1084 C 0.80317 0.48468 0.34689 0.0
H1085 H 0.72982 0.44423 0.55327 0.0
H1086 H 0.74579 0.45053 0.49401 0.0
C1087 C 0.8107 0.4834 0.31112 0.0
C1088 C 0.77314 0.49302 0.39165 0.0
H1089 H 0.78201 0.50619 0.48023 0.0
C1090 C 0.75274 0.48288 0.39589 0.0
C1091 C 0.78358 0.50205 0.42231 0.0
C1092 C 0.80489 0.51423 0.41932 0.0
C1093 C 0.74272 0.4811 0.42984 0.0
C1094 C 0.75362 0.48918 0.46075 0.0
C1095 C 0.77376 0.49984 0.45655 0.0
C1096 C 0.74468 0.48576 0.49765 0.0
C1097 C 0.72045 0.47066 0.43222 0.0
C1098 C 0.7393 0.50351 0.52001 0.0
C1099 C 0.73021 0.49997 0.55435 0.0
C1100 C 0.72646 0.47859 0.5669 0.0
C1101 C 0.73225 0.46093 0.54451 0.0
C1102 C 0.74135 0.46448 0.51045 0.0
H1103 H 0.7117 0.47146 0.40595 0.0
H1104 H 0.72234 0.45318 0.43953 0.0
H1105 H 0.71022 0.47867 0.45317 0.0
H1106 H 0.74184 0.52009 0.51068 0.0
H1107 H 0.72604 0.51393 0.57093 0.0
H1108 H 0.02398 0.82736 0.81518 0.0
H1109 H 0.02332 0.81477 0.87829 0.0
H1110 H 0.00711 0.7498 0.84254 0.0
H1111 H 0.00747 0.76209 0.78007 0.0
H1112 H 0.98259 0.76368 0.90237 0.0
H1113 H 0.07183 0.77582 0.9221 0.0
H1114 H 0.05657 0.79929 0.90734 0.0
H1115 H 0.0593 0.77613 0.87797 0.0
C1116 C 0.02004 0.81046 0.82084 0.0
C1117 C 0.01591 0.79574 0.7925 0.0
C1118 C 0.01982 0.80327 0.85686 0.0
C1119 C 0.01545 0.78127 0.86502 0.0
C1120 C 0.01058 0.76681 0.83687 0.0
H1121 H 0.04827 0.6998 0.04682 0.0
H1122 H 0.04373 0.71731 0.98785 0.0
C1123 C 0.01086 0.77391 0.80109 0.0
C1124 C 0.01651 0.7728 0.90256 0.0
H1125 H 0.05207 0.76123 0.97104 0.0
C1126 C 0.99772 0.76331 0.91758 0.0
C1127 C 0.03637 0.77204 0.92203 0.0
C1128 C 0.05725 0.78119 0.90659 0.0
C1129 C 0.99829 0.75287 0.95139 0.0
C1130 C 0.01813 0.75215 0.97088 0.0
C1131 C 0.03687 0.76185 0.95605 0.0
C1132 C 0.01997 0.74097 0.00636 0.0
C1133 C 0.97783 0.74206 0.96539 0.0
C1134 C 0.00802 0.74837 0.03628 0.0
C1135 C 0.0105 0.73835 0.07 0.0
C1136 C 0.02513 0.7208 0.07457 0.0
C1137 C 0.03684 0.71322 0.04434 0.0
C1138 C 0.03433 0.72327 0.01062 0.0
H1139 H 0.9656 0.73956 0.94363 0.0
H1140 H 0.98165 0.72601 0.97789 0.0
H1141 H 0.97032 0.75259 0.98639 0.0
H1142 H 0.9971 0.76221 0.03376 0.0
H1143 H 1.00128 0.7447 0.09266 0.0
H1144 H 0.72884 0.99167 0.27539 0.0
H1145 H 0.74297 0.98784 0.33669 0.0
H1146 H 0.69823 0.03745 0.37367 0.0
H1147 H 0.68369 0.04119 0.31238 0.0
H1148 H 0.76333 0.01923 0.37553 0.0
H1149 H 0.69045 0.99019 0.45004 0.0
H1150 H 0.69213 0.9898 0.40132 0.0
H1151 H 0.68548 0.01469 0.42466 0.0
C1152 C 0.72175 1.0016 0.29659 0.0
C1153 C 0.70505 0.01672 0.2889 0.0
C1154 C 0.72988 0.99936 0.33166 0.0
C1155 C 0.72148 0.01212 0.3599 0.0
C1156 C 0.70462 0.02705 0.3525 0.0
H1157 H 0.7816 0.05656 0.55288 0.0
H1158 H 0.76654 0.05006 0.49308 0.0
C1159 C 0.69641 0.02927 0.31736 0.0
C1160 C 0.73154 0.01099 0.39638 0.0
H1161 H 0.72012 0.00361 0.48598 0.0
C1162 C 0.75392 0.01555 0.39961 0.0
C1163 C 0.71935 0.0059 0.42778 0.0
C1164 C 0.69557 0.99965 0.42584 0.0
C1165 C 0.76421 0.01605 0.43345 0.0
C1166 C 0.75176 0.01218 0.46499 0.0
C1167 C 0.7296 0.0067 0.46175 0.0
C1168 C 0.76109 0.01555 0.50152 0.0
C1169 C 0.78832 0.02097 0.43519 0.0
C1170 C 0.76273 0.99831 0.52646 0.0
C1171 C 0.77139 1.00197 0.56104 0.0
C1172 C 0.77825 0.02301 0.57125 0.0
C1173 C 0.77648 0.04015 0.54606 0.0
C1174 C 0.76797 0.03646 0.51169 0.0
H1175 H 0.79659 0.01726 0.40918 0.0
H1176 H 0.79062 0.0386 0.44093 0.0
H1177 H 0.79636 0.01148 0.45706 0.0
H1178 H 0.75738 0.98206 0.51912 0.0
H1179 H 0.77247 0.98845 0.57983 0.0
H1180 H 0.5141 0.7657 0.08834 0.0
H1181 H 0.51967 0.74952 0.02846 0.0
H1182 H 0.45844 0.77692 0.99276 0.0
H1183 H 0.45329 0.79387 0.05168 0.0
H1184 H 0.49758 0.72004 0.99234 0.0
H1185 H 0.49669 0.79615 0.91233 0.0
H1186 H 0.4981 0.79631 0.96097 0.0
H1187 H 0.47216 0.79366 0.93836 0.0
C1188 C 0.50198 0.76848 0.06753 0.0
C1189 C 0.48338 0.78127 0.07465 0.0
C1190 C 0.50514 0.75918 0.03337 0.0
C1191 C 0.4897 0.76234 0.00578 0.0
C1192 C 0.47096 0.77481 0.01311 0.0
H1193 H 0.469 0.68236 0.81513 0.0
H1194 H 0.47116 0.69625 0.87714 0.0
C1195 C 0.46798 0.78442 0.04696 0.0
C1196 C 0.49273 0.7521 0.96968 0.0
H1197 H 0.49069 0.76303 0.87937 0.0
C1198 C 0.49636 0.72947 0.96761 0.0
C1199 C 0.49156 0.76441 0.93735 0.0
C1200 C 0.48966 0.789 0.93736 0.0
C1201 C 0.4982 0.71875 0.93414 0.0
C1202 C 0.49557 0.73087 0.90182 0.0
C1203 C 0.4925 0.75359 0.90401 0.0
C1204 C 0.49581 0.72062 0.86532 0.0
C1205 C 0.5033 0.69464 0.93394 0.0
C1206 C 0.50871 0.72975 0.83778 0.0
C1207 C 0.50694 0.7223 0.80228 0.0
C1208 C 0.49259 0.70523 0.79363 0.0
C1209 C 0.48044 0.69532 0.82129 0.0
C1210 C 0.48178 0.70318 0.85678 0.0
H1211 H 0.51219 0.6897 0.95881 0.0
H1212 H 0.4878 0.68529 0.93316 0.0
H1213 H 0.5133 0.69002 0.91011 0.0
H1214 H 0.51969 0.74316 0.84354 0.0
H1215 H 0.5165 0.73019 0.78138 0.0
H1216 H 0.74131 0.48437 0.77408 0.0
H1217 H 0.75171 0.48795 0.83706 0.0
H1218 H 0.68424 0.49714 0.86683 0.0
H1219 H 0.67346 0.49306 0.80325 0.0
H1220 H 0.74675 0.52112 0.88538 0.0
H1221 H 0.70271 0.44671 0.9316 0.0
H1222 H 0.70656 0.45294 0.88439 0.0
H1223 H 0.68626 0.46729 0.91018 0.0
C1224 C 0.72856 0.48723 0.79383 0.0
C1225 C 0.70647 0.48832 0.78348 0.0
C1226 C 0.73461 0.48933 0.82994 0.0
C1227 C 0.71878 0.4926 0.85676 0.0
C1228 C 0.69671 0.49425 0.84664 0.0
H1229 H 0.76786 0.51513 0.07895 0.0
H1230 H 0.74922 0.52132 0.02116 0.0
C1231 C 0.69058 0.49202 0.81029 0.0
C1232 C 0.7258 0.49354 0.89516 0.0
H1233 H 0.72393 0.46515 0.97454 0.0
C1234 C 0.74158 0.50906 0.90508 0.0
C1235 C 0.71914 0.47767 0.92068 0.0
C1236 C 0.70287 0.46008 0.91128 0.0
C1237 C 0.75155 0.5086 0.93927 0.0
C1238 C 0.7452 0.49245 0.96452 0.0
C1239 C 0.72875 0.47753 0.95513 0.0
C1240 C 0.75673 0.48935 0.99947 0.0
C1241 C 0.7696 0.52463 0.94728 0.0
C1242 C 0.76697 0.46931 0.00664 0.0
C1243 C 0.77737 0.46567 0.03962 0.0
C1244 C 0.77786 0.48202 0.06626 0.0
C1245 C 0.76794 0.50227 0.05887 0.0
C1246 C 0.75732 0.50585 0.02583 0.0
H1247 H 0.77567 0.53278 0.9224 0.0
H1248 H 0.76334 0.53745 0.96577 0.0
H1249 H 0.78354 0.51637 0.96075 0.0
H1250 H 0.76683 0.45637 0.98668 0.0
H1251 H 0.78492 0.44991 0.04432 0.0
H1252 H 0.0426 0.68563 0.31807 0.0
H1253 H 0.03767 0.70017 0.37918 0.0
H1254 H 0.98237 0.73787 0.34274 0.0
H1255 H 0.9874 0.72383 0.2817 0.0
H1256 H 0.01105 0.76256 0.37918 0.0
H1257 H 0.99317 0.68775 0.45795 0.0
H1258 H 0.0178 0.68555 0.43189 0.0
H1259 H 0.99198 0.68848 0.4092 0.0
C1260 C 0.0292 0.69677 0.3232 0.0
C1261 C 0.01543 0.70358 0.29496 0.0
C1262 C 0.02631 0.70496 0.3582 0.0
C1263 C 0.00945 0.71989 0.36565 0.0
C1264 C 0.99542 0.72631 0.33767 0.0
H1265 H 0.98568 0.76963 0.58637 0.0
H1266 H 0.9788 0.75396 0.52621 0.0
C1267 C 0.99836 0.71825 0.30273 0.0
C1268 C 0.00756 0.73029 0.40173 0.0
H1269 H 0.0036 0.71945 0.49206 0.0
C1270 C 0.00912 0.75313 0.4038 0.0
C1271 C 0.00469 0.71804 0.43382 0.0
C1272 C 1.00158 0.69362 0.43317 0.0
C1273 C 0.00892 0.76395 0.43716 0.0
C1274 C 0.00746 0.7516 0.46934 0.0
C1275 C 0.00485 0.72887 0.46731 0.0
C1276 C 0.01082 0.76179 0.50518 0.0
C1277 C 0.01065 0.78853 0.43769 0.0
C1278 C 0.03104 0.77128 0.51312 0.0
C1279 C 0.035 0.78012 0.54713 0.0
C1280 C 0.01884 0.7796 0.57416 0.0
C1281 C 0.9984 0.77037 0.56607 0.0
C1282 C 0.99448 0.76135 0.53184 0.0
H1283 H 0.00498 0.79581 0.41183 0.0
H1284 H 1.00094 0.7956 0.46019 0.0
H1285 H 0.02798 0.79323 0.44157 0.0
H1286 H 0.04397 0.7715 0.49312 0.0
H1287 H 0.0509 0.78716 0.55236 0.0
H1288 H 0.70872 0.05774 0.046 0.0
H1289 H 0.72586 0.05305 0.98698 0.0
H1290 H 0.75314 0.99153 0.02168 0.0
H1291 H 0.73676 0.9966 0.08147 0.0
H1292 H 0.78289 0.01408 0.98693 0.0
H1293 H 0.70746 0.01548 0.90512 0.0
H1294 H 0.70999 0.0398 0.93166 0.0
H1295 H 0.70688 0.01372 0.95373 0.0
C1296 C 0.71815 0.04307 0.04098 0.0
C1297 C 0.72125 0.02746 0.06839 0.0
C1298 C 0.72788 0.04036 0.00709 0.0
C1299 C 0.74046 0.02172 0.99951 0.0
C1300 C 0.74345 0.00602 0.02678 0.0
H1301 H 0.77411 0.99149 0.7773 0.0
H1302 H 0.76076 0.98994 0.83943 0.0
C1303 C 0.73402 0.0089 0.06091 0.0
C1304 C 0.75104 0.01896 0.96355 0.0
H1305 H 0.74091 0.02038 0.87294 0.0
C1306 C 0.77368 0.01523 0.96198 0.0
C1307 C 0.73903 0.0201 0.93093 0.0
C1308 C 0.71448 0.02225 0.93042 0.0
C1309 C 0.78466 0.01304 0.92878 0.0
C1310 C 0.77281 0.01537 0.89615 0.0
C1311 C 0.75013 0.01876 0.89782 0.0
C1312 C 0.78329 0.01421 0.85983 0.0
C1313 C 0.80874 0.0078 0.92918 0.0
C1314 C 0.80091 0.02788 0.85057 0.0
C1315 C 0.80899 0.02829 0.81511 0.0
C1316 C 0.79916 0.01553 0.78816 0.0
C1317 C 0.78197 1.00149 0.79762 0.0
C1318 C 0.77428 1.00068 0.8331 0.0
H1319 H 0.81353 0.99946 0.95465 0.0
H1320 H 0.81338 0.99723 0.90606 0.0
H1321 H 0.81817 0.02322 0.92742 0.0
H1322 H 0.8078 0.03894 0.87029 0.0
H1323 H 0.82201 0.03953 0.8083 0.0
H1324 H 0.51775 0.77627 0.28196 0.0
H1325 H 0.52028 0.76158 0.34311 0.0
H1326 H 0.46933 0.80536 0.37809 0.0
H1327 H 0.46679 0.82045 0.31686 0.0
H1328 H 0.50513 0.80134 0.42757 0.0
H1329 H 0.47284 0.72077 0.38391 0.0
H1330 H 0.49631 0.7302 0.35933 0.0
H1331 H 0.47097 0.74488 0.35602 0.0
C1332 C 0.50716 0.78295 0.30264 0.0
C1333 C 0.49194 0.79947 0.29438 0.0
C1334 C 0.50861 0.77445 0.33758 0.0
C1335 C 0.49477 0.78214 0.36496 0.0
C1336 C 0.48011 0.79916 0.35726 0.0
H1337 H 0.45 0.72311 0.55905 0.0
H1338 H 0.45635 0.73878 0.49964 0.0
C1339 C 0.47867 0.80775 0.32225 0.0
C1340 C 0.49493 0.77177 0.40117 0.0
H1341 H 0.4838 0.72389 0.44475 0.0
C1342 C 0.50059 0.78439 0.4314 0.0
C1343 C 0.48884 0.74968 0.406 0.0
C1344 C 0.48171 0.73559 0.3747 0.0
C1345 C 0.50012 0.77552 0.46646 0.0
C1346 C 0.49407 0.75342 0.47124 0.0
C1347 C 0.48868 0.74076 0.44093 0.0
C1348 C 0.49097 0.74368 0.50759 0.0
C1349 C 0.5053 0.79004 0.49822 0.0
C1350 C 0.50845 0.74093 0.53177 0.0
C1351 C 0.50488 0.73189 0.56614 0.0
C1352 C 0.48376 0.72551 0.57674 0.0
C1353 C 0.46647 0.72797 0.55203 0.0
C1354 C 0.47005 0.7369 0.51792 0.0
H1355 H 0.50597 0.80756 0.49044 0.0
H1356 H 0.4929 0.788 0.51986 0.0
H1357 H 0.52141 0.78537 0.50953 0.0
H1358 H 0.52481 0.74573 0.52407 0.0
H1359 H 0.51855 0.73013 0.58446 0.0
H1360 H 0.23359 0.49236 0.72927 0.0
H1361 H 0.24725 0.4919 0.66723 0.0
H1362 H 0.19732 0.53797 0.63608 0.0
H1363 H 0.18284 0.53752 0.69797 0.0
H1364 H 0.20404 0.50994 0.58326 0.0
H1365 H 0.28445 0.53991 0.62947 0.0
H1366 H 0.27776 0.51423 0.64984 0.0
H1367 H 0.2613 0.53797 0.65934 0.0
C1368 C 0.22533 0.50213 0.70902 0.0
C1369 C 0.20726 0.5151 0.71839 0.0
C1370 C 0.23329 0.50203 0.67366 0.0
C1371 C 0.22383 0.5155 0.64721 0.0
C1372 C 0.20505 0.52761 0.65608 0.0
H1373 H 0.29461 0.55832 0.45714 0.0
H1374 H 0.277 0.55437 0.51589 0.0
C1375 C 0.19674 0.5273 0.69138 0.0
C1376 C 0.23403 0.5175 0.61082 0.0
H1377 H 0.28242 0.52805 0.56842 0.0
C1378 C 0.22116 0.51401 0.57998 0.0
C1379 C 0.25628 0.52329 0.60642 0.0
C1380 C 0.27067 0.5293 0.63802 0.0
C1381 C 0.22994 0.51586 0.54497 0.0
C1382 C 0.25246 0.52052 0.54067 0.0
C1383 C 0.26525 0.52418 0.57156 0.0
C1384 C 0.26303 0.52263 0.50454 0.0
C1385 C 0.21476 0.51349 0.5131 0.0
C1386 C 0.26142 0.50597 0.47853 0.0
C1387 C 0.27115 0.50841 0.4445 0.0
C1388 C 0.28324 0.52726 0.43621 0.0
C1389 C 0.2855 0.54354 0.4627 0.0
C1390 C 0.27538 0.54131 0.49635 0.0
H1391 H 0.19755 0.51689 0.52079 0.0
H1392 H 0.21939 0.52468 0.49077 0.0
H1393 H 0.21554 0.49645 0.50298 0.0
H1394 H 0.25267 0.49106 0.4845 0.0
H1395 H 0.26932 0.49549 0.42476 0.0
H1396 H 0.99941 0.23915 0.21835 0.0
H1397 H 1.00067 0.25056 0.15546 0.0
H1398 H 0.98208 0.18581 0.12179 0.0
H1399 H 0.98054 0.17412 0.18536 0.0
H1400 H 0.02482 0.23477 0.09598 0.0
H1401 H 0.93506 0.22634 0.07685 0.0
H1402 H 0.94758 0.22613 0.12099 0.0
H1403 H 0.94944 0.20251 0.09247 0.0
C1404 C 0.99569 0.22719 0.1977 0.0
C1405 C 0.98969 0.20572 0.20699 0.0
C1406 C 0.9965 0.23378 0.16168 0.0
C1407 C 0.99122 0.21914 0.13398 0.0
C1408 C 0.98594 0.19745 0.14285 0.0
H1409 H 0.00556 0.25571 0.9057 0.0
H1410 H 0.00953 0.23742 0.96405 0.0
C1411 C 0.98521 0.19076 0.17913 0.0
C1412 C 0.99051 0.22722 0.09619 0.0
H1413 H 0.95526 0.2403 0.02802 0.0
C1414 C 0.00968 0.23576 0.08088 0.0
C1415 C 0.97065 0.2288 0.07687 0.0
C1416 C 0.94943 0.22063 0.09257 0.0
C1417 C 0.00945 0.24617 0.04702 0.0
C1418 C 0.98957 0.24785 0.02781 0.0
C1419 C 0.97048 0.23896 0.04282 0.0
C1420 C 0.98799 0.25945 0.99267 0.0
C1421 C 0.03032 0.256 0.03273 0.0
C1422 C 0.97448 0.27787 0.98931 0.0
C1423 C 0.9721 0.28836 0.95596 0.0
C1424 C 0.98309 0.28053 0.92517 0.0
C1425 C 0.99692 0.26227 0.92882 0.0
C1426 C 0.99928 0.2518 0.9622 0.0
H1427 H 0.0429 0.25763 0.05417 0.0
H1428 H 0.03703 0.24532 0.0112 0.0
H1429 H 0.02723 0.27236 0.02078 0.0
H1430 H 0.96562 0.28404 0.01251 0.0
H1431 H 0.9613 0.30234 0.9542 0.0
H1432 H 0.23471 0.94501 0.4416 0.0
H1433 H 0.25031 0.95101 0.50112 0.0
H1434 H 0.24184 0.02049 0.48859 0.0
H1435 H 0.22633 0.01467 0.42803 0.0
H1436 H 0.28313 0.00771 0.51935 0.0
H1437 H 0.21342 0.96834 0.58905 0.0
H1438 H 0.2252 0.95154 0.55443 0.0
H1439 H 0.21215 0.97686 0.5424 0.0
C1440 C 0.23611 0.96163 0.45128 0.0
C1441 C 0.22905 0.97937 0.43004 0.0
C1442 C 0.24503 0.965 0.48546 0.0
C1443 C 0.24691 0.98614 0.49953 0.0
C1444 C 0.24042 0.00402 0.47824 0.0
H1445 H 0.26541 0.00392 0.72944 0.0
H1446 H 0.2534 0.00701 0.66697 0.0
C1447 C 0.23151 1.00066 0.44373 0.0
C1448 C 0.25521 0.98919 0.53686 0.0
H1449 H 0.24558 0.97374 0.62398 0.0
C1450 C 0.27485 1.00051 0.54236 0.0
C1451 C 0.24425 0.97998 0.56686 0.0
C1452 C 0.22248 0.96868 0.56303 0.0
C1453 C 0.28415 1.0023 0.57703 0.0
C1454 C 0.27368 0.99217 0.60676 0.0
C1455 C 0.25375 0.98135 0.60122 0.0
C1456 C 0.28263 0.99273 0.64412 0.0
C1457 C 0.30493 0.01519 0.58151 0.0
C1458 C 0.30334 0.98403 0.65225 0.0
C1459 C 0.31043 0.98247 0.68823 0.0
C1460 C 0.29673 0.98918 0.71663 0.0
C1461 C 0.27631 0.9984 0.70824 0.0
C1462 C 0.2694 1.00022 0.67247 0.0
H1463 H 0.30732 0.02693 0.55895 0.0
H1464 H 0.30495 0.02434 0.60741 0.0
H1465 H 0.31903 0.00379 0.58161 0.0
H1466 H 0.31367 0.97768 0.63095 0.0
H1467 H 0.32616 0.97514 0.69388 0.0
H1468 H 0.54434 0.20558 0.95592 0.0
H1469 H 0.53869 0.22169 0.01546 0.0
H1470 H 0.48462 0.25928 0.97375 0.0
H1471 H 0.48971 0.24235 0.9142 0.0
H1472 H 0.54362 0.26297 0.03127 0.0
H1473 H 0.4592 0.23873 0.06763 0.0
H1474 H 0.4738 0.22652 0.03041 0.0
H1475 H 0.46107 0.25282 0.02521 0.0
C1476 C 0.53097 0.21697 0.95965 0.0
C1477 C 0.51746 0.22275 0.93054 0.0
C1478 C 0.52777 0.2262 0.99365 0.0
C1479 C 0.51119 0.24168 0.99924 0.0
C1480 C 0.49723 0.24706 0.97039 0.0
H1481 H 0.52407 0.32977 0.18514 0.0
H1482 H 0.52101 0.3156 0.12349 0.0
C1483 C 0.50018 0.23744 0.93635 0.0
C1484 C 0.5099 0.25322 0.03452 0.0
H1485 H 0.47647 0.2645 0.10604 0.0
C1486 C 0.52892 0.26327 0.04762 0.0
C1487 C 0.49076 0.25355 0.05594 0.0
C1488 C 0.4701 0.24215 0.0443 0.0
C1489 C 0.52952 0.27321 0.08172 0.0
C1490 C 0.51028 0.27391 0.1029 0.0
C1491 C 0.49114 0.26416 0.08963 0.0
C1492 C 0.51013 0.28343 0.13983 0.0
C1493 C 0.55104 0.28201 0.09523 0.0
C1494 C 0.50402 0.27045 0.16942 0.0
C1495 C 0.50532 0.27865 0.20456 0.0
C1496 C 0.5129 0.29997 0.21089 0.0
C1497 C 0.5184 0.31319 0.18117 0.0
C1498 C 0.51677 0.30507 0.14594 0.0
H1499 H 0.56509 0.27489 0.08029 0.0
H1500 H 0.55145 0.29996 0.09121 0.0
H1501 H 0.55326 0.27856 0.12446 0.0
H1502 H 0.49882 0.25372 0.16541 0.0
H1503 H 0.50102 0.26801 0.22685 0.0
H1504 H 0.23776 0.54375 0.27725 0.0
H1505 H 0.20591 0.56556 0.2597 0.0
H1506 H 0.22963 0.61937 0.32363 0.0
H1507 H 0.26113 0.59767 0.34186 0.0
H1508 H 0.18682 0.61243 0.33519 0.0
H1509 H 0.20296 0.6155 0.18787 0.0
H1510 H 0.20164 0.58821 0.20547 0.0
H1511 H 0.22309 0.60621 0.22 0.0
C1512 C 0.23621 0.56023 0.28754 0.0
C1513 C 0.25205 0.56889 0.31103 0.0
C1514 C 0.21807 0.57275 0.27724 0.0
C1515 C 0.21552 0.59426 0.28988 0.0
C1516 C 0.23125 0.60287 0.31342 0.0
H1517 H 0.11984 0.6872 0.20253 0.0
H1518 H 0.15396 0.67017 0.22302 0.0
C1519 C 0.24928 0.59037 0.32384 0.0
C1520 C 0.19619 0.60766 0.27964 0.0
H1521 H 0.16813 0.62828 0.20744 0.0
C1522 C 0.18281 0.61598 0.30725 0.0
C1523 C 0.19115 0.61267 0.24322 0.0
C1524 C 0.20557 0.60538 0.21243 0.0
C1525 C 0.16426 0.62865 0.29944 0.0
C1526 C 0.15865 0.63279 0.26298 0.0
C1527 C 0.17234 0.62499 0.23538 0.0
C1528 C 0.13811 0.64423 0.25285 0.0
C1529 C 0.15094 0.6376 0.33038 0.0
C1530 C 0.11788 0.63545 0.26303 0.0
C1531 C 0.09844 0.64515 0.25155 0.0
C1532 C 0.09871 0.66381 0.22929 0.0
C1533 C 0.119 0.67294 0.21981 0.0
C1534 C 0.13852 0.66316 0.23134 0.0
H1535 H 0.16081 0.63892 0.35546 0.0
H1536 H 0.14416 0.65395 0.3238 0.0
H1537 H 0.13713 0.62639 0.33599 0.0
H1538 H 0.1171 0.62064 0.27901 0.0
H1539 H 0.08316 0.6376 0.25934 0.0
H1540 H 0.85433 0.08141 0.77172 0.0
H1541 H 0.8737 0.11361 0.7945 0.0
H1542 H 0.85433 0.14986 0.69984 0.0
H1543 H 0.83467 0.11815 0.67733 0.0
H1544 H 0.90809 0.13492 0.76312 0.0
H1545 H 0.83883 0.19214 0.77952 0.0
H1546 H 0.83499 0.16317 0.77333 0.0
H1547 H 0.83992 0.18063 0.73501 0.0
C1548 C 0.8539 0.09634 0.75605 0.0
C1549 C 0.84288 0.09715 0.72269 0.0
C1550 C 0.86505 0.11471 0.76904 0.0
C1551 C 0.86527 0.13425 0.74909 0.0
C1552 C 0.85401 0.13516 0.71612 0.0
H1553 H 0.96 0.24001 0.75702 0.0
H1554 H 0.93928 0.20692 0.74264 0.0
C1555 C 0.84285 0.1169 0.70319 0.0
C1556 C 0.87815 0.15337 0.76154 0.0
H1557 H 0.87449 0.20805 0.77858 0.0
C1558 C 0.90073 0.15088 0.76686 0.0
C1559 C 0.86852 0.17415 0.76679 0.0
C1560 C 0.8442 0.17767 0.76374 0.0
C1561 C 0.914 0.1687 0.77633 0.0
C1562 C 0.90451 0.18969 0.77981 0.0
C1563 C 0.88185 0.19204 0.77542 0.0
C1564 C 0.91761 0.20941 0.78872 0.0
C1565 C 0.93798 0.16478 0.78297 0.0
C1566 C 0.91205 0.22213 0.81887 0.0
C1567 C 0.92362 0.24115 0.82684 0.0
C1568 C 0.94112 0.24794 0.80486 0.0
C1569 C 0.94676 0.23515 0.77469 0.0
C1570 C 0.93501 0.21615 0.76657 0.0
H1571 H 0.94135 0.14739 0.78953 0.0
H1572 H 0.94728 0.16895 0.75817 0.0
H1573 H 0.94411 0.1751 0.80543 0.0
H1574 H 0.89867 0.21733 0.83631 0.0
H1575 H 0.91881 0.25054 0.85033 0.0
H1576 H 0.23854 0.90363 0.2918 0.0
H1577 H 0.27153 0.8834 0.27563 0.0
H1578 H 0.31071 0.94001 0.29944 0.0
H1579 H 0.27773 0.96049 0.31576 0.0
H1580 H 0.30447 0.89486 0.22181 0.0
H1581 H 0.33733 0.88917 0.36155 0.0
H1582 H 0.30905 0.8954 0.35223 0.0
H1583 H 0.32958 0.91602 0.34652 0.0
C1584 C 0.25416 0.91184 0.29362 0.0
C1585 C 0.2555 0.93366 0.30537 0.0
C1586 C 0.27298 0.90023 0.2843 0.0
C1587 C 0.29354 0.91011 0.28684 0.0
C1588 C 0.29498 0.932 0.29783 0.0
H1589 H 0.42639 0.87084 0.2496 0.0
H1590 H 0.39234 0.88803 0.26827 0.0
C1591 C 0.27611 0.94371 0.30695 0.0
C1592 C 0.31344 0.89746 0.27782 0.0
H1593 H 0.35989 0.876 0.31447 0.0
C1594 C 0.31658 0.89062 0.24202 0.0
C1595 C 0.32911 0.89197 0.30434 0.0
C1596 C 0.32614 0.89833 0.34341 0.0
C1597 C 0.33533 0.87893 0.23178 0.0
C1598 C 0.35108 0.87344 0.2583 0.0
C1599 C 0.34778 0.88011 0.29421 0.0
C1600 C 0.37167 0.86191 0.24898 0.0
C1601 C 0.33845 0.87325 0.19243 0.0
C1602 C 0.37146 0.84113 0.2329 0.0
C1603 C 0.391 0.83121 0.22194 0.0
C1604 C 0.4111 0.84185 0.22716 0.0
C1605 C 0.41124 0.86218 0.2449 0.0
C1606 C 0.39176 0.87208 0.25565 0.0
H1607 H 0.32776 0.8832 0.17459 0.0
H1608 H 0.35568 0.87572 0.18403 0.0
H1609 H 0.33428 0.85581 0.18821 0.0
H1610 H 0.35617 0.83272 0.22831 0.0
H1611 H 0.3903 0.81548 0.20861 0.0
H1612 H 0.53635 0.27647 0.81007 0.0
H1613 H 0.55536 0.31041 0.7946 0.0
H1614 H 0.61697 0.27631 0.79641 0.0
H1615 H 0.59827 0.24247 0.81213 0.0
H1616 H 0.61762 0.31671 0.83316 0.0
H1617 H 0.58249 0.32403 0.69511 0.0
H1618 H 0.563 0.32146 0.73119 0.0
H1619 H 0.581 0.29911 0.72107 0.0
C1620 C 0.55394 0.27618 0.80718 0.0
C1621 C 0.56575 0.25669 0.81227 0.0
C1622 C 0.56477 0.29559 0.79823 0.0
C1623 C 0.58755 0.29582 0.79405 0.0
C1624 C 0.59937 0.27649 0.79951 0.0
H1625 H 0.67105 0.38513 0.68145 0.0
H1626 H 0.6511 0.35401 0.70589 0.0
C1627 C 0.58861 0.25713 0.80841 0.0
C1628 C 0.59924 0.31607 0.7836 0.0
H1629 H 0.60583 0.35231 0.71433 0.0
C1630 C 0.61499 0.3246 0.80728 0.0
C1631 C 0.5959 0.32615 0.74966 0.0
C1632 C 0.57982 0.31718 0.72258 0.0
C1633 C 0.62761 0.34289 0.79778 0.0
C1634 C 0.62421 0.35299 0.76388 0.0
C1635 C 0.60832 0.34457 0.74038 0.0
C1636 C 0.63763 0.37168 0.75131 0.0
C1637 C 0.64494 0.35082 0.82357 0.0
C1638 C 0.63698 0.39192 0.76911 0.0
C1639 C 0.64848 0.40983 0.75525 0.0
C1640 C 0.66068 0.40783 0.72316 0.0
C1641 C 0.66177 0.38732 0.70611 0.0
C1642 C 0.65033 0.36949 0.71999 0.0
H1643 H 0.64864 0.33854 0.84484 0.0
H1644 H 0.66025 0.35475 0.80886 0.0
H1645 H 0.63915 0.36593 0.83704 0.0
H1646 H 0.62704 0.39404 0.79306 0.0
H1647 H 0.64719 0.4254 0.76896 0.0
H1648 H 0.76464 0.40507 0.20003 0.0
H1649 H 0.73128 0.38559 0.2161 0.0
H1650 H 0.69345 0.44367 0.19548 0.0
H1651 H 0.72686 0.46344 0.17918 0.0
H1652 H 0.69998 0.39719 0.2715 0.0
H1653 H 0.66381 0.39476 0.13374 0.0
H1654 H 0.69242 0.40011 0.14149 0.0
H1655 H 0.67255 0.42111 0.14953 0.0
C1656 C 0.74925 0.41377 0.19878 0.0
C1657 C 0.74843 0.43582 0.18805 0.0
C1658 C 0.7302 0.40258 0.20806 0.0
C1659 C 0.7099 0.4131 0.20651 0.0
C1660 C 0.70896 0.43517 0.1963 0.0
H1661 H 0.57731 0.37395 0.25118 0.0
H1662 H 0.6107 0.3917 0.23071 0.0
C1663 C 0.72807 0.44647 0.1872 0.0
C1664 C 0.68982 0.40095 0.21621 0.0
H1665 H 0.64224 0.3809 0.18153 0.0
C1666 C 0.68736 0.39355 0.25186 0.0
C1667 C 0.67344 0.39626 0.19047 0.0
C1668 C 0.67563 0.40329 0.15156 0.0
C1669 C 0.6687 0.38194 0.26271 0.0
C1670 C 0.65234 0.37711 0.23692 0.0
C1671 C 0.65485 0.38449 0.2012 0.0
C1672 C 0.63204 0.36529 0.24689 0.0
C1673 C 0.66642 0.37556 0.30193 0.0
C1674 C 0.63282 0.34417 0.26172 0.0
C1675 C 0.6137 0.33394 0.27369 0.0
C1676 C 0.59341 0.3446 0.27075 0.0
C1677 C 0.59262 0.36528 0.25411 0.0
C1678 C 0.61172 0.37549 0.24234 0.0
H1679 H 0.67745 0.38521 0.31958 0.0
H1680 H 0.64937 0.37785 0.31144 0.0
H1681 H 0.67075 0.35806 0.30511 0.0
H1682 H 0.64828 0.33575 0.26464 0.0
H1683 H 0.61489 0.31796 0.28607 0.0
H1684 H 0.04041 0.73199 0.71919 0.0
H1685 H 0.06089 0.699 0.73586 0.0
H1686 H 0.11772 0.72418 0.68098 0.0
H1687 H 0.09775 0.75741 0.66581 0.0
H1688 H 0.08059 0.66747 0.69885 0.0
H1689 H 0.14313 0.71176 0.77785 0.0
H1690 H 0.11876 0.72491 0.76138 0.0
H1691 H 0.14193 0.7211 0.732 0.0
C1692 C 0.05728 0.73043 0.71075 0.0
C1693 C 0.06757 0.74738 0.69168 0.0
C1694 C 0.06896 0.7116 0.72023 0.0
C1695 C 0.09104 0.70933 0.71045 0.0
C1696 C 0.10097 0.72584 0.68994 0.0
H1697 H 0.16193 0.58448 0.72827 0.0
H1698 H 0.14283 0.61661 0.7042 0.0
C1699 C 0.08948 0.74479 0.68111 0.0
C1700 C 0.10378 0.68986 0.72195 0.0
H1701 H 0.15048 0.67444 0.76537 0.0
C1702 C 0.09583 0.66897 0.71354 0.0
C1703 C 0.12354 0.69179 0.74154 0.0
C1704 C 0.13222 0.71359 0.75406 0.0
C1705 C 0.10708 0.64998 0.72411 0.0
C1706 C 0.12725 0.65197 0.74255 0.0
C1707 C 0.13519 0.67288 0.75083 0.0
C1708 C 0.13965 0.63272 0.75605 0.0
C1709 C 0.09684 0.62807 0.71649 0.0
C1710 C 0.14513 0.63151 0.7928 0.0
C1711 C 0.1565 0.61356 0.80634 0.0
C1712 C 0.16249 0.59619 0.78354 0.0
C1713 C 0.15739 0.59753 0.74655 0.0
C1714 C 0.14628 0.61577 0.73285 0.0
H1715 H 0.07902 0.62952 0.71143 0.0
H1716 H 0.10444 0.62093 0.69197 0.0
H1717 H 0.0994 0.6166 0.73936 0.0
H1718 H 0.14027 0.64435 0.81128 0.0
H1719 H 0.16004 0.61307 0.835 0.0
H1720 H 0.76398 0.04733 0.23681 0.0
H1721 H 0.79707 0.06781 0.25212 0.0
H1722 H 0.78617 0.11048 0.16113 0.0
H1723 H 0.75294 0.09056 0.1462 0.0
H1724 H 0.83461 0.07561 0.21463 0.0
H1725 H 0.79231 0.15387 0.24246 0.0
H1726 H 0.77781 0.12847 0.23711 0.0
H1727 H 0.78691 0.14345 0.19807 0.0
C1728 C 0.76863 0.06108 0.22007 0.0
C1729 C 0.75567 0.0674 0.19047 0.0
C1730 C 0.78755 0.07276 0.22884 0.0
C1731 C 0.79389 0.09096 0.20819 0.0
C1732 C 0.78132 0.09688 0.17805 0.0
H1733 H 0.92358 0.15192 0.22311 0.0
H1734 H 0.89104 0.13293 0.20082 0.0
C1735 C 0.76235 0.08537 0.16945 0.0
C1736 C 0.81363 0.10375 0.21809 0.0
H1737 H 0.83101 0.15505 0.24005 0.0
C1738 C 0.83383 0.09297 0.22024 0.0
C1739 C 0.81257 0.12638 0.22579 0.0
C1740 C 0.79121 0.1387 0.22612 0.0
C1741 C 0.85301 0.10419 0.22974 0.0
C1742 C 0.85204 0.12694 0.23647 0.0
C1743 C 0.83181 0.13769 0.23439 0.0
C1744 C 0.87146 0.13962 0.24829 0.0
C1745 C 0.87397 0.09143 0.23358 0.0
C1746 C 0.87098 0.15057 0.28156 0.0
C1747 C 0.88936 0.16168 0.29408 0.0
C1748 C 0.90876 0.16208 0.27367 0.0
C1749 C 0.90898 0.15182 0.23965 0.0
C1750 C 0.89045 0.14077 0.22702 0.0
H1751 H 0.8709 0.07362 0.23631 0.0
H1752 H 0.88417 0.09398 0.20915 0.0
H1753 H 0.8834 0.097 0.25747 0.0
H1754 H 0.8565 0.15006 0.29836 0.0
H1755 H 0.88849 0.16945 0.32032 0.0
H1756 H 0.33432 0.88715 0.83078 0.0
H1757 H 0.35473 0.85557 0.80884 0.0
H1758 H 0.37302 0.89135 0.71316 0.0
H1759 H 0.3524 0.92309 0.73471 0.0
H1760 H 0.36086 0.84793 0.69928 0.0
H1761 H 0.42167 0.8525 0.80993 0.0
H1762 H 0.39395 0.85122 0.82556 0.0
H1763 H 0.40297 0.8745 0.79998 0.0
C1764 C 0.34252 0.88832 0.80491 0.0
C1765 C 0.34187 0.90779 0.7847 0.0
C1766 C 0.35432 0.87026 0.79254 0.0
C1767 C 0.36583 0.87129 0.7598 0.0
C1768 C 0.36443 0.8903 0.7387 0.0
H1769 H 0.46655 0.77644 0.69806 0.0
H1770 H 0.44701 0.8102 0.71315 0.0
C1771 C 0.35259 0.90841 0.75104 0.0
C1772 C 0.3795 0.85256 0.74795 0.0
H1773 H 0.42226 0.82026 0.77389 0.0
C1774 C 0.37437 0.84196 0.71545 0.0
C1775 C 0.39739 0.84502 0.76875 0.0
C1776 C 0.40451 0.85651 0.80282 0.0
C1777 C 0.38616 0.82354 0.70385 0.0
C1778 C 0.40333 0.81534 0.7256 0.0
C1779 C 0.40895 0.82641 0.75744 0.0
C1780 C 0.41523 0.79494 0.71632 0.0
C1781 C 0.38017 0.81309 0.6683 0.0
C1782 C 0.40393 0.77509 0.71383 0.0
C1783 C 0.415 0.75582 0.70526 0.0
C1784 C 0.4377 0.75591 0.69917 0.0
C1785 C 0.44908 0.77577 0.7024 0.0
C1786 C 0.43794 0.79509 0.711 0.0
H1787 H 0.37135 0.82468 0.65038 0.0
H1788 H 0.39491 0.80706 0.65393 0.0
H1789 H 0.36926 0.79897 0.67345 0.0
H1790 H 0.38651 0.77447 0.71872 0.0
H1791 H 0.40569 0.74084 0.70337 0.0
H1792 H 0.92513 0.37031 0.75163 0.0
H1793 H 0.89116 0.38724 0.73211 0.0
H1794 H 0.855 0.33175 0.7716 0.0
H1795 H 0.88909 0.31477 0.79221 0.0
H1796 H 0.85957 0.37494 0.68503 0.0
H1797 H 0.82521 0.38199 0.82351 0.0
H1798 H 0.85331 0.37469 0.81527 0.0
H1799 H 0.83211 0.35464 0.81027 0.0
C1800 C 0.91001 0.36157 0.7561 0.0
C1801 C 0.90987 0.34124 0.77392 0.0
C1802 C 0.89056 0.37132 0.74484 0.0
C1803 C 0.87048 0.36101 0.75105 0.0
C1804 C 0.87027 0.34027 0.76734 0.0
H1805 H 0.73768 0.40227 0.70364 0.0
H1806 H 0.77053 0.38206 0.72055 0.0
C1807 C 0.88979 0.33049 0.77883 0.0
C1808 C 0.84991 0.37235 0.74084 0.0
H1809 H 0.80262 0.39353 0.77532 0.0
C1810 C 0.84712 0.37899 0.70478 0.0
C1811 C 0.83371 0.37775 0.76668 0.0
C1812 C 0.83624 0.3721 0.80616 0.0
C1813 C 0.82856 0.39075 0.69384 0.0
C1814 C 0.81245 0.39618 0.71968 0.0
C1815 C 0.81506 0.38935 0.75561 0.0
C1816 C 0.79263 0.40878 0.70982 0.0
C1817 C 0.82618 0.3971 0.65464 0.0
C1818 C 0.79415 0.43066 0.69872 0.0
C1819 C 0.77535 0.44237 0.68915 0.0
C1820 C 0.75472 0.43233 0.69039 0.0
C1821 C 0.7533 0.41048 0.70207 0.0
C1822 C 0.77205 0.39888 0.71183 0.0
H1823 H 0.83765 0.38793 0.63699 0.0
H1824 H 0.80924 0.39416 0.64515 0.0
H1825 H 0.82967 0.41478 0.6516 0.0
H1826 H 0.80988 0.43869 0.69751 0.0
H1827 H 0.77703 0.45917 0.68044 0.0
H1828 H 0.16925 0.88638 0.32329 0.0
H1829 H 0.14976 0.85484 0.29989 0.0
H1830 H 0.12929 0.89227 0.20715 0.0
H1831 H 0.1485 0.92435 0.2309 0.0
H1832 H 0.09541 0.86967 0.23795 0.0
H1833 H 0.16575 0.81424 0.21818 0.0
H1834 H 0.16476 0.82501 0.2632 0.0
H1835 H 0.16902 0.84318 0.22557 0.0
C1836 C 0.16084 0.88795 0.29768 0.0
C1837 C 0.1605 0.90798 0.27898 0.0
C1838 C 0.14977 0.86978 0.28423 0.0
C1839 C 0.13831 0.87104 0.2515 0.0
C1840 C 0.13813 0.89089 0.2324 0.0
H1841 H 0.08699 0.75398 0.14918 0.0
H1842 H 0.10622 0.78779 0.16283 0.0
C1843 C 0.14919 0.90919 0.24593 0.0
C1844 C 0.12574 0.85186 0.2384 0.0
H1845 H 0.13047 0.79747 0.21972 0.0
C1846 C 0.10309 0.85392 0.23357 0.0
C1847 C 0.13579 0.83137 0.23228 0.0
C1848 C 0.1602 0.82834 0.23471 0.0
C1849 C 0.09014 0.83591 0.22385 0.0
C1850 C 0.10004 0.81516 0.21962 0.0
C1851 C 0.12279 0.81328 0.22344 0.0
C1852 C 0.08731 0.79519 0.21069 0.0
C1853 C 0.06602 0.83938 0.2178 0.0
C1854 C 0.0702 0.78797 0.23307 0.0
C1855 C 0.05896 0.76863 0.22512 0.0
C1856 C 0.06486 0.75596 0.19496 0.0
C1857 C 0.08202 0.76325 0.1727 0.0
C1858 C 0.09306 0.78263 0.18045 0.0
H1859 H 0.06227 0.85672 0.21147 0.0
H1860 H 0.0599 0.82901 0.19539 0.0
H1861 H 0.05702 0.83497 0.24278 0.0
H1862 H 0.0658 0.79706 0.25708 0.0
H1863 H 0.04597 0.76339 0.243 0.0
H1864 H 0.76307 0.10101 0.69852 0.0
H1865 H 0.72944 0.12008 0.71437 0.0
H1866 H 0.69383 0.0595 0.70863 0.0
H1867 H 0.72755 0.04009 0.69301 0.0
H1868 H 0.69036 0.12291 0.67441 0.0
H1869 H 0.67774 0.08419 0.80878 0.0
H1870 H 0.7034 0.0827 0.7849 0.0
H1871 H 0.68101 0.06561 0.77159 0.0
C1872 C 0.74814 0.09164 0.70071 0.0
C1873 C 0.74805 0.06896 0.6945 0.0
C1874 C 0.72891 0.10262 0.70969 0.0
C1875 C 0.70919 0.0912 0.7129 0.0
C1876 C 0.70895 0.06857 0.70675 0.0
H1877 H 0.57971 0.15127 0.72906 0.0
H1878 H 0.61206 0.13184 0.70704 0.0
C1879 C 0.72823 0.05753 0.69773 0.0
C1880 C 0.68896 0.10315 0.72252 0.0
H1881 H 0.6504 0.10849 0.78855 0.0
C1882 C 0.68155 0.11973 0.69929 0.0
C1883 C 0.67767 0.09908 0.75516 0.0
C1884 C 0.68539 0.08206 0.78177 0.0
C1885 C 0.66314 0.13241 0.70791 0.0
C1886 C 0.65177 0.12823 0.74042 0.0
C1887 C 0.65913 0.11158 0.76355 0.0
C1888 C 0.63265 0.14139 0.75181 0.0
C1889 C 0.65638 0.15057 0.6827 0.0
C1890 C 0.63354 0.1533 0.78412 0.0
C1891 C 0.61513 0.16434 0.79681 0.0
C1892 C 0.59534 0.16359 0.77756 0.0
C1893 C 0.59469 0.15225 0.7445 0.0
C1894 C 0.61318 0.14117 0.73182 0.0
H1895 H 0.6695 0.15474 0.66315 0.0
H1896 H 0.64181 0.14535 0.66715 0.0
H1897 H 0.65195 0.16548 0.69812 0.0
H1898 H 0.64843 0.15371 0.79991 0.0
H1899 H 0.61627 0.17295 0.8223 0.0
H1900 H 0.41332 0.75705 0.16702 0.0
H1901 H 0.39228 0.72521 0.18541 0.0
H1902 H 0.44541 0.70404 0.25338 0.0
H1903 H 0.46658 0.73628 0.23564 0.0
H1904 H 0.40098 0.68235 0.17621 0.0
H1905 H 0.39392 0.70108 0.3224 0.0
H1906 H 0.40328 0.7209 0.28979 0.0
H1907 H 0.42156 0.70017 0.30627 0.0
C1908 C 0.42062 0.7457 0.18596 0.0
C1909 C 0.44172 0.74929 0.19983 0.0
C1910 C 0.40851 0.72746 0.19645 0.0
C1911 C 0.41711 0.71235 0.22113 0.0
C1912 C 0.43823 0.71571 0.23487 0.0
H1913 H 0.37265 0.58013 0.25571 0.0
H1914 H 0.39098 0.61338 0.23612 0.0
C1915 C 0.45039 0.73407 0.22448 0.0
C1916 C 0.40404 0.69286 0.23151 0.0
H1917 H 0.38169 0.66604 0.30358 0.0
C1918 C 0.39671 0.67883 0.20407 0.0
C1919 C 0.39813 0.68846 0.26778 0.0
C1920 C 0.40443 0.70354 0.29826 0.0
C1921 C 0.38402 0.66034 0.21193 0.0
C1922 C 0.37883 0.65547 0.24831 0.0
C1923 C 0.38578 0.66971 0.27571 0.0
C1924 C 0.36683 0.63531 0.25862 0.0
C1925 C 0.37606 0.64634 0.1811 0.0
C1926 C 0.34717 0.63651 0.27811 0.0
C1927 C 0.33661 0.61742 0.28959 0.0
C1928 C 0.34565 0.59677 0.28207 0.0
C1929 C 0.36513 0.5957 0.26191 0.0
C1930 C 0.37563 0.61473 0.25049 0.0
H1931 H 0.37571 0.65559 0.15525 0.0
H1932 H 0.38731 0.63229 0.17758 0.0
H1933 H 0.35945 0.63988 0.18656 0.0
H1934 H 0.34013 0.65223 0.28478 0.0
H1935 H 0.32171 0.61888 0.30517 0.0
H1936 H 0.38822 0.67179 0.68632 0.0
H1937 H 0.35642 0.65216 0.70902 0.0
H1938 H 0.39397 0.62909 0.79989 0.0
H1939 H 0.42598 0.64893 0.77752 0.0
H1940 H 0.35412 0.60703 0.71897 0.0
H1941 H 0.33734 0.65156 0.84686 0.0
H1942 H 0.35455 0.6626 0.81168 0.0
H1943 H 0.36485 0.64185 0.84146 0.0
C1944 C 0.38971 0.66281 0.71142 0.0
C1945 C 0.40973 0.66191 0.73003 0.0
C1946 C 0.37149 0.65153 0.7243 0.0
C1947 C 0.37278 0.63921 0.75618 0.0
C1948 C 0.39252 0.63874 0.77547 0.0
H1949 H 0.27709 0.53828 0.81384 0.0
H1950 H 0.31095 0.5574 0.79831 0.0
C1951 C 0.41082 0.65006 0.7626 0.0
C1952 C 0.35372 0.62603 0.7679 0.0
H1953 H 0.31594 0.62024 0.83514 0.0
C1954 C 0.3458 0.60985 0.74443 0.0
C1955 C 0.34283 0.62985 0.80101 0.0
C1956 C 0.35015 0.64751 0.82666 0.0
C1957 C 0.3272 0.5975 0.75302 0.0
C1958 C 0.31639 0.60122 0.78623 0.0
C1959 C 0.32437 0.61731 0.80982 0.0
C1960 C 0.29607 0.58944 0.79609 0.0
C1961 C 0.31887 0.58106 0.726 0.0
C1962 C 0.27657 0.60113 0.80052 0.0
C1963 C 0.25724 0.5903 0.80946 0.0
C1964 C 0.25701 0.5675 0.81441 0.0
C1965 C 0.27664 0.55581 0.81012 0.0
C1966 C 0.296 0.5667 0.80112 0.0
H1967 H 0.32618 0.5835 0.6988 0.0
H1968 H 0.32316 0.56437 0.73531 0.0
H1969 H 0.30083 0.58203 0.72358 0.0
H1970 H 0.27625 0.61868 0.79676 0.0
H1971 H 0.24248 0.59988 0.81252 0.0
H1972 H 0.85461 0.4251 0.26821 0.0
H1973 H 0.87522 0.39359 0.29091 0.0
H1974 H 0.85301 0.35516 0.20061 0.0
H1975 H 0.83256 0.3864 0.17761 0.0
H1976 H 0.86241 0.3499 0.30886 0.0
H1977 H 0.92036 0.35239 0.19367 0.0
H1978 H 0.90232 0.37482 0.20443 0.0
H1979 H 0.89218 0.35144 0.18036 0.0
C1980 C 0.8539 0.40987 0.2534 0.0
C1981 C 0.84214 0.40838 0.22082 0.0
C1982 C 0.86572 0.39191 0.26638 0.0
C1983 C 0.86602 0.37223 0.24696 0.0
C1984 C 0.85339 0.37036 0.21554 0.0
H1985 H 0.90526 0.242 0.30299 0.0
H1986 H 0.88631 0.27601 0.28907 0.0
C1987 C 0.8416 0.38823 0.20257 0.0
C1988 C 0.87991 0.35373 0.25881 0.0
H1989 H 0.92155 0.32064 0.2309 0.0
C1990 C 0.87546 0.34359 0.292 0.0
C1991 C 0.89718 0.34578 0.23703 0.0
C1992 C 0.90349 0.35677 0.20204 0.0
C1993 C 0.88727 0.32512 0.30332 0.0
C1994 C 0.90375 0.31647 0.2806 0.0
C1995 C 0.90877 0.32715 0.2481 0.0
C1996 C 0.91545 0.29592 0.28942 0.0
C1997 C 0.88201 0.31505 0.3395 0.0
C1998 C 0.93826 0.29568 0.29316 0.0
C1999 C 0.94924 0.27616 0.30094 0.0
C2000 C 0.9376 0.25651 0.30487 0.0
C2001 C 0.91477 0.25682 0.30046 0.0
C2002 C 0.90384 0.2763 0.29274 0.0
H2003 H 0.87381 0.32692 0.35771 0.0
H2004 H 0.87079 0.30106 0.33547 0.0
H2005 H 0.89701 0.30891 0.35299 0.0
H2006 H 0.94754 0.31063 0.29032 0.0
H2007 H 0.96682 0.27651 0.304 0.0
H2008 H 0.0844 0.84133 0.78098 0.0
H2009 H 0.1169 0.85972 0.80486 0.0
H2010 H 0.1439 0.86304 0.69728 0.0
H2011 H 0.11221 0.84397 0.67367 0.0
H2012 H 0.1743 0.85214 0.74246 0.0
H2013 H 0.13012 0.9235 0.79888 0.0
H2014 H 0.12148 0.89797 0.81786 0.0
H2015 H 0.11692 0.90348 0.77068 0.0
C2016 C 0.09735 0.84588 0.76253 0.0
C2017 C 0.09566 0.84122 0.72542 0.0
C2018 C 0.11583 0.85658 0.77614 0.0
C2019 C 0.13267 0.86324 0.75277 0.0
C2020 C 0.13114 0.85816 0.71589 0.0
H2021 H 0.23187 0.96192 0.79013 0.0
H2022 H 0.1991 0.94134 0.77333 0.0
C2023 C 0.11295 0.8472 0.70242 0.0
C2024 C 0.15209 0.87535 0.7662 0.0
H2025 H 0.1681 0.92153 0.81067 0.0
C2026 C 0.17291 0.86732 0.75738 0.0
C2027 C 0.15034 0.89537 0.78515 0.0
C2028 C 0.12853 0.90573 0.7934 0.0
C2029 C 0.19195 0.87874 0.76662 0.0
C2030 C 0.19023 0.89837 0.78664 0.0
C2031 C 0.16943 0.90639 0.79563 0.0
C2032 C 0.20981 0.91103 0.79783 0.0
C2033 C 0.21362 0.86998 0.75357 0.0
C2034 C 0.22654 0.90102 0.81777 0.0
C2035 C 0.2454 0.9126 0.82672 0.0
C2036 C 0.24769 0.93465 0.81681 0.0
C2037 C 0.23057 0.94495 0.79809 0.0
C2038 C 0.21185 0.9332 0.78853 0.0
H2039 H 0.21161 0.8592 0.72966 0.0
H2040 H 0.22495 0.88341 0.74622 0.0
H2041 H 0.22123 0.86012 0.77536 0.0
H2042 H 0.22508 0.88417 0.82634 0.0
H2043 H 0.25814 0.90429 0.84169 0.0
H2044 H 0.68597 0.11991 0.20021 0.0
H2045 H 0.66796 0.15354 0.22051 0.0
H2046 H 0.61732 0.11541 0.27113 0.0
H2047 H 0.63524 0.0819 0.25162 0.0
H2048 H 0.62623 0.16738 0.20213 0.0
H2049 H 0.63327 0.15826 0.35059 0.0
H2050 H 0.64931 0.14223 0.3194 0.0
H2051 H 0.62151 0.13479 0.32914 0.0
C2052 C 0.67123 0.11867 0.21626 0.0
C2053 C 0.66209 0.09815 0.22429 0.0
C2054 C 0.66089 0.13792 0.22767 0.0
C2055 C 0.64138 0.137 0.24762 0.0
C2056 C 0.63255 0.11655 0.25636 0.0
H2057 H 0.54127 0.2377 0.26984 0.0
H2058 H 0.56261 0.20543 0.2527 0.0
C2059 C 0.64281 0.09737 0.24499 0.0
C2060 C 0.62951 0.15731 0.25763 0.0
H2061 H 0.60777 0.18485 0.32939 0.0
C2062 C 0.62234 0.17131 0.22997 0.0
C2063 C 0.62456 0.16251 0.29397 0.0
C2064 C 0.63274 0.14878 0.32502 0.0
C2065 C 0.60996 0.19011 0.23762 0.0
C2066 C 0.60428 0.19484 0.27387 0.0
C2067 C 0.61186 0.18108 0.30156 0.0
C2068 C 0.59113 0.21435 0.2839 0.0
C2069 C 0.60338 0.20489 0.20686 0.0
C2070 C 0.5998 0.22982 0.30781 0.0
C2071 C 0.5876 0.2481 0.31794 0.0
C2072 C 0.56633 0.25135 0.3045 0.0
C2073 C 0.55758 0.23576 0.28065 0.0
C2074 C 0.56984 0.21738 0.2706 0.0
H2075 H 0.6137 0.20221 0.18256 0.0
H2076 H 0.5862 0.20143 0.19931 0.0
H2077 H 0.60453 0.22233 0.21481 0.0
H2078 H 0.61614 0.22783 0.31851 0.0
H2079 H 0.59495 0.25974 0.33628 0.0
loop_
_geom_bond_atom_site_label_1
_geom_bond_atom_site_label_2
_geom_bond_distance
_geom_bond_site_symmetry_2
_ccdc_geom_bond_type
Fe0 O2 1.918 . S
Fe0 O5 1.997 . S
Fe0 O6 2.002 . S
Fe0 O11 1.976 . S
Fe0 O14 1.996 . S
Fe1 O2 1.918 . S
Fe1 O9 1.997 . S
Fe1 O12 1.996 . S
Fe1 O16 1.976 . S
Fe1 O19 2.002 . S
O2 Fe0 1.918 . S
O2 Fe1 1.918 . S
O2 Fe3 1.918 . S
Fe3 O2 1.918 . S
Fe3 O4 2.002 . S
Fe3 O13 1.976 . S
Fe3 O17 1.996 . S
Fe3 O20 1.997 . S
O4 Fe3 2.002 . S
O4 C21 1.295 . S
O5 Fe0 1.997 . S
O5 C21 1.235 . S
O6 Fe0 2.002 . S
O6 C7 1.295 . S
C7 O6 1.295 . S
C7 O9 1.235 . S
C8 O13 1.287 . S
C8 O14 1.255 . S
O9 Fe1 1.997 . S
O9 C7 1.235 . S
C10 O16 1.287 . S
C10 O17 1.255 . S
O11 Fe0 1.976 . S
O11 C18 1.287 . S
O12 Fe1 1.996 . S
O12 C18 1.255 . S
O13 Fe3 1.976 . S
O13 C8 1.287 . S
O14 Fe0 1.996 . S
O14 C8 1.255 . S
C15 O19 1.295 . S
C15 O20 1.235 . S
O16 Fe1 1.976 . S
O16 C10 1.287 . S
O17 Fe3 1.996 . S
O17 C10 1.255 . S
C18 O11 1.287 . S
C18 O12 1.255 . S
O19 Fe1 2.002 . S
O19 C15 1.295 . S
O20 Fe3 1.997 . S
O20 C15 1.235 . S
C21 O4 1.295 . S
C21 O5 1.235 . S
Fe22 O24 1.918 . S
Fe22 O27 1.997 . S
Fe22 O28 2.002 . S
Fe22 O33 1.976 1_655 S
Fe22 O36 1.996 . S
Fe23 O24 1.918 . S
Fe23 O31 1.997 . S
Fe23 O34 1.996 1_655 S
Fe23 O38 1.976 . S
Fe23 O41 2.002 . S
O24 Fe22 1.918 . S
O24 Fe23 1.918 . S
O24 Fe25 1.918 . S
Fe25 O24 1.918 . S
Fe25 O26 2.002 . S
Fe25 O35 1.976 . S
Fe25 O39 1.996 . S
Fe25 O42 1.997 . S
O26 Fe25 2.002 . S
O26 C43 1.295 . S
O27 Fe22 1.997 . S
O27 C43 1.235 . S
O28 Fe22 2.002 . S
O28 C29 1.295 . S
C29 O28 1.295 . S
C29 O31 1.235 . S
C30 O35 1.287 . S
C30 O36 1.255 . S
O31 Fe23 1.997 . S
O31 C29 1.235 . S
C32 O38 1.287 . S
C32 O39 1.255 . S
O33 Fe22 1.976 1_455 S
O33 C40 1.287 . S
O34 Fe23 1.996 1_455 S
O34 C40 1.255 . S
O35 Fe25 1.976 . S
O35 C30 1.287 . S
O36 Fe22 1.996 . S
O36 C30 1.255 . S
C37 O41 1.295 . S
C37 O42 1.235 . S
O38 Fe23 1.976 . S
O38 C32 1.287 . S
O39 Fe25 1.996 . S
O39 C32 1.255 . S
C40 O33 1.287 . S
C40 O34 1.255 . S
O41 Fe23 2.002 . S
O41 C37 1.295 . S
O42 Fe25 1.997 . S
O42 C37 1.235 . S
C43 O26 1.295 . S
C43 O27 1.235 . S
Fe44 O46 1.918 . S
Fe44 O49 1.997 . S
Fe44 O50 2.002 . S
Fe44 O55 1.976 1_565 S
Fe44 O58 1.996 . S
Fe45 O46 1.918 . S
Fe45 O53 1.997 . S
Fe45 O56 1.996 1_565 S
Fe45 O60 1.976 . S
Fe45 O63 2.002 . S
O46 Fe44 1.918 . S
O46 Fe45 1.918 . S
O46 Fe47 1.918 . S
Fe47 O46 1.918 . S
Fe47 O48 2.002 . S
Fe47 O57 1.976 . S
Fe47 O61 1.996 . S
Fe47 O64 1.997 . S
O48 Fe47 2.002 . S
O48 C65 1.295 . S
O49 Fe44 1.997 . S
O49 C65 1.235 . S
O50 Fe44 2.002 . S
O50 C51 1.295 . S
C51 O50 1.295 . S
C51 O53 1.235 . S
C52 O57 1.287 . S
C52 O58 1.255 . S
O53 Fe45 1.997 . S
O53 C51 1.235 . S
C54 O60 1.287 . S
C54 O61 1.255 . S
O55 Fe44 1.976 1_545 S
O55 C62 1.287 . S
O56 Fe45 1.996 1_545 S
O56 C62 1.255 . S
O57 Fe47 1.976 . S
O57 C52 1.287 . S
O58 Fe44 1.996 . S
O58 C52 1.255 . S
C59 O63 1.295 . S
C59 O64 1.235 . S
O60 Fe45 1.976 . S
O60 C54 1.287 . S
O61 Fe47 1.996 . S
O61 C54 1.255 . S
C62 O55 1.287 . S
C62 O56 1.255 . S
O63 Fe45 2.002 . S
O63 C59 1.295 . S
O64 Fe47 1.997 . S
O64 C59 1.235 . S
C65 O48 1.295 . S
C65 O49 1.235 . S
Fe66 O68 1.918 . S
Fe66 O71 1.997 . S
Fe66 O72 2.002 . S
Fe66 O77 1.976 . S
Fe66 O80 1.996 . S
Fe67 O68 1.918 . S
Fe67 O75 1.997 . S
Fe67 O78 1.996 . S
Fe67 O82 1.976 . S
Fe67 O85 2.002 . S
O68 Fe66 1.918 . S
O68 Fe67 1.918 . S
O68 Fe69 1.918 . S
Fe69 O68 1.918 . S
Fe69 O70 2.002 . S
Fe69 O79 1.976 . S
Fe69 O83 1.996 . S
Fe69 O86 1.997 . S
O70 Fe69 2.002 . S
O70 C87 1.295 . S
O71 Fe66 1.997 . S
O71 C87 1.235 . S
O72 Fe66 2.002 . S
O72 C73 1.295 . S
C73 O72 1.295 . S
C73 O75 1.235 . S
C74 O79 1.287 . S
C74 O80 1.255 . S
O75 Fe67 1.997 . S
O75 C73 1.235 . S
C76 O82 1.287 . S
C76 O83 1.255 . S
O77 Fe66 1.976 . S
O77 C84 1.287 . S
O78 Fe67 1.996 . S
O78 C84 1.255 . S
O79 Fe69 1.976 . S
O79 C74 1.287 . S
O80 Fe66 1.996 . S
O80 C74 1.255 . S
C81 O85 1.295 . S
C81 O86 1.235 . S
O82 Fe67 1.976 . S
O82 C76 1.287 . S
O83 Fe69 1.996 . S
O83 C76 1.255 . S
C84 O77 1.287 . S
C84 O78 1.255 . S
O85 Fe67 2.002 . S
O85 C81 1.295 . S
O86 Fe69 1.997 . S
O86 C81 1.235 . S
C87 O70 1.295 . S
C87 O71 1.235 . S
Fe88 O90 1.918 . S
Fe88 O93 1.997 . S
Fe88 O94 2.002 . S
Fe88 O99 1.976 . S
Fe88 O102 1.996 . S
Fe89 O90 1.918 . S
Fe89 O97 1.997 . S
Fe89 O100 1.996 . S
Fe89 O104 1.976 . S
Fe89 O107 2.002 . S
O90 Fe88 1.918 . S
O90 Fe89 1.918 . S
O90 Fe91 1.918 . S
Fe91 O90 1.918 . S
Fe91 O92 2.002 . S
Fe91 O101 1.976 . S
Fe91 O105 1.996 . S
Fe91 O108 1.997 . S
O92 Fe91 2.002 . S
O92 C109 1.295 . S
O93 Fe88 1.997 . S
O93 C109 1.235 . S
O94 Fe88 2.002 . S
O94 C95 1.295 . S
C95 O94 1.295 . S
C95 O97 1.235 . S
C96 O101 1.287 . S
C96 O102 1.255 . S
O97 Fe89 1.997 . S
O97 C95 1.235 . S
C98 O104 1.287 . S
C98 O105 1.255 . S
O99 Fe88 1.976 . S
O99 C106 1.287 . S
O100 Fe89 1.996 . S
O100 C106 1.255 . S
O101 Fe91 1.976 . S
O101 C96 1.287 . S
O102 Fe88 1.996 . S
O102 C96 1.255 . S
C103 O107 1.295 . S
C103 O108 1.235 . S
O104 Fe89 1.976 . S
O104 C98 1.287 . S
O105 Fe91 1.996 . S
O105 C98 1.255 . S
C106 O99 1.287 . S
C106 O100 1.255 . S
O107 Fe89 2.002 . S
O107 C103 1.295 . S
O108 Fe91 1.997 . S
O108 C103 1.235 . S
C109 O92 1.295 . S
C109 O93 1.235 . S
Fe110 O112 1.918 . S
Fe110 O115 1.997 . S
Fe110 O116 2.002 . S
Fe110 O121 1.976 . S
Fe110 O124 1.996 . S
Fe111 O112 1.918 . S
Fe111 O119 1.997 . S
Fe111 O122 1.996 . S
Fe111 O126 1.976 1_455 S
Fe111 O129 2.002 . S
O112 Fe110 1.918 . S
O112 Fe111 1.918 . S
O112 Fe113 1.918 . S
Fe113 O112 1.918 . S
Fe113 O114 2.002 . S
Fe113 O123 1.976 . S
Fe113 O127 1.996 1_455 S
Fe113 O130 1.997 . S
O114 Fe113 2.002 . S
O114 C131 1.295 . S
O115 Fe110 1.997 . S
O115 C131 1.235 . S
O116 Fe110 2.002 . S
O116 C117 1.295 . S
C117 O116 1.295 . S
C117 O119 1.235 . S
C118 O123 1.287 . S
C118 O124 1.255 . S
O119 Fe111 1.997 . S
O119 C117 1.235 . S
C120 O126 1.287 . S
C120 O127 1.255 . S
O121 Fe110 1.976 . S
O121 C128 1.287 . S
O122 Fe111 1.996 . S
O122 C128 1.255 . S
O123 Fe113 1.976 . S
O123 C118 1.287 . S
O124 Fe110 1.996 . S
O124 C118 1.255 . S
C125 O129 1.295 . S
C125 O130 1.235 . S
O126 Fe111 1.976 1_655 S
O126 C120 1.287 . S
O127 Fe113 1.996 1_655 S
O127 C120 1.255 . S
C128 O121 1.287 . S
C128 O122 1.255 . S
O129 Fe111 2.002 . S
O129 C125 1.295 . S
O130 Fe113 1.997 . S
O130 C125 1.235 . S
C131 O114 1.295 . S
C131 O115 1.235 . S
Fe132 O134 1.918 . S
Fe132 O137 1.997 . S
Fe132 O138 2.002 . S
Fe132 O143 1.976 . S
Fe132 O146 1.996 . S
Fe133 O134 1.918 . S
Fe133 O141 1.997 . S
Fe133 O144 1.996 . S
Fe133 O148 1.976 1_545 S
Fe133 O151 2.002 . S
O134 Fe132 1.918 . S
O134 Fe133 1.918 . S
O134 Fe135 1.918 . S
Fe135 O134 1.918 . S
Fe135 O136 2.002 . S
Fe135 O145 1.976 . S
Fe135 O149 1.996 1_545 S
Fe135 O152 1.997 . S
O136 Fe135 2.002 . S
O136 C153 1.295 . S
O137 Fe132 1.997 . S
O137 C153 1.235 . S
O138 Fe132 2.002 . S
O138 C139 1.295 . S
C139 O138 1.295 . S
C139 O141 1.235 . S
C140 O145 1.287 . S
C140 O146 1.255 . S
O141 Fe133 1.997 . S
O141 C139 1.235 . S
C142 O148 1.287 . S
C142 O149 1.255 . S
O143 Fe132 1.976 . S
O143 C150 1.287 . S
O144 Fe133 1.996 . S
O144 C150 1.255 . S
O145 Fe135 1.976 . S
O145 C140 1.287 . S
O146 Fe132 1.996 . S
O146 C140 1.255 . S
C147 O151 1.295 . S
C147 O152 1.235 . S
O148 Fe133 1.976 1_565 S
O148 C142 1.287 . S
O149 Fe135 1.996 1_565 S
O149 C142 1.255 . S
C150 O143 1.287 . S
C150 O144 1.255 . S
O151 Fe133 2.002 . S
O151 C147 1.295 . S
O152 Fe135 1.997 . S
O152 C147 1.235 . S
C153 O136 1.295 . S
C153 O137 1.235 . S
Fe154 O156 1.918 . S
Fe154 O159 1.997 . S
Fe154 O160 2.002 . S
Fe154 O165 1.976 . S
Fe154 O168 1.996 . S
Fe155 O156 1.918 . S
Fe155 O163 1.997 . S
Fe155 O166 1.996 . S
Fe155 O170 1.976 . S
Fe155 O173 2.002 . S
O156 Fe154 1.918 . S
O156 Fe155 1.918 . S
O156 Fe157 1.918 . S
Fe157 O156 1.918 . S
Fe157 O158 2.002 . S
Fe157 O167 1.976 . S
Fe157 O171 1.996 . S
Fe157 O174 1.997 . S
O158 Fe157 2.002 . S
O158 C175 1.295 . S
O159 Fe154 1.997 . S
O159 C175 1.235 . S
O160 Fe154 2.002 . S
O160 C161 1.295 . S
C161 O160 1.295 . S
C161 O163 1.235 . S
C162 O167 1.287 . S
C162 O168 1.255 . S
O163 Fe155 1.997 . S
O163 C161 1.235 . S
C164 O170 1.287 . S
C164 O171 1.255 . S
O165 Fe154 1.976 . S
O165 C172 1.287 . S
O166 Fe155 1.996 . S
O166 C172 1.255 . S
O167 Fe157 1.976 . S
O167 C162 1.287 . S
O168 Fe154 1.996 . S
O168 C162 1.255 . S
C169 O173 1.295 . S
C169 O174 1.235 . S
O170 Fe155 1.976 . S
O170 C164 1.287 . S
O171 Fe157 1.996 . S
O171 C164 1.255 . S
C172 O165 1.287 . S
C172 O166 1.255 . S
O173 Fe155 2.002 . S
O173 C169 1.295 . S
O174 Fe157 1.997 . S
O174 C169 1.235 . S
C175 O158 1.295 . S
C175 O159 1.235 . S
Fe176 O178 1.918 . S
Fe176 O181 1.997 . S
Fe176 O182 2.002 . S
Fe176 O187 1.976 . S
Fe176 O190 1.996 . S
Fe177 O178 1.918 . S
Fe177 O185 1.997 . S
Fe177 O188 1.996 . S
Fe177 O192 1.976 . S
Fe177 O195 2.002 . S
O178 Fe176 1.918 . S
O178 Fe177 1.918 . S
O178 Fe179 1.918 . S
Fe179 O178 1.918 . S
Fe179 O180 2.002 . S
Fe179 O189 1.976 . S
Fe179 O193 1.996 . S
Fe179 O196 1.997 . S
O180 Fe179 2.002 . S
O180 C197 1.295 . S
O181 Fe176 1.997 . S
O181 C197 1.235 . S
O182 Fe176 2.002 . S
O182 C183 1.295 . S
C183 O182 1.295 . S
C183 O185 1.235 . S
C184 O189 1.287 . S
C184 O190 1.255 . S
O185 Fe177 1.997 . S
O185 C183 1.235 . S
C186 O192 1.287 . S
C186 O193 1.255 . S
O187 Fe176 1.976 . S
O187 C194 1.287 . S
O188 Fe177 1.996 . S
O188 C194 1.255 . S
O189 Fe179 1.976 . S
O189 C184 1.287 . S
O190 Fe176 1.996 . S
O190 C184 1.255 . S
C191 O195 1.295 . S
C191 O196 1.235 . S
O192 Fe177 1.976 . S
O192 C186 1.287 . S
O193 Fe179 1.996 . S
O193 C186 1.255 . S
C194 O187 1.287 . S
C194 O188 1.255 . S
O195 Fe177 2.002 . S
O195 C191 1.295 . S
O196 Fe179 1.997 . S
O196 C191 1.235 . S
C197 O180 1.295 . S
C197 O181 1.235 . S
Fe198 O200 1.918 . S
Fe198 O203 1.997 . S
Fe198 O204 2.002 . S
Fe198 O209 1.976 1_455 S
Fe198 O212 1.996 . S
Fe199 O200 1.918 . S
Fe199 O207 1.997 . S
Fe199 O210 1.996 1_455 S
Fe199 O214 1.976 . S
Fe199 O217 2.002 . S
O200 Fe198 1.918 . S
O200 Fe199 1.918 . S
O200 Fe201 1.918 . S
Fe201 O200 1.918 . S
Fe201 O202 2.002 . S
Fe201 O211 1.976 . S
Fe201 O215 1.996 . S
Fe201 O218 1.997 . S
O202 Fe201 2.002 . S
O202 C219 1.295 . S
O203 Fe198 1.997 . S
O203 C219 1.235 . S
O204 Fe198 2.002 . S
O204 C205 1.295 . S
C205 O204 1.295 . S
C205 O207 1.235 . S
C206 O211 1.287 . S
C206 O212 1.255 . S
O207 Fe199 1.997 . S
O207 C205 1.235 . S
C208 O214 1.287 . S
C208 O215 1.255 . S
O209 Fe198 1.976 1_655 S
O209 C216 1.287 . S
O210 Fe199 1.996 1_655 S
O210 C216 1.255 . S
O211 Fe201 1.976 . S
O211 C206 1.287 . S
O212 Fe198 1.996 . S
O212 C206 1.255 . S
C213 O217 1.295 . S
C213 O218 1.235 . S
O214 Fe199 1.976 . S
O214 C208 1.287 . S
O215 Fe201 1.996 . S
O215 C208 1.255 . S
C216 O209 1.287 . S
C216 O210 1.255 . S
O217 Fe199 2.002 . S
O217 C213 1.295 . S
O218 Fe201 1.997 . S
O218 C213 1.235 . S
C219 O202 1.295 . S
C219 O203 1.235 . S
Fe220 O222 1.918 . S
Fe220 O225 1.997 . S
Fe220 O226 2.002 . S
Fe220 O231 1.976 1_545 S
Fe220 O234 1.996 . S
Fe221 O222 1.918 . S
Fe221 O229 1.997 . S
Fe221 O232 1.996 1_545 S
Fe221 O236 1.976 . S
Fe221 O239 2.002 . S
O222 Fe220 1.918 . S
O222 Fe221 1.918 . S
O222 Fe223 1.918 . S
Fe223 O222 1.918 . S
Fe223 O224 2.002 . S
Fe223 O233 1.976 . S
Fe223 O237 1.996 . S
Fe223 O240 1.997 . S
O224 Fe223 2.002 . S
O224 C241 1.295 . S
O225 Fe220 1.997 . S
O225 C241 1.235 . S
O226 Fe220 2.002 . S
O226 C227 1.295 . S
C227 O226 1.295 . S
C227 O229 1.235 . S
C228 O233 1.287 . S
C228 O234 1.255 . S
O229 Fe221 1.997 . S
O229 C227 1.235 . S
C230 O236 1.287 . S
C230 O237 1.255 . S
O231 Fe220 1.976 1_565 S
O231 C238 1.287 . S
O232 Fe221 1.996 1_565 S
O232 C238 1.255 . S
O233 Fe223 1.976 . S
O233 C228 1.287 . S
O234 Fe220 1.996 . S
O234 C228 1.255 . S
C235 O239 1.295 . S
C235 O240 1.235 . S
O236 Fe221 1.976 . S
O236 C230 1.287 . S
O237 Fe223 1.996 . S
O237 C230 1.255 . S
C238 O231 1.287 . S
C238 O232 1.255 . S
O239 Fe221 2.002 . S
O239 C235 1.295 . S
O240 Fe223 1.997 . S
O240 C235 1.235 . S
C241 O224 1.295 . S
C241 O225 1.235 . S
Fe242 O244 1.918 . S
Fe242 O247 1.997 . S
Fe242 O248 2.002 . S
Fe242 O253 1.976 . S
Fe242 O256 1.996 . S
Fe243 O244 1.918 . S
Fe243 O251 1.997 . S
Fe243 O254 1.996 . S
Fe243 O258 1.976 . S
Fe243 O261 2.002 . S
O244 Fe242 1.918 . S
O244 Fe243 1.918 . S
O244 Fe245 1.918 . S
Fe245 O244 1.918 . S
Fe245 O246 2.002 . S
Fe245 O255 1.976 . S
Fe245 O259 1.996 . S
Fe245 O262 1.997 . S
O246 Fe245 2.002 . S
O246 C263 1.295 . S
O247 Fe242 1.997 . S
O247 C263 1.235 . S
O248 Fe242 2.002 . S
O248 C249 1.295 . S
C249 O248 1.295 . S
C249 O251 1.235 . S
C250 O255 1.287 . S
C250 O256 1.255 . S
O251 Fe243 1.997 . S
O251 C249 1.235 . S
C252 O258 1.287 . S
C252 O259 1.255 . S
O253 Fe242 1.976 . S
O253 C260 1.287 . S
O254 Fe243 1.996 . S
O254 C260 1.255 . S
O255 Fe245 1.976 . S
O255 C250 1.287 . S
O256 Fe242 1.996 . S
O256 C250 1.255 . S
C257 O261 1.295 . S
C257 O262 1.235 . S
O258 Fe243 1.976 . S
O258 C252 1.287 . S
O259 Fe245 1.996 . S
O259 C252 1.255 . S
C260 O253 1.287 . S
C260 O254 1.255 . S
O261 Fe243 2.002 . S
O261 C257 1.295 . S
O262 Fe245 1.997 . S
O262 C257 1.235 . S
C263 O246 1.295 . S
C263 O247 1.235 . S
Fe264 O266 1.918 . S
Fe264 O269 1.997 . S
Fe264 O270 2.002 . S
Fe264 O275 1.976 . S
Fe264 O278 1.996 . S
Fe265 O266 1.918 . S
Fe265 O273 1.997 . S
Fe265 O276 1.996 . S
Fe265 O280 1.976 . S
Fe265 O283 2.002 . S
O266 Fe264 1.918 . S
O266 Fe265 1.918 . S
O266 Fe267 1.918 . S
Fe267 O266 1.918 . S
Fe267 O268 2.002 . S
Fe267 O277 1.976 . S
Fe267 O281 1.996 . S
Fe267 O284 1.997 . S
O268 Fe267 2.002 . S
O268 C285 1.295 . S
O269 Fe264 1.997 . S
O269 C285 1.235 . S
O270 Fe264 2.002 . S
O270 C271 1.295 . S
C271 O270 1.295 . S
C271 O273 1.235 . S
C272 O277 1.287 . S
C272 O278 1.255 . S
O273 Fe265 1.997 . S
O273 C271 1.235 . S
C274 O280 1.287 . S
C274 O281 1.255 . S
O275 Fe264 1.976 . S
O275 C282 1.287 . S
O276 Fe265 1.996 . S
O276 C282 1.255 . S
O277 Fe267 1.976 . S
O277 C272 1.287 . S
O278 Fe264 1.996 . S
O278 C272 1.255 . S
C279 O283 1.295 . S
C279 O284 1.235 . S
O280 Fe265 1.976 . S
O280 C274 1.287 . S
O281 Fe267 1.996 . S
O281 C274 1.255 . S
C282 O275 1.287 . S
C282 O276 1.255 . S
O283 Fe265 2.002 . S
O283 C279 1.295 . S
O284 Fe267 1.997 . S
O284 C279 1.235 . S
C285 O268 1.295 . S
C285 O269 1.235 . S
Fe286 O288 1.918 . S
Fe286 O291 1.997 . S
Fe286 O292 2.002 . S
Fe286 O297 1.976 . S
Fe286 O300 1.996 . S
Fe287 O288 1.918 . S
Fe287 O295 1.997 . S
Fe287 O298 1.996 . S
Fe287 O302 1.976 1_655 S
Fe287 O305 2.002 . S
O288 Fe286 1.918 . S
O288 Fe287 1.918 . S
O288 Fe289 1.918 . S
Fe289 O288 1.918 . S
Fe289 O290 2.002 . S
Fe289 O299 1.976 . S
Fe289 O303 1.996 1_655 S
Fe289 O306 1.997 . S
O290 Fe289 2.002 . S
O290 C307 1.295 . S
O291 Fe286 1.997 . S
O291 C307 1.235 . S
O292 Fe286 2.002 . S
O292 C293 1.295 . S
C293 O292 1.295 . S
C293 O295 1.235 . S
C294 O299 1.287 . S
C294 O300 1.255 . S
O295 Fe287 1.997 . S
O295 C293 1.235 . S
C296 O302 1.287 . S
C296 O303 1.255 . S
O297 Fe286 1.976 . S
O297 C304 1.287 . S
O298 Fe287 1.996 . S
O298 C304 1.255 . S
O299 Fe289 1.976 . S
O299 C294 1.287 . S
O300 Fe286 1.996 . S
O300 C294 1.255 . S
C301 O305 1.295 . S
C301 O306 1.235 . S
O302 Fe287 1.976 1_455 S
O302 C296 1.287 . S
O303 Fe289 1.996 1_455 S
O303 C296 1.255 . S
C304 O297 1.287 . S
C304 O298 1.255 . S
O305 Fe287 2.002 . S
O305 C301 1.295 . S
O306 Fe289 1.997 . S
O306 C301 1.235 . S
C307 O290 1.295 . S
C307 O291 1.235 . S
Fe308 O310 1.918 . S
Fe308 O313 1.997 . S
Fe308 O314 2.002 . S
Fe308 O319 1.976 . S
Fe308 O322 1.996 1_565 S
Fe309 O310 1.918 . S
Fe309 O317 1.997 . S
Fe309 O320 1.996 . S
Fe309 O324 1.976 . S
Fe309 O327 2.002 . S
O310 Fe308 1.918 . S
O310 Fe309 1.918 . S
O310 Fe311 1.918 . S
Fe311 O310 1.918 . S
Fe311 O312 2.002 . S
Fe311 O321 1.976 1_565 S
Fe311 O325 1.996 . S
Fe311 O328 1.997 . S
O312 Fe311 2.002 . S
O312 C329 1.295 . S
O313 Fe308 1.997 . S
O313 C329 1.235 . S
O314 Fe308 2.002 . S
O314 C315 1.295 . S
C315 O314 1.295 . S
C315 O317 1.235 . S
C316 O321 1.287 . S
C316 O322 1.255 . S
O317 Fe309 1.997 . S
O317 C315 1.235 . S
C318 O324 1.287 . S
C318 O325 1.255 . S
O319 Fe308 1.976 . S
O319 C326 1.287 . S
O320 Fe309 1.996 . S
O320 C326 1.255 . S
O321 Fe311 1.976 1_545 S
O321 C316 1.287 . S
O322 Fe308 1.996 1_545 S
O322 C316 1.255 . S
C323 O327 1.295 . S
C323 O328 1.235 . S
O324 Fe309 1.976 . S
O324 C318 1.287 . S
O325 Fe311 1.996 . S
O325 C318 1.255 . S
C326 O319 1.287 . S
C326 O320 1.255 . S
O327 Fe309 2.002 . S
O327 C323 1.295 . S
O328 Fe311 1.997 . S
O328 C323 1.235 . S
C329 O312 1.295 . S
C329 O313 1.235 . S
Fe330 O332 1.918 . S
Fe330 O335 1.997 . S
Fe330 O336 2.002 . S
Fe330 O341 1.976 . S
Fe330 O344 1.996 . S
Fe331 O332 1.918 . S
Fe331 O339 1.997 . S
Fe331 O342 1.996 . S
Fe331 O346 1.976 . S
Fe331 O349 2.002 . S
O332 Fe330 1.918 . S
O332 Fe331 1.918 . S
O332 Fe333 1.918 . S
Fe333 O332 1.918 . S
Fe333 O334 2.002 . S
Fe333 O343 1.976 . S
Fe333 O347 1.996 . S
Fe333 O350 1.997 . S
O334 Fe333 2.002 . S
O334 C351 1.295 . S
O335 Fe330 1.997 . S
O335 C351 1.235 . S
O336 Fe330 2.002 . S
O336 C337 1.295 . S
C337 O336 1.295 . S
C337 O339 1.235 . S
C338 O343 1.287 . S
C338 O344 1.255 . S
O339 Fe331 1.997 . S
O339 C337 1.235 . S
C340 O346 1.287 . S
C340 O347 1.255 . S
O341 Fe330 1.976 . S
O341 C348 1.287 . S
O342 Fe331 1.996 . S
O342 C348 1.255 . S
O343 Fe333 1.976 . S
O343 C338 1.287 . S
O344 Fe330 1.996 . S
O344 C338 1.255 . S
C345 O349 1.295 . S
C345 O350 1.235 . S
O346 Fe331 1.976 . S
O346 C340 1.287 . S
O347 Fe333 1.996 . S
O347 C340 1.255 . S
C348 O341 1.287 . S
C348 O342 1.255 . S
O349 Fe331 2.002 . S
O349 C345 1.295 . S
O350 Fe333 1.997 . S
O350 C345 1.235 . S
C351 O334 1.295 . S
C351 O335 1.235 . S
H352 C360 0.929 . S
H353 C362 0.930 . S
H354 C364 0.930 . S
H355 C367 0.929 . S
H356 C370 0.930 . S
H357 C372 0.960 . S
H358 C372 0.960 . S
H359 C372 0.960 . S
C360 H352 0.929 . S
C360 C361 1.377 . S
C360 C362 1.384 . S
C361 C360 1.377 . S
C361 C367 1.390 . S
C362 H353 0.930 . S
C362 C360 1.384 . S
C362 C363 1.372 . S
C363 C362 1.372 . S
C363 C364 1.400 . S
C363 C368 1.490 . S
C364 H354 0.930 . S
C364 C363 1.400 . S
C364 C367 1.386 . S
H365 C381 0.930 . S
H366 C382 0.931 . S
C367 H355 0.929 . S
C367 C361 1.390 . S
C367 C364 1.386 . S
C368 C363 1.490 . S
C368 C370 1.395 . S
C368 C371 1.403 . S
H369 C375 0.930 . S
C370 H356 0.930 . S
C370 C368 1.395 . S
C370 C373 1.403 . S
C371 C368 1.403 . S
C371 C372 1.524 . S
C371 C375 1.400 . S
C372 H357 0.960 . S
C372 H358 0.960 . S
C372 H359 0.960 . S
C372 C371 1.524 . S
C373 C370 1.403 . S
C373 C374 1.392 . S
C373 C377 1.495 . S
C374 C373 1.392 . S
C374 C375 1.385 . S
C374 C376 1.478 . S
C375 H369 0.930 . S
C375 C371 1.400 . S
C375 C374 1.385 . S
C376 C374 1.478 . S
C376 C378 1.381 . S
C376 C382 1.383 . S
C377 C373 1.495 . S
C377 H383 0.959 . S
C377 H384 0.961 . S
C377 H385 0.960 . S
C378 C376 1.381 . S
C378 C379 1.394 . S
C378 H386 0.930 . S
C379 C378 1.394 . S
C379 C380 1.383 . S
C379 H387 0.929 . S
C380 C379 1.383 . S
C380 C381 1.377 . S
C381 H365 0.930 . S
C381 C380 1.377 . S
C381 C382 1.379 . S
C382 H366 0.931 . S
C382 C376 1.383 . S
C382 C381 1.379 . S
H383 C377 0.959 . S
H384 C377 0.961 . S
H385 C377 0.960 . S
H386 C378 0.930 . S
H387 C379 0.929 . S
H388 C396 0.929 . S
H389 C398 0.930 . S
H390 C400 0.930 . S
H391 C403 0.929 . S
H392 C406 0.930 . S
H393 C408 0.960 1_556 S
H394 C408 0.960 1_556 S
H395 C408 0.960 . S
C396 H388 0.929 . S
C396 C397 1.377 . S
C396 C398 1.384 . S
C397 C396 1.377 . S
C397 C403 1.390 . S
C398 H389 0.930 . S
C398 C396 1.384 . S
C398 C399 1.372 . S
C399 C398 1.372 . S
C399 C400 1.400 . S
C399 C404 1.490 . S
C400 H390 0.930 . S
C400 C399 1.400 . S
C400 C403 1.386 . S
H401 C417 0.930 . S
H402 C418 0.931 . S
C403 H391 0.929 . S
C403 C397 1.390 . S
C403 C400 1.386 . S
C404 C399 1.490 . S
C404 C406 1.395 . S
C404 C407 1.403 . S
H405 C411 0.930 . S
C406 H392 0.930 . S
C406 C404 1.395 . S
C406 C409 1.403 1_554 S
C407 C404 1.403 . S
C407 C408 1.524 . S
C407 C411 1.400 1_554 S
C408 H393 0.960 1_554 S
C408 H394 0.960 1_554 S
C408 H395 0.960 . S
C408 C407 1.524 . S
C409 C406 1.403 1_556 S
C409 C410 1.392 . S
C409 C413 1.495 . S
C410 C409 1.392 . S
C410 C411 1.385 . S
C410 C412 1.478 . S
C411 H405 0.930 . S
C411 C407 1.400 1_556 S
C411 C410 1.385 . S
C412 C410 1.478 . S
C412 C414 1.381 . S
C412 C418 1.383 . S
C413 C409 1.495 . S
C413 H419 0.959 1_556 S
C413 H420 0.961 1_556 S
C413 H421 0.960 . S
C414 C412 1.381 . S
C414 C415 1.394 . S
C414 H422 0.930 . S
C415 C414 1.394 . S
C415 C416 1.383 . S
C415 H423 0.929 . S
C416 C415 1.383 . S
C416 C417 1.377 . S
C417 H401 0.930 . S
C417 C416 1.377 . S
C417 C418 1.379 . S
C418 H402 0.931 . S
C418 C412 1.383 . S
C418 C417 1.379 . S
H419 C413 0.959 1_554 S
H420 C413 0.961 1_554 S
H421 C413 0.960 . S
H422 C414 0.930 . S
H423 C415 0.929 . S
H424 C432 0.929 . S
H425 C434 0.930 . S
H426 C436 0.930 . S
H427 C439 0.929 . S
H428 C442 0.930 . S
H429 C444 0.960 . S
H430 C444 0.960 . S
H431 C444 0.960 . S
C432 H424 0.929 . S
C432 C433 1.377 . S
C432 C434 1.384 . S
C433 C432 1.377 . S
C433 C439 1.390 . S
C434 H425 0.930 . S
C434 C432 1.384 . S
C434 C435 1.372 . S
C435 C434 1.372 . S
C435 C436 1.400 . S
C435 C440 1.490 . S
C436 H426 0.930 . S
C436 C435 1.400 . S
C436 C439 1.386 . S
H437 C453 0.930 . S
H438 C454 0.931 . S
C439 H427 0.929 . S
C439 C433 1.390 . S
C439 C436 1.386 . S
C440 C435 1.490 . S
C440 C442 1.395 . S
C440 C443 1.403 . S
H441 C447 0.930 . S
C442 H428 0.930 . S
C442 C440 1.395 . S
C442 C445 1.403 . S
C443 C440 1.403 . S
C443 C444 1.524 . S
C443 C447 1.400 . S
C444 H429 0.960 . S
C444 H430 0.960 . S
C444 H431 0.960 . S
C444 C443 1.524 . S
C445 C442 1.403 . S
C445 C446 1.392 . S
C445 C449 1.495 . S
C446 C445 1.392 . S
C446 C447 1.385 . S
C446 C448 1.478 . S
C447 H441 0.930 . S
C447 C443 1.400 . S
C447 C446 1.385 . S
C448 C446 1.478 . S
C448 C450 1.381 . S
C448 C454 1.383 . S
C449 C445 1.495 . S
C449 H455 0.959 . S
C449 H456 0.961 . S
C449 H457 0.960 . S
C450 C448 1.381 . S
C450 C451 1.394 . S
C450 H458 0.930 . S
C451 C450 1.394 . S
C451 C452 1.383 . S
C451 H459 0.929 . S
C452 C451 1.383 . S
C452 C453 1.377 . S
C453 H437 0.930 . S
C453 C452 1.377 . S
C453 C454 1.379 . S
C454 H438 0.931 . S
C454 C448 1.383 . S
C454 C453 1.379 . S
H455 C449 0.959 . S
H456 C449 0.961 . S
H457 C449 0.960 . S
H458 C450 0.930 . S
H459 C451 0.929 . S
H460 C468 0.929 . S
H461 C470 0.930 . S
H462 C472 0.930 . S
H463 C475 0.929 . S
H464 C478 0.930 . S
H465 C480 0.960 1_554 S
H466 C480 0.960 . S
H467 C480 0.960 . S
C468 H460 0.929 . S
C468 C469 1.377 . S
C468 C470 1.384 . S
C469 C468 1.377 . S
C469 C475 1.390 . S
C470 H461 0.930 . S
C470 C468 1.384 . S
C470 C471 1.372 . S
C471 C470 1.372 . S
C471 C472 1.400 . S
C471 C476 1.490 . S
C472 H462 0.930 . S
C472 C471 1.400 . S
C472 C475 1.386 . S
H473 C489 0.930 . S
H474 C490 0.931 . S
C475 H463 0.929 . S
C475 C469 1.390 . S
C475 C472 1.386 . S
C476 C471 1.490 . S
C476 C478 1.395 . S
C476 C479 1.403 . S
H477 C483 0.930 . S
C478 H464 0.930 . S
C478 C476 1.395 . S
C478 C481 1.403 1_556 S
C479 C476 1.403 . S
C479 C480 1.524 . S
C479 C483 1.400 1_556 S
C480 H465 0.960 1_556 S
C480 H466 0.960 . S
C480 H467 0.960 . S
C480 C479 1.524 . S
C481 C478 1.403 1_554 S
C481 C482 1.392 . S
C481 C485 1.495 . S
C482 C481 1.392 . S
C482 C483 1.385 . S
C482 C484 1.478 . S
C483 H477 0.930 . S
C483 C479 1.400 1_554 S
C483 C482 1.385 . S
C484 C482 1.478 . S
C484 C486 1.381 . S
C484 C490 1.383 . S
C485 C481 1.495 . S
C485 H491 0.959 1_554 S
C485 H492 0.961 . S
C485 H493 0.960 . S
C486 C484 1.381 . S
C486 C487 1.394 . S
C486 H494 0.930 . S
C487 C486 1.394 . S
C487 C488 1.383 . S
C487 H495 0.929 . S
C488 C487 1.383 . S
C488 C489 1.377 . S
C489 H473 0.930 . S
C489 C488 1.377 . S
C489 C490 1.379 . S
C490 H474 0.931 . S
C490 C484 1.383 . S
C490 C489 1.379 . S
H491 C485 0.959 1_556 S
H492 C485 0.961 . S
H493 C485 0.960 . S
H494 C486 0.930 . S
H495 C487 0.929 . S
H496 C504 0.929 . S
H497 C506 0.930 . S
H498 C508 0.930 . S
H499 C511 0.929 . S
H500 C514 0.930 . S
H501 C516 0.960 . S
H502 C516 0.960 . S
H503 C516 0.960 . S
C504 H496 0.929 . S
C504 C505 1.377 . S
C504 C506 1.384 . S
C505 C504 1.377 . S
C505 C511 1.390 . S
C506 H497 0.930 . S
C506 C504 1.384 . S
C506 C507 1.372 . S
C507 C506 1.372 . S
C507 C508 1.400 . S
C507 C512 1.490 . S
C508 H498 0.930 . S
C508 C507 1.400 . S
C508 C511 1.386 . S
H509 C525 0.930 . S
H510 C526 0.931 . S
C511 H499 0.929 . S
C511 C505 1.390 . S
C511 C508 1.386 . S
C512 C507 1.490 . S
C512 C514 1.395 . S
C512 C515 1.403 . S
H513 C519 0.930 . S
C514 H500 0.930 . S
C514 C512 1.395 . S
C514 C517 1.403 . S
C515 C512 1.403 . S
C515 C516 1.524 . S
C515 C519 1.400 . S
C516 H501 0.960 . S
C516 H502 0.960 . S
C516 H503 0.960 . S
C516 C515 1.524 . S
C517 C514 1.403 . S
C517 C518 1.392 . S
C517 C521 1.495 . S
C518 C517 1.392 . S
C518 C519 1.385 . S
C518 C520 1.478 . S
C519 H513 0.930 . S
C519 C515 1.400 . S
C519 C518 1.385 . S
C520 C518 1.478 . S
C520 C522 1.381 . S
C520 C526 1.383 . S
C521 C517 1.495 . S
C521 H527 0.959 . S
C521 H528 0.961 . S
C521 H529 0.960 . S
C522 C520 1.381 . S
C522 C523 1.394 . S
C522 H530 0.930 . S
C523 C522 1.394 . S
C523 C524 1.383 . S
C523 H531 0.929 . S
C524 C523 1.383 . S
C524 C525 1.377 . S
C525 H509 0.930 . S
C525 C524 1.377 . S
C525 C526 1.379 . S
C526 H510 0.931 . S
C526 C520 1.383 . S
C526 C525 1.379 . S
H527 C521 0.959 . S
H528 C521 0.961 . S
H529 C521 0.960 . S
H530 C522 0.930 . S
H531 C523 0.929 . S
H532 C540 0.929 . S
H533 C542 0.930 . S
H534 C544 0.930 . S
H535 C547 0.929 . S
H536 C550 0.930 . S
H537 C552 0.960 . S
H538 C552 0.960 . S
H539 C552 0.960 . S
C540 H532 0.929 . S
C540 C541 1.377 . S
C540 C542 1.384 . S
C541 C540 1.377 . S
C541 C547 1.390 . S
C542 H533 0.930 . S
C542 C540 1.384 . S
C542 C543 1.372 . S
C543 C542 1.372 . S
C543 C544 1.400 . S
C543 C548 1.490 . S
C544 H534 0.930 . S
C544 C543 1.400 . S
C544 C547 1.386 . S
H545 C561 0.930 . S
H546 C562 0.931 . S
C547 H535 0.929 . S
C547 C541 1.390 . S
C547 C544 1.386 . S
C548 C543 1.490 . S
C548 C550 1.395 . S
C548 C551 1.403 . S
H549 C555 0.930 . S
C550 H536 0.930 . S
C550 C548 1.395 . S
C550 C553 1.403 1_556 S
C551 C548 1.403 . S
C551 C552 1.524 . S
C551 C555 1.400 1_556 S
C552 H537 0.960 . S
C552 H538 0.960 . S
C552 H539 0.960 . S
C552 C551 1.524 . S
C553 C550 1.403 1_554 S
C553 C554 1.392 . S
C553 C557 1.495 . S
C554 C553 1.392 . S
C554 C555 1.385 . S
C554 C556 1.478 . S
C555 H549 0.930 . S
C555 C551 1.400 1_554 S
C555 C554 1.385 . S
C556 C554 1.478 . S
C556 C558 1.381 . S
C556 C562 1.383 . S
C557 C553 1.495 . S
C557 H563 0.959 . S
C557 H564 0.961 . S
C557 H565 0.960 . S
C558 C556 1.381 . S
C558 C559 1.394 . S
C558 H566 0.930 . S
C559 C558 1.394 . S
C559 C560 1.383 . S
C559 H567 0.929 . S
C560 C559 1.383 . S
C560 C561 1.377 . S
C561 H545 0.930 . S
C561 C560 1.377 . S
C561 C562 1.379 . S
C562 H546 0.931 . S
C562 C556 1.383 . S
C562 C561 1.379 . S
H563 C557 0.959 . S
H564 C557 0.961 . S
H565 C557 0.960 . S
H566 C558 0.930 . S
H567 C559 0.929 . S
H568 C576 0.929 . S
H569 C578 0.930 . S
H570 C580 0.930 . S
H571 C583 0.929 . S
H572 C586 0.930 . S
H573 C588 0.960 . S
H574 C588 0.960 . S
H575 C588 0.960 . S
C576 H568 0.929 . S
C576 C577 1.377 . S
C576 C578 1.384 . S
C577 C576 1.377 . S
C577 C583 1.390 . S
C578 H569 0.930 . S
C578 C576 1.384 . S
C578 C579 1.372 . S
C579 C578 1.372 . S
C579 C580 1.400 . S
C579 C584 1.490 . S
C580 H570 0.930 . S
C580 C579 1.400 . S
C580 C583 1.386 . S
H581 C597 0.930 . S
H582 C598 0.931 . S
C583 H571 0.929 . S
C583 C577 1.390 . S
C583 C580 1.386 . S
C584 C579 1.490 . S
C584 C586 1.395 . S
C584 C587 1.403 . S
H585 C591 0.930 . S
C586 H572 0.930 . S
C586 C584 1.395 . S
C586 C589 1.403 . S
C587 C584 1.403 . S
C587 C588 1.524 . S
C587 C591 1.400 . S
C588 H573 0.960 . S
C588 H574 0.960 . S
C588 H575 0.960 . S
C588 C587 1.524 . S
C589 C586 1.403 . S
C589 C590 1.392 . S
C589 C593 1.495 . S
C590 C589 1.392 . S
C590 C591 1.385 . S
C590 C592 1.478 . S
C591 H585 0.930 . S
C591 C587 1.400 . S
C591 C590 1.385 . S
C592 C590 1.478 . S
C592 C594 1.381 . S
C592 C598 1.383 . S
C593 C589 1.495 . S
C593 H599 0.959 . S
C593 H600 0.961 . S
C593 H601 0.960 . S
C594 C592 1.381 . S
C594 C595 1.394 . S
C594 H602 0.930 . S
C595 C594 1.394 . S
C595 C596 1.383 . S
C595 H603 0.929 . S
C596 C595 1.383 . S
C596 C597 1.377 . S
C597 H581 0.930 . S
C597 C596 1.377 . S
C597 C598 1.379 . S
C598 H582 0.931 . S
C598 C592 1.383 . S
C598 C597 1.379 . S
H599 C593 0.959 . S
H600 C593 0.961 . S
H601 C593 0.960 . S
H602 C594 0.930 . S
H603 C595 0.929 . S
H604 C612 0.929 . S
H605 C614 0.930 . S
H606 C616 0.930 . S
H607 C619 0.929 . S
H608 C622 0.930 . S
H609 C624 0.960 . S
H610 C624 0.960 . S
H611 C624 0.960 . S
C612 H604 0.929 . S
C612 C613 1.377 . S
C612 C614 1.384 . S
C613 C612 1.377 . S
C613 C619 1.390 . S
C614 H605 0.930 . S
C614 C612 1.384 . S
C614 C615 1.372 . S
C615 C614 1.372 . S
C615 C616 1.400 . S
C615 C620 1.490 . S
C616 H606 0.930 . S
C616 C615 1.400 . S
C616 C619 1.386 . S
H617 C633 0.930 . S
H618 C634 0.931 . S
C619 H607 0.929 . S
C619 C613 1.390 . S
C619 C616 1.386 . S
C620 C615 1.490 . S
C620 C622 1.395 . S
C620 C623 1.403 1_556 S
H621 C627 0.930 . S
C622 H608 0.930 . S
C622 C620 1.395 . S
C622 C625 1.403 . S
C623 C620 1.403 1_554 S
C623 C624 1.524 . S
C623 C627 1.400 . S
C624 H609 0.960 . S
C624 H610 0.960 . S
C624 H611 0.960 . S
C624 C623 1.524 . S
C625 C622 1.403 . S
C625 C626 1.392 1_556 S
C625 C629 1.495 . S
C626 C625 1.392 1_554 S
C626 C627 1.385 . S
C626 C628 1.478 . S
C627 H621 0.930 . S
C627 C623 1.400 . S
C627 C626 1.385 . S
C628 C626 1.478 . S
C628 C630 1.381 . S
C628 C634 1.383 . S
C629 C625 1.495 . S
C629 H635 0.959 . S
C629 H636 0.961 . S
C629 H637 0.960 . S
C630 C628 1.381 . S
C630 C631 1.394 . S
C630 H638 0.930 . S
C631 C630 1.394 . S
C631 C632 1.383 . S
C631 H639 0.929 . S
C632 C631 1.383 . S
C632 C633 1.377 . S
C633 H617 0.930 . S
C633 C632 1.377 . S
C633 C634 1.379 . S
C634 H618 0.931 . S
C634 C628 1.383 . S
C634 C633 1.379 . S
H635 C629 0.959 . S
H636 C629 0.961 . S
H637 C629 0.960 . S
H638 C630 0.930 . S
H639 C631 0.929 . S
H640 C648 0.929 . S
H641 C650 0.930 . S
H642 C652 0.930 . S
H643 C655 0.929 . S
H644 C658 0.930 . S
H645 C660 0.960 . S
H646 C660 0.960 . S
H647 C660 0.960 . S
C648 H640 0.929 . S
C648 C649 1.377 . S
C648 C650 1.384 . S
C649 C648 1.377 . S
C649 C655 1.390 . S
C650 H641 0.930 . S
C650 C648 1.384 . S
C650 C651 1.372 . S
C651 C650 1.372 . S
C651 C652 1.400 . S
C651 C656 1.490 . S
C652 H642 0.930 . S
C652 C651 1.400 . S
C652 C655 1.386 . S
H653 C669 0.930 . S
H654 C670 0.931 . S
C655 H643 0.929 . S
C655 C649 1.390 . S
C655 C652 1.386 . S
C656 C651 1.490 . S
C656 C658 1.395 . S
C656 C659 1.403 . S
H657 C663 0.930 . S
C658 H644 0.930 . S
C658 C656 1.395 . S
C658 C661 1.403 . S
C659 C656 1.403 . S
C659 C660 1.524 . S
C659 C663 1.400 . S
C660 H645 0.960 . S
C660 H646 0.960 . S
C660 H647 0.960 . S
C660 C659 1.524 . S
C661 C658 1.403 . S
C661 C662 1.392 . S
C661 C665 1.495 . S
C662 C661 1.392 . S
C662 C663 1.385 . S
C662 C664 1.478 . S
C663 H657 0.930 . S
C663 C659 1.400 . S
C663 C662 1.385 . S
C664 C662 1.478 . S
C664 C666 1.381 . S
C664 C670 1.383 . S
C665 C661 1.495 . S
C665 H671 0.959 . S
C665 H672 0.961 . S
C665 H673 0.960 . S
C666 C664 1.381 . S
C666 C667 1.394 . S
C666 H674 0.930 . S
C667 C666 1.394 . S
C667 C668 1.383 . S
C667 H675 0.929 . S
C668 C667 1.383 . S
C668 C669 1.377 . S
C669 H653 0.930 . S
C669 C668 1.377 . S
C669 C670 1.379 . S
C670 H654 0.931 . S
C670 C664 1.383 . S
C670 C669 1.379 . S
H671 C665 0.959 . S
H672 C665 0.961 . S
H673 C665 0.960 . S
H674 C666 0.930 . S
H675 C667 0.929 . S
H676 C684 0.929 . S
H677 C686 0.930 . S
H678 C688 0.930 . S
H679 C691 0.929 . S
H680 C694 0.930 . S
H681 C696 0.960 . S
H682 C696 0.960 . S
H683 C696 0.960 . S
C684 H676 0.929 . S
C684 C685 1.377 . S
C684 C686 1.384 . S
C685 C684 1.377 . S
C685 C691 1.390 . S
C686 H677 0.930 . S
C686 C684 1.384 . S
C686 C687 1.372 . S
C687 C686 1.372 . S
C687 C688 1.400 . S
C687 C692 1.490 . S
C688 H678 0.930 . S
C688 C687 1.400 . S
C688 C691 1.386 . S
H689 C705 0.930 . S
H690 C706 0.931 . S
C691 H679 0.929 . S
C691 C685 1.390 . S
C691 C688 1.386 . S
C692 C687 1.490 . S
C692 C694 1.395 . S
C692 C695 1.403 . S
H693 C699 0.930 . S
C694 H680 0.930 . S
C694 C692 1.395 . S
C694 C697 1.403 . S
C695 C692 1.403 . S
C695 C696 1.524 . S
C695 C699 1.400 . S
C696 H681 0.960 . S
C696 H682 0.960 . S
C696 H683 0.960 . S
C696 C695 1.524 . S
C697 C694 1.403 . S
C697 C698 1.392 . S
C697 C701 1.495 . S
C698 C697 1.392 . S
C698 C699 1.385 . S
C698 C700 1.478 . S
C699 H693 0.930 . S
C699 C695 1.400 . S
C699 C698 1.385 . S
C700 C698 1.478 . S
C700 C702 1.381 . S
C700 C706 1.383 . S
C701 C697 1.495 . S
C701 H707 0.959 . S
C701 H708 0.961 . S
C701 H709 0.960 . S
C702 C700 1.381 . S
C702 C703 1.394 . S
C702 H710 0.930 . S
C703 C702 1.394 . S
C703 C704 1.383 . S
C703 H711 0.929 . S
C704 C703 1.383 . S
C704 C705 1.377 . S
C705 H689 0.930 . S
C705 C704 1.377 . S
C705 C706 1.379 . S
C706 H690 0.931 . S
C706 C700 1.383 . S
C706 C705 1.379 . S
H707 C701 0.959 . S
H708 C701 0.961 . S
H709 C701 0.960 . S
H710 C702 0.930 . S
H711 C703 0.929 . S
H712 C720 0.929 . S
H713 C722 0.930 . S
H714 C724 0.930 . S
H715 C727 0.929 . S
H716 C730 0.930 . S
H717 C732 0.960 . S
H718 C732 0.960 . S
H719 C732 0.960 . S
C720 H712 0.929 . S
C720 C721 1.377 . S
C720 C722 1.384 . S
C721 C720 1.377 . S
C721 C727 1.390 . S
C722 H713 0.930 . S
C722 C720 1.384 . S
C722 C723 1.372 . S
C723 C722 1.372 . S
C723 C724 1.400 . S
C723 C728 1.490 . S
C724 H714 0.930 . S
C724 C723 1.400 . S
C724 C727 1.386 . S
H725 C741 0.930 . S
H726 C742 0.931 . S
C727 H715 0.929 . S
C727 C721 1.390 . S
C727 C724 1.386 . S
C728 C723 1.490 . S
C728 C730 1.395 . S
C728 C731 1.403 . S
H729 C735 0.930 . S
C730 H716 0.930 . S
C730 C728 1.395 . S
C730 C733 1.403 . S
C731 C728 1.403 . S
C731 C732 1.524 . S
C731 C735 1.400 . S
C732 H717 0.960 . S
C732 H718 0.960 . S
C732 H719 0.960 . S
C732 C731 1.524 . S
C733 C730 1.403 . S
C733 C734 1.392 . S
C733 C737 1.495 . S
C734 C733 1.392 . S
C734 C735 1.385 . S
C734 C736 1.478 . S
C735 H729 0.930 . S
C735 C731 1.400 . S
C735 C734 1.385 . S
C736 C734 1.478 . S
C736 C738 1.381 . S
C736 C742 1.383 . S
C737 C733 1.495 . S
C737 H743 0.959 . S
C737 H744 0.961 . S
C737 H745 0.960 . S
C738 C736 1.381 . S
C738 C739 1.394 . S
C738 H746 0.930 . S
C739 C738 1.394 . S
C739 C740 1.383 . S
C739 H747 0.929 . S
C740 C739 1.383 . S
C740 C741 1.377 . S
C741 H725 0.930 . S
C741 C740 1.377 . S
C741 C742 1.379 . S
C742 H726 0.931 . S
C742 C736 1.383 . S
C742 C741 1.379 . S
H743 C737 0.959 . S
H744 C737 0.961 . S
H745 C737 0.960 . S
H746 C738 0.930 . S
H747 C739 0.929 . S
H748 C756 0.929 . S
H749 C758 0.930 . S
H750 C760 0.930 . S
H751 C763 0.929 . S
H752 C766 0.930 . S
H753 C768 0.960 . S
H754 C768 0.960 . S
H755 C768 0.960 . S
C756 H748 0.929 . S
C756 C757 1.377 . S
C756 C758 1.384 . S
C757 C756 1.377 . S
C757 C763 1.390 . S
C758 H749 0.930 . S
C758 C756 1.384 . S
C758 C759 1.372 . S
C759 C758 1.372 . S
C759 C760 1.400 . S
C759 C764 1.490 . S
C760 H750 0.930 . S
C760 C759 1.400 . S
C760 C763 1.386 . S
H761 C777 0.930 . S
H762 C778 0.931 . S
C763 H751 0.929 . S
C763 C757 1.390 . S
C763 C760 1.386 . S
C764 C759 1.490 . S
C764 C766 1.395 . S
C764 C767 1.403 . S
H765 C771 0.930 . S
C766 H752 0.930 . S
C766 C764 1.395 . S
C766 C769 1.403 . S
C767 C764 1.403 . S
C767 C768 1.524 . S
C767 C771 1.400 . S
C768 H753 0.960 . S
C768 H754 0.960 . S
C768 H755 0.960 . S
C768 C767 1.524 . S
C769 C766 1.403 . S
C769 C770 1.392 . S
C769 C773 1.495 . S
C770 C769 1.392 . S
C770 C771 1.385 . S
C770 C772 1.478 . S
C771 H765 0.930 . S
C771 C767 1.400 . S
C771 C770 1.385 . S
C772 C770 1.478 . S
C772 C774 1.381 . S
C772 C778 1.383 . S
C773 C769 1.495 . S
C773 H779 0.959 . S
C773 H780 0.961 . S
C773 H781 0.960 . S
C774 C772 1.381 . S
C774 C775 1.394 . S
C774 H782 0.930 . S
C775 C774 1.394 . S
C775 C776 1.383 . S
C775 H783 0.929 . S
C776 C775 1.383 . S
C776 C777 1.377 . S
C777 H761 0.930 . S
C777 C776 1.377 . S
C777 C778 1.379 . S
C778 H762 0.931 . S
C778 C772 1.383 . S
C778 C777 1.379 . S
H779 C773 0.959 . S
H780 C773 0.961 . S
H781 C773 0.960 . S
H782 C774 0.930 . S
H783 C775 0.929 . S
H784 C792 0.929 . S
H785 C794 0.930 . S
H786 C796 0.930 . S
H787 C799 0.929 . S
H788 C802 0.930 . S
H789 C804 0.960 . S
H790 C804 0.960 . S
H791 C804 0.960 . S
C792 H784 0.929 . S
C792 C793 1.377 . S
C792 C794 1.384 . S
C793 C792 1.377 . S
C793 C799 1.390 . S
C794 H785 0.930 . S
C794 C792 1.384 . S
C794 C795 1.372 . S
C795 C794 1.372 . S
C795 C796 1.400 . S
C795 C800 1.490 . S
C796 H786 0.930 . S
C796 C795 1.400 . S
C796 C799 1.386 . S
H797 C813 0.930 . S
H798 C814 0.931 . S
C799 H787 0.929 . S
C799 C793 1.390 . S
C799 C796 1.386 . S
C800 C795 1.490 . S
C800 C802 1.395 . S
C800 C803 1.403 . S
H801 C807 0.930 . S
C802 H788 0.930 . S
C802 C800 1.395 . S
C802 C805 1.403 . S
C803 C800 1.403 . S
C803 C804 1.524 . S
C803 C807 1.400 . S
C804 H789 0.960 . S
C804 H790 0.960 . S
C804 H791 0.960 . S
C804 C803 1.524 . S
C805 C802 1.403 . S
C805 C806 1.392 . S
C805 C809 1.495 . S
C806 C805 1.392 . S
C806 C807 1.385 . S
C806 C808 1.478 . S
C807 H801 0.930 . S
C807 C803 1.400 . S
C807 C806 1.385 . S
C808 C806 1.478 . S
C808 C810 1.381 . S
C808 C814 1.383 . S
C809 C805 1.495 . S
C809 H815 0.959 . S
C809 H816 0.961 . S
C809 H817 0.960 . S
C810 C808 1.381 . S
C810 C811 1.394 . S
C810 H818 0.930 . S
C811 C810 1.394 . S
C811 C812 1.383 . S
C811 H819 0.929 . S
C812 C811 1.383 . S
C812 C813 1.377 . S
C813 H797 0.930 . S
C813 C812 1.377 . S
C813 C814 1.379 . S
C814 H798 0.931 . S
C814 C808 1.383 . S
C814 C813 1.379 . S
H815 C809 0.959 . S
H816 C809 0.961 . S
H817 C809 0.960 . S
H818 C810 0.930 . S
H819 C811 0.929 . S
H820 C828 0.929 . S
H821 C830 0.930 . S
H822 C832 0.930 . S
H823 C835 0.929 . S
H824 C838 0.930 . S
H825 C840 0.960 . S
H826 C840 0.960 . S
H827 C840 0.960 . S
C828 H820 0.929 . S
C828 C829 1.377 . S
C828 C830 1.384 . S
C829 C828 1.377 . S
C829 C835 1.390 . S
C830 H821 0.930 . S
C830 C828 1.384 . S
C830 C831 1.372 . S
C831 C830 1.372 . S
C831 C832 1.400 . S
C831 C836 1.490 . S
C832 H822 0.930 . S
C832 C831 1.400 . S
C832 C835 1.386 . S
H833 C849 0.930 . S
H834 C850 0.931 . S
C835 H823 0.929 . S
C835 C829 1.390 . S
C835 C832 1.386 . S
C836 C831 1.490 . S
C836 C838 1.395 . S
C836 C839 1.403 . S
H837 C843 0.930 . S
C838 H824 0.930 . S
C838 C836 1.395 . S
C838 C841 1.403 . S
C839 C836 1.403 . S
C839 C840 1.524 . S
C839 C843 1.400 . S
C840 H825 0.960 . S
C840 H826 0.960 . S
C840 H827 0.960 . S
C840 C839 1.524 . S
C841 C838 1.403 . S
C841 C842 1.392 . S
C841 C845 1.495 . S
C842 C841 1.392 . S
C842 C843 1.385 . S
C842 C844 1.478 . S
C843 H837 0.930 . S
C843 C839 1.400 . S
C843 C842 1.385 . S
C844 C842 1.478 . S
C844 C846 1.381 . S
C844 C850 1.383 . S
C845 C841 1.495 . S
C845 H851 0.959 . S
C845 H852 0.961 . S
C845 H853 0.960 . S
C846 C844 1.381 . S
C846 C847 1.394 . S
C846 H854 0.930 . S
C847 C846 1.394 . S
C847 C848 1.383 . S
C847 H855 0.929 . S
C848 C847 1.383 . S
C848 C849 1.377 . S
C849 H833 0.930 . S
C849 C848 1.377 . S
C849 C850 1.379 . S
C850 H834 0.931 . S
C850 C844 1.383 . S
C850 C849 1.379 . S
H851 C845 0.959 . S
H852 C845 0.961 . S
H853 C845 0.960 . S
H854 C846 0.930 . S
H855 C847 0.929 . S
H856 C864 0.929 . S
H857 C866 0.930 . S
H858 C868 0.930 . S
H859 C871 0.929 . S
H860 C874 0.930 . S
H861 C876 0.960 . S
H862 C876 0.960 . S
H863 C876 0.960 . S
C864 H856 0.929 . S
C864 C865 1.377 . S
C864 C866 1.384 . S
C865 C864 1.377 . S
C865 C871 1.390 . S
C866 H857 0.930 . S
C866 C864 1.384 . S
C866 C867 1.372 . S
C867 C866 1.372 . S
C867 C868 1.400 . S
C867 C872 1.490 . S
C868 H858 0.930 . S
C868 C867 1.400 . S
C868 C871 1.386 . S
H869 C885 0.930 . S
H870 C886 0.931 . S
C871 H859 0.929 . S
C871 C865 1.390 . S
C871 C868 1.386 . S
C872 C867 1.490 . S
C872 C874 1.395 . S
C872 C875 1.403 . S
H873 C879 0.930 . S
C874 H860 0.930 . S
C874 C872 1.395 . S
C874 C877 1.403 . S
C875 C872 1.403 . S
C875 C876 1.524 . S
C875 C879 1.400 . S
C876 H861 0.960 . S
C876 H862 0.960 . S
C876 H863 0.960 . S
C876 C875 1.524 . S
C877 C874 1.403 . S
C877 C878 1.392 . S
C877 C881 1.495 . S
C878 C877 1.392 . S
C878 C879 1.385 . S
C878 C880 1.478 . S
C879 H873 0.930 . S
C879 C875 1.400 . S
C879 C878 1.385 . S
C880 C878 1.478 . S
C880 C882 1.381 . S
C880 C886 1.383 . S
C881 C877 1.495 . S
C881 H887 0.959 . S
C881 H888 0.961 . S
C881 H889 0.960 . S
C882 C880 1.381 . S
C882 C883 1.394 . S
C882 H890 0.930 . S
C883 C882 1.394 . S
C883 C884 1.383 . S
C883 H891 0.929 . S
C884 C883 1.383 . S
C884 C885 1.377 . S
C885 H869 0.930 . S
C885 C884 1.377 . S
C885 C886 1.379 . S
C886 H870 0.931 . S
C886 C880 1.383 . S
C886 C885 1.379 . S
H887 C881 0.959 . S
H888 C881 0.961 . S
H889 C881 0.960 . S
H890 C882 0.930 . S
H891 C883 0.929 . S
H892 C900 0.929 . S
H893 C902 0.930 . S
H894 C904 0.930 . S
H895 C907 0.929 . S
H896 C910 0.930 . S
H897 C912 0.960 . S
H898 C912 0.960 . S
H899 C912 0.960 . S
C900 H892 0.929 . S
C900 C901 1.377 . S
C900 C902 1.384 . S
C901 C900 1.377 . S
C901 C907 1.390 . S
C902 H893 0.930 . S
C902 C900 1.384 . S
C902 C903 1.372 . S
C903 C902 1.372 . S
C903 C904 1.400 . S
C903 C908 1.490 . S
C904 H894 0.930 . S
C904 C903 1.400 . S
C904 C907 1.386 . S
H905 C921 0.930 . S
H906 C922 0.931 . S
C907 H895 0.929 . S
C907 C901 1.390 . S
C907 C904 1.386 . S
C908 C903 1.490 . S
C908 C910 1.395 . S
C908 C911 1.403 . S
H909 C915 0.930 . S
C910 H896 0.930 . S
C910 C908 1.395 . S
C910 C913 1.403 . S
C911 C908 1.403 . S
C911 C912 1.524 . S
C911 C915 1.400 . S
C912 H897 0.960 . S
C912 H898 0.960 . S
C912 H899 0.960 . S
C912 C911 1.524 . S
C913 C910 1.403 . S
C913 C914 1.392 . S
C913 C917 1.495 . S
C914 C913 1.392 . S
C914 C915 1.385 . S
C914 C916 1.478 . S
C915 H909 0.930 . S
C915 C911 1.400 . S
C915 C914 1.385 . S
C916 C914 1.478 . S
C916 C918 1.381 . S
C916 C922 1.383 . S
C917 C913 1.495 . S
C917 H923 0.959 . S
C917 H924 0.961 . S
C917 H925 0.960 . S
C918 C916 1.381 . S
C918 C919 1.394 . S
C918 H926 0.930 . S
C919 C918 1.394 . S
C919 C920 1.383 . S
C919 H927 0.929 . S
C920 C919 1.383 . S
C920 C921 1.377 . S
C921 H905 0.930 . S
C921 C920 1.377 . S
C921 C922 1.379 . S
C922 H906 0.931 . S
C922 C916 1.383 . S
C922 C921 1.379 . S
H923 C917 0.959 . S
H924 C917 0.961 . S
H925 C917 0.960 . S
H926 C918 0.930 . S
H927 C919 0.929 . S
H928 C936 0.929 . S
H929 C938 0.930 . S
H930 C940 0.930 . S
H931 C943 0.929 . S
H932 C946 0.930 . S
H933 C948 0.960 . S
H934 C948 0.960 . S
H935 C948 0.960 . S
C936 H928 0.929 . S
C936 C937 1.377 . S
C936 C938 1.384 . S
C937 C936 1.377 . S
C937 C943 1.390 . S
C938 H929 0.930 . S
C938 C936 1.384 . S
C938 C939 1.380 . S
C939 C938 1.380 . S
C939 C940 1.407 . S
C939 C944 1.475 1_556 S
C940 H930 0.930 . S
C940 C939 1.407 . S
C940 C943 1.386 . S
H941 C957 0.930 . S
H942 C958 0.931 . S
C943 H931 0.929 . S
C943 C937 1.390 . S
C943 C940 1.386 . S
C944 C939 1.475 1_554 S
C944 C946 1.395 . S
C944 C947 1.403 . S
H945 C951 0.930 . S
C946 H932 0.930 . S
C946 C944 1.395 . S
C946 C949 1.403 . S
C947 C944 1.403 . S
C947 C948 1.524 . S
C947 C951 1.400 . S
C948 H933 0.960 . S
C948 H934 0.960 . S
C948 H935 0.960 . S
C948 C947 1.524 . S
C949 C946 1.403 . S
C949 C950 1.392 . S
C949 C953 1.495 . S
C950 C949 1.392 . S
C950 C951 1.385 . S
C950 C952 1.478 . S
C951 H945 0.930 . S
C951 C947 1.400 . S
C951 C950 1.385 . S
C952 C950 1.478 . S
C952 C954 1.381 . S
C952 C958 1.383 . S
C953 C949 1.495 . S
C953 H959 0.959 . S
C953 H960 0.961 . S
C953 H961 0.960 . S
C954 C952 1.381 . S
C954 C955 1.394 . S
C954 H962 0.930 . S
C955 C954 1.394 . S
C955 C956 1.383 . S
C955 H963 0.929 . S
C956 C955 1.383 . S
C956 C957 1.377 . S
C957 H941 0.930 . S
C957 C956 1.377 . S
C957 C958 1.379 . S
C958 H942 0.931 . S
C958 C952 1.383 . S
C958 C957 1.379 . S
H959 C953 0.959 . S
H960 C953 0.961 . S
H961 C953 0.960 . S
H962 C954 0.930 . S
H963 C955 0.929 . S
H964 C972 0.929 . S
H965 C974 0.930 . S
H966 C976 0.930 . S
H967 C979 0.929 . S
H968 C982 0.930 . S
H969 C984 0.960 . S
H970 C984 0.960 . S
H971 C984 0.960 . S
C972 H964 0.929 . S
C972 C973 1.377 . S
C972 C974 1.384 . S
C973 C972 1.377 . S
C973 C979 1.390 . S
C974 H965 0.930 . S
C974 C972 1.384 . S
C974 C975 1.372 . S
C975 C974 1.372 . S
C975 C976 1.400 . S
C975 C980 1.490 . S
C976 H966 0.930 . S
C976 C975 1.400 . S
C976 C979 1.386 . S
H977 C993 0.930 . S
H978 C994 0.931 . S
C979 H967 0.929 . S
C979 C973 1.390 . S
C979 C976 1.386 . S
C980 C975 1.490 . S
C980 C982 1.395 . S
C980 C983 1.403 1_655 S
H981 C987 0.930 . S
C982 H968 0.930 . S
C982 C980 1.395 . S
C982 C985 1.403 . S
C983 C980 1.403 1_455 S
C983 C984 1.524 . S
C983 C987 1.400 . S
C984 H969 0.960 . S
C984 H970 0.960 . S
C984 H971 0.960 . S
C984 C983 1.524 . S
C985 C982 1.403 . S
C985 C986 1.392 . S
C985 C989 1.495 . S
C986 C985 1.392 . S
C986 C987 1.385 1_655 S
C986 C988 1.478 . S
C987 H981 0.930 . S
C987 C983 1.400 . S
C987 C986 1.385 1_455 S
C988 C986 1.478 . S
C988 C990 1.381 . S
C988 C994 1.383 . S
C989 C985 1.495 . S
C989 H995 0.959 . S
C989 H996 0.961 . S
C989 H997 0.960 . S
C990 C988 1.381 . S
C990 C991 1.394 . S
C990 H998 0.930 . S
C991 C990 1.394 . S
C991 C992 1.383 . S
C991 H999 0.929 . S
C992 C991 1.383 . S
C992 C993 1.377 . S
C993 H977 0.930 . S
C993 C992 1.377 . S
C993 C994 1.379 . S
C994 H978 0.931 . S
C994 C988 1.383 . S
C994 C993 1.379 . S
H995 C989 0.959 . S
H996 C989 0.961 . S
H997 C989 0.960 . S
H998 C990 0.930 . S
H999 C991 0.929 . S
H1000 C1008 0.929 . S
H1001 C1010 0.930 . S
H1002 C1012 0.912 1_554 S
H1003 C1015 0.929 . S
H1004 C1018 0.930 . S
H1005 C1020 0.960 . S
H1006 C1020 0.960 . S
H1007 C1020 0.960 . S
C1008 H1000 0.929 . S
C1008 C1009 1.377 1_545 S
C1008 C1010 1.384 . S
C1009 C1008 1.377 1_565 S
C1009 C1015 1.390 . S
C1010 H1001 0.930 . S
C1010 C1008 1.384 . S
C1010 C1011 1.387 1_545 S
C1011 C1010 1.387 1_565 S
C1011 C1012 1.409 . S
C1011 C1016 1.467 1_556 S
C1012 H1002 0.912 1_556 S
C1012 C1011 1.409 . S
C1012 C1015 1.386 . S
H1013 C1029 0.930 . S
H1014 C1030 0.931 . S
C1015 H1003 0.929 . S
C1015 C1009 1.390 . S
C1015 C1012 1.386 . S
C1016 C1011 1.467 1_554 S
C1016 C1018 1.395 . S
C1016 C1019 1.403 . S
H1017 C1023 0.930 . S
C1018 H1004 0.930 . S
C1018 C1016 1.395 . S
C1018 C1021 1.403 . S
C1019 C1016 1.403 . S
C1019 C1020 1.524 . S
C1019 C1023 1.400 . S
C1020 H1005 0.960 . S
C1020 H1006 0.960 . S
C1020 H1007 0.960 . S
C1020 C1019 1.524 . S
C1021 C1018 1.403 . S
C1021 C1022 1.392 . S
C1021 C1025 1.495 . S
C1022 C1021 1.392 . S
C1022 C1023 1.385 . S
C1022 C1024 1.478 . S
C1023 H1017 0.930 . S
C1023 C1019 1.400 . S
C1023 C1022 1.385 . S
C1024 C1022 1.478 . S
C1024 C1026 1.381 1_565 S
C1024 C1030 1.383 . S
C1025 C1021 1.495 . S
C1025 H1031 0.960 . S
C1025 H1032 0.961 . S
C1025 H1033 0.960 1_565 S
C1026 C1024 1.381 1_545 S
C1026 C1027 1.394 . S
C1026 H1034 0.930 . S
C1027 C1026 1.394 . S
C1027 C1028 1.383 1_545 S
C1027 H1035 0.929 . S
C1028 C1027 1.383 1_565 S
C1028 C1029 1.377 . S
C1029 H1013 0.930 . S
C1029 C1028 1.377 . S
C1029 C1030 1.379 . S
C1030 H1014 0.931 . S
C1030 C1024 1.383 . S
C1030 C1029 1.379 . S
H1031 C1025 0.960 . S
H1032 C1025 0.961 . S
H1033 C1025 0.960 1_545 S
H1034 C1026 0.930 . S
H1035 C1027 0.929 . S
H1036 C1044 0.929 . S
H1037 C1046 0.930 . S
H1038 C1048 0.930 . S
H1039 C1051 0.929 . S
H1040 C1054 0.930 . S
H1041 C1056 0.960 . S
H1042 C1056 0.960 . S
H1043 C1056 0.960 . S
C1044 H1036 0.929 . S
C1044 C1045 1.377 . S
C1044 C1046 1.384 . S
C1045 C1044 1.377 . S
C1045 C1051 1.390 . S
C1046 H1037 0.930 . S
C1046 C1044 1.384 . S
C1046 C1047 1.372 . S
C1047 C1046 1.372 . S
C1047 C1048 1.400 . S
C1047 C1052 1.490 . S
C1048 H1038 0.930 . S
C1048 C1047 1.400 . S
C1048 C1051 1.386 . S
H1049 C1065 0.930 . S
H1050 C1066 0.931 . S
C1051 H1039 0.929 . S
C1051 C1045 1.390 . S
C1051 C1048 1.386 . S
C1052 C1047 1.490 . S
C1052 C1054 1.395 . S
C1052 C1055 1.403 . S
H1053 C1059 0.930 . S
C1054 H1040 0.930 . S
C1054 C1052 1.395 . S
C1054 C1057 1.403 . S
C1055 C1052 1.403 . S
C1055 C1056 1.524 . S
C1055 C1059 1.400 . S
C1056 H1041 0.960 . S
C1056 H1042 0.960 . S
C1056 H1043 0.960 . S
C1056 C1055 1.524 . S
C1057 C1054 1.403 . S
C1057 C1058 1.392 . S
C1057 C1061 1.495 . S
C1058 C1057 1.392 . S
C1058 C1059 1.385 . S
C1058 C1060 1.478 . S
C1059 H1053 0.930 . S
C1059 C1055 1.400 . S
C1059 C1058 1.385 . S
C1060 C1058 1.478 . S
C1060 C1062 1.381 . S
C1060 C1066 1.383 . S
C1061 C1057 1.495 . S
C1061 H1067 0.959 . S
C1061 H1068 0.961 . S
C1061 H1069 0.960 . S
C1062 C1060 1.381 . S
C1062 C1063 1.394 . S
C1062 H1070 0.930 . S
C1063 C1062 1.394 . S
C1063 C1064 1.383 . S
C1063 H1071 0.929 . S
C1064 C1063 1.383 . S
C1064 C1065 1.377 . S
C1065 H1049 0.930 . S
C1065 C1064 1.377 . S
C1065 C1066 1.379 . S
C1066 H1050 0.931 . S
C1066 C1060 1.383 . S
C1066 C1065 1.379 . S
H1067 C1061 0.959 . S
H1068 C1061 0.961 . S
H1069 C1061 0.960 . S
H1070 C1062 0.930 . S
H1071 C1063 0.929 . S
H1072 C1080 0.929 . S
H1073 C1082 0.930 . S
H1074 C1084 0.930 . S
H1075 C1087 0.929 . S
H1076 C1090 0.930 . S
H1077 C1092 0.960 . S
H1078 C1092 0.960 . S
H1079 C1092 0.960 . S
C1080 H1072 0.929 . S
C1080 C1081 1.377 . S
C1080 C1082 1.384 . S
C1081 C1080 1.377 . S
C1081 C1087 1.390 . S
C1082 H1073 0.930 . S
C1082 C1080 1.384 . S
C1082 C1083 1.372 . S
C1083 C1082 1.372 . S
C1083 C1084 1.400 . S
C1083 C1088 1.490 . S
C1084 H1074 0.930 . S
C1084 C1083 1.400 . S
C1084 C1087 1.386 . S
H1085 C1101 0.930 . S
H1086 C1102 0.931 . S
C1087 H1075 0.929 . S
C1087 C1081 1.390 . S
C1087 C1084 1.386 . S
C1088 C1083 1.490 . S
C1088 C1090 1.395 . S
C1088 C1091 1.403 . S
H1089 C1095 0.930 . S
C1090 H1076 0.930 . S
C1090 C1088 1.395 . S
C1090 C1093 1.403 . S
C1091 C1088 1.403 . S
C1091 C1092 1.524 . S
C1091 C1095 1.400 . S
C1092 H1077 0.960 . S
C1092 H1078 0.960 . S
C1092 H1079 0.960 . S
C1092 C1091 1.524 . S
C1093 C1090 1.403 . S
C1093 C1094 1.392 . S
C1093 C1097 1.495 . S
C1094 C1093 1.392 . S
C1094 C1095 1.385 . S
C1094 C1096 1.478 . S
C1095 H1089 0.930 . S
C1095 C1091 1.400 . S
C1095 C1094 1.385 . S
C1096 C1094 1.478 . S
C1096 C1098 1.381 . S
C1096 C1102 1.383 . S
C1097 C1093 1.495 . S
C1097 H1103 0.959 . S
C1097 H1104 0.961 . S
C1097 H1105 0.960 . S
C1098 C1096 1.381 . S
C1098 C1099 1.394 . S
C1098 H1106 0.930 . S
C1099 C1098 1.394 . S
C1099 C1100 1.383 . S
C1099 H1107 0.929 . S
C1100 C1099 1.383 . S
C1100 C1101 1.377 . S
C1101 H1085 0.930 . S
C1101 C1100 1.377 . S
C1101 C1102 1.379 . S
C1102 H1086 0.931 . S
C1102 C1096 1.383 . S
C1102 C1101 1.379 . S
H1103 C1097 0.959 . S
H1104 C1097 0.961 . S
H1105 C1097 0.960 . S
H1106 C1098 0.930 . S
H1107 C1099 0.929 . S
H1108 C1116 0.929 1_655 S
H1109 C1118 0.926 1_655 S
H1110 C1120 0.930 . S
H1111 C1123 0.929 . S
H1112 C1126 0.930 . S
H1113 C1128 0.960 . S
H1114 C1128 0.960 . S
H1115 C1128 0.960 . S
C1116 H1108 0.929 1_455 S
C1116 C1117 1.377 . S
C1116 C1118 1.384 . S
C1117 C1116 1.377 . S
C1117 C1123 1.390 . S
C1118 H1109 0.926 1_455 S
C1118 C1116 1.384 . S
C1118 C1119 1.372 . S
C1119 C1118 1.372 . S
C1119 C1120 1.400 . S
C1119 C1124 1.490 . S
C1120 H1110 0.930 . S
C1120 C1119 1.400 . S
C1120 C1123 1.386 . S
H1121 C1137 0.930 . S
H1122 C1138 0.931 1_556 S
C1123 H1111 0.929 . S
C1123 C1117 1.390 . S
C1123 C1120 1.386 . S
C1124 C1119 1.490 . S
C1124 C1126 1.395 1_455 S
C1124 C1127 1.403 . S
H1125 C1131 0.930 . S
C1126 H1112 0.930 . S
C1126 C1124 1.395 1_655 S
C1126 C1129 1.403 . S
C1127 C1124 1.403 . S
C1127 C1128 1.524 . S
C1127 C1131 1.400 . S
C1128 H1113 0.960 . S
C1128 H1114 0.960 . S
C1128 H1115 0.960 . S
C1128 C1127 1.524 . S
C1129 C1126 1.403 . S
C1129 C1130 1.392 1_655 S
C1129 C1133 1.495 . S
C1130 C1129 1.392 1_455 S
C1130 C1131 1.385 . S
C1130 C1132 1.478 1_556 S
C1131 H1125 0.930 . S
C1131 C1127 1.400 . S
C1131 C1130 1.385 . S
C1132 C1130 1.478 1_554 S
C1132 C1134 1.381 . S
C1132 C1138 1.383 . S
C1133 C1129 1.495 . S
C1133 H1139 0.959 . S
C1133 H1140 0.961 . S
C1133 H1141 0.960 . S
C1134 C1132 1.381 . S
C1134 C1135 1.394 . S
C1134 H1142 0.940 . S
C1135 C1134 1.394 . S
C1135 C1136 1.383 . S
C1135 H1143 0.929 . S
C1136 C1135 1.383 . S
C1136 C1137 1.377 . S
C1137 H1121 0.930 . S
C1137 C1136 1.377 . S
C1137 C1138 1.379 . S
C1138 H1122 0.931 1_554 S
C1138 C1132 1.383 . S
C1138 C1137 1.379 . S
H1139 C1133 0.959 . S
H1140 C1133 0.961 . S
H1141 C1133 0.960 . S
H1142 C1134 0.940 . S
H1143 C1135 0.929 . S
H1144 C1152 0.929 . S
H1145 C1154 0.930 . S
H1146 C1156 0.930 . S
H1147 C1159 0.929 . S
H1148 C1162 0.930 . S
H1149 C1164 0.960 . S
H1150 C1164 0.960 . S
H1151 C1164 0.960 . S
C1152 H1144 0.929 . S
C1152 C1153 1.377 1_565 S
C1152 C1154 1.384 . S
C1153 C1152 1.377 1_545 S
C1153 C1159 1.390 . S
C1154 H1145 0.930 . S
C1154 C1152 1.384 . S
C1154 C1155 1.372 1_565 S
C1155 C1154 1.372 1_545 S
C1155 C1156 1.400 . S
C1155 C1160 1.490 . S
C1156 H1146 0.930 . S
C1156 C1155 1.400 . S
C1156 C1159 1.386 . S
H1157 C1173 0.930 . S
H1158 C1174 0.931 . S
C1159 H1147 0.929 . S
C1159 C1153 1.390 . S
C1159 C1156 1.386 . S
C1160 C1155 1.490 . S
C1160 C1162 1.395 1_545 S
C1160 C1163 1.403 . S
H1161 C1167 0.930 . S
C1162 H1148 0.930 . S
C1162 C1160 1.395 1_565 S
C1162 C1165 1.403 . S
C1163 C1160 1.403 . S
C1163 C1164 1.524 . S
C1163 C1167 1.400 . S
C1164 H1149 0.960 . S
C1164 H1150 0.960 . S
C1164 H1151 0.960 . S
C1164 C1163 1.524 . S
C1165 C1162 1.403 . S
C1165 C1166 1.392 1_565 S
C1165 C1169 1.495 . S
C1166 C1165 1.392 1_545 S
C1166 C1167 1.385 . S
C1166 C1168 1.478 . S
C1167 H1161 0.930 . S
C1167 C1163 1.400 . S
C1167 C1166 1.385 . S
C1168 C1166 1.478 . S
C1168 C1170 1.381 1_545 S
C1168 C1174 1.383 . S
C1169 C1165 1.495 . S
C1169 H1175 0.959 . S
C1169 H1176 0.961 . S
C1169 H1177 0.960 . S
C1170 C1168 1.381 1_565 S
C1170 C1171 1.394 . S
C1170 H1178 0.930 . S
C1171 C1170 1.394 . S
C1171 C1172 1.383 1_565 S
C1171 H1179 0.929 . S
C1172 C1171 1.383 1_545 S
C1172 C1173 1.377 . S
C1173 H1157 0.930 . S
C1173 C1172 1.377 . S
C1173 C1174 1.379 . S
C1174 H1158 0.931 . S
C1174 C1168 1.383 . S
C1174 C1173 1.379 . S
H1175 C1169 0.959 . S
H1176 C1169 0.961 . S
H1177 C1169 0.960 . S
H1178 C1170 0.930 . S
H1179 C1171 0.929 . S
H1180 C1188 0.929 . S
H1181 C1190 0.930 . S
H1182 C1192 0.930 . S
H1183 C1195 0.929 . S
H1184 C1198 0.930 . S
H1185 C1200 0.960 . S
H1186 C1200 0.960 . S
H1187 C1200 0.960 . S
C1188 H1180 0.929 . S
C1188 C1189 1.377 . S
C1188 C1190 1.384 . S
C1189 C1188 1.377 . S
C1189 C1195 1.390 . S
C1190 H1181 0.930 . S
C1190 C1188 1.384 . S
C1190 C1191 1.380 . S
C1191 C1190 1.380 . S
C1191 C1192 1.407 . S
C1191 C1196 1.475 1_554 S
C1192 H1182 0.930 . S
C1192 C1191 1.407 . S
C1192 C1195 1.386 . S
H1193 C1209 0.930 . S
H1194 C1210 0.931 . S
C1195 H1183 0.929 . S
C1195 C1189 1.390 . S
C1195 C1192 1.386 . S
C1196 C1191 1.475 1_556 S
C1196 C1198 1.395 . S
C1196 C1199 1.403 . S
H1197 C1203 0.930 . S
C1198 H1184 0.930 . S
C1198 C1196 1.395 . S
C1198 C1201 1.403 . S
C1199 C1196 1.403 . S
C1199 C1200 1.524 . S
C1199 C1203 1.400 . S
C1200 H1185 0.960 . S
C1200 H1186 0.960 . S
C1200 H1187 0.960 . S
C1200 C1199 1.524 . S
C1201 C1198 1.403 . S
C1201 C1202 1.392 . S
C1201 C1205 1.495 . S
C1202 C1201 1.392 . S
C1202 C1203 1.385 . S
C1202 C1204 1.478 . S
C1203 H1197 0.930 . S
C1203 C1199 1.400 . S
C1203 C1202 1.385 . S
C1204 C1202 1.478 . S
C1204 C1206 1.381 . S
C1204 C1210 1.383 . S
C1205 C1201 1.495 . S
C1205 H1211 0.959 . S
C1205 H1212 0.961 . S
C1205 H1213 0.960 . S
C1206 C1204 1.381 . S
C1206 C1207 1.394 . S
C1206 H1214 0.930 . S
C1207 C1206 1.394 . S
C1207 C1208 1.383 . S
C1207 H1215 0.929 . S
C1208 C1207 1.383 . S
C1208 C1209 1.377 . S
C1209 H1193 0.930 . S
C1209 C1208 1.377 . S
C1209 C1210 1.379 . S
C1210 H1194 0.931 . S
C1210 C1204 1.383 . S
C1210 C1209 1.379 . S
H1211 C1205 0.959 . S
H1212 C1205 0.961 . S
H1213 C1205 0.960 . S
H1214 C1206 0.930 . S
H1215 C1207 0.929 . S
H1216 C1224 0.929 . S
H1217 C1226 0.930 . S
H1218 C1228 0.930 . S
H1219 C1231 0.929 . S
H1220 C1234 0.930 . S
H1221 C1236 0.960 . S
H1222 C1236 0.960 . S
H1223 C1236 0.960 . S
C1224 H1216 0.929 . S
C1224 C1225 1.377 . S
C1224 C1226 1.384 . S
C1225 C1224 1.377 . S
C1225 C1231 1.390 . S
C1226 H1217 0.930 . S
C1226 C1224 1.384 . S
C1226 C1227 1.372 . S
C1227 C1226 1.372 . S
C1227 C1228 1.400 . S
C1227 C1232 1.490 . S
C1228 H1218 0.930 . S
C1228 C1227 1.400 . S
C1228 C1231 1.386 . S
H1229 C1245 0.930 . S
H1230 C1246 0.931 . S
C1231 H1219 0.929 . S
C1231 C1225 1.390 . S
C1231 C1228 1.386 . S
C1232 C1227 1.490 . S
C1232 C1234 1.395 . S
C1232 C1235 1.403 . S
H1233 C1239 0.930 . S
C1234 H1220 0.930 . S
C1234 C1232 1.395 . S
C1234 C1237 1.403 . S
C1235 C1232 1.403 . S
C1235 C1236 1.524 . S
C1235 C1239 1.400 . S
C1236 H1221 0.960 . S
C1236 H1222 0.960 . S
C1236 H1223 0.960 . S
C1236 C1235 1.524 . S
C1237 C1234 1.403 . S
C1237 C1238 1.392 . S
C1237 C1241 1.495 . S
C1238 C1237 1.392 . S
C1238 C1239 1.385 . S
C1238 C1240 1.478 . S
C1239 H1233 0.930 . S
C1239 C1235 1.400 . S
C1239 C1238 1.385 . S
C1240 C1238 1.478 . S
C1240 C1242 1.381 1_556 S
C1240 C1246 1.383 1_556 S
C1241 C1237 1.495 . S
C1241 H1247 0.959 . S
C1241 H1248 0.961 . S
C1241 H1249 0.960 . S
C1242 C1240 1.381 1_554 S
C1242 C1243 1.394 . S
C1242 H1250 0.930 1_554 S
C1243 C1242 1.394 . S
C1243 C1244 1.383 . S
C1243 H1251 0.929 . S
C1244 C1243 1.383 . S
C1244 C1245 1.377 . S
C1245 H1229 0.930 . S
C1245 C1244 1.377 . S
C1245 C1246 1.379 . S
C1246 H1230 0.931 . S
C1246 C1240 1.383 1_554 S
C1246 C1245 1.379 . S
H1247 C1241 0.959 . S
H1248 C1241 0.961 . S
H1249 C1241 0.960 . S
H1250 C1242 0.930 1_556 S
H1251 C1243 0.929 . S
H1252 C1260 0.929 . S
H1253 C1262 0.930 . S
H1254 C1264 0.930 1_655 S
H1255 C1267 0.929 1_655 S
H1256 C1270 0.930 . S
H1257 C1272 0.960 . S
H1258 C1272 0.960 . S
H1259 C1272 0.960 . S
C1260 H1252 0.929 . S
C1260 C1261 1.377 . S
C1260 C1262 1.384 . S
C1261 C1260 1.377 . S
C1261 C1267 1.390 . S
C1262 H1253 0.930 . S
C1262 C1260 1.384 . S
C1262 C1263 1.372 . S
C1263 C1262 1.372 . S
C1263 C1264 1.400 . S
C1263 C1268 1.490 . S
C1264 H1254 0.930 1_455 S
C1264 C1263 1.400 . S
C1264 C1267 1.386 . S
H1265 C1281 0.930 . S
H1266 C1282 0.931 . S
C1267 H1255 0.929 1_455 S
C1267 C1261 1.390 . S
C1267 C1264 1.386 . S
C1268 C1263 1.490 . S
C1268 C1270 1.395 . S
C1268 C1271 1.403 1_455 S
H1269 C1275 0.930 . S
C1270 H1256 0.930 . S
C1270 C1268 1.395 . S
C1270 C1273 1.403 . S
C1271 C1268 1.403 1_655 S
C1271 C1272 1.524 . S
C1271 C1275 1.400 . S
C1272 H1257 0.960 . S
C1272 H1258 0.960 . S
C1272 H1259 0.960 . S
C1272 C1271 1.524 . S
C1273 C1270 1.403 . S
C1273 C1274 1.392 . S
C1273 C1277 1.495 . S
C1274 C1273 1.392 . S
C1274 C1275 1.385 1_455 S
C1274 C1276 1.478 . S
C1275 H1269 0.930 . S
C1275 C1271 1.400 . S
C1275 C1274 1.385 1_655 S
C1276 C1274 1.478 . S
C1276 C1278 1.381 . S
C1276 C1282 1.383 . S
C1277 C1273 1.495 . S
C1277 H1283 0.959 . S
C1277 H1284 0.961 . S
C1277 H1285 0.960 . S
C1278 C1276 1.381 . S
C1278 C1279 1.394 . S
C1278 H1286 0.930 . S
C1279 C1278 1.394 . S
C1279 C1280 1.383 . S
C1279 H1287 0.929 . S
C1280 C1279 1.383 . S
C1280 C1281 1.377 . S
C1281 H1265 0.930 . S
C1281 C1280 1.377 . S
C1281 C1282 1.379 . S
C1282 H1266 0.931 . S
C1282 C1276 1.383 . S
C1282 C1281 1.379 . S
H1283 C1277 0.959 . S
H1284 C1277 0.961 . S
H1285 C1277 0.960 . S
H1286 C1278 0.930 . S
H1287 C1279 0.929 . S
H1288 C1296 0.929 . S
H1289 C1298 0.930 . S
H1290 C1300 0.930 . S
H1291 C1303 0.929 . S
H1292 C1306 0.930 . S
H1293 C1308 0.957 1_565 S
H1294 C1308 0.960 . S
H1295 C1308 0.960 1_565 S
C1296 H1288 0.929 . S
C1296 C1297 1.377 . S
C1296 C1298 1.384 . S
C1297 C1296 1.377 . S
C1297 C1303 1.390 1_545 S
C1298 H1289 0.930 . S
C1298 C1296 1.384 . S
C1298 C1299 1.383 . S
C1299 C1298 1.383 . S
C1299 C1300 1.408 1_545 S
C1299 C1304 1.472 1_554 S
C1300 H1290 0.930 . S
C1300 C1299 1.408 1_565 S
C1300 C1303 1.386 . S
H1301 C1317 0.930 . S
H1302 C1318 0.931 . S
C1303 H1291 0.929 . S
C1303 C1297 1.390 1_565 S
C1303 C1300 1.386 . S
C1304 C1299 1.472 1_556 S
C1304 C1306 1.395 . S
C1304 C1307 1.403 . S
H1305 C1311 0.930 . S
C1306 H1292 0.930 . S
C1306 C1304 1.395 . S
C1306 C1309 1.403 . S
C1307 C1304 1.403 . S
C1307 C1308 1.524 . S
C1307 C1311 1.400 . S
C1308 H1293 0.957 1_545 S
C1308 H1294 0.960 . S
C1308 H1295 0.960 1_545 S
C1308 C1307 1.524 . S
C1309 C1306 1.403 . S
C1309 C1310 1.392 . S
C1309 C1313 1.495 . S
C1310 C1309 1.392 . S
C1310 C1311 1.385 . S
C1310 C1312 1.478 . S
C1311 H1305 0.930 . S
C1311 C1307 1.400 . S
C1311 C1310 1.385 . S
C1312 C1310 1.478 . S
C1312 C1314 1.381 . S
C1312 C1318 1.383 1_545 S
C1313 C1309 1.495 . S
C1313 H1319 0.959 . S
C1313 H1320 0.961 . S
C1313 H1321 0.960 . S
C1314 C1312 1.381 . S
C1314 C1315 1.394 . S
C1314 H1322 0.930 . S
C1315 C1314 1.394 . S
C1315 C1316 1.383 . S
C1315 H1323 0.929 . S
C1316 C1315 1.383 . S
C1316 C1317 1.377 1_545 S
C1317 H1301 0.930 . S
C1317 C1316 1.377 1_565 S
C1317 C1318 1.379 . S
C1318 H1302 0.931 . S
C1318 C1312 1.383 1_565 S
C1318 C1317 1.379 . S
H1319 C1313 0.959 . S
H1320 C1313 0.961 . S
H1321 C1313 0.960 . S
H1322 C1314 0.930 . S
H1323 C1315 0.929 . S
H1324 C1332 0.929 . S
H1325 C1334 0.930 . S
H1326 C1336 0.930 . S
H1327 C1339 0.929 . S
H1328 C1342 0.930 . S
H1329 C1344 0.960 . S
H1330 C1344 0.960 . S
H1331 C1344 0.960 . S
C1332 H1324 0.929 . S
C1332 C1333 1.377 . S
C1332 C1334 1.384 . S
C1333 C1332 1.377 . S
C1333 C1339 1.390 . S
C1334 H1325 0.930 . S
C1334 C1332 1.384 . S
C1334 C1335 1.372 . S
C1335 C1334 1.372 . S
C1335 C1336 1.400 . S
C1335 C1340 1.490 . S
C1336 H1326 0.930 . S
C1336 C1335 1.400 . S
C1336 C1339 1.386 . S
H1337 C1353 0.930 . S
H1338 C1354 0.931 . S
C1339 H1327 0.929 . S
C1339 C1333 1.390 . S
C1339 C1336 1.386 . S
C1340 C1335 1.490 . S
C1340 C1342 1.395 . S
C1340 C1343 1.403 . S
H1341 C1347 0.930 . S
C1342 H1328 0.930 . S
C1342 C1340 1.395 . S
C1342 C1345 1.403 . S
C1343 C1340 1.403 . S
C1343 C1344 1.524 . S
C1343 C1347 1.400 . S
C1344 H1329 0.960 . S
C1344 H1330 0.960 . S
C1344 H1331 0.960 . S
C1344 C1343 1.524 . S
C1345 C1342 1.403 . S
C1345 C1346 1.392 . S
C1345 C1349 1.495 . S
C1346 C1345 1.392 . S
C1346 C1347 1.385 . S
C1346 C1348 1.478 . S
C1347 H1341 0.930 . S
C1347 C1343 1.400 . S
C1347 C1346 1.385 . S
C1348 C1346 1.478 . S
C1348 C1350 1.381 . S
C1348 C1354 1.383 . S
C1349 C1345 1.495 . S
C1349 H1355 0.959 . S
C1349 H1356 0.961 . S
C1349 H1357 0.960 . S
C1350 C1348 1.381 . S
C1350 C1351 1.394 . S
C1350 H1358 0.930 . S
C1351 C1350 1.394 . S
C1351 C1352 1.383 . S
C1351 H1359 0.929 . S
C1352 C1351 1.383 . S
C1352 C1353 1.377 . S
C1353 H1337 0.930 . S
C1353 C1352 1.377 . S
C1353 C1354 1.379 . S
C1354 H1338 0.931 . S
C1354 C1348 1.383 . S
C1354 C1353 1.379 . S
H1355 C1349 0.959 . S
H1356 C1349 0.961 . S
H1357 C1349 0.960 . S
H1358 C1350 0.930 . S
H1359 C1351 0.929 . S
H1360 C1368 0.929 . S
H1361 C1370 0.930 . S
H1362 C1372 0.930 . S
H1363 C1375 0.929 . S
H1364 C1378 0.930 . S
H1365 C1380 0.960 . S
H1366 C1380 0.960 . S
H1367 C1380 0.960 . S
C1368 H1360 0.929 . S
C1368 C1369 1.377 . S
C1368 C1370 1.384 . S
C1369 C1368 1.377 . S
C1369 C1375 1.390 . S
C1370 H1361 0.930 . S
C1370 C1368 1.384 . S
C1370 C1371 1.372 . S
C1371 C1370 1.372 . S
C1371 C1372 1.400 . S
C1371 C1376 1.490 . S
C1372 H1362 0.930 . S
C1372 C1371 1.400 . S
C1372 C1375 1.386 . S
H1373 C1389 0.930 . S
H1374 C1390 0.931 . S
C1375 H1363 0.929 . S
C1375 C1369 1.390 . S
C1375 C1372 1.386 . S
C1376 C1371 1.490 . S
C1376 C1378 1.395 . S
C1376 C1379 1.403 . S
H1377 C1383 0.930 . S
C1378 H1364 0.930 . S
C1378 C1376 1.395 . S
C1378 C1381 1.403 . S
C1379 C1376 1.403 . S
C1379 C1380 1.524 . S
C1379 C1383 1.400 . S
C1380 H1365 0.960 . S
C1380 H1366 0.960 . S
C1380 H1367 0.960 . S
C1380 C1379 1.524 . S
C1381 C1378 1.403 . S
C1381 C1382 1.392 . S
C1381 C1385 1.495 . S
C1382 C1381 1.392 . S
C1382 C1383 1.385 . S
C1382 C1384 1.478 . S
C1383 H1377 0.930 . S
C1383 C1379 1.400 . S
C1383 C1382 1.385 . S
C1384 C1382 1.478 . S
C1384 C1386 1.381 . S
C1384 C1390 1.383 . S
C1385 C1381 1.495 . S
C1385 H1391 0.959 . S
C1385 H1392 0.961 . S
C1385 H1393 0.960 . S
C1386 C1384 1.381 . S
C1386 C1387 1.394 . S
C1386 H1394 0.930 . S
C1387 C1386 1.394 . S
C1387 C1388 1.383 . S
C1387 H1395 0.929 . S
C1388 C1387 1.383 . S
C1388 C1389 1.377 . S
C1389 H1373 0.930 . S
C1389 C1388 1.377 . S
C1389 C1390 1.379 . S
C1390 H1374 0.931 . S
C1390 C1384 1.383 . S
C1390 C1389 1.379 . S
H1391 C1385 0.959 . S
H1392 C1385 0.961 . S
H1393 C1385 0.960 . S
H1394 C1386 0.930 . S
H1395 C1387 0.929 . S
H1396 C1404 0.929 . S
H1397 C1406 0.930 . S
H1398 C1408 0.930 . S
H1399 C1411 0.929 . S
H1400 C1414 0.930 . S
H1401 C1416 0.960 . S
H1402 C1416 0.960 . S
H1403 C1416 0.960 . S
C1404 H1396 0.929 . S
C1404 C1405 1.377 1_455 S
C1404 C1406 1.384 . S
C1405 C1404 1.377 1_655 S
C1405 C1411 1.390 . S
C1406 H1397 0.930 . S
C1406 C1404 1.384 . S
C1406 C1407 1.372 1_455 S
C1407 C1406 1.372 1_655 S
C1407 C1408 1.400 . S
C1407 C1412 1.490 . S
C1408 H1398 0.930 . S
C1408 C1407 1.400 . S
C1408 C1411 1.386 . S
H1409 C1425 0.930 . S
H1410 C1426 0.931 . S
C1411 H1399 0.929 . S
C1411 C1405 1.390 . S
C1411 C1408 1.386 . S
C1412 C1407 1.490 . S
C1412 C1414 1.395 1_655 S
C1412 C1415 1.403 . S
H1413 C1419 0.930 . S
C1414 H1400 0.930 . S
C1414 C1412 1.395 1_455 S
C1414 C1417 1.403 . S
C1415 C1412 1.403 . S
C1415 C1416 1.524 . S
C1415 C1419 1.400 . S
C1416 H1401 0.960 . S
C1416 H1402 0.960 . S
C1416 H1403 0.960 . S
C1416 C1415 1.524 . S
C1417 C1414 1.403 . S
C1417 C1418 1.392 1_455 S
C1417 C1421 1.495 . S
C1418 C1417 1.392 1_655 S
C1418 C1419 1.385 . S
C1418 C1420 1.478 1_554 S
C1419 H1413 0.930 . S
C1419 C1415 1.400 . S
C1419 C1418 1.385 . S
C1420 C1418 1.478 1_556 S
C1420 C1422 1.381 1_655 S
C1420 C1426 1.383 . S
C1421 C1417 1.495 . S
C1421 H1427 0.959 . S
C1421 H1428 0.961 . S
C1421 H1429 0.960 . S
C1422 C1420 1.381 1_455 S
C1422 C1423 1.394 . S
C1422 H1430 0.930 1_556 S
C1423 C1422 1.394 . S
C1423 C1424 1.383 1_455 S
C1423 H1431 0.929 . S
C1424 C1423 1.383 1_655 S
C1424 C1425 1.377 . S
C1425 H1409 0.930 . S
C1425 C1424 1.377 . S
C1425 C1426 1.379 . S
C1426 H1410 0.931 . S
C1426 C1420 1.383 . S
C1426 C1425 1.379 . S
H1427 C1421 0.959 . S
H1428 C1421 0.961 . S
H1429 C1421 0.960 . S
H1430 C1422 0.930 1_554 S
H1431 C1423 0.929 . S
H1432 C1440 0.929 . S
H1433 C1442 0.930 . S
H1434 C1444 0.930 . S
H1435 C1447 0.929 . S
H1436 C1450 0.930 . S
H1437 C1452 0.960 . S
H1438 C1452 0.960 . S
H1439 C1452 0.960 . S
C1440 H1432 0.929 . S
C1440 C1441 1.377 . S
C1440 C1442 1.384 . S
C1441 C1440 1.377 . S
C1441 C1447 1.390 . S
C1442 H1433 0.930 . S
C1442 C1440 1.384 . S
C1442 C1443 1.372 . S
C1443 C1442 1.372 . S
C1443 C1444 1.400 . S
C1443 C1448 1.490 . S
C1444 H1434 0.930 . S
C1444 C1443 1.400 . S
C1444 C1447 1.386 . S
H1445 C1461 0.930 . S
H1446 C1462 0.931 . S
C1447 H1435 0.929 . S
C1447 C1441 1.390 . S
C1447 C1444 1.386 . S
C1448 C1443 1.490 . S
C1448 C1450 1.395 1_565 S
C1448 C1451 1.403 . S
H1449 C1455 0.930 . S
C1450 H1436 0.930 . S
C1450 C1448 1.395 1_545 S
C1450 C1453 1.403 . S
C1451 C1448 1.403 . S
C1451 C1452 1.524 . S
C1451 C1455 1.400 . S
C1452 H1437 0.960 . S
C1452 H1438 0.960 . S
C1452 H1439 0.960 . S
C1452 C1451 1.524 . S
C1453 C1450 1.403 . S
C1453 C1454 1.392 1_545 S
C1453 C1457 1.495 . S
C1454 C1453 1.392 1_565 S
C1454 C1455 1.385 . S
C1454 C1456 1.478 . S
C1455 H1449 0.930 . S
C1455 C1451 1.400 . S
C1455 C1454 1.385 . S
C1456 C1454 1.478 . S
C1456 C1458 1.381 . S
C1456 C1462 1.383 . S
C1457 C1453 1.495 . S
C1457 H1463 0.959 . S
C1457 H1464 0.961 . S
C1457 H1465 0.960 . S
C1458 C1456 1.381 . S
C1458 C1459 1.394 . S
C1458 H1466 0.930 . S
C1459 C1458 1.394 . S
C1459 C1460 1.383 . S
C1459 H1467 0.929 . S
C1460 C1459 1.383 . S
C1460 C1461 1.377 . S
C1461 H1445 0.930 . S
C1461 C1460 1.377 . S
C1461 C1462 1.379 . S
C1462 H1446 0.931 . S
C1462 C1456 1.383 . S
C1462 C1461 1.379 . S
H1463 C1457 0.959 . S
H1464 C1457 0.961 . S
H1465 C1457 0.960 . S
H1466 C1458 0.930 . S
H1467 C1459 0.929 . S
H1468 C1476 0.929 . S
H1469 C1478 0.930 1_554 S
H1470 C1480 0.930 . S
H1471 C1483 0.929 . S
H1472 C1486 0.930 . S
H1473 C1488 0.960 . S
H1474 C1488 0.960 . S
H1475 C1488 0.960 . S
C1476 H1468 0.929 . S
C1476 C1477 1.377 . S
C1476 C1478 1.384 . S
C1477 C1476 1.377 . S
C1477 C1483 1.390 . S
C1478 H1469 0.930 1_556 S
C1478 C1476 1.384 . S
C1478 C1479 1.372 1_556 S
C1479 C1478 1.372 1_554 S
C1479 C1480 1.400 1_554 S
C1479 C1484 1.489 . S
C1480 H1470 0.930 . S
C1480 C1479 1.400 1_556 S
C1480 C1483 1.386 . S
H1481 C1497 0.930 . S
H1482 C1498 0.931 . S
C1483 H1471 0.929 . S
C1483 C1477 1.390 . S
C1483 C1480 1.386 . S
C1484 C1479 1.489 . S
C1484 C1486 1.395 . S
C1484 C1487 1.403 . S
H1485 C1491 0.930 . S
C1486 H1472 0.930 . S
C1486 C1484 1.395 . S
C1486 C1489 1.403 . S
C1487 C1484 1.403 . S
C1487 C1488 1.524 . S
C1487 C1491 1.400 . S
C1488 H1473 0.960 . S
C1488 H1474 0.960 . S
C1488 H1475 0.960 . S
C1488 C1487 1.524 . S
C1489 C1486 1.403 . S
C1489 C1490 1.392 . S
C1489 C1493 1.495 . S
C1490 C1489 1.392 . S
C1490 C1491 1.385 . S
C1490 C1492 1.478 . S
C1491 H1485 0.930 . S
C1491 C1487 1.400 . S
C1491 C1490 1.385 . S
C1492 C1490 1.478 . S
C1492 C1494 1.381 . S
C1492 C1498 1.383 . S
C1493 C1489 1.495 . S
C1493 H1499 0.959 . S
C1493 H1500 0.961 . S
C1493 H1501 0.960 . S
C1494 C1492 1.381 . S
C1494 C1495 1.394 . S
C1494 H1502 0.930 . S
C1495 C1494 1.394 . S
C1495 C1496 1.383 . S
C1495 H1503 0.929 . S
C1496 C1495 1.383 . S
C1496 C1497 1.377 . S
C1497 H1481 0.930 . S
C1497 C1496 1.377 . S
C1497 C1498 1.379 . S
C1498 H1482 0.931 . S
C1498 C1492 1.383 . S
C1498 C1497 1.379 . S
H1499 C1493 0.959 . S
H1500 C1493 0.961 . S
H1501 C1493 0.960 . S
H1502 C1494 0.930 . S
H1503 C1495 0.929 . S
H1504 C1512 0.929 . S
H1505 C1514 0.930 . S
H1506 C1516 0.930 . S
H1507 C1519 0.929 . S
H1508 C1522 0.930 . S
H1509 C1524 0.960 . S
H1510 C1524 0.960 . S
H1511 C1524 0.960 . S
C1512 H1504 0.929 . S
C1512 C1513 1.377 . S
C1512 C1514 1.384 . S
C1513 C1512 1.377 . S
C1513 C1519 1.390 . S
C1514 H1505 0.930 . S
C1514 C1512 1.384 . S
C1514 C1515 1.372 . S
C1515 C1514 1.372 . S
C1515 C1516 1.400 . S
C1515 C1520 1.490 . S
C1516 H1506 0.930 . S
C1516 C1515 1.400 . S
C1516 C1519 1.386 . S
H1517 C1533 0.930 . S
H1518 C1534 0.931 . S
C1519 H1507 0.929 . S
C1519 C1513 1.390 . S
C1519 C1516 1.386 . S
C1520 C1515 1.490 . S
C1520 C1522 1.395 . S
C1520 C1523 1.403 . S
H1521 C1527 0.930 . S
C1522 H1508 0.930 . S
C1522 C1520 1.395 . S
C1522 C1525 1.403 . S
C1523 C1520 1.403 . S
C1523 C1524 1.524 . S
C1523 C1527 1.400 . S
C1524 H1509 0.960 . S
C1524 H1510 0.960 . S
C1524 H1511 0.960 . S
C1524 C1523 1.524 . S
C1525 C1522 1.403 . S
C1525 C1526 1.392 . S
C1525 C1529 1.495 . S
C1526 C1525 1.392 . S
C1526 C1527 1.385 . S
C1526 C1528 1.478 . S
C1527 H1521 0.930 . S
C1527 C1523 1.400 . S
C1527 C1526 1.385 . S
C1528 C1526 1.478 . S
C1528 C1530 1.381 . S
C1528 C1534 1.383 . S
C1529 C1525 1.495 . S
C1529 H1535 0.959 . S
C1529 H1536 0.961 . S
C1529 H1537 0.960 . S
C1530 C1528 1.381 . S
C1530 C1531 1.394 . S
C1530 H1538 0.930 . S
C1531 C1530 1.394 . S
C1531 C1532 1.383 . S
C1531 H1539 0.929 . S
C1532 C1531 1.383 . S
C1532 C1533 1.377 . S
C1533 H1517 0.930 . S
C1533 C1532 1.377 . S
C1533 C1534 1.379 . S
C1534 H1518 0.931 . S
C1534 C1528 1.383 . S
C1534 C1533 1.379 . S
H1535 C1529 0.959 . S
H1536 C1529 0.961 . S
H1537 C1529 0.960 . S
H1538 C1530 0.930 . S
H1539 C1531 0.929 . S
H1540 C1548 0.929 . S
H1541 C1550 0.930 . S
H1542 C1552 0.930 . S
H1543 C1555 0.929 . S
H1544 C1558 0.930 . S
H1545 C1560 0.960 . S
H1546 C1560 0.960 . S
H1547 C1560 0.960 . S
C1548 H1540 0.929 . S
C1548 C1549 1.377 . S
C1548 C1550 1.384 . S
C1549 C1548 1.377 . S
C1549 C1555 1.390 . S
C1550 H1541 0.930 . S
C1550 C1548 1.384 . S
C1550 C1551 1.372 . S
C1551 C1550 1.372 . S
C1551 C1552 1.400 . S
C1551 C1556 1.490 . S
C1552 H1542 0.930 . S
C1552 C1551 1.400 . S
C1552 C1555 1.386 . S
H1553 C1569 0.930 . S
H1554 C1570 0.931 . S
C1555 H1543 0.929 . S
C1555 C1549 1.390 . S
C1555 C1552 1.386 . S
C1556 C1551 1.490 . S
C1556 C1558 1.395 . S
C1556 C1559 1.403 . S
H1557 C1563 0.930 . S
C1558 H1544 0.930 . S
C1558 C1556 1.395 . S
C1558 C1561 1.403 . S
C1559 C1556 1.403 . S
C1559 C1560 1.524 . S
C1559 C1563 1.400 . S
C1560 H1545 0.960 . S
C1560 H1546 0.960 . S
C1560 H1547 0.960 . S
C1560 C1559 1.524 . S
C1561 C1558 1.403 . S
C1561 C1562 1.392 . S
C1561 C1565 1.495 . S
C1562 C1561 1.392 . S
C1562 C1563 1.385 . S
C1562 C1564 1.478 . S
C1563 H1557 0.930 . S
C1563 C1559 1.400 . S
C1563 C1562 1.385 . S
C1564 C1562 1.478 . S
C1564 C1566 1.381 . S
C1564 C1570 1.383 . S
C1565 C1561 1.495 . S
C1565 H1571 0.959 . S
C1565 H1572 0.961 . S
C1565 H1573 0.960 . S
C1566 C1564 1.381 . S
C1566 C1567 1.394 . S
C1566 H1574 0.930 . S
C1567 C1566 1.394 . S
C1567 C1568 1.383 . S
C1567 H1575 0.929 . S
C1568 C1567 1.383 . S
C1568 C1569 1.377 . S
C1569 H1553 0.930 . S
C1569 C1568 1.377 . S
C1569 C1570 1.379 . S
C1570 H1554 0.931 . S
C1570 C1564 1.383 . S
C1570 C1569 1.379 . S
H1571 C1565 0.959 . S
H1572 C1565 0.961 . S
H1573 C1565 0.960 . S
H1574 C1566 0.930 . S
H1575 C1567 0.929 . S
H1576 C1584 0.929 . S
H1577 C1586 0.930 . S
H1578 C1588 0.930 . S
H1579 C1591 0.929 . S
H1580 C1594 0.930 . S
H1581 C1596 0.960 . S
H1582 C1596 0.960 . S
H1583 C1596 0.960 . S
C1584 H1576 0.929 . S
C1584 C1585 1.377 . S
C1584 C1586 1.384 . S
C1585 C1584 1.377 . S
C1585 C1591 1.390 . S
C1586 H1577 0.930 . S
C1586 C1584 1.384 . S
C1586 C1587 1.372 . S
C1587 C1586 1.372 . S
C1587 C1588 1.400 . S
C1587 C1592 1.490 . S
C1588 H1578 0.930 . S
C1588 C1587 1.400 . S
C1588 C1591 1.386 . S
H1589 C1605 0.930 . S
H1590 C1606 0.931 . S
C1591 H1579 0.929 . S
C1591 C1585 1.390 . S
C1591 C1588 1.386 . S
C1592 C1587 1.490 . S
C1592 C1594 1.395 . S
C1592 C1595 1.403 . S
H1593 C1599 0.930 . S
C1594 H1580 0.930 . S
C1594 C1592 1.395 . S
C1594 C1597 1.403 . S
C1595 C1592 1.403 . S
C1595 C1596 1.524 . S
C1595 C1599 1.400 . S
C1596 H1581 0.960 . S
C1596 H1582 0.960 . S
C1596 H1583 0.960 . S
C1596 C1595 1.524 . S
C1597 C1594 1.403 . S
C1597 C1598 1.392 . S
C1597 C1601 1.495 . S
C1598 C1597 1.392 . S
C1598 C1599 1.385 . S
C1598 C1600 1.478 . S
C1599 H1593 0.930 . S
C1599 C1595 1.400 . S
C1599 C1598 1.385 . S
C1600 C1598 1.478 . S
C1600 C1602 1.381 . S
C1600 C1606 1.383 . S
C1601 C1597 1.495 . S
C1601 H1607 0.959 . S
C1601 H1608 0.961 . S
C1601 H1609 0.960 . S
C1602 C1600 1.381 . S
C1602 C1603 1.394 . S
C1602 H1610 0.930 . S
C1603 C1602 1.394 . S
C1603 C1604 1.383 . S
C1603 H1611 0.929 . S
C1604 C1603 1.383 . S
C1604 C1605 1.377 . S
C1605 H1589 0.930 . S
C1605 C1604 1.377 . S
C1605 C1606 1.379 . S
C1606 H1590 0.931 . S
C1606 C1600 1.383 . S
C1606 C1605 1.379 . S
H1607 C1601 0.959 . S
H1608 C1601 0.961 . S
H1609 C1601 0.960 . S
H1610 C1602 0.930 . S
H1611 C1603 0.929 . S
H1612 C1620 0.929 . S
H1613 C1622 0.930 . S
H1614 C1624 0.930 . S
H1615 C1627 0.929 . S
H1616 C1630 0.930 . S
H1617 C1632 0.960 . S
H1618 C1632 0.960 . S
H1619 C1632 0.960 . S
C1620 H1612 0.929 . S
C1620 C1621 1.377 . S
C1620 C1622 1.384 . S
C1621 C1620 1.377 . S
C1621 C1627 1.390 . S
C1622 H1613 0.930 . S
C1622 C1620 1.384 . S
C1622 C1623 1.372 . S
C1623 C1622 1.372 . S
C1623 C1624 1.400 . S
C1623 C1628 1.490 . S
C1624 H1614 0.930 . S
C1624 C1623 1.400 . S
C1624 C1627 1.386 . S
H1625 C1641 0.930 . S
H1626 C1642 0.931 . S
C1627 H1615 0.929 . S
C1627 C1621 1.390 . S
C1627 C1624 1.386 . S
C1628 C1623 1.490 . S
C1628 C1630 1.395 . S
C1628 C1631 1.403 . S
H1629 C1635 0.930 . S
C1630 H1616 0.930 . S
C1630 C1628 1.395 . S
C1630 C1633 1.403 . S
C1631 C1628 1.403 . S
C1631 C1632 1.524 . S
C1631 C1635 1.400 . S
C1632 H1617 0.960 . S
C1632 H1618 0.960 . S
C1632 H1619 0.960 . S
C1632 C1631 1.524 . S
C1633 C1630 1.403 . S
C1633 C1634 1.392 . S
C1633 C1637 1.495 . S
C1634 C1633 1.392 . S
C1634 C1635 1.385 . S
C1634 C1636 1.478 . S
C1635 H1629 0.930 . S
C1635 C1631 1.400 . S
C1635 C1634 1.385 . S
C1636 C1634 1.478 . S
C1636 C1638 1.381 . S
C1636 C1642 1.383 . S
C1637 C1633 1.495 . S
C1637 H1643 0.959 . S
C1637 H1644 0.961 . S
C1637 H1645 0.960 . S
C1638 C1636 1.381 . S
C1638 C1639 1.394 . S
C1638 H1646 0.930 . S
C1639 C1638 1.394 . S
C1639 C1640 1.383 . S
C1639 H1647 0.929 . S
C1640 C1639 1.383 . S
C1640 C1641 1.377 . S
C1641 H1625 0.930 . S
C1641 C1640 1.377 . S
C1641 C1642 1.379 . S
C1642 H1626 0.931 . S
C1642 C1636 1.383 . S
C1642 C1641 1.379 . S
H1643 C1637 0.959 . S
H1644 C1637 0.961 . S
H1645 C1637 0.960 . S
H1646 C1638 0.930 . S
H1647 C1639 0.929 . S
H1648 C1656 0.929 . S
H1649 C1658 0.930 . S
H1650 C1660 0.930 . S
H1651 C1663 0.929 . S
H1652 C1666 0.930 . S
H1653 C1668 0.960 . S
H1654 C1668 0.960 . S
H1655 C1668 0.960 . S
C1656 H1648 0.929 . S
C1656 C1657 1.377 . S
C1656 C1658 1.384 . S
C1657 C1656 1.377 . S
C1657 C1663 1.390 . S
C1658 H1649 0.930 . S
C1658 C1656 1.384 . S
C1658 C1659 1.372 . S
C1659 C1658 1.372 . S
C1659 C1660 1.400 . S
C1659 C1664 1.490 . S
C1660 H1650 0.930 . S
C1660 C1659 1.400 . S
C1660 C1663 1.386 . S
H1661 C1677 0.930 . S
H1662 C1678 0.931 . S
C1663 H1651 0.929 . S
C1663 C1657 1.390 . S
C1663 C1660 1.386 . S
C1664 C1659 1.490 . S
C1664 C1666 1.395 . S
C1664 C1667 1.403 . S
H1665 C1671 0.930 . S
C1666 H1652 0.930 . S
C1666 C1664 1.395 . S
C1666 C1669 1.403 . S
C1667 C1664 1.403 . S
C1667 C1668 1.524 . S
C1667 C1671 1.400 . S
C1668 H1653 0.960 . S
C1668 H1654 0.960 . S
C1668 H1655 0.960 . S
C1668 C1667 1.524 . S
C1669 C1666 1.403 . S
C1669 C1670 1.392 . S
C1669 C1673 1.495 . S
C1670 C1669 1.392 . S
C1670 C1671 1.385 . S
C1670 C1672 1.478 . S
C1671 H1665 0.930 . S
C1671 C1667 1.400 . S
C1671 C1670 1.385 . S
C1672 C1670 1.478 . S
C1672 C1674 1.381 . S
C1672 C1678 1.383 . S
C1673 C1669 1.495 . S
C1673 H1679 0.959 . S
C1673 H1680 0.961 . S
C1673 H1681 0.960 . S
C1674 C1672 1.381 . S
C1674 C1675 1.394 . S
C1674 H1682 0.930 . S
C1675 C1674 1.394 . S
C1675 C1676 1.383 . S
C1675 H1683 0.929 . S
C1676 C1675 1.383 . S
C1676 C1677 1.377 . S
C1677 H1661 0.930 . S
C1677 C1676 1.377 . S
C1677 C1678 1.379 . S
C1678 H1662 0.931 . S
C1678 C1672 1.383 . S
C1678 C1677 1.379 . S
H1679 C1673 0.959 . S
H1680 C1673 0.961 . S
H1681 C1673 0.960 . S
H1682 C1674 0.930 . S
H1683 C1675 0.929 . S
H1684 C1692 0.929 . S
H1685 C1694 0.930 . S
H1686 C1696 0.930 . S
H1687 C1699 0.929 . S
H1688 C1702 0.930 . S
H1689 C1704 0.960 . S
H1690 C1704 0.960 . S
H1691 C1704 0.960 . S
C1692 H1684 0.929 . S
C1692 C1693 1.377 . S
C1692 C1694 1.384 . S
C1693 C1692 1.377 . S
C1693 C1699 1.390 . S
C1694 H1685 0.930 . S
C1694 C1692 1.384 . S
C1694 C1695 1.372 . S
C1695 C1694 1.372 . S
C1695 C1696 1.400 . S
C1695 C1700 1.490 . S
C1696 H1686 0.930 . S
C1696 C1695 1.400 . S
C1696 C1699 1.386 . S
H1697 C1713 0.930 . S
H1698 C1714 0.931 . S
C1699 H1687 0.929 . S
C1699 C1693 1.390 . S
C1699 C1696 1.386 . S
C1700 C1695 1.490 . S
C1700 C1702 1.395 . S
C1700 C1703 1.403 . S
H1701 C1707 0.930 . S
C1702 H1688 0.930 . S
C1702 C1700 1.395 . S
C1702 C1705 1.403 . S
C1703 C1700 1.403 . S
C1703 C1704 1.524 . S
C1703 C1707 1.400 . S
C1704 H1689 0.960 . S
C1704 H1690 0.960 . S
C1704 H1691 0.960 . S
C1704 C1703 1.524 . S
C1705 C1702 1.403 . S
C1705 C1706 1.392 . S
C1705 C1709 1.495 . S
C1706 C1705 1.392 . S
C1706 C1707 1.385 . S
C1706 C1708 1.478 . S
C1707 H1701 0.930 . S
C1707 C1703 1.400 . S
C1707 C1706 1.385 . S
C1708 C1706 1.478 . S
C1708 C1710 1.381 . S
C1708 C1714 1.383 . S
C1709 C1705 1.495 . S
C1709 H1715 0.959 . S
C1709 H1716 0.961 . S
C1709 H1717 0.960 . S
C1710 C1708 1.381 . S
C1710 C1711 1.394 . S
C1710 H1718 0.930 . S
C1711 C1710 1.394 . S
C1711 C1712 1.383 . S
C1711 H1719 0.929 . S
C1712 C1711 1.383 . S
C1712 C1713 1.377 . S
C1713 H1697 0.930 . S
C1713 C1712 1.377 . S
C1713 C1714 1.379 . S
C1714 H1698 0.931 . S
C1714 C1708 1.383 . S
C1714 C1713 1.379 . S
H1715 C1709 0.959 . S
H1716 C1709 0.961 . S
H1717 C1709 0.960 . S
H1718 C1710 0.930 . S
H1719 C1711 0.929 . S
H1720 C1728 0.929 . S
H1721 C1730 0.930 . S
H1722 C1732 0.930 . S
H1723 C1735 0.929 . S
H1724 C1738 0.930 . S
H1725 C1740 0.960 . S
H1726 C1740 0.960 . S
H1727 C1740 0.960 . S
C1728 H1720 0.929 . S
C1728 C1729 1.377 . S
C1728 C1730 1.384 . S
C1729 C1728 1.377 . S
C1729 C1735 1.390 . S
C1730 H1721 0.930 . S
C1730 C1728 1.384 . S
C1730 C1731 1.372 . S
C1731 C1730 1.372 . S
C1731 C1732 1.400 . S
C1731 C1736 1.490 . S
C1732 H1722 0.930 . S
C1732 C1731 1.400 . S
C1732 C1735 1.386 . S
H1733 C1749 0.930 . S
H1734 C1750 0.931 . S
C1735 H1723 0.929 . S
C1735 C1729 1.390 . S
C1735 C1732 1.386 . S
C1736 C1731 1.490 . S
C1736 C1738 1.395 . S
C1736 C1739 1.403 . S
H1737 C1743 0.930 . S
C1738 H1724 0.930 . S
C1738 C1736 1.395 . S
C1738 C1741 1.403 . S
C1739 C1736 1.403 . S
C1739 C1740 1.524 . S
C1739 C1743 1.400 . S
C1740 H1725 0.960 . S
C1740 H1726 0.960 . S
C1740 H1727 0.960 . S
C1740 C1739 1.524 . S
C1741 C1738 1.403 . S
C1741 C1742 1.392 . S
C1741 C1745 1.495 . S
C1742 C1741 1.392 . S
C1742 C1743 1.385 . S
C1742 C1744 1.478 . S
C1743 H1737 0.930 . S
C1743 C1739 1.400 . S
C1743 C1742 1.385 . S
C1744 C1742 1.478 . S
C1744 C1746 1.381 . S
C1744 C1750 1.383 . S
C1745 C1741 1.495 . S
C1745 H1751 0.959 . S
C1745 H1752 0.961 . S
C1745 H1753 0.960 . S
C1746 C1744 1.381 . S
C1746 C1747 1.394 . S
C1746 H1754 0.930 . S
C1747 C1746 1.394 . S
C1747 C1748 1.383 . S
C1747 H1755 0.929 . S
C1748 C1747 1.383 . S
C1748 C1749 1.377 . S
C1749 H1733 0.930 . S
C1749 C1748 1.377 . S
C1749 C1750 1.379 . S
C1750 H1734 0.931 . S
C1750 C1744 1.383 . S
C1750 C1749 1.379 . S
H1751 C1745 0.959 . S
H1752 C1745 0.961 . S
H1753 C1745 0.960 . S
H1754 C1746 0.930 . S
H1755 C1747 0.929 . S
H1756 C1764 0.929 . S
H1757 C1766 0.930 . S
H1758 C1768 0.930 . S
H1759 C1771 0.929 . S
H1760 C1774 0.930 . S
H1761 C1776 0.960 . S
H1762 C1776 0.960 . S
H1763 C1776 0.960 . S
C1764 H1756 0.929 . S
C1764 C1765 1.377 . S
C1764 C1766 1.384 . S
C1765 C1764 1.377 . S
C1765 C1771 1.390 . S
C1766 H1757 0.930 . S
C1766 C1764 1.384 . S
C1766 C1767 1.372 . S
C1767 C1766 1.372 . S
C1767 C1768 1.400 . S
C1767 C1772 1.490 . S
C1768 H1758 0.930 . S
C1768 C1767 1.400 . S
C1768 C1771 1.386 . S
H1769 C1785 0.930 . S
H1770 C1786 0.931 . S
C1771 H1759 0.929 . S
C1771 C1765 1.390 . S
C1771 C1768 1.386 . S
C1772 C1767 1.490 . S
C1772 C1774 1.395 . S
C1772 C1775 1.403 . S
H1773 C1779 0.930 . S
C1774 H1760 0.930 . S
C1774 C1772 1.395 . S
C1774 C1777 1.403 . S
C1775 C1772 1.403 . S
C1775 C1776 1.524 . S
C1775 C1779 1.400 . S
C1776 H1761 0.960 . S
C1776 H1762 0.960 . S
C1776 H1763 0.960 . S
C1776 C1775 1.524 . S
C1777 C1774 1.403 . S
C1777 C1778 1.392 . S
C1777 C1781 1.495 . S
C1778 C1777 1.392 . S
C1778 C1779 1.385 . S
C1778 C1780 1.478 . S
C1779 H1773 0.930 . S
C1779 C1775 1.400 . S
C1779 C1778 1.385 . S
C1780 C1778 1.478 . S
C1780 C1782 1.381 . S
C1780 C1786 1.383 . S
C1781 C1777 1.495 . S
C1781 H1787 0.959 . S
C1781 H1788 0.961 . S
C1781 H1789 0.960 . S
C1782 C1780 1.381 . S
C1782 C1783 1.394 . S
C1782 H1790 0.930 . S
C1783 C1782 1.394 . S
C1783 C1784 1.383 . S
C1783 H1791 0.929 . S
C1784 C1783 1.383 . S
C1784 C1785 1.377 . S
C1785 H1769 0.930 . S
C1785 C1784 1.377 . S
C1785 C1786 1.379 . S
C1786 H1770 0.931 . S
C1786 C1780 1.383 . S
C1786 C1785 1.379 . S
H1787 C1781 0.959 . S
H1788 C1781 0.961 . S
H1789 C1781 0.960 . S
H1790 C1782 0.930 . S
H1791 C1783 0.929 . S
H1792 C1800 0.929 . S
H1793 C1802 0.930 . S
H1794 C1804 0.930 . S
H1795 C1807 0.929 . S
H1796 C1810 0.930 . S
H1797 C1812 0.960 . S
H1798 C1812 0.960 . S
H1799 C1812 0.960 . S
C1800 H1792 0.929 . S
C1800 C1801 1.377 . S
C1800 C1802 1.384 . S
C1801 C1800 1.377 . S
C1801 C1807 1.390 . S
C1802 H1793 0.930 . S
C1802 C1800 1.384 . S
C1802 C1803 1.372 . S
C1803 C1802 1.372 . S
C1803 C1804 1.400 . S
C1803 C1808 1.490 . S
C1804 H1794 0.930 . S
C1804 C1803 1.400 . S
C1804 C1807 1.386 . S
H1805 C1821 0.930 . S
H1806 C1822 0.931 . S
C1807 H1795 0.929 . S
C1807 C1801 1.390 . S
C1807 C1804 1.386 . S
C1808 C1803 1.490 . S
C1808 C1810 1.395 . S
C1808 C1811 1.403 . S
H1809 C1815 0.930 . S
C1810 H1796 0.930 . S
C1810 C1808 1.395 . S
C1810 C1813 1.403 . S
C1811 C1808 1.403 . S
C1811 C1812 1.524 . S
C1811 C1815 1.400 . S
C1812 H1797 0.960 . S
C1812 H1798 0.960 . S
C1812 H1799 0.960 . S
C1812 C1811 1.524 . S
C1813 C1810 1.403 . S
C1813 C1814 1.392 . S
C1813 C1817 1.495 . S
C1814 C1813 1.392 . S
C1814 C1815 1.385 . S
C1814 C1816 1.478 . S
C1815 H1809 0.930 . S
C1815 C1811 1.400 . S
C1815 C1814 1.385 . S
C1816 C1814 1.478 . S
C1816 C1818 1.381 . S
C1816 C1822 1.383 . S
C1817 C1813 1.495 . S
C1817 H1823 0.959 . S
C1817 H1824 0.961 . S
C1817 H1825 0.960 . S
C1818 C1816 1.381 . S
C1818 C1819 1.394 . S
C1818 H1826 0.930 . S
C1819 C1818 1.394 . S
C1819 C1820 1.383 . S
C1819 H1827 0.929 . S
C1820 C1819 1.383 . S
C1820 C1821 1.377 . S
C1821 H1805 0.930 . S
C1821 C1820 1.377 . S
C1821 C1822 1.379 . S
C1822 H1806 0.931 . S
C1822 C1816 1.383 . S
C1822 C1821 1.379 . S
H1823 C1817 0.959 . S
H1824 C1817 0.961 . S
H1825 C1817 0.960 . S
H1826 C1818 0.930 . S
H1827 C1819 0.929 . S
H1828 C1836 0.929 . S
H1829 C1838 0.930 . S
H1830 C1840 0.930 . S
H1831 C1843 0.929 . S
H1832 C1846 0.930 . S
H1833 C1848 0.960 . S
H1834 C1848 0.960 . S
H1835 C1848 0.960 . S
C1836 H1828 0.929 . S
C1836 C1837 1.377 . S
C1836 C1838 1.384 . S
C1837 C1836 1.377 . S
C1837 C1843 1.390 . S
C1838 H1829 0.930 . S
C1838 C1836 1.384 . S
C1838 C1839 1.372 . S
C1839 C1838 1.372 . S
C1839 C1840 1.400 . S
C1839 C1844 1.490 . S
C1840 H1830 0.930 . S
C1840 C1839 1.400 . S
C1840 C1843 1.386 . S
H1841 C1857 0.930 . S
H1842 C1858 0.931 . S
C1843 H1831 0.929 . S
C1843 C1837 1.390 . S
C1843 C1840 1.386 . S
C1844 C1839 1.490 . S
C1844 C1846 1.395 . S
C1844 C1847 1.403 . S
H1845 C1851 0.930 . S
C1846 H1832 0.930 . S
C1846 C1844 1.395 . S
C1846 C1849 1.403 . S
C1847 C1844 1.403 . S
C1847 C1848 1.524 . S
C1847 C1851 1.400 . S
C1848 H1833 0.960 . S
C1848 H1834 0.960 . S
C1848 H1835 0.960 . S
C1848 C1847 1.524 . S
C1849 C1846 1.403 . S
C1849 C1850 1.392 . S
C1849 C1853 1.495 . S
C1850 C1849 1.392 . S
C1850 C1851 1.385 . S
C1850 C1852 1.478 . S
C1851 H1845 0.930 . S
C1851 C1847 1.400 . S
C1851 C1850 1.385 . S
C1852 C1850 1.478 . S
C1852 C1854 1.381 . S
C1852 C1858 1.383 . S
C1853 C1849 1.495 . S
C1853 H1859 0.959 . S
C1853 H1860 0.961 . S
C1853 H1861 0.960 . S
C1854 C1852 1.381 . S
C1854 C1855 1.394 . S
C1854 H1862 0.930 . S
C1855 C1854 1.394 . S
C1855 C1856 1.383 . S
C1855 H1863 0.929 . S
C1856 C1855 1.383 . S
C1856 C1857 1.377 . S
C1857 H1841 0.930 . S
C1857 C1856 1.377 . S
C1857 C1858 1.379 . S
C1858 H1842 0.931 . S
C1858 C1852 1.383 . S
C1858 C1857 1.379 . S
H1859 C1853 0.959 . S
H1860 C1853 0.961 . S
H1861 C1853 0.960 . S
H1862 C1854 0.930 . S
H1863 C1855 0.929 . S
H1864 C1872 0.929 . S
H1865 C1874 0.930 . S
H1866 C1876 0.930 . S
H1867 C1879 0.929 . S
H1868 C1882 0.930 . S
H1869 C1884 0.960 . S
H1870 C1884 0.960 . S
H1871 C1884 0.960 . S
C1872 H1864 0.929 . S
C1872 C1873 1.377 . S
C1872 C1874 1.384 . S
C1873 C1872 1.377 . S
C1873 C1879 1.390 . S
C1874 H1865 0.930 . S
C1874 C1872 1.384 . S
C1874 C1875 1.372 . S
C1875 C1874 1.372 . S
C1875 C1876 1.400 . S
C1875 C1880 1.490 . S
C1876 H1866 0.930 . S
C1876 C1875 1.400 . S
C1876 C1879 1.386 . S
H1877 C1893 0.930 . S
H1878 C1894 0.931 . S
C1879 H1867 0.929 . S
C1879 C1873 1.390 . S
C1879 C1876 1.386 . S
C1880 C1875 1.490 . S
C1880 C1882 1.395 . S
C1880 C1883 1.403 . S
H1881 C1887 0.930 . S
C1882 H1868 0.930 . S
C1882 C1880 1.395 . S
C1882 C1885 1.403 . S
C1883 C1880 1.403 . S
C1883 C1884 1.524 . S
C1883 C1887 1.400 . S
C1884 H1869 0.960 . S
C1884 H1870 0.960 . S
C1884 H1871 0.960 . S
C1884 C1883 1.524 . S
C1885 C1882 1.403 . S
C1885 C1886 1.392 . S
C1885 C1889 1.495 . S
C1886 C1885 1.392 . S
C1886 C1887 1.385 . S
C1886 C1888 1.478 . S
C1887 H1881 0.930 . S
C1887 C1883 1.400 . S
C1887 C1886 1.385 . S
C1888 C1886 1.478 . S
C1888 C1890 1.381 . S
C1888 C1894 1.383 . S
C1889 C1885 1.495 . S
C1889 H1895 0.959 . S
C1889 H1896 0.961 . S
C1889 H1897 0.960 . S
C1890 C1888 1.381 . S
C1890 C1891 1.394 . S
C1890 H1898 0.930 . S
C1891 C1890 1.394 . S
C1891 C1892 1.383 . S
C1891 H1899 0.929 . S
C1892 C1891 1.383 . S
C1892 C1893 1.377 . S
C1893 H1877 0.930 . S
C1893 C1892 1.377 . S
C1893 C1894 1.379 . S
C1894 H1878 0.931 . S
C1894 C1888 1.383 . S
C1894 C1893 1.379 . S
H1895 C1889 0.959 . S
H1896 C1889 0.961 . S
H1897 C1889 0.960 . S
H1898 C1890 0.930 . S
H1899 C1891 0.929 . S
H1900 C1908 0.929 . S
H1901 C1910 0.930 . S
H1902 C1912 0.930 . S
H1903 C1915 0.929 . S
H1904 C1918 0.930 . S
H1905 C1920 0.960 . S
H1906 C1920 0.960 . S
H1907 C1920 0.960 . S
C1908 H1900 0.929 . S
C1908 C1909 1.377 . S
C1908 C1910 1.384 . S
C1909 C1908 1.377 . S
C1909 C1915 1.390 . S
C1910 H1901 0.930 . S
C1910 C1908 1.384 . S
C1910 C1911 1.372 . S
C1911 C1910 1.372 . S
C1911 C1912 1.400 . S
C1911 C1916 1.490 . S
C1912 H1902 0.930 . S
C1912 C1911 1.400 . S
C1912 C1915 1.386 . S
H1913 C1929 0.930 . S
H1914 C1930 0.931 . S
C1915 H1903 0.929 . S
C1915 C1909 1.390 . S
C1915 C1912 1.386 . S
C1916 C1911 1.490 . S
C1916 C1918 1.395 . S
C1916 C1919 1.403 . S
H1917 C1923 0.930 . S
C1918 H1904 0.930 . S
C1918 C1916 1.395 . S
C1918 C1921 1.403 . S
C1919 C1916 1.403 . S
C1919 C1920 1.524 . S
C1919 C1923 1.400 . S
C1920 H1905 0.960 . S
C1920 H1906 0.960 . S
C1920 H1907 0.960 . S
C1920 C1919 1.524 . S
C1921 C1918 1.403 . S
C1921 C1922 1.392 . S
C1921 C1925 1.495 . S
C1922 C1921 1.392 . S
C1922 C1923 1.385 . S
C1922 C1924 1.478 . S
C1923 H1917 0.930 . S
C1923 C1919 1.400 . S
C1923 C1922 1.385 . S
C1924 C1922 1.478 . S
C1924 C1926 1.381 . S
C1924 C1930 1.383 . S
C1925 C1921 1.495 . S
C1925 H1931 0.959 . S
C1925 H1932 0.961 . S
C1925 H1933 0.960 . S
C1926 C1924 1.381 . S
C1926 C1927 1.394 . S
C1926 H1934 0.930 . S
C1927 C1926 1.394 . S
C1927 C1928 1.383 . S
C1927 H1935 0.929 . S
C1928 C1927 1.383 . S
C1928 C1929 1.377 . S
C1929 H1913 0.930 . S
C1929 C1928 1.377 . S
C1929 C1930 1.379 . S
C1930 H1914 0.931 . S
C1930 C1924 1.383 . S
C1930 C1929 1.379 . S
H1931 C1925 0.959 . S
H1932 C1925 0.961 . S
H1933 C1925 0.960 . S
H1934 C1926 0.930 . S
H1935 C1927 0.929 . S
H1936 C1944 0.929 . S
H1937 C1946 0.930 . S
H1938 C1948 0.930 . S
H1939 C1951 0.929 . S
H1940 C1954 0.930 . S
H1941 C1956 0.960 . S
H1942 C1956 0.960 . S
H1943 C1956 0.960 . S
C1944 H1936 0.929 . S
C1944 C1945 1.377 . S
C1944 C1946 1.384 . S
C1945 C1944 1.377 . S
C1945 C1951 1.390 . S
C1946 H1937 0.930 . S
C1946 C1944 1.384 . S
C1946 C1947 1.372 . S
C1947 C1946 1.372 . S
C1947 C1948 1.400 . S
C1947 C1952 1.490 . S
C1948 H1938 0.930 . S
C1948 C1947 1.400 . S
C1948 C1951 1.386 . S
H1949 C1965 0.930 . S
H1950 C1966 0.931 . S
C1951 H1939 0.929 . S
C1951 C1945 1.390 . S
C1951 C1948 1.386 . S
C1952 C1947 1.490 . S
C1952 C1954 1.395 . S
C1952 C1955 1.403 . S
H1953 C1959 0.930 . S
C1954 H1940 0.930 . S
C1954 C1952 1.395 . S
C1954 C1957 1.403 . S
C1955 C1952 1.403 . S
C1955 C1956 1.524 . S
C1955 C1959 1.400 . S
C1956 H1941 0.960 . S
C1956 H1942 0.960 . S
C1956 H1943 0.960 . S
C1956 C1955 1.524 . S
C1957 C1954 1.403 . S
C1957 C1958 1.392 . S
C1957 C1961 1.495 . S
C1958 C1957 1.392 . S
C1958 C1959 1.385 . S
C1958 C1960 1.478 . S
C1959 H1953 0.930 . S
C1959 C1955 1.400 . S
C1959 C1958 1.385 . S
C1960 C1958 1.478 . S
C1960 C1962 1.381 . S
C1960 C1966 1.383 . S
C1961 C1957 1.495 . S
C1961 H1967 0.959 . S
C1961 H1968 0.961 . S
C1961 H1969 0.960 . S
C1962 C1960 1.381 . S
C1962 C1963 1.394 . S
C1962 H1970 0.930 . S
C1963 C1962 1.394 . S
C1963 C1964 1.383 . S
C1963 H1971 0.929 . S
C1964 C1963 1.383 . S
C1964 C1965 1.377 . S
C1965 H1949 0.930 . S
C1965 C1964 1.377 . S
C1965 C1966 1.379 . S
C1966 H1950 0.931 . S
C1966 C1960 1.383 . S
C1966 C1965 1.379 . S
H1967 C1961 0.959 . S
H1968 C1961 0.961 . S
H1969 C1961 0.960 . S
H1970 C1962 0.930 . S
H1971 C1963 0.929 . S
H1972 C1980 0.929 . S
H1973 C1982 0.930 . S
H1974 C1984 0.930 . S
H1975 C1987 0.929 . S
H1976 C1990 0.930 . S
H1977 C1992 0.960 . S
H1978 C1992 0.960 . S
H1979 C1992 0.960 . S
C1980 H1972 0.929 . S
C1980 C1981 1.377 . S
C1980 C1982 1.384 . S
C1981 C1980 1.377 . S
C1981 C1987 1.390 . S
C1982 H1973 0.930 . S
C1982 C1980 1.384 . S
C1982 C1983 1.372 . S
C1983 C1982 1.372 . S
C1983 C1984 1.400 . S
C1983 C1988 1.490 . S
C1984 H1974 0.930 . S
C1984 C1983 1.400 . S
C1984 C1987 1.386 . S
H1985 C2001 0.930 . S
H1986 C2002 0.931 . S
C1987 H1975 0.929 . S
C1987 C1981 1.390 . S
C1987 C1984 1.386 . S
C1988 C1983 1.490 . S
C1988 C1990 1.395 . S
C1988 C1991 1.403 . S
H1989 C1995 0.930 . S
C1990 H1976 0.930 . S
C1990 C1988 1.395 . S
C1990 C1993 1.403 . S
C1991 C1988 1.403 . S
C1991 C1992 1.524 . S
C1991 C1995 1.400 . S
C1992 H1977 0.960 . S
C1992 H1978 0.960 . S
C1992 H1979 0.960 . S
C1992 C1991 1.524 . S
C1993 C1990 1.403 . S
C1993 C1994 1.392 . S
C1993 C1997 1.495 . S
C1994 C1993 1.392 . S
C1994 C1995 1.385 . S
C1994 C1996 1.478 . S
C1995 H1989 0.930 . S
C1995 C1991 1.400 . S
C1995 C1994 1.385 . S
C1996 C1994 1.478 . S
C1996 C1998 1.381 . S
C1996 C2002 1.383 . S
C1997 C1993 1.495 . S
C1997 H2003 0.959 . S
C1997 H2004 0.961 . S
C1997 H2005 0.960 . S
C1998 C1996 1.381 . S
C1998 C1999 1.394 . S
C1998 H2006 0.930 . S
C1999 C1998 1.394 . S
C1999 C2000 1.383 . S
C1999 H2007 0.929 . S
C2000 C1999 1.383 . S
C2000 C2001 1.377 . S
C2001 H1985 0.930 . S
C2001 C2000 1.377 . S
C2001 C2002 1.379 . S
C2002 H1986 0.931 . S
C2002 C1996 1.383 . S
C2002 C2001 1.379 . S
H2003 C1997 0.959 . S
H2004 C1997 0.961 . S
H2005 C1997 0.960 . S
H2006 C1998 0.930 . S
H2007 C1999 0.929 . S
H2008 C2016 0.929 . S
H2009 C2018 0.930 . S
H2010 C2020 0.930 . S
H2011 C2023 0.929 . S
H2012 C2026 0.930 . S
H2013 C2028 0.960 . S
H2014 C2028 0.960 . S
H2015 C2028 0.960 . S
C2016 H2008 0.929 . S
C2016 C2017 1.377 . S
C2016 C2018 1.384 . S
C2017 C2016 1.377 . S
C2017 C2023 1.390 . S
C2018 H2009 0.930 . S
C2018 C2016 1.384 . S
C2018 C2019 1.372 . S
C2019 C2018 1.372 . S
C2019 C2020 1.400 . S
C2019 C2024 1.490 . S
C2020 H2010 0.930 . S
C2020 C2019 1.400 . S
C2020 C2023 1.386 . S
H2021 C2037 0.930 . S
H2022 C2038 0.931 . S
C2023 H2011 0.929 . S
C2023 C2017 1.390 . S
C2023 C2020 1.386 . S
C2024 C2019 1.490 . S
C2024 C2026 1.395 . S
C2024 C2027 1.403 . S
H2025 C2031 0.930 . S
C2026 H2012 0.930 . S
C2026 C2024 1.395 . S
C2026 C2029 1.403 . S
C2027 C2024 1.403 . S
C2027 C2028 1.524 . S
C2027 C2031 1.400 . S
C2028 H2013 0.960 . S
C2028 H2014 0.960 . S
C2028 H2015 0.960 . S
C2028 C2027 1.524 . S
C2029 C2026 1.403 . S
C2029 C2030 1.392 . S
C2029 C2033 1.495 . S
C2030 C2029 1.392 . S
C2030 C2031 1.385 . S
C2030 C2032 1.478 . S
C2031 H2025 0.930 . S
C2031 C2027 1.400 . S
C2031 C2030 1.385 . S
C2032 C2030 1.478 . S
C2032 C2034 1.381 . S
C2032 C2038 1.383 . S
C2033 C2029 1.495 . S
C2033 H2039 0.959 . S
C2033 H2040 0.961 . S
C2033 H2041 0.960 . S
C2034 C2032 1.381 . S
C2034 C2035 1.394 . S
C2034 H2042 0.930 . S
C2035 C2034 1.394 . S
C2035 C2036 1.383 . S
C2035 H2043 0.929 . S
C2036 C2035 1.383 . S
C2036 C2037 1.377 . S
C2037 H2021 0.930 . S
C2037 C2036 1.377 . S
C2037 C2038 1.379 . S
C2038 H2022 0.931 . S
C2038 C2032 1.383 . S
C2038 C2037 1.379 . S
H2039 C2033 0.959 . S
H2040 C2033 0.961 . S
H2041 C2033 0.960 . S
H2042 C2034 0.930 . S
H2043 C2035 0.929 . S
H2044 C2052 0.929 . S
H2045 C2054 0.930 . S
H2046 C2056 0.930 . S
H2047 C2059 0.929 . S
H2048 C2062 0.930 . S
H2049 C2064 0.960 . S
H2050 C2064 0.960 . S
H2051 C2064 0.960 . S
C2052 H2044 0.929 . S
C2052 C2053 1.377 . S
C2052 C2054 1.384 . S
C2053 C2052 1.377 . S
C2053 C2059 1.390 . S
C2054 H2045 0.930 . S
C2054 C2052 1.384 . S
C2054 C2055 1.372 . S
C2055 C2054 1.372 . S
C2055 C2056 1.400 . S
C2055 C2060 1.490 . S
C2056 H2046 0.930 . S
C2056 C2055 1.400 . S
C2056 C2059 1.386 . S
H2057 C2073 0.930 . S
H2058 C2074 0.931 . S
C2059 H2047 0.929 . S
C2059 C2053 1.390 . S
C2059 C2056 1.386 . S
C2060 C2055 1.490 . S
C2060 C2062 1.395 . S
C2060 C2063 1.403 . S
H2061 C2067 0.930 . S
C2062 H2048 0.930 . S
C2062 C2060 1.395 . S
C2062 C2065 1.403 . S
C2063 C2060 1.403 . S
C2063 C2064 1.524 . S
C2063 C2067 1.400 . S
C2064 H2049 0.960 . S
C2064 H2050 0.960 . S
C2064 H2051 0.960 . S
C2064 C2063 1.524 . S
C2065 C2062 1.403 . S
C2065 C2066 1.392 . S
C2065 C2069 1.495 . S
C2066 C2065 1.392 . S
C2066 C2067 1.385 . S
C2066 C2068 1.478 . S
C2067 H2061 0.930 . S
C2067 C2063 1.400 . S
C2067 C2066 1.385 . S
C2068 C2066 1.478 . S
C2068 C2070 1.381 . S
C2068 C2074 1.383 . S
C2069 C2065 1.495 . S
C2069 H2075 0.959 . S
C2069 H2076 0.961 . S
C2069 H2077 0.960 . S
C2070 C2068 1.381 . S
C2070 C2071 1.394 . S
C2070 H2078 0.930 . S
C2071 C2070 1.394 . S
C2071 C2072 1.383 . S
C2071 H2079 0.929 . S
C2072 C2071 1.383 . S
C2072 C2073 1.377 . S
C2073 H2057 0.930 . S
C2073 C2072 1.377 . S
C2073 C2074 1.379 . S
C2074 H2058 0.931 . S
C2074 C2068 1.383 . S
C2074 C2073 1.379 . S
H2075 C2069 0.959 . S
H2076 C2069 0.961 . S
H2077 C2069 0.960 . S
H2078 C2070 0.930 . S
H2079 C2071 0.929 . S
C361 C18 0.834 . S
C380 C164 0.810 . S
C397 C96 0.827 . S
C416 C32 0.857 . S
C433 C118 0.823 . S
C452 C54 0.809 . S
C469 C76 0.825 . S
C488 C140 0.861 . S
C505 C340 0.834 . S
C524 C186 0.799 . S
C541 C282 0.826 . S
C560 C208 0.861 . S
C577 C294 0.831 . S
C596 C230 0.846 . S
C613 C326 0.819 . S
C632 C260 0.830 . S
C649 C8 1.109 . S
C668 C348 1.135 . S
C685 C40 1.110 . S
C704 C272 1.086 . S
C721 C62 1.106 . S
C740 C296 1.113 . S
C757 C316 1.114 . S
C776 C84 1.082 . S
C793 C216 1.113 . S
C812 C98 1.081 . S
C829 C120 1.111 . S
C848 C238 1.086 . S
C865 C250 1.106 . S
C884 C142 1.132 . S
C901 C172 1.115 . S
C920 C194 1.083 . S
C937 C274 1.310 . S
C956 C21 1.319 . S
C973 C29 1.303 . S
C992 C304 1.292 . S
C1009 C318 1.311 . S
C1028 C51 1.319 . S
C1045 C338 1.307 . S
C1064 C73 1.285 . S
C1081 C103 1.307 . S
C1100 C184 1.298 . S
C1117 C125 1.307 . S
C1136 C206 1.321 . S
C1153 C147 1.309 . S
C1172 C228 1.315 . S
C1189 C252 1.310 . S
C1208 C161 1.319 . S
C1225 C183 1.303 . S
C1244 C106 1.314 . S
C1261 C205 1.309 . S
C1280 C128 1.292 . S
C1297 C150 1.306 . S
C1316 C227 1.317 . S
C1333 C263 1.303 . S
C1352 C162 1.316 . S
C1369 C285 1.303 . S
C1388 C10 1.316 . S
C1405 C301 1.302 . S
C1424 C30 1.320 . S
C1441 C52 1.307 . S
C1460 C329 1.315 . S
C1477 C74 1.310 . S
C1496 C337 1.297 . S
C1513 C15 1.508 . S
C1532 C213 1.446 . S
C1549 C235 1.467 . S
C1568 C43 1.506 . S
C1585 C65 1.505 . S
C1604 C249 1.458 . S
C1621 C87 1.508 . S
C1640 C191 1.455 . S
C1657 C95 1.505 . S
C1676 C345 1.462 . S
C1693 C117 1.507 . S
C1712 C271 1.436 . S
C1729 C139 1.505 . S
C1748 C307 1.434 . S
C1765 C315 1.457 . S
C1784 C175 1.493 . S
C1801 C37 1.458 . S
C1820 C197 1.509 . S
C1837 C59 1.460 . S
C1856 C219 1.512 . S
C1873 C241 1.509 . S
C1892 C81 1.481 . S
C1909 C257 1.507 . S
C1928 C7 1.484 . S
C1945 C169 1.465 . S
C1964 C279 1.498 . S
C1981 C109 1.457 . S
C2000 C293 1.506 . S
C2017 C131 1.462 . S
C2036 C323 1.494 . S
C2053 C153 1.466 . S
C2072 C351 1.512 . S
