# Generated by pormake.
# Topology mmt, (4)-cn, num edge types: 1
# Building blocks:
#     Node 0, Type 0, BuildingBlock: GALJAG_clean_sbu_0, # of connection points: 4
#     Node 1, Type 0, BuildingBlock: GALJAG_clean_sbu_0, # of connection points: 4
#     Node 2, Type 0, BuildingBlock: GALJAG_clean_sbu_0, # of connection points: 4
#     Node 3, Type 0, BuildingBlock: GALJAG_clean_sbu_0, # of connection points: 4
#     Node 4, Type 0, BuildingBlock: GALJAG_clean_sbu_0, # of connection points: 4
#     Node 5, Type 0, BuildingBlock: GALJAG_clean_sbu_0, # of connection points: 4
#     Node 6, Type 0, BuildingBlock: GALJAG_clean_sbu_0, # of connection points: 4
#     Node 7, Type 0, BuildingBlock: GALJAG_clean_sbu_0, # of connection points: 4
#     Edge 8, Type (0, 0), BuildingBlock: KIFKEQ_clean_linker_1, # of connection points: 2
#     Edge 9, Type (0, 0), BuildingBlock: KIFKEQ_clean_linker_1, # of connection points: 2
#     Edge 10, Type (0, 0), BuildingBlock: KIFKEQ_clean_linker_1, # of connection points: 2
#     Edge 11, Type (0, 0), BuildingBlock: KIFKEQ_clean_linker_1, # of connection points: 2
#     Edge 12, Type (0, 0), BuildingBlock: KIFKEQ_clean_linker_1, # of connection points: 2
#     Edge 13, Type (0, 0), BuildingBlock: KIFKEQ_clean_linker_1, # of connection points: 2
#     Edge 14, Type (0, 0), BuildingBlock: KIFKEQ_clean_linker_1, # of connection points: 2
#     Edge 15, Type (0, 0), BuildingBlock: KIFKEQ_clean_linker_1, # of connection points: 2
#     Edge 16, Type (0, 0), BuildingBlock: KIFKEQ_clean_linker_1, # of connection points: 2
#     Edge 17, Type (0, 0), BuildingBlock: KIFKEQ_clean_linker_1, # of connection points: 2
#     Edge 18, Type (0, 0), BuildingBlock: KIFKEQ_clean_linker_1, # of connection points: 2
#     Edge 19, Type (0, 0), BuildingBlock: KIFKEQ_clean_linker_1, # of connection points: 2
#     Edge 20, Type (0, 0), BuildingBlock: KIFKEQ_clean_linker_1, # of connection points: 2
#     Edge 21, Type (0, 0), BuildingBlock: KIFKEQ_clean_linker_1, # of connection points: 2
#     Edge 22, Type (0, 0), BuildingBlock: KIFKEQ_clean_linker_1, # of connection points: 2
#     Edge 23, Type (0, 0), BuildingBlock: KIFKEQ_clean_linker_1, # of connection points: 2
# Relax obj value: 0.016
# Max RMSD: 0.061
# Mean RMSD: 0.061
data_MOF--net-mmt--node1-GALJAG_clean_sbu_0--edge1-KIFKEQ_clean_linker_1
_symmetry_space_group_name_H-M    P1
_symmetry_Int_Tables_number       1
_symmetry_cell_setting            triclinic
loop_
_symmetry_equiv_pos_as_xyz
'x, y, z'
_cell_length_a     25.234079
_cell_length_b     37.537922
_cell_length_c     41.783715
_cell_angle_alpha  89.927169
_cell_angle_beta   90.016136
_cell_angle_gamma 90.013694
loop_
_atom_site_label
_atom_site_type_symbol
_atom_site_fract_x
_atom_site_fract_y
_atom_site_fract_z
_atom_type_partial_charge
In0 In 0.12245 0.56604 0.33766 0.0
O1 O 0.19329 0.52783 0.33622 0.0
O2 O 0.17832 0.56007 0.29541 0.0
C3 C 0.08258 0.54705 0.39517 0.0
C4 C 0.16038 0.63296 0.34453 0.0
C5 C 0.03942 0.54625 0.30099 0.0
O6 O 0.1237 0.53289 0.38359 0.0
O7 O 0.06242 0.57127 0.37811 0.0
O8 O 0.04843 0.57834 0.30813 0.0
O9 O 0.07264 0.5243 0.31199 0.0
C10 C 0.2075 0.53698 0.30843 0.0
O11 O 0.12896 0.62426 0.3224 0.0
O12 O 0.17138 0.60819 0.36384 0.0
In13 In 0.38465 0.93774 0.34186 0.0
O14 O 0.30231 0.96318 0.34567 0.0
O15 O 0.33794 0.9602 0.29978 0.0
C16 C 0.42425 0.9584 0.39893 0.0
C17 C 0.34688 0.87043 0.34484 0.0
C18 C 0.47064 0.95449 0.30661 0.0
O19 O 0.39137 0.97695 0.38338 0.0
O20 O 0.43648 0.92922 0.38593 0.0
O21 O 0.45858 0.92258 0.31301 0.0
O22 O 0.43926 0.97747 0.3178 0.0
C23 C 0.29832 0.96943 0.3161 0.0
O24 O 0.37064 0.8824 0.32052 0.0
O25 O 0.34342 0.89207 0.36778 0.0
In26 In 0.62203 0.43493 0.15999 0.0
O27 O 0.62754 0.37656 0.17467 0.0
O28 O 0.66942 0.39255 0.13301 0.0
C29 C 0.53974 0.45483 0.19718 0.0
C30 C 0.70755 0.46343 0.18934 0.0
C31 C 0.58176 0.45429 0.10268 0.0
O32 O 0.54886 0.4227 0.19026 0.0
O33 O 0.57247 0.4768 0.18568 0.0
O34 O 0.62393 0.46758 0.11377 0.0
O35 O 0.56074 0.43079 0.12016 0.0
C36 C 0.65813 0.3677 0.15218 0.0
O37 O 0.69244 0.47357 0.162 0.0
O38 O 0.67917 0.43954 0.20182 0.0
In39 In 0.88575 0.06494 0.16314 0.0
O40 O 0.81724 0.0248 0.16592 0.0
O41 O 0.82921 0.06007 0.20503 0.0
C42 C 0.9257 0.0431 0.10649 0.0
C43 C 0.84613 0.13129 0.15485 0.0
C44 C 0.96957 0.04926 0.2008 0.0
O45 O 0.88413 0.02975 0.11834 0.0
O46 O 0.94623 0.06764 0.12292 0.0
O47 O 0.96347 0.07936 0.18785 0.0
O48 O 0.93324 0.02711 0.19494 0.0
C49 C 0.80192 0.03525 0.19313 0.0
O50 O 0.87528 0.12285 0.17815 0.0
O51 O 0.83795 0.1065 0.13513 0.0
In52 In 0.87715 0.43759 0.65728 0.0
O53 O 0.88038 0.37682 0.6609 0.0
O54 O 0.81368 0.40022 0.63797 0.0
C55 C 0.96216 0.45451 0.69361 0.0
C56 C 0.79553 0.46607 0.69025 0.0
C57 C 0.91268 0.45855 0.59918 0.0
O58 O 0.94565 0.4229 0.69103 0.0
O59 O 0.93552 0.47723 0.6783 0.0
O60 O 0.88182 0.47728 0.6159 0.0
O61 O 0.92457 0.42886 0.61137 0.0
C62 C 0.83636 0.37205 0.64715 0.0
O63 O 0.80524 0.47428 0.66153 0.0
O64 O 0.82737 0.44393 0.70237 0.0
In65 In 0.6261 0.06469 0.66341 0.0
O66 O 0.68465 0.01932 0.67398 0.0
O67 O 0.6942 0.0684 0.6987 0.0
C68 C 0.5868 0.04219 0.60655 0.0
C69 C 0.6627 0.13092 0.65105 0.0
C70 C 0.54595 0.05095 0.70464 0.0
O71 O 0.63174 0.03262 0.61664 0.0
O72 O 0.56241 0.06309 0.62489 0.0
O73 O 0.55234 0.08096 0.6916 0.0
O74 O 0.58054 0.02809 0.69741 0.0
C75 C 0.71118 0.03727 0.69392 0.0
O76 O 0.62725 0.12476 0.67165 0.0
O77 O 0.67887 0.10377 0.63617 0.0
In78 In 0.37707 0.56103 0.83944 0.0
O79 O 0.3014 0.52723 0.83867 0.0
O80 O 0.32807 0.54971 0.7949 0.0
C81 C 0.41303 0.54081 0.89759 0.0
C82 C 0.3373 0.62767 0.84412 0.0
C83 C 0.46463 0.54373 0.80566 0.0
O84 O 0.3828 0.52158 0.88087 0.0
O85 O 0.42411 0.57064 0.88535 0.0
O86 O 0.45306 0.57556 0.8124 0.0
O87 O 0.43184 0.52092 0.8156 0.0
C88 C 0.29354 0.53124 0.80905 0.0
O89 O 0.37115 0.61902 0.8233 0.0
O90 O 0.3245 0.60294 0.86309 0.0
In91 In 0.12912 0.93795 0.84276 0.0
O92 O 0.21411 0.95909 0.84686 0.0
O93 O 0.17401 0.967 0.80294 0.0
C94 C 0.09258 0.95739 0.9008 0.0
C95 C 0.16271 0.86952 0.84416 0.0
C96 C 0.04032 0.95463 0.8098 0.0
O97 O 0.12483 0.97618 0.88498 0.0
O98 O 0.07968 0.92837 0.88766 0.0
O99 O 0.06052 0.92386 0.80873 0.0
O100 O 0.06522 0.97659 0.82693 0.0
C101 C 0.21606 0.9711 0.81873 0.0
O102 O 0.14429 0.88384 0.81917 0.0
O103 O 0.16289 0.88939 0.86845 0.0
H104 H 0.2748 0.48491 0.32988 0.0
H105 H 0.24923 0.55814 0.25154 0.0
H106 H 0.3567 0.46432 0.30443 0.0
H107 H 0.33054 0.53755 0.22621 0.0
H108 H 0.50719 0.52261 0.2094 0.0
H109 H 0.42722 0.54145 0.23743 0.0
H110 H 0.38624 0.43143 0.25494 0.0
H111 H 0.46658 0.4125 0.22695 0.0
C112 C 0.28653 0.49644 0.30719 0.0
C113 C 0.25571 0.52315 0.29271 0.0
C114 C 0.33326 0.48461 0.29261 0.0
C115 C 0.35018 0.49953 0.26346 0.0
C116 C 0.31894 0.52595 0.2489 0.0
C117 C 0.27218 0.53755 0.26331 0.0
C118 C 0.48132 0.50244 0.21941 0.0
C119 C 0.49299 0.46609 0.21587 0.0
C120 C 0.43539 0.51323 0.23529 0.0
C121 C 0.4003 0.4879 0.24815 0.0
C122 C 0.41271 0.45154 0.24541 0.0
C123 C 0.45854 0.44072 0.22929 0.0
H124 H 0.98317 0.99152 0.23962 0.0
H125 H 0.06192 0.08654 0.20574 0.0
H126 H 0.06262 0.97508 0.26977 0.0
H127 H 0.14151 0.06986 0.23564 0.0
H128 H 0.28812 0.99622 0.25588 0.0
H129 H 0.20762 0.01815 0.23006 0.0
H130 H 0.11934 0.99848 0.31679 0.0
H131 H 0.20017 0.97682 0.34286 0.0
C132 C 0.01735 0.00896 0.23877 0.0
C133 C 0.01649 0.04024 0.22029 0.0
C134 C 0.06263 0.99966 0.25615 0.0
C135 C 0.10813 0.0212 0.25497 0.0
C136 C 0.10703 0.0527 0.2368 0.0
C137 C 0.06148 0.06228 0.21981 0.0
C138 C 0.25164 0.99689 0.26953 0.0
C139 C 0.25032 0.9848 0.30135 0.0
C140 C 0.20568 0.00958 0.2548 0.0
C141 C 0.15734 0.00994 0.27145 0.0
C142 C 0.1561 0.99826 0.3034 0.0
C143 C 0.20231 0.98606 0.31832 0.0
H144 H 0.77279 0.51739 0.16933 0.0
H145 H 0.75114 0.44038 0.24514 0.0
H146 H 0.85433 0.53821 0.19507 0.0
H147 H 0.83207 0.46121 0.27079 0.0
H148 H 0.0084 0.47847 0.28733 0.0
H149 H 0.92845 0.45948 0.25933 0.0
H150 H 0.88381 0.56945 0.2452 0.0
H151 H 0.96418 0.58853 0.2731 0.0
C152 C 0.78532 0.50505 0.19153 0.0
C153 C 0.75569 0.47722 0.2052 0.0
C154 C 0.83183 0.51703 0.20629 0.0
C155 C 0.84975 0.50116 0.23482 0.0
C156 C 0.81971 0.47359 0.24857 0.0
C157 C 0.77316 0.46183 0.23398 0.0
C158 C 0.9817 0.49861 0.27809 0.0
C159 C 0.99243 0.53498 0.2825 0.0
C160 C 0.93578 0.48773 0.26222 0.0
C161 C 0.89969 0.51298 0.25027 0.0
C162 C 0.91106 0.5494 0.25397 0.0
C163 C 0.95692 0.5603 0.27005 0.0
H164 H 0.76104 0.05671 0.25001 0.0
H165 H 0.73619 0.9813 0.17344 0.0
H166 H 0.68121 0.03547 0.27649 0.0
H167 H 0.65548 0.96009 0.20003 0.0
H168 H 0.54402 0.91063 0.27849 0.0
H169 H 0.62505 0.92842 0.2503 0.0
H170 H 0.58527 0.03906 0.2652 0.0
H171 H 0.50508 0.02144 0.29339 0.0
C172 C 0.73857 0.0355 0.23886 0.0
C173 C 0.75474 0.02078 0.20957 0.0
C174 C 0.69265 0.02347 0.25396 0.0
C175 C 0.66182 0.99635 0.24019 0.0
C176 C 0.67862 0.98093 0.21126 0.0
C177 C 0.72462 0.99315 0.196 0.0
C178 C 0.55262 0.93872 0.27559 0.0
C179 C 0.51842 0.96464 0.2883 0.0
C180 C 0.5988 0.94888 0.25936 0.0
C181 C 0.6117 0.98512 0.25581 0.0
C182 C 0.57686 0.01093 0.26802 0.0
C183 C 0.53076 1.00082 0.28403 0.0
H184 H 0.50246 0.47686 0.79542 0.0
H185 H 0.5368 0.58771 0.7768 0.0
H186 H 0.58367 0.45972 0.76786 0.0
H187 H 0.61841 0.57046 0.74914 0.0
H188 H 0.72545 0.51734 0.67099 0.0
H189 H 0.6458 0.53747 0.69904 0.0
H190 H 0.68119 0.4658 0.77709 0.0
H191 H 0.76058 0.44567 0.74914 0.0
C192 C 0.52735 0.49757 0.78539 0.0
C193 C 0.51333 0.53363 0.78828 0.0
C194 C 0.57401 0.48776 0.76979 0.0
C195 C 0.6075 0.51377 0.75651 0.0
C196 C 0.59318 0.54985 0.75901 0.0
C197 C 0.54664 0.55971 0.77492 0.0
C198 C 0.71634 0.50609 0.69423 0.0
C199 C 0.7491 0.47985 0.70784 0.0
C200 C 0.67091 0.51771 0.71032 0.0
C201 C 0.65716 0.50304 0.74015 0.0
C202 C 0.69046 0.47724 0.75395 0.0
C203 C 0.73605 0.46587 0.73802 0.0
H204 H 0.78867 0.07618 0.72192 0.0
H205 H 0.74224 0.96783 0.7019 0.0
H206 H 0.86807 0.05502 0.74853 0.0
H207 H 0.82065 0.94614 0.73034 0.0
H208 H 0.99307 0.92107 0.75897 0.0
H209 H 0.91369 0.94006 0.72995 0.0
H210 H 0.89584 0.02841 0.79547 0.0
H211 H 0.97624 0.01054 0.82292 0.0
C212 C 0.79523 0.04772 0.72359 0.0
C213 C 0.75916 0.02364 0.71004 0.0
C214 C 0.84066 0.03548 0.7391 0.0
C215 C 0.85073 0.99874 0.74213 0.0
C216 C 0.81467 0.9746 0.72826 0.0
C217 C 0.76952 0.98696 0.71214 0.0
C218 C 0.972 0.94455 0.767 0.0
C219 C 0.99106 0.96457 0.79293 0.0
C220 C 0.92632 0.95536 0.75053 0.0
C221 C 0.89838 0.98609 0.76004 0.0
C222 C 0.91692 0.00527 0.78672 0.0
C223 C 0.96291 0.99488 0.80269 0.0
H224 H 0.21573 0.48803 0.83326 0.0
H225 H 0.26487 0.54264 0.74716 0.0
H226 H 0.13515 0.46784 0.80601 0.0
H227 H 0.18482 0.52247 0.72009 0.0
H228 H 0.00815 0.5198 0.69732 0.0
H229 H 0.08867 0.53636 0.72574 0.0
H230 H 0.10526 0.42835 0.75998 0.0
H231 H 0.02408 0.41164 0.73143 0.0
C232 C 0.2095 0.49548 0.80849 0.0
C233 C 0.24643 0.51704 0.79237 0.0
C234 C 0.16354 0.48382 0.79289 0.0
C235 C 0.15354 0.49383 0.76103 0.0
C236 C 0.1911 0.51477 0.7448 0.0
C237 C 0.23708 0.52615 0.76026 0.0
C238 C 0.02881 0.49956 0.71097 0.0
C239 C 0.00992 0.46438 0.71206 0.0
C240 C 0.07511 0.50902 0.7271 0.0
C241 C 0.10348 0.48358 0.74485 0.0
C242 C 0.08405 0.44852 0.74656 0.0
C243 C 0.03777 0.43895 0.73016 0.0
H244 H 0.22592 0.00536 0.76146 0.0
H245 H 0.31567 0.97196 0.84427 0.0
H246 H 0.30706 0.02753 0.73657 0.0
H247 H 0.39695 0.99409 0.81926 0.0
H248 H 0.53018 0.99144 0.74094 0.0
H249 H 0.45077 0.9752 0.77106 0.0
H250 H 0.37755 0.07472 0.74393 0.0
H251 H 0.45709 0.09106 0.71387 0.0
C252 C 0.26292 0.00306 0.77446 0.0
C253 C 0.26451 0.98685 0.80476 0.0
C254 C 0.30931 0.01591 0.76028 0.0
C255 C 0.35832 0.01247 0.77596 0.0
C256 C 0.35976 0.99683 0.80653 0.0
C257 C 0.31325 0.98434 0.82088 0.0
C258 C 0.49735 0.01001 0.7417 0.0
C259 C 0.49975 0.04246 0.725 0.0
C260 C 0.45201 1.00079 0.75906 0.0
C261 C 0.40794 0.02366 0.75975 0.0
C262 C 0.41078 0.05646 0.74358 0.0
C263 C 0.45638 0.06587 0.72654 0.0
H264 H 0.12351 0.50062 0.43908 0.0
H265 H 0.98665 0.56618 0.4196 0.0
H266 H 0.08213 0.4796 0.48837 0.0
H267 H 0.94431 0.54424 0.46813 0.0
H268 H 0.90558 0.52508 0.57329 0.0
H269 H 0.94769 0.54711 0.52469 0.0
H270 H 0.01253 0.44234 0.50711 0.0
H271 H 0.97196 0.42078 0.55642 0.0
C272 C 0.08451 0.51046 0.44533 0.0
C273 C 0.05837 0.5351 0.42555 0.0
C274 C 0.06055 0.4982 0.47344 0.0
C275 C 0.00968 0.51006 0.48225 0.0
C276 C 0.98378 0.5349 0.46243 0.0
C277 C 0.00795 0.54738 0.4345 0.0
C278 C 0.92865 0.50675 0.55894 0.0
C279 C 0.93549 0.47122 0.56864 0.0
C280 C 0.95265 0.51932 0.53098 0.0
C281 C 0.98369 0.49656 0.51191 0.0
C282 C 0.98976 0.46082 0.52146 0.0
C283 C 0.96612 0.44834 0.54958 0.0
H284 H 0.41188 0.02277 0.42817 0.0
H285 H 0.4901 0.9211 0.43852 0.0
H286 H 0.45258 0.04317 0.47776 0.0
H287 H 0.52962 0.94103 0.4887 0.0
H288 H 0.63379 0.00127 0.56037 0.0
H289 H 0.595 0.98119 0.50991 0.0
H290 H 0.44828 0.03407 0.53418 0.0
H291 H 0.48757 0.05492 0.5839 0.0
C292 C 0.43744 0.00468 0.44121 0.0
C293 C 0.44773 0.97033 0.4295 0.0
C294 C 0.46061 0.01629 0.46973 0.0
C295 C 0.49436 0.99373 0.48732 0.0
C296 C 0.50448 0.9593 0.47558 0.0
C297 C 0.48151 0.94776 0.44694 0.0
C298 C 0.59332 0.00862 0.5548 0.0
C299 C 0.56379 0.02975 0.57601 0.0
C300 C 0.57093 0.99695 0.526 0.0
C301 C 0.51847 0.00604 0.51791 0.0
C302 C 0.48903 0.02706 0.53931 0.0
C303 C 0.51147 0.03886 0.56795 0.0
H304 H 0.62355 0.49974 0.05821 0.0
H305 H 0.48497 0.43624 0.07883 0.0
H306 H 0.5824 0.5205 0.00873 0.0
H307 H 0.44298 0.45786 0.03006 0.0
H308 H 0.40527 0.4748 0.92444 0.0
H309 H 0.44693 0.45349 0.97344 0.0
H310 H 0.51317 0.55819 0.98948 0.0
H311 H 0.47289 0.57907 0.9398 0.0
C312 C 0.58423 0.4903 0.05218 0.0
C313 C 0.55756 0.46628 0.07231 0.0
C314 C 0.56042 0.50241 0.02396 0.0
C315 C 0.50922 0.49097 0.01537 0.0
C316 C 0.48272 0.46684 0.03559 0.0
C317 C 0.50669 0.45454 0.06365 0.0
C318 C 0.42856 0.49328 0.93852 0.0
C319 C 0.43582 0.52859 0.92829 0.0
C320 C 0.45229 0.48112 0.96671 0.0
C321 C 0.48355 0.50407 0.98548 0.0
C322 C 0.49015 0.53958 0.97538 0.0
C323 C 0.4667 0.55166 0.94705 0.0
H324 H 0.10031 0.02308 0.92801 0.0
H325 H 0.03232 0.91876 0.94259 0.0
H326 H 0.05878 0.04388 0.97712 0.0
H327 H 0.99237 0.93904 0.99252 0.0
H328 H 0.88366 0.99674 0.06284 0.0
H329 H 0.924 0.97604 0.01311 0.0
H330 H 0.06334 0.03922 0.03331 0.0
H331 H 0.02209 0.06085 0.08214 0.0
C332 C 0.077 0.00446 0.94197 0.0
C333 C 0.06962 0.96929 0.93151 0.0
C334 C 0.05333 0.01632 0.97024 0.0
C335 C 0.02217 0.99317 0.98893 0.0
C336 C 0.01533 0.95781 0.97853 0.0
C337 C 0.03859 0.94606 0.95005 0.0
C338 C 0.92282 0.00625 0.0565 0.0
C339 C 0.94962 0.03051 0.07628 0.0
C340 C 0.94616 0.9942 0.02813 0.0
C341 C 0.99704 0.00592 0.01909 0.0
C342 C 0.02379 0.03009 0.0391 0.0
C343 C 1.00025 0.04237 0.06724 0.0
H344 H 0.15293 0.68698 0.30112 0.0
H345 H 0.2252 0.65886 0.39142 0.0
H346 H 0.1993 0.74405 0.30186 0.0
H347 H 0.2718 0.71596 0.39207 0.0
H348 H 0.29884 0.83822 0.39567 0.0
H349 H 0.25284 0.78098 0.39646 0.0
H350 H 0.29272 0.76497 0.29699 0.0
H351 H 0.3385 0.82233 0.29614 0.0
C352 C 0.17845 0.6931 0.32123 0.0
C353 C 0.18545 0.66848 0.34622 0.0
C354 C 0.20533 0.72564 0.32152 0.0
C355 C 0.23948 0.73436 0.3469 0.0
C356 C 0.24552 0.71006 0.37227 0.0
C357 C 0.21893 0.67737 0.37187 0.0
C358 C 0.29809 0.82236 0.37404 0.0
C359 C 0.3222 0.83475 0.34582 0.0
C360 C 0.27188 0.78955 0.37453 0.0
C361 C 0.26891 0.7686 0.34674 0.0
C362 C 0.29374 0.78078 0.31866 0.0
C363 C 0.32027 0.81347 0.31823 0.0
H364 H 0.84381 0.18355 0.19984 0.0
H365 H 0.79024 0.1585 0.10427 0.0
H366 H 0.79652 0.24016 0.1975 0.0
H367 H 0.74307 0.21552 0.10189 0.0
H368 H 0.71828 0.34036 0.10361 0.0
H369 H 0.76417 0.28286 0.10262 0.0
H370 H 0.69895 0.25731 0.19536 0.0
H371 H 0.65294 0.31446 0.19633 0.0
C372 C 0.82228 0.19028 0.17823 0.0
C373 C 0.82061 0.16659 0.15226 0.0
C374 C 0.79493 0.22257 0.17699 0.0
C375 C 0.76581 0.23205 0.14962 0.0
C376 C 0.76534 0.20886 0.12325 0.0
C377 C 0.79221 0.17627 0.12464 0.0
C378 C 0.71335 0.32226 0.12361 0.0
C379 C 0.68217 0.33191 0.15009 0.0
C380 C 0.73949 0.28939 0.123 0.0
C381 C 0.73545 0.26584 0.14904 0.0
C382 C 0.70329 0.27518 0.17515 0.0
C383 C 0.6767 0.30779 0.1756 0.0
H384 H 0.75346 0.14795 0.61899 0.0
H385 H 0.62532 0.19439 0.67327 0.0
H386 H 0.79589 0.20643 0.61512 0.0
H387 H 0.66752 0.25282 0.66916 0.0
H388 H 0.73517 0.35702 0.62883 0.0
H389 H 0.6922 0.29873 0.62675 0.0
H390 H 0.83855 0.24863 0.65576 0.0
H391 H 0.88156 0.307 0.65807 0.0
C392 C 0.73408 0.17071 0.62977 0.0
C393 C 0.68612 0.16664 0.64646 0.0
C394 C 0.75852 0.20409 0.62771 0.0
C395 C 0.73503 0.2341 0.64189 0.0
C396 C 0.68629 0.23018 0.65779 0.0
C397 C 0.66226 0.19674 0.66024 0.0
C398 C 0.7583 0.33354 0.63451 0.0
C399 C 0.81169 0.33655 0.6437 0.0
C400 C 0.73361 0.30023 0.63346 0.0
C401 C 0.76201 0.26921 0.64116 0.0
C402 C 0.81584 0.2721 0.64945 0.0
C403 C 0.84036 0.30548 0.65091 0.0
H404 H 0.35132 0.68265 0.80218 0.0
H405 H 0.26689 0.65311 0.88812 0.0
H406 H 0.30751 0.74063 0.80248 0.0
H407 H 0.22271 0.711 0.88827 0.0
H408 H 0.20122 0.83307 0.89564 0.0
H409 H 0.24359 0.77464 0.89608 0.0
H410 H 0.21769 0.76538 0.79423 0.0
H411 H 0.17572 0.82405 0.79375 0.0
C412 C 0.32352 0.6886 0.82119 0.0
C413 C 0.31257 0.66336 0.84515 0.0
C414 C 0.29811 0.72169 0.82122 0.0
C415 C 0.26142 0.73034 0.8453 0.0
C416 C 0.25106 0.70524 0.86952 0.0
C417 C 0.27625 0.67206 0.86939 0.0
C418 C 0.20426 0.81845 0.87338 0.0
C419 C 0.18519 0.83314 0.84465 0.0
C420 C 0.22837 0.78493 0.87366 0.0
C421 C 0.2342 0.76545 0.84517 0.0
C422 C 0.21443 0.77996 0.8165 0.0
C423 C 0.19004 0.81342 0.81626 0.0
loop_
_geom_bond_atom_site_label_1
_geom_bond_atom_site_label_2
_geom_bond_distance
_geom_bond_site_symmetry_2
_ccdc_geom_bond_type
In0 O1 2.294 . S
In0 O2 2.326 . S
In0 O6 2.266 . S
In0 O7 2.326 . S
In0 O8 2.266 . S
In0 O9 2.326 . S
In0 O11 2.294 . S
In0 O12 2.326 . S
O1 In0 2.294 . S
O1 C10 1.240 . S
O2 In0 2.326 . S
O2 C10 1.252 . S
C3 O6 1.252 . S
C3 O7 1.260 . S
C4 O11 1.240 . S
C4 O12 1.252 . S
C5 O8 1.252 . S
C5 O9 1.260 . S
O6 In0 2.266 . S
O6 C3 1.252 . S
O7 In0 2.326 . S
O7 C3 1.260 . S
O8 In0 2.266 . S
O8 C5 1.252 . S
O9 In0 2.326 . S
O9 C5 1.260 . S
C10 O1 1.240 . S
C10 O2 1.252 . S
O11 In0 2.294 . S
O11 C4 1.240 . S
O12 In0 2.326 . S
O12 C4 1.252 . S
In13 O14 2.294 . S
In13 O15 2.326 . S
In13 O19 2.266 . S
In13 O20 2.326 . S
In13 O21 2.266 . S
In13 O22 2.326 . S
In13 O24 2.294 . S
In13 O25 2.326 . S
O14 In13 2.294 . S
O14 C23 1.240 . S
O15 In13 2.326 . S
O15 C23 1.252 . S
C16 O19 1.252 . S
C16 O20 1.260 . S
C17 O24 1.240 . S
C17 O25 1.252 . S
C18 O21 1.252 . S
C18 O22 1.260 . S
O19 In13 2.266 . S
O19 C16 1.252 . S
O20 In13 2.326 . S
O20 C16 1.260 . S
O21 In13 2.266 . S
O21 C18 1.252 . S
O22 In13 2.326 . S
O22 C18 1.260 . S
C23 O14 1.240 . S
C23 O15 1.252 . S
O24 In13 2.294 . S
O24 C17 1.240 . S
O25 In13 2.326 . S
O25 C17 1.252 . S
In26 O27 2.294 . S
In26 O28 2.326 . S
In26 O32 2.266 . S
In26 O33 2.326 . S
In26 O34 2.266 . S
In26 O35 2.326 . S
In26 O37 2.294 . S
In26 O38 2.326 . S
O27 In26 2.294 . S
O27 C36 1.240 . S
O28 In26 2.326 . S
O28 C36 1.252 . S
C29 O32 1.252 . S
C29 O33 1.260 . S
C30 O37 1.240 . S
C30 O38 1.252 . S
C31 O34 1.252 . S
C31 O35 1.260 . S
O32 In26 2.266 . S
O32 C29 1.252 . S
O33 In26 2.326 . S
O33 C29 1.260 . S
O34 In26 2.266 . S
O34 C31 1.252 . S
O35 In26 2.326 . S
O35 C31 1.260 . S
C36 O27 1.240 . S
C36 O28 1.252 . S
O37 In26 2.294 . S
O37 C30 1.240 . S
O38 In26 2.326 . S
O38 C30 1.252 . S
In39 O40 2.294 . S
In39 O41 2.326 . S
In39 O45 2.266 . S
In39 O46 2.326 . S
In39 O47 2.266 . S
In39 O48 2.326 . S
In39 O50 2.294 . S
In39 O51 2.326 . S
O40 In39 2.294 . S
O40 C49 1.240 . S
O41 In39 2.326 . S
O41 C49 1.252 . S
C42 O45 1.252 . S
C42 O46 1.260 . S
C43 O50 1.240 . S
C43 O51 1.252 . S
C44 O47 1.252 . S
C44 O48 1.260 . S
O45 In39 2.266 . S
O45 C42 1.252 . S
O46 In39 2.326 . S
O46 C42 1.260 . S
O47 In39 2.266 . S
O47 C44 1.252 . S
O48 In39 2.326 . S
O48 C44 1.260 . S
C49 O40 1.240 . S
C49 O41 1.252 . S
O50 In39 2.294 . S
O50 C43 1.240 . S
O51 In39 2.326 . S
O51 C43 1.252 . S
In52 O53 2.294 . S
In52 O54 2.326 . S
In52 O58 2.266 . S
In52 O59 2.326 . S
In52 O60 2.266 . S
In52 O61 2.326 . S
In52 O63 2.294 . S
In52 O64 2.326 . S
O53 In52 2.294 . S
O53 C62 1.240 . S
O54 In52 2.326 . S
O54 C62 1.252 . S
C55 O58 1.252 . S
C55 O59 1.260 . S
C56 O63 1.240 . S
C56 O64 1.252 . S
C57 O60 1.252 . S
C57 O61 1.260 . S
O58 In52 2.266 . S
O58 C55 1.252 . S
O59 In52 2.326 . S
O59 C55 1.260 . S
O60 In52 2.266 . S
O60 C57 1.252 . S
O61 In52 2.326 . S
O61 C57 1.260 . S
C62 O53 1.240 . S
C62 O54 1.252 . S
O63 In52 2.294 . S
O63 C56 1.240 . S
O64 In52 2.326 . S
O64 C56 1.252 . S
In65 O66 2.294 . S
In65 O67 2.326 . S
In65 O71 2.266 . S
In65 O72 2.326 . S
In65 O73 2.266 . S
In65 O74 2.326 . S
In65 O76 2.294 . S
In65 O77 2.326 . S
O66 In65 2.294 . S
O66 C75 1.240 . S
O67 In65 2.326 . S
O67 C75 1.252 . S
C68 O71 1.252 . S
C68 O72 1.260 . S
C69 O76 1.240 . S
C69 O77 1.252 . S
C70 O73 1.252 . S
C70 O74 1.260 . S
O71 In65 2.266 . S
O71 C68 1.252 . S
O72 In65 2.326 . S
O72 C68 1.260 . S
O73 In65 2.266 . S
O73 C70 1.252 . S
O74 In65 2.326 . S
O74 C70 1.260 . S
C75 O66 1.240 . S
C75 O67 1.252 . S
O76 In65 2.294 . S
O76 C69 1.240 . S
O77 In65 2.326 . S
O77 C69 1.252 . S
In78 O79 2.294 . S
In78 O80 2.326 . S
In78 O84 2.266 . S
In78 O85 2.326 . S
In78 O86 2.266 . S
In78 O87 2.326 . S
In78 O89 2.294 . S
In78 O90 2.326 . S
O79 In78 2.294 . S
O79 C88 1.240 . S
O80 In78 2.326 . S
O80 C88 1.252 . S
C81 O84 1.252 . S
C81 O85 1.260 . S
C82 O89 1.240 . S
C82 O90 1.252 . S
C83 O86 1.252 . S
C83 O87 1.260 . S
O84 In78 2.266 . S
O84 C81 1.252 . S
O85 In78 2.326 . S
O85 C81 1.260 . S
O86 In78 2.266 . S
O86 C83 1.252 . S
O87 In78 2.326 . S
O87 C83 1.260 . S
C88 O79 1.240 . S
C88 O80 1.252 . S
O89 In78 2.294 . S
O89 C82 1.240 . S
O90 In78 2.326 . S
O90 C82 1.252 . S
In91 O92 2.294 . S
In91 O93 2.326 . S
In91 O97 2.266 . S
In91 O98 2.326 . S
In91 O99 2.266 . S
In91 O100 2.326 . S
In91 O102 2.294 . S
In91 O103 2.326 . S
O92 In91 2.294 . S
O92 C101 1.240 . S
O93 In91 2.326 . S
O93 C101 1.252 . S
C94 O97 1.252 . S
C94 O98 1.260 . S
C95 O102 1.240 . S
C95 O103 1.252 . S
C96 O99 1.252 . S
C96 O100 1.260 . S
O97 In91 2.266 . S
O97 C94 1.252 . S
O98 In91 2.326 . S
O98 C94 1.260 . S
O99 In91 2.266 . S
O99 C96 1.252 . S
O100 In91 2.326 . S
O100 C96 1.260 . S
C101 O92 1.240 . S
C101 O93 1.252 . S
O102 In91 2.294 . S
O102 C95 1.240 . S
O103 In91 2.326 . S
O103 C95 1.252 . S
H104 C112 0.950 . S
H105 C117 0.950 . S
H106 C114 0.950 . S
H107 C116 0.950 . S
H108 C118 0.950 . S
H109 C120 0.950 . S
H110 C122 0.950 . S
H111 C123 0.950 . S
C112 H104 0.950 . S
C112 C113 1.386 . S
C112 C114 1.391 . S
C113 C112 1.386 . S
C113 C117 1.393 . S
C114 H106 0.950 . S
C114 C112 1.391 . S
C114 C115 1.400 . S
C115 C114 1.400 . S
C115 C116 1.398 . S
C115 C121 1.491 . S
C116 H107 0.950 . S
C116 C115 1.398 . S
C116 C117 1.391 . S
C117 H105 0.950 . S
C117 C113 1.393 . S
C117 C116 1.391 . S
C118 H108 0.950 . S
C118 C119 1.386 . S
C118 C120 1.391 . S
C119 C118 1.386 . S
C119 C123 1.393 . S
C120 H109 0.950 . S
C120 C118 1.391 . S
C120 C121 1.400 . S
C121 C115 1.491 . S
C121 C120 1.400 . S
C121 C122 1.398 . S
C122 H110 0.950 . S
C122 C121 1.398 . S
C122 C123 1.391 . S
C123 H111 0.950 . S
C123 C119 1.393 . S
C123 C122 1.391 . S
H124 C132 0.950 1_655 S
H125 C137 0.950 . S
H126 C134 0.950 . S
H127 C136 0.950 1_565 S
H128 C138 0.950 . S
H129 C140 0.950 . S
H130 C142 0.950 . S
H131 C143 0.950 . S
C132 H124 0.950 1_455 S
C132 C133 1.386 . S
C132 C134 1.391 . S
C133 C132 1.386 . S
C133 C137 1.393 . S
C134 H126 0.950 . S
C134 C132 1.391 . S
C134 C135 1.400 . S
C135 C134 1.400 . S
C135 C136 1.398 . S
C135 C141 1.491 1_545 S
C136 H127 0.950 1_545 S
C136 C135 1.398 . S
C136 C137 1.391 . S
C137 H125 0.950 . S
C137 C133 1.393 . S
C137 C136 1.391 . S
C138 H128 0.950 . S
C138 C139 1.386 . S
C138 C140 1.391 . S
C139 C138 1.386 . S
C139 C143 1.393 . S
C140 H129 0.950 . S
C140 C138 1.391 . S
C140 C141 1.400 . S
C141 C135 1.491 1_565 S
C141 C140 1.400 . S
C141 C142 1.398 . S
C142 H130 0.950 . S
C142 C141 1.398 . S
C142 C143 1.391 . S
C143 H131 0.950 . S
C143 C139 1.393 . S
C143 C142 1.391 . S
H144 C152 0.950 . S
H145 C157 0.950 . S
H146 C154 0.950 . S
H147 C156 0.950 . S
H148 C158 0.950 1_455 S
H149 C160 0.950 . S
H150 C162 0.950 . S
H151 C163 0.950 . S
C152 H144 0.950 . S
C152 C153 1.386 . S
C152 C154 1.391 . S
C153 C152 1.386 . S
C153 C157 1.393 . S
C154 H146 0.950 . S
C154 C152 1.391 . S
C154 C155 1.400 . S
C155 C154 1.400 . S
C155 C156 1.398 . S
C155 C161 1.491 . S
C156 H147 0.950 . S
C156 C155 1.398 . S
C156 C157 1.391 . S
C157 H145 0.950 . S
C157 C153 1.393 . S
C157 C156 1.391 . S
C158 H148 0.950 1_655 S
C158 C159 1.386 . S
C158 C160 1.391 . S
C159 C158 1.386 . S
C159 C163 1.393 . S
C160 H149 0.950 . S
C160 C158 1.391 . S
C160 C161 1.400 . S
C161 C155 1.491 . S
C161 C160 1.400 . S
C161 C162 1.398 . S
C162 H150 0.950 . S
C162 C161 1.398 . S
C162 C163 1.391 . S
C163 H151 0.950 . S
C163 C159 1.393 . S
C163 C162 1.391 . S
H164 C172 0.950 . S
H165 C177 0.950 . S
H166 C174 0.950 . S
H167 C176 0.950 . S
H168 C178 0.950 . S
H169 C180 0.950 . S
H170 C182 0.950 . S
H171 C183 0.950 . S
C172 H164 0.950 . S
C172 C173 1.386 . S
C172 C174 1.391 . S
C173 C172 1.386 . S
C173 C177 1.393 1_545 S
C174 H166 0.950 . S
C174 C172 1.391 . S
C174 C175 1.400 . S
C175 C174 1.400 . S
C175 C176 1.398 1_545 S
C175 C181 1.491 1_545 S
C176 H167 0.950 . S
C176 C175 1.398 1_565 S
C176 C177 1.391 . S
C177 H165 0.950 . S
C177 C173 1.393 1_565 S
C177 C176 1.391 . S
C178 H168 0.950 . S
C178 C179 1.386 . S
C178 C180 1.391 . S
C179 C178 1.386 . S
C179 C183 1.393 1_565 S
C180 H169 0.950 . S
C180 C178 1.391 . S
C180 C181 1.400 . S
C181 C175 1.491 1_565 S
C181 C180 1.400 . S
C181 C182 1.398 1_565 S
C182 H170 0.950 . S
C182 C181 1.398 1_545 S
C182 C183 1.391 . S
C183 H171 0.950 . S
C183 C179 1.393 1_545 S
C183 C182 1.391 . S
H184 C192 0.950 . S
H185 C197 0.950 . S
H186 C194 0.950 . S
H187 C196 0.950 . S
H188 C198 0.950 . S
H189 C200 0.950 . S
H190 C202 0.950 . S
H191 C203 0.950 . S
C192 H184 0.950 . S
C192 C193 1.386 . S
C192 C194 1.391 . S
C193 C192 1.386 . S
C193 C197 1.393 . S
C194 H186 0.950 . S
C194 C192 1.391 . S
C194 C195 1.400 . S
C195 C194 1.400 . S
C195 C196 1.398 . S
C195 C201 1.491 . S
C196 H187 0.950 . S
C196 C195 1.398 . S
C196 C197 1.391 . S
C197 H185 0.950 . S
C197 C193 1.393 . S
C197 C196 1.391 . S
C198 H188 0.950 . S
C198 C199 1.386 . S
C198 C200 1.391 . S
C199 C198 1.386 . S
C199 C203 1.393 . S
C200 H189 0.950 . S
C200 C198 1.391 . S
C200 C201 1.400 . S
C201 C195 1.491 . S
C201 C200 1.400 . S
C201 C202 1.398 . S
C202 H190 0.950 . S
C202 C201 1.398 . S
C202 C203 1.391 . S
C203 H191 0.950 . S
C203 C199 1.393 . S
C203 C202 1.391 . S
H204 C212 0.950 . S
H205 C217 0.950 . S
H206 C214 0.950 . S
H207 C216 0.950 . S
H208 C218 0.950 . S
H209 C220 0.950 . S
H210 C222 0.950 . S
H211 C223 0.950 1_455 S
C212 H204 0.950 . S
C212 C213 1.386 . S
C212 C214 1.391 . S
C213 C212 1.386 . S
C213 C217 1.393 1_545 S
C214 H206 0.950 . S
C214 C212 1.391 . S
C214 C215 1.400 . S
C215 C214 1.400 . S
C215 C216 1.398 1_545 S
C215 C221 1.491 1_545 S
C216 H207 0.950 . S
C216 C215 1.398 1_565 S
C216 C217 1.391 . S
C217 H205 0.950 . S
C217 C213 1.393 1_565 S
C217 C216 1.391 . S
C218 H208 0.950 . S
C218 C219 1.386 . S
C218 C220 1.391 . S
C219 C218 1.386 . S
C219 C223 1.393 1_565 S
C220 H209 0.950 . S
C220 C218 1.391 . S
C220 C221 1.400 . S
C221 C215 1.491 1_565 S
C221 C220 1.400 . S
C221 C222 1.398 1_565 S
C222 H210 0.950 . S
C222 C221 1.398 1_545 S
C222 C223 1.391 . S
C223 H211 0.950 1_655 S
C223 C219 1.393 1_545 S
C223 C222 1.391 . S
H224 C232 0.950 . S
H225 C237 0.950 . S
H226 C234 0.950 . S
H227 C236 0.950 . S
H228 C238 0.950 . S
H229 C240 0.950 . S
H230 C242 0.950 . S
H231 C243 0.950 . S
C232 H224 0.950 . S
C232 C233 1.386 . S
C232 C234 1.391 . S
C233 C232 1.386 . S
C233 C237 1.393 . S
C234 H226 0.950 . S
C234 C232 1.391 . S
C234 C235 1.400 . S
C235 C234 1.400 . S
C235 C236 1.398 . S
C235 C241 1.491 . S
C236 H227 0.950 . S
C236 C235 1.398 . S
C236 C237 1.391 . S
C237 H225 0.950 . S
C237 C233 1.393 . S
C237 C236 1.391 . S
C238 H228 0.950 . S
C238 C239 1.386 . S
C238 C240 1.391 . S
C239 C238 1.386 . S
C239 C243 1.393 . S
C240 H229 0.950 . S
C240 C238 1.391 . S
C240 C241 1.400 . S
C241 C235 1.491 . S
C241 C240 1.400 . S
C241 C242 1.398 . S
C242 H230 0.950 . S
C242 C241 1.398 . S
C242 C243 1.391 . S
C243 H231 0.950 . S
C243 C239 1.393 . S
C243 C242 1.391 . S
H244 C252 0.950 . S
H245 C257 0.950 . S
H246 C254 0.950 1_545 S
H247 C256 0.950 . S
H248 C258 0.950 1_565 S
H249 C260 0.950 . S
H250 C262 0.950 . S
H251 C263 0.950 . S
C252 H244 0.950 . S
C252 C253 1.386 . S
C252 C254 1.391 . S
C253 C252 1.386 . S
C253 C257 1.393 . S
C254 H246 0.950 1_565 S
C254 C252 1.391 . S
C254 C255 1.400 . S
C255 C254 1.400 . S
C255 C256 1.398 . S
C255 C261 1.491 1_565 S
C256 H247 0.950 . S
C256 C255 1.398 . S
C256 C257 1.391 . S
C257 H245 0.950 . S
C257 C253 1.393 . S
C257 C256 1.391 . S
C258 H248 0.950 1_545 S
C258 C259 1.386 . S
C258 C260 1.391 1_545 S
C259 C258 1.386 . S
C259 C263 1.393 . S
C260 H249 0.950 . S
C260 C258 1.391 1_565 S
C260 C261 1.400 1_565 S
C261 C255 1.491 1_545 S
C261 C260 1.400 1_545 S
C261 C262 1.398 . S
C262 H250 0.950 . S
C262 C261 1.398 . S
C262 C263 1.391 . S
C263 H251 0.950 . S
C263 C259 1.393 . S
C263 C262 1.391 . S
H264 C272 0.950 . S
H265 C277 0.950 1_655 S
H266 C274 0.950 . S
H267 C276 0.950 . S
H268 C278 0.950 . S
H269 C280 0.950 . S
H270 C282 0.950 . S
H271 C283 0.950 1_455 S
C272 H264 0.950 . S
C272 C273 1.386 . S
C272 C274 1.391 . S
C273 C272 1.386 . S
C273 C277 1.393 . S
C274 H266 0.950 . S
C274 C272 1.391 . S
C274 C275 1.400 . S
C275 C274 1.400 . S
C275 C276 1.398 1_455 S
C275 C281 1.491 1_455 S
C276 H267 0.950 . S
C276 C275 1.398 1_655 S
C276 C277 1.391 1_655 S
C277 H265 0.950 1_455 S
C277 C273 1.393 . S
C277 C276 1.391 1_455 S
C278 H268 0.950 . S
C278 C279 1.386 . S
C278 C280 1.391 . S
C279 C278 1.386 . S
C279 C283 1.393 . S
C280 H269 0.950 . S
C280 C278 1.391 . S
C280 C281 1.400 . S
C281 C275 1.491 1_655 S
C281 C280 1.400 . S
C281 C282 1.398 1_655 S
C282 H270 0.950 . S
C282 C281 1.398 1_455 S
C282 C283 1.391 1_455 S
C283 H271 0.950 1_655 S
C283 C279 1.393 . S
C283 C282 1.391 1_655 S
H284 C292 0.950 . S
H285 C297 0.950 . S
H286 C294 0.950 . S
H287 C296 0.950 . S
H288 C298 0.950 . S
H289 C300 0.950 . S
H290 C302 0.950 . S
H291 C303 0.950 . S
C292 H284 0.950 . S
C292 C293 1.386 . S
C292 C294 1.391 . S
C293 C292 1.386 . S
C293 C297 1.393 . S
C294 H286 0.950 . S
C294 C292 1.391 . S
C294 C295 1.400 . S
C295 C294 1.400 . S
C295 C296 1.398 . S
C295 C301 1.491 1_565 S
C296 H287 0.950 . S
C296 C295 1.398 . S
C296 C297 1.391 . S
C297 H285 0.950 . S
C297 C293 1.393 . S
C297 C296 1.391 . S
C298 H288 0.950 . S
C298 C299 1.386 . S
C298 C300 1.391 . S
C299 C298 1.386 . S
C299 C303 1.393 . S
C300 H289 0.950 . S
C300 C298 1.391 . S
C300 C301 1.400 . S
C301 C295 1.491 1_545 S
C301 C300 1.400 . S
C301 C302 1.398 . S
C302 H290 0.950 . S
C302 C301 1.398 . S
C302 C303 1.391 . S
C303 H291 0.950 . S
C303 C299 1.393 . S
C303 C302 1.391 . S
H304 C312 0.950 . S
H305 C317 0.950 . S
H306 C314 0.950 . S
H307 C316 0.950 . S
H308 C318 0.950 . S
H309 C320 0.950 . S
H310 C322 0.950 . S
H311 C323 0.950 . S
C312 H304 0.950 . S
C312 C313 1.386 . S
C312 C314 1.391 . S
C313 C312 1.386 . S
C313 C317 1.393 . S
C314 H306 0.950 . S
C314 C312 1.391 . S
C314 C315 1.400 . S
C315 C314 1.400 . S
C315 C316 1.398 . S
C315 C321 1.491 1_554 S
C316 H307 0.950 . S
C316 C315 1.398 . S
C316 C317 1.391 . S
C317 H305 0.950 . S
C317 C313 1.393 . S
C317 C316 1.391 . S
C318 H308 0.950 . S
C318 C319 1.386 . S
C318 C320 1.391 . S
C319 C318 1.386 . S
C319 C323 1.393 . S
C320 H309 0.950 . S
C320 C318 1.391 . S
C320 C321 1.400 . S
C321 C315 1.491 1_556 S
C321 C320 1.400 . S
C321 C322 1.398 . S
C322 H310 0.950 . S
C322 C321 1.398 . S
C322 C323 1.391 . S
C323 H311 0.950 . S
C323 C319 1.393 . S
C323 C322 1.391 . S
H324 C332 0.951 . S
H325 C337 0.950 . S
H326 C334 0.950 . S
H327 C336 0.950 . S
H328 C338 0.951 . S
H329 C340 0.950 . S
H330 C342 0.950 . S
H331 C343 0.950 . S
C332 H324 0.951 . S
C332 C333 1.384 1_545 S
C332 C334 1.392 . S
C333 C332 1.384 1_565 S
C333 C337 1.393 . S
C334 H326 0.950 . S
C334 C332 1.392 . S
C334 C335 1.400 1_545 S
C335 C334 1.400 1_565 S
C335 C336 1.398 1_455 S
C335 C341 1.491 1_466 S
C336 H327 0.950 . S
C336 C335 1.398 1_655 S
C336 C337 1.391 1_655 S
C337 H325 0.950 . S
C337 C333 1.393 . S
C337 C336 1.391 1_455 S
C338 H328 0.951 . S
C338 C339 1.384 1_565 S
C338 C340 1.392 . S
C339 C338 1.384 1_545 S
C339 C343 1.393 . S
C340 H329 0.950 . S
C340 C338 1.392 . S
C340 C341 1.400 1_565 S
C341 C335 1.491 1_644 S
C341 C340 1.400 1_545 S
C341 C342 1.398 1_655 S
C342 H330 0.950 . S
C342 C341 1.398 1_455 S
C342 C343 1.391 1_455 S
C343 H331 0.950 . S
C343 C339 1.393 . S
C343 C342 1.391 1_655 S
H344 C352 0.950 . S
H345 C357 0.950 . S
H346 C354 0.950 . S
H347 C356 0.950 . S
H348 C358 0.950 . S
H349 C360 0.950 . S
H350 C362 0.950 . S
H351 C363 0.950 . S
C352 H344 0.950 . S
C352 C353 1.386 . S
C352 C354 1.391 . S
C353 C352 1.386 . S
C353 C357 1.393 . S
C354 H346 0.950 . S
C354 C352 1.391 . S
C354 C355 1.400 . S
C355 C354 1.400 . S
C355 C356 1.398 . S
C355 C361 1.491 . S
C356 H347 0.950 . S
C356 C355 1.398 . S
C356 C357 1.391 . S
C357 H345 0.950 . S
C357 C353 1.393 . S
C357 C356 1.391 . S
C358 H348 0.950 . S
C358 C359 1.386 . S
C358 C360 1.391 . S
C359 C358 1.386 . S
C359 C363 1.393 . S
C360 H349 0.950 . S
C360 C358 1.391 . S
C360 C361 1.400 . S
C361 C355 1.491 . S
C361 C360 1.400 . S
C361 C362 1.398 . S
C362 H350 0.950 . S
C362 C361 1.398 . S
C362 C363 1.391 . S
C363 H351 0.950 . S
C363 C359 1.393 . S
C363 C362 1.391 . S
H364 C372 0.950 . S
H365 C377 0.950 . S
H366 C374 0.950 . S
H367 C376 0.950 . S
H368 C378 0.950 . S
H369 C380 0.950 . S
H370 C382 0.950 . S
H371 C383 0.950 . S
C372 H364 0.950 . S
C372 C373 1.386 . S
C372 C374 1.391 . S
C373 C372 1.386 . S
C373 C377 1.393 . S
C374 H366 0.950 . S
C374 C372 1.391 . S
C374 C375 1.400 . S
C375 C374 1.400 . S
C375 C376 1.398 . S
C375 C381 1.491 . S
C376 H367 0.950 . S
C376 C375 1.398 . S
C376 C377 1.391 . S
C377 H365 0.950 . S
C377 C373 1.393 . S
C377 C376 1.391 . S
C378 H368 0.950 . S
C378 C379 1.386 . S
C378 C380 1.391 . S
C379 C378 1.386 . S
C379 C383 1.393 . S
C380 H369 0.950 . S
C380 C378 1.391 . S
C380 C381 1.400 . S
C381 C375 1.491 . S
C381 C380 1.400 . S
C381 C382 1.398 . S
C382 H370 0.950 . S
C382 C381 1.398 . S
C382 C383 1.391 . S
C383 H371 0.950 . S
C383 C379 1.393 . S
C383 C382 1.391 . S
H384 C392 0.950 . S
H385 C397 0.950 . S
H386 C394 0.950 . S
H387 C396 0.950 . S
H388 C398 0.950 . S
H389 C400 0.950 . S
H390 C402 0.950 . S
H391 C403 0.950 . S
C392 H384 0.950 . S
C392 C393 1.386 . S
C392 C394 1.391 . S
C393 C392 1.386 . S
C393 C397 1.393 . S
C394 H386 0.950 . S
C394 C392 1.391 . S
C394 C395 1.400 . S
C395 C394 1.400 . S
C395 C396 1.398 . S
C395 C401 1.491 . S
C396 H387 0.950 . S
C396 C395 1.398 . S
C396 C397 1.391 . S
C397 H385 0.950 . S
C397 C393 1.393 . S
C397 C396 1.391 . S
C398 H388 0.950 . S
C398 C399 1.386 . S
C398 C400 1.391 . S
C399 C398 1.386 . S
C399 C403 1.393 . S
C400 H389 0.950 . S
C400 C398 1.391 . S
C400 C401 1.400 . S
C401 C395 1.491 . S
C401 C400 1.400 . S
C401 C402 1.398 . S
C402 H390 0.950 . S
C402 C401 1.398 . S
C402 C403 1.391 . S
C403 H391 0.950 . S
C403 C399 1.393 . S
C403 C402 1.391 . S
H404 C412 0.950 . S
H405 C417 0.950 . S
H406 C414 0.950 . S
H407 C416 0.950 . S
H408 C418 0.950 . S
H409 C420 0.950 . S
H410 C422 0.950 . S
H411 C423 0.950 . S
C412 H404 0.950 . S
C412 C413 1.386 . S
C412 C414 1.391 . S
C413 C412 1.386 . S
C413 C417 1.393 . S
C414 H406 0.950 . S
C414 C412 1.391 . S
C414 C415 1.400 . S
C415 C414 1.400 . S
C415 C416 1.398 . S
C415 C421 1.491 . S
C416 H407 0.950 . S
C416 C415 1.398 . S
C416 C417 1.391 . S
C417 H405 0.950 . S
C417 C413 1.393 . S
C417 C416 1.391 . S
C418 H408 0.950 . S
C418 C419 1.386 . S
C418 C420 1.391 . S
C419 C418 1.386 . S
C419 C423 1.393 . S
C420 H409 0.950 . S
C420 C418 1.391 . S
C420 C421 1.400 . S
C421 C415 1.491 . S
C421 C420 1.400 . S
C421 C422 1.398 . S
C422 H410 0.950 . S
C422 C421 1.398 . S
C422 C423 1.391 . S
C423 H411 0.950 . S
C423 C419 1.393 . S
C423 C422 1.391 . S
C113 C10 1.558 . S
C119 C29 1.558 . S
C133 C44 1.558 1_455 S
C139 C23 1.558 . S
C153 C30 1.557 . S
C159 C5 1.556 1_655 S
C173 C49 1.555 . S
C179 C18 1.557 . S
C193 C83 1.558 . S
C199 C56 1.558 . S
C213 C75 1.556 . S
C219 C96 1.556 1_655 S
C233 C88 1.555 . S
C239 C55 1.557 1_455 S
C253 C101 1.557 . S
C259 C70 1.558 . S
C273 C3 1.519 . S
C279 C57 1.519 . S
C293 C16 1.519 . S
C299 C68 1.519 . S
C313 C31 1.519 . S
C319 C81 1.519 . S
C333 C94 1.515 . S
C339 C42 1.515 . S
C353 C4 1.520 . S
C359 C17 1.521 . S
C373 C43 1.519 . S
C379 C36 1.522 . S
C393 C69 1.523 . S
C399 C62 1.518 . S
C413 C82 1.522 . S
C419 C95 1.519 . S
