# Generated by pormake.
# Topology lcy-e, (6)-cn, num edge types: 1
# Building blocks:
#     Node 0, Type 0, BuildingBlock: BETDEL_clean_sbu_0, # of connection points: 6
#     Node 1, Type 0, BuildingBlock: BETDEL_clean_sbu_0, # of connection points: 6
#     Node 2, Type 0, BuildingBlock: BETDEL_clean_sbu_0, # of connection points: 6
#     Node 3, Type 0, BuildingBlock: BETDEL_clean_sbu_0, # of connection points: 6
#     Node 4, Type 0, BuildingBlock: BETDEL_clean_sbu_0, # of connection points: 6
#     Node 5, Type 0, BuildingBlock: BETDEL_clean_sbu_0, # of connection points: 6
#     Node 6, Type 0, BuildingBlock: BETDEL_clean_sbu_0, # of connection points: 6
#     Node 7, Type 0, BuildingBlock: BETDEL_clean_sbu_0, # of connection points: 6
#     Node 8, Type 0, BuildingBlock: BETDEL_clean_sbu_0, # of connection points: 6
#     Node 9, Type 0, BuildingBlock: BETDEL_clean_sbu_0, # of connection points: 6
#     Node 10, Type 0, BuildingBlock: BETDEL_clean_sbu_0, # of connection points: 6
#     Node 11, Type 0, BuildingBlock: BETDEL_clean_sbu_0, # of connection points: 6
#     Edge 12, Type (0, 0), BuildingBlock: UVAHIK_clean_linker_0, # of connection points: 2
#     Edge 13, Type (0, 0), BuildingBlock: UVAHIK_clean_linker_0, # of connection points: 2
#     Edge 14, Type (0, 0), BuildingBlock: UVAHIK_clean_linker_0, # of connection points: 2
#     Edge 15, Type (0, 0), BuildingBlock: UVAHIK_clean_linker_0, # of connection points: 2
#     Edge 16, Type (0, 0), BuildingBlock: UVAHIK_clean_linker_0, # of connection points: 2
#     Edge 17, Type (0, 0), BuildingBlock: UVAHIK_clean_linker_0, # of connection points: 2
#     Edge 18, Type (0, 0), BuildingBlock: UVAHIK_clean_linker_0, # of connection points: 2
#     Edge 19, Type (0, 0), BuildingBlock: UVAHIK_clean_linker_0, # of connection points: 2
#     Edge 20, Type (0, 0), BuildingBlock: UVAHIK_clean_linker_0, # of connection points: 2
#     Edge 21, Type (0, 0), BuildingBlock: UVAHIK_clean_linker_0, # of connection points: 2
#     Edge 22, Type (0, 0), BuildingBlock: UVAHIK_clean_linker_0, # of connection points: 2
#     Edge 23, Type (0, 0), BuildingBlock: UVAHIK_clean_linker_0, # of connection points: 2
#     Edge 24, Type (0, 0), BuildingBlock: UVAHIK_clean_linker_0, # of connection points: 2
#     Edge 25, Type (0, 0), BuildingBlock: UVAHIK_clean_linker_0, # of connection points: 2
#     Edge 26, Type (0, 0), BuildingBlock: UVAHIK_clean_linker_0, # of connection points: 2
#     Edge 27, Type (0, 0), BuildingBlock: UVAHIK_clean_linker_0, # of connection points: 2
#     Edge 28, Type (0, 0), BuildingBlock: UVAHIK_clean_linker_0, # of connection points: 2
#     Edge 29, Type (0, 0), BuildingBlock: UVAHIK_clean_linker_0, # of connection points: 2
#     Edge 30, Type (0, 0), BuildingBlock: UVAHIK_clean_linker_0, # of connection points: 2
#     Edge 31, Type (0, 0), BuildingBlock: UVAHIK_clean_linker_0, # of connection points: 2
#     Edge 32, Type (0, 0), BuildingBlock: UVAHIK_clean_linker_0, # of connection points: 2
#     Edge 33, Type (0, 0), BuildingBlock: UVAHIK_clean_linker_0, # of connection points: 2
#     Edge 34, Type (0, 0), BuildingBlock: UVAHIK_clean_linker_0, # of connection points: 2
#     Edge 35, Type (0, 0), BuildingBlock: UVAHIK_clean_linker_0, # of connection points: 2
#     Edge 36, Type (0, 0), BuildingBlock: UVAHIK_clean_linker_0, # of connection points: 2
#     Edge 37, Type (0, 0), BuildingBlock: UVAHIK_clean_linker_0, # of connection points: 2
#     Edge 38, Type (0, 0), BuildingBlock: UVAHIK_clean_linker_0, # of connection points: 2
#     Edge 39, Type (0, 0), BuildingBlock: UVAHIK_clean_linker_0, # of connection points: 2
#     Edge 40, Type (0, 0), BuildingBlock: UVAHIK_clean_linker_0, # of connection points: 2
#     Edge 41, Type (0, 0), BuildingBlock: UVAHIK_clean_linker_0, # of connection points: 2
#     Edge 42, Type (0, 0), BuildingBlock: UVAHIK_clean_linker_0, # of connection points: 2
#     Edge 43, Type (0, 0), BuildingBlock: UVAHIK_clean_linker_0, # of connection points: 2
#     Edge 44, Type (0, 0), BuildingBlock: UVAHIK_clean_linker_0, # of connection points: 2
#     Edge 45, Type (0, 0), BuildingBlock: UVAHIK_clean_linker_0, # of connection points: 2
#     Edge 46, Type (0, 0), BuildingBlock: UVAHIK_clean_linker_0, # of connection points: 2
#     Edge 47, Type (0, 0), BuildingBlock: UVAHIK_clean_linker_0, # of connection points: 2
# Relax obj value: 0.225
# Max RMSD: 0.278
# Mean RMSD: 0.267
data_MOF--net-lcy-e--node1-BETDEL_clean_sbu_0--edge1-UVAHIK_clean_linker_0
_symmetry_space_group_name_H-M    P1
_symmetry_Int_Tables_number       1
_symmetry_cell_setting            triclinic
loop_
_symmetry_equiv_pos_as_xyz
'x, y, z'
_cell_length_a     47.955426
_cell_length_b     46.606188
_cell_length_c     49.188198
_cell_angle_alpha  89.947016
_cell_angle_beta   91.281405
_cell_angle_gamma 88.795519
loop_
_atom_site_label
_atom_site_type_symbol
_atom_site_fract_x
_atom_site_fract_y
_atom_site_fract_z
_atom_type_partial_charge
Dy0 Dy 0.12416 0.24879 0.44929 0.0
C1 C 0.13179 0.14473 0.51085 0.0
C2 C 0.13015 0.29618 0.41763 0.0
Dy3 Dy 0.13783 0.19527 0.48398 0.0
O4 O 0.10671 0.28338 0.4214 0.0
O5 O 0.14995 0.28354 0.4318 0.0
O6 O 0.08185 0.23303 0.43919 0.0
O7 O 0.11505 0.20307 0.44545 0.0
C8 C 0.0889 0.20609 0.44176 0.0
C9 C 0.17047 0.24078 0.49313 0.0
O10 O 0.16439 0.18344 0.44903 0.0
O11 O 0.1597 0.22754 0.42713 0.0
O12 O 0.15048 0.16363 0.51693 0.0
O13 O 0.1167 0.15341 0.49012 0.0
O14 O 0.17943 0.21447 0.49696 0.0
O15 O 0.14487 0.24073 0.48766 0.0
O16 O 0.10457 0.26221 0.48853 0.0
O17 O 0.10177 0.216 0.50589 0.0
C18 C 0.17142 0.20159 0.42976 0.0
C19 C 0.09467 0.24369 0.50635 0.0
Dy20 Dy 0.00304 0.86066 0.68833 0.0
C21 C 0.09955 0.8612 0.76093 0.0
C22 C 0.96027 0.8692 0.65162 0.0
Dy23 Dy 0.0526 0.8696 0.72932 0.0
O24 O 0.97108 0.84432 0.65833 0.0
O25 O 0.97222 0.88924 0.66568 0.0
O26 O 0.01948 0.81713 0.67786 0.0
O27 O 0.04735 0.84948 0.68952 0.0
C28 C 0.04512 0.82317 0.68415 0.0
C29 C 0.00861 0.90573 0.73392 0.0
O30 O 0.06653 0.89908 0.69703 0.0
O31 O 0.02626 0.897 0.66975 0.0
O32 O 0.07642 0.873 0.76913 0.0
O33 O 0.09702 0.85413 0.73551 0.0
O34 O 0.03379 0.91288 0.74133 0.0
O35 O 0.00851 0.87971 0.72775 0.0
O36 O 0.98684 0.83998 0.72587 0.0
O37 O 0.03069 0.83096 0.74549 0.0
C38 C 0.05107 0.90775 0.67583 0.0
C39 C 0.00338 0.82663 0.74416 0.0
Dy40 Dy 0.35964 0.80803 0.99284 0.0
C41 C 0.35116 0.73629 0.89728 0.0
C42 C 0.37115 0.83817 0.03895 0.0
Dy43 Dy 0.36177 0.76513 0.94448 0.0
O44 O 0.3472 0.83843 0.02608 0.0
O45 O 0.38869 0.82126 0.02675 0.0
O46 O 0.32426 0.83317 0.97393 0.0
O47 O 0.35235 0.81092 0.94897 0.0
C48 C 0.3293 0.8246 0.94939 0.0
C49 C 0.38968 0.7489 0.99033 0.0
O50 O 0.39995 0.78898 0.93543 0.0
O51 O 0.4013 0.81719 0.97457 0.0
O52 O 0.35139 0.72483 0.92141 0.0
O53 O 0.35705 0.76326 0.899 0.0
O54 O 0.39695 0.74014 0.96631 0.0
O55 O 0.36701 0.76262 0.98832 0.0
O56 O 0.32786 0.77549 0.00401 0.0
O57 O 0.31829 0.76185 0.95965 0.0
C58 C 0.4124 0.8076 0.95169 0.0
C59 C 0.31173 0.76248 0.98566 0.0
Dy60 Dy 0.50397 0.13531 0.19196 0.0
C61 C 0.40947 0.14072 0.2636 0.0
C62 C 0.54669 0.12306 0.15777 0.0
Dy63 Dy 0.4556 0.13066 0.23297 0.0
O64 O 0.53579 0.14845 0.16161 0.0
O65 O 0.53482 0.1046 0.17327 0.0
O66 O 0.48552 0.17545 0.17396 0.0
O67 O 0.45911 0.14489 0.19092 0.0
C68 C 0.46051 0.17008 0.18169 0.0
C69 C 0.50134 0.09745 0.24316 0.0
O70 O 0.44081 0.09892 0.20248 0.0
O71 O 0.4828 0.09449 0.17987 0.0
O72 O 0.42839 0.12093 0.26851 0.0
O73 O 0.41579 0.15502 0.24201 0.0
O74 O 0.47659 0.09039 0.25077 0.0
O75 O 0.50027 0.12235 0.23363 0.0
O76 O 0.52024 0.1621 0.22659 0.0
O77 O 0.47714 0.17095 0.24606 0.0
C78 C 0.45741 0.08554 0.18523 0.0
C79 C 0.50395 0.17675 0.24348 0.0
Dy80 Dy 0.63078 0.26283 0.55824 0.0
C81 C 0.62906 0.36104 0.4867 0.0
C82 C 0.63544 0.22266 0.5984 0.0
Dy83 Dy 0.63874 0.31248 0.51681 0.0
O84 O 0.62599 0.24871 0.60123 0.0
O85 O 0.64208 0.21807 0.5732 0.0
O86 O 0.58883 0.28117 0.56665 0.0
O87 O 0.62175 0.30891 0.55727 0.0
C88 C 0.59607 0.30736 0.56197 0.0
C89 C 0.67013 0.26461 0.50943 0.0
O90 O 0.66557 0.32701 0.55103 0.0
O91 O 0.67257 0.28149 0.56918 0.0
O92 O 0.65266 0.34676 0.48801 0.0
O93 O 0.6108 0.34857 0.50151 0.0
O94 O 0.67806 0.28974 0.50142 0.0
O95 O 0.64575 0.26674 0.5176 0.0
O96 O 0.60334 0.24685 0.52419 0.0
O97 O 0.60104 0.29004 0.49987 0.0
C98 C 0.67987 0.30866 0.56665 0.0
C99 C 0.59248 0.26352 0.50446 0.0
Dy100 Dy 0.952 0.38083 0.76228 0.0
C101 C 0.009 0.36477 0.86545 0.0
C102 C 0.92472 0.37855 0.71333 0.0
Dy103 Dy 0.98556 0.36231 0.81469 0.0
O104 O 0.92782 0.40176 0.72763 0.0
O105 O 0.93671 0.35685 0.72569 0.0
O106 O 0.93824 0.42185 0.78141 0.0
O107 O 0.9463 0.38532 0.80591 0.0
C108 C 0.94121 0.412 0.80606 0.0
C109 C 0.99836 0.33395 0.76876 0.0
O110 O 0.94703 0.3376 0.82096 0.0
O111 O 0.9282 0.34288 0.77722 0.0
O112 O 0.00765 0.3416 0.85078 0.0
O113 O 0.99798 0.38643 0.85223 0.0
O114 O 0.00277 0.32263 0.79274 0.0
O115 O 0.99112 0.35962 0.77156 0.0
O116 O 0.99218 0.40364 0.75567 0.0
O117 O 0.00972 0.40004 0.80011 0.0
C118 C 0.92874 0.33064 0.80163 0.0
C119 C 0.01036 0.41104 0.77518 0.0
Dy120 Dy 0.86663 0.73349 0.05358 0.0
C121 C 0.86904 0.62984 0.99003 0.0
C122 C 0.86768 0.78353 0.08219 0.0
Dy123 Dy 0.86336 0.68243 0.01353 0.0
O124 O 0.88807 0.76484 0.08122 0.0
O125 O 0.84685 0.7751 0.06715 0.0
O126 O 0.88485 0.70334 0.08514 0.0
O127 O 0.89343 0.69659 0.04398 0.0
C128 C 0.89659 0.68648 0.06761 0.0
C129 C 0.83297 0.72898 -0.00104 0.0
O130 O 0.83192 0.66984 0.04431 0.0
O131 O 0.82913 0.71204 0.06969 0.0
O132 O 0.86119 0.65324 0.97739 0.0
O133 O 0.87334 0.63506 0.0157 0.0
O134 O 0.84315 0.71097 0.98139 0.0
O135 O 0.83713 0.71946 0.02266 0.0
O136 O 0.88899 0.74915 0.01674 0.0
O137 O 0.90131 0.70439 -0.00026 0.0
C138 C 0.82066 0.68577 0.06376 0.0
C139 C 0.90328 0.73267 -0.00025 0.0
Dy140 Dy 0.54374 0.61191 0.24992 0.0
C141 C 0.48263 0.61978 0.34811 0.0
C142 C 0.57522 0.61284 0.20443 0.0
Dy143 Dy 0.50803 0.62586 0.29946 0.0
O144 O 0.57596 0.59267 0.22261 0.0
O145 O 0.55681 0.63239 0.21081 0.0
O146 O 0.55794 0.57086 0.26883 0.0
O147 O 0.5495 0.60648 0.29405 0.0
C148 C 0.55564 0.57991 0.29361 0.0
C149 C 0.49393 0.65444 0.25325 0.0
O150 O 0.54293 0.65509 0.30881 0.0
O151 O 0.56196 0.6533 0.26583 0.0
O152 O 0.47858 0.64145 0.3317 0.0
O153 O 0.50038 0.60167 0.33788 0.0
O154 O 0.48946 0.66511 0.27727 0.0
O155 O 0.50248 0.62903 0.25579 0.0
O156 O 0.50628 0.58512 0.23979 0.0
O157 O 0.4883 0.58582 0.28327 0.0
C158 C 0.56 0.66495 0.2904 0.0
C159 C 0.48885 0.57531 0.25821 0.0
Dy160 Dy 0.23552 0.44092 0.11433 0.0
C161 C 0.12861 0.49775 0.12185 0.0
C162 C 0.28589 0.41308 0.12023 0.0
Dy163 Dy 0.18036 0.47268 0.12619 0.0
O164 O 0.27026 0.41305 0.09834 0.0
O165 O 0.27437 0.42911 0.13858 0.0
O166 O 0.21831 0.4242 0.07533 0.0
O167 O 0.19132 0.4313 0.10802 0.0
C168 C 0.19263 0.42503 0.08309 0.0
C169 C 0.22568 0.48877 0.15522 0.0
O170 O 0.17378 0.43368 0.1506 0.0
O171 O 0.22055 0.42016 0.15293 0.0
O172 O 0.14465 0.49839 0.14348 0.0
O173 O 0.14083 0.48343 0.10272 0.0
O174 O 0.20085 0.48938 0.16529 0.0
O175 O 0.22411 0.482 0.13072 0.0
O176 O 0.24139 0.48087 0.08955 0.0
O177 O 0.19468 0.49518 0.08881 0.0
C178 C 0.19467 0.41868 0.16185 0.0
C179 C 0.22042 0.49732 0.07978 0.0
Dy180 Dy 0.69004 0.99134 0.86226 0.0
C181 C 0.7497 0.09716 0.86075 0.0
C182 C 0.65965 0.94313 0.86897 0.0
Dy183 Dy 0.7235 0.04673 0.86937 0.0
O184 O 0.65549 0.96215 0.84998 0.0
O185 O 0.68106 0.95004 0.8841 0.0
O186 O 0.67752 0.00445 0.82039 0.0
O187 O 0.68343 0.03633 0.85045 0.0
C188 C 0.67875 0.03174 0.82538 0.0
C189 C 0.7378 0.00285 0.90292 0.0
O190 O 0.68751 0.05895 0.89467 0.0
O191 O 0.67167 0.01252 0.89933 0.0
O192 O 0.75416 0.08048 0.88162 0.0
O193 O 0.73086 0.08635 0.84466 0.0
O194 O 0.74 0.02955 0.91017 0.0
O195 O 0.73059 0.00172 0.87838 0.0
O196 O 0.72812 0.97881 0.83882 0.0
O197 O 0.74413 0.02534 0.83387 0.0
C198 C 0.672 0.03989 0.90685 0.0
C199 C 0.74472 0.99768 0.82736 0.0
Dy200 Dy 0.76739 0.94382 0.37522 0.0
C201 C 0.86599 0.01453 0.3777 0.0
C202 C 0.72183 0.91117 0.36383 0.0
Dy203 Dy 0.81772 0.9852 0.36907 0.0
O204 O 0.73406 0.91323 0.38759 0.0
O205 O 0.73398 0.92763 0.34661 0.0
O206 O 0.78738 0.92177 0.41099 0.0
O207 O 0.81262 0.94059 0.38147 0.0
C208 C 0.81231 0.92943 0.40488 0.0
C209 C 0.77016 -0.00056 0.34154 0.0
O210 O 0.82925 0.95318 0.33774 0.0
O211 O 0.78636 0.93067 0.33538 0.0
O212 O 0.84886 0.01834 0.35709 0.0
O213 O 0.8567 0.99478 0.39354 0.0
O214 O 0.79455 0.00721 0.33352 0.0
O215 O 0.77275 0.98797 0.36444 0.0
O216 O 0.75532 0.97947 0.40419 0.0
O217 O 0.79939 -0.00071 0.40848 0.0
C218 C 0.8114 0.93579 0.32564 0.0
C219 C 0.7734 0.9967 0.41675 0.0
Dy220 Dy 0.3202 0.50738 0.63786 0.0
C221 C 0.24482 0.60314 0.62517 0.0
C222 C 0.35907 0.46413 0.63766 0.0
Dy223 Dy 0.27849 0.55565 0.62305 0.0
O224 O 0.35879 0.48542 0.65457 0.0
O225 O 0.33748 0.46595 0.6213 0.0
O226 O 0.32714 0.52601 0.67889 0.0
O227 O 0.31814 0.55349 0.64548 0.0
C228 C 0.32175 0.55218 0.67104 0.0
C229 C 0.27445 0.50801 0.59251 0.0
O230 O 0.31182 0.56893 0.59564 0.0
O231 O 0.3391 0.52748 0.60094 0.0
O232 O 0.23643 0.57755 0.61914 0.0
O233 O 0.27156 0.60279 0.62969 0.0
O234 O 0.26802 0.53355 0.58325 0.0
O235 O 0.27986 0.50939 0.61756 0.0
O236 O 0.28336 0.49244 0.66084 0.0
O237 O 0.2622 0.53769 0.66174 0.0
C238 C 0.33327 0.55243 0.58884 0.0
C239 C 0.26442 0.51078 0.67046 0.0
C240 C 0.17266 0.29391 0.49297 0.0
C241 C 0.18544 0.26742 0.49972 0.0
C242 C 0.18513 0.31962 0.5001 0.0
C243 C 0.25091 0.35144 0.52837 0.0
H244 H 0.19986 0.41461 0.54426 0.0
C245 C 0.27568 0.45446 0.59106 0.0
C246 C 0.26865 0.48073 0.57832 0.0
C247 C 0.26861 0.42845 0.57889 0.0
C248 C 0.21435 0.39724 0.5396 0.0
H249 H 0.22139 0.24703 0.51954 0.0
H250 H 0.24265 0.29216 0.53373 0.0
H251 H 0.18146 0.36891 0.52968 0.0
H252 H 0.24877 0.50039 0.54276 0.0
H253 H 0.23522 0.45468 0.52196 0.0
H254 H 0.28368 0.37993 0.54035 0.0
C255 C 0.22341 0.29312 0.52181 0.0
C256 C 0.20388 0.37096 0.53102 0.0
C257 C 0.2112 0.26718 0.51385 0.0
C258 C 0.2546 0.48047 0.55296 0.0
C259 C 0.24686 0.4544 0.54109 0.0
C260 C 0.26135 0.37765 0.53764 0.0
C261 C 0.21032 0.31977 0.51531 0.0
C262 C 0.22195 0.34765 0.52498 0.0
C263 C 0.25367 0.4282 0.55407 0.0
C264 C 0.24313 0.40081 0.54312 0.0
H265 H 0.15263 0.29492 0.48243 0.0
H266 H 0.17467 0.33941 0.49382 0.0
H267 H 0.26559 0.33429 0.52368 0.0
H268 H 0.28599 0.45396 0.61084 0.0
H269 H 0.27372 0.40856 0.58946 0.0
C270 C 0.78207 0.96156 0.81711 0.0
C271 C 0.7682 0.98763 0.81085 0.0
C272 C 0.80804 0.95521 0.80598 0.0
C273 C 0.85505 0.971 0.75099 0.0
H274 H 0.91393 0.95229 0.80391 0.0
C275 C 0.98184 0.94638 0.75552 0.0
C276 C 0.98261 0.92222 0.73851 0.0
C277 C 0.95611 0.95894 0.76244 0.0
C278 C 0.89776 0.95791 0.789 0.0
H279 H 0.76941 0.02653 0.78675 0.0
H280 H 0.81438 0.01487 0.76655 0.0
H281 H 0.86648 0.96233 0.81923 0.0
H282 H 0.95737 0.89271 0.715 0.0
H283 H 0.91306 0.91536 0.72584 0.0
H284 H 0.88616 0.96543 0.72068 0.0
C285 C 0.80541 -0.00035 0.78034 0.0
C286 C 0.87061 0.96323 0.79768 0.0
C287 C 0.77972 0.00626 0.79185 0.0
C288 C 0.95751 0.91169 0.72762 0.0
C289 C 0.93207 0.92459 0.7339 0.0
C290 C 0.88211 0.96517 0.74225 0.0
C291 C 0.82022 0.97456 0.78806 0.0
C292 C 0.84898 0.96945 0.77872 0.0
C293 C 0.93105 0.94788 0.75183 0.0
C294 C 0.90361 0.95831 0.76118 0.0
H295 H 0.77377 0.94699 0.83192 0.0
H296 H 0.819 0.93556 0.81197 0.0
H297 H 0.8387 0.97585 0.73602 0.0
H298 H 0.00089 0.95469 0.76439 0.0
H299 H 0.95571 0.97685 0.77645 0.0
C300 C 0.2756 0.72632 0.97495 0.0
C301 C 0.29063 0.74203 0.99457 0.0
C302 C 0.26225 0.70126 0.9822 0.0
C303 C 0.23721 0.6572 0.03768 0.0
H304 H 0.26889 0.59322 0.9973 0.0
C305 C 0.20402 0.54115 0.05457 0.0
C306 C 0.22614 0.52241 0.06252 0.0
C307 C 0.20932 0.56781 0.04321 0.0
C308 C 0.25982 0.61091 0.00859 0.0
H309 H 0.30051 0.74573 0.03768 0.0
H310 H 0.27651 0.70215 0.0504 0.0
H311 H 0.27965 0.64248 0.98449 0.0
H312 H 0.2711 0.51611 0.0627 0.0
H313 H 0.28029 0.5627 0.04205 0.0
H314 H 0.21753 0.62556 0.0619 0.0
C315 C 0.27557 0.70906 0.02935 0.0
C316 C 0.26575 0.639 0.00119 0.0
C317 C 0.28925 0.73404 0.02206 0.0
C318 C 0.25362 0.53003 0.05686 0.0
C319 C 0.25889 0.55668 0.0451 0.0
C320 C 0.23086 0.62909 0.04477 0.0
C321 C 0.26325 0.69176 0.00925 0.0
C322 C 0.25474 0.66235 0.01585 0.0
C323 C 0.2368 0.57612 0.0391 0.0
C324 C 0.24238 0.60574 0.03047 0.0
H325 H 0.27585 0.73211 0.95362 0.0
H326 H 0.25243 0.68847 0.96644 0.0
H327 H 0.2286 0.67488 0.04931 0.0
H328 H 0.18254 0.53591 0.05832 0.0
H329 H 0.19196 0.58231 0.03834 0.0
C330 C 0.55281 0.09242 0.2393 0.0
C331 C 0.52787 0.08205 0.24965 0.0
C332 C 0.57846 0.0798 0.24682 0.0
C333 C 0.61257 0.04172 0.30314 0.0
H334 H 0.67202 0.0276 0.25233 0.0
C335 C 0.71858 0.99545 0.33991 0.0
C336 C 0.74282 0.00595 0.32827 0.0
C337 C 0.69233 0.00206 0.3286 0.0
C338 C 0.65577 0.03173 0.26683 0.0
H339 H 0.51008 0.04997 0.27556 0.0
H340 H 0.55528 0.02802 0.28924 0.0
H341 H 0.62577 0.04292 0.23538 0.0
H342 H 0.75867 0.03152 0.29553 0.0
H343 H 0.71249 0.04415 0.27612 0.0
H344 H 0.64249 0.03178 0.33469 0.0
C345 C 0.55482 0.0459 0.27514 0.0
C346 C 0.62923 0.04032 0.25709 0.0
C347 C 0.529 0.05833 0.26726 0.0
C348 C 0.7403 0.02307 0.30484 0.0
C349 C 0.71384 0.03011 0.29366 0.0
C350 C 0.63912 0.03347 0.3129 0.0
C351 C 0.57982 0.05674 0.26519 0.0
C352 C 0.60739 0.04549 0.27517 0.0
C353 C 0.68948 0.0199 0.30562 0.0
C354 C 0.66113 0.02839 0.29491 0.0
H355 H 0.55262 0.1108 0.22582 0.0
H356 H 0.59733 0.08886 0.23907 0.0
H357 H 0.59631 0.0461 0.3176 0.0
H358 H 0.7198 0.98224 0.35803 0.0
H359 H 0.67423 0.9932 0.33805 0.0
C360 C 0.71238 0.23392 0.49878 0.0
C361 C 0.68397 0.23658 0.50462 0.0
C362 C 0.72454 0.20667 0.49447 0.0
C363 C 0.70996 0.12806 0.50234 0.0
H364 H 0.76513 0.11936 0.44645 0.0
C365 C 0.73519 0.02491 0.43943 0.0
C366 C 0.76371 0.01821 0.43674 0.0
C367 C 0.72678 0.04978 0.4533 0.0
C368 C 0.7499 0.12156 0.4623 0.0
H369 H 0.64596 0.21305 0.51026 0.0
H370 H 0.66639 0.16648 0.5015 0.0
H371 H 0.74893 0.16728 0.45916 0.0
H372 H 0.8056 0.03078 0.44884 0.0
H373 H 0.79082 0.07423 0.47229 0.0
H374 H 0.7099 0.08201 0.50403 0.0
C375 C 0.67987 0.18482 0.50126 0.0
C376 C 0.74074 0.14903 0.46975 0.0
C377 C 0.66798 0.21175 0.506 0.0
C378 C 0.78345 0.03551 0.4501 0.0
C379 C 0.77508 0.06043 0.46354 0.0
C380 C 0.71869 0.10058 0.49442 0.0
C381 C 0.70833 0.18175 0.49554 0.0
C382 C 0.72031 0.15269 0.48959 0.0
C383 C 0.74679 0.0683 0.4644 0.0
C384 C 0.73854 0.09714 0.47418 0.0
H385 H 0.72516 0.25276 0.49779 0.0
H386 H 0.74661 0.20517 0.49041 0.0
H387 H 0.69479 0.12993 0.51824 0.0
H388 H 0.71948 0.01206 0.42939 0.0
H389 H 0.70478 0.0555 0.45378 0.0
C390 C 0.05658 0.43184 0.78741 0.0
C391 C 0.03511 0.4276 0.76795 0.0
C392 C 0.08196 0.44313 0.77979 0.0
C393 C 0.11666 0.48366 0.72683 0.0
H394 H 0.18276 0.43984 0.75002 0.0
C395 C 0.23657 0.47173 0.6912 0.0
C396 C 0.24277 0.50095 0.68897 0.0
C397 C 0.21256 0.46334 0.70453 0.0
C398 C 0.16448 0.45225 0.74345 0.0
H399 H 0.02289 0.43361 0.72554 0.0
H400 H 0.0672 0.4537 0.71235 0.0
H401 H 0.13686 0.42579 0.76553 0.0
H402 H 0.23014 0.54405 0.70102 0.0
H403 H 0.18852 0.52937 0.72418 0.0
H404 H 0.14414 0.50986 0.70443 0.0
C405 C 0.06435 0.44806 0.73346 0.0
C406 C 0.13829 0.4444 0.75247 0.0
C407 C 0.03899 0.43654 0.74103 0.0
C408 C 0.2257 0.52137 0.70198 0.0
C409 C 0.20179 0.51303 0.71517 0.0
C410 C 0.14285 0.49169 0.71805 0.0
C411 C 0.08631 0.4507 0.75263 0.0
C412 C 0.11413 0.45992 0.74408 0.0
C413 C 0.19447 0.48407 0.71577 0.0
C414 C 0.16699 0.47598 0.72615 0.0
H415 H 0.05429 0.42541 0.80839 0.0
H416 H 0.0984 0.44541 0.79505 0.0
H417 H 0.09839 0.49603 0.72014 0.0
H418 H 0.24931 0.45552 0.68134 0.0
H419 H 0.20736 0.44084 0.70472 0.0
C420 C 0.75376 0.978 0.9463 0.0
C421 C 0.74849 0.97746 0.91809 0.0
C422 C 0.76412 0.95325 0.95977 0.0
C423 C 0.80673 0.88999 0.94917 0.0
H424 H 0.76098 0.84677 0.99789 0.0
C425 C 0.82682 0.76988 0.96656 0.0
C426 C 0.82283 0.75831 0.99245 0.0
C427 C 0.81894 0.7983 0.96086 0.0
C428 C 0.77433 0.85878 0.98478 0.0
H429 H 0.74986 0.95079 0.88194 0.0
H430 H 0.76849 0.90842 0.90518 0.0
H431 H 0.74586 0.89503 0.98342 0.0
H432 H 0.80637 0.76672 0.03233 0.0
H433 H 0.79343 0.81678 0.0228 0.0
H434 H 0.83511 0.85408 0.95008 0.0
C435 C 0.76447 0.92769 0.91691 0.0
C436 C 0.76564 0.8864 0.97658 0.0
C437 C 0.75371 0.95197 0.90366 0.0
C438 C 0.81019 0.7754 0.01237 0.0
C439 C 0.80249 0.80395 0.00678 0.0
C440 C 0.81559 0.86264 0.95759 0.0
C441 C 0.76984 0.92808 0.94499 0.0
C442 C 0.78142 0.90181 0.95811 0.0
C443 C 0.80701 0.81586 0.98099 0.0
C444 C 0.79906 0.84627 0.97478 0.0
H445 H 0.74977 0.99737 0.95785 0.0
H446 H 0.76808 0.95386 0.98153 0.0
H447 H 0.81922 0.9016 0.93492 0.0
H448 H 0.83643 0.75711 0.95079 0.0
H449 H 0.8221 0.80644 0.94056 0.0
C450 C 0.45953 0.55124 0.2223 0.0
C451 C 0.46591 0.55618 0.24989 0.0
C452 C 0.4347 0.53784 0.21462 0.0
C453 C 0.36384 0.53068 0.23891 0.0
H454 H 0.35548 0.47786 0.17865 0.0
C455 C 0.25515 0.4948 0.19787 0.0
C456 C 0.2525 0.49403 0.16941 0.0
C457 C 0.28149 0.49828 0.21038 0.0
C458 C 0.35744 0.49274 0.19546 0.0
H459 H 0.45234 0.54875 0.29112 0.0
H460 H 0.40923 0.52555 0.27765 0.0
H461 H 0.40211 0.4903 0.19495 0.0
H462 H 0.27499 0.497 0.13176 0.0
H463 H 0.32018 0.50363 0.15324 0.0
H464 H 0.31924 0.53413 0.23872 0.0
C465 C 0.42313 0.53245 0.26197 0.0
C466 C 0.38416 0.49977 0.2048 0.0
C467 C 0.44792 0.54567 0.26964 0.0
C468 C 0.27637 0.49722 0.15376 0.0
C469 C 0.30242 0.50075 0.16611 0.0
C470 C 0.33709 0.52384 0.22942 0.0
C471 C 0.41582 0.52922 0.23439 0.0
C472 C 0.38764 0.51925 0.22627 0.0
C473 C 0.30546 0.50107 0.19455 0.0
C474 C 0.33358 0.50534 0.20713 0.0
H475 H 0.47289 0.55908 0.20658 0.0
H476 H 0.42957 0.53571 0.19317 0.0
H477 H 0.36586 0.54598 0.25536 0.0
H478 H 0.23706 0.49223 0.21036 0.0
H479 H 0.28314 0.49839 0.23237 0.0
C480 C 0.50084 0.2154 0.27807 0.0
C481 C 0.51669 0.19388 0.26533 0.0
C482 C 0.50905 0.22574 0.30357 0.0
C483 C 0.56603 0.22129 0.35684 0.0
H484 H 0.50401 0.23155 0.40552 0.0
C485 C 0.58242 0.22389 0.47236 0.0
C486 C 0.57504 0.25091 0.48288 0.0
C487 C 0.57254 0.21577 0.44663 0.0
C488 C 0.52144 0.22865 0.39209 0.0
H489 H 0.55447 0.16764 0.26817 0.0
H490 H 0.5684 0.18484 0.31288 0.0
H491 H 0.49482 0.22325 0.35723 0.0
H492 H 0.54961 0.28936 0.47639 0.0
H493 H 0.53134 0.27454 0.43185 0.0
H494 H 0.59251 0.22564 0.39218 0.0
C495 C 0.54997 0.1944 0.30318 0.0
C496 C 0.51629 0.22431 0.36436 0.0
C497 C 0.54205 0.18453 0.27742 0.0
C498 C 0.55544 0.26836 0.46866 0.0
C499 C 0.54509 0.25996 0.44322 0.0
C500 C 0.57112 0.22504 0.38464 0.0
C501 C 0.53292 0.21421 0.31709 0.0
C502 C 0.53854 0.22061 0.34633 0.0
C503 C 0.55468 0.23428 0.43149 0.0
C504 C 0.54888 0.22869 0.40245 0.0
H505 H 0.48123 0.22301 0.26904 0.0
H506 H 0.49591 0.24173 0.31323 0.0
H507 H 0.5837 0.21905 0.34362 0.0
H508 H 0.59778 0.21023 0.48279 0.0
H509 H 0.58002 0.19577 0.43793 0.0
C510 C 0.08786 0.28058 0.54233 0.0
C511 C 0.08019 0.25444 0.53055 0.0
C512 C 0.07802 0.2885 0.56783 0.0
C513 C 0.04459 0.25753 0.62925 0.0
H514 H 0.03807 0.33785 0.64839 0.0
C515 C 0.02083 0.29573 0.73954 0.0
C516 C 0.00608 0.32187 0.74212 0.0
C517 C 0.02945 0.28636 0.71382 0.0
C518 C 0.0392 0.31525 0.64344 0.0
H519 H 0.05524 0.2167 0.5354 0.0
H520 H 0.03635 0.23137 0.57896 0.0
H521 H 0.05078 0.32477 0.60295 0.0
H522 H 0.98873 0.3585 0.71989 0.0
H523 H 0.00096 0.34123 0.67567 0.0
H524 H 0.03109 0.24821 0.66945 0.0
C525 C 0.05099 0.24526 0.5693 0.0
C526 C 0.04718 0.30768 0.61727 0.0
C527 C 0.06145 0.237 0.5441 0.0
C528 C -0.00044 0.33798 0.71864 0.0
C529 C 0.00726 0.32832 0.69313 0.0
C530 C 0.03586 0.26514 0.65532 0.0
C531 C 0.05965 0.27081 0.5819 0.0
C532 C 0.05018 0.27872 0.60974 0.0
C533 C 0.02299 0.30277 0.69025 0.0
C534 C 0.03295 0.29415 0.66278 0.0
H535 H 0.10275 0.29416 0.53258 0.0
H536 H 0.08578 0.30801 0.57686 0.0
H537 H 0.04719 0.23495 0.62459 0.0
H538 H 0.02638 0.28301 0.75736 0.0
H539 H 0.04175 0.26669 0.71257 0.0
C540 C 0.96456 0.82043 0.7764 0.0
C541 C 0.99093 0.81172 0.76725 0.0
C542 C 0.95521 0.811 0.80152 0.0
C543 C 0.98356 0.78131 0.867 0.0
H544 H 0.90524 0.77377 0.88294 0.0
C545 C 0.94005 0.73064 0.96473 0.0
C546 C 0.91824 0.74585 0.97723 0.0
C547 C 0.95056 0.74019 0.94015 0.0
C548 C 0.92717 0.77609 0.87877 0.0
H549 H 0.02728 0.78467 0.77607 0.0
H550 H 0.01037 0.76686 0.81913 0.0
H551 H 0.9189 0.78392 0.83652 0.0
H552 H 0.8909 0.78343 0.97439 0.0
H553 H 0.90895 0.79982 0.931 0.0
H554 H 0.99165 0.77231 0.90926 0.0
C555 C 0.99736 0.78198 0.80762 0.0
C556 C 0.93505 0.78194 0.85218 0.0
C557 C 0.00693 0.79186 0.78275 0.0
C558 C 0.90795 0.77148 0.96535 0.0
C559 C 0.91805 0.78069 0.94044 0.0
C560 C 0.97568 0.77494 0.89347 0.0
C561 C 0.97183 0.79223 0.81783 0.0
C562 C 0.96336 0.78475 0.84592 0.0
C563 C 0.939 0.76476 0.92736 0.0
C564 C 0.94742 0.77245 0.8996 0.0
H565 H 0.95192 0.83604 0.76504 0.0
H566 H 0.9356 0.81967 0.80869 0.0
H567 H 0.0055 0.78399 0.86324 0.0
H568 H 0.94825 0.71075 0.97344 0.0
H569 H 0.96667 0.72751 0.9304 0.0
C570 C 0.49176 0.65189 0.2028 0.0
C571 C 0.48547 0.66708 0.22661 0.0
C572 C 0.48333 0.66237 0.17732 0.0
C573 C 0.45473 0.72737 0.14089 0.0
H574 H 0.4351 0.6708 0.08627 0.0
C575 C 0.3929 0.75298 0.04082 0.0
C576 C 0.4033 0.74115 0.01669 0.0
C577 C 0.40482 0.74548 0.06606 0.0
C578 C 0.44082 0.68683 0.10121 0.0
H579 H 0.46513 0.70523 0.2424 0.0
H580 H 0.44905 0.72318 0.19772 0.0
H581 H 0.4507 0.65507 0.13132 0.0
H582 H 0.43425 0.71204 6e-05 0.0
H583 H 0.45468 0.69807 0.04455 0.0
H584 H 0.44338 0.7591 0.11071 0.0
C585 C 0.4614 0.70348 0.1987 0.0
C586 C 0.4499 0.67787 0.12711 0.0
C587 C 0.47044 0.69317 0.22436 0.0
C588 C 0.4259 0.72154 0.01832 0.0
C589 C 0.43751 0.71355 0.04373 0.0
C590 C 0.44514 0.73633 0.11505 0.0
C591 C 0.46754 0.68804 0.17479 0.0
C592 C 0.45722 0.69797 0.14733 0.0
C593 C 0.42704 0.72545 0.06785 0.0
C594 C 0.43823 0.71613 0.09492 0.0
H595 H 0.50306 0.63157 0.20378 0.0
H596 H 0.48922 0.65014 0.15958 0.0
H597 H 0.46048 0.74353 0.15565 0.0
H598 H 0.37525 0.76785 0.04028 0.0
H599 H 0.39608 0.7547 0.08429 0.0
C600 C 0.16257 0.32445 0.39006 0.0
C601 C 0.1352 0.31627 0.3953 0.0
C602 C 0.16869 0.33781 0.36557 0.0
C603 C 0.1419 0.34048 0.29529 0.0
H604 H 0.19831 0.39786 0.28603 0.0
C605 C 0.16137 0.39621 0.19323 0.0
C606 C 0.18903 0.40198 0.18654 0.0
C607 C 0.15533 0.3846 0.21848 0.0
C608 C 0.18278 0.38154 0.28832 0.0
H609 H 0.09238 0.31765 0.38029 0.0
H610 H 0.10293 0.34163 0.33766 0.0
H611 H 0.18532 0.38374 0.33179 0.0
H612 H 0.23219 0.39893 0.20058 0.0
H613 H 0.22157 0.37839 0.24484 0.0
H614 H 0.13931 0.33831 0.25187 0.0
C615 C 0.11978 0.33709 0.35216 0.0
C616 C 0.17524 0.37358 0.3145 0.0
C617 C 0.11368 0.32366 0.37666 0.0
C618 C 0.21068 0.39463 0.20513 0.0
C619 C 0.20459 0.38317 0.23055 0.0
C620 C 0.14938 0.34848 0.26916 0.0
C621 C 0.14751 0.34328 0.34592 0.0
C622 C 0.15467 0.35299 0.31826 0.0
C623 C 0.17679 0.37863 0.23766 0.0
C624 C 0.16988 0.3691 0.2654 0.0
H625 H 0.17956 0.31896 0.40413 0.0
H626 H 0.19026 0.3422 0.36138 0.0
H627 H 0.12647 0.32404 0.29748 0.0
H628 H 0.14423 0.40156 0.1793 0.0
H629 H 0.1337 0.38149 0.22342 0.0
C630 C 0.93478 0.85184 0.6103 0.0
C631 C 0.94224 0.87457 0.62748 0.0
C632 C 0.92188 0.85738 0.58503 0.0
C633 C 0.91527 0.91437 0.53323 0.0
H634 H 0.85589 0.86777 0.50368 0.0
C635 C 0.84626 0.94592 0.43975 0.0
C636 C 0.8364 0.92389 0.423 0.0
C637 C 0.86307 0.93943 0.46259 0.0
C638 C 0.87283 0.88066 0.51141 0.0
H639 H 0.94088 0.92077 0.63254 0.0
H640 H 0.91786 0.93046 0.58862 0.0
H641 H 0.87488 0.85759 0.54905 0.0
H642 H 0.83669 0.87809 0.41608 0.0
H643 H 0.86675 0.86661 0.45559 0.0
H644 H 0.91294 0.93766 0.49565 0.0
C645 C 0.92248 0.9084 0.59437 0.0
C646 C 0.8836 0.8749 0.53749 0.0
C647 C 0.93536 0.90285 0.61962 0.0
C648 C 0.84464 0.89543 0.42849 0.0
C649 C 0.86148 0.88888 0.45127 0.0
C650 C 0.90449 0.92013 0.50712 0.0
C651 C 0.91622 0.88577 0.57652 0.0
C652 C 0.9048 0.89181 0.54877 0.0
C653 C 0.86994 0.91072 0.46917 0.0
C654 C 0.88305 0.90343 0.49597 0.0
H655 H 0.94 0.82985 0.61584 0.0
H656 H 0.91743 0.83949 0.57171 0.0
H657 H 0.93198 0.92744 0.54116 0.0
H658 H 0.83914 0.96787 0.43655 0.0
H659 H 0.8689 0.9567 0.47614 0.0
C660 C 0.31976 0.60487 0.68231 0.0
C661 C 0.31832 0.57604 0.69035 0.0
C662 C 0.31842 0.62679 0.70182 0.0
C663 C 0.29771 0.64119 0.77282 0.0
H664 H 0.35879 0.69437 0.77499 0.0
C665 C 0.33651 0.69248 0.87209 0.0
C666 C 0.34429 0.7213 0.87172 0.0
C667 C 0.32968 0.67841 0.84786 0.0
C668 C 0.34131 0.68003 0.77445 0.0
H669 H 0.31313 0.54745 0.72459 0.0
H670 H 0.31069 0.58528 0.75827 0.0
H671 H 0.35185 0.66388 0.73511 0.0
H672 H 0.3509 0.75819 0.84595 0.0
H673 H 0.3391 0.7335 0.80349 0.0
H674 H 0.28775 0.65648 0.81251 0.0
C675 C 0.3128 0.59122 0.73713 0.0
C676 C 0.33729 0.66265 0.75157 0.0
C677 C 0.31448 0.56951 0.71784 0.0
C678 C 0.34509 0.73587 0.84674 0.0
C679 C 0.33839 0.72176 0.82246 0.0
C680 C 0.30174 0.65849 0.79565 0.0
C681 C 0.31511 0.62008 0.72947 0.0
C682 C 0.31601 0.64238 0.75094 0.0
C683 C 0.33056 0.69288 0.82277 0.0
C684 C 0.32412 0.67743 0.79709 0.0
H685 H 0.32273 0.61038 0.66119 0.0
H686 H 0.3202 0.64889 0.69539 0.0
H687 H 0.28083 0.62609 0.7727 0.0
H688 H 0.33572 0.68079 0.89109 0.0
H689 H 0.32416 0.65602 0.84873 0.0
C690 C 0.57437 0.13653 0.11747 0.0
C691 C 0.56497 0.1153 0.1351 0.0
C692 C 0.58775 0.12887 0.0935 0.0
C693 C 0.62118 0.06752 0.05716 0.0
H694 H 0.5981 0.11092 0.99289 0.0
C695 C 0.64564 0.02844 0.94882 0.0
C696 C 0.65657 0.04897 0.93125 0.0
C697 C 0.6342 0.03679 0.97357 0.0
C698 C 0.60491 0.09873 0.01068 0.0
H699 H 0.56321 0.0695 0.14223 0.0
H700 H 0.58618 0.05605 0.1003 0.0
H701 H 0.58092 0.1253 0.0372 0.0
H702 H 0.66296 0.09453 0.92545 0.0
H703 H 0.6428 0.10902 0.96847 0.0
H704 H 0.64482 0.04068 0.03044 0.0
C705 C 0.58361 0.07863 0.10501 0.0
C706 C 0.5952 0.10705 0.03613 0.0
C707 C 0.57037 0.08632 0.12904 0.0
C708 C 0.65476 0.07813 0.93849 0.0
C709 C 0.64313 0.08647 0.96313 0.0
C710 C 0.63075 0.0591 0.03168 0.0
C711 C 0.59185 0.0998 0.0866 0.0
C712 C 0.60319 0.09154 0.0597 0.0
C713 C 0.63322 0.06585 0.98117 0.0
C714 C 0.62269 0.07458 0.00816 0.0
H715 H 0.57051 0.15905 0.12172 0.0
H716 H 0.59437 0.14574 0.08008 0.0
H717 H 0.62807 0.05531 0.0749 0.0
H718 H 0.64672 0.0058 0.94392 0.0
H719 H 0.62634 0.02044 0.98689 0.0
C720 C 0.63382 0.21182 0.64777 0.0
C721 C 0.63993 0.20262 0.62134 0.0
C722 C 0.63921 0.19388 0.67005 0.0
C723 C 0.64846 0.11852 0.68944 0.0
H724 H 0.68402 0.14906 0.75459 0.0
C725 C 0.6825 0.04426 0.77683 0.0
C726 C 0.67766 0.05335 0.80352 0.0
C727 C 0.67962 0.06339 0.75518 0.0
C728 C 0.67377 0.1403 0.73669 0.0
H729 H 0.65621 0.16743 0.5973 0.0
H730 H 0.66545 0.13567 0.63644 0.0
H731 H 0.67539 0.1802 0.71515 0.0
H732 H 0.6671 0.08973 0.82885 0.0
H733 H 0.66119 0.12347 0.79062 0.0
H734 H 0.64622 0.07887 0.71091 0.0
C735 C 0.65645 0.15684 0.63984 0.0
C736 C 0.66892 0.15809 0.71408 0.0
C737 C 0.65121 0.17495 0.61749 0.0
C738 C 0.67083 0.08227 0.80838 0.0
C739 C 0.66758 0.10151 0.78651 0.0
C740 C 0.65309 0.10083 0.71205 0.0
C741 C 0.65068 0.16625 0.66637 0.0
C742 C 0.65629 0.14733 0.6902 0.0
C743 C 0.67139 0.09206 0.75959 0.0
C744 C 0.66598 0.11141 0.73591 0.0
H745 H 0.62508 0.23308 0.65133 0.0
H746 H 0.63415 0.20155 0.69016 0.0
H747 H 0.63824 0.10978 0.67151 0.0
H748 H 0.68834 0.02216 0.77255 0.0
H749 H 0.68361 0.05555 0.73488 0.0
C750 C 0.14198 0.41395 0.07535 0.0
C751 C 0.16927 0.41547 0.06572 0.0
C752 C 0.12038 0.40438 0.05818 0.0
C753 C 0.10879 0.36362 0.99441 0.0
H754 H 0.04001 0.40837 0.98711 0.0
C755 C 0.02404 0.39349 0.90551 0.0
C756 C 0.0215 0.36665 0.89294 0.0
C757 C 0.03731 0.39579 0.93091 0.0
C758 C 0.05909 0.3956 0.98894 0.0
H759 H 0.19538 0.40869 0.03077 0.0
H760 H 0.15804 0.39241 0.00105 0.0
H761 H 0.07336 0.41929 0.02372 0.0
H762 H 0.02938 0.32095 0.89745 0.0
H763 H 0.05218 0.32479 0.94221 0.0
H764 H 0.09574 0.34125 0.95872 0.0
C765 C 0.15321 0.39792 0.02184 0.0
C766 C 0.07801 0.40165 0.01012 0.0
C767 C 0.17459 0.4075 0.03882 0.0
C768 C 0.0314 0.34194 0.90664 0.0
C769 C 0.04449 0.34419 0.93221 0.0
C770 C 0.09004 0.35772 0.9732 0.0
C771 C 0.1259 0.39605 0.0313 0.0
C772 C 0.10351 0.38639 0.01241 0.0
C773 C 0.04811 0.37122 0.9444 0.0
C774 C 0.0654 0.37427 0.96964 0.0
H775 H 0.1374 0.42004 0.09604 0.0
H776 H 0.09948 0.40322 0.06597 0.0
H777 H 0.12807 0.35114 0.99599 0.0
H778 H 0.01645 0.41288 0.89537 0.0
H779 H 0.0401 0.41699 0.93939 0.0
C780 C 0.84068 0.93404 0.28428 0.0
C781 C 0.81931 0.92241 0.29967 0.0
C782 C 0.84696 0.92275 0.25881 0.0
C783 C 0.81729 0.87687 0.20405 0.0
H784 H 0.89392 0.87258 0.18067 0.0
C785 C 0.84316 0.82633 0.10141 0.0
C786 C 0.86614 0.80722 0.10184 0.0
C787 C 0.83914 0.84545 0.12291 0.0
C788 C 0.87241 0.8735 0.18691 0.0
H789 H 0.78825 0.88933 0.30079 0.0
H790 H 0.79993 0.8688 0.25691 0.0
H791 H 0.88338 0.8936 0.22455 0.0
H792 H 0.90381 0.79406 0.12401 0.0
H793 H 0.89642 0.82652 0.16188 0.0
H794 H 0.80647 0.85512 0.16732 0.0
C795 C 0.81127 0.88728 0.26403 0.0
C796 C 0.8663 0.88591 0.21198 0.0
C797 C 0.80473 0.89886 0.28933 0.0
C798 C 0.88592 0.80866 0.12319 0.0
C799 C 0.88171 0.82743 0.14487 0.0
C800 C 0.82343 0.86412 0.17919 0.0
C801 C 0.83225 0.8993 0.24829 0.0
C802 C 0.8387 0.88738 0.22105 0.0
C803 C 0.8578 0.84544 0.14542 0.0
C804 C 0.85112 0.8619 0.17043 0.0
H805 H 0.8521 0.95243 0.29155 0.0
H806 H 0.86294 0.93284 0.24715 0.0
H807 H 0.79571 0.8782 0.21005 0.0
H808 H 0.82773 0.82575 0.085 0.0
H809 H 0.82089 0.85953 0.12229 0.0
C810 C 0.3452 0.58825 0.55316 0.0
C811 C 0.35087 0.56188 0.56628 0.0
C812 C 0.36076 0.59659 0.53095 0.0
C813 C 0.42689 0.58234 0.49566 0.0
H814 H 0.38627 0.61414 0.43316 0.0
C815 C 0.47544 0.59122 0.39002 0.0
C816 C 0.46891 0.61567 0.37427 0.0
C817 C 0.46208 0.58659 0.4145 0.0
C818 C 0.398 0.60571 0.45058 0.0
H819 H 0.3778 0.52386 0.56662 0.0
H820 H 0.40479 0.53834 0.5277 0.0
H821 H 0.36125 0.6024 0.47412 0.0
H822 H 0.4437 0.65473 0.37178 0.0
H823 H 0.42035 0.64678 0.41482 0.0
H824 H 0.46361 0.58536 0.47196 0.0
C825 C 0.38846 0.55269 0.53479 0.0
C826 C 0.38365 0.59896 0.47406 0.0
C827 C 0.37288 0.54432 0.55703 0.0
C828 C 0.44902 0.63565 0.38355 0.0
C829 C 0.43559 0.63101 0.40808 0.0
C830 C 0.44125 0.58912 0.47217 0.0
C831 C 0.38237 0.57878 0.52132 0.0
C832 C 0.39789 0.58699 0.4968 0.0
C833 C 0.44188 0.60634 0.42376 0.0
C834 C 0.42692 0.60065 0.44927 0.0
H835 H 0.32853 0.60243 0.55981 0.0
H836 H 0.35583 0.61702 0.52128 0.0
H837 H 0.43853 0.57356 0.51298 0.0
H838 H 0.49071 0.57545 0.3833 0.0
H839 H 0.46713 0.56718 0.42586 0.0
C840 C 0.21017 0.16815 0.41526 0.0
C841 C 0.19388 0.19324 0.41085 0.0
C842 C 0.23268 0.16156 0.39854 0.0
C843 C 0.28111 0.19623 0.35148 0.0
H844 H 0.29963 0.11798 0.33084 0.0
C845 C 0.36622 0.16924 0.27368 0.0
C846 C 0.38447 0.14612 0.27998 0.0
C847 C 0.34259 0.17449 0.28923 0.0
C848 C 0.29486 0.13992 0.33664 0.0
H849 H 0.18801 0.23056 0.38473 0.0
H850 H 0.22673 0.21879 0.3554 0.0
H851 H 0.25867 0.1277 0.35823 0.0
H852 H 0.39235 0.11025 0.30732 0.0
H853 H 0.35106 0.1194 0.33457 0.0
H854 H 0.31721 0.20845 0.32981 0.0
C855 C 0.22257 0.20451 0.37214 0.0
C856 C 0.27139 0.1455 0.35237 0.0
C857 C 0.20018 0.21115 0.38889 0.0
C858 C 0.3786 0.12823 0.30202 0.0
C859 C 0.35487 0.13337 0.3175 0.0
C860 C 0.30447 0.19066 0.33568 0.0
C861 C 0.23938 0.17985 0.37697 0.0
C862 C 0.2642 0.17375 0.36 0.0
C863 C 0.33663 0.15663 0.31135 0.0
C864 C 0.31165 0.16245 0.32808 0.0
H865 H 0.206 0.15392 0.43203 0.0
H866 H 0.24531 0.14255 0.40305 0.0
H867 H 0.27659 0.21818 0.35741 0.0
H868 H 0.37022 0.18333 0.25674 0.0
H869 H 0.3288 0.19238 0.28376 0.0
C870 C 0.14296 0.1113 0.54954 0.0
C871 C 0.12671 0.11842 0.52633 0.0
C872 C 0.13658 0.08735 0.56521 0.0
C873 C 0.07732 0.04242 0.58128 0.0
H874 H 0.13338 0.98886 0.61034 0.0
C875 C 0.04677 0.93848 0.6342 0.0
C876 C 0.06166 0.93049 0.65804 0.0
C877 C 0.05602 0.96064 0.61785 0.0
C878 C 0.11753 0.00383 0.60261 0.0
H879 H 0.09171 0.10583 0.50069 0.0
H880 H 0.08064 0.06403 0.52791 0.0
H881 H 0.14752 0.02902 0.58209 0.0
H882 H 0.09827 0.9393 0.68318 0.0
H883 H 0.11419 0.97835 0.65475 0.0
H884 H 0.04735 0.01763 0.60189 0.0
C885 C 0.09807 0.07706 0.53425 0.0
C886 C 0.12563 0.02676 0.58643 0.0
C887 C 0.1045 0.10087 0.51859 0.0
C888 C 0.08631 0.94488 0.66492 0.0
C889 C 0.09553 0.96717 0.64857 0.0
C890 C 0.06926 0.01963 0.59749 0.0
C891 C 0.11376 0.07029 0.55794 0.0
C892 C 0.10555 0.04614 0.57545 0.0
C893 C 0.08031 0.97547 0.625 0.0
C894 C 0.08922 -6e-05 0.60818 0.0
H895 H 0.1602 0.12455 0.5559 0.0
H896 H 0.14893 0.08272 0.58345 0.0
H897 H 0.06144 0.05736 0.57357 0.0
H898 H 0.02782 0.92773 0.62812 0.0
H899 H 0.0441 0.96614 0.59955 0.0
C900 C 0.12421 0.8614 0.80608 0.0
C901 C 0.1247 0.85582 0.77809 0.0
C902 C 0.14775 0.85554 0.82253 0.0
C903 C 0.22382 0.84628 0.82188 0.0
H904 H 0.21294 0.80919 0.89131 0.0
C905 C 0.31445 0.8199 0.9001 0.0
C906 C 0.30819 0.82656 0.92714 0.0
C907 C 0.29337 0.82094 0.87982 0.0
C908 C 0.21634 0.81969 0.87204 0.0
H909 H 0.15012 0.84012 0.74516 0.0
H910 H 0.19152 0.83011 0.77399 0.0
H911 H 0.17344 0.81628 0.85991 0.0
H912 H 0.27534 0.84035 0.9541 0.0
H913 H 0.23908 0.84265 0.91908 0.0
H914 H 0.26669 0.85036 0.83447 0.0
C915 C 0.17293 0.83899 0.78317 0.0
C916 C 0.1937 0.82374 0.85408 0.0
C917 C 0.14925 0.84462 0.76673 0.0
C918 C 0.28081 0.83489 0.93346 0.0
C919 C 0.25991 0.83592 0.9134 0.0
C920 C 0.24655 0.84235 0.83999 0.0
C921 C 0.17232 0.84416 0.81129 0.0
C922 C 0.19704 0.83767 0.82909 0.0
C923 C 0.26578 0.82866 0.8864 0.0
C924 C 0.24286 0.82965 0.86557 0.0
H925 H 0.10556 0.87007 0.81533 0.0
H926 H 0.1468 0.86011 0.84409 0.0
H927 H 0.22698 0.85711 0.80273 0.0
H928 H 0.33554 0.8141 0.89462 0.0
H929 H 0.29855 0.81536 0.85914 0.0
C930 C 0.41953 0.05186 0.17157 0.0
C931 C 0.44786 0.05896 0.17208 0.0
C932 C 0.41089 0.02621 0.15968 0.0
C933 C 0.43468 0.9698 0.1119 0.0
H934 H 0.37446 0.92655 0.14216 0.0
C935 C 0.40676 0.85989 0.06961 0.0
C936 C 0.37878 0.85797 0.06098 0.0
C937 C 0.415 0.88204 0.08685 0.0
C938 C 0.39131 0.93847 0.13358 0.0
H939 H 0.48943 0.04447 0.16117 0.0
H940 H 0.47456 -0.00041 0.14125 0.0
H941 H 0.38936 0.97076 0.16442 0.0
H942 H 0.3371 0.87612 0.06503 0.0
H943 H 0.35153 0.91481 0.0955 0.0
H944 H 0.4368 0.93741 0.08126 0.0
C945 C 0.45882 0.0141 0.14921 0.0
C946 C 0.39973 0.96385 0.14615 0.0
C947 C 0.46738 0.03984 0.16072 0.0
C948 C 0.35883 0.87725 0.07138 0.0
C949 C 0.36705 0.89928 0.08884 0.0
C950 C 0.42652 0.94432 0.09959 0.0
C951 C 0.43046 0.00701 0.14837 0.0
C952 C 0.42147 0.97987 0.13538 0.0
C953 C 0.39535 0.90243 0.09592 0.0
C954 C 0.40473 0.92847 0.11025 0.0
H955 H 0.404 0.06621 0.18014 0.0
H956 H 0.38884 0.02164 0.15903 0.0
H957 H 0.45104 0.98186 0.10264 0.0
H958 H 0.42251 0.84517 0.06197 0.0
H959 H 0.4369 0.88385 0.09233 0.0
C960 C 0.88988 0.39947 0.68014 0.0
C961 C 0.90584 0.37582 0.68962 0.0
C962 C 0.86809 0.39554 0.66127 0.0
C963 C 0.8348 0.34133 0.61587 0.0
H964 H 0.76636 0.37944 0.63819 0.0
C965 C 0.7259 0.29841 0.58983 0.0
C966 C 0.70583 0.31841 0.57994 0.0
C967 C 0.75147 0.30766 0.60026 0.0
C968 C 0.78536 0.36892 0.6315 0.0
H969 H 0.91324 0.33001 0.68551 0.0
H970 H 0.87502 0.32299 0.65319 0.0
H971 H 0.81059 0.39274 0.65931 0.0
H972 H 0.69646 0.36378 0.57387 0.0
H973 H 0.741 0.37987 0.5925 0.0
H974 H 0.80914 0.31661 0.58893 0.0
C975 C 0.8793 0.34462 0.65987 0.0
C976 C 0.81075 0.37667 0.64343 0.0
C977 C 0.90112 0.34859 0.67855 0.0
C978 C 0.71153 0.34784 0.5813 0.0
C979 C 0.73698 0.35708 0.59199 0.0
C980 C 0.80935 0.33341 0.60413 0.0
C981 C 0.86189 0.36788 0.65176 0.0
C982 C 0.83571 0.36257 0.63614 0.0
C983 C 0.75729 0.33706 0.60124 0.0
C984 C 0.78438 0.34679 0.61222 0.0
H985 H 0.8933 0.42073 0.68828 0.0
H986 H 0.8554 0.41397 0.65498 0.0
H987 H 0.85369 0.33039 0.6095 0.0
H988 H 0.72215 0.27559 0.58895 0.0
H989 H 0.76668 0.29183 0.60765 0.0
C990 C 0.93582 0.45984 0.8271 0.0
C991 C 0.938 0.43 0.83038 0.0
C992 C 0.93227 0.47761 0.84947 0.0
C993 C 0.90442 0.48014 0.91741 0.0
H994 H 0.94043 0.55393 0.91768 0.0
C995 C 0.88497 0.57833 0.99148 0.0
C996 C 0.87602 0.60262 0.97643 0.0
C997 C 0.89447 0.55358 0.97811 0.0
C998 C 0.93048 0.53327 0.91804 0.0
H999 H 0.93833 0.39514 0.85957 0.0
H1000 H 0.93189 0.4266 0.89923 0.0
H1001 H 0.95612 0.5165 0.88662 0.0
H1002 H 0.86915 0.61997 0.93587 0.0
H1003 H 0.88621 0.57706 0.91266 0.0
H1004 H 0.87823 0.49764 0.94849 0.0
C1005 C 0.93299 0.43607 0.87917 0.0
C1006 C 0.93937 0.51191 0.90027 0.0
C1007 C 0.93674 0.41815 0.85659 0.0
C1008 C 0.87592 0.60155 0.94795 0.0
C1009 C 0.88576 0.57711 0.93468 0.0
C1010 C 0.89568 0.50156 0.93548 0.0
C1011 C 0.93079 0.46602 0.87575 0.0
C1012 C 0.92559 0.48562 0.89887 0.0
C1013 C 0.89553 0.55316 0.94964 0.0
C1014 C 0.90795 0.52862 0.93504 0.0
H1015 H 0.9367 0.46956 0.80713 0.0
H1016 H 0.93004 0.50052 0.84606 0.0
H1017 H 0.8934 0.4601 0.9167 0.0
H1018 H 0.88527 0.57871 0.0135 0.0
H1019 H 0.90193 0.53525 0.98995 0.0
C1020 C 0.78579 0.68862 0.10078 0.0
C1021 C 0.79578 0.67503 0.07736 0.0
C1022 C 0.76092 0.68006 0.11224 0.0
C1023 C 0.70985 0.6212 0.11232 0.0
H1024 H 0.66197 0.68065 0.14234 0.0
C1025 C 0.61913 0.59685 0.18268 0.0
C1026 C 0.59611 0.61589 0.18324 0.0
C1027 C 0.64158 0.60238 0.16604 0.0
C1028 C 0.67478 0.66378 0.13361 0.0
H1029 H 0.78774 0.64145 0.04783 0.0
H1030 H 0.74407 0.62703 0.06739 0.0
H1031 H 0.70525 0.69367 0.12143 0.0
H1032 H 0.57736 0.65444 0.16554 0.0
H1033 H 0.61618 0.66368 0.13564 0.0
H1034 H 0.67893 0.59139 0.12385 0.0
C1035 C 0.75567 0.64392 0.07728 0.0
C1036 C 0.69994 0.67122 0.12208 0.0
C1037 C 0.78072 0.65226 0.06601 0.0
C1038 C 0.595 0.63954 0.16557 0.0
C1039 C 0.61735 0.64494 0.14867 0.0
C1040 C 0.68451 0.61378 0.12361 0.0
C1041 C 0.74528 0.65796 0.10034 0.0
C1042 C 0.71802 0.64999 0.11168 0.0
C1043 C 0.64133 0.62695 0.14939 0.0
C1044 C 0.66685 0.63494 0.13478 0.0
H1045 H 0.79704 0.70607 0.11016 0.0
H1046 H 0.75392 0.69089 0.13041 0.0
H1047 H 0.7233 0.60424 0.10465 0.0
H1048 H 0.62051 0.57847 0.19618 0.0
H1049 H 0.65973 0.5882 0.16741 0.0
C1050 C 0.64533 0.40105 0.45753 0.0
C1051 C 0.62363 0.38755 0.47088 0.0
C1052 C 0.63993 0.4258 0.44202 0.0
C1053 C 0.6196 0.46348 0.39547 0.0
H1054 H 0.56171 0.5196 0.41259 0.0
C1055 C 0.56769 0.53207 0.3127 0.0
C1056 C 0.56281 0.56145 0.31726 0.0
C1057 C 0.5762 0.51395 0.3339 0.0
C1058 C 0.57819 0.50434 0.40772 0.0
H1059 H 0.57944 0.38956 0.47911 0.0
H1060 H 0.56978 0.43216 0.45139 0.0
H1061 H 0.57563 0.48284 0.44611 0.0
H1062 H 0.56205 0.59487 0.34782 0.0
H1063 H 0.57716 0.56277 0.38546 0.0
H1064 H 0.62224 0.4848 0.3572 0.0
C1065 C 0.59109 0.42414 0.45327 0.0
C1066 C 0.58596 0.48307 0.42676 0.0
C1067 C 0.59655 0.39953 0.46895 0.0
C1068 C 0.56578 0.57228 0.34379 0.0
C1069 C 0.57437 0.55395 0.36525 0.0
C1070 C 0.61193 0.48468 0.37657 0.0
C1071 C 0.61265 0.43742 0.43934 0.0
C1072 C 0.60634 0.46198 0.4206 0.0
C1073 C 0.58018 0.52467 0.36032 0.0
C1074 C 0.59062 0.50486 0.38214 0.0
H1075 H 0.66646 0.3924 0.45894 0.0
H1076 H 0.65714 0.4357 0.43197 0.0
H1077 H 0.63517 0.44755 0.38982 0.0
H1078 H 0.56519 0.52297 0.29256 0.0
H1079 H 0.57972 0.49141 0.32953 0.0
C1080 C 0.31763 0.37349 0.10528 0.0
C1081 C 0.3089 0.39237 0.12576 0.0
C1082 C 0.33529 0.35012 0.11165 0.0
C1083 C 0.35238 0.30215 0.16864 0.0
H1084 H 0.41216 0.27494 0.12295 0.0
C1085 C 0.4271 0.20722 0.19773 0.0
C1086 C 0.43698 0.18993 0.1766 0.0
C1087 C 0.40987 0.23111 0.19191 0.0
C1088 C 0.39522 0.28199 0.13569 0.0
H1089 H 0.31304 0.40286 0.16856 0.0
H1090 H 0.34407 0.36203 0.1797 0.0
H1091 H 0.38803 0.32017 0.1121 0.0
H1092 H 0.43641 0.18307 0.13314 0.0
H1093 H 0.4054 0.22413 0.12288 0.0
H1094 H 0.3593 0.26381 0.19205 0.0
C1095 C 0.33697 0.36507 0.15882 0.0
C1096 C 0.38156 0.30801 0.12956 0.0
C1097 C 0.31945 0.38856 0.1524 0.0
C1098 C 0.42854 0.19596 0.14973 0.0
C1099 C 0.41118 0.21968 0.14389 0.0
C1100 C 0.36595 0.27602 0.1747 0.0
C1101 C 0.3444 0.34517 0.13864 0.0
C1102 C 0.35996 0.31833 0.14593 0.0
C1103 C 0.40244 0.23812 0.16482 0.0
C1104 C 0.38746 0.26557 0.15823 0.0
H1105 H 0.30972 0.37594 0.08459 0.0
H1106 H 0.34058 0.3351 0.09569 0.0
H1107 H 0.33547 0.30934 0.18136 0.0
H1108 H 0.43421 0.20345 0.2185 0.0
H1109 H 0.40381 0.24501 0.20849 0.0
C1110 C 0.90855 0.29467 0.83302 0.0
C1111 C 0.90777 0.30885 0.80778 0.0
C1112 C 0.88924 0.27362 0.8387 0.0
C1113 C 0.84174 0.22299 0.80507 0.0
H1114 H 0.81138 0.21659 0.87721 0.0
C1115 C 0.7598 0.13891 0.83108 0.0
C1116 C 0.76485 0.12361 0.85534 0.0
C1117 C 0.77522 0.16319 0.8253 0.0
C1118 C 0.81981 0.21802 0.85702 0.0
H1119 H 0.88579 0.31227 0.7688 0.0
H1120 H 0.85187 0.27572 0.77889 0.0
H1121 H 0.84195 0.25615 0.86688 0.0
H1122 H 0.78942 0.12175 0.89282 0.0
H1123 H 0.81646 0.16413 0.88273 0.0
H1124 H 0.81977 0.18473 0.7953 0.0
C1125 C 0.86769 0.28065 0.79414 0.0
C1126 C 0.83734 0.24065 0.8511 0.0
C1127 C 0.88706 0.30169 0.78843 0.0
C1128 C 0.78512 0.13324 0.87398 0.0
C1129 C 0.80047 0.15757 0.86826 0.0
C1130 C 0.82415 0.20042 0.81097 0.0
C1131 C 0.86865 0.26628 0.81931 0.0
C1132 C 0.84875 0.24321 0.82515 0.0
C1133 C 0.79587 0.17264 0.84374 0.0
C1134 C 0.81324 0.19753 0.83709 0.0
H1135 H 0.92427 0.29953 0.84838 0.0
H1136 H 0.89084 0.26265 0.85812 0.0
H1137 H 0.8505 0.2241 0.785 0.0
H1138 H 0.7442 0.13192 0.8164 0.0
H1139 H 0.771 0.17455 0.80638 0.0
C1140 C 0.08895 0.52617 0.14099 0.0
C1141 C 0.10131 0.51253 0.11874 0.0
C1142 C 0.06377 0.54155 0.13755 0.0
C1143 C 0.00404 0.55413 0.08877 0.0
H1144 H 0.99834 0.62733 0.12586 0.0
C1145 C 0.92969 0.64705 0.05455 0.0
C1146 C 0.91587 0.66253 0.07488 0.0
C1147 C 0.94946 0.62571 0.06154 0.0
C1148 C -0.00057 0.60676 0.11566 0.0
H1149 H 0.09702 0.50365 0.07565 0.0
H1150 H 0.05361 0.53113 0.06939 0.0
H1151 H 0.03834 0.59562 0.13526 0.0
H1152 H 0.91121 0.66746 0.11836 0.0
H1153 H 0.9461 0.63039 0.1306 0.0
H1154 H 0.96554 0.56604 0.06837 0.0
C1155 C 0.06285 0.52953 0.08964 0.0
C1156 C 0.02233 0.58851 0.12109 0.0
C1157 C 0.08785 0.51396 0.09315 0.0
C1158 C 0.92165 0.65588 0.10229 0.0
C1159 C 0.94164 0.63476 0.1093 0.0
C1160 C 0.98126 0.57255 0.08314 0.0
C1161 C 0.05062 0.5438 0.11174 0.0
C1162 C 0.02511 0.56211 0.10748 0.0
C1163 C 0.95599 0.61973 0.08899 0.0
C1164 C 0.9789 0.59917 0.09633 0.0
H1165 H 0.09886 0.5252 0.16098 0.0
H1166 H 0.05472 0.55183 0.15511 0.0
H1167 H 0.00522 0.53374 0.07829 0.0
H1168 H 0.92573 0.65187 0.03325 0.0
H1169 H 0.9604 0.61465 0.04547 0.0
C1170 C 0.68983 0.87165 0.37614 0.0
C1171 C 0.70092 0.88955 0.3563 0.0
C1172 C 0.67279 0.84884 0.36855 0.0
C1173 C 0.66011 0.79983 0.31156 0.0
H1174 H 0.59328 0.78062 0.3499 0.0
C1175 C 0.5898 0.70627 0.27719 0.0
C1176 C 0.57697 0.69027 0.29748 0.0
C1177 C 0.60431 0.73116 0.28386 0.0
C1178 C 0.61211 0.78539 0.33919 0.0
H1179 H 0.70219 0.89827 0.31306 0.0
H1180 H 0.67255 0.85838 0.2998 0.0
H1181 H 0.6187 0.82352 0.36264 0.0
H1182 H 0.57008 0.68749 0.34084 0.0
H1183 H 0.59601 0.73015 0.35254 0.0
H1184 H 0.65409 0.76143 0.28857 0.0
C1185 C 0.67713 0.86186 0.3212 0.0
C1186 C 0.62659 0.8101 0.34644 0.0
C1187 C 0.69391 0.88482 0.32881 0.0
C1188 C 0.5795 0.6994 0.32464 0.0
C1189 C 0.59422 0.72408 0.33134 0.0
C1190 C 0.6458 0.77497 0.30448 0.0
C1191 C 0.66675 0.84331 0.34095 0.0
C1192 C 0.65078 0.81757 0.33275 0.0
C1193 C 0.60658 0.74053 0.31104 0.0
C1194 C 0.62164 0.76732 0.31825 0.0
H1195 H 0.69499 0.87475 0.39748 0.0
H1196 H 0.66524 0.83484 0.38424 0.0
H1197 H 0.67893 0.80478 0.30088 0.0
H1198 H 0.58808 0.69997 0.25604 0.0
H1199 H 0.61322 0.74339 0.2676 0.0
C1200 C 0.5489 0.32683 0.55225 0.0
C1201 C 0.57619 0.33144 0.56169 0.0
C1202 C 0.52806 0.34735 0.55662 0.0
C1203 C 0.5086 0.39369 0.60966 0.0
H1204 H 0.44746 0.41652 0.56089 0.0
C1205 C 0.40918 0.45266 0.64607 0.0
C1206 C 0.38398 0.44642 0.63252 0.0
C1207 C 0.43426 0.44094 0.63702 0.0
C1208 C 0.46425 0.41003 0.5748 0.0
H1209 H 0.60403 0.36141 0.58126 0.0
H1210 H 0.56694 0.39727 0.59006 0.0
H1211 H 0.4902 0.39596 0.5423 0.0
H1212 H 0.36468 0.42145 0.6004 0.0
H1213 H 0.40842 0.39978 0.5853 0.0
H1214 H 0.48226 0.40595 0.64228 0.0
C1215 C 0.56189 0.37797 0.57889 0.0
C1216 C 0.4888 0.39873 0.5641 0.0
C1217 C 0.58298 0.35763 0.57385 0.0
C1218 C 0.38392 0.42663 0.6111 0.0
C1219 C 0.40898 0.41462 0.60222 0.0
C1220 C 0.48393 0.40465 0.6204 0.0
C1221 C 0.53416 0.37246 0.57105 0.0
C1222 C 0.5109 0.38995 0.5815 0.0
C1223 C 0.4345 0.42249 0.61446 0.0
C1224 C 0.46126 0.41231 0.60311 0.0
H1225 H 0.54342 0.30674 0.54262 0.0
H1226 H 0.50679 0.34254 0.55059 0.0
H1227 H 0.52523 0.38652 0.62348 0.0
H1228 H 0.40975 0.468 0.66261 0.0
H1229 H 0.45351 0.4475 0.64686 0.0
C1230 C 0.19741 0.62496 0.62918 0.0
C1231 C 0.22641 0.62811 0.62971 0.0
C1232 C 0.17997 0.64784 0.63647 0.0
C1233 C 0.17478 0.72557 0.64324 0.0
H1234 H 0.11772 0.70809 0.69506 0.0
C1235 C 0.09619 0.81144 0.68198 0.0
C1236 C 0.06842 0.80252 0.68174 0.0
C1237 C 0.1179 0.7914 0.67835 0.0
C1238 C 0.13347 0.71328 0.68051 0.0
H1239 H 0.26009 0.65761 0.63717 0.0
H1240 H 0.22939 0.69791 0.6496 0.0
H1241 H 0.15077 0.67064 0.68155 0.0
H1242 H 0.04137 0.766 0.67787 0.0
H1243 H 0.07896 0.73126 0.67109 0.0
H1244 H 0.15685 0.76801 0.64151 0.0
C1245 C 0.22023 0.67775 0.64366 0.0
C1246 C 0.15233 0.69187 0.67278 0.0
C1247 C 0.23772 0.65475 0.6366 0.0
C1248 C 0.06265 0.7734 0.67819 0.0
C1249 C 0.08421 0.75347 0.67455 0.0
C1250 C 0.15571 0.74701 0.65082 0.0
C1251 C 0.19126 0.67425 0.64421 0.0
C1252 C 0.17275 0.69766 0.65367 0.0
C1253 C 0.11205 0.76223 0.67446 0.0
C1254 C 0.13449 0.74086 0.66907 0.0
H1255 H 0.18823 0.60461 0.6239 0.0
H1256 H 0.15763 0.64479 0.63637 0.0
H1257 H 0.19039 0.73049 0.62846 0.0
H1258 H 0.10107 0.83389 0.68438 0.0
H1259 H 0.1392 0.79871 0.67847 0.0
C1260 C 0.45162 0.84226 0.95593 0.0
C1261 C 0.44019 0.81765 0.94401 0.0
C1262 C 0.47785 0.85163 0.94831 0.0
C1263 C 0.5283 0.84465 0.89249 0.0
H1264 H 0.57729 0.88275 0.94404 0.0
C1265 C 0.64233 0.90458 0.89935 0.0
C1266 C 0.63952 0.92083 0.87538 0.0
C1267 C 0.62066 0.88706 0.90749 0.0
C1268 C 0.56414 0.8717 0.92945 0.0
H1269 H 0.44776 0.78299 0.91549 0.0
H1270 H 0.4936 0.79881 0.90284 0.0
H1271 H 0.53446 0.86179 0.95971 0.0
H1272 H 0.61268 0.93049 0.84039 0.0
H1273 H 0.5749 0.90056 0.85463 0.0
H1274 H 0.55817 0.85405 0.86233 0.0
C1275 C 0.48207 0.81145 0.91743 0.0
C1276 C 0.53929 0.8601 0.93837 0.0
C1277 C 0.45576 0.80231 0.92476 0.0
C1278 C 0.61543 0.91813 0.85896 0.0
C1279 C 0.59379 0.9008 0.8671 0.0
C1280 C 0.55324 0.85597 0.88364 0.0
C1281 C 0.49337 0.83639 0.92888 0.0
C1282 C 0.52078 0.84693 0.9199 0.0
C1283 C 0.59581 0.88558 0.89179 0.0
C1284 C 0.57119 0.87021 0.90187 0.0
H1285 H 0.44012 0.85456 0.9708 0.0
H1286 H 0.48565 0.87119 0.95726 0.0
H1287 H 0.51451 0.83492 0.87758 0.0
H1288 H 0.66075 0.9063 0.91236 0.0
H1289 H 0.62309 0.87525 0.92639 0.0
C1290 C 0.90153 0.04954 0.36309 0.0
C1291 C 0.89173 0.03073 0.38282 0.0
C1292 C 0.92532 0.06567 0.36832 0.0
C1293 C 0.98667 0.07307 0.41605 0.0
H1294 H 0.98317 0.15169 0.39034 0.0
C1295 C 0.04018 0.18996 0.43692 0.0
C1296 C 0.06878 0.18293 0.43704 0.0
C1297 C 0.02041 0.16947 0.43039 0.0
C1298 C 0.98448 0.12984 0.39785 0.0
H1299 H 0.89934 0.01356 0.42331 0.0
H1300 H 0.94036 0.04234 0.43286 0.0
H1301 H 0.94556 0.11972 0.37873 0.0
H1302 H 0.09919 0.14857 0.4314 0.0
H1303 H 0.06434 0.11239 0.41949 0.0
H1304 H 0.02525 0.08388 0.43615 0.0
C1305 C 0.93013 0.04427 0.41308 0.0
C1306 C 0.96302 0.1113 0.39081 0.0
C1307 C 0.90646 0.02792 0.40771 0.0
C1308 C 0.07724 0.15455 0.4314 0.0
C1309 C 0.05729 0.13388 0.42465 0.0
C1310 C 0.00818 0.09176 0.42323 0.0
C1311 C 0.93972 0.06363 0.39357 0.0
C1312 C 0.96362 0.08271 0.4 0.0
C1313 C 0.02863 0.14134 0.42351 0.0
C1314 C 0.00709 0.12053 0.41456 0.0
H1315 H 0.89071 0.05191 0.34361 0.0
H1316 H 0.93235 0.07987 0.35257 0.0
H1317 H 0.98807 0.05109 0.4232 0.0
H1318 H 0.03298 0.21155 0.44159 0.0
H1319 H -0.00144 0.17582 0.43055 0.0
loop_
_geom_bond_atom_site_label_1
_geom_bond_atom_site_label_2
_geom_bond_distance
_geom_bond_site_symmetry_2
_ccdc_geom_bond_type
Dy0 O4 2.398 . S
Dy0 O5 2.491 . S
Dy0 O6 2.403 . S
Dy0 O7 2.664 . S
Dy0 O11 2.326 . S
Dy0 O15 2.310 . S
Dy0 O16 2.351 . S
C1 O12 1.185 . S
C1 O13 1.355 . S
C2 O4 1.185 . S
C2 O5 1.355 . S
Dy3 O7 2.310 . S
Dy3 O10 2.351 . S
Dy3 O12 2.398 . S
Dy3 O13 2.491 . S
Dy3 O14 2.403 . S
Dy3 O15 2.664 . S
Dy3 O17 2.326 . S
O4 Dy0 2.398 . S
O4 C2 1.185 . S
O5 Dy0 2.491 . S
O5 C2 1.355 . S
O6 Dy0 2.403 . S
O6 C8 1.254 . S
O7 Dy0 2.664 . S
O7 Dy3 2.310 . S
O7 C8 1.268 . S
C8 O6 1.254 . S
C8 O7 1.268 . S
C9 O14 1.254 . S
C9 O15 1.268 . S
O10 Dy3 2.351 . S
O10 C18 1.249 . S
O11 Dy0 2.326 . S
O11 C18 1.267 . S
O12 C1 1.185 . S
O12 Dy3 2.398 . S
O13 C1 1.355 . S
O13 Dy3 2.491 . S
O14 Dy3 2.403 . S
O14 C9 1.254 . S
O15 Dy0 2.310 . S
O15 Dy3 2.664 . S
O15 C9 1.268 . S
O16 Dy0 2.351 . S
O16 C19 1.249 . S
O17 Dy3 2.326 . S
O17 C19 1.267 . S
C18 O10 1.249 . S
C18 O11 1.267 . S
C19 O16 1.249 . S
C19 O17 1.267 . S
Dy20 O24 2.398 . S
Dy20 O25 2.491 . S
Dy20 O26 2.403 1_655 S
Dy20 O27 2.664 1_655 S
Dy20 O31 2.326 1_655 S
Dy20 O35 2.310 1_655 S
Dy20 O36 2.351 . S
C21 O32 1.185 . S
C21 O33 1.355 . S
C22 O24 1.185 . S
C22 O25 1.355 . S
Dy23 O27 2.310 . S
Dy23 O30 2.351 . S
Dy23 O32 2.398 . S
Dy23 O33 2.491 . S
Dy23 O34 2.403 . S
Dy23 O35 2.664 . S
Dy23 O37 2.326 . S
O24 Dy20 2.398 . S
O24 C22 1.185 . S
O25 Dy20 2.491 . S
O25 C22 1.355 . S
O26 Dy20 2.403 1_455 S
O26 C28 1.254 . S
O27 Dy20 2.664 1_455 S
O27 Dy23 2.310 . S
O27 C28 1.268 . S
C28 O26 1.254 . S
C28 O27 1.268 . S
C29 O34 1.247 1_655 S
C29 O35 1.266 1_655 S
O30 Dy23 2.351 . S
O30 C38 1.249 . S
O31 Dy20 2.326 1_455 S
O31 C38 1.267 . S
O32 C21 1.185 . S
O32 Dy23 2.398 . S
O33 C21 1.355 . S
O33 Dy23 2.491 . S
O34 Dy23 2.403 . S
O34 C29 1.247 1_455 S
O35 Dy20 2.310 1_455 S
O35 Dy23 2.664 . S
O35 C29 1.266 1_455 S
O36 Dy20 2.351 . S
O36 C39 1.249 1_655 S
O37 Dy23 2.326 . S
O37 C39 1.267 . S
C38 O30 1.249 . S
C38 O31 1.267 . S
C39 O36 1.249 1_455 S
C39 O37 1.267 . S
Dy40 O44 2.398 1_556 S
Dy40 O45 2.491 1_556 S
Dy40 O46 2.403 . S
Dy40 O47 2.664 . S
Dy40 O51 2.326 . S
Dy40 O55 2.310 . S
Dy40 O56 2.351 . S
C41 O52 1.185 . S
C41 O53 1.355 . S
C42 O44 1.185 . S
C42 O45 1.355 . S
Dy43 O47 2.310 . S
Dy43 O50 2.351 . S
Dy43 O52 2.398 . S
Dy43 O53 2.491 . S
Dy43 O54 2.403 . S
Dy43 O55 2.664 . S
Dy43 O57 2.326 . S
O44 Dy40 2.398 1_554 S
O44 C42 1.185 . S
O45 Dy40 2.491 1_554 S
O45 C42 1.355 . S
O46 Dy40 2.403 . S
O46 C48 1.254 . S
O47 Dy40 2.664 . S
O47 Dy43 2.310 . S
O47 C48 1.268 . S
C48 O46 1.254 . S
C48 O47 1.268 . S
C49 O54 1.254 . S
C49 O55 1.268 . S
O50 Dy43 2.351 . S
O50 C58 1.249 . S
O51 Dy40 2.326 . S
O51 C58 1.267 . S
O52 C41 1.185 . S
O52 Dy43 2.398 . S
O53 C41 1.355 . S
O53 Dy43 2.491 . S
O54 Dy43 2.403 . S
O54 C49 1.254 . S
O55 Dy40 2.310 . S
O55 Dy43 2.664 . S
O55 C49 1.268 . S
O56 Dy40 2.351 . S
O56 C59 1.249 . S
O57 Dy43 2.326 . S
O57 C59 1.267 . S
C58 O50 1.249 . S
C58 O51 1.267 . S
C59 O56 1.249 . S
C59 O57 1.267 . S
Dy60 O64 2.398 . S
Dy60 O65 2.491 . S
Dy60 O66 2.403 . S
Dy60 O67 2.664 . S
Dy60 O71 2.326 . S
Dy60 O75 2.310 . S
Dy60 O76 2.351 . S
C61 O72 1.185 . S
C61 O73 1.355 . S
C62 O64 1.185 . S
C62 O65 1.355 . S
Dy63 O67 2.310 . S
Dy63 O70 2.351 . S
Dy63 O72 2.398 . S
Dy63 O73 2.491 . S
Dy63 O74 2.403 . S
Dy63 O75 2.664 . S
Dy63 O77 2.326 . S
O64 Dy60 2.398 . S
O64 C62 1.185 . S
O65 Dy60 2.491 . S
O65 C62 1.355 . S
O66 Dy60 2.403 . S
O66 C68 1.254 . S
O67 Dy60 2.664 . S
O67 Dy63 2.310 . S
O67 C68 1.268 . S
C68 O66 1.254 . S
C68 O67 1.268 . S
C69 O74 1.254 . S
C69 O75 1.268 . S
O70 Dy63 2.351 . S
O70 C78 1.249 . S
O71 Dy60 2.326 . S
O71 C78 1.267 . S
O72 C61 1.185 . S
O72 Dy63 2.398 . S
O73 C61 1.355 . S
O73 Dy63 2.491 . S
O74 Dy63 2.403 . S
O74 C69 1.254 . S
O75 Dy60 2.310 . S
O75 Dy63 2.664 . S
O75 C69 1.268 . S
O76 Dy60 2.351 . S
O76 C79 1.249 . S
O77 Dy63 2.326 . S
O77 C79 1.267 . S
C78 O70 1.249 . S
C78 O71 1.267 . S
C79 O76 1.249 . S
C79 O77 1.267 . S
Dy80 O84 2.398 . S
Dy80 O85 2.491 . S
Dy80 O86 2.403 . S
Dy80 O87 2.664 . S
Dy80 O91 2.326 . S
Dy80 O95 2.310 . S
Dy80 O96 2.351 . S
C81 O92 1.185 . S
C81 O93 1.355 . S
C82 O84 1.185 . S
C82 O85 1.355 . S
Dy83 O87 2.310 . S
Dy83 O90 2.351 . S
Dy83 O92 2.398 . S
Dy83 O93 2.491 . S
Dy83 O94 2.403 . S
Dy83 O95 2.664 . S
Dy83 O97 2.326 . S
O84 Dy80 2.398 . S
O84 C82 1.185 . S
O85 Dy80 2.491 . S
O85 C82 1.355 . S
O86 Dy80 2.403 . S
O86 C88 1.254 . S
O87 Dy80 2.664 . S
O87 Dy83 2.310 . S
O87 C88 1.268 . S
C88 O86 1.254 . S
C88 O87 1.268 . S
C89 O94 1.254 . S
C89 O95 1.268 . S
O90 Dy83 2.351 . S
O90 C98 1.249 . S
O91 Dy80 2.326 . S
O91 C98 1.267 . S
O92 C81 1.185 . S
O92 Dy83 2.398 . S
O93 C81 1.355 . S
O93 Dy83 2.491 . S
O94 Dy83 2.403 . S
O94 C89 1.254 . S
O95 Dy80 2.310 . S
O95 Dy83 2.664 . S
O95 C89 1.268 . S
O96 Dy80 2.351 . S
O96 C99 1.249 . S
O97 Dy83 2.326 . S
O97 C99 1.267 . S
C98 O90 1.249 . S
C98 O91 1.267 . S
C99 O96 1.249 . S
C99 O97 1.267 . S
Dy100 O104 2.398 . S
Dy100 O105 2.491 . S
Dy100 O106 2.403 . S
Dy100 O107 2.664 . S
Dy100 O111 2.326 . S
Dy100 O115 2.310 . S
Dy100 O116 2.351 . S
C101 O112 1.185 . S
C101 O113 1.355 . S
C102 O104 1.185 . S
C102 O105 1.355 . S
Dy103 O107 2.310 1_455 S
Dy103 O110 2.351 1_455 S
Dy103 O112 2.398 . S
Dy103 O113 2.491 . S
Dy103 O114 2.403 . S
Dy103 O115 2.664 1_455 S
Dy103 O117 2.326 . S
O104 Dy100 2.398 . S
O104 C102 1.185 . S
O105 Dy100 2.491 . S
O105 C102 1.355 . S
O106 Dy100 2.403 . S
O106 C108 1.254 . S
O107 Dy100 2.664 . S
O107 Dy103 2.310 1_655 S
O107 C108 1.268 . S
C108 O106 1.254 . S
C108 O107 1.268 . S
C109 O114 1.254 . S
C109 O115 1.268 1_455 S
O110 Dy103 2.351 1_655 S
O110 C118 1.249 . S
O111 Dy100 2.326 . S
O111 C118 1.267 . S
O112 C101 1.185 . S
O112 Dy103 2.398 . S
O113 C101 1.355 . S
O113 Dy103 2.491 . S
O114 Dy103 2.403 . S
O114 C109 1.254 . S
O115 Dy100 2.310 . S
O115 Dy103 2.664 1_655 S
O115 C109 1.268 1_655 S
O116 Dy100 2.351 . S
O116 C119 1.249 1_655 S
O117 Dy103 2.326 . S
O117 C119 1.267 . S
C118 O110 1.249 . S
C118 O111 1.267 . S
C119 O116 1.249 1_455 S
C119 O117 1.267 . S
Dy120 O124 2.398 . S
Dy120 O125 2.491 . S
Dy120 O126 2.403 . S
Dy120 O127 2.664 . S
Dy120 O131 2.326 . S
Dy120 O135 2.310 . S
Dy120 O136 2.351 . S
C121 O132 1.185 . S
C121 O133 1.355 . S
C122 O124 1.185 . S
C122 O125 1.355 . S
Dy123 O127 2.310 . S
Dy123 O130 2.351 . S
Dy123 O132 2.398 1_554 S
Dy123 O133 2.491 1_554 S
Dy123 O134 2.403 1_554 S
Dy123 O135 2.664 . S
Dy123 O137 2.326 1_554 S
O124 Dy120 2.398 . S
O124 C122 1.185 . S
O125 Dy120 2.491 . S
O125 C122 1.355 . S
O126 Dy120 2.403 . S
O126 C128 1.254 . S
O127 Dy120 2.664 . S
O127 Dy123 2.310 . S
O127 C128 1.268 . S
C128 O126 1.254 . S
C128 O127 1.268 . S
C129 O134 1.254 1_554 S
C129 O135 1.268 . S
O130 Dy123 2.351 . S
O130 C138 1.249 . S
O131 Dy120 2.326 . S
O131 C138 1.267 . S
O132 C121 1.185 . S
O132 Dy123 2.398 1_556 S
O133 C121 1.355 . S
O133 Dy123 2.491 1_556 S
O134 Dy123 2.403 1_556 S
O134 C129 1.254 1_556 S
O135 Dy120 2.310 . S
O135 Dy123 2.664 . S
O135 C129 1.268 . S
O136 Dy120 2.351 . S
O136 C139 1.249 1_554 S
O137 Dy123 2.326 1_556 S
O137 C139 1.267 . S
C138 O130 1.249 . S
C138 O131 1.267 . S
C139 O136 1.249 1_556 S
C139 O137 1.267 . S
Dy140 O144 2.398 . S
Dy140 O145 2.491 . S
Dy140 O146 2.403 . S
Dy140 O147 2.664 . S
Dy140 O151 2.326 . S
Dy140 O155 2.310 . S
Dy140 O156 2.351 . S
C141 O152 1.185 . S
C141 O153 1.355 . S
C142 O144 1.185 . S
C142 O145 1.355 . S
Dy143 O147 2.310 . S
Dy143 O150 2.351 . S
Dy143 O152 2.398 . S
Dy143 O153 2.491 . S
Dy143 O154 2.403 . S
Dy143 O155 2.664 . S
Dy143 O157 2.326 . S
O144 Dy140 2.398 . S
O144 C142 1.185 . S
O145 Dy140 2.491 . S
O145 C142 1.355 . S
O146 Dy140 2.403 . S
O146 C148 1.254 . S
O147 Dy140 2.664 . S
O147 Dy143 2.310 . S
O147 C148 1.268 . S
C148 O146 1.254 . S
C148 O147 1.268 . S
C149 O154 1.254 . S
C149 O155 1.268 . S
O150 Dy143 2.351 . S
O150 C158 1.249 . S
O151 Dy140 2.326 . S
O151 C158 1.267 . S
O152 C141 1.185 . S
O152 Dy143 2.398 . S
O153 C141 1.355 . S
O153 Dy143 2.491 . S
O154 Dy143 2.403 . S
O154 C149 1.254 . S
O155 Dy140 2.310 . S
O155 Dy143 2.664 . S
O155 C149 1.268 . S
O156 Dy140 2.351 . S
O156 C159 1.249 . S
O157 Dy143 2.326 . S
O157 C159 1.267 . S
C158 O150 1.249 . S
C158 O151 1.267 . S
C159 O156 1.249 . S
C159 O157 1.267 . S
Dy160 O164 2.398 . S
Dy160 O165 2.491 . S
Dy160 O166 2.403 . S
Dy160 O167 2.664 . S
Dy160 O171 2.326 . S
Dy160 O175 2.310 . S
Dy160 O176 2.351 . S
C161 O172 1.185 . S
C161 O173 1.355 . S
C162 O164 1.185 . S
C162 O165 1.355 . S
Dy163 O167 2.310 . S
Dy163 O170 2.351 . S
Dy163 O172 2.398 . S
Dy163 O173 2.491 . S
Dy163 O174 2.403 . S
Dy163 O175 2.664 . S
Dy163 O177 2.326 . S
O164 Dy160 2.398 . S
O164 C162 1.185 . S
O165 Dy160 2.491 . S
O165 C162 1.355 . S
O166 Dy160 2.403 . S
O166 C168 1.254 . S
O167 Dy160 2.664 . S
O167 Dy163 2.310 . S
O167 C168 1.268 . S
C168 O166 1.254 . S
C168 O167 1.268 . S
C169 O174 1.254 . S
C169 O175 1.268 . S
O170 Dy163 2.351 . S
O170 C178 1.249 . S
O171 Dy160 2.326 . S
O171 C178 1.267 . S
O172 C161 1.185 . S
O172 Dy163 2.398 . S
O173 C161 1.355 . S
O173 Dy163 2.491 . S
O174 Dy163 2.403 . S
O174 C169 1.254 . S
O175 Dy160 2.310 . S
O175 Dy163 2.664 . S
O175 C169 1.268 . S
O176 Dy160 2.351 . S
O176 C179 1.249 . S
O177 Dy163 2.326 . S
O177 C179 1.267 . S
C178 O170 1.249 . S
C178 O171 1.267 . S
C179 O176 1.249 . S
C179 O177 1.267 . S
Dy180 O184 2.398 1_545 S
Dy180 O185 2.491 1_545 S
Dy180 O186 2.403 . S
Dy180 O187 2.664 . S
Dy180 O191 2.326 . S
Dy180 O195 2.310 . S
Dy180 O196 2.351 . S
C181 O192 1.185 . S
C181 O193 1.355 . S
C182 O184 1.185 . S
C182 O185 1.355 . S
Dy183 O187 2.310 . S
Dy183 O190 2.351 . S
Dy183 O192 2.398 . S
Dy183 O193 2.491 . S
Dy183 O194 2.403 . S
Dy183 O195 2.664 . S
Dy183 O197 2.326 . S
O184 Dy180 2.398 1_565 S
O184 C182 1.185 . S
O185 Dy180 2.491 1_565 S
O185 C182 1.355 . S
O186 Dy180 2.403 . S
O186 C188 1.254 . S
O187 Dy180 2.664 . S
O187 Dy183 2.310 . S
O187 C188 1.268 . S
C188 O186 1.254 . S
C188 O187 1.268 . S
C189 O194 1.254 . S
C189 O195 1.268 . S
O190 Dy183 2.351 . S
O190 C198 1.249 . S
O191 Dy180 2.326 . S
O191 C198 1.267 . S
O192 C181 1.185 . S
O192 Dy183 2.398 . S
O193 C181 1.355 . S
O193 Dy183 2.491 . S
O194 Dy183 2.403 . S
O194 C189 1.254 . S
O195 Dy180 2.310 . S
O195 Dy183 2.664 . S
O195 C189 1.268 . S
O196 Dy180 2.351 . S
O196 C199 1.249 . S
O197 Dy183 2.326 . S
O197 C199 1.267 . S
C198 O190 1.249 . S
C198 O191 1.267 . S
C199 O196 1.249 . S
C199 O197 1.267 . S
Dy200 O204 2.398 . S
Dy200 O205 2.491 . S
Dy200 O206 2.403 . S
Dy200 O207 2.664 . S
Dy200 O211 2.326 . S
Dy200 O215 2.310 . S
Dy200 O216 2.351 . S
C201 O212 1.185 . S
C201 O213 1.355 . S
C202 O204 1.185 . S
C202 O205 1.355 . S
Dy203 O207 2.310 1_545 S
Dy203 O210 2.351 1_545 S
Dy203 O212 2.398 . S
Dy203 O213 2.491 . S
Dy203 O214 2.403 . S
Dy203 O215 2.664 1_545 S
Dy203 O217 2.326 . S
O204 Dy200 2.398 . S
O204 C202 1.185 . S
O205 Dy200 2.491 . S
O205 C202 1.355 . S
O206 Dy200 2.403 . S
O206 C208 1.254 . S
O207 Dy200 2.664 . S
O207 Dy203 2.310 1_565 S
O207 C208 1.268 . S
C208 O206 1.254 . S
C208 O207 1.268 . S
C209 O214 1.254 . S
C209 O215 1.268 1_545 S
O210 Dy203 2.351 1_565 S
O210 C218 1.249 . S
O211 Dy200 2.326 . S
O211 C218 1.267 . S
O212 C201 1.185 . S
O212 Dy203 2.398 . S
O213 C201 1.355 . S
O213 Dy203 2.491 . S
O214 Dy203 2.403 . S
O214 C209 1.254 . S
O215 Dy200 2.310 . S
O215 Dy203 2.664 1_565 S
O215 C209 1.268 1_565 S
O216 Dy200 2.351 . S
O216 C219 1.249 1_565 S
O217 Dy203 2.326 . S
O217 C219 1.267 . S
C218 O210 1.249 . S
C218 O211 1.267 . S
C219 O216 1.249 1_545 S
C219 O217 1.267 . S
Dy220 O224 2.398 . S
Dy220 O225 2.491 . S
Dy220 O226 2.403 . S
Dy220 O227 2.664 . S
Dy220 O231 2.326 . S
Dy220 O235 2.310 . S
Dy220 O236 2.351 . S
C221 O232 1.185 . S
C221 O233 1.355 . S
C222 O224 1.185 . S
C222 O225 1.355 . S
Dy223 O227 2.310 . S
Dy223 O230 2.351 . S
Dy223 O232 2.398 . S
Dy223 O233 2.491 . S
Dy223 O234 2.403 . S
Dy223 O235 2.664 . S
Dy223 O237 2.326 . S
O224 Dy220 2.398 . S
O224 C222 1.185 . S
O225 Dy220 2.491 . S
O225 C222 1.355 . S
O226 Dy220 2.403 . S
O226 C228 1.254 . S
O227 Dy220 2.664 . S
O227 Dy223 2.310 . S
O227 C228 1.268 . S
C228 O226 1.254 . S
C228 O227 1.268 . S
C229 O234 1.254 . S
C229 O235 1.268 . S
O230 Dy223 2.351 . S
O230 C238 1.249 . S
O231 Dy220 2.326 . S
O231 C238 1.267 . S
O232 C221 1.185 . S
O232 Dy223 2.398 . S
O233 C221 1.355 . S
O233 Dy223 2.491 . S
O234 Dy223 2.403 . S
O234 C229 1.254 . S
O235 Dy220 2.310 . S
O235 Dy223 2.664 . S
O235 C229 1.268 . S
O236 Dy220 2.351 . S
O236 C239 1.249 . S
O237 Dy223 2.326 . S
O237 C239 1.267 . S
C238 O230 1.249 . S
C238 O231 1.267 . S
C239 O236 1.249 . S
C239 O237 1.267 . S
C240 C241 1.349 . S
C240 C242 1.327 . S
C240 H265 0.950 . S
C241 C240 1.349 . S
C241 C257 1.349 . S
C242 C240 1.327 . S
C242 C261 1.429 . S
C242 H266 0.950 . S
C243 C260 1.574 . S
C243 C262 1.368 . S
C243 H267 0.949 . S
H244 C248 0.949 . S
C245 C246 1.349 . S
C245 C247 1.327 . S
C245 H268 0.950 . S
C246 C245 1.349 . S
C246 C258 1.349 . S
C247 C245 1.327 . S
C247 C263 1.429 . S
C247 H269 0.950 . S
C248 H244 0.949 . S
C248 C256 1.574 . S
C248 C264 1.368 . S
H249 C257 0.950 . S
H250 C255 0.950 . S
H251 C256 0.949 . S
H252 C258 0.950 . S
H253 C259 0.950 . S
H254 C260 0.949 . S
C255 H250 0.950 . S
C255 C257 1.327 . S
C255 C261 1.429 . S
C256 C248 1.574 . S
C256 H251 0.949 . S
C256 C262 1.368 . S
C257 C241 1.349 . S
C257 H249 0.950 . S
C257 C255 1.327 . S
C258 C246 1.349 . S
C258 H252 0.950 . S
C258 C259 1.327 . S
C259 H253 0.950 . S
C259 C258 1.327 . S
C259 C263 1.429 . S
C260 C243 1.574 . S
C260 H254 0.949 . S
C260 C264 1.368 . S
C261 C242 1.429 . S
C261 C255 1.429 . S
C261 C262 1.523 . S
C262 C243 1.368 . S
C262 C256 1.368 . S
C262 C261 1.523 . S
C263 C247 1.429 . S
C263 C259 1.429 . S
C263 C264 1.523 . S
C264 C248 1.368 . S
C264 C260 1.368 . S
C264 C263 1.523 . S
H265 C240 0.950 . S
H266 C242 0.950 . S
H267 C243 0.949 . S
H268 C245 0.950 . S
H269 C247 0.950 . S
C270 C271 1.349 1_565 S
C270 C272 1.327 . S
C270 H295 0.950 . S
C271 C270 1.349 1_545 S
C271 C287 1.349 . S
C272 C270 1.327 . S
C272 C291 1.429 . S
C272 H296 0.950 . S
C273 C290 1.574 . S
C273 C292 1.368 . S
C273 H297 0.949 1_565 S
H274 C278 0.949 . S
C275 C276 1.349 . S
C275 C277 1.327 . S
C275 H298 0.950 . S
C276 C275 1.349 . S
C276 C288 1.349 . S
C277 C275 1.327 . S
C277 C293 1.429 . S
C277 H299 0.950 . S
C278 H274 0.949 . S
C278 C286 1.574 . S
C278 C294 1.368 . S
H279 C287 0.950 . S
H280 C285 0.950 . S
H281 C286 0.949 . S
H282 C288 0.950 . S
H283 C289 0.950 . S
H284 C290 0.949 . S
C285 H280 0.950 . S
C285 C287 1.327 . S
C285 C291 1.429 1_545 S
C286 C278 1.574 . S
C286 H281 0.949 . S
C286 C292 1.368 . S
C287 C271 1.349 . S
C287 H279 0.950 . S
C287 C285 1.327 . S
C288 C276 1.349 . S
C288 H282 0.950 . S
C288 C289 1.327 . S
C289 H283 0.950 . S
C289 C288 1.327 . S
C289 C293 1.429 . S
C290 C273 1.574 . S
C290 H284 0.949 . S
C290 C294 1.368 . S
C291 C272 1.429 . S
C291 C285 1.429 1_565 S
C291 C292 1.523 . S
C292 C273 1.368 . S
C292 C286 1.368 . S
C292 C291 1.523 . S
C293 C277 1.429 . S
C293 C289 1.429 . S
C293 C294 1.523 . S
C294 C278 1.368 . S
C294 C290 1.368 . S
C294 C293 1.523 . S
H295 C270 0.950 . S
H296 C272 0.950 . S
H297 C273 0.949 1_545 S
H298 C275 0.950 . S
H299 C277 0.950 . S
C300 C301 1.349 . S
C300 C302 1.327 . S
C300 H325 0.950 . S
C301 C300 1.349 . S
C301 C317 1.349 1_556 S
C302 C300 1.327 . S
C302 C321 1.429 1_556 S
C302 H326 0.950 . S
C303 C320 1.574 . S
C303 C322 1.368 . S
C303 H327 0.949 . S
H304 C308 0.940 1_556 S
C305 C306 1.349 . S
C305 C307 1.327 . S
C305 H328 0.950 . S
C306 C305 1.349 . S
C306 C318 1.349 . S
C307 C305 1.327 . S
C307 C323 1.429 . S
C307 H329 0.950 . S
C308 H304 0.940 1_554 S
C308 C316 1.574 1_554 S
C308 C324 1.368 . S
H309 C317 0.950 . S
H310 C315 0.950 . S
H311 C316 0.949 . S
H312 C318 0.950 . S
H313 C319 0.950 . S
H314 C320 0.949 . S
C315 H310 0.950 . S
C315 C317 1.327 . S
C315 C321 1.429 . S
C316 C308 1.574 1_556 S
C316 H311 0.949 . S
C316 C322 1.368 1_556 S
C317 C301 1.349 1_554 S
C317 H309 0.950 . S
C317 C315 1.327 . S
C318 C306 1.349 . S
C318 H312 0.950 . S
C318 C319 1.327 . S
C319 H313 0.950 . S
C319 C318 1.327 . S
C319 C323 1.429 . S
C320 C303 1.574 . S
C320 H314 0.949 . S
C320 C324 1.368 . S
C321 C302 1.429 1_554 S
C321 C315 1.429 . S
C321 C322 1.523 . S
C322 C303 1.368 . S
C322 C316 1.368 1_554 S
C322 C321 1.523 . S
C323 C307 1.429 . S
C323 C319 1.429 . S
C323 C324 1.523 . S
C324 C308 1.368 . S
C324 C320 1.368 . S
C324 C323 1.523 . S
H325 C300 0.950 . S
H326 C302 0.950 . S
H327 C303 0.949 . S
H328 C305 0.950 . S
H329 C307 0.950 . S
C330 C331 1.349 . S
C330 C332 1.327 . S
C330 H355 0.950 . S
C331 C330 1.349 . S
C331 C347 1.349 . S
C332 C330 1.327 . S
C332 C351 1.429 . S
C332 H356 0.950 . S
C333 C350 1.574 . S
C333 C352 1.368 . S
C333 H357 0.949 . S
H334 C338 0.949 . S
C335 C336 1.349 . S
C335 C337 1.327 . S
C335 H358 0.950 . S
C336 C335 1.349 . S
C336 C348 1.349 . S
C337 C335 1.327 . S
C337 C353 1.429 . S
C337 H359 0.950 . S
C338 H334 0.949 . S
C338 C346 1.574 . S
C338 C354 1.368 . S
H339 C347 0.950 . S
H340 C345 0.950 . S
H341 C346 0.949 . S
H342 C348 0.950 1_565 S
H343 C349 0.950 . S
H344 C350 0.949 . S
C345 H340 0.950 . S
C345 C347 1.327 . S
C345 C351 1.429 . S
C346 C338 1.574 . S
C346 H341 0.949 . S
C346 C352 1.368 . S
C347 C331 1.349 . S
C347 H339 0.950 . S
C347 C345 1.327 . S
C348 C336 1.349 . S
C348 H342 0.950 1_545 S
C348 C349 1.327 . S
C349 H343 0.950 . S
C349 C348 1.327 . S
C349 C353 1.429 . S
C350 C333 1.574 . S
C350 H344 0.949 . S
C350 C354 1.368 . S
C351 C332 1.429 . S
C351 C345 1.429 . S
C351 C352 1.523 . S
C352 C333 1.368 . S
C352 C346 1.368 . S
C352 C351 1.523 . S
C353 C337 1.429 . S
C353 C349 1.429 . S
C353 C354 1.523 . S
C354 C338 1.368 . S
C354 C350 1.368 . S
C354 C353 1.523 . S
H355 C330 0.950 . S
H356 C332 0.950 . S
H357 C333 0.949 . S
H358 C335 0.950 . S
H359 C337 0.950 . S
C360 C361 1.349 . S
C360 C362 1.327 . S
C360 H385 0.950 . S
C361 C360 1.349 . S
C361 C377 1.349 . S
C362 C360 1.327 . S
C362 C381 1.429 . S
C362 H386 0.950 . S
C363 C380 1.574 . S
C363 C382 1.368 . S
C363 H387 0.949 . S
H364 C368 0.949 . S
C365 C366 1.349 . S
C365 C367 1.327 . S
C365 H388 0.950 . S
C366 C365 1.349 . S
C366 C378 1.349 . S
C367 C365 1.327 . S
C367 C383 1.429 . S
C367 H389 0.950 . S
C368 H364 0.949 . S
C368 C376 1.574 . S
C368 C384 1.368 . S
H369 C377 0.950 . S
H370 C375 0.950 . S
H371 C376 0.949 . S
H372 C378 0.950 . S
H373 C379 0.950 . S
H374 C380 0.949 . S
C375 H370 0.950 . S
C375 C377 1.327 . S
C375 C381 1.429 . S
C376 C368 1.574 . S
C376 H371 0.949 . S
C376 C382 1.368 . S
C377 C361 1.349 . S
C377 H369 0.950 . S
C377 C375 1.327 . S
C378 C366 1.349 . S
C378 H372 0.950 . S
C378 C379 1.327 . S
C379 H373 0.950 . S
C379 C378 1.327 . S
C379 C383 1.429 . S
C380 C363 1.574 . S
C380 H374 0.949 . S
C380 C384 1.368 . S
C381 C362 1.429 . S
C381 C375 1.429 . S
C381 C382 1.523 . S
C382 C363 1.368 . S
C382 C376 1.368 . S
C382 C381 1.523 . S
C383 C367 1.429 . S
C383 C379 1.429 . S
C383 C384 1.523 . S
C384 C368 1.368 . S
C384 C380 1.368 . S
C384 C383 1.523 . S
H385 C360 0.950 . S
H386 C362 0.950 . S
H387 C363 0.949 . S
H388 C365 0.950 . S
H389 C367 0.950 . S
C390 C391 1.349 . S
C390 C392 1.327 . S
C390 H415 0.950 . S
C391 C390 1.349 . S
C391 C407 1.349 . S
C392 C390 1.327 . S
C392 C411 1.429 . S
C392 H416 0.950 . S
C393 C410 1.574 . S
C393 C412 1.368 . S
C393 H417 0.949 . S
H394 C398 0.949 . S
C395 C396 1.349 . S
C395 C397 1.327 . S
C395 H418 0.950 . S
C396 C395 1.349 . S
C396 C408 1.349 . S
C397 C395 1.327 . S
C397 C413 1.429 . S
C397 H419 0.950 . S
C398 H394 0.949 . S
C398 C406 1.574 . S
C398 C414 1.368 . S
H399 C407 0.950 . S
H400 C405 0.950 . S
H401 C406 0.949 . S
H402 C408 0.950 . S
H403 C409 0.950 . S
H404 C410 0.949 . S
C405 H400 0.950 . S
C405 C407 1.327 . S
C405 C411 1.429 . S
C406 C398 1.574 . S
C406 H401 0.949 . S
C406 C412 1.368 . S
C407 C391 1.349 . S
C407 H399 0.950 . S
C407 C405 1.327 . S
C408 C396 1.349 . S
C408 H402 0.950 . S
C408 C409 1.327 . S
C409 H403 0.950 . S
C409 C408 1.327 . S
C409 C413 1.429 . S
C410 C393 1.574 . S
C410 H404 0.949 . S
C410 C414 1.368 . S
C411 C392 1.429 . S
C411 C405 1.429 . S
C411 C412 1.523 . S
C412 C393 1.368 . S
C412 C406 1.368 . S
C412 C411 1.523 . S
C413 C397 1.429 . S
C413 C409 1.429 . S
C413 C414 1.523 . S
C414 C398 1.368 . S
C414 C410 1.368 . S
C414 C413 1.523 . S
H415 C390 0.950 . S
H416 C392 0.950 . S
H417 C393 0.949 . S
H418 C395 0.950 . S
H419 C397 0.950 . S
C420 C421 1.349 . S
C420 C422 1.327 . S
C420 H445 0.950 . S
C421 C420 1.349 . S
C421 C437 1.349 . S
C422 C420 1.327 . S
C422 C441 1.429 . S
C422 H446 0.950 . S
C423 C440 1.574 . S
C423 C442 1.368 . S
C423 H447 0.949 . S
H424 C428 0.949 1_554 S
C425 C426 1.349 1_556 S
C425 C427 1.327 . S
C425 H448 0.950 . S
C426 C425 1.349 1_554 S
C426 C438 1.349 . S
C427 C425 1.327 . S
C427 C443 1.429 . S
C427 H449 0.950 . S
C428 H424 0.949 1_556 S
C428 C436 1.574 . S
C428 C444 1.368 . S
H429 C437 0.950 . S
H430 C435 0.950 . S
H431 C436 0.949 . S
H432 C438 0.950 . S
H433 C439 0.950 . S
H434 C440 0.949 . S
C435 H430 0.950 . S
C435 C437 1.327 . S
C435 C441 1.429 . S
C436 C428 1.574 . S
C436 H431 0.949 . S
C436 C442 1.368 . S
C437 C421 1.349 . S
C437 H429 0.950 . S
C437 C435 1.327 . S
C438 C426 1.349 . S
C438 H432 0.950 . S
C438 C439 1.327 . S
C439 H433 0.950 . S
C439 C438 1.327 . S
C439 C443 1.429 1_554 S
C440 C423 1.574 . S
C440 H434 0.949 . S
C440 C444 1.368 . S
C441 C422 1.429 . S
C441 C435 1.429 . S
C441 C442 1.523 . S
C442 C423 1.368 . S
C442 C436 1.368 . S
C442 C441 1.523 . S
C443 C427 1.429 . S
C443 C439 1.429 1_556 S
C443 C444 1.523 . S
C444 C428 1.368 . S
C444 C440 1.368 . S
C444 C443 1.523 . S
H445 C420 0.950 . S
H446 C422 0.950 . S
H447 C423 0.949 . S
H448 C425 0.950 . S
H449 C427 0.950 . S
C450 C451 1.349 . S
C450 C452 1.327 . S
C450 H475 0.950 . S
C451 C450 1.349 . S
C451 C467 1.349 . S
C452 C450 1.327 . S
C452 C471 1.429 . S
C452 H476 0.950 . S
C453 C470 1.574 . S
C453 C472 1.368 . S
C453 H477 0.949 . S
H454 C458 0.949 . S
C455 C456 1.349 . S
C455 C457 1.327 . S
C455 H478 0.950 . S
C456 C455 1.349 . S
C456 C468 1.349 . S
C457 C455 1.327 . S
C457 C473 1.429 . S
C457 H479 0.950 . S
C458 H454 0.949 . S
C458 C466 1.574 . S
C458 C474 1.368 . S
H459 C467 0.950 . S
H460 C465 0.950 . S
H461 C466 0.949 . S
H462 C468 0.950 . S
H463 C469 0.950 . S
H464 C470 0.949 . S
C465 H460 0.950 . S
C465 C467 1.327 . S
C465 C471 1.429 . S
C466 C458 1.574 . S
C466 H461 0.949 . S
C466 C472 1.368 . S
C467 C451 1.349 . S
C467 H459 0.950 . S
C467 C465 1.327 . S
C468 C456 1.349 . S
C468 H462 0.950 . S
C468 C469 1.327 . S
C469 H463 0.950 . S
C469 C468 1.327 . S
C469 C473 1.429 . S
C470 C453 1.574 . S
C470 H464 0.949 . S
C470 C474 1.368 . S
C471 C452 1.429 . S
C471 C465 1.429 . S
C471 C472 1.523 . S
C472 C453 1.368 . S
C472 C466 1.368 . S
C472 C471 1.523 . S
C473 C457 1.429 . S
C473 C469 1.429 . S
C473 C474 1.523 . S
C474 C458 1.368 . S
C474 C470 1.368 . S
C474 C473 1.523 . S
H475 C450 0.950 . S
H476 C452 0.950 . S
H477 C453 0.949 . S
H478 C455 0.950 . S
H479 C457 0.950 . S
C480 C481 1.349 . S
C480 C482 1.327 . S
C480 H505 0.950 . S
C481 C480 1.349 . S
C481 C497 1.349 . S
C482 C480 1.327 . S
C482 C501 1.429 . S
C482 H506 0.950 . S
C483 C500 1.574 . S
C483 C502 1.368 . S
C483 H507 0.949 . S
H484 C488 0.949 . S
C485 C486 1.349 . S
C485 C487 1.327 . S
C485 H508 0.950 . S
C486 C485 1.349 . S
C486 C498 1.349 . S
C487 C485 1.327 . S
C487 C503 1.429 . S
C487 H509 0.950 . S
C488 H484 0.949 . S
C488 C496 1.574 . S
C488 C504 1.368 . S
H489 C497 0.950 . S
H490 C495 0.950 . S
H491 C496 0.949 . S
H492 C498 0.950 . S
H493 C499 0.950 . S
H494 C500 0.949 . S
C495 H490 0.950 . S
C495 C497 1.327 . S
C495 C501 1.429 . S
C496 C488 1.574 . S
C496 H491 0.949 . S
C496 C502 1.368 . S
C497 C481 1.349 . S
C497 H489 0.950 . S
C497 C495 1.327 . S
C498 C486 1.349 . S
C498 H492 0.950 . S
C498 C499 1.327 . S
C499 H493 0.950 . S
C499 C498 1.327 . S
C499 C503 1.429 . S
C500 C483 1.574 . S
C500 H494 0.949 . S
C500 C504 1.368 . S
C501 C482 1.429 . S
C501 C495 1.429 . S
C501 C502 1.523 . S
C502 C483 1.368 . S
C502 C496 1.368 . S
C502 C501 1.523 . S
C503 C487 1.429 . S
C503 C499 1.429 . S
C503 C504 1.523 . S
C504 C488 1.368 . S
C504 C500 1.368 . S
C504 C503 1.523 . S
H505 C480 0.950 . S
H506 C482 0.950 . S
H507 C483 0.949 . S
H508 C485 0.950 . S
H509 C487 0.950 . S
C510 C511 1.349 . S
C510 C512 1.327 . S
C510 H535 0.950 . S
C511 C510 1.349 . S
C511 C527 1.349 . S
C512 C510 1.327 . S
C512 C531 1.429 . S
C512 H536 0.950 . S
C513 C530 1.574 . S
C513 C532 1.368 . S
C513 H537 0.949 . S
H514 C518 0.949 . S
C515 C516 1.349 . S
C515 C517 1.327 . S
C515 H538 0.950 . S
C516 C515 1.349 . S
C516 C528 1.349 . S
C517 C515 1.327 . S
C517 C533 1.429 . S
C517 H539 0.950 . S
C518 H514 0.949 . S
C518 C526 1.574 . S
C518 C534 1.368 . S
H519 C527 0.950 . S
H520 C525 0.950 . S
H521 C526 0.949 . S
H522 C528 0.950 1_655 S
H523 C529 0.950 . S
H524 C530 0.949 . S
C525 H520 0.950 . S
C525 C527 1.327 . S
C525 C531 1.429 . S
C526 C518 1.574 . S
C526 H521 0.949 . S
C526 C532 1.368 . S
C527 C511 1.349 . S
C527 H519 0.950 . S
C527 C525 1.327 . S
C528 C516 1.349 . S
C528 H522 0.950 1_455 S
C528 C529 1.327 . S
C529 H523 0.950 . S
C529 C528 1.327 . S
C529 C533 1.429 . S
C530 C513 1.574 . S
C530 H524 0.949 . S
C530 C534 1.368 . S
C531 C512 1.429 . S
C531 C525 1.429 . S
C531 C532 1.523 . S
C532 C513 1.368 . S
C532 C526 1.368 . S
C532 C531 1.523 . S
C533 C517 1.429 . S
C533 C529 1.429 . S
C533 C534 1.523 . S
C534 C518 1.368 . S
C534 C530 1.368 . S
C534 C533 1.523 . S
H535 C510 0.950 . S
H536 C512 0.950 . S
H537 C513 0.949 . S
H538 C515 0.950 . S
H539 C517 0.950 . S
C540 C541 1.349 1_655 S
C540 C542 1.327 . S
C540 H565 0.950 . S
C541 C540 1.349 1_455 S
C541 C557 1.349 . S
C542 C540 1.327 . S
C542 C561 1.429 . S
C542 H566 0.950 . S
C543 C560 1.574 1_455 S
C543 C562 1.368 1_455 S
C543 H567 0.949 . S
H544 C548 0.949 . S
C545 C546 1.349 . S
C545 C547 1.327 . S
C545 H568 0.950 . S
C546 C545 1.349 . S
C546 C558 1.349 . S
C547 C545 1.327 . S
C547 C563 1.429 . S
C547 H569 0.950 . S
C548 H544 0.949 . S
C548 C556 1.574 . S
C548 C564 1.368 . S
H549 C557 0.950 . S
H550 C555 0.950 . S
H551 C556 0.949 . S
H552 C558 0.950 . S
H553 C559 0.950 . S
H554 C560 0.949 1_455 S
C555 H550 0.950 . S
C555 C557 1.327 . S
C555 C561 1.429 1_455 S
C556 C548 1.574 . S
C556 H551 0.949 . S
C556 C562 1.368 . S
C557 C541 1.349 . S
C557 H549 0.950 . S
C557 C555 1.327 . S
C558 C546 1.349 . S
C558 H552 0.950 . S
C558 C559 1.327 . S
C559 H553 0.950 . S
C559 C558 1.327 . S
C559 C563 1.429 . S
C560 C543 1.574 1_655 S
C560 H554 0.949 1_655 S
C560 C564 1.368 . S
C561 C542 1.429 . S
C561 C555 1.429 1_655 S
C561 C562 1.523 . S
C562 C543 1.368 1_655 S
C562 C556 1.368 . S
C562 C561 1.523 . S
C563 C547 1.429 . S
C563 C559 1.429 . S
C563 C564 1.523 . S
C564 C548 1.368 . S
C564 C560 1.368 . S
C564 C563 1.523 . S
H565 C540 0.950 . S
H566 C542 0.950 . S
H567 C543 0.949 . S
H568 C545 0.950 . S
H569 C547 0.950 . S
C570 C571 1.349 . S
C570 C572 1.327 . S
C570 H595 0.950 . S
C571 C570 1.349 . S
C571 C587 1.349 . S
C572 C570 1.327 . S
C572 C591 1.429 . S
C572 H596 0.950 . S
C573 C590 1.574 . S
C573 C592 1.368 . S
C573 H597 0.949 . S
H574 C578 0.949 . S
C575 C576 1.349 . S
C575 C577 1.327 . S
C575 H598 0.950 . S
C576 C575 1.349 . S
C576 C588 1.349 . S
C577 C575 1.327 . S
C577 C593 1.429 . S
C577 H599 0.950 . S
C578 H574 0.949 . S
C578 C586 1.574 . S
C578 C594 1.368 . S
H579 C587 0.950 . S
H580 C585 0.950 . S
H581 C586 0.949 . S
H582 C588 0.950 . S
H583 C589 0.950 . S
H584 C590 0.949 . S
C585 H580 0.950 . S
C585 C587 1.327 . S
C585 C591 1.429 . S
C586 C578 1.574 . S
C586 H581 0.949 . S
C586 C592 1.368 . S
C587 C571 1.349 . S
C587 H579 0.950 . S
C587 C585 1.327 . S
C588 C576 1.349 . S
C588 H582 0.950 . S
C588 C589 1.327 . S
C589 H583 0.950 . S
C589 C588 1.327 . S
C589 C593 1.429 . S
C590 C573 1.574 . S
C590 H584 0.949 . S
C590 C594 1.368 . S
C591 C572 1.429 . S
C591 C585 1.429 . S
C591 C592 1.523 . S
C592 C573 1.368 . S
C592 C586 1.368 . S
C592 C591 1.523 . S
C593 C577 1.429 . S
C593 C589 1.429 . S
C593 C594 1.523 . S
C594 C578 1.368 . S
C594 C590 1.368 . S
C594 C593 1.523 . S
H595 C570 0.950 . S
H596 C572 0.950 . S
H597 C573 0.949 . S
H598 C575 0.950 . S
H599 C577 0.950 . S
C600 C601 1.349 . S
C600 C602 1.327 . S
C600 H625 0.950 . S
C601 C600 1.349 . S
C601 C617 1.349 . S
C602 C600 1.327 . S
C602 C621 1.429 . S
C602 H626 0.950 . S
C603 C620 1.574 . S
C603 C622 1.368 . S
C603 H627 0.949 . S
H604 C608 0.949 . S
C605 C606 1.349 . S
C605 C607 1.327 . S
C605 H628 0.950 . S
C606 C605 1.349 . S
C606 C618 1.349 . S
C607 C605 1.327 . S
C607 C623 1.429 . S
C607 H629 0.950 . S
C608 H604 0.949 . S
C608 C616 1.574 . S
C608 C624 1.368 . S
H609 C617 0.950 . S
H610 C615 0.950 . S
H611 C616 0.949 . S
H612 C618 0.950 . S
H613 C619 0.950 . S
H614 C620 0.949 . S
C615 H610 0.950 . S
C615 C617 1.327 . S
C615 C621 1.429 . S
C616 C608 1.574 . S
C616 H611 0.949 . S
C616 C622 1.368 . S
C617 C601 1.349 . S
C617 H609 0.950 . S
C617 C615 1.327 . S
C618 C606 1.349 . S
C618 H612 0.950 . S
C618 C619 1.327 . S
C619 H613 0.950 . S
C619 C618 1.327 . S
C619 C623 1.429 . S
C620 C603 1.574 . S
C620 H614 0.949 . S
C620 C624 1.368 . S
C621 C602 1.429 . S
C621 C615 1.429 . S
C621 C622 1.523 . S
C622 C603 1.368 . S
C622 C616 1.368 . S
C622 C621 1.523 . S
C623 C607 1.429 . S
C623 C619 1.429 . S
C623 C624 1.523 . S
C624 C608 1.368 . S
C624 C620 1.368 . S
C624 C623 1.523 . S
H625 C600 0.950 . S
H626 C602 0.950 . S
H627 C603 0.949 . S
H628 C605 0.950 . S
H629 C607 0.950 . S
C630 C631 1.349 . S
C630 C632 1.327 . S
C630 H655 0.950 . S
C631 C630 1.349 . S
C631 C647 1.349 . S
C632 C630 1.327 . S
C632 C651 1.429 . S
C632 H656 0.950 . S
C633 C650 1.574 . S
C633 C652 1.368 . S
C633 H657 0.949 . S
H634 C638 0.949 . S
C635 C636 1.349 . S
C635 C637 1.327 . S
C635 H658 0.950 . S
C636 C635 1.349 . S
C636 C648 1.349 . S
C637 C635 1.327 . S
C637 C653 1.429 . S
C637 H659 0.950 . S
C638 H634 0.949 . S
C638 C646 1.574 . S
C638 C654 1.368 . S
H639 C647 0.950 . S
H640 C645 0.950 . S
H641 C646 0.949 . S
H642 C648 0.950 . S
H643 C649 0.950 . S
H644 C650 0.949 . S
C645 H640 0.950 . S
C645 C647 1.327 . S
C645 C651 1.429 . S
C646 C638 1.574 . S
C646 H641 0.949 . S
C646 C652 1.368 . S
C647 C631 1.349 . S
C647 H639 0.950 . S
C647 C645 1.327 . S
C648 C636 1.349 . S
C648 H642 0.950 . S
C648 C649 1.327 . S
C649 H643 0.950 . S
C649 C648 1.327 . S
C649 C653 1.429 . S
C650 C633 1.574 . S
C650 H644 0.949 . S
C650 C654 1.368 . S
C651 C632 1.429 . S
C651 C645 1.429 . S
C651 C652 1.523 . S
C652 C633 1.368 . S
C652 C646 1.368 . S
C652 C651 1.523 . S
C653 C637 1.429 . S
C653 C649 1.429 . S
C653 C654 1.523 . S
C654 C638 1.368 . S
C654 C650 1.368 . S
C654 C653 1.523 . S
H655 C630 0.950 . S
H656 C632 0.950 . S
H657 C633 0.949 . S
H658 C635 0.950 . S
H659 C637 0.950 . S
C660 C661 1.349 . S
C660 C662 1.327 . S
C660 H685 0.950 . S
C661 C660 1.349 . S
C661 C677 1.349 . S
C662 C660 1.327 . S
C662 C681 1.429 . S
C662 H686 0.950 . S
C663 C680 1.574 . S
C663 C682 1.368 . S
C663 H687 0.949 . S
H664 C668 0.949 . S
C665 C666 1.349 . S
C665 C667 1.327 . S
C665 H688 0.950 . S
C666 C665 1.349 . S
C666 C678 1.349 . S
C667 C665 1.327 . S
C667 C683 1.429 . S
C667 H689 0.950 . S
C668 H664 0.949 . S
C668 C676 1.574 . S
C668 C684 1.368 . S
H669 C677 0.950 . S
H670 C675 0.950 . S
H671 C676 0.949 . S
H672 C678 0.950 . S
H673 C679 0.950 . S
H674 C680 0.949 . S
C675 H670 0.950 . S
C675 C677 1.327 . S
C675 C681 1.429 . S
C676 C668 1.574 . S
C676 H671 0.949 . S
C676 C682 1.368 . S
C677 C661 1.349 . S
C677 H669 0.950 . S
C677 C675 1.327 . S
C678 C666 1.349 . S
C678 H672 0.950 . S
C678 C679 1.327 . S
C679 H673 0.950 . S
C679 C678 1.327 . S
C679 C683 1.429 . S
C680 C663 1.574 . S
C680 H674 0.949 . S
C680 C684 1.368 . S
C681 C662 1.429 . S
C681 C675 1.429 . S
C681 C682 1.523 . S
C682 C663 1.368 . S
C682 C676 1.368 . S
C682 C681 1.523 . S
C683 C667 1.429 . S
C683 C679 1.429 . S
C683 C684 1.523 . S
C684 C668 1.368 . S
C684 C680 1.368 . S
C684 C683 1.523 . S
H685 C660 0.950 . S
H686 C662 0.950 . S
H687 C663 0.949 . S
H688 C665 0.950 . S
H689 C667 0.950 . S
C690 C691 1.349 . S
C690 C692 1.327 . S
C690 H715 0.950 . S
C691 C690 1.349 . S
C691 C707 1.349 . S
C692 C690 1.327 . S
C692 C711 1.429 . S
C692 H716 0.950 . S
C693 C710 1.574 . S
C693 C712 1.368 . S
C693 H717 0.949 . S
H694 C698 0.949 . S
C695 C696 1.349 . S
C695 C697 1.327 . S
C695 H718 0.950 . S
C696 C695 1.349 . S
C696 C708 1.349 . S
C697 C695 1.327 . S
C697 C713 1.429 . S
C697 H719 0.950 . S
C698 H694 0.949 . S
C698 C706 1.574 1_556 S
C698 C714 1.368 . S
H699 C707 0.950 . S
H700 C705 0.950 . S
H701 C706 0.949 . S
H702 C708 0.950 . S
H703 C709 0.950 . S
H704 C710 0.949 . S
C705 H700 0.950 . S
C705 C707 1.327 . S
C705 C711 1.429 . S
C706 C698 1.574 1_554 S
C706 H701 0.949 . S
C706 C712 1.368 . S
C707 C691 1.349 . S
C707 H699 0.950 . S
C707 C705 1.327 . S
C708 C696 1.349 . S
C708 H702 0.950 . S
C708 C709 1.327 . S
C709 H703 0.950 . S
C709 C708 1.327 . S
C709 C713 1.429 . S
C710 C693 1.574 . S
C710 H704 0.949 . S
C710 C714 1.368 1_554 S
C711 C692 1.429 . S
C711 C705 1.429 . S
C711 C712 1.523 . S
C712 C693 1.368 . S
C712 C706 1.368 . S
C712 C711 1.523 . S
C713 C697 1.429 . S
C713 C709 1.429 . S
C713 C714 1.523 . S
C714 C698 1.368 . S
C714 C710 1.368 1_556 S
C714 C713 1.523 . S
H715 C690 0.950 . S
H716 C692 0.950 . S
H717 C693 0.949 . S
H718 C695 0.950 . S
H719 C697 0.950 . S
C720 C721 1.349 . S
C720 C722 1.327 . S
C720 H745 0.950 . S
C721 C720 1.349 . S
C721 C737 1.349 . S
C722 C720 1.327 . S
C722 C741 1.429 . S
C722 H746 0.950 . S
C723 C740 1.574 . S
C723 C742 1.368 . S
C723 H747 0.949 . S
H724 C728 0.949 . S
C725 C726 1.349 . S
C725 C727 1.327 . S
C725 H748 0.950 . S
C726 C725 1.349 . S
C726 C738 1.349 . S
C727 C725 1.327 . S
C727 C743 1.429 . S
C727 H749 0.950 . S
C728 H724 0.949 . S
C728 C736 1.574 . S
C728 C744 1.368 . S
H729 C737 0.950 . S
H730 C735 0.950 . S
H731 C736 0.949 . S
H732 C738 0.950 . S
H733 C739 0.950 . S
H734 C740 0.949 . S
C735 H730 0.950 . S
C735 C737 1.327 . S
C735 C741 1.429 . S
C736 C728 1.574 . S
C736 H731 0.949 . S
C736 C742 1.368 . S
C737 C721 1.349 . S
C737 H729 0.950 . S
C737 C735 1.327 . S
C738 C726 1.349 . S
C738 H732 0.950 . S
C738 C739 1.327 . S
C739 H733 0.950 . S
C739 C738 1.327 . S
C739 C743 1.429 . S
C740 C723 1.574 . S
C740 H734 0.949 . S
C740 C744 1.368 . S
C741 C722 1.429 . S
C741 C735 1.429 . S
C741 C742 1.523 . S
C742 C723 1.368 . S
C742 C736 1.368 . S
C742 C741 1.523 . S
C743 C727 1.429 . S
C743 C739 1.429 . S
C743 C744 1.523 . S
C744 C728 1.368 . S
C744 C740 1.368 . S
C744 C743 1.523 . S
H745 C720 0.950 . S
H746 C722 0.950 . S
H747 C723 0.949 . S
H748 C725 0.950 . S
H749 C727 0.950 . S
C750 C751 1.349 . S
C750 C752 1.327 . S
C750 H775 0.950 . S
C751 C750 1.349 . S
C751 C767 1.349 . S
C752 C750 1.327 . S
C752 C771 1.429 . S
C752 H776 0.950 . S
C753 C770 1.574 . S
C753 C772 1.368 . S
C753 H777 0.949 . S
H754 C758 0.949 . S
C755 C756 1.349 . S
C755 C757 1.327 . S
C755 H778 0.950 . S
C756 C755 1.349 . S
C756 C768 1.349 . S
C757 C755 1.327 . S
C757 C773 1.429 . S
C757 H779 0.950 . S
C758 H754 0.949 . S
C758 C766 1.574 . S
C758 C774 1.368 . S
H759 C767 0.950 . S
H760 C765 0.962 . S
H761 C766 0.949 1_554 S
H762 C768 0.950 . S
H763 C769 0.950 . S
H764 C770 0.949 . S
C765 H760 0.962 . S
C765 C767 1.327 . S
C765 C771 1.429 . S
C766 C758 1.574 . S
C766 H761 0.949 1_556 S
C766 C772 1.368 . S
C767 C751 1.349 . S
C767 H759 0.950 . S
C767 C765 1.327 . S
C768 C756 1.349 . S
C768 H762 0.950 . S
C768 C769 1.327 . S
C769 H763 0.950 . S
C769 C768 1.327 . S
C769 C773 1.429 . S
C770 C753 1.574 . S
C770 H764 0.949 . S
C770 C774 1.368 . S
C771 C752 1.429 . S
C771 C765 1.429 . S
C771 C772 1.523 1_554 S
C772 C753 1.368 . S
C772 C766 1.368 . S
C772 C771 1.523 1_556 S
C773 C757 1.429 . S
C773 C769 1.429 . S
C773 C774 1.523 . S
C774 C758 1.368 . S
C774 C770 1.368 . S
C774 C773 1.523 . S
H775 C750 0.950 . S
H776 C752 0.950 . S
H777 C753 0.949 . S
H778 C755 0.950 . S
H779 C757 0.950 . S
C780 C781 1.349 . S
C780 C782 1.327 . S
C780 H805 0.950 . S
C781 C780 1.349 . S
C781 C797 1.349 . S
C782 C780 1.327 . S
C782 C801 1.429 . S
C782 H806 0.950 . S
C783 C800 1.574 . S
C783 C802 1.368 . S
C783 H807 0.949 . S
H784 C788 0.949 . S
C785 C786 1.349 . S
C785 C787 1.327 . S
C785 H808 0.950 . S
C786 C785 1.349 . S
C786 C798 1.349 . S
C787 C785 1.327 . S
C787 C803 1.429 . S
C787 H809 0.950 . S
C788 H784 0.949 . S
C788 C796 1.574 . S
C788 C804 1.368 . S
H789 C797 0.950 . S
H790 C795 0.950 . S
H791 C796 0.949 . S
H792 C798 0.950 . S
H793 C799 0.950 . S
H794 C800 0.949 . S
C795 H790 0.950 . S
C795 C797 1.327 . S
C795 C801 1.429 . S
C796 C788 1.574 . S
C796 H791 0.949 . S
C796 C802 1.368 . S
C797 C781 1.349 . S
C797 H789 0.950 . S
C797 C795 1.327 . S
C798 C786 1.349 . S
C798 H792 0.950 . S
C798 C799 1.327 . S
C799 H793 0.950 . S
C799 C798 1.327 . S
C799 C803 1.429 . S
C800 C783 1.574 . S
C800 H794 0.949 . S
C800 C804 1.368 . S
C801 C782 1.429 . S
C801 C795 1.429 . S
C801 C802 1.523 . S
C802 C783 1.368 . S
C802 C796 1.368 . S
C802 C801 1.523 . S
C803 C787 1.429 . S
C803 C799 1.429 . S
C803 C804 1.523 . S
C804 C788 1.368 . S
C804 C800 1.368 . S
C804 C803 1.523 . S
H805 C780 0.950 . S
H806 C782 0.950 . S
H807 C783 0.949 . S
H808 C785 0.950 . S
H809 C787 0.950 . S
C810 C811 1.349 . S
C810 C812 1.327 . S
C810 H835 0.950 . S
C811 C810 1.349 . S
C811 C827 1.349 . S
C812 C810 1.327 . S
C812 C831 1.429 . S
C812 H836 0.950 . S
C813 C830 1.574 . S
C813 C832 1.368 . S
C813 H837 0.949 . S
H814 C818 0.949 . S
C815 C816 1.349 . S
C815 C817 1.327 . S
C815 H838 0.950 . S
C816 C815 1.349 . S
C816 C828 1.349 . S
C817 C815 1.327 . S
C817 C833 1.429 . S
C817 H839 0.950 . S
C818 H814 0.949 . S
C818 C826 1.574 . S
C818 C834 1.368 . S
H819 C827 0.950 . S
H820 C825 0.950 . S
H821 C826 0.949 . S
H822 C828 0.950 . S
H823 C829 0.950 . S
H824 C830 0.949 . S
C825 H820 0.950 . S
C825 C827 1.327 . S
C825 C831 1.429 . S
C826 C818 1.574 . S
C826 H821 0.949 . S
C826 C832 1.368 . S
C827 C811 1.349 . S
C827 H819 0.950 . S
C827 C825 1.327 . S
C828 C816 1.349 . S
C828 H822 0.950 . S
C828 C829 1.327 . S
C829 H823 0.950 . S
C829 C828 1.327 . S
C829 C833 1.429 . S
C830 C813 1.574 . S
C830 H824 0.949 . S
C830 C834 1.368 . S
C831 C812 1.429 . S
C831 C825 1.429 . S
C831 C832 1.523 . S
C832 C813 1.368 . S
C832 C826 1.368 . S
C832 C831 1.523 . S
C833 C817 1.429 . S
C833 C829 1.429 . S
C833 C834 1.523 . S
C834 C818 1.368 . S
C834 C830 1.368 . S
C834 C833 1.523 . S
H835 C810 0.950 . S
H836 C812 0.950 . S
H837 C813 0.949 . S
H838 C815 0.950 . S
H839 C817 0.950 . S
C840 C841 1.349 . S
C840 C842 1.327 . S
C840 H865 0.950 . S
C841 C840 1.349 . S
C841 C857 1.349 . S
C842 C840 1.327 . S
C842 C861 1.429 . S
C842 H866 0.950 . S
C843 C860 1.574 . S
C843 C862 1.368 . S
C843 H867 0.949 . S
H844 C848 0.949 . S
C845 C846 1.349 . S
C845 C847 1.327 . S
C845 H868 0.950 . S
C846 C845 1.349 . S
C846 C858 1.349 . S
C847 C845 1.327 . S
C847 C863 1.429 . S
C847 H869 0.950 . S
C848 H844 0.949 . S
C848 C856 1.574 . S
C848 C864 1.368 . S
H849 C857 0.950 . S
H850 C855 0.950 . S
H851 C856 0.949 . S
H852 C858 0.950 . S
H853 C859 0.950 . S
H854 C860 0.949 . S
C855 H850 0.950 . S
C855 C857 1.327 . S
C855 C861 1.429 . S
C856 C848 1.574 . S
C856 H851 0.949 . S
C856 C862 1.368 . S
C857 C841 1.349 . S
C857 H849 0.950 . S
C857 C855 1.327 . S
C858 C846 1.349 . S
C858 H852 0.950 . S
C858 C859 1.327 . S
C859 H853 0.950 . S
C859 C858 1.327 . S
C859 C863 1.429 . S
C860 C843 1.574 . S
C860 H854 0.949 . S
C860 C864 1.368 . S
C861 C842 1.429 . S
C861 C855 1.429 . S
C861 C862 1.523 . S
C862 C843 1.368 . S
C862 C856 1.368 . S
C862 C861 1.523 . S
C863 C847 1.429 . S
C863 C859 1.429 . S
C863 C864 1.523 . S
C864 C848 1.368 . S
C864 C860 1.368 . S
C864 C863 1.523 . S
H865 C840 0.950 . S
H866 C842 0.950 . S
H867 C843 0.949 . S
H868 C845 0.950 . S
H869 C847 0.950 . S
C870 C871 1.349 . S
C870 C872 1.327 . S
C870 H895 0.950 . S
C871 C870 1.349 . S
C871 C887 1.349 . S
C872 C870 1.327 . S
C872 C891 1.429 . S
C872 H896 0.950 . S
C873 C890 1.574 . S
C873 C892 1.368 . S
C873 H897 0.949 . S
H874 C878 0.949 1_565 S
C875 C876 1.349 . S
C875 C877 1.327 . S
C875 H898 0.950 . S
C876 C875 1.349 . S
C876 C888 1.349 . S
C877 C875 1.327 . S
C877 C893 1.429 . S
C877 H899 0.950 1_565 S
C878 H874 0.949 1_545 S
C878 C886 1.574 . S
C878 C894 1.368 . S
H879 C887 0.950 . S
H880 C885 0.950 . S
H881 C886 0.949 . S
H882 C888 0.950 . S
H883 C889 0.950 . S
H884 C890 0.949 . S
C885 H880 0.950 . S
C885 C887 1.327 . S
C885 C891 1.429 . S
C886 C878 1.574 . S
C886 H881 0.949 . S
C886 C892 1.368 . S
C887 C871 1.349 . S
C887 H879 0.950 . S
C887 C885 1.327 . S
C888 C876 1.349 . S
C888 H882 0.950 . S
C888 C889 1.327 . S
C889 H883 0.950 . S
C889 C888 1.327 . S
C889 C893 1.429 . S
C890 C873 1.574 . S
C890 H884 0.949 . S
C890 C894 1.368 . S
C891 C872 1.429 . S
C891 C885 1.429 . S
C891 C892 1.523 . S
C892 C873 1.368 . S
C892 C886 1.368 . S
C892 C891 1.523 . S
C893 C877 1.429 . S
C893 C889 1.429 . S
C893 C894 1.523 1_565 S
C894 C878 1.368 . S
C894 C890 1.368 . S
C894 C893 1.523 1_545 S
H895 C870 0.950 . S
H896 C872 0.950 . S
H897 C873 0.949 . S
H898 C875 0.950 . S
H899 C877 0.950 1_545 S
C900 C901 1.349 . S
C900 C902 1.327 . S
C900 H925 0.950 . S
C901 C900 1.349 . S
C901 C917 1.349 . S
C902 C900 1.327 . S
C902 C921 1.429 . S
C902 H926 0.950 . S
C903 C920 1.574 . S
C903 C922 1.368 . S
C903 H927 0.949 . S
H904 C908 0.949 . S
C905 C906 1.349 . S
C905 C907 1.327 . S
C905 H928 0.950 . S
C906 C905 1.349 . S
C906 C918 1.349 . S
C907 C905 1.327 . S
C907 C923 1.429 . S
C907 H929 0.950 . S
C908 H904 0.949 . S
C908 C916 1.574 . S
C908 C924 1.368 . S
H909 C917 0.950 . S
H910 C915 0.950 . S
H911 C916 0.949 . S
H912 C918 0.950 . S
H913 C919 0.950 . S
H914 C920 0.949 . S
C915 H910 0.950 . S
C915 C917 1.327 . S
C915 C921 1.429 . S
C916 C908 1.574 . S
C916 H911 0.949 . S
C916 C922 1.368 . S
C917 C901 1.349 . S
C917 H909 0.950 . S
C917 C915 1.327 . S
C918 C906 1.349 . S
C918 H912 0.950 . S
C918 C919 1.327 . S
C919 H913 0.950 . S
C919 C918 1.327 . S
C919 C923 1.429 . S
C920 C903 1.574 . S
C920 H914 0.949 . S
C920 C924 1.368 . S
C921 C902 1.429 . S
C921 C915 1.429 . S
C921 C922 1.523 . S
C922 C903 1.368 . S
C922 C916 1.368 . S
C922 C921 1.523 . S
C923 C907 1.429 . S
C923 C919 1.429 . S
C923 C924 1.523 . S
C924 C908 1.368 . S
C924 C920 1.368 . S
C924 C923 1.523 . S
H925 C900 0.950 . S
H926 C902 0.950 . S
H927 C903 0.949 . S
H928 C905 0.950 . S
H929 C907 0.950 . S
C930 C931 1.349 . S
C930 C932 1.327 . S
C930 H955 0.950 . S
C931 C930 1.349 . S
C931 C947 1.349 . S
C932 C930 1.327 . S
C932 C951 1.429 . S
C932 H956 0.950 . S
C933 C950 1.574 . S
C933 C952 1.368 1_565 S
C933 H957 0.949 1_565 S
H934 C938 0.949 . S
C935 C936 1.349 . S
C935 C937 1.327 . S
C935 H958 0.950 . S
C936 C935 1.349 . S
C936 C948 1.349 . S
C937 C935 1.327 . S
C937 C953 1.429 . S
C937 H959 0.950 . S
C938 H934 0.949 . S
C938 C946 1.574 . S
C938 C954 1.368 . S
H939 C947 0.950 . S
H940 C945 0.950 . S
H941 C946 0.949 1_545 S
H942 C948 0.950 . S
H943 C949 0.950 . S
H944 C950 0.949 . S
C945 H940 0.950 . S
C945 C947 1.327 . S
C945 C951 1.429 . S
C946 C938 1.574 . S
C946 H941 0.949 1_565 S
C946 C952 1.368 1_565 S
C947 C931 1.349 . S
C947 H939 0.950 . S
C947 C945 1.327 . S
C948 C936 1.349 . S
C948 H942 0.950 . S
C948 C949 1.327 . S
C949 H943 0.950 . S
C949 C948 1.327 . S
C949 C953 1.429 . S
C950 C933 1.574 . S
C950 H944 0.949 . S
C950 C954 1.368 . S
C951 C932 1.429 . S
C951 C945 1.429 . S
C951 C952 1.523 . S
C952 C933 1.368 1_545 S
C952 C946 1.368 1_545 S
C952 C951 1.523 . S
C953 C937 1.429 . S
C953 C949 1.429 . S
C953 C954 1.523 . S
C954 C938 1.368 . S
C954 C950 1.368 . S
C954 C953 1.523 . S
H955 C930 0.950 . S
H956 C932 0.950 . S
H957 C933 0.949 1_545 S
H958 C935 0.950 . S
H959 C937 0.950 . S
C960 C961 1.349 . S
C960 C962 1.327 . S
C960 H985 0.950 . S
C961 C960 1.349 . S
C961 C977 1.349 . S
C962 C960 1.327 . S
C962 C981 1.429 . S
C962 H986 0.950 . S
C963 C980 1.574 . S
C963 C982 1.368 . S
C963 H987 0.949 . S
H964 C968 0.949 . S
C965 C966 1.349 . S
C965 C967 1.327 . S
C965 H988 0.950 . S
C966 C965 1.349 . S
C966 C978 1.349 . S
C967 C965 1.327 . S
C967 C983 1.429 . S
C967 H989 0.950 . S
C968 H964 0.949 . S
C968 C976 1.574 . S
C968 C984 1.368 . S
H969 C977 0.950 . S
H970 C975 0.950 . S
H971 C976 0.949 . S
H972 C978 0.950 . S
H973 C979 0.950 . S
H974 C980 0.949 . S
C975 H970 0.950 . S
C975 C977 1.327 . S
C975 C981 1.429 . S
C976 C968 1.574 . S
C976 H971 0.949 . S
C976 C982 1.368 . S
C977 C961 1.349 . S
C977 H969 0.950 . S
C977 C975 1.327 . S
C978 C966 1.349 . S
C978 H972 0.950 . S
C978 C979 1.327 . S
C979 H973 0.950 . S
C979 C978 1.327 . S
C979 C983 1.429 . S
C980 C963 1.574 . S
C980 H974 0.949 . S
C980 C984 1.368 . S
C981 C962 1.429 . S
C981 C975 1.429 . S
C981 C982 1.523 . S
C982 C963 1.368 . S
C982 C976 1.368 . S
C982 C981 1.523 . S
C983 C967 1.429 . S
C983 C979 1.429 . S
C983 C984 1.523 . S
C984 C968 1.368 . S
C984 C980 1.368 . S
C984 C983 1.523 . S
H985 C960 0.950 . S
H986 C962 0.950 . S
H987 C963 0.949 . S
H988 C965 0.950 . S
H989 C967 0.950 . S
C990 C991 1.349 . S
C990 C992 1.327 . S
C990 H1015 0.950 . S
C991 C990 1.349 . S
C991 C1007 1.349 . S
C992 C990 1.327 . S
C992 C1011 1.429 . S
C992 H1016 0.950 . S
C993 C1010 1.574 . S
C993 C1012 1.368 . S
C993 H1017 0.949 . S
H994 C998 0.949 . S
C995 C996 1.349 . S
C995 C997 1.327 . S
C995 H1018 0.950 . S
C996 C995 1.349 . S
C996 C1008 1.349 . S
C997 C995 1.327 . S
C997 C1013 1.429 . S
C997 H1019 0.950 . S
C998 H994 0.949 . S
C998 C1006 1.574 . S
C998 C1014 1.368 . S
H999 C1007 0.950 . S
H1000 C1005 0.950 . S
H1001 C1006 0.949 . S
H1002 C1008 0.950 . S
H1003 C1009 0.950 . S
H1004 C1010 0.949 . S
C1005 H1000 0.950 . S
C1005 C1007 1.327 . S
C1005 C1011 1.429 . S
C1006 C998 1.574 . S
C1006 H1001 0.949 . S
C1006 C1012 1.368 . S
C1007 C991 1.349 . S
C1007 H999 0.950 . S
C1007 C1005 1.327 . S
C1008 C996 1.349 . S
C1008 H1002 0.950 . S
C1008 C1009 1.327 . S
C1009 H1003 0.950 . S
C1009 C1008 1.327 . S
C1009 C1013 1.429 . S
C1010 C993 1.574 . S
C1010 H1004 0.949 . S
C1010 C1014 1.368 . S
C1011 C992 1.429 . S
C1011 C1005 1.429 . S
C1011 C1012 1.523 . S
C1012 C993 1.368 . S
C1012 C1006 1.368 . S
C1012 C1011 1.523 . S
C1013 C997 1.429 . S
C1013 C1009 1.429 . S
C1013 C1014 1.523 . S
C1014 C998 1.368 . S
C1014 C1010 1.368 . S
C1014 C1013 1.523 . S
H1015 C990 0.950 . S
H1016 C992 0.950 . S
H1017 C993 0.949 . S
H1018 C995 0.950 . S
H1019 C997 0.950 . S
C1020 C1021 1.349 . S
C1020 C1022 1.327 . S
C1020 H1045 0.950 . S
C1021 C1020 1.349 . S
C1021 C1037 1.349 . S
C1022 C1020 1.327 . S
C1022 C1041 1.429 . S
C1022 H1046 0.950 . S
C1023 C1040 1.574 . S
C1023 C1042 1.368 . S
C1023 H1047 0.949 . S
H1024 C1028 0.949 . S
C1025 C1026 1.349 . S
C1025 C1027 1.327 . S
C1025 H1048 0.950 . S
C1026 C1025 1.349 . S
C1026 C1038 1.349 . S
C1027 C1025 1.327 . S
C1027 C1043 1.429 . S
C1027 H1049 0.950 . S
C1028 H1024 0.949 . S
C1028 C1036 1.574 . S
C1028 C1044 1.368 . S
H1029 C1037 0.950 . S
H1030 C1035 0.950 . S
H1031 C1036 0.949 . S
H1032 C1038 0.950 . S
H1033 C1039 0.950 . S
H1034 C1040 0.949 . S
C1035 H1030 0.950 . S
C1035 C1037 1.327 . S
C1035 C1041 1.429 . S
C1036 C1028 1.574 . S
C1036 H1031 0.949 . S
C1036 C1042 1.368 . S
C1037 C1021 1.349 . S
C1037 H1029 0.950 . S
C1037 C1035 1.327 . S
C1038 C1026 1.349 . S
C1038 H1032 0.950 . S
C1038 C1039 1.327 . S
C1039 H1033 0.950 . S
C1039 C1038 1.327 . S
C1039 C1043 1.429 . S
C1040 C1023 1.574 . S
C1040 H1034 0.949 . S
C1040 C1044 1.368 . S
C1041 C1022 1.429 . S
C1041 C1035 1.429 . S
C1041 C1042 1.523 . S
C1042 C1023 1.368 . S
C1042 C1036 1.368 . S
C1042 C1041 1.523 . S
C1043 C1027 1.429 . S
C1043 C1039 1.429 . S
C1043 C1044 1.523 . S
C1044 C1028 1.368 . S
C1044 C1040 1.368 . S
C1044 C1043 1.523 . S
H1045 C1020 0.950 . S
H1046 C1022 0.950 . S
H1047 C1023 0.949 . S
H1048 C1025 0.950 . S
H1049 C1027 0.950 . S
C1050 C1051 1.349 . S
C1050 C1052 1.327 . S
C1050 H1075 0.950 . S
C1051 C1050 1.349 . S
C1051 C1067 1.349 . S
C1052 C1050 1.327 . S
C1052 C1071 1.429 . S
C1052 H1076 0.950 . S
C1053 C1070 1.574 . S
C1053 C1072 1.368 . S
C1053 H1077 0.949 . S
H1054 C1058 0.949 . S
C1055 C1056 1.349 . S
C1055 C1057 1.327 . S
C1055 H1078 0.950 . S
C1056 C1055 1.349 . S
C1056 C1068 1.349 . S
C1057 C1055 1.327 . S
C1057 C1073 1.429 . S
C1057 H1079 0.950 . S
C1058 H1054 0.949 . S
C1058 C1066 1.574 . S
C1058 C1074 1.368 . S
H1059 C1067 0.950 . S
H1060 C1065 0.950 . S
H1061 C1066 0.949 . S
H1062 C1068 0.950 . S
H1063 C1069 0.950 . S
H1064 C1070 0.949 . S
C1065 H1060 0.950 . S
C1065 C1067 1.327 . S
C1065 C1071 1.429 . S
C1066 C1058 1.574 . S
C1066 H1061 0.949 . S
C1066 C1072 1.368 . S
C1067 C1051 1.349 . S
C1067 H1059 0.950 . S
C1067 C1065 1.327 . S
C1068 C1056 1.349 . S
C1068 H1062 0.950 . S
C1068 C1069 1.327 . S
C1069 H1063 0.950 . S
C1069 C1068 1.327 . S
C1069 C1073 1.429 . S
C1070 C1053 1.574 . S
C1070 H1064 0.949 . S
C1070 C1074 1.368 . S
C1071 C1052 1.429 . S
C1071 C1065 1.429 . S
C1071 C1072 1.523 . S
C1072 C1053 1.368 . S
C1072 C1066 1.368 . S
C1072 C1071 1.523 . S
C1073 C1057 1.429 . S
C1073 C1069 1.429 . S
C1073 C1074 1.523 . S
C1074 C1058 1.368 . S
C1074 C1070 1.368 . S
C1074 C1073 1.523 . S
H1075 C1050 0.950 . S
H1076 C1052 0.950 . S
H1077 C1053 0.949 . S
H1078 C1055 0.950 . S
H1079 C1057 0.950 . S
C1080 C1081 1.349 . S
C1080 C1082 1.327 . S
C1080 H1105 0.950 . S
C1081 C1080 1.349 . S
C1081 C1097 1.349 . S
C1082 C1080 1.327 . S
C1082 C1101 1.429 . S
C1082 H1106 0.950 . S
C1083 C1100 1.574 . S
C1083 C1102 1.368 . S
C1083 H1107 0.949 . S
H1084 C1088 0.949 . S
C1085 C1086 1.349 . S
C1085 C1087 1.327 . S
C1085 H1108 0.950 . S
C1086 C1085 1.349 . S
C1086 C1098 1.349 . S
C1087 C1085 1.327 . S
C1087 C1103 1.429 . S
C1087 H1109 0.950 . S
C1088 H1084 0.949 . S
C1088 C1096 1.574 . S
C1088 C1104 1.368 . S
H1089 C1097 0.950 . S
H1090 C1095 0.950 . S
H1091 C1096 0.949 . S
H1092 C1098 0.950 . S
H1093 C1099 0.950 . S
H1094 C1100 0.949 . S
C1095 H1090 0.950 . S
C1095 C1097 1.327 . S
C1095 C1101 1.429 . S
C1096 C1088 1.574 . S
C1096 H1091 0.949 . S
C1096 C1102 1.368 . S
C1097 C1081 1.349 . S
C1097 H1089 0.950 . S
C1097 C1095 1.327 . S
C1098 C1086 1.349 . S
C1098 H1092 0.950 . S
C1098 C1099 1.327 . S
C1099 H1093 0.950 . S
C1099 C1098 1.327 . S
C1099 C1103 1.429 . S
C1100 C1083 1.574 . S
C1100 H1094 0.949 . S
C1100 C1104 1.368 . S
C1101 C1082 1.429 . S
C1101 C1095 1.429 . S
C1101 C1102 1.523 . S
C1102 C1083 1.368 . S
C1102 C1096 1.368 . S
C1102 C1101 1.523 . S
C1103 C1087 1.429 . S
C1103 C1099 1.429 . S
C1103 C1104 1.523 . S
C1104 C1088 1.368 . S
C1104 C1100 1.368 . S
C1104 C1103 1.523 . S
H1105 C1080 0.950 . S
H1106 C1082 0.950 . S
H1107 C1083 0.949 . S
H1108 C1085 0.950 . S
H1109 C1087 0.950 . S
C1110 C1111 1.349 . S
C1110 C1112 1.327 . S
C1110 H1135 0.950 . S
C1111 C1110 1.349 . S
C1111 C1127 1.349 . S
C1112 C1110 1.327 . S
C1112 C1131 1.429 . S
C1112 H1136 0.950 . S
C1113 C1130 1.574 . S
C1113 C1132 1.368 . S
C1113 H1137 0.949 . S
H1114 C1118 0.949 . S
C1115 C1116 1.349 . S
C1115 C1117 1.327 . S
C1115 H1138 0.950 . S
C1116 C1115 1.349 . S
C1116 C1128 1.349 . S
C1117 C1115 1.327 . S
C1117 C1133 1.429 . S
C1117 H1139 0.950 . S
C1118 H1114 0.949 . S
C1118 C1126 1.574 . S
C1118 C1134 1.368 . S
H1119 C1127 0.950 . S
H1120 C1125 0.950 . S
H1121 C1126 0.949 . S
H1122 C1128 0.950 . S
H1123 C1129 0.950 . S
H1124 C1130 0.949 . S
C1125 H1120 0.950 . S
C1125 C1127 1.327 . S
C1125 C1131 1.429 . S
C1126 C1118 1.574 . S
C1126 H1121 0.949 . S
C1126 C1132 1.368 . S
C1127 C1111 1.349 . S
C1127 H1119 0.950 . S
C1127 C1125 1.327 . S
C1128 C1116 1.349 . S
C1128 H1122 0.950 . S
C1128 C1129 1.327 . S
C1129 H1123 0.950 . S
C1129 C1128 1.327 . S
C1129 C1133 1.429 . S
C1130 C1113 1.574 . S
C1130 H1124 0.949 . S
C1130 C1134 1.368 . S
C1131 C1112 1.429 . S
C1131 C1125 1.429 . S
C1131 C1132 1.523 . S
C1132 C1113 1.368 . S
C1132 C1126 1.368 . S
C1132 C1131 1.523 . S
C1133 C1117 1.429 . S
C1133 C1129 1.429 . S
C1133 C1134 1.523 . S
C1134 C1118 1.368 . S
C1134 C1130 1.368 . S
C1134 C1133 1.523 . S
H1135 C1110 0.950 . S
H1136 C1112 0.950 . S
H1137 C1113 0.949 . S
H1138 C1115 0.950 . S
H1139 C1117 0.950 . S
C1140 C1141 1.349 . S
C1140 C1142 1.327 . S
C1140 H1165 0.950 . S
C1141 C1140 1.349 . S
C1141 C1157 1.349 . S
C1142 C1140 1.327 . S
C1142 C1161 1.429 . S
C1142 H1166 0.950 . S
C1143 C1160 1.574 . S
C1143 C1162 1.368 . S
C1143 H1167 0.949 . S
H1144 C1148 0.949 . S
C1145 C1146 1.349 . S
C1145 C1147 1.327 . S
C1145 H1168 0.950 . S
C1146 C1145 1.349 . S
C1146 C1158 1.349 . S
C1147 C1145 1.327 . S
C1147 C1163 1.429 . S
C1147 H1169 0.950 . S
C1148 H1144 0.949 . S
C1148 C1156 1.574 . S
C1148 C1164 1.368 . S
H1149 C1157 0.950 . S
H1150 C1155 0.950 . S
H1151 C1156 0.949 . S
H1152 C1158 0.950 . S
H1153 C1159 0.950 1_455 S
H1154 C1160 0.949 . S
C1155 H1150 0.950 . S
C1155 C1157 1.327 . S
C1155 C1161 1.429 . S
C1156 C1148 1.574 . S
C1156 H1151 0.949 . S
C1156 C1162 1.368 . S
C1157 C1141 1.349 . S
C1157 H1149 0.950 . S
C1157 C1155 1.327 . S
C1158 C1146 1.349 . S
C1158 H1152 0.950 . S
C1158 C1159 1.327 . S
C1159 H1153 0.950 1_655 S
C1159 C1158 1.327 . S
C1159 C1163 1.429 . S
C1160 C1143 1.574 . S
C1160 H1154 0.949 . S
C1160 C1164 1.368 . S
C1161 C1142 1.429 . S
C1161 C1155 1.429 . S
C1161 C1162 1.523 . S
C1162 C1143 1.368 . S
C1162 C1156 1.368 . S
C1162 C1161 1.523 . S
C1163 C1147 1.429 . S
C1163 C1159 1.429 . S
C1163 C1164 1.523 1_655 S
C1164 C1148 1.368 . S
C1164 C1160 1.368 . S
C1164 C1163 1.523 1_455 S
H1165 C1140 0.950 . S
H1166 C1142 0.950 . S
H1167 C1143 0.949 . S
H1168 C1145 0.950 . S
H1169 C1147 0.950 . S
C1170 C1171 1.349 . S
C1170 C1172 1.327 . S
C1170 H1195 0.950 . S
C1171 C1170 1.349 . S
C1171 C1187 1.349 . S
C1172 C1170 1.327 . S
C1172 C1191 1.429 . S
C1172 H1196 0.950 . S
C1173 C1190 1.574 . S
C1173 C1192 1.368 . S
C1173 H1197 0.949 . S
H1174 C1178 0.949 . S
C1175 C1176 1.349 . S
C1175 C1177 1.327 . S
C1175 H1198 0.950 . S
C1176 C1175 1.349 . S
C1176 C1188 1.349 . S
C1177 C1175 1.327 . S
C1177 C1193 1.429 . S
C1177 H1199 0.950 . S
C1178 H1174 0.949 . S
C1178 C1186 1.574 . S
C1178 C1194 1.368 . S
H1179 C1187 0.950 . S
H1180 C1185 0.950 . S
H1181 C1186 0.949 . S
H1182 C1188 0.950 . S
H1183 C1189 0.950 . S
H1184 C1190 0.949 . S
C1185 H1180 0.950 . S
C1185 C1187 1.327 . S
C1185 C1191 1.429 . S
C1186 C1178 1.574 . S
C1186 H1181 0.949 . S
C1186 C1192 1.368 . S
C1187 C1171 1.349 . S
C1187 H1179 0.950 . S
C1187 C1185 1.327 . S
C1188 C1176 1.349 . S
C1188 H1182 0.950 . S
C1188 C1189 1.327 . S
C1189 H1183 0.950 . S
C1189 C1188 1.327 . S
C1189 C1193 1.429 . S
C1190 C1173 1.574 . S
C1190 H1184 0.949 . S
C1190 C1194 1.368 . S
C1191 C1172 1.429 . S
C1191 C1185 1.429 . S
C1191 C1192 1.523 . S
C1192 C1173 1.368 . S
C1192 C1186 1.368 . S
C1192 C1191 1.523 . S
C1193 C1177 1.429 . S
C1193 C1189 1.429 . S
C1193 C1194 1.523 . S
C1194 C1178 1.368 . S
C1194 C1190 1.368 . S
C1194 C1193 1.523 . S
H1195 C1170 0.950 . S
H1196 C1172 0.950 . S
H1197 C1173 0.949 . S
H1198 C1175 0.950 . S
H1199 C1177 0.950 . S
C1200 C1201 1.349 . S
C1200 C1202 1.327 . S
C1200 H1225 0.950 . S
C1201 C1200 1.349 . S
C1201 C1217 1.349 . S
C1202 C1200 1.327 . S
C1202 C1221 1.429 . S
C1202 H1226 0.950 . S
C1203 C1220 1.574 . S
C1203 C1222 1.368 . S
C1203 H1227 0.949 . S
H1204 C1208 0.949 . S
C1205 C1206 1.349 . S
C1205 C1207 1.327 . S
C1205 H1228 0.950 . S
C1206 C1205 1.349 . S
C1206 C1218 1.349 . S
C1207 C1205 1.327 . S
C1207 C1223 1.429 . S
C1207 H1229 0.950 . S
C1208 H1204 0.949 . S
C1208 C1216 1.574 . S
C1208 C1224 1.368 . S
H1209 C1217 0.950 . S
H1210 C1215 0.950 . S
H1211 C1216 0.949 . S
H1212 C1218 0.950 . S
H1213 C1219 0.950 . S
H1214 C1220 0.949 . S
C1215 H1210 0.950 . S
C1215 C1217 1.327 . S
C1215 C1221 1.429 . S
C1216 C1208 1.574 . S
C1216 H1211 0.949 . S
C1216 C1222 1.368 . S
C1217 C1201 1.349 . S
C1217 H1209 0.950 . S
C1217 C1215 1.327 . S
C1218 C1206 1.349 . S
C1218 H1212 0.950 . S
C1218 C1219 1.327 . S
C1219 H1213 0.950 . S
C1219 C1218 1.327 . S
C1219 C1223 1.429 . S
C1220 C1203 1.574 . S
C1220 H1214 0.949 . S
C1220 C1224 1.368 . S
C1221 C1202 1.429 . S
C1221 C1215 1.429 . S
C1221 C1222 1.523 . S
C1222 C1203 1.368 . S
C1222 C1216 1.368 . S
C1222 C1221 1.523 . S
C1223 C1207 1.429 . S
C1223 C1219 1.429 . S
C1223 C1224 1.523 . S
C1224 C1208 1.368 . S
C1224 C1220 1.368 . S
C1224 C1223 1.523 . S
H1225 C1200 0.950 . S
H1226 C1202 0.950 . S
H1227 C1203 0.949 . S
H1228 C1205 0.950 . S
H1229 C1207 0.950 . S
C1230 C1231 1.349 . S
C1230 C1232 1.327 . S
C1230 H1255 0.950 . S
C1231 C1230 1.349 . S
C1231 C1247 1.349 . S
C1232 C1230 1.327 . S
C1232 C1251 1.429 . S
C1232 H1256 0.950 . S
C1233 C1250 1.574 . S
C1233 C1252 1.368 . S
C1233 H1257 0.949 . S
H1234 C1238 0.949 . S
C1235 C1236 1.349 . S
C1235 C1237 1.327 . S
C1235 H1258 0.950 . S
C1236 C1235 1.349 . S
C1236 C1248 1.349 . S
C1237 C1235 1.327 . S
C1237 C1253 1.429 . S
C1237 H1259 0.950 . S
C1238 H1234 0.949 . S
C1238 C1246 1.574 . S
C1238 C1254 1.368 . S
H1239 C1247 0.950 . S
H1240 C1245 0.950 . S
H1241 C1246 0.949 . S
H1242 C1248 0.950 . S
H1243 C1249 0.950 . S
H1244 C1250 0.949 . S
C1245 H1240 0.950 . S
C1245 C1247 1.327 . S
C1245 C1251 1.429 . S
C1246 C1238 1.574 . S
C1246 H1241 0.949 . S
C1246 C1252 1.368 . S
C1247 C1231 1.349 . S
C1247 H1239 0.950 . S
C1247 C1245 1.327 . S
C1248 C1236 1.349 . S
C1248 H1242 0.950 . S
C1248 C1249 1.327 . S
C1249 H1243 0.950 . S
C1249 C1248 1.327 . S
C1249 C1253 1.429 . S
C1250 C1233 1.574 . S
C1250 H1244 0.949 . S
C1250 C1254 1.368 . S
C1251 C1232 1.429 . S
C1251 C1245 1.429 . S
C1251 C1252 1.523 . S
C1252 C1233 1.368 . S
C1252 C1246 1.368 . S
C1252 C1251 1.523 . S
C1253 C1237 1.429 . S
C1253 C1249 1.429 . S
C1253 C1254 1.523 . S
C1254 C1238 1.368 . S
C1254 C1250 1.368 . S
C1254 C1253 1.523 . S
H1255 C1230 0.950 . S
H1256 C1232 0.950 . S
H1257 C1233 0.949 . S
H1258 C1235 0.950 . S
H1259 C1237 0.950 . S
C1260 C1261 1.349 . S
C1260 C1262 1.327 . S
C1260 H1285 0.950 . S
C1261 C1260 1.349 . S
C1261 C1277 1.349 . S
C1262 C1260 1.327 . S
C1262 C1281 1.429 . S
C1262 H1286 0.950 . S
C1263 C1280 1.574 . S
C1263 C1282 1.368 . S
C1263 H1287 0.949 . S
H1264 C1268 0.949 . S
C1265 C1266 1.349 . S
C1265 C1267 1.327 . S
C1265 H1288 0.950 . S
C1266 C1265 1.349 . S
C1266 C1278 1.349 . S
C1267 C1265 1.327 . S
C1267 C1283 1.429 . S
C1267 H1289 0.950 . S
C1268 H1264 0.949 . S
C1268 C1276 1.574 . S
C1268 C1284 1.368 . S
H1269 C1277 0.950 . S
H1270 C1275 0.950 . S
H1271 C1276 0.949 . S
H1272 C1278 0.946 . S
H1273 C1279 0.950 . S
H1274 C1280 0.949 . S
C1275 H1270 0.950 . S
C1275 C1277 1.327 . S
C1275 C1281 1.429 . S
C1276 C1268 1.574 . S
C1276 H1271 0.949 . S
C1276 C1282 1.368 . S
C1277 C1261 1.349 . S
C1277 H1269 0.950 . S
C1277 C1275 1.327 . S
C1278 C1266 1.349 . S
C1278 H1272 0.946 . S
C1278 C1279 1.327 . S
C1279 H1273 0.950 . S
C1279 C1278 1.327 . S
C1279 C1283 1.429 . S
C1280 C1263 1.574 . S
C1280 H1274 0.949 . S
C1280 C1284 1.368 . S
C1281 C1262 1.429 . S
C1281 C1275 1.429 . S
C1281 C1282 1.523 . S
C1282 C1263 1.368 . S
C1282 C1276 1.368 . S
C1282 C1281 1.523 . S
C1283 C1267 1.429 . S
C1283 C1279 1.429 . S
C1283 C1284 1.523 . S
C1284 C1268 1.368 . S
C1284 C1280 1.368 . S
C1284 C1283 1.523 . S
H1285 C1260 0.950 . S
H1286 C1262 0.950 . S
H1287 C1263 0.949 . S
H1288 C1265 0.950 . S
H1289 C1267 0.950 . S
C1290 C1291 1.349 . S
C1290 C1292 1.327 . S
C1290 H1315 0.950 . S
C1291 C1290 1.349 . S
C1291 C1307 1.349 . S
C1292 C1290 1.327 . S
C1292 C1311 1.429 . S
C1292 H1316 0.950 . S
C1293 C1310 1.574 . S
C1293 C1312 1.368 . S
C1293 H1317 0.949 . S
H1294 C1298 0.949 1_455 S
C1295 C1296 1.349 . S
C1295 C1297 1.327 . S
C1295 H1318 0.950 . S
C1296 C1295 1.349 . S
C1296 C1308 1.349 . S
C1297 C1295 1.327 . S
C1297 C1313 1.429 . S
C1297 H1319 0.950 . S
C1298 H1294 0.949 1_655 S
C1298 C1306 1.574 . S
C1298 C1314 1.368 . S
H1299 C1307 0.950 . S
H1300 C1305 0.950 . S
H1301 C1306 0.949 . S
H1302 C1308 0.950 . S
H1303 C1309 0.950 . S
H1304 C1310 0.949 . S
C1305 H1300 0.950 . S
C1305 C1307 1.327 . S
C1305 C1311 1.429 . S
C1306 C1298 1.574 . S
C1306 H1301 0.949 . S
C1306 C1312 1.368 . S
C1307 C1291 1.349 . S
C1307 H1299 0.950 . S
C1307 C1305 1.327 . S
C1308 C1296 1.349 . S
C1308 H1302 0.950 . S
C1308 C1309 1.327 . S
C1309 H1303 0.950 . S
C1309 C1308 1.327 . S
C1309 C1313 1.429 . S
C1310 C1293 1.574 . S
C1310 H1304 0.949 . S
C1310 C1314 1.368 . S
C1311 C1292 1.429 . S
C1311 C1305 1.429 . S
C1311 C1312 1.523 . S
C1312 C1293 1.368 . S
C1312 C1306 1.368 . S
C1312 C1311 1.523 . S
C1313 C1297 1.429 . S
C1313 C1309 1.429 . S
C1313 C1314 1.523 1_455 S
C1314 C1298 1.368 . S
C1314 C1310 1.368 . S
C1314 C1313 1.523 1_655 S
H1315 C1290 0.950 . S
H1316 C1292 0.950 . S
H1317 C1293 0.949 . S
H1318 C1295 0.950 . S
H1319 C1297 0.950 . S
C241 C9 1.081 . S
C246 C229 1.081 . S
C271 C199 1.356 . S
C276 C29 1.421 . S
C301 C59 1.184 . S
C306 C179 1.184 . S
C331 C69 1.670 . S
C336 C209 1.671 . S
C361 C89 1.491 . S
C366 C219 1.446 . S
C391 C119 1.166 . S
C396 C239 1.167 . S
C421 C189 1.530 1_565 S
C426 C129 1.536 . S
C451 C159 1.361 . S
C456 C169 1.435 . S
C481 C79 1.624 . S
C486 C99 1.633 . S
C511 C19 1.324 . S
C516 C109 1.380 . S
C541 C39 1.242 . S
C546 C139 1.236 . S
C571 C149 1.599 . S
C576 C49 1.600 1_554 S
C601 C2 1.597 . S
C606 C178 1.581 . S
C631 C22 1.494 . S
C636 C208 1.436 . S
C661 C228 1.474 . S
C666 C41 1.465 . S
C691 C62 1.328 . S
C696 C198 1.324 . S
C721 C82 1.256 . S
C726 C188 1.231 . S
C751 C168 1.129 . S
C756 C101 1.133 . S
C781 C218 1.145 . S
C786 C122 1.146 . S
C811 C238 2.184 . S
C816 C141 2.099 . S
C841 C18 1.636 . S
C846 C61 1.575 . S
C871 C1 1.492 . S
C876 C38 1.538 . S
C901 C21 1.243 . S
C906 C48 1.253 . S
C931 C78 1.269 . S
C936 C42 1.279 . S
C961 C102 1.329 . S
C966 C98 1.334 . S
C991 C108 1.537 . S
C996 C121 1.541 . S
C1021 C138 1.524 . S
C1026 C142 1.535 . S
C1051 C81 1.052 . S
C1056 C148 1.050 . S
C1081 C162 0.517 . S
C1086 C68 0.545 . S
C1111 C118 1.208 . S
C1116 C181 1.172 . S
C1141 C161 1.152 . S
C1146 C128 1.158 . S
C1171 C202 1.563 . S
C1176 C158 1.566 . S
C1201 C88 1.004 . S
C1206 C222 1.035 . S
C1231 C221 1.361 . S
C1236 C28 1.368 . S
C1261 C58 1.435 . S
C1266 C182 1.444 . S
C1291 C201 1.344 . S
C1296 C8 1.342 . S
