# Generated by pormake.
# Topology kag, (6)-cn, num edge types: 1
# Building blocks:
#     Node 0, Type 0, BuildingBlock: KUMBUR_clean_sbu_1, # of connection points: 6
#     Node 1, Type 0, BuildingBlock: KUMBUR_clean_sbu_1, # of connection points: 6
#     Node 2, Type 0, BuildingBlock: KUMBUR_clean_sbu_1, # of connection points: 6
#     Edge 3, Type (0, 0), BuildingBlock: OJICUG_clean_linker_0, # of connection points: 2
#     Edge 4, Type (0, 0), BuildingBlock: OJICUG_clean_linker_0, # of connection points: 2
#     Edge 5, Type (0, 0), BuildingBlock: OJICUG_clean_linker_0, # of connection points: 2
#     Edge 6, Type (0, 0), BuildingBlock: OJICUG_clean_linker_0, # of connection points: 2
#     Edge 7, Type (0, 0), BuildingBlock: OJICUG_clean_linker_0, # of connection points: 2
#     Edge 8, Type (0, 0), BuildingBlock: OJICUG_clean_linker_0, # of connection points: 2
#     Edge 9, Type (0, 0), BuildingBlock: OJICUG_clean_linker_0, # of connection points: 2
#     Edge 10, Type (0, 0), BuildingBlock: OJICUG_clean_linker_0, # of connection points: 2
#     Edge 11, Type (0, 0), BuildingBlock: OJICUG_clean_linker_0, # of connection points: 2
# Relax obj value: 0.139
# Max RMSD: 0.204
# Mean RMSD: 0.149
data_MOF--net-kag--node1-KUMBUR_clean_sbu_1--edge1-OJICUG_clean_linker_0
_symmetry_space_group_name_H-M    P1
_symmetry_Int_Tables_number       1
_symmetry_cell_setting            triclinic
loop_
_symmetry_equiv_pos_as_xyz
'x, y, z'
_cell_length_a     22.706636
_cell_length_b     32.607955
_cell_length_c     10.728549
_cell_angle_alpha  107.72113
_cell_angle_beta   97.551105
_cell_angle_gamma 94.410757
loop_
_atom_site_label
_atom_site_type_symbol
_atom_site_fract_x
_atom_site_fract_y
_atom_site_fract_z
_atom_type_partial_charge
Tb0 Tb 0.07913 0.56779 0.07813 0.0
C1 C 0.13984 0.37847 0.80243 0.0
N2 N 0.1036 0.40578 0.76699 0.0
C3 C 0.11962 0.37766 0.54163 0.0
C4 C 0.16729 0.34955 0.70764 0.0
C5 C 0.09226 0.40502 0.63815 0.0
C6 C 0.15754 0.34987 0.57643 0.0
C7 C 0.18668 0.35145 0.97365 0.0
C8 C 0.14895 0.37917 0.9344 0.0
C9 C 0.21139 0.32115 0.87802 0.0
C10 C 0.20175 0.32021 0.74545 0.0
Tb11 Tb 1.05055 0.43908 0.92616 0.0
N12 N 0.12071 0.40681 0.0235 0.0
C13 C 0.19758 0.35434 0.10747 0.0
C14 C 0.12953 0.40842 0.15355 0.0
C15 C 0.16948 0.38335 0.1979 0.0
H16 H 1.05838 0.42254 0.60715 0.0
H17 H 0.17742 0.3855 0.30138 0.0
H18 H 0.07253 0.58521 0.39708 0.0
H19 H 0.95287 0.62161 0.70241 0.0
H20 H 0.105 0.4275 0.22382 0.0
H21 H 0.22714 0.33407 0.14178 0.0
H22 H 1.02531 0.57979 0.78022 0.0
H23 H 0.10908 0.37663 0.43943 0.0
H24 H 0.23773 0.29806 0.90578 0.0
H25 H 0.22078 0.29645 0.67233 0.0
H26 H 1.02202 0.63137 0.56523 0.0
H27 H 0.17772 0.32799 0.5007 0.0
H28 H 0.9026 0.67273 0.86161 0.0
N29 N 1.02672 0.60168 0.23732 0.0
C30 C 0.99015 0.6287 0.20148 0.0
C31 C 1.0113 0.63018 0.4629 0.0
C32 C 0.96282 0.65772 0.29627 0.0
C33 C 1.03863 0.60279 0.36634 0.0
C34 C 0.973 0.65771 0.42779 0.0
N35 N 1.00914 0.60011 0.98032 0.0
C36 C 1.00051 0.59862 0.85034 0.0
C37 C 0.94291 0.65533 0.0298 0.0
C38 C 0.98069 0.62766 0.06922 0.0
C39 C 0.93214 0.65247 0.89601 0.0
C40 C 0.96053 0.62363 0.80582 0.0
H41 H 0.95285 0.67963 0.50348 0.0
H42 H 0.90919 0.71073 0.33118 0.0
H43 H 0.8918 0.70871 0.09737 0.0
O44 O 0.11664 0.62588 0.05642 0.0
O45 O 0.98344 0.54053 0.0629 0.0
O46 O 0.96546 0.46677 0.94463 0.0
O47 O 0.13723 0.61126 0.2422 0.0
O48 O 0.09448 0.54033 0.87266 0.0
O49 O 1.02636 0.47944 0.80244 0.0
O50 O 1.01058 0.38251 0.9549 0.0
O51 O 0.14708 0.46601 0.95169 0.0
O52 O 0.16381 0.54113 0.04497 0.0
O53 O 0.99653 0.39317 0.76196 0.0
O54 O 1.0343 0.46657 0.13095 0.0
O55 O 0.10324 0.52692 0.20035 0.0
C56 C 0.9466 0.50401 0.00392 0.0
C57 C 0.18264 0.68056 0.2383 0.0
C58 C 0.2299 0.74662 0.21483 0.0
C59 C 0.2553 0.76043 0.3497 0.0
C60 C 0.2076 0.69484 0.37349 0.0
C61 C 0.24382 0.73466 0.42871 0.0
C62 C 0.19379 0.70666 0.15989 0.0
C63 C 0.06363 0.50732 0.7768 0.0
C64 C 0.14437 0.63893 0.17863 0.0
C65 C 0.92812 0.68688 0.25812 0.0
C66 C 0.91822 0.68569 0.12534 0.0
C67 C 0.18324 0.5032 0.99826 0.0
C68 C 0.95033 0.32511 0.76907 0.0
C69 C 0.89306 0.26313 0.79594 0.0
C70 C 0.88819 0.24148 0.65902 0.0
C71 C 0.94466 0.30344 0.63247 0.0
C72 C 0.92355 0.30529 0.84935 0.0
C73 C 0.91343 0.2618 0.57777 0.0
C74 C 0.06545 0.49949 0.22664 0.0
C75 C 0.987 0.36722 0.82977 0.0
H76 H 0.28328 0.79129 0.39404 0.0
H77 H 0.19906 0.67535 0.43641 0.0
H78 H 0.26296 0.74557 0.53292 0.0
H79 H 0.17497 0.69568 0.05527 0.0
H80 H 0.86612 0.20858 0.61511 0.0
H81 H 0.96543 0.31826 0.56873 0.0
H82 H 0.92678 0.32288 0.95399 0.0
H83 H 0.90983 0.2449 0.47271 0.0
Tb84 Tb 0.48014 0.99223 0.94726 0.0
C85 C 0.72483 0.93695 0.10088 0.0
N86 N 0.69995 0.97132 0.17203 0.0
C87 C 0.7306 0.95459 0.37167 0.0
C88 C 0.75216 0.90915 0.16248 0.0
C89 C 0.70301 0.98073 0.30593 0.0
C90 C 0.75493 0.91843 0.29963 0.0
C91 C 0.74363 0.89234 0.88738 0.0
C92 C 0.71995 0.92858 0.96466 0.0
C93 C 0.77063 0.86438 0.94813 0.0
C94 C 0.77496 0.8728 0.08527 0.0
Tb95 Tb 0.6572 0.01246 0.05587 0.0
N96 N 0.6926 0.95605 0.90855 0.0
C97 C 0.74035 0.88556 0.75157 0.0
C98 C 0.695 0.95166 0.77827 0.0
C99 C 0.71684 0.91573 0.69736 0.0
H100 H 0.68593 0.00929 0.36248 0.0
H101 H 0.71673 0.91176 0.59354 0.0
H102 H 0.44938 0.99443 0.64054 0.0
H103 H 0.41255 0.08884 0.40537 0.0
H104 H 0.68267 0.97612 0.73526 0.0
H105 H 0.75776 0.85802 0.68865 0.0
H106 H 0.44979 0.02574 0.26418 0.0
H107 H 0.73343 0.96264 0.47796 0.0
H108 H 0.78874 0.83631 0.88996 0.0
H109 H 0.79593 0.85094 0.13063 0.0
H110 H 0.40018 0.04009 0.52407 0.0
H111 H 0.77583 0.89798 0.35078 0.0
H112 H 0.37067 0.14242 0.31091 0.0
N113 N 0.43465 0.03218 0.8305 0.0
C114 C 0.40889 0.06611 0.90097 0.0
C115 C 0.40313 0.04835 0.63038 0.0
C116 C 0.38084 0.09355 0.83902 0.0
C117 C 0.43151 0.02265 0.69667 0.0
C118 C 0.37819 0.08427 0.70193 0.0
N119 N 0.44018 0.04657 0.09229 0.0
C120 C 0.4367 0.05019 0.22164 0.0
C121 C 0.38736 0.10944 0.11323 0.0
C122 C 0.41269 0.074 0.0365 0.0
C123 C 0.38933 0.11549 0.24835 0.0
C124 C 0.41323 0.08535 0.30215 0.0
H125 H 0.35664 0.10437 0.65038 0.0
H126 H 0.33517 0.15091 0.87011 0.0
H127 H 0.34069 0.16477 0.11021 0.0
O128 O 0.41418 0.95411 0.99884 0.0
O129 O 0.52465 0.05573 0.94905 0.0
O130 O 0.60586 0.06848 0.11291 0.0
O131 O 0.41113 0.95431 0.79527 0.0
O132 O 0.51728 0.98722 0.14281 0.0
O133 O 0.60356 0.03558 0.21264 0.0
O134 O 0.72604 0.04774 0.0032 0.0
O135 O 0.61108 0.95001 0.0588 0.0
O136 O 0.53399 0.93814 0.88954 0.0
O137 O 0.73064 0.04553 0.20138 0.0
O138 O 0.62112 0.01987 0.86291 0.0
O139 O 0.53529 0.97145 0.7923 0.0
C140 C 0.5689 0.08244 0.03363 0.0
C141 C 0.33302 0.90702 0.83442 0.0
C142 C 0.27362 0.84789 0.87233 0.0
C143 C 0.24184 0.83685 0.74253 0.0
C144 C 0.30094 0.89573 0.70517 0.0
C145 C 0.25515 0.86101 0.66011 0.0
C146 C 0.31819 0.8837 0.91809 0.0
C147 C 0.56063 0.01125 0.23741 0.0
C148 C 0.3873 0.93843 0.87627 0.0
C149 C 0.35669 0.12931 0.91569 0.0
C150 C 0.36002 0.13727 0.05247 0.0
C151 C 0.56724 0.92361 0.97265 0.0
C152 C 0.76668 0.11178 0.17766 0.0
C153 C 0.79868 0.17958 0.14207 0.0
C154 C 0.79234 0.20255 0.27246 0.0
C155 C 0.76053 0.13512 0.30849 0.0
C156 C 0.7857 0.13435 0.09537 0.0
C157 C 0.77296 0.18031 0.35495 0.0
C158 C 0.57685 0.99709 0.76876 0.0
C159 C 0.75336 0.06414 0.12519 0.0
H160 H 0.20777 0.80902 0.7036 0.0
H161 H 0.31221 0.91297 0.63802 0.0
H162 H 0.23096 0.85209 0.55992 0.0
H163 H 0.34288 0.89264 0.01798 0.0
H164 H 0.80198 0.2376 0.30989 0.0
H165 H 0.74566 0.11865 0.37462 0.0
H166 H 0.79149 0.11659 0.99522 0.0
H167 H 0.76754 0.19811 0.45503 0.0
Tb168 Tb 0.55483 0.43741 0.94876 0.0
C169 C 0.68206 0.62951 0.25024 0.0
N170 N 0.63069 0.60688 0.2594 0.0
C171 C 0.64776 0.64119 0.49575 0.0
C172 C 0.71746 0.65959 0.36405 0.0
C173 C 0.61189 0.614 0.37957 0.0
C174 C 0.7009 0.66404 0.4881 0.0
C175 C 0.74635 0.65112 0.11096 0.0
C176 C 0.69746 0.62461 0.12509 0.0
C177 C 0.77879 0.68299 0.2235 0.0
C178 C 0.76601 0.68615 0.3499 0.0
Tb179 Tb 0.5749 0.56928 0.05762 0.0
N180 N 0.66362 0.59448 0.01703 0.0
C181 C 0.75989 0.64574 0.98368 0.0
C182 C 0.6757 0.58978 0.89235 0.0
C183 C 0.72476 0.61465 0.87412 0.0
H184 H 0.56809 0.60083 0.38704 0.0
H185 H 0.73423 0.61089 0.77522 0.0
H186 H 0.5632 0.40522 0.62026 0.0
H187 H 0.39398 0.39625 0.22872 0.0
H188 H 0.6464 0.56806 0.80689 0.0
H189 H 0.79677 0.66576 0.96848 0.0
H190 H 0.48198 0.43917 0.19801 0.0
H191 H 0.63301 0.64605 0.59059 0.0
H192 H 0.8128 0.70619 0.21374 0.0
H193 H 0.79237 0.71056 0.43565 0.0
H194 H 0.49909 0.35953 0.41602 0.0
H195 H 0.72737 0.68644 0.57785 0.0
H196 H 0.33231 0.34092 0.03524 0.0
N197 N 0.49988 0.39932 0.74652 0.0
C198 C 0.4484 0.37669 0.75504 0.0
C199 C 0.48388 0.36456 0.51046 0.0
C200 C 0.41343 0.3464 0.64103 0.0
C201 C 0.51928 0.39199 0.62692 0.0
C202 C 0.43059 0.34173 0.5174 0.0
N203 N 0.46579 0.4122 0.98796 0.0
C204 C 0.45308 0.41718 0.11234 0.0
C205 C 0.38337 0.35534 0.89341 0.0
C206 C 0.43241 0.38183 0.87978 0.0
C207 C 0.36927 0.36094 0.02036 0.0
C208 C 0.40392 0.39229 0.13006 0.0
H209 H 0.40446 0.31916 0.42749 0.0
H210 H 0.3386 0.29537 0.56878 0.0
H211 H 0.31704 0.30019 0.79018 0.0
O212 O 0.5755 0.39815 0.06995 0.0
O213 O 0.46954 0.46895 0.94995 0.0
O214 O 0.48135 0.54412 0.05733 0.0
O215 O 0.5773 0.37411 0.86138 0.0
O216 O 0.59182 0.47834 0.15226 0.0
O217 O 0.54385 0.53927 0.19978 0.0
O218 O 0.5526 0.60868 0.93724 0.0
O219 O 0.66019 0.53769 0.05448 0.0
O220 O 0.64857 0.46237 0.94977 0.0
O221 O 0.55356 0.63266 0.14684 0.0
O222 O 0.53803 0.52854 0.85377 0.0
O223 O 0.58567 0.46739 0.80635 0.0
C224 C 0.4473 0.50621 0.99963 0.0
C225 C 0.61807 0.33141 0.99223 0.0
C226 C 0.63007 0.26018 0.0252 0.0
C227 C 0.69244 0.27175 0.04574 0.0
C228 C 0.68032 0.34093 0.01093 0.0
C229 C 0.71712 0.31118 0.03693 0.0
C230 C 0.59279 0.2905 0.99712 0.0
C231 C 0.56501 0.50686 0.23325 0.0
C232 C 0.57924 0.36415 0.97028 0.0
C233 C 0.36468 0.3199 0.65465 0.0
C234 C 0.35129 0.32331 0.78076 0.0
C235 C 0.68253 0.5004 0.00598 0.0
C236 C 0.51117 0.67591 0.02012 0.0
C237 C 0.49883 0.74787 0.99256 0.0
C238 C 0.4368 0.73816 0.98666 0.0
C239 C 0.4493 0.66797 0.01405 0.0
C240 C 0.53613 0.71628 0.01088 0.0
C241 C 0.41255 0.69898 0.99799 0.0
C242 C 0.56448 0.49976 0.77267 0.0
C243 C 0.55008 0.64269 0.03792 0.0
H244 H 0.72253 0.25004 0.06848 0.0
H245 H 0.70046 0.37158 0.00654 0.0
H246 H 0.76529 0.31886 0.05171 0.0
H247 H 0.54458 0.28286 0.98236 0.0
H248 H 0.40665 0.76123 0.97439 0.0
H249 H 0.42943 0.63775 0.02197 0.0
H250 H 0.58406 0.72269 0.01586 0.0
H251 H 0.36472 0.69261 0.99404 0.0
C252 C 0.11433 0.52366 0.59894 0.0
C253 C 0.06362 0.50607 0.63634 0.0
H254 H 0.15528 0.53458 0.44068 0.0
C255 C 1.01358 0.48619 0.53758 0.0
H256 H 0.15367 0.539 0.67219 0.0
C257 C 1.01458 0.48342 0.40471 0.0
C258 C 0.0653 0.50099 0.36728 0.0
H259 H 0.97367 0.47244 0.56297 0.0
H260 H 0.97525 0.46804 0.33145 0.0
C261 C 0.11533 0.52088 0.46607 0.0
C262 C 0.59469 0.04191 0.48487 0.0
C263 C 0.56342 0.00833 0.37407 0.0
H264 H 0.62391 0.06455 0.69567 0.0
C265 C 0.53723 0.97085 0.39427 0.0
H266 H 0.61536 0.07123 0.4728 0.0
C267 C 0.54268 0.96684 0.52165 0.0
C268 C 0.57385 1.00041 0.63251 0.0
H269 H 0.51338 0.94417 0.31114 0.0
H270 H 0.52216 0.93744 0.53349 0.0
C271 C 0.60003 0.03793 0.61243 0.0
C272 C 0.52657 0.52648 0.58221 0.0
C273 C 0.56449 0.50129 0.63418 0.0
H274 H 0.49584 0.54726 0.41588 0.0
C275 C 0.60283 0.47829 0.55297 0.0
H276 H 0.49635 0.5447 0.64123 0.0
C277 C 0.60274 0.47997 0.42349 0.0
C278 C 0.56486 0.50518 0.37156 0.0
H279 H 0.63353 0.45924 0.58989 0.0
H280 H 0.63298 0.46176 0.36449 0.0
C281 C 0.52649 0.52816 0.45274 0.0
C282 C 0.27619 0.46612 0.93194 0.0
C283 C 0.25072 0.50337 0.99705 0.0
H284 H 0.35495 0.43801 0.87544 0.0
C285 C 0.29113 0.54167 0.0609 0.0
H286 H 0.24775 0.436 0.87985 0.0
C287 C 0.35373 0.54251 0.06117 0.0
C288 C 0.37935 0.50519 0.99669 0.0
H289 H 0.27448 0.57141 0.11222 0.0
H290 H 0.38213 0.57277 0.11288 0.0
C291 C 0.33876 0.46718 0.9306 0.0
C292 C 0.87467 0.23037 0.09946 0.0
C293 C 0.82122 0.20215 0.05515 0.0
H294 H 0.94096 0.26988 0.05039 0.0
C295 C 0.79115 0.19378 0.92528 0.0
H296 H 0.89909 0.23655 0.19849 0.0
C297 C 0.81397 0.21392 0.84124 0.0
C298 C 0.86809 0.24182 0.88465 0.0
H299 H 0.74947 0.17224 0.88978 0.0
H300 H 0.78897 0.20786 0.74292 0.0
C301 C 0.89835 0.24955 0.01452 0.0
C302 C 0.50619 0.8493 0.88132 0.0
C303 C 0.55394 0.87733 0.97163 0.0
H304 H 0.45273 0.78721 0.81499 0.0
C305 C 0.58678 0.86091 0.06338 0.0
H306 H 0.47971 0.86021 0.80875 0.0
C307 C 0.57138 0.81834 0.06647 0.0
C308 C 0.52204 0.79099 0.97912 0.0
H309 H 0.6235 0.88134 0.13558 0.0
H310 H 0.59653 0.80757 0.14111 0.0
C311 C 0.49057 0.80712 0.88512 0.0
C312 C 0.83861 0.46548 0.94071 0.0
C313 C 0.87911 0.50363 0.00624 0.0
H314 H 0.74761 0.43431 0.8886 0.0
C315 C 0.85371 0.54056 0.07428 0.0
H316 H 0.85517 0.43593 0.88756 0.0
C317 C 0.79113 0.53938 0.07613 0.0
C318 C 0.75049 0.50152 0.00833 0.0
H319 H 0.88218 0.57055 0.12782 0.0
H320 H 0.77497 0.56832 0.13306 0.0
C321 C 0.77606 0.46447 0.94151 0.0
C322 C 0.2995 0.79006 0.1283 0.0
C323 C 0.24099 0.77335 0.1297 0.0
H324 H 0.35586 0.82562 0.04298 0.0
C325 C 0.19316 0.78076 0.04527 0.0
H326 H 0.33715 0.78398 0.19065 0.0
C327 C 0.20364 0.80475 0.96107 0.0
C328 C 0.26221 0.8216 0.95944 0.0
H329 H 0.14754 0.76827 0.04526 0.0
H330 H 0.16581 0.81067 0.89896 0.0
C331 C 0.31005 0.8138 0.04355 0.0
C332 C 0.56258 0.18718 0.93737 0.0
C333 C 0.60671 0.21662 0.03535 0.0
H334 H 0.5164 0.12208 0.85844 0.0
C335 C 0.63385 0.2022 0.1379 0.0
H336 H 0.54071 0.19672 0.85641 0.0
C337 C 0.61999 0.15956 0.13921 0.0
C338 C 0.57847 0.1293 0.03788 0.0
H339 H 0.66713 0.22389 0.21675 0.0
H340 H 0.64275 0.15009 0.21925 0.0
C341 C 0.5488 0.14414 0.93842 0.0
loop_
_geom_bond_atom_site_label_1
_geom_bond_atom_site_label_2
_geom_bond_distance
_geom_bond_site_symmetry_2
_ccdc_geom_bond_type
Tb0 N29 2.617 1_455 S
Tb0 N35 2.572 1_455 S
Tb0 O44 2.465 1_554 S
Tb0 O45 2.387 1_455 S
Tb0 O47 2.428 . S
Tb0 O48 2.308 1_454 S
Tb0 O52 2.349 . S
Tb0 O55 2.393 . S
Tb0 C64 2.802 . S
C1 N2 1.379 . S
C1 C4 1.416 . S
C1 C8 1.424 . S
N2 C1 1.379 . S
N2 C5 1.334 . S
N2 Tb11 2.617 1_455 S
C3 C5 1.390 . S
C3 C6 1.339 . S
C3 H23 0.930 . S
C4 C1 1.416 . S
C4 C6 1.416 . S
C4 C10 1.448 . S
C5 N2 1.334 . S
C5 C3 1.390 . S
C5 H16 0.930 1_455 S
C6 C3 1.339 . S
C6 C4 1.416 . S
C6 H27 0.930 . S
C7 C8 1.413 . S
C7 C9 1.427 . S
C7 C13 1.416 1_556 S
C8 C1 1.424 . S
C8 C7 1.413 . S
C8 N12 1.361 . S
C9 C7 1.427 . S
C9 C10 1.328 . S
C9 H24 0.929 . S
C10 C4 1.448 . S
C10 C9 1.328 . S
C10 H25 0.930 . S
Tb11 N2 2.617 1_655 S
Tb11 N12 2.572 1_655 S
Tb11 O46 2.349 . S
Tb11 O49 2.393 . S
Tb11 O50 2.465 1_556 S
Tb11 O51 2.387 1_655 S
Tb11 O53 2.428 . S
Tb11 O54 2.308 1_656 S
Tb11 C75 2.802 . S
N12 C8 1.361 . S
N12 Tb11 2.572 1_455 S
N12 C14 1.340 1_556 S
C13 C7 1.416 1_554 S
C13 C15 1.332 . S
C13 H21 0.931 . S
C14 N12 1.340 1_554 S
C14 C15 1.407 . S
C14 H20 0.930 . S
C15 C13 1.332 . S
C15 C14 1.407 . S
C15 H17 0.929 . S
H16 C5 0.930 1_655 S
H17 C15 0.929 . S
H18 C33 0.930 1_455 S
H19 C40 0.929 . S
H20 C14 0.930 . S
H21 C13 0.931 . S
H22 C36 0.930 . S
H23 C3 0.930 . S
H24 C9 0.929 . S
H25 C10 0.930 . S
H26 C31 0.930 . S
H27 C6 0.930 . S
H28 C39 0.931 . S
N29 Tb0 2.617 1_655 S
N29 C30 1.379 . S
N29 C33 1.334 . S
C30 N29 1.379 . S
C30 C32 1.416 . S
C30 C38 1.424 . S
C31 H26 0.930 . S
C31 C33 1.390 . S
C31 C34 1.339 . S
C32 C30 1.416 . S
C32 C34 1.416 . S
C32 C65 1.448 . S
C33 H18 0.930 1_655 S
C33 N29 1.334 . S
C33 C31 1.390 . S
C34 C31 1.339 . S
C34 C32 1.416 . S
C34 H41 0.930 . S
N35 Tb0 2.572 1_655 S
N35 C36 1.340 1_554 S
N35 C38 1.361 . S
C36 H22 0.930 . S
C36 N35 1.340 1_556 S
C36 C40 1.407 . S
C37 C38 1.413 . S
C37 C39 1.416 1_554 S
C37 C66 1.427 . S
C38 C30 1.424 . S
C38 N35 1.361 . S
C38 C37 1.413 . S
C39 H28 0.931 . S
C39 C37 1.416 1_556 S
C39 C40 1.332 . S
C40 H19 0.929 . S
C40 C36 1.407 . S
C40 C39 1.332 . S
H41 C34 0.930 . S
H42 C65 0.930 . S
H43 C66 0.929 . S
O44 Tb0 2.465 1_556 S
O44 C64 1.264 1_556 S
O45 Tb0 2.387 1_655 S
O45 C56 1.264 1_554 S
O46 Tb11 2.349 . S
O46 C56 1.243 . S
O47 Tb0 2.428 . S
O47 C64 1.256 . S
O48 Tb0 2.308 1_656 S
O48 C63 1.266 . S
O49 Tb11 2.393 . S
O49 C63 1.248 . S
O50 Tb11 2.465 1_554 S
O50 C75 1.264 1_554 S
O51 Tb11 2.387 1_455 S
O51 C67 1.264 1_556 S
O52 Tb0 2.349 . S
O52 C67 1.243 . S
O53 Tb11 2.428 . S
O53 C75 1.256 . S
O54 Tb11 2.308 1_454 S
O54 C74 1.266 . S
O55 Tb0 2.393 . S
O55 C74 1.248 . S
C56 O45 1.264 1_556 S
C56 O46 1.243 . S
C57 C60 1.399 . S
C57 C62 1.383 . S
C57 C64 1.496 . S
C58 C59 1.399 . S
C58 C62 1.389 . S
C59 C58 1.399 . S
C59 C61 1.380 . S
C59 H76 0.929 . S
C60 C57 1.399 . S
C60 C61 1.392 . S
C60 H77 0.929 . S
C61 C59 1.380 . S
C61 C60 1.392 . S
C61 H78 0.929 . S
C62 C57 1.383 . S
C62 C58 1.389 . S
C62 H79 0.931 1_554 S
C63 O48 1.266 . S
C63 O49 1.248 . S
C64 Tb0 2.802 . S
C64 O44 1.264 1_554 S
C64 O47 1.256 . S
C64 C57 1.496 . S
C65 C32 1.448 . S
C65 H42 0.930 . S
C65 C66 1.328 . S
C66 C37 1.427 . S
C66 H43 0.929 . S
C66 C65 1.328 . S
C67 O51 1.264 1_554 S
C67 O52 1.243 . S
C68 C71 1.399 . S
C68 C72 1.383 . S
C68 C75 1.496 . S
C69 C70 1.399 . S
C69 C72 1.389 . S
C70 C69 1.399 . S
C70 C73 1.380 . S
C70 H80 0.929 . S
C71 C68 1.399 . S
C71 C73 1.392 . S
C71 H81 0.929 . S
C72 C68 1.383 . S
C72 C69 1.389 . S
C72 H82 0.931 1_556 S
C73 C70 1.380 . S
C73 C71 1.392 . S
C73 H83 0.929 . S
C74 O54 1.266 . S
C74 O55 1.248 . S
C75 Tb11 2.802 . S
C75 O50 1.264 1_556 S
C75 O53 1.256 . S
C75 C68 1.496 . S
H76 C59 0.929 . S
H77 C60 0.929 . S
H78 C61 0.929 . S
H79 C62 0.931 1_556 S
H80 C70 0.929 . S
H81 C71 0.929 . S
H82 C72 0.931 1_554 S
H83 C73 0.929 . S
Tb84 N113 2.617 . S
Tb84 N119 2.572 1_566 S
Tb84 O128 2.465 1_556 S
Tb84 O129 2.387 1_565 S
Tb84 O131 2.428 . S
Tb84 O132 2.308 1_566 S
Tb84 O136 2.349 . S
Tb84 O139 2.393 . S
Tb84 C148 2.802 . S
C85 N86 1.379 1_565 S
C85 C88 1.416 . S
C85 C92 1.424 . S
N86 C85 1.379 1_545 S
N86 C89 1.334 . S
N86 Tb95 2.617 . S
C87 C89 1.390 . S
C87 C90 1.339 1_545 S
C87 H107 0.930 . S
C88 C85 1.416 . S
C88 C90 1.416 . S
C88 C94 1.448 . S
C89 N86 1.334 . S
C89 C87 1.390 . S
C89 H100 0.930 . S
C90 C87 1.339 1_565 S
C90 C88 1.416 . S
C90 H111 0.930 . S
C91 C92 1.413 1_556 S
C91 C93 1.427 1_556 S
C91 C97 1.416 . S
C92 C85 1.424 . S
C92 C91 1.413 1_554 S
C92 N96 1.361 1_554 S
C93 C91 1.427 1_554 S
C93 C94 1.328 . S
C93 H108 0.929 . S
C94 C88 1.448 . S
C94 C93 1.328 . S
C94 H109 0.930 . S
Tb95 N86 2.617 . S
Tb95 N96 2.572 1_544 S
Tb95 O130 2.349 . S
Tb95 O133 2.393 . S
Tb95 O134 2.465 1_554 S
Tb95 O135 2.387 1_545 S
Tb95 O137 2.428 . S
Tb95 O138 2.308 1_544 S
Tb95 C159 2.802 . S
N96 C92 1.361 1_556 S
N96 Tb95 2.572 1_566 S
N96 C98 1.340 . S
C97 C91 1.416 . S
C97 C99 1.332 . S
C97 H105 0.931 . S
C98 N96 1.340 . S
C98 C99 1.407 . S
C98 H104 0.930 . S
C99 C97 1.332 . S
C99 C98 1.407 . S
C99 H101 0.929 . S
H100 C89 0.930 . S
H101 C99 0.929 . S
H102 C117 0.930 . S
H103 C124 0.929 . S
H104 C98 0.930 . S
H105 C97 0.931 . S
H106 C120 0.930 . S
H107 C87 0.930 . S
H108 C93 0.929 . S
H109 C94 0.930 . S
H110 C115 0.930 1_565 S
H111 C90 0.930 . S
H112 C123 0.931 . S
N113 Tb84 2.617 . S
N113 C114 1.379 1_565 S
N113 C117 1.334 . S
C114 N113 1.379 1_545 S
C114 C116 1.416 . S
C114 C122 1.424 . S
C115 H110 0.930 1_545 S
C115 C117 1.373 1_545 S
C115 C118 1.356 . S
C116 C114 1.416 . S
C116 C118 1.416 . S
C116 C149 1.448 . S
C117 H102 0.930 . S
C117 N113 1.334 . S
C117 C115 1.373 1_565 S
C118 C115 1.356 . S
C118 C116 1.416 . S
C118 H125 0.930 . S
N119 Tb84 2.572 1_544 S
N119 C120 1.340 . S
N119 C122 1.361 1_554 S
C120 H106 0.930 . S
C120 N119 1.340 . S
C120 C124 1.407 . S
C121 C122 1.413 1_554 S
C121 C123 1.416 . S
C121 C150 1.427 1_554 S
C122 C114 1.424 . S
C122 N119 1.361 1_556 S
C122 C121 1.413 1_556 S
C123 H112 0.931 . S
C123 C121 1.416 . S
C123 C124 1.332 . S
C124 H103 0.929 . S
C124 C120 1.407 . S
C124 C123 1.332 . S
H125 C118 0.930 . S
H126 C149 0.930 . S
H127 C150 0.929 . S
O128 Tb84 2.465 1_554 S
O128 C148 1.264 1_554 S
O129 Tb84 2.387 1_545 S
O129 C140 1.264 1_556 S
O130 Tb95 2.349 . S
O130 C140 1.243 . S
O131 Tb84 2.428 . S
O131 C148 1.256 . S
O132 Tb84 2.308 1_544 S
O132 C147 1.266 . S
O133 Tb95 2.393 . S
O133 C147 1.248 . S
O134 Tb95 2.465 1_556 S
O134 C159 1.264 1_556 S
O135 Tb95 2.387 1_565 S
O135 C151 1.264 1_554 S
O136 Tb84 2.349 . S
O136 C151 1.243 . S
O137 Tb95 2.428 . S
O137 C159 1.256 . S
O138 Tb95 2.308 1_566 S
O138 C158 1.266 . S
O139 Tb84 2.393 . S
O139 C158 1.248 . S
C140 O129 1.264 1_554 S
C140 O130 1.243 . S
C141 C144 1.399 . S
C141 C146 1.383 1_556 S
C141 C148 1.496 . S
C142 C143 1.399 1_554 S
C142 C146 1.389 . S
C143 C142 1.399 1_556 S
C143 C145 1.380 . S
C143 H160 0.929 . S
C144 C141 1.399 . S
C144 C145 1.392 . S
C144 H161 0.929 . S
C145 C143 1.380 . S
C145 C144 1.392 . S
C145 H162 0.929 . S
C146 C141 1.383 1_554 S
C146 C142 1.389 . S
C146 H163 0.931 . S
C147 O132 1.266 . S
C147 O133 1.248 . S
C148 Tb84 2.802 . S
C148 O128 1.264 1_556 S
C148 O131 1.256 . S
C148 C141 1.496 . S
C149 C116 1.448 . S
C149 H126 0.930 . S
C149 C150 1.328 . S
C150 C121 1.427 1_556 S
C150 H127 0.929 . S
C150 C149 1.328 . S
C151 O135 1.264 1_556 S
C151 O136 1.243 . S
C152 C155 1.399 . S
C152 C156 1.383 1_554 S
C152 C159 1.496 . S
C153 C154 1.399 1_556 S
C153 C156 1.389 . S
C154 C153 1.399 1_554 S
C154 C157 1.380 . S
C154 H164 0.929 . S
C155 C152 1.399 . S
C155 C157 1.392 . S
C155 H165 0.929 . S
C156 C152 1.383 1_556 S
C156 C153 1.389 . S
C156 H166 0.931 . S
C157 C154 1.380 . S
C157 C155 1.392 . S
C157 H167 0.929 . S
C158 O138 1.266 . S
C158 O139 1.248 . S
C159 Tb95 2.802 . S
C159 O134 1.264 1_554 S
C159 O137 1.256 . S
C159 C152 1.496 . S
H160 C143 0.929 . S
H161 C144 0.929 . S
H162 C145 0.929 . S
H163 C146 0.931 . S
H164 C154 0.929 . S
H165 C155 0.929 . S
H166 C156 0.931 . S
H167 C157 0.929 . S
Tb168 N197 2.617 . S
Tb168 N203 2.572 . S
Tb168 O212 2.465 1_556 S
Tb168 O213 2.387 . S
Tb168 O215 2.428 . S
Tb168 O216 2.308 1_556 S
Tb168 O220 2.349 . S
Tb168 O223 2.393 . S
Tb168 C232 2.802 . S
C169 N170 1.379 . S
C169 C172 1.416 . S
C169 C176 1.424 . S
N170 C169 1.379 . S
N170 C173 1.334 . S
N170 Tb179 2.617 . S
C171 C173 1.390 . S
C171 C174 1.339 . S
C171 H191 0.930 . S
C172 C169 1.416 . S
C172 C174 1.416 . S
C172 C178 1.448 . S
C173 N170 1.334 . S
C173 C171 1.390 . S
C173 H184 0.930 . S
C174 C171 1.339 . S
C174 C172 1.416 . S
C174 H195 0.930 . S
C175 C176 1.413 . S
C175 C177 1.427 . S
C175 C181 1.413 1_554 S
C176 C169 1.424 . S
C176 C175 1.413 . S
C176 N180 1.361 . S
C177 C175 1.427 . S
C177 C178 1.328 . S
C177 H192 0.929 . S
C178 C172 1.448 . S
C178 C177 1.328 . S
C178 H193 0.930 . S
Tb179 N170 2.617 . S
Tb179 N180 2.572 . S
Tb179 O214 2.349 . S
Tb179 O217 2.393 . S
Tb179 O218 2.465 1_554 S
Tb179 O219 2.387 . S
Tb179 O221 2.428 . S
Tb179 O222 2.308 1_554 S
Tb179 C243 2.802 . S
N180 C176 1.361 . S
N180 Tb179 2.572 . S
N180 C182 1.340 1_554 S
C181 C175 1.413 1_556 S
C181 C183 1.334 . S
C181 H189 0.932 . S
C182 N180 1.340 1_556 S
C182 C183 1.407 . S
C182 H188 0.930 . S
C183 C181 1.334 . S
C183 C182 1.407 . S
C183 H185 0.929 . S
H184 C173 0.930 . S
H185 C183 0.929 . S
H186 C201 0.930 . S
H187 C208 0.929 . S
H188 C182 0.930 . S
H189 C181 0.932 . S
H190 C204 0.930 . S
H191 C171 0.930 . S
H192 C177 0.929 . S
H193 C178 0.930 . S
H194 C199 0.930 . S
H195 C174 0.930 . S
H196 C207 0.931 . S
N197 Tb168 2.617 . S
N197 C198 1.379 . S
N197 C201 1.334 . S
C198 N197 1.379 . S
C198 C200 1.416 . S
C198 C206 1.424 . S
C199 H194 0.930 . S
C199 C201 1.390 . S
C199 C202 1.339 . S
C200 C198 1.416 . S
C200 C202 1.416 . S
C200 C233 1.448 . S
C201 H186 0.930 . S
C201 N197 1.334 . S
C201 C199 1.390 . S
C202 C199 1.339 . S
C202 C200 1.416 . S
C202 H209 0.930 . S
N203 Tb168 2.572 . S
N203 C204 1.340 1_556 S
N203 C206 1.361 . S
C204 H190 0.930 . S
C204 N203 1.340 1_554 S
C204 C208 1.407 . S
C205 C206 1.413 . S
C205 C207 1.416 1_556 S
C205 C234 1.427 . S
C206 C198 1.424 . S
C206 N203 1.361 . S
C206 C205 1.413 . S
C207 H196 0.931 . S
C207 C205 1.416 1_554 S
C207 C208 1.332 . S
C208 H187 0.929 . S
C208 C204 1.407 . S
C208 C207 1.332 . S
H209 C202 0.930 . S
H210 C233 0.930 . S
H211 C234 0.929 . S
O212 Tb168 2.465 1_554 S
O212 C232 1.264 1_554 S
O213 Tb168 2.387 . S
O213 C224 1.264 . S
O214 Tb179 2.349 . S
O214 C224 1.243 1_554 S
O215 Tb168 2.428 . S
O215 C232 1.256 . S
O216 Tb168 2.308 1_554 S
O216 C231 1.266 . S
O217 Tb179 2.393 . S
O217 C231 1.248 . S
O218 Tb179 2.465 1_556 S
O218 C243 1.264 1_556 S
O219 Tb179 2.387 . S
O219 C235 1.264 . S
O220 Tb168 2.349 . S
O220 C235 1.243 1_556 S
O221 Tb179 2.428 . S
O221 C243 1.256 . S
O222 Tb179 2.308 1_556 S
O222 C242 1.266 . S
O223 Tb168 2.393 . S
O223 C242 1.248 . S
C224 O213 1.264 . S
C224 O214 1.243 1_556 S
C225 C228 1.399 . S
C225 C230 1.383 1_556 S
C225 C232 1.496 . S
C226 C227 1.399 . S
C226 C230 1.389 1_556 S
C227 C226 1.399 . S
C227 C229 1.380 . S
C227 H244 0.929 . S
C228 C225 1.399 . S
C228 C229 1.392 . S
C228 H245 0.929 . S
C229 C227 1.380 . S
C229 C228 1.392 . S
C229 H246 0.929 . S
C230 C225 1.383 1_554 S
C230 C226 1.389 1_554 S
C230 H247 0.931 . S
C231 O216 1.266 . S
C231 O217 1.248 . S
C232 Tb168 2.802 . S
C232 O212 1.264 1_556 S
C232 O215 1.256 . S
C232 C225 1.496 . S
C233 C200 1.448 . S
C233 H210 0.930 . S
C233 C234 1.328 . S
C234 C205 1.427 . S
C234 H211 0.929 . S
C234 C233 1.328 . S
C235 O219 1.264 . S
C235 O220 1.243 1_554 S
C236 C239 1.399 . S
C236 C240 1.375 1_554 S
C236 C243 1.496 . S
C237 C238 1.399 . S
C237 C240 1.391 1_554 S
C238 C237 1.399 . S
C238 C241 1.380 . S
C238 H248 0.929 . S
C239 C236 1.399 . S
C239 C241 1.392 . S
C239 H249 0.929 . S
C240 C236 1.375 1_556 S
C240 C237 1.391 1_556 S
C240 H250 0.937 . S
C241 C238 1.380 . S
C241 C239 1.392 . S
C241 H251 0.929 . S
C242 O222 1.266 . S
C242 O223 1.248 . S
C243 Tb179 2.802 . S
C243 O218 1.264 1_554 S
C243 O221 1.256 . S
C243 C236 1.496 . S
H244 C227 0.929 . S
H245 C228 0.929 . S
H246 C229 0.929 . S
H247 C230 0.931 . S
H248 C238 0.929 . S
H249 C239 0.929 . S
H250 C240 0.937 . S
H251 C241 0.929 . S
C252 C253 1.387 1_455 S
C252 H256 0.950 . S
C252 C261 1.390 . S
C253 C252 1.387 1_655 S
C253 C255 1.387 . S
H254 C261 0.950 . S
C255 C253 1.387 . S
C255 C257 1.390 . S
C255 H259 0.950 . S
H256 C252 0.950 . S
C257 C255 1.390 . S
C257 C258 1.387 1_655 S
C257 H260 0.950 . S
C258 C257 1.387 1_455 S
C258 C261 1.387 . S
H259 C255 0.950 . S
H260 C257 0.950 . S
C261 C252 1.390 . S
C261 H254 0.950 . S
C261 C258 1.387 . S
C262 C263 1.387 . S
C262 H266 0.950 . S
C262 C271 1.390 . S
C263 C262 1.387 . S
C263 C265 1.375 1_545 S
H264 C271 0.950 . S
C265 C263 1.375 1_565 S
C265 C267 1.404 . S
C265 H269 0.949 . S
H266 C262 0.950 . S
C267 C265 1.404 . S
C267 C268 1.387 . S
C267 H270 0.950 . S
C268 C267 1.387 . S
C268 C271 1.387 1_565 S
H269 C265 0.949 . S
H270 C267 0.950 . S
C271 C262 1.390 . S
C271 H264 0.950 . S
C271 C268 1.387 1_545 S
C272 C273 1.387 . S
C272 H276 0.950 . S
C272 C281 1.390 . S
C273 C272 1.387 . S
C273 C275 1.387 . S
H274 C281 0.950 . S
C275 C273 1.387 . S
C275 C277 1.390 . S
C275 H279 0.950 . S
H276 C272 0.950 . S
C277 C275 1.390 . S
C277 C278 1.387 . S
C277 H280 0.950 . S
C278 C277 1.387 . S
C278 C281 1.387 . S
H279 C275 0.950 . S
H280 C277 0.950 . S
C281 C272 1.390 . S
C281 H274 0.950 . S
C281 C278 1.387 . S
C282 C283 1.387 1_556 S
C282 H286 0.950 . S
C282 C291 1.390 . S
C283 C282 1.387 1_554 S
C283 C285 1.387 . S
H284 C291 0.950 . S
C285 C283 1.387 . S
C285 C287 1.390 . S
C285 H289 0.950 . S
H286 C282 0.950 . S
C287 C285 1.390 . S
C287 C288 1.387 1_554 S
C287 H290 0.950 . S
C288 C287 1.387 1_556 S
C288 C291 1.387 . S
H289 C285 0.950 . S
H290 C287 0.950 . S
C291 C282 1.390 . S
C291 H284 0.950 . S
C291 C288 1.387 . S
C292 C293 1.387 1_554 S
C292 H296 0.950 . S
C292 C301 1.390 . S
C293 C292 1.387 1_556 S
C293 C295 1.387 . S
H294 C301 0.950 . S
C295 C293 1.387 . S
C295 C297 1.390 . S
C295 H299 0.950 . S
H296 C292 0.950 . S
C297 C295 1.390 . S
C297 C298 1.387 1_556 S
C297 H300 0.950 . S
C298 C297 1.387 1_554 S
C298 C301 1.387 . S
H299 C295 0.950 . S
H300 C297 0.950 . S
C301 C292 1.390 . S
C301 H294 0.950 . S
C301 C298 1.387 . S
C302 C303 1.387 . S
C302 H306 0.950 . S
C302 C311 1.390 . S
C303 C302 1.387 . S
C303 C305 1.387 1_556 S
H304 C311 0.950 . S
C305 C303 1.387 1_554 S
C305 C307 1.390 . S
C305 H309 0.950 . S
H306 C302 0.950 . S
C307 C305 1.390 . S
C307 C308 1.387 1_554 S
C307 H310 0.950 . S
C308 C307 1.387 1_556 S
C308 C311 1.387 . S
H309 C305 0.950 . S
H310 C307 0.950 . S
C311 C302 1.390 . S
C311 H304 0.950 . S
C311 C308 1.387 . S
C312 C313 1.387 . S
C312 H316 0.950 . S
C312 C321 1.390 . S
C313 C312 1.387 . S
C313 C315 1.387 1_556 S
H314 C321 0.950 . S
C315 C313 1.387 1_554 S
C315 C317 1.390 . S
C315 H319 0.950 . S
H316 C312 0.950 . S
C317 C315 1.390 . S
C317 C318 1.387 . S
C317 H320 0.950 . S
C318 C317 1.387 . S
C318 C321 1.387 1_554 S
H319 C315 0.950 . S
H320 C317 0.950 . S
C321 C312 1.390 . S
C321 H314 0.950 . S
C321 C318 1.387 1_556 S
C322 C323 1.387 1_554 S
C322 H326 0.950 . S
C322 C331 1.390 . S
C323 C322 1.387 1_556 S
C323 C325 1.387 . S
H324 C331 0.950 . S
C325 C323 1.387 . S
C325 C327 1.390 1_556 S
C325 H329 0.950 . S
H326 C322 0.950 . S
C327 C325 1.390 1_554 S
C327 C328 1.387 . S
C327 H330 0.950 . S
C328 C327 1.387 . S
C328 C331 1.387 . S
H329 C325 0.950 . S
H330 C327 0.950 . S
C331 C322 1.390 . S
C331 H324 0.950 . S
C331 C328 1.387 . S
C332 C333 1.387 1_556 S
C332 H336 0.950 . S
C332 C341 1.390 . S
C333 C332 1.387 1_554 S
C333 C335 1.387 . S
H334 C341 0.950 . S
C335 C333 1.387 . S
C335 C337 1.390 . S
C335 H339 0.950 . S
H336 C332 0.950 . S
C337 C335 1.390 . S
C337 C338 1.387 . S
C337 H340 0.950 . S
C338 C337 1.387 . S
C338 C341 1.387 1_554 S
H339 C335 0.950 . S
H340 C337 0.950 . S
C341 C332 1.390 . S
C341 H334 0.950 . S
C341 C338 1.387 1_556 S
C253 C63 1.490 . S
C258 C74 1.490 . S
C263 C147 1.534 . S
C268 C158 1.534 . S
C273 C242 1.473 . S
C278 C231 1.473 . S
C283 C67 2.373 . S
C288 C224 2.392 . S
C293 C153 0.837 . S
C298 C69 0.840 1_554 S
C303 C151 1.790 . S
C308 C237 1.686 1_556 S
C313 C56 2.373 . S
C318 C235 2.392 . S
C323 C58 0.838 1_556 S
C328 C142 0.835 . S
C333 C226 1.687 1_554 S
C338 C140 1.790 . S
