# Generated by pormake.
# Topology umo, (4)-cn, num edge types: 1
# Building blocks:
#     Node 0, Type 0, BuildingBlock: ESEHIV_clean_sbu_0, # of connection points: 4
#     Node 1, Type 0, BuildingBlock: ESEHIV_clean_sbu_0, # of connection points: 4
#     Node 2, Type 0, BuildingBlock: ESEHIV_clean_sbu_0, # of connection points: 4
#     Node 3, Type 0, BuildingBlock: ESEHIV_clean_sbu_0, # of connection points: 4
#     Node 4, Type 0, BuildingBlock: ESEHIV_clean_sbu_0, # of connection points: 4
#     Node 5, Type 0, BuildingBlock: ESEHIV_clean_sbu_0, # of connection points: 4
#     Node 6, Type 0, BuildingBlock: ESEHIV_clean_sbu_0, # of connection points: 4
#     Node 7, Type 0, BuildingBlock: ESEHIV_clean_sbu_0, # of connection points: 4
#     Node 8, Type 0, BuildingBlock: ESEHIV_clean_sbu_0, # of connection points: 4
#     Node 9, Type 0, BuildingBlock: ESEHIV_clean_sbu_0, # of connection points: 4
#     Node 10, Type 0, BuildingBlock: ESEHIV_clean_sbu_0, # of connection points: 4
#     Node 11, Type 0, BuildingBlock: ESEHIV_clean_sbu_0, # of connection points: 4
#     Edge 12, Type (0, 0), BuildingBlock: OJICUG_clean_linker_0, # of connection points: 2
#     Edge 13, Type (0, 0), BuildingBlock: OJICUG_clean_linker_0, # of connection points: 2
#     Edge 14, Type (0, 0), BuildingBlock: OJICUG_clean_linker_0, # of connection points: 2
#     Edge 15, Type (0, 0), BuildingBlock: OJICUG_clean_linker_0, # of connection points: 2
#     Edge 16, Type (0, 0), BuildingBlock: OJICUG_clean_linker_0, # of connection points: 2
#     Edge 17, Type (0, 0), BuildingBlock: OJICUG_clean_linker_0, # of connection points: 2
#     Edge 18, Type (0, 0), BuildingBlock: OJICUG_clean_linker_0, # of connection points: 2
#     Edge 19, Type (0, 0), BuildingBlock: OJICUG_clean_linker_0, # of connection points: 2
#     Edge 20, Type (0, 0), BuildingBlock: OJICUG_clean_linker_0, # of connection points: 2
#     Edge 21, Type (0, 0), BuildingBlock: OJICUG_clean_linker_0, # of connection points: 2
#     Edge 22, Type (0, 0), BuildingBlock: OJICUG_clean_linker_0, # of connection points: 2
#     Edge 23, Type (0, 0), BuildingBlock: OJICUG_clean_linker_0, # of connection points: 2
#     Edge 24, Type (0, 0), BuildingBlock: OJICUG_clean_linker_0, # of connection points: 2
#     Edge 25, Type (0, 0), BuildingBlock: OJICUG_clean_linker_0, # of connection points: 2
#     Edge 26, Type (0, 0), BuildingBlock: OJICUG_clean_linker_0, # of connection points: 2
#     Edge 27, Type (0, 0), BuildingBlock: OJICUG_clean_linker_0, # of connection points: 2
#     Edge 28, Type (0, 0), BuildingBlock: OJICUG_clean_linker_0, # of connection points: 2
#     Edge 29, Type (0, 0), BuildingBlock: OJICUG_clean_linker_0, # of connection points: 2
#     Edge 30, Type (0, 0), BuildingBlock: OJICUG_clean_linker_0, # of connection points: 2
#     Edge 31, Type (0, 0), BuildingBlock: OJICUG_clean_linker_0, # of connection points: 2
#     Edge 32, Type (0, 0), BuildingBlock: OJICUG_clean_linker_0, # of connection points: 2
#     Edge 33, Type (0, 0), BuildingBlock: OJICUG_clean_linker_0, # of connection points: 2
#     Edge 34, Type (0, 0), BuildingBlock: OJICUG_clean_linker_0, # of connection points: 2
#     Edge 35, Type (0, 0), BuildingBlock: OJICUG_clean_linker_0, # of connection points: 2
# Relax obj value: 0.177
# Max RMSD: 0.172
# Mean RMSD: 0.172
data_MOF--net-umo--node1-ESEHIV_clean_sbu_0--edge1-OJICUG_clean_linker_0
_symmetry_space_group_name_H-M    P1
_symmetry_Int_Tables_number       1
_symmetry_cell_setting            triclinic
loop_
_symmetry_equiv_pos_as_xyz
'x, y, z'
_cell_length_a     42.959099
_cell_length_b     43.152516
_cell_length_c     24.255095
_cell_angle_alpha  90.224661
_cell_angle_beta   89.871726
_cell_angle_gamma 120.15584
loop_
_atom_site_label
_atom_site_type_symbol
_atom_site_fract_x
_atom_site_fract_y
_atom_site_fract_z
_atom_type_partial_charge
Cu0 Cu 0.19193 0.54528 0.40567 0.0
N1 N 0.20247 0.59277 0.40688 0.0
N2 N 0.22895 0.65054 0.43113 0.0
C3 C 0.23093 0.62028 0.43182 0.0
C4 C 0.19809 0.64169 0.40418 0.0
C5 C 0.18172 0.60597 0.38955 0.0
O6 O 0.23252 0.54434 0.3702 0.0
C7 C 0.21088 0.54326 0.51645 0.0
O8 O 0.24364 0.55875 0.49607 0.0
H9 H 0.25254 0.61801 0.45041 0.0
H10 H 0.15599 0.59044 0.3692 0.0
N11 N 0.15045 0.51889 0.36262 0.0
N12 N 0.09363 0.48589 0.33283 0.0
C13 C 0.11581 0.49648 0.37718 0.0
C14 C 0.15 0.52224 0.30757 0.0
C15 C 0.11515 0.50207 0.28913 0.0
C16 C 0.22975 0.51627 0.34786 0.0
O17 O 0.19932 0.48578 0.35272 0.0
H18 H 0.10687 0.48924 0.41936 0.0
H19 H 0.17346 0.53904 0.28276 0.0
O20 O 0.18434 0.53119 0.48318 0.0
H21 H 0.1875 0.65939 0.39698 0.0
H22 H 0.10623 0.49971 0.24682 0.0
Cu23 Cu 0.64122 0.20488 0.54802 0.0
N24 N 0.60557 0.21617 0.53461 0.0
N25 N 0.58149 0.25145 0.53836 0.0
C26 C 0.61189 0.24993 0.53228 0.0
C27 C 0.5548 0.21706 0.5435 0.0
C28 C 0.56978 0.19529 0.5411 0.0
O29 O 0.68541 0.24392 0.51689 0.0
C30 C 0.65449 0.23218 0.65487 0.0
O31 O 0.66484 0.26218 0.62802 0.0
H32 H 0.63872 0.27314 0.53262 0.0
H33 H 0.55609 0.16674 0.54864 0.0
N34 N 0.62806 0.16015 0.51711 0.0
N35 N 0.59961 0.10052 0.50477 0.0
C36 C 0.60547 0.12781 0.53911 0.0
C37 C 0.63697 0.15337 0.46722 0.0
C38 C 0.61956 0.11673 0.45948 0.0
C39 C 0.71678 0.25586 0.53688 0.0
O40 O 0.72137 0.23927 0.57864 0.0
H41 H 0.59349 0.12462 0.57945 0.0
H42 H 0.6543 0.17369 0.43805 0.0
O43 O 0.64457 0.20345 0.62761 0.0
H44 H 0.52694 0.20846 0.55252 0.0
H45 H 0.62091 0.10331 0.42257 0.0
Cu46 Cu 0.48352 0.66544 0.75436 0.0
N47 N 0.48616 0.70483 0.79123 0.0
N48 N 0.45992 0.73701 0.8125 0.0
C49 C 0.46683 0.71939 0.77281 0.0
C50 C 0.47621 0.73394 0.85807 0.0
C51 C 0.49236 0.71401 0.84485 0.0
O52 O 0.47029 0.67144 0.67979 0.0
C53 C 0.45816 0.61278 0.83636 0.0
O54 O 0.49286 0.62771 0.84564 0.0
H55 H 0.45314 0.7124 0.73346 0.0
H56 H 0.50379 0.70338 0.87367 0.0
N57 N 0.52684 0.66468 0.75106 0.0
N58 N 0.56366 0.64261 0.7385 0.0
C59 C 0.52937 0.63576 0.73709 0.0
C60 C 0.5608 0.69087 0.76157 0.0
C61 C 0.58364 0.67735 0.75356 0.0
C62 C 0.49441 0.69993 0.65633 0.0
O63 O 0.52655 0.71707 0.67881 0.0
H64 H 0.50631 0.61 0.72676 0.0
H65 H 0.56835 0.71775 0.7746 0.0
O66 O 0.44741 0.62374 0.79576 0.0
H67 H 0.47359 0.74238 0.89902 0.0
H68 H 0.61246 0.69157 0.76009 0.0
Cu69 Cu 0.87374 0.49849 0.90963 0.0
N70 N 0.87149 0.45429 0.90532 0.0
N71 N 0.84996 0.39646 0.92536 0.0
C72 C 0.84699 0.42577 0.93391 0.0
C73 C 0.87754 0.40703 0.8894 0.0
C74 C 0.89094 0.4429 0.87729 0.0
O75 O 0.83562 0.49616 0.86248 0.0
C76 C 0.88506 0.50202 1.02358 0.0
O77 O 0.91585 0.50544 1.00749 0.0
H78 H 0.82676 0.42649 0.95966 0.0
H79 H 0.91308 0.45936 0.84997 0.0
N80 N 0.91804 0.53735 0.88612 0.0
N81 N 0.97584 0.57557 0.86389 0.0
C82 C 0.95223 0.54345 0.88682 0.0
C83 C 0.92028 0.5663 0.8617 0.0
C84 C 0.95543 0.58963 0.848 0.0
C85 C 0.82316 0.5172 0.86906 0.0
O86 O 0.83524 0.54018 0.91021 0.0
H87 H 0.95957 0.52483 0.90373 0.0
H88 H 0.89767 0.57002 0.85349 0.0
O89 O 0.86382 0.50222 0.98716 0.0
H90 H 0.88741 0.39018 0.87313 0.0
H91 H 0.96491 0.6147 0.82646 0.0
Cu92 Cu 0.44126 0.84566 0.03839 0.0
N93 N 0.47358 0.83054 1.01788 0.0
N94 N 0.4937 0.7917 1.02051 0.0
C95 C 0.4649 0.79598 1.01363 0.0
C96 C 0.52201 0.82531 1.02597 0.0
C97 C 0.50951 0.84915 1.02444 0.0
O98 O 0.39328 0.8114 1.00912 0.0
C99 C 0.44354 0.82538 0.14882 0.0
O100 O 0.44758 0.80016 0.12554 0.0
H101 H 0.43745 0.77407 1.01382 0.0
H102 H 0.52488 0.87747 0.03393 0.0
N103 N 0.4559 0.89166 1.01058 0.0
N104 N 0.48197 0.95132 1.00205 0.0
C105 C 0.48302 0.92396 0.02747 0.0
C106 C 0.43746 0.89902 0.97317 0.0
C107 C 0.4533 0.93566 0.96804 0.0
C108 C 0.37333 0.77912 1.02541 0.0
O109 O 0.38377 0.76704 0.06678 0.0
H110 H 0.50186 0.92739 0.05975 0.0
H111 H 0.41323 0.87907 0.95269 0.0
O112 O 0.44014 0.84769 0.11886 0.0
H113 H 0.54927 0.83205 0.03577 0.0
H114 H 0.44394 0.94979 0.94234 0.0
Cu115 Cu 0.58847 0.38073 0.24381 0.0
N116 N 0.58269 0.33961 0.27882 0.0
N117 N 0.60686 0.30551 0.29974 0.0
C118 C 0.60117 0.32408 0.26041 0.0
C119 C 0.59023 0.30871 0.34502 0.0
C120 C 0.57544 0.32986 0.33203 0.0
O121 O 0.60761 0.37758 0.17168 0.0
C122 C 0.60914 0.42922 0.33221 0.0
O123 O 0.57406 0.41315 0.33831 0.0
H124 H 0.61524 0.33109 0.22159 0.0
H125 H 0.56438 0.34091 0.36098 0.0
N126 N 0.54548 0.38195 0.23553 0.0
N127 N 0.50848 0.40387 0.22292 0.0
C128 C 0.54303 0.41152 0.22659 0.0
C129 C 0.51126 0.35463 0.2376 0.0
C130 C 0.48839 0.36804 0.22952 0.0
C131 C 0.58542 0.35692 0.13515 0.0
O132 O 0.55127 0.34696 0.14084 0.0
H133 H 0.56622 0.43819 0.22336 0.0
H134 H 0.50351 0.32695 0.24479 0.0
O135 O 0.62201 0.42054 0.29133 0.0
H136 H 0.59173 0.29962 0.38594 0.0
H137 H 0.45926 0.35279 0.23015 0.0
Cu138 Cu 0.44765 0.84472 0.49678 0.0
N139 N 0.39865 0.82651 0.51059 0.0
N140 N 0.33978 0.78633 0.50806 0.0
C141 C 0.37328 0.79172 0.51544 0.0
C142 C 0.34421 0.81929 0.50054 0.0
C143 C 0.38053 0.844 0.50223 0.0
O144 O 0.46343 0.81357 0.53006 0.0
C145 C 0.43178 0.82406 0.38542 0.0
O146 O 0.40316 0.79663 0.40671 0.0
H147 H 0.37939 0.77036 0.51767 0.0
H148 H 0.39302 0.87225 0.49289 0.0
N149 N 0.47336 0.89034 0.52884 0.0
N150 N 0.5073 0.94966 0.54159 0.0
C151 C 0.49479 0.92234 0.5047 0.0
C152 C 0.47245 0.89762 0.58256 0.0
C153 C 0.49326 0.93407 0.59056 0.0
C154 C 0.45284 0.78117 0.51627 0.0
O155 O 0.43052 0.76645 0.47486 0.0
H156 H 0.50035 0.92559 0.46091 0.0
H157 H 0.45734 0.87772 0.61365 0.0
O158 O 0.45497 0.84824 0.41705 0.0
H159 H 0.32303 0.82491 0.49028 0.0
H160 H 0.49785 0.94797 0.62957 0.0
Cu161 Cu 0.65654 0.48673 0.64914 0.0
N162 N 0.62214 0.4381 0.64703 0.0
N163 N 0.59437 0.3808 0.62012 0.0
C164 C 0.62568 0.41234 0.62141 0.0
C165 C 0.57025 0.38691 0.64645 0.0
C166 C 0.58741 0.42236 0.6626 0.0
O167 O 0.6997 0.49211 0.68578 0.0
C168 C 0.67843 0.49048 0.53811 0.0
O169 O 0.69858 0.4782 0.55792 0.0
H170 H 0.65064 0.41684 0.60334 0.0
H171 H 0.57502 0.436 0.68229 0.0
N172 N 0.63707 0.50961 0.6909 0.0
N173 N 0.61329 0.54268 0.71912 0.0
C174 C 0.63008 0.53589 0.67747 0.0
C175 C 0.62469 0.49999 0.74265 0.0
C176 C 0.60989 0.52013 0.76003 0.0
C177 C 0.71873 0.51844 0.71783 0.0
O178 O 0.71135 0.54445 0.72187 0.0
H179 H 0.6361 0.5489 0.63766 0.0
H180 H 0.62575 0.47913 0.76569 0.0
O181 O 0.66254 0.50073 0.57178 0.0
H182 H 0.54197 0.36756 0.65182 0.0
H183 H 0.59745 0.5183 0.79967 0.0
Cu184 Cu 0.22496 0.65137 0.80229 0.0
N185 N 0.26615 0.69102 0.77413 0.0
N186 N 0.32601 0.72623 0.77565 0.0
C187 C 0.29796 0.69305 0.78338 0.0
C188 C 0.3116 0.74626 0.75993 0.0
C189 C 0.27439 0.72447 0.75979 0.0
O190 O 0.24029 0.65697 0.87917 0.0
C191 C 0.19378 0.58917 0.73199 0.0
O192 O 0.16347 0.58899 0.73998 0.0
H193 H 0.30031 0.67105 0.79999 0.0
H194 H 0.25507 0.73329 0.75459 0.0
N195 N 0.18227 0.6533 0.79585 0.0
N196 N 0.12528 0.64047 0.80826 0.0
C197 C 0.15121 0.6333 0.82387 0.0
C198 C 0.17559 0.67353 0.7612 0.0
C199 C 0.14064 0.66589 0.76903 0.0
C200 C 0.24451 0.68608 0.90007 0.0
O201 O 0.2281 0.70122 0.87623 0.0
H202 H 0.14768 0.61378 0.85481 0.0
H203 H 0.19449 0.69199 0.73145 0.0
O204 O 0.22151 0.6108 0.75997 0.0
H205 H 0.32663 0.77494 0.75338 0.0
H206 H 0.12722 0.67744 0.74649 0.0
Cu207 Cu 0.63512 0.20613 0.99945 0.0
N208 N 0.68335 0.2196 1.00875 0.0
N209 N 0.74217 0.25856 0.99838 0.0
C210 C 0.70975 0.25406 1.0125 0.0
C211 C 0.73601 0.22539 0.98622 0.0
C212 C 0.69966 0.20138 0.99265 0.0
O213 O 0.62873 0.2441 0.03243 0.0
C214 C 0.64573 0.23282 0.89283 0.0
O215 O 0.66534 0.26314 0.9194 0.0
H216 H 0.70452 0.27592 1.01839 0.0
H217 H 0.68565 0.17343 0.98066 0.0
N218 N 0.60343 0.16133 0.03104 0.0
N219 N 0.56595 0.10232 0.04214 0.0
C220 C 0.59332 0.12802 1.01209 0.0
C221 C 0.58189 0.15633 0.07448 0.0
C222 C 0.55872 0.12011 0.08125 0.0
C223 C 0.60622 0.25276 1.01488 0.0
O224 O 0.58469 0.23441 0.97403 0.0
H225 H 0.60431 0.12282 0.97532 0.0
H226 H 0.58199 0.1777 0.09808 0.0
O227 O 0.6281 0.20406 0.92033 0.0
H228 H 0.75575 0.21931 0.96962 0.0
H229 H 0.53745 0.10777 0.11162 0.0
Cu230 Cu 0.40953 0.55632 0.14833 0.0
N231 N 0.44445 0.60487 0.14407 0.0
N232 N 0.47325 0.66151 0.11377 0.0
C233 C 0.44149 0.6304 0.11675 0.0
C234 C 0.49701 0.65525 0.14077 0.0
C235 C 0.47923 0.6203 0.15907 0.0
O236 O 0.3673 0.55187 0.18682 0.0
C237 C 0.38556 0.55109 0.0384 0.0
O238 O 0.36627 0.56429 0.05878 0.0
H239 H 0.41663 0.62596 0.0986 0.0
H240 H 0.49119 0.60666 0.17975 0.0
N241 N 0.42892 0.53295 0.18879 0.0
N242 N 0.45431 0.50077 0.21391 0.0
C243 C 0.43796 0.50843 0.17279 0.0
C244 C 0.43957 0.5406 0.24164 0.0
C245 C 0.4553 0.52099 0.25715 0.0
C246 C 0.3433 0.52255 0.20819 0.0
O247 O 0.34551 0.49352 0.20093 0.0
H248 H 0.43376 0.49737 0.13154 0.0
H249 H 0.4368 0.55986 0.26672 0.0
O250 O 0.40151 0.54081 0.07161 0.0
H251 H 0.52551 0.67405 0.14517 0.0
H252 H 0.4667 0.52161 0.29718 0.0
Cu253 Cu 0.84188 0.38598 0.31142 0.0
N254 N 0.80006 0.34616 0.28451 0.0
N255 N 0.74019 0.31113 0.27715 0.0
C256 C 0.76772 0.33738 0.3057 0.0
C257 C 0.75593 0.303 0.23559 0.0
C258 C 0.79302 0.32461 0.24041 0.0
O259 O 0.82751 0.38926 0.38679 0.0
C260 C 0.83266 0.43005 0.23158 0.0
O261 O 0.79803 0.40707 0.23579 0.0
H262 H 0.76441 0.35238 0.33862 0.0
H263 H 0.81315 0.32581 0.21224 0.0
N264 N 0.8823 0.3802 0.31223 0.0
N265 N 0.94053 0.39662 0.31993 0.0
C266 C 0.91653 0.40766 0.31193 0.0
C267 C 0.88463 0.35055 0.32007 0.0
C268 C 0.9206 0.36066 0.32515 0.0
C269 C 0.83547 0.37534 0.42674 0.0
O270 O 0.86567 0.37472 0.42439 0.0
H271 H 0.92359 0.43544 0.30837 0.0
H272 H 0.86179 0.32375 0.32404 0.0
O273 O 0.8545 0.42711 0.26367 0.0
H274 H 0.74176 0.28393 0.20288 0.0
H275 H 0.93123 0.34301 0.33257 0.0
C276 C 0.27729 0.68721 0.49792 0.0
C277 C 0.25443 0.68486 0.45465 0.0
H278 H 0.32186 0.7215 0.54981 0.0
C279 C 0.25777 0.71668 0.43351 0.0
H280 H 0.27489 0.66329 0.51628 0.0
C281 C 0.2845 0.75005 0.4532 0.0
C282 C 0.30855 0.75236 0.49445 0.0
H283 H 0.24079 0.71592 0.40006 0.0
H284 H 0.28749 0.77397 0.43395 0.0
C285 C 0.30404 0.72055 0.5175 0.0
C286 C 0.5573 0.28265 0.59409 0.0
C287 C 0.58048 0.28336 0.5525 0.0
H288 H 0.54398 0.31323 0.64892 0.0
C289 C 0.60602 0.31651 0.53006 0.0
H290 H 0.53765 0.25758 0.61269 0.0
C291 C 0.60978 0.3484 0.55098 0.0
C292 C 0.58809 0.34784 0.5949 0.0
H293 H 0.62387 0.31776 0.49744 0.0
H294 H 0.63014 0.3735 0.53335 0.0
C295 C 0.56108 0.31458 0.61508 0.0
C296 C 0.39005 0.75356 0.7504 0.0
C297 C 0.3627 0.73766 0.78995 0.0
H298 H 0.44341 0.76622 0.7272 0.0
C299 C 0.37047 0.728 0.84121 0.0
H300 H 0.38452 0.76104 0.71061 0.0
C301 C 0.40411 0.73138 0.85113 0.0
C302 C 0.4304 0.74392 0.80948 0.0
H303 H 0.34969 0.71582 0.87235 0.0
H304 H 0.4083 0.72122 0.88944 0.0
C305 C 0.42359 0.75647 0.75996 0.0
C306 C 0.80768 0.35716 0.99717 0.0
C307 C 0.8266 0.36117 0.94777 0.0
H308 H 0.7663 0.32117 0.05232 0.0
C309 C 0.82023 0.33016 0.91898 0.0
H310 H 0.81255 0.38031 1.02132 0.0
C311 C 0.79393 0.29614 0.93734 0.0
C312 C 0.77343 0.29247 0.98477 0.0
H313 H 0.83418 0.33221 0.88078 0.0
H314 H 0.78823 0.27294 0.91262 0.0
C315 C 0.78134 0.32327 1.01525 0.0
C316 C 0.51567 0.75918 0.07784 0.0
C317 C 0.49174 0.75875 0.03791 0.0
H318 H 0.52817 0.72896 0.13398 0.0
C319 C 0.46304 0.72543 1.02069 0.0
H320 H 0.53771 0.78423 0.09298 0.0
C321 C 0.45753 0.69355 0.04437 0.0
C322 C 0.48044 0.69414 0.08626 0.0
H323 H 0.4442 0.72406 0.98988 0.0
H324 H 0.43499 0.66852 0.03021 0.0
C325 C 0.51006 0.72733 0.10173 0.0
C326 C 0.69016 0.3033 0.33719 0.0
C327 C 0.70271 0.30044 0.28479 0.0
H328 H 0.64973 0.30691 0.38357 0.0
C329 C 0.67945 0.29179 0.23949 0.0
H330 H 0.70703 0.30898 0.37315 0.0
C331 C 0.64609 0.28989 0.24562 0.0
C332 C 0.63538 0.29692 0.297 0.0
H333 H 0.68803 0.28911 0.19864 0.0
H334 H 0.62971 0.2853 0.20929 0.0
C335 C 0.65697 0.30166 0.34329 0.0
C336 C 0.23149 0.57817 0.6636 0.0
C337 C 0.19741 0.57065 0.68246 0.0
H338 H 0.26244 0.57501 0.59673 0.0
C339 C 0.16719 0.54914 0.64923 0.0
H340 H 0.25537 0.59455 0.688 0.0
C341 C 0.17123 0.53794 0.59672 0.0
C342 C 0.20561 0.54795 0.57604 0.0
H343 H 0.14047 0.54254 0.66249 0.0
H344 H 0.14754 0.52316 0.5712 0.0
C345 C 0.23553 0.56696 0.61104 0.0
C346 C 0.63529 0.19945 0.74519 0.0
C347 C 0.65243 0.23185 0.71579 0.0
H348 H 0.61919 0.17423 0.82431 0.0
C349 C 0.66658 0.26432 0.74504 0.0
H350 H 0.6239 0.17398 0.72379 0.0
C351 C 0.66388 0.26446 0.80236 0.0
C352 C 0.64676 0.23214 0.83187 0.0
H353 H 0.67987 0.28977 0.72369 0.0
H354 H 0.67534 0.29002 0.82353 0.0
C355 C 0.63235 0.19959 0.8027 0.0
C356 C 0.42584 0.55348 0.96154 0.0
C357 C 0.39743 0.55824 0.9798 0.0
H358 H 0.46709 0.56686 0.90121 0.0
C359 C 0.38486 0.57546 0.94444 0.0
H360 H 0.43614 0.5402 0.9873 0.0
C361 C 0.40248 0.59044 0.89444 0.0
C362 C 0.43316 0.58874 0.87924 0.0
H363 H 0.36295 0.5795 0.95702 0.0
H364 H 0.39392 0.60583 0.87013 0.0
C365 C 0.44364 0.56879 0.91209 0.0
C366 C 0.82279 0.45558 0.14455 0.0
C367 C 0.84663 0.45443 0.18315 0.0
H368 H 0.81619 0.47197 0.06415 0.0
C369 C 0.88373 0.47349 0.17154 0.0
H370 H 0.79406 0.44135 0.15215 0.0
C371 C 0.89639 0.49096 0.12096 0.0
C372 C 0.87233 0.49005 0.08084 0.0
H373 H 0.90294 0.47338 0.20027 0.0
H374 H 0.92495 0.50381 0.11234 0.0
C375 C 0.8355 0.47327 0.09405 0.0
C376 C 0.45348 0.85833 0.23864 0.0
C377 C 0.44112 0.82606 0.20937 0.0
H378 H 0.46131 0.8832 0.3184 0.0
C379 C 0.42683 0.79373 0.23852 0.0
H380 H 0.46484 0.88361 0.21697 0.0
C381 C 0.42419 0.79344 0.29574 0.0
C382 C 0.43668 0.82556 0.32522 0.0
H383 H 0.41707 0.76847 0.21697 0.0
H384 H 0.41247 0.76798 0.31703 0.0
C385 C 0.45177 0.85813 0.29642 0.0
C386 C 0.6642 0.45324 0.39232 0.0
C387 C 0.63219 0.45246 0.37771 0.0
H388 H 0.70424 0.46616 0.45473 0.0
C389 C 0.61917 0.46964 0.41233 0.0
H390 H 0.67479 0.44007 0.36665 0.0
C391 C 0.63615 0.4849 0.46242 0.0
C392 C 0.6663 0.48285 0.47961 0.0
H393 H 0.59466 0.46968 0.402 0.0
H394 H 0.62411 0.49612 0.48926 0.0
C395 C 0.68099 0.46812 0.44296 0.0
C396 C 0.99732 0.44998 0.29133 0.0
C397 C 0.97916 0.41905 0.32387 0.0
H398 H 0.04789 0.49537 0.26874 0.0
C399 C 0.99928 0.41084 0.36066 0.0
H400 H 0.9826 0.45693 0.26251 0.0
C401 C 0.03677 0.43324 0.36485 0.0
C402 C 0.0549 0.46379 0.33142 0.0
H403 H 0.98595 0.38737 0.38665 0.0
H404 H 0.05171 0.42631 0.39324 0.0
C405 C 1.03471 0.47187 0.2947 0.0
C406 C 0.55566 0.99999 0.48859 0.0
C407 C 0.53019 0.9876 0.53143 0.0
H408 H 0.59815 0.04514 0.4473 0.0
C409 C 0.52779 1.01296 0.56498 0.0
H410 H 0.55851 0.9812 0.46239 0.0
C411 C 0.55029 0.04972 0.55617 0.0
C412 C 0.57616 0.06235 0.51371 0.0
H413 H 0.50809 1.0044 0.59779 0.0
H414 H 0.54694 0.06809 0.58252 0.0
C415 C 0.57845 0.03684 0.48001 0.0
C416 C 0.60908 0.62729 0.70587 0.0
C417 C 0.57572 0.61714 0.73083 0.0
H418 H 0.64692 0.61095 0.68131 0.0
C419 C 0.55445 0.58176 0.74949 0.0
H420 H 0.62588 0.65434 0.69088 0.0
C421 C 0.56663 0.55733 0.74473 0.0
C422 C 0.60006 0.56745 0.72024 0.0
H423 H 0.5288 0.57326 0.76928 0.0
H424 H 0.54996 0.53043 0.76043 0.0
C425 C 0.62096 0.60249 0.7 0.0
C426 C 0.07179 0.64484 0.83173 0.0
C427 C 0.08854 0.62419 0.82754 0.0
H428 H 1.0239 0.64623 0.84879 0.0
C429 C 0.06827 0.58737 0.83981 0.0
H430 H 0.08687 0.67335 0.82369 0.0
C431 C 1.03149 0.57134 0.85334 0.0
C432 C 1.01438 0.59192 0.85537 0.0
H433 H 0.08049 0.57076 0.83677 0.0
H434 H 1.01629 0.54272 0.86029 0.0
C435 C 1.03547 0.62908 0.84591 0.0
C436 C 0.50745 0.04669 0.03128 0.0
C437 C 0.54524 0.06428 0.0312 0.0
H438 H 0.45784 0.99703 1.02139 0.0
C439 C 0.56211 0.04398 1.02197 0.0
H440 H 0.49379 0.06171 0.03815 0.0
C441 C 0.54144 1.00665 1.01387 0.0
C442 C 0.50361 0.98927 1.01316 0.0
H443 H 0.5912 0.05693 1.02206 0.0
H444 H 0.55489 0.99143 1.00706 0.0
C445 C 0.48692 1.00977 1.02163 0.0
C446 C 0.45078 0.44374 0.18578 0.0
C447 C 0.46898 0.47711 0.21269 0.0
H448 H 0.44892 0.39392 0.16858 0.0
C449 C 0.50106 0.48644 0.24102 0.0
H450 H 0.42592 0.43581 0.16393 0.0
C451 C 0.51442 0.46283 0.24309 0.0
C452 C 0.4957 0.42898 0.21774 0.0
H453 H 0.51579 0.51208 0.2618 0.0
H454 H 0.53888 0.47065 0.26602 0.0
C455 C 0.46379 0.41973 0.18881 0.0
C456 C 0.28862 0.55139 0.29669 0.0
C457 C 0.25944 0.51821 0.3133 0.0
H458 H 0.33761 0.57888 0.24997 0.0
C459 C 0.25807 0.48665 0.29458 0.0
H460 H 0.29047 0.57625 0.30999 0.0
C461 C 0.28514 0.48816 0.26043 0.0
C462 C 0.31418 0.52127 0.24343 0.0
H463 H 0.23601 0.46062 0.30637 0.0
H464 H 0.28317 0.46325 0.24713 0.0
C465 C 0.31555 0.5529 0.26193 0.0
C466 C 0.81205 0.32611 0.49708 0.0
C467 C 0.80617 0.34915 0.46324 0.0
H468 H 0.78854 0.27859 0.54657 0.0
C469 C 0.7709 0.3431 0.45858 0.0
H470 H 0.83882 0.32999 0.50212 0.0
C471 C 0.74196 0.31308 0.48311 0.0
C472 C 0.74769 0.28885 0.51393 0.0
H473 H 0.76539 0.36074 0.4342 0.0
H474 H 0.715 0.30857 0.4773 0.0
C475 C 0.78317 0.29642 0.52233 0.0
C476 C 0.50754 0.75646 0.60902 0.0
C477 C 0.48472 0.71923 0.61553 0.0
H478 H 0.51507 0.80513 0.57359 0.0
C479 C 0.45186 0.7022 0.58689 0.0
H480 H 0.53296 0.77065 0.63071 0.0
C481 C 0.44195 0.72216 0.55308 0.0
C482 C 0.46428 0.75958 0.54854 0.0
H483 H 0.43364 0.67366 0.5913 0.0
H484 H 0.41626 0.70849 0.53202 0.0
C485 C 0.49725 0.77642 0.57654 0.0
C486 C 0.78778 0.54442 0.83229 0.0
C487 C 0.79675 0.51729 0.82941 0.0
H488 H 0.75688 0.56633 0.79932 0.0
C489 C 0.78056 0.49086 0.78812 0.0
H490 H 0.79981 0.56535 0.86322 0.0
C491 C 0.7556 0.49134 0.75123 0.0
C492 C 0.74654 0.51845 0.75449 0.0
H493 H 0.78689 0.4696 0.78461 0.0
H494 H 0.74326 0.47036 0.72045 0.0
C495 C 0.76319 0.54507 0.79529 0.0
C496 C 0.32494 0.71729 0.99645 0.0
C497 C 0.33919 0.75471 0.99638 0.0
H498 H 0.28395 0.66597 0.96567 0.0
C499 C 0.3209 0.76869 0.96727 0.0
H500 H 0.33862 0.70573 1.01831 0.0
C501 C 0.2893 0.74597 0.93857 0.0
C502 C 0.27547 0.70862 0.93699 0.0
H503 H 0.33107 0.7973 0.96655 0.0
H504 H 0.2764 0.75804 0.91596 0.0
C505 C 0.29362 0.69448 0.96646 0.0
C506 C 0.6259 0.33302 0.10554 0.0
C507 C 0.59496 0.33576 0.09706 0.0
H508 H 0.65335 0.3041 0.08744 0.0
C509 C 0.56979 0.3133 0.05735 0.0
H510 H 0.64605 0.35004 0.13537 0.0
C511 C 0.57416 0.28728 0.0295 0.0
C512 C 0.60363 0.28269 0.04097 0.0
H513 H 0.54575 0.31474 0.04938 0.0
H514 H 0.55357 0.26979 1.00054 0.0
C515 C 0.62997 0.30648 0.0783 0.0
loop_
_geom_bond_atom_site_label_1
_geom_bond_atom_site_label_2
_geom_bond_distance
_geom_bond_site_symmetry_2
_ccdc_geom_bond_type
Cu0 N1 1.999 . S
Cu0 O6 1.974 . S
Cu0 N11 1.985 . S
Cu0 O20 1.959 . S
N1 Cu0 1.999 . S
N1 C3 1.263 . S
N1 C5 1.389 . S
N2 C3 1.358 . S
N2 C4 1.400 . S
C3 N1 1.263 . S
C3 N2 1.358 . S
C3 H9 0.930 . S
C4 N2 1.400 . S
C4 C5 1.351 . S
C4 H21 0.930 . S
C5 N1 1.389 . S
C5 C4 1.351 . S
C5 H10 0.930 . S
O6 Cu0 1.974 . S
O6 C16 1.282 . S
C7 O8 1.261 . S
C7 O20 1.251 . S
O8 C7 1.261 . S
H9 C3 0.930 . S
H10 C5 0.930 . S
N11 Cu0 1.985 . S
N11 C13 1.335 . S
N11 C14 1.390 . S
N12 C13 1.345 . S
N12 C15 1.336 . S
C13 N11 1.335 . S
C13 N12 1.345 . S
C13 H18 0.930 . S
C14 N11 1.390 . S
C14 C15 1.346 . S
C14 H19 0.930 . S
C15 N12 1.336 . S
C15 C14 1.346 . S
C15 H22 0.929 . S
C16 O6 1.282 . S
C16 O17 1.216 . S
O17 C16 1.216 . S
H18 C13 0.930 . S
H19 C14 0.930 . S
O20 Cu0 1.959 . S
O20 C7 1.251 . S
H21 C4 0.930 . S
H22 C15 0.929 . S
Cu23 N24 1.999 . S
Cu23 O29 1.974 . S
Cu23 N34 1.985 . S
Cu23 O43 1.959 . S
N24 Cu23 1.999 . S
N24 C26 1.263 . S
N24 C28 1.389 . S
N25 C26 1.358 . S
N25 C27 1.400 . S
C26 N24 1.263 . S
C26 N25 1.358 . S
C26 H32 0.930 . S
C27 N25 1.400 . S
C27 C28 1.351 . S
C27 H44 0.930 . S
C28 N24 1.389 . S
C28 C27 1.351 . S
C28 H33 0.930 . S
O29 Cu23 1.974 . S
O29 C39 1.282 . S
C30 O31 1.261 . S
C30 O43 1.251 . S
O31 C30 1.261 . S
H32 C26 0.930 . S
H33 C28 0.930 . S
N34 Cu23 1.985 . S
N34 C36 1.335 . S
N34 C37 1.390 . S
N35 C36 1.345 . S
N35 C38 1.336 . S
C36 N34 1.335 . S
C36 N35 1.345 . S
C36 H41 0.930 . S
C37 N34 1.390 . S
C37 C38 1.346 . S
C37 H42 0.930 . S
C38 N35 1.336 . S
C38 C37 1.346 . S
C38 H45 0.929 . S
C39 O29 1.282 . S
C39 O40 1.216 . S
O40 C39 1.216 . S
H41 C36 0.930 . S
H42 C37 0.930 . S
O43 Cu23 1.959 . S
O43 C30 1.251 . S
H44 C27 0.930 . S
H45 C38 0.929 . S
Cu46 N47 1.999 . S
Cu46 O52 1.974 . S
Cu46 N57 1.985 . S
Cu46 O66 1.959 . S
N47 Cu46 1.999 . S
N47 C49 1.263 . S
N47 C51 1.389 . S
N48 C49 1.358 . S
N48 C50 1.400 . S
C49 N47 1.263 . S
C49 N48 1.358 . S
C49 H55 0.930 . S
C50 N48 1.400 . S
C50 C51 1.351 . S
C50 H67 0.930 . S
C51 N47 1.389 . S
C51 C50 1.351 . S
C51 H56 0.930 . S
O52 Cu46 1.974 . S
O52 C62 1.282 . S
C53 O54 1.261 . S
C53 O66 1.251 . S
O54 C53 1.261 . S
H55 C49 0.930 . S
H56 C51 0.930 . S
N57 Cu46 1.985 . S
N57 C59 1.335 . S
N57 C60 1.390 . S
N58 C59 1.345 . S
N58 C61 1.336 . S
C59 N57 1.335 . S
C59 N58 1.345 . S
C59 H64 0.930 . S
C60 N57 1.390 . S
C60 C61 1.346 . S
C60 H65 0.930 . S
C61 N58 1.336 . S
C61 C60 1.346 . S
C61 H68 0.929 . S
C62 O52 1.282 . S
C62 O63 1.216 . S
O63 C62 1.216 . S
H64 C59 0.930 . S
H65 C60 0.930 . S
O66 Cu46 1.959 . S
O66 C53 1.251 . S
H67 C50 0.930 . S
H68 C61 0.929 . S
Cu69 N70 1.999 . S
Cu69 O75 1.974 . S
Cu69 N80 1.985 . S
Cu69 O89 1.959 . S
N70 Cu69 1.999 . S
N70 C72 1.263 . S
N70 C74 1.389 . S
N71 C72 1.358 . S
N71 C73 1.400 . S
C72 N70 1.263 . S
C72 N71 1.358 . S
C72 H78 0.930 . S
C73 N71 1.400 . S
C73 C74 1.351 . S
C73 H90 0.930 . S
C74 N70 1.389 . S
C74 C73 1.351 . S
C74 H79 0.930 . S
O75 Cu69 1.974 . S
O75 C85 1.282 . S
C76 O77 1.263 . S
C76 O89 1.238 1_554 S
O77 C76 1.263 . S
H78 C72 0.930 . S
H79 C74 0.930 . S
N80 Cu69 1.985 . S
N80 C82 1.335 . S
N80 C83 1.390 . S
N81 C82 1.345 . S
N81 C84 1.336 . S
C82 N80 1.335 . S
C82 N81 1.345 . S
C82 H87 0.930 . S
C83 N80 1.390 . S
C83 C84 1.346 . S
C83 H88 0.930 . S
C84 N81 1.336 . S
C84 C83 1.346 . S
C84 H91 0.929 . S
C85 O75 1.282 . S
C85 O86 1.216 . S
O86 C85 1.216 . S
H87 C82 0.930 . S
H88 C83 0.930 . S
O89 Cu69 1.959 . S
O89 C76 1.238 1_556 S
H90 C73 0.930 . S
H91 C84 0.929 . S
Cu92 N93 1.999 . S
Cu92 O98 1.974 . S
Cu92 N103 1.985 . S
Cu92 O112 1.959 . S
N93 Cu92 1.999 . S
N93 C95 1.263 . S
N93 C97 1.389 . S
N94 C95 1.358 . S
N94 C96 1.400 . S
C95 N93 1.263 . S
C95 N94 1.358 . S
C95 H101 0.930 . S
C96 N94 1.400 . S
C96 C97 1.351 . S
C96 H113 0.930 . S
C97 N93 1.389 . S
C97 C96 1.351 . S
C97 H102 0.930 . S
O98 Cu92 1.974 . S
O98 C108 1.282 . S
C99 O100 1.261 . S
C99 O112 1.251 . S
O100 C99 1.261 . S
H101 C95 0.930 . S
H102 C97 0.930 . S
N103 Cu92 1.985 . S
N103 C105 1.335 . S
N103 C106 1.390 . S
N104 C105 1.345 . S
N104 C107 1.336 . S
C105 N103 1.335 . S
C105 N104 1.345 . S
C105 H110 0.930 . S
C106 N103 1.390 . S
C106 C107 1.346 . S
C106 H111 0.930 . S
C107 N104 1.336 . S
C107 C106 1.346 . S
C107 H114 0.929 . S
C108 O98 1.282 . S
C108 O109 1.216 . S
O109 C108 1.216 . S
H110 C105 0.930 . S
H111 C106 0.930 . S
O112 Cu92 1.959 . S
O112 C99 1.251 . S
H113 C96 0.930 . S
H114 C107 0.929 . S
Cu115 N116 1.999 . S
Cu115 O121 1.974 . S
Cu115 N126 1.985 . S
Cu115 O135 1.959 . S
N116 Cu115 1.999 . S
N116 C118 1.263 . S
N116 C120 1.389 . S
N117 C118 1.358 . S
N117 C119 1.400 . S
C118 N116 1.263 . S
C118 N117 1.358 . S
C118 H124 0.930 . S
C119 N117 1.400 . S
C119 C120 1.351 . S
C119 H136 0.930 . S
C120 N116 1.389 . S
C120 C119 1.351 . S
C120 H125 0.930 . S
O121 Cu115 1.974 . S
O121 C131 1.282 . S
C122 O123 1.261 . S
C122 O135 1.251 . S
O123 C122 1.261 . S
H124 C118 0.930 . S
H125 C120 0.930 . S
N126 Cu115 1.985 . S
N126 C128 1.335 . S
N126 C129 1.390 . S
N127 C128 1.345 . S
N127 C130 1.336 . S
C128 N126 1.335 . S
C128 N127 1.345 . S
C128 H133 0.930 . S
C129 N126 1.390 . S
C129 C130 1.346 . S
C129 H134 0.930 . S
C130 N127 1.336 . S
C130 C129 1.346 . S
C130 H137 0.929 . S
C131 O121 1.282 . S
C131 O132 1.216 . S
O132 C131 1.216 . S
H133 C128 0.930 . S
H134 C129 0.930 . S
O135 Cu115 1.959 . S
O135 C122 1.251 . S
H136 C119 0.930 . S
H137 C130 0.929 . S
Cu138 N139 1.999 . S
Cu138 O144 1.974 . S
Cu138 N149 1.985 . S
Cu138 O158 1.959 . S
N139 Cu138 1.999 . S
N139 C141 1.263 . S
N139 C143 1.389 . S
N140 C141 1.358 . S
N140 C142 1.400 . S
C141 N139 1.263 . S
C141 N140 1.358 . S
C141 H147 0.930 . S
C142 N140 1.400 . S
C142 C143 1.351 . S
C142 H159 0.930 . S
C143 N139 1.389 . S
C143 C142 1.351 . S
C143 H148 0.930 . S
O144 Cu138 1.974 . S
O144 C154 1.282 . S
C145 O146 1.261 . S
C145 O158 1.251 . S
O146 C145 1.261 . S
H147 C141 0.930 . S
H148 C143 0.930 . S
N149 Cu138 1.985 . S
N149 C151 1.335 . S
N149 C152 1.390 . S
N150 C151 1.345 . S
N150 C153 1.336 . S
C151 N149 1.335 . S
C151 N150 1.345 . S
C151 H156 0.930 . S
C152 N149 1.390 . S
C152 C153 1.346 . S
C152 H157 0.930 . S
C153 N150 1.336 . S
C153 C152 1.346 . S
C153 H160 0.929 . S
C154 O144 1.282 . S
C154 O155 1.216 . S
O155 C154 1.216 . S
H156 C151 0.930 . S
H157 C152 0.930 . S
O158 Cu138 1.959 . S
O158 C145 1.251 . S
H159 C142 0.930 . S
H160 C153 0.929 . S
Cu161 N162 1.999 . S
Cu161 O167 1.974 . S
Cu161 N172 1.985 . S
Cu161 O181 1.959 . S
N162 Cu161 1.999 . S
N162 C164 1.263 . S
N162 C166 1.389 . S
N163 C164 1.358 . S
N163 C165 1.400 . S
C164 N162 1.263 . S
C164 N163 1.358 . S
C164 H170 0.930 . S
C165 N163 1.400 . S
C165 C166 1.351 . S
C165 H182 0.930 . S
C166 N162 1.389 . S
C166 C165 1.351 . S
C166 H171 0.930 . S
O167 Cu161 1.974 . S
O167 C177 1.282 . S
C168 O169 1.261 . S
C168 O181 1.251 . S
O169 C168 1.261 . S
H170 C164 0.930 . S
H171 C166 0.930 . S
N172 Cu161 1.985 . S
N172 C174 1.335 . S
N172 C175 1.390 . S
N173 C174 1.345 . S
N173 C176 1.336 . S
C174 N172 1.335 . S
C174 N173 1.345 . S
C174 H179 0.930 . S
C175 N172 1.390 . S
C175 C176 1.346 . S
C175 H180 0.930 . S
C176 N173 1.336 . S
C176 C175 1.346 . S
C176 H183 0.929 . S
C177 O167 1.282 . S
C177 O178 1.216 . S
O178 C177 1.216 . S
H179 C174 0.930 . S
H180 C175 0.930 . S
O181 Cu161 1.959 . S
O181 C168 1.251 . S
H182 C165 0.930 . S
H183 C176 0.929 . S
Cu184 N185 1.999 . S
Cu184 O190 1.974 . S
Cu184 N195 1.985 . S
Cu184 O204 1.959 . S
N185 Cu184 1.999 . S
N185 C187 1.263 . S
N185 C189 1.389 . S
N186 C187 1.358 . S
N186 C188 1.400 . S
C187 N185 1.263 . S
C187 N186 1.358 . S
C187 H193 0.930 . S
C188 N186 1.400 . S
C188 C189 1.351 . S
C188 H205 0.930 . S
C189 N185 1.389 . S
C189 C188 1.351 . S
C189 H194 0.930 . S
O190 Cu184 1.974 . S
O190 C200 1.282 . S
C191 O192 1.261 . S
C191 O204 1.251 . S
O192 C191 1.261 . S
H193 C187 0.930 . S
H194 C189 0.930 . S
N195 Cu184 1.985 . S
N195 C197 1.335 . S
N195 C198 1.390 . S
N196 C197 1.345 . S
N196 C199 1.336 . S
C197 N195 1.335 . S
C197 N196 1.345 . S
C197 H202 0.930 . S
C198 N195 1.390 . S
C198 C199 1.346 . S
C198 H203 0.930 . S
C199 N196 1.336 . S
C199 C198 1.346 . S
C199 H206 0.929 . S
C200 O190 1.282 . S
C200 O201 1.216 . S
O201 C200 1.216 . S
H202 C197 0.930 . S
H203 C198 0.930 . S
O204 Cu184 1.959 . S
O204 C191 1.251 . S
H205 C188 0.930 . S
H206 C199 0.929 . S
Cu207 N208 1.999 . S
Cu207 O213 1.974 . S
Cu207 N218 1.985 . S
Cu207 O227 1.959 . S
N208 Cu207 1.999 . S
N208 C210 1.263 . S
N208 C212 1.389 . S
N209 C210 1.358 . S
N209 C211 1.400 . S
C210 N208 1.263 . S
C210 N209 1.358 . S
C210 H216 0.930 . S
C211 N209 1.400 . S
C211 C212 1.351 . S
C211 H228 0.930 . S
C212 N208 1.389 . S
C212 C211 1.351 . S
C212 H217 0.930 . S
O213 Cu207 1.974 . S
O213 C223 1.282 . S
C214 O215 1.261 . S
C214 O227 1.251 . S
O215 C214 1.261 . S
H216 C210 0.930 . S
H217 C212 0.930 . S
N218 Cu207 1.985 . S
N218 C220 1.335 . S
N218 C221 1.390 . S
N219 C220 1.345 . S
N219 C222 1.336 . S
C220 N218 1.335 . S
C220 N219 1.345 . S
C220 H225 0.930 . S
C221 N218 1.390 . S
C221 C222 1.346 . S
C221 H226 0.930 . S
C222 N219 1.336 . S
C222 C221 1.346 . S
C222 H229 0.929 . S
C223 O213 1.282 . S
C223 O224 1.216 . S
O224 C223 1.216 . S
H225 C220 0.930 . S
H226 C221 0.930 . S
O227 Cu207 1.959 . S
O227 C214 1.251 . S
H228 C211 0.930 . S
H229 C222 0.929 . S
Cu230 N231 1.999 . S
Cu230 O236 1.974 . S
Cu230 N241 1.985 . S
Cu230 O250 1.959 . S
N231 Cu230 1.999 . S
N231 C233 1.263 . S
N231 C235 1.389 . S
N232 C233 1.358 . S
N232 C234 1.400 . S
C233 N231 1.263 . S
C233 N232 1.358 . S
C233 H239 0.930 . S
C234 N232 1.400 . S
C234 C235 1.351 . S
C234 H251 0.930 . S
C235 N231 1.389 . S
C235 C234 1.351 . S
C235 H240 0.930 . S
O236 Cu230 1.974 . S
O236 C246 1.282 . S
C237 O238 1.263 . S
C237 O250 1.238 1_556 S
O238 C237 1.263 . S
H239 C233 0.930 . S
H240 C235 0.930 . S
N241 Cu230 1.985 . S
N241 C243 1.335 . S
N241 C244 1.390 . S
N242 C243 1.345 . S
N242 C245 1.336 . S
C243 N241 1.335 . S
C243 N242 1.345 . S
C243 H248 0.930 . S
C244 N241 1.390 . S
C244 C245 1.346 . S
C244 H249 0.930 . S
C245 N242 1.336 . S
C245 C244 1.346 . S
C245 H252 0.929 . S
C246 O236 1.282 . S
C246 O247 1.216 . S
O247 C246 1.216 . S
H248 C243 0.930 . S
H249 C244 0.930 . S
O250 Cu230 1.959 . S
O250 C237 1.238 1_554 S
H251 C234 0.930 . S
H252 C245 0.929 . S
Cu253 N254 1.999 . S
Cu253 O259 1.974 . S
Cu253 N264 1.985 . S
Cu253 O273 1.959 . S
N254 Cu253 1.999 . S
N254 C256 1.263 . S
N254 C258 1.389 . S
N255 C256 1.358 . S
N255 C257 1.400 . S
C256 N254 1.263 . S
C256 N255 1.358 . S
C256 H262 0.930 . S
C257 N255 1.400 . S
C257 C258 1.351 . S
C257 H274 0.930 . S
C258 N254 1.389 . S
C258 C257 1.351 . S
C258 H263 0.930 . S
O259 Cu253 1.974 . S
O259 C269 1.282 . S
C260 O261 1.261 . S
C260 O273 1.251 . S
O261 C260 1.261 . S
H262 C256 0.930 . S
H263 C258 0.930 . S
N264 Cu253 1.985 . S
N264 C266 1.335 . S
N264 C267 1.390 . S
N265 C266 1.345 . S
N265 C268 1.336 . S
C266 N264 1.335 . S
C266 N265 1.345 . S
C266 H271 0.930 . S
C267 N264 1.390 . S
C267 C268 1.346 . S
C267 H272 0.930 . S
C268 N265 1.336 . S
C268 C267 1.346 . S
C268 H275 0.929 . S
C269 O259 1.282 . S
C269 O270 1.216 . S
O270 C269 1.216 . S
H271 C266 0.930 . S
H272 C267 0.930 . S
O273 Cu253 1.959 . S
O273 C260 1.251 . S
H274 C257 0.930 . S
H275 C268 0.929 . S
C276 C277 1.387 . S
C276 H280 0.950 . S
C276 C285 1.390 . S
C277 C276 1.387 . S
C277 C279 1.387 . S
H278 C285 0.950 . S
C279 C277 1.387 . S
C279 C281 1.390 . S
C279 H283 0.950 . S
H280 C276 0.950 . S
C281 C279 1.390 . S
C281 C282 1.387 . S
C281 H284 0.950 . S
C282 C281 1.387 . S
C282 C285 1.387 . S
H283 C279 0.950 . S
H284 C281 0.950 . S
C285 C276 1.390 . S
C285 H278 0.950 . S
C285 C282 1.387 . S
C286 C287 1.387 . S
C286 H290 0.950 . S
C286 C295 1.390 . S
C287 C286 1.387 . S
C287 C289 1.387 . S
H288 C295 0.950 . S
C289 C287 1.387 . S
C289 C291 1.390 . S
C289 H293 0.950 . S
H290 C286 0.950 . S
C291 C289 1.390 . S
C291 C292 1.387 . S
C291 H294 0.950 . S
C292 C291 1.387 . S
C292 C295 1.387 . S
H293 C289 0.950 . S
H294 C291 0.950 . S
C295 C286 1.390 . S
C295 H288 0.950 . S
C295 C292 1.387 . S
C296 C297 1.387 . S
C296 H300 0.950 . S
C296 C305 1.390 . S
C297 C296 1.387 . S
C297 C299 1.387 . S
H298 C305 0.950 . S
C299 C297 1.387 . S
C299 C301 1.390 . S
C299 H303 0.950 . S
H300 C296 0.950 . S
C301 C299 1.390 . S
C301 C302 1.387 . S
C301 H304 0.950 . S
C302 C301 1.387 . S
C302 C305 1.387 . S
H303 C299 0.950 . S
H304 C301 0.950 . S
C305 C296 1.390 . S
C305 H298 0.950 . S
C305 C302 1.387 . S
C306 C307 1.387 . S
C306 H310 0.950 . S
C306 C315 1.390 . S
C307 C306 1.387 . S
C307 C309 1.387 . S
H308 C315 0.950 . S
C309 C307 1.387 . S
C309 C311 1.390 . S
C309 H313 0.950 . S
H310 C306 0.950 . S
C311 C309 1.390 . S
C311 C312 1.387 . S
C311 H314 0.950 . S
C312 C311 1.387 . S
C312 C315 1.387 . S
H313 C309 0.950 . S
H314 C311 0.950 . S
C315 C306 1.390 . S
C315 H308 0.950 . S
C315 C312 1.387 . S
C316 C317 1.387 . S
C316 H320 0.950 . S
C316 C325 1.390 . S
C317 C316 1.387 . S
C317 C319 1.387 . S
H318 C325 0.950 . S
C319 C317 1.387 . S
C319 C321 1.390 . S
C319 H323 0.950 . S
H320 C316 0.950 . S
C321 C319 1.390 . S
C321 C322 1.387 . S
C321 H324 0.950 . S
C322 C321 1.387 . S
C322 C325 1.387 . S
H323 C319 0.950 . S
H324 C321 0.950 . S
C325 C316 1.390 . S
C325 H318 0.950 . S
C325 C322 1.387 . S
C326 C327 1.387 . S
C326 H330 0.950 . S
C326 C335 1.390 . S
C327 C326 1.387 . S
C327 C329 1.387 . S
H328 C335 0.950 . S
C329 C327 1.387 . S
C329 C331 1.390 . S
C329 H333 0.950 . S
H330 C326 0.950 . S
C331 C329 1.390 . S
C331 C332 1.387 . S
C331 H334 0.950 . S
C332 C331 1.387 . S
C332 C335 1.387 . S
H333 C329 0.950 . S
H334 C331 0.950 . S
C335 C326 1.390 . S
C335 H328 0.950 . S
C335 C332 1.387 . S
C336 C337 1.387 . S
C336 H340 0.950 . S
C336 C345 1.390 . S
C337 C336 1.387 . S
C337 C339 1.387 . S
H338 C345 0.950 . S
C339 C337 1.387 . S
C339 C341 1.390 . S
C339 H343 0.950 . S
H340 C336 0.950 . S
C341 C339 1.390 . S
C341 C342 1.387 . S
C341 H344 0.950 . S
C342 C341 1.387 . S
C342 C345 1.387 . S
H343 C339 0.950 . S
H344 C341 0.950 . S
C345 C336 1.390 . S
C345 H338 0.950 . S
C345 C342 1.387 . S
C346 C347 1.387 . S
C346 H350 0.950 . S
C346 C355 1.390 . S
C347 C346 1.387 . S
C347 C349 1.387 . S
H348 C355 0.950 . S
C349 C347 1.387 . S
C349 C351 1.390 . S
C349 H353 0.950 . S
H350 C346 0.950 . S
C351 C349 1.390 . S
C351 C352 1.387 . S
C351 H354 0.950 . S
C352 C351 1.387 . S
C352 C355 1.387 . S
H353 C349 0.950 . S
H354 C351 0.950 . S
C355 C346 1.390 . S
C355 H348 0.950 . S
C355 C352 1.387 . S
C356 C357 1.387 . S
C356 H360 0.950 1_556 S
C356 C365 1.390 . S
C357 C356 1.387 . S
C357 C359 1.387 . S
H358 C365 0.950 . S
C359 C357 1.387 . S
C359 C361 1.390 . S
C359 H363 0.950 . S
H360 C356 0.950 1_554 S
C361 C359 1.390 . S
C361 C362 1.387 . S
C361 H364 0.950 . S
C362 C361 1.387 . S
C362 C365 1.387 . S
H363 C359 0.950 . S
H364 C361 0.950 . S
C365 C356 1.390 . S
C365 H358 0.950 . S
C365 C362 1.387 . S
C366 C367 1.387 . S
C366 H370 0.950 . S
C366 C375 1.390 . S
C367 C366 1.387 . S
C367 C369 1.387 . S
H368 C375 0.950 . S
C369 C367 1.387 . S
C369 C371 1.390 . S
C369 H373 0.950 . S
H370 C366 0.950 . S
C371 C369 1.390 . S
C371 C372 1.387 . S
C371 H374 0.950 . S
C372 C371 1.387 . S
C372 C375 1.387 . S
H373 C369 0.950 . S
H374 C371 0.950 . S
C375 C366 1.390 . S
C375 H368 0.950 . S
C375 C372 1.387 . S
C376 C377 1.387 . S
C376 H380 0.950 . S
C376 C385 1.390 . S
C377 C376 1.387 . S
C377 C379 1.387 . S
H378 C385 0.950 . S
C379 C377 1.387 . S
C379 C381 1.390 . S
C379 H383 0.950 . S
H380 C376 0.950 . S
C381 C379 1.390 . S
C381 C382 1.387 . S
C381 H384 0.950 . S
C382 C381 1.387 . S
C382 C385 1.387 . S
H383 C379 0.950 . S
H384 C381 0.950 . S
C385 C376 1.390 . S
C385 H378 0.950 . S
C385 C382 1.387 . S
C386 C387 1.387 . S
C386 H390 0.950 . S
C386 C395 1.390 . S
C387 C386 1.387 . S
C387 C389 1.387 . S
H388 C395 0.950 . S
C389 C387 1.387 . S
C389 C391 1.390 . S
C389 H393 0.950 . S
H390 C386 0.950 . S
C391 C389 1.390 . S
C391 C392 1.387 . S
C391 H394 0.950 . S
C392 C391 1.387 . S
C392 C395 1.387 . S
H393 C389 0.950 . S
H394 C391 0.950 . S
C395 C386 1.390 . S
C395 H388 0.950 . S
C395 C392 1.387 . S
C396 C397 1.387 . S
C396 H400 0.950 . S
C396 C405 1.390 1_655 S
C397 C396 1.387 . S
C397 C399 1.387 . S
H398 C405 0.950 . S
C399 C397 1.387 . S
C399 C401 1.390 1_655 S
C399 H403 0.950 . S
H400 C396 0.950 . S
C401 C399 1.390 1_455 S
C401 C402 1.387 . S
C401 H404 0.950 . S
C402 C401 1.387 . S
C402 C405 1.387 . S
H403 C399 0.950 . S
H404 C401 0.950 . S
C405 C396 1.390 1_455 S
C405 H398 0.950 . S
C405 C402 1.387 . S
C406 C407 1.387 . S
C406 H410 0.950 . S
C406 C415 1.390 1_565 S
C407 C406 1.387 . S
C407 C409 1.387 . S
H408 C415 0.950 . S
C409 C407 1.387 . S
C409 C411 1.390 1_565 S
C409 H413 0.950 . S
H410 C406 0.950 . S
C411 C409 1.390 1_545 S
C411 C412 1.387 . S
C411 H414 0.950 . S
C412 C411 1.387 . S
C412 C415 1.387 . S
H413 C409 0.950 . S
H414 C411 0.950 . S
C415 C406 1.390 1_545 S
C415 H408 0.950 . S
C415 C412 1.387 . S
C416 C417 1.387 . S
C416 H420 0.950 . S
C416 C425 1.390 . S
C417 C416 1.387 . S
C417 C419 1.387 . S
H418 C425 0.950 . S
C419 C417 1.387 . S
C419 C421 1.390 . S
C419 H423 0.950 . S
H420 C416 0.950 . S
C421 C419 1.390 . S
C421 C422 1.387 . S
C421 H424 0.950 . S
C422 C421 1.387 . S
C422 C425 1.387 . S
H423 C419 0.950 . S
H424 C421 0.950 . S
C425 C416 1.390 . S
C425 H418 0.950 . S
C425 C422 1.387 . S
C426 C427 1.387 . S
C426 H430 0.950 . S
C426 C435 1.390 1_455 S
C427 C426 1.387 . S
C427 C429 1.387 . S
H428 C435 0.950 . S
C429 C427 1.387 . S
C429 C431 1.390 1_455 S
C429 H433 0.950 . S
H430 C426 0.950 . S
C431 C429 1.390 1_655 S
C431 C432 1.387 . S
C431 H434 0.950 . S
C432 C431 1.387 . S
C432 C435 1.387 . S
H433 C429 0.950 . S
H434 C431 0.950 . S
C435 C426 1.390 1_655 S
C435 H428 0.950 . S
C435 C432 1.387 . S
C436 C437 1.387 . S
C436 H440 0.950 . S
C436 C445 1.390 1_546 S
C437 C436 1.387 . S
C437 C439 1.387 . S
H438 C445 0.950 . S
C439 C437 1.387 . S
C439 C441 1.390 1_546 S
C439 H443 0.950 . S
H440 C436 0.950 . S
C441 C439 1.390 1_564 S
C441 C442 1.387 . S
C441 H444 0.950 . S
C442 C441 1.387 . S
C442 C445 1.387 . S
H443 C439 0.950 . S
H444 C441 0.950 . S
C445 C436 1.390 1_564 S
C445 H438 0.950 . S
C445 C442 1.387 . S
C446 C447 1.387 . S
C446 H450 0.950 . S
C446 C455 1.390 . S
C447 C446 1.387 . S
C447 C449 1.387 . S
H448 C455 0.950 . S
C449 C447 1.387 . S
C449 C451 1.390 . S
C449 H453 0.950 . S
H450 C446 0.950 . S
C451 C449 1.390 . S
C451 C452 1.387 . S
C451 H454 0.950 . S
C452 C451 1.387 . S
C452 C455 1.387 . S
H453 C449 0.950 . S
H454 C451 0.950 . S
C455 C446 1.390 . S
C455 H448 0.950 . S
C455 C452 1.387 . S
C456 C457 1.387 . S
C456 H460 0.950 . S
C456 C465 1.390 . S
C457 C456 1.387 . S
C457 C459 1.387 . S
H458 C465 0.950 . S
C459 C457 1.387 . S
C459 C461 1.390 . S
C459 H463 0.950 . S
H460 C456 0.950 . S
C461 C459 1.390 . S
C461 C462 1.387 . S
C461 H464 0.950 . S
C462 C461 1.387 . S
C462 C465 1.387 . S
H463 C459 0.950 . S
H464 C461 0.950 . S
C465 C456 1.390 . S
C465 H458 0.950 . S
C465 C462 1.387 . S
C466 C467 1.387 . S
C466 H470 0.950 . S
C466 C475 1.390 . S
C467 C466 1.387 . S
C467 C469 1.387 . S
H468 C475 0.950 . S
C469 C467 1.387 . S
C469 C471 1.390 . S
C469 H473 0.950 . S
H470 C466 0.950 . S
C471 C469 1.390 . S
C471 C472 1.387 . S
C471 H474 0.950 . S
C472 C471 1.387 . S
C472 C475 1.387 . S
H473 C469 0.950 . S
H474 C471 0.950 . S
C475 C466 1.390 . S
C475 H468 0.950 . S
C475 C472 1.387 . S
C476 C477 1.387 . S
C476 H480 0.950 . S
C476 C485 1.390 . S
C477 C476 1.387 . S
C477 C479 1.387 . S
H478 C485 0.950 . S
C479 C477 1.387 . S
C479 C481 1.390 . S
C479 H483 0.950 . S
H480 C476 0.950 . S
C481 C479 1.390 . S
C481 C482 1.387 . S
C481 H484 0.950 . S
C482 C481 1.387 . S
C482 C485 1.387 . S
H483 C479 0.950 . S
H484 C481 0.950 . S
C485 C476 1.390 . S
C485 H478 0.950 . S
C485 C482 1.387 . S
C486 C487 1.387 . S
C486 H490 0.950 . S
C486 C495 1.390 . S
C487 C486 1.387 . S
C487 C489 1.387 . S
H488 C495 0.950 . S
C489 C487 1.387 . S
C489 C491 1.390 . S
C489 H493 0.950 . S
H490 C486 0.950 . S
C491 C489 1.390 . S
C491 C492 1.387 . S
C491 H494 0.950 . S
C492 C491 1.387 . S
C492 C495 1.387 . S
H493 C489 0.950 . S
H494 C491 0.950 . S
C495 C486 1.390 . S
C495 H488 0.950 . S
C495 C492 1.387 . S
C496 C497 1.387 . S
C496 H500 0.950 1_556 S
C496 C505 1.390 . S
C497 C496 1.387 . S
C497 C499 1.387 . S
H498 C505 0.950 . S
C499 C497 1.387 . S
C499 C501 1.390 . S
C499 H503 0.950 . S
H500 C496 0.950 1_554 S
C501 C499 1.390 . S
C501 C502 1.387 . S
C501 H504 0.950 . S
C502 C501 1.387 . S
C502 C505 1.387 . S
H503 C499 0.950 . S
H504 C501 0.950 . S
C505 C496 1.390 . S
C505 H498 0.950 . S
C505 C502 1.387 . S
C506 C507 1.387 . S
C506 H510 0.950 . S
C506 C515 1.390 . S
C507 C506 1.387 . S
C507 C509 1.387 . S
H508 C515 0.950 . S
C509 C507 1.387 . S
C509 C511 1.390 . S
C509 H513 0.950 . S
H510 C506 0.950 . S
C511 C509 1.390 . S
C511 C512 1.387 . S
C511 H514 0.950 . S
C512 C511 1.387 . S
C512 C515 1.387 . S
H513 C509 0.950 . S
H514 C511 0.950 . S
C515 C506 1.390 . S
C515 H508 0.950 . S
C515 C512 1.387 . S
C277 N2 1.360 . S
C282 N140 1.364 . S
C287 N25 1.360 . S
C292 N163 1.364 . S
C297 N186 1.362 . S
C302 N48 1.362 . S
C307 N71 1.360 . S
C312 N209 1.364 . S
C317 N94 1.360 . S
C322 N232 1.364 . S
C327 N255 1.362 . S
C332 N117 1.362 . S
C337 C191 1.571 . S
C342 C7 1.574 . S
C347 C30 1.571 . S
C352 C214 1.571 . S
C357 C237 1.583 . S
C362 C53 1.573 . S
C367 C260 1.574 . S
C372 C76 1.584 . S
C377 C99 1.571 . S
C382 C145 1.571 . S
C387 C122 1.571 . S
C392 C168 1.574 . S
C397 N265 1.805 . S
C402 N12 1.806 . S
C407 N150 1.802 . S
C412 N35 1.802 . S
C417 N58 1.804 . S
C422 N173 1.803 . S
C427 N196 1.802 . S
C432 N81 1.802 . S
C437 N219 1.802 . S
C442 N104 1.802 . S
C447 N242 1.803 . S
C452 N127 1.803 . S
C457 C16 1.698 . S
C462 C246 1.698 . S
C467 C269 1.697 . S
C472 C39 1.697 . S
C477 C62 1.698 . S
C482 C154 1.698 . S
C487 C85 1.697 . S
C492 C177 1.697 . S
C497 C108 1.697 1_556 S
C502 C200 1.697 . S
C507 C131 1.698 . S
C512 C223 1.698 1_554 S
