# Generated by pormake.
# Topology wme, (6)-cn, num edge types: 1
# Building blocks:
#     Node 0, Type 0, BuildingBlock: VOLQOD_clean_sbu_1, # of connection points: 6
#     Node 1, Type 0, BuildingBlock: VOLQOD_clean_sbu_1, # of connection points: 6
#     Node 2, Type 0, BuildingBlock: VOLQOD_clean_sbu_1, # of connection points: 6
#     Node 3, Type 0, BuildingBlock: VOLQOD_clean_sbu_1, # of connection points: 6
#     Node 4, Type 0, BuildingBlock: VOLQOD_clean_sbu_1, # of connection points: 6
#     Node 5, Type 0, BuildingBlock: VOLQOD_clean_sbu_1, # of connection points: 6
#     Node 6, Type 0, BuildingBlock: VOLQOD_clean_sbu_1, # of connection points: 6
#     Node 7, Type 0, BuildingBlock: VOLQOD_clean_sbu_1, # of connection points: 6
#     Node 8, Type 0, BuildingBlock: VOLQOD_clean_sbu_1, # of connection points: 6
#     Node 9, Type 0, BuildingBlock: VOLQOD_clean_sbu_1, # of connection points: 6
#     Node 10, Type 0, BuildingBlock: VOLQOD_clean_sbu_1, # of connection points: 6
#     Node 11, Type 0, BuildingBlock: VOLQOD_clean_sbu_1, # of connection points: 6
#     Edge 12, Type (0, 0), BuildingBlock: KIFKEQ_clean_linker_1, # of connection points: 2
#     Edge 13, Type (0, 0), BuildingBlock: KIFKEQ_clean_linker_1, # of connection points: 2
#     Edge 14, Type (0, 0), BuildingBlock: KIFKEQ_clean_linker_1, # of connection points: 2
#     Edge 15, Type (0, 0), BuildingBlock: KIFKEQ_clean_linker_1, # of connection points: 2
#     Edge 16, Type (0, 0), BuildingBlock: KIFKEQ_clean_linker_1, # of connection points: 2
#     Edge 17, Type (0, 0), BuildingBlock: KIFKEQ_clean_linker_1, # of connection points: 2
#     Edge 18, Type (0, 0), BuildingBlock: KIFKEQ_clean_linker_1, # of connection points: 2
#     Edge 19, Type (0, 0), BuildingBlock: KIFKEQ_clean_linker_1, # of connection points: 2
#     Edge 20, Type (0, 0), BuildingBlock: KIFKEQ_clean_linker_1, # of connection points: 2
#     Edge 21, Type (0, 0), BuildingBlock: KIFKEQ_clean_linker_1, # of connection points: 2
#     Edge 22, Type (0, 0), BuildingBlock: KIFKEQ_clean_linker_1, # of connection points: 2
#     Edge 23, Type (0, 0), BuildingBlock: KIFKEQ_clean_linker_1, # of connection points: 2
#     Edge 24, Type (0, 0), BuildingBlock: KIFKEQ_clean_linker_1, # of connection points: 2
#     Edge 25, Type (0, 0), BuildingBlock: KIFKEQ_clean_linker_1, # of connection points: 2
#     Edge 26, Type (0, 0), BuildingBlock: KIFKEQ_clean_linker_1, # of connection points: 2
#     Edge 27, Type (0, 0), BuildingBlock: KIFKEQ_clean_linker_1, # of connection points: 2
#     Edge 28, Type (0, 0), BuildingBlock: KIFKEQ_clean_linker_1, # of connection points: 2
#     Edge 29, Type (0, 0), BuildingBlock: KIFKEQ_clean_linker_1, # of connection points: 2
#     Edge 30, Type (0, 0), BuildingBlock: KIFKEQ_clean_linker_1, # of connection points: 2
#     Edge 31, Type (0, 0), BuildingBlock: KIFKEQ_clean_linker_1, # of connection points: 2
#     Edge 32, Type (0, 0), BuildingBlock: KIFKEQ_clean_linker_1, # of connection points: 2
#     Edge 33, Type (0, 0), BuildingBlock: KIFKEQ_clean_linker_1, # of connection points: 2
#     Edge 34, Type (0, 0), BuildingBlock: KIFKEQ_clean_linker_1, # of connection points: 2
#     Edge 35, Type (0, 0), BuildingBlock: KIFKEQ_clean_linker_1, # of connection points: 2
#     Edge 36, Type (0, 0), BuildingBlock: KIFKEQ_clean_linker_1, # of connection points: 2
#     Edge 37, Type (0, 0), BuildingBlock: KIFKEQ_clean_linker_1, # of connection points: 2
#     Edge 38, Type (0, 0), BuildingBlock: KIFKEQ_clean_linker_1, # of connection points: 2
#     Edge 39, Type (0, 0), BuildingBlock: KIFKEQ_clean_linker_1, # of connection points: 2
#     Edge 40, Type (0, 0), BuildingBlock: KIFKEQ_clean_linker_1, # of connection points: 2
#     Edge 41, Type (0, 0), BuildingBlock: KIFKEQ_clean_linker_1, # of connection points: 2
#     Edge 42, Type (0, 0), BuildingBlock: KIFKEQ_clean_linker_1, # of connection points: 2
#     Edge 43, Type (0, 0), BuildingBlock: KIFKEQ_clean_linker_1, # of connection points: 2
#     Edge 44, Type (0, 0), BuildingBlock: KIFKEQ_clean_linker_1, # of connection points: 2
#     Edge 45, Type (0, 0), BuildingBlock: KIFKEQ_clean_linker_1, # of connection points: 2
#     Edge 46, Type (0, 0), BuildingBlock: KIFKEQ_clean_linker_1, # of connection points: 2
#     Edge 47, Type (0, 0), BuildingBlock: KIFKEQ_clean_linker_1, # of connection points: 2
# Relax obj value: 0.331
# Max RMSD: 0.236
# Mean RMSD: 0.236
data_MOF--net-wme--node1-VOLQOD_clean_sbu_1--edge1-KIFKEQ_clean_linker_1
_symmetry_space_group_name_H-M    P1
_symmetry_Int_Tables_number       1
_symmetry_cell_setting            triclinic
loop_
_symmetry_equiv_pos_as_xyz
'x, y, z'
_cell_length_a     31.77671
_cell_length_b     31.780695
_cell_length_c     66.367929
_cell_angle_alpha  89.720798
_cell_angle_beta   90.138176
_cell_angle_gamma 119.91005
loop_
_atom_site_label
_atom_site_type_symbol
_atom_site_fract_x
_atom_site_fract_y
_atom_site_fract_z
_atom_type_partial_charge
O0 O 0.17395 0.37274 0.09176 0.0
Zn1 Zn 0.18599 0.31666 0.09166 0.0
O2 O 0.22944 0.32161 0.11373 0.0
Zn3 Zn 0.28552 0.32008 0.10276 0.0
Zn4 Zn 0.25049 0.38124 0.12827 0.0
Zn5 Zn 0.19586 0.26862 0.13268 0.0
O6 O 0.28632 0.25974 0.11117 0.0
O7 O 0.22273 0.22412 0.13172 0.0
O8 O 0.21166 0.31203 0.06441 0.0
O9 O 0.28154 0.31694 0.07293 0.0
O10 O 0.34837 0.38043 0.10927 0.0
O11 O 0.32184 0.42296 0.12618 0.0
O12 O 0.23324 0.37046 0.15747 0.0
O13 O 0.11921 0.26049 0.09615 0.0
O14 O 0.19825 0.29077 0.16108 0.0
O15 O 0.1254 0.2309 0.1257 0.0
C16 C 0.18797 0.40884 0.10345 0.0
C17 C 0.25831 0.2248 0.12268 0.0
C18 C 0.35614 0.4184 0.11869 0.0
C19 C 0.25111 0.31332 0.05962 0.0
C20 C 0.21288 0.33265 0.16845 0.0
C21 C 0.10016 0.23121 0.11085 0.0
O22 O 0.21773 0.41646 0.11771 0.0
O23 O 0.79717 0.19165 0.59188 0.0
Zn24 Zn 0.86126 0.19473 0.5929 0.0
O25 O 0.89915 0.23404 0.61586 0.0
Zn26 Zn 0.95928 0.28873 0.60593 0.0
Zn27 Zn 0.86318 0.25686 0.6314 0.0
Zn28 Zn 0.91287 0.19461 0.63364 0.0
O29 O 0.01721 0.28651 0.61637 0.0
O30 O 0.98276 0.21522 0.63228 0.0
O31 O 0.89619 0.21936 0.56653 0.0
O32 O 0.96391 0.28504 0.5761 0.0
O33 O 0.96293 0.35241 0.61159 0.0
O34 O 0.89538 0.32849 0.62937 0.0
O35 O 0.85639 0.23841 0.66081 0.0
O36 O 0.84202 0.12459 0.59629 0.0
O37 O 0.89596 0.19763 0.66211 0.0
O38 O 0.8718 0.12479 0.62659 0.0
C39 C 0.7752 0.204 0.60445 0.0
C40 C 0.02018 0.25311 0.62578 0.0
C41 C 0.93411 0.36173 0.62132 0.0
C42 C 0.93725 0.25612 0.56242 0.0
C43 C 0.87204 0.21465 0.67069 0.0
C44 C 0.84637 0.10225 0.61136 0.0
O45 O 0.79608 0.22803 0.62024 0.0
O46 O 0.60631 0.79088 0.09672 0.0
Zn47 Zn 0.66176 0.85893 0.09852 0.0
O48 O 0.64931 0.89497 0.11928 0.0
Zn49 Zn 0.65361 0.95328 0.10764 0.0
Zn50 Zn 0.58646 0.85533 0.13122 0.0
Zn51 Zn 0.69606 0.91168 0.14055 0.0
O52 O 0.71233 0.01328 0.11813 0.0
O53 O 0.74555 0.98154 0.13827 0.0
O54 O 0.67386 0.891 0.07115 0.0
O55 O 0.66616 0.95497 0.07829 0.0
O56 O 0.59023 0.95382 0.10973 0.0
O57 O 0.54365 0.88126 0.12379 0.0
O58 O 0.58777 0.85318 0.16139 0.0
O59 O 0.7166 0.8481 0.10647 0.0
O60 O 0.66615 0.89908 0.1679 0.0
O61 O 0.72854 0.87162 0.13843 0.0
C62 C 0.56873 0.76716 0.10759 0.0
C63 C 0.74685 0.0178 0.12942 0.0
C64 C 0.5492 0.92038 0.11607 0.0
C65 C 0.67389 0.92953 0.06574 0.0
C66 C 0.62251 0.87364 0.17388 0.0
C67 C 0.7355 0.85043 0.12366 0.0
O68 O 0.55775 0.78754 0.12144 0.0
O69 O 0.80161 0.60021 0.59122 0.0
Zn70 Zn 0.79467 0.65915 0.59161 0.0
O71 O 0.75241 0.65605 0.61357 0.0
Zn72 Zn 0.69496 0.65529 0.60241 0.0
Zn73 Zn 0.73487 0.60006 0.63029 0.0
Zn74 Zn 0.78845 0.7112 0.63059 0.0
O75 O 0.69361 0.71616 0.6109 0.0
O76 O 0.76429 0.75694 0.62707 0.0
O77 O 0.77169 0.66865 0.56495 0.0
O78 O 0.69913 0.65914 0.57211 0.0
O79 O 0.6335 0.59224 0.60975 0.0
O80 O 0.66426 0.55581 0.62854 0.0
O81 O 0.75295 0.61546 0.65951 0.0
O82 O 0.86339 0.71113 0.59569 0.0
O83 O 0.78431 0.69507 0.65964 0.0
O84 O 0.85926 0.74164 0.6251 0.0
C85 C 0.79252 0.56838 0.60476 0.0
C86 C 0.72576 0.75406 0.61994 0.0
C87 C 0.62833 0.55625 0.6203 0.0
C88 C 0.73217 0.66622 0.55948 0.0
C89 C 0.77187 0.65557 0.66888 0.0
C90 C 0.88373 0.7385 0.61068 0.0
O91 O 0.76862 0.56562 0.62054 0.0
O92 O 0.17581 0.78774 0.0879 0.0
Zn93 Zn 0.11068 0.78209 0.09159 0.0
O94 O 0.0773 0.74361 0.11558 0.0
Zn95 Zn 0.015 0.68739 0.10802 0.0
Zn96 Zn 0.11743 0.72226 0.12915 0.0
Zn97 Zn 0.067 0.78385 0.13424 0.0
O98 O 0.9587 0.68974 0.12135 0.0
O99 O -0.00304 0.75769 0.13916 0.0
O100 O 0.06986 0.75495 0.06676 0.0
O101 O 0.00479 0.68868 0.07832 0.0
O102 O 0.01444 0.6243 0.11334 0.0
O103 O 0.08601 0.65077 0.12829 0.0
O104 O 0.1335 0.74435 0.1579 0.0
O105 O 0.12786 0.85143 0.0946 0.0
O106 O 0.10152 0.79216 0.16022 0.0
O107 O 0.09461 0.85115 0.12393 0.0
C108 C 0.19991 0.77514 0.09927 0.0
C109 C 0.95799 0.72088 0.1332 0.0
C110 C 0.04606 0.61646 0.12167 0.0
C111 C 0.02867 0.71724 0.06394 0.0
C112 C 0.12613 0.77436 0.16764 0.0
C113 C 0.11898 0.8734 0.10842 0.0
O114 O 0.18154 0.75052 0.11527 0.0
O115 O 0.38292 0.18442 0.59422 0.0
Zn116 Zn 0.3236 0.11858 0.59148 0.0
O117 O 0.31724 0.074 0.61305 0.0
Zn118 Zn 0.31966 0.01896 0.60168 0.0
Zn119 Zn 0.36874 0.1083 0.632 0.0
Zn120 Zn 0.25785 0.05227 0.6275 0.0
O121 O 0.26527 0.95492 0.61223 0.0
O122 O 0.22012 0.98099 0.62734 0.0
O123 O 0.31834 0.08942 0.56424 0.0
O124 O 0.30974 0.0174 0.57182 0.0
O125 O 0.38574 0.02686 0.60656 0.0
O126 O 0.41778 0.08777 0.62856 0.0
O127 O 0.34704 0.10047 0.66075 0.0
O128 O 0.26988 0.13337 0.59355 0.0
O129 O 0.26844 0.07203 0.65637 0.0
O130 O 0.21969 0.08071 0.61617 0.0
C131 C 0.40436 0.20439 0.61059 0.0
C132 C 0.22719 0.94681 0.62178 0.0
C133 C 0.42042 0.05595 0.61792 0.0
C134 C 0.31093 0.04781 0.55895 0.0
C135 C 0.3054 0.08873 0.66776 0.0
C136 C 0.23062 0.11487 0.60356 0.0
O137 O 0.39952 0.17948 0.62638 0.0
O138 O 0.59708 0.80267 0.39918 0.0
Zn139 Zn 0.65831 0.80405 0.39139 0.0
O140 O 0.64675 0.76336 0.36757 0.0
Zn141 Zn 0.66069 0.71157 0.37406 0.0
Zn142 Zn 0.58079 0.73597 0.35786 0.0
Zn143 Zn 0.68852 0.80328 0.34629 0.0
O144 O 0.72081 0.72223 0.35957 0.0
O145 O 0.74025 0.78746 0.3408 0.0
O146 O 0.68016 0.78034 0.41507 0.0
O147 O 0.67394 0.71191 0.40354 0.0
O148 O 0.60408 0.64528 0.36821 0.0
O149 O 0.54932 0.66436 0.35742 0.0
O150 O 0.57572 0.75787 0.32975 0.0
O151 O 0.70515 0.87484 0.38609 0.0
O152 O 0.65346 0.79981 0.32121 0.0
O153 O 0.71922 0.8726 0.35353 0.0
C154 C 0.55456 0.78193 0.39175 0.0
C155 C 0.74877 0.75453 0.347 0.0
C156 C 0.56195 0.63316 0.3616 0.0
C157 C 0.68231 0.74177 0.41776 0.0
C158 C 0.60892 0.78265 0.31704 0.0
C159 C 0.72368 0.89622 0.36951 0.0
O160 O 0.54368 0.7552 0.37619 0.0
O161 O 0.78483 0.5924 0.8828 0.0
Zn162 Zn 0.84981 0.65148 0.88682 0.0
O163 O 0.89657 0.65688 0.86641 0.0
Zn164 Zn 0.95076 0.65562 0.87966 0.0
Zn165 Zn 0.86578 0.60376 0.84782 0.0
Zn166 Zn 0.91803 0.71532 0.85074 0.0
O167 O 0.0141 0.71602 0.87315 0.0
O168 O -0.01111 0.75738 0.85426 0.0
O169 O 0.87394 0.65402 0.91502 0.0
O170 O 0.94362 0.65555 0.90953 0.0
O171 O 0.95141 0.59399 0.87356 0.0
O172 O 0.8893 0.55743 0.85231 0.0
O173 O 0.8745 0.62333 0.81885 0.0
O174 O 0.83463 0.70482 0.88358 0.0
O175 O 0.90393 0.7025 0.82131 0.0
O176 O 0.8832 0.7504 0.85893 0.0
C177 C 0.76744 0.56765 0.86685 0.0
C178 C 0.02252 0.75353 0.86298 0.0
C179 C 0.92347 0.55805 0.86255 0.0
C180 C 0.91222 0.65516 0.92147 0.0
C181 C 0.8876 0.66429 0.81074 0.0
C182 C 0.85007 0.74115 0.87181 0.0
O183 O 0.7944 0.57045 0.85218 0.0
O184 O 0.1577 0.80058 0.38358 0.0
Zn185 Zn 0.17664 0.87147 0.38211 0.0
O186 O 0.22592 0.90665 0.36154 0.0
Zn187 Zn 0.28381 0.95966 0.37332 0.0
Zn188 Zn 0.24086 0.86181 0.34922 0.0
Zn189 Zn 0.2023 0.93027 0.34061 0.0
O190 O 0.30086 0.02468 0.36097 0.0
O191 O 0.23486 0.00166 0.34219 0.0
O192 O 0.19759 0.90303 0.40941 0.0
O193 O 0.27 0.96577 0.40202 0.0
O194 O 0.33782 0.94358 0.37501 0.0
O195 O 0.29799 0.86762 0.36352 0.0
O196 O 0.2509 0.86972 0.31916 0.0
O197 O 0.11455 0.86811 0.37371 0.0
O198 O 0.21541 0.9134 0.31352 0.0
O199 O 0.13068 0.90105 0.34307 0.0
C200 C 0.15909 0.77541 0.36901 0.0
C201 C 0.27435 0.03472 0.34977 0.0
C202 C 0.33402 0.90207 0.3725 0.0
C203 C 0.23615 0.94156 0.41457 0.0
C204 C 0.23553 0.89017 0.30703 0.0
C205 C 0.10091 0.87831 0.35724 0.0
O206 O 0.18632 0.79505 0.35381 0.0
O207 O 0.3739 0.18469 0.88357 0.0
Zn208 Zn 0.31677 0.19526 0.88562 0.0
O209 O 0.31091 0.23045 0.86258 0.0
Zn210 Zn 0.31634 0.29118 0.87172 0.0
Zn211 Zn 0.36175 0.24258 0.84415 0.0
Zn212 Zn 0.25106 0.19153 0.8482 0.0
O213 O 0.25777 0.29605 0.8633 0.0
O214 O 0.2108 0.2228 0.85001 0.0
O215 O 0.31668 0.22622 0.91182 0.0
O216 O 0.31484 0.29208 0.90188 0.0
O217 O 0.38034 0.34858 0.86288 0.0
O218 O 0.41225 0.31135 0.84561 0.0
O219 O 0.34028 0.22766 0.81567 0.0
O220 O 0.26145 0.12736 0.88572 0.0
O221 O 0.26055 0.18367 0.81883 0.0
O222 O 0.21619 0.12447 0.85965 0.0
C223 C 0.39374 0.18198 0.86739 0.0
C224 C 0.21791 0.26417 0.85547 0.0
C225 C 0.41506 0.34963 0.85285 0.0
C226 C 0.31502 0.26451 0.9158 0.0
C227 C 0.29856 0.20157 0.808 0.0
C228 C 0.22492 0.10398 0.87431 0.0
O229 O 0.38942 0.20022 0.85096 0.0
O230 O 0.2026 0.37916 0.38992 0.0
Zn231 Zn 0.13385 0.32376 0.38876 0.0
O232 O 0.09755 0.33181 0.36657 0.0
Zn233 Zn 0.0413 0.33299 0.37691 0.0
Zn234 Zn 0.13891 0.39 0.35189 0.0
Zn235 Zn 0.07783 0.27979 0.34781 0.0
O236 O 0.97934 0.27548 0.36692 0.0
O237 O 0.00778 0.23309 0.35113 0.0
O238 O 0.10054 0.31509 0.41548 0.0
O239 O 0.03818 0.32447 0.40674 0.0
O240 O 0.04576 0.39756 0.37123 0.0
O241 O 0.11901 0.43911 0.35714 0.0
O242 O 0.13727 0.38049 0.32201 0.0
O243 O 0.14566 0.26829 0.38342 0.0
O244 O 0.08857 0.30133 0.31912 0.0
O245 O 0.11863 0.24918 0.352 0.0
C246 C 0.22713 0.40698 0.37547 0.0
C247 C 0.97263 0.23722 0.35796 0.0
C248 C 0.08051 0.4368 0.36403 0.0
C249 C 0.06256 0.31693 0.42005 0.0
C250 C 0.11495 0.34279 0.31118 0.0
C251 C 0.14228 0.2465 0.36695 0.0
O252 O 0.20701 0.41249 0.35989 0.0
O253 O 0.78503 0.1831 0.89153 0.0
Zn254 Zn 0.78002 0.11817 0.89045 0.0
O255 O 0.73954 0.07919 0.86808 0.0
Zn256 Zn 0.68264 0.0211 0.87871 0.0
Zn257 Zn 0.72003 0.11735 0.85203 0.0
Zn258 Zn 0.77699 0.06156 0.85081 0.0
O259 O 0.68098 0.96024 0.86881 0.0
O260 O 0.7497 0.99048 0.85127 0.0
O261 O 0.75686 0.08375 0.91688 0.0
O262 O 0.68779 0.01765 0.90874 0.0
O263 O 0.62041 0.02175 0.87236 0.0
O264 O 0.64899 0.08847 0.85344 0.0
O265 O 0.73926 0.12322 0.82291 0.0
O266 O 0.84908 0.13584 0.88644 0.0
O267 O 0.77914 0.0827 0.82237 0.0
O268 O 0.84656 0.09488 0.85911 0.0
C269 C 0.77466 0.20576 0.87842 0.0
C270 C 0.71151 0.95463 0.85844 0.0
C271 C 0.61388 0.05161 0.86177 0.0
C272 C 0.71929 0.04404 0.92178 0.0
C273 C 0.76347 0.10764 0.81349 0.0
C274 C 0.87023 0.12435 0.87317 0.0
O275 O 0.75107 0.18496 0.86254 0.0
H276 H 0.20239 0.93664 0.08871 0.0
H277 H 0.09146 0.93003 0.12831 0.0
H278 H 0.25026 0.02437 0.09364 0.0
H279 H 0.13818 0.01735 0.1327 0.0
H280 H 0.23748 0.16092 0.15342 0.0
H281 H 0.21119 0.07513 0.14956 0.0
H282 H 0.25113 0.09957 0.08658 0.0
H283 H 0.27961 0.18574 0.09078 0.0
C284 C 0.18776 0.95411 0.09808 0.0
C285 C 0.14332 0.92666 0.1082 0.0
C286 C 0.21533 0.00421 0.10102 0.0
C287 C 0.19864 0.02753 0.114 0.0
C288 C 0.15295 0.00021 0.12321 0.0
C289 C 0.12576 0.9503 0.12045 0.0
C290 C 0.24251 0.14817 0.139 0.0
C291 C 0.25979 0.17948 0.12233 0.0
C292 C 0.22688 0.09905 0.13669 0.0
C293 C 0.22729 0.08042 0.11757 0.0
C294 C 0.25 0.11278 0.10146 0.0
C295 C 0.26654 0.16221 0.10389 0.0
H296 H 0.13783 0.078 0.61657 0.0
H297 H 0.25882 0.20713 0.5911 0.0
H298 H 0.0966 0.12338 0.62345 0.0
H299 H 0.21782 0.25292 0.59848 0.0
H300 H 0.08884 0.2884 0.59647 0.0
H301 H 0.14563 0.25957 0.58992 0.0
H302 H 0.11084 0.18708 0.64781 0.0
H303 H 0.05279 0.21441 0.65399 0.0
C304 C 0.15531 0.11593 0.61222 0.0
C305 C 0.20162 0.13914 0.60349 0.0
C306 C 0.1321 0.1421 0.61643 0.0
C307 C 0.15494 0.19204 0.61214 0.0
C308 C 0.19978 0.21459 0.60214 0.0
C309 C 0.22296 0.18825 0.59778 0.0
C310 C 0.09487 0.26798 0.60812 0.0
C311 C 0.06594 0.25263 0.62554 0.0
C312 C 0.12716 0.25127 0.60432 0.0
C313 C 0.13107 0.21967 0.61805 0.0
C314 C 0.10704 0.21003 0.63667 0.0
C315 C 0.07436 0.2261 0.64034 0.0
H316 H 0.81343 0.05612 0.15948 0.0
H317 H 0.78661 0.07949 0.09777 0.0
H318 H 0.89942 0.11447 0.15516 0.0
H319 H 0.87277 0.13566 0.093 0.0
H320 H 0.04707 0.14853 0.13264 0.0
H321 H 0.95993 0.10586 0.1383 0.0
H322 H 0.94644 0.20784 0.09921 0.0
H323 H 0.0335 0.24907 0.09282 0.0
C324 C 0.82587 0.0748 0.14516 0.0
C325 C 0.79369 0.06313 0.12892 0.0
C326 C 0.87515 0.10758 0.14255 0.0
C327 C 0.89324 0.12835 0.12352 0.0
C328 C 0.8602 0.12028 0.10785 0.0
C329 C 0.81069 0.08821 0.1106 0.0
C330 C 0.02534 0.16139 0.12507 0.0
C331 C 0.04695 0.20188 0.11223 0.0
C332 C 0.97549 0.13748 0.12856 0.0
C333 C 0.94624 0.15409 0.11957 0.0
C334 C 0.9678 0.19398 0.10632 0.0
C335 C 0.01765 0.21745 0.10258 0.0
H336 H 0.68737 0.78897 0.59185 0.0
H337 H 0.75752 0.81917 0.64997 0.0
H338 H 0.70328 0.87274 0.58989 0.0
H339 H 0.77491 0.90209 0.64787 0.0
H340 H 0.80091 0.04895 0.64422 0.0
H341 H 0.75232 0.96118 0.64702 0.0
H342 H 0.77675 0.94808 0.58382 0.0
H343 H 0.82274 0.03661 0.58085 0.0
C344 C 0.7047 0.81306 0.60446 0.0
C345 C 0.7218 0.79809 0.62095 0.0
C346 C 0.71443 0.86111 0.60324 0.0
C347 C 0.74113 0.89445 0.61855 0.0
C348 C 0.75393 0.87766 0.63584 0.0
C349 C 0.74425 0.83003 0.63703 0.0
C350 C 0.79565 0.0272 0.63092 0.0
C351 C 0.81658 0.04917 0.61245 0.0
C352 C 0.76767 0.97695 0.63249 0.0
C353 C 0.76131 0.94743 0.61575 0.0
C354 C 0.78047 0.96964 0.59699 0.0
C355 C 0.80744 0.02023 0.59531 0.0
H356 H 0.94054 0.76873 0.16286 0.0
H357 H 0.8727 0.67406 0.11204 0.0
H358 H 0.87872 0.79194 0.1623 0.0
H359 H 0.80917 0.69594 0.11195 0.0
H360 H 0.77181 0.81521 0.09524 0.0
H361 H 0.81418 0.77016 0.10078 0.0
H362 H 0.79872 0.77778 0.16516 0.0
H363 H 0.75805 0.82454 0.15961 0.0
C364 C 0.91129 0.75145 0.15203 0.0
C365 C 0.91216 0.72054 0.13717 0.0
C366 C 0.87558 0.76464 0.15175 0.0
C367 C 0.8397 0.74684 0.13671 0.0
C368 C 0.83722 0.71137 0.12336 0.0
C369 C 0.87321 0.69828 0.12359 0.0
C370 C 0.77757 0.80735 0.11057 0.0
C371 C 0.76231 0.82414 0.12698 0.0
C372 C 0.80119 0.78084 0.11376 0.0
C373 C 0.80961 0.77002 0.13343 0.0
C374 C 0.79333 0.78592 0.14983 0.0
C375 C 0.77022 0.81294 0.14664 0.0
H376 H 0.95402 0.77849 0.58182 0.0
H377 H 0.93058 0.7422 0.64507 0.0
H378 H 0.04118 0.8124 0.58656 0.0
H379 H 0.01679 0.77227 0.64967 0.0
H380 H 0.16689 0.91206 0.65355 0.0
H381 H 0.08332 0.84845 0.65179 0.0
H382 H 0.11022 0.80555 0.59357 0.0
H383 H 0.19435 0.87179 0.59513 0.0
C384 C 0.96771 0.77751 0.59668 0.0
C385 C 0.93623 0.75958 0.61321 0.0
C386 C 0.01744 0.79593 0.59937 0.0
C387 C 0.03626 0.79534 0.61857 0.0
C388 C 0.00391 0.77453 0.63481 0.0
C389 C 0.95457 0.75761 0.63222 0.0
C390 C 0.1554 0.88775 0.64075 0.0
C391 C 0.18638 0.89737 0.62426 0.0
C392 C 0.10728 0.85096 0.63971 0.0
C393 C 0.08943 0.82278 0.62218 0.0
C394 C 0.12251 0.82778 0.60697 0.0
C395 C 0.17088 0.86508 0.60799 0.0
H396 H 0.05615 0.87207 0.32135 0.0
H397 H 0.02747 0.83718 0.38472 0.0
H398 H 0.96928 0.83116 0.31474 0.0
H399 H 0.94078 0.79767 0.37818 0.0
H400 H 0.78875 0.70245 0.36259 0.0
H401 H 0.87464 0.72704 0.36224 0.0
H402 H 0.90273 0.8445 0.32135 0.0
H403 H 0.81713 0.81909 0.3211 0.0
C404 C 0.03133 0.85625 0.33391 0.0
C405 C 0.04863 0.85807 0.35359 0.0
C406 C 0.98159 0.83259 0.33009 0.0
C407 C 0.94823 0.81065 0.34588 0.0
C408 C 0.96558 0.81308 0.36559 0.0
C409 C 0.01526 0.83639 0.3694 0.0
C410 C 0.81301 0.73253 0.35302 0.0
C411 C 0.79641 0.75967 0.34232 0.0
C412 C 0.86225 0.7469 0.35298 0.0
C413 C 0.89552 0.78858 0.34227 0.0
C414 C 0.87807 0.81236 0.32984 0.0
C415 C 0.8289 0.79787 0.32978 0.0
H416 H 0.07719 0.79267 0.8964 0.0
H417 H 0.07183 0.81466 0.83244 0.0
H418 H 0.13344 0.87945 0.90067 0.0
H419 H 0.12927 0.90093 0.83652 0.0
H420 H 0.14058 0.0425 0.85517 0.0
H421 H 0.10369 0.95505 0.85234 0.0
H422 H 0.21071 0.95694 0.89317 0.0
H423 H 0.24755 0.04488 0.89632 0.0
C424 C 0.09025 0.81567 0.88314 0.0
C425 C 0.06995 0.7976 0.86414 0.0
C426 C 0.12212 0.86534 0.8856 0.0
C427 C 0.13409 0.89688 0.869 0.0
C428 C 0.11923 0.87743 0.84963 0.0
C429 C 0.08699 0.82811 0.84723 0.0
C430 C 0.15592 0.02432 0.86377 0.0
C431 C 0.19719 0.05065 0.87581 0.0
C432 C 0.13525 0.97432 0.86193 0.0
C433 C 0.15548 0.9496 0.87201 0.0
C434 C 0.19488 0.97532 0.88505 0.0
C435 C 0.21563 0.02555 0.88694 0.0
H436 H 0.18799 0.24751 0.33259 0.0
H437 H 0.16863 0.19974 0.39459 0.0
H438 H 0.24203 0.21527 0.32707 0.0
H439 H 0.22018 0.16419 0.38881 0.0
H440 H 0.3148 0.10556 0.37834 0.0
H441 H 0.2966 0.17128 0.38192 0.0
H442 H 0.23023 0.13814 0.32281 0.0
H443 H 0.25033 0.07475 0.31906 0.0
C444 C 0.19472 0.22925 0.34496 0.0
C445 C 0.17312 0.22474 0.36387 0.0
C446 C 0.22595 0.21104 0.34184 0.0
C447 C 0.23521 0.18662 0.35739 0.0
C448 C 0.21461 0.18343 0.37653 0.0
C449 C 0.18432 0.20291 0.3798 0.0
C450 C 0.29867 0.11421 0.36574 0.0
C451 C 0.28292 0.08455 0.3486 0.0
C452 C 0.28741 0.15124 0.36793 0.0
C453 C 0.26032 0.15886 0.353 0.0
C454 C 0.2509 0.13347 0.33472 0.0
C455 C 0.26237 0.09687 0.33252 0.0
H456 H 0.1823 0.28767 0.88772 0.0
H457 H 0.1563 0.24995 0.82481 0.0
H458 H 0.09641 0.26065 0.89244 0.0
H459 H 0.07091 0.22524 0.82914 0.0
H460 H 0.93304 0.20905 0.89217 0.0
H461 H 0.02017 0.2594 0.88618 0.0
H462 H 0.01462 0.15038 0.84582 0.0
H463 H 0.92788 0.10095 0.85134 0.0
C464 C 0.15866 0.27636 0.87467 0.0
C465 C 0.1753 0.27023 0.85597 0.0
C466 C 0.1094 0.26055 0.87738 0.0
C467 C 0.07674 0.23916 0.86129 0.0
C468 C 0.09507 0.24 0.84195 0.0
C469 C 0.14397 0.25486 0.83936 0.0
C470 C 0.95064 0.19565 0.8822 0.0
C471 C 0.92364 0.15107 0.87216 0.0
C472 C 0.00041 0.22467 0.87868 0.0
C473 C 0.02397 0.2095 0.86512 0.0
C474 C -0.00279 0.16398 0.85578 0.0
C475 C 0.94761 0.13522 0.85919 0.0
H476 H 0.93848 0.16656 0.3299 0.0
H477 H 0.89804 0.21054 0.38464 0.0
H478 H 0.86722 0.08678 0.33267 0.0
H479 H 0.82555 0.13001 0.38735 0.0
H480 H 0.77013 0.96245 0.39955 0.0
H481 H 0.81923 0.05062 0.39564 0.0
H482 H 0.77978 0.03751 0.33267 0.0
H483 H 0.73246 0.94986 0.33639 0.0
C484 C 0.91345 0.15947 0.34222 0.0
C485 C 0.92392 0.19432 0.35718 0.0
C486 C 0.8724 0.11383 0.34376 0.0
C487 C 0.84102 0.10204 0.36034 0.0
C488 C 0.84949 0.1381 0.37454 0.0
C489 C 0.89061 0.18418 0.37289 0.0
C490 C 0.77163 0.97864 0.38497 0.0
C491 C 0.74884 0.94946 0.36815 0.0
C492 C 0.7992 0.02905 0.38277 0.0
C493 C 0.80372 0.05079 0.36377 0.0
C494 C 0.7777 0.02165 0.34738 0.0
C495 C 0.75086 0.97149 0.34951 0.0
H496 H 0.87833 0.82691 0.85242 0.0
H497 H 0.76294 0.71745 0.88907 0.0
H498 H 0.83145 0.86749 0.84769 0.0
H499 H 0.71529 0.75747 0.88381 0.0
H500 H 0.73397 0.91538 0.82708 0.0
H501 H 0.75985 0.85522 0.83003 0.0
H502 H 0.7144 0.83106 0.89238 0.0
H503 H 0.68657 0.88971 0.88905 0.0
C504 C 0.84301 0.81159 0.85951 0.0
C505 C 0.82439 0.76902 0.8711 0.0
C506 C 0.81577 0.83441 0.85656 0.0
C507 C 0.76909 0.81493 0.86496 0.0
C508 C 0.75103 0.77319 0.87709 0.0
C509 C 0.77849 0.75049 0.88018 0.0
C510 C 0.72754 0.89549 0.84111 0.0
C511 C 0.70888 0.90732 0.8579 0.0
C512 C 0.74299 0.86166 0.84291 0.0
C513 C 0.74087 0.83991 0.86165 0.0
C514 C 0.7168 0.84746 0.87778 0.0
C515 C 0.70055 0.88082 0.87585 0.0
H516 H 0.06458 0.56931 0.1512 0.0
H517 H 0.02313 0.55915 0.0887 0.0
H518 H 0.09226 0.51134 0.14552 0.0
H519 H 0.05249 0.50231 0.08273 0.0
H520 H 0.10285 0.38651 0.08433 0.0
H521 H 0.05387 0.4253 0.08953 0.0
H522 H 0.16752 0.5338 0.12678 0.0
H523 H 0.21592 0.495 0.12191 0.0
C524 C 0.05953 0.55298 0.13645 0.0
C525 C 0.04222 0.56873 0.12035 0.0
C526 C 0.07603 0.52046 0.1331 0.0
C527 C 0.07622 0.50395 0.11352 0.0
C528 C 0.05313 0.51485 0.09793 0.0
C529 C 0.03593 0.54701 0.10138 0.0
C530 C 0.11772 0.4192 0.09332 0.0
C531 C 0.16309 0.4375 0.10288 0.0
C532 C 0.08948 0.44109 0.0964 0.0
C533 C 0.10623 0.48152 0.10908 0.0
C534 C 0.15289 0.50154 0.11753 0.0
C535 C 0.18095 0.47974 0.11451 0.0
H536 H 0.71822 0.23307 0.62335 0.0
H537 H 0.71269 0.12538 0.58218 0.0
H538 H 0.63028 0.18765 0.62621 0.0
H539 H 0.62461 0.07911 0.58554 0.0
H540 H 0.46186 0.04467 0.58417 0.0
H541 H 0.54895 0.07907 0.57892 0.0
H542 H 0.57368 0.11155 0.64248 0.0
H543 H 0.48699 0.07892 0.64749 0.0
C544 C 0.69815 0.20002 0.61473 0.0
C545 C 0.7223 0.18258 0.6027 0.0
C546 C 0.64788 0.17363 0.61658 0.0
C547 C 0.62084 0.12904 0.6066 0.0
C548 C 0.64462 0.11317 0.59351 0.0
C549 C 0.69501 0.13986 0.59151 0.0
C550 C 0.48584 0.05756 0.5971 0.0
C551 C 0.46817 0.05991 0.61617 0.0
C552 C 0.53568 0.07754 0.59408 0.0
C553 C 0.56807 0.09947 0.61018 0.0
C554 C 0.54958 0.09647 0.62967 0.0
C555 C 0.50003 0.0772 0.63261 0.0
H556 H 0.48029 0.70671 0.12381 0.0
H557 H 0.59535 0.70725 0.08889 0.0
H558 H 0.44117 0.6192 0.12711 0.0
H559 H 0.55585 0.61886 0.09241 0.0
H560 H 0.41644 0.4561 0.08659 0.0
H561 H 0.47676 0.54214 0.08271 0.0
H562 H 0.46313 0.56438 0.14598 0.0
H563 H 0.40181 0.47904 0.14962 0.0
C564 C 0.49702 0.68809 0.11669 0.0
C565 C 0.5411 0.71388 0.10627 0.0
C566 C 0.47496 0.63805 0.11879 0.0
C567 C 0.49651 0.61267 0.11059 0.0
C568 C 0.53901 0.63785 0.09911 0.0
C569 C 0.56127 0.68825 0.09698 0.0
C570 C 0.42817 0.47904 0.09981 0.0
C571 C 0.40427 0.46167 0.11832 0.0
C572 C 0.46243 0.52822 0.09757 0.0
C573 C 0.4731 0.55987 0.11391 0.0
C574 C 0.4543 0.54076 0.13304 0.0
C575 C 0.4197 0.492 0.13519 0.0
H576 H 0.76837 0.48536 0.62526 0.0
H577 H 0.87407 0.58868 0.58352 0.0
H578 H 0.81815 0.44785 0.62978 0.0
H579 H 0.92471 0.55157 0.58844 0.0
H580 H 0.95415 0.4176 0.58793 0.0
H581 H 0.92583 0.47539 0.58257 0.0
H582 H 0.89563 0.47112 0.64624 0.0
H583 H 0.92182 0.41168 0.65134 0.0
C584 C 0.80204 0.49971 0.6169 0.0
C585 C 0.81744 0.53998 0.60413 0.0
C586 C 0.83097 0.4788 0.61973 0.0
C587 C 0.87613 0.498 0.61 0.0
C588 C 0.89034 0.53651 0.5963 0.0
C589 C 0.86112 0.55734 0.59335 0.0
C590 C 0.94367 0.43091 0.60088 0.0
C591 C 0.93919 0.4099 0.61997 0.0
C592 C 0.92716 0.46373 0.5978 0.0
C593 C 0.9068 0.47608 0.61388 0.0
C594 C 0.90958 0.46072 0.63348 0.0
C595 C 0.92518 0.42735 0.63648 0.0
H596 H 0.48227 0.90859 0.14356 0.0
H597 H 0.51537 0.932 0.08011 0.0
H598 H 0.39662 0.87739 0.13621 0.0
H599 H 0.42897 0.8996 0.0726 0.0
H600 H 0.25972 0.74675 0.11618 0.0
H601 H 0.34757 0.79483 0.11871 0.0
H602 H 0.34821 0.90289 0.07885 0.0
H603 H 0.25963 0.85453 0.07616 0.0
C604 C 0.47134 0.90909 0.12812 0.0
C605 C 0.50494 0.92246 0.11238 0.0
C606 C 0.42239 0.89063 0.12388 0.0
C607 C 0.40634 0.8847 0.10382 0.0
C608 C 0.44061 0.90355 0.08817 0.0
C609 C 0.48995 0.9225 0.09247 0.0
C610 C 0.27852 0.7802 0.10759 0.0
C611 C 0.2527 0.7972 0.09624 0.0
C612 C 0.32873 0.80796 0.10921 0.0
C613 C 0.35418 0.85326 0.09953 0.0
C614 C 0.32913 0.86836 0.08667 0.0
C615 C 0.27857 0.84046 0.08504 0.0
H616 H 0.55614 0.51854 0.59186 0.0
H617 H 0.59628 0.49058 0.65051 0.0
H618 H 0.49172 0.43348 0.58976 0.0
H619 H 0.53425 0.4063 0.6482 0.0
H620 H 0.41398 0.257 0.64394 0.0
H621 H 0.45388 0.34459 0.64705 0.0
H622 H 0.4934 0.35999 0.58401 0.0
H623 H 0.45053 0.27167 0.5807 0.0
C624 C 0.55016 0.49461 0.60454 0.0
C625 C 0.58143 0.51081 0.62124 0.0
C626 C 0.51386 0.44579 0.60322 0.0
C627 C 0.5084 0.41274 0.61861 0.0
C628 C 0.53693 0.43044 0.63608 0.0
C629 C 0.57282 0.47891 0.6374 0.0
C630 C 0.43128 0.27912 0.63074 0.0
C631 C 0.43022 0.25767 0.61217 0.0
C632 C 0.45401 0.32937 0.63251 0.0
C633 C 0.47738 0.35951 0.61586 0.0
C634 C 0.47522 0.33795 0.5971 0.0
C635 C 0.45137 0.28741 0.59524 0.0
H636 H 0.43351 0.95367 0.37355 0.0
H637 H 0.30815 0.82355 0.39547 0.0
H638 H 0.48636 0.92432 0.38688 0.0
H639 H 0.36042 0.79523 0.40952 0.0
H640 H 0.45681 0.73182 0.38691 0.0
H641 H 0.40278 0.7647 0.38954 0.0
H642 H 0.51882 0.89683 0.41505 0.0
H643 H 0.57342 0.86382 0.4122 0.0
C644 C 0.41759 0.91952 0.38169 0.0
C645 C 0.36714 0.89 0.383 0.0
C646 C 0.44762 0.90291 0.38951 0.0
C647 C 0.42727 0.85707 0.39896 0.0
C648 C 0.37695 0.83014 0.40195 0.0
C649 C 0.34713 0.84622 0.39384 0.0
C650 C 0.47039 0.76724 0.39367 0.0
C651 C 0.5194 0.79561 0.39898 0.0
C652 C 0.43938 0.78608 0.39531 0.0
C653 C 0.45689 0.8337 0.40223 0.0
C654 C 0.5047 0.8603 0.4094 0.0
C655 C 0.53574 0.84121 0.40792 0.0
H656 H 0.69677 0.52781 0.8957 0.0
H657 H 0.71937 0.55026 0.83148 0.0
H658 H 0.60906 0.48583 0.89037 0.0
H659 H 0.6324 0.51121 0.82621 0.0
H660 H 0.45306 0.42808 0.87811 0.0
H661 H 0.53879 0.49042 0.88037 0.0
H662 H 0.56887 0.43125 0.82731 0.0
H663 H 0.48398 0.37126 0.82463 0.0
C664 C 0.68288 0.52392 0.88049 0.0
C665 C 0.71461 0.54099 0.86397 0.0
C666 C 0.63277 0.50069 0.87743 0.0
C667 C 0.6137 0.4951 0.85784 0.0
C668 C 0.64579 0.51398 0.84144 0.0
C669 C 0.69564 0.53611 0.84445 0.0
C670 C 0.47789 0.42977 0.86655 0.0
C671 C 0.46224 0.39446 0.8514 0.0
C672 C 0.527 0.46495 0.868 0.0
C673 C 0.56082 0.46515 0.85429 0.0
C674 C 0.54401 0.4325 0.8381 0.0
C675 C 0.49523 0.39775 0.83662 0.0
H676 H 0.13561 0.71412 0.40144 0.0
H677 H 0.11567 0.71738 0.33719 0.0
H678 H 0.10137 0.62587 0.39997 0.0
H679 H 0.08025 0.62967 0.3358 0.0
H680 H 0.12643 0.51278 0.33852 0.0
H681 H 0.13027 0.59068 0.34022 0.0
H682 H 0.03208 0.54072 0.39101 0.0
H683 H 0.02826 0.46164 0.38932 0.0
C684 C 0.12244 0.69571 0.38717 0.0
C685 C 0.12934 0.72229 0.36935 0.0
C686 C 0.10261 0.64532 0.38633 0.0
C687 C 0.0891 0.62127 0.36769 0.0
C688 C 0.09134 0.64752 0.35028 0.0
C689 C 0.11169 0.69763 0.35107 0.0
C690 C 0.10509 0.51805 0.3499 0.0
C691 C 0.07734 0.48139 0.36388 0.0
C692 C 0.1069 0.56255 0.35075 0.0
C693 C 0.08123 0.5716 0.36569 0.0
C694 C 0.05217 0.53451 0.37936 0.0
C695 C 0.04984 0.4894 0.37833 0.0
H696 H 0.54388 0.01992 0.89098 0.0
H697 H 0.57794 0.07815 0.83055 0.0
H698 H 0.47828 0.03917 0.89254 0.0
H699 H 0.51447 0.09875 0.8322 0.0
H700 H 0.39602 0.12965 0.83591 0.0
H701 H 0.43343 0.07925 0.83433 0.0
H702 H 0.48151 0.11616 0.89605 0.0
H703 H 0.4412 0.16447 0.89791 0.0
C704 C 0.53617 0.0352 0.87781 0.0
C705 C 0.56613 0.04818 0.86074 0.0
C706 C 0.49918 0.04689 0.87879 0.0
C707 C 0.49175 0.07141 0.86267 0.0
C708 C 0.51875 0.07966 0.84488 0.0
C709 C 0.55542 0.06805 0.84393 0.0
C710 C 0.41455 0.12692 0.84916 0.0
C711 C 0.41695 0.15193 0.86689 0.0
C712 C 0.43577 0.09784 0.84828 0.0
C713 C 0.46104 0.09411 0.86496 0.0
C714 C 0.46184 0.11771 0.88299 0.0
C715 C 0.43948 0.146 0.884 0.0
H716 H 0.29515 0.45528 0.40475 0.0
H717 H 0.27584 0.39779 0.34456 0.0
H718 H 0.38339 0.4936 0.40082 0.0
H719 H 0.36323 0.4333 0.34094 0.0
H720 H 0.49776 0.58862 0.33179 0.0
H721 H 0.41848 0.51747 0.33581 0.0
H722 H 0.45922 0.49261 0.39505 0.0
H723 H 0.53934 0.56498 0.39084 0.0
C724 C 0.30994 0.45009 0.3909 0.0
C725 C 0.27945 0.42551 0.37467 0.0
C726 C 0.36024 0.47124 0.38871 0.0
C727 C 0.38025 0.467 0.37041 0.0
C728 C 0.34898 0.43814 0.35501 0.0
C729 C 0.29911 0.41819 0.35702 0.0
C730 C 0.49047 0.56661 0.34526 0.0
C731 C 0.52401 0.58217 0.36107 0.0
C732 C 0.44503 0.52568 0.34762 0.0
C733 C 0.43225 0.4999 0.36595 0.0
C734 C 0.46794 0.51231 0.3809 0.0
C735 C 0.51386 0.55324 0.37841 0.0
H736 H 0.90673 0.49291 0.83316 0.0
H737 H 0.93645 0.5189 0.89678 0.0
H738 H 0.87582 0.40656 0.83862 0.0
H739 H 0.90372 0.43213 0.90244 0.0
H740 H 0.85372 0.26718 0.90087 0.0
H741 H 0.90283 0.35508 0.89681 0.0
H742 H 0.79781 0.35194 0.85444 0.0
H743 H 0.7495 0.26434 0.85808 0.0
C744 C 0.90816 0.48023 0.8482 0.0
C745 C 0.92324 0.51208 0.86459 0.0
C746 C 0.88987 0.43085 0.85139 0.0
C747 C 0.88563 0.41261 0.87106 0.0
C748 C 0.90618 0.44522 0.88715 0.0
C749 C 0.92522 0.49489 0.88389 0.0
C750 C 0.84066 0.28544 0.89101 0.0
C751 C 0.79799 0.25892 0.87963 0.0
C752 C 0.869 0.33567 0.88858 0.0
C753 C 0.85491 0.36001 0.87483 0.0
C754 C 0.8105 0.33383 0.86458 0.0
C755 C 0.78243 0.28377 0.86689 0.0
H756 H 0.18784 0.41829 0.29044 0.0
H757 H 0.06526 0.27384 0.28271 0.0
H758 H 0.2128 0.4175 0.25588 0.0
H759 H 0.08933 0.2737 0.24795 0.0
H760 H 0.17892 0.2624 0.19763 0.0
H761 H 0.15352 0.26771 0.23162 0.0
H762 H 0.19385 0.41746 0.22089 0.0
H763 H 0.22073 0.41266 0.18712 0.0
C764 C 0.16555 0.38684 0.28122 0.0
C765 C 0.12484 0.34593 0.28936 0.0
C766 C 0.17988 0.38639 0.26139 0.0
C767 C 0.15352 0.34519 0.24928 0.0
C768 C 0.11117 0.30547 0.25707 0.0
C769 C 0.09708 0.30574 0.27693 0.0
C770 C 0.18279 0.29659 0.20258 0.0
C771 C 0.20178 0.33706 0.18967 0.0
C772 C 0.16775 0.2995 0.22199 0.0
C773 C 0.171 0.34282 0.22886 0.0
C774 C 0.19113 0.38365 0.21611 0.0
C775 C 0.20653 0.38086 0.19674 0.0
H776 H 0.87433 0.1431 0.69221 0.0
H777 H 0.83731 0.25636 0.69713 0.0
H778 H 0.84607 0.11681 0.72619 0.0
H779 H 0.81102 0.23143 0.73189 0.0
H780 H 0.722 0.14108 0.78618 0.0
H781 H 0.74877 0.16852 0.7517 0.0
H782 H 0.86669 0.13886 0.75965 0.0
H783 H 0.83852 0.10931 0.79342 0.0
C784 C 0.86102 0.16308 0.70072 0.0
C785 C 0.85834 0.20205 0.69202 0.0
C786 C 0.84491 0.14806 0.72031 0.0
C787 C 0.82652 0.17215 0.7319 0.0
C788 C 0.82436 0.21162 0.7233 0.0
C789 C 0.83983 0.22623 0.70347 0.0
C790 C 0.75333 0.14005 0.78041 0.0
C791 C 0.77778 0.12248 0.79239 0.0
C792 C 0.769 0.15623 0.76075 0.0
C793 C 0.80983 0.15579 0.75284 0.0
C794 C 0.83443 0.13866 0.76501 0.0
C795 C 0.81832 0.12177 0.78444 0.0
H796 H 0.68757 0.91337 0.20448 0.0
H797 H 0.53565 0.81381 0.19263 0.0
H798 H 0.67457 0.89263 0.23988 0.0
H799 H 0.52233 0.79383 0.22853 0.0
H800 H 0.54915 0.72401 0.28725 0.0
H801 H 0.54464 0.74952 0.25272 0.0
H802 H 0.63713 0.89949 0.26982 0.0
H803 H 0.64336 0.8736 0.30374 0.0
C804 C 0.65115 0.88765 0.20948 0.0
C805 C 0.61275 0.86502 0.19569 0.0
C806 C 0.64356 0.87602 0.22987 0.0
C807 C 0.59731 0.84167 0.23705 0.0
C808 C 0.55842 0.82015 0.2234 0.0
C809 C 0.56604 0.83182 0.20289 0.0
C810 C 0.56749 0.76235 0.28358 0.0
C811 C 0.59716 0.79695 0.2978 0.0
C812 C 0.56484 0.77705 0.26391 0.0
C813 C 0.59138 0.8265 0.25848 0.0
C814 C 0.61738 0.86109 0.2734 0.0
C815 C 0.62076 0.84638 0.2928 0.0
H816 H 0.8353 0.73552 0.68993 0.0
H817 H 0.74137 0.58036 0.69586 0.0
H818 H 0.86697 0.73871 0.72342 0.0
H819 H 0.77141 0.58387 0.73004 0.0
H820 H 0.86974 0.59659 0.78175 0.0
H821 H 0.84139 0.59514 0.74747 0.0
H822 H 0.84894 0.73309 0.75766 0.0
H823 H 0.87948 0.73556 0.7914 0.0
C824 C 0.82055 0.70215 0.69858 0.0
C825 C 0.78576 0.65763 0.69024 0.0
C826 C 0.83874 0.70402 0.71786 0.0
C827 C 0.82199 0.66154 0.72945 0.0
C828 C 0.78594 0.61716 0.72136 0.0
C829 C 0.76825 0.61517 0.70188 0.0
C830 C 0.86611 0.62695 0.77649 0.0
C831 C 0.87696 0.66623 0.78923 0.0
C832 C 0.84926 0.62585 0.75695 0.0
C833 C 0.84225 0.66369 0.74985 0.0
C834 C 0.85445 0.70358 0.76247 0.0
C835 C 0.87201 0.70503 0.78187 0.0
H836 H 0.17078 0.86762 0.17934 0.0
H837 H 0.13942 0.72506 0.19867 0.0
H838 H 0.21142 0.90162 0.21106 0.0
H839 H 0.177 0.75829 0.23134 0.0
H840 H 0.26266 0.83207 0.28676 0.0
H841 H 0.246 0.80752 0.25147 0.0
H842 H 0.18559 0.902 0.24333 0.0
H843 H 0.20449 0.92812 0.27774 0.0
C844 C 0.17217 0.8435 0.19059 0.0
C845 C 0.15116 0.79366 0.18687 0.0
C846 C 0.19538 0.86291 0.20879 0.0
C847 C 0.19669 0.83264 0.22401 0.0
C848 C 0.17711 0.78282 0.21995 0.0
C849 C 0.15506 0.76359 0.20138 0.0
C850 C 0.24705 0.84848 0.27721 0.0
C851 C 0.23447 0.88168 0.28512 0.0
C852 C 0.23697 0.83399 0.25705 0.0
C853 C 0.21393 0.85229 0.24453 0.0
C854 C 0.204 0.88752 0.25228 0.0
C855 C 0.21454 0.90232 0.27221 0.0
H856 H 0.36844 0.2439 0.77919 0.0
H857 H 0.22153 0.12698 0.78873 0.0
H858 H 0.36743 0.21419 0.74541 0.0
H859 H 0.22106 0.0964 0.75506 0.0
H860 H 0.22641 0.08451 0.68598 0.0
H861 H 0.22235 0.11305 0.71946 0.0
H862 H 0.36944 0.1456 0.73111 0.0
H863 H 0.37411 0.11846 0.69739 0.0
C864 C 0.3358 0.21202 0.77402 0.0
C865 C 0.29518 0.18759 0.78666 0.0
C866 C 0.33541 0.19471 0.75474 0.0
C867 C 0.29453 0.15239 0.74773 0.0
C868 C 0.25307 0.12917 0.76002 0.0
C869 C 0.25333 0.14673 0.7793 0.0
C870 C 0.25773 0.09723 0.69576 0.0
C871 C 0.30076 0.09958 0.68897 0.0
C872 C 0.25533 0.11354 0.71496 0.0
C873 C 0.2958 0.13225 0.72781 0.0
C874 C 0.33805 0.13252 0.72135 0.0
C875 C 0.34057 0.11652 0.7021 0.0
H876 H 0.29486 0.33345 0.92959 0.0
H877 H 0.32244 0.21979 0.94978 0.0
H878 H 0.28045 0.34754 0.96433 0.0
H879 H 0.30766 0.23383 0.98444 0.0
H880 H 0.3281 0.30758 0.04505 0.0
H881 H 0.34582 0.29888 0.01027 0.0
H882 H 0.21707 0.30117 -0.00902 0.0
H883 H 0.19916 0.31032 0.02599 0.0
C884 C 0.29822 0.31173 0.94143 0.0
C885 C 0.30981 0.27547 0.93693 0.0
C886 C 0.28956 0.31957 0.96127 0.0
C887 C 0.29276 0.29165 0.977 0.0
C888 C 0.30532 0.25613 0.97258 0.0
C889 C 0.31364 0.24802 0.95274 0.0
C890 C 0.30351 0.30643 0.03345 0.0
C891 C 0.26203 0.30946 0.03832 0.0
C892 C 0.31365 0.30121 0.01353 0.0
C893 C 0.28271 0.29912 -0.002 0.0
C894 C 0.2417 0.30304 0.00272 0.0
C895 C 0.23133 0.308 0.02274 0.0
H896 H 0.97692 0.30584 0.43389 0.0
H897 H 0.10817 0.30877 0.45372 0.0
H898 H 0.94677 0.29067 0.46832 0.0
H899 H 0.07748 0.2932 0.48826 0.0
H900 H 0.02772 0.32287 0.54926 0.0
H901 H 0.05833 0.33717 0.51487 0.0
H902 H 0.91908 0.2236 0.49381 0.0
H903 H 0.88802 0.20928 0.52826 0.0
C904 C -0.00058 0.30332 0.44559 0.0
C905 C 0.04504 0.3086 0.44107 0.0
C906 C 0.9819 0.29427 0.46527 0.0
C907 C 0.00972 0.2906 0.48088 0.0
C908 C 0.05548 0.29621 0.47647 0.0
C909 C 0.07292 0.30494 0.45671 0.0
C910 C 0.00349 0.30095 0.53732 0.0
C911 C 0.95534 0.26498 0.54149 0.0
C912 C 0.02122 0.30896 0.51766 0.0
C913 C -0.00891 0.28142 0.50175 0.0
C914 C 0.94292 0.24558 0.50584 0.0
C915 C 0.92524 0.2373 0.52554 0.0
H916 H 0.6756 0.87901 0.03259 0.0
H917 H 0.69232 0.01698 0.05093 0.0
H918 H 0.68799 0.90642 -0.00256 0.0
H919 H 0.70414 0.04375 0.01606 0.0
H920 H 0.77408 0.09353 0.95434 0.0
H921 H 0.76542 0.06465 0.98898 0.0
H922 H 0.64248 0.92734 0.97165 0.0
H923 H 0.65121 0.95586 0.9369 0.0
C924 C 0.68208 0.91511 0.02915 0.0
C925 C 0.68286 0.94574 0.04452 0.0
C926 C 0.68887 0.93065 0.00907 0.0
C927 C 0.69704 0.97719 0.0041 0.0
C928 C 0.69845 0.00791 0.0195 0.0
C929 C 0.69134 -0.00764 0.03946 0.0
C930 C 0.74516 0.0572 0.95789 0.0
C931 C 0.71318 0.02709 0.94288 0.0
C932 C 0.74019 0.04073 0.97772 0.0
C933 C 0.70333 -0.00622 0.98293 0.0
C934 C 0.67155 0.96351 0.96796 0.0
C935 C 0.6763 0.98006 0.94812 0.0
H936 H 0.80282 0.71755 0.53188 0.0
H937 H 0.64696 0.634 0.53912 0.0
H938 H 0.7922 0.73557 0.49697 0.0
H939 H 0.63667 0.65121 0.50399 0.0
H940 H 0.65432 0.6522 0.43318 0.0
H941 H 0.66703 0.63216 0.46747 0.0
H942 H 0.74602 0.78451 0.48223 0.0
H943 H 0.7324 0.80484 0.44807 0.0
C944 C 0.76637 0.70257 0.52593 0.0
C945 C 0.72565 0.67442 0.53815 0.0
C946 C 0.76041 0.71309 0.50607 0.0
C947 C 0.71372 0.69471 0.49802 0.0
C948 C 0.673 0.66554 0.51 0.0
C949 C 0.6789 0.65589 0.53002 0.0
C950 C 0.67466 0.68144 0.44371 0.0
C951 C 0.69239 0.73008 0.43804 0.0
C952 C 0.68165 0.66991 0.46326 0.0
C953 C 0.7074 0.70689 0.47727 0.0
C954 C 0.72619 0.75555 0.47153 0.0
C955 C 0.71827 0.76707 0.4521 0.0
H956 H 0.96192 0.61963 0.94191 0.0
H957 H 0.88572 0.69928 0.94981 0.0
H958 H 0.98552 0.63214 0.97746 0.0
H959 H 0.91074 0.71293 0.9853 0.0
H960 H 0.04453 0.78115 0.03344 0.0
H961 H 0.00964 0.76235 -0.00051 0.0
H962 H 0.93207 0.60979 0.0144 0.0
H963 H 0.96571 0.62838 0.04855 0.0
C964 C 0.94994 0.63944 0.95131 0.0
C965 C 0.92211 0.65858 0.94321 0.0
C966 C 0.9633 0.64642 0.97156 0.0
C967 C 0.94992 0.67353 0.98386 0.0
C968 C 0.92133 0.69192 0.97594 0.0
C969 C 0.90693 0.68393 0.95577 0.0
C970 C 0.01989 0.74366 0.02948 0.0
C971 C 0.00783 0.70618 0.04354 0.0
C972 C -0.00023 0.73303 0.01019 0.0
C973 C 0.96821 0.68477 0.0046 0.0
C974 C 0.95624 0.64726 0.01856 0.0
C975 C 0.97545 0.65794 0.038 0.0
H976 H 0.30691 0.02815 0.42907 0.0
H977 H 0.18246 0.89267 0.4478 0.0
H978 H 0.32379 0.05388 0.46395 0.0
H979 H 0.19922 0.91909 0.4829 0.0
H980 H 0.28548 0.95944 0.54266 0.0
H981 H 0.26425 0.93419 0.50778 0.0
H982 H 0.28959 0.07712 0.4922 0.0
H983 H 0.31148 0.10279 0.52702 0.0
C984 C 0.28285 0.00397 0.44062 0.0
C985 C 0.24346 0.95818 0.43568 0.0
C986 C 0.29242 0.01892 0.4606 0.0
C987 C 0.26292 0.98843 0.47611 0.0
C988 C 0.22286 0.94306 0.47121 0.0
C989 C 0.21308 0.92812 0.45114 0.0
C990 C 0.28679 0.98562 0.5318 0.0
C991 C 0.30038 0.03323 0.53762 0.0
C992 C 0.27412 0.97095 0.51187 0.0
C993 C 0.275 0.00361 0.49734 0.0
C994 C 0.28892 0.05128 0.50309 0.0
C995 C 0.30142 0.06594 0.52303 0.0
loop_
_geom_bond_atom_site_label_1
_geom_bond_atom_site_label_2
_geom_bond_distance
_geom_bond_site_symmetry_2
_ccdc_geom_bond_type
O0 Zn1 1.953 . S
O0 C16 1.225 . S
Zn1 O0 1.953 . S
Zn1 O2 1.949 . S
Zn1 O8 1.919 . S
Zn1 O13 1.924 . S
O2 Zn1 1.949 . S
O2 Zn3 1.923 . S
O2 Zn4 1.950 . S
O2 Zn5 1.945 . S
Zn3 O2 1.923 . S
Zn3 O6 1.933 . S
Zn3 O9 1.941 . S
Zn3 O10 1.965 . S
Zn4 O2 1.950 . S
Zn4 O11 1.938 . S
Zn4 O12 1.906 . S
Zn4 O22 1.953 . S
Zn5 O2 1.945 . S
Zn5 O7 1.932 . S
Zn5 O14 1.977 . S
Zn5 O15 1.910 . S
O6 Zn3 1.933 . S
O6 C17 1.226 . S
O7 Zn5 1.932 . S
O7 C17 1.307 . S
O8 Zn1 1.919 . S
O8 C19 1.253 . S
O9 Zn3 1.941 . S
O9 C19 1.283 . S
O10 Zn3 1.965 . S
O10 C18 1.303 . S
O11 Zn4 1.938 . S
O11 C18 1.247 . S
O12 Zn4 1.906 . S
O12 C20 1.304 . S
O13 Zn1 1.924 . S
O13 C21 1.311 . S
O14 Zn5 1.977 . S
O14 C20 1.272 . S
O15 Zn5 1.910 . S
O15 C21 1.231 . S
C16 O0 1.225 . S
C16 O22 1.298 . S
C17 O6 1.226 . S
C17 O7 1.307 . S
C18 O10 1.303 . S
C18 O11 1.247 . S
C19 O8 1.253 . S
C19 O9 1.283 . S
C20 O12 1.304 . S
C20 O14 1.272 . S
C21 O13 1.311 . S
C21 O15 1.231 . S
O22 Zn4 1.953 . S
O22 C16 1.298 . S
O23 Zn24 1.953 . S
O23 C39 1.225 . S
Zn24 O23 1.953 . S
Zn24 O25 1.949 . S
Zn24 O31 1.919 . S
Zn24 O36 1.924 . S
O25 Zn24 1.949 . S
O25 Zn26 1.923 . S
O25 Zn27 1.950 . S
O25 Zn28 1.945 . S
Zn26 O25 1.923 . S
Zn26 O29 1.933 . S
Zn26 O32 1.941 . S
Zn26 O33 1.965 . S
Zn27 O25 1.950 . S
Zn27 O34 1.938 . S
Zn27 O35 1.906 . S
Zn27 O45 1.953 . S
Zn28 O25 1.945 . S
Zn28 O30 1.932 . S
Zn28 O37 1.977 . S
Zn28 O38 1.910 . S
O29 Zn26 1.933 . S
O29 C40 1.220 1_655 S
O30 Zn28 1.932 . S
O30 C40 1.304 1_655 S
O31 Zn24 1.919 . S
O31 C42 1.253 . S
O32 Zn26 1.941 . S
O32 C42 1.283 . S
O33 Zn26 1.965 . S
O33 C41 1.303 . S
O34 Zn27 1.938 . S
O34 C41 1.247 . S
O35 Zn27 1.906 . S
O35 C43 1.304 . S
O36 Zn24 1.924 . S
O36 C44 1.311 . S
O37 Zn28 1.977 . S
O37 C43 1.272 . S
O38 Zn28 1.910 . S
O38 C44 1.231 . S
C39 O23 1.225 . S
C39 O45 1.298 . S
C40 O29 1.220 1_455 S
C40 O30 1.304 1_455 S
C41 O33 1.303 . S
C41 O34 1.247 . S
C42 O31 1.253 . S
C42 O32 1.283 . S
C43 O35 1.304 . S
C43 O37 1.272 . S
C44 O36 1.311 . S
C44 O38 1.231 . S
O45 Zn27 1.953 . S
O45 C39 1.298 . S
O46 Zn47 1.953 . S
O46 C62 1.225 . S
Zn47 O46 1.953 . S
Zn47 O48 1.949 . S
Zn47 O54 1.919 . S
Zn47 O59 1.924 . S
O48 Zn47 1.949 . S
O48 Zn49 1.923 . S
O48 Zn50 1.950 . S
O48 Zn51 1.945 . S
Zn49 O48 1.923 . S
Zn49 O52 1.933 . S
Zn49 O55 1.941 . S
Zn49 O56 1.965 . S
Zn50 O48 1.950 . S
Zn50 O57 1.938 . S
Zn50 O58 1.906 . S
Zn50 O68 1.953 . S
Zn51 O48 1.945 . S
Zn51 O53 1.932 . S
Zn51 O60 1.977 . S
Zn51 O61 1.910 . S
O52 Zn49 1.933 . S
O52 C63 1.229 1_565 S
O53 Zn51 1.932 . S
O53 C63 1.297 1_565 S
O54 Zn47 1.919 . S
O54 C65 1.253 . S
O55 Zn49 1.941 . S
O55 C65 1.283 . S
O56 Zn49 1.965 . S
O56 C64 1.303 . S
O57 Zn50 1.938 . S
O57 C64 1.247 . S
O58 Zn50 1.906 . S
O58 C66 1.304 . S
O59 Zn47 1.924 . S
O59 C67 1.311 . S
O60 Zn51 1.977 . S
O60 C66 1.272 . S
O61 Zn51 1.910 . S
O61 C67 1.231 . S
C62 O46 1.225 . S
C62 O68 1.298 . S
C63 O52 1.229 1_545 S
C63 O53 1.297 1_545 S
C64 O56 1.303 . S
C64 O57 1.247 . S
C65 O54 1.253 . S
C65 O55 1.283 . S
C66 O58 1.304 . S
C66 O60 1.272 . S
C67 O59 1.311 . S
C67 O61 1.231 . S
O68 Zn50 1.953 . S
O68 C62 1.298 . S
O69 Zn70 1.953 . S
O69 C85 1.225 . S
Zn70 O69 1.953 . S
Zn70 O71 1.949 . S
Zn70 O77 1.919 . S
Zn70 O82 1.924 . S
O71 Zn70 1.949 . S
O71 Zn72 1.923 . S
O71 Zn73 1.950 . S
O71 Zn74 1.945 . S
Zn72 O71 1.923 . S
Zn72 O75 1.933 . S
Zn72 O78 1.941 . S
Zn72 O79 1.965 . S
Zn73 O71 1.950 . S
Zn73 O80 1.938 . S
Zn73 O81 1.906 . S
Zn73 O91 1.953 . S
Zn74 O71 1.945 . S
Zn74 O76 1.932 . S
Zn74 O83 1.977 . S
Zn74 O84 1.910 . S
O75 Zn72 1.933 . S
O75 C86 1.226 . S
O76 Zn74 1.932 . S
O76 C86 1.307 . S
O77 Zn70 1.919 . S
O77 C88 1.253 . S
O78 Zn72 1.941 . S
O78 C88 1.283 . S
O79 Zn72 1.965 . S
O79 C87 1.303 . S
O80 Zn73 1.938 . S
O80 C87 1.247 . S
O81 Zn73 1.906 . S
O81 C89 1.304 . S
O82 Zn70 1.924 . S
O82 C90 1.311 . S
O83 Zn74 1.977 . S
O83 C89 1.272 . S
O84 Zn74 1.910 . S
O84 C90 1.231 . S
C85 O69 1.225 . S
C85 O91 1.298 . S
C86 O75 1.226 . S
C86 O76 1.307 . S
C87 O79 1.303 . S
C87 O80 1.247 . S
C88 O77 1.253 . S
C88 O78 1.283 . S
C89 O81 1.304 . S
C89 O83 1.272 . S
C90 O82 1.311 . S
C90 O84 1.231 . S
O91 Zn73 1.953 . S
O91 C85 1.298 . S
O92 Zn93 1.953 . S
O92 C108 1.225 . S
Zn93 O92 1.953 . S
Zn93 O94 1.949 . S
Zn93 O100 1.919 . S
Zn93 O105 1.924 . S
O94 Zn93 1.949 . S
O94 Zn95 1.923 . S
O94 Zn96 1.950 . S
O94 Zn97 1.945 . S
Zn95 O94 1.923 . S
Zn95 O98 1.933 . S
Zn95 O101 1.941 . S
Zn95 O102 1.965 . S
Zn96 O94 1.950 . S
Zn96 O103 1.938 . S
Zn96 O104 1.906 . S
Zn96 O114 1.953 . S
Zn97 O94 1.945 . S
Zn97 O99 1.932 . S
Zn97 O106 1.977 . S
Zn97 O107 1.910 . S
O98 Zn95 1.933 . S
O98 C109 1.220 1_455 S
O99 Zn97 1.932 . S
O99 C109 1.304 1_455 S
O100 Zn93 1.919 . S
O100 C111 1.253 . S
O101 Zn95 1.941 . S
O101 C111 1.283 . S
O102 Zn95 1.965 . S
O102 C110 1.303 . S
O103 Zn96 1.938 . S
O103 C110 1.247 . S
O104 Zn96 1.906 . S
O104 C112 1.304 . S
O105 Zn93 1.924 . S
O105 C113 1.311 . S
O106 Zn97 1.977 . S
O106 C112 1.272 . S
O107 Zn97 1.910 . S
O107 C113 1.231 . S
C108 O92 1.225 . S
C108 O114 1.298 . S
C109 O98 1.220 1_655 S
C109 O99 1.304 1_655 S
C110 O102 1.303 . S
C110 O103 1.247 . S
C111 O100 1.253 . S
C111 O101 1.283 . S
C112 O104 1.304 . S
C112 O106 1.272 . S
C113 O105 1.311 . S
C113 O107 1.231 . S
O114 Zn96 1.953 . S
O114 C108 1.298 . S
O115 Zn116 1.953 . S
O115 C131 1.225 . S
Zn116 O115 1.953 . S
Zn116 O117 1.949 . S
Zn116 O123 1.919 . S
Zn116 O128 1.924 . S
O117 Zn116 1.949 . S
O117 Zn118 1.923 . S
O117 Zn119 1.950 . S
O117 Zn120 1.945 . S
Zn118 O117 1.923 . S
Zn118 O121 1.933 . S
Zn118 O124 1.941 . S
Zn118 O125 1.965 . S
Zn119 O117 1.950 . S
Zn119 O126 1.938 . S
Zn119 O127 1.906 . S
Zn119 O137 1.953 . S
Zn120 O117 1.945 . S
Zn120 O122 1.932 . S
Zn120 O129 1.977 . S
Zn120 O130 1.910 . S
O121 Zn118 1.933 . S
O121 C132 1.229 1_545 S
O122 Zn120 1.932 . S
O122 C132 1.297 1_545 S
O123 Zn116 1.919 . S
O123 C134 1.253 . S
O124 Zn118 1.941 . S
O124 C134 1.283 . S
O125 Zn118 1.965 . S
O125 C133 1.303 . S
O126 Zn119 1.938 . S
O126 C133 1.247 . S
O127 Zn119 1.906 . S
O127 C135 1.304 . S
O128 Zn116 1.924 . S
O128 C136 1.311 . S
O129 Zn120 1.977 . S
O129 C135 1.272 . S
O130 Zn120 1.910 . S
O130 C136 1.231 . S
C131 O115 1.225 . S
C131 O137 1.298 . S
C132 O121 1.229 1_565 S
C132 O122 1.297 1_565 S
C133 O125 1.303 . S
C133 O126 1.247 . S
C134 O123 1.253 . S
C134 O124 1.283 . S
C135 O127 1.304 . S
C135 O129 1.272 . S
C136 O128 1.311 . S
C136 O130 1.231 . S
O137 Zn119 1.953 . S
O137 C131 1.298 . S
O138 Zn139 1.953 . S
O138 C154 1.225 . S
Zn139 O138 1.953 . S
Zn139 O140 1.949 . S
Zn139 O146 1.919 . S
Zn139 O151 1.924 . S
O140 Zn139 1.949 . S
O140 Zn141 1.923 . S
O140 Zn142 1.950 . S
O140 Zn143 1.945 . S
Zn141 O140 1.923 . S
Zn141 O144 1.933 . S
Zn141 O147 1.941 . S
Zn141 O148 1.965 . S
Zn142 O140 1.950 . S
Zn142 O149 1.938 . S
Zn142 O150 1.906 . S
Zn142 O160 1.953 . S
Zn143 O140 1.945 . S
Zn143 O145 1.932 . S
Zn143 O152 1.977 . S
Zn143 O153 1.910 . S
O144 Zn141 1.933 . S
O144 C155 1.226 . S
O145 Zn143 1.932 . S
O145 C155 1.307 . S
O146 Zn139 1.919 . S
O146 C157 1.253 . S
O147 Zn141 1.941 . S
O147 C157 1.283 . S
O148 Zn141 1.965 . S
O148 C156 1.303 . S
O149 Zn142 1.938 . S
O149 C156 1.247 . S
O150 Zn142 1.906 . S
O150 C158 1.304 . S
O151 Zn139 1.924 . S
O151 C159 1.311 . S
O152 Zn143 1.977 . S
O152 C158 1.272 . S
O153 Zn143 1.910 . S
O153 C159 1.231 . S
C154 O138 1.225 . S
C154 O160 1.298 . S
C155 O144 1.226 . S
C155 O145 1.307 . S
C156 O148 1.303 . S
C156 O149 1.247 . S
C157 O146 1.253 . S
C157 O147 1.283 . S
C158 O150 1.304 . S
C158 O152 1.272 . S
C159 O151 1.311 . S
C159 O153 1.231 . S
O160 Zn142 1.953 . S
O160 C154 1.298 . S
O161 Zn162 1.953 . S
O161 C177 1.225 . S
Zn162 O161 1.953 . S
Zn162 O163 1.949 . S
Zn162 O169 1.919 . S
Zn162 O174 1.924 . S
O163 Zn162 1.949 . S
O163 Zn164 1.923 . S
O163 Zn165 1.950 . S
O163 Zn166 1.945 . S
Zn164 O163 1.923 . S
Zn164 O167 1.933 . S
Zn164 O170 1.941 . S
Zn164 O171 1.965 . S
Zn165 O163 1.950 . S
Zn165 O172 1.938 . S
Zn165 O173 1.906 . S
Zn165 O183 1.953 . S
Zn166 O163 1.945 . S
Zn166 O168 1.932 . S
Zn166 O175 1.977 . S
Zn166 O176 1.910 . S
O167 Zn164 1.933 . S
O167 C178 1.229 1_655 S
O168 Zn166 1.932 . S
O168 C178 1.297 1_655 S
O169 Zn162 1.919 . S
O169 C180 1.253 . S
O170 Zn164 1.941 . S
O170 C180 1.283 . S
O171 Zn164 1.965 . S
O171 C179 1.303 . S
O172 Zn165 1.938 . S
O172 C179 1.247 . S
O173 Zn165 1.906 . S
O173 C181 1.304 . S
O174 Zn162 1.924 . S
O174 C182 1.311 . S
O175 Zn166 1.977 . S
O175 C181 1.272 . S
O176 Zn166 1.910 . S
O176 C182 1.231 . S
C177 O161 1.225 . S
C177 O183 1.298 . S
C178 O167 1.229 1_455 S
C178 O168 1.297 1_455 S
C179 O171 1.303 . S
C179 O172 1.247 . S
C180 O169 1.253 . S
C180 O170 1.283 . S
C181 O173 1.304 . S
C181 O175 1.272 . S
C182 O174 1.311 . S
C182 O176 1.231 . S
O183 Zn165 1.953 . S
O183 C177 1.298 . S
O184 Zn185 1.953 . S
O184 C200 1.225 . S
Zn185 O184 1.953 . S
Zn185 O186 1.949 . S
Zn185 O192 1.919 . S
Zn185 O197 1.924 . S
O186 Zn185 1.949 . S
O186 Zn187 1.923 . S
O186 Zn188 1.950 . S
O186 Zn189 1.945 . S
Zn187 O186 1.923 . S
Zn187 O190 1.933 . S
Zn187 O193 1.941 . S
Zn187 O194 1.965 . S
Zn188 O186 1.950 . S
Zn188 O195 1.938 . S
Zn188 O196 1.906 . S
Zn188 O206 1.953 . S
Zn189 O186 1.945 . S
Zn189 O191 1.932 . S
Zn189 O198 1.977 . S
Zn189 O199 1.910 . S
O190 Zn187 1.933 . S
O190 C201 1.220 1_565 S
O191 Zn189 1.932 . S
O191 C201 1.304 1_565 S
O192 Zn185 1.919 . S
O192 C203 1.253 . S
O193 Zn187 1.941 . S
O193 C203 1.283 . S
O194 Zn187 1.965 . S
O194 C202 1.303 . S
O195 Zn188 1.938 . S
O195 C202 1.247 . S
O196 Zn188 1.906 . S
O196 C204 1.304 . S
O197 Zn185 1.924 . S
O197 C205 1.311 . S
O198 Zn189 1.977 . S
O198 C204 1.272 . S
O199 Zn189 1.910 . S
O199 C205 1.231 . S
C200 O184 1.225 . S
C200 O206 1.298 . S
C201 O190 1.220 1_545 S
C201 O191 1.304 1_545 S
C202 O194 1.303 . S
C202 O195 1.247 . S
C203 O192 1.253 . S
C203 O193 1.283 . S
C204 O196 1.304 . S
C204 O198 1.272 . S
C205 O197 1.311 . S
C205 O199 1.231 . S
O206 Zn188 1.953 . S
O206 C200 1.298 . S
O207 Zn208 1.953 . S
O207 C223 1.225 . S
Zn208 O207 1.953 . S
Zn208 O209 1.949 . S
Zn208 O215 1.919 . S
Zn208 O220 1.924 . S
O209 Zn208 1.949 . S
O209 Zn210 1.923 . S
O209 Zn211 1.950 . S
O209 Zn212 1.945 . S
Zn210 O209 1.923 . S
Zn210 O213 1.933 . S
Zn210 O216 1.941 . S
Zn210 O217 1.965 . S
Zn211 O209 1.950 . S
Zn211 O218 1.938 . S
Zn211 O219 1.906 . S
Zn211 O229 1.953 . S
Zn212 O209 1.945 . S
Zn212 O214 1.932 . S
Zn212 O221 1.977 . S
Zn212 O222 1.910 . S
O213 Zn210 1.933 . S
O213 C224 1.226 . S
O214 Zn212 1.932 . S
O214 C224 1.307 . S
O215 Zn208 1.919 . S
O215 C226 1.253 . S
O216 Zn210 1.941 . S
O216 C226 1.283 . S
O217 Zn210 1.965 . S
O217 C225 1.303 . S
O218 Zn211 1.938 . S
O218 C225 1.247 . S
O219 Zn211 1.906 . S
O219 C227 1.304 . S
O220 Zn208 1.924 . S
O220 C228 1.311 . S
O221 Zn212 1.977 . S
O221 C227 1.272 . S
O222 Zn212 1.910 . S
O222 C228 1.231 . S
C223 O207 1.225 . S
C223 O229 1.298 . S
C224 O213 1.226 . S
C224 O214 1.307 . S
C225 O217 1.303 . S
C225 O218 1.247 . S
C226 O215 1.253 . S
C226 O216 1.283 . S
C227 O219 1.304 . S
C227 O221 1.272 . S
C228 O220 1.311 . S
C228 O222 1.231 . S
O229 Zn211 1.953 . S
O229 C223 1.298 . S
O230 Zn231 1.953 . S
O230 C246 1.225 . S
Zn231 O230 1.953 . S
Zn231 O232 1.949 . S
Zn231 O238 1.919 . S
Zn231 O243 1.924 . S
O232 Zn231 1.949 . S
O232 Zn233 1.923 . S
O232 Zn234 1.950 . S
O232 Zn235 1.945 . S
Zn233 O232 1.923 . S
Zn233 O236 1.933 . S
Zn233 O239 1.941 . S
Zn233 O240 1.965 . S
Zn234 O232 1.950 . S
Zn234 O241 1.938 . S
Zn234 O242 1.906 . S
Zn234 O252 1.953 . S
Zn235 O232 1.945 . S
Zn235 O237 1.932 . S
Zn235 O244 1.977 . S
Zn235 O245 1.910 . S
O236 Zn233 1.933 . S
O236 C247 1.229 1_455 S
O237 Zn235 1.932 . S
O237 C247 1.297 1_455 S
O238 Zn231 1.919 . S
O238 C249 1.253 . S
O239 Zn233 1.941 . S
O239 C249 1.283 . S
O240 Zn233 1.965 . S
O240 C248 1.303 . S
O241 Zn234 1.938 . S
O241 C248 1.247 . S
O242 Zn234 1.906 . S
O242 C250 1.304 . S
O243 Zn231 1.924 . S
O243 C251 1.311 . S
O244 Zn235 1.977 . S
O244 C250 1.272 . S
O245 Zn235 1.910 . S
O245 C251 1.231 . S
C246 O230 1.225 . S
C246 O252 1.298 . S
C247 O236 1.229 1_655 S
C247 O237 1.297 1_655 S
C248 O240 1.303 . S
C248 O241 1.247 . S
C249 O238 1.253 . S
C249 O239 1.283 . S
C250 O242 1.304 . S
C250 O244 1.272 . S
C251 O243 1.311 . S
C251 O245 1.231 . S
O252 Zn234 1.953 . S
O252 C246 1.298 . S
O253 Zn254 1.953 . S
O253 C269 1.225 . S
Zn254 O253 1.953 . S
Zn254 O255 1.949 . S
Zn254 O261 1.919 . S
Zn254 O266 1.924 . S
O255 Zn254 1.949 . S
O255 Zn256 1.923 . S
O255 Zn257 1.950 . S
O255 Zn258 1.945 . S
Zn256 O255 1.923 . S
Zn256 O259 1.933 . S
Zn256 O262 1.941 . S
Zn256 O263 1.965 . S
Zn257 O255 1.950 . S
Zn257 O264 1.938 . S
Zn257 O265 1.906 . S
Zn257 O275 1.953 . S
Zn258 O255 1.945 . S
Zn258 O260 1.932 . S
Zn258 O267 1.977 . S
Zn258 O268 1.910 . S
O259 Zn256 1.933 . S
O259 C270 1.220 1_545 S
O260 Zn258 1.932 . S
O260 C270 1.304 1_545 S
O261 Zn254 1.919 . S
O261 C272 1.253 . S
O262 Zn256 1.941 . S
O262 C272 1.283 . S
O263 Zn256 1.965 . S
O263 C271 1.303 . S
O264 Zn257 1.938 . S
O264 C271 1.247 . S
O265 Zn257 1.906 . S
O265 C273 1.304 . S
O266 Zn254 1.924 . S
O266 C274 1.311 . S
O267 Zn258 1.977 . S
O267 C273 1.272 . S
O268 Zn258 1.910 . S
O268 C274 1.231 . S
C269 O253 1.225 . S
C269 O275 1.298 . S
C270 O259 1.220 1_565 S
C270 O260 1.304 1_565 S
C271 O263 1.303 . S
C271 O264 1.247 . S
C272 O261 1.253 . S
C272 O262 1.283 . S
C273 O265 1.304 . S
C273 O267 1.272 . S
C274 O266 1.311 . S
C274 O268 1.231 . S
O275 Zn257 1.953 . S
O275 C269 1.298 . S
H276 C284 0.950 1_565 S
H277 C289 0.950 . S
H278 C286 0.950 . S
H279 C288 0.950 . S
H280 C290 0.950 . S
H281 C292 0.950 . S
H282 C294 0.950 . S
H283 C295 0.950 . S
C284 H276 0.950 1_545 S
C284 C285 1.386 1_545 S
C284 C286 1.391 . S
C285 C284 1.386 1_565 S
C285 C289 1.393 . S
C286 H278 0.950 . S
C286 C284 1.391 . S
C286 C287 1.400 . S
C287 C286 1.400 . S
C287 C288 1.398 . S
C287 C293 1.491 . S
C288 H279 0.950 . S
C288 C287 1.398 . S
C288 C289 1.391 1_545 S
C289 H277 0.950 . S
C289 C285 1.393 . S
C289 C288 1.391 1_565 S
C290 H280 0.950 . S
C290 C291 1.386 . S
C290 C292 1.391 . S
C291 C290 1.386 . S
C291 C295 1.393 . S
C292 H281 0.950 . S
C292 C290 1.391 . S
C292 C293 1.400 . S
C293 C287 1.491 . S
C293 C292 1.400 . S
C293 C294 1.398 . S
C294 H282 0.950 . S
C294 C293 1.398 . S
C294 C295 1.391 . S
C295 H283 0.950 . S
C295 C291 1.393 . S
C295 C294 1.391 . S
H296 C304 0.950 . S
H297 C309 0.950 . S
H298 C306 0.950 . S
H299 C308 0.950 . S
H300 C310 0.950 . S
H301 C312 0.950 . S
H302 C314 0.950 . S
H303 C315 0.957 . S
C304 H296 0.950 . S
C304 C305 1.386 . S
C304 C306 1.391 . S
C305 C304 1.386 . S
C305 C309 1.393 . S
C306 H298 0.950 . S
C306 C304 1.391 . S
C306 C307 1.400 . S
C307 C306 1.400 . S
C307 C308 1.398 . S
C307 C313 1.491 . S
C308 H299 0.950 . S
C308 C307 1.398 . S
C308 C309 1.391 . S
C309 H297 0.950 . S
C309 C305 1.393 . S
C309 C308 1.391 . S
C310 H300 0.950 . S
C310 C311 1.386 . S
C310 C312 1.391 . S
C311 C310 1.386 . S
C311 C315 1.393 . S
C312 H301 0.950 . S
C312 C310 1.391 . S
C312 C313 1.400 . S
C313 C307 1.491 . S
C313 C312 1.400 . S
C313 C314 1.398 . S
C314 H302 0.950 . S
C314 C313 1.398 . S
C314 C315 1.391 . S
C315 H303 0.957 . S
C315 C311 1.393 . S
C315 C314 1.391 . S
H316 C324 0.950 . S
H317 C329 0.950 1_565 S
H318 C326 0.950 . S
H319 C328 0.950 . S
H320 C330 0.950 . S
H321 C332 0.950 . S
H322 C334 0.950 . S
H323 C335 0.950 . S
C324 H316 0.950 . S
C324 C325 1.386 . S
C324 C326 1.391 . S
C325 C324 1.386 . S
C325 C329 1.393 . S
C326 H318 0.950 . S
C326 C324 1.391 . S
C326 C327 1.400 . S
C327 C326 1.400 . S
C327 C328 1.398 . S
C327 C333 1.491 . S
C328 H319 0.950 . S
C328 C327 1.398 . S
C328 C329 1.391 . S
C329 H317 0.950 1_545 S
C329 C325 1.393 . S
C329 C328 1.391 . S
C330 H320 0.950 . S
C330 C331 1.386 . S
C330 C332 1.391 1_455 S
C331 C330 1.386 . S
C331 C335 1.393 . S
C332 H321 0.950 . S
C332 C330 1.391 1_655 S
C332 C333 1.400 . S
C333 C327 1.491 . S
C333 C332 1.400 . S
C333 C334 1.398 . S
C334 H322 0.950 . S
C334 C333 1.398 . S
C334 C335 1.391 1_655 S
C335 H323 0.950 . S
C335 C331 1.393 . S
C335 C334 1.391 1_455 S
H336 C344 0.950 . S
H337 C349 0.950 . S
H338 C346 0.950 . S
H339 C348 0.950 . S
H340 C350 0.950 . S
H341 C352 0.950 . S
H342 C354 0.950 . S
H343 C355 0.950 . S
C344 H336 0.950 . S
C344 C345 1.386 . S
C344 C346 1.391 . S
C345 C344 1.386 . S
C345 C349 1.393 . S
C346 H338 0.950 . S
C346 C344 1.391 . S
C346 C347 1.400 . S
C347 C346 1.400 . S
C347 C348 1.398 . S
C347 C353 1.491 . S
C348 H339 0.950 . S
C348 C347 1.398 . S
C348 C349 1.391 . S
C349 H337 0.950 . S
C349 C345 1.393 . S
C349 C348 1.391 . S
C350 H340 0.950 . S
C350 C351 1.386 . S
C350 C352 1.391 1_545 S
C351 C350 1.386 . S
C351 C355 1.393 . S
C352 H341 0.950 . S
C352 C350 1.391 1_565 S
C352 C353 1.400 . S
C353 C347 1.491 . S
C353 C352 1.400 . S
C353 C354 1.398 . S
C354 H342 0.950 . S
C354 C353 1.398 . S
C354 C355 1.391 1_565 S
C355 H343 0.950 . S
C355 C351 1.393 . S
C355 C354 1.391 1_545 S
H356 C364 0.950 . S
H357 C369 0.950 . S
H358 C366 0.950 . S
H359 C368 0.950 . S
H360 C370 0.950 . S
H361 C372 0.950 . S
H362 C374 0.950 . S
H363 C375 0.950 . S
C364 H356 0.950 . S
C364 C365 1.386 . S
C364 C366 1.391 . S
C365 C364 1.386 . S
C365 C369 1.393 . S
C366 H358 0.950 . S
C366 C364 1.391 . S
C366 C367 1.400 . S
C367 C366 1.400 . S
C367 C368 1.398 . S
C367 C373 1.491 . S
C368 H359 0.950 . S
C368 C367 1.398 . S
C368 C369 1.391 . S
C369 H357 0.950 . S
C369 C365 1.393 . S
C369 C368 1.391 . S
C370 H360 0.950 . S
C370 C371 1.386 . S
C370 C372 1.391 . S
C371 C370 1.386 . S
C371 C375 1.393 . S
C372 H361 0.950 . S
C372 C370 1.391 . S
C372 C373 1.400 . S
C373 C367 1.491 . S
C373 C372 1.400 . S
C373 C374 1.398 . S
C374 H362 0.950 . S
C374 C373 1.398 . S
C374 C375 1.391 . S
C375 H363 0.950 . S
C375 C371 1.393 . S
C375 C374 1.391 . S
H376 C384 0.950 . S
H377 C389 0.950 . S
H378 C386 0.950 . S
H379 C388 0.950 . S
H380 C390 0.950 . S
H381 C392 0.950 . S
H382 C394 0.950 . S
H383 C395 0.950 . S
C384 H376 0.950 . S
C384 C385 1.386 . S
C384 C386 1.391 1_655 S
C385 C384 1.386 . S
C385 C389 1.393 . S
C386 H378 0.950 . S
C386 C384 1.391 1_455 S
C386 C387 1.400 . S
C387 C386 1.400 . S
C387 C388 1.398 . S
C387 C393 1.491 . S
C388 H379 0.950 . S
C388 C387 1.398 . S
C388 C389 1.391 1_455 S
C389 H377 0.950 . S
C389 C385 1.393 . S
C389 C388 1.391 1_655 S
C390 H380 0.950 . S
C390 C391 1.386 . S
C390 C392 1.391 . S
C391 C390 1.386 . S
C391 C395 1.393 . S
C392 H381 0.950 . S
C392 C390 1.391 . S
C392 C393 1.400 . S
C393 C387 1.491 . S
C393 C392 1.400 . S
C393 C394 1.398 . S
C394 H382 0.950 . S
C394 C393 1.398 . S
C394 C395 1.391 . S
C395 H383 0.950 . S
C395 C391 1.393 . S
C395 C394 1.391 . S
H396 C404 0.950 . S
H397 C409 0.949 1_455 S
H398 C406 0.950 . S
H399 C408 0.950 . S
H400 C410 0.950 . S
H401 C412 0.950 . S
H402 C414 0.950 . S
H403 C415 0.950 . S
C404 H396 0.950 . S
C404 C405 1.386 . S
C404 C406 1.391 1_455 S
C405 C404 1.386 . S
C405 C409 1.392 1_455 S
C406 H398 0.950 . S
C406 C404 1.391 1_655 S
C406 C407 1.400 . S
C407 C406 1.400 . S
C407 C408 1.398 . S
C407 C413 1.491 . S
C408 H399 0.950 . S
C408 C407 1.398 . S
C408 C409 1.392 . S
C409 H397 0.949 1_655 S
C409 C405 1.392 1_655 S
C409 C408 1.392 . S
C410 H400 0.950 . S
C410 C411 1.386 . S
C410 C412 1.391 . S
C411 C410 1.386 . S
C411 C415 1.393 . S
C412 H401 0.950 . S
C412 C410 1.391 . S
C412 C413 1.400 . S
C413 C407 1.491 . S
C413 C412 1.400 . S
C413 C414 1.398 . S
C414 H402 0.950 . S
C414 C413 1.398 . S
C414 C415 1.391 . S
C415 H403 0.950 . S
C415 C411 1.393 . S
C415 C414 1.391 . S
H416 C424 0.950 . S
H417 C429 0.950 . S
H418 C426 0.950 . S
H419 C428 0.950 . S
H420 C430 0.950 . S
H421 C432 0.950 . S
H422 C434 0.950 . S
H423 C435 0.950 . S
C424 H416 0.950 . S
C424 C425 1.386 . S
C424 C426 1.391 . S
C425 C424 1.386 . S
C425 C429 1.393 . S
C426 H418 0.950 . S
C426 C424 1.391 . S
C426 C427 1.400 . S
C427 C426 1.400 . S
C427 C428 1.398 . S
C427 C433 1.491 . S
C428 H419 0.950 . S
C428 C427 1.398 . S
C428 C429 1.391 . S
C429 H417 0.950 . S
C429 C425 1.393 . S
C429 C428 1.391 . S
C430 H420 0.950 . S
C430 C431 1.386 . S
C430 C432 1.391 1_545 S
C431 C430 1.386 . S
C431 C435 1.393 . S
C432 H421 0.950 . S
C432 C430 1.391 1_565 S
C432 C433 1.400 . S
C433 C427 1.491 . S
C433 C432 1.400 . S
C433 C434 1.398 . S
C434 H422 0.950 . S
C434 C433 1.398 . S
C434 C435 1.391 1_565 S
C435 H423 0.950 . S
C435 C431 1.393 . S
C435 C434 1.391 1_545 S
H436 C444 0.950 . S
H437 C449 0.950 . S
H438 C446 0.950 . S
H439 C448 0.950 . S
H440 C450 0.950 . S
H441 C452 0.950 . S
H442 C454 0.950 . S
H443 C455 0.950 . S
C444 H436 0.950 . S
C444 C445 1.386 . S
C444 C446 1.391 . S
C445 C444 1.386 . S
C445 C449 1.393 . S
C446 H438 0.950 . S
C446 C444 1.391 . S
C446 C447 1.400 . S
C447 C446 1.400 . S
C447 C448 1.398 . S
C447 C453 1.491 . S
C448 H439 0.950 . S
C448 C447 1.398 . S
C448 C449 1.391 . S
C449 H437 0.950 . S
C449 C445 1.393 . S
C449 C448 1.391 . S
C450 H440 0.950 . S
C450 C451 1.386 . S
C450 C452 1.391 . S
C451 C450 1.386 . S
C451 C455 1.393 . S
C452 H441 0.950 . S
C452 C450 1.391 . S
C452 C453 1.400 . S
C453 C447 1.491 . S
C453 C452 1.400 . S
C453 C454 1.398 . S
C454 H442 0.950 . S
C454 C453 1.398 . S
C454 C455 1.391 . S
C455 H443 0.950 . S
C455 C451 1.393 . S
C455 C454 1.391 . S
H456 C464 0.950 . S
H457 C469 0.950 . S
H458 C466 0.950 . S
H459 C468 0.950 . S
H460 C470 0.950 . S
H461 C472 0.950 . S
H462 C474 0.950 . S
H463 C475 0.950 . S
C464 H456 0.950 . S
C464 C465 1.386 . S
C464 C466 1.391 . S
C465 C464 1.386 . S
C465 C469 1.393 . S
C466 H458 0.950 . S
C466 C464 1.391 . S
C466 C467 1.400 . S
C467 C466 1.400 . S
C467 C468 1.398 . S
C467 C473 1.491 . S
C468 H459 0.950 . S
C468 C467 1.398 . S
C468 C469 1.391 . S
C469 H457 0.950 . S
C469 C465 1.393 . S
C469 C468 1.391 . S
C470 H460 0.950 . S
C470 C471 1.386 . S
C470 C472 1.391 1_655 S
C471 C470 1.386 . S
C471 C475 1.393 . S
C472 H461 0.950 . S
C472 C470 1.391 1_455 S
C472 C473 1.400 . S
C473 C467 1.491 . S
C473 C472 1.400 . S
C473 C474 1.398 . S
C474 H462 0.950 . S
C474 C473 1.398 . S
C474 C475 1.391 1_455 S
C475 H463 0.950 . S
C475 C471 1.393 . S
C475 C474 1.391 1_655 S
H476 C484 0.950 . S
H477 C489 0.950 . S
H478 C486 0.950 . S
H479 C488 0.950 . S
H480 C490 0.950 . S
H481 C492 0.950 . S
H482 C494 0.950 . S
H483 C495 0.950 . S
C484 H476 0.950 . S
C484 C485 1.386 . S
C484 C486 1.391 . S
C485 C484 1.386 . S
C485 C489 1.393 . S
C486 H478 0.950 . S
C486 C484 1.391 . S
C486 C487 1.400 . S
C487 C486 1.400 . S
C487 C488 1.398 . S
C487 C493 1.491 . S
C488 H479 0.950 . S
C488 C487 1.398 . S
C488 C489 1.391 . S
C489 H477 0.950 . S
C489 C485 1.393 . S
C489 C488 1.391 . S
C490 H480 0.950 . S
C490 C491 1.386 . S
C490 C492 1.391 1_565 S
C491 C490 1.386 . S
C491 C495 1.393 . S
C492 H481 0.950 . S
C492 C490 1.391 1_545 S
C492 C493 1.400 . S
C493 C487 1.491 . S
C493 C492 1.400 . S
C493 C494 1.398 . S
C494 H482 0.950 . S
C494 C493 1.398 . S
C494 C495 1.391 1_545 S
C495 H483 0.950 . S
C495 C491 1.393 . S
C495 C494 1.391 1_565 S
H496 C504 0.950 . S
H497 C509 0.950 . S
H498 C506 0.950 . S
H499 C508 0.950 . S
H500 C510 0.950 . S
H501 C512 0.950 . S
H502 C514 0.950 . S
H503 C515 0.950 1_545 S
C504 H496 0.950 . S
C504 C505 1.386 . S
C504 C506 1.391 . S
C505 C504 1.386 . S
C505 C509 1.393 . S
C506 H498 0.950 . S
C506 C504 1.391 . S
C506 C507 1.400 . S
C507 C506 1.400 . S
C507 C508 1.398 . S
C507 C513 1.491 . S
C508 H499 0.950 . S
C508 C507 1.398 . S
C508 C509 1.391 . S
C509 H497 0.950 . S
C509 C505 1.393 . S
C509 C508 1.391 . S
C510 H500 0.950 . S
C510 C511 1.386 . S
C510 C512 1.391 . S
C511 C510 1.386 . S
C511 C515 1.393 . S
C512 H501 0.950 . S
C512 C510 1.391 . S
C512 C513 1.400 . S
C513 C507 1.491 . S
C513 C512 1.400 . S
C513 C514 1.398 . S
C514 H502 0.950 . S
C514 C513 1.398 . S
C514 C515 1.391 . S
C515 H503 0.950 1_565 S
C515 C511 1.393 . S
C515 C514 1.391 . S
H516 C524 0.950 . S
H517 C529 0.950 . S
H518 C526 0.950 . S
H519 C528 0.950 . S
H520 C530 0.950 . S
H521 C532 0.950 . S
H522 C534 0.950 . S
H523 C535 0.950 . S
C524 H516 0.950 . S
C524 C525 1.386 . S
C524 C526 1.391 . S
C525 C524 1.386 . S
C525 C529 1.393 . S
C526 H518 0.950 . S
C526 C524 1.391 . S
C526 C527 1.400 . S
C527 C526 1.400 . S
C527 C528 1.398 . S
C527 C533 1.491 . S
C528 H519 0.950 . S
C528 C527 1.398 . S
C528 C529 1.391 . S
C529 H517 0.950 . S
C529 C525 1.393 . S
C529 C528 1.391 . S
C530 H520 0.950 . S
C530 C531 1.386 . S
C530 C532 1.391 . S
C531 C530 1.386 . S
C531 C535 1.393 . S
C532 H521 0.950 . S
C532 C530 1.391 . S
C532 C533 1.400 . S
C533 C527 1.491 . S
C533 C532 1.400 . S
C533 C534 1.398 . S
C534 H522 0.950 . S
C534 C533 1.398 . S
C534 C535 1.391 . S
C535 H523 0.950 . S
C535 C531 1.393 . S
C535 C534 1.391 . S
H536 C544 0.950 . S
H537 C549 0.950 . S
H538 C546 0.950 . S
H539 C548 0.950 . S
H540 C550 0.950 . S
H541 C552 0.950 . S
H542 C554 0.950 . S
H543 C555 0.950 . S
C544 H536 0.950 . S
C544 C545 1.386 . S
C544 C546 1.391 . S
C545 C544 1.386 . S
C545 C549 1.393 . S
C546 H538 0.950 . S
C546 C544 1.391 . S
C546 C547 1.400 . S
C547 C546 1.400 . S
C547 C548 1.398 . S
C547 C553 1.491 . S
C548 H539 0.950 . S
C548 C547 1.398 . S
C548 C549 1.391 . S
C549 H537 0.950 . S
C549 C545 1.393 . S
C549 C548 1.391 . S
C550 H540 0.950 . S
C550 C551 1.386 . S
C550 C552 1.391 . S
C551 C550 1.386 . S
C551 C555 1.393 . S
C552 H541 0.950 . S
C552 C550 1.391 . S
C552 C553 1.400 . S
C553 C547 1.491 . S
C553 C552 1.400 . S
C553 C554 1.398 . S
C554 H542 0.950 . S
C554 C553 1.398 . S
C554 C555 1.391 . S
C555 H543 0.950 . S
C555 C551 1.393 . S
C555 C554 1.391 . S
H556 C564 0.950 . S
H557 C569 0.950 . S
H558 C566 0.950 . S
H559 C568 0.950 . S
H560 C570 0.950 . S
H561 C572 0.950 . S
H562 C574 0.950 . S
H563 C575 0.950 . S
C564 H556 0.950 . S
C564 C565 1.386 . S
C564 C566 1.391 . S
C565 C564 1.386 . S
C565 C569 1.393 . S
C566 H558 0.950 . S
C566 C564 1.391 . S
C566 C567 1.400 . S
C567 C566 1.400 . S
C567 C568 1.398 . S
C567 C573 1.491 . S
C568 H559 0.950 . S
C568 C567 1.398 . S
C568 C569 1.391 . S
C569 H557 0.950 . S
C569 C565 1.393 . S
C569 C568 1.391 . S
C570 H560 0.950 . S
C570 C571 1.386 . S
C570 C572 1.391 . S
C571 C570 1.386 . S
C571 C575 1.393 . S
C572 H561 0.950 . S
C572 C570 1.391 . S
C572 C573 1.400 . S
C573 C567 1.491 . S
C573 C572 1.400 . S
C573 C574 1.398 . S
C574 H562 0.950 . S
C574 C573 1.398 . S
C574 C575 1.391 . S
C575 H563 0.950 . S
C575 C571 1.393 . S
C575 C574 1.391 . S
H576 C584 0.950 . S
H577 C589 0.950 . S
H578 C586 0.950 . S
H579 C588 0.950 . S
H580 C590 0.950 . S
H581 C592 0.950 . S
H582 C594 0.950 . S
H583 C595 0.950 . S
C584 H576 0.950 . S
C584 C585 1.386 . S
C584 C586 1.391 . S
C585 C584 1.386 . S
C585 C589 1.393 . S
C586 H578 0.950 . S
C586 C584 1.391 . S
C586 C587 1.400 . S
C587 C586 1.400 . S
C587 C588 1.398 . S
C587 C593 1.491 . S
C588 H579 0.950 . S
C588 C587 1.398 . S
C588 C589 1.391 . S
C589 H577 0.950 . S
C589 C585 1.393 . S
C589 C588 1.391 . S
C590 H580 0.950 . S
C590 C591 1.386 . S
C590 C592 1.391 . S
C591 C590 1.386 . S
C591 C595 1.393 . S
C592 H581 0.950 . S
C592 C590 1.391 . S
C592 C593 1.400 . S
C593 C587 1.491 . S
C593 C592 1.400 . S
C593 C594 1.398 . S
C594 H582 0.950 . S
C594 C593 1.398 . S
C594 C595 1.391 . S
C595 H583 0.950 . S
C595 C591 1.393 . S
C595 C594 1.391 . S
H596 C604 0.950 . S
H597 C609 0.950 . S
H598 C606 0.950 . S
H599 C608 0.950 . S
H600 C610 0.950 . S
H601 C612 0.950 . S
H602 C614 0.950 . S
H603 C615 0.950 . S
C604 H596 0.950 . S
C604 C605 1.386 . S
C604 C606 1.391 . S
C605 C604 1.386 . S
C605 C609 1.393 . S
C606 H598 0.950 . S
C606 C604 1.391 . S
C606 C607 1.400 . S
C607 C606 1.400 . S
C607 C608 1.398 . S
C607 C613 1.491 . S
C608 H599 0.950 . S
C608 C607 1.398 . S
C608 C609 1.391 . S
C609 H597 0.950 . S
C609 C605 1.393 . S
C609 C608 1.391 . S
C610 H600 0.950 . S
C610 C611 1.386 . S
C610 C612 1.391 . S
C611 C610 1.386 . S
C611 C615 1.393 . S
C612 H601 0.950 . S
C612 C610 1.391 . S
C612 C613 1.400 . S
C613 C607 1.491 . S
C613 C612 1.400 . S
C613 C614 1.398 . S
C614 H602 0.950 . S
C614 C613 1.398 . S
C614 C615 1.391 . S
C615 H603 0.950 . S
C615 C611 1.393 . S
C615 C614 1.391 . S
H616 C624 0.950 . S
H617 C629 0.950 . S
H618 C626 0.950 . S
H619 C628 0.950 . S
H620 C630 0.950 . S
H621 C632 0.950 . S
H622 C634 0.950 . S
H623 C635 0.950 . S
C624 H616 0.950 . S
C624 C625 1.386 . S
C624 C626 1.391 . S
C625 C624 1.386 . S
C625 C629 1.393 . S
C626 H618 0.950 . S
C626 C624 1.391 . S
C626 C627 1.400 . S
C627 C626 1.400 . S
C627 C628 1.398 . S
C627 C633 1.491 . S
C628 H619 0.950 . S
C628 C627 1.398 . S
C628 C629 1.391 . S
C629 H617 0.950 . S
C629 C625 1.393 . S
C629 C628 1.391 . S
C630 H620 0.950 . S
C630 C631 1.386 . S
C630 C632 1.391 . S
C631 C630 1.386 . S
C631 C635 1.393 . S
C632 H621 0.950 . S
C632 C630 1.391 . S
C632 C633 1.400 . S
C633 C627 1.491 . S
C633 C632 1.400 . S
C633 C634 1.398 . S
C634 H622 0.950 . S
C634 C633 1.398 . S
C634 C635 1.391 . S
C635 H623 0.950 . S
C635 C631 1.393 . S
C635 C634 1.391 . S
H636 C644 0.950 . S
H637 C649 0.950 . S
H638 C646 0.950 . S
H639 C648 0.950 . S
H640 C650 0.950 . S
H641 C652 0.950 . S
H642 C654 0.950 . S
H643 C655 0.950 . S
C644 H636 0.950 . S
C644 C645 1.386 . S
C644 C646 1.391 . S
C645 C644 1.386 . S
C645 C649 1.393 . S
C646 H638 0.950 . S
C646 C644 1.391 . S
C646 C647 1.400 . S
C647 C646 1.400 . S
C647 C648 1.398 . S
C647 C653 1.491 . S
C648 H639 0.950 . S
C648 C647 1.398 . S
C648 C649 1.391 . S
C649 H637 0.950 . S
C649 C645 1.393 . S
C649 C648 1.391 . S
C650 H640 0.950 . S
C650 C651 1.386 . S
C650 C652 1.391 . S
C651 C650 1.386 . S
C651 C655 1.393 . S
C652 H641 0.950 . S
C652 C650 1.391 . S
C652 C653 1.400 . S
C653 C647 1.491 . S
C653 C652 1.400 . S
C653 C654 1.398 . S
C654 H642 0.950 . S
C654 C653 1.398 . S
C654 C655 1.391 . S
C655 H643 0.950 . S
C655 C651 1.393 . S
C655 C654 1.391 . S
H656 C664 0.950 . S
H657 C669 0.950 . S
H658 C666 0.950 . S
H659 C668 0.950 . S
H660 C670 0.950 . S
H661 C672 0.950 . S
H662 C674 0.950 . S
H663 C675 0.950 . S
C664 H656 0.950 . S
C664 C665 1.386 . S
C664 C666 1.391 . S
C665 C664 1.386 . S
C665 C669 1.393 . S
C666 H658 0.950 . S
C666 C664 1.391 . S
C666 C667 1.400 . S
C667 C666 1.400 . S
C667 C668 1.398 . S
C667 C673 1.491 . S
C668 H659 0.950 . S
C668 C667 1.398 . S
C668 C669 1.391 . S
C669 H657 0.950 . S
C669 C665 1.393 . S
C669 C668 1.391 . S
C670 H660 0.950 . S
C670 C671 1.386 . S
C670 C672 1.391 . S
C671 C670 1.386 . S
C671 C675 1.393 . S
C672 H661 0.950 . S
C672 C670 1.391 . S
C672 C673 1.400 . S
C673 C667 1.491 . S
C673 C672 1.400 . S
C673 C674 1.398 . S
C674 H662 0.950 . S
C674 C673 1.398 . S
C674 C675 1.391 . S
C675 H663 0.950 . S
C675 C671 1.393 . S
C675 C674 1.391 . S
H676 C684 0.950 . S
H677 C689 0.950 . S
H678 C686 0.950 . S
H679 C688 0.950 . S
H680 C690 0.950 . S
H681 C692 0.950 . S
H682 C694 0.950 . S
H683 C695 0.950 . S
C684 H676 0.950 . S
C684 C685 1.386 . S
C684 C686 1.391 . S
C685 C684 1.386 . S
C685 C689 1.393 . S
C686 H678 0.950 . S
C686 C684 1.391 . S
C686 C687 1.400 . S
C687 C686 1.400 . S
C687 C688 1.398 . S
C687 C693 1.491 . S
C688 H679 0.950 . S
C688 C687 1.398 . S
C688 C689 1.391 . S
C689 H677 0.950 . S
C689 C685 1.393 . S
C689 C688 1.391 . S
C690 H680 0.950 . S
C690 C691 1.386 . S
C690 C692 1.391 . S
C691 C690 1.386 . S
C691 C695 1.393 . S
C692 H681 0.950 . S
C692 C690 1.391 . S
C692 C693 1.400 . S
C693 C687 1.491 . S
C693 C692 1.400 . S
C693 C694 1.398 . S
C694 H682 0.950 . S
C694 C693 1.398 . S
C694 C695 1.391 . S
C695 H683 0.950 . S
C695 C691 1.393 . S
C695 C694 1.391 . S
H696 C704 0.950 . S
H697 C709 0.950 . S
H698 C706 0.950 . S
H699 C708 0.950 . S
H700 C710 0.950 . S
H701 C712 0.950 . S
H702 C714 0.950 . S
H703 C715 0.950 . S
C704 H696 0.950 . S
C704 C705 1.386 . S
C704 C706 1.391 . S
C705 C704 1.386 . S
C705 C709 1.393 . S
C706 H698 0.950 . S
C706 C704 1.391 . S
C706 C707 1.400 . S
C707 C706 1.400 . S
C707 C708 1.398 . S
C707 C713 1.491 . S
C708 H699 0.950 . S
C708 C707 1.398 . S
C708 C709 1.391 . S
C709 H697 0.950 . S
C709 C705 1.393 . S
C709 C708 1.391 . S
C710 H700 0.950 . S
C710 C711 1.386 . S
C710 C712 1.391 . S
C711 C710 1.386 . S
C711 C715 1.393 . S
C712 H701 0.950 . S
C712 C710 1.391 . S
C712 C713 1.400 . S
C713 C707 1.491 . S
C713 C712 1.400 . S
C713 C714 1.398 . S
C714 H702 0.950 . S
C714 C713 1.398 . S
C714 C715 1.391 . S
C715 H703 0.950 . S
C715 C711 1.393 . S
C715 C714 1.391 . S
H716 C724 0.950 . S
H717 C729 0.950 . S
H718 C726 0.950 . S
H719 C728 0.950 . S
H720 C730 0.950 . S
H721 C732 0.950 . S
H722 C734 0.950 . S
H723 C735 0.950 . S
C724 H716 0.950 . S
C724 C725 1.386 . S
C724 C726 1.391 . S
C725 C724 1.386 . S
C725 C729 1.393 . S
C726 H718 0.950 . S
C726 C724 1.391 . S
C726 C727 1.400 . S
C727 C726 1.400 . S
C727 C728 1.398 . S
C727 C733 1.491 . S
C728 H719 0.950 . S
C728 C727 1.398 . S
C728 C729 1.391 . S
C729 H717 0.950 . S
C729 C725 1.393 . S
C729 C728 1.391 . S
C730 H720 0.950 . S
C730 C731 1.386 . S
C730 C732 1.391 . S
C731 C730 1.386 . S
C731 C735 1.393 . S
C732 H721 0.950 . S
C732 C730 1.391 . S
C732 C733 1.400 . S
C733 C727 1.491 . S
C733 C732 1.400 . S
C733 C734 1.398 . S
C734 H722 0.950 . S
C734 C733 1.398 . S
C734 C735 1.391 . S
C735 H723 0.950 . S
C735 C731 1.393 . S
C735 C734 1.391 . S
H736 C744 0.950 . S
H737 C749 0.950 . S
H738 C746 0.950 . S
H739 C748 0.950 . S
H740 C750 0.950 . S
H741 C752 0.950 . S
H742 C754 0.950 . S
H743 C755 0.950 . S
C744 H736 0.950 . S
C744 C745 1.386 . S
C744 C746 1.391 . S
C745 C744 1.386 . S
C745 C749 1.393 . S
C746 H738 0.950 . S
C746 C744 1.391 . S
C746 C747 1.400 . S
C747 C746 1.400 . S
C747 C748 1.398 . S
C747 C753 1.491 . S
C748 H739 0.950 . S
C748 C747 1.398 . S
C748 C749 1.391 . S
C749 H737 0.950 . S
C749 C745 1.393 . S
C749 C748 1.391 . S
C750 H740 0.950 . S
C750 C751 1.386 . S
C750 C752 1.391 . S
C751 C750 1.386 . S
C751 C755 1.393 . S
C752 H741 0.950 . S
C752 C750 1.391 . S
C752 C753 1.400 . S
C753 C747 1.491 . S
C753 C752 1.400 . S
C753 C754 1.398 . S
C754 H742 0.950 . S
C754 C753 1.398 . S
C754 C755 1.391 . S
C755 H743 0.950 . S
C755 C751 1.393 . S
C755 C754 1.391 . S
H756 C764 0.950 . S
H757 C769 0.950 . S
H758 C766 0.950 . S
H759 C768 0.950 . S
H760 C770 0.950 . S
H761 C772 0.950 . S
H762 C774 0.950 . S
H763 C775 0.950 . S
C764 H756 0.950 . S
C764 C765 1.386 . S
C764 C766 1.391 . S
C765 C764 1.386 . S
C765 C769 1.393 . S
C766 H758 0.950 . S
C766 C764 1.391 . S
C766 C767 1.400 . S
C767 C766 1.400 . S
C767 C768 1.398 . S
C767 C773 1.491 . S
C768 H759 0.950 . S
C768 C767 1.398 . S
C768 C769 1.391 . S
C769 H757 0.950 . S
C769 C765 1.393 . S
C769 C768 1.391 . S
C770 H760 0.950 . S
C770 C771 1.386 . S
C770 C772 1.391 . S
C771 C770 1.386 . S
C771 C775 1.393 . S
C772 H761 0.950 . S
C772 C770 1.391 . S
C772 C773 1.400 . S
C773 C767 1.491 . S
C773 C772 1.400 . S
C773 C774 1.398 . S
C774 H762 0.950 . S
C774 C773 1.398 . S
C774 C775 1.391 . S
C775 H763 0.950 . S
C775 C771 1.393 . S
C775 C774 1.391 . S
H776 C784 0.950 . S
H777 C789 0.950 . S
H778 C786 0.950 . S
H779 C788 0.950 . S
H780 C790 0.950 . S
H781 C792 0.950 . S
H782 C794 0.950 . S
H783 C795 0.950 . S
C784 H776 0.950 . S
C784 C785 1.386 . S
C784 C786 1.391 . S
C785 C784 1.386 . S
C785 C789 1.393 . S
C786 H778 0.950 . S
C786 C784 1.391 . S
C786 C787 1.400 . S
C787 C786 1.400 . S
C787 C788 1.398 . S
C787 C793 1.491 . S
C788 H779 0.950 . S
C788 C787 1.398 . S
C788 C789 1.391 . S
C789 H777 0.950 . S
C789 C785 1.393 . S
C789 C788 1.391 . S
C790 H780 0.950 . S
C790 C791 1.386 . S
C790 C792 1.391 . S
C791 C790 1.386 . S
C791 C795 1.393 . S
C792 H781 0.950 . S
C792 C790 1.391 . S
C792 C793 1.400 . S
C793 C787 1.491 . S
C793 C792 1.400 . S
C793 C794 1.398 . S
C794 H782 0.950 . S
C794 C793 1.398 . S
C794 C795 1.391 . S
C795 H783 0.950 . S
C795 C791 1.393 . S
C795 C794 1.391 . S
H796 C804 0.950 . S
H797 C809 0.950 . S
H798 C806 0.950 . S
H799 C808 0.950 . S
H800 C810 0.950 . S
H801 C812 0.950 . S
H802 C814 0.950 . S
H803 C815 0.950 . S
C804 H796 0.950 . S
C804 C805 1.386 . S
C804 C806 1.391 . S
C805 C804 1.386 . S
C805 C809 1.393 . S
C806 H798 0.950 . S
C806 C804 1.391 . S
C806 C807 1.400 . S
C807 C806 1.400 . S
C807 C808 1.398 . S
C807 C813 1.491 . S
C808 H799 0.950 . S
C808 C807 1.398 . S
C808 C809 1.391 . S
C809 H797 0.950 . S
C809 C805 1.393 . S
C809 C808 1.391 . S
C810 H800 0.950 . S
C810 C811 1.386 . S
C810 C812 1.391 . S
C811 C810 1.386 . S
C811 C815 1.393 . S
C812 H801 0.950 . S
C812 C810 1.391 . S
C812 C813 1.400 . S
C813 C807 1.491 . S
C813 C812 1.400 . S
C813 C814 1.398 . S
C814 H802 0.950 . S
C814 C813 1.398 . S
C814 C815 1.391 . S
C815 H803 0.950 . S
C815 C811 1.393 . S
C815 C814 1.391 . S
H816 C824 0.950 . S
H817 C829 0.950 . S
H818 C826 0.950 . S
H819 C828 0.950 . S
H820 C830 0.950 . S
H821 C832 0.950 . S
H822 C834 0.950 . S
H823 C835 0.950 . S
C824 H816 0.950 . S
C824 C825 1.386 . S
C824 C826 1.391 . S
C825 C824 1.386 . S
C825 C829 1.393 . S
C826 H818 0.950 . S
C826 C824 1.391 . S
C826 C827 1.400 . S
C827 C826 1.400 . S
C827 C828 1.398 . S
C827 C833 1.491 . S
C828 H819 0.950 . S
C828 C827 1.398 . S
C828 C829 1.391 . S
C829 H817 0.950 . S
C829 C825 1.393 . S
C829 C828 1.391 . S
C830 H820 0.950 . S
C830 C831 1.386 . S
C830 C832 1.391 . S
C831 C830 1.386 . S
C831 C835 1.393 . S
C832 H821 0.950 . S
C832 C830 1.391 . S
C832 C833 1.400 . S
C833 C827 1.491 . S
C833 C832 1.400 . S
C833 C834 1.398 . S
C834 H822 0.950 . S
C834 C833 1.398 . S
C834 C835 1.391 . S
C835 H823 0.950 . S
C835 C831 1.393 . S
C835 C834 1.391 . S
H836 C844 0.950 . S
H837 C849 0.950 . S
H838 C846 0.950 . S
H839 C848 0.950 . S
H840 C850 0.950 . S
H841 C852 0.950 . S
H842 C854 0.950 . S
H843 C855 0.950 . S
C844 H836 0.950 . S
C844 C845 1.386 . S
C844 C846 1.391 . S
C845 C844 1.386 . S
C845 C849 1.393 . S
C846 H838 0.950 . S
C846 C844 1.391 . S
C846 C847 1.400 . S
C847 C846 1.400 . S
C847 C848 1.398 . S
C847 C853 1.491 . S
C848 H839 0.950 . S
C848 C847 1.398 . S
C848 C849 1.391 . S
C849 H837 0.950 . S
C849 C845 1.393 . S
C849 C848 1.391 . S
C850 H840 0.950 . S
C850 C851 1.386 . S
C850 C852 1.391 . S
C851 C850 1.386 . S
C851 C855 1.393 . S
C852 H841 0.950 . S
C852 C850 1.391 . S
C852 C853 1.400 . S
C853 C847 1.491 . S
C853 C852 1.400 . S
C853 C854 1.398 . S
C854 H842 0.950 . S
C854 C853 1.398 . S
C854 C855 1.391 . S
C855 H843 0.950 . S
C855 C851 1.393 . S
C855 C854 1.391 . S
H856 C864 0.950 . S
H857 C869 0.950 . S
H858 C866 0.950 . S
H859 C868 0.950 . S
H860 C870 0.950 . S
H861 C872 0.950 . S
H862 C874 0.950 . S
H863 C875 0.950 . S
C864 H856 0.950 . S
C864 C865 1.386 . S
C864 C866 1.391 . S
C865 C864 1.386 . S
C865 C869 1.393 . S
C866 H858 0.950 . S
C866 C864 1.391 . S
C866 C867 1.400 . S
C867 C866 1.400 . S
C867 C868 1.398 . S
C867 C873 1.491 . S
C868 H859 0.950 . S
C868 C867 1.398 . S
C868 C869 1.391 . S
C869 H857 0.950 . S
C869 C865 1.393 . S
C869 C868 1.391 . S
C870 H860 0.950 . S
C870 C871 1.386 . S
C870 C872 1.391 . S
C871 C870 1.386 . S
C871 C875 1.393 . S
C872 H861 0.950 . S
C872 C870 1.391 . S
C872 C873 1.400 . S
C873 C867 1.491 . S
C873 C872 1.400 . S
C873 C874 1.398 . S
C874 H862 0.950 . S
C874 C873 1.398 . S
C874 C875 1.391 . S
C875 H863 0.950 . S
C875 C871 1.393 . S
C875 C874 1.391 . S
H876 C884 0.950 . S
H877 C889 0.950 . S
H878 C886 0.950 . S
H879 C888 0.946 . S
H880 C890 0.950 . S
H881 C892 0.950 . S
H882 C894 0.946 . S
H883 C895 0.950 . S
C884 H876 0.950 . S
C884 C885 1.386 . S
C884 C886 1.391 . S
C885 C884 1.386 . S
C885 C889 1.393 . S
C886 H878 0.950 . S
C886 C884 1.391 . S
C886 C887 1.400 . S
C887 C886 1.400 . S
C887 C888 1.398 . S
C887 C893 1.491 1_556 S
C888 H879 0.946 . S
C888 C887 1.398 . S
C888 C889 1.391 . S
C889 H877 0.950 . S
C889 C885 1.393 . S
C889 C888 1.391 . S
C890 H880 0.950 . S
C890 C891 1.386 . S
C890 C892 1.391 . S
C891 C890 1.386 . S
C891 C895 1.393 . S
C892 H881 0.950 . S
C892 C890 1.391 . S
C892 C893 1.400 . S
C893 C887 1.491 1_554 S
C893 C892 1.400 . S
C893 C894 1.398 . S
C894 H882 0.946 . S
C894 C893 1.398 . S
C894 C895 1.391 . S
C895 H883 0.950 . S
C895 C891 1.393 . S
C895 C894 1.391 . S
H896 C904 0.950 . S
H897 C909 0.950 . S
H898 C906 0.950 . S
H899 C908 0.950 . S
H900 C910 0.950 . S
H901 C912 0.950 . S
H902 C914 0.950 . S
H903 C915 0.950 . S
C904 H896 0.950 . S
C904 C905 1.386 . S
C904 C906 1.391 1_455 S
C905 C904 1.386 . S
C905 C909 1.393 . S
C906 H898 0.950 . S
C906 C904 1.391 1_655 S
C906 C907 1.400 1_655 S
C907 C906 1.400 1_455 S
C907 C908 1.398 . S
C907 C913 1.491 1_455 S
C908 H899 0.950 . S
C908 C907 1.398 . S
C908 C909 1.391 . S
C909 H897 0.950 . S
C909 C905 1.393 . S
C909 C908 1.391 . S
C910 H900 0.950 . S
C910 C911 1.386 . S
C910 C912 1.391 1_655 S
C911 C910 1.386 . S
C911 C915 1.393 . S
C912 H901 0.950 . S
C912 C910 1.391 1_455 S
C912 C913 1.400 1_455 S
C913 C907 1.491 1_655 S
C913 C912 1.400 1_655 S
C913 C914 1.398 . S
C914 H902 0.950 . S
C914 C913 1.398 . S
C914 C915 1.391 . S
C915 H903 0.950 . S
C915 C911 1.393 . S
C915 C914 1.391 . S
H916 C924 0.950 . S
H917 C929 0.950 . S
H918 C926 0.976 . S
H919 C928 0.950 . S
H920 C930 0.950 . S
H921 C932 0.976 . S
H922 C934 0.950 . S
H923 C935 0.950 . S
C924 H916 0.950 . S
C924 C925 1.386 . S
C924 C926 1.391 . S
C925 C924 1.386 . S
C925 C929 1.393 . S
C926 H918 0.976 . S
C926 C924 1.391 . S
C926 C927 1.400 . S
C927 C926 1.400 . S
C927 C928 1.398 1_565 S
C927 C933 1.491 1_564 S
C928 H919 0.950 . S
C928 C927 1.398 1_545 S
C928 C929 1.391 1_545 S
C929 H917 0.950 . S
C929 C925 1.393 . S
C929 C928 1.391 1_565 S
C930 H920 0.950 . S
C930 C931 1.386 . S
C930 C932 1.391 . S
C931 C930 1.386 . S
C931 C935 1.393 . S
C932 H921 0.976 . S
C932 C930 1.391 . S
C932 C933 1.400 . S
C933 C927 1.491 1_546 S
C933 C932 1.400 . S
C933 C934 1.398 1_545 S
C934 H922 0.950 . S
C934 C933 1.398 1_565 S
C934 C935 1.391 1_565 S
C935 H923 0.950 . S
C935 C931 1.393 . S
C935 C934 1.391 1_545 S
H936 C944 0.950 . S
H937 C949 0.950 . S
H938 C946 0.950 . S
H939 C948 0.950 . S
H940 C950 0.950 . S
H941 C952 0.950 . S
H942 C954 0.950 . S
H943 C955 0.950 . S
C944 H936 0.950 . S
C944 C945 1.386 . S
C944 C946 1.391 . S
C945 C944 1.386 . S
C945 C949 1.393 . S
C946 H938 0.950 . S
C946 C944 1.391 . S
C946 C947 1.400 . S
C947 C946 1.400 . S
C947 C948 1.398 . S
C947 C953 1.491 . S
C948 H939 0.950 . S
C948 C947 1.398 . S
C948 C949 1.391 . S
C949 H937 0.950 . S
C949 C945 1.393 . S
C949 C948 1.391 . S
C950 H940 0.950 . S
C950 C951 1.386 . S
C950 C952 1.391 . S
C951 C950 1.386 . S
C951 C955 1.393 . S
C952 H941 0.950 . S
C952 C950 1.391 . S
C952 C953 1.400 . S
C953 C947 1.491 . S
C953 C952 1.400 . S
C953 C954 1.398 . S
C954 H942 0.950 . S
C954 C953 1.398 . S
C954 C955 1.391 . S
C955 H943 0.950 . S
C955 C951 1.393 . S
C955 C954 1.391 . S
H956 C964 0.950 . S
H957 C969 0.950 . S
H958 C966 0.950 . S
H959 C968 0.950 . S
H960 C970 0.950 . S
H961 C972 0.950 . S
H962 C974 0.950 . S
H963 C975 0.950 . S
C964 H956 0.950 . S
C964 C965 1.386 . S
C964 C966 1.391 . S
C965 C964 1.386 . S
C965 C969 1.393 . S
C966 H958 0.950 . S
C966 C964 1.391 . S
C966 C967 1.400 . S
C967 C966 1.400 . S
C967 C968 1.398 . S
C967 C973 1.491 1_656 S
C968 H959 0.950 . S
C968 C967 1.398 . S
C968 C969 1.391 . S
C969 H957 0.950 . S
C969 C965 1.393 . S
C969 C968 1.391 . S
C970 H960 0.950 . S
C970 C971 1.386 . S
C970 C972 1.391 . S
C971 C970 1.386 . S
C971 C975 1.393 . S
C972 H961 0.950 . S
C972 C970 1.391 . S
C972 C973 1.400 . S
C973 C967 1.491 1_454 S
C973 C972 1.400 . S
C973 C974 1.398 . S
C974 H962 0.950 . S
C974 C973 1.398 . S
C974 C975 1.391 . S
C975 H963 0.950 . S
C975 C971 1.393 . S
C975 C974 1.391 . S
H976 C984 0.948 . S
H977 C989 0.950 . S
H978 C986 0.950 . S
H979 C988 0.950 . S
H980 C990 0.948 . S
H981 C992 0.950 . S
H982 C994 0.950 . S
H983 C995 0.950 . S
C984 H976 0.948 . S
C984 C985 1.386 . S
C984 C986 1.391 1_565 S
C985 C984 1.386 . S
C985 C989 1.393 . S
C986 H978 0.950 . S
C986 C984 1.391 1_545 S
C986 C987 1.400 1_545 S
C987 C986 1.400 1_565 S
C987 C988 1.398 . S
C987 C993 1.491 1_565 S
C988 H979 0.950 . S
C988 C987 1.398 . S
C988 C989 1.391 . S
C989 H977 0.950 . S
C989 C985 1.393 . S
C989 C988 1.391 . S
C990 H980 0.948 . S
C990 C991 1.386 . S
C990 C992 1.391 1_545 S
C991 C990 1.386 . S
C991 C995 1.393 . S
C992 H981 0.950 . S
C992 C990 1.391 1_565 S
C992 C993 1.400 1_565 S
C993 C987 1.491 1_545 S
C993 C992 1.400 1_545 S
C993 C994 1.398 . S
C994 H982 0.950 . S
C994 C993 1.398 . S
C994 C995 1.391 . S
C995 H983 0.950 . S
C995 C991 1.393 . S
C995 C994 1.391 . S
C285 C113 0.808 . S
C291 C17 0.824 . S
C305 C136 0.823 . S
C311 C40 0.807 . S
C325 C63 0.812 . S
C331 C21 0.829 . S
C345 C86 0.827 . S
C351 C44 0.785 . S
C365 C109 0.806 . S
C371 C67 0.829 . S
C385 C90 0.785 . S
C391 C132 0.832 . S
C405 C205 0.806 . S
C411 C155 0.804 . S
C425 C178 0.837 . S
C431 C228 0.796 . S
C445 C251 0.832 . S
C451 C201 0.808 . S
C465 C224 0.816 . S
C471 C274 0.792 . S
C485 C247 0.808 . S
C491 C159 0.832 . S
C505 C182 0.793 . S
C511 C270 0.826 . S
C525 C110 1.115 . S
C531 C16 1.128 . S
C545 C39 1.124 . S
C551 C133 1.119 . S
C565 C62 1.124 . S
C571 C18 1.119 . S
C585 C85 1.121 . S
C591 C41 1.122 . S
C605 C64 1.127 . S
C611 C108 1.118 . S
C625 C87 1.123 . S
C631 C131 1.123 . S
C645 C202 1.128 . S
C651 C154 1.118 . S
C665 C177 1.129 . S
C671 C225 1.115 . S
C685 C200 1.122 . S
C691 C248 1.123 . S
C705 C271 1.120 . S
C711 C223 1.125 . S
C725 C246 1.128 . S
C731 C156 1.116 . S
C745 C179 1.117 . S
C751 C269 1.126 . S
C765 C250 1.502 . S
C771 C20 1.498 . S
C785 C43 1.511 . S
C791 C273 1.513 . S
C805 C66 1.509 . S
C811 C158 1.512 . S
C825 C89 1.506 . S
C831 C181 1.510 . S
C845 C112 1.510 . S
C851 C204 1.513 . S
C865 C227 1.492 . S
C871 C135 1.495 . S
C885 C226 1.519 . S
C891 C19 1.511 . S
C905 C249 1.520 . S
C911 C42 1.511 . S
C925 C65 1.511 . S
C931 C272 1.520 . S
C945 C88 1.513 . S
C951 C157 1.515 . S
C965 C180 1.517 . S
C971 C111 1.515 . S
C985 C203 1.520 . S
C991 C134 1.510 . S
