# Generated by pormake.
# Topology fnt, (5)-cn, num edge types: 1
# Building blocks:
#     Node 0, Type 0, BuildingBlock: BEQFEK_clean_sbu_0, # of connection points: 5
#     Node 1, Type 0, BuildingBlock: BEQFEK_clean_sbu_0, # of connection points: 5
#     Node 2, Type 0, BuildingBlock: BEQFEK_clean_sbu_0, # of connection points: 5
#     Node 3, Type 0, BuildingBlock: BEQFEK_clean_sbu_0, # of connection points: 5
#     Node 4, Type 0, BuildingBlock: BEQFEK_clean_sbu_0, # of connection points: 5
#     Node 5, Type 0, BuildingBlock: BEQFEK_clean_sbu_0, # of connection points: 5
#     Edge 6, Type (0, 0), BuildingBlock: XIVTED_clean_linker_0, # of connection points: 2
#     Edge 7, Type (0, 0), BuildingBlock: XIVTED_clean_linker_0, # of connection points: 2
#     Edge 8, Type (0, 0), BuildingBlock: XIVTED_clean_linker_0, # of connection points: 2
#     Edge 9, Type (0, 0), BuildingBlock: XIVTED_clean_linker_0, # of connection points: 2
#     Edge 10, Type (0, 0), BuildingBlock: XIVTED_clean_linker_0, # of connection points: 2
#     Edge 11, Type (0, 0), BuildingBlock: XIVTED_clean_linker_0, # of connection points: 2
#     Edge 12, Type (0, 0), BuildingBlock: XIVTED_clean_linker_0, # of connection points: 2
#     Edge 13, Type (0, 0), BuildingBlock: XIVTED_clean_linker_0, # of connection points: 2
#     Edge 14, Type (0, 0), BuildingBlock: XIVTED_clean_linker_0, # of connection points: 2
#     Edge 15, Type (0, 0), BuildingBlock: XIVTED_clean_linker_0, # of connection points: 2
#     Edge 16, Type (0, 0), BuildingBlock: XIVTED_clean_linker_0, # of connection points: 2
#     Edge 17, Type (0, 0), BuildingBlock: XIVTED_clean_linker_0, # of connection points: 2
#     Edge 18, Type (0, 0), BuildingBlock: XIVTED_clean_linker_0, # of connection points: 2
#     Edge 19, Type (0, 0), BuildingBlock: XIVTED_clean_linker_0, # of connection points: 2
#     Edge 20, Type (0, 0), BuildingBlock: XIVTED_clean_linker_0, # of connection points: 2
# Relax obj value: 0.222
# Max RMSD: 0.171
# Mean RMSD: 0.171
data_MOF--net-fnt--node1-BEQFEK_clean_sbu_0--edge1-XIVTED_clean_linker_0
_symmetry_space_group_name_H-M    P1
_symmetry_Int_Tables_number       1
_symmetry_cell_setting            triclinic
loop_
_symmetry_equiv_pos_as_xyz
'x, y, z'
_cell_length_a     25.917603
_cell_length_b     25.95431
_cell_length_c     53.476627
_cell_angle_alpha  90.548675
_cell_angle_beta   90.128981
_cell_angle_gamma 120.12562
loop_
_atom_site_label
_atom_site_type_symbol
_atom_site_fract_x
_atom_site_fract_y
_atom_site_fract_z
_atom_type_partial_charge
Co0 Co 0.1656 0.3717 0.06649 0.0
Co1 Co 0.18053 0.37155 1.00771 0.0
C2 C 0.27555 0.4639 0.04229 0.0
O3 O 0.24544 0.44166 0.0621 0.0
O4 O 0.255 0.44167 1.02064 0.0
C5 C 0.13614 0.38859 0.11679 0.0
O6 O 0.15107 0.44221 0.10912 0.0
C7 C 0.22924 0.3521 0.96045 0.0
C8 C 0.15478 0.33118 0.93441 0.0
C9 C 0.20933 0.33359 0.93599 0.0
N10 N 0.18768 0.35909 0.97268 0.0
N11 N 0.14394 0.34759 0.95681 0.0
C12 C 0.28349 0.35723 0.97279 0.0
H13 H 0.27873 0.35569 0.99344 0.0
H14 H 0.29128 0.32106 0.96617 0.0
H15 H 0.32288 0.40052 0.9678 0.0
C16 C 0.15285 0.25357 0.06016 0.0
N17 N 0.16359 0.30572 0.05069 0.0
N18 N 0.16676 0.3037 0.02614 0.0
C19 C 0.15664 0.2493 1.01924 0.0
C20 C 0.14837 0.21631 0.0406 0.0
C21 C 0.14336 0.23857 0.08733 0.0
H22 H 0.17843 0.27587 0.0986 0.0
H23 H 0.14439 0.19718 0.09126 0.0
H24 H 0.09942 0.23237 0.09293 0.0
O25 O 0.10229 0.38317 0.05234 0.0
O26 O 0.11093 0.38303 1.01112 0.0
H27 H 0.12292 0.24515 0.98207 0.0
H28 H 0.11776 0.17677 0.99214 0.0
C29 C 0.1457 0.22604 0.99286 0.0
H30 H 0.18895 0.23861 0.98397 0.0
H31 H 0.10525 0.34824 0.96159 0.0
O32 O 0.14309 0.35359 0.10219 0.0
C33 C 0.08417 0.38575 0.03055 0.0
Co34 Co 0.78899 0.15377 0.39576 0.0
Co35 Co 0.8082 0.18285 0.33802 0.0
C36 C 0.81289 0.27128 0.37571 0.0
O37 O 0.80467 0.23699 0.3941 0.0
O38 O 0.81309 0.25499 0.35311 0.0
C39 C 0.80579 0.14525 0.45122 0.0
O40 O 0.85397 0.1982 0.45191 0.0
C41 C 0.86332 0.23885 0.28883 0.0
C42 C 0.83707 0.15672 0.26688 0.0
C43 C 0.87049 0.21827 0.26557 0.0
N44 N 0.82893 0.19131 0.30319 0.0
N45 N 0.81269 0.14261 0.28969 0.0
C46 C 0.88753 0.30202 0.2973 0.0
H47 H 0.85827 0.30473 0.31168 0.0
H48 H 0.93248 0.31915 0.3057 0.0
H49 H 0.89103 0.3305 0.28131 0.0
C50 C 0.89299 0.13775 0.3877 0.0
N51 N 0.85134 0.15004 0.37942 0.0
N52 N 0.86212 0.16667 0.35592 0.0
C53 C 0.91295 0.1686 0.34895 0.0
C54 C 0.93392 0.14983 0.36874 0.0
C55 C 0.89055 0.11046 0.41253 0.0
H56 H 0.84356 0.08112 0.4181 0.0
H57 H 0.91315 0.14634 0.4268 0.0
H58 H 0.91298 0.08363 0.4119 0.0
O59 O 0.71353 0.09694 0.37985 0.0
O60 O 0.72512 0.11378 0.33921 0.0
H61 H 0.92088 0.16084 0.30947 0.0
H62 H -0.00859 0.20516 0.32551 0.0
C63 C 0.94406 0.19374 0.32477 0.0
H64 H 0.94298 0.23485 0.32067 0.0
H65 H 0.78661 0.09947 0.29641 0.0
O66 O 0.77787 0.12436 0.43068 0.0
C67 C 0.69364 0.08404 0.35762 0.0
Co68 Co 0.61744 0.79917 0.72798 0.0
Co69 Co 0.61388 0.80852 0.66918 0.0
C70 C 0.60039 0.89221 0.70578 0.0
O71 O 0.6061 0.86876 0.72566 0.0
O72 O 0.60154 0.8716 0.6842 0.0
C73 C 0.64491 0.81322 0.78265 0.0
O74 O 0.65396 0.8677 0.78164 0.0
C75 C 0.66117 0.875 0.62242 0.0
C76 C 0.60925 0.80585 0.5939 0.0
C77 C 0.65175 0.86571 0.5967 0.0
N78 N 0.62582 0.82317 0.63402 0.0
N79 N 0.59532 0.78196 0.61683 0.0
C80 C 0.70034 0.93252 0.63598 0.0
H81 H 0.68988 0.92868 0.65617 0.0
H82 H 0.74756 0.94408 0.63413 0.0
H83 H 0.69533 0.9689 0.62777 0.0
C84 C 0.73555 0.81577 0.71576 0.0
N85 N 0.68356 0.81106 0.70872 0.0
N86 N 0.68021 0.80972 0.68416 0.0
C87 C 0.72873 0.81061 0.67473 0.0
C88 C 0.76563 0.81457 0.69446 0.0
C89 C 0.75802 0.82747 0.74221 0.0
H90 H 0.74281 0.85538 0.75186 0.0
H91 H 0.80742 0.85121 0.74316 0.0
H92 H 0.73984 0.78453 0.75214 0.0
O93 O 0.54591 0.72545 0.71578 0.0
O94 O 0.5438 0.72939 0.67434 0.0
H95 H 0.69402 0.77309 0.63842 0.0
H96 H 0.7685 0.78682 0.64457 0.0
C97 C 0.73745 0.80403 0.64747 0.0
H98 H 0.75613 0.84806 0.63844 0.0
H99 H 0.56396 0.7378 0.62077 0.0
O100 O 0.62959 0.78098 0.76294 0.0
C101 C 0.52219 0.70215 0.6947 0.0
Co102 Co 0.81373 0.62622 0.06126 0.0
Co103 Co 0.79265 0.62542 1.00265 0.0
C104 C 0.70276 0.61621 0.04131 0.0
O105 O 0.73403 0.61981 0.06039 0.0
O106 O 0.72084 0.6164 1.01918 0.0
C107 C 0.8268 0.64867 0.11608 0.0
O108 O 0.77588 0.64818 0.11541 0.0
C109 C 0.76639 0.66903 0.95586 0.0
C110 C 0.78664 0.61982 0.92732 0.0
C111 C 0.76602 0.65953 0.93017 0.0
N112 N 0.78641 0.63646 0.9675 0.0
N113 N 0.79878 0.60754 0.95026 0.0
C114 C 0.74427 0.70507 0.96922 0.0
H115 H 0.7427 0.69821 0.98965 0.0
H116 H 0.77482 0.75308 0.96585 0.0
H117 H 0.69942 0.69326 0.962 0.0
C118 C 0.91628 0.74273 0.04842 0.0
N119 N 0.86841 0.69071 0.04152 0.0
N120 N 0.86087 0.69034 1.01714 0.0
C121 C 0.90419 0.74202 1.00784 0.0
C122 C 0.94058 0.77681 0.02733 0.0
C123 C 0.93384 0.76239 0.07503 0.0
H124 H 0.94879 0.73355 0.08385 0.0
H125 H 0.89459 0.75727 0.08544 0.0
H126 H 0.97053 0.80938 0.07644 0.0
O127 O 0.80983 0.55281 0.04823 0.0
O128 O 0.79914 0.55361 1.00698 0.0
H129 H 0.8993 0.7228 0.96853 0.0
H130 H 0.95279 0.79904 0.97715 0.0
C131 C 0.90809 0.76044 0.98119 0.0
H132 H 0.87417 0.77356 0.97761 0.0
H133 H 0.8144 0.57843 0.95418 0.0
O134 O 0.84729 0.63926 0.09602 0.0
C135 C 0.80566 0.52994 0.02659 0.0
Co136 Co 0.18391 0.81314 0.4001 0.0
Co137 Co 0.14871 0.79756 0.3423 0.0
C138 C 0.07797 0.70214 0.37946 0.0
O139 O 0.11133 0.73221 0.39785 0.0
O140 O 0.08847 0.72215 0.35727 0.0
C141 C 0.16598 0.83189 0.45178 0.0
O142 O 0.11012 0.80746 0.44435 0.0
C143 C 0.08115 0.76556 0.29391 0.0
C144 C 0.14798 0.83363 0.26902 0.0
C145 C 0.0904 0.78544 0.26935 0.0
N146 N 0.13078 0.80089 0.30745 0.0
N147 N 0.17044 0.84141 0.29237 0.0
C148 C 0.02857 0.71103 0.304 0.0
H149 H 0.04419 0.6825 0.31257 0.0
H150 H 0.00752 0.72429 0.31884 0.0
H151 H -0.00477 0.6847 0.28928 0.0
C152 C 0.17605 0.92224 0.39232 0.0
N153 N 0.17077 0.87064 0.384 0.0
N154 N 0.15141 0.86135 0.36068 0.0
C155 C 0.1406 0.90482 0.3539 0.0
C156 C 0.1567 0.94539 0.37362 0.0
C157 C 0.20317 0.95118 0.41695 0.0
H158 H 0.23945 0.94234 0.42207 0.0
H159 H 0.16841 0.93281 0.43157 0.0
H160 H 0.22166 7e-05 0.41625 0.0
O161 O 0.2523 0.81387 0.38392 0.0
O162 O 0.22986 0.80737 0.34339 0.0
H163 H 0.14335 0.92539 0.31514 0.0
H164 H 0.0845 0.92768 0.33215 0.0
C165 C 0.10969 0.90378 0.33003 0.0
H166 H 0.07795 0.85721 0.32426 0.0
H167 H 0.21313 0.87426 0.29803 0.0
O168 O 0.20502 0.83677 0.43611 0.0
C169 C 0.26557 0.81312 0.36104 0.0
Co170 Co 0.34067 0.17266 0.73537 0.0
Co171 Co 0.33835 0.16085 0.67621 0.0
C172 C 0.431 0.15493 0.70896 0.0
O173 O 0.41024 0.16275 0.72936 0.0
O174 O 0.4078 0.15422 0.68775 0.0
C175 C 0.36039 0.22133 0.78481 0.0
O176 O 0.40993 0.26248 0.77457 0.0
C177 C 0.31891 0.09553 0.62783 0.0
C178 C 0.29407 0.148 0.60346 0.0
C179 C 0.29884 0.09719 0.60383 0.0
N180 N 0.3247 0.14275 0.641 0.0
N181 N 0.31093 0.17446 0.62609 0.0
C182 C 0.32635 0.04692 0.63888 0.0
H183 H 0.32564 0.04889 0.65961 0.0
H184 H 0.2907 0.00273 0.63196 0.0
H185 H 0.36994 0.05265 0.633 0.0
C186 C 0.22557 0.06124 0.72873 0.0
N187 N 0.27416 0.10863 0.71938 0.0
N188 N 0.27077 0.10643 0.69479 0.0
C189 C 0.2184 0.05906 0.68773 0.0
C190 C 0.18872 0.02793 0.70895 0.0
C191 C 0.21655 0.04724 0.75599 0.0
H192 H 0.19909 0.07411 0.76494 0.0
H193 H 0.25982 0.05941 0.76505 0.0
H194 H 0.18454 -0.00073 0.75898 0.0
O195 O 0.35348 0.2492 0.72241 0.0
O196 O 0.35272 0.24235 0.68107 0.0
H197 H 0.21191 0.09067 0.65148 0.0
H198 H 0.14449 0.02659 0.66166 0.0
C199 C 0.19384 0.04814 0.6616 0.0
H200 H 0.20598 0.01823 0.65156 0.0
H201 H 0.31021 0.21269 0.63174 0.0
O202 O 0.32482 0.17579 0.77177 0.0
C203 C 0.35689 0.27139 0.70097 0.0
H204 H 0.35051 0.53319 1.00544 0.0
H205 H 0.63608 0.59394 0.0841 0.0
H206 H 0.34591 0.49814 0.08442 0.0
H207 H 0.63556 0.62861 1.00529 0.0
H208 H 0.5342 0.57677 0.08687 0.0
H209 H 0.459 0.58874 1.00752 0.0
C210 C 0.37231 0.53821 0.02334 0.0
C211 C 0.33915 0.50984 0.04465 0.0
C212 C 0.55685 0.58896 0.06907 0.0
C213 C 0.46347 0.57216 0.04708 0.0
C214 C 0.61488 0.59859 0.06748 0.0
C215 C 0.64389 0.61143 0.04433 0.0
C216 C 0.52798 0.59233 0.04737 0.0
C217 C 0.61461 0.61761 0.02344 0.0
C218 C 0.43436 0.56979 0.02453 0.0
C219 C 0.36976 0.51862 0.06743 0.0
N220 N 0.55818 0.60741 0.02542 0.0
N221 N 0.43034 0.54792 0.06794 0.0
H222 H 0.80745 0.3498 0.34377 0.0
H223 H 0.05657 0.62803 0.41935 0.0
H224 H 0.86314 0.33681 0.41844 0.0
H225 H 0.9812 0.63936 0.34902 0.0
H226 H 0.97675 0.52392 0.42256 0.0
H227 H 0.85967 0.45779 0.3485 0.0
C228 C 0.82973 0.36968 0.36137 0.0
C229 C 0.83175 0.33438 0.38059 0.0
C230 C 0.97735 0.54951 0.40657 0.0
C231 C 0.89296 0.45821 0.38596 0.0
C232 C 0.02293 0.60889 0.40473 0.0
C233 C 0.02654 0.6419 0.38351 0.0
C234 C 0.93532 0.52325 0.38705 0.0
C235 C 0.98141 0.61509 0.36528 0.0
C236 C 0.85971 0.43143 0.36406 0.0
C237 C 0.86077 0.36244 0.40308 0.0
N238 N 0.93819 0.55725 0.36732 0.0
N239 N 0.89137 0.42289 0.40497 0.0
H240 H 0.47638 0.12961 0.75046 0.0
H241 H 0.60428 0.9632 0.66769 0.0
H242 H 0.48882 0.13752 0.66989 0.0
H243 H 0.57714 0.94014 0.7474 0.0
H244 H 0.58109 0.04302 0.66958 0.0
H245 H 0.5333 0.07794 0.75092 0.0
C246 C 0.49216 0.12172 0.7329 0.0
C247 C 0.47672 0.13688 0.71004 0.0
C248 C 0.58066 0.02091 0.68671 0.0
C249 C 0.54128 0.07723 0.7105 0.0
C250 C 0.59368 0.97507 0.68565 0.0
C251 C 0.59147 0.94406 0.70737 0.0
C252 C 0.56482 0.03576 0.70961 0.0
C253 C 0.57863 0.96233 0.73015 0.0
C254 C 0.52441 0.09191 0.73319 0.0
C255 C 0.49881 0.12584 0.68793 0.0
N256 N 0.565 0.00656 0.73063 0.0
N257 N 0.5292 0.09592 0.68869 0.0
H258 H 0.47766 0.6281 0.65364 0.0
H259 H 0.35784 0.34257 0.73919 0.0
H260 H 0.46156 0.63069 0.73396 0.0
H261 H 0.37573 0.33851 0.659 0.0
H262 H 0.37895 0.44492 0.73656 0.0
H263 H 0.42148 0.5194 0.65413 0.0
C264 C 0.46111 0.60594 0.67132 0.0
C265 C 0.47559 0.63856 0.69387 0.0
C266 C 0.37776 0.42154 0.7195 0.0
C267 C 0.41216 0.51428 0.69457 0.0
C268 C 0.36597 0.3631 0.72099 0.0
C269 C 0.36605 0.3322 0.69932 0.0
C270 C 0.39024 0.44965 0.6962 0.0
C271 C 0.37598 0.36088 0.67623 0.0
C272 C 0.42933 0.54379 0.67159 0.0
C273 C 0.4525 0.60737 0.71616 0.0
N274 N 0.38838 0.41827 0.67531 0.0
N275 N 0.42284 0.54696 0.71599 0.0
H276 H 0.83721 0.4929 0.98408 0.0
H277 H 0.00476 0.37053 0.06707 0.0
H278 H 0.81069 0.46008 0.06332 0.0
H279 H 0.03847 0.4089 0.98844 0.0
H280 H 0.9179 0.38249 0.06371 0.0
H281 H 0.89191 0.43905 0.98288 0.0
C282 C 0.8413 0.47288 1.0011 0.0
C283 C 0.8209 0.48251 0.02401 0.0
C284 C 0.9439 0.38785 0.0471 0.0
C285 C 0.88419 0.42184 1.02279 0.0
C286 C -0.00612 0.38145 0.04904 0.0
C287 C 0.02977 0.39009 0.02811 0.0
C288 C 0.92991 0.40377 0.02414 0.0
C289 C 0.01256 0.40279 1.00514 0.0
C290 C 0.87298 0.44251 1.00042 0.0
C291 C 0.82698 0.45502 0.04537 0.0
N292 N 0.96425 0.41012 1.00384 0.0
N293 N 0.85914 0.42696 0.04433 0.0
H294 H 0.34559 0.80258 0.39059 0.0
H295 H 0.62062 0.05456 0.316 0.0
H296 H 0.32757 0.86524 0.31843 0.0
H297 H 0.62957 -0.00516 0.39013 0.0
H298 H 0.51725 0.97194 0.31216 0.0
H299 H 0.45347 0.85613 0.38563 0.0
C300 C 0.36434 0.82655 0.37343 0.0
C301 C 0.32773 0.83045 0.35513 0.0
C302 C 0.54227 0.97667 0.32911 0.0
C303 C 0.45133 0.89343 0.34962 0.0
C304 C 0.6011 0.02383 0.33132 0.0
C305 C 0.63323 0.03235 0.35362 0.0
C306 C 0.51592 0.93782 0.34928 0.0
C307 C 0.60609 0.99089 0.3728 0.0
C308 C 0.42601 0.85744 0.37064 0.0
C309 C 0.35429 0.86151 0.33312 0.0
N310 N 0.54902 0.94587 0.37025 0.0
N311 N 0.41472 0.89305 0.33121 0.0
H312 H 0.04182 0.13602 0.05949 0.0
H313 H 0.06183 0.84685 0.03018 0.0
H314 H 0.19699 0.15137 0.02299 0.0
H315 H 0.8985 0.85213 0.02599 0.0
H316 H 0.11799 0.95648 0.0349 0.0
H317 H -0.00601 0.02759 0.05645 0.0
C318 C 0.06608 0.11621 0.05128 0.0
C319 C 0.12314 0.15177 0.04156 0.0
C320 C 0.06993 0.93338 0.03271 0.0
C321 C 0.06897 0.02895 0.03771 0.0
C322 C 0.03825 0.87146 0.02995 0.0
C323 C 0.97613 0.8417 0.0275 0.0
C324 C 0.03847 0.96435 0.03361 0.0
C325 C 0.94665 0.87431 0.02764 0.0
C326 C 0.03873 0.0547 0.04932 0.0
C327 C 0.1528 0.12467 0.03069 0.0
N328 N 0.97812 0.93409 0.03088 0.0
N329 N 0.12525 0.06434 0.02901 0.0
H330 H 0.11071 0.97701 0.41279 0.0
H331 H 0.9667 0.10012 0.33154 0.0
H332 H 0.18029 0.02986 0.33838 0.0
H333 H 0.01643 0.17528 0.40601 0.0
H334 H 0.04437 0.07353 0.33325 0.0
H335 H 0.07741 0.04974 0.41226 0.0
C336 C 0.12065 0.00517 0.39664 0.0
C337 C 0.14729 -0.00321 0.37539 0.0
C338 C 0.03917 0.09712 0.34898 0.0
C339 C 0.10748 0.07806 0.37441 0.0
C340 C -0.00508 0.11234 0.34803 0.0
C341 C 0.98496 0.13958 0.36874 0.0
C342 C 0.07205 0.10724 0.37112 0.0
C343 C 0.02186 0.15298 0.38989 0.0
C344 C 0.1015 0.04654 0.39635 0.0
C345 C 0.15821 0.03387 0.35482 0.0
N346 N 0.06298 0.13523 0.39083 0.0
N347 N 0.13658 0.07182 0.3545 0.0
H348 H 0.14306 0.92894 0.67885 0.0
H349 H 0.85418 0.88418 0.66214 0.0
H350 H 0.09781 0.0068 0.74058 0.0
H351 H 0.81566 0.76619 0.72452 0.0
H352 H 0.95923 0.91317 0.66564 0.0
H353 H 0.03676 0.85481 0.67343 0.0
C354 C 0.111 0.9294 0.69166 0.0
C355 C 0.12871 0.97481 0.70977 0.0
C356 C 0.92723 0.87962 0.67805 0.0
C357 C 0.00918 0.88929 0.70445 0.0
C358 C 0.86735 0.86287 0.67604 0.0
C359 C 0.82636 0.82331 0.6933 0.0
C360 C 0.94609 0.85792 0.69781 0.0
C361 C 0.84637 0.79817 0.71132 0.0
C362 C 0.05089 0.88692 0.68868 0.0
C363 C 0.08599 0.97263 0.72638 0.0
N364 N 0.90553 0.81762 0.71376 0.0
N365 N 0.02773 0.93095 0.72307 0.0
H366 H 0.14776 0.24112 0.90365 0.0
H367 H 0.42694 0.31212 0.81811 0.0
H368 H 0.32712 0.37843 0.92243 0.0
H369 H 0.25285 0.15617 0.80836 0.0
H370 H 0.39294 0.33595 0.85687 0.0
H371 H 0.18651 0.20891 0.8691 0.0
C372 C 0.19547 0.26435 0.90058 0.0
C373 C 0.23427 0.31241 0.91607 0.0
C374 C 0.36238 0.2962 0.8464 0.0
C375 C 0.27914 0.2759 0.87623 0.0
C376 C 0.38174 0.28249 0.82424 0.0
C377 C 0.3426 0.2322 0.80981 0.0
C378 C 0.30321 0.25971 0.85413 0.0
C379 C 0.2846 0.19545 0.81878 0.0
C380 C 0.21761 0.24572 0.88088 0.0
C381 C 0.29567 0.34061 0.91124 0.0
N382 N 0.26656 0.21027 0.84019 0.0
N383 N 0.31619 0.32227 0.8916 0.0
H384 H 0.06686 0.27249 0.13045 0.0
H385 H 0.97555 0.32885 0.26454 0.0
H386 H 0.12725 0.45203 0.15641 0.0
H387 H 0.85719 0.17912 0.21745 0.0
H388 H 0.04179 0.37315 0.22892 0.0
H389 H 0.0025 0.23453 0.16692 0.0
C390 C 0.06725 0.304 0.14398 0.0
C391 C 0.10242 0.36561 0.1403 0.0
C392 C 0.00082 0.33097 0.22645 0.0
C393 C 0.02867 0.3222 0.18213 0.0
C394 C 0.96226 0.30588 0.24672 0.0
C395 C 0.90948 0.25047 0.24405 0.0
C396 C 0.98745 0.29964 0.20362 0.0
C397 C 0.8971 0.22187 0.22052 0.0
C398 C 0.03008 0.28224 0.16467 0.0
C399 C 0.10067 0.40421 0.15847 0.0
N400 N 0.93594 0.24642 0.20137 0.0
N401 N 0.06446 0.38188 0.1787 0.0
H402 H 0.86086 0.16412 0.49739 0.0
H403 H 0.5953 0.86136 0.55327 0.0
H404 H 0.70185 0.04005 0.45649 0.0
H405 H 0.76287 0.9681 0.59212 0.0
H406 H 0.63258 0.9308 0.51873 0.0
H407 H 0.82435 0.09783 0.53361 0.0
C408 C 0.81827 0.12322 0.49604 0.0
C409 C 0.78448 0.10767 0.47382 0.0
C410 C 0.6612 0.93939 0.53487 0.0
C411 C 0.74256 0.03182 0.51507 0.0
C412 C 0.63993 0.89957 0.55464 0.0
C413 C 0.67541 0.90924 0.57598 0.0
C414 C 0.71875 0.98949 0.53621 0.0
C415 C 0.73297 0.95965 0.57656 0.0
C416 C 0.79756 0.08534 0.51668 0.0
C417 C 0.72966 0.05397 0.47313 0.0
N418 N 0.75284 -0.00208 0.55698 0.0
N419 N 0.71055 0.0182 0.49338 0.0
H420 H 0.69149 0.87276 0.82732 0.0
H421 H 0.70689 0.59935 0.88806 0.0
H422 H 0.62912 0.70241 0.79071 0.0
H423 H 0.77821 0.77109 0.92436 0.0
H424 H 0.67378 0.63565 0.85314 0.0
H425 H 0.71827 0.83538 0.86418 0.0
C426 C 0.68303 0.82744 0.82707 0.0
C427 C 0.65812 0.79078 0.80582 0.0
C428 C 0.69617 0.66534 0.86885 0.0
C429 C 0.68887 0.74782 0.84789 0.0
C430 C 0.7152 0.64463 0.8888 0.0
C431 C 0.74433 0.68174 0.90949 0.0
C432 C 0.70677 0.724 0.86936 0.0
C433 C 0.75409 0.7401 0.90933 0.0
C434 C 0.69848 0.80617 0.8481 0.0
C435 C 0.64833 0.73244 0.80658 0.0
N436 N 0.73546 0.75947 0.88956 0.0
N437 N 0.66383 0.71294 0.82718 0.0
H438 H 0.79685 0.66859 0.16309 0.0
H439 H 0.11895 0.76987 0.22209 0.0
H440 H 0.93913 0.66543 0.12258 0.0
H441 H 0.97083 0.74922 0.26615 0.0
H442 H 0.05374 0.73381 0.18522 0.0
H443 H 0.85932 0.69917 0.20092 0.0
C444 C 0.84107 0.67408 0.16214 0.0
C445 C 0.8627 0.66448 0.13954 0.0
C446 C 0.0352 0.73656 0.20298 0.0
C447 C 0.93464 0.69992 0.18278 0.0
C448 C 0.07248 0.75725 0.22401 0.0
C449 C 0.04996 0.76129 0.24731 0.0
C450 C 0.97495 0.72062 0.20508 0.0
C451 C -0.01043 0.74506 0.2487 0.0
C452 C 0.87672 0.69154 0.18377 0.0
C453 C 0.92042 0.67229 0.13951 0.0
N454 N 0.95417 0.72556 0.22787 0.0
N455 N 0.95434 0.68977 0.1607 0.0
H456 H 0.19829 0.05748 0.57594 0.0
H457 H 0.27587 0.88099 0.47501 0.0
H458 H 0.35032 0.03381 0.58539 0.0
H459 H 0.09858 0.85349 0.48488 0.0
H460 H 0.30714 0.93996 0.514 0.0
H461 H 0.16419 0.98675 0.54093 0.0
C462 C 0.22439 0.0371 0.57068 0.0
C463 C 0.2771 0.05136 0.58363 0.0
C464 C 0.26126 0.92038 0.50773 0.0
C465 C 0.23865 0.97067 0.54324 0.0
C466 C 0.24336 0.88678 0.48548 0.0
C467 C 0.18448 0.86231 0.47657 0.0
C468 C 0.22028 0.93043 0.52094 0.0
C469 C 0.14437 0.87136 0.49095 0.0
C470 C 0.20475 -0.00351 0.55075 0.0
C471 C 0.30908 0.02349 0.57607 0.0
N472 N 0.16316 0.90517 0.5122 0.0
N473 N 0.28971 0.98489 0.55615 0.0
loop_
_geom_bond_atom_site_label_1
_geom_bond_atom_site_label_2
_geom_bond_distance
_geom_bond_site_symmetry_2
_ccdc_geom_bond_type
Co0 O3 1.970 . S
Co0 N17 1.989 . S
Co0 O25 1.967 . S
Co0 O32 1.920 . S
Co1 O4 1.966 . S
Co1 N10 2.022 . S
Co1 N18 1.980 1_556 S
Co1 O26 1.941 . S
C2 O3 1.258 . S
C2 O4 1.263 1_554 S
O3 Co0 1.970 . S
O3 C2 1.258 . S
O4 Co1 1.966 . S
O4 C2 1.263 1_556 S
C5 O6 1.235 . S
C5 O32 1.289 . S
O6 C5 1.235 . S
C7 C9 1.400 . S
C7 N10 1.351 . S
C7 C12 1.501 . S
C8 C9 1.387 . S
C8 N11 1.341 . S
C9 C7 1.400 . S
C9 C8 1.387 . S
N10 Co1 2.022 . S
N10 C7 1.351 . S
N10 N11 1.365 . S
N11 C8 1.341 . S
N11 N10 1.365 . S
N11 H31 0.862 . S
C12 C7 1.501 . S
C12 H13 0.961 . S
C12 H14 0.961 . S
C12 H15 0.960 . S
H13 C12 0.961 . S
H14 C12 0.961 . S
H15 C12 0.960 . S
C16 N17 1.342 . S
C16 C20 1.401 . S
C16 C21 1.499 . S
N17 Co0 1.989 . S
N17 C16 1.342 . S
N17 N18 1.417 . S
N18 Co1 1.980 1_554 S
N18 N17 1.417 . S
N18 C19 1.336 1_554 S
C19 N18 1.336 1_556 S
C19 C20 1.396 1_556 S
C19 C29 1.510 . S
C20 C16 1.401 . S
C20 C19 1.396 1_554 S
C21 C16 1.499 . S
C21 H22 0.959 . S
C21 H23 0.960 . S
C21 H24 0.961 . S
H22 C21 0.959 . S
H23 C21 0.960 . S
H24 C21 0.961 . S
O25 Co0 1.967 . S
O25 C33 1.258 . S
O26 Co1 1.941 . S
O26 C33 1.266 1_556 S
H27 C29 0.959 . S
H28 C29 0.961 . S
C29 C19 1.510 . S
C29 H27 0.959 . S
C29 H28 0.961 . S
C29 H30 0.960 . S
H30 C29 0.960 . S
H31 N11 0.862 . S
O32 Co0 1.920 . S
O32 C5 1.289 . S
C33 O25 1.258 . S
C33 O26 1.266 1_554 S
Co34 O37 1.970 . S
Co34 N51 1.989 . S
Co34 O59 1.967 . S
Co34 O66 1.920 . S
Co35 O38 1.966 . S
Co35 N44 2.022 . S
Co35 N52 1.993 . S
Co35 O60 1.941 . S
C36 O37 1.258 . S
C36 O38 1.263 . S
O37 Co34 1.970 . S
O37 C36 1.258 . S
O38 Co35 1.966 . S
O38 C36 1.263 . S
C39 O40 1.235 . S
C39 O66 1.289 . S
O40 C39 1.235 . S
C41 C43 1.400 . S
C41 N44 1.351 . S
C41 C46 1.501 . S
C42 C43 1.387 . S
C42 N45 1.341 . S
C43 C41 1.400 . S
C43 C42 1.387 . S
N44 Co35 2.022 . S
N44 C41 1.351 . S
N44 N45 1.365 . S
N45 C42 1.341 . S
N45 N44 1.365 . S
N45 H65 0.862 . S
C46 C41 1.501 . S
C46 H47 0.961 . S
C46 H48 0.961 1_655 S
C46 H49 0.960 . S
H47 C46 0.961 . S
H48 C46 0.961 1_455 S
H49 C46 0.960 . S
C50 N51 1.342 . S
C50 C54 1.401 . S
C50 C55 1.499 . S
N51 Co34 1.989 . S
N51 C50 1.342 . S
N51 N52 1.388 . S
N52 Co35 1.993 . S
N52 N51 1.388 . S
N52 C53 1.346 . S
C53 N52 1.346 . S
C53 C54 1.396 . S
C53 C63 1.510 . S
C54 C50 1.401 . S
C54 C53 1.396 . S
C55 C50 1.499 . S
C55 H56 0.959 . S
C55 H57 0.960 . S
C55 H58 0.961 . S
H56 C55 0.959 . S
H57 C55 0.960 . S
H58 C55 0.961 . S
O59 Co34 1.967 . S
O59 C67 1.258 . S
O60 Co35 1.941 . S
O60 C67 1.266 . S
H61 C63 0.959 . S
H62 C63 0.961 . S
C63 C53 1.510 . S
C63 H61 0.959 . S
C63 H62 0.961 . S
C63 H64 0.960 . S
H64 C63 0.960 . S
H65 N45 0.862 . S
O66 Co34 1.920 . S
O66 C39 1.289 . S
C67 O59 1.258 . S
C67 O60 1.266 . S
Co68 O71 1.970 . S
Co68 N85 1.989 . S
Co68 O93 1.967 . S
Co68 O100 1.920 . S
Co69 O72 1.966 . S
Co69 N78 2.022 . S
Co69 N86 1.993 . S
Co69 O94 1.941 . S
C70 O71 1.258 . S
C70 O72 1.263 . S
O71 Co68 1.970 . S
O71 C70 1.258 . S
O72 Co69 1.966 . S
O72 C70 1.263 . S
C73 O74 1.235 . S
C73 O100 1.289 . S
O74 C73 1.235 . S
C75 C77 1.400 . S
C75 N78 1.351 . S
C75 C80 1.501 . S
C76 C77 1.387 . S
C76 N79 1.341 . S
C77 C75 1.400 . S
C77 C76 1.387 . S
N78 Co69 2.022 . S
N78 C75 1.351 . S
N78 N79 1.365 . S
N79 C76 1.341 . S
N79 N78 1.365 . S
N79 H99 0.862 . S
C80 C75 1.501 . S
C80 H81 0.961 . S
C80 H82 0.961 1_565 S
C80 H83 0.960 . S
H81 C80 0.961 . S
H82 C80 0.961 1_545 S
H83 C80 0.960 . S
C84 N85 1.342 . S
C84 C88 1.401 . S
C84 C89 1.499 . S
N85 Co68 1.989 . S
N85 C84 1.342 . S
N85 N86 1.388 . S
N86 Co69 1.993 . S
N86 N85 1.388 . S
N86 C87 1.346 . S
C87 N86 1.346 . S
C87 C88 1.396 . S
C87 C97 1.510 . S
C88 C84 1.401 . S
C88 C87 1.396 . S
C89 C84 1.499 . S
C89 H90 0.959 . S
C89 H91 0.960 . S
C89 H92 0.961 . S
H90 C89 0.959 . S
H91 C89 0.960 . S
H92 C89 0.961 . S
O93 Co68 1.967 . S
O93 C101 1.258 . S
O94 Co69 1.941 . S
O94 C101 1.266 . S
H95 C97 0.959 . S
H96 C97 0.961 . S
C97 C87 1.510 . S
C97 H95 0.959 . S
C97 H96 0.961 . S
C97 H98 0.960 . S
H98 C97 0.960 . S
H99 N79 0.862 . S
O100 Co68 1.920 . S
O100 C73 1.289 . S
C101 O93 1.258 . S
C101 O94 1.266 . S
Co102 O105 1.970 . S
Co102 N119 1.989 . S
Co102 O127 1.967 . S
Co102 O134 1.920 . S
Co103 O106 1.966 . S
Co103 N112 2.022 . S
Co103 N120 1.980 1_556 S
Co103 O128 1.941 . S
C104 O105 1.258 . S
C104 O106 1.263 1_554 S
O105 Co102 1.970 . S
O105 C104 1.258 . S
O106 Co103 1.966 . S
O106 C104 1.263 1_556 S
C107 O108 1.235 . S
C107 O134 1.289 . S
O108 C107 1.235 . S
C109 C111 1.400 . S
C109 N112 1.351 . S
C109 C114 1.501 . S
C110 C111 1.387 . S
C110 N113 1.341 . S
C111 C109 1.400 . S
C111 C110 1.387 . S
N112 Co103 2.022 . S
N112 C109 1.351 . S
N112 N113 1.365 . S
N113 C110 1.341 . S
N113 N112 1.365 . S
N113 H133 0.862 . S
C114 C109 1.501 . S
C114 H115 0.961 . S
C114 H116 0.961 . S
C114 H117 0.960 . S
H115 C114 0.961 . S
H116 C114 0.961 . S
H117 C114 0.960 . S
C118 N119 1.342 . S
C118 C122 1.401 . S
C118 C123 1.499 . S
N119 Co102 1.989 . S
N119 C118 1.342 . S
N119 N120 1.416 . S
N120 Co103 1.980 1_554 S
N120 N119 1.416 . S
N120 C121 1.337 1_554 S
C121 N120 1.337 1_556 S
C121 C122 1.396 1_556 S
C121 C131 1.510 . S
C122 C118 1.401 . S
C122 C121 1.396 1_554 S
C123 C118 1.499 . S
C123 H124 0.959 . S
C123 H125 0.960 . S
C123 H126 0.961 . S
H124 C123 0.959 . S
H125 C123 0.960 . S
H126 C123 0.961 . S
O127 Co102 1.967 . S
O127 C135 1.258 . S
O128 Co103 1.941 . S
O128 C135 1.266 1_556 S
H129 C131 0.959 . S
H130 C131 0.961 . S
C131 C121 1.510 . S
C131 H129 0.959 . S
C131 H130 0.961 . S
C131 H132 0.960 . S
H132 C131 0.960 . S
H133 N113 0.862 . S
O134 Co102 1.920 . S
O134 C107 1.289 . S
C135 O127 1.258 . S
C135 O128 1.266 1_554 S
Co136 O139 1.970 . S
Co136 N153 1.989 . S
Co136 O161 1.967 . S
Co136 O168 1.920 . S
Co137 O140 1.966 . S
Co137 N146 2.022 . S
Co137 N154 1.993 . S
Co137 O162 1.941 . S
C138 O139 1.258 . S
C138 O140 1.263 . S
O139 Co136 1.970 . S
O139 C138 1.258 . S
O140 Co137 1.966 . S
O140 C138 1.263 . S
C141 O142 1.235 . S
C141 O168 1.289 . S
O142 C141 1.235 . S
C143 C145 1.400 . S
C143 N146 1.351 . S
C143 C148 1.501 . S
C144 C145 1.387 . S
C144 N147 1.341 . S
C145 C143 1.400 . S
C145 C144 1.387 . S
N146 Co137 2.022 . S
N146 C143 1.351 . S
N146 N147 1.365 . S
N147 C144 1.341 . S
N147 N146 1.365 . S
N147 H167 0.862 . S
C148 C143 1.501 . S
C148 H149 0.961 . S
C148 H150 0.961 1_455 S
C148 H151 0.960 . S
H149 C148 0.961 . S
H150 C148 0.961 1_655 S
H151 C148 0.960 . S
C152 N153 1.342 . S
C152 C156 1.401 . S
C152 C157 1.499 . S
N153 Co136 1.989 . S
N153 C152 1.342 . S
N153 N154 1.388 . S
N154 Co137 1.993 . S
N154 N153 1.388 . S
N154 C155 1.346 . S
C155 N154 1.346 . S
C155 C156 1.396 . S
C155 C165 1.510 . S
C156 C152 1.401 . S
C156 C155 1.396 . S
C157 C152 1.499 . S
C157 H158 0.959 . S
C157 H159 0.960 . S
C157 H160 0.961 . S
H158 C157 0.959 . S
H159 C157 0.960 . S
H160 C157 0.961 . S
O161 Co136 1.967 . S
O161 C169 1.258 . S
O162 Co137 1.941 . S
O162 C169 1.266 . S
H163 C165 0.959 . S
H164 C165 0.961 . S
C165 C155 1.510 . S
C165 H163 0.959 . S
C165 H164 0.961 . S
C165 H166 0.960 . S
H166 C165 0.960 . S
H167 N147 0.862 . S
O168 Co136 1.920 . S
O168 C141 1.289 . S
C169 O161 1.258 . S
C169 O162 1.266 . S
Co170 O173 1.970 . S
Co170 N187 1.989 . S
Co170 O195 1.967 . S
Co170 O202 1.920 . S
Co171 O174 1.966 . S
Co171 N180 2.022 . S
Co171 N188 1.993 . S
Co171 O196 1.941 . S
C172 O173 1.258 . S
C172 O174 1.263 . S
O173 Co170 1.970 . S
O173 C172 1.258 . S
O174 Co171 1.966 . S
O174 C172 1.263 . S
C175 O176 1.235 . S
C175 O202 1.289 . S
O176 C175 1.235 . S
C177 C179 1.400 . S
C177 N180 1.351 . S
C177 C182 1.501 . S
C178 C179 1.387 . S
C178 N181 1.341 . S
C179 C177 1.400 . S
C179 C178 1.387 . S
N180 Co171 2.022 . S
N180 C177 1.351 . S
N180 N181 1.365 . S
N181 C178 1.341 . S
N181 N180 1.365 . S
N181 H201 0.862 . S
C182 C177 1.501 . S
C182 H183 0.961 . S
C182 H184 0.961 1_545 S
C182 H185 0.960 . S
H183 C182 0.961 . S
H184 C182 0.961 1_565 S
H185 C182 0.960 . S
C186 N187 1.342 . S
C186 C190 1.401 . S
C186 C191 1.499 . S
N187 Co170 1.989 . S
N187 C186 1.342 . S
N187 N188 1.388 . S
N188 Co171 1.993 . S
N188 N187 1.388 . S
N188 C189 1.346 . S
C189 N188 1.346 . S
C189 C190 1.396 . S
C189 C199 1.510 . S
C190 C186 1.401 . S
C190 C189 1.396 . S
C191 C186 1.499 . S
C191 H192 0.959 . S
C191 H193 0.960 . S
C191 H194 0.961 . S
H192 C191 0.959 . S
H193 C191 0.960 . S
H194 C191 0.961 . S
O195 Co170 1.967 . S
O195 C203 1.258 . S
O196 Co171 1.941 . S
O196 C203 1.266 . S
H197 C199 0.959 . S
H198 C199 0.961 . S
C199 C189 1.510 . S
C199 H197 0.959 . S
C199 H198 0.961 . S
C199 H200 0.960 . S
H200 C199 0.960 . S
H201 N181 0.862 . S
O202 Co170 1.920 . S
O202 C175 1.289 . S
C203 O195 1.258 . S
C203 O196 1.266 . S
H204 C210 0.930 . S
H205 C214 0.930 . S
H206 C219 0.929 . S
H207 C217 0.929 . S
H208 C212 0.929 . S
H209 C218 0.929 . S
C210 H204 0.930 . S
C210 C211 1.367 1_556 S
C210 C218 1.378 . S
C211 C210 1.367 1_554 S
C211 C219 1.433 . S
C212 H208 0.929 . S
C212 C214 1.378 . S
C212 C216 1.350 . S
C213 C216 1.463 . S
C213 C218 1.350 1_554 S
C213 N221 1.427 . S
C214 H205 0.930 . S
C214 C212 1.378 . S
C214 C215 1.367 . S
C215 C214 1.367 . S
C215 C217 1.433 1_554 S
C216 C212 1.350 . S
C216 C213 1.463 . S
C216 N220 1.427 1_554 S
C217 H207 0.929 . S
C217 C215 1.433 1_556 S
C217 N220 1.384 . S
C218 H209 0.929 . S
C218 C210 1.378 . S
C218 C213 1.350 1_556 S
C219 H206 0.929 . S
C219 C211 1.433 . S
C219 N221 1.384 . S
N220 C216 1.427 1_556 S
N220 C217 1.384 . S
N221 C213 1.427 . S
N221 C219 1.384 . S
H222 C228 0.930 . S
H223 C232 0.930 . S
H224 C237 0.929 . S
H225 C235 0.929 . S
H226 C230 0.929 . S
H227 C236 0.929 . S
C228 H222 0.930 . S
C228 C229 1.367 . S
C228 C236 1.378 . S
C229 C228 1.367 . S
C229 C237 1.433 . S
C230 H226 0.929 . S
C230 C232 1.378 . S
C230 C234 1.350 . S
C231 C234 1.463 1_655 S
C231 C236 1.350 . S
C231 N239 1.427 . S
C232 H223 0.930 . S
C232 C230 1.378 . S
C232 C233 1.367 . S
C233 C232 1.367 . S
C233 C235 1.433 . S
C234 C230 1.350 . S
C234 C231 1.463 1_455 S
C234 N238 1.427 . S
C235 H225 0.929 . S
C235 C233 1.433 . S
C235 N238 1.384 . S
C236 H227 0.929 . S
C236 C228 1.378 . S
C236 C231 1.350 . S
C237 H224 0.929 . S
C237 C229 1.433 . S
C237 N239 1.384 . S
N238 C234 1.427 . S
N238 C235 1.384 . S
N239 C231 1.427 . S
N239 C237 1.384 . S
H240 C246 0.930 . S
H241 C250 0.930 . S
H242 C255 0.929 . S
H243 C253 0.929 . S
H244 C248 0.929 1_545 S
H245 C254 0.929 1_565 S
C246 H240 0.930 . S
C246 C247 1.367 . S
C246 C254 1.378 . S
C247 C246 1.367 . S
C247 C255 1.433 . S
C248 H244 0.929 1_565 S
C248 C250 1.378 . S
C248 C252 1.350 . S
C249 C252 1.463 1_545 S
C249 C254 1.350 . S
C249 N257 1.427 . S
C250 H241 0.930 . S
C250 C248 1.378 . S
C250 C251 1.367 . S
C251 C250 1.367 . S
C251 C253 1.433 . S
C252 C248 1.350 . S
C252 C249 1.463 1_565 S
C252 N256 1.427 . S
C253 H243 0.929 . S
C253 C251 1.433 . S
C253 N256 1.384 . S
C254 H245 0.929 1_545 S
C254 C246 1.378 . S
C254 C249 1.350 . S
C255 H242 0.929 . S
C255 C247 1.433 . S
C255 N257 1.384 . S
N256 C252 1.427 . S
N256 C253 1.384 . S
N257 C249 1.427 . S
N257 C255 1.384 . S
H258 C264 0.930 . S
H259 C268 0.930 . S
H260 C273 0.929 . S
H261 C271 0.929 . S
H262 C266 0.929 . S
H263 C272 0.929 . S
C264 H258 0.930 . S
C264 C265 1.367 . S
C264 C272 1.378 . S
C265 C264 1.367 . S
C265 C273 1.433 . S
C266 H262 0.929 . S
C266 C268 1.378 . S
C266 C270 1.350 . S
C267 C270 1.463 . S
C267 C272 1.350 . S
C267 N275 1.427 . S
C268 H259 0.930 . S
C268 C266 1.378 . S
C268 C269 1.367 . S
C269 C268 1.367 . S
C269 C271 1.433 . S
C270 C266 1.350 . S
C270 C267 1.463 . S
C270 N274 1.427 . S
C271 H261 0.929 . S
C271 C269 1.433 . S
C271 N274 1.384 . S
C272 H263 0.929 . S
C272 C264 1.378 . S
C272 C267 1.350 . S
C273 H260 0.929 . S
C273 C265 1.433 . S
C273 N275 1.384 . S
N274 C270 1.427 . S
N274 C271 1.384 . S
N275 C267 1.427 . S
N275 C273 1.384 . S
H276 C282 0.930 . S
H277 C286 0.930 . S
H278 C291 0.929 . S
H279 C289 0.929 . S
H280 C284 0.929 . S
H281 C290 0.929 . S
C282 H276 0.930 . S
C282 C283 1.367 1_556 S
C282 C290 1.378 1_655 S
C283 C282 1.367 1_554 S
C283 C291 1.433 . S
C284 H280 0.929 . S
C284 C286 1.378 1_655 S
C284 C288 1.350 1_655 S
C285 C288 1.463 1_655 S
C285 C290 1.350 1_654 S
C285 N293 1.427 . S
C286 H277 0.930 . S
C286 C284 1.378 1_455 S
C286 C287 1.367 . S
C287 C286 1.367 . S
C287 C289 1.433 1_554 S
C288 C284 1.350 1_455 S
C288 C285 1.463 1_455 S
C288 N292 1.427 1_554 S
C289 H279 0.929 . S
C289 C287 1.433 1_556 S
C289 N292 1.384 . S
C290 H281 0.929 . S
C290 C282 1.378 1_455 S
C290 C285 1.350 1_456 S
C291 H278 0.929 . S
C291 C283 1.433 . S
C291 N293 1.384 . S
N292 C288 1.427 1_556 S
N292 C289 1.384 . S
N293 C285 1.427 . S
N293 C291 1.384 . S
H294 C300 0.930 . S
H295 C304 0.930 . S
H296 C309 0.929 . S
H297 C307 0.929 . S
H298 C302 0.929 1_565 S
H299 C308 0.929 1_545 S
C300 H294 0.930 . S
C300 C301 1.367 . S
C300 C308 1.378 . S
C301 C300 1.367 . S
C301 C309 1.433 . S
C302 H298 0.929 1_545 S
C302 C304 1.378 . S
C302 C306 1.350 . S
C303 C306 1.463 1_565 S
C303 C308 1.350 . S
C303 N311 1.427 . S
C304 H295 0.930 . S
C304 C302 1.378 . S
C304 C305 1.367 . S
C305 C304 1.367 . S
C305 C307 1.433 . S
C306 C302 1.350 . S
C306 C303 1.463 1_545 S
C306 N310 1.427 . S
C307 H297 0.929 . S
C307 C305 1.433 . S
C307 N310 1.384 . S
C308 H299 0.929 1_565 S
C308 C300 1.378 . S
C308 C303 1.350 . S
C309 H296 0.929 . S
C309 C301 1.433 . S
C309 N311 1.384 . S
N310 C306 1.427 . S
N310 C307 1.384 . S
N311 C303 1.427 . S
N311 C309 1.384 . S
H312 C318 0.930 . S
H313 C322 0.930 . S
H314 C327 0.929 . S
H315 C325 0.929 . S
H316 C320 0.920 1_455 S
H317 C326 0.920 1_655 S
C318 H312 0.930 . S
C318 C319 1.367 . S
C318 C326 1.377 . S
C319 C318 1.367 . S
C319 C327 1.433 1_554 S
C320 H316 0.920 1_655 S
C320 C322 1.377 . S
C320 C324 1.360 1_556 S
C321 C324 1.463 1_445 S
C321 C326 1.360 . S
C321 N329 1.427 1_554 S
C322 H313 0.930 . S
C322 C320 1.377 . S
C322 C323 1.367 1_556 S
C323 C322 1.367 1_554 S
C323 C325 1.433 . S
C324 C320 1.360 1_554 S
C324 C321 1.463 1_665 S
C324 N328 1.427 . S
C325 H315 0.929 . S
C325 C323 1.433 . S
C325 N328 1.384 . S
C326 H317 0.920 1_455 S
C326 C318 1.377 . S
C326 C321 1.360 . S
C327 H314 0.929 . S
C327 C319 1.433 1_556 S
C327 N329 1.384 . S
N328 C324 1.427 . S
N328 C325 1.384 . S
N329 C321 1.427 1_556 S
N329 C327 1.384 . S
H330 C336 0.930 . S
H331 C340 0.930 . S
H332 C345 0.929 . S
H333 C343 0.929 . S
H334 C338 0.929 . S
H335 C344 0.929 . S
C336 H330 0.930 . S
C336 C337 1.367 . S
C336 C344 1.378 . S
C337 C336 1.367 . S
C337 C345 1.433 . S
C338 H334 0.929 . S
C338 C340 1.378 . S
C338 C342 1.350 . S
C339 C342 1.463 1_465 S
C339 C344 1.350 . S
C339 N347 1.427 . S
C340 H331 0.930 . S
C340 C338 1.378 . S
C340 C341 1.367 . S
C341 C340 1.367 . S
C341 C343 1.433 . S
C342 C338 1.350 . S
C342 C339 1.463 1_645 S
C342 N346 1.427 . S
C343 H333 0.929 . S
C343 C341 1.433 . S
C343 N346 1.384 . S
C344 H335 0.929 . S
C344 C336 1.378 . S
C344 C339 1.350 . S
C345 H332 0.929 . S
C345 C337 1.433 . S
C345 N347 1.384 . S
N346 C342 1.427 . S
N346 C343 1.384 . S
N347 C339 1.427 . S
N347 C345 1.384 . S
H348 C354 0.930 . S
H349 C358 0.930 . S
H350 C363 0.929 . S
H351 C361 0.929 . S
H352 C356 0.929 1_545 S
H353 C362 0.929 1_565 S
C354 H348 0.930 . S
C354 C355 1.367 . S
C354 C362 1.378 . S
C355 C354 1.367 . S
C355 C363 1.433 . S
C356 H352 0.929 1_565 S
C356 C358 1.378 . S
C356 C360 1.350 . S
C357 C360 1.463 1_445 S
C357 C362 1.350 . S
C357 N365 1.427 . S
C358 H349 0.930 . S
C358 C356 1.378 . S
C358 C359 1.367 . S
C359 C358 1.367 . S
C359 C361 1.433 . S
C360 C356 1.350 . S
C360 C357 1.463 1_665 S
C360 N364 1.427 . S
C361 H351 0.929 . S
C361 C359 1.433 . S
C361 N364 1.384 . S
C362 H353 0.929 1_545 S
C362 C354 1.378 . S
C362 C357 1.350 . S
C363 H350 0.929 . S
C363 C355 1.433 . S
C363 N365 1.384 . S
N364 C360 1.427 . S
N364 C361 1.384 . S
N365 C357 1.427 . S
N365 C363 1.384 . S
H366 C372 0.930 . S
H367 C376 0.930 . S
H368 C381 0.929 . S
H369 C379 0.929 . S
H370 C374 0.929 . S
H371 C380 0.929 . S
C372 H366 0.930 . S
C372 C373 1.367 . S
C372 C380 1.378 . S
C373 C372 1.367 . S
C373 C381 1.433 . S
C374 H370 0.929 . S
C374 C376 1.378 . S
C374 C378 1.350 . S
C375 C378 1.463 . S
C375 C380 1.350 . S
C375 N383 1.427 . S
C376 H367 0.930 . S
C376 C374 1.378 . S
C376 C377 1.367 . S
C377 C376 1.367 . S
C377 C379 1.433 . S
C378 C374 1.350 . S
C378 C375 1.463 . S
C378 N382 1.427 . S
C379 H369 0.929 . S
C379 C377 1.433 . S
C379 N382 1.384 . S
C380 H371 0.929 . S
C380 C372 1.378 . S
C380 C375 1.350 . S
C381 H368 0.929 . S
C381 C373 1.433 . S
C381 N383 1.384 . S
N382 C378 1.427 . S
N382 C379 1.384 . S
N383 C375 1.427 . S
N383 C381 1.384 . S
H384 C390 0.930 . S
H385 C394 0.930 . S
H386 C399 0.929 . S
H387 C397 0.929 . S
H388 C392 0.929 . S
H389 C398 0.929 . S
C390 H384 0.930 . S
C390 C391 1.367 . S
C390 C398 1.378 . S
C391 C390 1.367 . S
C391 C399 1.433 . S
C392 H388 0.929 . S
C392 C394 1.378 . S
C392 C396 1.350 . S
C393 C396 1.463 . S
C393 C398 1.350 . S
C393 N401 1.427 . S
C394 H385 0.930 . S
C394 C392 1.378 . S
C394 C395 1.367 1_455 S
C395 C394 1.367 1_655 S
C395 C397 1.433 . S
C396 C392 1.350 . S
C396 C393 1.463 . S
C396 N400 1.427 1_455 S
C397 H387 0.929 . S
C397 C395 1.433 . S
C397 N400 1.384 . S
C398 H389 0.929 . S
C398 C390 1.378 . S
C398 C393 1.350 . S
C399 H386 0.929 . S
C399 C391 1.433 . S
C399 N401 1.384 . S
N400 C396 1.427 1_655 S
N400 C397 1.384 . S
N401 C393 1.427 . S
N401 C399 1.384 . S
H402 C408 0.930 . S
H403 C412 0.930 . S
H404 C417 0.929 . S
H405 C415 0.929 . S
H406 C410 0.929 . S
H407 C416 0.929 . S
C408 H402 0.930 . S
C408 C409 1.367 . S
C408 C416 1.378 . S
C409 C408 1.367 . S
C409 C417 1.433 . S
C410 H406 0.929 . S
C410 C412 1.378 . S
C410 C414 1.350 . S
C411 C414 1.463 . S
C411 C416 1.350 . S
C411 N419 1.427 . S
C412 H403 0.930 . S
C412 C410 1.378 . S
C412 C413 1.367 1_545 S
C413 C412 1.367 1_565 S
C413 C415 1.433 . S
C414 C410 1.350 . S
C414 C411 1.463 . S
C414 N418 1.427 1_545 S
C415 H405 0.929 . S
C415 C413 1.433 . S
C415 N418 1.384 . S
C416 H407 0.929 . S
C416 C408 1.378 . S
C416 C411 1.350 . S
C417 H404 0.929 . S
C417 C409 1.433 . S
C417 N419 1.384 . S
N418 C414 1.427 1_565 S
N418 C415 1.384 . S
N419 C411 1.427 . S
N419 C417 1.384 . S
H420 C426 0.930 . S
H421 C430 0.930 . S
H422 C435 0.929 . S
H423 C433 0.929 . S
H424 C428 0.929 . S
H425 C434 0.929 . S
C426 H420 0.930 . S
C426 C427 1.367 . S
C426 C434 1.378 . S
C427 C426 1.367 . S
C427 C435 1.433 . S
C428 H424 0.929 . S
C428 C430 1.378 . S
C428 C432 1.350 . S
C429 C432 1.463 . S
C429 C434 1.350 . S
C429 N437 1.427 . S
C430 H421 0.930 . S
C430 C428 1.378 . S
C430 C431 1.367 . S
C431 C430 1.367 . S
C431 C433 1.433 . S
C432 C428 1.350 . S
C432 C429 1.463 . S
C432 N436 1.427 . S
C433 H423 0.929 . S
C433 C431 1.433 . S
C433 N436 1.384 . S
C434 H425 0.929 . S
C434 C426 1.378 . S
C434 C429 1.350 . S
C435 H422 0.929 . S
C435 C427 1.433 . S
C435 N437 1.384 . S
N436 C432 1.427 . S
N436 C433 1.384 . S
N437 C429 1.427 . S
N437 C435 1.384 . S
H438 C444 0.930 . S
H439 C448 0.930 . S
H440 C453 0.929 . S
H441 C451 0.929 . S
H442 C446 0.929 . S
H443 C452 0.929 . S
C444 H438 0.930 . S
C444 C445 1.367 . S
C444 C452 1.378 . S
C445 C444 1.367 . S
C445 C453 1.433 . S
C446 H442 0.929 . S
C446 C448 1.378 . S
C446 C450 1.350 1_455 S
C447 C450 1.463 . S
C447 C452 1.350 . S
C447 N455 1.427 . S
C448 H439 0.930 . S
C448 C446 1.378 . S
C448 C449 1.367 . S
C449 C448 1.367 . S
C449 C451 1.433 1_455 S
C450 C446 1.350 1_655 S
C450 C447 1.463 . S
C450 N454 1.427 . S
C451 H441 0.929 . S
C451 C449 1.433 1_655 S
C451 N454 1.384 . S
C452 H443 0.929 . S
C452 C444 1.378 . S
C452 C447 1.350 . S
C453 H440 0.929 . S
C453 C445 1.433 . S
C453 N455 1.384 . S
N454 C450 1.427 . S
N454 C451 1.384 . S
N455 C447 1.427 . S
N455 C453 1.384 . S
H456 C462 0.930 . S
H457 C466 0.930 . S
H458 C471 0.929 . S
H459 C469 0.929 . S
H460 C464 0.929 . S
H461 C470 0.929 . S
C462 H456 0.930 . S
C462 C463 1.367 1_565 S
C462 C470 1.378 . S
C463 C462 1.367 1_545 S
C463 C471 1.433 . S
C464 H460 0.929 . S
C464 C466 1.378 . S
C464 C468 1.350 . S
C465 C468 1.463 . S
C465 C470 1.350 . S
C465 N473 1.427 . S
C466 H457 0.930 . S
C466 C464 1.378 . S
C466 C467 1.367 . S
C467 C466 1.367 . S
C467 C469 1.433 . S
C468 C464 1.350 . S
C468 C465 1.463 . S
C468 N472 1.427 . S
C469 H459 0.929 . S
C469 C467 1.433 . S
C469 N472 1.384 . S
C470 H461 0.929 . S
C470 C462 1.378 . S
C470 C465 1.350 . S
C471 H458 0.929 . S
C471 C463 1.433 . S
C471 N473 1.384 1_545 S
N472 C468 1.427 . S
N472 C469 1.384 . S
N473 C465 1.427 . S
N473 C471 1.384 1_565 S
C211 C2 1.427 . S
C215 C104 1.429 . S
C229 C36 1.428 . S
C233 C138 1.430 . S
C247 C172 1.425 . S
C251 C70 1.424 . S
C265 C101 2.040 . S
C269 C203 2.039 . S
C283 C135 2.039 . S
C287 C33 2.039 . S
C301 C169 2.039 . S
C305 C67 2.039 . S
C319 C20 0.444 . S
C323 C122 0.449 . S
C337 C156 0.438 . S
C341 C54 0.444 . S
C355 C190 0.431 . S
C359 C88 0.436 . S
C373 C9 1.639 . S
C377 C175 1.687 . S
C391 C5 1.681 . S
C395 C43 1.650 . S
C409 C39 1.681 . S
C413 C77 1.650 . S
C427 C73 1.686 . S
C431 C111 1.642 . S
C445 C107 1.686 . S
C449 C145 1.641 . S
C463 C179 1.644 . S
C467 C141 1.684 . S
