# Generated by pormake.
# Topology umb, (4)-cn, num edge types: 1
# Building blocks:
#     Node 0, Type 0, BuildingBlock: ESEHIV_clean_sbu_0, # of connection points: 4
#     Node 1, Type 0, BuildingBlock: ESEHIV_clean_sbu_0, # of connection points: 4
#     Node 2, Type 0, BuildingBlock: ESEHIV_clean_sbu_0, # of connection points: 4
#     Node 3, Type 0, BuildingBlock: ESEHIV_clean_sbu_0, # of connection points: 4
#     Node 4, Type 0, BuildingBlock: ESEHIV_clean_sbu_0, # of connection points: 4
#     Node 5, Type 0, BuildingBlock: ESEHIV_clean_sbu_0, # of connection points: 4
#     Node 6, Type 0, BuildingBlock: ESEHIV_clean_sbu_0, # of connection points: 4
#     Node 7, Type 0, BuildingBlock: ESEHIV_clean_sbu_0, # of connection points: 4
#     Node 8, Type 0, BuildingBlock: ESEHIV_clean_sbu_0, # of connection points: 4
#     Node 9, Type 0, BuildingBlock: ESEHIV_clean_sbu_0, # of connection points: 4
#     Node 10, Type 0, BuildingBlock: ESEHIV_clean_sbu_0, # of connection points: 4
#     Node 11, Type 0, BuildingBlock: ESEHIV_clean_sbu_0, # of connection points: 4
#     Edge 12, Type (0, 0), BuildingBlock: UVAHIK_clean_linker_0, # of connection points: 2
#     Edge 13, Type (0, 0), BuildingBlock: UVAHIK_clean_linker_0, # of connection points: 2
#     Edge 14, Type (0, 0), BuildingBlock: UVAHIK_clean_linker_0, # of connection points: 2
#     Edge 15, Type (0, 0), BuildingBlock: UVAHIK_clean_linker_0, # of connection points: 2
#     Edge 16, Type (0, 0), BuildingBlock: UVAHIK_clean_linker_0, # of connection points: 2
#     Edge 17, Type (0, 0), BuildingBlock: UVAHIK_clean_linker_0, # of connection points: 2
#     Edge 18, Type (0, 0), BuildingBlock: UVAHIK_clean_linker_0, # of connection points: 2
#     Edge 19, Type (0, 0), BuildingBlock: UVAHIK_clean_linker_0, # of connection points: 2
#     Edge 20, Type (0, 0), BuildingBlock: UVAHIK_clean_linker_0, # of connection points: 2
#     Edge 21, Type (0, 0), BuildingBlock: UVAHIK_clean_linker_0, # of connection points: 2
#     Edge 22, Type (0, 0), BuildingBlock: UVAHIK_clean_linker_0, # of connection points: 2
#     Edge 23, Type (0, 0), BuildingBlock: UVAHIK_clean_linker_0, # of connection points: 2
#     Edge 24, Type (0, 0), BuildingBlock: UVAHIK_clean_linker_0, # of connection points: 2
#     Edge 25, Type (0, 0), BuildingBlock: UVAHIK_clean_linker_0, # of connection points: 2
#     Edge 26, Type (0, 0), BuildingBlock: UVAHIK_clean_linker_0, # of connection points: 2
#     Edge 27, Type (0, 0), BuildingBlock: UVAHIK_clean_linker_0, # of connection points: 2
#     Edge 28, Type (0, 0), BuildingBlock: UVAHIK_clean_linker_0, # of connection points: 2
#     Edge 29, Type (0, 0), BuildingBlock: UVAHIK_clean_linker_0, # of connection points: 2
#     Edge 30, Type (0, 0), BuildingBlock: UVAHIK_clean_linker_0, # of connection points: 2
#     Edge 31, Type (0, 0), BuildingBlock: UVAHIK_clean_linker_0, # of connection points: 2
#     Edge 32, Type (0, 0), BuildingBlock: UVAHIK_clean_linker_0, # of connection points: 2
#     Edge 33, Type (0, 0), BuildingBlock: UVAHIK_clean_linker_0, # of connection points: 2
#     Edge 34, Type (0, 0), BuildingBlock: UVAHIK_clean_linker_0, # of connection points: 2
#     Edge 35, Type (0, 0), BuildingBlock: UVAHIK_clean_linker_0, # of connection points: 2
# Relax obj value: 0.166
# Max RMSD: 0.156
# Mean RMSD: 0.143
data_MOF--net-umb--node1-ESEHIV_clean_sbu_0--edge1-UVAHIK_clean_linker_0
_symmetry_space_group_name_H-M    P1
_symmetry_Int_Tables_number       1
_symmetry_cell_setting            triclinic
loop_
_symmetry_equiv_pos_as_xyz
'x, y, z'
_cell_length_a     64.268611
_cell_length_b     67.96745
_cell_length_c     52.308718
_cell_angle_alpha  90.09596
_cell_angle_beta   89.951586
_cell_angle_gamma 118.07058
loop_
_atom_site_label
_atom_site_type_symbol
_atom_site_fract_x
_atom_site_fract_y
_atom_site_fract_z
_atom_type_partial_charge
Cu0 Cu 0.57389 0.18745 0.33064 0.0
N1 N 0.60103 0.18538 0.32216 0.0
N2 N 0.63886 0.19572 0.31394 0.0
C3 C 0.62223 0.20242 0.31629 0.0
C4 C 0.62768 0.17358 0.31825 0.0
C5 C 0.60432 0.16723 0.32317 0.0
O6 O 0.57321 0.21089 0.30952 0.0
C7 C 0.59275 0.2071 0.37917 0.0
O8 O 0.61108 0.22099 0.36577 0.0
H9 H 0.62568 0.21961 0.31537 0.0
H10 H 0.591 0.15063 0.3281 0.0
N11 N 0.54818 0.15979 0.32349 0.0
N12 N 0.52758 0.12262 0.32229 0.0
C13 C 0.54443 0.14052 0.33448 0.0
C14 C 0.53277 0.15396 0.30397 0.0
C15 C 0.51992 0.13098 0.30327 0.0
C16 C 0.55551 0.21444 0.30734 0.0
O17 O 0.53661 0.20264 0.32118 0.0
H18 H 0.55491 0.13964 0.35018 0.0
H19 H 0.53207 0.16546 0.29017 0.0
O20 O 0.57457 0.19259 0.36748 0.0
H21 H 0.63596 0.16292 0.31866 0.0
H22 H 0.50734 0.12119 0.28867 0.0
Cu23 Cu 0.34721 0.54725 0.68211 0.0
N24 N 0.32167 0.53926 0.70389 0.0
N25 N 0.3084 0.55211 0.73592 0.0
C26 C 0.31659 0.55532 0.71175 0.0
C27 C 0.30744 0.53269 0.7433 0.0
C28 C 0.31553 0.52472 0.72343 0.0
O29 O 0.34062 0.55764 0.64978 0.0
C30 C 0.37933 0.5616 0.72145 0.0
O31 O 0.36956 0.53985 0.72399 0.0
H32 H 0.3233 0.57118 0.70196 0.0
H33 H 0.32033 0.5115 0.72489 0.0
N34 N 0.35327 0.52345 0.67525 0.0
N35 N 0.37408 0.50556 0.66675 0.0
C36 C 0.3746 0.52554 0.6695 0.0
C37 C 0.33858 0.50139 0.67603 0.0
C38 C 0.35138 0.49029 0.6708 0.0
C39 C 0.32396 0.54272 0.6366 0.0
O40 O 0.3126 0.52246 0.64596 0.0
H41 H 0.39034 0.5415 0.66841 0.0
H42 H 0.31997 0.49391 0.68043 0.0
O43 O 0.37333 0.56957 0.70241 0.0
H44 H 0.30433 0.52641 0.7627 0.0
H45 H 0.34447 0.47238 0.67018 0.0
Cu46 Cu 0.83125 0.38381 0.9864 0.0
N47 N 0.82518 0.37516 1.02079 0.0
N48 N 0.81924 0.377 0.06281 0.0
C49 C 0.82542 0.3882 0.04039 0.0
C50 C 0.81497 0.35605 0.05698 0.0
C51 C 0.81864 0.35498 0.0311 0.0
O52 O 0.86471 0.40422 0.98187 0.0
C53 C 0.8195 0.41873 0.98602 0.0
O54 O 0.84047 0.43016 0.99634 0.0
H55 H 0.82949 0.40543 0.0381 0.0
H56 H 0.81649 0.34046 1.02051 0.0
N57 N 0.822 0.35909 0.96464 0.0
N58 N 0.80482 0.33452 0.93284 0.0
C59 C 0.80545 0.35196 0.94603 0.0
C60 C 0.83203 0.34566 0.96324 0.0
C61 C 0.82153 0.33054 0.94371 0.0
C62 C 0.88037 0.40109 0.99334 0.0
O63 O 0.87372 0.38353 1.0081 0.0
H64 H 0.79465 0.35985 0.94174 0.0
H65 H 0.84627 0.34701 0.97535 0.0
O66 O 0.81283 0.39878 0.97881 0.0
H67 H 0.80969 0.34245 0.07043 0.0
H68 H 0.82589 0.31761 0.93797 0.0
Cu69 Cu 0.45324 0.83227 0.34123 0.0
N70 N 0.42321 0.82906 0.3356 0.0
N71 N 0.38404 0.81351 0.33785 0.0
C72 C 0.40324 0.81087 0.3421 0.0
C73 C 0.39215 0.83419 0.32818 0.0
C74 C 0.41642 0.84372 0.3266 0.0
O75 O 0.45591 0.81013 0.31949 0.0
C76 C 0.44511 0.81064 0.39033 0.0
O77 O 0.43473 0.7918 0.37756 0.0
H78 H 0.40285 0.79624 0.35065 0.0
H79 H 0.42818 0.86028 0.31973 0.0
N80 N 0.47529 0.86115 0.33198 0.0
N81 N 0.49199 0.89815 0.32776 0.0
C82 C 0.47439 0.87989 0.33854 0.0
C83 C 0.49428 0.86778 0.31673 0.0
C84 C 0.50471 0.89067 0.31417 0.0
C85 C 0.47372 0.8068 0.31708 0.0
O86 O 0.49235 0.81804 0.33152 0.0
H87 H 0.46086 0.88008 0.35072 0.0
H88 H 0.49982 0.85675 0.30756 0.0
O89 O 0.45545 0.82894 0.37807 0.0
H90 H 0.38136 0.84185 0.3228 0.0
H91 H 0.51987 0.90089 0.30244 0.0
Cu92 Cu 0.6197 0.4476 0.66253 0.0
N93 N 0.5963 0.41862 0.65616 0.0
N94 N 0.57335 0.3819 0.66068 0.0
C95 C 0.59264 0.40021 0.66911 0.0
C96 C 0.56459 0.38925 0.64163 0.0
C97 C 0.57877 0.41189 0.63893 0.0
O98 O 0.64727 0.45425 0.6414 0.0
C99 C 0.6335 0.44181 0.71353 0.0
O100 O 0.64449 0.43181 0.70283 0.0
H101 H 0.60412 0.40031 0.6842 0.0
H102 H 0.57631 0.42277 0.62558 0.0
N103 N 0.60779 0.46648 0.6523 0.0
N104 N 0.58231 0.47981 0.64671 0.0
C105 C 0.58671 0.46462 0.65883 0.0
C106 C 0.61722 0.48344 0.63558 0.0
C107 C 0.60156 0.49176 0.63212 0.0
C108 C 0.65366 0.43976 0.63524 0.0
O109 O 0.64342 0.42009 0.64623 0.0
H110 H 0.5748 0.45214 0.672 0.0
H111 H 0.63401 0.48896 0.62609 0.0
O112 O 0.62414 0.45077 0.69945 0.0
H113 H 0.54891 0.37915 0.63057 0.0
H114 H 0.60388 0.50505 0.6192 0.0
Cu115 Cu 0.16395 0.60785 0.99006 0.0
N116 N 0.16061 0.61676 0.02307 0.0
N117 N 0.16245 0.61878 0.06582 0.0
C118 C 0.16641 0.60967 0.04463 0.0
C119 C 0.15356 0.63203 0.0572 0.0
C120 C 0.1525 0.63079 0.03079 0.0
O121 O 0.1345 0.58167 0.98148 0.0
C122 C 0.2089 0.61673 1.00235 0.0
O123 O 0.20943 0.63566 1.00878 0.0
H124 H 0.17329 0.59788 0.04471 0.0
H125 H 0.14638 0.63955 1.01813 0.0
N126 N 0.16975 0.62991 0.96549 0.0
N127 N 0.18497 0.65233 0.93165 0.0
C128 C 0.1886 0.64017 0.94987 0.0
C129 C 0.15383 0.63592 0.95691 0.0
C130 C 0.16312 0.64968 0.93604 0.0
C131 C 0.12635 0.56391 0.99472 0.0
O132 O 0.1391 0.56253 1.01357 0.0
H133 H 0.20407 0.63776 0.9509 0.0
H134 H 0.13626 0.62987 0.96463 0.0
O135 O 0.19044 0.60163 0.99179 0.0
H136 H 0.14857 0.64219 0.06905 0.0
H137 H 0.15431 0.6568 0.92459 0.0
Cu138 Cu 0.80942 0.45339 0.36704 0.0
N139 N 0.80869 0.42684 0.37666 0.0
N140 N 0.80544 0.39282 0.37297 0.0
C141 C 0.80622 0.41053 0.36053 0.0
C142 C 0.80782 0.39846 0.398 0.0
C143 C 0.80987 0.41953 0.4002 0.0
O144 O 0.78984 0.45942 0.39093 0.0
C145 C 0.81182 0.46206 0.31321 0.0
O146 O 0.83018 0.48114 0.319 0.0
H147 H 0.80474 0.41164 0.34005 0.0
H148 H 0.81152 0.42867 0.41769 0.0
N149 N 0.84054 0.47536 0.37033 0.0
N150 N 0.87964 0.4907 0.37357 0.0
C151 C 0.85932 0.47169 0.37032 0.0
C152 C 0.84914 0.49744 0.37378 0.0
C153 C 0.87338 0.50702 0.37564 0.0
C154 C 0.76926 0.44444 0.39701 0.0
O155 O 0.75996 0.42538 0.38459 0.0
H156 H 0.85808 0.45536 0.36778 0.0
H157 H 0.83852 0.50591 0.37494 0.0
O158 O 0.79948 0.44921 0.33118 0.0
H159 H 0.80711 0.38781 0.4137 0.0
H160 H 0.88539 0.52451 0.37875 0.0
Cu161 Cu 0.38313 0.81075 0.70878 0.0
N162 N 0.4014 0.79913 0.72335 0.0
N163 N 0.40859 0.77432 0.74423 0.0
C164 C 0.39333 0.78245 0.74047 0.0
C165 C 0.42725 0.78666 0.72906 0.0
C166 C 0.42278 0.80204 0.71623 0.0
O167 O 0.35252 0.79516 0.72571 0.0
C168 C 0.38642 0.82148 0.65532 0.0
O169 O 0.38836 0.84061 0.66329 0.0
H170 H 0.37573 0.77513 0.74838 0.0
H171 H 0.43361 0.8135 0.70157 0.0
N172 N 0.39569 0.84088 0.71745 0.0
N173 N 0.41919 0.87757 0.722 0.0
C174 C 0.41717 0.85815 0.71265 0.0
C175 C 0.3839 0.84958 0.73044 0.0
C176 C 0.39826 0.87211 0.73329 0.0
C177 C 0.33756 0.77472 0.72274 0.0
O178 O 0.34054 0.76324 0.70419 0.0
H179 H 0.43077 0.85653 0.70207 0.0
H180 H 0.36602 0.84013 0.73738 0.0
O181 O 0.38269 0.80624 0.67164 0.0
H182 H 0.44242 0.78398 0.72635 0.0
H183 H 0.39366 0.88349 0.74322 0.0
Cu184 Cu 0.56 0.39734 0.04886 0.0
N185 N 0.54861 0.38897 1.01557 0.0
N186 N 0.54941 0.38908 0.97276 0.0
C187 C 0.56217 0.39328 0.99448 0.0
C188 C 0.52692 0.38171 0.98053 0.0
C189 C 0.52649 0.3817 1.00692 0.0
O190 O 0.55516 0.4227 0.05793 0.0
C191 C 0.61044 0.42214 0.0563 0.0
O192 O 0.60689 0.43597 0.071 0.0
H193 H 0.58121 0.40082 0.99508 0.0
H194 H 0.51134 0.37784 1.01889 0.0
N195 N 0.54466 0.37383 0.07211 0.0
N196 N 0.53787 0.34966 0.10423 0.0
C197 C 0.5544 0.36674 0.09042 0.0
C198 C 0.52126 0.36082 0.07436 0.0
C199 C 0.51702 0.34595 0.09403 0.0
C200 C 0.56414 0.44002 0.04387 0.0
O201 O 0.57763 0.44075 0.02461 0.0
H202 H 0.5732 0.37426 0.09381 0.0
H203 H 0.50816 0.36214 0.06259 0.0
O204 O 0.59297 0.40517 0.04689 0.0
H205 H 0.51194 0.3773 0.96805 0.0
H206 H 0.49983 0.33324 0.10014 0.0
Cu207 Cu 0.18067 0.56487 0.37744 0.0
N208 N 0.17463 0.58864 0.38397 0.0
N209 N 0.18112 0.62321 0.3924 0.0
C210 C 0.18966 0.60853 0.39399 0.0
C211 C 0.15987 0.61213 0.38107 0.0
C212 C 0.15585 0.59074 0.37602 0.0
O213 O 0.20663 0.56805 0.39933 0.0
C214 C 0.19997 0.58326 0.32936 0.0
O215 O 0.21265 0.60121 0.34303 0.0
H216 H 0.20733 0.61272 0.40024 0.0
H217 H 0.14096 0.57811 0.36577 0.0
N218 N 0.1531 0.53919 0.38542 0.0
N219 N 0.11397 0.51821 0.38645 0.0
C220 C 0.13274 0.53277 0.37281 0.0
C221 C 0.14724 0.52785 0.40759 0.0
C222 C 0.12308 0.51475 0.4082 0.0
C223 C 0.21084 0.55201 0.40467 0.0
O224 O 0.19844 0.53265 0.39339 0.0
H225 H 0.13163 0.54024 0.35496 0.0
H226 H 0.15932 0.53058 0.42321 0.0
O227 O 0.18643 0.56518 0.34083 0.0
H228 H 0.14874 0.61937 0.37548 0.0
H229 H 0.1129 0.50532 0.4245 0.0
Cu230 Cu 0.62261 0.16835 0.69786 0.0
N231 N 0.59415 0.16728 0.70768 0.0
N232 N 0.56867 0.18039 0.71484 0.0
C233 C 0.59157 0.18524 0.71376 0.0
C234 C 0.55632 0.15847 0.70936 0.0
C235 C 0.57208 0.15043 0.70491 0.0
O236 O 0.64686 0.18737 0.72227 0.0
C237 C 0.61269 0.16673 0.64631 0.0
O238 O 0.59576 0.14749 0.65418 0.0
H239 H 0.60621 0.20193 0.71503 0.0
H240 H 0.56766 0.13392 0.69808 0.0
N241 N 0.61989 0.13967 0.69823 0.0
N242 N 0.60437 0.10265 0.70245 0.0
C243 C 0.60313 0.12121 0.70958 0.0
C244 C 0.63251 0.13266 0.6839 0.0
C245 C 0.62303 0.10987 0.68647 0.0
C246 C 0.65835 0.20856 0.72091 0.0
O247 O 0.65511 0.21868 0.70112 0.0
H248 H 0.58989 0.1213 0.72225 0.0
H249 H 0.64682 0.14325 0.67138 0.0
O250 O 0.62806 0.17927 0.66254 0.0
H251 H 0.53737 0.14924 0.70719 0.0
H252 H 0.62858 0.09934 0.67613 0.0
Cu253 Cu 0.4704 0.63709 0.04348 0.0
N254 N 0.4783 0.6484 1.01025 0.0
N255 N 0.47573 0.65006 0.96769 0.0
C256 C 0.46899 0.63682 0.98859 0.0
C257 C 0.48991 0.67079 0.97661 0.0
C258 C 0.49146 0.66971 1.00287 0.0
O259 O 0.47948 0.61377 0.04877 0.0
C260 C 0.42336 0.61611 0.06448 0.0
O261 O 0.43267 0.6156 0.08665 0.0
H262 H 0.45658 0.6192 0.98834 0.0
H263 H 0.50085 0.68359 1.01573 0.0
N264 N 0.48521 0.65988 0.06786 0.0
N265 N 0.49226 0.68291 0.10133 0.0
C266 C 0.4756 0.66673 0.08662 0.0
C267 C 0.50865 0.67227 0.07066 0.0
C268 C 0.51306 0.68643 0.09114 0.0
C269 C 0.49877 0.61566 0.03982 0.0
O270 O 0.51273 0.63377 0.02708 0.0
H271 H 0.45682 0.65968 0.08974 0.0
H272 H 0.52167 0.67094 0.0587 0.0
O273 O 0.4365 0.62439 0.04508 0.0
H274 H 0.49828 0.68572 0.96507 0.0
H275 H 0.53033 0.69846 0.09788 0.0
C276 C 0.57639 0.18962 0.42188 0.0
C277 C 0.59439 0.20659 0.40753 0.0
C278 C 0.57896 0.18792 0.44825 0.0
C279 C 0.62482 0.2046 0.49884 0.0
H280 H 0.57076 0.18331 0.54403 0.0
C281 C 0.6303 0.19371 0.60936 0.0
C282 C 0.61245 0.17364 0.61936 0.0
C283 C 0.62908 0.1999 0.58396 0.0
C284 C 0.58604 0.18919 0.53165 0.0
H285 H 0.62895 0.23551 0.41001 0.0
H286 H 0.63322 0.2328 0.45599 0.0
H287 H 0.56638 0.19036 0.49923 0.0
H288 H 0.57941 0.14432 0.61028 0.0
H289 H 0.57737 0.15505 0.5666 0.0
H290 H 0.6444 0.20328 0.53145 0.0
C291 C 0.61729 0.22051 0.44679 0.0
C292 C 0.58351 0.19318 0.5059 0.0
C293 C 0.61474 0.22218 0.42039 0.0
C294 C 0.5935 0.15994 0.60338 0.0
C295 C 0.59219 0.16617 0.57827 0.0
C296 C 0.62738 0.20071 0.5247 0.0
C297 C 0.59956 0.20319 0.46107 0.0
C298 C 0.60275 0.20056 0.48898 0.0
C299 C 0.60984 0.18626 0.56822 0.0
C300 C 0.6079 0.19254 0.54132 0.0
H301 H 0.56053 0.17723 0.41264 0.0
H302 H 0.56504 0.17416 0.45844 0.0
H303 H 0.64001 0.21005 0.48641 0.0
H304 H 0.64512 0.20466 0.62113 0.0
H305 H 0.64295 0.21552 0.5768 0.0
C306 C 0.40442 0.5664 0.75944 0.0
C307 C 0.39425 0.57563 0.74269 0.0
C308 C 0.41461 0.57695 0.78239 0.0
C309 C 0.44001 0.62874 0.81915 0.0
H310 H 0.41612 0.58861 0.87704 0.0
C311 C 0.46556 0.65836 0.92466 0.0
C312 C 0.46797 0.64354 0.94166 0.0
C313 C 0.457 0.6516 0.89979 0.0
C314 C 0.42331 0.60004 0.86114 0.0
H315 H 0.38795 0.60389 0.73635 0.0
H316 H 0.40643 0.62275 0.77672 0.0
H317 H 0.40143 0.57501 0.83438 0.0
H318 H 0.46418 0.61031 0.94546 0.0
H319 H 0.44987 0.59865 0.90214 0.0
H320 H 0.4624 0.65367 0.84591 0.0
C321 C 0.40627 0.60719 0.77187 0.0
C322 C 0.41474 0.59224 0.83666 0.0
C323 C 0.39585 0.59648 0.74874 0.0
C324 C 0.46213 0.62199 0.93301 0.0
C325 C 0.45382 0.6153 0.90813 0.0
C326 C 0.44884 0.63655 0.84375 0.0
C327 C 0.41503 0.59709 0.78928 0.0
C328 C 0.42322 0.60636 0.81532 0.0
C329 C 0.45079 0.62988 0.89123 0.0
C330 C 0.44084 0.62218 0.86505 0.0
H331 H 0.40368 0.55046 0.75528 0.0
H332 H 0.42163 0.56899 0.79516 0.0
H333 H 0.44688 0.63998 0.80303 0.0
H334 H 0.46967 0.67501 0.9308 0.0
H335 H 0.4547 0.66325 0.88752 0.0
C336 C 0.8216 0.46844 0.26652 0.0
C337 C 0.80829 0.454 0.2863 0.0
C338 C 0.82104 0.46035 0.24177 0.0
C339 C 0.7883 0.41167 0.19857 0.0
H340 H 0.84875 0.43495 0.16424 0.0
C341 C 0.80257 0.37122 0.10672 0.0
C342 C 0.81721 0.38559 0.08754 0.0
C343 C 0.80056 0.37959 0.1306 0.0
C344 C 0.83166 0.42843 0.17336 0.0
H345 H 0.78322 0.41975 0.2952 0.0
H346 H 0.78236 0.4056 0.25209 0.0
H347 H 0.84623 0.44956 0.20594 0.0
H348 H 0.84139 0.42014 0.07883 0.0
H349 H 0.83764 0.4347 0.12012 0.0
H350 H 0.77382 0.39037 0.16595 0.0
C351 C 0.7931 0.42327 0.25564 0.0
C352 C 0.83019 0.43686 0.19733 0.0
C353 C 0.79359 0.4314 0.28042 0.0
C354 C 0.82978 0.40855 0.09294 0.0
C355 C 0.82782 0.4169 0.1168 0.0
C356 C 0.78978 0.40321 0.17455 0.0
C357 C 0.80724 0.43755 0.2361 0.0
C358 C 0.8085 0.42865 0.21029 0.0
C359 C 0.81322 0.40255 0.136 0.0
C360 C 0.81149 0.4115 0.1616 0.0
H361 H 0.83301 0.48597 0.27028 0.0
H362 H 0.83175 0.47196 0.22714 0.0
H363 H 0.77126 0.40509 0.20781 0.0
H364 H 0.79242 0.35349 0.10326 0.0
H365 H 0.78933 0.36799 0.14496 0.0
C366 C 0.43058 0.79091 0.43246 0.0
C367 C 0.44183 0.8109 0.41851 0.0
C368 C 0.42539 0.7911 0.45849 0.0
C369 C 0.43905 0.82914 0.51509 0.0
H370 H 0.37975 0.7824 0.54083 0.0
C371 C 0.39975 0.83715 0.61137 0.0
C372 C 0.39104 0.81872 0.62798 0.0
C373 C 0.40593 0.83529 0.58617 0.0
C374 C 0.39647 0.79546 0.534 0.0
H375 H 0.45673 0.84684 0.4213 0.0
H376 H 0.44732 0.84719 0.46623 0.0
H377 H 0.39122 0.78099 0.49662 0.0
H378 H 0.38146 0.78364 0.63069 0.0
H379 H 0.39193 0.78032 0.58641 0.0
H380 H 0.44393 0.84388 0.55231 0.0
C381 C 0.44288 0.8313 0.45735 0.0
C382 C 0.40314 0.79464 0.50863 0.0
C383 C 0.44823 0.83111 0.43142 0.0
C384 C 0.38809 0.79818 0.61845 0.0
C385 C 0.39404 0.79626 0.59305 0.0
C386 C 0.43226 0.83007 0.54032 0.0
C387 C 0.43116 0.8113 0.47127 0.0
C388 C 0.42448 0.81156 0.49871 0.0
C389 C 0.40337 0.8149 0.57672 0.0
C390 C 0.41081 0.81335 0.55006 0.0
H391 H 0.42543 0.77502 0.42318 0.0
H392 H 0.41677 0.77537 0.46855 0.0
H393 H 0.45583 0.84224 0.50849 0.0
H394 H 0.40228 0.85325 0.61796 0.0
H395 H 0.41274 0.8499 0.57401 0.0
C396 C 0.57885 0.39275 0.9399 0.0
C397 C 0.55841 0.39406 0.94694 0.0
C398 C 0.58787 0.39808 0.91501 0.0
C399 C 0.57124 0.40658 0.84895 0.0
H400 H 0.63881 0.43567 0.83754 0.0
C401 C 0.61187 0.44536 0.75176 0.0
C402 C 0.62838 0.43942 0.74143 0.0
C403 C 0.60458 0.44053 0.77722 0.0
C404 C 0.61989 0.42743 0.84043 0.0
H405 H 0.53179 0.40253 0.93342 0.0
H406 H 0.54769 0.41234 0.89041 0.0
H407 H 0.62338 0.42561 0.88095 0.0
H408 H 0.65091 0.4246 0.7503 0.0
H409 H 0.63845 0.41656 0.79502 0.0
H410 H 0.56786 0.40892 0.80849 0.0
C411 C 0.55644 0.40651 0.90376 0.0
C412 C 0.61099 0.42154 0.86532 0.0
C413 C 0.54728 0.40092 0.92852 0.0
C414 C 0.63818 0.42941 0.7576 0.0
C415 C 0.63108 0.42482 0.78323 0.0
C416 C 0.58015 0.41272 0.82418 0.0
C417 C 0.57684 0.40513 0.89656 0.0
C418 C 0.5865 0.41109 0.86998 0.0
C419 C 0.61379 0.42988 0.79314 0.0
C420 C 0.60457 0.42328 0.81962 0.0
H421 H 0.58771 0.38733 0.9536 0.0
H422 H 0.60335 0.39641 0.9102 0.0
H423 H 0.5523 0.39808 0.85151 0.0
H424 H 0.60391 0.45308 0.73995 0.0
H425 H 0.59149 0.44492 0.78439 0.0
C426 C 0.18141 0.56746 0.28674 0.0
C427 C 0.1987 0.58505 0.30114 0.0
C428 C 0.17835 0.57025 0.26071 0.0
C429 C 0.20719 0.60608 0.20438 0.0
H430 H 0.143 0.58432 0.18038 0.0
C431 C 0.18468 0.60906 0.09765 0.0
C432 C 0.16706 0.61513 0.09198 0.0
C433 C 0.18891 0.6051 0.12288 0.0
C434 C 0.16104 0.59062 0.1868 0.0
H435 H 0.2269 0.61911 0.2991 0.0
H436 H 0.22161 0.62392 0.25385 0.0
H437 H 0.15014 0.57755 0.2245 0.0
H438 H 0.14012 0.62181 0.1086 0.0
H439 H 0.14764 0.61512 0.15267 0.0
H440 H 0.21809 0.61951 0.1668 0.0
C441 C 0.21045 0.60793 0.26261 0.0
C442 C 0.16514 0.58649 0.21202 0.0
C443 C 0.21343 0.60518 0.28863 0.0
C444 C 0.1539 0.6173 0.11226 0.0
C445 C 0.15805 0.61322 0.13751 0.0
C446 C 0.20309 0.61012 0.17911 0.0
C447 C 0.19258 0.59065 0.24841 0.0
C448 C 0.18826 0.59425 0.22119 0.0
C449 C 0.17559 0.60703 0.14315 0.0
C450 C 0.17996 0.60254 0.17001 0.0
H451 H 0.16973 0.55173 0.29572 0.0
H452 H 0.16465 0.55648 0.25027 0.0
H453 H 0.22521 0.61217 0.21072 0.0
H454 H 0.19539 0.60752 0.0826 0.0
H455 H 0.20243 0.60021 0.12645 0.0
C456 C 0.80492 0.35615 0.37543 0.0
C457 C 0.79994 0.37141 0.36208 0.0
C458 C 0.79685 0.33443 0.36622 0.0
C459 C 0.76669 0.29725 0.3104 0.0
H460 H 0.72992 0.25528 0.36319 0.0
C461 C 0.6725 0.22987 0.29797 0.0
C462 C 0.66383 0.21003 0.31204 0.0
C463 C 0.6962 0.24572 0.29964 0.0
C464 C 0.74054 0.26652 0.3482 0.0
H465 H 0.78358 0.37591 0.32779 0.0
H466 H 0.76955 0.3385 0.3121 0.0
H467 H 0.76071 0.29193 0.37522 0.0
H468 H 0.67336 0.19045 0.33753 0.0
H469 H 0.71487 0.21837 0.34075 0.0
H470 H 0.7449 0.2723 0.2834 0.0
C471 C 0.78002 0.34325 0.32941 0.0
C472 C 0.75828 0.2876 0.35512 0.0
C473 C 0.78803 0.36485 0.33857 0.0
C474 C 0.67962 0.2056 0.32641 0.0
C475 C 0.70332 0.22157 0.32833 0.0
C476 C 0.74879 0.27621 0.30349 0.0
C477 C 0.78368 0.32756 0.34348 0.0
C478 C 0.77059 0.30364 0.33628 0.0
C479 C 0.71163 0.2421 0.31566 0.0
C480 C 0.73473 0.26113 0.32235 0.0
H481 H 0.8145 0.36079 0.39331 0.0
H482 H 0.8002 0.32279 0.37736 0.0
H483 H 0.7763 0.30907 0.29545 0.0
H484 H 0.6607 0.23353 0.28656 0.0
H485 H 0.70201 0.26147 0.28986 0.0
C486 C 0.38674 0.74602 0.77709 0.0
C487 C 0.40291 0.7535 0.75671 0.0
C488 C 0.37728 0.72405 0.78575 0.0
C489 C 0.38181 0.67145 0.77956 0.0
H490 H 0.31349 0.64344 0.78163 0.0
C491 C 0.30321 0.58498 0.7442 0.0
C492 C 0.31168 0.57039 0.75217 0.0
C493 C 0.3123 0.60632 0.75469 0.0
C494 C 0.33256 0.651 0.78137 0.0
H495 H 0.4231 0.74421 0.73072 0.0
H496 H 0.40661 0.70597 0.74564 0.0
H497 H 0.33624 0.68391 0.78125 0.0
H498 H 0.3351 0.56599 0.77857 0.0
H499 H 0.35083 0.60323 0.79728 0.0
H500 H 0.37804 0.63853 0.77772 0.0
C501 C 0.40134 0.71707 0.75518 0.0
C502 C 0.34566 0.67424 0.78141 0.0
C503 C 0.41083 0.73906 0.74656 0.0
C504 C 0.32795 0.57679 0.77242 0.0
C505 C 0.3372 0.59823 0.78284 0.0
C506 C 0.3687 0.64821 0.77947 0.0
C507 C 0.38379 0.70907 0.77421 0.0
C508 C 0.37041 0.68474 0.77951 0.0
C509 C 0.33024 0.61357 0.77326 0.0
C510 C 0.3439 0.63773 0.77936 0.0
H511 H 0.38063 0.75691 0.78559 0.0
H512 H 0.36416 0.71855 0.8008 0.0
H513 H 0.40085 0.67901 0.77849 0.0
H514 H 0.29094 0.58044 0.72838 0.0
H515 H 0.30669 0.61773 0.74663 0.0
C516 C 0.63746 0.41375 0.02963 0.0
C517 C 0.63452 0.42703 0.04846 0.0
C518 C 0.65986 0.4186 1.02102 0.0
C519 C 0.72167 0.4449 0.0395 0.0
H520 H 0.73069 0.43803 0.9673 0.0
C521 C 0.80656 0.44589 1.00249 0.0
C522 C 0.80213 0.4272 0.98734 0.0
C523 C 0.78861 0.4515 1.0074 0.0
C524 C 0.72848 0.44008 0.9875 0.0
H525 H 0.65293 0.45575 0.07318 0.0
H526 H 0.69243 0.46406 0.05825 0.0
H527 H 0.69417 0.43713 0.98182 0.0
H528 H 0.77594 0.40073 0.96402 0.0
H529 H 0.74474 0.4105 0.97253 0.0
H530 H 0.75557 0.44691 0.04531 0.0
C531 C 0.67719 0.44995 0.05016 0.0
C532 C 0.70759 0.43955 0.99581 0.0
C533 C 0.65462 0.44519 0.05869 0.0
C534 C 0.7799 0.41517 0.97585 0.0
C535 C 0.76204 0.42086 0.98062 0.0
C536 C 0.7426 0.4454 0.03117 0.0
C537 C 0.67997 0.43678 0.03106 0.0
C538 C 0.70363 0.44118 1.02198 0.0
C539 C 0.76598 0.43867 0.99705 0.0
C540 C 0.74587 0.44225 1.00518 0.0
H541 H 0.62241 0.39963 1.02127 0.0
H542 H 0.66144 0.40786 1.00668 0.0
H543 H 0.71906 0.44609 0.05979 0.0
H544 H 0.82353 0.45554 1.01159 0.0
H545 H 0.79223 0.46547 1.01989 0.0
C546 C 0.34458 0.8048 0.3544 0.0
C547 C 0.36026 0.79773 0.34437 0.0
C548 C 0.32259 0.78917 0.36395 0.0
C549 C 0.29425 0.73249 0.39028 0.0
H550 H 0.23472 0.73101 0.37395 0.0
C551 C 0.19516 0.66127 0.37617 0.0
C552 C 0.19478 0.64687 0.39557 0.0
C553 C 0.21247 0.68356 0.37609 0.0
C554 C 0.25123 0.73128 0.37881 0.0
H555 H 0.36469 0.76897 0.33455 0.0
H556 H 0.32644 0.74179 0.35081 0.0
H557 H 0.27166 0.76234 0.35938 0.0
H558 H 0.21008 0.64474 0.43153 0.0
H559 H 0.23977 0.68401 0.43219 0.0
H560 H 0.27432 0.701 0.40804 0.0
C561 C 0.33129 0.75933 0.35211 0.0
C562 C 0.27234 0.74929 0.37063 0.0
C563 C 0.35313 0.77485 0.34272 0.0
C564 C 0.21035 0.65558 0.41624 0.0
C565 C 0.22736 0.67798 0.41647 0.0
C566 C 0.27329 0.71455 0.39829 0.0
C567 C 0.31609 0.76633 0.36353 0.0
C568 C 0.29396 0.74954 0.37545 0.0
C569 C 0.22951 0.6919 0.39563 0.0
C570 C 0.25144 0.71328 0.39191 0.0
H571 H 0.34975 0.82239 0.35595 0.0
H572 H 0.31112 0.79497 0.37254 0.0
H573 H 0.31072 0.73254 0.39476 0.0
H574 H 0.18339 0.65486 0.35995 0.0
H575 H 0.21361 0.69363 0.35961 0.0
C576 C 0.57248 0.35497 0.69307 0.0
C577 C 0.56469 0.35929 0.66963 0.0
C578 C 0.56597 0.33317 0.70063 0.0
C579 C 0.54651 0.27756 0.67234 0.0
H580 H 0.54398 0.2604 0.74342 0.0
C581 C 0.54122 0.1938 0.69972 0.0
C582 C 0.56003 0.19642 0.71554 0.0
C583 C 0.53549 0.21113 0.69703 0.0
C584 C 0.54448 0.26494 0.7235 0.0
H585 H 0.54258 0.34358 0.63657 0.0
H586 H 0.53051 0.30564 0.65026 0.0
H587 H 0.54471 0.29571 0.73276 0.0
H588 H 0.58635 0.2184 0.74236 0.0
H589 H 0.57628 0.24871 0.73781 0.0
H590 H 0.54659 0.24694 0.66315 0.0
C591 C 0.54231 0.31922 0.66242 0.0
C592 C 0.54504 0.28519 0.71736 0.0
C593 C 0.54907 0.34108 0.65468 0.0
C594 C 0.57191 0.21607 0.72992 0.0
C595 C 0.56602 0.2333 0.72746 0.0
C596 C 0.54562 0.25722 0.67848 0.0
C597 C 0.55118 0.31501 0.68517 0.0
C598 C 0.5468 0.29208 0.69171 0.0
C599 C 0.54828 0.23127 0.71034 0.0
C600 C 0.54527 0.25101 0.70412 0.0
H601 H 0.58401 0.36839 0.70552 0.0
H602 H 0.57338 0.33069 0.71816 0.0
H603 H 0.54825 0.28237 0.65241 0.0
H604 H 0.53186 0.17892 0.68825 0.0
H605 H 0.52167 0.20913 0.6838 0.0
C606 C 0.23912 0.62109 0.03443 0.0
C607 C 0.228 0.61219 1.01103 0.0
C608 C 0.25763 0.61756 0.04294 0.0
C609 C 0.28981 0.58475 0.03024 0.0
H610 H 0.33997 0.63445 0.06604 0.0
C611 C 0.38689 0.60235 0.03813 0.0
C612 C 0.39796 0.6091 0.06206 0.0
C613 C 0.36377 0.59856 0.03466 0.0
C614 C 0.32593 0.62029 0.05643 0.0
H615 H 0.22698 0.59222 0.97836 0.0
H616 H 0.26043 0.58708 0.9924 0.0
H617 H 0.30474 0.63662 0.05371 0.0
H618 H 0.39329 0.61631 0.10138 0.0
H619 H 0.35289 0.6103 0.09508 0.0
H620 H 0.31217 0.56922 0.0317 0.0
C621 C 0.25441 0.59622 1.00467 0.0
C622 C 0.30562 0.62145 0.04938 0.0
C623 C 0.23538 0.59928 0.99645 0.0
C624 C 0.38514 0.61105 0.08277 0.0
C625 C 0.36212 0.6077 0.07915 0.0
C626 C 0.31042 0.58381 0.03689 0.0
C627 C 0.26598 0.60556 0.02793 0.0
C628 C 0.28726 0.60374 0.03611 0.0
C629 C 0.35144 0.60186 0.05493 0.0
C630 C 0.32867 0.60162 0.04996 0.0
H631 H 0.23335 0.63067 0.04633 0.0
H632 H 0.26543 0.62439 0.06133 0.0
H633 H 0.27596 0.57063 1.02045 0.0
H634 H 0.39636 0.60062 1.02187 0.0
H635 H 0.356 0.59424 1.01577 0.0
C636 C 0.50027 0.08211 0.32015 0.0
C637 C 0.52281 0.0998 0.32521 0.0
C638 C 0.49615 0.05998 0.32162 0.0
C639 C 0.5264 0.02647 0.3145 0.0
H640 H 0.47473 0.98117 0.35332 0.0
C641 C 0.51792 0.93887 0.32823 0.0
C642 C 0.49521 0.92058 0.32869 0.0
C643 C 0.52098 0.96065 0.32866 0.0
C644 C 0.48904 0.99349 0.34204 0.0
H645 H 0.55871 0.10818 0.33554 0.0
H646 H 0.55157 0.0697 0.33783 0.0
H647 H 0.47995 0.01914 0.35204 0.0
H648 H 0.45789 0.91067 0.3295 0.0
H649 H 0.46307 0.94854 0.3294 0.0
H650 H 0.53523 1.00099 0.30376 0.0
C651 C 0.53707 0.07292 0.33297 0.0
C652 C 0.49205 0.01526 0.34143 0.0
C653 C 0.54108 0.09494 0.33191 0.0
C654 C 0.47561 0.92448 0.32955 0.0
C655 C 0.47863 0.94623 0.32957 0.0
C656 C 0.52321 0.00468 0.31478 0.0
C657 C 0.51463 0.05523 0.32767 0.0
C658 C 0.51087 0.03198 0.32781 0.0
C659 C 0.50136 0.96465 0.3291 0.0
C660 C 0.50459 0.98788 0.3287 0.0
H661 H 0.48592 0.08543 0.31499 0.0
H662 H 0.47871 0.04661 0.31736 0.0
H663 H 0.54089 0.03901 0.30358 0.0
H664 H 0.53331 0.9363 0.32785 0.0
H665 H 0.53877 0.97433 0.32883 0.0
C666 C 0.41474 0.51824 0.65109 0.0
C667 C 0.394 0.50165 0.66231 0.0
C668 C 0.43459 0.51512 0.64826 0.0
C669 C 0.46176 0.48212 0.67438 0.0
H670 H 0.50246 0.50466 0.61507 0.0
C671 C 0.53965 0.46397 0.65601 0.0
C672 C 0.56105 0.48199 0.64805 0.0
C673 C 0.51905 0.46601 0.65723 0.0
C674 C 0.49136 0.49845 0.63184 0.0
H675 H 0.37787 0.46848 0.67881 0.0
H676 H 0.41225 0.46277 0.67319 0.0
H677 H 0.46645 0.5082 0.61737 0.0
H678 H 0.57741 0.51642 0.63535 0.0
H679 H 0.54137 0.51987 0.63722 0.0
H680 H 0.48664 0.47226 0.68873 0.0
C681 C 0.41328 0.47842 0.66704 0.0
C682 C 0.47073 0.50048 0.63318 0.0
C683 C 0.39343 0.48158 0.66996 0.0
C684 C 0.56125 0.50209 0.64123 0.0
C685 C 0.54059 0.50409 0.64231 0.0
C686 C 0.48231 0.47997 0.67295 0.0
C687 C 0.4342 0.49526 0.65643 0.0
C688 C 0.45573 0.49243 0.65453 0.0
C689 C 0.51929 0.48608 0.65037 0.0
C690 C 0.49737 0.4882 0.65172 0.0
H691 H 0.41576 0.53376 0.64458 0.0
H692 H 0.45044 0.52854 0.64021 0.0
H693 H 0.45087 0.4761 0.69131 0.0
H694 H 0.53863 0.44809 0.66093 0.0
H695 H 0.50282 0.45174 0.66316 0.0
C696 C 0.9228 0.41421 1.00456 0.0
C697 C 0.9058 0.41725 0.9907 0.0
C698 C 0.94674 0.42956 1.00263 0.0
C699 C 0.98712 0.48795 0.98421 0.0
H700 H 0.03422 0.46756 0.98574 0.0
C701 C 0.08678 0.54876 0.97328 0.0
C702 C 0.10185 0.54593 0.99066 0.0
C703 C 0.06311 0.5326 0.97108 0.0
C704 C 0.0213 0.47354 0.98545 0.0
H705 H 0.90076 0.4388 0.96367 0.0
H706 H 0.94259 0.46545 0.96002 0.0
H707 H 0.99247 0.44039 0.98587 0.0
H708 H 0.10394 0.52353 1.01882 0.0
H709 H 0.06275 0.49541 1.01496 0.0
H710 H 0.016 0.52112 0.9839 0.0
C711 C 0.93736 0.45133 0.9727 0.0
C712 C 0.99733 0.45796 0.98557 0.0
C713 C 0.91337 0.43597 0.97468 0.0
C714 C 0.09286 0.52627 1.00523 0.0
C715 C 0.06923 0.51007 1.00293 0.0
C716 C 0.0111 0.50353 0.98399 0.0
C717 C 0.95437 0.44836 0.98673 0.0
C718 C 0.97991 0.46495 0.98524 0.0
C719 C 0.05397 0.51316 0.98608 0.0
C720 C 0.02849 0.49653 0.98487 0.0
H721 H 0.91763 0.40004 1.01717 0.0
H722 H 0.95923 0.42688 1.01405 0.0
H723 H 0.97425 0.494 0.98431 0.0
H724 H 0.09311 0.56369 0.96173 0.0
H725 H 0.05192 0.53538 0.95768 0.0
C726 C 0.08428 0.52791 0.369 0.0
C727 C 0.08972 0.51292 0.38226 0.0
C728 C 0.0611 0.52424 0.36737 0.0
C729 C 0.99907 0.48229 0.37265 0.0
H730 H 0.98991 0.53336 0.38919 0.0
C731 C 0.90647 0.47532 0.38443 0.0
C732 C 0.90298 0.49285 0.37485 0.0
C733 C 0.92904 0.47719 0.38538 0.0
C734 C 0.99216 0.51901 0.38417 0.0
H735 H 0.07489 0.48182 0.40325 0.0
H736 H 0.03405 0.47533 0.40034 0.0
H737 H 0.02944 0.53703 0.38997 0.0
H738 H 0.92034 0.52597 0.35847 0.0
H739 H 0.95976 0.52919 0.35971 0.0
H740 H 0.9618 0.46434 0.36648 0.0
C741 C 0.04791 0.48994 0.39126 0.0
C742 C 0.0148 0.5211 0.3847 0.0
C743 C 0.07124 0.4937 0.39305 0.0
C744 C 0.92255 0.51232 0.36626 0.0
C745 C 0.94512 0.51415 0.36702 0.0
C746 C 0.97637 0.48023 0.37193 0.0
C747 C 0.04274 0.50547 0.37888 0.0
C748 C 0.01851 0.50282 0.3788 0.0
C749 C 0.94864 0.4966 0.37661 0.0
C750 C 0.97267 0.49861 0.37759 0.0
H751 H 0.09798 0.54306 0.36076 0.0
H752 H 0.05758 0.53633 0.35742 0.0
H753 H 0.00148 0.46799 0.36785 0.0
H754 H 0.89177 0.46024 0.39158 0.0
H755 H 0.93114 0.46353 0.39332 0.0
C756 C 0.56381 0.07396 0.71329 0.0
C757 C 0.58738 0.07974 0.70758 0.0
C758 C 0.54697 0.05166 0.71648 0.0
C759 C 0.53477 0.99435 0.69975 0.0
H760 H 0.48505 0.97804 0.75007 0.0
C761 C 0.46219 0.90276 0.717 0.0
C762 C 0.4391 0.89966 0.72026 0.0
C763 C 0.48141 0.92429 0.71626 0.0
C764 C 0.49873 0.98234 0.7358 0.0
H765 H 0.61177 0.06646 0.70157 0.0
H766 H 0.58237 0.0275 0.70725 0.0
H767 H 0.51664 0.01632 0.7482 0.0
H768 H 0.41822 0.91698 0.72414 0.0
H769 H 0.4515 0.95418 0.72303 0.0
H770 H 0.51664 0.96029 0.68728 0.0
C771 C 0.57687 0.04026 0.70885 0.0
C772 C 0.51684 0.00431 0.73471 0.0
C773 C 0.59374 0.0626 0.70563 0.0
C774 C 0.43572 0.91861 0.72226 0.0
C775 C 0.45486 0.94002 0.72161 0.0
C776 C 0.51663 0.97231 0.70089 0.0
C777 C 0.55322 0.03449 0.7141 0.0
C778 C 0.53491 0.0107 0.71642 0.0
C779 C 0.47796 0.94317 0.71884 0.0
C780 C 0.49819 0.96614 0.71866 0.0
H781 H 0.5581 0.08658 0.71447 0.0
H782 H 0.52887 0.04785 0.72007 0.0
H783 H 0.54825 0.99872 0.68524 0.0
H784 H 0.46549 0.88859 0.71557 0.0
H785 H 0.49902 0.92615 0.71422 0.0
C786 C 0.49143 0.57861 0.05796 0.0
C787 C 0.50541 0.59764 0.04327 0.0
C788 C 0.49782 0.56166 0.0609 0.0
C789 C 0.549 0.5504 0.05395 0.0
H790 H 0.50098 0.48848 0.05108 0.0
C791 C 0.57068 0.47857 0.03421 0.0
C792 C 0.5584 0.45855 0.04786 0.0
C793 C 0.56448 0.49564 0.03649 0.0
C794 C 0.51458 0.50569 0.05228 0.0
H795 H 0.53702 0.61363 1.02005 0.0
H796 H 0.54787 0.58408 0.02476 0.0
H797 H 0.48945 0.51793 0.04947 0.0
H798 H 0.53009 0.44092 0.07495 0.0
H799 H 0.51917 0.4708 0.07885 0.0
H800 H 0.57414 0.53814 0.05613 0.0
C801 C 0.53222 0.58237 0.03449 0.0
C802 C 0.50797 0.5226 0.05137 0.0
C803 C 0.52589 0.5993 0.03163 0.0
C804 C 0.53995 0.45615 0.06421 0.0
C805 C 0.53359 0.4732 0.06631 0.0
C806 C 0.55559 0.53351 0.05471 0.0
C807 C 0.51832 0.56331 0.04918 0.0
C808 C 0.52513 0.5452 0.05183 0.0
C809 C 0.54571 0.4931 0.05234 0.0
C810 C 0.5385 0.51096 0.05354 0.0
H811 H 0.47557 0.57681 0.06726 0.0
H812 H 0.48681 0.54736 0.07258 0.0
H813 H 0.56269 0.56757 0.05494 0.0
H814 H 0.58497 0.481 1.02144 0.0
H815 H 0.57402 0.51063 0.02524 0.0
C816 C 0.57515 0.24225 0.27191 0.0
C817 C 0.55558 0.23056 0.288 0.0
C818 C 0.57465 0.2565 0.25282 0.0
C819 C 0.54272 0.28758 0.23242 0.0
H820 H 0.56874 0.28686 0.16574 0.0
C821 C 0.52333 0.32681 0.14358 0.0
C822 C 0.54138 0.33791 0.12553 0.0
C823 C 0.52633 0.31496 0.16384 0.0
C824 C 0.56167 0.28754 0.18433 0.0
H825 H 0.52022 0.22502 0.29667 0.0
H826 H 0.51931 0.24965 0.26341 0.0
H827 H 0.57164 0.26414 0.2002 0.0
H828 H 0.5769 0.34514 0.115 0.0
H829 H 0.58228 0.3247 0.15057 0.0
H830 H 0.53258 0.31083 0.21653 0.0
C831 C 0.53518 0.24804 0.26568 0.0
C832 C 0.56334 0.27447 0.20415 0.0
C833 C 0.53566 0.23378 0.28473 0.0
C834 C 0.56266 0.33696 0.12855 0.0
C835 C 0.56565 0.32502 0.14884 0.0
C836 C 0.54106 0.30064 0.21262 0.0
C837 C 0.5546 0.2595 0.24931 0.0
C838 C 0.55371 0.27415 0.22844 0.0
C839 C 0.54749 0.3138 0.16676 0.0
C840 C 0.55031 0.30066 0.18821 0.0
H841 H 0.59082 0.24024 0.27386 0.0
H842 H 0.59007 0.26525 0.24085 0.0
H843 H 0.53549 0.28814 0.25095 0.0
H844 H 0.50681 0.32734 0.14219 0.0
H845 H 0.51183 0.30636 0.17701 0.0
C846 C 0.22992 0.53585 0.43377 0.0
C847 C 0.22763 0.5544 0.4255 0.0
C848 C 0.2441 0.53749 0.45479 0.0
C849 C 0.27043 0.57152 0.51299 0.0
H850 H 0.30277 0.53574 0.51658 0.0
C851 C 0.32337 0.56906 0.60278 0.0
C852 C 0.31731 0.54732 0.61097 0.0
C853 C 0.31564 0.57259 0.57891 0.0
C854 C 0.29385 0.54585 0.51587 0.0
H855 H 0.23915 0.58949 0.43249 0.0
H856 H 0.26425 0.59246 0.46887 0.0
H857 H 0.28374 0.53714 0.47685 0.0
H858 H 0.29898 0.51237 0.60017 0.0
H859 H 0.28594 0.51855 0.55884 0.0
H860 H 0.2805 0.58003 0.55222 0.0
C861 C 0.25471 0.57649 0.45939 0.0
C862 C 0.28282 0.54658 0.49312 0.0
C863 C 0.24043 0.57482 0.43837 0.0
C864 C 0.30392 0.52934 0.59456 0.0
C865 C 0.29656 0.53288 0.57072 0.0
C866 C 0.28166 0.57092 0.53574 0.0
C867 C 0.25652 0.55777 0.4681 0.0
C868 C 0.27043 0.55897 0.49151 0.0
C869 C 0.30214 0.55449 0.56262 0.0
C870 C 0.29299 0.55763 0.53762 0.0
H871 H 0.22026 0.51982 0.42443 0.0
H872 H 0.24469 0.52259 0.46109 0.0
H873 H 0.26092 0.58109 0.51264 0.0
H874 H 0.33362 0.58324 0.61501 0.0
H875 H 0.32027 0.58945 0.57314 0.0
C876 C 0.79845 0.31352 0.8923 0.0
C877 C 0.79018 0.32295 0.91112 0.0
C878 C 0.78425 0.30193 0.87148 0.0
C879 C 0.72231 0.2706 0.85086 0.0
H880 H 0.74904 0.27968 0.7827 0.0
C881 C 0.67391 0.2117 0.76577 0.0
C882 C 0.67413 0.2218 0.74223 0.0
C883 C 0.68793 0.22438 0.78622 0.0
C884 C 0.74126 0.277 0.80158 0.0
H885 H 0.76037 0.32751 0.92271 0.0
H886 H 0.73542 0.30708 0.88638 0.0
H887 H 0.77348 0.30158 0.81844 0.0
H888 H 0.6896 0.25324 0.7218 0.0
H889 H 0.71426 0.27525 0.75734 0.0
H890 H 0.69011 0.24592 0.834 0.0
C891 C 0.75297 0.3087 0.8878 0.0
C892 C 0.75533 0.28944 0.82212 0.0
C893 C 0.76732 0.32056 0.9085 0.0
C894 C 0.68899 0.24487 0.7396 0.0
C895 C 0.70321 0.2575 0.75996 0.0
C896 C 0.70831 0.25796 0.83036 0.0
C897 C 0.76127 0.29924 0.86901 0.0
C898 C 0.74605 0.28639 0.84704 0.0
C899 C 0.70274 0.24745 0.78361 0.0
C900 C 0.71761 0.26098 0.80545 0.0
H901 H 0.81603 0.31523 0.89353 0.0
H902 H 0.79116 0.29474 0.85751 0.0
H903 H 0.71465 0.2677 0.86982 0.0
H904 H 0.66266 0.194 0.76854 0.0
H905 H 0.68732 0.21605 0.80406 0.0
C906 C 0.5069 0.70363 0.14211 0.0
C907 C 0.48891 0.69374 0.12371 0.0
C908 C 0.50399 0.71444 0.16355 0.0
C909 C 0.46901 0.74106 0.18799 0.0
H910 H 0.49487 0.7366 0.25337 0.0
C911 C 0.4546 0.78069 0.2801 0.0
C912 C 0.47405 0.7917 0.29655 0.0
C913 C 0.45538 0.76761 0.25976 0.0
C914 C 0.48773 0.73822 0.23522 0.0
H915 H 0.45357 0.68753 0.11384 0.0
H916 H 0.44834 0.70608 0.15147 0.0
H917 H 0.49779 0.71584 0.21671 0.0
H918 H 0.50947 0.79717 0.30459 0.0
H919 H 0.51088 0.77448 0.26911 0.0
H920 H 0.45906 0.76352 0.20649 0.0
C921 C 0.46487 0.70567 0.14909 0.0
C922 C 0.48941 0.72629 0.21413 0.0
C923 C 0.46778 0.6948 0.12759 0.0
C924 C 0.49413 0.78891 0.29239 0.0
C925 C 0.49489 0.77578 0.27206 0.0
C926 C 0.46731 0.75297 0.20909 0.0
C927 C 0.48298 0.71569 0.16737 0.0
C928 C 0.48024 0.72766 0.19014 0.0
C929 C 0.47562 0.76512 0.25529 0.0
C930 C 0.47679 0.75185 0.23298 0.0
H931 H 0.52329 0.70295 0.14012 0.0
H932 H 0.51846 0.72214 0.17697 0.0
H933 H 0.46204 0.74283 0.16979 0.0
H934 H 0.43879 0.78236 0.28271 0.0
H935 H 0.44006 0.75939 0.24754 0.0
C936 C 0.6781 0.42849 0.6074 0.0
C937 C 0.66957 0.44363 0.61303 0.0
C938 C 0.6905 0.43038 0.58474 0.0
C939 C 0.7008 0.42798 0.52878 0.0
H940 H 0.74166 0.48463 0.4968 0.0
C941 C 0.73392 0.43145 0.42568 0.0
C942 C 0.75736 0.44708 0.42015 0.0
C943 C 0.72345 0.4324 0.44881 0.0
C944 C 0.73046 0.46864 0.50552 0.0
H945 H 0.66813 0.47312 0.59954 0.0
H946 H 0.68924 0.47613 0.55983 0.0
H947 H 0.72499 0.48399 0.53885 0.0
H948 H 0.78796 0.47637 0.43445 0.0
H949 H 0.76994 0.47775 0.47496 0.0
H950 H 0.70684 0.41259 0.49598 0.0
C951 C 0.68675 0.46298 0.57308 0.0
C952 C 0.72064 0.46827 0.52958 0.0
C953 C 0.67455 0.46122 0.59589 0.0
C954 C 0.76983 0.46412 0.438 0.0
C955 C 0.75943 0.46494 0.46127 0.0
C956 C 0.71072 0.42835 0.50486 0.0
C957 C 0.69448 0.4473 0.56691 0.0
C958 C 0.70562 0.44791 0.54156 0.0
C959 C 0.73621 0.44885 0.46722 0.0
C960 C 0.72561 0.44867 0.49278 0.0
H961 H 0.67476 0.41484 0.62026 0.0
H962 H 0.69668 0.41832 0.58106 0.0
H963 H 0.68904 0.41195 0.53706 0.0
H964 H 0.72374 0.4182 0.41231 0.0
H965 H 0.70537 0.42004 0.45233 0.0
C966 C 0.19073 0.66258 0.88591 0.0
C967 C 0.20018 0.66405 0.9105 0.0
C968 C 0.20532 0.67417 0.86536 0.0
C969 C 0.25714 0.72418 0.84839 0.0
H970 H 0.26279 0.69298 0.78888 0.0
C971 C 0.32426 0.77147 0.76828 0.0
C972 C 0.31997 0.76303 0.7432 0.0
C973 C 0.30927 0.75944 0.78835 0.0
C974 C 0.26114 0.70212 0.80502 0.0
H975 H 0.23221 0.67885 0.93292 0.0
H976 H 0.25775 0.69994 0.89702 0.0
H977 H 0.23749 0.67188 0.82434 0.0
H978 H 0.2961 0.73559 0.71942 0.0
H979 H 0.26903 0.71522 0.754 0.0
H980 H 0.2796 0.75444 0.82899 0.0
C981 C 0.23907 0.68948 0.89369 0.0
C982 C 0.24678 0.68992 0.82548 0.0
C983 C 0.22454 0.67739 0.91414 0.0
C984 C 0.2999 0.74254 0.73855 0.0
C985 C 0.28452 0.73072 0.75855 0.0
C986 C 0.27103 0.73644 0.8277 0.0
C987 C 0.22958 0.68791 0.8691 0.0
C988 C 0.24482 0.70083 0.84743 0.0
C989 C 0.28914 0.73879 0.78392 0.0
C990 C 0.27348 0.72564 0.8057 0.0
H991 H 0.17204 0.65228 0.88256 0.0
H992 H 0.19759 0.67272 0.8466 0.0
H993 H 0.25566 0.73299 0.865 0.0
H994 H 0.33981 0.78702 0.77267 0.0
H995 H 0.314 0.76617 0.80747 0.0
loop_
_geom_bond_atom_site_label_1
_geom_bond_atom_site_label_2
_geom_bond_distance
_geom_bond_site_symmetry_2
_ccdc_geom_bond_type
Cu0 N1 1.999 . S
Cu0 O6 1.974 . S
Cu0 N11 1.985 . S
Cu0 O20 1.959 . S
N1 Cu0 1.999 . S
N1 C3 1.263 . S
N1 C5 1.389 . S
N2 C3 1.358 . S
N2 C4 1.400 . S
C3 N1 1.263 . S
C3 N2 1.358 . S
C3 H9 0.930 . S
C4 N2 1.400 . S
C4 C5 1.351 . S
C4 H21 0.930 . S
C5 N1 1.389 . S
C5 C4 1.351 . S
C5 H10 0.930 . S
O6 Cu0 1.974 . S
O6 C16 1.282 . S
C7 O8 1.261 . S
C7 O20 1.251 . S
O8 C7 1.261 . S
H9 C3 0.930 . S
H10 C5 0.930 . S
N11 Cu0 1.985 . S
N11 C13 1.335 . S
N11 C14 1.390 . S
N12 C13 1.345 . S
N12 C15 1.336 . S
C13 N11 1.335 . S
C13 N12 1.345 . S
C13 H18 0.930 . S
C14 N11 1.390 . S
C14 C15 1.346 . S
C14 H19 0.930 . S
C15 N12 1.336 . S
C15 C14 1.346 . S
C15 H22 0.929 . S
C16 O6 1.282 . S
C16 O17 1.216 . S
O17 C16 1.216 . S
H18 C13 0.930 . S
H19 C14 0.930 . S
O20 Cu0 1.959 . S
O20 C7 1.251 . S
H21 C4 0.930 . S
H22 C15 0.929 . S
Cu23 N24 1.999 . S
Cu23 O29 1.974 . S
Cu23 N34 1.985 . S
Cu23 O43 1.959 . S
N24 Cu23 1.999 . S
N24 C26 1.263 . S
N24 C28 1.389 . S
N25 C26 1.358 . S
N25 C27 1.400 . S
C26 N24 1.263 . S
C26 N25 1.358 . S
C26 H32 0.930 . S
C27 N25 1.400 . S
C27 C28 1.351 . S
C27 H44 0.930 . S
C28 N24 1.389 . S
C28 C27 1.351 . S
C28 H33 0.930 . S
O29 Cu23 1.974 . S
O29 C39 1.282 . S
C30 O31 1.261 . S
C30 O43 1.251 . S
O31 C30 1.261 . S
H32 C26 0.930 . S
H33 C28 0.930 . S
N34 Cu23 1.985 . S
N34 C36 1.335 . S
N34 C37 1.390 . S
N35 C36 1.345 . S
N35 C38 1.336 . S
C36 N34 1.335 . S
C36 N35 1.345 . S
C36 H41 0.930 . S
C37 N34 1.390 . S
C37 C38 1.346 . S
C37 H42 0.930 . S
C38 N35 1.336 . S
C38 C37 1.346 . S
C38 H45 0.929 . S
C39 O29 1.282 . S
C39 O40 1.216 . S
O40 C39 1.216 . S
H41 C36 0.930 . S
H42 C37 0.930 . S
O43 Cu23 1.959 . S
O43 C30 1.251 . S
H44 C27 0.930 . S
H45 C38 0.929 . S
Cu46 N47 1.999 . S
Cu46 O52 1.974 . S
Cu46 N57 1.985 1_554 S
Cu46 O66 1.959 . S
N47 Cu46 1.999 . S
N47 C49 1.263 . S
N47 C51 1.389 . S
N48 C49 1.358 . S
N48 C50 1.400 . S
C49 N47 1.263 . S
C49 N48 1.358 . S
C49 H55 0.930 . S
C50 N48 1.400 . S
C50 C51 1.351 . S
C50 H67 0.930 . S
C51 N47 1.389 . S
C51 C50 1.351 . S
C51 H56 0.930 . S
O52 Cu46 1.974 . S
O52 C62 1.282 1_554 S
C53 O54 1.261 . S
C53 O66 1.251 1_556 S
O54 C53 1.261 . S
H55 C49 0.930 . S
H56 C51 0.930 . S
N57 Cu46 1.985 1_556 S
N57 C59 1.335 . S
N57 C60 1.390 . S
N58 C59 1.345 . S
N58 C61 1.336 . S
C59 N57 1.335 . S
C59 N58 1.345 . S
C59 H64 0.930 . S
C60 N57 1.390 . S
C60 C61 1.346 . S
C60 H65 0.930 . S
C61 N58 1.336 . S
C61 C60 1.346 . S
C61 H68 0.929 . S
C62 O52 1.282 1_556 S
C62 O63 1.216 . S
O63 C62 1.216 . S
H64 C59 0.930 . S
H65 C60 0.930 . S
O66 Cu46 1.959 . S
O66 C53 1.251 1_554 S
H67 C50 0.930 . S
H68 C61 0.929 . S
Cu69 N70 1.999 . S
Cu69 O75 1.974 . S
Cu69 N80 1.985 . S
Cu69 O89 1.959 . S
N70 Cu69 1.999 . S
N70 C72 1.263 . S
N70 C74 1.389 . S
N71 C72 1.358 . S
N71 C73 1.400 . S
C72 N70 1.263 . S
C72 N71 1.358 . S
C72 H78 0.930 . S
C73 N71 1.400 . S
C73 C74 1.351 . S
C73 H90 0.930 . S
C74 N70 1.389 . S
C74 C73 1.351 . S
C74 H79 0.930 . S
O75 Cu69 1.974 . S
O75 C85 1.282 . S
C76 O77 1.261 . S
C76 O89 1.251 . S
O77 C76 1.261 . S
H78 C72 0.930 . S
H79 C74 0.930 . S
N80 Cu69 1.985 . S
N80 C82 1.335 . S
N80 C83 1.390 . S
N81 C82 1.345 . S
N81 C84 1.336 . S
C82 N80 1.335 . S
C82 N81 1.345 . S
C82 H87 0.930 . S
C83 N80 1.390 . S
C83 C84 1.346 . S
C83 H88 0.930 . S
C84 N81 1.336 . S
C84 C83 1.346 . S
C84 H91 0.929 . S
C85 O75 1.282 . S
C85 O86 1.216 . S
O86 C85 1.216 . S
H87 C82 0.930 . S
H88 C83 0.930 . S
O89 Cu69 1.959 . S
O89 C76 1.251 . S
H90 C73 0.930 . S
H91 C84 0.929 . S
Cu92 N93 1.999 . S
Cu92 O98 1.974 . S
Cu92 N103 1.985 . S
Cu92 O112 1.959 . S
N93 Cu92 1.999 . S
N93 C95 1.263 . S
N93 C97 1.389 . S
N94 C95 1.358 . S
N94 C96 1.400 . S
C95 N93 1.263 . S
C95 N94 1.358 . S
C95 H101 0.930 . S
C96 N94 1.400 . S
C96 C97 1.351 . S
C96 H113 0.930 . S
C97 N93 1.389 . S
C97 C96 1.351 . S
C97 H102 0.930 . S
O98 Cu92 1.974 . S
O98 C108 1.282 . S
C99 O100 1.261 . S
C99 O112 1.251 . S
O100 C99 1.261 . S
H101 C95 0.930 . S
H102 C97 0.930 . S
N103 Cu92 1.985 . S
N103 C105 1.335 . S
N103 C106 1.390 . S
N104 C105 1.345 . S
N104 C107 1.336 . S
C105 N103 1.335 . S
C105 N104 1.345 . S
C105 H110 0.930 . S
C106 N103 1.390 . S
C106 C107 1.346 . S
C106 H111 0.930 . S
C107 N104 1.336 . S
C107 C106 1.346 . S
C107 H114 0.929 . S
C108 O98 1.282 . S
C108 O109 1.216 . S
O109 C108 1.216 . S
H110 C105 0.930 . S
H111 C106 0.930 . S
O112 Cu92 1.959 . S
O112 C99 1.251 . S
H113 C96 0.930 . S
H114 C107 0.929 . S
Cu115 N116 1.999 . S
Cu115 O121 1.974 . S
Cu115 N126 1.985 1_554 S
Cu115 O135 1.959 . S
N116 Cu115 1.999 . S
N116 C118 1.263 . S
N116 C120 1.389 . S
N117 C118 1.358 . S
N117 C119 1.400 . S
C118 N116 1.263 . S
C118 N117 1.358 . S
C118 H124 0.930 . S
C119 N117 1.400 . S
C119 C120 1.351 . S
C119 H136 0.930 . S
C120 N116 1.389 . S
C120 C119 1.351 . S
C120 H125 0.930 . S
O121 Cu115 1.974 . S
O121 C131 1.282 1_554 S
C122 O123 1.261 . S
C122 O135 1.251 1_556 S
O123 C122 1.261 . S
H124 C118 0.930 . S
H125 C120 0.930 . S
N126 Cu115 1.985 1_556 S
N126 C128 1.335 . S
N126 C129 1.390 . S
N127 C128 1.345 . S
N127 C130 1.336 . S
C128 N126 1.335 . S
C128 N127 1.345 . S
C128 H133 0.930 . S
C129 N126 1.390 . S
C129 C130 1.346 . S
C129 H134 0.930 . S
C130 N127 1.336 . S
C130 C129 1.346 . S
C130 H137 0.929 . S
C131 O121 1.282 1_556 S
C131 O132 1.216 . S
O132 C131 1.216 . S
H133 C128 0.930 . S
H134 C129 0.930 . S
O135 Cu115 1.959 . S
O135 C122 1.251 1_554 S
H136 C119 0.930 . S
H137 C130 0.929 . S
Cu138 N139 1.999 . S
Cu138 O144 1.974 . S
Cu138 N149 1.985 . S
Cu138 O158 1.959 . S
N139 Cu138 1.999 . S
N139 C141 1.263 . S
N139 C143 1.389 . S
N140 C141 1.358 . S
N140 C142 1.400 . S
C141 N139 1.263 . S
C141 N140 1.358 . S
C141 H147 0.930 . S
C142 N140 1.400 . S
C142 C143 1.351 . S
C142 H159 0.930 . S
C143 N139 1.389 . S
C143 C142 1.351 . S
C143 H148 0.930 . S
O144 Cu138 1.974 . S
O144 C154 1.282 . S
C145 O146 1.261 . S
C145 O158 1.251 . S
O146 C145 1.261 . S
H147 C141 0.930 . S
H148 C143 0.930 . S
N149 Cu138 1.985 . S
N149 C151 1.335 . S
N149 C152 1.390 . S
N150 C151 1.345 . S
N150 C153 1.336 . S
C151 N149 1.335 . S
C151 N150 1.345 . S
C151 H156 0.930 . S
C152 N149 1.390 . S
C152 C153 1.346 . S
C152 H157 0.930 . S
C153 N150 1.336 . S
C153 C152 1.346 . S
C153 H160 0.929 . S
C154 O144 1.282 . S
C154 O155 1.216 . S
O155 C154 1.216 . S
H156 C151 0.930 . S
H157 C152 0.930 . S
O158 Cu138 1.959 . S
O158 C145 1.251 . S
H159 C142 0.930 . S
H160 C153 0.929 . S
Cu161 N162 1.999 . S
Cu161 O167 1.974 . S
Cu161 N172 1.985 . S
Cu161 O181 1.959 . S
N162 Cu161 1.999 . S
N162 C164 1.263 . S
N162 C166 1.389 . S
N163 C164 1.358 . S
N163 C165 1.400 . S
C164 N162 1.263 . S
C164 N163 1.358 . S
C164 H170 0.930 . S
C165 N163 1.400 . S
C165 C166 1.351 . S
C165 H182 0.930 . S
C166 N162 1.389 . S
C166 C165 1.351 . S
C166 H171 0.930 . S
O167 Cu161 1.974 . S
O167 C177 1.282 . S
C168 O169 1.261 . S
C168 O181 1.251 . S
O169 C168 1.261 . S
H170 C164 0.930 . S
H171 C166 0.930 . S
N172 Cu161 1.985 . S
N172 C174 1.335 . S
N172 C175 1.390 . S
N173 C174 1.345 . S
N173 C176 1.336 . S
C174 N172 1.335 . S
C174 N173 1.345 . S
C174 H179 0.930 . S
C175 N172 1.390 . S
C175 C176 1.346 . S
C175 H180 0.930 . S
C176 N173 1.336 . S
C176 C175 1.346 . S
C176 H183 0.929 . S
C177 O167 1.282 . S
C177 O178 1.216 . S
O178 C177 1.216 . S
H179 C174 0.930 . S
H180 C175 0.930 . S
O181 Cu161 1.959 . S
O181 C168 1.251 . S
H182 C165 0.930 . S
H183 C176 0.929 . S
Cu184 N185 1.999 . S
Cu184 O190 1.974 . S
Cu184 N195 1.985 1_556 S
Cu184 O204 1.959 . S
N185 Cu184 1.999 . S
N185 C187 1.263 . S
N185 C189 1.389 . S
N186 C187 1.358 . S
N186 C188 1.400 . S
C187 N185 1.263 . S
C187 N186 1.358 . S
C187 H193 0.930 . S
C188 N186 1.400 . S
C188 C189 1.351 . S
C188 H205 0.930 . S
C189 N185 1.389 . S
C189 C188 1.351 . S
C189 H194 0.930 . S
O190 Cu184 1.974 . S
O190 C200 1.282 1_556 S
C191 O192 1.261 . S
C191 O204 1.251 1_554 S
O192 C191 1.261 . S
H193 C187 0.930 . S
H194 C189 0.930 . S
N195 Cu184 1.985 1_554 S
N195 C197 1.335 . S
N195 C198 1.390 . S
N196 C197 1.345 . S
N196 C199 1.336 . S
C197 N195 1.335 . S
C197 N196 1.345 . S
C197 H202 0.930 . S
C198 N195 1.390 . S
C198 C199 1.346 . S
C198 H203 0.930 . S
C199 N196 1.336 . S
C199 C198 1.346 . S
C199 H206 0.929 . S
C200 O190 1.282 1_554 S
C200 O201 1.216 . S
O201 C200 1.216 . S
H202 C197 0.930 . S
H203 C198 0.930 . S
O204 Cu184 1.959 . S
O204 C191 1.251 1_556 S
H205 C188 0.930 . S
H206 C199 0.929 . S
Cu207 N208 1.999 . S
Cu207 O213 1.974 . S
Cu207 N218 1.985 . S
Cu207 O227 1.959 . S
N208 Cu207 1.999 . S
N208 C210 1.263 . S
N208 C212 1.389 . S
N209 C210 1.358 . S
N209 C211 1.400 . S
C210 N208 1.263 . S
C210 N209 1.358 . S
C210 H216 0.930 . S
C211 N209 1.400 . S
C211 C212 1.351 . S
C211 H228 0.930 . S
C212 N208 1.389 . S
C212 C211 1.351 . S
C212 H217 0.930 . S
O213 Cu207 1.974 . S
O213 C223 1.282 . S
C214 O215 1.261 . S
C214 O227 1.251 . S
O215 C214 1.261 . S
H216 C210 0.930 . S
H217 C212 0.930 . S
N218 Cu207 1.985 . S
N218 C220 1.335 . S
N218 C221 1.390 . S
N219 C220 1.345 . S
N219 C222 1.336 . S
C220 N218 1.335 . S
C220 N219 1.345 . S
C220 H225 0.930 . S
C221 N218 1.390 . S
C221 C222 1.346 . S
C221 H226 0.930 . S
C222 N219 1.336 . S
C222 C221 1.346 . S
C222 H229 0.929 . S
C223 O213 1.282 . S
C223 O224 1.216 . S
O224 C223 1.216 . S
H225 C220 0.930 . S
H226 C221 0.930 . S
O227 Cu207 1.959 . S
O227 C214 1.251 . S
H228 C211 0.930 . S
H229 C222 0.929 . S
Cu230 N231 1.999 . S
Cu230 O236 1.974 . S
Cu230 N241 1.985 . S
Cu230 O250 1.959 . S
N231 Cu230 1.999 . S
N231 C233 1.263 . S
N231 C235 1.389 . S
N232 C233 1.358 . S
N232 C234 1.400 . S
C233 N231 1.263 . S
C233 N232 1.358 . S
C233 H239 0.930 . S
C234 N232 1.400 . S
C234 C235 1.351 . S
C234 H251 0.930 . S
C235 N231 1.389 . S
C235 C234 1.351 . S
C235 H240 0.930 . S
O236 Cu230 1.974 . S
O236 C246 1.282 . S
C237 O238 1.261 . S
C237 O250 1.251 . S
O238 C237 1.261 . S
H239 C233 0.930 . S
H240 C235 0.930 . S
N241 Cu230 1.985 . S
N241 C243 1.335 . S
N241 C244 1.390 . S
N242 C243 1.345 . S
N242 C245 1.336 . S
C243 N241 1.335 . S
C243 N242 1.345 . S
C243 H248 0.930 . S
C244 N241 1.390 . S
C244 C245 1.346 . S
C244 H249 0.930 . S
C245 N242 1.336 . S
C245 C244 1.346 . S
C245 H252 0.929 . S
C246 O236 1.282 . S
C246 O247 1.216 . S
O247 C246 1.216 . S
H248 C243 0.930 . S
H249 C244 0.930 . S
O250 Cu230 1.959 . S
O250 C237 1.251 . S
H251 C234 0.930 . S
H252 C245 0.929 . S
Cu253 N254 1.999 . S
Cu253 O259 1.974 . S
Cu253 N264 1.985 1_556 S
Cu253 O273 1.959 . S
N254 Cu253 1.999 . S
N254 C256 1.263 . S
N254 C258 1.389 . S
N255 C256 1.358 . S
N255 C257 1.400 . S
C256 N254 1.263 . S
C256 N255 1.358 . S
C256 H262 0.930 . S
C257 N255 1.400 . S
C257 C258 1.351 . S
C257 H274 0.930 . S
C258 N254 1.389 . S
C258 C257 1.351 . S
C258 H263 0.930 . S
O259 Cu253 1.974 . S
O259 C269 1.282 1_556 S
C260 O261 1.261 . S
C260 O273 1.251 1_554 S
O261 C260 1.261 . S
H262 C256 0.930 . S
H263 C258 0.930 . S
N264 Cu253 1.985 1_554 S
N264 C266 1.335 . S
N264 C267 1.390 . S
N265 C266 1.345 . S
N265 C268 1.336 . S
C266 N264 1.335 . S
C266 N265 1.345 . S
C266 H271 0.930 . S
C267 N264 1.390 . S
C267 C268 1.346 . S
C267 H272 0.930 . S
C268 N265 1.336 . S
C268 C267 1.346 . S
C268 H275 0.929 . S
C269 O259 1.282 1_554 S
C269 O270 1.216 . S
O270 C269 1.216 . S
H271 C266 0.930 . S
H272 C267 0.930 . S
O273 Cu253 1.959 . S
O273 C260 1.251 1_556 S
H274 C257 0.930 . S
H275 C268 0.929 . S
C276 C277 1.349 . S
C276 C278 1.327 . S
C276 H301 0.950 . S
C277 C276 1.349 . S
C277 C293 1.349 . S
C278 C276 1.327 . S
C278 C297 1.429 . S
C278 H302 0.950 . S
C279 C296 1.574 . S
C279 C298 1.368 . S
C279 H303 0.949 . S
H280 C284 0.949 . S
C281 C282 1.349 . S
C281 C283 1.327 . S
C281 H304 0.950 . S
C282 C281 1.349 . S
C282 C294 1.349 . S
C283 C281 1.327 . S
C283 C299 1.429 . S
C283 H305 0.950 . S
C284 H280 0.949 . S
C284 C292 1.574 . S
C284 C300 1.368 . S
H285 C293 0.950 . S
H286 C291 0.950 . S
H287 C292 0.949 . S
H288 C294 0.950 . S
H289 C295 0.950 . S
H290 C296 0.949 . S
C291 H286 0.950 . S
C291 C293 1.327 . S
C291 C297 1.429 . S
C292 C284 1.574 . S
C292 H287 0.949 . S
C292 C298 1.368 . S
C293 C277 1.349 . S
C293 H285 0.950 . S
C293 C291 1.327 . S
C294 C282 1.349 . S
C294 H288 0.950 . S
C294 C295 1.327 . S
C295 H289 0.950 . S
C295 C294 1.327 . S
C295 C299 1.429 . S
C296 C279 1.574 . S
C296 H290 0.949 . S
C296 C300 1.368 . S
C297 C278 1.429 . S
C297 C291 1.429 . S
C297 C298 1.523 . S
C298 C279 1.368 . S
C298 C292 1.368 . S
C298 C297 1.523 . S
C299 C283 1.429 . S
C299 C295 1.429 . S
C299 C300 1.523 . S
C300 C284 1.368 . S
C300 C296 1.368 . S
C300 C299 1.523 . S
H301 C276 0.950 . S
H302 C278 0.950 . S
H303 C279 0.949 . S
H304 C281 0.950 . S
H305 C283 0.950 . S
C306 C307 1.349 . S
C306 C308 1.327 . S
C306 H331 0.950 . S
C307 C306 1.349 . S
C307 C323 1.349 . S
C308 C306 1.327 . S
C308 C327 1.429 . S
C308 H332 0.950 . S
C309 C326 1.574 . S
C309 C328 1.368 . S
C309 H333 0.949 . S
H310 C314 0.949 . S
C311 C312 1.349 . S
C311 C313 1.327 . S
C311 H334 0.950 . S
C312 C311 1.349 . S
C312 C324 1.349 . S
C313 C311 1.327 . S
C313 C329 1.429 . S
C313 H335 0.950 . S
C314 H310 0.949 . S
C314 C322 1.574 . S
C314 C330 1.368 . S
H315 C323 0.950 . S
H316 C321 0.950 . S
H317 C322 0.949 . S
H318 C324 0.950 . S
H319 C325 0.950 . S
H320 C326 0.949 . S
C321 H316 0.950 . S
C321 C323 1.327 . S
C321 C327 1.429 . S
C322 C314 1.574 . S
C322 H317 0.949 . S
C322 C328 1.368 . S
C323 C307 1.349 . S
C323 H315 0.950 . S
C323 C321 1.327 . S
C324 C312 1.349 . S
C324 H318 0.950 . S
C324 C325 1.327 . S
C325 H319 0.950 . S
C325 C324 1.327 . S
C325 C329 1.429 . S
C326 C309 1.574 . S
C326 H320 0.949 . S
C326 C330 1.368 . S
C327 C308 1.429 . S
C327 C321 1.429 . S
C327 C328 1.523 . S
C328 C309 1.368 . S
C328 C322 1.368 . S
C328 C327 1.523 . S
C329 C313 1.429 . S
C329 C325 1.429 . S
C329 C330 1.523 . S
C330 C314 1.368 . S
C330 C326 1.368 . S
C330 C329 1.523 . S
H331 C306 0.950 . S
H332 C308 0.950 . S
H333 C309 0.949 . S
H334 C311 0.950 . S
H335 C313 0.950 . S
C336 C337 1.349 . S
C336 C338 1.327 . S
C336 H361 0.950 . S
C337 C336 1.349 . S
C337 C353 1.349 . S
C338 C336 1.327 . S
C338 C357 1.429 . S
C338 H362 0.950 . S
C339 C356 1.574 . S
C339 C358 1.368 . S
C339 H363 0.949 . S
H340 C344 0.949 . S
C341 C342 1.349 . S
C341 C343 1.327 . S
C341 H364 0.950 . S
C342 C341 1.349 . S
C342 C354 1.349 . S
C343 C341 1.327 . S
C343 C359 1.429 . S
C343 H365 0.950 . S
C344 H340 0.949 . S
C344 C352 1.574 . S
C344 C360 1.368 . S
H345 C353 0.950 . S
H346 C351 0.950 . S
H347 C352 0.949 . S
H348 C354 0.950 . S
H349 C355 0.950 . S
H350 C356 0.949 . S
C351 H346 0.950 . S
C351 C353 1.327 . S
C351 C357 1.429 . S
C352 C344 1.574 . S
C352 H347 0.949 . S
C352 C358 1.368 . S
C353 C337 1.349 . S
C353 H345 0.950 . S
C353 C351 1.327 . S
C354 C342 1.349 . S
C354 H348 0.950 . S
C354 C355 1.327 . S
C355 H349 0.950 . S
C355 C354 1.327 . S
C355 C359 1.429 . S
C356 C339 1.574 . S
C356 H350 0.949 . S
C356 C360 1.368 . S
C357 C338 1.429 . S
C357 C351 1.429 . S
C357 C358 1.523 . S
C358 C339 1.368 . S
C358 C352 1.368 . S
C358 C357 1.523 . S
C359 C343 1.429 . S
C359 C355 1.429 . S
C359 C360 1.523 . S
C360 C344 1.368 . S
C360 C356 1.368 . S
C360 C359 1.523 . S
H361 C336 0.950 . S
H362 C338 0.950 . S
H363 C339 0.949 . S
H364 C341 0.950 . S
H365 C343 0.950 . S
C366 C367 1.349 . S
C366 C368 1.327 . S
C366 H391 0.950 . S
C367 C366 1.349 . S
C367 C383 1.349 . S
C368 C366 1.327 . S
C368 C387 1.429 . S
C368 H392 0.950 . S
C369 C386 1.574 . S
C369 C388 1.368 . S
C369 H393 0.949 . S
H370 C374 0.949 . S
C371 C372 1.349 . S
C371 C373 1.327 . S
C371 H394 0.950 . S
C372 C371 1.349 . S
C372 C384 1.349 . S
C373 C371 1.327 . S
C373 C389 1.429 . S
C373 H395 0.950 . S
C374 H370 0.949 . S
C374 C382 1.574 . S
C374 C390 1.368 . S
H375 C383 0.950 . S
H376 C381 0.950 . S
H377 C382 0.949 . S
H378 C384 0.950 . S
H379 C385 0.950 . S
H380 C386 0.949 . S
C381 H376 0.950 . S
C381 C383 1.327 . S
C381 C387 1.429 . S
C382 C374 1.574 . S
C382 H377 0.949 . S
C382 C388 1.368 . S
C383 C367 1.349 . S
C383 H375 0.950 . S
C383 C381 1.327 . S
C384 C372 1.349 . S
C384 H378 0.950 . S
C384 C385 1.327 . S
C385 H379 0.950 . S
C385 C384 1.327 . S
C385 C389 1.429 . S
C386 C369 1.574 . S
C386 H380 0.949 . S
C386 C390 1.368 . S
C387 C368 1.429 . S
C387 C381 1.429 . S
C387 C388 1.523 . S
C388 C369 1.368 . S
C388 C382 1.368 . S
C388 C387 1.523 . S
C389 C373 1.429 . S
C389 C385 1.429 . S
C389 C390 1.523 . S
C390 C374 1.368 . S
C390 C386 1.368 . S
C390 C389 1.523 . S
H391 C366 0.950 . S
H392 C368 0.950 . S
H393 C369 0.949 . S
H394 C371 0.950 . S
H395 C373 0.950 . S
C396 C397 1.349 . S
C396 C398 1.327 . S
C396 H421 0.950 . S
C397 C396 1.349 . S
C397 C413 1.349 . S
C398 C396 1.327 . S
C398 C417 1.429 . S
C398 H422 0.950 . S
C399 C416 1.574 . S
C399 C418 1.368 . S
C399 H423 0.949 . S
H400 C404 0.949 . S
C401 C402 1.349 . S
C401 C403 1.327 . S
C401 H424 0.950 . S
C402 C401 1.349 . S
C402 C414 1.349 . S
C403 C401 1.327 . S
C403 C419 1.429 . S
C403 H425 0.950 . S
C404 H400 0.949 . S
C404 C412 1.574 . S
C404 C420 1.368 . S
H405 C413 0.950 . S
H406 C411 0.950 . S
H407 C412 0.949 . S
H408 C414 0.950 . S
H409 C415 0.950 . S
H410 C416 0.949 . S
C411 H406 0.950 . S
C411 C413 1.327 . S
C411 C417 1.429 . S
C412 C404 1.574 . S
C412 H407 0.949 . S
C412 C418 1.368 . S
C413 C397 1.349 . S
C413 H405 0.950 . S
C413 C411 1.327 . S
C414 C402 1.349 . S
C414 H408 0.950 . S
C414 C415 1.327 . S
C415 H409 0.950 . S
C415 C414 1.327 . S
C415 C419 1.429 . S
C416 C399 1.574 . S
C416 H410 0.949 . S
C416 C420 1.368 . S
C417 C398 1.429 . S
C417 C411 1.429 . S
C417 C418 1.523 . S
C418 C399 1.368 . S
C418 C412 1.368 . S
C418 C417 1.523 . S
C419 C403 1.429 . S
C419 C415 1.429 . S
C419 C420 1.523 . S
C420 C404 1.368 . S
C420 C416 1.368 . S
C420 C419 1.523 . S
H421 C396 0.950 . S
H422 C398 0.950 . S
H423 C399 0.949 . S
H424 C401 0.950 . S
H425 C403 0.950 . S
C426 C427 1.349 . S
C426 C428 1.327 . S
C426 H451 0.950 . S
C427 C426 1.349 . S
C427 C443 1.349 . S
C428 C426 1.327 . S
C428 C447 1.429 . S
C428 H452 0.950 . S
C429 C446 1.574 . S
C429 C448 1.368 . S
C429 H453 0.949 . S
H430 C434 0.949 . S
C431 C432 1.349 . S
C431 C433 1.327 . S
C431 H454 0.950 . S
C432 C431 1.349 . S
C432 C444 1.349 . S
C433 C431 1.327 . S
C433 C449 1.429 . S
C433 H455 0.950 . S
C434 H430 0.949 . S
C434 C442 1.574 . S
C434 C450 1.368 . S
H435 C443 0.950 . S
H436 C441 0.950 . S
H437 C442 0.949 . S
H438 C444 0.950 . S
H439 C445 0.950 . S
H440 C446 0.949 . S
C441 H436 0.950 . S
C441 C443 1.327 . S
C441 C447 1.429 . S
C442 C434 1.574 . S
C442 H437 0.949 . S
C442 C448 1.368 . S
C443 C427 1.349 . S
C443 H435 0.950 . S
C443 C441 1.327 . S
C444 C432 1.349 . S
C444 H438 0.950 . S
C444 C445 1.327 . S
C445 H439 0.950 . S
C445 C444 1.327 . S
C445 C449 1.429 . S
C446 C429 1.574 . S
C446 H440 0.949 . S
C446 C450 1.368 . S
C447 C428 1.429 . S
C447 C441 1.429 . S
C447 C448 1.523 . S
C448 C429 1.368 . S
C448 C442 1.368 . S
C448 C447 1.523 . S
C449 C433 1.429 . S
C449 C445 1.429 . S
C449 C450 1.523 . S
C450 C434 1.368 . S
C450 C446 1.368 . S
C450 C449 1.523 . S
H451 C426 0.950 . S
H452 C428 0.950 . S
H453 C429 0.949 . S
H454 C431 0.950 . S
H455 C433 0.950 . S
C456 C457 1.349 . S
C456 C458 1.327 . S
C456 H481 0.950 . S
C457 C456 1.349 . S
C457 C473 1.349 . S
C458 C456 1.327 . S
C458 C477 1.429 . S
C458 H482 0.950 . S
C459 C476 1.574 . S
C459 C478 1.368 . S
C459 H483 0.949 . S
H460 C464 0.949 . S
C461 C462 1.349 . S
C461 C463 1.327 . S
C461 H484 0.950 . S
C462 C461 1.349 . S
C462 C474 1.349 . S
C463 C461 1.327 . S
C463 C479 1.429 . S
C463 H485 0.950 . S
C464 H460 0.949 . S
C464 C472 1.574 . S
C464 C480 1.368 . S
H465 C473 0.950 . S
H466 C471 0.950 . S
H467 C472 0.949 . S
H468 C474 0.950 . S
H469 C475 0.950 . S
H470 C476 0.949 . S
C471 H466 0.950 . S
C471 C473 1.327 . S
C471 C477 1.429 . S
C472 C464 1.574 . S
C472 H467 0.949 . S
C472 C478 1.368 . S
C473 C457 1.349 . S
C473 H465 0.950 . S
C473 C471 1.327 . S
C474 C462 1.349 . S
C474 H468 0.950 . S
C474 C475 1.327 . S
C475 H469 0.950 . S
C475 C474 1.327 . S
C475 C479 1.429 . S
C476 C459 1.574 . S
C476 H470 0.949 . S
C476 C480 1.368 . S
C477 C458 1.429 . S
C477 C471 1.429 . S
C477 C478 1.523 . S
C478 C459 1.368 . S
C478 C472 1.368 . S
C478 C477 1.523 . S
C479 C463 1.429 . S
C479 C475 1.429 . S
C479 C480 1.523 . S
C480 C464 1.368 . S
C480 C476 1.368 . S
C480 C479 1.523 . S
H481 C456 0.950 . S
H482 C458 0.950 . S
H483 C459 0.949 . S
H484 C461 0.950 . S
H485 C463 0.950 . S
C486 C487 1.349 . S
C486 C488 1.327 . S
C486 H511 0.950 . S
C487 C486 1.349 . S
C487 C503 1.349 . S
C488 C486 1.327 . S
C488 C507 1.429 . S
C488 H512 0.950 . S
C489 C506 1.574 . S
C489 C508 1.368 . S
C489 H513 0.949 . S
H490 C494 0.949 . S
C491 C492 1.349 . S
C491 C493 1.327 . S
C491 H514 0.950 . S
C492 C491 1.349 . S
C492 C504 1.349 . S
C493 C491 1.327 . S
C493 C509 1.429 . S
C493 H515 0.950 . S
C494 H490 0.949 . S
C494 C502 1.574 . S
C494 C510 1.368 . S
H495 C503 0.950 . S
H496 C501 0.950 . S
H497 C502 0.949 . S
H498 C504 0.950 . S
H499 C505 0.950 . S
H500 C506 0.949 . S
C501 H496 0.950 . S
C501 C503 1.327 . S
C501 C507 1.429 . S
C502 C494 1.574 . S
C502 H497 0.949 . S
C502 C508 1.368 . S
C503 C487 1.349 . S
C503 H495 0.950 . S
C503 C501 1.327 . S
C504 C492 1.349 . S
C504 H498 0.950 . S
C504 C505 1.327 . S
C505 H499 0.950 . S
C505 C504 1.327 . S
C505 C509 1.429 . S
C506 C489 1.574 . S
C506 H500 0.949 . S
C506 C510 1.368 . S
C507 C488 1.429 . S
C507 C501 1.429 . S
C507 C508 1.523 . S
C508 C489 1.368 . S
C508 C502 1.368 . S
C508 C507 1.523 . S
C509 C493 1.429 . S
C509 C505 1.429 . S
C509 C510 1.523 . S
C510 C494 1.368 . S
C510 C506 1.368 . S
C510 C509 1.523 . S
H511 C486 0.950 . S
H512 C488 0.950 . S
H513 C489 0.949 . S
H514 C491 0.950 . S
H515 C493 0.950 . S
C516 C517 1.349 1_556 S
C516 C518 1.327 . S
C516 H541 0.950 . S
C517 C516 1.349 1_554 S
C517 C533 1.349 . S
C518 C516 1.327 . S
C518 C537 1.429 1_556 S
C518 H542 0.950 . S
C519 C536 1.574 . S
C519 C538 1.368 . S
C519 H543 0.949 . S
H520 C524 0.949 . S
C521 C522 1.349 1_554 S
C521 C523 1.327 . S
C521 H544 0.950 . S
C522 C521 1.349 1_556 S
C522 C534 1.349 . S
C523 C521 1.327 . S
C523 C539 1.429 1_554 S
C523 H545 0.950 . S
C524 H520 0.949 . S
C524 C532 1.574 . S
C524 C540 1.392 . S
H525 C533 0.950 . S
H526 C531 0.950 . S
H527 C532 0.949 . S
H528 C534 0.950 . S
H529 C535 0.950 . S
H530 C536 0.949 . S
C531 H526 0.950 . S
C531 C533 1.327 . S
C531 C537 1.429 . S
C532 C524 1.574 . S
C532 H527 0.949 . S
C532 C538 1.368 1_556 S
C533 C517 1.349 . S
C533 H525 0.950 . S
C533 C531 1.327 . S
C534 C522 1.349 . S
C534 H528 0.950 . S
C534 C535 1.327 . S
C535 H529 0.950 . S
C535 C534 1.327 . S
C535 C539 1.429 . S
C536 C519 1.574 . S
C536 H530 0.949 . S
C536 C540 1.344 1_554 S
C537 C518 1.429 1_554 S
C537 C531 1.429 . S
C537 C538 1.523 . S
C538 C519 1.368 . S
C538 C532 1.368 1_554 S
C538 C537 1.523 . S
C539 C523 1.429 1_556 S
C539 C535 1.429 . S
C539 C540 1.525 . S
C540 C524 1.392 . S
C540 C536 1.344 1_556 S
C540 C539 1.525 . S
H541 C516 0.950 . S
H542 C518 0.950 . S
H543 C519 0.949 . S
H544 C521 0.950 . S
H545 C523 0.950 . S
C546 C547 1.349 . S
C546 C548 1.327 . S
C546 H571 0.950 . S
C547 C546 1.349 . S
C547 C563 1.349 . S
C548 C546 1.327 . S
C548 C567 1.429 . S
C548 H572 0.950 . S
C549 C566 1.574 . S
C549 C568 1.368 . S
C549 H573 0.949 . S
H550 C554 0.949 . S
C551 C552 1.349 . S
C551 C553 1.327 . S
C551 H574 0.950 . S
C552 C551 1.349 . S
C552 C564 1.349 . S
C553 C551 1.327 . S
C553 C569 1.429 . S
C553 H575 0.950 . S
C554 H550 0.949 . S
C554 C562 1.574 . S
C554 C570 1.368 . S
H555 C563 0.950 . S
H556 C561 0.950 . S
H557 C562 0.949 . S
H558 C564 0.950 . S
H559 C565 0.950 . S
H560 C566 0.949 . S
C561 H556 0.950 . S
C561 C563 1.327 . S
C561 C567 1.429 . S
C562 C554 1.574 . S
C562 H557 0.949 . S
C562 C568 1.368 . S
C563 C547 1.349 . S
C563 H555 0.950 . S
C563 C561 1.327 . S
C564 C552 1.349 . S
C564 H558 0.950 . S
C564 C565 1.327 . S
C565 H559 0.950 . S
C565 C564 1.327 . S
C565 C569 1.429 . S
C566 C549 1.574 . S
C566 H560 0.949 . S
C566 C570 1.368 . S
C567 C548 1.429 . S
C567 C561 1.429 . S
C567 C568 1.523 . S
C568 C549 1.368 . S
C568 C562 1.368 . S
C568 C567 1.523 . S
C569 C553 1.429 . S
C569 C565 1.429 . S
C569 C570 1.523 . S
C570 C554 1.368 . S
C570 C566 1.368 . S
C570 C569 1.523 . S
H571 C546 0.950 . S
H572 C548 0.950 . S
H573 C549 0.949 . S
H574 C551 0.950 . S
H575 C553 0.950 . S
C576 C577 1.349 . S
C576 C578 1.327 . S
C576 H601 0.950 . S
C577 C576 1.349 . S
C577 C593 1.349 . S
C578 C576 1.327 . S
C578 C597 1.429 . S
C578 H602 0.950 . S
C579 C596 1.574 . S
C579 C598 1.368 . S
C579 H603 0.949 . S
H580 C584 0.949 . S
C581 C582 1.349 . S
C581 C583 1.327 . S
C581 H604 0.950 . S
C582 C581 1.349 . S
C582 C594 1.349 . S
C583 C581 1.327 . S
C583 C599 1.429 . S
C583 H605 0.950 . S
C584 H580 0.949 . S
C584 C592 1.574 . S
C584 C600 1.368 . S
H585 C593 0.950 . S
H586 C591 0.950 . S
H587 C592 0.949 . S
H588 C594 0.950 . S
H589 C595 0.950 . S
H590 C596 0.949 . S
C591 H586 0.950 . S
C591 C593 1.327 . S
C591 C597 1.429 . S
C592 C584 1.574 . S
C592 H587 0.949 . S
C592 C598 1.368 . S
C593 C577 1.349 . S
C593 H585 0.950 . S
C593 C591 1.327 . S
C594 C582 1.349 . S
C594 H588 0.950 . S
C594 C595 1.327 . S
C595 H589 0.950 . S
C595 C594 1.327 . S
C595 C599 1.429 . S
C596 C579 1.574 . S
C596 H590 0.949 . S
C596 C600 1.368 . S
C597 C578 1.429 . S
C597 C591 1.429 . S
C597 C598 1.523 . S
C598 C579 1.368 . S
C598 C592 1.368 . S
C598 C597 1.523 . S
C599 C583 1.429 . S
C599 C595 1.429 . S
C599 C600 1.523 . S
C600 C584 1.368 . S
C600 C596 1.368 . S
C600 C599 1.523 . S
H601 C576 0.950 . S
H602 C578 0.950 . S
H603 C579 0.949 . S
H604 C581 0.950 . S
H605 C583 0.950 . S
C606 C607 1.349 1_554 S
C606 C608 1.327 . S
C606 H631 0.950 . S
C607 C606 1.349 1_556 S
C607 C623 1.349 . S
C608 C606 1.327 . S
C608 C627 1.429 1_554 S
C608 H632 0.950 . S
C609 C626 1.574 . S
C609 C628 1.368 . S
C609 H633 0.949 . S
H610 C614 0.949 . S
C611 C612 1.349 1_556 S
C611 C613 1.327 . S
C611 H634 0.950 . S
C612 C611 1.349 1_554 S
C612 C624 1.349 . S
C613 C611 1.327 . S
C613 C629 1.429 1_556 S
C613 H635 0.950 . S
C614 H610 0.949 . S
C614 C622 1.574 . S
C614 C630 1.382 . S
H615 C623 0.950 . S
H616 C621 0.950 . S
H617 C622 0.949 . S
H618 C624 0.950 . S
H619 C625 0.950 . S
H620 C626 0.949 . S
C621 H616 0.950 . S
C621 C623 1.327 . S
C621 C627 1.429 . S
C622 C614 1.574 . S
C622 H617 0.949 . S
C622 C628 1.368 1_554 S
C623 C607 1.349 . S
C623 H615 0.950 . S
C623 C621 1.327 . S
C624 C612 1.349 . S
C624 H618 0.950 . S
C624 C625 1.327 . S
C625 H619 0.950 . S
C625 C624 1.327 . S
C625 C629 1.429 . S
C626 C609 1.574 . S
C626 H620 0.949 . S
C626 C630 1.354 1_556 S
C627 C608 1.429 1_556 S
C627 C621 1.429 . S
C627 C628 1.523 . S
C628 C609 1.368 . S
C628 C622 1.368 1_556 S
C628 C627 1.523 . S
C629 C613 1.429 1_554 S
C629 C625 1.429 . S
C629 C630 1.525 . S
C630 C614 1.382 . S
C630 C626 1.354 1_554 S
C630 C629 1.525 . S
H631 C606 0.950 . S
H632 C608 0.950 . S
H633 C609 0.949 . S
H634 C611 0.950 . S
H635 C613 0.950 . S
C636 C637 1.349 . S
C636 C638 1.327 . S
C636 H661 0.950 . S
C637 C636 1.349 . S
C637 C653 1.349 . S
C638 C636 1.327 . S
C638 C657 1.429 . S
C638 H662 0.950 . S
C639 C656 1.574 1_545 S
C639 C658 1.368 . S
C639 H663 0.949 . S
H640 C644 0.949 . S
C641 C642 1.349 . S
C641 C643 1.327 . S
C641 H664 0.950 . S
C642 C641 1.349 . S
C642 C654 1.349 . S
C643 C641 1.327 . S
C643 C659 1.429 . S
C643 H665 0.950 . S
C644 H640 0.949 . S
C644 C652 1.574 1_565 S
C644 C660 1.368 . S
H645 C653 0.950 . S
H646 C651 0.950 . S
H647 C652 0.949 . S
H648 C654 0.950 . S
H649 C655 0.950 . S
H650 C656 0.949 . S
C651 H646 0.950 . S
C651 C653 1.327 . S
C651 C657 1.429 . S
C652 C644 1.574 1_545 S
C652 H647 0.949 . S
C652 C658 1.368 . S
C653 C637 1.349 . S
C653 H645 0.950 . S
C653 C651 1.327 . S
C654 C642 1.349 . S
C654 H648 0.950 . S
C654 C655 1.327 . S
C655 H649 0.950 . S
C655 C654 1.327 . S
C655 C659 1.429 . S
C656 C639 1.574 1_565 S
C656 H650 0.949 . S
C656 C660 1.368 . S
C657 C638 1.429 . S
C657 C651 1.429 . S
C657 C658 1.523 . S
C658 C639 1.368 . S
C658 C652 1.368 . S
C658 C657 1.523 . S
C659 C643 1.429 . S
C659 C655 1.429 . S
C659 C660 1.523 . S
C660 C644 1.368 . S
C660 C656 1.368 . S
C660 C659 1.523 . S
H661 C636 0.950 . S
H662 C638 0.950 . S
H663 C639 0.949 . S
H664 C641 0.950 . S
H665 C643 0.950 . S
C666 C667 1.349 . S
C666 C668 1.327 . S
C666 H691 0.950 . S
C667 C666 1.349 . S
C667 C683 1.349 . S
C668 C666 1.327 . S
C668 C687 1.429 . S
C668 H692 0.950 . S
C669 C686 1.574 . S
C669 C688 1.368 . S
C669 H693 0.949 . S
H670 C674 0.949 . S
C671 C672 1.349 . S
C671 C673 1.327 . S
C671 H694 0.950 . S
C672 C671 1.349 . S
C672 C684 1.349 . S
C673 C671 1.327 . S
C673 C689 1.429 . S
C673 H695 0.950 . S
C674 H670 0.949 . S
C674 C682 1.574 . S
C674 C690 1.368 . S
H675 C683 0.950 . S
H676 C681 0.950 . S
H677 C682 0.949 . S
H678 C684 0.950 . S
H679 C685 0.950 . S
H680 C686 0.949 . S
C681 H676 0.950 . S
C681 C683 1.327 . S
C681 C687 1.429 . S
C682 C674 1.574 . S
C682 H677 0.949 . S
C682 C688 1.368 . S
C683 C667 1.349 . S
C683 H675 0.950 . S
C683 C681 1.327 . S
C684 C672 1.349 . S
C684 H678 0.950 . S
C684 C685 1.327 . S
C685 H679 0.950 . S
C685 C684 1.327 . S
C685 C689 1.429 . S
C686 C669 1.574 . S
C686 H680 0.949 . S
C686 C690 1.368 . S
C687 C668 1.429 . S
C687 C681 1.429 . S
C687 C688 1.523 . S
C688 C669 1.368 . S
C688 C682 1.368 . S
C688 C687 1.523 . S
C689 C673 1.429 . S
C689 C685 1.429 . S
C689 C690 1.523 . S
C690 C674 1.368 . S
C690 C686 1.368 . S
C690 C689 1.523 . S
H691 C666 0.950 . S
H692 C668 0.950 . S
H693 C669 0.949 . S
H694 C671 0.950 . S
H695 C673 0.950 . S
C696 C697 1.358 . S
C696 C698 1.327 . S
C696 H721 0.950 . S
C697 C696 1.358 . S
C697 C713 1.340 1_554 S
C698 C696 1.327 . S
C698 C717 1.437 . S
C698 H722 0.950 . S
C699 C716 1.574 1_655 S
C699 C718 1.359 1_556 S
C699 H723 0.949 . S
H700 C704 0.949 . S
C701 C702 1.340 1_556 S
C701 C703 1.327 . S
C701 H724 0.950 . S
C702 C701 1.340 1_554 S
C702 C714 1.358 . S
C703 C701 1.327 . S
C703 C719 1.420 1_556 S
C703 H725 0.950 . S
C704 H700 0.949 . S
C704 C712 1.574 1_455 S
C704 C720 1.378 . S
H705 C713 0.950 . S
H706 C711 0.950 . S
H707 C712 0.949 . S
H708 C714 0.950 . S
H709 C715 0.950 . S
H710 C716 0.949 . S
C711 H706 0.950 . S
C711 C713 1.327 . S
C711 C717 1.420 1_556 S
C712 C704 1.574 1_655 S
C712 H707 0.949 . S
C712 C718 1.378 . S
C713 C697 1.340 1_556 S
C713 H705 0.950 . S
C713 C711 1.327 . S
C714 C702 1.358 . S
C714 H708 0.950 . S
C714 C715 1.327 . S
C715 H709 0.950 . S
C715 C714 1.327 . S
C715 C719 1.437 . S
C716 C699 1.574 1_455 S
C716 H710 0.949 . S
C716 C720 1.359 1_556 S
C717 C698 1.437 . S
C717 C711 1.420 1_554 S
C717 C718 1.523 . S
C718 C699 1.359 1_554 S
C718 C712 1.378 . S
C718 C717 1.523 . S
C719 C703 1.420 1_554 S
C719 C715 1.437 . S
C719 C720 1.523 . S
C720 C704 1.378 . S
C720 C716 1.359 1_554 S
C720 C719 1.523 . S
H721 C696 0.950 . S
H722 C698 0.950 . S
H723 C699 0.949 . S
H724 C701 0.950 . S
H725 C703 0.950 . S
C726 C727 1.349 . S
C726 C728 1.327 . S
C726 H751 0.950 . S
C727 C726 1.349 . S
C727 C743 1.349 . S
C728 C726 1.327 . S
C728 C747 1.429 . S
C728 H752 0.950 . S
C729 C746 1.574 1_455 S
C729 C748 1.368 . S
C729 H753 0.949 . S
H730 C734 0.949 . S
C731 C732 1.349 . S
C731 C733 1.327 . S
C731 H754 0.950 . S
C732 C731 1.349 . S
C732 C744 1.349 . S
C733 C731 1.327 . S
C733 C749 1.429 . S
C733 H755 0.950 . S
C734 H730 0.949 . S
C734 C742 1.574 1_655 S
C734 C750 1.368 . S
H735 C743 0.950 . S
H736 C741 0.950 . S
H737 C742 0.949 . S
H738 C744 0.950 . S
H739 C745 0.950 . S
H740 C746 0.949 . S
C741 H736 0.950 . S
C741 C743 1.327 . S
C741 C747 1.429 . S
C742 C734 1.574 1_455 S
C742 H737 0.949 . S
C742 C748 1.368 . S
C743 C727 1.349 . S
C743 H735 0.950 . S
C743 C741 1.327 . S
C744 C732 1.349 . S
C744 H738 0.950 . S
C744 C745 1.327 . S
C745 H739 0.950 . S
C745 C744 1.327 . S
C745 C749 1.429 . S
C746 C729 1.574 1_655 S
C746 H740 0.949 . S
C746 C750 1.368 . S
C747 C728 1.429 . S
C747 C741 1.429 . S
C747 C748 1.523 . S
C748 C729 1.368 . S
C748 C742 1.368 . S
C748 C747 1.523 . S
C749 C733 1.429 . S
C749 C745 1.429 . S
C749 C750 1.523 . S
C750 C734 1.368 . S
C750 C746 1.368 . S
C750 C749 1.523 . S
H751 C726 0.950 . S
H752 C728 0.950 . S
H753 C729 0.949 . S
H754 C731 0.950 . S
H755 C733 0.950 . S
C756 C757 1.349 . S
C756 C758 1.327 . S
C756 H781 0.950 . S
C757 C756 1.349 . S
C757 C773 1.349 . S
C758 C756 1.327 . S
C758 C777 1.429 . S
C758 H782 0.950 . S
C759 C776 1.574 1_545 S
C759 C778 1.368 . S
C759 H783 0.949 . S
H760 C764 0.949 . S
C761 C762 1.349 . S
C761 C763 1.327 . S
C761 H784 0.950 . S
C762 C761 1.349 . S
C762 C774 1.349 . S
C763 C761 1.327 . S
C763 C779 1.429 . S
C763 H785 0.950 . S
C764 H760 0.949 . S
C764 C772 1.574 1_565 S
C764 C780 1.368 . S
H765 C773 0.950 . S
H766 C771 0.950 . S
H767 C772 0.949 . S
H768 C774 0.950 . S
H769 C775 0.950 . S
H770 C776 0.949 . S
C771 H766 0.950 . S
C771 C773 1.327 . S
C771 C777 1.429 . S
C772 C764 1.574 1_545 S
C772 H767 0.949 . S
C772 C778 1.368 . S
C773 C757 1.349 . S
C773 H765 0.950 . S
C773 C771 1.327 . S
C774 C762 1.349 . S
C774 H768 0.950 . S
C774 C775 1.327 . S
C775 H769 0.950 . S
C775 C774 1.327 . S
C775 C779 1.429 . S
C776 C759 1.574 1_565 S
C776 H770 0.949 . S
C776 C780 1.368 . S
C777 C758 1.429 . S
C777 C771 1.429 . S
C777 C778 1.523 . S
C778 C759 1.368 . S
C778 C772 1.368 . S
C778 C777 1.523 . S
C779 C763 1.429 . S
C779 C775 1.429 . S
C779 C780 1.523 . S
C780 C764 1.368 . S
C780 C776 1.368 . S
C780 C779 1.523 . S
H781 C756 0.950 . S
H782 C758 0.950 . S
H783 C759 0.949 . S
H784 C761 0.950 . S
H785 C763 0.950 . S
C786 C787 1.340 1_554 S
C786 C788 1.327 . S
C786 H811 0.950 . S
C787 C786 1.340 1_556 S
C787 C803 1.358 . S
C788 C786 1.327 . S
C788 C807 1.420 1_554 S
C788 H812 0.950 . S
C789 C806 1.574 . S
C789 C808 1.378 . S
C789 H813 0.949 . S
H790 C794 0.949 . S
C791 C792 1.358 . S
C791 C793 1.327 . S
C791 H814 0.950 . S
C792 C791 1.358 . S
C792 C804 1.340 1_556 S
C793 C791 1.327 . S
C793 C809 1.437 . S
C793 H815 0.950 . S
C794 H790 0.949 . S
C794 C802 1.574 . S
C794 C810 1.359 1_554 S
H795 C803 0.950 . S
H796 C801 0.950 . S
H797 C802 0.949 . S
H798 C804 0.950 . S
H799 C805 0.950 . S
H800 C806 0.949 . S
C801 H796 0.950 . S
C801 C803 1.327 . S
C801 C807 1.437 . S
C802 C794 1.574 . S
C802 H797 0.949 . S
C802 C808 1.359 1_554 S
C803 C787 1.358 . S
C803 H795 0.950 . S
C803 C801 1.327 . S
C804 C792 1.340 1_554 S
C804 H798 0.950 . S
C804 C805 1.327 . S
C805 H799 0.950 . S
C805 C804 1.327 . S
C805 C809 1.420 1_554 S
C806 C789 1.574 . S
C806 H800 0.949 . S
C806 C810 1.378 . S
C807 C788 1.420 1_556 S
C807 C801 1.437 . S
C807 C808 1.523 . S
C808 C789 1.378 . S
C808 C802 1.359 1_556 S
C808 C807 1.523 . S
C809 C793 1.437 . S
C809 C805 1.420 1_556 S
C809 C810 1.523 . S
C810 C794 1.359 1_556 S
C810 C806 1.378 . S
C810 C809 1.523 . S
H811 C786 0.950 . S
H812 C788 0.950 . S
H813 C789 0.949 . S
H814 C791 0.950 . S
H815 C793 0.950 . S
C816 C817 1.349 . S
C816 C818 1.327 . S
C816 H841 0.950 . S
C817 C816 1.349 . S
C817 C833 1.349 . S
C818 C816 1.327 . S
C818 C837 1.429 . S
C818 H842 0.950 . S
C819 C836 1.574 . S
C819 C838 1.368 . S
C819 H843 0.949 . S
H820 C824 0.949 . S
C821 C822 1.349 . S
C821 C823 1.327 . S
C821 H844 0.950 . S
C822 C821 1.349 . S
C822 C834 1.349 . S
C823 C821 1.327 . S
C823 C839 1.429 . S
C823 H845 0.950 . S
C824 H820 0.949 . S
C824 C832 1.574 . S
C824 C840 1.368 . S
H825 C833 0.950 . S
H826 C831 0.950 . S
H827 C832 0.949 . S
H828 C834 0.950 . S
H829 C835 0.950 . S
H830 C836 0.949 . S
C831 H826 0.950 . S
C831 C833 1.327 . S
C831 C837 1.429 . S
C832 C824 1.574 . S
C832 H827 0.949 . S
C832 C838 1.368 . S
C833 C817 1.349 . S
C833 H825 0.950 . S
C833 C831 1.327 . S
C834 C822 1.349 . S
C834 H828 0.950 . S
C834 C835 1.327 . S
C835 H829 0.950 . S
C835 C834 1.327 . S
C835 C839 1.429 . S
C836 C819 1.574 . S
C836 H830 0.949 . S
C836 C840 1.368 . S
C837 C818 1.429 . S
C837 C831 1.429 . S
C837 C838 1.523 . S
C838 C819 1.368 . S
C838 C832 1.368 . S
C838 C837 1.523 . S
C839 C823 1.429 . S
C839 C835 1.429 . S
C839 C840 1.523 . S
C840 C824 1.368 . S
C840 C836 1.368 . S
C840 C839 1.523 . S
H841 C816 0.950 . S
H842 C818 0.950 . S
H843 C819 0.949 . S
H844 C821 0.950 . S
H845 C823 0.950 . S
C846 C847 1.349 . S
C846 C848 1.327 . S
C846 H871 0.950 . S
C847 C846 1.349 . S
C847 C863 1.349 . S
C848 C846 1.327 . S
C848 C867 1.429 . S
C848 H872 0.950 . S
C849 C866 1.574 . S
C849 C868 1.368 . S
C849 H873 0.949 . S
H850 C854 0.949 . S
C851 C852 1.349 . S
C851 C853 1.327 . S
C851 H874 0.950 . S
C852 C851 1.349 . S
C852 C864 1.349 . S
C853 C851 1.327 . S
C853 C869 1.429 . S
C853 H875 0.950 . S
C854 H850 0.949 . S
C854 C862 1.574 . S
C854 C870 1.368 . S
H855 C863 0.950 . S
H856 C861 0.950 . S
H857 C862 0.949 . S
H858 C864 0.950 . S
H859 C865 0.950 . S
H860 C866 0.949 . S
C861 H856 0.950 . S
C861 C863 1.327 . S
C861 C867 1.429 . S
C862 C854 1.574 . S
C862 H857 0.949 . S
C862 C868 1.368 . S
C863 C847 1.349 . S
C863 H855 0.950 . S
C863 C861 1.327 . S
C864 C852 1.349 . S
C864 H858 0.950 . S
C864 C865 1.327 . S
C865 H859 0.950 . S
C865 C864 1.327 . S
C865 C869 1.429 . S
C866 C849 1.574 . S
C866 H860 0.949 . S
C866 C870 1.368 . S
C867 C848 1.429 . S
C867 C861 1.429 . S
C867 C868 1.523 . S
C868 C849 1.368 . S
C868 C862 1.368 . S
C868 C867 1.523 . S
C869 C853 1.429 . S
C869 C865 1.429 . S
C869 C870 1.523 . S
C870 C854 1.368 . S
C870 C866 1.368 . S
C870 C869 1.523 . S
H871 C846 0.950 . S
H872 C848 0.950 . S
H873 C849 0.949 . S
H874 C851 0.950 . S
H875 C853 0.950 . S
C876 C877 1.349 . S
C876 C878 1.327 . S
C876 H901 0.950 . S
C877 C876 1.349 . S
C877 C893 1.349 . S
C878 C876 1.327 . S
C878 C897 1.429 . S
C878 H902 0.950 . S
C879 C896 1.574 . S
C879 C898 1.368 . S
C879 H903 0.949 . S
H880 C884 0.949 . S
C881 C882 1.349 . S
C881 C883 1.327 . S
C881 H904 0.950 . S
C882 C881 1.349 . S
C882 C894 1.349 . S
C883 C881 1.327 . S
C883 C899 1.429 . S
C883 H905 0.950 . S
C884 H880 0.949 . S
C884 C892 1.574 . S
C884 C900 1.368 . S
H885 C893 0.950 . S
H886 C891 0.950 . S
H887 C892 0.949 . S
H888 C894 0.950 . S
H889 C895 0.950 . S
H890 C896 0.949 . S
C891 H886 0.950 . S
C891 C893 1.327 . S
C891 C897 1.429 . S
C892 C884 1.574 . S
C892 H887 0.949 . S
C892 C898 1.368 . S
C893 C877 1.349 . S
C893 H885 0.950 . S
C893 C891 1.327 . S
C894 C882 1.349 . S
C894 H888 0.950 . S
C894 C895 1.327 . S
C895 H889 0.950 . S
C895 C894 1.327 . S
C895 C899 1.429 . S
C896 C879 1.574 . S
C896 H890 0.949 . S
C896 C900 1.368 . S
C897 C878 1.429 . S
C897 C891 1.429 . S
C897 C898 1.523 . S
C898 C879 1.368 . S
C898 C892 1.368 . S
C898 C897 1.523 . S
C899 C883 1.429 . S
C899 C895 1.429 . S
C899 C900 1.523 . S
C900 C884 1.368 . S
C900 C896 1.368 . S
C900 C899 1.523 . S
H901 C876 0.950 . S
H902 C878 0.950 . S
H903 C879 0.949 . S
H904 C881 0.950 . S
H905 C883 0.950 . S
C906 C907 1.349 . S
C906 C908 1.327 . S
C906 H931 0.950 . S
C907 C906 1.349 . S
C907 C923 1.349 . S
C908 C906 1.327 . S
C908 C927 1.429 . S
C908 H932 0.950 . S
C909 C926 1.574 . S
C909 C928 1.368 . S
C909 H933 0.949 . S
H910 C914 0.949 . S
C911 C912 1.349 . S
C911 C913 1.327 . S
C911 H934 0.950 . S
C912 C911 1.349 . S
C912 C924 1.349 . S
C913 C911 1.327 . S
C913 C929 1.429 . S
C913 H935 0.950 . S
C914 H910 0.949 . S
C914 C922 1.574 . S
C914 C930 1.368 . S
H915 C923 0.950 . S
H916 C921 0.950 . S
H917 C922 0.949 . S
H918 C924 0.950 . S
H919 C925 0.950 . S
H920 C926 0.949 . S
C921 H916 0.950 . S
C921 C923 1.327 . S
C921 C927 1.429 . S
C922 C914 1.574 . S
C922 H917 0.949 . S
C922 C928 1.368 . S
C923 C907 1.349 . S
C923 H915 0.950 . S
C923 C921 1.327 . S
C924 C912 1.349 . S
C924 H918 0.950 . S
C924 C925 1.327 . S
C925 H919 0.950 . S
C925 C924 1.327 . S
C925 C929 1.429 . S
C926 C909 1.574 . S
C926 H920 0.949 . S
C926 C930 1.368 . S
C927 C908 1.429 . S
C927 C921 1.429 . S
C927 C928 1.523 . S
C928 C909 1.368 . S
C928 C922 1.368 . S
C928 C927 1.523 . S
C929 C913 1.429 . S
C929 C925 1.429 . S
C929 C930 1.523 . S
C930 C914 1.368 . S
C930 C926 1.368 . S
C930 C929 1.523 . S
H931 C906 0.950 . S
H932 C908 0.950 . S
H933 C909 0.949 . S
H934 C911 0.950 . S
H935 C913 0.950 . S
C936 C937 1.349 . S
C936 C938 1.327 . S
C936 H961 0.950 . S
C937 C936 1.349 . S
C937 C953 1.349 . S
C938 C936 1.327 . S
C938 C957 1.429 . S
C938 H962 0.950 . S
C939 C956 1.574 . S
C939 C958 1.368 . S
C939 H963 0.949 . S
H940 C944 0.949 . S
C941 C942 1.349 . S
C941 C943 1.327 . S
C941 H964 0.950 . S
C942 C941 1.349 . S
C942 C954 1.349 . S
C943 C941 1.327 . S
C943 C959 1.429 . S
C943 H965 0.950 . S
C944 H940 0.949 . S
C944 C952 1.574 . S
C944 C960 1.368 . S
H945 C953 0.950 . S
H946 C951 0.950 . S
H947 C952 0.949 . S
H948 C954 0.950 . S
H949 C955 0.950 . S
H950 C956 0.949 . S
C951 H946 0.950 . S
C951 C953 1.327 . S
C951 C957 1.429 . S
C952 C944 1.574 . S
C952 H947 0.949 . S
C952 C958 1.368 . S
C953 C937 1.349 . S
C953 H945 0.950 . S
C953 C951 1.327 . S
C954 C942 1.349 . S
C954 H948 0.950 . S
C954 C955 1.327 . S
C955 H949 0.950 . S
C955 C954 1.327 . S
C955 C959 1.429 . S
C956 C939 1.574 . S
C956 H950 0.949 . S
C956 C960 1.368 . S
C957 C938 1.429 . S
C957 C951 1.429 . S
C957 C958 1.523 . S
C958 C939 1.368 . S
C958 C952 1.368 . S
C958 C957 1.523 . S
C959 C943 1.429 . S
C959 C955 1.429 . S
C959 C960 1.523 . S
C960 C944 1.368 . S
C960 C956 1.368 . S
C960 C959 1.523 . S
H961 C936 0.950 . S
H962 C938 0.950 . S
H963 C939 0.949 . S
H964 C941 0.950 . S
H965 C943 0.950 . S
C966 C967 1.349 . S
C966 C968 1.327 . S
C966 H991 0.950 . S
C967 C966 1.349 . S
C967 C983 1.349 . S
C968 C966 1.327 . S
C968 C987 1.429 . S
C968 H992 0.950 . S
C969 C986 1.574 . S
C969 C988 1.368 . S
C969 H993 0.949 . S
H970 C974 0.949 . S
C971 C972 1.349 . S
C971 C973 1.327 . S
C971 H994 0.950 . S
C972 C971 1.349 . S
C972 C984 1.349 . S
C973 C971 1.327 . S
C973 C989 1.429 . S
C973 H995 0.950 . S
C974 H970 0.949 . S
C974 C982 1.574 . S
C974 C990 1.368 . S
H975 C983 0.950 . S
H976 C981 0.950 . S
H977 C982 0.949 . S
H978 C984 0.950 . S
H979 C985 0.950 . S
H980 C986 0.949 . S
C981 H976 0.950 . S
C981 C983 1.327 . S
C981 C987 1.429 . S
C982 C974 1.574 . S
C982 H977 0.949 . S
C982 C988 1.368 . S
C983 C967 1.349 . S
C983 H975 0.950 . S
C983 C981 1.327 . S
C984 C972 1.349 . S
C984 H978 0.950 . S
C984 C985 1.327 . S
C985 H979 0.950 . S
C985 C984 1.327 . S
C985 C989 1.429 . S
C986 C969 1.574 . S
C986 H980 0.949 . S
C986 C990 1.368 . S
C987 C968 1.429 . S
C987 C981 1.429 . S
C987 C988 1.523 . S
C988 C969 1.368 . S
C988 C982 1.368 . S
C988 C987 1.523 . S
C989 C973 1.429 . S
C989 C985 1.429 . S
C989 C990 1.523 . S
C990 C974 1.368 . S
C990 C986 1.368 . S
C990 C989 1.523 . S
H991 C966 0.950 . S
H992 C968 0.950 . S
H993 C969 0.949 . S
H994 C971 0.950 . S
H995 C973 0.950 . S
C277 C7 1.645 . S
C282 C237 1.645 . S
C307 C30 1.305 . S
C312 N255 1.258 . S
C337 C145 1.306 . S
C342 N48 1.258 . S
C367 C76 1.645 . S
C372 C168 1.645 . S
C397 N186 1.254 . S
C402 C99 1.310 . S
C427 C214 1.306 . S
C432 N117 1.258 . S
C457 N140 0.846 . S
C462 N2 0.853 . S
C487 N163 0.853 . S
C492 N25 0.846 . S
C517 C191 1.383 . S
C522 C53 1.383 . S
C547 N71 0.853 . S
C552 N209 0.846 . S
C577 N94 0.846 . S
C582 N232 0.853 . S
C607 C122 1.383 . S
C612 C260 1.382 . S
C637 N12 2.507 . S
C642 N81 2.507 . S
C667 N35 2.251 . S
C672 N104 2.251 . S
C697 C62 2.577 1_554 S
C702 C131 2.577 1_554 S
C727 N219 2.251 . S
C732 N150 2.251 . S
C757 N242 2.506 . S
C762 N173 2.506 . S
C787 C269 2.577 1_556 S
C792 C200 2.577 1_556 S
C817 C16 2.332 . S
C822 N196 2.331 . S
C847 C223 2.080 . S
C852 C39 2.080 . S
C877 N58 2.335 . S
C882 C246 2.327 . S
C907 N265 2.335 . S
C912 C85 2.327 . S
C937 C108 2.080 . S
C942 C154 2.080 . S
C967 N127 2.335 . S
C972 C177 2.327 . S
