# Generated by pormake.
# Topology unm, (4)-cn, num edge types: 1
# Building blocks:
#     Node 0, Type 0, BuildingBlock: ICAMEG_clean_sbu_1, # of connection points: 4
#     Node 1, Type 0, BuildingBlock: ICAMEG_clean_sbu_1, # of connection points: 4
#     Node 2, Type 0, BuildingBlock: ICAMEG_clean_sbu_1, # of connection points: 4
#     Node 3, Type 0, BuildingBlock: ICAMEG_clean_sbu_1, # of connection points: 4
#     Node 4, Type 0, BuildingBlock: ICAMEG_clean_sbu_1, # of connection points: 4
#     Node 5, Type 0, BuildingBlock: ICAMEG_clean_sbu_1, # of connection points: 4
#     Node 6, Type 0, BuildingBlock: ICAMEG_clean_sbu_1, # of connection points: 4
#     Node 7, Type 0, BuildingBlock: ICAMEG_clean_sbu_1, # of connection points: 4
#     Edge 8, Type (0, 0), BuildingBlock: UVAHIK_clean_linker_0, # of connection points: 2
#     Edge 9, Type (0, 0), BuildingBlock: UVAHIK_clean_linker_0, # of connection points: 2
#     Edge 10, Type (0, 0), BuildingBlock: UVAHIK_clean_linker_0, # of connection points: 2
#     Edge 11, Type (0, 0), BuildingBlock: UVAHIK_clean_linker_0, # of connection points: 2
#     Edge 12, Type (0, 0), BuildingBlock: UVAHIK_clean_linker_0, # of connection points: 2
#     Edge 13, Type (0, 0), BuildingBlock: UVAHIK_clean_linker_0, # of connection points: 2
#     Edge 14, Type (0, 0), BuildingBlock: UVAHIK_clean_linker_0, # of connection points: 2
#     Edge 15, Type (0, 0), BuildingBlock: UVAHIK_clean_linker_0, # of connection points: 2
#     Edge 16, Type (0, 0), BuildingBlock: UVAHIK_clean_linker_0, # of connection points: 2
#     Edge 17, Type (0, 0), BuildingBlock: UVAHIK_clean_linker_0, # of connection points: 2
#     Edge 18, Type (0, 0), BuildingBlock: UVAHIK_clean_linker_0, # of connection points: 2
#     Edge 19, Type (0, 0), BuildingBlock: UVAHIK_clean_linker_0, # of connection points: 2
#     Edge 20, Type (0, 0), BuildingBlock: UVAHIK_clean_linker_0, # of connection points: 2
#     Edge 21, Type (0, 0), BuildingBlock: UVAHIK_clean_linker_0, # of connection points: 2
#     Edge 22, Type (0, 0), BuildingBlock: UVAHIK_clean_linker_0, # of connection points: 2
#     Edge 23, Type (0, 0), BuildingBlock: UVAHIK_clean_linker_0, # of connection points: 2
# Relax obj value: 0.087
# Max RMSD: 0.086
# Mean RMSD: 0.086
data_MOF--net-unm--node1-ICAMEG_clean_sbu_1--edge1-UVAHIK_clean_linker_0
_symmetry_space_group_name_H-M    P1
_symmetry_Int_Tables_number       1
_symmetry_cell_setting            triclinic
loop_
_symmetry_equiv_pos_as_xyz
'x, y, z'
_cell_length_a     32.379381
_cell_length_b     32.376834
_cell_length_c     64.200059
_cell_angle_alpha  89.99716
_cell_angle_beta   90.016344
_cell_angle_gamma 89.994607
loop_
_atom_site_label
_atom_site_type_symbol
_atom_site_fract_x
_atom_site_fract_y
_atom_site_fract_z
_atom_type_partial_charge
Co0 Co 0.20415 0.27475 0.14872 0.0
Co1 Co 0.24396 0.35048 0.18097 0.0
O2 O 0.24987 0.30646 0.16038 0.0
C3 C 0.24367 0.31059 0.11134 0.0
O4 O 0.2434 0.34631 0.12102 0.0
C5 C 0.30281 0.29116 0.19975 0.0
O6 O 0.27774 0.26151 0.19388 0.0
O7 O 0.20648 0.31615 0.19863 0.0
O8 O 0.17725 0.27072 0.1766 0.0
H9 H 0.1661 0.44574 0.22869 0.0
H10 H 0.2903 0.24807 0.14085 0.0
O11 O 0.22987 0.27841 0.12041 0.0
H12 H 0.22445 0.13138 0.17736 0.0
H13 H 0.14145 0.16667 0.10205 0.0
H14 H 0.11317 0.27502 0.15412 0.0
H15 H 0.18463 0.19422 0.16905 0.0
H16 H 0.19852 0.20677 0.11753 0.0
O17 O 0.29339 0.32877 0.19632 0.0
H18 H 0.17347 0.39026 0.20265 0.0
H19 H 0.30384 0.40478 0.20324 0.0
H20 H 0.05522 0.23544 0.13917 0.0
H21 H 0.33121 0.18569 0.14869 0.0
H22 H 0.06921 0.18081 0.11293 0.0
H23 H 0.2983 0.12685 0.16714 0.0
O24 O 0.17197 0.32599 0.14291 0.0
H25 H 0.36997 0.37888 0.13757 0.0
H26 H 0.23987 0.43674 0.16481 0.0
H27 H 0.28422 0.47959 0.14228 0.0
H28 H 0.34984 0.45071 0.12852 0.0
H29 H 0.32453 0.33698 0.16 0.0
H30 H 0.29791 0.46022 0.22942 0.0
H31 H 0.22863 0.48113 0.24227 0.0
O32 O 0.19491 0.37293 0.16598 0.0
C33 C 0.18061 0.2875 0.1945 0.0
C34 C 0.19646 0.43695 0.2232 0.0
C35 C 0.27043 0.44503 0.22363 0.0
N36 N 0.23902 0.39434 0.2014 0.0
C37 C 0.20082 0.4056 0.20842 0.0
C38 C 0.2736 0.41352 0.20886 0.0
C39 C 0.23155 0.45677 0.23082 0.0
C40 C 0.27567 0.22243 0.1487 0.0
N41 N 0.23511 0.22474 0.15445 0.0
C42 C 0.29903 0.18726 0.15317 0.0
C43 C 0.28056 0.15428 0.16356 0.0
C44 C 0.23914 0.15682 0.16931 0.0
C45 C 0.21677 0.19252 0.16463 0.0
C46 C 0.13497 0.19033 0.1135 0.0
C47 C 0.11953 0.25111 0.14281 0.0
C48 C 0.16714 0.21319 0.12228 0.0
N49 N 0.15919 0.24297 0.13683 0.0
C50 C 0.08658 0.22889 0.13435 0.0
C51 C 0.09444 0.19828 0.11962 0.0
C52 C 0.17043 0.36151 0.1515 0.0
C53 C 0.34152 0.39186 0.14352 0.0
C54 C 0.26833 0.42391 0.15885 0.0
C55 C 0.29336 0.44836 0.14613 0.0
C56 C 0.33018 0.43214 0.13843 0.0
N57 N 0.27972 0.38447 0.16382 0.0
C58 C 0.31574 0.36833 0.1563 0.0
Co59 Co 0.2244 0.70246 0.64716 0.0
Co60 Co 0.14966 0.74624 0.67868 0.0
O61 O 0.19466 0.7498 0.65851 0.0
C62 C 0.19104 0.74456 0.60996 0.0
O63 O 0.15656 0.74969 0.62038 0.0
C64 C 0.21033 0.80115 0.69948 0.0
O65 O 0.23841 0.77249 0.69649 0.0
O66 O 0.18167 0.7073 0.69677 0.0
O67 O 0.22697 0.6763 0.67526 0.0
H68 H 0.04968 0.674 0.72618 0.0
H69 H 0.25455 0.78732 0.63906 0.0
O70 O 0.22197 0.72717 0.61856 0.0
H71 H 0.36846 0.71711 0.67577 0.0
H72 H 0.32999 0.63373 0.60122 0.0
H73 H 0.22014 0.61175 0.65325 0.0
H74 H 0.30399 0.67987 0.66761 0.0
H75 H 0.29236 0.69295 0.6162 0.0
O76 O 0.17315 0.79513 0.69376 0.0
H77 H 0.10614 0.67817 0.7005 0.0
H78 H 0.09754 0.80908 0.70017 0.0
H79 H 0.25723 0.55168 0.63881 0.0
H80 H 0.31861 0.8257 0.64674 0.0
H81 H 0.31259 0.56249 0.61259 0.0
H82 H 0.37608 0.79057 0.66527 0.0
O83 O 0.17198 0.67244 0.64132 0.0
H84 H 0.12823 0.87291 0.63469 0.0
H85 H 0.06392 0.74567 0.66172 0.0
H86 H 0.02383 0.79155 0.63866 0.0
H87 H 0.05598 0.85572 0.625 0.0
H88 H 0.16735 0.82597 0.65762 0.0
H89 H 0.04116 0.80634 0.72596 0.0
H90 H 0.01679 0.73841 0.73909 0.0
O91 O 0.12534 0.69793 0.66381 0.0
C92 C 0.20963 0.68045 0.69298 0.0
C93 C 0.05997 0.70378 0.72056 0.0
C94 C 0.05524 0.77805 0.72045 0.0
N95 N 0.10504 0.74381 0.69879 0.0
C96 C 0.09189 0.70633 0.70598 0.0
C97 C 0.08726 0.77942 0.70589 0.0
C98 C 0.04156 0.73993 0.7278 0.0
C99 C 0.27955 0.77177 0.64699 0.0
N100 N 0.27561 0.7314 0.65284 0.0
C101 C 0.31569 0.79368 0.65136 0.0
C102 C 0.34791 0.77397 0.66178 0.0
C103 C 0.34364 0.73276 0.66769 0.0
C104 C 0.30703 0.71186 0.66309 0.0
C105 C 0.30599 0.62863 0.61266 0.0
C106 C 0.24439 0.61672 0.64195 0.0
C107 C 0.28453 0.66203 0.62116 0.0
N108 N 0.25432 0.65581 0.6357 0.0
C109 C 0.26519 0.58258 0.63378 0.0
C110 C 0.29622 0.58866 0.61905 0.0
C111 C 0.13616 0.67265 0.64959 0.0
C112 C 0.11384 0.8451 0.64059 0.0
C113 C 0.07817 0.77348 0.6558 0.0
C114 C 0.05528 0.79939 0.64278 0.0
C115 C 0.07333 0.83541 0.63514 0.0
N116 N 0.11788 0.78322 0.6611 0.0
C117 C 0.13577 0.81849 0.65367 0.0
Co118 Co 0.80094 0.72453 0.14711 0.0
Co119 Co 0.75679 0.64931 0.17821 0.0
O120 O 0.75347 0.69454 0.15814 0.0
C121 C 0.75922 0.6923 0.10951 0.0
O122 O 0.75389 0.65745 0.11959 0.0
C123 C 0.70091 0.70996 0.19827 0.0
O124 O 0.72902 0.73834 0.19474 0.0
O125 O 0.79531 0.68115 0.19659 0.0
O126 O 0.82681 0.72647 0.17529 0.0
H127 H 0.82854 0.54864 0.22557 0.0
H128 H 0.71619 0.75491 0.13893 0.0
O129 O 0.77656 0.72286 0.11845 0.0
H130 H 0.78591 0.86787 0.17659 0.0
H131 H 0.87026 0.83122 0.10204 0.0
H132 H 0.89157 0.71997 0.15341 0.0
H133 H 0.82331 0.80367 0.16809 0.0
H134 H 0.81085 0.79329 0.11662 0.0
O135 O 0.70768 0.67254 0.19319 0.0
H136 H 0.82462 0.60552 0.2001 0.0
H137 H 0.69374 0.59683 0.19931 0.0
H138 H 0.95183 0.75734 0.13937 0.0
H139 H 0.67767 0.81871 0.14695 0.0
H140 H 0.94136 0.8134 0.11348 0.0
H141 H 0.71255 0.8757 0.16597 0.0
O142 O 0.83097 0.67217 0.14109 0.0
H143 H 0.63079 0.62816 0.1337 0.0
H144 H 0.75781 0.56379 0.16098 0.0
H145 H 0.71233 0.52387 0.13765 0.0
H146 H 0.64827 0.55605 0.12386 0.0
H147 H 0.67734 0.6671 0.1569 0.0
H148 H 0.69623 0.54003 0.22489 0.0
H149 H 0.76401 0.51548 0.23814 0.0
O150 O 0.80537 0.6253 0.16344 0.0
C151 C 0.82233 0.70902 0.19296 0.0
C152 C 0.79882 0.55901 0.21989 0.0
C153 C 0.72456 0.55422 0.21953 0.0
N154 N 0.75902 0.60441 0.19818 0.0
C155 C 0.79641 0.59117 0.20544 0.0
C156 C 0.72334 0.58648 0.2051 0.0
C157 C 0.7626 0.54045 0.22695 0.0
C158 C 0.73165 0.77972 0.14706 0.0
N159 N 0.77196 0.77563 0.153 0.0
C160 C 0.70965 0.81571 0.15162 0.0
C161 C 0.72922 0.84764 0.16232 0.0
C162 C 0.77037 0.84326 0.1683 0.0
C163 C 0.79136 0.8068 0.1635 0.0
C164 C 0.87522 0.80691 0.11334 0.0
C165 C 0.88675 0.74452 0.14226 0.0
C166 C 0.84171 0.78527 0.12162 0.0
N167 N 0.84773 0.75467 0.13597 0.0
C168 C 0.921 0.76548 0.13431 0.0
C169 C 0.9151 0.7969 0.11977 0.0
C170 C 0.83073 0.63627 0.14929 0.0
C171 C 0.65856 0.61376 0.13965 0.0
C172 C 0.73005 0.57805 0.155 0.0
C173 C 0.70437 0.55526 0.14183 0.0
C174 C 0.66841 0.57332 0.13412 0.0
N175 N 0.72015 0.61768 0.16038 0.0
C176 C 0.68494 0.63559 0.15288 0.0
Co177 Co 0.77273 0.30193 0.64717 0.0
Co178 Co 0.84894 0.26014 0.67863 0.0
O179 O 0.80392 0.25529 0.65843 0.0
C180 C 0.8065 0.26081 0.6097 0.0
O181 O 0.84129 0.25599 0.61991 0.0
C182 C 0.78948 0.20175 0.69796 0.0
O183 O 0.75949 0.22616 0.69182 0.0
O184 O 0.81611 0.29835 0.69664 0.0
O185 O 0.76962 0.3279 0.67528 0.0
H186 H 0.9475 0.33597 0.72549 0.0
H187 H 0.74459 0.21654 0.63866 0.0
O188 O 0.7755 0.27755 0.61854 0.0
H189 H 0.62952 0.28295 0.67619 0.0
H190 H 0.66479 0.3681 0.60161 0.0
H191 H 0.77471 0.39269 0.65333 0.0
H192 H 0.69286 0.32204 0.66802 0.0
H193 H 0.70413 0.30981 0.61641 0.0
O194 O 0.82695 0.21129 0.6943 0.0
H195 H 0.89085 0.32975 0.7 0.0
H196 H 0.90306 0.19914 0.70026 0.0
H197 H 0.7359 0.45184 0.63907 0.0
H198 H 0.68167 0.17636 0.64635 0.0
H199 H 0.6805 0.43971 0.613 0.0
H200 H 0.62364 0.20956 0.66531 0.0
O201 O 0.8243 0.33342 0.64127 0.0
H202 H 0.87284 0.1332 0.63521 0.0
H203 H 0.93453 0.26234 0.6615 0.0
H204 H 0.97544 0.21693 0.63858 0.0
H205 H 0.94461 0.1518 0.62529 0.0
H206 H 0.8329 0.17969 0.65801 0.0
H207 H 0.95963 0.20391 0.72588 0.0
H208 H 0.98229 0.27272 0.73861 0.0
O209 O 0.87193 0.30864 0.66345 0.0
C210 C 0.78729 0.32429 0.69295 0.0
C211 C 0.93794 0.30581 0.72004 0.0
C212 C 0.94471 0.23169 0.72028 0.0
N213 N 0.89371 0.26415 0.69861 0.0
C214 C 0.90593 0.3021 0.70558 0.0
C215 C 0.91257 0.22917 0.70582 0.0
C216 C 0.95743 0.27031 0.72741 0.0
C217 C 0.7193 0.23128 0.64675 0.0
N218 N 0.72234 0.27159 0.65285 0.0
C219 C 0.68382 0.20834 0.65113 0.0
C220 C 0.6513 0.22697 0.6618 0.0
C221 C 0.6546 0.26814 0.66793 0.0
C222 C 0.69059 0.29008 0.66332 0.0
C223 C 0.6888 0.37377 0.61299 0.0
C224 C 0.75045 0.38715 0.6421 0.0
C225 C 0.71123 0.3409 0.62139 0.0
N226 N 0.74147 0.34783 0.63584 0.0
C227 C 0.72867 0.42077 0.63403 0.0
C228 C 0.69762 0.41395 0.61939 0.0
C229 C 0.86031 0.33381 0.64934 0.0
C230 C 0.88666 0.16143 0.64095 0.0
C231 C 0.92086 0.2341 0.65574 0.0
C232 C 0.94421 0.20847 0.6428 0.0
C233 C 0.9269 0.17192 0.63537 0.0
N234 N 0.88143 0.22357 0.66118 0.0
C235 C 0.86426 0.18778 0.65395 0.0
Co236 Co 0.70262 0.22568 0.35317 0.0
Co237 Co 0.74386 0.14748 0.32285 0.0
O238 O 0.74894 0.19334 0.34253 0.0
C239 C 0.74293 0.19401 0.39139 0.0
O240 O 0.74615 0.15799 0.38214 0.0
C241 C 0.80274 0.20561 0.30312 0.0
O242 O 0.77775 0.23567 0.30853 0.0
O243 O 0.70639 0.17989 0.30424 0.0
O244 O 0.67679 0.22736 0.32501 0.0
H245 H 0.66774 0.04746 0.27692 0.0
H246 H 0.78834 0.2534 0.36123 0.0
O247 O 0.72705 0.22458 0.38181 0.0
H248 H 0.72312 0.36689 0.32195 0.0
H249 H 0.6374 0.33716 0.39686 0.0
H250 H 0.61186 0.2242 0.34696 0.0
H251 H 0.68334 0.30455 0.33115 0.0
H252 H 0.69533 0.29631 0.38278 0.0
O253 O 0.79335 0.16826 0.30721 0.0
H254 H 0.67414 0.10524 0.30173 0.0
H255 H 0.80463 0.09182 0.30211 0.0
H256 H 0.55307 0.26449 0.36051 0.0
H257 H 0.82921 0.31535 0.35252 0.0
H258 H 0.56567 0.32143 0.38566 0.0
H259 H 0.79663 0.37257 0.33267 0.0
O260 O 0.6706 0.17475 0.35978 0.0
H261 H 0.86945 0.12414 0.36736 0.0
H262 H 0.74029 0.06272 0.34095 0.0
H263 H 0.78464 0.02236 0.36464 0.0
H264 H 0.84977 0.05306 0.37799 0.0
H265 H 0.82401 0.16355 0.34378 0.0
H266 H 0.79967 0.03408 0.27717 0.0
H267 H 0.73083 0.01146 0.26446 0.0
O268 O 0.69471 0.12588 0.33809 0.0
C269 C 0.68056 0.20899 0.30754 0.0
C270 C 0.69791 0.05699 0.28236 0.0
C271 C 0.77196 0.04952 0.28248 0.0
N272 N 0.73969 0.10183 0.3034 0.0
C273 C 0.70172 0.08965 0.29644 0.0
C274 C 0.77458 0.08232 0.29655 0.0
C275 C 0.73332 0.03683 0.27537 0.0
C276 C 0.77385 0.27836 0.35276 0.0
N277 N 0.73349 0.2754 0.34673 0.0
C278 C 0.79719 0.31328 0.34781 0.0
C279 C 0.7789 0.34534 0.33664 0.0
C280 C 0.73768 0.34216 0.3306 0.0
C281 C 0.71533 0.30673 0.33579 0.0
C282 C 0.63152 0.31247 0.38588 0.0
C283 C 0.61762 0.2491 0.3578 0.0
C284 C 0.66419 0.28918 0.3779 0.0
N285 N 0.657 0.25809 0.36395 0.0
C286 C 0.58419 0.27173 0.36546 0.0
C287 C 0.59128 0.30364 0.37959 0.0
C288 C 0.66964 0.13845 0.35205 0.0
C289 C 0.84121 0.11038 0.3616 0.0
C290 C 0.76853 0.07633 0.34673 0.0
C291 C 0.79356 0.05329 0.36011 0.0
C292 C 0.83012 0.07052 0.36758 0.0
N293 N 0.77965 0.11538 0.3409 0.0
C294 C 0.81544 0.13248 0.34817 0.0
Co295 Co 0.28312 0.20464 0.8564 0.0
Co296 Co 0.35196 0.24556 0.82134 0.0
O297 O 0.30953 0.25162 0.84277 0.0
C298 C 0.3119 0.25373 0.89241 0.0
O299 O 0.34845 0.25473 0.88356 0.0
C300 C 0.29133 0.30413 0.80308 0.0
O301 O 0.26184 0.2793 0.80939 0.0
O302 O 0.31585 0.2078 0.80477 0.0
O303 O 0.28452 0.17163 0.83013 0.0
H304 H 0.44209 0.16679 0.77153 0.0
H305 H 0.24442 0.28728 0.86015 0.0
O306 O 0.28178 0.23603 0.88327 0.0
H307 H 0.14036 0.19998 0.82539 0.0
H308 H 0.18125 0.13803 0.90517 0.0
H309 H 0.29566 0.11377 0.85599 0.0
H310 H 0.20762 0.1709 0.83592 0.0
H311 H 0.21447 0.1964 0.88704 0.0
O312 O 0.32902 0.2947 0.80621 0.0
H313 H 0.38896 0.17473 0.79876 0.0
H314 H 0.40472 0.30496 0.79781 0.0
H315 H 0.26316 0.05452 0.87368 0.0
H316 H 0.17739 0.31753 0.85007 0.0
H317 H 0.2055 0.06647 0.89848 0.0
H318 H 0.12488 0.2738 0.8325 0.0
O319 O 0.33765 0.18091 0.86399 0.0
H320 H 0.38369 0.37247 0.86346 0.0
H321 H 0.43972 0.24218 0.83548 0.0
H322 H 0.48433 0.28716 0.85679 0.0
H323 H 0.45638 0.35289 0.87091 0.0
H324 H 0.34002 0.32637 0.84224 0.0
H325 H 0.45777 0.29846 0.77044 0.0
H326 H 0.4769 0.22896 0.75719 0.0
O327 O 0.37632 0.19664 0.83606 0.0
C328 C 0.2952 0.17676 0.8112 0.0
C329 C 0.4341 0.19723 0.77722 0.0
C330 C 0.44286 0.27114 0.77658 0.0
N331 N 0.39392 0.24024 0.79995 0.0
C332 C 0.4041 0.20191 0.79266 0.0
C333 C 0.41271 0.27463 0.79204 0.0
C334 C 0.45359 0.23213 0.76916 0.0
C335 C 0.22154 0.26795 0.85271 0.0
N336 N 0.22984 0.22735 0.8487 0.0
C337 C 0.18372 0.2853 0.84696 0.0
C338 C 0.1543 0.26076 0.83706 0.0
C339 C 0.16299 0.21935 0.83305 0.0
C340 C 0.20117 0.20308 0.83899 0.0
C341 C 0.20628 0.13242 0.89437 0.0
C342 C 0.27042 0.11922 0.86665 0.0
C343 C 0.22525 0.16535 0.88408 0.0
N344 N 0.25675 0.15848 0.87033 0.0
C345 C 0.25221 0.08555 0.87667 0.0
C346 C 0.21989 0.09228 0.8906 0.0
C347 C 0.37013 0.17672 0.85296 0.0
C348 C 0.39626 0.34397 0.85735 0.0
C349 C 0.42727 0.27065 0.84162 0.0
C350 C 0.45272 0.29605 0.85364 0.0
C351 C 0.43702 0.33293 0.86155 0.0
N352 N 0.38735 0.28173 0.83753 0.0
C353 C 0.37173 0.31782 0.84525 0.0
Co354 Co 0.29852 0.77863 0.3555 0.0
Co355 Co 0.25829 0.84884 0.32063 0.0
O356 O 0.25197 0.80645 0.34215 0.0
C357 C 0.25097 0.80961 0.39174 0.0
O358 O 0.24805 0.84545 0.38227 0.0
C359 C 0.19955 0.78826 0.30248 0.0
O360 O 0.22413 0.75871 0.30898 0.0
O361 O 0.29619 0.81288 0.30402 0.0
O362 O 0.32972 0.77727 0.32877 0.0
H363 H 0.33733 0.93865 0.27078 0.0
H364 H 0.21448 0.74391 0.36057 0.0
O365 O 0.26896 0.77942 0.38284 0.0
H366 H 0.29536 0.63448 0.32607 0.0
H367 H 0.36409 0.67552 0.40403 0.0
H368 H 0.38961 0.78787 0.35379 0.0
H369 H 0.32796 0.7007 0.33557 0.0
H370 H 0.30596 0.71033 0.38646 0.0
O371 O 0.20921 0.82594 0.30543 0.0
H372 H 0.32925 0.8857 0.2981 0.0
H373 H 0.19905 0.9017 0.29704 0.0
H374 H 0.44865 0.75368 0.37088 0.0
H375 H 0.18072 0.67799 0.35152 0.0
H376 H 0.43606 0.69707 0.39621 0.0
H377 H 0.22122 0.62278 0.33408 0.0
O378 O 0.32479 0.83247 0.36236 0.0
H379 H 0.13105 0.88079 0.36246 0.0
H380 H 0.26176 0.93652 0.33484 0.0
H381 H 0.21669 0.98122 0.35606 0.0
H382 H 0.15076 0.95341 0.36999 0.0
H383 H 0.17723 0.83704 0.34133 0.0
H384 H 0.2057 0.95461 0.2696 0.0
H385 H 0.27525 0.9735 0.25634 0.0
O386 O 0.30705 0.87301 0.33541 0.0
C387 C 0.32556 0.78935 0.31 0.0
C388 C 0.30686 0.93076 0.27647 0.0
C389 C 0.23299 0.93968 0.27578 0.0
N390 N 0.26375 0.8908 0.29924 0.0
C391 C 0.3021 0.90088 0.29197 0.0
C392 C 0.22941 0.90962 0.29129 0.0
C393 C 0.27202 0.95028 0.26836 0.0
C394 C 0.23239 0.71985 0.35318 0.0
N395 N 0.27315 0.72608 0.34867 0.0
C396 C 0.21307 0.68267 0.34801 0.0
C397 C 0.2358 0.65173 0.33819 0.0
C398 C 0.27739 0.6583 0.33367 0.0
C399 C 0.29565 0.6959 0.33903 0.0
C400 C 0.36998 0.70009 0.393 0.0
C401 C 0.38388 0.7631 0.36471 0.0
C402 C 0.33719 0.71997 0.38303 0.0
N403 N 0.3444 0.7509 0.36901 0.0
C404 C 0.41744 0.74393 0.37437 0.0
C405 C 0.41035 0.71219 0.3886 0.0
C406 C 0.32814 0.86568 0.35181 0.0
C407 C 0.15964 0.8933 0.35642 0.0
C408 C 0.2332 0.92414 0.3409 0.0
C409 C 0.20775 0.94964 0.35287 0.0
C410 C 0.17075 0.93402 0.36067 0.0
N411 N 0.22206 0.88425 0.33677 0.0
C412 C 0.18584 0.86872 0.34438 0.0
Co413 Co 0.72722 0.7996 0.85358 0.0
Co414 Co 0.64953 0.76004 0.82236 0.0
O415 O 0.69485 0.75392 0.84228 0.0
C416 C 0.69448 0.75825 0.8913 0.0
O417 O 0.65858 0.75559 0.88188 0.0
C418 C 0.70787 0.70158 0.80246 0.0
O419 O 0.7379 0.72632 0.80821 0.0
O420 O 0.68254 0.79811 0.80432 0.0
O421 O 0.7297 0.82646 0.8257 0.0
H422 H 0.55095 0.83841 0.77657 0.0
H423 H 0.75421 0.71339 0.86092 0.0
O424 O 0.72533 0.77413 0.88195 0.0
H425 H 0.86912 0.77948 0.82312 0.0
H426 H 0.83789 0.86256 0.89862 0.0
H427 H 0.72634 0.89059 0.84824 0.0
H428 H 0.80675 0.81927 0.8323 0.0
H429 H 0.79719 0.80538 0.88367 0.0
O430 O 0.67048 0.71103 0.80639 0.0
H431 H 0.608 0.83079 0.80173 0.0
H432 H 0.59421 0.70035 0.8006 0.0
H433 H 0.76651 0.94865 0.86266 0.0
H434 H 0.81615 0.6725 0.85223 0.0
H435 H 0.82273 0.9348 0.88806 0.0
H436 H 0.87409 0.70553 0.83312 0.0
O437 O 0.67632 0.83166 0.86017 0.0
H438 H 0.62439 0.63287 0.86543 0.0
H439 H 0.56433 0.76336 0.8399 0.0
H440 H 0.5231 0.71829 0.86283 0.0
H441 H 0.55311 0.65247 0.87574 0.0
H442 H 0.66467 0.67903 0.84261 0.0
H443 H 0.53721 0.70654 0.77529 0.0
H444 H 0.51515 0.77598 0.76316 0.0
O445 O 0.6278 0.80873 0.83794 0.0
C446 C 0.71171 0.8236 0.80809 0.0
C447 C 0.56024 0.80799 0.78175 0.0
C448 C 0.55258 0.73398 0.78102 0.0
N449 N 0.60439 0.76519 0.80265 0.0
C450 C 0.59249 0.80348 0.79602 0.0
C451 C 0.58497 0.73066 0.79529 0.0
C452 C 0.54019 0.77295 0.77422 0.0
C453 C 0.77947 0.72806 0.85278 0.0
N454 N 0.77691 0.76868 0.84714 0.0
C455 C 0.81439 0.70472 0.84783 0.0
C456 C 0.84686 0.72325 0.83707 0.0
C457 C 0.84407 0.76473 0.83144 0.0
C458 C 0.80863 0.78708 0.83661 0.0
C459 C 0.81352 0.86899 0.88754 0.0
C460 C 0.75094 0.88429 0.85918 0.0
C461 C 0.79031 0.83675 0.87906 0.0
N462 N 0.75961 0.84463 0.865 0.0
C463 C 0.7735 0.9173 0.86734 0.0
C464 C 0.80501 0.90951 0.8816 0.0
C465 C 0.64022 0.83318 0.85222 0.0
C466 C 0.61093 0.6614 0.85986 0.0
C467 C 0.57764 0.73483 0.84549 0.0
C468 C 0.55411 0.70939 0.85844 0.0
C469 C 0.57096 0.67245 0.86566 0.0
N470 N 0.6168 0.72374 0.83983 0.0
C471 C 0.63353 0.68758 0.84686 0.0
C472 C 0.25935 0.2692 0.07943 0.0
C473 C 0.25681 0.30786 0.08929 0.0
C474 C 0.26811 0.26644 0.05819 0.0
C475 C 0.3085 0.32427 0.01267 0.0
H476 H 0.24309 0.2445 0.982 0.0
C477 C 0.34051 0.27836 0.92659 0.0
C478 C 0.30629 0.26878 0.914 0.0
C479 C 0.33519 0.28743 0.94775 0.0
C480 C 0.26132 0.26729 0.99024 0.0
H481 H 0.26307 0.37395 0.0847 0.0
H482 H 0.27781 0.36913 0.04746 0.0
H483 H 0.23357 0.25142 0.01931 0.0
H484 H 0.23946 0.26389 0.91343 0.0
H485 H 0.23019 0.28049 0.95006 0.0
H486 H 0.33566 0.34058 0.98333 0.0
C487 C 0.27337 0.34092 0.05623 0.0
C488 C 0.25631 0.27081 0.01174 0.0
C489 C 0.26475 0.34368 0.07757 0.0
C490 C 0.26654 0.27061 0.92274 0.0
C491 C 0.26124 0.27988 0.9438 0.0
C492 C 0.31352 0.32076 0.99106 0.0
C493 C 0.27435 0.30227 0.04622 0.0
C494 C 0.27995 0.29915 0.02327 0.0
C495 C 0.29554 0.28728 0.95671 0.0
C496 C 0.28995 0.29219 0.97959 0.0
H497 H 0.25388 0.24094 0.08803 0.0
H498 H 0.26957 0.23613 0.05109 0.0
H499 H 0.32736 0.34626 0.0211 0.0
H500 H 0.37155 0.27723 0.92033 0.0
H501 H 0.36231 0.29278 0.95725 0.0
C502 C 0.22236 0.73657 0.57468 0.0
C503 C 0.19309 0.75567 0.58765 0.0
C504 C 0.22285 0.74466 0.55334 0.0
C505 C 0.20105 0.81931 0.51357 0.0
H506 H 0.19239 0.72475 0.47676 0.0
C507 C 0.21376 0.83556 0.42363 0.0
C508 C 0.23657 0.80455 0.41349 0.0
C509 C 0.20237 0.83097 0.44458 0.0
C510 C 0.19529 0.75151 0.48676 0.0
H511 H 0.14227 0.79926 0.58857 0.0
H512 H 0.14414 0.81445 0.55107 0.0
H513 H 0.18587 0.71517 0.51424 0.0
H514 H 0.26512 0.74437 0.41744 0.0
H515 H 0.24661 0.73703 0.45369 0.0
H516 H 0.2128 0.85544 0.48627 0.0
C517 C 0.16616 0.79277 0.55755 0.0
C518 C 0.19125 0.74597 0.50822 0.0
C519 C 0.16506 0.784 0.57892 0.0
C520 C 0.24727 0.76878 0.42465 0.0
C521 C 0.23631 0.76441 0.44552 0.0
C522 C 0.20585 0.82482 0.49206 0.0
C523 C 0.19465 0.77262 0.54457 0.0
C524 C 0.19484 0.77965 0.52182 0.0
C525 C 0.21379 0.79541 0.45584 0.0
C526 C 0.20394 0.79078 0.47841 0.0
H527 H 0.24426 0.71448 0.58091 0.0
H528 H 0.24529 0.72899 0.54362 0.0
H529 H 0.20402 0.84571 0.52383 0.0
H530 H 0.20493 0.86344 0.41543 0.0
H531 H 0.18463 0.85529 0.45193 0.0
C532 C 0.72027 0.66755 0.07804 0.0
C533 C 0.74828 0.69535 0.08721 0.0
C534 C 0.71157 0.66981 0.05668 0.0
C535 C 0.75827 0.69901 0.00778 0.0
H536 H 0.64828 0.71865 0.98603 0.0
C537 C 0.73431 0.757 0.92457 0.0
C538 C 0.69915 0.74507 0.91326 0.0
C539 C 0.73867 0.74619 0.94546 0.0
C540 C 0.67908 0.7123 0.99176 0.0
H541 H 0.78895 0.74731 0.08125 0.0
H542 H 0.77453 0.7504 0.044 0.0
H543 H 0.65817 0.70799 0.02346 0.0
H544 H 0.64118 0.71175 0.91496 0.0
H545 H 0.64933 0.69172 0.95149 0.0
H546 H 0.77952 0.70258 0.97638 0.0
C547 C 0.75908 0.72721 0.05336 0.0
C548 C 0.68467 0.7064 0.0132 0.0
C549 C 0.76713 0.72554 0.07468 0.0
C550 C 0.66857 0.72155 0.9233 0.0
C551 C 0.67317 0.71027 0.94426 0.0
C552 C 0.75267 0.70418 0.98639 0.0
C553 C 0.73145 0.69927 0.04415 0.0
C554 C 0.72446 0.70078 0.02139 0.0
C555 C 0.70828 0.72259 0.95563 0.0
C556 C 0.71318 0.71212 0.97812 0.0
H557 H 0.7052 0.64407 0.08734 0.0
H558 H 0.69014 0.64795 0.04986 0.0
H559 H 0.78919 0.69411 0.01375 0.0
H560 H 0.75829 0.77551 0.91741 0.0
H561 H 0.76562 0.75723 0.95375 0.0
C562 C 0.77972 0.1691 0.42355 0.0
C563 C 0.75569 0.19911 0.41338 0.0
C564 C 0.79074 0.17411 0.44452 0.0
C565 C 0.79493 0.25406 0.48649 0.0
H566 H 0.79333 0.15969 0.5237 0.0
C567 C 0.77353 0.26845 0.57479 0.0
C568 C 0.8039 0.24999 0.58737 0.0
C569 C 0.77211 0.26043 0.55346 0.0
C570 C 0.79431 0.18617 0.5134 0.0
H571 H 0.72401 0.25766 0.41731 0.0
H572 H 0.74183 0.26569 0.45369 0.0
H573 H 0.7828 0.14937 0.48631 0.0
H574 H 0.85586 0.20772 0.58757 0.0
H575 H 0.85243 0.1927 0.55007 0.0
H576 H 0.80428 0.29094 0.51378 0.0
C577 C 0.75348 0.23888 0.44549 0.0
C578 C 0.78846 0.18034 0.49198 0.0
C579 C 0.74294 0.23413 0.42458 0.0
C580 C 0.83221 0.22247 0.57822 0.0
C581 C 0.83022 0.21379 0.55686 0.0
C582 C 0.80004 0.25989 0.50787 0.0
C583 C 0.77762 0.20906 0.45579 0.0
C584 C 0.78787 0.21436 0.47829 0.0
C585 C 0.80051 0.23323 0.54428 0.0
C586 C 0.79909 0.22612 0.52154 0.0
H587 H 0.79017 0.14184 0.41531 0.0
H588 H 0.80973 0.15071 0.45184 0.0
H589 H 0.79591 0.28089 0.47643 0.0
H590 H 0.75137 0.2899 0.58132 0.0
H591 H 0.74872 0.27553 0.54408 0.0
C592 C 0.36649 0.31221 0.21913 0.0
C593 C 0.34336 0.28123 0.20921 0.0
C594 C 0.40551 0.30355 0.22735 0.0
C595 C 0.47348 0.21674 0.24379 0.0
H596 H 0.55737 0.30223 0.24271 0.0
C597 C 0.63839 0.19021 0.27607 0.0
C598 C 0.65007 0.21953 0.29114 0.0
C599 C 0.60419 0.19735 0.26318 0.0
C600 C 0.53426 0.27805 0.24307 0.0
H601 H 0.3432 0.21681 0.2 0.0
H602 H 0.41175 0.20185 0.21388 0.0
H603 H 0.49079 0.31456 0.22609 0.0
H604 H 0.63655 0.28043 0.30349 0.0
H605 H 0.57783 0.2932 0.28071 0.0
H606 H 0.51737 0.18026 0.26073 0.0
C607 C 0.39941 0.2327 0.21576 0.0
C608 C 0.49593 0.28517 0.2337 0.0
C609 C 0.36009 0.24128 0.20774 0.0
C610 C 0.62843 0.25716 0.29209 0.0
C611 C 0.59479 0.26455 0.27899 0.0
C612 C 0.51204 0.20946 0.25294 0.0
C613 C 0.42275 0.26378 0.22562 0.0
C614 C 0.46466 0.25494 0.23428 0.0
C615 C 0.58156 0.23428 0.26482 0.0
C616 C 0.54256 0.24031 0.25301 0.0
H617 H 0.3544 0.34327 0.22064 0.0
H618 H 0.42195 0.3281 0.23525 0.0
H619 H 0.45016 0.19287 0.24482 0.0
H620 H 0.65425 0.16086 0.27495 0.0
H621 H 0.59484 0.17362 0.25226 0.0
C622 C 0.19673 0.87614 0.70606 0.0
C623 C 0.2216 0.84104 0.70921 0.0
C624 C 0.20671 0.91378 0.71549 0.0
C625 C 0.25475 0.95583 0.76146 0.0
H626 H 0.26473 0.05863 0.73085 0.0
C627 C 0.30642 0.10307 0.80332 0.0
C628 C 0.28964 0.14112 0.79727 0.0
C629 C 0.29993 0.06777 0.79136 0.0
C630 C 0.26143 0.0304 0.73972 0.0
H631 H 0.27656 0.81798 0.72458 0.0
H632 H 0.29318 0.88361 0.74167 0.0
H633 H 0.24971 0.99446 0.71219 0.0
H634 H 0.25352 0.17277 0.77389 0.0
H635 H 0.24016 0.11037 0.75321 0.0
H636 H 0.26429 0.99116 0.78904 0.0
C637 C 0.26628 0.88192 0.73167 0.0
C638 C 0.25312 0.99362 0.72897 0.0
C639 C 0.25682 0.84446 0.72187 0.0
C640 C 0.2668 0.14362 0.77877 0.0
C641 C 0.2594 0.10787 0.76693 0.0
C642 C 0.26219 0.99256 0.77223 0.0
C643 C 0.24125 0.91688 0.7286 0.0
C644 C 0.25011 0.95598 0.73976 0.0
C645 C 0.27545 0.06926 0.77325 0.0
C646 C 0.26617 0.03039 0.76153 0.0
H647 H 0.16953 0.87455 0.69626 0.0
H648 H 0.18681 0.94021 0.71297 0.0
H649 H 0.25182 0.92732 0.77017 0.0
H650 H 0.32472 0.10065 0.81742 0.0
H651 H 0.31411 0.03922 0.79645 0.0
C652 C 0.36095 0.79529 0.27501 0.0
C653 C 0.35923 0.77849 0.29523 0.0
C654 C 0.39594 0.78922 0.26246 0.0
C655 C 0.50683 0.77201 0.26748 0.0
H656 H 0.50481 0.73143 0.21067 0.0
C657 C 0.65456 0.7599 0.21705 0.0
C658 C 0.66054 0.72124 0.20756 0.0
C659 C 0.61653 0.76985 0.22616 0.0
C660 C 0.50576 0.74295 0.22651 0.0
H661 H 0.39242 0.7403 0.31754 0.0
H662 H 0.45292 0.73046 0.29587 0.0
H663 H 0.43964 0.74223 0.22945 0.0
H664 H 0.63082 0.66323 0.1996 0.0
H665 H 0.56454 0.68082 0.2153 0.0
H666 H 0.57274 0.77245 0.26473 0.0
C667 C 0.42745 0.74856 0.28981 0.0
C668 C 0.46853 0.74934 0.23717 0.0
C669 C 0.39254 0.75411 0.30218 0.0
C670 C 0.62737 0.69319 0.20692 0.0
C671 C 0.58925 0.70336 0.21575 0.0
C672 C 0.54392 0.76625 0.25675 0.0
C673 C 0.42995 0.76672 0.27002 0.0
C674 C 0.4688 0.76317 0.2579 0.0
C675 C 0.58352 0.74162 0.22564 0.0
C676 C 0.54385 0.75102 0.23627 0.0
H677 H 0.33597 0.81426 0.26915 0.0
H678 H 0.39711 0.80347 0.24721 0.0
H679 H 0.50789 0.78304 0.2834 0.0
H680 H 0.67942 0.78224 0.21773 0.0
H681 H 0.6129 0.79966 0.23359 0.0
C682 C 0.74047 0.14465 0.70772 0.0
C683 C 0.78024 0.16205 0.70846 0.0
C684 C 0.73261 0.10629 0.71704 0.0
C685 C 0.77084 0.03741 0.7581 0.0
H686 H 0.71314 0.95037 0.72851 0.0
C687 C 0.76066 0.87579 0.7935 0.0
C688 C 0.72267 0.85499 0.7922 0.0
C689 C 0.76829 0.91076 0.78139 0.0
C690 C 0.7289 0.97446 0.73709 0.0
H691 H 0.84281 0.15298 0.7197 0.0
H692 H 0.82889 0.08668 0.73618 0.0
H693 H 0.7234 0.01755 0.7118 0.0
H694 H 0.66373 0.85337 0.77619 0.0
H695 H 0.67654 0.91514 0.75541 0.0
H696 H 0.77565 0.99532 0.78354 0.0
C697 C 0.80383 0.10256 0.72837 0.0
C698 C 0.73477 0.01293 0.7275 0.0
C699 C 0.81181 0.1405 0.71886 0.0
C700 C 0.69338 0.86859 0.77755 0.0
C701 C 0.70078 0.90408 0.7656 0.0
C702 C 0.76464 0.99927 0.76774 0.0
C703 C 0.76421 0.08495 0.72754 0.0
C704 C 0.75617 0.04464 0.73785 0.0
C705 C 0.73785 0.9264 0.76788 0.0
C706 C 0.74401 0.96704 0.75732 0.0
H707 H 0.71557 0.16037 0.6997 0.0
H708 H 0.70171 0.09355 0.71627 0.0
H709 H 0.78683 0.06148 0.76661 0.0
H710 H 0.78411 0.86591 0.80444 0.0
H711 H 0.79774 0.92623 0.78309 0.0
C712 C 0.86525 0.18359 0.28306 0.0
C713 C 0.8431 0.21487 0.29331 0.0
C714 C 0.90402 0.19168 0.27441 0.0
C715 C 0.9731 0.27797 0.25796 0.0
H716 H 0.05521 0.19074 0.25699 0.0
C717 C 0.13855 0.30368 0.22636 0.0
C718 C 0.14957 0.27587 0.21046 0.0
C719 C 0.10409 0.296 0.23896 0.0
C720 C 0.03258 0.21539 0.25719 0.0
H721 H 0.84446 0.27914 0.30272 0.0
H722 H 0.91267 0.29304 0.28823 0.0
H723 H 0.98893 0.17875 0.27397 0.0
H724 H 0.13449 0.2169 0.1963 0.0
H725 H 0.07531 0.20306 0.21867 0.0
H726 H 0.01732 0.31465 0.24137 0.0
C727 C 0.89971 0.26245 0.28633 0.0
C728 C 0.99439 0.20848 0.26677 0.0
C729 C 0.86058 0.25448 0.29472 0.0
C730 C 0.12692 0.23901 0.20836 0.0
C731 C 0.09301 0.23101 0.2212 0.0
C732 C 0.01154 0.28504 0.24866 0.0
C733 C 0.92206 0.23112 0.27607 0.0
C734 C 0.96377 0.23942 0.26698 0.0
C735 C 0.08052 0.25994 0.23623 0.0
C736 C 0.04143 0.25363 0.24791 0.0
H737 H 0.85251 0.15279 0.28159 0.0
H738 H 0.91962 0.16696 0.26623 0.0
H739 H 0.95029 0.3024 0.25748 0.0
H740 H 0.15519 0.3324 0.22839 0.0
H741 H 0.09532 0.31866 0.25056 0.0
C742 C 0.19151 0.63869 0.72472 0.0
C743 C 0.22022 0.64955 0.70921 0.0
C744 C 0.19859 0.60447 0.73762 0.0
C745 C 0.2791 0.53366 0.75707 0.0
H746 H 0.19241 0.45106 0.75754 0.0
C747 C 0.31202 0.36662 0.78265 0.0
C748 C 0.28128 0.34434 0.79324 0.0
C749 C 0.30343 0.40531 0.77403 0.0
C750 C 0.21673 0.47398 0.75795 0.0
H751 H 0.27998 0.63436 0.69599 0.0
H752 H 0.29271 0.57563 0.71878 0.0
H753 H 0.18004 0.51783 0.74107 0.0
H754 H 0.21732 0.34536 0.80317 0.0
H755 H 0.20249 0.41345 0.78861 0.0
H756 H 0.31581 0.49032 0.77402 0.0
C757 C 0.26456 0.59326 0.72084 0.0
C758 C 0.20959 0.51228 0.74847 0.0
C759 C 0.25719 0.62692 0.70774 0.0
C760 C 0.2416 0.3616 0.79494 0.0
C761 C 0.23309 0.40064 0.78652 0.0
C762 C 0.28609 0.49562 0.76678 0.0
C763 C 0.23489 0.58098 0.73554 0.0
C764 C 0.24096 0.54224 0.7476 0.0
C765 C 0.26397 0.42316 0.77602 0.0
C766 C 0.25531 0.46486 0.76699 0.0
H767 H 0.16265 0.65531 0.72624 0.0
H768 H 0.17534 0.59587 0.74894 0.0
H769 H 0.30369 0.55634 0.75684 0.0
H770 H 0.34286 0.35409 0.78091 0.0
H771 H 0.32779 0.42103 0.76564 0.0
C772 C 0.14184 0.7387 0.29449 0.0
C773 C 0.15924 0.77831 0.29271 0.0
C774 C 0.10266 0.73034 0.28619 0.0
C775 C 0.00763 0.78373 0.26684 0.0
H776 H 0.98471 0.67801 0.24095 0.0
C777 C 0.87583 0.75622 0.208 0.0
C778 C 0.85313 0.71927 0.20929 0.0
C779 C 0.90953 0.76325 0.22111 0.0
C780 C 0.99045 0.70747 0.24841 0.0
H781 H 0.1496 0.8399 0.28035 0.0
H782 H 0.08241 0.82508 0.2653 0.0
H783 H 0.05173 0.68995 0.25726 0.0
H784 H 0.84725 0.66138 0.22604 0.0
H785 H 0.90677 0.67348 0.24879 0.0
H786 H 0.94687 0.80167 0.25713 0.0
C787 C 0.09814 0.80067 0.27366 0.0
C788 C 0.0289 0.71436 0.25779 0.0
C789 C 0.13697 0.80911 0.28214 0.0
C790 C 0.86393 0.69023 0.22467 0.0
C791 C 0.8982 0.69698 0.23758 0.0
C792 C 0.96945 0.77698 0.25724 0.0
C793 C 0.08015 0.7613 0.27574 0.0
C794 C 0.03828 0.75283 0.26688 0.0
C795 C 0.92179 0.73325 0.23566 0.0
C796 C 0.96062 0.73897 0.24769 0.0
H797 H 0.15806 0.71437 0.3027 0.0
H798 H 0.08975 0.69979 0.28833 0.0
H799 H 0.01316 0.81337 0.27412 0.0
H800 H 0.86844 0.77925 0.19635 0.0
H801 H 0.92722 0.79138 0.21917 0.0
C802 C 0.73931 0.37755 0.70762 0.0
C803 C 0.77642 0.35514 0.70914 0.0
C804 C 0.73184 0.41137 0.72061 0.0
C805 C 0.78695 0.49297 0.74758 0.0
H806 H 0.68135 0.51534 0.77366 0.0
C807 C 0.75688 0.64391 0.79387 0.0
C808 C 0.71721 0.66132 0.79255 0.0
C809 C 0.76486 0.60481 0.78544 0.0
C810 C 0.71089 0.50993 0.76625 0.0
H811 H 0.83404 0.34984 0.72619 0.0
H812 H 0.82118 0.4095 0.74867 0.0
H813 H 0.69305 0.44905 0.75664 0.0
H814 H 0.65506 0.65178 0.78093 0.0
H815 H 0.66924 0.58467 0.76556 0.0
H816 H 0.80438 0.55429 0.75628 0.0
C817 C 0.79791 0.40064 0.73739 0.0
C818 C 0.71764 0.47174 0.75665 0.0
C819 C 0.8051 0.36629 0.72462 0.0
C820 C 0.68591 0.63912 0.78233 0.0
C821 C 0.694 0.60035 0.77368 0.0
C822 C 0.78004 0.53141 0.75693 0.0
C823 C 0.76155 0.42399 0.73523 0.0
C824 C 0.75559 0.46299 0.74704 0.0
C825 C 0.73348 0.58238 0.77527 0.0
C826 C 0.74172 0.54065 0.7662 0.0
H827 H 0.71654 0.36988 0.69589 0.0
H828 H 0.70364 0.42888 0.7185 0.0
H829 H 0.81634 0.48729 0.74005 0.0
H830 H 0.78156 0.66007 0.80183 0.0
H831 H 0.79549 0.5919 0.78726 0.0
C832 C 0.86432 0.5668 0.15213 0.0
C833 C 0.86286 0.60618 0.1429 0.0
C834 C 0.89669 0.53971 0.14775 0.0
C835 C 0.96057 0.4807 0.13073 0.0
H836 H 0.07004 0.52913 0.13145 0.0
C837 C 0.10749 0.37934 0.13031 0.0
C838 C 0.13766 0.3908 0.14499 0.0
C839 C 0.07485 0.40607 0.12553 0.0
C840 C 0.03968 0.5151 0.13119 0.0
H841 H 0.89356 0.6471 0.12104 0.0
H842 H 0.94983 0.59946 0.1132 0.0
H843 H 0.00966 0.57389 0.13144 0.0
H844 H 0.15765 0.44007 0.16565 0.0
H845 H 0.10081 0.48598 0.15759 0.0
H846 H 0.99061 0.4219 0.13172 0.0
C847 C 0.92618 0.5899 0.12411 0.0
C848 C 0.00502 0.54079 0.13092 0.0
C849 C 0.89377 0.61712 0.12852 0.0
C850 C 0.13508 0.43008 0.15426 0.0
C851 C 0.10254 0.45668 0.1495 0.0
C852 C 0.99525 0.455 0.13109 0.0
C853 C 0.92841 0.55115 0.13397 0.0
C854 C 0.96501 0.52391 0.13124 0.0
C855 C 0.07171 0.44484 0.13529 0.0
C856 C 0.03521 0.47192 0.1319 0.0
H857 H 0.84112 0.55718 0.16326 0.0
H858 H 0.89765 0.51041 0.15588 0.0
H859 H 0.9302 0.46667 0.13063 0.0
H860 H 0.10854 0.34938 0.12281 0.0
H861 H 0.05183 0.39619 0.11434 0.0
C862 C 0.8781 0.39747 0.62871 0.0
C863 C 0.88982 0.36638 0.64283 0.0
C864 C 0.90493 0.43014 0.62416 0.0
C865 C 0.95436 0.50907 0.63061 0.0
H866 H 0.0732 0.49435 0.62992 0.0
C867 C 0.0669 0.63872 0.65266 0.0
C868 C 0.10597 0.64067 0.64314 0.0
C869 C 0.03971 0.60654 0.6481 0.0
C870 C 0.0401 0.4991 0.6297 0.0
H871 H 0.93973 0.34468 0.66265 0.0
H872 H 0.98583 0.40158 0.65501 0.0
H873 H 0.02829 0.4341 0.62923 0.0
H874 H 0.14625 0.61101 0.62061 0.0
H875 H 0.09842 0.5551 0.61246 0.0
H876 H 0.96618 0.57408 0.63111 0.0
C877 C 0.95622 0.40057 0.64718 0.0
C878 C 0.01433 0.4645 0.62957 0.0
C879 C 0.92952 0.36799 0.6517 0.0
C880 C 0.11651 0.61041 0.62833 0.0
C881 C 0.08918 0.5782 0.62373 0.0
C882 C 0.98013 0.54369 0.63063 0.0
C883 C 0.94407 0.43241 0.63361 0.0
C884 C 0.97118 0.46903 0.63064 0.0
C885 C 0.05074 0.5755 0.63384 0.0
C886 C 0.02333 0.53911 0.63078 0.0
H887 H 0.84782 0.39718 0.62152 0.0
H888 H 0.89481 0.45391 0.61344 0.0
H889 H 0.9213 0.51376 0.63155 0.0
H890 H 0.05761 0.66141 0.66413 0.0
H891 H 0.01067 0.60517 0.65643 0.0
C892 C 0.63506 0.06927 0.35084 0.0
C893 C 0.63637 0.10982 0.35869 0.0
C894 C 0.60179 0.04337 0.35532 0.0
C895 C 0.5355 0.98796 0.37319 0.0
H896 H 0.42692 0.03687 0.36688 0.0
C897 C 0.38769 0.88816 0.37431 0.0
C898 C 0.3597 0.89649 0.35807 0.0
C899 C 0.41983 0.9157 0.37876 0.0
C900 C 0.45702 0.02273 0.36873 0.0
H901 H 0.60423 0.15424 0.37816 0.0
H902 H 0.54622 0.10873 0.3861 0.0
H903 H 0.48785 0.08102 0.36671 0.0
H904 H 0.34285 0.94125 0.33432 0.0
H905 H 0.3988 0.98866 0.34193 0.0
H906 H 0.50484 0.92947 0.37408 0.0
C907 C 0.57084 0.09727 0.37625 0.0
C908 C 0.49194 0.0481 0.36888 0.0
C909 C 0.60424 0.12326 0.37179 0.0
C910 C 0.36374 0.9337 0.34694 0.0
C911 C 0.39575 0.96116 0.35141 0.0
C912 C 0.50058 0.96258 0.37301 0.0
C913 C 0.56893 0.05724 0.36779 0.0
C914 C 0.53168 0.03092 0.37057 0.0
C915 C 0.42461 0.95221 0.36713 0.0
C916 C 0.461 0.97958 0.37023 0.0
H917 H 0.65917 0.05775 0.34069 0.0
H918 H 0.6011 0.01297 0.34828 0.0
H919 H 0.56563 0.97379 0.37483 0.0
H920 H 0.3855 0.85987 0.38324 0.0
H921 H 0.44128 0.90812 0.39113 0.0
C922 C 0.39301 0.1175 0.87554 0.0
C923 C 0.40101 0.14517 0.85913 0.0
C924 C 0.42031 0.08508 0.87982 0.0
C925 C 0.46586 0.00365 0.87357 0.0
H926 H 0.58436 0.01508 0.86699 0.0
C927 C 0.57128 0.86827 0.85102 0.0
C928 C 0.61175 0.86649 0.85896 0.0
C929 C 0.54564 0.90171 0.85556 0.0
C930 C 0.55142 0.01136 0.86923 0.0
H931 H 0.445 0.16124 0.8349 0.0
H932 H 0.49213 0.10485 0.84227 0.0
H933 H 0.54085 0.07651 0.86725 0.0
H934 H 0.65627 0.89796 0.87866 0.0
H935 H 0.61124 0.95631 0.88667 0.0
H936 H 0.47638 0.93846 0.87529 0.0
C937 C 0.46501 0.10833 0.85198 0.0
C938 C 0.52643 0.04656 0.86914 0.0
C939 C 0.43773 0.14059 0.84766 0.0
C940 C 0.62535 0.89831 0.87222 0.0
C941 C 0.59964 0.9319 0.87673 0.0
C942 C 0.49085 0.96844 0.87365 0.0
C943 C 0.45629 0.07975 0.86785 0.0
C944 C 0.48328 0.04304 0.87079 0.0
C945 C 0.55973 0.93431 0.86815 0.0
C946 C 0.53382 0.97181 0.87096 0.0
H947 H 0.36507 0.1201 0.88473 0.0
H948 H 0.41294 0.06382 0.8923 0.0
H949 H 0.43272 0.99978 0.87474 0.0
H950 H 0.55965 0.84439 0.84077 0.0
H951 H 0.51531 0.90279 0.84847 0.0
loop_
_geom_bond_atom_site_label_1
_geom_bond_atom_site_label_2
_geom_bond_distance
_geom_bond_site_symmetry_2
_ccdc_geom_bond_type
Co0 O2 2.143 . S
Co0 O8 2.074 . S
Co0 O11 2.093 . S
Co0 O24 2.097 . S
Co0 N41 2.151 . S
Co0 N49 2.214 . S
Co1 O2 2.160 . S
Co1 O7 2.058 . S
Co1 O17 2.057 . S
Co1 O32 2.037 . S
Co1 N36 2.145 . S
Co1 N57 2.257 . S
O2 Co0 2.143 . S
O2 Co1 2.160 . S
C3 O4 1.278 . S
C3 O11 1.224 . S
O4 C3 1.278 . S
C5 O6 1.245 . S
C5 O17 1.232 . S
O6 C5 1.245 . S
O7 Co1 2.058 . S
O7 C33 1.269 . S
O8 Co0 2.074 . S
O8 C33 1.257 . S
H9 C34 0.930 . S
H10 C40 0.930 . S
O11 Co0 2.093 . S
O11 C3 1.224 . S
H12 C44 0.929 . S
H13 C46 0.930 . S
H14 C47 0.930 . S
H15 C45 0.929 . S
H16 C48 0.928 . S
O17 Co1 2.057 . S
O17 C5 1.232 . S
H18 C37 0.929 . S
H19 C38 0.929 . S
H20 C50 0.931 . S
H21 C42 0.929 . S
H22 C51 0.930 . S
H23 C43 0.931 . S
O24 Co0 2.097 . S
O24 C52 1.214 . S
H25 C53 0.929 . S
H26 C54 0.929 . S
H27 C55 0.930 . S
H28 C56 0.929 . S
H29 C58 0.930 . S
H30 C35 0.930 . S
H31 C39 0.930 . S
O32 Co1 2.037 . S
O32 C52 1.234 . S
C33 O7 1.269 . S
C33 O8 1.257 . S
C34 H9 0.930 . S
C34 C37 1.388 . S
C34 C39 1.418 . S
C35 H30 0.930 . S
C35 C38 1.404 . S
C35 C39 1.353 . S
N36 Co1 2.145 . S
N36 C37 1.397 . S
N36 C38 1.334 . S
C37 H18 0.929 . S
C37 C34 1.388 . S
C37 N36 1.397 . S
C38 H19 0.929 . S
C38 C35 1.404 . S
C38 N36 1.334 . S
C39 H31 0.930 . S
C39 C34 1.418 . S
C39 C35 1.353 . S
C40 H10 0.930 . S
C40 N41 1.330 . S
C40 C42 1.446 . S
N41 Co0 2.151 . S
N41 C40 1.330 . S
N41 C45 1.418 . S
C42 H21 0.929 . S
C42 C40 1.446 . S
C42 C43 1.332 . S
C43 H23 0.931 . S
C43 C42 1.332 . S
C43 C44 1.267 . S
C44 H12 0.929 . S
C44 C43 1.267 . S
C44 C45 1.251 . S
C45 H15 0.929 . S
C45 N41 1.418 . S
C45 C44 1.251 . S
C46 H13 0.930 . S
C46 C48 1.406 . S
C46 C51 1.261 . S
C47 H14 0.930 . S
C47 N49 1.325 . S
C47 C50 1.357 . S
C48 H16 0.928 . S
C48 C46 1.406 . S
C48 N49 1.261 . S
N49 Co0 2.214 . S
N49 C47 1.325 . S
N49 C48 1.261 . S
C50 H20 0.931 . S
C50 C47 1.357 . S
C50 C51 1.312 . S
C51 H22 0.930 . S
C51 C46 1.261 . S
C51 C50 1.312 . S
C52 O24 1.214 . S
C52 O32 1.234 . S
C53 H25 0.929 . S
C53 C56 1.391 . S
C53 C58 1.391 . S
C54 H26 0.929 . S
C54 C55 1.390 . S
C54 N57 1.391 . S
C55 H27 0.930 . S
C55 C54 1.390 . S
C55 C56 1.392 . S
C56 H28 0.929 . S
C56 C53 1.391 . S
C56 C55 1.392 . S
N57 Co1 2.257 . S
N57 C54 1.391 . S
N57 C58 1.388 . S
C58 H29 0.930 . S
C58 C53 1.391 . S
C58 N57 1.388 . S
Co59 O61 2.143 . S
Co59 O67 2.074 . S
Co59 O70 2.093 . S
Co59 O83 2.097 . S
Co59 N100 2.151 . S
Co59 N108 2.214 . S
Co60 O61 2.160 . S
Co60 O66 2.058 . S
Co60 O76 2.057 . S
Co60 O91 2.037 . S
Co60 N95 2.145 . S
Co60 N116 2.257 . S
O61 Co59 2.143 . S
O61 Co60 2.160 . S
C62 O63 1.278 . S
C62 O70 1.224 . S
O63 C62 1.278 . S
C64 O65 1.245 . S
C64 O76 1.232 . S
O65 C64 1.245 . S
O66 Co60 2.058 . S
O66 C92 1.269 . S
O67 Co59 2.074 . S
O67 C92 1.257 . S
H68 C93 0.930 . S
H69 C99 0.930 . S
O70 Co59 2.093 . S
O70 C62 1.224 . S
H71 C103 0.929 . S
H72 C105 0.930 . S
H73 C106 0.930 . S
H74 C104 0.929 . S
H75 C107 0.928 . S
O76 Co60 2.057 . S
O76 C64 1.232 . S
H77 C96 0.929 . S
H78 C97 0.929 . S
H79 C109 0.931 . S
H80 C101 0.929 . S
H81 C110 0.930 . S
H82 C102 0.931 . S
O83 Co59 2.097 . S
O83 C111 1.214 . S
H84 C112 0.929 . S
H85 C113 0.929 . S
H86 C114 0.936 . S
H87 C115 0.929 . S
H88 C117 0.930 . S
H89 C94 0.930 . S
H90 C98 0.930 . S
O91 Co60 2.037 . S
O91 C111 1.234 . S
C92 O66 1.269 . S
C92 O67 1.257 . S
C93 H68 0.930 . S
C93 C96 1.388 . S
C93 C98 1.418 . S
C94 H89 0.930 . S
C94 C97 1.404 . S
C94 C98 1.353 . S
N95 Co60 2.145 . S
N95 C96 1.397 . S
N95 C97 1.334 . S
C96 H77 0.929 . S
C96 C93 1.388 . S
C96 N95 1.397 . S
C97 H78 0.929 . S
C97 C94 1.404 . S
C97 N95 1.334 . S
C98 H90 0.930 . S
C98 C93 1.418 . S
C98 C94 1.353 . S
C99 H69 0.930 . S
C99 N100 1.330 . S
C99 C101 1.446 . S
N100 Co59 2.151 . S
N100 C99 1.330 . S
N100 C104 1.418 . S
C101 H80 0.929 . S
C101 C99 1.446 . S
C101 C102 1.332 . S
C102 H82 0.931 . S
C102 C101 1.332 . S
C102 C103 1.267 . S
C103 H71 0.929 . S
C103 C102 1.267 . S
C103 C104 1.251 . S
C104 H74 0.929 . S
C104 N100 1.418 . S
C104 C103 1.251 . S
C105 H72 0.930 . S
C105 C107 1.406 . S
C105 C110 1.261 . S
C106 H73 0.930 . S
C106 N108 1.325 . S
C106 C109 1.357 . S
C107 H75 0.928 . S
C107 C105 1.406 . S
C107 N108 1.261 . S
N108 Co59 2.214 . S
N108 C106 1.325 . S
N108 C107 1.261 . S
C109 H79 0.931 . S
C109 C106 1.357 . S
C109 C110 1.312 . S
C110 H81 0.930 . S
C110 C105 1.261 . S
C110 C109 1.312 . S
C111 O83 1.214 . S
C111 O91 1.234 . S
C112 H84 0.929 . S
C112 C115 1.391 . S
C112 C117 1.391 . S
C113 H85 0.929 . S
C113 C114 1.390 . S
C113 N116 1.391 . S
C114 H86 0.936 . S
C114 C113 1.390 . S
C114 C115 1.392 . S
C115 H87 0.929 . S
C115 C112 1.391 . S
C115 C114 1.392 . S
N116 Co60 2.257 . S
N116 C113 1.391 . S
N116 C117 1.388 . S
C117 H88 0.930 . S
C117 C112 1.391 . S
C117 N116 1.388 . S
Co118 O120 2.143 . S
Co118 O126 2.074 . S
Co118 O129 2.093 . S
Co118 O142 2.097 . S
Co118 N159 2.151 . S
Co118 N167 2.214 . S
Co119 O120 2.160 . S
Co119 O125 2.058 . S
Co119 O135 2.057 . S
Co119 O150 2.037 . S
Co119 N154 2.145 . S
Co119 N175 2.257 . S
O120 Co118 2.143 . S
O120 Co119 2.160 . S
C121 O122 1.278 . S
C121 O129 1.224 . S
O122 C121 1.278 . S
C123 O124 1.245 . S
C123 O135 1.232 . S
O124 C123 1.245 . S
O125 Co119 2.058 . S
O125 C151 1.269 . S
O126 Co118 2.074 . S
O126 C151 1.257 . S
H127 C152 0.930 . S
H128 C158 0.930 . S
O129 Co118 2.093 . S
O129 C121 1.224 . S
H130 C162 0.929 . S
H131 C164 0.930 . S
H132 C165 0.930 . S
H133 C163 0.929 . S
H134 C166 0.928 . S
O135 Co119 2.057 . S
O135 C123 1.232 . S
H136 C155 0.929 . S
H137 C156 0.929 . S
H138 C168 0.931 . S
H139 C160 0.929 . S
H140 C169 0.930 . S
H141 C161 0.931 . S
O142 Co118 2.097 . S
O142 C170 1.214 . S
H143 C171 0.929 . S
H144 C172 0.929 . S
H145 C173 0.930 . S
H146 C174 0.929 . S
H147 C176 0.930 . S
H148 C153 0.930 . S
H149 C157 0.930 . S
O150 Co119 2.037 . S
O150 C170 1.234 . S
C151 O125 1.269 . S
C151 O126 1.257 . S
C152 H127 0.930 . S
C152 C155 1.388 . S
C152 C157 1.418 . S
C153 H148 0.930 . S
C153 C156 1.404 . S
C153 C157 1.353 . S
N154 Co119 2.145 . S
N154 C155 1.397 . S
N154 C156 1.334 . S
C155 H136 0.929 . S
C155 C152 1.388 . S
C155 N154 1.397 . S
C156 H137 0.929 . S
C156 C153 1.404 . S
C156 N154 1.334 . S
C157 H149 0.930 . S
C157 C152 1.418 . S
C157 C153 1.353 . S
C158 H128 0.930 . S
C158 N159 1.330 . S
C158 C160 1.446 . S
N159 Co118 2.151 . S
N159 C158 1.330 . S
N159 C163 1.418 . S
C160 H139 0.929 . S
C160 C158 1.446 . S
C160 C161 1.332 . S
C161 H141 0.931 . S
C161 C160 1.332 . S
C161 C162 1.267 . S
C162 H130 0.929 . S
C162 C161 1.267 . S
C162 C163 1.251 . S
C163 H133 0.929 . S
C163 N159 1.418 . S
C163 C162 1.251 . S
C164 H131 0.930 . S
C164 C166 1.406 . S
C164 C169 1.261 . S
C165 H132 0.930 . S
C165 N167 1.325 . S
C165 C168 1.357 . S
C166 H134 0.928 . S
C166 C164 1.406 . S
C166 N167 1.261 . S
N167 Co118 2.214 . S
N167 C165 1.325 . S
N167 C166 1.261 . S
C168 H138 0.931 . S
C168 C165 1.357 . S
C168 C169 1.312 . S
C169 H140 0.930 . S
C169 C164 1.261 . S
C169 C168 1.312 . S
C170 O142 1.214 . S
C170 O150 1.234 . S
C171 H143 0.929 . S
C171 C174 1.391 . S
C171 C176 1.391 . S
C172 H144 0.929 . S
C172 C173 1.390 . S
C172 N175 1.391 . S
C173 H145 0.930 . S
C173 C172 1.390 . S
C173 C174 1.392 . S
C174 H146 0.929 . S
C174 C171 1.391 . S
C174 C173 1.392 . S
N175 Co119 2.257 . S
N175 C172 1.391 . S
N175 C176 1.388 . S
C176 H147 0.930 . S
C176 C171 1.391 . S
C176 N175 1.388 . S
Co177 O179 2.143 . S
Co177 O185 2.074 . S
Co177 O188 2.093 . S
Co177 O201 2.097 . S
Co177 N218 2.151 . S
Co177 N226 2.214 . S
Co178 O179 2.160 . S
Co178 O184 2.058 . S
Co178 O194 2.057 . S
Co178 O209 2.037 . S
Co178 N213 2.145 . S
Co178 N234 2.257 . S
O179 Co177 2.143 . S
O179 Co178 2.160 . S
C180 O181 1.278 . S
C180 O188 1.224 . S
O181 C180 1.278 . S
C182 O183 1.245 . S
C182 O194 1.232 . S
O183 C182 1.245 . S
O184 Co178 2.058 . S
O184 C210 1.269 . S
O185 Co177 2.074 . S
O185 C210 1.257 . S
H186 C211 0.930 . S
H187 C217 0.930 . S
O188 Co177 2.093 . S
O188 C180 1.224 . S
H189 C221 0.929 . S
H190 C223 0.930 . S
H191 C224 0.930 . S
H192 C222 0.929 . S
H193 C225 0.928 . S
O194 Co178 2.057 . S
O194 C182 1.232 . S
H195 C214 0.929 . S
H196 C215 0.929 . S
H197 C227 0.931 . S
H198 C219 0.929 . S
H199 C228 0.930 . S
H200 C220 0.931 . S
O201 Co177 2.097 . S
O201 C229 1.214 . S
H202 C230 0.929 . S
H203 C231 0.929 . S
H204 C232 0.936 . S
H205 C233 0.929 . S
H206 C235 0.930 . S
H207 C212 0.930 . S
H208 C216 0.930 . S
O209 Co178 2.037 . S
O209 C229 1.234 . S
C210 O184 1.269 . S
C210 O185 1.257 . S
C211 H186 0.930 . S
C211 C214 1.388 . S
C211 C216 1.418 . S
C212 H207 0.930 . S
C212 C215 1.404 . S
C212 C216 1.353 . S
N213 Co178 2.145 . S
N213 C214 1.397 . S
N213 C215 1.334 . S
C214 H195 0.929 . S
C214 C211 1.388 . S
C214 N213 1.397 . S
C215 H196 0.929 . S
C215 C212 1.404 . S
C215 N213 1.334 . S
C216 H208 0.930 . S
C216 C211 1.418 . S
C216 C212 1.353 . S
C217 H187 0.930 . S
C217 N218 1.330 . S
C217 C219 1.446 . S
N218 Co177 2.151 . S
N218 C217 1.330 . S
N218 C222 1.418 . S
C219 H198 0.929 . S
C219 C217 1.446 . S
C219 C220 1.332 . S
C220 H200 0.931 . S
C220 C219 1.332 . S
C220 C221 1.267 . S
C221 H189 0.929 . S
C221 C220 1.267 . S
C221 C222 1.251 . S
C222 H192 0.929 . S
C222 N218 1.418 . S
C222 C221 1.251 . S
C223 H190 0.930 . S
C223 C225 1.406 . S
C223 C228 1.261 . S
C224 H191 0.930 . S
C224 N226 1.325 . S
C224 C227 1.357 . S
C225 H193 0.928 . S
C225 C223 1.406 . S
C225 N226 1.261 . S
N226 Co177 2.214 . S
N226 C224 1.325 . S
N226 C225 1.261 . S
C227 H197 0.931 . S
C227 C224 1.357 . S
C227 C228 1.312 . S
C228 H199 0.930 . S
C228 C223 1.261 . S
C228 C227 1.312 . S
C229 O201 1.214 . S
C229 O209 1.234 . S
C230 H202 0.929 . S
C230 C233 1.391 . S
C230 C235 1.391 . S
C231 H203 0.929 . S
C231 C232 1.390 . S
C231 N234 1.391 . S
C232 H204 0.936 . S
C232 C231 1.390 . S
C232 C233 1.392 . S
C233 H205 0.929 . S
C233 C230 1.391 . S
C233 C232 1.392 . S
N234 Co178 2.257 . S
N234 C231 1.391 . S
N234 C235 1.388 . S
C235 H206 0.930 . S
C235 C230 1.391 . S
C235 N234 1.388 . S
Co236 O238 2.143 . S
Co236 O244 2.074 . S
Co236 O247 2.093 . S
Co236 O260 2.097 . S
Co236 N277 2.151 . S
Co236 N285 2.214 . S
Co237 O238 2.160 . S
Co237 O243 2.058 . S
Co237 O253 2.057 . S
Co237 O268 2.037 . S
Co237 N272 2.145 . S
Co237 N293 2.257 . S
O238 Co236 2.143 . S
O238 Co237 2.160 . S
C239 O240 1.278 . S
C239 O247 1.224 . S
O240 C239 1.278 . S
C241 O242 1.245 . S
C241 O253 1.232 . S
O242 C241 1.245 . S
O243 Co237 2.058 . S
O243 C269 1.269 . S
O244 Co236 2.074 . S
O244 C269 1.257 . S
H245 C270 0.930 . S
H246 C276 0.930 . S
O247 Co236 2.093 . S
O247 C239 1.224 . S
H248 C280 0.929 . S
H249 C282 0.930 . S
H250 C283 0.930 . S
H251 C281 0.929 . S
H252 C284 0.928 . S
O253 Co237 2.057 . S
O253 C241 1.232 . S
H254 C273 0.929 . S
H255 C274 0.929 . S
H256 C286 0.931 . S
H257 C278 0.929 . S
H258 C287 0.930 . S
H259 C279 0.931 . S
O260 Co236 2.097 . S
O260 C288 1.214 . S
H261 C289 0.929 . S
H262 C290 0.929 . S
H263 C291 0.936 . S
H264 C292 0.929 . S
H265 C294 0.930 . S
H266 C271 0.930 . S
H267 C275 0.930 . S
O268 Co237 2.037 . S
O268 C288 1.234 . S
C269 O243 1.269 . S
C269 O244 1.257 . S
C270 H245 0.930 . S
C270 C273 1.388 . S
C270 C275 1.418 . S
C271 H266 0.930 . S
C271 C274 1.404 . S
C271 C275 1.353 . S
N272 Co237 2.145 . S
N272 C273 1.397 . S
N272 C274 1.334 . S
C273 H254 0.929 . S
C273 C270 1.388 . S
C273 N272 1.397 . S
C274 H255 0.929 . S
C274 C271 1.404 . S
C274 N272 1.334 . S
C275 H267 0.930 . S
C275 C270 1.418 . S
C275 C271 1.353 . S
C276 H246 0.930 . S
C276 N277 1.330 . S
C276 C278 1.446 . S
N277 Co236 2.151 . S
N277 C276 1.330 . S
N277 C281 1.418 . S
C278 H257 0.929 . S
C278 C276 1.446 . S
C278 C279 1.332 . S
C279 H259 0.931 . S
C279 C278 1.332 . S
C279 C280 1.267 . S
C280 H248 0.929 . S
C280 C279 1.267 . S
C280 C281 1.251 . S
C281 H251 0.929 . S
C281 N277 1.418 . S
C281 C280 1.251 . S
C282 H249 0.930 . S
C282 C284 1.406 . S
C282 C287 1.261 . S
C283 H250 0.930 . S
C283 N285 1.325 . S
C283 C286 1.357 . S
C284 H252 0.928 . S
C284 C282 1.406 . S
C284 N285 1.261 . S
N285 Co236 2.214 . S
N285 C283 1.325 . S
N285 C284 1.261 . S
C286 H256 0.931 . S
C286 C283 1.357 . S
C286 C287 1.312 . S
C287 H258 0.930 . S
C287 C282 1.261 . S
C287 C286 1.312 . S
C288 O260 1.214 . S
C288 O268 1.234 . S
C289 H261 0.929 . S
C289 C292 1.391 . S
C289 C294 1.391 . S
C290 H262 0.929 . S
C290 C291 1.390 . S
C290 N293 1.391 . S
C291 H263 0.936 . S
C291 C290 1.390 . S
C291 C292 1.392 . S
C292 H264 0.929 . S
C292 C289 1.391 . S
C292 C291 1.392 . S
N293 Co237 2.257 . S
N293 C290 1.391 . S
N293 C294 1.388 . S
C294 H265 0.930 . S
C294 C289 1.391 . S
C294 N293 1.388 . S
Co295 O297 2.143 . S
Co295 O303 2.074 . S
Co295 O306 2.093 . S
Co295 O319 2.097 . S
Co295 N336 2.151 . S
Co295 N344 2.214 . S
Co296 O297 2.160 . S
Co296 O302 2.058 . S
Co296 O312 2.057 . S
Co296 O327 2.037 . S
Co296 N331 2.145 . S
Co296 N352 2.257 . S
O297 Co295 2.143 . S
O297 Co296 2.160 . S
C298 O299 1.278 . S
C298 O306 1.224 . S
O299 C298 1.278 . S
C300 O301 1.245 . S
C300 O312 1.232 . S
O301 C300 1.245 . S
O302 Co296 2.058 . S
O302 C328 1.269 . S
O303 Co295 2.074 . S
O303 C328 1.257 . S
H304 C329 0.930 . S
H305 C335 0.930 . S
O306 Co295 2.093 . S
O306 C298 1.224 . S
H307 C339 0.929 . S
H308 C341 0.930 . S
H309 C342 0.930 . S
H310 C340 0.929 . S
H311 C343 0.928 . S
O312 Co296 2.057 . S
O312 C300 1.232 . S
H313 C332 0.929 . S
H314 C333 0.929 . S
H315 C345 0.931 . S
H316 C337 0.929 . S
H317 C346 0.930 . S
H318 C338 0.931 . S
O319 Co295 2.097 . S
O319 C347 1.214 . S
H320 C348 0.929 . S
H321 C349 0.929 . S
H322 C350 0.930 . S
H323 C351 0.929 . S
H324 C353 0.930 . S
H325 C330 0.930 . S
H326 C334 0.930 . S
O327 Co296 2.037 . S
O327 C347 1.234 . S
C328 O302 1.269 . S
C328 O303 1.257 . S
C329 H304 0.930 . S
C329 C332 1.388 . S
C329 C334 1.418 . S
C330 H325 0.930 . S
C330 C333 1.404 . S
C330 C334 1.353 . S
N331 Co296 2.145 . S
N331 C332 1.397 . S
N331 C333 1.334 . S
C332 H313 0.929 . S
C332 C329 1.388 . S
C332 N331 1.397 . S
C333 H314 0.929 . S
C333 C330 1.404 . S
C333 N331 1.334 . S
C334 H326 0.930 . S
C334 C329 1.418 . S
C334 C330 1.353 . S
C335 H305 0.930 . S
C335 N336 1.330 . S
C335 C337 1.446 . S
N336 Co295 2.151 . S
N336 C335 1.330 . S
N336 C340 1.418 . S
C337 H316 0.929 . S
C337 C335 1.446 . S
C337 C338 1.332 . S
C338 H318 0.931 . S
C338 C337 1.332 . S
C338 C339 1.267 . S
C339 H307 0.929 . S
C339 C338 1.267 . S
C339 C340 1.251 . S
C340 H310 0.929 . S
C340 N336 1.418 . S
C340 C339 1.251 . S
C341 H308 0.930 . S
C341 C343 1.406 . S
C341 C346 1.261 . S
C342 H309 0.930 . S
C342 N344 1.325 . S
C342 C345 1.357 . S
C343 H311 0.928 . S
C343 C341 1.406 . S
C343 N344 1.261 . S
N344 Co295 2.214 . S
N344 C342 1.325 . S
N344 C343 1.261 . S
C345 H315 0.931 . S
C345 C342 1.357 . S
C345 C346 1.312 . S
C346 H317 0.930 . S
C346 C341 1.261 . S
C346 C345 1.312 . S
C347 O319 1.214 . S
C347 O327 1.234 . S
C348 H320 0.929 . S
C348 C351 1.391 . S
C348 C353 1.391 . S
C349 H321 0.929 . S
C349 C350 1.390 . S
C349 N352 1.391 . S
C350 H322 0.930 . S
C350 C349 1.390 . S
C350 C351 1.392 . S
C351 H323 0.929 . S
C351 C348 1.391 . S
C351 C350 1.392 . S
N352 Co296 2.257 . S
N352 C349 1.391 . S
N352 C353 1.388 . S
C353 H324 0.930 . S
C353 C348 1.391 . S
C353 N352 1.388 . S
Co354 O356 2.143 . S
Co354 O362 2.074 . S
Co354 O365 2.093 . S
Co354 O378 2.097 . S
Co354 N395 2.151 . S
Co354 N403 2.214 . S
Co355 O356 2.160 . S
Co355 O361 2.058 . S
Co355 O371 2.057 . S
Co355 O386 2.037 . S
Co355 N390 2.145 . S
Co355 N411 2.257 . S
O356 Co354 2.143 . S
O356 Co355 2.160 . S
C357 O358 1.278 . S
C357 O365 1.224 . S
O358 C357 1.278 . S
C359 O360 1.245 . S
C359 O371 1.232 . S
O360 C359 1.245 . S
O361 Co355 2.058 . S
O361 C387 1.269 . S
O362 Co354 2.074 . S
O362 C387 1.257 . S
H363 C388 0.930 . S
H364 C394 0.930 . S
O365 Co354 2.093 . S
O365 C357 1.224 . S
H366 C398 0.929 . S
H367 C400 0.930 . S
H368 C401 0.930 . S
H369 C399 0.929 . S
H370 C402 0.928 . S
O371 Co355 2.057 . S
O371 C359 1.232 . S
H372 C391 0.929 . S
H373 C392 0.929 . S
H374 C404 0.931 . S
H375 C396 0.929 . S
H376 C405 0.930 . S
H377 C397 0.931 . S
O378 Co354 2.097 . S
O378 C406 1.214 . S
H379 C407 0.929 . S
H380 C408 0.929 . S
H381 C409 0.936 . S
H382 C410 0.929 . S
H383 C412 0.930 . S
H384 C389 0.930 . S
H385 C393 0.930 . S
O386 Co355 2.037 . S
O386 C406 1.234 . S
C387 O361 1.269 . S
C387 O362 1.257 . S
C388 H363 0.930 . S
C388 C391 1.388 . S
C388 C393 1.418 . S
C389 H384 0.930 . S
C389 C392 1.404 . S
C389 C393 1.353 . S
N390 Co355 2.145 . S
N390 C391 1.397 . S
N390 C392 1.334 . S
C391 H372 0.929 . S
C391 C388 1.388 . S
C391 N390 1.397 . S
C392 H373 0.929 . S
C392 C389 1.404 . S
C392 N390 1.334 . S
C393 H385 0.930 . S
C393 C388 1.418 . S
C393 C389 1.353 . S
C394 H364 0.930 . S
C394 N395 1.330 . S
C394 C396 1.446 . S
N395 Co354 2.151 . S
N395 C394 1.330 . S
N395 C399 1.418 . S
C396 H375 0.929 . S
C396 C394 1.446 . S
C396 C397 1.332 . S
C397 H377 0.931 . S
C397 C396 1.332 . S
C397 C398 1.267 . S
C398 H366 0.929 . S
C398 C397 1.267 . S
C398 C399 1.251 . S
C399 H369 0.929 . S
C399 N395 1.418 . S
C399 C398 1.251 . S
C400 H367 0.930 . S
C400 C402 1.406 . S
C400 C405 1.261 . S
C401 H368 0.930 . S
C401 N403 1.325 . S
C401 C404 1.357 . S
C402 H370 0.928 . S
C402 C400 1.406 . S
C402 N403 1.261 . S
N403 Co354 2.214 . S
N403 C401 1.325 . S
N403 C402 1.261 . S
C404 H374 0.931 . S
C404 C401 1.357 . S
C404 C405 1.312 . S
C405 H376 0.930 . S
C405 C400 1.261 . S
C405 C404 1.312 . S
C406 O378 1.214 . S
C406 O386 1.234 . S
C407 H379 0.929 . S
C407 C410 1.391 . S
C407 C412 1.391 . S
C408 H380 0.929 . S
C408 C409 1.390 . S
C408 N411 1.391 . S
C409 H381 0.936 . S
C409 C408 1.390 . S
C409 C410 1.392 . S
C410 H382 0.929 . S
C410 C407 1.391 . S
C410 C409 1.392 . S
N411 Co355 2.257 . S
N411 C408 1.391 . S
N411 C412 1.388 . S
C412 H383 0.930 . S
C412 C407 1.391 . S
C412 N411 1.388 . S
Co413 O415 2.143 . S
Co413 O421 2.074 . S
Co413 O424 2.093 . S
Co413 O437 2.097 . S
Co413 N454 2.151 . S
Co413 N462 2.214 . S
Co414 O415 2.160 . S
Co414 O420 2.058 . S
Co414 O430 2.057 . S
Co414 O445 2.037 . S
Co414 N449 2.145 . S
Co414 N470 2.257 . S
O415 Co413 2.143 . S
O415 Co414 2.160 . S
C416 O417 1.278 . S
C416 O424 1.224 . S
O417 C416 1.278 . S
C418 O419 1.245 . S
C418 O430 1.232 . S
O419 C418 1.245 . S
O420 Co414 2.058 . S
O420 C446 1.269 . S
O421 Co413 2.074 . S
O421 C446 1.257 . S
H422 C447 0.930 . S
H423 C453 0.930 . S
O424 Co413 2.093 . S
O424 C416 1.224 . S
H425 C457 0.929 . S
H426 C459 0.930 . S
H427 C460 0.930 . S
H428 C458 0.929 . S
H429 C461 0.928 . S
O430 Co414 2.057 . S
O430 C418 1.232 . S
H431 C450 0.929 . S
H432 C451 0.929 . S
H433 C463 0.931 . S
H434 C455 0.929 . S
H435 C464 0.930 . S
H436 C456 0.931 . S
O437 Co413 2.097 . S
O437 C465 1.214 . S
H438 C466 0.929 . S
H439 C467 0.929 . S
H440 C468 0.930 . S
H441 C469 0.929 . S
H442 C471 0.930 . S
H443 C448 0.930 . S
H444 C452 0.930 . S
O445 Co414 2.037 . S
O445 C465 1.234 . S
C446 O420 1.269 . S
C446 O421 1.257 . S
C447 H422 0.930 . S
C447 C450 1.388 . S
C447 C452 1.418 . S
C448 H443 0.930 . S
C448 C451 1.404 . S
C448 C452 1.353 . S
N449 Co414 2.145 . S
N449 C450 1.397 . S
N449 C451 1.334 . S
C450 H431 0.929 . S
C450 C447 1.388 . S
C450 N449 1.397 . S
C451 H432 0.929 . S
C451 C448 1.404 . S
C451 N449 1.334 . S
C452 H444 0.930 . S
C452 C447 1.418 . S
C452 C448 1.353 . S
C453 H423 0.930 . S
C453 N454 1.330 . S
C453 C455 1.446 . S
N454 Co413 2.151 . S
N454 C453 1.330 . S
N454 C458 1.418 . S
C455 H434 0.929 . S
C455 C453 1.446 . S
C455 C456 1.332 . S
C456 H436 0.931 . S
C456 C455 1.332 . S
C456 C457 1.267 . S
C457 H425 0.929 . S
C457 C456 1.267 . S
C457 C458 1.251 . S
C458 H428 0.929 . S
C458 N454 1.418 . S
C458 C457 1.251 . S
C459 H426 0.930 . S
C459 C461 1.406 . S
C459 C464 1.261 . S
C460 H427 0.930 . S
C460 N462 1.325 . S
C460 C463 1.357 . S
C461 H429 0.928 . S
C461 C459 1.406 . S
C461 N462 1.261 . S
N462 Co413 2.214 . S
N462 C460 1.325 . S
N462 C461 1.261 . S
C463 H433 0.931 . S
C463 C460 1.357 . S
C463 C464 1.312 . S
C464 H435 0.930 . S
C464 C459 1.261 . S
C464 C463 1.312 . S
C465 O437 1.214 . S
C465 O445 1.234 . S
C466 H438 0.929 . S
C466 C469 1.391 . S
C466 C471 1.391 . S
C467 H439 0.929 . S
C467 C468 1.390 . S
C467 N470 1.391 . S
C468 H440 0.930 . S
C468 C467 1.390 . S
C468 C469 1.392 . S
C469 H441 0.929 . S
C469 C466 1.391 . S
C469 C468 1.392 . S
N470 Co414 2.257 . S
N470 C467 1.391 . S
N470 C471 1.388 . S
C471 H442 0.930 . S
C471 C466 1.391 . S
C471 N470 1.388 . S
C472 C473 1.349 . S
C472 C474 1.327 . S
C472 H497 0.950 . S
C473 C472 1.349 . S
C473 C489 1.349 . S
C474 C472 1.327 . S
C474 C493 1.429 . S
C474 H498 0.950 . S
C475 C492 1.574 1_554 S
C475 C494 1.368 . S
C475 H499 0.949 . S
H476 C480 0.949 . S
C477 C478 1.349 . S
C477 C479 1.327 . S
C477 H500 0.950 . S
C478 C477 1.349 . S
C478 C490 1.349 . S
C479 C477 1.327 . S
C479 C495 1.429 . S
C479 H501 0.950 . S
C480 H476 0.949 . S
C480 C488 1.574 1_556 S
C480 C496 1.368 . S
H481 C489 0.950 . S
H482 C487 0.950 . S
H483 C488 0.949 . S
H484 C490 0.950 . S
H485 C491 0.950 . S
H486 C492 0.949 . S
C487 H482 0.950 . S
C487 C489 1.327 . S
C487 C493 1.429 . S
C488 C480 1.574 1_554 S
C488 H483 0.949 . S
C488 C494 1.368 . S
C489 C473 1.349 . S
C489 H481 0.950 . S
C489 C487 1.327 . S
C490 C478 1.349 . S
C490 H484 0.950 . S
C490 C491 1.327 . S
C491 H485 0.950 . S
C491 C490 1.327 . S
C491 C495 1.429 . S
C492 C475 1.574 1_556 S
C492 H486 0.949 . S
C492 C496 1.368 . S
C493 C474 1.429 . S
C493 C487 1.429 . S
C493 C494 1.523 . S
C494 C475 1.368 . S
C494 C488 1.368 . S
C494 C493 1.523 . S
C495 C479 1.429 . S
C495 C491 1.429 . S
C495 C496 1.523 . S
C496 C480 1.368 . S
C496 C492 1.368 . S
C496 C495 1.523 . S
H497 C472 0.950 . S
H498 C474 0.950 . S
H499 C475 0.949 . S
H500 C477 0.950 . S
H501 C479 0.950 . S
C502 C503 1.349 . S
C502 C504 1.327 . S
C502 H527 0.950 . S
C503 C502 1.349 . S
C503 C519 1.349 . S
C504 C502 1.327 . S
C504 C523 1.429 . S
C504 H528 0.950 . S
C505 C522 1.574 . S
C505 C524 1.368 . S
C505 H529 0.949 . S
H506 C510 0.949 . S
C507 C508 1.349 . S
C507 C509 1.327 . S
C507 H530 0.950 . S
C508 C507 1.349 . S
C508 C520 1.349 . S
C509 C507 1.327 . S
C509 C525 1.429 . S
C509 H531 0.950 . S
C510 H506 0.949 . S
C510 C518 1.574 . S
C510 C526 1.368 . S
H511 C519 0.950 . S
H512 C517 0.950 . S
H513 C518 0.949 . S
H514 C520 0.950 . S
H515 C521 0.950 . S
H516 C522 0.949 . S
C517 H512 0.950 . S
C517 C519 1.327 . S
C517 C523 1.429 . S
C518 C510 1.574 . S
C518 H513 0.949 . S
C518 C524 1.368 . S
C519 C503 1.349 . S
C519 H511 0.950 . S
C519 C517 1.327 . S
C520 C508 1.349 . S
C520 H514 0.950 . S
C520 C521 1.327 . S
C521 H515 0.950 . S
C521 C520 1.327 . S
C521 C525 1.429 . S
C522 C505 1.574 . S
C522 H516 0.949 . S
C522 C526 1.368 . S
C523 C504 1.429 . S
C523 C517 1.429 . S
C523 C524 1.523 . S
C524 C505 1.368 . S
C524 C518 1.368 . S
C524 C523 1.523 . S
C525 C509 1.429 . S
C525 C521 1.429 . S
C525 C526 1.523 . S
C526 C510 1.368 . S
C526 C522 1.368 . S
C526 C525 1.523 . S
H527 C502 0.950 . S
H528 C504 0.950 . S
H529 C505 0.949 . S
H530 C507 0.950 . S
H531 C509 0.950 . S
C532 C533 1.349 . S
C532 C534 1.327 . S
C532 H557 0.950 . S
C533 C532 1.349 . S
C533 C549 1.349 . S
C534 C532 1.327 . S
C534 C553 1.429 . S
C534 H558 0.950 . S
C535 C552 1.574 1_554 S
C535 C554 1.368 . S
C535 H559 0.949 . S
H536 C540 0.949 . S
C537 C538 1.349 . S
C537 C539 1.327 . S
C537 H560 0.950 . S
C538 C537 1.349 . S
C538 C550 1.349 . S
C539 C537 1.327 . S
C539 C555 1.429 . S
C539 H561 0.950 . S
C540 H536 0.949 . S
C540 C548 1.574 1_556 S
C540 C556 1.368 . S
H541 C549 0.950 . S
H542 C547 0.950 . S
H543 C548 0.949 . S
H544 C550 0.950 . S
H545 C551 0.950 . S
H546 C552 0.949 . S
C547 H542 0.950 . S
C547 C549 1.327 . S
C547 C553 1.429 . S
C548 C540 1.574 1_554 S
C548 H543 0.949 . S
C548 C554 1.368 . S
C549 C533 1.349 . S
C549 H541 0.950 . S
C549 C547 1.327 . S
C550 C538 1.349 . S
C550 H544 0.950 . S
C550 C551 1.327 . S
C551 H545 0.950 . S
C551 C550 1.327 . S
C551 C555 1.429 . S
C552 C535 1.574 1_556 S
C552 H546 0.949 . S
C552 C556 1.368 . S
C553 C534 1.429 . S
C553 C547 1.429 . S
C553 C554 1.523 . S
C554 C535 1.368 . S
C554 C548 1.368 . S
C554 C553 1.523 . S
C555 C539 1.429 . S
C555 C551 1.429 . S
C555 C556 1.523 . S
C556 C540 1.368 . S
C556 C552 1.368 . S
C556 C555 1.523 . S
H557 C532 0.950 . S
H558 C534 0.950 . S
H559 C535 0.949 . S
H560 C537 0.950 . S
H561 C539 0.950 . S
C562 C563 1.349 . S
C562 C564 1.327 . S
C562 H587 0.950 . S
C563 C562 1.349 . S
C563 C579 1.349 . S
C564 C562 1.327 . S
C564 C583 1.429 . S
C564 H588 0.950 . S
C565 C582 1.574 . S
C565 C584 1.368 . S
C565 H589 0.949 . S
H566 C570 0.949 . S
C567 C568 1.349 . S
C567 C569 1.327 . S
C567 H590 0.950 . S
C568 C567 1.349 . S
C568 C580 1.349 . S
C569 C567 1.327 . S
C569 C585 1.429 . S
C569 H591 0.950 . S
C570 H566 0.949 . S
C570 C578 1.574 . S
C570 C586 1.368 . S
H571 C579 0.950 . S
H572 C577 0.950 . S
H573 C578 0.949 . S
H574 C580 0.950 . S
H575 C581 0.950 . S
H576 C582 0.949 . S
C577 H572 0.950 . S
C577 C579 1.327 . S
C577 C583 1.429 . S
C578 C570 1.574 . S
C578 H573 0.949 . S
C578 C584 1.368 . S
C579 C563 1.349 . S
C579 H571 0.950 . S
C579 C577 1.327 . S
C580 C568 1.349 . S
C580 H574 0.950 . S
C580 C581 1.327 . S
C581 H575 0.950 . S
C581 C580 1.327 . S
C581 C585 1.429 . S
C582 C565 1.574 . S
C582 H576 0.949 . S
C582 C586 1.368 . S
C583 C564 1.429 . S
C583 C577 1.429 . S
C583 C584 1.523 . S
C584 C565 1.368 . S
C584 C578 1.368 . S
C584 C583 1.523 . S
C585 C569 1.429 . S
C585 C581 1.429 . S
C585 C586 1.523 . S
C586 C570 1.368 . S
C586 C582 1.368 . S
C586 C585 1.523 . S
H587 C562 0.950 . S
H588 C564 0.950 . S
H589 C565 0.949 . S
H590 C567 0.950 . S
H591 C569 0.950 . S
C592 C593 1.349 . S
C592 C594 1.327 . S
C592 H617 0.950 . S
C593 C592 1.349 . S
C593 C609 1.349 . S
C594 C592 1.327 . S
C594 C613 1.429 . S
C594 H618 0.950 . S
C595 C612 1.574 . S
C595 C614 1.368 . S
C595 H619 0.949 . S
H596 C600 0.949 . S
C597 C598 1.349 . S
C597 C599 1.327 . S
C597 H620 0.950 . S
C598 C597 1.349 . S
C598 C610 1.349 . S
C599 C597 1.327 . S
C599 C615 1.429 . S
C599 H621 0.950 . S
C600 H596 0.949 . S
C600 C608 1.574 . S
C600 C616 1.368 . S
H601 C609 0.950 . S
H602 C607 0.950 . S
H603 C608 0.949 . S
H604 C610 0.950 . S
H605 C611 0.950 . S
H606 C612 0.949 . S
C607 H602 0.950 . S
C607 C609 1.327 . S
C607 C613 1.429 . S
C608 C600 1.574 . S
C608 H603 0.949 . S
C608 C614 1.368 . S
C609 C593 1.349 . S
C609 H601 0.950 . S
C609 C607 1.327 . S
C610 C598 1.349 . S
C610 H604 0.950 . S
C610 C611 1.327 . S
C611 H605 0.950 . S
C611 C610 1.327 . S
C611 C615 1.429 . S
C612 C595 1.574 . S
C612 H606 0.949 . S
C612 C616 1.368 . S
C613 C594 1.429 . S
C613 C607 1.429 . S
C613 C614 1.523 . S
C614 C595 1.368 . S
C614 C608 1.368 . S
C614 C613 1.523 . S
C615 C599 1.429 . S
C615 C611 1.429 . S
C615 C616 1.523 . S
C616 C600 1.368 . S
C616 C612 1.368 . S
C616 C615 1.523 . S
H617 C592 0.950 . S
H618 C594 0.950 . S
H619 C595 0.949 . S
H620 C597 0.950 . S
H621 C599 0.950 . S
C622 C623 1.349 . S
C622 C624 1.327 . S
C622 H647 0.950 . S
C623 C622 1.349 . S
C623 C639 1.349 . S
C624 C622 1.327 . S
C624 C643 1.429 . S
C624 H648 0.950 . S
C625 C642 1.574 . S
C625 C644 1.368 . S
C625 H649 0.949 . S
H626 C630 0.949 . S
C627 C628 1.349 . S
C627 C629 1.327 . S
C627 H650 0.950 . S
C628 C627 1.349 . S
C628 C640 1.349 . S
C629 C627 1.327 . S
C629 C645 1.429 . S
C629 H651 0.950 . S
C630 H626 0.949 . S
C630 C638 1.574 1_545 S
C630 C646 1.368 . S
H631 C639 0.950 . S
H632 C637 0.950 . S
H633 C638 0.949 . S
H634 C640 0.950 . S
H635 C641 0.950 . S
H636 C642 0.949 . S
C637 H632 0.950 . S
C637 C639 1.327 . S
C637 C643 1.429 . S
C638 C630 1.574 1_565 S
C638 H633 0.949 . S
C638 C644 1.368 . S
C639 C623 1.349 . S
C639 H631 0.950 . S
C639 C637 1.327 . S
C640 C628 1.349 . S
C640 H634 0.950 . S
C640 C641 1.327 . S
C641 H635 0.950 . S
C641 C640 1.327 . S
C641 C645 1.429 . S
C642 C625 1.574 . S
C642 H636 0.949 . S
C642 C646 1.368 1_565 S
C643 C624 1.429 . S
C643 C637 1.429 . S
C643 C644 1.523 . S
C644 C625 1.368 . S
C644 C638 1.368 . S
C644 C643 1.523 . S
C645 C629 1.429 . S
C645 C641 1.429 . S
C645 C646 1.523 . S
C646 C630 1.368 . S
C646 C642 1.368 1_545 S
C646 C645 1.523 . S
H647 C622 0.950 . S
H648 C624 0.950 . S
H649 C625 0.949 . S
H650 C627 0.950 . S
H651 C629 0.950 . S
C652 C653 1.349 . S
C652 C654 1.327 . S
C652 H677 0.950 . S
C653 C652 1.349 . S
C653 C669 1.349 . S
C654 C652 1.327 . S
C654 C673 1.429 . S
C654 H678 0.950 . S
C655 C672 1.574 . S
C655 C674 1.368 . S
C655 H679 0.949 . S
H656 C660 0.949 . S
C657 C658 1.349 . S
C657 C659 1.327 . S
C657 H680 0.950 . S
C658 C657 1.349 . S
C658 C670 1.349 . S
C659 C657 1.327 . S
C659 C675 1.429 . S
C659 H681 0.950 . S
C660 H656 0.949 . S
C660 C668 1.574 . S
C660 C676 1.368 . S
H661 C669 0.950 . S
H662 C667 0.950 . S
H663 C668 0.949 . S
H664 C670 0.950 . S
H665 C671 0.950 . S
H666 C672 0.949 . S
C667 H662 0.950 . S
C667 C669 1.327 . S
C667 C673 1.429 . S
C668 C660 1.574 . S
C668 H663 0.949 . S
C668 C674 1.368 . S
C669 C653 1.349 . S
C669 H661 0.950 . S
C669 C667 1.327 . S
C670 C658 1.349 . S
C670 H664 0.950 . S
C670 C671 1.327 . S
C671 H665 0.950 . S
C671 C670 1.327 . S
C671 C675 1.429 . S
C672 C655 1.574 . S
C672 H666 0.949 . S
C672 C676 1.368 . S
C673 C654 1.429 . S
C673 C667 1.429 . S
C673 C674 1.523 . S
C674 C655 1.368 . S
C674 C668 1.368 . S
C674 C673 1.523 . S
C675 C659 1.429 . S
C675 C671 1.429 . S
C675 C676 1.523 . S
C676 C660 1.368 . S
C676 C672 1.368 . S
C676 C675 1.523 . S
H677 C652 0.950 . S
H678 C654 0.950 . S
H679 C655 0.949 . S
H680 C657 0.950 . S
H681 C659 0.950 . S
C682 C683 1.349 . S
C682 C684 1.327 . S
C682 H707 0.950 . S
C683 C682 1.349 . S
C683 C699 1.349 . S
C684 C682 1.327 . S
C684 C703 1.429 . S
C684 H708 0.950 . S
C685 C702 1.574 . S
C685 C704 1.368 . S
C685 H709 0.949 . S
H686 C690 0.949 . S
C687 C688 1.349 . S
C687 C689 1.327 . S
C687 H710 0.950 . S
C688 C687 1.349 . S
C688 C700 1.349 . S
C689 C687 1.327 . S
C689 C705 1.429 . S
C689 H711 0.950 . S
C690 H686 0.949 . S
C690 C698 1.574 1_565 S
C690 C706 1.368 . S
H691 C699 0.950 . S
H692 C697 0.950 . S
H693 C698 0.949 . S
H694 C700 0.950 . S
H695 C701 0.950 . S
H696 C702 0.949 . S
C697 H692 0.950 . S
C697 C699 1.327 . S
C697 C703 1.429 . S
C698 C690 1.574 1_545 S
C698 H693 0.949 . S
C698 C704 1.368 . S
C699 C683 1.349 . S
C699 H691 0.950 . S
C699 C697 1.327 . S
C700 C688 1.349 . S
C700 H694 0.950 . S
C700 C701 1.327 . S
C701 H695 0.950 . S
C701 C700 1.327 . S
C701 C705 1.429 . S
C702 C685 1.574 . S
C702 H696 0.949 . S
C702 C706 1.368 1_545 S
C703 C684 1.429 . S
C703 C697 1.429 . S
C703 C704 1.523 . S
C704 C685 1.368 . S
C704 C698 1.368 . S
C704 C703 1.523 . S
C705 C689 1.429 . S
C705 C701 1.429 . S
C705 C706 1.523 . S
C706 C690 1.368 . S
C706 C702 1.368 1_565 S
C706 C705 1.523 . S
H707 C682 0.950 . S
H708 C684 0.950 . S
H709 C685 0.949 . S
H710 C687 0.950 . S
H711 C689 0.950 . S
C712 C713 1.349 . S
C712 C714 1.327 . S
C712 H737 0.950 . S
C713 C712 1.349 . S
C713 C729 1.349 . S
C714 C712 1.327 . S
C714 C733 1.429 . S
C714 H738 0.950 . S
C715 C732 1.574 . S
C715 C734 1.368 . S
C715 H739 0.949 . S
H716 C720 0.949 . S
C717 C718 1.349 . S
C717 C719 1.327 . S
C717 H740 0.950 . S
C718 C717 1.349 . S
C718 C730 1.349 . S
C719 C717 1.327 . S
C719 C735 1.429 . S
C719 H741 0.950 . S
C720 H716 0.949 . S
C720 C728 1.574 1_455 S
C720 C736 1.368 . S
H721 C729 0.950 . S
H722 C727 0.950 . S
H723 C728 0.949 . S
H724 C730 0.950 . S
H725 C731 0.950 . S
H726 C732 0.949 . S
C727 H722 0.950 . S
C727 C729 1.327 . S
C727 C733 1.429 . S
C728 C720 1.574 1_655 S
C728 H723 0.949 . S
C728 C734 1.368 . S
C729 C713 1.349 . S
C729 H721 0.950 . S
C729 C727 1.327 . S
C730 C718 1.349 . S
C730 H724 0.950 . S
C730 C731 1.327 . S
C731 H725 0.950 . S
C731 C730 1.327 . S
C731 C735 1.429 . S
C732 C715 1.574 . S
C732 H726 0.949 . S
C732 C736 1.368 1_655 S
C733 C714 1.429 . S
C733 C727 1.429 . S
C733 C734 1.523 . S
C734 C715 1.368 . S
C734 C728 1.368 . S
C734 C733 1.523 . S
C735 C719 1.429 . S
C735 C731 1.429 . S
C735 C736 1.523 . S
C736 C720 1.368 . S
C736 C732 1.368 1_455 S
C736 C735 1.523 . S
H737 C712 0.950 . S
H738 C714 0.950 . S
H739 C715 0.949 . S
H740 C717 0.950 . S
H741 C719 0.950 . S
C742 C743 1.349 . S
C742 C744 1.327 . S
C742 H767 0.950 . S
C743 C742 1.349 . S
C743 C759 1.349 . S
C744 C742 1.327 . S
C744 C763 1.429 . S
C744 H768 0.950 . S
C745 C762 1.574 . S
C745 C764 1.368 . S
C745 H769 0.949 . S
H746 C750 0.949 . S
C747 C748 1.349 . S
C747 C749 1.327 . S
C747 H770 0.950 . S
C748 C747 1.349 . S
C748 C760 1.349 . S
C749 C747 1.327 . S
C749 C765 1.429 . S
C749 H771 0.950 . S
C750 H746 0.949 . S
C750 C758 1.574 . S
C750 C766 1.368 . S
H751 C759 0.950 . S
H752 C757 0.950 . S
H753 C758 0.949 . S
H754 C760 0.950 . S
H755 C761 0.950 . S
H756 C762 0.949 . S
C757 H752 0.950 . S
C757 C759 1.327 . S
C757 C763 1.429 . S
C758 C750 1.574 . S
C758 H753 0.949 . S
C758 C764 1.368 . S
C759 C743 1.349 . S
C759 H751 0.950 . S
C759 C757 1.327 . S
C760 C748 1.349 . S
C760 H754 0.950 . S
C760 C761 1.327 . S
C761 H755 0.950 . S
C761 C760 1.327 . S
C761 C765 1.429 . S
C762 C745 1.574 . S
C762 H756 0.949 . S
C762 C766 1.368 . S
C763 C744 1.429 . S
C763 C757 1.429 . S
C763 C764 1.523 . S
C764 C745 1.368 . S
C764 C758 1.368 . S
C764 C763 1.523 . S
C765 C749 1.429 . S
C765 C761 1.429 . S
C765 C766 1.523 . S
C766 C750 1.368 . S
C766 C762 1.368 . S
C766 C765 1.523 . S
H767 C742 0.950 . S
H768 C744 0.950 . S
H769 C745 0.949 . S
H770 C747 0.950 . S
H771 C749 0.950 . S
C772 C773 1.349 . S
C772 C774 1.327 . S
C772 H797 0.950 . S
C773 C772 1.349 . S
C773 C789 1.349 . S
C774 C772 1.327 . S
C774 C793 1.429 . S
C774 H798 0.950 . S
C775 C792 1.574 . S
C775 C794 1.368 . S
C775 H799 0.949 . S
H776 C780 0.949 1_655 S
C777 C778 1.349 . S
C777 C779 1.327 . S
C777 H800 0.950 . S
C778 C777 1.349 . S
C778 C790 1.349 . S
C779 C777 1.327 . S
C779 C795 1.429 . S
C779 H801 0.950 . S
C780 H776 0.949 1_455 S
C780 C788 1.574 . S
C780 C796 1.368 1_455 S
H781 C789 0.950 . S
H782 C787 0.950 . S
H783 C788 0.949 . S
H784 C790 0.950 . S
H785 C791 0.950 . S
H786 C792 0.940 1_655 S
C787 H782 0.950 . S
C787 C789 1.327 . S
C787 C793 1.429 . S
C788 C780 1.574 . S
C788 H783 0.949 . S
C788 C794 1.368 . S
C789 C773 1.349 . S
C789 H781 0.950 . S
C789 C787 1.327 . S
C790 C778 1.349 . S
C790 H784 0.950 . S
C790 C791 1.327 . S
C791 H785 0.950 . S
C791 C790 1.327 . S
C791 C795 1.429 . S
C792 C775 1.574 . S
C792 H786 0.940 1_455 S
C792 C796 1.368 1_455 S
C793 C774 1.429 . S
C793 C787 1.429 . S
C793 C794 1.523 . S
C794 C775 1.368 . S
C794 C788 1.368 . S
C794 C793 1.523 . S
C795 C779 1.429 . S
C795 C791 1.429 . S
C795 C796 1.523 . S
C796 C780 1.368 1_655 S
C796 C792 1.368 1_655 S
C796 C795 1.523 . S
H797 C772 0.950 . S
H798 C774 0.950 . S
H799 C775 0.949 . S
H800 C777 0.950 . S
H801 C779 0.950 . S
C802 C803 1.349 . S
C802 C804 1.327 . S
C802 H827 0.950 . S
C803 C802 1.349 . S
C803 C819 1.349 . S
C804 C802 1.327 . S
C804 C823 1.429 . S
C804 H828 0.950 . S
C805 C822 1.574 . S
C805 C824 1.368 . S
C805 H829 0.949 . S
H806 C810 0.949 . S
C807 C808 1.349 . S
C807 C809 1.327 . S
C807 H830 0.950 . S
C808 C807 1.349 . S
C808 C820 1.349 . S
C809 C807 1.327 . S
C809 C825 1.429 . S
C809 H831 0.950 . S
C810 H806 0.949 . S
C810 C818 1.574 . S
C810 C826 1.368 . S
H811 C819 0.950 . S
H812 C817 0.950 . S
H813 C818 0.949 . S
H814 C820 0.950 . S
H815 C821 0.950 . S
H816 C822 0.949 . S
C817 H812 0.950 . S
C817 C819 1.327 . S
C817 C823 1.429 . S
C818 C810 1.574 . S
C818 H813 0.949 . S
C818 C824 1.368 . S
C819 C803 1.349 . S
C819 H811 0.950 . S
C819 C817 1.327 . S
C820 C808 1.349 . S
C820 H814 0.950 . S
C820 C821 1.327 . S
C821 H815 0.950 . S
C821 C820 1.327 . S
C821 C825 1.429 . S
C822 C805 1.574 . S
C822 H816 0.949 . S
C822 C826 1.368 . S
C823 C804 1.429 . S
C823 C817 1.429 . S
C823 C824 1.523 . S
C824 C805 1.368 . S
C824 C818 1.368 . S
C824 C823 1.523 . S
C825 C809 1.429 . S
C825 C821 1.429 . S
C825 C826 1.523 . S
C826 C810 1.368 . S
C826 C822 1.368 . S
C826 C825 1.523 . S
H827 C802 0.950 . S
H828 C804 0.950 . S
H829 C805 0.949 . S
H830 C807 0.950 . S
H831 C809 0.950 . S
C832 C833 1.349 . S
C832 C834 1.327 . S
C832 H857 0.950 . S
C833 C832 1.349 . S
C833 C849 1.349 . S
C834 C832 1.327 . S
C834 C853 1.429 . S
C834 H858 0.950 . S
C835 C852 1.574 1_655 S
C835 C854 1.368 . S
C835 H859 0.949 . S
H836 C840 0.949 . S
C837 C838 1.349 . S
C837 C839 1.327 . S
C837 H860 0.950 . S
C838 C837 1.349 . S
C838 C850 1.349 . S
C839 C837 1.327 . S
C839 C855 1.429 . S
C839 H861 0.950 . S
C840 H836 0.949 . S
C840 C848 1.574 1_455 S
C840 C856 1.368 . S
H841 C849 0.950 . S
H842 C847 0.950 . S
H843 C848 0.949 . S
H844 C850 0.950 . S
H845 C851 0.950 . S
H846 C852 0.949 . S
C847 H842 0.950 . S
C847 C849 1.327 . S
C847 C853 1.429 . S
C848 C840 1.574 1_655 S
C848 H843 0.949 . S
C848 C854 1.368 . S
C849 C833 1.349 . S
C849 H841 0.950 . S
C849 C847 1.327 . S
C850 C838 1.349 . S
C850 H844 0.950 . S
C850 C851 1.327 . S
C851 H845 0.950 . S
C851 C850 1.327 . S
C851 C855 1.429 . S
C852 C835 1.574 1_455 S
C852 H846 0.949 . S
C852 C856 1.368 . S
C853 C834 1.429 . S
C853 C847 1.429 . S
C853 C854 1.523 . S
C854 C835 1.368 . S
C854 C848 1.368 . S
C854 C853 1.523 . S
C855 C839 1.429 . S
C855 C851 1.429 . S
C855 C856 1.523 . S
C856 C840 1.368 . S
C856 C852 1.368 . S
C856 C855 1.523 . S
H857 C832 0.950 . S
H858 C834 0.950 . S
H859 C835 0.949 . S
H860 C837 0.950 . S
H861 C839 0.950 . S
C862 C863 1.349 . S
C862 C864 1.327 . S
C862 H887 0.950 . S
C863 C862 1.349 . S
C863 C879 1.349 . S
C864 C862 1.327 . S
C864 C883 1.429 . S
C864 H888 0.950 . S
C865 C882 1.574 . S
C865 C884 1.368 1_455 S
C865 H889 0.949 . S
H866 C870 0.949 . S
C867 C868 1.349 . S
C867 C869 1.327 . S
C867 H890 0.950 . S
C868 C867 1.349 . S
C868 C880 1.349 . S
C869 C867 1.327 . S
C869 C885 1.429 . S
C869 H891 0.950 . S
C870 H866 0.949 . S
C870 C878 1.574 . S
C870 C886 1.368 1_655 S
H871 C879 0.950 . S
H872 C877 0.950 . S
H873 C878 0.949 . S
H874 C880 0.950 . S
H875 C881 0.950 . S
H876 C882 0.949 . S
C877 H872 0.950 . S
C877 C879 1.327 . S
C877 C883 1.429 . S
C878 C870 1.574 . S
C878 H873 0.949 . S
C878 C884 1.368 . S
C879 C863 1.349 . S
C879 H871 0.950 . S
C879 C877 1.327 . S
C880 C868 1.349 . S
C880 H874 0.950 . S
C880 C881 1.327 . S
C881 H875 0.950 . S
C881 C880 1.327 . S
C881 C885 1.429 . S
C882 C865 1.574 . S
C882 H876 0.949 . S
C882 C886 1.368 . S
C883 C864 1.429 . S
C883 C877 1.429 . S
C883 C884 1.523 . S
C884 C865 1.368 1_655 S
C884 C878 1.368 . S
C884 C883 1.523 . S
C885 C869 1.429 . S
C885 C881 1.429 . S
C885 C886 1.523 . S
C886 C870 1.368 1_455 S
C886 C882 1.368 . S
C886 C885 1.523 . S
H887 C862 0.950 . S
H888 C864 0.950 . S
H889 C865 0.949 . S
H890 C867 0.950 . S
H891 C869 0.950 . S
C892 C893 1.349 . S
C892 C894 1.327 . S
C892 H917 0.950 . S
C893 C892 1.349 . S
C893 C909 1.349 . S
C894 C892 1.327 . S
C894 C913 1.429 . S
C894 H918 0.950 . S
C895 C912 1.574 . S
C895 C914 1.368 . S
C895 H919 0.949 . S
H896 C900 0.949 . S
C897 C898 1.349 . S
C897 C899 1.327 . S
C897 H920 0.950 . S
C898 C897 1.349 . S
C898 C910 1.349 . S
C899 C897 1.327 . S
C899 C915 1.429 . S
C899 H921 0.950 . S
C900 H896 0.949 . S
C900 C908 1.574 . S
C900 C916 1.368 . S
H901 C909 0.950 . S
H902 C907 0.950 . S
H903 C908 0.949 . S
H904 C910 0.950 . S
H905 C911 0.950 . S
H906 C912 0.949 . S
C907 H902 0.950 . S
C907 C909 1.327 . S
C907 C913 1.429 . S
C908 C900 1.574 . S
C908 H903 0.949 . S
C908 C914 1.368 1_565 S
C909 C893 1.349 . S
C909 H901 0.950 . S
C909 C907 1.327 . S
C910 C898 1.349 . S
C910 H904 0.950 . S
C910 C911 1.327 . S
C911 H905 0.950 . S
C911 C910 1.327 . S
C911 C915 1.429 . S
C912 C895 1.574 . S
C912 H906 0.949 . S
C912 C916 1.368 1_545 S
C913 C894 1.429 . S
C913 C907 1.429 . S
C913 C914 1.523 . S
C914 C895 1.368 . S
C914 C908 1.368 1_545 S
C914 C913 1.523 . S
C915 C899 1.429 . S
C915 C911 1.429 . S
C915 C916 1.523 . S
C916 C900 1.368 . S
C916 C912 1.368 1_565 S
C916 C915 1.523 . S
H917 C892 0.950 . S
H918 C894 0.950 . S
H919 C895 0.949 . S
H920 C897 0.950 . S
H921 C899 0.950 . S
C922 C923 1.349 . S
C922 C924 1.327 . S
C922 H947 0.950 . S
C923 C922 1.349 . S
C923 C939 1.349 . S
C924 C922 1.327 . S
C924 C943 1.429 . S
C924 H948 0.950 . S
C925 C942 1.574 1_545 S
C925 C944 1.368 . S
C925 H949 0.949 . S
H926 C930 0.949 . S
C927 C928 1.349 . S
C927 C929 1.327 . S
C927 H950 0.950 . S
C928 C927 1.349 . S
C928 C940 1.349 . S
C929 C927 1.327 . S
C929 C945 1.429 . S
C929 H951 0.950 . S
C930 H926 0.949 . S
C930 C938 1.574 1_565 S
C930 C946 1.368 . S
H931 C939 0.950 . S
H932 C937 0.950 . S
H933 C938 0.949 . S
H934 C940 0.950 . S
H935 C941 0.950 . S
H936 C942 0.949 . S
C937 H932 0.950 . S
C937 C939 1.327 . S
C937 C943 1.429 . S
C938 C930 1.574 1_545 S
C938 H933 0.949 . S
C938 C944 1.368 . S
C939 C923 1.349 . S
C939 H931 0.950 . S
C939 C937 1.327 . S
C940 C928 1.349 . S
C940 H934 0.950 . S
C940 C941 1.327 . S
C941 H935 0.950 . S
C941 C940 1.327 . S
C941 C945 1.429 . S
C942 C925 1.574 1_565 S
C942 H936 0.949 . S
C942 C946 1.368 . S
C943 C924 1.429 . S
C943 C937 1.429 . S
C943 C944 1.523 . S
C944 C925 1.368 . S
C944 C938 1.368 . S
C944 C943 1.523 . S
C945 C929 1.429 . S
C945 C941 1.429 . S
C945 C946 1.523 . S
C946 C930 1.368 . S
C946 C942 1.368 . S
C946 C945 1.523 . S
H947 C922 0.950 . S
H948 C924 0.950 . S
H949 C925 0.949 . S
H950 C927 0.950 . S
H951 C929 0.950 . S
C473 C3 1.462 . S
C478 C298 1.462 . S
C503 C62 1.462 . S
C508 C357 1.462 . S
C533 C121 1.462 . S
C538 C416 1.462 . S
C563 C239 1.462 . S
C568 C180 1.462 . S
C593 C5 1.682 . S
C598 C269 1.675 . S
C623 C64 1.682 . S
C628 C328 1.675 . S
C653 C387 1.675 . S
C658 C123 1.682 . S
C683 C182 1.682 . S
C688 C446 1.675 . S
C713 C241 1.682 . S
C718 C33 1.675 . S
C743 C92 1.675 . S
C748 C300 1.682 . S
C773 C359 1.682 . S
C778 C151 1.675 . S
C803 C210 1.675 . S
C808 C418 1.682 . S
C833 C170 0.584 . S
C838 C52 0.584 . S
C863 C229 0.584 . S
C868 C111 0.584 . S
C893 C288 0.584 . S
C898 C406 0.584 . S
C923 C347 0.584 . S
C928 C465 0.584 . S
