# Generated by pormake.
# Topology wgl, (5)-cn, num edge types: 1
# Building blocks:
#     Node 0, Type 0, BuildingBlock: XOMCOT_clean_sbu_0, # of connection points: 5
#     Node 1, Type 0, BuildingBlock: XOMCOT_clean_sbu_0, # of connection points: 5
#     Node 2, Type 0, BuildingBlock: XOMCOT_clean_sbu_0, # of connection points: 5
#     Node 3, Type 0, BuildingBlock: XOMCOT_clean_sbu_0, # of connection points: 5
#     Node 4, Type 0, BuildingBlock: XOMCOT_clean_sbu_0, # of connection points: 5
#     Node 5, Type 0, BuildingBlock: XOMCOT_clean_sbu_0, # of connection points: 5
#     Node 6, Type 0, BuildingBlock: XOMCOT_clean_sbu_0, # of connection points: 5
#     Node 7, Type 0, BuildingBlock: XOMCOT_clean_sbu_0, # of connection points: 5
#     Node 8, Type 0, BuildingBlock: XOMCOT_clean_sbu_0, # of connection points: 5
#     Node 9, Type 0, BuildingBlock: XOMCOT_clean_sbu_0, # of connection points: 5
#     Node 10, Type 0, BuildingBlock: XOMCOT_clean_sbu_0, # of connection points: 5
#     Node 11, Type 0, BuildingBlock: XOMCOT_clean_sbu_0, # of connection points: 5
#     Node 12, Type 0, BuildingBlock: XOMCOT_clean_sbu_0, # of connection points: 5
#     Node 13, Type 0, BuildingBlock: XOMCOT_clean_sbu_0, # of connection points: 5
#     Node 14, Type 0, BuildingBlock: XOMCOT_clean_sbu_0, # of connection points: 5
#     Node 15, Type 0, BuildingBlock: XOMCOT_clean_sbu_0, # of connection points: 5
#     Node 16, Type 0, BuildingBlock: XOMCOT_clean_sbu_0, # of connection points: 5
#     Node 17, Type 0, BuildingBlock: XOMCOT_clean_sbu_0, # of connection points: 5
#     Node 18, Type 0, BuildingBlock: XOMCOT_clean_sbu_0, # of connection points: 5
#     Node 19, Type 0, BuildingBlock: XOMCOT_clean_sbu_0, # of connection points: 5
#     Node 20, Type 0, BuildingBlock: XOMCOT_clean_sbu_0, # of connection points: 5
#     Node 21, Type 0, BuildingBlock: XOMCOT_clean_sbu_0, # of connection points: 5
#     Node 22, Type 0, BuildingBlock: XOMCOT_clean_sbu_0, # of connection points: 5
#     Node 23, Type 0, BuildingBlock: XOMCOT_clean_sbu_0, # of connection points: 5
#     Node 24, Type 0, BuildingBlock: XOMCOT_clean_sbu_0, # of connection points: 5
#     Node 25, Type 0, BuildingBlock: XOMCOT_clean_sbu_0, # of connection points: 5
#     Node 26, Type 0, BuildingBlock: XOMCOT_clean_sbu_0, # of connection points: 5
#     Node 27, Type 0, BuildingBlock: XOMCOT_clean_sbu_0, # of connection points: 5
#     Node 28, Type 0, BuildingBlock: XOMCOT_clean_sbu_0, # of connection points: 5
#     Node 29, Type 0, BuildingBlock: XOMCOT_clean_sbu_0, # of connection points: 5
#     Node 30, Type 0, BuildingBlock: XOMCOT_clean_sbu_0, # of connection points: 5
#     Node 31, Type 0, BuildingBlock: XOMCOT_clean_sbu_0, # of connection points: 5
#     Edge 32, Type (0, 0), BuildingBlock: EZIPEK_clean_linker_0, # of connection points: 2
#     Edge 33, Type (0, 0), BuildingBlock: EZIPEK_clean_linker_0, # of connection points: 2
#     Edge 34, Type (0, 0), BuildingBlock: EZIPEK_clean_linker_0, # of connection points: 2
#     Edge 35, Type (0, 0), BuildingBlock: EZIPEK_clean_linker_0, # of connection points: 2
#     Edge 36, Type (0, 0), BuildingBlock: EZIPEK_clean_linker_0, # of connection points: 2
#     Edge 37, Type (0, 0), BuildingBlock: EZIPEK_clean_linker_0, # of connection points: 2
#     Edge 38, Type (0, 0), BuildingBlock: EZIPEK_clean_linker_0, # of connection points: 2
#     Edge 39, Type (0, 0), BuildingBlock: EZIPEK_clean_linker_0, # of connection points: 2
#     Edge 40, Type (0, 0), BuildingBlock: EZIPEK_clean_linker_0, # of connection points: 2
#     Edge 41, Type (0, 0), BuildingBlock: EZIPEK_clean_linker_0, # of connection points: 2
#     Edge 42, Type (0, 0), BuildingBlock: EZIPEK_clean_linker_0, # of connection points: 2
#     Edge 43, Type (0, 0), BuildingBlock: EZIPEK_clean_linker_0, # of connection points: 2
#     Edge 44, Type (0, 0), BuildingBlock: EZIPEK_clean_linker_0, # of connection points: 2
#     Edge 45, Type (0, 0), BuildingBlock: EZIPEK_clean_linker_0, # of connection points: 2
#     Edge 46, Type (0, 0), BuildingBlock: EZIPEK_clean_linker_0, # of connection points: 2
#     Edge 47, Type (0, 0), BuildingBlock: EZIPEK_clean_linker_0, # of connection points: 2
#     Edge 48, Type (0, 0), BuildingBlock: EZIPEK_clean_linker_0, # of connection points: 2
#     Edge 49, Type (0, 0), BuildingBlock: EZIPEK_clean_linker_0, # of connection points: 2
#     Edge 50, Type (0, 0), BuildingBlock: EZIPEK_clean_linker_0, # of connection points: 2
#     Edge 51, Type (0, 0), BuildingBlock: EZIPEK_clean_linker_0, # of connection points: 2
#     Edge 52, Type (0, 0), BuildingBlock: EZIPEK_clean_linker_0, # of connection points: 2
#     Edge 53, Type (0, 0), BuildingBlock: EZIPEK_clean_linker_0, # of connection points: 2
#     Edge 54, Type (0, 0), BuildingBlock: EZIPEK_clean_linker_0, # of connection points: 2
#     Edge 55, Type (0, 0), BuildingBlock: EZIPEK_clean_linker_0, # of connection points: 2
#     Edge 56, Type (0, 0), BuildingBlock: EZIPEK_clean_linker_0, # of connection points: 2
#     Edge 57, Type (0, 0), BuildingBlock: EZIPEK_clean_linker_0, # of connection points: 2
#     Edge 58, Type (0, 0), BuildingBlock: EZIPEK_clean_linker_0, # of connection points: 2
#     Edge 59, Type (0, 0), BuildingBlock: EZIPEK_clean_linker_0, # of connection points: 2
#     Edge 60, Type (0, 0), BuildingBlock: EZIPEK_clean_linker_0, # of connection points: 2
#     Edge 61, Type (0, 0), BuildingBlock: EZIPEK_clean_linker_0, # of connection points: 2
#     Edge 62, Type (0, 0), BuildingBlock: EZIPEK_clean_linker_0, # of connection points: 2
#     Edge 63, Type (0, 0), BuildingBlock: EZIPEK_clean_linker_0, # of connection points: 2
#     Edge 64, Type (0, 0), BuildingBlock: EZIPEK_clean_linker_0, # of connection points: 2
#     Edge 65, Type (0, 0), BuildingBlock: EZIPEK_clean_linker_0, # of connection points: 2
#     Edge 66, Type (0, 0), BuildingBlock: EZIPEK_clean_linker_0, # of connection points: 2
#     Edge 67, Type (0, 0), BuildingBlock: EZIPEK_clean_linker_0, # of connection points: 2
#     Edge 68, Type (0, 0), BuildingBlock: EZIPEK_clean_linker_0, # of connection points: 2
#     Edge 69, Type (0, 0), BuildingBlock: EZIPEK_clean_linker_0, # of connection points: 2
#     Edge 70, Type (0, 0), BuildingBlock: EZIPEK_clean_linker_0, # of connection points: 2
#     Edge 71, Type (0, 0), BuildingBlock: EZIPEK_clean_linker_0, # of connection points: 2
#     Edge 72, Type (0, 0), BuildingBlock: EZIPEK_clean_linker_0, # of connection points: 2
#     Edge 73, Type (0, 0), BuildingBlock: EZIPEK_clean_linker_0, # of connection points: 2
#     Edge 74, Type (0, 0), BuildingBlock: EZIPEK_clean_linker_0, # of connection points: 2
#     Edge 75, Type (0, 0), BuildingBlock: EZIPEK_clean_linker_0, # of connection points: 2
#     Edge 76, Type (0, 0), BuildingBlock: EZIPEK_clean_linker_0, # of connection points: 2
#     Edge 77, Type (0, 0), BuildingBlock: EZIPEK_clean_linker_0, # of connection points: 2
#     Edge 78, Type (0, 0), BuildingBlock: EZIPEK_clean_linker_0, # of connection points: 2
#     Edge 79, Type (0, 0), BuildingBlock: EZIPEK_clean_linker_0, # of connection points: 2
#     Edge 80, Type (0, 0), BuildingBlock: EZIPEK_clean_linker_0, # of connection points: 2
#     Edge 81, Type (0, 0), BuildingBlock: EZIPEK_clean_linker_0, # of connection points: 2
#     Edge 82, Type (0, 0), BuildingBlock: EZIPEK_clean_linker_0, # of connection points: 2
#     Edge 83, Type (0, 0), BuildingBlock: EZIPEK_clean_linker_0, # of connection points: 2
#     Edge 84, Type (0, 0), BuildingBlock: EZIPEK_clean_linker_0, # of connection points: 2
#     Edge 85, Type (0, 0), BuildingBlock: EZIPEK_clean_linker_0, # of connection points: 2
#     Edge 86, Type (0, 0), BuildingBlock: EZIPEK_clean_linker_0, # of connection points: 2
#     Edge 87, Type (0, 0), BuildingBlock: EZIPEK_clean_linker_0, # of connection points: 2
#     Edge 88, Type (0, 0), BuildingBlock: EZIPEK_clean_linker_0, # of connection points: 2
#     Edge 89, Type (0, 0), BuildingBlock: EZIPEK_clean_linker_0, # of connection points: 2
#     Edge 90, Type (0, 0), BuildingBlock: EZIPEK_clean_linker_0, # of connection points: 2
#     Edge 91, Type (0, 0), BuildingBlock: EZIPEK_clean_linker_0, # of connection points: 2
#     Edge 92, Type (0, 0), BuildingBlock: EZIPEK_clean_linker_0, # of connection points: 2
#     Edge 93, Type (0, 0), BuildingBlock: EZIPEK_clean_linker_0, # of connection points: 2
#     Edge 94, Type (0, 0), BuildingBlock: EZIPEK_clean_linker_0, # of connection points: 2
#     Edge 95, Type (0, 0), BuildingBlock: EZIPEK_clean_linker_0, # of connection points: 2
#     Edge 96, Type (0, 0), BuildingBlock: EZIPEK_clean_linker_0, # of connection points: 2
#     Edge 97, Type (0, 0), BuildingBlock: EZIPEK_clean_linker_0, # of connection points: 2
#     Edge 98, Type (0, 0), BuildingBlock: EZIPEK_clean_linker_0, # of connection points: 2
#     Edge 99, Type (0, 0), BuildingBlock: EZIPEK_clean_linker_0, # of connection points: 2
#     Edge 100, Type (0, 0), BuildingBlock: EZIPEK_clean_linker_0, # of connection points: 2
#     Edge 101, Type (0, 0), BuildingBlock: EZIPEK_clean_linker_0, # of connection points: 2
#     Edge 102, Type (0, 0), BuildingBlock: EZIPEK_clean_linker_0, # of connection points: 2
#     Edge 103, Type (0, 0), BuildingBlock: EZIPEK_clean_linker_0, # of connection points: 2
#     Edge 104, Type (0, 0), BuildingBlock: EZIPEK_clean_linker_0, # of connection points: 2
#     Edge 105, Type (0, 0), BuildingBlock: EZIPEK_clean_linker_0, # of connection points: 2
#     Edge 106, Type (0, 0), BuildingBlock: EZIPEK_clean_linker_0, # of connection points: 2
#     Edge 107, Type (0, 0), BuildingBlock: EZIPEK_clean_linker_0, # of connection points: 2
#     Edge 108, Type (0, 0), BuildingBlock: EZIPEK_clean_linker_0, # of connection points: 2
#     Edge 109, Type (0, 0), BuildingBlock: EZIPEK_clean_linker_0, # of connection points: 2
#     Edge 110, Type (0, 0), BuildingBlock: EZIPEK_clean_linker_0, # of connection points: 2
#     Edge 111, Type (0, 0), BuildingBlock: EZIPEK_clean_linker_0, # of connection points: 2
# Relax obj value: 0.048
# Max RMSD: 0.092
# Mean RMSD: 0.092
data_MOF--net-wgl--node1-XOMCOT_clean_sbu_0--edge1-EZIPEK_clean_linker_0
_symmetry_space_group_name_H-M    P1
_symmetry_Int_Tables_number       1
_symmetry_cell_setting            triclinic
loop_
_symmetry_equiv_pos_as_xyz
'x, y, z'
_cell_length_a     44.432811
_cell_length_b     44.294096
_cell_length_c     38.842882
_cell_angle_alpha  90.141867
_cell_angle_beta   89.859608
_cell_angle_gamma 90.386413
loop_
_atom_site_label
_atom_site_type_symbol
_atom_site_fract_x
_atom_site_fract_y
_atom_site_fract_z
_atom_type_partial_charge
Co0 Co 0.29937 0.32825 0.14609 0.0
C1 C 0.33228 0.26906 0.15266 0.0
C2 C 0.33159 0.28538 0.10086 0.0
C3 C 0.34659 0.25846 0.1011 0.0
N4 N 0.32209 0.29217 0.13302 0.0
N5 N 0.34698 0.24828 0.13356 0.0
H6 H 0.32913 0.26711 0.18014 0.0
H7 H 0.32819 0.29888 0.07832 0.0
C8 C 0.27822 0.35112 0.07615 0.0
O9 O 0.28768 0.37843 0.08387 0.0
N10 N 0.27662 0.3646 0.15899 0.0
C11 C 0.28486 0.3862 0.18181 0.0
C12 C 0.2647 0.40969 0.18053 0.0
C13 C 0.25049 0.37493 0.14543 0.0
N14 N 0.24332 0.4028 0.15733 0.0
C15 C 0.35192 0.36274 0.16309 0.0
C16 C 0.37397 0.37197 0.09749 0.0
C17 C 0.38999 0.38364 0.12553 0.0
C18 C 0.37871 0.37881 0.15863 0.0
C19 C 0.34678 0.35656 0.10307 0.0
N20 N 0.33545 0.35261 0.13562 0.0
H21 H 0.34489 0.3581 0.18907 0.0
H22 H 0.33562 0.34748 0.08087 0.0
H23 H 0.30434 0.38554 0.19819 0.0
H24 H 0.23724 0.36257 0.12683 0.0
O25 O 0.30747 0.32 0.1942 0.0
O26 O 0.2677 0.30316 0.16608 0.0
O27 O 0.28232 0.32961 0.09745 0.0
C28 C 0.28302 0.30377 0.19459 0.0
H29 H 0.35631 0.24701 0.0791 0.0
H30 H 0.26621 0.43076 0.19463 0.0
H31 H 0.38243 0.37476 0.07151 0.0
H32 H 0.39087 0.38694 0.18099 0.0
Co33 Co 0.95569 0.0507 0.38977 0.0
C34 C 0.01796 0.07848 0.3875 0.0
C35 C 0.99384 0.08366 0.34012 0.0
C36 C 0.02162 0.09712 0.3365 0.0
N37 N 0.99142 0.0717 0.37203 0.0
N38 N 0.03663 0.0937 0.36619 0.0
H39 H 0.02343 0.07347 0.41392 0.0
H40 H 0.9763 0.08347 0.32089 0.0
C41 C 0.9243 0.03337 0.32156 0.0
O42 O 0.89718 0.03272 0.33479 0.0
N43 N 0.92051 0.02802 0.40623 0.0
C44 C 0.90112 0.03577 0.43145 0.0
C45 C 0.87813 1.01455 0.43275 0.0
C46 C 0.90979 1.00136 0.39384 0.0
N47 N 0.88332 0.99322 0.4086 0.0
C48 C 0.94798 0.11456 0.39472 0.0
C49 C 0.88877 0.11834 0.37451 0.0
C50 C 0.90491 0.14504 0.38104 0.0
C51 C 0.93486 0.14288 0.39133 0.0
C52 C 0.90312 0.09034 0.37733 0.0
N53 N 0.93294 0.08859 0.38579 0.0
H54 H 0.97044 0.11374 0.40505 0.0
H55 H 0.8896 0.07044 0.37423 0.0
H56 H 0.9028 0.05617 0.44671 0.0
H57 H 0.92021 0.98897 0.37298 0.0
O58 O 0.96867 0.05694 0.43643 0.0
O59 O 0.98135 1.01747 0.40486 0.0
O60 O 0.9476 0.03859 0.34003 0.0
C61 C 0.98397 0.03218 0.43396 0.0
H62 H 0.03005 0.10896 0.31408 0.0
H63 H 0.85825 1.01559 0.44886 0.0
H64 H 0.86515 0.11913 0.36776 0.0
H65 H 0.94778 0.16295 0.39771 0.0
Co66 Co 0.23249 0.70718 0.64003 0.0
C67 C 0.19058 0.76249 0.6375 0.0
C68 C 0.23336 0.76755 0.61263 0.0
C69 C 0.21847 0.79439 0.61011 0.0
N70 N 0.21618 0.7472 0.62973 0.0
N71 N 0.19169 0.79123 0.62575 0.0
H72 H 0.17179 0.7538 0.652 0.0
H73 H 0.25597 0.76342 0.60346 0.0
C74 C 0.25587 0.6882 0.56887 0.0
O75 O 0.25789 0.65952 0.57665 0.0
N76 N 0.2518 0.66779 0.64862 0.0
C77 C 0.23787 0.64102 0.65351 0.0
C78 C 0.25857 0.61811 0.65029 0.0
C79 C 0.28145 0.66049 0.64451 0.0
N80 N 0.28616 0.63001 0.64423 0.0
C81 C 0.17046 0.69397 0.65077 0.0
C82 C 0.16179 0.65206 0.59926 0.0
C83 C 0.13796 0.65859 0.62163 0.0
C84 C 0.14218 0.68089 0.64661 0.0
C85 C 0.18923 0.66741 0.60281 0.0
N86 N 0.19373 0.68786 0.62878 0.0
H87 H 0.17364 0.70845 0.67271 0.0
H88 H 0.20684 0.66099 0.58586 0.0
H89 H 0.214 0.63797 0.65771 0.0
H90 H 0.29892 0.67717 0.64 0.0
O91 O 0.22491 0.71214 0.68868 0.0
O92 O 0.26576 0.72863 0.6624 0.0
O93 O 0.24649 0.70765 0.5905 0.0
C94 C 0.24906 0.72844 0.69018 0.0
H95 H 0.22697 0.81504 0.59869 0.0
H96 H 0.25351 0.59418 0.65147 0.0
H97 H 0.1595 0.63462 0.57983 0.0
H98 H 0.12436 0.68645 0.66459 0.0
Co99 Co 0.57779 0.98392 0.90135 0.0
C100 C 0.51569 0.95975 0.89062 0.0
C101 C 0.54715 0.92429 0.90035 0.0
C102 C 0.51899 0.91168 0.89708 0.0
N103 N 0.54543 0.95437 0.89511 0.0
N104 N 0.49928 0.93395 0.89096 0.0
H105 H 0.50618 0.982 0.88749 0.0
H106 H 0.56714 0.91228 0.90783 0.0
C107 C 0.5617 0.98859 0.82533 0.0
O108 O 0.54367 0.96517 0.82691 0.0
N109 N 0.61024 1.01352 0.90831 0.0
C110 C 0.61872 0.02684 0.93812 0.0
C111 C 0.64235 0.04642 0.93172 0.0
C112 C 0.62932 0.02509 0.88424 0.0
N113 N 0.64891 0.04536 0.89789 0.0
C114 C 0.62699 0.94525 0.91687 0.0
C115 C 0.62308 0.91003 0.85805 0.0
C116 C 0.64138 0.90068 0.885 0.0
C117 C 0.64406 0.91891 0.91435 0.0
C118 C 0.60635 0.93627 0.86169 0.0
N119 N 0.60763 0.95312 0.89122 0.0
H120 H 0.62795 0.95845 0.94029 0.0
H121 H 0.59048 0.94109 0.8419 0.0
H122 H 0.60864 0.02275 0.96302 0.0
H123 H 0.62906 0.01891 0.8573 0.0
O124 O 0.57351 0.97759 0.95054 0.0
O125 O 0.54848 1.01147 0.92044 0.0
O126 O 0.57648 0.99764 0.85161 0.0
C127 C 0.55259 0.99801 0.94986 0.0
H128 H 0.51312 0.88811 0.90051 0.0
H129 H 0.6539 0.06039 0.95047 0.0
H130 H 0.62046 0.89624 0.83515 0.0
H131 H 0.65821 0.91217 0.93561 0.0
Co132 Co 0.2917 0.71026 0.35418 0.0
C133 C 0.33328 0.76517 0.35605 0.0
C134 C 0.29035 0.7715 0.3803 0.0
C135 C 0.30618 0.79803 0.38274 0.0
N136 N 0.30729 0.75059 0.36407 0.0
N137 N 0.33306 0.79395 0.36767 0.0
H138 H 0.35182 0.75565 0.34191 0.0
H139 H 0.26775 0.76761 0.38973 0.0
C140 C 0.29341 0.71582 0.43014 0.0
O141 O 0.31927 0.72988 0.42588 0.0
N142 N 0.27384 0.67084 0.34513 0.0
C143 C 0.287 0.64661 0.33063 0.0
C144 C 0.26867 0.6217 0.3357 0.0
C145 C 0.24735 0.66046 0.358 0.0
N146 N 0.24373 0.63036 0.35297 0.0
C147 C 0.35396 0.69509 0.34298 0.0
C148 C 0.35875 0.65414 0.39627 0.0
C149 C 0.38365 0.65917 0.3749 0.0
C150 C 0.38108 0.67989 0.34795 0.0
C151 C 0.33193 0.66949 0.39006 0.0
N152 N 0.33005 0.69075 0.36463 0.0
H153 H 0.35189 0.70945 0.32075 0.0
H154 H 0.31238 0.66325 0.40504 0.0
H155 H 0.30908 0.64666 0.31885 0.0
H156 H 0.23173 0.67437 0.37231 0.0
O157 O 0.29809 0.71756 0.30574 0.0
O158 O 0.25667 0.72962 0.33398 0.0
O159 O 0.27853 0.70646 0.40391 0.0
C160 C 0.27214 0.73084 0.30541 0.0
H161 H 0.29858 0.81885 0.39445 0.0
H162 H 0.27366 0.59873 0.32812 0.0
H163 H 0.35963 0.63745 0.41658 0.0
H164 H 0.39957 0.68349 0.33017 0.0
Co165 Co 0.58381 0.03769 0.6129 0.0
C166 C 0.52901 0.07909 0.61218 0.0
C167 C 0.52065 0.03423 0.63058 0.0
C168 C 0.49393 0.04949 0.63085 0.0
N169 N 0.54287 0.05259 0.61916 0.0
N170 N 0.49927 0.07761 0.61951 0.0
H171 H 0.53974 0.09904 0.60205 0.0
H172 H 0.5238 1.0111 0.63857 0.0
C173 C 0.57301 0.03936 0.68854 0.0
O174 O 0.56372 0.06715 0.6839 0.0
N175 N 0.62404 0.02063 0.60735 0.0
C176 C 0.64814 0.0341 0.59274 0.0
C177 C 0.67303 1.01607 0.5974 0.0
C178 C 0.63462 0.99421 0.62018 0.0
N179 N 0.66467 0.99091 0.61463 0.0
C180 C 0.59841 0.10021 0.60154 0.0
C181 C 0.63513 0.10814 0.65817 0.0
C182 C 0.63087 0.13232 0.63568 0.0
C183 C 0.61233 0.12816 0.60703 0.0
C184 C 0.62121 0.08043 0.65125 0.0
N185 N 0.60187 0.07696 0.62423 0.0
H186 H 0.58543 0.09714 0.57835 0.0
H187 H 0.62699 0.06156 0.66681 0.0
H188 H 0.64786 0.05595 0.5804 0.0
H189 H 0.6208 0.97809 0.63407 0.0
O190 O 0.57988 0.04382 0.56389 0.0
O191 O 0.56611 1.00223 0.5907 0.0
O192 O 0.58325 0.02408 0.66297 0.0
C193 C 0.56645 1.01779 0.56222 0.0
H194 H 0.47224 0.04079 0.63902 0.0
H195 H 0.69575 0.02119 0.58902 0.0
H196 H 0.65029 0.11025 0.67986 0.0
H197 H 0.60936 0.14612 0.58848 0.0
Co198 Co 0.2397 0.33451 0.85948 0.0
C199 C 0.19421 0.28212 0.86631 0.0
C200 C 0.23388 0.27851 0.89698 0.0
C201 C 0.21733 0.25269 0.90119 0.0
N202 N 0.21952 0.29752 0.87556 0.0
N203 N 0.19272 0.25453 0.88131 0.0
H204 H 0.17814 0.28947 0.84747 0.0
H205 H 0.25608 0.28231 0.90725 0.0
C206 C 0.23683 0.33979 0.93553 0.0
O207 O 0.20836 0.33195 0.93265 0.0
N208 N 0.26208 0.37044 0.84538 0.0
C209 C 0.25381 0.3915 0.82234 0.0
C210 C 0.27323 0.41596 0.82494 0.0
C211 C 0.28663 0.38225 0.86134 0.0
N212 N 0.29371 0.4102 0.84964 0.0
C213 C 0.17918 0.35247 0.84622 0.0
C214 C 0.17837 0.40252 0.88882 0.0
C215 C 0.15215 0.39413 0.87121 0.0
C216 C 0.15289 0.36921 0.84919 0.0
C217 C 0.20427 0.38486 0.88525 0.0
N218 N 0.20387 0.35913 0.8657 0.0
H219 H 0.17984 0.33461 0.82744 0.0
H220 H 0.22467 0.39192 0.89809 0.0
H221 H 0.23412 0.38989 0.8061 0.0
H222 H 0.2983 0.3713 0.88225 0.0
O223 O 0.23272 0.32317 0.81199 0.0
O224 O 0.27197 0.30866 0.84235 0.0
O225 O 0.25325 0.34238 0.90857 0.0
C226 C 0.25674 0.30686 0.81363 0.0
H227 H 0.22413 0.23287 0.9154 0.0
H228 H 0.27183 0.43684 0.81063 0.0
H229 H 0.17874 0.42233 0.90522 0.0
H230 H 0.13332 0.36289 0.83415 0.0
Co231 Co 0.95011 0.99409 0.10544 0.0
C232 C 1.00491 0.95417 0.10988 0.0
C233 C 1.00394 0.99052 0.1466 0.0
C234 C 0.03024 0.97524 0.15083 0.0
N235 N 0.98775 0.97733 0.12128 0.0
N236 N 0.03085 0.95253 0.12789 0.0
H237 H 0.99933 0.93958 0.08848 0.0
H238 H 0.99769 1.01079 0.16033 0.0
C239 C 0.92061 1.01328 0.17481 0.0
O240 O 0.89287 1.01245 0.16326 0.0
N241 N 0.9128 1.01301 0.09093 0.0
C242 C 0.89036 1.0013 0.07176 0.0
C243 C 0.86629 0.021 0.07264 0.0
C244 C 0.9025 0.04007 0.10198 0.0
N245 N 0.87358 0.04492 0.09275 0.0
C246 C 0.93681 0.93304 0.08579 0.0
C247 C 0.89926 0.9168 0.1392 0.0
C248 C 0.90618 0.89525 0.11405 0.0
C249 C 0.92546 0.9036 0.0873 0.0
C250 C 0.91169 0.94593 0.13716 0.0
N251 N 0.93036 0.95413 0.11062 0.0
H252 H 0.95132 0.93834 0.06443 0.0
H253 H 0.90607 0.96108 0.15736 0.0
H254 H 0.89076 0.97929 0.05966 0.0
H255 H 0.91508 0.05474 0.11905 0.0
O256 O 0.9623 0.98906 0.05811 0.0
O257 O 0.97314 0.0294 0.08898 0.0
O258 O 0.94295 1.00667 0.15539 0.0
C259 C 0.97647 1.01452 0.06014 0.0
H260 H 0.04808 0.98077 0.16877 0.0
H261 H 0.84427 1.01688 0.06166 0.0
H262 H 0.88443 0.91109 0.16042 0.0
H263 H 0.93142 0.88753 0.06739 0.0
Co264 Co 0.74305 0.70645 0.87018 0.0
C265 C 0.70264 0.76088 0.87598 0.0
C266 C 0.74402 0.76408 0.90425 0.0
C267 C 0.72947 0.79101 0.90738 0.0
N268 N 0.72732 0.74505 0.88484 0.0
N269 N 0.7037 0.78905 0.88952 0.0
H270 H 0.6849 0.75248 0.85946 0.0
H271 H 0.76614 0.75914 0.91423 0.0
C272 C 0.75245 0.68288 0.94199 0.0
O273 O 0.73505 0.65955 0.93516 0.0
N274 N 0.76267 0.66838 0.85669 0.0
C275 C 0.76193 0.65402 0.82591 0.0
C276 C 0.78183 0.63015 0.82629 0.0
C277 C 0.7845 0.65374 0.87443 0.0
N278 N 0.7959 0.62996 0.85694 0.0
C279 C 0.69284 0.66642 0.8581 0.0
C280 C 0.65846 0.68408 0.91393 0.0
C281 C 0.64651 0.66324 0.89057 0.0
C282 C 0.66396 0.65437 0.86242 0.0
C283 C 0.6875 0.69557 0.90863 0.0
N284 N 0.70479 0.6863 0.88139 0.0
H285 H 0.70487 0.66067 0.83505 0.0
H286 H 0.69563 0.7125 0.92606 0.0
H287 H 0.7486 0.66082 0.80406 0.0
H288 H 0.79337 0.66114 0.89883 0.0
O289 O 0.73339 0.71537 0.82294 0.0
O290 O 0.7756 0.72919 0.84858 0.0
O291 O 0.75902 0.70211 0.91863 0.0
C292 C 0.75833 0.7306 0.82138 0.0
H293 H 0.73778 0.81109 0.92026 0.0
H294 H 0.78609 0.61447 0.80545 0.0
H295 H 0.64529 0.69174 0.93574 0.0
H296 H 0.65508 0.63866 0.84352 0.0
Co297 Co 0.08207 0.9966 0.60048 0.0
C298 C 0.029 0.9531 0.60304 0.0
C299 C 1.01717 0.99987 0.60816 0.0
C300 C 0.99125 0.98318 0.60819 0.0
N301 N 0.04102 0.98131 0.60506 0.0
N302 N 0.99854 0.9539 0.60511 0.0
H303 H 0.04198 0.93263 0.60056 0.0
H304 H 0.01855 0.02403 0.61164 0.0
C305 C 0.06394 1.006 0.67557 0.0
O306 O 0.04143 0.98698 0.67215 0.0
N307 N 0.12279 1.01365 0.59529 0.0
C308 C 0.14156 1.0105 0.56812 0.0
C309 C 0.16686 0.02824 0.57312 0.0
C310 C 0.13709 0.03376 0.6163 0.0
N311 N 0.16404 0.04287 0.60336 0.0
C312 C 0.11368 0.94207 0.58634 0.0
C313 C 0.10832 0.915 0.65002 0.0
C314 C 0.12408 0.90003 0.62393 0.0
C315 C 0.12652 0.91378 0.59172 0.0
C316 C 0.09607 0.94351 0.64366 0.0
N317 N 0.09903 0.95706 0.61216 0.0
H318 H 0.11555 0.95181 0.56106 0.0
H319 H 0.0841 0.95395 0.66426 0.0
H320 H 0.13702 0.99696 0.54557 0.0
H321 H 0.12785 0.04228 0.64017 0.0
O322 O 0.07778 0.99048 0.55118 0.0
O323 O 0.06576 0.0323 0.57814 0.0
O324 O 0.08223 1.01118 0.65057 0.0
C325 C 0.06569 1.01703 0.54943 0.0
H326 H 0.96865 0.99172 0.6116 0.0
H327 H 0.18569 0.03068 0.55558 0.0
H328 H 0.10573 0.90481 0.67519 0.0
H329 H 0.1383 0.9027 0.57081 0.0
Co330 Co 0.79525 0.33603 0.35976 0.0
C331 C 0.83783 0.28296 0.36575 0.0
C332 C 0.79334 0.27544 0.3859 0.0
C333 C 0.80908 0.24921 0.38916 0.0
N334 N 0.81117 0.29674 0.37153 0.0
N335 N 0.83685 0.25382 0.37644 0.0
H336 H 0.85711 0.29362 0.35365 0.0
H337 H 0.77003 0.2787 0.393 0.0
C338 C 0.77759 0.35716 0.4306 0.0
O339 O 0.79021 0.38342 0.42406 0.0
N340 N 0.77615 0.37492 0.34903 0.0
C341 C 0.78539 0.39777 0.32844 0.0
C342 C 0.76522 0.4213 0.33083 0.0
C343 C 0.7495 0.38463 0.36211 0.0
N344 N 0.74284 0.41314 0.35233 0.0
C345 C 0.84968 0.36952 0.34991 0.0
C346 C 0.87282 0.36463 0.4155 0.0
C347 C 0.88932 0.38021 0.39039 0.0
C348 C 0.87756 0.38239 0.35729 0.0
C349 C 0.84488 0.35182 0.40684 0.0
N350 N 0.83276 0.35564 0.37476 0.0
H351 H 0.84253 0.36969 0.32354 0.0
H352 H 0.83359 0.33835 0.42581 0.0
H353 H 0.80502 0.3978 0.3122 0.0
H354 H 0.73511 0.37094 0.37826 0.0
O355 O 0.80677 0.33028 0.31229 0.0
O356 O 0.76384 0.3146 0.33468 0.0
O357 O 0.77653 0.33675 0.40738 0.0
C358 C 0.78235 0.31467 0.30845 0.0
H359 H 0.80072 0.22808 0.39953 0.0
H360 H 0.76696 0.44291 0.31798 0.0
H361 H 0.88179 0.36175 0.44118 0.0
H362 H 0.89025 0.39337 0.33694 0.0
Co363 Co 0.4532 0.04257 0.11568 0.0
C364 C 0.50766 0.08446 0.12775 0.0
C365 C 0.51819 0.03754 0.12258 0.0
C366 C 0.54453 0.05334 0.12447 0.0
N367 N 0.4947 0.05679 0.12328 0.0
N368 N 0.53814 0.08279 0.12813 0.0
H369 H 0.49554 0.10523 0.13148 0.0
H370 H 0.51662 1.01325 0.12077 0.0
C371 C 0.4626 0.03878 0.19171 0.0
O372 O 0.48148 0.06158 0.18972 0.0
N373 N 0.41297 0.02619 0.10859 0.0
C374 C 0.38837 0.04086 0.09757 0.0
C375 C 0.36348 0.02265 0.10285 0.0
C376 C 0.40279 0.99889 0.11944 0.0
N377 N 0.37248 0.99621 0.11661 0.0
C378 C 0.44081 0.10561 0.10922 0.0
C379 C 0.39995 0.10959 0.16288 0.0
C380 C 0.40528 0.13493 0.14226 0.0
C381 C 0.42612 0.13286 0.11536 0.0
C382 C 0.41509 0.08267 0.15579 0.0
N383 N 0.43579 0.08106 0.1297 0.0
H384 H 0.45609 0.10414 0.08762 0.0
H385 H 0.40903 0.06281 0.17036 0.0
H386 H 0.38827 0.06375 0.08794 0.0
H387 H 0.41712 0.98182 0.13051 0.0
O388 O 0.45756 0.05094 0.06701 0.0
O389 O 0.47016 1.00801 0.09147 0.0
O390 O 0.45112 0.02712 0.16451 0.0
C391 C 0.47092 0.02514 0.06416 0.0
H392 H 0.56691 0.0438 0.12426 0.0
H393 H 0.34035 0.02856 0.09753 0.0
H394 H 0.38341 0.11031 0.1834 0.0
H395 H 0.43037 0.15195 0.09861 0.0
Co396 Co 0.73521 0.32842 0.64525 0.0
C397 C 0.7 0.26957 0.64769 0.0
C398 C 0.72324 0.27559 0.60001 0.0
C399 C 0.7089 0.24824 0.59901 0.0
N400 N 0.7167 0.29011 0.62979 0.0
N401 N 0.69436 0.24435 0.62895 0.0
H402 H 0.69299 0.27233 0.6742 0.0
H403 H 0.73902 0.28286 0.58077 0.0
C404 C 0.73351 0.33882 0.56937 0.0
O405 O 0.70439 0.3335 0.57049 0.0
N406 N 0.75607 0.3654 0.65927 0.0
C407 C 0.7507 0.38373 0.68631 0.0
C408 C 0.77054 0.40801 0.68484 0.0
C409 C 0.779 0.37883 0.64184 0.0
N410 N 0.78805 0.40501 0.65656 0.0
C411 C 0.67138 0.33846 0.64842 0.0
C412 C 0.67167 0.39514 0.61899 0.0
C413 C 0.64411 0.38183 0.62821 0.0
C414 C 0.64416 0.35309 0.64292 0.0
C415 C 0.69843 0.37925 0.62403 0.0
N416 N 0.69804 0.35084 0.63777 0.0
H417 H 0.67082 0.31743 0.662 0.0
H418 H 0.71944 0.3897 0.61645 0.0
H419 H 0.73325 0.38008 0.70533 0.0
H420 H 0.78881 0.37001 0.61842 0.0
O421 O 0.72758 0.31757 0.69235 0.0
O422 O 0.76854 0.30487 0.66326 0.0
O423 O 0.7493 0.33699 0.59672 0.0
C424 C 0.75272 0.30288 0.69163 0.0
H425 H 0.7105 0.23154 0.57868 0.0
H426 H 0.77145 0.42688 0.70258 0.0
H427 H 0.67246 0.4176 0.60804 0.0
H428 H 0.62333 0.34247 0.65119 0.0
Co429 Co 0.46221 0.98951 0.39582 0.0
C430 C 0.52092 0.95632 0.39729 0.0
C431 C 0.50963 0.97139 0.34658 0.0
C432 C 0.53715 0.9578 0.34505 0.0
N433 N 0.49891 0.97011 0.37922 0.0
N434 N 0.54443 0.94878 0.37693 0.0
H435 H 0.52047 0.95277 0.42483 0.0
H436 H 0.49873 0.9819 0.32495 0.0
C437 C 0.43093 1.00013 0.32808 0.0
O438 O 0.40627 0.98781 0.34063 0.0
N439 N 0.42623 1.01128 0.41126 0.0
C440 C 0.40927 1.00824 0.44002 0.0
C441 C 0.38638 0.02922 0.43945 0.0
C442 C 0.4143 0.03544 0.39504 0.0
N443 N 0.38932 0.04595 0.4107 0.0
C444 C 0.42306 0.93926 0.41297 0.0
C445 C 0.42917 0.90881 0.35122 0.0
C446 C 0.41 0.89699 0.37636 0.0
C447 C 0.40738 0.91216 0.40782 0.0
C448 C 0.44404 0.93617 0.3573 0.0
N449 N 0.43983 0.95196 0.38723 0.0
H450 H 0.42238 0.94932 0.43808 0.0
H451 H 0.45865 0.94471 0.3375 0.0
H452 H 0.41332 0.99258 0.46067 0.0
H453 H 0.4241 0.0458 0.37258 0.0
O454 O 0.4734 0.98123 0.44277 0.0
O455 O 0.48723 0.02228 0.41445 0.0
O456 O 0.45429 1.00403 0.34701 0.0
C457 C 0.48892 1.00612 0.44253 0.0
H458 H 0.55151 0.95597 0.32259 0.0
H459 H 0.36862 0.0317 0.45835 0.0
H460 H 0.43235 0.89716 0.32693 0.0
H461 H 0.39362 0.90293 0.42837 0.0
Co462 Co 0.80037 0.70117 0.15319 0.0
C463 C 0.84303 0.75496 0.13515 0.0
C464 C 0.79607 0.76501 0.13708 0.0
C465 C 0.8113 0.79119 0.13044 0.0
N466 N 0.8156 0.74199 0.14143 0.0
N467 N 0.84078 0.78508 0.12939 0.0
H468 H 0.86416 0.74325 0.13393 0.0
H469 H 0.77184 0.76313 0.13796 0.0
C470 C 0.80462 0.69991 0.0771 0.0
O471 O 0.83276 0.70858 0.0804 0.0
N472 N 0.78178 0.66191 0.16262 0.0
C473 C 0.79197 0.63886 0.18184 0.0
C474 C 0.77338 0.61398 0.17669 0.0
C475 C 0.75682 0.65089 0.14674 0.0
N476 N 0.75132 0.62155 0.15449 0.0
C477 C 0.86319 0.69227 0.16288 0.0
C478 C 0.86896 0.64228 0.12091 0.0
C479 C 0.89459 0.65448 0.13683 0.0
C480 C 0.89151 0.67965 0.15821 0.0
C481 C 0.84112 0.65622 0.12568 0.0
N482 N 0.83889 0.682 0.14476 0.0
H483 H 0.86089 0.71085 0.18073 0.0
H484 H 0.82121 0.64617 0.1145 0.0
H485 H 0.81224 0.6396 0.1972 0.0
H486 H 0.74356 0.66372 0.12866 0.0
O487 O 0.80735 0.70841 0.20146 0.0
O488 O 0.76563 0.72084 0.17444 0.0
O489 O 0.78762 0.69664 0.10353 0.0
C490 C 0.78197 0.72238 0.20237 0.0
H491 H 0.80146 0.81313 0.12599 0.0
H492 H 0.77631 0.59175 0.18765 0.0
H493 H 0.87048 0.62212 0.10518 0.0
H494 H 0.91072 0.68902 0.17175 0.0
Co495 Co 0.07484 0.0501 0.89192 0.0
C496 C 0.01892 0.08989 0.88947 0.0
C497 C 1.01321 0.04463 0.87068 0.0
C498 C 0.98594 0.05862 0.86923 0.0
N499 N 0.03406 0.06393 0.88332 0.0
N500 N 0.9895 0.08696 0.88092 0.0
H501 H 0.02869 0.11038 0.89966 0.0
H502 H 0.0177 0.02168 0.86274 0.0
C503 C 0.06763 0.05145 0.81567 0.0
O504 O 0.05741 0.07896 0.82019 0.0
N505 N 0.11485 0.03378 0.89967 0.0
C506 C 0.13686 0.04508 0.91984 0.0
C507 C 0.16201 0.02697 0.9167 0.0
C508 C 0.12682 1.00888 0.88474 0.0
N509 N 0.15563 1.00418 0.8947 0.0
C510 C 0.08884 0.11242 0.90488 0.0
C511 C 0.1265 0.12186 0.84928 0.0
C512 C 0.12277 0.14529 0.87327 0.0
C513 C 0.10374 0.14013 0.90146 0.0
C514 C 0.11266 0.09382 0.85492 0.0
N515 N 0.09286 0.08964 0.88153 0.0
H516 H 0.07469 0.10911 0.92717 0.0
H517 H 0.11853 0.07543 0.83823 0.0
H518 H 0.13495 0.06532 0.93529 0.0
H519 H 0.1149 0.99471 0.86651 0.0
O520 O 0.06862 0.05651 0.94076 0.0
O521 O 0.05675 1.01447 0.91372 0.0
O522 O 0.07674 0.03623 0.84174 0.0
C523 C 0.05568 0.03027 0.94211 0.0
H524 H 0.9651 0.04902 0.85963 0.0
H525 H 0.18351 0.0305 0.92918 0.0
H526 H 0.14145 0.12467 0.82743 0.0
H527 H 0.1007 0.15731 0.92104 0.0
Co528 Co 0.80379 0.82595 0.65245 0.0
C529 C 0.84518 0.77282 0.63753 0.0
C530 C 0.79857 0.76108 0.64401 0.0
C531 C 0.81431 0.73513 0.63909 0.0
N532 N 0.81771 0.78488 0.64414 0.0
N533 N 0.84353 0.74227 0.63466 0.0
H534 H 0.86573 0.78582 0.63477 0.0
H535 H 0.77444 0.76225 0.64699 0.0
C536 C 0.78473 0.84445 0.58131 0.0
O537 O 0.7963 0.87134 0.58671 0.0
N538 N 0.78737 0.86665 0.65981 0.0
C539 C 0.80141 0.89195 0.67103 0.0
C540 C 0.78208 0.91615 0.66811 0.0
C541 C 0.75925 0.87594 0.65125 0.0
N542 N 0.75568 0.90615 0.65532 0.0
C543 C 0.86239 0.85145 0.66281 0.0
C544 C 0.87922 0.86028 0.5956 0.0
C545 C 0.89558 0.87589 0.62135 0.0
C546 C 0.8889 0.86696 0.65531 0.0
C547 C 0.85295 0.84406 0.6042 0.0
N548 N 0.84295 0.84269 0.63746 0.0
H549 H 0.85729 0.84776 0.68955 0.0
H550 H 0.84117 0.83269 0.58395 0.0
H551 H 0.8243 0.89332 0.68004 0.0
H552 H 0.74198 0.86092 0.64156 0.0
O553 O 0.81336 0.82201 0.70089 0.0
O554 O 0.76987 0.80888 0.67811 0.0
O555 O 0.7859 0.82432 0.60465 0.0
C556 C 0.78762 0.80874 0.70479 0.0
H557 H 0.80485 0.71256 0.63767 0.0
H558 H 0.78733 0.93952 0.67386 0.0
H559 H 0.88633 0.85952 0.56911 0.0
H560 H 0.90338 0.87272 0.67669 0.0
Co561 Co 0.45346 0.55576 0.89292 0.0
C562 C 0.50709 0.59847 0.89244 0.0
C563 C 0.51516 0.55498 0.86988 0.0
C564 C 0.54167 0.57079 0.86967 0.0
N565 N 0.49323 0.5723 0.88343 0.0
N566 N 0.53673 0.59796 0.88402 0.0
H567 H 0.49634 0.61679 0.90607 0.0
H568 H 0.51218 0.53177 0.86181 0.0
C569 C 0.46191 0.54973 0.81602 0.0
O570 O 0.47683 0.57544 0.81566 0.0
N571 N 0.41431 0.53665 0.90122 0.0
C572 C 0.38795 0.55006 0.90879 0.0
C573 C 0.36482 0.52944 0.90411 0.0
C574 C 0.4067 0.50782 0.89262 0.0
N575 N 0.37648 0.50289 0.89359 0.0
C576 C 0.43213 0.61552 0.90757 0.0
C577 C 0.40968 0.62983 0.84367 0.0
C578 C 0.40628 0.65057 0.87053 0.0
C579 C 0.41773 0.64311 0.90284 0.0
C580 C 0.4225 0.6017 0.85007 0.0
N581 N 0.43419 0.59462 0.88158 0.0
H582 H 0.44104 0.61114 0.93276 0.0
H583 H 0.42214 0.58614 0.82933 0.0
H584 H 0.38533 0.57356 0.91555 0.0
H585 H 0.42282 0.49127 0.88382 0.0
O586 O 0.459 0.56323 0.94154 0.0
O587 O 0.47421 0.52226 0.91514 0.0
O588 O 0.45099 0.53935 0.84413 0.0
C589 C 0.47438 0.53872 0.94311 0.0
H590 H 0.56337 0.56247 0.86136 0.0
H591 H 0.34103 0.53391 0.90707 0.0
H592 H 0.40104 0.63474 0.81824 0.0
H593 H 0.41552 0.65851 0.9244 0.0
Co594 Co 0.73867 0.2076 0.14621 0.0
C595 C 0.69512 0.26025 0.13911 0.0
C596 C 0.73836 0.26582 0.11499 0.0
C597 C 0.72276 0.29195 0.11079 0.0
N598 N 0.72139 0.24585 0.13272 0.0
N599 N 0.69567 0.28862 0.12582 0.0
H600 H 0.67644 0.25059 0.15333 0.0
H601 H 0.76109 0.26174 0.1062 0.0
C602 C 0.74756 0.18088 0.07529 0.0
O603 O 0.73497 0.15556 0.08572 0.0
N604 N 0.7593 0.16993 0.15789 0.0
C605 C 0.75603 0.15184 0.18558 0.0
C606 C 0.77594 0.12804 0.18282 0.0
C607 C 0.78217 0.15736 0.13969 0.0
N608 N 0.79198 0.13122 0.15348 0.0
C609 C 0.68627 0.17603 0.16888 0.0
C610 C 0.65624 0.17151 0.10708 0.0
C611 C 0.64276 0.15936 0.13674 0.0
C612 C 0.65757 0.16336 0.16814 0.0
C613 C 0.68399 0.18668 0.10961 0.0
N614 N 0.69988 0.18683 0.13976 0.0
H615 H 0.69706 0.1776 0.19354 0.0
H616 H 0.69251 0.19789 0.08717 0.0
H617 H 0.74065 0.15557 0.20668 0.0
H618 H 0.79199 0.16727 0.11691 0.0
O619 O 0.73256 0.21677 0.19406 0.0
O620 O 0.77246 0.23125 0.16493 0.0
O621 O 0.7515 0.20284 0.09629 0.0
C622 C 0.75679 0.23278 0.19345 0.0
H623 H 0.73067 0.3121 0.09778 0.0
H624 H 0.77804 0.10943 0.20065 0.0
H625 H 0.64528 0.16968 0.08229 0.0
H626 H 0.64757 0.15541 0.19195 0.0
Co627 Co 0.08376 0.48378 0.39264 0.0
C628 C 0.02429 0.45048 0.39876 0.0
C629 C 0.04409 0.44688 0.34852 0.0
C630 C 0.01737 0.4311 0.34849 0.0
N631 N 0.0485 0.45941 0.37992 0.0
N632 N 1.00505 0.43353 0.37996 0.0
H633 H 0.02077 0.45551 0.42564 0.0
H634 H 0.0595 0.44848 0.32706 0.0
C635 C 0.10316 0.49842 0.31789 0.0
O636 O 0.13159 0.49282 0.32272 0.0
N637 N 0.11868 0.50913 0.40422 0.0
C638 C 0.13855 0.50384 0.42967 0.0
C639 C 0.16167 0.52477 0.42769 0.0
C640 C 0.1297 0.53386 0.38767 0.0
N641 N 0.15618 0.54364 0.40127 0.0
C642 C 0.09837 0.42082 0.39452 0.0
C643 C 0.15556 0.42403 0.36699 0.0
C644 C 0.14323 0.39568 0.37464 0.0
C645 C 0.11451 0.39432 0.38924 0.0
C646 C 0.13891 0.4501 0.37381 0.0
N647 N 0.10962 0.44838 0.38477 0.0
H648 H 0.07688 0.41896 0.40729 0.0
H649 H 0.15038 0.4714 0.3714 0.0
H650 H 0.13707 0.48516 0.44748 0.0
H651 H 0.11921 0.544 0.3655 0.0
O652 O 0.07583 0.47677 0.44104 0.0
O653 O 0.05721 0.51465 0.41126 0.0
O654 O 0.08411 0.49728 0.34257 0.0
C655 C 0.05807 0.5 0.44034 0.0
H656 H 1.0077 0.41869 0.32712 0.0
H657 H 0.18153 0.52553 0.44376 0.0
H658 H 0.17835 0.42604 0.35723 0.0
H659 H 0.10473 0.37289 0.39693 0.0
Co660 Co 0.78671 0.20262 0.85816 0.0
C661 C 0.82223 0.26189 0.86794 0.0
C662 C 0.77948 0.2593 0.89323 0.0
C663 C 0.7908 0.28771 0.8982 0.0
N664 N 0.79903 0.24262 0.87462 0.0
N665 N 0.81763 0.28931 0.88243 0.0
H666 H 0.84151 0.25708 0.85212 0.0
H667 H 0.75743 0.25175 0.90115 0.0
C668 C 0.78651 0.19821 0.93431 0.0
O669 O 0.81327 0.21099 0.93304 0.0
N670 N 0.77097 0.1637 0.84327 0.0
C671 C 0.78214 0.1437 0.82044 0.0
C672 C 0.76394 0.1181 0.82065 0.0
C673 C 0.74618 0.15023 0.85669 0.0
N674 N 0.74149 0.12236 0.84361 0.0
C675 C 0.8505 0.19537 0.85105 0.0
C676 C 0.85545 0.14374 0.8902 0.0
C677 C 0.88143 0.15622 0.87524 0.0
C678 C 0.87874 0.18254 0.85572 0.0
C679 C 0.8277 0.15809 0.8859 0.0
N680 N 0.82565 0.18431 0.86758 0.0
H681 H 0.84848 0.21321 0.83254 0.0
H682 H 0.8077 0.14769 0.89661 0.0
H683 H 0.80243 0.14711 0.80547 0.0
H684 H 0.73212 0.16032 0.87633 0.0
O685 O 0.79516 0.21441 0.81153 0.0
O686 O 0.75169 0.22226 0.83784 0.0
O687 O 0.77196 0.19303 0.90644 0.0
C688 C 0.76865 0.22624 0.81063 0.0
H689 H 0.78002 0.30606 0.91182 0.0
H690 H 0.76733 0.09768 0.80582 0.0
H691 H 0.85653 0.12283 0.90452 0.0
H692 H 0.89809 0.19208 0.84253 0.0
Co693 Co 0.08107 0.54203 0.10372 0.0
C694 C 0.02877 0.58513 0.10889 0.0
C695 C 1.01705 0.53829 0.11498 0.0
C696 C 0.99146 0.55489 0.11884 0.0
N697 N 0.04045 0.557 0.10843 0.0
N698 N 0.99879 0.58416 0.11501 0.0
H699 H 0.04169 0.60571 0.10561 0.0
H700 H 0.01866 0.51408 0.11781 0.0
C701 C 0.09482 0.52612 0.17723 0.0
O702 O 0.12171 0.5381 0.17336 0.0
N703 N 0.12174 0.52466 0.1005 0.0
C704 C 0.14797 0.539 0.0934 0.0
C705 C 0.17162 0.52009 0.10007 0.0
C706 C 0.13029 0.49651 0.11046 0.0
N707 N 0.16073 0.49326 0.11074 0.0
C708 C 0.10935 0.59948 0.09243 0.0
C709 C 0.10723 0.62184 0.15871 0.0
C710 C 0.12181 0.63871 0.13316 0.0
C711 C 0.12213 0.62757 0.09959 0.0
C712 C 0.09443 0.59373 0.15023 0.0
N713 N 0.09736 0.58173 0.11789 0.0
H714 H 0.11046 0.59166 0.0662 0.0
H715 H 0.08204 0.58211 0.16968 0.0
H716 H 0.1506 0.56185 0.08471 0.0
H717 H 0.11462 0.47914 0.11858 0.0
O718 O 0.08017 0.5498 0.05464 0.0
O719 O 0.06385 0.50779 0.07824 0.0
O720 O 0.0762 0.52609 0.15235 0.0
C721 C 0.06539 0.52482 0.05089 0.0
H722 H 0.96925 0.54633 0.1252 0.0
H723 H 0.19527 0.52577 0.09762 0.0
H724 H 0.10569 0.63033 0.18482 0.0
H725 H 0.13267 0.64035 0.07902 0.0
Co726 Co 0.74155 0.8291 0.36596 0.0
C727 C 0.69201 0.78057 0.36735 0.0
C728 C 0.73145 0.77034 0.39635 0.0
C729 C 0.71297 0.74558 0.39703 0.0
N730 N 0.71845 0.79279 0.37835 0.0
N731 N 0.68834 0.75185 0.37856 0.0
H732 H 0.67653 0.7911 0.34993 0.0
H733 H 0.7541 0.77099 0.40602 0.0
C734 C 0.73915 0.82846 0.44267 0.0
O735 O 0.71044 0.82166 0.4396 0.0
N736 N 0.76665 0.86431 0.35452 0.0
C737 C 0.76755 0.87941 0.32441 0.0
C738 C 0.78792 0.90302 0.32708 0.0
C739 C 0.78654 0.87922 0.37514 0.0
N740 N 0.79977 0.90297 0.35902 0.0
C741 C 0.683 0.85265 0.35408 0.0
C742 C 0.68442 0.8973 0.40383 0.0
C743 C 0.65791 0.89219 0.38524 0.0
C744 C 0.65759 0.87013 0.35955 0.0
C745 C 0.70955 0.87924 0.39725 0.0
N746 N 0.70782 0.8558 0.3744 0.0
H747 H 0.68278 0.8369 0.33296 0.0
H748 H 0.73023 0.88386 0.41087 0.0
H749 H 0.7541 0.874 0.30206 0.0
H750 H 0.79111 0.87329 0.40159 0.0
O751 O 0.7337 0.82153 0.31785 0.0
O752 O 0.77146 0.80179 0.34663 0.0
O753 O 0.75542 0.83233 0.4157 0.0
C754 C 0.75597 0.80292 0.31806 0.0
H755 H 0.71825 0.72372 0.4078 0.0
H756 H 0.79319 0.91943 0.30732 0.0
H757 H 0.68566 0.91505 0.423 0.0
H758 H 0.63785 0.86659 0.34368 0.0
Co759 Co 0.45626 0.49486 0.60513 0.0
C760 C 0.51094 0.45467 0.60601 0.0
C761 C 0.51765 0.49856 0.62855 0.0
C762 C 0.54418 0.48321 0.63053 0.0
N763 N 0.49674 0.48083 0.61342 0.0
N764 N 0.53997 0.45576 0.61647 0.0
H765 H 0.5003 0.43527 0.59404 0.0
H766 H 0.51368 0.52122 0.63788 0.0
C767 C 0.4382 0.50329 0.67907 0.0
O768 O 0.41397 0.48688 0.67335 0.0
N769 N 0.41589 0.5122 0.59805 0.0
C770 C 0.39644 0.50796 0.57172 0.0
C771 C 0.37196 0.52676 0.57595 0.0
C772 C 0.40326 0.53488 0.61684 0.0
N773 N 0.37615 0.5435 0.60452 0.0
C774 C 0.42116 0.4406 0.59498 0.0
C775 C 0.43927 0.41025 0.65334 0.0
C776 C 0.41869 0.39624 0.63114 0.0
C777 C 0.40997 0.41158 0.60143 0.0
C778 C 0.4498 0.43946 0.64594 0.0
N779 N 0.4398 0.45497 0.61774 0.0
H780 H 0.41555 0.45095 0.57093 0.0
H781 H 0.46625 0.44933 0.66278 0.0
H782 H 0.40014 0.49346 0.54979 0.0
H783 H 0.41426 0.54614 0.63808 0.0
O784 O 0.4619 0.48692 0.55656 0.0
O785 O 0.47402 0.5298 0.58216 0.0
O786 O 0.45609 0.50982 0.65437 0.0
C787 C 0.47499 0.51317 0.55439 0.0
H788 H 0.56487 0.4912 0.64219 0.0
H789 H 0.35301 0.52878 0.55866 0.0
H790 H 0.4471 0.39874 0.67616 0.0
H791 H 0.39478 0.40105 0.58314 0.0
Co792 Co 0.2454 0.20093 0.36155 0.0
C793 C 0.2097 0.25861 0.35701 0.0
C794 C 0.2127 0.2417 0.40849 0.0
C795 C 0.19764 0.2685 0.40949 0.0
N796 N 0.22052 0.23517 0.37563 0.0
N797 N 0.19604 0.27928 0.37729 0.0
H798 H 0.21265 0.26133 0.32958 0.0
H799 H 0.21853 0.22884 0.43097 0.0
C800 C 0.26428 0.17818 0.43273 0.0
O801 O 0.25494 0.15055 0.42616 0.0
N802 N 0.27098 0.16668 0.34871 0.0
C803 C 0.26695 0.14676 0.32271 0.0
C804 C 0.28814 0.12423 0.32517 0.0
C805 C 0.29554 0.15638 0.36568 0.0
N806 N 0.30575 0.13006 0.3526 0.0
C807 C 0.19635 0.16286 0.34096 0.0
C808 C 0.16979 0.15539 0.40474 0.0
C809 C 0.15522 0.14398 0.37562 0.0
C810 C 0.16894 0.14744 0.34351 0.0
C811 C 0.19722 0.17077 0.40105 0.0
N812 N 0.21056 0.17423 0.36942 0.0
H813 H 0.2052 0.16693 0.31558 0.0
H814 H 0.20666 0.18076 0.42378 0.0
H815 H 0.24965 0.14795 0.30337 0.0
H816 H 0.3056 0.16733 0.38773 0.0
O817 O 0.23847 0.21028 0.31343 0.0
O818 O 0.27612 0.22867 0.3442 0.0
O819 O 0.26049 0.19865 0.41024 0.0
C820 C 0.26188 0.22799 0.31495 0.0
H821 H 0.18999 0.28018 0.43239 0.0
H822 H 0.28962 0.10431 0.30907 0.0
H823 H 0.15944 0.15351 0.42993 0.0
H824 H 0.15791 0.13935 0.32038 0.0
Co825 Co 0.58198 0.49294 0.10295 0.0
C826 C 0.52531 0.45335 0.11242 0.0
C827 C 0.52283 0.49802 0.13332 0.0
C828 C 0.49551 0.48418 0.13826 0.0
N829 N 0.54186 0.47891 0.11716 0.0
N830 N 0.49704 0.45628 0.12482 0.0
H831 H 0.5326 0.43333 0.09921 0.0
H832 H 0.52839 0.52102 0.14039 0.0
C833 C 0.58187 0.49369 0.1792 0.0
O834 O 0.56721 0.46787 0.17745 0.0
N835 N 0.62119 0.51009 0.0908 0.0
C836 C 0.64424 0.4968 0.07416 0.0
C837 C 0.67005 0.51401 0.07907 0.0
C838 C 0.63326 0.53549 0.10497 0.0
N839 N 0.66318 0.53827 0.09865 0.0
C840 C 0.5913 0.43001 0.09345 0.0
C841 C 0.63839 0.42303 0.13871 0.0
C842 C 0.62757 0.39772 0.12053 0.0
C843 C 0.60323 0.40144 0.09834 0.0
C844 C 0.62436 0.45108 0.13464 0.0
N845 N 0.60055 0.45412 0.11271 0.0
H846 H 0.57505 0.43275 0.07323 0.0
H847 H 0.63335 0.47049 0.14814 0.0
H848 H 0.64291 0.47509 0.06141 0.0
H849 H 0.62083 0.55062 0.12159 0.0
O850 O 0.57263 0.485 0.05525 0.0
O851 O 0.56133 0.52725 0.08223 0.0
O852 O 0.58932 0.50742 0.15153 0.0
C853 C 0.55838 0.5103 0.05475 0.0
H854 H 0.47559 0.49418 0.14949 0.0
H855 H 0.69246 0.50842 0.07025 0.0
H856 H 0.65771 0.42118 0.15551 0.0
H857 H 0.59467 0.38267 0.08323 0.0
Co858 Co 0.29025 0.8379 0.85125 0.0
C859 C 0.33434 0.78516 0.85745 0.0
C860 C 0.29172 0.77904 0.88243 0.0
C861 C 0.30779 0.7531 0.88627 0.0
N862 N 0.30825 0.79958 0.86484 0.0
N863 N 0.33441 0.75682 0.87032 0.0
H864 H 0.35241 0.79405 0.84192 0.0
H865 H 0.2688 0.7824 0.89087 0.0
C866 C 0.29188 0.83745 0.92735 0.0
O867 O 0.31936 0.82716 0.92349 0.0
N868 N 0.2699 0.87511 0.83887 0.0
C869 C 0.28144 0.89803 0.82021 0.0
C870 C 0.26348 0.92306 0.82456 0.0
C871 C 0.24458 0.88632 0.85355 0.0
N872 N 0.2403 0.91579 0.84558 0.0
C873 C 0.35167 0.85583 0.84228 0.0
C874 C 0.3515 0.90279 0.88927 0.0
C875 C 0.37832 0.89516 0.8726 0.0
C876 C 0.37813 0.87194 0.84823 0.0
C877 C 0.32559 0.88564 0.88295 0.0
N878 N 0.32638 0.86132 0.86117 0.0
H879 H 0.35143 0.83934 0.82188 0.0
H880 H 0.30486 0.89196 0.89556 0.0
H881 H 0.30259 0.89726 0.80639 0.0
H882 H 0.23057 0.87375 0.87137 0.0
O883 O 0.29893 0.82942 0.80349 0.0
O884 O 0.25817 0.81354 0.83068 0.0
O885 O 0.27581 0.84309 0.90069 0.0
C886 C 0.27506 0.81259 0.80304 0.0
H887 H 0.29993 0.73237 0.89808 0.0
H888 H 0.26771 0.94532 0.81407 0.0
H889 H 0.35079 0.92138 0.90742 0.0
H890 H 0.39829 0.86639 0.83385 0.0
Co891 Co 0.9549 0.53637 0.60539 0.0
C892 C 1.0073 0.57879 0.61076 0.0
C893 C 1.01399 0.53596 0.63546 0.0
C894 C 0.04014 0.55225 0.63783 0.0
N895 N 0.99358 0.55233 0.61821 0.0
N896 N 0.03592 0.57913 0.6225 0.0
H897 H 0.99686 0.59711 0.59692 0.0
H898 H 1.01019 0.51335 0.64504 0.0
C899 C 0.9278 0.52725 0.67635 0.0
O900 O 0.90308 0.54074 0.66629 0.0
N901 N 0.916 0.51798 0.59392 0.0
C902 C 0.89603 0.52526 0.56922 0.0
C903 C 0.87094 0.50677 0.57234 0.0
C904 C 0.90304 0.49444 0.61078 0.0
N905 N 0.87522 0.48772 0.59891 0.0
C906 C 0.92891 0.5919 0.58324 0.0
C907 C 0.92351 0.62001 0.64633 0.0
C908 C 0.91387 0.63539 0.61683 0.0
C909 C 0.91832 0.62144 0.58487 0.0
C910 C 0.93655 0.59137 0.64316 0.0
N911 N 0.93696 0.57648 0.61224 0.0
H912 H 0.93116 0.58186 0.55814 0.0
H913 H 0.94626 0.58153 0.66573 0.0
H914 H 0.8991 0.54277 0.55026 0.0
H915 H 0.91353 0.48255 0.6318 0.0
O916 O 0.96538 0.54149 0.55742 0.0
O917 O 0.97552 0.50059 0.58721 0.0
O918 O 0.94962 0.52357 0.65525 0.0
C919 C 0.97859 0.5156 0.55851 0.0
H920 H 0.06072 0.54513 0.65018 0.0
H921 H 0.85072 0.50777 0.5569 0.0
H922 H 0.92144 0.63021 0.67158 0.0
H923 H 0.91243 0.63287 0.56122 0.0
Co924 Co 0.2319 0.83029 0.13834 0.0
C925 C 0.19882 0.77089 0.1438 0.0
C926 C 0.20258 0.78631 0.09169 0.0
C927 C 0.18635 0.75983 0.09175 0.0
N928 N 0.21076 0.79336 0.12426 0.0
N929 N 0.18407 0.75026 0.12441 0.0
H930 H 0.20032 0.76967 0.17154 0.0
H931 H 0.20743 0.79954 0.06913 0.0
C932 C 0.25663 0.85554 0.06951 0.0
O933 O 0.26075 0.88279 0.0815 0.0
N934 N 0.25264 0.86751 0.15287 0.0
C935 C 0.23992 0.88994 0.17131 0.0
C936 C 0.25993 0.91379 0.17387 0.0
C937 C 0.28096 0.87763 0.14599 0.0
N938 N 0.28553 0.9063 0.15741 0.0
C939 C 0.17039 0.84389 0.15015 0.0
C940 C 0.16488 0.89179 0.10592 0.0
C941 C 0.14136 0.8868 0.12976 0.0
C942 C 0.14353 0.86 0.14918 0.0
C943 C 0.19146 0.87529 0.10776 0.0
N944 N 0.19458 0.85235 0.13073 0.0
H945 H 0.17177 0.82457 0.16696 0.0
H946 H 0.20912 0.88155 0.09067 0.0
H947 H 0.21706 0.88959 0.18092 0.0
H948 H 0.2971 0.8652 0.13077 0.0
O949 O 0.22545 0.82054 0.18624 0.0
O950 O 0.26506 0.80618 0.15587 0.0
O951 O 0.24585 0.83441 0.08836 0.0
C952 C 0.25027 0.80525 0.18491 0.0
H953 H 0.17681 0.74844 0.06958 0.0
H954 H 0.2553 0.93575 0.18489 0.0
H955 H 0.16341 0.90794 0.08533 0.0
H956 H 0.12485 0.85106 0.16384 0.0
Co957 Co 0.95319 0.48311 0.89178 0.0
C958 C 1.01618 0.46031 0.88101 0.0
C959 C 0.98417 0.43094 0.85689 0.0
C960 C 1.01237 0.41924 0.8518 0.0
N961 N 0.98613 0.45667 0.87581 0.0
N962 N 0.03231 0.43764 0.86716 0.0
H963 H 0.02642 0.47857 0.89535 0.0
H964 H 0.96378 0.41996 0.84856 0.0
C965 C 0.93822 0.4811 0.81563 0.0
O966 O 0.93168 0.45231 0.81781 0.0
N967 N 0.92097 0.51037 0.90622 0.0
C968 C 0.90529 0.50936 0.93598 0.0
C969 C 0.88247 0.53041 0.93476 0.0
C970 C 0.90741 0.53219 0.88734 0.0
N971 N 0.88377 0.54465 0.90414 0.0
C972 C 0.896 0.45245 0.87626 0.0
C973 C 0.9145 0.39806 0.90379 0.0
C974 C 0.88655 0.3994 0.8875 0.0
C975 C 0.87677 0.42724 0.87459 0.0
C976 C 0.93242 0.42382 0.90575 0.0
N977 N 0.9243 0.44987 0.88962 0.0
H978 H 0.88853 0.47373 0.866 0.0
H979 H 0.95378 0.42244 0.9189 0.0
H980 H 0.90937 0.49362 0.95666 0.0
H981 H 0.91383 0.53822 0.86138 0.0
O982 O 0.96456 0.47657 0.93926 0.0
O983 O 0.98324 0.51287 0.90657 0.0
O984 O 0.94675 0.4962 0.84212 0.0
C985 C 0.98346 0.49874 0.93616 0.0
H986 H 0.01776 0.3981 0.83923 0.0
H987 H 0.86551 0.53423 0.95431 0.0
H988 H 0.92238 0.37721 0.91505 0.0
H989 H 0.85476 0.4293 0.86295 0.0
Co990 Co 0.30518 0.20557 0.64872 0.0
C991 C 0.35014 0.25789 0.64492 0.0
C992 C 0.30562 0.26805 0.62735 0.0
C993 C 0.32231 0.29405 0.62629 0.0
N994 N 0.32301 0.24495 0.63792 0.0
N995 N 0.35019 0.28786 0.63739 0.0
H996 H 0.36886 0.2461 0.65638 0.0
H997 H 0.28199 0.26607 0.62105 0.0
C998 C 0.29669 0.21323 0.57109 0.0
O999 O 0.31553 0.23607 0.56955 0.0
N1000 N 0.28415 0.16725 0.6596 0.0
C1001 C 0.27869 0.15568 0.69123 0.0
C1002 C 0.25883 0.13167 0.68853 0.0
C1003 C 0.26699 0.14986 0.63816 0.0
N1004 N 0.2514 0.12811 0.6552 0.0
C1005 C 0.35114 0.16161 0.65897 0.0
C1006 C 0.38734 0.17665 0.60359 0.0
C1007 C 0.39615 0.15325 0.62533 0.0
C1008 C 0.37782 0.14582 0.65338 0.0
C1009 C 0.36037 0.19178 0.61003 0.0
N1010 N 0.34214 0.18387 0.63705 0.0
H1011 H 0.33811 0.15634 0.68162 0.0
H1012 H 0.35517 0.21052 0.59393 0.0
H1013 H 0.28764 0.16457 0.71506 0.0
H1014 H 0.26479 0.15347 0.6108 0.0
O1015 O 0.31436 0.2127 0.69658 0.0
O1016 O 0.27285 0.22782 0.67086 0.0
O1017 O 0.28951 0.20088 0.59976 0.0
C1018 C 0.28971 0.22808 0.69846 0.0
H1019 H 0.31433 0.31621 0.61913 0.0
H1020 H 0.24976 0.11842 0.70956 0.0
H1021 H 0.40146 0.18347 0.58217 0.0
H1022 H 0.38437 0.12826 0.67118 0.0
Co1023 Co 0.57473 0.54951 0.38598 0.0
C1024 C 0.5161 0.58333 0.38891 0.0
C1025 C 0.52369 0.56198 0.34003 0.0
C1026 C 0.49723 0.57749 0.33829 0.0
N1027 N 0.53595 0.56573 0.3716 0.0
N1028 N 0.49228 0.5907 0.36894 0.0
H1029 H 0.51881 0.59047 0.41538 0.0
H1030 H 0.53298 0.54891 0.31914 0.0
C1031 C 0.60394 0.53725 0.31766 0.0
O1032 O 0.62873 0.55044 0.32856 0.0
N1033 N 0.61408 0.53166 0.39856 0.0
C1034 C 0.63951 0.54564 0.40945 0.0
C1035 C 0.66351 0.52631 0.40655 0.0
C1036 C 0.6235 0.50326 0.39024 0.0
N1037 N 0.65373 0.49962 0.39416 0.0
C1038 C 0.60193 0.60618 0.40383 0.0
C1039 C 0.60177 0.63167 0.33906 0.0
C1040 C 0.61506 0.64756 0.36635 0.0
C1041 C 0.61421 0.63491 0.39922 0.0
C1042 C 0.58999 0.60267 0.34487 0.0
N1043 N 0.59233 0.58926 0.37646 0.0
H1044 H 0.60101 0.59719 0.42961 0.0
H1045 H 0.57873 0.59126 0.32398 0.0
H1046 H 0.64173 0.56869 0.41759 0.0
H1047 H 0.60877 0.48597 0.38008 0.0
O1048 O 0.56446 0.55664 0.43359 0.0
O1049 O 0.55368 0.51452 0.4055 0.0
O1050 O 0.58118 0.53458 0.33751 0.0
C1051 C 0.55111 0.53057 0.4336 0.0
H1052 H 0.48223 0.57847 0.31638 0.0
H1053 H 0.6868 0.53186 0.41198 0.0
H1054 H 0.60089 0.64141 0.31354 0.0
H1055 H 0.62329 0.64705 0.42115 0.0
C1056 C 0.27256 0.25276 0.22197 0.0
C1057 C 0.27538 0.28472 0.22528 0.0
C1058 C 0.27115 0.27978 0.28849 0.0
C1059 C 0.27004 0.24775 0.28505 0.0
N1060 N 0.27744 0.20396 0.24943 0.0
N1061 N 0.27862 0.32877 0.26173 0.0
C1062 C 0.27275 0.23436 0.25201 0.0
C1063 C 0.27516 0.29817 0.25861 0.0
N1064 N 0.26972 0.23961 0.19025 0.0
N1065 N 0.26704 0.29286 0.32006 0.0
H1066 H 0.27759 0.34343 0.24082 0.0
H1067 H 0.28341 0.33971 0.28483 0.0
H1068 H 0.26623 0.28077 0.34294 0.0
H1069 H 0.26288 0.31573 0.32373 0.0
H1070 H 0.2636 0.21708 0.18675 0.0
H1071 H 0.27117 0.25127 0.16714 0.0
H1072 H 0.2831 0.19307 0.22655 0.0
H1073 H 0.2792 0.19003 0.27091 0.0
C1074 C 0.05677 1.01616 0.4848 0.0
C1075 C 0.0474 0.02556 0.51826 0.0
C1076 C 0.9959 0.03055 0.49658 0.0
C1077 C 1.00538 0.02428 0.46245 0.0
N1078 N 0.04694 1.01491 0.4234 0.0
N1079 N 1.0099 0.05366 0.55029 0.0
C1080 C 0.03638 1.01784 0.4563 0.0
C1081 C 0.01758 0.03637 0.52255 0.0
N1082 N 0.08554 1.00628 0.48001 0.0
N1083 N 0.96593 0.03056 0.50448 0.0
H1084 H 0.02562 0.0625 0.56738 0.0
H1085 H 0.98869 0.0633 0.55308 0.0
H1086 H 0.9494 0.02495 0.48646 0.0
H1087 H 0.95796 0.03246 0.52966 0.0
H1088 H 0.09262 0.99483 0.45801 0.0
H1089 H 0.10224 1.00907 0.49857 0.0
H1090 H 0.06974 1.01429 0.41723 0.0
H1091 H 0.03327 1.01503 0.40175 0.0
C1092 C 0.2398 0.79083 0.75878 0.0
C1093 C 0.26885 0.79142 0.77359 0.0
C1094 C 0.28415 0.74937 0.73524 0.0
C1095 C 0.25511 0.74885 0.72039 0.0
N1096 N 0.20286 0.76497 0.72427 0.0
N1097 N 0.32089 0.7748 0.77062 0.0
C1098 C 0.23223 0.76829 0.73396 0.0
C1099 C 0.29165 0.77175 0.76034 0.0
N1100 N 0.22007 0.81357 0.76622 0.0
N1101 N 0.30393 0.72677 0.72743 0.0
H1102 H 0.3281 0.78941 0.7897 0.0
H1103 H 0.33887 0.76447 0.75817 0.0
H1104 H 0.29898 0.70938 0.71016 0.0
H1105 H 0.32388 0.72311 0.74073 0.0
H1106 H 0.20008 0.81703 0.75292 0.0
H1107 H 0.22505 0.83128 0.78306 0.0
H1108 H 0.18502 0.77505 0.73727 0.0
H1109 H 0.19535 0.75047 0.70525 0.0
C1110 C 0.51071 0.04144 0.02036 0.0
C1111 C 0.49137 1.0185 0.03424 0.0
C1112 C 0.51707 0.98119 0.9977 0.0
C1113 C 0.5331 1.00473 0.98041 0.0
N1114 N 0.54302 0.05811 0.97388 0.0
N1115 N 0.47256 0.96747 0.03041 0.0
C1116 C 0.52894 0.03507 0.99106 0.0
C1117 C 0.49371 0.98861 0.02145 0.0
N1118 N 0.51382 0.06878 0.03644 0.0
N1119 N 0.52388 0.95161 0.99183 0.0
H1120 H 0.45416 0.97232 0.04614 0.0
H1121 H 0.47138 0.94609 0.01923 0.0
H1122 H 0.53857 0.94423 0.9728 0.0
H1123 H 0.51596 0.9342 0.00749 0.0
H1124 H 0.5305 0.08444 0.03004 0.0
H1125 H 0.50236 0.07499 0.05854 0.0
H1126 H 0.53706 0.08068 0.97697 0.0
H1127 H 0.55971 0.05483 0.9554 0.0
C1128 C 0.2591 0.79922 0.248 0.0
C1129 C 0.25907 0.78599 0.21478 0.0
C1130 C 0.26581 0.73587 0.24121 0.0
C1131 C 0.26309 0.74897 0.27457 0.0
N1132 N 0.25031 0.79293 0.30886 0.0
N1133 N 0.26018 0.74105 0.17942 0.0
C1134 C 0.25761 0.78054 0.27774 0.0
C1135 C 0.26214 0.75414 0.21123 0.0
N1136 N 0.26183 0.82988 0.25117 0.0
N1137 N 0.27163 0.70568 0.2382 0.0
H1138 H 0.25883 0.75325 0.15666 0.0
H1139 H 0.25834 0.71788 0.17546 0.0
H1140 H 0.27047 0.69084 0.25898 0.0
H1141 H 0.27852 0.69539 0.21541 0.0
H1142 H 0.26547 0.84081 0.27458 0.0
H1143 H 0.26394 0.84416 0.22995 0.0
H1144 H 0.24333 0.81519 0.31181 0.0
H1145 H 0.24758 0.78049 0.33123 0.0
C1146 C 0.54105 1.01577 0.46798 0.0
C1147 C 0.50932 1.01299 0.47233 0.0
C1148 C 0.51678 1.00382 0.53411 0.0
C1149 C 0.54814 1.01001 0.53084 0.0
N1150 N 0.59031 0.02235 0.49427 0.0
N1151 N 0.46716 1.01319 0.51114 0.0
C1152 C 0.56024 1.01627 0.49758 0.0
C1153 C 0.49734 1.00969 0.50593 0.0
N1154 N 0.55314 1.01662 0.43565 0.0
N1155 N 0.5053 0.99141 0.56352 0.0
H1156 H 0.4527 0.01936 0.49132 0.0
H1157 H 0.45731 1.01387 0.53551 0.0
H1158 H 0.51857 0.98371 0.58356 0.0
H1159 H 0.48291 0.9846 0.56593 0.0
H1160 H 0.57607 1.01492 0.43071 0.0
H1161 H 0.54023 1.01755 0.41339 0.0
H1162 H 0.60003 0.03149 0.47219 0.0
H1163 H 0.60558 0.01901 0.51425 0.0
C1164 C 0.30408 0.2656 0.74586 0.0
C1165 C 0.28208 0.24648 0.72975 0.0
C1166 C 0.24397 0.26522 0.7705 0.0
C1167 C 0.2653 0.2862 0.78451 0.0
N1168 N 0.31391 0.31019 0.78056 0.0
N1169 N 0.23124 0.22724 0.72779 0.0
C1170 C 0.29495 0.28714 0.77112 0.0
C1171 C 0.25211 0.24615 0.74242 0.0
N1172 N 0.33387 0.26357 0.73738 0.0
N1173 N 0.21609 0.26241 0.78495 0.0
H1174 H 0.23691 0.2093 0.71169 0.0
H1175 H 0.2081 0.22955 0.73099 0.0
H1176 H 0.20777 0.27746 0.80281 0.0
H1177 H 0.20146 0.24438 0.78049 0.0
H1178 H 0.35094 0.273 0.75236 0.0
H1179 H 0.34223 0.25172 0.71645 0.0
H1180 H 0.33458 0.31439 0.76876 0.0
H1181 H 0.30784 0.32719 0.79778 0.0
C1182 C 0.04822 0.02804 0.00673 0.0
C1183 C 0.03673 0.02228 0.97306 0.0
C1184 C 0.98549 0.02078 0.99728 0.0
C1185 C 0.99697 0.02344 0.03113 0.0
N1186 N 0.04004 0.02727 0.06866 0.0
N1187 N 0.99454 1.00446 0.93897 0.0
C1188 C 0.02857 0.02674 0.03605 0.0
C1189 C 1.00544 1.01606 0.96908 0.0
N1190 N 0.07818 0.03431 0.01071 0.0
N1191 N 0.95522 0.02338 0.99197 0.0
H1192 H 1.0082 0.99764 0.91874 0.0
H1193 H 0.97227 0.99748 0.93586 0.0
H1194 H 0.94011 0.0276 0.01203 0.0
H1195 H 0.94567 0.02488 0.96756 0.0
H1196 H 0.0875 0.04283 0.03333 0.0
H1197 H 0.09378 0.03172 0.99082 0.0
H1198 H 0.06289 0.02588 0.07419 0.0
H1199 H 0.02665 0.02752 0.09064 0.0
C1200 C 0.74401 0.77085 0.7774 0.0
C1201 C 0.76566 0.75016 0.79092 0.0
C1202 C 0.80181 0.76734 0.74685 0.0
C1203 C 0.7811 0.78989 0.73582 0.0
N1204 N 0.73545 0.81728 0.74601 0.0
N1205 N 0.81589 0.72975 0.78894 0.0
C1206 C 0.75306 0.79273 0.75261 0.0
C1207 C 0.79483 0.749 0.77597 0.0
N1208 N 0.71453 0.76966 0.78737 0.0
N1209 N 0.82742 0.76185 0.72834 0.0
H1210 H 0.81083 0.71249 0.80623 0.0
H1211 H 0.83877 0.73147 0.78333 0.0
H1212 H 0.83465 0.77485 0.70775 0.0
H1213 H 0.84075 0.74285 0.73174 0.0
H1214 H 0.69756 0.78138 0.77478 0.0
H1215 H 0.70603 0.75541 0.80608 0.0
H1216 H 0.71637 0.82264 0.76034 0.0
H1217 H 0.74163 0.83416 0.72864 0.0
C1218 C 0.74756 0.29331 0.26392 0.0
C1219 C 0.77707 0.29546 0.27714 0.0
C1220 C 0.79375 0.25696 0.23483 0.0
C1221 C 0.76381 0.25412 0.22252 0.0
N1222 N 0.71064 0.26514 0.2324 0.0
N1223 N 0.83002 0.28266 0.2708 0.0
C1224 C 0.74031 0.27086 0.2391 0.0
C1225 C 0.8007 0.27845 0.26123 0.0
N1226 N 0.72675 0.31467 0.27276 0.0
N1227 N 0.81498 0.23666 0.22418 0.0
H1228 H 0.83688 0.29349 0.29314 0.0
H1229 H 0.84818 0.27587 0.25574 0.0
H1230 H 0.81054 0.21926 0.2068 0.0
H1231 H 0.83618 0.23468 0.23521 0.0
H1232 H 0.70577 0.3164 0.26106 0.0
H1233 H 0.73164 0.33311 0.28859 0.0
H1234 H 0.69343 0.27197 0.24892 0.0
H1235 H 0.70248 0.25365 0.21109 0.0
C1236 C 0.76498 0.25179 0.71753 0.0
C1237 C 0.76059 0.28338 0.72162 0.0
C1238 C 0.75608 0.27674 0.78439 0.0
C1239 C 0.76045 0.24519 0.78038 0.0
N1240 N 0.76319 0.20182 0.7433 0.0
N1241 N 0.76058 0.3266 0.75911 0.0
C1242 C 0.76358 0.23255 0.74695 0.0
C1243 C 0.75839 0.29598 0.75516 0.0
N1244 N 0.77143 0.24014 0.68581 0.0
N1245 N 0.74892 0.28837 0.81594 0.0
H1246 H 0.76414 0.34108 0.73836 0.0
H1247 H 0.76247 0.33742 0.78283 0.0
H1248 H 0.74606 0.27511 0.83772 0.0
H1249 H 0.74261 0.31068 0.82 0.0
H1250 H 0.77938 0.21834 0.68197 0.0
H1251 H 0.77122 0.25269 0.66325 0.0
H1252 H 0.76199 0.1907 0.71971 0.0
H1253 H 0.76097 0.18722 0.76422 0.0
C1254 C 0.73874 0.76547 0.27185 0.0
C1255 C 0.76222 0.783 0.28763 0.0
C1256 C 0.79754 0.76355 0.24435 0.0
C1257 C 0.77504 0.74314 0.23175 0.0
N1258 N 0.72591 0.72082 0.23858 0.0
N1259 N 0.81475 0.7973 0.28937 0.0
C1260 C 0.74609 0.74313 0.24682 0.0
C1261 C 0.79187 0.78127 0.27426 0.0
N1262 N 0.70921 0.77005 0.28004 0.0
N1263 N 0.82373 0.76787 0.22647 0.0
H1264 H 0.81138 0.81407 0.30779 0.0
H1265 H 0.8374 0.79306 0.28449 0.0
H1266 H 0.82914 0.75634 0.2041 0.0
H1267 H 0.83895 0.78523 0.23179 0.0
H1268 H 0.69149 0.76068 0.26602 0.0
H1269 H 0.70186 0.78486 0.29882 0.0
H1270 H 0.7056 0.7176 0.25158 0.0
H1271 H 0.7307 0.70353 0.22119 0.0
C1272 C 0.49663 0.50188 0.98534 0.0
C1273 C 0.49424 0.53202 0.97349 0.0
C1274 C 0.53559 0.54709 0.01288 0.0
C1275 C 0.5369 0.51738 0.026 0.0
N1276 N 0.51471 0.46702 0.02782 0.0
N1277 N 0.5081 0.58502 0.98219 0.0
C1278 C 0.51657 0.49486 0.01287 0.0
C1279 C 0.51241 0.55515 0.98931 0.0
N1280 N 0.47931 0.47966 0.97069 0.0
N1281 N 0.55786 0.56736 0.02108 0.0
H1282 H 0.49463 0.59335 0.96278 0.0
H1283 H 0.51696 0.60232 0.99737 0.0
H1284 H 0.57633 0.56193 0.03629 0.0
H1285 H 0.56002 0.5886 0.00988 0.0
H1286 H 0.48389 0.45673 0.97303 0.0
H1287 H 0.46063 0.48402 0.95536 0.0
H1288 H 0.49717 0.45178 0.02351 0.0
H1289 H 0.52924 0.45932 0.04646 0.0
C1290 C 0.98609 0.50769 0.4952 0.0
C1291 C 0.99826 0.50641 0.52887 0.0
C1292 C 0.04942 0.50504 0.5042 0.0
C1293 C 0.03738 0.50614 0.47034 0.0
N1294 N 0.9938 0.51383 0.43393 0.0
N1295 N 0.04109 0.49649 0.56509 0.0
C1296 C 1.0056 0.509 0.46589 0.0
C1297 C 0.02979 0.50288 0.53329 0.0
N1298 N 0.95554 0.50557 0.49129 0.0
N1299 N 0.07981 0.50828 0.50867 0.0
H1300 H 0.02761 0.49336 0.58666 0.0
H1301 H 0.06341 0.49073 0.5695 0.0
H1302 H 0.09468 0.51167 0.48821 0.0
H1303 H 0.09001 0.51116 0.53256 0.0
H1304 H 0.94481 0.50268 0.46772 0.0
H1305 H 0.94085 0.50343 0.51217 0.0
H1306 H 0.97171 0.52053 0.42976 0.0
H1307 H 1.00615 0.51337 0.41126 0.0
C1308 C 0.0456 0.48973 0.0046 0.0
C1309 C 0.04631 0.51897 0.01947 0.0
C1310 C 1.00715 0.53538 0.97812 0.0
C1311 C 1.0057 0.50581 0.9642 0.0
N1312 N 0.0205 0.45331 0.968 0.0
N1313 N 0.0308 0.57151 0.016 0.0
C1314 C 0.02407 0.48259 0.97849 0.0
C1315 C 0.02815 0.54233 0.00484 0.0
N1316 N 0.0671 0.46926 0.01367 0.0
N1317 N 0.98621 0.55623 0.9683 0.0
H1318 H 0.04098 0.5781 0.0388 0.0
H1319 H 0.02348 0.58989 1.00169 0.0
H1320 H 0.96992 0.5521 0.94958 0.0
H1321 H 0.98288 0.57674 0.98082 0.0
H1322 H 0.07046 0.44887 1.0009 0.0
H1323 H 0.08393 0.47396 0.03161 0.0
H1324 H 0.02965 0.43501 0.98095 0.0
H1325 H 1.00676 0.44666 0.94775 0.0
C1326 C 0.50004 0.51803 0.4598 0.0
C1327 C 0.53166 0.52205 0.46363 0.0
C1328 C 0.52495 0.52733 0.52624 0.0
C1329 C 0.49357 0.52081 0.52306 0.0
N1330 N 0.45135 0.50879 0.48656 0.0
N1331 N 0.57468 0.52272 0.50088 0.0
C1332 C 0.48127 0.51558 0.48971 0.0
C1333 C 0.54416 0.52434 0.49701 0.0
N1334 N 0.48759 0.51807 0.42768 0.0
N1335 N 0.53668 0.53729 0.55672 0.0
H1336 H 0.5893 0.51987 0.48006 0.0
H1337 H 0.58518 0.5207 0.52471 0.0
H1338 H 0.52388 0.54169 0.57846 0.0
H1339 H 0.55877 0.54496 0.55932 0.0
H1340 H 0.46454 0.51854 0.42322 0.0
H1341 H 0.5002 0.51911 0.40511 0.0
H1342 H 0.44166 0.50008 0.46424 0.0
H1343 H 0.43614 0.51109 0.50684 0.0
C1344 C 0.34272 0.19307 0.13532 0.0
C1345 C 0.35891 0.2196 0.14389 0.0
C1346 C 0.40231 0.18921 0.16071 0.0
C1347 C 0.38783 0.16321 0.14694 0.0
N1348 N 0.34466 0.14015 0.11951 0.0
N1349 N 0.40389 0.24403 0.16393 0.0
C1350 C 0.35788 0.16492 0.13434 0.0
C1351 C 0.38853 0.21794 0.15693 0.0
N1352 N 0.31282 0.19517 0.12772 0.0
N1353 N 0.42914 0.18627 0.17746 0.0
H1354 H 0.39393 0.26522 0.16199 0.0
H1355 H 0.42671 0.24486 0.16985 0.0
H1356 H 0.43965 0.16546 0.18061 0.0
H1357 H 0.43971 0.20385 0.19065 0.0
H1358 H 0.29871 0.17655 0.12432 0.0
H1359 H 0.30159 0.21578 0.12774 0.0
H1360 H 0.32429 0.14081 0.10638 0.0
H1361 H 0.35493 0.11908 0.11831 0.0
C1362 C 0.06976 0.13647 0.38095 0.0
C1363 C 0.06619 0.10541 0.37354 0.0
C1364 C 0.12087 0.0987 0.37498 0.0
C1365 C 0.12457 0.13045 0.37801 0.0
N1366 N 0.10285 0.18022 0.38124 0.0
N1367 N 0.08732 0.05693 0.36094 0.0
C1368 C 0.09907 0.14956 0.38067 0.0
C1369 C 0.0915 0.08641 0.37021 0.0
N1370 N 0.0449 0.15327 0.38841 0.0
N1371 N 0.14545 0.0804 0.37705 0.0
H1372 H 0.06597 0.04745 0.35756 0.0
H1373 H 0.10479 0.04242 0.35449 0.0
H1374 H 0.16724 0.08881 0.38043 0.0
H1375 H 0.14408 0.05696 0.37825 0.0
H1376 H 0.04586 0.17544 0.39729 0.0
H1377 H 0.02322 0.14405 0.38841 0.0
H1378 H 0.08517 0.19542 0.3793 0.0
H1379 H 0.12393 0.19072 0.38132 0.0
C1380 C 0.16481 0.86802 0.65016 0.0
C1381 C 0.13832 0.87009 0.6299 0.0
C1382 C 0.14443 0.81743 0.61127 0.0
C1383 C 0.17081 0.8155 0.63142 0.0
N1384 N 0.2021 0.83544 0.6763 0.0
N1385 N 0.09881 0.845 0.59821 0.0
C1386 C 0.17951 0.83972 0.65309 0.0
C1387 C 0.12676 0.84412 0.61275 0.0
N1388 N 0.17698 0.89339 0.66484 0.0
N1389 N 0.13726 0.79437 0.58933 0.0
H1390 H 0.08528 0.86415 0.59918 0.0
H1391 H 0.08797 0.8261 0.588 0.0
H1392 H 0.14964 0.77447 0.58813 0.0
H1393 H 0.12029 0.79565 0.57096 0.0
H1394 H 0.19799 0.8939 0.67664 0.0
H1395 H 0.16713 0.91462 0.66311 0.0
H1396 H 0.20794 0.85112 0.69518 0.0
H1397 H 0.21316 0.81484 0.67857 0.0
C1398 C 0.45144 0.91695 0.91676 0.0
C1399 C 0.46706 0.93026 0.88876 0.0
C1400 C 0.42062 0.92922 0.85493 0.0
C1401 C 0.40699 0.91088 0.88049 0.0
N1402 N 0.41001 0.88514 0.93513 0.0
N1403 N 0.46722 0.94724 0.8299 0.0
C1404 C 0.42235 0.9045 0.91154 0.0
C1405 C 0.45171 0.93643 0.85762 0.0
N1406 N 0.46459 0.91644 0.9484 0.0
N1407 N 0.40377 0.93961 0.82812 0.0
H1408 H 0.49003 0.9523 0.83084 0.0
H1409 H 0.45804 0.94897 0.80534 0.0
H1410 H 0.38087 0.93469 0.82567 0.0
H1411 H 0.41171 0.95531 0.81031 0.0
H1412 H 0.45347 0.9096 0.97072 0.0
H1413 H 0.48578 0.92583 0.95264 0.0
H1414 H 0.42176 0.87696 0.95628 0.0
H1415 H 0.38877 0.87534 0.93232 0.0
C1416 C 0.40068 0.842 0.3882 0.0
C1417 C 0.39286 0.86859 0.37005 0.0
C1418 C 0.35098 0.84152 0.34261 0.0
C1419 C 0.35602 0.81679 0.3647 0.0
N1420 N 0.38399 0.79341 0.41011 0.0
N1421 N 0.35937 0.89471 0.33146 0.0
C1422 C 0.38069 0.8168 0.38764 0.0
C1423 C 0.36789 0.86856 0.34722 0.0
N1424 N 0.42737 0.84076 0.40553 0.0
N1425 N 0.32979 0.83888 0.31735 0.0
H1426 H 0.37097 0.9151 0.33438 0.0
H1427 H 0.33957 0.89684 0.31745 0.0
H1428 H 0.31724 0.81911 0.31377 0.0
H1429 H 0.32655 0.85496 0.29823 0.0
H1430 H 0.43565 0.82112 0.41659 0.0
H1431 H 0.4426 0.8588 0.40621 0.0
H1432 H 0.39942 0.79355 0.43025 0.0
H1433 H 0.36986 0.77451 0.40994 0.0
C1434 C 0.42763 0.11492 0.59371 0.0
C1435 C 0.42511 0.13722 0.61991 0.0
C1436 C 0.47438 0.12293 0.64285 0.0
C1437 C 0.47687 0.10077 0.61672 0.0
N1438 N 0.46 0.0796 0.56333 0.0
N1439 N 0.44876 0.16752 0.66396 0.0
C1440 C 0.45477 0.09821 0.59074 0.0
C1441 C 0.44944 0.14288 0.64272 0.0
N1442 N 0.4036 0.10871 0.57288 0.0
N1443 N 0.49503 0.12369 0.66883 0.0
H1444 H 0.43084 0.18263 0.66436 0.0
H1445 H 0.46697 0.17449 0.67889 0.0
H1446 H 0.51367 0.10952 0.66936 0.0
H1447 H 0.49272 0.1369 0.69087 0.0
H1448 H 0.40285 0.0906 0.55578 0.0
H1449 H 0.38344 0.12058 0.57417 0.0
H1450 H 0.44615 0.07832 0.54179 0.0
H1451 H 0.47984 0.06726 0.56094 0.0
C1452 C 0.14233 0.22949 0.87832 0.0
C1453 C 0.17378 0.229 0.87244 0.0
C1454 C 0.17202 0.17406 0.86689 0.0
C1455 C 0.14016 0.17434 0.87048 0.0
N1456 N 0.09462 0.20391 0.86917 0.0
N1457 N 0.2158 0.20229 0.84824 0.0
C1458 C 0.12513 0.20261 0.87288 0.0
C1459 C 0.18762 0.20171 0.86225 0.0
N1460 N 0.12909 0.25504 0.89062 0.0
N1461 N 0.18785 0.14793 0.87057 0.0
H1462 H 0.22722 0.22249 0.84329 0.0
H1463 H 0.22603 0.18314 0.83799 0.0
H1464 H 0.17793 0.12744 0.87747 0.0
H1465 H 0.21131 0.14747 0.87093 0.0
H1466 H 0.10673 0.25568 0.89871 0.0
H1467 H 0.14113 0.2749 0.89531 0.0
H1468 H 0.08292 0.22419 0.86795 0.0
H1469 H 0.08151 0.18491 0.86356 0.0
C1470 C 0.10932 0.93179 0.1094 0.0
C1471 C 0.11384 0.90719 0.13226 0.0
C1472 C 0.06138 0.91207 0.15119 0.0
C1473 C 0.05595 0.93254 0.12419 0.0
N1474 N 0.07395 0.9595 0.07469 0.0
N1475 N 0.09909 0.89389 0.19009 0.0
C1476 C 0.07963 0.94116 0.10199 0.0
C1477 C 0.09116 0.9023 0.1576 0.0
N1478 N 0.13277 0.95043 0.10113 0.0
N1479 N 0.03798 0.90274 0.1714 0.0
H1480 H 0.1216 0.89287 0.19766 0.0
H1481 H 0.08386 0.89256 0.21049 0.0
H1482 H 1.01598 0.91002 0.16718 0.0
H1483 H 0.04011 0.88587 0.18988 0.0
H1484 H 0.13022 0.97012 0.0868 0.0
H1485 H 0.15343 0.94897 0.11375 0.0
H1486 H 0.09031 0.96494 0.05637 0.0
H1487 H 0.05224 0.96657 0.06877 0.0
C1488 C 0.69562 0.83778 0.8615 0.0
C1489 C 0.68459 0.81432 0.88284 0.0
C1490 C 0.64249 0.84589 0.90096 0.0
C1491 C 0.65583 0.87067 0.88328 0.0
N1492 N 0.69541 0.89116 0.84756 0.0
N1493 N 0.64904 0.79547 0.92414 0.0
C1494 C 0.68234 0.86681 0.86339 0.0
C1495 C 0.65815 0.81808 0.90257 0.0
N1496 N 0.71907 0.83199 0.83972 0.0
N1497 N 0.61468 0.84887 0.91568 0.0
H1498 H 0.65982 0.77463 0.92503 0.0
H1499 H 0.63201 0.79784 0.94238 0.0
H1500 H 0.60268 0.86901 0.91533 0.0
H1501 H 0.60245 0.83087 0.92593 0.0
H1502 H 0.72689 0.84705 0.82118 0.0
H1503 H 0.72932 0.8109 0.83852 0.0
H1504 H 0.71632 0.8906 0.83548 0.0
H1505 H 0.68616 0.91274 0.8483 0.0
C1506 C 0.96223 0.9274 0.64101 0.0
C1507 C 0.97679 0.92989 0.6089 0.0
C1508 C 0.93346 0.90487 0.58156 0.0
C1509 C 0.92068 0.89906 0.61466 0.0
N1510 N 0.91357 0.92674 0.66767 0.0
N1511 N 0.97777 0.91934 0.54842 0.0
C1512 C 0.93241 0.91634 0.64255 0.0
C1513 C 0.96302 0.91761 0.57918 0.0
N1514 N 0.97663 0.93687 0.67008 0.0
N1515 N 0.91542 0.90492 0.55323 0.0
H1516 H 0.99898 0.92943 0.54617 0.0
H1517 H 0.97018 0.90849 0.52622 0.0
H1518 H 0.89205 0.90555 0.55562 0.0
H1519 H 0.92296 0.91054 0.52864 0.0
H1520 H 0.96764 0.93371 0.69465 0.0
H1521 H 0.99872 0.94498 0.66946 0.0
H1522 H 0.92052 0.94168 0.68691 0.0
H1523 H 0.89026 0.92389 0.66615 0.0
C1524 C 0.88661 0.19323 0.40878 0.0
C1525 C 0.89022 0.17517 0.37871 0.0
C1526 C 0.86162 0.21213 0.34538 0.0
C1527 C 0.85941 0.23072 0.37495 0.0
N1528 N 0.87454 0.24253 0.43251 0.0
N1529 N 0.88735 0.17098 0.3168 0.0
C1530 C 0.87383 0.22244 0.40582 0.0
C1531 C 0.8797 0.18578 0.34643 0.0
N1532 N 0.89349 0.18176 0.44043 0.0
N1533 N 0.84496 0.2188 0.31698 0.0
H1534 H 0.90089 0.15183 0.31654 0.0
H1535 H 0.88261 0.17929 0.29235 0.0
H1536 H 0.83128 0.23778 0.31588 0.0
H1537 H 0.8429 0.20442 0.29584 0.0
H1538 H 0.88855 0.19276 0.46346 0.0
H1539 H 0.90156 0.15995 0.44402 0.0
H1540 H 0.88693 0.23918 0.45488 0.0
H1541 H 0.86485 0.26388 0.43072 0.0
C1542 C 0.56305 0.1321 0.11341 0.0
C1543 C 0.56068 0.10589 0.13426 0.0
C1544 C 0.61242 0.11326 0.15305 0.0
C1545 C 0.61411 0.14132 0.13546 0.0
N1546 N 0.58658 0.18128 0.10736 0.0
N1547 N 0.57937 0.07924 0.1836 0.0
C1548 C 0.58806 0.15203 0.11816 0.0
C1549 C 0.58411 0.09927 0.15751 0.0
N1550 N 0.54261 0.13738 0.08804 0.0
N1551 N 0.63783 0.09875 0.1635 0.0
H1552 H 0.5582 0.06973 0.18835 0.0
H1553 H 0.59546 0.07508 0.20249 0.0
H1554 H 0.65946 0.10634 0.15739 0.0
H1555 H 0.63725 0.0772 0.17427 0.0
H1556 H 0.54529 0.15467 0.0701 0.0
H1557 H 0.5245 0.12305 0.08301 0.0
H1558 H 0.56707 0.19055 0.09708 0.0
H1559 H 0.60355 0.19706 0.11232 0.0
C1560 C 0.64736 0.21647 0.64305 0.0
C1561 C 0.67903 0.21688 0.63874 0.0
C1562 C 0.6795 0.1617 0.6348 0.0
C1563 C 0.64787 0.16111 0.64004 0.0
N1564 N 0.60278 0.18708 0.6574 0.0
N1565 N 0.72589 0.19028 0.63968 0.0
C1566 C 0.63215 0.18829 0.64695 0.0
C1567 C 0.69524 0.18949 0.6379 0.0
N1568 N 0.63167 0.24281 0.64119 0.0
N1569 N 0.69427 0.13623 0.62445 0.0
H1570 H 0.73784 0.21052 0.64131 0.0
H1571 H 0.73904 0.1711 0.64277 0.0
H1572 H 0.6836 0.11548 0.62061 0.0
H1573 H 0.7167 0.13626 0.6166 0.0
H1574 H 0.60827 0.24367 0.64021 0.0
H1575 H 0.64211 0.26377 0.63812 0.0
H1576 H 0.59093 0.20591 0.66583 0.0
H1577 H 0.59112 0.16674 0.66064 0.0
C1578 C 0.60464 0.89497 0.40527 0.0
C1579 C 0.63024 0.90991 0.3914 0.0
C1580 C 0.59958 0.95413 0.37904 0.0
C1581 C 0.5733 0.93706 0.38674 0.0
N1582 N 0.55029 0.89032 0.40473 0.0
N1583 N 0.65229 0.95328 0.36324 0.0
C1584 C 0.57565 0.90739 0.39987 0.0
C1585 C 0.62793 0.93964 0.37833 0.0
N1586 N 0.60817 0.86877 0.42327 0.0
N1587 N 0.59722 0.98424 0.37222 0.0
H1588 H 0.67357 0.94355 0.36241 0.0
H1589 H 0.651 0.97338 0.34949 0.0
H1590 H 0.57663 0.99538 0.37227 0.0
H1591 H 0.61571 0.99865 0.36976 0.0
H1592 H 0.59071 0.85814 0.43657 0.0
H1593 H 0.62927 0.85929 0.42763 0.0
H1594 H 0.55072 0.8674 0.41064 0.0
H1595 H 0.52872 0.89843 0.40017 0.0
C1596 C 0.90056 0.8446 0.14316 0.0
C1597 C 0.89306 0.86413 0.11553 0.0
C1598 C 0.86089 0.82429 0.09125 0.0
C1599 C 0.86365 0.8075 0.12197 0.0
N1600 N 0.88567 0.80172 0.17809 0.0
N1601 N 0.86339 0.87352 0.0646 0.0
C1602 C 0.88376 0.8174 0.148 0.0
C1603 C 0.87282 0.85408 0.08957 0.0
N1604 N 0.92407 0.85178 0.16433 0.0
N1605 N 0.84629 0.81157 0.06389 0.0
H1606 H 0.87057 0.89593 0.06311 0.0
H1607 H 0.84633 0.86826 0.04721 0.0
H1608 H 0.8377 0.78957 0.06482 0.0
H1609 H 0.84549 0.82146 0.03961 0.0
H1610 H 0.93242 0.83713 0.18287 0.0
H1611 H 0.9371 0.87126 0.16117 0.0
H1612 H 0.8968 0.80986 0.19981 0.0
H1613 H 0.87481 0.78112 0.18188 0.0
C1614 C 0.95422 0.11768 0.84819 0.0
C1615 C 0.96616 0.10929 0.88039 0.0
C1616 C 0.92533 0.13619 0.90954 0.0
C1617 C 0.91095 0.14047 0.87724 0.0
N1618 N 0.90943 0.12972 0.81613 0.0
N1619 N 0.96183 0.1073 0.94198 0.0
C1620 C 0.92488 0.12993 0.84653 0.0
C1621 C 0.95152 0.11788 0.91125 0.0
N1622 N 0.97107 0.11353 0.81915 0.0
N1623 N 0.91439 0.1501 0.93836 0.0
H1624 H 0.98108 0.09406 0.94388 0.0
H1625 H 0.95019 0.10989 0.9651 0.0
H1626 H 0.89557 0.16404 0.93797 0.0
H1627 H 0.92552 0.14998 0.96193 0.0
H1628 H 0.96476 0.1215 0.79503 0.0
H1629 H 0.99284 0.10486 0.82006 0.0
H1630 H 0.91757 0.11959 0.79377 0.0
H1631 H 0.88716 0.13674 0.814 0.0
C1632 C 0.87105 0.66996 0.60055 0.0
C1633 C 0.89823 0.66533 0.61904 0.0
C1634 C 0.89171 0.71515 0.64617 0.0
C1635 C 0.86609 0.72029 0.62534 0.0
N1636 N 0.83913 0.70707 0.5739 0.0
N1637 N 0.939 0.68861 0.65095 0.0
C1638 C 0.85875 0.69925 0.59925 0.0
C1639 C 0.91009 0.68953 0.63926 0.0
N1640 N 0.85543 0.64624 0.58663 0.0
N1641 N 0.89775 0.73355 0.67352 0.0
H1642 H 0.95371 0.6712 0.64458 0.0
H1643 H 0.94924 0.70677 0.66354 0.0
H1644 H 0.88461 0.75216 0.67974 0.0
H1645 H 0.91443 0.72879 0.6915 0.0
H1646 H 0.83437 0.64878 0.57523 0.0
H1647 H 0.8614 0.62378 0.5904 0.0
H1648 H 0.83444 0.69304 0.55296 0.0
H1649 H 0.83043 0.72886 0.57211 0.0
C1650 C 0.61136 0.62468 0.91604 0.0
C1651 C 0.61571 0.65052 0.89507 0.0
C1652 C 0.56434 0.64546 0.87257 0.0
C1653 C 0.56038 0.61907 0.89254 0.0
N1654 N 0.57666 0.58666 0.93803 0.0
N1655 N 0.59488 0.6898 0.85983 0.0
C1656 C 0.58283 0.60995 0.91612 0.0
C1657 C 0.59158 0.6624 0.87554 0.0
N1658 N 0.63496 0.6135 0.93452 0.0
N1659 N 0.54283 0.65307 0.84915 0.0
H1660 H 0.61469 0.70252 0.8614 0.0
H1661 H 0.5774 0.70105 0.84767 0.0
H1662 H 0.52257 0.64121 0.84688 0.0
H1663 H 0.54558 0.66997 0.83083 0.0
H1664 H 0.63448 0.59298 0.94746 0.0
H1665 H 0.65591 0.62421 0.93573 0.0
H1666 H 0.59102 0.57957 0.95745 0.0
H1667 H 0.55587 0.57561 0.93818 0.0
C1668 C 0.64696 0.35338 0.15475 0.0
C1669 C 0.64275 0.3678 0.12252 0.0
C1670 C 0.66391 0.32347 0.09374 0.0
C1671 C 0.67317 0.31192 0.12582 0.0
N1672 N 0.67887 0.31971 0.18672 0.0
N1673 N 0.65431 0.36878 0.06148 0.0
C1674 C 0.66588 0.3277 0.15644 0.0
C1675 C 0.65292 0.35336 0.09189 0.0
N1676 N 0.63275 0.36381 0.18358 0.0
N1677 N 0.66653 0.306 0.06493 0.0
H1678 H 0.64919 0.39163 0.05941 0.0
H1679 H 0.66399 0.35984 0.03925 0.0
H1680 H 0.67442 0.28386 0.06598 0.0
H1681 H 0.65802 0.31239 0.04106 0.0
H1682 H 0.63336 0.35245 0.20704 0.0
H1683 H 0.61791 0.38195 0.18316 0.0
H1684 H 0.67653 0.33223 0.20931 0.0
H1685 H 0.69463 0.30256 0.18793 0.0
C1686 C 0.97438 0.38935 0.39613 0.0
C1687 C 0.97663 0.42079 0.39039 0.0
C1688 C 0.92218 0.42564 0.39767 0.0
C1689 C 0.91941 0.39373 0.39732 0.0
N1690 N 0.94257 0.34463 0.39537 0.0
N1691 N 0.95313 0.46897 0.38282 0.0
C1692 C 0.94547 0.37534 0.39697 0.0
C1693 C 0.95068 0.4391 0.39099 0.0
N1694 N 1.00008 0.37309 0.40046 0.0
N1695 N 0.89741 0.44291 0.40405 0.0
H1696 H 0.9737 0.47916 0.37687 0.0
H1697 H 0.93472 0.48303 0.37932 0.0
H1698 H 0.87627 0.43345 0.40908 0.0
H1699 H 0.89837 0.46621 0.40758 0.0
H1700 H 1.00024 0.35048 0.40768 0.0
H1701 H 0.02139 0.38313 0.39961 0.0
H1702 H 0.96055 0.33014 0.39105 0.0
H1703 H 0.92181 0.33356 0.39648 0.0
C1704 C 0.85905 0.35669 0.91619 0.0
C1705 C 0.86769 0.37153 0.88533 0.0
C1706 C 0.84234 0.33184 0.85175 0.0
C1707 C 0.83689 0.31556 0.88249 0.0
N1708 N 0.84579 0.30915 0.94298 0.0
N1709 N 0.87252 0.37012 0.8233 0.0
C1710 C 0.84707 0.32703 0.91442 0.0
C1711 C 0.86072 0.35827 0.85288 0.0
N1712 N 0.86125 0.37135 0.9471 0.0
N1713 N 0.82899 0.32277 0.82181 0.0
H1714 H 0.88659 0.38905 0.823 0.0
H1715 H 0.87054 0.35955 0.79941 0.0
H1716 H 0.81515 0.30372 0.82029 0.0
H1717 H 0.82955 0.33556 0.79934 0.0
H1718 H 0.8527 0.36252 0.96998 0.0
H1719 H 0.86872 0.39365 0.94931 0.0
H1720 H 0.85539 0.31525 0.96645 0.0
H1721 H 0.83792 0.2869 0.94209 0.0
C1722 C 0.93879 0.6259 0.16013 0.0
C1723 C 0.92447 0.64032 0.132 0.0
C1724 C 0.96394 0.62249 0.09298 0.0
C1725 C 0.97819 0.6084 0.1211 0.0
N1726 N 0.98443 0.60306 0.18195 0.0
N1727 N 0.92724 0.65897 0.07372 0.0
C1728 C 0.96737 0.61259 0.15495 0.0
C1729 C 0.93833 0.64079 0.09901 0.0
N1730 N 0.92429 0.62309 0.19106 0.0
N1731 N 0.97401 0.61697 0.06039 0.0
H1732 H 0.90868 0.67292 0.07745 0.0
H1733 H 0.93798 0.66225 0.05015 0.0
H1734 H 0.99321 0.60426 0.05565 0.0
H1735 H 0.96255 0.62351 0.03831 0.0
H1736 H 0.93242 0.61014 0.21129 0.0
H1737 H 0.90278 0.63146 0.19565 0.0
H1738 H 0.9792 0.60758 0.20759 0.0
H1739 H 1.00545 0.59315 0.17827 0.0
C1740 C 0.67689 0.70499 0.34707 0.0
C1741 C 0.66675 0.72945 0.36747 0.0
C1742 C 0.61846 0.70353 0.37617 0.0
C1743 C 0.63076 0.67702 0.36124 0.0
N1744 N 0.67228 0.65181 0.33333 0.0
N1745 N 0.62843 0.75265 0.40193 0.0
C1746 C 0.65993 0.6777 0.34622 0.0
C1747 C 0.63739 0.72917 0.3816 0.0
N1748 N 0.70315 0.70796 0.32904 0.0
N1749 N 0.58873 0.70395 0.3852 0.0
H1750 H 0.64183 0.77177 0.40587 0.0
H1751 H 0.60863 0.75253 0.41629 0.0
H1752 H 0.57444 0.68546 0.38124 0.0
H1753 H 0.57766 0.72324 0.39367 0.0
H1754 H 0.71073 0.69218 0.31117 0.0
H1755 H 0.71611 0.72766 0.32987 0.0
H1756 H 0.69472 0.65004 0.32589 0.0
H1757 H 0.6607 0.6313 0.33207 0.0
C1758 C 0.59834 0.40639 0.65399 0.0
C1759 C 0.6153 0.39847 0.62426 0.0
C1760 C 0.57937 0.42562 0.58792 0.0
C1761 C 0.56195 0.43215 0.61748 0.0
N1762 N 0.55033 0.42301 0.6768 0.0
N1763 N 0.61842 0.39478 0.5623 0.0
C1764 C 0.56996 0.42035 0.64988 0.0
C1765 C 0.60471 0.40629 0.59094 0.0
N1766 N 0.61013 0.40241 0.68614 0.0
N1767 N 0.57245 0.43907 0.5574 0.0
H1768 H 0.63673 0.38021 0.56356 0.0
H1769 H 0.61004 0.39751 0.53749 0.0
H1770 H 0.55369 0.45289 0.55454 0.0
H1771 H 0.58623 0.43808 0.5357 0.0
H1772 H 0.59997 0.41053 0.70847 0.0
H1773 H 0.63151 0.39367 0.69041 0.0
H1774 H 0.55351 0.41259 0.70051 0.0
H1775 H 0.52936 0.43324 0.6741 0.0
C1776 C 0.18713 0.36194 0.38875 0.0
C1777 C 0.16053 0.3673 0.36953 0.0
C1778 C 0.16023 0.31451 0.35005 0.0
C1779 C 0.18689 0.30951 0.3689 0.0
N1780 N 0.23068 0.33006 0.39658 0.0
N1781 N 0.12681 0.35119 0.32438 0.0
C1782 C 0.20206 0.33396 0.38482 0.0
C1783 C 0.14876 0.34435 0.3476 0.0
N1784 N 0.19694 0.38242 0.41268 0.0
N1785 N 0.14501 0.29055 0.33619 0.0
H1786 H 0.11841 0.37299 0.32156 0.0
H1787 H 0.11913 0.33603 0.30578 0.0
H1788 H 0.15302 0.26851 0.33754 0.0
H1789 H 0.12364 0.29228 0.32545 0.0
H1790 H 0.21437 0.37801 0.42981 0.0
H1791 H 0.18599 0.40265 0.41784 0.0
H1792 H 0.24402 0.34773 0.40581 0.0
H1793 H 0.24205 0.30967 0.39361 0.0
C1794 C 0.47151 0.40778 0.13795 0.0
C1795 C 0.47196 0.43583 0.12062 0.0
C1796 C 0.41905 0.42918 0.10459 0.0
C1797 C 0.41883 0.40048 0.12081 0.0
N1798 N 0.44688 0.35917 0.14491 0.0
N1799 N 0.44936 0.46924 0.07961 0.0
C1800 C 0.44578 0.3887 0.13493 0.0
C1801 C 0.44669 0.44519 0.10135 0.0
N1802 N 0.49499 0.40011 0.1587 0.0
N1803 N 0.39274 0.442 0.09406 0.0
H1804 H 0.46956 0.48104 0.07638 0.0
H1805 H 0.43261 0.47543 0.06234 0.0
H1806 H 0.37182 0.43147 0.09666 0.0
H1807 H 0.39135 0.46422 0.0855 0.0
H1808 H 0.49457 0.38142 0.17493 0.0
H1809 H 0.51395 0.41382 0.1618 0.0
H1810 H 0.46666 0.34861 0.1525 0.0
H1811 H 0.42861 0.34442 0.14234 0.0
C1812 C 0.34445 0.70631 0.8474 0.0
C1813 C 0.35529 0.73278 0.86362 0.0
C1814 C 0.40295 0.70741 0.87492 0.0
C1815 C 0.3895 0.67931 0.86554 0.0
N1816 N 0.3443 0.652 0.84873 0.0
N1817 N 0.39419 0.75831 0.89557 0.0
C1818 C 0.35948 0.6787 0.8529 0.0
C1819 C 0.38455 0.73346 0.87783 0.0
N1820 N 0.31947 0.70766 0.82711 0.0
N1821 N 0.43325 0.70932 0.88038 0.0
H1822 H 0.38114 0.77765 0.89825 0.0
H1823 H 0.4141 0.75881 0.90968 0.0
H1824 H 0.44755 0.69094 0.87709 0.0
H1825 H 0.44449 0.72972 0.88457 0.0
H1826 H 0.31194 0.68948 0.81229 0.0
H1827 H 0.30845 0.72795 0.8223 0.0
H1828 H 0.32153 0.65091 0.84245 0.0
H1829 H 0.35322 0.63113 0.85536 0.0
C1830 C 0.09263 0.63652 0.59088 0.0
C1831 C 0.10982 0.64013 0.62148 0.0
C1832 C 0.07157 0.61169 0.65307 0.0
C1833 C 0.05783 0.60316 0.62178 0.0
N1834 N 0.05836 0.60379 0.55968 0.0
N1835 N 0.1188 0.62357 0.68006 0.0
C1836 C 0.06898 0.61473 0.59021 0.0
C1837 C 0.10011 0.62578 0.65229 0.0
N1838 N 0.09836 0.65421 0.56285 0.0
N1839 N 0.05734 0.60602 0.68357 0.0
H1840 H 0.14115 0.63087 0.67969 0.0
H1841 H 0.11321 0.6111 0.70191 0.0
H1842 H 0.03575 0.59659 0.68465 0.0
H1843 H 0.06553 0.6138 0.70713 0.0
H1844 H 0.08477 0.65406 0.54102 0.0
H1845 H 0.11474 0.67119 0.56287 0.0
H1846 H 0.06795 0.6094 0.53601 0.0
H1847 H 0.04186 0.58701 0.55816 0.0
C1848 C 0.12166 0.69516 0.14201 0.0
C1849 C 0.13779 0.66761 0.14061 0.0
C1850 C 0.18533 0.69542 0.13448 0.0
C1851 C 0.16927 0.72286 0.13516 0.0
N1852 N 0.12382 0.75001 0.14632 0.0
N1853 N 0.18492 0.64141 0.14482 0.0
C1854 C 0.1379 0.72303 0.14148 0.0
C1855 C 0.16971 0.66779 0.14012 0.0
N1856 N 0.09091 0.69462 0.14188 0.0
N1857 N 0.21523 0.69581 0.12632 0.0
H1858 H 0.17392 0.62085 0.14906 0.0
H1859 H 0.20818 0.6403 0.14767 0.0
H1860 H 0.2271 0.71583 0.12199 0.0
H1861 H 0.22776 0.67645 0.12164 0.0
H1862 H 0.07769 0.71375 0.13907 0.0
H1863 H 0.07843 0.67462 0.14303 0.0
H1864 H 0.10143 0.75202 0.15384 0.0
H1865 H 0.13543 0.77056 0.14529 0.0
C1866 C 0.07206 0.41014 0.89792 0.0
C1867 C 0.06368 0.43126 0.8724 0.0
C1868 C 0.11541 0.43289 0.85041 0.0
C1869 C 0.12352 0.41091 0.87522 0.0
N1870 N 0.11219 0.38361 0.92723 0.0
N1871 N 0.07705 0.46683 0.82849 0.0
C1872 C 0.10265 0.4013 0.90065 0.0
C1873 C 0.08543 0.44414 0.85012 0.0
N1874 N 0.05035 0.3976 0.91844 0.0
N1875 N 0.13613 0.44198 0.82644 0.0
H1876 H 0.05497 0.47464 0.82735 0.0
H1877 H 0.09198 0.47913 0.81327 0.0
H1878 H 0.15853 0.43509 0.82704 0.0
H1879 H 0.13116 0.45551 0.80539 0.0
H1880 H 0.05404 0.37963 0.93507 0.0
H1881 H 0.02789 0.40419 0.91748 0.0
H1882 H 0.0989 0.378 0.94839 0.0
H1883 H 0.1344 0.37643 0.9296 0.0
C1884 C 0.41498 0.34048 0.61862 0.0
C1885 C 0.40581 0.3657 0.63864 0.0
C1886 C 0.36724 0.33422 0.66652 0.0
C1887 C 0.37306 0.31077 0.64257 0.0
N1888 N 0.40159 0.29131 0.59503 0.0
N1889 N 0.37276 0.3872 0.68138 0.0
C1890 C 0.39714 0.31357 0.61883 0.0
C1891 C 0.38219 0.36258 0.66307 0.0
N1892 N 0.44075 0.34238 0.59946 0.0
N1893 N 0.34672 0.32925 0.69211 0.0
H1894 H 0.38322 0.40829 0.67981 0.0
H1895 H 0.35348 0.38738 0.69664 0.0
H1896 H 0.33495 0.30891 0.69423 0.0
H1897 H 0.34305 0.34406 0.71251 0.0
H1898 H 0.45019 0.32408 0.58661 0.0
H1899 H 0.45417 0.3618 0.59889 0.0
H1900 H 0.41636 0.29329 0.57431 0.0
H1901 H 0.38913 0.27127 0.595 0.0
C1902 C 0.43902 0.65475 0.38804 0.0
C1903 C 0.41141 0.64075 0.37844 0.0
C1904 C 0.43714 0.5922 0.37365 0.0
C1905 C 0.46527 0.60701 0.37763 0.0
N1906 N 0.49356 0.65305 0.38521 0.0
N1907 N 0.38491 0.59662 0.35731 0.0
C1908 C 0.46641 0.63846 0.38439 0.0
C1909 C 0.41055 0.60948 0.37034 0.0
N1910 N 0.43898 0.68349 0.40091 0.0
N1911 N 0.43603 0.56141 0.37283 0.0
H1912 H 0.36508 0.60853 0.35332 0.0
H1913 H 0.38408 0.57475 0.34743 0.0
H1914 H 0.45531 0.54827 0.37475 0.0
H1915 H 0.41601 0.54905 0.37351 0.0
H1916 H 0.45798 0.69389 0.41135 0.0
H1917 H 0.41929 0.69592 0.40401 0.0
H1918 H 0.49577 0.67646 0.38625 0.0
H1919 H 0.51396 0.64187 0.3822 0.0
C1920 C 0.27424 0.32224 0.01986 0.0
C1921 C 0.26385 0.34565 0.04172 0.0
C1922 C 0.23425 0.36537 0.99325 0.0
C1923 C 0.24918 0.34508 0.9706 0.0
N1924 N 0.28961 0.30939 0.96224 0.0
N1925 N 0.23068 0.38779 0.04995 0.0
C1926 C 0.27133 0.32537 0.98377 0.0
C1927 C 0.24298 0.36684 0.02848 0.0
N1928 N 0.28431 0.29575 0.03318 0.0
N1929 N 0.21144 0.38299 0.98121 0.0
H1930 H 0.23264 0.38635 0.0765 0.0
H1931 H 0.21856 0.40638 0.04166 0.0
H1932 H 0.20622 0.38467 0.95523 0.0
H1933 H 0.1968 0.39511 0.99686 0.0
H1934 H 0.29061 0.27748 0.01786 0.0
H1935 H 0.28089 0.28998 0.05881 0.0
H1936 H 0.30745 0.29645 0.97125 0.0
H1937 H 0.2896 0.31207 0.93566 0.0
C1938 C 0.91503 0.0477 0.22562 0.0
C1939 C 0.92569 0.02002 0.21187 0.0
C1940 C 0.94173 1.00427 0.26969 0.0
C1941 C 0.92744 0.03005 0.28376 0.0
N1942 N 0.90099 0.07692 0.27599 0.0
N1943 N 0.94801 0.97095 0.22071 0.0
C1944 C 0.91431 0.05199 0.26191 0.0
C1945 C 0.93923 0.99823 0.23376 0.0
N1946 N 0.9067 0.07034 0.20379 0.0
N1947 N 0.95748 0.98538 0.29072 0.0
H1948 H 0.94755 0.96558 0.19466 0.0
H1949 H 0.9541 0.95266 0.23587 0.0
H1950 H 0.95827 0.98787 0.31739 0.0
H1951 H 0.97157 0.96842 0.28168 0.0
H1952 H 0.90152 0.09214 0.21175 0.0
H1953 H 0.90747 0.06822 0.17709 0.0
H1954 H 0.88739 0.09163 0.26225 0.0
H1955 H 0.90256 0.08244 0.30203 0.0
C1956 C 0.24264 0.70342 0.50845 0.0
C1957 C 0.26462 0.69825 0.53412 0.0
C1958 C 0.30439 0.70125 0.49128 0.0
C1959 C 0.28296 0.70914 0.46567 0.0
N1960 N 0.23223 0.72536 0.45283 0.0
N1961 N 0.31618 0.70412 0.55175 0.0
C1962 C 0.25212 0.71228 0.47495 0.0
C1963 C 0.29545 0.70086 0.52613 0.0
N1964 N 0.2128 0.69997 0.51596 0.0
N1965 N 0.33283 0.69244 0.48259 0.0
H1966 H 0.30999 0.70598 0.57761 0.0
H1967 H 0.33889 0.70853 0.5469 0.0
H1968 H 0.34006 0.68974 0.4573 0.0
H1969 H 0.348 0.68414 0.50062 0.0
H1970 H 0.19606 0.69969 0.49722 0.0
H1971 H 0.20495 0.69576 0.54077 0.0
H1972 H 0.21023 0.73071 0.45974 0.0
H1973 H 0.2384 0.734 0.42892 0.0
C1974 C 0.54062 1.01755 0.77623 0.0
C1975 C 0.56575 1.00371 0.79177 0.0
C1976 C 0.59644 1.01495 0.74086 0.0
C1977 C 0.57051 0.02595 0.72366 0.0
N1978 N 0.51669 0.03403 0.72388 0.0
N1979 N 0.61714 0.98665 0.78818 0.0
C1980 C 0.54228 0.02638 0.74114 0.0
C1981 C 0.59358 1.00188 0.77402 0.0
N1982 N 0.51542 0.02317 0.79547 0.0
N1983 N 0.62421 1.01823 0.72638 0.0
H1984 H 0.61704 0.97868 0.81328 0.0
H1985 H 0.63627 0.98046 0.77437 0.0
H1986 H 0.62738 0.02555 0.70139 0.0
H1987 H 0.64423 1.01542 0.73986 0.0
H1988 H 0.49758 0.03627 0.78689 0.0
H1989 H 0.51351 1.0172 0.82136 0.0
H1990 H 0.49511 0.03112 0.7339 0.0
H1991 H 0.51665 0.04091 0.69837 0.0
C1992 C 0.7978 0.66858 0.02359 0.0
C1993 C 0.7922 0.69566 0.04213 0.0
C1994 C 0.75953 0.71352 0.99606 0.0
C1995 C 0.76545 0.6867 0.97695 0.0
N1996 N 0.79215 0.63961 0.97093 0.0
N1997 N 0.77343 0.74645 0.04343 0.0
C1998 C 0.78486 0.66429 0.99045 0.0
C1999 C 0.77462 0.71882 0.02765 0.0
N2000 N 0.81568 0.64698 0.03769 0.0
N2001 N 0.73839 0.73341 0.98487 0.0
H2002 H 0.78421 0.75117 0.06665 0.0
H2003 H 0.76417 0.76554 0.03213 0.0
H2004 H 0.72709 0.73082 0.96177 0.0
H2005 H 0.73018 0.7512 0.99964 0.0
H2006 H 0.81679 0.62478 0.02899 0.0
H2007 H 0.82957 0.65138 0.05856 0.0
H2008 H 0.80913 0.62451 0.97703 0.0
H2009 H 0.7822 0.63459 0.94738 0.0
C2010 C 0.04131 0.04205 0.75947 0.0
C2011 C 0.06756 0.03865 0.77996 0.0
C2012 C 0.09313 1.01488 0.73052 0.0
C2013 C 0.06764 0.02067 0.7097 0.0
N2014 N 0.02063 0.04649 0.70214 0.0
N2015 N 0.12043 0.02641 0.78263 0.0
C2016 C 0.04275 0.03639 0.72355 0.0
C2017 C 0.09401 0.02626 0.76488 0.0
N2018 N 1.01444 0.04917 0.77451 0.0
N2019 N 0.11603 0.99747 0.71814 0.0
H2020 H 0.12206 0.03306 0.80817 0.0
H2021 H 0.14111 0.02207 0.77105 0.0
H2022 H 0.11706 0.98983 0.6928 0.0
H2023 H 0.13313 0.98902 0.73362 0.0
H2024 H 0.99404 0.04891 0.76133 0.0
H2025 H 1.01187 0.05201 0.80092 0.0
H2026 H 1.00344 0.06074 0.71026 0.0
H2027 H 0.02131 0.04333 0.67552 0.0
C2028 C 0.73492 0.36817 0.51467 0.0
C2029 C 0.74763 0.3453 0.53548 0.0
C2030 C 0.77835 0.3282 0.48668 0.0
C2031 C 0.76561 0.35115 0.46579 0.0
N2032 N 0.72656 0.3878 0.4576 0.0
N2033 N 0.78763 0.30906 0.5438 0.0
C2034 C 0.74267 0.36993 0.47929 0.0
C2035 C 0.77116 0.32694 0.52233 0.0
N2036 N 0.71666 0.3894 0.52929 0.0
N2037 N 0.79608 0.3064 0.47235 0.0
H2038 H 0.78378 0.30691 0.57003 0.0
H2039 H 0.80754 0.29861 0.53637 0.0
H2040 H 0.80168 0.30563 0.44648 0.0
H2041 H 0.80256 0.28692 0.48522 0.0
H2042 H 0.70949 0.40875 0.51667 0.0
H2043 H 0.71122 0.38948 0.55535 0.0
H2044 H 0.70719 0.39936 0.46473 0.0
H2045 H 0.73062 0.38845 0.43132 0.0
C2046 C 0.44148 0.98739 0.26638 0.0
C2047 C 0.43237 1.0088 0.29126 0.0
C2048 C 0.43881 0.04957 0.24953 0.0
C2049 C 0.45188 0.02854 0.22597 0.0
N2050 N 0.46884 0.97791 0.2136 0.0
N2051 N 0.41026 0.05693 0.30235 0.0
C2052 C 0.45374 0.99748 0.23464 0.0
C2053 C 0.42768 0.03909 0.28175 0.0
N2054 N 0.4364 0.95743 0.27221 0.0
N2055 N 0.43734 0.07957 0.2415 0.0
H2056 H 0.39886 0.04822 0.32363 0.0
H2057 H 0.40373 0.07878 0.29625 0.0
H2058 H 0.44306 0.08835 0.21757 0.0
H2059 H 0.43186 0.09634 0.25919 0.0
H2060 H 0.44032 0.9406 0.25402 0.0
H2061 H 0.42403 0.95005 0.2934 0.0
H2062 H 0.47379 0.9558 0.22052 0.0
H2063 H 0.47903 0.98446 0.19057 0.0
C2064 C 0.74608 0.85383 0.53612 0.0
C2065 C 0.77143 0.83735 0.54713 0.0
C2066 C 0.77606 0.8145 0.48952 0.0
C2067 C 0.75185 0.83276 0.47788 0.0
N2068 N 0.71631 0.87274 0.48927 0.0
N2069 N 0.8091 0.79959 0.5361 0.0
C2070 C 0.73749 0.85309 0.50102 0.0
C2071 C 0.78584 0.81678 0.5244 0.0
N2072 N 0.72901 0.86887 0.55981 0.0
N2073 N 0.789 0.79416 0.46759 0.0
H2074 H 0.81344 0.79646 0.56213 0.0
H2075 H 0.82408 0.78803 0.52034 0.0
H2076 H 0.78498 0.79381 0.44131 0.0
H2077 H 0.8035 0.77711 0.47515 0.0
H2078 H 0.70816 0.87836 0.55451 0.0
H2079 H 0.73422 0.86923 0.58584 0.0
H2080 H 0.70847 0.89108 0.50344 0.0
H2081 H 0.70807 0.87235 0.46436 0.0
C2082 C 0.4795 0.52379 0.76241 0.0
C2083 C 0.45533 0.53466 0.78273 0.0
C2084 C 0.42124 0.52848 0.73375 0.0
C2085 C 0.44457 0.51467 0.71446 0.0
N2086 N 0.49482 0.49369 0.71375 0.0
N2087 N 0.40145 0.54018 0.78994 0.0
C2088 C 0.47347 0.51086 0.72963 0.0
C2089 C 0.42564 0.53462 0.76921 0.0
N2090 N 0.50838 0.52578 0.77432 0.0
N2091 N 0.39543 0.53744 0.71785 0.0
H2092 H 0.40312 0.54314 0.81639 0.0
H2093 H 0.37926 0.53776 0.78171 0.0
H2094 H 0.39196 0.53493 0.69155 0.0
H2095 H 0.37909 0.55059 0.72986 0.0
H2096 H 0.52719 0.52208 0.75883 0.0
H2097 H 0.51374 0.53293 0.79914 0.0
H2098 H 0.51475 0.48713 0.72557 0.0
H2099 H 0.49167 0.48355 0.68999 0.0
C2100 C 0.77925 0.16491 0.02462 0.0
C2101 C 0.75684 0.18411 0.03868 0.0
C2102 C 0.74819 0.20523 0.98126 0.0
C2103 C 0.77388 0.19 0.96857 0.0
N2104 N 0.81614 0.1573 0.97971 0.0
N2105 N 0.72432 0.22736 0.03092 0.0
C2106 C 0.79006 0.17037 0.99069 0.0
C2107 C 0.74261 0.20572 0.01723 0.0
N2108 N 0.79039 0.14148 0.04345 0.0
N2109 N 0.72876 0.21901 0.9592 0.0
H2110 H 0.71983 0.2294 0.05704 0.0
H2111 H 0.7162 0.24545 0.01666 0.0
H2112 H 0.73102 0.21806 0.9326 0.0
H2113 H 0.70827 0.22805 0.96712 0.0
H2114 H 0.80411 0.1248 0.033 0.0
H2115 H 0.78416 0.13708 0.06877 0.0
H2116 H 0.83091 0.1462 0.99609 0.0
H2117 H 0.82414 0.1592 0.95467 0.0
C2118 C 0.09751 0.47934 0.25749 0.0
C2119 C 0.0927 0.50275 0.2821 0.0
C2120 C 0.07434 0.53561 0.23635 0.0
C2121 C 0.08566 0.51507 0.2118 0.0
N2122 N 0.09425 0.46338 0.19748 0.0
N2123 N 0.07536 0.55305 0.29543 0.0
C2124 C 0.09308 0.48553 0.22192 0.0
C2125 C 0.08014 0.53068 0.27181 0.0
N2126 N 0.10722 0.45167 0.26815 0.0
N2127 N 0.05625 0.55849 0.22574 0.0
H2128 H 0.07887 0.55021 0.32173 0.0
H2129 H 0.06966 0.57502 0.28867 0.0
H2130 H 0.04836 0.55931 0.2005 0.0
H2131 H 0.04554 0.57338 0.24248 0.0
H2132 H 0.11448 0.43473 0.25156 0.0
H2133 H 0.10866 0.44574 0.29407 0.0
H2134 H 0.09749 0.44063 0.20275 0.0
H2135 H 0.08956 0.46782 0.17167 0.0
C2136 C 0.2722 0.22255 0.51539 0.0
C2137 C 0.28493 0.20144 0.53806 0.0
C2138 C 0.28749 0.16448 0.49072 0.0
C2139 C 0.27626 0.18677 0.46766 0.0
N2140 N 0.27525 0.24109 0.45777 0.0
N2141 N 0.30908 0.15341 0.54673 0.0
C2142 C 0.2734 0.21705 0.47968 0.0
C2143 C 0.29346 0.17246 0.52576 0.0
N2144 N 0.2597 0.24846 0.5279 0.0
N2145 N 0.29431 0.13631 0.47878 0.0
H2146 H 0.31349 0.1581 0.5725 0.0
H2147 H 0.31921 0.1336 0.5383 0.0
H2148 H 0.29751 0.13164 0.45272 0.0
H2149 H 0.29751 0.11777 0.49475 0.0
H2150 H 0.248 0.26347 0.51228 0.0
H2151 H 0.25826 0.25307 0.55423 0.0
H2152 H 0.27447 0.26341 0.46631 0.0
H2153 H 0.28332 0.23939 0.43268 0.0
C2154 C 0.59734 0.49511 0.27472 0.0
C2155 C 0.60151 0.52632 0.2816 0.0
C2156 C 0.59131 0.53716 0.22094 0.0
C2157 C 0.59089 0.50566 0.21355 0.0
N2158 N 0.60587 0.456 0.23284 0.0
N2159 N 0.61018 0.57643 0.25858 0.0
C2160 C 0.59767 0.48498 0.24023 0.0
C2161 C 0.60136 0.54714 0.25382 0.0
N2162 N 0.59268 0.47492 0.30068 0.0
N2163 N 0.58017 0.55755 0.198 0.0
H2164 H 0.6177 0.58484 0.28207 0.0
H2165 H 0.61298 0.59148 0.23821 0.0
H2166 H 0.56999 0.55149 0.17488 0.0
H2167 H 0.57763 0.58036 0.20391 0.0
H2168 H 0.58689 0.4524 0.29611 0.0
H2169 H 0.592 0.48109 0.32647 0.0
H2170 H 0.6132 0.44104 0.2517 0.0
H2171 H 0.60936 0.44828 0.20779 0.0
C2172 C 0.25182 0.83499 0.97419 0.0
C2173 C 0.2811 0.84381 0.96298 0.0
C2174 C 0.29486 0.85546 0.02266 0.0
C2175 C 0.2649 0.84975 0.03321 0.0
N2176 N 0.21299 0.84156 0.01731 0.0
N2177 N 0.32714 0.87113 0.97623 0.0
C2178 C 0.24277 0.84164 0.00853 0.0
C2179 C 0.30166 0.85658 0.98713 0.0
N2180 N 0.23305 0.81906 0.95296 0.0
N2181 N 0.31712 0.85917 0.04657 0.0
H2182 H 0.33235 0.87425 0.95041 0.0
H2183 H 0.3412 0.88331 0.9927 0.0
H2184 H 0.31321 0.85785 0.07299 0.0
H2185 H 0.33987 0.86033 0.04009 0.0
H2186 H 0.21289 0.80945 0.96143 0.0
H2187 H 0.2387 0.81288 0.92794 0.0
H2188 H 0.19579 0.83891 0.99934 0.0
H2189 H 0.20541 0.84707 0.04191 0.0
C2190 C 0.90624 0.50042 0.72813 0.0
C2191 C 0.93051 0.51649 0.71262 0.0
C2192 C 0.96056 0.50898 0.76508 0.0
C2193 C 0.93518 0.49582 0.78152 0.0
N2194 N 0.8818 0.48559 0.78117 0.0
N2195 N 0.97876 0.54172 0.71992 0.0
C2196 C 0.90739 0.4936 0.76379 0.0
C2197 C 0.95713 0.52241 0.73208 0.0
N2198 N 0.88277 0.48999 0.70861 0.0
N2199 N 0.9883 0.50748 0.78013 0.0
H2200 H 0.97735 0.55268 0.69638 0.0
H2201 H 0.99682 0.54925 0.73477 0.0
H2202 H 0.99195 0.49769 0.80413 0.0
H2203 H 1.00812 0.51348 0.76741 0.0
H2204 H 0.86622 0.47545 0.71812 0.0
H2205 H 0.88145 0.49294 0.68209 0.0
H2206 H 0.86041 0.48663 0.77031 0.0
H2207 H 0.88158 0.48106 0.80746 0.0
C2208 C 0.22639 0.43994 0.11367 0.0
C2209 C 0.22093 0.42352 0.14433 0.0
C2210 C 0.17642 0.45481 0.15464 0.0
C2211 C 0.17914 0.46772 0.12123 0.0
N2212 N 0.20414 0.46707 0.06615 0.0
N2213 N 0.18848 0.41288 0.19228 0.0
C2214 C 0.20332 0.4584 0.09982 0.0
C2215 C 0.19499 0.43 0.16407 0.0
N2216 N 0.25423 0.43934 0.09888 0.0
N2217 N 0.15848 0.46805 0.17864 0.0
H2218 H 0.20213 0.39503 0.19994 0.0
H2219 H 0.16844 0.41492 0.20608 0.0
H2220 H 0.14679 0.48774 0.17358 0.0
H2221 H 0.15814 0.46158 0.20442 0.0
H2222 H 0.26027 0.45289 0.07805 0.0
H2223 H 0.27204 0.42761 0.10985 0.0
H2224 H 0.22062 0.45989 0.04891 0.0
H2225 H 0.18656 0.47889 0.05475 0.0
C2226 C 0.83396 0.97866 0.38284 0.0
C2227 C 0.86227 0.97017 0.39658 0.0
C2228 C 0.84993 0.91689 0.3838 0.0
C2229 C 0.82055 0.92528 0.37326 0.0
N2230 N 0.78259 0.96357 0.37013 0.0
N2231 N 0.89545 0.93083 0.41495 0.0
C2232 C 0.81202 0.95605 0.37495 0.0
C2233 C 0.86975 0.93911 0.3984 0.0
N2234 N 0.82855 1.00829 0.37568 0.0
N2235 N 0.85931 0.88798 0.37852 0.0
H2236 H 0.91008 0.9466 0.42603 0.0
H2237 H 0.90092 0.90849 0.42019 0.0
H2238 H 0.84556 0.8715 0.36734 0.0
H2239 H 0.88137 0.88101 0.38246 0.0
H2240 H 0.8095 1.01554 0.36259 0.0
H2241 H 0.84458 0.02526 0.37948 0.0
H2242 H 0.77437 0.98526 0.37421 0.0
H2243 H 0.76584 0.94743 0.36562 0.0
C2244 C 0.3195 0.58675 0.65876 0.0
C2245 C 0.31334 0.61203 0.63735 0.0
C2246 C 0.35475 0.59495 0.59902 0.0
C2247 C 0.35665 0.56741 0.61716 0.0
N2248 N 0.33781 0.53528 0.66202 0.0
N2249 N 0.32521 0.63842 0.5844 0.0
C2250 C 0.33834 0.56291 0.6466 0.0
C2251 C 0.3313 0.61589 0.60696 0.0
N2252 N 0.30785 0.58597 0.69128 0.0
N2253 N 0.37576 0.60125 0.57431 0.0
H2254 H 0.30982 0.65507 0.58961 0.0
H2255 H 0.33432 0.63961 0.5597 0.0
H2256 H 0.39298 0.58628 0.56806 0.0
H2257 H 0.37784 0.62225 0.56247 0.0
H2258 H 0.31342 0.56946 0.70919 0.0
H2259 H 0.29542 0.60383 0.70142 0.0
H2260 H 0.3227 0.52955 0.68152 0.0
H2261 H 0.35101 0.5174 0.65333 0.0
C2262 C 0.70292 0.05595 0.88697 0.0
C2263 C 0.67229 0.06269 0.88066 0.0
C2264 C 0.68802 0.10589 0.84495 0.0
C2265 C 0.71841 0.10105 0.85438 0.0
N2266 N 0.75478 0.07376 0.88751 0.0
N2267 N 0.63512 0.09549 0.85647 0.0
C2268 C 0.7259 0.07651 0.87605 0.0
C2269 C 0.66467 0.08793 0.86011 0.0
N2270 N 0.70989 0.02952 0.90301 0.0
N2271 N 0.6817 0.12747 0.82105 0.0
H2272 H 0.61767 0.08277 0.86731 0.0
H2273 H 0.62793 0.11529 0.84484 0.0
H2274 H 0.69849 0.1408 0.80974 0.0
H2275 H 0.66047 0.13057 0.81047 0.0
H2276 H 0.73176 0.02166 0.90577 0.0
H2277 H 0.69338 1.01412 0.91094 0.0
H2278 H 0.76129 0.0583 0.90613 0.0
H2279 H 0.77195 0.08866 0.88025 0.0
C2280 C 0.18654 0.59056 0.41074 0.0
C2281 C 0.17646 0.5671 0.38853 0.0
C2282 C 0.20581 0.59005 0.34159 0.0
C2283 C 0.21954 0.6106 0.36493 0.0
N2284 N 0.22698 0.62559 0.42419 0.0
N2285 N 0.184 0.54029 0.33532 0.0
C2286 C 0.21088 0.60975 0.40025 0.0
C2287 C 0.18798 0.56578 0.35449 0.0
N2288 N 0.17259 0.59478 0.44168 0.0
N2289 N 0.20943 0.59394 0.307 0.0
H2290 H 0.17459 0.52081 0.34582 0.0
H2291 H 0.19379 0.53723 0.31116 0.0
H2292 H 0.22112 0.61233 0.29672 0.0
H2293 H 0.19798 0.58089 0.28883 0.0
H2294 H 0.1772 0.61313 0.45771 0.0
H2295 H 0.15427 0.58161 0.44953 0.0
H2296 H 0.22319 0.62366 0.45058 0.0
H2297 H 0.24626 0.638 0.41811 0.0
C2298 C 0.70358 0.95286 0.59967 0.0
C2299 C 0.68474 0.96645 0.62478 0.0
C2300 C 0.70923 0.93498 0.66907 0.0
C2301 C 0.73064 0.92495 0.6446 0.0
N2302 N 0.75208 0.93049 0.58811 0.0
N2303 N 0.67364 0.97387 0.68491 0.0
C2304 C 0.7288 0.93549 0.61023 0.0
C2305 C 0.68836 0.95814 0.65996 0.0
N2306 N 0.697 0.9561 0.5656 0.0
N2307 N 0.7092 0.92261 0.7012 0.0
H2308 H 0.66011 0.99217 0.67915 0.0
H2309 H 0.6773 0.97086 0.71115 0.0
H2310 H 0.72467 0.90619 0.70845 0.0
H2311 H 0.69249 0.92679 0.71942 0.0
H2312 H 0.70845 0.9446 0.54619 0.0
H2313 H 0.67797 0.9676 0.5572 0.0
H2314 H 0.75327 0.93985 0.56355 0.0
H2315 H 0.77158 0.9196 0.59585 0.0
C2316 C 0.36001 0.46439 0.84951 0.0
C2317 C 0.35905 0.47612 0.88372 0.0
C2318 C 0.31528 0.44313 0.8959 0.0
C2319 C 0.31686 0.43086 0.86214 0.0
N2320 N 0.34468 0.42471 0.80967 0.0
N2321 N 0.34086 0.47062 0.94162 0.0
C2322 C 0.3405 0.43999 0.83986 0.0
C2323 C 0.3382 0.46352 0.90755 0.0
N2324 N 0.37849 0.47737 0.82564 0.0
N2325 N 0.29103 0.43655 0.91626 0.0
H2326 H 0.35801 0.48466 0.95083 0.0
H2327 H 0.32825 0.46023 0.96092 0.0
H2328 H 0.27352 0.42245 0.90825 0.0
H2329 H 0.28695 0.4471 0.93978 0.0
H2330 H 0.37739 0.47264 0.7994 0.0
H2331 H 0.39378 0.4943 0.83173 0.0
H2332 H 0.3632 0.42802 0.79361 0.0
H2333 H 0.33098 0.40658 0.80233 0.0
C2334 C 0.82588 0.05726 0.12398 0.0
C2335 C 0.85308 0.0669 0.10792 0.0
C2336 C 0.84181 0.11891 0.12659 0.0
C2337 C 0.81276 0.10968 0.13805 0.0
N2338 N 0.77462 0.07065 0.13768 0.0
N2339 N 0.88397 0.1084 0.08859 0.0
C2340 C 0.80405 0.079 0.13385 0.0
C2341 C 0.86022 0.09823 0.10771 0.0
N2342 N 0.8214 0.02753 0.13171 0.0
N2343 N 0.85241 0.14694 0.13499 0.0
H2344 H 0.89708 0.09402 0.07354 0.0
H2345 H 0.88864 0.13126 0.08496 0.0
H2346 H 0.84023 0.16191 0.15029 0.0
H2347 H 0.8744 0.15395 0.12992 0.0
H2348 H 0.80293 0.01993 0.14595 0.0
H2349 H 0.83781 1.01117 0.12795 0.0
H2350 H 0.76685 0.04892 0.13209 0.0
H2351 H 0.75754 0.08618 0.14219 0.0
C2352 C 0.87006 0.59701 0.88718 0.0
C2353 C 0.86209 0.56612 0.89091 0.0
C2354 C 0.80994 0.57807 0.87478 0.0
C2355 C 0.81834 0.60854 0.86858 0.0
N2356 N 0.85724 0.6462 0.86373 0.0
N2357 N 0.82606 0.52618 0.88229 0.0
C2358 C 0.8487 0.6178 0.87342 0.0
C2359 C 0.83243 0.55637 0.88299 0.0
N2360 N 0.89778 0.60656 0.89784 0.0
N2361 N 0.78019 0.57017 0.87411 0.0
H2362 H 0.84223 0.50985 0.88755 0.0
H2363 H 0.80575 0.51725 0.87349 0.0
H2364 H 0.76324 0.58568 0.86888 0.0
H2365 H 0.77212 0.54909 0.8817 0.0
H2366 H 0.90418 0.62918 0.89915 0.0
H2367 H 0.91371 0.59178 0.90785 0.0
H2368 H 0.8795 0.65365 0.86345 0.0
H2369 H 0.84216 0.66159 0.85323 0.0
C2370 C 0.17935 0.09586 0.61686 0.0
C2371 C 0.18544 0.06445 0.61772 0.0
C2372 C 0.23621 0.07558 0.64018 0.0
C2373 C 0.22938 0.1068 0.64154 0.0
N2374 N 0.19297 0.14635 0.63643 0.0
N2375 N 0.21774 0.02393 0.63452 0.0
C2376 C 0.2005 0.11686 0.63126 0.0
C2377 C 0.21342 0.05421 0.6306 0.0
N2378 N 0.15377 0.10561 0.60112 0.0
N2379 N 0.26489 0.06657 0.6471 0.0
H2380 H 0.20129 1.00799 0.62799 0.0
H2381 H 0.23638 1.01471 0.64667 0.0
H2382 H 0.2819 0.08182 0.65389 0.0
H2383 H 0.27244 0.04459 0.64356 0.0
H2384 H 0.14926 0.12824 0.59634 0.0
H2385 H 0.13802 0.09077 0.59042 0.0
H2386 H 0.17137 0.1547 0.6328 0.0
H2387 H 0.2079 0.16207 0.64706 0.0
C2388 C 0.6948 0.46386 0.40857 0.0
C2389 C 0.67323 0.47443 0.38459 0.0
C2390 C 0.6945 0.43926 0.34154 0.0
C2391 C 0.71838 0.43223 0.36405 0.0
N2392 N 0.74517 0.44439 0.41597 0.0
N2393 N 0.65837 0.47687 0.325 0.0
C2394 C 0.71957 0.44625 0.39686 0.0
C2395 C 0.67433 0.46309 0.35021 0.0
N2396 N 0.69144 0.47041 0.44268 0.0
N2397 N 0.69144 0.42349 0.31154 0.0
H2398 H 0.64583 0.49603 0.32983 0.0
H2399 H 0.66049 0.47154 0.29896 0.0
H2400 H 0.70621 0.40628 0.30456 0.0
H2401 H 0.67288 0.4257 0.29539 0.0
H2402 H 0.70521 0.46134 0.46167 0.0
H2403 H 0.67289 0.48221 0.45209 0.0
H2404 H 0.74839 0.45647 0.43874 0.0
H2405 H 0.76408 0.43283 0.4073 0.0
C2406 C 0.35334 0.95878 0.16037 0.0
C2407 C 0.35289 0.97115 0.12648 0.0
C2408 C 0.30631 0.94294 0.11507 0.0
C2409 C 0.30886 0.92747 0.14678 0.0
N2410 N 0.33689 0.91805 0.19826 0.0
N2411 N 0.33328 0.96753 0.06884 0.0
C2412 C 0.33327 0.93441 0.16889 0.0
C2413 C 0.33075 0.96078 0.10297 0.0
N2414 N 0.37118 0.97154 0.18507 0.0
N2415 N 0.27976 0.94249 0.09761 0.0
H2416 H 0.35185 0.97909 0.05881 0.0
H2417 H 0.31882 0.95854 0.0503 0.0
H2418 H 0.26039 0.93251 0.10774 0.0
H2419 H 0.27611 0.95532 0.07556 0.0
H2420 H 0.37052 0.96509 0.21084 0.0
H2421 H 0.38436 0.99067 0.18069 0.0
H2422 H 0.35573 0.92005 0.21404 0.0
H2423 H 0.32198 0.90078 0.20522 0.0
C2424 C 0.84014 0.4164 0.63596 0.0
C2425 C 0.81035 0.42614 0.64306 0.0
C2426 C 0.82509 0.4775 0.62558 0.0
C2427 C 0.85346 0.46688 0.61402 0.0
N2428 N 0.8859 0.42468 0.60295 0.0
N2429 N 0.7729 0.46484 0.63676 0.0
C2430 C 0.86044 0.43585 0.61783 0.0
C2431 C 0.80238 0.45644 0.63574 0.0
N2432 N 0.84937 0.38896 0.64765 0.0
N2433 N 0.8202 0.5078 0.62834 0.0
H2434 H 0.75545 0.44968 0.642 0.0
H2435 H 0.76558 0.48595 0.62861 0.0
H2436 H 0.83687 0.52383 0.62312 0.0
H2437 H 0.80088 0.51676 0.63953 0.0
H2438 H 0.87158 0.38171 0.64601 0.0
H2439 H 0.83546 0.37483 0.6622 0.0
H2440 H 0.89082 0.40173 0.60207 0.0
H2441 H 0.90058 0.43808 0.58848 0.0
C2442 C 0.35767 0.11758 0.37193 0.0
C2443 C 0.32687 0.10953 0.36848 0.0
C2444 C 0.33806 0.05884 0.39019 0.0
C2445 C 0.36822 0.0677 0.39698 0.0
N2446 N 0.40546 0.10726 0.39974 0.0
N2447 N 0.28661 0.07519 0.383 0.0
C2448 C 0.3777 0.09764 0.38933 0.0
C2449 C 0.31673 0.08092 0.38019 0.0
N2450 N 0.36791 0.1438 0.35759 0.0
N2451 N 0.33007 0.02906 0.39144 0.0
H2452 H 0.27037 0.09139 0.37757 0.0
H2453 H 0.27794 0.05569 0.39435 0.0
H2454 H 0.34546 1.01198 0.3965 0.0
H2455 H 0.30906 0.02108 0.38361 0.0
H2456 H 0.39062 0.14964 0.35622 0.0
H2457 H 0.35377 0.15852 0.34445 0.0
H2458 H 0.41277 0.12957 0.39771 0.0
H2459 H 0.42011 0.09342 0.41337 0.0
C2460 C 0.72672 0.59598 0.1042 0.0
C2461 C 0.72818 0.6016 0.14022 0.0
C2462 C 0.68779 0.56381 0.14906 0.0
C2463 C 0.68435 0.56038 0.11284 0.0
N2464 N 0.69657 0.57818 0.05606 0.0
N2465 N 0.70557 0.59547 0.19607 0.0
C2466 C 0.70271 0.57798 0.09046 0.0
C2467 C 0.70733 0.58683 0.16238 0.0
N2468 N 0.7491 0.60658 0.08321 0.0
N2469 N 0.67369 0.54408 0.17081 0.0
H2470 H 0.71893 0.61274 0.20625 0.0
H2471 H 0.6889 0.58771 0.21282 0.0
H2472 H 0.66065 0.52599 0.1621 0.0
H2473 H 0.67745 0.54373 0.19727 0.0
H2474 H 0.75082 0.60089 0.05725 0.0
H2475 H 0.76766 0.61855 0.09248 0.0
H2476 H 0.70722 0.59267 0.03873 0.0
H2477 H 0.67867 0.56599 0.04546 0.0
C2478 C 0.18895 0.96009 0.90586 0.0
C2479 C 0.1762 0.98103 0.88256 0.0
C2480 C 0.20155 0.95492 0.83489 0.0
C2481 C 0.21746 0.93648 0.85841 0.0
N2482 N 0.2309 0.92699 0.91764 0.0
N2483 N 0.17783 1.00325 0.82628 0.0
C2484 C 0.21233 0.94039 0.89437 0.0
C2485 C 0.1845 0.97974 0.84739 0.0
N2486 N 0.17842 0.95872 0.93884 0.0
N2487 N 0.20202 0.94829 0.80058 0.0
H2488 H 0.16743 0.02274 0.83541 0.0
H2489 H 0.18602 1.00486 0.80118 0.0
H2490 H 0.21288 0.9293 0.79077 0.0
H2491 H 0.18885 0.95965 0.78268 0.0
H2492 H 0.18486 0.94207 0.95617 0.0
H2493 H 0.16108 0.97251 0.94768 0.0
H2494 H 0.22976 0.93121 0.94401 0.0
H2495 H 0.2496 0.91439 0.91041 0.0
loop_
_geom_bond_atom_site_label_1
_geom_bond_atom_site_label_2
_geom_bond_distance
_geom_bond_site_symmetry_2
_ccdc_geom_bond_type
Co0 N4 2.148 . S
Co0 N10 2.128 . S
Co0 N20 2.194 . S
Co0 O25 2.351 . S
Co0 O26 2.155 . S
Co0 O27 2.096 . S
C1 N4 1.301 . S
C1 N5 1.328 . S
C1 H6 0.930 . S
C2 C3 1.333 . S
C2 N4 1.317 . S
C2 H7 0.930 . S
C3 C2 1.333 . S
C3 N5 1.350 . S
C3 H29 0.931 . S
N4 Co0 2.148 . S
N4 C1 1.301 . S
N4 C2 1.317 . S
N5 C1 1.328 . S
N5 C3 1.350 . S
H6 C1 0.930 . S
H7 C2 0.930 . S
C8 O9 1.224 . S
C8 O27 1.247 . S
O9 C8 1.224 . S
N10 Co0 2.128 . S
N10 C11 1.355 . S
N10 C13 1.311 . S
C11 N10 1.355 . S
C11 C12 1.363 . S
C11 H23 0.929 . S
C12 C11 1.363 . S
C12 N14 1.375 . S
C12 H30 0.931 . S
C13 N10 1.311 . S
C13 N14 1.347 . S
C13 H24 0.929 . S
N14 C12 1.375 . S
N14 C13 1.347 . S
C15 C18 1.365 . S
C15 N20 1.328 . S
C15 H21 0.929 . S
C16 C17 1.362 . S
C16 C19 1.378 . S
C16 H31 0.929 . S
C17 C16 1.362 . S
C17 C18 1.366 . S
C18 C15 1.365 . S
C18 C17 1.366 . S
C18 H32 0.930 . S
C19 C16 1.378 . S
C19 N20 1.315 . S
C19 H22 0.930 . S
N20 Co0 2.194 . S
N20 C15 1.328 . S
N20 C19 1.315 . S
H21 C15 0.929 . S
H22 C19 0.930 . S
H23 C11 0.929 . S
H24 C13 0.929 . S
O25 Co0 2.351 . S
O25 C28 1.244 . S
O26 Co0 2.155 . S
O26 C28 1.240 . S
O27 Co0 2.096 . S
O27 C8 1.247 . S
C28 O25 1.244 . S
C28 O26 1.240 . S
H29 C3 0.931 . S
H30 C12 0.931 . S
H31 C16 0.929 . S
H32 C18 0.930 . S
Co33 N37 2.148 . S
Co33 N43 2.128 . S
Co33 N53 2.194 . S
Co33 O58 2.351 . S
Co33 O59 2.155 . S
Co33 O60 2.096 . S
C34 N37 1.301 . S
C34 N38 1.328 1_655 S
C34 H39 0.930 . S
C35 C36 1.333 1_655 S
C35 N37 1.317 . S
C35 H40 0.930 . S
C36 C35 1.333 1_455 S
C36 N38 1.350 . S
C36 H62 0.931 . S
N37 Co33 2.148 . S
N37 C34 1.301 . S
N37 C35 1.317 . S
N38 C34 1.328 1_455 S
N38 C36 1.350 . S
H39 C34 0.930 . S
H40 C35 0.930 . S
C41 O42 1.224 . S
C41 O60 1.247 . S
O42 C41 1.224 . S
N43 Co33 2.128 . S
N43 C44 1.355 . S
N43 C46 1.311 1_545 S
C44 N43 1.355 . S
C44 C45 1.363 . S
C44 H56 0.929 . S
C45 C44 1.363 . S
C45 N47 1.375 1_545 S
C45 H63 0.931 . S
C46 N43 1.311 1_565 S
C46 N47 1.347 . S
C46 H57 0.929 . S
N47 C45 1.375 1_565 S
N47 C46 1.347 . S
C48 C51 1.365 . S
C48 N53 1.328 . S
C48 H54 0.929 . S
C49 C50 1.362 . S
C49 C52 1.378 . S
C49 H64 0.929 . S
C50 C49 1.362 . S
C50 C51 1.366 . S
C51 C48 1.365 . S
C51 C50 1.366 . S
C51 H65 0.930 . S
C52 C49 1.378 . S
C52 N53 1.315 . S
C52 H55 0.930 . S
N53 Co33 2.194 . S
N53 C48 1.328 . S
N53 C52 1.315 . S
H54 C48 0.929 . S
H55 C52 0.930 . S
H56 C44 0.929 . S
H57 C46 0.929 . S
O58 Co33 2.351 . S
O58 C61 1.244 . S
O59 Co33 2.155 . S
O59 C61 1.240 . S
O60 Co33 2.096 . S
O60 C41 1.247 . S
C61 O58 1.244 . S
C61 O59 1.240 . S
H62 C36 0.931 . S
H63 C45 0.931 . S
H64 C49 0.929 . S
H65 C51 0.930 . S
Co66 N70 2.148 . S
Co66 N76 2.128 . S
Co66 N86 2.194 . S
Co66 O91 2.351 . S
Co66 O92 2.155 . S
Co66 O93 2.096 . S
C67 N70 1.301 . S
C67 N71 1.328 . S
C67 H72 0.930 . S
C68 C69 1.333 . S
C68 N70 1.317 . S
C68 H73 0.930 . S
C69 C68 1.333 . S
C69 N71 1.350 . S
C69 H95 0.931 . S
N70 Co66 2.148 . S
N70 C67 1.301 . S
N70 C68 1.317 . S
N71 C67 1.328 . S
N71 C69 1.350 . S
H72 C67 0.930 . S
H73 C68 0.930 . S
C74 O75 1.224 . S
C74 O93 1.247 . S
O75 C74 1.224 . S
N76 Co66 2.128 . S
N76 C77 1.355 . S
N76 C79 1.311 . S
C77 N76 1.355 . S
C77 C78 1.363 . S
C77 H89 0.929 . S
C78 C77 1.363 . S
C78 N80 1.375 . S
C78 H96 0.931 . S
C79 N76 1.311 . S
C79 N80 1.347 . S
C79 H90 0.929 . S
N80 C78 1.375 . S
N80 C79 1.347 . S
C81 C84 1.365 . S
C81 N86 1.328 . S
C81 H87 0.929 . S
C82 C83 1.362 . S
C82 C85 1.378 . S
C82 H97 0.929 . S
C83 C82 1.362 . S
C83 C84 1.366 . S
C84 C81 1.365 . S
C84 C83 1.366 . S
C84 H98 0.930 . S
C85 C82 1.378 . S
C85 N86 1.315 . S
C85 H88 0.930 . S
N86 Co66 2.194 . S
N86 C81 1.328 . S
N86 C85 1.315 . S
H87 C81 0.929 . S
H88 C85 0.930 . S
H89 C77 0.929 . S
H90 C79 0.929 . S
O91 Co66 2.351 . S
O91 C94 1.244 . S
O92 Co66 2.155 . S
O92 C94 1.240 . S
O93 Co66 2.096 . S
O93 C74 1.247 . S
C94 O91 1.244 . S
C94 O92 1.240 . S
H95 C69 0.931 . S
H96 C78 0.931 . S
H97 C82 0.929 . S
H98 C84 0.930 . S
Co99 N103 2.148 . S
Co99 N109 2.128 . S
Co99 N119 2.194 . S
Co99 O124 2.351 . S
Co99 O125 2.155 . S
Co99 O126 2.096 . S
C100 N103 1.301 . S
C100 N104 1.328 . S
C100 H105 0.930 . S
C101 C102 1.333 . S
C101 N103 1.317 . S
C101 H106 0.930 . S
C102 C101 1.333 . S
C102 N104 1.350 . S
C102 H128 0.931 . S
N103 Co99 2.148 . S
N103 C100 1.301 . S
N103 C101 1.317 . S
N104 C100 1.328 . S
N104 C102 1.350 . S
H105 C100 0.930 . S
H106 C101 0.930 . S
C107 O108 1.224 . S
C107 O126 1.247 . S
O108 C107 1.224 . S
N109 Co99 2.128 . S
N109 C110 1.355 . S
N109 C112 1.311 1_565 S
C110 N109 1.355 . S
C110 C111 1.363 . S
C110 H122 0.929 . S
C111 C110 1.363 . S
C111 N113 1.375 1_565 S
C111 H129 0.931 . S
C112 N109 1.311 1_545 S
C112 N113 1.347 . S
C112 H123 0.929 . S
N113 C111 1.375 1_545 S
N113 C112 1.347 . S
C114 C117 1.365 . S
C114 N119 1.328 . S
C114 H120 0.929 . S
C115 C116 1.362 . S
C115 C118 1.378 . S
C115 H130 0.929 . S
C116 C115 1.362 . S
C116 C117 1.366 . S
C117 C114 1.365 . S
C117 C116 1.366 . S
C117 H131 0.930 . S
C118 C115 1.378 . S
C118 N119 1.315 . S
C118 H121 0.930 . S
N119 Co99 2.194 . S
N119 C114 1.328 . S
N119 C118 1.315 . S
H120 C114 0.929 . S
H121 C118 0.930 . S
H122 C110 0.929 . S
H123 C112 0.929 . S
O124 Co99 2.351 . S
O124 C127 1.244 . S
O125 Co99 2.155 . S
O125 C127 1.240 . S
O126 Co99 2.096 . S
O126 C107 1.247 . S
C127 O124 1.244 . S
C127 O125 1.240 . S
H128 C102 0.931 . S
H129 C111 0.931 . S
H130 C115 0.929 . S
H131 C117 0.930 . S
Co132 N136 2.148 . S
Co132 N142 2.128 . S
Co132 N152 2.194 . S
Co132 O157 2.351 . S
Co132 O158 2.155 . S
Co132 O159 2.096 . S
C133 N136 1.301 . S
C133 N137 1.328 . S
C133 H138 0.930 . S
C134 C135 1.333 . S
C134 N136 1.317 . S
C134 H139 0.930 . S
C135 C134 1.333 . S
C135 N137 1.350 . S
C135 H161 0.931 . S
N136 Co132 2.148 . S
N136 C133 1.301 . S
N136 C134 1.317 . S
N137 C133 1.328 . S
N137 C135 1.350 . S
H138 C133 0.930 . S
H139 C134 0.930 . S
C140 O141 1.224 . S
C140 O159 1.247 . S
O141 C140 1.224 . S
N142 Co132 2.128 . S
N142 C143 1.355 . S
N142 C145 1.311 . S
C143 N142 1.355 . S
C143 C144 1.363 . S
C143 H155 0.929 . S
C144 C143 1.363 . S
C144 N146 1.375 . S
C144 H162 0.931 . S
C145 N142 1.311 . S
C145 N146 1.347 . S
C145 H156 0.929 . S
N146 C144 1.375 . S
N146 C145 1.347 . S
C147 C150 1.365 . S
C147 N152 1.328 . S
C147 H153 0.929 . S
C148 C149 1.362 . S
C148 C151 1.378 . S
C148 H163 0.929 . S
C149 C148 1.362 . S
C149 C150 1.366 . S
C150 C147 1.365 . S
C150 C149 1.366 . S
C150 H164 0.930 . S
C151 C148 1.378 . S
C151 N152 1.315 . S
C151 H154 0.930 . S
N152 Co132 2.194 . S
N152 C147 1.328 . S
N152 C151 1.315 . S
H153 C147 0.929 . S
H154 C151 0.930 . S
H155 C143 0.929 . S
H156 C145 0.929 . S
O157 Co132 2.351 . S
O157 C160 1.244 . S
O158 Co132 2.155 . S
O158 C160 1.240 . S
O159 Co132 2.096 . S
O159 C140 1.247 . S
C160 O157 1.244 . S
C160 O158 1.240 . S
H161 C135 0.931 . S
H162 C144 0.931 . S
H163 C148 0.929 . S
H164 C150 0.930 . S
Co165 N169 2.148 . S
Co165 N175 2.128 . S
Co165 N185 2.194 . S
Co165 O190 2.351 . S
Co165 O191 2.155 . S
Co165 O192 2.096 . S
C166 N169 1.301 . S
C166 N170 1.328 . S
C166 H171 0.930 . S
C167 C168 1.333 . S
C167 N169 1.317 . S
C167 H172 0.930 . S
C168 C167 1.333 . S
C168 N170 1.350 . S
C168 H194 0.931 . S
N169 Co165 2.148 . S
N169 C166 1.301 . S
N169 C167 1.317 . S
N170 C166 1.328 . S
N170 C168 1.350 . S
H171 C166 0.930 . S
H172 C167 0.930 . S
C173 O174 1.224 . S
C173 O192 1.247 . S
O174 C173 1.224 . S
N175 Co165 2.128 . S
N175 C176 1.355 . S
N175 C178 1.311 1_545 S
C176 N175 1.355 . S
C176 C177 1.363 . S
C176 H188 0.929 . S
C177 C176 1.363 . S
C177 N179 1.375 1_545 S
C177 H195 0.931 . S
C178 N175 1.311 1_565 S
C178 N179 1.347 . S
C178 H189 0.929 . S
N179 C177 1.375 1_565 S
N179 C178 1.347 . S
C180 C183 1.365 . S
C180 N185 1.328 . S
C180 H186 0.929 . S
C181 C182 1.362 . S
C181 C184 1.378 . S
C181 H196 0.929 . S
C182 C181 1.362 . S
C182 C183 1.366 . S
C183 C180 1.365 . S
C183 C182 1.366 . S
C183 H197 0.930 . S
C184 C181 1.378 . S
C184 N185 1.315 . S
C184 H187 0.930 . S
N185 Co165 2.194 . S
N185 C180 1.328 . S
N185 C184 1.315 . S
H186 C180 0.929 . S
H187 C184 0.930 . S
H188 C176 0.929 . S
H189 C178 0.929 . S
O190 Co165 2.351 . S
O190 C193 1.244 . S
O191 Co165 2.155 . S
O191 C193 1.240 . S
O192 Co165 2.096 . S
O192 C173 1.247 . S
C193 O190 1.244 . S
C193 O191 1.240 . S
H194 C168 0.931 . S
H195 C177 0.931 . S
H196 C181 0.929 . S
H197 C183 0.930 . S
Co198 N202 2.148 . S
Co198 N208 2.128 . S
Co198 N218 2.194 . S
Co198 O223 2.351 . S
Co198 O224 2.155 . S
Co198 O225 2.096 . S
C199 N202 1.301 . S
C199 N203 1.328 . S
C199 H204 0.930 . S
C200 C201 1.333 . S
C200 N202 1.317 . S
C200 H205 0.930 . S
C201 C200 1.333 . S
C201 N203 1.350 . S
C201 H227 0.931 . S
N202 Co198 2.148 . S
N202 C199 1.301 . S
N202 C200 1.317 . S
N203 C199 1.328 . S
N203 C201 1.350 . S
H204 C199 0.930 . S
H205 C200 0.930 . S
C206 O207 1.224 . S
C206 O225 1.247 . S
O207 C206 1.224 . S
N208 Co198 2.128 . S
N208 C209 1.355 . S
N208 C211 1.311 . S
C209 N208 1.355 . S
C209 C210 1.363 . S
C209 H221 0.929 . S
C210 C209 1.363 . S
C210 N212 1.375 . S
C210 H228 0.931 . S
C211 N208 1.311 . S
C211 N212 1.347 . S
C211 H222 0.929 . S
N212 C210 1.375 . S
N212 C211 1.347 . S
C213 C216 1.365 . S
C213 N218 1.328 . S
C213 H219 0.929 . S
C214 C215 1.362 . S
C214 C217 1.378 . S
C214 H229 0.929 . S
C215 C214 1.362 . S
C215 C216 1.366 . S
C216 C213 1.365 . S
C216 C215 1.366 . S
C216 H230 0.930 . S
C217 C214 1.378 . S
C217 N218 1.315 . S
C217 H220 0.930 . S
N218 Co198 2.194 . S
N218 C213 1.328 . S
N218 C217 1.315 . S
H219 C213 0.929 . S
H220 C217 0.930 . S
H221 C209 0.929 . S
H222 C211 0.929 . S
O223 Co198 2.351 . S
O223 C226 1.244 . S
O224 Co198 2.155 . S
O224 C226 1.240 . S
O225 Co198 2.096 . S
O225 C206 1.247 . S
C226 O223 1.244 . S
C226 O224 1.240 . S
H227 C201 0.931 . S
H228 C210 0.931 . S
H229 C214 0.929 . S
H230 C216 0.930 . S
Co231 N235 2.148 . S
Co231 N241 2.128 . S
Co231 N251 2.194 . S
Co231 O256 2.351 . S
Co231 O257 2.155 . S
Co231 O258 2.096 . S
C232 N235 1.301 . S
C232 N236 1.328 1_655 S
C232 H237 0.930 . S
C233 C234 1.333 1_655 S
C233 N235 1.317 . S
C233 H238 0.930 . S
C234 C233 1.333 1_455 S
C234 N236 1.350 . S
C234 H260 0.931 . S
N235 Co231 2.148 . S
N235 C232 1.301 . S
N235 C233 1.317 . S
N236 C232 1.328 1_455 S
N236 C234 1.350 . S
H237 C232 0.930 . S
H238 C233 0.930 . S
C239 O240 1.224 . S
C239 O258 1.247 . S
O240 C239 1.224 . S
N241 Co231 2.128 . S
N241 C242 1.355 . S
N241 C244 1.311 1_565 S
C242 N241 1.355 . S
C242 C243 1.363 . S
C242 H254 0.929 . S
C243 C242 1.363 . S
C243 N245 1.375 1_565 S
C243 H261 0.931 . S
C244 N241 1.311 1_545 S
C244 N245 1.347 . S
C244 H255 0.929 . S
N245 C243 1.375 1_545 S
N245 C244 1.347 . S
C246 C249 1.365 . S
C246 N251 1.328 . S
C246 H252 0.929 . S
C247 C248 1.362 . S
C247 C250 1.378 . S
C247 H262 0.929 . S
C248 C247 1.362 . S
C248 C249 1.366 . S
C249 C246 1.365 . S
C249 C248 1.366 . S
C249 H263 0.930 . S
C250 C247 1.378 . S
C250 N251 1.315 . S
C250 H253 0.930 . S
N251 Co231 2.194 . S
N251 C246 1.328 . S
N251 C250 1.315 . S
H252 C246 0.929 . S
H253 C250 0.930 . S
H254 C242 0.929 . S
H255 C244 0.929 . S
O256 Co231 2.351 . S
O256 C259 1.244 . S
O257 Co231 2.155 . S
O257 C259 1.240 . S
O258 Co231 2.096 . S
O258 C239 1.247 . S
C259 O256 1.244 . S
C259 O257 1.240 . S
H260 C234 0.931 . S
H261 C243 0.931 . S
H262 C247 0.929 . S
H263 C249 0.930 . S
Co264 N268 2.148 . S
Co264 N274 2.128 . S
Co264 N284 2.194 . S
Co264 O289 2.351 . S
Co264 O290 2.155 . S
Co264 O291 2.096 . S
C265 N268 1.301 . S
C265 N269 1.328 . S
C265 H270 0.930 . S
C266 C267 1.333 . S
C266 N268 1.317 . S
C266 H271 0.930 . S
C267 C266 1.333 . S
C267 N269 1.350 . S
C267 H293 0.931 . S
N268 Co264 2.148 . S
N268 C265 1.301 . S
N268 C266 1.317 . S
N269 C265 1.328 . S
N269 C267 1.350 . S
H270 C265 0.930 . S
H271 C266 0.930 . S
C272 O273 1.224 . S
C272 O291 1.247 . S
O273 C272 1.224 . S
N274 Co264 2.128 . S
N274 C275 1.355 . S
N274 C277 1.311 . S
C275 N274 1.355 . S
C275 C276 1.363 . S
C275 H287 0.929 . S
C276 C275 1.363 . S
C276 N278 1.375 . S
C276 H294 0.931 . S
C277 N274 1.311 . S
C277 N278 1.347 . S
C277 H288 0.929 . S
N278 C276 1.375 . S
N278 C277 1.347 . S
C279 C282 1.365 . S
C279 N284 1.328 . S
C279 H285 0.929 . S
C280 C281 1.362 . S
C280 C283 1.378 . S
C280 H295 0.929 . S
C281 C280 1.362 . S
C281 C282 1.366 . S
C282 C279 1.365 . S
C282 C281 1.366 . S
C282 H296 0.930 . S
C283 C280 1.378 . S
C283 N284 1.315 . S
C283 H286 0.930 . S
N284 Co264 2.194 . S
N284 C279 1.328 . S
N284 C283 1.315 . S
H285 C279 0.929 . S
H286 C283 0.930 . S
H287 C275 0.929 . S
H288 C277 0.929 . S
O289 Co264 2.351 . S
O289 C292 1.244 . S
O290 Co264 2.155 . S
O290 C292 1.240 . S
O291 Co264 2.096 . S
O291 C272 1.247 . S
C292 O289 1.244 . S
C292 O290 1.240 . S
H293 C267 0.931 . S
H294 C276 0.931 . S
H295 C280 0.929 . S
H296 C282 0.930 . S
Co297 N301 2.148 . S
Co297 N307 2.128 . S
Co297 N317 2.194 . S
Co297 O322 2.351 . S
Co297 O323 2.155 . S
Co297 O324 2.096 . S
C298 N301 1.301 . S
C298 N302 1.328 1_455 S
C298 H303 0.930 . S
C299 C300 1.333 1_455 S
C299 N301 1.317 . S
C299 H304 0.930 . S
C300 C299 1.333 1_655 S
C300 N302 1.350 . S
C300 H326 0.931 . S
N301 Co297 2.148 . S
N301 C298 1.301 . S
N301 C299 1.317 . S
N302 C298 1.328 1_655 S
N302 C300 1.350 . S
H303 C298 0.930 . S
H304 C299 0.930 . S
C305 O306 1.224 . S
C305 O324 1.247 . S
O306 C305 1.224 . S
N307 Co297 2.128 . S
N307 C308 1.355 . S
N307 C310 1.311 1_565 S
C308 N307 1.355 . S
C308 C309 1.363 . S
C308 H320 0.929 . S
C309 C308 1.363 . S
C309 N311 1.375 1_565 S
C309 H327 0.931 . S
C310 N307 1.311 1_545 S
C310 N311 1.347 . S
C310 H321 0.929 . S
N311 C309 1.375 1_545 S
N311 C310 1.347 . S
C312 C315 1.365 . S
C312 N317 1.328 . S
C312 H318 0.929 . S
C313 C314 1.362 . S
C313 C316 1.378 . S
C313 H328 0.929 . S
C314 C313 1.362 . S
C314 C315 1.366 . S
C315 C312 1.365 . S
C315 C314 1.366 . S
C315 H329 0.930 . S
C316 C313 1.378 . S
C316 N317 1.315 . S
C316 H319 0.930 . S
N317 Co297 2.194 . S
N317 C312 1.328 . S
N317 C316 1.315 . S
H318 C312 0.929 . S
H319 C316 0.930 . S
H320 C308 0.929 . S
H321 C310 0.929 . S
O322 Co297 2.351 . S
O322 C325 1.244 . S
O323 Co297 2.155 . S
O323 C325 1.240 . S
O324 Co297 2.096 . S
O324 C305 1.247 . S
C325 O322 1.244 . S
C325 O323 1.240 . S
H326 C300 0.931 . S
H327 C309 0.931 . S
H328 C313 0.929 . S
H329 C315 0.930 . S
Co330 N334 2.148 . S
Co330 N340 2.128 . S
Co330 N350 2.194 . S
Co330 O355 2.351 . S
Co330 O356 2.155 . S
Co330 O357 2.096 . S
C331 N334 1.301 . S
C331 N335 1.328 . S
C331 H336 0.930 . S
C332 C333 1.333 . S
C332 N334 1.317 . S
C332 H337 0.930 . S
C333 C332 1.333 . S
C333 N335 1.350 . S
C333 H359 0.931 . S
N334 Co330 2.148 . S
N334 C331 1.301 . S
N334 C332 1.317 . S
N335 C331 1.328 . S
N335 C333 1.350 . S
H336 C331 0.930 . S
H337 C332 0.930 . S
C338 O339 1.224 . S
C338 O357 1.247 . S
O339 C338 1.224 . S
N340 Co330 2.128 . S
N340 C341 1.355 . S
N340 C343 1.311 . S
C341 N340 1.355 . S
C341 C342 1.363 . S
C341 H353 0.929 . S
C342 C341 1.363 . S
C342 N344 1.375 . S
C342 H360 0.931 . S
C343 N340 1.311 . S
C343 N344 1.347 . S
C343 H354 0.929 . S
N344 C342 1.375 . S
N344 C343 1.347 . S
C345 C348 1.365 . S
C345 N350 1.328 . S
C345 H351 0.929 . S
C346 C347 1.362 . S
C346 C349 1.378 . S
C346 H361 0.929 . S
C347 C346 1.362 . S
C347 C348 1.366 . S
C348 C345 1.365 . S
C348 C347 1.366 . S
C348 H362 0.930 . S
C349 C346 1.378 . S
C349 N350 1.315 . S
C349 H352 0.930 . S
N350 Co330 2.194 . S
N350 C345 1.328 . S
N350 C349 1.315 . S
H351 C345 0.929 . S
H352 C349 0.930 . S
H353 C341 0.929 . S
H354 C343 0.929 . S
O355 Co330 2.351 . S
O355 C358 1.244 . S
O356 Co330 2.155 . S
O356 C358 1.240 . S
O357 Co330 2.096 . S
O357 C338 1.247 . S
C358 O355 1.244 . S
C358 O356 1.240 . S
H359 C333 0.931 . S
H360 C342 0.931 . S
H361 C346 0.929 . S
H362 C348 0.930 . S
Co363 N367 2.148 . S
Co363 N373 2.128 . S
Co363 N383 2.194 . S
Co363 O388 2.351 . S
Co363 O389 2.155 . S
Co363 O390 2.096 . S
C364 N367 1.301 . S
C364 N368 1.328 . S
C364 H369 0.930 . S
C365 C366 1.333 . S
C365 N367 1.317 . S
C365 H370 0.930 . S
C366 C365 1.333 . S
C366 N368 1.350 . S
C366 H392 0.931 . S
N367 Co363 2.148 . S
N367 C364 1.301 . S
N367 C365 1.317 . S
N368 C364 1.328 . S
N368 C366 1.350 . S
H369 C364 0.930 . S
H370 C365 0.930 . S
C371 O372 1.224 . S
C371 O390 1.247 . S
O372 C371 1.224 . S
N373 Co363 2.128 . S
N373 C374 1.355 . S
N373 C376 1.311 1_545 S
C374 N373 1.355 . S
C374 C375 1.363 . S
C374 H386 0.929 . S
C375 C374 1.363 . S
C375 N377 1.375 1_545 S
C375 H393 0.931 . S
C376 N373 1.311 1_565 S
C376 N377 1.347 . S
C376 H387 0.929 . S
N377 C375 1.375 1_565 S
N377 C376 1.347 . S
C378 C381 1.365 . S
C378 N383 1.328 . S
C378 H384 0.929 . S
C379 C380 1.362 . S
C379 C382 1.378 . S
C379 H394 0.929 . S
C380 C379 1.362 . S
C380 C381 1.366 . S
C381 C378 1.365 . S
C381 C380 1.366 . S
C381 H395 0.930 . S
C382 C379 1.378 . S
C382 N383 1.315 . S
C382 H385 0.930 . S
N383 Co363 2.194 . S
N383 C378 1.328 . S
N383 C382 1.315 . S
H384 C378 0.929 . S
H385 C382 0.930 . S
H386 C374 0.929 . S
H387 C376 0.929 . S
O388 Co363 2.351 . S
O388 C391 1.244 . S
O389 Co363 2.155 . S
O389 C391 1.240 . S
O390 Co363 2.096 . S
O390 C371 1.247 . S
C391 O388 1.244 . S
C391 O389 1.240 . S
H392 C366 0.931 . S
H393 C375 0.931 . S
H394 C379 0.929 . S
H395 C381 0.930 . S
Co396 N400 2.148 . S
Co396 N406 2.128 . S
Co396 N416 2.194 . S
Co396 O421 2.351 . S
Co396 O422 2.155 . S
Co396 O423 2.096 . S
C397 N400 1.301 . S
C397 N401 1.328 . S
C397 H402 0.930 . S
C398 C399 1.333 . S
C398 N400 1.317 . S
C398 H403 0.930 . S
C399 C398 1.333 . S
C399 N401 1.350 . S
C399 H425 0.931 . S
N400 Co396 2.148 . S
N400 C397 1.301 . S
N400 C398 1.317 . S
N401 C397 1.328 . S
N401 C399 1.350 . S
H402 C397 0.930 . S
H403 C398 0.930 . S
C404 O405 1.224 . S
C404 O423 1.247 . S
O405 C404 1.224 . S
N406 Co396 2.128 . S
N406 C407 1.355 . S
N406 C409 1.311 . S
C407 N406 1.355 . S
C407 C408 1.363 . S
C407 H419 0.929 . S
C408 C407 1.363 . S
C408 N410 1.375 . S
C408 H426 0.931 . S
C409 N406 1.311 . S
C409 N410 1.347 . S
C409 H420 0.929 . S
N410 C408 1.375 . S
N410 C409 1.347 . S
C411 C414 1.365 . S
C411 N416 1.328 . S
C411 H417 0.929 . S
C412 C413 1.362 . S
C412 C415 1.378 . S
C412 H427 0.929 . S
C413 C412 1.362 . S
C413 C414 1.366 . S
C414 C411 1.365 . S
C414 C413 1.366 . S
C414 H428 0.930 . S
C415 C412 1.378 . S
C415 N416 1.315 . S
C415 H418 0.930 . S
N416 Co396 2.194 . S
N416 C411 1.328 . S
N416 C415 1.315 . S
H417 C411 0.929 . S
H418 C415 0.930 . S
H419 C407 0.929 . S
H420 C409 0.929 . S
O421 Co396 2.351 . S
O421 C424 1.244 . S
O422 Co396 2.155 . S
O422 C424 1.240 . S
O423 Co396 2.096 . S
O423 C404 1.247 . S
C424 O421 1.244 . S
C424 O422 1.240 . S
H425 C399 0.931 . S
H426 C408 0.931 . S
H427 C412 0.929 . S
H428 C414 0.930 . S
Co429 N433 2.148 . S
Co429 N439 2.128 . S
Co429 N449 2.194 . S
Co429 O454 2.351 . S
Co429 O455 2.155 . S
Co429 O456 2.096 . S
C430 N433 1.301 . S
C430 N434 1.328 . S
C430 H435 0.930 . S
C431 C432 1.333 . S
C431 N433 1.317 . S
C431 H436 0.930 . S
C432 C431 1.333 . S
C432 N434 1.350 . S
C432 H458 0.931 . S
N433 Co429 2.148 . S
N433 C430 1.301 . S
N433 C431 1.317 . S
N434 C430 1.328 . S
N434 C432 1.350 . S
H435 C430 0.930 . S
H436 C431 0.930 . S
C437 O438 1.224 . S
C437 O456 1.247 . S
O438 C437 1.224 . S
N439 Co429 2.128 . S
N439 C440 1.355 . S
N439 C442 1.311 1_565 S
C440 N439 1.355 . S
C440 C441 1.363 . S
C440 H452 0.929 . S
C441 C440 1.363 . S
C441 N443 1.375 1_565 S
C441 H459 0.931 . S
C442 N439 1.311 1_545 S
C442 N443 1.347 . S
C442 H453 0.929 . S
N443 C441 1.375 1_545 S
N443 C442 1.347 . S
C444 C447 1.365 . S
C444 N449 1.328 . S
C444 H450 0.929 . S
C445 C446 1.362 . S
C445 C448 1.378 . S
C445 H460 0.929 . S
C446 C445 1.362 . S
C446 C447 1.366 . S
C447 C444 1.365 . S
C447 C446 1.366 . S
C447 H461 0.930 . S
C448 C445 1.378 . S
C448 N449 1.315 . S
C448 H451 0.930 . S
N449 Co429 2.194 . S
N449 C444 1.328 . S
N449 C448 1.315 . S
H450 C444 0.929 . S
H451 C448 0.930 . S
H452 C440 0.929 . S
H453 C442 0.929 . S
O454 Co429 2.351 . S
O454 C457 1.244 . S
O455 Co429 2.155 . S
O455 C457 1.240 . S
O456 Co429 2.096 . S
O456 C437 1.247 . S
C457 O454 1.244 . S
C457 O455 1.240 . S
H458 C432 0.931 . S
H459 C441 0.931 . S
H460 C445 0.929 . S
H461 C447 0.930 . S
Co462 N466 2.148 . S
Co462 N472 2.128 . S
Co462 N482 2.194 . S
Co462 O487 2.351 . S
Co462 O488 2.155 . S
Co462 O489 2.096 . S
C463 N466 1.301 . S
C463 N467 1.328 . S
C463 H468 0.930 . S
C464 C465 1.333 . S
C464 N466 1.317 . S
C464 H469 0.930 . S
C465 C464 1.333 . S
C465 N467 1.350 . S
C465 H491 0.931 . S
N466 Co462 2.148 . S
N466 C463 1.301 . S
N466 C464 1.317 . S
N467 C463 1.328 . S
N467 C465 1.350 . S
H468 C463 0.930 . S
H469 C464 0.930 . S
C470 O471 1.224 . S
C470 O489 1.247 . S
O471 C470 1.224 . S
N472 Co462 2.128 . S
N472 C473 1.355 . S
N472 C475 1.311 . S
C473 N472 1.355 . S
C473 C474 1.363 . S
C473 H485 0.929 . S
C474 C473 1.363 . S
C474 N476 1.375 . S
C474 H492 0.931 . S
C475 N472 1.311 . S
C475 N476 1.347 . S
C475 H486 0.929 . S
N476 C474 1.375 . S
N476 C475 1.347 . S
C477 C480 1.365 . S
C477 N482 1.328 . S
C477 H483 0.929 . S
C478 C479 1.362 . S
C478 C481 1.378 . S
C478 H493 0.929 . S
C479 C478 1.362 . S
C479 C480 1.366 . S
C480 C477 1.365 . S
C480 C479 1.366 . S
C480 H494 0.930 . S
C481 C478 1.378 . S
C481 N482 1.315 . S
C481 H484 0.930 . S
N482 Co462 2.194 . S
N482 C477 1.328 . S
N482 C481 1.315 . S
H483 C477 0.929 . S
H484 C481 0.930 . S
H485 C473 0.929 . S
H486 C475 0.929 . S
O487 Co462 2.351 . S
O487 C490 1.244 . S
O488 Co462 2.155 . S
O488 C490 1.240 . S
O489 Co462 2.096 . S
O489 C470 1.247 . S
C490 O487 1.244 . S
C490 O488 1.240 . S
H491 C465 0.931 . S
H492 C474 0.931 . S
H493 C478 0.929 . S
H494 C480 0.930 . S
Co495 N499 2.148 . S
Co495 N505 2.128 . S
Co495 N515 2.194 . S
Co495 O520 2.351 . S
Co495 O521 2.155 . S
Co495 O522 2.096 . S
C496 N499 1.301 . S
C496 N500 1.328 1_455 S
C496 H501 0.930 . S
C497 C498 1.333 1_455 S
C497 N499 1.317 . S
C497 H502 0.930 . S
C498 C497 1.333 1_655 S
C498 N500 1.350 . S
C498 H524 0.931 . S
N499 Co495 2.148 . S
N499 C496 1.301 . S
N499 C497 1.317 . S
N500 C496 1.328 1_655 S
N500 C498 1.350 . S
H501 C496 0.930 . S
H502 C497 0.930 . S
C503 O504 1.224 . S
C503 O522 1.247 . S
O504 C503 1.224 . S
N505 Co495 2.128 . S
N505 C506 1.355 . S
N505 C508 1.311 1_545 S
C506 N505 1.355 . S
C506 C507 1.363 . S
C506 H518 0.929 . S
C507 C506 1.363 . S
C507 N509 1.375 1_545 S
C507 H525 0.931 . S
C508 N505 1.311 1_565 S
C508 N509 1.347 . S
C508 H519 0.929 . S
N509 C507 1.375 1_565 S
N509 C508 1.347 . S
C510 C513 1.365 . S
C510 N515 1.328 . S
C510 H516 0.929 . S
C511 C512 1.362 . S
C511 C514 1.378 . S
C511 H526 0.929 . S
C512 C511 1.362 . S
C512 C513 1.366 . S
C513 C510 1.365 . S
C513 C512 1.366 . S
C513 H527 0.930 . S
C514 C511 1.378 . S
C514 N515 1.315 . S
C514 H517 0.930 . S
N515 Co495 2.194 . S
N515 C510 1.328 . S
N515 C514 1.315 . S
H516 C510 0.929 . S
H517 C514 0.930 . S
H518 C506 0.929 . S
H519 C508 0.929 . S
O520 Co495 2.351 . S
O520 C523 1.244 . S
O521 Co495 2.155 . S
O521 C523 1.240 . S
O522 Co495 2.096 . S
O522 C503 1.247 . S
C523 O520 1.244 . S
C523 O521 1.240 . S
H524 C498 0.931 . S
H525 C507 0.931 . S
H526 C511 0.929 . S
H527 C513 0.930 . S
Co528 N532 2.148 . S
Co528 N538 2.128 . S
Co528 N548 2.194 . S
Co528 O553 2.351 . S
Co528 O554 2.155 . S
Co528 O555 2.096 . S
C529 N532 1.301 . S
C529 N533 1.328 . S
C529 H534 0.930 . S
C530 C531 1.333 . S
C530 N532 1.317 . S
C530 H535 0.930 . S
C531 C530 1.333 . S
C531 N533 1.350 . S
C531 H557 0.931 . S
N532 Co528 2.148 . S
N532 C529 1.301 . S
N532 C530 1.317 . S
N533 C529 1.328 . S
N533 C531 1.350 . S
H534 C529 0.930 . S
H535 C530 0.930 . S
C536 O537 1.224 . S
C536 O555 1.247 . S
O537 C536 1.224 . S
N538 Co528 2.128 . S
N538 C539 1.355 . S
N538 C541 1.311 . S
C539 N538 1.355 . S
C539 C540 1.363 . S
C539 H551 0.929 . S
C540 C539 1.363 . S
C540 N542 1.375 . S
C540 H558 0.931 . S
C541 N538 1.311 . S
C541 N542 1.347 . S
C541 H552 0.929 . S
N542 C540 1.375 . S
N542 C541 1.347 . S
C543 C546 1.365 . S
C543 N548 1.328 . S
C543 H549 0.929 . S
C544 C545 1.362 . S
C544 C547 1.378 . S
C544 H559 0.929 . S
C545 C544 1.362 . S
C545 C546 1.366 . S
C546 C543 1.365 . S
C546 C545 1.366 . S
C546 H560 0.930 . S
C547 C544 1.378 . S
C547 N548 1.315 . S
C547 H550 0.930 . S
N548 Co528 2.194 . S
N548 C543 1.328 . S
N548 C547 1.315 . S
H549 C543 0.929 . S
H550 C547 0.930 . S
H551 C539 0.929 . S
H552 C541 0.929 . S
O553 Co528 2.351 . S
O553 C556 1.244 . S
O554 Co528 2.155 . S
O554 C556 1.240 . S
O555 Co528 2.096 . S
O555 C536 1.247 . S
C556 O553 1.244 . S
C556 O554 1.240 . S
H557 C531 0.931 . S
H558 C540 0.931 . S
H559 C544 0.929 . S
H560 C546 0.930 . S
Co561 N565 2.148 . S
Co561 N571 2.128 . S
Co561 N581 2.194 . S
Co561 O586 2.351 . S
Co561 O587 2.155 . S
Co561 O588 2.096 . S
C562 N565 1.301 . S
C562 N566 1.328 . S
C562 H567 0.930 . S
C563 C564 1.333 . S
C563 N565 1.317 . S
C563 H568 0.930 . S
C564 C563 1.333 . S
C564 N566 1.350 . S
C564 H590 0.931 . S
N565 Co561 2.148 . S
N565 C562 1.301 . S
N565 C563 1.317 . S
N566 C562 1.328 . S
N566 C564 1.350 . S
H567 C562 0.930 . S
H568 C563 0.930 . S
C569 O570 1.224 . S
C569 O588 1.247 . S
O570 C569 1.224 . S
N571 Co561 2.128 . S
N571 C572 1.355 . S
N571 C574 1.311 . S
C572 N571 1.355 . S
C572 C573 1.363 . S
C572 H584 0.929 . S
C573 C572 1.363 . S
C573 N575 1.375 . S
C573 H591 0.931 . S
C574 N571 1.311 . S
C574 N575 1.347 . S
C574 H585 0.929 . S
N575 C573 1.375 . S
N575 C574 1.347 . S
C576 C579 1.365 . S
C576 N581 1.328 . S
C576 H582 0.929 . S
C577 C578 1.362 . S
C577 C580 1.378 . S
C577 H592 0.929 . S
C578 C577 1.362 . S
C578 C579 1.366 . S
C579 C576 1.365 . S
C579 C578 1.366 . S
C579 H593 0.930 . S
C580 C577 1.378 . S
C580 N581 1.315 . S
C580 H583 0.930 . S
N581 Co561 2.194 . S
N581 C576 1.328 . S
N581 C580 1.315 . S
H582 C576 0.929 . S
H583 C580 0.930 . S
H584 C572 0.929 . S
H585 C574 0.929 . S
O586 Co561 2.351 . S
O586 C589 1.244 . S
O587 Co561 2.155 . S
O587 C589 1.240 . S
O588 Co561 2.096 . S
O588 C569 1.247 . S
C589 O586 1.244 . S
C589 O587 1.240 . S
H590 C564 0.931 . S
H591 C573 0.931 . S
H592 C577 0.929 . S
H593 C579 0.930 . S
Co594 N598 2.148 . S
Co594 N604 2.128 . S
Co594 N614 2.194 . S
Co594 O619 2.351 . S
Co594 O620 2.155 . S
Co594 O621 2.096 . S
C595 N598 1.301 . S
C595 N599 1.328 . S
C595 H600 0.930 . S
C596 C597 1.333 . S
C596 N598 1.317 . S
C596 H601 0.930 . S
C597 C596 1.333 . S
C597 N599 1.350 . S
C597 H623 0.931 . S
N598 Co594 2.148 . S
N598 C595 1.301 . S
N598 C596 1.317 . S
N599 C595 1.328 . S
N599 C597 1.350 . S
H600 C595 0.930 . S
H601 C596 0.930 . S
C602 O603 1.224 . S
C602 O621 1.247 . S
O603 C602 1.224 . S
N604 Co594 2.128 . S
N604 C605 1.355 . S
N604 C607 1.311 . S
C605 N604 1.355 . S
C605 C606 1.363 . S
C605 H617 0.929 . S
C606 C605 1.363 . S
C606 N608 1.375 . S
C606 H624 0.931 . S
C607 N604 1.311 . S
C607 N608 1.347 . S
C607 H618 0.929 . S
N608 C606 1.375 . S
N608 C607 1.347 . S
C609 C612 1.365 . S
C609 N614 1.328 . S
C609 H615 0.929 . S
C610 C611 1.362 . S
C610 C613 1.378 . S
C610 H625 0.929 . S
C611 C610 1.362 . S
C611 C612 1.366 . S
C612 C609 1.365 . S
C612 C611 1.366 . S
C612 H626 0.930 . S
C613 C610 1.378 . S
C613 N614 1.315 . S
C613 H616 0.930 . S
N614 Co594 2.194 . S
N614 C609 1.328 . S
N614 C613 1.315 . S
H615 C609 0.929 . S
H616 C613 0.930 . S
H617 C605 0.929 . S
H618 C607 0.929 . S
O619 Co594 2.351 . S
O619 C622 1.244 . S
O620 Co594 2.155 . S
O620 C622 1.240 . S
O621 Co594 2.096 . S
O621 C602 1.247 . S
C622 O619 1.244 . S
C622 O620 1.240 . S
H623 C597 0.931 . S
H624 C606 0.931 . S
H625 C610 0.929 . S
H626 C612 0.930 . S
Co627 N631 2.148 . S
Co627 N637 2.128 . S
Co627 N647 2.194 . S
Co627 O652 2.351 . S
Co627 O653 2.155 . S
Co627 O654 2.096 . S
C628 N631 1.301 . S
C628 N632 1.328 1_455 S
C628 H633 0.930 . S
C629 C630 1.333 1_455 S
C629 N631 1.317 . S
C629 H634 0.930 . S
C630 C629 1.333 1_655 S
C630 N632 1.350 . S
C630 H656 0.931 . S
N631 Co627 2.148 . S
N631 C628 1.301 . S
N631 C629 1.317 . S
N632 C628 1.328 1_655 S
N632 C630 1.350 . S
H633 C628 0.930 . S
H634 C629 0.930 . S
C635 O636 1.224 . S
C635 O654 1.247 . S
O636 C635 1.224 . S
N637 Co627 2.128 . S
N637 C638 1.355 . S
N637 C640 1.311 . S
C638 N637 1.355 . S
C638 C639 1.363 . S
C638 H650 0.929 . S
C639 C638 1.363 . S
C639 N641 1.375 . S
C639 H657 0.931 . S
C640 N637 1.311 . S
C640 N641 1.347 . S
C640 H651 0.929 . S
N641 C639 1.375 . S
N641 C640 1.347 . S
C642 C645 1.365 . S
C642 N647 1.328 . S
C642 H648 0.929 . S
C643 C644 1.362 . S
C643 C646 1.378 . S
C643 H658 0.929 . S
C644 C643 1.362 . S
C644 C645 1.366 . S
C645 C642 1.365 . S
C645 C644 1.366 . S
C645 H659 0.930 . S
C646 C643 1.378 . S
C646 N647 1.315 . S
C646 H649 0.930 . S
N647 Co627 2.194 . S
N647 C642 1.328 . S
N647 C646 1.315 . S
H648 C642 0.929 . S
H649 C646 0.930 . S
H650 C638 0.929 . S
H651 C640 0.929 . S
O652 Co627 2.351 . S
O652 C655 1.244 . S
O653 Co627 2.155 . S
O653 C655 1.240 . S
O654 Co627 2.096 . S
O654 C635 1.247 . S
C655 O652 1.244 . S
C655 O653 1.240 . S
H656 C630 0.931 . S
H657 C639 0.931 . S
H658 C643 0.929 . S
H659 C645 0.930 . S
Co660 N664 2.148 . S
Co660 N670 2.128 . S
Co660 N680 2.194 . S
Co660 O685 2.351 . S
Co660 O686 2.155 . S
Co660 O687 2.096 . S
C661 N664 1.301 . S
C661 N665 1.328 . S
C661 H666 0.930 . S
C662 C663 1.333 . S
C662 N664 1.317 . S
C662 H667 0.930 . S
C663 C662 1.333 . S
C663 N665 1.350 . S
C663 H689 0.931 . S
N664 Co660 2.148 . S
N664 C661 1.301 . S
N664 C662 1.317 . S
N665 C661 1.328 . S
N665 C663 1.350 . S
H666 C661 0.930 . S
H667 C662 0.930 . S
C668 O669 1.224 . S
C668 O687 1.247 . S
O669 C668 1.224 . S
N670 Co660 2.128 . S
N670 C671 1.355 . S
N670 C673 1.311 . S
C671 N670 1.355 . S
C671 C672 1.363 . S
C671 H683 0.929 . S
C672 C671 1.363 . S
C672 N674 1.375 . S
C672 H690 0.931 . S
C673 N670 1.311 . S
C673 N674 1.347 . S
C673 H684 0.929 . S
N674 C672 1.375 . S
N674 C673 1.347 . S
C675 C678 1.365 . S
C675 N680 1.328 . S
C675 H681 0.929 . S
C676 C677 1.362 . S
C676 C679 1.378 . S
C676 H691 0.929 . S
C677 C676 1.362 . S
C677 C678 1.366 . S
C678 C675 1.365 . S
C678 C677 1.366 . S
C678 H692 0.930 . S
C679 C676 1.378 . S
C679 N680 1.315 . S
C679 H682 0.930 . S
N680 Co660 2.194 . S
N680 C675 1.328 . S
N680 C679 1.315 . S
H681 C675 0.929 . S
H682 C679 0.930 . S
H683 C671 0.929 . S
H684 C673 0.929 . S
O685 Co660 2.351 . S
O685 C688 1.244 . S
O686 Co660 2.155 . S
O686 C688 1.240 . S
O687 Co660 2.096 . S
O687 C668 1.247 . S
C688 O685 1.244 . S
C688 O686 1.240 . S
H689 C663 0.931 . S
H690 C672 0.931 . S
H691 C676 0.929 . S
H692 C678 0.930 . S
Co693 N697 2.148 . S
Co693 N703 2.128 . S
Co693 N713 2.194 . S
Co693 O718 2.351 . S
Co693 O719 2.155 . S
Co693 O720 2.096 . S
C694 N697 1.301 . S
C694 N698 1.328 1_455 S
C694 H699 0.930 . S
C695 C696 1.333 1_455 S
C695 N697 1.317 . S
C695 H700 0.930 . S
C696 C695 1.333 1_655 S
C696 N698 1.350 . S
C696 H722 0.931 . S
N697 Co693 2.148 . S
N697 C694 1.301 . S
N697 C695 1.317 . S
N698 C694 1.328 1_655 S
N698 C696 1.350 . S
H699 C694 0.930 . S
H700 C695 0.930 . S
C701 O702 1.224 . S
C701 O720 1.247 . S
O702 C701 1.224 . S
N703 Co693 2.128 . S
N703 C704 1.355 . S
N703 C706 1.311 . S
C704 N703 1.355 . S
C704 C705 1.363 . S
C704 H716 0.929 . S
C705 C704 1.363 . S
C705 N707 1.375 . S
C705 H723 0.931 . S
C706 N703 1.311 . S
C706 N707 1.347 . S
C706 H717 0.929 . S
N707 C705 1.375 . S
N707 C706 1.347 . S
C708 C711 1.365 . S
C708 N713 1.328 . S
C708 H714 0.929 . S
C709 C710 1.362 . S
C709 C712 1.378 . S
C709 H724 0.929 . S
C710 C709 1.362 . S
C710 C711 1.366 . S
C711 C708 1.365 . S
C711 C710 1.366 . S
C711 H725 0.930 . S
C712 C709 1.378 . S
C712 N713 1.315 . S
C712 H715 0.930 . S
N713 Co693 2.194 . S
N713 C708 1.328 . S
N713 C712 1.315 . S
H714 C708 0.929 . S
H715 C712 0.930 . S
H716 C704 0.929 . S
H717 C706 0.929 . S
O718 Co693 2.351 . S
O718 C721 1.244 . S
O719 Co693 2.155 . S
O719 C721 1.240 . S
O720 Co693 2.096 . S
O720 C701 1.247 . S
C721 O718 1.244 . S
C721 O719 1.240 . S
H722 C696 0.931 . S
H723 C705 0.931 . S
H724 C709 0.929 . S
H725 C711 0.930 . S
Co726 N730 2.148 . S
Co726 N736 2.128 . S
Co726 N746 2.194 . S
Co726 O751 2.351 . S
Co726 O752 2.155 . S
Co726 O753 2.096 . S
C727 N730 1.301 . S
C727 N731 1.328 . S
C727 H732 0.930 . S
C728 C729 1.333 . S
C728 N730 1.317 . S
C728 H733 0.930 . S
C729 C728 1.333 . S
C729 N731 1.350 . S
C729 H755 0.931 . S
N730 Co726 2.148 . S
N730 C727 1.301 . S
N730 C728 1.317 . S
N731 C727 1.328 . S
N731 C729 1.350 . S
H732 C727 0.930 . S
H733 C728 0.930 . S
C734 O735 1.224 . S
C734 O753 1.247 . S
O735 C734 1.224 . S
N736 Co726 2.128 . S
N736 C737 1.355 . S
N736 C739 1.311 . S
C737 N736 1.355 . S
C737 C738 1.363 . S
C737 H749 0.929 . S
C738 C737 1.363 . S
C738 N740 1.375 . S
C738 H756 0.931 . S
C739 N736 1.311 . S
C739 N740 1.347 . S
C739 H750 0.929 . S
N740 C738 1.375 . S
N740 C739 1.347 . S
C741 C744 1.365 . S
C741 N746 1.328 . S
C741 H747 0.929 . S
C742 C743 1.362 . S
C742 C745 1.378 . S
C742 H757 0.929 . S
C743 C742 1.362 . S
C743 C744 1.366 . S
C744 C741 1.365 . S
C744 C743 1.366 . S
C744 H758 0.930 . S
C745 C742 1.378 . S
C745 N746 1.315 . S
C745 H748 0.930 . S
N746 Co726 2.194 . S
N746 C741 1.328 . S
N746 C745 1.315 . S
H747 C741 0.929 . S
H748 C745 0.930 . S
H749 C737 0.929 . S
H750 C739 0.929 . S
O751 Co726 2.351 . S
O751 C754 1.244 . S
O752 Co726 2.155 . S
O752 C754 1.240 . S
O753 Co726 2.096 . S
O753 C734 1.247 . S
C754 O751 1.244 . S
C754 O752 1.240 . S
H755 C729 0.931 . S
H756 C738 0.931 . S
H757 C742 0.929 . S
H758 C744 0.930 . S
Co759 N763 2.148 . S
Co759 N769 2.128 . S
Co759 N779 2.194 . S
Co759 O784 2.351 . S
Co759 O785 2.155 . S
Co759 O786 2.096 . S
C760 N763 1.301 . S
C760 N764 1.328 . S
C760 H765 0.930 . S
C761 C762 1.333 . S
C761 N763 1.317 . S
C761 H766 0.930 . S
C762 C761 1.333 . S
C762 N764 1.350 . S
C762 H788 0.931 . S
N763 Co759 2.148 . S
N763 C760 1.301 . S
N763 C761 1.317 . S
N764 C760 1.328 . S
N764 C762 1.350 . S
H765 C760 0.930 . S
H766 C761 0.930 . S
C767 O768 1.224 . S
C767 O786 1.247 . S
O768 C767 1.224 . S
N769 Co759 2.128 . S
N769 C770 1.355 . S
N769 C772 1.311 . S
C770 N769 1.355 . S
C770 C771 1.363 . S
C770 H782 0.929 . S
C771 C770 1.363 . S
C771 N773 1.375 . S
C771 H789 0.931 . S
C772 N769 1.311 . S
C772 N773 1.347 . S
C772 H783 0.929 . S
N773 C771 1.375 . S
N773 C772 1.347 . S
C774 C777 1.365 . S
C774 N779 1.328 . S
C774 H780 0.929 . S
C775 C776 1.362 . S
C775 C778 1.378 . S
C775 H790 0.929 . S
C776 C775 1.362 . S
C776 C777 1.366 . S
C777 C774 1.365 . S
C777 C776 1.366 . S
C777 H791 0.930 . S
C778 C775 1.378 . S
C778 N779 1.315 . S
C778 H781 0.930 . S
N779 Co759 2.194 . S
N779 C774 1.328 . S
N779 C778 1.315 . S
H780 C774 0.929 . S
H781 C778 0.930 . S
H782 C770 0.929 . S
H783 C772 0.929 . S
O784 Co759 2.351 . S
O784 C787 1.244 . S
O785 Co759 2.155 . S
O785 C787 1.240 . S
O786 Co759 2.096 . S
O786 C767 1.247 . S
C787 O784 1.244 . S
C787 O785 1.240 . S
H788 C762 0.931 . S
H789 C771 0.931 . S
H790 C775 0.929 . S
H791 C777 0.930 . S
Co792 N796 2.148 . S
Co792 N802 2.128 . S
Co792 N812 2.194 . S
Co792 O817 2.351 . S
Co792 O818 2.155 . S
Co792 O819 2.096 . S
C793 N796 1.301 . S
C793 N797 1.328 . S
C793 H798 0.930 . S
C794 C795 1.333 . S
C794 N796 1.317 . S
C794 H799 0.930 . S
C795 C794 1.333 . S
C795 N797 1.350 . S
C795 H821 0.931 . S
N796 Co792 2.148 . S
N796 C793 1.301 . S
N796 C794 1.317 . S
N797 C793 1.328 . S
N797 C795 1.350 . S
H798 C793 0.930 . S
H799 C794 0.930 . S
C800 O801 1.224 . S
C800 O819 1.247 . S
O801 C800 1.224 . S
N802 Co792 2.128 . S
N802 C803 1.355 . S
N802 C805 1.311 . S
C803 N802 1.355 . S
C803 C804 1.363 . S
C803 H815 0.929 . S
C804 C803 1.363 . S
C804 N806 1.375 . S
C804 H822 0.931 . S
C805 N802 1.311 . S
C805 N806 1.347 . S
C805 H816 0.929 . S
N806 C804 1.375 . S
N806 C805 1.347 . S
C807 C810 1.365 . S
C807 N812 1.328 . S
C807 H813 0.929 . S
C808 C809 1.362 . S
C808 C811 1.378 . S
C808 H823 0.929 . S
C809 C808 1.362 . S
C809 C810 1.366 . S
C810 C807 1.365 . S
C810 C809 1.366 . S
C810 H824 0.930 . S
C811 C808 1.378 . S
C811 N812 1.315 . S
C811 H814 0.930 . S
N812 Co792 2.194 . S
N812 C807 1.328 . S
N812 C811 1.315 . S
H813 C807 0.929 . S
H814 C811 0.930 . S
H815 C803 0.929 . S
H816 C805 0.929 . S
O817 Co792 2.351 . S
O817 C820 1.244 . S
O818 Co792 2.155 . S
O818 C820 1.240 . S
O819 Co792 2.096 . S
O819 C800 1.247 . S
C820 O817 1.244 . S
C820 O818 1.240 . S
H821 C795 0.931 . S
H822 C804 0.931 . S
H823 C808 0.929 . S
H824 C810 0.930 . S
Co825 N829 2.148 . S
Co825 N835 2.128 . S
Co825 N845 2.194 . S
Co825 O850 2.351 . S
Co825 O851 2.155 . S
Co825 O852 2.096 . S
C826 N829 1.301 . S
C826 N830 1.328 . S
C826 H831 0.930 . S
C827 C828 1.333 . S
C827 N829 1.317 . S
C827 H832 0.930 . S
C828 C827 1.333 . S
C828 N830 1.350 . S
C828 H854 0.931 . S
N829 Co825 2.148 . S
N829 C826 1.301 . S
N829 C827 1.317 . S
N830 C826 1.328 . S
N830 C828 1.350 . S
H831 C826 0.930 . S
H832 C827 0.930 . S
C833 O834 1.224 . S
C833 O852 1.247 . S
O834 C833 1.224 . S
N835 Co825 2.128 . S
N835 C836 1.355 . S
N835 C838 1.311 . S
C836 N835 1.355 . S
C836 C837 1.363 . S
C836 H848 0.929 . S
C837 C836 1.363 . S
C837 N839 1.375 . S
C837 H855 0.931 . S
C838 N835 1.311 . S
C838 N839 1.347 . S
C838 H849 0.929 . S
N839 C837 1.375 . S
N839 C838 1.347 . S
C840 C843 1.365 . S
C840 N845 1.328 . S
C840 H846 0.929 . S
C841 C842 1.362 . S
C841 C844 1.378 . S
C841 H856 0.929 . S
C842 C841 1.362 . S
C842 C843 1.366 . S
C843 C840 1.365 . S
C843 C842 1.366 . S
C843 H857 0.930 . S
C844 C841 1.378 . S
C844 N845 1.315 . S
C844 H847 0.930 . S
N845 Co825 2.194 . S
N845 C840 1.328 . S
N845 C844 1.315 . S
H846 C840 0.929 . S
H847 C844 0.930 . S
H848 C836 0.929 . S
H849 C838 0.929 . S
O850 Co825 2.351 . S
O850 C853 1.244 . S
O851 Co825 2.155 . S
O851 C853 1.240 . S
O852 Co825 2.096 . S
O852 C833 1.247 . S
C853 O850 1.244 . S
C853 O851 1.240 . S
H854 C828 0.931 . S
H855 C837 0.931 . S
H856 C841 0.929 . S
H857 C843 0.930 . S
Co858 N862 2.148 . S
Co858 N868 2.128 . S
Co858 N878 2.194 . S
Co858 O883 2.351 . S
Co858 O884 2.155 . S
Co858 O885 2.096 . S
C859 N862 1.301 . S
C859 N863 1.328 . S
C859 H864 0.930 . S
C860 C861 1.333 . S
C860 N862 1.317 . S
C860 H865 0.930 . S
C861 C860 1.333 . S
C861 N863 1.350 . S
C861 H887 0.931 . S
N862 Co858 2.148 . S
N862 C859 1.301 . S
N862 C860 1.317 . S
N863 C859 1.328 . S
N863 C861 1.350 . S
H864 C859 0.930 . S
H865 C860 0.930 . S
C866 O867 1.224 . S
C866 O885 1.247 . S
O867 C866 1.224 . S
N868 Co858 2.128 . S
N868 C869 1.355 . S
N868 C871 1.311 . S
C869 N868 1.355 . S
C869 C870 1.363 . S
C869 H881 0.929 . S
C870 C869 1.363 . S
C870 N872 1.375 . S
C870 H888 0.931 . S
C871 N868 1.311 . S
C871 N872 1.347 . S
C871 H882 0.929 . S
N872 C870 1.375 . S
N872 C871 1.347 . S
C873 C876 1.365 . S
C873 N878 1.328 . S
C873 H879 0.929 . S
C874 C875 1.362 . S
C874 C877 1.378 . S
C874 H889 0.929 . S
C875 C874 1.362 . S
C875 C876 1.366 . S
C876 C873 1.365 . S
C876 C875 1.366 . S
C876 H890 0.930 . S
C877 C874 1.378 . S
C877 N878 1.315 . S
C877 H880 0.930 . S
N878 Co858 2.194 . S
N878 C873 1.328 . S
N878 C877 1.315 . S
H879 C873 0.929 . S
H880 C877 0.930 . S
H881 C869 0.929 . S
H882 C871 0.929 . S
O883 Co858 2.351 . S
O883 C886 1.244 . S
O884 Co858 2.155 . S
O884 C886 1.240 . S
O885 Co858 2.096 . S
O885 C866 1.247 . S
C886 O883 1.244 . S
C886 O884 1.240 . S
H887 C861 0.931 . S
H888 C870 0.931 . S
H889 C874 0.929 . S
H890 C876 0.930 . S
Co891 N895 2.148 . S
Co891 N901 2.128 . S
Co891 N911 2.194 . S
Co891 O916 2.351 . S
Co891 O917 2.155 . S
Co891 O918 2.096 . S
C892 N895 1.301 . S
C892 N896 1.328 1_655 S
C892 H897 0.930 . S
C893 C894 1.333 1_655 S
C893 N895 1.317 . S
C893 H898 0.930 . S
C894 C893 1.333 1_455 S
C894 N896 1.350 . S
C894 H920 0.931 . S
N895 Co891 2.148 . S
N895 C892 1.301 . S
N895 C893 1.317 . S
N896 C892 1.328 1_455 S
N896 C894 1.350 . S
H897 C892 0.930 . S
H898 C893 0.930 . S
C899 O900 1.224 . S
C899 O918 1.247 . S
O900 C899 1.224 . S
N901 Co891 2.128 . S
N901 C902 1.355 . S
N901 C904 1.311 . S
C902 N901 1.355 . S
C902 C903 1.363 . S
C902 H914 0.929 . S
C903 C902 1.363 . S
C903 N905 1.375 . S
C903 H921 0.931 . S
C904 N901 1.311 . S
C904 N905 1.347 . S
C904 H915 0.929 . S
N905 C903 1.375 . S
N905 C904 1.347 . S
C906 C909 1.365 . S
C906 N911 1.328 . S
C906 H912 0.929 . S
C907 C908 1.362 . S
C907 C910 1.378 . S
C907 H922 0.929 . S
C908 C907 1.362 . S
C908 C909 1.366 . S
C909 C906 1.365 . S
C909 C908 1.366 . S
C909 H923 0.930 . S
C910 C907 1.378 . S
C910 N911 1.315 . S
C910 H913 0.930 . S
N911 Co891 2.194 . S
N911 C906 1.328 . S
N911 C910 1.315 . S
H912 C906 0.929 . S
H913 C910 0.930 . S
H914 C902 0.929 . S
H915 C904 0.929 . S
O916 Co891 2.351 . S
O916 C919 1.244 . S
O917 Co891 2.155 . S
O917 C919 1.240 . S
O918 Co891 2.096 . S
O918 C899 1.247 . S
C919 O916 1.244 . S
C919 O917 1.240 . S
H920 C894 0.931 . S
H921 C903 0.931 . S
H922 C907 0.929 . S
H923 C909 0.930 . S
Co924 N928 2.148 . S
Co924 N934 2.128 . S
Co924 N944 2.194 . S
Co924 O949 2.351 . S
Co924 O950 2.155 . S
Co924 O951 2.096 . S
C925 N928 1.301 . S
C925 N929 1.328 . S
C925 H930 0.930 . S
C926 C927 1.333 . S
C926 N928 1.317 . S
C926 H931 0.930 . S
C927 C926 1.333 . S
C927 N929 1.350 . S
C927 H953 0.931 . S
N928 Co924 2.148 . S
N928 C925 1.301 . S
N928 C926 1.317 . S
N929 C925 1.328 . S
N929 C927 1.350 . S
H930 C925 0.930 . S
H931 C926 0.930 . S
C932 O933 1.224 . S
C932 O951 1.247 . S
O933 C932 1.224 . S
N934 Co924 2.128 . S
N934 C935 1.355 . S
N934 C937 1.311 . S
C935 N934 1.355 . S
C935 C936 1.363 . S
C935 H947 0.929 . S
C936 C935 1.363 . S
C936 N938 1.375 . S
C936 H954 0.931 . S
C937 N934 1.311 . S
C937 N938 1.347 . S
C937 H948 0.929 . S
N938 C936 1.375 . S
N938 C937 1.347 . S
C939 C942 1.365 . S
C939 N944 1.328 . S
C939 H945 0.929 . S
C940 C941 1.362 . S
C940 C943 1.378 . S
C940 H955 0.929 . S
C941 C940 1.362 . S
C941 C942 1.366 . S
C942 C939 1.365 . S
C942 C941 1.366 . S
C942 H956 0.930 . S
C943 C940 1.378 . S
C943 N944 1.315 . S
C943 H946 0.930 . S
N944 Co924 2.194 . S
N944 C939 1.328 . S
N944 C943 1.315 . S
H945 C939 0.929 . S
H946 C943 0.930 . S
H947 C935 0.929 . S
H948 C937 0.929 . S
O949 Co924 2.351 . S
O949 C952 1.244 . S
O950 Co924 2.155 . S
O950 C952 1.240 . S
O951 Co924 2.096 . S
O951 C932 1.247 . S
C952 O949 1.244 . S
C952 O950 1.240 . S
H953 C927 0.931 . S
H954 C936 0.931 . S
H955 C940 0.929 . S
H956 C942 0.930 . S
Co957 N961 2.148 . S
Co957 N967 2.128 . S
Co957 N977 2.194 . S
Co957 O982 2.351 . S
Co957 O983 2.155 . S
Co957 O984 2.096 . S
C958 N961 1.301 . S
C958 N962 1.328 1_655 S
C958 H963 0.930 . S
C959 C960 1.333 1_655 S
C959 N961 1.317 . S
C959 H964 0.930 . S
C960 C959 1.333 1_455 S
C960 N962 1.350 . S
C960 H986 0.931 . S
N961 Co957 2.148 . S
N961 C958 1.301 . S
N961 C959 1.317 . S
N962 C958 1.328 1_455 S
N962 C960 1.350 . S
H963 C958 0.930 . S
H964 C959 0.930 . S
C965 O966 1.224 . S
C965 O984 1.247 . S
O966 C965 1.224 . S
N967 Co957 2.128 . S
N967 C968 1.355 . S
N967 C970 1.311 . S
C968 N967 1.355 . S
C968 C969 1.363 . S
C968 H980 0.929 . S
C969 C968 1.363 . S
C969 N971 1.375 . S
C969 H987 0.931 . S
C970 N967 1.311 . S
C970 N971 1.347 . S
C970 H981 0.929 . S
N971 C969 1.375 . S
N971 C970 1.347 . S
C972 C975 1.365 . S
C972 N977 1.328 . S
C972 H978 0.929 . S
C973 C974 1.362 . S
C973 C976 1.378 . S
C973 H988 0.929 . S
C974 C973 1.362 . S
C974 C975 1.366 . S
C975 C972 1.365 . S
C975 C974 1.366 . S
C975 H989 0.930 . S
C976 C973 1.378 . S
C976 N977 1.315 . S
C976 H979 0.930 . S
N977 Co957 2.194 . S
N977 C972 1.328 . S
N977 C976 1.315 . S
H978 C972 0.929 . S
H979 C976 0.930 . S
H980 C968 0.929 . S
H981 C970 0.929 . S
O982 Co957 2.351 . S
O982 C985 1.244 . S
O983 Co957 2.155 . S
O983 C985 1.240 . S
O984 Co957 2.096 . S
O984 C965 1.247 . S
C985 O982 1.244 . S
C985 O983 1.240 . S
H986 C960 0.931 . S
H987 C969 0.931 . S
H988 C973 0.929 . S
H989 C975 0.930 . S
Co990 N994 2.148 . S
Co990 N1000 2.128 . S
Co990 N1010 2.194 . S
Co990 O1015 2.351 . S
Co990 O1016 2.155 . S
Co990 O1017 2.096 . S
C991 N994 1.301 . S
C991 N995 1.328 . S
C991 H996 0.930 . S
C992 C993 1.333 . S
C992 N994 1.317 . S
C992 H997 0.930 . S
C993 C992 1.333 . S
C993 N995 1.350 . S
C993 H1019 0.931 . S
N994 Co990 2.148 . S
N994 C991 1.301 . S
N994 C992 1.317 . S
N995 C991 1.328 . S
N995 C993 1.350 . S
H996 C991 0.930 . S
H997 C992 0.930 . S
C998 O999 1.224 . S
C998 O1017 1.247 . S
O999 C998 1.224 . S
N1000 Co990 2.128 . S
N1000 C1001 1.355 . S
N1000 C1003 1.311 . S
C1001 N1000 1.355 . S
C1001 C1002 1.363 . S
C1001 H1013 0.929 . S
C1002 C1001 1.363 . S
C1002 N1004 1.375 . S
C1002 H1020 0.931 . S
C1003 N1000 1.311 . S
C1003 N1004 1.347 . S
C1003 H1014 0.929 . S
N1004 C1002 1.375 . S
N1004 C1003 1.347 . S
C1005 C1008 1.365 . S
C1005 N1010 1.328 . S
C1005 H1011 0.929 . S
C1006 C1007 1.362 . S
C1006 C1009 1.378 . S
C1006 H1021 0.929 . S
C1007 C1006 1.362 . S
C1007 C1008 1.366 . S
C1008 C1005 1.365 . S
C1008 C1007 1.366 . S
C1008 H1022 0.930 . S
C1009 C1006 1.378 . S
C1009 N1010 1.315 . S
C1009 H1012 0.930 . S
N1010 Co990 2.194 . S
N1010 C1005 1.328 . S
N1010 C1009 1.315 . S
H1011 C1005 0.929 . S
H1012 C1009 0.930 . S
H1013 C1001 0.929 . S
H1014 C1003 0.929 . S
O1015 Co990 2.351 . S
O1015 C1018 1.244 . S
O1016 Co990 2.155 . S
O1016 C1018 1.240 . S
O1017 Co990 2.096 . S
O1017 C998 1.247 . S
C1018 O1015 1.244 . S
C1018 O1016 1.240 . S
H1019 C993 0.931 . S
H1020 C1002 0.931 . S
H1021 C1006 0.929 . S
H1022 C1008 0.930 . S
Co1023 N1027 2.148 . S
Co1023 N1033 2.128 . S
Co1023 N1043 2.194 . S
Co1023 O1048 2.351 . S
Co1023 O1049 2.155 . S
Co1023 O1050 2.096 . S
C1024 N1027 1.301 . S
C1024 N1028 1.328 . S
C1024 H1029 0.930 . S
C1025 C1026 1.333 . S
C1025 N1027 1.317 . S
C1025 H1030 0.930 . S
C1026 C1025 1.333 . S
C1026 N1028 1.350 . S
C1026 H1052 0.931 . S
N1027 Co1023 2.148 . S
N1027 C1024 1.301 . S
N1027 C1025 1.317 . S
N1028 C1024 1.328 . S
N1028 C1026 1.350 . S
H1029 C1024 0.930 . S
H1030 C1025 0.930 . S
C1031 O1032 1.224 . S
C1031 O1050 1.247 . S
O1032 C1031 1.224 . S
N1033 Co1023 2.128 . S
N1033 C1034 1.355 . S
N1033 C1036 1.311 . S
C1034 N1033 1.355 . S
C1034 C1035 1.363 . S
C1034 H1046 0.929 . S
C1035 C1034 1.363 . S
C1035 N1037 1.375 . S
C1035 H1053 0.931 . S
C1036 N1033 1.311 . S
C1036 N1037 1.347 . S
C1036 H1047 0.929 . S
N1037 C1035 1.375 . S
N1037 C1036 1.347 . S
C1038 C1041 1.365 . S
C1038 N1043 1.328 . S
C1038 H1044 0.929 . S
C1039 C1040 1.362 . S
C1039 C1042 1.378 . S
C1039 H1054 0.929 . S
C1040 C1039 1.362 . S
C1040 C1041 1.366 . S
C1041 C1038 1.365 . S
C1041 C1040 1.366 . S
C1041 H1055 0.930 . S
C1042 C1039 1.378 . S
C1042 N1043 1.315 . S
C1042 H1045 0.930 . S
N1043 Co1023 2.194 . S
N1043 C1038 1.328 . S
N1043 C1042 1.315 . S
H1044 C1038 0.929 . S
H1045 C1042 0.930 . S
H1046 C1034 0.929 . S
H1047 C1036 0.929 . S
O1048 Co1023 2.351 . S
O1048 C1051 1.244 . S
O1049 Co1023 2.155 . S
O1049 C1051 1.240 . S
O1050 Co1023 2.096 . S
O1050 C1031 1.247 . S
C1051 O1048 1.244 . S
C1051 O1049 1.240 . S
H1052 C1026 0.931 . S
H1053 C1035 0.931 . S
H1054 C1039 0.929 . S
H1055 C1041 0.930 . S
C1056 C1057 1.363 . S
C1056 C1062 1.379 . S
C1056 N1064 1.356 . S
C1057 C1056 1.363 . S
C1057 C1063 1.363 . S
C1058 C1059 1.363 . S
C1058 C1063 1.379 . S
C1058 N1065 1.356 . S
C1059 C1058 1.363 . S
C1059 C1062 1.363 . S
N1060 C1062 1.356 . S
N1060 H1072 0.984 . S
N1060 H1073 0.985 . S
N1061 C1063 1.356 . S
N1061 H1066 0.984 . S
N1061 H1067 0.985 . S
C1062 C1056 1.379 . S
C1062 C1059 1.363 . S
C1062 N1060 1.356 . S
C1063 C1057 1.363 . S
C1063 C1058 1.379 . S
C1063 N1061 1.356 . S
N1064 C1056 1.356 . S
N1064 H1070 0.984 . S
N1064 H1071 0.984 . S
N1065 C1058 1.356 . S
N1065 H1068 0.984 . S
N1065 H1069 0.985 . S
H1066 N1061 0.984 . S
H1067 N1061 0.985 . S
H1068 N1065 0.984 . S
H1069 N1065 0.985 . S
H1070 N1064 0.984 . S
H1071 N1064 0.984 . S
H1072 N1060 0.984 . S
H1073 N1060 0.985 . S
C1074 C1075 1.363 . S
C1074 C1080 1.379 . S
C1074 N1082 1.356 . S
C1075 C1074 1.363 . S
C1075 C1081 1.363 1_465 S
C1076 C1077 1.363 . S
C1076 C1081 1.379 . S
C1076 N1083 1.356 . S
C1077 C1076 1.363 . S
C1077 C1080 1.363 1_645 S
N1078 C1080 1.360 . S
N1078 H1090 1.004 . S
N1078 H1091 0.963 1_455 S
N1079 C1081 1.360 . S
N1079 H1084 0.963 1_655 S
N1079 H1085 1.004 . S
C1080 C1074 1.379 . S
C1080 C1077 1.363 1_465 S
C1080 N1078 1.360 . S
C1081 C1075 1.363 1_645 S
C1081 C1076 1.379 . S
C1081 N1079 1.360 . S
N1082 C1074 1.356 . S
N1082 H1088 0.984 . S
N1082 H1089 0.984 . S
N1083 C1076 1.356 . S
N1083 H1086 0.984 . S
N1083 H1087 0.985 . S
H1084 N1079 0.963 1_455 S
H1085 N1079 1.004 . S
H1086 N1083 0.984 . S
H1087 N1083 0.985 . S
H1088 N1082 0.984 . S
H1089 N1082 0.984 . S
H1090 N1078 1.004 . S
H1091 N1078 0.963 1_655 S
C1092 C1093 1.363 . S
C1092 C1098 1.379 . S
C1092 N1100 1.356 . S
C1093 C1092 1.363 . S
C1093 C1099 1.363 . S
C1094 C1095 1.363 . S
C1094 C1099 1.379 . S
C1094 N1101 1.356 . S
C1095 C1094 1.363 . S
C1095 C1098 1.363 . S
N1096 C1098 1.356 . S
N1096 H1108 0.984 . S
N1096 H1109 0.985 . S
N1097 C1099 1.356 . S
N1097 H1102 0.984 . S
N1097 H1103 0.985 . S
C1098 C1092 1.379 . S
C1098 C1095 1.363 . S
C1098 N1096 1.356 . S
C1099 C1093 1.363 . S
C1099 C1094 1.379 . S
C1099 N1097 1.356 . S
N1100 C1092 1.356 . S
N1100 H1106 0.984 . S
N1100 H1107 0.984 . S
N1101 C1094 1.356 . S
N1101 H1104 0.984 . S
N1101 H1105 0.985 . S
H1102 N1097 0.984 . S
H1103 N1097 0.985 . S
H1104 N1101 0.984 . S
H1105 N1101 0.985 . S
H1106 N1100 0.984 . S
H1107 N1100 0.984 . S
H1108 N1096 0.984 . S
H1109 N1096 0.985 . S
C1110 C1111 1.363 . S
C1110 C1116 1.379 1_554 S
C1110 N1118 1.356 . S
C1111 C1110 1.363 . S
C1111 C1117 1.363 1_545 S
C1112 C1113 1.363 . S
C1112 C1117 1.379 1_556 S
C1112 N1119 1.356 . S
C1113 C1112 1.363 . S
C1113 C1116 1.363 1_565 S
N1114 C1116 1.356 . S
N1114 H1126 0.984 . S
N1114 H1127 0.985 . S
N1115 C1117 1.356 . S
N1115 H1120 0.984 . S
N1115 H1121 0.985 . S
C1116 C1110 1.379 1_556 S
C1116 C1113 1.363 1_545 S
C1116 N1114 1.356 . S
C1117 C1111 1.363 1_565 S
C1117 C1112 1.379 1_554 S
C1117 N1115 1.356 . S
N1118 C1110 1.356 . S
N1118 H1124 0.984 . S
N1118 H1125 0.984 . S
N1119 C1112 1.356 . S
N1119 H1122 0.984 . S
N1119 H1123 0.985 . S
H1120 N1115 0.984 . S
H1121 N1115 0.985 . S
H1122 N1119 0.984 . S
H1123 N1119 0.985 . S
H1124 N1118 0.984 . S
H1125 N1118 0.984 . S
H1126 N1114 0.984 . S
H1127 N1114 0.985 . S
C1128 C1129 1.363 . S
C1128 C1134 1.379 . S
C1128 N1136 1.356 . S
C1129 C1128 1.363 . S
C1129 C1135 1.363 . S
C1130 C1131 1.363 . S
C1130 C1135 1.379 . S
C1130 N1137 1.356 . S
C1131 C1130 1.363 . S
C1131 C1134 1.363 . S
N1132 C1134 1.356 . S
N1132 H1144 0.984 . S
N1132 H1145 0.985 . S
N1133 C1135 1.356 . S
N1133 H1138 0.984 . S
N1133 H1139 0.985 . S
C1134 C1128 1.379 . S
C1134 C1131 1.363 . S
C1134 N1132 1.356 . S
C1135 C1129 1.363 . S
C1135 C1130 1.379 . S
C1135 N1133 1.356 . S
N1136 C1128 1.356 . S
N1136 H1142 0.984 . S
N1136 H1143 0.984 . S
N1137 C1130 1.356 . S
N1137 H1140 0.984 . S
N1137 H1141 0.985 . S
H1138 N1133 0.984 . S
H1139 N1133 0.985 . S
H1140 N1137 0.984 . S
H1141 N1137 0.985 . S
H1142 N1136 0.984 . S
H1143 N1136 0.984 . S
H1144 N1132 0.984 . S
H1145 N1132 0.985 . S
C1146 C1147 1.363 1_545 S
C1146 C1152 1.379 . S
C1146 N1154 1.356 . S
C1147 C1146 1.363 1_565 S
C1147 C1153 1.363 . S
C1148 C1149 1.363 1_565 S
C1148 C1153 1.379 . S
C1148 N1155 1.356 . S
C1149 C1148 1.363 1_545 S
C1149 C1152 1.363 . S
N1150 C1152 1.356 . S
N1150 H1162 0.984 . S
N1150 H1163 0.985 . S
N1151 C1153 1.356 . S
N1151 H1156 0.984 . S
N1151 H1157 0.985 . S
C1152 C1146 1.379 . S
C1152 C1149 1.363 . S
C1152 N1150 1.356 . S
C1153 C1147 1.363 . S
C1153 C1148 1.379 . S
C1153 N1151 1.356 . S
N1154 C1146 1.356 . S
N1154 H1160 0.984 . S
N1154 H1161 0.984 . S
N1155 C1148 1.356 . S
N1155 H1158 0.984 . S
N1155 H1159 0.985 . S
H1156 N1151 0.984 . S
H1157 N1151 0.985 . S
H1158 N1155 0.984 . S
H1159 N1155 0.985 . S
H1160 N1154 0.984 . S
H1161 N1154 0.984 . S
H1162 N1150 0.984 . S
H1163 N1150 0.985 . S
C1164 C1165 1.363 . S
C1164 C1170 1.379 . S
C1164 N1172 1.356 . S
C1165 C1164 1.363 . S
C1165 C1171 1.363 . S
C1166 C1167 1.363 . S
C1166 C1171 1.379 . S
C1166 N1173 1.356 . S
C1167 C1166 1.363 . S
C1167 C1170 1.363 . S
N1168 C1170 1.356 . S
N1168 H1180 0.984 . S
N1168 H1181 0.985 . S
N1169 C1171 1.356 . S
N1169 H1174 0.984 . S
N1169 H1175 0.985 . S
C1170 C1164 1.379 . S
C1170 C1167 1.363 . S
C1170 N1168 1.356 . S
C1171 C1165 1.363 . S
C1171 C1166 1.379 . S
C1171 N1169 1.356 . S
N1172 C1164 1.356 . S
N1172 H1178 0.984 . S
N1172 H1179 0.984 . S
N1173 C1166 1.356 . S
N1173 H1176 0.984 . S
N1173 H1177 0.985 . S
H1174 N1169 0.984 . S
H1175 N1169 0.985 . S
H1176 N1173 0.984 . S
H1177 N1173 0.985 . S
H1178 N1172 0.984 . S
H1179 N1172 0.984 . S
H1180 N1168 0.984 . S
H1181 N1168 0.985 . S
C1182 C1183 1.363 1_554 S
C1182 C1188 1.379 . S
C1182 N1190 1.356 1_554 S
C1183 C1182 1.363 1_556 S
C1183 C1189 1.363 1_445 S
C1184 C1185 1.363 1_556 S
C1184 C1189 1.379 . S
C1184 N1191 1.356 1_556 S
C1185 C1184 1.363 1_554 S
C1185 C1188 1.363 1_665 S
N1186 C1188 1.356 . S
N1186 H1198 0.984 . S
N1186 H1199 0.985 1_455 S
N1187 C1189 1.356 . S
N1187 H1192 0.984 1_655 S
N1187 H1193 0.985 . S
C1188 C1182 1.379 . S
C1188 C1185 1.363 1_445 S
C1188 N1186 1.356 . S
C1189 C1183 1.363 1_665 S
C1189 C1184 1.379 . S
C1189 N1187 1.356 . S
N1190 C1182 1.356 1_556 S
N1190 H1196 0.984 1_556 S
N1190 H1197 0.984 . S
N1191 C1184 1.356 1_554 S
N1191 H1194 0.984 . S
N1191 H1195 0.985 1_554 S
H1192 N1187 0.984 1_455 S
H1193 N1187 0.985 . S
H1194 N1191 0.984 . S
H1195 N1191 0.985 1_556 S
H1196 N1190 0.984 1_554 S
H1197 N1190 0.984 . S
H1198 N1186 0.984 . S
H1199 N1186 0.985 1_655 S
C1200 C1201 1.363 . S
C1200 C1206 1.379 . S
C1200 N1208 1.356 . S
C1201 C1200 1.363 . S
C1201 C1207 1.363 . S
C1202 C1203 1.363 . S
C1202 C1207 1.379 . S
C1202 N1209 1.356 . S
C1203 C1202 1.363 . S
C1203 C1206 1.363 . S
N1204 C1206 1.356 . S
N1204 H1216 0.984 . S
N1204 H1217 0.985 . S
N1205 C1207 1.356 . S
N1205 H1210 0.984 . S
N1205 H1211 0.985 . S
C1206 C1200 1.379 . S
C1206 C1203 1.363 . S
C1206 N1204 1.356 . S
C1207 C1201 1.363 . S
C1207 C1202 1.379 . S
C1207 N1205 1.356 . S
N1208 C1200 1.356 . S
N1208 H1214 0.984 . S
N1208 H1215 0.984 . S
N1209 C1202 1.356 . S
N1209 H1212 0.984 . S
N1209 H1213 0.985 . S
H1210 N1205 0.984 . S
H1211 N1205 0.985 . S
H1212 N1209 0.984 . S
H1213 N1209 0.985 . S
H1214 N1208 0.984 . S
H1215 N1208 0.984 . S
H1216 N1204 0.984 . S
H1217 N1204 0.985 . S
C1218 C1219 1.363 . S
C1218 C1224 1.379 . S
C1218 N1226 1.356 . S
C1219 C1218 1.363 . S
C1219 C1225 1.363 . S
C1220 C1221 1.363 . S
C1220 C1225 1.379 . S
C1220 N1227 1.356 . S
C1221 C1220 1.363 . S
C1221 C1224 1.363 . S
N1222 C1224 1.356 . S
N1222 H1234 0.984 . S
N1222 H1235 0.985 . S
N1223 C1225 1.356 . S
N1223 H1228 0.984 . S
N1223 H1229 0.985 . S
C1224 C1218 1.379 . S
C1224 C1221 1.363 . S
C1224 N1222 1.356 . S
C1225 C1219 1.363 . S
C1225 C1220 1.379 . S
C1225 N1223 1.356 . S
N1226 C1218 1.356 . S
N1226 H1232 0.984 . S
N1226 H1233 0.984 . S
N1227 C1220 1.356 . S
N1227 H1230 0.984 . S
N1227 H1231 0.985 . S
H1228 N1223 0.984 . S
H1229 N1223 0.985 . S
H1230 N1227 0.984 . S
H1231 N1227 0.985 . S
H1232 N1226 0.984 . S
H1233 N1226 0.984 . S
H1234 N1222 0.984 . S
H1235 N1222 0.985 . S
C1236 C1237 1.363 . S
C1236 C1242 1.379 . S
C1236 N1244 1.356 . S
C1237 C1236 1.363 . S
C1237 C1243 1.363 . S
C1238 C1239 1.363 . S
C1238 C1243 1.379 . S
C1238 N1245 1.356 . S
C1239 C1238 1.363 . S
C1239 C1242 1.363 . S
N1240 C1242 1.356 . S
N1240 H1252 0.984 . S
N1240 H1253 0.985 . S
N1241 C1243 1.356 . S
N1241 H1246 0.984 . S
N1241 H1247 0.985 . S
C1242 C1236 1.379 . S
C1242 C1239 1.363 . S
C1242 N1240 1.356 . S
C1243 C1237 1.363 . S
C1243 C1238 1.379 . S
C1243 N1241 1.356 . S
N1244 C1236 1.356 . S
N1244 H1250 0.984 . S
N1244 H1251 0.984 . S
N1245 C1238 1.356 . S
N1245 H1248 0.984 . S
N1245 H1249 0.985 . S
H1246 N1241 0.984 . S
H1247 N1241 0.985 . S
H1248 N1245 0.984 . S
H1249 N1245 0.985 . S
H1250 N1244 0.984 . S
H1251 N1244 0.984 . S
H1252 N1240 0.984 . S
H1253 N1240 0.985 . S
C1254 C1255 1.363 . S
C1254 C1260 1.379 . S
C1254 N1262 1.356 . S
C1255 C1254 1.363 . S
C1255 C1261 1.363 . S
C1256 C1257 1.363 . S
C1256 C1261 1.379 . S
C1256 N1263 1.356 . S
C1257 C1256 1.363 . S
C1257 C1260 1.363 . S
N1258 C1260 1.356 . S
N1258 H1270 0.984 . S
N1258 H1271 0.985 . S
N1259 C1261 1.356 . S
N1259 H1264 0.984 . S
N1259 H1265 0.985 . S
C1260 C1254 1.379 . S
C1260 C1257 1.363 . S
C1260 N1258 1.356 . S
C1261 C1255 1.363 . S
C1261 C1256 1.379 . S
C1261 N1259 1.356 . S
N1262 C1254 1.356 . S
N1262 H1268 0.984 . S
N1262 H1269 0.984 . S
N1263 C1256 1.356 . S
N1263 H1266 0.984 . S
N1263 H1267 0.985 . S
H1264 N1259 0.984 . S
H1265 N1259 0.985 . S
H1266 N1263 0.984 . S
H1267 N1263 0.985 . S
H1268 N1262 0.984 . S
H1269 N1262 0.984 . S
H1270 N1258 0.984 . S
H1271 N1258 0.985 . S
C1272 C1273 1.363 . S
C1272 C1278 1.379 1_556 S
C1272 N1280 1.356 . S
C1273 C1272 1.363 . S
C1273 C1279 1.363 . S
C1274 C1275 1.363 . S
C1274 C1279 1.379 1_554 S
C1274 N1281 1.356 . S
C1275 C1274 1.363 . S
C1275 C1278 1.363 . S
N1276 C1278 1.356 . S
N1276 H1288 0.984 1_554 S
N1276 H1289 0.985 . S
N1277 C1279 1.356 . S
N1277 H1282 0.984 . S
N1277 H1283 0.985 1_556 S
C1278 C1272 1.379 1_554 S
C1278 C1275 1.363 . S
C1278 N1276 1.356 . S
C1279 C1273 1.363 . S
C1279 C1274 1.379 1_556 S
C1279 N1277 1.356 . S
N1280 C1272 1.356 . S
N1280 H1286 0.984 . S
N1280 H1287 0.984 . S
N1281 C1274 1.356 . S
N1281 H1284 0.984 . S
N1281 H1285 0.985 . S
H1282 N1277 0.984 . S
H1283 N1277 0.985 1_554 S
H1284 N1281 0.984 . S
H1285 N1281 0.985 . S
H1286 N1280 0.984 . S
H1287 N1280 0.984 . S
H1288 N1276 0.984 1_556 S
H1289 N1276 0.985 . S
C1290 C1291 1.363 . S
C1290 C1296 1.376 1_655 S
C1290 N1298 1.356 . S
C1291 C1290 1.363 . S
C1291 C1297 1.366 . S
C1292 C1293 1.363 . S
C1292 C1297 1.376 1_455 S
C1292 N1299 1.356 . S
C1293 C1292 1.363 . S
C1293 C1296 1.366 . S
N1294 C1296 1.357 . S
N1294 H1306 0.984 1_455 S
N1294 H1307 0.985 . S
N1295 C1297 1.357 . S
N1295 H1300 0.984 . S
N1295 H1301 0.985 1_655 S
C1296 C1290 1.376 1_455 S
C1296 C1293 1.366 . S
C1296 N1294 1.357 . S
C1297 C1291 1.366 . S
C1297 C1292 1.376 1_655 S
C1297 N1295 1.357 . S
N1298 C1290 1.356 . S
N1298 H1304 0.984 . S
N1298 H1305 0.984 . S
N1299 C1292 1.356 . S
N1299 H1302 0.984 . S
N1299 H1303 0.985 . S
H1300 N1295 0.984 . S
H1301 N1295 0.985 1_455 S
H1302 N1299 0.984 . S
H1303 N1299 0.985 . S
H1304 N1298 0.984 . S
H1305 N1298 0.984 . S
H1306 N1294 0.984 1_655 S
H1307 N1294 0.985 . S
C1308 C1309 1.363 . S
C1308 C1314 1.379 1_554 S
C1308 N1316 1.356 . S
C1309 C1308 1.363 . S
C1309 C1315 1.363 1_455 S
C1310 C1311 1.363 . S
C1310 C1315 1.379 1_556 S
C1310 N1317 1.356 . S
C1311 C1310 1.363 . S
C1311 C1314 1.363 1_655 S
N1312 C1314 1.359 . S
N1312 H1324 1.001 . S
N1312 H1325 0.966 1_455 S
N1313 C1315 1.359 . S
N1313 H1318 0.966 1_655 S
N1313 H1319 1.001 . S
C1314 C1308 1.379 1_556 S
C1314 C1311 1.363 1_455 S
C1314 N1312 1.359 . S
C1315 C1309 1.363 1_655 S
C1315 C1310 1.379 1_554 S
C1315 N1313 1.359 . S
N1316 C1308 1.356 . S
N1316 H1322 0.984 . S
N1316 H1323 0.984 . S
N1317 C1310 1.356 . S
N1317 H1320 0.984 . S
N1317 H1321 0.985 . S
H1318 N1313 0.966 1_455 S
H1319 N1313 1.001 . S
H1320 N1317 0.984 . S
H1321 N1317 0.985 . S
H1322 N1316 0.984 . S
H1323 N1316 0.984 . S
H1324 N1312 1.001 . S
H1325 N1312 0.966 1_655 S
C1326 C1327 1.363 . S
C1326 C1332 1.379 . S
C1326 N1334 1.356 . S
C1327 C1326 1.363 . S
C1327 C1333 1.363 . S
C1328 C1329 1.363 . S
C1328 C1333 1.379 . S
C1328 N1335 1.356 . S
C1329 C1328 1.363 . S
C1329 C1332 1.363 . S
N1330 C1332 1.356 . S
N1330 H1342 0.984 . S
N1330 H1343 0.985 . S
N1331 C1333 1.356 . S
N1331 H1336 0.984 . S
N1331 H1337 0.985 . S
C1332 C1326 1.379 . S
C1332 C1329 1.363 . S
C1332 N1330 1.356 . S
C1333 C1327 1.363 . S
C1333 C1328 1.379 . S
C1333 N1331 1.356 . S
N1334 C1326 1.356 . S
N1334 H1340 0.984 . S
N1334 H1341 0.984 . S
N1335 C1328 1.356 . S
N1335 H1338 0.984 . S
N1335 H1339 0.985 . S
H1336 N1331 0.984 . S
H1337 N1331 0.985 . S
H1338 N1335 0.984 . S
H1339 N1335 0.985 . S
H1340 N1334 0.984 . S
H1341 N1334 0.984 . S
H1342 N1330 0.984 . S
H1343 N1330 0.985 . S
C1344 C1345 1.363 . S
C1344 C1350 1.379 . S
C1344 N1352 1.356 . S
C1345 C1344 1.363 . S
C1345 C1351 1.363 . S
C1346 C1347 1.363 . S
C1346 C1351 1.379 . S
C1346 N1353 1.356 . S
C1347 C1346 1.363 . S
C1347 C1350 1.363 . S
N1348 C1350 1.356 . S
N1348 H1360 0.984 . S
N1348 H1361 0.985 . S
N1349 C1351 1.356 . S
N1349 H1354 0.984 . S
N1349 H1355 0.985 . S
C1350 C1344 1.379 . S
C1350 C1347 1.363 . S
C1350 N1348 1.356 . S
C1351 C1345 1.363 . S
C1351 C1346 1.379 . S
C1351 N1349 1.356 . S
N1352 C1344 1.356 . S
N1352 H1358 0.984 . S
N1352 H1359 0.984 . S
N1353 C1346 1.356 . S
N1353 H1356 0.984 . S
N1353 H1357 0.985 . S
H1354 N1349 0.984 . S
H1355 N1349 0.985 . S
H1356 N1353 0.984 . S
H1357 N1353 0.985 . S
H1358 N1352 0.984 . S
H1359 N1352 0.984 . S
H1360 N1348 0.984 . S
H1361 N1348 0.985 . S
C1362 C1363 1.363 . S
C1362 C1368 1.379 . S
C1362 N1370 1.356 . S
C1363 C1362 1.363 . S
C1363 C1369 1.363 . S
C1364 C1365 1.363 . S
C1364 C1369 1.379 . S
C1364 N1371 1.356 . S
C1365 C1364 1.363 . S
C1365 C1368 1.363 . S
N1366 C1368 1.356 . S
N1366 H1378 0.984 . S
N1366 H1379 0.985 . S
N1367 C1369 1.356 . S
N1367 H1372 0.984 . S
N1367 H1373 0.985 . S
C1368 C1362 1.379 . S
C1368 C1365 1.363 . S
C1368 N1366 1.356 . S
C1369 C1363 1.363 . S
C1369 C1364 1.379 . S
C1369 N1367 1.356 . S
N1370 C1362 1.356 . S
N1370 H1376 0.984 . S
N1370 H1377 0.984 . S
N1371 C1364 1.356 . S
N1371 H1374 0.984 . S
N1371 H1375 0.985 . S
H1372 N1367 0.984 . S
H1373 N1367 0.985 . S
H1374 N1371 0.984 . S
H1375 N1371 0.985 . S
H1376 N1370 0.984 . S
H1377 N1370 0.984 . S
H1378 N1366 0.984 . S
H1379 N1366 0.985 . S
C1380 C1381 1.363 . S
C1380 C1386 1.379 . S
C1380 N1388 1.356 . S
C1381 C1380 1.363 . S
C1381 C1387 1.363 . S
C1382 C1383 1.363 . S
C1382 C1387 1.379 . S
C1382 N1389 1.356 . S
C1383 C1382 1.363 . S
C1383 C1386 1.363 . S
N1384 C1386 1.356 . S
N1384 H1396 0.984 . S
N1384 H1397 0.985 . S
N1385 C1387 1.356 . S
N1385 H1390 0.984 . S
N1385 H1391 0.985 . S
C1386 C1380 1.379 . S
C1386 C1383 1.363 . S
C1386 N1384 1.356 . S
C1387 C1381 1.363 . S
C1387 C1382 1.379 . S
C1387 N1385 1.356 . S
N1388 C1380 1.356 . S
N1388 H1394 0.984 . S
N1388 H1395 0.984 . S
N1389 C1382 1.356 . S
N1389 H1392 0.984 . S
N1389 H1393 0.985 . S
H1390 N1385 0.984 . S
H1391 N1385 0.985 . S
H1392 N1389 0.984 . S
H1393 N1389 0.985 . S
H1394 N1388 0.984 . S
H1395 N1388 0.984 . S
H1396 N1384 0.984 . S
H1397 N1384 0.985 . S
C1398 C1399 1.363 . S
C1398 C1404 1.379 . S
C1398 N1406 1.356 . S
C1399 C1398 1.363 . S
C1399 C1405 1.363 . S
C1400 C1401 1.363 . S
C1400 C1405 1.379 . S
C1400 N1407 1.356 . S
C1401 C1400 1.363 . S
C1401 C1404 1.363 . S
N1402 C1404 1.356 . S
N1402 H1414 0.984 . S
N1402 H1415 0.985 . S
N1403 C1405 1.356 . S
N1403 H1408 0.984 . S
N1403 H1409 0.985 . S
C1404 C1398 1.379 . S
C1404 C1401 1.363 . S
C1404 N1402 1.356 . S
C1405 C1399 1.363 . S
C1405 C1400 1.379 . S
C1405 N1403 1.356 . S
N1406 C1398 1.356 . S
N1406 H1412 0.984 . S
N1406 H1413 0.984 . S
N1407 C1400 1.356 . S
N1407 H1410 0.984 . S
N1407 H1411 0.985 . S
H1408 N1403 0.984 . S
H1409 N1403 0.985 . S
H1410 N1407 0.984 . S
H1411 N1407 0.985 . S
H1412 N1406 0.984 . S
H1413 N1406 0.984 . S
H1414 N1402 0.984 . S
H1415 N1402 0.985 . S
C1416 C1417 1.363 . S
C1416 C1422 1.379 . S
C1416 N1424 1.356 . S
C1417 C1416 1.363 . S
C1417 C1423 1.363 . S
C1418 C1419 1.363 . S
C1418 C1423 1.379 . S
C1418 N1425 1.356 . S
C1419 C1418 1.363 . S
C1419 C1422 1.363 . S
N1420 C1422 1.356 . S
N1420 H1432 0.984 . S
N1420 H1433 0.985 . S
N1421 C1423 1.356 . S
N1421 H1426 0.984 . S
N1421 H1427 0.985 . S
C1422 C1416 1.379 . S
C1422 C1419 1.363 . S
C1422 N1420 1.356 . S
C1423 C1417 1.363 . S
C1423 C1418 1.379 . S
C1423 N1421 1.356 . S
N1424 C1416 1.356 . S
N1424 H1430 0.984 . S
N1424 H1431 0.984 . S
N1425 C1418 1.356 . S
N1425 H1428 0.984 . S
N1425 H1429 0.985 . S
H1426 N1421 0.984 . S
H1427 N1421 0.985 . S
H1428 N1425 0.984 . S
H1429 N1425 0.985 . S
H1430 N1424 0.984 . S
H1431 N1424 0.984 . S
H1432 N1420 0.984 . S
H1433 N1420 0.985 . S
C1434 C1435 1.363 . S
C1434 C1440 1.379 . S
C1434 N1442 1.356 . S
C1435 C1434 1.363 . S
C1435 C1441 1.363 . S
C1436 C1437 1.363 . S
C1436 C1441 1.379 . S
C1436 N1443 1.356 . S
C1437 C1436 1.363 . S
C1437 C1440 1.363 . S
N1438 C1440 1.356 . S
N1438 H1450 0.984 . S
N1438 H1451 0.985 . S
N1439 C1441 1.356 . S
N1439 H1444 0.984 . S
N1439 H1445 0.985 . S
C1440 C1434 1.379 . S
C1440 C1437 1.363 . S
C1440 N1438 1.356 . S
C1441 C1435 1.363 . S
C1441 C1436 1.379 . S
C1441 N1439 1.356 . S
N1442 C1434 1.356 . S
N1442 H1448 0.984 . S
N1442 H1449 0.984 . S
N1443 C1436 1.356 . S
N1443 H1446 0.984 . S
N1443 H1447 0.985 . S
H1444 N1439 0.984 . S
H1445 N1439 0.985 . S
H1446 N1443 0.984 . S
H1447 N1443 0.985 . S
H1448 N1442 0.984 . S
H1449 N1442 0.984 . S
H1450 N1438 0.984 . S
H1451 N1438 0.985 . S
C1452 C1453 1.363 . S
C1452 C1458 1.379 . S
C1452 N1460 1.356 . S
C1453 C1452 1.363 . S
C1453 C1459 1.363 . S
C1454 C1455 1.363 . S
C1454 C1459 1.379 . S
C1454 N1461 1.356 . S
C1455 C1454 1.363 . S
C1455 C1458 1.363 . S
N1456 C1458 1.356 . S
N1456 H1468 0.984 . S
N1456 H1469 0.985 . S
N1457 C1459 1.356 . S
N1457 H1462 0.984 . S
N1457 H1463 0.985 . S
C1458 C1452 1.379 . S
C1458 C1455 1.363 . S
C1458 N1456 1.356 . S
C1459 C1453 1.363 . S
C1459 C1454 1.379 . S
C1459 N1457 1.356 . S
N1460 C1452 1.356 . S
N1460 H1466 0.984 . S
N1460 H1467 0.984 . S
N1461 C1454 1.356 . S
N1461 H1464 0.984 . S
N1461 H1465 0.985 . S
H1462 N1457 0.984 . S
H1463 N1457 0.985 . S
H1464 N1461 0.984 . S
H1465 N1461 0.985 . S
H1466 N1460 0.984 . S
H1467 N1460 0.984 . S
H1468 N1456 0.984 . S
H1469 N1456 0.985 . S
C1470 C1471 1.363 . S
C1470 C1476 1.379 . S
C1470 N1478 1.356 . S
C1471 C1470 1.363 . S
C1471 C1477 1.363 . S
C1472 C1473 1.363 . S
C1472 C1477 1.379 . S
C1472 N1479 1.356 . S
C1473 C1472 1.363 . S
C1473 C1476 1.363 . S
N1474 C1476 1.356 . S
N1474 H1486 0.984 . S
N1474 H1487 0.985 . S
N1475 C1477 1.356 . S
N1475 H1480 0.984 . S
N1475 H1481 0.985 . S
C1476 C1470 1.379 . S
C1476 C1473 1.363 . S
C1476 N1474 1.356 . S
C1477 C1471 1.363 . S
C1477 C1472 1.379 . S
C1477 N1475 1.356 . S
N1478 C1470 1.356 . S
N1478 H1484 0.984 . S
N1478 H1485 0.984 . S
N1479 C1472 1.356 . S
N1479 H1482 0.984 . S
N1479 H1483 0.985 . S
H1480 N1475 0.984 . S
H1481 N1475 0.985 . S
H1482 N1479 0.984 . S
H1483 N1479 0.985 . S
H1484 N1478 0.984 . S
H1485 N1478 0.984 . S
H1486 N1474 0.984 . S
H1487 N1474 0.985 . S
C1488 C1489 1.363 . S
C1488 C1494 1.379 . S
C1488 N1496 1.356 . S
C1489 C1488 1.363 . S
C1489 C1495 1.363 . S
C1490 C1491 1.363 . S
C1490 C1495 1.379 . S
C1490 N1497 1.356 . S
C1491 C1490 1.363 . S
C1491 C1494 1.363 . S
N1492 C1494 1.356 . S
N1492 H1504 0.984 . S
N1492 H1505 0.985 . S
N1493 C1495 1.356 . S
N1493 H1498 0.984 . S
N1493 H1499 0.985 . S
C1494 C1488 1.379 . S
C1494 C1491 1.363 . S
C1494 N1492 1.356 . S
C1495 C1489 1.363 . S
C1495 C1490 1.379 . S
C1495 N1493 1.356 . S
N1496 C1488 1.356 . S
N1496 H1502 0.984 . S
N1496 H1503 0.984 . S
N1497 C1490 1.356 . S
N1497 H1500 0.984 . S
N1497 H1501 0.985 . S
H1498 N1493 0.984 . S
H1499 N1493 0.985 . S
H1500 N1497 0.984 . S
H1501 N1497 0.985 . S
H1502 N1496 0.984 . S
H1503 N1496 0.984 . S
H1504 N1492 0.984 . S
H1505 N1492 0.985 . S
C1506 C1507 1.363 . S
C1506 C1512 1.379 . S
C1506 N1514 1.356 . S
C1507 C1506 1.363 . S
C1507 C1513 1.363 . S
C1508 C1509 1.363 . S
C1508 C1513 1.379 . S
C1508 N1515 1.356 . S
C1509 C1508 1.363 . S
C1509 C1512 1.363 . S
N1510 C1512 1.356 . S
N1510 H1522 0.984 . S
N1510 H1523 0.985 . S
N1511 C1513 1.356 . S
N1511 H1516 0.984 . S
N1511 H1517 0.985 . S
C1512 C1506 1.379 . S
C1512 C1509 1.363 . S
C1512 N1510 1.356 . S
C1513 C1507 1.363 . S
C1513 C1508 1.379 . S
C1513 N1511 1.356 . S
N1514 C1506 1.356 . S
N1514 H1520 0.984 . S
N1514 H1521 0.984 . S
N1515 C1508 1.356 . S
N1515 H1518 0.984 . S
N1515 H1519 0.985 . S
H1516 N1511 0.984 . S
H1517 N1511 0.985 . S
H1518 N1515 0.984 . S
H1519 N1515 0.985 . S
H1520 N1514 0.984 . S
H1521 N1514 0.984 . S
H1522 N1510 0.984 . S
H1523 N1510 0.985 . S
C1524 C1525 1.363 . S
C1524 C1530 1.379 . S
C1524 N1532 1.356 . S
C1525 C1524 1.363 . S
C1525 C1531 1.363 . S
C1526 C1527 1.363 . S
C1526 C1531 1.379 . S
C1526 N1533 1.356 . S
C1527 C1526 1.363 . S
C1527 C1530 1.363 . S
N1528 C1530 1.356 . S
N1528 H1540 0.984 . S
N1528 H1541 0.985 . S
N1529 C1531 1.356 . S
N1529 H1534 0.984 . S
N1529 H1535 0.985 . S
C1530 C1524 1.379 . S
C1530 C1527 1.363 . S
C1530 N1528 1.356 . S
C1531 C1525 1.363 . S
C1531 C1526 1.379 . S
C1531 N1529 1.356 . S
N1532 C1524 1.356 . S
N1532 H1538 0.984 . S
N1532 H1539 0.984 . S
N1533 C1526 1.356 . S
N1533 H1536 0.984 . S
N1533 H1537 0.985 . S
H1534 N1529 0.984 . S
H1535 N1529 0.985 . S
H1536 N1533 0.984 . S
H1537 N1533 0.985 . S
H1538 N1532 0.984 . S
H1539 N1532 0.984 . S
H1540 N1528 0.984 . S
H1541 N1528 0.985 . S
C1542 C1543 1.363 . S
C1542 C1548 1.379 . S
C1542 N1550 1.356 . S
C1543 C1542 1.363 . S
C1543 C1549 1.363 . S
C1544 C1545 1.363 . S
C1544 C1549 1.379 . S
C1544 N1551 1.356 . S
C1545 C1544 1.363 . S
C1545 C1548 1.363 . S
N1546 C1548 1.356 . S
N1546 H1558 0.984 . S
N1546 H1559 0.985 . S
N1547 C1549 1.356 . S
N1547 H1552 0.984 . S
N1547 H1553 0.985 . S
C1548 C1542 1.379 . S
C1548 C1545 1.363 . S
C1548 N1546 1.356 . S
C1549 C1543 1.363 . S
C1549 C1544 1.379 . S
C1549 N1547 1.356 . S
N1550 C1542 1.356 . S
N1550 H1556 0.984 . S
N1550 H1557 0.984 . S
N1551 C1544 1.356 . S
N1551 H1554 0.984 . S
N1551 H1555 0.985 . S
H1552 N1547 0.984 . S
H1553 N1547 0.985 . S
H1554 N1551 0.984 . S
H1555 N1551 0.985 . S
H1556 N1550 0.984 . S
H1557 N1550 0.984 . S
H1558 N1546 0.984 . S
H1559 N1546 0.985 . S
C1560 C1561 1.363 . S
C1560 C1566 1.379 . S
C1560 N1568 1.356 . S
C1561 C1560 1.363 . S
C1561 C1567 1.363 . S
C1562 C1563 1.363 . S
C1562 C1567 1.379 . S
C1562 N1569 1.356 . S
C1563 C1562 1.363 . S
C1563 C1566 1.363 . S
N1564 C1566 1.356 . S
N1564 H1576 0.984 . S
N1564 H1577 0.985 . S
N1565 C1567 1.356 . S
N1565 H1570 0.984 . S
N1565 H1571 0.985 . S
C1566 C1560 1.379 . S
C1566 C1563 1.363 . S
C1566 N1564 1.356 . S
C1567 C1561 1.363 . S
C1567 C1562 1.379 . S
C1567 N1565 1.356 . S
N1568 C1560 1.356 . S
N1568 H1574 0.984 . S
N1568 H1575 0.984 . S
N1569 C1562 1.356 . S
N1569 H1572 0.984 . S
N1569 H1573 0.985 . S
H1570 N1565 0.984 . S
H1571 N1565 0.985 . S
H1572 N1569 0.984 . S
H1573 N1569 0.985 . S
H1574 N1568 0.984 . S
H1575 N1568 0.984 . S
H1576 N1564 0.984 . S
H1577 N1564 0.985 . S
C1578 C1579 1.363 . S
C1578 C1584 1.379 . S
C1578 N1586 1.356 . S
C1579 C1578 1.363 . S
C1579 C1585 1.363 . S
C1580 C1581 1.363 . S
C1580 C1585 1.379 . S
C1580 N1587 1.356 . S
C1581 C1580 1.363 . S
C1581 C1584 1.363 . S
N1582 C1584 1.356 . S
N1582 H1594 0.984 . S
N1582 H1595 0.985 . S
N1583 C1585 1.356 . S
N1583 H1588 0.984 . S
N1583 H1589 0.985 . S
C1584 C1578 1.379 . S
C1584 C1581 1.363 . S
C1584 N1582 1.356 . S
C1585 C1579 1.363 . S
C1585 C1580 1.379 . S
C1585 N1583 1.356 . S
N1586 C1578 1.356 . S
N1586 H1592 0.984 . S
N1586 H1593 0.984 . S
N1587 C1580 1.356 . S
N1587 H1590 0.984 . S
N1587 H1591 0.985 . S
H1588 N1583 0.984 . S
H1589 N1583 0.985 . S
H1590 N1587 0.984 . S
H1591 N1587 0.985 . S
H1592 N1586 0.984 . S
H1593 N1586 0.984 . S
H1594 N1582 0.984 . S
H1595 N1582 0.985 . S
C1596 C1597 1.363 . S
C1596 C1602 1.379 . S
C1596 N1604 1.356 . S
C1597 C1596 1.363 . S
C1597 C1603 1.363 . S
C1598 C1599 1.363 . S
C1598 C1603 1.379 . S
C1598 N1605 1.356 . S
C1599 C1598 1.363 . S
C1599 C1602 1.363 . S
N1600 C1602 1.356 . S
N1600 H1612 0.984 . S
N1600 H1613 0.985 . S
N1601 C1603 1.356 . S
N1601 H1606 0.984 . S
N1601 H1607 0.985 . S
C1602 C1596 1.379 . S
C1602 C1599 1.363 . S
C1602 N1600 1.356 . S
C1603 C1597 1.363 . S
C1603 C1598 1.379 . S
C1603 N1601 1.356 . S
N1604 C1596 1.356 . S
N1604 H1610 0.984 . S
N1604 H1611 0.984 . S
N1605 C1598 1.356 . S
N1605 H1608 0.984 . S
N1605 H1609 0.985 . S
H1606 N1601 0.984 . S
H1607 N1601 0.985 . S
H1608 N1605 0.984 . S
H1609 N1605 0.985 . S
H1610 N1604 0.984 . S
H1611 N1604 0.984 . S
H1612 N1600 0.984 . S
H1613 N1600 0.985 . S
C1614 C1615 1.363 . S
C1614 C1620 1.379 . S
C1614 N1622 1.356 . S
C1615 C1614 1.363 . S
C1615 C1621 1.363 . S
C1616 C1617 1.363 . S
C1616 C1621 1.379 . S
C1616 N1623 1.356 . S
C1617 C1616 1.363 . S
C1617 C1620 1.363 . S
N1618 C1620 1.356 . S
N1618 H1630 0.984 . S
N1618 H1631 0.985 . S
N1619 C1621 1.356 . S
N1619 H1624 0.984 . S
N1619 H1625 0.985 . S
C1620 C1614 1.379 . S
C1620 C1617 1.363 . S
C1620 N1618 1.356 . S
C1621 C1615 1.363 . S
C1621 C1616 1.379 . S
C1621 N1619 1.356 . S
N1622 C1614 1.356 . S
N1622 H1628 0.984 . S
N1622 H1629 0.984 . S
N1623 C1616 1.356 . S
N1623 H1626 0.984 . S
N1623 H1627 0.985 . S
H1624 N1619 0.984 . S
H1625 N1619 0.985 . S
H1626 N1623 0.984 . S
H1627 N1623 0.985 . S
H1628 N1622 0.984 . S
H1629 N1622 0.984 . S
H1630 N1618 0.984 . S
H1631 N1618 0.985 . S
C1632 C1633 1.363 . S
C1632 C1638 1.379 . S
C1632 N1640 1.356 . S
C1633 C1632 1.363 . S
C1633 C1639 1.363 . S
C1634 C1635 1.363 . S
C1634 C1639 1.379 . S
C1634 N1641 1.356 . S
C1635 C1634 1.363 . S
C1635 C1638 1.363 . S
N1636 C1638 1.356 . S
N1636 H1648 0.984 . S
N1636 H1649 0.985 . S
N1637 C1639 1.356 . S
N1637 H1642 0.984 . S
N1637 H1643 0.985 . S
C1638 C1632 1.379 . S
C1638 C1635 1.363 . S
C1638 N1636 1.356 . S
C1639 C1633 1.363 . S
C1639 C1634 1.379 . S
C1639 N1637 1.356 . S
N1640 C1632 1.356 . S
N1640 H1646 0.984 . S
N1640 H1647 0.984 . S
N1641 C1634 1.356 . S
N1641 H1644 0.984 . S
N1641 H1645 0.985 . S
H1642 N1637 0.984 . S
H1643 N1637 0.985 . S
H1644 N1641 0.984 . S
H1645 N1641 0.985 . S
H1646 N1640 0.984 . S
H1647 N1640 0.984 . S
H1648 N1636 0.984 . S
H1649 N1636 0.985 . S
C1650 C1651 1.363 . S
C1650 C1656 1.379 . S
C1650 N1658 1.356 . S
C1651 C1650 1.363 . S
C1651 C1657 1.363 . S
C1652 C1653 1.363 . S
C1652 C1657 1.379 . S
C1652 N1659 1.356 . S
C1653 C1652 1.363 . S
C1653 C1656 1.363 . S
N1654 C1656 1.356 . S
N1654 H1666 0.984 . S
N1654 H1667 0.985 . S
N1655 C1657 1.356 . S
N1655 H1660 0.984 . S
N1655 H1661 0.985 . S
C1656 C1650 1.379 . S
C1656 C1653 1.363 . S
C1656 N1654 1.356 . S
C1657 C1651 1.363 . S
C1657 C1652 1.379 . S
C1657 N1655 1.356 . S
N1658 C1650 1.356 . S
N1658 H1664 0.984 . S
N1658 H1665 0.984 . S
N1659 C1652 1.356 . S
N1659 H1662 0.984 . S
N1659 H1663 0.985 . S
H1660 N1655 0.984 . S
H1661 N1655 0.985 . S
H1662 N1659 0.984 . S
H1663 N1659 0.985 . S
H1664 N1658 0.984 . S
H1665 N1658 0.984 . S
H1666 N1654 0.984 . S
H1667 N1654 0.985 . S
C1668 C1669 1.363 . S
C1668 C1674 1.379 . S
C1668 N1676 1.356 . S
C1669 C1668 1.363 . S
C1669 C1675 1.363 . S
C1670 C1671 1.363 . S
C1670 C1675 1.379 . S
C1670 N1677 1.356 . S
C1671 C1670 1.363 . S
C1671 C1674 1.363 . S
N1672 C1674 1.356 . S
N1672 H1684 0.984 . S
N1672 H1685 0.985 . S
N1673 C1675 1.356 . S
N1673 H1678 0.984 . S
N1673 H1679 0.985 . S
C1674 C1668 1.379 . S
C1674 C1671 1.363 . S
C1674 N1672 1.356 . S
C1675 C1669 1.363 . S
C1675 C1670 1.379 . S
C1675 N1673 1.356 . S
N1676 C1668 1.356 . S
N1676 H1682 0.984 . S
N1676 H1683 0.984 . S
N1677 C1670 1.356 . S
N1677 H1680 0.984 . S
N1677 H1681 0.985 . S
H1678 N1673 0.984 . S
H1679 N1673 0.985 . S
H1680 N1677 0.984 . S
H1681 N1677 0.985 . S
H1682 N1676 0.984 . S
H1683 N1676 0.984 . S
H1684 N1672 0.984 . S
H1685 N1672 0.985 . S
C1686 C1687 1.363 . S
C1686 C1692 1.379 . S
C1686 N1694 1.356 . S
C1687 C1686 1.363 . S
C1687 C1693 1.363 . S
C1688 C1689 1.363 . S
C1688 C1693 1.379 . S
C1688 N1695 1.356 . S
C1689 C1688 1.363 . S
C1689 C1692 1.363 . S
N1690 C1692 1.356 . S
N1690 H1702 0.984 . S
N1690 H1703 0.985 . S
N1691 C1693 1.356 . S
N1691 H1696 0.984 . S
N1691 H1697 0.985 . S
C1692 C1686 1.379 . S
C1692 C1689 1.363 . S
C1692 N1690 1.356 . S
C1693 C1687 1.363 . S
C1693 C1688 1.379 . S
C1693 N1691 1.356 . S
N1694 C1686 1.356 . S
N1694 H1700 0.984 . S
N1694 H1701 0.984 . S
N1695 C1688 1.356 . S
N1695 H1698 0.984 . S
N1695 H1699 0.985 . S
H1696 N1691 0.984 . S
H1697 N1691 0.985 . S
H1698 N1695 0.984 . S
H1699 N1695 0.985 . S
H1700 N1694 0.984 . S
H1701 N1694 0.984 . S
H1702 N1690 0.984 . S
H1703 N1690 0.985 . S
C1704 C1705 1.363 . S
C1704 C1710 1.379 . S
C1704 N1712 1.356 . S
C1705 C1704 1.363 . S
C1705 C1711 1.363 . S
C1706 C1707 1.363 . S
C1706 C1711 1.379 . S
C1706 N1713 1.356 . S
C1707 C1706 1.363 . S
C1707 C1710 1.363 . S
N1708 C1710 1.356 . S
N1708 H1720 0.984 . S
N1708 H1721 0.985 . S
N1709 C1711 1.356 . S
N1709 H1714 0.984 . S
N1709 H1715 0.985 . S
C1710 C1704 1.379 . S
C1710 C1707 1.363 . S
C1710 N1708 1.356 . S
C1711 C1705 1.363 . S
C1711 C1706 1.379 . S
C1711 N1709 1.356 . S
N1712 C1704 1.356 . S
N1712 H1718 0.984 . S
N1712 H1719 0.984 . S
N1713 C1706 1.356 . S
N1713 H1716 0.984 . S
N1713 H1717 0.985 . S
H1714 N1709 0.984 . S
H1715 N1709 0.985 . S
H1716 N1713 0.984 . S
H1717 N1713 0.985 . S
H1718 N1712 0.984 . S
H1719 N1712 0.984 . S
H1720 N1708 0.984 . S
H1721 N1708 0.985 . S
C1722 C1723 1.363 . S
C1722 C1728 1.379 . S
C1722 N1730 1.356 . S
C1723 C1722 1.363 . S
C1723 C1729 1.363 . S
C1724 C1725 1.363 . S
C1724 C1729 1.379 . S
C1724 N1731 1.356 . S
C1725 C1724 1.363 . S
C1725 C1728 1.363 . S
N1726 C1728 1.356 . S
N1726 H1738 0.984 . S
N1726 H1739 0.985 . S
N1727 C1729 1.356 . S
N1727 H1732 0.984 . S
N1727 H1733 0.985 . S
C1728 C1722 1.379 . S
C1728 C1725 1.363 . S
C1728 N1726 1.356 . S
C1729 C1723 1.363 . S
C1729 C1724 1.379 . S
C1729 N1727 1.356 . S
N1730 C1722 1.356 . S
N1730 H1736 0.984 . S
N1730 H1737 0.984 . S
N1731 C1724 1.356 . S
N1731 H1734 0.984 . S
N1731 H1735 0.985 . S
H1732 N1727 0.984 . S
H1733 N1727 0.985 . S
H1734 N1731 0.984 . S
H1735 N1731 0.985 . S
H1736 N1730 0.984 . S
H1737 N1730 0.984 . S
H1738 N1726 0.984 . S
H1739 N1726 0.985 . S
C1740 C1741 1.363 . S
C1740 C1746 1.379 . S
C1740 N1748 1.356 . S
C1741 C1740 1.363 . S
C1741 C1747 1.363 . S
C1742 C1743 1.363 . S
C1742 C1747 1.379 . S
C1742 N1749 1.356 . S
C1743 C1742 1.363 . S
C1743 C1746 1.363 . S
N1744 C1746 1.356 . S
N1744 H1756 0.984 . S
N1744 H1757 0.985 . S
N1745 C1747 1.356 . S
N1745 H1750 0.984 . S
N1745 H1751 0.985 . S
C1746 C1740 1.379 . S
C1746 C1743 1.363 . S
C1746 N1744 1.356 . S
C1747 C1741 1.363 . S
C1747 C1742 1.379 . S
C1747 N1745 1.356 . S
N1748 C1740 1.356 . S
N1748 H1754 0.984 . S
N1748 H1755 0.984 . S
N1749 C1742 1.356 . S
N1749 H1752 0.984 . S
N1749 H1753 0.985 . S
H1750 N1745 0.984 . S
H1751 N1745 0.985 . S
H1752 N1749 0.984 . S
H1753 N1749 0.985 . S
H1754 N1748 0.984 . S
H1755 N1748 0.984 . S
H1756 N1744 0.984 . S
H1757 N1744 0.985 . S
C1758 C1759 1.363 . S
C1758 C1764 1.379 . S
C1758 N1766 1.356 . S
C1759 C1758 1.363 . S
C1759 C1765 1.363 . S
C1760 C1761 1.363 . S
C1760 C1765 1.379 . S
C1760 N1767 1.356 . S
C1761 C1760 1.363 . S
C1761 C1764 1.363 . S
N1762 C1764 1.356 . S
N1762 H1774 0.984 . S
N1762 H1775 0.985 . S
N1763 C1765 1.356 . S
N1763 H1768 0.984 . S
N1763 H1769 0.985 . S
C1764 C1758 1.379 . S
C1764 C1761 1.363 . S
C1764 N1762 1.356 . S
C1765 C1759 1.363 . S
C1765 C1760 1.379 . S
C1765 N1763 1.356 . S
N1766 C1758 1.356 . S
N1766 H1772 0.984 . S
N1766 H1773 0.984 . S
N1767 C1760 1.356 . S
N1767 H1770 0.984 . S
N1767 H1771 0.985 . S
H1768 N1763 0.984 . S
H1769 N1763 0.985 . S
H1770 N1767 0.984 . S
H1771 N1767 0.985 . S
H1772 N1766 0.984 . S
H1773 N1766 0.984 . S
H1774 N1762 0.984 . S
H1775 N1762 0.985 . S
C1776 C1777 1.363 . S
C1776 C1782 1.379 . S
C1776 N1784 1.356 . S
C1777 C1776 1.363 . S
C1777 C1783 1.363 . S
C1778 C1779 1.363 . S
C1778 C1783 1.379 . S
C1778 N1785 1.356 . S
C1779 C1778 1.363 . S
C1779 C1782 1.363 . S
N1780 C1782 1.356 . S
N1780 H1792 0.984 . S
N1780 H1793 0.985 . S
N1781 C1783 1.356 . S
N1781 H1786 0.984 . S
N1781 H1787 0.985 . S
C1782 C1776 1.379 . S
C1782 C1779 1.363 . S
C1782 N1780 1.356 . S
C1783 C1777 1.363 . S
C1783 C1778 1.379 . S
C1783 N1781 1.356 . S
N1784 C1776 1.356 . S
N1784 H1790 0.984 . S
N1784 H1791 0.984 . S
N1785 C1778 1.356 . S
N1785 H1788 0.984 . S
N1785 H1789 0.985 . S
H1786 N1781 0.984 . S
H1787 N1781 0.985 . S
H1788 N1785 0.984 . S
H1789 N1785 0.985 . S
H1790 N1784 0.984 . S
H1791 N1784 0.984 . S
H1792 N1780 0.984 . S
H1793 N1780 0.985 . S
C1794 C1795 1.363 . S
C1794 C1800 1.379 . S
C1794 N1802 1.356 . S
C1795 C1794 1.363 . S
C1795 C1801 1.363 . S
C1796 C1797 1.363 . S
C1796 C1801 1.379 . S
C1796 N1803 1.356 . S
C1797 C1796 1.363 . S
C1797 C1800 1.363 . S
N1798 C1800 1.356 . S
N1798 H1810 0.984 . S
N1798 H1811 0.985 . S
N1799 C1801 1.356 . S
N1799 H1804 0.984 . S
N1799 H1805 0.985 . S
C1800 C1794 1.379 . S
C1800 C1797 1.363 . S
C1800 N1798 1.356 . S
C1801 C1795 1.363 . S
C1801 C1796 1.379 . S
C1801 N1799 1.356 . S
N1802 C1794 1.356 . S
N1802 H1808 0.984 . S
N1802 H1809 0.984 . S
N1803 C1796 1.356 . S
N1803 H1806 0.984 . S
N1803 H1807 0.985 . S
H1804 N1799 0.984 . S
H1805 N1799 0.985 . S
H1806 N1803 0.984 . S
H1807 N1803 0.985 . S
H1808 N1802 0.984 . S
H1809 N1802 0.984 . S
H1810 N1798 0.984 . S
H1811 N1798 0.985 . S
C1812 C1813 1.363 . S
C1812 C1818 1.379 . S
C1812 N1820 1.356 . S
C1813 C1812 1.363 . S
C1813 C1819 1.363 . S
C1814 C1815 1.363 . S
C1814 C1819 1.379 . S
C1814 N1821 1.356 . S
C1815 C1814 1.363 . S
C1815 C1818 1.363 . S
N1816 C1818 1.356 . S
N1816 H1828 0.984 . S
N1816 H1829 0.985 . S
N1817 C1819 1.356 . S
N1817 H1822 0.984 . S
N1817 H1823 0.985 . S
C1818 C1812 1.379 . S
C1818 C1815 1.363 . S
C1818 N1816 1.356 . S
C1819 C1813 1.363 . S
C1819 C1814 1.379 . S
C1819 N1817 1.356 . S
N1820 C1812 1.356 . S
N1820 H1826 0.984 . S
N1820 H1827 0.984 . S
N1821 C1814 1.356 . S
N1821 H1824 0.984 . S
N1821 H1825 0.985 . S
H1822 N1817 0.984 . S
H1823 N1817 0.985 . S
H1824 N1821 0.984 . S
H1825 N1821 0.985 . S
H1826 N1820 0.984 . S
H1827 N1820 0.984 . S
H1828 N1816 0.984 . S
H1829 N1816 0.985 . S
C1830 C1831 1.363 . S
C1830 C1836 1.379 . S
C1830 N1838 1.356 . S
C1831 C1830 1.363 . S
C1831 C1837 1.363 . S
C1832 C1833 1.363 . S
C1832 C1837 1.379 . S
C1832 N1839 1.356 . S
C1833 C1832 1.363 . S
C1833 C1836 1.363 . S
N1834 C1836 1.356 . S
N1834 H1846 0.984 . S
N1834 H1847 0.985 . S
N1835 C1837 1.356 . S
N1835 H1840 0.984 . S
N1835 H1841 0.985 . S
C1836 C1830 1.379 . S
C1836 C1833 1.363 . S
C1836 N1834 1.356 . S
C1837 C1831 1.363 . S
C1837 C1832 1.379 . S
C1837 N1835 1.356 . S
N1838 C1830 1.356 . S
N1838 H1844 0.984 . S
N1838 H1845 0.984 . S
N1839 C1832 1.356 . S
N1839 H1842 0.984 . S
N1839 H1843 0.985 . S
H1840 N1835 0.984 . S
H1841 N1835 0.985 . S
H1842 N1839 0.984 . S
H1843 N1839 0.985 . S
H1844 N1838 0.984 . S
H1845 N1838 0.984 . S
H1846 N1834 0.984 . S
H1847 N1834 0.985 . S
C1848 C1849 1.363 . S
C1848 C1854 1.379 . S
C1848 N1856 1.356 . S
C1849 C1848 1.363 . S
C1849 C1855 1.363 . S
C1850 C1851 1.363 . S
C1850 C1855 1.379 . S
C1850 N1857 1.356 . S
C1851 C1850 1.363 . S
C1851 C1854 1.363 . S
N1852 C1854 1.356 . S
N1852 H1864 0.984 . S
N1852 H1865 0.985 . S
N1853 C1855 1.356 . S
N1853 H1858 0.984 . S
N1853 H1859 0.985 . S
C1854 C1848 1.379 . S
C1854 C1851 1.363 . S
C1854 N1852 1.356 . S
C1855 C1849 1.363 . S
C1855 C1850 1.379 . S
C1855 N1853 1.356 . S
N1856 C1848 1.356 . S
N1856 H1862 0.984 . S
N1856 H1863 0.984 . S
N1857 C1850 1.356 . S
N1857 H1860 0.984 . S
N1857 H1861 0.985 . S
H1858 N1853 0.984 . S
H1859 N1853 0.985 . S
H1860 N1857 0.984 . S
H1861 N1857 0.985 . S
H1862 N1856 0.984 . S
H1863 N1856 0.984 . S
H1864 N1852 0.984 . S
H1865 N1852 0.985 . S
C1866 C1867 1.363 . S
C1866 C1872 1.379 . S
C1866 N1874 1.356 . S
C1867 C1866 1.363 . S
C1867 C1873 1.363 . S
C1868 C1869 1.363 . S
C1868 C1873 1.379 . S
C1868 N1875 1.356 . S
C1869 C1868 1.363 . S
C1869 C1872 1.363 . S
N1870 C1872 1.356 . S
N1870 H1882 0.984 . S
N1870 H1883 0.985 . S
N1871 C1873 1.356 . S
N1871 H1876 0.984 . S
N1871 H1877 0.985 . S
C1872 C1866 1.379 . S
C1872 C1869 1.363 . S
C1872 N1870 1.356 . S
C1873 C1867 1.363 . S
C1873 C1868 1.379 . S
C1873 N1871 1.356 . S
N1874 C1866 1.356 . S
N1874 H1880 0.984 . S
N1874 H1881 0.984 . S
N1875 C1868 1.356 . S
N1875 H1878 0.984 . S
N1875 H1879 0.985 . S
H1876 N1871 0.984 . S
H1877 N1871 0.985 . S
H1878 N1875 0.984 . S
H1879 N1875 0.985 . S
H1880 N1874 0.984 . S
H1881 N1874 0.984 . S
H1882 N1870 0.984 . S
H1883 N1870 0.985 . S
C1884 C1885 1.363 . S
C1884 C1890 1.379 . S
C1884 N1892 1.356 . S
C1885 C1884 1.363 . S
C1885 C1891 1.363 . S
C1886 C1887 1.363 . S
C1886 C1891 1.379 . S
C1886 N1893 1.356 . S
C1887 C1886 1.363 . S
C1887 C1890 1.363 . S
N1888 C1890 1.356 . S
N1888 H1900 0.984 . S
N1888 H1901 0.985 . S
N1889 C1891 1.356 . S
N1889 H1894 0.984 . S
N1889 H1895 0.985 . S
C1890 C1884 1.379 . S
C1890 C1887 1.363 . S
C1890 N1888 1.356 . S
C1891 C1885 1.363 . S
C1891 C1886 1.379 . S
C1891 N1889 1.356 . S
N1892 C1884 1.356 . S
N1892 H1898 0.984 . S
N1892 H1899 0.984 . S
N1893 C1886 1.356 . S
N1893 H1896 0.984 . S
N1893 H1897 0.985 . S
H1894 N1889 0.984 . S
H1895 N1889 0.985 . S
H1896 N1893 0.984 . S
H1897 N1893 0.985 . S
H1898 N1892 0.984 . S
H1899 N1892 0.984 . S
H1900 N1888 0.984 . S
H1901 N1888 0.985 . S
C1902 C1903 1.363 . S
C1902 C1908 1.379 . S
C1902 N1910 1.356 . S
C1903 C1902 1.363 . S
C1903 C1909 1.363 . S
C1904 C1905 1.363 . S
C1904 C1909 1.379 . S
C1904 N1911 1.356 . S
C1905 C1904 1.363 . S
C1905 C1908 1.363 . S
N1906 C1908 1.356 . S
N1906 H1918 0.984 . S
N1906 H1919 0.985 . S
N1907 C1909 1.356 . S
N1907 H1912 0.984 . S
N1907 H1913 0.985 . S
C1908 C1902 1.379 . S
C1908 C1905 1.363 . S
C1908 N1906 1.356 . S
C1909 C1903 1.363 . S
C1909 C1904 1.379 . S
C1909 N1907 1.356 . S
N1910 C1902 1.356 . S
N1910 H1916 0.984 . S
N1910 H1917 0.984 . S
N1911 C1904 1.356 . S
N1911 H1914 0.984 . S
N1911 H1915 0.985 . S
H1912 N1907 0.984 . S
H1913 N1907 0.985 . S
H1914 N1911 0.984 . S
H1915 N1911 0.985 . S
H1916 N1910 0.984 . S
H1917 N1910 0.984 . S
H1918 N1906 0.984 . S
H1919 N1906 0.985 . S
C1920 C1921 1.363 . S
C1920 C1926 1.379 1_554 S
C1920 N1928 1.356 . S
C1921 C1920 1.363 . S
C1921 C1927 1.363 . S
C1922 C1923 1.363 . S
C1922 C1927 1.379 1_556 S
C1922 N1929 1.356 . S
C1923 C1922 1.363 . S
C1923 C1926 1.363 . S
N1924 C1926 1.356 . S
N1924 H1936 0.984 . S
N1924 H1937 0.985 . S
N1925 C1927 1.356 . S
N1925 H1930 0.984 . S
N1925 H1931 0.985 . S
C1926 C1920 1.379 1_556 S
C1926 C1923 1.363 . S
C1926 N1924 1.356 . S
C1927 C1921 1.363 . S
C1927 C1922 1.379 1_554 S
C1927 N1925 1.356 . S
N1928 C1920 1.356 . S
N1928 H1934 0.984 . S
N1928 H1935 0.984 . S
N1929 C1922 1.356 . S
N1929 H1932 0.984 . S
N1929 H1933 0.985 . S
H1930 N1925 0.984 . S
H1931 N1925 0.985 . S
H1932 N1929 0.984 . S
H1933 N1929 0.985 . S
H1934 N1928 0.984 . S
H1935 N1928 0.984 . S
H1936 N1924 0.984 . S
H1937 N1924 0.985 . S
C1938 C1939 1.363 1_545 S
C1938 C1944 1.379 . S
C1938 N1946 1.356 . S
C1939 C1938 1.363 1_565 S
C1939 C1945 1.363 . S
C1940 C1941 1.363 1_565 S
C1940 C1945 1.379 . S
C1940 N1947 1.356 . S
C1941 C1940 1.363 1_545 S
C1941 C1944 1.363 . S
N1942 C1944 1.356 . S
N1942 H1954 0.984 . S
N1942 H1955 0.985 . S
N1943 C1945 1.356 . S
N1943 H1948 0.984 . S
N1943 H1949 0.985 . S
C1944 C1938 1.379 . S
C1944 C1941 1.363 . S
C1944 N1942 1.356 . S
C1945 C1939 1.363 . S
C1945 C1940 1.379 . S
C1945 N1943 1.356 . S
N1946 C1938 1.356 . S
N1946 H1952 0.984 . S
N1946 H1953 0.984 . S
N1947 C1940 1.356 . S
N1947 H1950 0.984 . S
N1947 H1951 0.985 . S
H1948 N1943 0.984 . S
H1949 N1943 0.985 . S
H1950 N1947 0.984 . S
H1951 N1947 0.985 . S
H1952 N1946 0.984 . S
H1953 N1946 0.984 . S
H1954 N1942 0.984 . S
H1955 N1942 0.985 . S
C1956 C1957 1.363 . S
C1956 C1962 1.379 . S
C1956 N1964 1.356 . S
C1957 C1956 1.363 . S
C1957 C1963 1.363 . S
C1958 C1959 1.363 . S
C1958 C1963 1.379 . S
C1958 N1965 1.356 . S
C1959 C1958 1.363 . S
C1959 C1962 1.363 . S
N1960 C1962 1.356 . S
N1960 H1972 0.984 . S
N1960 H1973 0.985 . S
N1961 C1963 1.356 . S
N1961 H1966 0.984 . S
N1961 H1967 0.985 . S
C1962 C1956 1.379 . S
C1962 C1959 1.363 . S
C1962 N1960 1.356 . S
C1963 C1957 1.363 . S
C1963 C1958 1.379 . S
C1963 N1961 1.356 . S
N1964 C1956 1.356 . S
N1964 H1970 0.984 . S
N1964 H1971 0.984 . S
N1965 C1958 1.356 . S
N1965 H1968 0.984 . S
N1965 H1969 0.985 . S
H1966 N1961 0.984 . S
H1967 N1961 0.985 . S
H1968 N1965 0.984 . S
H1969 N1965 0.985 . S
H1970 N1964 0.984 . S
H1971 N1964 0.984 . S
H1972 N1960 0.984 . S
H1973 N1960 0.985 . S
C1974 C1975 1.363 1_545 S
C1974 C1980 1.379 . S
C1974 N1982 1.356 . S
C1975 C1974 1.363 1_565 S
C1975 C1981 1.363 . S
C1976 C1977 1.363 1_565 S
C1976 C1981 1.379 . S
C1976 N1983 1.356 . S
C1977 C1976 1.363 1_545 S
C1977 C1980 1.363 . S
N1978 C1980 1.356 . S
N1978 H1990 0.984 . S
N1978 H1991 0.985 . S
N1979 C1981 1.356 . S
N1979 H1984 0.984 . S
N1979 H1985 0.985 . S
C1980 C1974 1.379 . S
C1980 C1977 1.363 . S
C1980 N1978 1.356 . S
C1981 C1975 1.363 . S
C1981 C1976 1.379 . S
C1981 N1979 1.356 . S
N1982 C1974 1.356 . S
N1982 H1988 0.984 . S
N1982 H1989 0.984 . S
N1983 C1976 1.356 . S
N1983 H1986 0.984 . S
N1983 H1987 0.985 . S
H1984 N1979 0.984 . S
H1985 N1979 0.985 . S
H1986 N1983 0.984 . S
H1987 N1983 0.985 . S
H1988 N1982 0.984 . S
H1989 N1982 0.984 . S
H1990 N1978 0.984 . S
H1991 N1978 0.985 . S
C1992 C1993 1.363 . S
C1992 C1998 1.379 1_554 S
C1992 N2000 1.356 . S
C1993 C1992 1.363 . S
C1993 C1999 1.363 . S
C1994 C1995 1.363 . S
C1994 C1999 1.379 1_556 S
C1994 N2001 1.356 . S
C1995 C1994 1.363 . S
C1995 C1998 1.363 . S
N1996 C1998 1.356 . S
N1996 H2008 0.984 . S
N1996 H2009 0.985 . S
N1997 C1999 1.356 . S
N1997 H2002 0.984 . S
N1997 H2003 0.985 . S
C1998 C1992 1.379 1_556 S
C1998 C1995 1.363 . S
C1998 N1996 1.356 . S
C1999 C1993 1.363 . S
C1999 C1994 1.379 1_554 S
C1999 N1997 1.356 . S
N2000 C1992 1.356 . S
N2000 H2006 0.984 . S
N2000 H2007 0.984 . S
N2001 C1994 1.356 . S
N2001 H2004 0.984 . S
N2001 H2005 0.985 . S
H2002 N1997 0.984 . S
H2003 N1997 0.985 . S
H2004 N2001 0.984 . S
H2005 N2001 0.985 . S
H2006 N2000 0.984 . S
H2007 N2000 0.984 . S
H2008 N1996 0.984 . S
H2009 N1996 0.985 . S
C2010 C2011 1.363 . S
C2010 C2016 1.379 . S
C2010 N2018 1.356 . S
C2011 C2010 1.363 . S
C2011 C2017 1.363 1_545 S
C2012 C2013 1.363 . S
C2012 C2017 1.379 . S
C2012 N2019 1.356 . S
C2013 C2012 1.363 . S
C2013 C2016 1.363 1_565 S
N2014 C2016 1.356 . S
N2014 H2026 0.984 . S
N2014 H2027 0.985 . S
N2015 C2017 1.356 . S
N2015 H2020 0.984 . S
N2015 H2021 0.985 . S
C2016 C2010 1.379 . S
C2016 C2013 1.363 1_545 S
C2016 N2014 1.356 . S
C2017 C2011 1.363 1_565 S
C2017 C2012 1.379 . S
C2017 N2015 1.356 . S
N2018 C2010 1.356 . S
N2018 H2024 0.984 . S
N2018 H2025 0.984 . S
N2019 C2012 1.356 . S
N2019 H2022 0.984 . S
N2019 H2023 0.985 . S
H2020 N2015 0.984 . S
H2021 N2015 0.985 . S
H2022 N2019 0.984 . S
H2023 N2019 0.985 . S
H2024 N2018 0.984 . S
H2025 N2018 0.984 . S
H2026 N2014 0.984 . S
H2027 N2014 0.985 . S
C2028 C2029 1.363 . S
C2028 C2034 1.379 . S
C2028 N2036 1.356 . S
C2029 C2028 1.363 . S
C2029 C2035 1.363 . S
C2030 C2031 1.363 . S
C2030 C2035 1.379 . S
C2030 N2037 1.356 . S
C2031 C2030 1.363 . S
C2031 C2034 1.363 . S
N2032 C2034 1.356 . S
N2032 H2044 0.984 . S
N2032 H2045 0.985 . S
N2033 C2035 1.356 . S
N2033 H2038 0.984 . S
N2033 H2039 0.985 . S
C2034 C2028 1.379 . S
C2034 C2031 1.363 . S
C2034 N2032 1.356 . S
C2035 C2029 1.363 . S
C2035 C2030 1.379 . S
C2035 N2033 1.356 . S
N2036 C2028 1.356 . S
N2036 H2042 0.984 . S
N2036 H2043 0.984 . S
N2037 C2030 1.356 . S
N2037 H2040 0.984 . S
N2037 H2041 0.985 . S
H2038 N2033 0.984 . S
H2039 N2033 0.985 . S
H2040 N2037 0.984 . S
H2041 N2037 0.985 . S
H2042 N2036 0.984 . S
H2043 N2036 0.984 . S
H2044 N2032 0.984 . S
H2045 N2032 0.985 . S
C2046 C2047 1.363 . S
C2046 C2052 1.379 . S
C2046 N2054 1.356 . S
C2047 C2046 1.363 . S
C2047 C2053 1.363 1_565 S
C2048 C2049 1.363 . S
C2048 C2053 1.379 . S
C2048 N2055 1.356 . S
C2049 C2048 1.363 . S
C2049 C2052 1.363 1_545 S
N2050 C2052 1.356 . S
N2050 H2062 0.984 . S
N2050 H2063 0.985 . S
N2051 C2053 1.356 . S
N2051 H2056 0.984 . S
N2051 H2057 0.985 . S
C2052 C2046 1.379 . S
C2052 C2049 1.363 1_565 S
C2052 N2050 1.356 . S
C2053 C2047 1.363 1_545 S
C2053 C2048 1.379 . S
C2053 N2051 1.356 . S
N2054 C2046 1.356 . S
N2054 H2060 0.984 . S
N2054 H2061 0.984 . S
N2055 C2048 1.356 . S
N2055 H2058 0.984 . S
N2055 H2059 0.985 . S
H2056 N2051 0.984 . S
H2057 N2051 0.985 . S
H2058 N2055 0.984 . S
H2059 N2055 0.985 . S
H2060 N2054 0.984 . S
H2061 N2054 0.984 . S
H2062 N2050 0.984 . S
H2063 N2050 0.985 . S
C2064 C2065 1.363 . S
C2064 C2070 1.379 . S
C2064 N2072 1.356 . S
C2065 C2064 1.363 . S
C2065 C2071 1.363 . S
C2066 C2067 1.363 . S
C2066 C2071 1.379 . S
C2066 N2073 1.356 . S
C2067 C2066 1.363 . S
C2067 C2070 1.363 . S
N2068 C2070 1.356 . S
N2068 H2080 0.984 . S
N2068 H2081 0.985 . S
N2069 C2071 1.356 . S
N2069 H2074 0.984 . S
N2069 H2075 0.985 . S
C2070 C2064 1.379 . S
C2070 C2067 1.363 . S
C2070 N2068 1.356 . S
C2071 C2065 1.363 . S
C2071 C2066 1.379 . S
C2071 N2069 1.356 . S
N2072 C2064 1.356 . S
N2072 H2078 0.984 . S
N2072 H2079 0.984 . S
N2073 C2066 1.356 . S
N2073 H2076 0.984 . S
N2073 H2077 0.985 . S
H2074 N2069 0.984 . S
H2075 N2069 0.985 . S
H2076 N2073 0.984 . S
H2077 N2073 0.985 . S
H2078 N2072 0.984 . S
H2079 N2072 0.984 . S
H2080 N2068 0.984 . S
H2081 N2068 0.985 . S
C2082 C2083 1.363 . S
C2082 C2088 1.379 . S
C2082 N2090 1.356 . S
C2083 C2082 1.363 . S
C2083 C2089 1.363 . S
C2084 C2085 1.363 . S
C2084 C2089 1.379 . S
C2084 N2091 1.356 . S
C2085 C2084 1.363 . S
C2085 C2088 1.363 . S
N2086 C2088 1.356 . S
N2086 H2098 0.984 . S
N2086 H2099 0.985 . S
N2087 C2089 1.356 . S
N2087 H2092 0.984 . S
N2087 H2093 0.985 . S
C2088 C2082 1.379 . S
C2088 C2085 1.363 . S
C2088 N2086 1.356 . S
C2089 C2083 1.363 . S
C2089 C2084 1.379 . S
C2089 N2087 1.356 . S
N2090 C2082 1.356 . S
N2090 H2096 0.984 . S
N2090 H2097 0.984 . S
N2091 C2084 1.356 . S
N2091 H2094 0.984 . S
N2091 H2095 0.985 . S
H2092 N2087 0.984 . S
H2093 N2087 0.985 . S
H2094 N2091 0.984 . S
H2095 N2091 0.985 . S
H2096 N2090 0.984 . S
H2097 N2090 0.984 . S
H2098 N2086 0.984 . S
H2099 N2086 0.985 . S
C2100 C2101 1.363 . S
C2100 C2106 1.379 1_554 S
C2100 N2108 1.356 . S
C2101 C2100 1.363 . S
C2101 C2107 1.363 . S
C2102 C2103 1.363 . S
C2102 C2107 1.379 1_556 S
C2102 N2109 1.356 . S
C2103 C2102 1.363 . S
C2103 C2106 1.363 . S
N2104 C2106 1.356 . S
N2104 H2116 0.984 . S
N2104 H2117 0.985 . S
N2105 C2107 1.356 . S
N2105 H2110 0.984 . S
N2105 H2111 0.985 . S
C2106 C2100 1.379 1_556 S
C2106 C2103 1.363 . S
C2106 N2104 1.356 . S
C2107 C2101 1.363 . S
C2107 C2102 1.379 1_554 S
C2107 N2105 1.356 . S
N2108 C2100 1.356 . S
N2108 H2114 0.984 . S
N2108 H2115 0.984 . S
N2109 C2102 1.356 . S
N2109 H2112 0.984 . S
N2109 H2113 0.985 . S
H2110 N2105 0.984 . S
H2111 N2105 0.985 . S
H2112 N2109 0.984 . S
H2113 N2109 0.985 . S
H2114 N2108 0.984 . S
H2115 N2108 0.984 . S
H2116 N2104 0.984 . S
H2117 N2104 0.985 . S
C2118 C2119 1.363 . S
C2118 C2124 1.379 . S
C2118 N2126 1.356 . S
C2119 C2118 1.363 . S
C2119 C2125 1.363 . S
C2120 C2121 1.363 . S
C2120 C2125 1.379 . S
C2120 N2127 1.356 . S
C2121 C2120 1.363 . S
C2121 C2124 1.363 . S
N2122 C2124 1.356 . S
N2122 H2134 0.984 . S
N2122 H2135 0.985 . S
N2123 C2125 1.356 . S
N2123 H2128 0.984 . S
N2123 H2129 0.985 . S
C2124 C2118 1.379 . S
C2124 C2121 1.363 . S
C2124 N2122 1.356 . S
C2125 C2119 1.363 . S
C2125 C2120 1.379 . S
C2125 N2123 1.356 . S
N2126 C2118 1.356 . S
N2126 H2132 0.984 . S
N2126 H2133 0.984 . S
N2127 C2120 1.356 . S
N2127 H2130 0.984 . S
N2127 H2131 0.985 . S
H2128 N2123 0.984 . S
H2129 N2123 0.985 . S
H2130 N2127 0.984 . S
H2131 N2127 0.985 . S
H2132 N2126 0.984 . S
H2133 N2126 0.984 . S
H2134 N2122 0.984 . S
H2135 N2122 0.985 . S
C2136 C2137 1.363 . S
C2136 C2142 1.379 . S
C2136 N2144 1.356 . S
C2137 C2136 1.363 . S
C2137 C2143 1.363 . S
C2138 C2139 1.363 . S
C2138 C2143 1.379 . S
C2138 N2145 1.356 . S
C2139 C2138 1.363 . S
C2139 C2142 1.363 . S
N2140 C2142 1.356 . S
N2140 H2152 0.984 . S
N2140 H2153 0.985 . S
N2141 C2143 1.356 . S
N2141 H2146 0.984 . S
N2141 H2147 0.985 . S
C2142 C2136 1.379 . S
C2142 C2139 1.363 . S
C2142 N2140 1.356 . S
C2143 C2137 1.363 . S
C2143 C2138 1.379 . S
C2143 N2141 1.356 . S
N2144 C2136 1.356 . S
N2144 H2150 0.984 . S
N2144 H2151 0.984 . S
N2145 C2138 1.356 . S
N2145 H2148 0.984 . S
N2145 H2149 0.985 . S
H2146 N2141 0.984 . S
H2147 N2141 0.985 . S
H2148 N2145 0.984 . S
H2149 N2145 0.985 . S
H2150 N2144 0.984 . S
H2151 N2144 0.984 . S
H2152 N2140 0.984 . S
H2153 N2140 0.985 . S
C2154 C2155 1.363 . S
C2154 C2160 1.379 . S
C2154 N2162 1.356 . S
C2155 C2154 1.363 . S
C2155 C2161 1.363 . S
C2156 C2157 1.363 . S
C2156 C2161 1.379 . S
C2156 N2163 1.356 . S
C2157 C2156 1.363 . S
C2157 C2160 1.363 . S
N2158 C2160 1.356 . S
N2158 H2170 0.984 . S
N2158 H2171 0.985 . S
N2159 C2161 1.356 . S
N2159 H2164 0.984 . S
N2159 H2165 0.985 . S
C2160 C2154 1.379 . S
C2160 C2157 1.363 . S
C2160 N2158 1.356 . S
C2161 C2155 1.363 . S
C2161 C2156 1.379 . S
C2161 N2159 1.356 . S
N2162 C2154 1.356 . S
N2162 H2168 0.984 . S
N2162 H2169 0.984 . S
N2163 C2156 1.356 . S
N2163 H2166 0.984 . S
N2163 H2167 0.985 . S
H2164 N2159 0.984 . S
H2165 N2159 0.985 . S
H2166 N2163 0.984 . S
H2167 N2163 0.985 . S
H2168 N2162 0.984 . S
H2169 N2162 0.984 . S
H2170 N2158 0.984 . S
H2171 N2158 0.985 . S
C2172 C2173 1.363 . S
C2172 C2178 1.379 1_556 S
C2172 N2180 1.356 . S
C2173 C2172 1.363 . S
C2173 C2179 1.363 . S
C2174 C2175 1.363 . S
C2174 C2179 1.379 1_554 S
C2174 N2181 1.356 . S
C2175 C2174 1.363 . S
C2175 C2178 1.363 . S
N2176 C2178 1.356 . S
N2176 H2188 0.984 . S
N2176 H2189 0.985 . S
N2177 C2179 1.356 . S
N2177 H2182 0.984 . S
N2177 H2183 0.985 . S
C2178 C2172 1.379 1_554 S
C2178 C2175 1.363 . S
C2178 N2176 1.356 . S
C2179 C2173 1.363 . S
C2179 C2174 1.379 1_556 S
C2179 N2177 1.356 . S
N2180 C2172 1.356 . S
N2180 H2186 0.984 . S
N2180 H2187 0.984 . S
N2181 C2174 1.356 . S
N2181 H2184 0.984 . S
N2181 H2185 0.985 . S
H2182 N2177 0.984 . S
H2183 N2177 0.985 . S
H2184 N2181 0.984 . S
H2185 N2181 0.985 . S
H2186 N2180 0.984 . S
H2187 N2180 0.984 . S
H2188 N2176 0.984 . S
H2189 N2176 0.985 . S
C2190 C2191 1.363 . S
C2190 C2196 1.379 . S
C2190 N2198 1.356 . S
C2191 C2190 1.363 . S
C2191 C2197 1.363 . S
C2192 C2193 1.363 . S
C2192 C2197 1.379 . S
C2192 N2199 1.356 . S
C2193 C2192 1.363 . S
C2193 C2196 1.363 . S
N2194 C2196 1.356 . S
N2194 H2206 0.984 . S
N2194 H2207 0.985 . S
N2195 C2197 1.356 . S
N2195 H2200 0.984 . S
N2195 H2201 0.985 . S
C2196 C2190 1.379 . S
C2196 C2193 1.363 . S
C2196 N2194 1.356 . S
C2197 C2191 1.363 . S
C2197 C2192 1.379 . S
C2197 N2195 1.356 . S
N2198 C2190 1.356 . S
N2198 H2204 0.984 . S
N2198 H2205 0.984 . S
N2199 C2192 1.356 . S
N2199 H2202 0.984 . S
N2199 H2203 0.985 . S
H2200 N2195 0.984 . S
H2201 N2195 0.985 . S
H2202 N2199 0.984 . S
H2203 N2199 0.985 . S
H2204 N2198 0.984 . S
H2205 N2198 0.984 . S
H2206 N2194 0.984 . S
H2207 N2194 0.985 . S
C2208 C2209 1.363 . S
C2208 C2214 1.379 . S
C2208 N2216 1.356 . S
C2209 C2208 1.363 . S
C2209 C2215 1.363 . S
C2210 C2211 1.363 . S
C2210 C2215 1.379 . S
C2210 N2217 1.356 . S
C2211 C2210 1.363 . S
C2211 C2214 1.363 . S
N2212 C2214 1.356 . S
N2212 H2224 0.984 . S
N2212 H2225 0.985 . S
N2213 C2215 1.356 . S
N2213 H2218 0.984 . S
N2213 H2219 0.985 . S
C2214 C2208 1.379 . S
C2214 C2211 1.363 . S
C2214 N2212 1.356 . S
C2215 C2209 1.363 . S
C2215 C2210 1.379 . S
C2215 N2213 1.356 . S
N2216 C2208 1.356 . S
N2216 H2222 0.984 . S
N2216 H2223 0.984 . S
N2217 C2210 1.356 . S
N2217 H2220 0.984 . S
N2217 H2221 0.985 . S
H2218 N2213 0.984 . S
H2219 N2213 0.985 . S
H2220 N2217 0.984 . S
H2221 N2217 0.985 . S
H2222 N2216 0.984 . S
H2223 N2216 0.984 . S
H2224 N2212 0.984 . S
H2225 N2212 0.985 . S
C2226 C2227 1.363 . S
C2226 C2232 1.379 . S
C2226 N2234 1.356 . S
C2227 C2226 1.363 . S
C2227 C2233 1.363 . S
C2228 C2229 1.363 . S
C2228 C2233 1.379 . S
C2228 N2235 1.356 . S
C2229 C2228 1.363 . S
C2229 C2232 1.363 . S
N2230 C2232 1.356 . S
N2230 H2242 0.984 . S
N2230 H2243 0.985 . S
N2231 C2233 1.356 . S
N2231 H2236 0.984 . S
N2231 H2237 0.985 . S
C2232 C2226 1.379 . S
C2232 C2229 1.363 . S
C2232 N2230 1.356 . S
C2233 C2227 1.363 . S
C2233 C2228 1.379 . S
C2233 N2231 1.356 . S
N2234 C2226 1.356 . S
N2234 H2240 0.984 . S
N2234 H2241 0.984 . S
N2235 C2228 1.356 . S
N2235 H2238 0.984 . S
N2235 H2239 0.985 . S
H2236 N2231 0.984 . S
H2237 N2231 0.985 . S
H2238 N2235 0.984 . S
H2239 N2235 0.985 . S
H2240 N2234 0.984 . S
H2241 N2234 0.984 . S
H2242 N2230 0.984 . S
H2243 N2230 0.985 . S
C2244 C2245 1.363 . S
C2244 C2250 1.379 . S
C2244 N2252 1.356 . S
C2245 C2244 1.363 . S
C2245 C2251 1.363 . S
C2246 C2247 1.363 . S
C2246 C2251 1.379 . S
C2246 N2253 1.356 . S
C2247 C2246 1.363 . S
C2247 C2250 1.363 . S
N2248 C2250 1.356 . S
N2248 H2260 0.984 . S
N2248 H2261 0.985 . S
N2249 C2251 1.356 . S
N2249 H2254 0.984 . S
N2249 H2255 0.985 . S
C2250 C2244 1.379 . S
C2250 C2247 1.363 . S
C2250 N2248 1.356 . S
C2251 C2245 1.363 . S
C2251 C2246 1.379 . S
C2251 N2249 1.356 . S
N2252 C2244 1.356 . S
N2252 H2258 0.984 . S
N2252 H2259 0.984 . S
N2253 C2246 1.356 . S
N2253 H2256 0.984 . S
N2253 H2257 0.985 . S
H2254 N2249 0.984 . S
H2255 N2249 0.985 . S
H2256 N2253 0.984 . S
H2257 N2253 0.985 . S
H2258 N2252 0.984 . S
H2259 N2252 0.984 . S
H2260 N2248 0.984 . S
H2261 N2248 0.985 . S
C2262 C2263 1.363 . S
C2262 C2268 1.379 . S
C2262 N2270 1.356 . S
C2263 C2262 1.363 . S
C2263 C2269 1.363 . S
C2264 C2265 1.363 . S
C2264 C2269 1.379 . S
C2264 N2271 1.356 . S
C2265 C2264 1.363 . S
C2265 C2268 1.363 . S
N2266 C2268 1.356 . S
N2266 H2278 0.984 . S
N2266 H2279 0.985 . S
N2267 C2269 1.356 . S
N2267 H2272 0.984 . S
N2267 H2273 0.985 . S
C2268 C2262 1.379 . S
C2268 C2265 1.363 . S
C2268 N2266 1.356 . S
C2269 C2263 1.363 . S
C2269 C2264 1.379 . S
C2269 N2267 1.356 . S
N2270 C2262 1.356 . S
N2270 H2276 0.984 . S
N2270 H2277 0.984 . S
N2271 C2264 1.356 . S
N2271 H2274 0.984 . S
N2271 H2275 0.985 . S
H2272 N2267 0.984 . S
H2273 N2267 0.985 . S
H2274 N2271 0.984 . S
H2275 N2271 0.985 . S
H2276 N2270 0.984 . S
H2277 N2270 0.984 . S
H2278 N2266 0.984 . S
H2279 N2266 0.985 . S
C2280 C2281 1.363 . S
C2280 C2286 1.379 . S
C2280 N2288 1.356 . S
C2281 C2280 1.363 . S
C2281 C2287 1.363 . S
C2282 C2283 1.363 . S
C2282 C2287 1.379 . S
C2282 N2289 1.356 . S
C2283 C2282 1.363 . S
C2283 C2286 1.363 . S
N2284 C2286 1.356 . S
N2284 H2296 0.984 . S
N2284 H2297 0.985 . S
N2285 C2287 1.356 . S
N2285 H2290 0.984 . S
N2285 H2291 0.985 . S
C2286 C2280 1.379 . S
C2286 C2283 1.363 . S
C2286 N2284 1.356 . S
C2287 C2281 1.363 . S
C2287 C2282 1.379 . S
C2287 N2285 1.356 . S
N2288 C2280 1.356 . S
N2288 H2294 0.984 . S
N2288 H2295 0.984 . S
N2289 C2282 1.356 . S
N2289 H2292 0.984 . S
N2289 H2293 0.985 . S
H2290 N2285 0.984 . S
H2291 N2285 0.985 . S
H2292 N2289 0.984 . S
H2293 N2289 0.985 . S
H2294 N2288 0.984 . S
H2295 N2288 0.984 . S
H2296 N2284 0.984 . S
H2297 N2284 0.985 . S
C2298 C2299 1.363 . S
C2298 C2304 1.379 . S
C2298 N2306 1.356 . S
C2299 C2298 1.363 . S
C2299 C2305 1.363 . S
C2300 C2301 1.363 . S
C2300 C2305 1.379 . S
C2300 N2307 1.356 . S
C2301 C2300 1.363 . S
C2301 C2304 1.363 . S
N2302 C2304 1.356 . S
N2302 H2314 0.984 . S
N2302 H2315 0.985 . S
N2303 C2305 1.356 . S
N2303 H2308 0.984 . S
N2303 H2309 0.985 . S
C2304 C2298 1.379 . S
C2304 C2301 1.363 . S
C2304 N2302 1.356 . S
C2305 C2299 1.363 . S
C2305 C2300 1.379 . S
C2305 N2303 1.356 . S
N2306 C2298 1.356 . S
N2306 H2312 0.984 . S
N2306 H2313 0.984 . S
N2307 C2300 1.356 . S
N2307 H2310 0.984 . S
N2307 H2311 0.985 . S
H2308 N2303 0.984 . S
H2309 N2303 0.985 . S
H2310 N2307 0.984 . S
H2311 N2307 0.985 . S
H2312 N2306 0.984 . S
H2313 N2306 0.984 . S
H2314 N2302 0.984 . S
H2315 N2302 0.985 . S
C2316 C2317 1.363 . S
C2316 C2322 1.379 . S
C2316 N2324 1.356 . S
C2317 C2316 1.363 . S
C2317 C2323 1.363 . S
C2318 C2319 1.363 . S
C2318 C2323 1.379 . S
C2318 N2325 1.356 . S
C2319 C2318 1.363 . S
C2319 C2322 1.363 . S
N2320 C2322 1.356 . S
N2320 H2332 0.984 . S
N2320 H2333 0.985 . S
N2321 C2323 1.356 . S
N2321 H2326 0.984 . S
N2321 H2327 0.985 . S
C2322 C2316 1.379 . S
C2322 C2319 1.363 . S
C2322 N2320 1.356 . S
C2323 C2317 1.363 . S
C2323 C2318 1.379 . S
C2323 N2321 1.356 . S
N2324 C2316 1.356 . S
N2324 H2330 0.984 . S
N2324 H2331 0.984 . S
N2325 C2318 1.356 . S
N2325 H2328 0.984 . S
N2325 H2329 0.985 . S
H2326 N2321 0.984 . S
H2327 N2321 0.985 . S
H2328 N2325 0.984 . S
H2329 N2325 0.985 . S
H2330 N2324 0.984 . S
H2331 N2324 0.984 . S
H2332 N2320 0.984 . S
H2333 N2320 0.985 . S
C2334 C2335 1.363 . S
C2334 C2340 1.379 . S
C2334 N2342 1.356 . S
C2335 C2334 1.363 . S
C2335 C2341 1.363 . S
C2336 C2337 1.363 . S
C2336 C2341 1.379 . S
C2336 N2343 1.356 . S
C2337 C2336 1.363 . S
C2337 C2340 1.363 . S
N2338 C2340 1.356 . S
N2338 H2350 0.984 . S
N2338 H2351 0.985 . S
N2339 C2341 1.356 . S
N2339 H2344 0.984 . S
N2339 H2345 0.985 . S
C2340 C2334 1.379 . S
C2340 C2337 1.363 . S
C2340 N2338 1.356 . S
C2341 C2335 1.363 . S
C2341 C2336 1.379 . S
C2341 N2339 1.356 . S
N2342 C2334 1.356 . S
N2342 H2348 0.984 . S
N2342 H2349 0.984 . S
N2343 C2336 1.356 . S
N2343 H2346 0.984 . S
N2343 H2347 0.985 . S
H2344 N2339 0.984 . S
H2345 N2339 0.985 . S
H2346 N2343 0.984 . S
H2347 N2343 0.985 . S
H2348 N2342 0.984 . S
H2349 N2342 0.984 . S
H2350 N2338 0.984 . S
H2351 N2338 0.985 . S
C2352 C2353 1.363 . S
C2352 C2358 1.379 . S
C2352 N2360 1.356 . S
C2353 C2352 1.363 . S
C2353 C2359 1.363 . S
C2354 C2355 1.363 . S
C2354 C2359 1.379 . S
C2354 N2361 1.356 . S
C2355 C2354 1.363 . S
C2355 C2358 1.363 . S
N2356 C2358 1.356 . S
N2356 H2368 0.984 . S
N2356 H2369 0.985 . S
N2357 C2359 1.356 . S
N2357 H2362 0.984 . S
N2357 H2363 0.985 . S
C2358 C2352 1.379 . S
C2358 C2355 1.363 . S
C2358 N2356 1.356 . S
C2359 C2353 1.363 . S
C2359 C2354 1.379 . S
C2359 N2357 1.356 . S
N2360 C2352 1.356 . S
N2360 H2366 0.984 . S
N2360 H2367 0.984 . S
N2361 C2354 1.356 . S
N2361 H2364 0.984 . S
N2361 H2365 0.985 . S
H2362 N2357 0.984 . S
H2363 N2357 0.985 . S
H2364 N2361 0.984 . S
H2365 N2361 0.985 . S
H2366 N2360 0.984 . S
H2367 N2360 0.984 . S
H2368 N2356 0.984 . S
H2369 N2356 0.985 . S
C2370 C2371 1.363 . S
C2370 C2376 1.379 . S
C2370 N2378 1.356 . S
C2371 C2370 1.363 . S
C2371 C2377 1.363 . S
C2372 C2373 1.363 . S
C2372 C2377 1.379 . S
C2372 N2379 1.356 . S
C2373 C2372 1.363 . S
C2373 C2376 1.363 . S
N2374 C2376 1.356 . S
N2374 H2386 0.984 . S
N2374 H2387 0.985 . S
N2375 C2377 1.356 . S
N2375 H2380 0.975 1_545 S
N2375 H2381 0.995 . S
C2376 C2370 1.379 . S
C2376 C2373 1.363 . S
C2376 N2374 1.356 . S
C2377 C2371 1.363 . S
C2377 C2372 1.379 . S
C2377 N2375 1.356 . S
N2378 C2370 1.356 . S
N2378 H2384 0.984 . S
N2378 H2385 0.984 . S
N2379 C2372 1.356 . S
N2379 H2382 0.984 . S
N2379 H2383 0.985 . S
H2380 N2375 0.975 1_565 S
H2381 N2375 0.995 . S
H2382 N2379 0.984 . S
H2383 N2379 0.985 . S
H2384 N2378 0.984 . S
H2385 N2378 0.984 . S
H2386 N2374 0.984 . S
H2387 N2374 0.985 . S
C2388 C2389 1.363 . S
C2388 C2394 1.379 . S
C2388 N2396 1.356 . S
C2389 C2388 1.363 . S
C2389 C2395 1.363 . S
C2390 C2391 1.363 . S
C2390 C2395 1.379 . S
C2390 N2397 1.356 . S
C2391 C2390 1.363 . S
C2391 C2394 1.363 . S
N2392 C2394 1.356 . S
N2392 H2404 0.984 . S
N2392 H2405 0.985 . S
N2393 C2395 1.356 . S
N2393 H2398 0.984 . S
N2393 H2399 0.985 . S
C2394 C2388 1.379 . S
C2394 C2391 1.363 . S
C2394 N2392 1.356 . S
C2395 C2389 1.363 . S
C2395 C2390 1.379 . S
C2395 N2393 1.356 . S
N2396 C2388 1.356 . S
N2396 H2402 0.984 . S
N2396 H2403 0.984 . S
N2397 C2390 1.356 . S
N2397 H2400 0.984 . S
N2397 H2401 0.985 . S
H2398 N2393 0.984 . S
H2399 N2393 0.985 . S
H2400 N2397 0.984 . S
H2401 N2397 0.985 . S
H2402 N2396 0.984 . S
H2403 N2396 0.984 . S
H2404 N2392 0.984 . S
H2405 N2392 0.985 . S
C2406 C2407 1.363 . S
C2406 C2412 1.379 . S
C2406 N2414 1.356 . S
C2407 C2406 1.363 . S
C2407 C2413 1.363 . S
C2408 C2409 1.363 . S
C2408 C2413 1.379 . S
C2408 N2415 1.356 . S
C2409 C2408 1.363 . S
C2409 C2412 1.363 . S
N2410 C2412 1.356 . S
N2410 H2422 0.984 . S
N2410 H2423 0.985 . S
N2411 C2413 1.356 . S
N2411 H2416 0.984 . S
N2411 H2417 0.985 . S
C2412 C2406 1.379 . S
C2412 C2409 1.363 . S
C2412 N2410 1.356 . S
C2413 C2407 1.363 . S
C2413 C2408 1.379 . S
C2413 N2411 1.356 . S
N2414 C2406 1.356 . S
N2414 H2420 0.984 . S
N2414 H2421 0.984 . S
N2415 C2408 1.356 . S
N2415 H2418 0.984 . S
N2415 H2419 0.985 . S
H2416 N2411 0.984 . S
H2417 N2411 0.985 . S
H2418 N2415 0.984 . S
H2419 N2415 0.985 . S
H2420 N2414 0.984 . S
H2421 N2414 0.984 . S
H2422 N2410 0.984 . S
H2423 N2410 0.985 . S
C2424 C2425 1.363 . S
C2424 C2430 1.379 . S
C2424 N2432 1.356 . S
C2425 C2424 1.363 . S
C2425 C2431 1.363 . S
C2426 C2427 1.363 . S
C2426 C2431 1.379 . S
C2426 N2433 1.356 . S
C2427 C2426 1.363 . S
C2427 C2430 1.363 . S
N2428 C2430 1.356 . S
N2428 H2440 0.984 . S
N2428 H2441 0.985 . S
N2429 C2431 1.356 . S
N2429 H2434 0.984 . S
N2429 H2435 0.985 . S
C2430 C2424 1.379 . S
C2430 C2427 1.363 . S
C2430 N2428 1.356 . S
C2431 C2425 1.363 . S
C2431 C2426 1.379 . S
C2431 N2429 1.356 . S
N2432 C2424 1.356 . S
N2432 H2438 0.984 . S
N2432 H2439 0.984 . S
N2433 C2426 1.356 . S
N2433 H2436 0.984 . S
N2433 H2437 0.985 . S
H2434 N2429 0.984 . S
H2435 N2429 0.985 . S
H2436 N2433 0.984 . S
H2437 N2433 0.985 . S
H2438 N2432 0.984 . S
H2439 N2432 0.984 . S
H2440 N2428 0.984 . S
H2441 N2428 0.985 . S
C2442 C2443 1.363 . S
C2442 C2448 1.379 . S
C2442 N2450 1.356 . S
C2443 C2442 1.363 . S
C2443 C2449 1.363 . S
C2444 C2445 1.363 . S
C2444 C2449 1.379 . S
C2444 N2451 1.356 . S
C2445 C2444 1.363 . S
C2445 C2448 1.363 . S
N2446 C2448 1.356 . S
N2446 H2458 0.984 . S
N2446 H2459 0.985 . S
N2447 C2449 1.356 . S
N2447 H2452 0.984 . S
N2447 H2453 0.985 . S
C2448 C2442 1.379 . S
C2448 C2445 1.363 . S
C2448 N2446 1.356 . S
C2449 C2443 1.363 . S
C2449 C2444 1.379 . S
C2449 N2447 1.356 . S
N2450 C2442 1.356 . S
N2450 H2456 0.984 . S
N2450 H2457 0.984 . S
N2451 C2444 1.356 . S
N2451 H2454 0.984 . S
N2451 H2455 0.985 . S
H2452 N2447 0.984 . S
H2453 N2447 0.985 . S
H2454 N2451 0.984 . S
H2455 N2451 0.985 . S
H2456 N2450 0.984 . S
H2457 N2450 0.984 . S
H2458 N2446 0.984 . S
H2459 N2446 0.985 . S
C2460 C2461 1.363 . S
C2460 C2466 1.379 . S
C2460 N2468 1.356 . S
C2461 C2460 1.363 . S
C2461 C2467 1.363 . S
C2462 C2463 1.363 . S
C2462 C2467 1.379 . S
C2462 N2469 1.356 . S
C2463 C2462 1.363 . S
C2463 C2466 1.363 . S
N2464 C2466 1.356 . S
N2464 H2476 0.984 . S
N2464 H2477 0.985 . S
N2465 C2467 1.356 . S
N2465 H2470 0.984 . S
N2465 H2471 0.985 . S
C2466 C2460 1.379 . S
C2466 C2463 1.363 . S
C2466 N2464 1.356 . S
C2467 C2461 1.363 . S
C2467 C2462 1.379 . S
C2467 N2465 1.356 . S
N2468 C2460 1.356 . S
N2468 H2474 0.984 . S
N2468 H2475 0.984 . S
N2469 C2462 1.356 . S
N2469 H2472 0.984 . S
N2469 H2473 0.985 . S
H2470 N2465 0.984 . S
H2471 N2465 0.985 . S
H2472 N2469 0.984 . S
H2473 N2469 0.985 . S
H2474 N2468 0.984 . S
H2475 N2468 0.984 . S
H2476 N2464 0.984 . S
H2477 N2464 0.985 . S
C2478 C2479 1.363 . S
C2478 C2484 1.379 . S
C2478 N2486 1.356 . S
C2479 C2478 1.363 . S
C2479 C2485 1.363 . S
C2480 C2481 1.363 . S
C2480 C2485 1.379 . S
C2480 N2487 1.356 . S
C2481 C2480 1.363 . S
C2481 C2484 1.363 . S
N2482 C2484 1.356 . S
N2482 H2494 0.984 . S
N2482 H2495 0.985 . S
N2483 C2485 1.356 . S
N2483 H2488 0.984 . S
N2483 H2489 0.985 . S
C2484 C2478 1.379 . S
C2484 C2481 1.363 . S
C2484 N2482 1.356 . S
C2485 C2479 1.363 . S
C2485 C2480 1.379 . S
C2485 N2483 1.356 . S
N2486 C2478 1.356 . S
N2486 H2492 0.984 . S
N2486 H2493 0.984 . S
N2487 C2480 1.356 . S
N2487 H2490 0.984 . S
N2487 H2491 0.985 . S
H2488 N2483 0.984 . S
H2489 N2483 0.985 . S
H2490 N2487 0.984 . S
H2491 N2487 0.985 . S
H2492 N2486 0.984 . S
H2493 N2486 0.984 . S
H2494 N2482 0.984 . S
H2495 N2482 0.985 . S
C1057 C28 1.569 . S
C1059 C820 1.569 . S
C1075 C325 1.569 . S
C1077 C61 1.569 . S
C1093 C886 1.569 . S
C1095 C94 1.569 . S
C1111 C391 1.569 . S
C1113 C127 1.569 . S
C1129 C952 1.569 . S
C1131 C160 1.569 . S
C1147 C457 1.569 . S
C1149 C193 1.569 . S
C1165 C1018 1.569 . S
C1167 C226 1.569 . S
C1183 C523 1.569 . S
C1185 C259 1.569 . S
C1201 C292 1.569 . S
C1203 C556 1.569 . S
C1219 C358 1.569 . S
C1221 C622 1.569 . S
C1237 C424 1.569 . S
C1239 C688 1.569 . S
C1255 C754 1.569 . S
C1257 C490 1.569 . S
C1273 C589 1.569 . S
C1275 C853 1.569 . S
C1291 C919 1.569 . S
C1293 C655 1.569 . S
C1309 C721 1.569 . S
C1311 C985 1.569 . S
C1327 C1051 1.569 . S
C1329 C787 1.569 . S
C1345 N5 1.324 . S
C1347 C380 1.363 . S
C1363 N38 1.324 . S
C1365 C809 1.363 . S
C1381 C314 1.363 . S
C1383 N71 1.324 . S
C1399 N104 1.324 . S
C1401 C875 1.363 . S
C1417 C446 1.363 . S
C1419 N137 1.324 . S
C1435 C1007 1.363 . S
C1437 N170 1.324 . S
C1453 N203 1.324 . S
C1455 C512 1.363 . S
C1471 C941 1.363 . S
C1473 N236 1.324 . S
C1489 N269 1.324 . S
C1491 C116 1.363 . S
C1507 N302 1.324 . S
C1509 C545 1.363 . S
C1525 C50 1.363 . S
C1527 N335 1.324 . S
C1543 N368 1.324 . S
C1545 C611 1.363 . S
C1561 N401 1.324 . S
C1563 C182 1.363 . S
C1579 C743 1.363 . S
C1581 N434 1.324 . S
C1597 C248 1.363 . S
C1599 N467 1.324 . S
C1615 N500 1.324 . S
C1617 C677 1.363 . S
C1633 C908 1.363 . S
C1635 N533 1.324 . S
C1651 C281 1.363 . S
C1653 N566 1.324 . S
C1669 C842 1.363 . S
C1671 N599 1.324 . S
C1687 N632 1.324 . S
C1689 C347 1.363 . S
C1705 C974 1.363 . S
C1707 N665 1.324 . S
C1723 C479 1.363 . S
C1725 N698 1.324 . S
C1741 N731 1.324 . S
C1743 C1040 1.363 . S
C1759 C413 1.363 . S
C1761 N764 1.324 . S
C1777 C644 1.363 . S
C1779 N797 1.324 . S
C1795 N830 1.324 . S
C1797 C17 1.363 . S
C1813 N863 1.324 . S
C1815 C578 1.363 . S
C1831 C83 1.363 . S
C1833 N896 1.324 . S
C1849 C710 1.363 . S
C1851 N929 1.324 . S
C1867 N962 1.324 . S
C1869 C215 1.363 . S
C1885 C776 1.363 . S
C1887 N995 1.324 . S
C1903 C149 1.363 . S
C1905 N1028 1.324 . S
C1921 C8 1.170 . S
C1923 C206 1.170 . S
C1939 C239 1.170 . S
C1941 C41 1.170 . S
C1957 C74 1.170 . S
C1959 C140 1.170 . S
C1975 C107 1.170 . S
C1977 C173 1.170 . S
C1993 C470 1.170 . S
C1995 C272 1.170 . S
C2011 C503 1.170 . S
C2013 C305 1.170 . S
C2029 C404 1.170 . S
C2031 C338 1.170 . S
C2047 C437 1.170 . S
C2049 C371 1.170 . S
C2065 C536 1.170 . S
C2067 C734 1.170 . S
C2083 C569 1.170 . S
C2085 C767 1.170 . S
C2101 C602 1.170 . S
C2103 C668 1.170 . S
C2119 C635 1.170 . S
C2121 C701 1.170 . S
C2137 C998 1.170 . S
C2139 C800 1.170 . S
C2155 C1031 1.170 . S
C2157 C833 1.170 . S
C2173 C866 1.170 . S
C2175 C932 1.170 . S
C2191 C899 1.170 . S
C2193 C965 1.170 . S
C2209 N14 1.787 . S
C2211 N707 1.787 . S
C2227 N47 1.787 . S
C2229 N740 1.787 . S
C2245 N80 1.788 . S
C2247 N773 1.788 . S
C2263 N113 1.787 . S
C2265 N674 1.787 . S
C2281 N641 1.787 . S
C2283 N146 1.787 . S
C2299 N179 1.787 . S
C2301 N542 1.787 . S
C2317 N575 1.788 . S
C2319 N212 1.788 . S
C2335 N245 1.787 . S
C2337 N608 1.787 . S
C2353 N971 1.787 . S
C2355 N278 1.787 . S
C2371 N311 1.787 . S
C2373 N1004 1.787 . S
C2389 N1037 1.788 . S
C2391 N344 1.788 . S
C2407 N377 1.787 . S
C2409 N938 1.787 . S
C2425 N410 1.787 . S
C2427 N905 1.787 . S
C2443 N806 1.787 . S
C2445 N443 1.787 . S
C2461 N476 1.788 . S
C2463 N839 1.788 . S
C2479 N509 1.787 . S
C2481 N872 1.787 . S
