# Generated by pormake.
# Topology uoy, (4)-cn, num edge types: 1
# Building blocks:
#     Node 0, Type 0, BuildingBlock: QUQFOY_clean_sbu_1, # of connection points: 4
#     Node 1, Type 0, BuildingBlock: QUQFOY_clean_sbu_1, # of connection points: 4
#     Node 2, Type 0, BuildingBlock: QUQFOY_clean_sbu_1, # of connection points: 4
#     Node 3, Type 0, BuildingBlock: QUQFOY_clean_sbu_1, # of connection points: 4
#     Node 4, Type 0, BuildingBlock: QUQFOY_clean_sbu_1, # of connection points: 4
#     Node 5, Type 0, BuildingBlock: QUQFOY_clean_sbu_1, # of connection points: 4
#     Node 6, Type 0, BuildingBlock: QUQFOY_clean_sbu_1, # of connection points: 4
#     Node 7, Type 0, BuildingBlock: QUQFOY_clean_sbu_1, # of connection points: 4
#     Node 8, Type 0, BuildingBlock: QUQFOY_clean_sbu_1, # of connection points: 4
#     Node 9, Type 0, BuildingBlock: QUQFOY_clean_sbu_1, # of connection points: 4
#     Node 10, Type 0, BuildingBlock: QUQFOY_clean_sbu_1, # of connection points: 4
#     Node 11, Type 0, BuildingBlock: QUQFOY_clean_sbu_1, # of connection points: 4
#     Node 12, Type 0, BuildingBlock: QUQFOY_clean_sbu_1, # of connection points: 4
#     Node 13, Type 0, BuildingBlock: QUQFOY_clean_sbu_1, # of connection points: 4
#     Node 14, Type 0, BuildingBlock: QUQFOY_clean_sbu_1, # of connection points: 4
#     Node 15, Type 0, BuildingBlock: QUQFOY_clean_sbu_1, # of connection points: 4
#     Edge 16, Type (0, 0), BuildingBlock: ZUJKAS_clean_linker_0, # of connection points: 2
#     Edge 17, Type (0, 0), BuildingBlock: ZUJKAS_clean_linker_0, # of connection points: 2
#     Edge 18, Type (0, 0), BuildingBlock: ZUJKAS_clean_linker_0, # of connection points: 2
#     Edge 19, Type (0, 0), BuildingBlock: ZUJKAS_clean_linker_0, # of connection points: 2
#     Edge 20, Type (0, 0), BuildingBlock: ZUJKAS_clean_linker_0, # of connection points: 2
#     Edge 21, Type (0, 0), BuildingBlock: ZUJKAS_clean_linker_0, # of connection points: 2
#     Edge 22, Type (0, 0), BuildingBlock: ZUJKAS_clean_linker_0, # of connection points: 2
#     Edge 23, Type (0, 0), BuildingBlock: ZUJKAS_clean_linker_0, # of connection points: 2
#     Edge 24, Type (0, 0), BuildingBlock: ZUJKAS_clean_linker_0, # of connection points: 2
#     Edge 25, Type (0, 0), BuildingBlock: ZUJKAS_clean_linker_0, # of connection points: 2
#     Edge 26, Type (0, 0), BuildingBlock: ZUJKAS_clean_linker_0, # of connection points: 2
#     Edge 27, Type (0, 0), BuildingBlock: ZUJKAS_clean_linker_0, # of connection points: 2
#     Edge 28, Type (0, 0), BuildingBlock: ZUJKAS_clean_linker_0, # of connection points: 2
#     Edge 29, Type (0, 0), BuildingBlock: ZUJKAS_clean_linker_0, # of connection points: 2
#     Edge 30, Type (0, 0), BuildingBlock: ZUJKAS_clean_linker_0, # of connection points: 2
#     Edge 31, Type (0, 0), BuildingBlock: ZUJKAS_clean_linker_0, # of connection points: 2
#     Edge 32, Type (0, 0), BuildingBlock: ZUJKAS_clean_linker_0, # of connection points: 2
#     Edge 33, Type (0, 0), BuildingBlock: ZUJKAS_clean_linker_0, # of connection points: 2
#     Edge 34, Type (0, 0), BuildingBlock: ZUJKAS_clean_linker_0, # of connection points: 2
#     Edge 35, Type (0, 0), BuildingBlock: ZUJKAS_clean_linker_0, # of connection points: 2
#     Edge 36, Type (0, 0), BuildingBlock: ZUJKAS_clean_linker_0, # of connection points: 2
#     Edge 37, Type (0, 0), BuildingBlock: ZUJKAS_clean_linker_0, # of connection points: 2
#     Edge 38, Type (0, 0), BuildingBlock: ZUJKAS_clean_linker_0, # of connection points: 2
#     Edge 39, Type (0, 0), BuildingBlock: ZUJKAS_clean_linker_0, # of connection points: 2
#     Edge 40, Type (0, 0), BuildingBlock: ZUJKAS_clean_linker_0, # of connection points: 2
#     Edge 41, Type (0, 0), BuildingBlock: ZUJKAS_clean_linker_0, # of connection points: 2
#     Edge 42, Type (0, 0), BuildingBlock: ZUJKAS_clean_linker_0, # of connection points: 2
#     Edge 43, Type (0, 0), BuildingBlock: ZUJKAS_clean_linker_0, # of connection points: 2
#     Edge 44, Type (0, 0), BuildingBlock: ZUJKAS_clean_linker_0, # of connection points: 2
#     Edge 45, Type (0, 0), BuildingBlock: ZUJKAS_clean_linker_0, # of connection points: 2
#     Edge 46, Type (0, 0), BuildingBlock: ZUJKAS_clean_linker_0, # of connection points: 2
#     Edge 47, Type (0, 0), BuildingBlock: ZUJKAS_clean_linker_0, # of connection points: 2
# Relax obj value: 0.056
# Max RMSD: 0.100
# Mean RMSD: 0.100
data_MOF--net-uoy--node1-QUQFOY_clean_sbu_1--edge1-ZUJKAS_clean_linker_0
_symmetry_space_group_name_H-M    P1
_symmetry_Int_Tables_number       1
_symmetry_cell_setting            triclinic
loop_
_symmetry_equiv_pos_as_xyz
'x, y, z'
_cell_length_a     36.197531
_cell_length_b     36.182261
_cell_length_c     145.80552
_cell_angle_alpha  89.963282
_cell_angle_beta   89.988037
_cell_angle_gamma 90.00441
loop_
_atom_site_label
_atom_site_type_symbol
_atom_site_fract_x
_atom_site_fract_y
_atom_site_fract_z
_atom_type_partial_charge
O0 O 0.24811 0.12906 0.21194 0.0
Cd1 Cd 0.24829 0.09837 0.19996 0.0
Cd2 Cd 0.27797 0.1608 0.19339 0.0
O3 O 0.26626 0.1824 0.20618 0.0
O4 O 0.21236 0.05739 0.2022 0.0
O5 O 0.20402 0.10028 0.1916 0.0
C6 C 0.19185 0.07143 0.19586 0.0
C7 C 0.25881 0.18882 0.17978 0.0
C8 C 0.25565 0.16313 0.21298 0.0
C9 C 0.32667 0.09354 0.19352 0.0
O10 O 0.3246 0.12835 0.19246 0.0
O11 O 0.2983 0.07522 0.19598 0.0
O12 O 0.28523 0.20258 0.18464 0.0
O13 O 0.24214 0.15978 0.18287 0.0
O14 O 0.88354 0.74818 0.46195 0.0
Cd15 Cd 0.91481 0.74879 0.45006 0.0
Cd16 Cd 0.85273 0.77947 0.44343 0.0
O17 O 0.83098 0.76895 0.45629 0.0
O18 O 0.95531 0.71239 0.45232 0.0
O19 O 0.91298 0.70493 0.44156 0.0
C20 C 0.94147 0.6923 0.44588 0.0
C21 C 0.82357 0.76098 0.4299 0.0
C22 C 0.8498 0.75703 0.46303 0.0
C23 C 0.92098 0.82713 0.44366 0.0
O24 O 0.88633 0.8252 0.44236 0.0
O25 O 0.93882 0.79878 0.44633 0.0
O26 O 0.81144 0.7885 0.43465 0.0
O27 O 0.85154 0.7428 0.43306 0.0
O28 O 0.2576 0.39317 0.7121 0.0
Cd29 Cd 0.26082 0.41939 0.69954 0.0
Cd30 Cd 0.23677 0.35437 0.69367 0.0
O31 O 0.25006 0.33665 0.70678 0.0
O32 O 0.29566 0.46178 0.70107 0.0
O33 O 0.3073 0.41377 0.69213 0.0
C34 C 0.318 0.44481 0.6956 0.0
C35 C 0.25761 0.3241 0.68052 0.0
C36 C 0.25492 0.35857 0.71349 0.0
C37 C 0.18445 0.41865 0.69216 0.0
O38 O 0.18806 0.38369 0.69214 0.0
O39 O 0.21181 0.43916 0.69418 0.0
O40 O 0.23219 0.30995 0.68563 0.0
O41 O 0.27237 0.3549 0.68309 0.0
O42 O 0.63448 0.76131 0.96253 0.0
Cd43 Cd 0.60031 0.76256 0.95123 0.0
Cd44 Cd 0.65985 0.73261 0.94295 0.0
O45 O 0.68396 0.73828 0.9558 0.0
O46 O 0.5612 0.79957 0.95417 0.0
O47 O 0.60104 0.80669 0.9428 0.0
C48 C 0.57381 0.81962 0.94755 0.0
C49 C 0.68952 0.7529 0.92962 0.0
C50 C 0.66776 0.75021 0.96296 0.0
C51 C 0.59045 0.68642 0.94367 0.0
O52 O 0.62402 0.68884 0.94118 0.0
O53 O 0.57479 0.71328 0.94774 0.0
O54 O 0.70022 0.72362 0.93391 0.0
O55 O 0.66267 0.77171 0.93313 0.0
O56 O 0.24968 0.38675 0.056 0.0
Cd57 Cd 0.25022 0.41462 0.06838 0.0
Cd58 Cd 0.27932 0.35075 0.07419 0.0
O59 O 0.26699 0.33211 0.06115 0.0
O60 O 0.21519 0.45686 0.06686 0.0
O61 O 0.20531 0.41061 0.07647 0.0
C62 C 0.19392 0.44099 0.07277 0.0
C63 C 0.25909 0.32089 0.08746 0.0
C64 C 0.25658 0.35276 0.05458 0.0
C65 C 0.32865 0.41719 0.07498 0.0
O66 O 0.32645 0.3822 0.07554 0.0
O67 O 0.30037 0.43615 0.07278 0.0
O68 O 0.28522 0.30723 0.08248 0.0
O69 O 0.24334 0.35091 0.08468 0.0
O70 O 0.62494 0.75201 0.30615 0.0
Cd71 Cd 0.5964 0.75046 0.31845 0.0
Cd72 Cd 0.65935 0.78017 0.32453 0.0
O73 O 0.67929 0.76897 0.31153 0.0
O74 O 0.55475 0.71513 0.3165 0.0
O75 O 0.60024 0.70473 0.32628 0.0
C76 C 0.5702 0.69351 0.3224 0.0
C77 C 0.68915 0.7609 0.3379 0.0
C78 C 0.65893 0.75928 0.30483 0.0
C79 C 0.59167 0.82818 0.32523 0.0
O80 O 0.62665 0.82656 0.32584 0.0
O81 O 0.5733 0.79963 0.32296 0.0
O82 O 0.70164 0.78808 0.33307 0.0
O83 O 0.66047 0.74346 0.33489 0.0
O84 O 0.26403 0.13309 0.55587 0.0
Cd85 Cd 0.26432 0.10031 0.56749 0.0
Cd86 Cd 0.23503 0.16128 0.57503 0.0
O87 O 0.24445 0.18464 0.56229 0.0
O88 O 0.30058 0.06011 0.56485 0.0
O89 O 0.30856 0.10133 0.57586 0.0
C90 C 0.32098 0.07331 0.57132 0.0
C91 C 0.25472 0.18942 0.58858 0.0
C92 C 0.25535 0.16706 0.55524 0.0
C93 C 0.18676 0.09357 0.57446 0.0
O94 O 0.18913 0.1279 0.57621 0.0
O95 O 0.21452 0.07622 0.57126 0.0
O96 O 0.22737 0.20244 0.58391 0.0
O97 O 0.27196 0.16102 0.58534 0.0
O98 O 0.88495 0.76317 0.80619 0.0
Cd99 Cd 0.91556 0.76482 0.81813 0.0
Cd100 Cd 0.85375 0.73432 0.82499 0.0
O101 O 0.83251 0.74255 0.81194 0.0
O102 O 0.9556 0.80151 0.81571 0.0
O103 O 0.9128 0.80944 0.82635 0.0
C104 C 0.94134 0.82197 0.82203 0.0
C105 C 0.82347 0.75469 0.8382 0.0
C106 C 0.85141 0.75364 0.80511 0.0
C107 C 0.92293 0.68787 0.82536 0.0
O108 O 0.8883 0.6895 0.82675 0.0
O109 O 0.94015 0.71584 0.82223 0.0
O110 O 0.81198 0.72625 0.83369 0.0
O111 O 0.85143 0.77266 0.83496 0.0
O112 O 0.75336 0.62496 0.71162 0.0
Cd113 Cd 0.75074 0.59662 0.69932 0.0
Cd114 Cd 0.78084 0.65924 0.69309 0.0
O115 O 0.77079 0.67908 0.70617 0.0
O116 O 0.71484 0.55552 0.70134 0.0
O117 O 0.70486 0.60129 0.69159 0.0
C118 C 0.6933 0.57137 0.69549 0.0
C119 C 0.76064 0.68963 0.67988 0.0
C120 C 0.76119 0.65885 0.7129 0.0
C121 C 0.82778 0.5908 0.69214 0.0
O122 O 0.8266 0.62582 0.6915 0.0
O123 O 0.79922 0.57287 0.69461 0.0
O124 O 0.7884 0.7017 0.68455 0.0
O125 O 0.74326 0.66098 0.68295 0.0
O126 O 0.37967 0.25116 0.96229 0.0
Cd127 Cd 0.41443 0.24978 0.9511 0.0
Cd128 Cd 0.35555 0.28004 0.94261 0.0
O129 O 0.33088 0.27485 0.95539 0.0
O130 O 0.45318 0.21254 0.95415 0.0
O131 O 0.41389 0.20573 0.94266 0.0
C132 C 0.44081 0.19262 0.94749 0.0
C133 C 0.32563 0.25999 0.92931 0.0
C134 C 0.34652 0.26267 0.96261 0.0
C135 C 0.42522 0.32576 0.94348 0.0
O136 O 0.39184 0.32344 0.94084 0.0
O137 O 0.4404 0.29894 0.94768 0.0
O138 O 0.31541 0.28953 0.93355 0.0
O139 O 0.35222 0.24086 0.93283 0.0
O140 O 0.76034 0.8856 0.21164 0.0
Cd141 Cd 0.76182 0.91595 0.19962 0.0
Cd142 Cd 0.73301 0.85336 0.19292 0.0
O143 O 0.74295 0.83206 0.20586 0.0
O144 O 0.79815 0.95649 0.20191 0.0
O145 O 0.8066 0.91316 0.19144 0.0
C146 C 0.81885 0.94201 0.19567 0.0
C147 C 0.7528 0.82385 0.17955 0.0
C148 C 0.75262 0.85157 0.21271 0.0
C149 C 0.68446 0.92113 0.1927 0.0
O150 O 0.68684 0.88636 0.19159 0.0
O151 O 0.71242 0.9395 0.19538 0.0
O152 O 0.72514 0.81155 0.18422 0.0
O153 O 0.77031 0.85226 0.18269 0.0
O154 O 0.12981 0.26515 0.4622 0.0
Cd155 Cd 0.0989 0.26382 0.45026 0.0
Cd156 Cd 0.16136 0.23376 0.44374 0.0
O157 O 0.18277 0.24543 0.45654 0.0
O158 O 0.0577 0.29958 0.45239 0.0
O159 O 0.10031 0.30762 0.44171 0.0
C160 C 0.07148 0.31984 0.44596 0.0
C161 C 0.18948 0.25312 0.43017 0.0
C162 C 0.16372 0.25703 0.46328 0.0
C163 C 0.09427 0.18496 0.44403 0.0
O164 O 0.12898 0.18712 0.44284 0.0
O165 O 0.07599 0.21331 0.44652 0.0
O166 O 0.20322 0.22664 0.43502 0.0
O167 O 0.16038 0.26969 0.43324 0.0
O168 O 0.75204 0.88192 0.55579 0.0
Cd169 Cd 0.75118 0.91502 0.56732 0.0
Cd170 Cd 0.78107 0.85446 0.57505 0.0
O171 O 0.77318 0.83098 0.56224 0.0
O172 O 0.71438 0.95462 0.56459 0.0
O173 O 0.70701 0.91376 0.57573 0.0
C174 C 0.69422 0.94145 0.57112 0.0
C175 C 0.76143 0.82518 0.58849 0.0
C176 C 0.76177 0.84824 0.55518 0.0
C177 C 0.82817 0.92327 0.57447 0.0
O178 O 0.82593 0.88913 0.57646 0.0
O179 O 0.8006 0.94 0.57099 0.0
O180 O 0.78994 0.81373 0.58401 0.0
O181 O 0.74303 0.85262 0.58512 0.0
O182 O 0.12522 0.25552 0.80613 0.0
Cd183 Cd 0.0953 0.25257 0.81815 0.0
Cd184 Cd 0.15814 0.27946 0.82511 0.0
O185 O 0.17932 0.26988 0.8121 0.0
O186 O 0.05488 0.21617 0.81584 0.0
O187 O 0.09874 0.20746 0.82618 0.0
C188 C 0.06972 0.1953 0.822 0.0
C189 C 0.18814 0.2587 0.83833 0.0
C190 C 0.1595 0.2621 0.80516 0.0
C191 C 0.09073 0.32886 0.82559 0.0
O192 O 0.12542 0.32589 0.82676 0.0
O193 O 0.07215 0.30152 0.82262 0.0
O194 O 0.20038 0.28657 0.83372 0.0
O195 O 0.15946 0.24158 0.83521 0.0
O196 O 0.76363 0.625 0.05642 0.0
Cd197 Cd 0.76326 0.59572 0.06861 0.0
Cd198 Cd 0.73356 0.65891 0.0748 0.0
O199 O 0.74443 0.67871 0.06176 0.0
O200 O 0.79853 0.5539 0.06681 0.0
O201 O 0.80802 0.59894 0.07678 0.0
C202 C 0.81956 0.56903 0.07288 0.0
C203 C 0.75355 0.68888 0.08808 0.0
C204 C 0.75559 0.65883 0.05512 0.0
C205 C 0.68515 0.59141 0.0753 0.0
O206 O 0.68729 0.62627 0.07623 0.0
O207 O 0.71331 0.57299 0.07278 0.0
O208 O 0.72617 0.70137 0.08333 0.0
O209 O 0.7707 0.66004 0.08505 0.0
O210 O 0.38538 0.26047 0.30578 0.0
Cd211 Cd 0.41445 0.2621 0.31799 0.0
Cd212 Cd 0.35132 0.23479 0.32456 0.0
O213 O 0.33101 0.24625 0.31161 0.0
O214 O 0.45605 0.29754 0.31605 0.0
O215 O 0.41043 0.30768 0.32582 0.0
C216 C 0.44042 0.31909 0.32193 0.0
C217 C 0.32181 0.25484 0.3379 0.0
C218 C 0.35101 0.25451 0.30473 0.0
C219 C 0.41758 0.18482 0.32513 0.0
O220 O 0.38269 0.18748 0.32591 0.0
O221 O 0.43656 0.21267 0.32264 0.0
O222 O 0.30829 0.2285 0.33297 0.0
O223 O 0.35153 0.27092 0.33504 0.0
H224 H 0.27951 0.25307 0.09389 0.0
H225 H 0.27069 0.22841 0.10934 0.0
H226 H 0.21059 0.32671 0.11692 0.0
H227 H 0.21833 0.35104 0.10139 0.0
H228 H 0.29831 0.25794 0.12439 0.0
H229 H 0.14649 0.24846 0.12839 0.0
H230 H 0.16835 0.25494 0.11737 0.0
H231 H 0.16141 0.29365 0.12493 0.0
C232 C 0.26375 0.26912 0.09879 0.0
C233 C 0.24965 0.30404 0.09642 0.0
C234 C 0.25876 0.255 0.10763 0.0
C235 C 0.23971 0.27551 0.1143 0.0
C236 C 0.22462 0.30993 0.11186 0.0
H237 H 0.28276 0.25402 0.17248 0.0
H238 H 0.27509 0.27585 0.15673 0.0
C239 C 0.22927 0.32392 0.10298 0.0
C240 C 0.23899 0.2625 0.12397 0.0
H241 H 0.18227 0.24422 0.14217 0.0
C242 C 0.27286 0.2547 0.12825 0.0
C243 C 0.20581 0.25794 0.129 0.0
C244 C 0.16844 0.26382 0.12466 0.0
C245 C 0.27459 0.24303 0.13741 0.0
C246 C 0.24158 0.24005 0.14256 0.0
C247 C 0.20758 0.24708 0.13826 0.0
C248 C 0.24211 0.22916 0.15238 0.0
C249 C 0.31183 0.23344 0.14142 0.0
C250 C 0.22439 0.1967 0.1553 0.0
C251 C 0.22831 0.18437 0.16435 0.0
C252 C 0.25011 0.20429 0.17062 0.0
C253 C 0.26614 0.23781 0.16779 0.0
C254 C 0.26195 0.25024 0.15878 0.0
H255 H 0.33244 0.22718 0.13599 0.0
H256 H 0.32227 0.25732 0.14543 0.0
H257 H 0.30986 0.20923 0.14608 0.0
H258 H 0.20873 0.18015 0.15048 0.0
H259 H 0.21554 0.15848 0.16632 0.0
H260 H 0.83844 0.70184 0.41869 0.0
H261 H 0.8151 0.69117 0.40313 0.0
H262 H 0.75021 0.79091 0.4049 0.0
H263 H 0.77229 0.801 0.42049 0.0
H264 H 0.71194 0.73725 0.39676 0.0
H265 H 0.85125 0.74646 0.38093 0.0
H266 H 0.8465 0.7104 0.3893 0.0
H267 H 0.84296 0.75796 0.39278 0.0
C268 C 0.81893 0.72128 0.41578 0.0
C269 C 0.8074 0.75239 0.42081 0.0
C270 C 0.80585 0.71532 0.40686 0.0
C271 C 0.78152 0.74068 0.40275 0.0
C272 C 0.76906 0.77101 0.40789 0.0
H273 H 0.74215 0.79963 0.34706 0.0
H274 H 0.76447 0.78952 0.36263 0.0
C275 C 0.78176 0.77676 0.41682 0.0
C276 C 0.76949 0.73658 0.39305 0.0
H277 H 0.80129 0.73524 0.37098 0.0
C278 C 0.73147 0.73654 0.39112 0.0
C279 C 0.79501 0.73605 0.38568 0.0
C280 C 0.83619 0.73805 0.38724 0.0
C281 C 0.71824 0.73705 0.38206 0.0
C282 C 0.74376 0.73642 0.37469 0.0
C283 C 0.78176 0.73541 0.37663 0.0
C284 C 0.7318 0.7403 0.36498 0.0
C285 C 0.67713 0.74017 0.3805 0.0
C286 C 0.70669 0.71543 0.36098 0.0
C287 C 0.69348 0.72142 0.35207 0.0
C288 C 0.70565 0.75204 0.34694 0.0
C289 C 0.73215 0.7758 0.35081 0.0
C290 C 0.74499 0.77003 0.35972 0.0
H291 H 0.66234 0.74937 0.38677 0.0
H292 H 0.67093 0.75996 0.37488 0.0
H293 H 0.666 0.71272 0.37854 0.0
H294 H 0.69685 0.69173 0.3648 0.0
H295 H 0.6733 0.70244 0.34926 0.0
H296 H 0.29986 0.16002 0.6018 0.0
H297 H 0.30757 0.18184 0.6176 0.0
H298 H 0.23851 0.27598 0.61169 0.0
H299 H 0.22998 0.25402 0.596 0.0
H300 H 0.33317 0.24691 0.62576 0.0
H301 H 0.18411 0.22555 0.63272 0.0
H302 H 0.20638 0.20813 0.62253 0.0
H303 H 0.1926 0.25584 0.6232 0.0
C304 C 0.2867 0.18561 0.60383 0.0
C305 C 0.2639 0.20504 0.59768 0.0
C306 C 0.29113 0.19803 0.61286 0.0
C307 C 0.27292 0.23007 0.61587 0.0
C308 C 0.25206 0.25069 0.60957 0.0
H309 H 0.29673 0.35456 0.66633 0.0
H310 H 0.30435 0.32946 0.65087 0.0
C311 C 0.24737 0.23818 0.60059 0.0
C312 C 0.27399 0.24097 0.62568 0.0
H313 H 0.21823 0.25769 0.64409 0.0
C314 C 0.30811 0.2491 0.6298 0.0
C315 C 0.24133 0.2431 0.63099 0.0
C316 C 0.20407 0.23234 0.62717 0.0
C317 C 0.3103 0.26029 0.63902 0.0
C318 C 0.27741 0.26404 0.6442 0.0
C319 C 0.24344 0.25508 0.64012 0.0
C320 C 0.27705 0.27754 0.65383 0.0
C321 C 0.34781 0.26745 0.64316 0.0
C322 C 0.2591 0.25685 0.66066 0.0
C323 C 0.25417 0.27138 0.66945 0.0
C324 C 0.26724 0.3069 0.67162 0.0
C325 C 0.28661 0.32699 0.6649 0.0
C326 C 0.29119 0.31256 0.65606 0.0
H327 H 0.3699 0.25255 0.63937 0.0
H328 H 0.35396 0.29745 0.64276 0.0
H329 H 0.34873 0.25892 0.65047 0.0
H330 H 0.2479 0.22979 0.65911 0.0
H331 H 0.23921 0.25517 0.67447 0.0
H332 H 0.76924 0.71772 0.84739 0.0
H333 H 0.74605 0.72974 0.86278 0.0
H334 H 0.81599 0.82594 0.86475 0.0
H335 H 0.84023 0.81344 0.84936 0.0
H336 H 0.82253 0.78398 0.87961 0.0
H337 H 0.67391 0.80336 0.87274 0.0
H338 H 0.68982 0.76061 0.86796 0.0
H339 H 0.708 0.80371 0.8637 0.0
C340 C 0.77932 0.74181 0.85102 0.0
C341 C 0.80656 0.76466 0.84713 0.0
C342 C 0.76578 0.74881 0.85982 0.0
C343 C 0.77872 0.77915 0.86489 0.0
C344 C 0.80539 0.80251 0.86095 0.0
H345 H 0.67376 0.81285 0.91874 0.0
H346 H 0.69777 0.82588 0.90334 0.0
C347 C 0.81916 0.79537 0.85214 0.0
C348 C 0.76659 0.78437 0.87455 0.0
H349 H 0.68998 0.78519 0.88822 0.0
C350 C 0.79354 0.78491 0.88148 0.0
C351 C 0.72882 0.78633 0.87703 0.0
C352 C 0.69854 0.7889 0.86995 0.0
C353 C 0.78372 0.78515 0.8908 0.0
C354 C 0.74591 0.78387 0.89327 0.0
C355 C 0.71898 0.78558 0.88635 0.0
C356 C 0.73371 0.77809 0.90291 0.0
C357 C 0.81404 0.78643 0.89789 0.0
C358 C 0.74591 0.74698 0.9078 0.0
C359 C 0.73251 0.73966 0.9166 0.0
C360 C 0.70612 0.76299 0.92066 0.0
C361 C 0.69418 0.79442 0.91581 0.0
C362 C 0.70782 0.80185 0.90701 0.0
H363 H 0.83902 0.8005 0.89516 0.0
H364 H 0.80494 0.801 0.9042 0.0
H365 H 0.82206 0.75779 0.89975 0.0
H366 H 0.76503 0.72762 0.90471 0.0
H367 H 0.74207 0.71503 0.92009 0.0
H368 H 0.7994 0.77232 0.5979 0.0
H369 H 0.78734 0.74925 0.6133 0.0
H370 H 0.68972 0.81727 0.61498 0.0
H371 H 0.70226 0.84143 0.59957 0.0
H372 H 0.73063 0.82435 0.63002 0.0
H373 H 0.71454 0.67549 0.6229 0.0
H374 H 0.75724 0.69231 0.61828 0.0
H375 H 0.71406 0.70977 0.6139 0.0
C376 C 0.77503 0.78204 0.60147 0.0
C377 C 0.75173 0.80867 0.59748 0.0
C378 C 0.76801 0.76857 0.61027 0.0
C379 C 0.73721 0.78092 0.61526 0.0
C380 C 0.71351 0.8071 0.61124 0.0
H381 H 0.70221 0.67292 0.66863 0.0
H382 H 0.68985 0.69756 0.65327 0.0
C383 C 0.72066 0.82083 0.60243 0.0
C384 C 0.73167 0.76851 0.62489 0.0
H385 H 0.73147 0.69154 0.63844 0.0
C386 C 0.73017 0.79529 0.63185 0.0
C387 C 0.73028 0.73064 0.62731 0.0
C388 C 0.72869 0.70046 0.62018 0.0
C389 C 0.72949 0.78524 0.64115 0.0
C390 C 0.73135 0.74739 0.64358 0.0
C391 C 0.73064 0.72059 0.63662 0.0
C392 C 0.73652 0.73499 0.65323 0.0
C393 C 0.72703 0.81538 0.64827 0.0
C394 C 0.76674 0.74787 0.65835 0.0
C395 C 0.77363 0.73413 0.66714 0.0
C396 C 0.75082 0.7067 0.67096 0.0
C397 C 0.72025 0.69412 0.66589 0.0
C398 C 0.71319 0.70813 0.6571 0.0
H399 H 0.71256 0.84009 0.64552 0.0
H400 H 0.7123 0.80581 0.65452 0.0
H401 H 0.75534 0.82406 0.65025 0.0
H402 H 0.7858 0.76773 0.65543 0.0
H403 H 0.79763 0.74419 0.67081 0.0
H404 H 0.2736 0.29848 0.91976 0.0
H405 H 0.24984 0.28561 0.90448 0.0
H406 H 0.3152 0.18606 0.90326 0.0
H407 H 0.34004 0.19935 0.91856 0.0
H408 H 0.32307 0.2258 0.88798 0.0
H409 H 0.1741 0.2137 0.89538 0.0
H410 H 0.192 0.25628 0.89981 0.0
H411 H 0.20856 0.21296 0.90433 0.0
C412 C 0.28259 0.27352 0.91632 0.0
C413 C 0.30868 0.24989 0.9204 0.0
C414 C 0.26871 0.26605 0.90758 0.0
C415 C 0.28013 0.23448 0.90277 0.0
C416 C 0.30575 0.21044 0.90687 0.0
H417 H 0.17033 0.20056 0.8496 0.0
H418 H 0.19498 0.18754 0.86492 0.0
C419 C 0.31987 0.21803 0.91562 0.0
C420 C 0.2674 0.22848 0.89319 0.0
H421 H 0.19019 0.22963 0.87975 0.0
C422 C 0.29398 0.22596 0.8862 0.0
C423 C 0.22947 0.2279 0.89083 0.0
C424 C 0.19944 0.22743 0.89801 0.0
C425 C 0.28371 0.22517 0.87691 0.0
C426 C 0.24588 0.22793 0.87453 0.0
C427 C 0.21923 0.22811 0.88154 0.0
C428 C 0.23345 0.23336 0.86491 0.0
C429 C 0.3136 0.22175 0.86975 0.0
C430 C 0.24691 0.26332 0.85977 0.0
C431 C 0.23314 0.2706 0.85101 0.0
C432 C 0.20512 0.24844 0.84723 0.0
C433 C 0.19198 0.2181 0.85231 0.0
C434 C 0.206 0.21066 0.86107 0.0
H435 H 0.33797 0.20669 0.87249 0.0
H436 H 0.30351 0.20711 0.86354 0.0
H437 H 0.32297 0.24978 0.86771 0.0
H438 H 0.26726 0.2819 0.86266 0.0
H439 H 0.24366 0.29439 0.84733 0.0
H440 H 0.71638 0.74319 0.09717 0.0
H441 H 0.72794 0.76644 0.11258 0.0
H442 H 0.82388 0.69628 0.11478 0.0
H443 H 0.81173 0.67188 0.09939 0.0
H444 H 0.78244 0.69017 0.12959 0.0
H445 H 0.80089 0.8388 0.12253 0.0
H446 H 0.7581 0.82275 0.11781 0.0
H447 H 0.80116 0.80461 0.11352 0.0
C448 C 0.74031 0.73307 0.10086 0.0
C449 C 0.76319 0.70572 0.09704 0.0
C450 C 0.74705 0.74664 0.10967 0.0
C451 C 0.77721 0.7337 0.1148 0.0
C452 C 0.80058 0.70689 0.11093 0.0
H453 H 0.81141 0.8406 0.16834 0.0
H454 H 0.82376 0.81636 0.15294 0.0
C455 C 0.79365 0.69303 0.10213 0.0
C456 C 0.78232 0.74605 0.12445 0.0
H457 H 0.78285 0.82293 0.13802 0.0
C458 C 0.78317 0.71921 0.13142 0.0
C459 C 0.78406 0.78389 0.12689 0.0
C460 C 0.78643 0.8141 0.11977 0.0
C461 C 0.78359 0.7292 0.14073 0.0
C462 C 0.78207 0.76705 0.14315 0.0
C463 C 0.78339 0.79388 0.13619 0.0
C464 C 0.77672 0.77942 0.15279 0.0
C465 C 0.78545 0.69897 0.14785 0.0
C466 C 0.74625 0.76673 0.15786 0.0
C467 C 0.73937 0.78021 0.16667 0.0
C468 C 0.76244 0.80722 0.17057 0.0
C469 C 0.79318 0.81971 0.16554 0.0
C470 C 0.80023 0.80594 0.15673 0.0
H471 H 0.79977 0.67414 0.14512 0.0
H472 H 0.80005 0.70832 0.15413 0.0
H473 H 0.75698 0.69057 0.14975 0.0
H474 H 0.72703 0.74716 0.15489 0.0
H475 H 0.71524 0.77025 0.1703 0.0
H476 H 0.15919 0.29633 0.41669 0.0
H477 H 0.18123 0.30355 0.40089 0.0
H478 H 0.27724 0.23786 0.40727 0.0
H479 H 0.25503 0.22975 0.42297 0.0
H480 H 0.24523 0.33064 0.3927 0.0
H481 H 0.22962 0.1803 0.38644 0.0
H482 H 0.21128 0.20263 0.39651 0.0
H483 H 0.25948 0.19069 0.39591 0.0
C484 C 0.18522 0.2838 0.41475 0.0
C485 C 0.20512 0.26205 0.42104 0.0
C486 C 0.19777 0.28796 0.40573 0.0
C487 C 0.23044 0.27053 0.40285 0.0
C488 C 0.25148 0.25076 0.40928 0.0
H489 H 0.35206 0.2957 0.35181 0.0
H490 H 0.328 0.30315 0.36738 0.0
C491 C 0.23883 0.24632 0.41827 0.0
C492 C 0.24155 0.27126 0.39305 0.0
H493 H 0.26007 0.21487 0.37487 0.0
C494 C 0.24835 0.30538 0.38877 0.0
C495 C 0.24489 0.23831 0.38789 0.0
C496 C 0.23558 0.20094 0.39188 0.0
C497 C 0.25925 0.30735 0.37952 0.0
C498 C 0.26409 0.27425 0.37448 0.0
C499 C 0.25661 0.24025 0.37874 0.0
C500 C 0.27694 0.27376 0.36479 0.0
C501 C 0.26485 0.34483 0.3752 0.0
C502 C 0.25639 0.25468 0.35814 0.0
C503 C 0.27035 0.24986 0.34929 0.0
C504 C 0.30513 0.26417 0.34688 0.0
C505 C 0.32504 0.2846 0.35343 0.0
C506 C 0.3112 0.28908 0.36233 0.0
H507 H 0.24946 0.36666 0.37896 0.0
H508 H 0.29464 0.352 0.37544 0.0
H509 H 0.25583 0.34496 0.36792 0.0
H510 H 0.22991 0.24258 0.35987 0.0
H511 H 0.25428 0.23407 0.3444 0.0
H512 H 0.22792 0.13238 0.22867 0.0
H513 H 0.23533 0.15469 0.24436 0.0
H514 H 0.29167 0.2516 0.2343 0.0
H515 H 0.28374 0.22986 0.21855 0.0
H516 H 0.30202 0.16418 0.25235 0.0
H517 H 0.22416 0.29604 0.2536 0.0
H518 H 0.21783 0.26253 0.24456 0.0
H519 H 0.25654 0.29368 0.2443 0.0
C520 C 0.24123 0.15883 0.22976 0.0
C521 C 0.25537 0.17925 0.22234 0.0
C522 C 0.24544 0.17154 0.23875 0.0
C523 C 0.26381 0.20495 0.24052 0.0
C524 C 0.27671 0.22614 0.2331 0.0
H525 H 0.3864 0.26839 0.28851 0.0
H526 H 0.36247 0.25923 0.273 0.0
C527 C 0.27231 0.21354 0.22409 0.0
C528 C 0.273 0.21538 0.2501 0.0
H529 H 0.26608 0.28452 0.26601 0.0
C530 C 0.29382 0.19036 0.25535 0.0
C531 C 0.2623 0.24955 0.25402 0.0
C532 C 0.23867 0.27687 0.24886 0.0
C533 C 0.30487 0.19885 0.26432 0.0
C534 C 0.29508 0.23333 0.26813 0.0
C535 C 0.27369 0.25819 0.263 0.0
C536 C 0.30763 0.24376 0.27742 0.0
C537 C 0.32723 0.17105 0.26968 0.0
C538 C 0.28433 0.23888 0.28501 0.0
C539 C 0.29792 0.24393 0.29391 0.0
C540 C 0.33506 0.25397 0.29535 0.0
C541 C 0.35773 0.26054 0.28767 0.0
C542 C 0.34413 0.2554 0.2788 0.0
H543 H 0.32922 0.14401 0.2661 0.0
H544 H 0.35559 0.18192 0.27074 0.0
H545 H 0.31471 0.16661 0.27655 0.0
H546 H 0.25609 0.22974 0.28405 0.0
H547 H 0.27968 0.23868 0.29966 0.0
H548 H 0.87641 0.72145 0.47819 0.0
H549 H 0.85465 0.72702 0.49398 0.0
H550 H 0.76651 0.79859 0.48497 0.0
H551 H 0.7874 0.79217 0.46912 0.0
H552 H 0.85422 0.78885 0.50349 0.0
H553 H 0.7113 0.73468 0.50273 0.0
H554 H 0.74349 0.72714 0.49346 0.0
H555 H 0.71858 0.77009 0.49431 0.0
C556 C 0.85191 0.73775 0.47954 0.0
C557 C 0.83367 0.7564 0.47238 0.0
C558 C 0.8395 0.74092 0.48858 0.0
C559 C 0.8087 0.76293 0.49069 0.0
C560 C 0.78974 0.78068 0.48352 0.0
H561 H 0.73259 0.87405 0.5391 0.0
H562 H 0.74177 0.84906 0.52369 0.0
C563 C 0.80188 0.77716 0.47445 0.0
C564 C 0.79898 0.77039 0.50043 0.0
H565 H 0.72759 0.77178 0.51581 0.0
C566 C 0.82665 0.78455 0.50621 0.0
C567 C 0.76295 0.76497 0.50399 0.0
C568 C 0.73249 0.74804 0.49832 0.0
C569 C 0.8191 0.79436 0.51532 0.0
C570 C 0.78295 0.78976 0.51879 0.0
C571 C 0.7553 0.77522 0.5131 0.0
C572 C 0.77333 0.80173 0.52821 0.0
C573 C 0.84955 0.81069 0.52111 0.0
C574 C 0.78716 0.78273 0.53587 0.0
C575 C 0.78186 0.79684 0.54471 0.0
C576 C 0.76284 0.83035 0.54602 0.0
C577 C 0.74755 0.84831 0.53834 0.0
C578 C 0.75266 0.83404 0.52952 0.0
H579 H 0.87454 0.81738 0.517 0.0
H580 H 0.83983 0.83625 0.52457 0.0
H581 H 0.85751 0.79062 0.52652 0.0
H582 H 0.80305 0.75762 0.53497 0.0
H583 H 0.79398 0.78229 0.55046 0.0
H584 H 0.26883 0.28798 0.7195 0.0
H585 H 0.263 0.26434 0.73519 0.0
H586 H 0.23128 0.37301 0.74451 0.0
H587 H 0.23912 0.39704 0.72902 0.0
H588 H 0.27352 0.34308 0.75666 0.0
H589 H 0.16758 0.23931 0.74694 0.0
H590 H 0.21124 0.23245 0.7414 0.0
H591 H 0.18456 0.27331 0.73897 0.0
C592 C 0.26095 0.30683 0.72493 0.0
C593 C 0.25422 0.34432 0.72301 0.0
C594 C 0.2573 0.29323 0.73388 0.0
C595 C 0.24571 0.31662 0.74103 0.0
C596 C 0.24014 0.35429 0.73914 0.0
H597 H 0.12212 0.27068 0.78913 0.0
H598 H 0.14745 0.28033 0.77387 0.0
C599 C 0.2446 0.36803 0.73026 0.0
C600 C 0.23827 0.30228 0.75043 0.0
H601 H 0.18505 0.24116 0.76246 0.0
C602 C 0.25426 0.32068 0.75793 0.0
C603 C 0.21293 0.27319 0.7521 0.0
C604 C 0.19281 0.25363 0.74444 0.0
C605 C 0.24453 0.312 0.76701 0.0
C606 C 0.21927 0.28284 0.76868 0.0
C607 C 0.20453 0.26337 0.76119 0.0
C608 C 0.20464 0.27462 0.77801 0.0
C609 C 0.25984 0.33567 0.77464 0.0
C610 C 0.22819 0.26738 0.78548 0.0
C611 C 0.21369 0.26265 0.79432 0.0
C612 C 0.17532 0.26399 0.7958 0.0
C613 C 0.15181 0.26937 0.78824 0.0
C614 C 0.1663 0.27488 0.77948 0.0
H615 H 0.27085 0.36235 0.77203 0.0
H616 H 0.23836 0.34171 0.77986 0.0
H617 H 0.28289 0.3208 0.77804 0.0
H618 H 0.25778 0.26583 0.7845 0.0
H619 H 0.23248 0.25817 0.79999 0.0
H620 H 0.78901 0.62907 0.04002 0.0
H621 H 0.78472 0.65032 0.02415 0.0
H622 H 0.71842 0.74296 0.03285 0.0
H623 H 0.72359 0.72253 0.04878 0.0
H624 H 0.72332 0.65433 0.01449 0.0
H625 H 0.78625 0.79363 0.01515 0.0
H626 H 0.79155 0.76122 0.02448 0.0
H627 H 0.75032 0.78883 0.02354 0.0
C628 C 0.77411 0.65438 0.03859 0.0
C629 C 0.75662 0.67409 0.04568 0.0
C630 C 0.77168 0.6665 0.0295 0.0
C631 C 0.7516 0.69849 0.02729 0.0
C632 C 0.7349 0.71876 0.03438 0.0
H633 H 0.64503 0.78122 0.97909 0.0
H634 H 0.67022 0.77043 0.99441 0.0
C635 C 0.73768 0.70688 0.0435 0.0
C636 C 0.74504 0.70841 0.01752 0.0
H637 H 0.74814 0.7796 1.00209 0.0
C638 C 0.72933 0.68156 0.01175 0.0
C639 C 0.75274 0.74399 0.01393 0.0
C640 C 0.77149 0.77343 0.01958 0.0
C641 C 0.72005 0.68959 1.00263 0.0
C642 C 0.72681 0.72539 0.99913 0.0
C643 C 0.74303 0.75216 1.00481 0.0
C644 C 0.71508 0.73579 0.98975 0.0
C645 C 0.70188 0.66012 0.99686 0.0
C646 C 0.73271 0.72076 0.98203 0.0
C647 C 0.71849 0.72698 0.97323 0.0
C648 C 0.68622 0.74814 0.97203 0.0
C649 C 0.66977 0.7646 0.97977 0.0
C650 C 0.68416 0.75858 0.98853 0.0
H651 H 0.6938 0.63557 1.00097 0.0
H652 H 0.67689 0.67133 0.99342 0.0
H653 H 0.72136 0.651 0.99143 0.0
H654 H 0.75675 0.70324 0.98285 0.0
H655 H 0.73185 0.71391 0.96744 0.0
H656 H 0.22503 0.38479 0.0395 0.0
H657 H 0.22904 0.3642 0.02358 0.0
H658 H 0.29088 0.2683 0.03215 0.0
H659 H 0.28596 0.28809 0.04811 0.0
H660 H 0.29061 0.3581 0.01407 0.0
H661 H 0.22188 0.22157 0.01411 0.0
H662 H 0.21749 0.25365 0.02352 0.0
H663 H 0.2575 0.22428 0.02262 0.0
C664 C 0.23886 0.35892 0.03802 0.0
C665 C 0.25521 0.3381 0.04509 0.0
C666 C 0.24113 0.34718 0.0289 0.0
C667 C 0.25989 0.31446 0.02664 0.0
C668 C 0.2754 0.29311 0.03371 0.0
H669 H 0.36777 0.23113 0.97881 0.0
H670 H 0.34169 0.24206 0.99403 0.0
C671 C 0.27278 0.30462 0.04285 0.0
C672 C 0.26652 0.3048 0.01687 0.0
H673 H 0.26175 0.23444 1.00125 0.0
C674 C 0.2837 0.33125 0.01124 0.0
C675 C 0.25763 0.26972 0.01316 0.0
C676 C 0.23727 0.24084 0.01865 0.0
C677 C 0.29334 0.32322 1.00214 0.0
C678 C 0.28548 0.28785 0.99854 0.0
C679 C 0.26772 0.26154 1.00406 0.0
C680 C 0.29764 0.27737 0.9892 0.0
C681 C 0.31305 0.35217 0.99651 0.0
C682 C 0.28075 0.29278 0.98143 0.0
C683 C 0.29548 0.28648 0.97269 0.0
C684 C 0.32752 0.26489 0.9716 0.0
C685 C 0.34322 0.24808 0.97939 0.0
C686 C 0.32832 0.25418 0.9881 0.0
H687 H 0.32127 0.37651 1.00068 0.0
H688 H 0.33815 0.34024 0.99328 0.0
H689 H 0.29457 0.36179 0.99092 0.0
H690 H 0.25693 0.31066 0.98216 0.0
H691 H 0.2827 0.29983 0.96685 0.0
H692 H 0.62271 0.74079 0.28904 0.0
H693 H 0.64428 0.74856 0.27329 0.0
H694 H 0.74968 0.78687 0.28324 0.0
H695 H 0.72847 0.77897 0.29906 0.0
H696 H 0.66571 0.81724 0.26632 0.0
H697 H 0.77816 0.71387 0.2626 0.0
H698 H 0.74364 0.71108 0.27153 0.0
H699 H 0.78148 0.74292 0.27257 0.0
C700 C 0.65074 0.75026 0.28791 0.0
C701 C 0.67379 0.75943 0.29534 0.0
C702 C 0.663 0.75467 0.27889 0.0
C703 C 0.69864 0.76805 0.27709 0.0
C704 C 0.72228 0.77591 0.28447 0.0
H705 H 0.76987 0.88623 0.22881 0.0
H706 H 0.75949 0.86364 0.24438 0.0
C707 C 0.71002 0.77155 0.29351 0.0
C708 C 0.70951 0.77728 0.26754 0.0
H709 H 0.77219 0.75836 0.25063 0.0
C710 C 0.68889 0.80422 0.26288 0.0
C711 C 0.73965 0.76015 0.26306 0.0
C712 C 0.7619 0.73015 0.26765 0.0
C713 C 0.6979 0.81494 0.25391 0.0
C714 C 0.72857 0.79852 0.24951 0.0
C715 C 0.74888 0.77108 0.25408 0.0
C716 C 0.73961 0.80996 0.24015 0.0
C717 C 0.67446 0.84371 0.24918 0.0
C718 C 0.73305 0.78672 0.23263 0.0
C719 C 0.73889 0.79955 0.22367 0.0
C720 C 0.75149 0.83584 0.22212 0.0
C721 C 0.75994 0.85824 0.22973 0.0
C722 C 0.75402 0.84541 0.23865 0.0
H723 H 0.64788 0.84841 0.25281 0.0
H724 H 0.68975 0.87028 0.24897 0.0
H725 H 0.66849 0.83536 0.24201 0.0
H726 H 0.72194 0.75923 0.23367 0.0
H727 H 0.73219 0.78153 0.21799 0.0
H728 H 0.22575 0.22146 0.46939 0.0
H729 H 0.2463 0.21466 0.48528 0.0
H730 H 0.15939 0.28789 0.49417 0.0
H731 H 0.13783 0.29372 0.47835 0.0
H732 H 0.26995 0.25974 0.49888 0.0
H733 H 0.13601 0.19635 0.50868 0.0
H734 H 0.14831 0.20534 0.49691 0.0
H735 H 0.13124 0.24207 0.50408 0.0
C736 C 0.21128 0.23649 0.47471 0.0
C737 C 0.1798 0.25769 0.47262 0.0
C738 C 0.22306 0.23256 0.4838 0.0
C739 C 0.20378 0.24996 0.49095 0.0
C740 C 0.174 0.27327 0.4888 0.0
H741 H 0.22206 0.23222 0.55043 0.0
H742 H 0.21307 0.25664 0.53492 0.0
C743 C 0.16185 0.27678 0.47974 0.0
C744 C 0.21356 0.24205 0.50066 0.0
H745 H 0.17848 0.20745 0.52066 0.0
C746 C 0.24994 0.24837 0.50365 0.0
C747 C 0.18751 0.22683 0.50686 0.0
C748 C 0.14871 0.21688 0.50396 0.0
C749 C 0.26083 0.24011 0.51268 0.0
C750 C 0.23467 0.22525 0.51885 0.0
C751 C 0.1983 0.21928 0.51591 0.0
C752 C 0.24467 0.21364 0.52826 0.0
C753 C 0.30013 0.24724 0.5156 0.0
C754 C 0.26581 0.18164 0.52964 0.0
C755 C 0.27071 0.16739 0.53847 0.0
C756 C 0.25465 0.18499 0.5461 0.0
C757 C 0.23494 0.21806 0.54472 0.0
C758 C 0.22972 0.23205 0.53587 0.0
H759 H 0.31519 0.26476 0.51057 0.0
H760 H 0.30078 0.26089 0.52241 0.0
H761 H 0.31492 0.22048 0.51622 0.0
H762 H 0.27717 0.1668 0.52383 0.0
H763 H 0.28609 0.14191 0.53928 0.0
H764 H 0.77888 0.72917 0.71851 0.0
H765 H 0.7877 0.7508 0.73429 0.0
H766 H 0.755 0.64396 0.74453 0.0
H767 H 0.746 0.62203 0.72885 0.0
H768 H 0.73573 0.74695 0.75123 0.0
H769 H 0.86604 0.66559 0.7532 0.0
H770 H 0.8453 0.67871 0.74241 0.0
H771 H 0.82577 0.64174 0.74903 0.0
C772 C 0.773 0.71042 0.72411 0.0
C773 C 0.76206 0.67372 0.72239 0.0
C774 C 0.77799 0.72288 0.73312 0.0
C775 C 0.77227 0.69885 0.74054 0.0
C776 C 0.75973 0.66283 0.73888 0.0
H777 H 0.78339 0.72785 0.79967 0.0
H778 H 0.76174 0.71837 0.78392 0.0
C779 C 0.75461 0.65038 0.7299 0.0
C780 C 0.78225 0.71028 0.74997 0.0
H781 H 0.84644 0.69544 0.76671 0.0
C782 C 0.75992 0.73581 0.75463 0.0
C783 C 0.81402 0.69587 0.75433 0.0
C784 C 0.83943 0.66913 0.7495 0.0
C785 C 0.76834 0.7469 0.76365 0.0
C786 C 0.79978 0.73193 0.76806 0.0
C787 C 0.82228 0.70679 0.76332 0.0
C788 C 0.81036 0.74195 0.77757 0.0
C789 C 0.74394 0.77484 0.76835 0.0
C790 C 0.8447 0.7586 0.77921 0.0
C791 C 0.85718 0.76396 0.78818 0.0
C792 C 0.8357 0.75249 0.79571 0.0
C793 C 0.80061 0.7371 0.79404 0.0
C794 C 0.7881 0.7318 0.78504 0.0
H795 H 0.7258 0.78956 0.7634 0.0
H796 H 0.7261 0.76046 0.77341 0.0
H797 H 0.76083 0.7955 0.77211 0.0
H798 H 0.86234 0.76655 0.77354 0.0
H799 H 0.88428 0.77599 0.78918 0.0
H800 H 0.15478 0.01894 0.20563 0.0
H801 H 0.09198 0.99671 0.20325 0.0
H802 H 0.08183 0.06605 0.1793 0.0
H803 H 0.14454 0.08949 0.18184 0.0
H804 H 0.02279 0.07262 0.18966 0.0
H805 H 0.0507 0.92365 0.18555 0.0
H806 H 0.06992 0.9403 0.19609 0.0
H807 H 0.08707 0.95774 0.18531 0.0
C808 C 0.13943 0.02916 0.19978 0.0
C809 C 0.15476 0.0559 0.1939 0.0
C810 C 0.10351 0.01617 0.19838 0.0
C811 C 0.0823 0.02904 0.19097 0.0
C812 C 0.09771 0.05547 0.18502 0.0
H813 H 0.86666 0.92304 0.18184 0.0
H814 H 0.92956 0.94612 0.17936 0.0
C815 C 0.13358 0.06881 0.18648 0.0
C816 C 0.04331 0.01671 0.18986 0.0
H817 H 0.98837 0.93995 0.18985 0.0
C818 C 0.01533 0.04359 0.18956 0.0
C819 C 0.03338 0.97886 0.18953 0.0
C820 C 0.06193 0.94854 0.18903 0.0
C821 C 0.9778 0.03369 0.18941 0.0
C822 C 0.96786 0.99586 0.18984 0.0
C823 C 0.99584 0.96897 0.18967 0.0
C824 C 0.92883 0.9836 0.19093 0.0
C825 C 0.94926 0.06398 0.18876 0.0
C826 C 0.90743 0.99682 0.19827 0.0
C827 C 0.87142 0.98403 0.19962 0.0
C828 C 0.85616 0.95715 0.19379 0.0
C829 C 0.87756 0.94384 0.18644 0.0
C830 C 0.91354 0.95697 0.18503 0.0
H831 H 0.96058 0.08872 0.18523 0.0
H832 H 0.92423 0.05462 0.18503 0.0
H833 H 0.94106 0.07254 0.19578 0.0
H834 H 0.91887 0.01644 0.2031 0.0
H835 H 0.8559 0.99456 0.20541 0.0
H836 H 0.01845 0.3568 0.45556 0.0
H837 H 0.99609 0.41951 0.45307 0.0
H838 H 0.06607 0.42958 0.42924 0.0
H839 H 0.08962 0.36695 0.4319 0.0
H840 H 0.07236 0.48867 0.43962 0.0
H841 H 0.92359 0.46081 0.4352 0.0
H842 H 0.93988 0.4415 0.44577 0.0
H843 H 0.95766 0.42441 0.43503 0.0
C844 C 0.02877 0.37211 0.44971 0.0
C845 C 0.05574 0.35678 0.44391 0.0
C846 C 0.01571 0.40797 0.44825 0.0
C847 C 0.02875 0.42914 0.44085 0.0
C848 C 0.05536 0.41373 0.43496 0.0
H849 H 0.92314 0.64526 0.43182 0.0
H850 H 0.94633 0.58246 0.42921 0.0
C851 C 0.06876 0.3779 0.43648 0.0
C852 C 0.01647 0.46815 0.4397 0.0
H853 H 0.93976 0.52313 0.43959 0.0
C854 C 0.04335 0.49614 0.43947 0.0
C855 C 0.97865 0.4781 0.43931 0.0
C856 C 0.94836 0.44955 0.43874 0.0
C857 C 0.03347 0.53369 0.43933 0.0
C858 C 0.99566 0.54363 0.43971 0.0
C859 C 0.96877 0.51565 0.43945 0.0
C860 C 0.9834 0.58264 0.44086 0.0
C861 C 0.06378 0.56225 0.43879 0.0
C862 C 0.99638 0.60369 0.44828 0.0
C863 C 0.98352 0.63962 0.44972 0.0
C864 C 0.95682 0.65517 0.44387 0.0
C865 C 0.9438 0.63414 0.43643 0.0
C866 C 0.95699 0.59822 0.43494 0.0
H867 H 0.0886 0.55101 0.43527 0.0
H868 H 0.05453 0.5874 0.43508 0.0
H869 H 0.07216 0.57024 0.44583 0.0
H870 H 0.01584 0.59201 0.45312 0.0
H871 H 0.99384 0.65485 0.45558 0.0
H872 H 0.37475 0.41165 0.68627 0.0
H873 H 0.43864 0.4334 0.68491 0.0
H874 H 0.40996 0.53299 0.69949 0.0
H875 H 0.34635 0.51125 0.70103 0.0
H876 H 0.47122 0.49716 0.67744 0.0
H877 H 0.49295 0.48898 0.71506 0.0
H878 H 0.45339 0.46867 0.70948 0.0
H879 H 0.45457 0.51748 0.71178 0.0
C880 C 0.38197 0.43834 0.68912 0.0
C881 C 0.35556 0.45953 0.69386 0.0
C882 C 0.41848 0.45073 0.68833 0.0
C883 C 0.4292 0.48447 0.69226 0.0
C884 C 0.40247 0.50649 0.69659 0.0
H885 H 0.63699 0.60364 0.68578 0.0
H886 H 0.57333 0.58152 0.68428 0.0
C887 C 0.36606 0.49408 0.69742 0.0
C888 C 0.46857 0.49596 0.69219 0.0
H889 H 0.54062 0.51695 0.70636 0.0
C890 C 0.48649 0.50142 0.68375 0.0
C891 C 0.48858 0.50091 0.70044 0.0
C892 C 0.47156 0.49338 0.70971 0.0
C893 C 0.52376 0.51236 0.68335 0.0
C894 C 0.54337 0.5185 0.69161 0.0
C895 C 0.52552 0.51251 0.70003 0.0
C896 C 0.58258 0.53067 0.69177 0.0
C897 C 0.54195 0.51655 0.6741 0.0
C898 C 0.60893 0.50964 0.69653 0.0
C899 C 0.64515 0.5224 0.6975 0.0
C900 C 0.65583 0.55652 0.69371 0.0
C901 C 0.6297 0.57713 0.68873 0.0
C902 C 0.59333 0.56441 0.68782 0.0
H903 H 0.52675 0.50118 0.66869 0.0
H904 H 0.5422 0.5462 0.67216 0.0
H905 H 0.57095 0.50657 0.67427 0.0
H906 H 0.60128 0.48357 0.69966 0.0
H907 H 0.66458 0.50581 0.70136 0.0
H908 H 0.42534 0.14548 0.93324 0.0
H909 H 0.44837 0.08236 0.93106 0.0
H910 H 0.51253 0.09177 0.95588 0.0
H911 H 0.49066 0.15496 0.95794 0.0
H912 H 0.55145 0.05847 0.94261 0.0
H913 H 0.41282 0.9935 0.94524 0.0
H914 H 0.41708 0.02682 0.93618 0.0
H915 H 0.42071 0.04149 0.94793 0.0
C916 C 0.44452 0.13413 0.9382 0.0
C917 C 0.456 0.15519 0.94579 0.0
C918 C 0.45745 0.09795 0.93698 0.0
C919 C 0.48163 0.082 0.94341 0.0
C920 C 0.49381 0.10338 0.95084 0.0
H921 H 0.52325 0.85695 0.95786 0.0
H922 H 0.50135 0.92013 0.95578 0.0
C923 C 0.48122 0.13955 0.95202 0.0
C924 C 0.49405 0.04295 0.94256 0.0
H925 H 0.46311 0.95372 0.94242 0.0
C926 C 0.53214 0.03555 0.94251 0.0
C927 C 0.46882 0.01303 0.94253 0.0
C928 C 0.42759 0.01894 0.94306 0.0
C929 C 0.54573 0.99917 0.94264 0.0
C930 C 0.52051 0.96925 0.94256 0.0
C931 C 0.48242 0.97665 0.9424 0.0
C932 C 0.5329 0.93018 0.94341 0.0
C933 C 0.58693 0.99325 0.9433 0.0
C934 C 0.55743 0.91439 0.93705 0.0
C935 C 0.57038 0.87822 0.93828 0.0
C936 C 0.55856 0.85701 0.94582 0.0
C937 C 0.53297 0.87247 0.95198 0.0
C938 C 0.52035 0.90864 0.95079 0.0
H939 H 0.60158 0.01865 0.94556 0.0
H940 H 0.59355 0.9706 0.94818 0.0
H941 H 0.59782 0.98552 0.93645 0.0
H942 H 0.56681 0.93011 0.93117 0.0
H943 H 0.58985 0.86701 0.93338 0.0
H944 H 0.13806 0.40866 0.08262 0.0
H945 H 0.0742 0.43037 0.08412 0.0
H946 H 0.10173 0.52891 0.06895 0.0
H947 H 0.16526 0.50716 0.06725 0.0
H948 H 0.04121 0.49419 0.09131 0.0
H949 H 0.01863 0.48344 0.05377 0.0
H950 H 0.05854 0.4639 0.05937 0.0
H951 H 0.05687 0.51252 0.05683 0.0
C952 C 0.13061 0.43514 0.07968 0.0
C953 C 0.15663 0.45598 0.07472 0.0
C954 C 0.09411 0.4475 0.08056 0.0
C955 C 0.08304 0.48088 0.07648 0.0
C956 C 0.10947 0.50266 0.07196 0.0
H957 H 0.87573 0.60064 0.08275 0.0
H958 H 0.93911 0.57792 0.0844 0.0
C959 C 0.14583 0.49025 0.07104 0.0
C960 C 0.04358 0.49215 0.07656 0.0
H961 H 0.97123 0.51224 0.0624 0.0
C962 C 0.02581 0.49805 0.085 0.0
C963 C 0.02337 0.49654 0.06833 0.0
C964 C 0.04016 0.48843 0.05906 0.0
C965 C 0.98852 0.50894 0.08541 0.0
C966 C 0.96874 0.51463 0.07715 0.0
C967 C 0.98644 0.50814 0.06873 0.0
C968 C 0.92957 0.527 0.07697 0.0
C969 C 0.97052 0.51359 0.09466 0.0
C970 C 0.90311 0.50613 0.07221 0.0
C971 C 0.86706 0.51926 0.07116 0.0
C972 C 0.85664 0.55359 0.07486 0.0
C973 C 0.88282 0.57397 0.07988 0.0
C974 C 0.91903 0.56091 0.08087 0.0
H975 H 0.98565 0.49822 0.10009 0.0
H976 H 0.97065 0.5433 0.09654 0.0
H977 H 0.94141 0.50391 0.09455 0.0
H978 H 0.91058 0.47993 0.06913 0.0
H979 H 0.84759 0.50283 0.06726 0.0
H980 H 0.50359 0.66616 0.31689 0.0
H981 H 0.48046 0.60314 0.31858 0.0
H982 H 0.57937 0.57288 0.33327 0.0
H983 H 0.60233 0.63628 0.33181 0.0
H984 H 0.51142 0.54259 0.31149 0.0
H985 H 0.50074 0.52608 0.34919 0.0
H986 H 0.50643 0.5706 0.34378 0.0
H987 H 0.54564 0.54081 0.34546 0.0
C988 C 0.52021 0.64628 0.32061 0.0
C989 C 0.55483 0.65624 0.32421 0.0
C990 C 0.50693 0.61022 0.32156 0.0
C991 C 0.52796 0.58328 0.32612 0.0
C992 C 0.56223 0.59332 0.3299 0.0
H993 H 0.50563 0.34811 0.31587 0.0
H994 H 0.52757 0.41163 0.31748 0.0
C995 C 0.57543 0.62955 0.32901 0.0
C996 C 0.51524 0.54419 0.32623 0.0
H997 H 0.49546 0.47105 0.34025 0.0
C998 C 0.50778 0.52705 0.31779 0.0
C999 C 0.51013 0.52397 0.33445 0.0
C1000 C 0.51579 0.54137 0.34374 0.0
C1001 C 0.49579 0.49023 0.31733 0.0
C1002 C 0.492 0.46956 0.32552 0.0
C1003 C 0.49885 0.48679 0.33398 0.0
C1004 C 0.48047 0.43016 0.32538 0.0
C1005 C 0.48665 0.47405 0.30806 0.0
C1006 C 0.44755 0.41901 0.32965 0.0
C1007 C 0.43508 0.38251 0.32883 0.0
C1008 C 0.45536 0.35656 0.3237 0.0
C1009 C 0.48914 0.36747 0.31978 0.0
C1010 C 0.50166 0.40384 0.32065 0.0
H1011 H 0.48127 0.49595 0.30288 0.0
H1012 H 0.51039 0.45734 0.30562 0.0
H1013 H 0.46205 0.45579 0.30846 0.0
H1014 H 0.43088 0.43883 0.33338 0.0
H1015 H 0.40899 0.37497 0.33195 0.0
H1016 H 0.64713 0.92518 0.58533 0.0
H1017 H 0.58399 0.94796 0.58758 0.0
H1018 H 0.59334 0.01351 0.56297 0.0
H1019 H 0.65658 0.99195 0.56086 0.0
H1020 H 0.55967 0.0516 0.57619 0.0
H1021 H 0.49539 0.9127 0.57343 0.0
H1022 H 0.5285 0.91684 0.58253 0.0
H1023 H 0.54338 0.92081 0.5708 0.0
C1024 C 0.63577 0.94462 0.58044 0.0
C1025 C 0.65682 0.95658 0.57289 0.0
C1026 C 0.59957 0.95741 0.58169 0.0
C1027 C 0.58357 0.98188 0.57534 0.0
C1028 C 0.60497 0.99456 0.56795 0.0
H1029 H 0.35804 0.02217 0.56113 0.0
H1030 H 0.42125 1.00042 0.56318 0.0
C1031 C 0.64118 0.98214 0.56675 0.0
C1032 C 0.54446 0.99409 0.57621 0.0
H1033 H 0.45542 0.96271 0.5764 0.0
C1034 C 0.53686 0.03216 0.57629 0.0
C1035 C 0.51466 0.96871 0.57624 0.0
C1036 C 0.52074 0.9275 0.57566 0.0
C1037 C 0.50043 0.04559 0.57617 0.0
C1038 C 0.47063 0.02021 0.57627 0.0
C1039 C 0.47823 0.98214 0.57641 0.0
C1040 C 0.4315 0.03242 0.57546 0.0
C1041 C 0.49434 0.08678 0.57552 0.0
C1042 C 0.41576 0.05712 0.58179 0.0
C1043 C 0.37958 0.07002 0.58057 0.0
C1044 C 0.35828 0.05793 0.57308 0.0
C1045 C 0.37364 0.03208 0.56697 0.0
C1046 C 0.40984 0.01956 0.56814 0.0
H1047 H 0.51961 0.10151 0.57319 0.0
H1048 H 0.47153 0.09333 0.57069 0.0
H1049 H 0.48684 0.09767 0.58238 0.0
H1050 H 0.43154 0.06671 0.58763 0.0
H1051 H 0.36844 0.08968 0.58543 0.0
H1052 H 0.01714 0.15817 0.81229 0.0
H1053 H 0.99528 0.09519 0.81466 0.0
H1054 H 0.06588 0.08465 0.83835 0.0
H1055 H 0.08895 0.14753 0.83581 0.0
H1056 H 0.07193 0.02581 0.8279 0.0
H1057 H 0.92326 0.05361 0.8326 0.0
H1058 H 0.93929 0.07307 0.82202 0.0
H1059 H 0.95735 0.08999 0.83275 0.0
C1060 C 0.02774 0.14267 0.81807 0.0
C1061 C 0.0547 0.15795 0.82389 0.0
C1062 C 0.01497 0.10666 0.81946 0.0
C1063 C 0.02826 0.08533 0.8268 0.0
C1064 C 0.05497 0.10064 0.83268 0.0
H1065 H 0.923 0.86928 0.83601 0.0
H1066 H 0.94614 0.93215 0.83853 0.0
C1067 C 0.06811 0.1366 0.83123 0.0
C1068 C 0.01603 0.04631 0.82793 0.0
H1069 H 0.93932 0.99135 0.82817 0.0
C1070 C 0.04292 0.01833 0.8281 0.0
C1071 C 0.97822 0.03637 0.82839 0.0
C1072 C 0.94794 0.06492 0.82904 0.0
C1073 C 0.03304 0.98079 0.82825 0.0
C1074 C 0.99521 0.97086 0.82794 0.0
C1075 C 0.96834 0.99883 0.82825 0.0
C1076 C 0.98292 0.93187 0.82682 0.0
C1077 C 0.06336 0.95224 0.82875 0.0
C1078 C 0.99573 0.91077 0.81939 0.0
C1079 C 0.98291 0.87479 0.81801 0.0
C1080 C 0.95641 0.85928 0.82392 0.0
C1081 C 0.9435 0.88039 0.83135 0.0
C1082 C 0.95666 0.91634 0.83279 0.0
H1083 H 0.08827 0.96347 0.83222 0.0
H1084 H 0.0542 0.92708 0.83248 0.0
H1085 H 0.07155 0.94423 0.82169 0.0
H1086 H 0.01505 0.92243 0.81451 0.0
H1087 H 0.99313 0.85949 0.81215 0.0
H1088 H 0.61788 0.88858 0.18913 0.0
H1089 H 0.55733 0.9181 0.18821 0.0
H1090 H 0.60768 0.02466 0.19245 0.0
H1091 H 0.66866 0.99538 0.19346 0.0
H1092 H 0.52726 0.96588 0.20324 0.0
H1093 H 0.53708 0.03513 0.16922 0.0
H1094 H 0.56514 0.99561 0.17223 0.0
H1095 H 0.57564 0.04017 0.17693 0.0
C1096 C 0.61628 0.91836 0.18977 0.0
C1097 C 0.64823 0.93961 0.19139 0.0
C1098 C 0.58159 0.93513 0.18925 0.0
C1099 C 0.57812 0.9735 0.19021 0.0
C1100 C 0.6099 0.995 0.19161 0.0
H1101 H 0.39412 0.12571 0.19086 0.0
H1102 H 0.45425 0.09552 0.18993 0.0
C1103 C 0.64468 0.9782 0.1922 0.0
C1104 C 0.54098 0.99065 0.19027 0.0
H1105 H 0.48355 0.04685 0.17801 0.0
C1106 C 0.51756 0.9835 0.19772 0.0
C1107 C 0.52867 0.01371 0.18307 0.0
C1108 C 0.55272 0.02159 0.17486 0.0
C1109 C 0.48224 0.9994 0.19827 0.0
C1110 C 0.46961 0.0222 0.19102 0.0
C1111 C 0.49313 0.02924 0.18354 0.0
C1112 C 0.43261 0.04001 0.19121 0.0
C1113 C 0.45935 0.99254 0.20676 0.0
C1114 C 0.40023 0.01883 0.19204 0.0
C1115 C 0.36569 0.03606 0.19267 0.0
C1116 C 0.36283 0.07481 0.19233 0.0
C1117 C 0.39523 0.09582 0.19116 0.0
C1118 C 0.4297 0.0786 0.19062 0.0
H1119 H 0.4767 0.98345 0.21263 0.0
H1120 H 0.444 0.01777 0.20882 0.0
H1121 H 0.43902 0.97032 0.20533 0.0
H1122 H 0.40168 0.98895 0.19226 0.0
H1123 H 0.34129 0.01904 0.19348 0.0
H1124 H 0.88937 0.89414 0.44009 0.0
H1125 H 0.91953 0.9544 0.43926 0.0
H1126 H 0.02528 0.90297 0.44388 0.0
H1127 H 0.99533 0.84223 0.4448 0.0
H1128 H 0.96777 0.98403 0.45449 0.0
H1129 H 0.03638 0.97325 0.42041 0.0
H1130 H 0.9963 0.94598 0.42339 0.0
H1131 H 0.04054 0.93463 0.42815 0.0
C1132 C 0.91911 0.89544 0.44085 0.0
C1133 C 0.93992 0.86324 0.44252 0.0
C1134 C 0.93625 0.92997 0.44038 0.0
C1135 C 0.97457 0.93304 0.44146 0.0
C1136 C 0.99566 0.90104 0.44295 0.0
H1137 H 0.1266 0.11757 0.44139 0.0
H1138 H 0.09671 0.05723 0.44069 0.0
C1139 C 0.97848 0.8664 0.44349 0.0
C1140 C 0.99207 0.97003 0.44149 0.0
H1141 H 0.04775 0.02725 0.42902 0.0
C1142 C 0.98522 0.99361 0.44892 0.0
C1143 C 0.01489 0.98218 0.43423 0.0
C1144 C 0.02247 0.95792 0.42604 0.0
C1145 C 1.00111 0.02897 0.44938 0.0
C1146 C 0.02356 0.04149 0.44205 0.0
C1147 C 0.03038 0.01777 0.4346 0.0
C1148 C 0.04118 0.07861 0.44212 0.0
C1149 C 0.99455 0.05205 0.45785 0.0
C1150 C 0.01989 0.11091 0.44295 0.0
C1151 C 0.03696 0.14559 0.44344 0.0
C1152 C 0.07565 0.14866 0.44297 0.0
C1153 C 0.09675 0.11632 0.44179 0.0
C1154 C 0.0797 0.08171 0.44139 0.0
H1155 H 0.98586 0.03479 0.46377 0.0
H1156 H 0.01978 0.06762 0.4598 0.0
H1157 H 0.97214 0.07221 0.45645 0.0
H1158 H 0.99004 0.10932 0.44327 0.0
H1159 H 0.01986 0.16993 0.44426 0.0
H1160 H 0.1186 0.3829 0.68966 0.0
H1161 H 0.05727 0.41042 0.68804 0.0
H1162 H 0.10523 0.51936 0.6892 0.0
H1163 H 0.16679 0.49218 0.69083 0.0
H1164 H 0.02545 0.46008 0.70135 0.0
H1165 H 0.03452 0.52289 0.66664 0.0
H1166 H 0.06514 0.48648 0.67042 0.0
H1167 H 0.07229 0.5331 0.67424 0.0
C1168 C 0.11626 0.41273 0.68945 0.0
C1169 C 0.14769 0.43533 0.69039 0.0
C1170 C 0.08114 0.42838 0.68853 0.0
C1171 C 0.07678 0.46688 0.68842 0.0
C1172 C 0.10809 0.48956 0.68914 0.0
H1173 H 0.89575 0.6213 0.68903 0.0
H1174 H 0.95496 0.58945 0.68774 0.0
C1175 C 0.14323 0.47395 0.69011 0.0
C1176 C 0.03928 0.48328 0.68821 0.0
H1177 H 0.98228 0.53888 0.67565 0.0
C1178 C 0.01581 0.47706 0.69571 0.0
C1179 C 0.02702 0.50557 0.68085 0.0
C1180 C 0.05086 0.51228 0.67253 0.0
C1181 C 0.98069 0.49339 0.69618 0.0
C1182 C 0.96832 0.51575 0.68882 0.0
C1183 C 0.99171 0.52163 0.68126 0.0
C1184 C 0.93185 0.53454 0.68902 0.0
C1185 C 0.95778 0.48763 0.70471 0.0
C1186 C 0.89898 0.51423 0.68993 0.0
C1187 C 0.865 0.53239 0.69075 0.0
C1188 C 0.86322 0.57122 0.69055 0.0
C1189 C 0.89606 0.59138 0.68924 0.0
C1190 C 0.92999 0.57321 0.6885 0.0
H1191 H 0.9749 0.47816 0.71059 0.0
H1192 H 0.94336 0.51347 0.70672 0.0
H1193 H 0.93662 0.46612 0.70336 0.0
H1194 H 0.89964 0.48432 0.69012 0.0
H1195 H 0.84023 0.516 0.69166 0.0
H1196 H 0.41273 0.37838 0.93045 0.0
H1197 H 0.44237 0.4388 0.92901 0.0
H1198 H 0.51055 0.4143 0.95252 0.0
H1199 H 0.48234 0.3531 0.95367 0.0
H1200 H 0.4407 0.49415 0.93996 0.0
H1201 H 0.5873 0.4549 0.93608 0.0
H1202 H 0.55053 0.42143 0.93538 0.0
H1203 H 0.56827 0.43572 0.94637 0.0
C1204 C 0.43455 0.38564 0.9352 0.0
C1205 C 0.44541 0.36091 0.94213 0.0
C1206 C 0.4514 0.42025 0.93439 0.0
C1207 C 0.47914 0.4311 0.94057 0.0
C1208 C 0.49011 0.40629 0.94748 0.0
H1209 H 0.53248 0.65915 0.95359 0.0
H1210 H 0.50448 0.59788 0.95237 0.0
C1211 C 0.4738 0.37133 0.94817 0.0
C1212 C 0.49476 0.46915 0.94013 0.0
H1213 H 0.57555 0.51781 0.94035 0.0
C1214 C 0.47022 0.49926 0.93993 0.0
C1215 C 0.53326 0.47605 0.93995 0.0
C1216 C 0.5613 0.44527 0.93935 0.0
C1217 C 0.48302 0.5359 0.93975 0.0
C1218 C 0.52149 0.5428 0.94016 0.0
C1219 C 0.54604 0.51269 0.94015 0.0
C1220 C 0.53706 0.58086 0.94064 0.0
C1221 C 0.45505 0.56667 0.93894 0.0
C1222 C 0.56537 0.59162 0.93461 0.0
C1223 C 0.58209 0.62628 0.93546 0.0
C1224 C 0.57052 0.65115 0.94228 0.0
C1225 C 0.54158 0.6408 0.94817 0.0
C1226 C 0.5254 0.6058 0.94744 0.0
H1227 H 0.42938 0.55698 0.93553 0.0
H1228 H 0.44739 0.57635 0.94591 0.0
H1229 H 0.46622 0.59043 0.935 0.0
H1230 H 0.57494 0.57297 0.92931 0.0
H1231 H 0.60433 0.63348 0.93082 0.0
H1232 H 0.66952 0.51717 0.07436 0.0
H1233 H 0.60867 0.48764 0.07547 0.0
H1234 H 0.55831 0.59376 0.08032 0.0
H1235 H 0.6187 0.62354 0.07926 0.0
H1236 H 0.55149 0.49422 0.09085 0.0
H1237 H 0.50665 0.54739 0.05679 0.0
H1238 H 0.55473 0.54378 0.05999 0.0
H1239 H 0.52679 0.58035 0.06456 0.0
C1240 C 0.64556 0.53421 0.07574 0.0
C1241 C 0.64903 0.57278 0.07667 0.0
C1242 C 0.61085 0.51728 0.07638 0.0
C1243 C 0.57908 0.53863 0.07788 0.0
C1244 C 0.58252 0.5769 0.07907 0.0
H1245 H 0.34367 0.49153 0.0754 0.0
H1246 H 0.40412 0.52123 0.07693 0.0
C1247 C 0.61713 0.59382 0.07849 0.0
C1248 C 0.54207 0.52122 0.07791 0.0
H1249 H 0.46238 0.51504 0.06551 0.0
C1250 C 0.53195 0.49863 0.08531 0.0
C1251 C 0.5167 0.52733 0.0707 0.0
C1252 C 0.52664 0.55081 0.06251 0.0
C1253 C 0.49676 0.48228 0.08576 0.0
C1254 C 0.47145 0.48801 0.07848 0.0
C1255 C 0.48169 0.51074 0.07109 0.0
C1256 C 0.43457 0.47001 0.07823 0.0
C1257 C 0.48678 0.45974 0.09411 0.0
C1258 C 0.43154 0.43135 0.07845 0.0
C1259 C 0.39704 0.41432 0.07764 0.0
C1260 C 0.36481 0.43557 0.07646 0.0
C1261 C 0.36788 0.47432 0.0763 0.0
C1262 C 0.40242 0.49135 0.07717 0.0
H1263 H 0.50396 0.46749 0.10012 0.0
H1264 H 0.45722 0.46326 0.09594 0.0
H1265 H 0.4918 0.43008 0.09264 0.0
H1266 H 0.45598 0.41424 0.07901 0.0
H1267 H 0.39581 0.38442 0.07772 0.0
H1268 H 0.38438 0.11841 0.32863 0.0
H1269 H 0.41366 0.0578 0.32996 0.0
H1270 H 0.52072 0.10784 0.3263 0.0
H1271 H 0.49172 0.16878 0.32492 0.0
H1272 H 0.46086 0.02608 0.31568 0.0
H1273 H 0.53128 0.03919 0.34942 0.0
H1274 H 0.49279 0.06813 0.34614 0.0
H1275 H 0.53784 0.07664 0.34146 0.0
C1276 C 0.4142 0.1167 0.32821 0.0
C1277 C 0.43569 0.14854 0.32666 0.0
C1278 C 0.43085 0.08199 0.32896 0.0
C1279 C 0.46931 0.07842 0.3283 0.0
C1280 C 0.49099 0.11012 0.32695 0.0
H1281 H 0.62328 0.89615 0.32754 0.0
H1282 H 0.59235 0.95593 0.32856 0.0
C1283 C 0.47435 0.14489 0.32613 0.0
C1284 C 0.48645 0.04125 0.32845 0.0
H1285 H 0.54428 0.98552 0.34073 0.0
C1286 C 0.47895 0.01704 0.32118 0.0
C1287 C 0.51017 0.0298 0.3356 0.0
C1288 C 0.51843 0.05459 0.34365 0.0
C1289 C 0.49518 0.98185 0.32075 0.0
C1290 C 0.51874 0.97016 0.32794 0.0
C1291 C 0.52609 0.9944 0.33525 0.0
C1292 C 0.53706 0.93341 0.32784 0.0
C1293 C 0.48789 0.9581 0.31243 0.0
C1294 C 0.51626 0.90069 0.32733 0.0
C1295 C 0.53388 0.86636 0.32665 0.0
C1296 C 0.57268 0.86408 0.32662 0.0
C1297 C 0.59336 0.89682 0.32752 0.0
C1298 C 0.57573 0.93109 0.32811 0.0
H1299 H 0.4779 0.97476 0.30653 0.0
H1300 H 0.51318 0.94302 0.3103 0.0
H1301 H 0.46622 0.93748 0.31412 0.0
H1302 H 0.48636 0.90171 0.32735 0.0
H1303 H 0.51711 0.84169 0.32606 0.0
H1304 H 0.84785 0.99227 0.56833 0.0
H1305 H 0.90887 0.02139 0.56923 0.0
H1306 H 0.95044 0.92741 0.58419 0.0
H1307 H 0.88972 0.8981 0.58336 0.0
H1308 H 0.9723 0.99888 0.59134 0.0
H1309 H 0.9988 0.98292 0.55398 0.0
H1310 H 0.95609 1.00524 0.55698 0.0
H1311 H 0.96306 0.95753 0.5599 0.0
C1312 C 0.86985 0.97793 0.57189 0.0
C1313 C 0.86392 0.94271 0.57571 0.0
C1314 C 0.90474 0.99453 0.57235 0.0
C1315 C 0.93424 0.97629 0.57667 0.0
C1316 C 0.92807 0.94184 0.58079 0.0
H1317 H 0.16891 0.02191 0.57012 0.0
H1318 H 0.10823 0.99228 0.57126 0.0
C1319 C 0.89332 0.92513 0.58029 0.0
C1320 C 0.97184 0.99252 0.57666 0.0
H1321 H 0.04336 0.01597 0.56254 0.0
C1322 C 0.98789 1.00266 0.58505 0.0
C1323 C 0.99227 0.99679 0.56846 0.0
C1324 C 0.97694 0.98481 0.55931 0.0
C1325 C 0.02368 0.01764 0.58544 0.0
C1326 C 0.04373 0.02286 0.5772 0.0
C1327 C 0.02788 0.0121 0.56884 0.0
C1328 C 0.08095 0.04004 0.57707 0.0
C1329 C 0.03991 0.02732 0.59466 0.0
C1330 C 0.08573 0.07667 0.57997 0.0
C1331 C 0.1203 0.09367 0.57933 0.0
C1332 C 0.15084 0.07443 0.57573 0.0
C1333 C 0.14607 0.03751 0.57295 0.0
C1334 C 0.11139 0.02055 0.57358 0.0
H1335 H 0.02541 0.01283 0.60033 0.0
H1336 H 0.06974 0.02022 0.59494 0.0
H1337 H 0.03711 0.0575 0.59581 0.0
H1338 H 0.06248 0.09246 0.58253 0.0
H1339 H 0.12286 0.12217 0.58151 0.0
H1340 H 0.89615 0.6251 0.83343 0.0
H1341 H 0.92662 0.56509 0.83475 0.0
H1342 H 0.02437 0.60982 0.82201 0.0
H1343 H 0.9941 0.67011 0.82062 0.0
H1344 H 0.99684 0.54322 0.81397 0.0
H1345 H 0.01196 0.53101 0.85176 0.0
H1346 H 0.96651 0.54348 0.84787 0.0
H1347 H 1.00438 0.57473 0.84607 0.0
C1348 C 0.9243 0.62239 0.831 0.0
C1349 C 0.94266 0.65247 0.82691 0.0
C1350 C 0.94173 0.58807 0.83182 0.0
C1351 C 0.97784 0.58313 0.82856 0.0
C1352 C 0.99653 0.61317 0.82461 0.0
H1353 H 0.12074 0.39125 0.83313 0.0
H1354 H 0.09278 0.45265 0.83419 0.0
C1355 C 0.9792 0.64761 0.82384 0.0
C1356 C 0.99508 0.54598 0.82871 0.0
H1357 H 0.02377 0.47682 0.843 0.0
C1358 C 1.00289 0.52875 0.82032 0.0
C1359 C 1.00307 0.5273 0.837 0.0
C1360 C 0.99638 0.5451 0.84621 0.0
C1361 C 0.01789 0.49301 0.81998 0.0
C1362 C 0.02498 0.47394 0.82826 0.0
C1363 C 0.01788 0.49141 0.83667 0.0
C1364 C 0.04058 0.4361 0.82828 0.0
C1365 C 0.02639 0.47601 0.81077 0.0
C1366 C 0.02008 0.40629 0.82482 0.0
C1367 C 0.03589 0.37108 0.82423 0.0
C1368 C 0.07256 0.36512 0.82708 0.0
C1369 C 0.09251 0.39487 0.83084 0.0
C1370 C 0.0766 0.42998 0.83147 0.0
H1371 H 0.02635 0.49692 0.80519 0.0
H1372 H 0.05372 0.46207 0.81089 0.0
H1373 H 1.00515 0.45489 0.80915 0.0
H1374 H 0.99205 0.41042 0.82243 0.0
H1375 H 0.0197 0.34882 0.82132 0.0
loop_
_geom_bond_atom_site_label_1
_geom_bond_atom_site_label_2
_geom_bond_distance
_geom_bond_site_symmetry_2
_ccdc_geom_bond_type
O0 Cd1 2.223 . S
O0 C8 1.315 . S
Cd1 O0 2.223 . S
Cd1 O4 2.297 . S
Cd1 O5 2.439 . S
Cd1 O11 2.240 . S
Cd2 O3 2.240 . S
Cd2 O10 2.223 . S
Cd2 O12 2.297 . S
Cd2 O13 2.439 . S
O3 Cd2 2.240 . S
O3 C8 1.279 . S
O4 Cd1 2.297 . S
O4 C6 1.247 . S
O5 Cd1 2.439 . S
O5 C6 1.208 . S
C6 O4 1.247 . S
C6 O5 1.208 . S
C7 O12 1.247 . S
C7 O13 1.208 . S
C8 O0 1.315 . S
C8 O3 1.279 . S
C9 O10 1.315 . S
C9 O11 1.279 . S
O10 Cd2 2.223 . S
O10 C9 1.315 . S
O11 Cd1 2.240 . S
O11 C9 1.279 . S
O12 Cd2 2.297 . S
O12 C7 1.247 . S
O13 Cd2 2.439 . S
O13 C7 1.208 . S
O14 Cd15 2.223 . S
O14 C22 1.315 . S
Cd15 O14 2.223 . S
Cd15 O18 2.297 . S
Cd15 O19 2.439 . S
Cd15 O25 2.240 . S
Cd16 O17 2.240 . S
Cd16 O24 2.223 . S
Cd16 O26 2.297 . S
Cd16 O27 2.439 . S
O17 Cd16 2.240 . S
O17 C22 1.279 . S
O18 Cd15 2.297 . S
O18 C20 1.247 . S
O19 Cd15 2.439 . S
O19 C20 1.208 . S
C20 O18 1.247 . S
C20 O19 1.208 . S
C21 O26 1.247 . S
C21 O27 1.208 . S
C22 O14 1.315 . S
C22 O17 1.279 . S
C23 O24 1.315 . S
C23 O25 1.279 . S
O24 Cd16 2.223 . S
O24 C23 1.315 . S
O25 Cd15 2.240 . S
O25 C23 1.279 . S
O26 Cd16 2.297 . S
O26 C21 1.247 . S
O27 Cd16 2.439 . S
O27 C21 1.208 . S
O28 Cd29 2.223 . S
O28 C36 1.315 . S
Cd29 O28 2.223 . S
Cd29 O32 2.297 . S
Cd29 O33 2.439 . S
Cd29 O39 2.240 . S
Cd30 O31 2.240 . S
Cd30 O38 2.223 . S
Cd30 O40 2.297 . S
Cd30 O41 2.439 . S
O31 Cd30 2.240 . S
O31 C36 1.279 . S
O32 Cd29 2.297 . S
O32 C34 1.247 . S
O33 Cd29 2.439 . S
O33 C34 1.208 . S
C34 O32 1.247 . S
C34 O33 1.208 . S
C35 O40 1.247 . S
C35 O41 1.208 . S
C36 O28 1.315 . S
C36 O31 1.279 . S
C37 O38 1.315 . S
C37 O39 1.279 . S
O38 Cd30 2.223 . S
O38 C37 1.315 . S
O39 Cd29 2.240 . S
O39 C37 1.279 . S
O40 Cd30 2.297 . S
O40 C35 1.247 . S
O41 Cd30 2.439 . S
O41 C35 1.208 . S
O42 Cd43 2.223 . S
O42 C50 1.315 . S
Cd43 O42 2.223 . S
Cd43 O46 2.297 . S
Cd43 O47 2.439 . S
Cd43 O53 2.240 . S
Cd44 O45 2.240 . S
Cd44 O52 2.223 . S
Cd44 O54 2.297 . S
Cd44 O55 2.439 . S
O45 Cd44 2.240 . S
O45 C50 1.279 . S
O46 Cd43 2.297 . S
O46 C48 1.247 . S
O47 Cd43 2.439 . S
O47 C48 1.208 . S
C48 O46 1.247 . S
C48 O47 1.208 . S
C49 O54 1.247 . S
C49 O55 1.208 . S
C50 O42 1.315 . S
C50 O45 1.279 . S
C51 O52 1.315 . S
C51 O53 1.279 . S
O52 Cd44 2.223 . S
O52 C51 1.315 . S
O53 Cd43 2.240 . S
O53 C51 1.279 . S
O54 Cd44 2.297 . S
O54 C49 1.247 . S
O55 Cd44 2.439 . S
O55 C49 1.208 . S
O56 Cd57 2.223 . S
O56 C64 1.315 . S
Cd57 O56 2.223 . S
Cd57 O60 2.297 . S
Cd57 O61 2.439 . S
Cd57 O67 2.240 . S
Cd58 O59 2.240 . S
Cd58 O66 2.223 . S
Cd58 O68 2.297 . S
Cd58 O69 2.439 . S
O59 Cd58 2.240 . S
O59 C64 1.279 . S
O60 Cd57 2.297 . S
O60 C62 1.247 . S
O61 Cd57 2.439 . S
O61 C62 1.208 . S
C62 O60 1.247 . S
C62 O61 1.208 . S
C63 O68 1.247 . S
C63 O69 1.208 . S
C64 O56 1.315 . S
C64 O59 1.279 . S
C65 O66 1.315 . S
C65 O67 1.279 . S
O66 Cd58 2.223 . S
O66 C65 1.315 . S
O67 Cd57 2.240 . S
O67 C65 1.279 . S
O68 Cd58 2.297 . S
O68 C63 1.247 . S
O69 Cd58 2.439 . S
O69 C63 1.208 . S
O70 Cd71 2.223 . S
O70 C78 1.315 . S
Cd71 O70 2.223 . S
Cd71 O74 2.297 . S
Cd71 O75 2.439 . S
Cd71 O81 2.240 . S
Cd72 O73 2.240 . S
Cd72 O80 2.223 . S
Cd72 O82 2.297 . S
Cd72 O83 2.439 . S
O73 Cd72 2.240 . S
O73 C78 1.279 . S
O74 Cd71 2.297 . S
O74 C76 1.247 . S
O75 Cd71 2.439 . S
O75 C76 1.208 . S
C76 O74 1.247 . S
C76 O75 1.208 . S
C77 O82 1.247 . S
C77 O83 1.208 . S
C78 O70 1.315 . S
C78 O73 1.279 . S
C79 O80 1.315 . S
C79 O81 1.279 . S
O80 Cd72 2.223 . S
O80 C79 1.315 . S
O81 Cd71 2.240 . S
O81 C79 1.279 . S
O82 Cd72 2.297 . S
O82 C77 1.247 . S
O83 Cd72 2.439 . S
O83 C77 1.208 . S
O84 Cd85 2.223 . S
O84 C92 1.315 . S
Cd85 O84 2.223 . S
Cd85 O88 2.297 . S
Cd85 O89 2.439 . S
Cd85 O95 2.240 . S
Cd86 O87 2.240 . S
Cd86 O94 2.223 . S
Cd86 O96 2.297 . S
Cd86 O97 2.439 . S
O87 Cd86 2.240 . S
O87 C92 1.279 . S
O88 Cd85 2.297 . S
O88 C90 1.247 . S
O89 Cd85 2.439 . S
O89 C90 1.208 . S
C90 O88 1.247 . S
C90 O89 1.208 . S
C91 O96 1.247 . S
C91 O97 1.208 . S
C92 O84 1.315 . S
C92 O87 1.279 . S
C93 O94 1.315 . S
C93 O95 1.279 . S
O94 Cd86 2.223 . S
O94 C93 1.315 . S
O95 Cd85 2.240 . S
O95 C93 1.279 . S
O96 Cd86 2.297 . S
O96 C91 1.247 . S
O97 Cd86 2.439 . S
O97 C91 1.208 . S
O98 Cd99 2.223 . S
O98 C106 1.315 . S
Cd99 O98 2.223 . S
Cd99 O102 2.297 . S
Cd99 O103 2.439 . S
Cd99 O109 2.240 . S
Cd100 O101 2.240 . S
Cd100 O108 2.223 . S
Cd100 O110 2.297 . S
Cd100 O111 2.439 . S
O101 Cd100 2.240 . S
O101 C106 1.279 . S
O102 Cd99 2.297 . S
O102 C104 1.247 . S
O103 Cd99 2.439 . S
O103 C104 1.208 . S
C104 O102 1.247 . S
C104 O103 1.208 . S
C105 O110 1.247 . S
C105 O111 1.208 . S
C106 O98 1.315 . S
C106 O101 1.279 . S
C107 O108 1.315 . S
C107 O109 1.279 . S
O108 Cd100 2.223 . S
O108 C107 1.315 . S
O109 Cd99 2.240 . S
O109 C107 1.279 . S
O110 Cd100 2.297 . S
O110 C105 1.247 . S
O111 Cd100 2.439 . S
O111 C105 1.208 . S
O112 Cd113 2.223 . S
O112 C120 1.315 . S
Cd113 O112 2.223 . S
Cd113 O116 2.297 . S
Cd113 O117 2.439 . S
Cd113 O123 2.240 . S
Cd114 O115 2.240 . S
Cd114 O122 2.223 . S
Cd114 O124 2.297 . S
Cd114 O125 2.439 . S
O115 Cd114 2.240 . S
O115 C120 1.279 . S
O116 Cd113 2.297 . S
O116 C118 1.247 . S
O117 Cd113 2.439 . S
O117 C118 1.208 . S
C118 O116 1.247 . S
C118 O117 1.208 . S
C119 O124 1.247 . S
C119 O125 1.208 . S
C120 O112 1.315 . S
C120 O115 1.279 . S
C121 O122 1.315 . S
C121 O123 1.279 . S
O122 Cd114 2.223 . S
O122 C121 1.315 . S
O123 Cd113 2.240 . S
O123 C121 1.279 . S
O124 Cd114 2.297 . S
O124 C119 1.247 . S
O125 Cd114 2.439 . S
O125 C119 1.208 . S
O126 Cd127 2.223 . S
O126 C134 1.315 . S
Cd127 O126 2.223 . S
Cd127 O130 2.297 . S
Cd127 O131 2.439 . S
Cd127 O137 2.240 . S
Cd128 O129 2.240 . S
Cd128 O136 2.223 . S
Cd128 O138 2.297 . S
Cd128 O139 2.439 . S
O129 Cd128 2.240 . S
O129 C134 1.279 . S
O130 Cd127 2.297 . S
O130 C132 1.247 . S
O131 Cd127 2.439 . S
O131 C132 1.208 . S
C132 O130 1.247 . S
C132 O131 1.208 . S
C133 O138 1.247 . S
C133 O139 1.208 . S
C134 O126 1.315 . S
C134 O129 1.279 . S
C135 O136 1.315 . S
C135 O137 1.279 . S
O136 Cd128 2.223 . S
O136 C135 1.315 . S
O137 Cd127 2.240 . S
O137 C135 1.279 . S
O138 Cd128 2.297 . S
O138 C133 1.247 . S
O139 Cd128 2.439 . S
O139 C133 1.208 . S
O140 Cd141 2.223 . S
O140 C148 1.315 . S
Cd141 O140 2.223 . S
Cd141 O144 2.297 . S
Cd141 O145 2.439 . S
Cd141 O151 2.240 . S
Cd142 O143 2.240 . S
Cd142 O150 2.223 . S
Cd142 O152 2.297 . S
Cd142 O153 2.439 . S
O143 Cd142 2.240 . S
O143 C148 1.279 . S
O144 Cd141 2.297 . S
O144 C146 1.247 . S
O145 Cd141 2.439 . S
O145 C146 1.208 . S
C146 O144 1.247 . S
C146 O145 1.208 . S
C147 O152 1.247 . S
C147 O153 1.208 . S
C148 O140 1.315 . S
C148 O143 1.279 . S
C149 O150 1.315 . S
C149 O151 1.279 . S
O150 Cd142 2.223 . S
O150 C149 1.315 . S
O151 Cd141 2.240 . S
O151 C149 1.279 . S
O152 Cd142 2.297 . S
O152 C147 1.247 . S
O153 Cd142 2.439 . S
O153 C147 1.208 . S
O154 Cd155 2.223 . S
O154 C162 1.315 . S
Cd155 O154 2.223 . S
Cd155 O158 2.297 . S
Cd155 O159 2.439 . S
Cd155 O165 2.240 . S
Cd156 O157 2.240 . S
Cd156 O164 2.223 . S
Cd156 O166 2.297 . S
Cd156 O167 2.439 . S
O157 Cd156 2.240 . S
O157 C162 1.279 . S
O158 Cd155 2.297 . S
O158 C160 1.247 . S
O159 Cd155 2.439 . S
O159 C160 1.208 . S
C160 O158 1.247 . S
C160 O159 1.208 . S
C161 O166 1.247 . S
C161 O167 1.208 . S
C162 O154 1.315 . S
C162 O157 1.279 . S
C163 O164 1.315 . S
C163 O165 1.279 . S
O164 Cd156 2.223 . S
O164 C163 1.315 . S
O165 Cd155 2.240 . S
O165 C163 1.279 . S
O166 Cd156 2.297 . S
O166 C161 1.247 . S
O167 Cd156 2.439 . S
O167 C161 1.208 . S
O168 Cd169 2.223 . S
O168 C176 1.315 . S
Cd169 O168 2.223 . S
Cd169 O172 2.297 . S
Cd169 O173 2.439 . S
Cd169 O179 2.240 . S
Cd170 O171 2.240 . S
Cd170 O178 2.223 . S
Cd170 O180 2.297 . S
Cd170 O181 2.439 . S
O171 Cd170 2.240 . S
O171 C176 1.279 . S
O172 Cd169 2.297 . S
O172 C174 1.247 . S
O173 Cd169 2.439 . S
O173 C174 1.208 . S
C174 O172 1.247 . S
C174 O173 1.208 . S
C175 O180 1.247 . S
C175 O181 1.208 . S
C176 O168 1.315 . S
C176 O171 1.279 . S
C177 O178 1.315 . S
C177 O179 1.279 . S
O178 Cd170 2.223 . S
O178 C177 1.315 . S
O179 Cd169 2.240 . S
O179 C177 1.279 . S
O180 Cd170 2.297 . S
O180 C175 1.247 . S
O181 Cd170 2.439 . S
O181 C175 1.208 . S
O182 Cd183 2.223 . S
O182 C190 1.315 . S
Cd183 O182 2.223 . S
Cd183 O186 2.297 . S
Cd183 O187 2.439 . S
Cd183 O193 2.240 . S
Cd184 O185 2.240 . S
Cd184 O192 2.223 . S
Cd184 O194 2.297 . S
Cd184 O195 2.439 . S
O185 Cd184 2.240 . S
O185 C190 1.279 . S
O186 Cd183 2.297 . S
O186 C188 1.247 . S
O187 Cd183 2.439 . S
O187 C188 1.208 . S
C188 O186 1.247 . S
C188 O187 1.208 . S
C189 O194 1.247 . S
C189 O195 1.208 . S
C190 O182 1.315 . S
C190 O185 1.279 . S
C191 O192 1.315 . S
C191 O193 1.279 . S
O192 Cd184 2.223 . S
O192 C191 1.315 . S
O193 Cd183 2.240 . S
O193 C191 1.279 . S
O194 Cd184 2.297 . S
O194 C189 1.247 . S
O195 Cd184 2.439 . S
O195 C189 1.208 . S
O196 Cd197 2.223 . S
O196 C204 1.315 . S
Cd197 O196 2.223 . S
Cd197 O200 2.297 . S
Cd197 O201 2.439 . S
Cd197 O207 2.240 . S
Cd198 O199 2.240 . S
Cd198 O206 2.223 . S
Cd198 O208 2.297 . S
Cd198 O209 2.439 . S
O199 Cd198 2.240 . S
O199 C204 1.279 . S
O200 Cd197 2.297 . S
O200 C202 1.247 . S
O201 Cd197 2.439 . S
O201 C202 1.208 . S
C202 O200 1.247 . S
C202 O201 1.208 . S
C203 O208 1.247 . S
C203 O209 1.208 . S
C204 O196 1.315 . S
C204 O199 1.279 . S
C205 O206 1.315 . S
C205 O207 1.279 . S
O206 Cd198 2.223 . S
O206 C205 1.315 . S
O207 Cd197 2.240 . S
O207 C205 1.279 . S
O208 Cd198 2.297 . S
O208 C203 1.247 . S
O209 Cd198 2.439 . S
O209 C203 1.208 . S
O210 Cd211 2.223 . S
O210 C218 1.315 . S
Cd211 O210 2.223 . S
Cd211 O214 2.297 . S
Cd211 O215 2.439 . S
Cd211 O221 2.240 . S
Cd212 O213 2.240 . S
Cd212 O220 2.223 . S
Cd212 O222 2.297 . S
Cd212 O223 2.439 . S
O213 Cd212 2.240 . S
O213 C218 1.279 . S
O214 Cd211 2.297 . S
O214 C216 1.247 . S
O215 Cd211 2.439 . S
O215 C216 1.208 . S
C216 O214 1.247 . S
C216 O215 1.208 . S
C217 O222 1.247 . S
C217 O223 1.208 . S
C218 O210 1.315 . S
C218 O213 1.279 . S
C219 O220 1.315 . S
C219 O221 1.279 . S
O220 Cd212 2.223 . S
O220 C219 1.315 . S
O221 Cd211 2.240 . S
O221 C219 1.279 . S
O222 Cd212 2.297 . S
O222 C217 1.247 . S
O223 Cd212 2.439 . S
O223 C217 1.208 . S
H224 C232 0.929 . S
H225 C234 0.930 . S
H226 C236 0.930 . S
H227 C239 0.929 . S
H228 C242 0.930 . S
H229 C244 0.960 . S
H230 C244 0.960 . S
H231 C244 0.960 . S
C232 H224 0.929 . S
C232 C233 1.377 . S
C232 C234 1.384 . S
C233 C232 1.377 . S
C233 C239 1.390 . S
C234 H225 0.930 . S
C234 C232 1.384 . S
C234 C235 1.372 . S
C235 C234 1.372 . S
C235 C236 1.400 . S
C235 C240 1.490 . S
C236 H226 0.930 . S
C236 C235 1.400 . S
C236 C239 1.386 . S
H237 C253 0.930 . S
H238 C254 0.931 . S
C239 H227 0.929 . S
C239 C233 1.390 . S
C239 C236 1.386 . S
C240 C235 1.490 . S
C240 C242 1.395 . S
C240 C243 1.403 . S
H241 C247 0.930 . S
C242 H228 0.930 . S
C242 C240 1.395 . S
C242 C245 1.403 . S
C243 C240 1.403 . S
C243 C244 1.524 . S
C243 C247 1.400 . S
C244 H229 0.960 . S
C244 H230 0.960 . S
C244 H231 0.960 . S
C244 C243 1.524 . S
C245 C242 1.403 . S
C245 C246 1.392 . S
C245 C249 1.495 . S
C246 C245 1.392 . S
C246 C247 1.385 . S
C246 C248 1.478 . S
C247 H241 0.930 . S
C247 C243 1.400 . S
C247 C246 1.385 . S
C248 C246 1.478 . S
C248 C250 1.381 . S
C248 C254 1.383 . S
C249 C245 1.495 . S
C249 H255 0.959 . S
C249 H256 0.961 . S
C249 H257 0.960 . S
C250 C248 1.381 . S
C250 C251 1.394 . S
C250 H258 0.930 . S
C251 C250 1.394 . S
C251 C252 1.383 . S
C251 H259 0.929 . S
C252 C251 1.383 . S
C252 C253 1.377 . S
C253 H237 0.930 . S
C253 C252 1.377 . S
C253 C254 1.379 . S
C254 H238 0.931 . S
C254 C248 1.383 . S
C254 C253 1.379 . S
H255 C249 0.959 . S
H256 C249 0.961 . S
H257 C249 0.960 . S
H258 C250 0.930 . S
H259 C251 0.929 . S
H260 C268 0.929 . S
H261 C270 0.930 . S
H262 C272 0.930 . S
H263 C275 0.929 . S
H264 C278 0.930 . S
H265 C280 0.960 . S
H266 C280 0.960 . S
H267 C280 0.960 . S
C268 H260 0.929 . S
C268 C269 1.377 . S
C268 C270 1.384 . S
C269 C268 1.377 . S
C269 C275 1.390 . S
C270 H261 0.930 . S
C270 C268 1.384 . S
C270 C271 1.372 . S
C271 C270 1.372 . S
C271 C272 1.400 . S
C271 C276 1.490 . S
C272 H262 0.930 . S
C272 C271 1.400 . S
C272 C275 1.386 . S
H273 C289 0.930 . S
H274 C290 0.931 . S
C275 H263 0.929 . S
C275 C269 1.390 . S
C275 C272 1.386 . S
C276 C271 1.490 . S
C276 C278 1.395 . S
C276 C279 1.403 . S
H277 C283 0.930 . S
C278 H264 0.930 . S
C278 C276 1.395 . S
C278 C281 1.403 . S
C279 C276 1.403 . S
C279 C280 1.524 . S
C279 C283 1.400 . S
C280 H265 0.960 . S
C280 H266 0.960 . S
C280 H267 0.960 . S
C280 C279 1.524 . S
C281 C278 1.403 . S
C281 C282 1.392 . S
C281 C285 1.495 . S
C282 C281 1.392 . S
C282 C283 1.385 . S
C282 C284 1.478 . S
C283 H277 0.930 . S
C283 C279 1.400 . S
C283 C282 1.385 . S
C284 C282 1.478 . S
C284 C286 1.381 . S
C284 C290 1.383 . S
C285 C281 1.495 . S
C285 H291 0.959 . S
C285 H292 0.961 . S
C285 H293 0.960 . S
C286 C284 1.381 . S
C286 C287 1.394 . S
C286 H294 0.930 . S
C287 C286 1.394 . S
C287 C288 1.383 . S
C287 H295 0.929 . S
C288 C287 1.383 . S
C288 C289 1.377 . S
C289 H273 0.930 . S
C289 C288 1.377 . S
C289 C290 1.379 . S
C290 H274 0.931 . S
C290 C284 1.383 . S
C290 C289 1.379 . S
H291 C285 0.959 . S
H292 C285 0.961 . S
H293 C285 0.960 . S
H294 C286 0.930 . S
H295 C287 0.929 . S
H296 C304 0.929 . S
H297 C306 0.930 . S
H298 C308 0.930 . S
H299 C311 0.929 . S
H300 C314 0.930 . S
H301 C316 0.960 . S
H302 C316 0.960 . S
H303 C316 0.960 . S
C304 H296 0.929 . S
C304 C305 1.377 . S
C304 C306 1.384 . S
C305 C304 1.377 . S
C305 C311 1.390 . S
C306 H297 0.930 . S
C306 C304 1.384 . S
C306 C307 1.372 . S
C307 C306 1.372 . S
C307 C308 1.400 . S
C307 C312 1.490 . S
C308 H298 0.930 . S
C308 C307 1.400 . S
C308 C311 1.386 . S
H309 C325 0.930 . S
H310 C326 0.931 . S
C311 H299 0.929 . S
C311 C305 1.390 . S
C311 C308 1.386 . S
C312 C307 1.490 . S
C312 C314 1.395 . S
C312 C315 1.403 . S
H313 C319 0.930 . S
C314 H300 0.930 . S
C314 C312 1.395 . S
C314 C317 1.403 . S
C315 C312 1.403 . S
C315 C316 1.524 . S
C315 C319 1.400 . S
C316 H301 0.960 . S
C316 H302 0.960 . S
C316 H303 0.960 . S
C316 C315 1.524 . S
C317 C314 1.403 . S
C317 C318 1.392 . S
C317 C321 1.495 . S
C318 C317 1.392 . S
C318 C319 1.385 . S
C318 C320 1.478 . S
C319 H313 0.930 . S
C319 C315 1.400 . S
C319 C318 1.385 . S
C320 C318 1.478 . S
C320 C322 1.381 . S
C320 C326 1.383 . S
C321 C317 1.495 . S
C321 H327 0.959 . S
C321 H328 0.961 . S
C321 H329 0.960 . S
C322 C320 1.381 . S
C322 C323 1.394 . S
C322 H330 0.930 . S
C323 C322 1.394 . S
C323 C324 1.383 . S
C323 H331 0.929 . S
C324 C323 1.383 . S
C324 C325 1.377 . S
C325 H309 0.930 . S
C325 C324 1.377 . S
C325 C326 1.379 . S
C326 H310 0.931 . S
C326 C320 1.383 . S
C326 C325 1.379 . S
H327 C321 0.959 . S
H328 C321 0.961 . S
H329 C321 0.960 . S
H330 C322 0.930 . S
H331 C323 0.929 . S
H332 C340 0.929 . S
H333 C342 0.930 . S
H334 C344 0.930 . S
H335 C347 0.929 . S
H336 C350 0.930 . S
H337 C352 0.960 . S
H338 C352 0.960 . S
H339 C352 0.960 . S
C340 H332 0.929 . S
C340 C341 1.377 . S
C340 C342 1.384 . S
C341 C340 1.377 . S
C341 C347 1.390 . S
C342 H333 0.930 . S
C342 C340 1.384 . S
C342 C343 1.372 . S
C343 C342 1.372 . S
C343 C344 1.400 . S
C343 C348 1.490 . S
C344 H334 0.930 . S
C344 C343 1.400 . S
C344 C347 1.386 . S
H345 C361 0.930 . S
H346 C362 0.931 . S
C347 H335 0.929 . S
C347 C341 1.390 . S
C347 C344 1.386 . S
C348 C343 1.490 . S
C348 C350 1.395 . S
C348 C351 1.403 . S
H349 C355 0.930 . S
C350 H336 0.930 . S
C350 C348 1.395 . S
C350 C353 1.403 . S
C351 C348 1.403 . S
C351 C352 1.524 . S
C351 C355 1.400 . S
C352 H337 0.960 . S
C352 H338 0.960 . S
C352 H339 0.960 . S
C352 C351 1.524 . S
C353 C350 1.403 . S
C353 C354 1.392 . S
C353 C357 1.495 . S
C354 C353 1.392 . S
C354 C355 1.385 . S
C354 C356 1.478 . S
C355 H349 0.930 . S
C355 C351 1.400 . S
C355 C354 1.385 . S
C356 C354 1.478 . S
C356 C358 1.381 . S
C356 C362 1.383 . S
C357 C353 1.495 . S
C357 H363 0.959 . S
C357 H364 0.961 . S
C357 H365 0.960 . S
C358 C356 1.381 . S
C358 C359 1.394 . S
C358 H366 0.930 . S
C359 C358 1.394 . S
C359 C360 1.383 . S
C359 H367 0.929 . S
C360 C359 1.383 . S
C360 C361 1.377 . S
C361 H345 0.930 . S
C361 C360 1.377 . S
C361 C362 1.379 . S
C362 H346 0.931 . S
C362 C356 1.383 . S
C362 C361 1.379 . S
H363 C357 0.959 . S
H364 C357 0.961 . S
H365 C357 0.960 . S
H366 C358 0.930 . S
H367 C359 0.929 . S
H368 C376 0.929 . S
H369 C378 0.930 . S
H370 C380 0.930 . S
H371 C383 0.929 . S
H372 C386 0.930 . S
H373 C388 0.960 . S
H374 C388 0.960 . S
H375 C388 0.960 . S
C376 H368 0.929 . S
C376 C377 1.377 . S
C376 C378 1.384 . S
C377 C376 1.377 . S
C377 C383 1.390 . S
C378 H369 0.930 . S
C378 C376 1.384 . S
C378 C379 1.372 . S
C379 C378 1.372 . S
C379 C380 1.400 . S
C379 C384 1.490 . S
C380 H370 0.930 . S
C380 C379 1.400 . S
C380 C383 1.386 . S
H381 C397 0.930 . S
H382 C398 0.931 . S
C383 H371 0.929 . S
C383 C377 1.390 . S
C383 C380 1.386 . S
C384 C379 1.490 . S
C384 C386 1.395 . S
C384 C387 1.403 . S
H385 C391 0.930 . S
C386 H372 0.930 . S
C386 C384 1.395 . S
C386 C389 1.403 . S
C387 C384 1.403 . S
C387 C388 1.524 . S
C387 C391 1.400 . S
C388 H373 0.960 . S
C388 H374 0.960 . S
C388 H375 0.960 . S
C388 C387 1.524 . S
C389 C386 1.403 . S
C389 C390 1.392 . S
C389 C393 1.495 . S
C390 C389 1.392 . S
C390 C391 1.385 . S
C390 C392 1.478 . S
C391 H385 0.930 . S
C391 C387 1.400 . S
C391 C390 1.385 . S
C392 C390 1.478 . S
C392 C394 1.381 . S
C392 C398 1.383 . S
C393 C389 1.495 . S
C393 H399 0.959 . S
C393 H400 0.961 . S
C393 H401 0.960 . S
C394 C392 1.381 . S
C394 C395 1.394 . S
C394 H402 0.930 . S
C395 C394 1.394 . S
C395 C396 1.383 . S
C395 H403 0.929 . S
C396 C395 1.383 . S
C396 C397 1.377 . S
C397 H381 0.930 . S
C397 C396 1.377 . S
C397 C398 1.379 . S
C398 H382 0.931 . S
C398 C392 1.383 . S
C398 C397 1.379 . S
H399 C393 0.959 . S
H400 C393 0.961 . S
H401 C393 0.960 . S
H402 C394 0.930 . S
H403 C395 0.929 . S
H404 C412 0.929 . S
H405 C414 0.930 . S
H406 C416 0.930 . S
H407 C419 0.929 . S
H408 C422 0.930 . S
H409 C424 0.960 . S
H410 C424 0.960 . S
H411 C424 0.960 . S
C412 H404 0.929 . S
C412 C413 1.377 . S
C412 C414 1.384 . S
C413 C412 1.377 . S
C413 C419 1.390 . S
C414 H405 0.930 . S
C414 C412 1.384 . S
C414 C415 1.372 . S
C415 C414 1.372 . S
C415 C416 1.400 . S
C415 C420 1.490 . S
C416 H406 0.930 . S
C416 C415 1.400 . S
C416 C419 1.386 . S
H417 C433 0.930 . S
H418 C434 0.931 . S
C419 H407 0.929 . S
C419 C413 1.390 . S
C419 C416 1.386 . S
C420 C415 1.490 . S
C420 C422 1.395 . S
C420 C423 1.403 . S
H421 C427 0.930 . S
C422 H408 0.930 . S
C422 C420 1.395 . S
C422 C425 1.403 . S
C423 C420 1.403 . S
C423 C424 1.524 . S
C423 C427 1.400 . S
C424 H409 0.960 . S
C424 H410 0.960 . S
C424 H411 0.960 . S
C424 C423 1.524 . S
C425 C422 1.403 . S
C425 C426 1.392 . S
C425 C429 1.495 . S
C426 C425 1.392 . S
C426 C427 1.385 . S
C426 C428 1.478 . S
C427 H421 0.930 . S
C427 C423 1.400 . S
C427 C426 1.385 . S
C428 C426 1.478 . S
C428 C430 1.381 . S
C428 C434 1.383 . S
C429 C425 1.495 . S
C429 H435 0.959 . S
C429 H436 0.961 . S
C429 H437 0.960 . S
C430 C428 1.381 . S
C430 C431 1.394 . S
C430 H438 0.930 . S
C431 C430 1.394 . S
C431 C432 1.383 . S
C431 H439 0.929 . S
C432 C431 1.383 . S
C432 C433 1.377 . S
C433 H417 0.930 . S
C433 C432 1.377 . S
C433 C434 1.379 . S
C434 H418 0.931 . S
C434 C428 1.383 . S
C434 C433 1.379 . S
H435 C429 0.959 . S
H436 C429 0.961 . S
H437 C429 0.960 . S
H438 C430 0.930 . S
H439 C431 0.929 . S
H440 C448 0.929 . S
H441 C450 0.930 . S
H442 C452 0.930 . S
H443 C455 0.929 . S
H444 C458 0.930 . S
H445 C460 0.960 . S
H446 C460 0.960 . S
H447 C460 0.960 . S
C448 H440 0.929 . S
C448 C449 1.377 . S
C448 C450 1.384 . S
C449 C448 1.377 . S
C449 C455 1.390 . S
C450 H441 0.930 . S
C450 C448 1.384 . S
C450 C451 1.372 . S
C451 C450 1.372 . S
C451 C452 1.400 . S
C451 C456 1.490 . S
C452 H442 0.930 . S
C452 C451 1.400 . S
C452 C455 1.386 . S
H453 C469 0.930 . S
H454 C470 0.931 . S
C455 H443 0.929 . S
C455 C449 1.390 . S
C455 C452 1.386 . S
C456 C451 1.490 . S
C456 C458 1.395 . S
C456 C459 1.403 . S
H457 C463 0.930 . S
C458 H444 0.930 . S
C458 C456 1.395 . S
C458 C461 1.403 . S
C459 C456 1.403 . S
C459 C460 1.524 . S
C459 C463 1.400 . S
C460 H445 0.960 . S
C460 H446 0.960 . S
C460 H447 0.960 . S
C460 C459 1.524 . S
C461 C458 1.403 . S
C461 C462 1.392 . S
C461 C465 1.495 . S
C462 C461 1.392 . S
C462 C463 1.385 . S
C462 C464 1.478 . S
C463 H457 0.930 . S
C463 C459 1.400 . S
C463 C462 1.385 . S
C464 C462 1.478 . S
C464 C466 1.381 . S
C464 C470 1.383 . S
C465 C461 1.495 . S
C465 H471 0.959 . S
C465 H472 0.961 . S
C465 H473 0.960 . S
C466 C464 1.381 . S
C466 C467 1.394 . S
C466 H474 0.930 . S
C467 C466 1.394 . S
C467 C468 1.383 . S
C467 H475 0.929 . S
C468 C467 1.383 . S
C468 C469 1.377 . S
C469 H453 0.930 . S
C469 C468 1.377 . S
C469 C470 1.379 . S
C470 H454 0.931 . S
C470 C464 1.383 . S
C470 C469 1.379 . S
H471 C465 0.959 . S
H472 C465 0.961 . S
H473 C465 0.960 . S
H474 C466 0.930 . S
H475 C467 0.929 . S
H476 C484 0.929 . S
H477 C486 0.930 . S
H478 C488 0.930 . S
H479 C491 0.929 . S
H480 C494 0.930 . S
H481 C496 0.960 . S
H482 C496 0.960 . S
H483 C496 0.960 . S
C484 H476 0.929 . S
C484 C485 1.377 . S
C484 C486 1.384 . S
C485 C484 1.377 . S
C485 C491 1.390 . S
C486 H477 0.930 . S
C486 C484 1.384 . S
C486 C487 1.372 . S
C487 C486 1.372 . S
C487 C488 1.400 . S
C487 C492 1.490 . S
C488 H478 0.930 . S
C488 C487 1.400 . S
C488 C491 1.386 . S
H489 C505 0.930 . S
H490 C506 0.931 . S
C491 H479 0.929 . S
C491 C485 1.390 . S
C491 C488 1.386 . S
C492 C487 1.490 . S
C492 C494 1.395 . S
C492 C495 1.403 . S
H493 C499 0.930 . S
C494 H480 0.930 . S
C494 C492 1.395 . S
C494 C497 1.403 . S
C495 C492 1.403 . S
C495 C496 1.524 . S
C495 C499 1.400 . S
C496 H481 0.960 . S
C496 H482 0.960 . S
C496 H483 0.960 . S
C496 C495 1.524 . S
C497 C494 1.403 . S
C497 C498 1.392 . S
C497 C501 1.495 . S
C498 C497 1.392 . S
C498 C499 1.385 . S
C498 C500 1.478 . S
C499 H493 0.930 . S
C499 C495 1.400 . S
C499 C498 1.385 . S
C500 C498 1.478 . S
C500 C502 1.381 . S
C500 C506 1.383 . S
C501 C497 1.495 . S
C501 H507 0.959 . S
C501 H508 0.961 . S
C501 H509 0.960 . S
C502 C500 1.381 . S
C502 C503 1.394 . S
C502 H510 0.930 . S
C503 C502 1.394 . S
C503 C504 1.383 . S
C503 H511 0.929 . S
C504 C503 1.383 . S
C504 C505 1.377 . S
C505 H489 0.930 . S
C505 C504 1.377 . S
C505 C506 1.379 . S
C506 H490 0.931 . S
C506 C500 1.383 . S
C506 C505 1.379 . S
H507 C501 0.959 . S
H508 C501 0.961 . S
H509 C501 0.960 . S
H510 C502 0.930 . S
H511 C503 0.929 . S
H512 C520 0.929 . S
H513 C522 0.930 . S
H514 C524 0.930 . S
H515 C527 0.929 . S
H516 C530 0.930 . S
H517 C532 0.960 . S
H518 C532 0.960 . S
H519 C532 0.960 . S
C520 H512 0.929 . S
C520 C521 1.377 . S
C520 C522 1.384 . S
C521 C520 1.377 . S
C521 C527 1.390 . S
C522 H513 0.930 . S
C522 C520 1.384 . S
C522 C523 1.372 . S
C523 C522 1.372 . S
C523 C524 1.400 . S
C523 C528 1.490 . S
C524 H514 0.930 . S
C524 C523 1.400 . S
C524 C527 1.386 . S
H525 C541 0.930 . S
H526 C542 0.931 . S
C527 H515 0.929 . S
C527 C521 1.390 . S
C527 C524 1.386 . S
C528 C523 1.490 . S
C528 C530 1.395 . S
C528 C531 1.403 . S
H529 C535 0.930 . S
C530 H516 0.930 . S
C530 C528 1.395 . S
C530 C533 1.403 . S
C531 C528 1.403 . S
C531 C532 1.524 . S
C531 C535 1.400 . S
C532 H517 0.960 . S
C532 H518 0.960 . S
C532 H519 0.960 . S
C532 C531 1.524 . S
C533 C530 1.403 . S
C533 C534 1.392 . S
C533 C537 1.495 . S
C534 C533 1.392 . S
C534 C535 1.385 . S
C534 C536 1.478 . S
C535 H529 0.930 . S
C535 C531 1.400 . S
C535 C534 1.385 . S
C536 C534 1.478 . S
C536 C538 1.381 . S
C536 C542 1.383 . S
C537 C533 1.495 . S
C537 H543 0.959 . S
C537 H544 0.961 . S
C537 H545 0.960 . S
C538 C536 1.381 . S
C538 C539 1.394 . S
C538 H546 0.930 . S
C539 C538 1.394 . S
C539 C540 1.383 . S
C539 H547 0.929 . S
C540 C539 1.383 . S
C540 C541 1.377 . S
C541 H525 0.930 . S
C541 C540 1.377 . S
C541 C542 1.379 . S
C542 H526 0.931 . S
C542 C536 1.383 . S
C542 C541 1.379 . S
H543 C537 0.959 . S
H544 C537 0.961 . S
H545 C537 0.960 . S
H546 C538 0.930 . S
H547 C539 0.929 . S
H548 C556 0.929 . S
H549 C558 0.930 . S
H550 C560 0.930 . S
H551 C563 0.929 . S
H552 C566 0.930 . S
H553 C568 0.960 . S
H554 C568 0.960 . S
H555 C568 0.960 . S
C556 H548 0.929 . S
C556 C557 1.377 . S
C556 C558 1.384 . S
C557 C556 1.377 . S
C557 C563 1.390 . S
C558 H549 0.930 . S
C558 C556 1.384 . S
C558 C559 1.372 . S
C559 C558 1.372 . S
C559 C560 1.400 . S
C559 C564 1.490 . S
C560 H550 0.930 . S
C560 C559 1.400 . S
C560 C563 1.386 . S
H561 C577 0.930 . S
H562 C578 0.931 . S
C563 H551 0.929 . S
C563 C557 1.390 . S
C563 C560 1.386 . S
C564 C559 1.490 . S
C564 C566 1.395 . S
C564 C567 1.403 . S
H565 C571 0.930 . S
C566 H552 0.930 . S
C566 C564 1.395 . S
C566 C569 1.403 . S
C567 C564 1.403 . S
C567 C568 1.524 . S
C567 C571 1.400 . S
C568 H553 0.960 . S
C568 H554 0.960 . S
C568 H555 0.960 . S
C568 C567 1.524 . S
C569 C566 1.403 . S
C569 C570 1.392 . S
C569 C573 1.495 . S
C570 C569 1.392 . S
C570 C571 1.385 . S
C570 C572 1.478 . S
C571 H565 0.930 . S
C571 C567 1.400 . S
C571 C570 1.385 . S
C572 C570 1.478 . S
C572 C574 1.381 . S
C572 C578 1.383 . S
C573 C569 1.495 . S
C573 H579 0.959 . S
C573 H580 0.961 . S
C573 H581 0.960 . S
C574 C572 1.381 . S
C574 C575 1.394 . S
C574 H582 0.930 . S
C575 C574 1.394 . S
C575 C576 1.383 . S
C575 H583 0.929 . S
C576 C575 1.383 . S
C576 C577 1.377 . S
C577 H561 0.930 . S
C577 C576 1.377 . S
C577 C578 1.379 . S
C578 H562 0.931 . S
C578 C572 1.383 . S
C578 C577 1.379 . S
H579 C573 0.959 . S
H580 C573 0.961 . S
H581 C573 0.960 . S
H582 C574 0.930 . S
H583 C575 0.929 . S
H584 C592 0.929 . S
H585 C594 0.930 . S
H586 C596 0.930 . S
H587 C599 0.929 . S
H588 C602 0.930 . S
H589 C604 0.960 . S
H590 C604 0.960 . S
H591 C604 0.960 . S
C592 H584 0.929 . S
C592 C593 1.377 . S
C592 C594 1.384 . S
C593 C592 1.377 . S
C593 C599 1.390 . S
C594 H585 0.930 . S
C594 C592 1.384 . S
C594 C595 1.372 . S
C595 C594 1.372 . S
C595 C596 1.400 . S
C595 C600 1.490 . S
C596 H586 0.930 . S
C596 C595 1.400 . S
C596 C599 1.386 . S
H597 C613 0.930 . S
H598 C614 0.931 . S
C599 H587 0.929 . S
C599 C593 1.390 . S
C599 C596 1.386 . S
C600 C595 1.490 . S
C600 C602 1.395 . S
C600 C603 1.403 . S
H601 C607 0.930 . S
C602 H588 0.930 . S
C602 C600 1.395 . S
C602 C605 1.403 . S
C603 C600 1.403 . S
C603 C604 1.524 . S
C603 C607 1.400 . S
C604 H589 0.960 . S
C604 H590 0.960 . S
C604 H591 0.960 . S
C604 C603 1.524 . S
C605 C602 1.403 . S
C605 C606 1.392 . S
C605 C609 1.495 . S
C606 C605 1.392 . S
C606 C607 1.385 . S
C606 C608 1.478 . S
C607 H601 0.930 . S
C607 C603 1.400 . S
C607 C606 1.385 . S
C608 C606 1.478 . S
C608 C610 1.381 . S
C608 C614 1.383 . S
C609 C605 1.495 . S
C609 H615 0.959 . S
C609 H616 0.961 . S
C609 H617 0.960 . S
C610 C608 1.381 . S
C610 C611 1.394 . S
C610 H618 0.930 . S
C611 C610 1.394 . S
C611 C612 1.383 . S
C611 H619 0.929 . S
C612 C611 1.383 . S
C612 C613 1.377 . S
C613 H597 0.930 . S
C613 C612 1.377 . S
C613 C614 1.379 . S
C614 H598 0.931 . S
C614 C608 1.383 . S
C614 C613 1.379 . S
H615 C609 0.959 . S
H616 C609 0.961 . S
H617 C609 0.960 . S
H618 C610 0.930 . S
H619 C611 0.929 . S
H620 C628 0.929 . S
H621 C630 0.930 . S
H622 C632 0.930 . S
H623 C635 0.929 . S
H624 C638 0.930 . S
H625 C640 0.960 . S
H626 C640 0.960 . S
H627 C640 0.960 . S
C628 H620 0.929 . S
C628 C629 1.377 . S
C628 C630 1.384 . S
C629 C628 1.377 . S
C629 C635 1.390 . S
C630 H621 0.930 . S
C630 C628 1.384 . S
C630 C631 1.372 . S
C631 C630 1.372 . S
C631 C632 1.400 . S
C631 C636 1.490 . S
C632 H622 0.930 . S
C632 C631 1.400 . S
C632 C635 1.386 . S
H633 C649 0.930 . S
H634 C650 0.931 . S
C635 H623 0.929 . S
C635 C629 1.390 . S
C635 C632 1.386 . S
C636 C631 1.490 . S
C636 C638 1.395 . S
C636 C639 1.403 . S
H637 C643 0.930 . S
C638 H624 0.930 . S
C638 C636 1.395 . S
C638 C641 1.403 1_554 S
C639 C636 1.403 . S
C639 C640 1.524 . S
C639 C643 1.400 1_554 S
C640 H625 0.960 . S
C640 H626 0.960 . S
C640 H627 0.960 . S
C640 C639 1.524 . S
C641 C638 1.403 1_556 S
C641 C642 1.392 . S
C641 C645 1.495 . S
C642 C641 1.392 . S
C642 C643 1.385 . S
C642 C644 1.478 . S
C643 H637 0.930 . S
C643 C639 1.400 1_556 S
C643 C642 1.385 . S
C644 C642 1.478 . S
C644 C646 1.381 . S
C644 C650 1.383 . S
C645 C641 1.495 . S
C645 H651 0.959 . S
C645 H652 0.961 . S
C645 H653 0.960 . S
C646 C644 1.381 . S
C646 C647 1.394 . S
C646 H654 0.930 . S
C647 C646 1.394 . S
C647 C648 1.383 . S
C647 H655 0.929 . S
C648 C647 1.383 . S
C648 C649 1.377 . S
C649 H633 0.930 . S
C649 C648 1.377 . S
C649 C650 1.379 . S
C650 H634 0.931 . S
C650 C644 1.383 . S
C650 C649 1.379 . S
H651 C645 0.959 . S
H652 C645 0.961 . S
H653 C645 0.960 . S
H654 C646 0.930 . S
H655 C647 0.929 . S
H656 C664 0.929 . S
H657 C666 0.930 . S
H658 C668 0.930 . S
H659 C671 0.929 . S
H660 C674 0.930 . S
H661 C676 0.960 . S
H662 C676 0.960 . S
H663 C676 0.960 . S
C664 H656 0.929 . S
C664 C665 1.377 . S
C664 C666 1.384 . S
C665 C664 1.377 . S
C665 C671 1.390 . S
C666 H657 0.930 . S
C666 C664 1.384 . S
C666 C667 1.372 . S
C667 C666 1.372 . S
C667 C668 1.400 . S
C667 C672 1.490 . S
C668 H658 0.930 . S
C668 C667 1.400 . S
C668 C671 1.386 . S
H669 C685 0.930 . S
H670 C686 0.931 . S
C671 H659 0.929 . S
C671 C665 1.390 . S
C671 C668 1.386 . S
C672 C667 1.490 . S
C672 C674 1.395 . S
C672 C675 1.403 . S
H673 C679 0.930 . S
C674 H660 0.930 . S
C674 C672 1.395 . S
C674 C677 1.403 1_554 S
C675 C672 1.403 . S
C675 C676 1.524 . S
C675 C679 1.400 1_554 S
C676 H661 0.960 . S
C676 H662 0.960 . S
C676 H663 0.960 . S
C676 C675 1.524 . S
C677 C674 1.403 1_556 S
C677 C678 1.392 . S
C677 C681 1.495 . S
C678 C677 1.392 . S
C678 C679 1.385 . S
C678 C680 1.478 . S
C679 H673 0.930 . S
C679 C675 1.400 1_556 S
C679 C678 1.385 . S
C680 C678 1.478 . S
C680 C682 1.381 . S
C680 C686 1.383 . S
C681 C677 1.495 . S
C681 H687 0.959 . S
C681 H688 0.961 . S
C681 H689 0.960 . S
C682 C680 1.381 . S
C682 C683 1.394 . S
C682 H690 0.930 . S
C683 C682 1.394 . S
C683 C684 1.383 . S
C683 H691 0.929 . S
C684 C683 1.383 . S
C684 C685 1.377 . S
C685 H669 0.930 . S
C685 C684 1.377 . S
C685 C686 1.379 . S
C686 H670 0.931 . S
C686 C680 1.383 . S
C686 C685 1.379 . S
H687 C681 0.959 . S
H688 C681 0.961 . S
H689 C681 0.960 . S
H690 C682 0.930 . S
H691 C683 0.929 . S
H692 C700 0.929 . S
H693 C702 0.930 . S
H694 C704 0.930 . S
H695 C707 0.929 . S
H696 C710 0.930 . S
H697 C712 0.960 . S
H698 C712 0.960 . S
H699 C712 0.960 . S
C700 H692 0.929 . S
C700 C701 1.377 . S
C700 C702 1.384 . S
C701 C700 1.377 . S
C701 C707 1.390 . S
C702 H693 0.930 . S
C702 C700 1.384 . S
C702 C703 1.372 . S
C703 C702 1.372 . S
C703 C704 1.400 . S
C703 C708 1.490 . S
C704 H694 0.930 . S
C704 C703 1.400 . S
C704 C707 1.386 . S
H705 C721 0.930 . S
H706 C722 0.931 . S
C707 H695 0.929 . S
C707 C701 1.390 . S
C707 C704 1.386 . S
C708 C703 1.490 . S
C708 C710 1.395 . S
C708 C711 1.403 . S
H709 C715 0.930 . S
C710 H696 0.930 . S
C710 C708 1.395 . S
C710 C713 1.403 . S
C711 C708 1.403 . S
C711 C712 1.524 . S
C711 C715 1.400 . S
C712 H697 0.960 . S
C712 H698 0.960 . S
C712 H699 0.960 . S
C712 C711 1.524 . S
C713 C710 1.403 . S
C713 C714 1.392 . S
C713 C717 1.495 . S
C714 C713 1.392 . S
C714 C715 1.385 . S
C714 C716 1.478 . S
C715 H709 0.930 . S
C715 C711 1.400 . S
C715 C714 1.385 . S
C716 C714 1.478 . S
C716 C718 1.381 . S
C716 C722 1.383 . S
C717 C713 1.495 . S
C717 H723 0.959 . S
C717 H724 0.961 . S
C717 H725 0.960 . S
C718 C716 1.381 . S
C718 C719 1.394 . S
C718 H726 0.930 . S
C719 C718 1.394 . S
C719 C720 1.383 . S
C719 H727 0.929 . S
C720 C719 1.383 . S
C720 C721 1.377 . S
C721 H705 0.930 . S
C721 C720 1.377 . S
C721 C722 1.379 . S
C722 H706 0.931 . S
C722 C716 1.383 . S
C722 C721 1.379 . S
H723 C717 0.959 . S
H724 C717 0.961 . S
H725 C717 0.960 . S
H726 C718 0.930 . S
H727 C719 0.929 . S
H728 C736 0.929 . S
H729 C738 0.930 . S
H730 C740 0.930 . S
H731 C743 0.929 . S
H732 C746 0.930 . S
H733 C748 0.960 . S
H734 C748 0.960 . S
H735 C748 0.960 . S
C736 H728 0.929 . S
C736 C737 1.377 . S
C736 C738 1.384 . S
C737 C736 1.377 . S
C737 C743 1.390 . S
C738 H729 0.930 . S
C738 C736 1.384 . S
C738 C739 1.372 . S
C739 C738 1.372 . S
C739 C740 1.400 . S
C739 C744 1.490 . S
C740 H730 0.930 . S
C740 C739 1.400 . S
C740 C743 1.386 . S
H741 C757 0.930 . S
H742 C758 0.931 . S
C743 H731 0.929 . S
C743 C737 1.390 . S
C743 C740 1.386 . S
C744 C739 1.490 . S
C744 C746 1.395 . S
C744 C747 1.403 . S
H745 C751 0.930 . S
C746 H732 0.930 . S
C746 C744 1.395 . S
C746 C749 1.403 . S
C747 C744 1.403 . S
C747 C748 1.524 . S
C747 C751 1.400 . S
C748 H733 0.960 . S
C748 H734 0.960 . S
C748 H735 0.960 . S
C748 C747 1.524 . S
C749 C746 1.403 . S
C749 C750 1.392 . S
C749 C753 1.495 . S
C750 C749 1.392 . S
C750 C751 1.385 . S
C750 C752 1.478 . S
C751 H745 0.930 . S
C751 C747 1.400 . S
C751 C750 1.385 . S
C752 C750 1.478 . S
C752 C754 1.381 . S
C752 C758 1.383 . S
C753 C749 1.495 . S
C753 H759 0.959 . S
C753 H760 0.961 . S
C753 H761 0.960 . S
C754 C752 1.381 . S
C754 C755 1.394 . S
C754 H762 0.930 . S
C755 C754 1.394 . S
C755 C756 1.383 . S
C755 H763 0.929 . S
C756 C755 1.383 . S
C756 C757 1.377 . S
C757 H741 0.930 . S
C757 C756 1.377 . S
C757 C758 1.379 . S
C758 H742 0.931 . S
C758 C752 1.383 . S
C758 C757 1.379 . S
H759 C753 0.959 . S
H760 C753 0.961 . S
H761 C753 0.960 . S
H762 C754 0.930 . S
H763 C755 0.929 . S
H764 C772 0.929 . S
H765 C774 0.930 . S
H766 C776 0.930 . S
H767 C779 0.929 . S
H768 C782 0.930 . S
H769 C784 0.960 . S
H770 C784 0.960 . S
H771 C784 0.960 . S
C772 H764 0.929 . S
C772 C773 1.377 . S
C772 C774 1.384 . S
C773 C772 1.377 . S
C773 C779 1.390 . S
C774 H765 0.930 . S
C774 C772 1.384 . S
C774 C775 1.372 . S
C775 C774 1.372 . S
C775 C776 1.400 . S
C775 C780 1.490 . S
C776 H766 0.930 . S
C776 C775 1.400 . S
C776 C779 1.386 . S
H777 C793 0.930 . S
H778 C794 0.931 . S
C779 H767 0.929 . S
C779 C773 1.390 . S
C779 C776 1.386 . S
C780 C775 1.490 . S
C780 C782 1.395 . S
C780 C783 1.403 . S
H781 C787 0.930 . S
C782 H768 0.930 . S
C782 C780 1.395 . S
C782 C785 1.403 . S
C783 C780 1.403 . S
C783 C784 1.524 . S
C783 C787 1.400 . S
C784 H769 0.960 . S
C784 H770 0.960 . S
C784 H771 0.960 . S
C784 C783 1.524 . S
C785 C782 1.403 . S
C785 C786 1.392 . S
C785 C789 1.495 . S
C786 C785 1.392 . S
C786 C787 1.385 . S
C786 C788 1.478 . S
C787 H781 0.930 . S
C787 C783 1.400 . S
C787 C786 1.385 . S
C788 C786 1.478 . S
C788 C790 1.381 . S
C788 C794 1.383 . S
C789 C785 1.495 . S
C789 H795 0.959 . S
C789 H796 0.961 . S
C789 H797 0.960 . S
C790 C788 1.381 . S
C790 C791 1.394 . S
C790 H798 0.930 . S
C791 C790 1.394 . S
C791 C792 1.383 . S
C791 H799 0.929 . S
C792 C791 1.383 . S
C792 C793 1.377 . S
C793 H777 0.930 . S
C793 C792 1.377 . S
C793 C794 1.379 . S
C794 H778 0.931 . S
C794 C788 1.383 . S
C794 C793 1.379 . S
H795 C789 0.959 . S
H796 C789 0.961 . S
H797 C789 0.960 . S
H798 C790 0.930 . S
H799 C791 0.929 . S
H800 C808 0.929 . S
H801 C810 0.930 . S
H802 C812 0.930 . S
H803 C815 0.929 . S
H804 C818 0.930 . S
H805 C820 0.960 . S
H806 C820 0.960 . S
H807 C820 0.960 . S
C808 H800 0.929 . S
C808 C809 1.377 . S
C808 C810 1.384 . S
C809 C808 1.377 . S
C809 C815 1.390 . S
C810 H801 0.930 . S
C810 C808 1.384 . S
C810 C811 1.372 . S
C811 C810 1.372 . S
C811 C812 1.400 . S
C811 C816 1.490 . S
C812 H802 0.930 . S
C812 C811 1.400 . S
C812 C815 1.386 . S
H813 C829 0.930 . S
H814 C830 0.931 . S
C815 H803 0.929 . S
C815 C809 1.390 . S
C815 C812 1.386 . S
C816 C811 1.490 . S
C816 C818 1.395 . S
C816 C819 1.403 1_545 S
H817 C823 0.930 . S
C818 H804 0.930 . S
C818 C816 1.395 . S
C818 C821 1.403 1_455 S
C819 C816 1.403 1_565 S
C819 C820 1.524 . S
C819 C823 1.400 1_455 S
C820 H805 0.960 . S
C820 H806 0.960 . S
C820 H807 0.960 . S
C820 C819 1.524 . S
C821 C818 1.403 1_655 S
C821 C822 1.392 1_545 S
C821 C825 1.495 . S
C822 C821 1.392 1_565 S
C822 C823 1.385 . S
C822 C824 1.478 . S
C823 H817 0.930 . S
C823 C819 1.400 1_655 S
C823 C822 1.385 . S
C824 C822 1.478 . S
C824 C826 1.381 . S
C824 C830 1.383 . S
C825 C821 1.495 . S
C825 H831 0.959 . S
C825 H832 0.961 . S
C825 H833 0.960 . S
C826 C824 1.381 . S
C826 C827 1.394 . S
C826 H834 0.930 . S
C827 C826 1.394 . S
C827 C828 1.383 . S
C827 H835 0.929 . S
C828 C827 1.383 . S
C828 C829 1.377 . S
C829 H813 0.930 . S
C829 C828 1.377 . S
C829 C830 1.379 . S
C830 H814 0.931 . S
C830 C824 1.383 . S
C830 C829 1.379 . S
H831 C825 0.959 . S
H832 C825 0.961 . S
H833 C825 0.960 . S
H834 C826 0.930 . S
H835 C827 0.929 . S
H836 C844 0.929 . S
H837 C846 0.930 . S
H838 C848 0.930 . S
H839 C851 0.929 . S
H840 C854 0.930 . S
H841 C856 0.960 . S
H842 C856 0.960 . S
H843 C856 0.960 . S
C844 H836 0.929 . S
C844 C845 1.377 . S
C844 C846 1.384 . S
C845 C844 1.377 . S
C845 C851 1.390 . S
C846 H837 0.930 . S
C846 C844 1.384 . S
C846 C847 1.372 . S
C847 C846 1.372 . S
C847 C848 1.400 . S
C847 C852 1.490 . S
C848 H838 0.930 . S
C848 C847 1.400 . S
C848 C851 1.386 . S
H849 C865 0.930 . S
H850 C866 0.931 . S
C851 H839 0.929 . S
C851 C845 1.390 . S
C851 C848 1.386 . S
C852 C847 1.490 . S
C852 C854 1.395 . S
C852 C855 1.403 1_455 S
H853 C859 0.930 . S
C854 H840 0.930 . S
C854 C852 1.395 . S
C854 C857 1.403 . S
C855 C852 1.403 1_655 S
C855 C856 1.524 . S
C855 C859 1.400 . S
C856 H841 0.960 . S
C856 H842 0.960 . S
C856 H843 0.960 . S
C856 C855 1.524 . S
C857 C854 1.403 . S
C857 C858 1.392 1_455 S
C857 C861 1.495 . S
C858 C857 1.392 1_655 S
C858 C859 1.385 . S
C858 C860 1.478 . S
C859 H853 0.930 . S
C859 C855 1.400 . S
C859 C858 1.385 . S
C860 C858 1.478 . S
C860 C862 1.381 . S
C860 C866 1.383 . S
C861 C857 1.495 . S
C861 H867 0.959 . S
C861 H868 0.961 . S
C861 H869 0.960 . S
C862 C860 1.381 . S
C862 C863 1.394 . S
C862 H870 0.930 . S
C863 C862 1.394 . S
C863 C864 1.383 . S
C863 H871 0.929 . S
C864 C863 1.383 . S
C864 C865 1.377 . S
C865 H849 0.930 . S
C865 C864 1.377 . S
C865 C866 1.379 . S
C866 H850 0.931 . S
C866 C860 1.383 . S
C866 C865 1.379 . S
H867 C861 0.959 . S
H868 C861 0.961 . S
H869 C861 0.960 . S
H870 C862 0.930 . S
H871 C863 0.929 . S
H872 C880 0.929 . S
H873 C882 0.930 . S
H874 C884 0.930 . S
H875 C887 0.929 . S
H876 C890 0.930 . S
H877 C892 0.960 . S
H878 C892 0.960 . S
H879 C892 0.960 . S
C880 H872 0.929 . S
C880 C881 1.377 . S
C880 C882 1.384 . S
C881 C880 1.377 . S
C881 C887 1.390 . S
C882 H873 0.930 . S
C882 C880 1.384 . S
C882 C883 1.372 . S
C883 C882 1.372 . S
C883 C884 1.400 . S
C883 C888 1.490 . S
C884 H874 0.930 . S
C884 C883 1.400 . S
C884 C887 1.386 . S
H885 C901 0.930 . S
H886 C902 0.931 . S
C887 H875 0.929 . S
C887 C881 1.390 . S
C887 C884 1.386 . S
C888 C883 1.490 . S
C888 C890 1.395 . S
C888 C891 1.403 . S
H889 C895 0.930 . S
C890 H876 0.930 . S
C890 C888 1.395 . S
C890 C893 1.403 . S
C891 C888 1.403 . S
C891 C892 1.524 . S
C891 C895 1.400 . S
C892 H877 0.960 . S
C892 H878 0.960 . S
C892 H879 0.960 . S
C892 C891 1.524 . S
C893 C890 1.403 . S
C893 C894 1.392 . S
C893 C897 1.495 . S
C894 C893 1.392 . S
C894 C895 1.385 . S
C894 C896 1.478 . S
C895 H889 0.930 . S
C895 C891 1.400 . S
C895 C894 1.385 . S
C896 C894 1.478 . S
C896 C898 1.381 . S
C896 C902 1.383 . S
C897 C893 1.495 . S
C897 H903 0.959 . S
C897 H904 0.961 . S
C897 H905 0.960 . S
C898 C896 1.381 . S
C898 C899 1.394 . S
C898 H906 0.930 . S
C899 C898 1.394 . S
C899 C900 1.383 . S
C899 H907 0.929 . S
C900 C899 1.383 . S
C900 C901 1.377 . S
C901 H885 0.930 . S
C901 C900 1.377 . S
C901 C902 1.379 . S
C902 H886 0.931 . S
C902 C896 1.383 . S
C902 C901 1.379 . S
H903 C897 0.959 . S
H904 C897 0.961 . S
H905 C897 0.960 . S
H906 C898 0.930 . S
H907 C899 0.929 . S
H908 C916 0.929 . S
H909 C918 0.930 . S
H910 C920 0.930 . S
H911 C923 0.929 . S
H912 C926 0.930 . S
H913 C928 0.935 1_565 S
H914 C928 0.973 . S
H915 C928 0.973 . S
C916 H908 0.929 . S
C916 C917 1.377 . S
C916 C918 1.384 . S
C917 C916 1.377 . S
C917 C923 1.390 . S
C918 H909 0.930 . S
C918 C916 1.384 . S
C918 C919 1.372 . S
C919 C918 1.372 . S
C919 C920 1.400 . S
C919 C924 1.490 . S
C920 H910 0.930 . S
C920 C919 1.400 . S
C920 C923 1.386 . S
H921 C937 0.930 . S
H922 C938 0.931 . S
C923 H911 0.929 . S
C923 C917 1.390 . S
C923 C920 1.386 . S
C924 C919 1.490 . S
C924 C926 1.395 . S
C924 C927 1.403 . S
H925 C931 0.930 . S
C926 H912 0.930 . S
C926 C924 1.395 . S
C926 C929 1.432 . S
C927 C924 1.403 . S
C927 C928 1.525 . S
C927 C931 1.400 1_545 S
C928 H913 0.935 1_545 S
C928 H914 0.973 . S
C928 H915 0.973 . S
C928 C927 1.525 . S
C929 C926 1.432 . S
C929 C930 1.364 1_545 S
C929 C933 1.496 . S
C930 C929 1.364 1_565 S
C930 C931 1.385 . S
C930 C932 1.478 . S
C931 H925 0.930 . S
C931 C927 1.400 1_565 S
C931 C930 1.385 . S
C932 C930 1.478 . S
C932 C934 1.381 . S
C932 C938 1.383 . S
C933 C929 1.496 . S
C933 H939 0.959 . S
C933 H940 0.961 1_545 S
C933 H941 0.960 1_545 S
C934 C932 1.381 . S
C934 C935 1.394 . S
C934 H942 0.930 . S
C935 C934 1.394 . S
C935 C936 1.383 . S
C935 H943 0.929 . S
C936 C935 1.383 . S
C936 C937 1.377 . S
C937 H921 0.930 . S
C937 C936 1.377 . S
C937 C938 1.379 . S
C938 H922 0.931 . S
C938 C932 1.383 . S
C938 C937 1.379 . S
H939 C933 0.959 . S
H940 C933 0.961 1_565 S
H941 C933 0.960 1_565 S
H942 C934 0.930 . S
H943 C935 0.929 . S
H944 C952 0.929 . S
H945 C954 0.930 . S
H946 C956 0.930 . S
H947 C959 0.929 . S
H948 C962 0.930 . S
H949 C964 0.960 . S
H950 C964 0.960 . S
H951 C964 0.960 . S
C952 H944 0.929 . S
C952 C953 1.377 . S
C952 C954 1.384 . S
C953 C952 1.377 . S
C953 C959 1.390 . S
C954 H945 0.930 . S
C954 C952 1.384 . S
C954 C955 1.372 . S
C955 C954 1.372 . S
C955 C956 1.400 . S
C955 C960 1.490 . S
C956 H946 0.930 . S
C956 C955 1.400 . S
C956 C959 1.386 . S
H957 C973 0.930 . S
H958 C974 0.931 . S
C959 H947 0.929 . S
C959 C953 1.390 . S
C959 C956 1.386 . S
C960 C955 1.490 . S
C960 C962 1.395 . S
C960 C963 1.403 . S
H961 C967 0.930 . S
C962 H948 0.930 . S
C962 C960 1.395 . S
C962 C965 1.403 1_455 S
C963 C960 1.403 . S
C963 C964 1.524 . S
C963 C967 1.400 1_455 S
C964 H949 0.960 . S
C964 H950 0.960 . S
C964 H951 0.960 . S
C964 C963 1.524 . S
C965 C962 1.403 1_655 S
C965 C966 1.392 . S
C965 C969 1.495 . S
C966 C965 1.392 . S
C966 C967 1.385 . S
C966 C968 1.478 . S
C967 H961 0.930 . S
C967 C963 1.400 1_655 S
C967 C966 1.385 . S
C968 C966 1.478 . S
C968 C970 1.381 . S
C968 C974 1.383 . S
C969 C965 1.495 . S
C969 H975 0.959 . S
C969 H976 0.961 . S
C969 H977 0.960 . S
C970 C968 1.381 . S
C970 C971 1.394 . S
C970 H978 0.930 . S
C971 C970 1.394 . S
C971 C972 1.383 . S
C971 H979 0.929 . S
C972 C971 1.383 . S
C972 C973 1.377 . S
C973 H957 0.930 . S
C973 C972 1.377 . S
C973 C974 1.379 . S
C974 H958 0.931 . S
C974 C968 1.383 . S
C974 C973 1.379 . S
H975 C969 0.959 . S
H976 C969 0.961 . S
H977 C969 0.960 . S
H978 C970 0.930 . S
H979 C971 0.929 . S
H980 C988 0.929 . S
H981 C990 0.930 . S
H982 C992 0.930 . S
H983 C995 0.929 . S
H984 C998 0.930 . S
H985 C1000 0.960 . S
H986 C1000 0.960 . S
H987 C1000 0.960 . S
C988 H980 0.929 . S
C988 C989 1.377 . S
C988 C990 1.384 . S
C989 C988 1.377 . S
C989 C995 1.390 . S
C990 H981 0.930 . S
C990 C988 1.384 . S
C990 C991 1.372 . S
C991 C990 1.372 . S
C991 C992 1.400 . S
C991 C996 1.490 . S
C992 H982 0.930 . S
C992 C991 1.400 . S
C992 C995 1.386 . S
H993 C1009 0.930 . S
H994 C1010 0.931 . S
C995 H983 0.929 . S
C995 C989 1.390 . S
C995 C992 1.386 . S
C996 C991 1.490 . S
C996 C998 1.395 . S
C996 C999 1.403 . S
H997 C1003 0.930 . S
C998 H984 0.930 . S
C998 C996 1.395 . S
C998 C1001 1.403 . S
C999 C996 1.403 . S
C999 C1000 1.524 . S
C999 C1003 1.400 . S
C1000 H985 0.960 . S
C1000 H986 0.960 . S
C1000 H987 0.960 . S
C1000 C999 1.524 . S
C1001 C998 1.403 . S
C1001 C1002 1.392 . S
C1001 C1005 1.495 . S
C1002 C1001 1.392 . S
C1002 C1003 1.385 . S
C1002 C1004 1.478 . S
C1003 H997 0.930 . S
C1003 C999 1.400 . S
C1003 C1002 1.385 . S
C1004 C1002 1.478 . S
C1004 C1006 1.381 . S
C1004 C1010 1.383 . S
C1005 C1001 1.495 . S
C1005 H1011 0.959 . S
C1005 H1012 0.961 . S
C1005 H1013 0.960 . S
C1006 C1004 1.381 . S
C1006 C1007 1.394 . S
C1006 H1014 0.930 . S
C1007 C1006 1.394 . S
C1007 C1008 1.383 . S
C1007 H1015 0.929 . S
C1008 C1007 1.383 . S
C1008 C1009 1.377 . S
C1009 H993 0.930 . S
C1009 C1008 1.377 . S
C1009 C1010 1.379 . S
C1010 H994 0.931 . S
C1010 C1004 1.383 . S
C1010 C1009 1.379 . S
H1011 C1005 0.959 . S
H1012 C1005 0.961 . S
H1013 C1005 0.960 . S
H1014 C1006 0.930 . S
H1015 C1007 0.929 . S
H1016 C1024 0.929 . S
H1017 C1026 0.930 . S
H1018 C1028 0.930 . S
H1019 C1031 0.929 . S
H1020 C1034 0.930 . S
H1021 C1036 0.960 . S
H1022 C1036 0.960 . S
H1023 C1036 0.960 . S
C1024 H1016 0.929 . S
C1024 C1025 1.377 . S
C1024 C1026 1.384 . S
C1025 C1024 1.377 . S
C1025 C1031 1.390 . S
C1026 H1017 0.930 . S
C1026 C1024 1.384 . S
C1026 C1027 1.372 . S
C1027 C1026 1.372 . S
C1027 C1028 1.400 . S
C1027 C1032 1.490 . S
C1028 H1018 0.930 . S
C1028 C1027 1.400 . S
C1028 C1031 1.386 . S
H1029 C1045 0.930 . S
H1030 C1046 0.931 . S
C1031 H1019 0.929 . S
C1031 C1025 1.390 . S
C1031 C1028 1.386 . S
C1032 C1027 1.490 . S
C1032 C1034 1.395 1_565 S
C1032 C1035 1.403 . S
H1033 C1039 0.930 . S
C1034 H1020 0.930 . S
C1034 C1032 1.395 1_545 S
C1034 C1037 1.403 . S
C1035 C1032 1.403 . S
C1035 C1036 1.524 . S
C1035 C1039 1.400 . S
C1036 H1021 0.960 . S
C1036 H1022 0.960 . S
C1036 H1023 0.960 . S
C1036 C1035 1.524 . S
C1037 C1034 1.403 . S
C1037 C1038 1.392 . S
C1037 C1041 1.495 . S
C1038 C1037 1.392 . S
C1038 C1039 1.385 1_545 S
C1038 C1040 1.478 . S
C1039 H1033 0.930 . S
C1039 C1035 1.400 . S
C1039 C1038 1.385 1_565 S
C1040 C1038 1.478 . S
C1040 C1042 1.381 . S
C1040 C1046 1.383 . S
C1041 C1037 1.495 . S
C1041 H1047 0.959 . S
C1041 H1048 0.961 . S
C1041 H1049 0.960 . S
C1042 C1040 1.381 . S
C1042 C1043 1.394 . S
C1042 H1050 0.930 . S
C1043 C1042 1.394 . S
C1043 C1044 1.383 . S
C1043 H1051 0.929 . S
C1044 C1043 1.383 . S
C1044 C1045 1.377 . S
C1045 H1029 0.930 . S
C1045 C1044 1.377 . S
C1045 C1046 1.379 . S
C1046 H1030 0.931 . S
C1046 C1040 1.383 . S
C1046 C1045 1.379 . S
H1047 C1041 0.959 . S
H1048 C1041 0.961 . S
H1049 C1041 0.960 . S
H1050 C1042 0.930 . S
H1051 C1043 0.929 . S
H1052 C1060 0.929 . S
H1053 C1062 0.930 . S
H1054 C1064 0.930 . S
H1055 C1067 0.929 . S
H1056 C1070 0.930 . S
H1057 C1072 0.960 . S
H1058 C1072 0.960 . S
H1059 C1072 0.960 . S
C1060 H1052 0.929 . S
C1060 C1061 1.377 . S
C1060 C1062 1.384 . S
C1061 C1060 1.377 . S
C1061 C1067 1.390 . S
C1062 H1053 0.930 . S
C1062 C1060 1.384 . S
C1062 C1063 1.372 . S
C1063 C1062 1.372 . S
C1063 C1064 1.400 . S
C1063 C1068 1.490 . S
C1064 H1054 0.930 . S
C1064 C1063 1.400 . S
C1064 C1067 1.386 . S
H1065 C1081 0.930 . S
H1066 C1082 0.931 . S
C1067 H1055 0.929 . S
C1067 C1061 1.390 . S
C1067 C1064 1.386 . S
C1068 C1063 1.490 . S
C1068 C1070 1.395 . S
C1068 C1071 1.403 1_455 S
H1069 C1075 0.930 . S
C1070 H1056 0.930 . S
C1070 C1068 1.395 . S
C1070 C1073 1.403 1_545 S
C1071 C1068 1.403 1_655 S
C1071 C1072 1.524 . S
C1071 C1075 1.400 1_545 S
C1072 H1057 0.960 . S
C1072 H1058 0.960 . S
C1072 H1059 0.960 . S
C1072 C1071 1.524 . S
C1073 C1070 1.403 1_565 S
C1073 C1074 1.392 1_455 S
C1073 C1077 1.495 . S
C1074 C1073 1.392 1_655 S
C1074 C1075 1.385 . S
C1074 C1076 1.478 . S
C1075 H1069 0.930 . S
C1075 C1071 1.400 1_565 S
C1075 C1074 1.385 . S
C1076 C1074 1.478 . S
C1076 C1078 1.381 . S
C1076 C1082 1.383 . S
C1077 C1073 1.495 . S
C1077 H1083 0.959 . S
C1077 H1084 0.961 . S
C1077 H1085 0.960 . S
C1078 C1076 1.381 . S
C1078 C1079 1.394 . S
C1078 H1086 0.930 . S
C1079 C1078 1.394 . S
C1079 C1080 1.383 . S
C1079 H1087 0.929 . S
C1080 C1079 1.383 . S
C1080 C1081 1.377 . S
C1081 H1065 0.930 . S
C1081 C1080 1.377 . S
C1081 C1082 1.379 . S
C1082 H1066 0.931 . S
C1082 C1076 1.383 . S
C1082 C1081 1.379 . S
H1083 C1077 0.959 . S
H1084 C1077 0.961 . S
H1085 C1077 0.960 . S
H1086 C1078 0.930 . S
H1087 C1079 0.929 . S
H1088 C1096 0.929 . S
H1089 C1098 0.930 . S
H1090 C1100 0.930 . S
H1091 C1103 0.929 . S
H1092 C1106 0.930 . S
H1093 C1108 0.960 . S
H1094 C1108 0.960 . S
H1095 C1108 0.960 . S
C1096 H1088 0.929 . S
C1096 C1097 1.377 . S
C1096 C1098 1.384 . S
C1097 C1096 1.377 . S
C1097 C1103 1.390 . S
C1098 H1089 0.930 . S
C1098 C1096 1.384 . S
C1098 C1099 1.372 . S
C1099 C1098 1.372 . S
C1099 C1100 1.400 . S
C1099 C1104 1.490 . S
C1100 H1090 0.930 . S
C1100 C1099 1.400 . S
C1100 C1103 1.386 . S
H1101 C1117 0.930 . S
H1102 C1118 0.931 . S
C1103 H1091 0.929 . S
C1103 C1097 1.390 . S
C1103 C1100 1.386 . S
C1104 C1099 1.490 . S
C1104 C1106 1.395 . S
C1104 C1107 1.403 1_565 S
H1105 C1111 0.930 . S
C1106 H1092 0.930 . S
C1106 C1104 1.395 . S
C1106 C1109 1.403 . S
C1107 C1104 1.403 1_545 S
C1107 C1108 1.524 . S
C1107 C1111 1.400 . S
C1108 H1093 0.960 . S
C1108 H1094 0.960 . S
C1108 H1095 0.960 . S
C1108 C1107 1.524 . S
C1109 C1106 1.403 . S
C1109 C1110 1.392 1_565 S
C1109 C1113 1.495 . S
C1110 C1109 1.392 1_545 S
C1110 C1111 1.385 . S
C1110 C1112 1.478 . S
C1111 H1105 0.930 . S
C1111 C1107 1.400 . S
C1111 C1110 1.385 . S
C1112 C1110 1.478 . S
C1112 C1114 1.381 . S
C1112 C1118 1.383 . S
C1113 C1109 1.495 . S
C1113 H1119 0.959 . S
C1113 H1120 0.961 . S
C1113 H1121 0.960 . S
C1114 C1112 1.381 . S
C1114 C1115 1.394 . S
C1114 H1122 0.943 . S
C1115 C1114 1.394 . S
C1115 C1116 1.383 . S
C1115 H1123 0.929 . S
C1116 C1115 1.383 . S
C1116 C1117 1.377 . S
C1117 H1101 0.930 . S
C1117 C1116 1.377 . S
C1117 C1118 1.379 . S
C1118 H1102 0.931 . S
C1118 C1112 1.383 . S
C1118 C1117 1.379 . S
H1119 C1113 0.959 . S
H1120 C1113 0.961 . S
H1121 C1113 0.960 . S
H1122 C1114 0.943 . S
H1123 C1115 0.929 . S
H1124 C1132 0.929 . S
H1125 C1134 0.930 . S
H1126 C1136 0.930 1_455 S
H1127 C1139 0.929 . S
H1128 C1142 0.930 . S
H1129 C1144 0.960 . S
H1130 C1144 0.960 . S
H1131 C1144 0.960 . S
C1132 H1124 0.929 . S
C1132 C1133 1.377 . S
C1132 C1134 1.384 . S
C1133 C1132 1.377 . S
C1133 C1139 1.390 . S
C1134 H1125 0.930 . S
C1134 C1132 1.384 . S
C1134 C1135 1.372 . S
C1135 C1134 1.372 . S
C1135 C1136 1.400 . S
C1135 C1140 1.490 . S
C1136 H1126 0.930 1_655 S
C1136 C1135 1.400 . S
C1136 C1139 1.386 . S
H1137 C1153 0.930 . S
H1138 C1154 0.931 . S
C1139 H1127 0.929 . S
C1139 C1133 1.390 . S
C1139 C1136 1.386 . S
C1140 C1135 1.490 . S
C1140 C1142 1.395 . S
C1140 C1143 1.403 1_655 S
H1141 C1147 0.930 . S
C1142 H1128 0.930 . S
C1142 C1140 1.395 . S
C1142 C1145 1.403 1_565 S
C1143 C1140 1.403 1_455 S
C1143 C1144 1.524 . S
C1143 C1147 1.400 1_565 S
C1144 H1129 0.960 . S
C1144 H1130 0.960 . S
C1144 H1131 0.960 . S
C1144 C1143 1.524 . S
C1145 C1142 1.403 1_545 S
C1145 C1146 1.392 1_655 S
C1145 C1149 1.495 . S
C1146 C1145 1.392 1_455 S
C1146 C1147 1.385 . S
C1146 C1148 1.478 . S
C1147 H1141 0.930 . S
C1147 C1143 1.400 1_545 S
C1147 C1146 1.385 . S
C1148 C1146 1.478 . S
C1148 C1150 1.381 . S
C1148 C1154 1.383 . S
C1149 C1145 1.495 . S
C1149 H1155 0.959 . S
C1149 H1156 0.961 . S
C1149 H1157 0.960 . S
C1150 C1148 1.381 . S
C1150 C1151 1.394 . S
C1150 H1158 0.930 1_455 S
C1151 C1150 1.394 . S
C1151 C1152 1.383 . S
C1151 H1159 0.929 . S
C1152 C1151 1.383 . S
C1152 C1153 1.377 . S
C1153 H1137 0.930 . S
C1153 C1152 1.377 . S
C1153 C1154 1.379 . S
C1154 H1138 0.931 . S
C1154 C1148 1.383 . S
C1154 C1153 1.379 . S
H1155 C1149 0.959 . S
H1156 C1149 0.961 . S
H1157 C1149 0.960 . S
H1158 C1150 0.930 1_655 S
H1159 C1151 0.929 . S
H1160 C1168 0.929 . S
H1161 C1170 0.930 . S
H1162 C1172 0.930 . S
H1163 C1175 0.929 . S
H1164 C1178 0.929 1_455 S
H1165 C1180 0.960 . S
H1166 C1180 0.960 . S
H1167 C1180 0.960 . S
C1168 H1160 0.929 . S
C1168 C1169 1.377 . S
C1168 C1170 1.384 . S
C1169 C1168 1.377 . S
C1169 C1175 1.390 . S
C1170 H1161 0.930 . S
C1170 C1168 1.384 . S
C1170 C1171 1.372 . S
C1171 C1170 1.372 . S
C1171 C1172 1.400 . S
C1171 C1176 1.490 . S
C1172 H1162 0.930 . S
C1172 C1171 1.400 . S
C1172 C1175 1.386 . S
H1173 C1189 0.930 . S
H1174 C1190 0.931 . S
C1175 H1163 0.929 . S
C1175 C1169 1.390 . S
C1175 C1172 1.386 . S
C1176 C1171 1.490 . S
C1176 C1178 1.385 1_455 S
C1176 C1179 1.403 . S
H1177 C1183 0.930 . S
C1178 H1164 0.929 1_655 S
C1178 C1176 1.385 1_655 S
C1178 C1181 1.414 . S
C1179 C1176 1.403 . S
C1179 C1180 1.524 . S
C1179 C1183 1.400 1_455 S
C1180 H1165 0.960 . S
C1180 H1166 0.960 . S
C1180 H1167 0.960 . S
C1180 C1179 1.524 . S
C1181 C1178 1.414 . S
C1181 C1182 1.392 . S
C1181 C1185 1.495 . S
C1182 C1181 1.392 . S
C1182 C1183 1.385 . S
C1182 C1184 1.478 . S
C1183 H1177 0.930 . S
C1183 C1179 1.400 1_655 S
C1183 C1182 1.385 . S
C1184 C1182 1.478 . S
C1184 C1186 1.381 . S
C1184 C1190 1.383 . S
C1185 C1181 1.495 . S
C1185 H1191 0.959 . S
C1185 H1192 0.961 . S
C1185 H1193 0.960 . S
C1186 C1184 1.381 . S
C1186 C1187 1.394 . S
C1186 H1194 0.930 . S
C1187 C1186 1.394 . S
C1187 C1188 1.383 . S
C1187 H1195 0.929 . S
C1188 C1187 1.383 . S
C1188 C1189 1.377 . S
C1189 H1173 0.930 . S
C1189 C1188 1.377 . S
C1189 C1190 1.379 . S
C1190 H1174 0.931 . S
C1190 C1184 1.383 . S
C1190 C1189 1.379 . S
H1191 C1185 0.959 . S
H1192 C1185 0.961 . S
H1193 C1185 0.960 . S
H1194 C1186 0.930 . S
H1195 C1187 0.929 . S
H1196 C1204 0.929 . S
H1197 C1206 0.930 . S
H1198 C1208 0.930 . S
H1199 C1211 0.929 . S
H1200 C1214 0.930 . S
H1201 C1216 0.960 . S
H1202 C1216 0.960 . S
H1203 C1216 0.960 . S
C1204 H1196 0.929 . S
C1204 C1205 1.377 . S
C1204 C1206 1.384 . S
C1205 C1204 1.377 . S
C1205 C1211 1.390 . S
C1206 H1197 0.930 . S
C1206 C1204 1.384 . S
C1206 C1207 1.372 . S
C1207 C1206 1.372 . S
C1207 C1208 1.400 . S
C1207 C1212 1.490 . S
C1208 H1198 0.930 . S
C1208 C1207 1.400 . S
C1208 C1211 1.386 . S
H1209 C1225 0.930 . S
H1210 C1226 0.931 . S
C1211 H1199 0.929 . S
C1211 C1205 1.390 . S
C1211 C1208 1.386 . S
C1212 C1207 1.490 . S
C1212 C1214 1.395 . S
C1212 C1215 1.403 . S
H1213 C1219 0.930 . S
C1214 H1200 0.930 . S
C1214 C1212 1.395 . S
C1214 C1217 1.403 . S
C1215 C1212 1.403 . S
C1215 C1216 1.524 . S
C1215 C1219 1.400 . S
C1216 H1201 0.960 . S
C1216 H1202 0.960 . S
C1216 H1203 0.960 . S
C1216 C1215 1.524 . S
C1217 C1214 1.403 . S
C1217 C1218 1.392 . S
C1217 C1221 1.495 . S
C1218 C1217 1.392 . S
C1218 C1219 1.385 . S
C1218 C1220 1.478 . S
C1219 H1213 0.930 . S
C1219 C1215 1.400 . S
C1219 C1218 1.385 . S
C1220 C1218 1.478 . S
C1220 C1222 1.381 . S
C1220 C1226 1.383 . S
C1221 C1217 1.495 . S
C1221 H1227 0.959 . S
C1221 H1228 0.961 . S
C1221 H1229 0.960 . S
C1222 C1220 1.381 . S
C1222 C1223 1.394 . S
C1222 H1230 0.930 . S
C1223 C1222 1.394 . S
C1223 C1224 1.383 . S
C1223 H1231 0.929 . S
C1224 C1223 1.383 . S
C1224 C1225 1.377 . S
C1225 H1209 0.930 . S
C1225 C1224 1.377 . S
C1225 C1226 1.379 . S
C1226 H1210 0.931 . S
C1226 C1220 1.383 . S
C1226 C1225 1.379 . S
H1227 C1221 0.959 . S
H1228 C1221 0.961 . S
H1229 C1221 0.960 . S
H1230 C1222 0.930 . S
H1231 C1223 0.929 . S
H1232 C1240 0.929 . S
H1233 C1242 0.930 . S
H1234 C1244 0.930 . S
H1235 C1247 0.929 . S
H1236 C1250 0.930 . S
H1237 C1252 0.960 . S
H1238 C1252 0.960 . S
H1239 C1252 0.960 . S
C1240 H1232 0.929 . S
C1240 C1241 1.377 . S
C1240 C1242 1.384 . S
C1241 C1240 1.377 . S
C1241 C1247 1.390 . S
C1242 H1233 0.930 . S
C1242 C1240 1.384 . S
C1242 C1243 1.372 . S
C1243 C1242 1.372 . S
C1243 C1244 1.400 . S
C1243 C1248 1.490 . S
C1244 H1234 0.930 . S
C1244 C1243 1.400 . S
C1244 C1247 1.386 . S
H1245 C1261 0.930 . S
H1246 C1262 0.931 . S
C1247 H1235 0.929 . S
C1247 C1241 1.390 . S
C1247 C1244 1.386 . S
C1248 C1243 1.490 . S
C1248 C1250 1.395 . S
C1248 C1251 1.403 . S
H1249 C1255 0.930 . S
C1250 H1236 0.930 . S
C1250 C1248 1.395 . S
C1250 C1253 1.403 . S
C1251 C1248 1.403 . S
C1251 C1252 1.524 . S
C1251 C1255 1.400 . S
C1252 H1237 0.960 . S
C1252 H1238 0.960 . S
C1252 H1239 0.960 . S
C1252 C1251 1.524 . S
C1253 C1250 1.403 . S
C1253 C1254 1.392 . S
C1253 C1257 1.495 . S
C1254 C1253 1.392 . S
C1254 C1255 1.385 . S
C1254 C1256 1.478 . S
C1255 H1249 0.930 . S
C1255 C1251 1.400 . S
C1255 C1254 1.385 . S
C1256 C1254 1.478 . S
C1256 C1258 1.381 . S
C1256 C1262 1.383 . S
C1257 C1253 1.495 . S
C1257 H1263 0.959 . S
C1257 H1264 0.961 . S
C1257 H1265 0.960 . S
C1258 C1256 1.381 . S
C1258 C1259 1.394 . S
C1258 H1266 0.930 . S
C1259 C1258 1.394 . S
C1259 C1260 1.383 . S
C1259 H1267 0.929 . S
C1260 C1259 1.383 . S
C1260 C1261 1.377 . S
C1261 H1245 0.930 . S
C1261 C1260 1.377 . S
C1261 C1262 1.379 . S
C1262 H1246 0.931 . S
C1262 C1256 1.383 . S
C1262 C1261 1.379 . S
H1263 C1257 0.959 . S
H1264 C1257 0.961 . S
H1265 C1257 0.960 . S
H1266 C1258 0.930 . S
H1267 C1259 0.929 . S
H1268 C1276 0.929 . S
H1269 C1278 0.930 . S
H1270 C1280 0.930 . S
H1271 C1283 0.929 . S
H1272 C1286 0.931 . S
H1273 C1288 0.960 . S
H1274 C1288 0.960 . S
H1275 C1288 0.960 . S
C1276 H1268 0.929 . S
C1276 C1277 1.377 . S
C1276 C1278 1.384 . S
C1277 C1276 1.377 . S
C1277 C1283 1.390 . S
C1278 H1269 0.930 . S
C1278 C1276 1.384 . S
C1278 C1279 1.372 . S
C1279 C1278 1.372 . S
C1279 C1280 1.400 . S
C1279 C1284 1.490 . S
C1280 H1270 0.930 . S
C1280 C1279 1.400 . S
C1280 C1283 1.386 . S
H1281 C1297 0.930 . S
H1282 C1298 0.931 . S
C1283 H1271 0.929 . S
C1283 C1277 1.390 . S
C1283 C1280 1.386 . S
C1284 C1279 1.490 . S
C1284 C1286 1.401 . S
C1284 C1287 1.403 . S
H1285 C1291 0.930 . S
C1286 H1272 0.931 . S
C1286 C1284 1.401 . S
C1286 C1289 1.396 1_545 S
C1287 C1284 1.403 . S
C1287 C1288 1.524 . S
C1287 C1291 1.400 1_545 S
C1288 H1273 0.960 . S
C1288 H1274 0.960 . S
C1288 H1275 0.960 . S
C1288 C1287 1.524 . S
C1289 C1286 1.396 1_565 S
C1289 C1290 1.392 . S
C1289 C1293 1.495 . S
C1290 C1289 1.392 . S
C1290 C1291 1.385 . S
C1290 C1292 1.478 . S
C1291 H1285 0.930 . S
C1291 C1287 1.400 1_565 S
C1291 C1290 1.385 . S
C1292 C1290 1.478 . S
C1292 C1294 1.381 . S
C1292 C1298 1.383 . S
C1293 C1289 1.495 . S
C1293 H1299 0.959 . S
C1293 H1300 0.961 . S
C1293 H1301 0.960 . S
C1294 C1292 1.381 . S
C1294 C1295 1.394 . S
C1294 H1302 0.930 . S
C1295 C1294 1.394 . S
C1295 C1296 1.383 . S
C1295 H1303 0.929 . S
C1296 C1295 1.383 . S
C1296 C1297 1.377 . S
C1297 H1281 0.930 . S
C1297 C1296 1.377 . S
C1297 C1298 1.379 . S
C1298 H1282 0.931 . S
C1298 C1292 1.383 . S
C1298 C1297 1.379 . S
H1299 C1293 0.959 . S
H1300 C1293 0.961 . S
H1301 C1293 0.960 . S
H1302 C1294 0.930 . S
H1303 C1295 0.929 . S
H1304 C1312 0.929 . S
H1305 C1314 0.930 1_545 S
H1306 C1316 0.930 . S
H1307 C1319 0.929 . S
H1308 C1322 0.930 . S
H1309 C1324 0.960 1_455 S
H1310 C1324 0.960 . S
H1311 C1324 0.960 . S
C1312 H1304 0.929 . S
C1312 C1313 1.377 . S
C1312 C1314 1.384 . S
C1313 C1312 1.377 . S
C1313 C1319 1.390 . S
C1314 H1305 0.930 1_565 S
C1314 C1312 1.384 . S
C1314 C1315 1.372 . S
C1315 C1314 1.372 . S
C1315 C1316 1.400 . S
C1315 C1320 1.490 . S
C1316 H1306 0.930 . S
C1316 C1315 1.400 . S
C1316 C1319 1.386 . S
H1317 C1333 0.930 . S
H1318 C1334 0.931 . S
C1319 H1307 0.929 . S
C1319 C1313 1.390 . S
C1319 C1316 1.386 . S
C1320 C1315 1.490 . S
C1320 C1322 1.395 1_565 S
C1320 C1323 1.403 . S
H1321 C1327 0.930 . S
C1322 H1308 0.930 . S
C1322 C1320 1.395 1_545 S
C1322 C1325 1.403 1_655 S
C1323 C1320 1.403 . S
C1323 C1324 1.524 . S
C1323 C1327 1.400 1_655 S
C1324 H1309 0.960 1_655 S
C1324 H1310 0.960 . S
C1324 H1311 0.960 . S
C1324 C1323 1.524 . S
C1325 C1322 1.403 1_455 S
C1325 C1326 1.392 . S
C1325 C1329 1.495 . S
C1326 C1325 1.392 . S
C1326 C1327 1.385 1_545 S
C1326 C1328 1.478 . S
C1327 H1321 0.930 . S
C1327 C1323 1.400 1_455 S
C1327 C1326 1.385 1_565 S
C1328 C1326 1.478 . S
C1328 C1330 1.381 . S
C1328 C1334 1.383 . S
C1329 C1325 1.495 . S
C1329 H1335 0.959 1_455 S
C1329 H1336 0.961 . S
C1329 H1337 0.960 . S
C1330 C1328 1.381 . S
C1330 C1331 1.394 . S
C1330 H1338 0.930 . S
C1331 C1330 1.394 . S
C1331 C1332 1.383 . S
C1331 H1339 0.929 . S
C1332 C1331 1.383 . S
C1332 C1333 1.377 . S
C1333 H1317 0.930 . S
C1333 C1332 1.377 . S
C1333 C1334 1.379 . S
C1334 H1318 0.931 . S
C1334 C1328 1.383 . S
C1334 C1333 1.379 . S
H1335 C1329 0.959 1_655 S
H1336 C1329 0.961 . S
H1337 C1329 0.960 . S
H1338 C1330 0.930 . S
H1339 C1331 0.929 . S
H1340 C1348 0.929 . S
H1341 C1350 0.930 . S
H1342 C1352 0.930 . S
H1343 C1355 0.929 . S
H1344 C1358 0.930 . S
H1345 C1360 0.960 . S
H1346 C1360 0.960 . S
H1347 C1360 0.960 . S
C1348 H1340 0.929 . S
C1348 C1349 1.377 . S
C1348 C1350 1.384 . S
C1349 C1348 1.377 . S
C1349 C1355 1.390 . S
C1350 H1341 0.930 . S
C1350 C1348 1.384 . S
C1350 C1351 1.372 . S
C1351 C1350 1.372 . S
C1351 C1352 1.400 . S
C1351 C1356 1.490 . S
C1352 H1342 0.930 . S
C1352 C1351 1.400 . S
C1352 C1355 1.386 . S
H1353 C1369 0.930 . S
H1354 C1370 0.931 . S
C1355 H1343 0.929 . S
C1355 C1349 1.390 . S
C1355 C1352 1.386 . S
C1356 C1351 1.490 . S
C1356 C1358 1.395 . S
C1356 C1359 1.403 . S
H1357 C1363 0.930 . S
C1358 H1344 0.930 . S
C1358 C1356 1.395 . S
C1358 C1361 1.403 1_655 S
C1359 C1356 1.403 . S
C1359 C1360 1.524 . S
C1359 C1363 1.400 1_655 S
C1360 H1345 0.960 . S
C1360 H1346 0.960 . S
C1360 H1347 0.960 . S
C1360 C1359 1.524 . S
C1361 C1358 1.403 1_455 S
C1361 C1362 1.392 . S
C1361 C1365 1.495 . S
C1362 C1361 1.392 . S
C1362 C1363 1.385 . S
C1362 C1364 1.478 . S
C1363 H1357 0.930 . S
C1363 C1359 1.400 1_455 S
C1363 C1362 1.385 . S
C1364 C1362 1.478 . S
C1364 C1366 1.381 . S
C1364 C1370 1.383 . S
C1365 C1361 1.495 . S
C1365 H1371 0.959 . S
C1365 H1372 0.961 . S
C1365 H1373 0.960 . S
C1366 C1364 1.381 . S
C1366 C1367 1.394 . S
C1366 H1374 0.930 . S
C1367 C1366 1.394 . S
C1367 C1368 1.383 . S
C1367 H1375 0.929 . S
C1368 C1367 1.383 . S
C1368 C1369 1.377 . S
C1369 H1353 0.930 . S
C1369 C1368 1.377 . S
C1369 C1370 1.379 . S
C1370 H1354 0.931 . S
C1370 C1364 1.383 . S
C1370 C1369 1.379 . S
H1371 C1365 0.959 . S
H1372 C1365 0.961 . S
H1373 C1365 0.960 . S
H1374 C1366 0.930 . S
H1375 C1367 0.929 . S
C233 C63 1.472 . S
C252 C7 1.473 . S
C269 C21 1.472 . S
C288 C77 1.476 . S
C305 C91 1.473 . S
C324 C35 1.477 . S
C341 C105 1.470 . S
C360 C49 1.459 . S
C377 C175 1.468 . S
C396 C119 1.454 . S
C413 C133 1.468 . S
C432 C189 1.454 . S
C449 C203 1.468 . S
C468 C147 1.454 . S
C485 C161 1.472 . S
C504 C217 1.472 . S
C521 C8 1.448 . S
C540 C218 1.444 . S
C557 C22 1.450 . S
C576 C176 1.455 . S
C593 C36 1.451 . S
C612 C190 1.460 . S
C629 C204 1.448 . S
C648 C50 1.444 . S
C665 C64 1.446 . S
C684 C134 1.434 . S
C701 C78 1.444 . S
C720 C148 1.429 . S
C737 C162 1.449 . S
C756 C92 1.449 . S
C773 C120 1.450 . S
C792 C106 1.456 . S
C809 C6 1.674 . S
C828 C146 1.653 . S
C845 C160 1.672 . S
C864 C20 1.653 . S
C881 C34 1.675 . S
C900 C118 1.656 . S
C917 C132 1.677 . S
C936 C48 1.690 . S
C953 C62 1.674 . S
C972 C202 1.654 . S
C989 C76 1.676 . S
C1008 C216 1.689 . S
C1025 C174 1.678 . S
C1044 C90 1.690 . S
C1061 C188 1.673 . S
C1080 C104 1.653 . S
C1097 C149 1.424 . S
C1116 C9 1.434 . S
C1133 C23 1.424 . S
C1152 C163 1.434 . S
C1169 C37 1.426 . S
C1188 C121 1.434 . S
C1205 C135 1.427 . S
C1224 C51 1.430 . S
C1241 C205 1.427 . S
C1260 C65 1.411 . S
C1277 C219 1.426 . S
C1296 C79 1.433 . S
C1313 C177 1.428 . S
C1332 C93 1.412 . S
C1349 C107 1.423 . S
C1368 C191 1.424 . S
