# Generated by pormake.
# Topology fcr, (5)-cn, num edge types: 1
# Building blocks:
#     Node 0, Type 0, BuildingBlock: BEQFEK_clean_sbu_0, # of connection points: 5
#     Node 1, Type 0, BuildingBlock: BEQFEK_clean_sbu_0, # of connection points: 5
#     Node 2, Type 0, BuildingBlock: BEQFEK_clean_sbu_0, # of connection points: 5
#     Node 3, Type 0, BuildingBlock: BEQFEK_clean_sbu_0, # of connection points: 5
#     Node 4, Type 0, BuildingBlock: BEQFEK_clean_sbu_0, # of connection points: 5
#     Node 5, Type 0, BuildingBlock: BEQFEK_clean_sbu_0, # of connection points: 5
#     Node 6, Type 0, BuildingBlock: BEQFEK_clean_sbu_0, # of connection points: 5
#     Node 7, Type 0, BuildingBlock: BEQFEK_clean_sbu_0, # of connection points: 5
#     Node 8, Type 0, BuildingBlock: BEQFEK_clean_sbu_0, # of connection points: 5
#     Node 9, Type 0, BuildingBlock: BEQFEK_clean_sbu_0, # of connection points: 5
#     Node 10, Type 0, BuildingBlock: BEQFEK_clean_sbu_0, # of connection points: 5
#     Node 11, Type 0, BuildingBlock: BEQFEK_clean_sbu_0, # of connection points: 5
#     Node 12, Type 0, BuildingBlock: BEQFEK_clean_sbu_0, # of connection points: 5
#     Node 13, Type 0, BuildingBlock: BEQFEK_clean_sbu_0, # of connection points: 5
#     Node 14, Type 0, BuildingBlock: BEQFEK_clean_sbu_0, # of connection points: 5
#     Node 15, Type 0, BuildingBlock: BEQFEK_clean_sbu_0, # of connection points: 5
#     Node 16, Type 0, BuildingBlock: BEQFEK_clean_sbu_0, # of connection points: 5
#     Node 17, Type 0, BuildingBlock: BEQFEK_clean_sbu_0, # of connection points: 5
#     Node 18, Type 0, BuildingBlock: BEQFEK_clean_sbu_0, # of connection points: 5
#     Node 19, Type 0, BuildingBlock: BEQFEK_clean_sbu_0, # of connection points: 5
#     Node 20, Type 0, BuildingBlock: BEQFEK_clean_sbu_0, # of connection points: 5
#     Node 21, Type 0, BuildingBlock: BEQFEK_clean_sbu_0, # of connection points: 5
#     Node 22, Type 0, BuildingBlock: BEQFEK_clean_sbu_0, # of connection points: 5
#     Node 23, Type 0, BuildingBlock: BEQFEK_clean_sbu_0, # of connection points: 5
#     Node 24, Type 0, BuildingBlock: BEQFEK_clean_sbu_0, # of connection points: 5
#     Node 25, Type 0, BuildingBlock: BEQFEK_clean_sbu_0, # of connection points: 5
#     Node 26, Type 0, BuildingBlock: BEQFEK_clean_sbu_0, # of connection points: 5
#     Node 27, Type 0, BuildingBlock: BEQFEK_clean_sbu_0, # of connection points: 5
#     Node 28, Type 0, BuildingBlock: BEQFEK_clean_sbu_0, # of connection points: 5
#     Node 29, Type 0, BuildingBlock: BEQFEK_clean_sbu_0, # of connection points: 5
#     Node 30, Type 0, BuildingBlock: BEQFEK_clean_sbu_0, # of connection points: 5
#     Node 31, Type 0, BuildingBlock: BEQFEK_clean_sbu_0, # of connection points: 5
#     Node 32, Type 0, BuildingBlock: BEQFEK_clean_sbu_0, # of connection points: 5
#     Node 33, Type 0, BuildingBlock: BEQFEK_clean_sbu_0, # of connection points: 5
#     Node 34, Type 0, BuildingBlock: BEQFEK_clean_sbu_0, # of connection points: 5
#     Node 35, Type 0, BuildingBlock: BEQFEK_clean_sbu_0, # of connection points: 5
#     Node 36, Type 0, BuildingBlock: BEQFEK_clean_sbu_0, # of connection points: 5
#     Node 37, Type 0, BuildingBlock: BEQFEK_clean_sbu_0, # of connection points: 5
#     Node 38, Type 0, BuildingBlock: BEQFEK_clean_sbu_0, # of connection points: 5
#     Node 39, Type 0, BuildingBlock: BEQFEK_clean_sbu_0, # of connection points: 5
#     Node 40, Type 0, BuildingBlock: BEQFEK_clean_sbu_0, # of connection points: 5
#     Node 41, Type 0, BuildingBlock: BEQFEK_clean_sbu_0, # of connection points: 5
#     Node 42, Type 0, BuildingBlock: BEQFEK_clean_sbu_0, # of connection points: 5
#     Node 43, Type 0, BuildingBlock: BEQFEK_clean_sbu_0, # of connection points: 5
#     Node 44, Type 0, BuildingBlock: BEQFEK_clean_sbu_0, # of connection points: 5
#     Node 45, Type 0, BuildingBlock: BEQFEK_clean_sbu_0, # of connection points: 5
#     Node 46, Type 0, BuildingBlock: BEQFEK_clean_sbu_0, # of connection points: 5
#     Node 47, Type 0, BuildingBlock: BEQFEK_clean_sbu_0, # of connection points: 5
#     Edge 48, Type (0, 0), BuildingBlock: XIVTED_clean_linker_0, # of connection points: 2
#     Edge 49, Type (0, 0), BuildingBlock: XIVTED_clean_linker_0, # of connection points: 2
#     Edge 50, Type (0, 0), BuildingBlock: XIVTED_clean_linker_0, # of connection points: 2
#     Edge 51, Type (0, 0), BuildingBlock: XIVTED_clean_linker_0, # of connection points: 2
#     Edge 52, Type (0, 0), BuildingBlock: XIVTED_clean_linker_0, # of connection points: 2
#     Edge 53, Type (0, 0), BuildingBlock: XIVTED_clean_linker_0, # of connection points: 2
#     Edge 54, Type (0, 0), BuildingBlock: XIVTED_clean_linker_0, # of connection points: 2
#     Edge 55, Type (0, 0), BuildingBlock: XIVTED_clean_linker_0, # of connection points: 2
#     Edge 56, Type (0, 0), BuildingBlock: XIVTED_clean_linker_0, # of connection points: 2
#     Edge 57, Type (0, 0), BuildingBlock: XIVTED_clean_linker_0, # of connection points: 2
#     Edge 58, Type (0, 0), BuildingBlock: XIVTED_clean_linker_0, # of connection points: 2
#     Edge 59, Type (0, 0), BuildingBlock: XIVTED_clean_linker_0, # of connection points: 2
#     Edge 60, Type (0, 0), BuildingBlock: XIVTED_clean_linker_0, # of connection points: 2
#     Edge 61, Type (0, 0), BuildingBlock: XIVTED_clean_linker_0, # of connection points: 2
#     Edge 62, Type (0, 0), BuildingBlock: XIVTED_clean_linker_0, # of connection points: 2
#     Edge 63, Type (0, 0), BuildingBlock: XIVTED_clean_linker_0, # of connection points: 2
#     Edge 64, Type (0, 0), BuildingBlock: XIVTED_clean_linker_0, # of connection points: 2
#     Edge 65, Type (0, 0), BuildingBlock: XIVTED_clean_linker_0, # of connection points: 2
#     Edge 66, Type (0, 0), BuildingBlock: XIVTED_clean_linker_0, # of connection points: 2
#     Edge 67, Type (0, 0), BuildingBlock: XIVTED_clean_linker_0, # of connection points: 2
#     Edge 68, Type (0, 0), BuildingBlock: XIVTED_clean_linker_0, # of connection points: 2
#     Edge 69, Type (0, 0), BuildingBlock: XIVTED_clean_linker_0, # of connection points: 2
#     Edge 70, Type (0, 0), BuildingBlock: XIVTED_clean_linker_0, # of connection points: 2
#     Edge 71, Type (0, 0), BuildingBlock: XIVTED_clean_linker_0, # of connection points: 2
#     Edge 72, Type (0, 0), BuildingBlock: XIVTED_clean_linker_0, # of connection points: 2
#     Edge 73, Type (0, 0), BuildingBlock: XIVTED_clean_linker_0, # of connection points: 2
#     Edge 74, Type (0, 0), BuildingBlock: XIVTED_clean_linker_0, # of connection points: 2
#     Edge 75, Type (0, 0), BuildingBlock: XIVTED_clean_linker_0, # of connection points: 2
#     Edge 76, Type (0, 0), BuildingBlock: XIVTED_clean_linker_0, # of connection points: 2
#     Edge 77, Type (0, 0), BuildingBlock: XIVTED_clean_linker_0, # of connection points: 2
#     Edge 78, Type (0, 0), BuildingBlock: XIVTED_clean_linker_0, # of connection points: 2
#     Edge 79, Type (0, 0), BuildingBlock: XIVTED_clean_linker_0, # of connection points: 2
#     Edge 80, Type (0, 0), BuildingBlock: XIVTED_clean_linker_0, # of connection points: 2
#     Edge 81, Type (0, 0), BuildingBlock: XIVTED_clean_linker_0, # of connection points: 2
#     Edge 82, Type (0, 0), BuildingBlock: XIVTED_clean_linker_0, # of connection points: 2
#     Edge 83, Type (0, 0), BuildingBlock: XIVTED_clean_linker_0, # of connection points: 2
#     Edge 84, Type (0, 0), BuildingBlock: XIVTED_clean_linker_0, # of connection points: 2
#     Edge 85, Type (0, 0), BuildingBlock: XIVTED_clean_linker_0, # of connection points: 2
#     Edge 86, Type (0, 0), BuildingBlock: XIVTED_clean_linker_0, # of connection points: 2
#     Edge 87, Type (0, 0), BuildingBlock: XIVTED_clean_linker_0, # of connection points: 2
#     Edge 88, Type (0, 0), BuildingBlock: XIVTED_clean_linker_0, # of connection points: 2
#     Edge 89, Type (0, 0), BuildingBlock: XIVTED_clean_linker_0, # of connection points: 2
#     Edge 90, Type (0, 0), BuildingBlock: XIVTED_clean_linker_0, # of connection points: 2
#     Edge 91, Type (0, 0), BuildingBlock: XIVTED_clean_linker_0, # of connection points: 2
#     Edge 92, Type (0, 0), BuildingBlock: XIVTED_clean_linker_0, # of connection points: 2
#     Edge 93, Type (0, 0), BuildingBlock: XIVTED_clean_linker_0, # of connection points: 2
#     Edge 94, Type (0, 0), BuildingBlock: XIVTED_clean_linker_0, # of connection points: 2
#     Edge 95, Type (0, 0), BuildingBlock: XIVTED_clean_linker_0, # of connection points: 2
#     Edge 96, Type (0, 0), BuildingBlock: XIVTED_clean_linker_0, # of connection points: 2
#     Edge 97, Type (0, 0), BuildingBlock: XIVTED_clean_linker_0, # of connection points: 2
#     Edge 98, Type (0, 0), BuildingBlock: XIVTED_clean_linker_0, # of connection points: 2
#     Edge 99, Type (0, 0), BuildingBlock: XIVTED_clean_linker_0, # of connection points: 2
#     Edge 100, Type (0, 0), BuildingBlock: XIVTED_clean_linker_0, # of connection points: 2
#     Edge 101, Type (0, 0), BuildingBlock: XIVTED_clean_linker_0, # of connection points: 2
#     Edge 102, Type (0, 0), BuildingBlock: XIVTED_clean_linker_0, # of connection points: 2
#     Edge 103, Type (0, 0), BuildingBlock: XIVTED_clean_linker_0, # of connection points: 2
#     Edge 104, Type (0, 0), BuildingBlock: XIVTED_clean_linker_0, # of connection points: 2
#     Edge 105, Type (0, 0), BuildingBlock: XIVTED_clean_linker_0, # of connection points: 2
#     Edge 106, Type (0, 0), BuildingBlock: XIVTED_clean_linker_0, # of connection points: 2
#     Edge 107, Type (0, 0), BuildingBlock: XIVTED_clean_linker_0, # of connection points: 2
#     Edge 108, Type (0, 0), BuildingBlock: XIVTED_clean_linker_0, # of connection points: 2
#     Edge 109, Type (0, 0), BuildingBlock: XIVTED_clean_linker_0, # of connection points: 2
#     Edge 110, Type (0, 0), BuildingBlock: XIVTED_clean_linker_0, # of connection points: 2
#     Edge 111, Type (0, 0), BuildingBlock: XIVTED_clean_linker_0, # of connection points: 2
#     Edge 112, Type (0, 0), BuildingBlock: XIVTED_clean_linker_0, # of connection points: 2
#     Edge 113, Type (0, 0), BuildingBlock: XIVTED_clean_linker_0, # of connection points: 2
#     Edge 114, Type (0, 0), BuildingBlock: XIVTED_clean_linker_0, # of connection points: 2
#     Edge 115, Type (0, 0), BuildingBlock: XIVTED_clean_linker_0, # of connection points: 2
#     Edge 116, Type (0, 0), BuildingBlock: XIVTED_clean_linker_0, # of connection points: 2
#     Edge 117, Type (0, 0), BuildingBlock: XIVTED_clean_linker_0, # of connection points: 2
#     Edge 118, Type (0, 0), BuildingBlock: XIVTED_clean_linker_0, # of connection points: 2
#     Edge 119, Type (0, 0), BuildingBlock: XIVTED_clean_linker_0, # of connection points: 2
#     Edge 120, Type (0, 0), BuildingBlock: XIVTED_clean_linker_0, # of connection points: 2
#     Edge 121, Type (0, 0), BuildingBlock: XIVTED_clean_linker_0, # of connection points: 2
#     Edge 122, Type (0, 0), BuildingBlock: XIVTED_clean_linker_0, # of connection points: 2
#     Edge 123, Type (0, 0), BuildingBlock: XIVTED_clean_linker_0, # of connection points: 2
#     Edge 124, Type (0, 0), BuildingBlock: XIVTED_clean_linker_0, # of connection points: 2
#     Edge 125, Type (0, 0), BuildingBlock: XIVTED_clean_linker_0, # of connection points: 2
#     Edge 126, Type (0, 0), BuildingBlock: XIVTED_clean_linker_0, # of connection points: 2
#     Edge 127, Type (0, 0), BuildingBlock: XIVTED_clean_linker_0, # of connection points: 2
#     Edge 128, Type (0, 0), BuildingBlock: XIVTED_clean_linker_0, # of connection points: 2
#     Edge 129, Type (0, 0), BuildingBlock: XIVTED_clean_linker_0, # of connection points: 2
#     Edge 130, Type (0, 0), BuildingBlock: XIVTED_clean_linker_0, # of connection points: 2
#     Edge 131, Type (0, 0), BuildingBlock: XIVTED_clean_linker_0, # of connection points: 2
#     Edge 132, Type (0, 0), BuildingBlock: XIVTED_clean_linker_0, # of connection points: 2
#     Edge 133, Type (0, 0), BuildingBlock: XIVTED_clean_linker_0, # of connection points: 2
#     Edge 134, Type (0, 0), BuildingBlock: XIVTED_clean_linker_0, # of connection points: 2
#     Edge 135, Type (0, 0), BuildingBlock: XIVTED_clean_linker_0, # of connection points: 2
#     Edge 136, Type (0, 0), BuildingBlock: XIVTED_clean_linker_0, # of connection points: 2
#     Edge 137, Type (0, 0), BuildingBlock: XIVTED_clean_linker_0, # of connection points: 2
#     Edge 138, Type (0, 0), BuildingBlock: XIVTED_clean_linker_0, # of connection points: 2
#     Edge 139, Type (0, 0), BuildingBlock: XIVTED_clean_linker_0, # of connection points: 2
#     Edge 140, Type (0, 0), BuildingBlock: XIVTED_clean_linker_0, # of connection points: 2
#     Edge 141, Type (0, 0), BuildingBlock: XIVTED_clean_linker_0, # of connection points: 2
#     Edge 142, Type (0, 0), BuildingBlock: XIVTED_clean_linker_0, # of connection points: 2
#     Edge 143, Type (0, 0), BuildingBlock: XIVTED_clean_linker_0, # of connection points: 2
#     Edge 144, Type (0, 0), BuildingBlock: XIVTED_clean_linker_0, # of connection points: 2
#     Edge 145, Type (0, 0), BuildingBlock: XIVTED_clean_linker_0, # of connection points: 2
#     Edge 146, Type (0, 0), BuildingBlock: XIVTED_clean_linker_0, # of connection points: 2
#     Edge 147, Type (0, 0), BuildingBlock: XIVTED_clean_linker_0, # of connection points: 2
#     Edge 148, Type (0, 0), BuildingBlock: XIVTED_clean_linker_0, # of connection points: 2
#     Edge 149, Type (0, 0), BuildingBlock: XIVTED_clean_linker_0, # of connection points: 2
#     Edge 150, Type (0, 0), BuildingBlock: XIVTED_clean_linker_0, # of connection points: 2
#     Edge 151, Type (0, 0), BuildingBlock: XIVTED_clean_linker_0, # of connection points: 2
#     Edge 152, Type (0, 0), BuildingBlock: XIVTED_clean_linker_0, # of connection points: 2
#     Edge 153, Type (0, 0), BuildingBlock: XIVTED_clean_linker_0, # of connection points: 2
#     Edge 154, Type (0, 0), BuildingBlock: XIVTED_clean_linker_0, # of connection points: 2
#     Edge 155, Type (0, 0), BuildingBlock: XIVTED_clean_linker_0, # of connection points: 2
#     Edge 156, Type (0, 0), BuildingBlock: XIVTED_clean_linker_0, # of connection points: 2
#     Edge 157, Type (0, 0), BuildingBlock: XIVTED_clean_linker_0, # of connection points: 2
#     Edge 158, Type (0, 0), BuildingBlock: XIVTED_clean_linker_0, # of connection points: 2
#     Edge 159, Type (0, 0), BuildingBlock: XIVTED_clean_linker_0, # of connection points: 2
#     Edge 160, Type (0, 0), BuildingBlock: XIVTED_clean_linker_0, # of connection points: 2
#     Edge 161, Type (0, 0), BuildingBlock: XIVTED_clean_linker_0, # of connection points: 2
#     Edge 162, Type (0, 0), BuildingBlock: XIVTED_clean_linker_0, # of connection points: 2
#     Edge 163, Type (0, 0), BuildingBlock: XIVTED_clean_linker_0, # of connection points: 2
#     Edge 164, Type (0, 0), BuildingBlock: XIVTED_clean_linker_0, # of connection points: 2
#     Edge 165, Type (0, 0), BuildingBlock: XIVTED_clean_linker_0, # of connection points: 2
#     Edge 166, Type (0, 0), BuildingBlock: XIVTED_clean_linker_0, # of connection points: 2
#     Edge 167, Type (0, 0), BuildingBlock: XIVTED_clean_linker_0, # of connection points: 2
# Relax obj value: 0.277
# Max RMSD: 0.173
# Mean RMSD: 0.173
data_MOF--net-fcr--node1-BEQFEK_clean_sbu_0--edge1-XIVTED_clean_linker_0
_symmetry_space_group_name_H-M    P1
_symmetry_Int_Tables_number       1
_symmetry_cell_setting            triclinic
loop_
_symmetry_equiv_pos_as_xyz
'x, y, z'
_cell_length_a     65.546797
_cell_length_b     65.629778
_cell_length_c     65.60773
_cell_angle_alpha  89.98592
_cell_angle_beta   89.985872
_cell_angle_gamma 89.983769
loop_
_atom_site_label
_atom_site_type_symbol
_atom_site_fract_x
_atom_site_fract_y
_atom_site_fract_z
_atom_type_partial_charge
Co0 Co 0.11078 0.30176 0.25876 0.0
Co1 Co 0.09434 0.33628 0.23019 0.0
C2 C 0.10978 0.3444 0.27339 0.0
O3 O 0.11378 0.32566 0.27632 0.0
O4 O 0.10197 0.35052 0.25661 0.0
C5 C 0.13606 0.27745 0.28592 0.0
O6 O 0.14319 0.29485 0.29281 0.0
C7 C 0.10047 0.37342 0.20579 0.0
C8 C 0.07598 0.37077 0.18287 0.0
C9 C 0.09288 0.38239 0.1881 0.0
N10 N 0.08881 0.35714 0.21042 0.0
N11 N 0.07394 0.35594 0.19689 0.0
C12 C 0.11973 0.37866 0.21688 0.0
H13 H 0.12513 0.36548 0.226 0.0
H14 H 0.13181 0.3834 0.20603 0.0
H15 H 0.11667 0.39155 0.2274 0.0
C16 C 0.14153 0.29854 0.22607 0.0
N17 N 0.12422 0.30647 0.23373 0.0
N18 N 0.11698 0.32019 0.22099 0.0
C19 C 0.12919 0.32075 0.20437 0.0
C20 C 0.1453 0.30736 0.20729 0.0
C21 C 0.1545 0.28311 0.23678 0.0
H22 H 0.1451 0.26961 0.24066 0.0
H23 H 0.16037 0.28978 0.25116 0.0
H24 H 0.16753 0.27812 0.22722 0.0
O25 O 0.08192 0.29498 0.25441 0.0
O26 O 0.06952 0.318 0.23292 0.0
H27 H 0.10967 0.33654 0.18333 0.0
H28 H 0.13321 0.32758 0.17243 0.0
C29 C 0.12613 0.33426 0.18625 0.0
H30 H 0.13356 0.34915 0.18905 0.0
H31 H 0.06303 0.34435 0.19662 0.0
O32 O 0.12258 0.27749 0.27203 0.0
C33 C 0.06734 0.30194 0.2437 0.0
Co34 Co 0.55208 0.65113 1.00331 0.0
Co35 Co 0.58736 0.66727 0.03134 0.0
C36 C 0.59428 0.65381 0.98721 0.0
O37 O 0.57548 0.64963 0.98456 0.0
O38 O 0.60069 0.66103 1.00415 0.0
C39 C 0.52436 0.6298 0.97477 0.0
O40 O 0.53981 0.62618 0.96255 0.0
C41 C 0.6257 0.66201 0.055 0.0
C42 C 0.62013 0.68276 0.08085 0.0
C43 C 0.63353 0.66795 0.07387 0.0
N44 N 0.60818 0.67228 0.05155 0.0
N45 N 0.60524 0.68496 0.0669 0.0
C46 C 0.63475 0.64712 0.04026 0.0
H47 H 0.63114 0.65166 0.02446 0.0
H48 H 0.62819 0.63177 0.04289 0.0
H49 H 0.65157 0.64638 0.04195 0.0
C50 C 0.55078 0.61895 0.03434 0.0
N51 N 0.55824 0.63665 0.02721 0.0
N52 N 0.57215 0.64369 0.03985 0.0
C53 C 0.57346 0.63077 0.05589 0.0
C54 C 0.56017 0.61462 0.0527 0.0
C55 C 0.53492 0.60647 0.02369 0.0
H56 H 0.52067 0.61551 0.02238 0.0
H57 H 0.54024 0.60281 0.00806 0.0
H58 H 0.53147 0.59216 0.03199 0.0
O59 O 0.54422 0.67909 0.01022 0.0
O60 O 0.56851 0.69192 0.0299 0.0
H61 H 0.58773 0.64935 0.07864 0.0
H62 H 0.58295 0.62352 0.08664 0.0
C63 C 0.58758 0.63325 0.07362 0.0
H64 H 0.60318 0.6287 0.06905 0.0
H65 H 0.59249 0.69439 0.06836 0.0
O66 O 0.52719 0.63948 0.99127 0.0
C67 C 0.55135 0.69363 0.02081 0.0
Co68 Co 0.90238 0.20921 0.25692 0.0
Co69 Co 0.91968 0.17342 0.23051 0.0
C70 C 0.90294 0.16757 0.27379 0.0
O71 O 0.89863 0.18638 0.27582 0.0
O72 O 0.91133 0.16083 0.25753 0.0
C73 C 0.8817 0.23813 0.28436 0.0
O74 O 0.87981 0.22335 0.29773 0.0
C75 C 0.9129 0.13569 0.20749 0.0
C76 C 0.93847 0.13607 0.18561 0.0
C77 C 0.92073 0.12562 0.19053 0.0
N78 N 0.92526 0.15146 0.21203 0.0
N79 N 0.94076 0.15131 0.19916 0.0
C80 C 0.89284 0.13205 0.21778 0.0
H81 H 0.88795 0.14576 0.22639 0.0
H82 H 0.88096 0.1279 0.20647 0.0
H83 H 0.8945 0.11921 0.22866 0.0
C84 C 0.87291 0.21103 0.22319 0.0
N85 N 0.88972 0.20311 0.23188 0.0
N86 N 0.8974 0.18895 0.21994 0.0
C87 C 0.886 0.18798 0.2028 0.0
C88 C 0.87001 0.20175 0.20444 0.0
C89 C 0.85904 0.22593 0.23354 0.0
H90 H 0.866 0.24133 0.23291 0.0
H91 H 0.85719 0.22163 0.24979 0.0
H92 H 0.84378 0.22645 0.22628 0.0
O93 O 0.93145 0.21555 0.25301 0.0
O94 O 0.94448 0.19172 0.23283 0.0
H95 H 0.90759 0.17323 0.18301 0.0
H96 H 0.88497 0.18261 0.17042 0.0
C97 C 0.89089 0.17529 0.18449 0.0
H98 H 0.88345 0.16021 0.18595 0.0
H99 H 0.95228 0.16229 0.19891 0.0
O100 O 0.89038 0.23471 0.26741 0.0
C101 C 0.94634 0.20821 0.243 0.0
Co102 Co 0.46028 0.86219 0.00731 0.0
Co103 Co 0.42502 0.84294 0.03305 0.0
C104 C 0.4187 0.85935 0.9899 0.0
O105 O 0.43741 0.86423 0.98793 0.0
O106 O 0.41218 0.85087 0.00618 0.0
C107 C 0.4928 0.87367 0.97933 0.0
O108 O 0.48418 0.8614 0.96607 0.0
C109 C 0.3871 0.8486 0.05586 0.0
C110 C 0.38794 0.82315 0.07783 0.0
C111 C 0.37716 0.84068 0.07285 0.0
N112 N 0.40311 0.83652 0.05136 0.0
N113 N 0.40324 0.82108 0.06427 0.0
C114 C 0.3832 0.86861 0.0456 0.0
H115 H 0.39683 0.87367 0.03695 0.0
H116 H 0.37895 0.88042 0.05694 0.0
H117 H 0.37033 0.86684 0.03476 0.0
C118 C 0.45974 0.89185 0.04085 0.0
N119 N 0.4529 0.87468 0.03201 0.0
N120 N 0.43936 0.86592 0.04392 0.0
C121 C 0.43782 0.87694 0.06127 0.0
C122 C 0.4505 0.89382 0.05975 0.0
C123 C 0.47367 0.90676 0.03063 0.0
H124 H 0.47011 0.9076 0.01412 0.0
H125 H 0.4722 0.92221 0.03731 0.0
H126 H 0.48966 0.90151 0.03241 0.0
O127 O 0.46904 0.8339 0.01254 0.0
O128 O 0.44446 0.81903 0.03046 0.0
H129 H 0.43325 0.87662 0.09378 0.0
H130 H 0.41037 0.8774 0.0789 0.0
C131 C 0.42589 0.87076 0.07971 0.0
H132 H 0.42479 0.85396 0.08068 0.0
H133 H 0.41447 0.80981 0.0646 0.0
O134 O 0.4847 0.87617 0.99673 0.0
C135 C 0.46197 0.81844 0.02187 0.0
Co136 Co 0.11266 0.7093 0.25524 0.0
Co137 Co 0.09367 0.67416 0.28119 0.0
C138 C 0.10978 0.66772 0.23799 0.0
O139 O 0.11455 0.68642 0.236 0.0
O140 O 0.10151 0.66114 0.25436 0.0
C141 C 0.12372 0.74162 0.22695 0.0
O142 O 0.11139 0.7329 0.21381 0.0
C143 C 0.09932 0.63662 0.30458 0.0
C144 C 0.07343 0.63754 0.32606 0.0
C145 C 0.09113 0.62683 0.32153 0.0
N146 N 0.08721 0.65247 0.29968 0.0
N147 N 0.07151 0.65265 0.3123 0.0
C148 C 0.11953 0.63268 0.29468 0.0
H149 H 0.12457 0.64613 0.28578 0.0
H150 H 0.13123 0.6288 0.30628 0.0
H151 H 0.11802 0.61956 0.28413 0.0
C152 C 0.1421 0.70966 0.28895 0.0
N153 N 0.12526 0.70221 0.27995 0.0
N154 N 0.11667 0.68864 0.29195 0.0
C155 C 0.12752 0.68764 0.30947 0.0
C156 C 0.14405 0.70078 0.30801 0.0
C157 C 0.15659 0.72416 0.27891 0.0
H158 H 0.15805 0.72042 0.2625 0.0
H159 H 0.17193 0.72355 0.28603 0.0
H160 H 0.15051 0.73987 0.28032 0.0
O161 O 0.08443 0.71803 0.26052 0.0
O162 O 0.06966 0.69353 0.27858 0.0
H163 H 0.10457 0.67444 0.32883 0.0
H164 H 0.12693 0.68356 0.34205 0.0
C165 C 0.12138 0.67588 0.32803 0.0
H166 H 0.12834 0.66051 0.32751 0.0
H167 H 0.06014 0.66379 0.31227 0.0
O168 O 0.12643 0.73361 0.24435 0.0
C169 C 0.06901 0.71098 0.26994 0.0
Co170 Co 0.95955 0.64911 1.00443 0.0
Co171 Co 0.92385 0.66814 0.97905 0.0
C172 C 0.91792 0.65092 0.02197 0.0
O173 O 0.93674 0.64638 0.0238 0.0
O174 O 0.91116 0.65949 0.00583 0.0
C175 C 0.99134 0.63499 0.03255 0.0
O176 O 0.98134 0.64423 0.04725 0.0
C177 C 0.88624 0.66217 0.95574 0.0
C178 C 0.88669 0.68822 0.93448 0.0
C179 C 0.8763 0.6703 0.93883 0.0
N180 N 0.90188 0.67451 0.96076 0.0
N181 N 0.90176 0.69029 0.94827 0.0
C182 C 0.88269 0.64181 0.96543 0.0
H183 H 0.89629 0.63691 0.97422 0.0
H184 H 0.87899 0.63018 0.95372 0.0
H185 H 0.86957 0.64298 0.97605 0.0
C186 C 0.95985 0.62033 0.97022 0.0
N187 N 0.95239 0.63699 0.97951 0.0
N188 N 0.93865 0.64566 0.96775 0.0
C189 C 0.93759 0.63508 0.95008 0.0
C190 C 0.95083 0.61862 0.95122 0.0
C191 C 0.97436 0.60566 0.98 0.0
H192 H 0.9901 0.61167 0.97859 0.0
H193 H 0.97067 0.60399 0.99642 0.0
H194 H 0.97366 0.59043 0.9727 0.0
O195 O 0.96778 0.67762 0.9997 0.0
O196 O 0.9429 0.69236 0.98208 0.0
H197 H 0.92402 0.65815 0.93115 0.0
H198 H 0.93331 0.63611 0.91755 0.0
C199 C 0.92564 0.64137 0.93169 0.0
H200 H 0.91034 0.63423 0.93218 0.0
H201 H 0.91272 0.70184 0.94838 0.0
O202 O 0.98431 0.6353 0.01453 0.0
C203 C 0.96042 0.69312 0.99066 0.0
Co204 Co 0.9012 0.80161 0.2537 0.0
Co205 Co 0.91872 0.83685 0.28064 0.0
C206 C 0.90345 0.84352 0.23717 0.0
O207 O 0.89908 0.82478 0.23479 0.0
O208 O 0.91131 0.84994 0.25378 0.0
C209 C 0.87839 0.77594 0.22554 0.0
O210 O 0.87422 0.79273 0.21546 0.0
C211 C 0.91086 0.87435 0.30326 0.0
C212 C 0.93701 0.87639 0.32429 0.0
C213 C 0.9188 0.88577 0.31912 0.0
N214 N 0.92377 0.85894 0.29914 0.0
N215 N 0.93957 0.86044 0.31157 0.0
C216 C 0.89077 0.87748 0.2929 0.0
H217 H 0.88616 0.86363 0.28438 0.0
H218 H 0.87885 0.88158 0.30419 0.0
H219 H 0.89218 0.89035 0.28201 0.0
C220 C 0.8708 0.80017 0.28667 0.0
N221 N 0.8878 0.80792 0.27823 0.0
N222 N 0.89581 0.82157 0.29054 0.0
C223 C 0.88439 0.82235 0.30769 0.0
C224 C 0.86806 0.80902 0.30568 0.0
C225 C 0.8568 0.78567 0.27596 0.0
H226 H 0.8635 0.77015 0.27644 0.0
H227 H 0.85522 0.79024 0.25977 0.0
H228 H 0.84144 0.78534 0.28304 0.0
O229 O 0.92954 0.79385 0.25973 0.0
O230 O 0.94341 0.81827 0.27858 0.0
H231 H 0.88409 0.82645 0.34026 0.0
H232 H 0.88218 0.84942 0.32564 0.0
C233 C 0.88969 0.83432 0.32636 0.0
H234 H 0.90642 0.8364 0.32754 0.0
H235 H 0.95165 0.85008 0.31196 0.0
O236 O 0.88906 0.77685 0.24167 0.0
C237 C 0.94459 0.80099 0.26963 0.0
Co238 Co 0.05234 0.86033 0.00653 0.0
Co239 Co 0.08791 0.84235 0.98023 0.0
C240 C 0.0942 0.85847 0.02349 0.0
O241 O 0.07536 0.86276 0.02565 0.0
O242 O 0.10088 0.85038 0.00706 0.0
C243 C 0.02189 0.87592 0.03556 0.0
O244 O 0.03349 0.86929 0.05048 0.0
C245 C 0.12542 0.84864 0.95661 0.0
C246 C 0.12438 0.82315 0.93471 0.0
C247 C 0.13509 0.84079 0.93941 0.0
N248 N 0.10962 0.83641 0.96147 0.0
N249 N 0.10938 0.82097 0.94857 0.0
C250 C 0.12942 0.86863 0.96686 0.0
H251 H 0.11593 0.87357 0.97579 0.0
H252 H 0.1334 0.88049 0.95548 0.0
H253 H 0.14251 0.86686 0.97744 0.0
C254 C 0.05145 0.89015 0.97328 0.0
N255 N 0.0591 0.87321 0.98189 0.0
N256 N 0.07289 0.86513 0.96978 0.0
C257 C 0.07387 0.87647 0.95257 0.0
C258 C 0.06046 0.89274 0.95438 0.0
C259 C 0.03678 0.90427 0.98362 0.0
H260 H 0.04078 0.90573 0.99998 0.0
H261 H 0.03691 0.91964 0.97658 0.0
H262 H 0.02117 0.89786 0.98246 0.0
O263 O 0.04426 0.83195 1.00117 0.0
O264 O 0.069 0.81791 0.98284 0.0
H265 H 0.07843 0.8771 0.92007 0.0
H266 H 0.10125 0.87846 0.93497 0.0
C267 C 0.08603 0.87121 0.934 0.0
H268 H 0.08782 0.85449 0.93265 0.0
H269 H 0.09827 0.80958 0.94851 0.0
O270 O 0.02757 0.87358 0.01721 0.0
C271 C 0.05161 0.81677 0.99162 0.0
Co272 Co 0.25811 0.1108 0.30191 0.0
Co273 Co 0.23031 0.0933 0.33654 0.0
C274 C 0.27366 0.10823 0.34432 0.0
O275 O 0.27643 0.11251 0.32559 0.0
O276 O 0.25686 0.10052 0.35048 0.0
C277 C 0.28472 0.13693 0.27769 0.0
O278 O 0.29182 0.14395 0.29505 0.0
C279 C 0.20638 0.09924 0.37395 0.0
C280 C 0.18325 0.07494 0.37146 0.0
C281 C 0.18865 0.09183 0.38301 0.0
N282 N 0.21085 0.08752 0.35767 0.0
N283 N 0.19723 0.07275 0.35658 0.0
C284 C 0.21757 0.11847 0.37903 0.0
H285 H 0.22662 0.12379 0.36577 0.0
H286 H 0.20678 0.13061 0.38379 0.0
H287 H 0.22816 0.11545 0.39187 0.0
C288 C 0.22573 0.14192 0.30058 0.0
N289 N 0.23352 0.12439 0.30783 0.0
N290 N 0.22087 0.11652 0.3213 0.0
C291 C 0.20415 0.12858 0.32236 0.0
C292 C 0.20695 0.1452 0.30961 0.0
C293 C 0.23615 0.15535 0.28537 0.0
H294 H 0.2397 0.14641 0.27147 0.0
H295 H 0.25071 0.16095 0.29192 0.0
H296 H 0.22653 0.16856 0.28101 0.0
O297 O 0.25212 0.08271 0.29351 0.0
O298 O 0.23282 0.0689 0.31761 0.0
H299 H 0.18333 0.10816 0.3373 0.0
H300 H 0.172 0.13162 0.32872 0.0
C301 C 0.18588 0.12472 0.33548 0.0
H302 H 0.18821 0.13186 0.35059 0.0
H303 H 0.19679 0.06186 0.34499 0.0
O304 O 0.271 0.12329 0.2778 0.0
C305 C 0.242 0.06772 0.30045 0.0
Co306 Co 0.36117 0.50325 0.95948 0.0
Co307 Co 0.34359 0.53027 0.92425 0.0
C308 C 0.36003 0.48704 0.91757 0.0
O309 O 0.36455 0.48467 0.9363 0.0
O310 O 0.35162 0.50344 0.9112 0.0
C311 C 0.37612 0.47422 0.99039 0.0
O312 O 0.36987 0.45921 0.97872 0.0
C313 C 0.34991 0.55367 0.88667 0.0
C314 C 0.32459 0.57581 0.88778 0.0
C315 C 0.34209 0.57083 0.87693 0.0
N316 N 0.3378 0.54909 0.90262 0.0
N317 N 0.32245 0.56213 0.90291 0.0
C318 C 0.36979 0.54321 0.88254 0.0
H319 H 0.37487 0.53446 0.89609 0.0
H320 H 0.3817 0.55442 0.87822 0.0
H321 H 0.36776 0.53243 0.86967 0.0
C322 C 0.39087 0.53672 0.96128 0.0
N323 N 0.3739 0.52827 0.95346 0.0
N324 N 0.36617 0.54045 0.93952 0.0
C325 C 0.37774 0.55748 0.93859 0.0
C326 C 0.39383 0.55552 0.95217 0.0
C327 C 0.40481 0.52619 0.97598 0.0
H328 H 0.40633 0.50989 0.97178 0.0
H329 H 0.4202 0.53322 0.97618 0.0
H330 H 0.39816 0.52711 0.9915 0.0
O331 O 0.33221 0.50726 0.9664 0.0
O332 O 0.3191 0.52784 0.94293 0.0
H333 H 0.37921 0.58986 0.93343 0.0
H334 H 0.38027 0.57448 0.91091 0.0
C335 C 0.37299 0.57594 0.92608 0.0
H336 H 0.3563 0.57768 0.92421 0.0
H337 H 0.31114 0.56237 0.91412 0.0
O338 O 0.37385 0.49252 0.98454 0.0
C339 C 0.31734 0.5175 0.95935 0.0
Co340 Co 0.7538 0.40132 0.3024 0.0
Co341 Co 0.7815 0.41797 0.33753 0.0
C342 C 0.73802 0.40307 0.34478 0.0
O343 O 0.73535 0.39913 0.32596 0.0
O344 O 0.75482 0.41061 0.35117 0.0
C345 C 0.72618 0.3773 0.27703 0.0
O346 O 0.7174 0.37134 0.29402 0.0
C347 C 0.80552 0.41059 0.37458 0.0
C348 C 0.82832 0.4353 0.37336 0.0
C349 C 0.82307 0.41783 0.3841 0.0
N350 N 0.80096 0.42301 0.35885 0.0
N351 N 0.81441 0.43798 0.3585 0.0
C352 C 0.79463 0.39097 0.37867 0.0
H353 H 0.78555 0.38625 0.3652 0.0
H354 H 0.80563 0.37876 0.3827 0.0
H355 H 0.78408 0.39312 0.39172 0.0
C356 C 0.78653 0.37076 0.29979 0.0
N357 N 0.77835 0.38763 0.30807 0.0
N358 N 0.79087 0.3951 0.32185 0.0
C359 C 0.80785 0.38338 0.32226 0.0
C360 C 0.8055 0.36752 0.30848 0.0
C361 C 0.77563 0.35735 0.28489 0.0
H362 H 0.75989 0.35453 0.29036 0.0
H363 H 0.7834 0.34248 0.28287 0.0
H364 H 0.77468 0.36523 0.26995 0.0
O365 O 0.7599 0.42959 0.29471 0.0
O366 O 0.77924 0.4428 0.3191 0.0
H367 H 0.84039 0.3816 0.32662 0.0
H368 H 0.82552 0.38071 0.34951 0.0
C369 C 0.82669 0.38793 0.3343 0.0
H370 H 0.82864 0.40459 0.33611 0.0
H371 H 0.81475 0.44941 0.34743 0.0
O372 O 0.74122 0.38946 0.27778 0.0
C373 C 0.77009 0.44438 0.30195 0.0
Co374 Co 0.65122 0.00651 0.95936 0.0
Co375 Co 0.66925 0.9795 0.92437 0.0
C376 C 0.65176 0.02233 0.91733 0.0
O377 O 0.64728 0.02479 0.93606 0.0
O378 O 0.66048 0.00604 0.91109 0.0
C379 C 0.63742 0.03553 0.99071 0.0
O380 O 0.64521 0.05032 0.97967 0.0
C381 C 0.66283 0.95556 0.88723 0.0
C382 C 0.68891 0.9343 0.8878 0.0
C383 C 0.67099 0.93863 0.87738 0.0
N384 N 0.67518 0.96065 0.90283 0.0
N385 N 0.69096 0.94814 0.90281 0.0
C386 C 0.6425 0.9653 0.88356 0.0
H387 H 0.63753 0.97406 0.89714 0.0
H388 H 0.63087 0.95363 0.87975 0.0
H389 H 0.64378 0.97596 0.8705 0.0
C390 C 0.62238 0.97228 0.96178 0.0
N391 N 0.63904 0.98112 0.95371 0.0
N392 N 0.64714 0.9689 0.94004 0.0
C393 C 0.63626 0.9514 0.93964 0.0
C394 C 0.62012 0.95309 0.95325 0.0
C395 C 0.60801 0.98281 0.97606 0.0
H396 H 0.60664 0.99913 0.97187 0.0
H397 H 0.59261 0.97582 0.9757 0.0
H398 H 0.61413 0.98178 0.99178 0.0
O399 O 0.68037 1.00328 0.96608 0.0
O400 O 0.69381 0.98272 0.94276 0.0
H401 H 0.63639 0.91882 0.93556 0.0
H402 H 0.63454 0.9334 0.91254 0.0
C403 C 0.64188 0.93278 0.92773 0.0
H404 H 0.65864 0.93181 0.92584 0.0
H405 H 0.70256 0.94835 0.91372 0.0
O406 O 0.63842 0.01728 0.98437 0.0
C407 C 0.69543 0.9933 0.95903 0.0
Co408 Co 0.25615 0.8997 0.20941 0.0
Co409 Co 0.23024 0.91841 0.17392 0.0
C410 C 0.27344 0.90195 0.16779 0.0
O411 O 0.27542 0.89741 0.18656 0.0
O412 O 0.25712 0.91025 0.1611 0.0
C413 C 0.28457 0.88792 0.24159 0.0
O414 O 0.29826 0.89921 0.23231 0.0
C415 C 0.20701 0.91204 0.13635 0.0
C416 C 0.18523 0.93767 0.13678 0.0
C417 C 0.18998 0.91988 0.12637 0.0
N418 N 0.21174 0.92444 0.15203 0.0
N419 N 0.19893 0.93997 0.15191 0.0
C420 C 0.21709 0.89188 0.1328 0.0
H421 H 0.22589 0.88708 0.14643 0.0
H422 H 0.20561 0.88006 0.12898 0.0
H423 H 0.2278 0.89327 0.11978 0.0
C424 C 0.22236 0.87041 0.20991 0.0
N425 N 0.23139 0.88718 0.20237 0.0
N426 N 0.21941 0.8957 0.18873 0.0
C427 C 0.20186 0.8849 0.18779 0.0
C428 C 0.20329 0.86846 0.20103 0.0
C429 C 0.23243 0.85593 0.2244 0.0
H430 H 0.24887 0.85452 0.22068 0.0
H431 H 0.22536 0.84059 0.22375 0.0
H432 H 0.23097 0.86196 0.24013 0.0
O433 O 0.25089 0.92802 0.2177 0.0
O434 O 0.23289 0.94263 0.19303 0.0
H435 H 0.16926 0.88547 0.18364 0.0
H436 H 0.18387 0.88396 0.16062 0.0
C437 C 0.18331 0.89098 0.17597 0.0
H438 H 0.18251 0.90776 0.17445 0.0
H439 H 0.19878 0.95149 0.16287 0.0
O440 O 0.26685 0.88612 0.23399 0.0
C441 C 0.24153 0.9434 0.2105 0.0
Co442 Co 0.15231 0.50367 0.05204 0.0
Co443 Co 0.16924 0.53118 0.08718 0.0
C444 C 0.15252 0.48801 0.09413 0.0
O445 O 0.14832 0.48541 0.07535 0.0
O446 O 0.16086 0.50447 0.10043 0.0
C447 C 0.13235 0.47544 0.02322 0.0
O448 O 0.13044 0.46218 0.0381 0.0
C449 C 0.16194 0.55501 0.1243 0.0
C450 C 0.18731 0.5771 0.12365 0.0
C451 C 0.16954 0.57223 0.13409 0.0
N452 N 0.17446 0.55027 0.10871 0.0
N453 N 0.18982 0.56329 0.10869 0.0
C454 C 0.14194 0.54463 0.12799 0.0
H455 H 0.13719 0.53581 0.11437 0.0
H456 H 0.12996 0.55591 0.13193 0.0
H457 H 0.14361 0.53392 0.14098 0.0
C458 C 0.12257 0.53714 0.04925 0.0
N459 N 0.13948 0.52881 0.05736 0.0
N460 N 0.14709 0.5412 0.07116 0.0
C461 C 0.13559 0.5583 0.07163 0.0
C462 C 0.11956 0.55615 0.05798 0.0
C463 C 0.10867 0.52614 0.03487 0.0
H464 H 0.11522 0.52675 0.01928 0.0
H465 H 0.10739 0.50993 0.03945 0.0
H466 H 0.09319 0.53296 0.03463 0.0
O467 O 0.18149 0.50745 0.04594 0.0
O468 O 0.19419 0.52848 0.06921 0.0
H469 H 0.15716 0.57858 0.08569 0.0
H470 H 0.13446 0.59081 0.07605 0.0
C471 C 0.14046 0.57699 0.08375 0.0
H472 H 0.13311 0.57595 0.09892 0.0
H473 H 0.20142 0.56342 0.09778 0.0
O474 O 0.14071 0.49255 0.0266 0.0
C475 C 0.19626 0.51776 0.05309 0.0
Co476 Co 0.75707 0.61154 0.2096 0.0
Co477 Co 0.78275 0.59272 0.17405 0.0
C478 C 0.73973 0.6097 0.16801 0.0
O479 O 0.73793 0.61446 0.18674 0.0
O480 O 0.75578 0.60087 0.16133 0.0
C481 C 0.72887 0.62317 0.24189 0.0
O482 O 0.7152 0.61182 0.23266 0.0
C483 C 0.80556 0.5983 0.13595 0.0
C484 C 0.82785 0.57314 0.13721 0.0
C485 C 0.82272 0.59046 0.12618 0.0
N486 N 0.80115 0.5864 0.15211 0.0
N487 N 0.81426 0.57112 0.15248 0.0
C488 C 0.79497 0.61807 0.13167 0.0
H489 H 0.80607 0.62993 0.12694 0.0
H490 H 0.78395 0.6158 0.11904 0.0
H491 H 0.78645 0.62336 0.1453 0.0
C492 C 0.79029 0.64135 0.20922 0.0
N493 N 0.7818 0.62397 0.20251 0.0
N494 N 0.79373 0.61553 0.18876 0.0
C495 C 0.81081 0.62702 0.18708 0.0
C496 C 0.80891 0.64383 0.19971 0.0
C497 C 0.78049 0.65546 0.22424 0.0
H498 H 0.78016 0.64796 0.23938 0.0
H499 H 0.76452 0.65856 0.21957 0.0
H500 H 0.78895 0.67003 0.22563 0.0
O501 O 0.76202 0.5831 0.21784 0.0
O502 O 0.78006 0.56856 0.19317 0.0
H503 H 0.83049 0.60565 0.17189 0.0
H504 H 0.84295 0.62858 0.18055 0.0
C505 C 0.82875 0.62232 0.1738 0.0
H506 H 0.82666 0.62963 0.15873 0.0
H507 H 0.81469 0.56001 0.16385 0.0
O508 O 0.74652 0.62516 0.23417 0.0
C509 C 0.77135 0.56772 0.2106 0.0
Co510 Co 0.8607 0.00794 0.05179 0.0
Co511 Co 0.84368 0.97999 0.08666 0.0
C512 C 0.85992 0.02299 0.09433 0.0
O513 O 0.86404 0.02572 0.07557 0.0
O514 O 0.85176 0.00641 0.10054 0.0
C515 C 0.88542 0.03518 0.02683 0.0
O516 O 0.8914 0.04343 0.04406 0.0
C517 C 0.85046 0.95551 0.12349 0.0
C518 C 0.82519 0.93335 0.12201 0.0
C519 C 0.84277 0.93807 0.13282 0.0
N520 N 0.83819 0.9605 0.10778 0.0
N521 N 0.82288 0.94744 0.10727 0.0
C522 C 0.87034 0.96591 0.12771 0.0
H523 H 0.8753 0.97499 0.11433 0.0
H524 H 0.88231 0.95462 0.13167 0.0
H525 H 0.86838 0.97638 0.14085 0.0
C526 C 0.89044 0.97435 0.04859 0.0
N527 N 0.87361 0.98272 0.05683 0.0
N528 N 0.86604 0.97029 0.07064 0.0
C529 C 0.87752 0.95319 0.07104 0.0
C530 C 0.89348 0.95536 0.05733 0.0
C531 C 0.90424 0.98526 0.03403 0.0
H532 H 0.89648 0.98676 0.01907 0.0
H533 H 0.90739 1.00078 0.03989 0.0
H534 H 0.91895 0.97721 0.03191 0.0
O535 O 0.83166 1.0039 0.0451 0.0
O536 O 0.81894 0.9829 0.06842 0.0
H537 H 0.85605 0.93269 0.08492 0.0
H538 H 0.87891 0.92068 0.07542 0.0
C539 C 0.87274 0.93444 0.0831 0.0
H540 H 0.88001 0.9355 0.0983 0.0
H541 H 0.81146 0.94748 0.09618 0.0
O542 O 0.87281 0.02049 0.02716 0.0
C543 C 0.81692 0.9935 0.0522 0.0
Co544 Co 0.30233 0.25886 0.11008 0.0
Co545 Co 0.33673 0.22988 0.09394 0.0
C546 C 0.34522 0.27302 0.10936 0.0
O547 O 0.32646 0.27621 0.11324 0.0
O548 O 0.35115 0.25617 0.10157 0.0
C549 C 0.27798 0.28574 0.13569 0.0
O550 O 0.29539 0.2922 0.14322 0.0
C551 C 0.37369 0.20529 0.10054 0.0
C552 C 0.37101 0.18207 0.07637 0.0
C553 C 0.38257 0.18743 0.09326 0.0
N554 N 0.35751 0.20989 0.08872 0.0
N555 N 0.35629 0.19619 0.07404 0.0
C556 C 0.37887 0.21656 0.1197 0.0
H557 H 0.36566 0.22575 0.12495 0.0
H558 H 0.38353 0.20582 0.13191 0.0
H559 H 0.3918 0.22701 0.1166 0.0
C560 C 0.29867 0.22628 0.14091 0.0
N561 N 0.30676 0.23383 0.12363 0.0
N562 N 0.32042 0.22095 0.1165 0.0
C563 C 0.3208 0.20438 0.12877 0.0
C564 C 0.30735 0.20747 0.14478 0.0
C565 C 0.28323 0.23711 0.15378 0.0
H566 H 0.26986 0.24121 0.14429 0.0
H567 H 0.29005 0.25133 0.15984 0.0
H568 H 0.27798 0.22752 0.16668 0.0
O569 O 0.29561 0.25432 0.08121 0.0
O570 O 0.31857 0.23261 0.06905 0.0
H571 H 0.33642 0.18307 0.10942 0.0
H572 H 0.32736 0.17242 0.13301 0.0
C573 C 0.33416 0.18613 0.12585 0.0
H574 H 0.34909 0.18885 0.13325 0.0
H575 H 0.34475 0.19586 0.06308 0.0
O576 O 0.27804 0.2723 0.12178 0.0
C577 C 0.30254 0.24346 0.06674 0.0
Co578 Co 0.30229 0.75587 0.40067 0.0
Co579 Co 0.3377 0.78218 0.41892 0.0
C580 C 0.34422 0.73911 0.40243 0.0
O581 O 0.32542 0.73688 0.39804 0.0
O582 O 0.35073 0.75549 0.41072 0.0
C583 C 0.27048 0.727 0.38861 0.0
O584 O 0.28028 0.71314 0.39924 0.0
C585 C 0.37524 0.80546 0.41237 0.0
C586 C 0.37474 0.82739 0.43785 0.0
C587 C 0.38523 0.8225 0.42013 0.0
N588 N 0.3595 0.80084 0.42475 0.0
N589 N 0.35956 0.81374 0.44019 0.0
C590 C 0.37888 0.79524 0.39229 0.0
H591 H 0.36519 0.78657 0.38744 0.0
H592 H 0.38292 0.80661 0.38043 0.0
H593 H 0.3918 0.78443 0.39387 0.0
C594 C 0.30123 0.78952 0.37117 0.0
N595 N 0.30891 0.78069 0.38799 0.0
N596 N 0.32259 0.79278 0.39629 0.0
C597 C 0.32343 0.81018 0.38527 0.0
C598 C 0.31007 0.80856 0.36892 0.0
C599 C 0.28676 0.77922 0.35684 0.0
H600 H 0.29063 0.76282 0.35554 0.0
H601 H 0.28727 0.78617 0.34143 0.0
H602 H 0.27103 0.78057 0.36294 0.0
O603 O 0.29424 0.76099 0.42917 0.0
O604 O 0.31889 0.77935 0.44334 0.0
H605 H 0.33699 0.82979 0.40774 0.0
H606 H 0.32777 0.84272 0.38527 0.0
C607 C 0.3354 0.82873 0.39098 0.0
H608 H 0.35072 0.82796 0.38391 0.0
H609 H 0.34856 0.81396 0.45169 0.0
O610 O 0.27764 0.74493 0.38734 0.0
C611 C 0.30155 0.77047 0.44442 0.0
Co612 Co 1.00471 0.45929 0.86095 0.0
Co613 Co 0.03103 0.42367 0.84323 0.0
C614 C 0.98749 0.41762 0.85855 0.0
O615 O 0.9854 0.43642 0.86292 0.0
O616 O 1.00402 0.41087 0.85073 0.0
C617 C 0.97588 0.49137 0.87222 0.0
O618 O 0.96216 0.48176 0.86124 0.0
C619 C 0.05411 0.3859 0.84953 0.0
C620 C 0.07626 0.38675 0.82421 0.0
C621 C 0.0712 0.37599 0.84172 0.0
N622 N 0.04964 0.40185 0.8374 0.0
N623 N 0.06268 0.402 0.82204 0.0
C624 C 0.04363 0.38189 0.86941 0.0
H625 H 0.03484 0.39545 0.87439 0.0
H626 H 0.05487 0.37765 0.88134 0.0
H627 H 0.03288 0.36898 0.86747 0.0
C628 C 0.03775 0.46005 0.89113 0.0
N629 N 0.02917 0.45238 0.87418 0.0
N630 N 0.04127 0.43848 0.86625 0.0
C631 C 0.0584 0.43742 0.87771 0.0
C632 C 0.05658 0.45092 0.89389 0.0
C633 C 0.02747 0.47498 0.905 0.0
H634 H 0.01103 0.47123 0.90636 0.0
H635 H 0.03438 0.47492 0.92043 0.0
H636 H 0.02889 0.49049 0.89842 0.0
O637 O 0.01058 0.46747 0.83272 0.0
O638 O 0.02893 0.44265 0.81886 0.0
H639 H 0.09088 0.4325 0.87864 0.0
H640 H 0.07567 0.40987 0.87973 0.0
C641 C 0.07691 0.42511 0.87258 0.0
H642 H 0.07841 0.42338 0.85586 0.0
H643 H 0.06301 0.41317 0.81072 0.0
O644 O 0.99368 0.48394 0.87404 0.0
C645 C 0.02032 0.4601 0.81766 0.0
Co646 Co 0.70918 0.75458 0.39992 0.0
Co647 Co 0.67361 0.72885 0.41879 0.0
C648 C 0.66748 0.77187 0.40193 0.0
O649 O 0.68627 0.77386 0.39733 0.0
O650 O 0.66086 0.75562 0.41041 0.0
C651 C 0.74103 0.78287 0.38614 0.0
O652 O 0.73114 0.79744 0.39567 0.0
C653 C 0.63591 0.70574 0.41268 0.0
C654 C 0.63631 0.68418 0.43848 0.0
C655 C 0.62586 0.68885 0.42068 0.0
N656 N 0.65166 0.71048 0.42499 0.0
N657 N 0.65154 0.6978 0.44062 0.0
C658 C 0.63235 0.7157 0.39245 0.0
H659 H 0.64604 0.72433 0.38753 0.0
H660 H 0.62838 0.70417 0.38072 0.0
H661 H 0.61941 0.72651 0.39383 0.0
C662 C 0.70955 0.72064 0.37083 0.0
N663 N 0.7021 0.72973 0.3876 0.0
N664 N 0.68844 0.71784 0.3962 0.0
C665 C 0.6874 0.70028 0.38545 0.0
C666 C 0.7006 0.70161 0.36896 0.0
C667 C 0.7239 0.73066 0.35616 0.0
H668 H 0.72018 0.74708 0.35476 0.0
H669 H 0.72307 0.72358 0.34083 0.0
H670 H 0.73971 0.72918 0.36201 0.0
O671 O 0.71739 0.74966 0.42841 0.0
O672 O 0.69262 0.73176 0.443 0.0
H673 H 0.67391 0.68109 0.40836 0.0
H674 H 0.68303 0.66775 0.38608 0.0
C675 C 0.67544 0.68185 0.39157 0.0
H676 H 0.66008 0.68249 0.38454 0.0
H677 H 0.66254 0.69769 0.45212 0.0
O678 O 0.73393 0.76487 0.38618 0.0
C679 C 0.71007 0.74045 0.44383 0.0
Co680 Co 0.50427 0.55216 0.36207 0.0
Co681 Co 0.479 0.58785 0.34295 0.0
C682 C 0.522 0.59364 0.35999 0.0
O683 O 0.52375 0.57487 0.36462 0.0
O684 O 0.50586 0.60044 0.35143 0.0
C685 C 0.53228 0.52005 0.37521 0.0
O686 O 0.54659 0.52949 0.36484 0.0
C687 C 0.45591 0.62565 0.34856 0.0
C688 C 0.43443 0.62488 0.32269 0.0
C689 C 0.43895 0.63551 0.34042 0.0
N690 N 0.46078 0.60982 0.33642 0.0
N691 N 0.44817 0.60975 0.32073 0.0
C692 C 0.4658 0.62948 0.36878 0.0
H693 H 0.47453 0.61591 0.37385 0.0
H694 H 0.45421 0.63349 0.38045 0.0
H695 H 0.47653 0.64246 0.36729 0.0
C696 C 0.47027 0.55239 0.39119 0.0
N697 N 0.47941 0.5595 0.37428 0.0
N698 N 0.46771 0.5733 0.36562 0.0
C699 C 0.45022 0.57477 0.3765 0.0
C700 C 0.45144 0.56175 0.39312 0.0
C701 C 0.48011 0.53798 0.4059 0.0
H702 H 0.49657 0.54157 0.40738 0.0
H703 H 0.47294 0.53883 0.42119 0.0
H704 H 0.47859 0.52221 0.40002 0.0
O705 O 0.49949 0.54383 0.33361 0.0
O706 O 0.48194 0.56869 0.31881 0.0
H707 H 0.43111 0.58847 0.35364 0.0
H708 H 0.41773 0.57956 0.37598 0.0
C709 C 0.43191 0.58696 0.37043 0.0
H710 H 0.43274 0.60227 0.37747 0.0
H711 H 0.44814 0.59863 0.30935 0.0
O712 O 0.51443 0.52751 0.37594 0.0
C713 C 0.49047 0.55117 0.3181 0.0
Co714 Co 0.20992 0.75595 0.61215 0.0
Co715 Co 0.1743 0.78186 0.59372 0.0
C716 C 0.16824 0.7386 0.60986 0.0
O717 O 0.18705 0.73663 0.61432 0.0
O718 O 0.16148 0.75498 0.60174 0.0
C719 C 0.24199 0.72744 0.62422 0.0
O720 O 0.23249 0.71362 0.61328 0.0
C721 C 0.13665 0.80518 0.59988 0.0
C722 C 0.13737 0.82685 0.57417 0.0
C723 C 0.12679 0.8222 0.59191 0.0
N724 N 0.15243 0.80036 0.58762 0.0
N725 N 0.15248 0.8131 0.57203 0.0
C726 C 0.13285 0.79514 0.62002 0.0
H727 H 0.14639 0.78627 0.62493 0.0
H728 H 0.12896 0.80663 0.6318 0.0
H729 H 0.11976 0.78453 0.6185 0.0
C730 C 0.21023 0.78942 0.64182 0.0
N731 N 0.20282 0.78059 0.62489 0.0
N732 N 0.18911 0.79259 0.61649 0.0
C733 C 0.18803 0.80997 0.62753 0.0
C734 C 0.20122 0.80839 0.64402 0.0
C735 C 0.22461 0.77917 0.6563 0.0
H736 H 0.24041 0.78076 0.65045 0.0
H737 H 0.22092 0.76272 0.65741 0.0
H738 H 0.22377 0.78597 0.67175 0.0
O739 O 0.2182 0.76128 0.58377 0.0
O740 O 0.19333 0.77921 0.56942 0.0
H741 H 0.17453 0.82946 0.60489 0.0
H742 H 0.18373 0.84251 0.6273 0.0
C743 C 0.17609 0.8285 0.62167 0.0
H744 H 0.16076 0.82782 0.62873 0.0
H745 H 0.16355 0.81317 0.56059 0.0
O746 O 0.23455 0.74525 0.62568 0.0
C747 C 0.21082 0.77062 0.56846 0.0
Co748 Co 1.00403 0.55188 0.65111 0.0
Co749 Co 0.03204 0.58666 0.66785 0.0
C750 C 0.98852 0.59435 0.6534 0.0
O751 O 0.98571 0.57558 0.64941 0.0
O752 O 1.00542 0.60062 0.6608 0.0
C753 C 0.97672 0.52747 0.62592 0.0
O754 O 0.96939 0.54476 0.61896 0.0
C755 C 0.05598 0.62402 0.66153 0.0
C756 C 0.07932 0.62158 0.68564 0.0
C757 C 0.07373 0.63313 0.66881 0.0
N758 N 0.05165 0.60773 0.67328 0.0
N759 N 0.06542 0.60665 0.68793 0.0
C760 C 0.04459 0.62909 0.6424 0.0
H761 H 0.05525 0.63392 0.63018 0.0
H762 H 0.03396 0.64187 0.64554 0.0
H763 H 0.03555 0.61581 0.63715 0.0
C764 C 0.03606 0.55009 0.61964 0.0
N765 N 0.02845 0.5576 0.63714 0.0
N766 N 0.04119 0.57115 0.6447 0.0
C767 C 0.05779 0.57201 0.63246 0.0
C768 C 0.05483 0.55901 0.61607 0.0
C769 C 0.02545 0.53474 0.60653 0.0
H770 H 0.02214 0.52091 0.61566 0.0
H771 H 0.01075 0.54117 0.60118 0.0
H772 H 0.03484 0.53033 0.59317 0.0
O773 O 0.01032 0.54376 0.67923 0.0
O774 O 0.02973 0.56804 0.69251 0.0
H775 H 0.07891 0.58709 0.65245 0.0
H776 H 0.08985 0.57846 0.62879 0.0
C777 C 0.07608 0.58519 0.63593 0.0
H778 H 0.07354 0.60028 0.62881 0.0
H779 H 0.06597 0.59507 0.69883 0.0
O780 O 0.99089 0.52768 0.6391 0.0
C781 C 0.02059 0.5509 0.69402 0.0
Co782 Co 0.00696 0.95918 0.65035 0.0
Co783 Co 0.97912 0.92448 0.66755 0.0
C784 C 0.02256 0.91673 0.65301 0.0
O785 O 0.02531 0.93548 0.64885 0.0
O786 O 1.00569 0.91048 0.66051 0.0
C787 C 0.03429 0.98314 0.62481 0.0
O788 O 0.04158 0.9657 0.61822 0.0
C789 C 0.95509 0.88707 0.66185 0.0
C790 C 0.93191 0.88991 0.68608 0.0
C791 C 0.93731 0.87815 0.66934 0.0
N792 N 0.95957 0.90346 0.67338 0.0
N793 N 0.94591 0.90477 0.68812 0.0
C794 C 0.96635 0.8817 0.64273 0.0
H795 H 0.9755 0.89485 0.6373 0.0
H796 H 0.95561 0.87685 0.6306 0.0
H797 H 0.97688 0.86885 0.64596 0.0
C798 C 0.97494 0.96039 0.61884 0.0
N799 N 0.98252 0.95323 0.63651 0.0
N800 N 0.96984 0.93972 0.64424 0.0
C801 C 0.95329 0.93855 0.63196 0.0
C802 C 0.95625 0.95127 0.61533 0.0
C803 C 0.98553 0.97556 0.6055 0.0
H804 H 0.98891 0.98949 0.61444 0.0
H805 H 1.0002 0.96903 0.60017 0.0
H806 H 0.9761 0.97984 0.59213 0.0
O807 O 1.00076 0.96762 0.67843 0.0
O808 O 0.98154 0.94333 0.69198 0.0
H809 H 0.93234 0.92344 0.65213 0.0
H810 H 0.92123 0.93193 0.62854 0.0
C811 C 0.93508 0.92529 0.63559 0.0
H812 H 0.93764 0.91021 0.62847 0.0
H813 H 0.94548 0.91648 0.69888 0.0
O814 O 0.02009 0.98322 0.63797 0.0
C815 C 0.9906 0.96053 0.69332 0.0
Co816 Co 0.6094 0.80109 0.75911 0.0
Co817 Co 0.59336 0.83595 0.7308 0.0
C818 C 0.60957 0.84343 0.77405 0.0
O819 O 0.61344 0.82464 0.77702 0.0
O820 O 0.60152 0.84957 0.75738 0.0
C821 C 0.63011 0.77272 0.7874 0.0
O822 O 0.63373 0.788 0.79982 0.0
C823 C 0.60025 0.87313 0.7067 0.0
C824 C 0.57543 0.87137 0.68404 0.0
C825 C 0.59271 0.88247 0.68919 0.0
N826 N 0.58819 0.85715 0.71131 0.0
N827 N 0.57315 0.85647 0.69795 0.0
C828 C 0.61977 0.87774 0.7176 0.0
H829 H 0.62491 0.86435 0.72656 0.0
H830 H 0.63186 0.88223 0.70664 0.0
H831 H 0.61721 0.89064 0.72824 0.0
C832 C 0.63997 0.79777 0.72648 0.0
N833 N 0.62271 0.80584 0.73408 0.0
N834 N 0.61558 0.81958 0.72131 0.0
C835 C 0.62778 0.81997 0.70468 0.0
C836 C 0.64377 0.80644 0.70764 0.0
C837 C 0.65286 0.78242 0.73741 0.0
H838 H 0.64402 0.76814 0.73933 0.0
H839 H 0.65674 0.78825 0.75281 0.0
H840 H 0.66707 0.77889 0.72894 0.0
O841 O 0.58027 0.79515 0.75507 0.0
O842 O 0.56822 0.8182 0.73344 0.0
H843 H 0.60839 0.83611 0.68377 0.0
H844 H 0.63161 0.82641 0.67269 0.0
C845 C 0.62483 0.83341 0.6865 0.0
H846 H 0.63267 0.84813 0.68909 0.0
H847 H 0.56192 0.84519 0.6977 0.0
O848 O 0.62059 0.77582 0.77085 0.0
C849 C 0.56578 0.80229 0.74437 0.0
Co850 Co 0.05258 0.15018 0.50401 0.0
Co851 Co 0.08759 0.16724 0.53163 0.0
C852 C 0.09493 0.15271 0.48811 0.0
O853 O 0.07614 0.14856 0.48547 0.0
O854 O 0.10128 0.16021 0.50492 0.0
C855 C 0.02811 0.12393 0.47778 0.0
O856 O 0.04544 0.11664 0.47084 0.0
C857 C 0.12525 0.16089 0.5551 0.0
C858 C 0.12304 0.18488 0.57855 0.0
C859 C 0.13452 0.16805 0.57281 0.0
N860 N 0.10894 0.17271 0.55095 0.0
N861 N 0.10801 0.1873 0.56478 0.0
C862 C 0.13018 0.14179 0.54363 0.0
H863 H 0.1168 0.13659 0.53469 0.0
H864 H 0.13507 0.12952 0.55421 0.0
H865 H 0.14291 0.14491 0.53293 0.0
C866 C 0.0513 0.11884 0.53618 0.0
N867 N 0.05864 0.13634 0.52842 0.0
N868 N 0.07231 0.14401 0.54098 0.0
C869 C 0.07345 0.13181 0.55758 0.0
C870 C 0.06051 0.11534 0.5548 0.0
C871 C 0.03577 0.10565 0.52592 0.0
H872 H 0.02201 0.11482 0.52241 0.0
H873 H 0.04216 0.09983 0.51139 0.0
H874 H 0.03122 0.09257 0.53562 0.0
O875 O 0.04433 0.17827 0.51033 0.0
O876 O 0.06871 0.19177 0.52949 0.0
H877 H 0.08862 0.15195 0.57847 0.0
H878 H 0.08018 0.12833 0.58958 0.0
C879 C 0.08678 0.13542 0.57573 0.0
H880 H 0.10189 0.12833 0.57312 0.0
H881 H 0.09644 0.1982 0.56548 0.0
O882 O 0.02831 0.13784 0.49122 0.0
C883 C 0.05145 0.19313 0.5205 0.0
Co884 Co 0.40074 0.70851 0.7569 0.0
Co885 Co 0.41886 0.67345 0.73016 0.0
C886 C 0.40178 0.66666 0.77317 0.0
O887 O 0.39722 0.68539 0.77545 0.0
O888 O 0.41039 0.66029 0.75688 0.0
C889 C 0.3883 0.7404 0.78567 0.0
O890 O 0.39773 0.73018 0.80008 0.0
C891 C 0.41259 0.63615 0.70647 0.0
C892 C 0.43854 0.63681 0.68505 0.0
C893 C 0.42071 0.62631 0.68952 0.0
N894 N 0.42488 0.65184 0.71144 0.0
N895 N 0.44059 0.65186 0.69884 0.0
C896 C 0.39233 0.63242 0.71633 0.0
H897 H 0.38734 0.64598 0.72511 0.0
H898 H 0.38064 0.62854 0.70472 0.0
H899 H 0.39372 0.61937 0.72699 0.0
C900 C 0.37168 0.71046 0.72282 0.0
N901 N 0.3884 0.70254 0.73166 0.0
N902 N 0.39653 0.68881 0.71952 0.0
C903 C 0.38557 0.68821 0.70207 0.0
C904 C 0.36938 0.70175 0.70371 0.0
C905 C 0.35736 0.72488 0.73322 0.0
H906 H 0.35599 0.72085 0.74958 0.0
H907 H 0.34195 0.72451 0.72624 0.0
H908 H 0.36353 0.74057 0.73204 0.0
O909 O 0.42973 0.71555 0.7533 0.0
O910 O 0.44331 0.69209 0.73302 0.0
H911 H 0.38561 0.68394 0.66951 0.0
H912 H 0.3839 0.66101 0.68422 0.0
C913 C 0.39118 0.67622 0.6835 0.0
H914 H 0.40794 0.67439 0.68248 0.0
H915 H 0.45212 0.66284 0.69894 0.0
O916 O 0.38783 0.7334 0.76764 0.0
C917 C 0.44482 0.70853 0.74333 0.0
Co918 Co 0.96057 0.36094 0.5044 0.0
Co919 Co 0.92549 0.34333 0.53164 0.0
C920 C 0.91851 0.35775 0.48794 0.0
O921 O 0.93729 0.36211 0.48549 0.0
O922 O 0.91202 0.35025 0.50472 0.0
C923 C 0.98743 0.38081 0.47463 0.0
O924 O 0.97259 0.37918 0.46128 0.0
C925 C 0.88769 0.34904 0.55515 0.0
C926 C 0.89022 0.32486 0.5784 0.0
C927 C 0.87854 0.34163 0.57284 0.0
N928 N 0.90412 0.33744 0.55086 0.0
N929 N 0.90525 0.32275 0.56457 0.0
C930 C 0.88252 0.36816 0.54381 0.0
H931 H 0.89578 0.37349 0.53476 0.0
H932 H 0.87763 0.38034 0.55448 0.0
H933 H 0.86972 0.36498 0.53321 0.0
C934 C 0.96046 0.39253 0.53596 0.0
N935 N 0.95373 0.37468 0.52853 0.0
N936 N 0.94024 0.36678 0.54112 0.0
C937 C 0.93873 0.37914 0.55757 0.0
C938 C 0.95117 0.39597 0.55456 0.0
C939 C 0.97547 0.40603 0.52531 0.0
H940 H 0.99037 0.39807 0.52433 0.0
H941 H 0.97013 0.40906 0.50955 0.0
H942 H 0.97773 0.42066 0.53345 0.0
O943 O 0.96926 0.33299 0.51078 0.0
O944 O 0.94477 0.31912 0.52957 0.0
H945 H 0.92385 0.35877 0.57849 0.0
H946 H 0.93229 0.3824 0.58961 0.0
C947 C 0.92558 0.37533 0.57581 0.0
H948 H 0.91042 0.38237 0.57339 0.0
H949 H 0.91696 0.31197 0.56516 0.0
O950 O 0.9849 0.37417 0.49263 0.0
C951 C 0.96217 0.318 0.52081 0.0
Co952 Co 0.6116 0.20844 0.75387 0.0
Co953 Co 0.59387 0.17382 0.7815 0.0
C954 C 0.61023 0.16634 0.73831 0.0
O955 O 0.61474 0.18503 0.73566 0.0
O956 O 0.6019 0.16021 0.75485 0.0
C957 C 0.62379 0.23983 0.72439 0.0
O958 O 0.61415 0.22943 0.71026 0.0
C959 C 0.59952 0.13638 0.80539 0.0
C960 C 0.57443 0.1385 0.82773 0.0
C961 C 0.5916 0.12712 0.82278 0.0
N962 N 0.58779 0.15259 0.80067 0.0
N963 N 0.57257 0.15348 0.81383 0.0
C964 C 0.61914 0.13152 0.79475 0.0
H965 H 0.62456 0.14484 0.78585 0.0
H966 H 0.63102 0.12688 0.80586 0.0
H967 H 0.61656 0.11867 0.78407 0.0
C968 C 0.64197 0.20989 0.78675 0.0
N969 N 0.62444 0.2027 0.77892 0.0
N970 N 0.61654 0.18922 0.7915 0.0
C971 C 0.62847 0.18822 0.8083 0.0
C972 C 0.64509 0.201 0.8056 0.0
C973 C 0.6557 0.22466 0.77607 0.0
H974 H 0.64794 0.23965 0.77518 0.0
H975 H 0.65861 0.21933 0.76028 0.0
H976 H 0.67039 0.22668 0.78419 0.0
O977 O 0.58269 0.21564 0.75774 0.0
O978 O 0.56944 0.19253 0.77863 0.0
H979 H 0.60798 0.17293 0.82881 0.0
H980 H 0.63118 0.18205 0.84042 0.0
C981 C 0.62457 0.17508 0.82651 0.0
H982 H 0.63205 0.1601 0.82433 0.0
H983 H 0.56156 0.16497 0.814 0.0
O984 O 0.62451 0.23306 0.7425 0.0
C985 C 0.56776 0.20878 0.76803 0.0
Co986 Co 0.45947 0.14843 0.50546 0.0
Co987 Co 0.42409 0.16777 0.47987 0.0
C988 C 0.41787 0.15091 0.52289 0.0
O989 O 0.4366 0.14609 0.52482 0.0
O990 O 0.4113 0.15948 0.50667 0.0
C991 C 0.49111 0.13399 0.53364 0.0
O992 O 0.48116 0.14315 0.54841 0.0
C993 C 0.38645 0.16199 0.45661 0.0
C994 C 0.38707 0.18794 0.43524 0.0
C995 C 0.37656 0.17012 0.43969 0.0
N996 N 0.40219 0.17423 0.46156 0.0
N997 N 0.40218 0.18997 0.44901 0.0
C998 C 0.38277 0.14169 0.46638 0.0
H999 H 0.3963 0.13675 0.47523 0.0
H1000 H 0.37902 0.13004 0.45471 0.0
H1001 H 0.36962 0.14297 0.47695 0.0
C1002 C 0.45961 0.11954 0.47136 0.0
N1003 N 0.45222 0.13626 0.48059 0.0
N1004 N 0.43864 0.14504 0.46874 0.0
C1005 C 0.43758 0.13444 0.45108 0.0
C1006 C 0.45069 0.11788 0.45231 0.0
C1007 C 0.47402 0.10481 0.4812 0.0
H1008 H 0.4898 0.11076 0.47982 0.0
H1009 H 0.47028 0.10316 0.4976 0.0
H1010 H 0.47328 0.08959 0.47389 0.0
O1011 O 0.468 0.17681 0.50056 0.0
O1012 O 0.4434 0.19177 0.48275 0.0
H1013 H 0.42432 0.15761 0.43205 0.0
H1014 H 0.43348 0.13547 0.41852 0.0
C1015 C 0.42579 0.14082 0.43262 0.0
H1016 H 0.41042 0.13382 0.43305 0.0
H1017 H 0.41321 0.20143 0.44906 0.0
O1018 O 0.48409 0.13447 0.51562 0.0
C1019 C 0.46089 0.19234 0.49139 0.0
Co1020 Co 0.4024 0.30112 0.75275 0.0
Co1021 Co 0.41859 0.33559 0.78149 0.0
C1022 C 0.40308 0.34387 0.73833 0.0
O1023 O 0.39917 0.32513 0.73525 0.0
O1024 O 0.4109 0.34988 0.75514 0.0
C1025 C 0.37703 0.27649 0.72587 0.0
O1026 O 0.36935 0.29376 0.71925 0.0
C1027 C 0.41228 0.37261 0.80597 0.0
C1028 C 0.43672 0.36994 0.82894 0.0
C1029 C 0.41979 0.38153 0.82371 0.0
N1030 N 0.424 0.35639 0.80132 0.0
N1031 N 0.43885 0.35517 0.81488 0.0
C1032 C 0.39302 0.37783 0.79485 0.0
H1033 H 0.38767 0.36465 0.78571 0.0
H1034 H 0.3809 0.38252 0.80569 0.0
H1035 H 0.39606 0.39074 0.78436 0.0
C1036 C 0.3716 0.29761 0.78544 0.0
N1037 N 0.38888 0.30565 0.77781 0.0
N1038 N 0.39604 0.31935 0.7906 0.0
C1039 C 0.38381 0.31981 0.80721 0.0
C1040 C 0.36777 0.30636 0.80424 0.0
C1041 C 0.35869 0.28219 0.77469 0.0
H1042 H 0.36816 0.26877 0.77068 0.0
H1043 H 0.35269 0.28893 0.7604 0.0
H1044 H 0.34574 0.27704 0.78429 0.0
O1045 O 0.43134 0.29447 0.75717 0.0
O1046 O 0.44349 0.31751 0.77875 0.0
H1047 H 0.40324 0.33561 0.82832 0.0
H1048 H 0.3797 0.32656 0.83915 0.0
C1049 C 0.38678 0.33328 0.82536 0.0
H1050 H 0.37931 0.34816 0.82257 0.0
H1051 H 0.44979 0.34361 0.81514 0.0
O1052 O 0.39083 0.27674 0.73945 0.0
C1053 C 0.44583 0.30148 0.76796 0.0
Co1054 Co 0.55189 0.36032 0.50715 0.0
Co1055 Co 0.5868 0.34237 0.47994 0.0
C1056 C 0.59419 0.35827 0.52305 0.0
O1057 O 0.57543 0.36263 0.52564 0.0
O1058 O 0.60043 0.35019 0.50647 0.0
C1059 C 0.5264 0.38488 0.5343 0.0
O1060 O 0.54332 0.39049 0.54345 0.0
C1061 C 0.62394 0.349 0.45593 0.0
C1062 C 0.62288 0.32369 0.43384 0.0
C1063 C 0.63356 0.34131 0.43865 0.0
N1064 N 0.60821 0.3367 0.46077 0.0
N1065 N 0.60795 0.32135 0.44775 0.0
C1066 C 0.62793 0.36895 0.46628 0.0
H1067 H 0.61445 0.37382 0.47527 0.0
H1068 H 0.63183 0.38088 0.45494 0.0
H1069 H 0.64104 0.36716 0.47682 0.0
C1070 C 0.55016 0.39029 0.47384 0.0
N1071 N 0.55793 0.37334 0.48234 0.0
N1072 N 0.57144 0.36518 0.46995 0.0
C1073 C 0.57208 0.37643 0.45269 0.0
C1074 C 0.55881 0.3928 0.45472 0.0
C1075 C 0.53593 0.40451 0.48463 0.0
H1076 H 0.54119 0.40672 0.50053 0.0
H1077 H 0.53512 0.4196 0.47708 0.0
H1078 H 0.52046 0.39766 0.48509 0.0
O1079 O 0.54387 0.33196 0.50168 0.0
O1080 O 0.56809 0.31786 0.48271 0.0
H1081 H 0.57597 0.37685 0.42008 0.0
H1082 H 0.59913 0.37793 0.43452 0.0
C1083 C 0.58377 0.37093 0.43388 0.0
H1084 H 0.58528 0.35418 0.43257 0.0
H1085 H 0.59689 0.30991 0.44768 0.0
O1086 O 0.52725 0.37276 0.51924 0.0
C1087 C 0.5509 0.31679 0.49188 0.0
Co1088 Co 0.75651 0.60973 0.80191 0.0
Co1089 Co 0.72995 0.59179 0.83727 0.0
C1090 C 0.77318 0.60796 0.84384 0.0
O1091 O 0.7755 0.61231 0.82505 0.0
O1092 O 0.75671 0.59979 0.85033 0.0
C1093 C 0.7857 0.62351 0.77084 0.0
O1094 O 0.80029 0.61502 0.78163 0.0
C1095 C 0.70633 0.59852 0.87459 0.0
C1096 C 0.68397 0.57342 0.87357 0.0
C1097 C 0.6889 0.59106 0.88416 0.0
N1098 N 0.71109 0.5861 0.85894 0.0
N1099 N 0.69793 0.57087 0.85872 0.0
C1100 C 0.71683 0.61841 0.87848 0.0
H1101 H 0.72587 0.62315 0.865 0.0
H1102 H 0.70559 0.63045 0.88234 0.0
H1103 H 0.72736 0.6166 0.8916 0.0
C1104 C 0.72324 0.63963 0.8008 0.0
N1105 N 0.73179 0.62264 0.80843 0.0
N1106 N 0.7196 0.61457 0.82217 0.0
C1107 C 0.70242 0.62597 0.82314 0.0
C1108 C 0.70433 0.64227 0.80981 0.0
C1109 C 0.73365 0.65373 0.78619 0.0
H1110 H 0.75001 0.65516 0.79023 0.0
H1111 H 0.72661 0.6691 0.78628 0.0
H1112 H 0.73254 0.64731 0.77059 0.0
O1113 O 0.75121 0.58129 0.79391 0.0
O1114 O 0.73262 0.5673 0.81848 0.0
H1115 H 0.66989 0.62675 0.82763 0.0
H1116 H 0.68475 0.62799 0.85046 0.0
C1117 C 0.68378 0.62077 0.83523 0.0
H1118 H 0.68233 0.60406 0.83696 0.0
H1119 H 0.69772 0.55942 0.84768 0.0
O1120 O 0.76742 0.6229 0.77721 0.0
C1121 C 0.74157 0.56614 0.80119 0.0
Co1122 Co 0.86026 1.00004 0.45855 0.0
Co1123 Co 0.8447 0.03073 0.42541 0.0
C1124 C 0.85847 0.98729 0.41544 0.0
O1125 O 0.86234 0.98306 0.43398 0.0
O1126 O 0.8515 1.00473 0.41026 0.0
C1127 C 0.88523 0.97197 0.4825 0.0
O1128 O 0.89282 0.96555 0.46511 0.0
C1129 C 0.85153 0.0558 0.38888 0.0
C1130 C 0.8279 0.07954 0.3921 0.0
C1131 C 0.84447 0.07384 0.38021 0.0
N1132 N 0.83987 0.05135 0.4052 0.0
N1133 N 0.82553 0.06541 0.40679 0.0
C1134 C 0.87035 0.04414 0.38329 0.0
H1135 H 0.87559 0.03468 0.39629 0.0
H1136 H 0.88275 0.05465 0.37858 0.0
H1137 H 0.86684 0.03393 0.37029 0.0
C1138 C 0.89225 0.03159 0.46274 0.0
N1139 N 0.87465 0.02479 0.45466 0.0
N1140 N 0.86765 0.03838 0.44164 0.0
C1141 C 0.88034 0.05463 0.44167 0.0
C1142 C 0.89647 0.05063 0.45473 0.0
C1143 C 0.905 0.01993 0.47764 0.0
H1144 H 0.89558 0.0158 0.49106 0.0
H1145 H 0.91045 0.00568 0.47037 0.0
H1146 H 0.91832 0.02892 0.48293 0.0
O1147 O 0.83161 1.00536 0.46572 0.0
O1148 O 0.81987 0.02817 0.44365 0.0
H1149 H 0.86131 0.07691 0.42703 0.0
H1150 H 0.88537 0.08665 0.43592 0.0
C1151 C 0.8777 0.07334 0.4289 0.0
H1152 H 0.88473 0.07083 0.41376 0.0
H1153 H 0.81472 0.06588 0.41847 0.0
O1154 O 0.87163 0.98575 0.48248 0.0
C1155 C 0.81739 0.01687 0.45931 0.0
Co1156 Co 0.25693 0.89951 0.80349 0.0
Co1157 Co 0.28301 0.91825 0.83879 0.0
C1158 C 0.23986 0.9018 0.84526 0.0
O1159 O 0.23775 0.89721 0.8265 0.0
O1160 O 0.25622 0.91013 0.85179 0.0
C1161 C 0.22852 0.88734 0.77128 0.0
O1162 O 0.21459 0.89838 0.78052 0.0
C1163 C 0.30667 0.9123 0.87622 0.0
C1164 C 0.32826 0.93807 0.87525 0.0
C1165 C 0.32378 0.92034 0.88589 0.0
N1166 N 0.30165 0.92452 0.86048 0.0
N1167 N 0.31435 0.94014 0.86028 0.0
C1168 C 0.29671 0.89214 0.88013 0.0
H1169 H 0.28773 0.88719 0.86669 0.0
H1170 H 0.30828 0.8804 0.88392 0.0
H1171 H 0.28619 0.89365 0.8933 0.0
C1172 C 0.29062 0.87001 0.80313 0.0
N1173 N 0.28173 0.88695 0.81047 0.0
N1174 N 0.29378 0.89549 0.82403 0.0
C1175 C 0.31123 0.88454 0.82509 0.0
C1176 C 0.30966 0.86796 0.81205 0.0
C1177 C 0.28038 0.85541 0.78888 0.0
H1178 H 0.28188 0.86118 0.77306 0.0
H1179 H 0.26393 0.85424 0.79265 0.0
H1180 H 0.2873 0.84001 0.78977 0.0
O1181 O 0.26208 0.92789 0.79506 0.0
O1182 O 0.2802 0.9424 0.81968 0.0
H1183 H 0.33073 0.90735 0.83829 0.0
H1184 H 0.34384 0.88497 0.8291 0.0
C1185 C 0.32985 0.89056 0.83683 0.0
H1186 H 0.32934 0.88357 0.85218 0.0
H1187 H 0.31427 0.95156 0.84921 0.0
O1188 O 0.24625 0.88585 0.77893 0.0
C1189 C 0.27147 0.94324 0.80227 0.0
Co1190 Co 0.15142 0.50822 0.45896 0.0
Co1191 Co 0.16888 0.48048 0.42422 0.0
C1192 C 0.15285 0.52363 0.41665 0.0
O1193 O 0.14841 0.5263 0.43535 0.0
O1194 O 0.16113 0.50708 0.41054 0.0
C1195 C 0.12669 0.53534 0.48403 0.0
O1196 O 0.12096 0.54395 0.46689 0.0
C1197 C 0.16247 0.45698 0.38675 0.0
C1198 C 0.18733 0.43435 0.38816 0.0
C1199 C 0.17008 0.43968 0.37711 0.0
N1200 N 0.17448 0.46134 0.40283 0.0
N1201 N 0.18956 0.448 0.40332 0.0
C1202 C 0.14283 0.46781 0.38238 0.0
H1203 H 0.13767 0.47653 0.39591 0.0
H1204 H 0.13081 0.45683 0.37779 0.0
H1205 H 0.14525 0.47864 0.36962 0.0
C1206 C 0.12098 0.47517 0.46083 0.0
N1207 N 0.13836 0.48319 0.45341 0.0
N1208 N 0.14615 0.47079 0.43971 0.0
C1209 C 0.13428 0.454 0.43861 0.0
C1210 C 0.11781 0.45638 0.45168 0.0
C1211 C 0.10674 0.4864 0.4747 0.0
H1212 H 0.10445 0.50208 0.46883 0.0
H1213 H 0.09166 0.47887 0.47589 0.0
H1214 H 0.11367 0.4875 0.49008 0.0
O1215 O 0.18034 0.50389 0.46602 0.0
O1216 O 0.19338 0.48298 0.44282 0.0
H1217 H 0.13231 0.42164 0.4335 0.0
H1218 H 0.13221 0.43694 0.4109 0.0
C1219 C 0.139 0.4354 0.42628 0.0
H1220 H 0.1557 0.43332 0.42489 0.0
H1221 H 0.20075 0.44756 0.41464 0.0
O1222 O 0.13912 0.5205 0.48358 0.0
C1223 C 0.19517 0.49345 0.45913 0.0
Co1224 Co 0.75547 0.39848 0.7092 0.0
Co1225 Co 0.73005 0.41746 0.67351 0.0
C1226 C 0.77315 0.40067 0.66763 0.0
O1227 O 0.77495 0.39608 0.68642 0.0
O1228 O 0.75693 0.4091 0.66085 0.0
C1229 C 0.78376 0.38455 0.74083 0.0
O1230 O 0.79828 0.39412 0.73089 0.0
C1231 C 0.70679 0.41171 0.63582 0.0
C1232 C 0.68541 0.43768 0.63653 0.0
C1233 C 0.68983 0.41988 0.62597 0.0
N1234 N 0.71175 0.42391 0.65158 0.0
N1235 N 0.6992 0.43965 0.65162 0.0
C1236 C 0.7166 0.39145 0.63204 0.0
H1237 H 0.72544 0.38645 0.64556 0.0
H1238 H 0.70495 0.3798 0.62821 0.0
H1239 H 0.72721 0.39282 0.61894 0.0
C1240 C 0.72146 0.3694 0.70923 0.0
N1241 N 0.73064 0.38618 0.7019 0.0
N1242 N 0.71887 0.39479 0.68813 0.0
C1243 C 0.70131 0.38401 0.68689 0.0
C1244 C 0.70253 0.36751 0.70006 0.0
C1245 C 0.73127 0.35481 0.72379 0.0
H1246 H 0.7477 0.35317 0.72013 0.0
H1247 H 0.72399 0.33957 0.72317 0.0
H1248 H 0.72984 0.3609 0.7395 0.0
O1249 O 0.7505 0.42692 0.71758 0.0
O1250 O 0.73288 0.44159 0.69268 0.0
H1251 H 0.66877 0.38472 0.68242 0.0
H1252 H 0.68357 0.38305 0.65956 0.0
C1253 C 0.68292 0.39015 0.67486 0.0
H1254 H 0.6822 0.40693 0.67329 0.0
H1255 H 0.69926 0.45108 0.66268 0.0
O1256 O 0.7657 0.3846 0.73384 0.0
C1257 C 0.74138 0.44237 0.71022 0.0
Co1258 Co 0.65216 1.00231 0.55253 0.0
Co1259 Co 0.66938 0.03031 0.58719 0.0
C1260 C 0.65318 0.98727 0.59499 0.0
O1261 O 0.64888 0.98449 0.57628 0.0
O1262 O 0.6614 1.00385 0.60108 0.0
C1263 C 0.6283 0.97457 0.5272 0.0
O1264 O 0.62295 0.96552 0.54424 0.0
C1265 C 0.6627 0.0546 0.62415 0.0
C1266 C 0.68808 0.07664 0.62282 0.0
C1267 C 0.67051 0.07188 0.63364 0.0
N1268 N 0.67491 0.04971 0.60836 0.0
N1269 N 0.69029 0.0627 0.60793 0.0
C1270 C 0.64279 0.04424 0.62835 0.0
H1271 H 0.63778 0.03527 0.61493 0.0
H1272 H 0.63088 0.05555 0.63241 0.0
H1273 H 0.64474 0.03368 0.64142 0.0
C1274 C 0.62227 0.03575 0.54959 0.0
N1275 N 0.63924 0.02749 0.55765 0.0
N1276 N 0.64693 0.03999 0.57131 0.0
C1277 C 0.63541 0.05707 0.57176 0.0
C1278 C 0.61928 0.05481 0.55825 0.0
C1279 C 0.60829 0.02465 0.53537 0.0
H1280 H 0.61543 0.02389 0.52005 0.0
H1281 H 0.60603 0.00886 0.54091 0.0
H1282 H 0.59319 0.03215 0.53413 0.0
O1283 O 0.68117 0.00634 0.5458 0.0
O1284 O 0.69409 0.02745 0.56888 0.0
H1285 H 0.65705 0.07756 0.58541 0.0
H1286 H 0.63416 0.08961 0.57599 0.0
C1287 C 0.64033 0.07586 0.5837 0.0
H1288 H 0.63318 0.07488 0.59896 0.0
H1289 H 0.70169 0.0627 0.59682 0.0
O1290 O 0.64014 0.98988 0.52782 0.0
C1291 C 0.69598 0.01674 0.55273 0.0
Co1292 Co 0.25446 0.1096 0.71002 0.0
Co1293 Co 0.28218 0.0927 0.67505 0.0
C1294 C 0.23866 0.10729 0.66763 0.0
O1295 O 0.23599 0.11125 0.68644 0.0
O1296 O 0.25552 0.09991 0.6612 0.0
C1297 C 0.2278 0.13538 0.73461 0.0
O1298 O 0.22064 0.14264 0.71737 0.0
C1299 C 0.30629 0.09865 0.63765 0.0
C1300 C 0.32938 0.07433 0.64036 0.0
C1301 C 0.32407 0.09118 0.62871 0.0
N1302 N 0.30172 0.087 0.65395 0.0
N1303 N 0.31533 0.07222 0.65518 0.0
C1304 C 0.29507 0.11782 0.63238 0.0
H1305 H 0.28587 0.12316 0.64554 0.0
H1306 H 0.30586 0.12997 0.62767 0.0
H1307 H 0.28461 0.11472 0.61946 0.0
C1308 C 0.2865 0.14107 0.71136 0.0
N1309 N 0.27888 0.12348 0.70407 0.0
N1310 N 0.29152 0.11587 0.69044 0.0
C1311 C 0.30806 0.12817 0.68932 0.0
C1312 C 0.30514 0.14467 0.70219 0.0
C1313 C 0.27598 0.15432 0.72667 0.0
H1314 H 0.27256 0.14527 0.74053 0.0
H1315 H 0.26136 0.15982 0.72018 0.0
H1316 H 0.28549 0.16759 0.73107 0.0
O1317 O 0.26068 0.08151 0.71821 0.0
O1318 O 0.2798 0.06809 0.69377 0.0
H1319 H 0.32903 0.10816 0.67401 0.0
H1320 H 0.3401 0.13167 0.68274 0.0
C1321 C 0.32627 0.12467 0.67601 0.0
H1322 H 0.32372 0.13193 0.661 0.0
H1323 H 0.31569 0.06137 0.66682 0.0
O1324 O 0.24156 0.12177 0.73429 0.0
C1325 C 0.2708 0.06665 0.711 0.0
Co1326 Co 0.36008 0.50748 0.55241 0.0
Co1327 Co 0.34314 0.47954 0.58721 0.0
C1328 C 0.35936 0.52281 0.59459 0.0
O1329 O 0.36359 0.52561 0.57584 0.0
O1330 O 0.35117 0.5062 0.60073 0.0
C1331 C 0.37399 0.53719 0.52163 0.0
O1332 O 0.3674 0.55199 0.53339 0.0
C1333 C 0.34956 0.45572 0.62463 0.0
C1334 C 0.32479 0.43303 0.62275 0.0
C1335 C 0.34198 0.43823 0.63397 0.0
N1336 N 0.33761 0.46027 0.60853 0.0
N1337 N 0.32259 0.44689 0.60779 0.0
C1338 C 0.36906 0.46663 0.62932 0.0
H1339 H 0.37428 0.47553 0.61593 0.0
H1340 H 0.38112 0.45569 0.63393 0.0
H1341 H 0.36641 0.47731 0.64216 0.0
C1342 C 0.39075 0.47495 0.5504 0.0
N1343 N 0.3732 0.48252 0.55784 0.0
N1344 N 0.36567 0.46983 0.57142 0.0
C1345 C 0.37788 0.45322 0.57226 0.0
C1346 C 0.39428 0.45617 0.55926 0.0
C1347 C 0.40418 0.48588 0.53552 0.0
H1348 H 0.39624 0.48679 0.52063 0.0
H1349 H 0.40698 0.50165 0.54093 0.0
H1350 H 0.41894 0.47793 0.53326 0.0
O1351 O 0.33107 0.50349 0.54579 0.0
O1352 O 0.31838 0.48225 0.5689 0.0
H1353 H 0.35798 0.43242 0.58793 0.0
H1354 H 0.38128 0.42119 0.57856 0.0
C1355 C 0.37449 0.43501 0.58555 0.0
H1356 H 0.3821 0.43742 0.60042 0.0
H1357 H 0.31147 0.44656 0.5964 0.0
O1358 O 0.37237 0.51882 0.52746 0.0
C1359 C 0.31635 0.493 0.55279 0.0
Co1360 Co 0.80159 0.75606 0.61122 0.0
Co1361 Co 0.83699 0.72937 0.59331 0.0
C1362 C 0.84377 0.77248 0.60921 0.0
O1363 O 0.82496 0.7748 0.61351 0.0
O1364 O 0.85029 0.75598 0.60119 0.0
C1365 C 0.77639 0.78267 0.63649 0.0
O1366 O 0.79349 0.79138 0.64222 0.0
C1367 C 0.87438 0.70568 0.59981 0.0
C1368 C 0.87342 0.68368 0.57441 0.0
C1369 C 0.88409 0.68848 0.59204 0.0
N1370 N 0.8586 0.71045 0.58753 0.0
N1371 N 0.85841 0.6975 0.57213 0.0
C1372 C 0.87832 0.71598 0.61979 0.0
H1373 H 0.86479 0.72487 0.6247 0.0
H1374 H 0.88232 0.70463 0.63169 0.0
H1375 H 0.89137 0.72659 0.61802 0.0
C1376 C 0.80006 0.7225 0.64095 0.0
N1377 N 0.80789 0.73125 0.62414 0.0
N1378 N 0.82168 0.71913 0.61604 0.0
C1379 C 0.82251 0.70183 0.62721 0.0
C1380 C 0.80905 0.70355 0.64344 0.0
C1381 C 0.78538 0.73286 0.65503 0.0
H1382 H 0.77018 0.7337 0.64763 0.0
H1383 H 0.79067 0.74862 0.658 0.0
H1384 H 0.78395 0.72478 0.6698 0.0
O1385 O 0.79364 0.75063 0.58279 0.0
O1386 O 0.81828 0.73211 0.5688 0.0
H1387 H 0.83617 0.68196 0.60501 0.0
H1388 H 0.82696 0.6693 0.62763 0.0
C1389 C 0.83455 0.68324 0.62176 0.0
H1390 H 0.84985 0.68412 0.62885 0.0
H1391 H 0.84733 0.69739 0.5607 0.0
O1392 O 0.77694 0.76798 0.6239 0.0
C1393 C 0.80096 0.74102 0.56764 0.0
Co1394 Co 0.80191 0.25297 0.90233 0.0
Co1395 Co 0.8369 0.28103 0.91876 0.0
C1396 C 0.84444 0.23786 0.90278 0.0
O1397 O 0.82563 0.23509 0.89884 0.0
O1398 O 0.8507 0.2545 0.91075 0.0
C1399 C 0.7763 0.22549 0.8785 0.0
O1400 O 0.79332 0.21676 0.87253 0.0
C1401 C 0.87378 0.30522 0.91135 0.0
C1402 C 0.87275 0.32766 0.93637 0.0
C1403 C 0.88336 0.32263 0.91876 0.0
N1404 N 0.85814 0.30051 0.92381 0.0
N1405 N 0.85788 0.31375 0.93897 0.0
C1406 C 0.87771 0.29459 0.89154 0.0
H1407 H 0.86415 0.28566 0.88678 0.0
H1408 H 0.88171 0.30573 0.87945 0.0
H1409 H 0.89073 0.28396 0.89347 0.0
C1410 C 0.79845 0.28627 0.87231 0.0
N1411 N 0.80684 0.27806 0.88914 0.0
N1412 N 0.82067 0.29058 0.89651 0.0
C1413 C 0.82092 0.30761 0.88492 0.0
C1414 C 0.80708 0.3053 0.86908 0.0
C1415 C 0.7839 0.27516 0.85869 0.0
H1416 H 0.76881 0.27412 0.8663 0.0
H1417 H 0.78958 0.25947 0.85607 0.0
H1418 H 0.78208 0.28278 0.84373 0.0
O1419 O 0.79554 0.25724 0.93137 0.0
O1420 O 0.81892 0.27838 0.94373 0.0
H1421 H 0.83489 0.32825 0.90617 0.0
H1422 H 0.82525 0.34012 0.88331 0.0
C1423 C 0.83299 0.3264 0.88951 0.0
H1424 H 0.84818 0.32529 0.8822 0.0
H1425 H 0.8469 0.31393 0.95049 0.0
O1426 O 0.77705 0.24048 0.89072 0.0
C1427 C 0.80274 0.26776 0.94597 0.0
Co1428 Co 0.506 0.95932 0.36153 0.0
Co1429 Co 0.53254 0.92402 0.34353 0.0
C1430 C 0.48916 0.91748 0.35927 0.0
O1431 O 0.48692 0.93628 0.36354 0.0
O1432 O 0.50571 0.91084 0.35137 0.0
C1433 C 0.47699 0.99111 0.37294 0.0
O1434 O 0.46348 0.98161 0.36162 0.0
C1435 C 0.55609 0.88634 0.34913 0.0
C1436 C 0.57853 0.88831 0.32413 0.0
C1437 C 0.57352 0.87702 0.34131 0.0
N1438 N 0.55144 0.90252 0.33734 0.0
N1439 N 0.56465 0.9033 0.32216 0.0
C1440 C 0.5454 0.88161 0.36874 0.0
H1441 H 0.5365 0.89497 0.37406 0.0
H1442 H 0.55648 0.87702 0.38066 0.0
H1443 H 0.5347 0.86876 0.36621 0.0
C1444 C 0.53851 0.95932 0.39226 0.0
N1445 N 0.53051 0.95249 0.37468 0.0
N1446 N 0.54286 0.93895 0.3665 0.0
C1447 C 0.55971 0.93754 0.37836 0.0
C1448 C 0.55724 0.9501 0.39518 0.0
C1449 C 0.52825 0.97434 0.40602 0.0
H1450 H 0.52782 0.98938 0.39833 0.0
H1451 H 0.51229 0.96948 0.4089 0.0
H1452 H 0.53642 0.97605 0.42073 0.0
O1453 O 0.51152 0.96768 0.33324 0.0
O1454 O 0.52982 0.94295 0.31916 0.0
H1455 H 0.57997 0.92251 0.35741 0.0
H1456 H 0.59192 0.93141 0.3805 0.0
C1457 C 0.57791 0.92448 0.37404 0.0
H1458 H 0.57588 0.90943 0.3814 0.0
H1459 H 0.56491 0.91478 0.31114 0.0
O1460 O 0.49478 0.98372 0.37494 0.0
C1461 C 0.52106 0.96033 0.31805 0.0
Co1462 Co 0.21035 0.25872 0.90139 0.0
Co1463 Co 0.1758 0.22986 0.91752 0.0
C1464 C 0.16753 0.27306 0.90206 0.0
O1465 O 0.18631 0.27614 0.89819 0.0
O1466 O 0.16148 0.25624 0.90983 0.0
C1467 C 0.23491 0.28549 0.87583 0.0
O1468 O 0.21755 0.29211 0.86833 0.0
C1469 C 0.13882 0.20524 0.91089 0.0
C1470 C 0.14155 0.18202 0.93506 0.0
C1471 C 0.13 0.18734 0.91814 0.0
N1472 N 0.15496 0.2099 0.92274 0.0
N1473 N 0.1562 0.19619 0.93742 0.0
C1474 C 0.13362 0.2165 0.89173 0.0
H1475 H 0.12903 0.20576 0.8795 0.0
H1476 H 0.12063 0.2269 0.89481 0.0
H1477 H 0.14679 0.22576 0.88651 0.0
C1478 C 0.21387 0.22616 0.87058 0.0
N1479 N 0.20585 0.23369 0.8879 0.0
N1480 N 0.19214 0.22085 0.89502 0.0
C1481 C 0.19169 0.20432 0.88271 0.0
C1482 C 0.20511 0.2074 0.86667 0.0
C1483 C 0.22923 0.237 0.85764 0.0
H1484 H 0.2427 0.241 0.86704 0.0
H1485 H 0.2224 0.25128 0.85171 0.0
H1486 H 0.23435 0.22747 0.84464 0.0
O1487 O 0.21689 0.25432 0.93031 0.0
O1488 O 0.19389 0.23266 0.94248 0.0
H1489 H 0.17596 0.18304 0.90201 0.0
H1490 H 0.18509 0.1724 0.87845 0.0
C1491 C 0.17827 0.18611 0.88559 0.0
H1492 H 0.16338 0.18886 0.87812 0.0
H1493 H 0.16773 0.19588 0.9484 0.0
O1494 O 0.23475 0.27201 0.88972 0.0
C1495 C 0.20988 0.24355 0.9448 0.0
Co1496 Co 0.00794 0.05156 0.86014 0.0
Co1497 Co 0.98077 0.08695 0.84327 0.0
C1498 C 0.02451 0.0935 0.85812 0.0
O1499 O 0.02701 0.07468 0.86221 0.0
O1500 O 0.00775 0.10003 0.85056 0.0
C1501 C 0.03636 0.02309 0.88059 0.0
O1502 O 0.04963 0.03795 0.88261 0.0
C1503 C 0.95753 0.12474 0.84975 0.0
C1504 C 0.93457 0.12309 0.82522 0.0
C1505 C 0.94007 0.13428 0.84232 0.0
N1506 N 0.96177 0.10856 0.83782 0.0
N1507 N 0.94824 0.10796 0.82293 0.0
C1508 C 0.96869 0.12934 0.86912 0.0
H1509 H 0.97757 0.11588 0.87424 0.0
H1510 H 0.9579 0.13403 0.88128 0.0
H1511 H 0.97945 0.14209 0.86637 0.0
C1512 C 0.97601 0.0507 0.89151 0.0
N1513 N 0.98367 0.05798 0.87395 0.0
N1514 N 0.97112 0.07166 0.86631 0.0
C1515 C 0.95452 0.07278 0.87853 0.0
C1516 C 0.95732 0.05983 0.89501 0.0
C1517 C 0.98653 0.03529 0.90466 0.0
H1518 H 0.98759 0.02066 0.89625 0.0
H1519 H 1.00227 0.04051 0.90799 0.0
H1520 H 0.97822 0.0326 0.91914 0.0
O1521 O 1.00168 0.04382 0.83189 0.0
O1522 O 0.9827 0.06841 0.81857 0.0
H1523 H 0.93383 0.08831 0.8584 0.0
H1524 H 0.92244 0.07932 0.88173 0.0
C1525 C 0.93636 0.08612 0.87493 0.0
H1526 H 0.93883 0.10107 0.88235 0.0
H1527 H 0.94766 0.09655 0.81186 0.0
O1528 O 0.01929 0.02648 0.87212 0.0
C1529 C 0.99159 0.05114 0.81706 0.0
Co1530 Co 0.71029 0.2535 0.11187 0.0
Co1531 Co 0.67546 0.28113 0.09439 0.0
C1532 C 0.66815 0.23794 0.1109 0.0
O1533 O 0.68688 0.23526 0.11531 0.0
O1534 O 0.66202 0.25445 0.10252 0.0
C1535 C 0.74074 0.22396 0.12677 0.0
O1536 O 0.72885 0.20916 0.12042 0.0
C1537 C 0.63787 0.30462 0.10066 0.0
C1538 C 0.63959 0.32744 0.07601 0.0
C1539 C 0.6284 0.32207 0.09317 0.0
N1540 N 0.65401 0.30023 0.0887 0.0
N1541 N 0.65466 0.31368 0.07374 0.0
C1542 C 0.63332 0.29365 0.12016 0.0
H1543 H 0.64685 0.28494 0.12539 0.0
H1544 H 0.62857 0.30452 0.13221 0.0
H1545 H 0.62063 0.28279 0.11753 0.0
C1546 C 0.71178 0.28628 0.14226 0.0
N1547 N 0.70458 0.27852 0.12471 0.0
N1548 N 0.69104 0.29109 0.11691 0.0
C1549 C 0.69 0.30782 0.12892 0.0
C1550 C 0.70281 0.30507 0.14549 0.0
C1551 C 0.72655 0.27553 0.15596 0.0
H1552 H 0.74156 0.27465 0.14822 0.0
H1553 H 0.72119 0.25975 0.15881 0.0
H1554 H 0.72857 0.2836 0.17067 0.0
O1555 O 0.71717 0.25737 0.08288 0.0
O1556 O 0.69399 0.27834 0.06983 0.0
H1557 H 0.67453 0.32839 0.10863 0.0
H1558 H 0.68359 0.33987 0.13188 0.0
C1559 C 0.6767 0.32597 0.12518 0.0
H1560 H 0.66173 0.32362 0.13264 0.0
H1561 H 0.66607 0.31415 0.06265 0.0
O1562 O 0.73518 0.24236 0.12459 0.0
C1563 C 0.71022 0.2677 0.06802 0.0
Co1564 Co 0.50566 0.05235 0.15023 0.0
Co1565 Co 0.5319 0.08745 0.169 0.0
C1566 C 0.48876 0.09423 0.15308 0.0
O1567 O 0.48663 0.07551 0.14845 0.0
O1568 O 0.50522 0.10075 0.16123 0.0
C1569 C 0.4772 0.02007 0.14025 0.0
O1570 O 0.46552 0.02788 0.15452 0.0
C1571 C 0.55555 0.12492 0.1636 0.0
C1572 C 0.57724 0.12349 0.18929 0.0
C1573 C 0.57266 0.13446 0.17178 0.0
N1574 N 0.55063 0.10894 0.17553 0.0
N1575 N 0.56337 0.10846 0.1911 0.0
C1576 C 0.5455 0.12922 0.14357 0.0
H1577 H 0.53656 0.11585 0.13836 0.0
H1578 H 0.55701 0.13331 0.13186 0.0
H1579 H 0.53493 0.1423 0.1454 0.0
C1580 C 0.53924 0.05199 0.1205 0.0
N1581 N 0.53044 0.05928 0.13752 0.0
N1582 N 0.54249 0.07287 0.146 0.0
C1583 C 0.55985 0.07404 0.13489 0.0
C1584 C 0.55821 0.06103 0.11829 0.0
C1585 C 0.529 0.03765 0.10601 0.0
H1586 H 0.53031 0.0219 0.11203 0.0
H1587 H 0.5126 0.04154 0.10467 0.0
H1588 H 0.53603 0.03825 0.09064 0.0
O1589 O 0.51093 0.04348 0.17851 0.0
O1590 O 0.52903 0.06814 0.19298 0.0
H1591 H 0.59243 0.07835 0.13493 0.0
H1592 H 0.5777 0.1013 0.1339 0.0
C1593 C 0.57844 0.0859 0.14076 0.0
H1594 H 0.57953 0.08724 0.15755 0.0
H1595 H 0.56335 0.09717 0.20232 0.0
O1596 O 0.49415 0.02846 0.13611 0.0
C1597 C 0.52035 0.0507 0.19384 0.0
Co1598 Co 0.50729 0.45896 0.15099 0.0
Co1599 Co 0.48085 0.42358 0.16918 0.0
C1600 C 0.52405 0.41693 0.15347 0.0
O1601 O 0.52619 0.43571 0.14909 0.0
O1602 O 0.50757 0.41031 0.16146 0.0
C1603 C 0.53371 0.48325 0.12491 0.0
O1604 O 0.54172 0.46585 0.11907 0.0
C1605 C 0.45739 0.38601 0.16323 0.0
C1606 C 0.43541 0.38718 0.18868 0.0
C1607 C 0.44025 0.37631 0.17117 0.0
N1608 N 0.46208 0.40197 0.17527 0.0
N1609 N 0.44916 0.40228 0.19071 0.0
C1610 C 0.4677 0.38184 0.14329 0.0
H1611 H 0.47656 0.39531 0.13819 0.0
H1612 H 0.45636 0.37765 0.13146 0.0
H1613 H 0.47838 0.36886 0.14522 0.0
C1614 C 0.47376 0.45986 0.12109 0.0
N1615 N 0.48252 0.45236 0.13805 0.0
N1616 N 0.4705 0.43853 0.14625 0.0
C1617 C 0.45327 0.43736 0.13498 0.0
C1618 C 0.45492 0.45062 0.11858 0.0
C1619 C 0.48406 0.47443 0.10687 0.0
H1620 H 0.4852 0.48959 0.11427 0.0
H1621 H 0.49973 0.46896 0.10364 0.0
H1622 H 0.4758 0.47598 0.09222 0.0
O1623 O 0.50173 0.46729 0.1793 0.0
O1624 O 0.48346 0.44258 0.19348 0.0
H1625 H 0.43342 0.42367 0.15721 0.0
H1626 H 0.42076 0.43256 0.13446 0.0
C1627 C 0.43477 0.42517 0.14045 0.0
H1628 H 0.43585 0.40985 0.13347 0.0
H1629 H 0.449 0.4135 0.202 0.0
O1630 O 0.51936 0.48328 0.13792 0.0
C1631 C 0.49217 0.45999 0.19452 0.0
H1632 H 0.16819 0.14997 0.29512 0.0
H1633 H 0.16932 0.27117 0.31053 0.0
H1634 H 0.21839 0.18291 0.32172 0.0
H1635 H 0.12317 0.23908 0.27626 0.0
H1636 H 0.18534 0.23851 0.31872 0.0
H1637 H 0.14923 0.1821 0.29192 0.0
C1638 C 0.17505 0.164 0.30048 0.0
C1639 C 0.19475 0.164 0.30866 0.0
C1640 C 0.17163 0.23863 0.30951 0.0
C1641 C 0.17347 0.20061 0.30498 0.0
C1642 C 0.16245 0.25726 0.30488 0.0
C1643 C 0.14498 0.25787 0.29256 0.0
C1644 C 0.16323 0.22049 0.30181 0.0
C1645 C 0.13672 0.23936 0.28569 0.0
C1646 C 0.16434 0.18229 0.29859 0.0
C1647 C 0.2032 0.18245 0.31525 0.0
N1648 N 0.14597 0.22144 0.29033 0.0
N1649 N 0.19253 0.20007 0.31321 0.0
H1650 H 0.40743 0.57089 0.98807 0.0
H1651 H 0.48961 0.63598 0.99671 0.0
H1652 H 0.41966 0.57113 0.92354 0.0
H1653 H 0.51207 0.60524 0.94298 0.0
H1654 H 0.45626 0.62086 0.99112 0.0
H1655 H 0.43822 0.59105 0.99367 0.0
C1656 C 0.4165 0.57555 0.97507 0.0
C1657 C 0.41111 0.56951 0.95536 0.0
C1658 C 0.46851 0.61719 0.98068 0.0
C1659 C 0.44613 0.5928 0.96147 0.0
C1660 C 0.48756 0.62597 0.98374 0.0
C1661 C 0.5038 0.62161 0.97046 0.0
C1662 C 0.4656 0.60379 0.96429 0.0
C1663 C 0.50005 0.60884 0.95372 0.0
C1664 C 0.43396 0.5872 0.97821 0.0
C1665 C 0.42331 0.57574 0.93896 0.0
N1666 N 0.48131 0.60028 0.95114 0.0
N1667 N 0.44047 0.58688 0.94239 0.0
H1668 H 0.88455 0.27186 0.26024 0.0
H1669 H 0.81993 0.35439 0.27192 0.0
H1670 H 0.85914 0.25107 0.31731 0.0
H1671 H 0.8223 0.34157 0.33629 0.0
H1672 H 0.8402 0.32392 0.26538 0.0
H1673 H 0.8689 0.30496 0.26567 0.0
C1674 C 0.87556 0.27421 0.2739 0.0
C1675 C 0.87292 0.25853 0.28822 0.0
C1676 C 0.83683 0.32795 0.281 0.0
C1677 C 0.85435 0.29641 0.29425 0.0
C1678 C 0.82506 0.34524 0.28468 0.0
C1679 C 0.81951 0.35035 0.30462 0.0
C1680 C 0.84316 0.31573 0.29745 0.0
C1681 C 0.82646 0.33811 0.32069 0.0
C1682 C 0.86643 0.29313 0.27688 0.0
C1683 C 0.8614 0.26265 0.30578 0.0
N1684 N 0.83776 0.32119 0.31675 0.0
N1685 N 0.85247 0.2812 0.30827 0.0
H1686 H 0.51301 0.87605 0.94262 0.0
H1687 H 0.60566 0.94013 0.98987 0.0
H1688 H 0.51733 0.89437 0.00568 0.0
H1689 H 0.59663 0.93313 0.92518 0.0
H1690 H 0.5755 0.91916 0.99604 0.0
H1691 H 0.5456 0.89323 0.93592 0.0
C1692 C 0.52079 0.88365 0.95503 0.0
C1693 C 0.51236 0.88389 0.9747 0.0
C1694 C 0.58014 0.92208 0.98048 0.0
C1695 C 0.5496 0.90332 0.96722 0.0
C1696 C 0.59734 0.93402 0.97698 0.0
C1697 C 0.60342 0.93848 0.95702 0.0
C1698 C 0.56894 0.9145 0.96387 0.0
C1699 C 0.5924 0.92996 0.9408 0.0
C1700 C 0.53937 0.89343 0.95121 0.0
C1701 C 0.52312 0.89392 0.99024 0.0
N1702 N 0.57555 0.91847 0.94457 0.0
N1703 N 0.54114 0.9032 0.98616 0.0
H1704 H 0.12619 0.76154 0.19008 0.0
H1705 H 0.18945 0.85457 0.23749 0.0
H1706 H 0.14377 0.7666 0.2533 0.0
H1707 H 0.18338 0.84521 0.17275 0.0
H1708 H 0.16811 0.82469 0.24354 0.0
H1709 H 0.14313 0.79424 0.1833 0.0
C1710 C 0.13356 0.76951 0.20251 0.0
C1711 C 0.13371 0.76125 0.22225 0.0
C1712 C 0.17131 0.82919 0.22798 0.0
C1713 C 0.15281 0.79858 0.21468 0.0
C1714 C 0.18346 0.84623 0.22456 0.0
C1715 C 0.18832 0.85208 0.20464 0.0
C1716 C 0.16396 0.81791 0.21133 0.0
C1717 C 0.17992 0.84109 0.18835 0.0
C1718 C 0.1432 0.78814 0.19864 0.0
C1719 C 0.14343 0.77224 0.23781 0.0
N1720 N 0.16826 0.82435 0.19204 0.0
N1721 N 0.15256 0.79029 0.23368 0.0
H1722 H 0.09562 0.57424 0.08686 0.0
H1723 H 0.01747 0.61872 1.00461 0.0
H1724 H 0.10382 0.56932 0.02186 0.0
H1725 H 0.01011 0.62773 0.06939 0.0
H1726 H 0.04956 0.60131 0.01093 0.0
H1727 H 0.06507 0.59501 0.08112 0.0
C1728 C 0.09111 0.57779 0.07139 0.0
C1729 C 0.10211 0.57004 0.05478 0.0
C1730 C 0.04099 0.60711 0.0238 0.0
C1731 C 0.06715 0.59343 0.04808 0.0
C1732 C 0.02257 0.61701 0.02021 0.0
C1733 C 0.01096 0.6246 0.03652 0.0
C1734 C 0.04796 0.60465 0.04388 0.0
C1735 C 0.01853 0.62208 0.05637 0.0
C1736 C 0.07362 0.58951 0.06811 0.0
C1737 C 0.09555 0.57483 0.03505 0.0
N1738 N 0.03653 0.61223 0.05951 0.0
N1739 N 0.07843 0.58612 0.03224 0.0
H1740 H 0.84598 0.64841 0.21792 0.0
H1741 H 0.85012 0.76847 0.19563 0.0
H1742 H 0.80052 0.6806 0.18316 0.0
H1743 H 0.88766 0.73821 0.24046 0.0
H1744 H 0.83519 0.73552 0.18655 0.0
H1745 H 0.86509 0.68039 0.22189 0.0
C1746 C 0.84026 0.66222 0.2109 0.0
C1747 C 0.82179 0.66213 0.20026 0.0
C1748 C 0.84678 0.73611 0.1983 0.0
C1749 C 0.84319 0.69852 0.20477 0.0
C1750 C 0.85532 0.7549 0.20346 0.0
C1751 C 0.87002 0.75612 0.21894 0.0
C1752 C 0.85308 0.71843 0.20862 0.0
C1753 C 0.87623 0.73802 0.22855 0.0
C1754 C 0.85104 0.68043 0.21322 0.0
C1755 C 0.81477 0.68026 0.19149 0.0
N1756 N 0.86769 0.71994 0.22328 0.0
N1757 N 0.82544 0.6978 0.19401 0.0
H1758 H 1.00524 0.88663 0.07258 0.0
H1759 H 0.90821 0.94062 0.02143 0.0
H1760 H 0.99353 0.88834 0.00783 0.0
H1761 H 0.9183 0.93887 0.08631 0.0
H1762 H 0.93878 0.91982 0.01645 0.0
H1763 H 0.97279 0.90431 0.07837 0.0
C1764 C 0.99586 0.89066 0.05961 0.0
C1765 C 1.0022 0.88613 0.03969 0.0
C1766 C 0.93429 0.92386 0.03181 0.0
C1767 C 0.96514 0.90627 0.04618 0.0
C1768 C 0.91689 0.93573 0.03461 0.0
C1769 C 0.91094 0.9415 0.05425 0.0
C1770 C 0.94585 0.91777 0.04882 0.0
C1771 C 0.92244 0.93463 0.07091 0.0
C1772 C 0.97734 0.90074 0.06291 0.0
C1773 C 0.9894 0.89167 0.02345 0.0
N1774 N 0.93948 0.92323 0.06782 0.0
N1775 N 0.97156 0.90148 0.02705 0.0
H1776 H 0.30824 0.17094 0.27127 0.0
H1777 H 0.29304 0.16874 0.14999 0.0
H1778 H 0.27507 0.1239 0.23938 0.0
H1779 H 0.31826 0.21981 0.18261 0.0
H1780 H 0.28978 0.15017 0.18232 0.0
H1781 H 0.3157 0.18721 0.23854 0.0
C1782 C 0.30268 0.16394 0.2574 0.0
C1783 C 0.2909 0.14612 0.25808 0.0
C1784 C 0.29612 0.16541 0.18242 0.0
C1785 C 0.2993 0.16465 0.22063 0.0
C1786 C 0.29802 0.17591 0.164 0.0
C1787 C 0.30589 0.19571 0.16384 0.0
C1788 C 0.30218 0.17485 0.20069 0.0
C1789 C 0.31202 0.20454 0.18228 0.0
C1790 C 0.30688 0.17326 0.23873 0.0
C1791 C 0.28409 0.13771 0.23961 0.0
N1792 N 0.31001 0.19406 0.20001 0.0
N1793 N 0.28832 0.14709 0.22166 0.0
H1794 H 0.38706 0.50213 0.01913 0.0
H1795 H 0.43818 0.42111 0.09455 0.0
H1796 H 0.38713 0.4374 0.00733 0.0
H1797 H 0.4393 0.4861 0.1038 0.0
H1798 H 0.41694 0.42615 0.06416 0.0
H1799 H 0.40395 0.49599 0.05149 0.0
C1800 C 0.39064 0.48658 0.02332 0.0
C1801 C 0.38582 0.47026 0.01036 0.0
C1802 C 0.42171 0.4393 0.07291 0.0
C1803 C 0.40521 0.46309 0.04766 0.0
C1804 C 0.4337 0.43642 0.09027 0.0
C1805 C 0.44057 0.45326 0.10146 0.0
C1806 C 0.41656 0.45917 0.06681 0.0
C1807 C 0.4345 0.47277 0.09535 0.0
C1808 C 0.40026 0.48308 0.04189 0.0
C1809 C 0.39064 0.45044 0.01681 0.0
N1810 N 0.42294 0.4752 0.07836 0.0
N1811 N 0.40018 0.44741 0.03499 0.0
H1812 H 0.73868 0.38924 0.23918 0.0
H1813 H 0.68826 0.29433 0.18255 0.0
H1814 H 0.70001 0.34551 0.2696 0.0
H1815 H 0.7191 0.34292 0.15097 0.0
H1816 H 0.69147 0.31336 0.21451 0.0
H1817 H 0.73077 0.37316 0.20666 0.0
C1818 C 0.7284 0.37632 0.23901 0.0
C1819 C 0.72009 0.36862 0.25718 0.0
C1820 C 0.69739 0.31999 0.2006 0.0
C1821 C 0.71107 0.35004 0.21991 0.0
C1822 C 0.69558 0.30913 0.18244 0.0
C1823 C 0.70351 0.31717 0.16433 0.0
C1824 C 0.70738 0.33892 0.20061 0.0
C1825 C 0.71281 0.33633 0.16474 0.0
C1826 C 0.72387 0.36717 0.2204 0.0
C1827 C 0.70679 0.35192 0.25599 0.0
N1828 N 0.71465 0.34653 0.18268 0.0
N1829 N 0.70283 0.34307 0.23768 0.0
H1830 H 0.62409 0.00778 0.01858 0.0
H1831 H 0.57684 0.09014 0.09503 0.0
H1832 H 0.62861 0.07262 0.00834 0.0
H1833 H 0.57247 0.02514 0.10324 0.0
H1834 H 0.59822 0.08454 0.06481 0.0
H1835 H 0.60722 0.0143 0.05086 0.0
C1836 C 0.62152 0.02344 0.0231 0.0
C1837 C 0.62763 0.03969 0.01059 0.0
C1838 C 0.59271 0.07151 0.07331 0.0
C1839 C 0.60825 0.04729 0.04782 0.0
C1840 C 0.58065 0.07471 0.09059 0.0
C1841 C 0.57282 0.05804 0.10142 0.0
C1842 C 0.59694 0.05151 0.06695 0.0
C1843 C 0.57802 0.03836 0.09507 0.0
C1844 C 0.61191 0.02715 0.04163 0.0
C1845 C 0.62407 0.05964 0.01745 0.0
N1846 N 0.58964 0.03563 0.07817 0.0
N1847 N 0.6145 0.06289 0.03559 0.0
H1848 H 0.27361 0.82218 0.3547 0.0
H1849 H 0.32163 0.88416 0.261 0.0
H1850 H 0.33842 0.82806 0.34536 0.0
H1851 H 0.25782 0.869 0.26712 0.0
H1852 H 0.32828 0.86709 0.29364 0.0
H1853 H 0.26764 0.84328 0.32462 0.0
C1854 C 0.28657 0.82807 0.34632 0.0
C1855 C 0.3065 0.82326 0.35227 0.0
C1856 C 0.31284 0.86757 0.28779 0.0
C1857 C 0.29989 0.84736 0.31786 0.0
C1858 C 0.30904 0.87729 0.26919 0.0
C1859 C 0.28917 0.87788 0.26124 0.0
C1860 C 0.29662 0.85856 0.29852 0.0
C1861 C 0.27342 0.86877 0.27252 0.0
C1862 C 0.2832 0.84009 0.32916 0.0
C1863 C 0.32282 0.8315 0.34119 0.0
N1864 N 0.27749 0.85951 0.29053 0.0
N1865 N 0.31917 0.84305 0.32435 0.0
H1866 H 0.07138 0.48728 0.9069 0.0
H1867 H 0.13599 0.49896 0.98915 0.0
H1868 H 0.07392 0.42286 0.91932 0.0
H1869 H 0.10999 0.44233 0.01033 0.0
H1870 H 0.12085 0.49315 0.95588 0.0
H1871 H 0.09187 0.49367 0.93721 0.0
C1872 C 0.07663 0.47447 0.9159 0.0
C1873 C 0.07103 0.45456 0.91073 0.0
C1874 C 0.11815 0.48211 0.96783 0.0
C1875 C 0.09489 0.46157 0.94524 0.0
C1876 C 0.12698 0.48532 0.98685 0.0
C1877 C 0.12399 0.47125 1.0027 0.0
C1878 C 0.10601 0.46479 0.96461 0.0
C1879 C 0.1125 0.45368 0.99863 0.0
C1880 C 0.08852 0.47806 0.93311 0.0
C1881 C 0.07811 0.43843 0.92281 0.0
N1882 N 0.10383 0.45098 0.97997 0.0
N1883 N 0.0895 0.4423 0.93971 0.0
H1884 H 0.75591 0.64087 0.2679 0.0
H1885 H 0.67202 0.68197 0.34583 0.0
H1886 H 0.69178 0.6275 0.26115 0.0
H1887 H 0.73691 0.68763 0.35472 0.0
H1888 H 0.6784 0.66059 0.31577 0.0
H1889 H 0.7488 0.65727 0.30027 0.0
C1890 C 0.74028 0.64143 0.2732 0.0
C1891 C 0.72438 0.63295 0.26168 0.0
C1892 C 0.69123 0.66634 0.32443 0.0
C1893 C 0.7161 0.65173 0.29901 0.0
C1894 C 0.68759 0.67841 0.3416 0.0
C1895 C 0.704 0.68667 0.35252 0.0
C1896 C 0.71142 0.66265 0.31822 0.0
C1897 C 0.72388 0.68178 0.34645 0.0
C1898 C 0.73624 0.65072 0.2918 0.0
C1899 C 0.70447 0.63392 0.26951 0.0
N1900 N 0.72703 0.67024 0.32961 0.0
N1901 N 0.70086 0.64329 0.28767 0.0
H1902 H 0.91736 0.06142 0.02044 0.0
H1903 H 0.91899 0.0442 0.89942 0.0
H1904 H 0.87434 0.02321 0.98849 0.0
H1905 H 0.96802 0.07227 0.93287 0.0
H1906 H 0.89984 0.04033 0.9314 0.0
H1907 H 0.93363 0.06957 0.98788 0.0
C1908 C 0.91123 0.05487 0.00658 0.0
C1909 C 0.89455 0.0415 0.00721 0.0
C1910 C 0.91474 0.04745 0.93174 0.0
C1911 C 0.91309 0.05074 0.96993 0.0
C1912 C 0.92556 0.04971 0.91353 0.0
C1913 C 0.94499 0.05851 0.91373 0.0
C1914 C 0.92347 0.05413 0.95015 0.0
C1915 C 0.95304 0.06534 0.93227 0.0
C1916 C 0.92056 0.05948 0.98801 0.0
C1917 C 0.88725 0.03348 0.98875 0.0
N1918 N 0.94227 0.06297 0.94979 0.0
N1919 N 0.8966 0.03817 0.97089 0.0
H1920 H 0.27167 0.30877 0.17002 0.0
H1921 H 0.15028 0.2935 0.16835 0.0
H1922 H 0.23954 0.27662 0.12244 0.0
H1923 H 0.18327 0.31813 0.21949 0.0
H1924 H 0.18251 0.29058 0.14947 0.0
H1925 H 0.239 0.31598 0.18655 0.0
C1926 C 0.25775 0.3034 0.16294 0.0
C1927 C 0.25836 0.29196 0.1449 0.0
C1928 C 0.1827 0.29671 0.16479 0.0
C1929 C 0.22095 0.30005 0.16376 0.0
C1930 C 0.16435 0.29842 0.17547 0.0
C1931 C 0.16431 0.30603 0.19538 0.0
C1932 C 0.20105 0.30271 0.17416 0.0
C1933 C 0.18283 0.31209 0.20414 0.0
C1934 C 0.23911 0.30745 0.17242 0.0
C1935 C 0.23982 0.28538 0.13641 0.0
N1936 N 0.20049 0.31027 0.19348 0.0
N1937 N 0.2219 0.28944 0.14596 0.0
H1938 H 0.1578 0.73724 0.32197 0.0
H1939 H 0.25183 0.68969 0.38389 0.0
H1940 H 0.16747 0.67255 0.32785 0.0
H1941 H 0.24421 0.75369 0.37065 0.0
H1942 H 0.21933 0.6828 0.36662 0.0
H1943 H 0.18755 0.74334 0.34349 0.0
C1944 C 0.16618 0.72433 0.32795 0.0
C1945 C 0.16043 0.7044 0.323 0.0
C1946 C 0.2248 0.69834 0.36758 0.0
C1947 C 0.1945 0.71116 0.34759 0.0
C1948 C 0.24333 0.70227 0.37741 0.0
C1949 C 0.25084 0.72227 0.37857 0.0
C1950 C 0.21371 0.71455 0.35901 0.0
C1951 C 0.23917 0.738 0.36997 0.0
C1952 C 0.18315 0.72778 0.34022 0.0
C1953 C 0.1715 0.68815 0.33138 0.0
N1954 N 0.22126 0.7338 0.36056 0.0
N1955 N 0.18818 0.69187 0.34314 0.0
H1956 H 0.93866 0.51042 0.87642 0.0
H1957 H 0.98709 0.60496 0.93661 0.0
H1958 H 1.00276 0.51766 0.88974 0.0
H1959 H 0.92225 0.59529 0.93183 0.0
H1960 H 0.99288 0.57509 0.9152 0.0
H1961 H 0.93201 0.5433 0.89303 0.0
C1962 C 0.95131 0.51891 0.88277 0.0
C1963 C 0.97127 0.51119 0.88185 0.0
C1964 C 0.97735 0.57952 0.91868 0.0
C1965 C 0.96383 0.54872 0.90062 0.0
C1966 C 0.97408 0.59656 0.93086 0.0
C1967 C 0.95421 0.60232 0.93611 0.0
C1968 C 0.96059 0.56812 0.91172 0.0
C1969 C 0.93781 0.59123 0.92807 0.0
C1970 C 0.94752 0.53765 0.89222 0.0
C1971 C 0.9871 0.52285 0.89027 0.0
N1972 N 0.94135 0.57447 0.9164 0.0
N1973 N 0.98303 0.54097 0.89929 0.0
H1974 H 0.84455 0.83778 0.32453 0.0
H1975 H 0.7671 0.75511 0.36947 0.0
H1976 H 0.8527 0.77284 0.31906 0.0
H1977 H 0.75976 0.81977 0.37914 0.0
H1978 H 0.79903 0.76162 0.35184 0.0
H1979 H 0.81439 0.83186 0.34586 0.0
C1980 C 0.84011 0.82228 0.32806 0.0
C1981 C 0.85095 0.80574 0.31996 0.0
C1982 C 0.79051 0.77443 0.35783 0.0
C1983 C 0.81645 0.79885 0.344 0.0
C1984 C 0.77218 0.77073 0.36786 0.0
C1985 C 0.76061 0.78694 0.37569 0.0
C1986 C 0.79742 0.79453 0.35546 0.0
C1987 C 0.76815 0.80682 0.37329 0.0
C1988 C 0.82285 0.81891 0.34011 0.0
C1989 C 0.84452 0.78598 0.32479 0.0
N1990 N 0.78606 0.81008 0.36329 0.0
N1991 N 0.82762 0.78308 0.33639 0.0
H1992 H 0.50469 0.49453 0.39291 0.0
H1993 H 0.58755 0.41622 0.43573 0.0
H1994 H 0.56916 0.50076 0.3809 0.0
H1995 H 0.52256 0.40802 0.44137 0.0
H1996 H 0.58154 0.44646 0.41458 0.0
H1997 H 0.51129 0.46246 0.41017 0.0
C1998 C 0.52029 0.48918 0.39393 0.0
C1999 C 0.53642 0.50046 0.38555 0.0
C2000 C 0.5686 0.43796 0.42031 0.0
C2001 C 0.54411 0.4635 0.40534 0.0
C2002 C 0.57203 0.42067 0.43226 0.0
C2003 C 0.55549 0.40983 0.44039 0.0
C2004 C 0.5485 0.44438 0.41655 0.0
C2005 C 0.53569 0.41622 0.43562 0.0
C2006 C 0.52404 0.47076 0.40374 0.0
C2007 C 0.55627 0.49259 0.38719 0.0
N2008 N 0.53274 0.43316 0.42414 0.0
N2009 N 0.55958 0.47461 0.39701 0.0
H2010 H 0.26118 0.69035 0.62844 0.0
H2011 H 0.35509 0.73824 0.69024 0.0
H2012 H 0.26772 0.75421 0.6428 0.0
H2013 H 0.34569 0.67353 0.68424 0.0
H2014 H 0.32497 0.74427 0.66917 0.0
H2015 H 0.29377 0.68368 0.64561 0.0
C2016 C 0.26945 0.70295 0.63515 0.0
C2017 C 0.26163 0.72284 0.63431 0.0
C2018 C 0.32951 0.72873 0.67233 0.0
C2019 C 0.29887 0.71537 0.65376 0.0
C2020 C 0.34669 0.72531 0.68433 0.0
C2021 C 0.35266 0.7054 0.68908 0.0
C2022 C 0.31819 0.71207 0.66502 0.0
C2023 C 0.34153 0.68912 0.68083 0.0
C2024 C 0.28803 0.69914 0.64493 0.0
C2025 C 0.27302 0.7386 0.64322 0.0
N2026 N 0.32468 0.69281 0.6693 0.0
N2027 N 0.29101 0.73452 0.65256 0.0
H2028 H 0.98647 0.48932 0.63933 0.0
H2029 H 0.93766 0.43322 0.54315 0.0
H2030 H 0.95199 0.52067 0.59284 0.0
H2031 H 0.96652 0.40145 0.59283 0.0
H2032 H 0.94122 0.46529 0.56191 0.0
H2033 H 0.97779 0.4569 0.62346 0.0
C2034 C 0.97695 0.48939 0.62584 0.0
C2035 C 0.97007 0.50777 0.6173 0.0
C2036 C 0.94661 0.45131 0.56884 0.0
C2037 C 0.96015 0.47062 0.59898 0.0
C2038 C 0.94458 0.43308 0.55814 0.0
C2039 C 0.95186 0.41488 0.56656 0.0
C2040 C 0.95614 0.45129 0.58801 0.0
C2041 C 0.96069 0.41527 0.58595 0.0
C2042 C 0.97198 0.47084 0.6168 0.0
C2043 C 0.95768 0.50688 0.5999 0.0
N2044 N 0.96274 0.43327 0.596 0.0
N2045 N 0.95326 0.48861 0.5912 0.0
H2046 H 0.05951 0.9892 0.59196 0.0
H2047 H 0.04597 0.11064 0.59352 0.0
H2048 H 0.0246 0.02159 0.63742 0.0
H2049 H 0.07215 0.07751 0.54323 0.0
H2050 H 0.04208 0.07845 0.61224 0.0
H2051 H 0.06839 0.02181 0.5762 0.0
C2052 C 0.05386 1.00316 0.59872 0.0
C2053 C 0.04117 1.00266 0.61593 0.0
C2054 C 0.04882 0.07823 0.59717 0.0
C2055 C 0.05123 0.03997 0.59799 0.0
C2056 C 0.05111 0.09656 0.5866 0.0
C2057 C 0.05936 0.09652 0.56694 0.0
C2058 C 0.05488 0.05985 0.58793 0.0
C2059 C 0.06565 0.078 0.5584 0.0
C2060 C 0.05888 0.02176 0.58969 0.0
C2061 C 0.03429 0.02123 0.62406 0.0
N2062 N 0.06322 0.06035 0.56893 0.0
N2063 N 0.03934 0.03911 0.61498 0.0
H2064 H 0.68911 0.65594 0.77386 0.0
H2065 H 0.62424 0.73831 0.7649 0.0
H2066 H 0.68802 0.6676 0.83847 0.0
H2067 H 0.65398 0.75991 0.81951 0.0
H2068 H 0.63913 0.70486 0.77039 0.0
H2069 H 0.66881 0.68661 0.76825 0.0
C2070 C 0.68422 0.66485 0.78687 0.0
C2071 C 0.6901 0.65936 0.80661 0.0
C2072 C 0.64263 0.71694 0.78105 0.0
C2073 C 0.66663 0.69426 0.80049 0.0
C2074 C 0.63398 0.73606 0.77805 0.0
C2075 C 0.63813 0.75208 0.79161 0.0
C2076 C 0.6557 0.71376 0.79768 0.0
C2077 C 0.65056 0.74806 0.80856 0.0
C2078 C 0.67248 0.68226 0.78372 0.0
C2079 C 0.68356 0.67135 0.82303 0.0
N2080 N 0.659 0.72928 0.81108 0.0
N2081 N 0.67235 0.68846 0.81959 0.0
H2082 H 0.93425 0.03811 0.44358 0.0
H2083 H 0.98982 0.13723 0.48732 0.0
H2084 H 0.90216 0.08886 0.47013 0.0
H2085 H 0.02153 0.08923 0.45535 0.0
H2086 H 0.95754 0.1202 0.48033 0.0
H2087 H 0.9664 0.05679 0.44722 0.0
C2088 C 0.93407 0.05326 0.45014 0.0
C2089 C 0.91571 0.06207 0.45657 0.0
C2090 C 0.97153 0.11344 0.47472 0.0
C2091 C 0.95221 0.08351 0.4608 0.0
C2092 C 0.98999 0.12316 0.4787 0.0
C2093 C 0.00844 0.11458 0.47199 0.0
C2094 C 0.97146 0.0949 0.46406 0.0
C2095 C 0.00769 0.09638 0.46082 0.0
C2096 C 0.95234 0.06393 0.45216 0.0
C2097 C 0.91608 0.08169 0.4649 0.0
N2098 N 0.9895 0.08706 0.45733 0.0
N2099 N 0.93409 0.09175 0.46687 0.0
H2100 H 0.32889 0.84492 0.84096 0.0
H2101 H 0.37304 0.76738 0.75808 0.0
H2102 H 0.32356 0.85302 0.77599 0.0
H2103 H 0.38164 0.75893 0.82278 0.0
H2104 H 0.35645 0.79975 0.76475 0.0
H2105 H 0.35025 0.81474 0.83509 0.0
C2106 C 0.33251 0.84048 0.82548 0.0
C2107 C 0.32438 0.85124 0.8089 0.0
C2108 C 0.36198 0.7909 0.77754 0.0
C2109 C 0.34843 0.81681 0.80206 0.0
C2110 C 0.37141 0.77231 0.77374 0.0
C2111 C 0.37859 0.76029 0.78991 0.0
C2112 C 0.35956 0.79762 0.7977 0.0
C2113 C 0.37625 0.76767 0.80986 0.0
C2114 C 0.34455 0.82323 0.82213 0.0
C2115 C 0.32932 0.84489 0.78915 0.0
N2116 N 0.36681 0.78584 0.81322 0.0
N2117 N 0.3409 0.828 0.78628 0.0
H2118 H 0.99838 0.39856 0.43829 0.0
H2119 H 0.09451 0.44114 0.42084 0.0
H2120 H 0.02094 0.38581 0.49879 0.0
H2121 H 0.09986 0.44189 0.48629 0.0
H2122 H 0.06327 0.42116 0.42387 0.0
H2123 H 0.03036 0.41588 0.43049 0.0
C2124 C 0.01016 0.39919 0.44985 0.0
C2125 C 0.00696 0.3907 0.4692 0.0
C2126 C 0.07101 0.42586 0.43763 0.0
C2127 C 0.04392 0.41011 0.4603 0.0
C2128 C 0.08907 0.437 0.43586 0.0
C2129 C 0.09959 0.44325 0.45336 0.0
C2130 C 0.06341 0.42108 0.4571 0.0
C2131 C 0.09196 0.43757 0.47246 0.0
C2132 C 0.02857 0.40895 0.44533 0.0
C2133 C 0.0227 0.39212 0.48365 0.0
N2134 N 0.0743 0.42685 0.47382 0.0
N2135 N 0.04041 0.40171 0.47892 0.0
H2136 H 0.68747 0.35379 0.73608 0.0
H2137 H 0.63049 0.25764 0.68693 0.0
H2138 H 0.68394 0.34385 0.67126 0.0
H2139 H 0.6385 0.26757 0.75149 0.0
H2140 H 0.6471 0.29053 0.68034 0.0
H2141 H 0.66613 0.32382 0.74158 0.0
C2142 C 0.68201 0.34531 0.72301 0.0
C2143 C 0.68756 0.35104 0.70324 0.0
C2144 C 0.64513 0.28548 0.69593 0.0
C2145 C 0.66327 0.31668 0.7093 0.0
C2146 C 0.63568 0.26672 0.69969 0.0
C2147 C 0.63331 0.25972 0.71977 0.0
C2148 C 0.65211 0.29728 0.7124 0.0
C2149 C 0.64024 0.27215 0.73574 0.0
C2150 C 0.66985 0.3282 0.72611 0.0
C2151 C 0.67992 0.33981 0.68675 0.0
N2152 N 0.64934 0.29024 0.7317 0.0
N2153 N 0.66829 0.32298 0.69014 0.0
H2154 H 0.59533 0.07252 0.5873 0.0
H2155 H 0.51728 0.11809 0.50554 0.0
H2156 H 0.60352 0.06831 0.52226 0.0
H2157 H 0.5098 0.1262 0.57042 0.0
H2158 H 0.54934 0.10056 0.51167 0.0
H2159 H 0.56477 0.09335 0.58179 0.0
C2160 C 0.59079 0.07623 0.57187 0.0
C2161 C 0.60179 0.06866 0.55517 0.0
C2162 C 0.54076 0.10618 0.52461 0.0
C2163 C 0.56685 0.09214 0.54874 0.0
C2164 C 0.52235 0.11615 0.52112 0.0
C2165 C 0.51072 0.12352 0.53751 0.0
C2166 C 0.54768 0.10344 0.54466 0.0
C2167 C 0.51824 0.12072 0.55734 0.0
C2168 C 0.57331 0.08799 0.56872 0.0
C2169 C 0.59525 0.07367 0.5355 0.0
N2170 N 0.53623 0.11081 0.56038 0.0
N2171 N 0.57813 0.085 0.53281 0.0
H2172 H 0.39111 0.23833 0.7348 0.0
H2173 H 0.29285 0.18212 0.69012 0.0
H2174 H 0.34291 0.2696 0.70263 0.0
H2175 H 0.34395 0.15027 0.71634 0.0
H2176 H 0.31157 0.21425 0.69334 0.0
H2177 H 0.37489 0.20587 0.72683 0.0
C2178 C 0.37718 0.23837 0.72591 0.0
C2179 C 0.36827 0.25675 0.71948 0.0
C2180 C 0.31881 0.20025 0.69824 0.0
C2181 C 0.34955 0.21956 0.71042 0.0
C2182 C 0.30813 0.18198 0.69643 0.0
C2183 C 0.31698 0.16371 0.70299 0.0
C2184 C 0.33842 0.20021 0.70685 0.0
C2185 C 0.33674 0.16413 0.71103 0.0
C2186 C 0.36793 0.2198 0.72136 0.0
C2187 C 0.35029 0.25583 0.70794 0.0
N2188 N 0.34679 0.18215 0.71287 0.0
N2189 N 0.34142 0.23754 0.70392 0.0
H2190 H 0.48858 0.37339 0.52121 0.0
H2191 H 0.43145 0.46707 0.57348 0.0
H2192 H 0.51883 0.41632 0.56084 0.0
H2193 H 0.39995 0.41855 0.5425 0.0
H2194 H 0.4636 0.4484 0.56961 0.0
H2195 H 0.45597 0.38929 0.52935 0.0
C2196 C 0.48836 0.38611 0.53173 0.0
C2197 C 0.5065 0.39362 0.54028 0.0
C2198 C 0.44967 0.44171 0.56381 0.0
C2199 C 0.46914 0.41198 0.54957 0.0
C2200 C 0.4314 0.45235 0.566 0.0
C2201 C 0.41325 0.44423 0.55822 0.0
C2202 C 0.44975 0.4229 0.55358 0.0
C2203 C 0.41375 0.42519 0.54868 0.0
C2204 C 0.4697 0.39516 0.53639 0.0
C2205 C 0.50524 0.41006 0.55387 0.0
N2206 N 0.43178 0.4152 0.54647 0.0
N2207 N 0.48689 0.41881 0.55797 0.0
H2208 H 0.82302 0.63169 0.75336 0.0
H2209 H 0.77299 0.68861 0.6575 0.0
H2210 H 0.75822 0.63799 0.74326 0.0
H2211 H 0.83788 0.68583 0.66767 0.0
H2212 H 0.76765 0.66733 0.6876 0.0
H2213 H 0.82925 0.6491 0.72084 0.0
C2214 C 0.81012 0.63668 0.74431 0.0
C2215 C 0.79008 0.63353 0.75114 0.0
C2216 C 0.78309 0.67124 0.68324 0.0
C2217 C 0.79706 0.65331 0.714 0.0
C2218 C 0.7861 0.68337 0.66608 0.0
C2219 C 0.80585 0.68907 0.66035 0.0
C2220 C 0.79999 0.66479 0.69476 0.0
C2221 C 0.8224 0.6817 0.67169 0.0
C2222 C 0.81368 0.64659 0.72577 0.0
C2223 C 0.77394 0.64025 0.73877 0.0
N2224 N 0.81911 0.67005 0.68852 0.0
N2225 N 0.7778 0.64983 0.72088 0.0
H2226 H 0.91722 0.96493 0.61011 0.0
H2227 H 0.91946 0.94872 0.48897 0.0
H2228 H 0.96839 0.93954 0.57765 0.0
H2229 H 0.87149 0.98067 0.52082 0.0
H2230 H 0.93572 0.94141 0.52174 0.0
H2231 H 0.89835 0.96725 0.57788 0.0
C2232 C 0.92434 0.95967 0.59617 0.0
C2233 C 0.94426 0.95205 0.59635 0.0
C2234 C 0.92156 0.94989 0.52154 0.0
C2235 C 0.92305 0.95473 0.55958 0.0
C2236 C 0.91223 0.954 0.50285 0.0
C2237 C 0.89418 0.96546 0.50213 0.0
C2238 C 0.91273 0.95726 0.53964 0.0
C2239 C 0.88548 0.97192 0.52061 0.0
C2240 C 0.91366 0.96105 0.5778 0.0
C2241 C 0.95302 0.94559 0.57797 0.0
N2242 N 0.8949 0.96782 0.53858 0.0
N2243 N 0.94238 0.94713 0.56028 0.0
H2244 H 0.1725 0.82787 0.66718 0.0
H2245 H 0.25576 0.86915 0.74575 0.0
H2246 H 0.23746 0.82202 0.65886 0.0
H2247 H 0.19158 0.8827 0.7518 0.0
H2248 H 0.24891 0.85234 0.71353 0.0
H2249 H 0.17865 0.84909 0.69738 0.0
C2250 C 0.18804 0.83134 0.67157 0.0
C2251 C 0.20453 0.82308 0.66074 0.0
C2252 C 0.23628 0.85902 0.72181 0.0
C2253 C 0.21169 0.84695 0.69523 0.0
C2254 C 0.24017 0.86855 0.74033 0.0
C2255 C 0.22419 0.87724 0.75161 0.0
C2256 C 0.21621 0.85796 0.71444 0.0
C2257 C 0.20434 0.87616 0.74363 0.0
C2258 C 0.19155 0.84331 0.68884 0.0
C2259 C 0.22436 0.82784 0.66705 0.0
N2260 N 0.20088 0.86657 0.72555 0.0
N2261 N 0.22739 0.83932 0.68397 0.0
H2262 H 0.09457 0.56134 0.49056 0.0
H2263 H 0.09328 0.54367 0.6115 0.0
H2264 H 0.13778 0.5231 0.52227 0.0
H2265 H 0.04368 0.57096 0.57818 0.0
H2266 H 0.11233 0.53998 0.57945 0.0
H2267 H 0.07819 0.56911 0.52316 0.0
C2268 C 0.10071 0.55471 0.50437 0.0
C2269 C 0.11748 0.54145 0.50367 0.0
C2270 C 0.09733 0.54689 0.57916 0.0
C2271 C 0.09882 0.55025 0.54098 0.0
C2272 C 0.08656 0.54904 0.5974 0.0
C2273 C 0.06701 0.5576 0.59727 0.0
C2274 C 0.08843 0.55343 0.56077 0.0
C2275 C 0.05876 0.56423 0.57874 0.0
C2276 C 0.09132 0.5591 0.52297 0.0
C2277 C 0.1248 0.5333 0.52207 0.0
N2278 N 0.0695 0.56198 0.56118 0.0
N2279 N 0.11539 0.53779 0.53995 0.0
H2280 H 0.82079 0.37786 0.75944 0.0
H2281 H 0.77077 0.31894 0.85417 0.0
H2282 H 0.75615 0.36763 0.76692 0.0
H2283 H 0.83568 0.32281 0.84443 0.0
H2284 H 0.76527 0.33953 0.82357 0.0
H2285 H 0.82682 0.36019 0.79182 0.0
C2286 C 0.80788 0.37194 0.76787 0.0
C2287 C 0.78795 0.37412 0.76038 0.0
C2288 C 0.78075 0.33598 0.82814 0.0
C2289 C 0.79471 0.35403 0.7974 0.0
C2290 C 0.78384 0.32424 0.84557 0.0
C2291 C 0.80366 0.3191 0.85163 0.0
C2292 C 0.79762 0.34265 0.81671 0.0
C2293 C 0.82015 0.32655 0.84023 0.0
C2294 C 0.81133 0.36186 0.78634 0.0
C2295 C 0.77179 0.36618 0.77198 0.0
N2296 N 0.81677 0.33787 0.8232 0.0
N2297 N 0.77553 0.3565 0.78985 0.0
H2298 H 0.59785 0.94675 0.52025 0.0
H2299 H 0.59508 0.9668 0.39968 0.0
H2300 H 0.63869 0.98795 0.48913 0.0
H2301 H 0.54758 0.93558 0.43255 0.0
H2302 H 0.61427 0.97052 0.43165 0.0
H2303 H 0.58212 0.93833 0.4875 0.0
C2304 C 0.60362 0.9539 0.50653 0.0
C2305 C 0.6195 0.96818 0.50746 0.0
C2306 C 0.59973 0.96272 0.43185 0.0
C2307 C 0.6016 0.95863 0.46996 0.0
C2308 C 0.58889 0.96054 0.41365 0.0
C2309 C 0.56985 0.95095 0.41371 0.0
C2310 C 0.59139 0.95515 0.45011 0.0
C2311 C 0.56226 0.94313 0.43207 0.0
C2312 C 0.5946 0.94913 0.48785 0.0
C2313 C 0.62637 0.97696 0.48917 0.0
N2314 N 0.57302 0.94547 0.44959 0.0
N2315 N 0.61734 0.9721 0.47119 0.0
H2316 H 0.19368 0.22014 0.82914 0.0
H2317 H 0.23717 0.12154 0.77271 0.0
H2318 H 0.21934 0.1687 0.86087 0.0
H2319 H 0.20492 0.16974 0.74156 0.0
H2320 H 0.22978 0.138 0.80517 0.0
H2321 H 0.19687 0.20157 0.79693 0.0
C2322 C 0.19991 0.20485 0.82923 0.0
C2323 C 0.2063 0.19583 0.84749 0.0
C2324 C 0.22418 0.14492 0.79127 0.0
C2325 C 0.21005 0.17454 0.81091 0.0
C2326 C 0.2284 0.13553 0.7727 0.0
C2327 C 0.22176 0.14435 0.75436 0.0
C2328 C 0.21337 0.16337 0.79156 0.0
C2329 C 0.21037 0.16242 0.75532 0.0
C2330 C 0.20168 0.19424 0.81092 0.0
C2331 C 0.21419 0.17604 0.84701 0.0
N2332 N 0.20667 0.17143 0.77361 0.0
N2333 N 0.21597 0.16606 0.82894 0.0
H2334 H 0.384 0.50968 0.49222 0.0
H2335 H 0.43376 0.59129 0.41655 0.0
H2336 H 0.38457 0.57425 0.50488 0.0
H2337 H 0.436 0.52625 0.40781 0.0
H2338 H 0.41248 0.58611 0.44695 0.0
H2339 H 0.40008 0.51619 0.45956 0.0
C2340 C 0.38754 0.52528 0.48816 0.0
C2341 C 0.38313 0.54144 0.50146 0.0
C2342 C 0.41747 0.573 0.43827 0.0
C2343 C 0.40159 0.54903 0.46379 0.0
C2344 C 0.42946 0.57595 0.4209 0.0
C2345 C 0.43668 0.55913 0.40989 0.0
C2346 C 0.41268 0.55308 0.44451 0.0
C2347 C 0.43089 0.53957 0.41611 0.0
C2348 C 0.39669 0.52899 0.4694 0.0
C2349 C 0.3878 0.56133 0.49514 0.0
N2350 N 0.41934 0.53708 0.43308 0.0
N2351 N 0.39691 0.56458 0.47676 0.0
H2352 H 0.64861 0.79065 0.66947 0.0
H2353 H 0.76964 0.80861 0.66858 0.0
H2354 H 0.68163 0.81847 0.71891 0.0
H2355 H 0.73822 0.77007 0.62549 0.0
H2356 H 0.73693 0.81624 0.68486 0.0
H2357 H 0.68083 0.78674 0.65068 0.0
C2358 C 0.66269 0.79605 0.67622 0.0
C2359 C 0.66269 0.8048 0.69566 0.0
C2360 C 0.73721 0.80619 0.67178 0.0
C2361 C 0.69936 0.80044 0.67453 0.0
C2362 C 0.75587 0.80187 0.66245 0.0
C2363 C 0.75669 0.78858 0.64573 0.0
C2364 C 0.71925 0.79724 0.66426 0.0
C2365 C 0.73833 0.7803 0.63843 0.0
C2366 C 0.68102 0.79378 0.6656 0.0
C2367 C 0.68118 0.81154 0.70394 0.0
N2368 N 0.72038 0.78472 0.64776 0.0
N2369 N 0.69882 0.8092 0.69334 0.0
H2370 H 0.73832 0.23833 0.88992 0.0
H2371 H 0.68231 0.18639 0.79538 0.0
H2372 H 0.76899 0.1989 0.84707 0.0
H2373 H 0.65024 0.21777 0.84331 0.0
H2374 H 0.71415 0.18999 0.81459 0.0
H2375 H 0.70585 0.23021 0.87371 0.0
C2376 C 0.73822 0.22785 0.87717 0.0
C2377 C 0.75644 0.21937 0.86975 0.0
C2378 C 0.70016 0.19595 0.82104 0.0
C2379 C 0.71926 0.21012 0.85103 0.0
C2380 C 0.68206 0.1939 0.81009 0.0
C2381 C 0.66385 0.20187 0.81788 0.0
C2382 C 0.70001 0.20622 0.83983 0.0
C2383 C 0.66409 0.21144 0.83691 0.0
C2384 C 0.71965 0.2232 0.86794 0.0
C2385 C 0.75534 0.20582 0.85326 0.0
N2386 N 0.68197 0.21351 0.84721 0.0
N2387 N 0.73708 0.20175 0.84434 0.0
H2388 H 0.4396 0.00986 0.37706 0.0
H2389 H 0.4871 0.10445 0.43791 0.0
H2390 H 0.50357 0.01754 0.3907 0.0
H2391 H 0.42233 0.09454 0.4326 0.0
H2392 H 0.49317 0.0747 0.41643 0.0
H2393 H 0.43263 0.04263 0.39377 0.0
C2394 C 0.45216 0.01842 0.38352 0.0
C2395 C 0.47217 0.01085 0.38267 0.0
C2396 C 0.47759 0.07905 0.4198 0.0
C2397 C 0.46436 0.04826 0.40154 0.0
C2398 C 0.47416 0.09602 0.43203 0.0
C2399 C 0.45423 0.10168 0.43715 0.0
C2400 C 0.46095 0.06759 0.41268 0.0
C2401 C 0.43793 0.09056 0.42894 0.0
C2402 C 0.44817 0.0371 0.39302 0.0
C2403 C 0.48787 0.0226 0.3912 0.0
N2404 N 0.44164 0.07385 0.41723 0.0
N2405 N 0.48362 0.04065 0.40027 0.0
H2406 H 0.36269 0.29245 0.84317 0.0
H2407 H 0.24138 0.30847 0.84149 0.0
H2408 H 0.32983 0.31713 0.79195 0.0
H2409 H 0.2733 0.27601 0.88904 0.0
H2410 H 0.27409 0.31538 0.82492 0.0
H2411 H 0.33043 0.28964 0.86201 0.0
C2412 C 0.34864 0.2974 0.83602 0.0
C2413 C 0.34872 0.30499 0.8161 0.0
C2414 C 0.27392 0.30685 0.83905 0.0
C2415 C 0.31195 0.30182 0.83729 0.0
C2416 C 0.25526 0.30297 0.84855 0.0
C2417 C 0.25458 0.29153 0.8666 0.0
C2418 C 0.29203 0.29929 0.84769 0.0
C2419 C 0.27307 0.28479 0.87507 0.0
C2420 C 0.33027 0.29575 0.84668 0.0
C2421 C 0.33023 0.31109 0.80731 0.0
N2422 N 0.29102 0.28869 0.8655 0.0
N2423 N 0.31255 0.30935 0.81795 0.0
H2424 H 0.01307 0.98902 0.87603 0.0
H2425 H 0.0242 0.90596 0.93951 0.0
H2426 H 0.06929 0.00998 0.90318 0.0
H2427 H 0.08875 0.91812 0.9374 0.0
H2428 H 0.01799 0.93658 0.91943 0.0
H2429 H 0.01889 0.9555 0.89056 0.0
C2430 C 0.02662 0.98662 0.88518 0.0
C2431 C 0.04056 1.00248 0.88867 0.0
C2432 C 0.03359 0.93235 0.92278 0.0
C2433 C 0.04703 0.96407 0.90592 0.0
C2434 C 0.03708 0.91496 0.93441 0.0
C2435 C 0.05696 0.90964 0.94001 0.0
C2436 C 0.05017 0.94451 0.91668 0.0
C2437 C 0.0732 0.92174 0.93317 0.0
C2438 C 0.02983 0.96745 0.89364 0.0
C2439 C 0.05803 0.99827 0.9003 0.0
N2440 N 0.06943 0.93883 0.92205 0.0
N2441 N 0.06073 0.97945 0.90861 0.0
H2442 H 0.75709 0.18683 0.13763 0.0
H2443 H 0.85561 0.23748 0.18914 0.0
H2444 H 0.77 0.25135 0.13772 0.0
H2445 H 0.84517 0.17266 0.18805 0.0
H2446 H 0.82497 0.24245 0.16849 0.0
H2447 H 0.78993 0.18078 0.15453 0.0
C2448 C 0.76682 0.1997 0.14114 0.0
C2449 C 0.76068 0.21964 0.13642 0.0
C2450 C 0.8294 0.2271 0.17261 0.0
C2451 C 0.79818 0.21285 0.15566 0.0
C2452 C 0.84686 0.2243 0.18439 0.0
C2453 C 0.85273 0.20468 0.19033 0.0
C2454 C 0.81766 0.21013 0.16682 0.0
C2455 C 0.8411 0.18804 0.18366 0.0
C2456 C 0.78555 0.19624 0.15076 0.0
C2457 C 0.77393 0.23573 0.14126 0.0
N2458 N 0.82398 0.19114 0.17238 0.0
N2459 N 0.79197 0.23199 0.15065 0.0
H2460 H 0.42043 0.91571 0.07855 0.0
H2461 H 0.44142 0.99837 0.1434 0.0
H2462 H 0.4858 0.91071 0.07357 0.0
H2463 H 0.49993 0.99823 0.11315 0.0
H2464 H 0.43297 0.9664 0.12622 0.0
H2465 H 0.42466 0.94608 0.09971 0.0
C2466 C 0.43569 0.9208 0.08232 0.0
C2467 C 0.45281 0.91082 0.07432 0.0
C2468 C 0.44752 0.9735 0.12308 0.0
C2469 C 0.45788 0.94543 0.09854 0.0
C2470 C 0.45241 0.99171 0.13302 0.0
C2471 C 0.47136 1.00108 0.12962 0.0
C2472 C 0.46174 0.96464 0.10969 0.0
C2473 C 0.48509 0.99168 0.11616 0.0
C2474 C 0.43812 0.93814 0.09443 0.0
C2475 C 0.47223 0.91817 0.07928 0.0
N2476 N 0.48002 0.97399 0.10678 0.0
N2477 N 0.47422 0.93513 0.09092 0.0
H2478 H 0.54569 0.61031 0.09141 0.0
H2479 H 0.55854 0.48881 0.0917 0.0
H2480 H 0.5702 0.57632 0.04088 0.0
H2481 H 0.52308 0.52187 0.13624 0.0
H2482 H 0.56685 0.52111 0.07499 0.0
H2483 H 0.54113 0.57832 0.11029 0.0
C2484 C 0.55025 0.59606 0.08444 0.0
C2485 C 0.55828 0.59574 0.06469 0.0
C2486 C 0.55732 0.52127 0.08847 0.0
C2487 C 0.55311 0.55929 0.08591 0.0
C2488 C 0.55263 0.50285 0.09805 0.0
C2489 C 0.54001 0.50263 0.11532 0.0
C2490 C 0.54945 0.53958 0.09631 0.0
C2491 C 0.53277 0.5213 0.12288 0.0
C2492 C 0.54759 0.57785 0.09511 0.0
C2493 C 0.56388 0.57702 0.05612 0.0
N2494 N 0.53756 0.539 0.11331 0.0
N2495 N 0.56117 0.55949 0.06677 0.0
H2496 H 0.04918 0.28355 0.27588 0.0
H2497 H 0.97334 0.21423 0.21126 0.0
H2498 H 0.0425 0.29243 0.21113 0.0
H2499 H 0.96243 0.23016 0.27408 0.0
H2500 H 1.00228 0.23832 0.21071 0.0
H2501 H 0.02034 0.25998 0.27537 0.0
C2502 C 0.04143 0.28071 0.26158 0.0
C2503 C 0.04808 0.29013 0.24357 0.0
C2504 C 0.99356 0.23639 0.2246 0.0
C2505 C 0.01542 0.26256 0.24274 0.0
C2506 C 0.97727 0.22249 0.225 0.0
C2507 C 0.96555 0.22014 0.24278 0.0
C2508 C 0.99836 0.24762 0.24222 0.0
C2509 C 0.97106 0.23148 0.26006 0.0
C2510 C 0.02503 0.2672 0.26128 0.0
C2511 C 0.03762 0.28572 0.2254 0.0
N2512 N 0.98707 0.2446 0.25938 0.0
N2513 N 0.02192 0.27203 0.22538 0.0
H2514 H 0.51008 0.69588 0.01756 0.0
H2515 H 0.50327 0.81642 0.01704 0.0
H2516 H 0.56279 0.73343 0.02937 0.0
H2517 H 0.45111 0.77858 0.03035 0.0
H2518 H 0.52524 0.78643 0.0189 0.0
H2519 H 0.48837 0.72596 0.01968 0.0
C2520 C 0.51714 0.71049 0.02061 0.0
C2521 C 0.53839 0.71211 0.02314 0.0
C2522 C 0.50902 0.78468 0.02151 0.0
C2523 C 0.51339 0.74681 0.02543 0.0
C2524 C 0.49638 0.80178 0.02032 0.0
C2525 C 0.47519 0.80004 0.02339 0.0
C2526 C 0.50047 0.76551 0.02544 0.0
C2527 C 0.46729 0.78066 0.02783 0.0
C2528 C 0.50465 0.72765 0.02193 0.0
C2529 C 0.54653 0.73146 0.0273 0.0
N2530 N 0.4799 0.76413 0.02849 0.0
N2531 N 0.53404 0.74811 0.02806 0.0
H2532 H 0.94655 0.75977 0.26589 0.0
H2533 H 0.06719 0.75221 0.26522 0.0
H2534 H 0.98461 0.81209 0.27771 0.0
H2535 H 0.02903 0.70027 0.2784 0.0
H2536 H 0.0373 0.77429 0.26705 0.0
H2537 H 0.97652 0.73786 0.26776 0.0
C2538 C 0.96124 0.76671 0.26885 0.0
C2539 C 0.96304 0.78791 0.27148 0.0
C2540 C 0.03545 0.75809 0.26964 0.0
C2541 C 0.99759 0.76268 0.27353 0.0
C2542 C 0.0525 0.74539 0.26847 0.0
C2543 C 0.05065 0.72424 0.27151 0.0
C2544 C 0.01621 0.74965 0.27353 0.0
C2545 C 0.0312 0.71643 0.27591 0.0
C2546 C 0.97834 0.7541 0.27004 0.0
C2547 C 0.98249 0.79588 0.27555 0.0
N2548 N 0.01471 0.72911 0.27656 0.0
N2549 N 0.99906 0.78327 0.27621 0.0
H2550 H 0.94893 0.73298 0.98295 0.0
H2551 H 0.06319 0.77707 0.98311 0.0
H2552 H 1.0017 0.6956 0.99524 0.0
H2553 H 0.01038 0.81411 0.9962 0.0
H2554 H 0.04084 0.74694 0.98155 0.0
H2555 H 0.97132 0.76307 0.98181 0.0
C2556 C 0.96517 0.73107 0.98534 0.0
C2557 C 0.97336 0.71173 0.98941 0.0
C2558 C 0.03422 0.76172 0.98473 0.0
C2559 C 0.99909 0.74598 0.98779 0.0
C2560 C 0.04695 0.7789 0.98558 0.0
C2561 C 0.03873 0.79814 0.99001 0.0
C2562 C 0.01307 0.76388 0.98791 0.0
C2563 C 0.0175 0.79957 0.993 0.0
C2564 C 0.97794 0.74823 0.98473 0.0
C2565 C 0.99461 0.7102 0.99231 0.0
N2566 N 1.00545 0.78276 0.99183 0.0
N2567 N 0.00669 0.72702 0.99137 0.0
H2568 H 0.24553 0.94526 0.25178 0.0
H2569 H 0.24668 0.06574 0.25928 0.0
H2570 H 0.23377 0.98344 0.19952 0.0
H2571 H 0.23308 0.02788 0.31132 0.0
H2572 H 0.24475 0.03584 0.2373 0.0
H2573 H 0.24377 0.97517 0.27375 0.0
C2574 C 0.24261 0.95996 0.24487 0.0
C2575 C 0.23995 0.96181 0.22366 0.0
C2576 C 0.24209 0.03406 0.25349 0.0
C2577 C 0.23802 0.99628 0.24896 0.0
C2578 C 0.24331 0.0511 0.26614 0.0
C2579 C 0.2402 0.04934 0.28729 0.0
C2580 C 0.23808 0.01489 0.26198 0.0
C2581 C 0.23563 0.02997 0.29515 0.0
C2582 C 0.24148 0.97702 0.25751 0.0
C2583 C 0.23596 0.98128 0.21573 0.0
N2584 N 0.23494 0.01345 0.28253 0.0
N2585 N 0.23535 0.99779 0.22836 0.0
H2586 H 0.29044 0.54929 0.96537 0.0
H2587 H 0.21406 0.4854 0.03464 0.0
H2588 H 0.3014 0.48661 0.98177 0.0
H2589 H 0.22159 0.54998 0.04386 0.0
H2590 H 0.24306 0.48564 0.0112 0.0
H2591 H 0.26156 0.55002 0.98953 0.0
C2592 C 0.28655 0.53562 0.97376 0.0
C2593 C 0.29825 0.51783 0.9715 0.0
C2594 C 0.23852 0.49975 0.01847 0.0
C2595 C 0.26549 0.51858 0.99905 0.0
C2596 C 0.22203 0.4996 0.03191 0.0
C2597 C 0.21559 0.51765 0.04138 0.0
C2598 C 0.24839 0.51818 0.01396 0.0
C2599 C 0.22631 0.53569 0.03711 0.0
C2600 C 0.27029 0.53612 0.9877 0.0
C2601 C 0.29278 0.50064 0.98302 0.0
N2602 N 0.24207 0.53556 0.02349 0.0
N2603 N 0.27678 0.5014 0.99616 0.0
H2604 H 0.77942 0.52791 0.19928 0.0
H2605 H 0.77913 0.48398 0.31354 0.0
H2606 H 0.76686 0.56539 0.25185 0.0
H2607 H 0.7658 0.44703 0.26079 0.0
H2608 H 0.78097 0.5141 0.29116 0.0
H2609 H 0.78076 0.49791 0.22177 0.0
C2610 C 0.77703 0.52986 0.2155 0.0
C2611 C 0.7728 0.54919 0.22361 0.0
C2612 C 0.77769 0.49934 0.28456 0.0
C2613 C 0.77465 0.51506 0.24944 0.0
C2614 C 0.77669 0.48218 0.29731 0.0
C2615 C 0.77207 0.46298 0.28911 0.0
C2616 C 0.7745 0.49719 0.26344 0.0
C2617 C 0.76913 0.46155 0.26789 0.0
C2618 C 0.77775 0.51275 0.22832 0.0
C2619 C 0.7699 0.55078 0.24483 0.0
N2620 N 0.77045 0.47834 0.25584 0.0
N2621 N 0.77095 0.53401 0.25697 0.0
H2622 H 0.79057 0.96145 0.04562 0.0
H2623 H 0.71193 0.02544 0.9791 0.0
H2624 H 0.80012 0.02477 0.03092 0.0
H2625 H 0.72181 0.96161 0.96712 0.0
H2626 H 0.74096 0.02522 1.00252 0.0
H2627 H 0.76146 0.96085 0.02175 0.0
C2628 C 0.78631 0.97528 0.03767 0.0
C2629 C 0.79769 0.99322 0.04031 0.0
C2630 C 0.7369 0.01128 0.99466 0.0
C2631 C 0.76466 0.99262 0.01312 0.0
C2632 C 0.72039 0.01141 0.98124 0.0
C2633 C 0.71461 0.99357 0.97099 0.0
C2634 C 0.74745 0.99305 0.99835 0.0
C2635 C 0.72598 0.97576 0.9745 0.0
C2636 C 0.76992 0.97486 0.0239 0.0
C2637 C 0.79175 0.01063 0.02937 0.0
N2638 N 0.74175 0.97587 0.9881 0.0
N2639 N 0.77562 0.00993 0.01639 0.0
H2640 H 0.22839 0.27572 0.96282 0.0
H2641 H 0.29612 0.21129 0.04037 0.0
H2642 H 0.21889 0.21114 0.97008 0.0
H2643 H 0.28109 0.27455 0.04987 0.0
H2644 H 0.27229 0.21059 0.01123 0.0
H2645 H 0.25162 0.27531 0.99192 0.0
C2646 C 0.23103 0.26147 0.97074 0.0
C2647 C 0.22153 0.24348 0.96417 0.0
C2648 C 0.27435 0.2246 0.01969 0.0
C2649 C 0.24871 0.24277 0.99718 0.0
C2650 C 0.28811 0.22508 0.03611 0.0
C2651 C 0.29065 0.24304 0.04749 0.0
C2652 C 0.26345 0.24231 0.01443 0.0
C2653 C 0.27962 0.26039 0.04153 0.0
C2654 C 0.24435 0.26123 0.9873 0.0
C2655 C 0.22566 0.22539 0.97488 0.0
N2656 N 0.26664 0.25962 0.02542 0.0
N2657 N 0.23916 0.22543 0.99075 0.0
H2658 H 0.31317 0.77902 0.48407 0.0
H2659 H 0.19913 0.7785 0.52869 0.0
H2660 H 0.26036 0.76543 0.44723 0.0
H2661 H 0.25211 0.76635 0.5658 0.0
H2662 H 0.22138 0.7798 0.49848 0.0
H2663 H 0.29092 0.78043 0.51429 0.0
C2664 C 0.29695 0.77641 0.48231 0.0
C2665 C 0.2887 0.77189 0.4631 0.0
C2666 C 0.22807 0.77689 0.51329 0.0
C2667 C 0.26315 0.77383 0.49746 0.0
C2668 C 0.21539 0.7762 0.53051 0.0
C2669 C 0.22369 0.77211 0.5498 0.0
C2670 C 0.24924 0.77389 0.51543 0.0
C2671 C 0.24495 0.7693 0.55123 0.0
C2672 C 0.28427 0.77717 0.49954 0.0
C2673 C 0.26749 0.76871 0.46175 0.0
N2674 N 0.25695 0.77031 0.53435 0.0
N2675 N 0.25549 0.76982 0.47862 0.0
H2676 H 0.02881 0.44845 0.77801 0.0
H2677 H 0.02971 0.56248 0.73357 0.0
H2678 H 0.01653 0.50136 0.81509 0.0
H2679 H 0.01615 0.50975 0.6967 0.0
H2680 H 0.0314 0.54019 0.76374 0.0
H2681 H 0.03068 0.47075 0.74788 0.0
C2682 C 0.02661 0.4647 0.77984 0.0
C2683 C 0.02228 0.47297 0.79908 0.0
C2684 C 0.02811 0.53356 0.74899 0.0
C2685 C 0.02473 0.49857 0.76483 0.0
C2686 C 0.0272 0.54627 0.73179 0.0
C2687 C 0.02255 0.53805 0.71261 0.0
C2688 C 0.02479 0.51246 0.74688 0.0
C2689 C 0.0195 0.51685 0.71121 0.0
C2690 C 0.02763 0.47741 0.76266 0.0
C2691 C 0.01963 0.49423 0.80054 0.0
N2692 N 0.02073 0.50484 0.72804 0.0
N2693 N 0.02095 0.50625 0.78371 0.0
H2694 H 0.69852 0.73247 0.48361 0.0
H2695 H 0.81263 0.73257 0.52796 0.0
H2696 H 0.75132 0.74514 0.44639 0.0
H2697 H 0.75975 0.74566 0.56491 0.0
H2698 H 0.79036 0.73109 0.49776 0.0
H2699 H 0.72085 0.73122 0.51374 0.0
C2700 C 0.71476 0.73491 0.48175 0.0
C2701 C 0.72298 0.73913 0.46245 0.0
C2702 C 0.7837 0.73425 0.51254 0.0
C2703 C 0.74863 0.73738 0.49673 0.0
C2704 C 0.79639 0.73505 0.52975 0.0
C2705 C 0.78813 0.73946 0.54898 0.0
C2706 C 0.76256 0.73745 0.51466 0.0
C2707 C 0.7669 0.74248 0.55038 0.0
C2708 C 0.72749 0.73424 0.49893 0.0
C2709 C 0.74421 0.7421 0.46097 0.0
N2710 N 0.75489 0.74135 0.53353 0.0
N2711 N 0.75626 0.7411 0.47781 0.0
H2712 H 0.4834 0.44852 0.23418 0.0
H2713 H 0.48303 0.56266 0.27818 0.0
H2714 H 0.49683 0.50119 0.19713 0.0
H2715 H 0.49489 0.50993 0.31568 0.0
H2716 H 0.4821 0.54029 0.24807 0.0
H2717 H 0.48162 0.47087 0.26427 0.0
C2718 C 0.48589 0.46473 0.23234 0.0
C2719 C 0.49048 0.47291 0.21311 0.0
C2720 C 0.48487 0.53368 0.26294 0.0
C2721 C 0.48814 0.49858 0.24733 0.0
C2722 C 0.48536 0.54643 0.28011 0.0
C2723 C 0.48925 0.53824 0.29949 0.0
C2724 C 0.48788 0.51255 0.26523 0.0
C2725 C 0.49208 0.51702 0.30105 0.0
C2726 C 0.48493 0.47747 0.2495 0.0
C2727 C 0.49351 0.49411 0.21167 0.0
N2728 N 0.49127 0.50495 0.28422 0.0
N2729 N 0.49221 0.50617 0.22847 0.0
H2730 H 0.9827 0.06293 0.77751 0.0
H2731 H 0.98168 0.94899 0.73292 0.0
H2732 H 0.99547 0.00993 0.81431 0.0
H2733 H 0.99507 1.0017 0.69593 0.0
H2734 H 0.98015 0.97128 0.76308 0.0
H2735 H 0.98067 0.04072 0.74731 0.0
C2736 C 0.98497 0.04668 0.77927 0.0
C2737 C 0.98949 0.03836 0.79844 0.0
C2738 C 0.98336 0.9779 0.7483 0.0
C2739 C 0.98685 0.01287 0.76413 0.0
C2740 C 0.98418 0.9652 0.73111 0.0
C2741 C 0.98874 0.97342 0.7119 0.0
C2742 C 0.98667 0.999 0.74617 0.0
C2743 C 0.99178 0.99461 0.71047 0.0
C2744 C 0.98386 0.03402 0.76206 0.0
C2745 C 0.99222 0.01711 0.79981 0.0
N2746 N 0.99064 0.00663 0.72731 0.0
N2747 N 0.9908 1.00514 0.78296 0.0
H2748 H 0.47244 0.71417 0.71208 0.0
H2749 H 0.547 0.78469 0.77667 0.0
H2750 H 0.45993 0.73151 0.77424 0.0
H2751 H 0.54126 0.79254 0.7117 0.0
H2752 H 0.51798 0.7613 0.77615 0.0
H2753 H 0.50123 0.73841 0.71166 0.0
C2754 C 0.47596 0.72279 0.72571 0.0
C2755 C 0.46385 0.72077 0.74326 0.0
C2756 C 0.52291 0.76827 0.76201 0.0
C2757 C 0.49651 0.74842 0.74284 0.0
C2758 C 0.53941 0.78168 0.76232 0.0
C2759 C 0.54637 0.79075 0.74424 0.0
C2760 C 0.51356 0.76337 0.74341 0.0
C2761 C 0.53613 0.78612 0.72601 0.0
C2762 C 0.49218 0.73677 0.72537 0.0
C2763 C 0.46887 0.73257 0.7604 0.0
N2764 N 0.52036 0.77252 0.726 0.0
N2765 N 0.48483 0.74575 0.75979 0.0
H2766 H 1.0035 0.31591 0.51698 0.0
H2767 H 0.01019 0.1954 0.51647 0.0
H2768 H 0.95104 0.27817 0.5293 0.0
H2769 H 0.0627 0.2329 0.52929 0.0
H2770 H 0.98841 0.22545 0.51862 0.0
H2771 H 0.02535 0.28587 0.51897 0.0
C2772 C 0.99652 0.30128 0.5201 0.0
C2773 C 0.97529 0.29959 0.52282 0.0
C2774 C 1.00467 0.22713 0.52107 0.0
C2775 C 1.00044 0.26497 0.52498 0.0
C2776 C 0.0172 0.20999 0.51972 0.0
C2777 C 0.03842 0.2116 0.52254 0.0
C2778 C 0.01334 0.24625 0.52491 0.0
C2779 C 0.04647 0.23092 0.52697 0.0
C2780 C 0.00909 0.28415 0.52135 0.0
C2781 C 0.96727 0.28021 0.52707 0.0
N2782 N 0.03395 0.24754 0.52777 0.0
N2783 N 0.97982 0.26362 0.52777 0.0
H2784 H 0.47181 0.2946 0.80031 0.0
H2785 H 0.55129 0.22917 0.73609 0.0
H2786 H 0.46323 0.28079 0.73664 0.0
H2787 H 0.5414 0.2167 0.79985 0.0
H2788 H 0.52224 0.25251 0.73644 0.0
H2789 H 0.50109 0.27093 0.80096 0.0
C2790 C 0.47631 0.2869 0.78642 0.0
C2791 C 0.46516 0.28972 0.76836 0.0
C2792 C 0.5263 0.24458 0.75034 0.0
C2793 C 0.49838 0.26275 0.76903 0.0
C2794 C 0.54284 0.23121 0.75014 0.0
C2795 C 0.54863 0.22083 0.76792 0.0
C2796 C 0.51569 0.24809 0.76858 0.0
C2797 C 0.53723 0.22419 0.78575 0.0
C2798 C 0.49281 0.27323 0.78687 0.0
C2799 C 0.47141 0.27909 0.75088 0.0
N2800 N 0.52141 0.23774 0.7857 0.0
N2801 N 0.48762 0.2662 0.75162 0.0
H2802 H 0.50971 0.31471 0.49679 0.0
H2803 H 0.5022 0.19416 0.49584 0.0
H2804 H 0.56187 0.27687 0.48336 0.0
H2805 H 0.45002 0.23241 0.48374 0.0
H2806 H 0.52423 0.22408 0.49431 0.0
H2807 H 0.48777 0.28477 0.49506 0.0
C2808 C 0.51661 0.30007 0.49352 0.0
C2809 C 0.53778 0.29833 0.49037 0.0
C2810 C 0.50799 0.22594 0.4919 0.0
C2811 C 0.51251 0.26382 0.48847 0.0
C2812 C 0.49531 0.20888 0.49291 0.0
C2813 C 0.47411 0.21074 0.49006 0.0
C2814 C 0.49947 0.24521 0.48839 0.0
C2815 C 0.46622 0.23023 0.48606 0.0
C2816 C 0.50398 0.28299 0.49241 0.0
C2817 C 0.54569 0.27895 0.48594 0.0
N2818 N 0.47888 0.24673 0.48557 0.0
N2819 N 0.53307 0.2624 0.48534 0.0
H2820 H 0.73307 0.52644 0.81278 0.0
H2821 H 0.73351 0.48217 0.6987 0.0
H2822 H 0.74638 0.56342 0.76002 0.0
H2823 H 0.74581 0.44489 0.75149 0.0
H2824 H 0.73218 0.51228 0.72104 0.0
H2825 H 0.73169 0.49626 0.79049 0.0
C2826 C 0.73561 0.52824 0.79657 0.0
C2827 C 0.74005 0.54748 0.78834 0.0
C2828 C 0.73513 0.49746 0.72767 0.0
C2829 C 0.73817 0.51317 0.76275 0.0
C2830 C 0.73585 0.48029 0.71494 0.0
C2831 C 0.73999 0.46098 0.72315 0.0
C2832 C 0.73815 0.49524 0.74881 0.0
C2833 C 0.74283 0.45948 0.74438 0.0
C2834 C 0.73488 0.51104 0.78387 0.0
C2835 C 0.74316 0.54888 0.76714 0.0
N2836 N 0.74179 0.47631 0.75644 0.0
N2837 N 0.74209 0.53204 0.75513 0.0
H2838 H 0.71279 0.98482 0.53263 0.0
H2839 H 0.79193 0.0495 0.46704 0.0
H2840 H 0.72213 0.0487 0.54472 0.0
H2841 H 0.79978 0.98549 0.47969 0.0
H2842 H 0.76287 0.05012 0.491 0.0
H2843 H 0.74174 0.98529 0.5092 0.0
C2844 C 0.72112 0.99892 0.53051 0.0
C2845 C 0.71518 0.0167 0.54079 0.0
C2846 C 0.77095 0.03597 0.48839 0.0
C2847 C 0.74803 0.0175 0.51342 0.0
C2848 C 0.78733 0.03554 0.47457 0.0
C2849 C 0.79821 0.01739 0.47133 0.0
C2850 C 0.76525 0.01802 0.49863 0.0
C2851 C 0.79182 0.99981 0.48173 0.0
C2852 C 0.7376 0.99919 0.51708 0.0
C2853 C 0.72642 0.0346 0.53731 0.0
N2854 N 0.77576 1.00055 0.49478 0.0
N2855 N 0.74221 0.03462 0.52371 0.0
H2856 H 0.2799 0.98296 0.81357 0.0
H2857 H 0.27945 0.02699 0.69938 0.0
H2858 H 0.26669 0.94567 0.76104 0.0
H2859 H 0.26676 0.06407 0.7522 0.0
H2860 H 0.2811 0.99685 0.72173 0.0
H2861 H 0.28138 0.01298 0.79113 0.0
C2862 C 0.27739 0.98106 0.79737 0.0
C2863 C 0.27295 0.96178 0.78926 0.0
C2864 C 0.27801 0.01164 0.72836 0.0
C2865 C 0.27496 0.99593 0.76347 0.0
C2866 C 0.27712 0.02882 0.71562 0.0
C2867 C 0.27273 0.04806 0.72386 0.0
C2868 C 0.27493 0.01381 0.7495 0.0
C2869 C 0.26991 0.04952 0.74509 0.0
C2870 C 0.2782 0.99817 0.78457 0.0
C2871 C 0.2699 0.96024 0.76806 0.0
N2872 N 0.27111 0.0327 0.75713 0.0
N2873 N 0.27103 0.97702 0.75594 0.0
H2874 H 0.29858 0.52534 0.53426 0.0
H2875 H 0.22201 0.4616 0.46515 0.0
H2876 H 0.29103 0.46076 0.54351 0.0
H2877 H 0.21113 0.52426 0.48166 0.0
H2878 H 0.25092 0.46081 0.48925 0.0
H2879 H 0.26955 0.52513 0.51088 0.0
C2880 C 0.29061 0.51114 0.53154 0.0
C2881 C 0.29706 0.49309 0.54101 0.0
C2882 C 0.2422 0.47471 0.48746 0.0
C2883 C 0.2642 0.4926 0.51367 0.0
C2884 C 0.22591 0.47525 0.47356 0.0
C2885 C 0.21422 0.49306 0.47135 0.0
C2886 C 0.24704 0.49223 0.49882 0.0
C2887 C 0.21973 0.51022 0.48288 0.0
C2888 C 0.2741 0.51102 0.51814 0.0
C2889 C 0.28632 0.47506 0.53676 0.0
N2890 N 0.23575 0.50941 0.49598 0.0
N2891 N 0.27052 0.4752 0.52318 0.0
H2892 H 0.73017 0.23567 0.05119 0.0
H2893 H 0.79627 0.29989 0.97229 0.0
H2894 H 0.71838 0.29963 0.04191 0.0
H2895 H 0.78169 0.23651 0.96305 0.0
H2896 H 0.77261 0.3005 1.00158 0.0
H2897 H 0.75346 0.23601 0.02208 0.0
C2898 C 0.73234 0.24976 0.04285 0.0
C2899 C 0.72217 0.2676 0.04883 0.0
C2900 C 0.77474 0.28648 0.99315 0.0
C2901 C 0.74938 0.26825 0.01585 0.0
C2902 C 0.7884 0.28605 0.97665 0.0
C2903 C 0.791 0.26809 0.9653 0.0
C2904 C 0.76404 0.2687 0.99854 0.0
C2905 C 0.78016 0.25067 0.97138 0.0
C2906 C 0.74568 0.24995 0.02629 0.0
C2907 C 0.7257 0.28548 0.03759 0.0
N2908 N 0.76729 0.25138 0.9876 0.0
N2909 N 0.73923 0.28543 0.02175 0.0
H2910 H 0.52893 0.94849 0.27832 0.0
H2911 H 0.52906 0.06224 0.23342 0.0
H2912 H 0.51671 1.00153 0.31522 0.0
H2913 H 0.51528 0.00951 0.19662 0.0
H2914 H 0.53063 0.04004 0.26361 0.0
H2915 H 0.53004 0.97058 0.24798 0.0
C2916 C 0.52658 0.96473 0.28006 0.0
C2917 C 0.52252 0.97309 0.29933 0.0
C2918 C 0.5273 0.03338 0.24888 0.0
C2919 C 0.52409 0.99846 0.26483 0.0
C2920 C 0.52644 0.04604 0.23166 0.0
C2921 C 0.52183 0.03781 0.21247 0.0
C2922 C 0.52395 0.01229 0.24683 0.0
C2923 C 0.51864 0.01662 0.21113 0.0
C2924 C 0.52716 0.97732 0.26277 0.0
C2925 C 0.51964 0.99432 0.30067 0.0
N2926 N 0.51983 1.00463 0.228 0.0
N2927 N 0.52056 0.00623 0.28373 0.0
H2928 H 0.15348 0.4891 0.13625 0.0
H2929 H 0.09306 0.38345 0.14676 0.0
H2930 H 0.1365 0.45052 0.08573 0.0
H2931 H 0.11402 0.41737 0.19903 0.0
H2932 H 0.10882 0.40856 0.1245 0.0
H2933 H 0.13977 0.46341 0.15981 0.0
C2934 C 0.14708 0.47519 0.1301 0.0
C2935 C 0.14612 0.47205 0.10891 0.0
C2936 C 0.11012 0.41054 0.14083 0.0
C2937 C 0.13022 0.44273 0.13578 0.0
C2938 C 0.10099 0.39622 0.15359 0.0
C2939 C 0.1024 0.39812 0.17484 0.0
C2940 C 0.12065 0.42715 0.14927 0.0
C2941 C 0.11294 0.41501 0.18276 0.0
C2942 C 0.13919 0.46056 0.14356 0.0
C2943 C 0.13754 0.45374 0.10187 0.0
N2944 N 0.12165 0.42891 0.16997 0.0
N2945 N 0.12989 0.4399 0.11522 0.0
H2946 H 0.73237 0.59673 0.12863 0.0
H2947 H 0.65511 0.68679 0.10387 0.0
H2948 H 0.71089 0.639 0.17425 0.0
H2949 H 0.64997 0.62877 0.07329 0.0
H2950 H 0.68084 0.67202 0.12642 0.0
H2951 H 0.70698 0.6106 0.10467 0.0
C2952 C 0.72228 0.6088 0.13365 0.0
C2953 C 0.7237 0.6166 0.15355 0.0
C2954 C 0.67424 0.66265 0.11454 0.0
C2955 C 0.69516 0.63283 0.12613 0.0
C2956 C 0.6596 0.67107 0.1016 0.0
C2957 C 0.65062 0.65928 0.08614 0.0
C2958 C 0.6802 0.64227 0.11202 0.0
C2959 C 0.65699 0.63886 0.0842 0.0
C2960 C 0.70784 0.61669 0.11999 0.0
C2961 C 0.71028 0.63235 0.15917 0.0
N2962 N 0.67146 0.63105 0.09691 0.0
N2963 N 0.69677 0.64005 0.1455 0.0
H2964 H 0.89756 0.09213 0.20182 0.0
H2965 H 0.87527 0.06072 0.08592 0.0
H2966 H 0.92148 0.12353 0.14923 0.0
H2967 H 0.85957 0.02162 0.1365 0.0
H2968 H 0.88898 0.08551 0.10972 0.0
H2969 H 0.88084 0.06759 0.17899 0.0
C2970 C 0.89915 0.09399 0.18551 0.0
C2971 C 0.91076 0.11007 0.17743 0.0
C2972 C 0.88249 0.07156 0.1157 0.0
C2973 C 0.89185 0.08199 0.15128 0.0
C2974 C 0.87455 0.05736 0.10207 0.0
C2975 C 0.8663 0.03892 0.10914 0.0
C2976 C 0.88227 0.06747 0.1367 0.0
C2977 C 0.86576 0.03561 0.13033 0.0
C2978 C 0.88971 0.07989 0.1725 0.0
C2979 C 0.91273 0.11138 0.15617 0.0
N2980 N 0.87374 0.04971 0.14337 0.0
N2981 N 0.90333 0.09763 0.1439 0.0
H2982 H 0.34338 0.8633 0.0614 0.0
H2983 H 0.31089 0.88606 0.177 0.0
H2984 H 0.37505 0.84024 0.11421 0.0
H2985 H 0.27322 0.90287 0.12569 0.0
H2986 H 0.33604 0.8721 0.15359 0.0
H2987 H 0.3188 0.88019 0.08403 0.0
C2988 C 0.34529 0.86193 0.07772 0.0
C2989 C 0.36147 0.85053 0.08591 0.0
C2990 C 0.32233 0.87891 0.14739 0.0
C2991 C 0.3333 0.86964 0.11188 0.0
C2992 C 0.30794 0.887 0.16078 0.0
C2993 C 0.28978 0.89562 0.15337 0.0
C2994 C 0.31868 0.87935 0.1263 0.0
C2995 C 0.28698 0.8964 0.13213 0.0
C2996 C 0.33117 0.87148 0.09063 0.0
C2997 C 0.36282 0.84882 0.10719 0.0
N2998 N 0.30122 0.88827 0.11934 0.0
N2999 N 0.34902 0.85832 0.11938 0.0
H3000 H 0.08975 0.62527 0.36285 0.0
H3001 H 0.1543 0.5223 0.37456 0.0
H3002 H 0.11432 0.59309 0.31104 0.0
H3003 H 0.13633 0.561 0.42468 0.0
H3004 H 0.14006 0.54744 0.35074 0.0
H3005 H 0.10618 0.60084 0.38543 0.0
C3006 C 0.09859 0.61302 0.35619 0.0
C3007 C 0.10083 0.6114 0.335 0.0
C3008 C 0.1394 0.55044 0.36696 0.0
C3009 C 0.11986 0.5832 0.36091 0.0
C3010 C 0.14761 0.53614 0.38057 0.0
C3011 C 0.14648 0.53945 0.40172 0.0
C3012 C 0.12993 0.5681 0.37455 0.0
C3013 C 0.13751 0.55765 0.40857 0.0
C3014 C 0.10811 0.59911 0.36913 0.0
C3015 C 0.11255 0.5952 0.32729 0.0
N3016 N 0.12951 0.57115 0.39507 0.0
N3017 N 0.1216 0.58169 0.34024 0.0
H3018 H 0.77273 0.60568 0.88587 0.0
H3019 H 0.8746 0.67208 0.89749 0.0
H3020 H 0.81009 0.62557 0.83543 0.0
H3021 H 0.84301 0.64639 0.94913 0.0
H3022 H 0.85035 0.65547 0.8748 0.0
H3023 H 0.79792 0.62001 0.9095 0.0
C3024 C 0.7863 0.61282 0.87973 0.0
C3025 C 0.7892 0.61443 0.85855 0.0
C3026 C 0.84871 0.65334 0.89108 0.0
C3027 C 0.81796 0.63112 0.88557 0.0
C3028 C 0.86252 0.66295 0.90409 0.0
C3029 C 0.86102 0.66046 0.92528 0.0
C3030 C 0.83302 0.64125 0.89923 0.0
C3031 C 0.84504 0.64838 0.93289 0.0
C3032 C 0.80064 0.62108 0.89326 0.0
C3033 C 0.80708 0.62398 0.85157 0.0
N3034 N 0.83163 0.63925 0.91989 0.0
N3035 N 0.82063 0.63203 0.865 0.0
H3036 H 0.86032 0.94596 0.41955 0.0
H3037 H 0.92174 0.92725 0.31676 0.0
H3038 H 0.86961 0.994 0.37564 0.0
H3039 H 0.89174 0.87895 0.34954 0.0
H3040 H 0.90457 0.95234 0.33885 0.0
H3041 H 0.87321 0.92131 0.39477 0.0
C3042 C 0.86488 0.95129 0.4046 0.0
C3043 C 0.86386 0.97207 0.39965 0.0
C3044 C 0.90159 0.93626 0.34106 0.0
C3045 C 0.87907 0.94395 0.37131 0.0
C3046 C 0.91141 0.92202 0.32854 0.0
C3047 C 0.90804 0.90115 0.33146 0.0
C3048 C 0.8886 0.92946 0.35672 0.0
C3049 C 0.89464 0.89498 0.34689 0.0
C3050 C 0.87223 0.93721 0.39045 0.0
C3051 C 0.87 0.97811 0.38003 0.0
N3052 N 0.88552 0.90905 0.35906 0.0
N3053 N 0.87761 0.96416 0.36666 0.0
H3054 H 0.13675 0.83964 0.89806 0.0
H3055 H 0.23999 0.90411 0.88729 0.0
H3056 H 0.16882 0.86397 0.95004 0.0
H3057 H 0.2028 0.88466 0.83659 0.0
H3058 H 0.21437 0.8902 0.91076 0.0
H3059 H 0.16141 0.85596 0.8756 0.0
C3060 C 0.14902 0.84842 0.90479 0.0
C3061 C 0.15053 0.8506 0.92601 0.0
C3062 C 0.21179 0.88913 0.89449 0.0
C3063 C 0.17902 0.86948 0.90022 0.0
C3064 C 0.22637 0.89715 0.88107 0.0
C3065 C 0.22364 0.89554 0.85986 0.0
C3066 C 0.19439 0.87935 0.88668 0.0
C3067 C 0.20569 0.88624 0.85276 0.0
C3068 C 0.16306 0.85787 0.89191 0.0
C3069 C 0.16676 0.86224 0.93378 0.0
N3070 N 0.19189 0.87843 0.86609 0.0
N3071 N 0.18041 0.87121 0.9209 0.0
H3072 H 0.14726 0.09279 0.38373 0.0
H3073 H 0.13707 0.1532 0.48936 0.0
H3074 H 0.19969 0.11296 0.41793 0.0
H3075 H 0.08648 0.13797 0.45006 0.0
H3076 H 0.16056 0.13934 0.4637 0.0
H3077 H 0.12507 0.10922 0.40852 0.0
C3078 C 0.15414 0.10068 0.3965 0.0
C3079 C 0.17541 0.10166 0.39858 0.0
C3080 C 0.14432 0.13921 0.46067 0.0
C3081 C 0.14994 0.12068 0.42724 0.0
C3082 C 0.13089 0.14721 0.47527 0.0
C3083 C 0.1097 0.14673 0.47195 0.0
C3084 C 0.1365 0.13059 0.44267 0.0
C3085 C 0.10264 0.13864 0.45342 0.0
C3086 C 0.14142 0.1102 0.41063 0.0
C3087 C 0.1834 0.11218 0.41545 0.0
N3088 N 0.11596 0.13082 0.43962 0.0
N3089 N 0.17066 0.12125 0.42917 0.0
H3090 H 0.38594 0.67542 0.81066 0.0
H3091 H 0.36463 0.55956 0.84299 0.0
H3092 H 0.40277 0.62454 0.77247 0.0
H3093 H 0.34147 0.61214 0.87495 0.0
H3094 H 0.38104 0.58237 0.81824 0.0
H3095 H 0.37245 0.65177 0.83576 0.0
C3096 C 0.38694 0.65924 0.80757 0.0
C3097 C 0.39546 0.65203 0.78929 0.0
C3098 C 0.37241 0.58887 0.83072 0.0
C3099 C 0.37975 0.62464 0.81818 0.0
C3100 C 0.36315 0.57586 0.84494 0.0
C3101 C 0.35185 0.58395 0.86124 0.0
C3102 C 0.37038 0.61009 0.83288 0.0
C3103 C 0.34998 0.6052 0.86263 0.0
C3104 C 0.37914 0.64569 0.82195 0.0
C3105 C 0.39636 0.63082 0.78632 0.0
N3106 N 0.35919 0.61747 0.84874 0.0
N3107 N 0.38851 0.61786 0.80057 0.0
H3108 H 0.92733 0.3716 0.44964 0.0
H3109 H 0.81159 0.39558 0.41813 0.0
H3110 H 0.87634 0.35747 0.48887 0.0
H3111 H 0.86448 0.41718 0.38552 0.0
H3112 H 0.83424 0.37868 0.44271 0.0
H3113 H 0.90373 0.3849 0.42434 0.0
C3114 C 0.91113 0.3711 0.45291 0.0
C3115 C 0.90389 0.36346 0.47155 0.0
C3116 C 0.84085 0.38706 0.43011 0.0
C3117 C 0.87659 0.37898 0.44244 0.0
C3118 C 0.82792 0.3966 0.41599 0.0
C3119 C 0.83613 0.40764 0.39958 0.0
C3120 C 0.86212 0.38852 0.42774 0.0
C3121 C 0.85744 0.40889 0.39794 0.0
C3122 C 0.89763 0.37881 0.43841 0.0
C3123 C 0.88266 0.36319 0.47473 0.0
N3124 N 0.86963 0.39942 0.41174 0.0
N3125 N 0.86976 0.37096 0.46038 0.0
H3126 H 0.67283 0.89736 0.87557 0.0
H3127 H 0.60829 0.88552 0.77261 0.0
H3128 H 0.64743 0.94906 0.84387 0.0
H3129 H 0.62639 0.83544 0.81131 0.0
H3130 H 0.62247 0.90935 0.79777 0.0
H3131 H 0.65662 0.87476 0.85102 0.0
C3132 C 0.66384 0.90399 0.86341 0.0
C3133 C 0.66131 0.92516 0.86196 0.0
C3134 C 0.62317 0.89314 0.80076 0.0
C3135 C 0.64256 0.89923 0.83361 0.0
C3136 C 0.61502 0.87952 0.78644 0.0
C3137 C 0.61616 0.85838 0.78976 0.0
C3138 C 0.63263 0.88556 0.81844 0.0
C3139 C 0.62517 0.85155 0.80796 0.0
C3140 C 0.65445 0.89104 0.84943 0.0
C3141 C 0.64943 0.93283 0.84586 0.0
N3142 N 0.63312 0.86504 0.82147 0.0
N3143 N 0.64052 0.91987 0.83227 0.0
H3144 H 0.20115 0.89652 0.09301 0.0
H3145 H 0.08517 0.87472 0.06081 0.0
H3146 H 0.14858 0.92074 0.12428 0.0
H3147 H 0.13634 0.8573 0.02318 0.0
H3148 H 0.10876 0.88866 0.0858 0.0
H3149 H 0.17829 0.87961 0.06868 0.0
C3150 C 0.18483 0.89813 0.09489 0.0
C3151 C 0.17678 0.90988 0.11089 0.0
C3152 C 0.11489 0.88171 0.07214 0.0
C3153 C 0.15054 0.89075 0.08298 0.0
C3154 C 0.10139 0.87364 0.05784 0.0
C3155 C 0.10871 0.86485 0.03973 0.0
C3156 C 0.13599 0.88108 0.06846 0.0
C3157 C 0.12997 0.8639 0.0369 0.0
C3158 C 0.17179 0.88858 0.08091 0.0
C3159 C 0.1555 0.91188 0.11219 0.0
N3160 N 0.14286 0.87201 0.05105 0.0
N3161 N 0.14318 0.90237 0.09853 0.0
H3162 H 0.14642 0.56098 0.16762 0.0
H3163 H 0.12538 0.67677 0.20043 0.0
H3164 H 0.17009 0.61356 0.13604 0.0
H3165 H 0.10825 0.62565 0.23816 0.0
H3166 H 0.1387 0.65323 0.17508 0.0
H3167 H 0.12974 0.58377 0.19218 0.0
C3168 C 0.14794 0.57728 0.1657 0.0
C3169 C 0.15949 0.58537 0.14957 0.0
C3170 C 0.13195 0.64709 0.18884 0.0
C3171 C 0.14064 0.6115 0.17774 0.0
C3172 C 0.12424 0.66057 0.20335 0.0
C3173 C 0.11573 0.65325 0.22159 0.0
C3174 C 0.13124 0.62601 0.19245 0.0
C3175 C 0.11466 0.63202 0.22435 0.0
C3176 C 0.13853 0.59028 0.17982 0.0
C3177 C 0.16139 0.60662 0.14823 0.0
N3178 N 0.12243 0.61914 0.21 0.0
N3179 N 0.15203 0.61889 0.16203 0.0
H3180 H 0.92721 0.63416 0.05901 0.0
H3181 H 0.81134 0.6129 0.0922 0.0
H3182 H 0.87579 0.65238 0.02213 0.0
H3183 H 0.86412 0.58989 0.12402 0.0
H3184 H 0.83407 0.62944 0.06746 0.0
H3185 H 0.90376 0.62034 0.08422 0.0
C3186 C 0.91096 0.63542 0.05624 0.0
C3187 C 0.90353 0.64444 0.0383 0.0
C3188 C 0.84064 0.62081 0.07991 0.0
C3189 C 0.8764 0.62834 0.06728 0.0
C3190 C 0.82767 0.61148 0.09412 0.0
C3191 C 0.83581 0.60019 0.1104 0.0
C3192 C 0.8619 0.61886 0.08201 0.0
C3193 C 0.85712 0.59839 0.11173 0.0
C3194 C 0.89754 0.62743 0.07068 0.0
C3195 C 0.88225 0.64561 0.03572 0.0
N3196 N 0.86936 0.60766 0.09782 0.0
N3197 N 0.86944 0.63757 0.04999 0.0
H3198 H 0.84221 0.89672 0.1339 0.0
H3199 H 0.90523 0.88555 0.23789 0.0
H3200 H 0.86548 0.94859 0.16687 0.0
H3201 H 0.88731 0.83508 0.19966 0.0
H3202 H 0.89147 0.90913 0.21232 0.0
H3203 H 0.85856 0.87418 0.15844 0.0
C3204 C 0.85077 0.9034 0.14633 0.0
C3205 C 0.85264 0.92461 0.14815 0.0
C3206 C 0.89072 0.89289 0.2095 0.0
C3207 C 0.87155 0.89875 0.1765 0.0
C3208 C 0.89865 0.8794 0.22405 0.0
C3209 C 0.8974 0.85823 0.22101 0.0
C3210 C 0.88138 0.88516 0.19182 0.0
C3211 C 0.88858 0.85122 0.20279 0.0
C3212 C 0.86023 0.89048 0.16031 0.0
C3213 C 0.864 0.93235 0.16459 0.0
N3214 N 0.88084 0.86461 0.18903 0.0
N3215 N 0.87299 0.91942 0.17817 0.0
H3216 H 0.48923 0.13629 0.15447 0.0
H3217 H 0.38339 0.14608 0.09409 0.0
H3218 H 0.45108 0.08541 0.13753 0.0
H3219 H 0.41755 0.19847 0.11434 0.0
H3220 H 0.40842 0.12393 0.11022 0.0
H3221 H 0.46325 0.15959 0.14092 0.0
C3222 C 0.47532 0.13 0.14815 0.0
C3223 C 0.47242 0.10879 0.14711 0.0
C3224 C 0.41046 0.14026 0.11128 0.0
C3225 C 0.44276 0.13539 0.13135 0.0
C3226 C 0.39619 0.15296 0.10195 0.0
C3227 C 0.3982 0.17421 0.10304 0.0
C3228 C 0.42713 0.14878 0.12169 0.0
C3229 C 0.41511 0.1822 0.1135 0.0
C3230 C 0.46054 0.14332 0.14033 0.0
C3231 C 0.45412 0.10159 0.13862 0.0
N3232 N 0.42896 0.16947 0.12239 0.0
N3233 N 0.44011 0.11481 0.13101 0.0
H3234 H 0.41879 0.81103 0.39716 0.0
H3235 H 0.45146 0.92658 0.37461 0.0
H3236 H 0.38744 0.86384 0.42064 0.0
H3237 H 0.48958 0.87536 0.35857 0.0
H3238 H 0.42622 0.90315 0.38834 0.0
H3239 H 0.44343 0.83365 0.38031 0.0
C3240 C 0.41695 0.82735 0.39862 0.0
C3241 C 0.40085 0.83555 0.41014 0.0
C3242 C 0.44005 0.89697 0.38175 0.0
C3243 C 0.42909 0.86148 0.39109 0.0
C3244 C 0.45449 0.91038 0.37379 0.0
C3245 C 0.47281 0.90301 0.36545 0.0
C3246 C 0.44378 0.8759 0.38146 0.0
C3247 C 0.47571 0.88177 0.36482 0.0
C3248 C 0.43111 0.84025 0.38911 0.0
C3249 C 0.39961 0.85682 0.41196 0.0
N3250 N 0.4614 0.86897 0.37281 0.0
N3251 N 0.41343 0.86899 0.40249 0.0
H3252 H 0.17569 0.31125 0.8878 0.0
H3253 H 0.05979 0.34206 0.86419 0.0
H3254 H 0.12532 0.27116 0.90162 0.0
H3255 H 0.11255 0.37408 0.84143 0.0
H3256 H 0.08257 0.31736 0.88081 0.0
H3257 H 0.15182 0.33604 0.87419 0.0
C3258 C 0.15956 0.30767 0.88813 0.0
C3259 C 0.15258 0.28894 0.89582 0.0
C3260 C 0.08911 0.32984 0.87221 0.0
C3261 C 0.12494 0.31752 0.87995 0.0
C3262 C 0.07612 0.34402 0.86283 0.0
C3263 C 0.08427 0.36032 0.85158 0.0
C3264 C 0.11036 0.33207 0.87039 0.0
C3265 C 0.10555 0.36176 0.84989 0.0
C3266 C 0.1459 0.32188 0.88024 0.0
C3267 C 0.13142 0.28537 0.89587 0.0
N3268 N 0.1178 0.34793 0.85924 0.0
N3269 N 0.11833 0.29949 0.88796 0.0
H3270 H 0.59253 0.70004 0.39724 0.0
H3271 H 0.5589 0.5843 0.3771 0.0
H3272 H 0.62337 0.64753 0.42204 0.0
H3273 H 0.52241 0.63568 0.35805 0.0
H3274 H 0.58412 0.60771 0.39094 0.0
H3275 H 0.56797 0.67726 0.38059 0.0
C3276 C 0.59428 0.68375 0.39903 0.0
C3277 C 0.61023 0.67569 0.41086 0.0
C3278 C 0.57066 0.61393 0.38366 0.0
C3279 C 0.58204 0.64954 0.39205 0.0
C3280 C 0.55623 0.60053 0.37565 0.0
C3281 C 0.53838 0.60796 0.36642 0.0
C3282 C 0.56736 0.63505 0.38252 0.0
C3283 C 0.53592 0.62922 0.36501 0.0
C3284 C 0.58016 0.67075 0.38963 0.0
C3285 C 0.61133 0.65445 0.41311 0.0
N3286 N 0.55019 0.64201 0.37306 0.0
N3287 N 0.59753 0.64217 0.40375 0.0
H3288 H 0.38629 0.73949 0.4046 0.0
H3289 H 0.39757 0.63721 0.33889 0.0
H3290 H 0.3357 0.70222 0.38494 0.0
H3291 H 0.44941 0.66905 0.36388 0.0
H3292 H 0.37496 0.66162 0.35538 0.0
H3293 H 0.40988 0.71421 0.39031 0.0
C3294 C 0.38011 0.72592 0.39752 0.0
C3295 C 0.35891 0.72307 0.39596 0.0
C3296 C 0.39127 0.66328 0.35739 0.0
C3297 C 0.38587 0.69422 0.37933 0.0
C3298 C 0.40423 0.64939 0.34784 0.0
C3299 C 0.42545 0.6509 0.35017 0.0
C3300 C 0.3995 0.67908 0.36926 0.0
C3301 C 0.43315 0.667 0.36202 0.0
C3302 C 0.39361 0.71154 0.38928 0.0
C3303 C 0.35187 0.7052 0.38649 0.0
N3304 N 0.42018 0.68049 0.3711 0.0
N3305 N 0.36527 0.69159 0.37847 0.0
H3306 H 0.12519 0.86352 0.59088 0.0
H3307 H 0.02138 0.87464 0.65426 0.0
H3308 H 0.09308 0.81152 0.6151 0.0
H3309 H 0.06037 0.92494 0.63745 0.0
H3310 H 0.04687 0.85098 0.64036 0.0
H3311 H 0.10062 0.88595 0.60736 0.0
C3312 C 0.11293 0.85679 0.59967 0.0
C3313 C 0.11136 0.83558 0.60176 0.0
C3314 C 0.04987 0.86719 0.6399 0.0
C3315 C 0.08298 0.86132 0.62083 0.0
C3316 C 0.03536 0.88072 0.64791 0.0
C3317 C 0.03864 0.90188 0.64701 0.0
C3318 C 0.06771 0.87488 0.63081 0.0
C3319 C 0.05704 0.90881 0.63847 0.0
C3320 C 0.09894 0.86964 0.60921 0.0
C3321 C 0.09514 0.82778 0.61342 0.0
N3322 N 0.07073 0.8954 0.63062 0.0
N3323 N 0.08153 0.84065 0.62247 0.0
H3324 H 0.06205 0.66797 0.64791 0.0
H3325 H 0.17762 0.70085 0.62479 0.0
H3326 H 0.11513 0.6346 0.66784 0.0
H3327 H 0.12609 0.73878 0.6092 0.0
H3328 H 0.1543 0.67525 0.63804 0.0
H3329 H 0.08455 0.69302 0.63156 0.0
C3330 C 0.07839 0.66576 0.64867 0.0
C3331 C 0.08669 0.64897 0.65906 0.0
C3332 C 0.14802 0.68911 0.63166 0.0
C3333 C 0.11252 0.67773 0.64062 0.0
C3334 C 0.16137 0.70377 0.62399 0.0
C3335 C 0.15388 0.72212 0.6159 0.0
C3336 C 0.12689 0.69269 0.63135 0.0
C3337 C 0.1326 0.72488 0.61526 0.0
C3338 C 0.09123 0.68016 0.63945 0.0
C3339 C 0.10802 0.64729 0.66005 0.0
N3340 N 0.11985 0.71038 0.62299 0.0
N3341 N 0.12013 0.66139 0.65092 0.0
H3342 H 0.88589 0.77179 0.60805 0.0
H3343 H 0.89591 0.87732 0.66868 0.0
H3344 H 0.83504 0.81003 0.62506 0.0
H3345 H 0.94831 0.84308 0.64841 0.0
H3346 H 0.87369 0.85234 0.65263 0.0
H3347 H 0.90928 0.79754 0.62182 0.0
C3348 C 0.87963 0.78566 0.61444 0.0
C3349 C 0.8584 0.78866 0.61541 0.0
C3350 C 0.89004 0.85027 0.65155 0.0
C3351 C 0.8851 0.81807 0.63142 0.0
C3352 C 0.90278 0.86451 0.66085 0.0
C3353 C 0.92406 0.86248 0.65972 0.0
C3354 C 0.89854 0.83361 0.64113 0.0
C3355 C 0.93202 0.84554 0.64928 0.0
C3356 C 0.893 0.80032 0.62239 0.0
C3357 C 0.85123 0.80692 0.624 0.0
N3358 N 0.91926 0.83173 0.64041 0.0
N3359 N 0.8645 0.8208 0.63172 0.0
H3360 H 0.65388 0.98878 0.63713 0.0
H3361 H 0.59275 0.88365 0.64788 0.0
H3362 H 0.63778 0.94949 0.58686 0.0
H3363 H 0.61467 0.91691 0.70017 0.0
H3364 H 0.6089 0.90851 0.62563 0.0
H3365 H 0.64011 0.96322 0.66082 0.0
C3366 C 0.64768 0.97473 0.63106 0.0
C3367 C 0.64694 0.97137 0.60991 0.0
C3368 C 0.61033 0.9104 0.64196 0.0
C3369 C 0.63097 0.94222 0.6369 0.0
C3370 C 0.60098 0.89623 0.65471 0.0
C3371 C 0.60252 0.89803 0.67596 0.0
C3372 C 0.62121 0.92678 0.65041 0.0
C3373 C 0.61345 0.91466 0.68389 0.0
C3374 C 0.63976 0.96019 0.6446 0.0
C3375 C 0.63862 0.9529 0.60298 0.0
N3376 N 0.62235 0.92845 0.67111 0.0
N3377 N 0.63091 0.93917 0.61638 0.0
H3378 H 0.20018 0.12071 0.67636 0.0
H3379 H 0.1694 0.14718 0.56106 0.0
H3380 H 0.24005 0.1081 0.6255 0.0
H3381 H 0.13563 0.16633 0.61415 0.0
H3382 H 0.1942 0.13026 0.58348 0.0
H3383 H 0.17497 0.13433 0.65288 0.0
C3384 C 0.20361 0.12062 0.66021 0.0
C3385 C 0.2224 0.11328 0.65297 0.0
C3386 C 0.18131 0.13812 0.59017 0.0
C3387 C 0.19338 0.1292 0.62579 0.0
C3388 C 0.16707 0.14767 0.57738 0.0
C3389 C 0.15025 0.15801 0.58571 0.0
C3390 C 0.17865 0.13887 0.61143 0.0
C3391 C 0.14836 0.1586 0.60701 0.0
C3392 C 0.18917 0.12851 0.64677 0.0
C3393 C 0.22579 0.11356 0.63179 0.0
N3394 N 0.16228 0.14913 0.61906 0.0
N3395 N 0.21147 0.1215 0.61895 0.0
H3396 H 0.42216 0.62464 0.64822 0.0
H3397 H 0.3581 0.52141 0.63669 0.0
H3398 H 0.39738 0.59271 0.70009 0.0
H3399 H 0.37567 0.56025 0.58653 0.0
H3400 H 0.37219 0.54665 0.66048 0.0
H3401 H 0.40582 0.60011 0.62569 0.0
C3402 C 0.41328 0.61242 0.6549 0.0
C3403 C 0.41097 0.6109 0.67609 0.0
C3404 C 0.37279 0.54966 0.64426 0.0
C3405 C 0.39207 0.58257 0.65025 0.0
C3406 C 0.36469 0.5353 0.63067 0.0
C3407 C 0.36574 0.53862 0.60951 0.0
C3408 C 0.3821 0.5674 0.63664 0.0
C3409 C 0.37456 0.55689 0.60264 0.0
C3410 C 0.40382 0.59846 0.64199 0.0
C3411 C 0.39921 0.59474 0.68384 0.0
N3412 N 0.38247 0.57044 0.61611 0.0
N3413 N 0.39023 0.58116 0.67092 0.0
H3414 H 0.84368 0.36269 0.56135 0.0
H3415 H 0.81059 0.38481 0.677 0.0
H3416 H 0.877 0.34223 0.61423 0.0
H3417 H 0.77324 0.40186 0.62554 0.0
H3418 H 0.83613 0.37143 0.65365 0.0
H3419 H 0.81865 0.37896 0.58395 0.0
C3420 C 0.84588 0.36179 0.57766 0.0
C3421 C 0.86266 0.35129 0.58587 0.0
C3422 C 0.82241 0.37817 0.64739 0.0
C3423 C 0.83392 0.36962 0.61183 0.0
C3424 C 0.80779 0.38591 0.66076 0.0
C3425 C 0.78962 0.39446 0.6533 0.0
C3426 C 0.81898 0.37886 0.62627 0.0
C3427 C 0.787 0.39544 0.63203 0.0
C3428 C 0.8315 0.37097 0.59057 0.0
C3429 C 0.86432 0.35011 0.60717 0.0
N3430 N 0.80146 0.38764 0.61927 0.0
N3431 N 0.85024 0.35919 0.61934 0.0
H3432 H 0.65333 0.02137 0.87523 0.0
H3433 H 0.59091 0.12581 0.86411 0.0
H3434 H 0.63487 0.05949 0.92562 0.0
H3435 H 0.61353 0.09256 0.81209 0.0
H3436 H 0.60676 0.10091 0.88655 0.0
H3437 H 0.63942 0.04684 0.85156 0.0
C3438 C 0.64657 0.03514 0.88133 0.0
C3439 C 0.64525 0.03821 0.90251 0.0
C3440 C 0.60839 0.09904 0.87023 0.0
C3441 C 0.62912 0.06727 0.8755 0.0
C3442 C 0.59921 0.11323 0.85737 0.0
C3443 C 0.60107 0.11146 0.83614 0.0
C3444 C 0.61943 0.08268 0.86192 0.0
C3445 C 0.61209 0.09482 0.82835 0.0
C3446 C 0.63856 0.04963 0.8678 0.0
C3447 C 0.6362 0.05633 0.90948 0.0
N3448 N 0.62084 0.08104 0.84123 0.0
N3449 N 0.62845 0.07004 0.89606 0.0
H3450 H 0.37514 0.17147 0.39835 0.0
H3451 H 0.27231 0.10672 0.3864 0.0
H3452 H 0.34299 0.14663 0.45006 0.0
H3453 H 0.31127 0.12439 0.33633 0.0
H3454 H 0.29745 0.1209 0.41024 0.0
H3455 H 0.3509 0.15483 0.37568 0.0
C3456 C 0.36293 0.16252 0.40496 0.0
C3457 C 0.36126 0.16028 0.42616 0.0
C3458 C 0.30052 0.12149 0.39404 0.0
C3459 C 0.33328 0.14103 0.40016 0.0
C3460 C 0.28622 0.11332 0.3804 0.0
C3461 C 0.28959 0.11438 0.35926 0.0
C3462 C 0.31825 0.13089 0.38647 0.0
C3463 C 0.30788 0.12324 0.35244 0.0
C3464 C 0.34914 0.15289 0.39198 0.0
C3465 C 0.34513 0.14842 0.43381 0.0
N3466 N 0.32137 0.13123 0.36596 0.0
N3467 N 0.33172 0.13927 0.42082 0.0
H3468 H 0.41942 0.3824 0.86505 0.0
H3469 H 0.35877 0.48792 0.87548 0.0
H3470 H 0.39862 0.41648 0.81281 0.0
H3471 H 0.37596 0.4495 0.9261 0.0
H3472 H 0.37244 0.46219 0.85198 0.0
H3473 H 0.40348 0.40739 0.88733 0.0
C3474 C 0.41149 0.39518 0.85823 0.0
C3475 C 0.41018 0.39717 0.83698 0.0
C3476 C 0.37306 0.45938 0.86823 0.0
C3477 C 0.39173 0.42605 0.86257 0.0
C3478 C 0.36519 0.47402 0.88167 0.0
C3479 C 0.36624 0.47096 0.90286 0.0
C3480 C 0.3821 0.44159 0.87605 0.0
C3481 C 0.37485 0.45267 0.90994 0.0
C3482 C 0.40226 0.40942 0.871 0.0
C3483 C 0.39963 0.41406 0.82908 0.0
N3484 N 0.38249 0.43881 0.89661 0.0
N3485 N 0.39083 0.42789 0.84187 0.0
H3486 H 0.63501 0.34085 0.39729 0.0
H3487 H 0.73906 0.40396 0.38688 0.0
H3488 H 0.66745 0.3641 0.44952 0.0
H3489 H 0.70031 0.38742 0.3363 0.0
H3490 H 0.71351 0.38987 0.41036 0.0
H3491 H 0.65965 0.35743 0.375 0.0
C3492 C 0.64735 0.34945 0.4041 0.0
C3493 C 0.64899 0.35125 0.42534 0.0
C3494 C 0.71058 0.3895 0.39412 0.0
C3495 C 0.67745 0.37042 0.39976 0.0
C3496 C 0.72512 0.39762 0.3807 0.0
C3497 C 0.72192 0.39686 0.35952 0.0
C3498 C 0.69278 0.38046 0.38631 0.0
C3499 C 0.70357 0.38833 0.35245 0.0
C3500 C 0.66138 0.35905 0.39133 0.0
C3501 C 0.66532 0.36266 0.43325 0.0
N3502 N 0.68984 0.38039 0.36576 0.0
N3503 N 0.67896 0.37178 0.42046 0.0
H3504 H 0.64749 0.59127 0.88484 0.0
H3505 H 0.63642 0.65627 0.98758 0.0
H3506 H 0.69952 0.61412 0.91793 0.0
H3507 H 0.58589 0.63751 0.94976 0.0
H3508 H 0.66003 0.64207 0.96228 0.0
H3509 H 0.62498 0.60846 0.90885 0.0
C3510 C 0.65421 0.5999 0.89721 0.0
C3511 C 0.67546 0.60138 0.89923 0.0
C3512 C 0.64377 0.64123 0.95949 0.0
C3513 C 0.64963 0.62127 0.92696 0.0
C3514 C 0.63025 0.64939 0.97392 0.0
C3515 C 0.60905 0.64796 0.97098 0.0
C3516 C 0.63604 0.63153 0.94202 0.0
C3517 C 0.60205 0.63891 0.95286 0.0
C3518 C 0.64132 0.60985 0.91087 0.0
C3519 C 0.68325 0.61288 0.91553 0.0
N3520 N 0.61547 0.63095 0.93923 0.0
N3521 N 0.67034 0.62235 0.92882 0.0
H3522 H 0.86438 0.06197 0.34485 0.0
H3523 H 0.88802 0.17709 0.31148 0.0
H3524 H 0.84596 0.11518 0.37879 0.0
H3525 H 0.90312 0.12545 0.2736 0.0
H3526 H 0.87477 0.15399 0.33723 0.0
H3527 H 0.88045 0.08425 0.31945 0.0
C3528 C 0.86391 0.07829 0.34712 0.0
C3529 C 0.85405 0.08669 0.36418 0.0
C3530 C 0.88104 0.14762 0.32334 0.0
C3531 C 0.87212 0.11227 0.335 0.0
C3532 C 0.88869 0.16086 0.30859 0.0
C3533 C 0.89667 0.15327 0.29023 0.0
C3534 C 0.88124 0.12652 0.31985 0.0
C3535 C 0.89715 0.13201 0.28751 0.0
C3536 C 0.87296 0.09101 0.33252 0.0
C3537 C 0.85337 0.10799 0.36591 0.0
N3538 N 0.88944 0.11938 0.30212 0.0
N3539 N 0.86231 0.11998 0.3516 0.0
H3540 H 0.36517 0.92188 0.88743 0.0
H3541 H 0.37668 0.85645 0.98992 0.0
H3542 H 0.31346 0.89685 0.91948 0.0
H3543 H 0.42725 0.87691 0.95303 0.0
H3544 H 0.35307 0.87037 0.96446 0.0
H3545 H 0.38787 0.90553 0.91185 0.0
C3546 C 0.35856 0.91294 0.89965 0.0
C3547 C 0.33734 0.91057 0.90123 0.0
C3548 C 0.36934 0.87165 0.9619 0.0
C3549 C 0.3634 0.89165 0.92942 0.0
C3550 C 0.38285 0.86363 0.97639 0.0
C3551 C 0.40406 0.86553 0.9737 0.0
C3552 C 0.37707 0.88174 0.94464 0.0
C3553 C 0.41109 0.87511 0.95588 0.0
C3554 C 0.37157 0.90348 0.91355 0.0
C3555 C 0.32971 0.89874 0.91737 0.0
N3556 N 0.39767 0.88292 0.94216 0.0
N3557 N 0.34272 0.88975 0.93087 0.0
H3558 H 0.14844 0.4514 0.34274 0.0
H3559 H 0.12341 0.33601 0.31175 0.0
H3560 H 0.16955 0.39838 0.37538 0.0
H3561 H 0.11064 0.38655 0.27157 0.0
H3562 H 0.13699 0.35964 0.33674 0.0
H3563 H 0.13176 0.4289 0.31785 0.0
C3564 C 0.14942 0.43507 0.34479 0.0
C3565 C 0.16022 0.42677 0.36133 0.0
C3566 C 0.13117 0.36565 0.32252 0.0
C3567 C 0.14136 0.401 0.33287 0.0
C3568 C 0.12331 0.35213 0.30819 0.0
C3569 C 0.11593 0.35923 0.28938 0.0
C3570 C 0.13177 0.38659 0.31819 0.0
C3571 C 0.11615 0.38037 0.28584 0.0
C3572 C 0.14001 0.42225 0.33051 0.0
C3573 C 0.16144 0.40549 0.36289 0.0
N3574 N 0.12405 0.39332 0.30007 0.0
N3575 N 0.15208 0.3934 0.34895 0.0
H3576 H 0.63628 0.35626 0.52204 0.0
H3577 H 0.64847 0.42154 0.62447 0.0
H3578 H 0.58612 0.3753 0.56024 0.0
H3579 H 0.70008 0.39627 0.59245 0.0
H3580 H 0.62569 0.40511 0.6002 0.0
H3581 H 0.66016 0.37041 0.54715 0.0
C3582 C 0.63027 0.36317 0.53578 0.0
C3583 C 0.60909 0.3646 0.53895 0.0
C3584 C 0.64199 0.40302 0.59847 0.0
C3585 C 0.63635 0.38107 0.56759 0.0
C3586 C 0.65504 0.41254 0.61228 0.0
C3587 C 0.67625 0.41012 0.61067 0.0
C3588 C 0.65011 0.3911 0.58265 0.0
C3589 C 0.68383 0.3982 0.59456 0.0
C3590 C 0.64392 0.37132 0.55007 0.0
C3591 C 0.60226 0.37386 0.55702 0.0
N3592 N 0.67078 0.38916 0.58114 0.0
N3593 N 0.6158 0.38181 0.57051 0.0
H3594 H 0.60896 0.12423 0.73955 0.0
H3595 H 0.67128 0.11319 0.63509 0.0
H3596 H 0.62607 0.17452 0.70069 0.0
H3597 H 0.64789 0.06112 0.66771 0.0
H3598 H 0.65515 0.13557 0.65989 0.0
H3599 H 0.62269 0.10054 0.71399 0.0
C3600 C 0.61537 0.1303 0.7256 0.0
C3601 C 0.6164 0.15146 0.72236 0.0
C3602 C 0.6534 0.11926 0.66164 0.0
C3603 C 0.63235 0.12445 0.69321 0.0
C3604 C 0.66274 0.10643 0.64751 0.0
C3605 C 0.66076 0.08522 0.64915 0.0
C3606 C 0.64211 0.1109 0.67781 0.0
C3607 C 0.64944 0.07739 0.66558 0.0
C3608 C 0.62327 0.11676 0.71105 0.0
C3609 C 0.62499 0.15839 0.704 0.0
N3610 N 0.64057 0.09023 0.67932 0.0
N3611 N 0.63269 0.14498 0.69026 0.0
H3612 H 0.36548 0.09144 0.62779 0.0
H3613 H 0.3758 0.15305 0.52277 0.0
H3614 H 0.31323 0.11254 0.59382 0.0
H3615 H 0.42668 0.13422 0.56009 0.0
H3616 H 0.3524 0.13943 0.54861 0.0
H3617 H 0.38782 0.10741 0.60284 0.0
C3618 C 0.35867 0.09944 0.61505 0.0
C3619 C 0.33739 0.10082 0.61308 0.0
C3620 C 0.36869 0.13843 0.55117 0.0
C3621 C 0.36307 0.11931 0.58425 0.0
C3622 C 0.38207 0.14629 0.53646 0.0
C3623 C 0.40331 0.14476 0.53918 0.0
C3624 C 0.37657 0.12893 0.56869 0.0
C3625 C 0.41048 0.13571 0.55721 0.0
C3626 C 0.37148 0.10869 0.60082 0.0
C3627 C 0.32951 0.11147 0.59624 0.0
N3628 N 0.39719 0.12809 0.57115 0.0
N3629 N 0.34235 0.12028 0.58245 0.0
H3630 H 0.34227 0.39692 0.635 0.0
H3631 H 0.40313 0.386 0.7403 0.0
H3632 H 0.36375 0.44919 0.66855 0.0
H3633 H 0.38813 0.33595 0.70032 0.0
H3634 H 0.38916 0.40975 0.7149 0.0
H3635 H 0.35856 0.37468 0.65979 0.0
C3636 C 0.35042 0.40375 0.64763 0.0
C3637 C 0.3518 0.42499 0.64953 0.0
C3638 C 0.3891 0.39357 0.71169 0.0
C3639 C 0.37067 0.39945 0.6782 0.0
C3640 C 0.39714 0.38 0.72614 0.0
C3641 C 0.39677 0.35888 0.72254 0.0
C3642 C 0.38055 0.38594 0.69357 0.0
C3643 C 0.3887 0.35203 0.70392 0.0
C3644 C 0.35986 0.39101 0.66176 0.0
C3645 C 0.36265 0.43292 0.66623 0.0
N3646 N 0.38085 0.36546 0.69028 0.0
N3647 N 0.37163 0.42014 0.67997 0.0
H3648 H 0.98979 0.63645 0.65423 0.0
H3649 H 0.88554 0.64715 0.59153 0.0
H3650 H 0.95059 0.58607 0.6382 0.0
H3651 H 0.91798 0.69933 0.61489 0.0
H3652 H 0.91017 0.62484 0.60808 0.0
H3653 H 0.96425 0.66003 0.64029 0.0
C3654 C 0.97575 0.63034 0.64804 0.0
C3655 C 0.97243 0.60918 0.64737 0.0
C3656 C 0.91191 0.64116 0.60973 0.0
C3657 C 0.9433 0.63608 0.63112 0.0
C3658 C 0.89789 0.65394 0.60015 0.0
C3659 C 0.89953 0.67517 0.60198 0.0
C3660 C 0.92798 0.64957 0.62112 0.0
C3661 C 0.91585 0.68306 0.61341 0.0
C3662 C 0.96122 0.64382 0.64001 0.0
C3663 C 0.95396 0.6022 0.63903 0.0
N3664 N 0.92949 0.67026 0.62251 0.0
N3665 N 0.94024 0.61556 0.63116 0.0
H3666 H 0.9172 0.31124 0.89618 0.0
H3667 H 0.94971 0.42684 0.87367 0.0
H3668 H 0.88504 0.36399 0.91868 0.0
H3669 H 0.98773 0.37556 0.85758 0.0
H3670 H 0.92428 0.40342 0.8871 0.0
H3671 H 0.94178 0.3339 0.87936 0.0
C3672 C 0.91516 0.32755 0.89741 0.0
C3673 C 0.89886 0.33572 0.90866 0.0
C3674 C 0.93812 0.39723 0.88056 0.0
C3675 C 0.92706 0.36171 0.88967 0.0
C3676 C 0.95268 0.41063 0.87278 0.0
C3677 C 0.97101 0.40323 0.86453 0.0
C3678 C 0.9418 0.37615 0.88018 0.0
C3679 C 0.97384 0.38199 0.86378 0.0
C3680 C 0.92929 0.34048 0.88792 0.0
C3681 C 0.89736 0.35699 0.91021 0.0
N3682 N 0.95944 0.3692 0.87161 0.0
N3683 N 0.91118 0.3692 0.90079 0.0
H3684 H 0.62542 0.77178 0.40413 0.0
H3685 H 0.61492 0.87569 0.34076 0.0
H3686 H 0.67628 0.80883 0.38473 0.0
H3687 H 0.56278 0.84264 0.36348 0.0
H3688 H 0.63734 0.85088 0.35688 0.0
H3689 H 0.60201 0.79743 0.39021 0.0
C3690 C 0.63169 0.78538 0.39717 0.0
C3691 C 0.65292 0.78807 0.39559 0.0
C3692 C 0.621 0.84904 0.35847 0.0
C3693 C 0.62616 0.81736 0.3794 0.0
C3694 C 0.60815 0.86317 0.34914 0.0
C3695 C 0.58689 0.86143 0.35094 0.0
C3696 C 0.61264 0.83278 0.36961 0.0
C3697 C 0.57906 0.84489 0.36207 0.0
C3698 C 0.61829 0.79997 0.38915 0.0
C3699 C 0.66009 0.80598 0.38628 0.0
N3700 N 0.59192 0.83118 0.37096 0.0
N3701 N 0.64678 0.81981 0.37849 0.0
H3702 H 0.12945 0.14598 0.91729 0.0
H3703 H 0.02362 0.13556 0.85706 0.0
H3704 H 0.09499 0.19817 0.89697 0.0
H3705 H 0.06239 0.08492 0.8734 0.0
H3706 H 0.04942 0.159 0.87066 0.0
H3707 H 0.1046 0.12368 0.90111 0.0
C3708 C 0.11663 0.15278 0.90941 0.0
C3709 C 0.11448 0.17403 0.90832 0.0
C3710 C 0.05231 0.14276 0.8711 0.0
C3711 C 0.08575 0.14842 0.88961 0.0
C3712 C 0.03762 0.12935 0.86326 0.0
C3713 C 0.04075 0.10816 0.8641 0.0
C3714 C 0.07022 0.13494 0.87992 0.0
C3715 C 0.05918 0.10107 0.87244 0.0
C3716 C 0.10246 0.14 0.90005 0.0
C3717 C 0.09753 0.18191 0.89782 0.0
N3718 N 0.07309 0.11438 0.88008 0.0
N3719 N 0.08378 0.16911 0.88891 0.0
H3720 H 0.83593 0.19981 0.88831 0.0
H3721 H 0.95167 0.16871 0.86394 0.0
H3722 H 0.88664 0.23939 0.90232 0.0
H3723 H 0.89871 0.13584 0.84297 0.0
H3724 H 0.92904 0.19353 0.88057 0.0
H3725 H 0.85961 0.17484 0.87468 0.0
C3726 C 0.85209 0.20324 0.88867 0.0
C3727 C 0.85922 0.22187 0.89643 0.0
C3728 C 0.92243 0.18084 0.87237 0.0
C3729 C 0.88666 0.1931 0.88054 0.0
C3730 C 0.93533 0.16658 0.86299 0.0
C3731 C 0.92709 0.15001 0.85222 0.0
C3732 C 0.90115 0.17842 0.87102 0.0
C3733 C 0.90578 0.14837 0.85104 0.0
C3734 C 0.86565 0.18893 0.88078 0.0
C3735 C 0.88042 0.22525 0.89652 0.0
N3736 N 0.89362 0.16229 0.86036 0.0
N3737 N 0.8934 0.21105 0.88859 0.0
H3738 H 0.56184 0.42605 0.1384 0.0
H3739 H 0.59398 0.31053 0.11483 0.0
H3740 H 0.52357 0.37484 0.15403 0.0
H3741 H 0.62683 0.36343 0.09373 0.0
H3742 H 0.56921 0.33309 0.13155 0.0
H3743 H 0.58716 0.40264 0.12479 0.0
C3744 C 0.55879 0.40985 0.13915 0.0
C3745 C 0.54042 0.40248 0.14735 0.0
C3746 C 0.58189 0.33972 0.12331 0.0
C3747 C 0.56953 0.37538 0.13147 0.0
C3748 C 0.59611 0.32685 0.11387 0.0
C3749 C 0.61268 0.33508 0.10305 0.0
C3750 C 0.58428 0.36097 0.12194 0.0
C3751 C 0.61431 0.35637 0.10185 0.0
C3752 C 0.57329 0.39645 0.13127 0.0
C3753 C 0.53749 0.38124 0.1479 0.0
N3754 N 0.60039 0.36851 0.11121 0.0
N3755 N 0.55184 0.36844 0.13996 0.0
H3756 H 0.62602 0.23927 0.10935 0.0
H3757 H 0.61403 0.1358 0.17305 0.0
H3758 H 0.67614 0.20062 0.12755 0.0
H3759 H 0.56227 0.16854 0.14903 0.0
H3760 H 0.63671 0.16032 0.1569 0.0
H3761 H 0.60213 0.21409 0.1234 0.0
C3762 C 0.63202 0.22543 0.11607 0.0
C3763 C 0.65319 0.22215 0.11729 0.0
C3764 C 0.6204 0.16216 0.15503 0.0
C3765 C 0.62593 0.19343 0.13363 0.0
C3766 C 0.6074 0.1482 0.16439 0.0
C3767 C 0.58619 0.14993 0.16222 0.0
C3768 C 0.61222 0.17826 0.14351 0.0
C3769 C 0.57853 0.16632 0.15073 0.0
C3770 C 0.61836 0.21111 0.12416 0.0
C3771 C 0.66001 0.20395 0.12629 0.0
N3772 N 0.59154 0.17989 0.14183 0.0
N3773 N 0.64648 0.19041 0.13417 0.0
H3774 H 0.39889 0.37492 0.17185 0.0
H3775 H 0.3874 0.27089 0.10913 0.0
H3776 H 0.45102 0.34227 0.14852 0.0
H3777 H 0.33746 0.31088 0.12475 0.0
H3778 H 0.4113 0.296 0.12337 0.0
H3779 H 0.37647 0.35037 0.15543 0.0
C3780 C 0.40565 0.36254 0.16328 0.0
C3781 C 0.42689 0.36083 0.1614 0.0
C3782 C 0.39511 0.29928 0.1235 0.0
C3783 C 0.40115 0.33246 0.14238 0.0
C3784 C 0.38145 0.28499 0.11531 0.0
C3785 C 0.36032 0.28869 0.11577 0.0
C3786 C 0.38755 0.3173 0.13232 0.0
C3787 C 0.35355 0.30722 0.12409 0.0
C3788 C 0.3928 0.34855 0.15376 0.0
C3789 C 0.43473 0.34445 0.15002 0.0
N3790 N 0.36706 0.32069 0.1321 0.0
N3791 N 0.42186 0.33085 0.14096 0.0
loop_
_geom_bond_atom_site_label_1
_geom_bond_atom_site_label_2
_geom_bond_distance
_geom_bond_site_symmetry_2
_ccdc_geom_bond_type
Co0 O3 1.970 . S
Co0 N17 1.989 . S
Co0 O25 1.967 . S
Co0 O32 1.920 . S
Co1 O4 1.966 . S
Co1 N10 2.022 . S
Co1 N18 1.993 . S
Co1 O26 1.941 . S
C2 O3 1.258 . S
C2 O4 1.263 . S
O3 Co0 1.970 . S
O3 C2 1.258 . S
O4 Co1 1.966 . S
O4 C2 1.263 . S
C5 O6 1.235 . S
C5 O32 1.289 . S
O6 C5 1.235 . S
C7 C9 1.400 . S
C7 N10 1.351 . S
C7 C12 1.501 . S
C8 C9 1.387 . S
C8 N11 1.341 . S
C9 C7 1.400 . S
C9 C8 1.387 . S
N10 Co1 2.022 . S
N10 C7 1.351 . S
N10 N11 1.365 . S
N11 C8 1.341 . S
N11 N10 1.365 . S
N11 H31 0.862 . S
C12 C7 1.501 . S
C12 H13 0.961 . S
C12 H14 0.961 . S
C12 H15 0.960 . S
H13 C12 0.961 . S
H14 C12 0.961 . S
H15 C12 0.960 . S
C16 N17 1.342 . S
C16 C20 1.401 . S
C16 C21 1.499 . S
N17 Co0 1.989 . S
N17 C16 1.342 . S
N17 N18 1.388 . S
N18 Co1 1.993 . S
N18 N17 1.388 . S
N18 C19 1.346 . S
C19 N18 1.346 . S
C19 C20 1.396 . S
C19 C29 1.510 . S
C20 C16 1.401 . S
C20 C19 1.396 . S
C21 C16 1.499 . S
C21 H22 0.959 . S
C21 H23 0.960 . S
C21 H24 0.961 . S
H22 C21 0.959 . S
H23 C21 0.960 . S
H24 C21 0.961 . S
O25 Co0 1.967 . S
O25 C33 1.258 . S
O26 Co1 1.941 . S
O26 C33 1.266 . S
H27 C29 0.959 . S
H28 C29 0.961 . S
C29 C19 1.510 . S
C29 H27 0.959 . S
C29 H28 0.961 . S
C29 H30 0.960 . S
H30 C29 0.960 . S
H31 N11 0.862 . S
O32 Co0 1.920 . S
O32 C5 1.289 . S
C33 O25 1.258 . S
C33 O26 1.266 . S
Co34 O37 1.970 . S
Co34 N51 1.989 . S
Co34 O59 1.967 . S
Co34 O66 1.920 . S
Co35 O38 1.966 . S
Co35 N44 2.022 . S
Co35 N52 1.993 . S
Co35 O60 1.941 . S
C36 O37 1.258 . S
C36 O38 1.263 . S
O37 Co34 1.970 . S
O37 C36 1.258 . S
O38 Co35 1.966 . S
O38 C36 1.263 . S
C39 O40 1.232 1_554 S
C39 O66 1.310 . S
O40 C39 1.232 1_556 S
C41 C43 1.400 . S
C41 N44 1.351 . S
C41 C46 1.501 . S
C42 C43 1.387 . S
C42 N45 1.341 . S
C43 C41 1.400 . S
C43 C42 1.387 . S
N44 Co35 2.022 . S
N44 C41 1.351 . S
N44 N45 1.365 . S
N45 C42 1.341 . S
N45 N44 1.365 . S
N45 H65 0.862 . S
C46 C41 1.501 . S
C46 H47 0.961 . S
C46 H48 0.961 . S
C46 H49 0.960 . S
H47 C46 0.961 . S
H48 C46 0.961 . S
H49 C46 0.960 . S
C50 N51 1.342 . S
C50 C54 1.401 . S
C50 C55 1.499 . S
N51 Co34 1.989 . S
N51 C50 1.342 . S
N51 N52 1.388 . S
N52 Co35 1.993 . S
N52 N51 1.388 . S
N52 C53 1.346 . S
C53 N52 1.346 . S
C53 C54 1.396 . S
C53 C63 1.510 . S
C54 C50 1.401 . S
C54 C53 1.396 . S
C55 C50 1.499 . S
C55 H56 0.959 . S
C55 H57 0.960 . S
C55 H58 0.961 . S
H56 C55 0.959 . S
H57 C55 0.960 . S
H58 C55 0.961 . S
O59 Co34 1.967 . S
O59 C67 1.258 . S
O60 Co35 1.941 . S
O60 C67 1.266 . S
H61 C63 0.959 . S
H62 C63 0.961 . S
C63 C53 1.510 . S
C63 H61 0.959 . S
C63 H62 0.961 . S
C63 H64 0.960 . S
H64 C63 0.960 . S
H65 N45 0.862 . S
O66 Co34 1.920 . S
O66 C39 1.310 . S
C67 O59 1.258 . S
C67 O60 1.266 . S
Co68 O71 1.970 . S
Co68 N85 1.989 . S
Co68 O93 1.967 . S
Co68 O100 1.920 . S
Co69 O72 1.966 . S
Co69 N78 2.022 . S
Co69 N86 1.993 . S
Co69 O94 1.941 . S
C70 O71 1.258 . S
C70 O72 1.263 . S
O71 Co68 1.970 . S
O71 C70 1.258 . S
O72 Co69 1.966 . S
O72 C70 1.263 . S
C73 O74 1.235 . S
C73 O100 1.289 . S
O74 C73 1.235 . S
C75 C77 1.400 . S
C75 N78 1.351 . S
C75 C80 1.501 . S
C76 C77 1.387 . S
C76 N79 1.341 . S
C77 C75 1.400 . S
C77 C76 1.387 . S
N78 Co69 2.022 . S
N78 C75 1.351 . S
N78 N79 1.365 . S
N79 C76 1.341 . S
N79 N78 1.365 . S
N79 H99 0.862 . S
C80 C75 1.501 . S
C80 H81 0.961 . S
C80 H82 0.961 . S
C80 H83 0.960 . S
H81 C80 0.961 . S
H82 C80 0.961 . S
H83 C80 0.960 . S
C84 N85 1.342 . S
C84 C88 1.401 . S
C84 C89 1.499 . S
N85 Co68 1.989 . S
N85 C84 1.342 . S
N85 N86 1.388 . S
N86 Co69 1.993 . S
N86 N85 1.388 . S
N86 C87 1.346 . S
C87 N86 1.346 . S
C87 C88 1.396 . S
C87 C97 1.510 . S
C88 C84 1.401 . S
C88 C87 1.396 . S
C89 C84 1.499 . S
C89 H90 0.959 . S
C89 H91 0.960 . S
C89 H92 0.961 . S
H90 C89 0.959 . S
H91 C89 0.960 . S
H92 C89 0.961 . S
O93 Co68 1.967 . S
O93 C101 1.258 . S
O94 Co69 1.941 . S
O94 C101 1.266 . S
H95 C97 0.959 . S
H96 C97 0.961 . S
C97 C87 1.510 . S
C97 H95 0.959 . S
C97 H96 0.961 . S
C97 H98 0.960 . S
H98 C97 0.960 . S
H99 N79 0.862 . S
O100 Co68 1.920 . S
O100 C73 1.289 . S
C101 O93 1.258 . S
C101 O94 1.266 . S
Co102 O105 1.970 . S
Co102 N119 1.989 . S
Co102 O127 1.967 . S
Co102 O134 1.920 . S
Co103 O106 1.966 . S
Co103 N112 2.022 . S
Co103 N120 1.993 . S
Co103 O128 1.941 . S
C104 O105 1.258 . S
C104 O106 1.263 . S
O105 Co102 1.970 . S
O105 C104 1.258 . S
O106 Co103 1.966 . S
O106 C104 1.263 . S
C107 O108 1.232 1_554 S
C107 O134 1.310 . S
O108 C107 1.232 1_556 S
C109 C111 1.400 . S
C109 N112 1.351 . S
C109 C114 1.501 . S
C110 C111 1.387 . S
C110 N113 1.341 . S
C111 C109 1.400 . S
C111 C110 1.387 . S
N112 Co103 2.022 . S
N112 C109 1.351 . S
N112 N113 1.365 . S
N113 C110 1.341 . S
N113 N112 1.365 . S
N113 H133 0.862 . S
C114 C109 1.501 . S
C114 H115 0.961 . S
C114 H116 0.961 . S
C114 H117 0.960 . S
H115 C114 0.961 . S
H116 C114 0.961 . S
H117 C114 0.960 . S
C118 N119 1.342 . S
C118 C122 1.401 . S
C118 C123 1.499 . S
N119 Co102 1.989 . S
N119 C118 1.342 . S
N119 N120 1.388 . S
N120 Co103 1.993 . S
N120 N119 1.388 . S
N120 C121 1.346 . S
C121 N120 1.346 . S
C121 C122 1.396 . S
C121 C131 1.510 . S
C122 C118 1.401 . S
C122 C121 1.396 . S
C123 C118 1.499 . S
C123 H124 0.959 . S
C123 H125 0.960 . S
C123 H126 0.961 . S
H124 C123 0.959 . S
H125 C123 0.960 . S
H126 C123 0.961 . S
O127 Co102 1.967 . S
O127 C135 1.258 . S
O128 Co103 1.941 . S
O128 C135 1.266 . S
H129 C131 0.959 . S
H130 C131 0.961 . S
C131 C121 1.510 . S
C131 H129 0.959 . S
C131 H130 0.961 . S
C131 H132 0.960 . S
H132 C131 0.960 . S
H133 N113 0.862 . S
O134 Co102 1.920 . S
O134 C107 1.310 . S
C135 O127 1.258 . S
C135 O128 1.266 . S
Co136 O139 1.970 . S
Co136 N153 1.989 . S
Co136 O161 1.967 . S
Co136 O168 1.920 . S
Co137 O140 1.966 . S
Co137 N146 2.022 . S
Co137 N154 1.993 . S
Co137 O162 1.941 . S
C138 O139 1.258 . S
C138 O140 1.263 . S
O139 Co136 1.970 . S
O139 C138 1.258 . S
O140 Co137 1.966 . S
O140 C138 1.263 . S
C141 O142 1.235 . S
C141 O168 1.289 . S
O142 C141 1.235 . S
C143 C145 1.400 . S
C143 N146 1.351 . S
C143 C148 1.501 . S
C144 C145 1.387 . S
C144 N147 1.341 . S
C145 C143 1.400 . S
C145 C144 1.387 . S
N146 Co137 2.022 . S
N146 C143 1.351 . S
N146 N147 1.365 . S
N147 C144 1.341 . S
N147 N146 1.365 . S
N147 H167 0.862 . S
C148 C143 1.501 . S
C148 H149 0.961 . S
C148 H150 0.961 . S
C148 H151 0.960 . S
H149 C148 0.961 . S
H150 C148 0.961 . S
H151 C148 0.960 . S
C152 N153 1.342 . S
C152 C156 1.401 . S
C152 C157 1.499 . S
N153 Co136 1.989 . S
N153 C152 1.342 . S
N153 N154 1.388 . S
N154 Co137 1.993 . S
N154 N153 1.388 . S
N154 C155 1.346 . S
C155 N154 1.346 . S
C155 C156 1.396 . S
C155 C165 1.510 . S
C156 C152 1.401 . S
C156 C155 1.396 . S
C157 C152 1.499 . S
C157 H158 0.959 . S
C157 H159 0.960 . S
C157 H160 0.961 . S
H158 C157 0.959 . S
H159 C157 0.960 . S
H160 C157 0.961 . S
O161 Co136 1.967 . S
O161 C169 1.258 . S
O162 Co137 1.941 . S
O162 C169 1.266 . S
H163 C165 0.959 . S
H164 C165 0.961 . S
C165 C155 1.510 . S
C165 H163 0.959 . S
C165 H164 0.961 . S
C165 H166 0.960 . S
H166 C165 0.960 . S
H167 N147 0.862 . S
O168 Co136 1.920 . S
O168 C141 1.289 . S
C169 O161 1.258 . S
C169 O162 1.266 . S
Co170 O173 1.970 . S
Co170 N187 1.989 . S
Co170 O195 1.967 . S
Co170 O202 1.920 . S
Co171 O174 1.966 . S
Co171 N180 2.022 . S
Co171 N188 1.993 . S
Co171 O196 1.941 . S
C172 O173 1.258 . S
C172 O174 1.263 . S
O173 Co170 1.970 . S
O173 C172 1.258 . S
O174 Co171 1.966 . S
O174 C172 1.263 . S
C175 O176 1.232 1_556 S
C175 O202 1.310 . S
O176 C175 1.232 1_554 S
C177 C179 1.400 . S
C177 N180 1.351 . S
C177 C182 1.501 . S
C178 C179 1.387 . S
C178 N181 1.341 . S
C179 C177 1.400 . S
C179 C178 1.387 . S
N180 Co171 2.022 . S
N180 C177 1.351 . S
N180 N181 1.365 . S
N181 C178 1.341 . S
N181 N180 1.365 . S
N181 H201 0.862 . S
C182 C177 1.501 . S
C182 H183 0.961 . S
C182 H184 0.961 . S
C182 H185 0.960 . S
H183 C182 0.961 . S
H184 C182 0.961 . S
H185 C182 0.960 . S
C186 N187 1.342 . S
C186 C190 1.401 . S
C186 C191 1.499 . S
N187 Co170 1.989 . S
N187 C186 1.342 . S
N187 N188 1.388 . S
N188 Co171 1.993 . S
N188 N187 1.388 . S
N188 C189 1.346 . S
C189 N188 1.346 . S
C189 C190 1.396 . S
C189 C199 1.510 . S
C190 C186 1.401 . S
C190 C189 1.396 . S
C191 C186 1.499 . S
C191 H192 0.959 . S
C191 H193 0.960 . S
C191 H194 0.986 . S
H192 C191 0.959 . S
H193 C191 0.960 . S
H194 C191 0.986 . S
O195 Co170 1.967 . S
O195 C203 1.258 . S
O196 Co171 1.941 . S
O196 C203 1.266 . S
H197 C199 0.959 . S
H198 C199 0.961 . S
C199 C189 1.510 . S
C199 H197 0.959 . S
C199 H198 0.961 . S
C199 H200 0.960 . S
H200 C199 0.960 . S
H201 N181 0.862 . S
O202 Co170 1.920 . S
O202 C175 1.310 . S
C203 O195 1.258 . S
C203 O196 1.266 . S
Co204 O207 1.970 . S
Co204 N221 1.989 . S
Co204 O229 1.967 . S
Co204 O236 1.920 . S
Co205 O208 1.966 . S
Co205 N214 2.022 . S
Co205 N222 1.993 . S
Co205 O230 1.941 . S
C206 O207 1.258 . S
C206 O208 1.263 . S
O207 Co204 1.970 . S
O207 C206 1.258 . S
O208 Co205 1.966 . S
O208 C206 1.263 . S
C209 O210 1.235 . S
C209 O236 1.289 . S
O210 C209 1.235 . S
C211 C213 1.400 . S
C211 N214 1.351 . S
C211 C216 1.501 . S
C212 C213 1.387 . S
C212 N215 1.341 . S
C213 C211 1.400 . S
C213 C212 1.387 . S
N214 Co205 2.022 . S
N214 C211 1.351 . S
N214 N215 1.365 . S
N215 C212 1.341 . S
N215 N214 1.365 . S
N215 H235 0.862 . S
C216 C211 1.501 . S
C216 H217 0.961 . S
C216 H218 0.961 . S
C216 H219 0.960 . S
H217 C216 0.961 . S
H218 C216 0.961 . S
H219 C216 0.960 . S
C220 N221 1.342 . S
C220 C224 1.401 . S
C220 C225 1.499 . S
N221 Co204 1.989 . S
N221 C220 1.342 . S
N221 N222 1.388 . S
N222 Co205 1.993 . S
N222 N221 1.388 . S
N222 C223 1.346 . S
C223 N222 1.346 . S
C223 C224 1.396 . S
C223 C233 1.510 . S
C224 C220 1.401 . S
C224 C223 1.396 . S
C225 C220 1.499 . S
C225 H226 0.959 . S
C225 H227 0.960 . S
C225 H228 0.961 . S
H226 C225 0.959 . S
H227 C225 0.960 . S
H228 C225 0.961 . S
O229 Co204 1.967 . S
O229 C237 1.258 . S
O230 Co205 1.941 . S
O230 C237 1.266 . S
H231 C233 0.959 . S
H232 C233 0.961 . S
C233 C223 1.510 . S
C233 H231 0.959 . S
C233 H232 0.961 . S
C233 H234 0.960 . S
H234 C233 0.960 . S
H235 N215 0.862 . S
O236 Co204 1.920 . S
O236 C209 1.289 . S
C237 O229 1.258 . S
C237 O230 1.266 . S
Co238 O241 1.970 . S
Co238 N255 1.989 . S
Co238 O263 1.967 . S
Co238 O270 1.920 . S
Co239 O242 1.966 . S
Co239 N248 2.022 . S
Co239 N256 1.993 . S
Co239 O264 1.941 . S
C240 O241 1.258 . S
C240 O242 1.263 . S
O241 Co238 1.970 . S
O241 C240 1.258 . S
O242 Co239 1.966 . S
O242 C240 1.263 . S
C243 O244 1.232 1_556 S
C243 O270 1.311 . S
O244 C243 1.232 1_554 S
C245 C247 1.400 . S
C245 N248 1.351 . S
C245 C250 1.501 . S
C246 C247 1.387 . S
C246 N249 1.341 . S
C247 C245 1.400 . S
C247 C246 1.387 . S
N248 Co239 2.022 . S
N248 C245 1.351 . S
N248 N249 1.365 . S
N249 C246 1.341 . S
N249 N248 1.365 . S
N249 H269 0.862 . S
C250 C245 1.501 . S
C250 H251 0.961 . S
C250 H252 0.961 . S
C250 H253 0.960 . S
H251 C250 0.961 . S
H252 C250 0.961 . S
H253 C250 0.960 . S
C254 N255 1.342 . S
C254 C258 1.401 . S
C254 C259 1.499 . S
N255 Co238 1.989 . S
N255 C254 1.342 . S
N255 N256 1.388 . S
N256 Co239 1.993 . S
N256 N255 1.388 . S
N256 C257 1.346 . S
C257 N256 1.346 . S
C257 C258 1.396 . S
C257 C267 1.510 . S
C258 C254 1.401 . S
C258 C257 1.396 . S
C259 C254 1.499 . S
C259 H260 0.959 . S
C259 H261 0.960 . S
C259 H262 0.986 . S
H260 C259 0.959 . S
H261 C259 0.960 . S
H262 C259 0.986 . S
O263 Co238 1.967 . S
O263 C271 1.258 . S
O264 Co239 1.941 . S
O264 C271 1.266 . S
H265 C267 0.959 . S
H266 C267 0.961 . S
C267 C257 1.510 . S
C267 H265 0.959 . S
C267 H266 0.961 . S
C267 H268 0.960 . S
H268 C267 0.960 . S
H269 N249 0.862 . S
O270 Co238 1.920 . S
O270 C243 1.311 . S
C271 O263 1.258 . S
C271 O264 1.266 . S
Co272 O275 1.970 . S
Co272 N289 1.989 . S
Co272 O297 1.967 . S
Co272 O304 1.920 . S
Co273 O276 1.966 . S
Co273 N282 2.022 . S
Co273 N290 1.993 . S
Co273 O298 1.941 . S
C274 O275 1.258 . S
C274 O276 1.263 . S
O275 Co272 1.970 . S
O275 C274 1.258 . S
O276 Co273 1.966 . S
O276 C274 1.263 . S
C277 O278 1.235 . S
C277 O304 1.289 . S
O278 C277 1.235 . S
C279 C281 1.400 . S
C279 N282 1.351 . S
C279 C284 1.501 . S
C280 C281 1.387 . S
C280 N283 1.341 . S
C281 C279 1.400 . S
C281 C280 1.387 . S
N282 Co273 2.022 . S
N282 C279 1.351 . S
N282 N283 1.365 . S
N283 C280 1.341 . S
N283 N282 1.365 . S
N283 H303 0.862 . S
C284 C279 1.501 . S
C284 H285 0.961 . S
C284 H286 0.961 . S
C284 H287 0.960 . S
H285 C284 0.961 . S
H286 C284 0.961 . S
H287 C284 0.960 . S
C288 N289 1.342 . S
C288 C292 1.401 . S
C288 C293 1.499 . S
N289 Co272 1.989 . S
N289 C288 1.342 . S
N289 N290 1.388 . S
N290 Co273 1.993 . S
N290 N289 1.388 . S
N290 C291 1.346 . S
C291 N290 1.346 . S
C291 C292 1.396 . S
C291 C301 1.510 . S
C292 C288 1.401 . S
C292 C291 1.396 . S
C293 C288 1.499 . S
C293 H294 0.959 . S
C293 H295 0.960 . S
C293 H296 0.961 . S
H294 C293 0.959 . S
H295 C293 0.960 . S
H296 C293 0.961 . S
O297 Co272 1.967 . S
O297 C305 1.258 . S
O298 Co273 1.941 . S
O298 C305 1.266 . S
H299 C301 0.959 . S
H300 C301 0.961 . S
C301 C291 1.510 . S
C301 H299 0.959 . S
C301 H300 0.961 . S
C301 H302 0.960 . S
H302 C301 0.960 . S
H303 N283 0.862 . S
O304 Co272 1.920 . S
O304 C277 1.289 . S
C305 O297 1.258 . S
C305 O298 1.266 . S
Co306 O309 1.970 . S
Co306 N323 1.989 . S
Co306 O331 1.967 . S
Co306 O338 1.920 . S
Co307 O310 1.966 . S
Co307 N316 2.022 . S
Co307 N324 1.993 . S
Co307 O332 1.941 . S
C308 O309 1.258 . S
C308 O310 1.263 . S
O309 Co306 1.970 . S
O309 C308 1.258 . S
O310 Co307 1.966 . S
O310 C308 1.263 . S
C311 O312 1.235 . S
C311 O338 1.289 . S
O312 C311 1.235 . S
C313 C315 1.400 . S
C313 N316 1.351 . S
C313 C318 1.501 . S
C314 C315 1.387 . S
C314 N317 1.341 . S
C315 C313 1.400 . S
C315 C314 1.387 . S
N316 Co307 2.022 . S
N316 C313 1.351 . S
N316 N317 1.365 . S
N317 C314 1.341 . S
N317 N316 1.365 . S
N317 H337 0.862 . S
C318 C313 1.501 . S
C318 H319 0.961 . S
C318 H320 0.961 . S
C318 H321 0.960 . S
H319 C318 0.961 . S
H320 C318 0.961 . S
H321 C318 0.960 . S
C322 N323 1.342 . S
C322 C326 1.401 . S
C322 C327 1.499 . S
N323 Co306 1.989 . S
N323 C322 1.342 . S
N323 N324 1.388 . S
N324 Co307 1.993 . S
N324 N323 1.388 . S
N324 C325 1.346 . S
C325 N324 1.346 . S
C325 C326 1.396 . S
C325 C335 1.510 . S
C326 C322 1.401 . S
C326 C325 1.396 . S
C327 C322 1.499 . S
C327 H328 0.959 . S
C327 H329 0.960 . S
C327 H330 0.986 . S
H328 C327 0.959 . S
H329 C327 0.960 . S
H330 C327 0.986 . S
O331 Co306 1.967 . S
O331 C339 1.258 . S
O332 Co307 1.941 . S
O332 C339 1.266 . S
H333 C335 0.959 . S
H334 C335 0.961 . S
C335 C325 1.510 . S
C335 H333 0.959 . S
C335 H334 0.961 . S
C335 H336 0.960 . S
H336 C335 0.960 . S
H337 N317 0.862 . S
O338 Co306 1.920 . S
O338 C311 1.289 . S
C339 O331 1.258 . S
C339 O332 1.266 . S
Co340 O343 1.970 . S
Co340 N357 1.989 . S
Co340 O365 1.967 . S
Co340 O372 1.920 . S
Co341 O344 1.966 . S
Co341 N350 2.022 . S
Co341 N358 1.993 . S
Co341 O366 1.941 . S
C342 O343 1.258 . S
C342 O344 1.263 . S
O343 Co340 1.970 . S
O343 C342 1.258 . S
O344 Co341 1.966 . S
O344 C342 1.263 . S
C345 O346 1.235 . S
C345 O372 1.289 . S
O346 C345 1.235 . S
C347 C349 1.400 . S
C347 N350 1.351 . S
C347 C352 1.501 . S
C348 C349 1.387 . S
C348 N351 1.341 . S
C349 C347 1.400 . S
C349 C348 1.387 . S
N350 Co341 2.022 . S
N350 C347 1.351 . S
N350 N351 1.365 . S
N351 C348 1.341 . S
N351 N350 1.365 . S
N351 H371 0.862 . S
C352 C347 1.501 . S
C352 H353 0.961 . S
C352 H354 0.961 . S
C352 H355 0.960 . S
H353 C352 0.961 . S
H354 C352 0.961 . S
H355 C352 0.960 . S
C356 N357 1.342 . S
C356 C360 1.401 . S
C356 C361 1.499 . S
N357 Co340 1.989 . S
N357 C356 1.342 . S
N357 N358 1.388 . S
N358 Co341 1.993 . S
N358 N357 1.388 . S
N358 C359 1.346 . S
C359 N358 1.346 . S
C359 C360 1.396 . S
C359 C369 1.510 . S
C360 C356 1.401 . S
C360 C359 1.396 . S
C361 C356 1.499 . S
C361 H362 0.959 . S
C361 H363 0.960 . S
C361 H364 0.961 . S
H362 C361 0.959 . S
H363 C361 0.960 . S
H364 C361 0.961 . S
O365 Co340 1.967 . S
O365 C373 1.258 . S
O366 Co341 1.941 . S
O366 C373 1.266 . S
H367 C369 0.959 . S
H368 C369 0.961 . S
C369 C359 1.510 . S
C369 H367 0.959 . S
C369 H368 0.961 . S
C369 H370 0.960 . S
H370 C369 0.960 . S
H371 N351 0.862 . S
O372 Co340 1.920 . S
O372 C345 1.289 . S
C373 O365 1.258 . S
C373 O366 1.266 . S
Co374 O377 1.970 . S
Co374 N391 1.989 . S
Co374 O399 1.967 . S
Co374 O406 1.920 . S
Co375 O378 1.966 . S
Co375 N384 2.022 . S
Co375 N392 1.993 . S
Co375 O400 1.941 . S
C376 O377 1.258 . S
C376 O378 1.263 . S
O377 Co374 1.970 . S
O377 C376 1.258 . S
O378 Co375 1.966 . S
O378 C376 1.263 . S
C379 O380 1.232 1_565 S
C379 O406 1.310 . S
O380 C379 1.232 1_545 S
C381 C383 1.400 . S
C381 N384 1.351 . S
C381 C386 1.501 . S
C382 C383 1.387 . S
C382 N385 1.341 . S
C383 C381 1.400 . S
C383 C382 1.387 . S
N384 Co375 2.022 . S
N384 C381 1.351 . S
N384 N385 1.365 . S
N385 C382 1.341 . S
N385 N384 1.365 . S
N385 H405 0.862 . S
C386 C381 1.501 . S
C386 H387 0.961 . S
C386 H388 0.961 . S
C386 H389 0.960 . S
H387 C386 0.961 . S
H388 C386 0.961 . S
H389 C386 0.960 . S
C390 N391 1.342 . S
C390 C394 1.401 . S
C390 C395 1.499 . S
N391 Co374 1.989 . S
N391 C390 1.342 . S
N391 N392 1.388 . S
N392 Co375 1.993 . S
N392 N391 1.388 . S
N392 C393 1.346 . S
C393 N392 1.346 . S
C393 C394 1.396 . S
C393 C403 1.510 . S
C394 C390 1.401 . S
C394 C393 1.396 . S
C395 C390 1.499 . S
C395 H396 0.959 . S
C395 H397 0.960 . S
C395 H398 0.986 . S
H396 C395 0.959 . S
H397 C395 0.960 . S
H398 C395 0.986 . S
O399 Co374 1.967 . S
O399 C407 1.258 . S
O400 Co375 1.941 . S
O400 C407 1.266 . S
H401 C403 0.959 . S
H402 C403 0.961 . S
C403 C393 1.510 . S
C403 H401 0.959 . S
C403 H402 0.961 . S
C403 H404 0.960 . S
H404 C403 0.960 . S
H405 N385 0.862 . S
O406 Co374 1.920 . S
O406 C379 1.310 . S
C407 O399 1.258 . S
C407 O400 1.266 . S
Co408 O411 1.970 . S
Co408 N425 1.989 . S
Co408 O433 1.967 . S
Co408 O440 1.920 . S
Co409 O412 1.966 . S
Co409 N418 2.022 . S
Co409 N426 1.993 . S
Co409 O434 1.941 . S
C410 O411 1.258 . S
C410 O412 1.263 . S
O411 Co408 1.970 . S
O411 C410 1.258 . S
O412 Co409 1.966 . S
O412 C410 1.263 . S
C413 O414 1.235 . S
C413 O440 1.289 . S
O414 C413 1.235 . S
C415 C417 1.400 . S
C415 N418 1.351 . S
C415 C420 1.501 . S
C416 C417 1.387 . S
C416 N419 1.341 . S
C417 C415 1.400 . S
C417 C416 1.387 . S
N418 Co409 2.022 . S
N418 C415 1.351 . S
N418 N419 1.365 . S
N419 C416 1.341 . S
N419 N418 1.365 . S
N419 H439 0.862 . S
C420 C415 1.501 . S
C420 H421 0.961 . S
C420 H422 0.961 . S
C420 H423 0.960 . S
H421 C420 0.961 . S
H422 C420 0.961 . S
H423 C420 0.960 . S
C424 N425 1.342 . S
C424 C428 1.401 . S
C424 C429 1.499 . S
N425 Co408 1.989 . S
N425 C424 1.342 . S
N425 N426 1.388 . S
N426 Co409 1.993 . S
N426 N425 1.388 . S
N426 C427 1.346 . S
C427 N426 1.346 . S
C427 C428 1.396 . S
C427 C437 1.510 . S
C428 C424 1.401 . S
C428 C427 1.396 . S
C429 C424 1.499 . S
C429 H430 0.959 . S
C429 H431 0.960 . S
C429 H432 0.961 . S
H430 C429 0.959 . S
H431 C429 0.960 . S
H432 C429 0.961 . S
O433 Co408 1.967 . S
O433 C441 1.258 . S
O434 Co409 1.941 . S
O434 C441 1.266 . S
H435 C437 0.959 . S
H436 C437 0.961 . S
C437 C427 1.510 . S
C437 H435 0.959 . S
C437 H436 0.961 . S
C437 H438 0.960 . S
H438 C437 0.960 . S
H439 N419 0.862 . S
O440 Co408 1.920 . S
O440 C413 1.289 . S
C441 O433 1.258 . S
C441 O434 1.266 . S
Co442 O445 1.970 . S
Co442 N459 1.989 . S
Co442 O467 1.967 . S
Co442 O474 1.920 . S
Co443 O446 1.966 . S
Co443 N452 2.022 . S
Co443 N460 1.993 . S
Co443 O468 1.941 . S
C444 O445 1.258 . S
C444 O446 1.263 . S
O445 Co442 1.970 . S
O445 C444 1.258 . S
O446 Co443 1.966 . S
O446 C444 1.263 . S
C447 O448 1.235 . S
C447 O474 1.289 . S
O448 C447 1.235 . S
C449 C451 1.400 . S
C449 N452 1.351 . S
C449 C454 1.501 . S
C450 C451 1.387 . S
C450 N453 1.341 . S
C451 C449 1.400 . S
C451 C450 1.387 . S
N452 Co443 2.022 . S
N452 C449 1.351 . S
N452 N453 1.365 . S
N453 C450 1.341 . S
N453 N452 1.365 . S
N453 H473 0.862 . S
C454 C449 1.501 . S
C454 H455 0.961 . S
C454 H456 0.961 . S
C454 H457 0.960 . S
H455 C454 0.961 . S
H456 C454 0.961 . S
H457 C454 0.960 . S
C458 N459 1.342 . S
C458 C462 1.401 . S
C458 C463 1.499 . S
N459 Co442 1.989 . S
N459 C458 1.342 . S
N459 N460 1.388 . S
N460 Co443 1.993 . S
N460 N459 1.388 . S
N460 C461 1.346 . S
C461 N460 1.346 . S
C461 C462 1.396 . S
C461 C471 1.510 . S
C462 C458 1.401 . S
C462 C461 1.396 . S
C463 C458 1.499 . S
C463 H464 0.959 . S
C463 H465 0.960 . S
C463 H466 0.986 . S
H464 C463 0.959 . S
H465 C463 0.960 . S
H466 C463 0.986 . S
O467 Co442 1.967 . S
O467 C475 1.258 . S
O468 Co443 1.941 . S
O468 C475 1.266 . S
H469 C471 0.959 . S
H470 C471 0.961 . S
C471 C461 1.510 . S
C471 H469 0.959 . S
C471 H470 0.961 . S
C471 H472 0.960 . S
H472 C471 0.960 . S
H473 N453 0.862 . S
O474 Co442 1.920 . S
O474 C447 1.289 . S
C475 O467 1.258 . S
C475 O468 1.266 . S
Co476 O479 1.970 . S
Co476 N493 1.989 . S
Co476 O501 1.967 . S
Co476 O508 1.920 . S
Co477 O480 1.966 . S
Co477 N486 2.022 . S
Co477 N494 1.993 . S
Co477 O502 1.941 . S
C478 O479 1.258 . S
C478 O480 1.263 . S
O479 Co476 1.970 . S
O479 C478 1.258 . S
O480 Co477 1.966 . S
O480 C478 1.263 . S
C481 O482 1.235 . S
C481 O508 1.289 . S
O482 C481 1.235 . S
C483 C485 1.400 . S
C483 N486 1.351 . S
C483 C488 1.501 . S
C484 C485 1.387 . S
C484 N487 1.341 . S
C485 C483 1.400 . S
C485 C484 1.387 . S
N486 Co477 2.022 . S
N486 C483 1.351 . S
N486 N487 1.365 . S
N487 C484 1.341 . S
N487 N486 1.365 . S
N487 H507 0.862 . S
C488 C483 1.501 . S
C488 H489 0.961 . S
C488 H490 0.961 . S
C488 H491 0.960 . S
H489 C488 0.961 . S
H490 C488 0.961 . S
H491 C488 0.960 . S
C492 N493 1.342 . S
C492 C496 1.401 . S
C492 C497 1.499 . S
N493 Co476 1.989 . S
N493 C492 1.342 . S
N493 N494 1.388 . S
N494 Co477 1.993 . S
N494 N493 1.388 . S
N494 C495 1.346 . S
C495 N494 1.346 . S
C495 C496 1.396 . S
C495 C505 1.510 . S
C496 C492 1.401 . S
C496 C495 1.396 . S
C497 C492 1.499 . S
C497 H498 0.959 . S
C497 H499 0.960 . S
C497 H500 0.961 . S
H498 C497 0.959 . S
H499 C497 0.960 . S
H500 C497 0.961 . S
O501 Co476 1.967 . S
O501 C509 1.258 . S
O502 Co477 1.941 . S
O502 C509 1.266 . S
H503 C505 0.959 . S
H504 C505 0.961 . S
C505 C495 1.510 . S
C505 H503 0.959 . S
C505 H504 0.961 . S
C505 H506 0.960 . S
H506 C505 0.960 . S
H507 N487 0.862 . S
O508 Co476 1.920 . S
O508 C481 1.289 . S
C509 O501 1.258 . S
C509 O502 1.266 . S
Co510 O513 1.970 . S
Co510 N527 1.989 . S
Co510 O535 1.967 . S
Co510 O542 1.920 . S
Co511 O514 1.966 . S
Co511 N520 2.022 . S
Co511 N528 1.993 . S
Co511 O536 1.941 . S
C512 O513 1.258 . S
C512 O514 1.263 . S
O513 Co510 1.970 . S
O513 C512 1.258 . S
O514 Co511 1.966 . S
O514 C512 1.263 . S
C515 O516 1.232 1_565 S
C515 O542 1.311 . S
O516 C515 1.232 1_545 S
C517 C519 1.400 . S
C517 N520 1.351 . S
C517 C522 1.501 . S
C518 C519 1.387 . S
C518 N521 1.341 . S
C519 C517 1.400 . S
C519 C518 1.387 . S
N520 Co511 2.022 . S
N520 C517 1.351 . S
N520 N521 1.365 . S
N521 C518 1.341 . S
N521 N520 1.365 . S
N521 H541 0.862 . S
C522 C517 1.501 . S
C522 H523 0.961 . S
C522 H524 0.961 . S
C522 H525 0.960 . S
H523 C522 0.961 . S
H524 C522 0.961 . S
H525 C522 0.960 . S
C526 N527 1.342 . S
C526 C530 1.401 . S
C526 C531 1.499 . S
N527 Co510 1.989 . S
N527 C526 1.342 . S
N527 N528 1.388 . S
N528 Co511 1.993 . S
N528 N527 1.388 . S
N528 C529 1.346 . S
C529 N528 1.346 . S
C529 C530 1.396 . S
C529 C539 1.510 . S
C530 C526 1.401 . S
C530 C529 1.396 . S
C531 C526 1.499 . S
C531 H532 0.959 . S
C531 H533 0.960 . S
C531 H534 0.986 . S
H532 C531 0.959 . S
H533 C531 0.960 . S
H534 C531 0.986 . S
O535 Co510 1.967 . S
O535 C543 1.258 . S
O536 Co511 1.941 . S
O536 C543 1.266 . S
H537 C539 0.959 . S
H538 C539 0.961 . S
C539 C529 1.510 . S
C539 H537 0.959 . S
C539 H538 0.961 . S
C539 H540 0.960 . S
H540 C539 0.960 . S
H541 N521 0.862 . S
O542 Co510 1.920 . S
O542 C515 1.311 . S
C543 O535 1.258 . S
C543 O536 1.266 . S
Co544 O547 1.970 . S
Co544 N561 1.989 . S
Co544 O569 1.967 . S
Co544 O576 1.920 . S
Co545 O548 1.966 . S
Co545 N554 2.022 . S
Co545 N562 1.993 . S
Co545 O570 1.941 . S
C546 O547 1.258 . S
C546 O548 1.263 . S
O547 Co544 1.970 . S
O547 C546 1.258 . S
O548 Co545 1.966 . S
O548 C546 1.263 . S
C549 O550 1.235 . S
C549 O576 1.289 . S
O550 C549 1.235 . S
C551 C553 1.400 . S
C551 N554 1.351 . S
C551 C556 1.501 . S
C552 C553 1.387 . S
C552 N555 1.341 . S
C553 C551 1.400 . S
C553 C552 1.387 . S
N554 Co545 2.022 . S
N554 C551 1.351 . S
N554 N555 1.365 . S
N555 C552 1.341 . S
N555 N554 1.365 . S
N555 H575 0.862 . S
C556 C551 1.501 . S
C556 H557 0.961 . S
C556 H558 0.961 . S
C556 H559 0.960 . S
H557 C556 0.961 . S
H558 C556 0.961 . S
H559 C556 0.960 . S
C560 N561 1.342 . S
C560 C564 1.401 . S
C560 C565 1.499 . S
N561 Co544 1.989 . S
N561 C560 1.342 . S
N561 N562 1.388 . S
N562 Co545 1.993 . S
N562 N561 1.388 . S
N562 C563 1.346 . S
C563 N562 1.346 . S
C563 C564 1.396 . S
C563 C573 1.510 . S
C564 C560 1.401 . S
C564 C563 1.396 . S
C565 C560 1.499 . S
C565 H566 0.959 . S
C565 H567 0.960 . S
C565 H568 0.961 . S
H566 C565 0.959 . S
H567 C565 0.960 . S
H568 C565 0.961 . S
O569 Co544 1.967 . S
O569 C577 1.258 . S
O570 Co545 1.941 . S
O570 C577 1.266 . S
H571 C573 0.959 . S
H572 C573 0.961 . S
C573 C563 1.510 . S
C573 H571 0.959 . S
C573 H572 0.961 . S
C573 H574 0.960 . S
H574 C573 0.960 . S
H575 N555 0.862 . S
O576 Co544 1.920 . S
O576 C549 1.289 . S
C577 O569 1.258 . S
C577 O570 1.266 . S
Co578 O581 1.970 . S
Co578 N595 1.989 . S
Co578 O603 1.967 . S
Co578 O610 1.920 . S
Co579 O582 1.966 . S
Co579 N588 2.022 . S
Co579 N596 1.993 . S
Co579 O604 1.941 . S
C580 O581 1.258 . S
C580 O582 1.263 . S
O581 Co578 1.970 . S
O581 C580 1.258 . S
O582 Co579 1.966 . S
O582 C580 1.263 . S
C583 O584 1.235 . S
C583 O610 1.289 . S
O584 C583 1.235 . S
C585 C587 1.400 . S
C585 N588 1.351 . S
C585 C590 1.501 . S
C586 C587 1.387 . S
C586 N589 1.341 . S
C587 C585 1.400 . S
C587 C586 1.387 . S
N588 Co579 2.022 . S
N588 C585 1.351 . S
N588 N589 1.365 . S
N589 C586 1.341 . S
N589 N588 1.365 . S
N589 H609 0.862 . S
C590 C585 1.501 . S
C590 H591 0.961 . S
C590 H592 0.961 . S
C590 H593 0.960 . S
H591 C590 0.961 . S
H592 C590 0.961 . S
H593 C590 0.960 . S
C594 N595 1.342 . S
C594 C598 1.401 . S
C594 C599 1.499 . S
N595 Co578 1.989 . S
N595 C594 1.342 . S
N595 N596 1.388 . S
N596 Co579 1.993 . S
N596 N595 1.388 . S
N596 C597 1.346 . S
C597 N596 1.346 . S
C597 C598 1.396 . S
C597 C607 1.510 . S
C598 C594 1.401 . S
C598 C597 1.396 . S
C599 C594 1.499 . S
C599 H600 0.959 . S
C599 H601 0.960 . S
C599 H602 0.961 . S
H600 C599 0.959 . S
H601 C599 0.960 . S
H602 C599 0.961 . S
O603 Co578 1.967 . S
O603 C611 1.258 . S
O604 Co579 1.941 . S
O604 C611 1.266 . S
H605 C607 0.959 . S
H606 C607 0.961 . S
C607 C597 1.510 . S
C607 H605 0.959 . S
C607 H606 0.961 . S
C607 H608 0.960 . S
H608 C607 0.960 . S
H609 N589 0.862 . S
O610 Co578 1.920 . S
O610 C583 1.289 . S
C611 O603 1.258 . S
C611 O604 1.266 . S
Co612 O615 1.970 . S
Co612 N629 1.989 . S
Co612 O637 1.967 . S
Co612 O644 1.920 . S
Co613 O616 1.966 . S
Co613 N622 2.022 . S
Co613 N630 1.993 . S
Co613 O638 1.941 . S
C614 O615 1.258 . S
C614 O616 1.263 . S
O615 Co612 1.970 . S
O615 C614 1.258 . S
O616 Co613 1.966 . S
O616 C614 1.263 . S
C617 O618 1.232 1_455 S
C617 O644 1.310 . S
O618 C617 1.232 1_655 S
C619 C621 1.400 . S
C619 N622 1.351 . S
C619 C624 1.501 . S
C620 C621 1.387 . S
C620 N623 1.341 . S
C621 C619 1.400 . S
C621 C620 1.387 . S
N622 Co613 2.022 . S
N622 C619 1.351 . S
N622 N623 1.365 . S
N623 C620 1.341 . S
N623 N622 1.365 . S
N623 H643 0.862 . S
C624 C619 1.501 . S
C624 H625 0.961 . S
C624 H626 0.961 . S
C624 H627 0.960 . S
H625 C624 0.961 . S
H626 C624 0.961 . S
H627 C624 0.960 . S
C628 N629 1.342 . S
C628 C632 1.401 . S
C628 C633 1.499 . S
N629 Co612 1.989 . S
N629 C628 1.342 . S
N629 N630 1.388 . S
N630 Co613 1.993 . S
N630 N629 1.388 . S
N630 C631 1.346 . S
C631 N630 1.346 . S
C631 C632 1.396 . S
C631 C641 1.510 . S
C632 C628 1.401 . S
C632 C631 1.396 . S
C633 C628 1.499 . S
C633 H634 0.959 . S
C633 H635 0.960 . S
C633 H636 0.961 . S
H634 C633 0.959 . S
H635 C633 0.960 . S
H636 C633 0.961 . S
O637 Co612 1.967 . S
O637 C645 1.258 . S
O638 Co613 1.941 . S
O638 C645 1.266 . S
H639 C641 0.959 . S
H640 C641 0.961 . S
C641 C631 1.510 . S
C641 H639 0.959 . S
C641 H640 0.961 . S
C641 H642 0.960 . S
H642 C641 0.960 . S
H643 N623 0.862 . S
O644 Co612 1.920 . S
O644 C617 1.310 . S
C645 O637 1.258 . S
C645 O638 1.266 . S
Co646 O649 1.970 . S
Co646 N663 1.989 . S
Co646 O671 1.967 . S
Co646 O678 1.920 . S
Co647 O650 1.966 . S
Co647 N656 2.022 . S
Co647 N664 1.993 . S
Co647 O672 1.941 . S
C648 O649 1.258 . S
C648 O650 1.263 . S
O649 Co646 1.970 . S
O649 C648 1.258 . S
O650 Co647 1.966 . S
O650 C648 1.263 . S
C651 O652 1.235 . S
C651 O678 1.289 . S
O652 C651 1.235 . S
C653 C655 1.400 . S
C653 N656 1.351 . S
C653 C658 1.501 . S
C654 C655 1.387 . S
C654 N657 1.341 . S
C655 C653 1.400 . S
C655 C654 1.387 . S
N656 Co647 2.022 . S
N656 C653 1.351 . S
N656 N657 1.365 . S
N657 C654 1.341 . S
N657 N656 1.365 . S
N657 H677 0.862 . S
C658 C653 1.501 . S
C658 H659 0.961 . S
C658 H660 0.961 . S
C658 H661 0.960 . S
H659 C658 0.961 . S
H660 C658 0.961 . S
H661 C658 0.960 . S
C662 N663 1.342 . S
C662 C666 1.401 . S
C662 C667 1.499 . S
N663 Co646 1.989 . S
N663 C662 1.342 . S
N663 N664 1.388 . S
N664 Co647 1.993 . S
N664 N663 1.388 . S
N664 C665 1.346 . S
C665 N664 1.346 . S
C665 C666 1.396 . S
C665 C675 1.510 . S
C666 C662 1.401 . S
C666 C665 1.396 . S
C667 C662 1.499 . S
C667 H668 0.959 . S
C667 H669 0.960 . S
C667 H670 0.961 . S
H668 C667 0.959 . S
H669 C667 0.960 . S
H670 C667 0.961 . S
O671 Co646 1.967 . S
O671 C679 1.258 . S
O672 Co647 1.941 . S
O672 C679 1.266 . S
H673 C675 0.959 . S
H674 C675 0.961 . S
C675 C665 1.510 . S
C675 H673 0.959 . S
C675 H674 0.961 . S
C675 H676 0.960 . S
H676 C675 0.960 . S
H677 N657 0.862 . S
O678 Co646 1.920 . S
O678 C651 1.289 . S
C679 O671 1.258 . S
C679 O672 1.266 . S
Co680 O683 1.970 . S
Co680 N697 1.989 . S
Co680 O705 1.967 . S
Co680 O712 1.920 . S
Co681 O684 1.966 . S
Co681 N690 2.022 . S
Co681 N698 1.993 . S
Co681 O706 1.941 . S
C682 O683 1.258 . S
C682 O684 1.263 . S
O683 Co680 1.970 . S
O683 C682 1.258 . S
O684 Co681 1.966 . S
O684 C682 1.263 . S
C685 O686 1.235 . S
C685 O712 1.289 . S
O686 C685 1.235 . S
C687 C689 1.400 . S
C687 N690 1.351 . S
C687 C692 1.501 . S
C688 C689 1.387 . S
C688 N691 1.341 . S
C689 C687 1.400 . S
C689 C688 1.387 . S
N690 Co681 2.022 . S
N690 C687 1.351 . S
N690 N691 1.365 . S
N691 C688 1.341 . S
N691 N690 1.365 . S
N691 H711 0.862 . S
C692 C687 1.501 . S
C692 H693 0.961 . S
C692 H694 0.961 . S
C692 H695 0.960 . S
H693 C692 0.961 . S
H694 C692 0.961 . S
H695 C692 0.960 . S
C696 N697 1.342 . S
C696 C700 1.401 . S
C696 C701 1.499 . S
N697 Co680 1.989 . S
N697 C696 1.342 . S
N697 N698 1.388 . S
N698 Co681 1.993 . S
N698 N697 1.388 . S
N698 C699 1.346 . S
C699 N698 1.346 . S
C699 C700 1.396 . S
C699 C709 1.510 . S
C700 C696 1.401 . S
C700 C699 1.396 . S
C701 C696 1.499 . S
C701 H702 0.959 . S
C701 H703 0.960 . S
C701 H704 0.961 . S
H702 C701 0.959 . S
H703 C701 0.960 . S
H704 C701 0.961 . S
O705 Co680 1.967 . S
O705 C713 1.258 . S
O706 Co681 1.941 . S
O706 C713 1.266 . S
H707 C709 0.959 . S
H708 C709 0.961 . S
C709 C699 1.510 . S
C709 H707 0.959 . S
C709 H708 0.961 . S
C709 H710 0.960 . S
H710 C709 0.960 . S
H711 N691 0.862 . S
O712 Co680 1.920 . S
O712 C685 1.289 . S
C713 O705 1.258 . S
C713 O706 1.266 . S
Co714 O717 1.970 . S
Co714 N731 1.989 . S
Co714 O739 1.967 . S
Co714 O746 1.920 . S
Co715 O718 1.966 . S
Co715 N724 2.022 . S
Co715 N732 1.993 . S
Co715 O740 1.941 . S
C716 O717 1.258 . S
C716 O718 1.263 . S
O717 Co714 1.970 . S
O717 C716 1.258 . S
O718 Co715 1.966 . S
O718 C716 1.263 . S
C719 O720 1.235 . S
C719 O746 1.289 . S
O720 C719 1.235 . S
C721 C723 1.400 . S
C721 N724 1.351 . S
C721 C726 1.501 . S
C722 C723 1.387 . S
C722 N725 1.341 . S
C723 C721 1.400 . S
C723 C722 1.387 . S
N724 Co715 2.022 . S
N724 C721 1.351 . S
N724 N725 1.365 . S
N725 C722 1.341 . S
N725 N724 1.365 . S
N725 H745 0.862 . S
C726 C721 1.501 . S
C726 H727 0.961 . S
C726 H728 0.961 . S
C726 H729 0.960 . S
H727 C726 0.961 . S
H728 C726 0.961 . S
H729 C726 0.960 . S
C730 N731 1.342 . S
C730 C734 1.401 . S
C730 C735 1.499 . S
N731 Co714 1.989 . S
N731 C730 1.342 . S
N731 N732 1.388 . S
N732 Co715 1.993 . S
N732 N731 1.388 . S
N732 C733 1.346 . S
C733 N732 1.346 . S
C733 C734 1.396 . S
C733 C743 1.510 . S
C734 C730 1.401 . S
C734 C733 1.396 . S
C735 C730 1.499 . S
C735 H736 0.959 . S
C735 H737 0.960 . S
C735 H738 0.961 . S
H736 C735 0.959 . S
H737 C735 0.960 . S
H738 C735 0.961 . S
O739 Co714 1.967 . S
O739 C747 1.258 . S
O740 Co715 1.941 . S
O740 C747 1.266 . S
H741 C743 0.959 . S
H742 C743 0.961 . S
C743 C733 1.510 . S
C743 H741 0.959 . S
C743 H742 0.961 . S
C743 H744 0.960 . S
H744 C743 0.960 . S
H745 N725 0.862 . S
O746 Co714 1.920 . S
O746 C719 1.289 . S
C747 O739 1.258 . S
C747 O740 1.266 . S
Co748 O751 1.970 . S
Co748 N765 1.989 . S
Co748 O773 1.967 . S
Co748 O780 1.920 . S
Co749 O752 1.966 . S
Co749 N758 2.022 . S
Co749 N766 1.993 . S
Co749 O774 1.941 . S
C750 O751 1.258 . S
C750 O752 1.263 . S
O751 Co748 1.970 . S
O751 C750 1.258 . S
O752 Co749 1.966 . S
O752 C750 1.263 . S
C753 O754 1.232 1_455 S
C753 O780 1.310 . S
O754 C753 1.232 1_655 S
C755 C757 1.400 . S
C755 N758 1.351 . S
C755 C760 1.501 . S
C756 C757 1.387 . S
C756 N759 1.341 . S
C757 C755 1.400 . S
C757 C756 1.387 . S
N758 Co749 2.022 . S
N758 C755 1.351 . S
N758 N759 1.365 . S
N759 C756 1.341 . S
N759 N758 1.365 . S
N759 H779 0.862 . S
C760 C755 1.501 . S
C760 H761 0.961 . S
C760 H762 0.961 . S
C760 H763 0.960 . S
H761 C760 0.961 . S
H762 C760 0.961 . S
H763 C760 0.960 . S
C764 N765 1.342 . S
C764 C768 1.401 . S
C764 C769 1.499 . S
N765 Co748 1.989 . S
N765 C764 1.342 . S
N765 N766 1.388 . S
N766 Co749 1.993 . S
N766 N765 1.388 . S
N766 C767 1.346 . S
C767 N766 1.346 . S
C767 C768 1.396 . S
C767 C777 1.510 . S
C768 C764 1.401 . S
C768 C767 1.396 . S
C769 C764 1.499 . S
C769 H770 0.959 . S
C769 H771 0.960 . S
C769 H772 0.961 . S
H770 C769 0.959 . S
H771 C769 0.960 . S
H772 C769 0.961 . S
O773 Co748 1.967 . S
O773 C781 1.258 . S
O774 Co749 1.941 . S
O774 C781 1.266 . S
H775 C777 0.959 . S
H776 C777 0.961 . S
C777 C767 1.510 . S
C777 H775 0.959 . S
C777 H776 0.961 . S
C777 H778 0.960 . S
H778 C777 0.960 . S
H779 N759 0.862 . S
O780 Co748 1.920 . S
O780 C753 1.310 . S
C781 O773 1.258 . S
C781 O774 1.266 . S
Co782 O785 1.970 . S
Co782 N799 1.989 . S
Co782 O807 1.967 . S
Co782 O814 1.920 . S
Co783 O786 1.966 . S
Co783 N792 2.022 . S
Co783 N800 1.993 . S
Co783 O808 1.941 . S
C784 O785 1.258 . S
C784 O786 1.263 . S
O785 Co782 1.970 . S
O785 C784 1.258 . S
O786 Co783 1.966 . S
O786 C784 1.263 . S
C787 O788 1.232 1_655 S
C787 O814 1.310 . S
O788 C787 1.232 1_455 S
C789 C791 1.400 . S
C789 N792 1.351 . S
C789 C794 1.501 . S
C790 C791 1.387 . S
C790 N793 1.341 . S
C791 C789 1.400 . S
C791 C790 1.387 . S
N792 Co783 2.022 . S
N792 C789 1.351 . S
N792 N793 1.365 . S
N793 C790 1.341 . S
N793 N792 1.365 . S
N793 H813 0.862 . S
C794 C789 1.501 . S
C794 H795 0.961 . S
C794 H796 0.961 . S
C794 H797 0.960 . S
H795 C794 0.961 . S
H796 C794 0.961 . S
H797 C794 0.960 . S
C798 N799 1.342 . S
C798 C802 1.401 . S
C798 C803 1.499 . S
N799 Co782 1.989 . S
N799 C798 1.342 . S
N799 N800 1.388 . S
N800 Co783 1.993 . S
N800 N799 1.388 . S
N800 C801 1.346 . S
C801 N800 1.346 . S
C801 C802 1.396 . S
C801 C811 1.510 . S
C802 C798 1.401 . S
C802 C801 1.396 . S
C803 C798 1.499 . S
C803 H804 0.959 . S
C803 H805 0.960 . S
C803 H806 0.986 . S
H804 C803 0.959 . S
H805 C803 0.960 . S
H806 C803 0.986 . S
O807 Co782 1.967 . S
O807 C815 1.258 . S
O808 Co783 1.941 . S
O808 C815 1.266 . S
H809 C811 0.959 . S
H810 C811 0.961 . S
C811 C801 1.510 . S
C811 H809 0.959 . S
C811 H810 0.961 . S
C811 H812 0.960 . S
H812 C811 0.960 . S
H813 N793 0.862 . S
O814 Co782 1.920 . S
O814 C787 1.310 . S
C815 O807 1.258 . S
C815 O808 1.266 . S
Co816 O819 1.970 . S
Co816 N833 1.989 . S
Co816 O841 1.967 . S
Co816 O848 1.920 . S
Co817 O820 1.966 . S
Co817 N826 2.022 . S
Co817 N834 1.993 . S
Co817 O842 1.941 . S
C818 O819 1.258 . S
C818 O820 1.263 . S
O819 Co816 1.970 . S
O819 C818 1.258 . S
O820 Co817 1.966 . S
O820 C818 1.263 . S
C821 O822 1.235 . S
C821 O848 1.289 . S
O822 C821 1.235 . S
C823 C825 1.400 . S
C823 N826 1.351 . S
C823 C828 1.501 . S
C824 C825 1.387 . S
C824 N827 1.341 . S
C825 C823 1.400 . S
C825 C824 1.387 . S
N826 Co817 2.022 . S
N826 C823 1.351 . S
N826 N827 1.365 . S
N827 C824 1.341 . S
N827 N826 1.365 . S
N827 H847 0.862 . S
C828 C823 1.501 . S
C828 H829 0.961 . S
C828 H830 0.961 . S
C828 H831 0.960 . S
H829 C828 0.961 . S
H830 C828 0.961 . S
H831 C828 0.960 . S
C832 N833 1.342 . S
C832 C836 1.401 . S
C832 C837 1.499 . S
N833 Co816 1.989 . S
N833 C832 1.342 . S
N833 N834 1.388 . S
N834 Co817 1.993 . S
N834 N833 1.388 . S
N834 C835 1.346 . S
C835 N834 1.346 . S
C835 C836 1.396 . S
C835 C845 1.510 . S
C836 C832 1.401 . S
C836 C835 1.396 . S
C837 C832 1.499 . S
C837 H838 0.959 . S
C837 H839 0.960 . S
C837 H840 0.961 . S
H838 C837 0.959 . S
H839 C837 0.960 . S
H840 C837 0.961 . S
O841 Co816 1.967 . S
O841 C849 1.258 . S
O842 Co817 1.941 . S
O842 C849 1.266 . S
H843 C845 0.959 . S
H844 C845 0.961 . S
C845 C835 1.510 . S
C845 H843 0.959 . S
C845 H844 0.961 . S
C845 H846 0.960 . S
H846 C845 0.960 . S
H847 N827 0.862 . S
O848 Co816 1.920 . S
O848 C821 1.289 . S
C849 O841 1.258 . S
C849 O842 1.266 . S
Co850 O853 1.970 . S
Co850 N867 1.989 . S
Co850 O875 1.967 . S
Co850 O882 1.920 . S
Co851 O854 1.966 . S
Co851 N860 2.022 . S
Co851 N868 1.993 . S
Co851 O876 1.941 . S
C852 O853 1.258 . S
C852 O854 1.263 . S
O853 Co850 1.970 . S
O853 C852 1.258 . S
O854 Co851 1.966 . S
O854 C852 1.263 . S
C855 O856 1.235 . S
C855 O882 1.289 . S
O856 C855 1.235 . S
C857 C859 1.400 . S
C857 N860 1.351 . S
C857 C862 1.501 . S
C858 C859 1.387 . S
C858 N861 1.341 . S
C859 C857 1.400 . S
C859 C858 1.387 . S
N860 Co851 2.022 . S
N860 C857 1.351 . S
N860 N861 1.365 . S
N861 C858 1.341 . S
N861 N860 1.365 . S
N861 H881 0.862 . S
C862 C857 1.501 . S
C862 H863 0.961 . S
C862 H864 0.961 . S
C862 H865 0.960 . S
H863 C862 0.961 . S
H864 C862 0.961 . S
H865 C862 0.960 . S
C866 N867 1.342 . S
C866 C870 1.401 . S
C866 C871 1.499 . S
N867 Co850 1.989 . S
N867 C866 1.342 . S
N867 N868 1.388 . S
N868 Co851 1.993 . S
N868 N867 1.388 . S
N868 C869 1.346 . S
C869 N868 1.346 . S
C869 C870 1.396 . S
C869 C879 1.510 . S
C870 C866 1.401 . S
C870 C869 1.396 . S
C871 C866 1.499 . S
C871 H872 0.959 . S
C871 H873 0.960 . S
C871 H874 0.986 . S
H872 C871 0.959 . S
H873 C871 0.960 . S
H874 C871 0.986 . S
O875 Co850 1.967 . S
O875 C883 1.258 . S
O876 Co851 1.941 . S
O876 C883 1.266 . S
H877 C879 0.959 . S
H878 C879 0.961 . S
C879 C869 1.510 . S
C879 H877 0.959 . S
C879 H878 0.961 . S
C879 H880 0.960 . S
H880 C879 0.960 . S
H881 N861 0.862 . S
O882 Co850 1.920 . S
O882 C855 1.289 . S
C883 O875 1.258 . S
C883 O876 1.266 . S
Co884 O887 1.970 . S
Co884 N901 1.989 . S
Co884 O909 1.967 . S
Co884 O916 1.920 . S
Co885 O888 1.966 . S
Co885 N894 2.022 . S
Co885 N902 1.993 . S
Co885 O910 1.941 . S
C886 O887 1.258 . S
C886 O888 1.263 . S
O887 Co884 1.970 . S
O887 C886 1.258 . S
O888 Co885 1.966 . S
O888 C886 1.263 . S
C889 O890 1.235 . S
C889 O916 1.289 . S
O890 C889 1.235 . S
C891 C893 1.400 . S
C891 N894 1.351 . S
C891 C896 1.501 . S
C892 C893 1.387 . S
C892 N895 1.341 . S
C893 C891 1.400 . S
C893 C892 1.387 . S
N894 Co885 2.022 . S
N894 C891 1.351 . S
N894 N895 1.365 . S
N895 C892 1.341 . S
N895 N894 1.365 . S
N895 H915 0.862 . S
C896 C891 1.501 . S
C896 H897 0.961 . S
C896 H898 0.961 . S
C896 H899 0.960 . S
H897 C896 0.961 . S
H898 C896 0.961 . S
H899 C896 0.960 . S
C900 N901 1.342 . S
C900 C904 1.401 . S
C900 C905 1.499 . S
N901 Co884 1.989 . S
N901 C900 1.342 . S
N901 N902 1.388 . S
N902 Co885 1.993 . S
N902 N901 1.388 . S
N902 C903 1.346 . S
C903 N902 1.346 . S
C903 C904 1.396 . S
C903 C913 1.510 . S
C904 C900 1.401 . S
C904 C903 1.396 . S
C905 C900 1.499 . S
C905 H906 0.959 . S
C905 H907 0.960 . S
C905 H908 0.961 . S
H906 C905 0.959 . S
H907 C905 0.960 . S
H908 C905 0.961 . S
O909 Co884 1.967 . S
O909 C917 1.258 . S
O910 Co885 1.941 . S
O910 C917 1.266 . S
H911 C913 0.959 . S
H912 C913 0.961 . S
C913 C903 1.510 . S
C913 H911 0.959 . S
C913 H912 0.961 . S
C913 H914 0.960 . S
H914 C913 0.960 . S
H915 N895 0.862 . S
O916 Co884 1.920 . S
O916 C889 1.289 . S
C917 O909 1.258 . S
C917 O910 1.266 . S
Co918 O921 1.970 . S
Co918 N935 1.989 . S
Co918 O943 1.967 . S
Co918 O950 1.920 . S
Co919 O922 1.966 . S
Co919 N928 2.022 . S
Co919 N936 1.993 . S
Co919 O944 1.941 . S
C920 O921 1.258 . S
C920 O922 1.263 . S
O921 Co918 1.970 . S
O921 C920 1.258 . S
O922 Co919 1.966 . S
O922 C920 1.263 . S
C923 O924 1.235 . S
C923 O950 1.289 . S
O924 C923 1.235 . S
C925 C927 1.400 . S
C925 N928 1.351 . S
C925 C930 1.501 . S
C926 C927 1.387 . S
C926 N929 1.341 . S
C927 C925 1.400 . S
C927 C926 1.387 . S
N928 Co919 2.022 . S
N928 C925 1.351 . S
N928 N929 1.365 . S
N929 C926 1.341 . S
N929 N928 1.365 . S
N929 H949 0.862 . S
C930 C925 1.501 . S
C930 H931 0.961 . S
C930 H932 0.961 . S
C930 H933 0.960 . S
H931 C930 0.961 . S
H932 C930 0.961 . S
H933 C930 0.960 . S
C934 N935 1.342 . S
C934 C938 1.401 . S
C934 C939 1.499 . S
N935 Co918 1.989 . S
N935 C934 1.342 . S
N935 N936 1.388 . S
N936 Co919 1.993 . S
N936 N935 1.388 . S
N936 C937 1.346 . S
C937 N936 1.346 . S
C937 C938 1.396 . S
C937 C947 1.510 . S
C938 C934 1.401 . S
C938 C937 1.396 . S
C939 C934 1.499 . S
C939 H940 0.959 . S
C939 H941 0.960 . S
C939 H942 0.986 . S
H940 C939 0.959 . S
H941 C939 0.960 . S
H942 C939 0.986 . S
O943 Co918 1.967 . S
O943 C951 1.258 . S
O944 Co919 1.941 . S
O944 C951 1.266 . S
H945 C947 0.959 . S
H946 C947 0.961 . S
C947 C937 1.510 . S
C947 H945 0.959 . S
C947 H946 0.961 . S
C947 H948 0.960 . S
H948 C947 0.960 . S
H949 N929 0.862 . S
O950 Co918 1.920 . S
O950 C923 1.289 . S
C951 O943 1.258 . S
C951 O944 1.266 . S
Co952 O955 1.970 . S
Co952 N969 1.989 . S
Co952 O977 1.967 . S
Co952 O984 1.920 . S
Co953 O956 1.966 . S
Co953 N962 2.022 . S
Co953 N970 1.993 . S
Co953 O978 1.941 . S
C954 O955 1.258 . S
C954 O956 1.263 . S
O955 Co952 1.970 . S
O955 C954 1.258 . S
O956 Co953 1.966 . S
O956 C954 1.263 . S
C957 O958 1.235 . S
C957 O984 1.289 . S
O958 C957 1.235 . S
C959 C961 1.400 . S
C959 N962 1.351 . S
C959 C964 1.501 . S
C960 C961 1.387 . S
C960 N963 1.341 . S
C961 C959 1.400 . S
C961 C960 1.387 . S
N962 Co953 2.022 . S
N962 C959 1.351 . S
N962 N963 1.365 . S
N963 C960 1.341 . S
N963 N962 1.365 . S
N963 H983 0.862 . S
C964 C959 1.501 . S
C964 H965 0.961 . S
C964 H966 0.961 . S
C964 H967 0.960 . S
H965 C964 0.961 . S
H966 C964 0.961 . S
H967 C964 0.960 . S
C968 N969 1.342 . S
C968 C972 1.401 . S
C968 C973 1.499 . S
N969 Co952 1.989 . S
N969 C968 1.342 . S
N969 N970 1.388 . S
N970 Co953 1.993 . S
N970 N969 1.388 . S
N970 C971 1.346 . S
C971 N970 1.346 . S
C971 C972 1.396 . S
C971 C981 1.510 . S
C972 C968 1.401 . S
C972 C971 1.396 . S
C973 C968 1.499 . S
C973 H974 0.959 . S
C973 H975 0.960 . S
C973 H976 0.961 . S
H974 C973 0.959 . S
H975 C973 0.960 . S
H976 C973 0.961 . S
O977 Co952 1.967 . S
O977 C985 1.258 . S
O978 Co953 1.941 . S
O978 C985 1.266 . S
H979 C981 0.959 . S
H980 C981 0.961 . S
C981 C971 1.510 . S
C981 H979 0.959 . S
C981 H980 0.961 . S
C981 H982 0.960 . S
H982 C981 0.960 . S
H983 N963 0.862 . S
O984 Co952 1.920 . S
O984 C957 1.289 . S
C985 O977 1.258 . S
C985 O978 1.266 . S
Co986 O989 1.970 . S
Co986 N1003 1.989 . S
Co986 O1011 1.967 . S
Co986 O1018 1.920 . S
Co987 O990 1.966 . S
Co987 N996 2.022 . S
Co987 N1004 1.993 . S
Co987 O1012 1.941 . S
C988 O989 1.258 . S
C988 O990 1.263 . S
O989 Co986 1.970 . S
O989 C988 1.258 . S
O990 Co987 1.966 . S
O990 C988 1.263 . S
C991 O992 1.235 . S
C991 O1018 1.289 . S
O992 C991 1.235 . S
C993 C995 1.400 . S
C993 N996 1.351 . S
C993 C998 1.501 . S
C994 C995 1.387 . S
C994 N997 1.341 . S
C995 C993 1.400 . S
C995 C994 1.387 . S
N996 Co987 2.022 . S
N996 C993 1.351 . S
N996 N997 1.365 . S
N997 C994 1.341 . S
N997 N996 1.365 . S
N997 H1017 0.862 . S
C998 C993 1.501 . S
C998 H999 0.961 . S
C998 H1000 0.961 . S
C998 H1001 0.960 . S
H999 C998 0.961 . S
H1000 C998 0.961 . S
H1001 C998 0.960 . S
C1002 N1003 1.342 . S
C1002 C1006 1.401 . S
C1002 C1007 1.499 . S
N1003 Co986 1.989 . S
N1003 C1002 1.342 . S
N1003 N1004 1.388 . S
N1004 Co987 1.993 . S
N1004 N1003 1.388 . S
N1004 C1005 1.346 . S
C1005 N1004 1.346 . S
C1005 C1006 1.396 . S
C1005 C1015 1.510 . S
C1006 C1002 1.401 . S
C1006 C1005 1.396 . S
C1007 C1002 1.499 . S
C1007 H1008 0.959 . S
C1007 H1009 0.960 . S
C1007 H1010 0.961 . S
H1008 C1007 0.959 . S
H1009 C1007 0.960 . S
H1010 C1007 0.961 . S
O1011 Co986 1.967 . S
O1011 C1019 1.258 . S
O1012 Co987 1.941 . S
O1012 C1019 1.266 . S
H1013 C1015 0.959 . S
H1014 C1015 0.961 . S
C1015 C1005 1.510 . S
C1015 H1013 0.959 . S
C1015 H1014 0.961 . S
C1015 H1016 0.960 . S
H1016 C1015 0.960 . S
H1017 N997 0.862 . S
O1018 Co986 1.920 . S
O1018 C991 1.289 . S
C1019 O1011 1.258 . S
C1019 O1012 1.266 . S
Co1020 O1023 1.970 . S
Co1020 N1037 1.989 . S
Co1020 O1045 1.967 . S
Co1020 O1052 1.920 . S
Co1021 O1024 1.966 . S
Co1021 N1030 2.022 . S
Co1021 N1038 1.993 . S
Co1021 O1046 1.941 . S
C1022 O1023 1.258 . S
C1022 O1024 1.263 . S
O1023 Co1020 1.970 . S
O1023 C1022 1.258 . S
O1024 Co1021 1.966 . S
O1024 C1022 1.263 . S
C1025 O1026 1.235 . S
C1025 O1052 1.289 . S
O1026 C1025 1.235 . S
C1027 C1029 1.400 . S
C1027 N1030 1.351 . S
C1027 C1032 1.501 . S
C1028 C1029 1.387 . S
C1028 N1031 1.341 . S
C1029 C1027 1.400 . S
C1029 C1028 1.387 . S
N1030 Co1021 2.022 . S
N1030 C1027 1.351 . S
N1030 N1031 1.365 . S
N1031 C1028 1.341 . S
N1031 N1030 1.365 . S
N1031 H1051 0.862 . S
C1032 C1027 1.501 . S
C1032 H1033 0.961 . S
C1032 H1034 0.961 . S
C1032 H1035 0.960 . S
H1033 C1032 0.961 . S
H1034 C1032 0.961 . S
H1035 C1032 0.960 . S
C1036 N1037 1.342 . S
C1036 C1040 1.401 . S
C1036 C1041 1.499 . S
N1037 Co1020 1.989 . S
N1037 C1036 1.342 . S
N1037 N1038 1.388 . S
N1038 Co1021 1.993 . S
N1038 N1037 1.388 . S
N1038 C1039 1.346 . S
C1039 N1038 1.346 . S
C1039 C1040 1.396 . S
C1039 C1049 1.510 . S
C1040 C1036 1.401 . S
C1040 C1039 1.396 . S
C1041 C1036 1.499 . S
C1041 H1042 0.959 . S
C1041 H1043 0.960 . S
C1041 H1044 0.961 . S
H1042 C1041 0.959 . S
H1043 C1041 0.960 . S
H1044 C1041 0.961 . S
O1045 Co1020 1.967 . S
O1045 C1053 1.258 . S
O1046 Co1021 1.941 . S
O1046 C1053 1.266 . S
H1047 C1049 0.959 . S
H1048 C1049 0.961 . S
C1049 C1039 1.510 . S
C1049 H1047 0.959 . S
C1049 H1048 0.961 . S
C1049 H1050 0.960 . S
H1050 C1049 0.960 . S
H1051 N1031 0.862 . S
O1052 Co1020 1.920 . S
O1052 C1025 1.289 . S
C1053 O1045 1.258 . S
C1053 O1046 1.266 . S
Co1054 O1057 1.970 . S
Co1054 N1071 1.989 . S
Co1054 O1079 1.967 . S
Co1054 O1086 1.920 . S
Co1055 O1058 1.966 . S
Co1055 N1064 2.022 . S
Co1055 N1072 1.993 . S
Co1055 O1080 1.941 . S
C1056 O1057 1.258 . S
C1056 O1058 1.263 . S
O1057 Co1054 1.970 . S
O1057 C1056 1.258 . S
O1058 Co1055 1.966 . S
O1058 C1056 1.263 . S
C1059 O1060 1.235 . S
C1059 O1086 1.289 . S
O1060 C1059 1.235 . S
C1061 C1063 1.400 . S
C1061 N1064 1.351 . S
C1061 C1066 1.501 . S
C1062 C1063 1.387 . S
C1062 N1065 1.341 . S
C1063 C1061 1.400 . S
C1063 C1062 1.387 . S
N1064 Co1055 2.022 . S
N1064 C1061 1.351 . S
N1064 N1065 1.365 . S
N1065 C1062 1.341 . S
N1065 N1064 1.365 . S
N1065 H1085 0.862 . S
C1066 C1061 1.501 . S
C1066 H1067 0.961 . S
C1066 H1068 0.961 . S
C1066 H1069 0.960 . S
H1067 C1066 0.961 . S
H1068 C1066 0.961 . S
H1069 C1066 0.960 . S
C1070 N1071 1.342 . S
C1070 C1074 1.401 . S
C1070 C1075 1.499 . S
N1071 Co1054 1.989 . S
N1071 C1070 1.342 . S
N1071 N1072 1.388 . S
N1072 Co1055 1.993 . S
N1072 N1071 1.388 . S
N1072 C1073 1.346 . S
C1073 N1072 1.346 . S
C1073 C1074 1.396 . S
C1073 C1083 1.510 . S
C1074 C1070 1.401 . S
C1074 C1073 1.396 . S
C1075 C1070 1.499 . S
C1075 H1076 0.959 . S
C1075 H1077 0.960 . S
C1075 H1078 0.961 . S
H1076 C1075 0.959 . S
H1077 C1075 0.960 . S
H1078 C1075 0.961 . S
O1079 Co1054 1.967 . S
O1079 C1087 1.258 . S
O1080 Co1055 1.941 . S
O1080 C1087 1.266 . S
H1081 C1083 0.959 . S
H1082 C1083 0.961 . S
C1083 C1073 1.510 . S
C1083 H1081 0.959 . S
C1083 H1082 0.961 . S
C1083 H1084 0.960 . S
H1084 C1083 0.960 . S
H1085 N1065 0.862 . S
O1086 Co1054 1.920 . S
O1086 C1059 1.289 . S
C1087 O1079 1.258 . S
C1087 O1080 1.266 . S
Co1088 O1091 1.970 . S
Co1088 N1105 1.989 . S
Co1088 O1113 1.967 . S
Co1088 O1120 1.920 . S
Co1089 O1092 1.966 . S
Co1089 N1098 2.022 . S
Co1089 N1106 1.993 . S
Co1089 O1114 1.941 . S
C1090 O1091 1.258 . S
C1090 O1092 1.263 . S
O1091 Co1088 1.970 . S
O1091 C1090 1.258 . S
O1092 Co1089 1.966 . S
O1092 C1090 1.263 . S
C1093 O1094 1.235 . S
C1093 O1120 1.289 . S
O1094 C1093 1.235 . S
C1095 C1097 1.400 . S
C1095 N1098 1.351 . S
C1095 C1100 1.501 . S
C1096 C1097 1.387 . S
C1096 N1099 1.341 . S
C1097 C1095 1.400 . S
C1097 C1096 1.387 . S
N1098 Co1089 2.022 . S
N1098 C1095 1.351 . S
N1098 N1099 1.365 . S
N1099 C1096 1.341 . S
N1099 N1098 1.365 . S
N1099 H1119 0.862 . S
C1100 C1095 1.501 . S
C1100 H1101 0.961 . S
C1100 H1102 0.961 . S
C1100 H1103 0.960 . S
H1101 C1100 0.961 . S
H1102 C1100 0.961 . S
H1103 C1100 0.960 . S
C1104 N1105 1.342 . S
C1104 C1108 1.401 . S
C1104 C1109 1.499 . S
N1105 Co1088 1.989 . S
N1105 C1104 1.342 . S
N1105 N1106 1.388 . S
N1106 Co1089 1.993 . S
N1106 N1105 1.388 . S
N1106 C1107 1.346 . S
C1107 N1106 1.346 . S
C1107 C1108 1.396 . S
C1107 C1117 1.510 . S
C1108 C1104 1.401 . S
C1108 C1107 1.396 . S
C1109 C1104 1.499 . S
C1109 H1110 0.959 . S
C1109 H1111 0.960 . S
C1109 H1112 0.961 . S
H1110 C1109 0.959 . S
H1111 C1109 0.960 . S
H1112 C1109 0.961 . S
O1113 Co1088 1.967 . S
O1113 C1121 1.258 . S
O1114 Co1089 1.941 . S
O1114 C1121 1.266 . S
H1115 C1117 0.959 . S
H1116 C1117 0.961 . S
C1117 C1107 1.510 . S
C1117 H1115 0.959 . S
C1117 H1116 0.961 . S
C1117 H1118 0.960 . S
H1118 C1117 0.960 . S
H1119 N1099 0.862 . S
O1120 Co1088 1.920 . S
O1120 C1093 1.289 . S
C1121 O1113 1.258 . S
C1121 O1114 1.266 . S
Co1122 O1125 1.970 . S
Co1122 N1139 1.989 . S
Co1122 O1147 1.967 . S
Co1122 O1154 1.920 . S
Co1123 O1126 1.966 . S
Co1123 N1132 2.022 . S
Co1123 N1140 1.993 . S
Co1123 O1148 1.941 . S
C1124 O1125 1.258 . S
C1124 O1126 1.263 . S
O1125 Co1122 1.970 . S
O1125 C1124 1.258 . S
O1126 Co1123 1.966 . S
O1126 C1124 1.263 . S
C1127 O1128 1.232 1_545 S
C1127 O1154 1.310 . S
O1128 C1127 1.232 1_565 S
C1129 C1131 1.400 . S
C1129 N1132 1.351 . S
C1129 C1134 1.501 . S
C1130 C1131 1.387 . S
C1130 N1133 1.341 . S
C1131 C1129 1.400 . S
C1131 C1130 1.387 . S
N1132 Co1123 2.022 . S
N1132 C1129 1.351 . S
N1132 N1133 1.365 . S
N1133 C1130 1.341 . S
N1133 N1132 1.365 . S
N1133 H1153 0.862 . S
C1134 C1129 1.501 . S
C1134 H1135 0.961 . S
C1134 H1136 0.961 . S
C1134 H1137 0.960 . S
H1135 C1134 0.961 . S
H1136 C1134 0.961 . S
H1137 C1134 0.960 . S
C1138 N1139 1.342 . S
C1138 C1142 1.401 . S
C1138 C1143 1.499 . S
N1139 Co1122 1.989 . S
N1139 C1138 1.342 . S
N1139 N1140 1.388 . S
N1140 Co1123 1.993 . S
N1140 N1139 1.388 . S
N1140 C1141 1.346 . S
C1141 N1140 1.346 . S
C1141 C1142 1.396 . S
C1141 C1151 1.510 . S
C1142 C1138 1.401 . S
C1142 C1141 1.396 . S
C1143 C1138 1.499 . S
C1143 H1144 0.959 . S
C1143 H1145 0.960 . S
C1143 H1146 0.961 . S
H1144 C1143 0.959 . S
H1145 C1143 0.960 . S
H1146 C1143 0.961 . S
O1147 Co1122 1.967 . S
O1147 C1155 1.258 . S
O1148 Co1123 1.941 . S
O1148 C1155 1.266 . S
H1149 C1151 0.959 . S
H1150 C1151 0.961 . S
C1151 C1141 1.510 . S
C1151 H1149 0.959 . S
C1151 H1150 0.961 . S
C1151 H1152 0.960 . S
H1152 C1151 0.960 . S
H1153 N1133 0.862 . S
O1154 Co1122 1.920 . S
O1154 C1127 1.310 . S
C1155 O1147 1.258 . S
C1155 O1148 1.266 . S
Co1156 O1159 1.970 . S
Co1156 N1173 1.989 . S
Co1156 O1181 1.967 . S
Co1156 O1188 1.920 . S
Co1157 O1160 1.966 . S
Co1157 N1166 2.022 . S
Co1157 N1174 1.993 . S
Co1157 O1182 1.941 . S
C1158 O1159 1.258 . S
C1158 O1160 1.263 . S
O1159 Co1156 1.970 . S
O1159 C1158 1.258 . S
O1160 Co1157 1.966 . S
O1160 C1158 1.263 . S
C1161 O1162 1.235 . S
C1161 O1188 1.289 . S
O1162 C1161 1.235 . S
C1163 C1165 1.400 . S
C1163 N1166 1.351 . S
C1163 C1168 1.501 . S
C1164 C1165 1.387 . S
C1164 N1167 1.341 . S
C1165 C1163 1.400 . S
C1165 C1164 1.387 . S
N1166 Co1157 2.022 . S
N1166 C1163 1.351 . S
N1166 N1167 1.365 . S
N1167 C1164 1.341 . S
N1167 N1166 1.365 . S
N1167 H1187 0.862 . S
C1168 C1163 1.501 . S
C1168 H1169 0.961 . S
C1168 H1170 0.961 . S
C1168 H1171 0.960 . S
H1169 C1168 0.961 . S
H1170 C1168 0.961 . S
H1171 C1168 0.960 . S
C1172 N1173 1.342 . S
C1172 C1176 1.401 . S
C1172 C1177 1.499 . S
N1173 Co1156 1.989 . S
N1173 C1172 1.342 . S
N1173 N1174 1.388 . S
N1174 Co1157 1.993 . S
N1174 N1173 1.388 . S
N1174 C1175 1.346 . S
C1175 N1174 1.346 . S
C1175 C1176 1.396 . S
C1175 C1185 1.510 . S
C1176 C1172 1.401 . S
C1176 C1175 1.396 . S
C1177 C1172 1.499 . S
C1177 H1178 0.959 . S
C1177 H1179 0.960 . S
C1177 H1180 0.961 . S
H1178 C1177 0.959 . S
H1179 C1177 0.960 . S
H1180 C1177 0.961 . S
O1181 Co1156 1.967 . S
O1181 C1189 1.258 . S
O1182 Co1157 1.941 . S
O1182 C1189 1.266 . S
H1183 C1185 0.959 . S
H1184 C1185 0.961 . S
C1185 C1175 1.510 . S
C1185 H1183 0.959 . S
C1185 H1184 0.961 . S
C1185 H1186 0.960 . S
H1186 C1185 0.960 . S
H1187 N1167 0.862 . S
O1188 Co1156 1.920 . S
O1188 C1161 1.289 . S
C1189 O1181 1.258 . S
C1189 O1182 1.266 . S
Co1190 O1193 1.970 . S
Co1190 N1207 1.989 . S
Co1190 O1215 1.967 . S
Co1190 O1222 1.920 . S
Co1191 O1194 1.966 . S
Co1191 N1200 2.022 . S
Co1191 N1208 1.993 . S
Co1191 O1216 1.941 . S
C1192 O1193 1.258 . S
C1192 O1194 1.263 . S
O1193 Co1190 1.970 . S
O1193 C1192 1.258 . S
O1194 Co1191 1.966 . S
O1194 C1192 1.263 . S
C1195 O1196 1.235 . S
C1195 O1222 1.289 . S
O1196 C1195 1.235 . S
C1197 C1199 1.400 . S
C1197 N1200 1.351 . S
C1197 C1202 1.501 . S
C1198 C1199 1.387 . S
C1198 N1201 1.341 . S
C1199 C1197 1.400 . S
C1199 C1198 1.387 . S
N1200 Co1191 2.022 . S
N1200 C1197 1.351 . S
N1200 N1201 1.365 . S
N1201 C1198 1.341 . S
N1201 N1200 1.365 . S
N1201 H1221 0.862 . S
C1202 C1197 1.501 . S
C1202 H1203 0.961 . S
C1202 H1204 0.961 . S
C1202 H1205 0.960 . S
H1203 C1202 0.961 . S
H1204 C1202 0.961 . S
H1205 C1202 0.960 . S
C1206 N1207 1.342 . S
C1206 C1210 1.401 . S
C1206 C1211 1.499 . S
N1207 Co1190 1.989 . S
N1207 C1206 1.342 . S
N1207 N1208 1.388 . S
N1208 Co1191 1.993 . S
N1208 N1207 1.388 . S
N1208 C1209 1.346 . S
C1209 N1208 1.346 . S
C1209 C1210 1.396 . S
C1209 C1219 1.510 . S
C1210 C1206 1.401 . S
C1210 C1209 1.396 . S
C1211 C1206 1.499 . S
C1211 H1212 0.959 . S
C1211 H1213 0.960 . S
C1211 H1214 0.961 . S
H1212 C1211 0.959 . S
H1213 C1211 0.960 . S
H1214 C1211 0.961 . S
O1215 Co1190 1.967 . S
O1215 C1223 1.258 . S
O1216 Co1191 1.941 . S
O1216 C1223 1.266 . S
H1217 C1219 0.959 . S
H1218 C1219 0.961 . S
C1219 C1209 1.510 . S
C1219 H1217 0.959 . S
C1219 H1218 0.961 . S
C1219 H1220 0.960 . S
H1220 C1219 0.960 . S
H1221 N1201 0.862 . S
O1222 Co1190 1.920 . S
O1222 C1195 1.289 . S
C1223 O1215 1.258 . S
C1223 O1216 1.266 . S
Co1224 O1227 1.970 . S
Co1224 N1241 1.989 . S
Co1224 O1249 1.967 . S
Co1224 O1256 1.920 . S
Co1225 O1228 1.966 . S
Co1225 N1234 2.022 . S
Co1225 N1242 1.993 . S
Co1225 O1250 1.941 . S
C1226 O1227 1.258 . S
C1226 O1228 1.263 . S
O1227 Co1224 1.970 . S
O1227 C1226 1.258 . S
O1228 Co1225 1.966 . S
O1228 C1226 1.263 . S
C1229 O1230 1.235 . S
C1229 O1256 1.289 . S
O1230 C1229 1.235 . S
C1231 C1233 1.400 . S
C1231 N1234 1.351 . S
C1231 C1236 1.501 . S
C1232 C1233 1.387 . S
C1232 N1235 1.341 . S
C1233 C1231 1.400 . S
C1233 C1232 1.387 . S
N1234 Co1225 2.022 . S
N1234 C1231 1.351 . S
N1234 N1235 1.365 . S
N1235 C1232 1.341 . S
N1235 N1234 1.365 . S
N1235 H1255 0.862 . S
C1236 C1231 1.501 . S
C1236 H1237 0.961 . S
C1236 H1238 0.961 . S
C1236 H1239 0.960 . S
H1237 C1236 0.961 . S
H1238 C1236 0.961 . S
H1239 C1236 0.960 . S
C1240 N1241 1.342 . S
C1240 C1244 1.401 . S
C1240 C1245 1.499 . S
N1241 Co1224 1.989 . S
N1241 C1240 1.342 . S
N1241 N1242 1.388 . S
N1242 Co1225 1.993 . S
N1242 N1241 1.388 . S
N1242 C1243 1.346 . S
C1243 N1242 1.346 . S
C1243 C1244 1.396 . S
C1243 C1253 1.510 . S
C1244 C1240 1.401 . S
C1244 C1243 1.396 . S
C1245 C1240 1.499 . S
C1245 H1246 0.959 . S
C1245 H1247 0.960 . S
C1245 H1248 0.961 . S
H1246 C1245 0.959 . S
H1247 C1245 0.960 . S
H1248 C1245 0.961 . S
O1249 Co1224 1.967 . S
O1249 C1257 1.258 . S
O1250 Co1225 1.941 . S
O1250 C1257 1.266 . S
H1251 C1253 0.959 . S
H1252 C1253 0.961 . S
C1253 C1243 1.510 . S
C1253 H1251 0.959 . S
C1253 H1252 0.961 . S
C1253 H1254 0.960 . S
H1254 C1253 0.960 . S
H1255 N1235 0.862 . S
O1256 Co1224 1.920 . S
O1256 C1229 1.289 . S
C1257 O1249 1.258 . S
C1257 O1250 1.266 . S
Co1258 O1261 1.970 . S
Co1258 N1275 1.989 . S
Co1258 O1283 1.967 . S
Co1258 O1290 1.920 . S
Co1259 O1262 1.966 . S
Co1259 N1268 2.022 . S
Co1259 N1276 1.993 . S
Co1259 O1284 1.941 . S
C1260 O1261 1.258 . S
C1260 O1262 1.263 . S
O1261 Co1258 1.970 . S
O1261 C1260 1.258 . S
O1262 Co1259 1.966 . S
O1262 C1260 1.263 . S
C1263 O1264 1.232 1_545 S
C1263 O1290 1.310 . S
O1264 C1263 1.232 1_565 S
C1265 C1267 1.400 . S
C1265 N1268 1.351 . S
C1265 C1270 1.501 . S
C1266 C1267 1.387 . S
C1266 N1269 1.341 . S
C1267 C1265 1.400 . S
C1267 C1266 1.387 . S
N1268 Co1259 2.022 . S
N1268 C1265 1.351 . S
N1268 N1269 1.365 . S
N1269 C1266 1.341 . S
N1269 N1268 1.365 . S
N1269 H1289 0.862 . S
C1270 C1265 1.501 . S
C1270 H1271 0.961 . S
C1270 H1272 0.961 . S
C1270 H1273 0.960 . S
H1271 C1270 0.961 . S
H1272 C1270 0.961 . S
H1273 C1270 0.960 . S
C1274 N1275 1.342 . S
C1274 C1278 1.401 . S
C1274 C1279 1.499 . S
N1275 Co1258 1.989 . S
N1275 C1274 1.342 . S
N1275 N1276 1.388 . S
N1276 Co1259 1.993 . S
N1276 N1275 1.388 . S
N1276 C1277 1.346 . S
C1277 N1276 1.346 . S
C1277 C1278 1.396 . S
C1277 C1287 1.510 . S
C1278 C1274 1.401 . S
C1278 C1277 1.396 . S
C1279 C1274 1.499 . S
C1279 H1280 0.959 . S
C1279 H1281 0.960 . S
C1279 H1282 0.961 . S
H1280 C1279 0.959 . S
H1281 C1279 0.960 . S
H1282 C1279 0.961 . S
O1283 Co1258 1.967 . S
O1283 C1291 1.258 . S
O1284 Co1259 1.941 . S
O1284 C1291 1.266 . S
H1285 C1287 0.959 . S
H1286 C1287 0.961 . S
C1287 C1277 1.510 . S
C1287 H1285 0.959 . S
C1287 H1286 0.961 . S
C1287 H1288 0.960 . S
H1288 C1287 0.960 . S
H1289 N1269 0.862 . S
O1290 Co1258 1.920 . S
O1290 C1263 1.310 . S
C1291 O1283 1.258 . S
C1291 O1284 1.266 . S
Co1292 O1295 1.970 . S
Co1292 N1309 1.989 . S
Co1292 O1317 1.967 . S
Co1292 O1324 1.920 . S
Co1293 O1296 1.966 . S
Co1293 N1302 2.022 . S
Co1293 N1310 1.993 . S
Co1293 O1318 1.941 . S
C1294 O1295 1.258 . S
C1294 O1296 1.263 . S
O1295 Co1292 1.970 . S
O1295 C1294 1.258 . S
O1296 Co1293 1.966 . S
O1296 C1294 1.263 . S
C1297 O1298 1.235 . S
C1297 O1324 1.289 . S
O1298 C1297 1.235 . S
C1299 C1301 1.400 . S
C1299 N1302 1.351 . S
C1299 C1304 1.501 . S
C1300 C1301 1.387 . S
C1300 N1303 1.341 . S
C1301 C1299 1.400 . S
C1301 C1300 1.387 . S
N1302 Co1293 2.022 . S
N1302 C1299 1.351 . S
N1302 N1303 1.365 . S
N1303 C1300 1.341 . S
N1303 N1302 1.365 . S
N1303 H1323 0.862 . S
C1304 C1299 1.501 . S
C1304 H1305 0.961 . S
C1304 H1306 0.961 . S
C1304 H1307 0.960 . S
H1305 C1304 0.961 . S
H1306 C1304 0.961 . S
H1307 C1304 0.960 . S
C1308 N1309 1.342 . S
C1308 C1312 1.401 . S
C1308 C1313 1.499 . S
N1309 Co1292 1.989 . S
N1309 C1308 1.342 . S
N1309 N1310 1.388 . S
N1310 Co1293 1.993 . S
N1310 N1309 1.388 . S
N1310 C1311 1.346 . S
C1311 N1310 1.346 . S
C1311 C1312 1.396 . S
C1311 C1321 1.510 . S
C1312 C1308 1.401 . S
C1312 C1311 1.396 . S
C1313 C1308 1.499 . S
C1313 H1314 0.959 . S
C1313 H1315 0.960 . S
C1313 H1316 0.961 . S
H1314 C1313 0.959 . S
H1315 C1313 0.960 . S
H1316 C1313 0.961 . S
O1317 Co1292 1.967 . S
O1317 C1325 1.258 . S
O1318 Co1293 1.941 . S
O1318 C1325 1.266 . S
H1319 C1321 0.959 . S
H1320 C1321 0.961 . S
C1321 C1311 1.510 . S
C1321 H1319 0.959 . S
C1321 H1320 0.961 . S
C1321 H1322 0.960 . S
H1322 C1321 0.960 . S
H1323 N1303 0.862 . S
O1324 Co1292 1.920 . S
O1324 C1297 1.289 . S
C1325 O1317 1.258 . S
C1325 O1318 1.266 . S
Co1326 O1329 1.970 . S
Co1326 N1343 1.989 . S
Co1326 O1351 1.967 . S
Co1326 O1358 1.920 . S
Co1327 O1330 1.966 . S
Co1327 N1336 2.022 . S
Co1327 N1344 1.993 . S
Co1327 O1352 1.941 . S
C1328 O1329 1.258 . S
C1328 O1330 1.263 . S
O1329 Co1326 1.970 . S
O1329 C1328 1.258 . S
O1330 Co1327 1.966 . S
O1330 C1328 1.263 . S
C1331 O1332 1.235 . S
C1331 O1358 1.289 . S
O1332 C1331 1.235 . S
C1333 C1335 1.400 . S
C1333 N1336 1.351 . S
C1333 C1338 1.501 . S
C1334 C1335 1.387 . S
C1334 N1337 1.341 . S
C1335 C1333 1.400 . S
C1335 C1334 1.387 . S
N1336 Co1327 2.022 . S
N1336 C1333 1.351 . S
N1336 N1337 1.365 . S
N1337 C1334 1.341 . S
N1337 N1336 1.365 . S
N1337 H1357 0.862 . S
C1338 C1333 1.501 . S
C1338 H1339 0.961 . S
C1338 H1340 0.961 . S
C1338 H1341 0.960 . S
H1339 C1338 0.961 . S
H1340 C1338 0.961 . S
H1341 C1338 0.960 . S
C1342 N1343 1.342 . S
C1342 C1346 1.401 . S
C1342 C1347 1.499 . S
N1343 Co1326 1.989 . S
N1343 C1342 1.342 . S
N1343 N1344 1.388 . S
N1344 Co1327 1.993 . S
N1344 N1343 1.388 . S
N1344 C1345 1.346 . S
C1345 N1344 1.346 . S
C1345 C1346 1.396 . S
C1345 C1355 1.510 . S
C1346 C1342 1.401 . S
C1346 C1345 1.396 . S
C1347 C1342 1.499 . S
C1347 H1348 0.959 . S
C1347 H1349 0.960 . S
C1347 H1350 0.961 . S
H1348 C1347 0.959 . S
H1349 C1347 0.960 . S
H1350 C1347 0.961 . S
O1351 Co1326 1.967 . S
O1351 C1359 1.258 . S
O1352 Co1327 1.941 . S
O1352 C1359 1.266 . S
H1353 C1355 0.959 . S
H1354 C1355 0.961 . S
C1355 C1345 1.510 . S
C1355 H1353 0.959 . S
C1355 H1354 0.961 . S
C1355 H1356 0.960 . S
H1356 C1355 0.960 . S
H1357 N1337 0.862 . S
O1358 Co1326 1.920 . S
O1358 C1331 1.289 . S
C1359 O1351 1.258 . S
C1359 O1352 1.266 . S
Co1360 O1363 1.970 . S
Co1360 N1377 1.989 . S
Co1360 O1385 1.967 . S
Co1360 O1392 1.920 . S
Co1361 O1364 1.966 . S
Co1361 N1370 2.022 . S
Co1361 N1378 1.993 . S
Co1361 O1386 1.941 . S
C1362 O1363 1.258 . S
C1362 O1364 1.263 . S
O1363 Co1360 1.970 . S
O1363 C1362 1.258 . S
O1364 Co1361 1.966 . S
O1364 C1362 1.263 . S
C1365 O1366 1.235 . S
C1365 O1392 1.289 . S
O1366 C1365 1.235 . S
C1367 C1369 1.400 . S
C1367 N1370 1.351 . S
C1367 C1372 1.501 . S
C1368 C1369 1.387 . S
C1368 N1371 1.341 . S
C1369 C1367 1.400 . S
C1369 C1368 1.387 . S
N1370 Co1361 2.022 . S
N1370 C1367 1.351 . S
N1370 N1371 1.365 . S
N1371 C1368 1.341 . S
N1371 N1370 1.365 . S
N1371 H1391 0.862 . S
C1372 C1367 1.501 . S
C1372 H1373 0.961 . S
C1372 H1374 0.961 . S
C1372 H1375 0.960 . S
H1373 C1372 0.961 . S
H1374 C1372 0.961 . S
H1375 C1372 0.960 . S
C1376 N1377 1.342 . S
C1376 C1380 1.401 . S
C1376 C1381 1.499 . S
N1377 Co1360 1.989 . S
N1377 C1376 1.342 . S
N1377 N1378 1.388 . S
N1378 Co1361 1.993 . S
N1378 N1377 1.388 . S
N1378 C1379 1.346 . S
C1379 N1378 1.346 . S
C1379 C1380 1.396 . S
C1379 C1389 1.510 . S
C1380 C1376 1.401 . S
C1380 C1379 1.396 . S
C1381 C1376 1.499 . S
C1381 H1382 0.959 . S
C1381 H1383 0.960 . S
C1381 H1384 0.961 . S
H1382 C1381 0.959 . S
H1383 C1381 0.960 . S
H1384 C1381 0.961 . S
O1385 Co1360 1.967 . S
O1385 C1393 1.258 . S
O1386 Co1361 1.941 . S
O1386 C1393 1.266 . S
H1387 C1389 0.959 . S
H1388 C1389 0.961 . S
C1389 C1379 1.510 . S
C1389 H1387 0.959 . S
C1389 H1388 0.961 . S
C1389 H1390 0.960 . S
H1390 C1389 0.960 . S
H1391 N1371 0.862 . S
O1392 Co1360 1.920 . S
O1392 C1365 1.289 . S
C1393 O1385 1.258 . S
C1393 O1386 1.266 . S
Co1394 O1397 1.970 . S
Co1394 N1411 1.989 . S
Co1394 O1419 1.967 . S
Co1394 O1426 1.920 . S
Co1395 O1398 1.966 . S
Co1395 N1404 2.022 . S
Co1395 N1412 1.993 . S
Co1395 O1420 1.941 . S
C1396 O1397 1.258 . S
C1396 O1398 1.263 . S
O1397 Co1394 1.970 . S
O1397 C1396 1.258 . S
O1398 Co1395 1.966 . S
O1398 C1396 1.263 . S
C1399 O1400 1.235 . S
C1399 O1426 1.289 . S
O1400 C1399 1.235 . S
C1401 C1403 1.400 . S
C1401 N1404 1.351 . S
C1401 C1406 1.501 . S
C1402 C1403 1.387 . S
C1402 N1405 1.341 . S
C1403 C1401 1.400 . S
C1403 C1402 1.387 . S
N1404 Co1395 2.022 . S
N1404 C1401 1.351 . S
N1404 N1405 1.365 . S
N1405 C1402 1.341 . S
N1405 N1404 1.365 . S
N1405 H1425 0.862 . S
C1406 C1401 1.501 . S
C1406 H1407 0.961 . S
C1406 H1408 0.961 . S
C1406 H1409 0.960 . S
H1407 C1406 0.961 . S
H1408 C1406 0.961 . S
H1409 C1406 0.960 . S
C1410 N1411 1.342 . S
C1410 C1414 1.401 . S
C1410 C1415 1.499 . S
N1411 Co1394 1.989 . S
N1411 C1410 1.342 . S
N1411 N1412 1.388 . S
N1412 Co1395 1.993 . S
N1412 N1411 1.388 . S
N1412 C1413 1.346 . S
C1413 N1412 1.346 . S
C1413 C1414 1.396 . S
C1413 C1423 1.510 . S
C1414 C1410 1.401 . S
C1414 C1413 1.396 . S
C1415 C1410 1.499 . S
C1415 H1416 0.959 . S
C1415 H1417 0.960 . S
C1415 H1418 0.961 . S
H1416 C1415 0.959 . S
H1417 C1415 0.960 . S
H1418 C1415 0.961 . S
O1419 Co1394 1.967 . S
O1419 C1427 1.258 . S
O1420 Co1395 1.941 . S
O1420 C1427 1.266 . S
H1421 C1423 0.959 . S
H1422 C1423 0.961 . S
C1423 C1413 1.510 . S
C1423 H1421 0.959 . S
C1423 H1422 0.961 . S
C1423 H1424 0.960 . S
H1424 C1423 0.960 . S
H1425 N1405 0.862 . S
O1426 Co1394 1.920 . S
O1426 C1399 1.289 . S
C1427 O1419 1.258 . S
C1427 O1420 1.266 . S
Co1428 O1431 1.970 . S
Co1428 N1445 1.989 . S
Co1428 O1453 1.967 . S
Co1428 O1460 1.920 . S
Co1429 O1432 1.966 . S
Co1429 N1438 2.022 . S
Co1429 N1446 1.993 . S
Co1429 O1454 1.941 . S
C1430 O1431 1.258 . S
C1430 O1432 1.263 . S
O1431 Co1428 1.970 . S
O1431 C1430 1.258 . S
O1432 Co1429 1.966 . S
O1432 C1430 1.263 . S
C1433 O1434 1.235 . S
C1433 O1460 1.289 . S
O1434 C1433 1.235 . S
C1435 C1437 1.400 . S
C1435 N1438 1.351 . S
C1435 C1440 1.501 . S
C1436 C1437 1.387 . S
C1436 N1439 1.341 . S
C1437 C1435 1.400 . S
C1437 C1436 1.387 . S
N1438 Co1429 2.022 . S
N1438 C1435 1.351 . S
N1438 N1439 1.365 . S
N1439 C1436 1.341 . S
N1439 N1438 1.365 . S
N1439 H1459 0.862 . S
C1440 C1435 1.501 . S
C1440 H1441 0.961 . S
C1440 H1442 0.961 . S
C1440 H1443 0.960 . S
H1441 C1440 0.961 . S
H1442 C1440 0.961 . S
H1443 C1440 0.960 . S
C1444 N1445 1.342 . S
C1444 C1448 1.401 . S
C1444 C1449 1.499 . S
N1445 Co1428 1.989 . S
N1445 C1444 1.342 . S
N1445 N1446 1.388 . S
N1446 Co1429 1.993 . S
N1446 N1445 1.388 . S
N1446 C1447 1.346 . S
C1447 N1446 1.346 . S
C1447 C1448 1.396 . S
C1447 C1457 1.510 . S
C1448 C1444 1.401 . S
C1448 C1447 1.396 . S
C1449 C1444 1.499 . S
C1449 H1450 0.959 . S
C1449 H1451 0.960 . S
C1449 H1452 0.986 . S
H1450 C1449 0.959 . S
H1451 C1449 0.960 . S
H1452 C1449 0.986 . S
O1453 Co1428 1.967 . S
O1453 C1461 1.258 . S
O1454 Co1429 1.941 . S
O1454 C1461 1.266 . S
H1455 C1457 0.959 . S
H1456 C1457 0.961 . S
C1457 C1447 1.510 . S
C1457 H1455 0.959 . S
C1457 H1456 0.961 . S
C1457 H1458 0.960 . S
H1458 C1457 0.960 . S
H1459 N1439 0.862 . S
O1460 Co1428 1.920 . S
O1460 C1433 1.289 . S
C1461 O1453 1.258 . S
C1461 O1454 1.266 . S
Co1462 O1465 1.970 . S
Co1462 N1479 1.989 . S
Co1462 O1487 1.967 . S
Co1462 O1494 1.920 . S
Co1463 O1466 1.966 . S
Co1463 N1472 2.022 . S
Co1463 N1480 1.993 . S
Co1463 O1488 1.941 . S
C1464 O1465 1.258 . S
C1464 O1466 1.263 . S
O1465 Co1462 1.970 . S
O1465 C1464 1.258 . S
O1466 Co1463 1.966 . S
O1466 C1464 1.263 . S
C1467 O1468 1.235 . S
C1467 O1494 1.289 . S
O1468 C1467 1.235 . S
C1469 C1471 1.400 . S
C1469 N1472 1.351 . S
C1469 C1474 1.501 . S
C1470 C1471 1.387 . S
C1470 N1473 1.341 . S
C1471 C1469 1.400 . S
C1471 C1470 1.387 . S
N1472 Co1463 2.022 . S
N1472 C1469 1.351 . S
N1472 N1473 1.365 . S
N1473 C1470 1.341 . S
N1473 N1472 1.365 . S
N1473 H1493 0.862 . S
C1474 C1469 1.501 . S
C1474 H1475 0.961 . S
C1474 H1476 0.961 . S
C1474 H1477 0.960 . S
H1475 C1474 0.961 . S
H1476 C1474 0.961 . S
H1477 C1474 0.960 . S
C1478 N1479 1.342 . S
C1478 C1482 1.401 . S
C1478 C1483 1.499 . S
N1479 Co1462 1.989 . S
N1479 C1478 1.342 . S
N1479 N1480 1.388 . S
N1480 Co1463 1.993 . S
N1480 N1479 1.388 . S
N1480 C1481 1.346 . S
C1481 N1480 1.346 . S
C1481 C1482 1.396 . S
C1481 C1491 1.510 . S
C1482 C1478 1.401 . S
C1482 C1481 1.396 . S
C1483 C1478 1.499 . S
C1483 H1484 0.959 . S
C1483 H1485 0.960 . S
C1483 H1486 0.961 . S
H1484 C1483 0.959 . S
H1485 C1483 0.960 . S
H1486 C1483 0.961 . S
O1487 Co1462 1.967 . S
O1487 C1495 1.258 . S
O1488 Co1463 1.941 . S
O1488 C1495 1.266 . S
H1489 C1491 0.959 . S
H1490 C1491 0.961 . S
C1491 C1481 1.510 . S
C1491 H1489 0.959 . S
C1491 H1490 0.961 . S
C1491 H1492 0.960 . S
H1492 C1491 0.960 . S
H1493 N1473 0.862 . S
O1494 Co1462 1.920 . S
O1494 C1467 1.289 . S
C1495 O1487 1.258 . S
C1495 O1488 1.266 . S
Co1496 O1499 1.970 . S
Co1496 N1513 1.989 . S
Co1496 O1521 1.967 . S
Co1496 O1528 1.920 . S
Co1497 O1500 1.966 . S
Co1497 N1506 2.022 . S
Co1497 N1514 1.993 . S
Co1497 O1522 1.941 . S
C1498 O1499 1.258 . S
C1498 O1500 1.263 . S
O1499 Co1496 1.970 . S
O1499 C1498 1.258 . S
O1500 Co1497 1.966 . S
O1500 C1498 1.263 . S
C1501 O1502 1.232 1_655 S
C1501 O1528 1.311 . S
O1502 C1501 1.232 1_455 S
C1503 C1505 1.400 . S
C1503 N1506 1.351 . S
C1503 C1508 1.501 . S
C1504 C1505 1.387 . S
C1504 N1507 1.341 . S
C1505 C1503 1.400 . S
C1505 C1504 1.387 . S
N1506 Co1497 2.022 . S
N1506 C1503 1.351 . S
N1506 N1507 1.365 . S
N1507 C1504 1.341 . S
N1507 N1506 1.365 . S
N1507 H1527 0.862 . S
C1508 C1503 1.501 . S
C1508 H1509 0.961 . S
C1508 H1510 0.961 . S
C1508 H1511 0.960 . S
H1509 C1508 0.961 . S
H1510 C1508 0.961 . S
H1511 C1508 0.960 . S
C1512 N1513 1.342 . S
C1512 C1516 1.401 . S
C1512 C1517 1.499 . S
N1513 Co1496 1.989 . S
N1513 C1512 1.342 . S
N1513 N1514 1.388 . S
N1514 Co1497 1.993 . S
N1514 N1513 1.388 . S
N1514 C1515 1.346 . S
C1515 N1514 1.346 . S
C1515 C1516 1.396 . S
C1515 C1525 1.510 . S
C1516 C1512 1.401 . S
C1516 C1515 1.396 . S
C1517 C1512 1.499 . S
C1517 H1518 0.959 . S
C1517 H1519 0.960 . S
C1517 H1520 0.986 . S
H1518 C1517 0.959 . S
H1519 C1517 0.960 . S
H1520 C1517 0.986 . S
O1521 Co1496 1.967 . S
O1521 C1529 1.258 . S
O1522 Co1497 1.941 . S
O1522 C1529 1.266 . S
H1523 C1525 0.959 . S
H1524 C1525 0.961 . S
C1525 C1515 1.510 . S
C1525 H1523 0.959 . S
C1525 H1524 0.961 . S
C1525 H1526 0.960 . S
H1526 C1525 0.960 . S
H1527 N1507 0.862 . S
O1528 Co1496 1.920 . S
O1528 C1501 1.311 . S
C1529 O1521 1.258 . S
C1529 O1522 1.266 . S
Co1530 O1533 1.970 . S
Co1530 N1547 1.989 . S
Co1530 O1555 1.967 . S
Co1530 O1562 1.920 . S
Co1531 O1534 1.966 . S
Co1531 N1540 2.022 . S
Co1531 N1548 1.993 . S
Co1531 O1556 1.941 . S
C1532 O1533 1.258 . S
C1532 O1534 1.263 . S
O1533 Co1530 1.970 . S
O1533 C1532 1.258 . S
O1534 Co1531 1.966 . S
O1534 C1532 1.263 . S
C1535 O1536 1.235 . S
C1535 O1562 1.289 . S
O1536 C1535 1.235 . S
C1537 C1539 1.400 . S
C1537 N1540 1.351 . S
C1537 C1542 1.501 . S
C1538 C1539 1.387 . S
C1538 N1541 1.341 . S
C1539 C1537 1.400 . S
C1539 C1538 1.387 . S
N1540 Co1531 2.022 . S
N1540 C1537 1.351 . S
N1540 N1541 1.365 . S
N1541 C1538 1.341 . S
N1541 N1540 1.365 . S
N1541 H1561 0.862 . S
C1542 C1537 1.501 . S
C1542 H1543 0.961 . S
C1542 H1544 0.961 . S
C1542 H1545 0.960 . S
H1543 C1542 0.961 . S
H1544 C1542 0.961 . S
H1545 C1542 0.960 . S
C1546 N1547 1.342 . S
C1546 C1550 1.401 . S
C1546 C1551 1.499 . S
N1547 Co1530 1.989 . S
N1547 C1546 1.342 . S
N1547 N1548 1.388 . S
N1548 Co1531 1.993 . S
N1548 N1547 1.388 . S
N1548 C1549 1.346 . S
C1549 N1548 1.346 . S
C1549 C1550 1.396 . S
C1549 C1559 1.510 . S
C1550 C1546 1.401 . S
C1550 C1549 1.396 . S
C1551 C1546 1.499 . S
C1551 H1552 0.959 . S
C1551 H1553 0.960 . S
C1551 H1554 0.961 . S
H1552 C1551 0.959 . S
H1553 C1551 0.960 . S
H1554 C1551 0.961 . S
O1555 Co1530 1.967 . S
O1555 C1563 1.258 . S
O1556 Co1531 1.941 . S
O1556 C1563 1.266 . S
H1557 C1559 0.959 . S
H1558 C1559 0.961 . S
C1559 C1549 1.510 . S
C1559 H1557 0.959 . S
C1559 H1558 0.961 . S
C1559 H1560 0.960 . S
H1560 C1559 0.960 . S
H1561 N1541 0.862 . S
O1562 Co1530 1.920 . S
O1562 C1535 1.289 . S
C1563 O1555 1.258 . S
C1563 O1556 1.266 . S
Co1564 O1567 1.970 . S
Co1564 N1581 1.989 . S
Co1564 O1589 1.967 . S
Co1564 O1596 1.920 . S
Co1565 O1568 1.966 . S
Co1565 N1574 2.022 . S
Co1565 N1582 1.993 . S
Co1565 O1590 1.941 . S
C1566 O1567 1.258 . S
C1566 O1568 1.263 . S
O1567 Co1564 1.970 . S
O1567 C1566 1.258 . S
O1568 Co1565 1.966 . S
O1568 C1566 1.263 . S
C1569 O1570 1.235 . S
C1569 O1596 1.289 . S
O1570 C1569 1.235 . S
C1571 C1573 1.400 . S
C1571 N1574 1.351 . S
C1571 C1576 1.501 . S
C1572 C1573 1.387 . S
C1572 N1575 1.341 . S
C1573 C1571 1.400 . S
C1573 C1572 1.387 . S
N1574 Co1565 2.022 . S
N1574 C1571 1.351 . S
N1574 N1575 1.365 . S
N1575 C1572 1.341 . S
N1575 N1574 1.365 . S
N1575 H1595 0.862 . S
C1576 C1571 1.501 . S
C1576 H1577 0.961 . S
C1576 H1578 0.961 . S
C1576 H1579 0.960 . S
H1577 C1576 0.961 . S
H1578 C1576 0.961 . S
H1579 C1576 0.960 . S
C1580 N1581 1.342 . S
C1580 C1584 1.401 . S
C1580 C1585 1.499 . S
N1581 Co1564 1.989 . S
N1581 C1580 1.342 . S
N1581 N1582 1.388 . S
N1582 Co1565 1.993 . S
N1582 N1581 1.388 . S
N1582 C1583 1.346 . S
C1583 N1582 1.346 . S
C1583 C1584 1.396 . S
C1583 C1593 1.510 . S
C1584 C1580 1.401 . S
C1584 C1583 1.396 . S
C1585 C1580 1.499 . S
C1585 H1586 0.959 . S
C1585 H1587 0.960 . S
C1585 H1588 0.986 . S
H1586 C1585 0.959 . S
H1587 C1585 0.960 . S
H1588 C1585 0.986 . S
O1589 Co1564 1.967 . S
O1589 C1597 1.258 . S
O1590 Co1565 1.941 . S
O1590 C1597 1.266 . S
H1591 C1593 0.959 . S
H1592 C1593 0.961 . S
C1593 C1583 1.510 . S
C1593 H1591 0.959 . S
C1593 H1592 0.961 . S
C1593 H1594 0.960 . S
H1594 C1593 0.960 . S
H1595 N1575 0.862 . S
O1596 Co1564 1.920 . S
O1596 C1569 1.289 . S
C1597 O1589 1.258 . S
C1597 O1590 1.266 . S
Co1598 O1601 1.970 . S
Co1598 N1615 1.989 . S
Co1598 O1623 1.967 . S
Co1598 O1630 1.920 . S
Co1599 O1602 1.966 . S
Co1599 N1608 2.022 . S
Co1599 N1616 1.993 . S
Co1599 O1624 1.941 . S
C1600 O1601 1.258 . S
C1600 O1602 1.263 . S
O1601 Co1598 1.970 . S
O1601 C1600 1.258 . S
O1602 Co1599 1.966 . S
O1602 C1600 1.263 . S
C1603 O1604 1.235 . S
C1603 O1630 1.289 . S
O1604 C1603 1.235 . S
C1605 C1607 1.400 . S
C1605 N1608 1.351 . S
C1605 C1610 1.501 . S
C1606 C1607 1.387 . S
C1606 N1609 1.341 . S
C1607 C1605 1.400 . S
C1607 C1606 1.387 . S
N1608 Co1599 2.022 . S
N1608 C1605 1.351 . S
N1608 N1609 1.365 . S
N1609 C1606 1.341 . S
N1609 N1608 1.365 . S
N1609 H1629 0.862 . S
C1610 C1605 1.501 . S
C1610 H1611 0.961 . S
C1610 H1612 0.961 . S
C1610 H1613 0.960 . S
H1611 C1610 0.961 . S
H1612 C1610 0.961 . S
H1613 C1610 0.960 . S
C1614 N1615 1.342 . S
C1614 C1618 1.401 . S
C1614 C1619 1.499 . S
N1615 Co1598 1.989 . S
N1615 C1614 1.342 . S
N1615 N1616 1.388 . S
N1616 Co1599 1.993 . S
N1616 N1615 1.388 . S
N1616 C1617 1.346 . S
C1617 N1616 1.346 . S
C1617 C1618 1.396 . S
C1617 C1627 1.510 . S
C1618 C1614 1.401 . S
C1618 C1617 1.396 . S
C1619 C1614 1.499 . S
C1619 H1620 0.959 . S
C1619 H1621 0.960 . S
C1619 H1622 0.961 . S
H1620 C1619 0.959 . S
H1621 C1619 0.960 . S
H1622 C1619 0.961 . S
O1623 Co1598 1.967 . S
O1623 C1631 1.258 . S
O1624 Co1599 1.941 . S
O1624 C1631 1.266 . S
H1625 C1627 0.959 . S
H1626 C1627 0.961 . S
C1627 C1617 1.510 . S
C1627 H1625 0.959 . S
C1627 H1626 0.961 . S
C1627 H1628 0.960 . S
H1628 C1627 0.960 . S
H1629 N1609 0.862 . S
O1630 Co1598 1.920 . S
O1630 C1603 1.289 . S
C1631 O1623 1.258 . S
C1631 O1624 1.266 . S
H1632 C1638 0.930 . S
H1633 C1642 0.930 . S
H1634 C1647 0.929 . S
H1635 C1645 0.929 . S
H1636 C1640 0.929 . S
H1637 C1646 0.929 . S
C1638 H1632 0.930 . S
C1638 C1639 1.367 . S
C1638 C1646 1.378 . S
C1639 C1638 1.367 . S
C1639 C1647 1.433 . S
C1640 H1636 0.929 . S
C1640 C1642 1.378 . S
C1640 C1644 1.350 . S
C1641 C1644 1.463 . S
C1641 C1646 1.350 . S
C1641 N1649 1.427 . S
C1642 H1633 0.930 . S
C1642 C1640 1.378 . S
C1642 C1643 1.367 . S
C1643 C1642 1.367 . S
C1643 C1645 1.433 . S
C1644 C1640 1.350 . S
C1644 C1641 1.463 . S
C1644 N1648 1.427 . S
C1645 H1635 0.929 . S
C1645 C1643 1.433 . S
C1645 N1648 1.384 . S
C1646 H1637 0.929 . S
C1646 C1638 1.378 . S
C1646 C1641 1.350 . S
C1647 H1634 0.929 . S
C1647 C1639 1.433 . S
C1647 N1649 1.384 . S
N1648 C1644 1.427 . S
N1648 C1645 1.384 . S
N1649 C1641 1.427 . S
N1649 C1647 1.384 . S
H1650 C1656 0.930 . S
H1651 C1660 0.930 . S
H1652 C1665 0.929 . S
H1653 C1663 0.929 . S
H1654 C1658 0.929 . S
H1655 C1664 0.929 . S
C1656 H1650 0.930 . S
C1656 C1657 1.367 . S
C1656 C1664 1.378 . S
C1657 C1656 1.367 . S
C1657 C1665 1.433 . S
C1658 H1654 0.929 . S
C1658 C1660 1.378 . S
C1658 C1662 1.350 . S
C1659 C1662 1.463 . S
C1659 C1664 1.350 . S
C1659 N1667 1.427 . S
C1660 H1651 0.930 . S
C1660 C1658 1.378 . S
C1660 C1661 1.367 . S
C1661 C1660 1.367 . S
C1661 C1663 1.433 1_556 S
C1662 C1658 1.350 . S
C1662 C1659 1.463 . S
C1662 N1666 1.456 . S
C1663 H1653 0.929 . S
C1663 C1661 1.433 1_554 S
C1663 N1666 1.373 1_554 S
C1664 H1655 0.929 . S
C1664 C1656 1.378 . S
C1664 C1659 1.350 . S
C1665 H1652 0.929 . S
C1665 C1657 1.433 . S
C1665 N1667 1.384 . S
N1666 C1662 1.456 . S
N1666 C1663 1.373 1_556 S
N1667 C1659 1.427 . S
N1667 C1665 1.384 . S
H1668 C1674 0.930 . S
H1669 C1678 0.930 . S
H1670 C1683 0.929 . S
H1671 C1681 0.929 . S
H1672 C1676 0.929 . S
H1673 C1682 0.929 . S
C1674 H1668 0.930 . S
C1674 C1675 1.367 . S
C1674 C1682 1.378 . S
C1675 C1674 1.367 . S
C1675 C1683 1.433 . S
C1676 H1672 0.929 . S
C1676 C1678 1.378 . S
C1676 C1680 1.350 . S
C1677 C1680 1.463 . S
C1677 C1682 1.350 . S
C1677 N1685 1.427 . S
C1678 H1669 0.930 . S
C1678 C1676 1.378 . S
C1678 C1679 1.367 . S
C1679 C1678 1.367 . S
C1679 C1681 1.433 . S
C1680 C1676 1.350 . S
C1680 C1677 1.463 . S
C1680 N1684 1.427 . S
C1681 H1671 0.929 . S
C1681 C1679 1.433 . S
C1681 N1684 1.384 . S
C1682 H1673 0.929 . S
C1682 C1674 1.378 . S
C1682 C1677 1.350 . S
C1683 H1670 0.929 . S
C1683 C1675 1.433 . S
C1683 N1685 1.384 . S
N1684 C1680 1.427 . S
N1684 C1681 1.384 . S
N1685 C1677 1.427 . S
N1685 C1683 1.384 . S
H1686 C1692 0.930 . S
H1687 C1696 0.930 . S
H1688 C1701 0.929 . S
H1689 C1699 0.929 . S
H1690 C1694 0.929 1_554 S
H1691 C1700 0.929 . S
C1692 H1686 0.930 . S
C1692 C1693 1.367 . S
C1692 C1700 1.378 . S
C1693 C1692 1.367 . S
C1693 C1701 1.433 1_556 S
C1694 H1690 0.929 1_556 S
C1694 C1696 1.378 . S
C1694 C1698 1.350 . S
C1695 C1698 1.463 . S
C1695 C1700 1.350 . S
C1695 N1703 1.427 1_556 S
C1696 H1687 0.930 . S
C1696 C1694 1.378 . S
C1696 C1697 1.367 . S
C1697 C1696 1.367 . S
C1697 C1699 1.433 . S
C1698 C1694 1.350 . S
C1698 C1695 1.463 . S
C1698 N1702 1.427 . S
C1699 H1689 0.929 . S
C1699 C1697 1.433 . S
C1699 N1702 1.384 . S
C1700 H1691 0.929 . S
C1700 C1692 1.378 . S
C1700 C1695 1.350 . S
C1701 H1688 0.929 . S
C1701 C1693 1.433 1_554 S
C1701 N1703 1.384 . S
N1702 C1698 1.427 . S
N1702 C1699 1.384 . S
N1703 C1695 1.427 1_554 S
N1703 C1701 1.384 . S
H1704 C1710 0.930 . S
H1705 C1714 0.930 . S
H1706 C1719 0.929 . S
H1707 C1717 0.929 . S
H1708 C1712 0.929 . S
H1709 C1718 0.929 . S
C1710 H1704 0.930 . S
C1710 C1711 1.367 . S
C1710 C1718 1.378 . S
C1711 C1710 1.367 . S
C1711 C1719 1.433 . S
C1712 H1708 0.929 . S
C1712 C1714 1.378 . S
C1712 C1716 1.350 . S
C1713 C1716 1.463 . S
C1713 C1718 1.350 . S
C1713 N1721 1.427 . S
C1714 H1705 0.930 . S
C1714 C1712 1.378 . S
C1714 C1715 1.367 . S
C1715 C1714 1.367 . S
C1715 C1717 1.433 . S
C1716 C1712 1.350 . S
C1716 C1713 1.463 . S
C1716 N1720 1.427 . S
C1717 H1707 0.929 . S
C1717 C1715 1.433 . S
C1717 N1720 1.384 . S
C1718 H1709 0.929 . S
C1718 C1710 1.378 . S
C1718 C1713 1.350 . S
C1719 H1706 0.929 . S
C1719 C1711 1.433 . S
C1719 N1721 1.384 . S
N1720 C1716 1.427 . S
N1720 C1717 1.384 . S
N1721 C1713 1.427 . S
N1721 C1719 1.384 . S
H1722 C1728 0.930 . S
H1723 C1732 0.930 . S
H1724 C1737 0.929 . S
H1725 C1735 0.929 1_655 S
H1726 C1730 0.929 . S
H1727 C1736 0.929 . S
C1728 H1722 0.930 . S
C1728 C1729 1.367 . S
C1728 C1736 1.378 . S
C1729 C1728 1.367 . S
C1729 C1737 1.433 . S
C1730 H1726 0.929 . S
C1730 C1732 1.378 1_554 S
C1730 C1734 1.350 . S
C1731 C1734 1.463 . S
C1731 C1736 1.350 . S
C1731 N1739 1.427 . S
C1732 H1723 0.930 . S
C1732 C1730 1.378 1_556 S
C1732 C1733 1.407 1_556 S
C1733 C1732 1.407 1_554 S
C1733 C1735 1.436 . S
C1734 C1730 1.350 . S
C1734 C1731 1.463 . S
C1734 N1738 1.427 . S
C1735 H1725 0.929 1_455 S
C1735 C1733 1.436 . S
C1735 N1738 1.384 . S
C1736 H1727 0.929 . S
C1736 C1728 1.378 . S
C1736 C1731 1.350 . S
C1737 H1724 0.929 . S
C1737 C1729 1.433 . S
C1737 N1739 1.384 . S
N1738 C1734 1.427 . S
N1738 C1735 1.384 . S
N1739 C1731 1.427 . S
N1739 C1737 1.384 . S
H1740 C1746 0.930 . S
H1741 C1750 0.930 . S
H1742 C1755 0.929 . S
H1743 C1753 0.929 . S
H1744 C1748 0.929 . S
H1745 C1754 0.929 . S
C1746 H1740 0.930 . S
C1746 C1747 1.367 . S
C1746 C1754 1.378 . S
C1747 C1746 1.367 . S
C1747 C1755 1.433 . S
C1748 H1744 0.929 . S
C1748 C1750 1.378 . S
C1748 C1752 1.350 . S
C1749 C1752 1.463 . S
C1749 C1754 1.350 . S
C1749 N1757 1.427 . S
C1750 H1741 0.930 . S
C1750 C1748 1.378 . S
C1750 C1751 1.367 . S
C1751 C1750 1.367 . S
C1751 C1753 1.433 . S
C1752 C1748 1.350 . S
C1752 C1749 1.463 . S
C1752 N1756 1.427 . S
C1753 H1743 0.929 . S
C1753 C1751 1.433 . S
C1753 N1756 1.384 . S
C1754 H1745 0.929 . S
C1754 C1746 1.378 . S
C1754 C1749 1.350 . S
C1755 H1742 0.929 . S
C1755 C1747 1.433 . S
C1755 N1757 1.384 . S
N1756 C1752 1.427 . S
N1756 C1753 1.384 . S
N1757 C1749 1.427 . S
N1757 C1755 1.384 . S
H1758 C1764 0.930 1_455 S
H1759 C1768 0.930 . S
H1760 C1773 0.929 . S
H1761 C1771 0.929 . S
H1762 C1766 0.929 . S
H1763 C1772 0.929 . S
C1764 H1758 0.930 1_655 S
C1764 C1765 1.369 . S
C1764 C1772 1.378 . S
C1765 C1764 1.369 . S
C1765 C1773 1.453 1_554 S
C1766 H1762 0.929 . S
C1766 C1768 1.378 . S
C1766 C1770 1.350 . S
C1767 C1770 1.463 . S
C1767 C1772 1.350 . S
C1767 N1775 1.427 . S
C1768 H1759 0.930 . S
C1768 C1766 1.378 . S
C1768 C1769 1.367 . S
C1769 C1768 1.367 . S
C1769 C1771 1.433 . S
C1770 C1766 1.350 . S
C1770 C1767 1.463 . S
C1770 N1774 1.427 . S
C1771 H1761 0.929 . S
C1771 C1769 1.433 . S
C1771 N1774 1.384 . S
C1772 H1763 0.929 . S
C1772 C1764 1.378 . S
C1772 C1767 1.350 . S
C1773 H1760 0.929 . S
C1773 C1765 1.453 1_556 S
C1773 N1775 1.384 1_556 S
N1774 C1770 1.427 . S
N1774 C1771 1.384 . S
N1775 C1767 1.427 . S
N1775 C1773 1.384 1_554 S
H1776 C1782 0.930 . S
H1777 C1786 0.930 . S
H1778 C1791 0.929 . S
H1779 C1789 0.929 . S
H1780 C1784 0.929 . S
H1781 C1790 0.929 . S
C1782 H1776 0.930 . S
C1782 C1783 1.367 . S
C1782 C1790 1.378 . S
C1783 C1782 1.367 . S
C1783 C1791 1.433 . S
C1784 H1780 0.929 . S
C1784 C1786 1.378 . S
C1784 C1788 1.350 . S
C1785 C1788 1.463 . S
C1785 C1790 1.350 . S
C1785 N1793 1.427 . S
C1786 H1777 0.930 . S
C1786 C1784 1.378 . S
C1786 C1787 1.367 . S
C1787 C1786 1.367 . S
C1787 C1789 1.433 . S
C1788 C1784 1.350 . S
C1788 C1785 1.463 . S
C1788 N1792 1.427 . S
C1789 H1779 0.929 . S
C1789 C1787 1.433 . S
C1789 N1792 1.384 . S
C1790 H1781 0.929 . S
C1790 C1782 1.378 . S
C1790 C1785 1.350 . S
C1791 H1778 0.929 . S
C1791 C1783 1.433 . S
C1791 N1793 1.384 . S
N1792 C1788 1.427 . S
N1792 C1789 1.384 . S
N1793 C1785 1.427 . S
N1793 C1791 1.384 . S
H1794 C1800 0.930 . S
H1795 C1804 0.930 . S
H1796 C1809 0.929 1_556 S
H1797 C1807 0.929 . S
H1798 C1802 0.929 . S
H1799 C1808 0.929 . S
C1800 H1794 0.930 . S
C1800 C1801 1.407 . S
C1800 C1808 1.378 . S
C1801 C1800 1.407 . S
C1801 C1809 1.436 . S
C1802 H1798 0.929 . S
C1802 C1804 1.378 . S
C1802 C1806 1.350 . S
C1803 C1806 1.463 . S
C1803 C1808 1.350 . S
C1803 N1811 1.427 . S
C1804 H1795 0.930 . S
C1804 C1802 1.378 . S
C1804 C1805 1.367 . S
C1805 C1804 1.367 . S
C1805 C1807 1.433 . S
C1806 C1802 1.350 . S
C1806 C1803 1.463 . S
C1806 N1810 1.427 . S
C1807 H1797 0.929 . S
C1807 C1805 1.433 . S
C1807 N1810 1.384 . S
C1808 H1799 0.929 . S
C1808 C1800 1.378 . S
C1808 C1803 1.350 . S
C1809 H1796 0.929 1_554 S
C1809 C1801 1.436 . S
C1809 N1811 1.384 . S
N1810 C1806 1.427 . S
N1810 C1807 1.384 . S
N1811 C1803 1.427 . S
N1811 C1809 1.384 . S
H1812 C1818 0.930 . S
H1813 C1822 0.930 . S
H1814 C1827 0.929 . S
H1815 C1825 0.929 . S
H1816 C1820 0.929 . S
H1817 C1826 0.929 . S
C1818 H1812 0.930 . S
C1818 C1819 1.367 . S
C1818 C1826 1.378 . S
C1819 C1818 1.367 . S
C1819 C1827 1.433 . S
C1820 H1816 0.929 . S
C1820 C1822 1.378 . S
C1820 C1824 1.350 . S
C1821 C1824 1.463 . S
C1821 C1826 1.350 . S
C1821 N1829 1.427 . S
C1822 H1813 0.930 . S
C1822 C1820 1.378 . S
C1822 C1823 1.367 . S
C1823 C1822 1.367 . S
C1823 C1825 1.433 . S
C1824 C1820 1.350 . S
C1824 C1821 1.463 . S
C1824 N1828 1.427 . S
C1825 H1815 0.929 . S
C1825 C1823 1.433 . S
C1825 N1828 1.384 . S
C1826 H1817 0.929 . S
C1826 C1818 1.378 . S
C1826 C1821 1.350 . S
C1827 H1814 0.929 . S
C1827 C1819 1.433 . S
C1827 N1829 1.384 . S
N1828 C1824 1.427 . S
N1828 C1825 1.384 . S
N1829 C1821 1.427 . S
N1829 C1827 1.384 . S
H1830 C1836 0.930 . S
H1831 C1840 0.930 . S
H1832 C1845 0.929 1_556 S
H1833 C1843 0.929 . S
H1834 C1838 0.929 . S
H1835 C1844 0.929 . S
C1836 H1830 0.930 . S
C1836 C1837 1.396 1_565 S
C1836 C1844 1.378 . S
C1837 C1836 1.396 1_545 S
C1837 C1845 1.443 . S
C1838 H1834 0.929 . S
C1838 C1840 1.378 . S
C1838 C1842 1.350 . S
C1839 C1842 1.463 . S
C1839 C1844 1.350 1_545 S
C1839 N1847 1.427 . S
C1840 H1831 0.930 . S
C1840 C1838 1.378 . S
C1840 C1841 1.367 . S
C1841 C1840 1.367 . S
C1841 C1843 1.433 . S
C1842 C1838 1.350 . S
C1842 C1839 1.463 . S
C1842 N1846 1.427 . S
C1843 H1833 0.929 . S
C1843 C1841 1.433 . S
C1843 N1846 1.384 . S
C1844 H1835 0.929 . S
C1844 C1836 1.378 . S
C1844 C1839 1.350 1_565 S
C1845 H1832 0.929 1_554 S
C1845 C1837 1.443 . S
C1845 N1847 1.384 . S
N1846 C1842 1.427 . S
N1846 C1843 1.384 . S
N1847 C1839 1.427 . S
N1847 C1845 1.384 . S
H1848 C1854 0.930 . S
H1849 C1858 0.930 . S
H1850 C1863 0.929 . S
H1851 C1861 0.929 . S
H1852 C1856 0.929 . S
H1853 C1862 0.929 . S
C1854 H1848 0.930 . S
C1854 C1855 1.367 . S
C1854 C1862 1.378 . S
C1855 C1854 1.367 . S
C1855 C1863 1.433 . S
C1856 H1852 0.929 . S
C1856 C1858 1.378 . S
C1856 C1860 1.350 . S
C1857 C1860 1.463 . S
C1857 C1862 1.350 . S
C1857 N1865 1.427 . S
C1858 H1849 0.930 . S
C1858 C1856 1.378 . S
C1858 C1859 1.367 . S
C1859 C1858 1.367 . S
C1859 C1861 1.433 . S
C1860 C1856 1.350 . S
C1860 C1857 1.463 . S
C1860 N1864 1.427 . S
C1861 H1851 0.929 . S
C1861 C1859 1.433 . S
C1861 N1864 1.384 . S
C1862 H1853 0.929 . S
C1862 C1854 1.378 . S
C1862 C1857 1.350 . S
C1863 H1850 0.929 . S
C1863 C1855 1.433 . S
C1863 N1865 1.384 . S
N1864 C1860 1.427 . S
N1864 C1861 1.384 . S
N1865 C1857 1.427 . S
N1865 C1863 1.384 . S
H1866 C1872 0.930 . S
H1867 C1876 0.930 . S
H1868 C1881 0.929 . S
H1869 C1879 0.929 . S
H1870 C1874 0.929 . S
H1871 C1880 0.929 . S
C1872 H1866 0.930 . S
C1872 C1873 1.367 . S
C1872 C1880 1.378 . S
C1873 C1872 1.367 . S
C1873 C1881 1.433 . S
C1874 H1870 0.929 . S
C1874 C1876 1.378 . S
C1874 C1878 1.350 . S
C1875 C1878 1.463 . S
C1875 C1880 1.350 . S
C1875 N1883 1.427 . S
C1876 H1867 0.930 . S
C1876 C1874 1.378 . S
C1876 C1877 1.381 . S
C1877 C1876 1.381 . S
C1877 C1879 1.450 . S
C1878 C1874 1.350 . S
C1878 C1875 1.463 . S
C1878 N1882 1.427 . S
C1879 H1869 0.929 . S
C1879 C1877 1.450 . S
C1879 N1882 1.384 . S
C1880 H1871 0.929 . S
C1880 C1872 1.378 . S
C1880 C1875 1.350 . S
C1881 H1868 0.929 . S
C1881 C1873 1.433 . S
C1881 N1883 1.384 . S
N1882 C1878 1.427 . S
N1882 C1879 1.384 . S
N1883 C1875 1.427 . S
N1883 C1881 1.384 . S
H1884 C1890 0.930 . S
H1885 C1894 0.930 . S
H1886 C1899 0.929 . S
H1887 C1897 0.929 . S
H1888 C1892 0.929 . S
H1889 C1898 0.929 . S
C1890 H1884 0.930 . S
C1890 C1891 1.367 . S
C1890 C1898 1.378 . S
C1891 C1890 1.367 . S
C1891 C1899 1.433 . S
C1892 H1888 0.929 . S
C1892 C1894 1.378 . S
C1892 C1896 1.350 . S
C1893 C1896 1.463 . S
C1893 C1898 1.350 . S
C1893 N1901 1.427 . S
C1894 H1885 0.930 . S
C1894 C1892 1.378 . S
C1894 C1895 1.367 . S
C1895 C1894 1.367 . S
C1895 C1897 1.433 . S
C1896 C1892 1.350 . S
C1896 C1893 1.463 . S
C1896 N1900 1.427 . S
C1897 H1887 0.929 . S
C1897 C1895 1.433 . S
C1897 N1900 1.384 . S
C1898 H1889 0.929 . S
C1898 C1890 1.378 . S
C1898 C1893 1.350 . S
C1899 H1886 0.929 . S
C1899 C1891 1.433 . S
C1899 N1901 1.384 . S
N1900 C1896 1.427 . S
N1900 C1897 1.384 . S
N1901 C1893 1.427 . S
N1901 C1899 1.384 . S
H1902 C1908 0.930 1_554 S
H1903 C1912 0.930 . S
H1904 C1917 0.929 1_565 S
H1905 C1915 0.929 . S
H1906 C1910 0.929 . S
H1907 C1916 0.929 . S
C1908 H1902 0.930 1_556 S
C1908 C1909 1.369 . S
C1908 C1916 1.378 . S
C1909 C1908 1.369 . S
C1909 C1917 1.453 . S
C1910 H1906 0.929 . S
C1910 C1912 1.378 . S
C1910 C1914 1.350 . S
C1911 C1914 1.463 . S
C1911 C1916 1.350 . S
C1911 N1919 1.427 . S
C1912 H1903 0.930 . S
C1912 C1910 1.378 . S
C1912 C1913 1.367 . S
C1913 C1912 1.367 . S
C1913 C1915 1.433 . S
C1914 C1910 1.350 . S
C1914 C1911 1.463 . S
C1914 N1918 1.427 . S
C1915 H1905 0.929 . S
C1915 C1913 1.433 . S
C1915 N1918 1.384 . S
C1916 H1907 0.929 . S
C1916 C1908 1.378 . S
C1916 C1911 1.350 . S
C1917 H1904 0.929 1_545 S
C1917 C1909 1.453 . S
C1917 N1919 1.384 . S
N1918 C1914 1.427 . S
N1918 C1915 1.384 . S
N1919 C1911 1.427 . S
N1919 C1917 1.384 . S
H1920 C1926 0.930 . S
H1921 C1930 0.930 . S
H1922 C1935 0.929 . S
H1923 C1933 0.929 . S
H1924 C1928 0.929 . S
H1925 C1934 0.929 . S
C1926 H1920 0.930 . S
C1926 C1927 1.367 . S
C1926 C1934 1.378 . S
C1927 C1926 1.367 . S
C1927 C1935 1.433 . S
C1928 H1924 0.929 . S
C1928 C1930 1.378 . S
C1928 C1932 1.350 . S
C1929 C1932 1.463 . S
C1929 C1934 1.350 . S
C1929 N1937 1.427 . S
C1930 H1921 0.930 . S
C1930 C1928 1.378 . S
C1930 C1931 1.367 . S
C1931 C1930 1.367 . S
C1931 C1933 1.433 . S
C1932 C1928 1.350 . S
C1932 C1929 1.463 . S
C1932 N1936 1.427 . S
C1933 H1923 0.929 . S
C1933 C1931 1.433 . S
C1933 N1936 1.384 . S
C1934 H1925 0.929 . S
C1934 C1926 1.378 . S
C1934 C1929 1.350 . S
C1935 H1922 0.929 . S
C1935 C1927 1.433 . S
C1935 N1937 1.384 . S
N1936 C1932 1.427 . S
N1936 C1933 1.384 . S
N1937 C1929 1.427 . S
N1937 C1935 1.384 . S
H1938 C1944 0.930 . S
H1939 C1948 0.930 . S
H1940 C1953 0.929 . S
H1941 C1951 0.929 . S
H1942 C1946 0.929 . S
H1943 C1952 0.929 . S
C1944 H1938 0.930 . S
C1944 C1945 1.367 . S
C1944 C1952 1.378 . S
C1945 C1944 1.367 . S
C1945 C1953 1.433 . S
C1946 H1942 0.929 . S
C1946 C1948 1.378 . S
C1946 C1950 1.350 . S
C1947 C1950 1.463 . S
C1947 C1952 1.350 . S
C1947 N1955 1.427 . S
C1948 H1939 0.930 . S
C1948 C1946 1.378 . S
C1948 C1949 1.367 . S
C1949 C1948 1.367 . S
C1949 C1951 1.433 . S
C1950 C1946 1.350 . S
C1950 C1947 1.463 . S
C1950 N1954 1.427 . S
C1951 H1941 0.929 . S
C1951 C1949 1.433 . S
C1951 N1954 1.384 . S
C1952 H1943 0.929 . S
C1952 C1944 1.378 . S
C1952 C1947 1.350 . S
C1953 H1940 0.929 . S
C1953 C1945 1.433 . S
C1953 N1955 1.384 . S
N1954 C1950 1.427 . S
N1954 C1951 1.384 . S
N1955 C1947 1.427 . S
N1955 C1953 1.384 . S
H1956 C1962 0.930 . S
H1957 C1966 0.930 . S
H1958 C1971 0.929 . S
H1959 C1969 0.929 . S
H1960 C1964 0.929 1_455 S
H1961 C1970 0.929 . S
C1962 H1956 0.930 . S
C1962 C1963 1.367 . S
C1962 C1970 1.378 . S
C1963 C1962 1.367 . S
C1963 C1971 1.433 1_655 S
C1964 H1960 0.929 1_655 S
C1964 C1966 1.378 . S
C1964 C1968 1.350 . S
C1965 C1968 1.463 . S
C1965 C1970 1.350 . S
C1965 N1973 1.427 1_655 S
C1966 H1957 0.930 . S
C1966 C1964 1.378 . S
C1966 C1967 1.367 . S
C1967 C1966 1.367 . S
C1967 C1969 1.433 . S
C1968 C1964 1.350 . S
C1968 C1965 1.463 . S
C1968 N1972 1.427 . S
C1969 H1959 0.929 . S
C1969 C1967 1.433 . S
C1969 N1972 1.384 . S
C1970 H1961 0.929 . S
C1970 C1962 1.378 . S
C1970 C1965 1.350 . S
C1971 H1958 0.929 . S
C1971 C1963 1.433 1_455 S
C1971 N1973 1.384 . S
N1972 C1968 1.427 . S
N1972 C1969 1.384 . S
N1973 C1965 1.427 1_455 S
N1973 C1971 1.384 . S
H1974 C1980 0.930 . S
H1975 C1984 0.930 . S
H1976 C1989 0.929 . S
H1977 C1987 0.929 . S
H1978 C1982 0.929 . S
H1979 C1988 0.929 . S
C1980 H1974 0.930 . S
C1980 C1981 1.367 . S
C1980 C1988 1.378 . S
C1981 C1980 1.367 . S
C1981 C1989 1.433 . S
C1982 H1978 0.929 . S
C1982 C1984 1.378 . S
C1982 C1986 1.350 . S
C1983 C1986 1.463 . S
C1983 C1988 1.350 . S
C1983 N1991 1.427 . S
C1984 H1975 0.930 . S
C1984 C1982 1.378 . S
C1984 C1985 1.367 . S
C1985 C1984 1.367 . S
C1985 C1987 1.433 . S
C1986 C1982 1.350 . S
C1986 C1983 1.463 . S
C1986 N1990 1.427 . S
C1987 H1977 0.929 . S
C1987 C1985 1.433 . S
C1987 N1990 1.384 . S
C1988 H1979 0.929 . S
C1988 C1980 1.378 . S
C1988 C1983 1.350 . S
C1989 H1976 0.929 . S
C1989 C1981 1.433 . S
C1989 N1991 1.384 . S
N1990 C1986 1.427 . S
N1990 C1987 1.384 . S
N1991 C1983 1.427 . S
N1991 C1989 1.384 . S
H1992 C1998 0.930 . S
H1993 C2002 0.930 . S
H1994 C2007 0.929 . S
H1995 C2005 0.929 . S
H1996 C2000 0.929 . S
H1997 C2006 0.929 . S
C1998 H1992 0.930 . S
C1998 C1999 1.367 . S
C1998 C2006 1.378 . S
C1999 C1998 1.367 . S
C1999 C2007 1.433 . S
C2000 H1996 0.929 . S
C2000 C2002 1.378 . S
C2000 C2004 1.350 . S
C2001 C2004 1.463 . S
C2001 C2006 1.350 . S
C2001 N2009 1.427 . S
C2002 H1993 0.930 . S
C2002 C2000 1.378 . S
C2002 C2003 1.367 . S
C2003 C2002 1.367 . S
C2003 C2005 1.433 . S
C2004 C2000 1.350 . S
C2004 C2001 1.463 . S
C2004 N2008 1.427 . S
C2005 H1995 0.929 . S
C2005 C2003 1.433 . S
C2005 N2008 1.384 . S
C2006 H1997 0.929 . S
C2006 C1998 1.378 . S
C2006 C2001 1.350 . S
C2007 H1994 0.929 . S
C2007 C1999 1.433 . S
C2007 N2009 1.384 . S
N2008 C2004 1.427 . S
N2008 C2005 1.384 . S
N2009 C2001 1.427 . S
N2009 C2007 1.384 . S
H2010 C2016 0.930 . S
H2011 C2020 0.930 . S
H2012 C2025 0.929 . S
H2013 C2023 0.929 . S
H2014 C2018 0.929 . S
H2015 C2024 0.929 . S
C2016 H2010 0.930 . S
C2016 C2017 1.367 . S
C2016 C2024 1.378 . S
C2017 C2016 1.367 . S
C2017 C2025 1.433 . S
C2018 H2014 0.929 . S
C2018 C2020 1.378 . S
C2018 C2022 1.350 . S
C2019 C2022 1.463 . S
C2019 C2024 1.350 . S
C2019 N2027 1.427 . S
C2020 H2011 0.930 . S
C2020 C2018 1.378 . S
C2020 C2021 1.367 . S
C2021 C2020 1.367 . S
C2021 C2023 1.433 . S
C2022 C2018 1.350 . S
C2022 C2019 1.463 . S
C2022 N2026 1.427 . S
C2023 H2013 0.929 . S
C2023 C2021 1.433 . S
C2023 N2026 1.384 . S
C2024 H2015 0.929 . S
C2024 C2016 1.378 . S
C2024 C2019 1.350 . S
C2025 H2012 0.929 . S
C2025 C2017 1.433 . S
C2025 N2027 1.384 . S
N2026 C2022 1.427 . S
N2026 C2023 1.384 . S
N2027 C2019 1.427 . S
N2027 C2025 1.384 . S
H2028 C2034 0.930 . S
H2029 C2038 0.930 . S
H2030 C2043 0.929 1_455 S
H2031 C2041 0.929 . S
H2032 C2036 0.929 . S
H2033 C2042 0.929 . S
C2034 H2028 0.930 . S
C2034 C2035 1.367 . S
C2034 C2042 1.378 . S
C2035 C2034 1.367 . S
C2035 C2043 1.433 . S
C2036 H2032 0.929 . S
C2036 C2038 1.378 . S
C2036 C2040 1.350 . S
C2037 C2040 1.463 . S
C2037 C2042 1.350 . S
C2037 N2045 1.427 . S
C2038 H2029 0.930 . S
C2038 C2036 1.378 . S
C2038 C2039 1.367 . S
C2039 C2038 1.367 . S
C2039 C2041 1.433 . S
C2040 C2036 1.350 . S
C2040 C2037 1.463 . S
C2040 N2044 1.427 . S
C2041 H2031 0.929 . S
C2041 C2039 1.433 . S
C2041 N2044 1.384 . S
C2042 H2033 0.929 . S
C2042 C2034 1.378 . S
C2042 C2037 1.350 . S
C2043 H2030 0.929 1_655 S
C2043 C2035 1.433 . S
C2043 N2045 1.384 . S
N2044 C2040 1.427 . S
N2044 C2041 1.384 . S
N2045 C2037 1.427 . S
N2045 C2043 1.384 . S
H2046 C2052 0.921 1_665 S
H2047 C2056 0.930 . S
H2048 C2061 0.929 . S
H2049 C2059 0.929 . S
H2050 C2054 0.929 . S
H2051 C2060 0.929 . S
C2052 H2046 0.921 1_445 S
C2052 C2053 1.381 . S
C2052 C2060 1.383 . S
C2053 C2052 1.381 . S
C2053 C2061 1.452 . S
C2054 H2050 0.929 . S
C2054 C2056 1.378 . S
C2054 C2058 1.350 . S
C2055 C2058 1.463 . S
C2055 C2060 1.350 . S
C2055 N2063 1.427 . S
C2056 H2047 0.930 . S
C2056 C2054 1.378 . S
C2056 C2057 1.367 . S
C2057 C2056 1.367 . S
C2057 C2059 1.433 . S
C2058 C2054 1.350 . S
C2058 C2055 1.463 . S
C2058 N2062 1.427 . S
C2059 H2049 0.929 . S
C2059 C2057 1.433 . S
C2059 N2062 1.384 . S
C2060 H2051 0.929 . S
C2060 C2052 1.383 . S
C2060 C2055 1.350 . S
C2061 H2048 0.929 . S
C2061 C2053 1.452 . S
C2061 N2063 1.384 . S
N2062 C2058 1.427 . S
N2062 C2059 1.384 . S
N2063 C2055 1.427 . S
N2063 C2061 1.384 . S
H2064 C2070 0.930 . S
H2065 C2074 0.930 . S
H2066 C2079 0.929 . S
H2067 C2077 0.929 . S
H2068 C2072 0.929 . S
H2069 C2078 0.929 . S
C2070 H2064 0.930 . S
C2070 C2071 1.367 . S
C2070 C2078 1.378 . S
C2071 C2070 1.367 . S
C2071 C2079 1.433 . S
C2072 H2068 0.929 . S
C2072 C2074 1.378 . S
C2072 C2076 1.350 . S
C2073 C2076 1.463 . S
C2073 C2078 1.350 . S
C2073 N2081 1.427 . S
C2074 H2065 0.930 . S
C2074 C2072 1.378 . S
C2074 C2075 1.367 . S
C2075 C2074 1.367 . S
C2075 C2077 1.433 . S
C2076 C2072 1.350 . S
C2076 C2073 1.463 . S
C2076 N2080 1.427 . S
C2077 H2067 0.929 . S
C2077 C2075 1.433 . S
C2077 N2080 1.384 . S
C2078 H2069 0.929 . S
C2078 C2070 1.378 . S
C2078 C2073 1.350 . S
C2079 H2066 0.929 . S
C2079 C2071 1.433 . S
C2079 N2081 1.384 . S
N2080 C2076 1.427 . S
N2080 C2077 1.384 . S
N2081 C2073 1.427 . S
N2081 C2079 1.384 . S
H2082 C2088 0.930 . S
H2083 C2092 0.930 . S
H2084 C2097 0.929 . S
H2085 C2095 0.929 1_455 S
H2086 C2090 0.929 . S
H2087 C2096 0.929 . S
C2088 H2082 0.930 . S
C2088 C2089 1.367 . S
C2088 C2096 1.378 . S
C2089 C2088 1.367 . S
C2089 C2097 1.433 . S
C2090 H2086 0.929 . S
C2090 C2092 1.378 . S
C2090 C2094 1.350 . S
C2091 C2094 1.463 . S
C2091 C2096 1.350 . S
C2091 N2099 1.427 . S
C2092 H2083 0.930 . S
C2092 C2090 1.378 . S
C2092 C2093 1.391 . S
C2093 C2092 1.391 . S
C2093 C2095 1.445 . S
C2094 C2090 1.350 . S
C2094 C2091 1.463 . S
C2094 N2098 1.427 . S
C2095 H2085 0.929 1_655 S
C2095 C2093 1.445 . S
C2095 N2098 1.384 . S
C2096 H2087 0.929 . S
C2096 C2088 1.378 . S
C2096 C2091 1.350 . S
C2097 H2084 0.929 . S
C2097 C2089 1.433 . S
C2097 N2099 1.384 . S
N2098 C2094 1.427 . S
N2098 C2095 1.384 . S
N2099 C2091 1.427 . S
N2099 C2097 1.384 . S
H2100 C2106 0.930 . S
H2101 C2110 0.930 . S
H2102 C2115 0.929 . S
H2103 C2113 0.929 . S
H2104 C2108 0.929 . S
H2105 C2114 0.929 . S
C2106 H2100 0.930 . S
C2106 C2107 1.367 . S
C2106 C2114 1.378 . S
C2107 C2106 1.367 . S
C2107 C2115 1.433 . S
C2108 H2104 0.929 . S
C2108 C2110 1.378 . S
C2108 C2112 1.350 . S
C2109 C2112 1.463 . S
C2109 C2114 1.350 . S
C2109 N2117 1.427 . S
C2110 H2101 0.930 . S
C2110 C2108 1.378 . S
C2110 C2111 1.367 . S
C2111 C2110 1.367 . S
C2111 C2113 1.433 . S
C2112 C2108 1.350 . S
C2112 C2109 1.463 . S
C2112 N2116 1.427 . S
C2113 H2103 0.929 . S
C2113 C2111 1.433 . S
C2113 N2116 1.384 . S
C2114 H2105 0.929 . S
C2114 C2106 1.378 . S
C2114 C2109 1.350 . S
C2115 H2102 0.929 . S
C2115 C2107 1.433 . S
C2115 N2117 1.384 . S
N2116 C2112 1.427 . S
N2116 C2113 1.384 . S
N2117 C2109 1.427 . S
N2117 C2115 1.384 . S
H2118 C2124 0.930 . S
H2119 C2128 0.930 . S
H2120 C2133 0.929 1_655 S
H2121 C2131 0.929 . S
H2122 C2126 0.929 . S
H2123 C2132 0.929 . S
C2124 H2118 0.930 . S
C2124 C2125 1.391 . S
C2124 C2132 1.378 . S
C2125 C2124 1.391 . S
C2125 C2133 1.445 . S
C2126 H2122 0.929 . S
C2126 C2128 1.378 . S
C2126 C2130 1.350 . S
C2127 C2130 1.463 . S
C2127 C2132 1.350 . S
C2127 N2135 1.427 . S
C2128 H2119 0.930 . S
C2128 C2126 1.378 . S
C2128 C2129 1.367 . S
C2129 C2128 1.367 . S
C2129 C2131 1.433 . S
C2130 C2126 1.350 . S
C2130 C2127 1.463 . S
C2130 N2134 1.427 . S
C2131 H2121 0.929 . S
C2131 C2129 1.433 . S
C2131 N2134 1.384 . S
C2132 H2123 0.929 . S
C2132 C2124 1.378 . S
C2132 C2127 1.350 . S
C2133 H2120 0.929 1_455 S
C2133 C2125 1.445 . S
C2133 N2135 1.384 . S
N2134 C2130 1.427 . S
N2134 C2131 1.384 . S
N2135 C2127 1.427 . S
N2135 C2133 1.384 . S
H2136 C2142 0.930 . S
H2137 C2146 0.930 . S
H2138 C2151 0.929 . S
H2139 C2149 0.929 . S
H2140 C2144 0.929 . S
H2141 C2150 0.929 . S
C2142 H2136 0.930 . S
C2142 C2143 1.367 . S
C2142 C2150 1.378 . S
C2143 C2142 1.367 . S
C2143 C2151 1.433 . S
C2144 H2140 0.929 . S
C2144 C2146 1.378 . S
C2144 C2148 1.350 . S
C2145 C2148 1.463 . S
C2145 C2150 1.350 . S
C2145 N2153 1.427 . S
C2146 H2137 0.930 . S
C2146 C2144 1.378 . S
C2146 C2147 1.367 . S
C2147 C2146 1.367 . S
C2147 C2149 1.433 . S
C2148 C2144 1.350 . S
C2148 C2145 1.463 . S
C2148 N2152 1.427 . S
C2149 H2139 0.929 . S
C2149 C2147 1.433 . S
C2149 N2152 1.384 . S
C2150 H2141 0.929 . S
C2150 C2142 1.378 . S
C2150 C2145 1.350 . S
C2151 H2138 0.929 . S
C2151 C2143 1.433 . S
C2151 N2153 1.384 . S
N2152 C2148 1.427 . S
N2152 C2149 1.384 . S
N2153 C2145 1.427 . S
N2153 C2151 1.384 . S
H2154 C2160 0.930 . S
H2155 C2164 0.930 . S
H2156 C2169 0.929 . S
H2157 C2167 0.929 . S
H2158 C2162 0.929 . S
H2159 C2168 0.929 . S
C2160 H2154 0.930 . S
C2160 C2161 1.367 . S
C2160 C2168 1.378 . S
C2161 C2160 1.367 . S
C2161 C2169 1.433 . S
C2162 H2158 0.929 . S
C2162 C2164 1.378 . S
C2162 C2166 1.350 . S
C2163 C2166 1.463 . S
C2163 C2168 1.350 . S
C2163 N2171 1.427 . S
C2164 H2155 0.930 . S
C2164 C2162 1.378 . S
C2164 C2165 1.367 . S
C2165 C2164 1.367 . S
C2165 C2167 1.433 . S
C2166 C2162 1.350 . S
C2166 C2163 1.463 . S
C2166 N2170 1.427 . S
C2167 H2157 0.929 . S
C2167 C2165 1.433 . S
C2167 N2170 1.384 . S
C2168 H2159 0.929 . S
C2168 C2160 1.378 . S
C2168 C2163 1.350 . S
C2169 H2156 0.929 . S
C2169 C2161 1.433 . S
C2169 N2171 1.384 . S
N2170 C2166 1.427 . S
N2170 C2167 1.384 . S
N2171 C2163 1.427 . S
N2171 C2169 1.384 . S
H2172 C2178 0.930 . S
H2173 C2182 0.930 . S
H2174 C2187 0.929 . S
H2175 C2185 0.929 . S
H2176 C2180 0.929 . S
H2177 C2186 0.929 . S
C2178 H2172 0.930 . S
C2178 C2179 1.367 . S
C2178 C2186 1.378 . S
C2179 C2178 1.367 . S
C2179 C2187 1.433 . S
C2180 H2176 0.929 . S
C2180 C2182 1.378 . S
C2180 C2184 1.350 . S
C2181 C2184 1.463 . S
C2181 C2186 1.350 . S
C2181 N2189 1.427 . S
C2182 H2173 0.930 . S
C2182 C2180 1.378 . S
C2182 C2183 1.367 . S
C2183 C2182 1.367 . S
C2183 C2185 1.433 . S
C2184 C2180 1.350 . S
C2184 C2181 1.463 . S
C2184 N2188 1.427 . S
C2185 H2175 0.929 . S
C2185 C2183 1.433 . S
C2185 N2188 1.384 . S
C2186 H2177 0.929 . S
C2186 C2178 1.378 . S
C2186 C2181 1.350 . S
C2187 H2174 0.929 . S
C2187 C2179 1.433 . S
C2187 N2189 1.384 . S
N2188 C2184 1.427 . S
N2188 C2185 1.384 . S
N2189 C2181 1.427 . S
N2189 C2187 1.384 . S
H2190 C2196 0.930 . S
H2191 C2200 0.930 . S
H2192 C2205 0.929 . S
H2193 C2203 0.929 . S
H2194 C2198 0.929 . S
H2195 C2204 0.929 . S
C2196 H2190 0.930 . S
C2196 C2197 1.367 . S
C2196 C2204 1.378 . S
C2197 C2196 1.367 . S
C2197 C2205 1.433 . S
C2198 H2194 0.929 . S
C2198 C2200 1.378 . S
C2198 C2202 1.350 . S
C2199 C2202 1.463 . S
C2199 C2204 1.350 . S
C2199 N2207 1.427 . S
C2200 H2191 0.930 . S
C2200 C2198 1.378 . S
C2200 C2201 1.367 . S
C2201 C2200 1.367 . S
C2201 C2203 1.433 . S
C2202 C2198 1.350 . S
C2202 C2199 1.463 . S
C2202 N2206 1.427 . S
C2203 H2193 0.929 . S
C2203 C2201 1.433 . S
C2203 N2206 1.384 . S
C2204 H2195 0.929 . S
C2204 C2196 1.378 . S
C2204 C2199 1.350 . S
C2205 H2192 0.929 . S
C2205 C2197 1.433 . S
C2205 N2207 1.384 . S
N2206 C2202 1.427 . S
N2206 C2203 1.384 . S
N2207 C2199 1.427 . S
N2207 C2205 1.384 . S
H2208 C2214 0.930 . S
H2209 C2218 0.930 . S
H2210 C2223 0.929 . S
H2211 C2221 0.929 . S
H2212 C2216 0.929 . S
H2213 C2222 0.929 . S
C2214 H2208 0.930 . S
C2214 C2215 1.367 . S
C2214 C2222 1.378 . S
C2215 C2214 1.367 . S
C2215 C2223 1.433 . S
C2216 H2212 0.929 . S
C2216 C2218 1.378 . S
C2216 C2220 1.350 . S
C2217 C2220 1.463 . S
C2217 C2222 1.350 . S
C2217 N2225 1.427 . S
C2218 H2209 0.930 . S
C2218 C2216 1.378 . S
C2218 C2219 1.367 . S
C2219 C2218 1.367 . S
C2219 C2221 1.433 . S
C2220 C2216 1.350 . S
C2220 C2217 1.463 . S
C2220 N2224 1.427 . S
C2221 H2211 0.929 . S
C2221 C2219 1.433 . S
C2221 N2224 1.384 . S
C2222 H2213 0.929 . S
C2222 C2214 1.378 . S
C2222 C2217 1.350 . S
C2223 H2210 0.929 . S
C2223 C2215 1.433 . S
C2223 N2225 1.384 . S
N2224 C2220 1.427 . S
N2224 C2221 1.384 . S
N2225 C2217 1.427 . S
N2225 C2223 1.384 . S
H2226 C2232 0.930 . S
H2227 C2236 0.930 . S
H2228 C2241 0.929 . S
H2229 C2239 0.929 . S
H2230 C2234 0.929 1_545 S
H2231 C2240 0.929 . S
C2232 H2226 0.930 . S
C2232 C2233 1.367 . S
C2232 C2240 1.378 . S
C2233 C2232 1.367 . S
C2233 C2241 1.433 . S
C2234 H2230 0.929 1_565 S
C2234 C2236 1.378 1_565 S
C2234 C2238 1.350 . S
C2235 C2238 1.463 . S
C2235 C2240 1.350 . S
C2235 N2243 1.427 . S
C2236 H2227 0.930 . S
C2236 C2234 1.378 1_545 S
C2236 C2237 1.367 1_545 S
C2237 C2236 1.367 1_565 S
C2237 C2239 1.433 . S
C2238 C2234 1.350 . S
C2238 C2235 1.463 . S
C2238 N2242 1.427 . S
C2239 H2229 0.929 . S
C2239 C2237 1.433 . S
C2239 N2242 1.384 . S
C2240 H2231 0.929 . S
C2240 C2232 1.378 . S
C2240 C2235 1.350 . S
C2241 H2228 0.929 . S
C2241 C2233 1.433 . S
C2241 N2243 1.384 . S
N2242 C2238 1.427 . S
N2242 C2239 1.384 . S
N2243 C2235 1.427 . S
N2243 C2241 1.384 . S
H2244 C2250 0.930 . S
H2245 C2254 0.930 . S
H2246 C2259 0.929 . S
H2247 C2257 0.929 . S
H2248 C2252 0.929 . S
H2249 C2258 0.929 . S
C2250 H2244 0.930 . S
C2250 C2251 1.367 . S
C2250 C2258 1.378 . S
C2251 C2250 1.367 . S
C2251 C2259 1.433 . S
C2252 H2248 0.929 . S
C2252 C2254 1.378 . S
C2252 C2256 1.350 . S
C2253 C2256 1.463 . S
C2253 C2258 1.350 . S
C2253 N2261 1.427 . S
C2254 H2245 0.930 . S
C2254 C2252 1.378 . S
C2254 C2255 1.367 . S
C2255 C2254 1.367 . S
C2255 C2257 1.433 . S
C2256 C2252 1.350 . S
C2256 C2253 1.463 . S
C2256 N2260 1.427 . S
C2257 H2247 0.929 . S
C2257 C2255 1.433 . S
C2257 N2260 1.384 . S
C2258 H2249 0.929 . S
C2258 C2250 1.378 . S
C2258 C2253 1.350 . S
C2259 H2246 0.929 . S
C2259 C2251 1.433 . S
C2259 N2261 1.384 . S
N2260 C2256 1.427 . S
N2260 C2257 1.384 . S
N2261 C2253 1.427 . S
N2261 C2259 1.384 . S
H2262 C2268 0.930 . S
H2263 C2272 0.930 . S
H2264 C2277 0.929 . S
H2265 C2275 0.929 . S
H2266 C2270 0.929 . S
H2267 C2276 0.929 . S
C2268 H2262 0.930 . S
C2268 C2269 1.367 . S
C2268 C2276 1.378 . S
C2269 C2268 1.367 . S
C2269 C2277 1.433 . S
C2270 H2266 0.929 . S
C2270 C2272 1.378 . S
C2270 C2274 1.350 . S
C2271 C2274 1.463 . S
C2271 C2276 1.350 . S
C2271 N2279 1.427 . S
C2272 H2263 0.930 . S
C2272 C2270 1.378 . S
C2272 C2273 1.367 . S
C2273 C2272 1.367 . S
C2273 C2275 1.433 . S
C2274 C2270 1.350 . S
C2274 C2271 1.463 . S
C2274 N2278 1.427 . S
C2275 H2265 0.929 . S
C2275 C2273 1.433 . S
C2275 N2278 1.384 . S
C2276 H2267 0.929 . S
C2276 C2268 1.378 . S
C2276 C2271 1.350 . S
C2277 H2264 0.929 . S
C2277 C2269 1.433 . S
C2277 N2279 1.384 . S
N2278 C2274 1.427 . S
N2278 C2275 1.384 . S
N2279 C2271 1.427 . S
N2279 C2277 1.384 . S
H2280 C2286 0.930 . S
H2281 C2290 0.930 . S
H2282 C2295 0.929 . S
H2283 C2293 0.929 . S
H2284 C2288 0.929 . S
H2285 C2294 0.929 . S
C2286 H2280 0.930 . S
C2286 C2287 1.367 . S
C2286 C2294 1.378 . S
C2287 C2286 1.367 . S
C2287 C2295 1.433 . S
C2288 H2284 0.929 . S
C2288 C2290 1.378 . S
C2288 C2292 1.350 . S
C2289 C2292 1.463 . S
C2289 C2294 1.350 . S
C2289 N2297 1.427 . S
C2290 H2281 0.930 . S
C2290 C2288 1.378 . S
C2290 C2291 1.367 . S
C2291 C2290 1.367 . S
C2291 C2293 1.433 . S
C2292 C2288 1.350 . S
C2292 C2289 1.463 . S
C2292 N2296 1.427 . S
C2293 H2283 0.929 . S
C2293 C2291 1.433 . S
C2293 N2296 1.384 . S
C2294 H2285 0.929 . S
C2294 C2286 1.378 . S
C2294 C2289 1.350 . S
C2295 H2282 0.929 . S
C2295 C2287 1.433 . S
C2295 N2297 1.384 . S
N2296 C2292 1.427 . S
N2296 C2293 1.384 . S
N2297 C2289 1.427 . S
N2297 C2295 1.384 . S
H2298 C2304 0.930 . S
H2299 C2308 0.930 . S
H2300 C2313 0.929 . S
H2301 C2311 0.929 . S
H2302 C2306 0.929 . S
H2303 C2312 0.929 . S
C2304 H2298 0.930 . S
C2304 C2305 1.367 . S
C2304 C2312 1.378 . S
C2305 C2304 1.367 . S
C2305 C2313 1.433 . S
C2306 H2302 0.929 . S
C2306 C2308 1.378 . S
C2306 C2310 1.350 . S
C2307 C2310 1.463 . S
C2307 C2312 1.350 . S
C2307 N2315 1.427 . S
C2308 H2299 0.930 . S
C2308 C2306 1.378 . S
C2308 C2309 1.367 . S
C2309 C2308 1.367 . S
C2309 C2311 1.433 . S
C2310 C2306 1.350 . S
C2310 C2307 1.463 . S
C2310 N2314 1.427 . S
C2311 H2301 0.929 . S
C2311 C2309 1.433 . S
C2311 N2314 1.384 . S
C2312 H2303 0.929 . S
C2312 C2304 1.378 . S
C2312 C2307 1.350 . S
C2313 H2300 0.929 . S
C2313 C2305 1.433 . S
C2313 N2315 1.384 . S
N2314 C2310 1.427 . S
N2314 C2311 1.384 . S
N2315 C2307 1.427 . S
N2315 C2313 1.384 . S
H2316 C2322 0.930 . S
H2317 C2326 0.930 . S
H2318 C2331 0.929 . S
H2319 C2329 0.929 . S
H2320 C2324 0.929 . S
H2321 C2330 0.929 . S
C2322 H2316 0.930 . S
C2322 C2323 1.367 . S
C2322 C2330 1.378 . S
C2323 C2322 1.367 . S
C2323 C2331 1.433 . S
C2324 H2320 0.929 . S
C2324 C2326 1.378 . S
C2324 C2328 1.350 . S
C2325 C2328 1.463 . S
C2325 C2330 1.350 . S
C2325 N2333 1.427 . S
C2326 H2317 0.930 . S
C2326 C2324 1.378 . S
C2326 C2327 1.367 . S
C2327 C2326 1.367 . S
C2327 C2329 1.433 . S
C2328 C2324 1.350 . S
C2328 C2325 1.463 . S
C2328 N2332 1.427 . S
C2329 H2319 0.929 . S
C2329 C2327 1.433 . S
C2329 N2332 1.384 . S
C2330 H2321 0.929 . S
C2330 C2322 1.378 . S
C2330 C2325 1.350 . S
C2331 H2318 0.929 . S
C2331 C2323 1.433 . S
C2331 N2333 1.384 . S
N2332 C2328 1.427 . S
N2332 C2329 1.384 . S
N2333 C2325 1.427 . S
N2333 C2331 1.384 . S
H2334 C2340 0.930 . S
H2335 C2344 0.930 . S
H2336 C2349 0.929 . S
H2337 C2347 0.929 . S
H2338 C2342 0.929 . S
H2339 C2348 0.929 . S
C2340 H2334 0.930 . S
C2340 C2341 1.367 . S
C2340 C2348 1.378 . S
C2341 C2340 1.367 . S
C2341 C2349 1.433 . S
C2342 H2338 0.929 . S
C2342 C2344 1.378 . S
C2342 C2346 1.350 . S
C2343 C2346 1.463 . S
C2343 C2348 1.350 . S
C2343 N2351 1.427 . S
C2344 H2335 0.930 . S
C2344 C2342 1.378 . S
C2344 C2345 1.367 . S
C2345 C2344 1.367 . S
C2345 C2347 1.433 . S
C2346 C2342 1.350 . S
C2346 C2343 1.463 . S
C2346 N2350 1.427 . S
C2347 H2337 0.929 . S
C2347 C2345 1.433 . S
C2347 N2350 1.384 . S
C2348 H2339 0.929 . S
C2348 C2340 1.378 . S
C2348 C2343 1.350 . S
C2349 H2336 0.929 . S
C2349 C2341 1.433 . S
C2349 N2351 1.384 . S
N2350 C2346 1.427 . S
N2350 C2347 1.384 . S
N2351 C2343 1.427 . S
N2351 C2349 1.384 . S
H2352 C2358 0.930 . S
H2353 C2362 0.930 . S
H2354 C2367 0.929 . S
H2355 C2365 0.929 . S
H2356 C2360 0.929 . S
H2357 C2366 0.929 . S
C2358 H2352 0.930 . S
C2358 C2359 1.367 . S
C2358 C2366 1.378 . S
C2359 C2358 1.367 . S
C2359 C2367 1.433 . S
C2360 H2356 0.929 . S
C2360 C2362 1.378 . S
C2360 C2364 1.350 . S
C2361 C2364 1.463 . S
C2361 C2366 1.350 . S
C2361 N2369 1.427 . S
C2362 H2353 0.930 . S
C2362 C2360 1.378 . S
C2362 C2363 1.367 . S
C2363 C2362 1.367 . S
C2363 C2365 1.433 . S
C2364 C2360 1.350 . S
C2364 C2361 1.463 . S
C2364 N2368 1.427 . S
C2365 H2355 0.929 . S
C2365 C2363 1.433 . S
C2365 N2368 1.384 . S
C2366 H2357 0.929 . S
C2366 C2358 1.378 . S
C2366 C2361 1.350 . S
C2367 H2354 0.929 . S
C2367 C2359 1.433 . S
C2367 N2369 1.384 . S
N2368 C2364 1.427 . S
N2368 C2365 1.384 . S
N2369 C2361 1.427 . S
N2369 C2367 1.384 . S
H2370 C2376 0.930 . S
H2371 C2380 0.930 . S
H2372 C2385 0.929 . S
H2373 C2383 0.929 . S
H2374 C2378 0.929 . S
H2375 C2384 0.929 . S
C2376 H2370 0.930 . S
C2376 C2377 1.367 . S
C2376 C2384 1.378 . S
C2377 C2376 1.367 . S
C2377 C2385 1.433 . S
C2378 H2374 0.929 . S
C2378 C2380 1.378 . S
C2378 C2382 1.350 . S
C2379 C2382 1.463 . S
C2379 C2384 1.350 . S
C2379 N2387 1.427 . S
C2380 H2371 0.930 . S
C2380 C2378 1.378 . S
C2380 C2381 1.367 . S
C2381 C2380 1.367 . S
C2381 C2383 1.433 . S
C2382 C2378 1.350 . S
C2382 C2379 1.463 . S
C2382 N2386 1.427 . S
C2383 H2373 0.929 . S
C2383 C2381 1.433 . S
C2383 N2386 1.384 . S
C2384 H2375 0.929 . S
C2384 C2376 1.378 . S
C2384 C2379 1.350 . S
C2385 H2372 0.929 . S
C2385 C2377 1.433 . S
C2385 N2387 1.384 . S
N2386 C2382 1.427 . S
N2386 C2383 1.384 . S
N2387 C2379 1.427 . S
N2387 C2385 1.384 . S
H2388 C2394 0.930 1_565 S
H2389 C2398 0.930 . S
H2390 C2403 0.929 . S
H2391 C2401 0.929 . S
H2392 C2396 0.929 . S
H2393 C2402 0.929 . S
C2394 H2388 0.930 1_545 S
C2394 C2395 1.368 . S
C2394 C2402 1.378 . S
C2395 C2394 1.368 . S
C2395 C2403 1.453 . S
C2396 H2392 0.929 . S
C2396 C2398 1.378 . S
C2396 C2400 1.350 . S
C2397 C2400 1.463 . S
C2397 C2402 1.350 . S
C2397 N2405 1.427 . S
C2398 H2389 0.930 . S
C2398 C2396 1.378 . S
C2398 C2399 1.367 . S
C2399 C2398 1.367 . S
C2399 C2401 1.433 . S
C2400 C2396 1.350 . S
C2400 C2397 1.463 . S
C2400 N2404 1.427 . S
C2401 H2391 0.929 . S
C2401 C2399 1.433 . S
C2401 N2404 1.384 . S
C2402 H2393 0.929 . S
C2402 C2394 1.378 . S
C2402 C2397 1.350 . S
C2403 H2390 0.929 . S
C2403 C2395 1.453 . S
C2403 N2405 1.384 . S
N2404 C2400 1.427 . S
N2404 C2401 1.384 . S
N2405 C2397 1.427 . S
N2405 C2403 1.384 . S
H2406 C2412 0.930 . S
H2407 C2416 0.930 . S
H2408 C2421 0.929 . S
H2409 C2419 0.929 . S
H2410 C2414 0.929 . S
H2411 C2420 0.929 . S
C2412 H2406 0.930 . S
C2412 C2413 1.367 . S
C2412 C2420 1.378 . S
C2413 C2412 1.367 . S
C2413 C2421 1.433 . S
C2414 H2410 0.929 . S
C2414 C2416 1.378 . S
C2414 C2418 1.350 . S
C2415 C2418 1.463 . S
C2415 C2420 1.350 . S
C2415 N2423 1.427 . S
C2416 H2407 0.930 . S
C2416 C2414 1.378 . S
C2416 C2417 1.367 . S
C2417 C2416 1.367 . S
C2417 C2419 1.433 . S
C2418 C2414 1.350 . S
C2418 C2415 1.463 . S
C2418 N2422 1.427 . S
C2419 H2409 0.929 . S
C2419 C2417 1.433 . S
C2419 N2422 1.384 . S
C2420 H2411 0.929 . S
C2420 C2412 1.378 . S
C2420 C2415 1.350 . S
C2421 H2408 0.929 . S
C2421 C2413 1.433 . S
C2421 N2423 1.384 . S
N2422 C2418 1.427 . S
N2422 C2419 1.384 . S
N2423 C2415 1.427 . S
N2423 C2421 1.384 . S
H2424 C2430 0.930 . S
H2425 C2434 0.930 . S
H2426 C2439 0.929 . S
H2427 C2437 0.929 . S
H2428 C2432 0.929 . S
H2429 C2438 0.929 . S
C2430 H2424 0.930 . S
C2430 C2431 1.381 . S
C2430 C2438 1.378 . S
C2431 C2430 1.381 . S
C2431 C2439 1.450 1_455 S
C2432 H2428 0.929 . S
C2432 C2434 1.378 . S
C2432 C2436 1.350 . S
C2433 C2436 1.463 . S
C2433 C2438 1.350 . S
C2433 N2441 1.423 . S
C2434 H2425 0.930 . S
C2434 C2432 1.378 . S
C2434 C2435 1.367 . S
C2435 C2434 1.367 . S
C2435 C2437 1.433 . S
C2436 C2432 1.350 . S
C2436 C2433 1.463 . S
C2436 N2440 1.427 . S
C2437 H2427 0.929 . S
C2437 C2435 1.433 . S
C2437 N2440 1.384 . S
C2438 H2429 0.929 . S
C2438 C2430 1.378 . S
C2438 C2433 1.350 . S
C2439 H2426 0.929 . S
C2439 C2431 1.450 1_655 S
C2439 N2441 1.385 1_655 S
N2440 C2436 1.427 . S
N2440 C2437 1.384 . S
N2441 C2433 1.423 . S
N2441 C2439 1.385 1_455 S
H2442 C2448 0.930 . S
H2443 C2452 0.930 . S
H2444 C2457 0.929 . S
H2445 C2455 0.929 . S
H2446 C2450 0.929 . S
H2447 C2456 0.929 . S
C2448 H2442 0.930 . S
C2448 C2449 1.367 . S
C2448 C2456 1.378 . S
C2449 C2448 1.367 . S
C2449 C2457 1.433 . S
C2450 H2446 0.929 . S
C2450 C2452 1.378 . S
C2450 C2454 1.350 . S
C2451 C2454 1.463 . S
C2451 C2456 1.350 . S
C2451 N2459 1.427 . S
C2452 H2443 0.930 . S
C2452 C2450 1.378 . S
C2452 C2453 1.367 . S
C2453 C2452 1.367 . S
C2453 C2455 1.433 . S
C2454 C2450 1.350 . S
C2454 C2451 1.463 . S
C2454 N2458 1.427 . S
C2455 H2445 0.929 . S
C2455 C2453 1.433 . S
C2455 N2458 1.384 . S
C2456 H2447 0.929 . S
C2456 C2448 1.378 . S
C2456 C2451 1.350 . S
C2457 H2444 0.929 . S
C2457 C2449 1.433 . S
C2457 N2459 1.384 . S
N2458 C2454 1.427 . S
N2458 C2455 1.384 . S
N2459 C2451 1.427 . S
N2459 C2457 1.384 . S
H2460 C2466 0.930 . S
H2461 C2470 0.930 . S
H2462 C2475 0.929 . S
H2463 C2473 0.907 1_545 S
H2464 C2468 0.929 . S
H2465 C2474 0.929 . S
C2466 H2460 0.930 . S
C2466 C2467 1.367 . S
C2466 C2474 1.378 . S
C2467 C2466 1.367 . S
C2467 C2475 1.433 . S
C2468 H2464 0.929 . S
C2468 C2470 1.378 . S
C2468 C2472 1.350 . S
C2469 C2472 1.463 . S
C2469 C2474 1.350 . S
C2469 N2477 1.427 . S
C2470 H2461 0.930 . S
C2470 C2468 1.378 . S
C2470 C2471 1.389 . S
C2471 C2470 1.389 . S
C2471 C2473 1.446 . S
C2472 C2468 1.350 . S
C2472 C2469 1.463 . S
C2472 N2476 1.427 . S
C2473 H2463 0.907 1_565 S
C2473 C2471 1.446 . S
C2473 N2476 1.384 . S
C2474 H2465 0.929 . S
C2474 C2466 1.378 . S
C2474 C2469 1.350 . S
C2475 H2462 0.929 . S
C2475 C2467 1.433 . S
C2475 N2477 1.384 . S
N2476 C2472 1.427 . S
N2476 C2473 1.384 . S
N2477 C2469 1.427 . S
N2477 C2475 1.384 . S
H2478 C2484 0.930 . S
H2479 C2488 0.930 . S
H2480 C2493 0.929 . S
H2481 C2491 0.929 . S
H2482 C2486 0.929 . S
H2483 C2492 0.929 . S
C2484 H2478 0.930 . S
C2484 C2485 1.367 . S
C2484 C2492 1.378 . S
C2485 C2484 1.367 . S
C2485 C2493 1.433 . S
C2486 H2482 0.929 . S
C2486 C2488 1.378 . S
C2486 C2490 1.350 . S
C2487 C2490 1.463 . S
C2487 C2492 1.350 . S
C2487 N2495 1.427 . S
C2488 H2479 0.930 . S
C2488 C2486 1.378 . S
C2488 C2489 1.367 . S
C2489 C2488 1.367 . S
C2489 C2491 1.433 . S
C2490 C2486 1.350 . S
C2490 C2487 1.463 . S
C2490 N2494 1.427 . S
C2491 H2481 0.929 . S
C2491 C2489 1.433 . S
C2491 N2494 1.384 . S
C2492 H2483 0.929 . S
C2492 C2484 1.378 . S
C2492 C2487 1.350 . S
C2493 H2480 0.929 . S
C2493 C2485 1.433 . S
C2493 N2495 1.384 . S
N2494 C2490 1.427 . S
N2494 C2491 1.384 . S
N2495 C2487 1.427 . S
N2495 C2493 1.384 . S
H2496 C2502 0.930 . S
H2497 C2506 0.930 . S
H2498 C2511 0.929 . S
H2499 C2509 0.929 . S
H2500 C2504 0.929 . S
H2501 C2510 0.929 . S
C2502 H2496 0.930 . S
C2502 C2503 1.367 . S
C2502 C2510 1.378 . S
C2503 C2502 1.367 . S
C2503 C2511 1.433 . S
C2504 H2500 0.929 . S
C2504 C2506 1.378 . S
C2504 C2508 1.350 . S
C2505 C2508 1.463 1_455 S
C2505 C2510 1.350 . S
C2505 N2513 1.427 . S
C2506 H2497 0.930 . S
C2506 C2504 1.378 . S
C2506 C2507 1.367 . S
C2507 C2506 1.367 . S
C2507 C2509 1.433 . S
C2508 C2504 1.350 . S
C2508 C2505 1.463 1_655 S
C2508 N2512 1.427 . S
C2509 H2499 0.929 . S
C2509 C2507 1.433 . S
C2509 N2512 1.384 . S
C2510 H2501 0.929 . S
C2510 C2502 1.378 . S
C2510 C2505 1.350 . S
C2511 H2498 0.929 . S
C2511 C2503 1.433 . S
C2511 N2513 1.384 . S
N2512 C2508 1.427 . S
N2512 C2509 1.384 . S
N2513 C2505 1.427 . S
N2513 C2511 1.384 . S
H2514 C2520 0.930 . S
H2515 C2524 0.930 . S
H2516 C2529 0.929 . S
H2517 C2527 0.929 . S
H2518 C2522 0.929 . S
H2519 C2528 0.929 . S
C2520 H2514 0.930 . S
C2520 C2521 1.367 . S
C2520 C2528 1.378 . S
C2521 C2520 1.367 . S
C2521 C2529 1.433 . S
C2522 H2518 0.929 . S
C2522 C2524 1.378 . S
C2522 C2526 1.350 . S
C2523 C2526 1.463 . S
C2523 C2528 1.350 . S
C2523 N2531 1.427 . S
C2524 H2515 0.930 . S
C2524 C2522 1.378 . S
C2524 C2525 1.367 . S
C2525 C2524 1.367 . S
C2525 C2527 1.433 . S
C2526 C2522 1.350 . S
C2526 C2523 1.463 . S
C2526 N2530 1.427 . S
C2527 H2517 0.929 . S
C2527 C2525 1.433 . S
C2527 N2530 1.384 . S
C2528 H2519 0.929 . S
C2528 C2520 1.378 . S
C2528 C2523 1.350 . S
C2529 H2516 0.929 . S
C2529 C2521 1.433 . S
C2529 N2531 1.384 . S
N2530 C2526 1.427 . S
N2530 C2527 1.384 . S
N2531 C2523 1.427 . S
N2531 C2529 1.384 . S
H2532 C2538 0.930 . S
H2533 C2542 0.930 . S
H2534 C2547 0.929 . S
H2535 C2545 0.929 . S
H2536 C2540 0.929 . S
H2537 C2546 0.929 . S
C2538 H2532 0.930 . S
C2538 C2539 1.367 . S
C2538 C2546 1.378 . S
C2539 C2538 1.367 . S
C2539 C2547 1.433 . S
C2540 H2536 0.929 . S
C2540 C2542 1.378 . S
C2540 C2544 1.350 . S
C2541 C2544 1.463 1_655 S
C2541 C2546 1.350 . S
C2541 N2549 1.427 . S
C2542 H2533 0.930 . S
C2542 C2540 1.378 . S
C2542 C2543 1.367 . S
C2543 C2542 1.367 . S
C2543 C2545 1.433 . S
C2544 C2540 1.350 . S
C2544 C2541 1.463 1_455 S
C2544 N2548 1.427 . S
C2545 H2535 0.929 . S
C2545 C2543 1.433 . S
C2545 N2548 1.384 . S
C2546 H2537 0.929 . S
C2546 C2538 1.378 . S
C2546 C2541 1.350 . S
C2547 H2534 0.929 . S
C2547 C2539 1.433 . S
C2547 N2549 1.384 . S
N2548 C2544 1.427 . S
N2548 C2545 1.384 . S
N2549 C2541 1.427 . S
N2549 C2547 1.384 . S
H2550 C2556 0.930 . S
H2551 C2560 0.930 . S
H2552 C2565 0.929 . S
H2553 C2563 0.929 . S
H2554 C2558 0.929 . S
H2555 C2564 0.929 . S
C2556 H2550 0.930 . S
C2556 C2557 1.367 . S
C2556 C2564 1.378 . S
C2557 C2556 1.367 . S
C2557 C2565 1.433 . S
C2558 H2554 0.929 . S
C2558 C2560 1.378 . S
C2558 C2562 1.350 . S
C2559 C2562 1.463 1_655 S
C2559 C2564 1.350 . S
C2559 N2567 1.427 1_655 S
C2560 H2551 0.930 . S
C2560 C2558 1.378 . S
C2560 C2561 1.367 . S
C2561 C2560 1.367 . S
C2561 C2563 1.433 . S
C2562 C2558 1.350 . S
C2562 C2559 1.463 1_455 S
C2562 N2566 1.427 1_455 S
C2563 H2553 0.929 . S
C2563 C2561 1.433 . S
C2563 N2566 1.384 1_455 S
C2564 H2555 0.929 . S
C2564 C2556 1.378 . S
C2564 C2559 1.350 . S
C2565 H2552 0.929 . S
C2565 C2557 1.433 . S
C2565 N2567 1.384 1_655 S
N2566 C2562 1.427 1_655 S
N2566 C2563 1.384 1_655 S
N2567 C2559 1.427 1_455 S
N2567 C2565 1.384 1_455 S
H2568 C2574 0.930 . S
H2569 C2578 0.930 . S
H2570 C2583 0.929 . S
H2571 C2581 0.929 . S
H2572 C2576 0.929 . S
H2573 C2582 0.929 . S
C2574 H2568 0.930 . S
C2574 C2575 1.367 . S
C2574 C2582 1.378 . S
C2575 C2574 1.367 . S
C2575 C2583 1.433 . S
C2576 H2572 0.929 . S
C2576 C2578 1.378 . S
C2576 C2580 1.350 . S
C2577 C2580 1.463 1_565 S
C2577 C2582 1.350 . S
C2577 N2585 1.427 . S
C2578 H2569 0.930 . S
C2578 C2576 1.378 . S
C2578 C2579 1.367 . S
C2579 C2578 1.367 . S
C2579 C2581 1.433 . S
C2580 C2576 1.350 . S
C2580 C2577 1.463 1_545 S
C2580 N2584 1.427 . S
C2581 H2571 0.929 . S
C2581 C2579 1.433 . S
C2581 N2584 1.384 . S
C2582 H2573 0.929 . S
C2582 C2574 1.378 . S
C2582 C2577 1.350 . S
C2583 H2570 0.929 . S
C2583 C2575 1.433 . S
C2583 N2585 1.384 . S
N2584 C2580 1.427 . S
N2584 C2581 1.384 . S
N2585 C2577 1.427 . S
N2585 C2583 1.384 . S
H2586 C2592 0.930 . S
H2587 C2596 0.930 . S
H2588 C2601 0.929 . S
H2589 C2599 0.929 . S
H2590 C2594 0.929 . S
H2591 C2600 0.929 . S
C2592 H2586 0.930 . S
C2592 C2593 1.367 . S
C2592 C2600 1.378 . S
C2593 C2592 1.367 . S
C2593 C2601 1.433 . S
C2594 H2590 0.929 . S
C2594 C2596 1.378 . S
C2594 C2598 1.350 . S
C2595 C2598 1.463 1_556 S
C2595 C2600 1.350 . S
C2595 N2603 1.427 . S
C2596 H2587 0.930 . S
C2596 C2594 1.378 . S
C2596 C2597 1.367 . S
C2597 C2596 1.367 . S
C2597 C2599 1.433 . S
C2598 C2594 1.350 . S
C2598 C2595 1.463 1_554 S
C2598 N2602 1.427 . S
C2599 H2589 0.929 . S
C2599 C2597 1.433 . S
C2599 N2602 1.384 . S
C2600 H2591 0.929 . S
C2600 C2592 1.378 . S
C2600 C2595 1.350 . S
C2601 H2588 0.929 . S
C2601 C2593 1.433 . S
C2601 N2603 1.384 . S
N2602 C2598 1.427 . S
N2602 C2599 1.384 . S
N2603 C2595 1.427 . S
N2603 C2601 1.384 . S
H2604 C2610 0.930 . S
H2605 C2614 0.930 . S
H2606 C2619 0.929 . S
H2607 C2617 0.929 . S
H2608 C2612 0.929 . S
H2609 C2618 0.929 . S
C2610 H2604 0.930 . S
C2610 C2611 1.367 . S
C2610 C2618 1.378 . S
C2611 C2610 1.367 . S
C2611 C2619 1.433 . S
C2612 H2608 0.929 . S
C2612 C2614 1.378 . S
C2612 C2616 1.350 . S
C2613 C2616 1.463 . S
C2613 C2618 1.350 . S
C2613 N2621 1.427 . S
C2614 H2605 0.930 . S
C2614 C2612 1.378 . S
C2614 C2615 1.367 . S
C2615 C2614 1.367 . S
C2615 C2617 1.433 . S
C2616 C2612 1.350 . S
C2616 C2613 1.463 . S
C2616 N2620 1.427 . S
C2617 H2607 0.929 . S
C2617 C2615 1.433 . S
C2617 N2620 1.384 . S
C2618 H2609 0.929 . S
C2618 C2610 1.378 . S
C2618 C2613 1.350 . S
C2619 H2606 0.929 . S
C2619 C2611 1.433 . S
C2619 N2621 1.384 . S
N2620 C2616 1.427 . S
N2620 C2617 1.384 . S
N2621 C2613 1.427 . S
N2621 C2619 1.384 . S
H2622 C2628 0.930 . S
H2623 C2632 0.930 . S
H2624 C2637 0.929 . S
H2625 C2635 0.929 . S
H2626 C2630 0.929 . S
H2627 C2636 0.929 . S
C2628 H2622 0.930 . S
C2628 C2629 1.367 . S
C2628 C2636 1.378 . S
C2629 C2628 1.367 . S
C2629 C2637 1.433 . S
C2630 H2626 0.929 . S
C2630 C2632 1.378 . S
C2630 C2634 1.350 . S
C2631 C2634 1.463 1_554 S
C2631 C2636 1.350 . S
C2631 N2639 1.427 . S
C2632 H2623 0.930 . S
C2632 C2630 1.378 . S
C2632 C2633 1.367 . S
C2633 C2632 1.367 . S
C2633 C2635 1.433 . S
C2634 C2630 1.350 . S
C2634 C2631 1.463 1_556 S
C2634 N2638 1.427 . S
C2635 H2625 0.929 . S
C2635 C2633 1.433 . S
C2635 N2638 1.384 . S
C2636 H2627 0.929 . S
C2636 C2628 1.378 . S
C2636 C2631 1.350 . S
C2637 H2624 0.929 . S
C2637 C2629 1.433 . S
C2637 N2639 1.384 . S
N2638 C2634 1.427 . S
N2638 C2635 1.384 . S
N2639 C2631 1.427 . S
N2639 C2637 1.384 . S
H2640 C2646 0.930 . S
H2641 C2650 0.930 . S
H2642 C2655 0.929 . S
H2643 C2653 0.929 . S
H2644 C2648 0.929 . S
H2645 C2654 0.929 . S
C2646 H2640 0.930 . S
C2646 C2647 1.367 . S
C2646 C2654 1.378 . S
C2647 C2646 1.367 . S
C2647 C2655 1.433 . S
C2648 H2644 0.929 . S
C2648 C2650 1.378 . S
C2648 C2652 1.350 . S
C2649 C2652 1.463 1_556 S
C2649 C2654 1.350 . S
C2649 N2657 1.427 . S
C2650 H2641 0.930 . S
C2650 C2648 1.378 . S
C2650 C2651 1.367 . S
C2651 C2650 1.367 . S
C2651 C2653 1.433 . S
C2652 C2648 1.350 . S
C2652 C2649 1.463 1_554 S
C2652 N2656 1.427 . S
C2653 H2643 0.929 . S
C2653 C2651 1.433 . S
C2653 N2656 1.384 . S
C2654 H2645 0.929 . S
C2654 C2646 1.378 . S
C2654 C2649 1.350 . S
C2655 H2642 0.929 . S
C2655 C2647 1.433 . S
C2655 N2657 1.384 . S
N2656 C2652 1.427 . S
N2656 C2653 1.384 . S
N2657 C2649 1.427 . S
N2657 C2655 1.384 . S
H2658 C2664 0.930 . S
H2659 C2668 0.930 . S
H2660 C2673 0.929 . S
H2661 C2671 0.929 . S
H2662 C2666 0.929 . S
H2663 C2672 0.929 . S
C2664 H2658 0.930 . S
C2664 C2665 1.367 . S
C2664 C2672 1.378 . S
C2665 C2664 1.367 . S
C2665 C2673 1.433 . S
C2666 H2662 0.929 . S
C2666 C2668 1.378 . S
C2666 C2670 1.350 . S
C2667 C2670 1.463 . S
C2667 C2672 1.350 . S
C2667 N2675 1.427 . S
C2668 H2659 0.930 . S
C2668 C2666 1.378 . S
C2668 C2669 1.367 . S
C2669 C2668 1.367 . S
C2669 C2671 1.433 . S
C2670 C2666 1.350 . S
C2670 C2667 1.463 . S
C2670 N2674 1.427 . S
C2671 H2661 0.929 . S
C2671 C2669 1.433 . S
C2671 N2674 1.384 . S
C2672 H2663 0.929 . S
C2672 C2664 1.378 . S
C2672 C2667 1.350 . S
C2673 H2660 0.929 . S
C2673 C2665 1.433 . S
C2673 N2675 1.384 . S
N2674 C2670 1.427 . S
N2674 C2671 1.384 . S
N2675 C2667 1.427 . S
N2675 C2673 1.384 . S
H2676 C2682 0.930 . S
H2677 C2686 0.930 . S
H2678 C2691 0.929 . S
H2679 C2689 0.929 . S
H2680 C2684 0.929 . S
H2681 C2690 0.929 . S
C2682 H2676 0.930 . S
C2682 C2683 1.367 . S
C2682 C2690 1.378 . S
C2683 C2682 1.367 . S
C2683 C2691 1.433 . S
C2684 H2680 0.929 . S
C2684 C2686 1.378 . S
C2684 C2688 1.350 . S
C2685 C2688 1.463 . S
C2685 C2690 1.350 . S
C2685 N2693 1.427 . S
C2686 H2677 0.930 . S
C2686 C2684 1.378 . S
C2686 C2687 1.367 . S
C2687 C2686 1.367 . S
C2687 C2689 1.433 . S
C2688 C2684 1.350 . S
C2688 C2685 1.463 . S
C2688 N2692 1.427 . S
C2689 H2679 0.929 . S
C2689 C2687 1.433 . S
C2689 N2692 1.384 . S
C2690 H2681 0.929 . S
C2690 C2682 1.378 . S
C2690 C2685 1.350 . S
C2691 H2678 0.929 . S
C2691 C2683 1.433 . S
C2691 N2693 1.384 . S
N2692 C2688 1.427 . S
N2692 C2689 1.384 . S
N2693 C2685 1.427 . S
N2693 C2691 1.384 . S
H2694 C2700 0.930 . S
H2695 C2704 0.930 . S
H2696 C2709 0.929 . S
H2697 C2707 0.929 . S
H2698 C2702 0.929 . S
H2699 C2708 0.929 . S
C2700 H2694 0.930 . S
C2700 C2701 1.367 . S
C2700 C2708 1.378 . S
C2701 C2700 1.367 . S
C2701 C2709 1.433 . S
C2702 H2698 0.929 . S
C2702 C2704 1.378 . S
C2702 C2706 1.350 . S
C2703 C2706 1.463 . S
C2703 C2708 1.350 . S
C2703 N2711 1.427 . S
C2704 H2695 0.930 . S
C2704 C2702 1.378 . S
C2704 C2705 1.367 . S
C2705 C2704 1.367 . S
C2705 C2707 1.433 . S
C2706 C2702 1.350 . S
C2706 C2703 1.463 . S
C2706 N2710 1.427 . S
C2707 H2697 0.929 . S
C2707 C2705 1.433 . S
C2707 N2710 1.384 . S
C2708 H2699 0.929 . S
C2708 C2700 1.378 . S
C2708 C2703 1.350 . S
C2709 H2696 0.929 . S
C2709 C2701 1.433 . S
C2709 N2711 1.384 . S
N2710 C2706 1.427 . S
N2710 C2707 1.384 . S
N2711 C2703 1.427 . S
N2711 C2709 1.384 . S
H2712 C2718 0.930 . S
H2713 C2722 0.930 . S
H2714 C2727 0.929 . S
H2715 C2725 0.929 . S
H2716 C2720 0.929 . S
H2717 C2726 0.929 . S
C2718 H2712 0.930 . S
C2718 C2719 1.367 . S
C2718 C2726 1.378 . S
C2719 C2718 1.367 . S
C2719 C2727 1.433 . S
C2720 H2716 0.929 . S
C2720 C2722 1.378 . S
C2720 C2724 1.350 . S
C2721 C2724 1.463 . S
C2721 C2726 1.350 . S
C2721 N2729 1.427 . S
C2722 H2713 0.930 . S
C2722 C2720 1.378 . S
C2722 C2723 1.367 . S
C2723 C2722 1.367 . S
C2723 C2725 1.433 . S
C2724 C2720 1.350 . S
C2724 C2721 1.463 . S
C2724 N2728 1.427 . S
C2725 H2715 0.929 . S
C2725 C2723 1.433 . S
C2725 N2728 1.384 . S
C2726 H2717 0.929 . S
C2726 C2718 1.378 . S
C2726 C2721 1.350 . S
C2727 H2714 0.929 . S
C2727 C2719 1.433 . S
C2727 N2729 1.384 . S
N2728 C2724 1.427 . S
N2728 C2725 1.384 . S
N2729 C2721 1.427 . S
N2729 C2727 1.384 . S
H2730 C2736 0.930 . S
H2731 C2740 0.930 . S
H2732 C2745 0.929 . S
H2733 C2743 0.929 . S
H2734 C2738 0.929 . S
H2735 C2744 0.929 . S
C2736 H2730 0.930 . S
C2736 C2737 1.367 . S
C2736 C2744 1.378 . S
C2737 C2736 1.367 . S
C2737 C2745 1.433 . S
C2738 H2734 0.929 . S
C2738 C2740 1.378 . S
C2738 C2742 1.350 . S
C2739 C2742 1.463 1_545 S
C2739 C2744 1.350 . S
C2739 N2747 1.427 1_545 S
C2740 H2731 0.930 . S
C2740 C2738 1.378 . S
C2740 C2741 1.367 . S
C2741 C2740 1.367 . S
C2741 C2743 1.433 . S
C2742 C2738 1.350 . S
C2742 C2739 1.463 1_565 S
C2742 N2746 1.427 1_565 S
C2743 H2733 0.929 . S
C2743 C2741 1.433 . S
C2743 N2746 1.384 1_565 S
C2744 H2735 0.929 . S
C2744 C2736 1.378 . S
C2744 C2739 1.350 . S
C2745 H2732 0.929 . S
C2745 C2737 1.433 . S
C2745 N2747 1.384 1_545 S
N2746 C2742 1.427 1_545 S
N2746 C2743 1.384 1_545 S
N2747 C2739 1.427 1_565 S
N2747 C2745 1.384 1_565 S
H2748 C2754 0.930 . S
H2749 C2758 0.930 . S
H2750 C2763 0.929 . S
H2751 C2761 0.929 . S
H2752 C2756 0.929 . S
H2753 C2762 0.929 . S
C2754 H2748 0.930 . S
C2754 C2755 1.367 . S
C2754 C2762 1.378 . S
C2755 C2754 1.367 . S
C2755 C2763 1.433 . S
C2756 H2752 0.929 . S
C2756 C2758 1.378 . S
C2756 C2760 1.350 . S
C2757 C2760 1.463 . S
C2757 C2762 1.350 . S
C2757 N2765 1.427 . S
C2758 H2749 0.930 . S
C2758 C2756 1.378 . S
C2758 C2759 1.367 . S
C2759 C2758 1.367 . S
C2759 C2761 1.433 . S
C2760 C2756 1.350 . S
C2760 C2757 1.463 . S
C2760 N2764 1.427 . S
C2761 H2751 0.929 . S
C2761 C2759 1.433 . S
C2761 N2764 1.384 . S
C2762 H2753 0.929 . S
C2762 C2754 1.378 . S
C2762 C2757 1.350 . S
C2763 H2750 0.929 . S
C2763 C2755 1.433 . S
C2763 N2765 1.384 . S
N2764 C2760 1.427 . S
N2764 C2761 1.384 . S
N2765 C2757 1.427 . S
N2765 C2763 1.384 . S
H2766 C2772 0.930 . S
H2767 C2776 0.930 . S
H2768 C2781 0.929 . S
H2769 C2779 0.929 . S
H2770 C2774 0.929 . S
H2771 C2780 0.929 . S
C2772 H2766 0.930 . S
C2772 C2773 1.367 . S
C2772 C2780 1.377 1_655 S
C2773 C2772 1.367 . S
C2773 C2781 1.433 . S
C2774 H2770 0.929 . S
C2774 C2776 1.377 1_655 S
C2774 C2778 1.350 1_655 S
C2775 C2778 1.463 1_655 S
C2775 C2780 1.350 1_655 S
C2775 N2783 1.427 . S
C2776 H2767 0.930 . S
C2776 C2774 1.377 1_455 S
C2776 C2777 1.367 . S
C2777 C2776 1.367 . S
C2777 C2779 1.433 . S
C2778 C2774 1.350 1_455 S
C2778 C2775 1.463 1_455 S
C2778 N2782 1.427 . S
C2779 H2769 0.929 . S
C2779 C2777 1.433 . S
C2779 N2782 1.384 . S
C2780 H2771 0.929 . S
C2780 C2772 1.377 1_455 S
C2780 C2775 1.350 1_455 S
C2781 H2768 0.929 . S
C2781 C2773 1.433 . S
C2781 N2783 1.384 . S
N2782 C2778 1.427 . S
N2782 C2779 1.384 . S
N2783 C2775 1.427 . S
N2783 C2781 1.384 . S
H2784 C2790 0.930 . S
H2785 C2794 0.930 . S
H2786 C2799 0.929 . S
H2787 C2797 0.929 . S
H2788 C2792 0.929 . S
H2789 C2798 0.929 . S
C2790 H2784 0.930 . S
C2790 C2791 1.367 . S
C2790 C2798 1.378 . S
C2791 C2790 1.367 . S
C2791 C2799 1.433 . S
C2792 H2788 0.929 . S
C2792 C2794 1.378 . S
C2792 C2796 1.350 . S
C2793 C2796 1.463 . S
C2793 C2798 1.350 . S
C2793 N2801 1.427 . S
C2794 H2785 0.930 . S
C2794 C2792 1.378 . S
C2794 C2795 1.367 . S
C2795 C2794 1.367 . S
C2795 C2797 1.433 . S
C2796 C2792 1.350 . S
C2796 C2793 1.463 . S
C2796 N2800 1.427 . S
C2797 H2787 0.929 . S
C2797 C2795 1.433 . S
C2797 N2800 1.384 . S
C2798 H2789 0.929 . S
C2798 C2790 1.378 . S
C2798 C2793 1.350 . S
C2799 H2786 0.929 . S
C2799 C2791 1.433 . S
C2799 N2801 1.384 . S
N2800 C2796 1.427 . S
N2800 C2797 1.384 . S
N2801 C2793 1.427 . S
N2801 C2799 1.384 . S
H2802 C2808 0.930 . S
H2803 C2812 0.930 . S
H2804 C2817 0.929 . S
H2805 C2815 0.929 . S
H2806 C2810 0.929 . S
H2807 C2816 0.929 . S
C2808 H2802 0.930 . S
C2808 C2809 1.367 . S
C2808 C2816 1.378 . S
C2809 C2808 1.367 . S
C2809 C2817 1.433 . S
C2810 H2806 0.929 . S
C2810 C2812 1.378 . S
C2810 C2814 1.350 . S
C2811 C2814 1.463 . S
C2811 C2816 1.350 . S
C2811 N2819 1.427 . S
C2812 H2803 0.930 . S
C2812 C2810 1.378 . S
C2812 C2813 1.367 . S
C2813 C2812 1.367 . S
C2813 C2815 1.433 . S
C2814 C2810 1.350 . S
C2814 C2811 1.463 . S
C2814 N2818 1.427 . S
C2815 H2805 0.929 . S
C2815 C2813 1.433 . S
C2815 N2818 1.384 . S
C2816 H2807 0.929 . S
C2816 C2808 1.378 . S
C2816 C2811 1.350 . S
C2817 H2804 0.929 . S
C2817 C2809 1.433 . S
C2817 N2819 1.384 . S
N2818 C2814 1.427 . S
N2818 C2815 1.384 . S
N2819 C2811 1.427 . S
N2819 C2817 1.384 . S
H2820 C2826 0.930 . S
H2821 C2830 0.930 . S
H2822 C2835 0.929 . S
H2823 C2833 0.929 . S
H2824 C2828 0.929 . S
H2825 C2834 0.929 . S
C2826 H2820 0.930 . S
C2826 C2827 1.367 . S
C2826 C2834 1.378 . S
C2827 C2826 1.367 . S
C2827 C2835 1.433 . S
C2828 H2824 0.929 . S
C2828 C2830 1.378 . S
C2828 C2832 1.350 . S
C2829 C2832 1.463 . S
C2829 C2834 1.350 . S
C2829 N2837 1.427 . S
C2830 H2821 0.930 . S
C2830 C2828 1.378 . S
C2830 C2831 1.367 . S
C2831 C2830 1.367 . S
C2831 C2833 1.433 . S
C2832 C2828 1.350 . S
C2832 C2829 1.463 . S
C2832 N2836 1.427 . S
C2833 H2823 0.929 . S
C2833 C2831 1.433 . S
C2833 N2836 1.384 . S
C2834 H2825 0.929 . S
C2834 C2826 1.378 . S
C2834 C2829 1.350 . S
C2835 H2822 0.929 . S
C2835 C2827 1.433 . S
C2835 N2837 1.384 . S
N2836 C2832 1.427 . S
N2836 C2833 1.384 . S
N2837 C2829 1.427 . S
N2837 C2835 1.384 . S
H2838 C2844 0.930 . S
H2839 C2848 0.930 . S
H2840 C2853 0.929 . S
H2841 C2851 0.929 . S
H2842 C2846 0.929 . S
H2843 C2852 0.929 . S
C2844 H2838 0.930 . S
C2844 C2845 1.367 . S
C2844 C2852 1.378 . S
C2845 C2844 1.367 . S
C2845 C2853 1.433 . S
C2846 H2842 0.929 . S
C2846 C2848 1.378 . S
C2846 C2850 1.350 . S
C2847 C2850 1.463 . S
C2847 C2852 1.350 . S
C2847 N2855 1.427 . S
C2848 H2839 0.930 . S
C2848 C2846 1.378 . S
C2848 C2849 1.367 . S
C2849 C2848 1.367 . S
C2849 C2851 1.433 . S
C2850 C2846 1.350 . S
C2850 C2847 1.463 . S
C2850 N2854 1.427 . S
C2851 H2841 0.929 . S
C2851 C2849 1.433 . S
C2851 N2854 1.384 . S
C2852 H2843 0.929 . S
C2852 C2844 1.378 . S
C2852 C2847 1.350 . S
C2853 H2840 0.929 . S
C2853 C2845 1.433 . S
C2853 N2855 1.384 . S
N2854 C2850 1.427 . S
N2854 C2851 1.384 . S
N2855 C2847 1.427 . S
N2855 C2853 1.384 . S
H2856 C2862 0.930 . S
H2857 C2866 0.930 . S
H2858 C2871 0.929 . S
H2859 C2869 0.929 . S
H2860 C2864 0.930 1_565 S
H2861 C2870 0.930 1_545 S
C2862 H2856 0.930 . S
C2862 C2863 1.367 . S
C2862 C2870 1.378 . S
C2863 C2862 1.367 . S
C2863 C2871 1.433 . S
C2864 H2860 0.930 1_545 S
C2864 C2866 1.378 . S
C2864 C2868 1.350 . S
C2865 C2868 1.463 1_565 S
C2865 C2870 1.350 . S
C2865 N2873 1.427 . S
C2866 H2857 0.930 . S
C2866 C2864 1.378 . S
C2866 C2867 1.367 . S
C2867 C2866 1.367 . S
C2867 C2869 1.433 . S
C2868 C2864 1.350 . S
C2868 C2865 1.463 1_545 S
C2868 N2872 1.427 . S
C2869 H2859 0.929 . S
C2869 C2867 1.433 . S
C2869 N2872 1.384 . S
C2870 H2861 0.930 1_565 S
C2870 C2862 1.378 . S
C2870 C2865 1.350 . S
C2871 H2858 0.929 . S
C2871 C2863 1.433 . S
C2871 N2873 1.384 . S
N2872 C2868 1.427 . S
N2872 C2869 1.384 . S
N2873 C2865 1.427 . S
N2873 C2871 1.384 . S
H2874 C2880 0.930 . S
H2875 C2884 0.930 . S
H2876 C2889 0.929 . S
H2877 C2887 0.929 . S
H2878 C2882 0.929 . S
H2879 C2888 0.929 . S
C2880 H2874 0.930 . S
C2880 C2881 1.367 . S
C2880 C2888 1.378 . S
C2881 C2880 1.367 . S
C2881 C2889 1.433 . S
C2882 H2878 0.929 . S
C2882 C2884 1.378 . S
C2882 C2886 1.350 . S
C2883 C2886 1.463 . S
C2883 C2888 1.350 . S
C2883 N2891 1.427 . S
C2884 H2875 0.930 . S
C2884 C2882 1.378 . S
C2884 C2885 1.367 . S
C2885 C2884 1.367 . S
C2885 C2887 1.433 . S
C2886 C2882 1.350 . S
C2886 C2883 1.463 . S
C2886 N2890 1.427 . S
C2887 H2877 0.929 . S
C2887 C2885 1.433 . S
C2887 N2890 1.384 . S
C2888 H2879 0.929 . S
C2888 C2880 1.378 . S
C2888 C2883 1.350 . S
C2889 H2876 0.929 . S
C2889 C2881 1.433 . S
C2889 N2891 1.384 . S
N2890 C2886 1.427 . S
N2890 C2887 1.384 . S
N2891 C2883 1.427 . S
N2891 C2889 1.384 . S
H2892 C2898 0.930 . S
H2893 C2902 0.930 . S
H2894 C2907 0.929 . S
H2895 C2905 0.929 . S
H2896 C2900 0.929 . S
H2897 C2906 0.929 . S
C2898 H2892 0.930 . S
C2898 C2899 1.367 . S
C2898 C2906 1.378 . S
C2899 C2898 1.367 . S
C2899 C2907 1.433 . S
C2900 H2896 0.929 . S
C2900 C2902 1.378 . S
C2900 C2904 1.350 . S
C2901 C2904 1.463 1_554 S
C2901 C2906 1.350 . S
C2901 N2909 1.427 . S
C2902 H2893 0.930 . S
C2902 C2900 1.378 . S
C2902 C2903 1.367 . S
C2903 C2902 1.367 . S
C2903 C2905 1.433 . S
C2904 C2900 1.350 . S
C2904 C2901 1.463 1_556 S
C2904 N2908 1.427 . S
C2905 H2895 0.929 . S
C2905 C2903 1.433 . S
C2905 N2908 1.384 . S
C2906 H2897 0.929 . S
C2906 C2898 1.378 . S
C2906 C2901 1.350 . S
C2907 H2894 0.929 . S
C2907 C2899 1.433 . S
C2907 N2909 1.384 . S
N2908 C2904 1.427 . S
N2908 C2905 1.384 . S
N2909 C2901 1.427 . S
N2909 C2907 1.384 . S
H2910 C2916 0.930 . S
H2911 C2920 0.930 . S
H2912 C2925 0.929 . S
H2913 C2923 0.929 . S
H2914 C2918 0.929 . S
H2915 C2924 0.929 . S
C2916 H2910 0.930 . S
C2916 C2917 1.367 . S
C2916 C2924 1.378 . S
C2917 C2916 1.367 . S
C2917 C2925 1.433 . S
C2918 H2914 0.929 . S
C2918 C2920 1.378 . S
C2918 C2922 1.350 . S
C2919 C2922 1.463 1_565 S
C2919 C2924 1.350 . S
C2919 N2927 1.427 1_565 S
C2920 H2911 0.930 . S
C2920 C2918 1.378 . S
C2920 C2921 1.367 . S
C2921 C2920 1.367 . S
C2921 C2923 1.433 . S
C2922 C2918 1.350 . S
C2922 C2919 1.463 1_545 S
C2922 N2926 1.427 1_545 S
C2923 H2913 0.929 . S
C2923 C2921 1.433 . S
C2923 N2926 1.384 1_545 S
C2924 H2915 0.929 . S
C2924 C2916 1.378 . S
C2924 C2919 1.350 . S
C2925 H2912 0.929 . S
C2925 C2917 1.433 . S
C2925 N2927 1.384 1_565 S
N2926 C2922 1.427 1_565 S
N2926 C2923 1.384 1_565 S
N2927 C2919 1.427 1_545 S
N2927 C2925 1.384 1_545 S
H2928 C2934 0.930 . S
H2929 C2938 0.930 . S
H2930 C2943 0.929 . S
H2931 C2941 0.929 . S
H2932 C2936 0.929 . S
H2933 C2942 0.929 . S
C2934 H2928 0.930 . S
C2934 C2935 1.367 . S
C2934 C2942 1.378 . S
C2935 C2934 1.367 . S
C2935 C2943 1.433 . S
C2936 H2932 0.929 . S
C2936 C2938 1.378 . S
C2936 C2940 1.350 . S
C2937 C2940 1.463 . S
C2937 C2942 1.350 . S
C2937 N2945 1.427 . S
C2938 H2929 0.930 . S
C2938 C2936 1.378 . S
C2938 C2939 1.367 . S
C2939 C2938 1.367 . S
C2939 C2941 1.433 . S
C2940 C2936 1.350 . S
C2940 C2937 1.463 . S
C2940 N2944 1.427 . S
C2941 H2931 0.929 . S
C2941 C2939 1.433 . S
C2941 N2944 1.384 . S
C2942 H2933 0.929 . S
C2942 C2934 1.378 . S
C2942 C2937 1.350 . S
C2943 H2930 0.929 . S
C2943 C2935 1.433 . S
C2943 N2945 1.384 . S
N2944 C2940 1.427 . S
N2944 C2941 1.384 . S
N2945 C2937 1.427 . S
N2945 C2943 1.384 . S
H2946 C2952 0.930 . S
H2947 C2956 0.930 . S
H2948 C2961 0.929 . S
H2949 C2959 0.929 . S
H2950 C2954 0.929 . S
H2951 C2960 0.929 . S
C2952 H2946 0.930 . S
C2952 C2953 1.367 . S
C2952 C2960 1.378 . S
C2953 C2952 1.367 . S
C2953 C2961 1.433 . S
C2954 H2950 0.929 . S
C2954 C2956 1.378 . S
C2954 C2958 1.350 . S
C2955 C2958 1.463 . S
C2955 C2960 1.350 . S
C2955 N2963 1.427 . S
C2956 H2947 0.930 . S
C2956 C2954 1.378 . S
C2956 C2957 1.367 . S
C2957 C2956 1.367 . S
C2957 C2959 1.433 . S
C2958 C2954 1.350 . S
C2958 C2955 1.463 . S
C2958 N2962 1.427 . S
C2959 H2949 0.929 . S
C2959 C2957 1.433 . S
C2959 N2962 1.384 . S
C2960 H2951 0.929 . S
C2960 C2952 1.378 . S
C2960 C2955 1.350 . S
C2961 H2948 0.929 . S
C2961 C2953 1.433 . S
C2961 N2963 1.384 . S
N2962 C2958 1.427 . S
N2962 C2959 1.384 . S
N2963 C2955 1.427 . S
N2963 C2961 1.384 . S
H2964 C2970 0.930 . S
H2965 C2974 0.930 . S
H2966 C2979 0.929 . S
H2967 C2977 0.929 . S
H2968 C2972 0.929 . S
H2969 C2978 0.929 . S
C2970 H2964 0.930 . S
C2970 C2971 1.367 . S
C2970 C2978 1.378 . S
C2971 C2970 1.367 . S
C2971 C2979 1.433 . S
C2972 H2968 0.929 . S
C2972 C2974 1.378 . S
C2972 C2976 1.350 . S
C2973 C2976 1.463 . S
C2973 C2978 1.350 . S
C2973 N2981 1.427 . S
C2974 H2965 0.930 . S
C2974 C2972 1.378 . S
C2974 C2975 1.367 . S
C2975 C2974 1.367 . S
C2975 C2977 1.433 . S
C2976 C2972 1.350 . S
C2976 C2973 1.463 . S
C2976 N2980 1.427 . S
C2977 H2967 0.929 . S
C2977 C2975 1.433 . S
C2977 N2980 1.384 . S
C2978 H2969 0.929 . S
C2978 C2970 1.378 . S
C2978 C2973 1.350 . S
C2979 H2966 0.929 . S
C2979 C2971 1.433 . S
C2979 N2981 1.384 . S
N2980 C2976 1.427 . S
N2980 C2977 1.384 . S
N2981 C2973 1.427 . S
N2981 C2979 1.384 . S
H2982 C2988 0.930 . S
H2983 C2992 0.930 . S
H2984 C2997 0.929 . S
H2985 C2995 0.929 . S
H2986 C2990 0.929 . S
H2987 C2996 0.929 . S
C2988 H2982 0.930 . S
C2988 C2989 1.367 . S
C2988 C2996 1.378 . S
C2989 C2988 1.367 . S
C2989 C2997 1.433 . S
C2990 H2986 0.929 . S
C2990 C2992 1.378 . S
C2990 C2994 1.350 . S
C2991 C2994 1.463 . S
C2991 C2996 1.350 . S
C2991 N2999 1.427 . S
C2992 H2983 0.930 . S
C2992 C2990 1.378 . S
C2992 C2993 1.367 . S
C2993 C2992 1.367 . S
C2993 C2995 1.433 . S
C2994 C2990 1.350 . S
C2994 C2991 1.463 . S
C2994 N2998 1.427 . S
C2995 H2985 0.929 . S
C2995 C2993 1.433 . S
C2995 N2998 1.384 . S
C2996 H2987 0.929 . S
C2996 C2988 1.378 . S
C2996 C2991 1.350 . S
C2997 H2984 0.929 . S
C2997 C2989 1.433 . S
C2997 N2999 1.384 . S
N2998 C2994 1.427 . S
N2998 C2995 1.384 . S
N2999 C2991 1.427 . S
N2999 C2997 1.384 . S
H3000 C3006 0.930 . S
H3001 C3010 0.930 . S
H3002 C3015 0.929 . S
H3003 C3013 0.929 . S
H3004 C3008 0.929 . S
H3005 C3014 0.929 . S
C3006 H3000 0.930 . S
C3006 C3007 1.367 . S
C3006 C3014 1.378 . S
C3007 C3006 1.367 . S
C3007 C3015 1.433 . S
C3008 H3004 0.929 . S
C3008 C3010 1.378 . S
C3008 C3012 1.350 . S
C3009 C3012 1.463 . S
C3009 C3014 1.350 . S
C3009 N3017 1.427 . S
C3010 H3001 0.930 . S
C3010 C3008 1.378 . S
C3010 C3011 1.367 . S
C3011 C3010 1.367 . S
C3011 C3013 1.433 . S
C3012 C3008 1.350 . S
C3012 C3009 1.463 . S
C3012 N3016 1.427 . S
C3013 H3003 0.929 . S
C3013 C3011 1.433 . S
C3013 N3016 1.384 . S
C3014 H3005 0.929 . S
C3014 C3006 1.378 . S
C3014 C3009 1.350 . S
C3015 H3002 0.929 . S
C3015 C3007 1.433 . S
C3015 N3017 1.384 . S
N3016 C3012 1.427 . S
N3016 C3013 1.384 . S
N3017 C3009 1.427 . S
N3017 C3015 1.384 . S
H3018 C3024 0.930 . S
H3019 C3028 0.930 . S
H3020 C3033 0.929 . S
H3021 C3031 0.929 . S
H3022 C3026 0.929 . S
H3023 C3032 0.929 . S
C3024 H3018 0.930 . S
C3024 C3025 1.367 . S
C3024 C3032 1.378 . S
C3025 C3024 1.367 . S
C3025 C3033 1.433 . S
C3026 H3022 0.929 . S
C3026 C3028 1.378 . S
C3026 C3030 1.350 . S
C3027 C3030 1.463 . S
C3027 C3032 1.350 . S
C3027 N3035 1.427 . S
C3028 H3019 0.930 . S
C3028 C3026 1.378 . S
C3028 C3029 1.367 . S
C3029 C3028 1.367 . S
C3029 C3031 1.433 . S
C3030 C3026 1.350 . S
C3030 C3027 1.463 . S
C3030 N3034 1.427 . S
C3031 H3021 0.929 . S
C3031 C3029 1.433 . S
C3031 N3034 1.384 . S
C3032 H3023 0.929 . S
C3032 C3024 1.378 . S
C3032 C3027 1.350 . S
C3033 H3020 0.929 . S
C3033 C3025 1.433 . S
C3033 N3035 1.384 . S
N3034 C3030 1.427 . S
N3034 C3031 1.384 . S
N3035 C3027 1.427 . S
N3035 C3033 1.384 . S
H3036 C3042 0.930 . S
H3037 C3046 0.930 . S
H3038 C3051 0.929 . S
H3039 C3049 0.929 . S
H3040 C3044 0.929 . S
H3041 C3050 0.929 . S
C3042 H3036 0.930 . S
C3042 C3043 1.367 . S
C3042 C3050 1.378 . S
C3043 C3042 1.367 . S
C3043 C3051 1.433 . S
C3044 H3040 0.929 . S
C3044 C3046 1.378 . S
C3044 C3048 1.350 . S
C3045 C3048 1.463 . S
C3045 C3050 1.350 . S
C3045 N3053 1.427 . S
C3046 H3037 0.930 . S
C3046 C3044 1.378 . S
C3046 C3047 1.367 . S
C3047 C3046 1.367 . S
C3047 C3049 1.433 . S
C3048 C3044 1.350 . S
C3048 C3045 1.463 . S
C3048 N3052 1.427 . S
C3049 H3039 0.929 . S
C3049 C3047 1.433 . S
C3049 N3052 1.384 . S
C3050 H3041 0.929 . S
C3050 C3042 1.378 . S
C3050 C3045 1.350 . S
C3051 H3038 0.929 . S
C3051 C3043 1.433 . S
C3051 N3053 1.384 . S
N3052 C3048 1.427 . S
N3052 C3049 1.384 . S
N3053 C3045 1.427 . S
N3053 C3051 1.384 . S
H3054 C3060 0.930 . S
H3055 C3064 0.930 . S
H3056 C3069 0.929 . S
H3057 C3067 0.929 . S
H3058 C3062 0.929 . S
H3059 C3068 0.929 . S
C3060 H3054 0.930 . S
C3060 C3061 1.367 . S
C3060 C3068 1.378 . S
C3061 C3060 1.367 . S
C3061 C3069 1.433 . S
C3062 H3058 0.929 . S
C3062 C3064 1.378 . S
C3062 C3066 1.350 . S
C3063 C3066 1.463 . S
C3063 C3068 1.350 . S
C3063 N3071 1.427 . S
C3064 H3055 0.930 . S
C3064 C3062 1.378 . S
C3064 C3065 1.367 . S
C3065 C3064 1.367 . S
C3065 C3067 1.433 . S
C3066 C3062 1.350 . S
C3066 C3063 1.463 . S
C3066 N3070 1.427 . S
C3067 H3057 0.929 . S
C3067 C3065 1.433 . S
C3067 N3070 1.384 . S
C3068 H3059 0.929 . S
C3068 C3060 1.378 . S
C3068 C3063 1.350 . S
C3069 H3056 0.929 . S
C3069 C3061 1.433 . S
C3069 N3071 1.384 . S
N3070 C3066 1.427 . S
N3070 C3067 1.384 . S
N3071 C3063 1.427 . S
N3071 C3069 1.384 . S
H3072 C3078 0.930 . S
H3073 C3082 0.930 . S
H3074 C3087 0.929 . S
H3075 C3085 0.929 . S
H3076 C3080 0.929 . S
H3077 C3086 0.929 . S
C3078 H3072 0.930 . S
C3078 C3079 1.367 . S
C3078 C3086 1.378 . S
C3079 C3078 1.367 . S
C3079 C3087 1.433 . S
C3080 H3076 0.929 . S
C3080 C3082 1.378 . S
C3080 C3084 1.350 . S
C3081 C3084 1.463 . S
C3081 C3086 1.350 . S
C3081 N3089 1.427 . S
C3082 H3073 0.930 . S
C3082 C3080 1.378 . S
C3082 C3083 1.367 . S
C3083 C3082 1.367 . S
C3083 C3085 1.433 . S
C3084 C3080 1.350 . S
C3084 C3081 1.463 . S
C3084 N3088 1.427 . S
C3085 H3075 0.929 . S
C3085 C3083 1.433 . S
C3085 N3088 1.384 . S
C3086 H3077 0.929 . S
C3086 C3078 1.378 . S
C3086 C3081 1.350 . S
C3087 H3074 0.929 . S
C3087 C3079 1.433 . S
C3087 N3089 1.384 . S
N3088 C3084 1.427 . S
N3088 C3085 1.384 . S
N3089 C3081 1.427 . S
N3089 C3087 1.384 . S
H3090 C3096 0.930 . S
H3091 C3100 0.930 . S
H3092 C3105 0.929 . S
H3093 C3103 0.929 . S
H3094 C3098 0.929 . S
H3095 C3104 0.929 . S
C3096 H3090 0.930 . S
C3096 C3097 1.367 . S
C3096 C3104 1.378 . S
C3097 C3096 1.367 . S
C3097 C3105 1.433 . S
C3098 H3094 0.929 . S
C3098 C3100 1.378 . S
C3098 C3102 1.350 . S
C3099 C3102 1.463 . S
C3099 C3104 1.350 . S
C3099 N3107 1.427 . S
C3100 H3091 0.930 . S
C3100 C3098 1.378 . S
C3100 C3101 1.367 . S
C3101 C3100 1.367 . S
C3101 C3103 1.433 . S
C3102 C3098 1.350 . S
C3102 C3099 1.463 . S
C3102 N3106 1.427 . S
C3103 H3093 0.929 . S
C3103 C3101 1.433 . S
C3103 N3106 1.384 . S
C3104 H3095 0.929 . S
C3104 C3096 1.378 . S
C3104 C3099 1.350 . S
C3105 H3092 0.929 . S
C3105 C3097 1.433 . S
C3105 N3107 1.384 . S
N3106 C3102 1.427 . S
N3106 C3103 1.384 . S
N3107 C3099 1.427 . S
N3107 C3105 1.384 . S
H3108 C3114 0.930 . S
H3109 C3118 0.930 . S
H3110 C3123 0.929 . S
H3111 C3121 0.929 . S
H3112 C3116 0.929 . S
H3113 C3122 0.929 . S
C3114 H3108 0.930 . S
C3114 C3115 1.367 . S
C3114 C3122 1.378 . S
C3115 C3114 1.367 . S
C3115 C3123 1.433 . S
C3116 H3112 0.929 . S
C3116 C3118 1.378 . S
C3116 C3120 1.350 . S
C3117 C3120 1.463 . S
C3117 C3122 1.350 . S
C3117 N3125 1.427 . S
C3118 H3109 0.930 . S
C3118 C3116 1.378 . S
C3118 C3119 1.367 . S
C3119 C3118 1.367 . S
C3119 C3121 1.433 . S
C3120 C3116 1.350 . S
C3120 C3117 1.463 . S
C3120 N3124 1.427 . S
C3121 H3111 0.929 . S
C3121 C3119 1.433 . S
C3121 N3124 1.384 . S
C3122 H3113 0.929 . S
C3122 C3114 1.378 . S
C3122 C3117 1.350 . S
C3123 H3110 0.929 . S
C3123 C3115 1.433 . S
C3123 N3125 1.384 . S
N3124 C3120 1.427 . S
N3124 C3121 1.384 . S
N3125 C3117 1.427 . S
N3125 C3123 1.384 . S
H3126 C3132 0.930 . S
H3127 C3136 0.930 . S
H3128 C3141 0.929 . S
H3129 C3139 0.929 . S
H3130 C3134 0.929 . S
H3131 C3140 0.929 . S
C3132 H3126 0.930 . S
C3132 C3133 1.367 . S
C3132 C3140 1.378 . S
C3133 C3132 1.367 . S
C3133 C3141 1.433 . S
C3134 H3130 0.929 . S
C3134 C3136 1.378 . S
C3134 C3138 1.350 . S
C3135 C3138 1.463 . S
C3135 C3140 1.350 . S
C3135 N3143 1.427 . S
C3136 H3127 0.930 . S
C3136 C3134 1.378 . S
C3136 C3137 1.367 . S
C3137 C3136 1.367 . S
C3137 C3139 1.433 . S
C3138 C3134 1.350 . S
C3138 C3135 1.463 . S
C3138 N3142 1.427 . S
C3139 H3129 0.929 . S
C3139 C3137 1.433 . S
C3139 N3142 1.384 . S
C3140 H3131 0.929 . S
C3140 C3132 1.378 . S
C3140 C3135 1.350 . S
C3141 H3128 0.929 . S
C3141 C3133 1.433 . S
C3141 N3143 1.384 . S
N3142 C3138 1.427 . S
N3142 C3139 1.384 . S
N3143 C3135 1.427 . S
N3143 C3141 1.384 . S
H3144 C3150 0.930 . S
H3145 C3154 0.930 . S
H3146 C3159 0.929 . S
H3147 C3157 0.929 . S
H3148 C3152 0.929 . S
H3149 C3158 0.929 . S
C3150 H3144 0.930 . S
C3150 C3151 1.367 . S
C3150 C3158 1.378 . S
C3151 C3150 1.367 . S
C3151 C3159 1.433 . S
C3152 H3148 0.929 . S
C3152 C3154 1.378 . S
C3152 C3156 1.350 . S
C3153 C3156 1.463 . S
C3153 C3158 1.350 . S
C3153 N3161 1.427 . S
C3154 H3145 0.930 . S
C3154 C3152 1.378 . S
C3154 C3155 1.367 . S
C3155 C3154 1.367 . S
C3155 C3157 1.433 . S
C3156 C3152 1.350 . S
C3156 C3153 1.463 . S
C3156 N3160 1.427 . S
C3157 H3147 0.929 . S
C3157 C3155 1.433 . S
C3157 N3160 1.384 . S
C3158 H3149 0.929 . S
C3158 C3150 1.378 . S
C3158 C3153 1.350 . S
C3159 H3146 0.929 . S
C3159 C3151 1.433 . S
C3159 N3161 1.384 . S
N3160 C3156 1.427 . S
N3160 C3157 1.384 . S
N3161 C3153 1.427 . S
N3161 C3159 1.384 . S
H3162 C3168 0.930 . S
H3163 C3172 0.930 . S
H3164 C3177 0.929 . S
H3165 C3175 0.929 . S
H3166 C3170 0.929 . S
H3167 C3176 0.929 . S
C3168 H3162 0.930 . S
C3168 C3169 1.367 . S
C3168 C3176 1.378 . S
C3169 C3168 1.367 . S
C3169 C3177 1.433 . S
C3170 H3166 0.929 . S
C3170 C3172 1.378 . S
C3170 C3174 1.350 . S
C3171 C3174 1.463 . S
C3171 C3176 1.350 . S
C3171 N3179 1.427 . S
C3172 H3163 0.930 . S
C3172 C3170 1.378 . S
C3172 C3173 1.367 . S
C3173 C3172 1.367 . S
C3173 C3175 1.433 . S
C3174 C3170 1.350 . S
C3174 C3171 1.463 . S
C3174 N3178 1.427 . S
C3175 H3165 0.929 . S
C3175 C3173 1.433 . S
C3175 N3178 1.384 . S
C3176 H3167 0.929 . S
C3176 C3168 1.378 . S
C3176 C3171 1.350 . S
C3177 H3164 0.929 . S
C3177 C3169 1.433 . S
C3177 N3179 1.384 . S
N3178 C3174 1.427 . S
N3178 C3175 1.384 . S
N3179 C3171 1.427 . S
N3179 C3177 1.384 . S
H3180 C3186 0.930 . S
H3181 C3190 0.930 . S
H3182 C3195 0.929 . S
H3183 C3193 0.929 . S
H3184 C3188 0.929 . S
H3185 C3194 0.929 . S
C3186 H3180 0.930 . S
C3186 C3187 1.367 . S
C3186 C3194 1.378 . S
C3187 C3186 1.367 . S
C3187 C3195 1.433 . S
C3188 H3184 0.929 . S
C3188 C3190 1.378 . S
C3188 C3192 1.350 . S
C3189 C3192 1.463 . S
C3189 C3194 1.350 . S
C3189 N3197 1.427 . S
C3190 H3181 0.930 . S
C3190 C3188 1.378 . S
C3190 C3191 1.367 . S
C3191 C3190 1.367 . S
C3191 C3193 1.433 . S
C3192 C3188 1.350 . S
C3192 C3189 1.463 . S
C3192 N3196 1.427 . S
C3193 H3183 0.929 . S
C3193 C3191 1.433 . S
C3193 N3196 1.384 . S
C3194 H3185 0.929 . S
C3194 C3186 1.378 . S
C3194 C3189 1.350 . S
C3195 H3182 0.929 . S
C3195 C3187 1.433 . S
C3195 N3197 1.384 . S
N3196 C3192 1.427 . S
N3196 C3193 1.384 . S
N3197 C3189 1.427 . S
N3197 C3195 1.384 . S
H3198 C3204 0.930 . S
H3199 C3208 0.930 . S
H3200 C3213 0.929 . S
H3201 C3211 0.929 . S
H3202 C3206 0.929 . S
H3203 C3212 0.929 . S
C3204 H3198 0.930 . S
C3204 C3205 1.367 . S
C3204 C3212 1.378 . S
C3205 C3204 1.367 . S
C3205 C3213 1.433 . S
C3206 H3202 0.929 . S
C3206 C3208 1.378 . S
C3206 C3210 1.350 . S
C3207 C3210 1.463 . S
C3207 C3212 1.350 . S
C3207 N3215 1.427 . S
C3208 H3199 0.930 . S
C3208 C3206 1.378 . S
C3208 C3209 1.367 . S
C3209 C3208 1.367 . S
C3209 C3211 1.433 . S
C3210 C3206 1.350 . S
C3210 C3207 1.463 . S
C3210 N3214 1.427 . S
C3211 H3201 0.929 . S
C3211 C3209 1.433 . S
C3211 N3214 1.384 . S
C3212 H3203 0.929 . S
C3212 C3204 1.378 . S
C3212 C3207 1.350 . S
C3213 H3200 0.929 . S
C3213 C3205 1.433 . S
C3213 N3215 1.384 . S
N3214 C3210 1.427 . S
N3214 C3211 1.384 . S
N3215 C3207 1.427 . S
N3215 C3213 1.384 . S
H3216 C3222 0.930 . S
H3217 C3226 0.930 . S
H3218 C3231 0.929 . S
H3219 C3229 0.929 . S
H3220 C3224 0.929 . S
H3221 C3230 0.929 . S
C3222 H3216 0.930 . S
C3222 C3223 1.367 . S
C3222 C3230 1.378 . S
C3223 C3222 1.367 . S
C3223 C3231 1.433 . S
C3224 H3220 0.929 . S
C3224 C3226 1.378 . S
C3224 C3228 1.350 . S
C3225 C3228 1.463 . S
C3225 C3230 1.350 . S
C3225 N3233 1.427 . S
C3226 H3217 0.930 . S
C3226 C3224 1.378 . S
C3226 C3227 1.367 . S
C3227 C3226 1.367 . S
C3227 C3229 1.433 . S
C3228 C3224 1.350 . S
C3228 C3225 1.463 . S
C3228 N3232 1.427 . S
C3229 H3219 0.929 . S
C3229 C3227 1.433 . S
C3229 N3232 1.384 . S
C3230 H3221 0.929 . S
C3230 C3222 1.378 . S
C3230 C3225 1.350 . S
C3231 H3218 0.929 . S
C3231 C3223 1.433 . S
C3231 N3233 1.384 . S
N3232 C3228 1.427 . S
N3232 C3229 1.384 . S
N3233 C3225 1.427 . S
N3233 C3231 1.384 . S
H3234 C3240 0.930 . S
H3235 C3244 0.930 . S
H3236 C3249 0.929 . S
H3237 C3247 0.929 . S
H3238 C3242 0.929 . S
H3239 C3248 0.929 . S
C3240 H3234 0.930 . S
C3240 C3241 1.367 . S
C3240 C3248 1.378 . S
C3241 C3240 1.367 . S
C3241 C3249 1.433 . S
C3242 H3238 0.929 . S
C3242 C3244 1.378 . S
C3242 C3246 1.350 . S
C3243 C3246 1.463 . S
C3243 C3248 1.350 . S
C3243 N3251 1.427 . S
C3244 H3235 0.930 . S
C3244 C3242 1.378 . S
C3244 C3245 1.367 . S
C3245 C3244 1.367 . S
C3245 C3247 1.433 . S
C3246 C3242 1.350 . S
C3246 C3243 1.463 . S
C3246 N3250 1.427 . S
C3247 H3237 0.929 . S
C3247 C3245 1.433 . S
C3247 N3250 1.384 . S
C3248 H3239 0.929 . S
C3248 C3240 1.378 . S
C3248 C3243 1.350 . S
C3249 H3236 0.929 . S
C3249 C3241 1.433 . S
C3249 N3251 1.384 . S
N3250 C3246 1.427 . S
N3250 C3247 1.384 . S
N3251 C3243 1.427 . S
N3251 C3249 1.384 . S
H3252 C3258 0.930 . S
H3253 C3262 0.930 . S
H3254 C3267 0.929 . S
H3255 C3265 0.929 . S
H3256 C3260 0.929 . S
H3257 C3266 0.929 . S
C3258 H3252 0.930 . S
C3258 C3259 1.367 . S
C3258 C3266 1.378 . S
C3259 C3258 1.367 . S
C3259 C3267 1.433 . S
C3260 H3256 0.929 . S
C3260 C3262 1.378 . S
C3260 C3264 1.350 . S
C3261 C3264 1.463 . S
C3261 C3266 1.350 . S
C3261 N3269 1.427 . S
C3262 H3253 0.930 . S
C3262 C3260 1.378 . S
C3262 C3263 1.367 . S
C3263 C3262 1.367 . S
C3263 C3265 1.433 . S
C3264 C3260 1.350 . S
C3264 C3261 1.463 . S
C3264 N3268 1.427 . S
C3265 H3255 0.929 . S
C3265 C3263 1.433 . S
C3265 N3268 1.384 . S
C3266 H3257 0.929 . S
C3266 C3258 1.378 . S
C3266 C3261 1.350 . S
C3267 H3254 0.929 . S
C3267 C3259 1.433 . S
C3267 N3269 1.384 . S
N3268 C3264 1.427 . S
N3268 C3265 1.384 . S
N3269 C3261 1.427 . S
N3269 C3267 1.384 . S
H3270 C3276 0.930 . S
H3271 C3280 0.930 . S
H3272 C3285 0.929 . S
H3273 C3283 0.929 . S
H3274 C3278 0.929 . S
H3275 C3284 0.929 . S
C3276 H3270 0.930 . S
C3276 C3277 1.367 . S
C3276 C3284 1.378 . S
C3277 C3276 1.367 . S
C3277 C3285 1.433 . S
C3278 H3274 0.929 . S
C3278 C3280 1.378 . S
C3278 C3282 1.350 . S
C3279 C3282 1.463 . S
C3279 C3284 1.350 . S
C3279 N3287 1.427 . S
C3280 H3271 0.930 . S
C3280 C3278 1.378 . S
C3280 C3281 1.367 . S
C3281 C3280 1.367 . S
C3281 C3283 1.433 . S
C3282 C3278 1.350 . S
C3282 C3279 1.463 . S
C3282 N3286 1.427 . S
C3283 H3273 0.929 . S
C3283 C3281 1.433 . S
C3283 N3286 1.384 . S
C3284 H3275 0.929 . S
C3284 C3276 1.378 . S
C3284 C3279 1.350 . S
C3285 H3272 0.929 . S
C3285 C3277 1.433 . S
C3285 N3287 1.384 . S
N3286 C3282 1.427 . S
N3286 C3283 1.384 . S
N3287 C3279 1.427 . S
N3287 C3285 1.384 . S
H3288 C3294 0.930 . S
H3289 C3298 0.930 . S
H3290 C3303 0.929 . S
H3291 C3301 0.929 . S
H3292 C3296 0.929 . S
H3293 C3302 0.929 . S
C3294 H3288 0.930 . S
C3294 C3295 1.367 . S
C3294 C3302 1.378 . S
C3295 C3294 1.367 . S
C3295 C3303 1.433 . S
C3296 H3292 0.929 . S
C3296 C3298 1.378 . S
C3296 C3300 1.350 . S
C3297 C3300 1.463 . S
C3297 C3302 1.350 . S
C3297 N3305 1.427 . S
C3298 H3289 0.930 . S
C3298 C3296 1.378 . S
C3298 C3299 1.367 . S
C3299 C3298 1.367 . S
C3299 C3301 1.433 . S
C3300 C3296 1.350 . S
C3300 C3297 1.463 . S
C3300 N3304 1.427 . S
C3301 H3291 0.929 . S
C3301 C3299 1.433 . S
C3301 N3304 1.384 . S
C3302 H3293 0.929 . S
C3302 C3294 1.378 . S
C3302 C3297 1.350 . S
C3303 H3290 0.929 . S
C3303 C3295 1.433 . S
C3303 N3305 1.384 . S
N3304 C3300 1.427 . S
N3304 C3301 1.384 . S
N3305 C3297 1.427 . S
N3305 C3303 1.384 . S
H3306 C3312 0.930 . S
H3307 C3316 0.930 . S
H3308 C3321 0.929 . S
H3309 C3319 0.929 . S
H3310 C3314 0.929 . S
H3311 C3320 0.929 . S
C3312 H3306 0.930 . S
C3312 C3313 1.367 . S
C3312 C3320 1.378 . S
C3313 C3312 1.367 . S
C3313 C3321 1.433 . S
C3314 H3310 0.929 . S
C3314 C3316 1.378 . S
C3314 C3318 1.350 . S
C3315 C3318 1.463 . S
C3315 C3320 1.350 . S
C3315 N3323 1.427 . S
C3316 H3307 0.930 . S
C3316 C3314 1.378 . S
C3316 C3317 1.367 . S
C3317 C3316 1.367 . S
C3317 C3319 1.433 . S
C3318 C3314 1.350 . S
C3318 C3315 1.463 . S
C3318 N3322 1.427 . S
C3319 H3309 0.929 . S
C3319 C3317 1.433 . S
C3319 N3322 1.384 . S
C3320 H3311 0.929 . S
C3320 C3312 1.378 . S
C3320 C3315 1.350 . S
C3321 H3308 0.929 . S
C3321 C3313 1.433 . S
C3321 N3323 1.384 . S
N3322 C3318 1.427 . S
N3322 C3319 1.384 . S
N3323 C3315 1.427 . S
N3323 C3321 1.384 . S
H3324 C3330 0.930 . S
H3325 C3334 0.930 . S
H3326 C3339 0.929 . S
H3327 C3337 0.929 . S
H3328 C3332 0.929 . S
H3329 C3338 0.929 . S
C3330 H3324 0.930 . S
C3330 C3331 1.367 . S
C3330 C3338 1.378 . S
C3331 C3330 1.367 . S
C3331 C3339 1.433 . S
C3332 H3328 0.929 . S
C3332 C3334 1.378 . S
C3332 C3336 1.350 . S
C3333 C3336 1.463 . S
C3333 C3338 1.350 . S
C3333 N3341 1.427 . S
C3334 H3325 0.930 . S
C3334 C3332 1.378 . S
C3334 C3335 1.367 . S
C3335 C3334 1.367 . S
C3335 C3337 1.433 . S
C3336 C3332 1.350 . S
C3336 C3333 1.463 . S
C3336 N3340 1.427 . S
C3337 H3327 0.929 . S
C3337 C3335 1.433 . S
C3337 N3340 1.384 . S
C3338 H3329 0.929 . S
C3338 C3330 1.378 . S
C3338 C3333 1.350 . S
C3339 H3326 0.929 . S
C3339 C3331 1.433 . S
C3339 N3341 1.384 . S
N3340 C3336 1.427 . S
N3340 C3337 1.384 . S
N3341 C3333 1.427 . S
N3341 C3339 1.384 . S
H3342 C3348 0.930 . S
H3343 C3352 0.930 . S
H3344 C3357 0.929 . S
H3345 C3355 0.929 . S
H3346 C3350 0.929 . S
H3347 C3356 0.929 . S
C3348 H3342 0.930 . S
C3348 C3349 1.367 . S
C3348 C3356 1.378 . S
C3349 C3348 1.367 . S
C3349 C3357 1.433 . S
C3350 H3346 0.929 . S
C3350 C3352 1.378 . S
C3350 C3354 1.350 . S
C3351 C3354 1.463 . S
C3351 C3356 1.350 . S
C3351 N3359 1.427 . S
C3352 H3343 0.930 . S
C3352 C3350 1.378 . S
C3352 C3353 1.367 . S
C3353 C3352 1.367 . S
C3353 C3355 1.433 . S
C3354 C3350 1.350 . S
C3354 C3351 1.463 . S
C3354 N3358 1.427 . S
C3355 H3345 0.929 . S
C3355 C3353 1.433 . S
C3355 N3358 1.384 . S
C3356 H3347 0.929 . S
C3356 C3348 1.378 . S
C3356 C3351 1.350 . S
C3357 H3344 0.929 . S
C3357 C3349 1.433 . S
C3357 N3359 1.384 . S
N3358 C3354 1.427 . S
N3358 C3355 1.384 . S
N3359 C3351 1.427 . S
N3359 C3357 1.384 . S
H3360 C3366 0.886 1_545 S
H3361 C3370 0.930 . S
H3362 C3375 0.929 . S
H3363 C3373 0.929 . S
H3364 C3368 0.929 . S
H3365 C3374 0.929 . S
C3366 H3360 0.886 1_565 S
C3366 C3367 1.367 . S
C3366 C3374 1.378 . S
C3367 C3366 1.367 . S
C3367 C3375 1.433 . S
C3368 H3364 0.929 . S
C3368 C3370 1.378 . S
C3368 C3372 1.350 . S
C3369 C3372 1.463 . S
C3369 C3374 1.350 . S
C3369 N3377 1.427 . S
C3370 H3361 0.930 . S
C3370 C3368 1.378 . S
C3370 C3371 1.367 . S
C3371 C3370 1.367 . S
C3371 C3373 1.433 . S
C3372 C3368 1.350 . S
C3372 C3369 1.463 . S
C3372 N3376 1.427 . S
C3373 H3363 0.929 . S
C3373 C3371 1.433 . S
C3373 N3376 1.384 . S
C3374 H3365 0.929 . S
C3374 C3366 1.378 . S
C3374 C3369 1.350 . S
C3375 H3362 0.929 . S
C3375 C3367 1.433 . S
C3375 N3377 1.384 . S
N3376 C3372 1.427 . S
N3376 C3373 1.384 . S
N3377 C3369 1.427 . S
N3377 C3375 1.384 . S
H3378 C3384 0.930 . S
H3379 C3388 0.930 . S
H3380 C3393 0.929 . S
H3381 C3391 0.929 . S
H3382 C3386 0.929 . S
H3383 C3392 0.929 . S
C3384 H3378 0.930 . S
C3384 C3385 1.367 . S
C3384 C3392 1.378 . S
C3385 C3384 1.367 . S
C3385 C3393 1.433 . S
C3386 H3382 0.929 . S
C3386 C3388 1.378 . S
C3386 C3390 1.350 . S
C3387 C3390 1.463 . S
C3387 C3392 1.350 . S
C3387 N3395 1.427 . S
C3388 H3379 0.930 . S
C3388 C3386 1.378 . S
C3388 C3389 1.367 . S
C3389 C3388 1.367 . S
C3389 C3391 1.433 . S
C3390 C3386 1.350 . S
C3390 C3387 1.463 . S
C3390 N3394 1.427 . S
C3391 H3381 0.929 . S
C3391 C3389 1.433 . S
C3391 N3394 1.384 . S
C3392 H3383 0.929 . S
C3392 C3384 1.378 . S
C3392 C3387 1.350 . S
C3393 H3380 0.929 . S
C3393 C3385 1.433 . S
C3393 N3395 1.384 . S
N3394 C3390 1.427 . S
N3394 C3391 1.384 . S
N3395 C3387 1.427 . S
N3395 C3393 1.384 . S
H3396 C3402 0.930 . S
H3397 C3406 0.930 . S
H3398 C3411 0.929 . S
H3399 C3409 0.929 . S
H3400 C3404 0.929 . S
H3401 C3410 0.929 . S
C3402 H3396 0.930 . S
C3402 C3403 1.367 . S
C3402 C3410 1.378 . S
C3403 C3402 1.367 . S
C3403 C3411 1.433 . S
C3404 H3400 0.929 . S
C3404 C3406 1.378 . S
C3404 C3408 1.350 . S
C3405 C3408 1.463 . S
C3405 C3410 1.350 . S
C3405 N3413 1.427 . S
C3406 H3397 0.930 . S
C3406 C3404 1.378 . S
C3406 C3407 1.367 . S
C3407 C3406 1.367 . S
C3407 C3409 1.433 . S
C3408 C3404 1.350 . S
C3408 C3405 1.463 . S
C3408 N3412 1.427 . S
C3409 H3399 0.929 . S
C3409 C3407 1.433 . S
C3409 N3412 1.384 . S
C3410 H3401 0.929 . S
C3410 C3402 1.378 . S
C3410 C3405 1.350 . S
C3411 H3398 0.929 . S
C3411 C3403 1.433 . S
C3411 N3413 1.384 . S
N3412 C3408 1.427 . S
N3412 C3409 1.384 . S
N3413 C3405 1.427 . S
N3413 C3411 1.384 . S
H3414 C3420 0.930 . S
H3415 C3424 0.930 . S
H3416 C3429 0.929 . S
H3417 C3427 0.929 . S
H3418 C3422 0.929 . S
H3419 C3428 0.929 . S
C3420 H3414 0.930 . S
C3420 C3421 1.367 . S
C3420 C3428 1.378 . S
C3421 C3420 1.367 . S
C3421 C3429 1.433 . S
C3422 H3418 0.929 . S
C3422 C3424 1.378 . S
C3422 C3426 1.350 . S
C3423 C3426 1.463 . S
C3423 C3428 1.350 . S
C3423 N3431 1.427 . S
C3424 H3415 0.930 . S
C3424 C3422 1.378 . S
C3424 C3425 1.367 . S
C3425 C3424 1.367 . S
C3425 C3427 1.433 . S
C3426 C3422 1.350 . S
C3426 C3423 1.463 . S
C3426 N3430 1.427 . S
C3427 H3417 0.929 . S
C3427 C3425 1.433 . S
C3427 N3430 1.384 . S
C3428 H3419 0.929 . S
C3428 C3420 1.378 . S
C3428 C3423 1.350 . S
C3429 H3416 0.929 . S
C3429 C3421 1.433 . S
C3429 N3431 1.384 . S
N3430 C3426 1.427 . S
N3430 C3427 1.384 . S
N3431 C3423 1.427 . S
N3431 C3429 1.384 . S
H3432 C3438 0.930 . S
H3433 C3442 0.930 . S
H3434 C3447 0.929 . S
H3435 C3445 0.929 . S
H3436 C3440 0.929 . S
H3437 C3446 0.929 . S
C3438 H3432 0.930 . S
C3438 C3439 1.367 . S
C3438 C3446 1.378 . S
C3439 C3438 1.367 . S
C3439 C3447 1.433 . S
C3440 H3436 0.929 . S
C3440 C3442 1.378 . S
C3440 C3444 1.350 . S
C3441 C3444 1.463 . S
C3441 C3446 1.350 . S
C3441 N3449 1.427 . S
C3442 H3433 0.930 . S
C3442 C3440 1.378 . S
C3442 C3443 1.367 . S
C3443 C3442 1.367 . S
C3443 C3445 1.433 . S
C3444 C3440 1.350 . S
C3444 C3441 1.463 . S
C3444 N3448 1.427 . S
C3445 H3435 0.929 . S
C3445 C3443 1.433 . S
C3445 N3448 1.384 . S
C3446 H3437 0.929 . S
C3446 C3438 1.378 . S
C3446 C3441 1.350 . S
C3447 H3434 0.929 . S
C3447 C3439 1.433 . S
C3447 N3449 1.384 . S
N3448 C3444 1.427 . S
N3448 C3445 1.384 . S
N3449 C3441 1.427 . S
N3449 C3447 1.384 . S
H3450 C3456 0.930 . S
H3451 C3460 0.930 . S
H3452 C3465 0.929 . S
H3453 C3463 0.929 . S
H3454 C3458 0.929 . S
H3455 C3464 0.929 . S
C3456 H3450 0.930 . S
C3456 C3457 1.367 . S
C3456 C3464 1.378 . S
C3457 C3456 1.367 . S
C3457 C3465 1.433 . S
C3458 H3454 0.929 . S
C3458 C3460 1.378 . S
C3458 C3462 1.350 . S
C3459 C3462 1.463 . S
C3459 C3464 1.350 . S
C3459 N3467 1.427 . S
C3460 H3451 0.930 . S
C3460 C3458 1.378 . S
C3460 C3461 1.367 . S
C3461 C3460 1.367 . S
C3461 C3463 1.433 . S
C3462 C3458 1.350 . S
C3462 C3459 1.463 . S
C3462 N3466 1.427 . S
C3463 H3453 0.929 . S
C3463 C3461 1.433 . S
C3463 N3466 1.384 . S
C3464 H3455 0.929 . S
C3464 C3456 1.378 . S
C3464 C3459 1.350 . S
C3465 H3452 0.929 . S
C3465 C3457 1.433 . S
C3465 N3467 1.384 . S
N3466 C3462 1.427 . S
N3466 C3463 1.384 . S
N3467 C3459 1.427 . S
N3467 C3465 1.384 . S
H3468 C3474 0.930 . S
H3469 C3478 0.930 . S
H3470 C3483 0.929 . S
H3471 C3481 0.929 . S
H3472 C3476 0.929 . S
H3473 C3482 0.929 . S
C3474 H3468 0.930 . S
C3474 C3475 1.367 . S
C3474 C3482 1.378 . S
C3475 C3474 1.367 . S
C3475 C3483 1.433 . S
C3476 H3472 0.929 . S
C3476 C3478 1.378 . S
C3476 C3480 1.350 . S
C3477 C3480 1.463 . S
C3477 C3482 1.350 . S
C3477 N3485 1.427 . S
C3478 H3469 0.930 . S
C3478 C3476 1.378 . S
C3478 C3479 1.367 . S
C3479 C3478 1.367 . S
C3479 C3481 1.433 . S
C3480 C3476 1.350 . S
C3480 C3477 1.463 . S
C3480 N3484 1.427 . S
C3481 H3471 0.929 . S
C3481 C3479 1.433 . S
C3481 N3484 1.384 . S
C3482 H3473 0.929 . S
C3482 C3474 1.378 . S
C3482 C3477 1.350 . S
C3483 H3470 0.929 . S
C3483 C3475 1.433 . S
C3483 N3485 1.384 . S
N3484 C3480 1.427 . S
N3484 C3481 1.384 . S
N3485 C3477 1.427 . S
N3485 C3483 1.384 . S
H3486 C3492 0.930 . S
H3487 C3496 0.930 . S
H3488 C3501 0.929 . S
H3489 C3499 0.929 . S
H3490 C3494 0.929 . S
H3491 C3500 0.929 . S
C3492 H3486 0.930 . S
C3492 C3493 1.367 . S
C3492 C3500 1.378 . S
C3493 C3492 1.367 . S
C3493 C3501 1.433 . S
C3494 H3490 0.929 . S
C3494 C3496 1.378 . S
C3494 C3498 1.350 . S
C3495 C3498 1.463 . S
C3495 C3500 1.350 . S
C3495 N3503 1.427 . S
C3496 H3487 0.930 . S
C3496 C3494 1.378 . S
C3496 C3497 1.367 . S
C3497 C3496 1.367 . S
C3497 C3499 1.433 . S
C3498 C3494 1.350 . S
C3498 C3495 1.463 . S
C3498 N3502 1.427 . S
C3499 H3489 0.929 . S
C3499 C3497 1.433 . S
C3499 N3502 1.384 . S
C3500 H3491 0.929 . S
C3500 C3492 1.378 . S
C3500 C3495 1.350 . S
C3501 H3488 0.929 . S
C3501 C3493 1.433 . S
C3501 N3503 1.384 . S
N3502 C3498 1.427 . S
N3502 C3499 1.384 . S
N3503 C3495 1.427 . S
N3503 C3501 1.384 . S
H3504 C3510 0.930 . S
H3505 C3514 0.930 . S
H3506 C3519 0.929 . S
H3507 C3517 0.929 . S
H3508 C3512 0.929 . S
H3509 C3518 0.929 . S
C3510 H3504 0.930 . S
C3510 C3511 1.367 . S
C3510 C3518 1.378 . S
C3511 C3510 1.367 . S
C3511 C3519 1.433 . S
C3512 H3508 0.929 . S
C3512 C3514 1.378 . S
C3512 C3516 1.350 . S
C3513 C3516 1.463 . S
C3513 C3518 1.350 . S
C3513 N3521 1.427 . S
C3514 H3505 0.930 . S
C3514 C3512 1.378 . S
C3514 C3515 1.367 . S
C3515 C3514 1.367 . S
C3515 C3517 1.433 . S
C3516 C3512 1.350 . S
C3516 C3513 1.463 . S
C3516 N3520 1.427 . S
C3517 H3507 0.929 . S
C3517 C3515 1.433 . S
C3517 N3520 1.384 . S
C3518 H3509 0.929 . S
C3518 C3510 1.378 . S
C3518 C3513 1.350 . S
C3519 H3506 0.929 . S
C3519 C3511 1.433 . S
C3519 N3521 1.384 . S
N3520 C3516 1.427 . S
N3520 C3517 1.384 . S
N3521 C3513 1.427 . S
N3521 C3519 1.384 . S
H3522 C3528 0.930 . S
H3523 C3532 0.930 . S
H3524 C3537 0.929 . S
H3525 C3535 0.929 . S
H3526 C3530 0.929 . S
H3527 C3536 0.929 . S
C3528 H3522 0.930 . S
C3528 C3529 1.367 . S
C3528 C3536 1.378 . S
C3529 C3528 1.367 . S
C3529 C3537 1.433 . S
C3530 H3526 0.929 . S
C3530 C3532 1.378 . S
C3530 C3534 1.350 . S
C3531 C3534 1.463 . S
C3531 C3536 1.350 . S
C3531 N3539 1.427 . S
C3532 H3523 0.930 . S
C3532 C3530 1.378 . S
C3532 C3533 1.367 . S
C3533 C3532 1.367 . S
C3533 C3535 1.433 . S
C3534 C3530 1.350 . S
C3534 C3531 1.463 . S
C3534 N3538 1.427 . S
C3535 H3525 0.929 . S
C3535 C3533 1.433 . S
C3535 N3538 1.384 . S
C3536 H3527 0.929 . S
C3536 C3528 1.378 . S
C3536 C3531 1.350 . S
C3537 H3524 0.929 . S
C3537 C3529 1.433 . S
C3537 N3539 1.384 . S
N3538 C3534 1.427 . S
N3538 C3535 1.384 . S
N3539 C3531 1.427 . S
N3539 C3537 1.384 . S
H3540 C3546 0.930 . S
H3541 C3550 0.948 . S
H3542 C3555 0.929 . S
H3543 C3553 0.929 . S
H3544 C3548 0.929 . S
H3545 C3554 0.929 . S
C3546 H3540 0.930 . S
C3546 C3547 1.367 . S
C3546 C3554 1.378 . S
C3547 C3546 1.367 . S
C3547 C3555 1.433 . S
C3548 H3544 0.929 . S
C3548 C3550 1.378 . S
C3548 C3552 1.350 . S
C3549 C3552 1.463 . S
C3549 C3554 1.350 . S
C3549 N3557 1.427 . S
C3550 H3541 0.948 . S
C3550 C3548 1.378 . S
C3550 C3551 1.367 . S
C3551 C3550 1.367 . S
C3551 C3553 1.433 . S
C3552 C3548 1.350 . S
C3552 C3549 1.463 . S
C3552 N3556 1.427 . S
C3553 H3543 0.929 . S
C3553 C3551 1.433 . S
C3553 N3556 1.384 . S
C3554 H3545 0.929 . S
C3554 C3546 1.378 . S
C3554 C3549 1.350 . S
C3555 H3542 0.929 . S
C3555 C3547 1.433 . S
C3555 N3557 1.384 . S
N3556 C3552 1.427 . S
N3556 C3553 1.384 . S
N3557 C3549 1.427 . S
N3557 C3555 1.384 . S
H3558 C3564 0.930 . S
H3559 C3568 0.930 . S
H3560 C3573 0.929 . S
H3561 C3571 0.929 . S
H3562 C3566 0.929 . S
H3563 C3572 0.929 . S
C3564 H3558 0.930 . S
C3564 C3565 1.367 . S
C3564 C3572 1.378 . S
C3565 C3564 1.367 . S
C3565 C3573 1.433 . S
C3566 H3562 0.929 . S
C3566 C3568 1.378 . S
C3566 C3570 1.350 . S
C3567 C3570 1.463 . S
C3567 C3572 1.350 . S
C3567 N3575 1.427 . S
C3568 H3559 0.930 . S
C3568 C3566 1.378 . S
C3568 C3569 1.367 . S
C3569 C3568 1.367 . S
C3569 C3571 1.433 . S
C3570 C3566 1.350 . S
C3570 C3567 1.463 . S
C3570 N3574 1.427 . S
C3571 H3561 0.929 . S
C3571 C3569 1.433 . S
C3571 N3574 1.384 . S
C3572 H3563 0.929 . S
C3572 C3564 1.378 . S
C3572 C3567 1.350 . S
C3573 H3560 0.929 . S
C3573 C3565 1.433 . S
C3573 N3575 1.384 . S
N3574 C3570 1.427 . S
N3574 C3571 1.384 . S
N3575 C3567 1.427 . S
N3575 C3573 1.384 . S
H3576 C3582 0.930 . S
H3577 C3586 0.930 . S
H3578 C3591 0.929 . S
H3579 C3589 0.929 . S
H3580 C3584 0.929 . S
H3581 C3590 0.929 . S
C3582 H3576 0.930 . S
C3582 C3583 1.367 . S
C3582 C3590 1.378 . S
C3583 C3582 1.367 . S
C3583 C3591 1.433 . S
C3584 H3580 0.929 . S
C3584 C3586 1.378 . S
C3584 C3588 1.350 . S
C3585 C3588 1.463 . S
C3585 C3590 1.350 . S
C3585 N3593 1.427 . S
C3586 H3577 0.930 . S
C3586 C3584 1.378 . S
C3586 C3587 1.367 . S
C3587 C3586 1.367 . S
C3587 C3589 1.433 . S
C3588 C3584 1.350 . S
C3588 C3585 1.463 . S
C3588 N3592 1.427 . S
C3589 H3579 0.929 . S
C3589 C3587 1.433 . S
C3589 N3592 1.384 . S
C3590 H3581 0.929 . S
C3590 C3582 1.378 . S
C3590 C3585 1.350 . S
C3591 H3578 0.929 . S
C3591 C3583 1.433 . S
C3591 N3593 1.384 . S
N3592 C3588 1.427 . S
N3592 C3589 1.384 . S
N3593 C3585 1.427 . S
N3593 C3591 1.384 . S
H3594 C3600 0.930 . S
H3595 C3604 0.930 . S
H3596 C3609 0.929 . S
H3597 C3607 0.929 . S
H3598 C3602 0.929 . S
H3599 C3608 0.929 . S
C3600 H3594 0.930 . S
C3600 C3601 1.367 . S
C3600 C3608 1.378 . S
C3601 C3600 1.367 . S
C3601 C3609 1.433 . S
C3602 H3598 0.929 . S
C3602 C3604 1.378 . S
C3602 C3606 1.350 . S
C3603 C3606 1.463 . S
C3603 C3608 1.350 . S
C3603 N3611 1.427 . S
C3604 H3595 0.930 . S
C3604 C3602 1.378 . S
C3604 C3605 1.367 . S
C3605 C3604 1.367 . S
C3605 C3607 1.433 . S
C3606 C3602 1.350 . S
C3606 C3603 1.463 . S
C3606 N3610 1.427 . S
C3607 H3597 0.929 . S
C3607 C3605 1.433 . S
C3607 N3610 1.384 . S
C3608 H3599 0.929 . S
C3608 C3600 1.378 . S
C3608 C3603 1.350 . S
C3609 H3596 0.929 . S
C3609 C3601 1.433 . S
C3609 N3611 1.384 . S
N3610 C3606 1.427 . S
N3610 C3607 1.384 . S
N3611 C3603 1.427 . S
N3611 C3609 1.384 . S
H3612 C3618 0.930 . S
H3613 C3622 0.930 . S
H3614 C3627 0.929 . S
H3615 C3625 0.929 . S
H3616 C3620 0.929 . S
H3617 C3626 0.929 . S
C3618 H3612 0.930 . S
C3618 C3619 1.367 . S
C3618 C3626 1.378 . S
C3619 C3618 1.367 . S
C3619 C3627 1.433 . S
C3620 H3616 0.929 . S
C3620 C3622 1.378 . S
C3620 C3624 1.350 . S
C3621 C3624 1.463 . S
C3621 C3626 1.350 . S
C3621 N3629 1.427 . S
C3622 H3613 0.930 . S
C3622 C3620 1.378 . S
C3622 C3623 1.367 . S
C3623 C3622 1.367 . S
C3623 C3625 1.433 . S
C3624 C3620 1.350 . S
C3624 C3621 1.463 . S
C3624 N3628 1.427 . S
C3625 H3615 0.929 . S
C3625 C3623 1.433 . S
C3625 N3628 1.384 . S
C3626 H3617 0.929 . S
C3626 C3618 1.378 . S
C3626 C3621 1.350 . S
C3627 H3614 0.929 . S
C3627 C3619 1.433 . S
C3627 N3629 1.384 . S
N3628 C3624 1.427 . S
N3628 C3625 1.384 . S
N3629 C3621 1.427 . S
N3629 C3627 1.384 . S
H3630 C3636 0.930 . S
H3631 C3640 0.930 . S
H3632 C3645 0.929 . S
H3633 C3643 0.929 . S
H3634 C3638 0.929 . S
H3635 C3644 0.929 . S
C3636 H3630 0.930 . S
C3636 C3637 1.367 . S
C3636 C3644 1.378 . S
C3637 C3636 1.367 . S
C3637 C3645 1.433 . S
C3638 H3634 0.929 . S
C3638 C3640 1.378 . S
C3638 C3642 1.350 . S
C3639 C3642 1.463 . S
C3639 C3644 1.350 . S
C3639 N3647 1.427 . S
C3640 H3631 0.930 . S
C3640 C3638 1.378 . S
C3640 C3641 1.367 . S
C3641 C3640 1.367 . S
C3641 C3643 1.433 . S
C3642 C3638 1.350 . S
C3642 C3639 1.463 . S
C3642 N3646 1.427 . S
C3643 H3633 0.929 . S
C3643 C3641 1.433 . S
C3643 N3646 1.384 . S
C3644 H3635 0.929 . S
C3644 C3636 1.378 . S
C3644 C3639 1.350 . S
C3645 H3632 0.929 . S
C3645 C3637 1.433 . S
C3645 N3647 1.384 . S
N3646 C3642 1.427 . S
N3646 C3643 1.384 . S
N3647 C3639 1.427 . S
N3647 C3645 1.384 . S
H3648 C3654 0.930 . S
H3649 C3658 0.930 . S
H3650 C3663 0.929 . S
H3651 C3661 0.929 . S
H3652 C3656 0.929 . S
H3653 C3662 0.929 . S
C3654 H3648 0.930 . S
C3654 C3655 1.367 . S
C3654 C3662 1.378 . S
C3655 C3654 1.367 . S
C3655 C3663 1.433 . S
C3656 H3652 0.929 . S
C3656 C3658 1.378 . S
C3656 C3660 1.350 . S
C3657 C3660 1.463 . S
C3657 C3662 1.350 . S
C3657 N3665 1.427 . S
C3658 H3649 0.930 . S
C3658 C3656 1.378 . S
C3658 C3659 1.367 . S
C3659 C3658 1.367 . S
C3659 C3661 1.433 . S
C3660 C3656 1.350 . S
C3660 C3657 1.463 . S
C3660 N3664 1.427 . S
C3661 H3651 0.929 . S
C3661 C3659 1.433 . S
C3661 N3664 1.384 . S
C3662 H3653 0.929 . S
C3662 C3654 1.378 . S
C3662 C3657 1.350 . S
C3663 H3650 0.929 . S
C3663 C3655 1.433 . S
C3663 N3665 1.384 . S
N3664 C3660 1.427 . S
N3664 C3661 1.384 . S
N3665 C3657 1.427 . S
N3665 C3663 1.384 . S
H3666 C3672 0.930 . S
H3667 C3676 0.930 . S
H3668 C3681 0.929 . S
H3669 C3679 0.929 . S
H3670 C3674 0.929 . S
H3671 C3680 0.929 . S
C3672 H3666 0.930 . S
C3672 C3673 1.367 . S
C3672 C3680 1.378 . S
C3673 C3672 1.367 . S
C3673 C3681 1.433 . S
C3674 H3670 0.929 . S
C3674 C3676 1.378 . S
C3674 C3678 1.350 . S
C3675 C3678 1.463 . S
C3675 C3680 1.350 . S
C3675 N3683 1.427 . S
C3676 H3667 0.930 . S
C3676 C3674 1.378 . S
C3676 C3677 1.367 . S
C3677 C3676 1.367 . S
C3677 C3679 1.433 . S
C3678 C3674 1.350 . S
C3678 C3675 1.463 . S
C3678 N3682 1.427 . S
C3679 H3669 0.929 . S
C3679 C3677 1.433 . S
C3679 N3682 1.384 . S
C3680 H3671 0.929 . S
C3680 C3672 1.378 . S
C3680 C3675 1.350 . S
C3681 H3668 0.929 . S
C3681 C3673 1.433 . S
C3681 N3683 1.384 . S
N3682 C3678 1.427 . S
N3682 C3679 1.384 . S
N3683 C3675 1.427 . S
N3683 C3681 1.384 . S
H3684 C3690 0.930 . S
H3685 C3694 0.930 . S
H3686 C3699 0.929 . S
H3687 C3697 0.929 . S
H3688 C3692 0.929 . S
H3689 C3698 0.929 . S
C3690 H3684 0.930 . S
C3690 C3691 1.367 . S
C3690 C3698 1.378 . S
C3691 C3690 1.367 . S
C3691 C3699 1.433 . S
C3692 H3688 0.929 . S
C3692 C3694 1.378 . S
C3692 C3696 1.350 . S
C3693 C3696 1.463 . S
C3693 C3698 1.350 . S
C3693 N3701 1.427 . S
C3694 H3685 0.930 . S
C3694 C3692 1.378 . S
C3694 C3695 1.367 . S
C3695 C3694 1.367 . S
C3695 C3697 1.433 . S
C3696 C3692 1.350 . S
C3696 C3693 1.463 . S
C3696 N3700 1.427 . S
C3697 H3687 0.929 . S
C3697 C3695 1.433 . S
C3697 N3700 1.384 . S
C3698 H3689 0.929 . S
C3698 C3690 1.378 . S
C3698 C3693 1.350 . S
C3699 H3686 0.929 . S
C3699 C3691 1.433 . S
C3699 N3701 1.384 . S
N3700 C3696 1.427 . S
N3700 C3697 1.384 . S
N3701 C3693 1.427 . S
N3701 C3699 1.384 . S
H3702 C3708 0.930 . S
H3703 C3712 0.930 . S
H3704 C3717 0.929 . S
H3705 C3715 0.929 . S
H3706 C3710 0.929 . S
H3707 C3716 0.929 . S
C3708 H3702 0.930 . S
C3708 C3709 1.367 . S
C3708 C3716 1.378 . S
C3709 C3708 1.367 . S
C3709 C3717 1.433 . S
C3710 H3706 0.929 . S
C3710 C3712 1.378 . S
C3710 C3714 1.350 . S
C3711 C3714 1.463 . S
C3711 C3716 1.350 . S
C3711 N3719 1.427 . S
C3712 H3703 0.930 . S
C3712 C3710 1.378 . S
C3712 C3713 1.367 . S
C3713 C3712 1.367 . S
C3713 C3715 1.433 . S
C3714 C3710 1.350 . S
C3714 C3711 1.463 . S
C3714 N3718 1.427 . S
C3715 H3705 0.929 . S
C3715 C3713 1.433 . S
C3715 N3718 1.384 . S
C3716 H3707 0.929 . S
C3716 C3708 1.378 . S
C3716 C3711 1.350 . S
C3717 H3704 0.929 . S
C3717 C3709 1.433 . S
C3717 N3719 1.384 . S
N3718 C3714 1.427 . S
N3718 C3715 1.384 . S
N3719 C3711 1.427 . S
N3719 C3717 1.384 . S
H3720 C3726 0.930 . S
H3721 C3730 0.930 . S
H3722 C3735 0.929 . S
H3723 C3733 0.929 . S
H3724 C3728 0.929 . S
H3725 C3734 0.929 . S
C3726 H3720 0.930 . S
C3726 C3727 1.367 . S
C3726 C3734 1.378 . S
C3727 C3726 1.367 . S
C3727 C3735 1.433 . S
C3728 H3724 0.929 . S
C3728 C3730 1.378 . S
C3728 C3732 1.350 . S
C3729 C3732 1.463 . S
C3729 C3734 1.350 . S
C3729 N3737 1.427 . S
C3730 H3721 0.930 . S
C3730 C3728 1.378 . S
C3730 C3731 1.367 . S
C3731 C3730 1.367 . S
C3731 C3733 1.433 . S
C3732 C3728 1.350 . S
C3732 C3729 1.463 . S
C3732 N3736 1.427 . S
C3733 H3723 0.929 . S
C3733 C3731 1.433 . S
C3733 N3736 1.384 . S
C3734 H3725 0.929 . S
C3734 C3726 1.378 . S
C3734 C3729 1.350 . S
C3735 H3722 0.929 . S
C3735 C3727 1.433 . S
C3735 N3737 1.384 . S
N3736 C3732 1.427 . S
N3736 C3733 1.384 . S
N3737 C3729 1.427 . S
N3737 C3735 1.384 . S
H3738 C3744 0.930 . S
H3739 C3748 0.930 . S
H3740 C3753 0.929 . S
H3741 C3751 0.929 . S
H3742 C3746 0.929 . S
H3743 C3752 0.929 . S
C3744 H3738 0.930 . S
C3744 C3745 1.367 . S
C3744 C3752 1.378 . S
C3745 C3744 1.367 . S
C3745 C3753 1.433 . S
C3746 H3742 0.929 . S
C3746 C3748 1.378 . S
C3746 C3750 1.350 . S
C3747 C3750 1.463 . S
C3747 C3752 1.350 . S
C3747 N3755 1.427 . S
C3748 H3739 0.930 . S
C3748 C3746 1.378 . S
C3748 C3749 1.367 . S
C3749 C3748 1.367 . S
C3749 C3751 1.433 . S
C3750 C3746 1.350 . S
C3750 C3747 1.463 . S
C3750 N3754 1.427 . S
C3751 H3741 0.929 . S
C3751 C3749 1.433 . S
C3751 N3754 1.384 . S
C3752 H3743 0.929 . S
C3752 C3744 1.378 . S
C3752 C3747 1.350 . S
C3753 H3740 0.929 . S
C3753 C3745 1.433 . S
C3753 N3755 1.384 . S
N3754 C3750 1.427 . S
N3754 C3751 1.384 . S
N3755 C3747 1.427 . S
N3755 C3753 1.384 . S
H3756 C3762 0.930 . S
H3757 C3766 0.930 . S
H3758 C3771 0.929 . S
H3759 C3769 0.929 . S
H3760 C3764 0.929 . S
H3761 C3770 0.929 . S
C3762 H3756 0.930 . S
C3762 C3763 1.367 . S
C3762 C3770 1.378 . S
C3763 C3762 1.367 . S
C3763 C3771 1.433 . S
C3764 H3760 0.929 . S
C3764 C3766 1.378 . S
C3764 C3768 1.350 . S
C3765 C3768 1.463 . S
C3765 C3770 1.350 . S
C3765 N3773 1.427 . S
C3766 H3757 0.930 . S
C3766 C3764 1.378 . S
C3766 C3767 1.367 . S
C3767 C3766 1.367 . S
C3767 C3769 1.433 . S
C3768 C3764 1.350 . S
C3768 C3765 1.463 . S
C3768 N3772 1.427 . S
C3769 H3759 0.929 . S
C3769 C3767 1.433 . S
C3769 N3772 1.384 . S
C3770 H3761 0.929 . S
C3770 C3762 1.378 . S
C3770 C3765 1.350 . S
C3771 H3758 0.929 . S
C3771 C3763 1.433 . S
C3771 N3773 1.384 . S
N3772 C3768 1.427 . S
N3772 C3769 1.384 . S
N3773 C3765 1.427 . S
N3773 C3771 1.384 . S
H3774 C3780 0.930 . S
H3775 C3784 0.930 . S
H3776 C3789 0.929 . S
H3777 C3787 0.929 . S
H3778 C3782 0.929 . S
H3779 C3788 0.929 . S
C3780 H3774 0.930 . S
C3780 C3781 1.367 . S
C3780 C3788 1.378 . S
C3781 C3780 1.367 . S
C3781 C3789 1.433 . S
C3782 H3778 0.929 . S
C3782 C3784 1.378 . S
C3782 C3786 1.350 . S
C3783 C3786 1.463 . S
C3783 C3788 1.350 . S
C3783 N3791 1.427 . S
C3784 H3775 0.930 . S
C3784 C3782 1.378 . S
C3784 C3785 1.367 . S
C3785 C3784 1.367 . S
C3785 C3787 1.433 . S
C3786 C3782 1.350 . S
C3786 C3783 1.463 . S
C3786 N3790 1.427 . S
C3787 H3777 0.929 . S
C3787 C3785 1.433 . S
C3787 N3790 1.384 . S
C3788 H3779 0.929 . S
C3788 C3780 1.378 . S
C3788 C3783 1.350 . S
C3789 H3776 0.929 . S
C3789 C3781 1.433 . S
C3789 N3791 1.384 . S
N3790 C3786 1.427 . S
N3790 C3787 1.384 . S
N3791 C3783 1.427 . S
N3791 C3789 1.384 . S
C1639 C292 0.831 . S
C1643 C5 0.822 . S
C1657 C326 0.813 . S
C1661 C39 0.814 1_556 S
C1675 C73 0.832 . S
C1679 C360 0.816 . S
C1693 C107 0.812 1_556 S
C1697 C394 0.819 . S
C1711 C141 0.830 . S
C1715 C428 0.821 . S
C1729 C462 0.808 . S
C1733 C175 0.767 1_454 S
C1747 C496 0.832 . S
C1751 C209 0.819 . S
C1765 C243 0.782 1_654 S
C1769 C530 0.831 . S
C1783 C277 0.819 . S
C1787 C564 0.832 . S
C1801 C311 0.782 1_554 S
C1805 C1618 0.811 . S
C1819 C345 0.832 . S
C1823 C1550 0.807 . S
C1837 C379 0.763 1_544 S
C1841 C1584 0.820 . S
C1855 C598 0.828 . S
C1859 C413 0.825 . S
C1873 C632 0.814 . S
C1877 C447 0.802 1_556 S
C1891 C481 0.824 . S
C1895 C666 0.811 . S
C1909 C515 0.779 1_546 S
C1913 C1516 0.832 . S
C1927 C549 0.818 . S
C1931 C20 0.832 . S
C1945 C156 0.822 . S
C1949 C583 0.829 . S
C1963 C617 0.811 1_655 S
C1967 C190 0.821 . S
C1981 C224 0.818 . S
C1985 C651 0.820 . S
C1999 C685 0.819 . S
C2003 C1074 0.819 . S
C2017 C719 0.830 . S
C2021 C904 0.821 . S
C2035 C753 0.815 1_655 S
C2039 C938 0.809 . S
C2053 C787 0.771 1_445 S
C2057 C870 0.830 . S
C2071 C1108 0.813 . S
C2075 C821 0.833 . S
C2089 C1142 0.809 . S
C2093 C855 0.797 1_655 S
C2107 C1176 0.818 . S
C2111 C889 0.820 . S
C2125 C923 0.781 1_455 S
C2129 C1210 0.823 . S
C2143 C1244 0.821 . S
C2147 C957 0.830 . S
C2161 C1278 0.815 . S
C2165 C991 0.822 . S
C2179 C1025 0.832 . S
C2183 C1312 0.807 . S
C2197 C1059 0.828 . S
C2201 C1346 0.808 . S
C2215 C1093 0.823 . S
C2219 C1380 0.830 . S
C2233 C802 0.827 . S
C2237 C1127 0.800 1_565 S
C2251 C734 0.808 . S
C2255 C1161 0.832 . S
C2269 C1195 0.820 . S
C2273 C768 0.832 . S
C2287 C1229 0.827 . S
C2291 C1414 0.826 . S
C2305 C1263 0.800 1_565 S
C2309 C1448 0.832 . S
C2323 C1482 0.809 . S
C2327 C1297 0.833 . S
C2341 C1331 0.823 . S
C2345 C700 0.813 . S
C2359 C836 0.828 . S
C2363 C1365 0.817 . S
C2377 C1399 0.832 . S
C2381 C972 0.808 . S
C2395 C1433 0.803 1_545 S
C2399 C1006 0.830 . S
C2413 C1040 0.831 . S
C2417 C1467 0.817 . S
C2431 C1501 0.783 1_465 S
C2435 C258 0.814 . S
C2449 C1535 0.822 . S
C2453 C88 0.831 . S
C2467 C122 0.823 . S
C2471 C1569 0.782 1_565 S
C2485 C54 0.832 . S
C2489 C1603 0.818 . S
C2503 C33 2.165 . S
C2507 C101 2.166 . S
C2521 C67 2.164 . S
C2525 C135 2.164 . S
C2539 C237 2.164 . S
C2543 C169 2.164 . S
C2557 C203 2.167 . S
C2561 C271 2.167 . S
C2575 C441 2.164 . S
C2579 C305 2.164 . S
C2593 C339 2.166 . S
C2597 C475 2.165 . S
C2611 C509 2.167 . S
C2615 C373 2.166 . S
C2629 C543 2.166 . S
C2633 C407 2.165 . S
C2647 C1495 2.166 . S
C2651 C577 2.167 . S
C2665 C611 2.166 . S
C2669 C747 2.167 . S
C2683 C645 2.167 . S
C2687 C781 2.167 . S
C2701 C679 2.167 . S
C2705 C1393 2.167 . S
C2719 C1631 2.167 . S
C2723 C713 2.167 . S
C2737 C1529 2.167 . S
C2741 C815 2.167 . S
C2755 C917 2.166 . S
C2759 C849 2.164 . S
C2773 C951 2.164 . S
C2777 C883 2.164 . S
C2791 C1053 2.166 . S
C2795 C985 2.165 . S
C2809 C1087 2.164 . S
C2813 C1019 2.164 . S
C2827 C1121 2.167 . S
C2831 C1257 2.167 . S
C2845 C1291 2.164 . S
C2849 C1155 2.165 . S
C2863 C1189 2.167 . S
C2867 C1325 2.166 . S
C2881 C1359 2.164 . S
C2885 C1223 2.165 . S
C2899 C1563 2.165 . S
C2903 C1427 2.166 . S
C2917 C1461 2.167 . S
C2921 C1597 2.167 . S
C2935 C444 1.864 . S
C2939 C9 1.853 . S
C2953 C478 1.868 . S
C2957 C43 1.853 . S
C2971 C77 1.861 . S
C2975 C512 1.862 1_545 S
C2989 C111 1.858 . S
C2993 C410 1.867 . S
C3007 C145 1.853 . S
C3011 C1192 1.864 . S
C3025 C1090 1.862 . S
C3029 C179 1.855 . S
C3043 C1124 1.868 1_565 S
C3047 C213 1.856 . S
C3061 C247 1.852 . S
C3065 C1158 1.866 . S
C3079 C281 1.853 . S
C3083 C852 1.868 . S
C3097 C886 1.868 . S
C3101 C315 1.856 . S
C3115 C920 1.860 . S
C3119 C349 1.859 . S
C3133 C383 1.852 . S
C3137 C818 1.866 . S
C3151 C417 1.858 . S
C3155 C240 1.867 1_554 S
C3169 C451 1.860 . S
C3173 C138 1.865 . S
C3187 C172 1.860 1_554 S
C3191 C485 1.858 . S
C3205 C519 1.856 . S
C3209 C206 1.861 . S
C3223 C1566 1.861 . S
C3227 C553 1.856 . S
C3241 C587 1.860 . S
C3245 C1430 1.860 . S
C3259 C1464 1.860 . S
C3263 C621 1.859 . S
C3277 C655 1.856 . S
C3281 C682 1.868 . S
C3295 C580 1.868 . S
C3299 C689 1.853 . S
C3313 C723 1.857 . S
C3317 C784 1.861 1_455 S
C3331 C757 1.858 . S
C3335 C716 1.860 . S
C3349 C1362 1.865 . S
C3353 C791 1.852 . S
C3367 C1260 1.862 1_565 S
C3371 C825 1.854 . S
C3385 C1294 1.865 . S
C3389 C859 1.860 . S
C3403 C893 1.856 . S
C3407 C1328 1.861 . S
C3421 C927 1.861 . S
C3425 C1226 1.861 . S
C3439 C376 1.866 1_545 S
C3443 C961 1.852 . S
C3457 C995 1.852 . S
C3461 C274 1.867 . S
C3475 C1029 1.854 . S
C3479 C308 1.863 . S
C3493 C1063 1.854 . S
C3497 C342 1.868 . S
C3511 C1097 1.857 . S
C3515 C36 1.861 1_556 S
C3529 C1131 1.861 . S
C3533 C70 1.861 . S
C3547 C1165 1.855 . S
C3551 C104 1.862 1_556 S
C3565 C1199 1.860 . S
C3569 C2 1.865 . S
C3583 C1056 1.861 . S
C3587 C1233 1.857 . S
C3601 C954 1.866 . S
C3605 C1267 1.852 . S
C3619 C1301 1.855 . S
C3623 C988 1.862 . S
C3637 C1335 1.855 . S
C3641 C1022 1.868 . S
C3655 C750 1.861 1_655 S
C3659 C1369 1.856 . S
C3673 C1403 1.856 . S
C3677 C614 1.868 1_655 S
C3691 C648 1.868 . S
C3695 C1437 1.854 . S
C3709 C1471 1.855 . S
C3713 C1498 1.868 1_455 S
C3727 C1396 1.860 . S
C3731 C1505 1.861 . S
C3745 C1600 1.861 . S
C3749 C1539 1.861 . S
C3763 C1532 1.861 . S
C3767 C1573 1.855 . S
C3781 C1607 1.857 . S
C3785 C546 1.861 . S
