# Generated by pormake.
# Topology etb, (3)-cn, num edge types: 1
# Building blocks:
#     Node 0, Type 0, BuildingBlock: WUSLED_clean_sbu_0, # of connection points: 3
#     Node 1, Type 0, BuildingBlock: WUSLED_clean_sbu_0, # of connection points: 3
#     Node 2, Type 0, BuildingBlock: WUSLED_clean_sbu_0, # of connection points: 3
#     Node 3, Type 0, BuildingBlock: WUSLED_clean_sbu_0, # of connection points: 3
#     Node 4, Type 0, BuildingBlock: WUSLED_clean_sbu_0, # of connection points: 3
#     Node 5, Type 0, BuildingBlock: WUSLED_clean_sbu_0, # of connection points: 3
#     Node 6, Type 0, BuildingBlock: WUSLED_clean_sbu_0, # of connection points: 3
#     Node 7, Type 0, BuildingBlock: WUSLED_clean_sbu_0, # of connection points: 3
#     Node 8, Type 0, BuildingBlock: WUSLED_clean_sbu_0, # of connection points: 3
#     Node 9, Type 0, BuildingBlock: WUSLED_clean_sbu_0, # of connection points: 3
#     Node 10, Type 0, BuildingBlock: WUSLED_clean_sbu_0, # of connection points: 3
#     Node 11, Type 0, BuildingBlock: WUSLED_clean_sbu_0, # of connection points: 3
#     Node 12, Type 0, BuildingBlock: WUSLED_clean_sbu_0, # of connection points: 3
#     Node 13, Type 0, BuildingBlock: WUSLED_clean_sbu_0, # of connection points: 3
#     Node 14, Type 0, BuildingBlock: WUSLED_clean_sbu_0, # of connection points: 3
#     Node 15, Type 0, BuildingBlock: WUSLED_clean_sbu_0, # of connection points: 3
#     Node 16, Type 0, BuildingBlock: WUSLED_clean_sbu_0, # of connection points: 3
#     Node 17, Type 0, BuildingBlock: WUSLED_clean_sbu_0, # of connection points: 3
#     Edge 18, Type (0, 0), BuildingBlock: TEMPAE_clean_linker_10, # of connection points: 2
#     Edge 19, Type (0, 0), BuildingBlock: TEMPAE_clean_linker_10, # of connection points: 2
#     Edge 20, Type (0, 0), BuildingBlock: TEMPAE_clean_linker_10, # of connection points: 2
#     Edge 21, Type (0, 0), BuildingBlock: TEMPAE_clean_linker_10, # of connection points: 2
#     Edge 22, Type (0, 0), BuildingBlock: TEMPAE_clean_linker_10, # of connection points: 2
#     Edge 23, Type (0, 0), BuildingBlock: TEMPAE_clean_linker_10, # of connection points: 2
#     Edge 24, Type (0, 0), BuildingBlock: TEMPAE_clean_linker_10, # of connection points: 2
#     Edge 25, Type (0, 0), BuildingBlock: TEMPAE_clean_linker_10, # of connection points: 2
#     Edge 26, Type (0, 0), BuildingBlock: TEMPAE_clean_linker_10, # of connection points: 2
#     Edge 27, Type (0, 0), BuildingBlock: TEMPAE_clean_linker_10, # of connection points: 2
#     Edge 28, Type (0, 0), BuildingBlock: TEMPAE_clean_linker_10, # of connection points: 2
#     Edge 29, Type (0, 0), BuildingBlock: TEMPAE_clean_linker_10, # of connection points: 2
#     Edge 30, Type (0, 0), BuildingBlock: TEMPAE_clean_linker_10, # of connection points: 2
#     Edge 31, Type (0, 0), BuildingBlock: TEMPAE_clean_linker_10, # of connection points: 2
#     Edge 32, Type (0, 0), BuildingBlock: TEMPAE_clean_linker_10, # of connection points: 2
#     Edge 33, Type (0, 0), BuildingBlock: TEMPAE_clean_linker_10, # of connection points: 2
#     Edge 34, Type (0, 0), BuildingBlock: TEMPAE_clean_linker_10, # of connection points: 2
#     Edge 35, Type (0, 0), BuildingBlock: TEMPAE_clean_linker_10, # of connection points: 2
#     Edge 36, Type (0, 0), BuildingBlock: TEMPAE_clean_linker_10, # of connection points: 2
#     Edge 37, Type (0, 0), BuildingBlock: TEMPAE_clean_linker_10, # of connection points: 2
#     Edge 38, Type (0, 0), BuildingBlock: TEMPAE_clean_linker_10, # of connection points: 2
#     Edge 39, Type (0, 0), BuildingBlock: TEMPAE_clean_linker_10, # of connection points: 2
#     Edge 40, Type (0, 0), BuildingBlock: TEMPAE_clean_linker_10, # of connection points: 2
#     Edge 41, Type (0, 0), BuildingBlock: TEMPAE_clean_linker_10, # of connection points: 2
#     Edge 42, Type (0, 0), BuildingBlock: TEMPAE_clean_linker_10, # of connection points: 2
#     Edge 43, Type (0, 0), BuildingBlock: TEMPAE_clean_linker_10, # of connection points: 2
#     Edge 44, Type (0, 0), BuildingBlock: TEMPAE_clean_linker_10, # of connection points: 2
# Relax obj value: 0.000
# Max RMSD: 0.008
# Mean RMSD: 0.006
data_MOF--net-etb--node1-WUSLED_clean_sbu_0--edge1-TEMPAE_clean_linker_10
_symmetry_space_group_name_H-M    P1
_symmetry_Int_Tables_number       1
_symmetry_cell_setting            triclinic
loop_
_symmetry_equiv_pos_as_xyz
'x, y, z'
_cell_length_a     118.08914
_cell_length_b     117.57469
_cell_length_c     55.801015
_cell_angle_alpha  90.228644
_cell_angle_beta   89.656455
_cell_angle_gamma 118.39195
loop_
_atom_site_label
_atom_site_type_symbol
_atom_site_fract_x
_atom_site_fract_y
_atom_site_fract_z
_atom_type_partial_charge
C0 C 0.46866 0.01623 0.1014 0.0
C1 C 0.45547 1.00928 0.09595 0.0
C2 C 0.44986 1.00901 0.13828 0.0
C3 C 0.44618 1.00569 0.11421 0.0
C4 C 0.46307 0.01615 0.14352 0.0
C5 C 0.47233 0.01969 0.1253 0.0
U6 U 0.48394 0.02764 0.03834 0.0
O7 O 0.50426 0.04027 0.0288 0.0
O8 O 0.49449 0.02019 1.01609 0.0
C9 C 0.50543 0.03099 0.01771 0.0
C10 C 0.4788 0.01944 0.08294 0.0
C11 C 0.51711 0.02971 0.02276 0.0
C12 C 0.53718 0.03604 0.04428 0.0
C13 C 0.5256 0.03651 0.0415 0.0
C14 C 0.53188 0.02176 1.01004 0.0
C15 C 0.54057 0.02879 0.02837 0.0
C16 C 0.52035 0.02225 1.00725 0.0
C17 C 0.46598 0.03684 0.9901 0.0
C18 C 0.47083 0.05399 0.96091 0.0
C19 C 0.45356 0.03245 0.95323 0.0
C20 C 0.45609 0.02824 0.97502 0.0
C21 C 0.4608 0.04542 0.94598 0.0
C22 C 0.47339 0.04977 0.9827 0.0
C23 C 0.46757 0.03241 1.0142 0.0
O24 O 0.47587 1.01166 0.06433 0.0
O25 O 0.48559 0.03172 0.07719 0.0
O26 O 0.47654 0.04094 0.02818 0.0
O27 O 0.46679 0.02089 1.0154 0.0
H28 H 0.45236 1.00652 0.07764 0.0
H29 H 0.4361 1.00033 0.10948 0.0
H30 H 0.46629 0.01875 0.16182 0.0
H31 H 0.48243 0.02497 0.12998 0.0
H32 H 0.54366 0.04167 0.05848 0.0
H33 H 0.52344 0.0424 0.05372 0.0
H34 H 0.53401 0.01589 0.9977 0.0
H35 H 0.51402 0.01696 0.9926 0.0
H36 H 0.47669 0.06401 0.9558 0.0
H37 H 0.44565 0.0256 0.9424 0.0
H38 H 0.45008 0.01828 0.98036 0.0
H39 H 0.48103 0.05671 0.99389 0.0
C40 C 0.07005 0.41429 0.97092 0.0
C41 C 0.06209 0.40116 0.97635 0.0
C42 C 0.06202 0.39525 0.93425 0.0
C43 C 0.05812 0.39176 0.95822 0.0
C44 C 0.07025 0.40838 0.92907 0.0
C45 C 0.07417 0.41776 0.94716 0.0
U46 U 0.083 0.43021 0.03287 0.0
O47 O 0.09568 0.45069 0.04146 0.0
O48 O 0.0761 0.44082 0.05634 0.0
C49 C 0.08675 0.45184 0.05378 0.0
C50 C 0.0736 0.42464 0.98919 0.0
C51 C 0.08525 0.46348 0.04927 0.0
C52 C 0.08935 0.4825 0.02565 0.0
C53 C 0.08988 0.47088 0.02826 0.0
C54 C 0.07925 0.47932 0.06466 0.0
C55 C 0.08414 0.48694 0.04394 0.0
C56 C 0.07982 0.46777 0.06728 0.0
C57 C 0.09417 0.41268 0.07865 0.0
C58 C 0.09418 0.41203 0.12235 0.0
C59 C 0.10833 0.40638 0.09972 0.0
C60 C 0.10367 0.40873 0.07834 0.0
C61 C 0.10359 0.40788 0.12204 0.0
C62 C 0.08954 0.41443 0.10089 0.0
C63 C 0.08881 0.41408 0.05553 0.0
O64 O 0.06638 0.42177 1.00859 0.0
O65 O 0.08594 0.43169 0.99366 0.0
O66 O 0.09683 0.42313 0.04099 0.0
O67 O 0.07728 0.4132 0.05599 0.0
H68 H 0.05873 0.39817 0.99451 0.0
H69 H 0.0517 0.38179 0.9629 0.0
H70 H 0.07366 0.41144 0.91096 0.0
H71 H 0.08031 0.4278 0.94248 0.0
H72 H 0.09307 0.48803 1.00934 0.0
H73 H 0.0941 0.46782 1.01401 0.0
H74 H 0.07534 0.48249 0.07926 0.0
H75 H 0.07628 0.46231 0.08373 0.0
H76 H 0.09041 0.41343 0.13919 0.0
H77 H 0.11543 0.40303 0.09871 0.0
H78 H 0.10732 0.4072 0.06144 0.0
H79 H 0.08222 0.41749 0.10172 0.0
C80 C 0.68425 0.64254 0.09593 0.0
C81 C 0.69601 0.64529 0.10676 0.0
C82 C 0.69497 0.66172 0.1323 0.0
C83 C 0.7013 0.65476 0.12469 0.0
C84 C 0.68332 0.6591 0.1211 0.0
C85 C 0.67802 0.64961 0.10324 0.0
U86 U 0.68182 0.62537 0.03512 0.0
O87 O 0.67502 0.60468 0.0278 0.0
O88 O 0.66489 0.61441 1.01226 0.0
C89 C 0.665 0.60339 1.01556 0.0
C90 C 0.67783 0.63181 0.07838 0.0
C91 C 0.6525 0.59177 0.02084 0.0
C92 C 0.62932 0.5813 0.02828 0.0
C93 C 0.64119 0.59257 0.02575 0.0
C94 C 0.63987 0.56825 0.02161 0.0
C95 C 0.62847 0.56897 0.02589 0.0
C96 C 0.6517 0.57949 0.01906 0.0
C97 C 0.70992 0.64233 0.98893 0.0
C98 C 0.71125 0.64342 0.94526 0.0
C99 C 0.73033 0.64864 0.9685 0.0
C100 C 0.72311 0.64609 0.98964 0.0
C101 C 0.72457 0.64755 0.94601 0.0
C102 C 0.70399 0.64086 0.96649 0.0
C103 C 0.70299 0.64108 1.01185 0.0
O104 O 0.67335 0.63443 0.05884 0.0
O105 O 0.68323 0.62444 0.0743 0.0
O106 O 0.70235 0.6322 0.02687 0.0
O107 O 0.6923 0.64195 1.01104 0.0
H108 H 0.70105 0.63998 0.10172 0.0
H109 H 0.7102 0.65638 0.13304 0.0
H110 H 0.67825 0.66438 0.12613 0.0
H111 H 0.66891 0.64768 0.09535 0.0
H112 H 0.62076 0.58226 0.03136 0.0
H113 H 0.64144 0.60187 0.02712 0.0
H114 H 0.63966 0.55897 0.02008 0.0
H115 H 0.66023 0.57857 1.01519 0.0
H116 H 0.70649 0.64255 0.9283 0.0
H117 H 0.7405 0.65155 0.96981 0.0
H118 H 0.72791 0.64732 1.00668 0.0
H119 H 0.69384 0.63801 0.96535 0.0
C120 C 0.70015 0.045 0.97119 0.0
C121 C 0.70574 0.03716 0.965 0.0
C122 C 0.71943 0.05293 0.93508 0.0
C123 C 0.71525 0.04107 0.94709 0.0
C124 C 0.71393 0.06081 0.94162 0.0
C125 C 0.70439 0.05687 0.9594 0.0
U126 U 0.68348 0.03071 0.03207 0.0
O127 O 0.67225 0.03694 0.0553 0.0
O128 O 0.66306 0.01746 0.03974 0.0
C129 C 0.66145 0.02617 0.05199 0.0
C130 C 0.68949 0.04085 0.98888 0.0
C131 C 0.64977 0.02748 0.04678 0.0
C132 C 0.62895 0.01993 0.02727 0.0
C133 C 0.64049 0.01942 0.0301 0.0
C134 C 0.63575 0.03673 0.05738 0.0
C135 C 0.62636 0.0285 0.04105 0.0
C136 C 0.64727 0.03618 0.06026 0.0
C137 C 0.70097 0.01966 0.07805 0.0
C138 C 0.6999 0.01829 0.12168 0.0
C139 C 0.7088 1.00672 0.09923 0.0
C140 C 0.70651 1.01143 0.07783 0.0
C141 C 0.70563 1.01016 0.12149 0.0
C142 C 0.69756 0.02297 0.10018 0.0
C143 C 0.69965 0.02517 0.05506 0.0
O144 O 0.68263 0.02837 0.99286 0.0
O145 O 0.69196 0.04783 1.00851 0.0
O146 O 0.70013 0.03657 0.05588 0.0
O147 O 0.69093 0.01712 0.04012 0.0
H148 H 0.70269 0.02796 0.97382 0.0
H149 H 0.71938 0.03483 0.94272 0.0
H150 H 0.71677 0.06991 0.9326 0.0
H151 H 0.70018 0.06305 0.96372 0.0
H152 H 0.62201 1.01357 1.01433 0.0
H153 H 0.64202 1.01253 0.01948 0.0
H154 H 0.63405 0.04333 0.06851 0.0
H155 H 0.65411 0.04238 0.07352 0.0
H156 H 0.69721 0.02103 0.13846 0.0
H157 H 0.7134 1.00066 0.09834 0.0
H158 H 0.70931 1.00881 0.06101 0.0
H159 H 0.69325 0.0293 0.10088 0.0
C160 C 0.07461 0.63314 0.97322 0.0
C161 C 0.0667 0.63882 0.97797 0.0
C162 C 0.06715 0.64434 0.93564 0.0
C163 C 0.06298 0.64433 0.95936 0.0
C164 C 0.0752 0.63879 0.93109 0.0
C165 C 0.07886 0.63325 0.94964 0.0
U166 U 0.08719 0.6306 0.03604 0.0
O167 O 0.08076 0.61368 0.05967 0.0
O168 O 0.10046 0.623 0.04535 0.0
C169 C 0.09163 0.61322 0.05752 0.0
C170 C 0.07815 0.62654 0.99205 0.0
C171 C 0.09072 0.60039 0.05283 0.0
C172 C 0.07918 0.57809 0.03866 0.0
C173 C 0.08006 0.59037 0.0413 0.0
C174 C 0.0997 0.58574 0.05846 0.0
C175 C 0.08892 0.57556 0.04747 0.0
C176 C 0.10055 0.59797 0.06113 0.0
C177 C 0.09729 0.65934 0.08064 0.0
C178 C 0.10315 0.66008 0.12265 0.0
C179 C 0.10586 0.67953 0.10297 0.0
C180 C 0.10107 0.67258 0.08172 0.0
C181 C 0.107 0.67342 0.12376 0.0
C182 C 0.09836 0.65311 0.10126 0.0
C183 C 0.09218 0.6524 0.05782 0.0
O184 O 0.09047 0.6316 0.99697 0.0
O185 O 0.07077 0.62258 1.01125 0.0
O186 O 0.0809 0.64196 0.05871 0.0
O187 O 0.10046 0.65111 0.04377 0.0
H188 H 0.06329 0.63892 0.996 0.0
H189 H 0.05689 0.64864 0.96356 0.0
H190 H 0.07846 0.63845 0.91305 0.0
H191 H 0.08489 0.62886 0.94547 0.0
H192 H 0.0707 0.57049 0.03026 0.0
H193 H 0.07233 0.59197 0.03469 0.0
H194 H 0.10751 0.58427 0.06506 0.0
H195 H 0.10888 0.60553 0.07002 0.0
H196 H 0.10399 0.65507 0.13823 0.0
H197 H 0.1085 0.68971 0.10318 0.0
H198 H 0.10027 0.67756 0.06605 0.0
H199 H 0.09551 0.64288 0.10079 0.0
C200 C 0.47182 0.42988 0.10042 0.0
C201 C 0.45968 0.41954 0.09493 0.0
C202 C 0.45258 0.41897 0.13641 0.0
C203 C 0.45015 0.41413 0.11277 0.0
C204 C 0.46485 0.42922 0.14175 0.0
C205 C 0.47433 0.4346 0.12396 0.0
U206 U 0.48732 0.43203 0.03795 0.0
O207 O 0.49788 0.44913 1.01503 0.0
O208 O 0.50777 0.43885 0.02914 0.0
C209 C 0.50891 0.44904 0.01748 0.0
C210 C 0.48199 0.4361 0.08204 0.0
C211 C 0.52052 0.46158 0.02278 0.0
C212 C 0.53121 0.48509 0.02709 0.0
C213 C 0.51993 0.47324 0.02449 0.0
C214 C 0.54388 0.47389 0.02678 0.0
C215 C 0.54335 0.48559 0.02803 0.0
C216 C 0.53263 0.46207 0.02411 0.0
C217 C 0.46981 0.40441 0.99135 0.0
C218 C 0.46863 0.40396 0.94769 0.0
C219 C 0.46355 0.38433 0.96943 0.0
C220 C 0.46607 0.39115 0.99108 0.0
C221 C 0.46465 0.39059 0.94743 0.0
C222 C 0.4712 0.4108 0.9694 0.0
C223 C 0.47125 0.41098 1.01478 0.0
O224 O 0.48884 0.43027 0.07698 0.0
O225 O 0.47889 0.44051 0.06295 0.0
O226 O 0.47035 0.42171 1.01492 0.0
O227 O 0.4803 0.41146 0.02901 0.0
H228 H 0.45755 0.41575 0.07684 0.0
H229 H 0.4408 0.40632 0.10794 0.0
H230 H 0.46718 0.43306 0.15978 0.0
H231 H 0.48366 0.44254 0.1286 0.0
H232 H 0.53041 0.49387 0.02825 0.0
H233 H 0.5108 0.47328 0.0234 0.0
H234 H 0.55304 0.47388 0.02709 0.0
H235 H 0.53344 0.4533 0.02248 0.0
H236 H 0.46973 0.40913 0.93109 0.0
H237 H 0.46036 0.37404 0.97001 0.0
H238 H 0.46482 0.38597 1.00774 0.0
H239 H 0.47408 0.42102 0.969 0.0
C240 C 0.14749 0.37429 0.30631 0.0
C241 C 0.13591 0.36523 0.29559 0.0
C242 C 0.13624 0.38182 0.26889 0.0
C243 C 0.13036 0.36896 0.27712 0.0
C244 C 0.14767 0.39091 0.27999 0.0
C245 C 0.15324 0.38718 0.29838 0.0
U246 U 0.15112 0.36142 0.36831 0.0
O247 O 0.15866 0.34795 0.37673 0.0
O248 O 0.16844 0.36783 0.39052 0.0
C249 C 0.1687 0.35682 0.38819 0.0
C250 C 0.15427 0.37039 0.32424 0.0
C251 C 0.18133 0.35746 0.38282 0.0
C252 C 0.20429 0.36955 0.3735 0.0
C253 C 0.19221 0.36903 0.37603 0.0
C254 C 0.19479 0.3469 0.38387 0.0
C255 C 0.20578 0.35853 0.37775 0.0
C256 C 0.18276 0.34639 0.38643 0.0
C257 C 0.12405 0.35256 0.41632 0.0
C258 C 0.11338 0.33561 0.44625 0.0
C259 C 0.11384 0.35626 0.45143 0.0
C260 C 0.12079 0.36064 0.43001 0.0
C261 C 0.10986 0.34361 0.45971 0.0
C262 C 0.12037 0.34002 0.42479 0.0
C263 C 0.13024 0.35712 0.39251 0.0
O264 O 0.15888 0.37787 0.34317 0.0
O265 O 0.14917 0.35801 0.32938 0.0
O266 O 0.13089 0.34855 0.37813 0.0
O267 O 0.14069 0.36842 0.39194 0.0
H268 H 0.13121 0.35521 0.30116 0.0
H269 H 0.12149 0.36173 0.26918 0.0
H270 H 0.15256 0.40086 0.27395 0.0
H271 H 0.16224 0.39434 0.30605 0.0
H272 H 0.21253 0.3787 0.36895 0.0
H273 H 0.19147 0.37776 0.3732 0.0
H274 H 0.19549 0.33816 0.38687 0.0
H275 H 0.17456 0.33736 0.39175 0.0
H276 H 0.1104 0.32579 0.45192 0.0
H277 H 0.11153 0.36279 0.46148 0.0
H278 H 0.12342 0.37032 0.42389 0.0
H279 H 0.12265 0.3335 0.41461 0.0
C280 C 0.73829 0.74796 0.30212 0.0
C281 C 0.73029 0.73487 0.30777 0.0
C282 C 0.72989 0.72878 0.26569 0.0
C283 C 0.72614 0.72539 0.28975 0.0
C284 C 0.73815 0.74187 0.26028 0.0
C285 C 0.74226 0.75132 0.27826 0.0
U286 U 0.75113 0.76375 0.36422 0.0
O287 O 0.76461 0.78414 0.37256 0.0
O288 O 0.7449 0.77516 0.38686 0.0
C289 C 0.75587 0.78587 0.38434 0.0
C290 C 0.7421 0.75839 0.32026 0.0
C291 C 0.75528 0.79798 0.37924 0.0
C292 C 0.74323 0.80974 0.37244 0.0
C293 C 0.7436 0.79803 0.37465 0.0
C294 C 0.76622 0.82155 0.3788 0.0
C295 C 0.75452 0.82168 0.37486 0.0
C296 C 0.76658 0.80987 0.38104 0.0
C297 C 0.76083 0.74565 0.41131 0.0
C298 C 0.75994 0.74461 0.45499 0.0
C299 C 0.77476 0.73944 0.43347 0.0
C300 C 0.77047 0.74189 0.41173 0.0
C301 C 0.76947 0.74062 0.4554 0.0
C302 C 0.75568 0.74711 0.4332 0.0
C303 C 0.75582 0.74711 0.38783 0.0
O304 O 0.73473 0.75587 0.33939 0.0
O305 O 0.75444 0.76496 0.32512 0.0
O306 O 0.76419 0.75584 0.37322 0.0
O307 O 0.74452 0.74676 0.38772 0.0
H308 H 0.72707 0.73198 0.32603 0.0
H309 H 0.71971 0.71545 0.2946 0.0
H310 H 0.74145 0.74485 0.2421 0.0
H311 H 0.74843 0.76133 0.27343 0.0
H312 H 0.73403 0.80944 0.36961 0.0
H313 H 0.73468 0.78904 0.3733 0.0
H314 H 0.77515 0.83052 0.38035 0.0
H315 H 0.77571 0.81015 0.38469 0.0
H316 H 0.75576 0.74576 0.47154 0.0
H317 H 0.78198 0.73624 0.43302 0.0
H318 H 0.77452 0.74059 0.39513 0.0
H319 H 0.74824 0.75001 0.4335 0.0
C320 C 0.34928 0.97314 0.43333 0.0
C321 C 0.35505 0.98639 0.4278 0.0
C322 C 0.36006 0.99203 0.47009 0.0
C323 C 0.36037 0.99572 0.44598 0.0
C324 C 0.35452 0.97875 0.47538 0.0
C325 C 0.34919 0.96944 0.45724 0.0
U326 U 0.34646 0.95796 0.37038 0.0
O327 O 0.33958 0.93755 0.36065 0.0
O328 O 0.3293 0.94768 0.34768 0.0
C329 C 0.32958 0.93665 0.34887 0.0
C330 C 0.34279 0.96298 0.41492 0.0
C331 C 0.31715 0.92498 0.35341 0.0
C332 C 0.29971 0.91063 0.37983 0.0
C333 C 0.31144 0.92196 0.37625 0.0
C334 C 0.29928 0.90532 0.33777 0.0
C335 C 0.2935 0.90211 0.36062 0.0
C336 C 0.31094 0.9166 0.33425 0.0
C337 C 0.37357 0.97613 0.32314 0.0
C338 C 0.38488 0.9701 0.2931 0.0
C339 C 0.38364 0.98992 0.28846 0.0
C340 C 0.37653 0.98731 0.30979 0.0
C341 C 0.38808 0.98145 0.27998 0.0
C342 C 0.37771 0.96746 0.31441 0.0
C343 C 0.36724 0.97439 0.34694 0.0
O344 O 0.33808 0.96608 0.39625 0.0
O345 O 0.34842 0.95601 0.40926 0.0
O346 O 0.36685 0.96521 0.36086 0.0
O347 O 0.35656 0.97531 0.34768 0.0
H348 H 0.35528 0.98953 0.4095 0.0
H349 H 0.36444 1.00583 0.4412 0.0
H350 H 0.3543 0.97551 0.49359 0.0
H351 H 0.34483 0.9593 0.46196 0.0
H352 H 0.29561 0.90843 0.3977 0.0
H353 H 0.31608 0.9283 0.3913 0.0
H354 H 0.29471 0.89916 0.32248 0.0
H355 H 0.31516 0.91878 0.31645 0.0
H356 H 0.388 0.96328 0.28697 0.0
H357 H 0.38604 0.99883 0.27905 0.0
H358 H 0.37361 0.99424 0.3162 0.0
H359 H 0.37563 0.95875 0.32424 0.0
C360 C 0.36568 0.37585 0.305 0.0
C361 C 0.37872 0.38397 0.31041 0.0
C362 C 0.38472 0.38398 0.26837 0.0
C363 C 0.38813 0.38799 0.29229 0.0
C364 C 0.37169 0.37561 0.26321 0.0
C365 C 0.36231 0.37164 0.28128 0.0
U366 U 0.34999 0.36305 0.36726 0.0
O367 O 0.33871 0.36936 0.39002 0.0
O368 O 0.32967 0.34959 0.37575 0.0
C369 C 0.32799 0.35841 0.38742 0.0
C370 C 0.35533 0.37214 0.32325 0.0
C371 C 0.31605 0.35919 0.38199 0.0
C372 C 0.30461 0.37157 0.37537 0.0
C373 C 0.31617 0.37107 0.37819 0.0
C374 C 0.29261 0.34833 0.37959 0.0
C375 C 0.29266 0.36021 0.37626 0.0
C376 C 0.30414 0.34784 0.3825 0.0
C377 C 0.36838 0.35317 0.41355 0.0
C378 C 0.36709 0.35173 0.45717 0.0
C379 C 0.37743 0.34142 0.43508 0.0
C380 C 0.37477 0.34573 0.41356 0.0
C381 C 0.37378 0.34449 0.45723 0.0
C382 C 0.36443 0.35605 0.43553 0.0
C383 C 0.36662 0.35824 0.3904 0.0
O384 O 0.34869 0.35975 0.32818 0.0
O385 O 0.35793 0.37954 0.34236 0.0
O386 O 0.36688 0.36955 0.39072 0.0
O387 O 0.35781 0.34986 0.37602 0.0
H388 H 0.38163 0.3874 0.32854 0.0
H389 H 0.39803 0.39453 0.29695 0.0
H390 H 0.3687 0.37211 0.24515 0.0
H391 H 0.35234 0.36536 0.27664 0.0
H392 H 0.30503 0.38087 0.37259 0.0
H393 H 0.32516 0.38002 0.37777 0.0
H394 H 0.28361 0.33941 0.38073 0.0
H395 H 0.30372 0.33857 0.38571 0.0
H396 H 0.36419 0.35433 0.47387 0.0
H397 H 0.38235 0.33566 0.43432 0.0
H398 H 0.37789 0.34336 0.39684 0.0
H399 H 0.35947 0.36178 0.43602 0.0
C400 C 0.74078 0.9668 0.30422 0.0
C401 C 0.73401 0.97364 0.30952 0.0
C402 C 0.73334 0.97819 0.26696 0.0
C403 C 0.7303 0.97924 0.29106 0.0
C404 C 0.74026 0.97147 0.26188 0.0
C405 C 0.74391 0.96585 0.28028 0.0
U406 U 0.75321 0.96367 0.36691 0.0
O407 O 0.74648 0.94649 0.38999 0.0
O408 O 0.76618 0.95565 0.37571 0.0
C409 C 0.7572 0.94576 0.38742 0.0
C410 C 0.74422 0.96007 0.32291 0.0
C411 C 0.75604 0.93284 0.38198 0.0
C412 C 0.7432 0.90945 0.37715 0.0
C413 C 0.744 0.92167 0.38012 0.0
C414 C 0.76643 0.91929 0.37744 0.0
C415 C 0.75441 0.90808 0.37598 0.0
C416 C 0.76723 0.93148 0.3805 0.0
C417 C 0.76372 0.99184 0.41288 0.0
C418 C 0.76509 0.99177 0.45646 0.0
C419 C 0.77583 1.01199 0.43483 0.0
C420 C 0.7714 1.00532 0.41318 0.0
C421 C 0.77266 1.00534 0.45681 0.0
C422 C 0.76068 0.98508 0.43471 0.0
C423 C 0.75859 0.98531 0.38967 0.0
O424 O 0.75652 0.96499 0.32783 0.0
O425 O 0.73681 0.95613 0.34208 0.0
O426 O 0.74715 0.97505 0.38998 0.0
O427 O 0.76678 0.98403 0.37535 0.0
H428 H 0.73149 0.97456 0.32786 0.0
H429 H 0.7251 0.98445 0.29565 0.0
H430 H 0.74262 0.97029 0.24357 0.0
H431 H 0.74905 0.96056 0.27573 0.0
H432 H 0.73378 0.90106 0.37585 0.0
H433 H 0.73516 0.92231 0.38132 0.0
H434 H 0.77527 0.91862 0.37698 0.0
H435 H 0.77664 0.93986 0.38223 0.0
H436 H 0.76259 0.98631 0.473 0.0
H437 H 0.78147 0.02243 0.43436 0.0
H438 H 0.7738 1.01075 0.39659 0.0
H439 H 0.7548 0.97466 0.43498 0.0
C440 C 0.15313 0.74886 0.30836 0.0
C441 C 0.13968 0.74186 0.30608 0.0
C442 C 0.14184 0.73028 0.27132 0.0
C443 C 0.13409 0.73269 0.2877 0.0
C444 C 0.15529 0.73719 0.274 0.0
C445 C 0.16085 0.74636 0.29227 0.0
U446 U 0.15519 0.76416 0.37087 0.0
O447 O 0.17208 0.77431 0.39427 0.0
O448 O 0.16213 0.78459 0.38046 0.0
C449 C 0.17198 0.78541 0.39266 0.0
C450 C 0.15941 0.75908 0.32671 0.0
C451 C 0.18455 0.79695 0.38826 0.0
C452 C 0.2014 0.81204 0.36164 0.0
C453 C 0.18954 0.80084 0.36505 0.0
C454 C 0.20343 0.81546 0.40454 0.0
C455 C 0.20851 0.8195 0.38137 0.0
C456 C 0.19161 0.80433 0.4079 0.0
C457 C 0.12754 0.74572 0.41704 0.0
C458 C 0.11838 0.75286 0.44936 0.0
C459 C 0.11487 0.73084 0.44877 0.0
C460 C 0.12217 0.73345 0.4277 0.0
C461 C 0.11269 0.74044 0.45972 0.0
C462 C 0.12572 0.75548 0.42823 0.0
C463 C 0.13416 0.74766 0.39356 0.0
O464 O 0.15374 0.76608 0.33194 0.0
O465 O 0.16383 0.75592 0.34568 0.0
O466 O 0.14483 0.74676 0.3933 0.0
O467 O 0.13473 0.75698 0.37979 0.0
H468 H 0.13349 0.74356 0.31836 0.0
H469 H 0.1237 0.72746 0.28636 0.0
H470 H 0.16158 0.73574 0.26159 0.0
H471 H 0.17125 0.75167 0.29363 0.0
H472 H 0.20506 0.81476 0.34356 0.0
H473 H 0.18426 0.79526 0.34962 0.0
H474 H 0.20849 0.82103 0.42013 0.0
H475 H 0.18791 0.80153 0.42595 0.0
H476 H 0.11685 0.76047 0.45716 0.0
H477 H 0.11086 0.72124 0.45641 0.0
H478 H 0.12342 0.72577 0.41944 0.0
H479 H 0.12974 0.76504 0.42042 0.0
C480 C 0.80154 0.68057 0.76191 0.0
C481 C 0.79825 0.68939 0.77299 0.0
C482 C 0.78273 0.67238 0.79907 0.0
C483 C 0.78896 0.68534 0.7913 0.0
C484 C 0.78583 0.66354 0.78754 0.0
C485 C 0.79513 0.66759 0.7693 0.0
U486 U 0.81813 0.6942 0.70048 0.0
O487 O 0.83847 0.70804 0.69281 0.0
O488 O 0.82997 0.6883 0.67844 0.0
C489 C 0.84048 0.69943 0.68111 0.0
C490 C 0.81228 0.68483 0.74425 0.0
C491 C 0.85251 0.69897 0.68669 0.0
C492 C 0.86401 0.68785 0.70159 0.0
C493 C 0.85248 0.68838 0.69839 0.0
C494 C 0.87578 0.70859 0.68198 0.0
C495 C 0.87581 0.69789 0.69313 0.0
C496 C 0.86428 0.7091 0.67878 0.0
C497 C 0.80004 0.70305 0.65195 0.0
C498 C 0.80512 0.72047 0.62328 0.0
C499 C 0.78776 0.69906 0.61501 0.0
C500 C 0.79017 0.69463 0.63666 0.0
C501 C 0.79511 0.71207 0.60812 0.0
C502 C 0.80757 0.71602 0.64493 0.0
C503 C 0.80149 0.69832 0.67583 0.0
O504 O 0.81022 0.67753 0.72514 0.0
O505 O 0.81876 0.69726 0.73949 0.0
O506 O 0.80987 0.70683 0.69071 0.0
O507 O 0.80144 0.68712 0.67629 0.0
H508 H 0.80305 0.69949 0.76793 0.0
H509 H 0.78697 0.69248 0.7999 0.0
H510 H 0.78112 0.65345 0.79273 0.0
H511 H 0.7975 0.66058 0.76125 0.0
H512 H 0.86362 0.67942 0.71009 0.0
H513 H 0.84353 0.68041 0.70467 0.0
H514 H 0.88466 0.71661 0.67563 0.0
H515 H 0.86456 0.71737 0.66973 0.0
H516 H 0.81107 0.73052 0.61844 0.0
H517 H 0.77986 0.69235 0.604 0.0
H518 H 0.78409 0.68464 0.64172 0.0
H519 H 0.81521 0.72281 0.6563 0.0
C520 C 0.40108 0.07815 0.64046 0.0
C521 C 0.4096 0.07429 0.63006 0.0
C522 C 0.39254 0.0589 0.60407 0.0
C523 C 0.40538 0.06477 0.61212 0.0
C524 C 0.384 0.06261 0.61488 0.0
C525 C 0.38823 0.07214 0.63275 0.0
U526 U 0.41542 0.09517 0.70115 0.0
O527 O 0.42917 0.11565 0.70815 0.0
O528 O 0.40973 0.10705 0.72363 0.0
C529 C 0.42071 0.11765 0.72036 0.0
C530 C 0.40549 0.08902 0.6579 0.0
C531 C 0.42019 0.12977 0.71515 0.0
C532 C 0.4083 0.14156 0.707 0.0
C533 C 0.40865 0.12984 0.70925 0.0
C534 C 0.43105 0.15334 0.71587 0.0
C535 C 0.41946 0.15348 0.71067 0.0
C536 C 0.43139 0.14165 0.71813 0.0
C537 C 0.42548 0.07757 0.7487 0.0
C538 C 0.42486 0.07678 0.79241 0.0
C539 C 0.43962 0.07159 0.77076 0.0
C540 C 0.43518 0.07389 0.74905 0.0
C541 C 0.43442 0.07284 0.79274 0.0
C542 C 0.42045 0.07914 0.77065 0.0
C543 C 0.42022 0.07875 0.72529 0.0
O544 O 0.39848 0.08696 0.67742 0.0
O545 O 0.41793 0.09565 0.66197 0.0
O546 O 0.42844 0.08719 0.71007 0.0
O547 O 0.40899 0.07855 0.72551 0.0
H548 H 0.4196 0.07877 0.63543 0.0
H549 H 0.41228 0.06228 0.60408 0.0
H550 H 0.37401 0.05818 0.60951 0.0
H551 H 0.38145 0.07495 0.64031 0.0
H552 H 0.39919 0.14127 0.70315 0.0
H553 H 0.39983 0.12085 0.70693 0.0
H554 H 0.43988 0.16229 0.71839 0.0
H555 H 0.4404 0.1419 0.72276 0.0
H556 H 0.42074 0.078 0.80899 0.0
H557 H 0.44687 0.06842 0.77026 0.0
H558 H 0.43914 0.0725 0.73241 0.0
H559 H 0.41297 0.08198 0.77103 0.0
C560 C 1.01709 0.3092 0.76405 0.0
C561 C 0.0288 0.3119 0.77509 0.0
C562 C 0.0277 0.32836 0.80048 0.0
C563 C 0.03403 0.32136 0.79306 0.0
C564 C 1.01612 0.32578 0.78908 0.0
C565 C 1.01087 0.31631 0.7712 0.0
U566 U 1.01477 0.29227 0.70301 0.0
O567 O 1.00809 0.27162 0.69534 0.0
O568 O 0.99786 0.28134 0.6801 0.0
C569 C 0.99806 0.27034 0.68313 0.0
C570 C 1.01075 0.2985 0.74642 0.0
C571 C 0.98561 0.25863 0.68819 0.0
C572 C 0.9625 0.24802 0.69646 0.0
C573 C 0.97436 0.25933 0.69416 0.0
C574 C 0.97297 0.23512 0.68745 0.0
C575 C 0.96161 0.23575 0.69278 0.0
C576 C 0.98478 0.2464 0.68513 0.0
C577 C 0.04269 0.30957 0.65673 0.0
C578 C 0.04341 0.30968 0.61302 0.0
C579 C 0.06311 0.31708 0.63558 0.0
C580 C 0.05609 0.31445 0.65699 0.0
C581 C 0.05691 0.31494 0.61327 0.0
C582 C 0.03637 0.30703 0.63452 0.0
C583 C 0.03587 0.30819 0.6798 0.0
O584 O 1.00618 0.3011 0.72697 0.0
O585 O 1.01624 0.29124 0.74217 0.0
O586 O 0.03531 0.29926 0.69456 0.0
O587 O 0.02513 0.30899 0.67921 0.0
H588 H 0.03383 0.30656 0.7702 0.0
H589 H 0.04288 0.32295 0.80157 0.0
H590 H 1.01105 0.33109 0.79398 0.0
H591 H 1.00181 0.3144 0.76315 0.0
H592 H 0.95397 0.24891 0.70039 0.0
H593 H 0.97464 0.26861 0.69654 0.0
H594 H 0.97274 0.22588 0.68492 0.0
H595 H 0.99327 0.24556 0.68045 0.0
H596 H 0.03831 0.30798 0.59622 0.0
H597 H 0.07344 0.3209 0.63652 0.0
H598 H 0.06119 0.31649 0.67386 0.0
H599 H 0.02604 0.30328 0.63376 0.0
C600 C 0.03179 0.70866 0.63747 0.0
C601 C 0.04479 0.71318 0.6433 0.0
C602 C 0.05076 0.71655 0.60083 0.0
C603 C 0.05419 0.71709 0.62514 0.0
C604 C 0.03767 0.7118 0.59521 0.0
C605 C 0.02833 0.70793 0.61331 0.0
U606 U 1.01661 0.69621 0.70029 0.0
O607 O 1.00529 0.70261 0.72268 0.0
O608 O 0.99633 0.68271 0.70909 0.0
C609 C 0.99462 0.69158 0.72047 0.0
C610 C 0.02163 0.70492 0.65599 0.0
C611 C 0.98267 0.69225 0.71486 0.0
C612 C 0.97144 0.70409 0.70241 0.0
C613 C 0.98293 0.7035 0.70573 0.0
C614 C 0.95924 0.68212 0.71675 0.0
C615 C 0.95945 0.69344 0.70804 0.0
C616 C 0.97071 0.68156 0.72016 0.0
C617 C 0.03492 0.68726 0.74813 0.0
C618 C 0.02934 0.67002 0.77744 0.0
C619 C 0.04792 0.69088 0.784 0.0
C620 C 0.04543 0.69538 0.76251 0.0
C621 C 0.04002 0.67808 0.79162 0.0
C622 C 0.02681 0.67455 0.75597 0.0
C623 C 0.03334 0.69193 0.72429 0.0
O624 O 1.01527 0.69257 0.66134 0.0
O625 O 0.02438 0.71249 0.67489 0.0
O626 O 0.03362 0.70324 0.72375 0.0
O627 O 0.0247 0.68341 0.7098 0.0
H628 H 0.04769 0.71382 0.66185 0.0
H629 H 0.06417 0.72076 0.63017 0.0
H630 H 0.0346 0.71099 0.57675 0.0
H631 H 1.01835 0.70442 0.6084 0.0
H632 H 0.97196 0.7129 0.69539 0.0
H633 H 0.99199 0.71191 0.70143 0.0
H634 H 0.95023 0.67378 0.72155 0.0
H635 H 0.97024 0.67281 0.7274 0.0
H636 H 0.02296 0.66016 0.78288 0.0
H637 H 0.05632 0.69732 0.79426 0.0
H638 H 0.05194 0.70516 0.75681 0.0
H639 H 1.01864 0.668 0.74534 0.0
C640 C 0.40578 0.29864 0.6406 0.0
C641 C 0.40096 0.30722 0.64596 0.0
C642 C 0.39803 0.30968 0.60325 0.0
C643 C 0.39713 0.3127 0.62744 0.0
C644 C 0.40312 0.30127 0.59812 0.0
C645 C 0.40692 0.29582 0.61656 0.0
U646 U 0.41775 0.29535 0.70382 0.0
O647 O 0.4109 0.27791 0.72619 0.0
O648 O 0.43077 0.2874 0.71278 0.0
C649 C 0.42171 0.27733 0.72396 0.0
C650 C 0.40928 0.29206 0.65945 0.0
C651 C 0.42074 0.26452 0.71822 0.0
C652 C 0.4081 0.24124 0.71165 0.0
C653 C 0.40879 0.25341 0.71478 0.0
C654 C 0.43126 0.25104 0.71486 0.0
C655 C 0.41931 0.23987 0.71188 0.0
C656 C 0.43195 0.26317 0.71808 0.0
C657 C 0.42701 0.32255 0.75169 0.0
C658 C 0.44429 0.33425 0.78036 0.0
C659 C 0.42295 0.3314 0.78843 0.0
C660 C 0.41859 0.32459 0.76685 0.0
C661 C 0.43589 0.33646 0.79537 0.0
C662 C 0.43991 0.32739 0.75879 0.0
C663 C 0.42241 0.31647 0.72779 0.0
O664 O 0.42155 0.29725 0.66488 0.0
O665 O 0.40166 0.28789 0.67829 0.0
O666 O 0.41102 0.30616 0.72709 0.0
O667 O 0.43085 0.3156 0.71345 0.0
H668 H 0.39999 0.30955 0.6644 0.0
H669 H 0.3932 0.31908 0.63208 0.0
H670 H 0.40422 0.29891 0.57977 0.0
H671 H 0.41067 0.28927 0.61201 0.0
H672 H 0.39875 0.23288 0.70915 0.0
H673 H 0.39994 0.25404 0.71488 0.0
H674 H 0.44008 0.25036 0.71548 0.0
H675 H 0.44127 0.27151 0.72101 0.0
H676 H 0.45428 0.33787 0.78524 0.0
H677 H 0.41625 0.33305 0.79932 0.0
H678 H 0.40866 0.32117 0.76173 0.0
H679 H 0.4467 0.32609 0.74753 0.0
C680 C 0.80516 0.09545 0.76493 0.0
C681 C 0.79223 0.08751 0.75859 0.0
C682 C 0.78592 0.08418 0.80088 0.0
C683 C 0.7827 0.08196 0.7764 0.0
C684 C 0.79892 0.092 0.80704 0.0
C685 C 0.8084 0.09756 0.78927 0.0
U686 U 0.82098 0.09823 0.70262 0.0
O687 O 0.83152 0.11545 0.67996 0.0
O688 O 0.84147 0.1052 0.69395 0.0
C689 C 0.84257 0.11541 0.68241 0.0
C690 C 0.8154 0.10196 0.74674 0.0
C691 C 0.85413 0.12795 0.68787 0.0
C692 C 0.86461 0.15135 0.69373 0.0
C693 C 0.85339 0.13948 0.69092 0.0
C694 C 0.87751 0.14044 0.69098 0.0
C695 C 0.87684 0.15202 0.69357 0.0
C696 C 0.86632 0.12859 0.68808 0.0
C697 C 0.80369 0.0706 0.65594 0.0
C698 C 0.80435 0.07063 0.61225 0.0
C699 C 0.79619 0.05041 0.6338 0.0
C700 C 0.79852 0.05711 0.65555 0.0
C701 C 0.79895 0.05705 0.61182 0.0
C702 C 0.80672 0.07734 0.63409 0.0
C703 C 0.80507 0.07715 0.67932 0.0
O704 O 0.82247 0.09637 0.74166 0.0
O705 O 0.81236 0.10647 0.72771 0.0
O706 O 0.80412 0.08785 0.67937 0.0
O707 O 0.81415 0.07771 0.69356 0.0
H708 H 0.78949 0.08569 0.73991 0.0
H709 H 0.77282 0.07588 0.77099 0.0
H710 H 0.80176 0.09408 0.82563 0.0
H711 H 0.8183 0.10368 0.79457 0.0
H712 H 0.8637 0.16004 0.69594 0.0
H713 H 0.84418 0.13938 0.69074 0.0
H714 H 0.88674 0.14056 0.69041 0.0
H715 H 0.86723 0.11993 0.68544 0.0
H716 H 0.80674 0.07607 0.5957 0.0
H717 H 0.79188 0.03997 0.63423 0.0
H718 H 0.79603 0.05169 0.67216 0.0
H719 H 0.81075 0.08777 0.63385 0.0
C720 C 0.6022 0.01699 0.03716 0.0
C721 C 0.61379 0.02862 0.03893 0.0
C722 C 0.59027 0.01692 0.03565 0.0
C723 C 0.58985 0.02877 0.03584 0.0
C724 C 0.60151 0.04054 0.03756 0.0
C725 C 0.6133 0.04033 0.03911 0.0
C726 C 0.57809 1.00415 0.03394 0.0
C727 C 0.60153 0.05339 0.03768 0.0
C728 C 0.5603 0.02928 1.00977 0.0
C729 C 0.55322 0.02881 0.03042 0.0
C730 C 0.57219 0.02928 1.01128 0.0
C731 C 0.57723 0.02884 0.03402 0.0
C732 C 0.57018 0.02842 0.05496 0.0
C733 C 0.55829 0.0284 0.05292 0.0
C734 C 0.57938 0.02979 0.9885 0.0
C735 C 0.57518 0.02791 0.07955 0.0
H736 H 0.60242 1.00788 0.03737 0.0
H737 H 0.62219 0.04937 0.0402 0.0
H738 H 0.5716 1.00313 0.04918 0.0
H739 H 0.57288 1.00379 0.01724 0.0
H740 H 0.58004 0.99578 0.03405 0.0
H741 H 0.61138 0.06168 0.03923 0.0
H742 H 0.59712 0.05451 0.02095 0.0
H743 H 0.59561 0.05379 0.05286 0.0
H744 H 0.55663 0.02983 0.9923 0.0
H745 H 0.55287 0.02789 0.06899 0.0
H746 H 0.58092 0.0212 0.98737 0.0
H747 H 0.58901 0.03846 0.98861 0.0
H748 H 0.57416 0.03008 0.97221 0.0
H749 H 0.57644 0.01917 0.08113 0.0
H750 H 0.56863 0.02773 0.09408 0.0
H751 H 0.58477 0.03643 0.08226 0.0
C752 C 0.09509 0.51059 0.033 0.0
C753 C 0.08423 0.49968 0.04199 0.0
C754 C 0.09566 0.52283 0.03261 0.0
C755 C 0.08512 0.52426 0.04138 0.0
C756 C 0.074 0.51323 0.04988 0.0
C757 C 0.0737 0.50112 0.0501 0.0
C758 C 0.10772 0.53431 0.02346 0.0
C759 C 0.06251 0.51428 0.05924 0.0
C760 C 0.09172 0.55733 0.06495 0.0
C761 C 0.0878 0.56234 0.04579 0.0
C762 C 0.09091 0.54502 0.06371 0.0
C763 C 0.08598 0.53738 0.04282 0.0
C764 C 0.0819 0.5423 0.02345 0.0
C765 C 0.08286 0.55469 0.02516 0.0
C766 C 0.09532 0.54017 0.08482 0.0
C767 C 0.07659 0.53449 1.00086 0.0
H768 H 0.10335 0.50966 0.02695 0.0
H769 H 0.06519 0.49274 0.05674 0.0
H770 H 0.10527 0.53938 1.00934 0.0
H771 H 0.11237 0.5413 0.03827 0.0
H772 H 0.11477 0.53149 1.01601 0.0
H773 H 0.05436 0.50472 0.06412 0.0
H774 H 0.06529 0.52059 0.07534 0.0
H775 H 0.05916 0.51882 0.04559 0.0
H776 H 0.09532 0.56301 0.08117 0.0
H777 H 0.07992 0.55847 1.01014 0.0
H778 H 0.10306 0.53792 0.07912 0.0
H779 H 0.08723 0.53107 0.09171 0.0
H780 H 0.099 0.54731 0.09969 0.0
H781 H 0.08393 0.53235 0.99253 0.0
H782 H 0.07367 0.53959 0.98754 0.0
H783 H 0.06811 0.52508 1.00522 0.0
C784 C 0.55696 0.50883 1.01556 0.0
C785 C 0.55547 0.49824 0.02938 0.0
C786 C 0.56855 0.52057 1.01563 0.0
C787 C 0.57898 0.52183 0.0299 0.0
C788 C 0.57745 0.51129 0.04428 0.0
C789 C 0.56576 0.49965 0.04383 0.0
C790 C 0.56975 0.53153 0.99996 0.0
C791 C 0.58827 0.51221 0.05986 0.0
C792 C 0.613 0.54661 1.01125 0.0
C793 C 0.61574 0.55692 0.02707 0.0
C794 C 0.60113 0.5352 1.01202 0.0
C795 C 0.59165 0.53397 0.02899 0.0
C796 C 0.5943 0.54433 0.04497 0.0
C797 C 0.60628 0.55566 0.04382 0.0
C798 C 0.59872 0.52444 0.99456 0.0
C799 C 0.58448 0.54344 0.06336 0.0
H800 H 0.54916 0.50783 1.0041 0.0
H801 H 0.56468 0.49161 0.05483 0.0
H802 H 0.57275 0.54041 1.01084 0.0
H803 H 0.57732 0.53372 0.98617 0.0
H804 H 0.56059 0.52925 0.99077 0.0
H805 H 0.5854 0.50336 0.07074 0.0
H806 H 0.59663 0.51379 0.04849 0.0
H807 H 0.59152 0.52063 0.07211 0.0
H808 H 0.6201 0.54753 0.99793 0.0
H809 H 0.6083 0.56347 0.0563 0.0
H810 H 0.5902 0.52233 0.9834 0.0
H811 H 0.59657 0.51547 1.00447 0.0
H812 H 0.60709 0.52687 0.98252 0.0
H813 H 0.57546 0.54171 0.05433 0.0
H814 H 0.58797 0.55234 0.07442 0.0
H815 H 0.58205 0.5351 0.07542 0.0
C816 C 0.27864 0.37033 0.38684 0.0
C817 C 0.28026 0.36073 0.37462 0.0
C818 C 0.26679 0.37048 0.38662 0.0
C819 C 0.25625 0.36082 0.37383 0.0
C820 C 0.2579 0.35128 0.361 0.0
C821 C 0.26985 0.35134 0.36157 0.0
C822 C 0.26545 0.3808 0.40061 0.0
C823 C 0.24697 0.34085 0.34702 0.0
C824 C 0.22226 0.35268 0.39364 0.0
C825 C 0.21876 0.3592 0.3766 0.0
C826 C 0.23438 0.35314 0.39292 0.0
C827 C 0.24334 0.36034 0.37475 0.0
C828 C 0.23993 0.367 0.35754 0.0
C829 C 0.22771 0.36636 0.35867 0.0
C830 C 0.2376 0.34592 0.41169 0.0
C831 C 0.24917 0.37477 0.33785 0.0
H832 H 0.28654 0.37753 0.39722 0.0
H833 H 0.27103 0.344 0.35178 0.0
H834 H 0.26187 0.38596 0.3888 0.0
H835 H 0.25827 0.37627 0.41519 0.0
H836 H 0.27471 0.38799 0.40865 0.0
H837 H 0.24995 0.33448 0.33715 0.0
H838 H 0.23897 0.33481 0.35938 0.0
H839 H 0.24315 0.34526 0.33398 0.0
H840 H 0.21556 0.34731 0.40784 0.0
H841 H 0.2251 0.37134 0.34527 0.0
H842 H 0.24626 0.35276 0.42179 0.0
H843 H 0.23991 0.33877 0.40296 0.0
H844 H 0.22958 0.34075 0.42461 0.0
H845 H 0.25826 0.38235 0.34573 0.0
H846 H 0.24513 0.37949 0.32597 0.0
H847 H 0.25167 0.36841 0.3268 0.0
C848 C 0.76222 0.89305 0.35936 0.0
C849 C 0.75363 0.89502 0.37411 0.0
C850 C 0.76204 0.881 0.35844 0.0
C851 C 0.75309 0.87061 0.37265 0.0
C852 C 0.74422 0.87246 0.38721 0.0
C853 C 0.74459 0.8846 0.38775 0.0
C854 C 0.77162 0.87945 0.34256 0.0
C855 C 0.73454 0.86169 0.40271 0.0
C856 C 0.74625 0.83618 0.35763 0.0
C857 C 0.75409 0.8342 0.37412 0.0
C858 C 0.74581 0.84794 0.35692 0.0
C859 C 0.75337 0.85801 0.3731 0.0
C860 C 0.76127 0.85606 0.3898 0.0
C861 C 0.76152 0.84422 0.39013 0.0
C862 C 0.73728 0.84962 0.3388 0.0
C863 C 0.76945 0.86649 0.40744 0.0
H864 H 0.76912 0.90096 0.3485 0.0
H865 H 0.73801 0.88604 0.39943 0.0
H866 H 0.77811 0.87728 0.35368 0.0
H867 H 0.76653 0.87118 0.33014 0.0
H868 H 0.77758 0.88827 0.33183 0.0
H869 H 0.7279 0.86447 0.41214 0.0
H870 H 0.72874 0.85298 0.39164 0.0
H871 H 0.73963 0.85896 0.41628 0.0
H872 H 0.74057 0.82858 0.34502 0.0
H873 H 0.76743 0.84276 0.40325 0.0
H874 H 0.74317 0.85792 0.3269 0.0
H875 H 0.73023 0.85184 0.34809 0.0
H876 H 0.73194 0.84086 0.32756 0.0
H877 H 0.77623 0.87537 0.39769 0.0
H878 H 0.7751 0.86349 0.41924 0.0
H879 H 0.76326 0.86904 0.41884 0.0
C880 C 0.2713 0.88967 0.37888 0.0
C881 C 0.2811 0.88989 0.3642 0.0
C882 C 0.25948 0.8783 0.38179 0.0
C883 C 0.25736 0.86681 0.36977 0.0
C884 C 0.26725 0.86694 0.3551 0.0
C885 C 0.27896 0.87843 0.35253 0.0
C886 C 0.24921 0.87861 0.39758 0.0
C887 C 0.26547 0.85492 0.34208 0.0
C888 C 0.23142 0.83439 0.39364 0.0
C889 C 0.22112 0.83151 0.37799 0.0
C890 C 0.24321 0.8458 0.39119 0.0
C891 C 0.24484 0.85463 0.37261 0.0
C892 C 0.23453 0.85176 0.35664 0.0
C893 C 0.22283 0.84026 0.3595 0.0
C894 C 0.25395 0.84841 0.40853 0.0
C895 C 0.23583 0.8609 0.3366 0.0
H896 H 0.27276 0.89848 0.38778 0.0
H897 H 0.28652 0.8784 0.34146 0.0
H898 H 0.24039 0.87598 0.38696 0.0
H899 H 0.24656 0.87135 0.4121 0.0
H900 H 0.25236 0.88826 0.40581 0.0
H901 H 0.27407 0.85661 0.33133 0.0
H902 H 0.26343 0.84708 0.35513 0.0
H903 H 0.25706 0.85145 0.32994 0.0
H904 H 0.23031 0.82763 0.40777 0.0
H905 H 0.21492 0.83824 0.34749 0.0
H906 H 0.25682 0.85769 0.41803 0.0
H907 H 0.26254 0.84938 0.39862 0.0
H908 H 0.25116 0.84061 0.42206 0.0
H909 H 0.23802 0.87048 0.3441 0.0
H910 H 0.22695 0.85727 0.32565 0.0
H911 H 0.24397 0.86238 0.32469 0.0
C912 C 0.94649 0.70527 0.71257 0.0
C913 C 0.9472 0.69416 0.7054 0.0
C914 C 0.93494 0.70594 0.71082 0.0
C915 C 0.92377 0.69527 0.70157 0.0
C916 C 0.92443 0.68406 0.69417 0.0
C917 C 0.9361 0.68364 0.6962 0.0
C918 C 0.93466 0.71806 0.719 0.0
C919 C 0.91281 0.67251 0.68405 0.0
C920 C 0.89083 0.69232 0.71629 0.0
C921 C 0.88806 0.69713 0.69538 0.0
C922 C 0.90238 0.69165 0.71855 0.0
C923 C 0.91143 0.69588 0.69946 0.0
C924 C 0.90867 0.70069 0.67828 0.0
C925 C 0.89706 0.70124 0.6765 0.0
C926 C 0.90492 0.68648 0.74145 0.0
C927 C 0.918 0.70525 0.65745 0.0
H928 H 0.95494 0.71338 0.72002 0.0
H929 H 0.93657 0.67507 0.69033 0.0
H930 H 0.93176 0.72225 0.70396 0.0
H931 H 0.92739 0.71569 0.73346 0.0
H932 H 0.94415 0.72551 0.72577 0.0
H933 H 0.91488 0.66451 0.67914 0.0
H934 H 0.90483 0.66884 0.69733 0.0
H935 H 0.90938 0.67538 0.66787 0.0
H936 H 0.88404 0.68924 0.73109 0.0
H937 H 0.89496 0.70476 0.66009 0.0
H938 H 0.91389 0.69395 0.74985 0.0
H939 H 0.90639 0.67802 0.73747 0.0
H940 H 0.89691 0.68351 0.75458 0.0
H941 H 0.92742 0.71319 0.6633 0.0
H942 H 0.91446 0.70876 0.64226 0.0
H943 H 0.91969 0.69725 0.65096 0.0
C944 C 0.42766 0.22509 0.69623 0.0
C945 C 0.41858 0.22684 0.7099 0.0
C946 C 0.4275 0.21304 0.69527 0.0
C947 C 0.41806 0.20243 0.70835 0.0
C948 C 0.40871 0.20405 0.7218 0.0
C949 C 0.40907 0.2162 0.7224 0.0
C950 C 0.4376 0.21174 0.68057 0.0
C951 C 0.3985 0.19304 0.7361 0.0
C952 C 0.41174 0.16824 0.69255 0.0
C953 C 0.41901 0.16599 0.70992 0.0
C954 C 0.41133 0.18002 0.69179 0.0
C955 C 0.41832 0.18982 0.70884 0.0
C956 C 0.42561 0.18758 0.72647 0.0
C957 C 0.42586 0.17574 0.72681 0.0
C958 C 0.40345 0.182 0.67267 0.0
C959 C 0.43316 0.19771 0.74507 0.0
H960 H 0.43494 0.23317 0.68624 0.0
H961 H 0.4021 0.21745 0.73325 0.0
H962 H 0.44369 0.20938 0.69247 0.0
H963 H 0.43295 0.20368 0.66757 0.0
H964 H 0.44393 0.22073 0.67058 0.0
H965 H 0.39156 0.19567 0.74471 0.0
H966 H 0.3931 0.18452 0.72436 0.0
H967 H 0.4031 0.19007 0.75028 0.0
H968 H 0.40651 0.16085 0.67929 0.0
H969 H 0.43131 0.17405 0.74059 0.0
H970 H 0.40975 0.19048 0.6615 0.0
H971 H 0.39611 0.18409 0.6811 0.0
H972 H 0.3985 0.17343 0.66082 0.0
H973 H 0.44027 0.20673 0.73615 0.0
H974 H 0.43836 0.19449 0.75755 0.0
H975 H 0.42659 0.20009 0.75566 0.0
C976 C 0.93962 0.22205 0.71117 0.0
C977 C 0.9489 0.22367 0.69373 0.0
C978 C 0.92767 0.21068 0.71216 0.0
C979 C 0.92487 0.20065 0.6953 0.0
C980 C 0.93416 0.20225 0.67761 0.0
C981 C 0.94601 0.2137 0.67702 0.0
C982 C 0.91806 0.20937 0.73134 0.0
C983 C 0.9316 0.19186 0.65921 0.0
C984 C 0.89939 0.16597 0.70882 0.0
C985 C 0.88888 0.16472 0.69521 0.0
C986 C 0.91102 0.17766 0.70945 0.0
C987 C 0.91227 0.18843 0.69611 0.0
C988 C 0.90163 0.18733 0.68273 0.0
C989 C 0.89009 0.17552 0.68246 0.0
C990 C 0.92207 0.17841 0.72406 0.0
C991 C 0.90252 0.19853 0.66818 0.0
H992 H 0.94177 0.2296 0.72432 0.0
H993 H 0.95296 0.21491 0.66318 0.0
H994 H 0.90889 0.20771 0.72298 0.0
H995 H 0.91585 0.20085 0.74273 0.0
H996 H 0.92162 0.21807 0.74297 0.0
H997 H 0.93981 0.19458 0.64662 0.0
H998 H 0.92965 0.18273 0.6683 0.0
H999 H 0.9229 0.18988 0.6487 0.0
H1000 H 0.89852 0.15776 0.71901 0.0
H1001 H 0.88213 0.17465 0.67165 0.0
H1002 H 0.92543 0.1866 0.73689 0.0
H1003 H 0.9303 0.18026 0.71208 0.0
H1004 H 0.9194 0.16938 0.73425 0.0
H1005 H 0.90562 0.2072 0.67972 0.0
H1006 H 0.89322 0.19634 0.65968 0.0
H1007 H 0.90991 0.20102 0.6539 0.0
C1008 C 0.39382 0.99018 0.23789 0.0
C1009 C 0.39644 0.98474 0.2581 0.0
C1010 C 0.40197 0.99388 0.21766 0.0
C1011 C 0.41306 0.99217 0.21755 0.0
C1012 C 0.41565 0.98651 0.23774 0.0
C1013 C 0.40733 0.98286 0.2577 0.0
C1014 C 0.39879 0.99979 0.19648 0.0
C1015 C 0.42739 0.98455 0.23847 0.0
C1016 C 0.42954 0.99233 0.15833 0.0
C1017 C 0.44006 1.00486 0.158 0.0
C1018 C 0.42061 0.98811 0.1774 0.0
C1019 C 0.42218 0.99662 0.19667 0.0
C1020 C 0.43264 1.00935 0.19624 0.0
C1021 C 0.44142 1.0133 0.17698 0.0
C1022 C 0.40962 0.97447 0.17714 0.0
C1023 C 0.43465 0.01877 0.2163 0.0
H1024 H 0.38536 0.99153 0.23787 0.0
H1025 H 0.40955 0.97884 0.2733 0.0
H1026 H 0.40665 1.00978 0.1935 0.0
H1027 H 0.39805 0.99417 0.18 0.0
H1028 H 0.38962 1.00013 0.19905 0.0
H1029 H 0.42782 0.97962 0.25512 0.0
H1030 H 0.42743 0.9787 0.22284 0.0
H1031 H 0.43623 0.99403 0.23727 0.0
H1032 H 0.42846 0.98567 0.14394 0.0
H1033 H 0.44939 0.02305 0.17676 0.0
H1034 H 0.4003 0.97456 0.17889 0.0
H1035 H 0.41041 0.96905 0.19271 0.0
H1036 H 0.40946 0.96919 0.16048 0.0
H1037 H 0.42597 0.02004 0.21847 0.0
H1038 H 0.4431 0.02839 0.21308 0.0
H1039 H 0.43607 0.01489 0.23345 0.0
C1040 C 0.12617 0.37769 0.22796 0.0
C1041 C 0.13077 0.38567 0.24826 0.0
C1042 C 0.12149 0.3814 0.20797 0.0
C1043 C 0.12135 0.39338 0.20819 0.0
C1044 C 0.1258 0.4014 0.22875 0.0
C1045 C 0.13047 0.39747 0.24847 0.0
C1046 C 0.11691 0.37258 0.18641 0.0
C1047 C 0.12573 0.4142 0.22983 0.0
C1048 C 0.12128 0.40828 0.14762 0.0
C1049 C 0.10822 0.40477 0.14473 0.0
C1050 C 0.12569 0.40481 0.16828 0.0
C1051 C 0.11685 0.39765 0.18665 0.0
C1052 C 0.1037 0.39429 0.18409 0.0
C1053 C 0.09955 0.39789 0.16322 0.0
C1054 C 0.13981 0.40867 0.17029 0.0
C1055 C 0.09395 0.38665 0.20319 0.0
H1056 H 0.12651 0.36864 0.22744 0.0
H1057 H 0.13385 0.40363 0.26415 0.0
H1058 H 0.10687 0.37019 0.18205 0.0
H1059 H 0.12295 0.37758 0.17059 0.0
H1060 H 0.1173 0.36343 0.1893 0.0
H1061 H 0.1292 0.41916 0.24733 0.0
H1062 H 0.13196 0.42065 0.2154 0.0
H1063 H 0.11586 0.41273 0.22674 0.0
H1064 H 0.1281 0.41376 0.13365 0.0
H1065 H 0.08942 0.39499 0.1611 0.0
H1066 H 0.14103 0.39989 0.17156 0.0
H1067 H 0.14383 0.41436 0.1869 0.0
H1068 H 0.1455 0.41449 0.15473 0.0
H1069 H 0.09339 0.37701 0.20514 0.0
H1070 H 0.08419 0.38526 0.199 0.0
H1071 H 0.09698 0.39162 0.22075 0.0
C1072 C 0.72146 0.72165 0.22389 0.0
C1073 C 0.725 0.71882 0.24618 0.0
C1074 C 0.71679 0.71242 0.20537 0.0
C1075 C 0.71554 0.69997 0.20911 0.0
C1076 C 0.7191 0.69702 0.23153 0.0
C1077 C 0.72378 0.70646 0.24975 0.0
C1078 C 0.71307 0.71597 0.18181 0.0
C1079 C 0.71795 0.68388 0.23629 0.0
C1080 C 0.69208 0.67246 0.16932 0.0
C1081 C 0.70031 0.67146 0.15212 0.0
C1082 C 0.69691 0.68161 0.18797 0.0
C1083 C 0.71033 0.68999 0.18967 0.0
C1084 C 0.71871 0.68897 0.17253 0.0
C1085 C 0.71361 0.67976 0.15399 0.0
C1086 C 0.68762 0.68233 0.20585 0.0
C1087 C 0.73307 0.69772 0.17363 0.0
H1088 H 0.72213 0.73106 0.221 0.0
H1089 H 0.72662 0.70419 0.26674 0.0
H1090 H 0.71859 0.71461 0.16693 0.0
H1091 H 0.70271 0.70949 0.17827 0.0
H1092 H 0.71485 0.72614 0.18155 0.0
H1093 H 0.72117 0.68312 0.2546 0.0
H1094 H 0.7078 0.67629 0.2341 0.0
H1095 H 0.7238 0.68184 0.22305 0.0
H1096 H 0.68182 0.66597 0.16839 0.0
H1097 H 0.72006 0.67921 0.1407 0.0
H1098 H 0.6884 0.69211 0.20553 0.0
H1099 H 0.69009 0.68072 0.22423 0.0
H1100 H 0.67747 0.67508 0.20216 0.0
H1101 H 0.73523 0.70795 0.17178 0.0
H1102 H 0.73832 0.6955 0.15936 0.0
H1103 H 0.73679 0.69677 0.19131 0.0
C1104 C 0.05606 0.37299 0.91818 0.0
C1105 C 0.0573 0.38535 0.91462 0.0
C1106 C 0.05148 0.36359 0.8999 0.0
C1107 C 0.04804 0.36657 0.8774 0.0
C1108 C 0.04932 0.37904 0.87364 0.0
C1109 C 0.05389 0.38823 0.89224 0.0
C1110 C 0.05028 0.35043 0.90467 0.0
C1111 C 0.04573 0.38264 0.85 0.0
C1112 C 0.04628 0.34637 0.82237 0.0
C1113 C 0.03298 0.3381 0.82032 0.0
C1114 C 0.05132 0.35558 0.84093 0.0
C1115 C 0.04288 0.35661 0.85791 0.0
C1116 C 0.02947 0.34826 0.85604 0.0
C1117 C 0.0247 0.33912 0.83737 0.0
C1118 C 0.06568 0.3643 0.84222 0.0
C1119 C 1.02012 0.349 0.87375 0.0
H1120 H 0.05881 0.37068 0.93524 0.0
H1121 H 0.05457 0.39765 0.88934 0.0
H1122 H 0.04014 0.34286 0.90237 0.0
H1123 H 0.05617 0.34838 0.89152 0.0
H1124 H 0.05343 0.34964 0.92303 0.0
H1125 H 0.04757 0.39282 0.84972 0.0
H1126 H 0.05129 0.38126 0.83523 0.0
H1127 H 0.03538 0.3762 0.84632 0.0
H1128 H 0.05278 0.34581 0.8092 0.0
H1129 H 1.01444 0.33265 0.8363 0.0
H1130 H 0.06932 0.36332 0.85996 0.0
H1131 H 0.06787 0.37453 0.84036 0.0
H1132 H 0.07098 0.36208 0.82804 0.0
H1133 H 0.02251 0.34736 0.89218 0.0
H1134 H 1.00998 0.34178 0.86992 0.0
H1135 H 0.02094 0.35879 0.87338 0.0
C1136 C 0.76472 0.67311 0.82253 0.0
C1137 C 0.77343 0.66822 0.81966 0.0
C1138 C 0.75627 0.6696 0.84232 0.0
C1139 C 0.75648 0.66097 0.85975 0.0
C1140 C 0.76511 0.65585 0.85678 0.0
C1141 C 0.77347 0.65955 0.83688 0.0
C1142 C 0.74722 0.67527 0.84475 0.0
C1143 C 0.76569 0.64665 0.87492 0.0
C1144 C 0.74485 0.66192 0.92324 0.0
C1145 C 0.73256 0.65107 0.92361 0.0
C1146 C 0.75264 0.66529 0.90257 0.0
C1147 C 0.74807 0.65767 0.88157 0.0
C1148 C 0.73561 0.6468 0.88168 0.0
C1149 C 0.72801 0.64364 0.90264 0.0
C1150 C 0.76582 0.67699 0.90327 0.0
C1151 C 0.73037 0.6384 0.85971 0.0
H1152 H 0.76446 0.67966 0.80923 0.0
H1153 H 0.78027 0.65585 0.83514 0.0
H1154 H 0.73714 0.66741 0.84619 0.0
H1155 H 0.74938 0.68108 0.86143 0.0
H1156 H 0.74795 0.68154 0.82933 0.0
H1157 H 0.77251 0.64307 0.8695 0.0
H1158 H 0.76874 0.65155 0.89253 0.0
H1159 H 0.75601 0.63822 0.87741 0.0
H1160 H 0.74838 0.66788 0.93914 0.0
H1161 H 0.71859 0.63519 0.90275 0.0
H1162 H 0.76664 0.68394 0.88911 0.0
H1163 H 0.77331 0.67406 0.89956 0.0
H1164 H 0.76789 0.68202 0.92087 0.0
H1165 H 0.7305 0.64435 0.84423 0.0
H1166 H 0.72037 0.63052 0.86243 0.0
H1167 H 0.73659 0.63402 0.85494 0.0
C1168 C 0.45433 0.04238 0.90249 0.0
C1169 C 0.4576 0.05001 0.92332 0.0
C1170 C 0.45084 0.04637 0.88131 0.0
C1171 C 0.45057 0.05829 0.88083 0.0
C1172 C 0.45399 0.06611 0.9017 0.0
C1173 C 0.45746 0.06189 0.92263 0.0
C1174 C 0.44734 0.03776 0.85946 0.0
C1175 C 0.45379 0.07885 0.90202 0.0
C1176 C 0.45169 0.07334 0.81978 0.0
C1177 C 0.43865 0.06962 0.81578 0.0
C1178 C 0.45572 0.06987 0.84094 0.0
C1179 C 0.44651 0.06245 0.85861 0.0
C1180 C 0.43336 0.0588 0.85483 0.0
C1181 C 0.4296 0.06243 0.83354 0.0
C1182 C 0.46983 0.07405 0.84428 0.0
C1183 C 0.42321 0.05086 0.87312 0.0
H1184 H 0.45456 0.03328 0.9027 0.0
H1185 H 0.45979 0.06779 0.93867 0.0
H1186 H 0.43731 0.03488 0.85407 0.0
H1187 H 0.45369 0.04312 0.8442 0.0
H1188 H 0.4482 0.02888 0.86262 0.0
H1189 H 0.45704 0.08397 0.91944 0.0
H1190 H 0.46008 0.08522 0.88758 0.0
H1191 H 0.44389 0.07721 0.89848 0.0
H1192 H 0.45878 0.07903 0.80634 0.0
H1193 H 0.4195 0.05935 0.83053 0.0
H1194 H 0.47126 0.06542 0.84605 0.0
H1195 H 0.47333 0.07972 0.86107 0.0
H1196 H 0.47582 0.08 0.8291 0.0
H1197 H 0.42298 0.04139 0.87554 0.0
H1198 H 0.41345 0.0491 0.86783 0.0
H1199 H 0.4256 0.05583 0.89075 0.0
C1200 C 0.764 0.07869 0.81747 0.0
C1201 C 0.77581 0.07865 0.82001 0.0
C1202 C 0.75468 0.07412 0.83587 0.0
C1203 C 0.75717 0.06936 0.8574 0.0
C1204 C 0.76896 0.06906 0.8599 0.0
C1205 C 0.77811 0.0737 0.84123 0.0
C1206 C 0.74226 0.07464 0.83245 0.0
C1207 C 0.77199 0.06401 0.88246 0.0
C1208 C 0.73906 0.06992 0.91388 0.0
C1209 C 0.72932 0.05702 0.91554 0.0
C1210 C 0.74819 0.07402 0.89518 0.0
C1211 C 0.74761 0.06504 0.87757 0.0
C1212 C 0.73786 0.05199 0.87923 0.0
C1213 C 0.72887 0.04814 0.89817 0.0
C1214 C 0.75847 0.088 0.89425 0.0
C1215 C 0.73684 0.04211 0.86081 0.0
H1216 H 0.76217 0.08262 0.80131 0.0
H1217 H 0.7871 0.07343 0.84327 0.0
H1218 H 0.73392 0.0649 0.83516 0.0
H1219 H 0.7415 0.08116 0.84604 0.0
H1220 H 0.74157 0.07815 0.81434 0.0
H1221 H 0.78143 0.0641 0.88137 0.0
H1222 H 0.77212 0.06997 0.89802 0.0
H1223 H 0.76438 0.05396 0.88597 0.0
H1224 H 0.73961 0.07682 0.92736 0.0
H1225 H 0.7213 0.03819 0.89909 0.0
H1226 H 0.75778 0.09243 0.87717 0.0
H1227 H 0.76814 0.08864 0.89472 0.0
H1228 H 0.75767 0.09376 0.90937 0.0
H1229 H 0.73526 0.04506 0.8428 0.0
H1230 H 0.72885 0.03231 0.86481 0.0
H1231 H 0.74598 0.04161 0.85995 0.0
C1232 C 0.04753 0.68072 0.8345 0.0
C1233 C 0.04322 0.67307 0.81374 0.0
C1234 C 0.05112 0.67631 0.85505 0.0
C1235 C 0.05046 0.66396 0.85491 0.0
C1236 C 0.04596 0.65612 0.83414 0.0
C1237 C 0.04239 0.66074 0.81388 0.0
C1238 C 0.05578 0.68495 0.87683 0.0
C1239 C 0.04514 0.64291 0.83314 0.0
C1240 C 0.0717 0.6572 0.89748 0.0
C1241 C 0.06297 0.64986 0.91555 0.0
C1242 C 0.0678 0.66197 0.87789 0.0
C1243 C 0.05482 0.65936 0.87618 0.0
C1244 C 0.04599 0.65213 0.89453 0.0
C1245 C 0.05016 0.64749 0.91397 0.0
C1246 C 0.07756 0.6697 0.85886 0.0
C1247 C 0.03206 0.6491 0.8934 0.0
H1248 H 0.04806 0.69018 0.83471 0.0
H1249 H 0.03925 0.65482 0.79786 0.0
H1250 H 0.04985 0.67985 0.89269 0.0
H1251 H 0.06585 0.68731 0.88084 0.0
H1252 H 0.05538 0.69413 0.87435 0.0
H1253 H 0.04105 0.63783 0.81597 0.0
H1254 H 0.05489 0.64385 0.83531 0.0
H1255 H 0.0391 0.63684 0.84811 0.0
H1256 H 0.08165 0.65925 0.89869 0.0
H1257 H 0.0433 0.64172 0.92765 0.0
H1258 H 0.07808 0.67932 0.85687 0.0
H1259 H 0.07455 0.6647 0.84131 0.0
H1260 H 0.08734 0.67112 0.86305 0.0
H1261 H 0.0314 0.65816 0.89173 0.0
H1262 H 0.02651 0.64376 0.90947 0.0
H1263 H 0.02748 0.64317 0.87727 0.0
C1264 C 0.46477 0.37339 0.92042 0.0
C1265 C 0.46123 0.38308 0.92447 0.0
C1266 C 0.46109 0.36584 0.89941 0.0
C1267 C 0.45366 0.36798 0.88192 0.0
C1268 C 0.45021 0.37786 0.88573 0.0
C1269 C 0.45404 0.38528 0.90689 0.0
C1270 C 0.46506 0.35548 0.89604 0.0
C1271 C 0.44227 0.38046 0.86762 0.0
C1272 C 0.45255 0.35567 0.81807 0.0
C1273 C 0.44066 0.34431 0.8178 0.0
C1274 C 0.45694 0.36341 0.83879 0.0
C1275 C 0.44928 0.35972 0.85987 0.0
C1276 C 0.43734 0.34819 0.85981 0.0
C1277 C 0.43318 0.34066 0.83883 0.0
C1278 C 0.4697 0.37563 0.83802 0.0
C1279 C 0.4289 0.34384 0.8819 0.0
H1280 H 0.47047 0.37172 0.9337 0.0
H1281 H 0.45109 0.39261 0.90993 0.0
H1282 H 0.45638 0.34588 0.89458 0.0
H1283 H 0.47058 0.35713 0.8791 0.0
H1284 H 0.47105 0.35519 0.91107 0.0
H1285 H 0.4407 0.38872 0.87288 0.0
H1286 H 0.44709 0.38254 0.84984 0.0
H1287 H 0.43276 0.37174 0.86555 0.0
H1288 H 0.45834 0.3587 0.80187 0.0
H1289 H 0.42406 0.33182 0.83894 0.0
H1290 H 0.47611 0.37543 0.85227 0.0
H1291 H 0.46821 0.38412 0.84156 0.0
H1292 H 0.47465 0.37701 0.82045 0.0
H1293 H 0.43427 0.34262 0.89704 0.0
H1294 H 0.41995 0.33457 0.87903 0.0
H1295 H 0.4262 0.35133 0.88728 0.0
C1296 C 0.12578 0.72054 0.23784 0.0
C1297 C 0.13601 0.72089 0.25111 0.0
C1298 C 0.12073 0.71231 0.21788 0.0
C1299 C 0.12598 0.70417 0.21096 0.0
C1300 C 0.13609 0.70424 0.22462 0.0
C1301 C 0.14098 0.71259 0.24445 0.0
C1302 C 0.10998 0.71258 0.20381 0.0
C1303 C 0.14193 0.69568 0.21801 0.0
C1304 C 0.1065 0.67591 0.16869 0.0
C1305 C 0.11215 0.68102 0.14636 0.0
C1306 C 0.11095 0.68326 0.18987 0.0
C1307 C 0.12132 0.69604 0.18878 0.0
C1308 C 0.12718 0.70116 0.16636 0.0
C1309 C 0.12256 0.69361 0.14552 0.0
C1310 C 0.10443 0.67742 0.21338 0.0
C1311 C 0.1383 0.71469 0.16433 0.0
H1312 H 0.12195 0.72699 0.24262 0.0
H1313 H 0.14875 0.71263 0.25477 0.0
H1314 H 0.11337 0.71607 0.18535 0.0
H1315 H 0.10175 0.70268 0.20227 0.0
H1316 H 0.10652 0.71896 0.21216 0.0
H1317 H 0.14932 0.69643 0.23106 0.0
H1318 H 0.13431 0.68544 0.21703 0.0
H1319 H 0.14647 0.69836 0.20001 0.0
H1320 H 0.09839 0.66626 0.16956 0.0
H1321 H 0.12715 0.69759 0.12847 0.0
H1322 H 0.10007 0.68317 0.22107 0.0
H1323 H 0.1116 0.67773 0.22646 0.0
H1324 H 0.09677 0.66724 0.21136 0.0
H1325 H 0.13529 0.72179 0.17082 0.0
H1326 H 0.14189 0.71721 0.14563 0.0
H1327 H 0.14636 0.7157 0.17583 0.0
C1328 C 0.39177 0.39197 0.22621 0.0
C1329 C 0.39463 0.3887 0.24875 0.0
C1330 C 0.40097 0.39656 0.20764 0.0
C1331 C 0.41342 0.39801 0.21159 0.0
C1332 C 0.41638 0.39468 0.23423 0.0
C1333 C 0.40697 0.39007 0.25248 0.0
C1334 C 0.39739 0.4 0.18383 0.0
C1335 C 0.42953 0.39608 0.23922 0.0
C1336 C 0.43423 0.40014 0.1573 0.0
C1337 C 0.44241 0.41352 0.15546 0.0
C1338 C 0.42479 0.39495 0.17545 0.0
C1339 C 0.42344 0.40332 0.19224 0.0
C1340 C 0.43162 0.41683 0.19041 0.0
C1341 C 0.44095 0.42174 0.1721 0.0
C1342 C 0.41628 0.3805 0.17673 0.0
C1343 C 0.4305 0.42611 0.20782 0.0
H1344 H 0.38236 0.39118 0.22317 0.0
H1345 H 0.40926 0.38743 0.26966 0.0
H1346 H 0.40366 0.41042 0.18006 0.0
H1347 H 0.39898 0.39448 0.16921 0.0
H1348 H 0.38719 0.39796 0.18336 0.0
H1349 H 0.43026 0.3929 0.25761 0.0
H1350 H 0.43177 0.3903 0.22613 0.0
H1351 H 0.43697 0.40632 0.23702 0.0
H1352 H 0.43534 0.39368 0.14475 0.0
H1353 H 0.44704 0.4321 0.17066 0.0
H1354 H 0.40603 0.37814 0.17526 0.0
H1355 H 0.41745 0.37684 0.19433 0.0
H1356 H 0.4185 0.3753 0.16232 0.0
H1357 H 0.4207 0.42517 0.20692 0.0
H1358 H 0.43765 0.43633 0.20412 0.0
H1359 H 0.43191 0.42373 0.2264 0.0
C1360 C 0.70679 0.99285 0.14615 0.0
C1361 C 0.70868 1.00554 0.14429 0.0
C1362 C 0.71039 0.98859 0.16685 0.0
C1363 C 0.71603 0.9972 0.18631 0.0
C1364 C 0.71768 1.00993 0.18482 0.0
C1365 C 0.71399 1.01394 0.16387 0.0
C1366 C 0.70837 0.97492 0.16769 0.0
C1367 C 0.72366 0.01944 0.20511 0.0
C1368 C 0.71668 0.9825 0.24688 0.0
C1369 C 0.72912 0.98377 0.24705 0.0
C1370 C 0.71236 0.98703 0.22749 0.0
C1371 C 0.72067 0.99301 0.20774 0.0
C1372 C 0.73333 0.99459 0.20807 0.0
C1373 C 0.73739 0.98996 0.22765 0.0
C1374 C 0.69879 0.98514 0.22787 0.0
C1375 C 0.74255 1.00098 0.18751 0.0
H1376 H 0.70251 0.98621 0.13131 0.0
H1377 H 0.71562 0.02381 0.16257 0.0
H1378 H 0.7178 0.97506 0.16925 0.0
H1379 H 0.70259 0.96986 0.18372 0.0
H1380 H 0.70341 0.96926 0.15148 0.0
H1381 H 0.72365 0.02874 0.20174 0.0
H1382 H 0.7184 0.01526 0.22208 0.0
H1383 H 0.73375 0.02143 0.20772 0.0
H1384 H 0.71016 0.97762 0.26162 0.0
H1385 H 0.74708 0.99119 0.22775 0.0
H1386 H 0.6932 0.97864 0.21298 0.0
H1387 H 0.69887 0.99452 0.22504 0.0
H1388 H 0.69374 0.9809 0.24502 0.0
H1389 H 0.73863 0.99527 0.17087 0.0
H1390 H 0.75221 1.00188 0.19086 0.0
H1391 H 0.74366 1.01076 0.18427 0.0
C1392 C 0.10392 0.33097 0.49843 0.0
C1393 C 0.10182 0.33878 0.48196 0.0
C1394 C 0.09653 0.32657 0.51957 0.0
C1395 C 0.08678 0.33004 0.52447 0.0
C1396 C 0.08451 0.33778 0.5078 0.0
C1397 C 0.09201 0.34202 0.48681 0.0
C1398 C 0.09928 0.31835 0.53685 0.0
C1399 C 0.07421 0.3417 0.51224 0.0
C1400 C 0.06029 0.31073 0.57005 0.0
C1401 C 0.0646 0.31863 0.59051 0.0
C1402 C 0.06745 0.31424 0.54854 0.0
C1403 C 0.07921 0.32595 0.54735 0.0
C1404 C 0.08362 0.33393 0.56794 0.0
C1405 C 0.07629 0.33019 0.58918 0.0
C1406 C 0.0624 0.30543 0.52705 0.0
C1407 C 0.09605 0.34652 0.56748 0.0
H1408 H 0.11153 0.3285 0.49503 0.0
H1409 H 0.09011 0.34782 0.47404 0.0
H1410 H 0.10247 0.32345 0.55426 0.0
H1411 H 0.09038 0.30915 0.54033 0.0
H1412 H 0.10683 0.31608 0.53004 0.0
H1413 H 0.07349 0.34756 0.49734 0.0
H1414 H 0.06473 0.33298 0.51462 0.0
H1415 H 0.0763 0.34742 0.52904 0.0
H1416 H 0.05136 0.30172 0.57091 0.0
H1417 H 0.07963 0.33649 0.60469 0.0
H1418 H 0.0696 0.3025 0.52095 0.0
H1419 H 0.06084 0.31065 0.51198 0.0
H1420 H 0.0532 0.29658 0.53094 0.0
H1421 H 0.10415 0.34476 0.56211 0.0
H1422 H 0.09831 0.35149 0.58514 0.0
H1423 H 0.09545 0.3531 0.55395 0.0
C1424 C 0.792 0.72881 0.58518 0.0
C1425 C 0.79205 0.71689 0.58558 0.0
C1426 C 0.78861 0.7332 0.56436 0.0
C1427 C 0.78521 0.72552 0.54332 0.0
C1428 C 0.78541 0.71357 0.5435 0.0
C1429 C 0.78881 0.7094 0.56457 0.0
C1430 C 0.78849 0.74598 0.565 0.0
C1431 C 0.78194 0.70511 0.52144 0.0
C1432 C 0.76448 0.73006 0.49606 0.0
C1433 C 0.7736 0.7373 0.47845 0.0
C1434 C 0.76814 0.7263 0.51732 0.0
C1435 C 0.78126 0.72987 0.5212 0.0
C1436 C 0.79054 0.73736 0.50369 0.0
C1437 C 0.78661 0.74096 0.48257 0.0
C1438 C 0.75791 0.71829 0.53544 0.0
C1439 C 0.80463 0.74146 0.50715 0.0
H1440 H 0.79431 0.73459 0.60137 0.0
H1441 H 0.78899 0.70027 0.56455 0.0
H1442 H 0.79485 0.75243 0.55071 0.0
H1443 H 0.77862 0.74442 0.56144 0.0
H1444 H 0.79172 0.75097 0.58253 0.0
H1445 H 0.78274 0.69617 0.52439 0.0
H1446 H 0.77193 0.70231 0.516 0.0
H1447 H 0.78834 0.71054 0.5063 0.0
H1448 H 0.75439 0.72702 0.49295 0.0
H1449 H 0.79376 0.74669 0.46926 0.0
H1450 H 0.76028 0.72314 0.55318 0.0
H1451 H 0.7576 0.70877 0.53763 0.0
H1452 H 0.7482 0.71664 0.53012 0.0
H1453 H 0.80809 0.747 0.52409 0.0
H1454 H 0.81069 0.74751 0.49213 0.0
H1455 H 0.80602 0.73279 0.50869 0.0
C1456 C 0.37653 1.01367 0.48649 0.0
C1457 C 0.36519 1.00191 0.48972 0.0
C1458 C 0.38134 0.02304 0.50481 0.0
C1459 C 0.37471 0.02065 0.527 0.0
C1460 C 0.3633 1.0088 0.53043 0.0
C1461 C 0.35869 0.99962 0.51181 0.0
C1462 C 0.39354 0.03553 0.50039 0.0
C1463 C 0.35589 1.00584 0.55374 0.0
C1464 C 0.39234 0.03983 0.58259 0.0
C1465 C 0.38812 0.04915 0.58418 0.0
C1466 C 0.38817 0.0306 0.56401 0.0
C1467 C 0.37953 0.03062 0.54651 0.0
C1468 C 0.37529 0.04003 0.54791 0.0
C1469 C 0.37964 0.04916 0.56662 0.0
C1470 C 0.39292 0.02074 0.56324 0.0
C1471 C 0.36611 0.04043 0.52964 0.0
H1472 H 0.38174 0.0155 0.46967 0.0
H1473 H 0.34982 0.9907 0.51445 0.0
H1474 H 0.39159 0.04384 0.50237 0.0
H1475 H 0.40088 0.03676 0.51392 0.0
H1476 H 0.39762 0.0359 0.48224 0.0
H1477 H 0.34736 0.99607 0.5538 0.0
H1478 H 0.36222 1.00648 0.56886 0.0
H1479 H 0.35259 1.01311 0.55705 0.0
H1480 H 0.39877 0.03961 0.59614 0.0
H1481 H 0.37649 0.05643 0.56732 0.0
H1482 H 0.39764 0.02122 0.54575 0.0
H1483 H 0.38466 1.01086 0.56491 0.0
H1484 H 0.39987 0.02221 0.57779 0.0
H1485 H 0.37033 0.04167 0.51141 0.0
H1486 H 0.36379 0.04841 0.53311 0.0
H1487 H 0.35701 0.03114 0.52975 0.0
C1488 C 0.78942 0.02315 0.48208 0.0
C1489 C 0.77699 1.01262 0.47992 0.0
C1490 C 0.79344 0.03046 0.50334 0.0
C1491 C 0.78483 0.02721 0.52303 0.0
C1492 C 0.77234 0.01649 0.52111 0.0
C1493 C 0.76858 1.00933 0.49965 0.0
C1494 C 0.80687 0.04173 0.50464 0.0
C1495 C 0.76285 1.0127 0.54163 0.0
C1496 C 0.7981 0.03911 0.58568 0.0
C1497 C 0.79585 0.04974 0.58866 0.0
C1498 C 0.79468 0.03178 0.56441 0.0
C1499 C 0.78883 0.03511 0.54554 0.0
C1500 C 0.78669 0.04592 0.54829 0.0
C1501 C 0.79022 0.0531 0.56974 0.0
C1502 C 0.79723 0.02039 0.56221 0.0
C1503 C 0.78046 0.04981 0.52867 0.0
H1504 H 0.79607 0.02567 0.46711 0.0
H1505 H 0.75891 1.00134 0.49812 0.0
H1506 H 0.80638 0.05081 0.50791 0.0
H1507 H 0.81213 0.04045 0.51989 0.0
H1508 H 0.81247 0.04287 0.48794 0.0
H1509 H 0.7536 1.00397 0.53749 0.0
H1510 H 0.76701 1.01077 0.5579 0.0
H1511 H 0.76083 0.02079 0.54595 0.0
H1512 H 0.80259 0.03652 0.60002 0.0
H1513 H 0.78827 0.06117 0.57192 0.0
H1514 H 0.80338 0.02161 0.5463 0.0
H1515 H 0.78803 1.01139 0.55949 0.0
H1516 H 0.80204 0.01919 0.57831 0.0
H1517 H 0.78611 0.05168 0.51183 0.0
H1518 H 0.77968 0.05859 0.53337 0.0
H1519 H 0.77068 0.04179 0.52503 0.0
C1520 C 0.09278 0.72545 0.48283 0.0
C1521 C 0.10415 0.73731 0.48133 0.0
C1522 C 0.08454 0.72233 0.50283 0.0
C1523 C 0.08766 0.73128 0.52193 0.0
C1524 C 0.09914 0.74325 0.52063 0.0
C1525 C 0.10722 0.74613 0.50037 0.0
C1526 C 0.07238 0.70948 0.50336 0.0
C1527 C 0.10285 0.75306 0.5406 0.0
C1528 C 0.05977 0.7278 0.56153 0.0
C1529 C 0.06068 0.72091 0.58129 0.0
C1530 C 0.0686 0.73144 0.5424 0.0
C1531 C 0.07871 0.72818 0.54292 0.0
C1532 C 0.07989 0.7215 0.56304 0.0
C1533 C 0.07089 0.71795 0.58194 0.0
C1534 C 0.06698 0.73858 0.52139 0.0
C1535 C 0.09051 0.71784 0.56435 0.0
H1536 H 0.09016 0.71864 0.4681 0.0
H1537 H 0.11603 0.75526 0.49956 0.0
H1538 H 0.07217 0.70401 0.51966 0.0
H1539 H 0.06385 0.71108 0.5042 0.0
H1540 H 0.07148 0.70345 0.48738 0.0
H1541 H 0.11218 0.76183 0.53708 0.0
H1542 H 0.09529 0.75602 0.54302 0.0
H1543 H 0.10357 0.74868 0.55773 0.0
H1544 H 0.0521 0.73038 0.561 0.0
H1545 H 0.07165 0.71254 0.59696 0.0
H1546 H 0.06517 0.7327 0.50486 0.0
H1547 H 0.07595 0.74779 0.5184 0.0
H1548 H 0.05889 0.74078 0.52405 0.0
H1549 H 0.08936 0.71096 0.5497 0.0
H1550 H 0.09055 0.71329 0.58173 0.0
H1551 H 0.10001 0.72652 0.56176 0.0
C1552 C 0.38922 0.34075 0.48271 0.0
C1553 C 0.37716 0.34026 0.48014 0.0
C1554 C 0.3924 0.33625 0.50358 0.0
C1555 C 0.38335 0.33115 0.52256 0.0
C1556 C 0.37129 0.33091 0.5204 0.0
C1557 C 0.36834 0.33546 0.49925 0.0
C1558 C 0.40539 0.33674 0.5051 0.0
C1559 C 0.36137 0.32557 0.5402 0.0
C1560 C 0.387 0.3073 0.56368 0.0
C1561 C 0.39362 0.3151 0.58333 0.0
C1562 C 0.38337 0.31233 0.54413 0.0
C1563 C 0.38635 0.32551 0.54411 0.0
C1564 C 0.39271 0.33337 0.56415 0.0
C1565 C 0.39627 0.32808 0.58349 0.0
C1566 C 0.37656 0.30358 0.52323 0.0
C1567 C 0.39606 0.34745 0.56489 0.0
H1568 H 0.39622 0.34467 0.46831 0.0
H1569 H 0.35897 0.33494 0.49744 0.0
H1570 H 0.41054 0.34212 0.52138 0.0
H1571 H 0.40411 0.32679 0.50667 0.0
H1572 H 0.41153 0.34143 0.48918 0.0
H1573 H 0.35277 0.32676 0.5364 0.0
H1574 H 0.35822 0.31513 0.54263 0.0
H1575 H 0.36562 0.33046 0.5574 0.0
H1576 H 0.38466 0.2972 0.56354 0.0
H1577 H 0.40145 0.33422 0.59845 0.0
H1578 H 0.38258 0.30719 0.50683 0.0
H1579 H 0.36735 0.30364 0.51968 0.0
H1580 H 0.37449 0.29344 0.52638 0.0
H1581 H 0.40307 0.35277 0.55043 0.0
H1582 H 0.40029 0.35206 0.58233 0.0
H1583 H 0.38735 0.3485 0.56161 0.0
loop_
_geom_bond_atom_site_label_1
_geom_bond_atom_site_label_2
_geom_bond_distance
_geom_bond_site_symmetry_2
_ccdc_geom_bond_type
C0 C1 1.264 . S
C0 C5 1.455 1_545 S
C0 C10 1.465 . S
C1 C0 1.264 . S
C1 C3 1.338 . S
C1 H28 0.931 . S
C2 C3 1.397 1_565 S
C2 C4 1.320 . S
C3 C1 1.338 . S
C3 C2 1.397 1_545 S
C3 H29 0.888 . S
C4 C2 1.320 . S
C4 C5 1.412 . S
C4 H30 0.930 . S
C5 C0 1.455 1_565 S
C5 C4 1.412 . S
C5 H31 0.952 1_565 S
U6 O7 2.454 . S
U6 O8 2.458 . S
U6 C9 2.984 . S
U6 C10 2.847 . S
U6 C23 2.882 1_554 S
U6 O24 2.441 . S
U6 O25 2.420 . S
U6 O26 2.455 1_554 S
U6 O27 2.449 . S
O7 U6 2.454 . S
O7 C9 1.353 . S
O8 U6 2.458 . S
O8 C9 1.286 . S
C9 U6 2.984 . S
C9 O7 1.353 . S
C9 O8 1.286 . S
C9 C11 1.363 . S
C10 C0 1.465 . S
C10 U6 2.847 . S
C10 O24 1.249 . S
C10 O25 1.202 . S
C11 C9 1.363 . S
C11 C13 1.408 . S
C11 C16 1.342 . S
C12 C13 1.310 . S
C12 C15 1.461 . S
C12 H32 0.932 . S
C13 C11 1.408 . S
C13 C12 1.310 . S
C13 H33 0.930 . S
C14 C15 1.474 . S
C14 C16 1.285 . S
C14 H34 0.929 1_554 S
C15 C12 1.461 . S
C15 C14 1.474 . S
C16 C11 1.342 . S
C16 C14 1.285 . S
C16 H35 0.930 1_554 S
C17 C20 1.424 . S
C17 C22 1.245 . S
C17 C23 1.428 . S
C18 C21 1.260 . S
C18 C22 1.477 . S
C18 H36 0.932 . S
C19 C20 1.384 . S
C19 C21 1.479 . S
C19 H37 0.929 . S
C20 C17 1.424 . S
C20 C19 1.384 . S
C20 H38 0.928 . S
C21 C18 1.260 . S
C21 C19 1.479 . S
C22 C17 1.245 . S
C22 C18 1.477 . S
C22 H39 0.932 . S
C23 U6 2.882 1_556 S
C23 C17 1.428 . S
C23 O26 1.301 . S
C23 O27 1.282 1_556 S
O24 U6 2.441 . S
O24 C10 1.249 . S
O25 U6 2.420 . S
O25 C10 1.202 . S
O26 U6 2.455 1_556 S
O26 C23 1.301 . S
O27 U6 2.449 . S
O27 C23 1.282 1_554 S
H28 C1 0.931 . S
H29 C3 0.888 . S
H30 C4 0.930 . S
H31 C5 0.952 1_545 S
H32 C12 0.932 . S
H33 C13 0.930 . S
H34 C14 0.929 1_556 S
H35 C16 0.930 1_556 S
H36 C18 0.932 . S
H37 C19 0.929 . S
H38 C20 0.928 . S
H39 C22 0.932 . S
C40 C41 1.264 . S
C40 C45 1.479 . S
C40 C50 1.465 . S
C41 C40 1.264 . S
C41 C43 1.339 . S
C41 H68 0.931 . S
C42 C43 1.395 . S
C42 C44 1.320 . S
C43 C41 1.339 . S
C43 C42 1.395 . S
C43 H69 0.929 . S
C44 C42 1.320 . S
C44 C45 1.405 . S
C44 H70 0.930 . S
C45 C40 1.479 . S
C45 C44 1.405 . S
C45 H71 0.931 . S
U46 O47 2.454 1_554 S
U46 O48 2.458 . S
U46 C49 2.984 . S
U46 C50 2.847 1_554 S
U46 C63 2.882 . S
U46 O64 2.441 1_554 S
U46 O65 2.420 1_554 S
U46 O66 2.455 . S
U46 O67 2.449 . S
O47 U46 2.454 1_556 S
O47 C49 1.353 1_556 S
O48 U46 2.458 . S
O48 C49 1.286 . S
C49 U46 2.984 . S
C49 O47 1.353 1_554 S
C49 O48 1.286 . S
C49 C51 1.363 . S
C50 C40 1.465 . S
C50 U46 2.847 1_556 S
C50 O64 1.249 . S
C50 O65 1.202 . S
C51 C49 1.363 . S
C51 C53 1.408 1_554 S
C51 C56 1.342 . S
C52 C53 1.310 . S
C52 C55 1.461 1_556 S
C52 H72 0.932 . S
C53 C51 1.408 1_556 S
C53 C52 1.310 . S
C53 H73 0.930 . S
C54 C55 1.474 . S
C54 C56 1.285 . S
C54 H74 0.929 . S
C55 C52 1.461 1_554 S
C55 C54 1.474 . S
C56 C51 1.342 . S
C56 C54 1.285 . S
C56 H75 0.930 . S
C57 C60 1.424 . S
C57 C62 1.245 . S
C57 C63 1.428 . S
C58 C61 1.260 . S
C58 C62 1.477 . S
C58 H76 0.932 . S
C59 C60 1.384 . S
C59 C61 1.479 . S
C59 H77 0.929 . S
C60 C57 1.424 . S
C60 C59 1.384 . S
C60 H78 0.928 . S
C61 C58 1.260 . S
C61 C59 1.479 . S
C62 C57 1.245 . S
C62 C58 1.477 . S
C62 H79 0.932 . S
C63 U46 2.882 . S
C63 C57 1.428 . S
C63 O66 1.301 . S
C63 O67 1.282 . S
O64 U46 2.441 1_556 S
O64 C50 1.249 . S
O65 U46 2.420 1_556 S
O65 C50 1.202 . S
O66 U46 2.455 . S
O66 C63 1.301 . S
O67 U46 2.449 . S
O67 C63 1.282 . S
H68 C41 0.931 . S
H69 C43 0.929 . S
H70 C44 0.930 . S
H71 C45 0.931 . S
H72 C52 0.932 . S
H73 C53 0.930 . S
H74 C54 0.929 . S
H75 C56 0.930 . S
H76 C58 0.932 . S
H77 C59 0.929 . S
H78 C60 0.928 . S
H79 C62 0.932 . S
C80 C81 1.264 . S
C80 C85 1.479 . S
C80 C90 1.465 . S
C81 C80 1.264 . S
C81 C83 1.339 . S
C81 H108 0.931 . S
C82 C83 1.395 . S
C82 C84 1.320 . S
C83 C81 1.339 . S
C83 C82 1.395 . S
C83 H109 0.929 . S
C84 C82 1.320 . S
C84 C85 1.405 . S
C84 H110 0.930 . S
C85 C80 1.479 . S
C85 C84 1.405 . S
C85 H111 0.931 . S
U86 O87 2.454 . S
U86 O88 2.458 . S
U86 C89 2.984 . S
U86 C90 2.847 . S
U86 C103 2.882 1_554 S
U86 O104 2.441 . S
U86 O105 2.420 . S
U86 O106 2.455 1_554 S
U86 O107 2.449 . S
O87 U86 2.454 . S
O87 C89 1.353 . S
O88 U86 2.458 . S
O88 C89 1.286 . S
C89 U86 2.984 . S
C89 O87 1.353 . S
C89 O88 1.286 . S
C89 C91 1.363 . S
C90 C80 1.465 . S
C90 U86 2.847 . S
C90 O104 1.249 . S
C90 O105 1.202 . S
C91 C89 1.363 . S
C91 C93 1.408 . S
C91 C96 1.342 1_554 S
C92 C93 1.310 . S
C92 C95 1.461 . S
C92 H112 0.932 . S
C93 C91 1.408 . S
C93 C92 1.310 . S
C93 H113 0.930 . S
C94 C95 1.474 1_556 S
C94 C96 1.285 . S
C94 H114 0.929 . S
C95 C92 1.461 . S
C95 C94 1.474 1_554 S
C96 C91 1.342 1_556 S
C96 C94 1.285 . S
C96 H115 0.930 . S
C97 C100 1.424 . S
C97 C102 1.245 . S
C97 C103 1.428 . S
C98 C101 1.260 . S
C98 C102 1.477 . S
C98 H116 0.932 . S
C99 C100 1.384 . S
C99 C101 1.479 . S
C99 H117 0.929 . S
C100 C97 1.424 . S
C100 C99 1.384 . S
C100 H118 0.928 . S
C101 C98 1.260 . S
C101 C99 1.479 . S
C102 C97 1.245 . S
C102 C98 1.477 . S
C102 H119 0.932 . S
C103 U86 2.882 1_556 S
C103 C97 1.428 . S
C103 O106 1.301 . S
C103 O107 1.282 1_556 S
O104 U86 2.441 . S
O104 C90 1.249 . S
O105 U86 2.420 . S
O105 C90 1.202 . S
O106 U86 2.455 1_556 S
O106 C103 1.301 . S
O107 U86 2.449 . S
O107 C103 1.282 1_554 S
H108 C81 0.931 . S
H109 C83 0.929 . S
H110 C84 0.930 . S
H111 C85 0.931 . S
H112 C92 0.932 . S
H113 C93 0.930 . S
H114 C94 0.929 . S
H115 C96 0.930 . S
H116 C98 0.932 . S
H117 C99 0.929 . S
H118 C100 0.928 . S
H119 C102 0.932 . S
C120 C121 1.264 . S
C120 C125 1.479 . S
C120 C130 1.465 . S
C121 C120 1.264 . S
C121 C123 1.339 . S
C121 H148 0.931 . S
C122 C123 1.395 . S
C122 C124 1.320 . S
C123 C121 1.339 . S
C123 C122 1.395 . S
C123 H149 0.929 . S
C124 C122 1.320 . S
C124 C125 1.405 . S
C124 H150 0.930 . S
C125 C120 1.479 . S
C125 C124 1.405 . S
C125 H151 0.931 . S
U126 O127 2.454 1_554 S
U126 O128 2.458 . S
U126 C129 2.984 . S
U126 C130 2.847 1_554 S
U126 C143 2.882 . S
U126 O144 2.441 1_554 S
U126 O145 2.420 1_554 S
U126 O146 2.455 . S
U126 O147 2.449 . S
O127 U126 2.454 1_556 S
O127 C129 1.353 1_556 S
O128 U126 2.458 . S
O128 C129 1.286 . S
C129 U126 2.984 . S
C129 O127 1.353 1_554 S
C129 O128 1.286 . S
C129 C131 1.363 . S
C130 C120 1.465 . S
C130 U126 2.847 1_556 S
C130 O144 1.249 . S
C130 O145 1.202 . S
C131 C129 1.363 . S
C131 C133 1.408 1_554 S
C131 C136 1.342 . S
C132 C133 1.310 . S
C132 C135 1.461 1_556 S
C132 H152 0.932 . S
C133 C131 1.408 1_556 S
C133 C132 1.310 . S
C133 H153 0.930 . S
C134 C135 1.474 . S
C134 C136 1.285 . S
C134 H154 0.929 . S
C135 C132 1.461 1_554 S
C135 C134 1.474 . S
C136 C131 1.342 . S
C136 C134 1.285 . S
C136 H155 0.930 . S
C137 C140 1.424 . S
C137 C142 1.245 . S
C137 C143 1.428 . S
C138 C141 1.313 . S
C138 C142 1.477 . S
C138 H156 0.936 . S
C139 C140 1.384 . S
C139 C141 1.495 . S
C139 H157 0.929 . S
C140 C137 1.424 . S
C140 C139 1.384 . S
C140 H158 0.928 . S
C141 C138 1.313 . S
C141 C139 1.495 . S
C142 C137 1.245 . S
C142 C138 1.477 . S
C142 H159 0.932 . S
C143 U126 2.882 . S
C143 C137 1.428 . S
C143 O146 1.301 . S
C143 O147 1.282 . S
O144 U126 2.441 1_556 S
O144 C130 1.249 . S
O145 U126 2.420 1_556 S
O145 C130 1.202 . S
O146 U126 2.455 . S
O146 C143 1.301 . S
O147 U126 2.449 . S
O147 C143 1.282 . S
H148 C121 0.931 . S
H149 C123 0.929 . S
H150 C124 0.930 . S
H151 C125 0.931 . S
H152 C132 0.932 . S
H153 C133 0.930 . S
H154 C134 0.929 . S
H155 C136 0.930 . S
H156 C138 0.936 . S
H157 C139 0.929 . S
H158 C140 0.928 . S
H159 C142 0.932 . S
C160 C161 1.264 . S
C160 C165 1.479 . S
C160 C170 1.465 . S
C161 C160 1.264 . S
C161 C163 1.339 . S
C161 H188 0.931 . S
C162 C163 1.395 . S
C162 C164 1.320 . S
C163 C161 1.339 . S
C163 C162 1.395 . S
C163 H189 0.929 . S
C164 C162 1.320 . S
C164 C165 1.405 . S
C164 H190 0.930 . S
C165 C160 1.479 . S
C165 C164 1.405 . S
C165 H191 0.931 . S
U166 O167 2.454 1_554 S
U166 O168 2.458 . S
U166 C169 2.984 . S
U166 C170 2.847 1_554 S
U166 C183 2.882 . S
U166 O184 2.441 1_554 S
U166 O185 2.420 1_554 S
U166 O186 2.455 . S
U166 O187 2.449 . S
O167 U166 2.454 1_556 S
O167 C169 1.353 1_556 S
O168 U166 2.458 . S
O168 C169 1.286 . S
C169 U166 2.984 . S
C169 O167 1.353 1_554 S
C169 O168 1.286 . S
C169 C171 1.363 . S
C170 C160 1.465 . S
C170 U166 2.847 1_556 S
C170 O184 1.249 . S
C170 O185 1.202 . S
C171 C169 1.363 . S
C171 C173 1.408 1_554 S
C171 C176 1.342 . S
C172 C173 1.310 . S
C172 C175 1.461 1_556 S
C172 H192 0.932 . S
C173 C171 1.408 1_556 S
C173 C172 1.310 . S
C173 H193 0.930 . S
C174 C175 1.474 . S
C174 C176 1.285 . S
C174 H194 0.929 . S
C175 C172 1.461 1_554 S
C175 C174 1.474 . S
C176 C171 1.342 . S
C176 C174 1.285 . S
C176 H195 0.930 . S
C177 C180 1.424 . S
C177 C182 1.245 . S
C177 C183 1.428 . S
C178 C181 1.260 . S
C178 C182 1.477 . S
C178 H196 0.932 . S
C179 C180 1.384 . S
C179 C181 1.479 . S
C179 H197 0.929 . S
C180 C177 1.424 . S
C180 C179 1.384 . S
C180 H198 0.928 . S
C181 C178 1.260 . S
C181 C179 1.479 . S
C182 C177 1.245 . S
C182 C178 1.477 . S
C182 H199 0.932 . S
C183 U166 2.882 . S
C183 C177 1.428 . S
C183 O186 1.301 . S
C183 O187 1.282 . S
O184 U166 2.441 1_556 S
O184 C170 1.249 . S
O185 U166 2.420 1_556 S
O185 C170 1.202 . S
O186 U166 2.455 . S
O186 C183 1.301 . S
O187 U166 2.449 . S
O187 C183 1.282 . S
H188 C161 0.931 . S
H189 C163 0.929 . S
H190 C164 0.930 . S
H191 C165 0.931 . S
H192 C172 0.932 . S
H193 C173 0.930 . S
H194 C174 0.929 . S
H195 C176 0.930 . S
H196 C178 0.932 . S
H197 C179 0.929 . S
H198 C180 0.928 . S
H199 C182 0.932 . S
C200 C201 1.264 . S
C200 C205 1.479 . S
C200 C210 1.465 . S
C201 C200 1.264 . S
C201 C203 1.339 . S
C201 H228 0.931 . S
C202 C203 1.395 . S
C202 C204 1.320 . S
C203 C201 1.339 . S
C203 C202 1.395 . S
C203 H229 0.929 . S
C204 C202 1.320 . S
C204 C205 1.405 . S
C204 H230 0.930 . S
C205 C200 1.479 . S
C205 C204 1.405 . S
C205 H231 0.931 . S
U206 O207 2.454 . S
U206 O208 2.458 . S
U206 C209 2.984 . S
U206 C210 2.847 . S
U206 C223 2.882 1_554 S
U206 O224 2.441 . S
U206 O225 2.420 . S
U206 O226 2.455 1_554 S
U206 O227 2.449 1_554 S
O207 U206 2.454 . S
O207 C209 1.353 . S
O208 U206 2.458 . S
O208 C209 1.286 . S
C209 U206 2.984 . S
C209 O207 1.353 . S
C209 O208 1.286 . S
C209 C211 1.363 . S
C210 C200 1.465 . S
C210 U206 2.847 . S
C210 O224 1.249 . S
C210 O225 1.202 . S
C211 C209 1.363 . S
C211 C213 1.408 . S
C211 C216 1.314 1_554 S
C212 C213 1.310 . S
C212 C215 1.461 . S
C212 H232 0.932 . S
C213 C211 1.408 . S
C213 C212 1.310 . S
C213 H233 0.930 . S
C214 C215 1.474 1_556 S
C214 C216 1.287 . S
C214 H234 0.929 . S
C215 C212 1.461 . S
C215 C214 1.474 1_554 S
C216 C211 1.314 1_556 S
C216 C214 1.287 . S
C216 H235 0.957 . S
C217 C220 1.424 . S
C217 C222 1.245 . S
C217 C223 1.428 . S
C218 C221 1.260 . S
C218 C222 1.477 . S
C218 H236 0.932 . S
C219 C220 1.384 . S
C219 C221 1.479 . S
C219 H237 0.929 . S
C220 C217 1.424 . S
C220 C219 1.384 . S
C220 H238 0.928 . S
C221 C218 1.260 . S
C221 C219 1.479 . S
C222 C217 1.245 . S
C222 C218 1.477 . S
C222 H239 0.932 . S
C223 U206 2.882 1_556 S
C223 C217 1.428 . S
C223 O226 1.301 . S
C223 O227 1.282 . S
O224 U206 2.441 . S
O224 C210 1.249 . S
O225 U206 2.420 . S
O225 C210 1.202 . S
O226 U206 2.455 1_556 S
O226 C223 1.301 . S
O227 U206 2.449 1_556 S
O227 C223 1.282 . S
H228 C201 0.931 . S
H229 C203 0.929 . S
H230 C204 0.930 . S
H231 C205 0.931 . S
H232 C212 0.932 . S
H233 C213 0.930 . S
H234 C214 0.929 . S
H235 C216 0.957 . S
H236 C218 0.932 . S
H237 C219 0.929 . S
H238 C220 0.928 . S
H239 C222 0.932 . S
C240 C241 1.264 . S
C240 C245 1.479 . S
C240 C250 1.465 . S
C241 C240 1.264 . S
C241 C243 1.339 . S
C241 H268 0.931 . S
C242 C243 1.395 . S
C242 C244 1.320 . S
C243 C241 1.339 . S
C243 C242 1.395 . S
C243 H269 0.929 . S
C244 C242 1.320 . S
C244 C245 1.405 . S
C244 H270 0.930 . S
C245 C240 1.479 . S
C245 C244 1.405 . S
C245 H271 0.931 . S
U246 O247 2.454 . S
U246 O248 2.458 . S
U246 C249 2.984 . S
U246 C250 2.847 . S
U246 C263 2.882 . S
U246 O264 2.441 . S
U246 O265 2.420 . S
U246 O266 2.455 . S
U246 O267 2.449 . S
O247 U246 2.454 . S
O247 C249 1.353 . S
O248 U246 2.458 . S
O248 C249 1.286 . S
C249 U246 2.984 . S
C249 O247 1.353 . S
C249 O248 1.286 . S
C249 C251 1.363 . S
C250 C240 1.465 . S
C250 U246 2.847 . S
C250 O264 1.249 . S
C250 O265 1.202 . S
C251 C249 1.363 . S
C251 C253 1.408 . S
C251 C256 1.342 . S
C252 C253 1.310 . S
C252 C255 1.461 . S
C252 H272 0.932 . S
C253 C251 1.408 . S
C253 C252 1.310 . S
C253 H273 0.930 . S
C254 C255 1.474 . S
C254 C256 1.285 . S
C254 H274 0.929 . S
C255 C252 1.461 . S
C255 C254 1.474 . S
C256 C251 1.342 . S
C256 C254 1.285 . S
C256 H275 0.930 . S
C257 C260 1.424 . S
C257 C262 1.245 . S
C257 C263 1.428 . S
C258 C261 1.260 . S
C258 C262 1.477 . S
C258 H276 0.932 . S
C259 C260 1.384 . S
C259 C261 1.479 . S
C259 H277 0.929 . S
C260 C257 1.424 . S
C260 C259 1.384 . S
C260 H278 0.928 . S
C261 C258 1.260 . S
C261 C259 1.479 . S
C262 C257 1.245 . S
C262 C258 1.477 . S
C262 H279 0.932 . S
C263 U246 2.882 . S
C263 C257 1.428 . S
C263 O266 1.301 . S
C263 O267 1.282 . S
O264 U246 2.441 . S
O264 C250 1.249 . S
O265 U246 2.420 . S
O265 C250 1.202 . S
O266 U246 2.455 . S
O266 C263 1.301 . S
O267 U246 2.449 . S
O267 C263 1.282 . S
H268 C241 0.931 . S
H269 C243 0.929 . S
H270 C244 0.930 . S
H271 C245 0.931 . S
H272 C252 0.932 . S
H273 C253 0.930 . S
H274 C254 0.929 . S
H275 C256 0.930 . S
H276 C258 0.932 . S
H277 C259 0.929 . S
H278 C260 0.928 . S
H279 C262 0.932 . S
C280 C281 1.264 . S
C280 C285 1.479 . S
C280 C290 1.465 . S
C281 C280 1.264 . S
C281 C283 1.339 . S
C281 H308 0.931 . S
C282 C283 1.395 . S
C282 C284 1.320 . S
C283 C281 1.339 . S
C283 C282 1.395 . S
C283 H309 0.929 . S
C284 C282 1.320 . S
C284 C285 1.405 . S
C284 H310 0.930 . S
C285 C280 1.479 . S
C285 C284 1.405 . S
C285 H311 0.931 . S
U286 O287 2.454 . S
U286 O288 2.458 . S
U286 C289 2.984 . S
U286 C290 2.847 . S
U286 C303 2.882 . S
U286 O304 2.441 . S
U286 O305 2.420 . S
U286 O306 2.455 . S
U286 O307 2.449 . S
O287 U286 2.454 . S
O287 C289 1.353 . S
O288 U286 2.458 . S
O288 C289 1.286 . S
C289 U286 2.984 . S
C289 O287 1.353 . S
C289 O288 1.286 . S
C289 C291 1.363 . S
C290 C280 1.465 . S
C290 U286 2.847 . S
C290 O304 1.249 . S
C290 O305 1.202 . S
C291 C289 1.363 . S
C291 C293 1.408 . S
C291 C296 1.342 . S
C292 C293 1.310 . S
C292 C295 1.461 . S
C292 H312 0.932 . S
C293 C291 1.408 . S
C293 C292 1.310 . S
C293 H313 0.930 . S
C294 C295 1.474 . S
C294 C296 1.285 . S
C294 H314 0.929 . S
C295 C292 1.461 . S
C295 C294 1.474 . S
C296 C291 1.342 . S
C296 C294 1.285 . S
C296 H315 0.930 . S
C297 C300 1.424 . S
C297 C302 1.245 . S
C297 C303 1.428 . S
C298 C301 1.260 . S
C298 C302 1.477 . S
C298 H316 0.932 . S
C299 C300 1.384 . S
C299 C301 1.479 . S
C299 H317 0.929 . S
C300 C297 1.424 . S
C300 C299 1.384 . S
C300 H318 0.928 . S
C301 C298 1.260 . S
C301 C299 1.479 . S
C302 C297 1.245 . S
C302 C298 1.477 . S
C302 H319 0.932 . S
C303 U286 2.882 . S
C303 C297 1.428 . S
C303 O306 1.301 . S
C303 O307 1.282 . S
O304 U286 2.441 . S
O304 C290 1.249 . S
O305 U286 2.420 . S
O305 C290 1.202 . S
O306 U286 2.455 . S
O306 C303 1.301 . S
O307 U286 2.449 . S
O307 C303 1.282 . S
H308 C281 0.931 . S
H309 C283 0.929 . S
H310 C284 0.930 . S
H311 C285 0.931 . S
H312 C292 0.932 . S
H313 C293 0.930 . S
H314 C294 0.929 . S
H315 C296 0.930 . S
H316 C298 0.932 . S
H317 C299 0.929 . S
H318 C300 0.928 . S
H319 C302 0.932 . S
C320 C321 1.264 . S
C320 C325 1.479 . S
C320 C330 1.465 . S
C321 C320 1.264 . S
C321 C323 1.339 . S
C321 H348 0.931 . S
C322 C323 1.395 . S
C322 C324 1.320 . S
C323 C321 1.339 . S
C323 C322 1.395 . S
C323 H349 0.929 . S
C324 C322 1.320 . S
C324 C325 1.405 . S
C324 H350 0.930 . S
C325 C320 1.479 . S
C325 C324 1.405 . S
C325 H351 0.931 . S
U326 O327 2.454 . S
U326 O328 2.458 . S
U326 C329 2.984 . S
U326 C330 2.847 . S
U326 C343 2.882 . S
U326 O344 2.441 . S
U326 O345 2.420 . S
U326 O346 2.455 . S
U326 O347 2.449 . S
O327 U326 2.454 . S
O327 C329 1.353 . S
O328 U326 2.458 . S
O328 C329 1.286 . S
C329 U326 2.984 . S
C329 O327 1.353 . S
C329 O328 1.286 . S
C329 C331 1.363 . S
C330 C320 1.465 . S
C330 U326 2.847 . S
C330 O344 1.249 . S
C330 O345 1.202 . S
C331 C329 1.363 . S
C331 C333 1.408 . S
C331 C336 1.342 . S
C332 C333 1.310 . S
C332 C335 1.461 . S
C332 H352 0.932 . S
C333 C331 1.408 . S
C333 C332 1.310 . S
C333 H353 0.930 . S
C334 C335 1.474 . S
C334 C336 1.285 . S
C334 H354 0.929 . S
C335 C332 1.461 . S
C335 C334 1.474 . S
C336 C331 1.342 . S
C336 C334 1.285 . S
C336 H355 0.930 . S
C337 C340 1.424 . S
C337 C342 1.245 . S
C337 C343 1.428 . S
C338 C341 1.260 . S
C338 C342 1.477 . S
C338 H356 0.932 . S
C339 C340 1.384 . S
C339 C341 1.479 . S
C339 H357 0.929 . S
C340 C337 1.424 . S
C340 C339 1.384 . S
C340 H358 0.928 . S
C341 C338 1.260 . S
C341 C339 1.479 . S
C342 C337 1.245 . S
C342 C338 1.477 . S
C342 H359 0.932 . S
C343 U326 2.882 . S
C343 C337 1.428 . S
C343 O346 1.301 . S
C343 O347 1.282 . S
O344 U326 2.441 . S
O344 C330 1.249 . S
O345 U326 2.420 . S
O345 C330 1.202 . S
O346 U326 2.455 . S
O346 C343 1.301 . S
O347 U326 2.449 . S
O347 C343 1.282 . S
H348 C321 0.931 . S
H349 C323 0.929 . S
H350 C324 0.930 . S
H351 C325 0.931 . S
H352 C332 0.932 . S
H353 C333 0.930 . S
H354 C334 0.929 . S
H355 C336 0.930 . S
H356 C338 0.932 . S
H357 C339 0.929 . S
H358 C340 0.928 . S
H359 C342 0.932 . S
C360 C361 1.264 . S
C360 C365 1.479 . S
C360 C370 1.465 . S
C361 C360 1.264 . S
C361 C363 1.339 . S
C361 H388 0.931 . S
C362 C363 1.395 . S
C362 C364 1.320 . S
C363 C361 1.339 . S
C363 C362 1.395 . S
C363 H389 0.929 . S
C364 C362 1.320 . S
C364 C365 1.405 . S
C364 H390 0.930 . S
C365 C360 1.479 . S
C365 C364 1.405 . S
C365 H391 0.931 . S
U366 O367 2.454 . S
U366 O368 2.458 . S
U366 C369 2.984 . S
U366 C370 2.847 . S
U366 C383 2.882 . S
U366 O384 2.441 . S
U366 O385 2.420 . S
U366 O386 2.455 . S
U366 O387 2.449 . S
O367 U366 2.454 . S
O367 C369 1.353 . S
O368 U366 2.458 . S
O368 C369 1.286 . S
C369 U366 2.984 . S
C369 O367 1.353 . S
C369 O368 1.286 . S
C369 C371 1.363 . S
C370 C360 1.465 . S
C370 U366 2.847 . S
C370 O384 1.249 . S
C370 O385 1.202 . S
C371 C369 1.363 . S
C371 C373 1.408 . S
C371 C376 1.342 . S
C372 C373 1.310 . S
C372 C375 1.461 . S
C372 H392 0.932 . S
C373 C371 1.408 . S
C373 C372 1.310 . S
C373 H393 0.930 . S
C374 C375 1.474 . S
C374 C376 1.285 . S
C374 H394 0.929 . S
C375 C372 1.461 . S
C375 C374 1.474 . S
C376 C371 1.342 . S
C376 C374 1.285 . S
C376 H395 0.930 . S
C377 C380 1.424 . S
C377 C382 1.245 . S
C377 C383 1.428 . S
C378 C381 1.260 . S
C378 C382 1.477 . S
C378 H396 0.932 . S
C379 C380 1.384 . S
C379 C381 1.479 . S
C379 H397 0.929 . S
C380 C377 1.424 . S
C380 C379 1.384 . S
C380 H398 0.928 . S
C381 C378 1.260 . S
C381 C379 1.479 . S
C382 C377 1.245 . S
C382 C378 1.477 . S
C382 H399 0.932 . S
C383 U366 2.882 . S
C383 C377 1.428 . S
C383 O386 1.301 . S
C383 O387 1.282 . S
O384 U366 2.441 . S
O384 C370 1.249 . S
O385 U366 2.420 . S
O385 C370 1.202 . S
O386 U366 2.455 . S
O386 C383 1.301 . S
O387 U366 2.449 . S
O387 C383 1.282 . S
H388 C361 0.931 . S
H389 C363 0.929 . S
H390 C364 0.930 . S
H391 C365 0.931 . S
H392 C372 0.932 . S
H393 C373 0.930 . S
H394 C374 0.929 . S
H395 C376 0.930 . S
H396 C378 0.932 . S
H397 C379 0.929 . S
H398 C380 0.928 . S
H399 C382 0.932 . S
C400 C401 1.264 . S
C400 C405 1.479 . S
C400 C410 1.465 . S
C401 C400 1.264 . S
C401 C403 1.339 . S
C401 H428 0.931 . S
C402 C403 1.395 . S
C402 C404 1.320 . S
C403 C401 1.339 . S
C403 C402 1.395 . S
C403 H429 0.929 . S
C404 C402 1.320 . S
C404 C405 1.405 . S
C404 H430 0.930 . S
C405 C400 1.479 . S
C405 C404 1.405 . S
C405 H431 0.931 . S
U406 O407 2.454 . S
U406 O408 2.458 . S
U406 C409 2.984 . S
U406 C410 2.847 . S
U406 C423 2.882 . S
U406 O424 2.441 . S
U406 O425 2.420 . S
U406 O426 2.455 . S
U406 O427 2.449 . S
O407 U406 2.454 . S
O407 C409 1.353 . S
O408 U406 2.458 . S
O408 C409 1.286 . S
C409 U406 2.984 . S
C409 O407 1.353 . S
C409 O408 1.286 . S
C409 C411 1.363 . S
C410 C400 1.465 . S
C410 U406 2.847 . S
C410 O424 1.249 . S
C410 O425 1.202 . S
C411 C409 1.363 . S
C411 C413 1.408 . S
C411 C416 1.342 . S
C412 C413 1.310 . S
C412 C415 1.461 . S
C412 H432 0.932 . S
C413 C411 1.408 . S
C413 C412 1.310 . S
C413 H433 0.930 . S
C414 C415 1.474 . S
C414 C416 1.285 . S
C414 H434 0.929 . S
C415 C412 1.461 . S
C415 C414 1.474 . S
C416 C411 1.342 . S
C416 C414 1.285 . S
C416 H435 0.930 . S
C417 C420 1.424 . S
C417 C422 1.245 . S
C417 C423 1.428 . S
C418 C421 1.260 . S
C418 C422 1.477 . S
C418 H436 0.932 . S
C419 C420 1.384 . S
C419 C421 1.479 . S
C419 H437 0.948 . S
C420 C417 1.424 . S
C420 C419 1.384 . S
C420 H438 0.928 . S
C421 C418 1.260 . S
C421 C419 1.479 . S
C422 C417 1.245 . S
C422 C418 1.477 . S
C422 H439 0.932 . S
C423 U406 2.882 . S
C423 C417 1.428 . S
C423 O426 1.301 . S
C423 O427 1.282 . S
O424 U406 2.441 . S
O424 C410 1.249 . S
O425 U406 2.420 . S
O425 C410 1.202 . S
O426 U406 2.455 . S
O426 C423 1.301 . S
O427 U406 2.449 . S
O427 C423 1.282 . S
H428 C401 0.931 . S
H429 C403 0.929 . S
H430 C404 0.930 . S
H431 C405 0.931 . S
H432 C412 0.932 . S
H433 C413 0.930 . S
H434 C414 0.929 . S
H435 C416 0.930 . S
H436 C418 0.932 . S
H437 C419 0.948 . S
H438 C420 0.928 . S
H439 C422 0.932 . S
C440 C441 1.264 . S
C440 C445 1.479 . S
C440 C450 1.465 . S
C441 C440 1.264 . S
C441 C443 1.339 . S
C441 H468 0.931 . S
C442 C443 1.395 . S
C442 C444 1.320 . S
C443 C441 1.339 . S
C443 C442 1.395 . S
C443 H469 0.929 . S
C444 C442 1.320 . S
C444 C445 1.405 . S
C444 H470 0.930 . S
C445 C440 1.479 . S
C445 C444 1.405 . S
C445 H471 0.931 . S
U446 O447 2.454 . S
U446 O448 2.458 . S
U446 C449 2.984 . S
U446 C450 2.847 . S
U446 C463 2.882 . S
U446 O464 2.441 . S
U446 O465 2.420 . S
U446 O466 2.455 . S
U446 O467 2.449 . S
O447 U446 2.454 . S
O447 C449 1.353 . S
O448 U446 2.458 . S
O448 C449 1.286 . S
C449 U446 2.984 . S
C449 O447 1.353 . S
C449 O448 1.286 . S
C449 C451 1.363 . S
C450 C440 1.465 . S
C450 U446 2.847 . S
C450 O464 1.249 . S
C450 O465 1.202 . S
C451 C449 1.363 . S
C451 C453 1.408 . S
C451 C456 1.342 . S
C452 C453 1.310 . S
C452 C455 1.461 . S
C452 H472 0.932 . S
C453 C451 1.408 . S
C453 C452 1.310 . S
C453 H473 0.930 . S
C454 C455 1.474 . S
C454 C456 1.285 . S
C454 H474 0.929 . S
C455 C452 1.461 . S
C455 C454 1.474 . S
C456 C451 1.342 . S
C456 C454 1.285 . S
C456 H475 0.930 . S
C457 C460 1.424 . S
C457 C462 1.245 . S
C457 C463 1.428 . S
C458 C461 1.260 . S
C458 C462 1.477 . S
C458 H476 0.932 . S
C459 C460 1.384 . S
C459 C461 1.479 . S
C459 H477 0.929 . S
C460 C457 1.424 . S
C460 C459 1.384 . S
C460 H478 0.928 . S
C461 C458 1.260 . S
C461 C459 1.479 . S
C462 C457 1.245 . S
C462 C458 1.477 . S
C462 H479 0.932 . S
C463 U446 2.882 . S
C463 C457 1.428 . S
C463 O466 1.301 . S
C463 O467 1.282 . S
O464 U446 2.441 . S
O464 C450 1.249 . S
O465 U446 2.420 . S
O465 C450 1.202 . S
O466 U446 2.455 . S
O466 C463 1.301 . S
O467 U446 2.449 . S
O467 C463 1.282 . S
H468 C441 0.931 . S
H469 C443 0.929 . S
H470 C444 0.930 . S
H471 C445 0.931 . S
H472 C452 0.932 . S
H473 C453 0.930 . S
H474 C454 0.929 . S
H475 C456 0.930 . S
H476 C458 0.932 . S
H477 C459 0.929 . S
H478 C460 0.928 . S
H479 C462 0.932 . S
C480 C481 1.264 . S
C480 C485 1.479 . S
C480 C490 1.465 . S
C481 C480 1.264 . S
C481 C483 1.339 . S
C481 H508 0.931 . S
C482 C483 1.395 . S
C482 C484 1.320 . S
C483 C481 1.339 . S
C483 C482 1.395 . S
C483 H509 0.929 . S
C484 C482 1.320 . S
C484 C485 1.405 . S
C484 H510 0.930 . S
C485 C480 1.479 . S
C485 C484 1.405 . S
C485 H511 0.931 . S
U486 O487 2.454 . S
U486 O488 2.458 . S
U486 C489 2.984 . S
U486 C490 2.847 . S
U486 C503 2.882 . S
U486 O504 2.441 . S
U486 O505 2.420 . S
U486 O506 2.455 . S
U486 O507 2.449 . S
O487 U486 2.454 . S
O487 C489 1.353 . S
O488 U486 2.458 . S
O488 C489 1.286 . S
C489 U486 2.984 . S
C489 O487 1.353 . S
C489 O488 1.286 . S
C489 C491 1.363 . S
C490 C480 1.465 . S
C490 U486 2.847 . S
C490 O504 1.249 . S
C490 O505 1.202 . S
C491 C489 1.363 . S
C491 C493 1.408 . S
C491 C496 1.342 . S
C492 C493 1.310 . S
C492 C495 1.461 . S
C492 H512 0.932 . S
C493 C491 1.408 . S
C493 C492 1.310 . S
C493 H513 0.930 . S
C494 C495 1.474 . S
C494 C496 1.285 . S
C494 H514 0.929 . S
C495 C492 1.461 . S
C495 C494 1.474 . S
C496 C491 1.342 . S
C496 C494 1.285 . S
C496 H515 0.930 . S
C497 C500 1.424 . S
C497 C502 1.245 . S
C497 C503 1.428 . S
C498 C501 1.260 . S
C498 C502 1.477 . S
C498 H516 0.932 . S
C499 C500 1.384 . S
C499 C501 1.479 . S
C499 H517 0.929 . S
C500 C497 1.424 . S
C500 C499 1.384 . S
C500 H518 0.928 . S
C501 C498 1.260 . S
C501 C499 1.479 . S
C502 C497 1.245 . S
C502 C498 1.477 . S
C502 H519 0.932 . S
C503 U486 2.882 . S
C503 C497 1.428 . S
C503 O506 1.301 . S
C503 O507 1.282 . S
O504 U486 2.441 . S
O504 C490 1.249 . S
O505 U486 2.420 . S
O505 C490 1.202 . S
O506 U486 2.455 . S
O506 C503 1.301 . S
O507 U486 2.449 . S
O507 C503 1.282 . S
H508 C481 0.931 . S
H509 C483 0.929 . S
H510 C484 0.930 . S
H511 C485 0.931 . S
H512 C492 0.932 . S
H513 C493 0.930 . S
H514 C494 0.929 . S
H515 C496 0.930 . S
H516 C498 0.932 . S
H517 C499 0.929 . S
H518 C500 0.928 . S
H519 C502 0.932 . S
C520 C521 1.264 . S
C520 C525 1.479 . S
C520 C530 1.465 . S
C521 C520 1.264 . S
C521 C523 1.339 . S
C521 H548 0.931 . S
C522 C523 1.395 . S
C522 C524 1.320 . S
C523 C521 1.339 . S
C523 C522 1.395 . S
C523 H549 0.929 . S
C524 C522 1.320 . S
C524 C525 1.405 . S
C524 H550 0.930 . S
C525 C520 1.479 . S
C525 C524 1.405 . S
C525 H551 0.931 . S
U526 O527 2.454 . S
U526 O528 2.458 . S
U526 C529 2.984 . S
U526 C530 2.847 . S
U526 C543 2.882 . S
U526 O544 2.441 . S
U526 O545 2.420 . S
U526 O546 2.455 . S
U526 O547 2.449 . S
O527 U526 2.454 . S
O527 C529 1.353 . S
O528 U526 2.458 . S
O528 C529 1.286 . S
C529 U526 2.984 . S
C529 O527 1.353 . S
C529 O528 1.286 . S
C529 C531 1.363 . S
C530 C520 1.465 . S
C530 U526 2.847 . S
C530 O544 1.249 . S
C530 O545 1.202 . S
C531 C529 1.363 . S
C531 C533 1.408 . S
C531 C536 1.342 . S
C532 C533 1.310 . S
C532 C535 1.461 . S
C532 H552 0.932 . S
C533 C531 1.408 . S
C533 C532 1.310 . S
C533 H553 0.930 . S
C534 C535 1.474 . S
C534 C536 1.285 . S
C534 H554 0.929 . S
C535 C532 1.461 . S
C535 C534 1.474 . S
C536 C531 1.342 . S
C536 C534 1.285 . S
C536 H555 0.930 . S
C537 C540 1.424 . S
C537 C542 1.245 . S
C537 C543 1.428 . S
C538 C541 1.260 . S
C538 C542 1.477 . S
C538 H556 0.932 . S
C539 C540 1.384 . S
C539 C541 1.479 . S
C539 H557 0.929 . S
C540 C537 1.424 . S
C540 C539 1.384 . S
C540 H558 0.928 . S
C541 C538 1.260 . S
C541 C539 1.479 . S
C542 C537 1.245 . S
C542 C538 1.477 . S
C542 H559 0.932 . S
C543 U526 2.882 . S
C543 C537 1.428 . S
C543 O546 1.301 . S
C543 O547 1.282 . S
O544 U526 2.441 . S
O544 C530 1.249 . S
O545 U526 2.420 . S
O545 C530 1.202 . S
O546 U526 2.455 . S
O546 C543 1.301 . S
O547 U526 2.449 . S
O547 C543 1.282 . S
H548 C521 0.931 . S
H549 C523 0.929 . S
H550 C524 0.930 . S
H551 C525 0.931 . S
H552 C532 0.932 . S
H553 C533 0.930 . S
H554 C534 0.929 . S
H555 C536 0.930 . S
H556 C538 0.932 . S
H557 C539 0.929 . S
H558 C540 0.928 . S
H559 C542 0.932 . S
C560 C561 1.264 . S
C560 C565 1.479 . S
C560 C570 1.465 . S
C561 C560 1.264 . S
C561 C563 1.339 . S
C561 H588 0.931 . S
C562 C563 1.395 . S
C562 C564 1.320 . S
C563 C561 1.339 . S
C563 C562 1.395 . S
C563 H589 0.929 . S
C564 C562 1.320 . S
C564 C565 1.405 . S
C564 H590 0.911 1_455 S
C565 C560 1.479 . S
C565 C564 1.405 . S
C565 H591 0.931 1_455 S
U566 O567 2.524 . S
U566 O568 2.502 . S
U566 C569 3.045 . S
U566 C570 2.848 1_655 S
U566 C583 2.830 1_655 S
U566 O584 2.470 . S
U566 O585 2.390 1_655 S
U566 O586 2.421 1_655 S
U566 O587 2.383 1_655 S
O567 U566 2.524 . S
O567 C569 1.353 . S
O568 U566 2.502 . S
O568 C569 1.286 . S
C569 U566 3.045 . S
C569 O567 1.353 . S
C569 O568 1.286 . S
C569 C571 1.363 . S
C570 C560 1.465 . S
C570 U566 2.848 1_455 S
C570 O584 1.249 1_455 S
C570 O585 1.202 . S
C571 C569 1.363 . S
C571 C573 1.408 . S
C571 C576 1.342 . S
C572 C573 1.310 . S
C572 C575 1.461 . S
C572 H592 0.932 . S
C573 C571 1.408 . S
C573 C572 1.310 . S
C573 H593 0.930 . S
C574 C575 1.474 . S
C574 C576 1.285 . S
C574 H594 0.929 . S
C575 C572 1.461 . S
C575 C574 1.474 . S
C576 C571 1.342 . S
C576 C574 1.285 . S
C576 H595 0.930 . S
C577 C580 1.424 . S
C577 C582 1.245 . S
C577 C583 1.428 . S
C578 C581 1.260 . S
C578 C582 1.477 . S
C578 H596 0.932 . S
C579 C580 1.384 . S
C579 C581 1.479 . S
C579 H597 0.929 . S
C580 C577 1.424 . S
C580 C579 1.384 . S
C580 H598 0.928 . S
C581 C578 1.260 . S
C581 C579 1.479 . S
C582 C577 1.245 . S
C582 C578 1.477 . S
C582 H599 0.932 . S
C583 U566 2.830 1_455 S
C583 C577 1.428 . S
C583 O586 1.301 . S
C583 O587 1.282 . S
O584 U566 2.470 . S
O584 C570 1.249 1_655 S
O585 U566 2.390 1_455 S
O585 C570 1.202 . S
O586 U566 2.421 1_455 S
O586 C583 1.301 . S
O587 U566 2.383 1_455 S
O587 C583 1.282 . S
H588 C561 0.931 . S
H589 C563 0.929 . S
H590 C564 0.911 1_655 S
H591 C565 0.931 1_655 S
H592 C572 0.932 . S
H593 C573 0.930 . S
H594 C574 0.929 . S
H595 C576 0.930 . S
H596 C578 0.932 . S
H597 C579 0.929 . S
H598 C580 0.928 . S
H599 C582 0.932 . S
C600 C601 1.264 . S
C600 C605 1.479 . S
C600 C610 1.465 . S
C601 C600 1.264 . S
C601 C603 1.339 . S
C601 H628 0.931 . S
C602 C603 1.395 . S
C602 C604 1.320 . S
C603 C601 1.339 . S
C603 C602 1.395 . S
C603 H629 0.929 . S
C604 C602 1.320 . S
C604 C605 1.405 . S
C604 H630 0.930 . S
C605 C600 1.479 . S
C605 C604 1.405 . S
C605 H631 0.931 . S
U606 O607 2.454 1_455 S
U606 O608 2.458 1_455 S
U606 C609 2.984 1_455 S
U606 C610 2.847 . S
U606 C623 2.882 . S
U606 O624 2.441 . S
U606 O625 2.420 . S
U606 O626 2.455 . S
U606 O627 2.449 . S
O607 U606 2.454 1_655 S
O607 C609 1.353 . S
O608 U606 2.458 1_655 S
O608 C609 1.286 . S
C609 U606 2.984 1_655 S
C609 O607 1.353 . S
C609 O608 1.286 . S
C609 C611 1.363 . S
C610 C600 1.465 . S
C610 U606 2.847 . S
C610 O624 1.249 . S
C610 O625 1.202 . S
C611 C609 1.363 . S
C611 C613 1.408 . S
C611 C616 1.342 . S
C612 C613 1.310 . S
C612 C615 1.461 . S
C612 H632 0.932 . S
C613 C611 1.408 . S
C613 C612 1.310 . S
C613 H633 0.930 . S
C614 C615 1.474 . S
C614 C616 1.285 . S
C614 H634 0.929 . S
C615 C612 1.461 . S
C615 C614 1.474 . S
C616 C611 1.342 . S
C616 C614 1.285 . S
C616 H635 0.930 . S
C617 C620 1.424 . S
C617 C622 1.245 . S
C617 C623 1.428 . S
C618 C621 1.260 . S
C618 C622 1.477 . S
C618 H636 0.932 . S
C619 C620 1.384 . S
C619 C621 1.479 . S
C619 H637 0.929 . S
C620 C617 1.424 . S
C620 C619 1.384 . S
C620 H638 0.928 . S
C621 C618 1.260 . S
C621 C619 1.479 . S
C622 C617 1.245 . S
C622 C618 1.477 . S
C622 H639 0.932 1_455 S
C623 U606 2.882 . S
C623 C617 1.428 . S
C623 O626 1.293 . S
C623 O627 1.282 . S
O624 U606 2.441 . S
O624 C610 1.249 . S
O625 U606 2.420 . S
O625 C610 1.202 . S
O626 U606 2.455 . S
O626 C623 1.293 . S
O627 U606 2.449 . S
O627 C623 1.282 . S
H628 C601 0.931 . S
H629 C603 0.929 . S
H630 C604 0.930 . S
H631 C605 0.931 . S
H632 C612 0.932 . S
H633 C613 0.930 . S
H634 C614 0.929 . S
H635 C616 0.930 . S
H636 C618 0.932 . S
H637 C619 0.929 . S
H638 C620 0.928 . S
H639 C622 0.932 1_655 S
C640 C641 1.264 . S
C640 C645 1.479 . S
C640 C650 1.465 . S
C641 C640 1.264 . S
C641 C643 1.339 . S
C641 H668 0.931 . S
C642 C643 1.395 . S
C642 C644 1.320 . S
C643 C641 1.339 . S
C643 C642 1.395 . S
C643 H669 0.929 . S
C644 C642 1.320 . S
C644 C645 1.405 . S
C644 H670 0.930 . S
C645 C640 1.479 . S
C645 C644 1.405 . S
C645 H671 0.931 . S
U646 O647 2.454 . S
U646 O648 2.458 . S
U646 C649 2.984 . S
U646 C650 2.847 . S
U646 C663 2.882 . S
U646 O664 2.441 . S
U646 O665 2.420 . S
U646 O666 2.455 . S
U646 O667 2.449 . S
O647 U646 2.454 . S
O647 C649 1.353 . S
O648 U646 2.458 . S
O648 C649 1.286 . S
C649 U646 2.984 . S
C649 O647 1.353 . S
C649 O648 1.286 . S
C649 C651 1.363 . S
C650 C640 1.465 . S
C650 U646 2.847 . S
C650 O664 1.249 . S
C650 O665 1.202 . S
C651 C649 1.363 . S
C651 C653 1.408 . S
C651 C656 1.342 . S
C652 C653 1.310 . S
C652 C655 1.461 . S
C652 H672 0.932 . S
C653 C651 1.408 . S
C653 C652 1.310 . S
C653 H673 0.930 . S
C654 C655 1.474 . S
C654 C656 1.285 . S
C654 H674 0.929 . S
C655 C652 1.461 . S
C655 C654 1.474 . S
C656 C651 1.342 . S
C656 C654 1.285 . S
C656 H675 0.930 . S
C657 C660 1.424 . S
C657 C662 1.245 . S
C657 C663 1.428 . S
C658 C661 1.260 . S
C658 C662 1.477 . S
C658 H676 0.932 . S
C659 C660 1.384 . S
C659 C661 1.479 . S
C659 H677 0.929 . S
C660 C657 1.424 . S
C660 C659 1.384 . S
C660 H678 0.928 . S
C661 C658 1.260 . S
C661 C659 1.479 . S
C662 C657 1.245 . S
C662 C658 1.477 . S
C662 H679 0.932 . S
C663 U646 2.882 . S
C663 C657 1.428 . S
C663 O666 1.301 . S
C663 O667 1.282 . S
O664 U646 2.441 . S
O664 C650 1.249 . S
O665 U646 2.420 . S
O665 C650 1.202 . S
O666 U646 2.455 . S
O666 C663 1.301 . S
O667 U646 2.449 . S
O667 C663 1.282 . S
H668 C641 0.931 . S
H669 C643 0.929 . S
H670 C644 0.930 . S
H671 C645 0.931 . S
H672 C652 0.932 . S
H673 C653 0.930 . S
H674 C654 0.929 . S
H675 C656 0.930 . S
H676 C658 0.932 . S
H677 C659 0.929 . S
H678 C660 0.928 . S
H679 C662 0.932 . S
C680 C681 1.264 . S
C680 C685 1.479 . S
C680 C690 1.465 . S
C681 C680 1.264 . S
C681 C683 1.339 . S
C681 H708 0.931 . S
C682 C683 1.395 . S
C682 C684 1.320 . S
C683 C681 1.339 . S
C683 C682 1.395 . S
C683 H709 0.929 . S
C684 C682 1.320 . S
C684 C685 1.405 . S
C684 H710 0.930 . S
C685 C680 1.479 . S
C685 C684 1.405 . S
C685 H711 0.931 . S
U686 O687 2.454 . S
U686 O688 2.458 . S
U686 C689 2.984 . S
U686 C690 2.847 . S
U686 C703 2.882 . S
U686 O704 2.441 . S
U686 O705 2.420 . S
U686 O706 2.455 . S
U686 O707 2.449 . S
O687 U686 2.454 . S
O687 C689 1.353 . S
O688 U686 2.458 . S
O688 C689 1.286 . S
C689 U686 2.984 . S
C689 O687 1.353 . S
C689 O688 1.286 . S
C689 C691 1.363 . S
C690 C680 1.465 . S
C690 U686 2.847 . S
C690 O704 1.249 . S
C690 O705 1.202 . S
C691 C689 1.363 . S
C691 C693 1.408 . S
C691 C696 1.342 . S
C692 C693 1.310 . S
C692 C695 1.461 . S
C692 H712 0.932 . S
C693 C691 1.408 . S
C693 C692 1.310 . S
C693 H713 0.930 . S
C694 C695 1.474 . S
C694 C696 1.285 . S
C694 H714 0.929 . S
C695 C692 1.461 . S
C695 C694 1.474 . S
C696 C691 1.342 . S
C696 C694 1.285 . S
C696 H715 0.930 . S
C697 C700 1.424 . S
C697 C702 1.245 . S
C697 C703 1.428 . S
C698 C701 1.260 . S
C698 C702 1.477 . S
C698 H716 0.932 . S
C699 C700 1.384 . S
C699 C701 1.479 . S
C699 H717 0.929 . S
C700 C697 1.424 . S
C700 C699 1.384 . S
C700 H718 0.928 . S
C701 C698 1.260 . S
C701 C699 1.479 . S
C702 C697 1.245 . S
C702 C698 1.477 . S
C702 H719 0.932 . S
C703 U686 2.882 . S
C703 C697 1.428 . S
C703 O706 1.301 . S
C703 O707 1.282 . S
O704 U686 2.441 . S
O704 C690 1.249 . S
O705 U686 2.420 . S
O705 C690 1.202 . S
O706 U686 2.455 . S
O706 C703 1.301 . S
O707 U686 2.449 . S
O707 C703 1.282 . S
H708 C681 0.931 . S
H709 C683 0.929 . S
H710 C684 0.930 . S
H711 C685 0.931 . S
H712 C692 0.932 . S
H713 C693 0.930 . S
H714 C694 0.929 . S
H715 C696 0.930 . S
H716 C698 0.932 . S
H717 C699 0.929 . S
H718 C700 0.928 . S
H719 C702 0.932 . S
C720 C721 1.391 . S
C720 C722 1.394 . S
C720 H736 0.847 1_545 S
C721 C720 1.391 . S
C721 C725 1.376 . S
C722 C720 1.394 . S
C722 C723 1.369 . S
C722 C726 1.531 1_545 S
C723 C722 1.369 . S
C723 C724 1.410 . S
C723 C731 1.503 . S
C724 C723 1.410 . S
C724 C725 1.392 . S
C724 C727 1.511 . S
C725 C721 1.376 . S
C725 C724 1.392 . S
C725 H737 0.929 . S
C726 C722 1.531 1_565 S
C726 H738 0.960 . S
C726 H739 0.962 1_554 S
C726 H740 0.960 . S
C727 C724 1.511 . S
C727 H741 0.961 . S
C727 H742 0.961 . S
C727 H743 0.961 . S
C728 C729 1.370 . S
C728 C730 1.363 . S
C728 H744 0.931 1_554 S
C729 C728 1.370 . S
C729 C733 1.408 . S
C730 C728 1.363 . S
C730 C731 1.370 . S
C730 C734 1.524 1_554 S
C731 C723 1.503 . S
C731 C730 1.370 . S
C731 C732 1.403 . S
C732 C731 1.403 . S
C732 C733 1.404 . S
C732 C735 1.539 . S
C733 C729 1.408 . S
C733 C732 1.404 . S
C733 H745 0.930 . S
C734 C730 1.524 1_556 S
C734 H746 0.956 . S
C734 H747 0.961 . S
C734 H748 0.961 . S
C735 C732 1.539 . S
C735 H749 0.958 1_545 S
C735 H750 0.961 . S
C735 H751 0.960 . S
H736 C720 0.847 1_565 S
H737 C725 0.929 . S
H738 C726 0.960 . S
H739 C726 0.962 1_556 S
H740 C726 0.960 . S
H741 C727 0.961 . S
H742 C727 0.961 . S
H743 C727 0.961 . S
H744 C728 0.931 1_556 S
H745 C733 0.930 . S
H746 C734 0.956 . S
H747 C734 0.961 . S
H748 C734 0.961 . S
H749 C735 0.958 1_565 S
H750 C735 0.961 . S
H751 C735 0.960 . S
C752 C753 1.391 . S
C752 C754 1.394 . S
C752 H768 0.931 . S
C753 C752 1.391 . S
C753 C757 1.376 . S
C754 C752 1.394 . S
C754 C755 1.369 . S
C754 C758 1.531 1_554 S
C755 C754 1.369 . S
C755 C756 1.410 . S
C755 C763 1.503 . S
C756 C755 1.410 . S
C756 C757 1.392 . S
C756 C759 1.511 . S
C757 C753 1.376 . S
C757 C756 1.392 . S
C757 H769 0.929 . S
C758 C754 1.531 1_556 S
C758 H770 0.960 . S
C758 H771 0.962 1_556 S
C758 H772 0.960 . S
C759 C756 1.511 . S
C759 H773 0.961 . S
C759 H774 0.961 . S
C759 H775 0.961 . S
C760 C761 1.370 . S
C760 C762 1.363 . S
C760 H776 0.931 . S
C761 C760 1.370 . S
C761 C765 1.408 1_554 S
C762 C760 1.363 . S
C762 C763 1.370 . S
C762 C766 1.524 . S
C763 C755 1.503 . S
C763 C762 1.370 . S
C763 C764 1.403 1_554 S
C764 C763 1.403 1_556 S
C764 C765 1.404 . S
C764 C767 1.539 . S
C765 C761 1.408 1_556 S
C765 C764 1.404 . S
C765 H777 0.930 . S
C766 C762 1.524 . S
C766 H778 0.956 . S
C766 H779 0.961 . S
C766 H780 0.961 . S
C767 C764 1.539 . S
C767 H781 0.958 . S
C767 H782 0.961 . S
C767 H783 0.960 . S
H768 C752 0.931 . S
H769 C757 0.929 . S
H770 C758 0.960 . S
H771 C758 0.962 1_554 S
H772 C758 0.960 . S
H773 C759 0.961 . S
H774 C759 0.961 . S
H775 C759 0.961 . S
H776 C760 0.931 . S
H777 C765 0.930 . S
H778 C766 0.956 . S
H779 C766 0.961 . S
H780 C766 0.961 . S
H781 C767 0.958 . S
H782 C767 0.961 . S
H783 C767 0.960 . S
C784 C785 1.391 . S
C784 C786 1.394 . S
C784 H800 0.931 . S
C785 C784 1.391 . S
C785 C789 1.376 . S
C786 C784 1.394 . S
C786 C787 1.369 . S
C786 C790 1.531 . S
C787 C786 1.369 . S
C787 C788 1.410 . S
C787 C795 1.503 . S
C788 C787 1.410 . S
C788 C789 1.392 . S
C788 C791 1.511 . S
C789 C785 1.376 . S
C789 C788 1.392 . S
C789 H801 0.929 . S
C790 C786 1.531 . S
C790 H802 0.960 . S
C790 H803 0.933 1_554 S
C790 H804 0.960 . S
C791 C788 1.511 . S
C791 H805 0.961 . S
C791 H806 0.961 . S
C791 H807 0.961 . S
C792 C793 1.370 1_556 S
C792 C794 1.363 . S
C792 H808 0.931 . S
C793 C792 1.370 1_554 S
C793 C797 1.408 . S
C794 C792 1.363 . S
C794 C795 1.370 1_556 S
C794 C798 1.524 . S
C795 C787 1.503 . S
C795 C794 1.370 1_554 S
C795 C796 1.403 . S
C796 C795 1.403 . S
C796 C797 1.404 . S
C796 C799 1.539 . S
C797 C793 1.408 . S
C797 C796 1.404 . S
C797 H809 0.930 . S
C798 C794 1.524 . S
C798 H810 0.956 . S
C798 H811 0.961 . S
C798 H812 0.961 . S
C799 C796 1.539 . S
C799 H813 0.958 . S
C799 H814 0.961 . S
C799 H815 0.960 . S
H800 C784 0.931 . S
H801 C789 0.929 . S
H802 C790 0.960 . S
H803 C790 0.933 1_556 S
H804 C790 0.960 . S
H805 C791 0.961 . S
H806 C791 0.961 . S
H807 C791 0.961 . S
H808 C792 0.931 . S
H809 C797 0.930 . S
H810 C798 0.956 . S
H811 C798 0.961 . S
H812 C798 0.961 . S
H813 C799 0.958 . S
H814 C799 0.961 . S
H815 C799 0.960 . S
C816 C817 1.391 . S
C816 C818 1.394 . S
C816 H832 0.931 . S
C817 C816 1.391 . S
C817 C821 1.376 . S
C818 C816 1.394 . S
C818 C819 1.369 . S
C818 C822 1.531 . S
C819 C818 1.369 . S
C819 C820 1.410 . S
C819 C827 1.503 . S
C820 C819 1.410 . S
C820 C821 1.392 . S
C820 C823 1.511 . S
C821 C817 1.376 . S
C821 C820 1.392 . S
C821 H833 0.929 . S
C822 C818 1.531 . S
C822 H834 0.960 . S
C822 H835 0.962 . S
C822 H836 0.960 . S
C823 C820 1.511 . S
C823 H837 0.961 . S
C823 H838 0.961 . S
C823 H839 0.961 . S
C824 C825 1.370 . S
C824 C826 1.363 . S
C824 H840 0.931 . S
C825 C824 1.370 . S
C825 C829 1.408 . S
C826 C824 1.363 . S
C826 C827 1.370 . S
C826 C830 1.524 . S
C827 C819 1.503 . S
C827 C826 1.370 . S
C827 C828 1.403 . S
C828 C827 1.403 . S
C828 C829 1.404 . S
C828 C831 1.539 . S
C829 C825 1.408 . S
C829 C828 1.404 . S
C829 H841 0.930 . S
C830 C826 1.524 . S
C830 H842 0.956 . S
C830 H843 0.961 . S
C830 H844 0.961 . S
C831 C828 1.539 . S
C831 H845 0.958 . S
C831 H846 0.961 . S
C831 H847 0.960 . S
H832 C816 0.931 . S
H833 C821 0.929 . S
H834 C822 0.960 . S
H835 C822 0.962 . S
H836 C822 0.960 . S
H837 C823 0.961 . S
H838 C823 0.961 . S
H839 C823 0.961 . S
H840 C824 0.931 . S
H841 C829 0.930 . S
H842 C830 0.956 . S
H843 C830 0.961 . S
H844 C830 0.961 . S
H845 C831 0.958 . S
H846 C831 0.961 . S
H847 C831 0.960 . S
C848 C849 1.391 . S
C848 C850 1.394 . S
C848 H864 0.931 . S
C849 C848 1.391 . S
C849 C853 1.376 . S
C850 C848 1.394 . S
C850 C851 1.369 . S
C850 C854 1.531 . S
C851 C850 1.369 . S
C851 C852 1.410 . S
C851 C859 1.503 . S
C852 C851 1.410 . S
C852 C853 1.392 . S
C852 C855 1.511 . S
C853 C849 1.376 . S
C853 C852 1.392 . S
C853 H865 0.929 . S
C854 C850 1.531 . S
C854 H866 0.960 . S
C854 H867 0.962 . S
C854 H868 0.960 . S
C855 C852 1.511 . S
C855 H869 0.961 . S
C855 H870 0.961 . S
C855 H871 0.961 . S
C856 C857 1.370 . S
C856 C858 1.363 . S
C856 H872 0.931 . S
C857 C856 1.370 . S
C857 C861 1.408 . S
C858 C856 1.363 . S
C858 C859 1.370 . S
C858 C862 1.524 . S
C859 C851 1.503 . S
C859 C858 1.370 . S
C859 C860 1.403 . S
C860 C859 1.403 . S
C860 C861 1.404 . S
C860 C863 1.539 . S
C861 C857 1.408 . S
C861 C860 1.404 . S
C861 H873 0.930 . S
C862 C858 1.524 . S
C862 H874 0.956 . S
C862 H875 0.961 . S
C862 H876 0.961 . S
C863 C860 1.539 . S
C863 H877 0.958 . S
C863 H878 0.961 . S
C863 H879 0.960 . S
H864 C848 0.931 . S
H865 C853 0.929 . S
H866 C854 0.960 . S
H867 C854 0.962 . S
H868 C854 0.960 . S
H869 C855 0.961 . S
H870 C855 0.961 . S
H871 C855 0.961 . S
H872 C856 0.931 . S
H873 C861 0.930 . S
H874 C862 0.956 . S
H875 C862 0.961 . S
H876 C862 0.961 . S
H877 C863 0.958 . S
H878 C863 0.961 . S
H879 C863 0.960 . S
C880 C881 1.391 . S
C880 C882 1.394 . S
C880 H896 0.931 . S
C881 C880 1.391 . S
C881 C885 1.376 . S
C882 C880 1.394 . S
C882 C883 1.369 . S
C882 C886 1.531 . S
C883 C882 1.369 . S
C883 C884 1.410 . S
C883 C891 1.503 . S
C884 C883 1.410 . S
C884 C885 1.392 . S
C884 C887 1.511 . S
C885 C881 1.376 . S
C885 C884 1.392 . S
C885 H897 0.929 . S
C886 C882 1.531 . S
C886 H898 0.960 . S
C886 H899 0.962 . S
C886 H900 0.960 . S
C887 C884 1.511 . S
C887 H901 0.961 . S
C887 H902 0.961 . S
C887 H903 0.961 . S
C888 C889 1.370 . S
C888 C890 1.363 . S
C888 H904 0.931 . S
C889 C888 1.370 . S
C889 C893 1.408 . S
C890 C888 1.363 . S
C890 C891 1.370 . S
C890 C894 1.524 . S
C891 C883 1.503 . S
C891 C890 1.370 . S
C891 C892 1.403 . S
C892 C891 1.403 . S
C892 C893 1.404 . S
C892 C895 1.539 . S
C893 C889 1.408 . S
C893 C892 1.404 . S
C893 H905 0.930 . S
C894 C890 1.524 . S
C894 H906 0.956 . S
C894 H907 0.961 . S
C894 H908 0.961 . S
C895 C892 1.539 . S
C895 H909 0.958 . S
C895 H910 0.961 . S
C895 H911 0.960 . S
H896 C880 0.931 . S
H897 C885 0.929 . S
H898 C886 0.960 . S
H899 C886 0.962 . S
H900 C886 0.960 . S
H901 C887 0.961 . S
H902 C887 0.961 . S
H903 C887 0.961 . S
H904 C888 0.931 . S
H905 C893 0.930 . S
H906 C894 0.956 . S
H907 C894 0.961 . S
H908 C894 0.961 . S
H909 C895 0.958 . S
H910 C895 0.961 . S
H911 C895 0.960 . S
C912 C913 1.391 . S
C912 C914 1.394 . S
C912 H928 0.931 . S
C913 C912 1.391 . S
C913 C917 1.376 . S
C914 C912 1.394 . S
C914 C915 1.369 . S
C914 C918 1.531 . S
C915 C914 1.369 . S
C915 C916 1.410 . S
C915 C923 1.503 . S
C916 C915 1.410 . S
C916 C917 1.392 . S
C916 C919 1.511 . S
C917 C913 1.376 . S
C917 C916 1.392 . S
C917 H929 0.929 . S
C918 C914 1.531 . S
C918 H930 0.960 . S
C918 H931 0.962 . S
C918 H932 0.960 . S
C919 C916 1.511 . S
C919 H933 0.961 . S
C919 H934 0.961 . S
C919 H935 0.961 . S
C920 C921 1.370 . S
C920 C922 1.363 . S
C920 H936 0.931 . S
C921 C920 1.370 . S
C921 C925 1.408 . S
C922 C920 1.363 . S
C922 C923 1.370 . S
C922 C926 1.524 . S
C923 C915 1.503 . S
C923 C922 1.370 . S
C923 C924 1.403 . S
C924 C923 1.403 . S
C924 C925 1.404 . S
C924 C927 1.539 . S
C925 C921 1.408 . S
C925 C924 1.404 . S
C925 H937 0.930 . S
C926 C922 1.524 . S
C926 H938 0.956 . S
C926 H939 0.961 . S
C926 H940 0.961 . S
C927 C924 1.539 . S
C927 H941 0.958 . S
C927 H942 0.961 . S
C927 H943 0.960 . S
H928 C912 0.931 . S
H929 C917 0.929 . S
H930 C918 0.960 . S
H931 C918 0.962 . S
H932 C918 0.960 . S
H933 C919 0.961 . S
H934 C919 0.961 . S
H935 C919 0.961 . S
H936 C920 0.931 . S
H937 C925 0.930 . S
H938 C926 0.956 . S
H939 C926 0.961 . S
H940 C926 0.961 . S
H941 C927 0.958 . S
H942 C927 0.961 . S
H943 C927 0.960 . S
C944 C945 1.391 . S
C944 C946 1.394 . S
C944 H960 0.931 . S
C945 C944 1.391 . S
C945 C949 1.376 . S
C946 C944 1.394 . S
C946 C947 1.369 . S
C946 C950 1.531 . S
C947 C946 1.369 . S
C947 C948 1.410 . S
C947 C955 1.503 . S
C948 C947 1.410 . S
C948 C949 1.392 . S
C948 C951 1.511 . S
C949 C945 1.376 . S
C949 C948 1.392 . S
C949 H961 0.929 . S
C950 C946 1.531 . S
C950 H962 0.960 . S
C950 H963 0.962 . S
C950 H964 0.960 . S
C951 C948 1.511 . S
C951 H965 0.961 . S
C951 H966 0.961 . S
C951 H967 0.961 . S
C952 C953 1.370 . S
C952 C954 1.363 . S
C952 H968 0.931 . S
C953 C952 1.370 . S
C953 C957 1.408 . S
C954 C952 1.363 . S
C954 C955 1.370 . S
C954 C958 1.524 . S
C955 C947 1.503 . S
C955 C954 1.370 . S
C955 C956 1.403 . S
C956 C955 1.403 . S
C956 C957 1.404 . S
C956 C959 1.539 . S
C957 C953 1.408 . S
C957 C956 1.404 . S
C957 H969 0.930 . S
C958 C954 1.524 . S
C958 H970 0.956 . S
C958 H971 0.961 . S
C958 H972 0.961 . S
C959 C956 1.539 . S
C959 H973 0.958 . S
C959 H974 0.961 . S
C959 H975 0.960 . S
H960 C944 0.931 . S
H961 C949 0.929 . S
H962 C950 0.960 . S
H963 C950 0.962 . S
H964 C950 0.960 . S
H965 C951 0.961 . S
H966 C951 0.961 . S
H967 C951 0.961 . S
H968 C952 0.931 . S
H969 C957 0.930 . S
H970 C958 0.956 . S
H971 C958 0.961 . S
H972 C958 0.961 . S
H973 C959 0.958 . S
H974 C959 0.961 . S
H975 C959 0.960 . S
C976 C977 1.391 . S
C976 C978 1.394 . S
C976 H992 0.931 . S
C977 C976 1.391 . S
C977 C981 1.376 . S
C978 C976 1.394 . S
C978 C979 1.369 . S
C978 C982 1.531 . S
C979 C978 1.369 . S
C979 C980 1.410 . S
C979 C987 1.503 . S
C980 C979 1.410 . S
C980 C981 1.392 . S
C980 C983 1.511 . S
C981 C977 1.376 . S
C981 C980 1.392 . S
C981 H993 0.929 . S
C982 C978 1.531 . S
C982 H994 0.960 . S
C982 H995 0.962 . S
C982 H996 0.960 . S
C983 C980 1.511 . S
C983 H997 0.961 . S
C983 H998 0.961 . S
C983 H999 0.961 . S
C984 C985 1.370 . S
C984 C986 1.363 . S
C984 H1000 0.931 . S
C985 C984 1.370 . S
C985 C989 1.408 . S
C986 C984 1.363 . S
C986 C987 1.370 . S
C986 C990 1.524 . S
C987 C979 1.503 . S
C987 C986 1.370 . S
C987 C988 1.403 . S
C988 C987 1.403 . S
C988 C989 1.404 . S
C988 C991 1.539 . S
C989 C985 1.408 . S
C989 C988 1.404 . S
C989 H1001 0.930 . S
C990 C986 1.524 . S
C990 H1002 0.956 . S
C990 H1003 0.961 . S
C990 H1004 0.961 . S
C991 C988 1.539 . S
C991 H1005 0.958 . S
C991 H1006 0.961 . S
C991 H1007 0.960 . S
H992 C976 0.931 . S
H993 C981 0.929 . S
H994 C982 0.960 . S
H995 C982 0.962 . S
H996 C982 0.960 . S
H997 C983 0.961 . S
H998 C983 0.961 . S
H999 C983 0.961 . S
H1000 C984 0.931 . S
H1001 C989 0.930 . S
H1002 C990 0.956 . S
H1003 C990 0.961 . S
H1004 C990 0.961 . S
H1005 C991 0.958 . S
H1006 C991 0.961 . S
H1007 C991 0.960 . S
C1008 C1009 1.391 . S
C1008 C1010 1.394 . S
C1008 H1024 0.931 . S
C1009 C1008 1.391 . S
C1009 C1013 1.376 . S
C1010 C1008 1.394 . S
C1010 C1011 1.369 . S
C1010 C1014 1.531 . S
C1011 C1010 1.369 . S
C1011 C1012 1.410 . S
C1011 C1019 1.503 . S
C1012 C1011 1.410 . S
C1012 C1013 1.392 . S
C1012 C1015 1.511 . S
C1013 C1009 1.376 . S
C1013 C1012 1.392 . S
C1013 H1025 0.929 . S
C1014 C1010 1.531 . S
C1014 H1026 0.960 . S
C1014 H1027 0.962 . S
C1014 H1028 1.016 . S
C1015 C1012 1.511 . S
C1015 H1029 0.961 . S
C1015 H1030 0.961 . S
C1015 H1031 0.961 . S
C1016 C1017 1.370 . S
C1016 C1018 1.363 . S
C1016 H1032 0.931 . S
C1017 C1016 1.370 . S
C1017 C1021 1.408 . S
C1018 C1016 1.363 . S
C1018 C1019 1.370 . S
C1018 C1022 1.524 . S
C1019 C1011 1.503 . S
C1019 C1018 1.370 . S
C1019 C1020 1.403 . S
C1020 C1019 1.403 . S
C1020 C1021 1.404 . S
C1020 C1023 1.539 . S
C1021 C1017 1.408 . S
C1021 C1020 1.404 . S
C1021 H1033 0.926 1_565 S
C1022 C1018 1.524 . S
C1022 H1034 0.956 . S
C1022 H1035 0.961 . S
C1022 H1036 0.961 . S
C1023 C1020 1.539 . S
C1023 H1037 0.958 1_565 S
C1023 H1038 0.961 . S
C1023 H1039 0.960 . S
H1024 C1008 0.931 . S
H1025 C1013 0.929 . S
H1026 C1014 0.960 . S
H1027 C1014 0.962 . S
H1028 C1014 1.016 . S
H1029 C1015 0.961 . S
H1030 C1015 0.961 . S
H1031 C1015 0.961 . S
H1032 C1016 0.931 . S
H1033 C1021 0.926 1_545 S
H1034 C1022 0.956 . S
H1035 C1022 0.961 . S
H1036 C1022 0.961 . S
H1037 C1023 0.958 1_545 S
H1038 C1023 0.961 . S
H1039 C1023 0.960 . S
C1040 C1041 1.391 . S
C1040 C1042 1.394 . S
C1040 H1056 0.931 . S
C1041 C1040 1.391 . S
C1041 C1045 1.376 . S
C1042 C1040 1.394 . S
C1042 C1043 1.369 . S
C1042 C1046 1.531 . S
C1043 C1042 1.369 . S
C1043 C1044 1.410 . S
C1043 C1051 1.503 . S
C1044 C1043 1.410 . S
C1044 C1045 1.392 . S
C1044 C1047 1.511 . S
C1045 C1041 1.376 . S
C1045 C1044 1.392 . S
C1045 H1057 0.929 . S
C1046 C1042 1.531 . S
C1046 H1058 0.960 . S
C1046 H1059 0.962 . S
C1046 H1060 0.960 . S
C1047 C1044 1.511 . S
C1047 H1061 0.961 . S
C1047 H1062 0.961 . S
C1047 H1063 0.961 . S
C1048 C1049 1.370 . S
C1048 C1050 1.363 . S
C1048 H1064 0.931 . S
C1049 C1048 1.370 . S
C1049 C1053 1.408 . S
C1050 C1048 1.363 . S
C1050 C1051 1.370 . S
C1050 C1054 1.524 . S
C1051 C1043 1.503 . S
C1051 C1050 1.370 . S
C1051 C1052 1.403 . S
C1052 C1051 1.403 . S
C1052 C1053 1.404 . S
C1052 C1055 1.539 . S
C1053 C1049 1.408 . S
C1053 C1052 1.404 . S
C1053 H1065 0.930 . S
C1054 C1050 1.524 . S
C1054 H1066 0.956 . S
C1054 H1067 0.961 . S
C1054 H1068 0.961 . S
C1055 C1052 1.539 . S
C1055 H1069 0.958 . S
C1055 H1070 0.961 . S
C1055 H1071 0.960 . S
H1056 C1040 0.931 . S
H1057 C1045 0.929 . S
H1058 C1046 0.960 . S
H1059 C1046 0.962 . S
H1060 C1046 0.960 . S
H1061 C1047 0.961 . S
H1062 C1047 0.961 . S
H1063 C1047 0.961 . S
H1064 C1048 0.931 . S
H1065 C1053 0.930 . S
H1066 C1054 0.956 . S
H1067 C1054 0.961 . S
H1068 C1054 0.961 . S
H1069 C1055 0.958 . S
H1070 C1055 0.961 . S
H1071 C1055 0.960 . S
C1072 C1073 1.391 . S
C1072 C1074 1.394 . S
C1072 H1088 0.931 . S
C1073 C1072 1.391 . S
C1073 C1077 1.376 . S
C1074 C1072 1.394 . S
C1074 C1075 1.369 . S
C1074 C1078 1.531 . S
C1075 C1074 1.369 . S
C1075 C1076 1.410 . S
C1075 C1083 1.503 . S
C1076 C1075 1.410 . S
C1076 C1077 1.392 . S
C1076 C1079 1.511 . S
C1077 C1073 1.376 . S
C1077 C1076 1.392 . S
C1077 H1089 0.929 . S
C1078 C1074 1.531 . S
C1078 H1090 0.960 . S
C1078 H1091 0.962 . S
C1078 H1092 0.960 . S
C1079 C1076 1.511 . S
C1079 H1093 0.961 . S
C1079 H1094 0.961 . S
C1079 H1095 0.961 . S
C1080 C1081 1.370 . S
C1080 C1082 1.363 . S
C1080 H1096 0.931 . S
C1081 C1080 1.370 . S
C1081 C1085 1.408 . S
C1082 C1080 1.363 . S
C1082 C1083 1.370 . S
C1082 C1086 1.524 . S
C1083 C1075 1.503 . S
C1083 C1082 1.370 . S
C1083 C1084 1.403 . S
C1084 C1083 1.403 . S
C1084 C1085 1.404 . S
C1084 C1087 1.539 . S
C1085 C1081 1.408 . S
C1085 C1084 1.404 . S
C1085 H1097 0.930 . S
C1086 C1082 1.524 . S
C1086 H1098 0.956 . S
C1086 H1099 0.961 . S
C1086 H1100 0.961 . S
C1087 C1084 1.539 . S
C1087 H1101 0.958 . S
C1087 H1102 0.961 . S
C1087 H1103 0.960 . S
H1088 C1072 0.931 . S
H1089 C1077 0.929 . S
H1090 C1078 0.960 . S
H1091 C1078 0.962 . S
H1092 C1078 0.960 . S
H1093 C1079 0.961 . S
H1094 C1079 0.961 . S
H1095 C1079 0.961 . S
H1096 C1080 0.931 . S
H1097 C1085 0.930 . S
H1098 C1086 0.956 . S
H1099 C1086 0.961 . S
H1100 C1086 0.961 . S
H1101 C1087 0.958 . S
H1102 C1087 0.961 . S
H1103 C1087 0.960 . S
C1104 C1105 1.391 . S
C1104 C1106 1.394 . S
C1104 H1120 0.931 . S
C1105 C1104 1.391 . S
C1105 C1109 1.376 . S
C1106 C1104 1.394 . S
C1106 C1107 1.369 . S
C1106 C1110 1.531 . S
C1107 C1106 1.369 . S
C1107 C1108 1.410 . S
C1107 C1115 1.503 . S
C1108 C1107 1.410 . S
C1108 C1109 1.392 . S
C1108 C1111 1.511 . S
C1109 C1105 1.376 . S
C1109 C1108 1.392 . S
C1109 H1121 0.929 . S
C1110 C1106 1.531 . S
C1110 H1122 0.960 . S
C1110 H1123 0.962 . S
C1110 H1124 0.960 . S
C1111 C1108 1.511 . S
C1111 H1125 0.961 . S
C1111 H1126 0.961 . S
C1111 H1127 0.961 . S
C1112 C1113 1.370 . S
C1112 C1114 1.363 . S
C1112 H1128 0.931 . S
C1113 C1112 1.370 . S
C1113 C1117 1.408 . S
C1114 C1112 1.363 . S
C1114 C1115 1.370 . S
C1114 C1118 1.524 . S
C1115 C1107 1.503 . S
C1115 C1114 1.370 . S
C1115 C1116 1.403 . S
C1116 C1115 1.403 . S
C1116 C1117 1.404 . S
C1116 C1119 1.539 . S
C1117 C1113 1.408 . S
C1117 C1116 1.404 . S
C1117 H1129 0.930 . S
C1118 C1114 1.524 . S
C1118 H1130 0.956 . S
C1118 H1131 0.961 . S
C1118 H1132 0.961 . S
C1119 C1116 1.539 . S
C1119 H1133 0.958 . S
C1119 H1134 0.961 1_455 S
C1119 H1135 0.960 . S
H1120 C1104 0.931 . S
H1121 C1109 0.929 . S
H1122 C1110 0.960 . S
H1123 C1110 0.962 . S
H1124 C1110 0.960 . S
H1125 C1111 0.961 . S
H1126 C1111 0.961 . S
H1127 C1111 0.961 . S
H1128 C1112 0.931 . S
H1129 C1117 0.930 . S
H1130 C1118 0.956 . S
H1131 C1118 0.961 . S
H1132 C1118 0.961 . S
H1133 C1119 0.958 . S
H1134 C1119 0.961 1_655 S
H1135 C1119 0.960 . S
C1136 C1137 1.391 . S
C1136 C1138 1.394 . S
C1136 H1152 0.931 . S
C1137 C1136 1.391 . S
C1137 C1141 1.376 . S
C1138 C1136 1.394 . S
C1138 C1139 1.369 . S
C1138 C1142 1.531 . S
C1139 C1138 1.369 . S
C1139 C1140 1.410 . S
C1139 C1147 1.503 . S
C1140 C1139 1.410 . S
C1140 C1141 1.392 . S
C1140 C1143 1.511 . S
C1141 C1137 1.376 . S
C1141 C1140 1.392 . S
C1141 H1153 0.929 . S
C1142 C1138 1.531 . S
C1142 H1154 0.960 . S
C1142 H1155 0.962 . S
C1142 H1156 0.960 . S
C1143 C1140 1.511 . S
C1143 H1157 0.961 . S
C1143 H1158 0.961 . S
C1143 H1159 0.961 . S
C1144 C1145 1.370 . S
C1144 C1146 1.363 . S
C1144 H1160 0.931 . S
C1145 C1144 1.370 . S
C1145 C1149 1.408 . S
C1146 C1144 1.363 . S
C1146 C1147 1.370 . S
C1146 C1150 1.524 . S
C1147 C1139 1.503 . S
C1147 C1146 1.370 . S
C1147 C1148 1.403 . S
C1148 C1147 1.403 . S
C1148 C1149 1.404 . S
C1148 C1151 1.539 . S
C1149 C1145 1.408 . S
C1149 C1148 1.404 . S
C1149 H1161 0.930 . S
C1150 C1146 1.524 . S
C1150 H1162 0.956 . S
C1150 H1163 0.961 . S
C1150 H1164 0.961 . S
C1151 C1148 1.539 . S
C1151 H1165 0.958 . S
C1151 H1166 0.961 . S
C1151 H1167 0.960 . S
H1152 C1136 0.931 . S
H1153 C1141 0.929 . S
H1154 C1142 0.960 . S
H1155 C1142 0.962 . S
H1156 C1142 0.960 . S
H1157 C1143 0.961 . S
H1158 C1143 0.961 . S
H1159 C1143 0.961 . S
H1160 C1144 0.931 . S
H1161 C1149 0.930 . S
H1162 C1150 0.956 . S
H1163 C1150 0.961 . S
H1164 C1150 0.961 . S
H1165 C1151 0.958 . S
H1166 C1151 0.961 . S
H1167 C1151 0.960 . S
C1168 C1169 1.391 . S
C1168 C1170 1.394 . S
C1168 H1184 0.931 . S
C1169 C1168 1.391 . S
C1169 C1173 1.376 . S
C1170 C1168 1.394 . S
C1170 C1171 1.369 . S
C1170 C1174 1.531 . S
C1171 C1170 1.369 . S
C1171 C1172 1.410 . S
C1171 C1179 1.503 . S
C1172 C1171 1.410 . S
C1172 C1173 1.392 . S
C1172 C1175 1.511 . S
C1173 C1169 1.376 . S
C1173 C1172 1.392 . S
C1173 H1185 0.929 . S
C1174 C1170 1.531 . S
C1174 H1186 0.960 . S
C1174 H1187 0.962 . S
C1174 H1188 0.960 . S
C1175 C1172 1.511 . S
C1175 H1189 0.961 . S
C1175 H1190 0.961 . S
C1175 H1191 0.961 . S
C1176 C1177 1.370 . S
C1176 C1178 1.363 . S
C1176 H1192 0.931 . S
C1177 C1176 1.370 . S
C1177 C1181 1.408 . S
C1178 C1176 1.363 . S
C1178 C1179 1.370 . S
C1178 C1182 1.524 . S
C1179 C1171 1.503 . S
C1179 C1178 1.370 . S
C1179 C1180 1.403 . S
C1180 C1179 1.403 . S
C1180 C1181 1.404 . S
C1180 C1183 1.539 . S
C1181 C1177 1.408 . S
C1181 C1180 1.404 . S
C1181 H1193 0.930 . S
C1182 C1178 1.524 . S
C1182 H1194 0.956 . S
C1182 H1195 0.961 . S
C1182 H1196 0.961 . S
C1183 C1180 1.539 . S
C1183 H1197 0.958 . S
C1183 H1198 0.961 . S
C1183 H1199 0.960 . S
H1184 C1168 0.931 . S
H1185 C1173 0.929 . S
H1186 C1174 0.960 . S
H1187 C1174 0.962 . S
H1188 C1174 0.960 . S
H1189 C1175 0.961 . S
H1190 C1175 0.961 . S
H1191 C1175 0.961 . S
H1192 C1176 0.931 . S
H1193 C1181 0.930 . S
H1194 C1182 0.956 . S
H1195 C1182 0.961 . S
H1196 C1182 0.961 . S
H1197 C1183 0.958 . S
H1198 C1183 0.961 . S
H1199 C1183 0.960 . S
C1200 C1201 1.391 . S
C1200 C1202 1.394 . S
C1200 H1216 0.931 . S
C1201 C1200 1.391 . S
C1201 C1205 1.376 . S
C1202 C1200 1.394 . S
C1202 C1203 1.369 . S
C1202 C1206 1.531 . S
C1203 C1202 1.369 . S
C1203 C1204 1.410 . S
C1203 C1211 1.503 . S
C1204 C1203 1.410 . S
C1204 C1205 1.392 . S
C1204 C1207 1.511 . S
C1205 C1201 1.376 . S
C1205 C1204 1.392 . S
C1205 H1217 0.929 . S
C1206 C1202 1.531 . S
C1206 H1218 0.960 . S
C1206 H1219 0.962 . S
C1206 H1220 0.960 . S
C1207 C1204 1.511 . S
C1207 H1221 0.961 . S
C1207 H1222 0.961 . S
C1207 H1223 0.961 . S
C1208 C1209 1.370 . S
C1208 C1210 1.363 . S
C1208 H1224 0.931 . S
C1209 C1208 1.370 . S
C1209 C1213 1.408 . S
C1210 C1208 1.363 . S
C1210 C1211 1.370 . S
C1210 C1214 1.524 . S
C1211 C1203 1.503 . S
C1211 C1210 1.370 . S
C1211 C1212 1.403 . S
C1212 C1211 1.403 . S
C1212 C1213 1.404 . S
C1212 C1215 1.539 . S
C1213 C1209 1.408 . S
C1213 C1212 1.404 . S
C1213 H1225 0.930 . S
C1214 C1210 1.524 . S
C1214 H1226 0.956 . S
C1214 H1227 0.961 . S
C1214 H1228 0.961 . S
C1215 C1212 1.539 . S
C1215 H1229 0.958 . S
C1215 H1230 0.961 . S
C1215 H1231 0.960 . S
H1216 C1200 0.931 . S
H1217 C1205 0.929 . S
H1218 C1206 0.960 . S
H1219 C1206 0.962 . S
H1220 C1206 0.960 . S
H1221 C1207 0.961 . S
H1222 C1207 0.961 . S
H1223 C1207 0.961 . S
H1224 C1208 0.931 . S
H1225 C1213 0.930 . S
H1226 C1214 0.956 . S
H1227 C1214 0.961 . S
H1228 C1214 0.961 . S
H1229 C1215 0.958 . S
H1230 C1215 0.961 . S
H1231 C1215 0.960 . S
C1232 C1233 1.391 . S
C1232 C1234 1.394 . S
C1232 H1248 0.931 . S
C1233 C1232 1.391 . S
C1233 C1237 1.376 . S
C1234 C1232 1.394 . S
C1234 C1235 1.369 . S
C1234 C1238 1.531 . S
C1235 C1234 1.369 . S
C1235 C1236 1.410 . S
C1235 C1243 1.503 . S
C1236 C1235 1.410 . S
C1236 C1237 1.392 . S
C1236 C1239 1.511 . S
C1237 C1233 1.376 . S
C1237 C1236 1.392 . S
C1237 H1249 0.929 . S
C1238 C1234 1.531 . S
C1238 H1250 0.960 . S
C1238 H1251 0.962 . S
C1238 H1252 0.960 . S
C1239 C1236 1.511 . S
C1239 H1253 0.961 . S
C1239 H1254 0.961 . S
C1239 H1255 0.961 . S
C1240 C1241 1.370 . S
C1240 C1242 1.363 . S
C1240 H1256 0.931 . S
C1241 C1240 1.370 . S
C1241 C1245 1.408 . S
C1242 C1240 1.363 . S
C1242 C1243 1.370 . S
C1242 C1246 1.524 . S
C1243 C1235 1.503 . S
C1243 C1242 1.370 . S
C1243 C1244 1.403 . S
C1244 C1243 1.403 . S
C1244 C1245 1.404 . S
C1244 C1247 1.539 . S
C1245 C1241 1.408 . S
C1245 C1244 1.404 . S
C1245 H1257 0.930 . S
C1246 C1242 1.524 . S
C1246 H1258 0.956 . S
C1246 H1259 0.961 . S
C1246 H1260 0.961 . S
C1247 C1244 1.539 . S
C1247 H1261 0.958 . S
C1247 H1262 0.961 . S
C1247 H1263 0.960 . S
H1248 C1232 0.931 . S
H1249 C1237 0.929 . S
H1250 C1238 0.960 . S
H1251 C1238 0.962 . S
H1252 C1238 0.960 . S
H1253 C1239 0.961 . S
H1254 C1239 0.961 . S
H1255 C1239 0.961 . S
H1256 C1240 0.931 . S
H1257 C1245 0.930 . S
H1258 C1246 0.956 . S
H1259 C1246 0.961 . S
H1260 C1246 0.961 . S
H1261 C1247 0.958 . S
H1262 C1247 0.961 . S
H1263 C1247 0.960 . S
C1264 C1265 1.391 . S
C1264 C1266 1.394 . S
C1264 H1280 0.931 . S
C1265 C1264 1.391 . S
C1265 C1269 1.376 . S
C1266 C1264 1.394 . S
C1266 C1267 1.369 . S
C1266 C1270 1.531 . S
C1267 C1266 1.369 . S
C1267 C1268 1.410 . S
C1267 C1275 1.503 . S
C1268 C1267 1.410 . S
C1268 C1269 1.392 . S
C1268 C1271 1.511 . S
C1269 C1265 1.376 . S
C1269 C1268 1.392 . S
C1269 H1281 0.929 . S
C1270 C1266 1.531 . S
C1270 H1282 0.960 . S
C1270 H1283 0.962 . S
C1270 H1284 0.960 . S
C1271 C1268 1.511 . S
C1271 H1285 0.961 . S
C1271 H1286 0.961 . S
C1271 H1287 0.961 . S
C1272 C1273 1.370 . S
C1272 C1274 1.363 . S
C1272 H1288 0.931 . S
C1273 C1272 1.370 . S
C1273 C1277 1.408 . S
C1274 C1272 1.363 . S
C1274 C1275 1.370 . S
C1274 C1278 1.524 . S
C1275 C1267 1.503 . S
C1275 C1274 1.370 . S
C1275 C1276 1.403 . S
C1276 C1275 1.403 . S
C1276 C1277 1.404 . S
C1276 C1279 1.539 . S
C1277 C1273 1.408 . S
C1277 C1276 1.404 . S
C1277 H1289 0.930 . S
C1278 C1274 1.524 . S
C1278 H1290 0.956 . S
C1278 H1291 0.961 . S
C1278 H1292 0.961 . S
C1279 C1276 1.539 . S
C1279 H1293 0.958 . S
C1279 H1294 0.961 . S
C1279 H1295 0.960 . S
H1280 C1264 0.931 . S
H1281 C1269 0.929 . S
H1282 C1270 0.960 . S
H1283 C1270 0.962 . S
H1284 C1270 0.960 . S
H1285 C1271 0.961 . S
H1286 C1271 0.961 . S
H1287 C1271 0.961 . S
H1288 C1272 0.931 . S
H1289 C1277 0.930 . S
H1290 C1278 0.956 . S
H1291 C1278 0.961 . S
H1292 C1278 0.961 . S
H1293 C1279 0.958 . S
H1294 C1279 0.961 . S
H1295 C1279 0.960 . S
C1296 C1297 1.391 . S
C1296 C1298 1.394 . S
C1296 H1312 0.931 . S
C1297 C1296 1.391 . S
C1297 C1301 1.376 . S
C1298 C1296 1.394 . S
C1298 C1299 1.369 . S
C1298 C1302 1.531 . S
C1299 C1298 1.369 . S
C1299 C1300 1.410 . S
C1299 C1307 1.503 . S
C1300 C1299 1.410 . S
C1300 C1301 1.392 . S
C1300 C1303 1.511 . S
C1301 C1297 1.376 . S
C1301 C1300 1.392 . S
C1301 H1313 0.929 . S
C1302 C1298 1.531 . S
C1302 H1314 0.960 . S
C1302 H1315 0.962 . S
C1302 H1316 0.960 . S
C1303 C1300 1.511 . S
C1303 H1317 0.961 . S
C1303 H1318 0.961 . S
C1303 H1319 0.961 . S
C1304 C1305 1.370 . S
C1304 C1306 1.363 . S
C1304 H1320 0.931 . S
C1305 C1304 1.370 . S
C1305 C1309 1.408 . S
C1306 C1304 1.363 . S
C1306 C1307 1.370 . S
C1306 C1310 1.524 . S
C1307 C1299 1.503 . S
C1307 C1306 1.370 . S
C1307 C1308 1.403 . S
C1308 C1307 1.403 . S
C1308 C1309 1.404 . S
C1308 C1311 1.539 . S
C1309 C1305 1.408 . S
C1309 C1308 1.404 . S
C1309 H1321 0.930 . S
C1310 C1306 1.524 . S
C1310 H1322 0.956 . S
C1310 H1323 0.961 . S
C1310 H1324 0.961 . S
C1311 C1308 1.539 . S
C1311 H1325 0.958 . S
C1311 H1326 0.961 . S
C1311 H1327 0.960 . S
H1312 C1296 0.931 . S
H1313 C1301 0.929 . S
H1314 C1302 0.960 . S
H1315 C1302 0.962 . S
H1316 C1302 0.960 . S
H1317 C1303 0.961 . S
H1318 C1303 0.961 . S
H1319 C1303 0.961 . S
H1320 C1304 0.931 . S
H1321 C1309 0.930 . S
H1322 C1310 0.956 . S
H1323 C1310 0.961 . S
H1324 C1310 0.961 . S
H1325 C1311 0.958 . S
H1326 C1311 0.961 . S
H1327 C1311 0.960 . S
C1328 C1329 1.391 . S
C1328 C1330 1.394 . S
C1328 H1344 0.931 . S
C1329 C1328 1.391 . S
C1329 C1333 1.376 . S
C1330 C1328 1.394 . S
C1330 C1331 1.369 . S
C1330 C1334 1.531 . S
C1331 C1330 1.369 . S
C1331 C1332 1.410 . S
C1331 C1339 1.503 . S
C1332 C1331 1.410 . S
C1332 C1333 1.392 . S
C1332 C1335 1.511 . S
C1333 C1329 1.376 . S
C1333 C1332 1.392 . S
C1333 H1345 0.929 . S
C1334 C1330 1.531 . S
C1334 H1346 0.960 . S
C1334 H1347 0.962 . S
C1334 H1348 0.960 . S
C1335 C1332 1.511 . S
C1335 H1349 0.961 . S
C1335 H1350 0.961 . S
C1335 H1351 0.961 . S
C1336 C1337 1.370 . S
C1336 C1338 1.363 . S
C1336 H1352 0.931 . S
C1337 C1336 1.370 . S
C1337 C1341 1.408 . S
C1338 C1336 1.363 . S
C1338 C1339 1.370 . S
C1338 C1342 1.524 . S
C1339 C1331 1.503 . S
C1339 C1338 1.370 . S
C1339 C1340 1.403 . S
C1340 C1339 1.403 . S
C1340 C1341 1.404 . S
C1340 C1343 1.539 . S
C1341 C1337 1.408 . S
C1341 C1340 1.404 . S
C1341 H1353 0.930 . S
C1342 C1338 1.524 . S
C1342 H1354 0.956 . S
C1342 H1355 0.961 . S
C1342 H1356 0.961 . S
C1343 C1340 1.539 . S
C1343 H1357 0.958 . S
C1343 H1358 0.961 . S
C1343 H1359 0.960 . S
H1344 C1328 0.931 . S
H1345 C1333 0.929 . S
H1346 C1334 0.960 . S
H1347 C1334 0.962 . S
H1348 C1334 0.960 . S
H1349 C1335 0.961 . S
H1350 C1335 0.961 . S
H1351 C1335 0.961 . S
H1352 C1336 0.931 . S
H1353 C1341 0.930 . S
H1354 C1342 0.956 . S
H1355 C1342 0.961 . S
H1356 C1342 0.961 . S
H1357 C1343 0.958 . S
H1358 C1343 0.961 . S
H1359 C1343 0.960 . S
C1360 C1361 1.391 . S
C1360 C1362 1.394 . S
C1360 H1376 0.931 . S
C1361 C1360 1.391 . S
C1361 C1365 1.376 1_565 S
C1362 C1360 1.394 . S
C1362 C1363 1.369 . S
C1362 C1366 1.531 . S
C1363 C1362 1.369 . S
C1363 C1364 1.395 1_565 S
C1363 C1371 1.503 . S
C1364 C1363 1.395 1_545 S
C1364 C1365 1.399 . S
C1364 C1367 1.519 . S
C1365 C1361 1.376 1_545 S
C1365 C1364 1.399 . S
C1365 H1377 0.929 . S
C1366 C1362 1.531 . S
C1366 H1378 0.960 . S
C1366 H1379 0.962 . S
C1366 H1380 0.960 . S
C1367 C1364 1.519 . S
C1367 H1381 0.961 . S
C1367 H1382 0.961 . S
C1367 H1383 0.961 . S
C1368 C1369 1.370 . S
C1368 C1370 1.363 . S
C1368 H1384 0.931 . S
C1369 C1368 1.370 . S
C1369 C1373 1.408 . S
C1370 C1368 1.363 . S
C1370 C1371 1.370 . S
C1370 C1374 1.524 . S
C1371 C1363 1.503 . S
C1371 C1370 1.370 . S
C1371 C1372 1.403 . S
C1372 C1371 1.403 . S
C1372 C1373 1.404 . S
C1372 C1375 1.539 . S
C1373 C1369 1.408 . S
C1373 C1372 1.404 . S
C1373 H1385 0.930 . S
C1374 C1370 1.524 . S
C1374 H1386 0.956 . S
C1374 H1387 0.961 . S
C1374 H1388 0.961 . S
C1375 C1372 1.539 . S
C1375 H1389 0.958 . S
C1375 H1390 0.961 1_565 S
C1375 H1391 0.960 1_565 S
H1376 C1360 0.931 . S
H1377 C1365 0.929 . S
H1378 C1366 0.960 . S
H1379 C1366 0.962 . S
H1380 C1366 0.960 . S
H1381 C1367 0.961 . S
H1382 C1367 0.961 . S
H1383 C1367 0.961 . S
H1384 C1368 0.931 . S
H1385 C1373 0.930 . S
H1386 C1374 0.956 . S
H1387 C1374 0.961 . S
H1388 C1374 0.961 . S
H1389 C1375 0.958 . S
H1390 C1375 0.961 1_545 S
H1391 C1375 0.960 1_545 S
C1392 C1393 1.391 . S
C1392 C1394 1.394 . S
C1392 H1408 0.931 . S
C1393 C1392 1.391 . S
C1393 C1397 1.376 . S
C1394 C1392 1.394 . S
C1394 C1395 1.369 . S
C1394 C1398 1.531 . S
C1395 C1394 1.369 . S
C1395 C1396 1.410 . S
C1395 C1403 1.503 . S
C1396 C1395 1.410 . S
C1396 C1397 1.392 . S
C1396 C1399 1.511 . S
C1397 C1393 1.376 . S
C1397 C1396 1.392 . S
C1397 H1409 0.929 . S
C1398 C1394 1.531 . S
C1398 H1410 0.960 . S
C1398 H1411 0.962 . S
C1398 H1412 0.960 . S
C1399 C1396 1.511 . S
C1399 H1413 0.961 . S
C1399 H1414 0.961 . S
C1399 H1415 0.961 . S
C1400 C1401 1.370 . S
C1400 C1402 1.363 . S
C1400 H1416 0.931 . S
C1401 C1400 1.370 . S
C1401 C1405 1.408 . S
C1402 C1400 1.363 . S
C1402 C1403 1.370 . S
C1402 C1406 1.524 . S
C1403 C1395 1.503 . S
C1403 C1402 1.370 . S
C1403 C1404 1.403 . S
C1404 C1403 1.403 . S
C1404 C1405 1.404 . S
C1404 C1407 1.539 . S
C1405 C1401 1.408 . S
C1405 C1404 1.404 . S
C1405 H1417 0.930 . S
C1406 C1402 1.524 . S
C1406 H1418 0.956 . S
C1406 H1419 0.961 . S
C1406 H1420 0.961 . S
C1407 C1404 1.539 . S
C1407 H1421 0.958 . S
C1407 H1422 0.961 . S
C1407 H1423 0.960 . S
H1408 C1392 0.931 . S
H1409 C1397 0.929 . S
H1410 C1398 0.960 . S
H1411 C1398 0.962 . S
H1412 C1398 0.960 . S
H1413 C1399 0.961 . S
H1414 C1399 0.961 . S
H1415 C1399 0.961 . S
H1416 C1400 0.931 . S
H1417 C1405 0.930 . S
H1418 C1406 0.956 . S
H1419 C1406 0.961 . S
H1420 C1406 0.961 . S
H1421 C1407 0.958 . S
H1422 C1407 0.961 . S
H1423 C1407 0.960 . S
C1424 C1425 1.391 . S
C1424 C1426 1.394 . S
C1424 H1440 0.931 . S
C1425 C1424 1.391 . S
C1425 C1429 1.376 . S
C1426 C1424 1.394 . S
C1426 C1427 1.369 . S
C1426 C1430 1.531 . S
C1427 C1426 1.369 . S
C1427 C1428 1.410 . S
C1427 C1435 1.503 . S
C1428 C1427 1.410 . S
C1428 C1429 1.392 . S
C1428 C1431 1.511 . S
C1429 C1425 1.376 . S
C1429 C1428 1.392 . S
C1429 H1441 0.929 . S
C1430 C1426 1.531 . S
C1430 H1442 0.960 . S
C1430 H1443 0.962 . S
C1430 H1444 0.960 . S
C1431 C1428 1.511 . S
C1431 H1445 0.961 . S
C1431 H1446 0.961 . S
C1431 H1447 0.961 . S
C1432 C1433 1.370 . S
C1432 C1434 1.363 . S
C1432 H1448 0.931 . S
C1433 C1432 1.370 . S
C1433 C1437 1.408 . S
C1434 C1432 1.363 . S
C1434 C1435 1.370 . S
C1434 C1438 1.524 . S
C1435 C1427 1.503 . S
C1435 C1434 1.370 . S
C1435 C1436 1.403 . S
C1436 C1435 1.403 . S
C1436 C1437 1.404 . S
C1436 C1439 1.539 . S
C1437 C1433 1.408 . S
C1437 C1436 1.404 . S
C1437 H1449 0.930 . S
C1438 C1434 1.524 . S
C1438 H1450 0.956 . S
C1438 H1451 0.961 . S
C1438 H1452 0.961 . S
C1439 C1436 1.539 . S
C1439 H1453 0.958 . S
C1439 H1454 0.961 . S
C1439 H1455 0.960 . S
H1440 C1424 0.931 . S
H1441 C1429 0.929 . S
H1442 C1430 0.960 . S
H1443 C1430 0.962 . S
H1444 C1430 0.960 . S
H1445 C1431 0.961 . S
H1446 C1431 0.961 . S
H1447 C1431 0.961 . S
H1448 C1432 0.931 . S
H1449 C1437 0.930 . S
H1450 C1438 0.956 . S
H1451 C1438 0.961 . S
H1452 C1438 0.961 . S
H1453 C1439 0.958 . S
H1454 C1439 0.961 . S
H1455 C1439 0.960 . S
C1456 C1457 1.389 1_545 S
C1456 C1458 1.398 . S
C1456 H1472 0.942 . S
C1457 C1456 1.389 1_565 S
C1457 C1461 1.376 . S
C1458 C1456 1.398 . S
C1458 C1459 1.369 . S
C1458 C1462 1.531 . S
C1459 C1458 1.369 . S
C1459 C1460 1.410 1_545 S
C1459 C1467 1.503 . S
C1460 C1459 1.410 1_565 S
C1460 C1461 1.392 . S
C1460 C1463 1.522 . S
C1461 C1457 1.376 . S
C1461 C1460 1.392 . S
C1461 H1473 0.929 . S
C1462 C1458 1.531 . S
C1462 H1474 0.960 . S
C1462 H1475 0.962 . S
C1462 H1476 0.960 . S
C1463 C1460 1.522 . S
C1463 H1477 0.978 . S
C1463 H1478 0.959 1_565 S
C1463 H1479 0.936 1_565 S
C1464 C1465 1.370 . S
C1464 C1466 1.363 . S
C1464 H1480 0.931 . S
C1465 C1464 1.370 . S
C1465 C1469 1.408 . S
C1466 C1464 1.363 . S
C1466 C1467 1.370 . S
C1466 C1470 1.524 1_545 S
C1467 C1459 1.503 . S
C1467 C1466 1.370 . S
C1467 C1468 1.403 . S
C1468 C1467 1.403 . S
C1468 C1469 1.404 . S
C1468 C1471 1.539 . S
C1469 C1465 1.408 . S
C1469 C1468 1.404 . S
C1469 H1481 0.930 . S
C1470 C1466 1.524 1_565 S
C1470 H1482 0.956 . S
C1470 H1483 0.961 . S
C1470 H1484 0.961 . S
C1471 C1468 1.539 . S
C1471 H1485 0.958 . S
C1471 H1486 0.961 . S
C1471 H1487 0.960 . S
H1472 C1456 0.942 . S
H1473 C1461 0.929 . S
H1474 C1462 0.960 . S
H1475 C1462 0.962 . S
H1476 C1462 0.960 . S
H1477 C1463 0.978 . S
H1478 C1463 0.959 1_545 S
H1479 C1463 0.936 1_545 S
H1480 C1464 0.931 . S
H1481 C1469 0.930 . S
H1482 C1470 0.956 . S
H1483 C1470 0.961 . S
H1484 C1470 0.961 . S
H1485 C1471 0.958 . S
H1486 C1471 0.961 . S
H1487 C1471 0.960 . S
C1488 C1489 1.391 1_545 S
C1488 C1490 1.394 . S
C1488 H1504 0.931 . S
C1489 C1488 1.391 1_565 S
C1489 C1493 1.376 . S
C1490 C1488 1.394 . S
C1490 C1491 1.369 . S
C1490 C1494 1.531 . S
C1491 C1490 1.369 . S
C1491 C1492 1.410 . S
C1491 C1499 1.503 . S
C1492 C1491 1.410 . S
C1492 C1493 1.392 1_545 S
C1492 C1495 1.511 . S
C1493 C1489 1.376 . S
C1493 C1492 1.392 1_565 S
C1493 H1505 0.929 . S
C1494 C1490 1.531 . S
C1494 H1506 0.960 . S
C1494 H1507 0.962 . S
C1494 H1508 0.960 . S
C1495 C1492 1.511 . S
C1495 H1509 0.961 1_545 S
C1495 H1510 0.961 . S
C1495 H1511 0.961 . S
C1496 C1497 1.370 . S
C1496 C1498 1.363 . S
C1496 H1512 0.931 . S
C1497 C1496 1.370 . S
C1497 C1501 1.408 . S
C1498 C1496 1.363 . S
C1498 C1499 1.370 . S
C1498 C1502 1.524 . S
C1499 C1491 1.503 . S
C1499 C1498 1.370 . S
C1499 C1500 1.403 . S
C1500 C1499 1.403 . S
C1500 C1501 1.404 . S
C1500 C1503 1.539 . S
C1501 C1497 1.408 . S
C1501 C1500 1.404 . S
C1501 H1513 0.930 . S
C1502 C1498 1.524 . S
C1502 H1514 0.956 . S
C1502 H1515 0.961 . S
C1502 H1516 0.961 . S
C1503 C1500 1.539 . S
C1503 H1517 0.958 . S
C1503 H1518 0.961 . S
C1503 H1519 0.960 . S
H1504 C1488 0.931 . S
H1505 C1493 0.929 . S
H1506 C1494 0.960 . S
H1507 C1494 0.962 . S
H1508 C1494 0.960 . S
H1509 C1495 0.961 1_565 S
H1510 C1495 0.961 . S
H1511 C1495 0.961 . S
H1512 C1496 0.931 . S
H1513 C1501 0.930 . S
H1514 C1502 0.956 . S
H1515 C1502 0.961 . S
H1516 C1502 0.961 . S
H1517 C1503 0.958 . S
H1518 C1503 0.961 . S
H1519 C1503 0.960 . S
C1520 C1521 1.391 . S
C1520 C1522 1.394 . S
C1520 H1536 0.931 . S
C1521 C1520 1.391 . S
C1521 C1525 1.376 . S
C1522 C1520 1.394 . S
C1522 C1523 1.369 . S
C1522 C1526 1.531 . S
C1523 C1522 1.369 . S
C1523 C1524 1.410 . S
C1523 C1531 1.503 . S
C1524 C1523 1.410 . S
C1524 C1525 1.392 . S
C1524 C1527 1.511 . S
C1525 C1521 1.376 . S
C1525 C1524 1.392 . S
C1525 H1537 0.929 . S
C1526 C1522 1.531 . S
C1526 H1538 0.960 . S
C1526 H1539 0.962 . S
C1526 H1540 0.960 . S
C1527 C1524 1.511 . S
C1527 H1541 0.961 . S
C1527 H1542 0.961 . S
C1527 H1543 0.961 . S
C1528 C1529 1.370 . S
C1528 C1530 1.363 . S
C1528 H1544 0.931 . S
C1529 C1528 1.370 . S
C1529 C1533 1.408 . S
C1530 C1528 1.363 . S
C1530 C1531 1.370 . S
C1530 C1534 1.524 . S
C1531 C1523 1.503 . S
C1531 C1530 1.370 . S
C1531 C1532 1.403 . S
C1532 C1531 1.403 . S
C1532 C1533 1.404 . S
C1532 C1535 1.539 . S
C1533 C1529 1.408 . S
C1533 C1532 1.404 . S
C1533 H1545 0.930 . S
C1534 C1530 1.524 . S
C1534 H1546 0.956 . S
C1534 H1547 0.961 . S
C1534 H1548 0.961 . S
C1535 C1532 1.539 . S
C1535 H1549 0.958 . S
C1535 H1550 0.961 . S
C1535 H1551 0.960 . S
H1536 C1520 0.931 . S
H1537 C1525 0.929 . S
H1538 C1526 0.960 . S
H1539 C1526 0.962 . S
H1540 C1526 0.960 . S
H1541 C1527 0.961 . S
H1542 C1527 0.961 . S
H1543 C1527 0.961 . S
H1544 C1528 0.931 . S
H1545 C1533 0.930 . S
H1546 C1534 0.956 . S
H1547 C1534 0.961 . S
H1548 C1534 0.961 . S
H1549 C1535 0.958 . S
H1550 C1535 0.961 . S
H1551 C1535 0.960 . S
C1552 C1553 1.391 . S
C1552 C1554 1.394 . S
C1552 H1568 0.931 . S
C1553 C1552 1.391 . S
C1553 C1557 1.376 . S
C1554 C1552 1.394 . S
C1554 C1555 1.369 . S
C1554 C1558 1.531 . S
C1555 C1554 1.369 . S
C1555 C1556 1.410 . S
C1555 C1563 1.503 . S
C1556 C1555 1.410 . S
C1556 C1557 1.392 . S
C1556 C1559 1.511 . S
C1557 C1553 1.376 . S
C1557 C1556 1.392 . S
C1557 H1569 0.929 . S
C1558 C1554 1.531 . S
C1558 H1570 0.960 . S
C1558 H1571 0.962 . S
C1558 H1572 0.960 . S
C1559 C1556 1.511 . S
C1559 H1573 0.961 . S
C1559 H1574 0.961 . S
C1559 H1575 0.961 . S
C1560 C1561 1.370 . S
C1560 C1562 1.363 . S
C1560 H1576 0.931 . S
C1561 C1560 1.370 . S
C1561 C1565 1.408 . S
C1562 C1560 1.363 . S
C1562 C1563 1.370 . S
C1562 C1566 1.524 . S
C1563 C1555 1.503 . S
C1563 C1562 1.370 . S
C1563 C1564 1.403 . S
C1564 C1563 1.403 . S
C1564 C1565 1.404 . S
C1564 C1567 1.539 . S
C1565 C1561 1.408 . S
C1565 C1564 1.404 . S
C1565 H1577 0.930 . S
C1566 C1562 1.524 . S
C1566 H1578 0.956 . S
C1566 H1579 0.961 . S
C1566 H1580 0.961 . S
C1567 C1564 1.539 . S
C1567 H1581 0.958 . S
C1567 H1582 0.961 . S
C1567 H1583 0.960 . S
H1568 C1552 0.931 . S
H1569 C1557 0.929 . S
H1570 C1558 0.960 . S
H1571 C1558 0.962 . S
H1572 C1558 0.960 . S
H1573 C1559 0.961 . S
H1574 C1559 0.961 . S
H1575 C1559 0.961 . S
H1576 C1560 0.931 . S
H1577 C1565 0.930 . S
H1578 C1566 0.956 . S
H1579 C1566 0.961 . S
H1580 C1566 0.961 . S
H1581 C1567 0.958 . S
H1582 C1567 0.961 . S
H1583 C1567 0.960 . S
C721 C135 1.492 . S
C729 C15 1.495 . S
C753 C55 1.495 . S
C761 C175 1.499 . S
C785 C215 1.493 . S
C793 C95 1.496 . S
C817 C375 1.500 . S
C825 C255 1.506 . S
C849 C415 1.499 . S
C857 C295 1.505 . S
C881 C335 1.496 . S
C889 C455 1.501 . S
C913 C615 1.507 . S
C921 C495 1.513 . S
C945 C655 1.502 . S
C953 C535 1.508 . S
C977 C575 1.501 . S
C985 C695 1.507 . S
C1009 C341 1.481 . S
C1017 C2 1.480 . S
C1041 C242 1.498 . S
C1049 C61 1.493 . S
C1073 C282 1.476 . S
C1081 C82 1.500 . S
C1105 C42 1.510 . S
C1113 C562 1.499 . S
C1137 C482 1.491 . S
C1145 C101 1.482 . S
C1169 C21 1.479 . S
C1177 C541 1.489 . S
C1201 C682 1.502 . S
C1209 C122 1.499 . S
C1233 C621 1.498 . S
C1241 C162 1.488 . S
C1265 C221 1.465 . S
C1273 C661 1.474 . S
C1297 C442 1.479 . S
C1305 C181 1.484 . S
C1329 C362 1.492 . S
C1337 C202 1.490 . S
C1361 C141 1.438 1_565 S
C1369 C402 1.500 . S
C1393 C261 1.492 . S
C1401 C581 1.488 . S
C1425 C501 1.480 . S
C1433 C301 1.477 . S
C1457 C322 1.508 . S
C1465 C522 1.489 . S
C1489 C421 1.463 . S
C1497 C701 1.477 . S
C1521 C461 1.479 . S
C1529 C602 1.502 . S
C1553 C381 1.479 . S
C1561 C642 1.492 . S
