# Generated by pormake.
# Topology fnz, (5)-cn, num edge types: 1
# Building blocks:
#     Node 0, Type 0, BuildingBlock: XOMCOT_clean_sbu_0, # of connection points: 5
#     Node 1, Type 0, BuildingBlock: XOMCOT_clean_sbu_0, # of connection points: 5
#     Node 2, Type 0, BuildingBlock: XOMCOT_clean_sbu_0, # of connection points: 5
#     Node 3, Type 0, BuildingBlock: XOMCOT_clean_sbu_0, # of connection points: 5
#     Node 4, Type 0, BuildingBlock: XOMCOT_clean_sbu_0, # of connection points: 5
#     Node 5, Type 0, BuildingBlock: XOMCOT_clean_sbu_0, # of connection points: 5
#     Node 6, Type 0, BuildingBlock: XOMCOT_clean_sbu_0, # of connection points: 5
#     Node 7, Type 0, BuildingBlock: XOMCOT_clean_sbu_0, # of connection points: 5
#     Node 8, Type 0, BuildingBlock: XOMCOT_clean_sbu_0, # of connection points: 5
#     Node 9, Type 0, BuildingBlock: XOMCOT_clean_sbu_0, # of connection points: 5
#     Node 10, Type 0, BuildingBlock: XOMCOT_clean_sbu_0, # of connection points: 5
#     Node 11, Type 0, BuildingBlock: XOMCOT_clean_sbu_0, # of connection points: 5
#     Edge 12, Type (0, 0), BuildingBlock: TEMPAE_clean_linker_10, # of connection points: 2
#     Edge 13, Type (0, 0), BuildingBlock: TEMPAE_clean_linker_10, # of connection points: 2
#     Edge 14, Type (0, 0), BuildingBlock: TEMPAE_clean_linker_10, # of connection points: 2
#     Edge 15, Type (0, 0), BuildingBlock: TEMPAE_clean_linker_10, # of connection points: 2
#     Edge 16, Type (0, 0), BuildingBlock: TEMPAE_clean_linker_10, # of connection points: 2
#     Edge 17, Type (0, 0), BuildingBlock: TEMPAE_clean_linker_10, # of connection points: 2
#     Edge 18, Type (0, 0), BuildingBlock: TEMPAE_clean_linker_10, # of connection points: 2
#     Edge 19, Type (0, 0), BuildingBlock: TEMPAE_clean_linker_10, # of connection points: 2
#     Edge 20, Type (0, 0), BuildingBlock: TEMPAE_clean_linker_10, # of connection points: 2
#     Edge 21, Type (0, 0), BuildingBlock: TEMPAE_clean_linker_10, # of connection points: 2
#     Edge 22, Type (0, 0), BuildingBlock: TEMPAE_clean_linker_10, # of connection points: 2
#     Edge 23, Type (0, 0), BuildingBlock: TEMPAE_clean_linker_10, # of connection points: 2
#     Edge 24, Type (0, 0), BuildingBlock: TEMPAE_clean_linker_10, # of connection points: 2
#     Edge 25, Type (0, 0), BuildingBlock: TEMPAE_clean_linker_10, # of connection points: 2
#     Edge 26, Type (0, 0), BuildingBlock: TEMPAE_clean_linker_10, # of connection points: 2
#     Edge 27, Type (0, 0), BuildingBlock: TEMPAE_clean_linker_10, # of connection points: 2
#     Edge 28, Type (0, 0), BuildingBlock: TEMPAE_clean_linker_10, # of connection points: 2
#     Edge 29, Type (0, 0), BuildingBlock: TEMPAE_clean_linker_10, # of connection points: 2
#     Edge 30, Type (0, 0), BuildingBlock: TEMPAE_clean_linker_10, # of connection points: 2
#     Edge 31, Type (0, 0), BuildingBlock: TEMPAE_clean_linker_10, # of connection points: 2
#     Edge 32, Type (0, 0), BuildingBlock: TEMPAE_clean_linker_10, # of connection points: 2
#     Edge 33, Type (0, 0), BuildingBlock: TEMPAE_clean_linker_10, # of connection points: 2
#     Edge 34, Type (0, 0), BuildingBlock: TEMPAE_clean_linker_10, # of connection points: 2
#     Edge 35, Type (0, 0), BuildingBlock: TEMPAE_clean_linker_10, # of connection points: 2
#     Edge 36, Type (0, 0), BuildingBlock: TEMPAE_clean_linker_10, # of connection points: 2
#     Edge 37, Type (0, 0), BuildingBlock: TEMPAE_clean_linker_10, # of connection points: 2
#     Edge 38, Type (0, 0), BuildingBlock: TEMPAE_clean_linker_10, # of connection points: 2
#     Edge 39, Type (0, 0), BuildingBlock: TEMPAE_clean_linker_10, # of connection points: 2
#     Edge 40, Type (0, 0), BuildingBlock: TEMPAE_clean_linker_10, # of connection points: 2
#     Edge 41, Type (0, 0), BuildingBlock: TEMPAE_clean_linker_10, # of connection points: 2
# Relax obj value: 0.175
# Max RMSD: 0.246
# Mean RMSD: 0.246
data_MOF--net-fnz--node1-XOMCOT_clean_sbu_0--edge1-TEMPAE_clean_linker_10
_symmetry_space_group_name_H-M    P1
_symmetry_Int_Tables_number       1
_symmetry_cell_setting            triclinic
loop_
_symmetry_equiv_pos_as_xyz
'x, y, z'
_cell_length_a     45.007395
_cell_length_b     44.985917
_cell_length_c     31.182297
_cell_angle_alpha  89.969721
_cell_angle_beta   90.02042
_cell_angle_gamma 119.99952
loop_
_atom_site_label
_atom_site_type_symbol
_atom_site_fract_x
_atom_site_fract_y
_atom_site_fract_z
_atom_type_partial_charge
Co0 Co 0.41625 0.14138 0.04651 0.0
C1 C 0.38239 0.18354 0.03976 0.0
C2 C 0.34871 0.13407 0.06669 0.0
C3 C 0.33176 0.1525 0.06562 0.0
N4 N 0.38014 0.15315 0.04912 0.0
N5 N 0.35316 0.18361 0.04882 0.0
H6 H 0.40509 0.20575 0.02792 0.0
H7 H 0.339 0.10874 0.08026 0.0
C8 C 0.35445 0.07908 0.01013 0.0
O9 O 0.34703 0.09913 0.98741 0.0
N10 N 0.45219 0.1301 0.04488 0.0
C11 C 0.48402 0.14996 0.02935 0.0
C12 C 0.50131 0.13204 0.03189 0.0
C13 C 0.45053 0.1006 0.05718 0.0
N14 N 0.48029 0.10088 0.04942 0.0
C15 C 0.44032 0.18788 0.97474 0.0
C16 C 0.42188 0.13868 0.91166 0.0
C17 C 0.4338 0.1728 0.89952 0.0
C18 C 0.44432 0.19777 0.93172 0.0
C19 C 0.41852 0.13002 0.95511 0.0
N20 N 0.42493 0.15406 0.98599 0.0
H21 H 0.44968 0.20757 0.99898 0.0
H22 H 0.41073 0.1039 0.96365 0.0
H23 H 0.4937 0.17541 0.01618 0.0
H24 H 0.42782 0.07947 0.07117 0.0
O25 O 0.44767 0.18508 0.07303 0.0
O26 O 0.41391 0.13666 0.10776 0.0
O27 O 0.38152 0.09198 0.03323 0.0
C28 C 0.43653 0.16915 0.10951 0.0
H29 H 0.30625 0.14421 0.07773 0.0
H30 H 0.52707 0.14115 0.02027 0.0
H31 H 0.41524 0.11885 0.88779 0.0
H32 H 0.45477 0.22463 0.92388 0.0
Co33 Co 0.27809 0.42051 0.05151 0.0
C34 C 0.20332 0.3869 0.04154 0.0
C35 C 0.21733 0.3579 0.08328 0.0
C36 C 0.18198 0.34225 0.08206 0.0
N37 N 0.23052 0.38585 0.05785 0.0
N38 N 0.17345 0.36052 0.05558 0.0
H39 H 0.20526 0.40728 0.02119 0.0
H40 H 0.23235 0.35007 0.10228 0.0
C41 C 0.31087 0.38171 0.01442 0.0
O42 O 0.32763 0.40607 0.98602 0.0
N43 N 0.32595 0.45578 0.04608 0.0
C44 C 0.33886 0.48833 0.03211 0.0
C45 C 0.37396 0.50528 0.03596 0.0
C46 C 0.35343 0.45395 0.05995 0.0
N47 N 0.38313 0.4836 0.05326 0.0
C48 C 0.26715 0.45275 0.97818 0.0
C49 C 0.25202 0.40035 0.92066 0.0
C50 C 0.25181 0.42971 0.90655 0.0
C51 C 0.2588 0.45587 0.93588 0.0
C52 C 0.25969 0.39793 0.96343 0.0
N53 N 0.26911 0.42475 0.99116 0.0
H54 H 0.27059 0.47228 0.00087 0.0
H55 H 0.25667 0.37385 0.97431 0.0
H56 H 0.3242 0.4998 0.0212 0.0
H57 H 0.35172 0.43124 0.07425 0.0
O58 O 0.26774 0.45368 0.07723 0.0
O59 O 0.28388 0.4213 0.1124 0.0
O60 O 0.28974 0.38341 0.04021 0.0
C61 C 0.27422 0.44406 0.11384 0.0
H62 H 0.16396 0.31945 0.09946 0.0
H63 H 0.39132 0.5318 0.02745 0.0
H64 H 0.24511 0.37895 0.89916 0.0
H65 H 0.2575 0.47835 0.92629 0.0
Co66 Co 0.86398 0.27646 0.04045 0.0
C67 C 0.82229 0.20153 0.03552 0.0
C68 C 0.87496 0.21707 0.0484 0.0
C69 C 0.85646 0.18174 0.04516 0.0
N70 N 0.85342 0.2293 0.0421 0.0
N71 N 0.82338 0.17213 0.03718 0.0
H72 H 0.7994 0.20287 0.02881 0.0
H73 H 0.90214 0.2326 0.05477 0.0
C74 C 0.93529 0.31652 0.00279 0.0
O75 O 0.92716 0.33678 0.98182 0.0
N76 N 0.87408 0.3238 0.03932 0.0
C77 C 0.85673 0.33687 0.0188 0.0
C78 C 0.87451 0.37196 0.02295 0.0
C79 C 0.90135 0.35114 0.05742 0.0
N80 N 0.90252 0.38082 0.04701 0.0
C81 C 0.81588 0.26228 0.9721 0.0
C82 C 0.85484 0.25712 0.90733 0.0
C83 C 0.82198 0.25136 0.89741 0.0
C84 C 0.80235 0.25384 0.93066 0.0
C85 C 0.86709 0.26486 0.94929 0.0
N86 N 0.84838 0.26893 0.98089 0.0
H87 H 0.79984 0.26296 0.99735 0.0
H88 H 0.8911 0.26609 0.95607 0.0
H89 H 0.83333 0.32253 0.00093 0.0
H90 H 0.92131 0.3496 0.07494 0.0
O91 O 0.8211 0.26334 0.06976 0.0
O92 O 0.871 0.27976 0.10142 0.0
O93 O 0.9129 0.29114 0.02461 0.0
C94 C 0.83841 0.26885 0.10521 0.0
H95 H 0.86648 0.16445 0.04889 0.0
H96 H 0.8681 0.38979 0.00805 0.0
H97 H 0.87101 0.25523 0.88307 0.0
H98 H 0.77634 0.24836 0.92515 0.0
Co99 Co 0.58538 0.86035 0.04745 0.0
C100 C 0.61825 0.81823 0.04164 0.0
C101 C 0.64694 0.86178 0.08263 0.0
C102 C 0.66215 0.84165 0.08332 0.0
N103 N 0.61945 0.84694 0.05647 0.0
N104 N 0.64409 0.81452 0.05727 0.0
H105 H 0.59814 0.79961 0.0212 0.0
H106 H 0.65474 0.885 0.10083 0.0
C107 C 0.62449 0.93138 0.00919 0.0
O108 O 0.59972 0.92351 0.98134 0.0
N109 N 0.55076 0.87354 0.03918 0.0
C110 C 0.52077 0.85663 0.01768 0.0
C111 C 0.50486 0.8759 0.0184 0.0
C112 C 0.55184 0.90222 0.0543 0.0
N113 N 0.52446 0.90451 0.04129 0.0
C114 C 0.55459 0.81502 0.97553 0.0
C115 C 0.60632 0.85242 0.9173 0.0
C116 C 0.57744 0.82214 0.90384 0.0
C117 C 0.55168 0.80286 0.93362 0.0
C118 C 0.60856 0.86318 0.95973 0.0
N119 N 0.58194 0.84576 0.9877 0.0
H120 H 0.53502 0.79928 0.99846 0.0
H121 H 0.63234 0.88492 0.97005 0.0
H122 H 0.51059 0.83204 0.00237 0.0
H123 H 0.57294 0.92173 0.07281 0.0
O124 O 0.5514 0.81758 0.07401 0.0
O125 O 0.58378 0.86663 0.10804 0.0
O126 O 0.62306 0.90872 0.03516 0.0
C127 C 0.56081 0.8343 0.1102 0.0
H128 H 0.68453 0.84639 0.10166 0.0
H129 H 0.4808 0.86953 0.00307 0.0
H130 H 0.62747 0.86707 0.89552 0.0
H131 H 0.52951 0.77868 0.92456 0.0
Co132 Co 0.72417 0.58496 0.04877 0.0
C133 C 0.79854 0.61744 0.03766 0.0
C134 C 0.78427 0.655 0.054 0.0
C135 C 0.81936 0.67146 0.04832 0.0
N136 N 0.77139 0.6212 0.04709 0.0
N137 N 0.82818 0.64772 0.03817 0.0
H138 H 0.79653 0.59304 0.02999 0.0
H139 H 0.76933 0.66687 0.06265 0.0
C140 C 0.68467 0.61713 0.01171 0.0
O141 O 0.6646 0.5891 0.99 0.0
N142 N 0.67679 0.54798 0.05117 0.0
C143 C 0.66446 0.51471 0.041 0.0
C144 C 0.62965 0.49698 0.04772 0.0
C145 C 0.64942 0.54953 0.0661 0.0
N146 N 0.62007 0.51899 0.06292 0.0
C147 C 0.73204 0.54813 0.97844 0.0
C148 C 0.73937 0.59429 0.9151 0.0
C149 C 0.7416 0.56539 0.90404 0.0
C150 C 0.73834 0.54232 0.93627 0.0
C151 C 0.73387 0.59953 0.95773 0.0
N152 N 0.72854 0.57577 0.98864 0.0
H153 H 0.73153 0.53111 0.00312 0.0
H154 H 0.7357 0.62366 0.96574 0.0
H155 H 0.67939 0.50354 0.03007 0.0
H156 H 0.65082 0.57288 0.07755 0.0
O157 O 0.73821 0.55527 0.07629 0.0
O158 O 0.72377 0.5896 0.10994 0.0
O159 O 0.70936 0.6194 0.03437 0.0
C160 C 0.73423 0.56745 0.11236 0.0
H161 H 0.83707 0.69867 0.05212 0.0
H162 H 0.61273 0.46991 0.04171 0.0
H163 H 0.74349 0.61355 0.8913 0.0
H164 H 0.74117 0.52031 0.92903 0.0
Co165 Co 0.1397 0.72635 0.05032 0.0
C166 C 0.17989 0.80186 0.04524 0.0
C167 C 0.13177 0.78455 0.07739 0.0
C168 C 0.14927 0.81992 0.07635 0.0
N169 N 0.15101 0.7734 0.05778 0.0
N170 N 0.17946 0.83071 0.05602 0.0
H171 H 0.20092 0.80141 0.02903 0.0
H172 H 0.10682 0.76812 0.09145 0.0
C173 C 0.06969 0.69312 0.00934 0.0
O174 O 0.07917 0.67776 0.98116 0.0
N175 N 0.12798 0.67869 0.04404 0.0
C176 C 0.14746 0.66579 0.02953 0.0
C177 C 0.12923 0.63065 0.03302 0.0
C178 C 0.0987 0.65108 0.05782 0.0
N179 N 0.09845 0.62128 0.05076 0.0
C180 C 0.18372 0.73796 0.97761 0.0
C181 C 0.14974 0.75836 0.9216 0.0
C182 C 0.17828 0.75677 0.90693 0.0
C183 C 0.19555 0.7467 0.93551 0.0
C184 C 0.13837 0.7487 0.96367 0.0
N185 N 0.15425 0.73696 0.9906 0.0
H186 H 0.19914 0.73341 0.00015 0.0
H187 H 0.11748 0.75192 0.97486 0.0
H188 H 0.17344 0.6803 0.01824 0.0
H189 H 0.07821 0.65299 0.07327 0.0
O190 O 0.1829 0.73722 0.07718 0.0
O191 O 0.13353 0.71947 0.11103 0.0
O192 O 0.09105 0.71369 0.03689 0.0
C193 C 0.16609 0.72983 0.11331 0.0
H194 H 0.14024 0.83638 0.08904 0.0
H195 H 0.13811 0.61345 0.02276 0.0
H196 H 0.13642 0.76716 0.90078 0.0
H197 H 0.21871 0.74678 0.92582 0.0
Co198 Co 0.86092 0.58299 0.4571 0.0
C199 C 0.82155 0.61882 0.46438 0.0
C200 C 0.86671 0.64741 0.42588 0.0
C201 C 0.84776 0.66385 0.42481 0.0
N202 N 0.85012 0.61918 0.45061 0.0
N203 N 0.81961 0.64584 0.44926 0.0
H204 H 0.80162 0.59834 0.48315 0.0
H205 H 0.89014 0.65469 0.40844 0.0
C206 C 0.93191 0.6166 0.49541 0.0
O207 O 0.92384 0.58901 0.51816 0.0
N208 N 0.87151 0.54627 0.46244 0.0
C209 C 0.85455 0.51657 0.48457 0.0
C210 C 0.87235 0.49921 0.48149 0.0
C211 C 0.89859 0.54569 0.44462 0.0
N212 N 0.90006 0.51764 0.4566 0.0
C213 C 0.81361 0.55138 0.52683 0.0
C214 C 0.85205 0.59929 0.58857 0.0
C215 C 0.81995 0.57163 0.60009 0.0
C216 C 0.8005 0.54767 0.5683 0.0
C217 C 0.86387 0.60235 0.54657 0.0
N218 N 0.84553 0.5777 0.51662 0.0
H219 H 0.7977 0.5332 0.50264 0.0
H220 H 0.88727 0.62535 0.53833 0.0
H221 H 0.83119 0.50782 0.50241 0.0
H222 H 0.91803 0.56647 0.42561 0.0
O223 O 0.81802 0.55165 0.42893 0.0
O224 O 0.86787 0.58354 0.39631 0.0
O225 O 0.90963 0.61849 0.47195 0.0
C226 C 0.83526 0.56174 0.39319 0.0
H227 H 0.85378 0.68681 0.4069 0.0
H228 H 0.86589 0.47523 0.49716 0.0
H229 H 0.868 0.61877 0.61163 0.0
H230 H 0.77497 0.52663 0.57499 0.0
Co231 Co 0.27333 0.86314 0.4559 0.0
C232 C 0.19885 0.8204 0.46789 0.0
C233 C 0.2115 0.86534 0.4305 0.0
C234 C 0.17626 0.84488 0.43184 0.0
N235 N 0.22547 0.84986 0.45308 0.0
N236 N 0.16858 0.81688 0.45557 0.0
H237 H 0.2016 0.80123 0.48567 0.0
H238 H 0.22594 0.88911 0.41294 0.0
C239 C 0.30512 0.93239 0.49787 0.0
O240 O 0.32231 0.92341 0.52379 0.0
N241 N 0.32167 0.8761 0.45667 0.0
C242 C 0.33447 0.85454 0.45597 0.0
C243 C 0.36927 0.87307 0.44886 0.0
C244 C 0.34897 0.90731 0.44788 0.0
N245 N 0.37822 0.90619 0.44413 0.0
C246 C 0.27418 0.82615 0.53176 0.0
C247 C 0.24363 0.85233 0.58497 0.0
C248 C 0.25144 0.82812 0.60129 0.0
C249 C 0.26715 0.81513 0.57444 0.0
C250 C 0.25176 0.86319 0.54257 0.0
N251 N 0.2673 0.85054 0.51649 0.0
H252 H 0.28373 0.81391 0.5108 0.0
H253 H 0.24422 0.88088 0.5302 0.0
H254 H 0.31956 0.82691 0.45759 0.0
H255 H 0.34749 0.93019 0.44186 0.0
O256 O 0.26192 0.81953 0.42977 0.0
O257 O 0.27612 0.8678 0.39475 0.0
O258 O 0.28486 0.91153 0.46967 0.0
C259 C 0.26664 0.83538 0.39318 0.0
H260 H 0.15772 0.84983 0.41609 0.0
H261 H 0.38658 0.86297 0.44663 0.0
H262 H 0.23096 0.86248 0.60471 0.0
H263 H 0.27265 0.79563 0.58584 0.0
Co264 Co 0.41867 0.27745 0.45193 0.0
C265 C 0.38365 0.20214 0.45877 0.0
C266 C 0.3569 0.2182 0.41606 0.0
C267 C 0.34029 0.18278 0.41623 0.0
N268 N 0.38404 0.23017 0.44274 0.0
N269 N 0.35711 0.17298 0.44337 0.0
H270 H 0.40289 0.20291 0.48025 0.0
H271 H 0.35011 0.23412 0.39721 0.0
C272 C 0.38018 0.3097 0.49069 0.0
O273 O 0.40486 0.32613 0.5188 0.0
N274 N 0.45359 0.32521 0.46015 0.0
C275 C 0.48353 0.33852 0.48184 0.0
C276 C 0.49968 0.37371 0.47999 0.0
C277 C 0.45274 0.35267 0.444 0.0
N278 N 0.48028 0.38248 0.45629 0.0
C279 C 0.44961 0.26313 0.52368 0.0
C280 C 0.39659 0.2455 0.58095 0.0
C281 C 0.42579 0.24462 0.59473 0.0
C282 C 0.45237 0.25324 0.56525 0.0
C283 C 0.39494 0.25563 0.53909 0.0
N284 N 0.422 0.26603 0.51154 0.0
H285 H 0.46953 0.26782 0.50091 0.0
H286 H 0.37119 0.25359 0.5286 0.0
H287 H 0.49362 0.32436 0.49795 0.0
H288 H 0.43176 0.35087 0.42502 0.0
O289 O 0.45224 0.26816 0.42538 0.0
O290 O 0.42038 0.28551 0.39136 0.0
O291 O 0.38146 0.28861 0.46442 0.0
C292 C 0.44304 0.27575 0.38921 0.0
H293 H 0.31768 0.16556 0.39796 0.0
H294 H 0.52384 0.39156 0.49499 0.0
H295 H 0.37468 0.23739 0.60192 0.0
H296 H 0.47515 0.25229 0.57408 0.0
Co297 Co 0.14025 0.41499 0.45551 0.0
C298 C 0.18339 0.38329 0.45919 0.0
C299 C 0.13165 0.34607 0.44203 0.0
C300 C 0.15058 0.3297 0.44535 0.0
N301 N 0.15232 0.37958 0.45099 0.0
N302 N 0.18305 0.35323 0.45606 0.0
H303 H 0.20557 0.40735 0.46849 0.0
H304 H 0.1047 0.33423 0.43416 0.0
C305 C 0.06883 0.37955 0.49259 0.0
O306 O 0.07736 0.40544 0.51884 0.0
N307 N 0.12832 0.45079 0.45948 0.0
C308 C 0.14543 0.48158 0.47901 0.0
C309 C 0.1272 0.49836 0.47408 0.0
C310 C 0.10054 0.4499 0.44167 0.0
N311 N 0.09879 0.4784 0.45074 0.0
C312 C 0.18469 0.44696 0.52785 0.0
C313 C 0.14633 0.3961 0.58663 0.0
C314 C 0.17718 0.4245 0.60023 0.0
C315 C 0.19664 0.44999 0.56992 0.0
C316 C 0.13574 0.39381 0.54414 0.0
N317 N 0.1538 0.41991 0.51574 0.0
H318 H 0.20089 0.46603 0.50466 0.0
H319 H 0.11359 0.37025 0.53413 0.0
H320 H 0.16938 0.4916 0.49591 0.0
H321 H 0.08178 0.42843 0.423 0.0
O322 O 0.18376 0.4474 0.42925 0.0
O323 O 0.13519 0.41459 0.39442 0.0
O324 O 0.09123 0.37912 0.46787 0.0
C325 C 0.16762 0.43729 0.39276 0.0
H326 H 0.14125 0.30266 0.44011 0.0
H327 H 0.13399 0.52297 0.48801 0.0
H328 H 0.13048 0.3754 0.60838 0.0
H329 H 0.22141 0.47166 0.57814 0.0
Co330 Co 0.72456 0.13742 0.45228 0.0
C331 C 0.79872 0.18071 0.46471 0.0
C332 C 0.78546 0.1287 0.45116 0.0
C333 C 0.82046 0.14798 0.45729 0.0
N334 N 0.77199 0.14932 0.45606 0.0
N335 N 0.82863 0.18063 0.46563 0.0
H336 H 0.79623 0.20307 0.47066 0.0
H337 H 0.771 0.10167 0.44342 0.0
C338 C 0.68693 0.06694 0.49331 0.0
O339 O 0.66696 0.07511 0.51486 0.0
N340 N 0.67689 0.12599 0.44748 0.0
C341 C 0.66447 0.14779 0.44959 0.0
C342 C 0.62977 0.12996 0.44148 0.0
C343 C 0.64966 0.09553 0.43611 0.0
N344 N 0.62058 0.09711 0.43347 0.0
C345 C 0.72746 0.18142 0.52122 0.0
C346 C 0.73994 0.14686 0.58565 0.0
C347 C 0.73895 0.17658 0.59586 0.0
C348 C 0.73303 0.19425 0.5631 0.0
C349 C 0.73512 0.13546 0.54333 0.0
N350 N 0.72739 0.15171 0.51187 0.0
H351 H 0.725 0.19646 0.49608 0.0
H352 H 0.73933 0.11448 0.53584 0.0
H353 H 0.6794 0.175 0.4554 0.0
H354 H 0.6509 0.07259 0.42943 0.0
O355 O 0.73858 0.18065 0.42338 0.0
O356 O 0.72557 0.13161 0.39139 0.0
O357 O 0.71046 0.08868 0.46869 0.0
C358 C 0.73566 0.16409 0.38791 0.0
H359 H 0.83857 0.13887 0.4549 0.0
H360 H 0.61248 0.14014 0.44229 0.0
H361 H 0.74611 0.1335 0.60986 0.0
H362 H 0.73337 0.21805 0.56967 0.0
Co363 Co 0.58746 0.72581 0.45109 0.0
C364 C 0.62258 0.80052 0.46287 0.0
C365 C 0.65139 0.78605 0.42156 0.0
C366 C 0.66757 0.82144 0.42305 0.0
N367 N 0.6232 0.77312 0.44649 0.0
N368 N 0.64941 0.83024 0.44927 0.0
H369 H 0.60203 0.7989 0.48255 0.0
H370 H 0.65888 0.77084 0.40239 0.0
C371 C 0.62195 0.68773 0.48431 0.0
O372 O 0.59484 0.66788 0.50762 0.0
N373 N 0.5511 0.67824 0.45461 0.0
C374 C 0.52095 0.66484 0.47562 0.0
C375 C 0.50344 0.62989 0.47008 0.0
C376 C 0.55076 0.65127 0.43512 0.0
N377 N 0.52228 0.62121 0.44486 0.0
C378 C 0.55667 0.73842 0.52465 0.0
C379 C 0.60672 0.74765 0.58303 0.0
C380 C 0.5792 0.75142 0.59713 0.0
C381 C 0.55407 0.74692 0.56707 0.0
C382 C 0.60865 0.73982 0.54023 0.0
N383 N 0.58305 0.73371 0.51184 0.0
H384 H 0.53786 0.73662 0.50173 0.0
H385 H 0.63167 0.74019 0.53009 0.0
H386 H 0.5119 0.67888 0.49416 0.0
H387 H 0.57157 0.65369 0.41528 0.0
O388 O 0.55536 0.73788 0.42589 0.0
O389 O 0.5872 0.72158 0.38985 0.0
O390 O 0.62341 0.71243 0.46237 0.0
C391 C 0.56498 0.73196 0.38896 0.0
H392 H 0.69047 0.8393 0.40571 0.0
H393 H 0.47929 0.6122 0.48513 0.0
H394 H 0.62704 0.75116 0.60465 0.0
H395 H 0.53306 0.75095 0.57575 0.0
C396 C 0.46082 0.03947 0.06355 0.0
C397 C 0.48743 0.0731 0.05527 0.0
C398 C 0.46716 0.01196 0.06597 0.0
C399 C 0.50079 0.01797 0.0591 0.0
C400 C 0.52797 0.05183 0.05225 0.0
C401 C 0.52106 0.07895 0.05098 0.0
C402 C 0.43756 0.97624 0.07418 0.0
C403 C 0.56417 0.05925 0.04422 0.0
C404 C 0.52387 0.9494 0.08593 0.0
C405 C 0.51896 0.93311 0.0462 0.0
C406 C 0.51752 0.97679 0.09098 0.0
C407 C 0.50702 0.9886 0.05508 0.0
C408 C 0.50271 0.97253 0.01472 0.0
C409 C 0.50834 0.94472 0.01094 0.0
C410 C 0.52156 0.99276 0.1347 0.0
C411 C 0.49243 0.98488 0.97539 0.0
H412 H 0.43471 0.03416 0.06696 0.0
H413 H 0.54213 0.10467 0.04573 0.0
H414 H 0.43161 0.96073 0.04447 0.0
H415 H 0.44447 0.96324 0.09924 0.0
H416 H 0.41402 0.97645 0.08444 0.0
H417 H 0.58278 0.08719 0.0419 0.0
H418 H 0.57254 0.04827 0.07024 0.0
H419 H 0.56501 0.04686 0.01383 0.0
H420 H 0.53189 0.94013 0.11314 0.0
H421 H 0.50504 0.93231 0.98014 0.0
H422 H 0.49699 0.99081 0.1447 0.0
H423 H 0.54105 0.02045 0.13348 0.0
H424 H 0.52939 0.98023 0.15943 0.0
H425 H 0.46697 0.98259 0.98047 0.0
H426 H 0.49111 0.97013 0.94618 0.0
H427 H 0.51111 0.01241 0.96964 0.0
C428 C 0.57851 0.53335 0.09509 0.0
C429 C 0.58545 0.51241 0.06844 0.0
C430 C 0.54539 0.52902 0.09747 0.0
C431 C 0.51865 0.5032 0.07255 0.0
C432 C 0.52522 0.48128 0.04672 0.0
C433 C 0.55847 0.48617 0.04498 0.0
C434 C 0.5393 0.55279 0.12553 0.0
C435 C 0.49745 0.45356 0.0194 0.0
C436 C 0.4244 0.47251 0.09247 0.0
C437 C 0.41756 0.4902 0.06047 0.0
C438 C 0.45755 0.47747 0.09801 0.0
C439 C 0.48438 0.50048 0.07071 0.0
C440 C 0.47784 0.51911 0.03916 0.0
C441 C 0.44455 0.51375 0.03446 0.0
C442 C 0.46369 0.45743 0.13229 0.0
C443 C 0.5057 0.54372 0.00918 0.0
H444 H 0.59903 0.55339 0.11375 0.0
H445 H 0.56351 0.47019 0.02374 0.0
H446 H 0.534 0.56982 0.10512 0.0
H447 H 0.51648 0.53784 0.14618 0.0
H448 H 0.56173 0.56908 0.14625 0.0
H449 H 0.50625 0.43739 0.00308 0.0
H450 H 0.47474 0.43673 0.03933 0.0
H451 H 0.489 0.46546 0.99461 0.0
H452 H 0.4038 0.45469 0.1131 0.0
H453 H 0.43943 0.52718 0.00931 0.0
H454 H 0.48582 0.475 0.15261 0.0
H455 H 0.47018 0.4391 0.11711 0.0
H456 H 0.44089 0.44277 0.15315 0.0
H457 H 0.52831 0.56271 0.02773 0.0
H458 H 0.49692 0.55778 0.9882 0.0
H459 H 0.51433 0.52937 0.98857 0.0
C460 C 0.07684 0.55896 0.05868 0.0
C461 C 0.07064 0.58665 0.05805 0.0
C462 C 0.04978 0.52491 0.06095 0.0
C463 C 0.01561 0.51826 0.0636 0.0
C464 C 0.0092 0.546 0.06547 0.0
C465 C 0.03671 0.5798 0.06231 0.0
C466 C 0.05768 0.49603 0.05828 0.0
C467 C 0.97312 0.53996 0.06889 0.0
C468 C 0.94502 0.43563 0.01547 0.0
C469 C 0.93118 0.41488 0.05175 0.0
C470 C 0.9728 0.4691 0.01894 0.0
C471 C 0.98654 0.48243 0.05993 0.0
C472 C 0.97257 0.46152 0.09681 0.0
C473 C 0.94526 0.42766 0.09216 0.0
C474 C 0.98751 0.49013 0.97868 0.0
C475 C 0.9861 0.47509 0.14107 0.0
H476 H 0.10284 0.56373 0.05651 0.0
H477 H 0.03134 0.6007 0.06161 0.0
H478 H 0.04505 0.47755 0.08488 0.0
H479 H 0.04733 0.48174 0.02784 0.0
H480 H 0.08567 0.50545 0.05946 0.0
H481 H 0.97272 0.56408 0.07505 0.0
H482 H 0.95909 0.52857 0.03859 0.0
H483 H 0.95901 0.52147 0.09503 0.0
H484 H 0.93425 0.42532 0.98422 0.0
H485 H 0.9343 0.41139 0.12006 0.0
H486 H 0.01527 0.49881 0.97624 0.0
H487 H 0.98502 0.51343 0.97997 0.0
H488 H 0.97451 0.47551 0.94922 0.0
H489 H 0.0138 0.48349 0.14296 0.0
H490 H 0.97231 0.45562 0.16644 0.0
H491 H 0.98351 0.49793 0.1477 0.0
C492 C 0.07561 0.51792 0.44604 0.0
C493 C 0.07083 0.48469 0.44205 0.0
C494 C 0.04784 0.52379 0.44366 0.0
C495 C 0.0145 0.4959 0.43601 0.0
C496 C 0.00974 0.46272 0.42893 0.0
C497 C 0.03787 0.45744 0.43243 0.0
C498 C 0.05394 0.55952 0.45192 0.0
C499 C 0.97464 0.43241 0.4199 0.0
C500 C 0.94014 0.50072 0.48534 0.0
C501 C 0.9282 0.51155 0.45062 0.0
C502 C 0.96822 0.49561 0.48089 0.0
C503 C 0.9843 0.50074 0.4404 0.0
C504 C 0.972 0.51119 0.40495 0.0
C505 C 0.94431 0.51697 0.41067 0.0
C506 C 0.98104 0.48532 0.51977 0.0
C507 C 0.98799 0.5161 0.36111 0.0
H508 H 0.10095 0.53938 0.45227 0.0
H509 H 0.03355 0.43163 0.42938 0.0
H510 H 0.04226 0.56735 0.42618 0.0
H511 H 0.04148 0.55977 0.48252 0.0
H512 H 0.08168 0.57889 0.45404 0.0
H513 H 0.97595 0.40954 0.40917 0.0
H514 H 0.95878 0.42547 0.4494 0.0
H515 H 0.96133 0.43902 0.39492 0.0
H516 H 0.92797 0.49711 0.51637 0.0
H517 H 0.93485 0.52524 0.3839 0.0
H518 H 0.0083 0.50468 0.52592 0.0
H519 H 0.97982 0.46042 0.51389 0.0
H520 H 0.96591 0.48286 0.54905 0.0
H521 H 0.01529 0.53666 0.36223 0.0
H522 H 0.97456 0.523 0.33656 0.0
H523 H 0.98746 0.49221 0.35092 0.0
C524 C 0.57578 0.0391 0.45366 0.0
C525 C 0.58621 0.06885 0.42935 0.0
C526 C 0.54148 0.01259 0.45366 0.0
C527 C 0.51724 0.0156 0.42777 0.0
C528 C 0.52798 0.04511 0.40184 0.0
C529 C 0.56231 0.0717 0.4035 0.0
C530 C 0.53099 0.98196 0.48256 0.0
C531 C 0.50314 0.04878 0.37283 0.0
C532 C 0.43431 0.93199 0.40811 0.0
C533 C 0.41218 0.93459 0.43744 0.0
C534 C 0.46824 0.95886 0.4032 0.0
C535 C 0.48048 0.98844 0.42933 0.0
C536 C 0.45798 0.99127 0.45867 0.0
C537 C 0.42391 0.96445 0.46189 0.0
C538 C 0.49109 0.95538 0.37058 0.0
C539 C 0.47021 0.02199 0.48786 0.0
H540 H 0.59426 0.03737 0.47419 0.0
H541 H 0.57061 0.09478 0.38467 0.0
H542 H 0.51093 0.97953 0.50531 0.0
H543 H 0.51977 0.95807 0.46327 0.0
H544 H 0.55292 0.98392 0.50125 0.0
H545 H 0.51617 0.07191 0.3521 0.0
H546 H 0.48943 0.02577 0.3521 0.0
H547 H 0.48352 0.05058 0.39235 0.0
H548 H 0.42494 0.90889 0.389 0.0
H549 H 0.40674 0.96607 0.48488 0.0
H550 H 0.51197 0.95364 0.38716 0.0
H551 H 0.50333 0.97843 0.34968 0.0
H552 H 0.47677 0.93226 0.35012 0.0
H553 H 0.49164 0.02454 0.50813 0.0
H554 H 0.4495 0.02002 0.50913 0.0
H555 H 0.48017 0.04581 0.46859 0.0
C556 C 0.48073 0.42676 0.40924 0.0
C557 C 0.48626 0.41661 0.44951 0.0
C558 C 0.48706 0.46035 0.40248 0.0
C559 C 0.49817 0.48377 0.43723 0.0
C560 C 0.50339 0.47335 0.47807 0.0
C561 C 0.49776 0.44003 0.48352 0.0
C562 C 0.48209 0.47084 0.35828 0.0
C563 C 0.51439 0.49722 0.51623 0.0
C564 C 0.5424 0.58059 0.42661 0.0
C565 C 0.51548 0.58681 0.43612 0.0
C566 C 0.53671 0.54698 0.424 0.0
C567 C 0.50344 0.51892 0.43179 0.0
C568 C 0.47586 0.5249 0.43912 0.0
C569 C 0.48214 0.55871 0.44065 0.0
C570 C 0.5667 0.54162 0.41525 0.0
C571 C 0.44006 0.49572 0.44813 0.0
H572 H 0.47207 0.40858 0.38296 0.0
H573 H 0.50159 0.4319 0.51476 0.0
H574 H 0.46196 0.47818 0.35911 0.0
H575 H 0.50616 0.49371 0.34742 0.0
H576 H 0.47461 0.44998 0.33437 0.0
H577 H 0.5168 0.4849 0.54591 0.0
H578 H 0.53946 0.5205 0.50968 0.0
H579 H 0.49547 0.50574 0.52207 0.0
H580 H 0.56828 0.60187 0.42312 0.0
H581 H 0.46098 0.56308 0.44682 0.0
H582 H 0.55976 0.52134 0.3907 0.0
H583 H 0.57358 0.5329 0.44499 0.0
H584 H 0.58969 0.56552 0.4041 0.0
H585 H 0.43186 0.47571 0.423 0.0
H586 H 0.42096 0.50445 0.44988 0.0
H587 H 0.43988 0.4835 0.47915 0.0
C588 C 0.33946 0.01985 0.03314 0.0
C589 C 0.3304 0.04151 0.01141 0.0
C590 C 0.3159 0.98471 0.03815 0.0
C591 C 0.28239 0.97086 0.02116 0.0
C592 C 0.27346 0.9923 0.99786 0.0
C593 C 0.29759 0.02736 0.99319 0.0
C594 C 0.32655 0.96269 0.06291 0.0
C595 C 0.23801 0.97848 0.97918 0.0
C596 C 0.22634 0.87387 0.01079 0.0
C597 C 0.20556 0.86571 0.0474 0.0
C598 C 0.25146 0.90796 0.00173 0.0
C599 C 0.25603 0.93449 0.03011 0.0
C600 C 0.23529 0.92636 0.06725 0.0
C601 C 0.21029 0.89212 0.07537 0.0
C602 C 0.27292 0.91561 0.96168 0.0
C603 C 0.23952 0.95385 0.09851 0.0
H604 H 0.36484 0.03045 0.04706 0.0
H605 H 0.29035 0.04385 0.97634 0.0
H606 H 0.31132 0.95347 0.09288 0.0
H607 H 0.32123 0.93971 0.04389 0.0
H608 H 0.35422 0.97684 0.07147 0.0
H609 H 0.23587 0.99789 0.95943 0.0
H610 H 0.23118 0.95564 0.95901 0.0
H611 H 0.21888 0.97014 0.00548 0.0
H612 H 0.22252 0.85364 0.98876 0.0
H613 H 0.19466 0.88593 0.10398 0.0
H614 H 0.30052 0.92846 0.97026 0.0
H615 H 0.26929 0.93354 0.94084 0.0
H616 H 0.26629 0.89205 0.94302 0.0
H617 H 0.26611 0.96741 0.11122 0.0
H618 H 0.22142 0.94326 0.12594 0.0
H619 H 0.23526 0.97321 0.08187 0.0
C620 C 0.3149 0.20584 0.02887 0.0
C621 C 0.3469 0.21178 0.04321 0.0
C622 C 0.30878 0.23321 0.02213 0.0
C623 C 0.33512 0.26723 0.03087 0.0
C624 C 0.36742 0.2733 0.04574 0.0
C625 C 0.373 0.24551 0.05134 0.0
C626 C 0.27419 0.22575 0.00561 0.0
C627 C 0.39591 0.30908 0.05638 0.0
C628 C 0.33098 0.34322 0.9837 0.0
C629 C 0.31681 0.35225 0.01784 0.0
C630 C 0.33659 0.31523 0.98718 0.0
C631 C 0.32852 0.29638 0.02602 0.0
C632 C 0.3145 0.30563 0.06067 0.0
C633 C 0.30851 0.33319 0.056 0.0
C634 C 0.35104 0.30575 0.94931 0.0
C635 C 0.30622 0.28669 0.10292 0.0
H636 H 0.29488 0.17978 0.02215 0.0
H637 H 0.39763 0.25006 0.06294 0.0
H638 H 0.26153 0.23396 0.02957 0.0
H639 H 0.27742 0.24062 0.97587 0.0
H640 H 0.25697 0.19805 0.99868 0.0
H641 H 0.41954 0.30943 0.06748 0.0
H642 H 0.40233 0.32591 0.02783 0.0
H643 H 0.38732 0.32029 0.08189 0.0
H644 H 0.3373 0.35777 0.9541 0.0
H645 H 0.29784 0.34023 0.08269 0.0
H646 H 0.33351 0.27858 0.94026 0.0
H647 H 0.37602 0.3081 0.95804 0.0
H648 H 0.3549 0.32225 0.92094 0.0
H649 H 0.28713 0.25918 0.09796 0.0
H650 H 0.29583 0.29739 0.12687 0.0
H651 H 0.32966 0.28797 0.11637 0.0
C652 C 0.99803 0.3578 0.00835 0.0
C653 C 0.9711 0.32397 0.00373 0.0
C654 C 0.03179 0.36481 0.01527 0.0
C655 C 0.03876 0.33736 0.01619 0.0
C656 C 0.01176 0.30331 0.00941 0.0
C657 C 0.97814 0.29698 0.00404 0.0
C658 C 0.05964 0.40134 0.02359 0.0
C659 C 0.01824 0.27346 0.00887 0.0
C660 C 0.13115 0.35783 0.00347 0.0
C661 C 0.13969 0.35445 0.0457 0.0
C662 C 0.09833 0.35217 0.99325 0.0
C663 C 0.07387 0.34392 0.02634 0.0
C664 C 0.08268 0.34113 0.06922 0.0
C665 C 0.11536 0.34592 0.07826 0.0
C666 C 0.08966 0.35444 0.94703 0.0
C667 C 0.05769 0.33331 0.10559 0.0
H668 H 0.99242 0.3786 0.00875 0.0
H669 H 0.95723 0.27082 0.00036 0.0
H670 H 0.06999 0.4034 0.05645 0.0
H671 H 0.08123 0.40889 0.00092 0.0
H672 H 0.0502 0.41983 0.02051 0.0
H673 H 0.99509 0.24908 0.99934 0.0
H674 H 0.03938 0.27869 0.98631 0.0
H675 H 0.02636 0.26999 0.04119 0.0
H676 H 0.15006 0.36428 0.97837 0.0
H677 H 0.12227 0.34382 0.11096 0.0
H678 H 0.0818 0.37408 0.9435 0.0
H679 H 0.06761 0.32952 0.93678 0.0
H680 H 0.1116 0.36109 0.92515 0.0
H681 H 0.04869 0.35221 0.10582 0.0
H682 H 0.06919 0.33388 0.13733 0.0
H683 H 0.03481 0.30756 0.101 0.0
C684 C 0.76208 0.12921 0.0456 0.0
C685 C 0.79501 0.13777 0.03154 0.0
C686 C 0.73421 0.09579 0.04074 0.0
C687 C 0.73931 0.07039 0.02082 0.0
C688 C 0.77241 0.07902 0.006 0.0
C689 C 0.79992 0.11256 0.01184 0.0
C690 C 0.69945 0.08751 0.05761 0.0
C691 C 0.77879 0.0528 0.98412 0.0
C692 C 0.67656 0.97692 0.04653 0.0
C693 C 0.6543 0.96672 0.01116 0.0
C694 C 0.70427 0.01053 0.05 0.0
C695 C 0.71025 0.03451 0.01701 0.0
C696 C 0.68821 0.02429 0.98089 0.0
C697 C 0.66032 0.99057 0.97854 0.0
C698 C 0.72687 0.02051 0.08931 0.0
C699 C 0.69403 0.04903 0.94483 0.0
H700 H 0.75829 0.14853 0.06129 0.0
H701 H 0.82525 0.11923 0.00045 0.0
H702 H 0.68019 0.07725 0.03144 0.0
H703 H 0.6909 0.06728 0.08258 0.0
H704 H 0.69967 0.1103 0.07169 0.0
H705 H 0.80571 0.06396 0.97291 0.0
H706 H 0.77306 0.03143 0.00654 0.0
H707 H 0.76139 0.04163 0.95619 0.0
H708 H 0.672 0.95876 0.07206 0.0
H709 H 0.64331 0.98287 0.95106 0.0
H710 H 0.72632 0.04193 0.1062 0.0
H711 H 0.75384 0.02975 0.07981 0.0
H712 H 0.71873 0.99881 0.11211 0.0
H713 H 0.69199 0.07108 0.95713 0.0
H714 H 0.67528 0.03678 0.91832 0.0
H715 H 0.72031 0.05948 0.93173 0.0
C716 C 0.64698 0.77392 0.00707 0.0
C717 C 0.64987 0.78641 0.04891 0.0
C718 C 0.65216 0.74624 0.99829 0.0
C719 C 0.65942 0.73008 0.03244 0.0
C720 C 0.66175 0.74228 0.07493 0.0
C721 C 0.65745 0.77068 0.08255 0.0
C722 C 0.6504 0.73466 0.95246 0.0
C723 C 0.66854 0.7252 0.11236 0.0
C724 C 0.64414 0.6396 0.01647 0.0
C725 C 0.67779 0.64587 0.01253 0.0
C726 C 0.63767 0.66679 0.02275 0.0
C727 C 0.6655 0.701 0.02374 0.0
C728 C 0.69941 0.70741 0.01789 0.0
C729 C 0.70518 0.6797 0.01312 0.0
C730 C 0.60125 0.6588 0.03008 0.0
C731 C 0.72968 0.74351 0.01749 0.0
H732 H 0.64126 0.78633 0.98114 0.0
H733 H 0.65916 0.78013 0.11493 0.0
H734 H 0.67521 0.73679 0.94328 0.0
H735 H 0.63037 0.70728 0.94919 0.0
H736 H 0.64461 0.75005 0.92962 0.0
H737 H 0.66772 0.73665 0.14359 0.0
H738 H 0.64925 0.69741 0.11291 0.0
H739 H 0.69412 0.72749 0.10882 0.0
H740 H 0.62303 0.61333 0.01668 0.0
H741 H 0.7312 0.68446 0.00997 0.0
H742 H 0.59423 0.67264 0.00638 0.0
H743 H 0.59904 0.66783 0.0624 0.0
H744 H 0.58249 0.63089 0.02767 0.0
H745 H 0.72529 0.75947 0.994 0.0
H746 H 0.75402 0.7442 0.00921 0.0
H747 H 0.73266 0.75544 0.04948 0.0
C748 C 0.87063 0.62843 0.04285 0.0
C749 C 0.86215 0.65326 0.03052 0.0
C750 C 0.90394 0.63394 0.03704 0.0
C751 C 0.92929 0.66489 0.01798 0.0
C752 C 0.92064 0.68967 0.00441 0.0
C753 C 0.88722 0.68365 0.01114 0.0
C754 C 0.91227 0.60712 0.05256 0.0
C755 C 0.94685 0.7228 0.9835 0.0
C756 C 0.02235 0.69658 0.04628 0.0
C757 C 0.03385 0.68613 0.0106 0.0
C758 C 0.98843 0.68973 0.04901 0.0
C759 C 0.96539 0.67236 0.01498 0.0
C760 C 0.97682 0.66197 0.97864 0.0
C761 C 0.0109 0.66877 0.97701 0.0
C762 C 0.97716 0.70083 0.08858 0.0
C763 C 0.95306 0.64372 0.94155 0.0
H764 H 0.85143 0.60508 0.05827 0.0
H765 H 0.8806 0.70265 0.00103 0.0
H766 H 0.92369 0.59956 0.02622 0.0
H767 H 0.93158 0.61796 0.07865 0.0
H768 H 0.88926 0.58376 0.06482 0.0
H769 H 0.93543 0.73831 0.97214 0.0
H770 H 0.96759 0.73838 0.00668 0.0
H771 H 0.95888 0.71734 0.95583 0.0
H772 H 0.03979 0.7098 0.07257 0.0
H773 H 0.01961 0.66069 0.94932 0.0
H774 H 0.95549 0.67818 0.10416 0.0
H775 H 0.96785 0.71862 0.07957 0.0
H776 H 0.99819 0.71385 0.11236 0.0
H777 H 0.93092 0.61921 0.95271 0.0
H778 H 0.9661 0.63807 0.9152 0.0
H779 H 0.94263 0.65963 0.92859 0.0
C780 C 0.11209 0.77243 0.42967 0.0
C781 C 0.13521 0.7879 0.46351 0.0
C782 C 0.07966 0.74359 0.43676 0.0
C783 C 0.06978 0.73072 0.47899 0.0
C784 C 0.09305 0.74655 0.51337 0.0
C785 C 0.12578 0.77466 0.50504 0.0
C786 C 0.05604 0.72684 0.39904 0.0
C787 C 0.08315 0.73429 0.55898 0.0
C788 C 0.97343 0.67933 0.49592 0.0
C789 C 0.96734 0.64562 0.49557 0.0
C790 C 0.00689 0.70732 0.49263 0.0
C791 C 0.03471 0.70133 0.4871 0.0
C792 C 0.02864 0.66722 0.48711 0.0
C793 C 0.99499 0.63973 0.49213 0.0
C794 C 0.01238 0.74328 0.49416 0.0
C795 C 0.0574 0.65969 0.47987 0.0
H796 H 0.11979 0.78256 0.39752 0.0
H797 H 0.14383 0.7869 0.53108 0.0
H798 H 0.04759 0.69907 0.39809 0.0
H799 H 0.0327 0.72907 0.40254 0.0
H800 H 0.06848 0.73862 0.368 0.0
H801 H 0.10424 0.74944 0.58202 0.0
H802 H 0.06037 0.73617 0.56839 0.0
H803 H 0.07592 0.7069 0.56163 0.0
H804 H 0.95194 0.68376 0.49872 0.0
H805 H 0.99008 0.61355 0.49127 0.0
H806 H 0.02129 0.75578 0.46243 0.0
H807 H 0.03261 0.75896 0.51788 0.0
H808 H 0.98857 0.74356 0.50278 0.0
H809 H 0.06887 0.66918 0.44775 0.0
H810 H 0.04851 0.63181 0.48182 0.0
H811 H 0.07802 0.6734 0.50387 0.0
C812 C 0.34903 0.12896 0.49609 0.0
C813 C 0.34918 0.13864 0.45337 0.0
C814 C 0.34151 0.09553 0.50647 0.0
C815 C 0.33515 0.07169 0.47315 0.0
C816 C 0.33587 0.08165 0.42984 0.0
C817 C 0.34231 0.1149 0.42053 0.0
C818 C 0.33993 0.08562 0.55303 0.0
C819 C 0.33028 0.05736 0.39333 0.0
C820 C 0.34679 0.99507 0.4958 0.0
C821 C 0.31273 0.9682 0.49653 0.0
C822 C 0.35455 0.02901 0.48843 0.0
C823 C 0.32748 0.03623 0.48341 0.0
C824 C 0.29299 0.00924 0.4863 0.0
C825 C 0.28604 0.9754 0.49188 0.0
C826 C 0.39162 0.05682 0.48409 0.0
C827 C 0.26344 0.01601 0.48263 0.0
H828 H 0.35421 0.14748 0.52134 0.0
H829 H 0.3429 0.12274 0.38753 0.0
H830 H 0.31433 0.06325 0.56032 0.0
H831 H 0.35922 0.07775 0.55963 0.0
H832 H 0.34467 0.10696 0.57506 0.0
H833 H 0.33334 0.06966 0.36148 0.0
H834 H 0.34877 0.04792 0.39573 0.0
H835 H 0.30414 0.03465 0.39527 0.0
H836 H 0.36738 0.98931 0.49878 0.0
H837 H 0.25969 0.95446 0.49246 0.0
H838 H 0.39778 0.07759 0.5076 0.0
H839 H 0.39606 0.06844 0.45163 0.0
H840 H 0.40959 0.04695 0.48904 0.0
H841 H 0.26716 0.03678 0.505 0.0
H842 H 0.23838 0.99278 0.48975 0.0
H843 H 0.26243 0.02479 0.4497 0.0
C844 C 0.20603 0.31712 0.48281 0.0
C845 C 0.2114 0.34753 0.46343 0.0
C846 C 0.23345 0.31121 0.49005 0.0
C847 C 0.26694 0.33607 0.47686 0.0
C848 C 0.27253 0.36693 0.45746 0.0
C849 C 0.24471 0.37239 0.45132 0.0
C850 C 0.22654 0.27824 0.51143 0.0
C851 C 0.30771 0.39379 0.44221 0.0
C852 C 0.34458 0.33347 0.52093 0.0
C853 C 0.35088 0.31598 0.48818 0.0
C854 C 0.31707 0.33986 0.51801 0.0
C855 C 0.29578 0.32899 0.48117 0.0
C856 C 0.30214 0.31144 0.448 0.0
C857 C 0.3294 0.30495 0.45205 0.0
C858 C 0.31077 0.35823 0.55429 0.0
C859 C 0.28038 0.29986 0.40791 0.0
H860 H 0.18036 0.29811 0.49275 0.0
H861 H 0.24883 0.39577 0.43598 0.0
H862 H 0.23239 0.26279 0.48888 0.0
H863 H 0.24353 0.28395 0.5397 0.0
H864 H 0.19945 0.26248 0.52203 0.0
H865 H 0.30791 0.41678 0.42883 0.0
H866 H 0.32635 0.40201 0.46905 0.0
H867 H 0.31678 0.38274 0.41708 0.0
H868 H 0.36101 0.34201 0.54897 0.0
H869 H 0.33421 0.29164 0.42639 0.0
H870 H 0.28425 0.34225 0.56663 0.0
H871 H 0.31313 0.38258 0.54247 0.0
H872 H 0.32905 0.36418 0.58123 0.0
H873 H 0.25321 0.28192 0.4164 0.0
H874 H 0.28895 0.28683 0.38488 0.0
H875 H 0.28132 0.32226 0.39167 0.0
C876 C 0.02263 0.32697 0.45708 0.0
C877 C 0.03311 0.35048 0.49112 0.0
C878 C 0.98885 0.29959 0.45428 0.0
C879 C 0.96495 0.29526 0.48661 0.0
C880 C 0.97535 0.31871 0.52126 0.0
C881 C 0.00929 0.34624 0.52295 0.0
C882 C 0.97867 0.27545 0.41647 0.0
C883 C 0.95065 0.31466 0.55656 0.0
C884 C 0.87068 0.24214 0.45693 0.0
C885 C 0.86234 0.20965 0.47259 0.0
C886 C 0.90383 0.27041 0.46196 0.0
C887 C 0.92907 0.26616 0.48375 0.0
C888 C 0.9205 0.2336 0.50064 0.0
C889 C 0.8873 0.20566 0.49451 0.0
C890 C 0.9121 0.30455 0.44281 0.0
C891 C 0.94656 0.22817 0.5246 0.0
H892 H 0.04077 0.33019 0.43212 0.0
H893 H 0.01721 0.36427 0.54936 0.0
H894 H 0.9695 0.24888 0.42782 0.0
H895 H 0.95716 0.27529 0.39886 0.0
H896 H 1.00024 0.28266 0.39377 0.0
H897 H 0.96291 0.33467 0.58172 0.0
H898 H 0.92859 0.31605 0.54299 0.0
H899 H 0.94023 0.28905 0.57177 0.0
H900 H 0.85152 0.24518 0.43957 0.0
H901 H 0.88072 0.18065 0.5071 0.0
H902 H 0.93203 0.31198 0.41766 0.0
H903 H 0.92275 0.32485 0.46773 0.0
H904 H 0.88924 0.3039 0.42829 0.0
H905 H 0.96782 0.23254 0.50274 0.0
H906 H 0.93521 0.20186 0.53811 0.0
H907 H 0.9579 0.24698 0.55116 0.0
C908 C 0.70876 0.02594 0.49335 0.0
C909 C 0.68087 0.03159 0.49428 0.0
C910 C 0.70371 0.99266 0.48948 0.0
C911 C 0.66999 0.96453 0.4848 0.0
C912 C 0.64166 0.97009 0.48651 0.0
C913 C 0.64745 0.00358 0.49203 0.0
C914 C 0.73453 0.98773 0.48924 0.0
C915 C 0.60539 0.94096 0.48041 0.0
C916 C 0.66235 0.88746 0.4249 0.0
C917 C 0.65538 0.86409 0.45828 0.0
C918 C 0.66644 0.91999 0.43302 0.0
C919 C 0.6646 0.92968 0.47577 0.0
C920 C 0.65814 0.90626 0.50969 0.0
C921 C 0.65302 0.87348 0.5004 0.0
C922 C 0.67232 0.94382 0.39581 0.0
C923 C 0.65703 0.91595 0.55576 0.0
H924 H 0.73462 0.04768 0.49531 0.0
H925 H 0.62592 0.00805 0.4923 0.0
H926 H 0.73079 0.96741 0.51241 0.0
H927 H 0.73759 0.9792 0.45701 0.0
H928 H 0.7586 0.0117 0.4975 0.0
H929 H 0.58617 0.94946 0.48361 0.0
H930 H 0.60274 0.92957 0.44809 0.0
H931 H 0.59938 0.92037 0.50418 0.0
H932 H 0.66363 0.87982 0.3923 0.0
H933 H 0.6477 0.85524 0.52609 0.0
H934 H 0.6977 0.96742 0.39902 0.0
H935 H 0.65262 0.95178 0.39596 0.0
H936 H 0.67135 0.93172 0.3644 0.0
H937 H 0.68164 0.93917 0.5643 0.0
H938 H 0.65242 0.89501 0.57843 0.0
H939 H 0.63644 0.92241 0.56005 0.0
C940 C 0.68467 0.70886 0.48034 0.0
C941 C 0.65098 0.68131 0.48262 0.0
C942 C 0.71252 0.70319 0.47672 0.0
C943 C 0.70638 0.66915 0.47369 0.0
C944 C 0.67229 0.64121 0.47583 0.0
C945 C 0.645 0.64764 0.48102 0.0
C946 C 0.7485 0.73362 0.47591 0.0
C947 C 0.66454 0.6046 0.47127 0.0
C948 C 0.77641 0.65855 0.42011 0.0
C949 C 0.79168 0.65221 0.45538 0.0
C950 C 0.74811 0.66334 0.42552 0.0
C951 C 0.73561 0.66291 0.46737 0.0
C952 C 0.7514 0.65701 0.50316 0.0
C953 C 0.7789 0.65114 0.49661 0.0
C954 C 0.73136 0.66847 0.38644 0.0
C955 C 0.73951 0.65732 0.54834 0.0
H956 H 0.68922 0.73491 0.48174 0.0
H957 H 0.61885 0.62636 0.48219 0.0
H958 H 0.7644 0.73062 0.50086 0.0
H959 H 0.76063 0.73501 0.44446 0.0
H960 H 0.74898 0.75826 0.48141 0.0
H961 H 0.63672 0.58579 0.47455 0.0
H962 H 0.67329 0.60109 0.43938 0.0
H963 H 0.67875 0.59877 0.49579 0.0
H964 H 0.78614 0.65884 0.38823 0.0
H965 H 0.79095 0.64628 0.52374 0.0
H966 H 0.73358 0.69415 0.38757 0.0
H967 H 0.70359 0.64913 0.38606 0.0
H968 H 0.74308 0.66633 0.35608 0.0
H969 H 0.74105 0.6823 0.55491 0.0
H970 H 0.75506 0.65311 0.57268 0.0
H971 H 0.71227 0.63706 0.55212 0.0
C972 C 0.43818 0.27247 0.30978 0.0
C973 C 0.45353 0.26892 0.34711 0.0
C974 C 0.44182 0.25973 0.27039 0.0
C975 C 0.4619 0.24361 0.26803 0.0
C976 C 0.47999 0.24272 0.30475 0.0
C977 C 0.47531 0.2551 0.34411 0.0
C978 C 0.42175 0.26093 0.2322 0.0
C979 C 0.50247 0.22669 0.30316 0.0
C980 C 0.42714 0.171 0.18775 0.0
C981 C 0.44646 0.18732 0.15107 0.0
C982 C 0.43306 0.1887 0.22657 0.0
C983 C 0.45947 0.22345 0.2291 0.0
C984 C 0.48053 0.23946 0.19293 0.0
C985 C 0.47348 0.2213 0.15405 0.0
C986 C 0.40962 0.17073 0.26414 0.0
C987 C 0.50953 0.27615 0.19476 0.0
H988 H 0.42151 0.28338 0.31171 0.0
H989 H 0.48749 0.25256 0.37278 0.0
H990 H 0.43858 0.27126 0.20367 0.0
H991 H 0.40113 0.23452 0.22424 0.0
H992 H 0.40978 0.27695 0.23834 0.0
H993 H 0.51983 0.23404 0.33136 0.0
H994 H 0.48613 0.19833 0.30281 0.0
H995 H 0.51816 0.23435 0.27346 0.0
H996 H 0.40623 0.14472 0.1857 0.0
H997 H 0.48869 0.23392 0.12585 0.0
H998 H 0.39459 0.18346 0.2719 0.0
H999 H 0.42487 0.17257 0.29298 0.0
H1000 H 0.39142 0.14318 0.25754 0.0
H1001 H 0.49891 0.29372 0.19501 0.0
H1002 H 0.52702 0.28278 0.16681 0.0
H1003 H 0.52461 0.28081 0.22466 0.0
C1004 C 0.25343 0.47673 0.15797 0.0
C1005 C 0.26693 0.45466 0.15557 0.0
C1006 C 0.24108 0.48187 0.1971 0.0
C1007 C 0.24166 0.46391 0.23414 0.0
C1008 C 0.25743 0.44349 0.23234 0.0
C1009 C 0.27017 0.43943 0.19321 0.0
C1010 C 0.22551 0.50477 0.19814 0.0
C1011 C 0.2583 0.42354 0.27088 0.0
C1012 C 0.21947 0.47517 0.3482 0.0
C1013 C 0.18552 0.4481 0.35109 0.0
C1014 C 0.2375 0.48262 0.30918 0.0
C1015 C 0.22142 0.46182 0.27283 0.0
C1016 C 0.18663 0.43554 0.27522 0.0
C1017 C 0.16903 0.4293 0.31416 0.0
C1018 C 0.27419 0.51159 0.30746 0.0
C1019 C 0.16859 0.41234 0.23749 0.0
H1020 H 0.25118 0.48886 0.12906 0.0
H1021 H 0.28089 0.42258 0.19174 0.0
H1022 H 0.19713 0.48874 0.19793 0.0
H1023 H 0.23298 0.52042 0.22787 0.0
H1024 H 0.23342 0.5222 0.16995 0.0
H1025 H 0.27384 0.41101 0.26501 0.0
H1026 H 0.26899 0.44062 0.29913 0.0
H1027 H 0.23177 0.40335 0.27913 0.0
H1028 H 0.2322 0.49002 0.37658 0.0
H1029 H 0.14276 0.40838 0.31612 0.0
H1030 H 0.27916 0.52639 0.27724 0.0
H1031 H 0.29172 0.50094 0.30815 0.0
H1032 H 0.28055 0.52936 0.33507 0.0
H1033 H 0.17075 0.42776 0.20871 0.0
H1034 H 0.14096 0.39438 0.24393 0.0
H1035 H 0.18101 0.397 0.22977 0.0
C1036 C 0.78646 0.24809 0.15203 0.0
C1037 C 0.82162 0.25983 0.1477 0.0
C1038 C 0.76976 0.23552 0.19153 0.0
C1039 C 0.78862 0.23416 0.22712 0.0
C1040 C 0.82441 0.24746 0.22332 0.0
C1041 C 0.84049 0.26035 0.18377 0.0
C1042 C 0.7317 0.22223 0.19464 0.0
C1043 C 0.84544 0.24617 0.26033 0.0
C1044 C 0.75586 0.21641 0.34187 0.0
C1045 C 0.74551 0.18151 0.34583 0.0
C1046 C 0.76825 0.23366 0.30263 0.0
C1047 C 0.77077 0.21562 0.26691 0.0
C1048 C 0.75909 0.18008 0.27039 0.0
C1049 C 0.74643 0.16344 0.30972 0.0
C1050 C 0.77989 0.27142 0.29989 0.0
C1051 C 0.7616 0.15992 0.23318 0.0
H1052 H 0.77179 0.24783 0.12431 0.0
H1053 H 0.8677 0.26946 0.18072 0.0
H1054 H 0.71782 0.19381 0.19684 0.0
H1055 H 0.72568 0.23205 0.22407 0.0
H1056 H 0.72184 0.22965 0.16635 0.0
H1057 H 0.87332 0.25965 0.25299 0.0
H1058 H 0.84138 0.25794 0.28934 0.0
H1059 H 0.83703 0.21903 0.26818 0.0
H1060 H 0.75498 0.23045 0.36963 0.0
H1061 H 0.73838 0.13643 0.31249 0.0
H1062 H 0.76924 0.27686 0.27076 0.0
H1063 H 0.80826 0.28641 0.29726 0.0
H1064 H 0.77206 0.28057 0.32848 0.0
H1065 H 0.74899 0.16311 0.20438 0.0
H1066 H 0.74961 0.13209 0.24043 0.0
H1067 H 0.78897 0.16987 0.225 0.0
C1068 C 0.52639 0.78181 0.15554 0.0
C1069 C 0.55018 0.81699 0.15234 0.0
C1070 C 0.52096 0.76446 0.19486 0.0
C1071 C 0.54044 0.78261 0.23127 0.0
C1072 C 0.5628 0.81852 0.2287 0.0
C1073 C 0.56706 0.83528 0.18943 0.0
C1074 C 0.496 0.72638 0.19674 0.0
C1075 C 0.58449 0.83888 0.26647 0.0
C1076 C 0.52906 0.74938 0.34564 0.0
C1077 C 0.55441 0.73999 0.34766 0.0
C1078 C 0.52219 0.76093 0.30694 0.0
C1079 C 0.54179 0.76394 0.26994 0.0
C1080 C 0.56623 0.75291 0.27147 0.0
C1081 C 0.57194 0.74075 0.31014 0.0
C1082 C 0.49518 0.77143 0.30619 0.0
C1083 C 0.58811 0.75613 0.23303 0.0
H1084 H 0.513 0.76759 0.12708 0.0
H1085 H 0.58536 0.86252 0.18735 0.0
H1086 H 0.51036 0.71227 0.19618 0.0
H1087 H 0.48095 0.71947 0.22693 0.0
H1088 H 0.47802 0.71759 0.16909 0.0
H1089 H 0.59857 0.86695 0.26016 0.0
H1090 H 0.56832 0.83388 0.29537 0.0
H1091 H 0.6035 0.83075 0.27391 0.0
H1092 H 0.5152 0.74854 0.37447 0.0
H1093 H 0.59151 0.73344 0.31136 0.0
H1094 H 0.47951 0.76209 0.27655 0.0
H1095 H 0.50774 0.79983 0.30633 0.0
H1096 H 0.47791 0.76143 0.33447 0.0
H1097 H 0.57173 0.74339 0.20472 0.0
H1098 H 0.60463 0.74467 0.23887 0.0
H1099 H 0.60487 0.78364 0.22485 0.0
C1100 C 0.78288 0.53045 0.34712 0.0
C1101 C 0.81834 0.55273 0.35081 0.0
C1102 C 0.76609 0.52632 0.30769 0.0
C1103 C 0.78521 0.5454 0.27158 0.0
C1104 C 0.82128 0.5663 0.27464 0.0
C1105 C 0.83741 0.56945 0.31412 0.0
C1106 C 0.7277 0.50311 0.30533 0.0
C1107 C 0.84263 0.58738 0.23706 0.0
C1108 C 0.75165 0.53254 0.15738 0.0
C1109 C 0.74342 0.55868 0.15406 0.0
C1110 C 0.76336 0.52636 0.19634 0.0
C1111 C 0.76754 0.54731 0.23231 0.0
C1112 C 0.75801 0.57285 0.22945 0.0
C1113 C 0.74581 0.578 0.19046 0.0
C1114 C 0.77252 0.49839 0.19851 0.0
C1115 C 0.76247 0.59606 0.26689 0.0
H1116 H 0.76804 0.51725 0.37532 0.0
H1117 H 0.86487 0.58659 0.31664 0.0
H1118 H 0.71511 0.51891 0.30421 0.0
H1119 H 0.72042 0.48738 0.27568 0.0
H1120 H 0.71758 0.48573 0.33351 0.0
H1121 H 0.87059 0.60015 0.24374 0.0
H1122 H 0.83701 0.57104 0.2082 0.0
H1123 H 0.836 0.60746 0.22934 0.0
H1124 H 0.74956 0.51734 0.12938 0.0
H1125 H 0.73943 0.59821 0.18813 0.0
H1126 H 0.7617 0.48273 0.22793 0.0
H1127 H 0.8008 0.51005 0.20011 0.0
H1128 H 0.76304 0.48121 0.17011 0.0
H1129 H 0.74932 0.58059 0.29571 0.0
H1130 H 0.75219 0.61346 0.26005 0.0
H1131 H 0.79013 0.61196 0.27482 0.0
C1132 C 0.21884 0.74972 0.15854 0.0
C1133 C 0.1834 0.73683 0.15544 0.0
C1134 C 0.23596 0.76169 0.19794 0.0
C1135 C 0.2172 0.76136 0.2346 0.0
C1136 C 0.18111 0.74624 0.23212 0.0
C1137 C 0.16465 0.73388 0.19268 0.0
C1138 C 0.27433 0.77667 0.19967 0.0
C1139 C 0.16011 0.74568 0.27025 0.0
C1140 C 0.2509 0.78301 0.34874 0.0
C1141 C 0.25862 0.81724 0.35162 0.0
C1142 C 0.23963 0.76492 0.30983 0.0
C1143 C 0.23525 0.78129 0.27353 0.0
C1144 C 0.24448 0.81629 0.27593 0.0
C1145 C 0.25636 0.83388 0.31479 0.0
C1146 C 0.23099 0.72792 0.30812 0.0
C1147 C 0.23976 0.83468 0.23823 0.0
H1148 H 0.23343 0.75174 0.12994 0.0
H1149 H 0.13719 0.72369 0.19065 0.0
H1150 H 0.2871 0.80509 0.20011 0.0
H1151 H 0.2819 0.76854 0.22938 0.0
H1152 H 0.28397 0.76891 0.17149 0.0
H1153 H 0.13208 0.73038 0.264 0.0
H1154 H 0.16609 0.7349 0.29877 0.0
H1155 H 0.16668 0.77232 0.27828 0.0
H1156 H 0.25292 0.77014 0.37706 0.0
H1157 H 0.26235 0.86037 0.31671 0.0
H1158 H 0.24099 0.72278 0.27819 0.0
H1159 H 0.20272 0.71095 0.30806 0.0
H1160 H 0.24161 0.72097 0.33605 0.0
H1161 H 0.25291 0.83231 0.20948 0.0
H1162 H 0.24984 0.86238 0.24473 0.0
H1163 H 0.21206 0.82267 0.2304 0.0
C1164 C 0.54586 0.7484 0.66348 0.0
C1165 C 0.57752 0.76123 0.64241 0.0
C1166 C 0.54406 0.7576 0.70605 0.0
C1167 C 0.57469 0.77954 0.72848 0.0
C1168 C 0.60671 0.79239 0.70764 0.0
C1169 C 0.60771 0.7835 0.66478 0.0
C1170 C 0.50939 0.74392 0.72699 0.0
C1171 C 0.63999 0.81554 0.73063 0.0
C1172 C 0.57451 0.83053 0.82537 0.0
C1173 C 0.57495 0.81029 0.85919 0.0
C1174 C 0.57325 0.82023 0.78263 0.0
C1175 C 0.5734 0.78943 0.77367 0.0
C1176 C 0.57374 0.76887 0.8079 0.0
C1177 C 0.57409 0.77938 0.85038 0.0
C1178 C 0.57213 0.84245 0.74708 0.0
C1179 C 0.57477 0.73632 0.79964 0.0
H1180 H 0.52238 0.73086 0.64687 0.0
H1181 H 0.63229 0.79436 0.64873 0.0
H1182 H 0.50744 0.72819 0.75539 0.0
H1183 H 0.50629 0.76555 0.73851 0.0
H1184 H 0.48795 0.72794 0.70477 0.0
H1185 H 0.66281 0.8221 0.71045 0.0
H1186 H 0.64087 0.83969 0.74023 0.0
H1187 H 0.64168 0.80292 0.76039 0.0
H1188 H 0.57503 0.85438 0.83247 0.0
H1189 H 0.57471 0.76397 0.87675 0.0
H1190 H 0.55007 0.82694 0.72554 0.0
H1191 H 0.59576 0.85273 0.7274 0.0
H1192 H 0.56989 0.86438 0.75955 0.0
H1193 H 0.55255 0.71847 0.77967 0.0
H1194 H 0.57443 0.723 0.8298 0.0
H1195 H 0.59834 0.74242 0.78146 0.0
C1196 C 0.81371 0.59781 0.66822 0.0
C1197 C 0.80653 0.5684 0.64456 0.0
C1198 C 0.80222 0.59533 0.71054 0.0
C1199 C 0.78219 0.56258 0.72944 0.0
C1200 C 0.77411 0.53272 0.7056 0.0
C1201 C 0.7867 0.53599 0.66364 0.0
C1202 C 0.81172 0.62782 0.73513 0.0
C1203 C 0.75226 0.49735 0.72446 0.0
C1204 C 0.77981 0.55956 0.85107 0.0
C1205 C 0.75008 0.56113 0.85957 0.0
C1206 C 0.79022 0.55926 0.80875 0.0
C1207 C 0.76996 0.55982 0.77432 0.0
C1208 C 0.73911 0.5599 0.78288 0.0
C1209 C 0.72976 0.56103 0.82551 0.0
C1210 C 0.82365 0.55992 0.80091 0.0
C1211 C 0.71645 0.55972 0.74704 0.0
H1212 H 0.82821 0.62295 0.65362 0.0
H1213 H 0.78131 0.51309 0.64599 0.0
H1214 H 0.7882 0.62832 0.74446 0.0
H1215 H 0.82535 0.62854 0.76512 0.0
H1216 H 0.82839 0.65131 0.71622 0.0
H1217 H 0.74704 0.47669 0.70106 0.0
H1218 H 0.76525 0.49411 0.75283 0.0
H1219 H 0.72742 0.49416 0.73562 0.0
H1220 H 0.79565 0.56002 0.87757 0.0
H1221 H 0.70671 0.56213 0.8323 0.0
H1222 H 0.84195 0.58423 0.78461 0.0
H1223 H 0.81951 0.53856 0.77939 0.0
H1224 H 0.83558 0.55786 0.83113 0.0
H1225 H 0.73001 0.58412 0.72881 0.0
H1226 H 0.69186 0.55669 0.75913 0.0
H1227 H 0.7107 0.53857 0.72427 0.0
C1228 C 0.26656 0.82048 0.67597 0.0
C1229 C 0.24155 0.81542 0.64562 0.0
C1230 C 0.25752 0.81063 0.71892 0.0
C1231 C 0.22257 0.79466 0.7313 0.0
C1232 C 0.19715 0.78853 0.70025 0.0
C1233 C 0.20702 0.79939 0.65785 0.0
C1234 C 0.2854 0.81821 0.75125 0.0
C1235 C 0.15957 0.77089 0.7119 0.0
C1236 C 0.19469 0.74413 0.8356 0.0
C1237 C 0.19071 0.76685 0.86246 0.0
C1238 C 0.20516 0.75286 0.79279 0.0
C1239 C 0.21258 0.78538 0.77695 0.0
C1240 C 0.20944 0.80873 0.80442 0.0
C1241 C 0.19814 0.79901 0.84675 0.0
C1242 C 0.20751 0.727 0.76427 0.0
C1243 C 0.21779 0.84391 0.78903 0.0
H1244 H 0.29328 0.83309 0.66633 0.0
H1245 H 0.18774 0.79537 0.6341 0.0
H1246 H 0.2855 0.83582 0.77623 0.0
H1247 H 0.28036 0.79425 0.76765 0.0
H1248 H 0.31124 0.83018 0.73627 0.0
H1249 H 0.14292 0.76609 0.68343 0.0
H1250 H 0.1518 0.74602 0.72789 0.0
H1251 H 0.15497 0.78693 0.73496 0.0
H1252 H 0.18873 0.71919 0.84783 0.0
H1253 H 0.19537 0.81667 0.86777 0.0
H1254 H 0.23371 0.73815 0.75071 0.0
H1255 H 0.18953 0.7204 0.73688 0.0
H1256 H 0.20128 0.70302 0.78167 0.0
H1257 H 0.24415 0.85773 0.77563 0.0
H1258 H 0.21588 0.8597 0.81509 0.0
H1259 H 0.19995 0.84143 0.76291 0.0
C1260 C 0.40616 0.16202 0.82726 0.0
C1261 C 0.43443 0.18217 0.85371 0.0
C1262 C 0.40521 0.17155 0.78466 0.0
C1263 C 0.43327 0.2019 0.76803 0.0
C1264 C 0.46222 0.22196 0.79426 0.0
C1265 C 0.46241 0.21191 0.83685 0.0
C1266 C 0.37378 0.1496 0.75779 0.0
C1267 C 0.49277 0.25431 0.77752 0.0
C1268 C 0.44163 0.21226 0.64692 0.0
C1269 C 0.42801 0.23383 0.63915 0.0
C1270 C 0.44378 0.20188 0.68872 0.0
C1271 C 0.43184 0.21318 0.72359 0.0
C1272 C 0.41807 0.23493 0.71601 0.0
C1273 C 0.41639 0.24505 0.67392 0.0
C1274 C 0.45859 0.17864 0.69555 0.0
C1275 C 0.40502 0.24748 0.75237 0.0
H1276 H 0.38428 0.13925 0.84029 0.0
H1277 H 0.48449 0.22735 0.85702 0.0
H1278 H 0.36139 0.16466 0.74851 0.0
H1279 H 0.38118 0.14177 0.72775 0.0
H1280 H 0.35466 0.12615 0.77502 0.0
H1281 H 0.51377 0.26634 0.8015 0.0
H1282 H 0.5029 0.24857 0.74815 0.0
H1283 H 0.48483 0.27319 0.76851 0.0
H1284 H 0.45017 0.20303 0.6202 0.0
H1285 H 0.40625 0.26206 0.66826 0.0
H1286 H 0.43899 0.15411 0.71021 0.0
H1287 H 0.48052 0.19074 0.71818 0.0
H1288 H 0.46754 0.17284 0.66516 0.0
H1289 H 0.38419 0.22528 0.76968 0.0
H1290 H 0.39505 0.26426 0.74106 0.0
H1291 H 0.42592 0.26203 0.77578 0.0
C1292 C 0.21167 0.43128 0.85286 0.0
C1293 C 0.24248 0.432 0.86186 0.0
C1294 C 0.20139 0.43118 0.81033 0.0
C1295 C 0.22291 0.43263 0.77625 0.0
C1296 C 0.25458 0.43438 0.78541 0.0
C1297 C 0.26377 0.43356 0.82822 0.0
C1298 C 0.16709 0.42846 0.80187 0.0
C1299 C 0.27852 0.43668 0.75001 0.0
C1300 C 0.18308 0.39704 0.66754 0.0
C1301 C 0.18945 0.42681 0.64523 0.0
C1302 C 0.19348 0.39859 0.71027 0.0
C1303 C 0.2116 0.43079 0.73102 0.0
C1304 C 0.21883 0.46103 0.70859 0.0
C1305 C 0.20735 0.45865 0.66615 0.0
C1306 C 0.1849 0.36568 0.73328 0.0
C1307 C 0.23866 0.49589 0.72943 0.0
H1308 H 0.1952 0.42978 0.87914 0.0
H1309 H 0.28763 0.43416 0.83551 0.0
H1310 H 0.17049 0.45036 0.78191 0.0
H1311 H 0.15044 0.40464 0.7836 0.0
H1312 H 0.15367 0.42807 0.83195 0.0
H1313 H 0.30316 0.44016 0.76262 0.0
H1314 H 0.26612 0.41295 0.73038 0.0
H1315 H 0.2841 0.45846 0.72838 0.0
H1316 H 0.17012 0.37237 0.65157 0.0
H1317 H 0.21208 0.48179 0.64958 0.0
H1318 H 0.1702 0.36321 0.76293 0.0
H1319 H 0.20882 0.36616 0.74307 0.0
H1320 H 0.16957 0.34262 0.71306 0.0
H1321 H 0.2244 0.49722 0.75768 0.0
H1322 H 0.24333 0.51704 0.70709 0.0
H1323 H 0.26375 0.50008 0.74117 0.0
C1324 C 0.78636 0.2528 0.83593 0.0
C1325 C 0.80788 0.24151 0.85312 0.0
C1326 C 0.77288 0.24346 0.7943 0.0
C1327 C 0.78169 0.22296 0.76891 0.0
C1328 C 0.8035 0.21164 0.78588 0.0
C1329 C 0.81592 0.22064 0.82787 0.0
C1330 C 0.74919 0.25548 0.77752 0.0
C1331 C 0.8138 0.19 0.75965 0.0
C1332 C 0.72826 0.16992 0.67465 0.0
C1333 C 0.74717 0.19037 0.63993 0.0
C1334 C 0.73814 0.18111 0.71697 0.0
C1335 C 0.76816 0.21306 0.72454 0.0
C1336 C 0.78678 0.23423 0.68945 0.0
C1337 C 0.77581 0.22273 0.64746 0.0
C1338 C 0.71718 0.15816 0.75351 0.0
C1339 C 0.81931 0.26811 0.69617 0.0
H1340 H 0.78027 0.26925 0.85483 0.0
H1341 H 0.83173 0.21096 0.841 0.0
H1342 H 0.76059 0.2718 0.74874 0.0
H1343 H 0.72443 0.23308 0.76752 0.0
H1344 H 0.74399 0.27038 0.80178 0.0
H1345 H 0.83204 0.18444 0.777 0.0
H1346 H 0.79074 0.16529 0.75113 0.0
H1347 H 0.82594 0.20334 0.72921 0.0
H1348 H 0.70606 0.1449 0.66862 0.0
H1349 H 0.79059 0.2383 0.62046 0.0
H1350 H 0.71143 0.17296 0.77726 0.0
H1351 H 0.73207 0.14813 0.77033 0.0
H1352 H 0.69262 0.13603 0.74232 0.0
H1353 H 0.81477 0.28435 0.71894 0.0
H1354 H 0.82946 0.28252 0.66571 0.0
H1355 H 0.83923 0.26351 0.7105 0.0
loop_
_geom_bond_atom_site_label_1
_geom_bond_atom_site_label_2
_geom_bond_distance
_geom_bond_site_symmetry_2
_ccdc_geom_bond_type
Co0 N4 2.148 . S
Co0 N10 2.128 . S
Co0 N20 2.194 1_554 S
Co0 O25 2.351 . S
Co0 O26 2.155 . S
Co0 O27 2.096 . S
C1 N4 1.301 . S
C1 N5 1.328 . S
C1 H6 0.930 . S
C2 C3 1.333 . S
C2 N4 1.317 . S
C2 H7 0.930 . S
C3 C2 1.333 . S
C3 N5 1.350 . S
C3 H29 0.931 . S
N4 Co0 2.148 . S
N4 C1 1.301 . S
N4 C2 1.317 . S
N5 C1 1.328 . S
N5 C3 1.350 . S
H6 C1 0.930 . S
H7 C2 0.930 . S
C8 O9 1.224 1_554 S
C8 O27 1.247 . S
O9 C8 1.224 1_556 S
N10 Co0 2.128 . S
N10 C11 1.355 . S
N10 C13 1.311 . S
C11 N10 1.355 . S
C11 C12 1.363 . S
C11 H23 0.929 . S
C12 C11 1.363 . S
C12 N14 1.375 . S
C12 H30 0.931 . S
C13 N10 1.311 . S
C13 N14 1.347 . S
C13 H24 0.929 . S
N14 C12 1.375 . S
N14 C13 1.347 . S
C15 C18 1.365 . S
C15 N20 1.328 . S
C15 H21 0.929 1_556 S
C16 C17 1.362 . S
C16 C19 1.378 . S
C16 H31 0.929 . S
C17 C16 1.362 . S
C17 C18 1.366 . S
C18 C15 1.365 . S
C18 C17 1.366 . S
C18 H32 0.930 . S
C19 C16 1.378 . S
C19 N20 1.315 . S
C19 H22 0.930 . S
N20 Co0 2.194 1_556 S
N20 C15 1.328 . S
N20 C19 1.315 . S
H21 C15 0.929 1_554 S
H22 C19 0.930 . S
H23 C11 0.929 . S
H24 C13 0.929 . S
O25 Co0 2.351 . S
O25 C28 1.244 . S
O26 Co0 2.155 . S
O26 C28 1.240 . S
O27 Co0 2.096 . S
O27 C8 1.247 . S
C28 O25 1.244 . S
C28 O26 1.240 . S
H29 C3 0.931 . S
H30 C12 0.931 . S
H31 C16 0.929 . S
H32 C18 0.930 . S
Co33 N37 2.148 . S
Co33 N43 2.128 . S
Co33 N53 2.194 1_554 S
Co33 O58 2.351 . S
Co33 O59 2.155 . S
Co33 O60 2.096 . S
C34 N37 1.301 . S
C34 N38 1.328 . S
C34 H39 0.930 . S
C35 C36 1.333 . S
C35 N37 1.317 . S
C35 H40 0.930 . S
C36 C35 1.333 . S
C36 N38 1.350 . S
C36 H62 0.931 . S
N37 Co33 2.148 . S
N37 C34 1.301 . S
N37 C35 1.317 . S
N38 C34 1.328 . S
N38 C36 1.350 . S
H39 C34 0.930 . S
H40 C35 0.930 . S
C41 O42 1.224 1_554 S
C41 O60 1.247 . S
O42 C41 1.224 1_556 S
N43 Co33 2.128 . S
N43 C44 1.355 . S
N43 C46 1.311 . S
C44 N43 1.355 . S
C44 C45 1.363 . S
C44 H56 0.929 . S
C45 C44 1.363 . S
C45 N47 1.375 . S
C45 H63 0.931 . S
C46 N43 1.311 . S
C46 N47 1.347 . S
C46 H57 0.929 . S
N47 C45 1.375 . S
N47 C46 1.347 . S
C48 C51 1.365 . S
C48 N53 1.328 . S
C48 H54 0.929 1_556 S
C49 C50 1.362 . S
C49 C52 1.378 . S
C49 H64 0.929 . S
C50 C49 1.362 . S
C50 C51 1.366 . S
C51 C48 1.365 . S
C51 C50 1.366 . S
C51 H65 0.930 . S
C52 C49 1.378 . S
C52 N53 1.315 . S
C52 H55 0.930 . S
N53 Co33 2.194 1_556 S
N53 C48 1.328 . S
N53 C52 1.315 . S
H54 C48 0.929 1_554 S
H55 C52 0.930 . S
H56 C44 0.929 . S
H57 C46 0.929 . S
O58 Co33 2.351 . S
O58 C61 1.244 . S
O59 Co33 2.155 . S
O59 C61 1.240 . S
O60 Co33 2.096 . S
O60 C41 1.247 . S
C61 O58 1.244 . S
C61 O59 1.240 . S
H62 C36 0.931 . S
H63 C45 0.931 . S
H64 C49 0.929 . S
H65 C51 0.930 . S
Co66 N70 2.148 . S
Co66 N76 2.128 . S
Co66 N86 2.194 1_554 S
Co66 O91 2.351 . S
Co66 O92 2.155 . S
Co66 O93 2.096 . S
C67 N70 1.301 . S
C67 N71 1.328 . S
C67 H72 0.930 . S
C68 C69 1.333 . S
C68 N70 1.317 . S
C68 H73 0.930 . S
C69 C68 1.333 . S
C69 N71 1.350 . S
C69 H95 0.931 . S
N70 Co66 2.148 . S
N70 C67 1.301 . S
N70 C68 1.317 . S
N71 C67 1.328 . S
N71 C69 1.350 . S
H72 C67 0.930 . S
H73 C68 0.930 . S
C74 O75 1.224 1_554 S
C74 O93 1.247 . S
O75 C74 1.224 1_556 S
N76 Co66 2.128 . S
N76 C77 1.355 . S
N76 C79 1.311 . S
C77 N76 1.355 . S
C77 C78 1.363 . S
C77 H89 0.929 . S
C78 C77 1.363 . S
C78 N80 1.375 . S
C78 H96 0.931 . S
C79 N76 1.311 . S
C79 N80 1.347 . S
C79 H90 0.929 . S
N80 C78 1.375 . S
N80 C79 1.347 . S
C81 C84 1.365 . S
C81 N86 1.328 . S
C81 H87 0.929 1_556 S
C82 C83 1.362 . S
C82 C85 1.378 . S
C82 H97 0.929 . S
C83 C82 1.362 . S
C83 C84 1.366 . S
C84 C81 1.365 . S
C84 C83 1.366 . S
C84 H98 0.930 . S
C85 C82 1.378 . S
C85 N86 1.315 . S
C85 H88 0.930 . S
N86 Co66 2.194 1_556 S
N86 C81 1.328 . S
N86 C85 1.315 . S
H87 C81 0.929 1_554 S
H88 C85 0.930 . S
H89 C77 0.929 . S
H90 C79 0.929 . S
O91 Co66 2.351 . S
O91 C94 1.244 . S
O92 Co66 2.155 . S
O92 C94 1.240 . S
O93 Co66 2.096 . S
O93 C74 1.247 . S
C94 O91 1.244 . S
C94 O92 1.240 . S
H95 C69 0.931 . S
H96 C78 0.931 . S
H97 C82 0.929 . S
H98 C84 0.930 . S
Co99 N103 2.148 . S
Co99 N109 2.128 . S
Co99 N119 2.194 1_554 S
Co99 O124 2.351 . S
Co99 O125 2.155 . S
Co99 O126 2.096 . S
C100 N103 1.301 . S
C100 N104 1.328 . S
C100 H105 0.930 . S
C101 C102 1.333 . S
C101 N103 1.317 . S
C101 H106 0.930 . S
C102 C101 1.333 . S
C102 N104 1.350 . S
C102 H128 0.931 . S
N103 Co99 2.148 . S
N103 C100 1.301 . S
N103 C101 1.317 . S
N104 C100 1.328 . S
N104 C102 1.350 . S
H105 C100 0.930 . S
H106 C101 0.930 . S
C107 O108 1.224 1_554 S
C107 O126 1.247 . S
O108 C107 1.224 1_556 S
N109 Co99 2.128 . S
N109 C110 1.355 . S
N109 C112 1.311 . S
C110 N109 1.355 . S
C110 C111 1.363 . S
C110 H122 0.929 . S
C111 C110 1.363 . S
C111 N113 1.375 . S
C111 H129 0.931 . S
C112 N109 1.311 . S
C112 N113 1.347 . S
C112 H123 0.929 . S
N113 C111 1.375 . S
N113 C112 1.347 . S
C114 C117 1.365 . S
C114 N119 1.328 . S
C114 H120 0.929 1_556 S
C115 C116 1.362 . S
C115 C118 1.378 . S
C115 H130 0.929 . S
C116 C115 1.362 . S
C116 C117 1.366 . S
C117 C114 1.365 . S
C117 C116 1.366 . S
C117 H131 0.930 . S
C118 C115 1.378 . S
C118 N119 1.315 . S
C118 H121 0.930 . S
N119 Co99 2.194 1_556 S
N119 C114 1.328 . S
N119 C118 1.315 . S
H120 C114 0.929 1_554 S
H121 C118 0.930 . S
H122 C110 0.929 . S
H123 C112 0.929 . S
O124 Co99 2.351 . S
O124 C127 1.244 . S
O125 Co99 2.155 . S
O125 C127 1.240 . S
O126 Co99 2.096 . S
O126 C107 1.247 . S
C127 O124 1.244 . S
C127 O125 1.240 . S
H128 C102 0.931 . S
H129 C111 0.931 . S
H130 C115 0.929 . S
H131 C117 0.930 . S
Co132 N136 2.148 . S
Co132 N142 2.128 . S
Co132 N152 2.194 1_554 S
Co132 O157 2.351 . S
Co132 O158 2.155 . S
Co132 O159 2.096 . S
C133 N136 1.301 . S
C133 N137 1.328 . S
C133 H138 0.930 . S
C134 C135 1.333 . S
C134 N136 1.317 . S
C134 H139 0.930 . S
C135 C134 1.333 . S
C135 N137 1.350 . S
C135 H161 0.931 . S
N136 Co132 2.148 . S
N136 C133 1.301 . S
N136 C134 1.317 . S
N137 C133 1.328 . S
N137 C135 1.350 . S
H138 C133 0.930 . S
H139 C134 0.930 . S
C140 O141 1.224 1_554 S
C140 O159 1.247 . S
O141 C140 1.224 1_556 S
N142 Co132 2.128 . S
N142 C143 1.355 . S
N142 C145 1.311 . S
C143 N142 1.355 . S
C143 C144 1.363 . S
C143 H155 0.929 . S
C144 C143 1.363 . S
C144 N146 1.375 . S
C144 H162 0.931 . S
C145 N142 1.311 . S
C145 N146 1.347 . S
C145 H156 0.929 . S
N146 C144 1.375 . S
N146 C145 1.347 . S
C147 C150 1.365 . S
C147 N152 1.328 . S
C147 H153 0.929 1_556 S
C148 C149 1.362 . S
C148 C151 1.378 . S
C148 H163 0.929 . S
C149 C148 1.362 . S
C149 C150 1.366 . S
C150 C147 1.365 . S
C150 C149 1.366 . S
C150 H164 0.930 . S
C151 C148 1.378 . S
C151 N152 1.315 . S
C151 H154 0.930 . S
N152 Co132 2.194 1_556 S
N152 C147 1.328 . S
N152 C151 1.315 . S
H153 C147 0.929 1_554 S
H154 C151 0.930 . S
H155 C143 0.929 . S
H156 C145 0.929 . S
O157 Co132 2.351 . S
O157 C160 1.244 . S
O158 Co132 2.155 . S
O158 C160 1.240 . S
O159 Co132 2.096 . S
O159 C140 1.247 . S
C160 O157 1.244 . S
C160 O158 1.240 . S
H161 C135 0.931 . S
H162 C144 0.931 . S
H163 C148 0.929 . S
H164 C150 0.930 . S
Co165 N169 2.148 . S
Co165 N175 2.128 . S
Co165 N185 2.194 1_554 S
Co165 O190 2.351 . S
Co165 O191 2.155 . S
Co165 O192 2.096 . S
C166 N169 1.301 . S
C166 N170 1.328 . S
C166 H171 0.930 . S
C167 C168 1.333 . S
C167 N169 1.317 . S
C167 H172 0.930 . S
C168 C167 1.333 . S
C168 N170 1.350 . S
C168 H194 0.931 . S
N169 Co165 2.148 . S
N169 C166 1.301 . S
N169 C167 1.317 . S
N170 C166 1.328 . S
N170 C168 1.350 . S
H171 C166 0.930 . S
H172 C167 0.930 . S
C173 O174 1.224 1_554 S
C173 O192 1.247 . S
O174 C173 1.224 1_556 S
N175 Co165 2.128 . S
N175 C176 1.355 . S
N175 C178 1.311 . S
C176 N175 1.355 . S
C176 C177 1.363 . S
C176 H188 0.929 . S
C177 C176 1.363 . S
C177 N179 1.375 . S
C177 H195 0.931 . S
C178 N175 1.311 . S
C178 N179 1.347 . S
C178 H189 0.929 . S
N179 C177 1.375 . S
N179 C178 1.347 . S
C180 C183 1.365 . S
C180 N185 1.328 . S
C180 H186 0.929 1_556 S
C181 C182 1.362 . S
C181 C184 1.378 . S
C181 H196 0.929 . S
C182 C181 1.362 . S
C182 C183 1.366 . S
C183 C180 1.365 . S
C183 C182 1.366 . S
C183 H197 0.930 . S
C184 C181 1.378 . S
C184 N185 1.315 . S
C184 H187 0.930 . S
N185 Co165 2.194 1_556 S
N185 C180 1.328 . S
N185 C184 1.315 . S
H186 C180 0.929 1_554 S
H187 C184 0.930 . S
H188 C176 0.929 . S
H189 C178 0.929 . S
O190 Co165 2.351 . S
O190 C193 1.244 . S
O191 Co165 2.155 . S
O191 C193 1.240 . S
O192 Co165 2.096 . S
O192 C173 1.247 . S
C193 O190 1.244 . S
C193 O191 1.240 . S
H194 C168 0.931 . S
H195 C177 0.931 . S
H196 C181 0.929 . S
H197 C183 0.930 . S
Co198 N202 2.148 . S
Co198 N208 2.128 . S
Co198 N218 2.194 . S
Co198 O223 2.351 . S
Co198 O224 2.155 . S
Co198 O225 2.096 . S
C199 N202 1.301 . S
C199 N203 1.328 . S
C199 H204 0.930 . S
C200 C201 1.333 . S
C200 N202 1.317 . S
C200 H205 0.930 . S
C201 C200 1.333 . S
C201 N203 1.350 . S
C201 H227 0.931 . S
N202 Co198 2.148 . S
N202 C199 1.301 . S
N202 C200 1.317 . S
N203 C199 1.328 . S
N203 C201 1.350 . S
H204 C199 0.930 . S
H205 C200 0.930 . S
C206 O207 1.224 . S
C206 O225 1.247 . S
O207 C206 1.224 . S
N208 Co198 2.128 . S
N208 C209 1.355 . S
N208 C211 1.311 . S
C209 N208 1.355 . S
C209 C210 1.363 . S
C209 H221 0.929 . S
C210 C209 1.363 . S
C210 N212 1.375 . S
C210 H228 0.931 . S
C211 N208 1.311 . S
C211 N212 1.347 . S
C211 H222 0.929 . S
N212 C210 1.375 . S
N212 C211 1.347 . S
C213 C216 1.365 . S
C213 N218 1.328 . S
C213 H219 0.929 . S
C214 C215 1.362 . S
C214 C217 1.378 . S
C214 H229 0.929 . S
C215 C214 1.362 . S
C215 C216 1.366 . S
C216 C213 1.365 . S
C216 C215 1.366 . S
C216 H230 0.930 . S
C217 C214 1.378 . S
C217 N218 1.315 . S
C217 H220 0.930 . S
N218 Co198 2.194 . S
N218 C213 1.328 . S
N218 C217 1.315 . S
H219 C213 0.929 . S
H220 C217 0.930 . S
H221 C209 0.929 . S
H222 C211 0.929 . S
O223 Co198 2.351 . S
O223 C226 1.244 . S
O224 Co198 2.155 . S
O224 C226 1.240 . S
O225 Co198 2.096 . S
O225 C206 1.247 . S
C226 O223 1.244 . S
C226 O224 1.240 . S
H227 C201 0.931 . S
H228 C210 0.931 . S
H229 C214 0.929 . S
H230 C216 0.930 . S
Co231 N235 2.148 . S
Co231 N241 2.128 . S
Co231 N251 2.194 . S
Co231 O256 2.351 . S
Co231 O257 2.155 . S
Co231 O258 2.096 . S
C232 N235 1.301 . S
C232 N236 1.328 . S
C232 H237 0.930 . S
C233 C234 1.333 . S
C233 N235 1.317 . S
C233 H238 0.930 . S
C234 C233 1.333 . S
C234 N236 1.350 . S
C234 H260 0.931 . S
N235 Co231 2.148 . S
N235 C232 1.301 . S
N235 C233 1.317 . S
N236 C232 1.328 . S
N236 C234 1.350 . S
H237 C232 0.930 . S
H238 C233 0.930 . S
C239 O240 1.224 . S
C239 O258 1.247 . S
O240 C239 1.224 . S
N241 Co231 2.128 . S
N241 C242 1.355 . S
N241 C244 1.311 . S
C242 N241 1.355 . S
C242 C243 1.363 . S
C242 H254 0.929 . S
C243 C242 1.363 . S
C243 N245 1.375 . S
C243 H261 0.931 . S
C244 N241 1.311 . S
C244 N245 1.347 . S
C244 H255 0.929 . S
N245 C243 1.375 . S
N245 C244 1.347 . S
C246 C249 1.365 . S
C246 N251 1.328 . S
C246 H252 0.929 . S
C247 C248 1.362 . S
C247 C250 1.378 . S
C247 H262 0.929 . S
C248 C247 1.362 . S
C248 C249 1.366 . S
C249 C246 1.365 . S
C249 C248 1.366 . S
C249 H263 0.930 . S
C250 C247 1.378 . S
C250 N251 1.315 . S
C250 H253 0.930 . S
N251 Co231 2.194 . S
N251 C246 1.328 . S
N251 C250 1.315 . S
H252 C246 0.929 . S
H253 C250 0.930 . S
H254 C242 0.929 . S
H255 C244 0.929 . S
O256 Co231 2.351 . S
O256 C259 1.244 . S
O257 Co231 2.155 . S
O257 C259 1.240 . S
O258 Co231 2.096 . S
O258 C239 1.247 . S
C259 O256 1.244 . S
C259 O257 1.240 . S
H260 C234 0.931 . S
H261 C243 0.931 . S
H262 C247 0.929 . S
H263 C249 0.930 . S
Co264 N268 2.148 . S
Co264 N274 2.128 . S
Co264 N284 2.194 . S
Co264 O289 2.351 . S
Co264 O290 2.155 . S
Co264 O291 2.096 . S
C265 N268 1.301 . S
C265 N269 1.328 . S
C265 H270 0.930 . S
C266 C267 1.333 . S
C266 N268 1.317 . S
C266 H271 0.930 . S
C267 C266 1.333 . S
C267 N269 1.350 . S
C267 H293 0.931 . S
N268 Co264 2.148 . S
N268 C265 1.301 . S
N268 C266 1.317 . S
N269 C265 1.328 . S
N269 C267 1.350 . S
H270 C265 0.930 . S
H271 C266 0.930 . S
C272 O273 1.224 . S
C272 O291 1.247 . S
O273 C272 1.224 . S
N274 Co264 2.128 . S
N274 C275 1.355 . S
N274 C277 1.311 . S
C275 N274 1.355 . S
C275 C276 1.363 . S
C275 H287 0.929 . S
C276 C275 1.363 . S
C276 N278 1.375 . S
C276 H294 0.931 . S
C277 N274 1.311 . S
C277 N278 1.347 . S
C277 H288 0.929 . S
N278 C276 1.375 . S
N278 C277 1.347 . S
C279 C282 1.365 . S
C279 N284 1.328 . S
C279 H285 0.929 . S
C280 C281 1.362 . S
C280 C283 1.378 . S
C280 H295 0.929 . S
C281 C280 1.362 . S
C281 C282 1.366 . S
C282 C279 1.365 . S
C282 C281 1.366 . S
C282 H296 0.930 . S
C283 C280 1.378 . S
C283 N284 1.315 . S
C283 H286 0.930 . S
N284 Co264 2.194 . S
N284 C279 1.328 . S
N284 C283 1.315 . S
H285 C279 0.929 . S
H286 C283 0.930 . S
H287 C275 0.929 . S
H288 C277 0.929 . S
O289 Co264 2.351 . S
O289 C292 1.244 . S
O290 Co264 2.155 . S
O290 C292 1.240 . S
O291 Co264 2.096 . S
O291 C272 1.247 . S
C292 O289 1.244 . S
C292 O290 1.240 . S
H293 C267 0.931 . S
H294 C276 0.931 . S
H295 C280 0.929 . S
H296 C282 0.930 . S
Co297 N301 2.148 . S
Co297 N307 2.128 . S
Co297 N317 2.194 . S
Co297 O322 2.351 . S
Co297 O323 2.155 . S
Co297 O324 2.096 . S
C298 N301 1.301 . S
C298 N302 1.328 . S
C298 H303 0.930 . S
C299 C300 1.333 . S
C299 N301 1.317 . S
C299 H304 0.930 . S
C300 C299 1.333 . S
C300 N302 1.350 . S
C300 H326 0.931 . S
N301 Co297 2.148 . S
N301 C298 1.301 . S
N301 C299 1.317 . S
N302 C298 1.328 . S
N302 C300 1.350 . S
H303 C298 0.930 . S
H304 C299 0.930 . S
C305 O306 1.224 . S
C305 O324 1.247 . S
O306 C305 1.224 . S
N307 Co297 2.128 . S
N307 C308 1.355 . S
N307 C310 1.311 . S
C308 N307 1.355 . S
C308 C309 1.363 . S
C308 H320 0.929 . S
C309 C308 1.363 . S
C309 N311 1.375 . S
C309 H327 0.931 . S
C310 N307 1.311 . S
C310 N311 1.347 . S
C310 H321 0.929 . S
N311 C309 1.375 . S
N311 C310 1.347 . S
C312 C315 1.365 . S
C312 N317 1.328 . S
C312 H318 0.929 . S
C313 C314 1.362 . S
C313 C316 1.378 . S
C313 H328 0.929 . S
C314 C313 1.362 . S
C314 C315 1.366 . S
C315 C312 1.365 . S
C315 C314 1.366 . S
C315 H329 0.930 . S
C316 C313 1.378 . S
C316 N317 1.315 . S
C316 H319 0.930 . S
N317 Co297 2.194 . S
N317 C312 1.328 . S
N317 C316 1.315 . S
H318 C312 0.929 . S
H319 C316 0.930 . S
H320 C308 0.929 . S
H321 C310 0.929 . S
O322 Co297 2.351 . S
O322 C325 1.244 . S
O323 Co297 2.155 . S
O323 C325 1.240 . S
O324 Co297 2.096 . S
O324 C305 1.247 . S
C325 O322 1.244 . S
C325 O323 1.240 . S
H326 C300 0.931 . S
H327 C309 0.931 . S
H328 C313 0.929 . S
H329 C315 0.930 . S
Co330 N334 2.148 . S
Co330 N340 2.128 . S
Co330 N350 2.194 . S
Co330 O355 2.351 . S
Co330 O356 2.155 . S
Co330 O357 2.096 . S
C331 N334 1.301 . S
C331 N335 1.328 . S
C331 H336 0.930 . S
C332 C333 1.333 . S
C332 N334 1.317 . S
C332 H337 0.930 . S
C333 C332 1.333 . S
C333 N335 1.350 . S
C333 H359 0.931 . S
N334 Co330 2.148 . S
N334 C331 1.301 . S
N334 C332 1.317 . S
N335 C331 1.328 . S
N335 C333 1.350 . S
H336 C331 0.930 . S
H337 C332 0.930 . S
C338 O339 1.224 . S
C338 O357 1.247 . S
O339 C338 1.224 . S
N340 Co330 2.128 . S
N340 C341 1.355 . S
N340 C343 1.311 . S
C341 N340 1.355 . S
C341 C342 1.363 . S
C341 H353 0.929 . S
C342 C341 1.363 . S
C342 N344 1.375 . S
C342 H360 0.931 . S
C343 N340 1.311 . S
C343 N344 1.347 . S
C343 H354 0.929 . S
N344 C342 1.375 . S
N344 C343 1.347 . S
C345 C348 1.365 . S
C345 N350 1.328 . S
C345 H351 0.929 . S
C346 C347 1.362 . S
C346 C349 1.378 . S
C346 H361 0.929 . S
C347 C346 1.362 . S
C347 C348 1.366 . S
C348 C345 1.365 . S
C348 C347 1.366 . S
C348 H362 0.930 . S
C349 C346 1.378 . S
C349 N350 1.315 . S
C349 H352 0.930 . S
N350 Co330 2.194 . S
N350 C345 1.328 . S
N350 C349 1.315 . S
H351 C345 0.929 . S
H352 C349 0.930 . S
H353 C341 0.929 . S
H354 C343 0.929 . S
O355 Co330 2.351 . S
O355 C358 1.244 . S
O356 Co330 2.155 . S
O356 C358 1.240 . S
O357 Co330 2.096 . S
O357 C338 1.247 . S
C358 O355 1.244 . S
C358 O356 1.240 . S
H359 C333 0.931 . S
H360 C342 0.931 . S
H361 C346 0.929 . S
H362 C348 0.930 . S
Co363 N367 2.148 . S
Co363 N373 2.128 . S
Co363 N383 2.194 . S
Co363 O388 2.351 . S
Co363 O389 2.155 . S
Co363 O390 2.096 . S
C364 N367 1.301 . S
C364 N368 1.328 . S
C364 H369 0.930 . S
C365 C366 1.333 . S
C365 N367 1.317 . S
C365 H370 0.930 . S
C366 C365 1.333 . S
C366 N368 1.350 . S
C366 H392 0.931 . S
N367 Co363 2.148 . S
N367 C364 1.301 . S
N367 C365 1.317 . S
N368 C364 1.328 . S
N368 C366 1.350 . S
H369 C364 0.930 . S
H370 C365 0.930 . S
C371 O372 1.224 . S
C371 O390 1.247 . S
O372 C371 1.224 . S
N373 Co363 2.128 . S
N373 C374 1.355 . S
N373 C376 1.311 . S
C374 N373 1.355 . S
C374 C375 1.363 . S
C374 H386 0.929 . S
C375 C374 1.363 . S
C375 N377 1.375 . S
C375 H393 0.931 . S
C376 N373 1.311 . S
C376 N377 1.347 . S
C376 H387 0.929 . S
N377 C375 1.375 . S
N377 C376 1.347 . S
C378 C381 1.365 . S
C378 N383 1.328 . S
C378 H384 0.929 . S
C379 C380 1.362 . S
C379 C382 1.378 . S
C379 H394 0.929 . S
C380 C379 1.362 . S
C380 C381 1.366 . S
C381 C378 1.365 . S
C381 C380 1.366 . S
C381 H395 0.930 . S
C382 C379 1.378 . S
C382 N383 1.315 . S
C382 H385 0.930 . S
N383 Co363 2.194 . S
N383 C378 1.328 . S
N383 C382 1.315 . S
H384 C378 0.929 . S
H385 C382 0.930 . S
H386 C374 0.929 . S
H387 C376 0.929 . S
O388 Co363 2.351 . S
O388 C391 1.244 . S
O389 Co363 2.155 . S
O389 C391 1.240 . S
O390 Co363 2.096 . S
O390 C371 1.247 . S
C391 O388 1.244 . S
C391 O389 1.240 . S
H392 C366 0.931 . S
H393 C375 0.931 . S
H394 C379 0.929 . S
H395 C381 0.930 . S
C396 C397 1.391 . S
C396 C398 1.394 . S
C396 H412 0.931 . S
C397 C396 1.391 . S
C397 C401 1.376 . S
C398 C396 1.394 . S
C398 C399 1.369 . S
C398 C402 1.531 1_545 S
C399 C398 1.369 . S
C399 C400 1.410 . S
C399 C407 1.503 1_545 S
C400 C399 1.410 . S
C400 C401 1.392 . S
C400 C403 1.511 . S
C401 C397 1.376 . S
C401 C400 1.392 . S
C401 H413 0.929 . S
C402 C398 1.531 1_565 S
C402 H414 0.960 1_554 S
C402 H415 0.962 . S
C402 H416 0.960 1_554 S
C403 C400 1.511 . S
C403 H417 0.961 . S
C403 H418 0.961 . S
C403 H419 0.961 . S
C404 C405 1.370 . S
C404 C406 1.363 . S
C404 H420 0.931 . S
C405 C404 1.370 . S
C405 C409 1.408 1_554 S
C406 C404 1.363 . S
C406 C407 1.370 . S
C406 C410 1.524 . S
C407 C399 1.503 1_565 S
C407 C406 1.370 . S
C407 C408 1.403 1_554 S
C408 C407 1.403 1_556 S
C408 C409 1.404 . S
C408 C411 1.539 . S
C409 C405 1.408 1_556 S
C409 C408 1.404 . S
C409 H421 0.930 . S
C410 C406 1.524 . S
C410 H422 0.956 . S
C410 H423 0.961 1_565 S
C410 H424 0.961 . S
C411 C408 1.539 . S
C411 H425 0.958 . S
C411 H426 0.974 1_565 S
C411 H427 0.960 1_565 S
H412 C396 0.931 . S
H413 C401 0.929 . S
H414 C402 0.960 1_556 S
H415 C402 0.962 . S
H416 C402 0.960 1_556 S
H417 C403 0.961 . S
H418 C403 0.961 . S
H419 C403 0.961 . S
H420 C404 0.931 . S
H421 C409 0.930 . S
H422 C410 0.956 . S
H423 C410 0.961 1_545 S
H424 C410 0.961 . S
H425 C411 0.958 . S
H426 C411 0.974 1_545 S
H427 C411 0.960 1_545 S
C428 C429 1.391 . S
C428 C430 1.394 . S
C428 H444 0.931 . S
C429 C428 1.391 . S
C429 C433 1.376 . S
C430 C428 1.394 . S
C430 C431 1.369 . S
C430 C434 1.531 . S
C431 C430 1.369 . S
C431 C432 1.410 . S
C431 C439 1.503 . S
C432 C431 1.410 . S
C432 C433 1.392 . S
C432 C435 1.511 1_554 S
C433 C429 1.376 . S
C433 C432 1.392 . S
C433 H445 0.929 . S
C434 C430 1.531 . S
C434 H446 0.960 . S
C434 H447 0.962 . S
C434 H448 0.960 . S
C435 C432 1.511 1_556 S
C435 H449 0.961 1_556 S
C435 H450 0.961 1_556 S
C435 H451 0.961 . S
C436 C437 1.370 . S
C436 C438 1.363 . S
C436 H452 0.931 . S
C437 C436 1.370 . S
C437 C441 1.408 1_554 S
C438 C436 1.363 . S
C438 C439 1.370 . S
C438 C442 1.524 . S
C439 C431 1.503 . S
C439 C438 1.370 . S
C439 C440 1.403 1_554 S
C440 C439 1.403 1_556 S
C440 C441 1.404 . S
C440 C443 1.539 . S
C441 C437 1.408 1_556 S
C441 C440 1.404 . S
C441 H453 0.930 . S
C442 C438 1.524 . S
C442 H454 0.956 . S
C442 H455 0.961 . S
C442 H456 0.961 . S
C443 C440 1.539 . S
C443 H457 0.958 . S
C443 H458 0.961 . S
C443 H459 0.960 . S
H444 C428 0.931 . S
H445 C433 0.929 . S
H446 C434 0.960 . S
H447 C434 0.962 . S
H448 C434 0.960 . S
H449 C435 0.961 1_554 S
H450 C435 0.961 1_554 S
H451 C435 0.961 . S
H452 C436 0.931 . S
H453 C441 0.930 . S
H454 C442 0.956 . S
H455 C442 0.961 . S
H456 C442 0.961 . S
H457 C443 0.958 . S
H458 C443 0.961 . S
H459 C443 0.960 . S
C460 C461 1.391 . S
C460 C462 1.394 . S
C460 H476 0.931 . S
C461 C460 1.391 . S
C461 C465 1.376 . S
C462 C460 1.394 . S
C462 C463 1.369 . S
C462 C466 1.531 . S
C463 C462 1.369 . S
C463 C464 1.439 . S
C463 C471 1.503 1_455 S
C464 C463 1.439 . S
C464 C465 1.403 . S
C464 C467 1.473 1_455 S
C465 C461 1.376 . S
C465 C464 1.403 . S
C465 H477 0.929 . S
C466 C462 1.531 . S
C466 H478 0.960 . S
C466 H479 0.962 . S
C466 H480 0.960 . S
C467 C464 1.473 1_655 S
C467 H481 0.961 . S
C467 H482 0.961 . S
C467 H483 0.961 . S
C468 C469 1.370 . S
C468 C470 1.363 . S
C468 H484 0.931 1_554 S
C469 C468 1.370 . S
C469 C473 1.408 . S
C470 C468 1.363 . S
C470 C471 1.370 . S
C470 C474 1.524 1_654 S
C471 C463 1.503 1_655 S
C471 C470 1.370 . S
C471 C472 1.403 . S
C472 C471 1.403 . S
C472 C473 1.404 . S
C472 C475 1.539 . S
C473 C469 1.408 . S
C473 C472 1.404 . S
C473 H485 0.930 . S
C474 C470 1.524 1_456 S
C474 H486 0.956 . S
C474 H487 0.961 1_455 S
C474 H488 0.961 1_455 S
C475 C472 1.539 . S
C475 H489 0.958 . S
C475 H490 0.961 . S
C475 H491 0.960 . S
H476 C460 0.931 . S
H477 C465 0.929 . S
H478 C466 0.960 . S
H479 C466 0.962 . S
H480 C466 0.960 . S
H481 C467 0.961 . S
H482 C467 0.961 . S
H483 C467 0.961 . S
H484 C468 0.931 1_556 S
H485 C473 0.930 . S
H486 C474 0.956 . S
H487 C474 0.961 1_655 S
H488 C474 0.961 1_655 S
H489 C475 0.958 . S
H490 C475 0.961 . S
H491 C475 0.960 . S
C492 C493 1.391 . S
C492 C494 1.394 . S
C492 H508 0.931 . S
C493 C492 1.391 . S
C493 C497 1.376 . S
C494 C492 1.394 . S
C494 C495 1.369 . S
C494 C498 1.531 . S
C495 C494 1.369 . S
C495 C496 1.410 . S
C495 C503 1.503 1_455 S
C496 C495 1.410 . S
C496 C497 1.392 . S
C496 C499 1.511 1_455 S
C497 C493 1.376 . S
C497 C496 1.392 . S
C497 H509 0.929 . S
C498 C494 1.531 . S
C498 H510 0.960 . S
C498 H511 0.962 . S
C498 H512 0.960 . S
C499 C496 1.511 1_655 S
C499 H513 0.961 . S
C499 H514 0.961 . S
C499 H515 0.961 . S
C500 C501 1.370 . S
C500 C502 1.363 . S
C500 H516 0.931 . S
C501 C500 1.370 . S
C501 C505 1.408 . S
C502 C500 1.363 . S
C502 C503 1.370 . S
C502 C506 1.524 . S
C503 C495 1.503 1_655 S
C503 C502 1.370 . S
C503 C504 1.403 . S
C504 C503 1.403 . S
C504 C505 1.404 . S
C504 C507 1.539 . S
C505 C501 1.408 . S
C505 C504 1.404 . S
C505 H517 0.930 . S
C506 C502 1.524 . S
C506 H518 0.956 1_655 S
C506 H519 0.961 . S
C506 H520 0.961 . S
C507 C504 1.539 . S
C507 H521 0.947 1_655 S
C507 H522 0.961 . S
C507 H523 0.960 . S
H508 C492 0.931 . S
H509 C497 0.929 . S
H510 C498 0.960 . S
H511 C498 0.962 . S
H512 C498 0.960 . S
H513 C499 0.961 . S
H514 C499 0.961 . S
H515 C499 0.961 . S
H516 C500 0.931 . S
H517 C505 0.930 . S
H518 C506 0.956 1_455 S
H519 C506 0.961 . S
H520 C506 0.961 . S
H521 C507 0.947 1_455 S
H522 C507 0.961 . S
H523 C507 0.960 . S
C524 C525 1.391 . S
C524 C526 1.394 . S
C524 H540 0.931 . S
C525 C524 1.391 . S
C525 C529 1.376 . S
C526 C524 1.394 . S
C526 C527 1.369 . S
C526 C530 1.531 1_545 S
C527 C526 1.369 . S
C527 C528 1.410 . S
C527 C535 1.503 1_545 S
C528 C527 1.410 . S
C528 C529 1.392 . S
C528 C531 1.511 . S
C529 C525 1.376 . S
C529 C528 1.392 . S
C529 H541 0.929 . S
C530 C526 1.531 1_565 S
C530 H542 0.960 . S
C530 H543 0.962 . S
C530 H544 0.960 . S
C531 C528 1.511 . S
C531 H545 0.961 . S
C531 H546 0.961 . S
C531 H547 0.961 . S
C532 C533 1.370 . S
C532 C534 1.363 . S
C532 H548 0.931 . S
C533 C532 1.370 . S
C533 C537 1.408 . S
C534 C532 1.363 . S
C534 C535 1.370 . S
C534 C538 1.524 . S
C535 C527 1.503 1_565 S
C535 C534 1.370 . S
C535 C536 1.403 . S
C536 C535 1.403 . S
C536 C537 1.404 . S
C536 C539 1.539 1_565 S
C537 C533 1.408 . S
C537 C536 1.404 . S
C537 H549 0.930 . S
C538 C534 1.524 . S
C538 H550 0.956 . S
C538 H551 0.961 . S
C538 H552 0.961 . S
C539 C536 1.539 1_545 S
C539 H553 0.958 . S
C539 H554 0.961 . S
C539 H555 0.960 . S
H540 C524 0.931 . S
H541 C529 0.929 . S
H542 C530 0.960 . S
H543 C530 0.962 . S
H544 C530 0.960 . S
H545 C531 0.961 . S
H546 C531 0.961 . S
H547 C531 0.961 . S
H548 C532 0.931 . S
H549 C537 0.930 . S
H550 C538 0.956 . S
H551 C538 0.961 . S
H552 C538 0.961 . S
H553 C539 0.958 . S
H554 C539 0.961 . S
H555 C539 0.960 . S
C556 C557 1.391 . S
C556 C558 1.394 . S
C556 H572 0.931 . S
C557 C556 1.391 . S
C557 C561 1.376 . S
C558 C556 1.394 . S
C558 C559 1.369 . S
C558 C562 1.531 . S
C559 C558 1.369 . S
C559 C560 1.410 . S
C559 C567 1.503 . S
C560 C559 1.410 . S
C560 C561 1.392 . S
C560 C563 1.511 . S
C561 C557 1.376 . S
C561 C560 1.392 . S
C561 H573 0.929 . S
C562 C558 1.531 . S
C562 H574 0.960 . S
C562 H575 0.962 . S
C562 H576 0.960 . S
C563 C560 1.511 . S
C563 H577 0.961 . S
C563 H578 0.961 . S
C563 H579 0.961 . S
C564 C565 1.370 . S
C564 C566 1.363 . S
C564 H580 0.931 . S
C565 C564 1.370 . S
C565 C569 1.408 . S
C566 C564 1.363 . S
C566 C567 1.370 . S
C566 C570 1.524 . S
C567 C559 1.503 . S
C567 C566 1.370 . S
C567 C568 1.403 . S
C568 C567 1.403 . S
C568 C569 1.404 . S
C568 C571 1.539 . S
C569 C565 1.408 . S
C569 C568 1.404 . S
C569 H581 0.930 . S
C570 C566 1.524 . S
C570 H582 0.956 . S
C570 H583 0.961 . S
C570 H584 0.961 . S
C571 C568 1.539 . S
C571 H585 0.958 . S
C571 H586 0.961 . S
C571 H587 0.960 . S
H572 C556 0.931 . S
H573 C561 0.929 . S
H574 C562 0.960 . S
H575 C562 0.962 . S
H576 C562 0.960 . S
H577 C563 0.961 . S
H578 C563 0.961 . S
H579 C563 0.961 . S
H580 C564 0.931 . S
H581 C569 0.930 . S
H582 C570 0.956 . S
H583 C570 0.961 . S
H584 C570 0.961 . S
H585 C571 0.958 . S
H586 C571 0.961 . S
H587 C571 0.960 . S
C588 C589 1.391 . S
C588 C590 1.394 1_545 S
C588 H604 0.930 1_554 S
C589 C588 1.391 . S
C589 C593 1.376 . S
C590 C588 1.394 1_565 S
C590 C591 1.369 . S
C590 C594 1.531 1_554 S
C591 C590 1.369 . S
C591 C592 1.410 . S
C591 C599 1.503 . S
C592 C591 1.410 . S
C592 C593 1.392 1_565 S
C592 C595 1.511 . S
C593 C589 1.376 . S
C593 C592 1.392 1_545 S
C593 H605 0.929 . S
C594 C590 1.531 1_556 S
C594 H606 0.960 1_556 S
C594 H607 0.962 . S
C594 H608 0.960 . S
C595 C592 1.511 . S
C595 H609 0.961 1_565 S
C595 H610 0.961 . S
C595 H611 0.961 . S
C596 C597 1.370 . S
C596 C598 1.363 . S
C596 H612 0.931 1_554 S
C597 C596 1.370 . S
C597 C601 1.408 . S
C598 C596 1.363 . S
C598 C599 1.370 . S
C598 C602 1.524 1_554 S
C599 C591 1.503 . S
C599 C598 1.370 . S
C599 C600 1.403 . S
C600 C599 1.403 . S
C600 C601 1.404 . S
C600 C603 1.539 . S
C601 C597 1.408 . S
C601 C600 1.404 . S
C601 H613 0.930 . S
C602 C598 1.524 1_556 S
C602 H614 0.956 . S
C602 H615 0.961 . S
C602 H616 0.961 . S
C603 C600 1.539 . S
C603 H617 0.958 . S
C603 H618 0.961 . S
C603 H619 0.960 . S
H604 C588 0.930 1_556 S
H605 C593 0.929 . S
H606 C594 0.960 1_554 S
H607 C594 0.962 . S
H608 C594 0.960 . S
H609 C595 0.961 1_545 S
H610 C595 0.961 . S
H611 C595 0.961 . S
H612 C596 0.931 1_556 S
H613 C601 0.930 . S
H614 C602 0.956 . S
H615 C602 0.961 . S
H616 C602 0.961 . S
H617 C603 0.958 . S
H618 C603 0.961 . S
H619 C603 0.960 . S
C620 C621 1.391 . S
C620 C622 1.394 . S
C620 H636 0.931 . S
C621 C620 1.391 . S
C621 C625 1.376 . S
C622 C620 1.394 . S
C622 C623 1.369 . S
C622 C626 1.531 . S
C623 C622 1.369 . S
C623 C624 1.410 . S
C623 C631 1.503 . S
C624 C623 1.410 . S
C624 C625 1.392 . S
C624 C627 1.511 . S
C625 C621 1.376 . S
C625 C624 1.392 . S
C625 H637 0.929 . S
C626 C622 1.531 . S
C626 H638 0.960 . S
C626 H639 0.962 . S
C626 H640 0.960 . S
C627 C624 1.511 . S
C627 H641 0.961 . S
C627 H642 0.961 . S
C627 H643 0.961 . S
C628 C629 1.370 . S
C628 C630 1.363 . S
C628 H644 0.931 1_554 S
C629 C628 1.370 . S
C629 C633 1.408 . S
C630 C628 1.363 . S
C630 C631 1.370 . S
C630 C634 1.524 1_554 S
C631 C623 1.503 . S
C631 C630 1.370 . S
C631 C632 1.403 . S
C632 C631 1.403 . S
C632 C633 1.404 . S
C632 C635 1.539 . S
C633 C629 1.408 . S
C633 C632 1.404 . S
C633 H645 0.930 . S
C634 C630 1.524 1_556 S
C634 H646 0.956 . S
C634 H647 0.961 . S
C634 H648 0.961 . S
C635 C632 1.539 . S
C635 H649 0.958 . S
C635 H650 0.961 . S
C635 H651 0.960 . S
H636 C620 0.931 . S
H637 C625 0.929 . S
H638 C626 0.960 . S
H639 C626 0.962 . S
H640 C626 0.960 . S
H641 C627 0.961 . S
H642 C627 0.961 . S
H643 C627 0.961 . S
H644 C628 0.931 1_556 S
H645 C633 0.930 . S
H646 C634 0.956 . S
H647 C634 0.961 . S
H648 C634 0.961 . S
H649 C635 0.958 . S
H650 C635 0.961 . S
H651 C635 0.960 . S
C652 C653 1.391 . S
C652 C654 1.394 1_655 S
C652 H668 0.931 . S
C653 C652 1.391 . S
C653 C657 1.376 . S
C654 C652 1.394 1_455 S
C654 C655 1.369 . S
C654 C658 1.531 . S
C655 C654 1.369 . S
C655 C656 1.413 . S
C655 C663 1.503 . S
C656 C655 1.413 . S
C656 C657 1.379 1_455 S
C656 C659 1.520 . S
C657 C653 1.376 . S
C657 C656 1.379 1_655 S
C657 H669 0.929 . S
C658 C654 1.531 . S
C658 H670 0.960 . S
C658 H671 0.962 . S
C658 H672 0.960 . S
C659 C656 1.520 . S
C659 H673 0.961 1_454 S
C659 H674 0.961 . S
C659 H675 0.961 . S
C660 C661 1.370 . S
C660 C662 1.363 . S
C660 H676 0.931 1_554 S
C661 C660 1.370 . S
C661 C665 1.408 . S
C662 C660 1.363 . S
C662 C663 1.370 . S
C662 C666 1.524 1_554 S
C663 C655 1.503 . S
C663 C662 1.370 . S
C663 C664 1.403 . S
C664 C663 1.403 . S
C664 C665 1.404 . S
C664 C667 1.539 . S
C665 C661 1.408 . S
C665 C664 1.404 . S
C665 H677 0.930 . S
C666 C662 1.524 1_556 S
C666 H678 0.956 . S
C666 H679 0.961 . S
C666 H680 0.961 . S
C667 C664 1.539 . S
C667 H681 0.958 . S
C667 H682 0.961 . S
C667 H683 0.960 . S
H668 C652 0.931 . S
H669 C657 0.929 . S
H670 C658 0.960 . S
H671 C658 0.962 . S
H672 C658 0.960 . S
H673 C659 0.961 1_656 S
H674 C659 0.961 . S
H675 C659 0.961 . S
H676 C660 0.931 1_556 S
H677 C665 0.930 . S
H678 C666 0.956 . S
H679 C666 0.961 . S
H680 C666 0.961 . S
H681 C667 0.958 . S
H682 C667 0.961 . S
H683 C667 0.960 . S
C684 C685 1.391 . S
C684 C686 1.394 . S
C684 H700 0.931 . S
C685 C684 1.391 . S
C685 C689 1.376 . S
C686 C684 1.394 . S
C686 C687 1.369 . S
C686 C690 1.531 . S
C687 C686 1.369 . S
C687 C688 1.410 . S
C687 C695 1.503 . S
C688 C687 1.410 . S
C688 C689 1.392 . S
C688 C691 1.511 . S
C689 C685 1.376 . S
C689 C688 1.392 . S
C689 H701 0.929 . S
C690 C686 1.531 . S
C690 H702 0.960 1_554 S
C690 H703 0.962 . S
C690 H704 0.960 1_554 S
C691 C688 1.511 . S
C691 H705 0.961 . S
C691 H706 0.961 . S
C691 H707 0.961 . S
C692 C693 1.370 . S
C692 C694 1.363 1_565 S
C692 H708 0.931 . S
C693 C692 1.370 . S
C693 C697 1.408 1_554 S
C694 C692 1.363 1_545 S
C694 C695 1.370 . S
C694 C698 1.524 . S
C695 C687 1.503 . S
C695 C694 1.370 . S
C695 C696 1.403 1_554 S
C696 C695 1.403 1_556 S
C696 C697 1.404 1_545 S
C696 C699 1.539 . S
C697 C693 1.408 1_556 S
C697 C696 1.404 1_565 S
C697 H709 0.930 . S
C698 C694 1.524 . S
C698 H710 0.956 . S
C698 H711 0.961 . S
C698 H712 0.961 . S
C699 C696 1.539 . S
C699 H713 0.958 . S
C699 H714 0.961 . S
C699 H715 0.960 . S
H700 C684 0.931 . S
H701 C689 0.929 . S
H702 C690 0.960 1_556 S
H703 C690 0.962 . S
H704 C690 0.960 1_556 S
H705 C691 0.961 . S
H706 C691 0.961 . S
H707 C691 0.961 . S
H708 C692 0.931 . S
H709 C697 0.930 . S
H710 C698 0.956 . S
H711 C698 0.961 . S
H712 C698 0.961 . S
H713 C699 0.958 . S
H714 C699 0.961 . S
H715 C699 0.960 . S
C716 C717 1.391 . S
C716 C718 1.394 . S
C716 H732 0.931 1_554 S
C717 C716 1.391 . S
C717 C721 1.376 . S
C718 C716 1.394 . S
C718 C719 1.369 . S
C718 C722 1.531 1_554 S
C719 C718 1.369 . S
C719 C720 1.410 . S
C719 C727 1.503 . S
C720 C719 1.410 . S
C720 C721 1.392 . S
C720 C723 1.511 . S
C721 C717 1.376 . S
C721 C720 1.392 . S
C721 H733 0.929 . S
C722 C718 1.531 1_556 S
C722 H734 0.960 . S
C722 H735 0.962 . S
C722 H736 0.960 . S
C723 C720 1.511 . S
C723 H737 0.961 . S
C723 H738 0.961 . S
C723 H739 0.961 . S
C724 C725 1.370 . S
C724 C726 1.363 . S
C724 H740 0.931 . S
C725 C724 1.370 . S
C725 C729 1.408 . S
C726 C724 1.363 . S
C726 C727 1.370 . S
C726 C730 1.524 . S
C727 C719 1.503 . S
C727 C726 1.370 . S
C727 C728 1.403 . S
C728 C727 1.403 . S
C728 C729 1.404 . S
C728 C731 1.539 . S
C729 C725 1.408 . S
C729 C728 1.404 . S
C729 H741 0.930 . S
C730 C726 1.524 . S
C730 H742 0.956 . S
C730 H743 0.961 . S
C730 H744 0.961 . S
C731 C728 1.539 . S
C731 H745 0.958 . S
C731 H746 0.961 . S
C731 H747 0.960 . S
H732 C716 0.931 1_556 S
H733 C721 0.929 . S
H734 C722 0.960 . S
H735 C722 0.962 . S
H736 C722 0.960 . S
H737 C723 0.961 . S
H738 C723 0.961 . S
H739 C723 0.961 . S
H740 C724 0.931 . S
H741 C729 0.930 . S
H742 C730 0.956 . S
H743 C730 0.961 . S
H744 C730 0.961 . S
H745 C731 0.958 . S
H746 C731 0.961 . S
H747 C731 0.960 . S
C748 C749 1.391 . S
C748 C750 1.394 . S
C748 H764 0.931 . S
C749 C748 1.391 . S
C749 C753 1.376 . S
C750 C748 1.394 . S
C750 C751 1.369 . S
C750 C754 1.531 . S
C751 C750 1.369 . S
C751 C752 1.410 . S
C751 C759 1.503 . S
C752 C751 1.410 . S
C752 C753 1.392 . S
C752 C755 1.511 . S
C753 C749 1.376 . S
C753 C752 1.392 . S
C753 H765 0.929 . S
C754 C750 1.531 . S
C754 H766 0.960 . S
C754 H767 0.962 . S
C754 H768 0.960 . S
C755 C752 1.511 . S
C755 H769 0.961 . S
C755 H770 0.961 . S
C755 H771 0.961 . S
C756 C757 1.370 . S
C756 C758 1.363 1_455 S
C756 H772 0.931 . S
C757 C756 1.370 . S
C757 C761 1.408 1_554 S
C758 C756 1.363 1_655 S
C758 C759 1.370 . S
C758 C762 1.524 . S
C759 C751 1.503 . S
C759 C758 1.370 . S
C759 C760 1.403 1_554 S
C760 C759 1.403 1_556 S
C760 C761 1.404 1_655 S
C760 C763 1.539 . S
C761 C757 1.408 1_556 S
C761 C760 1.404 1_455 S
C761 H773 0.930 . S
C762 C758 1.524 . S
C762 H774 0.956 . S
C762 H775 0.961 . S
C762 H776 0.961 . S
C763 C760 1.539 . S
C763 H777 0.958 . S
C763 H778 0.961 . S
C763 H779 0.960 . S
H764 C748 0.931 . S
H765 C753 0.929 . S
H766 C754 0.960 . S
H767 C754 0.962 . S
H768 C754 0.960 . S
H769 C755 0.961 . S
H770 C755 0.961 . S
H771 C755 0.961 . S
H772 C756 0.931 . S
H773 C761 0.930 . S
H774 C762 0.956 . S
H775 C762 0.961 . S
H776 C762 0.961 . S
H777 C763 0.958 . S
H778 C763 0.961 . S
H779 C763 0.960 . S
C780 C781 1.391 . S
C780 C782 1.394 . S
C780 H796 0.931 . S
C781 C780 1.391 . S
C781 C785 1.376 . S
C782 C780 1.394 . S
C782 C783 1.369 . S
C782 C786 1.531 . S
C783 C782 1.369 . S
C783 C784 1.410 . S
C783 C791 1.503 . S
C784 C783 1.410 . S
C784 C785 1.392 . S
C784 C787 1.511 . S
C785 C781 1.376 . S
C785 C784 1.392 . S
C785 H797 0.929 . S
C786 C782 1.531 . S
C786 H798 0.960 . S
C786 H799 0.962 . S
C786 H800 0.960 . S
C787 C784 1.511 . S
C787 H801 0.961 . S
C787 H802 0.961 . S
C787 H803 0.961 . S
C788 C789 1.370 . S
C788 C790 1.363 1_655 S
C788 H804 0.931 . S
C789 C788 1.370 . S
C789 C793 1.408 . S
C790 C788 1.363 1_455 S
C790 C791 1.370 . S
C790 C794 1.524 . S
C791 C783 1.503 . S
C791 C790 1.370 . S
C791 C792 1.403 . S
C792 C791 1.403 . S
C792 C793 1.404 1_455 S
C792 C795 1.539 . S
C793 C789 1.408 . S
C793 C792 1.404 1_655 S
C793 H805 0.930 . S
C794 C790 1.524 . S
C794 H806 0.956 . S
C794 H807 0.961 . S
C794 H808 0.961 1_455 S
C795 C792 1.539 . S
C795 H809 0.958 . S
C795 H810 0.961 . S
C795 H811 0.960 . S
H796 C780 0.931 . S
H797 C785 0.929 . S
H798 C786 0.960 . S
H799 C786 0.962 . S
H800 C786 0.960 . S
H801 C787 0.961 . S
H802 C787 0.961 . S
H803 C787 0.961 . S
H804 C788 0.931 . S
H805 C793 0.930 . S
H806 C794 0.956 . S
H807 C794 0.961 . S
H808 C794 0.961 1_655 S
H809 C795 0.958 . S
H810 C795 0.961 . S
H811 C795 0.960 . S
C812 C813 1.391 . S
C812 C814 1.394 . S
C812 H828 0.931 . S
C813 C812 1.391 . S
C813 C817 1.376 . S
C814 C812 1.394 . S
C814 C815 1.369 . S
C814 C818 1.531 . S
C815 C814 1.369 . S
C815 C816 1.410 . S
C815 C823 1.503 . S
C816 C815 1.410 . S
C816 C817 1.392 . S
C816 C819 1.511 . S
C817 C813 1.376 . S
C817 C816 1.392 . S
C817 H829 0.929 . S
C818 C814 1.531 . S
C818 H830 0.960 . S
C818 H831 0.962 . S
C818 H832 0.960 . S
C819 C816 1.511 . S
C819 H833 0.961 . S
C819 H834 0.961 . S
C819 H835 0.961 . S
C820 C821 1.370 . S
C820 C822 1.363 1_565 S
C820 H836 0.931 . S
C821 C820 1.370 . S
C821 C825 1.408 . S
C822 C820 1.363 1_545 S
C822 C823 1.370 . S
C822 C826 1.524 . S
C823 C815 1.503 . S
C823 C822 1.370 . S
C823 C824 1.403 . S
C824 C823 1.403 . S
C824 C825 1.404 1_545 S
C824 C827 1.539 . S
C825 C821 1.408 . S
C825 C824 1.404 1_565 S
C825 H837 0.930 . S
C826 C822 1.524 . S
C826 H838 0.956 . S
C826 H839 0.961 . S
C826 H840 0.961 . S
C827 C824 1.539 . S
C827 H841 0.958 . S
C827 H842 0.961 1_545 S
C827 H843 0.960 . S
H828 C812 0.931 . S
H829 C817 0.929 . S
H830 C818 0.960 . S
H831 C818 0.962 . S
H832 C818 0.960 . S
H833 C819 0.961 . S
H834 C819 0.961 . S
H835 C819 0.961 . S
H836 C820 0.931 . S
H837 C825 0.930 . S
H838 C826 0.956 . S
H839 C826 0.961 . S
H840 C826 0.961 . S
H841 C827 0.958 . S
H842 C827 0.961 1_565 S
H843 C827 0.960 . S
C844 C845 1.391 . S
C844 C846 1.394 . S
C844 H860 0.931 . S
C845 C844 1.391 . S
C845 C849 1.376 . S
C846 C844 1.394 . S
C846 C847 1.369 . S
C846 C850 1.531 . S
C847 C846 1.369 . S
C847 C848 1.410 . S
C847 C855 1.503 . S
C848 C847 1.410 . S
C848 C849 1.392 . S
C848 C851 1.511 . S
C849 C845 1.376 . S
C849 C848 1.392 . S
C849 H861 0.929 . S
C850 C846 1.531 . S
C850 H862 0.960 . S
C850 H863 0.962 . S
C850 H864 0.960 . S
C851 C848 1.511 . S
C851 H865 0.961 . S
C851 H866 0.961 . S
C851 H867 0.961 . S
C852 C853 1.370 . S
C852 C854 1.363 . S
C852 H868 0.931 . S
C853 C852 1.370 . S
C853 C857 1.408 . S
C854 C852 1.363 . S
C854 C855 1.370 . S
C854 C858 1.524 . S
C855 C847 1.503 . S
C855 C854 1.370 . S
C855 C856 1.403 . S
C856 C855 1.403 . S
C856 C857 1.404 . S
C856 C859 1.539 . S
C857 C853 1.408 . S
C857 C856 1.404 . S
C857 H869 0.930 . S
C858 C854 1.524 . S
C858 H870 0.956 . S
C858 H871 0.961 . S
C858 H872 0.961 . S
C859 C856 1.539 . S
C859 H873 0.958 . S
C859 H874 0.961 . S
C859 H875 0.960 . S
H860 C844 0.931 . S
H861 C849 0.929 . S
H862 C850 0.960 . S
H863 C850 0.962 . S
H864 C850 0.960 . S
H865 C851 0.961 . S
H866 C851 0.961 . S
H867 C851 0.961 . S
H868 C852 0.931 . S
H869 C857 0.930 . S
H870 C858 0.956 . S
H871 C858 0.961 . S
H872 C858 0.961 . S
H873 C859 0.958 . S
H874 C859 0.961 . S
H875 C859 0.960 . S
C876 C877 1.391 . S
C876 C878 1.400 . S
C876 H892 0.931 . S
C877 C876 1.391 . S
C877 C881 1.376 . S
C878 C876 1.400 . S
C878 C879 1.360 1_455 S
C878 C882 1.533 1_455 S
C879 C878 1.360 1_655 S
C879 C880 1.410 . S
C879 C887 1.503 . S
C880 C879 1.410 . S
C880 C881 1.392 1_655 S
C880 C883 1.511 . S
C881 C877 1.376 . S
C881 C880 1.392 1_455 S
C881 H893 0.929 . S
C882 C878 1.533 1_655 S
C882 H894 0.960 . S
C882 H895 0.962 . S
C882 H896 0.960 1_655 S
C883 C880 1.511 . S
C883 H897 0.961 . S
C883 H898 0.961 . S
C883 H899 0.961 . S
C884 C885 1.370 . S
C884 C886 1.363 . S
C884 H900 0.931 . S
C885 C884 1.370 . S
C885 C889 1.408 . S
C886 C884 1.363 . S
C886 C887 1.370 . S
C886 C890 1.524 . S
C887 C879 1.503 . S
C887 C886 1.370 . S
C887 C888 1.403 . S
C888 C887 1.403 . S
C888 C889 1.404 . S
C888 C891 1.539 . S
C889 C885 1.408 . S
C889 C888 1.404 . S
C889 H901 0.930 . S
C890 C886 1.524 . S
C890 H902 0.956 . S
C890 H903 0.961 . S
C890 H904 0.961 . S
C891 C888 1.539 . S
C891 H905 0.958 . S
C891 H906 0.961 . S
C891 H907 0.960 . S
H892 C876 0.931 . S
H893 C881 0.929 . S
H894 C882 0.960 . S
H895 C882 0.962 . S
H896 C882 0.960 1_455 S
H897 C883 0.961 . S
H898 C883 0.961 . S
H899 C883 0.961 . S
H900 C884 0.931 . S
H901 C889 0.930 . S
H902 C890 0.956 . S
H903 C890 0.961 . S
H904 C890 0.961 . S
H905 C891 0.958 . S
H906 C891 0.961 . S
H907 C891 0.960 . S
C908 C909 1.391 . S
C908 C910 1.394 1_545 S
C908 H924 0.931 . S
C909 C908 1.391 . S
C909 C913 1.376 . S
C910 C908 1.394 1_565 S
C910 C911 1.369 . S
C910 C914 1.531 . S
C911 C910 1.369 . S
C911 C912 1.410 . S
C911 C919 1.503 . S
C912 C911 1.410 . S
C912 C913 1.392 1_565 S
C912 C915 1.511 . S
C913 C909 1.376 . S
C913 C912 1.392 1_545 S
C913 H925 0.929 . S
C914 C910 1.531 . S
C914 H926 0.960 . S
C914 H927 0.962 . S
C914 H928 0.960 1_565 S
C915 C912 1.511 . S
C915 H929 0.961 . S
C915 H930 0.961 . S
C915 H931 0.961 . S
C916 C917 1.370 . S
C916 C918 1.363 . S
C916 H932 0.931 . S
C917 C916 1.370 . S
C917 C921 1.408 . S
C918 C916 1.363 . S
C918 C919 1.370 . S
C918 C922 1.524 . S
C919 C911 1.503 . S
C919 C918 1.370 . S
C919 C920 1.403 . S
C920 C919 1.403 . S
C920 C921 1.404 . S
C920 C923 1.539 . S
C921 C917 1.408 . S
C921 C920 1.404 . S
C921 H933 0.930 . S
C922 C918 1.524 . S
C922 H934 0.956 . S
C922 H935 0.961 . S
C922 H936 0.961 . S
C923 C920 1.539 . S
C923 H937 0.958 . S
C923 H938 0.961 . S
C923 H939 0.960 . S
H924 C908 0.931 . S
H925 C913 0.929 . S
H926 C914 0.960 . S
H927 C914 0.962 . S
H928 C914 0.960 1_545 S
H929 C915 0.961 . S
H930 C915 0.961 . S
H931 C915 0.961 . S
H932 C916 0.931 . S
H933 C921 0.930 . S
H934 C922 0.956 . S
H935 C922 0.961 . S
H936 C922 0.961 . S
H937 C923 0.958 . S
H938 C923 0.961 . S
H939 C923 0.960 . S
C940 C941 1.391 . S
C940 C942 1.394 . S
C940 H956 0.931 . S
C941 C940 1.391 . S
C941 C945 1.376 . S
C942 C940 1.394 . S
C942 C943 1.369 . S
C942 C946 1.531 . S
C943 C942 1.369 . S
C943 C944 1.410 . S
C943 C951 1.503 . S
C944 C943 1.410 . S
C944 C945 1.392 . S
C944 C947 1.511 . S
C945 C941 1.376 . S
C945 C944 1.392 . S
C945 H957 0.929 . S
C946 C942 1.531 . S
C946 H958 0.960 . S
C946 H959 0.962 . S
C946 H960 0.960 . S
C947 C944 1.511 . S
C947 H961 0.961 . S
C947 H962 0.961 . S
C947 H963 0.961 . S
C948 C949 1.370 . S
C948 C950 1.363 . S
C948 H964 0.931 . S
C949 C948 1.370 . S
C949 C953 1.408 . S
C950 C948 1.363 . S
C950 C951 1.370 . S
C950 C954 1.524 . S
C951 C943 1.503 . S
C951 C950 1.370 . S
C951 C952 1.403 . S
C952 C951 1.403 . S
C952 C953 1.404 . S
C952 C955 1.539 . S
C953 C949 1.408 . S
C953 C952 1.404 . S
C953 H965 0.930 . S
C954 C950 1.524 . S
C954 H966 0.956 . S
C954 H967 0.961 . S
C954 H968 0.961 . S
C955 C952 1.539 . S
C955 H969 0.958 . S
C955 H970 0.961 . S
C955 H971 0.960 . S
H956 C940 0.931 . S
H957 C945 0.929 . S
H958 C946 0.960 . S
H959 C946 0.962 . S
H960 C946 0.960 . S
H961 C947 0.961 . S
H962 C947 0.961 . S
H963 C947 0.961 . S
H964 C948 0.931 . S
H965 C953 0.930 . S
H966 C954 0.956 . S
H967 C954 0.961 . S
H968 C954 0.961 . S
H969 C955 0.958 . S
H970 C955 0.961 . S
H971 C955 0.960 . S
C972 C973 1.391 . S
C972 C974 1.394 . S
C972 H988 0.931 . S
C973 C972 1.391 . S
C973 C977 1.376 . S
C974 C972 1.394 . S
C974 C975 1.369 . S
C974 C978 1.531 . S
C975 C974 1.369 . S
C975 C976 1.410 . S
C975 C983 1.503 . S
C976 C975 1.410 . S
C976 C977 1.392 . S
C976 C979 1.511 . S
C977 C973 1.376 . S
C977 C976 1.392 . S
C977 H989 0.929 . S
C978 C974 1.531 . S
C978 H990 0.960 . S
C978 H991 0.962 . S
C978 H992 0.960 . S
C979 C976 1.511 . S
C979 H993 0.961 . S
C979 H994 0.961 . S
C979 H995 0.961 . S
C980 C981 1.370 . S
C980 C982 1.363 . S
C980 H996 0.931 . S
C981 C980 1.370 . S
C981 C985 1.408 . S
C982 C980 1.363 . S
C982 C983 1.370 . S
C982 C986 1.524 . S
C983 C975 1.503 . S
C983 C982 1.370 . S
C983 C984 1.403 . S
C984 C983 1.403 . S
C984 C985 1.404 . S
C984 C987 1.539 . S
C985 C981 1.408 . S
C985 C984 1.404 . S
C985 H997 0.930 . S
C986 C982 1.524 . S
C986 H998 0.956 . S
C986 H999 0.961 . S
C986 H1000 0.961 . S
C987 C984 1.539 . S
C987 H1001 0.958 . S
C987 H1002 0.961 . S
C987 H1003 0.960 . S
H988 C972 0.931 . S
H989 C977 0.929 . S
H990 C978 0.960 . S
H991 C978 0.962 . S
H992 C978 0.960 . S
H993 C979 0.961 . S
H994 C979 0.961 . S
H995 C979 0.961 . S
H996 C980 0.931 . S
H997 C985 0.930 . S
H998 C986 0.956 . S
H999 C986 0.961 . S
H1000 C986 0.961 . S
H1001 C987 0.958 . S
H1002 C987 0.961 . S
H1003 C987 0.960 . S
C1004 C1005 1.391 . S
C1004 C1006 1.394 . S
C1004 H1020 0.931 . S
C1005 C1004 1.391 . S
C1005 C1009 1.376 . S
C1006 C1004 1.394 . S
C1006 C1007 1.369 . S
C1006 C1010 1.531 . S
C1007 C1006 1.369 . S
C1007 C1008 1.410 . S
C1007 C1015 1.503 . S
C1008 C1007 1.410 . S
C1008 C1009 1.392 . S
C1008 C1011 1.511 . S
C1009 C1005 1.376 . S
C1009 C1008 1.392 . S
C1009 H1021 0.929 . S
C1010 C1006 1.531 . S
C1010 H1022 0.960 . S
C1010 H1023 0.962 . S
C1010 H1024 0.960 . S
C1011 C1008 1.511 . S
C1011 H1025 0.961 . S
C1011 H1026 0.961 . S
C1011 H1027 0.961 . S
C1012 C1013 1.370 . S
C1012 C1014 1.363 . S
C1012 H1028 0.931 . S
C1013 C1012 1.370 . S
C1013 C1017 1.408 . S
C1014 C1012 1.363 . S
C1014 C1015 1.370 . S
C1014 C1018 1.524 . S
C1015 C1007 1.503 . S
C1015 C1014 1.370 . S
C1015 C1016 1.403 . S
C1016 C1015 1.403 . S
C1016 C1017 1.404 . S
C1016 C1019 1.539 . S
C1017 C1013 1.408 . S
C1017 C1016 1.404 . S
C1017 H1029 0.930 . S
C1018 C1014 1.524 . S
C1018 H1030 0.956 . S
C1018 H1031 0.961 . S
C1018 H1032 0.961 . S
C1019 C1016 1.539 . S
C1019 H1033 0.958 . S
C1019 H1034 0.961 . S
C1019 H1035 0.960 . S
H1020 C1004 0.931 . S
H1021 C1009 0.929 . S
H1022 C1010 0.960 . S
H1023 C1010 0.962 . S
H1024 C1010 0.960 . S
H1025 C1011 0.961 . S
H1026 C1011 0.961 . S
H1027 C1011 0.961 . S
H1028 C1012 0.931 . S
H1029 C1017 0.930 . S
H1030 C1018 0.956 . S
H1031 C1018 0.961 . S
H1032 C1018 0.961 . S
H1033 C1019 0.958 . S
H1034 C1019 0.961 . S
H1035 C1019 0.960 . S
C1036 C1037 1.391 . S
C1036 C1038 1.394 . S
C1036 H1052 0.931 . S
C1037 C1036 1.391 . S
C1037 C1041 1.376 . S
C1038 C1036 1.394 . S
C1038 C1039 1.369 . S
C1038 C1042 1.531 . S
C1039 C1038 1.369 . S
C1039 C1040 1.410 . S
C1039 C1047 1.503 . S
C1040 C1039 1.410 . S
C1040 C1041 1.392 . S
C1040 C1043 1.511 . S
C1041 C1037 1.376 . S
C1041 C1040 1.392 . S
C1041 H1053 0.929 . S
C1042 C1038 1.531 . S
C1042 H1054 0.960 . S
C1042 H1055 0.962 . S
C1042 H1056 0.960 . S
C1043 C1040 1.511 . S
C1043 H1057 0.961 . S
C1043 H1058 0.961 . S
C1043 H1059 0.961 . S
C1044 C1045 1.370 . S
C1044 C1046 1.363 . S
C1044 H1060 0.931 . S
C1045 C1044 1.370 . S
C1045 C1049 1.408 . S
C1046 C1044 1.363 . S
C1046 C1047 1.370 . S
C1046 C1050 1.524 . S
C1047 C1039 1.503 . S
C1047 C1046 1.370 . S
C1047 C1048 1.403 . S
C1048 C1047 1.403 . S
C1048 C1049 1.404 . S
C1048 C1051 1.539 . S
C1049 C1045 1.408 . S
C1049 C1048 1.404 . S
C1049 H1061 0.930 . S
C1050 C1046 1.524 . S
C1050 H1062 0.956 . S
C1050 H1063 0.961 . S
C1050 H1064 0.961 . S
C1051 C1048 1.539 . S
C1051 H1065 0.958 . S
C1051 H1066 0.961 . S
C1051 H1067 0.960 . S
H1052 C1036 0.931 . S
H1053 C1041 0.929 . S
H1054 C1042 0.960 . S
H1055 C1042 0.962 . S
H1056 C1042 0.960 . S
H1057 C1043 0.961 . S
H1058 C1043 0.961 . S
H1059 C1043 0.961 . S
H1060 C1044 0.931 . S
H1061 C1049 0.930 . S
H1062 C1050 0.956 . S
H1063 C1050 0.961 . S
H1064 C1050 0.961 . S
H1065 C1051 0.958 . S
H1066 C1051 0.961 . S
H1067 C1051 0.960 . S
C1068 C1069 1.391 . S
C1068 C1070 1.394 . S
C1068 H1084 0.931 . S
C1069 C1068 1.391 . S
C1069 C1073 1.376 . S
C1070 C1068 1.394 . S
C1070 C1071 1.369 . S
C1070 C1074 1.531 . S
C1071 C1070 1.369 . S
C1071 C1072 1.410 . S
C1071 C1079 1.503 . S
C1072 C1071 1.410 . S
C1072 C1073 1.392 . S
C1072 C1075 1.511 . S
C1073 C1069 1.376 . S
C1073 C1072 1.392 . S
C1073 H1085 0.929 . S
C1074 C1070 1.531 . S
C1074 H1086 0.960 . S
C1074 H1087 0.962 . S
C1074 H1088 0.960 . S
C1075 C1072 1.511 . S
C1075 H1089 0.961 . S
C1075 H1090 0.961 . S
C1075 H1091 0.961 . S
C1076 C1077 1.370 . S
C1076 C1078 1.363 . S
C1076 H1092 0.931 . S
C1077 C1076 1.370 . S
C1077 C1081 1.408 . S
C1078 C1076 1.363 . S
C1078 C1079 1.370 . S
C1078 C1082 1.524 . S
C1079 C1071 1.503 . S
C1079 C1078 1.370 . S
C1079 C1080 1.403 . S
C1080 C1079 1.403 . S
C1080 C1081 1.404 . S
C1080 C1083 1.539 . S
C1081 C1077 1.408 . S
C1081 C1080 1.404 . S
C1081 H1093 0.930 . S
C1082 C1078 1.524 . S
C1082 H1094 0.956 . S
C1082 H1095 0.961 . S
C1082 H1096 0.961 . S
C1083 C1080 1.539 . S
C1083 H1097 0.958 . S
C1083 H1098 0.961 . S
C1083 H1099 0.960 . S
H1084 C1068 0.931 . S
H1085 C1073 0.929 . S
H1086 C1074 0.960 . S
H1087 C1074 0.962 . S
H1088 C1074 0.960 . S
H1089 C1075 0.961 . S
H1090 C1075 0.961 . S
H1091 C1075 0.961 . S
H1092 C1076 0.931 . S
H1093 C1081 0.930 . S
H1094 C1082 0.956 . S
H1095 C1082 0.961 . S
H1096 C1082 0.961 . S
H1097 C1083 0.958 . S
H1098 C1083 0.961 . S
H1099 C1083 0.960 . S
C1100 C1101 1.391 . S
C1100 C1102 1.394 . S
C1100 H1116 0.931 . S
C1101 C1100 1.391 . S
C1101 C1105 1.376 . S
C1102 C1100 1.394 . S
C1102 C1103 1.369 . S
C1102 C1106 1.531 . S
C1103 C1102 1.369 . S
C1103 C1104 1.410 . S
C1103 C1111 1.503 . S
C1104 C1103 1.410 . S
C1104 C1105 1.392 . S
C1104 C1107 1.511 . S
C1105 C1101 1.376 . S
C1105 C1104 1.392 . S
C1105 H1117 0.929 . S
C1106 C1102 1.531 . S
C1106 H1118 0.960 . S
C1106 H1119 0.962 . S
C1106 H1120 0.960 . S
C1107 C1104 1.511 . S
C1107 H1121 0.961 . S
C1107 H1122 0.961 . S
C1107 H1123 0.961 . S
C1108 C1109 1.370 . S
C1108 C1110 1.363 . S
C1108 H1124 0.931 . S
C1109 C1108 1.370 . S
C1109 C1113 1.408 . S
C1110 C1108 1.363 . S
C1110 C1111 1.370 . S
C1110 C1114 1.524 . S
C1111 C1103 1.503 . S
C1111 C1110 1.370 . S
C1111 C1112 1.403 . S
C1112 C1111 1.403 . S
C1112 C1113 1.404 . S
C1112 C1115 1.539 . S
C1113 C1109 1.408 . S
C1113 C1112 1.404 . S
C1113 H1125 0.930 . S
C1114 C1110 1.524 . S
C1114 H1126 0.956 . S
C1114 H1127 0.961 . S
C1114 H1128 0.961 . S
C1115 C1112 1.539 . S
C1115 H1129 0.958 . S
C1115 H1130 0.961 . S
C1115 H1131 0.960 . S
H1116 C1100 0.931 . S
H1117 C1105 0.929 . S
H1118 C1106 0.960 . S
H1119 C1106 0.962 . S
H1120 C1106 0.960 . S
H1121 C1107 0.961 . S
H1122 C1107 0.961 . S
H1123 C1107 0.961 . S
H1124 C1108 0.931 . S
H1125 C1113 0.930 . S
H1126 C1114 0.956 . S
H1127 C1114 0.961 . S
H1128 C1114 0.961 . S
H1129 C1115 0.958 . S
H1130 C1115 0.961 . S
H1131 C1115 0.960 . S
C1132 C1133 1.391 . S
C1132 C1134 1.394 . S
C1132 H1148 0.931 . S
C1133 C1132 1.391 . S
C1133 C1137 1.376 . S
C1134 C1132 1.394 . S
C1134 C1135 1.369 . S
C1134 C1138 1.531 . S
C1135 C1134 1.369 . S
C1135 C1136 1.410 . S
C1135 C1143 1.503 . S
C1136 C1135 1.410 . S
C1136 C1137 1.392 . S
C1136 C1139 1.511 . S
C1137 C1133 1.376 . S
C1137 C1136 1.392 . S
C1137 H1149 0.929 . S
C1138 C1134 1.531 . S
C1138 H1150 0.960 . S
C1138 H1151 0.962 . S
C1138 H1152 0.960 . S
C1139 C1136 1.511 . S
C1139 H1153 0.961 . S
C1139 H1154 0.961 . S
C1139 H1155 0.961 . S
C1140 C1141 1.370 . S
C1140 C1142 1.363 . S
C1140 H1156 0.931 . S
C1141 C1140 1.370 . S
C1141 C1145 1.408 . S
C1142 C1140 1.363 . S
C1142 C1143 1.370 . S
C1142 C1146 1.524 . S
C1143 C1135 1.503 . S
C1143 C1142 1.370 . S
C1143 C1144 1.403 . S
C1144 C1143 1.403 . S
C1144 C1145 1.404 . S
C1144 C1147 1.539 . S
C1145 C1141 1.408 . S
C1145 C1144 1.404 . S
C1145 H1157 0.930 . S
C1146 C1142 1.524 . S
C1146 H1158 0.956 . S
C1146 H1159 0.961 . S
C1146 H1160 0.961 . S
C1147 C1144 1.539 . S
C1147 H1161 0.958 . S
C1147 H1162 0.961 . S
C1147 H1163 0.960 . S
H1148 C1132 0.931 . S
H1149 C1137 0.929 . S
H1150 C1138 0.960 . S
H1151 C1138 0.962 . S
H1152 C1138 0.960 . S
H1153 C1139 0.961 . S
H1154 C1139 0.961 . S
H1155 C1139 0.961 . S
H1156 C1140 0.931 . S
H1157 C1145 0.930 . S
H1158 C1146 0.956 . S
H1159 C1146 0.961 . S
H1160 C1146 0.961 . S
H1161 C1147 0.958 . S
H1162 C1147 0.961 . S
H1163 C1147 0.960 . S
C1164 C1165 1.391 . S
C1164 C1166 1.394 . S
C1164 H1180 0.931 . S
C1165 C1164 1.391 . S
C1165 C1169 1.376 . S
C1166 C1164 1.394 . S
C1166 C1167 1.369 . S
C1166 C1170 1.531 . S
C1167 C1166 1.369 . S
C1167 C1168 1.410 . S
C1167 C1175 1.503 . S
C1168 C1167 1.410 . S
C1168 C1169 1.392 . S
C1168 C1171 1.511 . S
C1169 C1165 1.376 . S
C1169 C1168 1.392 . S
C1169 H1181 0.929 . S
C1170 C1166 1.531 . S
C1170 H1182 0.960 . S
C1170 H1183 0.962 . S
C1170 H1184 0.960 . S
C1171 C1168 1.511 . S
C1171 H1185 0.961 . S
C1171 H1186 0.961 . S
C1171 H1187 0.961 . S
C1172 C1173 1.370 . S
C1172 C1174 1.363 . S
C1172 H1188 0.931 . S
C1173 C1172 1.370 . S
C1173 C1177 1.408 . S
C1174 C1172 1.363 . S
C1174 C1175 1.370 . S
C1174 C1178 1.524 . S
C1175 C1167 1.503 . S
C1175 C1174 1.370 . S
C1175 C1176 1.403 . S
C1176 C1175 1.403 . S
C1176 C1177 1.404 . S
C1176 C1179 1.539 . S
C1177 C1173 1.408 . S
C1177 C1176 1.404 . S
C1177 H1189 0.930 . S
C1178 C1174 1.524 . S
C1178 H1190 0.956 . S
C1178 H1191 0.961 . S
C1178 H1192 0.961 . S
C1179 C1176 1.539 . S
C1179 H1193 0.958 . S
C1179 H1194 0.961 . S
C1179 H1195 0.960 . S
H1180 C1164 0.931 . S
H1181 C1169 0.929 . S
H1182 C1170 0.960 . S
H1183 C1170 0.962 . S
H1184 C1170 0.960 . S
H1185 C1171 0.961 . S
H1186 C1171 0.961 . S
H1187 C1171 0.961 . S
H1188 C1172 0.931 . S
H1189 C1177 0.930 . S
H1190 C1178 0.956 . S
H1191 C1178 0.961 . S
H1192 C1178 0.961 . S
H1193 C1179 0.958 . S
H1194 C1179 0.961 . S
H1195 C1179 0.960 . S
C1196 C1197 1.391 . S
C1196 C1198 1.394 . S
C1196 H1212 0.931 . S
C1197 C1196 1.391 . S
C1197 C1201 1.376 . S
C1198 C1196 1.394 . S
C1198 C1199 1.369 . S
C1198 C1202 1.531 . S
C1199 C1198 1.369 . S
C1199 C1200 1.410 . S
C1199 C1207 1.503 . S
C1200 C1199 1.410 . S
C1200 C1201 1.392 . S
C1200 C1203 1.511 . S
C1201 C1197 1.376 . S
C1201 C1200 1.392 . S
C1201 H1213 0.929 . S
C1202 C1198 1.531 . S
C1202 H1214 0.960 . S
C1202 H1215 0.962 . S
C1202 H1216 0.960 . S
C1203 C1200 1.511 . S
C1203 H1217 0.961 . S
C1203 H1218 0.961 . S
C1203 H1219 0.961 . S
C1204 C1205 1.370 . S
C1204 C1206 1.363 . S
C1204 H1220 0.931 . S
C1205 C1204 1.370 . S
C1205 C1209 1.408 . S
C1206 C1204 1.363 . S
C1206 C1207 1.370 . S
C1206 C1210 1.524 . S
C1207 C1199 1.503 . S
C1207 C1206 1.370 . S
C1207 C1208 1.403 . S
C1208 C1207 1.403 . S
C1208 C1209 1.404 . S
C1208 C1211 1.539 . S
C1209 C1205 1.408 . S
C1209 C1208 1.404 . S
C1209 H1221 0.930 . S
C1210 C1206 1.524 . S
C1210 H1222 0.956 . S
C1210 H1223 0.961 . S
C1210 H1224 0.961 . S
C1211 C1208 1.539 . S
C1211 H1225 0.958 . S
C1211 H1226 0.961 . S
C1211 H1227 0.960 . S
H1212 C1196 0.931 . S
H1213 C1201 0.929 . S
H1214 C1202 0.960 . S
H1215 C1202 0.962 . S
H1216 C1202 0.960 . S
H1217 C1203 0.961 . S
H1218 C1203 0.961 . S
H1219 C1203 0.961 . S
H1220 C1204 0.931 . S
H1221 C1209 0.930 . S
H1222 C1210 0.956 . S
H1223 C1210 0.961 . S
H1224 C1210 0.961 . S
H1225 C1211 0.958 . S
H1226 C1211 0.961 . S
H1227 C1211 0.960 . S
C1228 C1229 1.391 . S
C1228 C1230 1.394 . S
C1228 H1244 0.931 . S
C1229 C1228 1.391 . S
C1229 C1233 1.376 . S
C1230 C1228 1.394 . S
C1230 C1231 1.369 . S
C1230 C1234 1.531 . S
C1231 C1230 1.369 . S
C1231 C1232 1.410 . S
C1231 C1239 1.503 . S
C1232 C1231 1.410 . S
C1232 C1233 1.392 . S
C1232 C1235 1.511 . S
C1233 C1229 1.376 . S
C1233 C1232 1.392 . S
C1233 H1245 0.929 . S
C1234 C1230 1.531 . S
C1234 H1246 0.960 . S
C1234 H1247 0.962 . S
C1234 H1248 0.960 . S
C1235 C1232 1.511 . S
C1235 H1249 0.961 . S
C1235 H1250 0.961 . S
C1235 H1251 0.961 . S
C1236 C1237 1.370 . S
C1236 C1238 1.363 . S
C1236 H1252 0.931 . S
C1237 C1236 1.370 . S
C1237 C1241 1.408 . S
C1238 C1236 1.363 . S
C1238 C1239 1.370 . S
C1238 C1242 1.524 . S
C1239 C1231 1.503 . S
C1239 C1238 1.370 . S
C1239 C1240 1.403 . S
C1240 C1239 1.403 . S
C1240 C1241 1.404 . S
C1240 C1243 1.539 . S
C1241 C1237 1.408 . S
C1241 C1240 1.404 . S
C1241 H1253 0.930 . S
C1242 C1238 1.524 . S
C1242 H1254 0.956 . S
C1242 H1255 0.961 . S
C1242 H1256 0.961 . S
C1243 C1240 1.539 . S
C1243 H1257 0.958 . S
C1243 H1258 0.961 . S
C1243 H1259 0.960 . S
H1244 C1228 0.931 . S
H1245 C1233 0.929 . S
H1246 C1234 0.960 . S
H1247 C1234 0.962 . S
H1248 C1234 0.960 . S
H1249 C1235 0.961 . S
H1250 C1235 0.961 . S
H1251 C1235 0.961 . S
H1252 C1236 0.931 . S
H1253 C1241 0.930 . S
H1254 C1242 0.956 . S
H1255 C1242 0.961 . S
H1256 C1242 0.961 . S
H1257 C1243 0.958 . S
H1258 C1243 0.961 . S
H1259 C1243 0.960 . S
C1260 C1261 1.391 . S
C1260 C1262 1.394 . S
C1260 H1276 0.931 . S
C1261 C1260 1.391 . S
C1261 C1265 1.376 . S
C1262 C1260 1.394 . S
C1262 C1263 1.369 . S
C1262 C1266 1.531 . S
C1263 C1262 1.369 . S
C1263 C1264 1.410 . S
C1263 C1271 1.503 . S
C1264 C1263 1.410 . S
C1264 C1265 1.392 . S
C1264 C1267 1.511 . S
C1265 C1261 1.376 . S
C1265 C1264 1.392 . S
C1265 H1277 0.929 . S
C1266 C1262 1.531 . S
C1266 H1278 0.960 . S
C1266 H1279 0.962 . S
C1266 H1280 0.960 . S
C1267 C1264 1.511 . S
C1267 H1281 0.961 . S
C1267 H1282 0.961 . S
C1267 H1283 0.961 . S
C1268 C1269 1.370 . S
C1268 C1270 1.363 . S
C1268 H1284 0.931 . S
C1269 C1268 1.370 . S
C1269 C1273 1.408 . S
C1270 C1268 1.363 . S
C1270 C1271 1.370 . S
C1270 C1274 1.524 . S
C1271 C1263 1.503 . S
C1271 C1270 1.370 . S
C1271 C1272 1.403 . S
C1272 C1271 1.403 . S
C1272 C1273 1.404 . S
C1272 C1275 1.539 . S
C1273 C1269 1.408 . S
C1273 C1272 1.404 . S
C1273 H1285 0.930 . S
C1274 C1270 1.524 . S
C1274 H1286 0.956 . S
C1274 H1287 0.961 . S
C1274 H1288 0.961 . S
C1275 C1272 1.539 . S
C1275 H1289 0.958 . S
C1275 H1290 0.961 . S
C1275 H1291 0.960 . S
H1276 C1260 0.931 . S
H1277 C1265 0.929 . S
H1278 C1266 0.960 . S
H1279 C1266 0.962 . S
H1280 C1266 0.960 . S
H1281 C1267 0.961 . S
H1282 C1267 0.961 . S
H1283 C1267 0.961 . S
H1284 C1268 0.931 . S
H1285 C1273 0.930 . S
H1286 C1274 0.956 . S
H1287 C1274 0.961 . S
H1288 C1274 0.961 . S
H1289 C1275 0.958 . S
H1290 C1275 0.961 . S
H1291 C1275 0.960 . S
C1292 C1293 1.391 . S
C1292 C1294 1.394 . S
C1292 H1308 0.931 . S
C1293 C1292 1.391 . S
C1293 C1297 1.376 . S
C1294 C1292 1.394 . S
C1294 C1295 1.369 . S
C1294 C1298 1.531 . S
C1295 C1294 1.369 . S
C1295 C1296 1.410 . S
C1295 C1303 1.503 . S
C1296 C1295 1.410 . S
C1296 C1297 1.392 . S
C1296 C1299 1.511 . S
C1297 C1293 1.376 . S
C1297 C1296 1.392 . S
C1297 H1309 0.929 . S
C1298 C1294 1.531 . S
C1298 H1310 0.960 . S
C1298 H1311 0.962 . S
C1298 H1312 0.960 . S
C1299 C1296 1.511 . S
C1299 H1313 0.961 . S
C1299 H1314 0.961 . S
C1299 H1315 0.961 . S
C1300 C1301 1.370 . S
C1300 C1302 1.363 . S
C1300 H1316 0.931 . S
C1301 C1300 1.370 . S
C1301 C1305 1.408 . S
C1302 C1300 1.363 . S
C1302 C1303 1.370 . S
C1302 C1306 1.524 . S
C1303 C1295 1.503 . S
C1303 C1302 1.370 . S
C1303 C1304 1.403 . S
C1304 C1303 1.403 . S
C1304 C1305 1.404 . S
C1304 C1307 1.539 . S
C1305 C1301 1.408 . S
C1305 C1304 1.404 . S
C1305 H1317 0.930 . S
C1306 C1302 1.524 . S
C1306 H1318 0.956 . S
C1306 H1319 0.961 . S
C1306 H1320 0.961 . S
C1307 C1304 1.539 . S
C1307 H1321 0.958 . S
C1307 H1322 0.961 . S
C1307 H1323 0.960 . S
H1308 C1292 0.931 . S
H1309 C1297 0.929 . S
H1310 C1298 0.960 . S
H1311 C1298 0.962 . S
H1312 C1298 0.960 . S
H1313 C1299 0.961 . S
H1314 C1299 0.961 . S
H1315 C1299 0.961 . S
H1316 C1300 0.931 . S
H1317 C1305 0.930 . S
H1318 C1306 0.956 . S
H1319 C1306 0.961 . S
H1320 C1306 0.961 . S
H1321 C1307 0.958 . S
H1322 C1307 0.961 . S
H1323 C1307 0.960 . S
C1324 C1325 1.391 . S
C1324 C1326 1.394 . S
C1324 H1340 0.931 . S
C1325 C1324 1.391 . S
C1325 C1329 1.376 . S
C1326 C1324 1.394 . S
C1326 C1327 1.369 . S
C1326 C1330 1.531 . S
C1327 C1326 1.369 . S
C1327 C1328 1.410 . S
C1327 C1335 1.503 . S
C1328 C1327 1.410 . S
C1328 C1329 1.392 . S
C1328 C1331 1.511 . S
C1329 C1325 1.376 . S
C1329 C1328 1.392 . S
C1329 H1341 0.929 . S
C1330 C1326 1.531 . S
C1330 H1342 0.960 . S
C1330 H1343 0.962 . S
C1330 H1344 0.960 . S
C1331 C1328 1.511 . S
C1331 H1345 0.961 . S
C1331 H1346 0.961 . S
C1331 H1347 0.961 . S
C1332 C1333 1.370 . S
C1332 C1334 1.363 . S
C1332 H1348 0.931 . S
C1333 C1332 1.370 . S
C1333 C1337 1.408 . S
C1334 C1332 1.363 . S
C1334 C1335 1.370 . S
C1334 C1338 1.524 . S
C1335 C1327 1.503 . S
C1335 C1334 1.370 . S
C1335 C1336 1.403 . S
C1336 C1335 1.403 . S
C1336 C1337 1.404 . S
C1336 C1339 1.539 . S
C1337 C1333 1.408 . S
C1337 C1336 1.404 . S
C1337 H1349 0.930 . S
C1338 C1334 1.524 . S
C1338 H1350 0.956 . S
C1338 H1351 0.961 . S
C1338 H1352 0.961 . S
C1339 C1336 1.539 . S
C1339 H1353 0.958 . S
C1339 H1354 0.961 . S
C1339 H1355 0.960 . S
H1340 C1324 0.931 . S
H1341 C1329 0.929 . S
H1342 C1330 0.960 . S
H1343 C1330 0.962 . S
H1344 C1330 0.960 . S
H1345 C1331 0.961 . S
H1346 C1331 0.961 . S
H1347 C1331 0.961 . S
H1348 C1332 0.931 . S
H1349 C1337 0.930 . S
H1350 C1338 0.956 . S
H1351 C1338 0.961 . S
H1352 C1338 0.961 . S
H1353 C1339 0.958 . S
H1354 C1339 0.961 . S
H1355 C1339 0.960 . S
C397 N14 1.532 . S
C405 N113 1.540 . S
C429 N146 1.537 . S
C437 N47 1.537 . S
C461 N179 1.537 . S
C469 N80 1.536 . S
C493 N311 1.534 . S
C501 N212 1.537 . S
C525 N344 1.529 . S
C533 N245 1.541 . S
C557 N278 1.544 . S
C565 N377 1.534 . S
C589 C8 1.059 . S
C597 N170 1.062 . S
C621 N5 1.064 . S
C629 C41 1.061 . S
C653 C74 1.060 . S
C661 N38 1.060 . S
C685 N71 1.046 . S
C693 C107 1.059 . S
C717 N104 1.052 . S
C725 C140 1.061 . S
C749 N137 1.047 . S
C757 C173 1.059 . S
C781 N236 1.064 . S
C789 C206 1.060 . S
C813 N269 1.047 . S
C821 C239 1.060 . S
C845 N302 1.059 . S
C853 C272 1.061 . S
C877 C305 1.056 . S
C885 N335 1.054 . S
C909 C338 1.055 . S
C917 N368 1.057 . S
C941 C371 1.055 . S
C949 N203 1.055 . S
C973 C292 1.258 . S
C981 C28 1.250 . S
C1005 C61 1.206 . S
C1013 C325 1.230 . S
C1037 C94 1.259 . S
C1045 C358 1.238 . S
C1069 C127 1.253 . S
C1077 C391 1.234 . S
C1101 C226 1.242 . S
C1109 C160 1.230 . S
C1133 C193 1.222 . S
C1141 C259 1.226 . S
C1165 C380 1.512 . S
C1173 C116 1.507 . S
C1197 C215 1.487 . S
C1205 C149 1.508 . S
C1229 C248 1.490 . S
C1237 C182 1.502 . S
C1261 C17 1.495 . S
C1269 C281 1.513 . S
C1293 C50 1.531 . S
C1301 C314 1.522 . S
C1325 C83 1.514 . S
C1333 C347 1.508 . S
