# Generated by pormake.
# Topology whm, (6)-cn, num edge types: 1
# Building blocks:
#     Node 0, Type 0, BuildingBlock: OJICUG_clean_sbu_0, # of connection points: 6
#     Node 1, Type 0, BuildingBlock: OJICUG_clean_sbu_0, # of connection points: 6
#     Node 2, Type 0, BuildingBlock: OJICUG_clean_sbu_0, # of connection points: 6
#     Node 3, Type 0, BuildingBlock: OJICUG_clean_sbu_0, # of connection points: 6
#     Node 4, Type 0, BuildingBlock: OJICUG_clean_sbu_0, # of connection points: 6
#     Node 5, Type 0, BuildingBlock: OJICUG_clean_sbu_0, # of connection points: 6
#     Node 6, Type 0, BuildingBlock: OJICUG_clean_sbu_0, # of connection points: 6
#     Node 7, Type 0, BuildingBlock: OJICUG_clean_sbu_0, # of connection points: 6
#     Node 8, Type 0, BuildingBlock: OJICUG_clean_sbu_0, # of connection points: 6
#     Node 9, Type 0, BuildingBlock: OJICUG_clean_sbu_0, # of connection points: 6
#     Node 10, Type 0, BuildingBlock: OJICUG_clean_sbu_0, # of connection points: 6
#     Node 11, Type 0, BuildingBlock: OJICUG_clean_sbu_0, # of connection points: 6
#     Node 12, Type 0, BuildingBlock: OJICUG_clean_sbu_0, # of connection points: 6
#     Node 13, Type 0, BuildingBlock: OJICUG_clean_sbu_0, # of connection points: 6
#     Node 14, Type 0, BuildingBlock: OJICUG_clean_sbu_0, # of connection points: 6
#     Node 15, Type 0, BuildingBlock: OJICUG_clean_sbu_0, # of connection points: 6
#     Edge 16, Type (0, 0), BuildingBlock: XUDNAN_clean_linker_2, # of connection points: 2
#     Edge 17, Type (0, 0), BuildingBlock: XUDNAN_clean_linker_2, # of connection points: 2
#     Edge 18, Type (0, 0), BuildingBlock: XUDNAN_clean_linker_2, # of connection points: 2
#     Edge 19, Type (0, 0), BuildingBlock: XUDNAN_clean_linker_2, # of connection points: 2
#     Edge 20, Type (0, 0), BuildingBlock: XUDNAN_clean_linker_2, # of connection points: 2
#     Edge 21, Type (0, 0), BuildingBlock: XUDNAN_clean_linker_2, # of connection points: 2
#     Edge 22, Type (0, 0), BuildingBlock: XUDNAN_clean_linker_2, # of connection points: 2
#     Edge 23, Type (0, 0), BuildingBlock: XUDNAN_clean_linker_2, # of connection points: 2
#     Edge 24, Type (0, 0), BuildingBlock: XUDNAN_clean_linker_2, # of connection points: 2
#     Edge 25, Type (0, 0), BuildingBlock: XUDNAN_clean_linker_2, # of connection points: 2
#     Edge 26, Type (0, 0), BuildingBlock: XUDNAN_clean_linker_2, # of connection points: 2
#     Edge 27, Type (0, 0), BuildingBlock: XUDNAN_clean_linker_2, # of connection points: 2
#     Edge 28, Type (0, 0), BuildingBlock: XUDNAN_clean_linker_2, # of connection points: 2
#     Edge 29, Type (0, 0), BuildingBlock: XUDNAN_clean_linker_2, # of connection points: 2
#     Edge 30, Type (0, 0), BuildingBlock: XUDNAN_clean_linker_2, # of connection points: 2
#     Edge 31, Type (0, 0), BuildingBlock: XUDNAN_clean_linker_2, # of connection points: 2
#     Edge 32, Type (0, 0), BuildingBlock: XUDNAN_clean_linker_2, # of connection points: 2
#     Edge 33, Type (0, 0), BuildingBlock: XUDNAN_clean_linker_2, # of connection points: 2
#     Edge 34, Type (0, 0), BuildingBlock: XUDNAN_clean_linker_2, # of connection points: 2
#     Edge 35, Type (0, 0), BuildingBlock: XUDNAN_clean_linker_2, # of connection points: 2
#     Edge 36, Type (0, 0), BuildingBlock: XUDNAN_clean_linker_2, # of connection points: 2
#     Edge 37, Type (0, 0), BuildingBlock: XUDNAN_clean_linker_2, # of connection points: 2
#     Edge 38, Type (0, 0), BuildingBlock: XUDNAN_clean_linker_2, # of connection points: 2
#     Edge 39, Type (0, 0), BuildingBlock: XUDNAN_clean_linker_2, # of connection points: 2
#     Edge 40, Type (0, 0), BuildingBlock: XUDNAN_clean_linker_2, # of connection points: 2
#     Edge 41, Type (0, 0), BuildingBlock: XUDNAN_clean_linker_2, # of connection points: 2
#     Edge 42, Type (0, 0), BuildingBlock: XUDNAN_clean_linker_2, # of connection points: 2
#     Edge 43, Type (0, 0), BuildingBlock: XUDNAN_clean_linker_2, # of connection points: 2
#     Edge 44, Type (0, 0), BuildingBlock: XUDNAN_clean_linker_2, # of connection points: 2
#     Edge 45, Type (0, 0), BuildingBlock: XUDNAN_clean_linker_2, # of connection points: 2
#     Edge 46, Type (0, 0), BuildingBlock: XUDNAN_clean_linker_2, # of connection points: 2
#     Edge 47, Type (0, 0), BuildingBlock: XUDNAN_clean_linker_2, # of connection points: 2
#     Edge 48, Type (0, 0), BuildingBlock: XUDNAN_clean_linker_2, # of connection points: 2
#     Edge 49, Type (0, 0), BuildingBlock: XUDNAN_clean_linker_2, # of connection points: 2
#     Edge 50, Type (0, 0), BuildingBlock: XUDNAN_clean_linker_2, # of connection points: 2
#     Edge 51, Type (0, 0), BuildingBlock: XUDNAN_clean_linker_2, # of connection points: 2
#     Edge 52, Type (0, 0), BuildingBlock: XUDNAN_clean_linker_2, # of connection points: 2
#     Edge 53, Type (0, 0), BuildingBlock: XUDNAN_clean_linker_2, # of connection points: 2
#     Edge 54, Type (0, 0), BuildingBlock: XUDNAN_clean_linker_2, # of connection points: 2
#     Edge 55, Type (0, 0), BuildingBlock: XUDNAN_clean_linker_2, # of connection points: 2
#     Edge 56, Type (0, 0), BuildingBlock: XUDNAN_clean_linker_2, # of connection points: 2
#     Edge 57, Type (0, 0), BuildingBlock: XUDNAN_clean_linker_2, # of connection points: 2
#     Edge 58, Type (0, 0), BuildingBlock: XUDNAN_clean_linker_2, # of connection points: 2
#     Edge 59, Type (0, 0), BuildingBlock: XUDNAN_clean_linker_2, # of connection points: 2
#     Edge 60, Type (0, 0), BuildingBlock: XUDNAN_clean_linker_2, # of connection points: 2
#     Edge 61, Type (0, 0), BuildingBlock: XUDNAN_clean_linker_2, # of connection points: 2
#     Edge 62, Type (0, 0), BuildingBlock: XUDNAN_clean_linker_2, # of connection points: 2
#     Edge 63, Type (0, 0), BuildingBlock: XUDNAN_clean_linker_2, # of connection points: 2
# Relax obj value: 0.342
# Max RMSD: 0.245
# Mean RMSD: 0.245
data_MOF--net-whm--node1-OJICUG_clean_sbu_0--edge1-XUDNAN_clean_linker_2
_symmetry_space_group_name_H-M    P1
_symmetry_Int_Tables_number       1
_symmetry_cell_setting            triclinic
loop_
_symmetry_equiv_pos_as_xyz
'x, y, z'
_cell_length_a     51.363482
_cell_length_b     51.294569
_cell_length_c     29.278458
_cell_angle_alpha  89.989636
_cell_angle_beta   89.978853
_cell_angle_gamma 89.995763
loop_
_atom_site_label
_atom_site_type_symbol
_atom_site_fract_x
_atom_site_fract_y
_atom_site_fract_z
_atom_type_partial_charge
Sc0 Sc 0.57728 0.1736 0.12232 0.0
Sc1 Sc 0.5292 0.16812 0.20625 0.0
Sc2 Sc 0.5611 0.11211 0.16502 0.0
O3 O 0.55572 0.15119 0.16421 0.0
C4 C 0.56483 0.12513 0.05911 0.0
C5 C 0.5194 0.19687 0.11378 0.0
C6 C 0.50093 0.11453 0.18035 0.0
C7 C 0.57482 0.20986 0.20837 0.0
C8 C 0.61931 0.13257 0.15767 0.0
C9 C 0.55732 0.12761 0.26993 0.0
O10 O 0.56882 0.14936 0.06452 0.0
O11 O 0.5097 0.18642 0.14937 0.0
O12 O 0.52032 0.10436 0.16027 0.0
O13 O 0.58784 0.19952 0.17643 0.0
O14 O 0.60256 0.11599 0.17088 0.0
O15 O 0.54843 0.15053 0.264 0.0
O16 O 0.61315 0.1535 0.13711 0.0
O17 O 0.55195 0.2027 0.2188 0.0
O18 O 0.55979 0.11091 0.2382 0.0
O19 O 0.54349 0.19583 0.10354 0.0
O20 O 0.56323 0.10904 0.09192 0.0
O21 O 0.50217 0.1362 0.20118 0.0
Sc22 Sc 0.32253 0.58436 0.61041 0.0
Sc23 Sc 0.32438 0.54324 0.7059 0.0
Sc24 Sc 0.38155 0.56986 0.65967 0.0
O25 O 0.34262 0.56559 0.65903 0.0
C26 C 0.37401 0.5654 0.55738 0.0
C27 C 0.29934 0.52698 0.61009 0.0
C28 C 0.37659 0.51222 0.70001 0.0
C29 C 0.28185 0.5869 0.69249 0.0
C30 C 0.36273 0.62669 0.63029 0.0
C31 C 0.36469 0.57932 0.76159 0.0
O32 O 0.35327 0.57889 0.5608 0.0
O33 O 0.30248 0.52295 0.65285 0.0
O34 O 0.38981 0.53186 0.68755 0.0
O35 O 0.2894 0.59337 0.65286 0.0
O36 O 0.38035 0.60935 0.63315 0.0
O37 O 0.34593 0.56281 0.76081 0.0
O38 O 0.33866 0.6212 0.62989 0.0
O39 O 0.29333 0.57007 0.71672 0.0
O40 O 0.37851 0.58512 0.72695 0.0
O41 O 0.30613 0.54793 0.58992 0.0
O42 O 0.38504 0.55494 0.5916 0.0
O43 O 0.35206 0.51255 0.70235 0.0
Sc44 Sc 0.91675 0.3236 0.11756 0.0
Sc45 Sc 0.96296 0.32406 0.20455 0.0
Sc46 Sc 0.9246 0.37961 0.18289 0.0
O47 O 0.9348 0.34259 0.16861 0.0
C48 C 0.9164 0.38147 0.07716 0.0
C49 C 0.97429 0.30801 0.10091 0.0
C50 C 0.98675 0.38035 0.19177 0.0
C51 C 0.9258 0.27755 0.18935 0.0
C52 C 0.87031 0.34961 0.16959 0.0
C53 C 0.93495 0.35754 0.28205 0.0
O54 O 0.91128 0.35734 0.07582 0.0
O55 O 0.97859 0.3054 0.14356 0.0
O56 O 0.96471 0.39171 0.18901 0.0
O57 O 0.91955 0.2861 0.15018 0.0
O58 O 0.88386 0.36957 0.18009 0.0
O59 O 0.95133 0.34031 0.26984 0.0
O60 O 0.87938 0.32977 0.1488 0.0
O61 O 0.93841 0.29099 0.21818 0.0
O62 O 0.92274 0.37178 0.25399 0.0
O63 O 0.95344 0.3177 0.08493 0.0
O64 O 0.92455 0.39265 0.113 0.0
O65 O 0.98939 0.35574 0.19427 0.0
Sc66 Sc 0.17021 0.9172 0.63403 0.0
Sc67 Sc 0.1639 0.96991 0.70847 0.0
Sc68 Sc 0.11111 0.92924 0.68645 0.0
O69 O 0.14846 0.93892 0.67629 0.0
C70 C 0.1145 0.91785 0.58423 0.0
C71 C 0.18817 0.97342 0.6076 0.0
C72 C 0.10886 0.99168 0.69125 0.0
C73 C 0.2106 0.93108 0.71339 0.0
C74 C 0.13874 0.87342 0.67939 0.0
C75 C 0.1286 0.94264 0.78554 0.0
O76 O 0.13775 0.90965 0.58875 0.0
O77 O 0.18609 0.9817 0.64856 0.0
O78 O 0.09868 0.96915 0.69466 0.0
O79 O 0.20512 0.92078 0.67503 0.0
O80 O 0.1186 0.88787 0.68081 0.0
O81 O 0.14341 0.96112 0.77205 0.0
O82 O 0.16126 0.88227 0.67059 0.0
O83 O 0.19585 0.94743 0.73305 0.0
O84 O 0.11774 0.9267 0.75827 0.0
O85 O 0.18015 0.95107 0.59508 0.0
O86 O 0.10278 0.9309 0.6148 0.0
O87 O 0.13317 0.99506 0.68685 0.0
Sc88 Sc 0.56905 0.31794 0.84193 0.0
Sc89 Sc 0.51592 0.33278 0.77354 0.0
Sc90 Sc 0.55292 0.38309 0.82068 0.0
O91 O 0.54595 0.34466 0.81232 0.0
C92 C 0.56553 0.35981 0.91967 0.0
C93 C 0.5115 0.29494 0.85583 0.0
C94 C 0.49272 0.38363 0.82199 0.0
C95 C 0.55881 0.28969 0.74967 0.0
C96 C 0.60963 0.36121 0.80891 0.0
C97 C 0.53796 0.37855 0.7154 0.0
O98 O 0.56493 0.33612 0.90713 0.0
O99 O 0.49997 0.31083 0.82942 0.0
O100 O 0.51363 0.39099 0.84121 0.0
O101 O 0.57515 0.2975 0.77912 0.0
O102 O 0.59261 0.37832 0.79939 0.0
O103 O 0.53094 0.35477 0.71691 0.0
O104 O 0.60432 0.33969 0.82846 0.0
O105 O 0.53582 0.2988 0.7473 0.0
O106 O 0.54313 0.39204 0.7507 0.0
O107 O 0.53621 0.29337 0.85912 0.0
O108 O 0.56368 0.3788 0.89186 0.0
O109 O 0.49179 0.36483 0.79386 0.0
Sc110 Sc 0.11412 0.56283 0.33525 0.0
Sc111 Sc 0.16943 0.53429 0.28337 0.0
Sc112 Sc 0.17559 0.57471 0.3802 0.0
O113 O 0.1531 0.55706 0.33281 0.0
C114 C 0.1369 0.61987 0.35518 0.0
C115 C 0.12786 0.56909 0.23004 0.0
C116 C 0.21318 0.57739 0.29391 0.0
C117 C 0.11633 0.50407 0.30079 0.0
C118 C 0.12548 0.55955 0.43949 0.0
C119 C 0.197 0.51648 0.37595 0.0
O120 O 0.11808 0.60411 0.34893 0.0
O121 O 0.14843 0.55507 0.22979 0.0
O122 O 0.20612 0.58422 0.33351 0.0
O123 O 0.10472 0.52309 0.31957 0.0
O124 O 0.14812 0.56904 0.43456 0.0
O125 O 0.1911 0.51222 0.33425 0.0
O126 O 0.11112 0.5533 0.40609 0.0
O127 O 0.13966 0.50531 0.28698 0.0
O128 O 0.19257 0.53782 0.39675 0.0
O129 O 0.11397 0.57289 0.26521 0.0
O130 O 0.15977 0.61226 0.36478 0.0
O131 O 0.20183 0.55974 0.2712 0.0
Sc132 Sc 0.91924 0.10876 0.822 0.0
Sc133 Sc 0.95059 0.16437 0.77571 0.0
Sc134 Sc 0.90195 0.17125 0.85841 0.0
O135 O 0.92393 0.14804 0.8185 0.0
C136 C 0.86061 0.12927 0.8317 0.0
C137 C 0.92691 0.11765 0.71571 0.0
C138 C 0.90391 0.20398 0.76588 0.0
C139 C 0.98091 0.11434 0.80744 0.0
C140 C 0.91357 0.12335 0.92596 0.0
C141 C 0.95744 0.19787 0.86599 0.0
O142 O 0.87745 0.11118 0.82856 0.0
O143 O 0.94066 0.13803 0.72132 0.0
O144 O 0.89546 0.19939 0.80574 0.0
O145 O 0.96031 0.10136 0.81554 0.0
O146 O 0.9048 0.14573 0.91574 0.0
O147 O 0.9644 0.19197 0.82569 0.0
O148 O 0.92241 0.10762 0.89604 0.0
O149 O 0.9807 0.13841 0.79745 0.0
O150 O 0.93593 0.19081 0.88347 0.0
O151 O 0.9154 0.1059 0.74838 0.0
O152 O 0.86642 0.15308 0.83732 0.0
O153 O 0.92329 0.19224 0.74849 0.0
Sc154 Sc 0.39572 0.92209 0.32766 0.0
Sc155 Sc 0.33494 0.94571 0.29411 0.0
Sc156 Sc 0.34241 0.91466 0.39829 0.0
O157 O 0.35778 0.92772 0.33995 0.0
C158 C 0.37753 0.86795 0.37103 0.0
C159 C 0.37207 0.91065 0.23182 0.0
C160 C 0.29592 0.90466 0.32793 0.0
C161 C 0.38504 0.97917 0.28669 0.0
C162 C 0.39886 0.93333 0.43039 0.0
C163 C 0.31544 0.96812 0.39056 0.0
O164 O 0.39543 0.88353 0.35812 0.0
O165 O 0.35447 0.92803 0.23578 0.0
O166 O 0.3047 0.90643 0.36843 0.0
O167 O 0.39974 0.95965 0.29469 0.0
O168 O 0.37756 0.92127 0.43675 0.0
O169 O 0.3126 0.96525 0.34752 0.0
O170 O 0.40722 0.93948 0.39111 0.0
O171 O 0.36048 0.97851 0.29133 0.0
O172 O 0.32985 0.95335 0.41461 0.0
O173 O 0.38692 0.90384 0.26424 0.0
O174 O 0.35488 0.87574 0.38236 0.0
O175 O 0.30795 0.91391 0.29373 0.0
Sc176 Sc 0.44108 0.88077 0.83096 0.0
Sc177 Sc 0.47058 0.82798 0.77383 0.0
Sc178 Sc 0.41415 0.81815 0.83927 0.0
O179 O 0.44188 0.84236 0.81451 0.0
C180 C 0.42236 0.85652 0.92429 0.0
C181 C 0.50158 0.87335 0.825 0.0
C182 C 0.46853 0.78928 0.85779 0.0
C183 C 0.45445 0.88 0.72356 0.0
C184 C 0.38084 0.86755 0.8138 0.0
C185 C 0.42398 0.79064 0.74387 0.0
O186 O 0.43437 0.87435 0.90277 0.0
O187 O 0.49977 0.85375 0.799 0.0
O188 O 0.44429 0.79293 0.86491 0.0
O189 O 0.44759 0.89125 0.76051 0.0
O190 O 0.38278 0.84286 0.81643 0.0
O191 O 0.44659 0.80005 0.73905 0.0
O192 O 0.3999 0.883 0.81965 0.0
O193 O 0.46151 0.85616 0.72161 0.0
O194 O 0.40967 0.79618 0.77767 0.0
O195 O 0.48202 0.88362 0.84436 0.0
O196 O 0.41374 0.83615 0.90508 0.0
O197 O 0.48133 0.80019 0.8258 0.0
Sc198 Sc 0.66894 0.41541 0.37376 0.0
Sc199 Sc 0.66403 0.45218 0.27471 0.0
Sc200 Sc 0.60851 0.42651 0.32658 0.0
O201 O 0.64711 0.43173 0.32493 0.0
C202 C 0.63113 0.37054 0.35219 0.0
C203 C 0.70497 0.40807 0.2869 0.0
C204 C 0.62088 0.41787 0.22323 0.0
C205 C 0.69264 0.47092 0.36667 0.0
C206 C 0.61754 0.43178 0.42877 0.0
C207 C 0.61361 0.4847 0.28692 0.0
O208 O 0.65463 0.37794 0.35563 0.0
O209 O 0.69044 0.42118 0.26067 0.0
O210 O 0.60936 0.41099 0.2596 0.0
O211 O 0.68312 0.45293 0.39145 0.0
O212 O 0.60584 0.44152 0.39468 0.0
O213 O 0.63822 0.48429 0.28351 0.0
O214 O 0.63881 0.41925 0.42486 0.0
O215 O 0.69076 0.47118 0.32304 0.0
O216 O 0.60033 0.46494 0.29933 0.0
O217 O 0.70229 0.40811 0.33005 0.0
O218 O 0.61209 0.38655 0.35114 0.0
O219 O 0.63895 0.43501 0.22228 0.0
Sc220 Sc 0.0749 0.6738 0.86534 0.0
Sc221 Sc 0.02957 0.66544 0.7782 0.0
Sc222 Sc 0.05712 0.61113 0.83282 0.0
O223 O 0.05353 0.65018 0.82585 0.0
C224 C 0.11524 0.63039 0.83438 0.0
C225 C 0.07826 0.70355 0.7717 0.0
C226 C 0.05103 0.61736 0.72579 0.0
C227 C 0.01954 0.70243 0.86118 0.0
C228 C 0.0634 0.63019 0.93597 0.0
C229 C -0.00235 0.61661 0.81886 0.0
O230 O 0.1094 0.65048 0.85768 0.0
O231 O 0.05574 0.69653 0.75861 0.0
O232 O 0.05147 0.60341 0.76148 0.0
O233 O 0.04259 0.69948 0.87609 0.0
O234 O 0.06356 0.61244 0.90573 0.0
O235 O 0.00088 0.63591 0.79205 0.0
O236 O 0.06352 0.65422 0.92619 0.0
O237 O 0.01041 0.69037 0.82687 0.0
O238 O 0.0159 0.60684 0.84293 0.0
O239 O 0.08865 0.69548 0.80824 0.0
O240 O 0.09834 0.61416 0.82004 0.0
O241 O 0.04725 0.64182 0.72624 0.0
Sc242 Sc 0.83153 0.07658 0.35438 0.0
Sc243 Sc 0.8191 0.0233 0.28526 0.0
Sc244 Sc 0.88264 0.0423 0.30521 0.0
O245 O 0.84454 0.04748 0.31576 0.0
C246 C 0.87725 0.10332 0.29678 0.0
C247 C 0.78639 0.07539 0.28444 0.0
C248 C 0.85669 0.039 0.20801 0.0
C249 C 0.80018 0.0249 0.38504 0.0
C250 C 0.88131 0.05981 0.41008 0.0
C251 C 0.86751 0.98589 0.30123 0.0
O252 O 0.85828 0.10483 0.32487 0.0
O253 O 0.78719 0.05069 0.2832 0.0
O254 O 0.87565 0.03242 0.23371 0.0
O255 O 0.8046 0.0495 0.38634 0.0
O256 O 0.89359 0.05195 0.37486 0.0
O257 O 0.84667 0.9915 0.28015 0.0
O258 O 0.85788 0.06759 0.40871 0.0
O259 O 0.80611 0.01037 0.35115 0.0
O260 O 0.87922 0.00255 0.3256 0.0
O261 O 0.80404 0.08875 0.30343 0.0
O262 O 0.88737 0.08185 0.28437 0.0
O263 O 0.83313 0.03878 0.22172 0.0
Sc264 Sc 0.43602 0.61396 0.16015 0.0
Sc265 Sc 0.47311 0.66365 0.21144 0.0
Sc266 Sc 0.42108 0.67977 0.14098 0.0
O267 O 0.44346 0.65234 0.17053 0.0
C268 C 0.42458 0.63835 0.06148 0.0
C269 C 0.49663 0.61282 0.16302 0.0
C270 C 0.47912 0.70162 0.12898 0.0
C271 C 0.44927 0.61721 0.2668 0.0
C272 C 0.37926 0.6372 0.17099 0.0
C273 C 0.43006 0.7059 0.23643 0.0
O274 O 0.42759 0.61906 0.08833 0.0
O275 O 0.49743 0.63202 0.1903 0.0
O276 O 0.45456 0.70322 0.12365 0.0
O277 O 0.44328 0.60455 0.23091 0.0
O278 O 0.38557 0.65946 0.15557 0.0
O279 O 0.45312 0.69719 0.24 0.0
O280 O 0.39551 0.6188 0.17682 0.0
O281 O 0.45769 0.64057 0.26637 0.0
O282 O 0.41498 0.69956 0.20415 0.0
O283 O 0.47584 0.6052 0.14368 0.0
O284 O 0.42407 0.66185 0.07515 0.0
O285 O 0.48992 0.68629 0.15727 0.0
Sc286 Sc 0.87558 0.43004 0.68001 0.0
Sc287 Sc 0.82155 0.46923 0.70237 0.0
Sc288 Sc 0.81812 0.42023 0.62042 0.0
O289 O 0.83849 0.43997 0.66743 0.0
C290 C 0.87518 0.42366 0.57539 0.0
C291 C 0.87641 0.49244 0.69151 0.0
C292 C 0.80103 0.47748 0.60049 0.0
C293 C 0.85591 0.44043 0.7786 0.0
C294 C 0.84861 0.37447 0.66411 0.0
C295 C 0.77651 0.4284 0.69976 0.0
O296 O 0.88655 0.43365 0.60972 0.0
O297 O 0.85216 0.49561 0.68542 0.0
O298 O 0.80939 0.45575 0.58596 0.0
O299 O 0.86694 0.42511 0.75058 0.0
O300 O 0.82663 0.38355 0.65212 0.0
O301 O 0.79049 0.44406 0.7226 0.0
O302 O 0.86855 0.38883 0.67013 0.0
O303 O 0.84121 0.45915 0.766 0.0
O304 O 0.78205 0.42131 0.65923 0.0
O305 O 0.88702 0.46999 0.69319 0.0
O306 O 0.85154 0.41617 0.57626 0.0
O307 O 0.80023 0.48345 0.64275 0.0
Sc308 Sc 0.06282 0.88455 0.19692 0.0
Sc309 Sc 0.03472 0.82259 0.21137 0.0
Sc310 Sc 0.091 0.83026 0.1439 0.0
O311 O 0.06284 0.84578 0.18389 0.0
C312 C 0.08276 0.88456 0.09377 0.0
C313 C 0.00301 0.87451 0.18663 0.0
C314 C 0.03804 0.80417 0.10855 0.0
C315 C 0.04722 0.8598 0.29362 0.0
C316 C 0.12226 0.86874 0.20933 0.0
C317 C 0.08376 0.78475 0.2166 0.0
O318 O 0.07377 0.8962 0.12862 0.0
O319 O 0.0048 0.85135 0.20168 0.0
O320 O 0.06193 0.81035 0.1038 0.0
O321 O 0.05226 0.87878 0.26717 0.0
O322 O 0.12163 0.84984 0.18112 0.0
O323 O 0.06039 0.79052 0.22615 0.0
O324 O 0.10262 0.88285 0.21868 0.0
O325 O 0.04248 0.83691 0.2791 0.0
O326 O 0.0974 0.79777 0.18867 0.0
O327 O 0.02276 0.88858 0.17776 0.0
O328 O 0.08893 0.86066 0.09407 0.0
O329 O 0.02523 0.80711 0.14534 0.0
Sc330 Sc 0.60204 0.05941 0.65035 0.0
Sc331 Sc 0.6521 0.03239 0.7173 0.0
Sc332 Sc 0.66542 0.08299 0.64057 0.0
O333 O 0.63993 0.0581 0.6695 0.0
C334 C 0.62867 0.0662 0.5564 0.0
C335 C 0.60796 -0.00123 0.67284 0.0
C336 C 0.69579 0.02895 0.64074 0.0
C337 C 0.59955 0.05726 0.75799 0.0
C338 C 0.61762 0.11983 0.64832 0.0
C339 C 0.68856 0.0804 0.74128 0.0
O340 O 0.61161 0.05403 0.57965 0.0
O341 O 0.63041 0.00082 0.68992 0.0
O342 O 0.69092 0.05139 0.6243 0.0
O343 O 0.59096 0.06538 0.71978 0.0
O344 O 0.6417 0.11626 0.65563 0.0
O345 O 0.6764 0.05984 0.75216 0.0
O346 O 0.60193 0.10119 0.64065 0.0
O347 O 0.62045 0.0439 0.76221 0.0
O348 O 0.68673 0.09071 0.70207 0.0
O349 O 0.59503 0.01825 0.65878 0.0
O350 O 0.64737 0.07874 0.57463 0.0
O351 O 0.68399 0.01919 0.67494 0.0
H352 H 0.55203 0.25379 0.24245 0.0
H353 H 0.62542 0.2122 0.23492 0.0
H354 H 0.64643 0.24656 0.28125 0.0
H355 H 0.57988 0.31601 0.2264 0.0
H356 H 0.55736 0.3327 0.26342 0.0
H357 H 0.5475 0.30331 0.23476 0.0
H358 H 0.5353 0.28271 0.31288 0.0
H359 H 0.54542 0.31201 0.34182 0.0
H360 H 0.55941 0.28106 0.35753 0.0
H361 H 0.65983 0.28602 0.32445 0.0
H362 H 0.66642 0.33056 0.35337 0.0
H363 H 0.58462 0.34757 0.32979 0.0
C364 C 0.57241 0.25181 0.25125 0.0
C365 C 0.58716 0.2304 0.23569 0.0
C366 C 0.61391 0.22859 0.24665 0.0
C367 C 0.6259 0.24782 0.27324 0.0
C368 C 0.61086 0.26878 0.28805 0.0
C369 C 0.58481 0.27111 0.27691 0.0
C370 C 0.57382 0.29695 0.29273 0.0
C371 C 0.56408 0.31319 0.2519 0.0
C372 C 0.55221 0.29293 0.32837 0.0
C373 C 0.59784 0.30888 0.31404 0.0
C374 C 0.61885 0.2921 0.31172 0.0
C375 C 0.64351 0.29929 0.32681 0.0
C376 C 0.64702 0.32465 0.34324 0.0
C377 C 0.62603 0.34261 0.34387 0.0
C378 C 0.60099 0.33426 0.33033 0.0
H379 H 0.23903 0.56148 0.72249 0.0
H380 H 0.27199 0.63858 0.70465 0.0
H381 H 0.2334 0.65794 0.7428 0.0
H382 H 0.17251 0.58133 0.69811 0.0
H383 H 0.15845 0.55871 0.73826 0.0
H384 H 0.18885 0.55107 0.71063 0.0
H385 H 0.21069 0.54475 0.78962 0.0
H386 H 0.18047 0.55253 0.8177 0.0
H387 H 0.20949 0.57078 0.83095 0.0
H388 H 0.19291 0.66816 0.78687 0.0
H389 H 0.1498 0.67001 0.82334 0.0
H390 H 0.1414 0.58628 0.80671 0.0
C391 C 0.23794 0.58245 0.72654 0.0
C392 C 0.25825 0.59871 0.71122 0.0
C393 C 0.25638 0.62601 0.71628 0.0
C394 C 0.23471 0.63706 0.73806 0.0
C395 C 0.21509 0.62044 0.7535 0.0
C396 C 0.2162 0.59379 0.74706 0.0
C397 C 0.19195 0.58041 0.76476 0.0
C398 C 0.17705 0.5671 0.72561 0.0
C399 C 0.19856 0.56097 0.80304 0.0
C400 C 0.17717 0.60367 0.78305 0.0
C401 C 0.19105 0.6265 0.77672 0.0
C402 C 0.18177 0.65046 0.79173 0.0
C403 C 0.15735 0.65123 0.81279 0.0
C404 C 0.1423 0.62823 0.81802 0.0
C405 C 0.15249 0.60413 0.80321 0.0
H406 H 0.87598 0.15361 0.33003 0.0
H407 H 0.90129 0.10694 0.21448 0.0
H408 H 0.91593 0.14655 0.17488 0.0
H409 H 0.85381 0.20926 0.26769 0.0
H410 H 0.86627 0.23284 0.30776 0.0
H411 H 0.85704 0.20083 0.32721 0.0
H412 H 0.90304 0.19413 0.36156 0.0
H413 H 0.9124 0.22616 0.34233 0.0
H414 H 0.93127 0.19811 0.3256 0.0
H415 H 0.92504 0.19074 0.1456 0.0
H416 H 0.93294 0.2375 0.13139 0.0
H417 H 0.90666 0.25586 0.26843 0.0
C418 C 0.88463 0.15181 0.29645 0.0
C419 C 0.88714 0.12727 0.27502 0.0
C420 C 0.89896 0.12557 0.23137 0.0
C421 C 0.90735 0.14794 0.20857 0.0
C422 C 0.90445 0.17182 0.2304 0.0
C423 C 0.89386 0.17396 0.27364 0.0
C424 C 0.89397 0.20205 0.28978 0.0
C425 C 0.86611 0.21181 0.29861 0.0
C426 C 0.9112 0.20529 0.33234 0.0
C427 C 0.90592 0.2153 0.24852 0.0
C428 C 0.91146 0.19744 0.21452 0.0
C429 C 0.92118 0.20491 0.17214 0.0
C430 C 0.92552 0.23141 0.16434 0.0
C431 C 0.92066 0.24998 0.19901 0.0
C432 C 0.91088 0.24186 0.24174 0.0
H433 H 0.34132 0.85028 0.75818 0.0
H434 H 0.36288 0.91173 0.8528 0.0
H435 H 0.32063 0.93324 0.84002 0.0
H436 H 0.31059 0.8923 0.67791 0.0
H437 H 0.28504 0.86975 0.66304 0.0
H438 H 0.31605 0.85767 0.6824 0.0
H439 H 0.29308 0.83157 0.74661 0.0
H440 H 0.26196 0.84353 0.72737 0.0
H441 H 0.27181 0.84832 0.78586 0.0
H442 H 0.27723 0.94857 0.81661 0.0
H443 H 0.23527 0.95858 0.78018 0.0
H444 H 0.24209 0.88868 0.69712 0.0
C445 C 0.33689 0.86807 0.77654 0.0
C446 C 0.35516 0.87938 0.80655 0.0
C447 C 0.34907 0.90289 0.8295 0.0
C448 C 0.32513 0.91516 0.82268 0.0
C449 C 0.30763 0.90377 0.79247 0.0
C450 C 0.31317 0.8809 0.76947 0.0
C451 C 0.29147 0.87387 0.73666 0.0
C452 C 0.30139 0.87338 0.68707 0.0
C453 C 0.27883 0.84778 0.74994 0.0
C454 C 0.27308 0.8965 0.7447 0.0
C455 C 0.2827 0.91327 0.7775 0.0
C456 C 0.2694 0.9356 0.7909 0.0
C457 C 0.24557 0.94109 0.77002 0.0
C458 C 0.23545 0.92445 0.73573 0.0
C459 C 0.24941 0.90183 0.72304 0.0
H460 H 0.60442 0.26195 0.75013 0.0
H461 H 0.52905 0.26652 0.68329 0.0
H462 H 0.5385 0.22562 0.6424 0.0
H463 H 0.64036 0.23128 0.65262 0.0
H464 H 0.65928 0.21125 0.6908 0.0
H465 H 0.64843 0.24305 0.70887 0.0
H466 H 0.62643 0.22227 0.77976 0.0
H467 H 0.63695 0.19047 0.76177 0.0
H468 H 0.60287 0.19661 0.77187 0.0
H469 H 0.55295 0.18132 0.61846 0.0
H470 H 0.5724 0.13758 0.61021 0.0
H471 H 0.63864 0.16217 0.69155 0.0
C472 C 0.59016 0.25479 0.72595 0.0
C473 C 0.56598 0.26749 0.71998 0.0
C474 C 0.54774 0.25721 0.68845 0.0
C475 C 0.55295 0.234 0.66493 0.0
C476 C 0.57658 0.2215 0.67292 0.0
C477 C 0.59505 0.23169 0.70223 0.0
C478 C 0.61786 0.21331 0.70801 0.0
C479 C 0.64297 0.22545 0.68892 0.0
C480 C 0.6212 0.20519 0.75832 0.0
C481 C 0.60883 0.19072 0.67888 0.0
C482 C 0.58511 0.19594 0.65855 0.0
C483 C 0.57178 0.17718 0.63337 0.0
C484 C 0.58289 0.15237 0.62915 0.0
C485 C 0.6071 0.14657 0.65 0.0
C486 C 0.62037 0.16619 0.67449 0.0
H487 H 0.35257 0.59106 0.17843 0.0
H488 H 0.34488 0.6747 0.19717 0.0
H489 H 0.30048 0.66847 0.22705 0.0
H490 H 0.28476 0.58005 0.14282 0.0
H491 H 0.28269 0.54916 0.17196 0.0
H492 H 0.31349 0.56025 0.14981 0.0
H493 H 0.33405 0.55528 0.23019 0.0
H494 H 0.30333 0.5443 0.25264 0.0
H495 H 0.3195 0.57189 0.27808 0.0
H496 H 0.25935 0.6531 0.26238 0.0
H497 H 0.22166 0.62947 0.29476 0.0
H498 H 0.25428 0.55618 0.24805 0.0
C499 C 0.3414 0.60805 0.18838 0.0
C500 C 0.3521 0.63334 0.1855 0.0
C501 C 0.33695 0.65515 0.19874 0.0
C502 C 0.31176 0.65183 0.21586 0.0
C503 C 0.30189 0.62663 0.21877 0.0
C504 C 0.31602 0.60513 0.2048 0.0
C505 C 0.30089 0.58016 0.21218 0.0
C506 C 0.29511 0.56661 0.16646 0.0
C507 C 0.3153 0.56184 0.24524 0.0
C508 C 0.27633 0.59099 0.23351 0.0
C509 C 0.27741 0.61784 0.23721 0.0
C510 C 0.25798 0.63214 0.25892 0.0
C511 C 0.2368 0.61861 0.27734 0.0
C512 C 0.23515 0.5912 0.2732 0.0
C513 C 0.25498 0.57724 0.25066 0.0
H514 H 0.89371 0.34626 0.66719 0.0
H515 H 0.80972 0.33876 0.67817 0.0
H516 H 0.81477 0.29191 0.69554 0.0
H517 H 0.90557 0.28103 0.61629 0.0
H518 H 0.93547 0.27684 0.64766 0.0
H519 H 0.92507 0.30903 0.63092 0.0
H520 H 0.92752 0.32422 0.71527 0.0
H521 H 0.93795 0.2922 0.73221 0.0
H522 H 0.90959 0.3066 0.75829 0.0
H523 H 0.82914 0.24815 0.72249 0.0
H524 H 0.85192 0.20993 0.7549 0.0
H525 H 0.92633 0.24497 0.72195 0.0
C526 C 0.87633 0.33471 0.67262 0.0
C527 C 0.85132 0.34614 0.67147 0.0
C528 C 0.82907 0.33037 0.6787 0.0
C529 C 0.83174 0.30375 0.68846 0.0
C530 C 0.85673 0.29319 0.68998 0.0
C531 C 0.87862 0.30811 0.6818 0.0
C532 C 0.90333 0.29248 0.68837 0.0
C533 C 0.91824 0.28968 0.6431 0.0
C534 C 0.9206 0.3046 0.72576 0.0
C535 C 0.89195 0.26669 0.70345 0.0
C536 C 0.86501 0.26746 0.7038 0.0
C537 C 0.85017 0.24703 0.72122 0.0
C538 C 0.86322 0.22548 0.73959 0.0
C539 C 0.89074 0.22451 0.73987 0.0
C540 C 0.90526 0.24502 0.72059 0.0
H541 H 0.17268 0.86395 0.17971 0.0
H542 H 0.12571 0.88385 0.29791 0.0
H543 H 0.16558 0.89051 0.34342 0.0
H544 H 0.2256 0.83119 0.24006 0.0
H545 H 0.25054 0.84479 0.20389 0.0
H546 H 0.21836 0.83915 0.18145 0.0
H547 H 0.21512 0.88765 0.15709 0.0
H548 H 0.24734 0.89334 0.17902 0.0
H549 H 0.22044 0.91282 0.19903 0.0
H550 H 0.21011 0.89552 0.37575 0.0
H551 H 0.25652 0.90453 0.39025 0.0
H552 H 0.27471 0.88434 0.24979 0.0
C553 C 0.17089 0.86947 0.21527 0.0
C554 C 0.14626 0.87327 0.23548 0.0
C555 C 0.1445 0.88097 0.28184 0.0
C556 C 0.16699 0.88455 0.30805 0.0
C557 C 0.19102 0.88064 0.28719 0.0
C558 C 0.19317 0.87369 0.2417 0.0
C559 C 0.22136 0.87305 0.22663 0.0
C560 C 0.22943 0.8454 0.21216 0.0
C561 C 0.22635 0.8929 0.18818 0.0
C562 C 0.23464 0.88104 0.27059 0.0
C563 C 0.21681 0.88473 0.30534 0.0
C564 C 0.22431 0.89259 0.34891 0.0
C565 C 0.25072 0.89752 0.35686 0.0
C566 C 0.26916 0.89507 0.32114 0.0
C567 C 0.26102 0.88628 0.27773 0.0
H568 H 0.3415 0.66672 0.67811 0.0
H569 H 0.40346 0.64744 0.58353 0.0
H570 H 0.42165 0.69178 0.5922 0.0
H571 H 0.33621 0.73869 0.65044 0.0
H572 H 0.33146 0.74668 0.70981 0.0
H573 H 0.31975 0.71605 0.68766 0.0
H574 H 0.34598 0.69143 0.7498 0.0
H575 H 0.3579 0.72182 0.77189 0.0
H576 H 0.38055 0.69688 0.75446 0.0
H577 H 0.43686 0.73483 0.62014 0.0
H578 H 0.44924 0.7725 0.66759 0.0
H579 H 0.37826 0.76317 0.74664 0.0
C580 C 0.35825 0.67232 0.65785 0.0
C581 C 0.37093 0.65407 0.62963 0.0
C582 C 0.39345 0.66143 0.60501 0.0
C583 C 0.40378 0.68655 0.60952 0.0
C584 C 0.3914 0.70393 0.63899 0.0
C585 C 0.36909 0.69715 0.66274 0.0
C586 C 0.36196 0.71772 0.69759 0.0
C587 C 0.33579 0.73055 0.68564 0.0
C588 C 0.3616 0.70628 0.74628 0.0
C589 C 0.38432 0.73655 0.6911 0.0
C590 C 0.40073 0.72858 0.6564 0.0
C591 C 0.42392 0.74157 0.64682 0.0
C592 C 0.43083 0.76291 0.67411 0.0
C593 C 0.41475 0.77082 0.71093 0.0
C594 C 0.39087 0.75783 0.71851 0.0
H595 H 0.75317 0.39745 0.32199 0.0
H596 H 0.70389 0.38447 0.2039 0.0
H597 H 0.73985 0.36141 0.16525 0.0
H598 H 0.80808 0.41394 0.26284 0.0
H599 H 0.8311 0.39811 0.30012 0.0
H600 H 0.80033 0.40892 0.32229 0.0
H601 H 0.79138 0.36253 0.35163 0.0
H602 H 0.82139 0.35032 0.32775 0.0
H603 H 0.79092 0.33551 0.31226 0.0
H604 H 0.78199 0.3437 0.13644 0.0
H605 H 0.82845 0.33662 0.11704 0.0
H606 H 0.85071 0.36387 0.25156 0.0
C607 C 0.74982 0.38912 0.28852 0.0
C608 C 0.72584 0.39251 0.26595 0.0
C609 C 0.72223 0.38201 0.22167 0.0
C610 C 0.74242 0.3687 0.19964 0.0
C611 C 0.76609 0.36616 0.22231 0.0
C612 C 0.76994 0.37617 0.26571 0.0
C613 C 0.79806 0.37354 0.28028 0.0
C614 C 0.81008 0.40022 0.29203 0.0
C615 C 0.80057 0.35436 0.32039 0.0
C616 C 0.80966 0.36217 0.23719 0.0
C617 C 0.79077 0.35705 0.20483 0.0
C618 C 0.79696 0.34735 0.16164 0.0
C619 C 0.82327 0.34338 0.1509 0.0
C620 C 0.84283 0.34986 0.18284 0.0
C621 C 0.83592 0.35884 0.22669 0.0
H622 H 0.09323 0.84605 0.67854 0.0
H623 H 0.17672 0.837 0.69599 0.0
H624 H 0.17052 0.78992 0.70998 0.0
H625 H 0.0745 0.80532 0.7662 0.0
H626 H 0.04654 0.792 0.73723 0.0
H627 H 0.05803 0.82405 0.72284 0.0
H628 H 0.06225 0.81018 0.63794 0.0
H629 H 0.05087 0.77793 0.65221 0.0
H630 H 0.08159 0.78207 0.62331 0.0
H631 H 0.15483 0.74578 0.732 0.0
H632 H 0.1307 0.70778 0.76175 0.0
H633 H 0.05766 0.74521 0.72693 0.0
C634 C 0.11028 0.83415 0.68482 0.0
C635 C 0.13545 0.84517 0.68638 0.0
C636 C 0.15725 0.82893 0.69457 0.0
C637 C 0.15394 0.80218 0.70228 0.0
C638 C 0.12879 0.79201 0.70091 0.0
C639 C 0.10736 0.80748 0.69214 0.0
C640 C 0.08225 0.79227 0.69606 0.0
C641 C 0.0643 0.80411 0.73277 0.0
C642 C 0.06843 0.79051 0.64961 0.0
C643 C 0.09282 0.76606 0.71057 0.0
C644 C 0.11974 0.76621 0.7125 0.0
C645 C 0.13381 0.74519 0.72966 0.0
C646 C 0.11997 0.72377 0.74656 0.0
C647 C 0.09241 0.72361 0.74602 0.0
C648 C 0.07874 0.74462 0.72646 0.0
H649 H 0.64089 0.08859 0.19494 0.0
H650 H 0.66014 0.16684 0.14922 0.0
H651 H 0.70522 0.16075 0.17642 0.0
H652 H 0.67809 0.09007 0.29659 0.0
H653 H 0.68816 0.05647 0.29293 0.0
H654 H 0.65771 0.06654 0.26812 0.0
H655 H 0.67201 0.04801 0.1896 0.0
H656 H 0.70241 0.03763 0.21422 0.0
H657 H 0.70235 0.05857 0.16477 0.0
H658 H 0.74752 0.147 0.21316 0.0
H659 H 0.78472 0.12522 0.251 0.0
H660 H 0.73766 0.0558 0.27018 0.0
C661 C 0.65459 0.10439 0.19009 0.0
C662 C 0.64693 0.12817 0.16982 0.0
C663 C 0.66555 0.14836 0.16437 0.0
C664 C 0.69119 0.14514 0.17989 0.0
C665 C 0.69791 0.1216 0.20047 0.0
C666 C 0.68021 0.10149 0.20513 0.0
C667 C 0.69219 0.07823 0.22889 0.0
C668 C 0.67821 0.07251 0.27432 0.0
C669 C 0.69225 0.05419 0.19748 0.0
C670 C 0.71944 0.08837 0.23683 0.0
C671 C 0.72232 0.11351 0.22063 0.0
C672 C 0.74557 0.12723 0.22561 0.0
C673 C 0.76651 0.11477 0.2473 0.0
C674 C 0.76407 0.0888 0.26319 0.0
C675 C 0.74019 0.07555 0.25787 0.0
H676 H 0.42393 0.84407 0.35161 0.0
H677 H 0.34271 0.82777 0.38144 0.0
H678 H 0.34975 0.78163 0.36158 0.0
H679 H 0.4277 0.80846 0.25545 0.0
H680 H 0.46033 0.79633 0.2634 0.0
H681 H 0.45075 0.82656 0.28938 0.0
H682 H 0.46398 0.80902 0.36905 0.0
H683 H 0.47397 0.7787 0.34325 0.0
H684 H 0.45059 0.77862 0.38917 0.0
H685 H 0.36286 0.74047 0.32351 0.0
H686 H 0.38203 0.70622 0.27468 0.0
H687 H 0.45521 0.74821 0.27192 0.0
C688 C 0.40779 0.83067 0.35547 0.0
C689 C 0.38275 0.8396 0.36809 0.0
C690 C 0.36211 0.82143 0.37213 0.0
C691 C 0.36593 0.79513 0.36097 0.0
C692 C 0.39058 0.78725 0.3466 0.0
C693 C 0.4113 0.80439 0.34459 0.0
C694 C 0.43504 0.79174 0.3233 0.0
C695 C 0.44395 0.80666 0.28035 0.0
C696 C 0.45721 0.78938 0.35829 0.0
C697 C 0.42402 0.76526 0.3113 0.0
C698 C 0.39842 0.76297 0.32556 0.0
C699 C 0.38309 0.74168 0.31342 0.0
C700 C 0.39407 0.72243 0.28551 0.0
C701 C 0.42015 0.72454 0.27037 0.0
C702 C 0.43548 0.74587 0.28432 0.0
H703 H 0.62962 0.38054 0.72951 0.0
H704 H 0.65074 0.35577 0.86617 0.0
H705 H 0.6962 0.36973 0.85233 0.0
H706 H 0.69163 0.35859 0.67632 0.0
H707 H 0.69127 0.38516 0.636 0.0
H708 H 0.6611 0.372 0.65737 0.0
H709 H 0.6479 0.41873 0.68321 0.0
H710 H 0.67854 0.43144 0.66333 0.0
H711 H 0.66884 0.4363 0.72189 0.0
H712 H 0.73757 0.39048 0.82666 0.0
H713 H 0.77456 0.4114 0.78713 0.0
H714 H 0.72799 0.41882 0.66423 0.0
C715 C 0.64397 0.37788 0.75623 0.0
C716 C 0.63694 0.36729 0.79896 0.0
C717 C 0.65601 0.36378 0.83319 0.0
C718 C 0.68174 0.37172 0.82568 0.0
C719 C 0.68805 0.38246 0.78338 0.0
C720 C 0.66991 0.38497 0.74881 0.0
C721 C 0.68199 0.3966 0.70621 0.0
C722 C 0.68147 0.37692 0.66662 0.0
C723 C 0.66851 0.4223 0.69291 0.0
C724 C 0.70951 0.4012 0.72287 0.0
C725 C 0.71249 0.39301 0.76757 0.0
C726 C 0.73565 0.39657 0.79143 0.0
C727 C 0.75643 0.4086 0.76885 0.0
C728 C 0.75402 0.4165 0.72274 0.0
C729 C 0.73033 0.41261 0.69936 0.0
H730 H 0.06061 0.73968 0.24608 0.0
H731 H 0.13468 0.78026 0.2412 0.0
H732 H 0.15535 0.74411 0.28357 0.0
H733 H 0.06771 0.71024 0.35803 0.0
H734 H 0.05313 0.67976 0.34115 0.0
H735 H 0.0436 0.7096 0.31329 0.0
H736 H 0.05549 0.68975 0.23448 0.0
H737 H 0.06479 0.6598 0.26203 0.0
H738 H 0.08763 0.67655 0.22568 0.0
H739 H 0.16806 0.7035 0.32519 0.0
H740 H 0.17333 0.65894 0.35508 0.0
H741 H 0.09128 0.64395 0.33009 0.0
C742 C 0.08113 0.741 0.25432 0.0
C743 C 0.09606 0.76276 0.24074 0.0
C744 C 0.12295 0.76366 0.25125 0.0
C745 C 0.1348 0.74336 0.27559 0.0
C746 C 0.11952 0.72221 0.28868 0.0
C747 C 0.09337 0.72068 0.27783 0.0
C748 C 0.08187 0.69486 0.29269 0.0
C749 C 0.0603 0.69887 0.32842 0.0
C750 C 0.07186 0.67933 0.25126 0.0
C751 C 0.10564 0.68214 0.3136 0.0
C752 C 0.12705 0.69838 0.31147 0.0
C753 C 0.15142 0.69062 0.32722 0.0
C754 C 0.15417 0.66526 0.34433 0.0
C755 C 0.13272 0.64785 0.34508 0.0
C756 C 0.10803 0.65676 0.33043 0.0
H757 H 0.82157 0.1518 0.78278 0.0
H758 H 0.83818 0.09013 0.87964 0.0
H759 H 0.79186 0.07703 0.87881 0.0
H760 H 0.75325 0.16652 0.82001 0.0
H761 H 0.74234 0.1706 0.76194 0.0
H762 H 0.77535 0.17878 0.77726 0.0
H763 H 0.7928 0.14761 0.71456 0.0
H764 H 0.75996 0.13968 0.6988 0.0
H765 H 0.78231 0.11406 0.71426 0.0
H766 H 0.74568 0.06784 0.86196 0.0
H767 H 0.70497 0.05818 0.8213 0.0
H768 H 0.71869 0.12414 0.73136 0.0
C769 C 0.81517 0.13596 0.80454 0.0
C770 C 0.83306 0.12204 0.83161 0.0
C771 C 0.82451 0.10093 0.85874 0.0
C772 C 0.79827 0.09361 0.85892 0.0
C773 C 0.78101 0.10751 0.83144 0.0
C774 C 0.78916 0.12801 0.80422 0.0
C775 C 0.76774 0.13688 0.77236 0.0
C776 C 0.75916 0.16486 0.78359 0.0
C777 C 0.77621 0.13438 0.72205 0.0
C778 C 0.7467 0.11742 0.78451 0.0
C779 C 0.75444 0.1013 0.81981 0.0
C780 C 0.73922 0.0805 0.83465 0.0
C781 C 0.71607 0.07519 0.81129 0.0
C782 C 0.70872 0.09028 0.77284 0.0
C783 C 0.72369 0.11234 0.76074 0.0
H784 H 0.58687 0.08138 0.0239 0.0
H785 H 0.53777 0.14718 0.9895 0.0
H786 H 0.53569 0.13218 0.90947 0.0
H787 H 0.6253 0.08578 0.92784 0.0
H788 H 0.63004 0.05123 0.92027 0.0
H789 H 0.62349 0.06408 0.9762 0.0
H790 H 0.5839 0.03304 0.98411 0.0
H791 H 0.59033 0.02009 0.92798 0.0
H792 H 0.55874 0.03343 0.94118 0.0
H793 H 0.54222 0.11275 0.8332 0.0
H794 H 0.56053 0.09332 0.76362 0.0
H795 H 0.6078 0.04129 0.84641 0.0
C796 C 0.57512 0.09213 -0.00038 0.0
C797 C 0.56222 0.11522 0.01247 0.0
C798 C 0.54771 0.12943 0.97992 0.0
C799 C 0.54622 0.1209 0.93464 0.0
C800 C 0.55954 0.09824 0.92269 0.0
C801 C 0.57391 0.08415 0.95409 0.0
C802 C 0.58936 0.0627 0.93118 0.0
C803 C 0.61878 0.06618 0.93935 0.0
C804 C 0.58001 0.03571 0.94706 0.0
C805 C 0.58218 0.06758 0.88183 0.0
C806 C 0.56438 0.08766 0.87792 0.0
C807 C 0.55593 0.09679 0.83575 0.0
C808 C 0.5665 0.08559 0.7964 0.0
C809 C 0.58572 0.06581 0.79954 0.0
C810 C 0.5931 0.05629 0.84288 0.0
H811 H 0.38015 0.60842 0.50643 0.0
H812 H 0.40084 0.52657 0.51261 0.0
H813 H 0.42514 0.53114 0.43947 0.0
H814 H 0.37069 0.61348 0.38736 0.0
H815 H 0.38477 0.64559 0.38342 0.0
H816 H 0.36941 0.63528 0.43561 0.0
H817 H 0.41182 0.64558 0.48023 0.0
H818 H 0.42738 0.65575 0.42803 0.0
H819 H 0.44199 0.63067 0.4627 0.0
H820 H 0.44366 0.54467 0.36218 0.0
H821 H 0.45739 0.56633 0.29036 0.0
H822 H 0.42766 0.63995 0.34096 0.0
C823 C 0.38965 0.59139 0.4922 0.0
C824 C 0.38835 0.56702 0.51422 0.0
C825 C 0.40156 0.54531 0.49562 0.0
C826 C 0.41536 0.54778 0.45436 0.0
C827 C 0.41617 0.57222 0.43334 0.0
C828 C 0.40392 0.59368 0.45208 0.0
C829 C 0.40784 0.61789 0.42365 0.0
C830 C 0.38162 0.62868 0.40649 0.0
C831 C 0.42318 0.6387 0.45024 0.0
C832 C 0.42377 0.60669 0.38512 0.0
C833 C 0.42829 0.5803 0.39101 0.0
C834 C 0.4407 0.5654 0.35768 0.0
C835 C 0.44837 0.5778 0.31712 0.0
C836 C 0.44394 0.6048 0.31091 0.0
C837 C 0.43192 0.61943 0.34562 0.0
H838 H 0.91286 0.36352 0.99026 0.0
H839 H 0.90556 0.43397 0.07129 0.0
H840 H 0.88864 0.45742 0.00342 0.0
H841 H 0.93237 0.39498 0.88389 0.0
H842 H 0.91428 0.37201 0.84978 0.0
H843 H 0.9276 0.36209 0.90394 0.0
H844 H 0.88159 0.34734 0.92982 0.0
H845 H 0.86805 0.35774 0.87615 0.0
H846 H 0.85512 0.37042 0.9289 0.0
H847 H 0.86892 0.47176 0.92702 0.0
H848 H 0.8531 0.47691 0.84749 0.0
H849 H 0.87375 0.39644 0.81952 0.0
C850 C 0.90811 0.38401 0.9937 0.0
C851 C 0.91046 0.39694 0.03598 0.0
C852 C 0.90409 0.42376 0.03902 0.0
C853 C 0.8943 0.43715 0.00079 0.0
C854 C 0.89129 0.42343 0.95998 0.0
C855 C 0.89846 0.39755 0.95618 0.0
C856 C 0.89296 0.38685 0.90917 0.0
C857 C 0.91831 0.37851 0.88529 0.0
C858 C 0.87326 0.36426 0.91117 0.0
C859 C 0.88127 0.41066 0.88702 0.0
C860 C 0.88031 0.4316 0.91666 0.0
C861 C 0.86977 0.45553 0.90347 0.0
C862 C 0.86062 0.45821 0.85845 0.0
C863 C 0.86226 0.43709 0.82739 0.0
C864 C 0.87238 0.413 0.84235 0.0
H865 H 0.05551 0.90642 0.33627 0.0
H866 H 0.04532 0.82374 0.36308 0.0
H867 H 0.05645 0.83116 0.44404 0.0
H868 H 0.11047 0.91403 0.39958 0.0
H869 H 0.10313 0.94618 0.42085 0.0
H870 H 0.08967 0.93555 0.36736 0.0
H871 H 0.04301 0.94506 0.39662 0.0
H872 H 0.0563 0.95615 0.45019 0.0
H873 H 0.03211 0.93069 0.44946 0.0
H874 H 0.07536 0.84612 0.51775 0.0
H875 H 0.09878 0.8681 0.58067 0.0
H876 H 0.09639 0.94105 0.50625 0.0
C877 C 0.05488 0.88991 0.3593 0.0
C878 C 0.0495 0.86447 0.34327 0.0
C879 C 0.0492 0.84342 0.37456 0.0
C880 C 0.05549 0.84745 0.42062 0.0
C881 C 0.06171 0.87265 0.43478 0.0
C882 C 0.06113 0.89359 0.40516 0.0
C883 C 0.07104 0.91824 0.42767 0.0
C884 C 0.095 0.92912 0.40236 0.0
C885 C 0.04931 0.93874 0.4312 0.0
C886 C 0.07828 0.90771 0.47415 0.0
C887 C 0.07246 0.88141 0.47768 0.0
C888 C 0.07943 0.86679 0.51581 0.0
C889 C 0.09278 0.87934 0.55114 0.0
C890 C 0.09891 0.90615 0.54796 0.0
C891 C 0.09133 0.92063 0.50945 0.0
H892 H 0.58651 0.40393 0.95802 0.0
H893 H 0.5555 0.32744 0.99127 0.0
H894 H 0.56678 0.3343 0.07213 0.0
H895 H 0.64082 0.40082 0.03279 0.0
H896 H 0.63962 0.43466 0.04928 0.0
H897 H 0.62769 0.42479 0.99409 0.0
H898 H 0.5829 0.44582 0.01166 0.0
H899 H 0.59481 0.45604 0.0667 0.0
H900 H 0.56566 0.4366 0.06282 0.0
H901 H 0.58221 0.34836 0.14782 0.0
H902 H 0.5999 0.3696 0.21628 0.0
H903 H 0.62227 0.43687 0.13501 0.0
C904 C 0.5817 0.38883 0.98247 0.0
C905 C 0.57006 0.36518 0.96846 0.0
C906 C 0.56446 0.34568 0.00129 0.0
C907 C 0.57078 0.34939 0.04725 0.0
C908 C 0.58278 0.37263 0.05974 0.0
C909 C 0.58811 0.3921 0.02854 0.0
C910 C 0.60185 0.41488 0.0511 0.0
C911 C 0.62911 0.41902 0.03059 0.0
C912 C 0.58531 0.43981 0.04788 0.0
C913 C 0.60346 0.40504 0.0998 0.0
C914 C 0.59223 0.38065 0.10383 0.0
C915 C 0.59099 0.36748 0.14522 0.0
C916 C 0.60109 0.37975 0.18387 0.0
C917 C 0.61241 0.40491 0.18088 0.0
C918 C 0.61394 0.41756 0.13814 0.0
H919 H 0.13812 0.59202 0.50872 0.0
H920 H 0.08562 0.52915 0.47205 0.0
H921 H 0.06161 0.53568 0.54451 0.0
H922 H 0.13781 0.58179 0.63399 0.0
H923 H 0.13816 0.61637 0.64487 0.0
H924 H 0.15374 0.60354 0.5945 0.0
H925 H 0.12591 0.63444 0.54423 0.0
H926 H 0.10984 0.64708 0.5941 0.0
H927 H 0.0909 0.63322 0.54832 0.0
H928 H 0.04195 0.55114 0.61873 0.0
H929 H 0.02768 0.57499 0.68813 0.0
H930 H 0.09057 0.63029 0.66982 0.0
C931 C 0.12215 0.57899 0.5166 0.0
C932 C 0.1139 0.55983 0.48531 0.0
C933 C 0.09233 0.54377 0.496 0.0
C934 C 0.07863 0.54734 0.53695 0.0
C935 C 0.08668 0.56718 0.56622 0.0
C936 C 0.10799 0.58269 0.55654 0.0
C937 C 0.11114 0.6044 0.5909 0.0
C938 C 0.13673 0.60134 0.61765 0.0
C939 C 0.10933 0.63137 0.56799 0.0
C940 C 0.08785 0.59916 0.62081 0.0
C941 C 0.07429 0.57728 0.60675 0.0
C942 C 0.05234 0.56834 0.62994 0.0
C943 C 0.04429 0.58201 0.66889 0.0
C944 C 0.05779 0.60463 0.68298 0.0
C945 C 0.07965 0.61339 0.65863 0.0
H946 H 0.91774 0.07361 0.96338 0.0
H947 H 0.90083 0.15435 -0.00219 0.0
H948 H 0.88464 0.14069 0.07263 0.0
H949 H 0.8642 0.04509 0.01431 0.0
H950 H 0.88045 0.01715 0.03841 0.0
H951 H 0.89349 0.03268 0.98821 0.0
H952 H 0.93778 0.03953 0.02868 0.0
H953 H 0.92511 0.02341 0.07869 0.0
H954 H 0.9387 0.0557 0.08333 0.0
H955 H 0.86263 0.11867 0.13598 0.0
H956 H 0.8465 0.08963 0.19683 0.0
H957 H 0.88203 0.02328 0.12934 0.0
C958 C 0.91138 0.08845 0.98719 0.0
C959 C 0.91013 0.11501 0.9741 0.0
C960 C 0.90161 0.13382 0.00641 0.0
C961 C 0.89229 0.1263 0.04915 0.0
C962 C 0.89224 0.09995 0.05986 0.0
C963 C 0.90248 0.08133 0.03086 0.0
C964 C 0.90001 0.0543 0.05177 0.0
C965 C 0.88356 0.03625 0.02134 0.0
C966 C 0.92701 0.04254 0.06118 0.0
C967 C 0.88589 0.06076 0.09595 0.0
C968 C 0.88128 0.08723 0.09924 0.0
C969 C 0.86663 0.09797 0.1345 0.0
C970 C 0.85727 0.08133 0.16849 0.0
C971 C 0.86305 0.05441 0.16741 0.0
C972 C 0.87747 0.04388 0.1307 0.0
H973 H 0.46039 0.86227 0.63598 0.0
H974 H 0.44556 0.93248 0.71462 0.0
H975 H 0.43874 0.95701 0.64336 0.0
H976 H 0.49156 0.89576 0.53414 0.0
H977 H 0.47618 0.87324 0.49533 0.0
H978 H 0.48559 0.8626 0.55168 0.0
H979 H 0.43828 0.84732 0.5673 0.0
H980 H 0.42885 0.85776 0.51124 0.0
H981 H 0.41189 0.87019 0.56056 0.0
H982 H 0.42464 0.97147 0.56618 0.0
H983 H 0.40435 0.97402 0.48946 0.0
H984 H 0.42969 0.89532 0.46077 0.0
C985 C 0.45648 0.88297 0.63823 0.0
C986 C 0.4534 0.89537 0.68089 0.0
C987 C 0.44788 0.92245 0.68233 0.0
C988 C 0.44421 0.93665 0.64199 0.0
C989 C 0.44649 0.92362 0.60047 0.0
C990 C 0.45276 0.89741 0.59832 0.0
C991 C 0.45073 0.88713 0.55009 0.0
C992 C 0.47762 0.87922 0.53173 0.0
C993 C 0.43127 0.86428 0.54717 0.0
C994 C 0.44064 0.91116 0.52602 0.0
C995 C 0.43892 0.93225 0.55534 0.0
C996 C 0.42676 0.95546 0.54239 0.0
C997 C 0.41536 0.95683 0.4989 0.0
C998 C 0.41638 0.93513 0.46939 0.0
C999 C 0.42977 0.91243 0.48248 0.0
H1000 H 0.41747 0.90233 0.97228 0.0
H1001 H 0.4122 0.81822 0.98575 0.0
H1002 H 0.3986 0.82313 0.06592 0.0
H1003 H 0.43954 0.9167 0.08804 0.0
H1004 H 0.41973 0.94558 0.0929 0.0
H1005 H 0.43153 0.93537 0.03779 0.0
H1006 H 0.38418 0.9349 0.00723 0.0
H1007 H 0.37219 0.94472 0.06244 0.0
H1008 H 0.35996 0.91545 0.03598 0.0
H1009 H 0.38578 0.83681 0.14396 0.0
H1010 H 0.37329 0.85887 0.21581 0.0
H1011 H 0.38221 0.93409 0.15011 0.0
C1012 C 0.41398 0.88498 0.99245 0.0
C1013 C 0.41654 0.85985 0.97324 0.0
C1014 C 0.41092 0.83762 0.00017 0.0
C1015 C 0.40303 0.8402 0.04562 0.0
C1016 C 0.40023 0.8652 0.0633 0.0
C1017 C 0.40539 0.88723 0.03765 0.0
C1018 C 0.39932 0.9118 0.06433 0.0
C1019 C 0.424 0.92833 0.07118 0.0
C1020 C 0.37762 0.92764 0.0411 0.0
C1021 C 0.39004 0.90007 0.10893 0.0
C1022 C 0.39099 0.87314 0.10763 0.0
C1023 C 0.38463 0.85786 0.14532 0.0
C1024 C 0.37749 0.87048 0.18576 0.0
C1025 C 0.37629 0.89799 0.1877 0.0
C1026 C 0.3823 0.91298 0.14876 0.0
H1027 H 0.61969 0.39212 0.48916 0.0
H1028 H 0.58323 0.46722 0.46569 0.0
H1029 H 0.55742 0.46166 0.53682 0.0
H1030 H 0.56266 0.36013 0.5264 0.0
H1031 H 0.57925 0.34012 0.56781 0.0
H1032 H 0.59622 0.35113 0.51758 0.0
H1033 H 0.6321 0.3721 0.56805 0.0
H1034 H 0.61545 0.3608 0.61842 0.0
H1035 H 0.62293 0.39493 0.61199 0.0
H1036 H 0.53697 0.44779 0.61252 0.0
H1037 H 0.52205 0.42596 0.6836 0.0
H1038 H 0.56874 0.35829 0.65006 0.0
C1039 C 0.60667 0.40768 0.49939 0.0
C1040 C 0.60373 0.43033 0.47265 0.0
C1041 C 0.58588 0.44986 0.48624 0.0
C1042 C 0.57117 0.44683 0.52638 0.0
C1043 C 0.57426 0.42394 0.55158 0.0
C1044 C 0.59148 0.40467 0.53832 0.0
C1045 C 0.59042 0.38132 0.56961 0.0
C1046 C 0.58161 0.35673 0.54379 0.0
C1047 C 0.61678 0.37705 0.59342 0.0
C1048 C 0.56993 0.39039 0.60286 0.0
C1049 C 0.56106 0.41516 0.59245 0.0
C1050 C 0.54343 0.42824 0.62051 0.0
C1051 C 0.53502 0.41574 0.66054 0.0
C1052 C 0.54379 0.3903 0.6711 0.0
C1053 C 0.56112 0.3774 0.64165 0.0
H1054 H 0.08479 0.58532 0.97001 0.0
H1055 H 0.05142 0.65967 0.01037 0.0
H1056 H 0.06529 0.65185 0.08969 0.0
H1057 H 0.06905 0.5499 0.07686 0.0
H1058 H 0.09916 0.53187 0.07558 0.0
H1059 H 0.08412 0.54209 0.02295 0.0
H1060 H 0.127 0.56523 -0.00016 0.0
H1061 H 0.14196 0.55569 0.05289 0.0
H1062 H 0.14067 0.58964 0.0371 0.0
H1063 H 0.08566 0.63838 0.16165 0.0
H1064 H 0.10717 0.61724 0.22682 0.0
H1065 H 0.12818 0.55145 0.141 0.0
C1066 C 0.0797 0.59957 0.99582 0.0
C1067 C 0.06696 0.62307 0.9842 0.0
C1068 C 0.06114 0.64154 0.01866 0.0
C1069 C 0.06901 0.63732 0.0637 0.0
C1070 C 0.08262 0.61455 0.07357 0.0
C1071 C 0.08758 0.59575 0.04098 0.0
C1072 C 0.10345 0.57349 0.06062 0.0
C1073 C 0.08802 0.54782 0.05891 0.0
C1074 C 0.12983 0.57088 0.03614 0.0
C1075 C 0.10689 0.58295 0.10921 0.0
C1076 C 0.0947 0.60672 0.11565 0.0
C1077 C 0.09507 0.61967 0.15727 0.0
C1078 C 0.10741 0.60754 0.19392 0.0
C1079 C 0.11921 0.58272 0.18872 0.0
C1080 C 0.11952 0.57052 0.14559 0.0
H1081 H 0.86107 0.05472 0.4959 0.0
H1082 H 0.93244 0.07224 0.42285 0.0
H1083 H 0.95326 0.08532 0.49541 0.0
H1084 H 0.86077 0.10567 0.56958 0.0
H1085 H 0.84939 0.0882 0.61915 0.0
H1086 H 0.84156 0.07654 0.56293 0.0
H1087 H 0.86366 0.03093 0.58141 0.0
H1088 H 0.86881 0.04339 0.63831 0.0
H1089 H 0.89577 0.03091 0.60551 0.0
H1090 H 0.96344 0.10348 0.57229 0.0
H1091 H 0.96447 0.12085 0.6507 0.0
H1092 H 0.88729 0.08947 0.67567 0.0
C1093 C 0.88132 0.06062 0.49548 0.0
C1094 C 0.89521 0.06253 0.4539 0.0
C1095 C 0.9216 0.07038 0.45443 0.0
C1096 C 0.93353 0.07793 0.49543 0.0
C1097 C 0.91897 0.0768 0.53561 0.0
C1098 C 0.89369 0.06764 0.53622 0.0
C1099 C 0.88201 0.06944 0.58371 0.0
C1100 C 0.85696 0.08594 0.58382 0.0
C1101 C 0.87724 0.04207 0.60343 0.0
C1102 C 0.90392 0.08294 0.60888 0.0
C1103 C 0.9252 0.08662 0.58061 0.0
C1104 C 0.94714 0.10021 0.59501 0.0
C1105 C 0.94741 0.11021 0.63948 0.0
C1106 C 0.92594 0.10648 0.66923 0.0
C1107 C 0.90406 0.09235 0.65383 0.0
H1108 H 0.3672 0.55932 0.84874 0.0
H1109 H 0.37816 0.62994 0.76937 0.0
H1110 H 0.39551 0.65233 0.83727 0.0
H1111 H 0.34895 0.59151 0.95642 0.0
H1112 H 0.36638 0.56829 0.99106 0.0
H1113 H 0.35293 0.5584 0.93695 0.0
H1114 H 0.39856 0.54241 0.91152 0.0
H1115 H 0.41224 0.5527 0.96521 0.0
H1116 H 0.42561 0.5648 0.91237 0.0
H1117 H 0.41347 0.66651 0.91154 0.0
H1118 H 0.42832 0.67286 0.99076 0.0
H1119 H 0.40705 0.59289 0.02254 0.0
C1120 C 0.37269 0.57965 0.84616 0.0
C1121 C 0.37127 0.59301 0.80413 0.0
C1122 C 0.37916 0.61943 0.80146 0.0
C1123 C 0.38907 0.63229 0.83972 0.0
C1124 C 0.39111 0.61839 0.88032 0.0
C1125 C 0.38297 0.59277 0.88408 0.0
C1126 C 0.38817 0.58225 0.93158 0.0
C1127 C 0.36258 0.57467 0.95541 0.0
C1128 C 0.40728 0.55917 0.93005 0.0
C1129 C 0.4005 0.60596 0.95367 0.0
C1130 C 0.40198 0.62654 0.92338 0.0
C1131 C 0.41235 0.65059 0.93573 0.0
C1132 C 0.4208 0.65398 0.98075 0.0
C1133 C 0.4189 0.63337 0.01282 0.0
C1134 C 0.40904 0.60892 -0.00129 0.0
H1135 H 0.89085 0.37626 0.32041 0.0
H1136 H 0.96978 0.35252 0.35281 0.0
H1137 H 0.96416 0.36953 0.43157 0.0
H1138 H 0.89132 0.4357 0.38145 0.0
H1139 H 0.85793 0.43293 0.39985 0.0
H1140 H 0.86818 0.41797 0.3472 0.0
H1141 H 0.85132 0.37313 0.37567 0.0
H1142 H 0.84054 0.38821 0.4278 0.0
H1143 H 0.86229 0.36063 0.42986 0.0
H1144 H 0.95021 0.39205 0.50529 0.0
H1145 H 0.92705 0.41158 0.57113 0.0
H1146 H 0.85751 0.41966 0.4883 0.0
C1147 C 0.90688 0.37432 0.34423 0.0
C1148 C 0.93076 0.36315 0.33075 0.0
C1149 C 0.95124 0.36081 0.3628 0.0
C1150 C 0.94831 0.37067 0.40731 0.0
C1151 C 0.92475 0.38253 0.41887 0.0
C1152 C 0.90426 0.3839 0.38841 0.0
C1153 C 0.88084 0.39728 0.40887 0.0
C1154 C 0.87419 0.42246 0.38279 0.0
C1155 C 0.85736 0.37869 0.41072 0.0
C1156 C 0.89121 0.40319 0.45589 0.0
C1157 C 0.91668 0.39494 0.46097 0.0
C1158 C 0.93025 0.39848 0.50172 0.0
C1159 C 0.91705 0.40983 0.53872 0.0
C1160 C 0.89055 0.41711 0.53459 0.0
C1161 C 0.87778 0.41427 0.49233 0.0
H1162 H 0.11195 0.89876 0.82901 0.0
H1163 H 0.13239 0.97969 0.85321 0.0
H1164 H 0.12047 0.97456 0.93476 0.0
H1165 H 0.05703 0.89567 0.90452 0.0
H1166 H 0.06417 0.86299 0.92333 0.0
H1167 H 0.07367 0.87336 0.86696 0.0
H1168 H 0.12154 0.86063 0.88399 0.0
H1169 H 0.11216 0.84998 0.94019 0.0
H1170 H 0.13751 0.87398 0.93358 0.0
H1171 H 0.10523 0.96026 0.01385 0.0
H1172 H 0.09264 0.93695 0.08466 0.0
H1173 H 0.08394 0.8654 0.00713 0.0
C1174 C 0.11388 0.91548 0.85135 0.0
C1175 C 0.12297 0.93967 0.83477 0.0
C1176 C 0.12554 0.96094 0.86529 0.0
C1177 C 0.11865 0.95826 0.91152 0.0
C1178 C 0.10945 0.93414 0.92657 0.0
C1179 C 0.10738 0.91307 0.89739 0.0
C1180 C 0.09802 0.88894 0.92202 0.0
C1181 C 0.07166 0.87971 0.90307 0.0
C1182 C 0.11854 0.86711 0.91982 0.0
C1183 C 0.09526 0.89962 0.96983 0.0
C1184 C 0.10156 0.9258 0.97183 0.0
C1185 C 0.10032 0.93975 0.01267 0.0
C1186 C 0.09303 0.92642 0.05261 0.0
C1187 C 0.08746 0.89938 0.05133 0.0
C1188 C 0.08827 0.88604 0.00921 0.0
H1189 H 0.58358 0.05843 0.50805 0.0
H1190 H 0.66379 0.08412 0.49398 0.0
H1191 H 0.65377 0.10193 0.41801 0.0
H1192 H 0.5736 0.04261 0.38317 0.0
H1193 H 0.5404 0.05395 0.38524 0.0
H1194 H 0.555 0.03942 0.4351 0.0
H1195 H 0.54313 0.08075 0.48147 0.0
H1196 H 0.52935 0.09583 0.43154 0.0
H1197 H 0.55489 0.11209 0.46268 0.0
H1198 H 0.63395 0.12327 0.35094 0.0
H1199 H 0.60666 0.14023 0.28808 0.0
H1200 H 0.53961 0.09979 0.34337 0.0
C1201 C 0.59929 0.06685 0.48827 0.0
C1202 C 0.62443 0.07002 0.50705 0.0
C1203 C 0.64435 0.08158 0.48036 0.0
C1204 C 0.63886 0.09182 0.43721 0.0
C1205 C 0.61347 0.08998 0.42106 0.0
C1206 C 0.59415 0.07713 0.445 0.0
C1207 C 0.56816 0.07919 0.42079 0.0
C1208 C 0.55874 0.05219 0.40513 0.0
C1209 C 0.54769 0.09278 0.45094 0.0
C1210 C 0.57575 0.09608 0.38057 0.0
C1211 C 0.602 0.10208 0.38154 0.0
C1212 C 0.61346 0.11846 0.34941 0.0
C1213 C 0.59781 0.12828 0.3144 0.0
C1214 C 0.57117 0.12161 0.31197 0.0
C1215 C 0.5599 0.10543 0.34537 0.0
H1216 H 0.43102 0.98318 0.24118 0.0
H1217 H 0.36552 0.02886 0.28992 0.0
H1218 H 0.3856 0.06869 0.25787 0.0
H1219 H 0.47967 0.02808 0.26646 0.0
H1220 H 0.49888 0.02113 0.21638 0.0
H1221 H 0.47807 -0.00361 0.23995 0.0
H1222 H 0.45519 0.99153 0.16137 0.0
H1223 H 0.47578 0.01659 0.13775 0.0
H1224 H 0.44088 0.01975 0.13461 0.0
H1225 H 0.41513 0.10378 0.22806 0.0
H1226 H 0.45211 0.1314 0.20416 0.0
H1227 H 0.49665 0.06197 0.17125 0.0
C1228 C 0.42085 0.00155 0.24504 0.0
C1229 C 0.39687 0.00306 0.26827 0.0
C1230 C 0.38397 0.02736 0.2722 0.0
C1231 C 0.39513 0.05001 0.25392 0.0
C1232 C 0.41884 0.04781 0.23113 0.0
C1233 C 0.43145 0.02416 0.22644 0.0
C1234 C 0.45732 0.02711 0.20256 0.0
C1235 C 0.4798 0.01763 0.23318 0.0
C1236 C 0.45727 0.0129 0.15632 0.0
C1237 C 0.45786 0.05632 0.19625 0.0
C1238 C 0.43539 0.06793 0.21245 0.0
C1239 C 0.43259 0.09492 0.21441 0.0
C1240 C 0.45368 0.11043 0.20082 0.0
C1241 C 0.47713 0.09881 0.18551 0.0
C1242 C 0.47878 0.07145 0.18176 0.0
H1243 H 0.4928 0.43618 0.81778 0.0
H1244 H 0.44194 0.36889 0.82358 0.0
H1245 H 0.40509 0.39604 0.79777 0.0
H1246 H 0.44171 0.488 0.84577 0.0
H1247 H 0.45634 0.51006 0.80529 0.0
H1248 H 0.47638 0.48725 0.83623 0.0
H1249 H 0.49433 0.47015 0.75914 0.0
H1250 H 0.47359 0.49196 0.72778 0.0
H1251 H 0.47204 0.45738 0.71719 0.0
H1252 H 0.37666 0.42763 0.75756 0.0
H1253 H 0.35639 0.46362 0.71452 0.0
H1254 H 0.42677 0.50965 0.73086 0.0
C1255 C 0.47355 0.42761 0.81631 0.0
C1256 C 0.46991 0.40069 0.82342 0.0
C1257 C 0.44481 0.38966 0.819 0.0
C1258 C 0.42387 0.40488 0.80412 0.0
C1259 C 0.42854 0.43097 0.79385 0.0
C1260 C 0.45261 0.44244 0.80062 0.0
C1261 C 0.45345 0.46976 0.78118 0.0
C1262 C 0.45718 0.48997 0.8194 0.0
C1263 C 0.4746 0.47244 0.74414 0.0
C1264 C 0.4265 0.47142 0.76079 0.0
C1265 C 0.41234 0.449 0.76897 0.0
C1266 C 0.38734 0.44551 0.75172 0.0
C1267 C 0.37612 0.46593 0.72691 0.0
C1268 C 0.39004 0.48939 0.71927 0.0
C1269 C 0.41572 0.49189 0.7358 0.0
H1270 H 0.9886 0.4307 0.22134 0.0
H1271 H 0.03765 0.36563 0.18118 0.0
H1272 H 0.07645 0.38984 0.20722 0.0
H1273 H 0.03428 0.48278 0.19113 0.0
H1274 H 0.02492 0.50228 0.23964 0.0
H1275 H 0.00167 0.48061 0.21363 0.0
H1276 H 0.99407 0.45872 0.29239 0.0
H1277 H 0.01783 0.47981 0.31838 0.0
H1278 H 0.02133 0.44494 0.32275 0.0
H1279 H 0.10942 0.42011 0.24148 0.0
H1280 H 0.13482 0.45612 0.27535 0.0
H1281 H 0.06346 0.50011 0.29564 0.0
C1282 C 0.00754 0.42178 0.21681 0.0
C1283 C 0.01015 0.39636 0.19904 0.0
C1284 C 0.03525 0.38516 0.19463 0.0
C1285 C 0.05737 0.39868 0.20948 0.0
C1286 C 0.05394 0.42325 0.22871 0.0
C1287 C 0.02971 0.43482 0.23189 0.0
C1288 C 0.03114 0.46098 0.25542 0.0
C1289 C 0.0225 0.48296 0.22302 0.0
C1290 C 0.01514 0.4611 0.29987 0.0
C1291 C 0.05997 0.46227 0.26516 0.0
C1292 C 0.0728 0.44035 0.24949 0.0
C1293 C 0.09962 0.4374 0.25384 0.0
C1294 C 0.11383 0.45787 0.27332 0.0
C1295 C 0.10109 0.48084 0.28832 0.0
C1296 C 0.07375 0.48267 0.28515 0.0
H1297 H 0.05811 0.99176 0.71894 0.0
H1298 H 0.1231 0.04333 0.68942 0.0
H1299 H 0.09857 0.0802 0.72235 0.0
H1300 H 0.0066 0.03842 0.69532 0.0
H1301 H 0.98649 0.02604 0.74087 0.0
H1302 H 0.00886 0.00466 0.71199 0.0
H1303 H 0.02942 0.99281 0.79027 0.0
H1304 H 0.0077 0.01489 0.81918 0.0
H1305 H 0.04242 0.01834 0.82588 0.0
H1306 H 0.06755 0.11091 0.76164 0.0
H1307 H 0.02995 0.13439 0.79428 0.0
H1308 H 0.98674 0.06164 0.80046 0.0
C1309 C 0.06707 0.01086 0.7184 0.0
C1310 C 0.09256 0.01461 0.70162 0.0
C1311 C 0.10356 0.03997 0.702 0.0
C1312 C 0.08989 0.06099 0.72099 0.0
C1313 C 0.06534 0.05624 0.73938 0.0
C1314 C 0.05388 0.03191 0.73751 0.0
C1315 C 0.02738 0.03181 0.75981 0.0
C1316 C 0.00608 0.02484 0.72492 0.0
C1317 C 0.02671 0.01337 0.80124 0.0
C1318 C 0.02565 0.05996 0.77445 0.0
C1319 C 0.04776 0.07374 0.76265 0.0
C1320 C 0.05012 0.10034 0.77108 0.0
C1321 C 0.02873 0.11346 0.78994 0.0
C1322 C 0.00536 0.09988 0.79996 0.0
C1323 C 0.00436 0.07261 0.79379 0.0
H1324 H 0.55818 0.9943 0.70097 0.0
H1325 H 0.62789 0.94933 0.67319 0.0
H1326 H 0.60978 0.91239 0.71736 0.0
H1327 H 0.55328 0.97697 0.81363 0.0
H1328 H 0.51824 0.97543 0.81575 0.0
H1329 H 0.53405 -0.00342 0.77526 0.0
H1330 H 0.51012 0.97435 0.70741 0.0
H1331 H 0.49306 0.95431 0.74802 0.0
H1332 H 0.51108 0.93934 0.70218 0.0
H1333 H 0.58484 0.88164 0.7688 0.0
H1334 H 0.55195 0.85713 0.81325 0.0
H1335 H 0.50216 0.92538 0.81465 0.0
C1336 C 0.56909 0.97623 0.70221 0.0
C1337 C 0.59419 0.9744 0.68306 0.0
C1338 C 0.60838 0.95082 0.68702 0.0
C1339 C 0.59842 0.92995 0.71256 0.0
C1340 C 0.57448 0.93324 0.73415 0.0
C1341 C 0.55979 0.9556 0.72848 0.0
C1342 C 0.53545 0.95507 0.75734 0.0
C1343 C 0.53527 0.97734 0.79256 0.0
C1344 C 0.51099 0.95579 0.72694 0.0
C1345 C 0.53872 0.92892 0.78031 0.0
C1346 C 0.56127 0.91653 0.76644 0.0
C1347 C 0.56725 0.89123 0.78028 0.0
C1348 C 0.54871 0.8776 0.80615 0.0
C1349 C 0.5248 0.88953 0.81812 0.0
C1350 C 0.52061 0.91601 0.80744 0.0
H1351 H 0.56308 0.4875 0.25804 0.0
H1352 H 0.6337 0.5334 0.27212 0.0
H1353 H 0.61299 0.56945 0.22977 0.0
H1354 H 0.54724 0.5084 0.144 0.0
H1355 H 0.51266 0.50923 0.15435 0.0
H1356 H 0.53295 0.48675 0.18551 0.0
H1357 H 0.51634 0.50545 0.26264 0.0
H1358 H 0.49539 0.52724 0.23163 0.0
H1359 H 0.51817 0.54008 0.27267 0.0
H1360 H 0.58427 0.6009 0.18907 0.0
H1361 H 0.54745 0.6276 0.16157 0.0
H1362 H 0.49666 0.56032 0.16998 0.0
C1363 C 0.5741 0.50526 0.25284 0.0
C1364 C 0.59997 0.50768 0.26851 0.0
C1365 C 0.61382 0.53114 0.26046 0.0
C1366 C 0.60234 0.5516 0.23605 0.0
C1367 C 0.57715 0.54816 0.21959 0.0
C1368 C 0.56308 0.52573 0.22813 0.0
C1369 C 0.53598 0.52733 0.20824 0.0
C1370 C 0.53199 0.5067 0.1708 0.0
C1371 C 0.51526 0.5249 0.24604 0.0
C1372 C 0.53676 0.55449 0.18822 0.0
C1373 C 0.56082 0.56604 0.19459 0.0
C1374 C 0.56548 0.59197 0.1831 0.0
C1375 C 0.54457 0.60692 0.16719 0.0
C1376 C 0.5195 0.59577 0.16284 0.0
C1377 C 0.51588 0.56898 0.17135 0.0
H1378 H 0.92441 0.49236 0.73183 0.0
H1379 H 0.86256 0.54401 0.68629 0.0
H1380 H 0.8845 0.58097 0.72402 0.0
H1381 H 0.93315 0.52107 0.84164 0.0
H1382 H 0.96803 0.51716 0.84175 0.0
H1383 H 0.94791 0.49463 0.81041 0.0
H1384 H 0.97335 0.50451 0.73573 0.0
H1385 H 0.9941 0.52626 0.76728 0.0
H1386 H 0.9771 0.53786 0.71741 0.0
H1387 H 0.91306 0.61211 0.76619 0.0
H1388 H 0.94969 0.6365 0.80013 0.0
H1389 H 0.99162 0.56405 0.82075 0.0
C1390 C 0.91564 0.5115 0.72899 0.0
C1391 C 0.89176 0.51528 0.70604 0.0
C1392 C 0.88087 0.54064 0.70364 0.0
C1393 C 0.89303 0.5617 0.72535 0.0
C1394 C 0.91592 0.55699 0.74943 0.0
C1395 C 0.92733 0.53263 0.75075 0.0
C1396 C 0.95234 0.53288 0.77794 0.0
C1397 C 0.95021 0.51539 0.82045 0.0
C1398 C 0.97559 0.52492 0.74779 0.0
C1399 C 0.9535 0.56136 0.79098 0.0
C1400 C 0.93211 0.57486 0.77471 0.0
C1401 C 0.92977 0.60175 0.77952 0.0
C1402 C 0.95054 0.6154 0.79911 0.0
C1403 C 0.97324 0.60206 0.8135 0.0
C1404 C 0.97418 0.57462 0.81131 0.0
H1405 H 0.91641 0.98937 0.27041 0.0
H1406 H 0.8526 0.93499 0.28765 0.0
H1407 H 0.87871 0.90058 0.24892 0.0
H1408 H 0.9345 0.9668 0.15681 0.0
H1409 H 0.96866 0.97259 0.16659 0.0
H1410 H 0.94463 0.9925 0.19482 0.0
H1411 H 0.96433 0.98071 0.2739 0.0
H1412 H 0.98872 0.96142 0.2458 0.0
H1413 H 0.9684 0.94688 0.28908 0.0
H1414 H 0.91399 0.87176 0.21481 0.0
H1415 H 0.9551 0.85083 0.19083 0.0
H1416 H 0.99302 0.92643 0.18934 0.0
C1417 C 0.90807 0.97008 0.26665 0.0
C1418 C 0.88298 0.96433 0.28307 0.0
C1419 C 0.87215 0.93934 0.27601 0.0
C1420 C 0.88667 0.91992 0.25368 0.0
C1421 C 0.91141 0.92637 0.23741 0.0
C1422 C 0.92184 0.95096 0.24336 0.0
C1423 C 0.94877 0.95321 0.22336 0.0
C1424 C 0.94915 0.97241 0.183 0.0
C1425 C 0.96872 0.96099 0.26023 0.0
C1426 C 0.95265 0.92556 0.20736 0.0
C1427 C 0.93082 0.91037 0.21514 0.0
C1428 C 0.93098 0.88355 0.20768 0.0
C1429 C 0.9544 0.87185 0.19399 0.0
C1430 C 0.97722 0.88705 0.18802 0.0
C1431 C 0.97583 0.91434 0.19265 0.0
H1432 H 0.51931 0.18384 0.02624 0.0
H1433 H 0.48321 0.23629 0.12267 0.0
H1434 H 0.465 0.26202 0.05835 0.0
H1435 H 0.54433 0.22801 0.96213 0.0
H1436 H 0.54079 0.21203 0.90762 0.0
H1437 H 0.54209 0.19298 0.95862 0.0
H1438 H 0.49777 0.17176 0.93838 0.0
H1439 H 0.49641 0.1909 0.88675 0.0
H1440 H 0.46988 0.19209 0.92701 0.0
H1441 H 0.4616 0.28786 0.98622 0.0
H1442 H 0.47536 0.31182 0.91696 0.0
H1443 H 0.51563 0.24324 0.86839 0.0
C1444 C 0.50642 0.19999 0.03352 0.0
C1445 C 0.50233 0.2081 0.0788 0.0
C1446 C 0.48605 0.22962 0.08793 0.0
C1447 C 0.47566 0.24424 0.05155 0.0
C1448 C 0.48155 0.2367 0.00674 0.0
C1449 C 0.49635 0.21472 -0.00221 0.0
C1450 C 0.50482 0.21344 0.94841 0.0
C1451 C 0.53474 0.21155 0.94402 0.0
C1452 C 0.4914 0.1907 0.92368 0.0
C1453 C 0.49466 0.23934 0.93172 0.0
C1454 C 0.48024 0.25202 0.96506 0.0
C1455 C 0.47208 0.27779 0.95943 0.0
C1456 C 0.4799 0.29126 0.91999 0.0
C1457 C 0.49622 0.27903 0.88758 0.0
C1458 C 0.50262 0.25257 0.8925 0.0
H1459 H 0.24807 0.50631 0.3741 0.0
H1460 H 0.17624 0.48594 0.44146 0.0
H1461 H 0.20065 0.47041 0.50839 0.0
H1462 H 0.29348 0.45538 0.44318 0.0
H1463 H 0.31866 0.47985 0.44373 0.0
H1464 H 0.29796 0.4763 0.39435 0.0
H1465 H 0.28615 0.52519 0.39972 0.0
H1466 H 0.30617 0.52882 0.44903 0.0
H1467 H 0.27222 0.53769 0.45193 0.0
H1468 H 0.22872 0.47457 0.57497 0.0
H1469 H 0.25712 0.49647 0.63119 0.0
H1470 H 0.31195 0.5147 0.52374 0.0
C1471 C 0.23791 0.49653 0.40162 0.0
C1472 C 0.21058 0.49657 0.4026 0.0
C1473 C 0.19731 0.48522 0.43983 0.0
C1474 C 0.2111 0.47644 0.47809 0.0
C1475 C 0.23814 0.47916 0.47845 0.0
C1476 C 0.25157 0.48826 0.44043 0.0
C1477 C 0.27933 0.49539 0.45263 0.0
C1478 C 0.29849 0.47554 0.43228 0.0
C1479 C 0.2863 0.52342 0.43751 0.0
C1480 C 0.27812 0.49278 0.50407 0.0
C1481 C 0.25477 0.482 0.51826 0.0
C1482 C 0.24746 0.48205 0.56434 0.0
C1483 C 0.26365 0.49456 0.59617 0.0
C1484 C 0.28655 0.50721 0.58141 0.0
C1485 C 0.29453 0.50489 0.53553 0.0
H1486 H 0.98481 0.25701 0.1002 0.0
H1487 H -0.00271 0.32855 0.02567 0.0
H1488 H 0.00904 0.30346 0.95699 0.0
H1489 H 0.03126 0.21179 0.02405 0.0
H1490 H 0.00752 0.18607 0.0292 0.0
H1491 H 0.0134 0.20777 0.07658 0.0
H1492 H 0.96448 0.21796 0.07925 0.0
H1493 H 0.95808 0.19762 0.03114 0.0
H1494 H 0.94856 0.23146 0.02959 0.0
H1495 H 0.00468 0.27333 0.893 0.0
H1496 H 0.98354 0.24191 0.84083 0.0
H1497 H 0.96926 0.18999 0.95456 0.0
C1498 C 0.992 0.26711 0.07025 0.0
C1499 C 0.99095 0.29447 0.06809 0.0
C1500 C -0.00124 0.30752 0.02794 0.0
C1501 C 0.00546 0.29335 0.98882 0.0
C1502 C 0.00391 0.2662 0.99042 0.0
C1503 C -0.00226 0.25311 0.03052 0.0
C1504 C 0.99062 0.22495 0.02108 0.0
C1505 C 0.01198 0.20656 0.03876 0.0
C1506 C 0.96384 0.21765 0.04137 0.0
C1507 C 0.99025 0.22533 0.96947 0.0
C1508 C -0.00041 0.24867 0.95237 0.0
C1509 C -0.0019 0.25469 0.90589 0.0
C1510 C 0.98596 0.23686 0.87651 0.0
C1511 C 0.97481 0.21382 0.89418 0.0
C1512 C 0.97785 0.20757 0.94067 0.0
H1513 H 0.26343 0.96933 0.38137 0.0
H1514 H 0.32705 0.00215 0.45897 0.0
H1515 H 0.29584 0.01972 0.51523 0.0
H1516 H 0.20913 0.01858 0.41957 0.0
H1517 H 0.18628 0.99199 0.42295 0.0
H1518 H 0.21135 0.99185 0.37979 0.0
H1519 H 0.22635 0.94655 0.4078 0.0
H1520 H 0.20193 0.94654 0.45132 0.0
H1521 H 0.23566 0.9423 0.46674 0.0
H1522 H 0.26078 0.02301 0.57193 0.0
H1523 H 0.22685 0.00859 0.62577 0.0
H1524 H 0.18592 0.97055 0.51485 0.0
C1525 C 0.27046 0.98172 0.40866 0.0
C1526 C 0.29738 0.98516 0.41542 0.0
C1527 C 0.30636 -2e-05 0.45287 0.0
C1528 C 0.28873 0.01007 0.48484 0.0
C1529 C 0.26225 0.00486 0.47909 0.0
C1530 C 0.2531 0.9911 0.44162 0.0
C1531 C 0.22514 0.98254 0.44858 0.0
C1532 C 0.2069 -0.00288 0.41578 0.0
C1533 C 0.22214 0.95274 0.44338 0.0
C1534 C 0.22089 0.99134 0.49736 0.0
C1535 C 0.24196 0.00537 0.51354 0.0
C1536 C 0.24387 0.01269 0.55932 0.0
C1537 C 0.22447 0.00441 0.58975 0.0
C1538 C 0.20384 0.9884 0.57438 0.0
C1539 C 0.20143 0.98296 0.52731 0.0
H1540 H 0.47825 0.75294 0.11144 0.0
H1541 H 0.51292 0.68024 0.0687 0.0
H1542 H 0.52441 0.69978 0.99428 0.0
H1543 H 0.44556 0.76479 0.02348 0.0
H1544 H 0.44987 0.79956 0.0188 0.0
H1545 H 0.45368 0.78416 0.07299 0.0
H1546 H 0.5001 0.80346 0.08011 0.0
H1547 H 0.49588 0.81942 0.02571 0.0
H1548 H 0.52345 0.79833 0.03501 0.0
H1549 H 0.51887 0.72192 0.91882 0.0
H1550 H 0.5001 0.74587 0.85271 0.0
H1551 H 0.46872 0.80373 0.94502 0.0
C1552 C 0.48987 0.74189 0.08738 0.0
C1553 C 0.4951 0.71544 0.09547 0.0
C1554 C 0.50941 0.70083 0.06319 0.0
C1555 C 0.5159 0.71178 0.02077 0.0
C1556 C 0.50847 0.73747 0.01201 0.0
C1557 C 0.49656 0.75267 0.04521 0.0
C1558 C 0.48632 0.77785 0.02546 0.0
C1559 C 0.45712 0.7817 0.0358 0.0
C1560 C 0.50241 0.80114 0.04258 0.0
C1561 C 0.49121 0.77297 0.97537 0.0
C1562 C 0.505 0.75018 0.96812 0.0
C1563 C 0.50885 0.74023 0.92411 0.0
C1564 C 0.49801 0.75373 0.88684 0.0
C1565 C 0.483 0.77635 0.89442 0.0
C1566 C 0.48026 0.7864 0.93883 0.0
H1567 H 0.75145 0.49482 0.59721 0.0
H1568 H 0.8246 0.49583 0.52452 0.0
H1569 H 0.80225 0.51072 0.45488 0.0
H1570 H 0.71997 0.46336 0.52349 0.0
H1571 H 0.68858 0.479 0.52688 0.0
H1572 H 0.71027 0.48063 0.57442 0.0
H1573 H 0.70817 0.53105 0.57294 0.0
H1574 H 0.68613 0.52956 0.52505 0.0
H1575 H 0.71566 0.5484 0.52103 0.0
H1576 H 0.77249 0.50986 0.39013 0.0
H1577 H 0.739 0.49191 0.33857 0.0
H1578 H 0.68386 0.49091 0.45024 0.0
C1579 C 0.76276 0.50004 0.56736 0.0
C1580 C 0.78963 0.49489 0.56611 0.0
C1581 C 0.804 0.50032 0.5261 0.0
C1582 C 0.79142 0.50885 0.48642 0.0
C1583 C 0.76442 0.51174 0.48726 0.0
C1584 C 0.75022 0.50793 0.5271 0.0
C1585 C 0.72137 0.50606 0.51699 0.0
C1586 C 0.70941 0.48076 0.53653 0.0
C1587 C 0.70699 0.53021 0.53507 0.0
C1588 C 0.72193 0.50601 0.46525 0.0
C1589 C 0.74672 0.51071 0.44865 0.0
C1590 C 0.75282 0.50712 0.40249 0.0
C1591 C 0.73367 0.49696 0.37326 0.0
C1592 C 0.70898 0.49014 0.39068 0.0
C1593 C 0.70262 0.49637 0.43627 0.0
H1594 H -0.00132 0.69496 0.94357 0.0
H1595 H 0.0085 0.75189 0.83636 0.0
H1596 H 0.00184 0.78732 0.89191 0.0
H1597 H 0.95361 0.73944 0.02397 0.0
H1598 H 0.96993 0.72565 0.07282 0.0
H1599 H 0.96333 0.70568 0.02345 0.0
H1600 H 0.01208 0.69366 0.01988 0.0
H1601 H 0.0193 0.71422 0.06751 0.0
H1602 H 0.03602 0.71919 0.01406 0.0
H1603 H 0.01271 0.81376 0.95782 0.0
H1604 H 0.03223 0.83023 0.02922 0.0
H1605 H 0.01395 0.75754 0.09694 0.0
C1606 C -0.00276 0.7149 0.93164 0.0
C1607 C 0.00342 0.72098 0.88607 0.0
C1608 C 0.00294 0.74707 0.87106 0.0
C1609 C -0.00067 0.76727 0.90255 0.0
C1610 C -0.00408 0.76083 0.94852 0.0
C1611 C 0.9938 0.73517 0.96294 0.0
C1612 C 0.99552 0.73312 0.01452 0.0
C1613 C 0.96901 0.72554 0.03489 0.0
C1614 C 0.01702 0.71396 0.02979 0.0
C1615 C 0.00233 0.76099 0.02628 0.0
C1616 C 0.00172 0.77682 0.98792 0.0
C1617 C 0.01203 0.80197 0.98845 0.0
C1618 C 0.02337 0.81105 0.02885 0.0
C1619 C 0.02408 0.7951 0.06811 0.0
C1620 C 0.0128 0.77016 0.06734 0.0
H1621 H 0.80652 0.0413 0.47151 0.0
H1622 H 0.767 0.98273 0.39061 0.0
H1623 H 0.74269 0.96847 0.45944 0.0
H1624 H 0.80624 0.0039 0.58493 0.0
H1625 H 0.80121 0.03427 0.61477 0.0
H1626 H 0.8199 0.03361 0.56262 0.0
H1627 H 0.78974 0.06928 0.52906 0.0
H1628 H 0.77082 0.06934 0.58034 0.0
H1629 H 0.75519 0.06319 0.52625 0.0
H1630 H 0.71596 0.96811 0.53113 0.0
H1631 H 0.68829 0.98351 0.59489 0.0
H1632 H 0.74559 0.04214 0.6283 0.0
C1633 C 0.79323 0.02499 0.46855 0.0
C1634 C 0.78835 0.01323 0.42598 0.0
C1635 C 0.771 0.9919 0.42318 0.0
C1636 C 0.75728 0.98361 0.46213 0.0
C1637 C 0.76172 -0.00352 0.50349 0.0
C1638 C 0.77958 0.01658 0.50684 0.0
C1639 C 0.77809 0.03019 0.55242 0.0
C1640 C 0.80282 0.02516 0.58044 0.0
C1641 C 0.77312 0.0597 0.54661 0.0
C1642 C 0.75499 0.01629 0.57287 0.0
C1643 C 0.74638 0.99617 0.54511 0.0
C1644 C 0.72302 0.98316 0.55388 0.0
C1645 C 0.70748 0.99189 0.59025 0.0
C1646 C 0.71533 0.01359 0.61652 0.0
C1647 C 0.73983 0.02497 0.60925 0.0
loop_
_geom_bond_atom_site_label_1
_geom_bond_atom_site_label_2
_geom_bond_distance
_geom_bond_site_symmetry_2
_ccdc_geom_bond_type
Sc0 O3 2.025 . S
Sc0 O10 2.105 . S
Sc0 O13 2.105 . S
Sc0 O16 2.105 . S
Sc0 O19 2.105 . S
Sc1 O3 2.025 . S
Sc1 O11 2.105 . S
Sc1 O15 2.105 . S
Sc1 O17 2.105 . S
Sc1 O21 2.105 . S
Sc2 O3 2.025 . S
Sc2 O12 2.105 . S
Sc2 O14 2.105 . S
Sc2 O18 2.105 . S
Sc2 O20 2.105 . S
O3 Sc0 2.025 . S
O3 Sc1 2.025 . S
O3 Sc2 2.025 . S
C4 O10 1.268 . S
C4 O20 1.268 . S
C5 O11 1.268 . S
C5 O19 1.268 . S
C6 O12 1.268 . S
C6 O21 1.268 . S
C7 O13 1.268 . S
C7 O17 1.268 . S
C8 O14 1.268 . S
C8 O16 1.268 . S
C9 O15 1.268 . S
C9 O18 1.268 . S
O10 Sc0 2.105 . S
O10 C4 1.268 . S
O11 Sc1 2.105 . S
O11 C5 1.268 . S
O12 Sc2 2.105 . S
O12 C6 1.268 . S
O13 Sc0 2.105 . S
O13 C7 1.268 . S
O14 Sc2 2.105 . S
O14 C8 1.268 . S
O15 Sc1 2.105 . S
O15 C9 1.268 . S
O16 Sc0 2.105 . S
O16 C8 1.268 . S
O17 Sc1 2.105 . S
O17 C7 1.268 . S
O18 Sc2 2.105 . S
O18 C9 1.268 . S
O19 Sc0 2.105 . S
O19 C5 1.268 . S
O20 Sc2 2.105 . S
O20 C4 1.268 . S
O21 Sc1 2.105 . S
O21 C6 1.268 . S
Sc22 O25 2.025 . S
Sc22 O32 2.105 . S
Sc22 O35 2.105 . S
Sc22 O38 2.105 . S
Sc22 O41 2.105 . S
Sc23 O25 2.025 . S
Sc23 O33 2.105 . S
Sc23 O37 2.105 . S
Sc23 O39 2.105 . S
Sc23 O43 2.105 . S
Sc24 O25 2.025 . S
Sc24 O34 2.105 . S
Sc24 O36 2.105 . S
Sc24 O40 2.105 . S
Sc24 O42 2.105 . S
O25 Sc22 2.025 . S
O25 Sc23 2.025 . S
O25 Sc24 2.025 . S
C26 O32 1.268 . S
C26 O42 1.268 . S
C27 O33 1.268 . S
C27 O41 1.268 . S
C28 O34 1.268 . S
C28 O43 1.268 . S
C29 O35 1.268 . S
C29 O39 1.268 . S
C30 O36 1.268 . S
C30 O38 1.268 . S
C31 O37 1.268 . S
C31 O40 1.268 . S
O32 Sc22 2.105 . S
O32 C26 1.268 . S
O33 Sc23 2.105 . S
O33 C27 1.268 . S
O34 Sc24 2.105 . S
O34 C28 1.268 . S
O35 Sc22 2.105 . S
O35 C29 1.268 . S
O36 Sc24 2.105 . S
O36 C30 1.268 . S
O37 Sc23 2.105 . S
O37 C31 1.268 . S
O38 Sc22 2.105 . S
O38 C30 1.268 . S
O39 Sc23 2.105 . S
O39 C29 1.268 . S
O40 Sc24 2.105 . S
O40 C31 1.268 . S
O41 Sc22 2.105 . S
O41 C27 1.268 . S
O42 Sc24 2.105 . S
O42 C26 1.268 . S
O43 Sc23 2.105 . S
O43 C28 1.268 . S
Sc44 O47 2.025 . S
Sc44 O54 2.105 . S
Sc44 O57 2.105 . S
Sc44 O60 2.105 . S
Sc44 O63 2.105 . S
Sc45 O47 2.025 . S
Sc45 O55 2.105 . S
Sc45 O59 2.105 . S
Sc45 O61 2.105 . S
Sc45 O65 2.105 . S
Sc46 O47 2.025 . S
Sc46 O56 2.105 . S
Sc46 O58 2.105 . S
Sc46 O62 2.105 . S
Sc46 O64 2.105 . S
O47 Sc44 2.025 . S
O47 Sc45 2.025 . S
O47 Sc46 2.025 . S
C48 O54 1.268 . S
C48 O64 1.268 . S
C49 O55 1.268 . S
C49 O63 1.268 . S
C50 O56 1.268 . S
C50 O65 1.268 . S
C51 O57 1.268 . S
C51 O61 1.268 . S
C52 O58 1.268 . S
C52 O60 1.268 . S
C53 O59 1.268 . S
C53 O62 1.268 . S
O54 Sc44 2.105 . S
O54 C48 1.268 . S
O55 Sc45 2.105 . S
O55 C49 1.268 . S
O56 Sc46 2.105 . S
O56 C50 1.268 . S
O57 Sc44 2.105 . S
O57 C51 1.268 . S
O58 Sc46 2.105 . S
O58 C52 1.268 . S
O59 Sc45 2.105 . S
O59 C53 1.268 . S
O60 Sc44 2.105 . S
O60 C52 1.268 . S
O61 Sc45 2.105 . S
O61 C51 1.268 . S
O62 Sc46 2.105 . S
O62 C53 1.268 . S
O63 Sc44 2.105 . S
O63 C49 1.268 . S
O64 Sc46 2.105 . S
O64 C48 1.268 . S
O65 Sc45 2.105 . S
O65 C50 1.268 . S
Sc66 O69 2.025 . S
Sc66 O76 2.105 . S
Sc66 O79 2.105 . S
Sc66 O82 2.105 . S
Sc66 O85 2.105 . S
Sc67 O69 2.025 . S
Sc67 O77 2.105 . S
Sc67 O81 2.105 . S
Sc67 O83 2.105 . S
Sc67 O87 2.105 . S
Sc68 O69 2.025 . S
Sc68 O78 2.105 . S
Sc68 O80 2.105 . S
Sc68 O84 2.105 . S
Sc68 O86 2.105 . S
O69 Sc66 2.025 . S
O69 Sc67 2.025 . S
O69 Sc68 2.025 . S
C70 O76 1.268 . S
C70 O86 1.268 . S
C71 O77 1.268 . S
C71 O85 1.268 . S
C72 O78 1.268 . S
C72 O87 1.268 . S
C73 O79 1.268 . S
C73 O83 1.268 . S
C74 O80 1.268 . S
C74 O82 1.268 . S
C75 O81 1.268 . S
C75 O84 1.268 . S
O76 Sc66 2.105 . S
O76 C70 1.268 . S
O77 Sc67 2.105 . S
O77 C71 1.268 . S
O78 Sc68 2.105 . S
O78 C72 1.268 . S
O79 Sc66 2.105 . S
O79 C73 1.268 . S
O80 Sc68 2.105 . S
O80 C74 1.268 . S
O81 Sc67 2.105 . S
O81 C75 1.268 . S
O82 Sc66 2.105 . S
O82 C74 1.268 . S
O83 Sc67 2.105 . S
O83 C73 1.268 . S
O84 Sc68 2.105 . S
O84 C75 1.268 . S
O85 Sc66 2.105 . S
O85 C71 1.268 . S
O86 Sc68 2.105 . S
O86 C70 1.268 . S
O87 Sc67 2.105 . S
O87 C72 1.268 . S
Sc88 O91 2.025 . S
Sc88 O98 2.105 . S
Sc88 O101 2.105 . S
Sc88 O104 2.105 . S
Sc88 O107 2.105 . S
Sc89 O91 2.025 . S
Sc89 O99 2.105 . S
Sc89 O103 2.105 . S
Sc89 O105 2.105 . S
Sc89 O109 2.105 . S
Sc90 O91 2.025 . S
Sc90 O100 2.105 . S
Sc90 O102 2.105 . S
Sc90 O106 2.105 . S
Sc90 O108 2.105 . S
O91 Sc88 2.025 . S
O91 Sc89 2.025 . S
O91 Sc90 2.025 . S
C92 O98 1.268 . S
C92 O108 1.268 . S
C93 O99 1.268 . S
C93 O107 1.268 . S
C94 O100 1.268 . S
C94 O109 1.268 . S
C95 O101 1.268 . S
C95 O105 1.268 . S
C96 O102 1.268 . S
C96 O104 1.268 . S
C97 O103 1.268 . S
C97 O106 1.268 . S
O98 Sc88 2.105 . S
O98 C92 1.268 . S
O99 Sc89 2.105 . S
O99 C93 1.268 . S
O100 Sc90 2.105 . S
O100 C94 1.268 . S
O101 Sc88 2.105 . S
O101 C95 1.268 . S
O102 Sc90 2.105 . S
O102 C96 1.268 . S
O103 Sc89 2.105 . S
O103 C97 1.268 . S
O104 Sc88 2.105 . S
O104 C96 1.268 . S
O105 Sc89 2.105 . S
O105 C95 1.268 . S
O106 Sc90 2.105 . S
O106 C97 1.268 . S
O107 Sc88 2.105 . S
O107 C93 1.268 . S
O108 Sc90 2.105 . S
O108 C92 1.268 . S
O109 Sc89 2.105 . S
O109 C94 1.268 . S
Sc110 O113 2.025 . S
Sc110 O120 2.105 . S
Sc110 O123 2.105 . S
Sc110 O126 2.105 . S
Sc110 O129 2.105 . S
Sc111 O113 2.025 . S
Sc111 O121 2.105 . S
Sc111 O125 2.105 . S
Sc111 O127 2.105 . S
Sc111 O131 2.105 . S
Sc112 O113 2.025 . S
Sc112 O122 2.105 . S
Sc112 O124 2.105 . S
Sc112 O128 2.105 . S
Sc112 O130 2.105 . S
O113 Sc110 2.025 . S
O113 Sc111 2.025 . S
O113 Sc112 2.025 . S
C114 O120 1.268 . S
C114 O130 1.268 . S
C115 O121 1.268 . S
C115 O129 1.268 . S
C116 O122 1.268 . S
C116 O131 1.268 . S
C117 O123 1.268 . S
C117 O127 1.268 . S
C118 O124 1.268 . S
C118 O126 1.268 . S
C119 O125 1.268 . S
C119 O128 1.268 . S
O120 Sc110 2.105 . S
O120 C114 1.268 . S
O121 Sc111 2.105 . S
O121 C115 1.268 . S
O122 Sc112 2.105 . S
O122 C116 1.268 . S
O123 Sc110 2.105 . S
O123 C117 1.268 . S
O124 Sc112 2.105 . S
O124 C118 1.268 . S
O125 Sc111 2.105 . S
O125 C119 1.268 . S
O126 Sc110 2.105 . S
O126 C118 1.268 . S
O127 Sc111 2.105 . S
O127 C117 1.268 . S
O128 Sc112 2.105 . S
O128 C119 1.268 . S
O129 Sc110 2.105 . S
O129 C115 1.268 . S
O130 Sc112 2.105 . S
O130 C114 1.268 . S
O131 Sc111 2.105 . S
O131 C116 1.268 . S
Sc132 O135 2.025 . S
Sc132 O142 2.105 . S
Sc132 O145 2.105 . S
Sc132 O148 2.105 . S
Sc132 O151 2.105 . S
Sc133 O135 2.025 . S
Sc133 O143 2.105 . S
Sc133 O147 2.105 . S
Sc133 O149 2.105 . S
Sc133 O153 2.105 . S
Sc134 O135 2.025 . S
Sc134 O144 2.105 . S
Sc134 O146 2.105 . S
Sc134 O150 2.105 . S
Sc134 O152 2.105 . S
O135 Sc132 2.025 . S
O135 Sc133 2.025 . S
O135 Sc134 2.025 . S
C136 O142 1.268 . S
C136 O152 1.268 . S
C137 O143 1.268 . S
C137 O151 1.268 . S
C138 O144 1.268 . S
C138 O153 1.268 . S
C139 O145 1.268 . S
C139 O149 1.268 . S
C140 O146 1.268 . S
C140 O148 1.268 . S
C141 O147 1.268 . S
C141 O150 1.268 . S
O142 Sc132 2.105 . S
O142 C136 1.268 . S
O143 Sc133 2.105 . S
O143 C137 1.268 . S
O144 Sc134 2.105 . S
O144 C138 1.268 . S
O145 Sc132 2.105 . S
O145 C139 1.268 . S
O146 Sc134 2.105 . S
O146 C140 1.268 . S
O147 Sc133 2.105 . S
O147 C141 1.268 . S
O148 Sc132 2.105 . S
O148 C140 1.268 . S
O149 Sc133 2.105 . S
O149 C139 1.268 . S
O150 Sc134 2.105 . S
O150 C141 1.268 . S
O151 Sc132 2.105 . S
O151 C137 1.268 . S
O152 Sc134 2.105 . S
O152 C136 1.268 . S
O153 Sc133 2.105 . S
O153 C138 1.268 . S
Sc154 O157 2.025 . S
Sc154 O164 2.105 . S
Sc154 O167 2.105 . S
Sc154 O170 2.105 . S
Sc154 O173 2.105 . S
Sc155 O157 2.025 . S
Sc155 O165 2.105 . S
Sc155 O169 2.105 . S
Sc155 O171 2.105 . S
Sc155 O175 2.105 . S
Sc156 O157 2.025 . S
Sc156 O166 2.105 . S
Sc156 O168 2.105 . S
Sc156 O172 2.105 . S
Sc156 O174 2.105 . S
O157 Sc154 2.025 . S
O157 Sc155 2.025 . S
O157 Sc156 2.025 . S
C158 O164 1.268 . S
C158 O174 1.268 . S
C159 O165 1.268 . S
C159 O173 1.268 . S
C160 O166 1.268 . S
C160 O175 1.268 . S
C161 O167 1.268 . S
C161 O171 1.268 . S
C162 O168 1.268 . S
C162 O170 1.268 . S
C163 O169 1.268 . S
C163 O172 1.268 . S
O164 Sc154 2.105 . S
O164 C158 1.268 . S
O165 Sc155 2.105 . S
O165 C159 1.268 . S
O166 Sc156 2.105 . S
O166 C160 1.268 . S
O167 Sc154 2.105 . S
O167 C161 1.268 . S
O168 Sc156 2.105 . S
O168 C162 1.268 . S
O169 Sc155 2.105 . S
O169 C163 1.268 . S
O170 Sc154 2.105 . S
O170 C162 1.268 . S
O171 Sc155 2.105 . S
O171 C161 1.268 . S
O172 Sc156 2.105 . S
O172 C163 1.268 . S
O173 Sc154 2.105 . S
O173 C159 1.268 . S
O174 Sc156 2.105 . S
O174 C158 1.268 . S
O175 Sc155 2.105 . S
O175 C160 1.268 . S
Sc176 O179 2.025 . S
Sc176 O186 2.105 . S
Sc176 O189 2.105 . S
Sc176 O192 2.105 . S
Sc176 O195 2.105 . S
Sc177 O179 2.025 . S
Sc177 O187 2.105 . S
Sc177 O191 2.105 . S
Sc177 O193 2.105 . S
Sc177 O197 2.105 . S
Sc178 O179 2.025 . S
Sc178 O188 2.105 . S
Sc178 O190 2.105 . S
Sc178 O194 2.105 . S
Sc178 O196 2.105 . S
O179 Sc176 2.025 . S
O179 Sc177 2.025 . S
O179 Sc178 2.025 . S
C180 O186 1.268 . S
C180 O196 1.268 . S
C181 O187 1.268 . S
C181 O195 1.268 . S
C182 O188 1.268 . S
C182 O197 1.268 . S
C183 O189 1.268 . S
C183 O193 1.268 . S
C184 O190 1.268 . S
C184 O192 1.268 . S
C185 O191 1.268 . S
C185 O194 1.268 . S
O186 Sc176 2.105 . S
O186 C180 1.268 . S
O187 Sc177 2.105 . S
O187 C181 1.268 . S
O188 Sc178 2.105 . S
O188 C182 1.268 . S
O189 Sc176 2.105 . S
O189 C183 1.268 . S
O190 Sc178 2.105 . S
O190 C184 1.268 . S
O191 Sc177 2.105 . S
O191 C185 1.268 . S
O192 Sc176 2.105 . S
O192 C184 1.268 . S
O193 Sc177 2.105 . S
O193 C183 1.268 . S
O194 Sc178 2.105 . S
O194 C185 1.268 . S
O195 Sc176 2.105 . S
O195 C181 1.268 . S
O196 Sc178 2.105 . S
O196 C180 1.268 . S
O197 Sc177 2.105 . S
O197 C182 1.268 . S
Sc198 O201 2.025 . S
Sc198 O208 2.105 . S
Sc198 O211 2.105 . S
Sc198 O214 2.105 . S
Sc198 O217 2.105 . S
Sc199 O201 2.025 . S
Sc199 O209 2.105 . S
Sc199 O213 2.105 . S
Sc199 O215 2.105 . S
Sc199 O219 2.105 . S
Sc200 O201 2.025 . S
Sc200 O210 2.105 . S
Sc200 O212 2.105 . S
Sc200 O216 2.105 . S
Sc200 O218 2.105 . S
O201 Sc198 2.025 . S
O201 Sc199 2.025 . S
O201 Sc200 2.025 . S
C202 O208 1.268 . S
C202 O218 1.268 . S
C203 O209 1.268 . S
C203 O217 1.268 . S
C204 O210 1.268 . S
C204 O219 1.268 . S
C205 O211 1.268 . S
C205 O215 1.268 . S
C206 O212 1.268 . S
C206 O214 1.268 . S
C207 O213 1.268 . S
C207 O216 1.268 . S
O208 Sc198 2.105 . S
O208 C202 1.268 . S
O209 Sc199 2.105 . S
O209 C203 1.268 . S
O210 Sc200 2.105 . S
O210 C204 1.268 . S
O211 Sc198 2.105 . S
O211 C205 1.268 . S
O212 Sc200 2.105 . S
O212 C206 1.268 . S
O213 Sc199 2.105 . S
O213 C207 1.268 . S
O214 Sc198 2.105 . S
O214 C206 1.268 . S
O215 Sc199 2.105 . S
O215 C205 1.268 . S
O216 Sc200 2.105 . S
O216 C207 1.268 . S
O217 Sc198 2.105 . S
O217 C203 1.268 . S
O218 Sc200 2.105 . S
O218 C202 1.268 . S
O219 Sc199 2.105 . S
O219 C204 1.268 . S
Sc220 O223 2.025 . S
Sc220 O230 2.105 . S
Sc220 O233 2.105 . S
Sc220 O236 2.105 . S
Sc220 O239 2.105 . S
Sc221 O223 2.025 . S
Sc221 O231 2.105 . S
Sc221 O235 2.105 . S
Sc221 O237 2.105 . S
Sc221 O241 2.105 . S
Sc222 O223 2.025 . S
Sc222 O232 2.105 . S
Sc222 O234 2.105 . S
Sc222 O238 2.105 . S
Sc222 O240 2.105 . S
O223 Sc220 2.025 . S
O223 Sc221 2.025 . S
O223 Sc222 2.025 . S
C224 O230 1.268 . S
C224 O240 1.268 . S
C225 O231 1.268 . S
C225 O239 1.268 . S
C226 O232 1.268 . S
C226 O241 1.268 . S
C227 O233 1.268 . S
C227 O237 1.268 . S
C228 O234 1.268 . S
C228 O236 1.268 . S
C229 O235 1.268 . S
C229 O238 1.268 . S
O230 Sc220 2.105 . S
O230 C224 1.268 . S
O231 Sc221 2.105 . S
O231 C225 1.268 . S
O232 Sc222 2.105 . S
O232 C226 1.268 . S
O233 Sc220 2.105 . S
O233 C227 1.268 . S
O234 Sc222 2.105 . S
O234 C228 1.268 . S
O235 Sc221 2.105 . S
O235 C229 1.268 . S
O236 Sc220 2.105 . S
O236 C228 1.268 . S
O237 Sc221 2.105 . S
O237 C227 1.268 . S
O238 Sc222 2.105 . S
O238 C229 1.268 . S
O239 Sc220 2.105 . S
O239 C225 1.268 . S
O240 Sc222 2.105 . S
O240 C224 1.268 . S
O241 Sc221 2.105 . S
O241 C226 1.268 . S
Sc242 O245 2.025 . S
Sc242 O252 2.105 . S
Sc242 O255 2.105 . S
Sc242 O258 2.105 . S
Sc242 O261 2.105 . S
Sc243 O245 2.025 . S
Sc243 O253 2.105 . S
Sc243 O257 2.105 . S
Sc243 O259 2.105 . S
Sc243 O263 2.105 . S
Sc244 O245 2.025 . S
Sc244 O254 2.105 . S
Sc244 O256 2.105 . S
Sc244 O260 2.105 . S
Sc244 O262 2.105 . S
O245 Sc242 2.025 . S
O245 Sc243 2.025 . S
O245 Sc244 2.025 . S
C246 O252 1.268 . S
C246 O262 1.268 . S
C247 O253 1.268 . S
C247 O261 1.268 . S
C248 O254 1.268 . S
C248 O263 1.268 . S
C249 O255 1.268 . S
C249 O259 1.268 . S
C250 O256 1.268 . S
C250 O258 1.268 . S
C251 O257 1.268 . S
C251 O260 1.268 . S
O252 Sc242 2.105 . S
O252 C246 1.268 . S
O253 Sc243 2.105 . S
O253 C247 1.268 . S
O254 Sc244 2.105 . S
O254 C248 1.268 . S
O255 Sc242 2.105 . S
O255 C249 1.268 . S
O256 Sc244 2.105 . S
O256 C250 1.268 . S
O257 Sc243 2.105 . S
O257 C251 1.268 . S
O258 Sc242 2.105 . S
O258 C250 1.268 . S
O259 Sc243 2.105 . S
O259 C249 1.268 . S
O260 Sc244 2.105 . S
O260 C251 1.268 . S
O261 Sc242 2.105 . S
O261 C247 1.268 . S
O262 Sc244 2.105 . S
O262 C246 1.268 . S
O263 Sc243 2.105 . S
O263 C248 1.268 . S
Sc264 O267 2.025 . S
Sc264 O274 2.105 . S
Sc264 O277 2.105 . S
Sc264 O280 2.105 . S
Sc264 O283 2.105 . S
Sc265 O267 2.025 . S
Sc265 O275 2.105 . S
Sc265 O279 2.105 . S
Sc265 O281 2.105 . S
Sc265 O285 2.105 . S
Sc266 O267 2.025 . S
Sc266 O276 2.105 . S
Sc266 O278 2.105 . S
Sc266 O282 2.105 . S
Sc266 O284 2.105 . S
O267 Sc264 2.025 . S
O267 Sc265 2.025 . S
O267 Sc266 2.025 . S
C268 O274 1.268 . S
C268 O284 1.268 . S
C269 O275 1.268 . S
C269 O283 1.268 . S
C270 O276 1.268 . S
C270 O285 1.268 . S
C271 O277 1.268 . S
C271 O281 1.268 . S
C272 O278 1.268 . S
C272 O280 1.268 . S
C273 O279 1.268 . S
C273 O282 1.268 . S
O274 Sc264 2.105 . S
O274 C268 1.268 . S
O275 Sc265 2.105 . S
O275 C269 1.268 . S
O276 Sc266 2.105 . S
O276 C270 1.268 . S
O277 Sc264 2.105 . S
O277 C271 1.268 . S
O278 Sc266 2.105 . S
O278 C272 1.268 . S
O279 Sc265 2.105 . S
O279 C273 1.268 . S
O280 Sc264 2.105 . S
O280 C272 1.268 . S
O281 Sc265 2.105 . S
O281 C271 1.268 . S
O282 Sc266 2.105 . S
O282 C273 1.268 . S
O283 Sc264 2.105 . S
O283 C269 1.268 . S
O284 Sc266 2.105 . S
O284 C268 1.268 . S
O285 Sc265 2.105 . S
O285 C270 1.268 . S
Sc286 O289 2.025 . S
Sc286 O296 2.105 . S
Sc286 O299 2.105 . S
Sc286 O302 2.105 . S
Sc286 O305 2.105 . S
Sc287 O289 2.025 . S
Sc287 O297 2.105 . S
Sc287 O301 2.105 . S
Sc287 O303 2.105 . S
Sc287 O307 2.105 . S
Sc288 O289 2.025 . S
Sc288 O298 2.105 . S
Sc288 O300 2.105 . S
Sc288 O304 2.105 . S
Sc288 O306 2.105 . S
O289 Sc286 2.025 . S
O289 Sc287 2.025 . S
O289 Sc288 2.025 . S
C290 O296 1.268 . S
C290 O306 1.268 . S
C291 O297 1.268 . S
C291 O305 1.268 . S
C292 O298 1.268 . S
C292 O307 1.268 . S
C293 O299 1.268 . S
C293 O303 1.268 . S
C294 O300 1.268 . S
C294 O302 1.268 . S
C295 O301 1.268 . S
C295 O304 1.268 . S
O296 Sc286 2.105 . S
O296 C290 1.268 . S
O297 Sc287 2.105 . S
O297 C291 1.268 . S
O298 Sc288 2.105 . S
O298 C292 1.268 . S
O299 Sc286 2.105 . S
O299 C293 1.268 . S
O300 Sc288 2.105 . S
O300 C294 1.268 . S
O301 Sc287 2.105 . S
O301 C295 1.268 . S
O302 Sc286 2.105 . S
O302 C294 1.268 . S
O303 Sc287 2.105 . S
O303 C293 1.268 . S
O304 Sc288 2.105 . S
O304 C295 1.268 . S
O305 Sc286 2.105 . S
O305 C291 1.268 . S
O306 Sc288 2.105 . S
O306 C290 1.268 . S
O307 Sc287 2.105 . S
O307 C292 1.268 . S
Sc308 O311 2.025 . S
Sc308 O318 2.105 . S
Sc308 O321 2.105 . S
Sc308 O324 2.105 . S
Sc308 O327 2.105 . S
Sc309 O311 2.025 . S
Sc309 O319 2.105 . S
Sc309 O323 2.105 . S
Sc309 O325 2.105 . S
Sc309 O329 2.105 . S
Sc310 O311 2.025 . S
Sc310 O320 2.105 . S
Sc310 O322 2.105 . S
Sc310 O326 2.105 . S
Sc310 O328 2.105 . S
O311 Sc308 2.025 . S
O311 Sc309 2.025 . S
O311 Sc310 2.025 . S
C312 O318 1.268 . S
C312 O328 1.268 . S
C313 O319 1.268 . S
C313 O327 1.268 . S
C314 O320 1.268 . S
C314 O329 1.268 . S
C315 O321 1.268 . S
C315 O325 1.268 . S
C316 O322 1.268 . S
C316 O324 1.268 . S
C317 O323 1.268 . S
C317 O326 1.268 . S
O318 Sc308 2.105 . S
O318 C312 1.268 . S
O319 Sc309 2.105 . S
O319 C313 1.268 . S
O320 Sc310 2.105 . S
O320 C314 1.268 . S
O321 Sc308 2.105 . S
O321 C315 1.268 . S
O322 Sc310 2.105 . S
O322 C316 1.268 . S
O323 Sc309 2.105 . S
O323 C317 1.268 . S
O324 Sc308 2.105 . S
O324 C316 1.268 . S
O325 Sc309 2.105 . S
O325 C315 1.268 . S
O326 Sc310 2.105 . S
O326 C317 1.268 . S
O327 Sc308 2.105 . S
O327 C313 1.268 . S
O328 Sc310 2.105 . S
O328 C312 1.268 . S
O329 Sc309 2.105 . S
O329 C314 1.268 . S
Sc330 O333 2.025 . S
Sc330 O340 2.105 . S
Sc330 O343 2.105 . S
Sc330 O346 2.105 . S
Sc330 O349 2.105 . S
Sc331 O333 2.025 . S
Sc331 O341 2.105 . S
Sc331 O345 2.105 . S
Sc331 O347 2.105 . S
Sc331 O351 2.105 . S
Sc332 O333 2.025 . S
Sc332 O342 2.105 . S
Sc332 O344 2.105 . S
Sc332 O348 2.105 . S
Sc332 O350 2.105 . S
O333 Sc330 2.025 . S
O333 Sc331 2.025 . S
O333 Sc332 2.025 . S
C334 O340 1.268 . S
C334 O350 1.268 . S
C335 O341 1.268 . S
C335 O349 1.268 . S
C336 O342 1.268 . S
C336 O351 1.268 . S
C337 O343 1.268 . S
C337 O347 1.268 . S
C338 O344 1.268 . S
C338 O346 1.268 . S
C339 O345 1.268 . S
C339 O348 1.268 . S
O340 Sc330 2.105 . S
O340 C334 1.268 . S
O341 Sc331 2.105 . S
O341 C335 1.268 . S
O342 Sc332 2.105 . S
O342 C336 1.268 . S
O343 Sc330 2.105 . S
O343 C337 1.268 . S
O344 Sc332 2.105 . S
O344 C338 1.268 . S
O345 Sc331 2.105 . S
O345 C339 1.268 . S
O346 Sc330 2.105 . S
O346 C338 1.268 . S
O347 Sc331 2.105 . S
O347 C337 1.268 . S
O348 Sc332 2.105 . S
O348 C339 1.268 . S
O349 Sc330 2.105 . S
O349 C335 1.268 . S
O350 Sc332 2.105 . S
O350 C334 1.268 . S
O351 Sc331 2.105 . S
O351 C336 1.268 . S
H352 C364 0.930 . S
H353 C366 0.930 . S
H354 C367 0.930 . S
H355 C371 0.959 . S
H356 C371 0.959 . S
H357 C371 0.961 . S
H358 C372 0.960 . S
H359 C372 0.961 . S
H360 C372 0.959 . S
H361 C375 0.929 . S
H362 C376 0.931 . S
H363 C378 0.930 . S
C364 H352 0.930 . S
C364 C365 1.399 . S
C364 C369 1.399 . S
C365 C364 1.399 . S
C365 C366 1.376 . S
C366 H353 0.930 . S
C366 C365 1.376 . S
C366 C367 1.388 . S
C367 H354 0.930 . S
C367 C366 1.388 . S
C367 C368 1.390 . S
C368 C367 1.390 . S
C368 C369 1.394 . S
C368 C374 1.465 . S
C369 C364 1.399 . S
C369 C368 1.394 . S
C369 C370 1.516 . S
C370 C369 1.516 . S
C370 C371 1.502 . S
C370 C372 1.561 . S
C370 C373 1.526 . S
C371 H355 0.959 . S
C371 H356 0.959 . S
C371 H357 0.961 . S
C371 C370 1.502 . S
C372 H358 0.960 . S
C372 H359 0.961 . S
C372 H360 0.959 . S
C372 C370 1.561 . S
C373 C370 1.526 . S
C373 C374 1.396 . S
C373 C378 1.390 . S
C374 C368 1.465 . S
C374 C373 1.396 . S
C374 C375 1.399 . S
C375 H361 0.929 . S
C375 C374 1.399 . S
C375 C376 1.385 . S
C376 H362 0.931 . S
C376 C375 1.385 . S
C376 C377 1.389 . S
C377 C376 1.389 . S
C377 C378 1.387 . S
C378 H363 0.930 . S
C378 C373 1.390 . S
C378 C377 1.387 . S
H379 C391 0.930 . S
H380 C393 0.930 . S
H381 C394 0.930 . S
H382 C398 0.959 . S
H383 C398 0.959 . S
H384 C398 0.961 . S
H385 C399 0.960 . S
H386 C399 0.961 . S
H387 C399 0.959 . S
H388 C402 0.929 . S
H389 C403 0.931 . S
H390 C405 0.930 . S
C391 H379 0.930 . S
C391 C392 1.399 . S
C391 C396 1.399 . S
C392 C391 1.399 . S
C392 C393 1.376 . S
C393 H380 0.930 . S
C393 C392 1.376 . S
C393 C394 1.388 . S
C394 H381 0.930 . S
C394 C393 1.388 . S
C394 C395 1.390 . S
C395 C394 1.390 . S
C395 C396 1.394 . S
C395 C401 1.465 . S
C396 C391 1.399 . S
C396 C395 1.394 . S
C396 C397 1.516 . S
C397 C396 1.516 . S
C397 C398 1.502 . S
C397 C399 1.561 . S
C397 C400 1.526 . S
C398 H382 0.959 . S
C398 H383 0.959 . S
C398 H384 0.961 . S
C398 C397 1.502 . S
C399 H385 0.960 . S
C399 H386 0.961 . S
C399 H387 0.959 . S
C399 C397 1.561 . S
C400 C397 1.526 . S
C400 C401 1.396 . S
C400 C405 1.390 . S
C401 C395 1.465 . S
C401 C400 1.396 . S
C401 C402 1.399 . S
C402 H388 0.929 . S
C402 C401 1.399 . S
C402 C403 1.385 . S
C403 H389 0.931 . S
C403 C402 1.385 . S
C403 C404 1.389 . S
C404 C403 1.389 . S
C404 C405 1.387 . S
C405 H390 0.930 . S
C405 C400 1.390 . S
C405 C404 1.387 . S
H406 C418 0.930 . S
H407 C420 0.930 . S
H408 C421 0.930 . S
H409 C425 0.959 . S
H410 C425 0.959 . S
H411 C425 0.961 . S
H412 C426 0.960 . S
H413 C426 0.961 . S
H414 C426 0.959 . S
H415 C429 0.929 . S
H416 C430 0.931 . S
H417 C432 0.930 . S
C418 H406 0.930 . S
C418 C419 1.399 . S
C418 C423 1.399 . S
C419 C418 1.399 . S
C419 C420 1.376 . S
C420 H407 0.930 . S
C420 C419 1.376 . S
C420 C421 1.388 . S
C421 H408 0.930 . S
C421 C420 1.388 . S
C421 C422 1.390 . S
C422 C421 1.390 . S
C422 C423 1.394 . S
C422 C428 1.465 . S
C423 C418 1.399 . S
C423 C422 1.394 . S
C423 C424 1.516 . S
C424 C423 1.516 . S
C424 C425 1.502 . S
C424 C426 1.561 . S
C424 C427 1.526 . S
C425 H409 0.959 . S
C425 H410 0.959 . S
C425 H411 0.961 . S
C425 C424 1.502 . S
C426 H412 0.960 . S
C426 H413 0.961 . S
C426 H414 0.959 . S
C426 C424 1.561 . S
C427 C424 1.526 . S
C427 C428 1.396 . S
C427 C432 1.390 . S
C428 C422 1.465 . S
C428 C427 1.396 . S
C428 C429 1.399 . S
C429 H415 0.929 . S
C429 C428 1.399 . S
C429 C430 1.385 . S
C430 H416 0.931 . S
C430 C429 1.385 . S
C430 C431 1.389 . S
C431 C430 1.389 . S
C431 C432 1.387 . S
C432 H417 0.930 . S
C432 C427 1.390 . S
C432 C431 1.387 . S
H433 C445 0.930 . S
H434 C447 0.930 . S
H435 C448 0.930 . S
H436 C452 0.959 . S
H437 C452 0.959 . S
H438 C452 0.961 . S
H439 C453 0.960 . S
H440 C453 0.961 . S
H441 C453 0.959 . S
H442 C456 0.929 . S
H443 C457 0.931 . S
H444 C459 0.930 . S
C445 H433 0.930 . S
C445 C446 1.399 . S
C445 C450 1.399 . S
C446 C445 1.399 . S
C446 C447 1.376 . S
C447 H434 0.930 . S
C447 C446 1.376 . S
C447 C448 1.388 . S
C448 H435 0.930 . S
C448 C447 1.388 . S
C448 C449 1.390 . S
C449 C448 1.390 . S
C449 C450 1.394 . S
C449 C455 1.465 . S
C450 C445 1.399 . S
C450 C449 1.394 . S
C450 C451 1.516 . S
C451 C450 1.516 . S
C451 C452 1.502 . S
C451 C453 1.561 . S
C451 C454 1.526 . S
C452 H436 0.959 . S
C452 H437 0.959 . S
C452 H438 0.961 . S
C452 C451 1.502 . S
C453 H439 0.960 . S
C453 H440 0.961 . S
C453 H441 0.959 . S
C453 C451 1.561 . S
C454 C451 1.526 . S
C454 C455 1.396 . S
C454 C459 1.390 . S
C455 C449 1.465 . S
C455 C454 1.396 . S
C455 C456 1.399 . S
C456 H442 0.929 . S
C456 C455 1.399 . S
C456 C457 1.385 . S
C457 H443 0.931 . S
C457 C456 1.385 . S
C457 C458 1.389 . S
C458 C457 1.389 . S
C458 C459 1.387 . S
C459 H444 0.930 . S
C459 C454 1.390 . S
C459 C458 1.387 . S
H460 C472 0.930 . S
H461 C474 0.930 . S
H462 C475 0.930 . S
H463 C479 0.959 . S
H464 C479 0.959 . S
H465 C479 0.961 . S
H466 C480 0.960 . S
H467 C480 0.961 . S
H468 C480 0.959 . S
H469 C483 0.929 . S
H470 C484 0.931 . S
H471 C486 0.930 . S
C472 H460 0.930 . S
C472 C473 1.399 . S
C472 C477 1.399 . S
C473 C472 1.399 . S
C473 C474 1.376 . S
C474 H461 0.930 . S
C474 C473 1.376 . S
C474 C475 1.388 . S
C475 H462 0.930 . S
C475 C474 1.388 . S
C475 C476 1.390 . S
C476 C475 1.390 . S
C476 C477 1.394 . S
C476 C482 1.465 . S
C477 C472 1.399 . S
C477 C476 1.394 . S
C477 C478 1.516 . S
C478 C477 1.516 . S
C478 C479 1.502 . S
C478 C480 1.561 . S
C478 C481 1.526 . S
C479 H463 0.959 . S
C479 H464 0.959 . S
C479 H465 0.961 . S
C479 C478 1.502 . S
C480 H466 0.960 . S
C480 H467 0.961 . S
C480 H468 0.959 . S
C480 C478 1.561 . S
C481 C478 1.526 . S
C481 C482 1.396 . S
C481 C486 1.390 . S
C482 C476 1.465 . S
C482 C481 1.396 . S
C482 C483 1.399 . S
C483 H469 0.929 . S
C483 C482 1.399 . S
C483 C484 1.385 . S
C484 H470 0.931 . S
C484 C483 1.385 . S
C484 C485 1.389 . S
C485 C484 1.389 . S
C485 C486 1.387 . S
C486 H471 0.930 . S
C486 C481 1.390 . S
C486 C485 1.387 . S
H487 C499 0.930 . S
H488 C501 0.930 . S
H489 C502 0.930 . S
H490 C506 0.959 . S
H491 C506 0.959 . S
H492 C506 0.961 . S
H493 C507 0.960 . S
H494 C507 0.961 . S
H495 C507 0.959 . S
H496 C510 0.929 . S
H497 C511 0.931 . S
H498 C513 0.930 . S
C499 H487 0.930 . S
C499 C500 1.399 . S
C499 C504 1.399 . S
C500 C499 1.399 . S
C500 C501 1.376 . S
C501 H488 0.930 . S
C501 C500 1.376 . S
C501 C502 1.388 . S
C502 H489 0.930 . S
C502 C501 1.388 . S
C502 C503 1.390 . S
C503 C502 1.390 . S
C503 C504 1.394 . S
C503 C509 1.465 . S
C504 C499 1.399 . S
C504 C503 1.394 . S
C504 C505 1.516 . S
C505 C504 1.516 . S
C505 C506 1.502 . S
C505 C507 1.561 . S
C505 C508 1.526 . S
C506 H490 0.959 . S
C506 H491 0.959 . S
C506 H492 0.961 . S
C506 C505 1.502 . S
C507 H493 0.960 . S
C507 H494 0.961 . S
C507 H495 0.959 . S
C507 C505 1.561 . S
C508 C505 1.526 . S
C508 C509 1.396 . S
C508 C513 1.390 . S
C509 C503 1.465 . S
C509 C508 1.396 . S
C509 C510 1.399 . S
C510 H496 0.929 . S
C510 C509 1.399 . S
C510 C511 1.385 . S
C511 H497 0.931 . S
C511 C510 1.385 . S
C511 C512 1.389 . S
C512 C511 1.389 . S
C512 C513 1.387 . S
C513 H498 0.930 . S
C513 C508 1.390 . S
C513 C512 1.387 . S
H514 C526 0.930 . S
H515 C528 0.930 . S
H516 C529 0.930 . S
H517 C533 0.959 . S
H518 C533 0.959 . S
H519 C533 0.961 . S
H520 C534 0.960 . S
H521 C534 0.961 . S
H522 C534 0.959 . S
H523 C537 0.929 . S
H524 C538 0.931 . S
H525 C540 0.930 . S
C526 H514 0.930 . S
C526 C527 1.399 . S
C526 C531 1.399 . S
C527 C526 1.399 . S
C527 C528 1.376 . S
C528 H515 0.930 . S
C528 C527 1.376 . S
C528 C529 1.388 . S
C529 H516 0.930 . S
C529 C528 1.388 . S
C529 C530 1.390 . S
C530 C529 1.390 . S
C530 C531 1.394 . S
C530 C536 1.465 . S
C531 C526 1.399 . S
C531 C530 1.394 . S
C531 C532 1.516 . S
C532 C531 1.516 . S
C532 C533 1.502 . S
C532 C534 1.561 . S
C532 C535 1.526 . S
C533 H517 0.959 . S
C533 H518 0.959 . S
C533 H519 0.961 . S
C533 C532 1.502 . S
C534 H520 0.960 . S
C534 H521 0.961 . S
C534 H522 0.959 . S
C534 C532 1.561 . S
C535 C532 1.526 . S
C535 C536 1.396 . S
C535 C540 1.390 . S
C536 C530 1.465 . S
C536 C535 1.396 . S
C536 C537 1.399 . S
C537 H523 0.929 . S
C537 C536 1.399 . S
C537 C538 1.385 . S
C538 H524 0.931 . S
C538 C537 1.385 . S
C538 C539 1.389 . S
C539 C538 1.389 . S
C539 C540 1.387 . S
C540 H525 0.930 . S
C540 C535 1.390 . S
C540 C539 1.387 . S
H541 C553 0.930 . S
H542 C555 0.930 . S
H543 C556 0.930 . S
H544 C560 0.959 . S
H545 C560 0.959 . S
H546 C560 0.961 . S
H547 C561 0.960 . S
H548 C561 0.961 . S
H549 C561 0.959 . S
H550 C564 0.929 . S
H551 C565 0.931 . S
H552 C567 0.930 . S
C553 H541 0.930 . S
C553 C554 1.399 . S
C553 C558 1.399 . S
C554 C553 1.399 . S
C554 C555 1.376 . S
C555 H542 0.930 . S
C555 C554 1.376 . S
C555 C556 1.388 . S
C556 H543 0.930 . S
C556 C555 1.388 . S
C556 C557 1.390 . S
C557 C556 1.390 . S
C557 C558 1.394 . S
C557 C563 1.465 . S
C558 C553 1.399 . S
C558 C557 1.394 . S
C558 C559 1.516 . S
C559 C558 1.516 . S
C559 C560 1.502 . S
C559 C561 1.561 . S
C559 C562 1.526 . S
C560 H544 0.959 . S
C560 H545 0.959 . S
C560 H546 0.961 . S
C560 C559 1.502 . S
C561 H547 0.960 . S
C561 H548 0.961 . S
C561 H549 0.959 . S
C561 C559 1.561 . S
C562 C559 1.526 . S
C562 C563 1.396 . S
C562 C567 1.390 . S
C563 C557 1.465 . S
C563 C562 1.396 . S
C563 C564 1.399 . S
C564 H550 0.929 . S
C564 C563 1.399 . S
C564 C565 1.385 . S
C565 H551 0.931 . S
C565 C564 1.385 . S
C565 C566 1.389 . S
C566 C565 1.389 . S
C566 C567 1.387 . S
C567 H552 0.930 . S
C567 C562 1.390 . S
C567 C566 1.387 . S
H568 C580 0.930 . S
H569 C582 0.930 . S
H570 C583 0.930 . S
H571 C587 0.959 . S
H572 C587 0.959 . S
H573 C587 0.961 . S
H574 C588 0.960 . S
H575 C588 0.961 . S
H576 C588 0.959 . S
H577 C591 0.929 . S
H578 C592 0.931 . S
H579 C594 0.930 . S
C580 H568 0.930 . S
C580 C581 1.399 . S
C580 C585 1.399 . S
C581 C580 1.399 . S
C581 C582 1.376 . S
C582 H569 0.930 . S
C582 C581 1.376 . S
C582 C583 1.388 . S
C583 H570 0.930 . S
C583 C582 1.388 . S
C583 C584 1.390 . S
C584 C583 1.390 . S
C584 C585 1.394 . S
C584 C590 1.465 . S
C585 C580 1.399 . S
C585 C584 1.394 . S
C585 C586 1.516 . S
C586 C585 1.516 . S
C586 C587 1.502 . S
C586 C588 1.561 . S
C586 C589 1.526 . S
C587 H571 0.959 . S
C587 H572 0.959 . S
C587 H573 0.961 . S
C587 C586 1.502 . S
C588 H574 0.960 . S
C588 H575 0.961 . S
C588 H576 0.959 . S
C588 C586 1.561 . S
C589 C586 1.526 . S
C589 C590 1.396 . S
C589 C594 1.390 . S
C590 C584 1.465 . S
C590 C589 1.396 . S
C590 C591 1.399 . S
C591 H577 0.929 . S
C591 C590 1.399 . S
C591 C592 1.385 . S
C592 H578 0.931 . S
C592 C591 1.385 . S
C592 C593 1.389 . S
C593 C592 1.389 . S
C593 C594 1.387 . S
C594 H579 0.930 . S
C594 C589 1.390 . S
C594 C593 1.387 . S
H595 C607 0.930 . S
H596 C609 0.930 . S
H597 C610 0.930 . S
H598 C614 0.959 . S
H599 C614 0.959 . S
H600 C614 0.961 . S
H601 C615 0.960 . S
H602 C615 0.961 . S
H603 C615 0.959 . S
H604 C618 0.929 . S
H605 C619 0.931 . S
H606 C621 0.930 . S
C607 H595 0.930 . S
C607 C608 1.399 . S
C607 C612 1.399 . S
C608 C607 1.399 . S
C608 C609 1.376 . S
C609 H596 0.930 . S
C609 C608 1.376 . S
C609 C610 1.388 . S
C610 H597 0.930 . S
C610 C609 1.388 . S
C610 C611 1.390 . S
C611 C610 1.390 . S
C611 C612 1.394 . S
C611 C617 1.465 . S
C612 C607 1.399 . S
C612 C611 1.394 . S
C612 C613 1.516 . S
C613 C612 1.516 . S
C613 C614 1.502 . S
C613 C615 1.561 . S
C613 C616 1.526 . S
C614 H598 0.959 . S
C614 H599 0.959 . S
C614 H600 0.961 . S
C614 C613 1.502 . S
C615 H601 0.960 . S
C615 H602 0.961 . S
C615 H603 0.959 . S
C615 C613 1.561 . S
C616 C613 1.526 . S
C616 C617 1.396 . S
C616 C621 1.390 . S
C617 C611 1.465 . S
C617 C616 1.396 . S
C617 C618 1.399 . S
C618 H604 0.929 . S
C618 C617 1.399 . S
C618 C619 1.385 . S
C619 H605 0.931 . S
C619 C618 1.385 . S
C619 C620 1.389 . S
C620 C619 1.389 . S
C620 C621 1.387 . S
C621 H606 0.930 . S
C621 C616 1.390 . S
C621 C620 1.387 . S
H622 C634 0.930 . S
H623 C636 0.930 . S
H624 C637 0.930 . S
H625 C641 0.959 . S
H626 C641 0.959 . S
H627 C641 0.961 . S
H628 C642 0.960 . S
H629 C642 0.961 . S
H630 C642 0.959 . S
H631 C645 0.929 . S
H632 C646 0.931 . S
H633 C648 0.930 . S
C634 H622 0.930 . S
C634 C635 1.399 . S
C634 C639 1.399 . S
C635 C634 1.399 . S
C635 C636 1.376 . S
C636 H623 0.930 . S
C636 C635 1.376 . S
C636 C637 1.388 . S
C637 H624 0.930 . S
C637 C636 1.388 . S
C637 C638 1.390 . S
C638 C637 1.390 . S
C638 C639 1.394 . S
C638 C644 1.465 . S
C639 C634 1.399 . S
C639 C638 1.394 . S
C639 C640 1.516 . S
C640 C639 1.516 . S
C640 C641 1.502 . S
C640 C642 1.561 . S
C640 C643 1.526 . S
C641 H625 0.959 . S
C641 H626 0.959 . S
C641 H627 0.961 . S
C641 C640 1.502 . S
C642 H628 0.960 . S
C642 H629 0.961 . S
C642 H630 0.959 . S
C642 C640 1.561 . S
C643 C640 1.526 . S
C643 C644 1.396 . S
C643 C648 1.390 . S
C644 C638 1.465 . S
C644 C643 1.396 . S
C644 C645 1.399 . S
C645 H631 0.929 . S
C645 C644 1.399 . S
C645 C646 1.385 . S
C646 H632 0.931 . S
C646 C645 1.385 . S
C646 C647 1.389 . S
C647 C646 1.389 . S
C647 C648 1.387 . S
C648 H633 0.930 . S
C648 C643 1.390 . S
C648 C647 1.387 . S
H649 C661 0.930 . S
H650 C663 0.930 . S
H651 C664 0.930 . S
H652 C668 0.959 . S
H653 C668 0.959 . S
H654 C668 0.961 . S
H655 C669 0.960 . S
H656 C669 0.961 . S
H657 C669 0.959 . S
H658 C672 0.929 . S
H659 C673 0.931 . S
H660 C675 0.930 . S
C661 H649 0.930 . S
C661 C662 1.399 . S
C661 C666 1.399 . S
C662 C661 1.399 . S
C662 C663 1.376 . S
C663 H650 0.930 . S
C663 C662 1.376 . S
C663 C664 1.388 . S
C664 H651 0.930 . S
C664 C663 1.388 . S
C664 C665 1.390 . S
C665 C664 1.390 . S
C665 C666 1.394 . S
C665 C671 1.465 . S
C666 C661 1.399 . S
C666 C665 1.394 . S
C666 C667 1.516 . S
C667 C666 1.516 . S
C667 C668 1.502 . S
C667 C669 1.561 . S
C667 C670 1.526 . S
C668 H652 0.959 . S
C668 H653 0.959 . S
C668 H654 0.961 . S
C668 C667 1.502 . S
C669 H655 0.960 . S
C669 H656 0.961 . S
C669 H657 0.959 . S
C669 C667 1.561 . S
C670 C667 1.526 . S
C670 C671 1.396 . S
C670 C675 1.390 . S
C671 C665 1.465 . S
C671 C670 1.396 . S
C671 C672 1.399 . S
C672 H658 0.929 . S
C672 C671 1.399 . S
C672 C673 1.385 . S
C673 H659 0.931 . S
C673 C672 1.385 . S
C673 C674 1.389 . S
C674 C673 1.389 . S
C674 C675 1.387 . S
C675 H660 0.930 . S
C675 C670 1.390 . S
C675 C674 1.387 . S
H676 C688 0.930 . S
H677 C690 0.930 . S
H678 C691 0.930 . S
H679 C695 0.959 . S
H680 C695 0.959 . S
H681 C695 0.961 . S
H682 C696 0.960 . S
H683 C696 0.961 . S
H684 C696 0.959 . S
H685 C699 0.929 . S
H686 C700 0.931 . S
H687 C702 0.930 . S
C688 H676 0.930 . S
C688 C689 1.399 . S
C688 C693 1.399 . S
C689 C688 1.399 . S
C689 C690 1.376 . S
C690 H677 0.930 . S
C690 C689 1.376 . S
C690 C691 1.388 . S
C691 H678 0.930 . S
C691 C690 1.388 . S
C691 C692 1.390 . S
C692 C691 1.390 . S
C692 C693 1.394 . S
C692 C698 1.465 . S
C693 C688 1.399 . S
C693 C692 1.394 . S
C693 C694 1.516 . S
C694 C693 1.516 . S
C694 C695 1.502 . S
C694 C696 1.561 . S
C694 C697 1.526 . S
C695 H679 0.959 . S
C695 H680 0.959 . S
C695 H681 0.961 . S
C695 C694 1.502 . S
C696 H682 0.960 . S
C696 H683 0.961 . S
C696 H684 0.959 . S
C696 C694 1.561 . S
C697 C694 1.526 . S
C697 C698 1.396 . S
C697 C702 1.390 . S
C698 C692 1.465 . S
C698 C697 1.396 . S
C698 C699 1.399 . S
C699 H685 0.929 . S
C699 C698 1.399 . S
C699 C700 1.385 . S
C700 H686 0.931 . S
C700 C699 1.385 . S
C700 C701 1.389 . S
C701 C700 1.389 . S
C701 C702 1.387 . S
C702 H687 0.930 . S
C702 C697 1.390 . S
C702 C701 1.387 . S
H703 C715 0.930 . S
H704 C717 0.930 . S
H705 C718 0.930 . S
H706 C722 0.959 . S
H707 C722 0.959 . S
H708 C722 0.961 . S
H709 C723 0.960 . S
H710 C723 0.961 . S
H711 C723 0.959 . S
H712 C726 0.929 . S
H713 C727 0.931 . S
H714 C729 0.930 . S
C715 H703 0.930 . S
C715 C716 1.399 . S
C715 C720 1.399 . S
C716 C715 1.399 . S
C716 C717 1.376 . S
C717 H704 0.930 . S
C717 C716 1.376 . S
C717 C718 1.388 . S
C718 H705 0.930 . S
C718 C717 1.388 . S
C718 C719 1.390 . S
C719 C718 1.390 . S
C719 C720 1.394 . S
C719 C725 1.465 . S
C720 C715 1.399 . S
C720 C719 1.394 . S
C720 C721 1.516 . S
C721 C720 1.516 . S
C721 C722 1.502 . S
C721 C723 1.561 . S
C721 C724 1.526 . S
C722 H706 0.959 . S
C722 H707 0.959 . S
C722 H708 0.961 . S
C722 C721 1.502 . S
C723 H709 0.960 . S
C723 H710 0.961 . S
C723 H711 0.959 . S
C723 C721 1.561 . S
C724 C721 1.526 . S
C724 C725 1.396 . S
C724 C729 1.390 . S
C725 C719 1.465 . S
C725 C724 1.396 . S
C725 C726 1.399 . S
C726 H712 0.929 . S
C726 C725 1.399 . S
C726 C727 1.385 . S
C727 H713 0.931 . S
C727 C726 1.385 . S
C727 C728 1.389 . S
C728 C727 1.389 . S
C728 C729 1.387 . S
C729 H714 0.930 . S
C729 C724 1.390 . S
C729 C728 1.387 . S
H730 C742 0.930 . S
H731 C744 0.930 . S
H732 C745 0.930 . S
H733 C749 0.959 . S
H734 C749 0.959 . S
H735 C749 0.961 . S
H736 C750 0.960 . S
H737 C750 0.961 . S
H738 C750 0.959 . S
H739 C753 0.929 . S
H740 C754 0.931 . S
H741 C756 0.930 . S
C742 H730 0.930 . S
C742 C743 1.399 . S
C742 C747 1.399 . S
C743 C742 1.399 . S
C743 C744 1.376 . S
C744 H731 0.930 . S
C744 C743 1.376 . S
C744 C745 1.388 . S
C745 H732 0.930 . S
C745 C744 1.388 . S
C745 C746 1.390 . S
C746 C745 1.390 . S
C746 C747 1.394 . S
C746 C752 1.465 . S
C747 C742 1.399 . S
C747 C746 1.394 . S
C747 C748 1.516 . S
C748 C747 1.516 . S
C748 C749 1.502 . S
C748 C750 1.561 . S
C748 C751 1.526 . S
C749 H733 0.959 . S
C749 H734 0.959 . S
C749 H735 0.961 . S
C749 C748 1.502 . S
C750 H736 0.960 . S
C750 H737 0.961 . S
C750 H738 0.959 . S
C750 C748 1.561 . S
C751 C748 1.526 . S
C751 C752 1.396 . S
C751 C756 1.390 . S
C752 C746 1.465 . S
C752 C751 1.396 . S
C752 C753 1.399 . S
C753 H739 0.929 . S
C753 C752 1.399 . S
C753 C754 1.385 . S
C754 H740 0.931 . S
C754 C753 1.385 . S
C754 C755 1.389 . S
C755 C754 1.389 . S
C755 C756 1.387 . S
C756 H741 0.930 . S
C756 C751 1.390 . S
C756 C755 1.387 . S
H757 C769 0.930 . S
H758 C771 0.930 . S
H759 C772 0.930 . S
H760 C776 0.959 . S
H761 C776 0.959 . S
H762 C776 0.961 . S
H763 C777 0.960 . S
H764 C777 0.961 . S
H765 C777 0.959 . S
H766 C780 0.929 . S
H767 C781 0.931 . S
H768 C783 0.930 . S
C769 H757 0.930 . S
C769 C770 1.399 . S
C769 C774 1.399 . S
C770 C769 1.399 . S
C770 C771 1.376 . S
C771 H758 0.930 . S
C771 C770 1.376 . S
C771 C772 1.388 . S
C772 H759 0.930 . S
C772 C771 1.388 . S
C772 C773 1.390 . S
C773 C772 1.390 . S
C773 C774 1.394 . S
C773 C779 1.465 . S
C774 C769 1.399 . S
C774 C773 1.394 . S
C774 C775 1.516 . S
C775 C774 1.516 . S
C775 C776 1.502 . S
C775 C777 1.561 . S
C775 C778 1.526 . S
C776 H760 0.959 . S
C776 H761 0.959 . S
C776 H762 0.961 . S
C776 C775 1.502 . S
C777 H763 0.960 . S
C777 H764 0.961 . S
C777 H765 0.959 . S
C777 C775 1.561 . S
C778 C775 1.526 . S
C778 C779 1.396 . S
C778 C783 1.390 . S
C779 C773 1.465 . S
C779 C778 1.396 . S
C779 C780 1.399 . S
C780 H766 0.929 . S
C780 C779 1.399 . S
C780 C781 1.385 . S
C781 H767 0.931 . S
C781 C780 1.385 . S
C781 C782 1.389 . S
C782 C781 1.389 . S
C782 C783 1.387 . S
C783 H768 0.930 . S
C783 C778 1.390 . S
C783 C782 1.387 . S
H784 C796 0.930 . S
H785 C798 0.930 . S
H786 C799 0.930 . S
H787 C803 0.959 1_556 S
H788 C803 0.959 1_556 S
H789 C803 0.961 . S
H790 C804 0.960 1_554 S
H791 C804 0.961 . S
H792 C804 0.959 . S
H793 C807 0.929 . S
H794 C808 0.931 . S
H795 C810 0.930 . S
C796 H784 0.930 . S
C796 C797 1.399 . S
C796 C801 1.410 . S
C797 C796 1.399 . S
C797 C798 1.376 . S
C798 H785 0.930 . S
C798 C797 1.376 . S
C798 C799 1.388 1_554 S
C799 H786 0.930 . S
C799 C798 1.388 1_556 S
C799 C800 1.390 . S
C800 C799 1.390 . S
C800 C801 1.385 1_556 S
C800 C806 1.465 . S
C801 C796 1.410 . S
C801 C800 1.385 1_554 S
C801 C802 1.512 1_554 S
C802 C801 1.512 1_556 S
C802 C803 1.502 1_556 S
C802 C804 1.561 . S
C802 C805 1.526 . S
C803 H787 0.959 1_554 S
C803 H788 0.959 1_554 S
C803 H789 0.961 . S
C803 C802 1.502 1_554 S
C804 H790 0.960 1_556 S
C804 H791 0.961 . S
C804 H792 0.959 . S
C804 C802 1.561 . S
C805 C802 1.526 . S
C805 C806 1.396 . S
C805 C810 1.390 . S
C806 C800 1.465 . S
C806 C805 1.396 . S
C806 C807 1.399 . S
C807 H793 0.929 . S
C807 C806 1.399 . S
C807 C808 1.385 . S
C808 H794 0.931 . S
C808 C807 1.385 . S
C808 C809 1.389 . S
C809 C808 1.389 . S
C809 C810 1.387 . S
C810 H795 0.930 . S
C810 C805 1.390 . S
C810 C809 1.387 . S
H811 C823 0.930 . S
H812 C825 0.930 . S
H813 C826 0.930 . S
H814 C830 0.959 . S
H815 C830 0.959 . S
H816 C830 0.961 . S
H817 C831 0.960 . S
H818 C831 0.961 . S
H819 C831 0.959 . S
H820 C834 0.929 . S
H821 C835 0.931 . S
H822 C837 0.930 . S
C823 H811 0.930 . S
C823 C824 1.399 . S
C823 C828 1.399 . S
C824 C823 1.399 . S
C824 C825 1.376 . S
C825 H812 0.930 . S
C825 C824 1.376 . S
C825 C826 1.388 . S
C826 H813 0.930 . S
C826 C825 1.388 . S
C826 C827 1.390 . S
C827 C826 1.390 . S
C827 C828 1.394 . S
C827 C833 1.465 . S
C828 C823 1.399 . S
C828 C827 1.394 . S
C828 C829 1.516 . S
C829 C828 1.516 . S
C829 C830 1.502 . S
C829 C831 1.561 . S
C829 C832 1.526 . S
C830 H814 0.959 . S
C830 H815 0.959 . S
C830 H816 0.961 . S
C830 C829 1.502 . S
C831 H817 0.960 . S
C831 H818 0.961 . S
C831 H819 0.959 . S
C831 C829 1.561 . S
C832 C829 1.526 . S
C832 C833 1.396 . S
C832 C837 1.390 . S
C833 C827 1.465 . S
C833 C832 1.396 . S
C833 C834 1.399 . S
C834 H820 0.929 . S
C834 C833 1.399 . S
C834 C835 1.385 . S
C835 H821 0.931 . S
C835 C834 1.385 . S
C835 C836 1.389 . S
C836 C835 1.389 . S
C836 C837 1.387 . S
C837 H822 0.930 . S
C837 C832 1.390 . S
C837 C836 1.387 . S
H838 C850 0.930 . S
H839 C852 0.930 . S
H840 C853 0.930 . S
H841 C857 0.959 . S
H842 C857 0.959 . S
H843 C857 0.961 . S
H844 C858 0.960 . S
H845 C858 0.961 . S
H846 C858 0.959 . S
H847 C861 0.929 . S
H848 C862 0.931 . S
H849 C864 0.930 . S
C850 H838 0.930 . S
C850 C851 1.399 . S
C850 C855 1.399 1_554 S
C851 C850 1.399 . S
C851 C852 1.376 . S
C852 H839 0.930 . S
C852 C851 1.376 . S
C852 C853 1.388 . S
C853 H840 0.930 . S
C853 C852 1.388 . S
C853 C854 1.390 1_554 S
C854 C853 1.390 1_556 S
C854 C855 1.394 . S
C854 C860 1.465 . S
C855 C850 1.399 1_556 S
C855 C854 1.394 . S
C855 C856 1.516 . S
C856 C855 1.516 . S
C856 C857 1.502 . S
C856 C858 1.561 . S
C856 C859 1.526 . S
C857 H841 0.959 . S
C857 H842 0.959 . S
C857 H843 0.961 . S
C857 C856 1.502 . S
C858 H844 0.960 . S
C858 H845 0.961 . S
C858 H846 0.959 . S
C858 C856 1.561 . S
C859 C856 1.526 . S
C859 C860 1.396 . S
C859 C864 1.390 . S
C860 C854 1.465 . S
C860 C859 1.396 . S
C860 C861 1.399 . S
C861 H847 0.929 . S
C861 C860 1.399 . S
C861 C862 1.385 . S
C862 H848 0.931 . S
C862 C861 1.385 . S
C862 C863 1.389 . S
C863 C862 1.389 . S
C863 C864 1.387 . S
C864 H849 0.930 . S
C864 C859 1.390 . S
C864 C863 1.387 . S
H865 C877 0.930 . S
H866 C879 0.930 . S
H867 C880 0.930 . S
H868 C884 0.959 . S
H869 C884 0.959 . S
H870 C884 0.961 . S
H871 C885 0.960 . S
H872 C885 0.961 . S
H873 C885 0.959 . S
H874 C888 0.929 . S
H875 C889 0.931 . S
H876 C891 0.930 . S
C877 H865 0.930 . S
C877 C878 1.399 . S
C877 C882 1.399 . S
C878 C877 1.399 . S
C878 C879 1.376 . S
C879 H866 0.930 . S
C879 C878 1.376 . S
C879 C880 1.388 . S
C880 H867 0.930 . S
C880 C879 1.388 . S
C880 C881 1.390 . S
C881 C880 1.390 . S
C881 C882 1.394 . S
C881 C887 1.465 . S
C882 C877 1.399 . S
C882 C881 1.394 . S
C882 C883 1.516 . S
C883 C882 1.516 . S
C883 C884 1.502 . S
C883 C885 1.561 . S
C883 C886 1.526 . S
C884 H868 0.959 . S
C884 H869 0.959 . S
C884 H870 0.961 . S
C884 C883 1.502 . S
C885 H871 0.960 . S
C885 H872 0.961 . S
C885 H873 0.959 . S
C885 C883 1.561 . S
C886 C883 1.526 . S
C886 C887 1.396 . S
C886 C891 1.390 . S
C887 C881 1.465 . S
C887 C886 1.396 . S
C887 C888 1.399 . S
C888 H874 0.929 . S
C888 C887 1.399 . S
C888 C889 1.385 . S
C889 H875 0.931 . S
C889 C888 1.385 . S
C889 C890 1.389 . S
C890 C889 1.389 . S
C890 C891 1.387 . S
C891 H876 0.930 . S
C891 C886 1.390 . S
C891 C890 1.387 . S
H892 C904 0.930 . S
H893 C906 0.930 . S
H894 C907 0.930 . S
H895 C911 0.959 . S
H896 C911 0.959 1_554 S
H897 C911 0.961 . S
H898 C912 0.960 1_556 S
H899 C912 0.961 . S
H900 C912 0.959 . S
H901 C915 0.929 . S
H902 C916 0.931 . S
H903 C918 0.930 . S
C904 H892 0.930 . S
C904 C905 1.399 . S
C904 C909 1.399 1_556 S
C905 C904 1.399 . S
C905 C906 1.376 . S
C906 H893 0.930 . S
C906 C905 1.376 . S
C906 C907 1.388 1_556 S
C907 H894 0.930 . S
C907 C906 1.388 1_554 S
C907 C908 1.390 . S
C908 C907 1.390 . S
C908 C909 1.394 . S
C908 C914 1.465 . S
C909 C904 1.399 1_554 S
C909 C908 1.394 . S
C909 C910 1.516 . S
C910 C909 1.516 . S
C910 C911 1.502 1_554 S
C910 C912 1.561 . S
C910 C913 1.526 . S
C911 H895 0.959 . S
C911 H896 0.959 1_556 S
C911 H897 0.961 . S
C911 C910 1.502 1_556 S
C912 H898 0.960 1_554 S
C912 H899 0.961 . S
C912 H900 0.959 . S
C912 C910 1.561 . S
C913 C910 1.526 . S
C913 C914 1.396 . S
C913 C918 1.390 . S
C914 C908 1.465 . S
C914 C913 1.396 . S
C914 C915 1.399 . S
C915 H901 0.929 . S
C915 C914 1.399 . S
C915 C916 1.385 . S
C916 H902 0.931 . S
C916 C915 1.385 . S
C916 C917 1.389 . S
C917 C916 1.389 . S
C917 C918 1.387 . S
C918 H903 0.930 . S
C918 C913 1.390 . S
C918 C917 1.387 . S
H919 C931 0.930 . S
H920 C933 0.930 . S
H921 C934 0.930 . S
H922 C938 0.959 . S
H923 C938 0.959 . S
H924 C938 0.961 . S
H925 C939 0.960 . S
H926 C939 0.961 . S
H927 C939 0.959 . S
H928 C942 0.929 . S
H929 C943 0.931 . S
H930 C945 0.930 . S
C931 H919 0.930 . S
C931 C932 1.399 . S
C931 C936 1.399 . S
C932 C931 1.399 . S
C932 C933 1.376 . S
C933 H920 0.930 . S
C933 C932 1.376 . S
C933 C934 1.388 . S
C934 H921 0.930 . S
C934 C933 1.388 . S
C934 C935 1.390 . S
C935 C934 1.390 . S
C935 C936 1.394 . S
C935 C941 1.465 . S
C936 C931 1.399 . S
C936 C935 1.394 . S
C936 C937 1.516 . S
C937 C936 1.516 . S
C937 C938 1.502 . S
C937 C939 1.561 . S
C937 C940 1.526 . S
C938 H922 0.959 . S
C938 H923 0.959 . S
C938 H924 0.961 . S
C938 C937 1.502 . S
C939 H925 0.960 . S
C939 H926 0.961 . S
C939 H927 0.959 . S
C939 C937 1.561 . S
C940 C937 1.526 . S
C940 C941 1.396 . S
C940 C945 1.390 . S
C941 C935 1.465 . S
C941 C940 1.396 . S
C941 C942 1.399 . S
C942 H928 0.929 . S
C942 C941 1.399 . S
C942 C943 1.385 . S
C943 H929 0.931 . S
C943 C942 1.385 . S
C943 C944 1.389 . S
C944 C943 1.389 . S
C944 C945 1.387 . S
C945 H930 0.930 . S
C945 C940 1.390 . S
C945 C944 1.387 . S
H946 C958 0.930 . S
H947 C960 0.930 . S
H948 C961 0.930 . S
H949 C965 0.959 . S
H950 C965 0.959 1_554 S
H951 C965 0.961 . S
H952 C966 0.960 1_556 S
H953 C966 0.961 . S
H954 C966 0.959 . S
H955 C969 0.929 . S
H956 C970 0.931 . S
H957 C972 0.930 . S
C958 H946 0.930 . S
C958 C959 1.399 . S
C958 C963 1.399 1_556 S
C959 C958 1.399 . S
C959 C960 1.376 . S
C960 H947 0.930 . S
C960 C959 1.376 . S
C960 C961 1.388 1_556 S
C961 H948 0.930 . S
C961 C960 1.388 1_554 S
C961 C962 1.390 . S
C962 C961 1.390 . S
C962 C963 1.394 . S
C962 C968 1.465 . S
C963 C958 1.399 1_554 S
C963 C962 1.394 . S
C963 C964 1.516 . S
C964 C963 1.516 . S
C964 C965 1.502 1_554 S
C964 C966 1.561 . S
C964 C967 1.526 . S
C965 H949 0.959 . S
C965 H950 0.959 1_556 S
C965 H951 0.961 . S
C965 C964 1.502 1_556 S
C966 H952 0.960 1_554 S
C966 H953 0.961 . S
C966 H954 0.959 . S
C966 C964 1.561 . S
C967 C964 1.526 . S
C967 C968 1.396 . S
C967 C972 1.390 . S
C968 C962 1.465 . S
C968 C967 1.396 . S
C968 C969 1.399 . S
C969 H955 0.929 . S
C969 C968 1.399 . S
C969 C970 1.385 . S
C970 H956 0.931 . S
C970 C969 1.385 . S
C970 C971 1.389 . S
C971 C970 1.389 . S
C971 C972 1.387 . S
C972 H957 0.930 . S
C972 C967 1.390 . S
C972 C971 1.387 . S
H973 C985 0.930 . S
H974 C987 0.930 . S
H975 C988 0.930 . S
H976 C992 0.959 . S
H977 C992 0.959 . S
H978 C992 0.961 . S
H979 C993 0.960 . S
H980 C993 0.961 . S
H981 C993 0.959 . S
H982 C996 0.929 . S
H983 C997 0.931 . S
H984 C999 0.930 . S
C985 H973 0.930 . S
C985 C986 1.399 . S
C985 C990 1.399 . S
C986 C985 1.399 . S
C986 C987 1.376 . S
C987 H974 0.930 . S
C987 C986 1.376 . S
C987 C988 1.388 . S
C988 H975 0.930 . S
C988 C987 1.388 . S
C988 C989 1.390 . S
C989 C988 1.390 . S
C989 C990 1.394 . S
C989 C995 1.465 . S
C990 C985 1.399 . S
C990 C989 1.394 . S
C990 C991 1.516 . S
C991 C990 1.516 . S
C991 C992 1.502 . S
C991 C993 1.561 . S
C991 C994 1.526 . S
C992 H976 0.959 . S
C992 H977 0.959 . S
C992 H978 0.961 . S
C992 C991 1.502 . S
C993 H979 0.960 . S
C993 H980 0.961 . S
C993 H981 0.959 . S
C993 C991 1.561 . S
C994 C991 1.526 . S
C994 C995 1.396 . S
C994 C999 1.390 . S
C995 C989 1.465 . S
C995 C994 1.396 . S
C995 C996 1.399 . S
C996 H982 0.929 . S
C996 C995 1.399 . S
C996 C997 1.385 . S
C997 H983 0.931 . S
C997 C996 1.385 . S
C997 C998 1.389 . S
C998 C997 1.389 . S
C998 C999 1.387 . S
C999 H984 0.930 . S
C999 C994 1.390 . S
C999 C998 1.387 . S
H1000 C1012 0.930 . S
H1001 C1014 0.930 . S
H1002 C1015 0.930 . S
H1003 C1019 0.959 . S
H1004 C1019 0.959 . S
H1005 C1019 0.961 . S
H1006 C1020 0.960 1_556 S
H1007 C1020 0.961 . S
H1008 C1020 0.959 . S
H1009 C1023 0.929 . S
H1010 C1024 0.931 . S
H1011 C1026 0.930 . S
C1012 H1000 0.930 . S
C1012 C1013 1.399 . S
C1012 C1017 1.399 1_556 S
C1013 C1012 1.399 . S
C1013 C1014 1.376 . S
C1014 H1001 0.930 . S
C1014 C1013 1.376 . S
C1014 C1015 1.388 1_556 S
C1015 H1002 0.930 . S
C1015 C1014 1.388 1_554 S
C1015 C1016 1.390 . S
C1016 C1015 1.390 . S
C1016 C1017 1.394 . S
C1016 C1022 1.465 . S
C1017 C1012 1.399 1_554 S
C1017 C1016 1.394 . S
C1017 C1018 1.516 . S
C1018 C1017 1.516 . S
C1018 C1019 1.502 . S
C1018 C1020 1.561 . S
C1018 C1021 1.526 . S
C1019 H1003 0.959 . S
C1019 H1004 0.959 . S
C1019 H1005 0.961 . S
C1019 C1018 1.502 . S
C1020 H1006 0.960 1_554 S
C1020 H1007 0.961 . S
C1020 H1008 0.959 . S
C1020 C1018 1.561 . S
C1021 C1018 1.526 . S
C1021 C1022 1.396 . S
C1021 C1026 1.390 . S
C1022 C1016 1.465 . S
C1022 C1021 1.396 . S
C1022 C1023 1.399 . S
C1023 H1009 0.929 . S
C1023 C1022 1.399 . S
C1023 C1024 1.385 . S
C1024 H1010 0.931 . S
C1024 C1023 1.385 . S
C1024 C1025 1.389 . S
C1025 C1024 1.389 . S
C1025 C1026 1.387 . S
C1026 H1011 0.930 . S
C1026 C1021 1.390 . S
C1026 C1025 1.387 . S
H1027 C1039 0.930 . S
H1028 C1041 0.930 . S
H1029 C1042 0.930 . S
H1030 C1046 0.959 . S
H1031 C1046 0.959 . S
H1032 C1046 0.961 . S
H1033 C1047 0.960 . S
H1034 C1047 0.961 . S
H1035 C1047 0.959 . S
H1036 C1050 0.929 . S
H1037 C1051 0.931 . S
H1038 C1053 0.930 . S
C1039 H1027 0.930 . S
C1039 C1040 1.399 . S
C1039 C1044 1.399 . S
C1040 C1039 1.399 . S
C1040 C1041 1.376 . S
C1041 H1028 0.930 . S
C1041 C1040 1.376 . S
C1041 C1042 1.388 . S
C1042 H1029 0.930 . S
C1042 C1041 1.388 . S
C1042 C1043 1.390 . S
C1043 C1042 1.390 . S
C1043 C1044 1.394 . S
C1043 C1049 1.465 . S
C1044 C1039 1.399 . S
C1044 C1043 1.394 . S
C1044 C1045 1.516 . S
C1045 C1044 1.516 . S
C1045 C1046 1.502 . S
C1045 C1047 1.561 . S
C1045 C1048 1.526 . S
C1046 H1030 0.959 . S
C1046 H1031 0.959 . S
C1046 H1032 0.961 . S
C1046 C1045 1.502 . S
C1047 H1033 0.960 . S
C1047 H1034 0.961 . S
C1047 H1035 0.959 . S
C1047 C1045 1.561 . S
C1048 C1045 1.526 . S
C1048 C1049 1.396 . S
C1048 C1053 1.390 . S
C1049 C1043 1.465 . S
C1049 C1048 1.396 . S
C1049 C1050 1.399 . S
C1050 H1036 0.929 . S
C1050 C1049 1.399 . S
C1050 C1051 1.385 . S
C1051 H1037 0.931 . S
C1051 C1050 1.385 . S
C1051 C1052 1.389 . S
C1052 C1051 1.389 . S
C1052 C1053 1.387 . S
C1053 H1038 0.930 . S
C1053 C1048 1.390 . S
C1053 C1052 1.387 . S
H1054 C1066 0.930 . S
H1055 C1068 0.930 . S
H1056 C1069 0.930 . S
H1057 C1073 0.959 . S
H1058 C1073 0.959 . S
H1059 C1073 0.961 1_556 S
H1060 C1074 0.960 . S
H1061 C1074 0.961 1_554 S
H1062 C1074 0.959 1_554 S
H1063 C1077 0.929 . S
H1064 C1078 0.931 . S
H1065 C1080 0.930 . S
C1066 H1054 0.930 . S
C1066 C1067 1.399 . S
C1066 C1071 1.418 . S
C1067 C1066 1.399 . S
C1067 C1068 1.376 . S
C1068 H1055 0.930 . S
C1068 C1067 1.376 . S
C1068 C1069 1.388 1_556 S
C1069 H1056 0.930 . S
C1069 C1068 1.388 1_554 S
C1069 C1070 1.390 . S
C1070 C1069 1.390 . S
C1070 C1071 1.379 1_554 S
C1070 C1076 1.465 . S
C1071 C1066 1.418 . S
C1071 C1070 1.379 1_556 S
C1071 C1072 1.509 1_556 S
C1072 C1071 1.509 1_554 S
C1072 C1073 1.502 . S
C1072 C1074 1.561 1_554 S
C1072 C1075 1.526 . S
C1073 H1057 0.959 . S
C1073 H1058 0.959 . S
C1073 H1059 0.961 1_554 S
C1073 C1072 1.502 . S
C1074 H1060 0.960 . S
C1074 H1061 0.961 1_556 S
C1074 H1062 0.959 1_556 S
C1074 C1072 1.561 1_556 S
C1075 C1072 1.526 . S
C1075 C1076 1.396 . S
C1075 C1080 1.390 . S
C1076 C1070 1.465 . S
C1076 C1075 1.396 . S
C1076 C1077 1.399 . S
C1077 H1063 0.929 . S
C1077 C1076 1.399 . S
C1077 C1078 1.385 . S
C1078 H1064 0.931 . S
C1078 C1077 1.385 . S
C1078 C1079 1.389 . S
C1079 C1078 1.389 . S
C1079 C1080 1.387 . S
C1080 H1065 0.930 . S
C1080 C1075 1.390 . S
C1080 C1079 1.387 . S
H1081 C1093 0.930 . S
H1082 C1095 0.930 . S
H1083 C1096 0.930 . S
H1084 C1100 0.959 . S
H1085 C1100 0.959 . S
H1086 C1100 0.961 . S
H1087 C1101 0.960 . S
H1088 C1101 0.961 . S
H1089 C1101 0.959 . S
H1090 C1104 0.929 . S
H1091 C1105 0.931 . S
H1092 C1107 0.930 . S
C1093 H1081 0.930 . S
C1093 C1094 1.399 . S
C1093 C1098 1.399 . S
C1094 C1093 1.399 . S
C1094 C1095 1.376 . S
C1095 H1082 0.930 . S
C1095 C1094 1.376 . S
C1095 C1096 1.388 . S
C1096 H1083 0.930 . S
C1096 C1095 1.388 . S
C1096 C1097 1.390 . S
C1097 C1096 1.390 . S
C1097 C1098 1.394 . S
C1097 C1103 1.465 . S
C1098 C1093 1.399 . S
C1098 C1097 1.394 . S
C1098 C1099 1.516 . S
C1099 C1098 1.516 . S
C1099 C1100 1.502 . S
C1099 C1101 1.561 . S
C1099 C1102 1.526 . S
C1100 H1084 0.959 . S
C1100 H1085 0.959 . S
C1100 H1086 0.961 . S
C1100 C1099 1.502 . S
C1101 H1087 0.960 . S
C1101 H1088 0.961 . S
C1101 H1089 0.959 . S
C1101 C1099 1.561 . S
C1102 C1099 1.526 . S
C1102 C1103 1.396 . S
C1102 C1107 1.390 . S
C1103 C1097 1.465 . S
C1103 C1102 1.396 . S
C1103 C1104 1.399 . S
C1104 H1090 0.929 . S
C1104 C1103 1.399 . S
C1104 C1105 1.385 . S
C1105 H1091 0.931 . S
C1105 C1104 1.385 . S
C1105 C1106 1.389 . S
C1106 C1105 1.389 . S
C1106 C1107 1.387 . S
C1107 H1092 0.930 . S
C1107 C1102 1.390 . S
C1107 C1106 1.387 . S
H1108 C1120 0.930 . S
H1109 C1122 0.930 . S
H1110 C1123 0.930 . S
H1111 C1127 0.959 . S
H1112 C1127 0.959 . S
H1113 C1127 0.961 1_556 S
H1114 C1128 0.960 . S
H1115 C1128 0.961 1_554 S
H1116 C1128 0.959 . S
H1117 C1131 0.929 . S
H1118 C1132 0.931 . S
H1119 C1134 0.930 . S
C1120 H1108 0.930 . S
C1120 C1121 1.399 . S
C1120 C1125 1.399 . S
C1121 C1120 1.399 . S
C1121 C1122 1.376 . S
C1122 H1109 0.930 . S
C1122 C1121 1.376 . S
C1122 C1123 1.388 . S
C1123 H1110 0.930 . S
C1123 C1122 1.388 . S
C1123 C1124 1.390 . S
C1124 C1123 1.390 . S
C1124 C1125 1.394 . S
C1124 C1130 1.465 . S
C1125 C1120 1.399 . S
C1125 C1124 1.394 . S
C1125 C1126 1.516 . S
C1126 C1125 1.516 . S
C1126 C1127 1.502 1_556 S
C1126 C1128 1.561 . S
C1126 C1129 1.521 1_556 S
C1127 H1111 0.959 . S
C1127 H1112 0.959 . S
C1127 H1113 0.961 1_554 S
C1127 C1126 1.502 1_554 S
C1128 H1114 0.960 . S
C1128 H1115 0.961 1_556 S
C1128 H1116 0.959 . S
C1128 C1126 1.561 . S
C1129 C1126 1.521 1_554 S
C1129 C1130 1.387 1_554 S
C1129 C1134 1.401 . S
C1130 C1124 1.465 . S
C1130 C1129 1.387 1_556 S
C1130 C1131 1.399 . S
C1131 H1117 0.929 . S
C1131 C1130 1.399 . S
C1131 C1132 1.385 1_556 S
C1132 H1118 0.931 . S
C1132 C1131 1.385 1_554 S
C1132 C1133 1.389 . S
C1133 C1132 1.389 . S
C1133 C1134 1.387 . S
C1134 H1119 0.930 . S
C1134 C1129 1.401 . S
C1134 C1133 1.387 . S
H1135 C1147 0.930 . S
H1136 C1149 0.930 . S
H1137 C1150 0.930 . S
H1138 C1154 0.959 . S
H1139 C1154 0.959 . S
H1140 C1154 0.961 . S
H1141 C1155 0.960 . S
H1142 C1155 0.961 . S
H1143 C1155 0.959 . S
H1144 C1158 0.929 . S
H1145 C1159 0.931 . S
H1146 C1161 0.930 . S
C1147 H1135 0.930 . S
C1147 C1148 1.399 . S
C1147 C1152 1.399 . S
C1148 C1147 1.399 . S
C1148 C1149 1.376 . S
C1149 H1136 0.930 . S
C1149 C1148 1.376 . S
C1149 C1150 1.388 . S
C1150 H1137 0.930 . S
C1150 C1149 1.388 . S
C1150 C1151 1.390 . S
C1151 C1150 1.390 . S
C1151 C1152 1.394 . S
C1151 C1157 1.465 . S
C1152 C1147 1.399 . S
C1152 C1151 1.394 . S
C1152 C1153 1.516 . S
C1153 C1152 1.516 . S
C1153 C1154 1.502 . S
C1153 C1155 1.561 . S
C1153 C1156 1.526 . S
C1154 H1138 0.959 . S
C1154 H1139 0.959 . S
C1154 H1140 0.961 . S
C1154 C1153 1.502 . S
C1155 H1141 0.960 . S
C1155 H1142 0.961 . S
C1155 H1143 0.959 . S
C1155 C1153 1.561 . S
C1156 C1153 1.526 . S
C1156 C1157 1.396 . S
C1156 C1161 1.390 . S
C1157 C1151 1.465 . S
C1157 C1156 1.396 . S
C1157 C1158 1.399 . S
C1158 H1144 0.929 . S
C1158 C1157 1.399 . S
C1158 C1159 1.385 . S
C1159 H1145 0.931 . S
C1159 C1158 1.385 . S
C1159 C1160 1.389 . S
C1160 C1159 1.389 . S
C1160 C1161 1.387 . S
C1161 H1146 0.930 . S
C1161 C1156 1.390 . S
C1161 C1160 1.387 . S
H1162 C1174 0.930 . S
H1163 C1176 0.930 . S
H1164 C1177 0.930 . S
H1165 C1181 0.959 . S
H1166 C1181 0.959 . S
H1167 C1181 0.961 . S
H1168 C1182 0.960 . S
H1169 C1182 0.968 . S
H1170 C1182 0.959 . S
H1171 C1185 0.929 . S
H1172 C1186 0.931 . S
H1173 C1188 0.930 . S
C1174 H1162 0.930 . S
C1174 C1175 1.399 . S
C1174 C1179 1.399 . S
C1175 C1174 1.399 . S
C1175 C1176 1.376 . S
C1176 H1163 0.930 . S
C1176 C1175 1.376 . S
C1176 C1177 1.388 . S
C1177 H1164 0.930 . S
C1177 C1176 1.388 . S
C1177 C1178 1.390 . S
C1178 C1177 1.390 . S
C1178 C1179 1.394 . S
C1178 C1184 1.465 . S
C1179 C1174 1.399 . S
C1179 C1178 1.394 . S
C1179 C1180 1.516 . S
C1180 C1179 1.516 . S
C1180 C1181 1.502 . S
C1180 C1182 1.561 . S
C1180 C1183 1.526 . S
C1181 H1165 0.959 . S
C1181 H1166 0.959 . S
C1181 H1167 0.961 . S
C1181 C1180 1.502 . S
C1182 H1168 0.960 . S
C1182 H1169 0.968 . S
C1182 H1170 0.959 . S
C1182 C1180 1.561 . S
C1183 C1180 1.526 . S
C1183 C1184 1.396 . S
C1183 C1188 1.390 1_556 S
C1184 C1178 1.465 . S
C1184 C1183 1.396 . S
C1184 C1185 1.399 1_556 S
C1185 H1171 0.929 . S
C1185 C1184 1.399 1_554 S
C1185 C1186 1.385 . S
C1186 H1172 0.931 . S
C1186 C1185 1.385 . S
C1186 C1187 1.389 . S
C1187 C1186 1.389 . S
C1187 C1188 1.387 . S
C1188 H1173 0.930 . S
C1188 C1183 1.390 1_554 S
C1188 C1187 1.387 . S
H1189 C1201 0.930 . S
H1190 C1203 0.930 . S
H1191 C1204 0.930 . S
H1192 C1208 0.959 . S
H1193 C1208 0.959 . S
H1194 C1208 0.961 . S
H1195 C1209 0.960 . S
H1196 C1209 0.961 . S
H1197 C1209 0.959 . S
H1198 C1212 0.929 . S
H1199 C1213 0.931 . S
H1200 C1215 0.930 . S
C1201 H1189 0.930 . S
C1201 C1202 1.399 . S
C1201 C1206 1.399 . S
C1202 C1201 1.399 . S
C1202 C1203 1.376 . S
C1203 H1190 0.930 . S
C1203 C1202 1.376 . S
C1203 C1204 1.388 . S
C1204 H1191 0.930 . S
C1204 C1203 1.388 . S
C1204 C1205 1.390 . S
C1205 C1204 1.390 . S
C1205 C1206 1.394 . S
C1205 C1211 1.465 . S
C1206 C1201 1.399 . S
C1206 C1205 1.394 . S
C1206 C1207 1.516 . S
C1207 C1206 1.516 . S
C1207 C1208 1.502 . S
C1207 C1209 1.561 . S
C1207 C1210 1.526 . S
C1208 H1192 0.959 . S
C1208 H1193 0.959 . S
C1208 H1194 0.961 . S
C1208 C1207 1.502 . S
C1209 H1195 0.960 . S
C1209 H1196 0.961 . S
C1209 H1197 0.959 . S
C1209 C1207 1.561 . S
C1210 C1207 1.526 . S
C1210 C1211 1.396 . S
C1210 C1215 1.390 . S
C1211 C1205 1.465 . S
C1211 C1210 1.396 . S
C1211 C1212 1.399 . S
C1212 H1198 0.929 . S
C1212 C1211 1.399 . S
C1212 C1213 1.385 . S
C1213 H1199 0.931 . S
C1213 C1212 1.385 . S
C1213 C1214 1.389 . S
C1214 C1213 1.389 . S
C1214 C1215 1.387 . S
C1215 H1200 0.930 . S
C1215 C1210 1.390 . S
C1215 C1214 1.387 . S
H1216 C1228 0.930 . S
H1217 C1230 0.930 1_565 S
H1218 C1231 0.930 . S
H1219 C1235 0.959 . S
H1220 C1235 0.959 . S
H1221 C1235 0.961 . S
H1222 C1236 0.960 . S
H1223 C1236 0.961 . S
H1224 C1236 0.959 . S
H1225 C1239 0.929 . S
H1226 C1240 0.931 . S
H1227 C1242 0.930 . S
C1228 H1216 0.930 . S
C1228 C1229 1.399 . S
C1228 C1233 1.399 . S
C1229 C1228 1.399 . S
C1229 C1230 1.376 . S
C1230 H1217 0.930 1_545 S
C1230 C1229 1.376 . S
C1230 C1231 1.388 . S
C1231 H1218 0.930 . S
C1231 C1230 1.388 . S
C1231 C1232 1.390 . S
C1232 C1231 1.390 . S
C1232 C1233 1.394 . S
C1232 C1238 1.465 . S
C1233 C1228 1.399 . S
C1233 C1232 1.394 . S
C1233 C1234 1.516 . S
C1234 C1233 1.516 . S
C1234 C1235 1.502 . S
C1234 C1236 1.561 . S
C1234 C1237 1.526 . S
C1235 H1219 0.959 . S
C1235 H1220 0.959 . S
C1235 H1221 0.961 . S
C1235 C1234 1.502 . S
C1236 H1222 0.960 . S
C1236 H1223 0.961 . S
C1236 H1224 0.959 . S
C1236 C1234 1.561 . S
C1237 C1234 1.526 . S
C1237 C1238 1.396 . S
C1237 C1242 1.390 . S
C1238 C1232 1.465 . S
C1238 C1237 1.396 . S
C1238 C1239 1.399 . S
C1239 H1225 0.929 . S
C1239 C1238 1.399 . S
C1239 C1240 1.385 . S
C1240 H1226 0.931 . S
C1240 C1239 1.385 . S
C1240 C1241 1.389 . S
C1241 C1240 1.389 . S
C1241 C1242 1.387 . S
C1242 H1227 0.930 . S
C1242 C1237 1.390 . S
C1242 C1241 1.387 . S
H1243 C1255 0.930 . S
H1244 C1257 0.930 . S
H1245 C1258 0.930 . S
H1246 C1262 0.959 . S
H1247 C1262 0.959 . S
H1248 C1262 0.961 . S
H1249 C1263 0.960 . S
H1250 C1263 0.961 . S
H1251 C1263 0.959 . S
H1252 C1266 0.929 . S
H1253 C1267 0.931 . S
H1254 C1269 0.930 . S
C1255 H1243 0.930 . S
C1255 C1256 1.399 . S
C1255 C1260 1.399 . S
C1256 C1255 1.399 . S
C1256 C1257 1.376 . S
C1257 H1244 0.930 . S
C1257 C1256 1.376 . S
C1257 C1258 1.388 . S
C1258 H1245 0.930 . S
C1258 C1257 1.388 . S
C1258 C1259 1.390 . S
C1259 C1258 1.390 . S
C1259 C1260 1.394 . S
C1259 C1265 1.465 . S
C1260 C1255 1.399 . S
C1260 C1259 1.394 . S
C1260 C1261 1.516 . S
C1261 C1260 1.516 . S
C1261 C1262 1.502 . S
C1261 C1263 1.561 . S
C1261 C1264 1.526 . S
C1262 H1246 0.959 . S
C1262 H1247 0.959 . S
C1262 H1248 0.961 . S
C1262 C1261 1.502 . S
C1263 H1249 0.960 . S
C1263 H1250 0.961 . S
C1263 H1251 0.959 . S
C1263 C1261 1.561 . S
C1264 C1261 1.526 . S
C1264 C1265 1.396 . S
C1264 C1269 1.390 . S
C1265 C1259 1.465 . S
C1265 C1264 1.396 . S
C1265 C1266 1.399 . S
C1266 H1252 0.929 . S
C1266 C1265 1.399 . S
C1266 C1267 1.385 . S
C1267 H1253 0.931 . S
C1267 C1266 1.385 . S
C1267 C1268 1.389 . S
C1268 C1267 1.389 . S
C1268 C1269 1.387 . S
C1269 H1254 0.930 . S
C1269 C1264 1.390 . S
C1269 C1268 1.387 . S
H1270 C1282 0.930 . S
H1271 C1284 0.930 . S
H1272 C1285 0.930 . S
H1273 C1289 0.959 . S
H1274 C1289 0.959 . S
H1275 C1289 0.961 . S
H1276 C1290 0.960 . S
H1277 C1290 0.961 . S
H1278 C1290 0.959 . S
H1279 C1293 0.929 . S
H1280 C1294 0.931 . S
H1281 C1296 0.930 . S
C1282 H1270 0.930 . S
C1282 C1283 1.399 . S
C1282 C1287 1.399 . S
C1283 C1282 1.399 . S
C1283 C1284 1.376 . S
C1284 H1271 0.930 . S
C1284 C1283 1.376 . S
C1284 C1285 1.388 . S
C1285 H1272 0.930 . S
C1285 C1284 1.388 . S
C1285 C1286 1.390 . S
C1286 C1285 1.390 . S
C1286 C1287 1.394 . S
C1286 C1292 1.465 . S
C1287 C1282 1.399 . S
C1287 C1286 1.394 . S
C1287 C1288 1.516 . S
C1288 C1287 1.516 . S
C1288 C1289 1.502 . S
C1288 C1290 1.561 . S
C1288 C1291 1.526 . S
C1289 H1273 0.959 . S
C1289 H1274 0.959 . S
C1289 H1275 0.961 . S
C1289 C1288 1.502 . S
C1290 H1276 0.960 . S
C1290 H1277 0.961 . S
C1290 H1278 0.959 . S
C1290 C1288 1.561 . S
C1291 C1288 1.526 . S
C1291 C1292 1.396 . S
C1291 C1296 1.390 . S
C1292 C1286 1.465 . S
C1292 C1291 1.396 . S
C1292 C1293 1.399 . S
C1293 H1279 0.929 . S
C1293 C1292 1.399 . S
C1293 C1294 1.385 . S
C1294 H1280 0.931 . S
C1294 C1293 1.385 . S
C1294 C1295 1.389 . S
C1295 C1294 1.389 . S
C1295 C1296 1.387 . S
C1296 H1281 0.930 . S
C1296 C1291 1.390 . S
C1296 C1295 1.387 . S
H1297 C1309 0.930 . S
H1298 C1311 0.930 . S
H1299 C1312 0.930 . S
H1300 C1316 0.959 . S
H1301 C1316 0.959 . S
H1302 C1316 0.961 . S
H1303 C1317 0.960 . S
H1304 C1317 0.961 . S
H1305 C1317 0.959 . S
H1306 C1320 0.929 . S
H1307 C1321 0.931 . S
H1308 C1323 0.930 . S
C1309 H1297 0.930 . S
C1309 C1310 1.399 . S
C1309 C1314 1.399 . S
C1310 C1309 1.399 . S
C1310 C1311 1.376 . S
C1311 H1298 0.930 . S
C1311 C1310 1.376 . S
C1311 C1312 1.388 . S
C1312 H1299 0.930 . S
C1312 C1311 1.388 . S
C1312 C1313 1.390 . S
C1313 C1312 1.390 . S
C1313 C1314 1.394 . S
C1313 C1319 1.465 . S
C1314 C1309 1.399 . S
C1314 C1313 1.394 . S
C1314 C1315 1.516 . S
C1315 C1314 1.516 . S
C1315 C1316 1.502 . S
C1315 C1317 1.561 . S
C1315 C1318 1.526 . S
C1316 H1300 0.959 . S
C1316 H1301 0.959 . S
C1316 H1302 0.961 . S
C1316 C1315 1.502 . S
C1317 H1303 0.960 . S
C1317 H1304 0.961 . S
C1317 H1305 0.959 . S
C1317 C1315 1.561 . S
C1318 C1315 1.526 . S
C1318 C1319 1.396 . S
C1318 C1323 1.390 . S
C1319 C1313 1.465 . S
C1319 C1318 1.396 . S
C1319 C1320 1.399 . S
C1320 H1306 0.929 . S
C1320 C1319 1.399 . S
C1320 C1321 1.385 . S
C1321 H1307 0.931 . S
C1321 C1320 1.385 . S
C1321 C1322 1.389 . S
C1322 C1321 1.389 . S
C1322 C1323 1.387 . S
C1323 H1308 0.930 . S
C1323 C1318 1.390 . S
C1323 C1322 1.387 . S
H1324 C1336 0.930 . S
H1325 C1338 0.930 . S
H1326 C1339 0.930 . S
H1327 C1343 0.959 . S
H1328 C1343 0.959 . S
H1329 C1343 0.961 . S
H1330 C1344 0.960 . S
H1331 C1344 0.961 . S
H1332 C1344 0.959 . S
H1333 C1347 0.929 . S
H1334 C1348 0.931 . S
H1335 C1350 0.930 . S
C1336 H1324 0.930 . S
C1336 C1337 1.399 . S
C1336 C1341 1.399 . S
C1337 C1336 1.399 . S
C1337 C1338 1.376 . S
C1338 H1325 0.930 . S
C1338 C1337 1.376 . S
C1338 C1339 1.388 . S
C1339 H1326 0.930 . S
C1339 C1338 1.388 . S
C1339 C1340 1.390 . S
C1340 C1339 1.390 . S
C1340 C1341 1.394 . S
C1340 C1346 1.465 . S
C1341 C1336 1.399 . S
C1341 C1340 1.394 . S
C1341 C1342 1.516 . S
C1342 C1341 1.516 . S
C1342 C1343 1.502 . S
C1342 C1344 1.561 . S
C1342 C1345 1.526 . S
C1343 H1327 0.959 . S
C1343 H1328 0.959 . S
C1343 H1329 0.961 . S
C1343 C1342 1.502 . S
C1344 H1330 0.960 . S
C1344 H1331 0.961 . S
C1344 H1332 0.959 . S
C1344 C1342 1.561 . S
C1345 C1342 1.526 . S
C1345 C1346 1.396 . S
C1345 C1350 1.390 . S
C1346 C1340 1.465 . S
C1346 C1345 1.396 . S
C1346 C1347 1.399 . S
C1347 H1333 0.929 . S
C1347 C1346 1.399 . S
C1347 C1348 1.385 . S
C1348 H1334 0.931 . S
C1348 C1347 1.385 . S
C1348 C1349 1.389 . S
C1349 C1348 1.389 . S
C1349 C1350 1.387 . S
C1350 H1335 0.930 . S
C1350 C1345 1.390 . S
C1350 C1349 1.387 . S
H1351 C1363 0.930 . S
H1352 C1365 0.930 . S
H1353 C1366 0.930 . S
H1354 C1370 0.959 . S
H1355 C1370 0.959 . S
H1356 C1370 0.961 . S
H1357 C1371 0.960 . S
H1358 C1371 0.961 . S
H1359 C1371 0.959 . S
H1360 C1374 0.929 . S
H1361 C1375 0.931 . S
H1362 C1377 0.930 . S
C1363 H1351 0.930 . S
C1363 C1364 1.399 . S
C1363 C1368 1.399 . S
C1364 C1363 1.399 . S
C1364 C1365 1.376 . S
C1365 H1352 0.930 . S
C1365 C1364 1.376 . S
C1365 C1366 1.388 . S
C1366 H1353 0.930 . S
C1366 C1365 1.388 . S
C1366 C1367 1.390 . S
C1367 C1366 1.390 . S
C1367 C1368 1.394 . S
C1367 C1373 1.465 . S
C1368 C1363 1.399 . S
C1368 C1367 1.394 . S
C1368 C1369 1.516 . S
C1369 C1368 1.516 . S
C1369 C1370 1.502 . S
C1369 C1371 1.561 . S
C1369 C1372 1.526 . S
C1370 H1354 0.959 . S
C1370 H1355 0.959 . S
C1370 H1356 0.961 . S
C1370 C1369 1.502 . S
C1371 H1357 0.960 . S
C1371 H1358 0.961 . S
C1371 H1359 0.959 . S
C1371 C1369 1.561 . S
C1372 C1369 1.526 . S
C1372 C1373 1.396 . S
C1372 C1377 1.390 . S
C1373 C1367 1.465 . S
C1373 C1372 1.396 . S
C1373 C1374 1.399 . S
C1374 H1360 0.929 . S
C1374 C1373 1.399 . S
C1374 C1375 1.385 . S
C1375 H1361 0.931 . S
C1375 C1374 1.385 . S
C1375 C1376 1.389 . S
C1376 C1375 1.389 . S
C1376 C1377 1.387 . S
C1377 H1362 0.930 . S
C1377 C1372 1.390 . S
C1377 C1376 1.387 . S
H1378 C1390 0.930 . S
H1379 C1392 0.930 . S
H1380 C1393 0.930 . S
H1381 C1397 0.959 . S
H1382 C1397 0.959 . S
H1383 C1397 0.961 . S
H1384 C1398 0.960 . S
H1385 C1398 0.961 . S
H1386 C1398 0.959 . S
H1387 C1401 0.929 . S
H1388 C1402 0.931 . S
H1389 C1404 0.930 . S
C1390 H1378 0.930 . S
C1390 C1391 1.399 . S
C1390 C1395 1.399 . S
C1391 C1390 1.399 . S
C1391 C1392 1.376 . S
C1392 H1379 0.930 . S
C1392 C1391 1.376 . S
C1392 C1393 1.388 . S
C1393 H1380 0.930 . S
C1393 C1392 1.388 . S
C1393 C1394 1.390 . S
C1394 C1393 1.390 . S
C1394 C1395 1.394 . S
C1394 C1400 1.465 . S
C1395 C1390 1.399 . S
C1395 C1394 1.394 . S
C1395 C1396 1.516 . S
C1396 C1395 1.516 . S
C1396 C1397 1.502 . S
C1396 C1398 1.561 . S
C1396 C1399 1.526 . S
C1397 H1381 0.959 . S
C1397 H1382 0.959 . S
C1397 H1383 0.961 . S
C1397 C1396 1.502 . S
C1398 H1384 0.960 . S
C1398 H1385 0.961 . S
C1398 H1386 0.959 . S
C1398 C1396 1.561 . S
C1399 C1396 1.526 . S
C1399 C1400 1.396 . S
C1399 C1404 1.390 . S
C1400 C1394 1.465 . S
C1400 C1399 1.396 . S
C1400 C1401 1.399 . S
C1401 H1387 0.929 . S
C1401 C1400 1.399 . S
C1401 C1402 1.385 . S
C1402 H1388 0.931 . S
C1402 C1401 1.385 . S
C1402 C1403 1.389 . S
C1403 C1402 1.389 . S
C1403 C1404 1.387 . S
C1404 H1389 0.930 . S
C1404 C1399 1.390 . S
C1404 C1403 1.387 . S
H1405 C1417 0.930 . S
H1406 C1419 0.930 1_545 S
H1407 C1420 0.930 . S
H1408 C1424 0.959 . S
H1409 C1424 0.959 . S
H1410 C1424 0.961 . S
H1411 C1425 0.960 . S
H1412 C1425 0.961 . S
H1413 C1425 0.959 . S
H1414 C1428 0.929 . S
H1415 C1429 0.931 1_455 S
H1416 C1431 0.930 . S
C1417 H1405 0.930 . S
C1417 C1418 1.399 . S
C1417 C1422 1.399 . S
C1418 C1417 1.399 . S
C1418 C1419 1.376 . S
C1419 H1406 0.930 1_565 S
C1419 C1418 1.376 . S
C1419 C1420 1.388 . S
C1420 H1407 0.930 . S
C1420 C1419 1.388 . S
C1420 C1421 1.390 . S
C1421 C1420 1.390 . S
C1421 C1422 1.394 . S
C1421 C1427 1.465 . S
C1422 C1417 1.399 . S
C1422 C1421 1.394 . S
C1422 C1423 1.516 . S
C1423 C1422 1.516 . S
C1423 C1424 1.502 . S
C1423 C1425 1.561 . S
C1423 C1426 1.526 . S
C1424 H1408 0.959 . S
C1424 H1409 0.959 . S
C1424 H1410 0.961 . S
C1424 C1423 1.502 . S
C1425 H1411 0.960 . S
C1425 H1412 0.961 . S
C1425 H1413 0.959 . S
C1425 C1423 1.561 . S
C1426 C1423 1.526 . S
C1426 C1427 1.396 . S
C1426 C1431 1.390 . S
C1427 C1421 1.465 . S
C1427 C1426 1.396 . S
C1427 C1428 1.399 . S
C1428 H1414 0.929 . S
C1428 C1427 1.399 . S
C1428 C1429 1.385 . S
C1429 H1415 0.931 1_655 S
C1429 C1428 1.385 . S
C1429 C1430 1.389 . S
C1430 C1429 1.389 . S
C1430 C1431 1.387 . S
C1431 H1416 0.930 . S
C1431 C1426 1.390 . S
C1431 C1430 1.387 . S
H1432 C1444 0.930 . S
H1433 C1446 0.930 . S
H1434 C1447 0.930 . S
H1435 C1451 0.959 . S
H1436 C1451 0.959 . S
H1437 C1451 0.961 . S
H1438 C1452 0.960 . S
H1439 C1452 0.961 . S
H1440 C1452 0.959 . S
H1441 C1455 0.929 1_554 S
H1442 C1456 0.931 . S
H1443 C1458 0.930 . S
C1444 H1432 0.930 . S
C1444 C1445 1.399 . S
C1444 C1449 1.399 . S
C1445 C1444 1.399 . S
C1445 C1446 1.376 . S
C1446 H1433 0.930 . S
C1446 C1445 1.376 . S
C1446 C1447 1.388 . S
C1447 H1434 0.930 . S
C1447 C1446 1.388 . S
C1447 C1448 1.390 . S
C1448 C1447 1.390 . S
C1448 C1449 1.394 . S
C1448 C1454 1.465 1_554 S
C1449 C1444 1.399 . S
C1449 C1448 1.394 . S
C1449 C1450 1.516 1_554 S
C1450 C1449 1.516 1_556 S
C1450 C1451 1.502 . S
C1450 C1452 1.561 . S
C1450 C1453 1.526 . S
C1451 H1435 0.959 . S
C1451 H1436 0.959 . S
C1451 H1437 0.961 . S
C1451 C1450 1.502 . S
C1452 H1438 0.960 . S
C1452 H1439 0.961 . S
C1452 H1440 0.959 . S
C1452 C1450 1.561 . S
C1453 C1450 1.526 . S
C1453 C1454 1.396 . S
C1453 C1458 1.390 . S
C1454 C1448 1.465 1_556 S
C1454 C1453 1.396 . S
C1454 C1455 1.399 . S
C1455 H1441 0.929 1_556 S
C1455 C1454 1.399 . S
C1455 C1456 1.385 . S
C1456 H1442 0.931 . S
C1456 C1455 1.385 . S
C1456 C1457 1.389 . S
C1457 C1456 1.389 . S
C1457 C1458 1.387 . S
C1458 H1443 0.930 . S
C1458 C1453 1.390 . S
C1458 C1457 1.387 . S
H1459 C1471 0.930 . S
H1460 C1473 0.930 . S
H1461 C1474 0.930 . S
H1462 C1478 0.959 . S
H1463 C1478 0.959 . S
H1464 C1478 0.961 . S
H1465 C1479 0.960 . S
H1466 C1479 0.961 . S
H1467 C1479 0.959 . S
H1468 C1482 0.929 . S
H1469 C1483 0.931 . S
H1470 C1485 0.930 . S
C1471 H1459 0.930 . S
C1471 C1472 1.399 . S
C1471 C1476 1.399 . S
C1472 C1471 1.399 . S
C1472 C1473 1.376 . S
C1473 H1460 0.930 . S
C1473 C1472 1.376 . S
C1473 C1474 1.388 . S
C1474 H1461 0.930 . S
C1474 C1473 1.388 . S
C1474 C1475 1.390 . S
C1475 C1474 1.390 . S
C1475 C1476 1.394 . S
C1475 C1481 1.465 . S
C1476 C1471 1.399 . S
C1476 C1475 1.394 . S
C1476 C1477 1.516 . S
C1477 C1476 1.516 . S
C1477 C1478 1.502 . S
C1477 C1479 1.561 . S
C1477 C1480 1.526 . S
C1478 H1462 0.959 . S
C1478 H1463 0.959 . S
C1478 H1464 0.961 . S
C1478 C1477 1.502 . S
C1479 H1465 0.960 . S
C1479 H1466 0.961 . S
C1479 H1467 0.959 . S
C1479 C1477 1.561 . S
C1480 C1477 1.526 . S
C1480 C1481 1.396 . S
C1480 C1485 1.390 . S
C1481 C1475 1.465 . S
C1481 C1480 1.396 . S
C1481 C1482 1.399 . S
C1482 H1468 0.929 . S
C1482 C1481 1.399 . S
C1482 C1483 1.385 . S
C1483 H1469 0.931 . S
C1483 C1482 1.385 . S
C1483 C1484 1.389 . S
C1484 C1483 1.389 . S
C1484 C1485 1.387 . S
C1485 H1470 0.930 . S
C1485 C1480 1.390 . S
C1485 C1484 1.387 . S
H1486 C1498 0.930 . S
H1487 C1500 0.930 . S
H1488 C1501 0.930 1_556 S
H1489 C1505 0.959 . S
H1490 C1505 0.959 . S
H1491 C1505 0.961 . S
H1492 C1506 0.960 . S
H1493 C1506 0.961 . S
H1494 C1506 0.959 . S
H1495 C1509 0.929 . S
H1496 C1510 0.931 . S
H1497 C1512 0.930 . S
C1498 H1486 0.930 . S
C1498 C1499 1.399 . S
C1498 C1503 1.399 . S
C1499 C1498 1.399 . S
C1499 C1500 1.376 . S
C1500 H1487 0.930 . S
C1500 C1499 1.376 . S
C1500 C1501 1.388 . S
C1501 H1488 0.930 1_554 S
C1501 C1500 1.388 . S
C1501 C1502 1.390 . S
C1502 C1501 1.390 . S
C1502 C1503 1.394 . S
C1502 C1508 1.465 1_554 S
C1503 C1498 1.399 . S
C1503 C1502 1.394 . S
C1503 C1504 1.516 . S
C1504 C1503 1.516 . S
C1504 C1505 1.502 1_655 S
C1504 C1506 1.561 . S
C1504 C1507 1.526 1_554 S
C1505 H1489 0.959 . S
C1505 H1490 0.959 . S
C1505 H1491 0.961 . S
C1505 C1504 1.502 1_455 S
C1506 H1492 0.960 . S
C1506 H1493 0.961 . S
C1506 H1494 0.959 . S
C1506 C1504 1.561 . S
C1507 C1504 1.526 1_556 S
C1507 C1508 1.396 . S
C1507 C1512 1.390 . S
C1508 C1502 1.465 1_556 S
C1508 C1507 1.396 . S
C1508 C1509 1.399 . S
C1509 H1495 0.929 . S
C1509 C1508 1.399 . S
C1509 C1510 1.385 . S
C1510 H1496 0.931 . S
C1510 C1509 1.385 . S
C1510 C1511 1.389 . S
C1511 C1510 1.389 . S
C1511 C1512 1.387 . S
C1512 H1497 0.930 . S
C1512 C1507 1.390 . S
C1512 C1511 1.387 . S
H1513 C1525 0.930 . S
H1514 C1527 0.930 . S
H1515 C1528 0.930 . S
H1516 C1532 0.959 . S
H1517 C1532 0.959 . S
H1518 C1532 0.961 . S
H1519 C1533 0.960 . S
H1520 C1533 0.961 . S
H1521 C1533 0.959 . S
H1522 C1536 0.929 . S
H1523 C1537 0.931 . S
H1524 C1539 0.930 . S
C1525 H1513 0.930 . S
C1525 C1526 1.399 . S
C1525 C1530 1.399 . S
C1526 C1525 1.399 . S
C1526 C1527 1.376 1_565 S
C1527 H1514 0.930 . S
C1527 C1526 1.376 1_545 S
C1527 C1528 1.388 . S
C1528 H1515 0.930 . S
C1528 C1527 1.388 . S
C1528 C1529 1.390 1_545 S
C1529 C1528 1.390 1_565 S
C1529 C1530 1.394 . S
C1529 C1535 1.465 . S
C1530 C1525 1.399 . S
C1530 C1529 1.394 . S
C1530 C1531 1.516 . S
C1531 C1530 1.516 . S
C1531 C1532 1.502 . S
C1531 C1533 1.561 . S
C1531 C1534 1.526 . S
C1532 H1516 0.959 . S
C1532 H1517 0.959 . S
C1532 H1518 0.961 . S
C1532 C1531 1.502 . S
C1533 H1519 0.960 . S
C1533 H1520 0.961 . S
C1533 H1521 0.959 . S
C1533 C1531 1.561 . S
C1534 C1531 1.526 . S
C1534 C1535 1.396 . S
C1534 C1539 1.390 . S
C1535 C1529 1.465 . S
C1535 C1534 1.396 . S
C1535 C1536 1.399 1_565 S
C1536 H1522 0.929 . S
C1536 C1535 1.399 1_545 S
C1536 C1537 1.385 . S
C1537 H1523 0.931 . S
C1537 C1536 1.385 . S
C1537 C1538 1.389 1_545 S
C1538 C1537 1.389 1_565 S
C1538 C1539 1.387 . S
C1539 H1524 0.930 . S
C1539 C1534 1.390 . S
C1539 C1538 1.387 . S
H1540 C1552 0.930 . S
H1541 C1554 0.930 . S
H1542 C1555 0.930 . S
H1543 C1559 0.959 1_556 S
H1544 C1559 0.959 1_556 S
H1545 C1559 0.961 . S
H1546 C1560 0.960 . S
H1547 C1560 0.961 . S
H1548 C1560 0.959 . S
H1549 C1563 0.929 . S
H1550 C1564 0.931 . S
H1551 C1566 0.930 . S
C1552 H1540 0.930 . S
C1552 C1553 1.399 . S
C1552 C1557 1.399 . S
C1553 C1552 1.399 . S
C1553 C1554 1.376 . S
C1554 H1541 0.930 . S
C1554 C1553 1.376 . S
C1554 C1555 1.388 . S
C1555 H1542 0.930 . S
C1555 C1554 1.388 . S
C1555 C1556 1.390 . S
C1556 C1555 1.390 . S
C1556 C1557 1.394 . S
C1556 C1562 1.465 1_554 S
C1557 C1552 1.399 . S
C1557 C1556 1.394 . S
C1557 C1558 1.516 . S
C1558 C1557 1.516 . S
C1558 C1559 1.502 . S
C1558 C1560 1.561 . S
C1558 C1561 1.526 1_554 S
C1559 H1543 0.959 1_554 S
C1559 H1544 0.959 1_554 S
C1559 H1545 0.961 . S
C1559 C1558 1.502 . S
C1560 H1546 0.960 . S
C1560 H1547 0.961 . S
C1560 H1548 0.959 . S
C1560 C1558 1.561 . S
C1561 C1558 1.526 1_556 S
C1561 C1562 1.396 . S
C1561 C1566 1.390 . S
C1562 C1556 1.465 1_556 S
C1562 C1561 1.396 . S
C1562 C1563 1.399 . S
C1563 H1549 0.929 . S
C1563 C1562 1.399 . S
C1563 C1564 1.385 . S
C1564 H1550 0.931 . S
C1564 C1563 1.385 . S
C1564 C1565 1.389 . S
C1565 C1564 1.389 . S
C1565 C1566 1.387 . S
C1566 H1551 0.930 . S
C1566 C1561 1.390 . S
C1566 C1565 1.387 . S
H1567 C1579 0.930 . S
H1568 C1581 0.930 . S
H1569 C1582 0.930 . S
H1570 C1586 0.959 . S
H1571 C1586 0.959 . S
H1572 C1586 0.961 . S
H1573 C1587 0.960 . S
H1574 C1587 0.961 . S
H1575 C1587 0.959 . S
H1576 C1590 0.929 . S
H1577 C1591 0.931 . S
H1578 C1593 0.930 . S
C1579 H1567 0.930 . S
C1579 C1580 1.399 . S
C1579 C1584 1.399 . S
C1580 C1579 1.399 . S
C1580 C1581 1.376 . S
C1581 H1568 0.930 . S
C1581 C1580 1.376 . S
C1581 C1582 1.388 . S
C1582 H1569 0.930 . S
C1582 C1581 1.388 . S
C1582 C1583 1.390 . S
C1583 C1582 1.390 . S
C1583 C1584 1.394 . S
C1583 C1589 1.465 . S
C1584 C1579 1.399 . S
C1584 C1583 1.394 . S
C1584 C1585 1.516 . S
C1585 C1584 1.516 . S
C1585 C1586 1.502 . S
C1585 C1587 1.561 . S
C1585 C1588 1.526 . S
C1586 H1570 0.959 . S
C1586 H1571 0.959 . S
C1586 H1572 0.961 . S
C1586 C1585 1.502 . S
C1587 H1573 0.960 . S
C1587 H1574 0.961 . S
C1587 H1575 0.959 . S
C1587 C1585 1.561 . S
C1588 C1585 1.526 . S
C1588 C1589 1.396 . S
C1588 C1593 1.390 . S
C1589 C1583 1.465 . S
C1589 C1588 1.396 . S
C1589 C1590 1.399 . S
C1590 H1576 0.929 . S
C1590 C1589 1.399 . S
C1590 C1591 1.385 . S
C1591 H1577 0.931 . S
C1591 C1590 1.385 . S
C1591 C1592 1.389 . S
C1592 C1591 1.389 . S
C1592 C1593 1.387 . S
C1593 H1578 0.930 . S
C1593 C1588 1.390 . S
C1593 C1592 1.387 . S
H1594 C1606 0.930 1_655 S
H1595 C1608 0.930 . S
H1596 C1609 0.930 . S
H1597 C1613 0.959 . S
H1598 C1613 0.959 . S
H1599 C1613 0.961 . S
H1600 C1614 0.960 . S
H1601 C1614 0.961 . S
H1602 C1614 0.959 . S
H1603 C1617 0.929 1_556 S
H1604 C1618 0.931 . S
H1605 C1620 0.930 1_655 S
C1606 H1594 0.930 1_455 S
C1606 C1607 1.399 . S
C1606 C1611 1.399 . S
C1607 C1606 1.399 . S
C1607 C1608 1.376 . S
C1608 H1595 0.930 . S
C1608 C1607 1.376 . S
C1608 C1609 1.388 . S
C1609 H1596 0.930 . S
C1609 C1608 1.388 . S
C1609 C1610 1.390 . S
C1610 C1609 1.390 . S
C1610 C1611 1.394 . S
C1610 C1616 1.465 1_556 S
C1611 C1606 1.399 . S
C1611 C1610 1.394 . S
C1611 C1612 1.516 1_556 S
C1612 C1611 1.516 1_554 S
C1612 C1613 1.502 1_455 S
C1612 C1614 1.561 . S
C1612 C1615 1.526 . S
C1613 H1597 0.959 . S
C1613 H1598 0.959 . S
C1613 H1599 0.961 . S
C1613 C1612 1.502 1_655 S
C1614 H1600 0.960 . S
C1614 H1601 0.961 . S
C1614 H1602 0.959 . S
C1614 C1612 1.561 . S
C1615 C1612 1.526 . S
C1615 C1616 1.396 . S
C1615 C1620 1.390 . S
C1616 C1610 1.465 1_554 S
C1616 C1615 1.396 . S
C1616 C1617 1.399 . S
C1617 H1603 0.929 1_554 S
C1617 C1616 1.399 . S
C1617 C1618 1.385 . S
C1618 H1604 0.931 . S
C1618 C1617 1.385 . S
C1618 C1619 1.389 . S
C1619 C1618 1.389 . S
C1619 C1620 1.387 . S
C1620 H1605 0.930 1_455 S
C1620 C1615 1.390 . S
C1620 C1619 1.387 . S
H1621 C1633 0.930 . S
H1622 C1635 0.930 . S
H1623 C1636 0.930 . S
H1624 C1640 0.959 . S
H1625 C1640 0.959 . S
H1626 C1640 0.961 . S
H1627 C1641 0.960 . S
H1628 C1641 0.961 . S
H1629 C1641 0.959 . S
H1630 C1644 0.929 . S
H1631 C1645 0.931 . S
H1632 C1647 0.930 . S
C1633 H1621 0.930 . S
C1633 C1634 1.399 . S
C1633 C1638 1.399 . S
C1634 C1633 1.399 . S
C1634 C1635 1.376 1_545 S
C1635 H1622 0.930 . S
C1635 C1634 1.376 1_565 S
C1635 C1636 1.388 . S
C1636 H1623 0.930 . S
C1636 C1635 1.388 . S
C1636 C1637 1.390 1_565 S
C1637 C1636 1.390 1_545 S
C1637 C1638 1.394 . S
C1637 C1643 1.465 . S
C1638 C1633 1.399 . S
C1638 C1637 1.394 . S
C1638 C1639 1.516 . S
C1639 C1638 1.516 . S
C1639 C1640 1.502 . S
C1639 C1641 1.561 . S
C1639 C1642 1.526 . S
C1640 H1624 0.959 . S
C1640 H1625 0.959 . S
C1640 H1626 0.961 . S
C1640 C1639 1.502 . S
C1641 H1627 0.960 . S
C1641 H1628 0.961 . S
C1641 H1629 0.959 . S
C1641 C1639 1.561 . S
C1642 C1639 1.526 . S
C1642 C1643 1.396 . S
C1642 C1647 1.390 . S
C1643 C1637 1.465 . S
C1643 C1642 1.396 . S
C1643 C1644 1.399 1_545 S
C1644 H1630 0.929 . S
C1644 C1643 1.399 1_565 S
C1644 C1645 1.385 . S
C1645 H1631 0.931 . S
C1645 C1644 1.385 . S
C1645 C1646 1.389 1_565 S
C1646 C1645 1.389 1_545 S
C1646 C1647 1.387 . S
C1647 H1632 0.930 . S
C1647 C1642 1.390 . S
C1647 C1646 1.387 . S
C365 C7 1.120 . S
C377 C202 1.185 . S
C392 C29 1.175 . S
C404 C224 1.159 . S
C419 C246 1.146 . S
C431 C51 1.084 . S
C446 C184 1.106 . S
C458 C73 1.147 . S
C473 C95 1.087 . S
C485 C338 1.169 . S
C500 C272 1.154 . S
C512 C116 1.083 . S
C527 C294 1.150 . S
C539 C138 1.083 . S
C554 C316 1.121 . S
C566 C160 1.101 . S
C581 C30 1.107 . S
C593 C185 1.172 . S
C608 C203 1.180 . S
C620 C52 1.127 . S
C635 C74 1.185 . S
C647 C225 1.103 . S
C662 C8 1.110 . S
C674 C247 1.178 . S
C689 C158 1.134 . S
C701 C273 1.176 . S
C716 C96 1.117 . S
C728 C295 1.181 . S
C743 C317 1.178 . S
C755 C114 1.131 . S
C770 C136 1.109 . S
C782 C339 1.152 . S
C797 C4 1.495 . S
C809 C337 1.475 . S
C824 C26 1.492 . S
C836 C271 1.486 . S
C851 C48 1.447 . S
C863 C293 1.516 . S
C878 C315 1.504 . S
C890 C70 1.448 . S
C905 C92 1.487 . S
C917 C204 1.480 . S
C932 C118 1.494 . S
C944 C226 1.484 . S
C959 C140 1.482 . S
C971 C248 1.483 . S
C986 C183 1.476 . S
C998 C162 1.502 . S
C1013 C180 1.428 . S
C1025 C159 1.506 . S
C1040 C206 1.485 . S
C1052 C97 1.473 . S
C1067 C228 1.453 . S
C1079 C115 1.485 . S
C1094 C250 1.449 . S
C1106 C137 1.524 . S
C1121 C31 1.472 . S
C1133 C268 1.484 . S
C1148 C53 1.506 . S
C1160 C290 1.429 . S
C1175 C75 1.504 . S
C1187 C312 1.490 . S
C1202 C334 1.483 . S
C1214 C9 1.473 . S
C1229 C161 1.317 1_545 S
C1241 C6 1.336 . S
C1256 C94 1.306 . S
C1268 C28 1.392 . S
C1283 C50 1.395 1_455 S
C1295 C117 1.281 . S
C1310 C72 1.389 1_545 S
C1322 C139 1.313 1_455 S
C1337 C335 1.398 1_565 S
C1349 C181 1.301 . S
C1364 C207 1.358 . S
C1376 C269 1.382 . S
C1391 C291 1.394 . S
C1403 C229 1.340 1_655 S
C1418 C251 1.301 1_565 S
C1430 C313 1.318 1_655 S
C1445 C5 1.303 . S
C1457 C93 1.323 . S
C1472 C119 1.278 . S
C1484 C27 1.257 . S
C1499 C49 1.257 . S
C1511 C141 1.241 . S
C1526 C163 1.334 . S
C1538 C71 1.318 . S
C1553 C270 1.340 . S
C1565 C182 1.327 . S
C1580 C292 1.263 . S
C1592 C205 1.233 . S
C1607 C227 1.232 . S
C1619 C314 1.266 . S
C1634 C249 1.311 . S
C1646 C336 1.341 . S
