# Generated by pormake.
# Topology tzs, (4)-cn, num edge types: 1
# Building blocks:
#     Node 0, Type 0, BuildingBlock: KUFVIS_clean_sbu_0, # of connection points: 4
#     Node 1, Type 0, BuildingBlock: KUFVIS_clean_sbu_0, # of connection points: 4
#     Node 2, Type 0, BuildingBlock: KUFVIS_clean_sbu_0, # of connection points: 4
#     Node 3, Type 0, BuildingBlock: KUFVIS_clean_sbu_0, # of connection points: 4
#     Node 4, Type 0, BuildingBlock: KUFVIS_clean_sbu_0, # of connection points: 4
#     Node 5, Type 0, BuildingBlock: KUFVIS_clean_sbu_0, # of connection points: 4
#     Node 6, Type 0, BuildingBlock: KUFVIS_clean_sbu_0, # of connection points: 4
#     Node 7, Type 0, BuildingBlock: KUFVIS_clean_sbu_0, # of connection points: 4
#     Node 8, Type 0, BuildingBlock: KUFVIS_clean_sbu_0, # of connection points: 4
#     Node 9, Type 0, BuildingBlock: KUFVIS_clean_sbu_0, # of connection points: 4
#     Node 10, Type 0, BuildingBlock: KUFVIS_clean_sbu_0, # of connection points: 4
#     Node 11, Type 0, BuildingBlock: KUFVIS_clean_sbu_0, # of connection points: 4
#     Node 12, Type 0, BuildingBlock: KUFVIS_clean_sbu_0, # of connection points: 4
#     Node 13, Type 0, BuildingBlock: KUFVIS_clean_sbu_0, # of connection points: 4
#     Node 14, Type 0, BuildingBlock: KUFVIS_clean_sbu_0, # of connection points: 4
#     Node 15, Type 0, BuildingBlock: KUFVIS_clean_sbu_0, # of connection points: 4
#     Edge 16, Type (0, 0), BuildingBlock: XIVTED_clean_linker_0, # of connection points: 2
#     Edge 17, Type (0, 0), BuildingBlock: XIVTED_clean_linker_0, # of connection points: 2
#     Edge 18, Type (0, 0), BuildingBlock: XIVTED_clean_linker_0, # of connection points: 2
#     Edge 19, Type (0, 0), BuildingBlock: XIVTED_clean_linker_0, # of connection points: 2
#     Edge 20, Type (0, 0), BuildingBlock: XIVTED_clean_linker_0, # of connection points: 2
#     Edge 21, Type (0, 0), BuildingBlock: XIVTED_clean_linker_0, # of connection points: 2
#     Edge 22, Type (0, 0), BuildingBlock: XIVTED_clean_linker_0, # of connection points: 2
#     Edge 23, Type (0, 0), BuildingBlock: XIVTED_clean_linker_0, # of connection points: 2
#     Edge 24, Type (0, 0), BuildingBlock: XIVTED_clean_linker_0, # of connection points: 2
#     Edge 25, Type (0, 0), BuildingBlock: XIVTED_clean_linker_0, # of connection points: 2
#     Edge 26, Type (0, 0), BuildingBlock: XIVTED_clean_linker_0, # of connection points: 2
#     Edge 27, Type (0, 0), BuildingBlock: XIVTED_clean_linker_0, # of connection points: 2
#     Edge 28, Type (0, 0), BuildingBlock: XIVTED_clean_linker_0, # of connection points: 2
#     Edge 29, Type (0, 0), BuildingBlock: XIVTED_clean_linker_0, # of connection points: 2
#     Edge 30, Type (0, 0), BuildingBlock: XIVTED_clean_linker_0, # of connection points: 2
#     Edge 31, Type (0, 0), BuildingBlock: XIVTED_clean_linker_0, # of connection points: 2
#     Edge 32, Type (0, 0), BuildingBlock: XIVTED_clean_linker_0, # of connection points: 2
#     Edge 33, Type (0, 0), BuildingBlock: XIVTED_clean_linker_0, # of connection points: 2
#     Edge 34, Type (0, 0), BuildingBlock: XIVTED_clean_linker_0, # of connection points: 2
#     Edge 35, Type (0, 0), BuildingBlock: XIVTED_clean_linker_0, # of connection points: 2
#     Edge 36, Type (0, 0), BuildingBlock: XIVTED_clean_linker_0, # of connection points: 2
#     Edge 37, Type (0, 0), BuildingBlock: XIVTED_clean_linker_0, # of connection points: 2
#     Edge 38, Type (0, 0), BuildingBlock: XIVTED_clean_linker_0, # of connection points: 2
#     Edge 39, Type (0, 0), BuildingBlock: XIVTED_clean_linker_0, # of connection points: 2
#     Edge 40, Type (0, 0), BuildingBlock: XIVTED_clean_linker_0, # of connection points: 2
#     Edge 41, Type (0, 0), BuildingBlock: XIVTED_clean_linker_0, # of connection points: 2
#     Edge 42, Type (0, 0), BuildingBlock: XIVTED_clean_linker_0, # of connection points: 2
#     Edge 43, Type (0, 0), BuildingBlock: XIVTED_clean_linker_0, # of connection points: 2
#     Edge 44, Type (0, 0), BuildingBlock: XIVTED_clean_linker_0, # of connection points: 2
#     Edge 45, Type (0, 0), BuildingBlock: XIVTED_clean_linker_0, # of connection points: 2
#     Edge 46, Type (0, 0), BuildingBlock: XIVTED_clean_linker_0, # of connection points: 2
#     Edge 47, Type (0, 0), BuildingBlock: XIVTED_clean_linker_0, # of connection points: 2
# Relax obj value: 0.099
# Max RMSD: 0.096
# Mean RMSD: 0.096
data_MOF--net-tzs--node1-KUFVIS_clean_sbu_0--edge1-XIVTED_clean_linker_0
_symmetry_space_group_name_H-M    P1
_symmetry_Int_Tables_number       1
_symmetry_cell_setting            triclinic
loop_
_symmetry_equiv_pos_as_xyz
'x, y, z'
_cell_length_a     48.340913
_cell_length_b     48.343731
_cell_length_c     39.771653
_cell_angle_alpha  90.02947
_cell_angle_beta   90.005399
_cell_angle_gamma 90.033859
loop_
_atom_site_label
_atom_site_type_symbol
_atom_site_fract_x
_atom_site_fract_y
_atom_site_fract_z
_atom_type_partial_charge
Mn0 Mn 0.14777 0.36608 0.19537 0.0
Mn1 Mn 0.20523 0.39614 0.16309 0.0
C2 C 0.16591 0.40577 0.21906 0.0
C3 C 0.09994 0.3608 0.20188 0.0
C4 C 0.20661 0.34335 0.2036 0.0
O5 O 0.1488 0.35091 0.14724 0.0
O6 O 0.18757 0.37249 0.12863 0.0
C7 C 0.17959 0.43226 0.11172 0.0
N8 N 0.19563 0.42926 0.13964 0.0
C9 C 0.20488 0.47815 0.14166 0.0
C10 C 0.18856 0.48174 0.11284 0.0
C11 C 0.17584 0.4587 0.09784 0.0
C12 C 0.2081 0.45128 0.15417 0.0
H13 H 0.16972 0.41463 0.10014 0.0
C14 C 0.16676 0.35643 0.12447 0.0
O15 O 0.11706 0.3411 0.20935 0.0
O16 O 0.11041 0.3829 0.18835 0.0
N17 N 0.22361 0.41997 0.19439 0.0
C18 C 0.2367 0.41327 0.22361 0.0
C19 C 0.24943 0.43419 0.24263 0.0
C20 C 0.24864 0.46172 0.23138 0.0
C21 C 0.23502 0.46811 0.20124 0.0
C22 C 0.22285 0.44637 0.18324 0.0
H23 H 0.23725 0.39216 0.23242 0.0
O24 O 0.15137 0.38885 0.23726 0.0
O25 O 0.17038 0.39831 0.18825 0.0
O26 O 0.18073 0.34205 0.20919 0.0
O27 O 0.21797 0.36261 0.18666 0.0
C28 C 0.23254 0.49525 0.1887 0.0
C29 C 0.21752 0.50026 0.15891 0.0
H30 H 0.18543 0.50213 0.10222 0.0
H31 H 0.16311 0.46132 0.07569 0.0
H32 H 0.25977 0.42913 0.26596 0.0
H33 H 0.25837 0.4778 0.2462 0.0
H34 H 0.24174 0.51249 0.202 0.0
H35 H 0.21541 0.52127 0.14982 0.0
Mn36 Mn 0.64559 0.14284 0.19852 0.0
Mn37 Mn 0.61775 0.20015 0.16314 0.0
C38 C 0.60619 0.16313 0.22089 0.0
C39 C 0.64926 0.09495 0.20699 0.0
C40 C 0.6713 0.20053 0.20251 0.0
O41 O 0.66103 0.14213 0.15025 0.0
O42 O 0.63831 0.17928 0.12876 0.0
C43 C 0.57736 0.1756 0.11572 0.0
N44 N 0.58294 0.1923 0.14246 0.0
C45 C 0.53525 0.20617 0.14653 0.0
C46 C 0.52898 0.18909 0.11905 0.0
C47 C 0.55013 0.17372 0.10362 0.0
C48 C 0.56277 0.20726 0.15742 0.0
H49 H 0.59357 0.16381 0.10375 0.0
C50 C 0.65438 0.15837 0.126 0.0
O51 O 0.66941 0.11168 0.21403 0.0
O52 O 0.62761 0.10577 0.19279 0.0
N53 N 0.59699 0.22151 0.19473 0.0
C54 C 0.60621 0.23556 0.22225 0.0
C55 C 0.58759 0.25168 0.2409 0.0
C56 C 0.55974 0.25318 0.23105 0.0
C57 C 0.55064 0.23816 0.20297 0.0
C58 C 0.57022 0.2227 0.18514 0.0
H59 H 0.62764 0.23463 0.2298 0.0
O60 O 0.62232 0.14842 0.23991 0.0
O61 O 0.61429 0.16644 0.19016 0.0
O62 O 0.67067 0.17529 0.2115 0.0
O63 O 0.65315 0.21149 0.18356 0.0
C64 C 0.52294 0.23781 0.19204 0.0
C65 C 0.51521 0.22178 0.16391 0.0
H66 H 0.50798 0.18749 0.10973 0.0
H67 H 0.54545 0.16046 0.08243 0.0
H68 H 0.59471 0.26309 0.26266 0.0
H69 H 0.54564 0.26606 0.24517 0.0
H70 H 0.50738 0.24962 0.20525 0.0
H71 H 0.49376 0.2214 0.15606 0.0
Mn72 Mn 0.85873 0.64259 0.19536 0.0
Mn73 Mn 0.80278 0.61049 0.16197 0.0
C74 C 0.84101 0.60262 0.21909 0.0
C75 C 0.90642 0.6487 0.20332 0.0
C76 C 0.79885 0.66324 0.20246 0.0
O77 O 0.85852 0.65719 0.14709 0.0
O78 O 0.82003 0.63525 0.12829 0.0
C79 C 0.83078 0.57604 0.11061 0.0
N80 N 0.81402 0.57809 0.13802 0.0
C81 C 0.80586 0.52897 0.13814 0.0
C82 C 0.82294 0.52636 0.10983 0.0
C83 C 0.8355 0.55 0.09607 0.0
C84 C 0.8018 0.55548 0.15145 0.0
H85 H 0.84047 0.59413 0.09992 0.0
C86 C 0.84066 0.65155 0.12427 0.0
O87 O 0.88886 0.66822 0.21004 0.0
O88 O 0.89649 0.62636 0.18981 0.0
N89 N 0.78464 0.58553 0.19213 0.0
C90 C 0.77047 0.59131 0.22091 0.0
C91 C 0.75753 0.56974 0.23856 0.0
C92 C 0.75916 0.54252 0.22636 0.0
C93 C 0.77388 0.53707 0.19673 0.0
C94 C 0.78623 0.55942 0.18011 0.0
H95 H 0.76918 0.6122 0.23039 0.0
O96 O 0.85461 0.62015 0.23752 0.0
O97 O 0.83714 0.60958 0.18802 0.0
O98 O 0.82476 0.66624 0.20729 0.0
O99 O 0.78857 0.64291 0.18631 0.0
C100 C 0.77715 0.5103 0.18333 0.0
C101 C 0.79314 0.50625 0.15406 0.0
H102 H 0.82675 0.50629 0.09863 0.0
H103 H 0.8488 0.54814 0.07429 0.0
H104 H 0.74631 0.57407 0.26151 0.0
H105 H 0.74913 0.52594 0.23999 0.0
H106 H 0.76785 0.49261 0.19565 0.0
H107 H 0.79587 0.4855 0.14432 0.0
Mn108 Mn 0.36177 0.86391 0.19552 0.0
Mn109 Mn 0.39229 0.80808 0.15986 0.0
C110 C 0.40212 0.84529 0.21733 0.0
C111 C 0.35716 0.91163 0.20509 0.0
C112 C 0.34043 0.80417 0.20204 0.0
O113 O 0.34593 0.86464 0.1477 0.0
O114 O 0.36702 0.82612 0.12765 0.0
C115 C 0.42589 0.83658 0.10806 0.0
N116 N 0.42425 0.81935 0.13508 0.0
C117 C 0.47327 0.81075 0.13343 0.0
C118 C 0.47545 0.82834 0.10553 0.0
C119 C 0.45166 0.84134 0.09284 0.0
C120 C 0.44702 0.80672 0.14747 0.0
H121 H 0.40768 0.84661 0.09821 0.0
C122 C 0.35084 0.84691 0.12447 0.0
O123 O 0.33733 0.89445 0.21206 0.0
O124 O 0.37872 0.90138 0.19019 0.0
N125 N 0.41768 0.78918 0.18866 0.0
C126 C 0.41229 0.77432 0.21702 0.0
C127 C 0.43395 0.76033 0.23319 0.0
C128 C 0.46086 0.76172 0.22001 0.0
C129 C 0.46599 0.77745 0.19107 0.0
C130 C 0.44351 0.79066 0.17579 0.0
H131 H 0.39162 0.77313 0.22719 0.0
O132 O 0.38525 0.85878 0.23672 0.0
O133 O 0.39424 0.84197 0.18652 0.0
O134 O 0.33779 0.83005 0.20753 0.0
O135 O 0.36028 0.79396 0.18501 0.0
C136 C 0.49252 0.78076 0.17695 0.0
C137 C 0.49618 0.79748 0.14823 0.0
H138 H 0.49531 0.83217 0.09381 0.0
H139 H 0.45319 0.85501 0.07138 0.0
H140 H 0.42991 0.74838 0.25566 0.0
H141 H 0.47736 0.75057 0.23231 0.0
H142 H 0.51033 0.77081 0.18816 0.0
H143 H 0.51674 0.80019 0.13792 0.0
Mn144 Mn 0.14654 0.64451 0.3067 0.0
Mn145 Mn 0.20382 0.61348 0.33789 0.0
C146 C 0.1646 0.60511 0.28195 0.0
C147 C 0.09859 0.64942 0.30003 0.0
C148 C 0.20583 0.66657 0.29796 0.0
O149 O 0.14735 0.6587 0.35518 0.0
O150 O 0.18697 0.6379 0.37223 0.0
C151 C 0.17751 0.57851 0.39003 0.0
N152 N 0.19361 0.58087 0.36207 0.0
C153 C 0.20225 0.53184 0.36129 0.0
C154 C 0.18586 0.52893 0.39016 0.0
C155 C 0.17339 0.55236 0.40453 0.0
C156 C 0.20574 0.55845 0.34805 0.0
H157 H 0.16787 0.59644 0.40118 0.0
C158 C 0.16597 0.65354 0.37725 0.0
O159 O 0.11552 0.66946 0.29314 0.0
O160 O 0.10932 0.62729 0.31308 0.0
N161 N 0.22164 0.58886 0.30703 0.0
C162 C 0.23506 0.59492 0.27782 0.0
C163 C 0.2478 0.57357 0.25956 0.0
C164 C 0.24671 0.54628 0.27159 0.0
C165 C 0.23276 0.54055 0.30168 0.0
C166 C 0.22059 0.56269 0.31891 0.0
H167 H 0.2359 0.61586 0.26844 0.0
O168 O 0.15035 0.62251 0.26412 0.0
O169 O 0.16895 0.61196 0.31298 0.0
O170 O 0.17975 0.66912 0.29424 0.0
O171 O 0.21692 0.64621 0.3132 0.0
C172 C 0.23004 0.51368 0.31497 0.0
C173 C 0.21479 0.50933 0.34475 0.0
H174 H 0.1825 0.50877 0.40132 0.0
H175 H 0.16062 0.55026 0.42673 0.0
H176 H 0.25841 0.57813 0.23625 0.0
H177 H 0.25656 0.52988 0.25746 0.0
H178 H 0.23921 0.49614 0.30222 0.0
H179 H 0.21248 0.48851 0.35442 0.0
Mn180 Mn 0.36694 0.15103 0.30702 0.0
Mn181 Mn 0.39858 0.21013 0.3316 0.0
C182 C 0.40575 0.16763 0.27894 0.0
C183 C 0.36133 0.10285 0.30474 0.0
C184 C 0.3428 0.20884 0.29722 0.0
O185 O 0.35433 0.15548 0.35646 0.0
O186 O 0.37965 0.1933 0.37017 0.0
C187 C 0.44095 0.18872 0.37864 0.0
N188 N 0.43428 0.20297 0.35025 0.0
C189 C 0.48191 0.2151 0.34065 0.0
C190 C 0.4893 0.20058 0.3698 0.0
C191 C 0.46874 0.18725 0.38881 0.0
C192 C 0.45391 0.21583 0.33175 0.0
H193 H 0.4252 0.17853 0.39338 0.0
C194 C 0.36331 0.17342 0.37782 0.0
O195 O 0.3413 0.11965 0.29762 0.0
O196 O 0.38402 0.11395 0.31596 0.0
N197 N 0.418 0.22754 0.2955 0.0
C198 C 0.40765 0.2389 0.2668 0.0
C199 C 0.42564 0.25216 0.24429 0.0
C200 C 0.45401 0.25369 0.2516 0.0
C201 C 0.4642 0.24161 0.28116 0.0
C202 C 0.44529 0.22875 0.30268 0.0
H203 H 0.38583 0.2379 0.26115 0.0
O204 O 0.38816 0.15191 0.26328 0.0
O205 O 0.39929 0.17405 0.30946 0.0
O206 O 0.34217 0.18294 0.29178 0.0
O207 O 0.36239 0.22086 0.31285 0.0
C208 C 0.49239 0.24168 0.29002 0.0
C209 C 0.50125 0.22851 0.31977 0.0
H210 H 0.51072 0.19934 0.37767 0.0
H211 H 0.47429 0.17593 0.41129 0.0
H212 H 0.41764 0.26132 0.22144 0.0
H213 H 0.46773 0.26421 0.23433 0.0
H214 H 0.50741 0.25161 0.27401 0.0
H215 H 0.52305 0.22851 0.3261 0.0
Mn216 Mn 0.86021 0.36429 0.30557 0.0
Mn217 Mn 0.80227 0.39331 0.33794 0.0
C218 C 0.84107 0.40336 0.28155 0.0
C219 C 0.90815 0.36031 0.29895 0.0
C220 C 0.80206 0.33974 0.2986 0.0
O221 O 0.85962 0.34949 0.35389 0.0
O222 O 0.82108 0.37125 0.37302 0.0
C223 C 0.82676 0.43165 0.38784 0.0
N224 N 0.81082 0.42737 0.36008 0.0
C225 C 0.79985 0.47582 0.35636 0.0
C226 C 0.81607 0.48073 0.38498 0.0
C227 C 0.82961 0.45854 0.40075 0.0
C228 C 0.79754 0.44854 0.34484 0.0
H229 H 0.83722 0.41469 0.40004 0.0
C230 C 0.84211 0.35546 0.37701 0.0
O231 O 0.89156 0.34008 0.29171 0.0
O232 O 0.8971 0.38217 0.31236 0.0
N233 N 0.78297 0.41568 0.30589 0.0
C234 C 0.77015 0.40781 0.27691 0.0
C235 C 0.75683 0.4278 0.25707 0.0
C236 C 0.75675 0.45563 0.26728 0.0
C237 C 0.77008 0.46322 0.29721 0.0
C238 C 0.78291 0.44238 0.31601 0.0
H239 H 0.7703 0.38647 0.26886 0.0
O240 O 0.85596 0.38666 0.26346 0.0
O241 O 0.83687 0.39598 0.31243 0.0
O242 O 0.82784 0.33931 0.29217 0.0
O243 O 0.79045 0.35874 0.31575 0.0
C244 C 0.77163 0.49074 0.30876 0.0
C245 C 0.78644 0.49702 0.33836 0.0
H246 H 0.81852 0.50148 0.39484 0.0
H247 H 0.84226 0.46218 0.42276 0.0
H248 H 0.74673 0.4218 0.2339 0.0
H249 H 0.74662 0.47101 0.2518 0.0
H250 H 0.76185 0.5073 0.29487 0.0
H251 H 0.78782 0.51831 0.3467 0.0
Mn252 Mn 0.64047 0.85599 0.30991 0.0
Mn253 Mn 0.60476 0.79924 0.33441 0.0
C254 C 0.60101 0.84162 0.28159 0.0
C255 C 0.64773 0.90389 0.30686 0.0
C256 C 0.65975 0.79626 0.29821 0.0
O257 O 0.65287 0.85142 0.35912 0.0
O258 O 0.62749 0.81348 0.37169 0.0
C259 C 0.5678 0.82501 0.38491 0.0
N260 N 0.57121 0.80999 0.35622 0.0
C261 C 0.52204 0.80376 0.35042 0.0
C262 C 0.51802 0.81905 0.37997 0.0
C263 C 0.54101 0.82978 0.39724 0.0
C264 C 0.54924 0.79959 0.3394 0.0
H265 H 0.58538 0.83333 0.39826 0.0
C266 C 0.64446 0.83273 0.37971 0.0
O267 O 0.66732 0.88642 0.30003 0.0
O268 O 0.62485 0.8936 0.31845 0.0
N269 N 0.58144 0.7841 0.3002 0.0
C270 C 0.58879 0.77158 0.27083 0.0
C271 C 0.56817 0.76048 0.24997 0.0
C272 C 0.54029 0.76227 0.25958 0.0
C273 C 0.5332 0.77536 0.28984 0.0
C274 C 0.55466 0.78586 0.30973 0.0
H275 H 0.61021 0.77015 0.26336 0.0
O276 O 0.61975 0.85587 0.26591 0.0
O277 O 0.60662 0.83517 0.31234 0.0
O278 O 0.66361 0.82228 0.29587 0.0
O279 O 0.63838 0.78565 0.31189 0.0
C280 C 0.5057 0.77877 0.30085 0.0
C281 C 0.50012 0.79301 0.33106 0.0
H282 H 0.49738 0.82291 0.38947 0.0
H283 H 0.53807 0.84171 0.41999 0.0
H284 H 0.57375 0.75052 0.22656 0.0
H285 H 0.52455 0.75356 0.24346 0.0
H286 H 0.48862 0.7709 0.2861 0.0
H287 H 0.47886 0.79591 0.33892 0.0
Mn288 Mn 0.86547 0.64619 0.80656 0.0
Mn289 Mn 0.89832 0.70186 0.83943 0.0
C290 C 0.90577 0.66316 0.78271 0.0
C291 C 0.85882 0.59857 0.79892 0.0
C292 C 0.84534 0.70623 0.79943 0.0
O293 O 0.8509 0.64693 0.8549 0.0
O294 O 0.87364 0.68505 0.87348 0.0
C295 C 0.93296 0.67366 0.89039 0.0
N296 N 0.93083 0.69032 0.86291 0.0
C297 C 0.98013 0.69725 0.86137 0.0
C298 C 0.98283 0.68025 0.88974 0.0
C299 C 0.95914 0.66838 0.90427 0.0
C300 C 0.95349 0.70193 0.84879 0.0
H301 H 0.91483 0.66443 0.9016 0.0
C302 C 0.85696 0.66474 0.87766 0.0
O303 O 0.83948 0.6163 0.79213 0.0
O304 O 0.88125 0.60831 0.81242 0.0
N305 N 0.92315 0.71949 0.80872 0.0
C306 C 0.91716 0.73359 0.77998 0.0
C307 C 0.93867 0.74598 0.76168 0.0
C308 C 0.96605 0.7438 0.77316 0.0
C309 C 0.97173 0.72907 0.80272 0.0
C310 C 0.94941 0.71739 0.82008 0.0
H311 H 0.89615 0.73527 0.77101 0.0
O312 O 0.88806 0.64974 0.76435 0.0
O313 O 0.89869 0.66738 0.81367 0.0
O314 O 0.84221 0.68037 0.79443 0.0
O315 O 0.86578 0.71633 0.81553 0.0
C316 C 0.99868 0.72509 0.81531 0.0
C317 C 1.00288 0.70917 0.84459 0.0
H318 H 1.003 0.67596 0.90037 0.0
H319 H 0.96107 0.65514 0.92608 0.0
H320 H 0.93417 0.75719 0.73878 0.0
H321 H 0.9825 0.75343 0.75898 0.0
H322 H 0.01638 0.7338 0.8024 0.0
H323 H 0.02374 0.70587 0.8537 0.0
Mn324 Mn 0.36445 0.86122 0.80782 0.0
Mn325 Mn 0.30784 0.89239 0.84068 0.0
C326 C 0.34658 0.9013 0.78443 0.0
C327 C 0.41229 0.85594 0.79994 0.0
C328 C 0.30478 0.84002 0.79943 0.0
O329 O 0.36404 0.84624 0.85604 0.0
O330 O 0.32487 0.86737 0.87397 0.0
C331 C 0.33514 0.92634 0.89314 0.0
N332 N 0.31859 0.92452 0.8655 0.0
C333 C 0.30983 0.97352 0.86647 0.0
C334 C 0.3267 0.9759 0.89501 0.0
C335 C 0.33946 0.95221 0.90834 0.0
C336 C 0.30623 0.94719 0.85246 0.0
H337 H 0.34496 0.90821 0.90352 0.0
C338 C 0.34563 0.85135 0.87841 0.0
O339 O 0.39505 0.83617 0.79297 0.0
O340 O 0.40198 0.87791 0.81389 0.0
N341 N 0.28979 0.91758 0.81085 0.0
C342 C 0.2757 0.912 0.78197 0.0
C343 C 0.26213 0.93355 0.76506 0.0
C344 C 0.26313 0.96052 0.77809 0.0
C345 C 0.27804 0.96584 0.80762 0.0
C346 C 0.29089 0.94349 0.82357 0.0
H347 H 0.27479 0.89126 0.77194 0.0
O348 O 0.36039 0.88403 0.76592 0.0
O349 O 0.34248 0.89398 0.81531 0.0
O350 O 0.33079 0.83719 0.79522 0.0
O351 O 0.29417 0.86022 0.81545 0.0
C352 C 0.28086 0.99244 0.82171 0.0
C353 C 0.29682 0.99629 0.85105 0.0
H354 H 0.33017 0.99583 0.90674 0.0
H355 H 0.35258 0.95389 0.9303 0.0
H356 H 0.2508 0.92936 0.74214 0.0
H357 H 0.2523 0.97694 0.76523 0.0
H358 H 0.27118 0.01016 0.80996 0.0
H359 H 0.29919 0.01691 0.86133 0.0
Mn360 Mn 0.14217 0.35935 0.80678 0.0
Mn361 Mn 0.10984 0.30354 0.83997 0.0
C362 C 0.10187 0.34208 0.78322 0.0
C363 C 0.14835 0.40705 0.79926 0.0
C364 C 0.16266 0.29945 0.79952 0.0
O365 O 0.15701 0.35876 0.85498 0.0
O366 O 0.13451 0.32062 0.87388 0.0
C367 C 0.07523 0.33159 0.89111 0.0
N368 N 0.07735 0.3149 0.86363 0.0
C369 C 0.02808 0.30771 0.86236 0.0
C370 C 0.0254 0.32473 0.89074 0.0
C371 C 0.04908 0.33674 0.90513 0.0
C372 C 0.0547 0.30315 0.84965 0.0
H373 H 0.09334 0.34093 0.90222 0.0
C374 C 0.1511 0.34105 0.87785 0.0
O375 O 0.1678 0.38951 0.79217 0.0
O376 O 0.1261 0.39706 0.81292 0.0
N377 N 0.08499 0.28568 0.80943 0.0
C378 C 0.09093 0.27158 0.78066 0.0
C379 C 0.0694 0.25907 0.76248 0.0
C380 C 0.04205 0.26114 0.7741 0.0
C381 C 0.03642 0.27587 0.80369 0.0
C382 C 0.05875 0.28767 0.82094 0.0
H383 H 0.11191 0.27 0.77157 0.0
O384 O 0.11939 0.35563 0.76474 0.0
O385 O 0.10912 0.33794 0.81413 0.0
O386 O 0.16559 0.32532 0.79442 0.0
O387 O 0.1424 0.28925 0.81586 0.0
C388 C 0.00949 0.27973 0.81642 0.0
C389 C 0.00533 0.29566 0.84572 0.0
H390 H 0.00524 0.32893 0.90148 0.0
H391 H 0.04716 0.35 0.92694 0.0
H392 H 0.07386 0.24787 0.73954 0.0
H393 H 0.02556 0.25144 0.76 0.0
H394 H 0.99179 0.27091 0.80362 0.0
H395 H 0.98449 0.29886 0.85494 0.0
Mn396 Mn 0.64316 0.14505 0.80864 0.0
Mn397 Mn 0.69937 0.11335 0.84175 0.0
C398 C 0.6609 0.1049 0.78513 0.0
C399 C 0.59534 0.15049 0.80047 0.0
C400 C 0.70302 0.16585 0.80082 0.0
O401 O 0.64347 0.15989 0.857 0.0
O402 O 0.68228 0.13825 0.87512 0.0
C403 C 0.67165 0.07922 0.89365 0.0
N404 N 0.68835 0.08113 0.86616 0.0
C405 C 0.69704 0.03212 0.86682 0.0
C406 C 0.68 0.02964 0.89519 0.0
C407 C 0.6672 0.05328 0.9086 0.0
C408 C 0.70075 0.05851 0.85304 0.0
H409 H 0.66181 0.09733 0.90409 0.0
C410 C 0.66166 0.15444 0.87954 0.0
O411 O 0.61266 0.17022 0.79368 0.0
O412 O 0.60555 0.1285 0.81444 0.0
N413 N 0.71748 0.08827 0.81182 0.0
C414 C 0.73171 0.09397 0.78308 0.0
C415 C 0.74531 0.07248 0.76609 0.0
C416 C 0.74421 0.04545 0.7789 0.0
C417 C 0.72915 0.04001 0.80828 0.0
C418 C 0.71625 0.06231 0.82431 0.0
H419 H 0.7327 0.11474 0.77322 0.0
O420 O 0.64726 0.1223 0.76663 0.0
O421 O 0.66489 0.11212 0.81608 0.0
O422 O 0.67707 0.16892 0.7963 0.0
O423 O 0.71333 0.14557 0.81696 0.0
C424 C 0.72624 0.01336 0.82215 0.0
C425 C 0.71013 0.0094 0.85134 0.0
H426 H 0.67644 0.00966 0.90674 0.0
H427 H 0.65395 0.05152 0.93043 0.0
H428 H 0.75675 0.07675 0.74328 0.0
H429 H 0.75507 0.02909 0.76597 0.0
H430 H 0.73597 0.99568 0.81036 0.0
H431 H 0.70768 0.98874 0.86145 0.0
Mn432 Mn 0.86278 0.3591 0.6947 0.0
Mn433 Mn 0.89423 0.30176 0.66436 0.0
C434 C 0.90247 0.34171 0.71955 0.0
C435 C 0.85759 0.40704 0.7007 0.0
C436 C 0.84093 0.29984 0.70402 0.0
O437 O 0.8486 0.3576 0.6462 0.0
O438 O 0.8701 0.31825 0.6295 0.0
C439 C 0.92965 0.32768 0.61238 0.0
N440 N 0.92708 0.31189 0.64056 0.0
C441 C 0.97623 0.30415 0.64277 0.0
C442 C 0.97938 0.32022 0.61369 0.0
C443 C 0.95599 0.33206 0.59846 0.0
C444 C 0.94944 0.30031 0.65534 0.0
H445 H 0.91176 0.3369 0.60062 0.0
C446 C 0.85421 0.33902 0.6242 0.0
O447 O 0.83764 0.39007 0.70784 0.0
O448 O 0.87975 0.39633 0.68767 0.0
N449 N 0.91858 0.28446 0.69591 0.0
C450 C 0.91222 0.27137 0.72524 0.0
C451 C 0.93343 0.25922 0.74427 0.0
C452 C 0.96091 0.26062 0.73294 0.0
C453 C 0.96698 0.27429 0.70274 0.0
C454 C 0.94494 0.28578 0.68467 0.0
H455 H 0.89114 0.27034 0.73413 0.0
O456 O 0.88499 0.35596 0.73727 0.0
O457 O 0.89543 0.33688 0.68871 0.0
O458 O 0.83842 0.32591 0.70776 0.0
O459 O 0.86126 0.28874 0.68872 0.0
C460 C 0.99405 0.27743 0.69019 0.0
C461 C 0.99868 0.29236 0.66024 0.0
H462 H 0.99968 0.32384 0.60302 0.0
H463 H 0.95827 0.3446 0.5761 0.0
H464 H 0.92863 0.24884 0.76766 0.0
H465 H 0.97715 0.25123 0.74772 0.0
H466 H 0.01153 0.26883 0.7036 0.0
H467 H 0.01963 0.29503 0.65116 0.0
Mn468 Mn 0.65128 0.86511 0.69607 0.0
Mn469 Mn 0.70801 0.89983 0.6694 0.0
C470 C 0.66609 0.90524 0.72271 0.0
C471 C 0.60342 0.8577 0.70011 0.0
C472 C 0.71107 0.84584 0.70758 0.0
O473 O 0.65521 0.85154 0.64728 0.0
O474 O 0.69336 0.87607 0.63329 0.0
C475 C 0.68242 0.9354 0.61737 0.0
N476 N 0.69747 0.93275 0.64614 0.0
C477 C 0.70513 0.98187 0.64897 0.0
C478 C 0.68977 0.98513 0.61932 0.0
C479 C 0.67829 0.96179 0.60353 0.0
C480 C 0.70855 0.95507 0.66158 0.0
H481 H 0.67365 0.91752 0.60506 0.0
C482 C 0.67389 0.85907 0.62619 0.0
O483 O 0.62107 0.8384 0.70735 0.0
O484 O 0.61347 0.88043 0.68775 0.0
N485 N 0.72362 0.92402 0.70234 0.0
C486 C 0.73614 0.91749 0.73198 0.0
C487 C 0.74792 0.93859 0.75154 0.0
C488 C 0.74685 0.9661 0.74032 0.0
C489 C 0.73369 0.97236 0.70983 0.0
C490 C 0.72241 0.95044 0.69137 0.0
H491 H 0.7371 0.89634 0.74062 0.0
O492 O 0.65201 0.88688 0.73926 0.0
O493 O 0.67217 0.89895 0.692 0.0
O494 O 0.68506 0.84213 0.71029 0.0
O495 O 0.72163 0.86687 0.69316 0.0
C496 C 0.73112 0.99944 0.69714 0.0
C497 C 0.71684 0.0042 0.66675 0.0
H498 H 0.68649 0.00546 0.60861 0.0
H499 H 0.66634 0.96414 0.5807 0.0
H500 H 0.75791 0.93366 0.77513 0.0
H501 H 0.75622 0.98217 0.75536 0.0
H502 H 0.73974 0.01684 0.71066 0.0
H503 H 0.71466 0.02516 0.65752 0.0
Mn504 Mn 0.14529 0.64662 0.69524 0.0
Mn505 Mn 0.11311 0.70303 0.66347 0.0
C506 C 0.10524 0.66378 0.71949 0.0
C507 C 0.15118 0.59883 0.70201 0.0
C508 C 0.16631 0.70628 0.7033 0.0
O509 O 0.15972 0.64769 0.64685 0.0
O510 O 0.13734 0.68622 0.62893 0.0
C511 C 0.07781 0.67598 0.61219 0.0
N512 N 0.08031 0.69222 0.64002 0.0
C513 C 0.03111 0.69969 0.64212 0.0
C514 C 0.02804 0.68313 0.61341 0.0
C515 C 0.05149 0.6712 0.59842 0.0
C516 C 0.05789 0.7039 0.65457 0.0
H517 H 0.09575 0.6667 0.60062 0.0
C518 C 0.15373 0.66573 0.62438 0.0
O519 O 0.17083 0.61617 0.70906 0.0
O520 O 0.1289 0.60906 0.68873 0.0
N521 N 0.08869 0.7206 0.69472 0.0
C522 C 0.095 0.73417 0.72375 0.0
C523 C 0.07374 0.74649 0.74255 0.0
C524 C 0.04627 0.74475 0.73128 0.0
C525 C 0.04024 0.73055 0.70141 0.0
C526 C 0.06233 0.71892 0.68356 0.0
H527 H 0.11608 0.73546 0.73259 0.0
O528 O 0.12282 0.64998 0.73758 0.0
O529 O 0.11236 0.66829 0.68861 0.0
O530 O 0.16909 0.68033 0.7079 0.0
O531 O 0.14598 0.7168 0.68741 0.0
C532 C 0.01317 0.72704 0.68897 0.0
C533 C 0.00861 0.71161 0.65937 0.0
H534 H 0.00775 0.67921 0.60286 0.0
H535 H 0.04927 0.6583 0.57633 0.0
H536 H 0.07851 0.75726 0.76569 0.0
H537 H 0.03001 0.75429 0.74588 0.0
H538 H 0.99566 0.73576 0.70221 0.0
H539 H 0.98766 0.70867 0.65037 0.0
Mn540 Mn 0.35667 0.14082 0.69506 0.0
Mn541 Mn 0.29998 0.10602 0.66834 0.0
C542 C 0.34167 0.10089 0.72195 0.0
C543 C 0.40455 0.14822 0.69939 0.0
C544 C 0.29684 0.16026 0.70606 0.0
O545 O 0.35301 0.15397 0.64607 0.0
O546 O 0.31481 0.12948 0.63207 0.0
C547 C 0.32573 0.07006 0.61676 0.0
N548 N 0.31057 0.07292 0.64543 0.0
C549 C 0.30281 0.02384 0.64859 0.0
C550 C 0.31826 0.02036 0.61907 0.0
C551 C 0.32985 0.04358 0.60316 0.0
C552 C 0.2994 0.05072 0.66099 0.0
H553 H 0.33458 0.08784 0.60435 0.0
C554 C 0.33442 0.1463 0.62491 0.0
O555 O 0.38688 0.16758 0.70631 0.0
O556 O 0.39452 0.12541 0.68719 0.0
N557 N 0.28422 0.08205 0.70141 0.0
C558 C 0.27162 0.08878 0.73093 0.0
C559 C 0.25979 0.06781 0.75063 0.0
C560 C 0.26087 0.04023 0.73964 0.0
C561 C 0.27408 0.03377 0.70925 0.0
C562 C 0.28545 0.05556 0.69066 0.0
H563 H 0.27066 0.10998 0.7394 0.0
O564 O 0.35569 0.11935 0.73845 0.0
O565 O 0.33573 0.10701 0.69116 0.0
O566 O 0.32284 0.16397 0.70885 0.0
O567 O 0.2863 0.13915 0.69176 0.0
C568 C 0.27663 0.00661 0.69677 0.0
C569 C 0.29098 1.00165 0.66648 0.0
H570 H 0.32154 0.99996 0.60852 0.0
H571 H 0.34188 0.04106 0.58041 0.0
H572 H 0.24975 0.0729 0.77415 0.0
H573 H 0.25148 0.02424 0.7548 0.0
H574 H 0.26794 0.9893 0.71037 0.0
H575 H 0.29314 0.98062 0.65741 0.0
H576 H 0.31795 0.20528 0.23577 0.0
H577 H 0.204 0.31988 0.26595 0.0
H578 H 0.317 0.25198 0.32818 0.0
H579 H 0.24999 0.31766 0.17308 0.0
H580 H 0.23583 0.28519 0.28958 0.0
H581 H 0.28296 0.23692 0.21248 0.0
C582 C 0.31006 0.22194 0.25126 0.0
C583 C 0.3203 0.22618 0.28384 0.0
C584 C 0.23871 0.29225 0.26397 0.0
C585 C 0.28024 0.26175 0.25778 0.0
C586 C 0.22061 0.31185 0.25048 0.0
C587 C 0.22457 0.32162 0.21764 0.0
C588 C 0.26026 0.28182 0.24404 0.0
C589 C 0.24645 0.31074 0.19861 0.0
C590 C 0.29031 0.23997 0.23794 0.0
C591 C 0.30965 0.24818 0.30287 0.0
N592 N 0.26339 0.29119 0.21199 0.0
N593 N 0.28999 0.26508 0.28965 0.0
H594 H 0.75803 0.31491 0.32905 0.0
H595 H 0.69908 0.24125 0.1693 0.0
H596 H 0.80611 0.31382 0.23771 0.0
H597 H 0.69297 0.20131 0.26594 0.0
H598 H 0.73325 0.27351 0.19292 0.0
H599 H 0.72822 0.27847 0.30571 0.0
C600 C 0.76227 0.30697 0.3041 0.0
C601 C 0.78451 0.31729 0.28523 0.0
C602 C 0.72457 0.2575 0.20878 0.0
C603 C 0.75035 0.27625 0.25834 0.0
C604 C 0.7051 0.23921 0.19542 0.0
C605 C 0.69337 0.21859 0.21574 0.0
C606 C 0.73162 0.25568 0.24291 0.0
C607 C 0.70177 0.21679 0.24943 0.0
C608 C 0.74542 0.28615 0.29095 0.0
C609 C 0.78924 0.30626 0.25309 0.0
N610 N 0.72009 0.23543 0.26218 0.0
N611 N 0.77202 0.28658 0.2404 0.0
H612 H 0.81017 0.71512 0.22814 0.0
H613 H 0.65399 0.74102 0.28566 0.0
H614 H 0.74286 0.65838 0.20931 0.0
H615 H 0.71334 0.80759 0.27854 0.0
H616 H 0.68822 0.70942 0.26269 0.0
H617 H 0.7768 0.74832 0.25142 0.0
C618 C 0.78846 0.7096 0.22891 0.0
C619 C 0.77936 0.68387 0.21668 0.0
C620 C 0.6938 0.73094 0.26607 0.0
C621 C 0.74124 0.72164 0.24341 0.0
C622 C 0.67425 0.74905 0.27933 0.0
C623 C 0.68072 0.77711 0.28406 0.0
C624 C 0.72026 0.74073 0.25768 0.0
C625 C 0.70739 0.78618 0.27519 0.0
C626 C 0.76945 0.7286 0.24208 0.0
C627 C 0.75094 0.67793 0.21825 0.0
N628 N 0.72625 0.768 0.26255 0.0
N629 N 0.733 0.69657 0.23146 0.0
H630 H 0.3459 0.74834 0.20906 0.0
H631 H 0.1931 0.71928 0.27612 0.0
H632 H 0.28833 0.8149 0.22766 0.0
H633 H 0.26143 0.6625 0.28724 0.0
H634 H 0.2253 0.7538 0.25305 0.0
H635 H 0.3127 0.71578 0.2321 0.0
C636 C 0.32624 0.75619 0.21795 0.0
C637 C 0.31999 0.78453 0.2164 0.0
C638 C 0.23313 0.73377 0.26066 0.0
C639 C 0.28157 0.74696 0.24287 0.0
C640 C 0.21479 0.71403 0.27367 0.0
C641 C 0.22453 0.6879 0.28368 0.0
C642 C 0.26128 0.72715 0.2572 0.0
C643 C 0.25289 0.68232 0.28003 0.0
C644 C 0.30728 0.7375 0.23125 0.0
C645 C 0.29409 0.79328 0.2285 0.0
N646 N 0.27014 0.70168 0.26699 0.0
N647 N 0.27573 0.77453 0.24109 0.0
H648 H 0.76625 0.85189 0.72014 0.0
H649 H 0.7931 0.69519 0.77476 0.0
H650 H 0.69998 0.79223 0.72728 0.0
H651 H 0.8503 0.76224 0.79288 0.0
H652 H 0.75954 0.72878 0.75284 0.0
H653 H 0.79818 0.81759 0.74227 0.0
C654 C 0.75835 0.83155 0.72635 0.0
C655 C 0.7303 0.82499 0.72179 0.0
C656 C 0.77944 0.73603 0.76171 0.0
C657 C 0.76705 0.78537 0.74717 0.0
C658 C 0.79865 0.71689 0.77409 0.0
C659 C 0.82461 0.72585 0.78574 0.0
C660 C 0.7864 0.76424 0.7606 0.0
C661 C 0.83057 0.75427 0.78435 0.0
C662 C 0.77665 0.81196 0.73911 0.0
C663 C 0.72139 0.79824 0.73049 0.0
N664 N 0.81171 0.77235 0.77193 0.0
N665 N 0.73975 0.77933 0.74262 0.0
H666 H 0.16162 0.76209 0.71199 0.0
H667 H 0.31629 0.78757 0.77556 0.0
H668 H 0.21887 0.69459 0.72654 0.0
H669 H 0.24916 0.84531 0.78983 0.0
H670 H 0.28314 0.75414 0.75205 0.0
H671 H 0.19584 0.79387 0.73473 0.0
C672 C 0.18143 0.75389 0.71991 0.0
C673 C 0.18729 0.72552 0.71735 0.0
C674 C 0.27579 0.77414 0.76043 0.0
C675 C 0.22683 0.76211 0.74346 0.0
C676 C 0.29468 0.79327 0.7737 0.0
C677 C 0.28554 0.81933 0.78476 0.0
C678 C 0.24771 0.78134 0.75777 0.0
C679 C 0.25725 0.8255 0.78182 0.0
C680 C 0.20096 0.77211 0.73303 0.0
C681 C 0.21338 0.71625 0.72819 0.0
N682 N 0.23946 0.80675 0.76852 0.0
N683 N 0.23227 0.73453 0.74066 0.0
H684 H 0.2147 0.3107 0.77435 0.0
H685 H 0.2416 0.15429 0.71835 0.0
H686 H 0.1579 0.24341 0.79283 0.0
H687 H 0.30791 0.21387 0.72598 0.0
H688 H 0.2097 0.1885 0.74079 0.0
H689 H 0.24821 0.27728 0.75187 0.0
C690 C 0.20923 0.28898 0.77365 0.0
C691 C 0.18339 0.27991 0.78557 0.0
C692 C 0.23123 0.19414 0.73766 0.0
C693 C 0.22153 0.2417 0.75976 0.0
C694 C 0.24951 0.1746 0.72471 0.0
C695 C 0.27758 0.18115 0.72023 0.0
C696 C 0.24085 0.22067 0.74599 0.0
C697 C 0.2865 0.20786 0.72912 0.0
C698 C 0.22841 0.26994 0.76095 0.0
C699 C 0.17753 0.25147 0.78411 0.0
N700 N 0.26815 0.22672 0.74144 0.0
N701 N 0.19635 0.23349 0.77136 0.0
H702 H 0.75864 0.15977 0.79227 0.0
H703 H 0.78845 0.31281 0.72648 0.0
H704 H 0.69254 0.21838 0.77627 0.0
H705 H 0.84464 0.24412 0.71424 0.0
H706 H 0.75386 0.28078 0.7497 0.0
H707 H 0.79125 0.19277 0.76896 0.0
C708 C 0.7509 0.17963 0.7839 0.0
C709 C 0.72267 0.18622 0.78628 0.0
C710 C 0.77376 0.27283 0.74181 0.0
C711 C 0.76031 0.22442 0.75945 0.0
C712 C 0.79356 0.29108 0.72871 0.0
C713 C 0.81955 0.28119 0.71834 0.0
C714 C 0.78019 0.24462 0.745 0.0
C715 C 0.82493 0.25278 0.72172 0.0
C716 C 0.76962 0.19848 0.77043 0.0
C717 C 0.71407 0.21235 0.77481 0.0
N718 N 0.80553 0.23562 0.73486 0.0
N719 N 0.73286 0.2306 0.76202 0.0
H720 H 0.18399 0.30779 0.91557 0.0
H721 H 0.12171 0.36589 0.08551 0.0
H722 H 0.13575 0.3826 0.91921 0.0
H723 H 0.20285 0.32906 0.08419 0.0
H724 H 0.12047 0.36325 0.02381 0.0
H725 H 0.1873 0.30848 0.97728 0.0
C726 C 0.17494 0.32484 0.92941 0.0
C727 C 0.16026 0.34562 0.91252 0.0
C728 C 0.1383 0.35529 0.03715 0.0
C729 C 0.16231 0.34549 0.98258 0.0
C730 C 0.13876 0.35627 0.07225 0.0
C731 C 0.16222 0.34725 0.08973 0.0
C732 C 0.16129 0.34483 0.01968 0.0
C733 C 0.18425 0.33583 0.07144 0.0
C734 C 0.17648 0.32501 0.96447 0.0
C735 C 0.14792 0.36671 0.93143 0.0
N736 N 0.18327 0.3349 0.03731 0.0
N737 N 0.14882 0.36589 0.96557 0.0
H738 H 0.61667 0.1456 0.91898 0.0
H739 H 0.6947 0.18331 0.08971 0.0
H740 H 0.69897 0.17983 0.91988 0.0
H741 H 0.62944 0.1229 0.08349 0.0
H742 H 0.69533 0.18624 0.02811 0.0
H743 H 0.61743 0.14419 0.98068 0.0
C744 C 0.63438 0.15395 0.93226 0.0
C745 C 0.65762 0.16323 0.91453 0.0
C746 C 0.68134 0.17184 0.04018 0.0
C747 C 0.65917 0.16064 0.98464 0.0
C748 C 0.6814 0.16975 0.0752 0.0
C749 C 0.66262 0.15218 0.09142 0.0
C750 C 0.66174 0.15686 0.02147 0.0
C751 C 0.64481 0.13602 0.07173 0.0
C752 C 0.6351 0.15252 0.96736 0.0
C753 C 0.68051 0.17289 0.93281 0.0
N754 N 0.6445 0.13903 0.03775 0.0
N755 N 0.6808 0.17121 0.9669 0.0
H756 H 0.86619 0.62013 0.91734 0.0
H757 H 0.80741 0.68398 0.08594 0.0
H758 H 0.82946 0.70131 0.91713 0.0
H759 H 0.88256 0.63621 0.08343 0.0
H760 H 0.80834 0.68674 0.0242 0.0
H761 H 0.86337 0.61961 0.97905 0.0
C762 C 0.85654 0.63734 0.93028 0.0
C763 C 0.84759 0.66059 0.91237 0.0
C764 C 0.8249 0.67615 0.03726 0.0
C765 C 0.84498 0.66049 0.9824 0.0
C766 C 0.82459 0.67492 0.07234 0.0
C767 C 0.84537 0.66052 0.08955 0.0
C768 C 0.84552 0.66193 0.01948 0.0
C769 C 0.86665 0.64817 0.07095 0.0
C770 C 0.85547 0.63729 0.96537 0.0
C771 C 0.83615 0.68285 0.93022 0.0
N772 N 0.86595 0.64875 0.03679 0.0
N773 N 0.83512 0.68227 0.96436 0.0
H774 H 0.31614 0.81482 0.08788 0.0
H775 H 0.38871 0.86377 0.9192 0.0
H776 H 0.36779 0.88727 0.08239 0.0
H777 H 0.30977 0.82241 0.91719 0.0
H778 H 0.3865 0.86482 0.98086 0.0
H779 H 0.31588 0.81232 0.02624 0.0
C780 C 0.32639 0.83089 0.07355 0.0
C781 C 0.34139 0.85171 0.08999 0.0
C782 C 0.36995 0.855 0.96689 0.0
C783 C 0.3429 0.84783 0.02005 0.0
C784 C 0.37156 0.85378 0.93185 0.0
C785 C 0.34963 0.84253 0.91333 0.0
C786 C 0.3464 0.84461 0.98332 0.0
C787 C 0.32729 0.83082 0.93078 0.0
C788 C 0.32669 0.82915 0.03852 0.0
C789 C 0.35534 0.8714 0.07049 0.0
N790 N 0.32617 0.83222 0.96487 0.0
N791 N 0.35622 0.86868 0.03649 0.0
H792 H 0.18641 0.69927 0.58672 0.0
H793 H 0.12139 0.64388 0.41696 0.0
H794 H 0.13768 0.62474 0.58255 0.0
H795 H 0.20282 0.6802 0.41733 0.0
H796 H 0.12106 0.64567 0.47872 0.0
H797 H 0.18891 0.69939 0.52496 0.0
C798 C 0.17708 0.68244 0.57273 0.0
C799 C 0.1625 0.66152 0.58949 0.0
C800 C 0.13876 0.6537 0.46516 0.0
C801 C 0.16361 0.66258 0.51942 0.0
C802 C 0.1387 0.65322 0.43005 0.0
C803 C 0.16199 0.66231 0.41226 0.0
C804 C 0.16207 0.66377 0.48236 0.0
C805 C 0.18436 0.67335 0.43032 0.0
C806 C 0.17816 0.68273 0.53765 0.0
C807 C 0.14979 0.64073 0.57042 0.0
N808 N 0.18387 0.67382 0.46448 0.0
N809 N 0.15024 0.64201 0.53628 0.0
H810 H 0.29777 0.13404 0.57479 0.0
H811 H 0.38496 0.20406 0.42899 0.0
H812 H 0.37515 0.17651 0.5925 0.0
H813 H 0.32677 0.13784 0.41019 0.0
H814 H 0.37657 0.19976 0.48862 0.0
H815 H 0.30329 0.14143 0.51486 0.0
C816 C 0.31587 0.14521 0.56625 0.0
C817 C 0.33622 0.1545 0.58903 0.0
C818 C 0.36559 0.18619 0.47152 0.0
C819 C 0.34241 0.16297 0.51984 0.0
C820 C 0.37021 0.18862 0.43722 0.0
C821 C 0.35655 0.17117 0.41413 0.0
C822 C 0.34693 0.16638 0.48328 0.0
C823 C 0.33779 0.15168 0.42689 0.0
C824 C 0.31898 0.14923 0.53185 0.0
C825 C 0.35898 0.16896 0.57605 0.0
N826 N 0.33349 0.14983 0.4607 0.0
N827 N 0.36149 0.1727 0.54225 0.0
H828 H 0.81615 0.31526 0.4129 0.0
H829 H 0.85728 0.38588 0.58643 0.0
H830 H 0.8774 0.37969 0.42033 0.0
H831 H 0.83394 0.29988 0.58181 0.0
H832 H 0.85554 0.38792 0.52474 0.0
H833 H 0.81576 0.31154 0.47462 0.0
C834 C 0.83018 0.32791 0.42759 0.0
C835 C 0.84746 0.34719 0.4118 0.0
C836 C 0.85037 0.36875 0.53734 0.0
C837 C 0.84576 0.34446 0.48181 0.0
C838 C 0.85084 0.36774 0.57246 0.0
C839 C 0.84551 0.34275 0.58905 0.0
C840 C 0.84413 0.34471 0.51894 0.0
C841 C 0.838 0.31958 0.56981 0.0
C842 C 0.82966 0.32611 0.46266 0.0
C843 C 0.86442 0.36402 0.43175 0.0
N844 N 0.83756 0.32107 0.5357 0.0
N845 N 0.8629 0.36255 0.46581 0.0
H846 H 0.71088 0.87089 0.57637 0.0
H847 H 0.62553 0.79933 0.42997 0.0
H848 H 0.63366 0.82805 0.59385 0.0
H849 H 0.68069 0.86828 0.41237 0.0
H850 H 0.63442 0.80288 0.48971 0.0
H851 H 0.70588 0.86277 0.51652 0.0
C852 C 0.69292 0.85948 0.5678 0.0
C853 C 0.67244 0.85036 0.59046 0.0
C854 C 0.64467 0.81714 0.4728 0.0
C855 C 0.66688 0.841 0.5214 0.0
C856 C 0.63977 0.81515 0.43848 0.0
C857 C 0.65231 0.83371 0.41577 0.0
C858 C 0.66251 0.83759 0.48484 0.0
C859 C 0.67052 0.8536 0.42879 0.0
C860 C 0.69012 0.85502 0.53346 0.0
C861 C 0.64991 0.83552 0.57747 0.0
N862 N 0.67508 0.85503 0.46256 0.0
N863 N 0.64769 0.83137 0.5437 0.0
H864 H 0.18068 0.5842 0.22079 0.0
H865 H 0.18157 0.42731 0.27992 0.0
H866 H 0.15114 0.56039 0.31885 0.0
H867 H 0.15286 0.45011 0.18116 0.0
H868 H 0.18288 0.47673 0.29516 0.0
H869 H 0.18297 0.53483 0.20519 0.0
C870 C 0.17505 0.56856 0.23905 0.0
C871 C 0.16676 0.57607 0.27149 0.0
C872 C 0.17687 0.47077 0.26997 0.0
C873 C 0.16952 0.52036 0.25421 0.0
C874 C 0.17605 0.44276 0.26138 0.0
C875 C 0.16821 0.43494 0.22889 0.0
C876 C 0.16994 0.49077 0.24577 0.0
C877 C 0.16031 0.45552 0.20597 0.0
C878 C 0.17642 0.54059 0.23026 0.0
C879 C 0.15885 0.55525 0.29407 0.0
N880 N 0.16173 0.48259 0.21466 0.0
N881 N 0.16078 0.52826 0.2852 0.0
H882 H 0.58374 0.18121 0.28035 0.0
H883 H 0.42761 0.18174 0.21722 0.0
H884 H 0.56226 0.15015 0.18219 0.0
H885 H 0.44976 0.15399 0.31662 0.0
H886 H 0.47732 0.18299 0.20256 0.0
H887 H 0.53405 0.18393 0.29396 0.0
C888 C 0.56855 0.17558 0.26153 0.0
C889 C 0.57687 0.16657 0.22968 0.0
C890 C 0.47109 0.17698 0.22766 0.0
C891 C 0.52068 0.17014 0.2446 0.0
C892 C 0.44293 0.17617 0.2359 0.0
C893 C 0.43487 0.16863 0.26843 0.0
C894 C 0.49091 0.17031 0.25225 0.0
C895 C 0.45531 0.16095 0.29165 0.0
C896 C 0.54037 0.17726 0.26916 0.0
C897 C 0.55654 0.15854 0.20644 0.0
N898 N 0.48243 0.16232 0.2833 0.0
N899 N 0.52932 0.16087 0.21414 0.0
H900 H 0.82385 0.58146 0.27963 0.0
H901 H 0.82509 0.42459 0.22065 0.0
H902 H 0.8556 0.55811 0.18241 0.0
H903 H 0.8536 0.44789 0.31936 0.0
H904 H 0.82328 0.47399 0.20535 0.0
H905 H 0.8217 0.53205 0.29499 0.0
C906 C 0.82997 0.56591 0.26149 0.0
C907 C 0.83887 0.57355 0.22934 0.0
C908 C 0.82932 0.46813 0.23056 0.0
C909 C 0.83621 0.5178 0.24633 0.0
C910 C 0.83042 0.44014 0.23918 0.0
C911 C 0.83837 0.43246 0.27167 0.0
C912 C 0.83603 0.48824 0.25475 0.0
C913 C 0.84605 0.45317 0.29456 0.0
C914 C 0.82867 0.53792 0.27013 0.0
C915 C 0.84742 0.55284 0.20692 0.0
N916 N 0.84433 0.4802 0.28586 0.0
N917 N 0.84552 0.52582 0.21563 0.0
H918 H 0.55753 0.85866 0.318 0.0
H919 H 0.4453 0.86044 0.17863 0.0
H920 H 0.57922 0.82792 0.21971 0.0
H921 H 0.42543 0.82796 0.27661 0.0
H922 H 0.49456 0.85752 0.19227 0.0
H923 H 0.50871 0.85747 0.30229 0.0
C924 C 0.55189 0.85146 0.29312 0.0
C925 C 0.57211 0.8423 0.27046 0.0
C926 C 0.47941 0.8507 0.21055 0.0
C927 C 0.51668 0.84192 0.25212 0.0
C928 C 0.45141 0.85217 0.20282 0.0
C929 C 0.43152 0.84323 0.22607 0.0
C930 C 0.4874 0.84154 0.24239 0.0
C931 C 0.44029 0.83439 0.2578 0.0
C932 C 0.52414 0.85082 0.28427 0.0
C933 C 0.56402 0.83451 0.23802 0.0
N934 N 0.46776 0.83388 0.26519 0.0
N935 N 0.53669 0.83445 0.22969 0.0
H936 H 0.81292 0.57011 0.77731 0.0
H937 H 0.90057 0.4437 0.70422 0.0
H938 H 0.90075 0.56097 0.79289 0.0
H939 H 0.81294 0.43704 0.72314 0.0
H940 H 0.90024 0.48988 0.72936 0.0
H941 H 0.81173 0.52383 0.75188 0.0
C942 C 0.83188 0.55827 0.77574 0.0
C943 C 0.85696 0.56941 0.78742 0.0
C944 C 0.88105 0.47838 0.72785 0.0
C945 C 0.85584 0.51681 0.75753 0.0
C946 C 0.88115 0.4521 0.71317 0.0
C947 C 0.85673 0.43643 0.71151 0.0
C948 C 0.85628 0.48932 0.74064 0.0
C949 C 0.83224 0.44838 0.72387 0.0
C950 C 0.83119 0.53191 0.76113 0.0
C951 C 0.88092 0.55317 0.7845 0.0
N952 N 0.83262 0.47411 0.73788 0.0
N953 N 0.87982 0.52787 0.76958 0.0
H954 H 0.57456 0.81153 0.72021 0.0
H955 H 0.44903 0.89885 0.79592 0.0
H956 H 0.56563 0.89952 0.7059 0.0
H957 H 0.4417 0.81146 0.77571 0.0
H958 H 0.49479 0.89861 0.76968 0.0
H959 H 0.5282 0.81019 0.74543 0.0
C960 C 0.56273 0.83049 0.72192 0.0
C961 C 0.574 0.85566 0.71074 0.0
C962 C 0.48324 0.87945 0.77112 0.0
C963 C 0.52129 0.85437 0.74048 0.0
C964 C 0.4572 0.8795 0.78643 0.0
C965 C 0.44146 0.85511 0.78812 0.0
C966 C 0.49392 0.85478 0.75772 0.0
C967 C 0.4531 0.83073 0.77501 0.0
C968 C 0.53632 0.82972 0.73645 0.0
C969 C 0.55776 0.87961 0.71389 0.0
N970 N 0.47863 0.83116 0.76044 0.0
N971 N 0.53243 0.87843 0.72878 0.0
H972 H 0.10627 0.44467 0.79578 0.0
H973 H 0.19654 0.56936 0.72327 0.0
H974 H 0.19359 0.43582 0.77605 0.0
H975 H 0.10856 0.56192 0.70739 0.0
H976 H 0.19679 0.52285 0.74814 0.0
H977 H 0.10765 0.4908 0.77066 0.0
C978 C 0.12584 0.45257 0.78662 0.0
C979 C 0.14987 0.43631 0.78808 0.0
C980 C 0.17751 0.53136 0.73893 0.0
C981 C 0.15151 0.48917 0.75901 0.0
C982 C 0.17735 0.55784 0.72464 0.0
C983 C 0.15251 0.56953 0.71307 0.0
C984 C 0.15256 0.5167 0.74231 0.0
C985 C 0.12823 0.5537 0.71572 0.0
C986 C 0.12654 0.47882 0.77197 0.0
C987 C 0.17457 0.44762 0.77547 0.0
N988 N 0.12882 0.52828 0.73035 0.0
N989 N 0.17478 0.47337 0.76152 0.0
H990 H 0.43337 0.19452 0.71923 0.0
H991 H 0.55853 0.10764 0.79651 0.0
H992 H 0.44231 0.10642 0.70584 0.0
H993 H 0.5661 0.19487 0.77558 0.0
H994 H 0.51291 0.10776 0.76996 0.0
H995 H 0.47966 0.19602 0.74468 0.0
C996 C 0.44519 0.17556 0.7212 0.0
C997 C 0.43394 0.15032 0.71019 0.0
C998 C 0.52448 0.12691 0.7713 0.0
C999 C 0.48657 0.15181 0.7402 0.0
C1000 C 0.55045 0.12694 0.78678 0.0
C1001 C 0.56623 0.15131 0.78838 0.0
C1002 C 0.51389 0.15151 0.75761 0.0
C1003 C 0.55468 0.17561 0.77497 0.0
C1004 C 0.47156 0.17644 0.73585 0.0
C1005 C 0.45016 0.12639 0.71368 0.0
N1006 N 0.5292 0.17512 0.76023 0.0
N1007 N 0.47545 0.12768 0.72868 0.0
H1008 H 0.67708 0.08329 0.72446 0.0
H1009 H 0.6787 0.92684 0.78485 0.0
H1010 H 0.64701 0.06055 0.82264 0.0
H1011 H 0.65164 0.94928 0.68527 0.0
H1012 H 0.6784 0.9763 0.80036 0.0
H1013 H 0.67905 0.03385 0.70953 0.0
C1014 C 0.67134 0.06786 0.74292 0.0
C1015 C 0.66298 0.07572 0.7752 0.0
C1016 C 0.67292 0.97023 0.77502 0.0
C1017 C 0.66558 0.01981 0.75873 0.0
C1018 C 0.673 0.9422 0.76629 0.0
C1019 C 0.6662 0.93431 0.73346 0.0
C1020 C 0.66613 0.99014 0.75062 0.0
C1021 C 0.6582 0.95476 0.71044 0.0
C1022 C 0.67257 0.03982 0.73453 0.0
C1023 C 0.65486 0.05513 0.79802 0.0
N1024 N 0.65877 0.98182 0.71926 0.0
N1025 N 0.65676 0.02803 0.78957 0.0
H1026 H 0.9491 0.64648 0.82005 0.0
H1027 H 0.06191 0.64789 0.68159 0.0
H1028 H 0.92864 0.67982 0.7227 0.0
H1029 H 0.08231 0.67947 0.77988 0.0
H1030 H 0.01278 0.64991 0.69603 0.0
H1031 H 0.99823 0.6488 0.8056 0.0
C1032 C 0.95507 0.65467 0.79576 0.0
C1033 C 0.93506 0.66415 0.773 0.0
C1034 C 0.02801 0.65667 0.71426 0.0
C1035 C 0.99082 0.66548 0.75588 0.0
C1036 C 0.05593 0.65566 0.70609 0.0
C1037 C 0.07593 0.66472 0.72914 0.0
C1038 C 0.02015 0.66564 0.74625 0.0
C1039 C 0.06735 0.673 0.76121 0.0
C1040 C 0.98298 0.65587 0.78759 0.0
C1041 C 0.94361 0.67301 0.74115 0.0
N1042 N 0.03992 0.67321 0.76896 0.0
N1043 N 0.97104 0.67343 0.7334 0.0
H1044 H 0.32861 0.07947 0.78406 0.0
H1045 H 0.33082 0.92294 0.72366 0.0
H1046 H 0.35646 0.05677 0.68486 0.0
H1047 H 0.35989 0.94566 0.82232 0.0
H1048 H 0.32892 0.97237 0.70881 0.0
H1049 H 0.32871 0.03003 0.79967 0.0
C1050 C 0.33447 0.06406 0.76561 0.0
C1051 C 0.34154 0.07187 0.73285 0.0
C1052 C 0.33513 0.96641 0.73391 0.0
C1053 C 0.34143 0.01608 0.75012 0.0
C1054 C 0.33632 0.93837 0.74225 0.0
C1055 C 0.3444 0.9305 0.77462 0.0
C1056 C 0.34185 0.98641 0.75824 0.0
C1057 C 0.35224 0.95109 0.79761 0.0
C1058 C 0.33445 0.03604 0.7744 0.0
C1059 C 0.34972 0.05136 0.70997 0.0
N1060 N 0.35038 0.97819 0.7892 0.0
N1061 N 0.34906 0.02433 0.71884 0.0
H1062 H 0.05849 0.35842 0.82076 0.0
H1063 H 0.94606 0.35661 0.68153 0.0
H1064 H 0.079 0.32527 0.72329 0.0
H1065 H 0.92508 0.32669 0.78037 0.0
H1066 H 0.99512 0.35437 0.69624 0.0
H1067 H 0.00936 0.35604 0.8063 0.0
C1068 C 0.05253 0.35023 0.79645 0.0
C1069 C 0.07255 0.34085 0.77364 0.0
C1070 C 0.97978 0.34802 0.71454 0.0
C1071 C 0.01679 0.33947 0.75649 0.0
C1072 C 0.95189 0.34915 0.70622 0.0
C1073 C 0.93175 0.34062 0.72936 0.0
C1074 C 0.98747 0.33945 0.74675 0.0
C1075 C 0.94016 0.33274 0.76164 0.0
C1076 C 0.02461 0.34901 0.78827 0.0
C1077 C 0.06401 0.332 0.74178 0.0
N1078 N 0.96757 0.33238 0.76951 0.0
N1079 N 0.03659 0.33157 0.73401 0.0
H1080 H 0.31507 0.07239 0.2899 0.0
H1081 H 0.40038 0.94815 0.20779 0.0
H1082 H 0.40393 0.06614 0.29583 0.0
H1083 H 0.31379 0.94079 0.23248 0.0
H1084 H 0.40122 0.99366 0.23469 0.0
H1085 H 0.31339 0.02588 0.26539 0.0
C1086 C 0.33421 0.06108 0.28653 0.0
C1087 C 0.35968 0.07319 0.29511 0.0
C1088 C 0.382 0.98214 0.23413 0.0
C1089 C 0.35794 0.02019 0.26613 0.0
C1090 C 0.38142 0.95624 0.21845 0.0
C1091 C 0.35693 0.94059 0.21773 0.0
C1092 C 0.35785 0.99276 0.24892 0.0
C1093 C 0.33311 0.95212 0.23235 0.0
C1094 C 0.33323 0.03457 0.27239 0.0
C1095 C 0.38382 0.05759 0.2899 0.0
N1096 N 0.33414 0.97751 0.24725 0.0
N1097 N 0.38238 0.03208 0.27542 0.0
H1098 H 0.94417 0.40389 0.29439 0.0
H1099 H 0.07041 0.31537 0.22207 0.0
H1100 H 0.93861 0.31593 0.27727 0.0
H1101 H 0.06309 0.40353 0.20796 0.0
H1102 H 0.02407 0.31474 0.24703 0.0
H1103 H 0.99037 0.40376 0.26914 0.0
C1104 C 0.95282 0.38447 0.28581 0.0
C1105 C 0.93749 0.35986 0.28803 0.0
C1106 C 0.03252 0.33418 0.23821 0.0
C1107 C 0.9903 0.35963 0.25879 0.0
C1108 C 0.05893 0.33454 0.22384 0.0
C1109 C 0.07062 0.35952 0.21275 0.0
C1110 C 0.01785 0.35905 0.24211 0.0
C1111 C 0.05483 0.38377 0.2159 0.0
C1112 C 0.97909 0.38447 0.27107 0.0
C1113 C 0.94968 0.33537 0.27611 0.0
N1114 N 0.0294 0.38297 0.23058 0.0
N1115 N 0.97536 0.33586 0.26205 0.0
H1116 H 0.6937 0.93304 0.28674 0.0
H1117 H 0.60568 0.05893 0.21238 0.0
H1118 H 0.60565 0.94139 0.30111 0.0
H1119 H 0.69358 0.06484 0.22967 0.0
H1120 H 0.60581 0.01309 0.23862 0.0
H1121 H 0.69469 0.9793 0.26135 0.0
C1122 C 0.67465 0.94474 0.28502 0.0
C1123 C 0.64958 0.93332 0.29627 0.0
C1124 C 0.6251 0.02437 0.23652 0.0
C1125 C 0.65045 0.98594 0.26633 0.0
C1126 C 0.62509 0.05043 0.22123 0.0
C1127 C 0.64967 0.06577 0.21874 0.0
C1128 C 0.64993 0.01332 0.24911 0.0
C1129 C 0.67415 0.05376 0.23102 0.0
C1130 C 0.67522 0.97108 0.27037 0.0
C1131 C 0.6255 0.94939 0.29307 0.0
N1132 N 0.67367 0.02827 0.2456 0.0
N1133 N 0.62649 0.97469 0.27811 0.0
H1134 H 0.062 0.60636 0.29624 0.0
H1135 H 0.93525 0.69444 0.22472 0.0
H1136 H 0.0685 0.69407 0.2778 0.0
H1137 H 0.9438 0.60654 0.20923 0.0
H1138 H 0.98172 0.69544 0.24963 0.0
H1139 H 0.01569 0.60675 0.27148 0.0
C1140 C 0.05355 0.6258 0.28745 0.0
C1141 C 0.0692 0.65024 0.28917 0.0
C1142 C 0.97347 0.67599 0.24052 0.0
C1143 C 0.01613 0.65076 0.26049 0.0
C1144 C 0.947 0.67541 0.22621 0.0
C1145 C 0.93563 0.65038 0.2147 0.0
C1146 C 0.98849 0.65128 0.24397 0.0
C1147 C 0.95176 0.62634 0.21751 0.0
C1148 C 0.02719 0.62594 0.273 0.0
C1149 C 0.05718 0.67475 0.27703 0.0
N1150 N 0.9772 0.62734 0.23212 0.0
N1151 N 0.03136 0.67441 0.26325 0.0
loop_
_geom_bond_atom_site_label_1
_geom_bond_atom_site_label_2
_geom_bond_distance
_geom_bond_site_symmetry_2
_ccdc_geom_bond_type
Mn0 O5 2.095 . S
Mn0 O15 2.162 . S
Mn0 O16 2.297 . S
Mn0 O24 2.385 . S
Mn0 O25 2.209 . S
Mn0 O26 2.094 . S
Mn1 O6 2.121 . S
Mn1 N8 2.257 . S
Mn1 N17 2.282 . S
Mn1 O25 2.215 . S
Mn1 O27 2.117 . S
C2 O24 1.234 . S
C2 O25 1.283 . S
C3 O15 1.281 . S
C3 O16 1.236 . S
C4 O26 1.240 . S
C4 O27 1.264 . S
O5 Mn0 2.095 . S
O5 C14 1.250 . S
O6 Mn1 2.121 . S
O6 C14 1.258 . S
C7 N8 1.326 . S
C7 C11 1.460 . S
C7 H13 0.929 . S
N8 Mn1 2.257 . S
N8 C7 1.326 . S
N8 C12 1.362 . S
C9 C10 1.258 . S
C9 C12 1.431 . S
C9 C29 1.449 . S
C10 C9 1.258 . S
C10 C11 1.477 . S
C10 H30 0.931 . S
C11 C7 1.460 . S
C11 C10 1.477 . S
C11 H31 0.930 . S
C12 N8 1.362 . S
C12 C9 1.431 . S
C12 C22 1.476 . S
H13 C7 0.929 . S
C14 O5 1.250 . S
C14 O6 1.258 . S
O15 Mn0 2.162 . S
O15 C3 1.281 . S
O16 Mn0 2.297 . S
O16 C3 1.236 . S
N17 Mn1 2.282 . S
N17 C18 1.328 . S
N17 C22 1.318 . S
C18 N17 1.328 . S
C18 C19 1.457 . S
C18 H23 0.929 . S
C19 C18 1.457 . S
C19 C20 1.291 . S
C19 H32 0.931 . S
C20 C19 1.291 . S
C20 C21 1.373 . S
C20 H33 0.929 . S
C21 C20 1.373 . S
C21 C22 1.396 . S
C21 C28 1.403 . S
C22 C12 1.476 . S
C22 N17 1.318 . S
C22 C21 1.396 . S
H23 C18 0.929 . S
O24 Mn0 2.385 . S
O24 C2 1.234 . S
O25 Mn0 2.209 . S
O25 Mn1 2.215 . S
O25 C2 1.283 . S
O26 Mn0 2.094 . S
O26 C4 1.240 . S
O27 Mn1 2.117 . S
O27 C4 1.264 . S
C28 C21 1.403 . S
C28 C29 1.399 . S
C28 H34 0.929 . S
C29 C9 1.449 . S
C29 C28 1.399 . S
C29 H35 0.930 . S
H30 C10 0.931 . S
H31 C11 0.930 . S
H32 C19 0.931 . S
H33 C20 0.929 . S
H34 C28 0.929 . S
H35 C29 0.930 . S
Mn36 O41 2.095 . S
Mn36 O51 2.162 . S
Mn36 O52 2.297 . S
Mn36 O60 2.385 . S
Mn36 O61 2.209 . S
Mn36 O62 2.094 . S
Mn37 O42 2.121 . S
Mn37 N44 2.257 . S
Mn37 N53 2.282 . S
Mn37 O61 2.215 . S
Mn37 O63 2.117 . S
C38 O60 1.234 . S
C38 O61 1.283 . S
C39 O51 1.281 . S
C39 O52 1.236 . S
C40 O62 1.240 . S
C40 O63 1.264 . S
O41 Mn36 2.095 . S
O41 C50 1.250 . S
O42 Mn37 2.121 . S
O42 C50 1.258 . S
C43 N44 1.326 . S
C43 C47 1.460 . S
C43 H49 0.929 . S
N44 Mn37 2.257 . S
N44 C43 1.326 . S
N44 C48 1.362 . S
C45 C46 1.258 . S
C45 C48 1.431 . S
C45 C65 1.449 . S
C46 C45 1.258 . S
C46 C47 1.477 . S
C46 H66 0.931 . S
C47 C43 1.460 . S
C47 C46 1.477 . S
C47 H67 0.930 . S
C48 N44 1.362 . S
C48 C45 1.431 . S
C48 C58 1.476 . S
H49 C43 0.929 . S
C50 O41 1.250 . S
C50 O42 1.258 . S
O51 Mn36 2.162 . S
O51 C39 1.281 . S
O52 Mn36 2.297 . S
O52 C39 1.236 . S
N53 Mn37 2.282 . S
N53 C54 1.328 . S
N53 C58 1.318 . S
C54 N53 1.328 . S
C54 C55 1.457 . S
C54 H59 0.929 . S
C55 C54 1.457 . S
C55 C56 1.291 . S
C55 H68 0.931 . S
C56 C55 1.291 . S
C56 C57 1.373 . S
C56 H69 0.929 . S
C57 C56 1.373 . S
C57 C58 1.396 . S
C57 C64 1.403 . S
C58 C48 1.476 . S
C58 N53 1.318 . S
C58 C57 1.396 . S
H59 C54 0.929 . S
O60 Mn36 2.385 . S
O60 C38 1.234 . S
O61 Mn36 2.209 . S
O61 Mn37 2.215 . S
O61 C38 1.283 . S
O62 Mn36 2.094 . S
O62 C40 1.240 . S
O63 Mn37 2.117 . S
O63 C40 1.264 . S
C64 C57 1.403 . S
C64 C65 1.399 . S
C64 H70 0.929 . S
C65 C45 1.449 . S
C65 C64 1.399 . S
C65 H71 0.930 . S
H66 C46 0.931 . S
H67 C47 0.930 . S
H68 C55 0.931 . S
H69 C56 0.929 . S
H70 C64 0.929 . S
H71 C65 0.930 . S
Mn72 O77 2.095 . S
Mn72 O87 2.162 . S
Mn72 O88 2.297 . S
Mn72 O96 2.385 . S
Mn72 O97 2.209 . S
Mn72 O98 2.094 . S
Mn73 O78 2.121 . S
Mn73 N80 2.257 . S
Mn73 N89 2.282 . S
Mn73 O97 2.215 . S
Mn73 O99 2.117 . S
C74 O96 1.234 . S
C74 O97 1.283 . S
C75 O87 1.281 . S
C75 O88 1.236 . S
C76 O98 1.240 . S
C76 O99 1.264 . S
O77 Mn72 2.095 . S
O77 C86 1.250 . S
O78 Mn73 2.121 . S
O78 C86 1.258 . S
C79 N80 1.326 . S
C79 C83 1.460 . S
C79 H85 0.929 . S
N80 Mn73 2.257 . S
N80 C79 1.326 . S
N80 C84 1.362 . S
C81 C82 1.258 . S
C81 C84 1.431 . S
C81 C101 1.449 . S
C82 C81 1.258 . S
C82 C83 1.477 . S
C82 H102 0.931 . S
C83 C79 1.460 . S
C83 C82 1.477 . S
C83 H103 0.930 . S
C84 N80 1.362 . S
C84 C81 1.431 . S
C84 C94 1.476 . S
H85 C79 0.929 . S
C86 O77 1.250 . S
C86 O78 1.258 . S
O87 Mn72 2.162 . S
O87 C75 1.281 . S
O88 Mn72 2.297 . S
O88 C75 1.236 . S
N89 Mn73 2.282 . S
N89 C90 1.328 . S
N89 C94 1.318 . S
C90 N89 1.328 . S
C90 C91 1.457 . S
C90 H95 0.929 . S
C91 C90 1.457 . S
C91 C92 1.291 . S
C91 H104 0.931 . S
C92 C91 1.291 . S
C92 C93 1.373 . S
C92 H105 0.929 . S
C93 C92 1.373 . S
C93 C94 1.396 . S
C93 C100 1.403 . S
C94 C84 1.476 . S
C94 N89 1.318 . S
C94 C93 1.396 . S
H95 C90 0.929 . S
O96 Mn72 2.385 . S
O96 C74 1.234 . S
O97 Mn72 2.209 . S
O97 Mn73 2.215 . S
O97 C74 1.283 . S
O98 Mn72 2.094 . S
O98 C76 1.240 . S
O99 Mn73 2.117 . S
O99 C76 1.264 . S
C100 C93 1.403 . S
C100 C101 1.399 . S
C100 H106 0.929 . S
C101 C81 1.449 . S
C101 C100 1.399 . S
C101 H107 0.930 . S
H102 C82 0.931 . S
H103 C83 0.930 . S
H104 C91 0.931 . S
H105 C92 0.929 . S
H106 C100 0.929 . S
H107 C101 0.930 . S
Mn108 O113 2.095 . S
Mn108 O123 2.162 . S
Mn108 O124 2.297 . S
Mn108 O132 2.385 . S
Mn108 O133 2.209 . S
Mn108 O134 2.094 . S
Mn109 O114 2.121 . S
Mn109 N116 2.257 . S
Mn109 N125 2.282 . S
Mn109 O133 2.215 . S
Mn109 O135 2.117 . S
C110 O132 1.234 . S
C110 O133 1.283 . S
C111 O123 1.281 . S
C111 O124 1.236 . S
C112 O134 1.240 . S
C112 O135 1.264 . S
O113 Mn108 2.095 . S
O113 C122 1.250 . S
O114 Mn109 2.121 . S
O114 C122 1.258 . S
C115 N116 1.326 . S
C115 C119 1.460 . S
C115 H121 0.929 . S
N116 Mn109 2.257 . S
N116 C115 1.326 . S
N116 C120 1.362 . S
C117 C118 1.258 . S
C117 C120 1.431 . S
C117 C137 1.449 . S
C118 C117 1.258 . S
C118 C119 1.477 . S
C118 H138 0.931 . S
C119 C115 1.460 . S
C119 C118 1.477 . S
C119 H139 0.930 . S
C120 N116 1.362 . S
C120 C117 1.431 . S
C120 C130 1.476 . S
H121 C115 0.929 . S
C122 O113 1.250 . S
C122 O114 1.258 . S
O123 Mn108 2.162 . S
O123 C111 1.281 . S
O124 Mn108 2.297 . S
O124 C111 1.236 . S
N125 Mn109 2.282 . S
N125 C126 1.328 . S
N125 C130 1.318 . S
C126 N125 1.328 . S
C126 C127 1.457 . S
C126 H131 0.929 . S
C127 C126 1.457 . S
C127 C128 1.291 . S
C127 H140 0.931 . S
C128 C127 1.291 . S
C128 C129 1.373 . S
C128 H141 0.929 . S
C129 C128 1.373 . S
C129 C130 1.396 . S
C129 C136 1.403 . S
C130 C120 1.476 . S
C130 N125 1.318 . S
C130 C129 1.396 . S
H131 C126 0.929 . S
O132 Mn108 2.385 . S
O132 C110 1.234 . S
O133 Mn108 2.209 . S
O133 Mn109 2.215 . S
O133 C110 1.283 . S
O134 Mn108 2.094 . S
O134 C112 1.240 . S
O135 Mn109 2.117 . S
O135 C112 1.264 . S
C136 C129 1.403 . S
C136 C137 1.399 . S
C136 H142 0.929 . S
C137 C117 1.449 . S
C137 C136 1.399 . S
C137 H143 0.930 . S
H138 C118 0.931 . S
H139 C119 0.930 . S
H140 C127 0.931 . S
H141 C128 0.929 . S
H142 C136 0.929 . S
H143 C137 0.930 . S
Mn144 O149 2.095 . S
Mn144 O159 2.162 . S
Mn144 O160 2.297 . S
Mn144 O168 2.385 . S
Mn144 O169 2.209 . S
Mn144 O170 2.094 . S
Mn145 O150 2.121 . S
Mn145 N152 2.257 . S
Mn145 N161 2.282 . S
Mn145 O169 2.215 . S
Mn145 O171 2.117 . S
C146 O168 1.234 . S
C146 O169 1.283 . S
C147 O159 1.281 . S
C147 O160 1.236 . S
C148 O170 1.240 . S
C148 O171 1.264 . S
O149 Mn144 2.095 . S
O149 C158 1.250 . S
O150 Mn145 2.121 . S
O150 C158 1.258 . S
C151 N152 1.326 . S
C151 C155 1.460 . S
C151 H157 0.929 . S
N152 Mn145 2.257 . S
N152 C151 1.326 . S
N152 C156 1.362 . S
C153 C154 1.258 . S
C153 C156 1.431 . S
C153 C173 1.449 . S
C154 C153 1.258 . S
C154 C155 1.477 . S
C154 H174 0.931 . S
C155 C151 1.460 . S
C155 C154 1.477 . S
C155 H175 0.930 . S
C156 N152 1.362 . S
C156 C153 1.431 . S
C156 C166 1.476 . S
H157 C151 0.929 . S
C158 O149 1.250 . S
C158 O150 1.258 . S
O159 Mn144 2.162 . S
O159 C147 1.281 . S
O160 Mn144 2.297 . S
O160 C147 1.236 . S
N161 Mn145 2.282 . S
N161 C162 1.328 . S
N161 C166 1.318 . S
C162 N161 1.328 . S
C162 C163 1.457 . S
C162 H167 0.929 . S
C163 C162 1.457 . S
C163 C164 1.291 . S
C163 H176 0.931 . S
C164 C163 1.291 . S
C164 C165 1.373 . S
C164 H177 0.929 . S
C165 C164 1.373 . S
C165 C166 1.396 . S
C165 C172 1.403 . S
C166 C156 1.476 . S
C166 N161 1.318 . S
C166 C165 1.396 . S
H167 C162 0.929 . S
O168 Mn144 2.385 . S
O168 C146 1.234 . S
O169 Mn144 2.209 . S
O169 Mn145 2.215 . S
O169 C146 1.283 . S
O170 Mn144 2.094 . S
O170 C148 1.240 . S
O171 Mn145 2.117 . S
O171 C148 1.264 . S
C172 C165 1.403 . S
C172 C173 1.399 . S
C172 H178 0.929 . S
C173 C153 1.449 . S
C173 C172 1.399 . S
C173 H179 0.930 . S
H174 C154 0.931 . S
H175 C155 0.930 . S
H176 C163 0.931 . S
H177 C164 0.929 . S
H178 C172 0.929 . S
H179 C173 0.930 . S
Mn180 O185 2.095 . S
Mn180 O195 2.162 . S
Mn180 O196 2.297 . S
Mn180 O204 2.385 . S
Mn180 O205 2.209 . S
Mn180 O206 2.094 . S
Mn181 O186 2.121 . S
Mn181 N188 2.257 . S
Mn181 N197 2.282 . S
Mn181 O205 2.215 . S
Mn181 O207 2.117 . S
C182 O204 1.234 . S
C182 O205 1.283 . S
C183 O195 1.281 . S
C183 O196 1.236 . S
C184 O206 1.240 . S
C184 O207 1.264 . S
O185 Mn180 2.095 . S
O185 C194 1.250 . S
O186 Mn181 2.121 . S
O186 C194 1.258 . S
C187 N188 1.326 . S
C187 C191 1.460 . S
C187 H193 0.929 . S
N188 Mn181 2.257 . S
N188 C187 1.326 . S
N188 C192 1.362 . S
C189 C190 1.258 . S
C189 C192 1.431 . S
C189 C209 1.449 . S
C190 C189 1.258 . S
C190 C191 1.477 . S
C190 H210 0.931 . S
C191 C187 1.460 . S
C191 C190 1.477 . S
C191 H211 0.930 . S
C192 N188 1.362 . S
C192 C189 1.431 . S
C192 C202 1.476 . S
H193 C187 0.929 . S
C194 O185 1.250 . S
C194 O186 1.258 . S
O195 Mn180 2.162 . S
O195 C183 1.281 . S
O196 Mn180 2.297 . S
O196 C183 1.236 . S
N197 Mn181 2.282 . S
N197 C198 1.328 . S
N197 C202 1.318 . S
C198 N197 1.328 . S
C198 C199 1.457 . S
C198 H203 0.929 . S
C199 C198 1.457 . S
C199 C200 1.291 . S
C199 H212 0.931 . S
C200 C199 1.291 . S
C200 C201 1.373 . S
C200 H213 0.929 . S
C201 C200 1.373 . S
C201 C202 1.396 . S
C201 C208 1.403 . S
C202 C192 1.476 . S
C202 N197 1.318 . S
C202 C201 1.396 . S
H203 C198 0.929 . S
O204 Mn180 2.385 . S
O204 C182 1.234 . S
O205 Mn180 2.209 . S
O205 Mn181 2.215 . S
O205 C182 1.283 . S
O206 Mn180 2.094 . S
O206 C184 1.240 . S
O207 Mn181 2.117 . S
O207 C184 1.264 . S
C208 C201 1.403 . S
C208 C209 1.399 . S
C208 H214 0.929 . S
C209 C189 1.449 . S
C209 C208 1.399 . S
C209 H215 0.930 . S
H210 C190 0.931 . S
H211 C191 0.930 . S
H212 C199 0.931 . S
H213 C200 0.929 . S
H214 C208 0.929 . S
H215 C209 0.930 . S
Mn216 O221 2.095 . S
Mn216 O231 2.162 . S
Mn216 O232 2.297 . S
Mn216 O240 2.385 . S
Mn216 O241 2.209 . S
Mn216 O242 2.094 . S
Mn217 O222 2.121 . S
Mn217 N224 2.257 . S
Mn217 N233 2.282 . S
Mn217 O241 2.215 . S
Mn217 O243 2.117 . S
C218 O240 1.234 . S
C218 O241 1.283 . S
C219 O231 1.281 . S
C219 O232 1.236 . S
C220 O242 1.240 . S
C220 O243 1.264 . S
O221 Mn216 2.095 . S
O221 C230 1.250 . S
O222 Mn217 2.121 . S
O222 C230 1.258 . S
C223 N224 1.326 . S
C223 C227 1.460 . S
C223 H229 0.929 . S
N224 Mn217 2.257 . S
N224 C223 1.326 . S
N224 C228 1.362 . S
C225 C226 1.258 . S
C225 C228 1.431 . S
C225 C245 1.449 . S
C226 C225 1.258 . S
C226 C227 1.477 . S
C226 H246 0.931 . S
C227 C223 1.460 . S
C227 C226 1.477 . S
C227 H247 0.930 . S
C228 N224 1.362 . S
C228 C225 1.431 . S
C228 C238 1.476 . S
H229 C223 0.929 . S
C230 O221 1.250 . S
C230 O222 1.258 . S
O231 Mn216 2.162 . S
O231 C219 1.281 . S
O232 Mn216 2.297 . S
O232 C219 1.236 . S
N233 Mn217 2.282 . S
N233 C234 1.328 . S
N233 C238 1.318 . S
C234 N233 1.328 . S
C234 C235 1.457 . S
C234 H239 0.929 . S
C235 C234 1.457 . S
C235 C236 1.291 . S
C235 H248 0.931 . S
C236 C235 1.291 . S
C236 C237 1.373 . S
C236 H249 0.929 . S
C237 C236 1.373 . S
C237 C238 1.396 . S
C237 C244 1.403 . S
C238 C228 1.476 . S
C238 N233 1.318 . S
C238 C237 1.396 . S
H239 C234 0.929 . S
O240 Mn216 2.385 . S
O240 C218 1.234 . S
O241 Mn216 2.209 . S
O241 Mn217 2.215 . S
O241 C218 1.283 . S
O242 Mn216 2.094 . S
O242 C220 1.240 . S
O243 Mn217 2.117 . S
O243 C220 1.264 . S
C244 C237 1.403 . S
C244 C245 1.399 . S
C244 H250 0.929 . S
C245 C225 1.449 . S
C245 C244 1.399 . S
C245 H251 0.930 . S
H246 C226 0.931 . S
H247 C227 0.930 . S
H248 C235 0.931 . S
H249 C236 0.929 . S
H250 C244 0.929 . S
H251 C245 0.930 . S
Mn252 O257 2.095 . S
Mn252 O267 2.162 . S
Mn252 O268 2.297 . S
Mn252 O276 2.385 . S
Mn252 O277 2.209 . S
Mn252 O278 2.094 . S
Mn253 O258 2.121 . S
Mn253 N260 2.257 . S
Mn253 N269 2.282 . S
Mn253 O277 2.215 . S
Mn253 O279 2.117 . S
C254 O276 1.234 . S
C254 O277 1.283 . S
C255 O267 1.281 . S
C255 O268 1.236 . S
C256 O278 1.240 . S
C256 O279 1.264 . S
O257 Mn252 2.095 . S
O257 C266 1.250 . S
O258 Mn253 2.121 . S
O258 C266 1.258 . S
C259 N260 1.326 . S
C259 C263 1.460 . S
C259 H265 0.929 . S
N260 Mn253 2.257 . S
N260 C259 1.326 . S
N260 C264 1.362 . S
C261 C262 1.258 . S
C261 C264 1.431 . S
C261 C281 1.449 . S
C262 C261 1.258 . S
C262 C263 1.477 . S
C262 H282 0.931 . S
C263 C259 1.460 . S
C263 C262 1.477 . S
C263 H283 0.930 . S
C264 N260 1.362 . S
C264 C261 1.431 . S
C264 C274 1.476 . S
H265 C259 0.929 . S
C266 O257 1.250 . S
C266 O258 1.258 . S
O267 Mn252 2.162 . S
O267 C255 1.281 . S
O268 Mn252 2.297 . S
O268 C255 1.236 . S
N269 Mn253 2.282 . S
N269 C270 1.328 . S
N269 C274 1.318 . S
C270 N269 1.328 . S
C270 C271 1.457 . S
C270 H275 0.929 . S
C271 C270 1.457 . S
C271 C272 1.291 . S
C271 H284 0.931 . S
C272 C271 1.291 . S
C272 C273 1.373 . S
C272 H285 0.929 . S
C273 C272 1.373 . S
C273 C274 1.396 . S
C273 C280 1.403 . S
C274 C264 1.476 . S
C274 N269 1.318 . S
C274 C273 1.396 . S
H275 C270 0.929 . S
O276 Mn252 2.385 . S
O276 C254 1.234 . S
O277 Mn252 2.209 . S
O277 Mn253 2.215 . S
O277 C254 1.283 . S
O278 Mn252 2.094 . S
O278 C256 1.240 . S
O279 Mn253 2.117 . S
O279 C256 1.264 . S
C280 C273 1.403 . S
C280 C281 1.399 . S
C280 H286 0.929 . S
C281 C261 1.449 . S
C281 C280 1.399 . S
C281 H287 0.930 . S
H282 C262 0.931 . S
H283 C263 0.930 . S
H284 C271 0.931 . S
H285 C272 0.929 . S
H286 C280 0.929 . S
H287 C281 0.930 . S
Mn288 O293 2.095 . S
Mn288 O303 2.162 . S
Mn288 O304 2.297 . S
Mn288 O312 2.385 . S
Mn288 O313 2.209 . S
Mn288 O314 2.094 . S
Mn289 O294 2.121 . S
Mn289 N296 2.257 . S
Mn289 N305 2.282 . S
Mn289 O313 2.215 . S
Mn289 O315 2.117 . S
C290 O312 1.234 . S
C290 O313 1.283 . S
C291 O303 1.281 . S
C291 O304 1.236 . S
C292 O314 1.240 . S
C292 O315 1.264 . S
O293 Mn288 2.095 . S
O293 C302 1.250 . S
O294 Mn289 2.121 . S
O294 C302 1.258 . S
C295 N296 1.326 . S
C295 C299 1.460 . S
C295 H301 0.929 . S
N296 Mn289 2.257 . S
N296 C295 1.326 . S
N296 C300 1.362 . S
C297 C298 1.258 . S
C297 C300 1.431 . S
C297 C317 1.449 . S
C298 C297 1.258 . S
C298 C299 1.477 . S
C298 H318 0.931 1_655 S
C299 C295 1.460 . S
C299 C298 1.477 . S
C299 H319 0.930 . S
C300 N296 1.362 . S
C300 C297 1.431 . S
C300 C310 1.476 . S
H301 C295 0.929 . S
C302 O293 1.250 . S
C302 O294 1.258 . S
O303 Mn288 2.162 . S
O303 C291 1.281 . S
O304 Mn288 2.297 . S
O304 C291 1.236 . S
N305 Mn289 2.282 . S
N305 C306 1.328 . S
N305 C310 1.318 . S
C306 N305 1.328 . S
C306 C307 1.457 . S
C306 H311 0.929 . S
C307 C306 1.457 . S
C307 C308 1.291 . S
C307 H320 0.931 . S
C308 C307 1.291 . S
C308 C309 1.373 . S
C308 H321 0.929 . S
C309 C308 1.373 . S
C309 C310 1.396 . S
C309 C316 1.403 . S
C310 C300 1.476 . S
C310 N305 1.318 . S
C310 C309 1.396 . S
H311 C306 0.929 . S
O312 Mn288 2.385 . S
O312 C290 1.234 . S
O313 Mn288 2.209 . S
O313 Mn289 2.215 . S
O313 C290 1.283 . S
O314 Mn288 2.094 . S
O314 C292 1.240 . S
O315 Mn289 2.117 . S
O315 C292 1.264 . S
C316 C309 1.403 . S
C316 C317 1.399 . S
C316 H322 0.929 . S
C317 C297 1.449 . S
C317 C316 1.399 . S
C317 H323 0.930 1_655 S
H318 C298 0.931 1_455 S
H319 C299 0.930 . S
H320 C307 0.931 . S
H321 C308 0.929 . S
H322 C316 0.929 . S
H323 C317 0.930 1_455 S
Mn324 O329 2.095 . S
Mn324 O339 2.162 . S
Mn324 O340 2.297 . S
Mn324 O348 2.385 . S
Mn324 O349 2.209 . S
Mn324 O350 2.094 . S
Mn325 O330 2.121 . S
Mn325 N332 2.257 . S
Mn325 N341 2.282 . S
Mn325 O349 2.215 . S
Mn325 O351 2.117 . S
C326 O348 1.234 . S
C326 O349 1.283 . S
C327 O339 1.281 . S
C327 O340 1.236 . S
C328 O350 1.240 . S
C328 O351 1.264 . S
O329 Mn324 2.095 . S
O329 C338 1.250 . S
O330 Mn325 2.121 . S
O330 C338 1.258 . S
C331 N332 1.326 . S
C331 C335 1.460 . S
C331 H337 0.929 . S
N332 Mn325 2.257 . S
N332 C331 1.326 . S
N332 C336 1.362 . S
C333 C334 1.258 . S
C333 C336 1.431 . S
C333 C353 1.449 . S
C334 C333 1.258 . S
C334 C335 1.477 . S
C334 H354 0.931 1_565 S
C335 C331 1.460 . S
C335 C334 1.477 . S
C335 H355 0.930 . S
C336 N332 1.362 . S
C336 C333 1.431 . S
C336 C346 1.476 . S
H337 C331 0.929 . S
C338 O329 1.250 . S
C338 O330 1.258 . S
O339 Mn324 2.162 . S
O339 C327 1.281 . S
O340 Mn324 2.297 . S
O340 C327 1.236 . S
N341 Mn325 2.282 . S
N341 C342 1.328 . S
N341 C346 1.318 . S
C342 N341 1.328 . S
C342 C343 1.457 . S
C342 H347 0.929 . S
C343 C342 1.457 . S
C343 C344 1.291 . S
C343 H356 0.931 . S
C344 C343 1.291 . S
C344 C345 1.373 . S
C344 H357 0.929 . S
C345 C344 1.373 . S
C345 C346 1.396 . S
C345 C352 1.403 . S
C346 C336 1.476 . S
C346 N341 1.318 . S
C346 C345 1.396 . S
H347 C342 0.929 . S
O348 Mn324 2.385 . S
O348 C326 1.234 . S
O349 Mn324 2.209 . S
O349 Mn325 2.215 . S
O349 C326 1.283 . S
O350 Mn324 2.094 . S
O350 C328 1.240 . S
O351 Mn325 2.117 . S
O351 C328 1.264 . S
C352 C345 1.403 . S
C352 C353 1.399 . S
C352 H358 0.929 . S
C353 C333 1.449 . S
C353 C352 1.399 . S
C353 H359 0.930 1_565 S
H354 C334 0.931 1_545 S
H355 C335 0.930 . S
H356 C343 0.931 . S
H357 C344 0.929 . S
H358 C352 0.929 . S
H359 C353 0.930 1_545 S
Mn360 O365 2.095 . S
Mn360 O375 2.162 . S
Mn360 O376 2.297 . S
Mn360 O384 2.385 . S
Mn360 O385 2.209 . S
Mn360 O386 2.094 . S
Mn361 O366 2.121 . S
Mn361 N368 2.257 . S
Mn361 N377 2.282 . S
Mn361 O385 2.215 . S
Mn361 O387 2.117 . S
C362 O384 1.234 . S
C362 O385 1.283 . S
C363 O375 1.281 . S
C363 O376 1.236 . S
C364 O386 1.240 . S
C364 O387 1.264 . S
O365 Mn360 2.095 . S
O365 C374 1.250 . S
O366 Mn361 2.121 . S
O366 C374 1.258 . S
C367 N368 1.326 . S
C367 C371 1.460 . S
C367 H373 0.929 . S
N368 Mn361 2.257 . S
N368 C367 1.326 . S
N368 C372 1.362 . S
C369 C370 1.258 . S
C369 C372 1.431 . S
C369 C389 1.449 . S
C370 C369 1.258 . S
C370 C371 1.477 . S
C370 H390 0.931 1_455 S
C371 C367 1.460 . S
C371 C370 1.477 . S
C371 H391 0.930 . S
C372 N368 1.362 . S
C372 C369 1.431 . S
C372 C382 1.476 . S
H373 C367 0.929 . S
C374 O365 1.250 . S
C374 O366 1.258 . S
O375 Mn360 2.162 . S
O375 C363 1.281 . S
O376 Mn360 2.297 . S
O376 C363 1.236 . S
N377 Mn361 2.282 . S
N377 C378 1.328 . S
N377 C382 1.318 . S
C378 N377 1.328 . S
C378 C379 1.457 . S
C378 H383 0.929 . S
C379 C378 1.457 . S
C379 C380 1.291 . S
C379 H392 0.931 . S
C380 C379 1.291 . S
C380 C381 1.373 . S
C380 H393 0.929 . S
C381 C380 1.373 . S
C381 C382 1.396 . S
C381 C388 1.403 . S
C382 C372 1.476 . S
C382 N377 1.318 . S
C382 C381 1.396 . S
H383 C378 0.929 . S
O384 Mn360 2.385 . S
O384 C362 1.234 . S
O385 Mn360 2.209 . S
O385 Mn361 2.215 . S
O385 C362 1.283 . S
O386 Mn360 2.094 . S
O386 C364 1.240 . S
O387 Mn361 2.117 . S
O387 C364 1.264 . S
C388 C381 1.403 . S
C388 C389 1.399 . S
C388 H394 0.929 . S
C389 C369 1.449 . S
C389 C388 1.399 . S
C389 H395 0.930 1_455 S
H390 C370 0.931 1_655 S
H391 C371 0.930 . S
H392 C379 0.931 . S
H393 C380 0.929 . S
H394 C388 0.929 . S
H395 C389 0.930 1_655 S
Mn396 O401 2.095 . S
Mn396 O411 2.162 . S
Mn396 O412 2.297 . S
Mn396 O420 2.385 . S
Mn396 O421 2.209 . S
Mn396 O422 2.094 . S
Mn397 O402 2.121 . S
Mn397 N404 2.257 . S
Mn397 N413 2.282 . S
Mn397 O421 2.215 . S
Mn397 O423 2.117 . S
C398 O420 1.234 . S
C398 O421 1.283 . S
C399 O411 1.281 . S
C399 O412 1.236 . S
C400 O422 1.240 . S
C400 O423 1.264 . S
O401 Mn396 2.095 . S
O401 C410 1.250 . S
O402 Mn397 2.121 . S
O402 C410 1.258 . S
C403 N404 1.326 . S
C403 C407 1.460 . S
C403 H409 0.929 . S
N404 Mn397 2.257 . S
N404 C403 1.326 . S
N404 C408 1.362 . S
C405 C406 1.258 . S
C405 C408 1.431 . S
C405 C425 1.449 . S
C406 C405 1.258 . S
C406 C407 1.477 . S
C406 H426 0.931 1_545 S
C407 C403 1.460 . S
C407 C406 1.477 . S
C407 H427 0.930 . S
C408 N404 1.362 . S
C408 C405 1.431 . S
C408 C418 1.476 . S
H409 C403 0.929 . S
C410 O401 1.250 . S
C410 O402 1.258 . S
O411 Mn396 2.162 . S
O411 C399 1.281 . S
O412 Mn396 2.297 . S
O412 C399 1.236 . S
N413 Mn397 2.282 . S
N413 C414 1.328 . S
N413 C418 1.318 . S
C414 N413 1.328 . S
C414 C415 1.457 . S
C414 H419 0.929 . S
C415 C414 1.457 . S
C415 C416 1.291 . S
C415 H428 0.931 . S
C416 C415 1.291 . S
C416 C417 1.373 . S
C416 H429 0.929 . S
C417 C416 1.373 . S
C417 C418 1.396 . S
C417 C424 1.403 . S
C418 C408 1.476 . S
C418 N413 1.318 . S
C418 C417 1.396 . S
H419 C414 0.929 . S
O420 Mn396 2.385 . S
O420 C398 1.234 . S
O421 Mn396 2.209 . S
O421 Mn397 2.215 . S
O421 C398 1.283 . S
O422 Mn396 2.094 . S
O422 C400 1.240 . S
O423 Mn397 2.117 . S
O423 C400 1.264 . S
C424 C417 1.403 . S
C424 C425 1.399 . S
C424 H430 0.929 . S
C425 C405 1.449 . S
C425 C424 1.399 . S
C425 H431 0.930 1_545 S
H426 C406 0.931 1_565 S
H427 C407 0.930 . S
H428 C415 0.931 . S
H429 C416 0.929 . S
H430 C424 0.929 . S
H431 C425 0.930 1_565 S
Mn432 O437 2.095 . S
Mn432 O447 2.162 . S
Mn432 O448 2.297 . S
Mn432 O456 2.385 . S
Mn432 O457 2.209 . S
Mn432 O458 2.094 . S
Mn433 O438 2.121 . S
Mn433 N440 2.257 . S
Mn433 N449 2.282 . S
Mn433 O457 2.215 . S
Mn433 O459 2.117 . S
C434 O456 1.234 . S
C434 O457 1.283 . S
C435 O447 1.281 . S
C435 O448 1.236 . S
C436 O458 1.240 . S
C436 O459 1.264 . S
O437 Mn432 2.095 . S
O437 C446 1.250 . S
O438 Mn433 2.121 . S
O438 C446 1.258 . S
C439 N440 1.326 . S
C439 C443 1.460 . S
C439 H445 0.929 . S
N440 Mn433 2.257 . S
N440 C439 1.326 . S
N440 C444 1.362 . S
C441 C442 1.258 . S
C441 C444 1.431 . S
C441 C461 1.449 . S
C442 C441 1.258 . S
C442 C443 1.477 . S
C442 H462 0.931 1_655 S
C443 C439 1.460 . S
C443 C442 1.477 . S
C443 H463 0.930 . S
C444 N440 1.362 . S
C444 C441 1.431 . S
C444 C454 1.476 . S
H445 C439 0.929 . S
C446 O437 1.250 . S
C446 O438 1.258 . S
O447 Mn432 2.162 . S
O447 C435 1.281 . S
O448 Mn432 2.297 . S
O448 C435 1.236 . S
N449 Mn433 2.282 . S
N449 C450 1.328 . S
N449 C454 1.318 . S
C450 N449 1.328 . S
C450 C451 1.457 . S
C450 H455 0.929 . S
C451 C450 1.457 . S
C451 C452 1.291 . S
C451 H464 0.931 . S
C452 C451 1.291 . S
C452 C453 1.373 . S
C452 H465 0.929 . S
C453 C452 1.373 . S
C453 C454 1.396 . S
C453 C460 1.403 . S
C454 C444 1.476 . S
C454 N449 1.318 . S
C454 C453 1.396 . S
H455 C450 0.929 . S
O456 Mn432 2.385 . S
O456 C434 1.234 . S
O457 Mn432 2.209 . S
O457 Mn433 2.215 . S
O457 C434 1.283 . S
O458 Mn432 2.094 . S
O458 C436 1.240 . S
O459 Mn433 2.117 . S
O459 C436 1.264 . S
C460 C453 1.403 . S
C460 C461 1.399 . S
C460 H466 0.929 . S
C461 C441 1.449 . S
C461 C460 1.399 . S
C461 H467 0.930 1_655 S
H462 C442 0.931 1_455 S
H463 C443 0.930 . S
H464 C451 0.931 . S
H465 C452 0.929 . S
H466 C460 0.929 . S
H467 C461 0.930 1_455 S
Mn468 O473 2.095 . S
Mn468 O483 2.162 . S
Mn468 O484 2.297 . S
Mn468 O492 2.385 . S
Mn468 O493 2.209 . S
Mn468 O494 2.094 . S
Mn469 O474 2.121 . S
Mn469 N476 2.257 . S
Mn469 N485 2.282 . S
Mn469 O493 2.215 . S
Mn469 O495 2.117 . S
C470 O492 1.234 . S
C470 O493 1.283 . S
C471 O483 1.281 . S
C471 O484 1.236 . S
C472 O494 1.240 . S
C472 O495 1.264 . S
O473 Mn468 2.095 . S
O473 C482 1.250 . S
O474 Mn469 2.121 . S
O474 C482 1.258 . S
C475 N476 1.326 . S
C475 C479 1.460 . S
C475 H481 0.929 . S
N476 Mn469 2.257 . S
N476 C475 1.326 . S
N476 C480 1.362 . S
C477 C478 1.258 . S
C477 C480 1.431 . S
C477 C497 1.449 . S
C478 C477 1.258 . S
C478 C479 1.477 . S
C478 H498 0.931 1_565 S
C479 C475 1.460 . S
C479 C478 1.477 . S
C479 H499 0.930 . S
C480 N476 1.362 . S
C480 C477 1.431 . S
C480 C490 1.476 . S
H481 C475 0.929 . S
C482 O473 1.250 . S
C482 O474 1.258 . S
O483 Mn468 2.162 . S
O483 C471 1.281 . S
O484 Mn468 2.297 . S
O484 C471 1.236 . S
N485 Mn469 2.282 . S
N485 C486 1.328 . S
N485 C490 1.318 . S
C486 N485 1.328 . S
C486 C487 1.457 . S
C486 H491 0.929 . S
C487 C486 1.457 . S
C487 C488 1.291 . S
C487 H500 0.931 . S
C488 C487 1.291 . S
C488 C489 1.373 . S
C488 H501 0.929 . S
C489 C488 1.373 . S
C489 C490 1.396 . S
C489 C496 1.403 . S
C490 C480 1.476 . S
C490 N485 1.318 . S
C490 C489 1.396 . S
H491 C486 0.929 . S
O492 Mn468 2.385 . S
O492 C470 1.234 . S
O493 Mn468 2.209 . S
O493 Mn469 2.215 . S
O493 C470 1.283 . S
O494 Mn468 2.094 . S
O494 C472 1.240 . S
O495 Mn469 2.117 . S
O495 C472 1.264 . S
C496 C489 1.403 . S
C496 C497 1.399 . S
C496 H502 0.929 . S
C497 C477 1.449 . S
C497 C496 1.399 . S
C497 H503 0.930 1_565 S
H498 C478 0.931 1_545 S
H499 C479 0.930 . S
H500 C487 0.931 . S
H501 C488 0.929 . S
H502 C496 0.929 . S
H503 C497 0.930 1_545 S
Mn504 O509 2.095 . S
Mn504 O519 2.162 . S
Mn504 O520 2.297 . S
Mn504 O528 2.385 . S
Mn504 O529 2.209 . S
Mn504 O530 2.094 . S
Mn505 O510 2.121 . S
Mn505 N512 2.257 . S
Mn505 N521 2.282 . S
Mn505 O529 2.215 . S
Mn505 O531 2.117 . S
C506 O528 1.234 . S
C506 O529 1.283 . S
C507 O519 1.281 . S
C507 O520 1.236 . S
C508 O530 1.240 . S
C508 O531 1.264 . S
O509 Mn504 2.095 . S
O509 C518 1.250 . S
O510 Mn505 2.121 . S
O510 C518 1.258 . S
C511 N512 1.326 . S
C511 C515 1.460 . S
C511 H517 0.929 . S
N512 Mn505 2.257 . S
N512 C511 1.326 . S
N512 C516 1.362 . S
C513 C514 1.258 . S
C513 C516 1.431 . S
C513 C533 1.449 . S
C514 C513 1.258 . S
C514 C515 1.477 . S
C514 H534 0.931 1_455 S
C515 C511 1.460 . S
C515 C514 1.477 . S
C515 H535 0.930 . S
C516 N512 1.362 . S
C516 C513 1.431 . S
C516 C526 1.476 . S
H517 C511 0.929 . S
C518 O509 1.250 . S
C518 O510 1.258 . S
O519 Mn504 2.162 . S
O519 C507 1.281 . S
O520 Mn504 2.297 . S
O520 C507 1.236 . S
N521 Mn505 2.282 . S
N521 C522 1.328 . S
N521 C526 1.318 . S
C522 N521 1.328 . S
C522 C523 1.457 . S
C522 H527 0.929 . S
C523 C522 1.457 . S
C523 C524 1.291 . S
C523 H536 0.931 . S
C524 C523 1.291 . S
C524 C525 1.373 . S
C524 H537 0.929 . S
C525 C524 1.373 . S
C525 C526 1.396 . S
C525 C532 1.403 . S
C526 C516 1.476 . S
C526 N521 1.318 . S
C526 C525 1.396 . S
H527 C522 0.929 . S
O528 Mn504 2.385 . S
O528 C506 1.234 . S
O529 Mn504 2.209 . S
O529 Mn505 2.215 . S
O529 C506 1.283 . S
O530 Mn504 2.094 . S
O530 C508 1.240 . S
O531 Mn505 2.117 . S
O531 C508 1.264 . S
C532 C525 1.403 . S
C532 C533 1.399 . S
C532 H538 0.929 . S
C533 C513 1.449 . S
C533 C532 1.399 . S
C533 H539 0.930 1_455 S
H534 C514 0.931 1_655 S
H535 C515 0.930 . S
H536 C523 0.931 . S
H537 C524 0.929 . S
H538 C532 0.929 . S
H539 C533 0.930 1_655 S
Mn540 O545 2.095 . S
Mn540 O555 2.162 . S
Mn540 O556 2.297 . S
Mn540 O564 2.385 . S
Mn540 O565 2.209 . S
Mn540 O566 2.094 . S
Mn541 O546 2.121 . S
Mn541 N548 2.257 . S
Mn541 N557 2.282 . S
Mn541 O565 2.215 . S
Mn541 O567 2.117 . S
C542 O564 1.234 . S
C542 O565 1.283 . S
C543 O555 1.281 . S
C543 O556 1.236 . S
C544 O566 1.240 . S
C544 O567 1.264 . S
O545 Mn540 2.095 . S
O545 C554 1.250 . S
O546 Mn541 2.121 . S
O546 C554 1.258 . S
C547 N548 1.326 . S
C547 C551 1.460 . S
C547 H553 0.929 . S
N548 Mn541 2.257 . S
N548 C547 1.326 . S
N548 C552 1.362 . S
C549 C550 1.258 . S
C549 C552 1.431 . S
C549 C569 1.449 . S
C550 C549 1.258 . S
C550 C551 1.477 . S
C550 H570 0.931 1_545 S
C551 C547 1.460 . S
C551 C550 1.477 . S
C551 H571 0.930 . S
C552 N548 1.362 . S
C552 C549 1.431 . S
C552 C562 1.476 . S
H553 C547 0.929 . S
C554 O545 1.250 . S
C554 O546 1.258 . S
O555 Mn540 2.162 . S
O555 C543 1.281 . S
O556 Mn540 2.297 . S
O556 C543 1.236 . S
N557 Mn541 2.282 . S
N557 C558 1.328 . S
N557 C562 1.318 . S
C558 N557 1.328 . S
C558 C559 1.457 . S
C558 H563 0.929 . S
C559 C558 1.457 . S
C559 C560 1.291 . S
C559 H572 0.931 . S
C560 C559 1.291 . S
C560 C561 1.373 . S
C560 H573 0.929 . S
C561 C560 1.373 . S
C561 C562 1.396 . S
C561 C568 1.403 . S
C562 C552 1.476 . S
C562 N557 1.318 . S
C562 C561 1.396 . S
H563 C558 0.929 . S
O564 Mn540 2.385 . S
O564 C542 1.234 . S
O565 Mn540 2.209 . S
O565 Mn541 2.215 . S
O565 C542 1.283 . S
O566 Mn540 2.094 . S
O566 C544 1.240 . S
O567 Mn541 2.117 . S
O567 C544 1.264 . S
C568 C561 1.403 . S
C568 C569 1.399 . S
C568 H574 0.929 . S
C569 C549 1.449 . S
C569 C568 1.399 . S
C569 H575 0.930 1_545 S
H570 C550 0.931 1_565 S
H571 C551 0.930 . S
H572 C559 0.931 . S
H573 C560 0.929 . S
H574 C568 0.929 . S
H575 C569 0.930 1_565 S
H576 C582 0.930 . S
H577 C586 0.930 . S
H578 C591 0.929 . S
H579 C589 0.929 . S
H580 C584 0.929 . S
H581 C590 0.929 . S
C582 H576 0.930 . S
C582 C583 1.367 . S
C582 C590 1.378 . S
C583 C582 1.367 . S
C583 C591 1.433 . S
C584 H580 0.929 . S
C584 C586 1.378 . S
C584 C588 1.350 . S
C585 C588 1.463 . S
C585 C590 1.350 . S
C585 N593 1.427 . S
C586 H577 0.930 . S
C586 C584 1.378 . S
C586 C587 1.367 . S
C587 C586 1.367 . S
C587 C589 1.433 . S
C588 C584 1.350 . S
C588 C585 1.463 . S
C588 N592 1.427 . S
C589 H579 0.929 . S
C589 C587 1.433 . S
C589 N592 1.384 . S
C590 H581 0.929 . S
C590 C582 1.378 . S
C590 C585 1.350 . S
C591 H578 0.929 . S
C591 C583 1.433 . S
C591 N593 1.384 . S
N592 C588 1.427 . S
N592 C589 1.384 . S
N593 C585 1.427 . S
N593 C591 1.384 . S
H594 C600 0.930 . S
H595 C604 0.930 . S
H596 C609 0.929 . S
H597 C607 0.929 . S
H598 C602 0.929 . S
H599 C608 0.929 . S
C600 H594 0.930 . S
C600 C601 1.367 . S
C600 C608 1.378 . S
C601 C600 1.367 . S
C601 C609 1.433 . S
C602 H598 0.929 . S
C602 C604 1.378 . S
C602 C606 1.350 . S
C603 C606 1.463 . S
C603 C608 1.350 . S
C603 N611 1.427 . S
C604 H595 0.930 . S
C604 C602 1.378 . S
C604 C605 1.367 . S
C605 C604 1.367 . S
C605 C607 1.433 . S
C606 C602 1.350 . S
C606 C603 1.463 . S
C606 N610 1.427 . S
C607 H597 0.929 . S
C607 C605 1.433 . S
C607 N610 1.384 . S
C608 H599 0.929 . S
C608 C600 1.378 . S
C608 C603 1.350 . S
C609 H596 0.929 . S
C609 C601 1.433 . S
C609 N611 1.384 . S
N610 C606 1.427 . S
N610 C607 1.384 . S
N611 C603 1.427 . S
N611 C609 1.384 . S
H612 C618 0.930 . S
H613 C622 0.930 . S
H614 C627 0.929 . S
H615 C625 0.929 . S
H616 C620 0.929 . S
H617 C626 0.929 . S
C618 H612 0.930 . S
C618 C619 1.367 . S
C618 C626 1.378 . S
C619 C618 1.367 . S
C619 C627 1.433 . S
C620 H616 0.929 . S
C620 C622 1.378 . S
C620 C624 1.350 . S
C621 C624 1.463 . S
C621 C626 1.350 . S
C621 N629 1.427 . S
C622 H613 0.930 . S
C622 C620 1.378 . S
C622 C623 1.367 . S
C623 C622 1.367 . S
C623 C625 1.433 . S
C624 C620 1.350 . S
C624 C621 1.463 . S
C624 N628 1.427 . S
C625 H615 0.929 . S
C625 C623 1.433 . S
C625 N628 1.384 . S
C626 H617 0.929 . S
C626 C618 1.378 . S
C626 C621 1.350 . S
C627 H614 0.929 . S
C627 C619 1.433 . S
C627 N629 1.384 . S
N628 C624 1.427 . S
N628 C625 1.384 . S
N629 C621 1.427 . S
N629 C627 1.384 . S
H630 C636 0.930 . S
H631 C640 0.930 . S
H632 C645 0.929 . S
H633 C643 0.929 . S
H634 C638 0.929 . S
H635 C644 0.929 . S
C636 H630 0.930 . S
C636 C637 1.367 . S
C636 C644 1.378 . S
C637 C636 1.367 . S
C637 C645 1.433 . S
C638 H634 0.929 . S
C638 C640 1.378 . S
C638 C642 1.350 . S
C639 C642 1.463 . S
C639 C644 1.350 . S
C639 N647 1.427 . S
C640 H631 0.930 . S
C640 C638 1.378 . S
C640 C641 1.367 . S
C641 C640 1.367 . S
C641 C643 1.433 . S
C642 C638 1.350 . S
C642 C639 1.463 . S
C642 N646 1.427 . S
C643 H633 0.929 . S
C643 C641 1.433 . S
C643 N646 1.384 . S
C644 H635 0.929 . S
C644 C636 1.378 . S
C644 C639 1.350 . S
C645 H632 0.929 . S
C645 C637 1.433 . S
C645 N647 1.384 . S
N646 C642 1.427 . S
N646 C643 1.384 . S
N647 C639 1.427 . S
N647 C645 1.384 . S
H648 C654 0.930 . S
H649 C658 0.930 . S
H650 C663 0.929 . S
H651 C661 0.929 . S
H652 C656 0.929 . S
H653 C662 0.929 . S
C654 H648 0.930 . S
C654 C655 1.367 . S
C654 C662 1.378 . S
C655 C654 1.367 . S
C655 C663 1.433 . S
C656 H652 0.929 . S
C656 C658 1.378 . S
C656 C660 1.350 . S
C657 C660 1.463 . S
C657 C662 1.350 . S
C657 N665 1.427 . S
C658 H649 0.930 . S
C658 C656 1.378 . S
C658 C659 1.367 . S
C659 C658 1.367 . S
C659 C661 1.433 . S
C660 C656 1.350 . S
C660 C657 1.463 . S
C660 N664 1.427 . S
C661 H651 0.929 . S
C661 C659 1.433 . S
C661 N664 1.384 . S
C662 H653 0.929 . S
C662 C654 1.378 . S
C662 C657 1.350 . S
C663 H650 0.929 . S
C663 C655 1.433 . S
C663 N665 1.384 . S
N664 C660 1.427 . S
N664 C661 1.384 . S
N665 C657 1.427 . S
N665 C663 1.384 . S
H666 C672 0.930 . S
H667 C676 0.930 . S
H668 C681 0.929 . S
H669 C679 0.929 . S
H670 C674 0.929 . S
H671 C680 0.929 . S
C672 H666 0.930 . S
C672 C673 1.367 . S
C672 C680 1.378 . S
C673 C672 1.367 . S
C673 C681 1.433 . S
C674 H670 0.929 . S
C674 C676 1.378 . S
C674 C678 1.350 . S
C675 C678 1.463 . S
C675 C680 1.350 . S
C675 N683 1.427 . S
C676 H667 0.930 . S
C676 C674 1.378 . S
C676 C677 1.367 . S
C677 C676 1.367 . S
C677 C679 1.433 . S
C678 C674 1.350 . S
C678 C675 1.463 . S
C678 N682 1.427 . S
C679 H669 0.929 . S
C679 C677 1.433 . S
C679 N682 1.384 . S
C680 H671 0.929 . S
C680 C672 1.378 . S
C680 C675 1.350 . S
C681 H668 0.929 . S
C681 C673 1.433 . S
C681 N683 1.384 . S
N682 C678 1.427 . S
N682 C679 1.384 . S
N683 C675 1.427 . S
N683 C681 1.384 . S
H684 C690 0.930 . S
H685 C694 0.930 . S
H686 C699 0.929 . S
H687 C697 0.929 . S
H688 C692 0.929 . S
H689 C698 0.929 . S
C690 H684 0.930 . S
C690 C691 1.367 . S
C690 C698 1.378 . S
C691 C690 1.367 . S
C691 C699 1.433 . S
C692 H688 0.929 . S
C692 C694 1.378 . S
C692 C696 1.350 . S
C693 C696 1.463 . S
C693 C698 1.350 . S
C693 N701 1.427 . S
C694 H685 0.930 . S
C694 C692 1.378 . S
C694 C695 1.367 . S
C695 C694 1.367 . S
C695 C697 1.433 . S
C696 C692 1.350 . S
C696 C693 1.463 . S
C696 N700 1.427 . S
C697 H687 0.929 . S
C697 C695 1.433 . S
C697 N700 1.384 . S
C698 H689 0.929 . S
C698 C690 1.378 . S
C698 C693 1.350 . S
C699 H686 0.929 . S
C699 C691 1.433 . S
C699 N701 1.384 . S
N700 C696 1.427 . S
N700 C697 1.384 . S
N701 C693 1.427 . S
N701 C699 1.384 . S
H702 C708 0.930 . S
H703 C712 0.930 . S
H704 C717 0.929 . S
H705 C715 0.929 . S
H706 C710 0.929 . S
H707 C716 0.929 . S
C708 H702 0.930 . S
C708 C709 1.367 . S
C708 C716 1.378 . S
C709 C708 1.367 . S
C709 C717 1.433 . S
C710 H706 0.929 . S
C710 C712 1.378 . S
C710 C714 1.350 . S
C711 C714 1.463 . S
C711 C716 1.350 . S
C711 N719 1.427 . S
C712 H703 0.930 . S
C712 C710 1.378 . S
C712 C713 1.367 . S
C713 C712 1.367 . S
C713 C715 1.433 . S
C714 C710 1.350 . S
C714 C711 1.463 . S
C714 N718 1.427 . S
C715 H705 0.929 . S
C715 C713 1.433 . S
C715 N718 1.384 . S
C716 H707 0.929 . S
C716 C708 1.378 . S
C716 C711 1.350 . S
C717 H704 0.929 . S
C717 C709 1.433 . S
C717 N719 1.384 . S
N718 C714 1.427 . S
N718 C715 1.384 . S
N719 C711 1.427 . S
N719 C717 1.384 . S
H720 C726 0.930 . S
H721 C730 0.930 . S
H722 C735 0.929 . S
H723 C733 0.929 . S
H724 C728 0.929 . S
H725 C734 0.929 . S
C726 H720 0.930 . S
C726 C727 1.367 . S
C726 C734 1.378 . S
C727 C726 1.367 . S
C727 C735 1.433 . S
C728 H724 0.929 . S
C728 C730 1.378 . S
C728 C732 1.350 . S
C729 C732 1.463 1_556 S
C729 C734 1.350 . S
C729 N737 1.427 . S
C730 H721 0.930 . S
C730 C728 1.378 . S
C730 C731 1.367 . S
C731 C730 1.367 . S
C731 C733 1.433 . S
C732 C728 1.350 . S
C732 C729 1.463 1_554 S
C732 N736 1.427 . S
C733 H723 0.929 . S
C733 C731 1.433 . S
C733 N736 1.384 . S
C734 H725 0.929 . S
C734 C726 1.378 . S
C734 C729 1.350 . S
C735 H722 0.929 . S
C735 C727 1.433 . S
C735 N737 1.384 . S
N736 C732 1.427 . S
N736 C733 1.384 . S
N737 C729 1.427 . S
N737 C735 1.384 . S
H738 C744 0.930 . S
H739 C748 0.930 . S
H740 C753 0.929 . S
H741 C751 0.929 . S
H742 C746 0.929 . S
H743 C752 0.929 . S
C744 H738 0.930 . S
C744 C745 1.367 . S
C744 C752 1.378 . S
C745 C744 1.367 . S
C745 C753 1.433 . S
C746 H742 0.929 . S
C746 C748 1.378 . S
C746 C750 1.350 . S
C747 C750 1.463 1_556 S
C747 C752 1.350 . S
C747 N755 1.427 . S
C748 H739 0.930 . S
C748 C746 1.378 . S
C748 C749 1.367 . S
C749 C748 1.367 . S
C749 C751 1.433 . S
C750 C746 1.350 . S
C750 C747 1.463 1_554 S
C750 N754 1.427 . S
C751 H741 0.929 . S
C751 C749 1.433 . S
C751 N754 1.384 . S
C752 H743 0.929 . S
C752 C744 1.378 . S
C752 C747 1.350 . S
C753 H740 0.929 . S
C753 C745 1.433 . S
C753 N755 1.384 . S
N754 C750 1.427 . S
N754 C751 1.384 . S
N755 C747 1.427 . S
N755 C753 1.384 . S
H756 C762 0.930 . S
H757 C766 0.930 . S
H758 C771 0.929 . S
H759 C769 0.929 . S
H760 C764 0.929 . S
H761 C770 0.929 . S
C762 H756 0.930 . S
C762 C763 1.367 . S
C762 C770 1.378 . S
C763 C762 1.367 . S
C763 C771 1.433 . S
C764 H760 0.929 . S
C764 C766 1.378 . S
C764 C768 1.350 . S
C765 C768 1.463 1_556 S
C765 C770 1.350 . S
C765 N773 1.427 . S
C766 H757 0.930 . S
C766 C764 1.378 . S
C766 C767 1.367 . S
C767 C766 1.367 . S
C767 C769 1.433 . S
C768 C764 1.350 . S
C768 C765 1.463 1_554 S
C768 N772 1.427 . S
C769 H759 0.929 . S
C769 C767 1.433 . S
C769 N772 1.384 . S
C770 H761 0.929 . S
C770 C762 1.378 . S
C770 C765 1.350 . S
C771 H758 0.929 . S
C771 C763 1.433 . S
C771 N773 1.384 . S
N772 C768 1.427 . S
N772 C769 1.384 . S
N773 C765 1.427 . S
N773 C771 1.384 . S
H774 C780 0.930 . S
H775 C784 0.930 . S
H776 C789 0.929 . S
H777 C787 0.929 . S
H778 C782 0.929 . S
H779 C788 0.929 . S
C780 H774 0.930 . S
C780 C781 1.367 . S
C780 C788 1.378 . S
C781 C780 1.367 . S
C781 C789 1.433 . S
C782 H778 0.929 . S
C782 C784 1.378 . S
C782 C786 1.350 . S
C783 C786 1.463 1_554 S
C783 C788 1.350 . S
C783 N791 1.427 . S
C784 H775 0.930 . S
C784 C782 1.378 . S
C784 C785 1.367 . S
C785 C784 1.367 . S
C785 C787 1.433 . S
C786 C782 1.350 . S
C786 C783 1.463 1_556 S
C786 N790 1.427 . S
C787 H777 0.929 . S
C787 C785 1.433 . S
C787 N790 1.384 . S
C788 H779 0.929 . S
C788 C780 1.378 . S
C788 C783 1.350 . S
C789 H776 0.929 . S
C789 C781 1.433 . S
C789 N791 1.384 . S
N790 C786 1.427 . S
N790 C787 1.384 . S
N791 C783 1.427 . S
N791 C789 1.384 . S
H792 C798 0.930 . S
H793 C802 0.930 . S
H794 C807 0.929 . S
H795 C805 0.929 . S
H796 C800 0.929 . S
H797 C806 0.929 . S
C798 H792 0.930 . S
C798 C799 1.367 . S
C798 C806 1.378 . S
C799 C798 1.367 . S
C799 C807 1.433 . S
C800 H796 0.929 . S
C800 C802 1.378 . S
C800 C804 1.350 . S
C801 C804 1.463 . S
C801 C806 1.350 . S
C801 N809 1.427 . S
C802 H793 0.930 . S
C802 C800 1.378 . S
C802 C803 1.367 . S
C803 C802 1.367 . S
C803 C805 1.433 . S
C804 C800 1.350 . S
C804 C801 1.463 . S
C804 N808 1.427 . S
C805 H795 0.929 . S
C805 C803 1.433 . S
C805 N808 1.384 . S
C806 H797 0.929 . S
C806 C798 1.378 . S
C806 C801 1.350 . S
C807 H794 0.929 . S
C807 C799 1.433 . S
C807 N809 1.384 . S
N808 C804 1.427 . S
N808 C805 1.384 . S
N809 C801 1.427 . S
N809 C807 1.384 . S
H810 C816 0.930 . S
H811 C820 0.930 . S
H812 C825 0.929 . S
H813 C823 0.929 . S
H814 C818 0.929 . S
H815 C824 0.929 . S
C816 H810 0.930 . S
C816 C817 1.367 . S
C816 C824 1.378 . S
C817 C816 1.367 . S
C817 C825 1.433 . S
C818 H814 0.929 . S
C818 C820 1.378 . S
C818 C822 1.350 . S
C819 C822 1.463 . S
C819 C824 1.350 . S
C819 N827 1.427 . S
C820 H811 0.930 . S
C820 C818 1.378 . S
C820 C821 1.367 . S
C821 C820 1.367 . S
C821 C823 1.433 . S
C822 C818 1.350 . S
C822 C819 1.463 . S
C822 N826 1.427 . S
C823 H813 0.929 . S
C823 C821 1.433 . S
C823 N826 1.384 . S
C824 H815 0.929 . S
C824 C816 1.378 . S
C824 C819 1.350 . S
C825 H812 0.929 . S
C825 C817 1.433 . S
C825 N827 1.384 . S
N826 C822 1.427 . S
N826 C823 1.384 . S
N827 C819 1.427 . S
N827 C825 1.384 . S
H828 C834 0.930 . S
H829 C838 0.930 . S
H830 C843 0.929 . S
H831 C841 0.929 . S
H832 C836 0.929 . S
H833 C842 0.929 . S
C834 H828 0.930 . S
C834 C835 1.367 . S
C834 C842 1.378 . S
C835 C834 1.367 . S
C835 C843 1.433 . S
C836 H832 0.929 . S
C836 C838 1.378 . S
C836 C840 1.350 . S
C837 C840 1.463 . S
C837 C842 1.350 . S
C837 N845 1.427 . S
C838 H829 0.930 . S
C838 C836 1.378 . S
C838 C839 1.367 . S
C839 C838 1.367 . S
C839 C841 1.433 . S
C840 C836 1.350 . S
C840 C837 1.463 . S
C840 N844 1.427 . S
C841 H831 0.929 . S
C841 C839 1.433 . S
C841 N844 1.384 . S
C842 H833 0.929 . S
C842 C834 1.378 . S
C842 C837 1.350 . S
C843 H830 0.929 . S
C843 C835 1.433 . S
C843 N845 1.384 . S
N844 C840 1.427 . S
N844 C841 1.384 . S
N845 C837 1.427 . S
N845 C843 1.384 . S
H846 C852 0.930 . S
H847 C856 0.930 . S
H848 C861 0.929 . S
H849 C859 0.929 . S
H850 C854 0.929 . S
H851 C860 0.929 . S
C852 H846 0.930 . S
C852 C853 1.367 . S
C852 C860 1.378 . S
C853 C852 1.367 . S
C853 C861 1.433 . S
C854 H850 0.929 . S
C854 C856 1.378 . S
C854 C858 1.350 . S
C855 C858 1.463 . S
C855 C860 1.350 . S
C855 N863 1.427 . S
C856 H847 0.930 . S
C856 C854 1.378 . S
C856 C857 1.367 . S
C857 C856 1.367 . S
C857 C859 1.433 . S
C858 C854 1.350 . S
C858 C855 1.463 . S
C858 N862 1.427 . S
C859 H849 0.929 . S
C859 C857 1.433 . S
C859 N862 1.384 . S
C860 H851 0.929 . S
C860 C852 1.378 . S
C860 C855 1.350 . S
C861 H848 0.929 . S
C861 C853 1.433 . S
C861 N863 1.384 . S
N862 C858 1.427 . S
N862 C859 1.384 . S
N863 C855 1.427 . S
N863 C861 1.384 . S
H864 C870 0.930 . S
H865 C874 0.930 . S
H866 C879 0.929 . S
H867 C877 0.929 . S
H868 C872 0.929 . S
H869 C878 0.929 . S
C870 H864 0.930 . S
C870 C871 1.367 . S
C870 C878 1.378 . S
C871 C870 1.367 . S
C871 C879 1.433 . S
C872 H868 0.929 . S
C872 C874 1.378 . S
C872 C876 1.350 . S
C873 C876 1.463 . S
C873 C878 1.350 . S
C873 N881 1.427 . S
C874 H865 0.930 . S
C874 C872 1.378 . S
C874 C875 1.367 . S
C875 C874 1.367 . S
C875 C877 1.433 . S
C876 C872 1.350 . S
C876 C873 1.463 . S
C876 N880 1.427 . S
C877 H867 0.929 . S
C877 C875 1.433 . S
C877 N880 1.384 . S
C878 H869 0.929 . S
C878 C870 1.378 . S
C878 C873 1.350 . S
C879 H866 0.929 . S
C879 C871 1.433 . S
C879 N881 1.384 . S
N880 C876 1.427 . S
N880 C877 1.384 . S
N881 C873 1.427 . S
N881 C879 1.384 . S
H882 C888 0.930 . S
H883 C892 0.930 . S
H884 C897 0.929 . S
H885 C895 0.929 . S
H886 C890 0.929 . S
H887 C896 0.929 . S
C888 H882 0.930 . S
C888 C889 1.367 . S
C888 C896 1.378 . S
C889 C888 1.367 . S
C889 C897 1.433 . S
C890 H886 0.929 . S
C890 C892 1.378 . S
C890 C894 1.350 . S
C891 C894 1.463 . S
C891 C896 1.350 . S
C891 N899 1.427 . S
C892 H883 0.930 . S
C892 C890 1.378 . S
C892 C893 1.367 . S
C893 C892 1.367 . S
C893 C895 1.433 . S
C894 C890 1.350 . S
C894 C891 1.463 . S
C894 N898 1.427 . S
C895 H885 0.929 . S
C895 C893 1.433 . S
C895 N898 1.384 . S
C896 H887 0.929 . S
C896 C888 1.378 . S
C896 C891 1.350 . S
C897 H884 0.929 . S
C897 C889 1.433 . S
C897 N899 1.384 . S
N898 C894 1.427 . S
N898 C895 1.384 . S
N899 C891 1.427 . S
N899 C897 1.384 . S
H900 C906 0.930 . S
H901 C910 0.930 . S
H902 C915 0.929 . S
H903 C913 0.929 . S
H904 C908 0.929 . S
H905 C914 0.929 . S
C906 H900 0.930 . S
C906 C907 1.367 . S
C906 C914 1.378 . S
C907 C906 1.367 . S
C907 C915 1.433 . S
C908 H904 0.929 . S
C908 C910 1.378 . S
C908 C912 1.350 . S
C909 C912 1.463 . S
C909 C914 1.350 . S
C909 N917 1.427 . S
C910 H901 0.930 . S
C910 C908 1.378 . S
C910 C911 1.367 . S
C911 C910 1.367 . S
C911 C913 1.433 . S
C912 C908 1.350 . S
C912 C909 1.463 . S
C912 N916 1.427 . S
C913 H903 0.929 . S
C913 C911 1.433 . S
C913 N916 1.384 . S
C914 H905 0.929 . S
C914 C906 1.378 . S
C914 C909 1.350 . S
C915 H902 0.929 . S
C915 C907 1.433 . S
C915 N917 1.384 . S
N916 C912 1.427 . S
N916 C913 1.384 . S
N917 C909 1.427 . S
N917 C915 1.384 . S
H918 C924 0.930 . S
H919 C928 0.930 . S
H920 C933 0.929 . S
H921 C931 0.929 . S
H922 C926 0.929 . S
H923 C932 0.929 . S
C924 H918 0.930 . S
C924 C925 1.367 . S
C924 C932 1.378 . S
C925 C924 1.367 . S
C925 C933 1.433 . S
C926 H922 0.929 . S
C926 C928 1.378 . S
C926 C930 1.350 . S
C927 C930 1.463 . S
C927 C932 1.350 . S
C927 N935 1.427 . S
C928 H919 0.930 . S
C928 C926 1.378 . S
C928 C929 1.367 . S
C929 C928 1.367 . S
C929 C931 1.433 . S
C930 C926 1.350 . S
C930 C927 1.463 . S
C930 N934 1.427 . S
C931 H921 0.929 . S
C931 C929 1.433 . S
C931 N934 1.384 . S
C932 H923 0.929 . S
C932 C924 1.378 . S
C932 C927 1.350 . S
C933 H920 0.929 . S
C933 C925 1.433 . S
C933 N935 1.384 . S
N934 C930 1.427 . S
N934 C931 1.384 . S
N935 C927 1.427 . S
N935 C933 1.384 . S
H936 C942 0.930 . S
H937 C946 0.930 . S
H938 C951 0.929 . S
H939 C949 0.929 . S
H940 C944 0.929 . S
H941 C950 0.929 . S
C942 H936 0.930 . S
C942 C943 1.367 . S
C942 C950 1.378 . S
C943 C942 1.367 . S
C943 C951 1.433 . S
C944 H940 0.929 . S
C944 C946 1.378 . S
C944 C948 1.350 . S
C945 C948 1.463 . S
C945 C950 1.350 . S
C945 N953 1.427 . S
C946 H937 0.930 . S
C946 C944 1.378 . S
C946 C947 1.367 . S
C947 C946 1.367 . S
C947 C949 1.433 . S
C948 C944 1.350 . S
C948 C945 1.463 . S
C948 N952 1.427 . S
C949 H939 0.929 . S
C949 C947 1.433 . S
C949 N952 1.384 . S
C950 H941 0.929 . S
C950 C942 1.378 . S
C950 C945 1.350 . S
C951 H938 0.929 . S
C951 C943 1.433 . S
C951 N953 1.384 . S
N952 C948 1.427 . S
N952 C949 1.384 . S
N953 C945 1.427 . S
N953 C951 1.384 . S
H954 C960 0.930 . S
H955 C964 0.930 . S
H956 C969 0.929 . S
H957 C967 0.929 . S
H958 C962 0.929 . S
H959 C968 0.929 . S
C960 H954 0.930 . S
C960 C961 1.367 . S
C960 C968 1.378 . S
C961 C960 1.367 . S
C961 C969 1.433 . S
C962 H958 0.929 . S
C962 C964 1.378 . S
C962 C966 1.350 . S
C963 C966 1.463 . S
C963 C968 1.350 . S
C963 N971 1.427 . S
C964 H955 0.930 . S
C964 C962 1.378 . S
C964 C965 1.367 . S
C965 C964 1.367 . S
C965 C967 1.433 . S
C966 C962 1.350 . S
C966 C963 1.463 . S
C966 N970 1.427 . S
C967 H957 0.929 . S
C967 C965 1.433 . S
C967 N970 1.384 . S
C968 H959 0.929 . S
C968 C960 1.378 . S
C968 C963 1.350 . S
C969 H956 0.929 . S
C969 C961 1.433 . S
C969 N971 1.384 . S
N970 C966 1.427 . S
N970 C967 1.384 . S
N971 C963 1.427 . S
N971 C969 1.384 . S
H972 C978 0.930 . S
H973 C982 0.930 . S
H974 C987 0.929 . S
H975 C985 0.929 . S
H976 C980 0.929 . S
H977 C986 0.929 . S
C978 H972 0.930 . S
C978 C979 1.367 . S
C978 C986 1.378 . S
C979 C978 1.367 . S
C979 C987 1.433 . S
C980 H976 0.929 . S
C980 C982 1.378 . S
C980 C984 1.350 . S
C981 C984 1.463 . S
C981 C986 1.350 . S
C981 N989 1.427 . S
C982 H973 0.930 . S
C982 C980 1.378 . S
C982 C983 1.367 . S
C983 C982 1.367 . S
C983 C985 1.433 . S
C984 C980 1.350 . S
C984 C981 1.463 . S
C984 N988 1.427 . S
C985 H975 0.929 . S
C985 C983 1.433 . S
C985 N988 1.384 . S
C986 H977 0.929 . S
C986 C978 1.378 . S
C986 C981 1.350 . S
C987 H974 0.929 . S
C987 C979 1.433 . S
C987 N989 1.384 . S
N988 C984 1.427 . S
N988 C985 1.384 . S
N989 C981 1.427 . S
N989 C987 1.384 . S
H990 C996 0.930 . S
H991 C1000 0.930 . S
H992 C1005 0.929 . S
H993 C1003 0.929 . S
H994 C998 0.929 . S
H995 C1004 0.929 . S
C996 H990 0.930 . S
C996 C997 1.367 . S
C996 C1004 1.378 . S
C997 C996 1.367 . S
C997 C1005 1.433 . S
C998 H994 0.929 . S
C998 C1000 1.378 . S
C998 C1002 1.350 . S
C999 C1002 1.463 . S
C999 C1004 1.350 . S
C999 N1007 1.427 . S
C1000 H991 0.930 . S
C1000 C998 1.378 . S
C1000 C1001 1.367 . S
C1001 C1000 1.367 . S
C1001 C1003 1.433 . S
C1002 C998 1.350 . S
C1002 C999 1.463 . S
C1002 N1006 1.427 . S
C1003 H993 0.929 . S
C1003 C1001 1.433 . S
C1003 N1006 1.384 . S
C1004 H995 0.929 . S
C1004 C996 1.378 . S
C1004 C999 1.350 . S
C1005 H992 0.929 . S
C1005 C997 1.433 . S
C1005 N1007 1.384 . S
N1006 C1002 1.427 . S
N1006 C1003 1.384 . S
N1007 C999 1.427 . S
N1007 C1005 1.384 . S
H1008 C1014 0.930 . S
H1009 C1018 0.930 . S
H1010 C1023 0.929 . S
H1011 C1021 0.929 . S
H1012 C1016 0.929 . S
H1013 C1022 0.929 . S
C1014 H1008 0.930 . S
C1014 C1015 1.367 . S
C1014 C1022 1.378 . S
C1015 C1014 1.367 . S
C1015 C1023 1.433 . S
C1016 H1012 0.929 . S
C1016 C1018 1.378 . S
C1016 C1020 1.350 . S
C1017 C1020 1.463 1_545 S
C1017 C1022 1.350 . S
C1017 N1025 1.427 . S
C1018 H1009 0.930 . S
C1018 C1016 1.378 . S
C1018 C1019 1.367 . S
C1019 C1018 1.367 . S
C1019 C1021 1.433 . S
C1020 C1016 1.350 . S
C1020 C1017 1.463 1_565 S
C1020 N1024 1.427 . S
C1021 H1011 0.929 . S
C1021 C1019 1.433 . S
C1021 N1024 1.384 . S
C1022 H1013 0.929 . S
C1022 C1014 1.378 . S
C1022 C1017 1.350 . S
C1023 H1010 0.929 . S
C1023 C1015 1.433 . S
C1023 N1025 1.384 . S
N1024 C1020 1.427 . S
N1024 C1021 1.384 . S
N1025 C1017 1.427 . S
N1025 C1023 1.384 . S
H1026 C1032 0.930 . S
H1027 C1036 0.930 . S
H1028 C1041 0.929 . S
H1029 C1039 0.929 . S
H1030 C1034 0.929 . S
H1031 C1040 0.929 . S
C1032 H1026 0.930 . S
C1032 C1033 1.367 . S
C1032 C1040 1.378 . S
C1033 C1032 1.367 . S
C1033 C1041 1.433 . S
C1034 H1030 0.929 . S
C1034 C1036 1.378 . S
C1034 C1038 1.350 . S
C1035 C1038 1.463 1_655 S
C1035 C1040 1.350 . S
C1035 N1043 1.427 . S
C1036 H1027 0.930 . S
C1036 C1034 1.378 . S
C1036 C1037 1.367 . S
C1037 C1036 1.367 . S
C1037 C1039 1.433 . S
C1038 C1034 1.350 . S
C1038 C1035 1.463 1_455 S
C1038 N1042 1.427 . S
C1039 H1029 0.929 . S
C1039 C1037 1.433 . S
C1039 N1042 1.384 . S
C1040 H1031 0.929 . S
C1040 C1032 1.378 . S
C1040 C1035 1.350 . S
C1041 H1028 0.929 . S
C1041 C1033 1.433 . S
C1041 N1043 1.384 . S
N1042 C1038 1.427 . S
N1042 C1039 1.384 . S
N1043 C1035 1.427 . S
N1043 C1041 1.384 . S
H1044 C1050 0.930 . S
H1045 C1054 0.930 . S
H1046 C1059 0.929 . S
H1047 C1057 0.929 . S
H1048 C1052 0.929 . S
H1049 C1058 0.929 . S
C1050 H1044 0.930 . S
C1050 C1051 1.367 . S
C1050 C1058 1.378 . S
C1051 C1050 1.367 . S
C1051 C1059 1.433 . S
C1052 H1048 0.929 . S
C1052 C1054 1.378 . S
C1052 C1056 1.350 . S
C1053 C1056 1.463 1_545 S
C1053 C1058 1.350 . S
C1053 N1061 1.427 . S
C1054 H1045 0.930 . S
C1054 C1052 1.378 . S
C1054 C1055 1.367 . S
C1055 C1054 1.367 . S
C1055 C1057 1.433 . S
C1056 C1052 1.350 . S
C1056 C1053 1.463 1_565 S
C1056 N1060 1.427 . S
C1057 H1047 0.929 . S
C1057 C1055 1.433 . S
C1057 N1060 1.384 . S
C1058 H1049 0.929 . S
C1058 C1050 1.378 . S
C1058 C1053 1.350 . S
C1059 H1046 0.929 . S
C1059 C1051 1.433 . S
C1059 N1061 1.384 . S
N1060 C1056 1.427 . S
N1060 C1057 1.384 . S
N1061 C1053 1.427 . S
N1061 C1059 1.384 . S
H1062 C1068 0.930 . S
H1063 C1072 0.930 . S
H1064 C1077 0.929 . S
H1065 C1075 0.929 . S
H1066 C1070 0.929 . S
H1067 C1076 0.929 . S
C1068 H1062 0.930 . S
C1068 C1069 1.367 . S
C1068 C1076 1.378 . S
C1069 C1068 1.367 . S
C1069 C1077 1.433 . S
C1070 H1066 0.929 . S
C1070 C1072 1.378 . S
C1070 C1074 1.350 . S
C1071 C1074 1.463 1_455 S
C1071 C1076 1.350 . S
C1071 N1079 1.427 . S
C1072 H1063 0.930 . S
C1072 C1070 1.378 . S
C1072 C1073 1.367 . S
C1073 C1072 1.367 . S
C1073 C1075 1.433 . S
C1074 C1070 1.350 . S
C1074 C1071 1.463 1_655 S
C1074 N1078 1.427 . S
C1075 H1065 0.929 . S
C1075 C1073 1.433 . S
C1075 N1078 1.384 . S
C1076 H1067 0.929 . S
C1076 C1068 1.378 . S
C1076 C1071 1.350 . S
C1077 H1064 0.929 . S
C1077 C1069 1.433 . S
C1077 N1079 1.384 . S
N1078 C1074 1.427 . S
N1078 C1075 1.384 . S
N1079 C1071 1.427 . S
N1079 C1077 1.384 . S
H1080 C1086 0.930 . S
H1081 C1090 0.930 . S
H1082 C1095 0.929 . S
H1083 C1093 0.929 . S
H1084 C1088 0.929 . S
H1085 C1094 0.929 . S
C1086 H1080 0.930 . S
C1086 C1087 1.367 . S
C1086 C1094 1.378 . S
C1087 C1086 1.367 . S
C1087 C1095 1.433 . S
C1088 H1084 0.929 . S
C1088 C1090 1.378 . S
C1088 C1092 1.350 . S
C1089 C1092 1.463 1_545 S
C1089 C1094 1.350 . S
C1089 N1097 1.427 . S
C1090 H1081 0.930 . S
C1090 C1088 1.378 . S
C1090 C1091 1.367 . S
C1091 C1090 1.367 . S
C1091 C1093 1.433 . S
C1092 C1088 1.350 . S
C1092 C1089 1.463 1_565 S
C1092 N1096 1.427 . S
C1093 H1083 0.929 . S
C1093 C1091 1.433 . S
C1093 N1096 1.384 . S
C1094 H1085 0.929 . S
C1094 C1086 1.378 . S
C1094 C1089 1.350 . S
C1095 H1082 0.929 . S
C1095 C1087 1.433 . S
C1095 N1097 1.384 . S
N1096 C1092 1.427 . S
N1096 C1093 1.384 . S
N1097 C1089 1.427 . S
N1097 C1095 1.384 . S
H1098 C1104 0.930 . S
H1099 C1108 0.930 . S
H1100 C1113 0.929 . S
H1101 C1111 0.929 . S
H1102 C1106 0.929 . S
H1103 C1112 0.929 . S
C1104 H1098 0.930 . S
C1104 C1105 1.367 . S
C1104 C1112 1.378 . S
C1105 C1104 1.367 . S
C1105 C1113 1.433 . S
C1106 H1102 0.929 . S
C1106 C1108 1.378 . S
C1106 C1110 1.350 . S
C1107 C1110 1.463 1_655 S
C1107 C1112 1.350 . S
C1107 N1115 1.427 . S
C1108 H1099 0.930 . S
C1108 C1106 1.378 . S
C1108 C1109 1.367 . S
C1109 C1108 1.367 . S
C1109 C1111 1.433 . S
C1110 C1106 1.350 . S
C1110 C1107 1.463 1_455 S
C1110 N1114 1.427 . S
C1111 H1101 0.929 . S
C1111 C1109 1.433 . S
C1111 N1114 1.384 . S
C1112 H1103 0.929 . S
C1112 C1104 1.378 . S
C1112 C1107 1.350 . S
C1113 H1100 0.929 . S
C1113 C1105 1.433 . S
C1113 N1115 1.384 . S
N1114 C1110 1.427 . S
N1114 C1111 1.384 . S
N1115 C1107 1.427 . S
N1115 C1113 1.384 . S
H1116 C1122 0.930 . S
H1117 C1126 0.930 . S
H1118 C1131 0.929 . S
H1119 C1129 0.929 . S
H1120 C1124 0.929 . S
H1121 C1130 0.929 . S
C1122 H1116 0.930 . S
C1122 C1123 1.367 . S
C1122 C1130 1.378 . S
C1123 C1122 1.367 . S
C1123 C1131 1.433 . S
C1124 H1120 0.929 . S
C1124 C1126 1.378 . S
C1124 C1128 1.350 . S
C1125 C1128 1.463 1_565 S
C1125 C1130 1.350 . S
C1125 N1133 1.427 . S
C1126 H1117 0.930 . S
C1126 C1124 1.378 . S
C1126 C1127 1.367 . S
C1127 C1126 1.367 . S
C1127 C1129 1.433 . S
C1128 C1124 1.350 . S
C1128 C1125 1.463 1_545 S
C1128 N1132 1.427 . S
C1129 H1119 0.929 . S
C1129 C1127 1.433 . S
C1129 N1132 1.384 . S
C1130 H1121 0.929 . S
C1130 C1122 1.378 . S
C1130 C1125 1.350 . S
C1131 H1118 0.929 . S
C1131 C1123 1.433 . S
C1131 N1133 1.384 . S
N1132 C1128 1.427 . S
N1132 C1129 1.384 . S
N1133 C1125 1.427 . S
N1133 C1131 1.384 . S
H1134 C1140 0.930 . S
H1135 C1144 0.930 . S
H1136 C1149 0.929 . S
H1137 C1147 0.929 . S
H1138 C1142 0.929 . S
H1139 C1148 0.929 . S
C1140 H1134 0.930 . S
C1140 C1141 1.367 . S
C1140 C1148 1.378 . S
C1141 C1140 1.367 . S
C1141 C1149 1.433 . S
C1142 H1138 0.929 . S
C1142 C1144 1.378 . S
C1142 C1146 1.350 . S
C1143 C1146 1.463 1_455 S
C1143 C1148 1.350 . S
C1143 N1151 1.427 . S
C1144 H1135 0.930 . S
C1144 C1142 1.378 . S
C1144 C1145 1.367 . S
C1145 C1144 1.367 . S
C1145 C1147 1.433 . S
C1146 C1142 1.350 . S
C1146 C1143 1.463 1_655 S
C1146 N1150 1.427 . S
C1147 H1137 0.929 . S
C1147 C1145 1.433 . S
C1147 N1150 1.384 . S
C1148 H1139 0.929 . S
C1148 C1140 1.378 . S
C1148 C1143 1.350 . S
C1149 H1136 0.929 . S
C1149 C1141 1.433 . S
C1149 N1151 1.384 . S
N1150 C1146 1.427 . S
N1150 C1147 1.384 . S
N1151 C1143 1.427 . S
N1151 C1149 1.384 . S
C583 C184 1.396 . S
C587 C4 1.396 . S
C601 C220 1.396 . S
C605 C40 1.397 . S
C619 C76 1.397 . S
C623 C256 1.396 . S
C637 C112 1.395 . S
C641 C148 1.397 . S
C655 C472 1.395 . S
C659 C292 1.397 . S
C673 C508 1.396 . S
C677 C328 1.397 . S
C691 C364 1.397 . S
C695 C544 1.396 . S
C709 C400 1.395 . S
C713 C436 1.397 . S
C727 C374 1.488 . S
C731 C14 1.493 . S
C745 C410 1.496 . S
C749 C50 1.493 . S
C763 C302 1.492 . S
C767 C86 1.486 . S
C781 C122 1.486 . S
C785 C338 1.491 . S
C799 C518 1.486 . S
C803 C158 1.492 . S
C817 C554 1.485 . S
C821 C194 1.484 . S
C835 C230 1.494 . S
C839 C446 1.496 . S
C853 C482 1.484 . S
C857 C266 1.485 . S
C871 C146 1.075 . S
C875 C2 1.072 . S
C889 C38 1.079 . S
C893 C182 1.070 . S
C907 C74 1.076 . S
C911 C218 1.071 . S
C925 C254 1.072 . S
C929 C110 1.081 . S
C943 C291 1.736 . S
C947 C435 1.736 . S
C961 C471 1.735 . S
C965 C327 1.735 . S
C979 C363 1.735 . S
C983 C507 1.735 . S
C997 C543 1.734 . S
C1001 C399 1.735 . S
C1015 C398 1.077 . S
C1019 C470 1.070 . S
C1033 C290 1.077 . S
C1037 C506 1.078 . S
C1051 C542 1.074 . S
C1055 C326 1.072 . S
C1069 C362 1.080 . S
C1073 C434 1.075 . S
C1087 C183 1.736 . S
C1091 C111 1.736 . S
C1105 C219 1.736 . S
C1109 C3 1.736 . S
C1123 C255 1.736 . S
C1127 C39 1.736 . S
C1141 C147 1.736 . S
C1145 C75 1.736 . S
