# Generated by pormake.
# Topology vbc, (5)-cn, num edge types: 1
# Building blocks:
#     Node 0, Type 0, BuildingBlock: XOMCOT_clean_sbu_1, # of connection points: 5
#     Node 1, Type 0, BuildingBlock: XOMCOT_clean_sbu_1, # of connection points: 5
#     Node 2, Type 0, BuildingBlock: XOMCOT_clean_sbu_1, # of connection points: 5
#     Node 3, Type 0, BuildingBlock: XOMCOT_clean_sbu_1, # of connection points: 5
#     Node 4, Type 0, BuildingBlock: XOMCOT_clean_sbu_1, # of connection points: 5
#     Node 5, Type 0, BuildingBlock: XOMCOT_clean_sbu_1, # of connection points: 5
#     Node 6, Type 0, BuildingBlock: XOMCOT_clean_sbu_1, # of connection points: 5
#     Node 7, Type 0, BuildingBlock: XOMCOT_clean_sbu_1, # of connection points: 5
#     Node 8, Type 0, BuildingBlock: XOMCOT_clean_sbu_1, # of connection points: 5
#     Node 9, Type 0, BuildingBlock: XOMCOT_clean_sbu_1, # of connection points: 5
#     Node 10, Type 0, BuildingBlock: XOMCOT_clean_sbu_1, # of connection points: 5
#     Node 11, Type 0, BuildingBlock: XOMCOT_clean_sbu_1, # of connection points: 5
#     Node 12, Type 0, BuildingBlock: XOMCOT_clean_sbu_1, # of connection points: 5
#     Node 13, Type 0, BuildingBlock: XOMCOT_clean_sbu_1, # of connection points: 5
#     Node 14, Type 0, BuildingBlock: XOMCOT_clean_sbu_1, # of connection points: 5
#     Node 15, Type 0, BuildingBlock: XOMCOT_clean_sbu_1, # of connection points: 5
#     Node 16, Type 0, BuildingBlock: XOMCOT_clean_sbu_1, # of connection points: 5
#     Node 17, Type 0, BuildingBlock: XOMCOT_clean_sbu_1, # of connection points: 5
#     Node 18, Type 0, BuildingBlock: XOMCOT_clean_sbu_1, # of connection points: 5
#     Node 19, Type 0, BuildingBlock: XOMCOT_clean_sbu_1, # of connection points: 5
#     Node 20, Type 0, BuildingBlock: XOMCOT_clean_sbu_1, # of connection points: 5
#     Node 21, Type 0, BuildingBlock: XOMCOT_clean_sbu_1, # of connection points: 5
#     Node 22, Type 0, BuildingBlock: XOMCOT_clean_sbu_1, # of connection points: 5
#     Node 23, Type 0, BuildingBlock: XOMCOT_clean_sbu_1, # of connection points: 5
#     Node 24, Type 0, BuildingBlock: XOMCOT_clean_sbu_1, # of connection points: 5
#     Node 25, Type 0, BuildingBlock: XOMCOT_clean_sbu_1, # of connection points: 5
#     Node 26, Type 0, BuildingBlock: XOMCOT_clean_sbu_1, # of connection points: 5
#     Node 27, Type 0, BuildingBlock: XOMCOT_clean_sbu_1, # of connection points: 5
#     Node 28, Type 0, BuildingBlock: XOMCOT_clean_sbu_1, # of connection points: 5
#     Node 29, Type 0, BuildingBlock: XOMCOT_clean_sbu_1, # of connection points: 5
#     Node 30, Type 0, BuildingBlock: XOMCOT_clean_sbu_1, # of connection points: 5
#     Node 31, Type 0, BuildingBlock: XOMCOT_clean_sbu_1, # of connection points: 5
#     Edge 32, Type (0, 0), BuildingBlock: OJICUG_clean_linker_0, # of connection points: 2
#     Edge 33, Type (0, 0), BuildingBlock: OJICUG_clean_linker_0, # of connection points: 2
#     Edge 34, Type (0, 0), BuildingBlock: OJICUG_clean_linker_0, # of connection points: 2
#     Edge 35, Type (0, 0), BuildingBlock: OJICUG_clean_linker_0, # of connection points: 2
#     Edge 36, Type (0, 0), BuildingBlock: OJICUG_clean_linker_0, # of connection points: 2
#     Edge 37, Type (0, 0), BuildingBlock: OJICUG_clean_linker_0, # of connection points: 2
#     Edge 38, Type (0, 0), BuildingBlock: OJICUG_clean_linker_0, # of connection points: 2
#     Edge 39, Type (0, 0), BuildingBlock: OJICUG_clean_linker_0, # of connection points: 2
#     Edge 40, Type (0, 0), BuildingBlock: OJICUG_clean_linker_0, # of connection points: 2
#     Edge 41, Type (0, 0), BuildingBlock: OJICUG_clean_linker_0, # of connection points: 2
#     Edge 42, Type (0, 0), BuildingBlock: OJICUG_clean_linker_0, # of connection points: 2
#     Edge 43, Type (0, 0), BuildingBlock: OJICUG_clean_linker_0, # of connection points: 2
#     Edge 44, Type (0, 0), BuildingBlock: OJICUG_clean_linker_0, # of connection points: 2
#     Edge 45, Type (0, 0), BuildingBlock: OJICUG_clean_linker_0, # of connection points: 2
#     Edge 46, Type (0, 0), BuildingBlock: OJICUG_clean_linker_0, # of connection points: 2
#     Edge 47, Type (0, 0), BuildingBlock: OJICUG_clean_linker_0, # of connection points: 2
#     Edge 48, Type (0, 0), BuildingBlock: OJICUG_clean_linker_0, # of connection points: 2
#     Edge 49, Type (0, 0), BuildingBlock: OJICUG_clean_linker_0, # of connection points: 2
#     Edge 50, Type (0, 0), BuildingBlock: OJICUG_clean_linker_0, # of connection points: 2
#     Edge 51, Type (0, 0), BuildingBlock: OJICUG_clean_linker_0, # of connection points: 2
#     Edge 52, Type (0, 0), BuildingBlock: OJICUG_clean_linker_0, # of connection points: 2
#     Edge 53, Type (0, 0), BuildingBlock: OJICUG_clean_linker_0, # of connection points: 2
#     Edge 54, Type (0, 0), BuildingBlock: OJICUG_clean_linker_0, # of connection points: 2
#     Edge 55, Type (0, 0), BuildingBlock: OJICUG_clean_linker_0, # of connection points: 2
#     Edge 56, Type (0, 0), BuildingBlock: OJICUG_clean_linker_0, # of connection points: 2
#     Edge 57, Type (0, 0), BuildingBlock: OJICUG_clean_linker_0, # of connection points: 2
#     Edge 58, Type (0, 0), BuildingBlock: OJICUG_clean_linker_0, # of connection points: 2
#     Edge 59, Type (0, 0), BuildingBlock: OJICUG_clean_linker_0, # of connection points: 2
#     Edge 60, Type (0, 0), BuildingBlock: OJICUG_clean_linker_0, # of connection points: 2
#     Edge 61, Type (0, 0), BuildingBlock: OJICUG_clean_linker_0, # of connection points: 2
#     Edge 62, Type (0, 0), BuildingBlock: OJICUG_clean_linker_0, # of connection points: 2
#     Edge 63, Type (0, 0), BuildingBlock: OJICUG_clean_linker_0, # of connection points: 2
#     Edge 64, Type (0, 0), BuildingBlock: OJICUG_clean_linker_0, # of connection points: 2
#     Edge 65, Type (0, 0), BuildingBlock: OJICUG_clean_linker_0, # of connection points: 2
#     Edge 66, Type (0, 0), BuildingBlock: OJICUG_clean_linker_0, # of connection points: 2
#     Edge 67, Type (0, 0), BuildingBlock: OJICUG_clean_linker_0, # of connection points: 2
#     Edge 68, Type (0, 0), BuildingBlock: OJICUG_clean_linker_0, # of connection points: 2
#     Edge 69, Type (0, 0), BuildingBlock: OJICUG_clean_linker_0, # of connection points: 2
#     Edge 70, Type (0, 0), BuildingBlock: OJICUG_clean_linker_0, # of connection points: 2
#     Edge 71, Type (0, 0), BuildingBlock: OJICUG_clean_linker_0, # of connection points: 2
#     Edge 72, Type (0, 0), BuildingBlock: OJICUG_clean_linker_0, # of connection points: 2
#     Edge 73, Type (0, 0), BuildingBlock: OJICUG_clean_linker_0, # of connection points: 2
#     Edge 74, Type (0, 0), BuildingBlock: OJICUG_clean_linker_0, # of connection points: 2
#     Edge 75, Type (0, 0), BuildingBlock: OJICUG_clean_linker_0, # of connection points: 2
#     Edge 76, Type (0, 0), BuildingBlock: OJICUG_clean_linker_0, # of connection points: 2
#     Edge 77, Type (0, 0), BuildingBlock: OJICUG_clean_linker_0, # of connection points: 2
#     Edge 78, Type (0, 0), BuildingBlock: OJICUG_clean_linker_0, # of connection points: 2
#     Edge 79, Type (0, 0), BuildingBlock: OJICUG_clean_linker_0, # of connection points: 2
#     Edge 80, Type (0, 0), BuildingBlock: OJICUG_clean_linker_0, # of connection points: 2
#     Edge 81, Type (0, 0), BuildingBlock: OJICUG_clean_linker_0, # of connection points: 2
#     Edge 82, Type (0, 0), BuildingBlock: OJICUG_clean_linker_0, # of connection points: 2
#     Edge 83, Type (0, 0), BuildingBlock: OJICUG_clean_linker_0, # of connection points: 2
#     Edge 84, Type (0, 0), BuildingBlock: OJICUG_clean_linker_0, # of connection points: 2
#     Edge 85, Type (0, 0), BuildingBlock: OJICUG_clean_linker_0, # of connection points: 2
#     Edge 86, Type (0, 0), BuildingBlock: OJICUG_clean_linker_0, # of connection points: 2
#     Edge 87, Type (0, 0), BuildingBlock: OJICUG_clean_linker_0, # of connection points: 2
#     Edge 88, Type (0, 0), BuildingBlock: OJICUG_clean_linker_0, # of connection points: 2
#     Edge 89, Type (0, 0), BuildingBlock: OJICUG_clean_linker_0, # of connection points: 2
#     Edge 90, Type (0, 0), BuildingBlock: OJICUG_clean_linker_0, # of connection points: 2
#     Edge 91, Type (0, 0), BuildingBlock: OJICUG_clean_linker_0, # of connection points: 2
#     Edge 92, Type (0, 0), BuildingBlock: OJICUG_clean_linker_0, # of connection points: 2
#     Edge 93, Type (0, 0), BuildingBlock: OJICUG_clean_linker_0, # of connection points: 2
#     Edge 94, Type (0, 0), BuildingBlock: OJICUG_clean_linker_0, # of connection points: 2
#     Edge 95, Type (0, 0), BuildingBlock: OJICUG_clean_linker_0, # of connection points: 2
#     Edge 96, Type (0, 0), BuildingBlock: OJICUG_clean_linker_0, # of connection points: 2
#     Edge 97, Type (0, 0), BuildingBlock: OJICUG_clean_linker_0, # of connection points: 2
#     Edge 98, Type (0, 0), BuildingBlock: OJICUG_clean_linker_0, # of connection points: 2
#     Edge 99, Type (0, 0), BuildingBlock: OJICUG_clean_linker_0, # of connection points: 2
#     Edge 100, Type (0, 0), BuildingBlock: OJICUG_clean_linker_0, # of connection points: 2
#     Edge 101, Type (0, 0), BuildingBlock: OJICUG_clean_linker_0, # of connection points: 2
#     Edge 102, Type (0, 0), BuildingBlock: OJICUG_clean_linker_0, # of connection points: 2
#     Edge 103, Type (0, 0), BuildingBlock: OJICUG_clean_linker_0, # of connection points: 2
#     Edge 104, Type (0, 0), BuildingBlock: OJICUG_clean_linker_0, # of connection points: 2
#     Edge 105, Type (0, 0), BuildingBlock: OJICUG_clean_linker_0, # of connection points: 2
#     Edge 106, Type (0, 0), BuildingBlock: OJICUG_clean_linker_0, # of connection points: 2
#     Edge 107, Type (0, 0), BuildingBlock: OJICUG_clean_linker_0, # of connection points: 2
#     Edge 108, Type (0, 0), BuildingBlock: OJICUG_clean_linker_0, # of connection points: 2
#     Edge 109, Type (0, 0), BuildingBlock: OJICUG_clean_linker_0, # of connection points: 2
#     Edge 110, Type (0, 0), BuildingBlock: OJICUG_clean_linker_0, # of connection points: 2
#     Edge 111, Type (0, 0), BuildingBlock: OJICUG_clean_linker_0, # of connection points: 2
# Relax obj value: 0.138
# Max RMSD: 0.125
# Mean RMSD: 0.125
data_MOF--net-vbc--node1-XOMCOT_clean_sbu_1--edge1-OJICUG_clean_linker_0
_symmetry_space_group_name_H-M    P1
_symmetry_Int_Tables_number       1
_symmetry_cell_setting            triclinic
loop_
_symmetry_equiv_pos_as_xyz
'x, y, z'
_cell_length_a     30.430127
_cell_length_b     74.396387
_cell_length_c     30.345705
_cell_angle_alpha  89.871343
_cell_angle_beta   90.055818
_cell_angle_gamma 89.982773
loop_
_atom_site_label
_atom_site_type_symbol
_atom_site_fract_x
_atom_site_fract_y
_atom_site_fract_z
_atom_type_partial_charge
C0 C 0.13044 0.05182 0.51765 0.0
C1 C 0.09477 0.0473 0.54347 0.0
N2 N 0.08197 0.03054 0.53252 0.0
N3 N 0.13958 0.03794 0.49068 0.0
C4 C 0.1099 0.02521 0.5008 0.0
H5 H 0.14883 0.06425 0.5188 0.0
Co6 Co 0.1847 0.03446 0.45101 0.0
C7 C 0.13073 0.02418 0.36984 0.0
O8 O 0.15562 0.03559 0.34813 0.0
N9 N 0.23105 0.02989 0.41326 0.0
C10 C 0.28219 0.01193 0.38456 0.0
C11 C 0.23776 0.0158 0.38595 0.0
C12 C 0.27137 0.03414 0.42796 0.0
N13 N 0.30292 0.02359 0.41125 0.0
O14 O 0.20777 0.01386 0.48806 0.0
H15 H 0.21221 1.00722 0.37303 0.0
H16 H 0.27673 0.043 0.45571 0.0
O17 O 0.14076 0.02061 0.41061 0.0
C18 C 0.2295 0.02037 0.52133 0.0
O19 O 0.22609 0.03773 0.52848 0.0
N20 N 0.16972 0.05666 0.42167 0.0
C21 C 0.15406 0.09322 0.40316 0.0
C22 C 0.11897 0.08099 0.40721 0.0
C23 C 0.12751 0.06274 0.4163 0.0
C24 C 0.20378 0.06835 0.41521 0.0
C25 C 0.19675 0.08634 0.40498 0.0
H26 H 0.10009 0.05381 0.42225 0.0
H27 H 0.23711 0.06444 0.42084 0.0
H28 H 0.10997 0.01194 0.48628 0.0
H29 H 0.07962 0.05565 0.56835 0.0
H30 H 0.2974 1.00052 0.36859 0.0
H31 H 0.08525 0.08563 0.40618 0.0
H32 H 0.22504 0.09502 0.40096 0.0
C33 C 0.14736 0.21275 0.5216 0.0
C34 C 0.18282 0.21781 0.547 0.0
N35 N 0.19414 0.2347 0.53548 0.0
N36 N 0.13686 0.22644 0.49437 0.0
C37 C 0.16564 0.23958 0.50373 0.0
H38 H 0.12987 0.20012 0.52335 0.0
Co39 Co 0.09064 0.22878 0.45585 0.0
C40 C 0.14223 0.23902 0.37234 0.0
O41 O 0.11863 0.22683 0.35186 0.0
N42 N 0.04291 0.23181 0.41906 0.0
C43 C 0.98921 0.24609 0.38354 0.0
C44 C 0.03409 0.24349 0.38599 0.0
C45 C 1.00346 0.2278 0.43625 0.0
N46 N 0.97048 0.23639 0.41593 0.0
O47 O 0.06682 0.24974 0.49147 0.0
H48 H 0.05819 0.25149 0.36878 0.0
H49 H 0.99949 0.22017 0.46637 0.0
O50 O 0.1323 0.24282 0.41299 0.0
C51 C 0.04682 0.24374 0.5264 0.0
O52 O 0.05194 0.22662 0.53581 0.0
N53 N 0.1066 0.20652 0.42847 0.0
C54 C 0.12502 0.17057 0.40679 0.0
C55 C 0.15864 0.18355 0.40791 0.0
C56 C 0.14881 0.20143 0.41908 0.0
C57 C 0.07387 0.19396 0.42725 0.0
C58 C 0.08213 0.17616 0.41578 0.0
H59 H 0.17546 0.21095 0.42237 0.0
H60 H 0.04125 0.19718 0.43805 0.0
H61 H 0.16444 0.25279 0.48877 0.0
H62 H 0.19875 0.20976 0.57211 0.0
H63 H 0.97231 0.25583 0.3631 0.0
H64 H 0.19246 0.17981 0.4017 0.0
H65 H 0.05534 0.16659 0.41702 0.0
C66 C 0.12463 0.21345 0.87875 0.0
C67 C 0.08919 0.21847 0.85323 0.0
N68 N 0.07767 0.23534 0.86459 0.0
N69 N 0.13491 0.22714 0.90591 0.0
C70 C 0.10603 0.24024 0.89638 0.0
H71 H 0.14225 0.20084 0.87716 0.0
Co72 Co 0.181 0.22951 0.94458 0.0
C73 C 0.12935 0.23965 1.02784 0.0
O74 O 0.15318 0.22748 1.04831 0.0
N75 N 0.22859 0.23259 0.98147 0.0
C76 C 0.28213 0.24705 1.01658 0.0
C77 C 0.23728 0.24439 1.01417 0.0
C78 C 0.2681 0.22855 0.96448 0.0
N79 N 0.30098 0.23726 0.98453 0.0
O80 O 0.20491 0.25041 0.9086 0.0
H81 H 0.21309 0.25245 1.03106 0.0
H82 H 0.27215 0.22083 0.93459 0.0
O83 O 0.13919 0.24355 0.98717 0.0
C84 C 0.22494 0.24428 0.87387 0.0
O85 O 0.21985 0.22712 0.86504 0.0
N86 N 0.16492 0.20731 0.97229 0.0
C87 C 0.14599 0.17134 0.99332 0.0
C88 C 0.1124 0.18432 0.99159 0.0
C89 C 0.12252 0.20223 0.98089 0.0
C90 C 0.19766 0.19476 0.97447 0.0
C91 C 0.18912 0.17694 0.98568 0.0
H92 H 0.09595 0.21176 0.97707 0.0
H93 H 0.23055 0.19798 0.96452 0.0
H94 H 0.10706 0.25344 0.91124 0.0
H95 H 0.07341 0.21041 0.82814 0.0
H96 H 0.2989 0.25691 1.03668 0.0
H97 H 0.07843 0.18054 0.99678 0.0
H98 H 0.21591 0.16735 0.98508 0.0
C99 C 0.14873 0.0519 0.87863 0.0
C100 C 0.18412 0.04695 0.85302 0.0
N101 N 0.1949 0.02987 0.86332 0.0
N102 N 0.13802 0.03803 0.90516 0.0
C103 C 0.16648 0.02486 0.89499 0.0
H104 H 0.13123 0.06455 0.87724 0.0
Co105 Co 0.09137 0.03502 0.94309 0.0
C106 C 0.14335 0.02556 1.02671 0.0
O107 O 0.11947 0.03779 1.0467 0.0
N108 N 0.04338 0.0311 0.97916 0.0
C109 C 0.99081 0.01662 1.01578 0.0
C110 C 0.03545 0.01986 1.01334 0.0
C111 C 1.00366 0.03415 0.96127 0.0
N112 N 0.97137 0.02544 0.98229 0.0
O113 O 0.06975 0.01397 0.90681 0.0
H114 H 0.06017 0.01269 1.03188 0.0
H115 H 0.99906 0.04156 0.9309 0.0
O116 O 0.13354 0.02145 0.98621 0.0
C117 C 0.04995 0.02013 0.8719 0.0
O118 O 0.05461 0.03733 0.86326 0.0
N119 N 0.10493 0.05747 0.97108 0.0
C120 C 0.11821 0.09402 0.99072 0.0
C121 C 0.15388 0.08197 0.98895 0.0
C122 C 0.14653 0.06372 0.97905 0.0
C123 C 0.07023 0.06905 0.9742 0.0
C124 C 0.07596 0.08702 0.98512 0.0
H125 H 0.17451 0.0549 0.97509 0.0
H126 H 0.03761 0.06496 0.96549 0.0
H127 H 0.16571 0.01168 0.91013 0.0
H128 H 0.19957 0.05505 0.82774 0.0
H129 H 0.97462 1.00716 1.03752 0.0
H130 H 0.1873 0.08672 0.99258 0.0
H131 H 0.0472 0.09556 0.98694 0.0
C132 C 0.90278 0.96437 0.62324 0.0
C133 C 0.93786 0.96956 0.59751 0.0
N134 N 0.94909 0.98647 0.60883 0.0
N135 N 0.89237 0.97797 0.65058 0.0
C136 C 0.92087 0.99121 0.6409 0.0
H137 H 0.88552 0.95168 0.6217 0.0
Co138 Co 0.84649 0.98003 0.6898 0.0
C139 C 0.89954 0.98966 0.77255 0.0
O140 O 0.87631 0.97734 0.79307 0.0
N141 N 0.7992 0.98288 0.72735 0.0
C142 C 0.7464 0.99734 0.7635 0.0
C143 C 0.79115 0.9945 0.76056 0.0
C144 C 0.75935 0.97907 0.71069 0.0
N145 N 0.72684 0.98783 0.7313 0.0
O146 O 0.82198 1.00105 0.65496 0.0
H147 H 0.81571 1.00235 0.77754 0.0
H148 H 0.75484 0.97147 0.68069 0.0
O149 O 0.88871 0.99385 0.73231 0.0
C150 C 0.80153 0.99495 0.62043 0.0
O151 O 0.80719 0.97789 0.61094 0.0
N152 N 0.86286 0.95768 0.71656 0.0
C153 C 0.88092 0.92173 0.73851 0.0
C154 C 0.91485 0.93454 0.73636 0.0
C155 C 0.90518 0.95245 0.7251 0.0
C156 C 0.8299 0.94524 0.71857 0.0
C157 C 0.83798 0.92745 0.73027 0.0
H158 H 0.93193 0.96187 0.72119 0.0
H159 H 0.79714 0.94854 0.70832 0.0
H160 H 0.91972 1.00437 0.65597 0.0
H161 H 0.95366 0.96156 0.57235 0.0
H162 H 0.73018 1.00714 0.78419 0.0
H163 H 0.94871 0.93065 0.74186 0.0
H164 H 0.81097 0.91797 0.72977 0.0
C165 C 0.87607 0.80226 0.62881 0.0
C166 C 0.84007 0.79758 0.6037 0.0
N167 N 0.82775 0.78082 0.61536 0.0
N168 N 0.88589 0.78847 0.656 0.0
C169 C 0.85619 0.77565 0.64686 0.0
H170 H 0.89448 0.81467 0.62677 0.0
Co171 Co 0.93242 0.78521 0.69393 0.0
C172 C 0.87971 0.77566 0.77715 0.0
O173 O 0.90349 0.78783 0.79751 0.0
N174 N 0.98027 0.78108 0.73001 0.0
C175 C 0.03346 0.76701 0.76682 0.0
C176 C 0.98864 0.77002 0.76442 0.0
C177 C 0.01977 0.78427 0.71198 0.0
N178 N 0.05242 0.77584 0.73312 0.0
O179 O 0.95397 0.76421 0.65706 0.0
H180 H 0.96413 0.76288 0.78327 0.0
H181 H 0.02405 0.79168 0.68157 0.0
O182 O 0.88994 0.77159 0.73674 0.0
C183 C 0.97389 0.7704 0.62225 0.0
O184 O 0.96935 0.78763 0.61385 0.0
N185 N 0.91912 0.80763 0.72234 0.0
C186 C 0.90633 0.84429 0.74094 0.0
C187 C 0.87041 0.83239 0.73873 0.0
C188 C 0.87752 0.81407 0.72945 0.0
C189 C 0.95403 0.81906 0.72634 0.0
C190 C 0.9485 0.83708 0.73677 0.0
H191 H 0.84942 0.80536 0.72505 0.0
H192 H 0.98676 0.81488 0.71853 0.0
H193 H 0.85682 0.7624 0.66162 0.0
H194 H 0.82457 0.80576 0.57856 0.0
H195 H 0.05013 0.75773 0.78871 0.0
H196 H 0.83705 0.83731 0.74142 0.0
H197 H 0.97742 0.84551 0.7391 0.0
C198 C 0.89576 0.80336 0.27115 0.0
C199 C 0.93207 0.79886 0.29609 0.0
N200 N 0.94485 0.78217 0.28446 0.0
N201 N 0.88621 0.78953 0.24415 0.0
C202 C 0.91634 0.77687 0.25325 0.0
H203 H 0.87706 0.81571 0.27308 0.0
Co204 Co 0.84004 0.78609 0.20599 0.0
C205 C 0.89321 0.77659 0.12309 0.0
O206 O 0.86924 0.78865 0.10245 0.0
N207 N 0.79263 0.78179 0.16957 0.0
C208 C 0.74051 0.7669 0.13338 0.0
C209 C 0.78509 0.77033 0.13587 0.0
C210 C 0.75284 0.78482 0.1871 0.0
N211 N 0.72084 0.77587 0.16635 0.0
O212 O 0.81865 0.76502 0.24302 0.0
H213 H 0.81008 0.76315 0.11784 0.0
H214 H 0.74799 0.79234 0.21718 0.0
O215 O 0.88304 0.77257 0.16359 0.0
C216 C 0.7983 0.77113 0.27761 0.0
O217 O 0.80224 0.78839 0.28577 0.0
N218 N 0.8531 0.80853 0.17742 0.0
C219 C 0.8656 0.84519 0.15809 0.0
C220 C 0.90156 0.83329 0.16017 0.0
C221 C 0.89461 0.81499 0.16992 0.0
C222 C 0.81812 0.81996 0.17377 0.0
C223 C 0.82349 0.83799 0.16306 0.0
H224 H 0.92279 0.8063 0.17427 0.0
H225 H 0.78552 0.81573 0.18203 0.0
H226 H 0.91609 0.76362 0.23856 0.0
H227 H 0.94754 0.80711 0.32099 0.0
H228 H 0.72456 0.75721 0.11217 0.0
H229 H 0.93489 0.83821 0.15699 0.0
H230 H 0.79455 0.84643 0.16101 0.0
C231 C 0.87456 0.96463 0.27412 0.0
C232 C 0.83951 0.96966 0.30011 0.0
N233 N 0.82784 0.98656 0.28888 0.0
N234 N 0.88451 0.97832 0.24673 0.0
C235 C 0.85584 0.99146 0.25671 0.0
H236 H 0.89189 0.95194 0.27529 0.0
Co237 Co 0.92926 0.98064 0.20615 0.0
C238 C 0.87438 0.99082 0.12508 0.0
O239 O 0.89827 0.97911 0.10331 0.0
N240 N 0.97541 0.98391 0.16716 0.0
C241 C 0.02728 1.0006 0.13527 0.0
C242 C 0.98261 0.99751 0.1384 0.0
C243 C 0.01581 0.97912 0.18088 0.0
N244 N 0.04779 0.98893 0.16225 0.0
O245 O 0.95468 1.00135 0.24076 0.0
H246 H 0.95753 1.00639 0.12562 0.0
H247 H 0.02131 0.97069 0.20949 0.0
O248 O 0.88564 0.99462 0.16536 0.0
C249 C 0.97656 0.99495 0.27411 0.0
O250 O 0.97187 0.97776 0.28286 0.0
N251 N 0.91196 0.95844 0.1792 0.0
C252 C 0.89228 0.92257 0.15786 0.0
C253 C 0.85881 0.93557 0.16073 0.0
C254 C 0.8693 0.95342 0.17163 0.0
C255 C 0.94446 0.94582 0.1763 0.0
C256 C 0.93557 0.92809 0.16491 0.0
H257 H 0.84289 0.96295 0.1763 0.0
H258 H 0.97751 0.94888 0.1858 0.0
H259 H 0.85649 1.00463 0.24155 0.0
H260 H 0.82386 0.96152 0.32518 0.0
H261 H 0.04298 0.01162 0.11809 0.0
H262 H 0.82471 0.93186 0.15615 0.0
H263 H 0.96232 0.91847 0.16484 0.0
C264 C 0.12776 0.5516 1.0295 0.0
C265 C 0.09182 0.54635 1.05393 0.0
N266 N 0.08067 0.52957 1.0415 0.0
N267 N 0.13881 0.53815 1.00197 0.0
C268 C 0.10986 0.52493 1.01025 0.0
H269 H 0.14479 0.56433 1.0317 0.0
Co270 Co 0.1843 0.53677 0.96223 0.0
C271 C 0.13166 0.52601 0.87848 0.0
O272 O 0.15461 0.53799 0.85674 0.0
N273 N 0.2321 0.5352 0.92169 0.0
C274 C 0.28722 0.54417 0.87831 0.0
C275 C 0.24287 0.5456 0.88653 0.0
C276 C 0.27022 0.52685 0.93181 0.0
N277 N 0.3042 0.53242 0.90733 0.0
O278 O 0.20893 0.51549 0.99661 0.0
H279 H 0.22182 0.55554 0.8714 0.0
H280 H 0.27542 0.51873 0.96058 0.0
O281 O 0.14206 0.52282 0.91937 0.0
C282 C 0.22904 0.52138 1.03168 0.0
O283 O 0.22422 0.5385 1.04108 0.0
N284 N 0.16701 0.55924 0.93871 0.0
C285 C 0.15101 0.59556 0.92033 0.0
C286 C 0.11805 0.58254 0.91385 0.0
C287 C 0.12653 0.56441 0.92382 0.0
C288 C 0.19832 0.57189 0.94729 0.0
C289 C 0.19154 0.58995 0.93725 0.0
H290 H 0.10013 0.55476 0.92134 0.0
H291 H 0.22894 0.56789 0.9626 0.0
H292 H 0.11092 0.51194 0.99433 0.0
H293 H 0.07507 0.5543 0.07856 0.0
H294 H 0.30622 0.55268 0.85651 0.0
H295 H 0.08576 0.58639 0.90214 0.0
H296 H 0.21723 0.59957 0.9446 0.0
C297 C 0.14231 0.71515 1.02261 0.0
C298 C 0.17756 0.72 1.04864 0.0
N299 N 0.19038 0.73665 1.03659 0.0
N300 N 0.13353 0.7287 0.99437 0.0
C301 C 0.1629 0.74159 1.00403 0.0
H302 H 0.12397 0.70271 1.02441 0.0
Co303 Co 0.08903 0.73173 0.95373 0.0
C304 C 0.14491 0.74161 0.87328 0.0
O305 O 0.121 0.72988 0.85159 0.0
N306 N 0.04303 0.73587 0.91519 0.0
C307 C 0.99153 0.7536 0.88606 0.0
C308 C 0.03609 0.74996 0.8878 0.0
C309 C 1.00271 0.73137 0.92952 0.0
N310 N 0.97091 0.74178 0.91253 0.0
O311 O 0.0649 0.75241 0.98964 0.0
H312 H 0.06153 0.75868 0.87515 0.0
H313 H 0.99748 0.72235 0.95708 0.0
O314 O 0.1334 0.74558 0.9134 0.0
C315 C 0.04295 0.74601 1.02292 0.0
O316 O 0.04637 0.72869 1.03071 0.0
N317 N 0.10526 0.70946 0.92533 0.0
C318 C 0.12242 0.67283 0.90943 0.0
C319 C 0.15704 0.68512 0.91565 0.0
C320 C 0.14777 0.70341 0.92305 0.0
C321 C 0.07187 0.69776 0.91604 0.0
C322 C 0.07975 0.67973 0.90702 0.0
H323 H 0.17472 0.71241 0.93033 0.0
H324 H 0.03815 0.70168 0.91819 0.0
H325 H 0.16292 0.7547 0.98855 0.0
H326 H 0.19241 0.71194 1.07439 0.0
H327 H 0.9761 0.76498 0.86999 0.0
H328 H 0.19076 0.68056 0.9176 0.0
H329 H 0.05188 0.67107 0.90062 0.0
C330 C 0.12297 0.71515 0.37303 0.0
C331 C 0.0881 0.72054 0.34718 0.0
N332 N 0.07672 0.73734 0.35929 0.0
N333 N 0.133 0.72853 0.4012 0.0
C334 C 0.1046 0.74183 0.39186 0.0
H335 H 0.14036 0.7025 0.37102 0.0
Co336 Co 0.17852 0.73043 0.44076 0.0
C337 C 0.12471 0.73991 0.52321 0.0
O338 O 0.14744 0.72738 0.54361 0.0
N339 N 0.2258 0.73308 0.47844 0.0
C340 C 0.27901 0.74717 0.51491 0.0
C341 C 0.23416 0.74447 0.51205 0.0
C342 C 0.26551 0.72926 0.4615 0.0
N343 N 0.29827 0.73781 0.48229 0.0
O344 O 0.20322 0.75148 0.40611 0.0
H345 H 0.20972 0.75221 0.52948 0.0
H346 H 0.2698 0.72171 0.43137 0.0
O347 O 0.1362 0.74429 0.48326 0.0
C348 C 0.22342 0.7455 0.37134 0.0
O349 O 0.21822 0.72841 0.36185 0.0
N350 N 0.16145 0.7081 0.46736 0.0
C351 C 0.14099 0.67205 0.48532 0.0
C352 C 0.10766 0.68505 0.48213 0.0
C353 C 0.11857 0.70304 0.47331 0.0
C354 C 0.19398 0.69551 0.47142 0.0
C355 C 0.18459 0.67763 0.48125 0.0
H356 H 0.09234 0.71265 0.46853 0.0
H357 H 0.22753 0.69876 0.46404 0.0
H358 H 0.10565 0.75488 0.40749 0.0
H359 H 0.07258 0.71276 0.32141 0.0
H360 H 0.29553 0.75677 0.53596 0.0
H361 H 0.07341 0.68123 0.48462 0.0
H362 H 0.21125 0.66797 0.48217 0.0
C363 C 0.14345 0.55091 0.36969 0.0
C364 C 0.17973 0.54604 0.34532 0.0
N365 N 0.19175 0.52933 0.3577 0.0
N366 N 0.13306 0.53728 0.39714 0.0
C367 C 0.16273 0.52435 0.38884 0.0
H368 H 0.12574 0.56349 0.36752 0.0
Co369 Co 0.08771 0.53519 0.43693 0.0
C370 C 0.14267 0.52548 0.52009 0.0
O371 O 0.1204 0.5378 0.54125 0.0
N372 N 0.04021 0.53278 0.47765 0.0
C373 C 0.98508 0.54067 0.52217 0.0
C374 C 0.02934 0.54247 0.51386 0.0
C375 C 1.00228 0.52447 0.46686 0.0
N376 N 0.96828 0.52939 0.49207 0.0
O377 O 0.06464 0.51376 0.40235 0.0
H378 H 0.04995 0.5524 0.52948 0.0
H379 H 0.99711 0.51701 0.43715 0.0
O380 O 0.13125 0.52176 0.47976 0.0
C381 C 0.04441 0.51975 0.36734 0.0
O382 O 0.04851 0.53696 0.35851 0.0
N383 N 0.10277 0.55789 0.46021 0.0
C384 C 0.11401 0.59482 0.47503 0.0
C385 C 0.149 0.58264 0.48153 0.0
C386 C 0.14286 0.56419 0.47337 0.0
C387 C 0.06928 0.56963 0.45228 0.0
C388 C 0.07357 0.58787 0.46098 0.0
H389 H 0.17071 0.55521 0.47545 0.0
H390 H 0.03873 0.56477 0.43848 0.0
H391 H 0.16229 0.5113 0.40465 0.0
H392 H 0.19609 0.55419 0.32073 0.0
H393 H 0.96593 0.54876 0.5447 0.0
H394 H 0.18134 0.58737 0.4908 0.0
H395 H 0.04533 0.59645 0.4557 0.0
C396 C 0.89549 0.46361 0.11975 0.0
C397 C 0.93145 0.46883 0.09534 0.0
N398 N 0.94262 0.48562 0.10772 0.0
N399 N 0.88442 0.47709 0.14722 0.0
C400 C 0.91341 0.49029 0.13892 0.0
H401 H 0.87844 0.45089 0.11759 0.0
Co402 Co 0.83894 0.47851 0.18695 0.0
C403 C 0.89167 0.48924 0.27069 0.0
O404 O 0.86842 0.47739 0.29255 0.0
N405 N 0.79112 0.48012 0.22747 0.0
C406 C 0.73597 0.47118 0.27085 0.0
C407 C 0.78033 0.46976 0.26269 0.0
C408 C 0.75298 0.48843 0.21722 0.0
N409 N 0.71898 0.48287 0.2417 0.0
O410 O 0.8144 0.4998 0.15254 0.0
H411 H 0.80138 0.45984 0.27791 0.0
H412 H 0.74778 0.49648 0.18836 0.0
O413 O 0.88131 0.49241 0.22978 0.0
C414 C 0.79433 0.49394 0.11741 0.0
O415 O 0.79915 0.47683 0.10796 0.0
N416 N 0.85613 0.45606 0.21054 0.0
C417 C 0.87188 0.4198 0.22973 0.0
C418 C 0.9049 0.43281 0.23601 0.0
C419 C 0.89656 0.4509 0.22561 0.0
C420 C 0.82479 0.44341 0.20207 0.0
C421 C 0.83145 0.42538 0.21251 0.0
H422 H 0.92302 0.46053 0.22795 0.0
H423 H 0.79422 0.44739 0.18664 0.0
H424 H 0.91236 0.50329 0.15479 0.0
H425 H 0.94822 0.46086 1.07076 0.0
H426 H 0.71697 0.46267 0.29268 0.0
H427 H 0.93713 0.42897 0.24793 0.0
H428 H 0.80573 0.41576 0.20529 0.0
C429 C 0.88059 0.30093 0.12899 0.0
C430 C 0.84517 0.29639 0.10284 0.0
N431 N 0.83181 0.27976 0.11446 0.0
N432 N 0.88894 0.28721 0.15687 0.0
C433 C 0.85917 0.27452 0.14686 0.0
H434 H 0.89926 0.31329 0.12757 0.0
Co435 Co 0.93316 0.28387 0.19768 0.0
C436 C 0.87697 0.27365 0.27756 0.0
O437 O 0.90097 0.28521 0.29967 0.0
N438 N 0.97889 0.27944 0.23635 0.0
C439 C 0.03021 0.26153 0.26511 0.0
C440 C 0.98567 0.26521 0.26331 0.0
C441 C 0.01928 0.284 0.22234 0.0
N442 N 0.05096 0.27348 0.2391 0.0
O443 O 0.95729 0.26335 0.16123 0.0
H444 H 0.96014 0.25644 0.27558 0.0
H445 H 0.02464 0.29317 0.19509 0.0
O446 O 0.8885 0.26987 0.23734 0.0
C447 C 0.97943 0.2699 0.12824 0.0
O448 O 0.9762 0.28726 0.12098 0.0
N449 N 0.91695 0.30599 0.22672 0.0
C450 C 0.8999 0.34259 0.24271 0.0
C451 C 0.86524 0.33035 0.23615 0.0
C452 C 0.87445 0.31206 0.22874 0.0
C453 C 0.95032 0.31761 0.2366 0.0
C454 C 0.94248 0.33564 0.24566 0.0
H455 H 0.84751 0.30312 0.22111 0.0
H456 H 0.98403 0.31365 0.23484 0.0
H457 H 0.8587 0.26135 0.16203 0.0
H458 H 0.83052 0.30465 0.07735 0.0
H459 H 0.04553 0.25005 0.28085 0.0
H460 H 0.83158 0.33496 0.23383 0.0
H461 H 0.97033 0.34427 0.25241 0.0
C462 C 0.8979 0.30144 0.77447 0.0
C463 C 0.93347 0.29665 0.80012 0.0
N464 N 0.94607 0.27995 0.78837 0.0
N465 N 0.88868 0.2878 0.74678 0.0
C466 C 0.91821 0.27493 0.75626 0.0
H467 H 0.87948 0.31385 0.77635 0.0
Co468 Co 0.84293 0.28488 0.70773 0.0
C469 C 0.89719 0.27523 0.62569 0.0
O470 O 0.8743 0.28762 0.60499 0.0
N471 N 0.79561 0.2811 0.67074 0.0
C472 C 0.74294 0.2665 0.63469 0.0
C473 C 0.78768 0.26963 0.63719 0.0
C474 C 0.75587 0.2845 0.68806 0.0
N475 N 0.72346 0.27569 0.66747 0.0
O476 O 0.81996 0.26396 0.74416 0.0
H477 H 0.81248 0.26226 0.61933 0.0
H478 H 0.75135 0.29223 0.71787 0.0
O479 O 0.88584 0.27103 0.66579 0.0
C480 C 0.79962 0.27014 0.77865 0.0
O481 O 0.80419 0.28735 0.78711 0.0
N482 N 0.85792 0.30722 0.67935 0.0
C483 C 0.87343 0.34388 0.66227 0.0
C484 C 0.9086 0.33169 0.66672 0.0
C485 C 0.90013 0.31339 0.67487 0.0
C486 C 0.8238 0.31885 0.67246 0.0
C487 C 0.83079 0.33688 0.6627 0.0
H488 H 0.92757 0.30446 0.68079 0.0
H489 H 0.79036 0.31482 0.67727 0.0
H490 H 0.91792 0.26177 0.74118 0.0
H491 H 0.94855 0.30474 0.82559 0.0
H492 H 0.72672 0.25684 0.61359 0.0
H493 H 0.94229 0.33634 0.6667 0.0
H494 H 0.80242 0.34546 0.65798 0.0
C495 C 0.87902 0.46459 0.77931 0.0
C496 C 0.84304 0.46964 0.80384 0.0
N497 N 0.83149 0.48642 0.79153 0.0
N498 N 0.88971 0.47815 0.7518 0.0
C499 C 0.8605 0.49125 0.76022 0.0
H500 H 0.89633 0.45191 0.78139 0.0
Co501 Co 0.93507 0.47976 0.71195 0.0
C502 C 0.88215 0.4905 0.62839 0.0
O503 O 0.9054 0.47862 0.60675 0.0
N504 N 0.98277 0.48158 0.67129 0.0
C505 C 0.03802 0.47288 0.62783 0.0
C506 C 0.99372 0.47131 0.63606 0.0
C507 C 0.02075 0.49001 0.68142 0.0
N508 N 0.05483 0.48458 0.65693 0.0
O509 O 0.95947 0.50095 0.74652 0.0
H510 H 0.97287 0.46134 0.6209 0.0
H511 H 0.02583 0.49806 0.71023 0.0
O512 O 0.89251 0.49373 0.66925 0.0
C513 C 0.97974 0.49493 0.78144 0.0
O514 O 0.97524 0.47775 0.79048 0.0
N515 N 0.91796 0.45737 0.68827 0.0
C516 C 0.90175 0.42112 0.67007 0.0
C517 C 0.86866 0.43413 0.66414 0.0
C518 C 0.87727 0.45223 0.67397 0.0
C519 C 0.94945 0.44471 0.6963 0.0
C520 C 0.94256 0.42667 0.68626 0.0
H521 H 0.85078 0.46187 0.67202 0.0
H522 H 0.98026 0.44866 0.71124 0.0
H523 H 0.86123 0.50428 0.74435 0.0
H524 H 0.82652 0.46157 0.82847 0.0
H525 H 0.05716 0.46445 0.60604 0.0
H526 H 0.83616 0.43028 0.65308 0.0
H527 H 0.96835 0.41703 0.69318 0.0
C528 C 0.62008 0.05189 1.02668 0.0
C529 C 0.58431 0.04713 1.05201 0.0
N530 N 0.57211 0.03033 1.04068 0.0
N531 N 0.62994 0.03814 0.99957 0.0
C532 C 0.60045 0.02524 1.00904 0.0
H533 H 0.63824 0.06437 1.02844 0.0
Co534 Co 0.67625 0.03512 0.96109 0.0
C535 C 0.62212 0.02625 0.87842 0.0
O536 O 0.64546 0.03857 0.85801 0.0
N537 N 0.72377 0.03117 0.92433 0.0
C538 C 0.7761 0.01716 0.8864 0.0
C539 C 0.73141 0.02037 0.88938 0.0
C540 C 0.76362 0.03404 0.94199 0.0
N541 N 0.79583 0.02561 0.92025 0.0
O542 O 0.69814 0.01391 0.99696 0.0
H543 H 0.70647 0.01355 0.87042 0.0
H544 H 0.76841 0.04124 0.97254 0.0
O545 O 0.63322 0.02183 0.91843 0.0
C546 C 0.71849 0.01997 1.0316 0.0
O547 O 0.71355 0.03711 1.04063 0.0
N548 N 0.66294 0.05773 0.93355 0.0
C549 C 0.65132 0.0944 0.91393 0.0
C550 C 0.61503 0.08269 0.91625 0.0
C551 C 0.62155 0.06436 0.92618 0.0
C552 C 0.69814 0.06905 0.93007 0.0
C553 C 0.69323 0.08704 0.91906 0.0
H554 H 0.59319 0.05578 0.93052 0.0
H555 H 0.73062 0.06476 0.93861 0.0
H556 H 0.60109 0.01202 0.99428 0.0
H557 H 0.5688 0.05532 0.07699 0.0
H558 H 0.79214 0.00801 0.86387 0.0
H559 H 0.58184 0.08777 0.91299 0.0
H560 H 0.7224 0.09533 0.91689 0.0
C561 C 0.65044 0.21428 1.02597 0.0
C562 C 0.68589 0.21929 1.05143 0.0
N563 N 0.69756 0.23613 1.03977 0.0
N564 N 0.64027 0.22794 0.99853 0.0
C565 C 0.66925 0.24102 1.00786 0.0
H566 H 0.63282 0.20167 1.0277 0.0
Co567 Co 0.59447 0.23019 0.95933 0.0
C568 C 0.64777 0.23999 0.8767 0.0
O569 O 0.62442 0.22779 0.85597 0.0
N570 N 0.54724 0.23317 0.92183 0.0
C571 C 0.49367 0.24726 0.88567 0.0
C572 C 0.53861 0.24474 0.88851 0.0
C573 C 0.50769 0.22911 0.93867 0.0
N574 N 0.47474 0.23759 0.91802 0.0
O575 O 0.57007 0.25118 0.9944 0.0
H576 H 0.56287 0.25269 0.87135 0.0
H577 H 0.5036 0.22151 0.96881 0.0
O578 O 0.63683 0.24408 0.91692 0.0
C579 C 0.54969 0.24509 1.02903 0.0
O580 O 0.55529 0.22801 1.03863 0.0
N581 N 0.61065 0.20788 0.93248 0.0
C582 C 0.62839 0.17189 0.91123 0.0
C583 C 0.66246 0.18465 0.91324 0.0
C584 C 0.65293 0.20259 0.92408 0.0
C585 C 0.57759 0.19548 0.93048 0.0
C586 C 0.58551 0.17769 0.91907 0.0
H587 H 0.67977 0.21197 0.92799 0.0
H588 H 0.54488 0.19877 0.94069 0.0
H589 H 0.66844 0.25419 0.99263 0.0
H590 H 0.70166 0.21122 0.07659 0.0
H591 H 0.47686 0.25694 0.86497 0.0
H592 H 0.6963 0.18067 0.90809 0.0
H593 H 0.55841 0.16825 0.9197 0.0
C594 C 0.62027 0.21317 0.37406 0.0
C595 C 0.58481 0.21835 0.34874 0.0
N596 N 0.57347 0.2352 0.36046 0.0
N597 N 0.63079 0.22674 0.40147 0.0
C598 C 0.602 0.23994 0.39226 0.0
H599 H 0.63765 0.20051 0.37226 0.0
Co600 Co 0.6767 0.22881 0.44058 0.0
C601 C 0.6233 0.23854 0.5233 0.0
O602 O 0.64629 0.22621 0.54413 0.0
N603 N 0.724 0.23161 0.47808 0.0
C604 C 0.77748 0.24558 0.51447 0.0
C605 C 0.73256 0.24302 0.51161 0.0
C606 C 0.76359 0.22766 0.46117 0.0
N607 N 0.79649 0.23609 0.48194 0.0
O608 O 0.70114 0.24991 0.40574 0.0
H609 H 0.70827 0.25087 0.52893 0.0
H610 H 0.76771 0.22021 0.4309 0.0
O611 O 0.63445 0.24264 0.4831 0.0
C612 C 0.72149 0.24396 0.37101 0.0
O613 O 0.71577 0.22694 0.36108 0.0
N614 N 0.66057 0.20639 0.46717 0.0
C615 C 0.64341 0.17033 0.48894 0.0
C616 C 0.60927 0.1831 0.48761 0.0
C617 C 0.61849 0.20106 0.47637 0.0
C618 C 0.69363 0.19396 0.46814 0.0
C619 C 0.68603 0.17614 0.47974 0.0
H620 H 0.59155 0.21044 0.47302 0.0
H621 H 0.72605 0.1973 0.45704 0.0
H622 H 0.60308 0.25307 0.4075 0.0
H623 H 0.56879 0.21037 0.32363 0.0
H624 H 0.7942 0.25517 0.53536 0.0
H625 H 0.57559 0.17914 0.49378 0.0
H626 H 0.71315 0.16672 0.47842 0.0
C627 C 0.6439 0.05114 0.37808 0.0
C628 C 0.67959 0.04662 0.35231 0.0
N629 N 0.69257 0.02989 0.36355 0.0
N630 N 0.63491 0.03729 0.40535 0.0
C631 C 0.66469 0.02457 0.39539 0.0
H632 H 0.62548 0.06357 0.3768 0.0
Co633 Co 0.59017 0.03385 0.44562 0.0
C634 C 0.64602 0.02408 0.52613 0.0
O635 O 0.62163 0.03559 0.54797 0.0
N636 N 0.54433 0.02926 0.48405 0.0
C637 C 0.49369 0.01156 0.51474 0.0
C638 C 0.53814 0.01534 0.51215 0.0
C639 C 0.50373 0.03343 0.46996 0.0
N640 N 0.47247 0.02313 0.48807 0.0
O641 O 0.56677 0.01317 0.40944 0.0
H642 H 0.56396 1.00684 0.52499 0.0
H643 H 0.49778 0.04214 0.44192 0.0
O644 O 0.63487 0.02022 0.48585 0.0
C645 C 0.54451 0.01969 0.37645 0.0
O646 O 0.54826 0.037 0.36869 0.0
N647 N 0.60498 0.05619 0.47417 0.0
C648 C 0.61915 0.09281 0.49242 0.0
C649 C 0.65479 0.08088 0.4879 0.0
C650 C 0.64698 0.06257 0.47891 0.0
C651 C 0.57052 0.06765 0.48092 0.0
C652 C 0.57681 0.08564 0.49112 0.0
H653 H 0.67472 0.05385 0.47268 0.0
H654 H 0.53731 0.0636 0.47555 0.0
H655 H 0.66484 0.01134 0.41025 0.0
H656 H 0.69471 0.05499 0.32735 0.0
H657 H 0.4787 1.00029 0.5316 0.0
H658 H 0.68827 0.08579 0.48853 0.0
H659 H 0.54817 0.0941 0.49544 0.0
C660 C 0.39267 0.96424 0.13208 0.0
C661 C 0.42793 0.96919 0.10622 0.0
N662 N 0.43951 0.98611 0.11711 0.0
N663 N 0.38252 0.978 0.15903 0.0
C664 C 0.41129 0.9911 0.14896 0.0
H665 H 0.37519 0.95159 0.13094 0.0
Co666 Co 0.33695 0.98064 0.1985 0.0
C667 C 0.38969 0.99103 0.2807 0.0
O668 O 0.36493 0.97949 0.30213 0.0
N669 N 0.28993 0.98419 0.23622 0.0
C670 C 0.23739 1.00105 0.26633 0.0
C671 C 0.28212 0.99792 0.26433 0.0
C672 C 0.24984 0.9794 0.22169 0.0
N673 N 0.21749 0.98929 0.23928 0.0
O674 O 0.31297 1.00134 0.16271 0.0
H675 H 0.30693 1.00681 0.27743 0.0
H676 H 0.24494 0.97085 0.19329 0.0
O677 O 0.37985 0.99461 0.23988 0.0
C678 C 0.29178 0.99492 0.12903 0.0
O679 O 0.29593 0.97765 0.12116 0.0
N680 N 0.3532 0.95845 0.2265 0.0
C681 C 0.37244 0.92235 0.24614 0.0
C682 C 0.40599 0.93534 0.24451 0.0
C683 C 0.3957 0.95333 0.23457 0.0
C684 C 0.32052 0.94589 0.22892 0.0
C685 C 0.32922 0.92802 0.23946 0.0
H686 H 0.42223 0.96285 0.23056 0.0
H687 H 0.28755 0.94907 0.21942 0.0
H688 H 0.41038 1.00434 0.16362 0.0
H689 H 0.44364 0.96102 0.08134 0.0
H690 H 0.22129 0.01211 0.2829 0.0
H691 H 0.44004 0.93152 0.24901 0.0
H692 H 0.30239 0.91845 0.23883 0.0
C693 C 0.37175 0.80254 0.1239 0.0
C694 C 0.33595 0.79767 0.09871 0.0
N695 N 0.32389 0.7809 0.11058 0.0
N696 N 0.38172 0.78886 0.15136 0.0
C697 C 0.35232 0.77591 0.14228 0.0
H698 H 0.38978 0.81504 0.1219 0.0
Co699 Co 0.42765 0.78603 0.19023 0.0
C700 C 0.37378 0.77659 0.27272 0.0
O701 O 0.39705 0.78884 0.29335 0.0
N702 N 0.47478 0.78231 0.22746 0.0
C703 C 0.52695 0.76737 0.26363 0.0
C704 C 0.48234 0.77072 0.261 0.0
C705 C 0.51463 0.78556 0.21028 0.0
N706 N 0.54671 0.77655 0.23092 0.0
O707 O 0.4506 0.76491 0.15451 0.0
H708 H 0.45737 0.76332 0.2786 0.0
H709 H 0.51937 0.79314 0.1802 0.0
O710 O 0.38475 0.77244 0.23257 0.0
C711 C 0.47118 0.77091 0.11989 0.0
O712 O 0.46629 0.78805 0.11052 0.0
N713 N 0.41321 0.80854 0.21765 0.0
C714 C 0.39955 0.84502 0.2381 0.0
C715 C 0.36396 0.83295 0.23559 0.0
C716 C 0.37148 0.81475 0.22517 0.0
C717 C 0.44774 0.82019 0.22107 0.0
C718 C 0.44184 0.8381 0.23239 0.0
H719 H 0.34361 0.80592 0.22075 0.0
H720 H 0.48041 0.81621 0.21241 0.0
H721 H 0.35298 0.76273 0.15742 0.0
H722 H 0.32028 0.80576 1.07353 0.0
H723 H 0.54283 0.75753 0.2846 0.0
H724 H 0.3305 0.83767 0.23919 0.0
H725 H 0.47053 0.84666 0.2346 0.0
C726 C 0.40124 0.80165 0.77619 0.0
C727 C 0.43663 0.79651 0.80166 0.0
N728 N 0.44815 0.77968 0.7899 0.0
N729 N 0.39098 0.78809 0.74867 0.0
C730 C 0.4198 0.77492 0.75798 0.0
H731 H 0.38378 0.8143 0.77792 0.0
Co732 Co 0.34547 0.78593 0.70915 0.0
C733 C 0.39909 0.77608 0.62694 0.0
O734 O 0.37592 0.78833 0.60603 0.0
N735 N 0.2986 0.78299 0.67125 0.0
C736 C 0.24593 0.76813 0.63588 0.0
C737 C 0.29065 0.77107 0.63863 0.0
C738 C 0.25878 0.78689 0.68769 0.0
N739 N 0.22637 0.77788 0.6676 0.0
O740 O 0.32064 0.76496 0.7443 0.0
H741 H 0.31529 0.76309 0.62219 0.0
H742 H 0.25427 0.79466 0.71742 0.0
O743 O 0.38801 0.772 0.66716 0.0
C744 C 0.30003 0.77107 0.77873 0.0
O745 O 0.3055 0.78815 0.78809 0.0
N746 N 0.36206 0.80822 0.68218 0.0
C747 C 0.38052 0.84417 0.6606 0.0
C748 C 0.41438 0.83133 0.66321 0.0
C749 C 0.40449 0.81342 0.67421 0.0
C750 C 0.32915 0.82068 0.67951 0.0
C751 C 0.33745 0.83847 0.66798 0.0
H752 H 0.43118 0.80397 0.67854 0.0
H753 H 0.29623 0.81741 0.68918 0.0
H754 H 0.41889 0.7618 0.74269 0.0
H755 H 0.4525 0.80449 0.82685 0.0
H756 H 0.22979 0.75806 0.61587 0.0
H757 H 0.44833 0.83521 0.65835 0.0
H758 H 0.31045 0.84796 0.66805 0.0
C759 C 0.37357 0.9639 0.77114 0.0
C760 C 0.33805 0.96883 0.79658 0.0
N761 N 0.32724 0.98591 0.78618 0.0
N762 N 0.38434 0.97777 0.74461 0.0
C763 C 0.35577 0.99092 0.75462 0.0
H764 H 0.39115 0.95127 0.77268 0.0
Co765 Co 0.43121 0.98082 0.70697 0.0
C766 C 0.37897 0.99012 0.62314 0.0
O767 O 0.40277 0.97786 0.60316 0.0
N768 N 0.47945 0.98477 0.67121 0.0
C769 C 0.5328 0.99838 0.63368 0.0
C770 C 0.48796 0.99549 0.63619 0.0
C771 C 0.51895 0.98172 0.68955 0.0
N772 N 0.55172 0.98985 0.66793 0.0
O773 O 0.45246 1.00193 0.74334 0.0
H774 H 0.46353 1.00244 0.61678 0.0
H775 H 0.5232 0.97455 0.72031 0.0
O776 O 0.38902 0.9943 0.66355 0.0
C777 C 0.47201 0.9958 0.77844 0.0
O778 O 0.46724 0.97861 0.78716 0.0
N779 N 0.41813 0.9583 0.67904 0.0
C780 C 0.40581 0.92162 0.66029 0.0
C781 C 0.36984 0.93353 0.6616 0.0
C782 C 0.3767 0.95185 0.67104 0.0
C783 C 0.4531 0.94684 0.67624 0.0
C784 C 0.44785 0.92882 0.66572 0.0
H785 H 0.34851 0.96057 0.67472 0.0
H786 H 0.48559 0.95103 0.68504 0.0
H787 H 0.35657 1.00409 0.73947 0.0
H788 H 0.32255 0.96075 0.82185 0.0
H789 H 0.54956 1.00734 0.61115 0.0
H790 H 0.33655 0.92861 0.65802 0.0
H791 H 0.47683 0.92039 0.66421 0.0
C792 C 0.62873 0.55097 0.52801 0.0
C793 C 0.59275 0.54598 0.55268 0.0
N794 N 0.5812 0.52918 0.54075 0.0
N795 N 0.63941 0.53735 0.50083 0.0
C796 C 0.6102 0.52428 0.50957 0.0
H797 H 0.64603 0.56365 0.52979 0.0
Co798 Co 0.68468 0.53558 0.46094 0.0
C799 C 0.63169 0.52462 0.37778 0.0
O800 O 0.655 0.53641 0.35579 0.0
N801 N 0.73226 0.53356 0.4202 0.0
C802 C 0.78768 0.54209 0.37669 0.0
C803 C 0.74342 0.54385 0.38496 0.0
C804 C 0.76998 0.52489 0.43016 0.0
N805 N 0.8042 0.53023 0.40571 0.0
O806 O 0.70909 0.51453 0.49618 0.0
H807 H 0.72276 0.55391 0.36976 0.0
H808 H 0.77485 0.51668 0.45883 0.0
O809 O 0.64202 0.52153 0.41874 0.0
C810 C 0.72962 0.5208 0.53061 0.0
O811 O 0.72528 0.53805 0.53867 0.0
N812 N 0.66768 0.5579 0.43672 0.0
C813 C 0.65165 0.59421 0.41873 0.0
C814 C 0.61851 0.58125 0.41264 0.0
C815 C 0.62704 0.56311 0.42235 0.0
C816 C 0.69925 0.57051 0.44478 0.0
C817 C 0.69245 0.58857 0.43482 0.0
H818 H 0.6005 0.5535 0.42039 0.0
H819 H 0.73 0.56649 0.45978 0.0
H820 H 0.61093 0.51121 0.49402 0.0
H821 H 0.57622 0.5541 0.57713 0.0
H822 H 0.80702 0.55049 0.35494 0.0
H823 H 0.58602 0.58517 0.40166 0.0
H824 H 0.71827 0.59817 0.44185 0.0
C825 C 0.64921 0.71426 0.52585 0.0
C826 C 0.68454 0.71927 0.5515 0.0
N827 N 0.69665 0.73601 0.53945 0.0
N828 N 0.63963 0.72781 0.49785 0.0
C829 C 0.66876 0.74083 0.50712 0.0
H830 H 0.63109 0.70179 0.52803 0.0
Co831 Co 0.59361 0.73053 0.45899 0.0
C832 C 0.64814 0.7399 0.37674 0.0
O833 O 0.62556 0.7274 0.35622 0.0
N834 N 0.54594 0.73413 0.42222 0.0
C835 C 0.49252 0.74778 0.38483 0.0
C836 C 0.53744 0.74499 0.38749 0.0
C837 C 0.50639 0.73076 0.44005 0.0
N838 N 0.47351 0.73898 0.41864 0.0
O839 O 0.57077 0.75155 0.49481 0.0
H840 H 0.56194 0.75211 0.36854 0.0
H841 H 0.50224 0.72333 0.47044 0.0
O842 O 0.63631 0.74428 0.41652 0.0
C843 C 0.55072 0.74551 0.52967 0.0
O844 O 0.5556 0.72837 0.53888 0.0
N845 N 0.60852 0.7081 0.43119 0.0
C846 C 0.6238 0.6715 0.41356 0.0
C847 C 0.65904 0.68362 0.41807 0.0
C848 C 0.65069 0.70191 0.42654 0.0
C849 C 0.57433 0.6965 0.42455 0.0
C850 C 0.58119 0.67852 0.41448 0.0
H851 H 0.6782 0.71079 0.43235 0.0
H852 H 0.54095 0.70053 0.42969 0.0
H853 H 0.66807 0.75398 0.49181 0.0
H854 H 0.69974 0.71132 0.57723 0.0
H855 H 0.47576 0.75688 0.36257 0.0
H856 H 0.69272 0.67894 0.41774 0.0
H857 H 0.55275 0.66998 0.40982 0.0
C858 C 0.63072 0.71422 0.87808 0.0
C859 C 0.59532 0.71891 0.85201 0.0
N860 N 0.58216 0.73554 0.86376 0.0
N861 N 0.63926 0.72785 0.90603 0.0
C862 C 0.60963 0.74063 0.89611 0.0
H863 H 0.64924 0.70182 0.87661 0.0
Co864 Co 0.68335 0.73107 0.94696 0.0
C865 C 0.62645 0.74103 1.02663 0.0
O866 O 0.65013 0.72934 1.04882 0.0
N867 N 0.72894 0.73539 0.98583 0.0
C868 C 0.77987 0.75332 1.015 0.0
C869 C 0.73539 0.74954 1.01297 0.0
C870 C 0.76947 0.73097 0.97197 0.0
N871 N 0.80093 0.74151 0.98897 0.0
O872 O 0.7076 0.75169 0.91064 0.0
H873 H 0.70968 0.75821 1.02523 0.0
H874 H 0.7751 0.72192 0.94465 0.0
O875 O 0.63844 0.74497 0.98658 0.0
C876 C 0.72986 0.7452 0.87772 0.0
O877 O 0.72668 0.72785 0.87047 0.0
N878 N 0.66714 0.70886 0.97578 0.0
C879 C 0.65021 0.67222 0.99199 0.0
C880 C 0.61552 0.68447 0.98542 0.0
C881 C 0.62466 0.70276 0.97786 0.0
C882 C 0.70058 0.69721 0.98545 0.0
C883 C 0.69281 0.67917 0.99462 0.0
H884 H 0.59769 0.71172 0.97024 0.0
H885 H 0.73427 0.70118 0.98344 0.0
H886 H 0.60932 0.75376 0.91134 0.0
H887 H 0.58051 0.71075 0.82652 0.0
H888 H 0.79494 0.76478 1.03091 0.0
H889 H 0.58185 0.67986 0.98327 0.0
H890 H 0.7207 0.67054 1.00126 0.0
C891 C 0.64538 0.55163 0.8707 0.0
C892 C 0.68138 0.54657 0.8462 0.0
N893 N 0.69276 0.52976 0.85834 0.0
N894 N 0.6345 0.53802 0.898 0.0
C895 C 0.66364 0.5249 0.88951 0.0
H896 H 0.62817 0.56433 0.86873 0.0
Co897 Co 0.58903 0.5364 0.93772 0.0
C898 C 0.64189 0.52526 1.02122 0.0
O899 O 0.61891 0.53712 1.04322 0.0
N900 N 0.54124 0.53459 0.97821 0.0
C901 C 0.48616 0.54335 1.02182 0.0
C902 C 0.53054 0.54474 1.01371 0.0
C903 C 0.50303 0.52643 0.9677 0.0
N904 N 0.46908 0.53188 0.99234 0.0
O905 O 0.56453 0.51527 0.90293 0.0
H906 H 0.55164 0.55455 1.02914 0.0
H907 H 0.49775 0.51859 0.93857 0.0
O908 O 0.63141 0.52226 0.98029 0.0
C909 C 0.54453 0.52129 0.86786 0.0
O910 O 0.54934 0.53844 0.85867 0.0
N911 N 0.60619 0.55875 0.96168 0.0
C912 C 0.62204 0.59499 0.98063 0.0
C913 C 0.65507 0.58196 0.98684 0.0
C914 C 0.64667 0.56388 0.97658 0.0
C915 C 0.57477 0.57142 0.95341 0.0
C916 C 0.58149 0.58944 0.96374 0.0
H917 H 0.67313 0.55424 0.9788 0.0
H918 H 0.54414 0.56747 0.9381 0.0
H919 H 0.66277 0.51184 0.90521 0.0
H920 H 0.69804 0.55467 0.8217 0.0
H921 H 0.46723 0.55175 1.04386 0.0
H922 H 0.68737 0.58578 0.99854 0.0
H923 H 0.55574 0.59907 0.95658 0.0
C924 C 0.39495 0.46417 0.62107 0.0
C925 C 0.43097 0.46917 0.59645 0.0
N926 N 0.44252 0.48596 0.6084 0.0
N927 N 0.38426 0.4778 0.64824 0.0
C928 C 0.41349 0.49086 0.63955 0.0
H929 H 0.37762 0.4515 0.61925 0.0
Co930 Co 0.3389 0.47957 0.68802 0.0
C931 C 0.39203 0.49047 0.77125 0.0
O932 O 0.36897 0.47859 0.79318 0.0
N933 N 0.29121 0.48158 0.72861 0.0
C934 C 0.23597 0.47308 0.77239 0.0
C935 C 0.28027 0.47145 0.76419 0.0
C936 C 0.25326 0.49 0.71824 0.0
N937 N 0.21918 0.48469 0.74292 0.0
O938 O 0.31462 0.50067 0.65281 0.0
H939 H 0.3011 0.46151 0.77964 0.0
H940 H 0.24818 0.49796 0.68917 0.0
O941 O 0.38152 0.49361 0.73035 0.0
C942 C 0.2943 0.49449 0.61815 0.0
O943 O 0.29867 0.47726 0.60986 0.0
N944 N 0.3558 0.45722 0.71228 0.0
C945 C 0.37176 0.42091 0.73043 0.0
C946 C 0.40498 0.43385 0.73627 0.0
C947 C 0.39648 0.45199 0.7265 0.0
C948 C 0.32414 0.44462 0.70448 0.0
C949 C 0.3309 0.42656 0.71451 0.0
H950 H 0.42306 0.46158 0.7283 0.0
H951 H 0.29333 0.44865 0.68959 0.0
H952 H 0.41275 0.50394 0.6551 0.0
H953 H 0.4475 0.46104 0.572 0.0
H954 H 0.21682 0.46474 0.79445 0.0
H955 H 0.43751 0.42992 0.74714 0.0
H956 H 0.30501 0.41697 0.70768 0.0
C957 C 0.37375 0.30096 0.62436 0.0
C958 C 0.33814 0.29614 0.59888 0.0
N959 N 0.32558 0.27946 0.61095 0.0
N960 N 0.38307 0.28735 0.65227 0.0
C961 C 0.35353 0.27448 0.6431 0.0
H962 H 0.39218 0.31336 0.62219 0.0
Co963 Co 0.42897 0.28446 0.6912 0.0
C964 C 0.37485 0.27515 0.77366 0.0
O965 O 0.3979 0.28754 0.79401 0.0
N966 N 0.47641 0.28072 0.72808 0.0
C967 C 0.52926 0.26645 0.76488 0.0
C968 C 0.48448 0.26951 0.76227 0.0
C969 C 0.5161 0.284 0.71049 0.0
N970 N 0.54861 0.27541 0.73155 0.0
O971 O 0.4516 0.26339 0.6553 0.0
H972 H 0.45975 0.26229 0.78065 0.0
H973 H 0.52055 0.29154 0.68029 0.0
O974 O 0.38608 0.27081 0.73367 0.0
C975 C 0.47189 0.26941 0.62056 0.0
O976 O 0.46738 0.28659 0.61151 0.0
N977 N 0.41433 0.30692 0.71902 0.0
C978 C 0.39935 0.34358 0.73631 0.0
C979 C 0.36402 0.33147 0.73211 0.0
C980 C 0.37223 0.31316 0.7238 0.0
C981 C 0.44863 0.31849 0.72538 0.0
C982 C 0.44192 0.33651 0.73527 0.0
H983 H 0.34464 0.3043 0.71817 0.0
H984 H 0.48196 0.3144 0.72015 0.0
H985 H 0.35388 0.26133 0.65841 0.0
H986 H 0.323 0.3042 0.57329 0.0
H987 H 0.54563 0.25701 0.78657 0.0
H988 H 0.33038 0.33618 0.73253 0.0
H989 H 0.47043 0.34502 0.73971 0.0
C990 C 0.39126 0.30086 0.27227 0.0
C991 C 0.42663 0.2961 0.29831 0.0
N992 N 0.43971 0.27948 0.28644 0.0
N993 N 0.38264 0.28728 0.24421 0.0
C994 C 0.41223 0.27446 0.254 0.0
H995 H 0.37279 0.31327 0.27389 0.0
Co996 Co 0.33833 0.28421 0.2034 0.0
C997 C 0.39446 0.27443 0.12322 0.0
O998 O 0.3705 0.28614 0.10139 0.0
N999 N 0.29254 0.28004 0.16465 0.0
C1000 C 0.24136 0.26228 0.13532 0.0
C1001 C 0.28586 0.26601 0.13718 0.0
C1002 C 0.25212 0.28443 0.17886 0.0
N1003 N 0.22052 0.27399 0.1618 0.0
O1004 O 0.3142 0.26348 0.23936 0.0
H1005 H 0.31144 0.25736 0.12456 0.0
H1006 H 0.24671 0.29337 0.20645 0.0
O1007 O 0.38293 0.27043 0.16335 0.0
C1008 C 0.29209 0.26984 0.27252 0.0
O1009 O 0.29542 0.28716 0.28023 0.0
N1010 N 0.35449 0.3065 0.17494 0.0
C1011 C 0.37154 0.34313 0.15879 0.0
C1012 C 0.4062 0.33084 0.16499 0.0
C1013 C 0.39698 0.31254 0.17254 0.0
C1014 C 0.32104 0.3182 0.16575 0.0
C1015 C 0.32886 0.33624 0.1566 0.0
H1016 H 0.42396 0.30355 0.17984 0.0
H1017 H 0.28734 0.31428 0.16812 0.0
H1018 H 0.41246 0.26135 0.23863 0.0
H1019 H 0.44145 0.30421 0.32388 0.0
H1020 H 0.22613 0.2509 0.11921 0.0
H1021 H 0.43992 0.3354 0.16683 0.0
H1022 H 0.30096 0.34491 0.15027 0.0
C1023 C 0.37762 0.46398 0.27888 0.0
C1024 C 0.34177 0.46917 0.30343 0.0
N1025 N 0.3306 0.48599 0.29114 0.0
N1026 N 0.38862 0.47751 0.2514 0.0
C1027 C 0.3597 0.49071 0.25983 0.0
H1028 H 0.39465 0.45124 0.28096 0.0
Co1029 Co 0.43407 0.47895 0.21164 0.0
C1030 C 0.38134 0.49003 0.12805 0.0
O1031 O 0.40421 0.47809 0.10618 0.0
N1032 N 0.48186 0.48059 0.17109 0.0
C1033 C 0.53685 0.47166 0.12758 0.0
C1034 C 0.49248 0.47032 0.13576 0.0
C1035 C 0.52012 0.48876 0.18139 0.0
N1036 N 0.55402 0.48321 0.15682 0.0
O1037 O 0.45885 0.50009 0.24618 0.0
H1038 H 0.47129 0.4605 0.12049 0.0
H1039 H 0.52545 0.4967 0.21034 0.0
O1040 O 0.39185 0.49308 0.16894 0.0
C1041 C 0.47885 0.49405 0.28125 0.0
O1042 O 0.47388 0.47692 0.29051 0.0
N1043 N 0.41664 0.45659 0.18796 0.0
C1044 C 0.40039 0.42035 0.16942 0.0
C1045 C 0.36749 0.43342 0.16309 0.0
C1046 C 0.37609 0.45151 0.17313 0.0
C1047 C 0.44792 0.44388 0.19636 0.0
C1048 C 0.44101 0.42586 0.18623 0.0
H1049 H 0.34973 0.46119 0.1708 0.0
H1050 H 0.47859 0.4478 0.21163 0.0
H1051 H 0.36072 0.50375 0.24399 0.0
H1052 H 0.32507 0.46115 0.32806 0.0
H1053 H 0.55572 0.46319 0.10565 0.0
H1054 H 0.33514 0.42963 0.15146 0.0
H1055 H 0.46666 0.41619 0.19347 0.0
C1056 C 0.1761 0.12462 0.42454 0.0
C1057 C 0.1473 0.11314 0.40144 0.0
H1058 H 0.19199 0.15146 0.4439 0.0
C1059 C 0.11221 0.12091 0.37801 0.0
H1060 H 0.20284 0.11922 0.44405 0.0
C1061 C 0.10591 0.13962 0.37816 0.0
C1062 C 0.13455 0.15099 0.40174 0.0
H1063 H 0.0896 0.11257 0.35958 0.0
H1064 H 0.0783 0.14517 0.36017 0.0
C1065 C 0.16998 0.14323 0.42446 0.0
C1066 C 0.15766 0.12149 1.02033 0.0
C1067 C 0.12433 0.11392 0.99414 0.0
H1068 H 0.19001 0.14561 1.0416 0.0
C1069 C 0.0968 0.12561 0.96998 0.0
H1070 H 0.17922 0.11299 1.03967 0.0
C1071 C 0.10249 0.14422 0.97167 0.0
C1072 C 0.13628 0.15176 0.99704 0.0
H1073 H 0.07153 0.1204 0.94838 0.0
H1074 H 0.08162 0.15265 0.95136 0.0
C1075 C 0.16361 0.14019 1.02169 0.0
C1076 C 0.86735 0.87224 0.76831 0.0
C1077 C 0.90074 0.86424 0.74307 0.0
H1078 H 0.83558 0.89674 0.78772 0.0
C1079 C 0.92893 0.87552 0.7186 0.0
H1080 H 0.84529 0.86404 0.78781 0.0
C1081 C 0.92383 0.89417 0.71908 0.0
C1082 C 0.89 0.90215 0.74351 0.0
H1083 H 0.9543 0.86995 0.6977 0.0
H1084 H 0.9452 0.90228 0.69857 0.0
C1085 C 0.86202 0.89098 0.76849 0.0
C1086 C 0.84895 0.89521 0.17855 0.0
C1087 C 0.88256 0.90302 0.15338 0.0
H1088 H 0.81841 0.87113 0.20107 0.0
C1089 C 0.90988 0.89168 0.12823 0.0
H1090 H 0.82806 0.90344 0.19918 0.0
C1091 C 0.90428 0.87296 0.12907 0.0
C1092 C 0.87123 0.86513 0.15513 0.0
H1093 H 0.93609 0.89729 0.10837 0.0
H1094 H 0.92591 0.86464 0.10947 0.0
C1095 C 0.84354 0.87657 0.17963 0.0
C1096 C 0.09785 0.64147 0.92913 0.0
C1097 C 0.12938 0.65288 0.90956 0.0
H1098 H 0.07967 0.61467 0.94727 0.0
C1099 C 0.16748 0.64503 0.89175 0.0
H1100 H 0.06868 0.64689 0.94455 0.0
C1101 C 0.17399 0.62637 0.89402 0.0
C1102 C 0.14242 0.6151 0.91382 0.0
H1103 H 0.19232 0.65327 0.87611 0.0
H1104 H 0.2039 0.62074 0.88051 0.0
C1105 C 0.10411 0.62288 0.93087 0.0
C1106 C 0.09654 0.62663 0.45194 0.0
C1107 C 0.11972 0.61472 0.47978 0.0
H1108 H 0.08435 0.65388 0.4327 0.0
C1109 C 0.14832 0.62208 0.51147 0.0
H1110 H 0.07521 0.62166 0.42615 0.0
C1111 C 0.15409 0.64075 0.51456 0.0
C1112 C 0.13093 0.6525 0.48651 0.0
H1113 H 0.16636 0.61345 0.53385 0.0
H1114 H 0.17704 0.64601 0.53859 0.0
C1115 C 0.10172 0.64522 0.45558 0.0
C1116 C 0.84854 0.38914 0.25669 0.0
C1117 C 0.88031 0.40029 0.23683 0.0
H1118 H 0.82991 0.36234 0.27512 0.0
C1119 C 0.91873 0.39241 0.22031 0.0
H1120 H 0.81855 0.39486 0.26982 0.0
C1121 C 0.92489 0.37383 0.22261 0.0
C1122 C 0.89313 0.36253 0.2422 0.0
H1123 H 0.94334 0.40053 0.20389 0.0
H1124 H 0.95416 0.36831 0.20758 0.0
C1125 C 0.85493 0.37049 0.2595 0.0
C1126 C 0.85558 0.39384 0.68323 0.0
C1127 C 0.89295 0.40161 0.66414 0.0
H1128 H 0.82118 0.36983 0.69937 0.0
C1129 C 0.92362 0.39036 0.64307 0.0
H1130 H 0.83193 0.40207 0.70063 0.0
C1131 C 0.91717 0.37169 0.64152 0.0
C1132 C 0.8801 0.36383 0.66144 0.0
H1133 H 0.95282 0.39601 0.62807 0.0
H1134 H 0.94129 0.36346 0.62484 0.0
C1135 C 0.84946 0.37524 0.68229 0.0
C1136 C 0.67461 0.12567 0.93477 0.0
C1137 C 0.64641 0.11434 0.91051 0.0
H1138 H 0.69153 0.15251 0.95333 0.0
C1139 C 0.61384 0.12229 0.88401 0.0
H1140 H 0.69937 0.12014 0.95657 0.0
C1141 C 0.60925 0.14105 0.88244 0.0
C1142 C 0.63719 0.15227 0.90725 0.0
H1143 H 0.59183 0.11404 0.86461 0.0
H1144 H 0.58335 0.14679 0.86234 0.0
C1145 C 0.67027 0.14433 0.9329 0.0
C1146 C 0.66406 0.13959 0.51796 0.0
C1147 C 0.63484 0.15071 0.49419 0.0
H1148 H 0.68211 0.11266 0.5364 0.0
C1149 C 0.60015 0.14264 0.47111 0.0
H1150 H 0.69116 0.1454 0.53618 0.0
C1151 C 0.59535 0.12398 0.47083 0.0
C1152 C 0.62477 0.11276 0.49407 0.0
H1153 H 0.57777 0.1507 0.45153 0.0
H1154 H 0.56914 0.11833 0.45109 0.0
C1155 C 0.6591 0.12083 0.51788 0.0
C1156 C 0.36053 0.87221 0.26973 0.0
C1157 C 0.39344 0.86489 0.24267 0.0
H1158 H 0.32882 0.89613 0.29315 0.0
C1159 C 0.42085 0.8768 0.2191 0.0
H1160 H 0.3391 0.86352 0.28865 0.0
C1161 C 0.41546 0.89539 0.22223 0.0
C1162 C 0.3821 0.90271 0.24852 0.0
H1163 H 0.44583 0.87178 0.19692 0.0
H1164 H 0.4362 0.90401 0.20232 0.0
C1165 C 0.3549 0.8909 0.27257 0.0
C1166 C 0.36226 0.87501 0.63073 0.0
C1167 C 0.38972 0.86376 0.65613 0.0
H1168 H 0.34588 0.90201 0.61156 0.0
C1169 C 0.42297 0.87166 0.68156 0.0
H1170 H 0.33627 0.86932 0.61075 0.0
C1171 C 0.42798 0.8903 0.68258 0.0
C1172 C 0.4003 0.90167 0.65767 0.0
H1173 H 0.4439 0.86348 0.70241 0.0
H1174 H 0.45284 0.8958 0.70423 0.0
C1175 C 0.36752 0.89375 0.63144 0.0
C1176 C 0.60575 0.62143 0.43302 0.0
C1177 C 0.64287 0.61375 0.41332 0.0
H1178 H 0.57173 0.64536 0.45035 0.0
C1179 C 0.67346 0.6251 0.39237 0.0
H1180 H 0.58221 0.61311 0.45038 0.0
C1181 C 0.66716 0.64379 0.39153 0.0
C1182 C 0.63035 0.65155 0.41208 0.0
H1183 H 0.70249 0.61952 0.37695 0.0
H1184 H 0.6912 0.65211 0.37493 0.0
C1185 C 0.5998 0.64003 0.43282 0.0
C1186 C 0.67507 0.64094 0.97235 0.0
C1187 C 0.64342 0.65228 0.99187 0.0
H1188 H 0.69341 0.6142 0.95407 0.0
C1189 C 0.60532 0.64436 1.00955 0.0
H1190 H 0.70427 0.64642 0.95705 0.0
C1191 C 0.59891 0.6257 1.00718 0.0
C1192 C 0.63057 0.61451 0.98736 0.0
H1193 H 0.5804 0.65254 1.02515 0.0
H1194 H 0.56899 0.62002 1.02058 0.0
C1195 C 0.6689 0.62235 0.97048 0.0
C1196 C 0.3499 0.39005 0.75711 0.0
C1197 C 0.38048 0.40136 0.73597 0.0
H1198 H 0.33212 0.36309 0.77489 0.0
C1199 C 0.41754 0.39362 0.71629 0.0
H1200 H 0.32093 0.39568 0.77254 0.0
C1201 C 0.42344 0.375 0.7167 0.0
C1202 C 0.3929 0.36354 0.73761 0.0
H1203 H 0.44108 0.4019 0.69881 0.0
H1204 H 0.45146 0.36964 0.69917 0.0
C1205 C 0.35615 0.37136 0.75814 0.0
C1206 C 0.34708 0.37448 0.17842 0.0
C1207 C 0.3785 0.36307 0.15876 0.0
H1208 H 0.32906 0.40127 0.19659 0.0
C1209 C 0.41654 0.37092 0.14076 0.0
H1210 H 0.31795 0.36905 0.19398 0.0
C1211 C 0.42311 0.38957 0.14296 0.0
C1212 C 0.39167 0.40083 0.16289 0.0
H1213 H 0.4413 0.36269 0.12504 0.0
H1214 H 0.45299 0.3952 0.12933 0.0
C1215 C 0.35339 0.39306 0.1801 0.0
C1216 C 0.36748 0.03908 0.43976 0.0
C1217 C 0.34676 0.02293 0.42841 0.0
H1218 H 0.42307 0.05165 0.46942 0.0
C1219 C 0.36698 1.00651 0.4393 0.0
H1220 H 0.35231 0.05187 0.43194 0.0
C1221 C 0.40748 1.00639 0.46137 0.0
C1222 C 0.42812 0.02268 0.47228 0.0
H1223 H 0.35109 0.99388 0.43165 0.0
H1224 H 0.42324 0.99368 0.46865 0.0
C1225 C 0.40754 0.03896 0.46153 0.0
C1226 C 0.87602 0.23842 0.4946 0.0
C1227 C 0.84047 0.23763 0.4655 0.0
H1228 H 0.94573 0.23808 0.50131 0.0
C1229 C 0.84837 0.23753 0.41974 0.0
H1230 H 0.87073 0.23845 0.52989 0.0
C1231 C 0.89104 0.23795 0.40333 0.0
C1232 C 0.92656 0.23782 0.43243 0.0
H1233 H 0.82158 0.23687 0.39651 0.0
H1234 H 0.89635 0.23761 0.36805 0.0
C1235 C 0.91877 0.2382 0.47818 0.0
C1236 C 0.39514 0.23951 0.90551 0.0
C1237 C 0.43078 0.239 0.93452 0.0
H1238 H 0.32545 0.23872 0.89903 0.0
C1239 C 0.42303 0.23895 0.9803 0.0
H1240 H 0.40035 0.23947 0.87021 0.0
C1241 C 0.38041 0.23918 0.99684 0.0
C1242 C 0.34481 0.23879 0.96786 0.0
H1243 H 0.44992 0.23843 1.00343 0.0
H1244 H 0.37521 0.2389 1.03215 0.0
C1245 C 0.35246 0.23908 0.92207 0.0
C1246 C 0.89228 0.02339 0.99661 0.0
C1247 C 0.92712 0.02374 0.96673 0.0
H1248 H 0.82303 0.02437 1.00501 0.0
C1249 C 0.9182 0.02346 0.92117 0.0
H1250 H 0.8984 0.0237 1.03177 0.0
C1251 C 0.87506 0.02319 0.90571 0.0
C1252 C 0.84019 0.02381 0.9356 0.0
H1253 H 0.94456 0.02379 0.89742 0.0
H1254 H 0.86894 0.02332 0.87054 0.0
C1255 C 0.84923 0.02376 0.98116 0.0
C1256 C 0.60481 0.99208 0.72889 0.0
C1257 C 0.5961 0.99111 0.68337 0.0
H1258 H 0.65366 0.99216 0.77983 0.0
C1259 C 0.63108 0.99003 0.65376 0.0
H1260 H 0.5783 0.99284 0.75241 0.0
C1261 C 0.67401 0.98901 0.66958 0.0
C1262 C 0.68273 0.98967 0.7152 0.0
H1263 H 0.62507 0.98917 0.61864 0.0
H1264 H 0.70027 0.9875 0.64601 0.0
C1265 C 0.6478 0.99165 0.74465 0.0
C1266 C 0.17453 0.77663 0.72998 0.0
C1267 C 0.18257 0.77593 0.68426 0.0
H1268 H 0.12635 0.77646 0.78156 0.0
C1269 C 0.14728 0.7739 0.65526 0.0
H1270 H 0.2011 0.77828 0.75316 0.0
C1271 C 0.10457 0.77349 0.67158 0.0
C1272 C 0.09653 0.77446 0.7172 0.0
H1273 H 0.15265 0.7734 0.62 0.0
H1274 H 0.07772 0.77285 0.64844 0.0
C1275 C 0.13188 0.77555 0.74638 0.0
C1276 C 0.62587 0.77325 0.24402 0.0
C1277 C 0.59062 0.77453 0.21471 0.0
H1278 H 0.69545 0.77335 0.25121 0.0
C1279 C 0.59884 0.77488 0.16901 0.0
H1280 H 0.62034 0.77309 0.27928 0.0
C1281 C 0.64159 0.77425 0.15287 0.0
C1282 C 0.67685 0.774 0.18227 0.0
H1283 H 0.57229 0.77605 0.14564 0.0
H1284 H 0.64721 0.77491 0.11767 0.0
C1285 C 0.66869 0.77334 0.22792 0.0
C1286 C 0.15303 1.00594 0.21086 0.0
C1287 C 0.17356 0.98965 0.22223 0.0
H1288 H 0.09668 0.01849 0.18112 0.0
C1289 C 0.15304 0.97337 0.21153 0.0
H1290 H 0.16877 0.01865 0.21798 0.0
C1291 C 0.11268 0.97327 0.1901 0.0
C1292 C 0.09197 0.98945 0.17864 0.0
H1293 H 0.16858 0.96068 0.21964 0.0
H1294 H 0.0972 0.96051 0.18278 0.0
C1295 C 0.1125 1.00584 0.18891 0.0
C1296 C 0.3672 0.5159 0.93713 0.0
C1297 C 0.34799 0.53226 0.92447 0.0
H1298 H 0.42119 0.50304 0.9701 0.0
C1299 C 0.36763 0.54847 0.93746 0.0
H1300 H 0.35173 0.50329 0.9284 0.0
C1301 C 0.40589 0.54832 0.96276 0.0
C1302 C 0.4253 0.53196 0.97514 0.0
H1303 H 0.35247 0.56122 0.92929 0.0
H1304 H 0.4212 0.56097 0.97142 0.0
C1305 C 0.40589 0.51575 0.96184 0.0
C1306 C 0.86603 0.7259 0.96178 0.0
C1307 C 0.84506 0.74208 0.97246 0.0
H1308 H 0.92191 0.71324 0.93285 0.0
C1309 C 0.86541 0.75846 0.96151 0.0
H1310 H 0.8508 0.71313 0.96968 0.0
C1311 C 0.90606 0.75852 0.93978 0.0
C1312 C 0.92685 0.74221 0.92926 0.0
H1313 H 0.84941 0.77111 0.96868 0.0
H1314 H 0.92169 0.77122 0.93223 0.0
C1315 C 0.90635 0.72596 0.94042 0.0
C1316 C 0.35093 0.73953 0.42058 0.0
C1317 C 0.34243 0.73949 0.46625 0.0
H1318 H 0.3997 0.73992 0.36953 0.0
C1319 C 0.37761 0.74048 0.49576 0.0
H1320 H 0.32438 0.73882 0.39703 0.0
C1321 C 0.42058 0.74059 0.47994 0.0
C1322 C 0.42915 0.74029 0.43432 0.0
H1323 H 0.37188 0.74046 0.53098 0.0
H1324 H 0.44714 0.74062 0.50353 0.0
C1325 C 0.39392 0.74021 0.40473 0.0
C1326 C 0.8669 0.51359 0.43575 0.0
C1327 C 0.84782 0.53 0.42326 0.0
H1328 H 0.92062 0.50061 0.46893 0.0
C1329 C 0.86724 0.54615 0.43695 0.0
H1330 H 0.85156 0.50101 0.42651 0.0
C1331 C 0.90519 0.54591 0.46268 0.0
C1332 C 0.92453 0.52951 0.47483 0.0
H1333 H 0.85214 0.55893 0.42895 0.0
H1334 H 0.92039 0.55853 0.47181 0.0
C1335 C 0.90532 0.51335 0.46089 0.0
C1336 C 0.65599 0.49931 0.21162 0.0
C1337 C 0.67519 0.48298 0.22454 0.0
H1338 H 0.60197 0.5121 0.17852 0.0
C1339 C 0.65553 0.46674 0.21182 0.0
H1340 H 0.67147 0.51195 0.22015 0.0
C1341 C 0.61724 0.46683 0.18657 0.0
C1342 C 0.59782 0.48316 0.17395 0.0
H1343 H 0.67068 0.45401 0.22018 0.0
H1344 H 0.6019 0.45417 0.17813 0.0
C1345 C 0.61727 0.4994 0.18696 0.0
C1346 C 0.11561 0.28937 0.21174 0.0
C1347 C 0.09502 0.27308 0.22237 0.0
H1348 H 0.17104 0.3023 0.18256 0.0
C1349 C 0.1156 0.25681 0.21111 0.0
H1350 H 0.1002 0.30206 0.21987 0.0
C1351 C 0.15611 0.25695 0.18912 0.0
C1352 C 0.17651 0.27336 0.17864 0.0
H1353 H 0.09989 0.24408 0.21824 0.0
H1354 H 0.17193 0.24432 0.18135 0.0
C1355 C 0.15577 0.28951 0.19009 0.0
C1356 C 0.62805 0.27365 0.74518 0.0
C1357 C 0.59279 0.27377 0.71569 0.0
H1358 H 0.69754 0.27485 0.75264 0.0
C1359 C 0.60117 0.2734 0.67004 0.0
H1360 H 0.62237 0.27405 0.78039 0.0
C1361 C 0.64409 0.27317 0.65408 0.0
C1362 C 0.67934 0.27399 0.68352 0.0
H1363 H 0.57453 0.27362 0.64658 0.0
H1364 H 0.64974 0.27317 0.61885 0.0
C1365 C 0.67095 0.2741 0.72919 0.0
C1366 C 0.11797 0.46839 0.68737 0.0
C1367 C 0.09853 0.48465 0.67431 0.0
H1368 H 0.17122 0.45573 0.72162 0.0
C1369 C 0.11774 0.50096 0.68722 0.0
H1370 H 0.10281 0.45567 0.67903 0.0
C1371 C 0.15626 0.50099 0.7122 0.0
C1372 C 0.17547 0.48472 0.72554 0.0
H1373 H 0.10239 0.51361 0.67845 0.0
H1374 H 0.17159 0.51366 0.72062 0.0
C1375 C 0.15604 0.46842 0.71294 0.0
C1376 C 1.00242 0.01139 0.61432 0.0
C1377 C 0.98253 0.99765 0.58955 0.0
H1378 H 0.04991 0.03261 0.61562 0.0
C1379 C 0.99513 0.99525 0.5455 0.0
H1380 H 0.99377 0.01344 0.64853 0.0
C1381 C 0.0271 1.00627 0.52668 0.0
C1382 C 0.04738 0.01988 0.55154 0.0
H1383 H 0.97981 0.98503 0.52534 0.0
H1384 H 0.03569 1.0042 0.49247 0.0
C1385 C 0.03449 0.02241 0.59549 0.0
C1386 C 0.27147 0.25494 0.61736 0.0
C1387 C 0.29161 0.26849 0.59207 0.0
H1388 H 0.22452 0.23357 0.61915 0.0
C1389 C 0.27925 0.27067 0.54783 0.0
H1390 H 0.27979 0.25312 0.65177 0.0
C1391 C 0.24762 0.25945 0.52919 0.0
C1392 C 0.22767 0.24585 0.55445 0.0
H1393 H 0.29468 0.28078 0.52735 0.0
H1394 H 0.23922 0.26126 0.49479 0.0
C1395 C 0.23992 0.2437 0.59871 0.0
C1396 C 1.00036 0.2555 0.78234 0.0
C1397 C 0.98006 0.26902 0.80745 0.0
H1398 H 0.04749 0.23418 0.78087 0.0
C1399 C 0.99229 0.27121 0.8517 0.0
H1400 H 0.99214 0.25368 0.74793 0.0
C1401 C 0.02396 0.26002 0.87052 0.0
C1402 C 0.04409 0.24645 0.84544 0.0
H1403 H 0.97673 0.2813 0.87203 0.0
H1404 H 0.03226 0.26183 0.90492 0.0
C1405 C 0.03196 0.24429 0.80118 0.0
C1406 C 0.22338 0.99999 0.84239 0.0
C1407 C 0.2282 0.0188 0.84354 0.0
H1408 H 0.25104 0.9748 0.82287 0.0
C1409 C 0.26615 0.02658 0.82557 0.0
H1410 H 0.19414 0.99359 0.85522 0.0
C1411 C 0.2987 0.01578 0.80702 0.0
C1412 C 0.2939 0.99698 0.80588 0.0
H1413 H 0.27105 0.04098 0.82655 0.0
H1414 H 0.32794 0.02219 0.79421 0.0
C1415 C 0.25594 0.9892 0.82384 0.0
C1416 C 0.78168 0.77202 0.55211 0.0
C1417 C 0.79377 0.76988 0.59642 0.0
H1418 H 0.74213 0.76251 0.49887 0.0
C1419 C 0.77355 0.75635 0.62169 0.0
H1420 H 0.79723 0.78212 0.53169 0.0
C1421 C 0.7421 0.74508 0.60293 0.0
C1422 C 0.73012 0.74717 0.55856 0.0
H1423 H 0.78176 0.75457 0.65613 0.0
H1424 H 0.72661 0.73498 0.62337 0.0
C1425 C 0.75025 0.76075 0.53334 0.0
C1426 C 0.99182 0.77348 0.34723 0.0
C1427 C 0.97944 0.77142 0.30301 0.0
H1428 H 0.03176 0.76385 0.4002 0.0
C1429 C 0.99983 0.75806 0.27747 0.0
H1430 H 0.9762 0.78347 0.36782 0.0
C1431 C 0.03148 0.74679 0.29596 0.0
C1432 C 0.04354 0.74871 0.34031 0.0
H1433 H 0.99145 0.75636 0.24306 0.0
H1434 H 0.04695 0.73676 0.27537 0.0
C1435 C 0.02351 0.76221 0.36574 0.0
C1436 C 0.74795 1.00576 0.37002 0.0
C1437 C 0.72754 0.01932 0.3449 0.0
H1438 H 0.79599 0.98478 0.37198 0.0
C1439 C 0.74087 0.02197 0.3011 0.0
H1440 H 0.73901 1.00359 0.40413 0.0
C1441 C 0.77356 0.01115 0.2827 0.0
C1442 C 0.79371 0.9975 0.30776 0.0
H1443 H 0.72538 0.03211 0.28074 0.0
H1444 H 0.78251 0.0133 0.24859 0.0
C1445 C 0.78057 0.99494 0.35162 0.0
C1446 C 0.02626 0.50537 1.03137 0.0
C1447 C 0.04554 0.5186 1.05816 0.0
H1448 H 0.97807 0.48457 1.0261 0.0
C1449 C 0.03057 0.52072 0.10155 0.0
H1450 H 0.0366 0.50361 0.99754 0.0
C1451 C 0.99709 0.5098 0.11787 0.0
C1452 C 0.97779 0.49657 0.09107 0.0
H1453 H 0.04527 0.5306 0.12315 0.0
H1454 H 0.98674 0.51155 0.1517 0.0
C1455 C 0.99277 0.49444 1.04769 0.0
C1456 C 0.26937 0.75653 0.11768 0.0
C1457 C 0.28972 0.76993 0.09205 0.0
H1458 H 0.22158 0.73545 0.12014 0.0
C1459 C 0.27726 0.77201 1.04784 0.0
H1460 H 0.27791 0.75477 0.15205 0.0
C1461 C 0.24521 0.7609 1.02957 0.0
C1462 C 0.22471 0.74754 1.05521 0.0
H1463 H 0.29291 0.78198 1.02712 0.0
H1464 H 0.23684 0.76265 0.99516 0.0
C1465 C 0.23723 0.74543 0.09942 0.0
C1466 C 0.28076 0.49468 0.35141 0.0
C1467 C 0.29551 0.49691 0.30797 0.0
H1468 H 0.23689 0.50361 0.40168 0.0
C1469 C 0.27595 0.51016 0.28125 0.0
H1470 H 0.2957 0.4848 0.37296 0.0
C1471 C 0.24226 0.52094 0.29766 0.0
C1472 C 0.22739 0.51866 0.34105 0.0
H1473 H 0.28617 0.512 0.24739 0.0
H1474 H 0.22727 0.5308 0.2761 0.0
C1475 C 0.24711 0.50547 0.36782 0.0
C1476 C 0.78442 0.27149 1.05161 0.0
C1477 C 0.797 0.26917 0.09575 0.0
H1478 H 0.74348 0.26244 0.99884 0.0
C1479 C 0.77614 0.25585 0.1212 0.0
H1480 H 0.80029 0.28146 1.03105 0.0
C1481 C 0.74385 0.24491 0.10277 0.0
C1482 C 0.7315 0.24713 1.05857 0.0
H1483 H 0.78449 0.25397 0.15558 0.0
H1484 H 0.72804 0.23493 0.12334 0.0
C1485 C 0.752 0.26056 1.03318 0.0
C1486 C 0.74292 0.52126 0.79815 0.0
C1487 C 0.72806 0.51895 0.84153 0.0
H1488 H 0.78682 0.51238 0.74784 0.0
C1489 C 0.74764 0.50569 0.86818 0.0
H1490 H 0.72799 0.53116 0.77666 0.0
C1491 C 0.7813 0.49491 0.85172 0.0
C1492 C 0.79617 0.49722 0.80833 0.0
H1493 H 0.73738 0.50379 0.90201 0.0
H1494 H 0.79623 0.48501 0.87321 0.0
C1495 C 0.77658 0.51048 0.78168 0.0
C1496 C 0.49308 0.01092 0.12255 0.0
C1497 C 0.47333 0.99712 0.09788 0.0
H1498 H 0.54016 0.03226 0.12377 0.0
C1499 C 0.48629 0.99458 1.05396 0.0
H1500 H 0.48429 0.01304 0.15669 0.0
C1501 C 0.51823 1.00563 1.03509 0.0
C1502 C 0.53802 0.01942 1.05978 0.0
H1503 H 0.47119 0.98427 1.03392 0.0
H1504 H 0.52705 1.0035 1.00096 0.0
C1505 C 0.52502 0.02197 0.10368 0.0
C1506 C 0.49489 0.25538 0.27941 0.0
C1507 C 0.47437 0.2687 0.30499 0.0
H1508 H 0.5426 0.2343 0.27701 0.0
C1509 C 0.48716 0.27086 0.3491 0.0
H1510 H 0.48639 0.25361 0.24505 0.0
C1511 C 0.51945 0.25978 0.36735 0.0
C1512 C 0.53962 0.24635 0.34183 0.0
H1513 H 0.47155 0.28083 0.36976 0.0
H1514 H 0.52814 0.26154 0.40167 0.0
C1515 C 0.52705 0.24428 0.29768 0.0
C1516 C 0.49449 0.77058 0.8527 0.0
C1517 C 0.48206 0.76856 0.8085 0.0
H1518 H 0.53511 0.76123 0.90532 0.0
C1519 C 0.50241 0.7552 0.78288 0.0
H1520 H 0.4788 0.78051 0.87342 0.0
C1521 C 0.53474 0.74414 0.80111 0.0
C1522 C 0.54739 0.74625 0.84525 0.0
H1523 H 0.49384 0.75349 0.74852 0.0
H1524 H 0.5505 0.73422 0.7804 0.0
C1525 C 0.52669 0.7595 0.87093 0.0
C1526 C 0.4975 0.50999 0.61783 0.0
C1527 C 0.47784 0.49673 0.59139 0.0
H1528 H 0.54612 0.53065 0.62247 0.0
C1529 C 0.49259 0.4944 0.548 0.0
H1530 H 0.48732 0.5119 0.65166 0.0
C1531 C 0.52622 0.50516 0.53132 0.0
C1532 C 0.54588 0.51841 0.55776 0.0
H1533 H 0.4776 0.4845 0.52668 0.0
H1534 H 0.53639 0.50325 0.49749 0.0
C1535 C 0.53113 0.52075 0.60115 0.0
C1536 C 0.32821 0.99082 0.5557 0.0
C1537 C 0.339 0.99743 0.59835 0.0
H1538 H 0.28561 0.99215 0.49862 0.0
C1539 C 0.31047 0.01038 0.61619 0.0
H1540 H 0.34884 0.98079 0.54027 0.0
C1541 C 0.27381 0.01682 0.59195 0.0
C1542 C 0.26346 0.01044 0.54908 0.0
H1543 H 0.3168 0.01579 0.64868 0.0
H1544 H 0.25382 0.02726 0.60664 0.0
C1545 C 0.29123 0.99713 0.53166 0.0
C1546 C 0.9511 0.27502 0.56077 0.0
C1547 C 0.9375 0.26769 0.60194 0.0
H1548 H 0.99578 0.27397 0.50535 0.0
C1549 C 0.9634 0.2537 0.61919 0.0
H1550 H 0.93269 0.28593 0.54596 0.0
C1551 C 0.99998 0.24688 0.59556 0.0
C1552 C 0.01287 0.25386 0.55385 0.0
H1553 H 0.95497 0.24772 0.65064 0.0
H1554 H 0.01777 0.23568 0.60981 0.0
C1555 C 0.98805 0.26835 0.53736 0.0
C1556 C 0.32081 0.27533 0.83848 0.0
C1557 C 0.33441 0.2678 0.7976 0.0
H1558 H 0.27604 0.27457 0.89387 0.0
C1559 C 0.30841 0.25378 0.7808 0.0
H1560 H 0.33928 0.28627 0.85292 0.0
C1561 C 0.27176 0.24713 0.80462 0.0
C1562 C 0.25888 0.25429 0.84608 0.0
H1563 H 0.31684 0.24766 0.74959 0.0
H1564 H 0.25391 0.23589 0.79075 0.0
C1565 C 0.28376 0.26881 0.86206 0.0
C1566 C 1.00304 0.01739 0.80279 0.0
C1567 C 0.01607 0.01014 0.84418 0.0
H1568 H 0.95756 0.01703 0.74803 0.0
C1569 C 0.99131 0.9956 0.86029 0.0
H1570 H 0.02087 0.02864 0.78884 0.0
C1571 C 0.95405 0.98918 0.83695 0.0
C1572 C 0.9402 0.99684 0.79621 0.0
H1573 H 0.99922 0.98978 0.89206 0.0
H1574 H 0.93558 0.97824 0.85147 0.0
C1575 C 0.96619 0.01084 0.7792 0.0
C1576 C 0.75316 0.9979 0.55233 0.0
C1577 C 0.76619 1.00477 0.59403 0.0
H1578 H 0.70663 0.99822 0.49846 0.0
C1579 C 0.74011 0.01858 0.61174 0.0
H1580 H 0.77193 0.9872 0.53721 0.0
C1581 C 0.7017 0.02464 0.58959 0.0
C1582 C 0.68793 0.01734 0.54851 0.0
H1583 H 0.74793 0.02405 0.64384 0.0
H1584 H 0.68228 0.03499 0.60531 0.0
C1585 C 0.71515 1.00411 0.52994 0.0
C1586 C 0.06904 0.73908 0.58659 0.0
C1587 C 0.08387 0.7471 0.54663 0.0
H1588 H 0.02307 0.73936 0.641 0.0
C1589 C 0.05869 0.76147 0.53021 0.0
H1590 H 0.0868 0.72783 0.60061 0.0
C1591 C 0.02177 0.76804 0.55368 0.0
C1592 C 1.00781 0.76044 0.5944 0.0
H1593 H 0.06803 0.76795 0.49964 0.0
H1594 H 1.00466 0.77957 0.54021 0.0
C1595 C 0.03169 0.7455 0.6098 0.0
C1596 C 0.74128 0.74591 0.29031 0.0
C1597 C 0.76464 0.76099 0.30554 0.0
H1598 H 0.68671 0.72796 0.29961 0.0
C1599 C 0.75035 0.76851 0.34614 0.0
H1600 H 0.75016 0.73981 0.2592 0.0
C1601 C 0.7136 0.76176 0.36964 0.0
C1602 C 0.68891 0.74725 0.35337 0.0
H1603 H 0.76705 0.78015 0.35949 0.0
H1604 H 0.70398 0.76821 0.4001 0.0
C1605 C 0.70409 0.7393 0.31354 0.0
C1606 C 0.02248 0.99884 0.34349 0.0
C1607 C 0.01188 1.00475 0.30022 0.0
H1608 H 0.06668 1.00002 0.39924 0.0
C1609 C 0.04048 0.01734 0.28093 0.0
H1610 H 1.00184 0.98896 0.3596 0.0
C1611 C 0.07854 0.02338 0.30356 0.0
C1612 C 0.08958 0.01722 0.3466 0.0
H1613 H 0.03462 0.02192 0.24754 0.0
H1614 H 0.09978 0.03283 0.28674 0.0
C1615 C 0.0602 1.00504 0.36634 0.0
C1616 C 0.28972 0.4974 1.04059 0.0
C1617 C 0.26391 0.5113 1.05829 0.0
H1618 H 0.34623 0.48034 1.04755 0.0
C1619 C 0.27651 0.51777 0.10055 0.0
H1620 H 0.28211 0.49206 1.00831 0.0
C1621 C 0.31364 0.511 0.1236 0.0
C1622 C 0.34046 0.49759 0.10512 0.0
H1623 H 0.25796 0.52853 0.1157 0.0
H1624 H 0.32175 0.51654 0.15556 0.0
C1625 C 0.32722 0.49081 1.06332 0.0
C1626 C 0.96198 0.75643 0.11725 0.0
C1627 C 0.93332 0.76923 0.09877 0.0
H1628 H 0.01876 0.73957 0.10852 0.0
C1629 C 0.94406 0.77562 1.05585 0.0
H1630 H 0.95571 0.75119 0.14998 0.0
C1631 C 0.98109 0.76923 1.03216 0.0
C1632 C 1.00895 0.75605 1.05021 0.0
H1633 H 0.92334 0.78553 1.03993 0.0
H1634 H 0.98665 0.77403 0.99892 0.0
C1635 C 0.99868 0.7499 0.09335 0.0
C1636 C 0.26998 0.74885 0.30219 0.0
C1637 C 0.25758 0.7556 0.34417 0.0
H1638 H 0.31482 0.74976 0.24703 0.0
C1639 C 0.28309 0.76974 0.36116 0.0
H1640 H 0.25161 0.73791 0.2876 0.0
C1641 C 0.32027 0.77631 0.33791 0.0
C1642 C 0.33335 0.76919 0.29644 0.0
H1643 H 0.27573 0.77515 0.39342 0.0
H1644 H 0.33925 0.78694 0.35304 0.0
C1645 C 0.30678 0.75555 0.27873 0.0
C1646 C 0.99727 0.51638 0.29828 0.0
C1647 C 1.00972 0.50973 0.34049 0.0
H1648 H 0.95194 0.51554 0.24331 0.0
C1649 C 0.98365 0.49585 0.35805 0.0
H1650 H 0.01601 0.52714 0.28325 0.0
C1651 C 0.94598 0.4895 0.33528 0.0
C1652 C 0.93283 0.4965 0.29359 0.0
H1653 H 0.99114 0.49038 0.39028 0.0
H1654 H 0.92673 0.47906 0.35098 0.0
C1655 C 0.95997 0.50984 0.27519 0.0
C1656 C 0.74687 0.49758 1.04855 0.0
C1657 C 0.75945 0.50403 0.09083 0.0
H1658 H 0.7016 0.49882 0.99355 0.0
C1659 C 0.73359 0.5179 0.1086 0.0
H1660 H 0.76545 0.48684 1.03335 0.0
C1661 C 0.69607 0.52448 0.0859 0.0
C1662 C 0.68284 0.51772 1.04408 0.0
H1663 H 0.74118 0.52322 0.1409 0.0
H1664 H 0.67702 0.53492 0.10173 0.0
C1665 C 0.70971 0.50435 1.02553 0.0
C1666 C 0.07842 0.24044 0.09499 0.0
C1667 C 0.08925 0.24697 1.05223 0.0
H1668 H 0.03564 0.24181 0.15182 0.0
C1669 C 0.06062 0.25982 1.03391 0.0
H1670 H 0.0991 0.23048 0.11077 0.0
C1671 C 0.02384 0.26626 1.05784 0.0
C1672 C 0.01346 0.25995 0.10082 0.0
H1673 H 0.06695 0.26515 1.00129 0.0
H1674 H 1.00378 0.27663 1.04283 0.0
C1675 C 0.0413 0.24672 0.11869 0.0
C1676 C 0.70293 0.23939 0.8129 0.0
C1677 C 0.68881 0.24707 0.85342 0.0
H1678 H 0.74863 0.23987 0.75828 0.0
C1679 C 0.71492 0.26097 0.87059 0.0
H1680 H 0.68441 0.2285 0.79827 0.0
C1681 C 0.7521 0.26744 0.84735 0.0
C1682 C 0.76542 0.26018 0.80615 0.0
H1683 H 0.70612 0.26718 0.90161 0.0
H1684 H 0.76997 0.27864 0.86138 0.0
C1685 C 0.74055 0.2457 0.78992 0.0
C1686 C 0.0402 0.51895 0.79079 0.0
C1687 C 0.01444 0.50496 0.80827 0.0
H1688 H 0.0966 0.53601 0.79807 0.0
C1689 C 0.02699 0.49833 0.85046 0.0
H1690 H 0.03262 0.5244 0.75856 0.0
C1691 C 0.06404 0.50504 0.87368 0.0
C1692 C 0.09082 0.51853 0.85541 0.0
H1693 H 1.00849 0.48749 0.86544 0.0
H1694 H 0.07213 0.49937 0.90557 0.0
C1695 C 0.07762 0.52547 0.81368 0.0
C1696 C 0.80583 0.0111 0.12127 0.0
C1697 C 0.83223 0.99751 0.10308 0.0
H1698 H 0.74963 0.0283 0.1139 0.0
C1699 C 0.81736 0.98981 1.06285 0.0
H1700 H 0.81517 0.01728 0.15217 0.0
C1701 C 0.77876 0.99586 1.041 0.0
C1702 C 0.75366 0.0101 1.05812 0.0
H1703 H 0.83607 0.97914 1.04752 0.0
H1704 H 0.77013 0.99007 1.00944 0.0
C1705 C 0.76767 0.0173 0.09916 0.0
C1706 C 0.46306 0.25411 0.11927 0.0
C1707 C 0.43635 0.26762 0.10096 0.0
H1708 H 0.51931 0.23693 0.11184 0.0
C1709 C 0.45062 0.27513 1.06022 0.0
H1710 H 0.45417 0.24804 0.15049 0.0
C1711 C 0.48896 0.26903 1.03813 0.0
C1712 C 0.51448 0.25492 1.05551 0.0
H1713 H 0.43164 0.28571 1.04471 0.0
H1714 H 0.49713 0.2747 1.00628 0.0
C1715 C 0.50099 0.24785 0.09692 0.0
C1716 C 0.80825 0.25338 0.28102 0.0
C1717 C 0.83505 0.26675 0.29966 0.0
H1718 H 0.75186 0.23624 0.28801 0.0
C1719 C 0.82085 0.27402 0.3406 0.0
H1720 H 0.81708 0.24749 0.24964 0.0
C1721 C 0.78247 0.26784 0.36255 0.0
C1722 C 0.75682 0.25388 0.3448 0.0
H1723 H 0.8399 0.28447 0.35639 0.0
H1724 H 0.77434 0.27332 0.39454 0.0
C1725 C 0.77027 0.24704 0.30321 0.0
C1726 C 0.48056 0.99733 0.36929 0.0
C1727 C 0.50925 0.00993 0.35014 0.0
H1728 H 0.42099 0.98201 0.36347 0.0
C1729 C 0.49849 0.01602 0.30706 0.0
H1730 H 0.48652 0.99263 0.40256 0.0
C1731 C 0.46053 0.01001 0.28428 0.0
C1732 C 0.43105 0.99783 0.30392 0.0
H1733 H 0.51915 0.02593 0.29109 0.0
H1734 H 0.45395 0.01517 0.25154 0.0
C1735 C 0.44227 0.99148 0.34674 0.0
C1736 C 0.24802 0.99869 1.0582 0.0
C1737 C 0.25792 1.00489 0.10132 0.0
H1738 H 0.2056 0.99998 1.00109 0.0
C1739 C 0.23002 0.01812 0.11885 0.0
H1740 H 0.26817 0.98832 1.04342 0.0
C1741 C 0.19331 0.02454 0.09463 0.0
C1742 C 0.18298 0.01812 1.05171 0.0
H1743 H 0.23533 0.02295 0.15207 0.0
H1744 H 0.17255 0.03451 0.11011 0.0
C1745 C 0.21162 1.00524 1.03379 0.0
C1746 C 0.56917 0.74024 0.08865 0.0
C1747 C 0.58435 0.74792 1.04842 0.0
H1748 H 0.52198 0.74067 0.14201 0.0
C1749 C 0.55844 0.76172 1.03029 0.0
H1750 H 0.58749 0.72943 0.10399 0.0
C1751 C 0.5205 0.76813 1.0524 0.0
C1752 C 0.50617 0.76092 0.09341 0.0
H1753 H 0.56801 0.76793 0.99945 0.0
H1754 H 0.50288 0.77928 1.03767 0.0
C1755 C 0.5308 0.74648 0.11049 0.0
C1756 C 0.23932 0.74711 0.78803 0.0
C1757 C 0.26484 0.76121 0.80529 0.0
H1758 H 0.18206 0.73041 0.79478 0.0
C1759 C 0.25133 0.76826 0.84666 0.0
H1760 H 0.24749 0.74147 0.75621 0.0
C1761 C 0.21344 0.76197 0.86909 0.0
C1762 C 0.18676 0.74846 0.85091 0.0
H1763 H 0.26963 0.77917 0.86148 0.0
H1764 H 0.20456 0.76801 0.90027 0.0
C1765 C 0.20102 0.74098 0.81021 0.0
C1766 C 0.53052 0.02039 0.7904 0.0
C1767 C 0.50582 1.00578 0.8063 0.0
H1768 H 0.58612 0.0378 0.79956 0.0
C1769 C 0.51879 0.9985 0.84768 0.0
H1770 H 0.52265 0.02625 0.75867 0.0
C1771 C 0.55554 1.00505 0.87142 0.0
C1772 C 0.58149 0.0191 0.85462 0.0
H1773 H 0.501 0.98721 0.86149 0.0
H1774 H 0.56413 0.99882 0.90254 0.0
C1775 C 0.56769 0.02681 0.81392 0.0
C1776 C 0.81425 0.51133 0.62303 0.0
C1777 C 0.84105 0.49775 0.60529 0.0
H1778 H 0.75858 0.52879 0.61413 0.0
C1779 C 0.82767 0.49052 0.564 0.0
H1780 H 0.82248 0.51722 0.65457 0.0
C1781 C 0.7901 0.49685 0.54098 0.0
C1782 C 0.76438 0.51095 0.55784 0.0
H1783 H 0.84664 0.47989 0.54884 0.0
H1784 H 0.7824 0.49117 0.50909 0.0
C1785 C 0.77707 0.51786 0.59964 0.0
C1786 C 0.50339 0.74852 0.59836 0.0
C1787 C 0.51643 0.75554 0.55676 0.0
H1788 H 0.45767 0.74908 0.65283 0.0
C1789 C 0.4913 0.76986 0.53989 0.0
H1790 H 0.52146 0.73745 0.61288 0.0
C1791 C 0.45377 0.77628 0.56274 0.0
C1792 C 0.43996 0.76885 0.60373 0.0
H1793 H 0.49918 0.77549 0.50792 0.0
H1794 H 0.43507 0.78704 0.54766 0.0
C1795 C 0.46625 0.75508 0.62145 0.0
C1796 C 0.77436 0.74893 0.80735 0.0
C1797 C 0.76388 0.75521 0.85026 0.0
H1798 H 0.81753 0.7501 0.75083 0.0
C1799 C 0.79158 0.76847 0.86801 0.0
H1800 H 0.75442 0.73854 0.79241 0.0
C1801 C 0.82866 0.77482 0.84427 0.0
C1802 C 0.8396 0.76832 0.80158 0.0
H1803 H 0.78585 0.77337 0.90109 0.0
H1804 H 0.84924 0.78481 0.85997 0.0
C1805 C 0.81111 0.75542 0.78338 0.0
C1806 C 0.45995 0.51131 0.77578 0.0
C1807 C 0.43303 0.49788 0.79415 0.0
H1808 H 0.51573 0.52875 0.78386 0.0
C1809 C 0.44624 0.49094 0.83588 0.0
H1810 H 0.45186 0.51697 0.74388 0.0
C1811 C 0.48377 0.4974 0.85868 0.0
C1812 C 0.50966 0.51133 0.84111 0.0
H1813 H 0.42716 0.48045 0.85157 0.0
H1814 H 0.49134 0.49195 0.89091 0.0
C1815 C 0.49712 0.51796 0.79891 0.0
C1816 C 0.23441 0.51868 0.60766 0.0
C1817 C 0.25966 0.50443 0.59092 0.0
H1818 H 0.17852 0.53598 0.5996 0.0
C1819 C 0.2467 0.4975 0.54921 0.0
H1820 H 0.2423 0.52436 0.63952 0.0
C1821 C 0.20973 0.5042 0.52577 0.0
C1822 C 0.18346 0.51799 0.54331 0.0
H1823 H 0.26482 0.48645 0.53481 0.0
H1824 H 0.20128 0.4983 0.49428 0.0
C1825 C 0.1971 0.52521 0.58454 0.0
C1826 C 0.53059 0.24475 0.60993 0.0
C1827 C 0.50603 0.2593 0.59337 0.0
H1828 H 0.58638 0.22733 0.60198 0.0
C1829 C 0.51955 0.26644 0.55204 0.0
H1830 H 0.52234 0.239 0.64167 0.0
C1831 C 0.55663 0.2598 0.52898 0.0
C1832 C 0.58242 0.24582 0.54645 0.0
H1833 H 0.50192 0.27768 0.53773 0.0
H1834 H 0.56559 0.26592 0.49784 0.0
C1835 C 0.5681 0.23826 0.58712 0.0
C1836 C 0.2108 0.25928 0.36657 0.0
C1837 C 0.18225 0.24649 0.34802 0.0
H1838 H 0.26756 0.27616 0.35799 0.0
C1839 C 0.19314 0.24018 0.30516 0.0
H1840 H 0.20442 0.26446 0.39927 0.0
C1841 C 0.23024 0.2466 0.28158 0.0
C1842 C 0.25801 0.25976 0.2997 0.0
H1843 H 0.17251 0.23028 0.2892 0.0
H1844 H 0.23595 0.24184 0.24838 0.0
C1845 C 0.24756 0.26586 0.34277 0.0
C1846 C 0.56346 0.50397 0.37333 0.0
C1847 C 0.5906 0.51729 0.35487 0.0
H1848 H 0.50742 0.48666 0.36534 0.0
C1849 C 0.57755 0.52421 0.31307 0.0
H1850 H 0.57143 0.49833 0.40528 0.0
C1851 C 0.53994 0.51782 0.29029 0.0
C1852 C 0.51382 0.50398 0.30795 0.0
H1853 H 0.59681 0.53463 0.29732 0.0
H1854 H 0.53249 0.52324 0.25801 0.0
C1855 C 0.52621 0.49738 0.35022 0.0
loop_
_geom_bond_atom_site_label_1
_geom_bond_atom_site_label_2
_geom_bond_distance
_geom_bond_site_symmetry_2
_ccdc_geom_bond_type
C0 C1 1.351 . S
C0 N3 1.368 . S
C0 H5 0.931 . S
C1 C0 1.351 . S
C1 N2 1.373 . S
C1 H29 0.930 . S
N2 C1 1.373 . S
N2 C4 1.340 . S
N3 C0 1.368 . S
N3 C4 1.321 . S
N3 Co6 2.135 . S
C4 N2 1.340 . S
C4 N3 1.321 . S
C4 H28 0.930 . S
H5 C0 0.931 . S
Co6 N3 2.135 . S
Co6 N9 2.121 . S
Co6 O14 2.055 . S
Co6 O17 2.039 . S
Co6 N20 2.140 . S
C7 O8 1.227 . S
C7 O17 1.265 . S
O8 C7 1.227 . S
N9 Co6 2.121 . S
N9 C11 1.375 . S
N9 C12 1.313 . S
C10 C11 1.338 . S
C10 N13 1.377 . S
C10 H30 0.930 . S
C11 N9 1.375 . S
C11 C10 1.338 . S
C11 H15 0.931 . S
C12 N9 1.313 . S
C12 N13 1.344 . S
C12 H16 0.930 . S
N13 C10 1.377 . S
N13 C12 1.344 . S
O14 Co6 2.055 . S
O14 C18 1.253 . S
H15 C11 0.931 . S
H16 C12 0.930 . S
O17 Co6 2.039 . S
O17 C7 1.265 . S
C18 O14 1.253 . S
C18 O19 1.227 . S
O19 C18 1.227 . S
N20 Co6 2.140 . S
N20 C23 1.346 . S
N20 C24 1.345 . S
C21 C22 1.387 . S
C21 C25 1.391 . S
C22 C21 1.387 . S
C22 C23 1.369 . S
C22 H31 0.929 . S
C23 N20 1.346 . S
C23 C22 1.369 . S
C23 H26 0.928 . S
C24 N20 1.345 . S
C24 C25 1.371 . S
C24 H27 0.931 . S
C25 C21 1.391 . S
C25 C24 1.371 . S
C25 H32 0.930 . S
H26 C23 0.928 . S
H27 C24 0.931 . S
H28 C4 0.930 . S
H29 C1 0.930 . S
H30 C10 0.930 . S
H31 C22 0.929 . S
H32 C25 0.930 . S
C33 C34 1.351 . S
C33 N36 1.368 . S
C33 H38 0.931 . S
C34 C33 1.351 . S
C34 N35 1.373 . S
C34 H62 0.930 . S
N35 C34 1.373 . S
N35 C37 1.340 . S
N36 C33 1.368 . S
N36 C37 1.321 . S
N36 Co39 2.135 . S
C37 N35 1.340 . S
C37 N36 1.321 . S
C37 H61 0.930 . S
H38 C33 0.931 . S
Co39 N36 2.135 . S
Co39 N42 2.121 . S
Co39 O47 2.055 . S
Co39 O50 2.039 . S
Co39 N53 2.140 . S
C40 O41 1.227 . S
C40 O50 1.265 . S
O41 C40 1.227 . S
N42 Co39 2.121 . S
N42 C44 1.375 . S
N42 C45 1.313 1_455 S
C43 C44 1.338 1_655 S
C43 N46 1.377 . S
C43 H63 0.930 . S
C44 N42 1.375 . S
C44 C43 1.338 1_455 S
C44 H48 0.931 . S
C45 N42 1.313 1_655 S
C45 N46 1.344 . S
C45 H49 0.930 . S
N46 C43 1.377 . S
N46 C45 1.344 . S
O47 Co39 2.055 . S
O47 C51 1.253 . S
H48 C44 0.931 . S
H49 C45 0.930 . S
O50 Co39 2.039 . S
O50 C40 1.265 . S
C51 O47 1.253 . S
C51 O52 1.227 . S
O52 C51 1.227 . S
N53 Co39 2.140 . S
N53 C56 1.346 . S
N53 C57 1.345 . S
C54 C55 1.387 . S
C54 C58 1.391 . S
C55 C54 1.387 . S
C55 C56 1.369 . S
C55 H64 0.929 . S
C56 N53 1.346 . S
C56 C55 1.369 . S
C56 H59 0.928 . S
C57 N53 1.345 . S
C57 C58 1.371 . S
C57 H60 0.931 . S
C58 C54 1.391 . S
C58 C57 1.371 . S
C58 H65 0.930 . S
H59 C56 0.928 . S
H60 C57 0.931 . S
H61 C37 0.930 . S
H62 C34 0.930 . S
H63 C43 0.930 . S
H64 C55 0.929 . S
H65 C58 0.930 . S
C66 C67 1.351 . S
C66 N69 1.368 . S
C66 H71 0.931 . S
C67 C66 1.351 . S
C67 N68 1.373 . S
C67 H95 0.930 . S
N68 C67 1.373 . S
N68 C70 1.340 . S
N69 C66 1.368 . S
N69 C70 1.321 . S
N69 Co72 2.135 . S
C70 N68 1.340 . S
C70 N69 1.321 . S
C70 H94 0.930 . S
H71 C66 0.931 . S
Co72 N69 2.135 . S
Co72 N75 2.121 . S
Co72 O80 2.055 . S
Co72 O83 2.039 . S
Co72 N86 2.140 . S
C73 O74 1.227 . S
C73 O83 1.265 . S
O74 C73 1.227 . S
N75 Co72 2.121 . S
N75 C77 1.375 . S
N75 C78 1.313 . S
C76 C77 1.338 . S
C76 N79 1.377 . S
C76 H96 0.930 . S
C77 N75 1.375 . S
C77 C76 1.338 . S
C77 H81 0.931 . S
C78 N75 1.313 . S
C78 N79 1.344 . S
C78 H82 0.930 . S
N79 C76 1.377 . S
N79 C78 1.344 . S
O80 Co72 2.055 . S
O80 C84 1.253 . S
H81 C77 0.931 . S
H82 C78 0.930 . S
O83 Co72 2.039 . S
O83 C73 1.265 . S
C84 O80 1.253 . S
C84 O85 1.227 . S
O85 C84 1.227 . S
N86 Co72 2.140 . S
N86 C89 1.346 . S
N86 C90 1.345 . S
C87 C88 1.387 . S
C87 C91 1.391 . S
C88 C87 1.387 . S
C88 C89 1.369 . S
C88 H97 0.929 . S
C89 N86 1.346 . S
C89 C88 1.369 . S
C89 H92 0.928 . S
C90 N86 1.345 . S
C90 C91 1.371 . S
C90 H93 0.931 . S
C91 C87 1.391 . S
C91 C90 1.371 . S
C91 H98 0.930 . S
H92 C89 0.928 . S
H93 C90 0.931 . S
H94 C70 0.930 . S
H95 C67 0.930 . S
H96 C76 0.930 . S
H97 C88 0.929 . S
H98 C91 0.930 . S
C99 C100 1.351 . S
C99 N102 1.368 . S
C99 H104 0.931 . S
C100 C99 1.351 . S
C100 N101 1.373 . S
C100 H128 0.930 . S
N101 C100 1.373 . S
N101 C103 1.340 . S
N102 C99 1.368 . S
N102 C103 1.321 . S
N102 Co105 2.135 . S
C103 N101 1.340 . S
C103 N102 1.321 . S
C103 H127 0.930 . S
H104 C99 0.931 . S
Co105 N102 2.135 . S
Co105 N108 2.121 . S
Co105 O113 2.055 . S
Co105 O116 2.039 . S
Co105 N119 2.140 . S
C106 O107 1.227 . S
C106 O116 1.265 . S
O107 C106 1.227 . S
N108 Co105 2.121 . S
N108 C110 1.375 . S
N108 C111 1.313 1_455 S
C109 C110 1.338 1_655 S
C109 N112 1.377 . S
C109 H129 0.930 . S
C110 N108 1.375 . S
C110 C109 1.338 1_455 S
C110 H114 0.931 . S
C111 N108 1.313 1_655 S
C111 N112 1.344 . S
C111 H115 0.930 . S
N112 C109 1.377 . S
N112 C111 1.344 . S
O113 Co105 2.055 . S
O113 C117 1.253 . S
H114 C110 0.931 . S
H115 C111 0.930 . S
O116 Co105 2.039 . S
O116 C106 1.265 . S
C117 O113 1.253 . S
C117 O118 1.227 . S
O118 C117 1.227 . S
N119 Co105 2.140 . S
N119 C122 1.346 . S
N119 C123 1.345 . S
C120 C121 1.387 . S
C120 C124 1.391 . S
C121 C120 1.387 . S
C121 C122 1.369 . S
C121 H130 0.929 . S
C122 N119 1.346 . S
C122 C121 1.369 . S
C122 H125 0.928 . S
C123 N119 1.345 . S
C123 C124 1.371 . S
C123 H126 0.931 . S
C124 C120 1.391 . S
C124 C123 1.371 . S
C124 H131 0.930 . S
H125 C122 0.928 . S
H126 C123 0.931 . S
H127 C103 0.930 . S
H128 C100 0.930 . S
H129 C109 0.930 . S
H130 C121 0.929 . S
H131 C124 0.930 . S
C132 C133 1.351 . S
C132 N135 1.368 . S
C132 H137 0.931 . S
C133 C132 1.351 . S
C133 N134 1.373 . S
C133 H161 0.930 . S
N134 C133 1.373 . S
N134 C136 1.340 . S
N135 C132 1.368 . S
N135 C136 1.321 . S
N135 Co138 2.135 . S
C136 N134 1.340 . S
C136 N135 1.321 . S
C136 H160 0.930 . S
H137 C132 0.931 . S
Co138 N135 2.135 . S
Co138 N141 2.121 . S
Co138 O146 2.055 . S
Co138 O149 2.039 . S
Co138 N152 2.140 . S
C139 O140 1.227 . S
C139 O149 1.265 . S
O140 C139 1.227 . S
N141 Co138 2.121 . S
N141 C143 1.375 . S
N141 C144 1.313 . S
C142 C143 1.338 . S
C142 N145 1.377 . S
C142 H162 0.930 . S
C143 N141 1.375 . S
C143 C142 1.338 . S
C143 H147 0.931 . S
C144 N141 1.313 . S
C144 N145 1.344 . S
C144 H148 0.930 . S
N145 C142 1.377 . S
N145 C144 1.344 . S
O146 Co138 2.055 . S
O146 C150 1.253 . S
H147 C143 0.931 . S
H148 C144 0.930 . S
O149 Co138 2.039 . S
O149 C139 1.265 . S
C150 O146 1.253 . S
C150 O151 1.227 . S
O151 C150 1.227 . S
N152 Co138 2.140 . S
N152 C155 1.346 . S
N152 C156 1.345 . S
C153 C154 1.387 . S
C153 C157 1.391 . S
C154 C153 1.387 . S
C154 C155 1.369 . S
C154 H163 0.929 . S
C155 N152 1.346 . S
C155 C154 1.369 . S
C155 H158 0.928 . S
C156 N152 1.345 . S
C156 C157 1.371 . S
C156 H159 0.931 . S
C157 C153 1.391 . S
C157 C156 1.371 . S
C157 H164 0.930 . S
H158 C155 0.928 . S
H159 C156 0.931 . S
H160 C136 0.930 . S
H161 C133 0.930 . S
H162 C142 0.930 . S
H163 C154 0.929 . S
H164 C157 0.930 . S
C165 C166 1.351 . S
C165 N168 1.368 . S
C165 H170 0.931 . S
C166 C165 1.351 . S
C166 N167 1.373 . S
C166 H194 0.930 . S
N167 C166 1.373 . S
N167 C169 1.340 . S
N168 C165 1.368 . S
N168 C169 1.321 . S
N168 Co171 2.135 . S
C169 N167 1.340 . S
C169 N168 1.321 . S
C169 H193 0.930 . S
H170 C165 0.931 . S
Co171 N168 2.135 . S
Co171 N174 2.121 . S
Co171 O179 2.055 . S
Co171 O182 2.039 . S
Co171 N185 2.140 . S
C172 O173 1.227 . S
C172 O182 1.265 . S
O173 C172 1.227 . S
N174 Co171 2.121 . S
N174 C176 1.375 . S
N174 C177 1.313 1_655 S
C175 C176 1.338 1_455 S
C175 N178 1.377 . S
C175 H195 0.930 . S
C176 N174 1.375 . S
C176 C175 1.338 1_655 S
C176 H180 0.931 . S
C177 N174 1.313 1_455 S
C177 N178 1.344 . S
C177 H181 0.930 . S
N178 C175 1.377 . S
N178 C177 1.344 . S
O179 Co171 2.055 . S
O179 C183 1.253 . S
H180 C176 0.931 . S
H181 C177 0.930 . S
O182 Co171 2.039 . S
O182 C172 1.265 . S
C183 O179 1.253 . S
C183 O184 1.227 . S
O184 C183 1.227 . S
N185 Co171 2.140 . S
N185 C188 1.346 . S
N185 C189 1.345 . S
C186 C187 1.387 . S
C186 C190 1.391 . S
C187 C186 1.387 . S
C187 C188 1.369 . S
C187 H196 0.929 . S
C188 N185 1.346 . S
C188 C187 1.369 . S
C188 H191 0.928 . S
C189 N185 1.345 . S
C189 C190 1.371 . S
C189 H192 0.931 . S
C190 C186 1.391 . S
C190 C189 1.371 . S
C190 H197 0.930 . S
H191 C188 0.928 . S
H192 C189 0.931 . S
H193 C169 0.930 . S
H194 C166 0.930 . S
H195 C175 0.930 . S
H196 C187 0.929 . S
H197 C190 0.930 . S
C198 C199 1.351 . S
C198 N201 1.368 . S
C198 H203 0.931 . S
C199 C198 1.351 . S
C199 N200 1.373 . S
C199 H227 0.930 . S
N200 C199 1.373 . S
N200 C202 1.340 . S
N201 C198 1.368 . S
N201 C202 1.321 . S
N201 Co204 2.135 . S
C202 N200 1.340 . S
C202 N201 1.321 . S
C202 H226 0.930 . S
H203 C198 0.931 . S
Co204 N201 2.135 . S
Co204 N207 2.121 . S
Co204 O212 2.055 . S
Co204 O215 2.039 . S
Co204 N218 2.140 . S
C205 O206 1.227 . S
C205 O215 1.265 . S
O206 C205 1.227 . S
N207 Co204 2.121 . S
N207 C209 1.375 . S
N207 C210 1.313 . S
C208 C209 1.338 . S
C208 N211 1.377 . S
C208 H228 0.930 . S
C209 N207 1.375 . S
C209 C208 1.338 . S
C209 H213 0.931 . S
C210 N207 1.313 . S
C210 N211 1.344 . S
C210 H214 0.930 . S
N211 C208 1.377 . S
N211 C210 1.344 . S
O212 Co204 2.055 . S
O212 C216 1.253 . S
H213 C209 0.931 . S
H214 C210 0.930 . S
O215 Co204 2.039 . S
O215 C205 1.265 . S
C216 O212 1.253 . S
C216 O217 1.227 . S
O217 C216 1.227 . S
N218 Co204 2.140 . S
N218 C221 1.346 . S
N218 C222 1.345 . S
C219 C220 1.387 . S
C219 C223 1.391 . S
C220 C219 1.387 . S
C220 C221 1.369 . S
C220 H229 0.929 . S
C221 N218 1.346 . S
C221 C220 1.369 . S
C221 H224 0.928 . S
C222 N218 1.345 . S
C222 C223 1.371 . S
C222 H225 0.931 . S
C223 C219 1.391 . S
C223 C222 1.371 . S
C223 H230 0.930 . S
H224 C221 0.928 . S
H225 C222 0.931 . S
H226 C202 0.930 . S
H227 C199 0.930 . S
H228 C208 0.930 . S
H229 C220 0.929 . S
H230 C223 0.930 . S
C231 C232 1.351 . S
C231 N234 1.368 . S
C231 H236 0.931 . S
C232 C231 1.351 . S
C232 N233 1.373 . S
C232 H260 0.930 . S
N233 C232 1.373 . S
N233 C235 1.340 . S
N234 C231 1.368 . S
N234 C235 1.321 . S
N234 Co237 2.135 . S
C235 N233 1.340 . S
C235 N234 1.321 . S
C235 H259 0.930 . S
H236 C231 0.931 . S
Co237 N234 2.135 . S
Co237 N240 2.121 . S
Co237 O245 2.055 . S
Co237 O248 2.039 . S
Co237 N251 2.140 . S
C238 O239 1.227 . S
C238 O248 1.265 . S
O239 C238 1.227 . S
N240 Co237 2.121 . S
N240 C242 1.375 . S
N240 C243 1.313 1_655 S
C241 C242 1.338 1_455 S
C241 N244 1.377 . S
C241 H261 0.930 . S
C242 N240 1.375 . S
C242 C241 1.338 1_655 S
C242 H246 0.931 . S
C243 N240 1.313 1_455 S
C243 N244 1.344 . S
C243 H247 0.930 . S
N244 C241 1.377 . S
N244 C243 1.344 . S
O245 Co237 2.055 . S
O245 C249 1.253 . S
H246 C242 0.931 . S
H247 C243 0.930 . S
O248 Co237 2.039 . S
O248 C238 1.265 . S
C249 O245 1.253 . S
C249 O250 1.227 . S
O250 C249 1.227 . S
N251 Co237 2.140 . S
N251 C254 1.346 . S
N251 C255 1.345 . S
C252 C253 1.387 . S
C252 C256 1.391 . S
C253 C252 1.387 . S
C253 C254 1.369 . S
C253 H262 0.929 . S
C254 N251 1.346 . S
C254 C253 1.369 . S
C254 H257 0.928 . S
C255 N251 1.345 . S
C255 C256 1.371 . S
C255 H258 0.931 . S
C256 C252 1.391 . S
C256 C255 1.371 . S
C256 H263 0.930 . S
H257 C254 0.928 . S
H258 C255 0.931 . S
H259 C235 0.930 . S
H260 C232 0.930 . S
H261 C241 0.930 . S
H262 C253 0.929 . S
H263 C256 0.930 . S
C264 C265 1.351 . S
C264 N267 1.368 1_554 S
C264 H269 0.931 . S
C265 C264 1.351 . S
C265 N266 1.378 . S
C265 H293 0.930 . S
N266 C265 1.378 . S
N266 C268 1.335 1_554 S
N267 C264 1.368 1_556 S
N267 C268 1.321 . S
N267 Co270 2.135 . S
C268 N266 1.335 1_556 S
C268 N267 1.321 . S
C268 H292 0.930 . S
H269 C264 0.931 . S
Co270 N267 2.135 . S
Co270 N273 2.121 . S
Co270 O278 2.055 . S
Co270 O281 2.039 . S
Co270 N284 2.140 . S
C271 O272 1.227 . S
C271 O281 1.265 . S
O272 C271 1.227 . S
N273 Co270 2.121 . S
N273 C275 1.375 . S
N273 C276 1.313 . S
C274 C275 1.338 . S
C274 N277 1.377 . S
C274 H294 0.930 . S
C275 N273 1.375 . S
C275 C274 1.338 . S
C275 H279 0.931 . S
C276 N273 1.313 . S
C276 N277 1.344 . S
C276 H280 0.930 . S
N277 C274 1.377 . S
N277 C276 1.344 . S
O278 Co270 2.055 . S
O278 C282 1.253 . S
H279 C275 0.931 . S
H280 C276 0.930 . S
O281 Co270 2.039 . S
O281 C271 1.265 . S
C282 O278 1.253 . S
C282 O283 1.227 . S
O283 C282 1.227 . S
N284 Co270 2.140 . S
N284 C287 1.346 . S
N284 C288 1.345 . S
C285 C286 1.387 . S
C285 C289 1.391 . S
C286 C285 1.387 . S
C286 C287 1.369 . S
C286 H295 0.929 . S
C287 N284 1.346 . S
C287 C286 1.369 . S
C287 H290 0.928 . S
C288 N284 1.345 . S
C288 C289 1.371 . S
C288 H291 0.931 . S
C289 C285 1.391 . S
C289 C288 1.371 . S
C289 H296 0.930 . S
H290 C287 0.928 . S
H291 C288 0.931 . S
H292 C268 0.930 . S
H293 C265 0.930 . S
H294 C274 0.930 . S
H295 C286 0.929 . S
H296 C289 0.930 . S
C297 C298 1.351 . S
C297 N300 1.368 1_554 S
C297 H302 0.931 . S
C298 C297 1.351 . S
C298 N299 1.378 . S
C298 H326 0.930 . S
N299 C298 1.378 . S
N299 C301 1.335 1_554 S
N300 C297 1.368 1_556 S
N300 C301 1.321 . S
N300 Co303 2.135 . S
C301 N299 1.335 1_556 S
C301 N300 1.321 . S
C301 H325 0.930 . S
H302 C297 0.931 . S
Co303 N300 2.135 . S
Co303 N306 2.121 . S
Co303 O311 2.055 . S
Co303 O314 2.039 . S
Co303 N317 2.140 . S
C304 O305 1.227 . S
C304 O314 1.265 . S
O305 C304 1.227 . S
N306 Co303 2.121 . S
N306 C308 1.375 . S
N306 C309 1.313 1_455 S
C307 C308 1.338 1_655 S
C307 N310 1.377 . S
C307 H327 0.930 . S
C308 N306 1.375 . S
C308 C307 1.338 1_455 S
C308 H312 0.931 . S
C309 N306 1.313 1_655 S
C309 N310 1.344 . S
C309 H313 0.930 . S
N310 C307 1.377 . S
N310 C309 1.344 . S
O311 Co303 2.055 . S
O311 C315 1.253 . S
H312 C308 0.931 . S
H313 C309 0.930 . S
O314 Co303 2.039 . S
O314 C304 1.265 . S
C315 O311 1.253 . S
C315 O316 1.227 . S
O316 C315 1.227 . S
N317 Co303 2.140 . S
N317 C320 1.346 . S
N317 C321 1.345 . S
C318 C319 1.387 . S
C318 C322 1.391 . S
C319 C318 1.387 . S
C319 C320 1.369 . S
C319 H328 0.929 . S
C320 N317 1.346 . S
C320 C319 1.369 . S
C320 H323 0.928 . S
C321 N317 1.345 . S
C321 C322 1.371 . S
C321 H324 0.931 . S
C322 C318 1.391 . S
C322 C321 1.371 . S
C322 H329 0.930 . S
H323 C320 0.928 . S
H324 C321 0.931 . S
H325 C301 0.930 . S
H326 C298 0.930 . S
H327 C307 0.930 . S
H328 C319 0.929 . S
H329 C322 0.930 . S
C330 C331 1.351 . S
C330 N333 1.368 . S
C330 H335 0.931 . S
C331 C330 1.351 . S
C331 N332 1.373 . S
C331 H359 0.930 . S
N332 C331 1.373 . S
N332 C334 1.340 . S
N333 C330 1.368 . S
N333 C334 1.321 . S
N333 Co336 2.135 . S
C334 N332 1.340 . S
C334 N333 1.321 . S
C334 H358 0.930 . S
H335 C330 0.931 . S
Co336 N333 2.135 . S
Co336 N339 2.121 . S
Co336 O344 2.055 . S
Co336 O347 2.039 . S
Co336 N350 2.140 . S
C337 O338 1.227 . S
C337 O347 1.265 . S
O338 C337 1.227 . S
N339 Co336 2.121 . S
N339 C341 1.375 . S
N339 C342 1.313 . S
C340 C341 1.338 . S
C340 N343 1.377 . S
C340 H360 0.930 . S
C341 N339 1.375 . S
C341 C340 1.338 . S
C341 H345 0.931 . S
C342 N339 1.313 . S
C342 N343 1.344 . S
C342 H346 0.930 . S
N343 C340 1.377 . S
N343 C342 1.344 . S
O344 Co336 2.055 . S
O344 C348 1.253 . S
H345 C341 0.931 . S
H346 C342 0.930 . S
O347 Co336 2.039 . S
O347 C337 1.265 . S
C348 O344 1.253 . S
C348 O349 1.227 . S
O349 C348 1.227 . S
N350 Co336 2.140 . S
N350 C353 1.346 . S
N350 C354 1.345 . S
C351 C352 1.387 . S
C351 C355 1.391 . S
C352 C351 1.387 . S
C352 C353 1.369 . S
C352 H361 0.929 . S
C353 N350 1.346 . S
C353 C352 1.369 . S
C353 H356 0.928 . S
C354 N350 1.345 . S
C354 C355 1.371 . S
C354 H357 0.931 . S
C355 C351 1.391 . S
C355 C354 1.371 . S
C355 H362 0.930 . S
H356 C353 0.928 . S
H357 C354 0.931 . S
H358 C334 0.930 . S
H359 C331 0.930 . S
H360 C340 0.930 . S
H361 C352 0.929 . S
H362 C355 0.930 . S
C363 C364 1.351 . S
C363 N366 1.368 . S
C363 H368 0.931 . S
C364 C363 1.351 . S
C364 N365 1.373 . S
C364 H392 0.930 . S
N365 C364 1.373 . S
N365 C367 1.340 . S
N366 C363 1.368 . S
N366 C367 1.321 . S
N366 Co369 2.135 . S
C367 N365 1.340 . S
C367 N366 1.321 . S
C367 H391 0.930 . S
H368 C363 0.931 . S
Co369 N366 2.135 . S
Co369 N372 2.121 . S
Co369 O377 2.055 . S
Co369 O380 2.039 . S
Co369 N383 2.140 . S
C370 O371 1.227 . S
C370 O380 1.265 . S
O371 C370 1.227 . S
N372 Co369 2.121 . S
N372 C374 1.375 . S
N372 C375 1.313 1_455 S
C373 C374 1.338 1_655 S
C373 N376 1.377 . S
C373 H393 0.930 . S
C374 N372 1.375 . S
C374 C373 1.338 1_455 S
C374 H378 0.931 . S
C375 N372 1.313 1_655 S
C375 N376 1.344 . S
C375 H379 0.930 . S
N376 C373 1.377 . S
N376 C375 1.344 . S
O377 Co369 2.055 . S
O377 C381 1.253 . S
H378 C374 0.931 . S
H379 C375 0.930 . S
O380 Co369 2.039 . S
O380 C370 1.265 . S
C381 O377 1.253 . S
C381 O382 1.227 . S
O382 C381 1.227 . S
N383 Co369 2.140 . S
N383 C386 1.346 . S
N383 C387 1.345 . S
C384 C385 1.387 . S
C384 C388 1.391 . S
C385 C384 1.387 . S
C385 C386 1.369 . S
C385 H394 0.929 . S
C386 N383 1.346 . S
C386 C385 1.369 . S
C386 H389 0.928 . S
C387 N383 1.345 . S
C387 C388 1.371 . S
C387 H390 0.931 . S
C388 C384 1.391 . S
C388 C387 1.371 . S
C388 H395 0.930 . S
H389 C386 0.928 . S
H390 C387 0.931 . S
H391 C367 0.930 . S
H392 C364 0.930 . S
H393 C373 0.930 . S
H394 C385 0.929 . S
H395 C388 0.930 . S
C396 C397 1.351 . S
C396 N399 1.368 1_556 S
C396 H401 0.931 . S
C397 C396 1.351 . S
C397 N398 1.378 . S
C397 H425 0.930 . S
N398 C397 1.378 . S
N398 C400 1.335 1_556 S
N399 C396 1.368 1_554 S
N399 C400 1.321 . S
N399 Co402 2.135 . S
C400 N398 1.335 1_554 S
C400 N399 1.321 . S
C400 H424 0.930 . S
H401 C396 0.931 . S
Co402 N399 2.135 . S
Co402 N405 2.121 . S
Co402 O410 2.055 . S
Co402 O413 2.039 . S
Co402 N416 2.140 . S
C403 O404 1.227 . S
C403 O413 1.265 . S
O404 C403 1.227 . S
N405 Co402 2.121 . S
N405 C407 1.375 . S
N405 C408 1.313 . S
C406 C407 1.338 . S
C406 N409 1.377 . S
C406 H426 0.930 . S
C407 N405 1.375 . S
C407 C406 1.338 . S
C407 H411 0.931 . S
C408 N405 1.313 . S
C408 N409 1.344 . S
C408 H412 0.930 . S
N409 C406 1.377 . S
N409 C408 1.344 . S
O410 Co402 2.055 . S
O410 C414 1.253 . S
H411 C407 0.931 . S
H412 C408 0.930 . S
O413 Co402 2.039 . S
O413 C403 1.265 . S
C414 O410 1.253 . S
C414 O415 1.227 . S
O415 C414 1.227 . S
N416 Co402 2.140 . S
N416 C419 1.346 . S
N416 C420 1.345 . S
C417 C418 1.387 . S
C417 C421 1.391 . S
C418 C417 1.387 . S
C418 C419 1.369 . S
C418 H427 0.929 . S
C419 N416 1.346 . S
C419 C418 1.369 . S
C419 H422 0.928 . S
C420 N416 1.345 . S
C420 C421 1.371 . S
C420 H423 0.931 . S
C421 C417 1.391 . S
C421 C420 1.371 . S
C421 H428 0.930 . S
H422 C419 0.928 . S
H423 C420 0.931 . S
H424 C400 0.930 . S
H425 C397 0.930 . S
H426 C406 0.930 . S
H427 C418 0.929 . S
H428 C421 0.930 . S
C429 C430 1.351 . S
C429 N432 1.368 1_556 S
C429 H434 0.931 . S
C430 C429 1.351 . S
C430 N431 1.378 . S
C430 H458 0.930 . S
N431 C430 1.378 . S
N431 C433 1.335 1_556 S
N432 C429 1.368 1_554 S
N432 C433 1.321 . S
N432 Co435 2.135 . S
C433 N431 1.335 1_554 S
C433 N432 1.321 . S
C433 H457 0.930 . S
H434 C429 0.931 . S
Co435 N432 2.135 . S
Co435 N438 2.121 . S
Co435 O443 2.055 . S
Co435 O446 2.039 . S
Co435 N449 2.140 . S
C436 O437 1.227 . S
C436 O446 1.265 . S
O437 C436 1.227 . S
N438 Co435 2.121 . S
N438 C440 1.375 . S
N438 C441 1.313 1_655 S
C439 C440 1.338 1_455 S
C439 N442 1.377 . S
C439 H459 0.930 . S
C440 N438 1.375 . S
C440 C439 1.338 1_655 S
C440 H444 0.931 . S
C441 N438 1.313 1_455 S
C441 N442 1.344 . S
C441 H445 0.930 . S
N442 C439 1.377 . S
N442 C441 1.344 . S
O443 Co435 2.055 . S
O443 C447 1.253 . S
H444 C440 0.931 . S
H445 C441 0.930 . S
O446 Co435 2.039 . S
O446 C436 1.265 . S
C447 O443 1.253 . S
C447 O448 1.227 . S
O448 C447 1.227 . S
N449 Co435 2.140 . S
N449 C452 1.346 . S
N449 C453 1.345 . S
C450 C451 1.387 . S
C450 C454 1.391 . S
C451 C450 1.387 . S
C451 C452 1.369 . S
C451 H460 0.929 . S
C452 N449 1.346 . S
C452 C451 1.369 . S
C452 H455 0.928 . S
C453 N449 1.345 . S
C453 C454 1.371 . S
C453 H456 0.931 . S
C454 C450 1.391 . S
C454 C453 1.371 . S
C454 H461 0.930 . S
H455 C452 0.928 . S
H456 C453 0.931 . S
H457 C433 0.930 . S
H458 C430 0.930 . S
H459 C439 0.930 . S
H460 C451 0.929 . S
H461 C454 0.930 . S
C462 C463 1.351 . S
C462 N465 1.368 . S
C462 H467 0.931 . S
C463 C462 1.351 . S
C463 N464 1.373 . S
C463 H491 0.930 . S
N464 C463 1.373 . S
N464 C466 1.340 . S
N465 C462 1.368 . S
N465 C466 1.321 . S
N465 Co468 2.135 . S
C466 N464 1.340 . S
C466 N465 1.321 . S
C466 H490 0.930 . S
H467 C462 0.931 . S
Co468 N465 2.135 . S
Co468 N471 2.121 . S
Co468 O476 2.055 . S
Co468 O479 2.039 . S
Co468 N482 2.140 . S
C469 O470 1.227 . S
C469 O479 1.265 . S
O470 C469 1.227 . S
N471 Co468 2.121 . S
N471 C473 1.375 . S
N471 C474 1.313 . S
C472 C473 1.338 . S
C472 N475 1.377 . S
C472 H492 0.930 . S
C473 N471 1.375 . S
C473 C472 1.338 . S
C473 H477 0.931 . S
C474 N471 1.313 . S
C474 N475 1.344 . S
C474 H478 0.930 . S
N475 C472 1.377 . S
N475 C474 1.344 . S
O476 Co468 2.055 . S
O476 C480 1.253 . S
H477 C473 0.931 . S
H478 C474 0.930 . S
O479 Co468 2.039 . S
O479 C469 1.265 . S
C480 O476 1.253 . S
C480 O481 1.227 . S
O481 C480 1.227 . S
N482 Co468 2.140 . S
N482 C485 1.346 . S
N482 C486 1.345 . S
C483 C484 1.387 . S
C483 C487 1.391 . S
C484 C483 1.387 . S
C484 C485 1.369 . S
C484 H493 0.929 . S
C485 N482 1.346 . S
C485 C484 1.369 . S
C485 H488 0.928 . S
C486 N482 1.345 . S
C486 C487 1.371 . S
C486 H489 0.931 . S
C487 C483 1.391 . S
C487 C486 1.371 . S
C487 H494 0.930 . S
H488 C485 0.928 . S
H489 C486 0.931 . S
H490 C466 0.930 . S
H491 C463 0.930 . S
H492 C472 0.930 . S
H493 C484 0.929 . S
H494 C487 0.930 . S
C495 C496 1.351 . S
C495 N498 1.368 . S
C495 H500 0.931 . S
C496 C495 1.351 . S
C496 N497 1.373 . S
C496 H524 0.930 . S
N497 C496 1.373 . S
N497 C499 1.340 . S
N498 C495 1.368 . S
N498 C499 1.321 . S
N498 Co501 2.135 . S
C499 N497 1.340 . S
C499 N498 1.321 . S
C499 H523 0.930 . S
H500 C495 0.931 . S
Co501 N498 2.135 . S
Co501 N504 2.121 . S
Co501 O509 2.055 . S
Co501 O512 2.039 . S
Co501 N515 2.140 . S
C502 O503 1.227 . S
C502 O512 1.265 . S
O503 C502 1.227 . S
N504 Co501 2.121 . S
N504 C506 1.375 . S
N504 C507 1.313 1_655 S
C505 C506 1.338 1_455 S
C505 N508 1.377 . S
C505 H525 0.930 . S
C506 N504 1.375 . S
C506 C505 1.338 1_655 S
C506 H510 0.931 . S
C507 N504 1.313 1_455 S
C507 N508 1.344 . S
C507 H511 0.930 . S
N508 C505 1.377 . S
N508 C507 1.344 . S
O509 Co501 2.055 . S
O509 C513 1.253 . S
H510 C506 0.931 . S
H511 C507 0.930 . S
O512 Co501 2.039 . S
O512 C502 1.265 . S
C513 O509 1.253 . S
C513 O514 1.227 . S
O514 C513 1.227 . S
N515 Co501 2.140 . S
N515 C518 1.346 . S
N515 C519 1.345 . S
C516 C517 1.387 . S
C516 C520 1.391 . S
C517 C516 1.387 . S
C517 C518 1.369 . S
C517 H526 0.929 . S
C518 N515 1.346 . S
C518 C517 1.369 . S
C518 H521 0.928 . S
C519 N515 1.345 . S
C519 C520 1.371 . S
C519 H522 0.931 . S
C520 C516 1.391 . S
C520 C519 1.371 . S
C520 H527 0.930 . S
H521 C518 0.928 . S
H522 C519 0.931 . S
H523 C499 0.930 . S
H524 C496 0.930 . S
H525 C505 0.930 . S
H526 C517 0.929 . S
H527 C520 0.930 . S
C528 C529 1.351 . S
C528 N531 1.368 1_554 S
C528 H533 0.931 . S
C529 C528 1.351 . S
C529 N530 1.378 . S
C529 H557 0.930 . S
N530 C529 1.378 . S
N530 C532 1.335 1_554 S
N531 C528 1.368 1_556 S
N531 C532 1.321 . S
N531 Co534 2.135 . S
C532 N530 1.335 1_556 S
C532 N531 1.321 . S
C532 H556 0.930 . S
H533 C528 0.931 . S
Co534 N531 2.135 . S
Co534 N537 2.121 . S
Co534 O542 2.055 . S
Co534 O545 2.039 . S
Co534 N548 2.140 . S
C535 O536 1.227 . S
C535 O545 1.265 . S
O536 C535 1.227 . S
N537 Co534 2.121 . S
N537 C539 1.375 . S
N537 C540 1.313 . S
C538 C539 1.338 . S
C538 N541 1.377 . S
C538 H558 0.930 . S
C539 N537 1.375 . S
C539 C538 1.338 . S
C539 H543 0.931 . S
C540 N537 1.313 . S
C540 N541 1.344 . S
C540 H544 0.930 . S
N541 C538 1.377 . S
N541 C540 1.344 . S
O542 Co534 2.055 . S
O542 C546 1.253 . S
H543 C539 0.931 . S
H544 C540 0.930 . S
O545 Co534 2.039 . S
O545 C535 1.265 . S
C546 O542 1.253 . S
C546 O547 1.227 . S
O547 C546 1.227 . S
N548 Co534 2.140 . S
N548 C551 1.346 . S
N548 C552 1.345 . S
C549 C550 1.387 . S
C549 C553 1.391 . S
C550 C549 1.387 . S
C550 C551 1.369 . S
C550 H559 0.929 . S
C551 N548 1.346 . S
C551 C550 1.369 . S
C551 H554 0.928 . S
C552 N548 1.345 . S
C552 C553 1.371 . S
C552 H555 0.931 . S
C553 C549 1.391 . S
C553 C552 1.371 . S
C553 H560 0.930 . S
H554 C551 0.928 . S
H555 C552 0.931 . S
H556 C532 0.930 . S
H557 C529 0.930 . S
H558 C538 0.930 . S
H559 C550 0.929 . S
H560 C553 0.930 . S
C561 C562 1.351 . S
C561 N564 1.368 1_554 S
C561 H566 0.931 . S
C562 C561 1.351 . S
C562 N563 1.378 . S
C562 H590 0.930 . S
N563 C562 1.378 . S
N563 C565 1.335 1_554 S
N564 C561 1.368 1_556 S
N564 C565 1.321 . S
N564 Co567 2.135 . S
C565 N563 1.335 1_556 S
C565 N564 1.321 . S
C565 H589 0.930 . S
H566 C561 0.931 . S
Co567 N564 2.135 . S
Co567 N570 2.121 . S
Co567 O575 2.055 . S
Co567 O578 2.039 . S
Co567 N581 2.140 . S
C568 O569 1.227 . S
C568 O578 1.265 . S
O569 C568 1.227 . S
N570 Co567 2.121 . S
N570 C572 1.375 . S
N570 C573 1.313 . S
C571 C572 1.338 . S
C571 N574 1.377 . S
C571 H591 0.930 . S
C572 N570 1.375 . S
C572 C571 1.338 . S
C572 H576 0.931 . S
C573 N570 1.313 . S
C573 N574 1.344 . S
C573 H577 0.930 . S
N574 C571 1.377 . S
N574 C573 1.344 . S
O575 Co567 2.055 . S
O575 C579 1.253 . S
H576 C572 0.931 . S
H577 C573 0.930 . S
O578 Co567 2.039 . S
O578 C568 1.265 . S
C579 O575 1.253 . S
C579 O580 1.227 . S
O580 C579 1.227 . S
N581 Co567 2.140 . S
N581 C584 1.346 . S
N581 C585 1.345 . S
C582 C583 1.387 . S
C582 C586 1.391 . S
C583 C582 1.387 . S
C583 C584 1.369 . S
C583 H592 0.929 . S
C584 N581 1.346 . S
C584 C583 1.369 . S
C584 H587 0.928 . S
C585 N581 1.345 . S
C585 C586 1.371 . S
C585 H588 0.931 . S
C586 C582 1.391 . S
C586 C585 1.371 . S
C586 H593 0.930 . S
H587 C584 0.928 . S
H588 C585 0.931 . S
H589 C565 0.930 . S
H590 C562 0.930 . S
H591 C571 0.930 . S
H592 C583 0.929 . S
H593 C586 0.930 . S
C594 C595 1.351 . S
C594 N597 1.368 . S
C594 H599 0.931 . S
C595 C594 1.351 . S
C595 N596 1.373 . S
C595 H623 0.930 . S
N596 C595 1.373 . S
N596 C598 1.340 . S
N597 C594 1.368 . S
N597 C598 1.321 . S
N597 Co600 2.135 . S
C598 N596 1.340 . S
C598 N597 1.321 . S
C598 H622 0.930 . S
H599 C594 0.931 . S
Co600 N597 2.135 . S
Co600 N603 2.121 . S
Co600 O608 2.055 . S
Co600 O611 2.039 . S
Co600 N614 2.140 . S
C601 O602 1.227 . S
C601 O611 1.265 . S
O602 C601 1.227 . S
N603 Co600 2.121 . S
N603 C605 1.375 . S
N603 C606 1.313 . S
C604 C605 1.338 . S
C604 N607 1.377 . S
C604 H624 0.930 . S
C605 N603 1.375 . S
C605 C604 1.338 . S
C605 H609 0.931 . S
C606 N603 1.313 . S
C606 N607 1.344 . S
C606 H610 0.930 . S
N607 C604 1.377 . S
N607 C606 1.344 . S
O608 Co600 2.055 . S
O608 C612 1.253 . S
H609 C605 0.931 . S
H610 C606 0.930 . S
O611 Co600 2.039 . S
O611 C601 1.265 . S
C612 O608 1.253 . S
C612 O613 1.227 . S
O613 C612 1.227 . S
N614 Co600 2.140 . S
N614 C617 1.346 . S
N614 C618 1.345 . S
C615 C616 1.387 . S
C615 C619 1.391 . S
C616 C615 1.387 . S
C616 C617 1.369 . S
C616 H625 0.929 . S
C617 N614 1.346 . S
C617 C616 1.369 . S
C617 H620 0.928 . S
C618 N614 1.345 . S
C618 C619 1.371 . S
C618 H621 0.931 . S
C619 C615 1.391 . S
C619 C618 1.371 . S
C619 H626 0.930 . S
H620 C617 0.928 . S
H621 C618 0.931 . S
H622 C598 0.930 . S
H623 C595 0.930 . S
H624 C604 0.930 . S
H625 C616 0.929 . S
H626 C619 0.930 . S
C627 C628 1.351 . S
C627 N630 1.368 . S
C627 H632 0.931 . S
C628 C627 1.351 . S
C628 N629 1.373 . S
C628 H656 0.930 . S
N629 C628 1.373 . S
N629 C631 1.340 . S
N630 C627 1.368 . S
N630 C631 1.321 . S
N630 Co633 2.135 . S
C631 N629 1.340 . S
C631 N630 1.321 . S
C631 H655 0.930 . S
H632 C627 0.931 . S
Co633 N630 2.135 . S
Co633 N636 2.121 . S
Co633 O641 2.055 . S
Co633 O644 2.039 . S
Co633 N647 2.140 . S
C634 O635 1.227 . S
C634 O644 1.265 . S
O635 C634 1.227 . S
N636 Co633 2.121 . S
N636 C638 1.375 . S
N636 C639 1.313 . S
C637 C638 1.338 . S
C637 N640 1.377 . S
C637 H657 0.930 . S
C638 N636 1.375 . S
C638 C637 1.338 . S
C638 H642 0.931 . S
C639 N636 1.313 . S
C639 N640 1.344 . S
C639 H643 0.930 . S
N640 C637 1.377 . S
N640 C639 1.344 . S
O641 Co633 2.055 . S
O641 C645 1.253 . S
H642 C638 0.931 . S
H643 C639 0.930 . S
O644 Co633 2.039 . S
O644 C634 1.265 . S
C645 O641 1.253 . S
C645 O646 1.227 . S
O646 C645 1.227 . S
N647 Co633 2.140 . S
N647 C650 1.346 . S
N647 C651 1.345 . S
C648 C649 1.387 . S
C648 C652 1.391 . S
C649 C648 1.387 . S
C649 C650 1.369 . S
C649 H658 0.929 . S
C650 N647 1.346 . S
C650 C649 1.369 . S
C650 H653 0.928 . S
C651 N647 1.345 . S
C651 C652 1.371 . S
C651 H654 0.931 . S
C652 C648 1.391 . S
C652 C651 1.371 . S
C652 H659 0.930 . S
H653 C650 0.928 . S
H654 C651 0.931 . S
H655 C631 0.930 . S
H656 C628 0.930 . S
H657 C637 0.930 . S
H658 C649 0.929 . S
H659 C652 0.930 . S
C660 C661 1.351 . S
C660 N663 1.368 1_556 S
C660 H665 0.931 . S
C661 C660 1.351 . S
C661 N662 1.378 . S
C661 H689 0.930 . S
N662 C661 1.378 . S
N662 C664 1.335 1_556 S
N663 C660 1.368 1_554 S
N663 C664 1.321 . S
N663 Co666 2.135 . S
C664 N662 1.335 1_554 S
C664 N663 1.321 . S
C664 H688 0.930 . S
H665 C660 0.931 . S
Co666 N663 2.135 . S
Co666 N669 2.121 . S
Co666 O674 2.055 . S
Co666 O677 2.039 . S
Co666 N680 2.140 . S
C667 O668 1.227 . S
C667 O677 1.265 . S
O668 C667 1.227 . S
N669 Co666 2.121 . S
N669 C671 1.375 . S
N669 C672 1.313 . S
C670 C671 1.338 . S
C670 N673 1.377 . S
C670 H690 0.930 . S
C671 N669 1.375 . S
C671 C670 1.338 . S
C671 H675 0.931 . S
C672 N669 1.313 . S
C672 N673 1.344 . S
C672 H676 0.930 . S
N673 C670 1.377 . S
N673 C672 1.344 . S
O674 Co666 2.055 . S
O674 C678 1.253 . S
H675 C671 0.931 . S
H676 C672 0.930 . S
O677 Co666 2.039 . S
O677 C667 1.265 . S
C678 O674 1.253 . S
C678 O679 1.227 . S
O679 C678 1.227 . S
N680 Co666 2.140 . S
N680 C683 1.346 . S
N680 C684 1.345 . S
C681 C682 1.387 . S
C681 C685 1.391 . S
C682 C681 1.387 . S
C682 C683 1.369 . S
C682 H691 0.929 . S
C683 N680 1.346 . S
C683 C682 1.369 . S
C683 H686 0.928 . S
C684 N680 1.345 . S
C684 C685 1.371 . S
C684 H687 0.931 . S
C685 C681 1.391 . S
C685 C684 1.371 . S
C685 H692 0.930 . S
H686 C683 0.928 . S
H687 C684 0.931 . S
H688 C664 0.930 . S
H689 C661 0.930 . S
H690 C670 0.930 . S
H691 C682 0.929 . S
H692 C685 0.930 . S
C693 C694 1.351 . S
C693 N696 1.368 1_556 S
C693 H698 0.931 . S
C694 C693 1.351 . S
C694 N695 1.378 . S
C694 H722 0.930 . S
N695 C694 1.378 . S
N695 C697 1.335 1_556 S
N696 C693 1.368 1_554 S
N696 C697 1.321 . S
N696 Co699 2.135 . S
C697 N695 1.335 1_554 S
C697 N696 1.321 . S
C697 H721 0.930 . S
H698 C693 0.931 . S
Co699 N696 2.135 . S
Co699 N702 2.121 . S
Co699 O707 2.055 . S
Co699 O710 2.039 . S
Co699 N713 2.140 . S
C700 O701 1.227 . S
C700 O710 1.265 . S
O701 C700 1.227 . S
N702 Co699 2.121 . S
N702 C704 1.375 . S
N702 C705 1.313 . S
C703 C704 1.338 . S
C703 N706 1.377 . S
C703 H723 0.930 . S
C704 N702 1.375 . S
C704 C703 1.338 . S
C704 H708 0.931 . S
C705 N702 1.313 . S
C705 N706 1.344 . S
C705 H709 0.930 . S
N706 C703 1.377 . S
N706 C705 1.344 . S
O707 Co699 2.055 . S
O707 C711 1.253 . S
H708 C704 0.931 . S
H709 C705 0.930 . S
O710 Co699 2.039 . S
O710 C700 1.265 . S
C711 O707 1.253 . S
C711 O712 1.227 . S
O712 C711 1.227 . S
N713 Co699 2.140 . S
N713 C716 1.346 . S
N713 C717 1.345 . S
C714 C715 1.387 . S
C714 C718 1.391 . S
C715 C714 1.387 . S
C715 C716 1.369 . S
C715 H724 0.929 . S
C716 N713 1.346 . S
C716 C715 1.369 . S
C716 H719 0.928 . S
C717 N713 1.345 . S
C717 C718 1.371 . S
C717 H720 0.931 . S
C718 C714 1.391 . S
C718 C717 1.371 . S
C718 H725 0.930 . S
H719 C716 0.928 . S
H720 C717 0.931 . S
H721 C697 0.930 . S
H722 C694 0.930 . S
H723 C703 0.930 . S
H724 C715 0.929 . S
H725 C718 0.930 . S
C726 C727 1.351 . S
C726 N729 1.368 . S
C726 H731 0.931 . S
C727 C726 1.351 . S
C727 N728 1.373 . S
C727 H755 0.930 . S
N728 C727 1.373 . S
N728 C730 1.340 . S
N729 C726 1.368 . S
N729 C730 1.321 . S
N729 Co732 2.135 . S
C730 N728 1.340 . S
C730 N729 1.321 . S
C730 H754 0.930 . S
H731 C726 0.931 . S
Co732 N729 2.135 . S
Co732 N735 2.121 . S
Co732 O740 2.055 . S
Co732 O743 2.039 . S
Co732 N746 2.140 . S
C733 O734 1.227 . S
C733 O743 1.265 . S
O734 C733 1.227 . S
N735 Co732 2.121 . S
N735 C737 1.375 . S
N735 C738 1.313 . S
C736 C737 1.338 . S
C736 N739 1.377 . S
C736 H756 0.930 . S
C737 N735 1.375 . S
C737 C736 1.338 . S
C737 H741 0.931 . S
C738 N735 1.313 . S
C738 N739 1.344 . S
C738 H742 0.930 . S
N739 C736 1.377 . S
N739 C738 1.344 . S
O740 Co732 2.055 . S
O740 C744 1.253 . S
H741 C737 0.931 . S
H742 C738 0.930 . S
O743 Co732 2.039 . S
O743 C733 1.265 . S
C744 O740 1.253 . S
C744 O745 1.227 . S
O745 C744 1.227 . S
N746 Co732 2.140 . S
N746 C749 1.346 . S
N746 C750 1.345 . S
C747 C748 1.387 . S
C747 C751 1.391 . S
C748 C747 1.387 . S
C748 C749 1.369 . S
C748 H757 0.929 . S
C749 N746 1.346 . S
C749 C748 1.369 . S
C749 H752 0.928 . S
C750 N746 1.345 . S
C750 C751 1.371 . S
C750 H753 0.931 . S
C751 C747 1.391 . S
C751 C750 1.371 . S
C751 H758 0.930 . S
H752 C749 0.928 . S
H753 C750 0.931 . S
H754 C730 0.930 . S
H755 C727 0.930 . S
H756 C736 0.930 . S
H757 C748 0.929 . S
H758 C751 0.930 . S
C759 C760 1.351 . S
C759 N762 1.368 . S
C759 H764 0.931 . S
C760 C759 1.351 . S
C760 N761 1.373 . S
C760 H788 0.930 . S
N761 C760 1.373 . S
N761 C763 1.340 . S
N762 C759 1.368 . S
N762 C763 1.321 . S
N762 Co765 2.135 . S
C763 N761 1.340 . S
C763 N762 1.321 . S
C763 H787 0.930 . S
H764 C759 0.931 . S
Co765 N762 2.135 . S
Co765 N768 2.121 . S
Co765 O773 2.055 . S
Co765 O776 2.039 . S
Co765 N779 2.140 . S
C766 O767 1.227 . S
C766 O776 1.265 . S
O767 C766 1.227 . S
N768 Co765 2.121 . S
N768 C770 1.375 . S
N768 C771 1.313 . S
C769 C770 1.338 . S
C769 N772 1.377 . S
C769 H789 0.930 . S
C770 N768 1.375 . S
C770 C769 1.338 . S
C770 H774 0.931 . S
C771 N768 1.313 . S
C771 N772 1.344 . S
C771 H775 0.930 . S
N772 C769 1.377 . S
N772 C771 1.344 . S
O773 Co765 2.055 . S
O773 C777 1.253 . S
H774 C770 0.931 . S
H775 C771 0.930 . S
O776 Co765 2.039 . S
O776 C766 1.265 . S
C777 O773 1.253 . S
C777 O778 1.227 . S
O778 C777 1.227 . S
N779 Co765 2.140 . S
N779 C782 1.346 . S
N779 C783 1.345 . S
C780 C781 1.387 . S
C780 C784 1.391 . S
C781 C780 1.387 . S
C781 C782 1.369 . S
C781 H790 0.929 . S
C782 N779 1.346 . S
C782 C781 1.369 . S
C782 H785 0.928 . S
C783 N779 1.345 . S
C783 C784 1.371 . S
C783 H786 0.931 . S
C784 C780 1.391 . S
C784 C783 1.371 . S
C784 H791 0.930 . S
H785 C782 0.928 . S
H786 C783 0.931 . S
H787 C763 0.930 . S
H788 C760 0.930 . S
H789 C769 0.930 . S
H790 C781 0.929 . S
H791 C784 0.930 . S
C792 C793 1.351 . S
C792 N795 1.368 . S
C792 H797 0.931 . S
C793 C792 1.351 . S
C793 N794 1.373 . S
C793 H821 0.930 . S
N794 C793 1.373 . S
N794 C796 1.340 . S
N795 C792 1.368 . S
N795 C796 1.321 . S
N795 Co798 2.135 . S
C796 N794 1.340 . S
C796 N795 1.321 . S
C796 H820 0.930 . S
H797 C792 0.931 . S
Co798 N795 2.135 . S
Co798 N801 2.121 . S
Co798 O806 2.055 . S
Co798 O809 2.039 . S
Co798 N812 2.140 . S
C799 O800 1.227 . S
C799 O809 1.265 . S
O800 C799 1.227 . S
N801 Co798 2.121 . S
N801 C803 1.375 . S
N801 C804 1.313 . S
C802 C803 1.338 . S
C802 N805 1.377 . S
C802 H822 0.930 . S
C803 N801 1.375 . S
C803 C802 1.338 . S
C803 H807 0.931 . S
C804 N801 1.313 . S
C804 N805 1.344 . S
C804 H808 0.930 . S
N805 C802 1.377 . S
N805 C804 1.344 . S
O806 Co798 2.055 . S
O806 C810 1.253 . S
H807 C803 0.931 . S
H808 C804 0.930 . S
O809 Co798 2.039 . S
O809 C799 1.265 . S
C810 O806 1.253 . S
C810 O811 1.227 . S
O811 C810 1.227 . S
N812 Co798 2.140 . S
N812 C815 1.346 . S
N812 C816 1.345 . S
C813 C814 1.387 . S
C813 C817 1.391 . S
C814 C813 1.387 . S
C814 C815 1.369 . S
C814 H823 0.929 . S
C815 N812 1.346 . S
C815 C814 1.369 . S
C815 H818 0.928 . S
C816 N812 1.345 . S
C816 C817 1.371 . S
C816 H819 0.931 . S
C817 C813 1.391 . S
C817 C816 1.371 . S
C817 H824 0.930 . S
H818 C815 0.928 . S
H819 C816 0.931 . S
H820 C796 0.930 . S
H821 C793 0.930 . S
H822 C802 0.930 . S
H823 C814 0.929 . S
H824 C817 0.930 . S
C825 C826 1.351 . S
C825 N828 1.368 . S
C825 H830 0.931 . S
C826 C825 1.351 . S
C826 N827 1.373 . S
C826 H854 0.930 . S
N827 C826 1.373 . S
N827 C829 1.340 . S
N828 C825 1.368 . S
N828 C829 1.321 . S
N828 Co831 2.135 . S
C829 N827 1.340 . S
C829 N828 1.321 . S
C829 H853 0.930 . S
H830 C825 0.931 . S
Co831 N828 2.135 . S
Co831 N834 2.121 . S
Co831 O839 2.055 . S
Co831 O842 2.039 . S
Co831 N845 2.140 . S
C832 O833 1.227 . S
C832 O842 1.265 . S
O833 C832 1.227 . S
N834 Co831 2.121 . S
N834 C836 1.375 . S
N834 C837 1.313 . S
C835 C836 1.338 . S
C835 N838 1.377 . S
C835 H855 0.930 . S
C836 N834 1.375 . S
C836 C835 1.338 . S
C836 H840 0.931 . S
C837 N834 1.313 . S
C837 N838 1.344 . S
C837 H841 0.930 . S
N838 C835 1.377 . S
N838 C837 1.344 . S
O839 Co831 2.055 . S
O839 C843 1.253 . S
H840 C836 0.931 . S
H841 C837 0.930 . S
O842 Co831 2.039 . S
O842 C832 1.265 . S
C843 O839 1.253 . S
C843 O844 1.227 . S
O844 C843 1.227 . S
N845 Co831 2.140 . S
N845 C848 1.346 . S
N845 C849 1.345 . S
C846 C847 1.387 . S
C846 C850 1.391 . S
C847 C846 1.387 . S
C847 C848 1.369 . S
C847 H856 0.929 . S
C848 N845 1.346 . S
C848 C847 1.369 . S
C848 H851 0.928 . S
C849 N845 1.345 . S
C849 C850 1.371 . S
C849 H852 0.931 . S
C850 C846 1.391 . S
C850 C849 1.371 . S
C850 H857 0.930 . S
H851 C848 0.928 . S
H852 C849 0.931 . S
H853 C829 0.930 . S
H854 C826 0.930 . S
H855 C835 0.930 . S
H856 C847 0.929 . S
H857 C850 0.930 . S
C858 C859 1.351 . S
C858 N861 1.368 . S
C858 H863 0.931 . S
C859 C858 1.351 . S
C859 N860 1.373 . S
C859 H887 0.930 . S
N860 C859 1.373 . S
N860 C862 1.340 . S
N861 C858 1.368 . S
N861 C862 1.321 . S
N861 Co864 2.135 . S
C862 N860 1.340 . S
C862 N861 1.321 . S
C862 H886 0.930 . S
H863 C858 0.931 . S
Co864 N861 2.135 . S
Co864 N867 2.121 . S
Co864 O872 2.055 . S
Co864 O875 2.039 . S
Co864 N878 2.140 . S
C865 O866 1.227 . S
C865 O875 1.265 . S
O866 C865 1.227 . S
N867 Co864 2.121 . S
N867 C869 1.375 . S
N867 C870 1.313 . S
C868 C869 1.338 . S
C868 N871 1.377 . S
C868 H888 0.930 . S
C869 N867 1.375 . S
C869 C868 1.338 . S
C869 H873 0.931 . S
C870 N867 1.313 . S
C870 N871 1.344 . S
C870 H874 0.930 . S
N871 C868 1.377 . S
N871 C870 1.344 . S
O872 Co864 2.055 . S
O872 C876 1.253 . S
H873 C869 0.931 . S
H874 C870 0.930 . S
O875 Co864 2.039 . S
O875 C865 1.265 . S
C876 O872 1.253 . S
C876 O877 1.227 . S
O877 C876 1.227 . S
N878 Co864 2.140 . S
N878 C881 1.346 . S
N878 C882 1.345 . S
C879 C880 1.387 . S
C879 C883 1.391 . S
C880 C879 1.387 . S
C880 C881 1.369 . S
C880 H889 0.929 . S
C881 N878 1.346 . S
C881 C880 1.369 . S
C881 H884 0.928 . S
C882 N878 1.345 . S
C882 C883 1.371 . S
C882 H885 0.931 . S
C883 C879 1.391 . S
C883 C882 1.371 . S
C883 H890 0.930 . S
H884 C881 0.928 . S
H885 C882 0.931 . S
H886 C862 0.930 . S
H887 C859 0.930 . S
H888 C868 0.930 . S
H889 C880 0.929 . S
H890 C883 0.930 . S
C891 C892 1.351 . S
C891 N894 1.368 . S
C891 H896 0.931 . S
C892 C891 1.351 . S
C892 N893 1.373 . S
C892 H920 0.930 . S
N893 C892 1.373 . S
N893 C895 1.340 . S
N894 C891 1.368 . S
N894 C895 1.321 . S
N894 Co897 2.135 . S
C895 N893 1.340 . S
C895 N894 1.321 . S
C895 H919 0.930 . S
H896 C891 0.931 . S
Co897 N894 2.135 . S
Co897 N900 2.121 . S
Co897 O905 2.055 . S
Co897 O908 2.039 . S
Co897 N911 2.140 . S
C898 O899 1.227 . S
C898 O908 1.265 . S
O899 C898 1.227 . S
N900 Co897 2.121 . S
N900 C902 1.375 . S
N900 C903 1.313 . S
C901 C902 1.338 . S
C901 N904 1.377 . S
C901 H921 0.930 . S
C902 N900 1.375 . S
C902 C901 1.338 . S
C902 H906 0.931 . S
C903 N900 1.313 . S
C903 N904 1.344 . S
C903 H907 0.930 . S
N904 C901 1.377 . S
N904 C903 1.344 . S
O905 Co897 2.055 . S
O905 C909 1.253 . S
H906 C902 0.931 . S
H907 C903 0.930 . S
O908 Co897 2.039 . S
O908 C898 1.265 . S
C909 O905 1.253 . S
C909 O910 1.227 . S
O910 C909 1.227 . S
N911 Co897 2.140 . S
N911 C914 1.346 . S
N911 C915 1.345 . S
C912 C913 1.387 . S
C912 C916 1.391 . S
C913 C912 1.387 . S
C913 C914 1.369 . S
C913 H922 0.929 . S
C914 N911 1.346 . S
C914 C913 1.369 . S
C914 H917 0.928 . S
C915 N911 1.345 . S
C915 C916 1.371 . S
C915 H918 0.931 . S
C916 C912 1.391 . S
C916 C915 1.371 . S
C916 H923 0.930 . S
H917 C914 0.928 . S
H918 C915 0.931 . S
H919 C895 0.930 . S
H920 C892 0.930 . S
H921 C901 0.930 . S
H922 C913 0.929 . S
H923 C916 0.930 . S
C924 C925 1.351 . S
C924 N927 1.368 . S
C924 H929 0.931 . S
C925 C924 1.351 . S
C925 N926 1.373 . S
C925 H953 0.930 . S
N926 C925 1.373 . S
N926 C928 1.340 . S
N927 C924 1.368 . S
N927 C928 1.321 . S
N927 Co930 2.135 . S
C928 N926 1.340 . S
C928 N927 1.321 . S
C928 H952 0.930 . S
H929 C924 0.931 . S
Co930 N927 2.135 . S
Co930 N933 2.121 . S
Co930 O938 2.055 . S
Co930 O941 2.039 . S
Co930 N944 2.140 . S
C931 O932 1.227 . S
C931 O941 1.265 . S
O932 C931 1.227 . S
N933 Co930 2.121 . S
N933 C935 1.375 . S
N933 C936 1.313 . S
C934 C935 1.338 . S
C934 N937 1.377 . S
C934 H954 0.930 . S
C935 N933 1.375 . S
C935 C934 1.338 . S
C935 H939 0.931 . S
C936 N933 1.313 . S
C936 N937 1.344 . S
C936 H940 0.930 . S
N937 C934 1.377 . S
N937 C936 1.344 . S
O938 Co930 2.055 . S
O938 C942 1.253 . S
H939 C935 0.931 . S
H940 C936 0.930 . S
O941 Co930 2.039 . S
O941 C931 1.265 . S
C942 O938 1.253 . S
C942 O943 1.227 . S
O943 C942 1.227 . S
N944 Co930 2.140 . S
N944 C947 1.346 . S
N944 C948 1.345 . S
C945 C946 1.387 . S
C945 C949 1.391 . S
C946 C945 1.387 . S
C946 C947 1.369 . S
C946 H955 0.929 . S
C947 N944 1.346 . S
C947 C946 1.369 . S
C947 H950 0.928 . S
C948 N944 1.345 . S
C948 C949 1.371 . S
C948 H951 0.931 . S
C949 C945 1.391 . S
C949 C948 1.371 . S
C949 H956 0.930 . S
H950 C947 0.928 . S
H951 C948 0.931 . S
H952 C928 0.930 . S
H953 C925 0.930 . S
H954 C934 0.930 . S
H955 C946 0.929 . S
H956 C949 0.930 . S
C957 C958 1.351 . S
C957 N960 1.368 . S
C957 H962 0.931 . S
C958 C957 1.351 . S
C958 N959 1.373 . S
C958 H986 0.930 . S
N959 C958 1.373 . S
N959 C961 1.340 . S
N960 C957 1.368 . S
N960 C961 1.321 . S
N960 Co963 2.135 . S
C961 N959 1.340 . S
C961 N960 1.321 . S
C961 H985 0.930 . S
H962 C957 0.931 . S
Co963 N960 2.135 . S
Co963 N966 2.121 . S
Co963 O971 2.055 . S
Co963 O974 2.039 . S
Co963 N977 2.140 . S
C964 O965 1.227 . S
C964 O974 1.265 . S
O965 C964 1.227 . S
N966 Co963 2.121 . S
N966 C968 1.375 . S
N966 C969 1.313 . S
C967 C968 1.338 . S
C967 N970 1.377 . S
C967 H987 0.930 . S
C968 N966 1.375 . S
C968 C967 1.338 . S
C968 H972 0.931 . S
C969 N966 1.313 . S
C969 N970 1.344 . S
C969 H973 0.930 . S
N970 C967 1.377 . S
N970 C969 1.344 . S
O971 Co963 2.055 . S
O971 C975 1.253 . S
H972 C968 0.931 . S
H973 C969 0.930 . S
O974 Co963 2.039 . S
O974 C964 1.265 . S
C975 O971 1.253 . S
C975 O976 1.227 . S
O976 C975 1.227 . S
N977 Co963 2.140 . S
N977 C980 1.346 . S
N977 C981 1.345 . S
C978 C979 1.387 . S
C978 C982 1.391 . S
C979 C978 1.387 . S
C979 C980 1.369 . S
C979 H988 0.929 . S
C980 N977 1.346 . S
C980 C979 1.369 . S
C980 H983 0.928 . S
C981 N977 1.345 . S
C981 C982 1.371 . S
C981 H984 0.931 . S
C982 C978 1.391 . S
C982 C981 1.371 . S
C982 H989 0.930 . S
H983 C980 0.928 . S
H984 C981 0.931 . S
H985 C961 0.930 . S
H986 C958 0.930 . S
H987 C967 0.930 . S
H988 C979 0.929 . S
H989 C982 0.930 . S
C990 C991 1.351 . S
C990 N993 1.368 . S
C990 H995 0.931 . S
C991 C990 1.351 . S
C991 N992 1.373 . S
C991 H1019 0.930 . S
N992 C991 1.373 . S
N992 C994 1.340 . S
N993 C990 1.368 . S
N993 C994 1.321 . S
N993 Co996 2.135 . S
C994 N992 1.340 . S
C994 N993 1.321 . S
C994 H1018 0.930 . S
H995 C990 0.931 . S
Co996 N993 2.135 . S
Co996 N999 2.121 . S
Co996 O1004 2.055 . S
Co996 O1007 2.039 . S
Co996 N1010 2.140 . S
C997 O998 1.227 . S
C997 O1007 1.265 . S
O998 C997 1.227 . S
N999 Co996 2.121 . S
N999 C1001 1.375 . S
N999 C1002 1.313 . S
C1000 C1001 1.338 . S
C1000 N1003 1.377 . S
C1000 H1020 0.930 . S
C1001 N999 1.375 . S
C1001 C1000 1.338 . S
C1001 H1005 0.931 . S
C1002 N999 1.313 . S
C1002 N1003 1.344 . S
C1002 H1006 0.930 . S
N1003 C1000 1.377 . S
N1003 C1002 1.344 . S
O1004 Co996 2.055 . S
O1004 C1008 1.253 . S
H1005 C1001 0.931 . S
H1006 C1002 0.930 . S
O1007 Co996 2.039 . S
O1007 C997 1.265 . S
C1008 O1004 1.253 . S
C1008 O1009 1.227 . S
O1009 C1008 1.227 . S
N1010 Co996 2.140 . S
N1010 C1013 1.346 . S
N1010 C1014 1.345 . S
C1011 C1012 1.387 . S
C1011 C1015 1.391 . S
C1012 C1011 1.387 . S
C1012 C1013 1.369 . S
C1012 H1021 0.929 . S
C1013 N1010 1.346 . S
C1013 C1012 1.369 . S
C1013 H1016 0.928 . S
C1014 N1010 1.345 . S
C1014 C1015 1.371 . S
C1014 H1017 0.931 . S
C1015 C1011 1.391 . S
C1015 C1014 1.371 . S
C1015 H1022 0.930 . S
H1016 C1013 0.928 . S
H1017 C1014 0.931 . S
H1018 C994 0.930 . S
H1019 C991 0.930 . S
H1020 C1000 0.930 . S
H1021 C1012 0.929 . S
H1022 C1015 0.930 . S
C1023 C1024 1.351 . S
C1023 N1026 1.368 . S
C1023 H1028 0.931 . S
C1024 C1023 1.351 . S
C1024 N1025 1.373 . S
C1024 H1052 0.930 . S
N1025 C1024 1.373 . S
N1025 C1027 1.340 . S
N1026 C1023 1.368 . S
N1026 C1027 1.321 . S
N1026 Co1029 2.135 . S
C1027 N1025 1.340 . S
C1027 N1026 1.321 . S
C1027 H1051 0.930 . S
H1028 C1023 0.931 . S
Co1029 N1026 2.135 . S
Co1029 N1032 2.121 . S
Co1029 O1037 2.055 . S
Co1029 O1040 2.039 . S
Co1029 N1043 2.140 . S
C1030 O1031 1.227 . S
C1030 O1040 1.265 . S
O1031 C1030 1.227 . S
N1032 Co1029 2.121 . S
N1032 C1034 1.375 . S
N1032 C1035 1.313 . S
C1033 C1034 1.338 . S
C1033 N1036 1.377 . S
C1033 H1053 0.930 . S
C1034 N1032 1.375 . S
C1034 C1033 1.338 . S
C1034 H1038 0.931 . S
C1035 N1032 1.313 . S
C1035 N1036 1.344 . S
C1035 H1039 0.930 . S
N1036 C1033 1.377 . S
N1036 C1035 1.344 . S
O1037 Co1029 2.055 . S
O1037 C1041 1.253 . S
H1038 C1034 0.931 . S
H1039 C1035 0.930 . S
O1040 Co1029 2.039 . S
O1040 C1030 1.265 . S
C1041 O1037 1.253 . S
C1041 O1042 1.227 . S
O1042 C1041 1.227 . S
N1043 Co1029 2.140 . S
N1043 C1046 1.346 . S
N1043 C1047 1.345 . S
C1044 C1045 1.387 . S
C1044 C1048 1.391 . S
C1045 C1044 1.387 . S
C1045 C1046 1.369 . S
C1045 H1054 0.929 . S
C1046 N1043 1.346 . S
C1046 C1045 1.369 . S
C1046 H1049 0.928 . S
C1047 N1043 1.345 . S
C1047 C1048 1.371 . S
C1047 H1050 0.931 . S
C1048 C1044 1.391 . S
C1048 C1047 1.371 . S
C1048 H1055 0.930 . S
H1049 C1046 0.928 . S
H1050 C1047 0.931 . S
H1051 C1027 0.930 . S
H1052 C1024 0.930 . S
H1053 C1033 0.930 . S
H1054 C1045 0.929 . S
H1055 C1048 0.930 . S
C1056 C1057 1.387 . S
C1056 H1060 0.950 . S
C1056 C1065 1.390 . S
C1057 C1056 1.387 . S
C1057 C1059 1.387 . S
H1058 C1065 0.950 . S
C1059 C1057 1.387 . S
C1059 C1061 1.390 . S
C1059 H1063 0.950 . S
H1060 C1056 0.950 . S
C1061 C1059 1.390 . S
C1061 C1062 1.387 . S
C1061 H1064 0.950 . S
C1062 C1061 1.387 . S
C1062 C1065 1.387 . S
H1063 C1059 0.950 . S
H1064 C1061 0.950 . S
C1065 C1056 1.390 . S
C1065 H1058 0.950 . S
C1065 C1062 1.387 . S
C1066 C1067 1.387 . S
C1066 H1070 0.950 . S
C1066 C1075 1.390 . S
C1067 C1066 1.387 . S
C1067 C1069 1.387 . S
H1068 C1075 0.950 . S
C1069 C1067 1.387 . S
C1069 C1071 1.390 . S
C1069 H1073 0.950 . S
H1070 C1066 0.950 . S
C1071 C1069 1.390 . S
C1071 C1072 1.387 . S
C1071 H1074 0.950 . S
C1072 C1071 1.387 . S
C1072 C1075 1.387 . S
H1073 C1069 0.950 . S
H1074 C1071 0.950 . S
C1075 C1066 1.390 . S
C1075 H1068 0.950 . S
C1075 C1072 1.387 . S
C1076 C1077 1.387 . S
C1076 H1080 0.950 . S
C1076 C1085 1.390 . S
C1077 C1076 1.387 . S
C1077 C1079 1.387 . S
H1078 C1085 0.950 . S
C1079 C1077 1.387 . S
C1079 C1081 1.390 . S
C1079 H1083 0.950 . S
H1080 C1076 0.950 . S
C1081 C1079 1.390 . S
C1081 C1082 1.387 . S
C1081 H1084 0.950 . S
C1082 C1081 1.387 . S
C1082 C1085 1.387 . S
H1083 C1079 0.950 . S
H1084 C1081 0.950 . S
C1085 C1076 1.390 . S
C1085 H1078 0.950 . S
C1085 C1082 1.387 . S
C1086 C1087 1.387 . S
C1086 H1090 0.950 . S
C1086 C1095 1.390 . S
C1087 C1086 1.387 . S
C1087 C1089 1.387 . S
H1088 C1095 0.950 . S
C1089 C1087 1.387 . S
C1089 C1091 1.390 . S
C1089 H1093 0.950 . S
H1090 C1086 0.950 . S
C1091 C1089 1.390 . S
C1091 C1092 1.387 . S
C1091 H1094 0.950 . S
C1092 C1091 1.387 . S
C1092 C1095 1.387 . S
H1093 C1089 0.950 . S
H1094 C1091 0.950 . S
C1095 C1086 1.390 . S
C1095 H1088 0.950 . S
C1095 C1092 1.387 . S
C1096 C1097 1.387 . S
C1096 H1100 0.950 1_556 S
C1096 C1105 1.390 . S
C1097 C1096 1.387 . S
C1097 C1099 1.387 . S
H1098 C1105 0.950 1_554 S
C1099 C1097 1.387 . S
C1099 C1101 1.390 . S
C1099 H1103 0.950 . S
H1100 C1096 0.950 1_554 S
C1101 C1099 1.390 . S
C1101 C1102 1.387 . S
C1101 H1104 0.950 . S
C1102 C1101 1.387 . S
C1102 C1105 1.387 . S
H1103 C1099 0.950 . S
H1104 C1101 0.950 . S
C1105 C1096 1.390 . S
C1105 H1098 0.950 1_556 S
C1105 C1102 1.387 . S
C1106 C1107 1.387 . S
C1106 H1110 0.950 . S
C1106 C1115 1.390 . S
C1107 C1106 1.387 . S
C1107 C1109 1.387 . S
H1108 C1115 0.950 . S
C1109 C1107 1.387 . S
C1109 C1111 1.390 . S
C1109 H1113 0.950 . S
H1110 C1106 0.950 . S
C1111 C1109 1.390 . S
C1111 C1112 1.387 . S
C1111 H1114 0.950 . S
C1112 C1111 1.387 . S
C1112 C1115 1.387 . S
H1113 C1109 0.950 . S
H1114 C1111 0.950 . S
C1115 C1106 1.390 . S
C1115 H1108 0.950 . S
C1115 C1112 1.387 . S
C1116 C1117 1.387 . S
C1116 H1120 0.950 . S
C1116 C1125 1.390 . S
C1117 C1116 1.387 . S
C1117 C1119 1.387 . S
H1118 C1125 0.950 . S
C1119 C1117 1.387 . S
C1119 C1121 1.390 . S
C1119 H1123 0.950 1_554 S
H1120 C1116 0.950 . S
C1121 C1119 1.390 . S
C1121 C1122 1.387 . S
C1121 H1124 0.950 1_554 S
C1122 C1121 1.387 . S
C1122 C1125 1.387 . S
H1123 C1119 0.950 1_556 S
H1124 C1121 0.950 1_556 S
C1125 C1116 1.390 . S
C1125 H1118 0.950 . S
C1125 C1122 1.387 . S
C1126 C1127 1.387 . S
C1126 H1130 0.950 . S
C1126 C1135 1.390 . S
C1127 C1126 1.387 . S
C1127 C1129 1.387 . S
H1128 C1135 0.950 . S
C1129 C1127 1.387 . S
C1129 C1131 1.390 . S
C1129 H1133 0.950 . S
H1130 C1126 0.950 . S
C1131 C1129 1.390 . S
C1131 C1132 1.387 . S
C1131 H1134 0.950 . S
C1132 C1131 1.387 . S
C1132 C1135 1.387 . S
H1133 C1129 0.950 . S
H1134 C1131 0.950 . S
C1135 C1126 1.390 . S
C1135 H1128 0.950 . S
C1135 C1132 1.387 . S
C1136 C1137 1.387 . S
C1136 H1140 0.950 1_556 S
C1136 C1145 1.390 . S
C1137 C1136 1.387 . S
C1137 C1139 1.387 . S
H1138 C1145 0.950 1_554 S
C1139 C1137 1.387 . S
C1139 C1141 1.390 . S
C1139 H1143 0.950 . S
H1140 C1136 0.950 1_554 S
C1141 C1139 1.390 . S
C1141 C1142 1.387 . S
C1141 H1144 0.950 . S
C1142 C1141 1.387 . S
C1142 C1145 1.387 . S
H1143 C1139 0.950 . S
H1144 C1141 0.950 . S
C1145 C1136 1.390 . S
C1145 H1138 0.950 1_556 S
C1145 C1142 1.387 . S
C1146 C1147 1.387 . S
C1146 H1150 0.950 . S
C1146 C1155 1.390 . S
C1147 C1146 1.387 . S
C1147 C1149 1.387 . S
H1148 C1155 0.950 . S
C1149 C1147 1.387 . S
C1149 C1151 1.390 . S
C1149 H1153 0.950 . S
H1150 C1146 0.950 . S
C1151 C1149 1.390 . S
C1151 C1152 1.387 . S
C1151 H1154 0.950 . S
C1152 C1151 1.387 . S
C1152 C1155 1.387 . S
H1153 C1149 0.950 . S
H1154 C1151 0.950 . S
C1155 C1146 1.390 . S
C1155 H1148 0.950 . S
C1155 C1152 1.387 . S
C1156 C1157 1.387 . S
C1156 H1160 0.950 . S
C1156 C1165 1.390 . S
C1157 C1156 1.387 . S
C1157 C1159 1.387 . S
H1158 C1165 0.950 . S
C1159 C1157 1.387 . S
C1159 C1161 1.390 . S
C1159 H1163 0.950 1_554 S
H1160 C1156 0.950 . S
C1161 C1159 1.390 . S
C1161 C1162 1.387 . S
C1161 H1164 0.950 1_554 S
C1162 C1161 1.387 . S
C1162 C1165 1.387 . S
H1163 C1159 0.950 1_556 S
H1164 C1161 0.950 1_556 S
C1165 C1156 1.390 . S
C1165 H1158 0.950 . S
C1165 C1162 1.387 . S
C1166 C1167 1.387 . S
C1166 H1170 0.950 . S
C1166 C1175 1.390 . S
C1167 C1166 1.387 . S
C1167 C1169 1.387 . S
H1168 C1175 0.950 . S
C1169 C1167 1.387 . S
C1169 C1171 1.390 . S
C1169 H1173 0.950 . S
H1170 C1166 0.950 . S
C1171 C1169 1.390 . S
C1171 C1172 1.387 . S
C1171 H1174 0.950 . S
C1172 C1171 1.387 . S
C1172 C1175 1.387 . S
H1173 C1169 0.950 . S
H1174 C1171 0.950 . S
C1175 C1166 1.390 . S
C1175 H1168 0.950 . S
C1175 C1172 1.387 . S
C1176 C1177 1.387 . S
C1176 H1180 0.950 . S
C1176 C1185 1.390 . S
C1177 C1176 1.387 . S
C1177 C1179 1.387 . S
H1178 C1185 0.950 . S
C1179 C1177 1.387 . S
C1179 C1181 1.390 . S
C1179 H1183 0.950 . S
H1180 C1176 0.950 . S
C1181 C1179 1.390 . S
C1181 C1182 1.387 . S
C1181 H1184 0.950 . S
C1182 C1181 1.387 . S
C1182 C1185 1.387 . S
H1183 C1179 0.950 . S
H1184 C1181 0.950 . S
C1185 C1176 1.390 . S
C1185 H1178 0.950 . S
C1185 C1182 1.387 . S
C1186 C1187 1.387 . S
C1186 H1190 0.950 . S
C1186 C1195 1.390 . S
C1187 C1186 1.387 . S
C1187 C1189 1.387 . S
H1188 C1195 0.950 . S
C1189 C1187 1.387 . S
C1189 C1191 1.390 . S
C1189 H1193 0.950 . S
H1190 C1186 0.950 . S
C1191 C1189 1.390 . S
C1191 C1192 1.387 . S
C1191 H1194 0.950 . S
C1192 C1191 1.387 . S
C1192 C1195 1.387 . S
H1193 C1189 0.950 . S
H1194 C1191 0.950 . S
C1195 C1186 1.390 . S
C1195 H1188 0.950 . S
C1195 C1192 1.387 . S
C1196 C1197 1.387 . S
C1196 H1200 0.950 . S
C1196 C1205 1.390 . S
C1197 C1196 1.387 . S
C1197 C1199 1.387 . S
H1198 C1205 0.950 . S
C1199 C1197 1.387 . S
C1199 C1201 1.390 . S
C1199 H1203 0.950 . S
H1200 C1196 0.950 . S
C1201 C1199 1.390 . S
C1201 C1202 1.387 . S
C1201 H1204 0.950 . S
C1202 C1201 1.387 . S
C1202 C1205 1.387 . S
H1203 C1199 0.950 . S
H1204 C1201 0.950 . S
C1205 C1196 1.390 . S
C1205 H1198 0.950 . S
C1205 C1202 1.387 . S
C1206 C1207 1.387 . S
C1206 H1210 0.950 . S
C1206 C1215 1.390 . S
C1207 C1206 1.387 . S
C1207 C1209 1.387 . S
H1208 C1215 0.950 . S
C1209 C1207 1.387 . S
C1209 C1211 1.390 . S
C1209 H1213 0.950 . S
H1210 C1206 0.950 . S
C1211 C1209 1.390 . S
C1211 C1212 1.387 . S
C1211 H1214 0.950 . S
C1212 C1211 1.387 . S
C1212 C1215 1.387 . S
H1213 C1209 0.950 . S
H1214 C1211 0.950 . S
C1215 C1206 1.390 . S
C1215 H1208 0.950 . S
C1215 C1212 1.387 . S
C1216 C1217 1.387 . S
C1216 H1220 0.950 . S
C1216 C1225 1.390 . S
C1217 C1216 1.387 . S
C1217 C1219 1.387 . S
H1218 C1225 0.950 . S
C1219 C1217 1.387 . S
C1219 C1221 1.390 . S
C1219 H1223 0.950 . S
H1220 C1216 0.950 . S
C1221 C1219 1.390 . S
C1221 C1222 1.387 . S
C1221 H1224 0.950 . S
C1222 C1221 1.387 . S
C1222 C1225 1.387 . S
H1223 C1219 0.950 . S
H1224 C1221 0.950 . S
C1225 C1216 1.390 . S
C1225 H1218 0.950 . S
C1225 C1222 1.387 . S
C1226 C1227 1.387 . S
C1226 H1230 0.950 . S
C1226 C1235 1.390 . S
C1227 C1226 1.387 . S
C1227 C1229 1.387 . S
H1228 C1235 0.950 . S
C1229 C1227 1.387 . S
C1229 C1231 1.390 . S
C1229 H1233 0.950 . S
H1230 C1226 0.950 . S
C1231 C1229 1.390 . S
C1231 C1232 1.387 . S
C1231 H1234 0.950 . S
C1232 C1231 1.387 . S
C1232 C1235 1.387 . S
H1233 C1229 0.950 . S
H1234 C1231 0.950 . S
C1235 C1226 1.390 . S
C1235 H1228 0.950 . S
C1235 C1232 1.387 . S
C1236 C1237 1.387 . S
C1236 H1240 0.950 . S
C1236 C1245 1.390 . S
C1237 C1236 1.387 . S
C1237 C1239 1.387 . S
H1238 C1245 0.950 . S
C1239 C1237 1.387 . S
C1239 C1241 1.390 . S
C1239 H1243 0.950 . S
H1240 C1236 0.950 . S
C1241 C1239 1.390 . S
C1241 C1242 1.387 . S
C1241 H1244 0.950 . S
C1242 C1241 1.387 . S
C1242 C1245 1.387 . S
H1243 C1239 0.950 . S
H1244 C1241 0.950 . S
C1245 C1236 1.390 . S
C1245 H1238 0.950 . S
C1245 C1242 1.387 . S
C1246 C1247 1.387 . S
C1246 H1250 0.950 . S
C1246 C1255 1.390 . S
C1247 C1246 1.387 . S
C1247 C1249 1.387 . S
H1248 C1255 0.950 . S
C1249 C1247 1.387 . S
C1249 C1251 1.390 . S
C1249 H1253 0.950 . S
H1250 C1246 0.950 . S
C1251 C1249 1.390 . S
C1251 C1252 1.387 . S
C1251 H1254 0.950 . S
C1252 C1251 1.387 . S
C1252 C1255 1.387 . S
H1253 C1249 0.950 . S
H1254 C1251 0.950 . S
C1255 C1246 1.390 . S
C1255 H1248 0.950 . S
C1255 C1252 1.387 . S
C1256 C1257 1.387 . S
C1256 H1260 0.950 . S
C1256 C1265 1.390 . S
C1257 C1256 1.387 . S
C1257 C1259 1.387 . S
H1258 C1265 0.950 . S
C1259 C1257 1.387 . S
C1259 C1261 1.390 . S
C1259 H1263 0.950 . S
H1260 C1256 0.950 . S
C1261 C1259 1.390 . S
C1261 C1262 1.387 . S
C1261 H1264 0.950 . S
C1262 C1261 1.387 . S
C1262 C1265 1.387 . S
H1263 C1259 0.950 . S
H1264 C1261 0.950 . S
C1265 C1256 1.390 . S
C1265 H1258 0.950 . S
C1265 C1262 1.387 . S
C1266 C1267 1.387 . S
C1266 H1270 0.950 . S
C1266 C1275 1.390 . S
C1267 C1266 1.387 . S
C1267 C1269 1.387 . S
H1268 C1275 0.950 . S
C1269 C1267 1.387 . S
C1269 C1271 1.390 . S
C1269 H1273 0.950 . S
H1270 C1266 0.950 . S
C1271 C1269 1.390 . S
C1271 C1272 1.387 . S
C1271 H1274 0.950 . S
C1272 C1271 1.387 . S
C1272 C1275 1.387 . S
H1273 C1269 0.950 . S
H1274 C1271 0.950 . S
C1275 C1266 1.390 . S
C1275 H1268 0.950 . S
C1275 C1272 1.387 . S
C1276 C1277 1.387 . S
C1276 H1280 0.950 . S
C1276 C1285 1.390 . S
C1277 C1276 1.387 . S
C1277 C1279 1.387 . S
H1278 C1285 0.950 . S
C1279 C1277 1.387 . S
C1279 C1281 1.390 . S
C1279 H1283 0.950 . S
H1280 C1276 0.950 . S
C1281 C1279 1.390 . S
C1281 C1282 1.387 . S
C1281 H1284 0.950 . S
C1282 C1281 1.387 . S
C1282 C1285 1.387 . S
H1283 C1279 0.950 . S
H1284 C1281 0.950 . S
C1285 C1276 1.390 . S
C1285 H1278 0.950 . S
C1285 C1282 1.387 . S
C1286 C1287 1.387 . S
C1286 H1290 0.950 . S
C1286 C1295 1.390 . S
C1287 C1286 1.387 . S
C1287 C1289 1.387 . S
H1288 C1295 0.950 . S
C1289 C1287 1.387 . S
C1289 C1291 1.390 . S
C1289 H1293 0.950 . S
H1290 C1286 0.950 . S
C1291 C1289 1.390 . S
C1291 C1292 1.387 . S
C1291 H1294 0.950 . S
C1292 C1291 1.387 . S
C1292 C1295 1.387 . S
H1293 C1289 0.950 . S
H1294 C1291 0.950 . S
C1295 C1286 1.390 . S
C1295 H1288 0.950 . S
C1295 C1292 1.387 . S
C1296 C1297 1.387 . S
C1296 H1300 0.950 . S
C1296 C1305 1.390 . S
C1297 C1296 1.387 . S
C1297 C1299 1.387 . S
H1298 C1305 0.950 . S
C1299 C1297 1.387 . S
C1299 C1301 1.390 . S
C1299 H1303 0.950 . S
H1300 C1296 0.950 . S
C1301 C1299 1.390 . S
C1301 C1302 1.387 . S
C1301 H1304 0.950 . S
C1302 C1301 1.387 . S
C1302 C1305 1.387 . S
H1303 C1299 0.950 . S
H1304 C1301 0.950 . S
C1305 C1296 1.390 . S
C1305 H1298 0.950 . S
C1305 C1302 1.387 . S
C1306 C1307 1.387 . S
C1306 H1310 0.950 . S
C1306 C1315 1.390 . S
C1307 C1306 1.387 . S
C1307 C1309 1.387 . S
H1308 C1315 0.950 . S
C1309 C1307 1.387 . S
C1309 C1311 1.390 . S
C1309 H1313 0.950 . S
H1310 C1306 0.950 . S
C1311 C1309 1.390 . S
C1311 C1312 1.387 . S
C1311 H1314 0.950 . S
C1312 C1311 1.387 . S
C1312 C1315 1.387 . S
H1313 C1309 0.950 . S
H1314 C1311 0.950 . S
C1315 C1306 1.390 . S
C1315 H1308 0.950 . S
C1315 C1312 1.387 . S
C1316 C1317 1.387 . S
C1316 H1320 0.950 . S
C1316 C1325 1.390 . S
C1317 C1316 1.387 . S
C1317 C1319 1.387 . S
H1318 C1325 0.950 . S
C1319 C1317 1.387 . S
C1319 C1321 1.390 . S
C1319 H1323 0.950 . S
H1320 C1316 0.950 . S
C1321 C1319 1.390 . S
C1321 C1322 1.387 . S
C1321 H1324 0.950 . S
C1322 C1321 1.387 . S
C1322 C1325 1.387 . S
H1323 C1319 0.950 . S
H1324 C1321 0.950 . S
C1325 C1316 1.390 . S
C1325 H1318 0.950 . S
C1325 C1322 1.387 . S
C1326 C1327 1.387 . S
C1326 H1330 0.950 . S
C1326 C1335 1.390 . S
C1327 C1326 1.387 . S
C1327 C1329 1.387 . S
H1328 C1335 0.950 . S
C1329 C1327 1.387 . S
C1329 C1331 1.390 . S
C1329 H1333 0.950 . S
H1330 C1326 0.950 . S
C1331 C1329 1.390 . S
C1331 C1332 1.387 . S
C1331 H1334 0.950 . S
C1332 C1331 1.387 . S
C1332 C1335 1.387 . S
H1333 C1329 0.950 . S
H1334 C1331 0.950 . S
C1335 C1326 1.390 . S
C1335 H1328 0.950 . S
C1335 C1332 1.387 . S
C1336 C1337 1.387 . S
C1336 H1340 0.950 . S
C1336 C1345 1.390 . S
C1337 C1336 1.387 . S
C1337 C1339 1.387 . S
H1338 C1345 0.950 . S
C1339 C1337 1.387 . S
C1339 C1341 1.390 . S
C1339 H1343 0.950 . S
H1340 C1336 0.950 . S
C1341 C1339 1.390 . S
C1341 C1342 1.387 . S
C1341 H1344 0.950 . S
C1342 C1341 1.387 . S
C1342 C1345 1.387 . S
H1343 C1339 0.950 . S
H1344 C1341 0.950 . S
C1345 C1336 1.390 . S
C1345 H1338 0.950 . S
C1345 C1342 1.387 . S
C1346 C1347 1.387 . S
C1346 H1350 0.950 . S
C1346 C1355 1.390 . S
C1347 C1346 1.387 . S
C1347 C1349 1.387 . S
H1348 C1355 0.950 . S
C1349 C1347 1.387 . S
C1349 C1351 1.390 . S
C1349 H1353 0.950 . S
H1350 C1346 0.950 . S
C1351 C1349 1.390 . S
C1351 C1352 1.387 . S
C1351 H1354 0.950 . S
C1352 C1351 1.387 . S
C1352 C1355 1.387 . S
H1353 C1349 0.950 . S
H1354 C1351 0.950 . S
C1355 C1346 1.390 . S
C1355 H1348 0.950 . S
C1355 C1352 1.387 . S
C1356 C1357 1.387 . S
C1356 H1360 0.950 . S
C1356 C1365 1.390 . S
C1357 C1356 1.387 . S
C1357 C1359 1.387 . S
H1358 C1365 0.950 . S
C1359 C1357 1.387 . S
C1359 C1361 1.390 . S
C1359 H1363 0.950 . S
H1360 C1356 0.950 . S
C1361 C1359 1.390 . S
C1361 C1362 1.387 . S
C1361 H1364 0.950 . S
C1362 C1361 1.387 . S
C1362 C1365 1.387 . S
H1363 C1359 0.950 . S
H1364 C1361 0.950 . S
C1365 C1356 1.390 . S
C1365 H1358 0.950 . S
C1365 C1362 1.387 . S
C1366 C1367 1.387 . S
C1366 H1370 0.950 . S
C1366 C1375 1.390 . S
C1367 C1366 1.387 . S
C1367 C1369 1.387 . S
H1368 C1375 0.950 . S
C1369 C1367 1.387 . S
C1369 C1371 1.390 . S
C1369 H1373 0.950 . S
H1370 C1366 0.950 . S
C1371 C1369 1.390 . S
C1371 C1372 1.387 . S
C1371 H1374 0.950 . S
C1372 C1371 1.387 . S
C1372 C1375 1.387 . S
H1373 C1369 0.950 . S
H1374 C1371 0.950 . S
C1375 C1366 1.390 . S
C1375 H1368 0.950 . S
C1375 C1372 1.387 . S
C1376 C1377 1.387 . S
C1376 H1380 0.950 . S
C1376 C1385 1.390 1_665 S
C1377 C1376 1.387 . S
C1377 C1379 1.387 . S
H1378 C1385 0.950 . S
C1379 C1377 1.387 . S
C1379 C1381 1.390 1_665 S
C1379 H1383 0.950 . S
H1380 C1376 0.950 . S
C1381 C1379 1.390 1_445 S
C1381 C1382 1.387 . S
C1381 H1384 0.950 . S
C1382 C1381 1.387 . S
C1382 C1385 1.387 . S
H1383 C1379 0.950 . S
H1384 C1381 0.950 . S
C1385 C1376 1.390 1_445 S
C1385 H1378 0.950 . S
C1385 C1382 1.387 . S
C1386 C1387 1.387 . S
C1386 H1390 0.950 . S
C1386 C1395 1.390 . S
C1387 C1386 1.387 . S
C1387 C1389 1.387 . S
H1388 C1395 0.950 . S
C1389 C1387 1.387 . S
C1389 C1391 1.390 . S
C1389 H1393 0.950 . S
H1390 C1386 0.950 . S
C1391 C1389 1.390 . S
C1391 C1392 1.387 . S
C1391 H1394 0.950 . S
C1392 C1391 1.387 . S
C1392 C1395 1.387 . S
H1393 C1389 0.950 . S
H1394 C1391 0.950 . S
C1395 C1386 1.390 . S
C1395 H1388 0.950 . S
C1395 C1392 1.387 . S
C1396 C1397 1.387 . S
C1396 H1400 0.950 . S
C1396 C1405 1.390 1_655 S
C1397 C1396 1.387 . S
C1397 C1399 1.387 . S
H1398 C1405 0.950 . S
C1399 C1397 1.387 . S
C1399 C1401 1.390 1_655 S
C1399 H1403 0.950 . S
H1400 C1396 0.950 . S
C1401 C1399 1.390 1_455 S
C1401 C1402 1.387 . S
C1401 H1404 0.950 . S
C1402 C1401 1.387 . S
C1402 C1405 1.387 . S
H1403 C1399 0.950 . S
H1404 C1401 0.950 . S
C1405 C1396 1.390 1_455 S
C1405 H1398 0.950 . S
C1405 C1402 1.387 . S
C1406 C1407 1.387 . S
C1406 H1410 0.950 . S
C1406 C1415 1.390 1_545 S
C1407 C1406 1.387 . S
C1407 C1409 1.387 . S
H1408 C1415 0.950 . S
C1409 C1407 1.387 . S
C1409 C1411 1.390 1_545 S
C1409 H1413 0.950 . S
H1410 C1406 0.950 . S
C1411 C1409 1.390 1_565 S
C1411 C1412 1.387 . S
C1411 H1414 0.950 . S
C1412 C1411 1.387 . S
C1412 C1415 1.387 . S
H1413 C1409 0.950 . S
H1414 C1411 0.950 . S
C1415 C1406 1.390 1_565 S
C1415 H1408 0.950 . S
C1415 C1412 1.387 . S
C1416 C1417 1.387 . S
C1416 H1420 0.950 . S
C1416 C1425 1.390 . S
C1417 C1416 1.387 . S
C1417 C1419 1.387 . S
H1418 C1425 0.950 . S
C1419 C1417 1.387 . S
C1419 C1421 1.390 . S
C1419 H1423 0.950 . S
H1420 C1416 0.950 . S
C1421 C1419 1.390 . S
C1421 C1422 1.387 . S
C1421 H1424 0.950 . S
C1422 C1421 1.387 . S
C1422 C1425 1.387 . S
H1423 C1419 0.950 . S
H1424 C1421 0.950 . S
C1425 C1416 1.390 . S
C1425 H1418 0.950 . S
C1425 C1422 1.387 . S
C1426 C1427 1.387 . S
C1426 H1430 0.950 . S
C1426 C1435 1.390 1_655 S
C1427 C1426 1.387 . S
C1427 C1429 1.387 . S
H1428 C1435 0.950 . S
C1429 C1427 1.387 . S
C1429 C1431 1.390 1_655 S
C1429 H1433 0.950 . S
H1430 C1426 0.950 . S
C1431 C1429 1.390 1_455 S
C1431 C1432 1.387 . S
C1431 H1434 0.950 . S
C1432 C1431 1.387 . S
C1432 C1435 1.387 . S
H1433 C1429 0.950 . S
H1434 C1431 0.950 . S
C1435 C1426 1.390 1_455 S
C1435 H1428 0.950 . S
C1435 C1432 1.387 . S
C1436 C1437 1.387 . S
C1436 H1440 0.950 . S
C1436 C1445 1.390 1_545 S
C1437 C1436 1.387 . S
C1437 C1439 1.387 . S
H1438 C1445 0.950 . S
C1439 C1437 1.387 . S
C1439 C1441 1.390 1_545 S
C1439 H1443 0.950 . S
H1440 C1436 0.950 . S
C1441 C1439 1.390 1_565 S
C1441 C1442 1.387 . S
C1441 H1444 0.950 . S
C1442 C1441 1.387 . S
C1442 C1445 1.387 . S
H1443 C1439 0.950 . S
H1444 C1441 0.950 . S
C1445 C1436 1.390 1_565 S
C1445 H1438 0.950 . S
C1445 C1442 1.387 . S
C1446 C1447 1.374 1_556 S
C1446 H1450 0.950 . S
C1446 C1455 1.390 1_455 S
C1447 C1446 1.374 1_554 S
C1447 C1449 1.400 . S
H1448 C1455 0.950 . S
C1449 C1447 1.400 . S
C1449 C1451 1.390 1_455 S
C1449 H1453 0.950 . S
H1450 C1446 0.950 . S
C1451 C1449 1.390 1_655 S
C1451 C1452 1.374 1_554 S
C1451 H1454 0.950 . S
C1452 C1451 1.374 1_556 S
C1452 C1455 1.400 . S
H1453 C1449 0.950 . S
H1454 C1451 0.950 . S
C1455 C1446 1.390 1_655 S
C1455 H1448 0.950 . S
C1455 C1452 1.400 . S
C1456 C1457 1.375 1_554 S
C1456 H1460 0.950 . S
C1456 C1465 1.390 . S
C1457 C1456 1.375 1_556 S
C1457 C1459 1.400 . S
H1458 C1465 0.950 . S
C1459 C1457 1.400 . S
C1459 C1461 1.390 . S
C1459 H1463 0.950 . S
H1460 C1456 0.950 . S
C1461 C1459 1.390 . S
C1461 C1462 1.375 1_556 S
C1461 H1464 0.950 . S
C1462 C1461 1.375 1_554 S
C1462 C1465 1.400 . S
H1463 C1459 0.950 . S
H1464 C1461 0.950 . S
C1465 C1456 1.390 . S
C1465 H1458 0.950 . S
C1465 C1462 1.400 . S
C1466 C1467 1.387 . S
C1466 H1470 0.950 . S
C1466 C1475 1.390 . S
C1467 C1466 1.387 . S
C1467 C1469 1.387 . S
H1468 C1475 0.950 . S
C1469 C1467 1.387 . S
C1469 C1471 1.390 . S
C1469 H1473 0.950 . S
H1470 C1466 0.950 . S
C1471 C1469 1.390 . S
C1471 C1472 1.387 . S
C1471 H1474 0.950 . S
C1472 C1471 1.387 . S
C1472 C1475 1.387 . S
H1473 C1469 0.950 . S
H1474 C1471 0.950 . S
C1475 C1466 1.390 . S
C1475 H1468 0.950 . S
C1475 C1472 1.387 . S
C1476 C1477 1.401 . S
C1476 H1480 0.950 . S
C1476 C1485 1.390 . S
C1477 C1476 1.401 . S
C1477 C1479 1.374 1_556 S
H1478 C1485 0.950 . S
C1479 C1477 1.374 1_554 S
C1479 C1481 1.390 . S
C1479 H1483 0.950 . S
H1480 C1476 0.950 . S
C1481 C1479 1.390 . S
C1481 C1482 1.401 . S
C1481 H1484 0.950 . S
C1482 C1481 1.401 . S
C1482 C1485 1.374 1_554 S
H1483 C1479 0.950 . S
H1484 C1481 0.950 . S
C1485 C1476 1.390 . S
C1485 H1478 0.950 . S
C1485 C1482 1.374 1_556 S
C1486 C1487 1.387 . S
C1486 H1490 0.950 . S
C1486 C1495 1.390 . S
C1487 C1486 1.387 . S
C1487 C1489 1.387 . S
H1488 C1495 0.950 . S
C1489 C1487 1.387 . S
C1489 C1491 1.390 . S
C1489 H1493 0.950 . S
H1490 C1486 0.950 . S
C1491 C1489 1.390 . S
C1491 C1492 1.387 . S
C1491 H1494 0.950 . S
C1492 C1491 1.387 . S
C1492 C1495 1.387 . S
H1493 C1489 0.950 . S
H1494 C1491 0.950 . S
C1495 C1486 1.390 . S
C1495 H1488 0.950 . S
C1495 C1492 1.387 . S
C1496 C1497 1.375 1_554 S
C1496 H1500 0.950 . S
C1496 C1505 1.390 1_565 S
C1497 C1496 1.375 1_556 S
C1497 C1499 1.400 . S
H1498 C1505 0.950 . S
C1499 C1497 1.400 . S
C1499 C1501 1.390 1_565 S
C1499 H1503 0.950 . S
H1500 C1496 0.950 . S
C1501 C1499 1.390 1_545 S
C1501 C1502 1.375 1_556 S
C1501 H1504 0.950 . S
C1502 C1501 1.375 1_554 S
C1502 C1505 1.400 . S
H1503 C1499 0.950 . S
H1504 C1501 0.950 . S
C1505 C1496 1.390 1_545 S
C1505 H1498 0.950 . S
C1505 C1502 1.400 . S
C1506 C1507 1.387 . S
C1506 H1510 0.950 . S
C1506 C1515 1.390 . S
C1507 C1506 1.387 . S
C1507 C1509 1.387 . S
H1508 C1515 0.950 . S
C1509 C1507 1.387 . S
C1509 C1511 1.390 . S
C1509 H1513 0.950 . S
H1510 C1506 0.950 . S
C1511 C1509 1.390 . S
C1511 C1512 1.387 . S
C1511 H1514 0.950 . S
C1512 C1511 1.387 . S
C1512 C1515 1.387 . S
H1513 C1509 0.950 . S
H1514 C1511 0.950 . S
C1515 C1506 1.390 . S
C1515 H1508 0.950 . S
C1515 C1512 1.387 . S
C1516 C1517 1.387 . S
C1516 H1520 0.950 . S
C1516 C1525 1.390 . S
C1517 C1516 1.387 . S
C1517 C1519 1.387 . S
H1518 C1525 0.950 . S
C1519 C1517 1.387 . S
C1519 C1521 1.390 . S
C1519 H1523 0.950 . S
H1520 C1516 0.950 . S
C1521 C1519 1.390 . S
C1521 C1522 1.387 . S
C1521 H1524 0.950 . S
C1522 C1521 1.387 . S
C1522 C1525 1.387 . S
H1523 C1519 0.950 . S
H1524 C1521 0.950 . S
C1525 C1516 1.390 . S
C1525 H1518 0.950 . S
C1525 C1522 1.387 . S
C1526 C1527 1.387 . S
C1526 H1530 0.950 . S
C1526 C1535 1.390 . S
C1527 C1526 1.387 . S
C1527 C1529 1.387 . S
H1528 C1535 0.950 . S
C1529 C1527 1.387 . S
C1529 C1531 1.390 . S
C1529 H1533 0.950 . S
H1530 C1526 0.950 . S
C1531 C1529 1.390 . S
C1531 C1532 1.387 . S
C1531 H1534 0.950 . S
C1532 C1531 1.387 . S
C1532 C1535 1.387 . S
H1533 C1529 0.950 . S
H1534 C1531 0.950 . S
C1535 C1526 1.390 . S
C1535 H1528 0.950 . S
C1535 C1532 1.387 . S
C1536 C1537 1.387 . S
C1536 H1540 0.950 . S
C1536 C1545 1.390 . S
C1537 C1536 1.387 . S
C1537 C1539 1.387 1_565 S
H1538 C1545 0.950 . S
C1539 C1537 1.387 1_545 S
C1539 C1541 1.390 . S
C1539 H1543 0.950 . S
H1540 C1536 0.950 . S
C1541 C1539 1.390 . S
C1541 C1542 1.387 . S
C1541 H1544 0.950 . S
C1542 C1541 1.387 . S
C1542 C1545 1.387 1_545 S
H1543 C1539 0.950 . S
H1544 C1541 0.950 . S
C1545 C1536 1.390 . S
C1545 H1538 0.950 . S
C1545 C1542 1.387 1_565 S
C1546 C1547 1.387 . S
C1546 H1550 0.950 . S
C1546 C1555 1.390 . S
C1547 C1546 1.387 . S
C1547 C1549 1.387 . S
H1548 C1555 0.950 . S
C1549 C1547 1.387 . S
C1549 C1551 1.390 . S
C1549 H1553 0.950 . S
H1550 C1546 0.950 . S
C1551 C1549 1.390 . S
C1551 C1552 1.387 . S
C1551 H1554 0.950 1_655 S
C1552 C1551 1.387 . S
C1552 C1555 1.387 . S
H1553 C1549 0.950 . S
H1554 C1551 0.950 1_455 S
C1555 C1546 1.390 . S
C1555 H1548 0.950 . S
C1555 C1552 1.387 . S
C1556 C1557 1.387 . S
C1556 H1560 0.950 . S
C1556 C1565 1.390 . S
C1557 C1556 1.387 . S
C1557 C1559 1.387 . S
H1558 C1565 0.950 . S
C1559 C1557 1.387 . S
C1559 C1561 1.390 . S
C1559 H1563 0.950 . S
H1560 C1556 0.950 . S
C1561 C1559 1.390 . S
C1561 C1562 1.387 . S
C1561 H1564 0.950 . S
C1562 C1561 1.387 . S
C1562 C1565 1.387 . S
H1563 C1559 0.950 . S
H1564 C1561 0.950 . S
C1565 C1556 1.390 . S
C1565 H1558 0.950 . S
C1565 C1562 1.387 . S
C1566 C1567 1.387 . S
C1566 H1570 0.950 . S
C1566 C1575 1.390 . S
C1567 C1566 1.387 . S
C1567 C1569 1.387 1_545 S
H1568 C1575 0.950 . S
C1569 C1567 1.387 1_565 S
C1569 C1571 1.390 . S
C1569 H1573 0.950 . S
H1570 C1566 0.950 . S
C1571 C1569 1.390 . S
C1571 C1572 1.387 . S
C1571 H1574 0.950 . S
C1572 C1571 1.387 . S
C1572 C1575 1.387 1_565 S
H1573 C1569 0.950 . S
H1574 C1571 0.950 . S
C1575 C1566 1.390 . S
C1575 H1568 0.950 . S
C1575 C1572 1.387 1_545 S
C1576 C1577 1.387 . S
C1576 H1580 0.950 . S
C1576 C1585 1.390 . S
C1577 C1576 1.387 . S
C1577 C1579 1.387 1_565 S
H1578 C1585 0.950 . S
C1579 C1577 1.387 1_545 S
C1579 C1581 1.390 . S
C1579 H1583 0.950 . S
H1580 C1576 0.950 . S
C1581 C1579 1.390 . S
C1581 C1582 1.387 . S
C1581 H1584 0.950 . S
C1582 C1581 1.387 . S
C1582 C1585 1.387 1_545 S
H1583 C1579 0.950 . S
H1584 C1581 0.950 . S
C1585 C1576 1.390 . S
C1585 H1578 0.950 . S
C1585 C1582 1.387 1_565 S
C1586 C1587 1.387 . S
C1586 H1590 0.950 . S
C1586 C1595 1.390 . S
C1587 C1586 1.387 . S
C1587 C1589 1.387 . S
H1588 C1595 0.950 . S
C1589 C1587 1.387 . S
C1589 C1591 1.390 . S
C1589 H1593 0.950 . S
H1590 C1586 0.950 . S
C1591 C1589 1.390 . S
C1591 C1592 1.387 . S
C1591 H1594 0.950 . S
C1592 C1591 1.387 . S
C1592 C1595 1.387 . S
H1593 C1589 0.950 . S
H1594 C1591 0.950 . S
C1595 C1586 1.390 . S
C1595 H1588 0.950 . S
C1595 C1592 1.387 . S
C1596 C1597 1.387 . S
C1596 H1600 0.950 . S
C1596 C1605 1.390 . S
C1597 C1596 1.387 . S
C1597 C1599 1.387 . S
H1598 C1605 0.950 . S
C1599 C1597 1.387 . S
C1599 C1601 1.390 . S
C1599 H1603 0.950 . S
H1600 C1596 0.950 . S
C1601 C1599 1.390 . S
C1601 C1602 1.387 . S
C1601 H1604 0.950 . S
C1602 C1601 1.387 . S
C1602 C1605 1.387 . S
H1603 C1599 0.950 . S
H1604 C1601 0.950 . S
C1605 C1596 1.390 . S
C1605 H1598 0.950 . S
C1605 C1602 1.387 . S
C1606 C1607 1.387 . S
C1606 H1610 0.950 1_455 S
C1606 C1615 1.390 1_565 S
C1607 C1606 1.387 . S
C1607 C1609 1.387 . S
H1608 C1615 0.950 . S
C1609 C1607 1.387 . S
C1609 C1611 1.377 1_565 S
C1609 H1613 0.950 . S
H1610 C1606 0.950 1_655 S
C1611 C1609 1.377 1_545 S
C1611 C1612 1.398 . S
C1611 H1614 0.954 . S
C1612 C1611 1.398 . S
C1612 C1615 1.387 . S
H1613 C1609 0.950 . S
H1614 C1611 0.954 . S
C1615 C1606 1.390 1_545 S
C1615 H1608 0.950 . S
C1615 C1612 1.387 . S
C1616 C1617 1.387 . S
C1616 H1620 0.950 . S
C1616 C1625 1.390 . S
C1617 C1616 1.387 . S
C1617 C1619 1.387 . S
H1618 C1625 0.950 . S
C1619 C1617 1.387 . S
C1619 C1621 1.390 . S
C1619 H1623 0.950 . S
H1620 C1616 0.950 . S
C1621 C1619 1.390 . S
C1621 C1622 1.387 . S
C1621 H1624 0.950 . S
C1622 C1621 1.387 . S
C1622 C1625 1.387 . S
H1623 C1619 0.950 . S
H1624 C1621 0.950 . S
C1625 C1616 1.390 . S
C1625 H1618 0.950 . S
C1625 C1622 1.387 . S
C1626 C1627 1.387 . S
C1626 H1630 0.950 . S
C1626 C1635 1.390 . S
C1627 C1626 1.387 . S
C1627 C1629 1.387 . S
H1628 C1635 0.950 . S
C1629 C1627 1.387 . S
C1629 C1631 1.390 . S
C1629 H1633 0.950 . S
H1630 C1626 0.950 . S
C1631 C1629 1.390 . S
C1631 C1632 1.387 . S
C1631 H1634 0.950 . S
C1632 C1631 1.387 . S
C1632 C1635 1.387 . S
H1633 C1629 0.950 . S
H1634 C1631 0.950 . S
C1635 C1626 1.390 . S
C1635 H1628 0.950 . S
C1635 C1632 1.387 . S
C1636 C1637 1.387 . S
C1636 H1640 0.950 . S
C1636 C1645 1.390 . S
C1637 C1636 1.387 . S
C1637 C1639 1.387 . S
H1638 C1645 0.950 . S
C1639 C1637 1.387 . S
C1639 C1641 1.390 . S
C1639 H1643 0.950 . S
H1640 C1636 0.950 . S
C1641 C1639 1.390 . S
C1641 C1642 1.387 . S
C1641 H1644 0.950 . S
C1642 C1641 1.387 . S
C1642 C1645 1.387 . S
H1643 C1639 0.950 . S
H1644 C1641 0.950 . S
C1645 C1636 1.390 . S
C1645 H1638 0.950 . S
C1645 C1642 1.387 . S
C1646 C1647 1.387 . S
C1646 H1650 0.950 . S
C1646 C1655 1.390 . S
C1647 C1646 1.387 . S
C1647 C1649 1.387 . S
H1648 C1655 0.950 . S
C1649 C1647 1.387 . S
C1649 C1651 1.390 . S
C1649 H1653 0.950 . S
H1650 C1646 0.950 . S
C1651 C1649 1.390 . S
C1651 C1652 1.387 . S
C1651 H1654 0.950 . S
C1652 C1651 1.387 . S
C1652 C1655 1.387 . S
H1653 C1649 0.950 . S
H1654 C1651 0.950 . S
C1655 C1646 1.390 . S
C1655 H1648 0.950 . S
C1655 C1652 1.387 . S
C1656 C1657 1.387 . S
C1656 H1660 0.950 . S
C1656 C1665 1.390 . S
C1657 C1656 1.387 . S
C1657 C1659 1.387 . S
H1658 C1665 0.950 . S
C1659 C1657 1.387 . S
C1659 C1661 1.390 . S
C1659 H1663 0.950 . S
H1660 C1656 0.950 . S
C1661 C1659 1.390 . S
C1661 C1662 1.387 . S
C1661 H1664 0.950 . S
C1662 C1661 1.387 . S
C1662 C1665 1.387 . S
H1663 C1659 0.950 . S
H1664 C1661 0.950 . S
C1665 C1656 1.390 . S
C1665 H1658 0.950 . S
C1665 C1662 1.387 . S
C1666 C1667 1.387 . S
C1666 H1670 0.950 . S
C1666 C1675 1.390 . S
C1667 C1666 1.387 . S
C1667 C1669 1.387 . S
H1668 C1675 0.950 . S
C1669 C1667 1.387 . S
C1669 C1671 1.390 . S
C1669 H1673 0.950 . S
H1670 C1666 0.950 . S
C1671 C1669 1.390 . S
C1671 C1672 1.387 . S
C1671 H1674 0.950 . S
C1672 C1671 1.387 . S
C1672 C1675 1.387 . S
H1673 C1669 0.950 . S
H1674 C1671 0.950 . S
C1675 C1666 1.390 . S
C1675 H1668 0.950 . S
C1675 C1672 1.387 . S
C1676 C1677 1.387 . S
C1676 H1680 0.950 . S
C1676 C1685 1.390 . S
C1677 C1676 1.387 . S
C1677 C1679 1.387 . S
H1678 C1685 0.950 . S
C1679 C1677 1.387 . S
C1679 C1681 1.390 . S
C1679 H1683 0.950 . S
H1680 C1676 0.950 . S
C1681 C1679 1.390 . S
C1681 C1682 1.387 . S
C1681 H1684 0.950 . S
C1682 C1681 1.387 . S
C1682 C1685 1.387 . S
H1683 C1679 0.950 . S
H1684 C1681 0.950 . S
C1685 C1676 1.390 . S
C1685 H1678 0.950 . S
C1685 C1682 1.387 . S
C1686 C1687 1.387 . S
C1686 H1690 0.950 . S
C1686 C1695 1.390 . S
C1687 C1686 1.387 . S
C1687 C1689 1.387 . S
H1688 C1695 0.950 . S
C1689 C1687 1.387 . S
C1689 C1691 1.390 . S
C1689 H1693 0.950 . S
H1690 C1686 0.950 . S
C1691 C1689 1.390 . S
C1691 C1692 1.387 . S
C1691 H1694 0.950 . S
C1692 C1691 1.387 . S
C1692 C1695 1.387 . S
H1693 C1689 0.950 . S
H1694 C1691 0.950 . S
C1695 C1686 1.390 . S
C1695 H1688 0.950 . S
C1695 C1692 1.387 . S
C1696 C1697 1.387 1_545 S
C1696 H1700 0.950 . S
C1696 C1705 1.390 . S
C1697 C1696 1.387 1_565 S
C1697 C1699 1.387 . S
H1698 C1705 0.950 . S
C1699 C1697 1.387 . S
C1699 C1701 1.390 . S
C1699 H1703 0.950 . S
H1700 C1696 0.950 . S
C1701 C1699 1.390 . S
C1701 C1702 1.387 1_565 S
C1701 H1704 0.950 . S
C1702 C1701 1.387 1_545 S
C1702 C1705 1.387 . S
H1703 C1699 0.950 . S
H1704 C1701 0.950 . S
C1705 C1696 1.390 . S
C1705 H1698 0.950 . S
C1705 C1702 1.387 . S
C1706 C1707 1.387 . S
C1706 H1710 0.950 . S
C1706 C1715 1.390 . S
C1707 C1706 1.387 . S
C1707 C1709 1.387 . S
H1708 C1715 0.950 . S
C1709 C1707 1.387 . S
C1709 C1711 1.390 . S
C1709 H1713 0.950 . S
H1710 C1706 0.950 . S
C1711 C1709 1.390 . S
C1711 C1712 1.387 . S
C1711 H1714 0.950 1_554 S
C1712 C1711 1.387 . S
C1712 C1715 1.387 . S
H1713 C1709 0.950 . S
H1714 C1711 0.950 1_556 S
C1715 C1706 1.390 . S
C1715 H1708 0.950 . S
C1715 C1712 1.387 . S
C1716 C1717 1.387 . S
C1716 H1720 0.950 . S
C1716 C1725 1.390 . S
C1717 C1716 1.387 . S
C1717 C1719 1.387 . S
H1718 C1725 0.950 . S
C1719 C1717 1.387 . S
C1719 C1721 1.390 . S
C1719 H1723 0.950 . S
H1720 C1716 0.950 . S
C1721 C1719 1.390 . S
C1721 C1722 1.387 . S
C1721 H1724 0.950 . S
C1722 C1721 1.387 . S
C1722 C1725 1.387 . S
H1723 C1719 0.950 . S
H1724 C1721 0.950 . S
C1725 C1716 1.390 . S
C1725 H1718 0.950 . S
C1725 C1722 1.387 . S
C1726 C1727 1.387 1_565 S
C1726 H1730 0.950 . S
C1726 C1735 1.390 . S
C1727 C1726 1.387 1_545 S
C1727 C1729 1.387 . S
H1728 C1735 0.950 . S
C1729 C1727 1.387 . S
C1729 C1731 1.390 . S
C1729 H1733 0.950 . S
H1730 C1726 0.950 . S
C1731 C1729 1.390 . S
C1731 C1732 1.387 1_545 S
C1731 H1734 0.950 . S
C1732 C1731 1.387 1_565 S
C1732 C1735 1.387 . S
H1733 C1729 0.950 . S
H1734 C1731 0.950 . S
C1735 C1726 1.390 . S
C1735 H1728 0.950 . S
C1735 C1732 1.387 . S
C1736 C1737 1.387 . S
C1736 H1740 0.950 . S
C1736 C1745 1.390 . S
C1737 C1736 1.387 . S
C1737 C1739 1.387 1_565 S
H1738 C1745 0.950 . S
C1739 C1737 1.387 1_545 S
C1739 C1741 1.390 . S
C1739 H1743 0.950 . S
H1740 C1736 0.950 . S
C1741 C1739 1.390 . S
C1741 C1742 1.387 . S
C1741 H1744 0.950 . S
C1742 C1741 1.387 . S
C1742 C1745 1.387 1_545 S
H1743 C1739 0.950 . S
H1744 C1741 0.950 . S
C1745 C1736 1.390 . S
C1745 H1738 0.950 . S
C1745 C1742 1.387 1_565 S
C1746 C1747 1.387 . S
C1746 H1750 0.950 . S
C1746 C1755 1.390 . S
C1747 C1746 1.387 . S
C1747 C1749 1.387 . S
H1748 C1755 0.950 1_554 S
C1749 C1747 1.387 . S
C1749 C1751 1.390 . S
C1749 H1753 0.950 . S
H1750 C1746 0.950 . S
C1751 C1749 1.390 . S
C1751 C1752 1.387 . S
C1751 H1754 0.950 . S
C1752 C1751 1.387 . S
C1752 C1755 1.387 . S
H1753 C1749 0.950 . S
H1754 C1751 0.950 . S
C1755 C1746 1.390 . S
C1755 H1748 0.950 1_556 S
C1755 C1752 1.387 . S
C1756 C1757 1.387 . S
C1756 H1760 0.950 . S
C1756 C1765 1.390 . S
C1757 C1756 1.387 . S
C1757 C1759 1.387 . S
H1758 C1765 0.950 . S
C1759 C1757 1.387 . S
C1759 C1761 1.390 . S
C1759 H1763 0.950 . S
H1760 C1756 0.950 . S
C1761 C1759 1.390 . S
C1761 C1762 1.387 . S
C1761 H1764 0.950 . S
C1762 C1761 1.387 . S
C1762 C1765 1.387 . S
H1763 C1759 0.950 . S
H1764 C1761 0.950 . S
C1765 C1756 1.390 . S
C1765 H1758 0.950 . S
C1765 C1762 1.387 . S
C1766 C1767 1.387 1_545 S
C1766 H1770 0.950 . S
C1766 C1775 1.390 . S
C1767 C1766 1.387 1_565 S
C1767 C1769 1.387 . S
H1768 C1775 0.950 . S
C1769 C1767 1.387 . S
C1769 C1771 1.390 . S
C1769 H1773 0.950 . S
H1770 C1766 0.950 . S
C1771 C1769 1.390 . S
C1771 C1772 1.387 1_565 S
C1771 H1774 0.950 . S
C1772 C1771 1.387 1_545 S
C1772 C1775 1.387 . S
H1773 C1769 0.950 . S
H1774 C1771 0.950 . S
C1775 C1766 1.390 . S
C1775 H1768 0.950 . S
C1775 C1772 1.387 . S
C1776 C1777 1.387 . S
C1776 H1780 0.950 . S
C1776 C1785 1.390 . S
C1777 C1776 1.387 . S
C1777 C1779 1.387 . S
H1778 C1785 0.950 . S
C1779 C1777 1.387 . S
C1779 C1781 1.390 . S
C1779 H1783 0.950 . S
H1780 C1776 0.950 . S
C1781 C1779 1.390 . S
C1781 C1782 1.387 . S
C1781 H1784 0.950 . S
C1782 C1781 1.387 . S
C1782 C1785 1.387 . S
H1783 C1779 0.950 . S
H1784 C1781 0.950 . S
C1785 C1776 1.390 . S
C1785 H1778 0.950 . S
C1785 C1782 1.387 . S
C1786 C1787 1.387 . S
C1786 H1790 0.950 . S
C1786 C1795 1.390 . S
C1787 C1786 1.387 . S
C1787 C1789 1.387 . S
H1788 C1795 0.950 . S
C1789 C1787 1.387 . S
C1789 C1791 1.390 . S
C1789 H1793 0.950 . S
H1790 C1786 0.950 . S
C1791 C1789 1.390 . S
C1791 C1792 1.387 . S
C1791 H1794 0.950 . S
C1792 C1791 1.387 . S
C1792 C1795 1.387 . S
H1793 C1789 0.950 . S
H1794 C1791 0.950 . S
C1795 C1786 1.390 . S
C1795 H1788 0.950 . S
C1795 C1792 1.387 . S
C1796 C1797 1.387 . S
C1796 H1800 0.950 . S
C1796 C1805 1.390 . S
C1797 C1796 1.387 . S
C1797 C1799 1.387 . S
H1798 C1805 0.950 . S
C1799 C1797 1.387 . S
C1799 C1801 1.390 . S
C1799 H1803 0.950 . S
H1800 C1796 0.950 . S
C1801 C1799 1.390 . S
C1801 C1802 1.387 . S
C1801 H1804 0.950 . S
C1802 C1801 1.387 . S
C1802 C1805 1.387 . S
H1803 C1799 0.950 . S
H1804 C1801 0.950 . S
C1805 C1796 1.390 . S
C1805 H1798 0.950 . S
C1805 C1802 1.387 . S
C1806 C1807 1.387 . S
C1806 H1810 0.950 . S
C1806 C1815 1.390 . S
C1807 C1806 1.387 . S
C1807 C1809 1.387 . S
H1808 C1815 0.950 . S
C1809 C1807 1.387 . S
C1809 C1811 1.390 . S
C1809 H1813 0.950 . S
H1810 C1806 0.950 . S
C1811 C1809 1.390 . S
C1811 C1812 1.387 . S
C1811 H1814 0.950 . S
C1812 C1811 1.387 . S
C1812 C1815 1.387 . S
H1813 C1809 0.950 . S
H1814 C1811 0.950 . S
C1815 C1806 1.390 . S
C1815 H1808 0.950 . S
C1815 C1812 1.387 . S
C1816 C1817 1.387 . S
C1816 H1820 0.950 . S
C1816 C1825 1.390 . S
C1817 C1816 1.387 . S
C1817 C1819 1.387 . S
H1818 C1825 0.950 . S
C1819 C1817 1.387 . S
C1819 C1821 1.390 . S
C1819 H1823 0.950 . S
H1820 C1816 0.950 . S
C1821 C1819 1.390 . S
C1821 C1822 1.387 . S
C1821 H1824 0.950 . S
C1822 C1821 1.387 . S
C1822 C1825 1.387 . S
H1823 C1819 0.950 . S
H1824 C1821 0.950 . S
C1825 C1816 1.390 . S
C1825 H1818 0.950 . S
C1825 C1822 1.387 . S
C1826 C1827 1.387 . S
C1826 H1830 0.950 . S
C1826 C1835 1.390 . S
C1827 C1826 1.387 . S
C1827 C1829 1.387 . S
H1828 C1835 0.950 . S
C1829 C1827 1.387 . S
C1829 C1831 1.390 . S
C1829 H1833 0.950 . S
H1830 C1826 0.950 . S
C1831 C1829 1.390 . S
C1831 C1832 1.387 . S
C1831 H1834 0.950 . S
C1832 C1831 1.387 . S
C1832 C1835 1.387 . S
H1833 C1829 0.950 . S
H1834 C1831 0.950 . S
C1835 C1826 1.390 . S
C1835 H1828 0.950 . S
C1835 C1832 1.387 . S
C1836 C1837 1.387 . S
C1836 H1840 0.950 . S
C1836 C1845 1.390 . S
C1837 C1836 1.387 . S
C1837 C1839 1.387 . S
H1838 C1845 0.950 . S
C1839 C1837 1.387 . S
C1839 C1841 1.390 . S
C1839 H1843 0.950 . S
H1840 C1836 0.950 . S
C1841 C1839 1.390 . S
C1841 C1842 1.387 . S
C1841 H1844 0.950 . S
C1842 C1841 1.387 . S
C1842 C1845 1.387 . S
H1843 C1839 0.950 . S
H1844 C1841 0.950 . S
C1845 C1836 1.390 . S
C1845 H1838 0.950 . S
C1845 C1842 1.387 . S
C1846 C1847 1.387 . S
C1846 H1850 0.950 . S
C1846 C1855 1.390 . S
C1847 C1846 1.387 . S
C1847 C1849 1.387 . S
H1848 C1855 0.950 . S
C1849 C1847 1.387 . S
C1849 C1851 1.390 . S
C1849 H1853 0.950 . S
H1850 C1846 0.950 . S
C1851 C1849 1.390 . S
C1851 C1852 1.387 . S
C1851 H1854 0.950 . S
C1852 C1851 1.387 . S
C1852 C1855 1.387 . S
H1853 C1849 0.950 . S
H1854 C1851 0.950 . S
C1855 C1846 1.390 . S
C1855 H1848 0.950 . S
C1855 C1852 1.387 . S
C1057 C21 1.529 . S
C1062 C54 1.529 . S
C1067 C120 1.530 . S
C1072 C87 1.530 . S
C1077 C186 1.529 . S
C1082 C153 1.529 . S
C1087 C252 1.530 . S
C1092 C219 1.530 . S
C1097 C318 1.529 . S
C1102 C285 1.529 . S
C1107 C384 1.529 . S
C1112 C351 1.529 . S
C1117 C417 1.529 . S
C1122 C450 1.529 . S
C1127 C516 1.530 . S
C1132 C483 1.530 . S
C1137 C549 1.529 . S
C1142 C582 1.529 . S
C1147 C615 1.530 . S
C1152 C648 1.530 . S
C1157 C714 1.529 . S
C1162 C681 1.529 . S
C1167 C747 1.529 . S
C1172 C780 1.529 . S
C1177 C813 1.529 . S
C1182 C846 1.529 . S
C1187 C879 1.529 . S
C1192 C912 1.529 . S
C1197 C945 1.529 . S
C1202 C978 1.529 . S
C1207 C1011 1.530 . S
C1212 C1044 1.530 . S
C1217 N13 0.963 . S
C1222 N640 0.963 . S
C1227 N607 0.963 . S
C1232 N46 0.963 . S
C1237 N574 0.963 . S
C1242 N79 0.963 . S
C1247 N112 0.964 . S
C1252 N541 0.964 . S
C1257 N772 0.964 . S
C1262 N145 0.964 . S
C1267 N739 0.963 . S
C1272 N178 0.963 . S
C1277 N706 0.964 . S
C1282 N211 0.964 . S
C1287 N673 0.963 . S
C1292 N244 0.963 . S
C1297 N277 0.964 . S
C1302 N904 0.964 . S
C1307 N871 0.963 . S
C1312 N310 0.963 . S
C1317 N343 0.963 . S
C1322 N838 0.963 . S
C1327 N805 0.964 . S
C1332 N376 0.964 . S
C1337 N409 0.963 . S
C1342 N1036 0.963 . S
C1347 N442 0.964 . S
C1352 N1003 0.964 . S
C1357 N970 0.964 . S
C1362 N475 0.964 . S
C1367 N508 0.964 . S
C1372 N937 0.964 . S
C1377 N134 0.956 . S
C1382 N2 0.956 . S
C1387 N959 0.956 . S
C1392 N35 0.956 . S
C1397 N464 0.956 . S
C1402 N68 0.956 . S
C1407 N101 0.961 . S
C1412 N761 0.961 . S
C1417 N167 0.962 . S
C1422 N827 0.962 . S
C1427 N200 0.962 . S
C1432 N332 0.962 . S
C1437 N629 0.962 . S
C1442 N233 0.962 . S
C1447 N266 0.962 . S
C1452 N398 0.962 . S
C1457 N695 0.956 . S
C1462 N299 0.956 . S
C1467 N1025 0.962 . S
C1472 N365 0.962 . S
C1477 N431 0.961 . S
C1482 N563 0.961 . S
C1487 N893 0.956 . S
C1492 N497 0.956 . S
C1497 N662 0.956 . S
C1502 N530 0.956 . S
C1507 N992 0.956 . S
C1512 N596 0.956 . S
C1517 N728 0.962 . S
C1522 N860 0.962 . S
C1527 N926 0.956 . S
C1532 N794 0.956 . S
C1537 C766 1.989 . S
C1542 C18 2.048 . S
C1547 C469 1.988 . S
C1552 C51 2.048 1_655 S
C1557 C964 1.989 . S
C1562 C84 2.048 . S
C1567 C117 2.047 1_655 S
C1572 C139 1.987 . S
C1577 C150 2.048 . S
C1582 C634 1.989 . S
C1587 C337 1.987 . S
C1592 C183 2.047 1_455 S
C1597 C216 2.048 . S
C1602 C832 1.988 . S
C1607 C249 2.048 1_455 S
C1612 C7 1.988 . S
C1617 C282 2.048 1_554 S
C1622 C1030 1.989 . S
C1627 C205 1.986 . S
C1632 C315 2.047 1_654 S
C1637 C348 2.047 . S
C1642 C700 1.986 . S
C1647 C381 2.047 1_655 S
C1652 C403 1.986 . S
C1657 C414 2.048 1_556 S
C1662 C898 1.989 . S
C1667 C73 1.987 . S
C1672 C447 2.047 1_456 S
C1677 C568 1.987 . S
C1682 C480 2.047 . S
C1687 C513 2.047 1_455 S
C1692 C271 1.987 . S
C1697 C238 1.986 . S
C1702 C546 2.047 1_554 S
C1707 C997 1.987 . S
C1712 C579 2.047 1_554 S
C1717 C436 1.986 . S
C1722 C612 2.047 . S
C1727 C645 2.048 . S
C1732 C667 1.989 . S
C1737 C678 2.048 1_556 S
C1742 C106 1.989 . S
C1747 C865 1.987 . S
C1752 C711 2.047 1_556 S
C1757 C744 2.047 . S
C1762 C304 1.986 . S
C1767 C777 2.047 . S
C1772 C535 1.986 . S
C1777 C502 1.987 . S
C1782 C810 2.047 . S
C1787 C843 2.047 . S
C1792 C733 1.986 . S
C1797 C876 2.047 . S
C1802 C172 1.986 . S
C1807 C931 1.986 . S
C1812 C909 2.047 . S
C1817 C942 2.047 . S
C1822 C370 1.986 . S
C1827 C975 2.047 . S
C1832 C601 1.987 . S
C1837 C40 1.988 . S
C1842 C1008 2.047 . S
C1847 C799 1.988 . S
C1852 C1041 2.047 . S
