# Generated by pormake.
# Topology whz, (6)-cn, num edge types: 1
# Building blocks:
#     Node 0, Type 0, BuildingBlock: FUNLAD_clean_sbu_0, # of connection points: 6
#     Node 1, Type 0, BuildingBlock: FUNLAD_clean_sbu_0, # of connection points: 6
#     Node 2, Type 0, BuildingBlock: FUNLAD_clean_sbu_0, # of connection points: 6
#     Node 3, Type 0, BuildingBlock: FUNLAD_clean_sbu_0, # of connection points: 6
#     Node 4, Type 0, BuildingBlock: FUNLAD_clean_sbu_0, # of connection points: 6
#     Node 5, Type 0, BuildingBlock: FUNLAD_clean_sbu_0, # of connection points: 6
#     Node 6, Type 0, BuildingBlock: FUNLAD_clean_sbu_0, # of connection points: 6
#     Node 7, Type 0, BuildingBlock: FUNLAD_clean_sbu_0, # of connection points: 6
#     Node 8, Type 0, BuildingBlock: FUNLAD_clean_sbu_0, # of connection points: 6
#     Node 9, Type 0, BuildingBlock: FUNLAD_clean_sbu_0, # of connection points: 6
#     Node 10, Type 0, BuildingBlock: FUNLAD_clean_sbu_0, # of connection points: 6
#     Node 11, Type 0, BuildingBlock: FUNLAD_clean_sbu_0, # of connection points: 6
#     Node 12, Type 0, BuildingBlock: FUNLAD_clean_sbu_0, # of connection points: 6
#     Node 13, Type 0, BuildingBlock: FUNLAD_clean_sbu_0, # of connection points: 6
#     Node 14, Type 0, BuildingBlock: FUNLAD_clean_sbu_0, # of connection points: 6
#     Node 15, Type 0, BuildingBlock: FUNLAD_clean_sbu_0, # of connection points: 6
#     Edge 16, Type (0, 0), BuildingBlock: KIFKEQ_clean_linker_1, # of connection points: 2
#     Edge 17, Type (0, 0), BuildingBlock: KIFKEQ_clean_linker_1, # of connection points: 2
#     Edge 18, Type (0, 0), BuildingBlock: KIFKEQ_clean_linker_1, # of connection points: 2
#     Edge 19, Type (0, 0), BuildingBlock: KIFKEQ_clean_linker_1, # of connection points: 2
#     Edge 20, Type (0, 0), BuildingBlock: KIFKEQ_clean_linker_1, # of connection points: 2
#     Edge 21, Type (0, 0), BuildingBlock: KIFKEQ_clean_linker_1, # of connection points: 2
#     Edge 22, Type (0, 0), BuildingBlock: KIFKEQ_clean_linker_1, # of connection points: 2
#     Edge 23, Type (0, 0), BuildingBlock: KIFKEQ_clean_linker_1, # of connection points: 2
#     Edge 24, Type (0, 0), BuildingBlock: KIFKEQ_clean_linker_1, # of connection points: 2
#     Edge 25, Type (0, 0), BuildingBlock: KIFKEQ_clean_linker_1, # of connection points: 2
#     Edge 26, Type (0, 0), BuildingBlock: KIFKEQ_clean_linker_1, # of connection points: 2
#     Edge 27, Type (0, 0), BuildingBlock: KIFKEQ_clean_linker_1, # of connection points: 2
#     Edge 28, Type (0, 0), BuildingBlock: KIFKEQ_clean_linker_1, # of connection points: 2
#     Edge 29, Type (0, 0), BuildingBlock: KIFKEQ_clean_linker_1, # of connection points: 2
#     Edge 30, Type (0, 0), BuildingBlock: KIFKEQ_clean_linker_1, # of connection points: 2
#     Edge 31, Type (0, 0), BuildingBlock: KIFKEQ_clean_linker_1, # of connection points: 2
#     Edge 32, Type (0, 0), BuildingBlock: KIFKEQ_clean_linker_1, # of connection points: 2
#     Edge 33, Type (0, 0), BuildingBlock: KIFKEQ_clean_linker_1, # of connection points: 2
#     Edge 34, Type (0, 0), BuildingBlock: KIFKEQ_clean_linker_1, # of connection points: 2
#     Edge 35, Type (0, 0), BuildingBlock: KIFKEQ_clean_linker_1, # of connection points: 2
#     Edge 36, Type (0, 0), BuildingBlock: KIFKEQ_clean_linker_1, # of connection points: 2
#     Edge 37, Type (0, 0), BuildingBlock: KIFKEQ_clean_linker_1, # of connection points: 2
#     Edge 38, Type (0, 0), BuildingBlock: KIFKEQ_clean_linker_1, # of connection points: 2
#     Edge 39, Type (0, 0), BuildingBlock: KIFKEQ_clean_linker_1, # of connection points: 2
#     Edge 40, Type (0, 0), BuildingBlock: KIFKEQ_clean_linker_1, # of connection points: 2
#     Edge 41, Type (0, 0), BuildingBlock: KIFKEQ_clean_linker_1, # of connection points: 2
#     Edge 42, Type (0, 0), BuildingBlock: KIFKEQ_clean_linker_1, # of connection points: 2
#     Edge 43, Type (0, 0), BuildingBlock: KIFKEQ_clean_linker_1, # of connection points: 2
#     Edge 44, Type (0, 0), BuildingBlock: KIFKEQ_clean_linker_1, # of connection points: 2
#     Edge 45, Type (0, 0), BuildingBlock: KIFKEQ_clean_linker_1, # of connection points: 2
#     Edge 46, Type (0, 0), BuildingBlock: KIFKEQ_clean_linker_1, # of connection points: 2
#     Edge 47, Type (0, 0), BuildingBlock: KIFKEQ_clean_linker_1, # of connection points: 2
#     Edge 48, Type (0, 0), BuildingBlock: KIFKEQ_clean_linker_1, # of connection points: 2
#     Edge 49, Type (0, 0), BuildingBlock: KIFKEQ_clean_linker_1, # of connection points: 2
#     Edge 50, Type (0, 0), BuildingBlock: KIFKEQ_clean_linker_1, # of connection points: 2
#     Edge 51, Type (0, 0), BuildingBlock: KIFKEQ_clean_linker_1, # of connection points: 2
#     Edge 52, Type (0, 0), BuildingBlock: KIFKEQ_clean_linker_1, # of connection points: 2
#     Edge 53, Type (0, 0), BuildingBlock: KIFKEQ_clean_linker_1, # of connection points: 2
#     Edge 54, Type (0, 0), BuildingBlock: KIFKEQ_clean_linker_1, # of connection points: 2
#     Edge 55, Type (0, 0), BuildingBlock: KIFKEQ_clean_linker_1, # of connection points: 2
#     Edge 56, Type (0, 0), BuildingBlock: KIFKEQ_clean_linker_1, # of connection points: 2
#     Edge 57, Type (0, 0), BuildingBlock: KIFKEQ_clean_linker_1, # of connection points: 2
#     Edge 58, Type (0, 0), BuildingBlock: KIFKEQ_clean_linker_1, # of connection points: 2
#     Edge 59, Type (0, 0), BuildingBlock: KIFKEQ_clean_linker_1, # of connection points: 2
#     Edge 60, Type (0, 0), BuildingBlock: KIFKEQ_clean_linker_1, # of connection points: 2
#     Edge 61, Type (0, 0), BuildingBlock: KIFKEQ_clean_linker_1, # of connection points: 2
#     Edge 62, Type (0, 0), BuildingBlock: KIFKEQ_clean_linker_1, # of connection points: 2
#     Edge 63, Type (0, 0), BuildingBlock: KIFKEQ_clean_linker_1, # of connection points: 2
# Relax obj value: 0.651
# Max RMSD: 0.290
# Mean RMSD: 0.290
data_MOF--net-whz--node1-FUNLAD_clean_sbu_0--edge1-KIFKEQ_clean_linker_1
_symmetry_space_group_name_H-M    P1
_symmetry_Int_Tables_number       1
_symmetry_cell_setting            triclinic
loop_
_symmetry_equiv_pos_as_xyz
'x, y, z'
_cell_length_a     38.595666
_cell_length_b     38.614488
_cell_length_c     57.339545
_cell_angle_alpha  90.008123
_cell_angle_beta   89.973916
_cell_angle_gamma 89.953783
loop_
_atom_site_label
_atom_site_type_symbol
_atom_site_fract_x
_atom_site_fract_y
_atom_site_fract_z
_atom_type_partial_charge
C0 C 0.32358 0.12851 0.09972 0.0
N1 N 0.27325 0.22095 0.11494 0.0
C2 C 0.28514 0.23679 0.0953 0.0
C3 C 0.26581 0.26351 0.085 0.0
C4 C 0.23408 0.27359 0.09506 0.0
C5 C 0.22257 0.25629 0.11509 0.0
C6 C 0.24244 0.2301 0.12467 0.0
Zn7 Zn 0.29821 0.18225 0.13232 0.0
C8 C 0.24908 0.12673 0.14613 0.0
N9 N 0.34276 0.09856 0.17198 0.0
C10 C 0.36956 0.07655 0.16735 0.0
C11 C 0.32198 0.09316 0.19089 0.0
C12 C 0.32685 0.06497 0.20548 0.0
C13 C 0.35345 0.04135 0.20098 0.0
C14 C 0.37563 0.04769 0.18191 0.0
Zn15 Zn 0.32454 0.13925 0.15144 0.0
O16 O 0.30817 0.1573 0.10169 0.0
C17 C 0.37494 0.19351 0.13883 0.0
O18 O 0.33395 0.11245 0.118 0.0
H19 H 0.30035 0.11005 0.19444 0.0
H20 H 0.30965 0.22898 0.08779 0.0
H21 H 0.38565 0.08082 0.15217 0.0
O22 O 0.34779 0.20742 0.13013 0.0
O23 O 0.37273 0.16417 0.14893 0.0
H24 H 0.23329 0.2175 0.14032 0.0
O25 O 0.31335 0.16852 0.18351 0.0
O26 O 0.28841 0.20846 0.16253 0.0
O27 O 0.27732 0.11491 0.15368 0.0
O28 O 0.24911 0.15548 0.13541 0.0
C29 C 0.2971 0.19716 0.18227 0.0
H30 H 0.2757 0.27631 0.06957 0.0
H31 H 0.19897 0.26376 0.124 0.0
H32 H 0.3096 0.06167 0.22023 0.0
H33 H 0.39667 0.03009 0.17794 0.0
C34 C 0.61875 0.57118 0.3507 0.0
N35 N 0.52072 0.52804 0.36505 0.0
C36 C 0.50503 0.54128 0.34572 0.0
C37 C 0.47648 0.52413 0.33582 0.0
C38 C 0.46456 0.49308 0.34588 0.0
C39 C 0.48149 0.4803 0.36567 0.0
C40 C 0.50936 0.49808 0.37492 0.0
Zn41 Zn 0.56162 0.5496 0.38265 0.0
C42 C 0.61342 0.49528 0.39467 0.0
N43 N 0.64865 0.58503 0.42361 0.0
C44 C 0.67005 0.61309 0.42229 0.0
C45 C 0.65286 0.56126 0.44099 0.0
C46 C 0.67817 0.56512 0.45788 0.0
C47 C 0.70003 0.5939 0.45749 0.0
C48 C 0.69629 0.61799 0.43917 0.0
Zn49 Zn 0.60745 0.57087 0.40191 0.0
O50 O 0.58891 0.55752 0.35212 0.0
C51 C 0.55606 0.62595 0.39048 0.0
O52 O 0.63462 0.58083 0.36922 0.0
H53 H 0.63641 0.53875 0.44207 0.0
H54 H 0.51436 0.56521 0.33818 0.0
H55 H 0.66669 0.63171 0.40838 0.0
O56 O 0.54122 0.6006 0.38027 0.0
O57 O 0.58441 0.62107 0.4015 0.0
H58 H 0.52146 0.48794 0.39046 0.0
O59 O 0.57834 0.55868 0.43344 0.0
O60 O 0.53404 0.54197 0.41279 0.0
O61 O 0.62944 0.52177 0.4016 0.0
O62 O 0.58347 0.49858 0.38595 0.0
C63 C 0.54784 0.54644 0.43246 0.0
H64 H 0.46385 0.535 0.32063 0.0
H65 H 0.47261 0.4572 0.37457 0.0
H66 H 0.6805 0.54552 0.47132 0.0
H67 H 0.71281 0.64059 0.43825 0.0
C68 C 0.174 0.86919 0.60109 0.0
N69 N 0.2164 0.77423 0.62162 0.0
C70 C 0.20084 0.75218 0.60631 0.0
C71 C 0.21651 0.72034 0.60095 0.0
C72 C 0.2481 0.71167 0.61162 0.0
C73 C 0.26432 0.73582 0.62607 0.0
C74 C 0.24786 0.7667 0.63107 0.0
Zn75 Zn 0.19356 0.81686 0.63596 0.0
C76 C 0.24547 0.86991 0.649 0.0
N77 N 0.15313 0.90622 0.67195 0.0
C78 C 0.1319 0.9324 0.66478 0.0
C79 C 0.17095 0.90914 0.69238 0.0
C80 C 0.16783 0.93809 0.70643 0.0
C81 C 0.14722 0.96604 0.69945 0.0
C82 C 0.12846 0.96274 0.6784 0.0
Zn83 Zn 0.169 0.86239 0.65329 0.0
O84 O 0.18505 0.83857 0.60395 0.0
C85 C 0.11596 0.81033 0.64137 0.0
O86 O 0.16571 0.8876 0.61887 0.0
H87 H 0.18934 0.88974 0.6977 0.0
H88 H 0.17566 0.75848 0.59919 0.0
H89 H 0.11855 0.93035 0.64825 0.0
O90 O 0.14317 0.79405 0.63494 0.0
O91 O 0.11864 0.8411 0.64933 0.0
H92 H 0.25959 0.78355 0.6438 0.0
O93 O 0.17437 0.83438 0.68617 0.0
O94 O 0.2023 0.79372 0.66767 0.0
O95 O 0.21812 0.88277 0.65729 0.0
O96 O 0.24353 0.84192 0.63753 0.0
C97 C 0.1911 0.80606 0.68653 0.0
H98 H 0.20334 0.70209 0.58968 0.0
H99 H 0.28888 0.73016 0.6344 0.0
H100 H 0.18201 0.93837 0.72271 0.0
H101 H 0.1121 0.98359 0.67223 0.0
C102 C 0.87738 0.41594 0.84779 0.0
N103 N 0.97074 0.46567 0.86214 0.0
C104 C 0.99246 0.44778 0.84781 0.0
C105 C 0.02296 0.46332 0.83968 0.0
C106 C 0.03053 0.4976 0.84616 0.0
C107 C 0.00675 0.51578 0.85993 0.0
C108 C 0.97723 0.49922 0.86795 0.0
Zn109 Zn 0.93047 0.44323 0.87958 0.0
C110 C 0.87533 0.49346 0.8911 0.0
N111 N 0.84633 0.40242 0.92029 0.0
C112 C 0.82047 0.38028 0.91395 0.0
C113 C 0.84387 0.42075 0.94054 0.0
C114 C 0.81565 0.41715 0.95527 0.0
C115 C 0.78795 0.39564 0.94908 0.0
C116 C 0.79086 0.37647 0.92818 0.0
Zn117 Zn 0.88786 0.41848 0.8996 0.0
O118 O 0.90767 0.4284 0.84902 0.0
C119 C 0.94196 0.36711 0.88955 0.0
O120 O 0.86034 0.40979 0.86652 0.0
H121 H 0.86297 0.43985 0.94514 0.0
H122 H 0.98701 0.42104 0.84357 0.0
H123 H 0.82212 0.36658 0.89753 0.0
O124 O 0.95662 0.39421 0.88146 0.0
O125 O 0.91123 0.36918 0.89763 0.0
H126 H 0.96068 0.51282 0.88005 0.0
O127 O 0.91808 0.42893 0.93094 0.0
O128 O 0.95434 0.45858 0.90973 0.0
O129 O 0.86519 0.46682 0.90181 0.0
O130 O 0.90233 0.49151 0.87853 0.0
C131 C 0.94455 0.44837 0.92953 0.0
H132 H 0.04093 0.44844 0.82918 0.0
H133 H 0.01205 0.54188 0.86589 0.0
H134 H 0.81568 0.43175 0.97139 0.0
H135 H 0.77019 0.35951 0.92253 0.0
C136 C 0.68911 0.80868 0.82033 0.0
N137 N 0.6521 0.90851 0.83499 0.0
C138 C 0.67388 0.91375 0.81658 0.0
C139 C 0.67078 0.94254 0.80235 0.0
C140 C 0.6448 0.96693 0.80656 0.0
C141 C 0.62166 0.96096 0.82518 0.0
C142 C 0.62603 0.93145 0.83947 0.0
Zn143 Zn 0.66683 0.86464 0.85394 0.0
C144 C 0.61211 0.81333 0.86479 0.0
N145 N 0.7108 0.77465 0.88594 0.0
C146 C 0.74193 0.76551 0.87662 0.0
C147 C 0.69564 0.75521 0.90293 0.0
C148 C 0.71197 0.72497 0.91091 0.0
C149 C 0.74427 0.71549 0.90152 0.0
C150 C 0.75922 0.73629 0.88431 0.0
Zn151 Zn 0.68948 0.81766 0.87102 0.0
O152 O 0.67444 0.83812 0.82092 0.0
C153 C 0.74335 0.86954 0.8597 0.0
O154 O 0.69774 0.79435 0.83921 0.0
H155 H 0.67072 0.76275 0.90993 0.0
H156 H 0.6946 0.89584 0.81285 0.0
H157 H 0.75323 0.78033 0.86259 0.0
O158 O 0.71663 0.8844 0.852 0.0
O159 O 0.74022 0.84055 0.86982 0.0
H160 H 0.60891 0.92716 0.85413 0.0
O161 O 0.6812 0.84008 0.90299 0.0
O162 O 0.66151 0.88914 0.8883 0.0
O163 O 0.63865 0.79664 0.8719 0.0
O164 O 0.61585 0.84369 0.85632 0.0
C165 C 0.66985 0.87058 0.90597 0.0
H166 H 0.68862 0.94544 0.78788 0.0
H167 H 0.60096 0.97909 0.82886 0.0
H168 H 0.69953 0.70911 0.92405 0.0
H169 H 0.78355 0.72927 0.87612 0.0
C170 C 0.4392 0.43435 0.57244 0.0
N171 N 0.34108 0.39585 0.58883 0.0
C172 C 0.33381 0.4176 0.57073 0.0
C173 C 0.30502 0.41265 0.55675 0.0
C174 C 0.28302 0.38461 0.56078 0.0
C175 C 0.29111 0.36161 0.57908 0.0
C176 C 0.32037 0.36799 0.59321 0.0
Zn177 Zn 0.38494 0.41211 0.60695 0.0
C178 C 0.43805 0.3582 0.61688 0.0
N179 N 0.47526 0.45749 0.6375 0.0
C180 C 0.48372 0.48835 0.62754 0.0
C181 C 0.49504 0.44354 0.65477 0.0
C182 C 0.52486 0.46091 0.66246 0.0
C183 C 0.53362 0.49297 0.65245 0.0
C184 C 0.51256 0.5066 0.63487 0.0
Zn185 Zn 0.43226 0.43499 0.62335 0.0
O186 O 0.40978 0.4198 0.5736 0.0
C187 C 0.37891 0.48816 0.61271 0.0
O188 O 0.45436 0.44308 0.59101 0.0
H189 H 0.488 0.41885 0.66232 0.0
H190 H 0.35034 0.43938 0.56687 0.0
H191 H 0.46848 0.49879 0.61341 0.0
O192 O 0.36398 0.46142 0.60518 0.0
O193 O 0.40835 0.48521 0.62227 0.0
H194 H 0.32646 0.35079 0.60752 0.0
O195 O 0.4107 0.42691 0.65583 0.0
O196 O 0.36153 0.407 0.64151 0.0
O197 O 0.45455 0.38476 0.62405 0.0
O198 O 0.40726 0.36167 0.60906 0.0
C199 C 0.38011 0.41585 0.65903 0.0
H200 H 0.30046 0.43044 0.54245 0.0
H201 H 0.27489 0.33932 0.58252 0.0
H202 H 0.54086 0.44949 0.67594 0.0
H203 H 0.51899 0.53071 0.62622 0.0
C204 C 0.80453 0.20375 0.31902 0.0
N205 N 0.84269 0.10125 0.32652 0.0
C206 C 0.82469 0.0995 0.30608 0.0
C207 C 0.82726 0.0709 0.29156 0.0
C208 C 0.84837 0.04301 0.29783 0.0
C209 C 0.86812 0.04562 0.31842 0.0
C210 C 0.86459 0.0751 0.33277 0.0
Zn211 Zn 0.82568 0.14169 0.34774 0.0
C212 C 0.87867 0.19122 0.36463 0.0
N213 N 0.77729 0.22282 0.38657 0.0
C214 C 0.74755 0.23386 0.37625 0.0
C215 C 0.78815 0.23649 0.40721 0.0
C216 C 0.76867 0.26265 0.41808 0.0
C217 C 0.73778 0.27418 0.4076 0.0
C218 C 0.72752 0.2594 0.38641 0.0
Zn219 Zn 0.80141 0.18426 0.36846 0.0
O220 O 0.81949 0.17455 0.31685 0.0
C221 C 0.74952 0.13375 0.35044 0.0
O222 O 0.79497 0.21343 0.33898 0.0
H223 H 0.81184 0.22725 0.41515 0.0
H224 H 0.80632 0.11934 0.30141 0.0
H225 H 0.73923 0.22309 0.3598 0.0
O226 O 0.77711 0.12135 0.3422 0.0
O227 O 0.7512 0.16041 0.36331 0.0
H228 H 0.87815 0.07636 0.34926 0.0
O229 O 0.80804 0.15645 0.39829 0.0
O230 O 0.82968 0.11103 0.38011 0.0
O231 O 0.85177 0.20621 0.37285 0.0
O232 O 0.87547 0.16284 0.35341 0.0
C233 C 0.82022 0.12605 0.39899 0.0
H234 H 0.81205 0.07035 0.27568 0.0
H235 H 0.88487 0.02459 0.32381 0.0
H236 H 0.77762 0.27373 0.43434 0.0
H237 H 0.70464 0.26822 0.37721 0.0
C238 C 0.05525 0.55508 0.07065 0.0
N239 N 0.15586 0.5884 0.08703 0.0
C240 C 0.16235 0.56577 0.06927 0.0
C241 C 0.19101 0.56953 0.05493 0.0
C242 C 0.21396 0.59702 0.05838 0.0
C243 C 0.20678 0.62074 0.07648 0.0
C244 C 0.17746 0.61575 0.09084 0.0
Zn245 Zn 0.11158 0.57408 0.10562 0.0
C246 C 0.06049 0.62994 0.11613 0.0
N247 N 0.01938 0.53177 0.13579 0.0
C248 C 0.00662 0.5039 0.1241 0.0
C249 C 0.00459 0.5428 0.15605 0.0
C250 C 0.97577 0.5253 0.16523 0.0
C251 C 0.96254 0.4962 0.15344 0.0
C252 C 0.97824 0.48593 0.13252 0.0
Zn253 Zn 0.06257 0.55293 0.12081 0.0
O254 O 0.08639 0.56546 0.07225 0.0
C255 C 0.1135 0.49765 0.10971 0.0
O256 O 0.03824 0.54943 0.08903 0.0
H257 H 0.01523 0.56493 0.16513 0.0
H258 H 0.14526 0.54422 0.06599 0.0
H259 H 0.01853 0.49526 0.10807 0.0
O260 O 0.13151 0.52405 0.10521 0.0
O261 O 0.08248 0.50142 0.11648 0.0
H262 H 0.17208 0.63361 0.10493 0.0
O263 O 0.08675 0.55707 0.15308 0.0
O264 O 0.13503 0.58041 0.13969 0.0
O265 O 0.04372 0.60406 0.12411 0.0
O266 O 0.0903 0.62527 0.10691 0.0
C267 C 0.11667 0.56958 0.15679 0.0
H268 H 0.19471 0.55117 0.04085 0.0
H269 H 0.22374 0.64257 0.07962 0.0
H270 H 0.96425 0.53414 0.1814 0.0
H271 H 0.96839 0.46437 0.12243 0.0
C272 C 0.83101 0.62448 0.60114 0.0
N273 N 0.78402 0.71925 0.61508 0.0
C274 C 0.79881 0.73787 0.59753 0.0
C275 C 0.78136 0.76655 0.58812 0.0
C276 C 0.74847 0.77561 0.59683 0.0
C277 C 0.73391 0.75538 0.61457 0.0
C278 C 0.75207 0.72747 0.62342 0.0
Zn279 Zn 0.80686 0.67924 0.63251 0.0
C280 C 0.75511 0.62588 0.6454 0.0
N281 N 0.84634 0.5952 0.67404 0.0
C282 C 0.8709 0.57082 0.66917 0.0
C283 C 0.82556 0.59172 0.69315 0.0
C284 C 0.82814 0.56322 0.70772 0.0
C285 C 0.85224 0.53716 0.70293 0.0
C286 C 0.87455 0.54148 0.68366 0.0
Zn287 Zn 0.83061 0.63656 0.65315 0.0
O288 O 0.81928 0.65509 0.60201 0.0
C289 C 0.88333 0.68904 0.64106 0.0
O290 O 0.83783 0.60824 0.6201 0.0
H291 H 0.80542 0.6103 0.6968 0.0
H292 H 0.82434 0.731 0.59125 0.0
H293 H 0.88687 0.5735 0.65377 0.0
O294 O 0.85647 0.70385 0.63268 0.0
O295 O 0.88054 0.65914 0.65037 0.0
H296 H 0.74083 0.71312 0.63769 0.0
O297 O 0.82117 0.66693 0.68466 0.0
O298 O 0.79412 0.70438 0.66284 0.0
O299 O 0.78173 0.6149 0.65574 0.0
O300 O 0.75757 0.65277 0.63283 0.0
C301 C 0.80322 0.69441 0.68284 0.0
H302 H 0.79358 0.78171 0.57453 0.0
H303 H 0.70928 0.76194 0.62248 0.0
H304 H 0.81091 0.56148 0.7226 0.0
H305 H 0.8937 0.52195 0.67945 0.0
C306 C 0.11388 0.0749 0.85052 0.0
N307 N 0.02114 0.03696 0.87747 0.0
C308 C 0.0046 0.04866 0.85803 0.0
C309 C 0.9755 0.03103 0.84954 0.0
C310 C 0.96416 0.00101 0.86106 0.0
C311 C 0.98141 0.99003 0.88118 0.0
C312 C 0.00973 0.0085 0.88916 0.0
Zn313 Zn 0.06545 0.05792 0.89037 0.0
C314 C 0.11751 0.00266 0.89751 0.0
N315 N 0.16225 0.09305 0.91833 0.0
C316 C 0.1821 0.12211 0.9162 0.0
C317 C 0.17051 0.0685 0.93452 0.0
C318 C 0.19899 0.07203 0.94898 0.0
C319 C 0.21998 0.10139 0.94746 0.0
C320 C 0.21122 0.12692 0.93082 0.0
Zn321 Zn 0.1161 0.07944 0.90135 0.0
O322 O 0.08608 0.06065 0.85737 0.0
C323 C 0.06383 0.13499 0.89407 0.0
O324 O 0.13461 0.0879 0.86564 0.0
H325 H 0.15444 0.04598 0.937 0.0
H326 H 0.01416 0.07134 0.84903 0.0
H327 H 0.17512 0.14175 0.9036 0.0
O328 O 0.04676 0.10881 0.88695 0.0
O329 O 0.09434 0.13073 0.9023 0.0
H330 H 0.02284 -0.00031 0.90471 0.0
O331 O 0.09509 0.06893 0.93631 0.0
O332 O 0.04398 0.05587 0.92269 0.0
O333 O 0.13647 0.02915 0.89911 0.0
O334 O 0.08525 0.00649 0.89457 0.0
C335 C 0.06375 0.06028 0.93988 0.0
H336 H 0.96241 0.04032 0.83405 0.0
H337 H 0.97282 0.96749 0.89083 0.0
H338 H 0.20361 0.05222 0.96199 0.0
H339 H 0.22653 0.15029 0.92923 0.0
C340 C 0.67051 0.36314 0.09878 0.0
N341 N 0.70982 0.27425 0.13025 0.0
C342 C 0.70011 0.25502 0.11147 0.0
C343 C 0.71893 0.22536 0.10539 0.0
C344 C 0.74803 0.21597 0.11869 0.0
C345 C 0.75725 0.23627 0.13793 0.0
C346 C 0.73769 0.26527 0.14346 0.0
Zn347 Zn 0.68459 0.318 0.14029 0.0
C348 C 0.73626 0.37445 0.15031 0.0
N349 N 0.63924 0.41288 0.16341 0.0
C350 C 0.61765 0.40784 0.18188 0.0
C351 C 0.65502 0.44407 0.16005 0.0
C352 C 0.65295 0.46991 0.17719 0.0
C353 C 0.63444 0.46345 0.19783 0.0
C354 C 0.61489 0.43287 0.19935 0.0
Zn355 Zn 0.66078 0.36829 0.14969 0.0
O356 O 0.6844 0.33572 0.10658 0.0
C357 C 0.60847 0.31202 0.14037 0.0
O358 O 0.65612 0.38425 0.11306 0.0
H359 H 0.67233 0.4476 0.1454 0.0
H360 H 0.67786 0.26268 0.10123 0.0
H361 H 0.60572 0.38283 0.18454 0.0
O362 O 0.63559 0.29503 0.13499 0.0
O363 O 0.61144 0.34303 0.14773 0.0
H364 H 0.74482 0.28056 0.15849 0.0
O365 O 0.66874 0.35069 0.18567 0.0
O366 O 0.68446 0.29941 0.17347 0.0
O367 O 0.70891 0.39236 0.15138 0.0
O368 O 0.73402 0.3422 0.14629 0.0
C369 C 0.67831 0.31983 0.19009 0.0
H370 H 0.71106 0.21014 0.09044 0.0
H371 H 0.77904 0.22943 0.14891 0.0
H372 H 0.66828 0.49322 0.17527 0.0
H373 H 0.59971 0.42716 0.21478 0.0
C374 C 0.38557 0.91685 0.34619 0.0
N375 N 0.48195 0.95866 0.36471 0.0
C376 C 0.49709 0.94612 0.34497 0.0
C377 C 0.52464 0.9642 0.33461 0.0
C378 C 0.53571 0.99555 0.34456 0.0
C379 C 0.51986 0.00739 0.36497 0.0
C380 C 0.49322 0.98848 0.37482 0.0
Zn381 Zn 0.43989 0.93781 0.38103 0.0
C382 C 0.38751 0.99322 0.38931 0.0
N383 N 0.34841 0.90457 0.41777 0.0
C384 C 0.32958 0.87467 0.41818 0.0
C385 C 0.34192 0.93009 0.43367 0.0
C386 C 0.31693 0.92624 0.45078 0.0
C387 C 0.29806 0.89554 0.45235 0.0
C388 C 0.30387 0.86964 0.43544 0.0
Zn389 Zn 0.39132 0.91771 0.39719 0.0
O390 O 0.41501 0.93066 0.34948 0.0
C391 C 0.44327 0.86167 0.38879 0.0
O392 O 0.3675 0.90665 0.36363 0.0
H393 H 0.35705 0.95354 0.43392 0.0
H394 H 0.48767 0.92239 0.3372 0.0
H395 H 0.3351 0.85439 0.4057 0.0
O396 O 0.4594 0.88665 0.37909 0.0
O397 O 0.4141 0.86719 0.39869 0.0
H398 H 0.48134 -0.00191 0.3906 0.0
O399 O 0.41692 0.93107 0.42967 0.0
O400 O 0.46536 0.94434 0.41227 0.0
O401 O 0.36981 0.96695 0.39458 0.0
O402 O 0.41893 0.98934 0.38352 0.0
C403 C 0.4482 0.94106 0.43083 0.0
H404 H 0.53679 0.95417 0.31898 0.0
H405 H 0.52836 0.03094 0.37351 0.0
H406 H 0.31309 0.94705 0.46321 0.0
H407 H 0.28977 0.84543 0.43613 0.0
C408 C 0.18484 0.31093 0.32 0.0
N409 N 0.14238 0.40474 0.34298 0.0
C410 C 0.15576 0.43694 0.34668 0.0
C411 C 0.15217 0.46279 0.32968 0.0
C412 C 0.13476 0.45521 0.30879 0.0
C413 C 0.11784 0.42317 0.30676 0.0
C414 C 0.12194 0.39822 0.32416 0.0
Zn415 Zn 0.16532 0.36209 0.35812 0.0
C416 C 0.11423 0.30492 0.369 0.0
N417 N 0.21693 0.27163 0.38208 0.0
C418 C 0.2441 0.26214 0.36838 0.0
C419 C 0.21011 0.25496 0.40248 0.0
C420 C 0.2312 0.22741 0.40969 0.0
C421 C 0.25938 0.21716 0.39569 0.0
C422 C 0.26543 0.23487 0.37475 0.0
Zn423 Zn 0.18977 0.31334 0.37031 0.0
O424 O 0.17433 0.34186 0.32298 0.0
C425 C 0.24011 0.37078 0.35835 0.0
O426 O 0.19123 0.29239 0.33755 0.0
H427 H 0.18854 0.26314 0.4132 0.0
H428 H 0.17222 0.44159 0.36162 0.0
H429 H 0.24945 0.27576 0.35233 0.0
O430 O 0.21242 0.3878 0.35588 0.0
O431 O 0.23854 0.33902 0.36399 0.0
H432 H 0.11185 0.37244 0.32134 0.0
O433 O 0.18741 0.33346 0.40363 0.0
O434 O 0.15915 0.38087 0.39375 0.0
O435 O 0.14133 0.28883 0.37564 0.0
O436 O 0.11709 0.33534 0.36058 0.0
C437 C 0.17248 0.36142 0.40943 0.0
H438 H 0.1655 0.48722 0.33195 0.0
H439 H 0.10363 0.41655 0.2911 0.0
H440 H 0.22563 0.21447 0.42601 0.0
H441 H 0.28611 0.22739 0.36301 0.0
C442 C 0.95029 0.94725 0.07674 0.0
N443 N 0.85094 0.90401 0.08299 0.0
C444 C 0.84739 0.9261 0.06458 0.0
C445 C 0.81991 0.92316 0.04913 0.0
C446 C 0.79505 0.89728 0.05228 0.0
C447 C 0.79942 0.87391 0.07096 0.0
C448 C 0.82765 0.87795 0.08636 0.0
Zn449 Zn 0.89145 0.91865 0.10492 0.0
C450 C 0.94392 0.86482 0.11569 0.0
N451 N 0.97375 0.96146 0.14522 0.0
C452 C 0.981 0.99479 0.13927 0.0
C453 C 0.99366 0.94404 0.16093 0.0
C454 C 0.02284 0.9601 0.17071 0.0
C455 C 0.03075 0.99441 0.16447 0.0
C456 C 0.00902 0.01186 0.14891 0.0
Zn457 Zn 0.93409 0.94012 0.12662 0.0
O458 O 0.92258 0.92984 0.0743 0.0
C459 C 0.88104 0.9932 0.11535 0.0
O460 O 0.96001 0.95542 0.09699 0.0
H461 H 0.9877 0.91742 0.16521 0.0
H462 H 0.86539 0.94712 0.06203 0.0
H463 H 0.96611 0.00799 0.12606 0.0
O464 O 0.86992 0.96804 0.10351 0.0
O465 O 0.90744 0.98884 0.12813 0.0
H466 H 0.83047 0.86081 0.10116 0.0
O467 O 0.90919 0.9251 0.15641 0.0
O468 O 0.86223 0.90943 0.13722 0.0
O469 O 0.95887 0.89099 0.1248 0.0
O470 O 0.91398 0.86837 0.10652 0.0
C471 C 0.87825 0.91415 0.15654 0.0
H472 H 0.81822 0.94127 0.03474 0.0
H473 H 0.78083 0.8534 0.07395 0.0
H474 H 0.03947 0.94571 0.18244 0.0
H475 H 0.01487 0.03787 0.14301 0.0
C476 C 0.29934 0.69025 0.82588 0.0
N477 N 0.3511 0.59642 0.83975 0.0
C478 C 0.36811 0.60411 0.81962 0.0
C479 C 0.37203 0.57901 0.80223 0.0
C480 C 0.3584 0.54561 0.80555 0.0
C481 C 0.34401 0.5375 0.8274 0.0
C482 C 0.34055 0.56344 0.84433 0.0
Zn483 Zn 0.32919 0.63688 0.85814 0.0
C484 C 0.37861 0.6943 0.86897 0.0
N485 N 0.27716 0.71995 0.89251 0.0
C486 C 0.24582 0.72729 0.88286 0.0
C487 C 0.28963 0.73873 0.91075 0.0
C488 C 0.27058 0.7668 0.91948 0.0
C489 C 0.23856 0.77546 0.90923 0.0
C490 C 0.22623 0.75493 0.89085 0.0
Zn491 Zn 0.30349 0.68052 0.87679 0.0
O492 O 0.31666 0.66219 0.82498 0.0
C493 C 0.25516 0.62244 0.86466 0.0
O494 O 0.29183 0.70277 0.84554 0.0
H495 H 0.31458 0.73236 0.9182 0.0
H496 H 0.37611 0.63046 0.81619 0.0
H497 H 0.23625 0.71232 0.86831 0.0
O498 O 0.2828 0.61067 0.85596 0.0
O499 O 0.25589 0.65127 0.87533 0.0
H500 H 0.32664 0.55789 0.86027 0.0
O501 O 0.31498 0.6591 0.90837 0.0
O502 O 0.33888 0.61292 0.89249 0.0
O503 O 0.35147 0.70837 0.87747 0.0
O504 O 0.37659 0.66412 0.8601 0.0
C505 C 0.32972 0.63 0.91063 0.0
H506 H 0.38402 0.58623 0.78586 0.0
H507 H 0.33312 0.51215 0.83075 0.0
H508 H 0.28103 0.78184 0.93377 0.0
H509 H 0.20231 0.76097 0.88186 0.0
C510 C 0.55745 0.04306 0.57449 0.0
N511 N 0.65495 0.08797 0.58464 0.0
C512 C 0.66128 0.06306 0.56828 0.0
C513 C 0.68524 0.06808 0.55064 0.0
C514 C 0.7034 0.09917 0.54923 0.0
C515 C 0.69778 0.12449 0.56654 0.0
C516 C 0.673 0.11836 0.58424 0.0
Zn517 Zn 0.61388 0.07284 0.60619 0.0
C518 C 0.55885 0.12541 0.61434 0.0
N519 N 0.52711 0.02791 0.6414 0.0
C520 C 0.51845 0.99561 0.63391 0.0
C521 C 0.50826 0.04431 0.65818 0.0
C522 C 0.47887 0.02824 0.66765 0.0
C523 C 0.4696 0.99494 0.65996 0.0
C524 C 0.49006 0.97855 0.64313 0.0
Zn525 Zn 0.56786 0.0496 0.62408 0.0
O526 O 0.58679 0.05799 0.5742 0.0
C527 C 0.62318 -0.00224 0.61563 0.0
O528 O 0.54305 0.03735 0.59381 0.0
H529 H 0.51542 0.0701 0.66373 0.0
H530 H 0.64692 0.03913 0.56818 0.0
H531 H 0.53276 0.98325 0.62004 0.0
O532 O 0.63819 0.02452 0.60817 0.0
O533 O 0.59268 9e-05 0.62359 0.0
H534 H 0.66763 0.13809 0.59713 0.0
O535 O 0.59213 0.06197 0.65495 0.0
O536 O 0.63867 0.08583 0.63927 0.0
O537 O 0.54422 0.09922 0.62364 0.0
O538 O 0.58883 0.12207 0.60517 0.0
C539 C 0.62113 0.07702 0.65731 0.0
H540 H 0.68892 0.04789 0.53773 0.0
H541 H 0.71136 0.14899 0.56588 0.0
H542 H 0.46331 0.04178 0.68046 0.0
H543 H 0.48317 0.95338 0.63618 0.0
H544 H 0.2694 0.26164 0.18301 0.0
H545 H 0.29628 0.17617 0.22822 0.0
H546 H 0.23997 0.29021 0.21488 0.0
H547 H 0.26778 0.20581 0.26076 0.0
H548 H 0.18013 0.24459 0.30557 0.0
H549 H 0.20962 0.21842 0.27245 0.0
H550 H 0.24533 0.3196 0.25089 0.0
H551 H 0.21457 0.34581 0.28375 0.0
C552 C 0.26962 0.24918 0.19994 0.0
C553 C 0.28494 0.21638 0.20303 0.0
C554 C 0.2528 0.26578 0.21829 0.0
C555 C 0.25104 0.2502 0.24034 0.0
C556 C 0.26796 0.21818 0.24381 0.0
C557 C 0.28471 0.20137 0.2253 0.0
C558 C 0.19352 0.26129 0.29334 0.0
C559 C 0.19491 0.29721 0.29705 0.0
C560 C 0.21098 0.24624 0.27463 0.0
C561 C 0.23061 0.26675 0.25932 0.0
C562 C 0.23041 0.303 0.26231 0.0
C563 C 0.21253 0.31813 0.28098 0.0
H564 H 0.50732 0.4405 0.5621 0.0
H565 H 0.40503 0.4549 0.53331 0.0
H566 H 0.53269 0.46858 0.52818 0.0
H567 H 0.43003 0.48483 0.49987 0.0
H568 H 0.48839 0.5091 0.43325 0.0
H569 H 0.46242 0.47956 0.46594 0.0
H570 H 0.53939 0.52397 0.51188 0.0
H571 H 0.56687 0.55219 0.47852 0.0
C572 C 0.49033 0.44941 0.5483 0.0
C573 C 0.4543 0.44538 0.55014 0.0
C574 C 0.50479 0.46604 0.52905 0.0
C575 C 0.48345 0.47963 0.51143 0.0
C576 C 0.44736 0.47443 0.51295 0.0
C577 C 0.43295 0.45716 0.53204 0.0
C578 C 0.49971 0.51294 0.45034 0.0
C579 C 0.52983 0.53298 0.45328 0.0
C580 C 0.48461 0.49601 0.46918 0.0
C581 C 0.49883 0.49909 0.4916 0.0
C582 C 0.52819 0.52033 0.49475 0.0
C583 C 0.54372 0.5369 0.47572 0.0
H584 H 0.20501 0.83589 0.72865 0.0
H585 H 0.20222 0.73755 0.69291 0.0
H586 H 0.23343 0.80836 0.76182 0.0
H587 H 0.22903 0.70954 0.72636 0.0
H588 H 0.31056 0.67584 0.77918 0.0
H589 H 0.28299 0.70437 0.74577 0.0
H590 H 0.22581 0.77057 0.79294 0.0
H591 H 0.25416 0.74382 0.82562 0.0
C592 C 0.20948 0.80819 0.72825 0.0
C593 C 0.20129 0.78881 0.70836 0.0
C594 C 0.22593 0.79233 0.74717 0.0
C595 C 0.23394 0.75666 0.74671 0.0
C596 C 0.22417 0.73713 0.72713 0.0
C597 C 0.20827 0.75308 0.70812 0.0
C598 C 0.29241 0.69676 0.78226 0.0
C599 C 0.2848 0.70757 0.80504 0.0
C600 C 0.27633 0.71292 0.76319 0.0
C601 C 0.25207 0.73987 0.76664 0.0
C602 C 0.24477 0.75054 0.78947 0.0
C603 C 0.26104 0.73486 0.80832 0.0
H604 H 0.9288 0.43802 0.97581 0.0
H605 H 0.00146 0.48952 0.93007 0.0
H606 H 0.95685 0.46516 0.00942 0.0
H607 H 0.02829 0.51738 0.96321 0.0
H608 H 0.08894 0.53629 0.0307 0.0
H609 H 0.06337 0.50811 0.99671 0.0
H610 H 0.96127 0.52191 0.0264 0.0
H611 H 0.98694 0.54895 0.06056 0.0
C612 C 0.9508 0.45489 0.97295 0.0
C613 C 0.9628 0.46165 0.95031 0.0
C614 C 0.96665 0.47074 0.99212 0.0
C615 C 0.99463 0.49373 0.98896 0.0
C616 C 0.0071 0.4996 0.96634 0.0
C617 C 0.99149 0.48368 0.94729 0.0
C618 C 0.06102 0.53392 0.02968 0.0
C619 C 0.03992 0.54477 0.04822 0.0
C620 C 0.04633 0.51761 0.01029 0.0
C621 C 0.01028 0.51222 0.00903 0.0
C622 C 0.98917 0.52475 0.0271 0.0
C623 C 0.00384 0.54071 0.04652 0.0
H624 H 0.70791 0.84092 0.77994 0.0
H625 H 0.69796 0.74027 0.81198 0.0
H626 H 0.73852 0.81475 0.74711 0.0
H627 H 0.72704 0.71375 0.77883 0.0
H628 H 0.81171 0.67973 0.72955 0.0
H629 H 0.78311 0.70862 0.76232 0.0
H630 H 0.73322 0.77918 0.71433 0.0
H631 H 0.76279 0.75183 0.68216 0.0
C632 C 0.71131 0.81307 0.77956 0.0
C633 C 0.70052 0.79258 0.79838 0.0
C634 C 0.72903 0.79801 0.76084 0.0
C635 C 0.73577 0.76211 0.76046 0.0
C636 C 0.72326 0.74154 0.77882 0.0
C637 C 0.70607 0.75665 0.79764 0.0
C638 C 0.79511 0.70179 0.72615 0.0
C639 C 0.78954 0.71337 0.70327 0.0
C640 C 0.77836 0.71812 0.74485 0.0
C641 C 0.7555 0.74607 0.74096 0.0
C642 C 0.75087 0.75811 0.7181 0.0
C643 C 0.76781 0.74216 0.69957 0.0
H644 H 0.7168 0.35576 0.2216 0.0
H645 H 0.66733 0.25726 0.20951 0.0
H646 H 0.75222 0.32958 0.2523 0.0
H647 H 0.70175 0.23124 0.24047 0.0
H648 H 0.79452 0.18294 0.27375 0.0
H649 H 0.762 0.21452 0.24393 0.0
H650 H 0.75392 0.30264 0.2901 0.0
H651 H 0.78722 0.27172 0.31935 0.0
C652 C 0.71238 0.32894 0.22629 0.0
C653 C 0.68926 0.30852 0.21338 0.0
C654 C 0.73298 0.31377 0.24362 0.0
C655 C 0.73054 0.27804 0.24832 0.0
C656 C 0.70514 0.25852 0.23673 0.0
C657 C 0.68485 0.27357 0.21938 0.0
C658 C 0.78674 0.20942 0.27717 0.0
C659 C 0.79317 0.22473 0.29891 0.0
C660 C 0.76758 0.22733 0.26031 0.0
C661 C 0.75456 0.2608 0.26492 0.0
C662 C 0.76339 0.27695 0.28598 0.0
C663 C 0.78251 0.25914 0.30276 0.0
H664 H 0.01332 0.97845 0.07779 0.0
H665 H 0.93189 0.94719 0.03052 0.0
H666 H 0.04267 0.00837 0.04623 0.0
H667 H 0.96196 0.97656 0.99863 0.0
H668 H -0.00208 0.06603 0.95514 0.0
H669 H 0.97234 0.03707 0.98861 0.0
H670 H 0.07371 0.00088 0.00945 0.0
H671 H 0.09947 0.0307 0.97594 0.0
C672 C 0.00192 0.9775 0.06054 0.0
C673 C 0.97006 0.96071 0.05666 0.0
C674 C 0.0189 0.99458 0.04244 0.0
C675 C 0.00441 0.99527 0.02005 0.0
C676 C 0.97337 0.97709 0.01588 0.0
C677 C 0.95633 0.95995 0.03403 0.0
C678 C 0.01484 0.05257 0.9672 0.0
C679 C 0.05063 0.0505 0.96301 0.0
C680 C 0.00013 0.03555 0.98615 0.0
C681 C 0.02087 0.01589 1.00127 0.0
C682 C 0.05705 0.01575 0.99802 0.0
C683 C 0.07187 0.03304 0.97901 0.0
H684 H 0.51671 0.948 0.44044 0.0
H685 H 0.41498 0.96104 0.47065 0.0
H686 H 0.54286 0.97343 0.47501 0.0
H687 H 0.44096 0.98786 0.50492 0.0
H688 H 0.50067 0.00203 0.57214 0.0
H689 H 0.47477 0.97595 0.53809 0.0
H690 H 0.54957 0.02785 0.49415 0.0
H691 H 0.57678 0.05304 0.52876 0.0
C692 C 0.49996 0.95618 0.45457 0.0
C693 C 0.46383 0.95242 0.45295 0.0
C694 C 0.51492 0.97117 0.47425 0.0
C695 C 0.49405 0.98311 0.49264 0.0
C696 C 0.45788 0.97861 0.4912 0.0
C697 C 0.44293 0.96319 0.4716 0.0
C698 C 0.51159 0.00817 0.55523 0.0
C699 C 0.54081 0.02972 0.55314 0.0
C700 C 0.49652 0.99327 0.53564 0.0
C701 C 0.50996 -0.0002 0.51335 0.0
C702 C 0.53888 0.02186 0.51114 0.0
C703 C 0.5543 0.03656 0.53089 0.0
H704 H 0.23841 0.15926 0.97244 0.0
H705 H 0.26573 0.05182 0.96237 0.0
H706 H 0.27522 0.16114 0.00709 0.0
H707 H 0.30151 0.05345 0.99745 0.0
H708 H 0.29894 0.06774 0.08157 0.0
H709 H 0.283 0.05988 0.04049 0.0
H710 H 0.33653 0.1544 0.02284 0.0
H711 H 0.35257 0.16192 0.06366 0.0
C712 C 0.25302 0.13636 0.97717 0.0
C713 C 0.24862 0.10529 0.96478 0.0
C714 C 0.27401 0.13733 0.99713 0.0
C715 C 0.29088 0.10723 0.0052 0.0
C716 C 0.28844 0.07687 0.99189 0.0
C717 C 0.26793 0.07604 0.97179 0.0
C718 C 0.30897 0.08564 0.06869 0.0
C719 C 0.32725 0.11522 0.07574 0.0
C720 C 0.29951 0.08145 0.04519 0.0
C721 C 0.30795 0.10696 0.02851 0.0
C722 C 0.32922 0.13462 0.0353 0.0
C723 C 0.33885 0.13861 0.05862 0.0
H724 H 0.59191 0.5988 0.31152 0.0
H725 H 0.67911 0.5405 0.33727 0.0
H726 H 0.60329 0.57809 0.27214 0.0
H727 H 0.69084 0.51963 0.29768 0.0
H728 H 0.64825 0.44215 0.24198 0.0
H729 H 0.65463 0.47691 0.27702 0.0
H730 H 0.63926 0.57002 0.23659 0.0
H731 H 0.63249 0.53476 0.20119 0.0
C732 C 0.61471 0.58302 0.30848 0.0
C733 C 0.63479 0.57143 0.32737 0.0
C734 C 0.62115 0.57096 0.28589 0.0
C735 C 0.64755 0.54663 0.2818 0.0
C736 C 0.66996 0.53797 0.30033 0.0
C737 C 0.66368 0.55037 0.32295 0.0
C738 C 0.64614 0.47005 0.24051 0.0
C739 C 0.63913 0.48565 0.21886 0.0
C740 C 0.65045 0.49006 0.26058 0.0
C741 C 0.64773 0.52633 0.25965 0.0
C742 C 0.6415 0.54213 0.23789 0.0
C743 C 0.63758 0.52199 0.21765 0.0
H744 H 0.20251 0.93031 0.58663 0.0
H745 H 0.15368 0.83708 0.56161 0.0
H746 H 0.22761 0.93979 0.54793 0.0
H747 H 0.17914 0.8459 0.52325 0.0
H748 H 0.22921 0.876 0.453 0.0
H749 H 0.18984 0.87699 0.48679 0.0
H750 H 0.27519 0.90704 0.5311 0.0
H751 H 0.31383 0.9061 0.49774 0.0
C752 C 0.19574 0.91282 0.57258 0.0
C753 C 0.17622 0.88297 0.57711 0.0
C754 C 0.21065 0.91779 0.5505 0.0
C755 C 0.20623 0.89301 0.53263 0.0
C756 C 0.18324 0.86545 0.5365 0.0
C757 C 0.16847 0.86048 0.55851 0.0
C758 C 0.23942 0.88237 0.47006 0.0
C759 C 0.27452 0.89113 0.47271 0.0
C760 C 0.2169 0.88328 0.48936 0.0
C761 C 0.22911 0.89305 0.51161 0.0
C762 C 0.26449 0.90066 0.51418 0.0
C763 C 0.2868 0.89965 0.49507 0.0
H764 H 0.7976 0.49892 0.71864 0.0
H765 H 0.90894 0.50655 0.72313 0.0
H766 H 0.79728 0.45764 0.75086 0.0
H767 H 0.90873 0.46509 0.75533 0.0
H768 H 0.90587 0.38655 0.80971 0.0
H769 H 0.89675 0.40651 0.76984 0.0
H770 H 0.80816 0.46581 0.79283 0.0
H771 H 0.81725 0.44535 0.83269 0.0
C772 C 0.82211 0.49125 0.72626 0.0
C773 C 0.85331 0.50641 0.71859 0.0
C774 C 0.82187 0.46763 0.74474 0.0
C775 C 0.85286 0.45832 0.7559 0.0
C776 C 0.88434 0.47143 0.74702 0.0
C777 C 0.88456 0.49521 0.72854 0.0
C778 C 0.88334 0.40237 0.80597 0.0
C779 C 0.86218 0.41433 0.82425 0.0
C780 C 0.87848 0.41429 0.7832 0.0
C781 C 0.85233 0.43848 0.77823 0.0
C782 C 0.82858 0.44716 0.79602 0.0
C783 C 0.83347 0.43513 0.81888 0.0
H784 H 0.75559 0.95055 0.03549 0.0
H785 H 0.76826 0.8397 0.03079 0.0
H786 H 0.7152 0.94928 1.00279 0.0
H787 H 0.72774 0.83834 0.99811 0.0
H788 H 0.69934 0.93064 0.92143 0.0
H789 H 0.72217 0.93934 0.9608 0.0
H790 H 0.66889 0.84726 0.98405 0.0
H791 H 0.64673 0.83846 0.94469 0.0
C792 C 0.74939 0.9258 0.02764 0.0
C793 C 0.76556 0.89523 0.03553 0.0
C794 C 0.72626 0.92513 0.00887 0.0
C795 C 0.71843 0.89383 0.99761 0.0
C796 C 0.73286 0.86294 0.00649 0.0
C797 C 0.75613 0.86363 0.02526 0.0
C798 C 0.69113 0.91335 0.93524 0.0
C799 C 0.67122 0.88397 0.93006 0.0
C800 C 0.70447 0.91806 0.9578 0.0
C801 C 0.69803 0.89347 0.97549 0.0
C802 C 0.67503 0.86621 0.97075 0.0
C803 C 0.66187 0.86148 0.94829 0.0
H804 H 0.3704 0.47522 0.80563 0.0
H805 H 0.34038 0.55959 0.76052 0.0
H806 H 0.36676 0.43516 0.77257 0.0
H807 H 0.33754 0.52 0.72761 0.0
H808 H 0.31826 0.44428 0.67207 0.0
H809 H 0.30674 0.47094 0.71008 0.0
H810 H 0.40092 0.42579 0.73716 0.0
H811 H 0.41203 0.39919 0.69943 0.0
C812 C 0.36289 0.48519 0.78871 0.0
C813 C 0.35623 0.52074 0.78568 0.0
C814 C 0.36084 0.46226 0.76977 0.0
C815 C 0.35167 0.47427 0.74741 0.0
C816 C 0.34413 0.50965 0.74459 0.0
C817 C 0.34642 0.53253 0.76342 0.0
C818 C 0.33547 0.43866 0.68651 0.0
C819 C 0.36598 0.41961 0.68284 0.0
C820 C 0.32926 0.45442 0.70817 0.0
C821 C 0.35331 0.45114 0.72656 0.0
C822 C 0.38178 0.42889 0.72351 0.0
C823 C 0.38811 0.41346 0.70187 0.0
H824 H 0.84955 0.14884 0.43867 0.0
H825 H 0.78452 0.06799 0.4111 0.0
H826 H 0.82506 0.14004 0.47735 0.0
H827 H 0.7603 0.0584 0.45001 0.0
H828 H 0.68334 0.09844 0.50425 0.0
H829 H 0.71962 0.09641 0.4696 0.0
H830 H 0.81089 0.10737 0.5126 0.0
H831 H 0.77389 0.10981 0.54755 0.0
C832 C 0.83146 0.12771 0.44123 0.0
C833 C 0.81904 0.10896 0.42193 0.0
C834 C 0.81714 0.12288 0.4634 0.0
C835 C 0.78994 0.09925 0.46669 0.0
C836 C 0.78061 0.07749 0.44793 0.0
C837 C 0.79504 0.08233 0.42571 0.0
C838 C 0.71115 0.1009 0.50625 0.0
C839 C 0.72582 0.10457 0.52852 0.0
C840 C 0.73204 0.09908 0.48644 0.0
C841 C 0.76832 0.10073 0.48829 0.0
C842 C 0.78305 0.10576 0.51055 0.0
C843 C 0.76195 0.10757 0.53053 0.0
H844 H 0.12563 0.52591 0.30622 0.0
H845 H 0.15229 0.4365 0.26472 0.0
H846 H 0.12994 0.56262 0.27132 0.0
H847 H 0.15642 0.47276 0.23015 0.0
H848 H 0.17832 0.54286 0.17172 0.0
H849 H 0.18945 0.52059 0.21109 0.0
H850 H 0.0939 0.56673 0.23507 0.0
H851 H 0.08295 0.58865 0.19593 0.0
C852 C 0.13261 0.51419 0.28971 0.0
C853 C 0.13796 0.47826 0.28811 0.0
C854 C 0.13513 0.53515 0.26977 0.0
C855 C 0.14376 0.52065 0.24798 0.0
C856 C 0.15027 0.4849 0.24667 0.0
C857 C 0.1473 0.464 0.26643 0.0
C858 C 0.16065 0.54958 0.1857 0.0
C859 C 0.12986 0.56752 0.18087 0.0
C860 C 0.16672 0.53646 0.20815 0.0
C861 C 0.14226 0.54145 0.22612 0.0
C862 C 0.11333 0.56254 0.22173 0.0
C863 C 0.10708 0.57518 0.1993 0.0
H864 H 0.80106 0.56286 0.58983 0.0
H865 H 0.8543 0.65066 0.56038 0.0
H866 H 0.77432 0.55131 0.55197 0.0
H867 H 0.82722 0.63977 0.52277 0.0
H868 H 0.77017 0.60776 0.4552 0.0
H869 H 0.81187 0.60633 0.48767 0.0
H870 H 0.72792 0.58686 0.53576 0.0
H871 H 0.68694 0.58838 0.50373 0.0
C872 C 0.80858 0.57849 0.57497 0.0
C873 C 0.82964 0.60769 0.57805 0.0
C874 C 0.7927 0.57239 0.55337 0.0
C875 C 0.79772 0.59537 0.53452 0.0
C876 C 0.82257 0.62167 0.53685 0.0
C877 C 0.83834 0.62776 0.55841 0.0
C878 C 0.76079 0.60362 0.47279 0.0
C879 C 0.72533 0.59798 0.4769 0.0
C880 C 0.78463 0.60243 0.49134 0.0
C881 C 0.7734 0.59543 0.51427 0.0
C882 C 0.73777 0.59098 0.51828 0.0
C883 C 0.71416 0.59231 0.49993 0.0
H884 H 0.1752 0.08649 0.82592 0.0
H885 H 0.06694 0.06179 0.81692 0.0
H886 H 0.18493 0.07483 0.78444 0.0
H887 H 0.07661 0.04732 0.77716 0.0
H888 H 0.09166 0.00962 0.70795 0.0
H889 H 0.08612 0.05108 0.73953 0.0
H890 H 0.19265 0.03157 0.75927 0.0
H891 H 0.19927 0.99463 0.72584 0.0
C892 C 0.1535 0.0789 0.81511 0.0
C893 C 0.12055 0.07426 0.82497 0.0
C894 C 0.15901 0.07168 0.79128 0.0
C895 C 0.13182 0.05907 0.77699 0.0
C896 C 0.09851 0.05714 0.78683 0.0
C897 C 0.09298 0.065 0.81018 0.0
C898 C 0.11421 0.01516 0.71853 0.0
C899 C 0.14538 0.99718 0.71498 0.0
C900 C 0.11091 0.0385 0.73716 0.0
C901 C 0.13824 0.0434 0.7533 0.0
C902 C 0.17052 0.02847 0.74792 0.0
C903 C 0.17416 0.00637 0.7288 0.0
H904 H 0.66001 0.42364 0.07323 0.0
H905 H 0.68798 0.31583 0.06625 0.0
H906 H 0.67526 0.43287 0.03222 0.0
H907 H 0.70573 0.32513 0.02696 0.0
H908 H 0.74502 0.33974 0.95783 0.0
H909 H 0.70281 0.33412 0.98894 0.0
H910 H 0.72165 0.44048 0.00912 0.0
H911 H 0.7596 0.44725 0.97617 0.0
C912 C 0.66904 0.40192 0.06294 0.0
C913 C 0.67346 0.36926 0.07325 0.0
C914 C 0.6783 0.40717 0.03943 0.0
C915 C 0.69267 0.37998 0.02591 0.0
C916 C 0.69456 0.34693 0.0361 0.0
C917 C 0.68477 0.34164 0.05914 0.0
C918 C 0.73929 0.36225 0.96841 0.0
C919 C 0.75725 0.39345 0.96503 0.0
C920 C 0.71544 0.3589 0.98673 0.0
C921 C 0.70985 0.38624 1.00273 0.0
C922 C 0.72517 0.41843 0.99774 0.0
C923 C 0.7479 0.42211 0.97895 0.0
H924 H 0.41253 0.01711 0.22194 0.0
H925 H 0.30274 -0.00221 0.2164 0.0
H926 H 0.41604 0.97595 0.2542 0.0
H927 H 0.30612 0.9566 0.24859 0.0
H928 H 0.32396 0.94203 0.33005 0.0
H929 H 0.31461 0.96396 0.29053 0.0
H930 H 0.41076 0.91692 0.26839 0.0
H931 H 0.42017 0.89573 0.30793 0.0
C932 C 0.38938 0.00328 0.22715 0.0
C933 C 0.35735 0.01105 0.21684 0.0
C934 C 0.39128 0.97966 0.24567 0.0
C935 C 0.3612 0.96321 0.25423 0.0
C936 C 0.32964 0.96923 0.24277 0.0
C937 C 0.32776 0.99275 0.22427 0.0
C938 C 0.3421 0.93492 0.31644 0.0
C939 C 0.37268 0.91711 0.32199 0.0
C940 C 0.337 0.94775 0.29379 0.0
C941 C 0.3624 0.94288 0.27637 0.0
C942 C 0.3911 0.92183 0.28146 0.0
C943 C 0.39621 0.9092 0.30403 0.0
H944 H 0.26591 0.32609 0.5366 0.0
H945 H 0.2348 0.43221 0.54738 0.0
H946 H 0.22837 0.32286 0.50244 0.0
H947 H 0.197 0.42909 0.5133 0.0
H948 H 0.19206 0.4219 0.43071 0.0
H949 H 0.20956 0.42737 0.47161 0.0
H950 H 0.17135 0.32418 0.48527 0.0
H951 H 0.15484 0.31866 0.44443 0.0
C952 C 0.25003 0.34828 0.53218 0.0
C953 C 0.25351 0.37943 0.54452 0.0
C954 C 0.22854 0.34657 0.51252 0.0
C955 C 0.20999 0.37596 0.50487 0.0
C956 C 0.21139 0.40623 0.51841 0.0
C957 C 0.23283 0.4079 0.53802 0.0
C958 C 0.18615 0.40108 0.44273 0.0
C959 C 0.17217 0.36991 0.4345 0.0
C960 C 0.19631 0.40403 0.46616 0.0
C961 C 0.19248 0.37587 0.48167 0.0
C962 C 0.17541 0.34602 0.47374 0.0
C963 C 0.16556 0.34303 0.45042 0.0
H964 H 0.90188 0.88475 0.19618 0.0
H965 H 0.8184 0.94666 0.16871 0.0
H966 H 0.8904 0.90698 0.23523 0.0
H967 H 0.80714 0.96957 0.20765 0.0
H968 H 0.90447 0.00743 0.28078 0.0
H969 H 0.90439 0.9645 0.24947 0.0
H970 H 0.79245 0.96569 0.24878 0.0
H971 H 0.79269 0.00872 0.27994 0.0
C972 C 0.87988 0.9018 0.19874 0.0
C973 C 0.86095 0.91393 0.17945 0.0
C974 C 0.87372 0.91505 0.22104 0.0
C975 C 0.84854 0.94083 0.22451 0.0
C976 C 0.82677 0.94973 0.20568 0.0
C977 C 0.83289 0.9363 0.18332 0.0
C978 C 0.8799 -0.00224 0.27439 0.0
C979 C 0.84867 0.01183 0.28256 0.0
C980 C 0.87975 0.97309 0.25644 0.0
C981 C 0.84833 0.96186 0.24637 0.0
C982 C 0.81708 0.97416 0.2558 0.0
C983 C 0.81725 -0.00123 0.27369 0.0
H984 H 0.23692 0.65591 0.03653 0.0
H985 H 0.25769 0.54641 0.04253 0.0
H986 H 0.27661 0.6592 0.00345 0.0
H987 H 0.29707 0.54958 0.00929 0.0
H988 H 0.30556 0.56813 0.92695 0.0
H989 H 0.2863 0.55833 0.96709 0.0
H990 H 0.33595 0.65338 0.98842 0.0
H991 H 0.35468 0.66315 0.94835 0.0
C992 C 0.25074 0.63277 0.03126 0.0
C993 C 0.24373 0.60086 0.04198 0.0
C994 C 0.2735 0.63457 0.01223 0.0
C995 C 0.28975 0.60449 0.0035 0.0
C996 C 0.28457 0.57307 0.01529 0.0
C997 C 0.26203 0.57133 0.03436 0.0
C998 C 0.31393 0.58585 0.94047 0.0
C999 C 0.33171 0.61628 0.9346 0.0
C1000 C 0.3026 0.58051 0.96347 0.0
C1001 C 0.3089 0.60555 0.98089 0.0
C1002 C 0.33002 0.63399 0.97537 0.0
C1003 C 0.34124 0.63929 0.95249 0.0
H1004 H 0.58699 0.10536 0.69351 0.0
H1005 H 0.68169 0.05252 0.67552 0.0
H1006 H 0.59442 0.08889 0.73426 0.0
H1007 H 0.68915 0.03554 0.71631 0.0
H1008 H 0.69695 0.00932 0.79187 0.0
H1009 H 0.6962 0.04817 0.75829 0.0
H1010 H 0.58627 0.03073 0.75063 0.0
H1011 H 0.58717 0.99172 0.78416 0.0
C1012 C 0.61033 0.09163 0.69853 0.0
C1013 C 0.63392 0.08039 0.68142 0.0
C1014 C 0.61428 0.08171 0.72181 0.0
C1015 C 0.6419 0.06021 0.72849 0.0
C1016 C 0.66759 0.0522 0.71181 0.0
C1017 C 0.6636 0.06222 0.68842 0.0
C1018 C 0.67246 0.01442 0.7833 0.0
C1019 C 0.64214 0.99709 0.79047 0.0
C1020 C 0.6721 0.03658 0.76401 0.0
C1021 C 0.64134 0.04224 0.75153 0.0
C1022 C 0.61043 0.02719 0.75992 0.0
C1023 C 0.61084 0.00485 0.7792 0.0
H1024 H 0.4377 0.16877 0.15306 0.0
H1025 H 0.38929 0.2586 0.12205 0.0
H1026 H 0.49342 0.19805 0.15231 0.0
H1027 H 0.44548 0.28785 0.12105 0.0
H1028 H 0.54501 0.34066 0.15004 0.0
H1029 H 0.48841 0.31252 0.14843 0.0
H1030 H 0.53699 0.21814 0.12459 0.0
H1031 H 0.59351 0.246 0.12646 0.0
C1032 C 0.43894 0.19473 0.14595 0.0
C1033 C 0.40895 0.21132 0.13762 0.0
C1034 C 0.471 0.21145 0.1454 0.0
C1035 C 0.47396 0.24527 0.13656 0.0
C1036 C 0.44401 0.26191 0.12816 0.0
C1037 C 0.41186 0.24507 0.12861 0.0
C1038 C 0.54361 0.31395 0.14436 0.0
C1039 C 0.57386 0.29555 0.1385 0.0
C1040 C 0.51113 0.29789 0.14331 0.0
C1041 C 0.50818 0.26304 0.13647 0.0
C1042 C 0.53839 0.24486 0.13025 0.0
C1043 C 0.5708 0.26091 0.13122 0.0
H1044 H 0.51266 0.65226 0.35735 0.0
H1045 H 0.56263 0.67799 0.42248 0.0
H1046 H 0.48505 0.70947 0.35676 0.0
H1047 H 0.534 0.73475 0.42217 0.0
H1048 H 0.43365 0.80969 0.42054 0.0
H1049 H 0.46159 0.75253 0.42107 0.0
H1050 H 0.5151 0.77714 0.35716 0.0
H1051 H 0.48821 0.83465 0.35695 0.0
C1052 C 0.51765 0.67008 0.37155 0.0
C1053 C 0.53987 0.66072 0.38993 0.0
C1054 C 0.5019 0.70273 0.37118 0.0
C1055 C 0.50737 0.72626 0.38947 0.0
C1056 C 0.52932 0.71689 0.40794 0.0
C1057 C 0.54579 0.68457 0.40803 0.0
C1058 C 0.45131 0.80284 0.40659 0.0
C1059 C 0.45879 0.82661 0.38872 0.0
C1060 C 0.46736 0.77029 0.40697 0.0
C1061 C 0.49042 0.76064 0.38916 0.0
C1062 C 0.49736 0.78406 0.37105 0.0
C1063 C 0.48204 0.81691 0.37098 0.0
H1064 H 0.89773 0.75436 0.62513 0.0
H1065 H 0.9463 0.66398 0.65527 0.0
H1066 H 0.95366 0.78376 0.62435 0.0
H1067 H 0.0021 0.69356 0.65473 0.0
H1068 H 0.05229 0.83761 0.65213 0.0
H1069 H 0.99626 0.80837 0.65153 0.0
H1070 H 0.04575 0.71476 0.62717 0.0
H1071 H 0.10179 0.74379 0.628 0.0
C1072 C 0.92031 0.74073 0.63159 0.0
C1073 C 0.91747 0.70677 0.64027 0.0
C1074 C 0.95236 0.75769 0.63127 0.0
C1075 C 0.98239 0.74105 0.63949 0.0
C1076 C 0.97957 0.707 0.648 0.0
C1077 C 0.94751 0.6901 0.64844 0.0
C1078 C 0.05123 0.81083 0.64657 0.0
C1079 C 0.08162 0.79307 0.64016 0.0
C1080 C 0.01906 0.7941 0.64612 0.0
C1081 C 0.01649 0.75917 0.63936 0.0
C1082 C 0.04684 0.74153 0.63276 0.0
C1083 C 0.07897 0.75828 0.6331 0.0
H1084 H 0.00916 0.3539 0.87657 0.0
H1085 H 0.91735 0.30426 0.90382 0.0
H1086 H 0.0398 0.29846 0.87765 0.0
H1087 H 0.94803 0.24921 0.90512 0.0
H1088 H -0.00105 0.15078 0.87874 0.0
H1089 H 0.97086 0.20697 0.87741 0.0
H1090 H 0.06286 0.25471 0.90567 0.0
H1091 H 0.09147 0.19804 0.9068 0.0
C1092 C 0.99551 0.33122 0.8828 0.0
C1093 C 0.96071 0.33353 0.89 0.0
C1094 C 0.01317 0.29951 0.88357 0.0
C1095 C 0.99635 0.26939 0.8914 0.0
C1096 C 0.96162 0.2718 0.89868 0.0
C1097 C 0.94406 0.30344 0.89802 0.0
C1098 C 0.01337 0.17317 0.88467 0.0
C1099 C 0.0475 0.16979 0.89298 0.0
C1100 C 0.9971 0.20543 0.88402 0.0
C1101 C 0.01447 0.23532 0.8916 0.0
C1102 C 0.04884 0.23218 0.89957 0.0
C1103 C 0.06517 0.19971 0.90032 0.0
H1104 H 0.59628 0.74828 0.88007 0.0
H1105 H 0.54906 0.84151 0.85303 0.0
H1106 H 0.53968 0.72078 0.88193 0.0
H1107 H 0.4922 0.81364 0.8547 0.0
H1108 H 0.39252 0.7609 0.88317 0.0
H1109 H 0.44852 0.79067 0.8828 0.0
H1110 H 0.49676 0.69909 0.85418 0.0
H1111 H 0.44129 0.66936 0.85474 0.0
C1112 C 0.57383 0.76296 0.8745 0.0
C1113 C 0.57731 0.7971 0.86628 0.0
C1114 C 0.54135 0.74709 0.87548 0.0
C1115 C 0.51142 0.76492 0.86833 0.0
C1116 C 0.51472 0.79928 0.86049 0.0
C1117 C 0.54733 0.81517 0.85941 0.0
C1118 C 0.41512 0.74713 0.87686 0.0
C1119 C 0.41239 0.71269 0.86906 0.0
C1120 C 0.44715 0.76426 0.87652 0.0
C1121 C 0.47714 0.74722 0.86854 0.0
C1122 C 0.4743 0.71282 0.86075 0.0
C1123 C 0.44238 0.69582 0.86097 0.0
H1124 H 0.50483 0.34305 0.62911 0.0
H1125 H 0.4103 0.29538 0.60464 0.0
H1126 H 0.5337 0.28693 0.62827 0.0
H1127 H 0.43942 0.23922 0.6036 0.0
H1128 H 0.58376 0.18798 0.59915 0.0
H1129 H 0.55421 0.24393 0.59968 0.0
H1130 H 0.46407 0.1959 0.6304 0.0
H1131 H 0.49336 0.13999 0.62969 0.0
C1132 C 0.49016 0.32061 0.62357 0.0
C1133 C 0.45519 0.32377 0.61696 0.0
C1134 C 0.50683 0.28845 0.62293 0.0
C1135 C 0.48893 0.2586 0.61578 0.0
C1136 C 0.45387 0.26167 0.60939 0.0
C1137 C 0.43721 0.29389 0.6099 0.0
C1138 C 0.55762 0.18933 0.60598 0.0
C1139 C 0.54097 0.15946 0.61438 0.0
C1140 C 0.54075 0.22144 0.6064 0.0
C1141 C 0.50678 0.2244 0.61511 0.0
C1142 C 0.49007 0.19448 0.62334 0.0
C1143 C 0.50698 0.16243 0.62305 0.0
H1144 H 0.05124 0.33368 0.35898 0.0
H1145 H 0.09892 0.23841 0.38218 0.0
H1146 H 0.99466 0.3058 0.35965 0.0
H1147 H 0.04209 0.21062 0.38304 0.0
H1148 H 0.94143 0.16429 0.3518 0.0
H1149 H -0.00181 0.1916 0.35455 0.0
H1150 H 0.95153 0.2814 0.38671 0.0
H1151 H 0.8946 0.25426 0.38376 0.0
C1152 C 0.04965 0.30685 0.36439 0.0
C1153 C 0.07968 0.28826 0.37046 0.0
C1154 C 0.01714 0.29093 0.3649 0.0
C1155 C 0.01384 0.25598 0.37139 0.0
C1156 C 0.04381 0.23748 0.37773 0.0
C1157 C 0.07634 0.25347 0.37735 0.0
C1158 C 0.94324 0.18979 0.35958 0.0
C1159 C 0.91339 0.20713 0.36747 0.0
C1160 C 0.97585 0.20536 0.36128 0.0
C1161 C 0.97939 0.23871 0.3708 0.0
C1162 C 0.94962 0.25584 0.37903 0.0
C1163 C 0.91701 0.2402 0.37745 0.0
H1164 H 0.99536 0.64698 0.13078 0.0
H1165 H 0.08911 0.69207 0.10293 0.0
H1166 H 0.96784 0.7037 0.13069 0.0
H1167 H 0.06129 0.74901 0.10272 0.0
H1168 H 0.00992 0.84974 0.12991 0.0
H1169 H 0.03868 0.79344 0.13025 0.0
H1170 H 0.9466 0.74612 0.10179 0.0
H1171 H 0.91769 0.80234 0.10157 0.0
C1172 C 0.01018 0.66899 0.12468 0.0
C1173 C 0.0445 0.6649 0.11684 0.0
C1174 C 0.99426 0.7015 0.12448 0.0
C1175 C 0.01228 0.73084 0.11657 0.0
C1176 C 0.04678 0.72693 0.10907 0.0
C1177 C 0.06268 0.69429 0.10911 0.0
C1178 C 0.99577 0.82734 0.12371 0.0
C1179 C 0.96143 0.83058 0.11575 0.0
C1180 C 0.01236 0.79511 0.12378 0.0
C1181 C 0.99493 0.76529 0.11608 0.0
C1182 C 0.96062 0.76853 0.10809 0.0
C1183 C 0.9441 0.8008 0.10786 0.0
H1184 H 0.16373 0.28127 0.09246 0.0
H1185 H 0.25962 0.33555 0.07938 0.0
H1186 H 0.13274 0.33572 0.09304 0.0
H1187 H 0.22806 0.38993 0.07746 0.0
H1188 H 0.17955 0.47843 0.11746 0.0
H1189 H 0.20706 0.42411 0.1072 0.0
H1190 H 0.10971 0.38673 0.07936 0.0
H1191 H 0.08181 0.44078 0.09131 0.0
C1192 C 0.17804 0.30483 0.08895 0.0
C1193 C 0.21436 0.30426 0.0869 0.0
C1194 C 0.16013 0.33617 0.08901 0.0
C1195 C 0.17806 0.36755 0.08626 0.0
C1196 C 0.21364 0.3664 0.08076 0.0
C1197 C 0.23172 0.33508 0.08135 0.0
C1198 C 0.16403 0.45834 0.1094 0.0
C1199 C 0.12859 0.46339 0.10543 0.0
C1200 C 0.1799 0.42739 0.10305 0.0
C1201 C 0.16088 0.40102 0.09196 0.0
C1202 C 0.12519 0.40621 0.08804 0.0
C1203 C 0.1091 0.43703 0.09496 0.0
H1204 H 0.29714 0.34228 0.33797 0.0
H1205 H 0.25707 0.4377 0.36634 0.0
H1206 H 0.35031 0.37187 0.32659 0.0
H1207 H 0.3109 0.46687 0.35684 0.0
H1208 H 0.40243 0.52116 0.33234 0.0
H1209 H 0.3473 0.49073 0.32971 0.0
H1210 H 0.40048 0.39342 0.34107 0.0
H1211 H 0.45526 0.4235 0.34132 0.0
C1212 C 0.30013 0.36947 0.34217 0.0
C1213 C 0.27336 0.38769 0.35325 0.0
C1214 C 0.33057 0.38655 0.33565 0.0
C1215 C 0.33525 0.42199 0.34071 0.0
C1216 C 0.30821 0.43994 0.35198 0.0
C1217 C 0.27749 0.42309 0.35785 0.0
C1218 C 0.40235 0.49314 0.33327 0.0
C1219 C 0.43304 0.4748 0.33769 0.0
C1220 C 0.37064 0.47565 0.33227 0.0
C1221 C 0.369 0.4396 0.33615 0.0
C1222 C 0.40025 0.42108 0.33811 0.0
C1223 C 0.43185 0.43844 0.33852 0.0
H1224 H 0.2637 0.67454 0.57218 0.0
H1225 H 0.26738 0.67081 0.64741 0.0
H1226 H 0.29741 0.62048 0.57043 0.0
H1227 H 0.30099 0.6176 0.64571 0.0
H1228 H 0.39462 0.54924 0.63447 0.0
H1229 H 0.36204 0.60355 0.63214 0.0
H1230 H 0.29154 0.55698 0.5828 0.0
H1231 H 0.3239 0.50296 0.58499 0.0
C1232 C 0.27127 0.66186 0.58824 0.0
C1233 C 0.26348 0.67686 0.60989 0.0
C1234 C 0.29065 0.63124 0.58727 0.0
C1235 C 0.30244 0.61555 0.60796 0.0
C1236 C 0.29307 0.62976 0.62953 0.0
C1237 C 0.27367 0.66 0.63048 0.0
C1238 C 0.37239 0.55078 0.62299 0.0
C1239 C 0.36152 0.52184 0.61019 0.0
C1240 C 0.35373 0.5817 0.62169 0.0
C1241 C 0.32419 0.58417 0.60741 0.0
C1242 C 0.31428 0.55573 0.59384 0.0
C1243 C 0.33269 0.52479 0.59529 0.0
H1244 H 0.04443 0.56302 0.83084 0.0
H1245 H 0.09371 0.46815 0.85303 0.0
H1246 H 0.0998 0.59328 0.83371 0.0
H1247 H 0.14895 0.49831 0.85601 0.0
H1248 H 0.24787 0.55947 0.8441 0.0
H1249 H 0.1946 0.52888 0.83517 0.0
H1250 H 0.13537 0.61089 0.86749 0.0
H1251 H 0.18895 0.64218 0.87605 0.0
C1252 C 0.0673 0.54852 0.83583 0.0
C1253 C 0.06482 0.51333 0.84185 0.0
C1254 C 0.09885 0.56588 0.8377 0.0
C1255 C 0.1285 0.54832 0.84555 0.0
C1256 C 0.12655 0.51252 0.84986 0.0
C1257 C 0.09497 0.49516 0.84799 0.0
C1258 C 0.22352 0.57105 0.8494 0.0
C1259 C 0.2226 0.60327 0.86086 0.0
C1260 C 0.19301 0.55341 0.84427 0.0
C1261 C 0.16084 0.56755 0.85049 0.0
C1262 C 0.15983 0.59965 0.86213 0.0
C1263 C 0.19047 0.61737 0.86728 0.0
H1264 H 0.81164 0.70637 0.91375 0.0
H1265 H 0.71645 0.65078 0.9013 0.0
H1266 H 0.84388 0.65196 0.91309 0.0
H1267 H 0.74862 0.59629 0.90048 0.0
H1268 H 0.81594 0.50234 0.91578 0.0
H1269 H 0.78428 0.55561 0.92277 0.0
H1270 H 0.85843 0.61176 0.88087 0.0
H1271 H 0.89083 0.55817 0.87412 0.0
C1272 C 0.79758 0.68234 0.91144 0.0
C1273 C 0.76166 0.68263 0.90746 0.0
C1274 C 0.81603 0.65132 0.91079 0.0
C1275 C 0.79887 0.62003 0.90622 0.0
C1276 C 0.76254 0.62004 0.90406 0.0
C1277 C 0.74406 0.65115 0.9047 0.0
C1278 C 0.82561 0.526 0.90798 0.0
C1279 C 0.85592 0.52605 0.8943 0.0
C1280 C 0.80733 0.5565 0.912 0.0
C1281 C 0.81891 0.58782 0.90246 0.0
C1282 C 0.8492 0.588 0.88874 0.0
C1283 C 0.86756 0.55734 0.88468 0.0
H1284 H 0.74432 0.56886 0.67213 0.0
H1285 H 0.69138 0.64064 0.62647 0.0
H1286 H 0.69074 0.53734 0.67812 0.0
H1287 H 0.63748 0.60837 0.63224 0.0
H1288 H 0.54067 0.56143 0.66246 0.0
H1289 H 0.59444 0.59466 0.66287 0.0
H1290 H 0.65291 0.49989 0.655 0.0
H1291 H 0.59905 0.46672 0.6547 0.0
C1292 C 0.72122 0.57791 0.66328 0.0
C1293 C 0.72211 0.60722 0.64868 0.0
C1294 C 0.69054 0.5597 0.66672 0.0
C1295 C 0.65997 0.57033 0.65567 0.0
C1296 C 0.66064 0.59985 0.64123 0.0
C1297 C 0.69148 0.61815 0.63776 0.0
C1298 C 0.56512 0.54772 0.66131 0.0
C1299 C 0.56583 0.51158 0.6584 0.0
C1300 C 0.5958 0.56673 0.66132 0.0
C1301 C 0.62777 0.54994 0.65851 0.0
C1302 C 0.62861 0.51354 0.65726 0.0
C1303 C 0.59785 0.4945 0.65724 0.0
H1304 H 0.66751 0.28001 0.41011 0.0
H1305 H 0.76196 0.3354 0.42532 0.0
H1306 H 0.63547 0.33379 0.4102 0.0
H1307 H 0.72932 0.38922 0.42782 0.0
H1308 H 0.68032 0.47809 0.3882 0.0
H1309 H 0.70872 0.42422 0.39854 0.0
H1310 H 0.6109 0.38376 0.42366 0.0
H1311 H 0.58228 0.43723 0.41146 0.0
C1312 C 0.68119 0.30368 0.41435 0.0
C1313 C 0.71744 0.30375 0.41672 0.0
C1314 C 0.6627 0.33465 0.41462 0.0
C1315 C 0.67998 0.36627 0.41803 0.0
C1316 C 0.71542 0.36556 0.42399 0.0
C1317 C 0.73411 0.33458 0.42308 0.0
C1318 C 0.66493 0.45734 0.3956 0.0
C1319 C 0.62916 0.4613 0.39867 0.0
C1320 C 0.68127 0.42667 0.40204 0.0
C1321 C 0.66236 0.39955 0.4124 0.0
C1322 C 0.62635 0.40376 0.4155 0.0
C1323 C 0.60983 0.43424 0.40842 0.0
H1324 H 0.7523 0.44201 0.1437 0.0
H1325 H 0.79558 0.34491 0.16704 0.0
H1326 H 0.8073 0.47049 0.15058 0.0
H1327 H 0.8504 0.37377 0.17547 0.0
H1328 H 0.95251 0.42635 0.15356 0.0
H1329 H 0.89776 0.39631 0.15645 0.0
H1330 H 0.84767 0.49201 0.17671 0.0
H1331 H 0.90237 0.52266 0.17174 0.0
C1332 C 0.77362 0.42686 0.15058 0.0
C1333 C 0.76993 0.3912 0.15451 0.0
C1334 C 0.8051 0.44329 0.15489 0.0
C1335 C 0.83351 0.42461 0.16375 0.0
C1336 C 0.8294 0.38896 0.16826 0.0
C1337 C 0.79802 0.37235 0.16344 0.0
C1338 C 0.92982 0.44096 0.15877 0.0
C1339 C 0.93152 0.47708 0.16165 0.0
C1340 C 0.89835 0.42359 0.16076 0.0
C1341 C 0.86787 0.44179 0.16623 0.0
C1342 C 0.87036 0.47733 0.17164 0.0
C1343 C 0.90185 0.49487 0.1692 0.0
H1344 H 0.67923 0.7846 0.58962 0.0
H1345 H 0.7765 0.83976 0.58898 0.0
H1346 H 0.64817 0.83864 0.59254 0.0
H1347 H 0.7453 0.8945 0.58924 0.0
H1348 H 0.6883 0.97951 0.62772 0.0
H1349 H 0.71861 0.92641 0.61747 0.0
H1350 H 0.62689 0.89027 0.58131 0.0
H1351 H 0.59608 0.94218 0.59368 0.0
C1352 C 0.69394 0.80848 0.5893 0.0
C1353 C 0.73034 0.80788 0.58998 0.0
C1354 C 0.67605 0.83972 0.59074 0.0
C1355 C 0.69413 0.87126 0.59202 0.0
C1356 C 0.73047 0.87073 0.58944 0.0
C1357 C 0.74845 0.83931 0.5887 0.0
C1358 C 0.67462 0.95965 0.61806 0.0
C1359 C 0.63981 0.9642 0.61196 0.0
C1360 C 0.69213 0.92951 0.61166 0.0
C1361 C 0.67553 0.90385 0.59822 0.0
C1362 C 0.64053 0.90886 0.59202 0.0
C1363 C 0.62272 0.93852 0.59915 0.0
H1364 H 0.75776 0.92292 0.83061 0.0
H1365 H 0.80538 0.85364 0.88043 0.0
H1366 H 0.81242 0.95295 0.82556 0.0
H1367 H 0.86021 0.88457 0.87586 0.0
H1368 H 0.96002 0.93187 0.85318 0.0
H1369 H 0.90724 0.89762 0.84908 0.0
H1370 H 0.84659 0.99183 0.84893 0.0
H1371 H 0.89953 0.0259 0.85253 0.0
C1372 C 0.77996 0.91412 0.84055 0.0
C1373 C 0.77725 0.88618 0.85618 0.0
C1374 C 0.81126 0.93141 0.83764 0.0
C1375 C 0.84053 0.92133 0.8504 0.0
C1376 C 0.83815 0.8927 0.86555 0.0
C1377 C 0.80676 0.87514 0.86834 0.0
C1378 C 0.93537 0.94514 0.85169 0.0
C1379 C 0.93358 0.9814 0.85329 0.0
C1380 C 0.90522 0.92559 0.84957 0.0
C1381 C 0.87276 0.94198 0.8491 0.0
C1382 C 0.87124 0.97842 0.84909 0.0
C1383 C 0.90148 -0.00201 0.85109 0.0
H1384 H 0.82862 0.01069 0.086 0.0
H1385 H 0.89308 0.05172 0.14112 0.0
H1386 H 0.79786 0.06545 0.08363 0.0
H1387 H 0.86153 0.1065 0.13911 0.0
H1388 H 0.81819 0.20971 0.1166 0.0
H1389 H 0.85183 0.15636 0.11383 0.0
H1390 H 0.75697 0.09772 0.10721 0.0
H1391 H 0.72345 0.1512 0.10969 0.0
C1392 C 0.83618 0.0314 0.09768 0.0
C1393 C 0.86316 0.02686 0.11388 0.0
C1394 C 0.81843 0.06274 0.09635 0.0
C1395 C 0.82716 0.09021 0.11122 0.0
C1396 C 0.85449 0.08589 0.1272 0.0
C1397 C 0.8724 0.05449 0.12849 0.0
C1398 C 0.80463 0.18539 0.11429 0.0
C1399 C 0.76826 0.18444 0.1135 0.0
C1400 C 0.82384 0.15489 0.11285 0.0
C1401 C 0.80703 0.12284 0.11061 0.0
C1402 C 0.77069 0.12207 0.10874 0.0
C1403 C 0.75147 0.15264 0.11011 0.0
H1404 H 0.60113 0.97275 0.33603 0.0
H1405 H 0.53647 0.06389 0.33369 0.0
H1406 H 0.65264 0.00912 0.33295 0.0
H1407 H 0.58787 0.10041 0.33042 0.0
H1408 H 0.68485 0.14624 0.36868 0.0
H1409 H 0.63172 0.11389 0.36056 0.0
H1410 H 0.6868 0.05088 0.31048 0.0
H1411 H 0.73966 0.08253 0.31875 0.0
C1412 C 0.59797 0.00044 0.33386 0.0
C1413 C 0.56507 0.01564 0.33528 0.0
C1414 C 0.62739 0.02134 0.33223 0.0
C1415 C 0.62421 0.05767 0.33196 0.0
C1416 C 0.59107 0.07255 0.33114 0.0
C1417 C 0.56173 0.05169 0.33276 0.0
C1418 C 0.68544 0.1257 0.35581 0.0
C1419 C 0.71648 0.11662 0.34466 0.0
C1420 C 0.65504 0.10735 0.351 0.0
C1421 C 0.65522 0.07975 0.33492 0.0
C1422 C 0.68599 0.07168 0.32315 0.0
C1423 C 0.71625 0.08988 0.32795 0.0
H1424 H 0.2394 0.1557 0.41544 0.0
H1425 H 0.3293 0.20999 0.38935 0.0
H1426 H 0.27314 0.10266 0.41773 0.0
H1427 H 0.36206 0.15645 0.38955 0.0
H1428 H 0.41856 0.05469 0.40037 0.0
H1429 H 0.38967 0.11003 0.40781 0.0
H1430 H 0.29137 0.0637 0.38926 0.0
H1431 H 0.31997 0.00857 0.38321 0.0
C1432 C 0.26647 0.15649 0.41052 0.0
C1433 C 0.28136 0.18688 0.40161 0.0
C1434 C 0.28571 0.1259 0.41142 0.0
C1435 C 0.32001 0.12492 0.40303 0.0
C1436 C 0.33572 0.15602 0.39603 0.0
C1437 C 0.31672 0.18671 0.3956 0.0
C1438 C 0.39083 0.05666 0.39778 0.0
C1439 C 0.37143 0.02756 0.39121 0.0
C1440 C 0.37422 0.08824 0.4021 0.0
C1441 C 0.33803 0.09131 0.3995 0.0
C1442 C 0.31903 0.06218 0.39225 0.0
C1443 C 0.33548 0.03065 0.3884 0.0
H1444 H 0.09536 0.96726 0.16055 0.0
H1445 H 0.04039 0.05974 0.18118 0.0
H1446 H 0.14915 9e-05 0.15867 0.0
H1447 H 0.0943 0.09274 0.17938 0.0
H1448 H 0.18176 0.14395 0.13527 0.0
H1449 H 0.1295 0.11114 0.14524 0.0
H1450 H 0.19238 0.03387 0.1796 0.0
H1451 H 0.24414 0.06578 0.16935 0.0
C1452 C 0.09509 0.99428 0.16563 0.0
C1453 C 0.0638 0.01106 0.17084 0.0
C1454 C 0.12581 0.0132 0.16436 0.0
C1455 C 0.12569 0.04915 0.16835 0.0
C1456 C 0.09493 0.06524 0.17565 0.0
C1457 C 0.06425 0.04631 0.17696 0.0
C1458 C 0.18431 0.11991 0.14486 0.0
C1459 C 0.21705 0.10736 0.15129 0.0
C1460 C 0.15446 0.10133 0.15081 0.0
C1461 C 0.15695 0.06999 0.16328 0.0
C1462 C 0.18967 0.05772 0.16982 0.0
C1463 C 0.21933 0.07613 0.16389 0.0
H1464 H 0.18275 0.98338 0.8864 0.0
H1465 H 0.08786 0.94527 0.9168 0.0
H1466 H 0.21083 0.92843 0.89425 0.0
H1467 H 0.1165 0.89059 0.9262 0.0
H1468 H 0.16823 0.785 0.91132 0.0
H1469 H 0.13785 0.83984 0.9104 0.0
H1470 H 0.23445 0.89349 0.92285 0.0
H1471 H 0.26528 0.83874 0.92135 0.0
C1472 C 0.16798 0.96312 0.89489 0.0
C1473 C 0.13313 0.96831 0.9008 0.0
C1474 C 0.18421 0.93175 0.89978 0.0
C1475 C 0.16622 0.90504 0.91127 0.0
C1476 C 0.13115 0.91033 0.91713 0.0
C1477 C 0.11465 0.94158 0.91172 0.0
C1478 C 0.18302 0.80851 0.91388 0.0
C1479 C 0.21938 0.80749 0.91555 0.0
C1480 C 0.16545 0.84008 0.91368 0.0
C1481 C 0.18376 0.87136 0.9158 0.0
C1482 C 0.21964 0.87001 0.92021 0.0
C1483 C 0.23732 0.83846 0.91984 0.0
H1484 H 0.25526 0.92817 0.67465 0.0
H1485 H 0.31066 0.85133 0.6343 0.0
H1486 H 0.3092 0.95792 0.68283 0.0
H1487 H 0.36495 0.88183 0.64223 0.0
H1488 H 0.46001 0.92827 0.67398 0.0
H1489 H 0.40517 0.89678 0.67433 0.0
H1490 H 0.35046 0.99222 0.66032 0.0
H1491 H 0.40526 0.02359 0.66007 0.0
C1492 C 0.27899 0.91763 0.66743 0.0
C1493 C 0.27869 0.88747 0.65362 0.0
C1494 C 0.30988 0.93478 0.67216 0.0
C1495 C 0.34125 0.92225 0.6632 0.0
C1496 C 0.34114 0.89182 0.64964 0.0
C1497 C 0.3101 0.87454 0.6449 0.0
C1498 C 0.4361 0.94257 0.67161 0.0
C1499 C 0.43676 0.97826 0.66683 0.0
C1500 C 0.40483 0.92453 0.67157 0.0
C1501 C 0.37368 0.94192 0.66686 0.0
C1502 C 0.37408 0.97812 0.66405 0.0
C1503 C 0.40541 0.99616 0.66407 0.0
loop_
_geom_bond_atom_site_label_1
_geom_bond_atom_site_label_2
_geom_bond_distance
_geom_bond_site_symmetry_2
_ccdc_geom_bond_type
C0 O16 1.251 . S
C0 O18 1.254 . S
N1 C2 1.333 . S
N1 C6 1.307 . S
N1 Zn7 2.020 . S
C2 N1 1.333 . S
C2 C3 1.379 . S
C2 H20 0.952 . S
C3 C2 1.379 . S
C3 C4 1.390 . S
C3 H30 0.949 . S
C4 C3 1.390 . S
C4 C5 1.357 . S
C5 C4 1.357 . S
C5 C6 1.370 . S
C5 H31 0.950 . S
C6 N1 1.307 . S
C6 C5 1.370 . S
C6 H24 0.948 . S
Zn7 N1 2.020 . S
Zn7 O16 2.039 . S
Zn7 O22 2.034 . S
Zn7 O26 2.025 . S
Zn7 O28 2.024 . S
C8 O27 1.246 . S
C8 O28 1.249 . S
N9 C10 1.307 . S
N9 C11 1.333 . S
N9 Zn15 2.020 . S
C10 N9 1.307 . S
C10 C14 1.370 . S
C10 H21 0.948 . S
C11 N9 1.333 . S
C11 C12 1.379 . S
C11 H19 0.952 . S
C12 C11 1.379 . S
C12 C13 1.390 . S
C12 H32 0.949 . S
C13 C12 1.390 . S
C13 C14 1.357 . S
C14 C10 1.370 . S
C14 C13 1.357 . S
C14 H33 0.950 . S
Zn15 N9 2.020 . S
Zn15 O18 2.025 . S
Zn15 O23 2.024 . S
Zn15 O25 2.039 . S
Zn15 O27 2.034 . S
O16 C0 1.251 . S
O16 Zn7 2.039 . S
C17 O22 1.246 . S
C17 O23 1.249 . S
O18 C0 1.254 . S
O18 Zn15 2.025 . S
H19 C11 0.952 . S
H20 C2 0.952 . S
H21 C10 0.948 . S
O22 Zn7 2.034 . S
O22 C17 1.246 . S
O23 Zn15 2.024 . S
O23 C17 1.249 . S
H24 C6 0.948 . S
O25 Zn15 2.039 . S
O25 C29 1.251 . S
O26 Zn7 2.025 . S
O26 C29 1.254 . S
O27 C8 1.246 . S
O27 Zn15 2.034 . S
O28 Zn7 2.024 . S
O28 C8 1.249 . S
C29 O25 1.251 . S
C29 O26 1.254 . S
H30 C3 0.949 . S
H31 C5 0.950 . S
H32 C12 0.949 . S
H33 C14 0.950 . S
C34 O50 1.251 . S
C34 O52 1.254 . S
N35 C36 1.333 . S
N35 C40 1.307 . S
N35 Zn41 2.020 . S
C36 N35 1.333 . S
C36 C37 1.379 . S
C36 H54 0.952 . S
C37 C36 1.379 . S
C37 C38 1.390 . S
C37 H64 0.949 . S
C38 C37 1.390 . S
C38 C39 1.357 . S
C39 C38 1.357 . S
C39 C40 1.370 . S
C39 H65 0.950 . S
C40 N35 1.307 . S
C40 C39 1.370 . S
C40 H58 0.948 . S
Zn41 N35 2.020 . S
Zn41 O50 2.039 . S
Zn41 O56 2.034 . S
Zn41 O60 2.025 . S
Zn41 O62 2.024 . S
C42 O61 1.246 . S
C42 O62 1.249 . S
N43 C44 1.307 . S
N43 C45 1.333 . S
N43 Zn49 2.020 . S
C44 N43 1.307 . S
C44 C48 1.370 . S
C44 H55 0.948 . S
C45 N43 1.333 . S
C45 C46 1.379 . S
C45 H53 0.952 . S
C46 C45 1.379 . S
C46 C47 1.390 . S
C46 H66 0.949 . S
C47 C46 1.390 . S
C47 C48 1.357 . S
C48 C44 1.370 . S
C48 C47 1.357 . S
C48 H67 0.950 . S
Zn49 N43 2.020 . S
Zn49 O52 2.025 . S
Zn49 O57 2.024 . S
Zn49 O59 2.039 . S
Zn49 O61 2.034 . S
O50 C34 1.251 . S
O50 Zn41 2.039 . S
C51 O56 1.246 . S
C51 O57 1.249 . S
O52 C34 1.254 . S
O52 Zn49 2.025 . S
H53 C45 0.952 . S
H54 C36 0.952 . S
H55 C44 0.948 . S
O56 Zn41 2.034 . S
O56 C51 1.246 . S
O57 Zn49 2.024 . S
O57 C51 1.249 . S
H58 C40 0.948 . S
O59 Zn49 2.039 . S
O59 C63 1.251 . S
O60 Zn41 2.025 . S
O60 C63 1.254 . S
O61 C42 1.246 . S
O61 Zn49 2.034 . S
O62 Zn41 2.024 . S
O62 C42 1.249 . S
C63 O59 1.251 . S
C63 O60 1.254 . S
H64 C37 0.949 . S
H65 C39 0.950 . S
H66 C46 0.949 . S
H67 C48 0.950 . S
C68 O84 1.251 . S
C68 O86 1.254 . S
N69 C70 1.333 . S
N69 C74 1.307 . S
N69 Zn75 2.020 . S
C70 N69 1.333 . S
C70 C71 1.379 . S
C70 H88 0.952 . S
C71 C70 1.379 . S
C71 C72 1.390 . S
C71 H98 0.949 . S
C72 C71 1.390 . S
C72 C73 1.357 . S
C73 C72 1.357 . S
C73 C74 1.370 . S
C73 H99 0.950 . S
C74 N69 1.307 . S
C74 C73 1.370 . S
C74 H92 0.948 . S
Zn75 N69 2.020 . S
Zn75 O84 2.039 . S
Zn75 O90 2.034 . S
Zn75 O94 2.025 . S
Zn75 O96 2.024 . S
C76 O95 1.246 . S
C76 O96 1.249 . S
N77 C78 1.307 . S
N77 C79 1.333 . S
N77 Zn83 2.020 . S
C78 N77 1.307 . S
C78 C82 1.370 . S
C78 H89 0.948 . S
C79 N77 1.333 . S
C79 C80 1.379 . S
C79 H87 0.952 . S
C80 C79 1.379 . S
C80 C81 1.390 . S
C80 H100 0.949 . S
C81 C80 1.390 . S
C81 C82 1.357 . S
C82 C78 1.370 . S
C82 C81 1.357 . S
C82 H101 0.950 . S
Zn83 N77 2.020 . S
Zn83 O86 2.025 . S
Zn83 O91 2.024 . S
Zn83 O93 2.039 . S
Zn83 O95 2.034 . S
O84 C68 1.251 . S
O84 Zn75 2.039 . S
C85 O90 1.246 . S
C85 O91 1.249 . S
O86 C68 1.254 . S
O86 Zn83 2.025 . S
H87 C79 0.952 . S
H88 C70 0.952 . S
H89 C78 0.948 . S
O90 Zn75 2.034 . S
O90 C85 1.246 . S
O91 Zn83 2.024 . S
O91 C85 1.249 . S
H92 C74 0.948 . S
O93 Zn83 2.039 . S
O93 C97 1.251 . S
O94 Zn75 2.025 . S
O94 C97 1.254 . S
O95 C76 1.246 . S
O95 Zn83 2.034 . S
O96 Zn75 2.024 . S
O96 C76 1.249 . S
C97 O93 1.251 . S
C97 O94 1.254 . S
H98 C71 0.949 . S
H99 C73 0.950 . S
H100 C80 0.949 . S
H101 C82 0.950 . S
C102 O118 1.251 . S
C102 O120 1.254 . S
N103 C104 1.333 . S
N103 C108 1.307 1_655 S
N103 Zn109 2.020 . S
C104 N103 1.333 . S
C104 C105 1.379 1_655 S
C104 H122 0.952 . S
C105 C104 1.379 1_455 S
C105 C106 1.390 . S
C105 H132 0.949 . S
C106 C105 1.390 . S
C106 C107 1.357 . S
C107 C106 1.357 . S
C107 C108 1.370 . S
C107 H133 0.950 . S
C108 N103 1.307 1_455 S
C108 C107 1.370 . S
C108 H126 0.948 . S
Zn109 N103 2.020 . S
Zn109 O118 2.039 . S
Zn109 O124 2.034 . S
Zn109 O128 2.025 . S
Zn109 O130 2.024 . S
C110 O129 1.246 . S
C110 O130 1.249 . S
N111 C112 1.307 . S
N111 C113 1.333 . S
N111 Zn117 2.020 . S
C112 N111 1.307 . S
C112 C116 1.370 . S
C112 H123 0.948 . S
C113 N111 1.333 . S
C113 C114 1.379 . S
C113 H121 0.952 . S
C114 C113 1.379 . S
C114 C115 1.390 . S
C114 H134 0.949 . S
C115 C114 1.390 . S
C115 C116 1.357 . S
C116 C112 1.370 . S
C116 C115 1.357 . S
C116 H135 0.950 . S
Zn117 N111 2.020 . S
Zn117 O120 2.025 . S
Zn117 O125 2.024 . S
Zn117 O127 2.039 . S
Zn117 O129 2.034 . S
O118 C102 1.251 . S
O118 Zn109 2.039 . S
C119 O124 1.246 . S
C119 O125 1.249 . S
O120 C102 1.254 . S
O120 Zn117 2.025 . S
H121 C113 0.952 . S
H122 C104 0.952 . S
H123 C112 0.948 . S
O124 Zn109 2.034 . S
O124 C119 1.246 . S
O125 Zn117 2.024 . S
O125 C119 1.249 . S
H126 C108 0.948 . S
O127 Zn117 2.039 . S
O127 C131 1.251 . S
O128 Zn109 2.025 . S
O128 C131 1.254 . S
O129 C110 1.246 . S
O129 Zn117 2.034 . S
O130 Zn109 2.024 . S
O130 C110 1.249 . S
C131 O127 1.251 . S
C131 O128 1.254 . S
H132 C105 0.949 . S
H133 C107 0.950 . S
H134 C114 0.949 . S
H135 C116 0.950 . S
C136 O152 1.251 . S
C136 O154 1.254 . S
N137 C138 1.333 . S
N137 C142 1.307 . S
N137 Zn143 2.020 . S
C138 N137 1.333 . S
C138 C139 1.379 . S
C138 H156 0.952 . S
C139 C138 1.379 . S
C139 C140 1.390 . S
C139 H166 0.949 . S
C140 C139 1.390 . S
C140 C141 1.357 . S
C141 C140 1.357 . S
C141 C142 1.370 . S
C141 H167 0.950 . S
C142 N137 1.307 . S
C142 C141 1.370 . S
C142 H160 0.948 . S
Zn143 N137 2.020 . S
Zn143 O152 2.039 . S
Zn143 O158 2.034 . S
Zn143 O162 2.025 . S
Zn143 O164 2.024 . S
C144 O163 1.246 . S
C144 O164 1.249 . S
N145 C146 1.307 . S
N145 C147 1.333 . S
N145 Zn151 2.020 . S
C146 N145 1.307 . S
C146 C150 1.370 . S
C146 H157 0.948 . S
C147 N145 1.333 . S
C147 C148 1.379 . S
C147 H155 0.952 . S
C148 C147 1.379 . S
C148 C149 1.390 . S
C148 H168 0.949 . S
C149 C148 1.390 . S
C149 C150 1.357 . S
C150 C146 1.370 . S
C150 C149 1.357 . S
C150 H169 0.950 . S
Zn151 N145 2.020 . S
Zn151 O154 2.025 . S
Zn151 O159 2.024 . S
Zn151 O161 2.039 . S
Zn151 O163 2.034 . S
O152 C136 1.251 . S
O152 Zn143 2.039 . S
C153 O158 1.246 . S
C153 O159 1.249 . S
O154 C136 1.254 . S
O154 Zn151 2.025 . S
H155 C147 0.952 . S
H156 C138 0.952 . S
H157 C146 0.948 . S
O158 Zn143 2.034 . S
O158 C153 1.246 . S
O159 Zn151 2.024 . S
O159 C153 1.249 . S
H160 C142 0.948 . S
O161 Zn151 2.039 . S
O161 C165 1.251 . S
O162 Zn143 2.025 . S
O162 C165 1.254 . S
O163 C144 1.246 . S
O163 Zn151 2.034 . S
O164 Zn143 2.024 . S
O164 C144 1.249 . S
C165 O161 1.251 . S
C165 O162 1.254 . S
H166 C139 0.949 . S
H167 C141 0.950 . S
H168 C148 0.949 . S
H169 C150 0.950 . S
C170 O186 1.251 . S
C170 O188 1.254 . S
N171 C172 1.333 . S
N171 C176 1.307 . S
N171 Zn177 2.020 . S
C172 N171 1.333 . S
C172 C173 1.379 . S
C172 H190 0.952 . S
C173 C172 1.379 . S
C173 C174 1.390 . S
C173 H200 0.949 . S
C174 C173 1.390 . S
C174 C175 1.357 . S
C175 C174 1.357 . S
C175 C176 1.370 . S
C175 H201 0.950 . S
C176 N171 1.307 . S
C176 C175 1.370 . S
C176 H194 0.948 . S
Zn177 N171 2.020 . S
Zn177 O186 2.039 . S
Zn177 O192 2.034 . S
Zn177 O196 2.025 . S
Zn177 O198 2.024 . S
C178 O197 1.246 . S
C178 O198 1.249 . S
N179 C180 1.307 . S
N179 C181 1.333 . S
N179 Zn185 2.020 . S
C180 N179 1.307 . S
C180 C184 1.370 . S
C180 H191 0.948 . S
C181 N179 1.333 . S
C181 C182 1.379 . S
C181 H189 0.952 . S
C182 C181 1.379 . S
C182 C183 1.390 . S
C182 H202 0.949 . S
C183 C182 1.390 . S
C183 C184 1.357 . S
C184 C180 1.370 . S
C184 C183 1.357 . S
C184 H203 0.950 . S
Zn185 N179 2.020 . S
Zn185 O188 2.025 . S
Zn185 O193 2.024 . S
Zn185 O195 2.039 . S
Zn185 O197 2.034 . S
O186 C170 1.251 . S
O186 Zn177 2.039 . S
C187 O192 1.246 . S
C187 O193 1.249 . S
O188 C170 1.254 . S
O188 Zn185 2.025 . S
H189 C181 0.952 . S
H190 C172 0.952 . S
H191 C180 0.948 . S
O192 Zn177 2.034 . S
O192 C187 1.246 . S
O193 Zn185 2.024 . S
O193 C187 1.249 . S
H194 C176 0.948 . S
O195 Zn185 2.039 . S
O195 C199 1.251 . S
O196 Zn177 2.025 . S
O196 C199 1.254 . S
O197 C178 1.246 . S
O197 Zn185 2.034 . S
O198 Zn177 2.024 . S
O198 C178 1.249 . S
C199 O195 1.251 . S
C199 O196 1.254 . S
H200 C173 0.949 . S
H201 C175 0.950 . S
H202 C182 0.949 . S
H203 C184 0.950 . S
C204 O220 1.251 . S
C204 O222 1.254 . S
N205 C206 1.333 . S
N205 C210 1.307 . S
N205 Zn211 2.020 . S
C206 N205 1.333 . S
C206 C207 1.379 . S
C206 H224 0.952 . S
C207 C206 1.379 . S
C207 C208 1.390 . S
C207 H234 0.949 . S
C208 C207 1.390 . S
C208 C209 1.357 . S
C209 C208 1.357 . S
C209 C210 1.370 . S
C209 H235 0.950 . S
C210 N205 1.307 . S
C210 C209 1.370 . S
C210 H228 0.948 . S
Zn211 N205 2.020 . S
Zn211 O220 2.039 . S
Zn211 O226 2.034 . S
Zn211 O230 2.025 . S
Zn211 O232 2.024 . S
C212 O231 1.246 . S
C212 O232 1.249 . S
N213 C214 1.307 . S
N213 C215 1.333 . S
N213 Zn219 2.020 . S
C214 N213 1.307 . S
C214 C218 1.370 . S
C214 H225 0.948 . S
C215 N213 1.333 . S
C215 C216 1.379 . S
C215 H223 0.952 . S
C216 C215 1.379 . S
C216 C217 1.390 . S
C216 H236 0.949 . S
C217 C216 1.390 . S
C217 C218 1.357 . S
C218 C214 1.370 . S
C218 C217 1.357 . S
C218 H237 0.950 . S
Zn219 N213 2.020 . S
Zn219 O222 2.025 . S
Zn219 O227 2.024 . S
Zn219 O229 2.039 . S
Zn219 O231 2.034 . S
O220 C204 1.251 . S
O220 Zn211 2.039 . S
C221 O226 1.246 . S
C221 O227 1.249 . S
O222 C204 1.254 . S
O222 Zn219 2.025 . S
H223 C215 0.952 . S
H224 C206 0.952 . S
H225 C214 0.948 . S
O226 Zn211 2.034 . S
O226 C221 1.246 . S
O227 Zn219 2.024 . S
O227 C221 1.249 . S
H228 C210 0.948 . S
O229 Zn219 2.039 . S
O229 C233 1.251 . S
O230 Zn211 2.025 . S
O230 C233 1.254 . S
O231 C212 1.246 . S
O231 Zn219 2.034 . S
O232 Zn211 2.024 . S
O232 C212 1.249 . S
C233 O229 1.251 . S
C233 O230 1.254 . S
H234 C207 0.949 . S
H235 C209 0.950 . S
H236 C216 0.949 . S
H237 C218 0.950 . S
C238 O254 1.251 . S
C238 O256 1.254 . S
N239 C240 1.333 . S
N239 C244 1.307 . S
N239 Zn245 2.020 . S
C240 N239 1.333 . S
C240 C241 1.379 . S
C240 H258 0.952 . S
C241 C240 1.379 . S
C241 C242 1.390 . S
C241 H268 0.949 . S
C242 C241 1.390 . S
C242 C243 1.357 . S
C243 C242 1.357 . S
C243 C244 1.370 . S
C243 H269 0.950 . S
C244 N239 1.307 . S
C244 C243 1.370 . S
C244 H262 0.948 . S
Zn245 N239 2.020 . S
Zn245 O254 2.039 . S
Zn245 O260 2.034 . S
Zn245 O264 2.025 . S
Zn245 O266 2.024 . S
C246 O265 1.246 . S
C246 O266 1.249 . S
N247 C248 1.307 1_455 S
N247 C249 1.333 . S
N247 Zn253 2.020 . S
C248 N247 1.307 1_655 S
C248 C252 1.370 . S
C248 H259 0.948 . S
C249 N247 1.333 . S
C249 C250 1.379 1_455 S
C249 H257 0.952 . S
C250 C249 1.379 1_655 S
C250 C251 1.390 . S
C250 H270 0.949 . S
C251 C250 1.390 . S
C251 C252 1.357 . S
C252 C248 1.370 . S
C252 C251 1.357 . S
C252 H271 0.950 . S
Zn253 N247 2.020 . S
Zn253 O256 2.025 . S
Zn253 O261 2.024 . S
Zn253 O263 2.039 . S
Zn253 O265 2.034 . S
O254 C238 1.251 . S
O254 Zn245 2.039 . S
C255 O260 1.246 . S
C255 O261 1.249 . S
O256 C238 1.254 . S
O256 Zn253 2.025 . S
H257 C249 0.952 . S
H258 C240 0.952 . S
H259 C248 0.948 . S
O260 Zn245 2.034 . S
O260 C255 1.246 . S
O261 Zn253 2.024 . S
O261 C255 1.249 . S
H262 C244 0.948 . S
O263 Zn253 2.039 . S
O263 C267 1.251 . S
O264 Zn245 2.025 . S
O264 C267 1.254 . S
O265 C246 1.246 . S
O265 Zn253 2.034 . S
O266 Zn245 2.024 . S
O266 C246 1.249 . S
C267 O263 1.251 . S
C267 O264 1.254 . S
H268 C241 0.949 . S
H269 C243 0.950 . S
H270 C250 0.949 . S
H271 C252 0.950 . S
C272 O288 1.251 . S
C272 O290 1.254 . S
N273 C274 1.333 . S
N273 C278 1.307 . S
N273 Zn279 2.020 . S
C274 N273 1.333 . S
C274 C275 1.379 . S
C274 H292 0.952 . S
C275 C274 1.379 . S
C275 C276 1.390 . S
C275 H302 0.949 . S
C276 C275 1.390 . S
C276 C277 1.357 . S
C277 C276 1.357 . S
C277 C278 1.370 . S
C277 H303 0.950 . S
C278 N273 1.307 . S
C278 C277 1.370 . S
C278 H296 0.948 . S
Zn279 N273 2.020 . S
Zn279 O288 2.039 . S
Zn279 O294 2.034 . S
Zn279 O298 2.025 . S
Zn279 O300 2.024 . S
C280 O299 1.246 . S
C280 O300 1.249 . S
N281 C282 1.307 . S
N281 C283 1.333 . S
N281 Zn287 2.020 . S
C282 N281 1.307 . S
C282 C286 1.370 . S
C282 H293 0.948 . S
C283 N281 1.333 . S
C283 C284 1.379 . S
C283 H291 0.952 . S
C284 C283 1.379 . S
C284 C285 1.390 . S
C284 H304 0.949 . S
C285 C284 1.390 . S
C285 C286 1.357 . S
C286 C282 1.370 . S
C286 C285 1.357 . S
C286 H305 0.950 . S
Zn287 N281 2.020 . S
Zn287 O290 2.025 . S
Zn287 O295 2.024 . S
Zn287 O297 2.039 . S
Zn287 O299 2.034 . S
O288 C272 1.251 . S
O288 Zn279 2.039 . S
C289 O294 1.246 . S
C289 O295 1.249 . S
O290 C272 1.254 . S
O290 Zn287 2.025 . S
H291 C283 0.952 . S
H292 C274 0.952 . S
H293 C282 0.948 . S
O294 Zn279 2.034 . S
O294 C289 1.246 . S
O295 Zn287 2.024 . S
O295 C289 1.249 . S
H296 C278 0.948 . S
O297 Zn287 2.039 . S
O297 C301 1.251 . S
O298 Zn279 2.025 . S
O298 C301 1.254 . S
O299 C280 1.246 . S
O299 Zn287 2.034 . S
O300 Zn279 2.024 . S
O300 C280 1.249 . S
C301 O297 1.251 . S
C301 O298 1.254 . S
H302 C275 0.949 . S
H303 C277 0.950 . S
H304 C284 0.949 . S
H305 C286 0.950 . S
C306 O322 1.251 . S
C306 O324 1.254 . S
N307 C308 1.333 . S
N307 C312 1.307 1_455 S
N307 Zn313 2.020 . S
C308 N307 1.333 . S
C308 C309 1.379 1_455 S
C308 H326 0.952 . S
C309 C308 1.379 1_655 S
C309 C310 1.390 1_545 S
C309 H336 0.949 . S
C310 C309 1.390 1_565 S
C310 C311 1.357 . S
C311 C310 1.357 . S
C311 C312 1.370 1_565 S
C311 H337 0.950 . S
C312 N307 1.307 1_655 S
C312 C311 1.370 1_545 S
C312 H330 0.948 1_545 S
Zn313 N307 2.020 . S
Zn313 O322 2.039 . S
Zn313 O328 2.034 . S
Zn313 O332 2.025 . S
Zn313 O334 2.024 . S
C314 O333 1.246 . S
C314 O334 1.249 . S
N315 C316 1.307 . S
N315 C317 1.333 . S
N315 Zn321 2.020 . S
C316 N315 1.307 . S
C316 C320 1.370 . S
C316 H327 0.948 . S
C317 N315 1.333 . S
C317 C318 1.379 . S
C317 H325 0.952 . S
C318 C317 1.379 . S
C318 C319 1.390 . S
C318 H338 0.949 . S
C319 C318 1.390 . S
C319 C320 1.357 . S
C320 C316 1.370 . S
C320 C319 1.357 . S
C320 H339 0.950 . S
Zn321 N315 2.020 . S
Zn321 O324 2.025 . S
Zn321 O329 2.024 . S
Zn321 O331 2.039 . S
Zn321 O333 2.034 . S
O322 C306 1.251 . S
O322 Zn313 2.039 . S
C323 O328 1.246 . S
C323 O329 1.249 . S
O324 C306 1.254 . S
O324 Zn321 2.025 . S
H325 C317 0.952 . S
H326 C308 0.952 . S
H327 C316 0.948 . S
O328 Zn313 2.034 . S
O328 C323 1.246 . S
O329 Zn321 2.024 . S
O329 C323 1.249 . S
H330 C312 0.948 1_565 S
O331 Zn321 2.039 . S
O331 C335 1.251 . S
O332 Zn313 2.025 . S
O332 C335 1.254 . S
O333 C314 1.246 . S
O333 Zn321 2.034 . S
O334 Zn313 2.024 . S
O334 C314 1.249 . S
C335 O331 1.251 . S
C335 O332 1.254 . S
H336 C309 0.949 . S
H337 C311 0.950 . S
H338 C318 0.949 . S
H339 C320 0.950 . S
C340 O356 1.251 . S
C340 O358 1.254 . S
N341 C342 1.333 . S
N341 C346 1.307 . S
N341 Zn347 2.020 . S
C342 N341 1.333 . S
C342 C343 1.379 . S
C342 H360 0.952 . S
C343 C342 1.379 . S
C343 C344 1.390 . S
C343 H370 0.949 . S
C344 C343 1.390 . S
C344 C345 1.357 . S
C345 C344 1.357 . S
C345 C346 1.370 . S
C345 H371 0.950 . S
C346 N341 1.307 . S
C346 C345 1.370 . S
C346 H364 0.948 . S
Zn347 N341 2.020 . S
Zn347 O356 2.039 . S
Zn347 O362 2.034 . S
Zn347 O366 2.025 . S
Zn347 O368 2.024 . S
C348 O367 1.246 . S
C348 O368 1.249 . S
N349 C350 1.307 . S
N349 C351 1.333 . S
N349 Zn355 2.020 . S
C350 N349 1.307 . S
C350 C354 1.370 . S
C350 H361 0.948 . S
C351 N349 1.333 . S
C351 C352 1.379 . S
C351 H359 0.952 . S
C352 C351 1.379 . S
C352 C353 1.390 . S
C352 H372 0.949 . S
C353 C352 1.390 . S
C353 C354 1.357 . S
C354 C350 1.370 . S
C354 C353 1.357 . S
C354 H373 0.950 . S
Zn355 N349 2.020 . S
Zn355 O358 2.025 . S
Zn355 O363 2.024 . S
Zn355 O365 2.039 . S
Zn355 O367 2.034 . S
O356 C340 1.251 . S
O356 Zn347 2.039 . S
C357 O362 1.246 . S
C357 O363 1.249 . S
O358 C340 1.254 . S
O358 Zn355 2.025 . S
H359 C351 0.952 . S
H360 C342 0.952 . S
H361 C350 0.948 . S
O362 Zn347 2.034 . S
O362 C357 1.246 . S
O363 Zn355 2.024 . S
O363 C357 1.249 . S
H364 C346 0.948 . S
O365 Zn355 2.039 . S
O365 C369 1.251 . S
O366 Zn347 2.025 . S
O366 C369 1.254 . S
O367 C348 1.246 . S
O367 Zn355 2.034 . S
O368 Zn347 2.024 . S
O368 C348 1.249 . S
C369 O365 1.251 . S
C369 O366 1.254 . S
H370 C343 0.949 . S
H371 C345 0.950 . S
H372 C352 0.949 . S
H373 C354 0.950 . S
C374 O390 1.251 . S
C374 O392 1.254 . S
N375 C376 1.333 . S
N375 C380 1.307 . S
N375 Zn381 2.020 . S
C376 N375 1.333 . S
C376 C377 1.379 . S
C376 H394 0.952 . S
C377 C376 1.379 . S
C377 C378 1.390 1_565 S
C377 H404 0.949 . S
C378 C377 1.390 1_545 S
C378 C379 1.357 . S
C379 C378 1.357 . S
C379 C380 1.370 1_545 S
C379 H405 0.950 . S
C380 N375 1.307 . S
C380 C379 1.370 1_565 S
C380 H398 0.948 1_565 S
Zn381 N375 2.020 . S
Zn381 O390 2.039 . S
Zn381 O396 2.034 . S
Zn381 O400 2.025 . S
Zn381 O402 2.024 . S
C382 O401 1.246 . S
C382 O402 1.249 . S
N383 C384 1.307 . S
N383 C385 1.333 . S
N383 Zn389 2.020 . S
C384 N383 1.307 . S
C384 C388 1.370 . S
C384 H395 0.948 . S
C385 N383 1.333 . S
C385 C386 1.379 . S
C385 H393 0.952 . S
C386 C385 1.379 . S
C386 C387 1.390 . S
C386 H406 0.949 . S
C387 C386 1.390 . S
C387 C388 1.357 . S
C388 C384 1.370 . S
C388 C387 1.357 . S
C388 H407 0.950 . S
Zn389 N383 2.020 . S
Zn389 O392 2.025 . S
Zn389 O397 2.024 . S
Zn389 O399 2.039 . S
Zn389 O401 2.034 . S
O390 C374 1.251 . S
O390 Zn381 2.039 . S
C391 O396 1.246 . S
C391 O397 1.249 . S
O392 C374 1.254 . S
O392 Zn389 2.025 . S
H393 C385 0.952 . S
H394 C376 0.952 . S
H395 C384 0.948 . S
O396 Zn381 2.034 . S
O396 C391 1.246 . S
O397 Zn389 2.024 . S
O397 C391 1.249 . S
H398 C380 0.948 1_545 S
O399 Zn389 2.039 . S
O399 C403 1.251 . S
O400 Zn381 2.025 . S
O400 C403 1.254 . S
O401 C382 1.246 . S
O401 Zn389 2.034 . S
O402 Zn381 2.024 . S
O402 C382 1.249 . S
C403 O399 1.251 . S
C403 O400 1.254 . S
H404 C377 0.949 . S
H405 C379 0.950 . S
H406 C386 0.949 . S
H407 C388 0.950 . S
C408 O424 1.251 . S
C408 O426 1.254 . S
N409 C410 1.333 . S
N409 C414 1.307 . S
N409 Zn415 2.020 . S
C410 N409 1.333 . S
C410 C411 1.379 . S
C410 H428 0.952 . S
C411 C410 1.379 . S
C411 C412 1.390 . S
C411 H438 0.949 . S
C412 C411 1.390 . S
C412 C413 1.357 . S
C413 C412 1.357 . S
C413 C414 1.370 . S
C413 H439 0.950 . S
C414 N409 1.307 . S
C414 C413 1.370 . S
C414 H432 0.948 . S
Zn415 N409 2.020 . S
Zn415 O424 2.039 . S
Zn415 O430 2.034 . S
Zn415 O434 2.025 . S
Zn415 O436 2.024 . S
C416 O435 1.246 . S
C416 O436 1.249 . S
N417 C418 1.307 . S
N417 C419 1.333 . S
N417 Zn423 2.020 . S
C418 N417 1.307 . S
C418 C422 1.370 . S
C418 H429 0.948 . S
C419 N417 1.333 . S
C419 C420 1.379 . S
C419 H427 0.952 . S
C420 C419 1.379 . S
C420 C421 1.390 . S
C420 H440 0.949 . S
C421 C420 1.390 . S
C421 C422 1.357 . S
C422 C418 1.370 . S
C422 C421 1.357 . S
C422 H441 0.950 . S
Zn423 N417 2.020 . S
Zn423 O426 2.025 . S
Zn423 O431 2.024 . S
Zn423 O433 2.039 . S
Zn423 O435 2.034 . S
O424 C408 1.251 . S
O424 Zn415 2.039 . S
C425 O430 1.246 . S
C425 O431 1.249 . S
O426 C408 1.254 . S
O426 Zn423 2.025 . S
H427 C419 0.952 . S
H428 C410 0.952 . S
H429 C418 0.948 . S
O430 Zn415 2.034 . S
O430 C425 1.246 . S
O431 Zn423 2.024 . S
O431 C425 1.249 . S
H432 C414 0.948 . S
O433 Zn423 2.039 . S
O433 C437 1.251 . S
O434 Zn415 2.025 . S
O434 C437 1.254 . S
O435 C416 1.246 . S
O435 Zn423 2.034 . S
O436 Zn415 2.024 . S
O436 C416 1.249 . S
C437 O433 1.251 . S
C437 O434 1.254 . S
H438 C411 0.949 . S
H439 C413 0.950 . S
H440 C420 0.949 . S
H441 C422 0.950 . S
C442 O458 1.251 . S
C442 O460 1.254 . S
N443 C444 1.333 . S
N443 C448 1.307 . S
N443 Zn449 2.020 . S
C444 N443 1.333 . S
C444 C445 1.379 . S
C444 H462 0.952 . S
C445 C444 1.379 . S
C445 C446 1.390 . S
C445 H472 0.949 . S
C446 C445 1.390 . S
C446 C447 1.357 . S
C447 C446 1.357 . S
C447 C448 1.370 . S
C447 H473 0.950 . S
C448 N443 1.307 . S
C448 C447 1.370 . S
C448 H466 0.948 . S
Zn449 N443 2.020 . S
Zn449 O458 2.039 . S
Zn449 O464 2.034 . S
Zn449 O468 2.025 . S
Zn449 O470 2.024 . S
C450 O469 1.246 . S
C450 O470 1.249 . S
N451 C452 1.307 1_655 S
N451 C453 1.333 . S
N451 Zn457 2.020 . S
C452 N451 1.307 1_455 S
C452 C456 1.370 1_565 S
C452 H463 0.948 1_565 S
C453 N451 1.333 . S
C453 C454 1.379 1_655 S
C453 H461 0.952 . S
C454 C453 1.379 1_455 S
C454 C455 1.390 1_565 S
C454 H474 0.949 . S
C455 C454 1.390 1_545 S
C455 C456 1.357 . S
C456 C452 1.370 1_545 S
C456 C455 1.357 . S
C456 H475 0.950 . S
Zn457 N451 2.020 . S
Zn457 O460 2.025 . S
Zn457 O465 2.024 . S
Zn457 O467 2.039 . S
Zn457 O469 2.034 . S
O458 C442 1.251 . S
O458 Zn449 2.039 . S
C459 O464 1.246 . S
C459 O465 1.249 . S
O460 C442 1.254 . S
O460 Zn457 2.025 . S
H461 C453 0.952 . S
H462 C444 0.952 . S
H463 C452 0.948 1_545 S
O464 Zn449 2.034 . S
O464 C459 1.246 . S
O465 Zn457 2.024 . S
O465 C459 1.249 . S
H466 C448 0.948 . S
O467 Zn457 2.039 . S
O467 C471 1.251 . S
O468 Zn449 2.025 . S
O468 C471 1.254 . S
O469 C450 1.246 . S
O469 Zn457 2.034 . S
O470 Zn449 2.024 . S
O470 C450 1.249 . S
C471 O467 1.251 . S
C471 O468 1.254 . S
H472 C445 0.949 . S
H473 C447 0.950 . S
H474 C454 0.949 . S
H475 C456 0.950 . S
C476 O492 1.251 . S
C476 O494 1.254 . S
N477 C478 1.333 . S
N477 C482 1.307 . S
N477 Zn483 2.020 . S
C478 N477 1.333 . S
C478 C479 1.379 . S
C478 H496 0.952 . S
C479 C478 1.379 . S
C479 C480 1.390 . S
C479 H506 0.949 . S
C480 C479 1.390 . S
C480 C481 1.357 . S
C481 C480 1.357 . S
C481 C482 1.370 . S
C481 H507 0.950 . S
C482 N477 1.307 . S
C482 C481 1.370 . S
C482 H500 0.948 . S
Zn483 N477 2.020 . S
Zn483 O492 2.039 . S
Zn483 O498 2.034 . S
Zn483 O502 2.025 . S
Zn483 O504 2.024 . S
C484 O503 1.246 . S
C484 O504 1.249 . S
N485 C486 1.307 . S
N485 C487 1.333 . S
N485 Zn491 2.020 . S
C486 N485 1.307 . S
C486 C490 1.370 . S
C486 H497 0.948 . S
C487 N485 1.333 . S
C487 C488 1.379 . S
C487 H495 0.952 . S
C488 C487 1.379 . S
C488 C489 1.390 . S
C488 H508 0.949 . S
C489 C488 1.390 . S
C489 C490 1.357 . S
C490 C486 1.370 . S
C490 C489 1.357 . S
C490 H509 0.950 . S
Zn491 N485 2.020 . S
Zn491 O494 2.025 . S
Zn491 O499 2.024 . S
Zn491 O501 2.039 . S
Zn491 O503 2.034 . S
O492 C476 1.251 . S
O492 Zn483 2.039 . S
C493 O498 1.246 . S
C493 O499 1.249 . S
O494 C476 1.254 . S
O494 Zn491 2.025 . S
H495 C487 0.952 . S
H496 C478 0.952 . S
H497 C486 0.948 . S
O498 Zn483 2.034 . S
O498 C493 1.246 . S
O499 Zn491 2.024 . S
O499 C493 1.249 . S
H500 C482 0.948 . S
O501 Zn491 2.039 . S
O501 C505 1.251 . S
O502 Zn483 2.025 . S
O502 C505 1.254 . S
O503 C484 1.246 . S
O503 Zn491 2.034 . S
O504 Zn483 2.024 . S
O504 C484 1.249 . S
C505 O501 1.251 . S
C505 O502 1.254 . S
H506 C479 0.949 . S
H507 C481 0.950 . S
H508 C488 0.949 . S
H509 C490 0.950 . S
C510 O526 1.251 . S
C510 O528 1.254 . S
N511 C512 1.333 . S
N511 C516 1.307 . S
N511 Zn517 2.020 . S
C512 N511 1.333 . S
C512 C513 1.379 . S
C512 H530 0.952 . S
C513 C512 1.379 . S
C513 C514 1.390 . S
C513 H540 0.949 . S
C514 C513 1.390 . S
C514 C515 1.357 . S
C515 C514 1.357 . S
C515 C516 1.370 . S
C515 H541 0.950 . S
C516 N511 1.307 . S
C516 C515 1.370 . S
C516 H534 0.948 . S
Zn517 N511 2.020 . S
Zn517 O526 2.039 . S
Zn517 O532 2.034 . S
Zn517 O536 2.025 . S
Zn517 O538 2.024 . S
C518 O537 1.246 . S
C518 O538 1.249 . S
N519 C520 1.307 . S
N519 C521 1.333 . S
N519 Zn525 2.020 . S
C520 N519 1.307 . S
C520 C524 1.370 1_545 S
C520 H531 0.948 1_545 S
C521 N519 1.333 . S
C521 C522 1.379 . S
C521 H529 0.952 . S
C522 C521 1.379 . S
C522 C523 1.390 1_545 S
C522 H542 0.949 . S
C523 C522 1.390 1_565 S
C523 C524 1.357 . S
C524 C520 1.370 1_565 S
C524 C523 1.357 . S
C524 H543 0.950 . S
Zn525 N519 2.020 . S
Zn525 O528 2.025 . S
Zn525 O533 2.024 . S
Zn525 O535 2.039 . S
Zn525 O537 2.034 . S
O526 C510 1.251 . S
O526 Zn517 2.039 . S
C527 O532 1.246 . S
C527 O533 1.249 . S
O528 C510 1.254 . S
O528 Zn525 2.025 . S
H529 C521 0.952 . S
H530 C512 0.952 . S
H531 C520 0.948 1_565 S
O532 Zn517 2.034 . S
O532 C527 1.246 . S
O533 Zn525 2.024 . S
O533 C527 1.249 . S
H534 C516 0.948 . S
O535 Zn525 2.039 . S
O535 C539 1.251 . S
O536 Zn517 2.025 . S
O536 C539 1.254 . S
O537 C518 1.246 . S
O537 Zn525 2.034 . S
O538 Zn517 2.024 . S
O538 C518 1.249 . S
C539 O535 1.251 . S
C539 O536 1.254 . S
H540 C513 0.949 . S
H541 C515 0.950 . S
H542 C522 0.949 . S
H543 C524 0.950 . S
H544 C552 0.950 . S
H545 C557 0.950 . S
H546 C554 0.950 . S
H547 C556 0.950 . S
H548 C558 0.950 . S
H549 C560 0.950 . S
H550 C562 0.950 . S
H551 C563 0.950 . S
C552 H544 0.950 . S
C552 C553 1.386 . S
C552 C554 1.391 . S
C553 C552 1.386 . S
C553 C557 1.393 . S
C554 H546 0.950 . S
C554 C552 1.391 . S
C554 C555 1.400 . S
C555 C554 1.400 . S
C555 C556 1.398 . S
C555 C561 1.491 . S
C556 H547 0.950 . S
C556 C555 1.398 . S
C556 C557 1.391 . S
C557 H545 0.950 . S
C557 C553 1.393 . S
C557 C556 1.391 . S
C558 H548 0.950 . S
C558 C559 1.386 . S
C558 C560 1.391 . S
C559 C558 1.386 . S
C559 C563 1.393 . S
C560 H549 0.950 . S
C560 C558 1.391 . S
C560 C561 1.400 . S
C561 C555 1.491 . S
C561 C560 1.400 . S
C561 C562 1.398 . S
C562 H550 0.950 . S
C562 C561 1.398 . S
C562 C563 1.391 . S
C563 H551 0.950 . S
C563 C559 1.393 . S
C563 C562 1.391 . S
H564 C572 0.950 . S
H565 C577 0.950 . S
H566 C574 0.950 . S
H567 C576 0.950 . S
H568 C578 0.950 . S
H569 C580 0.950 . S
H570 C582 0.950 . S
H571 C583 0.950 . S
C572 H564 0.950 . S
C572 C573 1.386 . S
C572 C574 1.391 . S
C573 C572 1.386 . S
C573 C577 1.393 . S
C574 H566 0.950 . S
C574 C572 1.391 . S
C574 C575 1.400 . S
C575 C574 1.400 . S
C575 C576 1.398 . S
C575 C581 1.491 . S
C576 H567 0.950 . S
C576 C575 1.398 . S
C576 C577 1.391 . S
C577 H565 0.950 . S
C577 C573 1.393 . S
C577 C576 1.391 . S
C578 H568 0.950 . S
C578 C579 1.386 . S
C578 C580 1.391 . S
C579 C578 1.386 . S
C579 C583 1.393 . S
C580 H569 0.950 . S
C580 C578 1.391 . S
C580 C581 1.400 . S
C581 C575 1.491 . S
C581 C580 1.400 . S
C581 C582 1.398 . S
C582 H570 0.950 . S
C582 C581 1.398 . S
C582 C583 1.391 . S
C583 H571 0.950 . S
C583 C579 1.393 . S
C583 C582 1.391 . S
H584 C592 0.950 . S
H585 C597 0.950 . S
H586 C594 0.950 . S
H587 C596 0.950 . S
H588 C598 0.950 . S
H589 C600 0.950 . S
H590 C602 0.950 . S
H591 C603 0.950 . S
C592 H584 0.950 . S
C592 C593 1.386 . S
C592 C594 1.391 . S
C593 C592 1.386 . S
C593 C597 1.393 . S
C594 H586 0.950 . S
C594 C592 1.391 . S
C594 C595 1.400 . S
C595 C594 1.400 . S
C595 C596 1.398 . S
C595 C601 1.491 . S
C596 H587 0.950 . S
C596 C595 1.398 . S
C596 C597 1.391 . S
C597 H585 0.950 . S
C597 C593 1.393 . S
C597 C596 1.391 . S
C598 H588 0.950 . S
C598 C599 1.386 . S
C598 C600 1.391 . S
C599 C598 1.386 . S
C599 C603 1.393 . S
C600 H589 0.950 . S
C600 C598 1.391 . S
C600 C601 1.400 . S
C601 C595 1.491 . S
C601 C600 1.400 . S
C601 C602 1.398 . S
C602 H590 0.950 . S
C602 C601 1.398 . S
C602 C603 1.391 . S
C603 H591 0.950 . S
C603 C599 1.393 . S
C603 C602 1.391 . S
H604 C612 0.950 . S
H605 C617 0.950 1_455 S
H606 C614 0.950 1_554 S
H607 C616 0.950 . S
H608 C618 0.950 . S
H609 C620 0.950 1_556 S
H610 C622 0.950 . S
H611 C623 0.950 1_655 S
C612 H604 0.950 . S
C612 C613 1.386 . S
C612 C614 1.391 . S
C613 C612 1.386 . S
C613 C617 1.393 . S
C614 H606 0.950 1_556 S
C614 C612 1.391 . S
C614 C615 1.400 . S
C615 C614 1.400 . S
C615 C616 1.398 1_655 S
C615 C621 1.491 1_656 S
C616 H607 0.950 . S
C616 C615 1.398 1_455 S
C616 C617 1.391 1_455 S
C617 H605 0.950 1_655 S
C617 C613 1.393 . S
C617 C616 1.391 1_655 S
C618 H608 0.950 . S
C618 C619 1.386 . S
C618 C620 1.391 . S
C619 C618 1.386 . S
C619 C623 1.393 . S
C620 H609 0.950 1_554 S
C620 C618 1.391 . S
C620 C621 1.400 . S
C621 C615 1.491 1_454 S
C621 C620 1.400 . S
C621 C622 1.398 1_455 S
C622 H610 0.950 . S
C622 C621 1.398 1_655 S
C622 C623 1.391 1_655 S
C623 H611 0.950 1_455 S
C623 C619 1.393 . S
C623 C622 1.391 1_455 S
H624 C632 0.950 . S
H625 C637 0.950 . S
H626 C634 0.950 . S
H627 C636 0.950 . S
H628 C638 0.950 . S
H629 C640 0.950 . S
H630 C642 0.950 . S
H631 C643 0.950 . S
C632 H624 0.950 . S
C632 C633 1.386 . S
C632 C634 1.391 . S
C633 C632 1.386 . S
C633 C637 1.393 . S
C634 H626 0.950 . S
C634 C632 1.391 . S
C634 C635 1.400 . S
C635 C634 1.400 . S
C635 C636 1.398 . S
C635 C641 1.491 . S
C636 H627 0.950 . S
C636 C635 1.398 . S
C636 C637 1.391 . S
C637 H625 0.950 . S
C637 C633 1.393 . S
C637 C636 1.391 . S
C638 H628 0.950 . S
C638 C639 1.386 . S
C638 C640 1.391 . S
C639 C638 1.386 . S
C639 C643 1.393 . S
C640 H629 0.950 . S
C640 C638 1.391 . S
C640 C641 1.400 . S
C641 C635 1.491 . S
C641 C640 1.400 . S
C641 C642 1.398 . S
C642 H630 0.950 . S
C642 C641 1.398 . S
C642 C643 1.391 . S
C643 H631 0.950 . S
C643 C639 1.393 . S
C643 C642 1.391 . S
H644 C652 0.950 . S
H645 C657 0.950 . S
H646 C654 0.950 . S
H647 C656 0.950 . S
H648 C658 0.950 . S
H649 C660 0.950 . S
H650 C662 0.950 . S
H651 C663 0.950 . S
C652 H644 0.950 . S
C652 C653 1.386 . S
C652 C654 1.391 . S
C653 C652 1.386 . S
C653 C657 1.393 . S
C654 H646 0.950 . S
C654 C652 1.391 . S
C654 C655 1.400 . S
C655 C654 1.400 . S
C655 C656 1.398 . S
C655 C661 1.491 . S
C656 H647 0.950 . S
C656 C655 1.398 . S
C656 C657 1.391 . S
C657 H645 0.950 . S
C657 C653 1.393 . S
C657 C656 1.391 . S
C658 H648 0.950 . S
C658 C659 1.386 . S
C658 C660 1.391 . S
C659 C658 1.386 . S
C659 C663 1.393 . S
C660 H649 0.950 . S
C660 C658 1.391 . S
C660 C661 1.400 . S
C661 C655 1.491 . S
C661 C660 1.400 . S
C661 C662 1.398 . S
C662 H650 0.950 . S
C662 C661 1.398 . S
C662 C663 1.391 . S
C663 H651 0.950 . S
C663 C659 1.393 . S
C663 C662 1.391 . S
H664 C672 0.950 . S
H665 C677 0.950 . S
H666 C674 0.950 . S
H667 C676 0.972 . S
H668 C678 0.950 . S
H669 C680 0.950 . S
H670 C682 0.972 . S
H671 C683 0.950 . S
C672 H664 0.950 . S
C672 C673 1.386 . S
C672 C674 1.391 1_655 S
C673 C672 1.386 . S
C673 C677 1.393 . S
C674 H666 0.950 . S
C674 C672 1.391 1_455 S
C674 C675 1.400 1_455 S
C675 C674 1.400 1_655 S
C675 C676 1.390 1_565 S
C675 C681 1.491 1_664 S
C676 H667 0.972 . S
C676 C675 1.390 1_545 S
C676 C677 1.377 1_545 S
C677 H665 0.950 . S
C677 C673 1.393 . S
C677 C676 1.377 1_565 S
C678 H668 0.950 . S
C678 C679 1.386 . S
C678 C680 1.391 1_455 S
C679 C678 1.386 . S
C679 C683 1.393 . S
C680 H669 0.950 . S
C680 C678 1.391 1_655 S
C680 C681 1.400 1_655 S
C681 C675 1.491 1_446 S
C681 C680 1.400 1_455 S
C681 C682 1.390 1_545 S
C682 H670 0.972 . S
C682 C681 1.390 1_565 S
C682 C683 1.377 1_565 S
C683 H671 0.950 . S
C683 C679 1.393 . S
C683 C682 1.377 1_545 S
H684 C692 0.950 . S
H685 C697 0.950 . S
H686 C694 0.950 . S
H687 C696 0.950 . S
H688 C698 0.950 . S
H689 C700 0.950 . S
H690 C702 0.950 . S
H691 C703 0.950 . S
C692 H684 0.950 . S
C692 C693 1.386 . S
C692 C694 1.391 1_565 S
C693 C692 1.386 . S
C693 C697 1.393 . S
C694 H686 0.950 . S
C694 C692 1.391 1_545 S
C694 C695 1.400 1_545 S
C695 C694 1.400 1_565 S
C695 C696 1.398 . S
C695 C701 1.491 1_565 S
C696 H687 0.950 . S
C696 C695 1.398 . S
C696 C697 1.391 . S
C697 H685 0.950 . S
C697 C693 1.393 . S
C697 C696 1.391 . S
C698 H688 0.950 . S
C698 C699 1.386 . S
C698 C700 1.391 1_545 S
C699 C698 1.386 . S
C699 C703 1.393 . S
C700 H689 0.950 . S
C700 C698 1.391 1_565 S
C700 C701 1.400 1_565 S
C701 C695 1.491 1_545 S
C701 C700 1.400 1_545 S
C701 C702 1.398 . S
C702 H690 0.950 . S
C702 C701 1.398 . S
C702 C703 1.391 . S
C703 H691 0.950 . S
C703 C699 1.393 . S
C703 C702 1.391 . S
H704 C712 0.950 . S
H705 C717 0.950 . S
H706 C714 0.950 . S
H707 C716 0.919 1_554 S
H708 C718 0.950 . S
H709 C720 0.950 . S
H710 C722 0.950 . S
H711 C723 0.950 . S
C712 H704 0.950 . S
C712 C713 1.386 . S
C712 C714 1.391 . S
C713 C712 1.386 . S
C713 C717 1.393 . S
C714 H706 0.950 . S
C714 C712 1.391 . S
C714 C715 1.400 1_556 S
C715 C714 1.400 1_554 S
C715 C716 1.382 1_554 S
C715 C721 1.491 . S
C716 H707 0.919 1_556 S
C716 C715 1.382 1_556 S
C716 C717 1.439 . S
C717 H705 0.950 . S
C717 C713 1.393 . S
C717 C716 1.439 . S
C718 H708 0.950 . S
C718 C719 1.386 . S
C718 C720 1.391 . S
C719 C718 1.386 . S
C719 C723 1.393 . S
C720 H709 0.950 . S
C720 C718 1.391 . S
C720 C721 1.400 . S
C721 C715 1.491 . S
C721 C720 1.400 . S
C721 C722 1.398 . S
C722 H710 0.950 . S
C722 C721 1.398 . S
C722 C723 1.391 . S
C723 H711 0.950 . S
C723 C719 1.393 . S
C723 C722 1.391 . S
H724 C732 0.950 . S
H725 C737 0.950 . S
H726 C734 0.950 . S
H727 C736 0.950 . S
H728 C738 0.950 . S
H729 C740 0.950 . S
H730 C742 0.950 . S
H731 C743 0.950 . S
C732 H724 0.950 . S
C732 C733 1.386 . S
C732 C734 1.391 . S
C733 C732 1.386 . S
C733 C737 1.393 . S
C734 H726 0.950 . S
C734 C732 1.391 . S
C734 C735 1.400 . S
C735 C734 1.400 . S
C735 C736 1.398 . S
C735 C741 1.491 . S
C736 H727 0.950 . S
C736 C735 1.398 . S
C736 C737 1.391 . S
C737 H725 0.950 . S
C737 C733 1.393 . S
C737 C736 1.391 . S
C738 H728 0.950 . S
C738 C739 1.386 . S
C738 C740 1.391 . S
C739 C738 1.386 . S
C739 C743 1.393 . S
C740 H729 0.950 . S
C740 C738 1.391 . S
C740 C741 1.400 . S
C741 C735 1.491 . S
C741 C740 1.400 . S
C741 C742 1.398 . S
C742 H730 0.950 . S
C742 C741 1.398 . S
C742 C743 1.391 . S
C743 H731 0.950 . S
C743 C739 1.393 . S
C743 C742 1.391 . S
H744 C752 0.950 . S
H745 C757 0.950 . S
H746 C754 0.950 . S
H747 C756 0.950 . S
H748 C758 0.950 . S
H749 C760 0.950 . S
H750 C762 0.950 . S
H751 C763 0.950 . S
C752 H744 0.950 . S
C752 C753 1.386 . S
C752 C754 1.391 . S
C753 C752 1.386 . S
C753 C757 1.393 . S
C754 H746 0.950 . S
C754 C752 1.391 . S
C754 C755 1.400 . S
C755 C754 1.400 . S
C755 C756 1.398 . S
C755 C761 1.491 . S
C756 H747 0.950 . S
C756 C755 1.398 . S
C756 C757 1.391 . S
C757 H745 0.950 . S
C757 C753 1.393 . S
C757 C756 1.391 . S
C758 H748 0.950 . S
C758 C759 1.386 . S
C758 C760 1.391 . S
C759 C758 1.386 . S
C759 C763 1.393 . S
C760 H749 0.950 . S
C760 C758 1.391 . S
C760 C761 1.400 . S
C761 C755 1.491 . S
C761 C760 1.400 . S
C761 C762 1.398 . S
C762 H750 0.950 . S
C762 C761 1.398 . S
C762 C763 1.391 . S
C763 H751 0.950 . S
C763 C759 1.393 . S
C763 C762 1.391 . S
H764 C772 0.950 . S
H765 C777 0.950 . S
H766 C774 0.950 . S
H767 C776 0.950 . S
H768 C778 0.950 . S
H769 C780 0.950 . S
H770 C782 0.950 . S
H771 C783 0.950 . S
C772 H764 0.950 . S
C772 C773 1.386 . S
C772 C774 1.391 . S
C773 C772 1.386 . S
C773 C777 1.393 . S
C774 H766 0.950 . S
C774 C772 1.391 . S
C774 C775 1.400 . S
C775 C774 1.400 . S
C775 C776 1.398 . S
C775 C781 1.491 . S
C776 H767 0.950 . S
C776 C775 1.398 . S
C776 C777 1.391 . S
C777 H765 0.950 . S
C777 C773 1.393 . S
C777 C776 1.391 . S
C778 H768 0.950 . S
C778 C779 1.386 . S
C778 C780 1.391 . S
C779 C778 1.386 . S
C779 C783 1.393 . S
C780 H769 0.950 . S
C780 C778 1.391 . S
C780 C781 1.400 . S
C781 C775 1.491 . S
C781 C780 1.400 . S
C781 C782 1.398 . S
C782 H770 0.950 . S
C782 C781 1.398 . S
C782 C783 1.391 . S
C783 H771 0.950 . S
C783 C779 1.393 . S
C783 C782 1.391 . S
H784 C792 0.950 . S
H785 C797 0.950 . S
H786 C794 0.950 . S
H787 C796 0.950 . S
H788 C798 0.950 . S
H789 C800 0.950 . S
H790 C802 0.950 . S
H791 C803 0.950 . S
C792 H784 0.950 . S
C792 C793 1.386 . S
C792 C794 1.391 . S
C793 C792 1.386 . S
C793 C797 1.393 . S
C794 H786 0.950 . S
C794 C792 1.391 . S
C794 C795 1.400 1_554 S
C795 C794 1.400 1_556 S
C795 C796 1.398 . S
C795 C801 1.491 . S
C796 H787 0.950 . S
C796 C795 1.398 . S
C796 C797 1.391 1_556 S
C797 H785 0.950 . S
C797 C793 1.393 . S
C797 C796 1.391 1_554 S
C798 H788 0.950 . S
C798 C799 1.386 . S
C798 C800 1.391 . S
C799 C798 1.386 . S
C799 C803 1.393 . S
C800 H789 0.950 . S
C800 C798 1.391 . S
C800 C801 1.400 . S
C801 C795 1.491 . S
C801 C800 1.400 . S
C801 C802 1.398 . S
C802 H790 0.950 . S
C802 C801 1.398 . S
C802 C803 1.391 . S
C803 H791 0.950 . S
C803 C799 1.393 . S
C803 C802 1.391 . S
H804 C812 0.950 . S
H805 C817 0.950 . S
H806 C814 0.950 . S
H807 C816 0.950 . S
H808 C818 0.950 . S
H809 C820 0.950 . S
H810 C822 0.950 . S
H811 C823 0.950 . S
C812 H804 0.950 . S
C812 C813 1.386 . S
C812 C814 1.391 . S
C813 C812 1.386 . S
C813 C817 1.393 . S
C814 H806 0.950 . S
C814 C812 1.391 . S
C814 C815 1.400 . S
C815 C814 1.400 . S
C815 C816 1.398 . S
C815 C821 1.491 . S
C816 H807 0.950 . S
C816 C815 1.398 . S
C816 C817 1.391 . S
C817 H805 0.950 . S
C817 C813 1.393 . S
C817 C816 1.391 . S
C818 H808 0.950 . S
C818 C819 1.386 . S
C818 C820 1.391 . S
C819 C818 1.386 . S
C819 C823 1.393 . S
C820 H809 0.950 . S
C820 C818 1.391 . S
C820 C821 1.400 . S
C821 C815 1.491 . S
C821 C820 1.400 . S
C821 C822 1.398 . S
C822 H810 0.950 . S
C822 C821 1.398 . S
C822 C823 1.391 . S
C823 H811 0.950 . S
C823 C819 1.393 . S
C823 C822 1.391 . S
H824 C832 0.950 . S
H825 C837 0.950 . S
H826 C834 0.950 . S
H827 C836 0.950 . S
H828 C838 0.950 . S
H829 C840 0.950 . S
H830 C842 0.950 . S
H831 C843 0.950 . S
C832 H824 0.950 . S
C832 C833 1.386 . S
C832 C834 1.391 . S
C833 C832 1.386 . S
C833 C837 1.393 . S
C834 H826 0.950 . S
C834 C832 1.391 . S
C834 C835 1.400 . S
C835 C834 1.400 . S
C835 C836 1.398 . S
C835 C841 1.491 . S
C836 H827 0.950 . S
C836 C835 1.398 . S
C836 C837 1.391 . S
C837 H825 0.950 . S
C837 C833 1.393 . S
C837 C836 1.391 . S
C838 H828 0.950 . S
C838 C839 1.386 . S
C838 C840 1.391 . S
C839 C838 1.386 . S
C839 C843 1.393 . S
C840 H829 0.950 . S
C840 C838 1.391 . S
C840 C841 1.400 . S
C841 C835 1.491 . S
C841 C840 1.400 . S
C841 C842 1.398 . S
C842 H830 0.950 . S
C842 C841 1.398 . S
C842 C843 1.391 . S
C843 H831 0.950 . S
C843 C839 1.393 . S
C843 C842 1.391 . S
H844 C852 0.950 . S
H845 C857 0.950 . S
H846 C854 0.950 . S
H847 C856 0.950 . S
H848 C858 0.950 . S
H849 C860 0.950 . S
H850 C862 0.950 . S
H851 C863 0.950 . S
C852 H844 0.950 . S
C852 C853 1.386 . S
C852 C854 1.391 . S
C853 C852 1.386 . S
C853 C857 1.393 . S
C854 H846 0.950 . S
C854 C852 1.391 . S
C854 C855 1.400 . S
C855 C854 1.400 . S
C855 C856 1.398 . S
C855 C861 1.491 . S
C856 H847 0.950 . S
C856 C855 1.398 . S
C856 C857 1.391 . S
C857 H845 0.950 . S
C857 C853 1.393 . S
C857 C856 1.391 . S
C858 H848 0.950 . S
C858 C859 1.386 . S
C858 C860 1.391 . S
C859 C858 1.386 . S
C859 C863 1.393 . S
C860 H849 0.950 . S
C860 C858 1.391 . S
C860 C861 1.400 . S
C861 C855 1.491 . S
C861 C860 1.400 . S
C861 C862 1.398 . S
C862 H850 0.950 . S
C862 C861 1.398 . S
C862 C863 1.391 . S
C863 H851 0.950 . S
C863 C859 1.393 . S
C863 C862 1.391 . S
H864 C872 0.950 . S
H865 C877 0.950 . S
H866 C874 0.950 . S
H867 C876 0.950 . S
H868 C878 0.950 . S
H869 C880 0.950 . S
H870 C882 0.950 . S
H871 C883 0.950 . S
C872 H864 0.950 . S
C872 C873 1.386 . S
C872 C874 1.391 . S
C873 C872 1.386 . S
C873 C877 1.393 . S
C874 H866 0.950 . S
C874 C872 1.391 . S
C874 C875 1.400 . S
C875 C874 1.400 . S
C875 C876 1.398 . S
C875 C881 1.491 . S
C876 H867 0.950 . S
C876 C875 1.398 . S
C876 C877 1.391 . S
C877 H865 0.950 . S
C877 C873 1.393 . S
C877 C876 1.391 . S
C878 H868 0.950 . S
C878 C879 1.386 . S
C878 C880 1.391 . S
C879 C878 1.386 . S
C879 C883 1.393 . S
C880 H869 0.950 . S
C880 C878 1.391 . S
C880 C881 1.400 . S
C881 C875 1.491 . S
C881 C880 1.400 . S
C881 C882 1.398 . S
C882 H870 0.950 . S
C882 C881 1.398 . S
C882 C883 1.391 . S
C883 H871 0.950 . S
C883 C879 1.393 . S
C883 C882 1.391 . S
H884 C892 0.950 . S
H885 C897 0.950 . S
H886 C894 0.950 . S
H887 C896 0.950 . S
H888 C898 0.950 . S
H889 C900 0.950 1_565 S
H890 C902 0.950 . S
H891 C903 0.950 . S
C892 H884 0.950 . S
C892 C893 1.386 . S
C892 C894 1.391 . S
C893 C892 1.386 . S
C893 C897 1.393 . S
C894 H886 0.950 . S
C894 C892 1.391 . S
C894 C895 1.400 . S
C895 C894 1.400 . S
C895 C896 1.398 . S
C895 C901 1.491 . S
C896 H887 0.950 . S
C896 C895 1.398 . S
C896 C897 1.391 . S
C897 H885 0.950 . S
C897 C893 1.393 . S
C897 C896 1.391 . S
C898 H888 0.950 . S
C898 C899 1.386 . S
C898 C900 1.391 1_565 S
C899 C898 1.386 . S
C899 C903 1.393 1_565 S
C900 H889 0.950 1_545 S
C900 C898 1.391 1_545 S
C900 C901 1.400 . S
C901 C895 1.491 . S
C901 C900 1.400 . S
C901 C902 1.398 . S
C902 H890 0.950 . S
C902 C901 1.398 . S
C902 C903 1.391 . S
C903 H891 0.950 . S
C903 C899 1.393 1_545 S
C903 C902 1.391 . S
H904 C912 0.950 . S
H905 C917 0.950 . S
H906 C914 0.950 . S
H907 C916 0.950 . S
H908 C918 0.950 . S
H909 C920 0.950 1_554 S
H910 C922 0.950 . S
H911 C923 0.950 . S
C912 H904 0.950 . S
C912 C913 1.386 . S
C912 C914 1.391 . S
C913 C912 1.386 . S
C913 C917 1.393 . S
C914 H906 0.950 . S
C914 C912 1.391 . S
C914 C915 1.400 . S
C915 C914 1.400 . S
C915 C916 1.398 . S
C915 C921 1.491 . S
C916 H907 0.950 . S
C916 C915 1.398 . S
C916 C917 1.391 . S
C917 H905 0.950 . S
C917 C913 1.393 . S
C917 C916 1.391 . S
C918 H908 0.950 . S
C918 C919 1.386 . S
C918 C920 1.391 . S
C919 C918 1.386 . S
C919 C923 1.393 . S
C920 H909 0.950 1_556 S
C920 C918 1.391 . S
C920 C921 1.400 1_556 S
C921 C915 1.491 . S
C921 C920 1.400 1_554 S
C921 C922 1.398 1_554 S
C922 H910 0.950 . S
C922 C921 1.398 1_556 S
C922 C923 1.391 . S
C923 H911 0.950 . S
C923 C919 1.393 . S
C923 C922 1.391 . S
H924 C932 0.950 . S
H925 C937 0.950 . S
H926 C934 0.950 . S
H927 C936 0.950 . S
H928 C938 0.950 . S
H929 C940 0.950 . S
H930 C942 0.950 . S
H931 C943 0.950 . S
C932 H924 0.950 . S
C932 C933 1.386 1_565 S
C932 C934 1.391 . S
C933 C932 1.386 1_545 S
C933 C937 1.393 . S
C934 H926 0.950 . S
C934 C932 1.391 . S
C934 C935 1.400 . S
C935 C934 1.400 . S
C935 C936 1.398 . S
C935 C941 1.491 . S
C936 H927 0.950 . S
C936 C935 1.398 . S
C936 C937 1.391 1_565 S
C937 H925 0.950 . S
C937 C933 1.393 . S
C937 C936 1.391 1_545 S
C938 H928 0.950 . S
C938 C939 1.386 . S
C938 C940 1.391 . S
C939 C938 1.386 . S
C939 C943 1.393 . S
C940 H929 0.950 . S
C940 C938 1.391 . S
C940 C941 1.400 . S
C941 C935 1.491 . S
C941 C940 1.400 . S
C941 C942 1.398 . S
C942 H930 0.950 . S
C942 C941 1.398 . S
C942 C943 1.391 . S
C943 H931 0.950 . S
C943 C939 1.393 . S
C943 C942 1.391 . S
H944 C952 0.950 . S
H945 C957 0.950 . S
H946 C954 0.950 . S
H947 C956 0.950 . S
H948 C958 0.950 . S
H949 C960 0.950 . S
H950 C962 0.950 . S
H951 C963 0.950 . S
C952 H944 0.950 . S
C952 C953 1.386 . S
C952 C954 1.391 . S
C953 C952 1.386 . S
C953 C957 1.393 . S
C954 H946 0.950 . S
C954 C952 1.391 . S
C954 C955 1.400 . S
C955 C954 1.400 . S
C955 C956 1.398 . S
C955 C961 1.491 . S
C956 H947 0.950 . S
C956 C955 1.398 . S
C956 C957 1.391 . S
C957 H945 0.950 . S
C957 C953 1.393 . S
C957 C956 1.391 . S
C958 H948 0.950 . S
C958 C959 1.386 . S
C958 C960 1.391 . S
C959 C958 1.386 . S
C959 C963 1.393 . S
C960 H949 0.950 . S
C960 C958 1.391 . S
C960 C961 1.400 . S
C961 C955 1.491 . S
C961 C960 1.400 . S
C961 C962 1.398 . S
C962 H950 0.950 . S
C962 C961 1.398 . S
C962 C963 1.391 . S
C963 H951 0.950 . S
C963 C959 1.393 . S
C963 C962 1.391 . S
H964 C972 0.950 . S
H965 C977 0.950 . S
H966 C974 0.950 . S
H967 C976 0.950 1_545 S
H968 C978 0.950 . S
H969 C980 0.950 . S
H970 C982 0.950 . S
H971 C983 0.950 . S
C972 H964 0.950 . S
C972 C973 1.386 . S
C972 C974 1.391 . S
C973 C972 1.386 . S
C973 C977 1.393 . S
C974 H966 0.950 . S
C974 C972 1.391 . S
C974 C975 1.400 . S
C975 C974 1.400 . S
C975 C976 1.398 . S
C975 C981 1.491 . S
C976 H967 0.950 1_565 S
C976 C975 1.398 . S
C976 C977 1.391 . S
C977 H965 0.950 . S
C977 C973 1.393 . S
C977 C976 1.391 . S
C978 H968 0.950 . S
C978 C979 1.386 . S
C978 C980 1.391 . S
C979 C978 1.386 . S
C979 C983 1.393 1_545 S
C980 H969 0.950 . S
C980 C978 1.391 . S
C980 C981 1.400 1_545 S
C981 C975 1.491 . S
C981 C980 1.400 1_565 S
C981 C982 1.398 . S
C982 H970 0.950 . S
C982 C981 1.398 . S
C982 C983 1.391 . S
C983 H971 0.950 . S
C983 C979 1.393 1_565 S
C983 C982 1.391 . S
H984 C992 0.950 . S
H985 C997 0.950 . S
H986 C994 0.950 . S
H987 C996 0.924 1_556 S
H988 C998 0.950 . S
H989 C1000 0.950 . S
H990 C1002 0.950 . S
H991 C1003 0.950 . S
C992 H984 0.950 . S
C992 C993 1.386 . S
C992 C994 1.391 . S
C993 C992 1.386 . S
C993 C997 1.393 . S
C994 H986 0.950 . S
C994 C992 1.391 . S
C994 C995 1.400 1_554 S
C995 C994 1.400 1_556 S
C995 C996 1.385 1_556 S
C995 C1001 1.491 . S
C996 H987 0.924 1_554 S
C996 C995 1.385 1_554 S
C996 C997 1.430 . S
C997 H985 0.950 . S
C997 C993 1.393 . S
C997 C996 1.430 . S
C998 H988 0.950 . S
C998 C999 1.386 . S
C998 C1000 1.391 . S
C999 C998 1.386 . S
C999 C1003 1.393 . S
C1000 H989 0.950 . S
C1000 C998 1.391 . S
C1000 C1001 1.400 . S
C1001 C995 1.491 . S
C1001 C1000 1.400 . S
C1001 C1002 1.398 . S
C1002 H990 0.950 . S
C1002 C1001 1.398 . S
C1002 C1003 1.391 . S
C1003 H991 0.950 . S
C1003 C999 1.393 . S
C1003 C1002 1.391 . S
H1004 C1012 0.950 . S
H1005 C1017 0.950 . S
H1006 C1014 0.950 . S
H1007 C1016 0.950 . S
H1008 C1018 0.950 . S
H1009 C1020 0.957 . S
H1010 C1022 0.950 . S
H1011 C1023 0.950 . S
C1012 H1004 0.950 . S
C1012 C1013 1.386 . S
C1012 C1014 1.391 . S
C1013 C1012 1.386 . S
C1013 C1017 1.393 . S
C1014 H1006 0.950 . S
C1014 C1012 1.391 . S
C1014 C1015 1.400 . S
C1015 C1014 1.400 . S
C1015 C1016 1.398 . S
C1015 C1021 1.491 . S
C1016 H1007 0.950 . S
C1016 C1015 1.398 . S
C1016 C1017 1.391 . S
C1017 H1005 0.950 . S
C1017 C1013 1.393 . S
C1017 C1016 1.391 . S
C1018 H1008 0.950 . S
C1018 C1019 1.386 . S
C1018 C1020 1.404 . S
C1019 C1018 1.386 . S
C1019 C1023 1.393 1_565 S
C1020 H1009 0.957 . S
C1020 C1018 1.404 . S
C1020 C1021 1.382 1_565 S
C1021 C1015 1.491 . S
C1021 C1020 1.382 1_545 S
C1021 C1022 1.398 . S
C1022 H1010 0.950 . S
C1022 C1021 1.398 . S
C1022 C1023 1.391 . S
C1023 H1011 0.950 . S
C1023 C1019 1.393 1_545 S
C1023 C1022 1.391 . S
H1024 C1032 0.950 . S
H1025 C1037 0.950 . S
H1026 C1034 0.950 . S
H1027 C1036 0.950 . S
H1028 C1038 0.950 . S
H1029 C1040 0.950 . S
H1030 C1042 0.950 . S
H1031 C1043 0.950 . S
C1032 H1024 0.950 . S
C1032 C1033 1.386 . S
C1032 C1034 1.391 . S
C1033 C1032 1.386 . S
C1033 C1037 1.393 . S
C1034 H1026 0.950 . S
C1034 C1032 1.391 . S
C1034 C1035 1.400 . S
C1035 C1034 1.400 . S
C1035 C1036 1.398 . S
C1035 C1041 1.491 . S
C1036 H1027 0.950 . S
C1036 C1035 1.398 . S
C1036 C1037 1.391 . S
C1037 H1025 0.950 . S
C1037 C1033 1.393 . S
C1037 C1036 1.391 . S
C1038 H1028 0.950 . S
C1038 C1039 1.386 . S
C1038 C1040 1.391 . S
C1039 C1038 1.386 . S
C1039 C1043 1.393 . S
C1040 H1029 0.950 . S
C1040 C1038 1.391 . S
C1040 C1041 1.400 . S
C1041 C1035 1.491 . S
C1041 C1040 1.400 . S
C1041 C1042 1.398 . S
C1042 H1030 0.950 . S
C1042 C1041 1.398 . S
C1042 C1043 1.391 . S
C1043 H1031 0.950 . S
C1043 C1039 1.393 . S
C1043 C1042 1.391 . S
H1044 C1052 0.950 . S
H1045 C1057 0.950 . S
H1046 C1054 0.950 . S
H1047 C1056 0.950 . S
H1048 C1058 0.950 . S
H1049 C1060 0.950 . S
H1050 C1062 0.950 . S
H1051 C1063 0.950 . S
C1052 H1044 0.950 . S
C1052 C1053 1.386 . S
C1052 C1054 1.391 . S
C1053 C1052 1.386 . S
C1053 C1057 1.393 . S
C1054 H1046 0.950 . S
C1054 C1052 1.391 . S
C1054 C1055 1.400 . S
C1055 C1054 1.400 . S
C1055 C1056 1.398 . S
C1055 C1061 1.491 . S
C1056 H1047 0.950 . S
C1056 C1055 1.398 . S
C1056 C1057 1.391 . S
C1057 H1045 0.950 . S
C1057 C1053 1.393 . S
C1057 C1056 1.391 . S
C1058 H1048 0.950 . S
C1058 C1059 1.386 . S
C1058 C1060 1.391 . S
C1059 C1058 1.386 . S
C1059 C1063 1.393 . S
C1060 H1049 0.950 . S
C1060 C1058 1.391 . S
C1060 C1061 1.400 . S
C1061 C1055 1.491 . S
C1061 C1060 1.400 . S
C1061 C1062 1.398 . S
C1062 H1050 0.950 . S
C1062 C1061 1.398 . S
C1062 C1063 1.391 . S
C1063 H1051 0.950 . S
C1063 C1059 1.393 . S
C1063 C1062 1.391 . S
H1064 C1072 0.950 . S
H1065 C1077 0.950 . S
H1066 C1074 0.950 . S
H1067 C1076 0.950 . S
H1068 C1078 0.950 . S
H1069 C1080 0.950 . S
H1070 C1082 0.950 . S
H1071 C1083 0.950 . S
C1072 H1064 0.950 . S
C1072 C1073 1.386 . S
C1072 C1074 1.391 . S
C1073 C1072 1.386 . S
C1073 C1077 1.393 . S
C1074 H1066 0.950 . S
C1074 C1072 1.391 . S
C1074 C1075 1.400 . S
C1075 C1074 1.400 . S
C1075 C1076 1.398 . S
C1075 C1081 1.491 1_655 S
C1076 H1067 0.950 . S
C1076 C1075 1.398 . S
C1076 C1077 1.391 . S
C1077 H1065 0.950 . S
C1077 C1073 1.393 . S
C1077 C1076 1.391 . S
C1078 H1068 0.950 . S
C1078 C1079 1.386 . S
C1078 C1080 1.391 . S
C1079 C1078 1.386 . S
C1079 C1083 1.393 . S
C1080 H1069 0.950 . S
C1080 C1078 1.391 . S
C1080 C1081 1.400 . S
C1081 C1075 1.491 1_455 S
C1081 C1080 1.400 . S
C1081 C1082 1.398 . S
C1082 H1070 0.950 . S
C1082 C1081 1.398 . S
C1082 C1083 1.391 . S
C1083 H1071 0.950 . S
C1083 C1079 1.393 . S
C1083 C1082 1.391 . S
H1084 C1092 0.950 . S
H1085 C1097 0.950 . S
H1086 C1094 0.950 . S
H1087 C1096 0.950 . S
H1088 C1098 0.950 . S
H1089 C1100 0.950 . S
H1090 C1102 0.950 . S
H1091 C1103 0.950 . S
C1092 H1084 0.950 . S
C1092 C1093 1.386 . S
C1092 C1094 1.391 1_655 S
C1093 C1092 1.386 . S
C1093 C1097 1.393 . S
C1094 H1086 0.950 . S
C1094 C1092 1.391 1_455 S
C1094 C1095 1.400 1_455 S
C1095 C1094 1.400 1_655 S
C1095 C1096 1.398 . S
C1095 C1101 1.491 1_655 S
C1096 H1087 0.950 . S
C1096 C1095 1.398 . S
C1096 C1097 1.391 . S
C1097 H1085 0.950 . S
C1097 C1093 1.393 . S
C1097 C1096 1.391 . S
C1098 H1088 0.950 . S
C1098 C1099 1.386 . S
C1098 C1100 1.391 1_455 S
C1099 C1098 1.386 . S
C1099 C1103 1.393 . S
C1100 H1089 0.950 . S
C1100 C1098 1.391 1_655 S
C1100 C1101 1.400 1_655 S
C1101 C1095 1.491 1_455 S
C1101 C1100 1.400 1_455 S
C1101 C1102 1.398 . S
C1102 H1090 0.950 . S
C1102 C1101 1.398 . S
C1102 C1103 1.391 . S
C1103 H1091 0.950 . S
C1103 C1099 1.393 . S
C1103 C1102 1.391 . S
H1104 C1112 0.950 . S
H1105 C1117 0.950 . S
H1106 C1114 0.950 . S
H1107 C1116 0.950 . S
H1108 C1118 0.950 . S
H1109 C1120 0.950 . S
H1110 C1122 0.950 . S
H1111 C1123 0.950 . S
C1112 H1104 0.950 . S
C1112 C1113 1.386 . S
C1112 C1114 1.391 . S
C1113 C1112 1.386 . S
C1113 C1117 1.393 . S
C1114 H1106 0.950 . S
C1114 C1112 1.391 . S
C1114 C1115 1.400 . S
C1115 C1114 1.400 . S
C1115 C1116 1.398 . S
C1115 C1121 1.491 . S
C1116 H1107 0.950 . S
C1116 C1115 1.398 . S
C1116 C1117 1.391 . S
C1117 H1105 0.950 . S
C1117 C1113 1.393 . S
C1117 C1116 1.391 . S
C1118 H1108 0.950 . S
C1118 C1119 1.386 . S
C1118 C1120 1.391 . S
C1119 C1118 1.386 . S
C1119 C1123 1.393 . S
C1120 H1109 0.950 . S
C1120 C1118 1.391 . S
C1120 C1121 1.400 . S
C1121 C1115 1.491 . S
C1121 C1120 1.400 . S
C1121 C1122 1.398 . S
C1122 H1110 0.950 . S
C1122 C1121 1.398 . S
C1122 C1123 1.391 . S
C1123 H1111 0.950 . S
C1123 C1119 1.393 . S
C1123 C1122 1.391 . S
H1124 C1132 0.950 . S
H1125 C1137 0.950 . S
H1126 C1134 0.950 . S
H1127 C1136 0.950 . S
H1128 C1138 0.950 . S
H1129 C1140 0.950 . S
H1130 C1142 0.950 . S
H1131 C1143 0.950 . S
C1132 H1124 0.950 . S
C1132 C1133 1.386 . S
C1132 C1134 1.391 . S
C1133 C1132 1.386 . S
C1133 C1137 1.393 . S
C1134 H1126 0.950 . S
C1134 C1132 1.391 . S
C1134 C1135 1.400 . S
C1135 C1134 1.400 . S
C1135 C1136 1.398 . S
C1135 C1141 1.491 . S
C1136 H1127 0.950 . S
C1136 C1135 1.398 . S
C1136 C1137 1.391 . S
C1137 H1125 0.950 . S
C1137 C1133 1.393 . S
C1137 C1136 1.391 . S
C1138 H1128 0.950 . S
C1138 C1139 1.386 . S
C1138 C1140 1.391 . S
C1139 C1138 1.386 . S
C1139 C1143 1.393 . S
C1140 H1129 0.950 . S
C1140 C1138 1.391 . S
C1140 C1141 1.400 . S
C1141 C1135 1.491 . S
C1141 C1140 1.400 . S
C1141 C1142 1.398 . S
C1142 H1130 0.950 . S
C1142 C1141 1.398 . S
C1142 C1143 1.391 . S
C1143 H1131 0.950 . S
C1143 C1139 1.393 . S
C1143 C1142 1.391 . S
H1144 C1152 0.950 . S
H1145 C1157 0.950 . S
H1146 C1154 0.950 . S
H1147 C1156 0.950 . S
H1148 C1158 0.950 . S
H1149 C1160 0.950 . S
H1150 C1162 0.950 . S
H1151 C1163 0.950 . S
C1152 H1144 0.950 . S
C1152 C1153 1.386 . S
C1152 C1154 1.391 . S
C1153 C1152 1.386 . S
C1153 C1157 1.393 . S
C1154 H1146 0.950 . S
C1154 C1152 1.391 . S
C1154 C1155 1.400 . S
C1155 C1154 1.400 . S
C1155 C1156 1.398 . S
C1155 C1161 1.491 1_455 S
C1156 H1147 0.950 . S
C1156 C1155 1.398 . S
C1156 C1157 1.391 . S
C1157 H1145 0.950 . S
C1157 C1153 1.393 . S
C1157 C1156 1.391 . S
C1158 H1148 0.950 . S
C1158 C1159 1.386 . S
C1158 C1160 1.391 . S
C1159 C1158 1.386 . S
C1159 C1163 1.393 . S
C1160 H1149 0.950 . S
C1160 C1158 1.391 . S
C1160 C1161 1.400 . S
C1161 C1155 1.491 1_655 S
C1161 C1160 1.400 . S
C1161 C1162 1.398 . S
C1162 H1150 0.950 . S
C1162 C1161 1.398 . S
C1162 C1163 1.391 . S
C1163 H1151 0.950 . S
C1163 C1159 1.393 . S
C1163 C1162 1.391 . S
H1164 C1172 0.950 1_655 S
H1165 C1177 0.950 . S
H1166 C1174 0.950 . S
H1167 C1176 0.950 . S
H1168 C1178 0.950 1_455 S
H1169 C1180 0.950 . S
H1170 C1182 0.950 . S
H1171 C1183 0.950 . S
C1172 H1164 0.950 1_455 S
C1172 C1173 1.386 . S
C1172 C1174 1.391 1_455 S
C1173 C1172 1.386 . S
C1173 C1177 1.393 . S
C1174 H1166 0.950 . S
C1174 C1172 1.391 1_655 S
C1174 C1175 1.400 1_655 S
C1175 C1174 1.400 1_455 S
C1175 C1176 1.398 . S
C1175 C1181 1.491 1_455 S
C1176 H1167 0.950 . S
C1176 C1175 1.398 . S
C1176 C1177 1.391 . S
C1177 H1165 0.950 . S
C1177 C1173 1.393 . S
C1177 C1176 1.391 . S
C1178 H1168 0.950 1_655 S
C1178 C1179 1.386 . S
C1178 C1180 1.391 1_655 S
C1179 C1178 1.386 . S
C1179 C1183 1.393 . S
C1180 H1169 0.950 . S
C1180 C1178 1.391 1_455 S
C1180 C1181 1.400 1_455 S
C1181 C1175 1.491 1_655 S
C1181 C1180 1.400 1_655 S
C1181 C1182 1.398 . S
C1182 H1170 0.950 . S
C1182 C1181 1.398 . S
C1182 C1183 1.391 . S
C1183 H1171 0.950 . S
C1183 C1179 1.393 . S
C1183 C1182 1.391 . S
H1184 C1192 0.950 . S
H1185 C1197 0.950 . S
H1186 C1194 0.950 . S
H1187 C1196 0.950 . S
H1188 C1198 0.950 . S
H1189 C1200 0.950 . S
H1190 C1202 0.950 . S
H1191 C1203 0.950 . S
C1192 H1184 0.950 . S
C1192 C1193 1.386 . S
C1192 C1194 1.391 . S
C1193 C1192 1.386 . S
C1193 C1197 1.393 . S
C1194 H1186 0.950 . S
C1194 C1192 1.391 . S
C1194 C1195 1.400 . S
C1195 C1194 1.400 . S
C1195 C1196 1.398 . S
C1195 C1201 1.491 . S
C1196 H1187 0.950 . S
C1196 C1195 1.398 . S
C1196 C1197 1.391 . S
C1197 H1185 0.950 . S
C1197 C1193 1.393 . S
C1197 C1196 1.391 . S
C1198 H1188 0.950 . S
C1198 C1199 1.386 . S
C1198 C1200 1.391 . S
C1199 C1198 1.386 . S
C1199 C1203 1.393 . S
C1200 H1189 0.950 . S
C1200 C1198 1.391 . S
C1200 C1201 1.400 . S
C1201 C1195 1.491 . S
C1201 C1200 1.400 . S
C1201 C1202 1.398 . S
C1202 H1190 0.950 . S
C1202 C1201 1.398 . S
C1202 C1203 1.391 . S
C1203 H1191 0.950 . S
C1203 C1199 1.393 . S
C1203 C1202 1.391 . S
H1204 C1212 0.950 . S
H1205 C1217 0.950 . S
H1206 C1214 0.950 . S
H1207 C1216 0.950 . S
H1208 C1218 0.950 . S
H1209 C1220 0.950 . S
H1210 C1222 0.950 . S
H1211 C1223 0.950 . S
C1212 H1204 0.950 . S
C1212 C1213 1.386 . S
C1212 C1214 1.391 . S
C1213 C1212 1.386 . S
C1213 C1217 1.393 . S
C1214 H1206 0.950 . S
C1214 C1212 1.391 . S
C1214 C1215 1.400 . S
C1215 C1214 1.400 . S
C1215 C1216 1.398 . S
C1215 C1221 1.491 . S
C1216 H1207 0.950 . S
C1216 C1215 1.398 . S
C1216 C1217 1.391 . S
C1217 H1205 0.950 . S
C1217 C1213 1.393 . S
C1217 C1216 1.391 . S
C1218 H1208 0.950 . S
C1218 C1219 1.386 . S
C1218 C1220 1.391 . S
C1219 C1218 1.386 . S
C1219 C1223 1.393 . S
C1220 H1209 0.950 . S
C1220 C1218 1.391 . S
C1220 C1221 1.400 . S
C1221 C1215 1.491 . S
C1221 C1220 1.400 . S
C1221 C1222 1.398 . S
C1222 H1210 0.950 . S
C1222 C1221 1.398 . S
C1222 C1223 1.391 . S
C1223 H1211 0.950 . S
C1223 C1219 1.393 . S
C1223 C1222 1.391 . S
H1224 C1232 0.950 . S
H1225 C1237 0.950 . S
H1226 C1234 0.950 . S
H1227 C1236 0.950 . S
H1228 C1238 0.950 . S
H1229 C1240 0.950 . S
H1230 C1242 0.950 . S
H1231 C1243 0.950 . S
C1232 H1224 0.950 . S
C1232 C1233 1.386 . S
C1232 C1234 1.391 . S
C1233 C1232 1.386 . S
C1233 C1237 1.393 . S
C1234 H1226 0.950 . S
C1234 C1232 1.391 . S
C1234 C1235 1.400 . S
C1235 C1234 1.400 . S
C1235 C1236 1.398 . S
C1235 C1241 1.491 . S
C1236 H1227 0.950 . S
C1236 C1235 1.398 . S
C1236 C1237 1.391 . S
C1237 H1225 0.950 . S
C1237 C1233 1.393 . S
C1237 C1236 1.391 . S
C1238 H1228 0.950 . S
C1238 C1239 1.386 . S
C1238 C1240 1.391 . S
C1239 C1238 1.386 . S
C1239 C1243 1.393 . S
C1240 H1229 0.950 . S
C1240 C1238 1.391 . S
C1240 C1241 1.400 . S
C1241 C1235 1.491 . S
C1241 C1240 1.400 . S
C1241 C1242 1.398 . S
C1242 H1230 0.950 . S
C1242 C1241 1.398 . S
C1242 C1243 1.391 . S
C1243 H1231 0.950 . S
C1243 C1239 1.393 . S
C1243 C1242 1.391 . S
H1244 C1252 0.950 . S
H1245 C1257 0.950 . S
H1246 C1254 0.950 . S
H1247 C1256 0.950 . S
H1248 C1258 0.950 . S
H1249 C1260 0.950 . S
H1250 C1262 0.950 . S
H1251 C1263 0.950 . S
C1252 H1244 0.950 . S
C1252 C1253 1.386 . S
C1252 C1254 1.391 . S
C1253 C1252 1.386 . S
C1253 C1257 1.393 . S
C1254 H1246 0.950 . S
C1254 C1252 1.391 . S
C1254 C1255 1.400 . S
C1255 C1254 1.400 . S
C1255 C1256 1.398 . S
C1255 C1261 1.491 . S
C1256 H1247 0.950 . S
C1256 C1255 1.398 . S
C1256 C1257 1.391 . S
C1257 H1245 0.950 . S
C1257 C1253 1.393 . S
C1257 C1256 1.391 . S
C1258 H1248 0.950 . S
C1258 C1259 1.386 . S
C1258 C1260 1.391 . S
C1259 C1258 1.386 . S
C1259 C1263 1.393 . S
C1260 H1249 0.950 . S
C1260 C1258 1.391 . S
C1260 C1261 1.400 . S
C1261 C1255 1.491 . S
C1261 C1260 1.400 . S
C1261 C1262 1.398 . S
C1262 H1250 0.950 . S
C1262 C1261 1.398 . S
C1262 C1263 1.391 . S
C1263 H1251 0.950 . S
C1263 C1259 1.393 . S
C1263 C1262 1.391 . S
H1264 C1272 0.950 . S
H1265 C1277 0.950 . S
H1266 C1274 0.950 . S
H1267 C1276 0.950 . S
H1268 C1278 0.950 . S
H1269 C1280 0.950 . S
H1270 C1282 0.950 . S
H1271 C1283 0.950 . S
C1272 H1264 0.950 . S
C1272 C1273 1.386 . S
C1272 C1274 1.391 . S
C1273 C1272 1.386 . S
C1273 C1277 1.393 . S
C1274 H1266 0.950 . S
C1274 C1272 1.391 . S
C1274 C1275 1.400 . S
C1275 C1274 1.400 . S
C1275 C1276 1.398 . S
C1275 C1281 1.491 . S
C1276 H1267 0.950 . S
C1276 C1275 1.398 . S
C1276 C1277 1.391 . S
C1277 H1265 0.950 . S
C1277 C1273 1.393 . S
C1277 C1276 1.391 . S
C1278 H1268 0.950 . S
C1278 C1279 1.386 . S
C1278 C1280 1.391 . S
C1279 C1278 1.386 . S
C1279 C1283 1.393 . S
C1280 H1269 0.950 . S
C1280 C1278 1.391 . S
C1280 C1281 1.400 . S
C1281 C1275 1.491 . S
C1281 C1280 1.400 . S
C1281 C1282 1.398 . S
C1282 H1270 0.950 . S
C1282 C1281 1.398 . S
C1282 C1283 1.391 . S
C1283 H1271 0.950 . S
C1283 C1279 1.393 . S
C1283 C1282 1.391 . S
H1284 C1292 0.950 . S
H1285 C1297 0.950 . S
H1286 C1294 0.950 . S
H1287 C1296 0.950 . S
H1288 C1298 0.950 . S
H1289 C1300 0.950 . S
H1290 C1302 0.950 . S
H1291 C1303 0.950 . S
C1292 H1284 0.950 . S
C1292 C1293 1.386 . S
C1292 C1294 1.391 . S
C1293 C1292 1.386 . S
C1293 C1297 1.393 . S
C1294 H1286 0.950 . S
C1294 C1292 1.391 . S
C1294 C1295 1.400 . S
C1295 C1294 1.400 . S
C1295 C1296 1.398 . S
C1295 C1301 1.491 . S
C1296 H1287 0.950 . S
C1296 C1295 1.398 . S
C1296 C1297 1.391 . S
C1297 H1285 0.950 . S
C1297 C1293 1.393 . S
C1297 C1296 1.391 . S
C1298 H1288 0.950 . S
C1298 C1299 1.386 . S
C1298 C1300 1.391 . S
C1299 C1298 1.386 . S
C1299 C1303 1.393 . S
C1300 H1289 0.950 . S
C1300 C1298 1.391 . S
C1300 C1301 1.400 . S
C1301 C1295 1.491 . S
C1301 C1300 1.400 . S
C1301 C1302 1.398 . S
C1302 H1290 0.950 . S
C1302 C1301 1.398 . S
C1302 C1303 1.391 . S
C1303 H1291 0.950 . S
C1303 C1299 1.393 . S
C1303 C1302 1.391 . S
H1304 C1312 0.950 . S
H1305 C1317 0.950 . S
H1306 C1314 0.950 . S
H1307 C1316 0.950 . S
H1308 C1318 0.950 . S
H1309 C1320 0.950 . S
H1310 C1322 0.950 . S
H1311 C1323 0.950 . S
C1312 H1304 0.950 . S
C1312 C1313 1.386 . S
C1312 C1314 1.391 . S
C1313 C1312 1.386 . S
C1313 C1317 1.393 . S
C1314 H1306 0.950 . S
C1314 C1312 1.391 . S
C1314 C1315 1.400 . S
C1315 C1314 1.400 . S
C1315 C1316 1.398 . S
C1315 C1321 1.491 . S
C1316 H1307 0.950 . S
C1316 C1315 1.398 . S
C1316 C1317 1.391 . S
C1317 H1305 0.950 . S
C1317 C1313 1.393 . S
C1317 C1316 1.391 . S
C1318 H1308 0.950 . S
C1318 C1319 1.386 . S
C1318 C1320 1.391 . S
C1319 C1318 1.386 . S
C1319 C1323 1.393 . S
C1320 H1309 0.950 . S
C1320 C1318 1.391 . S
C1320 C1321 1.400 . S
C1321 C1315 1.491 . S
C1321 C1320 1.400 . S
C1321 C1322 1.398 . S
C1322 H1310 0.950 . S
C1322 C1321 1.398 . S
C1322 C1323 1.391 . S
C1323 H1311 0.950 . S
C1323 C1319 1.393 . S
C1323 C1322 1.391 . S
H1324 C1332 0.950 . S
H1325 C1337 0.950 . S
H1326 C1334 0.950 . S
H1327 C1336 0.950 . S
H1328 C1338 0.950 . S
H1329 C1340 0.950 . S
H1330 C1342 0.950 . S
H1331 C1343 0.950 . S
C1332 H1324 0.950 . S
C1332 C1333 1.386 . S
C1332 C1334 1.391 . S
C1333 C1332 1.386 . S
C1333 C1337 1.393 . S
C1334 H1326 0.950 . S
C1334 C1332 1.391 . S
C1334 C1335 1.400 . S
C1335 C1334 1.400 . S
C1335 C1336 1.398 . S
C1335 C1341 1.491 . S
C1336 H1327 0.950 . S
C1336 C1335 1.398 . S
C1336 C1337 1.391 . S
C1337 H1325 0.950 . S
C1337 C1333 1.393 . S
C1337 C1336 1.391 . S
C1338 H1328 0.950 . S
C1338 C1339 1.386 . S
C1338 C1340 1.391 . S
C1339 C1338 1.386 . S
C1339 C1343 1.393 . S
C1340 H1329 0.950 . S
C1340 C1338 1.391 . S
C1340 C1341 1.400 . S
C1341 C1335 1.491 . S
C1341 C1340 1.400 . S
C1341 C1342 1.398 . S
C1342 H1330 0.950 . S
C1342 C1341 1.398 . S
C1342 C1343 1.391 . S
C1343 H1331 0.950 . S
C1343 C1339 1.393 . S
C1343 C1342 1.391 . S
H1344 C1352 0.950 . S
H1345 C1357 0.950 . S
H1346 C1354 0.950 . S
H1347 C1356 0.950 . S
H1348 C1358 0.950 . S
H1349 C1360 0.950 . S
H1350 C1362 0.950 . S
H1351 C1363 0.950 . S
C1352 H1344 0.950 . S
C1352 C1353 1.386 . S
C1352 C1354 1.391 . S
C1353 C1352 1.386 . S
C1353 C1357 1.393 . S
C1354 H1346 0.950 . S
C1354 C1352 1.391 . S
C1354 C1355 1.400 . S
C1355 C1354 1.400 . S
C1355 C1356 1.398 . S
C1355 C1361 1.491 . S
C1356 H1347 0.950 . S
C1356 C1355 1.398 . S
C1356 C1357 1.391 . S
C1357 H1345 0.950 . S
C1357 C1353 1.393 . S
C1357 C1356 1.391 . S
C1358 H1348 0.950 . S
C1358 C1359 1.386 . S
C1358 C1360 1.391 . S
C1359 C1358 1.386 . S
C1359 C1363 1.393 . S
C1360 H1349 0.950 . S
C1360 C1358 1.391 . S
C1360 C1361 1.400 . S
C1361 C1355 1.491 . S
C1361 C1360 1.400 . S
C1361 C1362 1.398 . S
C1362 H1350 0.950 . S
C1362 C1361 1.398 . S
C1362 C1363 1.391 . S
C1363 H1351 0.950 . S
C1363 C1359 1.393 . S
C1363 C1362 1.391 . S
H1364 C1372 0.950 . S
H1365 C1377 0.950 . S
H1366 C1374 0.950 . S
H1367 C1376 0.950 . S
H1368 C1378 0.950 . S
H1369 C1380 0.950 . S
H1370 C1382 0.950 . S
H1371 C1383 0.946 1_545 S
C1372 H1364 0.950 . S
C1372 C1373 1.386 . S
C1372 C1374 1.391 . S
C1373 C1372 1.386 . S
C1373 C1377 1.393 . S
C1374 H1366 0.950 . S
C1374 C1372 1.391 . S
C1374 C1375 1.400 . S
C1375 C1374 1.400 . S
C1375 C1376 1.398 . S
C1375 C1381 1.491 . S
C1376 H1367 0.950 . S
C1376 C1375 1.398 . S
C1376 C1377 1.391 . S
C1377 H1365 0.950 . S
C1377 C1373 1.393 . S
C1377 C1376 1.391 . S
C1378 H1368 0.950 . S
C1378 C1379 1.386 . S
C1378 C1380 1.391 . S
C1379 C1378 1.386 . S
C1379 C1383 1.394 . S
C1380 H1369 0.950 . S
C1380 C1378 1.391 . S
C1380 C1381 1.400 . S
C1381 C1375 1.491 . S
C1381 C1380 1.400 . S
C1381 C1382 1.398 . S
C1382 H1370 0.950 . S
C1382 C1381 1.398 . S
C1382 C1383 1.393 . S
C1383 H1371 0.946 1_565 S
C1383 C1379 1.394 . S
C1383 C1382 1.393 . S
H1384 C1392 0.950 . S
H1385 C1397 0.950 . S
H1386 C1394 0.950 . S
H1387 C1396 0.950 . S
H1388 C1398 0.950 . S
H1389 C1400 0.950 . S
H1390 C1402 0.950 . S
H1391 C1403 0.950 . S
C1392 H1384 0.950 . S
C1392 C1393 1.386 . S
C1392 C1394 1.391 . S
C1393 C1392 1.386 . S
C1393 C1397 1.393 . S
C1394 H1386 0.950 . S
C1394 C1392 1.391 . S
C1394 C1395 1.400 . S
C1395 C1394 1.400 . S
C1395 C1396 1.398 . S
C1395 C1401 1.491 . S
C1396 H1387 0.950 . S
C1396 C1395 1.398 . S
C1396 C1397 1.391 . S
C1397 H1385 0.950 . S
C1397 C1393 1.393 . S
C1397 C1396 1.391 . S
C1398 H1388 0.950 . S
C1398 C1399 1.386 . S
C1398 C1400 1.391 . S
C1399 C1398 1.386 . S
C1399 C1403 1.393 . S
C1400 H1389 0.950 . S
C1400 C1398 1.391 . S
C1400 C1401 1.400 . S
C1401 C1395 1.491 . S
C1401 C1400 1.400 . S
C1401 C1402 1.398 . S
C1402 H1390 0.950 . S
C1402 C1401 1.398 . S
C1402 C1403 1.391 . S
C1403 H1391 0.950 . S
C1403 C1399 1.393 . S
C1403 C1402 1.391 . S
H1404 C1412 0.950 1_565 S
H1405 C1417 0.950 . S
H1406 C1414 0.950 . S
H1407 C1416 0.950 . S
H1408 C1418 0.950 . S
H1409 C1420 0.950 . S
H1410 C1422 0.950 . S
H1411 C1423 0.950 . S
C1412 H1404 0.950 1_545 S
C1412 C1413 1.386 . S
C1412 C1414 1.391 . S
C1413 C1412 1.386 . S
C1413 C1417 1.393 . S
C1414 H1406 0.950 . S
C1414 C1412 1.391 . S
C1414 C1415 1.400 . S
C1415 C1414 1.400 . S
C1415 C1416 1.398 . S
C1415 C1421 1.491 . S
C1416 H1407 0.950 . S
C1416 C1415 1.398 . S
C1416 C1417 1.391 . S
C1417 H1405 0.950 . S
C1417 C1413 1.393 . S
C1417 C1416 1.391 . S
C1418 H1408 0.950 . S
C1418 C1419 1.386 . S
C1418 C1420 1.391 . S
C1419 C1418 1.386 . S
C1419 C1423 1.393 . S
C1420 H1409 0.950 . S
C1420 C1418 1.391 . S
C1420 C1421 1.400 . S
C1421 C1415 1.491 . S
C1421 C1420 1.400 . S
C1421 C1422 1.398 . S
C1422 H1410 0.950 . S
C1422 C1421 1.398 . S
C1422 C1423 1.391 . S
C1423 H1411 0.950 . S
C1423 C1419 1.393 . S
C1423 C1422 1.391 . S
H1424 C1432 0.950 . S
H1425 C1437 0.950 . S
H1426 C1434 0.950 . S
H1427 C1436 0.950 . S
H1428 C1438 0.950 . S
H1429 C1440 0.950 . S
H1430 C1442 0.950 . S
H1431 C1443 0.950 . S
C1432 H1424 0.950 . S
C1432 C1433 1.386 . S
C1432 C1434 1.391 . S
C1433 C1432 1.386 . S
C1433 C1437 1.393 . S
C1434 H1426 0.950 . S
C1434 C1432 1.391 . S
C1434 C1435 1.400 . S
C1435 C1434 1.400 . S
C1435 C1436 1.398 . S
C1435 C1441 1.491 . S
C1436 H1427 0.950 . S
C1436 C1435 1.398 . S
C1436 C1437 1.391 . S
C1437 H1425 0.950 . S
C1437 C1433 1.393 . S
C1437 C1436 1.391 . S
C1438 H1428 0.950 . S
C1438 C1439 1.386 . S
C1438 C1440 1.391 . S
C1439 C1438 1.386 . S
C1439 C1443 1.393 . S
C1440 H1429 0.950 . S
C1440 C1438 1.391 . S
C1440 C1441 1.400 . S
C1441 C1435 1.491 . S
C1441 C1440 1.400 . S
C1441 C1442 1.398 . S
C1442 H1430 0.950 . S
C1442 C1441 1.398 . S
C1442 C1443 1.391 . S
C1443 H1431 0.950 . S
C1443 C1439 1.393 . S
C1443 C1442 1.391 . S
H1444 C1452 0.950 1_565 S
H1445 C1457 0.950 . S
H1446 C1454 0.950 . S
H1447 C1456 0.950 . S
H1448 C1458 0.950 . S
H1449 C1460 0.950 . S
H1450 C1462 0.950 . S
H1451 C1463 0.950 . S
C1452 H1444 0.950 1_545 S
C1452 C1453 1.386 . S
C1452 C1454 1.391 . S
C1453 C1452 1.386 . S
C1453 C1457 1.393 . S
C1454 H1446 0.950 . S
C1454 C1452 1.391 . S
C1454 C1455 1.400 . S
C1455 C1454 1.400 . S
C1455 C1456 1.398 . S
C1455 C1461 1.491 . S
C1456 H1447 0.950 . S
C1456 C1455 1.398 . S
C1456 C1457 1.391 . S
C1457 H1445 0.950 . S
C1457 C1453 1.393 . S
C1457 C1456 1.391 . S
C1458 H1448 0.950 . S
C1458 C1459 1.386 . S
C1458 C1460 1.391 . S
C1459 C1458 1.386 . S
C1459 C1463 1.393 . S
C1460 H1449 0.950 . S
C1460 C1458 1.391 . S
C1460 C1461 1.400 . S
C1461 C1455 1.491 . S
C1461 C1460 1.400 . S
C1461 C1462 1.398 . S
C1462 H1450 0.950 . S
C1462 C1461 1.398 . S
C1462 C1463 1.391 . S
C1463 H1451 0.950 . S
C1463 C1459 1.393 . S
C1463 C1462 1.391 . S
H1464 C1472 0.950 . S
H1465 C1477 0.950 . S
H1466 C1474 0.950 . S
H1467 C1476 0.950 . S
H1468 C1478 0.950 . S
H1469 C1480 0.950 . S
H1470 C1482 0.950 . S
H1471 C1483 0.950 . S
C1472 H1464 0.950 . S
C1472 C1473 1.386 . S
C1472 C1474 1.391 . S
C1473 C1472 1.386 . S
C1473 C1477 1.393 . S
C1474 H1466 0.950 . S
C1474 C1472 1.391 . S
C1474 C1475 1.400 . S
C1475 C1474 1.400 . S
C1475 C1476 1.398 . S
C1475 C1481 1.491 . S
C1476 H1467 0.950 . S
C1476 C1475 1.398 . S
C1476 C1477 1.391 . S
C1477 H1465 0.950 . S
C1477 C1473 1.393 . S
C1477 C1476 1.391 . S
C1478 H1468 0.950 . S
C1478 C1479 1.386 . S
C1478 C1480 1.391 . S
C1479 C1478 1.386 . S
C1479 C1483 1.393 . S
C1480 H1469 0.950 . S
C1480 C1478 1.391 . S
C1480 C1481 1.400 . S
C1481 C1475 1.491 . S
C1481 C1480 1.400 . S
C1481 C1482 1.398 . S
C1482 H1470 0.950 . S
C1482 C1481 1.398 . S
C1482 C1483 1.391 . S
C1483 H1471 0.950 . S
C1483 C1479 1.393 . S
C1483 C1482 1.391 . S
H1484 C1492 0.950 . S
H1485 C1497 0.950 . S
H1486 C1494 0.950 . S
H1487 C1496 0.950 . S
H1488 C1498 0.950 . S
H1489 C1500 0.950 . S
H1490 C1502 0.950 . S
H1491 C1503 0.950 1_545 S
C1492 H1484 0.950 . S
C1492 C1493 1.386 . S
C1492 C1494 1.391 . S
C1493 C1492 1.386 . S
C1493 C1497 1.393 . S
C1494 H1486 0.950 . S
C1494 C1492 1.391 . S
C1494 C1495 1.400 . S
C1495 C1494 1.400 . S
C1495 C1496 1.398 . S
C1495 C1501 1.491 . S
C1496 H1487 0.950 . S
C1496 C1495 1.398 . S
C1496 C1497 1.391 . S
C1497 H1485 0.950 . S
C1497 C1493 1.393 . S
C1497 C1496 1.391 . S
C1498 H1488 0.950 . S
C1498 C1499 1.386 . S
C1498 C1500 1.391 . S
C1499 C1498 1.386 . S
C1499 C1503 1.393 . S
C1500 H1489 0.950 . S
C1500 C1498 1.391 . S
C1500 C1501 1.400 . S
C1501 C1495 1.491 . S
C1501 C1500 1.400 . S
C1501 C1502 1.398 . S
C1502 H1490 0.950 . S
C1502 C1501 1.398 . S
C1502 C1503 1.391 . S
C1503 H1491 0.950 1_565 S
C1503 C1499 1.393 . S
C1503 C1502 1.391 . S
C553 C29 1.412 . S
C559 C408 1.412 . S
C573 C170 1.430 . S
C579 C63 1.430 . S
C593 C97 1.436 . S
C599 C476 1.436 . S
C613 C131 1.438 . S
C619 C238 1.438 . S
C633 C136 1.413 . S
C639 C301 1.413 . S
C653 C369 1.437 . S
C659 C204 1.437 . S
C673 C442 1.435 . S
C679 C335 1.435 . S
C693 C403 1.424 . S
C699 C510 1.424 . S
C713 C319 1.528 . S
C719 C0 1.586 . S
C733 C34 1.578 . S
C739 C353 1.551 . S
C753 C68 1.566 . S
C759 C387 1.526 . S
C773 C285 1.551 . S
C779 C102 1.572 . S
C793 C446 1.523 . S
C799 C165 1.569 . S
C813 C480 1.550 . S
C819 C199 1.569 . S
C833 C233 1.567 . S
C839 C514 1.525 . S
C853 C412 1.521 . S
C859 C267 1.579 . S
C873 C272 1.564 . S
C879 C47 1.530 . S
C893 C306 1.570 . S
C899 C81 1.551 . S
C913 C340 1.570 . S
C919 C115 1.551 . S
C933 C13 1.525 . S
C939 C374 1.584 . S
C953 C174 1.544 . S
C959 C437 1.564 . S
C973 C471 1.568 . S
C979 C208 1.524 . S
C993 C242 1.538 . S
C999 C505 1.563 . S
C1013 C539 1.565 . S
C1019 C140 1.545 . S
C1033 C17 1.810 . S
C1039 C357 1.812 . S
C1053 C51 1.813 . S
C1059 C391 1.813 . S
C1073 C289 1.813 . S
C1079 C85 1.813 . S
C1093 C119 1.809 . S
C1099 C323 1.808 . S
C1113 C144 1.808 . S
C1119 C484 1.810 . S
C1133 C178 1.809 . S
C1139 C518 1.808 . S
C1153 C416 1.810 . S
C1159 C212 1.808 . S
C1173 C246 1.810 . S
C1179 C450 1.812 . S
C1193 C4 1.150 . S
C1199 C255 1.224 . S
C1213 C425 1.224 . S
C1219 C38 1.151 . S
C1233 C72 1.162 . S
C1239 C187 1.226 . S
C1253 C106 1.157 . S
C1259 C493 1.226 . S
C1273 C149 1.187 . S
C1279 C110 1.232 . S
C1293 C280 1.225 . S
C1299 C183 1.153 . S
C1313 C217 1.178 . S
C1319 C42 1.231 . S
C1333 C348 1.224 . S
C1339 C251 1.150 . S
C1353 C276 1.150 . S
C1359 C527 1.224 1_565 S
C1373 C153 1.232 . S
C1379 C310 1.188 . S
C1393 C459 1.229 1_545 S
C1399 C344 1.176 . S
C1413 C378 1.175 . S
C1419 C221 1.228 . S
C1433 C421 1.152 . S
C1439 C382 1.224 1_545 S
C1453 C455 1.155 . S
C1459 C8 1.226 . S
C1473 C314 1.224 1_565 S
C1479 C489 1.150 . S
C1493 C76 1.226 . S
C1499 C523 1.158 . S
