# Generated by pormake.
# Topology lta, (4)-cn, num edge types: 1
# Building blocks:
#     Node 0, Type 0, BuildingBlock: GALJAG_clean_sbu_0, # of connection points: 4
#     Node 1, Type 0, BuildingBlock: GALJAG_clean_sbu_0, # of connection points: 4
#     Node 2, Type 0, BuildingBlock: GALJAG_clean_sbu_0, # of connection points: 4
#     Node 3, Type 0, BuildingBlock: GALJAG_clean_sbu_0, # of connection points: 4
#     Node 4, Type 0, BuildingBlock: GALJAG_clean_sbu_0, # of connection points: 4
#     Node 5, Type 0, BuildingBlock: GALJAG_clean_sbu_0, # of connection points: 4
#     Node 6, Type 0, BuildingBlock: GALJAG_clean_sbu_0, # of connection points: 4
#     Node 7, Type 0, BuildingBlock: GALJAG_clean_sbu_0, # of connection points: 4
#     Node 8, Type 0, BuildingBlock: GALJAG_clean_sbu_0, # of connection points: 4
#     Node 9, Type 0, BuildingBlock: GALJAG_clean_sbu_0, # of connection points: 4
#     Node 10, Type 0, BuildingBlock: GALJAG_clean_sbu_0, # of connection points: 4
#     Node 11, Type 0, BuildingBlock: GALJAG_clean_sbu_0, # of connection points: 4
#     Node 12, Type 0, BuildingBlock: GALJAG_clean_sbu_0, # of connection points: 4
#     Node 13, Type 0, BuildingBlock: GALJAG_clean_sbu_0, # of connection points: 4
#     Node 14, Type 0, BuildingBlock: GALJAG_clean_sbu_0, # of connection points: 4
#     Node 15, Type 0, BuildingBlock: GALJAG_clean_sbu_0, # of connection points: 4
#     Node 16, Type 0, BuildingBlock: GALJAG_clean_sbu_0, # of connection points: 4
#     Node 17, Type 0, BuildingBlock: GALJAG_clean_sbu_0, # of connection points: 4
#     Node 18, Type 0, BuildingBlock: GALJAG_clean_sbu_0, # of connection points: 4
#     Node 19, Type 0, BuildingBlock: GALJAG_clean_sbu_0, # of connection points: 4
#     Node 20, Type 0, BuildingBlock: GALJAG_clean_sbu_0, # of connection points: 4
#     Node 21, Type 0, BuildingBlock: GALJAG_clean_sbu_0, # of connection points: 4
#     Node 22, Type 0, BuildingBlock: GALJAG_clean_sbu_0, # of connection points: 4
#     Node 23, Type 0, BuildingBlock: GALJAG_clean_sbu_0, # of connection points: 4
#     Edge 24, Type (0, 0), None
#     Edge 25, Type (0, 0), None
#     Edge 26, Type (0, 0), None
#     Edge 27, Type (0, 0), None
#     Edge 28, Type (0, 0), None
#     Edge 29, Type (0, 0), None
#     Edge 30, Type (0, 0), None
#     Edge 31, Type (0, 0), None
#     Edge 32, Type (0, 0), None
#     Edge 33, Type (0, 0), None
#     Edge 34, Type (0, 0), None
#     Edge 35, Type (0, 0), None
#     Edge 36, Type (0, 0), None
#     Edge 37, Type (0, 0), None
#     Edge 38, Type (0, 0), None
#     Edge 39, Type (0, 0), None
#     Edge 40, Type (0, 0), None
#     Edge 41, Type (0, 0), None
#     Edge 42, Type (0, 0), None
#     Edge 43, Type (0, 0), None
#     Edge 44, Type (0, 0), None
#     Edge 45, Type (0, 0), None
#     Edge 46, Type (0, 0), None
#     Edge 47, Type (0, 0), None
#     Edge 48, Type (0, 0), None
#     Edge 49, Type (0, 0), None
#     Edge 50, Type (0, 0), None
#     Edge 51, Type (0, 0), None
#     Edge 52, Type (0, 0), None
#     Edge 53, Type (0, 0), None
#     Edge 54, Type (0, 0), None
#     Edge 55, Type (0, 0), None
#     Edge 56, Type (0, 0), None
#     Edge 57, Type (0, 0), None
#     Edge 58, Type (0, 0), None
#     Edge 59, Type (0, 0), None
#     Edge 60, Type (0, 0), None
#     Edge 61, Type (0, 0), None
#     Edge 62, Type (0, 0), None
#     Edge 63, Type (0, 0), None
#     Edge 64, Type (0, 0), None
#     Edge 65, Type (0, 0), None
#     Edge 66, Type (0, 0), None
#     Edge 67, Type (0, 0), None
#     Edge 68, Type (0, 0), None
#     Edge 69, Type (0, 0), None
#     Edge 70, Type (0, 0), None
#     Edge 71, Type (0, 0), None
# Relax obj value: 0.417
# Max RMSD: 0.230
# Mean RMSD: 0.230
data_MOF--net-lta--node1-GALJAG_clean_sbu_0--edge1-none
_symmetry_space_group_name_H-M    P1
_symmetry_Int_Tables_number       1
_symmetry_cell_setting            triclinic
loop_
_symmetry_equiv_pos_as_xyz
'x, y, z'
_cell_length_a     25.935994
_cell_length_b     25.935422
_cell_length_c     25.934989
_cell_angle_alpha  90.009396
_cell_angle_beta   90.07051
_cell_angle_gamma 89.924492
loop_
_atom_site_label
_atom_site_type_symbol
_atom_site_fract_x
_atom_site_fract_y
_atom_site_fract_z
_atom_type_partial_charge
In0 In 0.11585 0.30168 0.48467 0.0
O1 O 0.1596 0.36413 0.52846 0.0
O2 O 0.10005 0.32426 0.56826 0.0
C3 C 0.13343 0.36028 0.40077 0.0
C4 C 0.17744 0.21737 0.48435 0.0
C5 C 0.01211 0.29387 0.48429 0.0
O6 O 0.15919 0.36492 0.44179 0.0
O7 O 0.10063 0.3244 0.40099 0.0
O8 O 0.04006 0.2539 0.4845 0.0
O9 O 0.03629 0.3358 0.48426 0.0
C10 C 0.13329 0.35971 0.56909 0.0
O11 O 0.16112 0.2376 0.52529 0.0
O12 O 0.16162 0.23837 0.44357 0.0
In13 In 0.6663 0.11686 0.4848 0.0
O14 O 0.60269 0.15985 0.52765 0.0
O15 O 0.64401 0.10185 0.56857 0.0
C16 C 0.60809 0.13389 0.40042 0.0
C17 C 0.75026 0.17868 0.48465 0.0
C18 C 0.67469 0.01314 0.48525 0.0
O19 O 0.60366 0.16043 0.44094 0.0
O20 O 0.64358 0.1006 0.40137 0.0
O21 O 0.7145 0.04121 0.48484 0.0
O22 O 0.63263 0.03719 0.48549 0.0
C23 C 0.60772 0.13429 0.56873 0.0
O24 O 0.73003 0.16198 0.44384 0.0
O25 O 0.72942 0.16316 0.52556 0.0
In26 In 0.85279 0.66715 0.48416 0.0
O27 O 0.80815 0.73151 0.52492 0.0
O28 O 0.80641 0.73019 0.44321 0.0
C29 C 0.95653 0.67495 0.48433 0.0
C30 C 0.83492 0.60918 0.56845 0.0
C31 C 0.83562 0.60854 0.4001 0.0
O32 O 0.92858 0.71492 0.48389 0.0
O33 O 0.93234 0.63302 0.48463 0.0
O34 O 0.8097 0.60388 0.44095 0.0
O35 O 0.86837 0.64447 0.40053 0.0
C36 C 0.79121 0.75146 0.48406 0.0
O37 O 0.80879 0.60474 0.52763 0.0
O38 O 0.86822 0.64458 0.56782 0.0
In39 In 0.30233 0.85191 0.48374 0.0
O40 O 0.36576 0.80895 0.52702 0.0
O41 O 0.32521 0.86796 0.5672 0.0
C42 C 0.36029 0.8341 0.39945 0.0
C43 C 0.21835 0.79015 0.48434 0.0
C44 C 0.29394 0.95563 0.48351 0.0
O45 O 0.36509 0.80819 0.44034 0.0
O46 O 0.32449 0.86707 0.39998 0.0
O47 O 0.25413 0.92756 0.48425 0.0
O48 O 0.336 0.93158 0.4829 0.0
C49 C 0.36115 0.83513 0.56776 0.0
O50 O 0.23807 0.80687 0.44334 0.0
O51 O 0.23971 0.80562 0.52505 0.0
In52 In 0.11663 0.66644 0.48446 0.0
O53 O 0.16039 0.60376 0.44097 0.0
O54 O 0.10096 0.64387 0.40089 0.0
C55 C 0.13369 0.6078 0.5685 0.0
C56 C 0.1785 0.75034 0.4845 0.0
C57 C 0.01292 0.67479 0.48439 0.0
O58 O 0.15952 0.6029 0.5276 0.0
O59 O 0.10113 0.64399 0.56811 0.0
O60 O 0.04097 0.71462 0.48457 0.0
O61 O 0.03698 0.63273 0.4843 0.0
C62 C 0.13416 0.6083 0.40022 0.0
O63 O 0.16154 0.73043 0.44365 0.0
O64 O 0.16316 0.72927 0.52537 0.0
In65 In 0.30153 0.11577 0.48418 0.0
O66 O 0.36488 0.15906 0.44146 0.0
O67 O 0.32398 0.10098 0.40037 0.0
C68 C 0.35966 0.13293 0.56859 0.0
C69 C 0.21731 0.17746 0.48423 0.0
C70 C 0.29376 0.01203 0.48361 0.0
O71 O 0.36391 0.15949 0.52808 0.0
O72 O 0.32436 0.09953 0.56764 0.0
O73 O 0.25378 0.03996 0.48421 0.0
O74 O 0.33568 0.03622 0.48325 0.0
C75 C 0.36004 0.13358 0.4003 0.0
O76 O 0.23766 0.16095 0.52507 0.0
O77 O 0.2381 0.16173 0.44334 0.0
In78 In 0.852 0.30239 0.48387 0.0
O79 O 0.80845 0.3651 0.44014 0.0
O80 O 0.86769 0.32468 0.40024 0.0
C81 C 0.83483 0.36118 0.56772 0.0
C82 C 0.7901 0.2185 0.48443 0.0
C83 C 0.95571 0.29402 0.48413 0.0
O84 O 0.80895 0.36593 0.52677 0.0
O85 O 0.86752 0.32513 0.56745 0.0
O86 O 0.92766 0.2542 0.48418 0.0
O87 O 0.93165 0.33608 0.48395 0.0
C88 C 0.83465 0.36041 0.39946 0.0
O89 O 0.80659 0.23841 0.44342 0.0
O90 O 0.80592 0.23957 0.52515 0.0
In91 In 0.66708 0.853 0.48486 0.0
O92 O 0.7316 0.80813 0.52523 0.0
O93 O 0.7299 0.80681 0.44352 0.0
C94 C 0.67486 0.95674 0.48525 0.0
C95 C 0.60834 0.83606 0.40083 0.0
C96 C 0.6092 0.83482 0.56911 0.0
O97 O 0.71483 0.92881 0.48452 0.0
O98 O 0.63294 0.93255 0.48577 0.0
O99 O 0.6046 0.80898 0.52816 0.0
O100 O 0.64476 0.86795 0.56866 0.0
C101 C 0.75133 0.79136 0.48423 0.0
O102 O 0.60388 0.8099 0.44158 0.0
O103 O 0.6441 0.869 0.40137 0.0
In104 In 0.48405 0.11633 0.30213 0.0
O105 O 0.52493 0.16131 0.23822 0.0
O106 O 0.44321 0.16262 0.23897 0.0
C107 C 0.48394 0.01261 0.29397 0.0
C108 C 0.56822 0.13374 0.36049 0.0
C109 C 0.39997 0.13369 0.36051 0.0
O110 O 0.48454 0.04063 0.2541 0.0
O111 O 0.48334 0.0367 0.33598 0.0
O112 O 0.44099 0.15928 0.36558 0.0
O113 O 0.40025 0.10124 0.32426 0.0
C114 C 0.4841 0.17807 0.21804 0.0
O115 O 0.52762 0.16022 0.36468 0.0
O116 O 0.56748 0.10033 0.32515 0.0
In117 In 0.85275 0.48456 0.30161 0.0
O118 O 0.80813 0.44379 0.23726 0.0
O119 O 0.80634 0.52549 0.23858 0.0
C120 C 0.95649 0.48436 0.29378 0.0
C121 C 0.83563 0.56863 0.36022 0.0
C122 C 0.83488 0.40031 0.35962 0.0
O123 O 0.92853 0.4848 0.25382 0.0
O124 O 0.93231 0.48407 0.33572 0.0
O125 O 0.80874 0.44112 0.36404 0.0
O126 O 0.86817 0.4009 0.3242 0.0
C127 C 0.79116 0.48464 0.21731 0.0
O128 O 0.80968 0.52779 0.36489 0.0
O129 O 0.86835 0.56819 0.32426 0.0
In130 In 0.48451 0.85247 0.30192 0.0
O131 O 0.44419 0.80826 0.23698 0.0
O132 O 0.52583 0.80543 0.23973 0.0
C133 C 0.48403 0.95621 0.29392 0.0
C134 C 0.4002 0.83425 0.35965 0.0
C135 C 0.56847 0.83595 0.36089 0.0
O136 O 0.48536 0.92824 0.25401 0.0
O137 O 0.483 0.93205 0.33588 0.0
O138 O 0.52781 0.8097 0.36541 0.0
O139 O 0.56792 0.86871 0.32493 0.0
C140 C 0.48514 0.79074 0.21779 0.0
O141 O 0.44117 0.80841 0.36439 0.0
O142 O 0.40066 0.86734 0.32402 0.0
In143 In 0.1166 0.48418 0.30224 0.0
O144 O 0.15946 0.44104 0.36579 0.0
O145 O 0.10107 0.40054 0.32469 0.0
C146 C 0.13414 0.56841 0.36037 0.0
C147 C 0.17845 0.48412 0.21831 0.0
C148 C 0.01288 0.48428 0.29391 0.0
O149 O 0.16037 0.52767 0.36489 0.0
O150 O 0.10095 0.56777 0.32479 0.0
O151 O 0.04092 0.48406 0.25408 0.0
O152 O 0.03696 0.48439 0.33597 0.0
C153 C 0.1336 0.40016 0.3609 0.0
O154 O 0.16145 0.52497 0.23819 0.0
O155 O 0.16318 0.44326 0.23945 0.0
In156 In 0.48483 0.85224 0.66667 0.0
O157 O 0.52528 0.80707 0.73091 0.0
O158 O 0.44356 0.80608 0.72945 0.0
C159 C 0.48473 0.95596 0.67484 0.0
C160 C 0.56928 0.83466 0.6089 0.0
C161 C 0.40101 0.83522 0.60769 0.0
O162 O 0.48388 0.92794 0.71471 0.0
O163 O 0.48563 0.93187 0.63283 0.0
O164 O 0.44182 0.80908 0.60327 0.0
O165 O 0.40137 0.8681 0.64354 0.0
C166 C 0.48429 0.79046 0.75073 0.0
O167 O 0.52848 0.80867 0.60402 0.0
O168 O 0.5686 0.86758 0.64471 0.0
In169 In 0.11593 0.48403 0.66699 0.0
O170 O 0.16122 0.44339 0.73104 0.0
O171 O 0.16171 0.52512 0.7303 0.0
C172 C 0.01219 0.48446 0.67483 0.0
C173 C 0.13349 0.56791 0.60837 0.0
C174 C 0.13329 0.39962 0.60896 0.0
O175 O 0.04014 0.48427 0.71479 0.0
O176 O 0.03636 0.48445 0.63289 0.0
O177 O 0.15963 0.44023 0.60452 0.0
O178 O 0.10008 0.40045 0.64445 0.0
C179 C 0.17754 0.48433 0.75128 0.0
O180 O 0.15926 0.52689 0.60373 0.0
O181 O 0.10072 0.56772 0.64427 0.0
In182 In 0.48386 0.11609 0.66687 0.0
O183 O 0.52465 0.16136 0.73074 0.0
O184 O 0.44292 0.16196 0.73018 0.0
C185 C 0.48454 0.01236 0.67488 0.0
C186 C 0.39954 0.13298 0.60852 0.0
C187 C 0.5678 0.13408 0.60853 0.0
O188 O 0.48341 0.04033 0.71479 0.0
O189 O 0.48532 0.03651 0.63291 0.0
O190 O 0.52661 0.15955 0.60361 0.0
O191 O 0.56773 0.10144 0.64459 0.0
C192 C 0.48376 0.17775 0.75104 0.0
O193 O 0.43998 0.1596 0.60425 0.0
O194 O 0.40049 0.09968 0.64396 0.0
In195 In 0.85207 0.48491 0.66636 0.0
O196 O 0.80661 0.52534 0.73031 0.0
O197 O 0.8061 0.44361 0.72923 0.0
C198 C 0.95579 0.48464 0.67469 0.0
C199 C 0.83487 0.40108 0.60757 0.0
C200 C 0.83474 0.5693 0.60832 0.0
O201 O 0.92775 0.48465 0.71453 0.0
O202 O 0.93172 0.48476 0.63264 0.0
O203 O 0.80852 0.52864 0.60365 0.0
O204 O 0.86778 0.56854 0.64406 0.0
C205 C 0.79022 0.48432 0.75029 0.0
O206 O 0.80898 0.44202 0.60285 0.0
O207 O 0.86757 0.40133 0.64362 0.0
In208 In 0.30232 0.48492 0.11675 0.0
O209 O 0.23798 0.52529 0.16173 0.0
O210 O 0.23976 0.44358 0.16311 0.0
C211 C 0.29396 0.48518 0.01303 0.0
C212 C 0.36025 0.56921 0.13462 0.0
C213 C 0.36116 0.4009 0.13348 0.0
O214 O 0.25414 0.48431 0.04109 0.0
O215 O 0.33601 0.4859 0.03709 0.0
O216 O 0.36574 0.44161 0.1597 0.0
O217 O 0.32525 0.40148 0.10062 0.0
C218 C 0.21834 0.48429 0.17853 0.0
O219 O 0.36508 0.5283 0.16048 0.0
O220 O 0.32444 0.5687 0.10167 0.0
In221 In 0.30161 0.48448 0.85289 0.0
O222 O 0.36398 0.44056 0.80916 0.0
O223 O 0.32448 0.40105 0.86919 0.0
C224 C 0.36011 0.56834 0.83505 0.0
C225 C 0.2174 0.48444 0.79119 0.0
C226 C 0.2938 0.48509 0.95663 0.0
O227 O 0.36499 0.52716 0.80961 0.0
O228 O 0.32402 0.5683 0.86761 0.0
O229 O 0.25383 0.48436 0.92869 0.0
O230 O 0.33573 0.48554 0.93245 0.0
C231 C 0.35976 0.40007 0.83576 0.0
O232 O 0.23777 0.44359 0.80767 0.0
O233 O 0.23817 0.52532 0.80695 0.0
In234 In 0.48397 0.30178 0.85256 0.0
O235 O 0.52469 0.23788 0.80726 0.0
O236 O 0.44296 0.2385 0.8067 0.0
C237 C 0.48468 0.29377 0.95629 0.0
C238 C 0.56793 0.36009 0.83452 0.0
C239 C 0.39965 0.36015 0.83571 0.0
O240 O 0.4835 0.25387 0.92831 0.0
O241 O 0.48551 0.33574 0.93214 0.0
O242 O 0.44007 0.36439 0.80905 0.0
O243 O 0.40062 0.32473 0.86904 0.0
C244 C 0.48379 0.21763 0.79088 0.0
O245 O 0.52672 0.36506 0.80911 0.0
O246 O 0.56786 0.32401 0.86714 0.0
In247 In 0.66637 0.48384 0.85188 0.0
O248 O 0.60376 0.52773 0.8083 0.0
O249 O 0.6436 0.56724 0.86821 0.0
C250 C 0.60782 0.39992 0.83437 0.0
C251 C 0.75034 0.48407 0.79007 0.0
C252 C 0.67473 0.48335 0.9556 0.0
O253 O 0.60278 0.44102 0.80884 0.0
O254 O 0.64413 0.40004 0.86679 0.0
O255 O 0.71455 0.48386 0.92754 0.0
O256 O 0.63267 0.48303 0.93154 0.0
C257 C 0.60814 0.56822 0.83489 0.0
O258 O 0.73005 0.52486 0.80674 0.0
O259 O 0.72958 0.44314 0.80564 0.0
In260 In 0.48409 0.66652 0.85234 0.0
O261 O 0.52497 0.73039 0.80731 0.0
O262 O 0.44324 0.7297 0.80608 0.0
C263 C 0.4839 0.67469 0.95607 0.0
C264 C 0.40003 0.60814 0.83494 0.0
C265 C 0.56828 0.60815 0.83502 0.0
O266 O 0.48463 0.71456 0.92805 0.0
O267 O 0.48322 0.63268 0.93198 0.0
O268 O 0.5277 0.60399 0.80848 0.0
O269 O 0.5675 0.64348 0.86844 0.0
C270 C 0.48413 0.75059 0.79057 0.0
O271 O 0.44109 0.60304 0.80939 0.0
O272 O 0.40027 0.64442 0.86736 0.0
In273 In 0.66707 0.48378 0.11574 0.0
O274 O 0.73161 0.44344 0.16063 0.0
O275 O 0.72985 0.52515 0.16196 0.0
C276 C 0.67488 0.48334 0.012 0.0
C277 C 0.60921 0.39953 0.13393 0.0
C278 C 0.60831 0.56781 0.13261 0.0
O279 O 0.71485 0.48417 0.03994 0.0
O280 O 0.63296 0.48275 0.03618 0.0
O281 O 0.60387 0.52709 0.15882 0.0
O282 O 0.64405 0.56724 0.09966 0.0
C283 C 0.7513 0.48445 0.17741 0.0
O284 O 0.60456 0.4405 0.15974 0.0
O285 O 0.64481 0.39996 0.10084 0.0
In286 In 0.48447 0.66673 0.11621 0.0
O287 O 0.44417 0.73169 0.16042 0.0
O288 O 0.52581 0.7289 0.16324 0.0
C289 C 0.48398 0.67473 0.01247 0.0
C290 C 0.56843 0.60774 0.13271 0.0
C291 C 0.40016 0.60901 0.13447 0.0
O292 O 0.48539 0.71463 0.04045 0.0
O293 O 0.48287 0.63277 0.03662 0.0
O294 O 0.44115 0.60424 0.16027 0.0
O295 O 0.4006 0.64466 0.1014 0.0
C296 C 0.48513 0.75085 0.17794 0.0
O297 O 0.52779 0.60325 0.159 0.0
O298 O 0.56786 0.64367 0.09992 0.0
In299 In 0.48486 0.30198 0.1164 0.0
O300 O 0.44181 0.36536 0.15956 0.0
O301 O 0.40143 0.32515 0.10046 0.0
C302 C 0.56929 0.35974 0.13407 0.0
C303 C 0.48427 0.21793 0.17819 0.0
C304 C 0.48485 0.29381 0.01268 0.0
O305 O 0.52846 0.36463 0.16 0.0
O306 O 0.56866 0.32392 0.10117 0.0
O307 O 0.4839 0.25395 0.04071 0.0
O308 O 0.48579 0.33582 0.03678 0.0
C309 C 0.40103 0.36097 0.13338 0.0
O310 O 0.52527 0.23771 0.16156 0.0
O311 O 0.44356 0.23923 0.16258 0.0
loop_
_geom_bond_atom_site_label_1
_geom_bond_atom_site_label_2
_geom_bond_distance
_geom_bond_site_symmetry_2
_ccdc_geom_bond_type
In0 O1 2.294 . S
In0 O2 2.326 . S
In0 O6 2.266 . S
In0 O7 2.326 . S
In0 O8 2.266 . S
In0 O9 2.326 . S
In0 O11 2.294 . S
In0 O12 2.326 . S
O1 In0 2.294 . S
O1 C10 1.240 . S
O2 In0 2.326 . S
O2 C10 1.252 . S
C3 O6 1.252 . S
C3 O7 1.260 . S
C4 O11 1.240 . S
C4 O12 1.252 . S
C5 O8 1.252 . S
C5 O9 1.260 . S
O6 In0 2.266 . S
O6 C3 1.252 . S
O7 In0 2.326 . S
O7 C3 1.260 . S
O8 In0 2.266 . S
O8 C5 1.252 . S
O9 In0 2.326 . S
O9 C5 1.260 . S
C10 O1 1.240 . S
C10 O2 1.252 . S
O11 In0 2.294 . S
O11 C4 1.240 . S
O12 In0 2.326 . S
O12 C4 1.252 . S
In13 O14 2.294 . S
In13 O15 2.326 . S
In13 O19 2.266 . S
In13 O20 2.326 . S
In13 O21 2.266 . S
In13 O22 2.326 . S
In13 O24 2.294 . S
In13 O25 2.326 . S
O14 In13 2.294 . S
O14 C23 1.240 . S
O15 In13 2.326 . S
O15 C23 1.252 . S
C16 O19 1.252 . S
C16 O20 1.260 . S
C17 O24 1.240 . S
C17 O25 1.252 . S
C18 O21 1.252 . S
C18 O22 1.260 . S
O19 In13 2.266 . S
O19 C16 1.252 . S
O20 In13 2.326 . S
O20 C16 1.260 . S
O21 In13 2.266 . S
O21 C18 1.252 . S
O22 In13 2.326 . S
O22 C18 1.260 . S
C23 O14 1.240 . S
C23 O15 1.252 . S
O24 In13 2.294 . S
O24 C17 1.240 . S
O25 In13 2.326 . S
O25 C17 1.252 . S
In26 O27 2.294 . S
In26 O28 2.326 . S
In26 O32 2.266 . S
In26 O33 2.326 . S
In26 O34 2.266 . S
In26 O35 2.326 . S
In26 O37 2.294 . S
In26 O38 2.326 . S
O27 In26 2.294 . S
O27 C36 1.240 . S
O28 In26 2.326 . S
O28 C36 1.252 . S
C29 O32 1.252 . S
C29 O33 1.260 . S
C30 O37 1.240 . S
C30 O38 1.252 . S
C31 O34 1.252 . S
C31 O35 1.260 . S
O32 In26 2.266 . S
O32 C29 1.252 . S
O33 In26 2.326 . S
O33 C29 1.260 . S
O34 In26 2.266 . S
O34 C31 1.252 . S
O35 In26 2.326 . S
O35 C31 1.260 . S
C36 O27 1.240 . S
C36 O28 1.252 . S
O37 In26 2.294 . S
O37 C30 1.240 . S
O38 In26 2.326 . S
O38 C30 1.252 . S
In39 O40 2.294 . S
In39 O41 2.326 . S
In39 O45 2.266 . S
In39 O46 2.326 . S
In39 O47 2.266 . S
In39 O48 2.326 . S
In39 O50 2.294 . S
In39 O51 2.326 . S
O40 In39 2.294 . S
O40 C49 1.240 . S
O41 In39 2.326 . S
O41 C49 1.252 . S
C42 O45 1.252 . S
C42 O46 1.260 . S
C43 O50 1.240 . S
C43 O51 1.252 . S
C44 O47 1.252 . S
C44 O48 1.260 . S
O45 In39 2.266 . S
O45 C42 1.252 . S
O46 In39 2.326 . S
O46 C42 1.260 . S
O47 In39 2.266 . S
O47 C44 1.252 . S
O48 In39 2.326 . S
O48 C44 1.260 . S
C49 O40 1.240 . S
C49 O41 1.252 . S
O50 In39 2.294 . S
O50 C43 1.240 . S
O51 In39 2.326 . S
O51 C43 1.252 . S
In52 O53 2.294 . S
In52 O54 2.326 . S
In52 O58 2.266 . S
In52 O59 2.326 . S
In52 O60 2.266 . S
In52 O61 2.326 . S
In52 O63 2.294 . S
In52 O64 2.326 . S
O53 In52 2.294 . S
O53 C62 1.240 . S
O54 In52 2.326 . S
O54 C62 1.252 . S
C55 O58 1.252 . S
C55 O59 1.260 . S
C56 O63 1.240 . S
C56 O64 1.252 . S
C57 O60 1.252 . S
C57 O61 1.260 . S
O58 In52 2.266 . S
O58 C55 1.252 . S
O59 In52 2.326 . S
O59 C55 1.260 . S
O60 In52 2.266 . S
O60 C57 1.252 . S
O61 In52 2.326 . S
O61 C57 1.260 . S
C62 O53 1.240 . S
C62 O54 1.252 . S
O63 In52 2.294 . S
O63 C56 1.240 . S
O64 In52 2.326 . S
O64 C56 1.252 . S
In65 O66 2.294 . S
In65 O67 2.326 . S
In65 O71 2.266 . S
In65 O72 2.326 . S
In65 O73 2.266 . S
In65 O74 2.326 . S
In65 O76 2.294 . S
In65 O77 2.326 . S
O66 In65 2.294 . S
O66 C75 1.240 . S
O67 In65 2.326 . S
O67 C75 1.252 . S
C68 O71 1.252 . S
C68 O72 1.260 . S
C69 O76 1.240 . S
C69 O77 1.252 . S
C70 O73 1.252 . S
C70 O74 1.260 . S
O71 In65 2.266 . S
O71 C68 1.252 . S
O72 In65 2.326 . S
O72 C68 1.260 . S
O73 In65 2.266 . S
O73 C70 1.252 . S
O74 In65 2.326 . S
O74 C70 1.260 . S
C75 O66 1.240 . S
C75 O67 1.252 . S
O76 In65 2.294 . S
O76 C69 1.240 . S
O77 In65 2.326 . S
O77 C69 1.252 . S
In78 O79 2.294 . S
In78 O80 2.326 . S
In78 O84 2.266 . S
In78 O85 2.326 . S
In78 O86 2.266 . S
In78 O87 2.326 . S
In78 O89 2.294 . S
In78 O90 2.326 . S
O79 In78 2.294 . S
O79 C88 1.240 . S
O80 In78 2.326 . S
O80 C88 1.252 . S
C81 O84 1.252 . S
C81 O85 1.260 . S
C82 O89 1.240 . S
C82 O90 1.252 . S
C83 O86 1.252 . S
C83 O87 1.260 . S
O84 In78 2.266 . S
O84 C81 1.252 . S
O85 In78 2.326 . S
O85 C81 1.260 . S
O86 In78 2.266 . S
O86 C83 1.252 . S
O87 In78 2.326 . S
O87 C83 1.260 . S
C88 O79 1.240 . S
C88 O80 1.252 . S
O89 In78 2.294 . S
O89 C82 1.240 . S
O90 In78 2.326 . S
O90 C82 1.252 . S
In91 O92 2.294 . S
In91 O93 2.326 . S
In91 O97 2.266 . S
In91 O98 2.326 . S
In91 O99 2.266 . S
In91 O100 2.326 . S
In91 O102 2.294 . S
In91 O103 2.326 . S
O92 In91 2.294 . S
O92 C101 1.240 . S
O93 In91 2.326 . S
O93 C101 1.252 . S
C94 O97 1.252 . S
C94 O98 1.260 . S
C95 O102 1.240 . S
C95 O103 1.252 . S
C96 O99 1.252 . S
C96 O100 1.260 . S
O97 In91 2.266 . S
O97 C94 1.252 . S
O98 In91 2.326 . S
O98 C94 1.260 . S
O99 In91 2.266 . S
O99 C96 1.252 . S
O100 In91 2.326 . S
O100 C96 1.260 . S
C101 O92 1.240 . S
C101 O93 1.252 . S
O102 In91 2.294 . S
O102 C95 1.240 . S
O103 In91 2.326 . S
O103 C95 1.252 . S
In104 O105 2.294 . S
In104 O106 2.326 . S
In104 O110 2.266 . S
In104 O111 2.326 . S
In104 O112 2.266 . S
In104 O113 2.326 . S
In104 O115 2.294 . S
In104 O116 2.326 . S
O105 In104 2.294 . S
O105 C114 1.240 . S
O106 In104 2.326 . S
O106 C114 1.252 . S
C107 O110 1.252 . S
C107 O111 1.260 . S
C108 O115 1.240 . S
C108 O116 1.252 . S
C109 O112 1.252 . S
C109 O113 1.260 . S
O110 In104 2.266 . S
O110 C107 1.252 . S
O111 In104 2.326 . S
O111 C107 1.260 . S
O112 In104 2.266 . S
O112 C109 1.252 . S
O113 In104 2.326 . S
O113 C109 1.260 . S
C114 O105 1.240 . S
C114 O106 1.252 . S
O115 In104 2.294 . S
O115 C108 1.240 . S
O116 In104 2.326 . S
O116 C108 1.252 . S
In117 O118 2.294 . S
In117 O119 2.326 . S
In117 O123 2.266 . S
In117 O124 2.326 . S
In117 O125 2.266 . S
In117 O126 2.326 . S
In117 O128 2.294 . S
In117 O129 2.326 . S
O118 In117 2.294 . S
O118 C127 1.240 . S
O119 In117 2.326 . S
O119 C127 1.252 . S
C120 O123 1.252 . S
C120 O124 1.260 . S
C121 O128 1.240 . S
C121 O129 1.252 . S
C122 O125 1.252 . S
C122 O126 1.260 . S
O123 In117 2.266 . S
O123 C120 1.252 . S
O124 In117 2.326 . S
O124 C120 1.260 . S
O125 In117 2.266 . S
O125 C122 1.252 . S
O126 In117 2.326 . S
O126 C122 1.260 . S
C127 O118 1.240 . S
C127 O119 1.252 . S
O128 In117 2.294 . S
O128 C121 1.240 . S
O129 In117 2.326 . S
O129 C121 1.252 . S
In130 O131 2.294 . S
In130 O132 2.326 . S
In130 O136 2.266 . S
In130 O137 2.326 . S
In130 O138 2.266 . S
In130 O139 2.326 . S
In130 O141 2.294 . S
In130 O142 2.326 . S
O131 In130 2.294 . S
O131 C140 1.240 . S
O132 In130 2.326 . S
O132 C140 1.252 . S
C133 O136 1.252 . S
C133 O137 1.260 . S
C134 O141 1.240 . S
C134 O142 1.252 . S
C135 O138 1.252 . S
C135 O139 1.260 . S
O136 In130 2.266 . S
O136 C133 1.252 . S
O137 In130 2.326 . S
O137 C133 1.260 . S
O138 In130 2.266 . S
O138 C135 1.252 . S
O139 In130 2.326 . S
O139 C135 1.260 . S
C140 O131 1.240 . S
C140 O132 1.252 . S
O141 In130 2.294 . S
O141 C134 1.240 . S
O142 In130 2.326 . S
O142 C134 1.252 . S
In143 O144 2.294 . S
In143 O145 2.326 . S
In143 O149 2.266 . S
In143 O150 2.326 . S
In143 O151 2.266 . S
In143 O152 2.326 . S
In143 O154 2.294 . S
In143 O155 2.326 . S
O144 In143 2.294 . S
O144 C153 1.240 . S
O145 In143 2.326 . S
O145 C153 1.252 . S
C146 O149 1.252 . S
C146 O150 1.260 . S
C147 O154 1.240 . S
C147 O155 1.252 . S
C148 O151 1.252 . S
C148 O152 1.260 . S
O149 In143 2.266 . S
O149 C146 1.252 . S
O150 In143 2.326 . S
O150 C146 1.260 . S
O151 In143 2.266 . S
O151 C148 1.252 . S
O152 In143 2.326 . S
O152 C148 1.260 . S
C153 O144 1.240 . S
C153 O145 1.252 . S
O154 In143 2.294 . S
O154 C147 1.240 . S
O155 In143 2.326 . S
O155 C147 1.252 . S
In156 O157 2.294 . S
In156 O158 2.326 . S
In156 O162 2.266 . S
In156 O163 2.326 . S
In156 O164 2.266 . S
In156 O165 2.326 . S
In156 O167 2.294 . S
In156 O168 2.326 . S
O157 In156 2.294 . S
O157 C166 1.240 . S
O158 In156 2.326 . S
O158 C166 1.252 . S
C159 O162 1.252 . S
C159 O163 1.260 . S
C160 O167 1.240 . S
C160 O168 1.252 . S
C161 O164 1.252 . S
C161 O165 1.260 . S
O162 In156 2.266 . S
O162 C159 1.252 . S
O163 In156 2.326 . S
O163 C159 1.260 . S
O164 In156 2.266 . S
O164 C161 1.252 . S
O165 In156 2.326 . S
O165 C161 1.260 . S
C166 O157 1.240 . S
C166 O158 1.252 . S
O167 In156 2.294 . S
O167 C160 1.240 . S
O168 In156 2.326 . S
O168 C160 1.252 . S
In169 O170 2.294 . S
In169 O171 2.326 . S
In169 O175 2.266 . S
In169 O176 2.326 . S
In169 O177 2.266 . S
In169 O178 2.326 . S
In169 O180 2.294 . S
In169 O181 2.326 . S
O170 In169 2.294 . S
O170 C179 1.240 . S
O171 In169 2.326 . S
O171 C179 1.252 . S
C172 O175 1.252 . S
C172 O176 1.260 . S
C173 O180 1.240 . S
C173 O181 1.252 . S
C174 O177 1.252 . S
C174 O178 1.260 . S
O175 In169 2.266 . S
O175 C172 1.252 . S
O176 In169 2.326 . S
O176 C172 1.260 . S
O177 In169 2.266 . S
O177 C174 1.252 . S
O178 In169 2.326 . S
O178 C174 1.260 . S
C179 O170 1.240 . S
C179 O171 1.252 . S
O180 In169 2.294 . S
O180 C173 1.240 . S
O181 In169 2.326 . S
O181 C173 1.252 . S
In182 O183 2.294 . S
In182 O184 2.326 . S
In182 O188 2.266 . S
In182 O189 2.326 . S
In182 O190 2.266 . S
In182 O191 2.326 . S
In182 O193 2.294 . S
In182 O194 2.326 . S
O183 In182 2.294 . S
O183 C192 1.240 . S
O184 In182 2.326 . S
O184 C192 1.252 . S
C185 O188 1.252 . S
C185 O189 1.260 . S
C186 O193 1.240 . S
C186 O194 1.252 . S
C187 O190 1.252 . S
C187 O191 1.260 . S
O188 In182 2.266 . S
O188 C185 1.252 . S
O189 In182 2.326 . S
O189 C185 1.260 . S
O190 In182 2.266 . S
O190 C187 1.252 . S
O191 In182 2.326 . S
O191 C187 1.260 . S
C192 O183 1.240 . S
C192 O184 1.252 . S
O193 In182 2.294 . S
O193 C186 1.240 . S
O194 In182 2.326 . S
O194 C186 1.252 . S
In195 O196 2.294 . S
In195 O197 2.326 . S
In195 O201 2.266 . S
In195 O202 2.326 . S
In195 O203 2.266 . S
In195 O204 2.326 . S
In195 O206 2.294 . S
In195 O207 2.326 . S
O196 In195 2.294 . S
O196 C205 1.240 . S
O197 In195 2.326 . S
O197 C205 1.252 . S
C198 O201 1.252 . S
C198 O202 1.260 . S
C199 O206 1.240 . S
C199 O207 1.252 . S
C200 O203 1.252 . S
C200 O204 1.260 . S
O201 In195 2.266 . S
O201 C198 1.252 . S
O202 In195 2.326 . S
O202 C198 1.260 . S
O203 In195 2.266 . S
O203 C200 1.252 . S
O204 In195 2.326 . S
O204 C200 1.260 . S
C205 O196 1.240 . S
C205 O197 1.252 . S
O206 In195 2.294 . S
O206 C199 1.240 . S
O207 In195 2.326 . S
O207 C199 1.252 . S
In208 O209 2.294 . S
In208 O210 2.326 . S
In208 O214 2.266 . S
In208 O215 2.326 . S
In208 O216 2.266 . S
In208 O217 2.326 . S
In208 O219 2.294 . S
In208 O220 2.326 . S
O209 In208 2.294 . S
O209 C218 1.240 . S
O210 In208 2.326 . S
O210 C218 1.252 . S
C211 O214 1.252 . S
C211 O215 1.260 . S
C212 O219 1.240 . S
C212 O220 1.252 . S
C213 O216 1.252 . S
C213 O217 1.260 . S
O214 In208 2.266 . S
O214 C211 1.252 . S
O215 In208 2.326 . S
O215 C211 1.260 . S
O216 In208 2.266 . S
O216 C213 1.252 . S
O217 In208 2.326 . S
O217 C213 1.260 . S
C218 O209 1.240 . S
C218 O210 1.252 . S
O219 In208 2.294 . S
O219 C212 1.240 . S
O220 In208 2.326 . S
O220 C212 1.252 . S
In221 O222 2.294 . S
In221 O223 2.326 . S
In221 O227 2.266 . S
In221 O228 2.326 . S
In221 O229 2.266 . S
In221 O230 2.326 . S
In221 O232 2.294 . S
In221 O233 2.326 . S
O222 In221 2.294 . S
O222 C231 1.240 . S
O223 In221 2.326 . S
O223 C231 1.252 . S
C224 O227 1.252 . S
C224 O228 1.260 . S
C225 O232 1.240 . S
C225 O233 1.252 . S
C226 O229 1.252 . S
C226 O230 1.260 . S
O227 In221 2.266 . S
O227 C224 1.252 . S
O228 In221 2.326 . S
O228 C224 1.260 . S
O229 In221 2.266 . S
O229 C226 1.252 . S
O230 In221 2.326 . S
O230 C226 1.260 . S
C231 O222 1.240 . S
C231 O223 1.252 . S
O232 In221 2.294 . S
O232 C225 1.240 . S
O233 In221 2.326 . S
O233 C225 1.252 . S
In234 O235 2.294 . S
In234 O236 2.326 . S
In234 O240 2.266 . S
In234 O241 2.326 . S
In234 O242 2.266 . S
In234 O243 2.326 . S
In234 O245 2.294 . S
In234 O246 2.326 . S
O235 In234 2.294 . S
O235 C244 1.240 . S
O236 In234 2.326 . S
O236 C244 1.252 . S
C237 O240 1.252 . S
C237 O241 1.260 . S
C238 O245 1.240 . S
C238 O246 1.252 . S
C239 O242 1.252 . S
C239 O243 1.260 . S
O240 In234 2.266 . S
O240 C237 1.252 . S
O241 In234 2.326 . S
O241 C237 1.260 . S
O242 In234 2.266 . S
O242 C239 1.252 . S
O243 In234 2.326 . S
O243 C239 1.260 . S
C244 O235 1.240 . S
C244 O236 1.252 . S
O245 In234 2.294 . S
O245 C238 1.240 . S
O246 In234 2.326 . S
O246 C238 1.252 . S
In247 O248 2.294 . S
In247 O249 2.326 . S
In247 O253 2.266 . S
In247 O254 2.326 . S
In247 O255 2.266 . S
In247 O256 2.326 . S
In247 O258 2.294 . S
In247 O259 2.326 . S
O248 In247 2.294 . S
O248 C257 1.240 . S
O249 In247 2.326 . S
O249 C257 1.252 . S
C250 O253 1.252 . S
C250 O254 1.260 . S
C251 O258 1.240 . S
C251 O259 1.252 . S
C252 O255 1.252 . S
C252 O256 1.260 . S
O253 In247 2.266 . S
O253 C250 1.252 . S
O254 In247 2.326 . S
O254 C250 1.260 . S
O255 In247 2.266 . S
O255 C252 1.252 . S
O256 In247 2.326 . S
O256 C252 1.260 . S
C257 O248 1.240 . S
C257 O249 1.252 . S
O258 In247 2.294 . S
O258 C251 1.240 . S
O259 In247 2.326 . S
O259 C251 1.252 . S
In260 O261 2.294 . S
In260 O262 2.326 . S
In260 O266 2.266 . S
In260 O267 2.326 . S
In260 O268 2.266 . S
In260 O269 2.326 . S
In260 O271 2.294 . S
In260 O272 2.326 . S
O261 In260 2.294 . S
O261 C270 1.240 . S
O262 In260 2.326 . S
O262 C270 1.252 . S
C263 O266 1.252 . S
C263 O267 1.260 . S
C264 O271 1.240 . S
C264 O272 1.252 . S
C265 O268 1.252 . S
C265 O269 1.260 . S
O266 In260 2.266 . S
O266 C263 1.252 . S
O267 In260 2.326 . S
O267 C263 1.260 . S
O268 In260 2.266 . S
O268 C265 1.252 . S
O269 In260 2.326 . S
O269 C265 1.260 . S
C270 O261 1.240 . S
C270 O262 1.252 . S
O271 In260 2.294 . S
O271 C264 1.240 . S
O272 In260 2.326 . S
O272 C264 1.252 . S
In273 O274 2.294 . S
In273 O275 2.326 . S
In273 O279 2.266 . S
In273 O280 2.326 . S
In273 O281 2.266 . S
In273 O282 2.326 . S
In273 O284 2.294 . S
In273 O285 2.326 . S
O274 In273 2.294 . S
O274 C283 1.240 . S
O275 In273 2.326 . S
O275 C283 1.252 . S
C276 O279 1.252 . S
C276 O280 1.260 . S
C277 O284 1.240 . S
C277 O285 1.252 . S
C278 O281 1.252 . S
C278 O282 1.260 . S
O279 In273 2.266 . S
O279 C276 1.252 . S
O280 In273 2.326 . S
O280 C276 1.260 . S
O281 In273 2.266 . S
O281 C278 1.252 . S
O282 In273 2.326 . S
O282 C278 1.260 . S
C283 O274 1.240 . S
C283 O275 1.252 . S
O284 In273 2.294 . S
O284 C277 1.240 . S
O285 In273 2.326 . S
O285 C277 1.252 . S
In286 O287 2.294 . S
In286 O288 2.326 . S
In286 O292 2.266 . S
In286 O293 2.326 . S
In286 O294 2.266 . S
In286 O295 2.326 . S
In286 O297 2.294 . S
In286 O298 2.326 . S
O287 In286 2.294 . S
O287 C296 1.240 . S
O288 In286 2.326 . S
O288 C296 1.252 . S
C289 O292 1.252 . S
C289 O293 1.260 . S
C290 O297 1.240 . S
C290 O298 1.252 . S
C291 O294 1.252 . S
C291 O295 1.260 . S
O292 In286 2.266 . S
O292 C289 1.252 . S
O293 In286 2.326 . S
O293 C289 1.260 . S
O294 In286 2.266 . S
O294 C291 1.252 . S
O295 In286 2.326 . S
O295 C291 1.260 . S
C296 O287 1.240 . S
C296 O288 1.252 . S
O297 In286 2.294 . S
O297 C290 1.240 . S
O298 In286 2.326 . S
O298 C290 1.252 . S
In299 O300 2.294 . S
In299 O301 2.326 . S
In299 O305 2.266 . S
In299 O306 2.326 . S
In299 O307 2.266 . S
In299 O308 2.326 . S
In299 O310 2.294 . S
In299 O311 2.326 . S
O300 In299 2.294 . S
O300 C309 1.240 . S
O301 In299 2.326 . S
O301 C309 1.252 . S
C302 O305 1.252 . S
C302 O306 1.260 . S
C303 O310 1.240 . S
C303 O311 1.252 . S
C304 O307 1.252 . S
C304 O308 1.260 . S
O305 In299 2.266 . S
O305 C302 1.252 . S
O306 In299 2.326 . S
O306 C302 1.260 . S
O307 In299 2.266 . S
O307 C304 1.252 . S
O308 In299 2.326 . S
O308 C304 1.260 . S
C309 O300 1.240 . S
C309 O301 1.252 . S
O310 In299 2.294 . S
O310 C303 1.240 . S
O311 In299 2.326 . S
O311 C303 1.252 . S
C153 C3 1.857 . S
C16 C108 1.857 . S
C31 C121 1.857 . S
C42 C134 1.857 . S
C173 C55 1.857 . S
C68 C186 1.857 . S
C199 C81 1.857 . S
C160 C96 1.857 . S
C75 C109 1.857 . S
C88 C122 1.857 . S
C135 C95 1.857 . S
C62 C146 1.857 . S
C49 C161 1.857 . S
C174 C10 1.857 . S
C187 C23 1.857 . S
C200 C30 1.857 . S
C213 C309 1.857 . S
C264 C224 1.857 . S
C239 C231 1.857 . S
C250 C238 1.857 . S
C257 C265 1.857 . S
C278 C290 1.857 . S
C212 C291 1.857 . S
C277 C302 1.857 . S
C5 C83 1.800 1_455 S
C18 C94 1.800 1_545 S
C29 C57 1.800 1_655 S
C70 C44 1.800 1_545 S
C133 C107 1.800 1_565 S
C120 C148 1.800 1_655 S
C159 C185 1.800 1_565 S
C198 C172 1.800 1_655 S
C226 C211 1.800 1_556 S
C237 C304 1.800 1_556 S
C252 C276 1.800 1_556 S
C263 C289 1.800 1_556 S
C4 C69 1.100 . S
C17 C82 1.100 . S
C36 C101 1.100 . S
C56 C43 1.100 . S
C114 C303 1.100 . S
C127 C283 1.100 . S
C296 C140 1.100 . S
C147 C218 1.100 . S
C270 C166 1.100 . S
C225 C179 1.100 . S
C192 C244 1.100 . S
C251 C205 1.100 . S
