# Generated by pormake.
# Topology xfb, (7)-cn, num edge types: 1
# Building blocks:
#     Node 0, Type 0, BuildingBlock: HICVOG_clean_sbu_0, # of connection points: 7
#     Node 1, Type 0, BuildingBlock: HICVOG_clean_sbu_0, # of connection points: 7
#     Node 2, Type 0, BuildingBlock: HICVOG_clean_sbu_0, # of connection points: 7
#     Node 3, Type 0, BuildingBlock: HICVOG_clean_sbu_0, # of connection points: 7
#     Node 4, Type 0, BuildingBlock: HICVOG_clean_sbu_0, # of connection points: 7
#     Node 5, Type 0, BuildingBlock: HICVOG_clean_sbu_0, # of connection points: 7
#     Node 6, Type 0, BuildingBlock: HICVOG_clean_sbu_0, # of connection points: 7
#     Node 7, Type 0, BuildingBlock: HICVOG_clean_sbu_0, # of connection points: 7
#     Node 8, Type 0, BuildingBlock: HICVOG_clean_sbu_0, # of connection points: 7
#     Node 9, Type 0, BuildingBlock: HICVOG_clean_sbu_0, # of connection points: 7
#     Node 10, Type 0, BuildingBlock: HICVOG_clean_sbu_0, # of connection points: 7
#     Node 11, Type 0, BuildingBlock: HICVOG_clean_sbu_0, # of connection points: 7
#     Node 12, Type 0, BuildingBlock: HICVOG_clean_sbu_0, # of connection points: 7
#     Node 13, Type 0, BuildingBlock: HICVOG_clean_sbu_0, # of connection points: 7
#     Node 14, Type 0, BuildingBlock: HICVOG_clean_sbu_0, # of connection points: 7
#     Node 15, Type 0, BuildingBlock: HICVOG_clean_sbu_0, # of connection points: 7
#     Edge 16, Type (0, 0), BuildingBlock: AJUNOK_clean_linker_0, # of connection points: 2
#     Edge 17, Type (0, 0), BuildingBlock: AJUNOK_clean_linker_0, # of connection points: 2
#     Edge 18, Type (0, 0), BuildingBlock: AJUNOK_clean_linker_0, # of connection points: 2
#     Edge 19, Type (0, 0), BuildingBlock: AJUNOK_clean_linker_0, # of connection points: 2
#     Edge 20, Type (0, 0), BuildingBlock: AJUNOK_clean_linker_0, # of connection points: 2
#     Edge 21, Type (0, 0), BuildingBlock: AJUNOK_clean_linker_0, # of connection points: 2
#     Edge 22, Type (0, 0), BuildingBlock: AJUNOK_clean_linker_0, # of connection points: 2
#     Edge 23, Type (0, 0), BuildingBlock: AJUNOK_clean_linker_0, # of connection points: 2
#     Edge 24, Type (0, 0), BuildingBlock: AJUNOK_clean_linker_0, # of connection points: 2
#     Edge 25, Type (0, 0), BuildingBlock: AJUNOK_clean_linker_0, # of connection points: 2
#     Edge 26, Type (0, 0), BuildingBlock: AJUNOK_clean_linker_0, # of connection points: 2
#     Edge 27, Type (0, 0), BuildingBlock: AJUNOK_clean_linker_0, # of connection points: 2
#     Edge 28, Type (0, 0), BuildingBlock: AJUNOK_clean_linker_0, # of connection points: 2
#     Edge 29, Type (0, 0), BuildingBlock: AJUNOK_clean_linker_0, # of connection points: 2
#     Edge 30, Type (0, 0), BuildingBlock: AJUNOK_clean_linker_0, # of connection points: 2
#     Edge 31, Type (0, 0), BuildingBlock: AJUNOK_clean_linker_0, # of connection points: 2
#     Edge 32, Type (0, 0), BuildingBlock: AJUNOK_clean_linker_0, # of connection points: 2
#     Edge 33, Type (0, 0), BuildingBlock: AJUNOK_clean_linker_0, # of connection points: 2
#     Edge 34, Type (0, 0), BuildingBlock: AJUNOK_clean_linker_0, # of connection points: 2
#     Edge 35, Type (0, 0), BuildingBlock: AJUNOK_clean_linker_0, # of connection points: 2
#     Edge 36, Type (0, 0), BuildingBlock: AJUNOK_clean_linker_0, # of connection points: 2
#     Edge 37, Type (0, 0), BuildingBlock: AJUNOK_clean_linker_0, # of connection points: 2
#     Edge 38, Type (0, 0), BuildingBlock: AJUNOK_clean_linker_0, # of connection points: 2
#     Edge 39, Type (0, 0), BuildingBlock: AJUNOK_clean_linker_0, # of connection points: 2
#     Edge 40, Type (0, 0), BuildingBlock: AJUNOK_clean_linker_0, # of connection points: 2
#     Edge 41, Type (0, 0), BuildingBlock: AJUNOK_clean_linker_0, # of connection points: 2
#     Edge 42, Type (0, 0), BuildingBlock: AJUNOK_clean_linker_0, # of connection points: 2
#     Edge 43, Type (0, 0), BuildingBlock: AJUNOK_clean_linker_0, # of connection points: 2
#     Edge 44, Type (0, 0), BuildingBlock: AJUNOK_clean_linker_0, # of connection points: 2
#     Edge 45, Type (0, 0), BuildingBlock: AJUNOK_clean_linker_0, # of connection points: 2
#     Edge 46, Type (0, 0), BuildingBlock: AJUNOK_clean_linker_0, # of connection points: 2
#     Edge 47, Type (0, 0), BuildingBlock: AJUNOK_clean_linker_0, # of connection points: 2
#     Edge 48, Type (0, 0), BuildingBlock: AJUNOK_clean_linker_0, # of connection points: 2
#     Edge 49, Type (0, 0), BuildingBlock: AJUNOK_clean_linker_0, # of connection points: 2
#     Edge 50, Type (0, 0), BuildingBlock: AJUNOK_clean_linker_0, # of connection points: 2
#     Edge 51, Type (0, 0), BuildingBlock: AJUNOK_clean_linker_0, # of connection points: 2
#     Edge 52, Type (0, 0), BuildingBlock: AJUNOK_clean_linker_0, # of connection points: 2
#     Edge 53, Type (0, 0), BuildingBlock: AJUNOK_clean_linker_0, # of connection points: 2
#     Edge 54, Type (0, 0), BuildingBlock: AJUNOK_clean_linker_0, # of connection points: 2
#     Edge 55, Type (0, 0), BuildingBlock: AJUNOK_clean_linker_0, # of connection points: 2
#     Edge 56, Type (0, 0), BuildingBlock: AJUNOK_clean_linker_0, # of connection points: 2
#     Edge 57, Type (0, 0), BuildingBlock: AJUNOK_clean_linker_0, # of connection points: 2
#     Edge 58, Type (0, 0), BuildingBlock: AJUNOK_clean_linker_0, # of connection points: 2
#     Edge 59, Type (0, 0), BuildingBlock: AJUNOK_clean_linker_0, # of connection points: 2
#     Edge 60, Type (0, 0), BuildingBlock: AJUNOK_clean_linker_0, # of connection points: 2
#     Edge 61, Type (0, 0), BuildingBlock: AJUNOK_clean_linker_0, # of connection points: 2
#     Edge 62, Type (0, 0), BuildingBlock: AJUNOK_clean_linker_0, # of connection points: 2
#     Edge 63, Type (0, 0), BuildingBlock: AJUNOK_clean_linker_0, # of connection points: 2
#     Edge 64, Type (0, 0), BuildingBlock: AJUNOK_clean_linker_0, # of connection points: 2
#     Edge 65, Type (0, 0), BuildingBlock: AJUNOK_clean_linker_0, # of connection points: 2
#     Edge 66, Type (0, 0), BuildingBlock: AJUNOK_clean_linker_0, # of connection points: 2
#     Edge 67, Type (0, 0), BuildingBlock: AJUNOK_clean_linker_0, # of connection points: 2
#     Edge 68, Type (0, 0), BuildingBlock: AJUNOK_clean_linker_0, # of connection points: 2
#     Edge 69, Type (0, 0), BuildingBlock: AJUNOK_clean_linker_0, # of connection points: 2
#     Edge 70, Type (0, 0), BuildingBlock: AJUNOK_clean_linker_0, # of connection points: 2
#     Edge 71, Type (0, 0), BuildingBlock: AJUNOK_clean_linker_0, # of connection points: 2
# Relax obj value: 0.143
# Max RMSD: 0.215
# Mean RMSD: 0.215
data_MOF--net-xfb--node1-HICVOG_clean_sbu_0--edge1-AJUNOK_clean_linker_0
_symmetry_space_group_name_H-M    P1
_symmetry_Int_Tables_number       1
_symmetry_cell_setting            triclinic
loop_
_symmetry_equiv_pos_as_xyz
'x, y, z'
_cell_length_a     44.019491
_cell_length_b     44.040529
_cell_length_c     16.246514
_cell_angle_alpha  89.962854
_cell_angle_beta   90.034863
_cell_angle_gamma 89.982089
loop_
_atom_site_label
_atom_site_type_symbol
_atom_site_fract_x
_atom_site_fract_y
_atom_site_fract_z
_atom_type_partial_charge
Zn0 Zn 0.15153 0.19548 0.09041 0.0
C1 C 0.20197 0.23553 0.25821 0.0
N2 N 0.17968 0.2565 0.2576 0.0
C3 C 0.15752 0.24289 0.21468 0.0
N4 N 0.16596 0.21528 0.18833 0.0
N5 N 0.19308 0.20968 0.21982 0.0
C6 C 0.25857 0.14206 0.26348 0.0
O7 O 0.24707 0.13105 0.19515 0.0
O8 O 0.10678 0.2017 0.07328 0.0
Zn9 Zn 0.19903 0.1696 0.26983 0.0
N10 N 0.17514 0.20971 0.99575 0.0
C11 C 0.21783 0.23749 0.94653 0.0
C12 C 0.19943 0.22794 1.01108 0.0
C13 C 0.16832 0.20095 0.91735 0.0
N14 N 0.21122 0.22858 0.86871 0.0
C15 C 0.1869 0.2106 0.8512 0.0
O16 O 0.18407 0.1338 0.19948 0.0
C17 C 0.1669 0.12869 0.13774 0.0
O18 O 0.15488 0.15022 0.09709 0.0
H19 H 0.20459 0.23506 0.07297 0.0
H20 H 0.14855 0.18688 0.90725 0.0
C21 C 0.18248 0.1772 0.44358 0.0
C22 C 0.162 0.17533 0.5103 0.0
C23 C 0.12423 0.15622 0.41968 0.0
C24 C 0.14443 0.1583 0.35406 0.0
N25 N 0.17315 0.16854 0.36701 0.0
N26 N 0.13347 0.16464 0.49596 0.0
H27 H 0.2056 0.18489 0.45236 0.0
C28 C 0.08899 0.19467 0.13192 0.0
O29 O 0.10073 0.18995 0.20517 0.0
O30 O 0.24271 0.16067 0.3054 0.0
H31 H 0.13732 0.1516 0.29305 0.0
H32 H 0.23729 0.25186 0.95814 0.0
H33 H 0.10136 0.14795 0.41015 0.0
Zn34 Zn 0.57972 0.39944 0.37028 0.0
C35 C 0.53843 0.44901 0.53923 0.0
N36 N 0.51768 0.42655 0.53729 0.0
C37 C 0.53128 0.40501 0.49231 0.0
N38 N 0.55875 0.41398 0.46602 0.0
N39 N 0.56421 0.44083 0.4993 0.0
C40 C 0.62655 0.50851 0.53763 0.0
O41 O 0.63197 0.49979 0.46172 0.0
O42 O 0.57295 0.35499 0.35187 0.0
Zn43 Zn 0.60442 0.44701 0.5488 0.0
N44 N 0.56743 0.42325 0.27438 0.0
C45 C 0.54289 0.46712 0.22042 0.0
C46 C 0.55063 0.44873 0.28691 0.0
C47 C 0.57664 0.41527 0.19726 0.0
N48 N 0.55251 0.45951 0.14387 0.0
C49 C 0.56946 0.43418 0.1296 0.0
O50 O 0.64089 0.43339 0.47894 0.0
C51 C 0.64623 0.41504 0.41997 0.0
O52 O 0.62489 0.40213 0.38075 0.0
H53 H 0.5433 0.45485 0.34804 0.0
H54 H 0.58907 0.39431 0.18949 0.0
C55 C 0.59896 0.42925 0.72275 0.0
C56 C 0.60246 0.40844 0.78821 0.0
C57 C 0.61943 0.37118 0.69325 0.0
C58 C 0.61616 0.39183 0.62899 0.0
N59 N 0.60623 0.42047 0.64467 0.0
N60 N 0.61266 0.37996 0.77108 0.0
H61 H 0.59122 0.45222 0.73382 0.0
C62 C 0.57893 0.33685 0.41057 0.0
O63 O 0.58321 0.34817 0.48445 0.0
O64 O 0.61283 0.49035 0.58595 0.0
H65 H 0.62176 0.38516 0.56686 0.0
H66 H 0.52951 0.48745 0.22958 0.0
H67 H 0.62743 0.34837 0.68148 0.0
Zn68 Zn 0.37119 0.82597 0.58729 0.0
C69 C 0.32056 0.78945 0.76334 0.0
N70 N 0.34276 0.76844 0.76561 0.0
C71 C 0.36426 0.78039 0.71721 0.0
N72 N 0.35554 0.80716 0.6854 0.0
N73 N 0.32906 0.81409 0.71886 0.0
C74 C 0.26355 0.87876 0.75098 0.0
O75 O 0.27337 0.88424 0.6761 0.0
O76 O 0.41631 0.82022 0.57945 0.0
Zn77 Zn 0.32469 0.85512 0.76598 0.0
N78 N 0.3499 0.81076 0.48988 0.0
C79 C 0.30884 0.78224 0.4339 0.0
C80 C 0.32599 0.79169 0.50132 0.0
C81 C 0.35745 0.82067 0.41295 0.0
N82 N 0.31631 0.7921 0.35735 0.0
C83 C 0.34034 0.81093 0.34427 0.0
O84 O 0.33914 0.89004 0.69042 0.0
C85 C 0.35499 0.89348 0.62529 0.0
O86 O 0.3665 0.871 0.58769 0.0
H87 H 0.32 0.78415 0.56249 0.0
H88 H 0.376 0.83657 0.40589 0.0
C89 C 0.3438 0.84631 0.9391 0.0
C90 C 0.36488 0.84913 1.00468 0.0
C91 C 0.39941 0.87319 0.91283 0.0
C92 C 0.37864 0.87031 0.84886 0.0
N93 N 0.35122 0.85711 0.86278 0.0
N94 N 0.39204 0.86269 0.98863 0.0
H95 H 0.32203 0.8354 0.94789 0.0
C96 C 0.43171 0.82665 0.6434 0.0
O97 O 0.41709 0.8312 0.71272 0.0
O98 O 0.28114 0.86517 0.80127 0.0
H99 H 0.38439 0.87856 0.78821 0.0
H100 H 0.2896 0.76727 0.44237 0.0
H101 H 0.42127 0.88373 0.90244 0.0
Zn102 Zn 0.92328 0.5744 0.03571 0.0
C103 C 0.99411 0.61793 0.97474 0.0
N104 N 1.00865 0.59671 0.01887 0.0
C105 C 0.98877 0.57354 0.0209 0.0
N106 N 0.96252 0.58107 0.98243 0.0
N107 N 0.96675 0.60812 0.94913 0.0
C108 C 0.946 0.68389 0.88908 0.0
O109 O 0.94352 0.67322 0.96429 0.0
O110 O 0.91714 0.53067 0.07096 0.0
Zn111 Zn 0.94384 0.62102 0.85425 0.0
N112 N 0.92248 0.60124 0.13046 0.0
C113 C 0.91182 0.65139 0.17641 0.0
C114 C 0.91303 0.62996 0.11372 0.0
C115 C 0.93094 0.593 0.20803 0.0
N116 N 0.92003 0.64325 0.25375 0.0
C117 C 0.92965 0.61464 0.27214 0.0
O118 O 0.8986 0.6181 0.86845 0.0
C119 C 0.8784 0.60456 0.91058 0.0
O120 O 0.88563 0.58684 0.96954 0.0
H121 H 0.90654 0.63615 0.05182 0.0
H122 H 0.93887 0.5701 0.21898 0.0
C123 C 0.94904 0.60491 0.68168 0.0
C124 C 0.95648 0.58568 0.61527 0.0
C125 C 0.97475 0.54891 0.70992 0.0
C126 C 0.96731 0.56795 0.77523 0.0
N127 N 0.95475 0.59563 0.76019 0.0
N128 N 0.96905 0.55811 0.63177 0.0
H129 H 0.93817 0.62663 0.67161 0.0
C130 C 0.89268 0.52332 0.10783 0.0
O131 O 0.87285 0.5447 0.12498 0.0
O132 O 0.9502 0.6652 0.83059 0.0
H133 H 0.97128 0.56045 0.83738 0.0
H134 H 0.90436 0.67434 0.16382 0.0
H135 H 0.98476 0.52686 0.72127 0.0
Zn136 Zn 0.82384 0.853 0.75824 0.0
C137 C 0.86697 0.78 0.80593 0.0
N138 N 0.84487 0.76674 0.76194 0.0
C139 C 0.82228 0.78733 0.7644 0.0
N140 N 0.831 0.81269 0.80513 0.0
N141 N 0.8582 0.80706 0.83579 0.0
C142 C 0.93382 0.82834 0.88183 0.0
O143 O 0.91983 0.83265 0.81131 0.0
O144 O 0.7793 0.85998 0.73038 0.0
Zn145 Zn 0.87279 0.82646 0.93441 0.0
N146 N 0.84844 0.85631 0.6583 0.0
C147 C 0.89484 0.87483 0.60256 0.0
C148 C 0.87555 0.8705 0.66918 0.0
C149 C 0.83999 0.84571 0.58265 0.0
N150 N 0.88633 0.86478 0.52721 0.0
C151 C 0.85939 0.85035 0.51413 0.0
O152 O 0.86756 0.87159 0.93213 0.0
C153 C 0.85497 0.89325 0.8933 0.0
O154 O 0.8381 0.88854 0.83066 0.0
H155 H 0.88223 0.87837 0.72948 0.0
H156 H 0.81884 0.83344 0.57705 0.0
C157 C 0.85634 0.8213 0.10802 0.0
C158 C 0.83813 0.81125 0.17422 0.0
C159 C 0.81026 0.78027 0.08153 0.0
C160 C 0.82823 0.79032 0.01644 0.0
N161 N 0.85081 0.81076 0.03043 0.0
N162 N 0.81552 0.79099 0.15849 0.0
H163 H 0.87412 0.8379 0.11756 0.0
C164 C 0.77125 0.88559 0.7011 0.0
O165 O 0.79224 0.90625 0.68805 0.0
O166 O 0.91795 0.82174 0.94475 0.0
H167 H 0.82393 0.78204 0.95502 0.0
H168 H 0.91647 0.88611 0.61057 0.0
H169 H 0.79212 0.76418 0.07088 0.0
Zn170 Zn 0.42086 0.5721 0.51049 0.0
C171 C 0.49379 0.61535 0.55925 0.0
N172 N 0.50741 0.59271 0.51818 0.0
C173 C 0.48669 0.57023 0.52076 0.0
N174 N 0.46095 0.5795 0.55885 0.0
N175 N 0.46635 0.60703 0.5876 0.0
C176 C 0.44414 0.68342 0.63995 0.0
O177 O 0.43949 0.67062 0.56801 0.0
O178 O 0.41329 0.52771 0.48102 0.0
Zn179 Zn 0.44656 0.62168 0.68564 0.0
N180 N 0.41857 0.59705 0.41098 0.0
C181 C 0.40373 0.64509 0.35696 0.0
C182 C 0.40697 0.6253 0.42314 0.0
C183 C 0.42754 0.58787 0.33446 0.0
N184 N 0.41246 0.63602 0.28086 0.0
C185 C 0.42454 0.60802 0.26708 0.0
O186 O 0.40125 0.61766 0.67912 0.0
C187 C 0.37972 0.60469 0.64064 0.0
O188 O 0.38486 0.58652 0.58103 0.0
H189 H 0.40015 0.63238 0.48402 0.0
H190 H 0.43637 0.56515 0.32624 0.0
C191 C 0.45174 0.60469 0.85981 0.0
C192 C 0.46215 0.58642 0.92596 0.0
C193 C 0.49138 0.5576 0.83086 0.0
C194 C 0.48114 0.5757 0.76643 0.0
N195 N 0.46138 0.59877 0.78152 0.0
N196 N 0.48165 0.5633 0.90844 0.0
H197 H 0.43642 0.62351 0.86986 0.0
C198 C 0.38831 0.52156 0.44496 0.0
O199 O 0.3697 0.54402 0.4278 0.0
O200 O 0.45191 0.66659 0.70002 0.0
H201 H 0.48896 0.57124 0.70476 0.0
H202 H 0.39437 0.66756 0.36595 0.0
H203 H 0.50695 0.53907 0.81934 0.0
Zn204 Zn 0.70083 0.16861 0.25975 0.0
C205 C 0.65638 0.24123 0.3142 0.0
N206 N 0.67701 0.25485 0.26632 0.0
C207 C 0.69978 0.23449 0.26334 0.0
N208 N 0.6927 0.20894 0.3057 0.0
N209 N 0.66614 0.2141 0.34101 0.0
C210 C 0.59108 0.19231 0.39005 0.0
O211 O 0.60501 0.1884 0.31941 0.0
O212 O 0.74528 0.16153 0.22952 0.0
Zn213 Zn 0.65197 0.19337 0.43742 0.0
N214 N 0.67555 0.16526 0.16142 0.0
C215 C 0.62745 0.14927 0.1101 0.0
C216 C 0.6474 0.15366 0.17544 0.0
C217 C 0.68443 0.17323 0.08387 0.0
N218 N 0.63637 0.15669 0.03285 0.0
C219 C 0.66431 0.16861 0.01732 0.0
O220 O 0.65566 0.14844 0.42794 0.0
C221 C 0.66871 0.12708 0.38929 0.0
O222 O 0.6871 0.13242 0.33038 0.0
H223 H 0.64051 0.14769 0.23714 0.0
H224 H 0.70693 0.18245 0.07406 0.0
C225 C 0.66847 0.19657 0.61008 0.0
C226 C 0.68725 0.2048 0.67708 0.0
C227 C 0.71755 0.2341 0.58567 0.0
C228 C 0.6994 0.2253 0.51977 0.0
N229 N 0.67524 0.20671 0.53295 0.0
N230 N 0.71116 0.22364 0.66228 0.0
H231 H 0.64856 0.18257 0.61841 0.0
C232 C 0.75155 0.13623 0.19536 0.0
O233 O 0.72921 0.1172 0.18077 0.0
O234 O 0.60707 0.19899 0.45268 0.0
H235 H 0.70463 0.23324 0.45851 0.0
H236 H 0.60505 0.13995 0.12062 0.0
H237 H 0.73673 0.24896 0.57586 0.0
Zn238 Zn 0.07784 0.40157 0.18098 0.0
C239 C 0.04121 0.45289 1.00567 0.0
N240 N 0.02042 0.43056 1.0015 0.0
C241 C 0.0324 0.40858 0.04847 0.0
N242 N 0.05894 0.41722 0.08198 0.0
N243 N 0.06564 0.44415 0.05071 0.0
C244 C 0.12928 0.50987 0.01277 0.0
O245 O 0.13367 0.50215 0.08999 0.0
O246 O 0.07231 0.35647 0.19275 0.0
Zn247 Zn 0.10633 0.44788 1.00209 0.0
N248 N 0.06279 0.42345 0.27765 0.0
C249 C 0.03406 0.46506 0.32907 0.0
C250 C 0.04418 0.44748 0.26353 0.0
C251 C 0.07175 0.41622 0.35573 0.0
N252 N 0.04318 0.45812 0.40655 0.0
C253 C 0.06181 0.43416 0.42292 0.0
O254 O 0.1413 0.43284 0.07536 0.0
C255 C 0.14522 0.41686 0.14005 0.0
O256 O 0.12302 0.40569 0.1797 0.0
H257 H 0.0375 0.45314 0.20164 0.0
H258 H 0.08635 0.39676 0.36463 0.0
C259 C 0.0981 0.43049 0.82928 0.0
C260 C 0.09983 0.4099 0.76281 0.0
C261 C 0.12029 0.37274 0.85322 0.0
C262 C 0.11826 0.39304 0.91864 0.0
N263 N 0.10731 0.42149 0.90572 0.0
N264 N 0.11114 0.38162 0.77719 0.0
H265 H 0.09013 0.45348 0.82032 0.0
C266 C 0.07886 0.3395 0.132 0.0
O267 O 0.08313 0.35219 0.05976 0.0
O268 O 0.11664 0.49089 0.96466 0.0
H269 H 0.12558 0.38622 0.9794 0.0
H270 H 0.01927 0.4843 0.31845 0.0
H271 H 0.1291 0.35007 0.86275 0.0
Zn272 Zn 0.65384 0.69411 0.59369 0.0
C273 C 0.70175 0.73421 0.76947 0.0
N274 N 0.67925 0.75487 0.7687 0.0
C275 C 0.65822 0.74214 0.72018 0.0
N276 N 0.66751 0.71505 0.69112 0.0
N277 N 0.69403 0.70913 0.72599 0.0
C278 C 0.75136 0.63674 0.8441 0.0
O279 O 0.72907 0.61811 0.86253 0.0
O280 O 0.60894 0.69934 0.57592 0.0
Zn281 Zn 0.7007 0.66872 0.77397 0.0
N282 N 0.67788 0.70689 0.49856 0.0
C283 C 0.72177 0.73188 0.44605 0.0
C284 C 0.70355 0.72332 0.51219 0.0
C285 C 0.6697 0.69865 0.4208 0.0
N286 N 0.71365 0.72369 0.3686 0.0
C287 C 0.68794 0.70745 0.35352 0.0
O288 O 0.68704 0.63245 0.70332 0.0
C289 C 0.67015 0.62762 0.64089 0.0
O290 O 0.65796 0.64922 0.60117 0.0
H291 H 0.70989 0.72975 0.57395 0.0
H292 H 0.64959 0.68491 0.41202 0.0
C293 C 0.68253 0.67625 0.94763 0.0
C294 C 0.66139 0.67371 0.01287 0.0
C295 C 0.62586 0.65181 0.91998 0.0
C296 C 0.64669 0.65448 0.85614 0.0
N297 N 0.67462 0.66644 0.87085 0.0
N298 N 0.63368 0.66137 0.99634 0.0
H299 H 0.7047 0.68625 0.95701 0.0
C300 C 0.59137 0.69345 0.63597 0.0
O301 O 0.60341 0.68972 0.7093 0.0
O302 O 0.74498 0.6613 0.8062 0.0
H303 H 0.64054 0.64717 0.79491 0.0
H304 H 0.74227 0.74489 0.45617 0.0
H305 H 0.60359 0.64227 0.90898 0.0
Zn306 Zn 0.07634 0.90226 0.81733 0.0
C307 C 0.03856 0.95148 0.99455 0.0
N308 N 0.01829 0.92863 0.99655 0.0
C309 C 0.03099 0.9076 0.9481 0.0
N310 N 0.05736 0.91726 0.91593 0.0
N311 N 0.06328 0.94401 0.94907 0.0
C312 C 0.13581 1.00271 0.05883 0.0
O313 O 0.1556 0.98135 0.07677 0.0
O314 O 0.07169 0.85688 0.81015 0.0
Zn315 Zn 0.1041 0.9507 0.99401 0.0
N316 N 0.06001 0.92355 0.72087 0.0
C317 C 0.02844 0.96316 0.66957 0.0
C318 C 0.0395 0.94603 0.73502 0.0
C319 C 0.07003 0.91761 0.64296 0.0
N320 N 0.03851 0.95741 0.59227 0.0
C321 C 0.05908 0.93511 0.57596 0.0
O322 O 0.13948 0.93652 0.91962 0.0
C323 C 0.14346 0.92015 0.85563 0.0
O324 O 0.12132 0.90787 0.81817 0.0
H325 H 0.03186 0.9508 0.79684 0.0
H326 H 0.08623 0.89947 0.63396 0.0
C327 C 0.09697 0.93455 0.16933 0.0
C328 C 0.10051 0.91472 0.23723 0.0
C329 C 0.12455 0.87892 0.14944 0.0
C330 C 0.12083 0.89842 0.08277 0.0
N331 N 0.10732 0.92588 0.09364 0.0
N332 N 0.11445 0.88752 0.22471 0.0
H333 H 0.08664 0.95668 0.17651 0.0
C334 C 0.07895 0.84232 0.87496 0.0
O335 O 0.08397 0.85783 0.94259 0.0
O336 O 0.11115 0.99513 0.02325 0.0
H337 H 0.12878 0.89171 0.02255 0.0
H338 H 0.01212 0.98111 0.68012 0.0
H339 H 0.13539 0.85707 0.14148 0.0
Zn340 Zn 0.8729 0.33313 0.09674 0.0
C341 C 0.82128 0.28514 0.24801 0.0
N342 N 0.84335 0.26416 0.24044 0.0
C343 C 0.86521 0.27924 0.20021 0.0
N344 N 0.85685 0.30775 0.18209 0.0
N345 N 0.82986 0.31223 0.21569 0.0
C346 C 0.77199 0.38237 0.34309 0.0
O347 O 0.79321 0.40297 0.35373 0.0
O348 O 0.91675 0.3252 0.0693 0.0
Zn349 Zn 0.82341 0.35058 0.27513 0.0
N350 N 0.84647 0.3303 1.00164 0.0
C351 C 0.79522 0.33346 0.95577 0.0
C352 C 0.81656 0.33417 0.01888 0.0
C353 C 0.85624 0.32724 0.92255 0.0
N354 N 0.8048 0.33029 0.87703 0.0
C355 C 0.83477 0.32747 0.85801 0.0
O356 O 0.83789 0.38991 0.21837 0.0
C357 C 0.85897 0.39678 0.16777 0.0
O358 O 0.87264 0.3766 0.12643 0.0
H359 H 0.80953 0.33859 0.08117 0.0
H360 H 0.88031 0.32519 0.9102 0.0
C361 C 0.84146 0.34204 0.44843 0.0
C362 C 0.86385 0.33898 0.51026 0.0
C363 C 0.90217 0.34738 0.40995 0.0
C364 C 0.88003 0.3503 0.34943 0.0
N365 N 0.85023 0.34743 0.36939 0.0
N366 N 0.8936 0.34189 0.48863 0.0
H367 H 0.8175 0.34078 0.46259 0.0
C368 C 0.93624 0.32764 0.12675 0.0
O369 O 0.92661 0.32756 0.20317 0.0
O370 O 0.77944 0.35694 0.31149 0.0
H371 H 0.88642 0.35487 0.28658 0.0
H372 H 0.7713 0.33627 0.96886 0.0
H373 H 0.92598 0.34955 0.39465 0.0
Zn374 Zn 0.4182 0.07372 0.51479 0.0
C375 C 0.49296 0.11311 0.45893 0.0
N376 N 0.50534 0.09141 0.50592 0.0
C377 C 0.48395 0.06961 0.50667 0.0
N378 N 0.45875 0.07846 0.465 0.0
N379 N 0.46535 0.10496 0.43089 0.0
C380 C 0.44622 0.18223 0.38417 0.0
O381 O 0.44442 0.16916 0.45662 0.0
O382 O 0.40907 0.0305 0.55465 0.0
Zn383 Zn 0.44449 0.12037 0.33495 0.0
N384 N 0.41688 0.10129 0.60819 0.0
C385 C 0.40475 0.15128 0.65302 0.0
C386 C 0.40704 0.12982 0.59056 0.0
C387 C 0.42474 0.09333 0.6865 0.0
N388 N 0.41223 0.14336 0.73107 0.0
C389 C 0.42216 0.11495 0.75025 0.0
O390 O 0.39948 0.11603 0.34078 0.0
C391 C 0.37776 0.10379 0.37984 0.0
O392 O 0.3822 0.08729 0.44315 0.0
H393 H 0.40085 0.13579 0.52828 0.0
H394 H 0.43223 0.07038 0.69901 0.0
C395 C 0.44838 0.10675 0.16093 0.0
C396 C 0.45439 0.088 0.09221 0.0
C397 C 0.47795 0.05226 0.18172 0.0
C398 C 0.47119 0.07048 0.24916 0.0
N399 N 0.45645 0.09726 0.23773 0.0
N400 N 0.46929 0.06131 0.10543 0.0
H401 H 0.4377 0.12868 0.15455 0.0
C402 C 0.39396 0.01273 0.50822 0.0
O403 O 0.38636 0.02214 0.4343 0.0
O404 O 0.45033 0.16549 0.32133 0.0
H405 H 0.47769 0.06332 0.31018 0.0
H406 H 0.39688 0.17403 0.63976 0.0
H407 H 0.48972 0.0309 0.18995 0.0
Zn408 Zn 0.32497 0.35165 0.24709 0.0
C409 C 0.36751 0.2793 0.30864 0.0
N410 N 0.34635 0.26537 0.26293 0.0
C411 C 0.32388 0.28601 0.25865 0.0
N412 N 0.33163 0.31199 0.29808 0.0
N413 N 0.35833 0.30702 0.33309 0.0
C414 C 0.4348 0.32847 0.39458 0.0
O415 O 0.42436 0.332 0.31942 0.0
O416 O 0.28167 0.35935 0.20843 0.0
Zn417 Zn 0.37152 0.32937 0.42893 0.0
N418 N 0.35154 0.35267 0.15208 0.0
C419 C 0.40118 0.36342 0.1021 0.0
C420 C 0.38051 0.36184 0.16674 0.0
C421 C 0.34235 0.34473 0.07496 0.0
N422 N 0.39211 0.35562 0.02519 0.0
C423 C 0.36328 0.34606 1.00935 0.0
O424 O 0.36854 0.37467 0.4169 0.0
C425 C 0.35548 0.3952 0.3748 0.0
O426 O 0.33817 0.3885 0.3146 0.0
H427 H 0.38742 0.36803 0.22831 0.0
H428 H 0.319 0.33802 0.06501 0.0
C429 C 0.35457 0.32419 0.60158 0.0
C430 C 0.33521 0.31607 0.66741 0.0
C431 C 0.30042 0.29511 0.57114 0.0
C432 C 0.3195 0.30332 0.50668 0.0
N433 N 0.34619 0.31771 0.52273 0.0
N434 N 0.30862 0.30173 0.6495 0.0
H435 H 0.37614 0.33524 0.61233 0.0
C436 C 0.26332 0.37389 0.25434 0.0
O437 O 0.27174 0.38068 0.32971 0.0
O438 O 0.41593 0.32319 0.45209 0.0
H439 H 0.313 0.29812 0.44437 0.0
H440 H 0.42428 0.37082 0.11289 0.0
H441 H 0.27915 0.28365 0.55903 0.0
Zn442 Zn 0.91982 0.0744 0.98644 0.0
C443 C 0.99275 0.11621 0.04292 0.0
N444 N 1.00633 0.09441 0.99873 0.0
C445 C 0.9855 0.07206 0.99757 0.0
N446 N 0.95972 0.08056 0.03681 0.0
N447 N 0.96514 0.10755 0.06922 0.0
C448 C 0.94489 0.18481 0.11692 0.0
O449 O 0.94164 0.17252 0.0438 0.0
O450 O 0.91134 0.03097 0.94905 0.0
Zn451 Zn 0.94413 0.12255 0.16507 0.0
N452 N 0.91785 0.10147 0.89133 0.0
C453 C 0.90351 0.1507 0.84511 0.0
C454 C 0.90622 0.12939 0.9078 0.0
C455 C 0.92725 0.09403 0.81383 0.0
N456 N 0.9126 0.14331 0.76802 0.0
C457 C 0.92458 0.11563 0.74957 0.0
O458 O 0.89863 0.11806 0.15902 0.0
C459 C 0.87778 0.10454 0.1191 0.0
O460 O 0.88394 0.08745 0.05802 0.0
H461 H 0.89911 0.13511 0.96949 0.0
H462 H 0.93699 0.07183 0.80316 0.0
C463 C 0.94895 0.10815 0.33953 0.0
C464 C 0.95864 0.09076 0.40774 0.0
C465 C 0.98647 0.05887 0.31738 0.0
C466 C 0.97718 0.07634 0.25044 0.0
N467 N 0.95843 0.1005 0.26236 0.0
N468 N 0.97697 0.06639 0.39412 0.0
H469 H 0.93358 0.12711 0.34724 0.0
C470 C 0.89683 0.01305 0.99643 0.0
O471 O 0.89031 0.02207 0.07144 0.0
O472 O 0.94988 0.16746 0.17808 0.0
H473 H 0.98477 0.07049 0.18937 0.0
H474 H 0.89425 0.17298 0.85752 0.0
H475 H 1.00113 0.03942 0.30842 0.0
Zn476 Zn 0.20089 0.67016 0.76966 0.0
C477 C 0.15695 0.74335 0.81823 0.0
N478 N 0.17777 0.75607 0.76903 0.0
C479 C 0.20051 0.73569 0.76924 0.0
N480 N 0.19321 0.71085 0.81432 0.0
N481 N 0.16662 0.7166 0.84887 0.0
C482 C 0.09204 0.69458 0.89794 0.0
O483 O 0.10628 0.68988 0.82812 0.0
O484 O 0.24561 0.66323 0.74202 0.0
Zn485 Zn 0.15296 0.69635 0.94752 0.0
N486 N 0.17631 0.66691 0.67016 0.0
C487 C 0.12873 0.65118 0.61512 0.0
C488 C 0.14832 0.6546 0.68165 0.0
C489 C 0.18545 0.67638 0.59411 0.0
N490 N 0.13775 0.66047 0.53943 0.0
C491 C 0.1655 0.67325 0.52642 0.0
O492 O 0.15753 0.65127 0.94324 0.0
C493 C 0.16986 0.62961 0.90406 0.0
O494 O 0.18666 0.63435 0.84142 0.0
H495 H 0.14125 0.64744 0.74229 0.0
H496 H 0.20799 0.68576 0.58659 0.0
C497 C 0.16989 0.70173 0.12074 0.0
C498 C 0.1887 0.7111 0.18668 0.0
C499 C 0.21983 0.73763 0.09117 0.0
C500 C 0.20139 0.72808 0.02661 0.0
N501 N 0.17672 0.71042 0.04228 0.0
N502 N 0.21315 0.72888 0.16911 0.0
H503 H 0.15002 0.68782 0.13111 0.0
C504 C 0.25338 0.63781 0.71099 0.0
O505 O 0.2321 0.61763 0.69604 0.0
O506 O 0.10779 0.70148 0.96097 0.0
H507 H 0.20675 0.73479 0.9644 0.0
H508 H 0.10646 0.64128 0.62352 0.0
H509 H 0.23946 0.75176 0.07943 0.0
Zn510 Zn 0.57843 0.90071 0.69082 0.0
C511 C 0.5352 0.94842 0.51971 0.0
N512 N 0.51466 0.92588 0.52407 0.0
C513 C 0.52858 0.9051 0.57102 0.0
N514 N 0.5561 0.91459 0.59609 0.0
N515 N 0.56109 0.94113 0.56041 0.0
C516 C 0.63327 1.0012 0.45341 0.0
O517 O 0.65347 0.97974 0.44063 0.0
O518 O 0.57261 0.85596 0.70964 0.0
Zn519 Zn 0.60125 0.94945 0.51333 0.0
N520 N 0.56742 0.92539 0.78623 0.0
C521 C 0.54463 0.97052 0.83806 0.0
C522 C 0.55184 0.95157 0.77243 0.0
C523 C 0.57616 0.91742 0.86377 0.0
N524 N 0.55369 0.96285 0.91508 0.0
C525 C 0.56958 0.93692 0.93048 0.0
O526 O 0.63818 0.93678 0.58225 0.0
C527 C 0.64424 0.91764 0.63881 0.0
O528 O 0.62338 0.90375 0.67728 0.0
H529 H 0.54492 0.95775 0.71097 0.0
H530 H 0.58777 0.89605 0.87273 0.0
C531 C 0.59754 0.93254 0.33784 0.0
C532 C 0.6019 0.9119 0.2724 0.0
C533 C 0.61932 0.87492 0.3677 0.0
C534 C 0.61517 0.89537 0.43192 0.0
N535 N 0.6046 0.92379 0.41611 0.0
N536 N 0.61272 0.88366 0.28973 0.0
H537 H 0.58921 0.9553 0.32669 0.0
C538 C 0.57835 0.83942 0.6474 0.0
O539 O 0.58116 0.85272 0.57548 0.0
O540 O 0.6075 0.99377 0.48294 0.0
H541 H 0.62049 0.88865 0.4942 0.0
H542 H 0.53211 0.99133 0.82786 0.0
H543 H 0.62781 0.85229 0.37964 0.0
C544 C 0.16581 0.17458 0.74401 0.0
C545 C 0.181 0.20182 0.76354 0.0
C546 C 0.16035 0.16614 0.66203 0.0
C547 C 0.17028 0.18418 0.59575 0.0
H548 H 0.1583 0.1593 0.792 0.0
H549 H 0.14833 0.14511 0.65041 0.0
S550 S 0.21028 0.25804 0.61184 0.0
N551 N 0.20536 0.24718 0.70819 0.0
N552 N 0.19531 0.23091 0.55472 0.0
C553 C 0.18569 0.21129 0.61381 0.0
C554 C 0.19103 0.22013 0.69737 0.0
C555 C 0.5683 0.43151 0.89507 0.0
C556 C 0.59539 0.41638 0.87496 0.0
C557 C 0.56028 0.43686 0.97745 0.0
C558 C 0.57904 0.42745 0.04324 0.0
H559 H 0.55276 0.43854 0.84697 0.0
H560 H 0.53888 0.44814 0.9896 0.0
S561 S 0.65443 0.39017 0.02184 0.0
N562 N 0.64199 0.39376 0.92645 0.0
N563 N 0.62766 0.40483 0.0808 0.0
C564 C 0.60678 0.41319 0.02347 0.0
C565 C 0.61472 0.40741 0.93955 0.0
C566 C 0.3234 0.8286 0.20463 0.0
C567 C 0.34727 0.82085 0.25853 0.0
C568 C 0.32898 0.83732 0.12266 0.0
C569 C 0.35871 0.8382 0.09054 0.0
H570 H 0.30014 0.82838 0.2264 0.0
H571 H 0.30979 0.844 0.08512 0.0
S572 S 0.429 0.81685 0.20428 0.0
N573 N 0.40157 0.81271 0.27253 0.0
N574 N 0.41223 0.82859 0.11911 0.0
C575 C 0.38274 0.82976 0.14368 0.0
C576 C 0.37701 0.82119 0.22726 0.0
C577 C 0.93855 0.57162 0.47454 0.0
C578 C 0.95004 0.59387 0.52835 0.0
C579 C 0.93243 0.57822 0.39169 0.0
C580 C 0.93791 0.60731 0.35891 0.0
H581 H 0.93372 0.54896 0.49703 0.0
H582 H 0.92263 0.5605 0.3539 0.0
S583 S 0.97083 0.67283 0.47234 0.0
N584 N 0.96859 0.64559 0.54188 0.0
N585 N 0.95725 0.65812 0.3864 0.0
C586 C 0.95006 0.62961 0.41188 0.0
C587 C 0.95613 0.62288 0.49639 0.0
C588 C 0.87223 0.82389 0.29345 0.0
C589 C 0.84284 0.82193 0.26024 0.0
C590 C 0.87692 0.83247 0.37566 0.0
C591 C 0.85249 0.83972 0.42853 0.0
H592 H 0.89179 0.81816 0.25614 0.0
H593 H 0.90009 0.83326 0.39803 0.0
S594 S 0.77098 0.84054 0.36852 0.0
N595 N 0.78887 0.82893 0.28498 0.0
N596 N 0.79764 0.8462 0.43834 0.0
C597 C 0.82291 0.83834 0.39539 0.0
C598 C 0.81814 0.82917 0.31172 0.0
C599 C 0.42464 0.60503 0.03305 0.0
C600 C 0.45268 0.59133 0.01368 0.0
C601 C 0.41561 0.60956 0.11505 0.0
C602 C 0.43387 0.60017 0.18159 0.0
H603 H 0.4092 0.61212 0.9849 0.0
H604 H 0.39399 0.62054 0.12646 0.0
S605 S 0.50968 0.56386 0.16609 0.0
N606 N 0.49896 0.56884 0.06963 0.0
N607 N 0.48162 0.57716 0.22295 0.0
C608 C 0.46176 0.58616 0.16367 0.0
C609 C 0.47118 0.58177 0.08012 0.0
C610 C 0.68504 0.20476 0.91168 0.0
C611 C 0.67223 0.17644 0.93107 0.0
C612 C 0.68966 0.21351 0.82947 0.0
C613 C 0.68177 0.1943 0.76327 0.0
H614 H 0.69064 0.22067 0.9602 0.0
H615 H 0.69902 0.23585 0.81776 0.0
S616 S 0.65131 0.11591 0.78278 0.0
N617 N 0.65381 0.12824 0.87848 0.0
N618 N 0.66355 0.14407 0.72446 0.0
C619 C 0.67008 0.16535 0.78234 0.0
C620 C 0.66504 0.15663 0.86603 0.0
C621 C 0.09852 0.41293 0.52877 0.0
C622 C 0.07118 0.42822 0.51035 0.0
C623 C 0.10761 0.40763 0.6104 0.0
C624 C 0.09019 0.41783 0.67756 0.0
H625 H 0.11343 0.40524 0.4802 0.0
H626 H 0.1287 0.39555 0.62102 0.0
S627 S 0.01646 0.45837 0.66488 0.0
N628 N 0.02645 0.45305 0.56803 0.0
N629 N 0.04395 0.44333 0.72067 0.0
C630 C 0.063 0.43336 0.66067 0.0
C631 C 0.05348 0.43851 0.57748 0.0
C632 C 0.69773 0.68192 0.13136 0.0
C633 C 0.66812 0.68373 0.09882 0.0
C634 C 0.70378 0.68964 0.21365 0.0
C635 C 0.68048 0.69909 0.26718 0.0
H636 H 0.71636 0.67379 0.09389 0.0
H637 H 0.7269 0.68766 0.23599 0.0
S638 S 0.59956 0.71046 0.21134 0.0
N639 N 0.61551 0.69771 0.12617 0.0
N640 N 0.62704 0.71194 0.28035 0.0
C641 C 0.65091 0.70158 0.23534 0.0
C642 C 0.64472 0.69393 0.15147 0.0
C643 C 0.09818 0.91799 0.47122 0.0
C644 C 0.06938 0.93041 0.48877 0.0
C645 C 0.10808 0.91374 0.38986 0.0
C646 C 0.08997 0.92215 0.32206 0.0
H647 H 0.11354 0.91172 0.52033 0.0
H648 H 0.13029 0.90378 0.37999 0.0
S649 S 0.01251 0.95509 0.33262 0.0
N650 N 0.02264 0.95075 0.42977 0.0
N651 N 0.04157 0.94294 0.2776 0.0
C652 C 0.06132 0.93491 0.33815 0.0
C653 C 0.05103 0.93902 0.4211 0.0
C654 C 0.86828 0.34506 0.74295 0.0
C655 C 0.84371 0.32732 0.77008 0.0
C656 C 0.87451 0.34838 0.65887 0.0
C657 C 0.85641 0.33421 0.5985 0.0
H658 H 0.88211 0.35746 0.78664 0.0
H659 H 0.89326 0.36288 0.64102 0.0
S660 S 0.79186 0.28208 0.63847 0.0
N661 N 0.80265 0.29345 0.73076 0.0
N662 N 0.81478 0.29913 0.57268 0.0
C663 C 0.83251 0.3154 0.62501 0.0
C664 C 0.82608 0.31214 0.71075 0.0
C665 C 0.455 0.09004 0.85765 0.0
C666 C 0.42952 0.10775 0.83747 0.0
C667 C 0.46282 0.08435 0.94 0.0
C668 C 0.44548 0.09599 1.00595 0.0
H669 H 0.46943 0.08098 0.80958 0.0
H670 H 0.4829 0.07082 0.95191 0.0
S671 S 0.37497 0.14199 0.98476 0.0
N672 N 0.38624 0.1361 0.88929 0.0
N673 N 0.40014 0.12464 0.04361 0.0
C674 C 0.41952 0.11335 0.98623 0.0
C675 C 0.4118 0.11941 0.90225 0.0
C676 C 0.36603 0.35605 0.85836 0.0
C677 C 0.35498 0.3381 0.92345 0.0
C678 C 0.35979 0.34882 0.77603 0.0
C679 C 0.34257 0.323 0.75512 0.0
H680 H 0.37939 0.37616 0.87119 0.0
H681 H 0.36814 0.36402 0.72883 0.0
S682 S 0.31017 0.26717 0.90289 0.0
N683 N 0.32712 0.2926 0.96168 0.0
N684 N 0.31546 0.27875 0.80729 0.0
C685 C 0.33162 0.30463 0.81993 0.0
C686 C 0.33783 0.31218 0.90387 0.0
C687 C 0.94108 0.07417 0.54732 0.0
C688 C 0.94941 0.09787 0.49366 0.0
C689 C 0.93334 0.07982 0.62983 0.0
C690 C 0.93411 0.10943 0.66269 0.0
H691 H 0.94016 0.05101 0.52501 0.0
H692 H 0.92617 0.06081 0.66728 0.0
S693 S 0.95725 0.17914 0.54916 0.0
N694 N 0.95962 0.1518 0.48008 0.0
N695 N 0.94562 0.16261 0.63473 0.0
C696 C 0.94301 0.13328 0.6096 0.0
C697 C 0.95055 0.12749 0.52543 0.0
C698 C 0.16901 0.67398 0.2927 0.0
C699 C 0.1831 0.70186 0.27404 0.0
C700 C 0.1641 0.66488 0.3744 0.0
C701 C 0.17342 0.68294 0.4413 0.0
H702 H 0.162 0.6587 0.24413 0.0
H703 H 0.15295 0.64331 0.38528 0.0
S704 S 0.21055 0.75839 0.4271 0.0
N705 N 0.20587 0.74779 0.33046 0.0
N706 N 0.1967 0.73047 0.48356 0.0
C707 C 0.18773 0.71075 0.42399 0.0
C708 C 0.19258 0.72019 0.34065 0.0
C709 C 0.56785 0.9347 0.16471 0.0
C710 C 0.59495 0.91968 0.18549 0.0
C711 C 0.55995 0.93985 0.08215 0.0
C712 C 0.57883 0.93026 0.01695 0.0
H713 H 0.55221 0.94181 0.21242 0.0
H714 H 0.53858 0.95111 0.06933 0.0
S715 S 0.65417 0.8931 0.03985 0.0
N716 N 0.64167 0.89699 0.13504 0.0
N717 N 0.62742 0.90753 0.98026 0.0
C718 C 0.60652 0.91606 0.03727 0.0
C719 C 0.61438 0.91056 0.12135 0.0
C720 C 0.24057 0.27323 0.30505 0.0
C721 C 0.234 0.24613 0.26232 0.0
C722 C 0.26898 0.2875 0.29858 0.0
C723 C 0.29214 0.27518 0.24932 0.0
H724 H 0.22341 0.2838 0.34327 0.0
H725 H 0.27305 0.30774 0.33472 0.0
S726 S 0.28636 0.20579 0.12039 0.0
N727 N 0.25291 0.2084 0.16568 0.0
N728 N 0.30628 0.23499 0.15418 0.0
C729 C 0.28577 0.2484 0.2051 0.0
C730 C 0.25685 0.23383 0.2118 0.0
C731 C 0.52498 0.53116 0.48022 0.0
C732 C 0.49768 0.53829 0.5214 0.0
C733 C 0.53951 0.50306 0.49114 0.0
C734 C 0.52733 0.48082 0.54374 0.0
H735 H 0.53547 0.54764 0.43968 0.0
H736 H 0.55984 0.49844 0.45579 0.0
S737 S 0.45732 0.48837 0.66966 0.0
N738 N 0.45973 0.52086 0.6195 0.0
N739 N 0.48694 0.46818 0.63987 0.0
C740 C 0.50033 0.48779 0.58636 0.0
C741 C 0.48544 0.51633 0.57489 0.0
C742 C 0.25466 0.73778 0.81472 0.0
C743 C 0.23196 0.74698 0.7592 0.0
C744 C 0.28243 0.75326 0.81956 0.0
C745 C 0.28876 0.77851 0.76898 0.0
H746 H 0.25065 0.71913 0.85686 0.0
H747 H 0.29938 0.74502 0.86251 0.0
S748 S 0.23736 0.81057 0.6098 0.0
N749 N 0.21789 0.78231 0.65067 0.0
N750 N 0.27018 0.81113 0.65894 0.0
C751 C 0.26634 0.78774 0.7125 0.0
C752 C 0.23806 0.77193 0.70751 0.0
C753 C 1.00787 0.49166 0.07066 0.0
C754 C 0.02949 0.48425 1.00962 0.0
C755 C 0.99412 0.5204 0.07374 0.0
C756 C 1.00146 0.54258 0.01548 0.0
H757 H 1.0012 0.47493 0.11596 0.0
H758 H 0.97797 0.52533 0.1222 0.0
S759 S 0.05527 0.53415 0.84059 0.0
N760 N 0.05639 0.50094 0.88782 0.0
N761 N 0.0312 0.55523 0.89364 0.0
C762 C 0.02287 0.53539 0.95366 0.0
C763 C 0.03673 0.50612 0.95061 0.0
C764 C 0.78373 0.75012 0.71496 0.0
C765 C 0.79047 0.77614 0.76207 0.0
C766 C 0.75583 0.73499 0.72244 0.0
C767 C 0.73343 0.74527 0.77742 0.0
H768 H 0.80039 0.7411 0.67242 0.0
H769 H 0.75146 0.71574 0.68267 0.0
S770 S 0.74025 0.81085 0.91972 0.0
N771 N 0.77271 0.81055 0.86893 0.0
N772 N 0.72036 0.78214 0.88289 0.0
C773 C 0.74007 0.77084 0.82624 0.0
C774 C 0.76841 0.78638 0.81828 0.0
C775 C 0.75524 0.23324 0.29769 0.0
C776 C 0.73126 0.24561 0.25136 0.0
C777 C 0.78374 0.24748 0.30046 0.0
C778 C 0.78938 0.27485 0.25798 0.0
H779 H 0.75182 0.21291 0.33403 0.0
H780 H 0.80171 0.2367 0.33552 0.0
S781 S 0.7342 0.31619 0.12633 0.0
N782 N 0.71526 0.28632 0.15984 0.0
N783 N 0.76832 0.31353 0.16779 0.0
C784 C 0.7655 0.28752 0.21195 0.0
C785 C 0.73669 0.2727 0.2076 0.0
C786 C 0.02222 0.03382 0.94405 0.0
C787 C 0.99638 0.04022 0.99226 0.0
C788 C 0.03729 1.0058 0.94936 0.0
C789 C 0.02719 0.98301 1.00341 0.0
H790 H 0.03118 0.05086 0.90249 0.0
H791 H 0.0564 1.00173 0.90887 0.0
S792 S 0.96174 0.98865 0.14678 0.0
N793 N 0.9621 0.02158 0.09824 0.0
N794 N 0.99038 0.96905 0.10838 0.0
C795 C 1.00167 0.98925 0.05293 0.0
C796 C 0.98617 0.01768 0.04702 0.0
C797 C 0.52016 0.03142 0.56282 0.0
C798 C 0.49412 0.03761 0.51499 0.0
C799 C 0.53493 1.00323 0.55931 0.0
C800 C 0.52417 0.97992 0.50805 0.0
H801 H 0.52962 0.04881 0.60244 0.0
H802 H 0.55432 0.99945 0.5991 0.0
S803 S 0.45772 0.98445 0.36772 0.0
N804 N 0.45885 0.01802 0.4127 0.0
N805 N 0.48634 0.96497 0.40683 0.0
C806 C 0.4983 0.98577 0.45948 0.0
C807 C 0.48323 0.01449 0.46311 0.0
C808 C 0.17008 0.04242 0.11989 0.0
C809 C 0.14286 0.03507 0.07851 0.0
C810 C 0.17774 0.07261 0.13866 0.0
C811 C 0.15868 0.09686 0.11605 0.0
H812 H 0.18576 0.0247 0.13825 0.0
H813 H 0.1989 0.07697 0.17061 0.0
S814 S 0.08401 0.09014 1.01044 0.0
N815 N 0.09626 0.05483 0.01811 0.0
N816 N 0.11065 0.11137 0.05274 0.0
C817 C 0.13125 0.08989 0.07518 0.0
C818 C 0.12334 0.05911 0.05667 0.0
C819 C 0.70208 0.42688 0.41253 0.0
C820 C 0.67809 0.40632 0.40047 0.0
C821 C 0.73224 0.41881 0.39425 0.0
C822 C 0.73978 0.38967 0.36425 0.0
H823 H 0.69749 0.44956 0.43517 0.0
H824 H 0.74975 0.43574 0.40347 0.0
S825 S 0.68547 0.32636 0.33057 0.0
N826 N 0.66404 0.35486 0.36163 0.0
N827 N 0.72055 0.33957 0.32879 0.0
C828 C 0.71601 0.3686 0.35424 0.0
C829 C 0.68527 0.37695 0.37191 0.0
C830 C 0.36842 0.94832 0.64989 0.0
C831 C 0.36262 0.92438 0.59463 0.0
C832 C 0.37913 0.97665 0.62186 0.0
C833 C 0.38385 0.98229 0.5374 0.0
H834 H 0.36554 0.94486 0.71545 0.0
H835 H 0.38348 0.99433 0.66666 0.0
S836 S 0.37143 0.92727 0.3675 0.0
N837 N 0.36223 0.90832 0.45153 0.0
N838 N 0.38153 0.96145 0.39893 0.0
C839 C 0.37762 0.95866 0.48159 0.0
C840 C 0.36725 0.92977 0.51015 0.0
C841 C 0.80766 0.64442 0.8273 0.0
C842 C 0.78347 0.62832 0.86333 0.0
C843 C 0.83804 0.63622 0.84192 0.0
C844 C 0.84573 0.61167 0.89389 0.0
H845 H 0.80316 0.66343 0.78669 0.0
H846 H 0.85565 0.64957 0.81262 0.0
S847 S 0.79094 0.56245 1.00533 0.0
N848 N 0.76937 0.58677 0.95462 0.0
N849 N 0.82628 0.57155 0.98226 0.0
C850 C 0.82175 0.5955 0.9309 0.0
C851 C 0.79075 0.60375 0.91561 0.0
C852 C 0.88004 0.95982 0.02546 0.0
C853 C 0.88603 0.98286 0.9676 0.0
C854 C 0.86923 0.93124 1.00096 0.0
C855 C 0.86318 0.9247 0.91776 0.0
H856 H 0.88421 0.96369 0.09034 0.0
H857 H 0.8657 0.91403 0.0477 0.0
S858 S 0.87459 0.97719 0.74168 0.0
N859 N 0.885 0.99716 0.82296 0.0
N860 N 0.86401 0.94367 0.77724 0.0
C861 C 0.86855 0.94766 0.85925 0.0
C862 C 0.88021 0.97663 0.88404 0.0
C863 C 0.29327 0.60229 0.65623 0.0
C864 C 0.28585 0.63025 0.69365 0.0
C865 C 0.32353 0.59411 0.6398 0.0
C866 C 0.34781 0.61332 0.661 0.0
H867 H 0.27555 0.58647 0.63906 0.0
H868 H 0.32791 0.57244 0.6106 0.0
S869 S 0.34095 0.68976 0.75662 0.0
N870 N 0.30558 0.67765 0.74892 0.0
N871 N 0.36226 0.66229 0.71881 0.0
C872 C 0.34077 0.64147 0.69806 0.0
C873 C 0.30991 0.64992 0.7141 0.0
C874 C 0.66949 0.04061 0.39995 0.0
C875 C 0.64137 0.03352 0.43692 0.0
C876 C 0.6783 0.07079 0.38525 0.0
C877 C 0.65954 0.09524 0.40787 0.0
H878 H 0.68497 0.0227 0.38189 0.0
H879 H 0.70007 0.07497 0.35631 0.0
S880 S 0.58296 0.08922 0.50325 0.0
N881 N 0.59436 0.05371 0.49344 0.0
N882 N 0.61085 0.11024 0.46652 0.0
C883 C 0.63123 0.08851 0.44444 0.0
C884 C 0.62215 0.05776 0.45869 0.0
C885 C 0.18228 0.40387 0.25122 0.0
C886 C 0.17628 0.40822 0.16694 0.0
C887 C 0.21043 0.39281 0.27855 0.0
C888 C 0.23355 0.3849 0.22267 0.0
H889 H 0.16498 0.40895 0.29661 0.0
H890 H 0.2139 0.39002 0.34414 0.0
S891 S 0.22907 0.39136 0.99501 0.0
N892 N 0.19572 0.40366 0.02754 0.0
N893 N 0.24844 0.38227 0.07858 0.0
C894 C 0.22782 0.38903 0.13804 0.0
C895 C 0.19929 0.40089 0.1103 0.0
C896 C 0.64464 0.56131 0.50881 0.0
C897 C 0.63797 0.53846 0.56665 0.0
C898 C 0.65591 0.58968 0.5334 0.0
C899 C 0.66171 0.59622 0.61673 0.0
H900 H 0.64066 0.55748 0.44383 0.0
H901 H 0.65993 0.60676 0.48661 0.0
S902 S 0.64871 0.54422 0.79292 0.0
N903 N 0.63825 0.52432 0.71153 0.0
N904 N 0.66002 0.57749 0.75736 0.0
C905 C 0.65573 0.57345 0.67526 0.0
C906 C 0.64365 0.54467 0.65037 0.0
C907 C 0.1983 0.90778 0.88473 0.0
C908 C 0.17467 0.91225 0.82749 0.0
C909 C 0.22681 0.89643 0.85997 0.0
C910 C 0.23296 0.88969 0.7768 0.0
H911 H 0.19445 0.91212 0.94952 0.0
H912 H 0.24421 0.89313 0.90629 0.0
S913 S 0.17898 0.89809 0.60249 0.0
N914 N 0.15951 0.9093 0.68379 0.0
N915 N 0.21295 0.88872 0.63728 0.0
C916 C 0.20966 0.89461 0.71892 0.0
C917 C 0.1806 0.90569 0.74422 0.0
C918 C 0.85767 0.4834 0.16481 0.0
C919 C 0.88547 0.49098 0.12673 0.0
C920 C 0.84941 0.45303 0.17943 0.0
C921 C 0.86852 0.42895 0.15607 0.0
H922 H 0.84183 0.50103 0.18264 0.0
H923 H 0.8276 0.44843 0.20767 0.0
S924 S 0.94486 0.43637 0.05985 0.0
N925 N 0.93277 0.47165 0.06978 0.0
N926 N 0.91752 0.41489 0.09746 0.0
C927 C 0.89679 0.43624 0.12002 0.0
C928 C 0.90519 0.46711 0.10533 0.0
C929 C 0.29758 0.13555 0.37576 0.0
C930 C 0.28889 0.13158 0.29286 0.0
C931 C 0.32582 0.12506 0.40493 0.0
C932 C 0.34656 0.1107 0.35194 0.0
H933 H 0.28243 0.14676 0.4186 0.0
H934 H 0.33189 0.12911 0.46864 0.0
S935 S 0.33491 0.09364 0.13105 0.0
N936 N 0.3034 0.11111 0.15925 0.0
N937 N 0.35654 0.09235 0.214 0.0
C938 C 0.3382 0.10639 0.26948 0.0
C939 C 0.30936 0.11655 0.23999 0.0
C940 C 0.38757 0.43495 0.44421 0.0
C941 C 0.3627 0.42766 0.39296 0.0
C942 C 0.3959 0.4652 0.45977 0.0
C943 C 0.37959 0.48962 0.42544 0.0
H944 H 0.40109 0.41712 0.47202 0.0
H945 H 0.41519 0.46943 0.49959 0.0
S946 S 0.31267 0.48317 0.28666 0.0
N947 N 0.32193 0.44769 0.30763 0.0
N948 N 0.33739 0.50437 0.33701 0.0
C949 C 0.35464 0.48272 0.37415 0.0
C950 C 0.34627 0.45187 0.35789 0.0
C951 C 0.80795 0.14467 0.2063 0.0
C952 C 0.78348 0.12767 0.17494 0.0
C953 C 0.83821 0.13657 0.1895 0.0
C954 C 0.84541 0.11128 0.13985 0.0
H955 H 0.80378 0.16436 0.2446 0.0
H956 H 0.85609 0.15067 0.21477 0.0
S957 S 0.78974 0.05923 0.04194 0.0
N958 N 0.76861 0.08422 0.09143 0.0
N959 N 0.82526 0.06923 0.0597 0.0
C960 C 0.82114 0.09409 0.108 0.0
C961 C 0.79031 0.10221 0.12555 0.0
C962 C 0.15743 0.59162 0.01332 0.0
C963 C 0.16197 0.59818 0.92945 0.0
C964 C 0.14706 0.56305 0.03927 0.0
C965 C 0.14008 0.53995 0.98238 0.0
H966 H 0.16179 0.60883 0.05948 0.0
H967 H 0.14404 0.55925 0.10464 0.0
S968 S 0.14718 0.5459 0.75505 0.0
N969 N 0.15845 0.57937 0.78924 0.0
N970 N 0.13841 0.52582 0.83758 0.0
C971 C 0.14442 0.54625 0.89807 0.0
C972 C 0.15555 0.57526 0.87176 0.0
C973 C 0.70008 0.92974 0.63994 0.0
C974 C 0.67639 0.90916 0.65566 0.0
C975 C 0.73055 0.92183 0.65458 0.0
C976 C 0.73869 0.89285 0.68455 0.0
H977 H 0.69506 0.95228 0.61689 0.0
H978 H 0.74784 0.93872 0.64233 0.0
S979 S 0.68526 0.8296 0.72827 0.0
N980 N 0.66322 0.85785 0.69851 0.0
N981 N 0.72028 0.84293 0.72497 0.0
C982 C 0.71519 0.87179 0.69865 0.0
C983 C 0.68416 0.87995 0.68453 0.0
C984 C 0.12828 0.27015 0.10674 0.0
C985 C 0.13047 0.25967 0.188 0.0
C986 C 0.10866 0.29415 0.08664 0.0
C987 C 0.09095 0.30856 0.1476 0.0
H988 H 0.14361 0.26162 0.06008 0.0
H989 H 0.10948 0.30308 0.02455 0.0
S990 S 0.0842 0.2844 0.3658 0.0
N991 N 0.11032 0.26171 0.32661 0.0
N992 N 0.07303 0.3065 0.28937 0.0
C993 C 0.09052 0.29571 0.22698 0.0
C994 C 0.11058 0.27142 0.24718 0.0
C995 C 0.50593 0.37598 0.38058 0.0
C996 C 0.5144 0.37832 0.46352 0.0
C997 C 0.48197 0.3569 0.35679 0.0
C998 C 0.46554 0.33994 0.41557 0.0
H999 H 0.51603 0.39082 0.33505 0.0
H1000 H 0.47467 0.35759 0.29313 0.0
S1001 S 0.48374 0.33385 0.63807 0.0
N1002 N 0.50817 0.35904 0.60223 0.0
N1003 N 0.46336 0.32287 0.55808 0.0
C1004 C 0.47626 0.33966 0.4972 0.0
C1005 C 0.50055 0.35912 0.52113 0.0
C1006 C 0.41479 0.729 0.59366 0.0
C1007 C 0.43132 0.71402 0.65616 0.0
C1008 C 0.39493 0.75295 0.61222 0.0
C1009 C 0.39121 0.7628 0.69358 0.0
H1010 H 0.41527 0.72069 0.53094 0.0
H1011 H 0.38071 0.76203 0.56379 0.0
S1012 S 0.43352 0.73602 0.87672 0.0
N1013 N 0.44613 0.71456 0.80073 0.0
N1014 N 0.40843 0.75927 0.83495 0.0
C1015 C 0.40973 0.75027 0.755 0.0
C1016 C 0.43005 0.72605 0.73638 0.0
C1017 C 0.04753 0.68318 0.98786 0.0
C1018 C 0.06053 0.68325 0.90872 0.0
C1019 C 0.02297 0.66422 1.00649 0.0
C1020 C 1.01026 0.64514 0.94652 0.0
H1021 H 0.05801 0.69572 0.03769 0.0
H1022 H 0.01555 0.66257 0.06995 0.0
S1023 S 0.03161 0.64116 0.72656 0.0
N1024 N 0.05525 0.66627 0.76646 0.0
N1025 N 1.00959 0.63015 0.80315 0.0
C1026 C 0.02064 0.64749 0.86537 0.0
C1027 C 0.04561 0.66686 0.84594 0.0
C1028 C 0.91896 0.73113 0.93207 0.0
C1029 C 0.93426 0.71466 0.87023 0.0
C1030 C 0.89914 0.75492 0.91188 0.0
C1031 C 0.89438 0.76315 0.82955 0.0
H1032 H 0.92008 0.72397 0.99579 0.0
H1033 H 0.88562 0.76501 0.9602 0.0
S1034 S 0.93421 0.73253 0.64692 0.0
N1035 N 0.94747 0.71235 0.72475 0.0
N1036 N 0.9099 0.75687 0.68742 0.0
C1037 C 0.91208 0.74937 0.76839 0.0
C1038 C 0.9323 0.72526 0.78865 0.0
C1039 C 0.52016 0.64688 0.66401 0.0
C1040 C 0.51065 0.64279 0.58242 0.0
C1041 C 0.54453 0.66625 0.68248 0.0
C1042 C 0.56029 0.68181 0.61964 0.0
H1043 H 0.51061 0.6331 0.71272 0.0
H1044 H 0.55263 0.66686 0.74542 0.0
S1045 S 0.53922 0.68329 0.39836 0.0
N1046 N 0.51516 0.65906 0.44043 0.0
N1047 N 0.56064 0.69585 0.47454 0.0
C1048 C 0.54847 0.68049 0.53918 0.0
C1049 C 0.52379 0.6607 0.52066 0.0
C1050 C 0.60856 0.29063 0.44979 0.0
C1051 C 0.59065 0.30612 0.39116 0.0
C1052 C 0.62789 0.26687 0.42629 0.0
C1053 C 0.62959 0.2577 0.34383 0.0
H1054 H 0.60978 0.29858 0.51278 0.0
H1055 H 0.64342 0.25756 0.47136 0.0
S1056 S 0.58274 0.28573 0.17054 0.0
N1057 N 0.57208 0.30659 0.24987 0.0
N1058 N 0.60882 0.2622 0.20621 0.0
C1059 C 0.60951 0.27056 0.28672 0.0
C1060 C 0.58976 0.29462 0.31037 0.0
C1061 C 1.00664 0.3757 0.15196 0.0
C1062 C 0.01478 0.38138 0.07 0.0
C1063 C 0.98304 0.35546 0.17074 0.0
C1064 C 0.96654 0.34066 0.10791 0.0
H1065 H 0.01683 0.38868 0.2013 0.0
H1066 H 0.97613 0.35345 0.23448 0.0
S1067 S 0.98338 0.34408 0.88431 0.0
N1068 N 1.00785 0.36782 0.92659 0.0
N1069 N 0.96353 0.32972 0.96126 0.0
C1070 C 0.97666 0.34402 0.0263 0.0
C1071 C 1.00066 0.36457 1.00748 0.0
C1072 C 0.59369 0.79686 0.74025 0.0
C1073 C 0.59099 0.8085 0.65987 0.0
C1074 C 0.61349 0.77282 0.75765 0.0
C1075 C 0.63098 0.75927 0.6954 0.0
H1076 H 0.58237 0.80791 0.7913 0.0
H1077 H 0.61682 0.76626 0.82134 0.0
S1078 S 0.62868 0.77773 0.47309 0.0
N1079 N 0.60423 0.80145 0.51541 0.0
N1080 N 0.64215 0.75707 0.54961 0.0
C1081 C 0.62636 0.76863 0.61396 0.0
C1082 C 0.60602 0.79298 0.59578 0.0
C1083 C 1.00281 0.87704 0.84491 0.0
C1084 C 0.01441 0.88006 0.9248 0.0
C1085 C 0.97856 0.85726 0.82898 0.0
C1086 C 0.96507 0.84022 0.89285 0.0
H1087 H 1.01054 0.89191 0.79626 0.0
H1088 H 0.96868 0.85751 0.76791 0.0
S1089 S 0.99274 0.83522 0.10828 0.0
N1090 N 0.01472 0.86101 0.06477 0.0
N1091 N 0.96944 0.82342 0.03529 0.0
C1092 C 0.97919 0.84039 0.97058 0.0
C1093 C 1.00373 0.8606 0.98657 0.0
C1094 C 0.89541 0.25396 0.09138 0.0
C1095 C 0.89299 0.26403 0.1729 0.0
C1096 C 0.91536 0.23027 0.07103 0.0
C1097 C 0.9331 0.21585 0.13204 0.0
H1098 H 0.87989 0.26242 0.04491 0.0
H1099 H 0.91461 0.22141 1.00888 0.0
S1100 S 0.93958 0.23952 0.35056 0.0
N1101 N 0.91317 0.26197 0.31158 0.0
N1102 N 0.95108 0.21781 0.27379 0.0
C1103 C 0.93348 0.22858 0.21148 0.0
C1104 C 0.91312 0.25252 0.23194 0.0
C1105 C 0.54829 0.17696 0.48189 0.0
C1106 C 0.56005 0.1799 0.40172 0.0
C1107 C 0.52411 0.15725 0.49839 0.0
C1108 C 0.51054 0.14016 0.4354 0.0
H1109 H 0.55934 0.18797 0.53344 0.0
H1110 H 0.51743 0.15369 0.56187 0.0
S1111 S 0.52924 0.1433 0.21343 0.0
N1112 N 0.55312 0.16736 0.2568 0.0
N1113 N 0.50837 0.12968 0.28925 0.0
C1114 C 0.52001 0.14506 0.35423 0.0
C1115 C 0.54453 0.16526 0.33699 0.0
C1116 C 0.43279 0.22569 0.29251 0.0
C1117 C 0.43431 0.21349 0.37251 0.0
C1118 C 0.41327 0.24987 0.27423 0.0
C1119 C 0.39494 0.26299 0.33531 0.0
H1120 H 0.44473 0.2149 0.2421 0.0
H1121 H 0.41067 0.25672 0.21052 0.0
S1122 S 0.39452 0.24358 0.55697 0.0
N1123 N 0.41936 0.2199 0.51602 0.0
N1124 N 0.38206 0.26471 0.48011 0.0
C1125 C 0.3986 0.25333 0.41683 0.0
C1126 C 0.41863 0.2288 0.43591 0.0
C1127 C 0.01847 0.14644 0.15183 0.0
C1128 C 1.00953 0.14329 0.06946 0.0
C1129 C 0.0424 0.16594 0.17334 0.0
C1130 C 0.05829 0.1826 0.11285 0.0
H1131 H 1.00879 0.13195 0.19875 0.0
H1132 H 0.05005 0.1659 0.23672 0.0
S1133 S 0.03876 0.18641 0.89071 0.0
N1134 N 0.01481 0.16133 0.9293 0.0
N1135 N 0.05945 0.19835 0.96907 0.0
C1136 C 0.04708 0.18202 0.03166 0.0
C1137 C 0.02287 0.16209 1.01005 0.0
C1138 C 0.09228 0.79696 0.79029 0.0
C1139 C 0.09033 0.8107 0.86829 0.0
C1140 C 0.11162 0.77223 0.77687 0.0
C1141 C 0.12929 0.7601 0.84095 0.0
H1142 H 0.08101 0.80697 0.73755 0.0
H1143 H 0.11471 0.76419 0.71438 0.0
S1144 S 0.12756 0.7834 0.05979 0.0
N1145 N 0.10357 0.80667 0.01363 0.0
N1146 N 0.1405 0.76076 0.98691 0.0
C1147 C 0.12489 0.77122 0.92077 0.0
C1148 C 0.10508 0.79635 0.93487 0.0
C1149 C 0.47615 0.83909 0.55458 0.0
C1150 C 0.46314 0.83821 0.63368 0.0
C1151 C 0.50027 0.8587 0.53693 0.0
C1152 C 0.51255 0.87763 0.5979 0.0
H1153 H 0.46594 0.82672 0.50403 0.0
H1154 H 0.50767 0.86093 0.47359 0.0
S1155 S 0.4914 0.87922 0.81825 0.0
N1156 N 0.46819 0.85403 0.7769 0.0
N1157 N 0.51311 0.89133 0.74224 0.0
C1158 C 0.50232 0.87437 0.67898 0.0
C1159 C 0.47777 0.85435 0.69737 0.0
loop_
_geom_bond_atom_site_label_1
_geom_bond_atom_site_label_2
_geom_bond_distance
_geom_bond_site_symmetry_2
_ccdc_geom_bond_type
Zn0 N4 2.020 . S
Zn0 O8 2.019 . S
Zn0 N10 2.119 . S
Zn0 O18 1.975 . S
C1 N2 1.334 . S
C1 N5 1.336 . S
N2 C1 1.334 . S
N2 C3 1.334 . S
C3 N2 1.334 . S
C3 N4 1.336 . S
N4 Zn0 2.020 . S
N4 C3 1.336 . S
N4 N5 1.354 . S
N5 C1 1.336 . S
N5 N4 1.354 . S
N5 Zn9 2.020 . S
C6 O7 1.244 . S
C6 O30 1.257 . S
O7 C6 1.244 . S
O8 Zn0 2.019 . S
O8 C28 1.257 . S
Zn9 N5 2.020 . S
Zn9 O16 1.975 . S
Zn9 N25 2.119 . S
Zn9 O30 2.019 . S
N10 Zn0 2.119 . S
N10 C12 1.334 . S
N10 C13 1.328 1_554 S
C11 C12 1.391 1_556 S
C11 N14 1.329 . S
C11 H32 0.930 . S
C12 N10 1.334 . S
C12 C11 1.391 1_554 S
C12 H19 0.930 . S
C13 N10 1.328 1_556 S
C13 C15 1.392 . S
C13 H20 0.930 . S
N14 C11 1.329 . S
N14 C15 1.331 . S
C15 C13 1.392 . S
C15 N14 1.331 . S
O16 Zn9 1.975 . S
O16 C17 1.252 . S
C17 O16 1.252 . S
C17 O18 1.252 . S
O18 Zn0 1.975 . S
O18 C17 1.252 . S
H19 C12 0.930 . S
H20 C13 0.930 . S
C21 C22 1.392 . S
C21 N25 1.328 . S
C21 H27 0.930 . S
C22 C21 1.392 . S
C22 N26 1.331 . S
C23 C24 1.391 . S
C23 N26 1.329 . S
C23 H33 0.930 . S
C24 C23 1.391 . S
C24 N25 1.334 . S
C24 H31 0.930 . S
N25 Zn9 2.119 . S
N25 C21 1.328 . S
N25 C24 1.334 . S
N26 C22 1.331 . S
N26 C23 1.329 . S
H27 C21 0.930 . S
C28 O8 1.257 . S
C28 O29 1.244 . S
O29 C28 1.244 . S
O30 C6 1.257 . S
O30 Zn9 2.019 . S
H31 C24 0.930 . S
H32 C11 0.930 . S
H33 C23 0.930 . S
Zn34 N38 2.020 . S
Zn34 O42 2.019 . S
Zn34 N44 2.119 . S
Zn34 O52 1.975 . S
C35 N36 1.334 . S
C35 N39 1.336 . S
N36 C35 1.334 . S
N36 C37 1.334 . S
C37 N36 1.334 . S
C37 N38 1.336 . S
N38 Zn34 2.020 . S
N38 C37 1.336 . S
N38 N39 1.354 . S
N39 C35 1.336 . S
N39 N38 1.354 . S
N39 Zn43 2.020 . S
C40 O41 1.244 . S
C40 O64 1.257 . S
O41 C40 1.244 . S
O42 Zn34 2.019 . S
O42 C62 1.257 . S
Zn43 N39 2.020 . S
Zn43 O50 1.975 . S
Zn43 N59 2.119 . S
Zn43 O64 2.019 . S
N44 Zn34 2.119 . S
N44 C46 1.334 . S
N44 C47 1.328 . S
C45 C46 1.391 . S
C45 N48 1.329 . S
C45 H66 0.930 . S
C46 N44 1.334 . S
C46 C45 1.391 . S
C46 H53 0.930 . S
C47 N44 1.328 . S
C47 C49 1.392 . S
C47 H54 0.930 . S
N48 C45 1.329 . S
N48 C49 1.331 . S
C49 C47 1.392 . S
C49 N48 1.331 . S
O50 Zn43 1.975 . S
O50 C51 1.252 . S
C51 O50 1.252 . S
C51 O52 1.252 . S
O52 Zn34 1.975 . S
O52 C51 1.252 . S
H53 C46 0.930 . S
H54 C47 0.930 . S
C55 C56 1.392 . S
C55 N59 1.328 . S
C55 H61 0.930 . S
C56 C55 1.392 . S
C56 N60 1.331 . S
C57 C58 1.391 . S
C57 N60 1.329 . S
C57 H67 0.930 . S
C58 C57 1.391 . S
C58 N59 1.334 . S
C58 H65 0.930 . S
N59 Zn43 2.119 . S
N59 C55 1.328 . S
N59 C58 1.334 . S
N60 C56 1.331 . S
N60 C57 1.329 . S
H61 C55 0.930 . S
C62 O42 1.257 . S
C62 O63 1.244 . S
O63 C62 1.244 . S
O64 C40 1.257 . S
O64 Zn43 2.019 . S
H65 C58 0.930 . S
H66 C45 0.930 . S
H67 C57 0.930 . S
Zn68 N72 2.020 . S
Zn68 O76 2.019 . S
Zn68 N78 2.119 . S
Zn68 O86 1.975 . S
C69 N70 1.334 . S
C69 N73 1.336 . S
N70 C69 1.334 . S
N70 C71 1.334 . S
C71 N70 1.334 . S
C71 N72 1.336 . S
N72 Zn68 2.020 . S
N72 C71 1.336 . S
N72 N73 1.354 . S
N73 C69 1.336 . S
N73 N72 1.354 . S
N73 Zn77 2.020 . S
C74 O75 1.244 . S
C74 O98 1.257 . S
O75 C74 1.244 . S
O76 Zn68 2.019 . S
O76 C96 1.257 . S
Zn77 N73 2.020 . S
Zn77 O84 1.975 . S
Zn77 N93 2.119 . S
Zn77 O98 2.019 . S
N78 Zn68 2.119 . S
N78 C80 1.334 . S
N78 C81 1.328 . S
C79 C80 1.391 . S
C79 N82 1.329 . S
C79 H100 0.930 . S
C80 N78 1.334 . S
C80 C79 1.391 . S
C80 H87 0.930 . S
C81 N78 1.328 . S
C81 C83 1.392 . S
C81 H88 0.930 . S
N82 C79 1.329 . S
N82 C83 1.331 . S
C83 C81 1.392 . S
C83 N82 1.331 . S
O84 Zn77 1.975 . S
O84 C85 1.252 . S
C85 O84 1.252 . S
C85 O86 1.252 . S
O86 Zn68 1.975 . S
O86 C85 1.252 . S
H87 C80 0.930 . S
H88 C81 0.930 . S
C89 C90 1.392 1_556 S
C89 N93 1.328 . S
C89 H95 0.930 . S
C90 C89 1.392 1_554 S
C90 N94 1.331 . S
C91 C92 1.391 . S
C91 N94 1.329 1_556 S
C91 H101 0.930 . S
C92 C91 1.391 . S
C92 N93 1.334 . S
C92 H99 0.930 . S
N93 Zn77 2.119 . S
N93 C89 1.328 . S
N93 C92 1.334 . S
N94 C90 1.331 . S
N94 C91 1.329 1_554 S
H95 C89 0.930 . S
C96 O76 1.257 . S
C96 O97 1.244 . S
O97 C96 1.244 . S
O98 C74 1.257 . S
O98 Zn77 2.019 . S
H99 C92 0.930 . S
H100 C79 0.930 . S
H101 C91 0.930 . S
Zn102 N106 2.020 . S
Zn102 O110 2.019 . S
Zn102 N112 2.119 . S
Zn102 O120 1.975 . S
C103 N104 1.334 . S
C103 N107 1.336 . S
N104 C103 1.334 . S
N104 C105 1.334 1_556 S
C105 N104 1.334 1_554 S
C105 N106 1.336 . S
N106 Zn102 2.020 . S
N106 C105 1.336 . S
N106 N107 1.354 1_554 S
N107 C103 1.336 . S
N107 N106 1.354 1_556 S
N107 Zn111 2.020 . S
C108 O109 1.244 . S
C108 O132 1.257 . S
O109 C108 1.244 . S
O110 Zn102 2.019 . S
O110 C130 1.257 . S
Zn111 N107 2.020 . S
Zn111 O118 1.975 . S
Zn111 N127 2.119 . S
Zn111 O132 2.019 . S
N112 Zn102 2.119 . S
N112 C114 1.334 . S
N112 C115 1.328 . S
C113 C114 1.391 . S
C113 N116 1.329 . S
C113 H134 0.930 . S
C114 N112 1.334 . S
C114 C113 1.391 . S
C114 H121 0.930 . S
C115 N112 1.328 . S
C115 C117 1.392 . S
C115 H122 0.930 . S
N116 C113 1.329 . S
N116 C117 1.331 . S
C117 C115 1.392 . S
C117 N116 1.331 . S
O118 Zn111 1.975 . S
O118 C119 1.252 . S
C119 O118 1.252 . S
C119 O120 1.252 1_556 S
O120 Zn102 1.975 . S
O120 C119 1.252 1_554 S
H121 C114 0.930 . S
H122 C115 0.930 . S
C123 C124 1.392 . S
C123 N127 1.328 . S
C123 H129 0.930 . S
C124 C123 1.392 . S
C124 N128 1.331 . S
C125 C126 1.391 . S
C125 N128 1.329 . S
C125 H135 0.930 . S
C126 C125 1.391 . S
C126 N127 1.334 . S
C126 H133 0.930 . S
N127 Zn111 2.119 . S
N127 C123 1.328 . S
N127 C126 1.334 . S
N128 C124 1.331 . S
N128 C125 1.329 . S
H129 C123 0.930 . S
C130 O110 1.257 . S
C130 O131 1.244 . S
O131 C130 1.244 . S
O132 C108 1.257 . S
O132 Zn111 2.019 . S
H133 C126 0.930 . S
H134 C113 0.930 . S
H135 C125 0.930 . S
Zn136 N140 2.020 . S
Zn136 O144 2.019 . S
Zn136 N146 2.119 . S
Zn136 O154 1.975 . S
C137 N138 1.334 . S
C137 N141 1.336 . S
N138 C137 1.334 . S
N138 C139 1.334 . S
C139 N138 1.334 . S
C139 N140 1.336 . S
N140 Zn136 2.020 . S
N140 C139 1.336 . S
N140 N141 1.354 . S
N141 C137 1.336 . S
N141 N140 1.354 . S
N141 Zn145 2.020 . S
C142 O143 1.244 . S
C142 O166 1.257 . S
O143 C142 1.244 . S
O144 Zn136 2.019 . S
O144 C164 1.257 . S
Zn145 N141 2.020 . S
Zn145 O152 1.975 . S
Zn145 N161 2.119 . S
Zn145 O166 2.019 . S
N146 Zn136 2.119 . S
N146 C148 1.334 . S
N146 C149 1.328 . S
C147 C148 1.391 . S
C147 N150 1.329 . S
C147 H168 0.930 . S
C148 N146 1.334 . S
C148 C147 1.391 . S
C148 H155 0.930 . S
C149 N146 1.328 . S
C149 C151 1.392 . S
C149 H156 0.930 . S
N150 C147 1.329 . S
N150 C151 1.331 . S
C151 C149 1.392 . S
C151 N150 1.331 . S
O152 Zn145 1.975 . S
O152 C153 1.252 . S
C153 O152 1.252 . S
C153 O154 1.252 . S
O154 Zn136 1.975 . S
O154 C153 1.252 . S
H155 C148 0.930 . S
H156 C149 0.930 . S
C157 C158 1.392 . S
C157 N161 1.328 1_554 S
C157 H163 0.930 . S
C158 C157 1.392 . S
C158 N162 1.331 . S
C159 C160 1.391 1_554 S
C159 N162 1.329 . S
C159 H169 0.930 . S
C160 C159 1.391 1_556 S
C160 N161 1.334 . S
C160 H167 0.930 . S
N161 Zn145 2.119 . S
N161 C157 1.328 1_556 S
N161 C160 1.334 . S
N162 C158 1.331 . S
N162 C159 1.329 . S
H163 C157 0.930 . S
C164 O144 1.257 . S
C164 O165 1.244 . S
O165 C164 1.244 . S
O166 C142 1.257 . S
O166 Zn145 2.019 . S
H167 C160 0.930 . S
H168 C147 0.930 . S
H169 C159 0.930 . S
Zn170 N174 2.020 . S
Zn170 O178 2.019 . S
Zn170 N180 2.119 . S
Zn170 O188 1.975 . S
C171 N172 1.334 . S
C171 N175 1.336 . S
N172 C171 1.334 . S
N172 C173 1.334 . S
C173 N172 1.334 . S
C173 N174 1.336 . S
N174 Zn170 2.020 . S
N174 C173 1.336 . S
N174 N175 1.354 . S
N175 C171 1.336 . S
N175 N174 1.354 . S
N175 Zn179 2.020 . S
C176 O177 1.244 . S
C176 O200 1.257 . S
O177 C176 1.244 . S
O178 Zn170 2.019 . S
O178 C198 1.257 . S
Zn179 N175 2.020 . S
Zn179 O186 1.975 . S
Zn179 N195 2.119 . S
Zn179 O200 2.019 . S
N180 Zn170 2.119 . S
N180 C182 1.334 . S
N180 C183 1.328 . S
C181 C182 1.391 . S
C181 N184 1.329 . S
C181 H202 0.930 . S
C182 N180 1.334 . S
C182 C181 1.391 . S
C182 H189 0.930 . S
C183 N180 1.328 . S
C183 C185 1.392 . S
C183 H190 0.930 . S
N184 C181 1.329 . S
N184 C185 1.331 . S
C185 C183 1.392 . S
C185 N184 1.331 . S
O186 Zn179 1.975 . S
O186 C187 1.252 . S
C187 O186 1.252 . S
C187 O188 1.252 . S
O188 Zn170 1.975 . S
O188 C187 1.252 . S
H189 C182 0.930 . S
H190 C183 0.930 . S
C191 C192 1.392 . S
C191 N195 1.328 . S
C191 H197 0.930 . S
C192 C191 1.392 . S
C192 N196 1.331 . S
C193 C194 1.391 . S
C193 N196 1.329 . S
C193 H203 0.930 . S
C194 C193 1.391 . S
C194 N195 1.334 . S
C194 H201 0.930 . S
N195 Zn179 2.119 . S
N195 C191 1.328 . S
N195 C194 1.334 . S
N196 C192 1.331 . S
N196 C193 1.329 . S
H197 C191 0.930 . S
C198 O178 1.257 . S
C198 O199 1.244 . S
O199 C198 1.244 . S
O200 C176 1.257 . S
O200 Zn179 2.019 . S
H201 C194 0.930 . S
H202 C181 0.930 . S
H203 C193 0.930 . S
Zn204 N208 2.020 . S
Zn204 O212 2.019 . S
Zn204 N214 2.119 . S
Zn204 O222 1.975 . S
C205 N206 1.334 . S
C205 N209 1.336 . S
N206 C205 1.334 . S
N206 C207 1.334 . S
C207 N206 1.334 . S
C207 N208 1.336 . S
N208 Zn204 2.020 . S
N208 C207 1.336 . S
N208 N209 1.354 . S
N209 C205 1.336 . S
N209 N208 1.354 . S
N209 Zn213 2.020 . S
C210 O211 1.244 . S
C210 O234 1.257 . S
O211 C210 1.244 . S
O212 Zn204 2.019 . S
O212 C232 1.257 . S
Zn213 N209 2.020 . S
Zn213 O220 1.975 . S
Zn213 N229 2.119 . S
Zn213 O234 2.019 . S
N214 Zn204 2.119 . S
N214 C216 1.334 . S
N214 C217 1.328 . S
C215 C216 1.391 . S
C215 N218 1.329 1_554 S
C215 H236 0.930 . S
C216 N214 1.334 . S
C216 C215 1.391 . S
C216 H223 0.930 . S
C217 N214 1.328 . S
C217 C219 1.392 1_554 S
C217 H224 0.930 . S
N218 C215 1.329 1_556 S
N218 C219 1.331 . S
C219 C217 1.392 1_556 S
C219 N218 1.331 . S
O220 Zn213 1.975 . S
O220 C221 1.252 . S
C221 O220 1.252 . S
C221 O222 1.252 . S
O222 Zn204 1.975 . S
O222 C221 1.252 . S
H223 C216 0.930 . S
H224 C217 0.930 . S
C225 C226 1.392 . S
C225 N229 1.328 . S
C225 H231 0.930 . S
C226 C225 1.392 . S
C226 N230 1.331 . S
C227 C228 1.391 . S
C227 N230 1.329 . S
C227 H237 0.930 . S
C228 C227 1.391 . S
C228 N229 1.334 . S
C228 H235 0.930 . S
N229 Zn213 2.119 . S
N229 C225 1.328 . S
N229 C228 1.334 . S
N230 C226 1.331 . S
N230 C227 1.329 . S
H231 C225 0.930 . S
C232 O212 1.257 . S
C232 O233 1.244 . S
O233 C232 1.244 . S
O234 C210 1.257 . S
O234 Zn213 2.019 . S
H235 C228 0.930 . S
H236 C215 0.930 . S
H237 C227 0.930 . S
Zn238 N242 2.020 . S
Zn238 O246 2.019 . S
Zn238 N248 2.119 . S
Zn238 O256 1.975 . S
C239 N240 1.334 1_556 S
C239 N243 1.336 . S
N240 C239 1.334 1_554 S
N240 C241 1.334 . S
C241 N240 1.334 . S
C241 N242 1.336 . S
N242 Zn238 2.020 . S
N242 C241 1.336 . S
N242 N243 1.354 1_554 S
N243 C239 1.336 . S
N243 N242 1.354 1_556 S
N243 Zn247 2.020 . S
C244 O245 1.244 . S
C244 O268 1.257 . S
O245 C244 1.244 . S
O246 Zn238 2.019 . S
O246 C266 1.257 . S
Zn247 N243 2.020 . S
Zn247 O254 1.975 . S
Zn247 N263 2.119 . S
Zn247 O268 2.019 . S
N248 Zn238 2.119 . S
N248 C250 1.334 . S
N248 C251 1.328 . S
C249 C250 1.391 . S
C249 N252 1.329 . S
C249 H270 0.930 . S
C250 N248 1.334 . S
C250 C249 1.391 . S
C250 H257 0.930 . S
C251 N248 1.328 . S
C251 C253 1.392 . S
C251 H258 0.930 . S
N252 C249 1.329 . S
N252 C253 1.331 . S
C253 C251 1.392 . S
C253 N252 1.331 . S
O254 Zn247 1.975 . S
O254 C255 1.252 1_556 S
C255 O254 1.252 1_554 S
C255 O256 1.252 . S
O256 Zn238 1.975 . S
O256 C255 1.252 . S
H257 C250 0.930 . S
H258 C251 0.930 . S
C259 C260 1.392 . S
C259 N263 1.328 . S
C259 H265 0.930 . S
C260 C259 1.392 . S
C260 N264 1.331 . S
C261 C262 1.391 . S
C261 N264 1.329 . S
C261 H271 0.930 . S
C262 C261 1.391 . S
C262 N263 1.334 . S
C262 H269 0.930 . S
N263 Zn247 2.119 . S
N263 C259 1.328 . S
N263 C262 1.334 . S
N264 C260 1.331 . S
N264 C261 1.329 . S
H265 C259 0.930 . S
C266 O246 1.257 . S
C266 O267 1.244 . S
O267 C266 1.244 . S
O268 C244 1.257 . S
O268 Zn247 2.019 . S
H269 C262 0.930 . S
H270 C249 0.930 . S
H271 C261 0.930 . S
Zn272 N276 2.020 . S
Zn272 O280 2.019 . S
Zn272 N282 2.119 . S
Zn272 O290 1.975 . S
C273 N274 1.334 . S
C273 N277 1.336 . S
N274 C273 1.334 . S
N274 C275 1.334 . S
C275 N274 1.334 . S
C275 N276 1.336 . S
N276 Zn272 2.020 . S
N276 C275 1.336 . S
N276 N277 1.354 . S
N277 C273 1.336 . S
N277 N276 1.354 . S
N277 Zn281 2.020 . S
C278 O279 1.244 . S
C278 O302 1.257 . S
O279 C278 1.244 . S
O280 Zn272 2.019 . S
O280 C300 1.257 . S
Zn281 N277 2.020 . S
Zn281 O288 1.975 . S
Zn281 N297 2.119 . S
Zn281 O302 2.019 . S
N282 Zn272 2.119 . S
N282 C284 1.334 . S
N282 C285 1.328 . S
C283 C284 1.391 . S
C283 N286 1.329 . S
C283 H304 0.930 . S
C284 N282 1.334 . S
C284 C283 1.391 . S
C284 H291 0.930 . S
C285 N282 1.328 . S
C285 C287 1.392 . S
C285 H292 0.930 . S
N286 C283 1.329 . S
N286 C287 1.331 . S
C287 C285 1.392 . S
C287 N286 1.331 . S
O288 Zn281 1.975 . S
O288 C289 1.252 . S
C289 O288 1.252 . S
C289 O290 1.252 . S
O290 Zn272 1.975 . S
O290 C289 1.252 . S
H291 C284 0.930 . S
H292 C285 0.930 . S
C293 C294 1.392 1_556 S
C293 N297 1.328 . S
C293 H299 0.930 . S
C294 C293 1.392 1_554 S
C294 N298 1.331 . S
C295 C296 1.391 . S
C295 N298 1.329 1_556 S
C295 H305 0.930 . S
C296 C295 1.391 . S
C296 N297 1.334 . S
C296 H303 0.930 . S
N297 Zn281 2.119 . S
N297 C293 1.328 . S
N297 C296 1.334 . S
N298 C294 1.331 . S
N298 C295 1.329 1_554 S
H299 C293 0.930 . S
C300 O280 1.257 . S
C300 O301 1.244 . S
O301 C300 1.244 . S
O302 C278 1.257 . S
O302 Zn281 2.019 . S
H303 C296 0.930 . S
H304 C283 0.930 . S
H305 C295 0.930 . S
Zn306 N310 2.020 . S
Zn306 O314 2.019 . S
Zn306 N316 2.119 . S
Zn306 O324 1.975 . S
C307 N308 1.334 1_554 S
C307 N311 1.336 . S
N308 C307 1.334 1_556 S
N308 C309 1.334 . S
C309 N308 1.334 . S
C309 N310 1.336 . S
N310 Zn306 2.020 . S
N310 C309 1.336 . S
N310 N311 1.354 1_556 S
N311 C307 1.336 . S
N311 N310 1.354 1_554 S
N311 Zn315 2.020 . S
C312 O313 1.244 . S
C312 O336 1.257 . S
O313 C312 1.244 . S
O314 Zn306 2.019 . S
O314 C334 1.257 . S
Zn315 N311 2.020 . S
Zn315 O322 1.975 . S
Zn315 N331 2.119 . S
Zn315 O336 2.019 . S
N316 Zn306 2.119 . S
N316 C318 1.334 . S
N316 C319 1.328 . S
C317 C318 1.391 . S
C317 N320 1.329 . S
C317 H338 0.930 . S
C318 N316 1.334 . S
C318 C317 1.391 . S
C318 H325 0.930 . S
C319 N316 1.328 . S
C319 C321 1.392 . S
C319 H326 0.930 . S
N320 C317 1.329 . S
N320 C321 1.331 . S
C321 C319 1.392 . S
C321 N320 1.331 . S
O322 Zn315 1.975 . S
O322 C323 1.252 1_554 S
C323 O322 1.252 1_556 S
C323 O324 1.252 . S
O324 Zn306 1.975 . S
O324 C323 1.252 . S
H325 C318 0.930 . S
H326 C319 0.930 . S
C327 C328 1.392 . S
C327 N331 1.328 . S
C327 H333 0.930 . S
C328 C327 1.392 . S
C328 N332 1.331 . S
C329 C330 1.391 . S
C329 N332 1.329 . S
C329 H339 0.930 . S
C330 C329 1.391 . S
C330 N331 1.334 . S
C330 H337 0.930 . S
N331 Zn315 2.119 . S
N331 C327 1.328 . S
N331 C330 1.334 . S
N332 C328 1.331 . S
N332 C329 1.329 . S
H333 C327 0.930 . S
C334 O314 1.257 . S
C334 O335 1.244 . S
O335 C334 1.244 . S
O336 C312 1.257 . S
O336 Zn315 2.019 . S
H337 C330 0.930 . S
H338 C317 0.930 . S
H339 C329 0.930 . S
Zn340 N344 2.020 . S
Zn340 O348 2.019 . S
Zn340 N350 2.119 . S
Zn340 O358 1.975 . S
C341 N342 1.334 . S
C341 N345 1.336 . S
N342 C341 1.334 . S
N342 C343 1.334 . S
C343 N342 1.334 . S
C343 N344 1.336 . S
N344 Zn340 2.020 . S
N344 C343 1.336 . S
N344 N345 1.354 . S
N345 C341 1.336 . S
N345 N344 1.354 . S
N345 Zn349 2.020 . S
C346 O347 1.244 . S
C346 O370 1.257 . S
O347 C346 1.244 . S
O348 Zn340 2.019 . S
O348 C368 1.257 . S
Zn349 N345 2.020 . S
Zn349 O356 1.975 . S
Zn349 N365 2.119 . S
Zn349 O370 2.019 . S
N350 Zn340 2.119 . S
N350 C352 1.334 . S
N350 C353 1.328 1_554 S
C351 C352 1.391 1_556 S
C351 N354 1.329 . S
C351 H372 0.930 . S
C352 N350 1.334 . S
C352 C351 1.391 1_554 S
C352 H359 0.930 . S
C353 N350 1.328 1_556 S
C353 C355 1.392 . S
C353 H360 0.930 . S
N354 C351 1.329 . S
N354 C355 1.331 . S
C355 C353 1.392 . S
C355 N354 1.331 . S
O356 Zn349 1.975 . S
O356 C357 1.252 . S
C357 O356 1.252 . S
C357 O358 1.252 . S
O358 Zn340 1.975 . S
O358 C357 1.252 . S
H359 C352 0.930 . S
H360 C353 0.930 . S
C361 C362 1.392 . S
C361 N365 1.328 . S
C361 H367 0.930 . S
C362 C361 1.392 . S
C362 N366 1.331 . S
C363 C364 1.391 . S
C363 N366 1.329 . S
C363 H373 0.930 . S
C364 C363 1.391 . S
C364 N365 1.334 . S
C364 H371 0.930 . S
N365 Zn349 2.119 . S
N365 C361 1.328 . S
N365 C364 1.334 . S
N366 C362 1.331 . S
N366 C363 1.329 . S
H367 C361 0.930 . S
C368 O348 1.257 . S
C368 O369 1.244 . S
O369 C368 1.244 . S
O370 C346 1.257 . S
O370 Zn349 2.019 . S
H371 C364 0.930 . S
H372 C351 0.930 . S
H373 C363 0.930 . S
Zn374 N378 2.020 . S
Zn374 O382 2.019 . S
Zn374 N384 2.119 . S
Zn374 O392 1.975 . S
C375 N376 1.334 . S
C375 N379 1.336 . S
N376 C375 1.334 . S
N376 C377 1.334 . S
C377 N376 1.334 . S
C377 N378 1.336 . S
N378 Zn374 2.020 . S
N378 C377 1.336 . S
N378 N379 1.354 . S
N379 C375 1.336 . S
N379 N378 1.354 . S
N379 Zn383 2.020 . S
C380 O381 1.244 . S
C380 O404 1.257 . S
O381 C380 1.244 . S
O382 Zn374 2.019 . S
O382 C402 1.257 . S
Zn383 N379 2.020 . S
Zn383 O390 1.975 . S
Zn383 N399 2.119 . S
Zn383 O404 2.019 . S
N384 Zn374 2.119 . S
N384 C386 1.334 . S
N384 C387 1.328 . S
C385 C386 1.391 . S
C385 N388 1.329 . S
C385 H406 0.930 . S
C386 N384 1.334 . S
C386 C385 1.391 . S
C386 H393 0.930 . S
C387 N384 1.328 . S
C387 C389 1.392 . S
C387 H394 0.930 . S
N388 C385 1.329 . S
N388 C389 1.331 . S
C389 C387 1.392 . S
C389 N388 1.331 . S
O390 Zn383 1.975 . S
O390 C391 1.252 . S
C391 O390 1.252 . S
C391 O392 1.252 . S
O392 Zn374 1.975 . S
O392 C391 1.252 . S
H393 C386 0.930 . S
H394 C387 0.930 . S
C395 C396 1.392 . S
C395 N399 1.328 . S
C395 H401 0.930 . S
C396 C395 1.392 . S
C396 N400 1.331 . S
C397 C398 1.391 . S
C397 N400 1.329 . S
C397 H407 0.930 . S
C398 C397 1.391 . S
C398 N399 1.334 . S
C398 H405 0.930 . S
N399 Zn383 2.119 . S
N399 C395 1.328 . S
N399 C398 1.334 . S
N400 C396 1.331 . S
N400 C397 1.329 . S
H401 C395 0.930 . S
C402 O382 1.257 . S
C402 O403 1.244 . S
O403 C402 1.244 . S
O404 C380 1.257 . S
O404 Zn383 2.019 . S
H405 C398 0.930 . S
H406 C385 0.930 . S
H407 C397 0.930 . S
Zn408 N412 2.020 . S
Zn408 O416 2.019 . S
Zn408 N418 2.119 . S
Zn408 O426 1.975 . S
C409 N410 1.334 . S
C409 N413 1.336 . S
N410 C409 1.334 . S
N410 C411 1.334 . S
C411 N410 1.334 . S
C411 N412 1.336 . S
N412 Zn408 2.020 . S
N412 C411 1.336 . S
N412 N413 1.354 . S
N413 C409 1.336 . S
N413 N412 1.354 . S
N413 Zn417 2.020 . S
C414 O415 1.244 . S
C414 O438 1.257 . S
O415 C414 1.244 . S
O416 Zn408 2.019 . S
O416 C436 1.257 . S
Zn417 N413 2.020 . S
Zn417 O424 1.975 . S
Zn417 N433 2.119 . S
Zn417 O438 2.019 . S
N418 Zn408 2.119 . S
N418 C420 1.334 . S
N418 C421 1.328 . S
C419 C420 1.391 . S
C419 N422 1.329 1_554 S
C419 H440 0.930 . S
C420 N418 1.334 . S
C420 C419 1.391 . S
C420 H427 0.930 . S
C421 N418 1.328 . S
C421 C423 1.392 1_554 S
C421 H428 0.930 . S
N422 C419 1.329 1_556 S
N422 C423 1.331 . S
C423 C421 1.392 1_556 S
C423 N422 1.331 . S
O424 Zn417 1.975 . S
O424 C425 1.252 . S
C425 O424 1.252 . S
C425 O426 1.252 . S
O426 Zn408 1.975 . S
O426 C425 1.252 . S
H427 C420 0.930 . S
H428 C421 0.930 . S
C429 C430 1.392 . S
C429 N433 1.328 . S
C429 H435 0.930 . S
C430 C429 1.392 . S
C430 N434 1.331 . S
C431 C432 1.391 . S
C431 N434 1.329 . S
C431 H441 0.930 . S
C432 C431 1.391 . S
C432 N433 1.334 . S
C432 H439 0.930 . S
N433 Zn417 2.119 . S
N433 C429 1.328 . S
N433 C432 1.334 . S
N434 C430 1.331 . S
N434 C431 1.329 . S
H435 C429 0.930 . S
C436 O416 1.257 . S
C436 O437 1.244 . S
O437 C436 1.244 . S
O438 C414 1.257 . S
O438 Zn417 2.019 . S
H439 C432 0.930 . S
H440 C419 0.930 . S
H441 C431 0.930 . S
Zn442 N446 2.020 . S
Zn442 O450 2.019 . S
Zn442 N452 2.119 . S
Zn442 O460 1.975 . S
C443 N444 1.334 . S
C443 N447 1.336 . S
N444 C443 1.334 . S
N444 C445 1.334 1_554 S
C445 N444 1.334 1_556 S
C445 N446 1.336 . S
N446 Zn442 2.020 . S
N446 C445 1.336 . S
N446 N447 1.354 1_556 S
N447 C443 1.336 . S
N447 N446 1.354 1_554 S
N447 Zn451 2.020 . S
C448 O449 1.244 . S
C448 O472 1.257 . S
O449 C448 1.244 . S
O450 Zn442 2.019 . S
O450 C470 1.257 . S
Zn451 N447 2.020 . S
Zn451 O458 1.975 . S
Zn451 N467 2.119 . S
Zn451 O472 2.019 . S
N452 Zn442 2.119 . S
N452 C454 1.334 . S
N452 C455 1.328 . S
C453 C454 1.391 . S
C453 N456 1.329 . S
C453 H474 0.930 . S
C454 N452 1.334 . S
C454 C453 1.391 . S
C454 H461 0.930 . S
C455 N452 1.328 . S
C455 C457 1.392 . S
C455 H462 0.930 . S
N456 C453 1.329 . S
N456 C457 1.331 . S
C457 C455 1.392 . S
C457 N456 1.331 . S
O458 Zn451 1.975 . S
O458 C459 1.252 . S
C459 O458 1.252 . S
C459 O460 1.252 1_554 S
O460 Zn442 1.975 . S
O460 C459 1.252 1_556 S
H461 C454 0.930 . S
H462 C455 0.930 . S
C463 C464 1.392 . S
C463 N467 1.328 . S
C463 H469 0.930 . S
C464 C463 1.392 . S
C464 N468 1.331 . S
C465 C466 1.391 . S
C465 N468 1.329 . S
C465 H475 0.930 . S
C466 C465 1.391 . S
C466 N467 1.334 . S
C466 H473 0.930 . S
N467 Zn451 2.119 . S
N467 C463 1.328 . S
N467 C466 1.334 . S
N468 C464 1.331 . S
N468 C465 1.329 . S
H469 C463 0.930 . S
C470 O450 1.257 . S
C470 O471 1.244 . S
O471 C470 1.244 . S
O472 C448 1.257 . S
O472 Zn451 2.019 . S
H473 C466 0.930 . S
H474 C453 0.930 . S
H475 C465 0.930 . S
Zn476 N480 2.020 . S
Zn476 O484 2.019 . S
Zn476 N486 2.119 . S
Zn476 O494 1.975 . S
C477 N478 1.334 . S
C477 N481 1.336 . S
N478 C477 1.334 . S
N478 C479 1.334 . S
C479 N478 1.334 . S
C479 N480 1.336 . S
N480 Zn476 2.020 . S
N480 C479 1.336 . S
N480 N481 1.354 . S
N481 C477 1.336 . S
N481 N480 1.354 . S
N481 Zn485 2.020 . S
C482 O483 1.244 . S
C482 O506 1.257 . S
O483 C482 1.244 . S
O484 Zn476 2.019 . S
O484 C504 1.257 . S
Zn485 N481 2.020 . S
Zn485 O492 1.975 . S
Zn485 N501 2.119 . S
Zn485 O506 2.019 . S
N486 Zn476 2.119 . S
N486 C488 1.334 . S
N486 C489 1.328 . S
C487 C488 1.391 . S
C487 N490 1.329 . S
C487 H508 0.930 . S
C488 N486 1.334 . S
C488 C487 1.391 . S
C488 H495 0.930 . S
C489 N486 1.328 . S
C489 C491 1.392 . S
C489 H496 0.930 . S
N490 C487 1.329 . S
N490 C491 1.331 . S
C491 C489 1.392 . S
C491 N490 1.331 . S
O492 Zn485 1.975 . S
O492 C493 1.252 . S
C493 O492 1.252 . S
C493 O494 1.252 . S
O494 Zn476 1.975 . S
O494 C493 1.252 . S
H495 C488 0.930 . S
H496 C489 0.930 . S
C497 C498 1.392 . S
C497 N501 1.328 1_554 S
C497 H503 0.930 . S
C498 C497 1.392 . S
C498 N502 1.331 . S
C499 C500 1.391 1_554 S
C499 N502 1.329 . S
C499 H509 0.930 . S
C500 C499 1.391 1_556 S
C500 N501 1.334 . S
C500 H507 0.930 . S
N501 Zn485 2.119 . S
N501 C497 1.328 1_556 S
N501 C500 1.334 . S
N502 C498 1.331 . S
N502 C499 1.329 . S
H503 C497 0.930 . S
C504 O484 1.257 . S
C504 O505 1.244 . S
O505 C504 1.244 . S
O506 C482 1.257 . S
O506 Zn485 2.019 . S
H507 C500 0.930 . S
H508 C487 0.930 . S
H509 C499 0.930 . S
Zn510 N514 2.020 . S
Zn510 O518 2.019 . S
Zn510 N520 2.119 . S
Zn510 O528 1.975 . S
C511 N512 1.334 . S
C511 N515 1.336 . S
N512 C511 1.334 . S
N512 C513 1.334 . S
C513 N512 1.334 . S
C513 N514 1.336 . S
N514 Zn510 2.020 . S
N514 C513 1.336 . S
N514 N515 1.354 . S
N515 C511 1.336 . S
N515 N514 1.354 . S
N515 Zn519 2.020 . S
C516 O517 1.244 . S
C516 O540 1.257 . S
O517 C516 1.244 . S
O518 Zn510 2.019 . S
O518 C538 1.257 . S
Zn519 N515 2.020 . S
Zn519 O526 1.975 . S
Zn519 N535 2.119 . S
Zn519 O540 2.019 . S
N520 Zn510 2.119 . S
N520 C522 1.334 . S
N520 C523 1.328 . S
C521 C522 1.391 . S
C521 N524 1.329 . S
C521 H542 0.930 . S
C522 N520 1.334 . S
C522 C521 1.391 . S
C522 H529 0.930 . S
C523 N520 1.328 . S
C523 C525 1.392 . S
C523 H530 0.930 . S
N524 C521 1.329 . S
N524 C525 1.331 . S
C525 C523 1.392 . S
C525 N524 1.331 . S
O526 Zn519 1.975 . S
O526 C527 1.252 . S
C527 O526 1.252 . S
C527 O528 1.252 . S
O528 Zn510 1.975 . S
O528 C527 1.252 . S
H529 C522 0.930 . S
H530 C523 0.930 . S
C531 C532 1.392 . S
C531 N535 1.328 . S
C531 H537 0.930 . S
C532 C531 1.392 . S
C532 N536 1.331 . S
C533 C534 1.391 . S
C533 N536 1.329 . S
C533 H543 0.930 . S
C534 C533 1.391 . S
C534 N535 1.334 . S
C534 H541 0.930 . S
N535 Zn519 2.119 . S
N535 C531 1.328 . S
N535 C534 1.334 . S
N536 C532 1.331 . S
N536 C533 1.329 . S
H537 C531 0.930 . S
C538 O518 1.257 . S
C538 O539 1.244 . S
O539 C538 1.244 . S
O540 C516 1.257 . S
O540 Zn519 2.019 . S
H541 C534 0.930 . S
H542 C521 0.930 . S
H543 C533 0.930 . S
C544 C545 1.369 . S
C544 C546 1.419 . S
C544 H548 0.930 . S
C545 C544 1.369 . S
C545 C554 1.429 . S
C546 C544 1.419 . S
C546 C547 1.363 . S
C546 H549 0.929 . S
C547 C546 1.363 . S
C547 C553 1.428 . S
H548 C544 0.930 . S
H549 C546 0.929 . S
S550 N551 1.613 . S
S550 N552 1.610 . S
N551 S550 1.613 . S
N551 C554 1.350 . S
N552 S550 1.610 . S
N552 C553 1.351 . S
C553 C547 1.428 . S
C553 N552 1.351 . S
C553 C554 1.434 . S
C554 C545 1.429 . S
C554 N551 1.350 . S
C554 C553 1.434 . S
C555 C556 1.369 . S
C555 C557 1.419 1_556 S
C555 H559 0.930 . S
C556 C555 1.369 . S
C556 C565 1.429 . S
C557 C555 1.419 1_554 S
C557 C558 1.363 . S
C557 H560 0.929 . S
C558 C557 1.363 . S
C558 C564 1.428 . S
H559 C555 0.930 . S
H560 C557 0.929 . S
S561 N562 1.613 . S
S561 N563 1.610 1_556 S
N562 S561 1.613 . S
N562 C565 1.350 . S
N563 S561 1.610 1_554 S
N563 C564 1.351 . S
C564 C558 1.428 . S
C564 N563 1.351 . S
C564 C565 1.434 1_554 S
C565 C556 1.429 . S
C565 N562 1.350 . S
C565 C564 1.434 1_556 S
C566 C567 1.369 . S
C566 C568 1.419 . S
C566 H570 0.930 . S
C567 C566 1.369 . S
C567 C576 1.429 . S
C568 C566 1.419 . S
C568 C569 1.363 . S
C568 H571 0.929 . S
C569 C568 1.363 . S
C569 C575 1.428 . S
H570 C566 0.930 . S
H571 C568 0.929 . S
S572 N573 1.613 . S
S572 N574 1.610 . S
N573 S572 1.613 . S
N573 C576 1.350 . S
N574 S572 1.610 . S
N574 C575 1.351 . S
C575 C569 1.428 . S
C575 N574 1.351 . S
C575 C576 1.434 . S
C576 C567 1.429 . S
C576 N573 1.350 . S
C576 C575 1.434 . S
C577 C578 1.369 . S
C577 C579 1.419 . S
C577 H581 0.930 . S
C578 C577 1.369 . S
C578 C587 1.429 . S
C579 C577 1.419 . S
C579 C580 1.363 . S
C579 H582 0.929 . S
C580 C579 1.363 . S
C580 C586 1.428 . S
H581 C577 0.930 . S
H582 C579 0.929 . S
S583 N584 1.613 . S
S583 N585 1.610 . S
N584 S583 1.613 . S
N584 C587 1.350 . S
N585 S583 1.610 . S
N585 C586 1.351 . S
C586 C580 1.428 . S
C586 N585 1.351 . S
C586 C587 1.434 . S
C587 C578 1.429 . S
C587 N584 1.350 . S
C587 C586 1.434 . S
C588 C589 1.369 . S
C588 C590 1.419 . S
C588 H592 0.930 . S
C589 C588 1.369 . S
C589 C598 1.429 . S
C590 C588 1.419 . S
C590 C591 1.363 . S
C590 H593 0.929 . S
C591 C590 1.363 . S
C591 C597 1.428 . S
H592 C588 0.930 . S
H593 C590 0.929 . S
S594 N595 1.613 . S
S594 N596 1.610 . S
N595 S594 1.613 . S
N595 C598 1.350 . S
N596 S594 1.610 . S
N596 C597 1.351 . S
C597 C591 1.428 . S
C597 N596 1.351 . S
C597 C598 1.434 . S
C598 C589 1.429 . S
C598 N595 1.350 . S
C598 C597 1.434 . S
C599 C600 1.369 . S
C599 C601 1.419 1_556 S
C599 H603 0.930 . S
C600 C599 1.369 . S
C600 C609 1.429 . S
C601 C599 1.419 1_554 S
C601 C602 1.363 . S
C601 H604 0.929 . S
C602 C601 1.363 . S
C602 C608 1.428 . S
H603 C599 0.930 . S
H604 C601 0.929 . S
S605 N606 1.613 . S
S605 N607 1.610 1_556 S
N606 S605 1.613 . S
N606 C609 1.350 . S
N607 S605 1.610 1_554 S
N607 C608 1.351 . S
C608 C602 1.428 . S
C608 N607 1.351 . S
C608 C609 1.434 1_554 S
C609 C600 1.429 . S
C609 N606 1.350 . S
C609 C608 1.434 1_556 S
C610 C611 1.369 . S
C610 C612 1.419 . S
C610 H614 0.930 . S
C611 C610 1.369 . S
C611 C620 1.429 . S
C612 C610 1.419 . S
C612 C613 1.363 . S
C612 H615 0.929 . S
C613 C612 1.363 . S
C613 C619 1.428 . S
H614 C610 0.930 . S
H615 C612 0.929 . S
S616 N617 1.613 . S
S616 N618 1.610 . S
N617 S616 1.613 . S
N617 C620 1.350 . S
N618 S616 1.610 . S
N618 C619 1.351 . S
C619 C613 1.428 . S
C619 N618 1.351 . S
C619 C620 1.434 . S
C620 C611 1.429 . S
C620 N617 1.350 . S
C620 C619 1.434 . S
C621 C622 1.369 . S
C621 C623 1.419 . S
C621 H625 0.930 . S
C622 C621 1.369 . S
C622 C631 1.429 . S
C623 C621 1.419 . S
C623 C624 1.363 . S
C623 H626 0.929 . S
C624 C623 1.363 . S
C624 C630 1.428 . S
H625 C621 0.930 . S
H626 C623 0.929 . S
S627 N628 1.613 . S
S627 N629 1.610 . S
N628 S627 1.613 . S
N628 C631 1.350 . S
N629 S627 1.610 . S
N629 C630 1.351 . S
C630 C624 1.428 . S
C630 N629 1.351 . S
C630 C631 1.434 . S
C631 C622 1.429 . S
C631 N628 1.350 . S
C631 C630 1.434 . S
C632 C633 1.369 . S
C632 C634 1.419 . S
C632 H636 0.930 . S
C633 C632 1.369 . S
C633 C642 1.429 . S
C634 C632 1.419 . S
C634 C635 1.363 . S
C634 H637 0.929 . S
C635 C634 1.363 . S
C635 C641 1.428 . S
H636 C632 0.930 . S
H637 C634 0.929 . S
S638 N639 1.613 . S
S638 N640 1.610 . S
N639 S638 1.613 . S
N639 C642 1.350 . S
N640 S638 1.610 . S
N640 C641 1.351 . S
C641 C635 1.428 . S
C641 N640 1.351 . S
C641 C642 1.434 . S
C642 C633 1.429 . S
C642 N639 1.350 . S
C642 C641 1.434 . S
C643 C644 1.369 . S
C643 C645 1.419 . S
C643 H647 0.930 . S
C644 C643 1.369 . S
C644 C653 1.429 . S
C645 C643 1.419 . S
C645 C646 1.363 . S
C645 H648 0.929 . S
C646 C645 1.363 . S
C646 C652 1.428 . S
H647 C643 0.930 . S
H648 C645 0.929 . S
S649 N650 1.613 . S
S649 N651 1.610 . S
N650 S649 1.613 . S
N650 C653 1.350 . S
N651 S649 1.610 . S
N651 C652 1.351 . S
C652 C646 1.428 . S
C652 N651 1.351 . S
C652 C653 1.434 . S
C653 C644 1.429 . S
C653 N650 1.350 . S
C653 C652 1.434 . S
C654 C655 1.369 . S
C654 C656 1.419 . S
C654 H658 0.930 . S
C655 C654 1.369 . S
C655 C664 1.429 . S
C656 C654 1.419 . S
C656 C657 1.363 . S
C656 H659 0.929 . S
C657 C656 1.363 . S
C657 C663 1.428 . S
H658 C654 0.930 . S
H659 C656 0.929 . S
S660 N661 1.613 . S
S660 N662 1.610 . S
N661 S660 1.613 . S
N661 C664 1.350 . S
N662 S660 1.610 . S
N662 C663 1.351 . S
C663 C657 1.428 . S
C663 N662 1.351 . S
C663 C664 1.434 . S
C664 C655 1.429 . S
C664 N661 1.350 . S
C664 C663 1.434 . S
C665 C666 1.369 . S
C665 C667 1.419 1_556 S
C665 H669 0.930 . S
C666 C665 1.369 . S
C666 C675 1.429 . S
C667 C665 1.419 1_554 S
C667 C668 1.363 . S
C667 H670 0.929 . S
C668 C667 1.363 . S
C668 C674 1.428 . S
H669 C665 0.930 . S
H670 C667 0.929 . S
S671 N672 1.613 . S
S671 N673 1.610 1_556 S
N672 S671 1.613 . S
N672 C675 1.350 . S
N673 S671 1.610 1_554 S
N673 C674 1.351 . S
C674 C668 1.428 . S
C674 N673 1.351 . S
C674 C675 1.434 1_554 S
C675 C666 1.429 . S
C675 N672 1.350 . S
C675 C674 1.434 1_556 S
C676 C677 1.369 . S
C676 C678 1.419 . S
C676 H680 0.930 . S
C677 C676 1.369 . S
C677 C686 1.429 . S
C678 C676 1.419 . S
C678 C679 1.363 . S
C678 H681 0.929 . S
C679 C678 1.363 . S
C679 C685 1.428 . S
H680 C676 0.930 . S
H681 C678 0.929 . S
S682 N683 1.613 . S
S682 N684 1.610 . S
N683 S682 1.613 . S
N683 C686 1.350 . S
N684 S682 1.610 . S
N684 C685 1.351 . S
C685 C679 1.428 . S
C685 N684 1.351 . S
C685 C686 1.434 . S
C686 C677 1.429 . S
C686 N683 1.350 . S
C686 C685 1.434 . S
C687 C688 1.369 . S
C687 C689 1.419 . S
C687 H691 0.930 . S
C688 C687 1.369 . S
C688 C697 1.429 . S
C689 C687 1.419 . S
C689 C690 1.363 . S
C689 H692 0.929 . S
C690 C689 1.363 . S
C690 C696 1.428 . S
H691 C687 0.930 . S
H692 C689 0.929 . S
S693 N694 1.613 . S
S693 N695 1.610 . S
N694 S693 1.613 . S
N694 C697 1.350 . S
N695 S693 1.610 . S
N695 C696 1.351 . S
C696 C690 1.428 . S
C696 N695 1.351 . S
C696 C697 1.434 . S
C697 C688 1.429 . S
C697 N694 1.350 . S
C697 C696 1.434 . S
C698 C699 1.369 . S
C698 C700 1.419 . S
C698 H702 0.930 . S
C699 C698 1.369 . S
C699 C708 1.429 . S
C700 C698 1.419 . S
C700 C701 1.363 . S
C700 H703 0.929 . S
C701 C700 1.363 . S
C701 C707 1.428 . S
H702 C698 0.930 . S
H703 C700 0.929 . S
S704 N705 1.613 . S
S704 N706 1.610 . S
N705 S704 1.613 . S
N705 C708 1.350 . S
N706 S704 1.610 . S
N706 C707 1.351 . S
C707 C701 1.428 . S
C707 N706 1.351 . S
C707 C708 1.434 . S
C708 C699 1.429 . S
C708 N705 1.350 . S
C708 C707 1.434 . S
C709 C710 1.369 . S
C709 C711 1.419 1_554 S
C709 H713 0.930 . S
C710 C709 1.369 . S
C710 C719 1.429 . S
C711 C709 1.419 1_556 S
C711 C712 1.363 . S
C711 H714 0.929 . S
C712 C711 1.363 . S
C712 C718 1.428 . S
H713 C709 0.930 . S
H714 C711 0.929 . S
S715 N716 1.613 . S
S715 N717 1.610 1_554 S
N716 S715 1.613 . S
N716 C719 1.350 . S
N717 S715 1.610 1_556 S
N717 C718 1.351 . S
C718 C712 1.428 . S
C718 N717 1.351 . S
C718 C719 1.434 1_556 S
C719 C710 1.429 . S
C719 N716 1.350 . S
C719 C718 1.434 1_554 S
C720 C721 1.369 . S
C720 C722 1.419 . S
C720 H724 0.930 . S
C721 C720 1.369 . S
C721 C730 1.429 . S
C722 C720 1.419 . S
C722 C723 1.363 . S
C722 H725 0.929 . S
C723 C722 1.363 . S
C723 C729 1.428 . S
H724 C720 0.930 . S
H725 C722 0.929 . S
S726 N727 1.613 . S
S726 N728 1.610 . S
N727 S726 1.613 . S
N727 C730 1.350 . S
N728 S726 1.610 . S
N728 C729 1.351 . S
C729 C723 1.428 . S
C729 N728 1.351 . S
C729 C730 1.434 . S
C730 C721 1.429 . S
C730 N727 1.350 . S
C730 C729 1.434 . S
C731 C732 1.369 . S
C731 C733 1.419 . S
C731 H735 0.930 . S
C732 C731 1.369 . S
C732 C741 1.429 . S
C733 C731 1.419 . S
C733 C734 1.363 . S
C733 H736 0.929 . S
C734 C733 1.363 . S
C734 C740 1.428 . S
H735 C731 0.930 . S
H736 C733 0.929 . S
S737 N738 1.613 . S
S737 N739 1.610 . S
N738 S737 1.613 . S
N738 C741 1.350 . S
N739 S737 1.610 . S
N739 C740 1.351 . S
C740 C734 1.428 . S
C740 N739 1.351 . S
C740 C741 1.434 . S
C741 C732 1.429 . S
C741 N738 1.350 . S
C741 C740 1.434 . S
C742 C743 1.369 . S
C742 C744 1.419 . S
C742 H746 0.930 . S
C743 C742 1.369 . S
C743 C752 1.429 . S
C744 C742 1.419 . S
C744 C745 1.363 . S
C744 H747 0.929 . S
C745 C744 1.363 . S
C745 C751 1.428 . S
H746 C742 0.930 . S
H747 C744 0.929 . S
S748 N749 1.613 . S
S748 N750 1.610 . S
N749 S748 1.613 . S
N749 C752 1.350 . S
N750 S748 1.610 . S
N750 C751 1.351 . S
C751 C745 1.428 . S
C751 N750 1.351 . S
C751 C752 1.434 . S
C752 C743 1.429 . S
C752 N749 1.350 . S
C752 C751 1.434 . S
C753 C754 1.369 1_654 S
C753 C755 1.419 . S
C753 H757 0.930 . S
C754 C753 1.369 1_456 S
C754 C763 1.429 . S
C755 C753 1.419 . S
C755 C756 1.363 . S
C755 H758 0.929 . S
C756 C755 1.363 . S
C756 C762 1.428 1_654 S
H757 C753 0.930 . S
H758 C755 0.929 . S
S759 N760 1.613 . S
S759 N761 1.610 . S
N760 S759 1.613 . S
N760 C763 1.350 . S
N761 S759 1.610 . S
N761 C762 1.351 . S
C762 C756 1.428 1_456 S
C762 N761 1.351 . S
C762 C763 1.434 . S
C763 C754 1.429 . S
C763 N760 1.350 . S
C763 C762 1.434 . S
C764 C765 1.369 . S
C764 C766 1.419 . S
C764 H768 0.930 . S
C765 C764 1.369 . S
C765 C774 1.429 . S
C766 C764 1.419 . S
C766 C767 1.363 . S
C766 H769 0.929 . S
C767 C766 1.363 . S
C767 C773 1.428 . S
H768 C764 0.930 . S
H769 C766 0.929 . S
S770 N771 1.613 . S
S770 N772 1.610 . S
N771 S770 1.613 . S
N771 C774 1.350 . S
N772 S770 1.610 . S
N772 C773 1.351 . S
C773 C767 1.428 . S
C773 N772 1.351 . S
C773 C774 1.434 . S
C774 C765 1.429 . S
C774 N771 1.350 . S
C774 C773 1.434 . S
C775 C776 1.369 . S
C775 C777 1.419 . S
C775 H779 0.930 . S
C776 C775 1.369 . S
C776 C785 1.429 . S
C777 C775 1.419 . S
C777 C778 1.363 . S
C777 H780 0.929 . S
C778 C777 1.363 . S
C778 C784 1.428 . S
H779 C775 0.930 . S
H780 C777 0.929 . S
S781 N782 1.613 . S
S781 N783 1.610 . S
N782 S781 1.613 . S
N782 C785 1.350 . S
N783 S781 1.610 . S
N783 C784 1.351 . S
C784 C778 1.428 . S
C784 N783 1.351 . S
C784 C785 1.434 . S
C785 C776 1.429 . S
C785 N782 1.350 . S
C785 C784 1.434 . S
C786 C787 1.360 1_565 S
C786 C788 1.426 1_655 S
C786 H790 0.931 . S
C787 C786 1.360 1_545 S
C787 C796 1.429 1_556 S
C788 C786 1.426 1_455 S
C788 C789 1.363 1_556 S
C788 H791 0.929 . S
C789 C788 1.363 1_554 S
C789 C795 1.428 1_565 S
H790 C786 0.931 . S
H791 C788 0.929 . S
S792 N793 1.613 1_455 S
S792 N794 1.610 . S
N793 S792 1.613 1_655 S
N793 C796 1.350 . S
N794 S792 1.610 . S
N794 C795 1.351 . S
C795 C789 1.428 1_545 S
C795 N794 1.351 . S
C795 C796 1.434 1_455 S
C796 C787 1.429 1_554 S
C796 N793 1.350 . S
C796 C795 1.434 1_655 S
C797 C798 1.369 . S
C797 C799 1.419 1_545 S
C797 H801 0.930 . S
C798 C797 1.369 . S
C798 C807 1.429 . S
C799 C797 1.419 1_565 S
C799 C800 1.363 . S
C799 H802 0.929 . S
C800 C799 1.363 . S
C800 C806 1.428 . S
H801 C797 0.930 . S
H802 C799 0.929 . S
S803 N804 1.613 1_565 S
S803 N805 1.610 . S
N804 S803 1.613 1_545 S
N804 C807 1.350 . S
N805 S803 1.610 . S
N805 C806 1.351 . S
C806 C800 1.428 . S
C806 N805 1.351 . S
C806 C807 1.434 1_565 S
C807 C798 1.429 . S
C807 N804 1.350 . S
C807 C806 1.434 1_545 S
C808 C809 1.369 . S
C808 C810 1.419 . S
C808 H812 0.930 . S
C809 C808 1.369 . S
C809 C818 1.429 . S
C810 C808 1.419 . S
C810 C811 1.363 . S
C810 H813 0.929 . S
C811 C810 1.363 . S
C811 C817 1.428 . S
H812 C808 0.930 . S
H813 C810 0.929 . S
S814 N815 1.613 . S
S814 N816 1.610 . S
N815 S814 1.613 . S
N815 C818 1.350 . S
N816 S814 1.610 . S
N816 C817 1.351 . S
C817 C811 1.428 . S
C817 N816 1.351 . S
C817 C818 1.434 . S
C818 C809 1.429 . S
C818 N815 1.350 . S
C818 C817 1.434 . S
C819 C820 1.369 . S
C819 C821 1.419 . S
C819 H823 0.930 . S
C820 C819 1.369 . S
C820 C829 1.429 . S
C821 C819 1.419 . S
C821 C822 1.363 . S
C821 H824 0.929 . S
C822 C821 1.363 . S
C822 C828 1.428 . S
H823 C819 0.930 . S
H824 C821 0.929 . S
S825 N826 1.613 . S
S825 N827 1.610 . S
N826 S825 1.613 . S
N826 C829 1.350 . S
N827 S825 1.610 . S
N827 C828 1.351 . S
C828 C822 1.428 . S
C828 N827 1.351 . S
C828 C829 1.434 . S
C829 C820 1.429 . S
C829 N826 1.350 . S
C829 C828 1.434 . S
C830 C831 1.369 . S
C830 C832 1.419 . S
C830 H834 0.930 . S
C831 C830 1.369 . S
C831 C840 1.429 . S
C832 C830 1.419 . S
C832 C833 1.363 . S
C832 H835 0.929 . S
C833 C832 1.363 . S
C833 C839 1.428 . S
H834 C830 0.930 . S
H835 C832 0.929 . S
S836 N837 1.613 . S
S836 N838 1.610 . S
N837 S836 1.613 . S
N837 C840 1.350 . S
N838 S836 1.610 . S
N838 C839 1.351 . S
C839 C833 1.428 . S
C839 N838 1.351 . S
C839 C840 1.434 . S
C840 C831 1.429 . S
C840 N837 1.350 . S
C840 C839 1.434 . S
C841 C842 1.369 . S
C841 C843 1.419 . S
C841 H845 0.930 . S
C842 C841 1.369 . S
C842 C851 1.429 . S
C843 C841 1.419 . S
C843 C844 1.363 . S
C843 H846 0.929 . S
C844 C843 1.363 . S
C844 C850 1.428 . S
H845 C841 0.930 . S
H846 C843 0.929 . S
S847 N848 1.613 . S
S847 N849 1.610 . S
N848 S847 1.613 . S
N848 C851 1.350 . S
N849 S847 1.610 . S
N849 C850 1.351 . S
C850 C844 1.428 . S
C850 N849 1.351 . S
C850 C851 1.434 . S
C851 C842 1.429 . S
C851 N848 1.350 . S
C851 C850 1.434 . S
C852 C853 1.369 . S
C852 C854 1.419 . S
C852 H856 0.930 . S
C853 C852 1.369 . S
C853 C862 1.429 . S
C854 C852 1.419 . S
C854 C855 1.363 . S
C854 H857 0.929 . S
C855 C854 1.363 . S
C855 C861 1.428 . S
H856 C852 0.930 . S
H857 C854 0.929 . S
S858 N859 1.613 . S
S858 N860 1.609 1_545 S
N859 S858 1.613 . S
N859 C862 1.350 1_545 S
N860 S858 1.609 1_565 S
N860 C861 1.351 . S
C861 C855 1.428 . S
C861 N860 1.351 . S
C861 C862 1.434 . S
C862 C853 1.429 . S
C862 N859 1.350 1_565 S
C862 C861 1.434 . S
C863 C864 1.369 . S
C863 C865 1.419 . S
C863 H867 0.930 . S
C864 C863 1.369 . S
C864 C873 1.429 . S
C865 C863 1.419 . S
C865 C866 1.363 . S
C865 H868 0.929 . S
C866 C865 1.363 . S
C866 C872 1.428 . S
H867 C863 0.930 . S
H868 C865 0.929 . S
S869 N870 1.613 . S
S869 N871 1.610 . S
N870 S869 1.613 . S
N870 C873 1.350 . S
N871 S869 1.610 . S
N871 C872 1.351 . S
C872 C866 1.428 . S
C872 N871 1.351 . S
C872 C873 1.434 . S
C873 C864 1.429 . S
C873 N870 1.350 . S
C873 C872 1.434 . S
C874 C875 1.369 . S
C874 C876 1.419 . S
C874 H878 0.930 . S
C875 C874 1.369 . S
C875 C884 1.429 . S
C876 C874 1.419 . S
C876 C877 1.363 . S
C876 H879 0.929 . S
C877 C876 1.363 . S
C877 C883 1.428 . S
H878 C874 0.930 . S
H879 C876 0.929 . S
S880 N881 1.613 . S
S880 N882 1.610 . S
N881 S880 1.613 . S
N881 C884 1.350 . S
N882 S880 1.610 . S
N882 C883 1.351 . S
C883 C877 1.428 . S
C883 N882 1.351 . S
C883 C884 1.434 . S
C884 C875 1.429 . S
C884 N881 1.350 . S
C884 C883 1.434 . S
C885 C886 1.369 . S
C885 C887 1.419 . S
C885 H889 0.930 . S
C886 C885 1.369 . S
C886 C895 1.429 . S
C887 C885 1.419 . S
C887 C888 1.363 . S
C887 H890 0.929 . S
C888 C887 1.363 . S
C888 C894 1.428 . S
H889 C885 0.930 . S
H890 C887 0.929 . S
S891 N892 1.613 . S
S891 N893 1.610 1_556 S
N892 S891 1.613 . S
N892 C895 1.350 1_556 S
N893 S891 1.610 1_554 S
N893 C894 1.351 . S
C894 C888 1.428 . S
C894 N893 1.351 . S
C894 C895 1.434 . S
C895 C886 1.429 . S
C895 N892 1.350 1_554 S
C895 C894 1.434 . S
C896 C897 1.369 . S
C896 C898 1.419 . S
C896 H900 0.930 . S
C897 C896 1.369 . S
C897 C906 1.429 . S
C898 C896 1.419 . S
C898 C899 1.363 . S
C898 H901 0.929 . S
C899 C898 1.363 . S
C899 C905 1.428 . S
H900 C896 0.930 . S
H901 C898 0.929 . S
S902 N903 1.613 . S
S902 N904 1.610 . S
N903 S902 1.613 . S
N903 C906 1.350 . S
N904 S902 1.610 . S
N904 C905 1.351 . S
C905 C899 1.428 . S
C905 N904 1.351 . S
C905 C906 1.434 . S
C906 C897 1.429 . S
C906 N903 1.350 . S
C906 C905 1.434 . S
C907 C908 1.369 . S
C907 C909 1.419 . S
C907 H911 0.930 1_556 S
C908 C907 1.369 . S
C908 C917 1.429 . S
C909 C907 1.419 . S
C909 C910 1.363 . S
C909 H912 0.929 . S
C910 C909 1.363 . S
C910 C916 1.428 . S
H911 C907 0.930 1_554 S
H912 C909 0.929 . S
S913 N914 1.613 . S
S913 N915 1.610 . S
N914 S913 1.613 . S
N914 C917 1.350 . S
N915 S913 1.610 . S
N915 C916 1.351 . S
C916 C910 1.428 . S
C916 N915 1.351 . S
C916 C917 1.434 . S
C917 C908 1.429 . S
C917 N914 1.350 . S
C917 C916 1.434 . S
C918 C919 1.369 . S
C918 C920 1.419 . S
C918 H922 0.930 . S
C919 C918 1.369 . S
C919 C928 1.429 . S
C920 C918 1.419 . S
C920 C921 1.363 . S
C920 H923 0.929 . S
C921 C920 1.363 . S
C921 C927 1.428 . S
H922 C918 0.930 . S
H923 C920 0.929 . S
S924 N925 1.613 . S
S924 N926 1.610 1_556 S
N925 S924 1.613 . S
N925 C928 1.350 1_556 S
N926 S924 1.610 1_554 S
N926 C927 1.351 . S
C927 C921 1.428 . S
C927 N926 1.351 . S
C927 C928 1.434 . S
C928 C919 1.429 . S
C928 N925 1.350 1_554 S
C928 C927 1.434 . S
C929 C930 1.369 . S
C929 C931 1.419 . S
C929 H933 0.930 . S
C930 C929 1.369 . S
C930 C939 1.429 . S
C931 C929 1.419 . S
C931 C932 1.363 . S
C931 H934 0.929 . S
C932 C931 1.363 . S
C932 C938 1.428 . S
H933 C929 0.930 . S
H934 C931 0.929 . S
S935 N936 1.613 . S
S935 N937 1.610 . S
N936 S935 1.613 . S
N936 C939 1.350 . S
N937 S935 1.610 . S
N937 C938 1.351 . S
C938 C932 1.428 . S
C938 N937 1.351 . S
C938 C939 1.434 . S
C939 C930 1.429 . S
C939 N936 1.350 . S
C939 C938 1.434 . S
C940 C941 1.369 . S
C940 C942 1.419 . S
C940 H944 0.930 . S
C941 C940 1.369 . S
C941 C950 1.429 . S
C942 C940 1.419 . S
C942 C943 1.363 . S
C942 H945 0.929 . S
C943 C942 1.363 . S
C943 C949 1.428 . S
H944 C940 0.930 . S
H945 C942 0.929 . S
S946 N947 1.613 . S
S946 N948 1.610 . S
N947 S946 1.613 . S
N947 C950 1.350 . S
N948 S946 1.610 . S
N948 C949 1.351 . S
C949 C943 1.428 . S
C949 N948 1.351 . S
C949 C950 1.434 . S
C950 C941 1.429 . S
C950 N947 1.350 . S
C950 C949 1.434 . S
C951 C952 1.369 . S
C951 C953 1.419 . S
C951 H955 0.930 . S
C952 C951 1.369 . S
C952 C961 1.429 . S
C953 C951 1.419 . S
C953 C954 1.363 . S
C953 H956 0.929 . S
C954 C953 1.363 . S
C954 C960 1.428 . S
H955 C951 0.930 . S
H956 C953 0.929 . S
S957 N958 1.613 . S
S957 N959 1.610 . S
N958 S957 1.613 . S
N958 C961 1.350 . S
N959 S957 1.610 . S
N959 C960 1.351 . S
C960 C954 1.428 . S
C960 N959 1.351 . S
C960 C961 1.434 . S
C961 C952 1.429 . S
C961 N958 1.350 . S
C961 C960 1.434 . S
C962 C963 1.369 . S
C962 C964 1.419 . S
C962 H966 0.930 . S
C963 C962 1.369 . S
C963 C972 1.429 . S
C964 C962 1.419 . S
C964 C965 1.363 . S
C964 H967 0.929 . S
C965 C964 1.363 . S
C965 C971 1.428 . S
H966 C962 0.930 . S
H967 C964 0.929 . S
S968 N969 1.613 . S
S968 N970 1.610 . S
N969 S968 1.613 . S
N969 C972 1.350 . S
N970 S968 1.610 . S
N970 C971 1.351 . S
C971 C965 1.428 . S
C971 N970 1.351 . S
C971 C972 1.434 . S
C972 C963 1.429 . S
C972 N969 1.350 . S
C972 C971 1.434 . S
C973 C974 1.369 . S
C973 C975 1.419 . S
C973 H977 0.930 . S
C974 C973 1.369 . S
C974 C983 1.429 . S
C975 C973 1.419 . S
C975 C976 1.363 . S
C975 H978 0.929 . S
C976 C975 1.363 . S
C976 C982 1.428 . S
H977 C973 0.930 . S
H978 C975 0.929 . S
S979 N980 1.613 . S
S979 N981 1.610 . S
N980 S979 1.613 . S
N980 C983 1.350 . S
N981 S979 1.610 . S
N981 C982 1.351 . S
C982 C976 1.428 . S
C982 N981 1.351 . S
C982 C983 1.434 . S
C983 C974 1.429 . S
C983 N980 1.350 . S
C983 C982 1.434 . S
C984 C985 1.369 . S
C984 C986 1.419 . S
C984 H988 0.930 . S
C985 C984 1.369 . S
C985 C994 1.429 . S
C986 C984 1.419 . S
C986 C987 1.363 . S
C986 H989 0.929 . S
C987 C986 1.363 . S
C987 C993 1.428 . S
H988 C984 0.930 . S
H989 C986 0.929 . S
S990 N991 1.613 . S
S990 N992 1.610 . S
N991 S990 1.613 . S
N991 C994 1.350 . S
N992 S990 1.610 . S
N992 C993 1.351 . S
C993 C987 1.428 . S
C993 N992 1.351 . S
C993 C994 1.434 . S
C994 C985 1.429 . S
C994 N991 1.350 . S
C994 C993 1.434 . S
C995 C996 1.369 . S
C995 C997 1.419 . S
C995 H999 0.930 . S
C996 C995 1.369 . S
C996 C1005 1.429 . S
C997 C995 1.419 . S
C997 C998 1.363 . S
C997 H1000 0.929 . S
C998 C997 1.363 . S
C998 C1004 1.428 . S
H999 C995 0.930 . S
H1000 C997 0.929 . S
S1001 N1002 1.613 . S
S1001 N1003 1.610 . S
N1002 S1001 1.613 . S
N1002 C1005 1.350 . S
N1003 S1001 1.610 . S
N1003 C1004 1.351 . S
C1004 C998 1.428 . S
C1004 N1003 1.351 . S
C1004 C1005 1.434 . S
C1005 C996 1.429 . S
C1005 N1002 1.350 . S
C1005 C1004 1.434 . S
C1006 C1007 1.369 . S
C1006 C1008 1.419 . S
C1006 H1010 0.930 . S
C1007 C1006 1.369 . S
C1007 C1016 1.429 . S
C1008 C1006 1.419 . S
C1008 C1009 1.363 . S
C1008 H1011 0.929 . S
C1009 C1008 1.363 . S
C1009 C1015 1.428 . S
H1010 C1006 0.930 . S
H1011 C1008 0.929 . S
S1012 N1013 1.613 . S
S1012 N1014 1.610 . S
N1013 S1012 1.613 . S
N1013 C1016 1.350 . S
N1014 S1012 1.610 . S
N1014 C1015 1.351 . S
C1015 C1009 1.428 . S
C1015 N1014 1.351 . S
C1015 C1016 1.434 . S
C1016 C1007 1.429 . S
C1016 N1013 1.350 . S
C1016 C1015 1.434 . S
C1017 C1018 1.369 . S
C1017 C1019 1.419 . S
C1017 H1021 0.930 . S
C1018 C1017 1.369 . S
C1018 C1027 1.429 . S
C1019 C1017 1.419 . S
C1019 C1020 1.363 1_455 S
C1019 H1022 0.929 1_556 S
C1020 C1019 1.363 1_655 S
C1020 C1026 1.428 . S
H1021 C1017 0.930 . S
H1022 C1019 0.929 1_554 S
S1023 N1024 1.613 1_655 S
S1023 N1025 1.610 . S
N1024 S1023 1.613 1_455 S
N1024 C1027 1.350 . S
N1025 S1023 1.610 . S
N1025 C1026 1.351 . S
C1026 C1020 1.428 . S
C1026 N1025 1.351 . S
C1026 C1027 1.434 1_655 S
C1027 C1018 1.429 . S
C1027 N1024 1.350 . S
C1027 C1026 1.434 1_455 S
C1028 C1029 1.369 . S
C1028 C1030 1.419 . S
C1028 H1032 0.930 . S
C1029 C1028 1.369 . S
C1029 C1038 1.429 . S
C1030 C1028 1.419 . S
C1030 C1031 1.363 . S
C1030 H1033 0.929 . S
C1031 C1030 1.363 . S
C1031 C1037 1.428 . S
H1032 C1028 0.930 . S
H1033 C1030 0.929 . S
S1034 N1035 1.613 . S
S1034 N1036 1.610 . S
N1035 S1034 1.613 . S
N1035 C1038 1.350 . S
N1036 S1034 1.610 . S
N1036 C1037 1.351 . S
C1037 C1031 1.428 . S
C1037 N1036 1.351 . S
C1037 C1038 1.434 . S
C1038 C1029 1.429 . S
C1038 N1035 1.350 . S
C1038 C1037 1.434 . S
C1039 C1040 1.369 . S
C1039 C1041 1.419 . S
C1039 H1043 0.930 . S
C1040 C1039 1.369 . S
C1040 C1049 1.429 . S
C1041 C1039 1.419 . S
C1041 C1042 1.363 . S
C1041 H1044 0.929 . S
C1042 C1041 1.363 . S
C1042 C1048 1.428 . S
H1043 C1039 0.930 . S
H1044 C1041 0.929 . S
S1045 N1046 1.613 . S
S1045 N1047 1.610 . S
N1046 S1045 1.613 . S
N1046 C1049 1.350 . S
N1047 S1045 1.610 . S
N1047 C1048 1.351 . S
C1048 C1042 1.428 . S
C1048 N1047 1.351 . S
C1048 C1049 1.434 . S
C1049 C1040 1.429 . S
C1049 N1046 1.350 . S
C1049 C1048 1.434 . S
C1050 C1051 1.369 . S
C1050 C1052 1.419 . S
C1050 H1054 0.930 . S
C1051 C1050 1.369 . S
C1051 C1060 1.429 . S
C1052 C1050 1.419 . S
C1052 C1053 1.363 . S
C1052 H1055 0.929 . S
C1053 C1052 1.363 . S
C1053 C1059 1.428 . S
H1054 C1050 0.930 . S
H1055 C1052 0.929 . S
S1056 N1057 1.613 . S
S1056 N1058 1.610 . S
N1057 S1056 1.613 . S
N1057 C1060 1.350 . S
N1058 S1056 1.610 . S
N1058 C1059 1.351 . S
C1059 C1053 1.428 . S
C1059 N1058 1.351 . S
C1059 C1060 1.434 . S
C1060 C1051 1.429 . S
C1060 N1057 1.350 . S
C1060 C1059 1.434 . S
C1061 C1062 1.369 1_655 S
C1061 C1063 1.419 . S
C1061 H1065 0.930 . S
C1062 C1061 1.369 1_455 S
C1062 C1071 1.429 . S
C1063 C1061 1.419 . S
C1063 C1064 1.363 . S
C1063 H1066 0.929 . S
C1064 C1063 1.363 . S
C1064 C1070 1.428 . S
H1065 C1061 0.930 . S
H1066 C1063 0.929 . S
S1067 N1068 1.613 . S
S1067 N1069 1.610 1_456 S
N1068 S1067 1.613 . S
N1068 C1071 1.350 1_556 S
N1069 S1067 1.610 1_654 S
N1069 C1070 1.351 . S
C1070 C1064 1.428 . S
C1070 N1069 1.351 . S
C1070 C1071 1.434 1_655 S
C1071 C1062 1.429 . S
C1071 N1068 1.350 1_554 S
C1071 C1070 1.434 1_455 S
C1072 C1073 1.369 . S
C1072 C1074 1.419 . S
C1072 H1076 0.930 . S
C1073 C1072 1.369 . S
C1073 C1082 1.429 . S
C1074 C1072 1.419 . S
C1074 C1075 1.363 . S
C1074 H1077 0.929 . S
C1075 C1074 1.363 . S
C1075 C1081 1.428 . S
H1076 C1072 0.930 . S
H1077 C1074 0.929 . S
S1078 N1079 1.613 . S
S1078 N1080 1.610 . S
N1079 S1078 1.613 . S
N1079 C1082 1.350 . S
N1080 S1078 1.610 . S
N1080 C1081 1.351 . S
C1081 C1075 1.428 . S
C1081 N1080 1.351 . S
C1081 C1082 1.434 . S
C1082 C1073 1.429 . S
C1082 N1079 1.350 . S
C1082 C1081 1.434 . S
C1083 C1084 1.369 . S
C1083 C1085 1.419 1_455 S
C1083 H1087 0.930 . S
C1084 C1083 1.369 . S
C1084 C1093 1.429 1_455 S
C1085 C1083 1.419 1_655 S
C1085 C1086 1.363 . S
C1085 H1088 0.929 . S
C1086 C1085 1.363 . S
C1086 C1092 1.428 . S
H1087 C1083 0.930 . S
H1088 C1085 0.929 . S
S1089 N1090 1.613 . S
S1089 N1091 1.610 . S
N1090 S1089 1.613 . S
N1090 C1093 1.350 1_554 S
N1091 S1089 1.610 . S
N1091 C1092 1.351 1_554 S
C1092 C1086 1.428 . S
C1092 N1091 1.351 1_556 S
C1092 C1093 1.434 . S
C1093 C1084 1.429 1_655 S
C1093 N1090 1.350 1_556 S
C1093 C1092 1.434 . S
C1094 C1095 1.369 . S
C1094 C1096 1.419 . S
C1094 H1098 0.930 . S
C1095 C1094 1.369 . S
C1095 C1104 1.429 . S
C1096 C1094 1.419 . S
C1096 C1097 1.363 . S
C1096 H1099 0.929 . S
C1097 C1096 1.363 . S
C1097 C1103 1.428 . S
H1098 C1094 0.930 . S
H1099 C1096 0.929 . S
S1100 N1101 1.613 . S
S1100 N1102 1.610 . S
N1101 S1100 1.613 . S
N1101 C1104 1.350 . S
N1102 S1100 1.610 . S
N1102 C1103 1.351 . S
C1103 C1097 1.428 . S
C1103 N1102 1.351 . S
C1103 C1104 1.434 . S
C1104 C1095 1.429 . S
C1104 N1101 1.350 . S
C1104 C1103 1.434 . S
C1105 C1106 1.369 . S
C1105 C1107 1.419 . S
C1105 H1109 0.930 . S
C1106 C1105 1.369 . S
C1106 C1115 1.429 . S
C1107 C1105 1.419 . S
C1107 C1108 1.363 . S
C1107 H1110 0.929 . S
C1108 C1107 1.363 . S
C1108 C1114 1.428 . S
H1109 C1105 0.930 . S
H1110 C1107 0.929 . S
S1111 N1112 1.613 . S
S1111 N1113 1.610 . S
N1112 S1111 1.613 . S
N1112 C1115 1.350 . S
N1113 S1111 1.610 . S
N1113 C1114 1.351 . S
C1114 C1108 1.428 . S
C1114 N1113 1.351 . S
C1114 C1115 1.434 . S
C1115 C1106 1.429 . S
C1115 N1112 1.350 . S
C1115 C1114 1.434 . S
C1116 C1117 1.369 . S
C1116 C1118 1.419 . S
C1116 H1120 0.930 . S
C1117 C1116 1.369 . S
C1117 C1126 1.429 . S
C1118 C1116 1.419 . S
C1118 C1119 1.363 . S
C1118 H1121 0.929 . S
C1119 C1118 1.363 . S
C1119 C1125 1.428 . S
H1120 C1116 0.930 . S
H1121 C1118 0.929 . S
S1122 N1123 1.613 . S
S1122 N1124 1.610 . S
N1123 S1122 1.613 . S
N1123 C1126 1.350 . S
N1124 S1122 1.610 . S
N1124 C1125 1.351 . S
C1125 C1119 1.428 . S
C1125 N1124 1.351 . S
C1125 C1126 1.434 . S
C1126 C1117 1.429 . S
C1126 N1123 1.350 . S
C1126 C1125 1.434 . S
C1127 C1128 1.369 1_455 S
C1127 C1129 1.419 . S
C1127 H1131 0.930 . S
C1128 C1127 1.369 1_655 S
C1128 C1137 1.429 . S
C1129 C1127 1.419 . S
C1129 C1130 1.363 . S
C1129 H1132 0.929 . S
C1130 C1129 1.363 . S
C1130 C1136 1.428 . S
H1131 C1127 0.930 . S
H1132 C1129 0.929 . S
S1133 N1134 1.613 . S
S1133 N1135 1.610 1_655 S
N1134 S1133 1.613 . S
N1134 C1137 1.350 . S
N1135 S1133 1.610 1_455 S
N1135 C1136 1.351 . S
C1136 C1130 1.428 . S
C1136 N1135 1.351 . S
C1136 C1137 1.434 1_455 S
C1137 C1128 1.429 . S
C1137 N1134 1.350 . S
C1137 C1136 1.434 1_655 S
C1138 C1139 1.369 . S
C1138 C1140 1.419 . S
C1138 H1142 0.930 . S
C1139 C1138 1.369 . S
C1139 C1148 1.429 . S
C1140 C1138 1.419 . S
C1140 C1141 1.363 . S
C1140 H1143 0.929 . S
C1141 C1140 1.363 . S
C1141 C1147 1.428 . S
H1142 C1138 0.930 . S
H1143 C1140 0.929 . S
S1144 N1145 1.613 . S
S1144 N1146 1.610 . S
N1145 S1144 1.613 . S
N1145 C1148 1.350 . S
N1146 S1144 1.610 . S
N1146 C1147 1.351 . S
C1147 C1141 1.428 . S
C1147 N1146 1.351 . S
C1147 C1148 1.434 . S
C1148 C1139 1.429 . S
C1148 N1145 1.350 . S
C1148 C1147 1.434 . S
C1149 C1150 1.369 . S
C1149 C1151 1.419 . S
C1149 H1153 0.930 . S
C1150 C1149 1.369 . S
C1150 C1159 1.429 . S
C1151 C1149 1.419 . S
C1151 C1152 1.363 . S
C1151 H1154 0.929 . S
C1152 C1151 1.363 . S
C1152 C1158 1.428 . S
H1153 C1149 0.930 . S
H1154 C1151 0.929 . S
S1155 N1156 1.613 . S
S1155 N1157 1.610 . S
N1156 S1155 1.613 . S
N1156 C1159 1.350 . S
N1157 S1155 1.610 . S
N1157 C1158 1.351 . S
C1158 C1152 1.428 . S
C1158 N1157 1.351 . S
C1158 C1159 1.434 . S
C1159 C1150 1.429 . S
C1159 N1156 1.350 . S
C1159 C1158 1.434 . S
C545 C15 1.479 . S
C547 C22 1.482 . S
C556 C56 1.477 . S
C558 C49 1.484 . S
C567 C83 1.485 . S
C569 C90 1.477 . S
C578 C124 1.484 . S
C580 C117 1.478 . S
C589 C158 1.477 . S
C591 C151 1.484 . S
C600 C192 1.476 . S
C602 C185 1.484 . S
C611 C219 1.478 . S
C613 C226 1.484 . S
C622 C253 1.478 . S
C624 C260 1.482 . S
C633 C294 1.476 . S
C635 C287 1.484 . S
C644 C321 1.483 . S
C646 C328 1.479 . S
C655 C355 1.483 . S
C657 C362 1.479 . S
C666 C389 1.476 . S
C668 C396 1.485 . S
C677 C423 1.480 . S
C679 C430 1.481 . S
C688 C464 1.481 . S
C690 C457 1.480 . S
C699 C498 1.479 . S
C701 C491 1.481 . S
C710 C532 1.477 . S
C712 C525 1.484 . S
C721 C1 2.046 . S
C723 C411 2.049 . S
C732 C173 2.043 . S
C734 C35 2.052 . S
C743 C479 2.051 . S
C745 C69 2.045 . S
C754 C239 2.051 . S
C756 C105 2.045 . S
C765 C139 2.042 . S
C767 C273 2.052 . S
C776 C207 2.053 . S
C778 C341 2.043 . S
C787 C445 2.043 . S
C789 C307 2.051 . S
C798 C377 2.045 . S
C800 C511 2.050 . S
C809 C312 1.426 1_545 S
C811 C17 1.385 . S
C820 C51 1.381 . S
C822 C346 1.428 . S
C831 C85 1.380 . S
C833 C402 1.428 1_565 S
C842 C278 1.425 . S
C844 C119 1.386 . S
C853 C470 1.424 1_565 S
C855 C153 1.388 . S
C864 C504 1.428 . S
C866 C187 1.382 . S
C875 C516 1.427 1_545 S
C877 C221 1.382 . S
C886 C255 1.389 . S
C888 C436 1.423 . S
C897 C40 1.423 . S
C899 C289 1.388 . S
C908 C323 1.381 . S
C910 C74 1.428 . S
C919 C130 1.429 . S
C921 C357 1.381 . S
C930 C6 1.428 . S
C932 C391 1.382 . S
C941 C425 1.390 . S
C943 C198 1.423 . S
C952 C232 1.428 . S
C954 C459 1.384 . S
C963 C493 1.390 . S
C965 C244 1.423 . S
C974 C527 1.379 . S
C976 C164 1.428 . S
C985 C3 1.429 . S
C987 C266 1.450 . S
C996 C37 1.428 . S
C998 C414 1.449 . S
C1007 C176 1.445 . S
C1009 C71 1.428 . S
C1018 C482 1.452 . S
C1020 C103 1.437 . S
C1029 C108 1.454 . S
C1031 C137 1.434 . S
C1040 C171 1.434 . S
C1042 C300 1.453 . S
C1051 C62 1.449 . S
C1053 C205 1.428 . S
C1062 C241 1.430 . S
C1064 C368 1.451 . S
C1073 C538 1.445 . S
C1075 C275 1.433 . S
C1084 C309 1.428 . S
C1086 C142 1.449 . S
C1095 C343 1.430 . S
C1097 C448 1.451 . S
C1106 C210 1.445 . S
C1108 C375 1.432 . S
C1117 C380 1.445 . S
C1119 C409 1.428 . S
C1128 C443 1.432 . S
C1130 C28 1.452 . S
C1139 C334 1.445 . S
C1141 C477 1.428 . S
C1150 C96 1.452 . S
C1152 C513 1.436 . S
