# Generated by pormake.
# Topology mon, (4)-cn, num edge types: 1
# Building blocks:
#     Node 0, Type 0, BuildingBlock: UXUYUI_clean_sbu_0, # of connection points: 4
#     Node 1, Type 0, BuildingBlock: UXUYUI_clean_sbu_0, # of connection points: 4
#     Node 2, Type 0, BuildingBlock: UXUYUI_clean_sbu_0, # of connection points: 4
#     Node 3, Type 0, BuildingBlock: UXUYUI_clean_sbu_0, # of connection points: 4
#     Node 4, Type 0, BuildingBlock: UXUYUI_clean_sbu_0, # of connection points: 4
#     Node 5, Type 0, BuildingBlock: UXUYUI_clean_sbu_0, # of connection points: 4
#     Node 6, Type 0, BuildingBlock: UXUYUI_clean_sbu_0, # of connection points: 4
#     Node 7, Type 0, BuildingBlock: UXUYUI_clean_sbu_0, # of connection points: 4
#     Node 8, Type 0, BuildingBlock: UXUYUI_clean_sbu_0, # of connection points: 4
#     Node 9, Type 0, BuildingBlock: UXUYUI_clean_sbu_0, # of connection points: 4
#     Node 10, Type 0, BuildingBlock: UXUYUI_clean_sbu_0, # of connection points: 4
#     Node 11, Type 0, BuildingBlock: UXUYUI_clean_sbu_0, # of connection points: 4
#     Node 12, Type 0, BuildingBlock: UXUYUI_clean_sbu_0, # of connection points: 4
#     Node 13, Type 0, BuildingBlock: UXUYUI_clean_sbu_0, # of connection points: 4
#     Node 14, Type 0, BuildingBlock: UXUYUI_clean_sbu_0, # of connection points: 4
#     Node 15, Type 0, BuildingBlock: UXUYUI_clean_sbu_0, # of connection points: 4
#     Edge 16, Type (0, 0), BuildingBlock: XUDNAN_clean_linker_2, # of connection points: 2
#     Edge 17, Type (0, 0), BuildingBlock: XUDNAN_clean_linker_2, # of connection points: 2
#     Edge 18, Type (0, 0), BuildingBlock: XUDNAN_clean_linker_2, # of connection points: 2
#     Edge 19, Type (0, 0), BuildingBlock: XUDNAN_clean_linker_2, # of connection points: 2
#     Edge 20, Type (0, 0), BuildingBlock: XUDNAN_clean_linker_2, # of connection points: 2
#     Edge 21, Type (0, 0), BuildingBlock: XUDNAN_clean_linker_2, # of connection points: 2
#     Edge 22, Type (0, 0), BuildingBlock: XUDNAN_clean_linker_2, # of connection points: 2
#     Edge 23, Type (0, 0), BuildingBlock: XUDNAN_clean_linker_2, # of connection points: 2
#     Edge 24, Type (0, 0), BuildingBlock: XUDNAN_clean_linker_2, # of connection points: 2
#     Edge 25, Type (0, 0), BuildingBlock: XUDNAN_clean_linker_2, # of connection points: 2
#     Edge 26, Type (0, 0), BuildingBlock: XUDNAN_clean_linker_2, # of connection points: 2
#     Edge 27, Type (0, 0), BuildingBlock: XUDNAN_clean_linker_2, # of connection points: 2
#     Edge 28, Type (0, 0), BuildingBlock: XUDNAN_clean_linker_2, # of connection points: 2
#     Edge 29, Type (0, 0), BuildingBlock: XUDNAN_clean_linker_2, # of connection points: 2
#     Edge 30, Type (0, 0), BuildingBlock: XUDNAN_clean_linker_2, # of connection points: 2
#     Edge 31, Type (0, 0), BuildingBlock: XUDNAN_clean_linker_2, # of connection points: 2
#     Edge 32, Type (0, 0), BuildingBlock: XUDNAN_clean_linker_2, # of connection points: 2
#     Edge 33, Type (0, 0), BuildingBlock: XUDNAN_clean_linker_2, # of connection points: 2
#     Edge 34, Type (0, 0), BuildingBlock: XUDNAN_clean_linker_2, # of connection points: 2
#     Edge 35, Type (0, 0), BuildingBlock: XUDNAN_clean_linker_2, # of connection points: 2
#     Edge 36, Type (0, 0), BuildingBlock: XUDNAN_clean_linker_2, # of connection points: 2
#     Edge 37, Type (0, 0), BuildingBlock: XUDNAN_clean_linker_2, # of connection points: 2
#     Edge 38, Type (0, 0), BuildingBlock: XUDNAN_clean_linker_2, # of connection points: 2
#     Edge 39, Type (0, 0), BuildingBlock: XUDNAN_clean_linker_2, # of connection points: 2
#     Edge 40, Type (0, 0), BuildingBlock: XUDNAN_clean_linker_2, # of connection points: 2
#     Edge 41, Type (0, 0), BuildingBlock: XUDNAN_clean_linker_2, # of connection points: 2
#     Edge 42, Type (0, 0), BuildingBlock: XUDNAN_clean_linker_2, # of connection points: 2
#     Edge 43, Type (0, 0), BuildingBlock: XUDNAN_clean_linker_2, # of connection points: 2
#     Edge 44, Type (0, 0), BuildingBlock: XUDNAN_clean_linker_2, # of connection points: 2
#     Edge 45, Type (0, 0), BuildingBlock: XUDNAN_clean_linker_2, # of connection points: 2
#     Edge 46, Type (0, 0), BuildingBlock: XUDNAN_clean_linker_2, # of connection points: 2
#     Edge 47, Type (0, 0), BuildingBlock: XUDNAN_clean_linker_2, # of connection points: 2
# Relax obj value: 0.204
# Max RMSD: 0.157
# Mean RMSD: 0.156
data_MOF--net-mon--node1-UXUYUI_clean_sbu_0--edge1-XUDNAN_clean_linker_2
_symmetry_space_group_name_H-M    P1
_symmetry_Int_Tables_number       1
_symmetry_cell_setting            triclinic
loop_
_symmetry_equiv_pos_as_xyz
'x, y, z'
_cell_length_a     49.636232
_cell_length_b     49.55487
_cell_length_c     122.83599
_cell_angle_alpha  89.995616
_cell_angle_beta   89.989282
_cell_angle_gamma 89.982091
loop_
_atom_site_label
_atom_site_type_symbol
_atom_site_fract_x
_atom_site_fract_y
_atom_site_fract_z
_atom_type_partial_charge
Li0 Li 0.00628 0.02789 0.57679 0.0
Li1 Li 0.0062 0.061 0.59093 0.0
Li2 Li 0.03271 0.02026 0.59336 0.0
Li3 Li 0.98181 0.01961 0.5944 0.0
C4 C 0.05665 0.05484 0.57483 0.0
N5 N 0.09532 0.06689 0.55938 0.0
C6 C 0.05792 0.08069 0.57027 0.0
C7 C 0.07525 0.03523 0.5716 0.0
C8 C 0.07756 0.08635 0.56245 0.0
C9 C 0.09459 0.04169 0.56375 0.0
C10 C 0.9626 0.06596 0.57655 0.0
C11 C 0.92354 0.09127 0.57089 0.0
N12 N 0.93906 0.10507 0.56366 0.0
C13 C 0.97816 0.08037 0.56907 0.0
C14 C 0.93507 0.07139 0.57748 0.0
C15 C 0.96589 0.10006 0.56262 0.0
C16 C 0.98683 0.99811 0.55943 0.0
N17 N 0.00363 0.01901 0.5617 0.0
C18 C 0.01602 0.02254 0.54295 0.0
C19 C 0.01775 0.03159 0.55369 0.0
C20 C -0.00065 0.0005 0.5404 0.0
C21 C 0.98434 0.9885 0.54881 0.0
H22 H 0.9756 0.98866 0.56595 0.0
H23 H 0.03059 0.04846 0.55557 0.0
C24 C 0.02963 0.11157 0.59473 0.0
N25 N 0.00572 0.09833 0.59413 0.0
C26 C 0.03028 0.13889 0.59741 0.0
C27 C 0.98172 0.13816 0.59914 0.0
C28 C 0.982 0.11092 0.59631 0.0
C29 C 0.00609 0.15246 0.59965 0.0
H30 H 0.04822 0.1008 0.59323 0.0
H31 H 0.96335 0.09968 0.596 0.0
C32 C 0.01597 0.97038 0.58403 0.0
N33 N 0.03552 0.91925 0.57982 0.0
C34 C 0.00649 0.94831 0.58998 0.0
C35 C 0.03511 0.96643 0.57585 0.0
C36 C 0.01671 0.92262 0.58776 0.0
C37 C 0.04481 0.94043 0.57386 0.0
C38 C 0.01166 0.0562 0.61205 0.0
C39 C 0.03762 0.06412 0.61509 0.0
C40 C 0.98932 0.06861 0.61684 0.0
C41 C 0.04079 0.0845 0.62284 0.0
C42 C 0.99334 0.08892 0.62456 0.0
N43 N 0.01877 0.09639 0.62737 0.0
C44 C 0.08831 0.0165 0.59845 0.0
C45 C 0.06106 0.98051 0.60479 0.0
C46 C 0.11131 0.00434 0.60278 0.0
N47 N 0.06393 0.00422 0.59937 0.0
C48 C 0.08349 0.9676 0.60921 0.0
C49 C 0.10909 0.97943 0.60817 0.0
H50 H 0.08987 0.03578 0.59438 0.0
H51 H 0.04133 0.97158 0.60565 0.0
C52 C 0.93396 0.98953 0.59448 0.0
N53 N 0.95204 0.00258 0.6009 0.0
C54 C 0.91205 0.97618 0.59916 0.0
C55 C 0.92773 0.99039 0.61691 0.0
C56 C 0.94945 0.00319 0.6119 0.0
C57 C 0.90877 0.97657 0.61052 0.0
H58 H 0.93672 0.98934 0.58574 0.0
H59 H 0.96442 0.01335 0.61679 0.0
O60 O 0.0376 0.04901 0.58253 0.0
O61 O 0.97423 0.0469 0.58308 0.0
O62 O 0.00623 0.99566 0.58615 0.0
O63 O 0.00818 0.03687 0.60424 0.0
H64 H 0.04376 0.09618 0.57267 0.0
H65 H 0.0749 0.01529 0.57515 0.0
H66 H 0.07866 0.10621 0.55882 0.0
H67 H 0.10907 0.02668 0.56117 0.0
H68 H 0.90227 0.09574 0.57154 0.0
H69 H -0.00053 0.07648 0.5683 0.0
H70 H 0.9228 0.06045 0.58328 0.0
H71 H 0.97771 0.1114 0.5568 0.0
H72 H 0.02813 0.03233 0.53677 0.0
H73 H 0.97081 0.97183 0.54721 0.0
H74 H 0.04948 0.14921 0.59786 0.0
H75 H 0.96266 0.14802 0.60076 0.0
H76 H 0.99153 0.95106 0.59631 0.0
H77 H 0.04222 0.98319 0.57101 0.0
H78 H 0.00969 0.90536 0.59235 0.0
H79 H 0.05968 0.93709 0.56756 0.0
H80 H 0.05511 0.05484 0.6114 0.0
H81 H 0.96908 0.06296 0.61448 0.0
H82 H 0.06075 0.09093 0.62523 0.0
H83 H 0.97624 0.09886 0.62827 0.0
H84 H 0.13057 0.0144 0.60197 0.0
H85 H 0.08082 0.94831 0.61321 0.0
H86 H 0.8978 0.96579 0.59397 0.0
H87 H 0.92613 0.99073 0.6257 0.0
Li88 Li 0.24167 0.73237 0.84481 0.0
Li89 Li 0.2008 0.75687 0.83941 0.0
Li90 Li 0.24071 0.75317 0.82692 0.0
Li91 Li 0.24189 0.78298 0.84277 0.0
C92 C 0.21235 0.69712 0.8328 0.0
N93 N 0.20345 0.64206 0.83337 0.0
C94 C 0.18772 0.68696 0.8365 0.0
C95 C 0.23229 0.67925 0.82924 0.0
C96 C 0.18365 0.65907 0.83676 0.0
C97 C 0.22747 0.6515 0.82964 0.0
C98 C 0.20432 0.76433 0.8618 0.0
C99 C 0.17427 0.79339 0.87184 0.0
N100 N 0.16978 0.77314 0.87909 0.0
C101 C 0.19965 0.74391 0.86942 0.0
C102 C 0.19175 0.78937 0.86307 0.0
C103 C 0.18203 0.74872 0.87808 0.0
C104 C 0.28223 0.70041 0.85417 0.0
N105 N 0.25513 0.70253 0.85289 0.0
C106 C 0.24827 0.66071 0.86218 0.0
C107 C 0.2381 0.68355 0.85695 0.0
C108 C 0.27624 0.65759 0.86338 0.0
C109 C 0.29326 0.67805 0.85943 0.0
H110 H 0.29531 0.71603 0.85106 0.0
H111 H 0.2166 0.68593 0.856 0.0
C112 C 0.15128 0.76462 0.82977 0.0
N113 N 0.16263 0.75661 0.8393 0.0
C114 C 0.12361 0.76215 0.82817 0.0
C115 C 0.11963 0.74378 0.84634 0.0
C116 C 0.14745 0.74653 0.84757 0.0
C117 C 0.1075 0.75116 0.83645 0.0
H118 H 0.16391 0.77215 0.82327 0.0
H119 H 0.15696 0.73937 0.85492 0.0
C120 C 0.29265 0.75446 0.83203 0.0
N121 N 0.33864 0.75115 0.81941 0.0
C122 C 0.30799 0.77754 0.82997 0.0
C123 C 0.30095 0.72962 0.82781 0.0
C124 C 0.33112 0.77548 0.82354 0.0
C125 C 0.32418 0.72838 0.82141 0.0
C126 C 0.21097 0.81113 0.82787 0.0
C127 C 0.22419 0.82524 0.8196 0.0
C128 C 0.19065 0.82387 0.83384 0.0
C129 C 0.21733 0.85214 0.81761 0.0
C130 C 0.18435 0.85078 0.8316 0.0
N131 N 0.19774 0.86426 0.82362 0.0
C132 C 0.23873 0.7271 0.80685 0.0
C133 C 0.2671 0.76555 0.80668 0.0
C134 C 0.24442 0.72192 0.79595 0.0
N135 N 0.25028 0.74839 0.81202 0.0
C136 C 0.27322 0.76124 0.7957 0.0
C137 C 0.26192 0.73905 0.79024 0.0
H138 H 0.22481 0.71423 0.81115 0.0
H139 H 0.2757 0.78261 0.81091 0.0
C140 C 0.25559 0.81838 0.85973 0.0
N141 N 0.25572 0.81569 0.84871 0.0
C142 C 0.26654 0.8413 0.86461 0.0
C143 C 0.27814 0.85812 0.84674 0.0
C144 C 0.26661 0.83502 0.84219 0.0
C145 C 0.27825 0.86137 0.85809 0.0
H146 H 0.24758 0.80242 0.86476 0.0
H147 H 0.26706 0.83217 0.83348 0.0
O148 O 0.21676 0.7244 0.83255 0.0
O149 O 0.2215 0.75994 0.85326 0.0
O150 O 0.26974 0.75613 0.8382 0.0
O151 O 0.21747 0.78478 0.82993 0.0
H152 H 0.17196 0.7004 0.8392 0.0
H153 H 0.2513 0.6867 0.8262 0.0
H154 H 0.16474 0.65095 0.83966 0.0
H155 H 0.2428 0.63746 0.82697 0.0
H156 H 0.16435 0.81266 0.8729 0.0
H157 H 0.20946 0.72453 0.86865 0.0
H158 H 0.19565 0.80561 0.85743 0.0
H159 H 0.17812 0.73304 0.884 0.0
H160 H 0.23436 0.64544 0.86504 0.0
H161 H 0.31491 0.67689 0.86042 0.0
H162 H 0.11497 0.76831 0.82047 0.0
H163 H 0.10795 0.73483 0.85285 0.0
H164 H 0.3021 0.79686 0.83327 0.0
H165 H 0.28959 0.7115 0.82946 0.0
H166 H 0.34309 0.79322 0.82183 0.0
H167 H 0.33072 0.7093 0.81804 0.0
H168 H 0.23976 0.8156 0.81482 0.0
H169 H 0.17967 0.81304 0.84005 0.0
H170 H 0.22757 0.86337 0.8113 0.0
H171 H 0.16873 0.86092 0.83619 0.0
H172 H 0.23481 0.70495 0.79198 0.0
H173 H 0.28681 0.77492 0.79156 0.0
H174 H 0.26675 0.84282 0.87341 0.0
H175 H 0.28711 0.87314 0.84146 0.0
Li176 Li 0.53414 0.97934 0.09565 0.0
Li177 Li 0.48522 0.98173 0.09335 0.0
Li178 Li 0.50923 0.93856 0.09285 0.0
Li179 Li 0.51337 0.97113 0.07788 0.0
C180 C 0.49879 0.94832 0.11374 0.0
N181 N 0.48363 0.91472 0.13064 0.0
C182 C 0.47285 0.95002 0.11812 0.0
C183 C 0.51706 0.92959 0.118 0.0
C184 C 0.46557 0.93286 0.12666 0.0
C185 C 0.50899 0.91274 0.12652 0.0
C186 C 0.5014 0.02958 0.08613 0.0
C187 C 0.468 0.06002 0.07886 0.0
N188 N 0.47593 0.07919 0.0861 0.0
C189 C 0.50925 0.0496 0.09349 0.0
C190 C 0.48065 0.03484 0.07874 0.0
C191 C 0.49613 0.07455 0.09335 0.0
C192 C 0.57542 0.01792 0.09905 0.0
N193 N 0.56423 0.99481 0.10291 0.0
C194 C 0.59453 0.99439 0.11799 0.0
C195 C 0.57359 0.98275 0.11208 0.0
C196 C 0.6056 0.01908 0.11458 0.0
C197 C 0.59606 0.03062 0.10484 0.0
H198 H 0.56779 0.02689 0.09164 0.0
H199 H 0.56463 0.96421 0.11488 0.0
C200 C 0.42893 0.98869 0.09451 0.0
N201 N 0.45289 0.99866 0.09803 0.0
C202 C 0.40478 5e-05 0.09811 0.0
C203 C 0.43047 0.03186 0.10882 0.0
C204 C 0.45407 0.01951 0.10518 0.0
C205 C 0.40528 0.0221 0.10533 0.0
H206 H 0.42856 0.9716 0.08905 0.0
H207 H 0.47337 0.02647 0.10812 0.0
C208 C 0.5694 0.95207 0.08472 0.0
N209 N 0.62464 0.95881 0.08447 0.0
C210 C 0.58134 0.96931 0.07712 0.0
C211 C 0.58553 0.93823 0.09219 0.0
C212 C 0.60931 0.97244 0.07712 0.0
C213 C 0.61343 0.94192 0.09194 0.0
C214 C 0.46881 0.94206 0.07384 0.0
C215 C 0.47274 0.91517 0.07079 0.0
C216 C 0.45314 0.95897 0.06729 0.0
C217 C 0.46122 0.90575 0.06113 0.0
C218 C 0.442 0.94879 0.05769 0.0
N219 N 0.44624 0.92262 0.05483 0.0
C220 C 0.48319 0.8919 0.10068 0.0
C221 C 0.52737 0.88479 0.09388 0.0
C222 C 0.48087 0.86468 0.10342 0.0
N223 N 0.50635 0.90139 0.09618 0.0
C224 C 0.52576 0.85736 0.09632 0.0
C225 C 0.50234 0.84711 0.10121 0.0
H226 H 0.46659 0.90553 0.10219 0.0
H227 H 0.5453 0.89282 0.0901 0.0
C228 C 0.51899 0.99842 0.05757 0.0
N229 N 0.51804 0.97396 0.06256 0.0
C230 C 0.52281 8e-05 0.04632 0.0
C231 C 0.52489 0.95139 0.04561 0.0
C232 C 0.52136 0.9507 0.05687 0.0
C233 C 0.52571 0.97633 0.04016 0.0
H234 H 0.5172 0.01666 0.06233 0.0
H235 H 0.52129 0.93157 0.06109 0.0
O236 O 0.50624 0.96491 0.10534 0.0
O237 O 0.51381 0.00491 0.08621 0.0
O238 O 0.54199 0.94934 0.08504 0.0
O239 O 0.48016 0.95177 0.0832 0.0
H240 H 0.45841 0.96435 0.11498 0.0
H241 H 0.53699 0.92746 0.11456 0.0
H242 H 0.44555 0.93394 0.13011 0.0
H243 H 0.52283 0.89797 0.1298 0.0
H244 H 0.45185 0.0643 0.07321 0.0
H245 H 0.52501 0.04582 0.09937 0.0
H246 H 0.47429 0.01959 0.073 0.0
H247 H 0.50191 0.09018 0.09903 0.0
H248 H 0.60163 0.9843 0.12526 0.0
H249 H 0.60368 0.04973 0.10189 0.0
H250 H 0.38597 0.99132 0.09539 0.0
H251 H 0.43209 0.04899 0.11424 0.0
H252 H 0.56914 0.9804 0.07135 0.0
H253 H 0.57658 0.92514 0.09824 0.0
H254 H 0.61882 0.98578 0.07131 0.0
H255 H 0.62615 0.93147 0.09771 0.0
H256 H 0.48481 0.90178 0.07574 0.0
H257 H 0.44965 0.97974 0.06958 0.0
H258 H 0.46424 0.88503 0.05864 0.0
H259 H 0.42995 0.9617 0.05252 0.0
H260 H 0.46234 0.85735 0.10702 0.0
H261 H 0.54268 0.84433 0.09448 0.0
H262 H 0.52393 0.01978 0.04254 0.0
H263 H 0.52675 0.93252 0.04123 0.0
Li264 Li 0.27432 0.26226 0.34244 0.0
Li265 Li 0.31695 0.2396 0.3406 0.0
Li266 Li 0.28641 0.24388 0.32465 0.0
Li267 Li 0.27516 0.21312 0.34042 0.0
C268 C 0.31745 0.29628 0.33596 0.0
N269 N 0.34246 0.34353 0.34232 0.0
C270 C 0.32416 0.30042 0.34687 0.0
C271 C 0.32331 0.31625 0.32828 0.0
C272 C 0.33684 0.3244 0.34993 0.0
C273 C 0.33599 0.33999 0.33165 0.0
C274 C 0.29591 0.23016 0.36278 0.0
C275 C 0.30658 0.19892 0.37722 0.0
N276 N 0.30764 0.21982 0.38438 0.0
C277 C 0.29674 0.25128 0.37033 0.0
C278 C 0.30055 0.20372 0.36628 0.0
C279 C 0.30285 0.24565 0.38119 0.0
C280 C 0.23943 0.28032 0.35834 0.0
N281 N 0.25528 0.28953 0.35013 0.0
C282 C 0.24434 0.33519 0.35455 0.0
C283 C 0.25754 0.31634 0.34797 0.0
C284 C 0.22834 0.32628 0.3633 0.0
C285 C 0.22562 0.29836 0.365 0.0
H286 H 0.23777 0.25884 0.35977 0.0
H287 H 0.26986 0.32316 0.34127 0.0
C288 C 0.37163 0.23197 0.33652 0.0
N289 N 0.35405 0.23913 0.34448 0.0
C290 C 0.39923 0.23123 0.33861 0.0
C291 C 0.39024 0.24602 0.357 0.0
C292 C 0.36276 0.24595 0.35461 0.0
C293 C 0.40897 0.23858 0.34895 0.0
H294 H 0.36416 0.22674 0.32852 0.0
H295 H 0.34849 0.25176 0.3608 0.0
C296 C 0.22915 0.25487 0.3318 0.0
N297 N 0.18425 0.28773 0.33109 0.0
C298 C 0.20617 0.24813 0.33778 0.0
C299 C 0.2293 0.27823 0.32542 0.0
C300 C 0.18367 0.26504 0.33732 0.0
C301 C 0.20639 0.2946 0.32518 0.0
C302 C 0.31984 0.18748 0.32961 0.0
C303 C 0.32211 0.17335 0.31981 0.0
C304 C 0.33179 0.17714 0.33903 0.0
C305 C 0.33614 0.1489 0.31962 0.0
C306 C 0.34566 0.15266 0.33851 0.0
N307 N 0.34752 0.13914 0.3289 0.0
C308 C 0.30377 0.26311 0.30436 0.0
C309 C 0.26409 0.2365 0.30376 0.0
C310 C 0.30246 0.26752 0.29315 0.0
N311 N 0.28459 0.24809 0.3094 0.0
C312 C 0.26214 0.24016 0.29251 0.0
C313 C 0.28136 0.25607 0.2871 0.0
H314 H 0.32001 0.27177 0.30907 0.0
H315 H 0.24913 0.22465 0.30803 0.0
C316 C 0.23913 0.18456 0.35303 0.0
N317 N 0.25757 0.18109 0.34498 0.0
C318 C 0.22463 0.1626 0.35702 0.0
C319 C 0.24876 0.1337 0.34452 0.0
C320 C 0.26254 0.15634 0.34065 0.0
C321 C 0.22937 0.13665 0.3528 0.0
H322 H 0.23559 0.20452 0.35629 0.0
H323 H 0.27709 0.15407 0.33419 0.0
O324 O 0.30471 0.2731 0.33279 0.0
O325 O 0.2896 0.23526 0.35212 0.0
O326 O 0.25171 0.23913 0.33242 0.0
O327 O 0.30614 0.21141 0.3299 0.0
H328 H 0.31935 0.2854 0.3529 0.0
H329 H 0.31796 0.31354 0.31981 0.0
H330 H 0.34213 0.32784 0.35836 0.0
H331 H 0.34063 0.35562 0.3258 0.0
H332 H 0.31029 0.17856 0.38002 0.0
H333 H 0.29272 0.27183 0.36785 0.0
H334 H 0.29925 0.18699 0.36066 0.0
H335 H 0.30372 0.26183 0.3871 0.0
H336 H 0.24713 0.35648 0.35292 0.0
H337 H 0.21293 0.29043 0.37142 0.0
H338 H 0.4127 0.22481 0.33218 0.0
H339 H 0.39669 0.25233 0.36502 0.0
H340 H 0.2058 0.23017 0.34278 0.0
H341 H 0.24705 0.28383 0.32083 0.0
H342 H 0.16577 0.26016 0.34194 0.0
H343 H 0.20625 0.31282 0.32033 0.0
H344 H 0.31304 0.18116 0.31244 0.0
H345 H 0.33061 0.18805 0.34662 0.0
H346 H 0.338 0.13769 0.3121 0.0
H347 H 0.35502 0.14443 0.34574 0.0
H348 H 0.31785 0.27963 0.28925 0.0
H349 H 0.24545 0.23118 0.28814 0.0
H350 H 0.20952 0.16612 0.36322 0.0
H351 H 0.25337 0.11412 0.34108 0.0
Li352 Li 0.97856 0.97869 0.40698 0.0
Li353 Li 0.02781 0.97854 0.40681 0.0
Li354 Li 0.00079 0.93577 0.40734 0.0
Li355 Li 0.00406 0.96414 0.42356 0.0
C356 C 0.99182 0.97276 0.3863 0.0
N357 N 0.9685 0.99293 0.36757 0.0
C358 C 0.00345 0.99471 0.38091 0.0
C359 C 0.96852 0.96087 0.38209 0.0
C360 C 0.99132 0.00465 0.37147 0.0
C361 C 0.95697 0.97143 0.37263 0.0
C362 C 0.01355 0.02289 0.42105 0.0
C363 C 0.04324 0.04434 0.43397 0.0
N364 N 0.03378 0.06888 0.43082 0.0
C365 C 0.00388 0.04832 0.41804 0.0
C366 C 0.0332 0.02087 0.42916 0.0
C367 C 0.01446 0.07133 0.42303 0.0
C368 C 0.92284 0.98895 0.40359 0.0
N369 N 0.94822 0.99832 0.40189 0.0
C370 C 0.93121 0.03712 0.39264 0.0
C371 C 0.95274 0.02191 0.39656 0.0
C372 C 0.9047 0.028 0.39425 0.0
C373 C 0.90065 0.00353 0.39981 0.0
H374 H 0.91981 0.9702 0.40791 0.0
H375 H 0.97315 0.02891 0.39536 0.0
C376 C 0.0766 0.97768 0.39563 0.0
N377 N 0.05899 0.99462 0.40064 0.0
C378 C 0.09874 0.988 0.38999 0.0
C379 C 0.08457 0.03298 0.39503 0.0
C380 C 0.0626 0.0218 0.40049 0.0
C381 C 0.10276 0.01602 0.38956 0.0
H382 H 0.07303 0.95614 0.3958 0.0
H383 H 0.04802 0.03491 0.40428 0.0
C384 C 0.95622 0.92543 0.41856 0.0
N385 N 0.92724 0.87843 0.42159 0.0
C386 C 0.95694 0.91214 0.4286 0.0
C387 C 0.94052 0.91499 0.41011 0.0
C388 C 0.94219 0.88837 0.42996 0.0
C389 C 0.9261 0.89114 0.41179 0.0
C390 C 0.05691 0.9394 0.42109 0.0
C391 C 0.06273 0.91267 0.42389 0.0
C392 C 0.07547 0.95969 0.42359 0.0
C393 C 0.08667 0.9068 0.42938 0.0
C394 C 0.0992 0.95302 0.42908 0.0
N395 N 0.10424 0.92694 0.43186 0.0
C396 C -0.00074 0.89313 0.3919 0.0
C397 C 0.00098 0.87975 0.41041 0.0
C398 C -0.00067 0.86619 0.38854 0.0
N399 N 8e-05 0.8993 0.40268 0.0
C400 C 0.00095 0.85263 0.40744 0.0
C401 C 0.00034 0.84552 0.39637 0.0
H402 H -0.00113 0.90912 0.38592 0.0
H403 H 0.00174 0.88525 0.41892 0.0
C404 C 0.98944 0.98355 0.44418 0.0
N405 N 0.00408 0.9642 0.43904 0.0
C406 C 0.98802 0.98407 0.45553 0.0
C407 C 0.01655 0.94455 0.45606 0.0
C408 C 0.01738 0.94478 0.44471 0.0
C409 C 0.00166 0.96434 0.46163 0.0
H410 H 0.97869 0.99847 0.43944 0.0
H411 H 0.02829 0.92922 0.44044 0.0
O412 O 0.00313 0.96306 0.39567 0.0
O413 O 0.0033 0.00017 0.41625 0.0
O414 O 0.9708 0.94854 0.41704 0.0
O415 O 0.0336 0.9454 0.41563 0.0
H416 H 0.0215 0.00415 0.38404 0.0
H417 H 0.95932 0.94382 0.38613 0.0
H418 H -0.0 0.02173 0.36725 0.0
H419 H 0.93882 0.96255 0.36933 0.0
H420 H 0.05847 0.04303 0.44025 0.0
H421 H 0.98843 0.05032 0.4119 0.0
H422 H 0.04036 0.00142 0.43185 0.0
H423 H 0.00727 0.09113 0.42073 0.0
H424 H 0.93529 0.05607 0.38857 0.0
H425 H 0.88058 0.99566 0.40115 0.0
H426 H 0.11239 0.97425 0.38592 0.0
H427 H 0.08667 0.05472 0.39472 0.0
H428 H 0.96886 0.92 0.43524 0.0
H429 H 0.9397 0.92503 0.40231 0.0
H430 H 0.94266 0.8778 0.43766 0.0
H431 H 0.91403 0.88272 0.40529 0.0
H432 H 0.04886 0.89661 0.4219 0.0
H433 H 0.07184 0.98034 0.42121 0.0
H434 H 0.0913 0.88623 0.43167 0.0
H435 H 0.11367 0.96856 0.43108 0.0
H436 H -0.00087 0.86162 0.37992 0.0
H437 H 0.00127 0.83741 0.41376 0.0
H438 H 0.97593 -0.00057 0.45946 0.0
H439 H 0.02756 0.92909 0.46042 0.0
Li440 Li 0.27683 0.77684 0.65679 0.0
Li441 Li 0.28718 0.74953 0.67292 0.0
Li442 Li 0.32047 0.75497 0.65761 0.0
Li443 Li 0.28082 0.72612 0.65561 0.0
C444 C 0.30564 0.80979 0.66991 0.0
N445 N 0.30496 0.86453 0.67423 0.0
C446 C 0.29484 0.81938 0.67969 0.0
C447 C 0.31644 0.82803 0.66241 0.0
C448 C 0.29461 0.84713 0.6817 0.0
C449 C 0.3158 0.85563 0.66472 0.0
C450 C 0.23226 0.74563 0.67039 0.0
C451 C 0.20367 0.7179 0.68166 0.0
N452 N 0.18819 0.73983 0.68394 0.0
C453 C 0.21587 0.76782 0.67274 0.0
C454 C 0.22594 0.72039 0.67477 0.0
C455 C 0.19375 0.7645 0.67965 0.0
C456 C 0.25655 0.80847 0.63995 0.0
N457 N 0.25857 0.8075 0.65097 0.0
C458 C 0.23641 0.85019 0.65256 0.0
C459 C 0.24849 0.82761 0.65732 0.0
C460 C 0.23478 0.85199 0.64116 0.0
C461 C 0.24485 0.83067 0.63485 0.0
H462 H 0.26402 0.79196 0.63507 0.0
H463 H 0.2499 0.82624 0.66607 0.0
C464 C 0.30267 0.7295 0.69319 0.0
N465 N 0.28404 0.74557 0.68832 0.0
C466 C 0.30173 0.72491 0.70438 0.0
C467 C 0.26295 0.75428 0.70547 0.0
C468 C 0.26457 0.75818 0.69423 0.0
C469 C 0.28158 0.73726 0.71066 0.0
H470 H 0.31839 0.72026 0.68839 0.0
H471 H 0.2504 0.77143 0.69025 0.0
C472 C 0.30939 0.75666 0.63617 0.0
N473 N 0.34028 0.76173 0.61755 0.0
C474 C 0.31304 0.73456 0.62925 0.0
C475 C 0.32112 0.78145 0.63352 0.0
C476 C 0.3288 0.7375 0.6199 0.0
C477 C 0.33677 0.78358 0.6241 0.0
C478 C 0.31609 0.69514 0.66728 0.0
C479 C 0.33932 0.68361 0.66283 0.0
C480 C 0.29811 0.679 0.67312 0.0
C481 C 0.34384 0.65595 0.66409 0.0
C482 C 0.30332 0.65143 0.6742 0.0
N483 N 0.32587 0.64056 0.66968 0.0
C484 C 0.37119 0.77924 0.65913 0.0
C485 C 0.36953 0.74277 0.64666 0.0
C486 C 0.39819 0.78384 0.65665 0.0
N487 N 0.35742 0.75917 0.65407 0.0
C488 C 0.39657 0.74659 0.64395 0.0
C489 C 0.41118 0.76744 0.64895 0.0
H490 H 0.36125 0.79162 0.66515 0.0
H491 H 0.35821 0.72673 0.64285 0.0
C492 C 0.23933 0.69304 0.64799 0.0
N493 N 0.26655 0.6947 0.64887 0.0
C494 C 0.22745 0.671 0.64283 0.0
C495 C 0.27185 0.65275 0.63949 0.0
C496 C 0.28288 0.6752 0.64472 0.0
C497 C 0.24376 0.65049 0.63847 0.0
H498 H 0.22683 0.70912 0.65113 0.0
H499 H 0.30449 0.67729 0.64527 0.0
O500 O 0.30598 0.78267 0.66779 0.0
O501 O 0.25405 0.74854 0.66366 0.0
O502 O 0.29414 0.75412 0.6454 0.0
O503 O 0.31122 0.72216 0.66604 0.0
H504 H 0.28668 0.8056 0.68564 0.0
H505 H 0.32524 0.82099 0.65489 0.0
H506 H 0.28618 0.85483 0.68921 0.0
H507 H 0.32395 0.86996 0.65895 0.0
H508 H 0.19863 0.6985 0.68515 0.0
H509 H 0.22024 0.78741 0.66932 0.0
H510 H 0.23795 0.70288 0.67283 0.0
H511 H 0.18102 0.78155 0.6816 0.0
H512 H 0.22876 0.8662 0.6577 0.0
H513 H 0.24338 0.83097 0.62605 0.0
H514 H 0.31681 0.71207 0.70809 0.0
H515 H 0.24708 0.76418 0.71003 0.0
H516 H 0.30386 0.71534 0.63108 0.0
H517 H 0.31817 0.79885 0.63867 0.0
H518 H 0.33191 0.72052 0.61451 0.0
H519 H 0.34608 0.80261 0.622 0.0
H520 H 0.35367 0.69582 0.65842 0.0
H521 H 0.2804 0.68769 0.67683 0.0
H522 H 0.36164 0.64674 0.66063 0.0
H523 H 0.28948 0.63868 0.67865 0.0
H524 H 0.4089 0.79974 0.66087 0.0
H525 H 0.40587 0.73353 0.63796 0.0
H526 H 0.20573 0.67044 0.64201 0.0
H527 H 0.28517 0.63739 0.63627 0.0
Li528 Li 0.5158 0.05816 0.90905 0.0
Li529 Li 0.51213 0.02749 0.924 0.0
Li530 Li 0.53865 0.01542 0.90723 0.0
Li531 Li 0.48743 0.01894 0.90706 0.0
C532 C 0.55635 0.06548 0.92368 0.0
N533 N 0.57732 0.1094 0.93467 0.0
C534 C 0.54085 0.07903 0.93145 0.0
C535 C 0.58254 0.07433 0.92149 0.0
C536 C 0.55179 0.10116 0.93692 0.0
C537 C 0.59278 0.09656 0.92713 0.0
C538 C 0.46247 0.05502 0.92447 0.0
C539 C 0.42087 0.04279 0.93338 0.0
N540 N 0.42126 0.06656 0.9389 0.0
C541 C 0.46234 0.07942 0.93019 0.0
C542 C 0.44147 0.0366 0.92604 0.0
C543 C 0.44139 0.08484 0.93747 0.0
C544 C 0.49974 0.11274 0.90646 0.0
N545 N 0.52025 0.09489 0.90515 0.0
C546 C 0.54989 0.12994 0.89934 0.0
C547 C 0.5448 0.10281 0.90145 0.0
C548 C 0.52947 0.14908 0.90105 0.0
C549 C 0.50394 0.14014 0.90446 0.0
H550 H 0.48032 0.10577 0.90928 0.0
H551 H 0.5606 0.08804 0.90034 0.0
C552 C 0.53927 0.01303 0.94256 0.0
N553 N 0.51435 0.02102 0.93932 0.0
C554 C 0.54417 0.00641 0.95341 0.0
C555 C 0.49757 0.0163 0.95747 0.0
C556 C 0.49363 0.02293 0.94653 0.0
C557 C 0.52309 0.00768 0.96103 0.0
H558 H 0.55538 0.0116 0.93665 0.0
H559 H 0.47392 0.02902 0.94383 0.0
C560 C 0.51561 0.04974 0.88789 0.0
N561 N 0.51804 0.08632 0.87097 0.0
C562 C 0.49255 0.06396 0.88478 0.0
C563 C 0.53984 0.05389 0.88235 0.0
C564 C 0.49422 0.08245 0.87622 0.0
C565 C 0.54066 0.07253 0.87382 0.0
C566 C 0.50087 0.96989 0.91865 0.0
C567 C 0.51087 0.94571 0.91442 0.0
C568 C 0.48 0.96929 0.92628 0.0
C569 C 0.49957 0.92129 0.91779 0.0
C570 C 0.46925 0.94446 0.92947 0.0
N571 N 0.47916 0.92117 0.92518 0.0
C572 C 0.59334 0.00171 0.90635 0.0
C573 C 0.56529 0.97637 0.89455 0.0
C574 C 0.61592 0.98715 0.90301 0.0
N575 N 0.56874 0.99608 0.9021 0.0
C576 C 0.58726 0.96098 0.8911 0.0
C577 C 0.61306 0.96622 0.89537 0.0
H578 H 0.59537 0.01732 0.91242 0.0
H579 H 0.54537 0.97228 0.89139 0.0
C580 C 0.4337 0.01953 0.89938 0.0
N581 N 0.45616 0.00407 0.90053 0.0
C582 C 0.41034 0.00861 0.89483 0.0
C583 C 0.43416 0.96653 0.89221 0.0
C584 C 0.45695 0.97819 0.89689 0.0
C585 C 0.41038 0.98172 0.89123 0.0
H586 H 0.43386 0.04028 0.90211 0.0
H587 H 0.47528 0.96658 0.89764 0.0
O588 O 0.54569 0.04415 0.91805 0.0
O589 O 0.48262 0.04963 0.91717 0.0
O590 O 0.51454 0.03204 0.8964 0.0
O591 O 0.51163 0.99396 0.91537 0.0
H592 H 0.52052 0.07263 0.9332 0.0
H593 H 0.59474 0.06443 0.91539 0.0
H594 H 0.53996 0.11182 0.94294 0.0
H595 H 0.61297 0.10367 0.92549 0.0
H596 H 0.40458 0.02865 0.93469 0.0
H597 H 0.4782 0.0941 0.92901 0.0
H598 H 0.4411 0.01764 0.92172 0.0
H599 H 0.4411 0.10361 0.94196 0.0
H600 H 0.5697 0.13591 0.89655 0.0
H601 H 0.48769 0.15424 0.90596 0.0
H602 H 0.56428 0.00034 0.95579 0.0
H603 H 0.48062 0.01724 0.963 0.0
H604 H 0.47368 0.06099 0.88903 0.0
H605 H 0.55785 0.04301 0.88469 0.0
H606 H 0.47659 0.09376 0.87377 0.0
H607 H 0.55931 0.07608 0.86949 0.0
H608 H 0.52711 0.94582 0.90854 0.0
H609 H 0.47226 0.98773 0.92974 0.0
H610 H 0.50703 0.90243 0.91454 0.0
H611 H 0.45307 0.94371 0.93536 0.0
H612 H 0.63538 0.99227 0.90641 0.0
H613 H 0.58389 0.94478 0.88535 0.0
H614 H 0.39252 0.02108 0.89407 0.0
H615 H 0.43499 0.94569 0.88957 0.0
Li616 Li 0.23359 0.24412 0.17093 0.0
Li617 Li 0.23404 0.21469 0.15494 0.0
Li618 Li 0.24148 0.26467 0.15284 0.0
Li619 Li 0.19699 0.24572 0.15689 0.0
C620 C 0.2886 0.23881 0.16535 0.0
N621 N 0.33911 0.24137 0.17476 0.0
C622 C 0.30164 0.2152 0.16867 0.0
C623 C 0.30152 0.26367 0.16661 0.0
C624 C 0.32709 0.21693 0.17347 0.0
C625 C 0.32698 0.26457 0.17144 0.0
C626 C 0.20278 0.1889 0.16896 0.0
C627 C 0.18403 0.14583 0.16385 0.0
N628 N 0.19519 0.13452 0.17288 0.0
C629 C 0.21386 0.17692 0.17824 0.0
C630 C 0.18754 0.17332 0.16176 0.0
C631 C 0.20985 0.14938 0.18006 0.0
C632 C 0.22747 0.267 0.19167 0.0
N633 N 0.24124 0.2477 0.1861 0.0
C634 C 0.26537 0.23537 0.20221 0.0
C635 C 0.25959 0.23164 0.19117 0.0
C636 C 0.25223 0.25593 0.20801 0.0
C637 C 0.23292 0.27172 0.20264 0.0
H638 H 0.21229 0.27888 0.18757 0.0
H639 H 0.26965 0.21585 0.18669 0.0
C640 C 0.24555 0.17962 0.13794 0.0
N641 N 0.24569 0.18116 0.14898 0.0
C642 C 0.2563 0.1572 0.13266 0.0
C643 C 0.26683 0.13789 0.15022 0.0
C644 C 0.25586 0.16081 0.15517 0.0
C645 C 0.2675 0.13608 0.1388 0.0
H646 H 0.23802 0.1963 0.13318 0.0
H647 H 0.25623 0.16268 0.16393 0.0
C648 C 0.21815 0.3028 0.16692 0.0
N649 N 0.22341 0.35667 0.17234 0.0
C650 C 0.19743 0.321 0.16455 0.0
C651 C 0.24137 0.31196 0.17218 0.0
C652 C 0.20052 0.34817 0.16732 0.0
C653 C 0.2437 0.33928 0.17482 0.0
C654 C 0.20242 0.24227 0.13522 0.0
C655 C 0.20278 0.26553 0.12878 0.0
C656 C 0.18436 0.2215 0.13278 0.0
C657 C 0.1847 0.26781 0.12011 0.0
C658 C 0.16657 0.22457 0.12406 0.0
N659 N 0.16709 0.24748 0.11796 0.0
C660 C 0.28332 0.28127 0.13955 0.0
C661 C 0.25189 0.31623 0.14308 0.0
C662 C 0.29805 0.29813 0.13269 0.0
N663 N 0.26077 0.29054 0.14458 0.0
C664 C 0.26613 0.33388 0.13635 0.0
C665 C 0.28941 0.32478 0.13099 0.0
H666 H 0.28966 0.26061 0.14079 0.0
H667 H 0.23341 0.32288 0.14684 0.0
C668 C 0.14131 0.23502 0.15921 0.0
N669 N 0.15976 0.25154 0.1545 0.0
C670 C 0.11384 0.2394 0.15754 0.0
C671 C 0.12499 0.27758 0.14613 0.0
C672 C 0.15218 0.27263 0.14813 0.0
C673 C 0.10534 0.26094 0.15091 0.0
H674 H 0.14792 0.21863 0.16437 0.0
H675 H 0.16729 0.28565 0.1446 0.0
O676 O 0.26373 0.23745 0.16057 0.0
O677 O 0.20662 0.2158 0.16701 0.0
O678 O 0.21548 0.27614 0.16421 0.0
O679 O 0.21983 0.23976 0.1438 0.0
H680 H 0.29209 0.19576 0.16765 0.0
H681 H 0.29217 0.28207 0.16378 0.0
H682 H 0.33729 0.19883 0.17617 0.0
H683 H 0.33715 0.28369 0.1725 0.0
H684 H 0.17243 0.1335 0.1583 0.0
H685 H 0.22549 0.18871 0.18395 0.0
H686 H 0.17859 0.18233 0.15461 0.0
H687 H 0.21843 0.13981 0.18718 0.0
H688 H 0.28028 0.22268 0.20611 0.0
H689 H 0.22198 0.2874 0.2069 0.0
H690 H 0.25693 0.15707 0.12385 0.0
H691 H 0.27515 0.12204 0.15527 0.0
H692 H 0.17918 0.31425 0.1606 0.0
H693 H 0.25727 0.29808 0.17433 0.0
H694 H 0.18471 0.36249 0.16548 0.0
H695 H 0.26159 0.34662 0.17888 0.0
H696 H 0.21672 0.28173 0.13049 0.0
H697 H 0.18404 0.20324 0.13759 0.0
H698 H 0.18464 0.28577 0.11511 0.0
H699 H 0.15237 0.20872 0.12213 0.0
H700 H 0.31604 0.29044 0.12878 0.0
H701 H 0.25863 0.35418 0.13511 0.0
H702 H 0.09945 0.22637 0.16156 0.0
H703 H 0.11947 0.2942 0.14087 0.0
Li704 Li 0.78901 0.2551 0.172 0.0
Li705 Li 0.77562 0.27934 0.1549 0.0
Li706 Li 0.77574 0.22856 0.15675 0.0
Li707 Li 0.81656 0.25254 0.15583 0.0
C708 C 0.73641 0.26184 0.17302 0.0
N709 N 0.70387 0.27498 0.19051 0.0
C710 C 0.725 0.28757 0.17379 0.0
C711 C 0.73102 0.24272 0.18111 0.0
C712 C 0.70865 0.29383 0.1827 0.0
C713 C 0.71462 0.24978 0.18991 0.0
C714 C 0.83078 0.29736 0.16644 0.0
C715 C 0.86497 0.33014 0.16201 0.0
N716 N 0.88086 0.31995 0.17004 0.0
C717 C 0.84738 0.28729 0.17469 0.0
C718 C 0.83956 0.31901 0.16007 0.0
C719 C 0.87266 0.29897 0.17637 0.0
C720 C 0.79461 0.23964 0.19433 0.0
N721 N 0.78858 0.25999 0.18732 0.0
C722 C 0.77888 0.28975 0.20209 0.0
C723 C 0.78128 0.28482 0.19097 0.0
C724 C 0.78437 0.26898 0.20956 0.0
C725 C 0.79255 0.24369 0.20555 0.0
H726 H 0.80092 0.22026 0.19121 0.0
H727 H 0.77681 0.30066 0.18518 0.0
C728 C 0.73865 0.30759 0.14179 0.0
N729 N 0.75831 0.31032 0.14939 0.0
C730 C 0.72465 0.33023 0.13809 0.0
C731 C 0.75154 0.35798 0.15011 0.0
C732 C 0.76499 0.3348 0.15358 0.0
C733 C 0.73092 0.35584 0.14233 0.0
H734 H 0.73362 0.28775 0.13873 0.0
H735 H 0.7804 0.33624 0.15976 0.0
C736 C 0.80781 0.19568 0.16621 0.0
N737 N 0.80608 0.13992 0.16578 0.0
C738 C 0.82432 0.18128 0.15904 0.0
C739 C 0.79048 0.18167 0.17318 0.0
C740 C 0.82317 0.15311 0.15896 0.0
C741 C 0.78985 0.1535 0.17282 0.0
C742 C 0.80193 0.2525 0.1348 0.0
C743 C 0.81809 0.23082 0.13158 0.0
C744 C 0.79987 0.27522 0.1281 0.0
C745 C 0.83215 0.23234 0.12174 0.0
C746 C 0.8142 0.27594 0.11832 0.0
N747 N 0.82992 0.25467 0.11537 0.0
C748 C 0.73221 0.19246 0.15747 0.0
C749 C 0.76612 0.17976 0.14491 0.0
C750 C 0.71741 0.16935 0.15505 0.0
N751 N 0.75621 0.19708 0.15251 0.0
C752 C 0.75196 0.15634 0.14222 0.0
C753 C 0.72732 0.15083 0.14738 0.0
H754 H 0.7245 0.20673 0.16332 0.0
H755 H 0.78518 0.18391 0.14103 0.0
C756 C 0.8714 0.2385 0.15698 0.0
N757 N 0.85342 0.25379 0.15135 0.0
C758 C 0.89897 0.24144 0.15516 0.0
C759 C 0.88909 0.27577 0.14176 0.0
C760 C 0.86172 0.27214 0.14383 0.0
C761 C 0.90812 0.26059 0.14759 0.0
H762 H 0.8644 0.22495 0.16326 0.0
H763 H 0.84719 0.28492 0.13981 0.0
O764 O 0.75296 0.25551 0.16447 0.0
O765 O 0.8064 0.28553 0.16441 0.0
O766 O 0.80828 0.22332 0.16628 0.0
O767 O 0.78788 0.25142 0.14437 0.0
H768 H 0.72882 0.30263 0.16762 0.0
H769 H 0.7398 0.22278 0.18073 0.0
H770 H 0.6998 0.3137 0.18341 0.0
H771 H 0.71053 0.23526 0.19627 0.0
H772 H 0.87213 0.34675 0.15709 0.0
H773 H 0.84101 0.27035 0.17961 0.0
H774 H 0.82711 0.32681 0.15356 0.0
H775 H 0.88581 0.29126 0.18266 0.0
H776 H 0.77225 0.30946 0.2048 0.0
H777 H 0.79747 0.22728 0.21102 0.0
H778 H 0.70858 0.32759 0.13223 0.0
H779 H 0.75714 0.37732 0.15353 0.0
H780 H 0.83763 0.19169 0.15349 0.0
H781 H 0.77729 0.19242 0.17867 0.0
H782 H 0.83574 0.14174 0.15341 0.0
H783 H 0.77637 0.14244 0.17811 0.0
H784 H 0.82018 0.21323 0.1367 0.0
H785 H 0.78748 0.2922 0.13045 0.0
H786 H 0.84489 0.21579 0.1192 0.0
H787 H 0.81287 0.29343 0.11307 0.0
H788 H 0.69819 0.16624 0.15904 0.0
H789 H 0.76036 0.14254 0.13628 0.0
H790 H 0.91298 0.22979 0.16001 0.0
H791 H 0.89532 0.2908 0.13587 0.0
Li792 Li 0.72648 0.74327 0.67179 0.0
Li793 Li 0.73622 0.71714 0.65467 0.0
Li794 Li 0.73929 0.76863 0.65525 0.0
Li795 Li 0.69776 0.74548 0.65661 0.0
C796 C 0.78463 0.73364 0.66781 0.0
N797 N 0.83314 0.71788 0.67684 0.0
C798 C 0.78867 0.7068 0.67091 0.0
C799 C 0.80525 0.75248 0.66934 0.0
C800 C 0.81336 0.69922 0.67544 0.0
C801 C 0.82962 0.74412 0.67392 0.0
C802 C 0.68273 0.69912 0.6645 0.0
C803 C 0.65318 0.66827 0.65511 0.0
N804 N 0.63382 0.67283 0.66273 0.0
C805 C 0.66259 0.7034 0.67226 0.0
C806 C 0.67803 0.68137 0.65586 0.0
C807 C 0.63798 0.68998 0.67121 0.0
C808 C 0.70427 0.7489 0.69238 0.0
N809 N 0.72777 0.74257 0.6873 0.0
C810 C 0.74939 0.73511 0.70441 0.0
C811 C 0.75024 0.73608 0.69306 0.0
C812 C 0.72518 0.74079 0.70985 0.0
C813 C 0.70245 0.74796 0.7037 0.0
H814 H 0.6869 0.75463 0.6876 0.0
H815 H 0.76881 0.73154 0.68894 0.0
C816 C 0.7716 0.68872 0.64111 0.0
N817 N 0.753 0.68583 0.64913 0.0
C818 C 0.78672 0.66655 0.63767 0.0
C819 C 0.76268 0.63878 0.65063 0.0
C820 C 0.74806 0.66149 0.65382 0.0
C821 C 0.78265 0.64125 0.64259 0.0
H822 H 0.77529 0.70846 0.63765 0.0
H823 H 0.73345 0.65992 0.66032 0.0
C824 C 0.71732 0.79803 0.67189 0.0
N825 N 0.73294 0.84207 0.68421 0.0
C826 C 0.69975 0.81979 0.67338 0.0
C827 C 0.7429 0.7988 0.67665 0.0
C828 C 0.708 0.84184 0.67963 0.0
C829 C 0.75039 0.82118 0.68286 0.0
C830 C 0.70833 0.74776 0.63505 0.0
C831 C 0.69668 0.77282 0.6328 0.0
C832 C 0.7045 0.72622 0.62788 0.0
C833 C 0.68093 0.77579 0.62345 0.0
C834 C 0.68865 0.73003 0.6186 0.0
N835 N 0.67727 0.75452 0.61661 0.0
C836 C 0.78382 0.79633 0.64635 0.0
C837 C 0.7444 0.82269 0.6488 0.0
C838 C 0.79777 0.81873 0.64239 0.0
N839 N 0.75778 0.79884 0.64959 0.0
C840 C 0.75756 0.8456 0.64491 0.0
C841 C 0.78466 0.84383 0.64172 0.0
H842 H 0.79377 0.77696 0.64692 0.0
H843 H 0.72349 0.82393 0.65119 0.0
C844 C 0.64726 0.76862 0.65866 0.0
N845 N 0.66053 0.74946 0.65285 0.0
C846 C 0.62044 0.77454 0.65641 0.0
C847 C 0.62079 0.73998 0.64253 0.0
C848 C 0.64781 0.73492 0.64498 0.0
C849 C 0.60697 0.7603 0.6482 0.0
H850 H 0.65752 0.77933 0.66508 0.0
H851 H 0.65857 0.71948 0.64056 0.0
O852 O 0.76076 0.74144 0.6632 0.0
O853 O 0.70684 0.71234 0.6653 0.0
O854 O 0.70947 0.77646 0.66565 0.0
O855 O 0.72374 0.74438 0.64415 0.0
H856 H 0.77278 0.69209 0.67002 0.0
H857 H 0.80244 0.77338 0.66707 0.0
H858 H 0.81673 0.67853 0.6779 0.0
H859 H 0.84572 0.7585 0.67517 0.0
H860 H 0.64922 0.65461 0.64843 0.0
H861 H 0.66584 0.71704 0.67899 0.0
H862 H 0.6932 0.67814 0.64967 0.0
H863 H 0.62217 0.69321 0.67713 0.0
H864 H 0.76735 0.72941 0.70887 0.0
H865 H 0.68353 0.75295 0.70761 0.0
H866 H 0.80219 0.66947 0.63157 0.0
H867 H 0.75874 0.61963 0.65457 0.0
H868 H 0.67999 0.81983 0.66967 0.0
H869 H 0.75685 0.78235 0.67562 0.0
H870 H 0.6946 0.85881 0.68082 0.0
H871 H 0.77011 0.82195 0.6866 0.0
H872 H 0.69951 0.78967 0.63828 0.0
H873 H 0.71351 0.70673 0.62951 0.0
H874 H 0.67159 0.795 0.62164 0.0
H875 H 0.68536 0.71352 0.613 0.0
H876 H 0.81871 0.81653 0.64007 0.0
H877 H 0.74658 0.86443 0.64434 0.0
H878 H 0.61024 0.7899 0.66115 0.0
H879 H 0.61094 0.72847 0.63618 0.0
Li880 Li 0.69919 0.25434 0.34085 0.0
Li881 Li 0.7415 0.2326 0.34279 0.0
Li882 Li 0.74062 0.28148 0.34298 0.0
Li883 Li 0.73403 0.25495 0.32548 0.0
C884 C 0.70941 0.26462 0.36238 0.0
N885 N 0.6796 0.28102 0.38021 0.0
C886 C 0.70049 0.2457 0.37002 0.0
C887 C 0.70339 0.29192 0.36389 0.0
C888 C 0.68537 0.25437 0.37895 0.0
C889 C 0.68824 0.2998 0.37293 0.0
C890 C 0.71391 0.19696 0.33047 0.0
C891 C 0.72544 0.15738 0.32003 0.0
N892 N 0.7153 0.14154 0.3281 0.0
C893 C 0.70345 0.18031 0.33862 0.0
C894 C 0.7249 0.18546 0.32107 0.0
C895 C 0.70442 0.15233 0.33728 0.0
C896 C 0.64409 0.26904 0.3387 0.0
N897 N 0.66165 0.2524 0.34388 0.0
C898 C 0.6256 0.23143 0.35361 0.0
C899 C 0.65293 0.23362 0.35113 0.0
C900 C 0.60697 0.24876 0.34858 0.0
C901 C 0.6166 0.2678 0.34103 0.0
H902 H 0.65134 0.28319 0.3327 0.0
H903 H 0.66718 0.22017 0.35495 0.0
C904 C 0.76089 0.20363 0.36068 0.0
N905 N 0.75903 0.20252 0.34965 0.0
C906 C 0.77285 0.18262 0.36647 0.0
C907 C 0.78172 0.15992 0.34943 0.0
C908 C 0.7695 0.1814 0.34397 0.0
C909 C 0.7833 0.16028 0.36085 0.0
H910 H 0.75328 0.221 0.365 0.0
H911 H 0.76843 0.18115 0.3352 0.0
C912 C 0.70271 0.31002 0.32892 0.0
N913 N 0.685 0.36104 0.3233 0.0
C914 C 0.70954 0.32109 0.31881 0.0
C915 C 0.68673 0.32487 0.33613 0.0
C916 C 0.70043 0.34693 0.31613 0.0
C917 C 0.67801 0.35063 0.33314 0.0
C918 C 0.78978 0.244 0.33534 0.0
C919 C 0.80649 0.24648 0.34444 0.0
C920 C 0.79715 0.22675 0.32685 0.0
C921 C 0.83028 0.23145 0.34492 0.0
C922 C 0.82114 0.21213 0.32762 0.0
N923 N 0.83705 0.21473 0.33658 0.0
C924 C 0.77209 0.31089 0.3578 0.0
C925 C 0.7561 0.33701 0.34301 0.0
C926 C 0.7869 0.3328 0.36172 0.0
N927 N 0.75736 0.31327 0.34852 0.0
C928 C 0.76996 0.35959 0.34679 0.0
C929 C 0.78621 0.3576 0.35613 0.0
H930 H 0.77291 0.2917 0.36198 0.0
H931 H 0.7449 0.33844 0.33554 0.0
C932 C 0.72257 0.24888 0.30278 0.0
N933 N 0.74051 0.25755 0.31037 0.0
C934 C 0.72771 0.25306 0.29171 0.0
C935 C 0.76962 0.27484 0.29657 0.0
C936 C 0.76369 0.27026 0.3075 0.0
C937 C 0.7514 0.26648 0.28851 0.0
H938 H 0.70412 0.23914 0.30534 0.0
H939 H 0.7774 0.27721 0.31373 0.0
O940 O 0.72415 0.25641 0.35355 0.0
O941 O 0.71306 0.22439 0.33158 0.0
O942 O 0.71168 0.2848 0.33168 0.0
O943 O 0.76611 0.25808 0.33482 0.0
H944 H 0.70495 0.22447 0.369 0.0
H945 H 0.71032 0.30691 0.35817 0.0
H946 H 0.6782 0.23991 0.38488 0.0
H947 H 0.68338 0.32086 0.37417 0.0
H948 H 0.73397 0.14819 0.31283 0.0
H949 H 0.69505 0.18886 0.34596 0.0
H950 H 0.73311 0.19806 0.31469 0.0
H951 H 0.69659 0.13919 0.34356 0.0
H952 H 0.61916 0.21596 0.35927 0.0
H953 H 0.60311 0.28173 0.33698 0.0
H954 H 0.77428 0.18406 0.37525 0.0
H955 H 0.78955 0.1431 0.34478 0.0
H956 H 0.72185 0.30994 0.31312 0.0
H957 H 0.68088 0.31653 0.3439 0.0
H958 H 0.70564 0.35576 0.30836 0.0
H959 H 0.66563 0.36232 0.33865 0.0
H960 H 0.801 0.25963 0.35111 0.0
H961 H 0.78428 0.22432 0.31981 0.0
H962 H 0.84333 0.23304 0.35195 0.0
H963 H 0.82702 0.19857 0.32114 0.0
H964 H 0.79942 0.32994 0.36884 0.0
H965 H 0.76822 0.37829 0.34229 0.0
H966 H 0.71302 0.24652 0.28575 0.0
H967 H 0.78828 0.28489 0.29448 0.0
Li968 Li 0.77933 0.76832 0.8429 0.0
Li969 Li 0.81681 0.74128 0.83818 0.0
Li970 Li 0.77708 0.7452 0.82545 0.0
Li971 Li 0.77556 0.7198 0.84307 0.0
C972 C 0.80487 0.80032 0.8282 0.0
N973 N 0.80839 0.85514 0.82435 0.0
C974 C 0.81867 0.81699 0.83549 0.0
C975 C 0.79298 0.81151 0.81892 0.0
C976 C 0.82016 0.84467 0.83341 0.0
C977 C 0.79496 0.83928 0.81713 0.0
C978 C 0.82031 0.74248 0.85908 0.0
C979 C 0.85653 0.71867 0.86798 0.0
N980 N 0.86592 0.74247 0.87198 0.0
C981 C 0.83028 0.7667 0.8633 0.0
C982 C 0.83346 0.71825 0.86147 0.0
C983 C 0.85337 0.76627 0.8698 0.0
C984 C 0.76389 0.79678 0.86147 0.0
N985 N 0.76638 0.7995 0.85051 0.0
C986 C 0.74576 0.84307 0.85118 0.0
C987 C 0.75741 0.822 0.8453 0.0
C988 C 0.74272 0.84072 0.86252 0.0
C989 C 0.75212 0.81721 0.86766 0.0
H990 H 0.77019 0.77828 0.86537 0.0
H991 H 0.75837 0.82329 0.83654 0.0
C992 C 0.86598 0.715 0.83392 0.0
N993 N 0.85499 0.73801 0.83798 0.0
C994 C 0.89386 0.71246 0.83297 0.0
C995 C 0.89864 0.75724 0.84054 0.0
C996 C 0.87067 0.75894 0.84128 0.0
C997 C 0.91054 0.73388 0.83621 0.0
H998 H 0.85311 0.69881 0.83119 0.0
H999 H 0.86148 0.77715 0.84433 0.0
C1000 C 0.72732 0.75804 0.84119 0.0
N1001 N 0.68404 0.78454 0.85046 0.0
C1002 C 0.71809 0.75057 0.85151 0.0
C1003 C 0.71447 0.77891 0.83556 0.0
C1004 C 0.69619 0.76423 0.85606 0.0
C1005 C 0.69263 0.79208 0.84039 0.0
C1006 C 0.79418 0.68547 0.82835 0.0
C1007 C 0.77784 0.6764 0.81983 0.0
C1008 C 0.8062 0.66673 0.83534 0.0
C1009 C 0.77359 0.64872 0.81852 0.0
C1010 C 0.80141 0.63923 0.83377 0.0
N1011 N 0.78533 0.63087 0.82547 0.0
C1012 C 0.78465 0.7422 0.80294 0.0
C1013 C 0.73906 0.74655 0.80842 0.0
C1014 C 0.77697 0.7404 0.79204 0.0
N1015 N 0.76571 0.74514 0.81083 0.0
C1016 C 0.73048 0.74516 0.79762 0.0
C1017 C 0.74952 0.7418 0.78925 0.0
H1018 H 0.80569 0.74074 0.80517 0.0
H1019 H 0.72443 0.74838 0.81489 0.0
C1020 C 0.7644 0.68314 0.86024 0.0
N1021 N 0.75869 0.68983 0.84976 0.0
C1022 C 0.75113 0.66157 0.8652 0.0
C1023 C 0.7266 0.65414 0.84846 0.0
C1024 C 0.74005 0.67606 0.84389 0.0
C1025 C 0.73186 0.64676 0.85931 0.0
H1026 H 0.77883 0.69489 0.8648 0.0
H1027 H 0.73555 0.68222 0.83564 0.0
O1028 O 0.80337 0.77313 0.83 0.0
O1029 O 0.79793 0.74252 0.85257 0.0
O1030 O 0.74927 0.74546 0.83676 0.0
O1031 O 0.7983 0.71252 0.82986 0.0
H1032 H 0.82762 0.80878 0.84279 0.0
H1033 H 0.78228 0.79891 0.81318 0.0
H1034 H 0.83059 0.85783 0.83903 0.0
H1035 H 0.78581 0.84822 0.80999 0.0
H1036 H 0.86698 0.70008 0.86984 0.0
H1037 H 0.82056 0.78569 0.86146 0.0
H1038 H 0.82608 0.69934 0.85825 0.0
H1039 H 0.86139 0.78487 0.87307 0.0
H1040 H 0.73883 0.8608 0.84686 0.0
H1041 H 0.74955 0.81411 0.87632 0.0
H1042 H 0.90227 0.69404 0.82966 0.0
H1043 H 0.91077 0.77437 0.84298 0.0
H1044 H 0.72796 0.73464 0.85603 0.0
H1045 H 0.72165 0.78528 0.82765 0.0
H1046 H 0.68893 0.75877 0.86406 0.0
H1047 H 0.68265 0.80843 0.83617 0.0
H1048 H 0.76832 0.69055 0.81435 0.0
H1049 H 0.81886 0.67337 0.84198 0.0
H1050 H 0.76089 0.64143 0.812 0.0
H1051 H 0.81044 0.62454 0.83917 0.0
H1052 H 0.79235 0.73731 0.78591 0.0
H1053 H 0.70916 0.7467 0.79587 0.0
H1054 H 0.75542 0.65705 0.87365 0.0
H1055 H 0.71218 0.64319 0.84354 0.0
Li1056 Li 0.50651 0.53107 0.07457 0.0
Li1057 Li 0.50051 0.5593 0.09105 0.0
Li1058 Li 0.52796 0.51842 0.09225 0.0
Li1059 Li 0.47886 0.51616 0.08987 0.0
C1060 C 0.55974 0.54986 0.07873 0.0
N1061 N 0.61092 0.5467 0.06999 0.0
C1062 C 0.5774 0.57168 0.07965 0.0
C1063 C 0.56814 0.52635 0.07343 0.0
C1064 C 0.60319 0.56971 0.07516 0.0
C1065 C 0.59408 0.52518 0.06905 0.0
C1066 C 0.44944 0.55701 0.07697 0.0
C1067 C 0.40267 0.5674 0.08027 0.0
N1068 N 0.40052 0.5772 0.06996 0.0
C1069 C 0.44676 0.56717 0.06641 0.0
C1070 C 0.42723 0.55713 0.08396 0.0
C1071 C 0.42187 0.57729 0.06302 0.0
C1072 C 0.4909 0.51578 0.05374 0.0
N1073 N 0.50842 0.53191 0.05918 0.0
C1074 C 0.52525 0.54984 0.04246 0.0
C1075 C 0.52522 0.54903 0.05382 0.0
C1076 C 0.5076 0.53309 0.0366 0.0
C1077 C 0.49022 0.51594 0.04239 0.0
H1078 H 0.477 0.50325 0.05824 0.0
H1079 H 0.53838 0.5623 0.05834 0.0
C1080 C 0.51051 0.60428 0.10479 0.0
N1081 N 0.49756 0.59563 0.09567 0.0
C1082 C 0.50925 0.6314 0.10784 0.0
C1083 C 0.48207 0.64022 0.09189 0.0
C1084 C 0.48352 0.61293 0.08924 0.0
C1085 C 0.49515 0.64971 0.10125 0.0
H1086 H 0.52225 0.59026 0.10957 0.0
H1087 H 0.47398 0.60569 0.08191 0.0
C1088 C 0.4986 0.46945 0.08337 0.0
N1089 N 0.47806 0.41833 0.08685 0.0
C1090 C 0.4982 0.45849 0.09387 0.0
C1091 C 0.4888 0.45428 0.07464 0.0
C1092 C 0.48767 0.43265 0.09546 0.0
C1093 C 0.47845 0.42851 0.07657 0.0
C1094 C 0.49333 0.54123 0.11223 0.0
C1095 C 0.51156 0.53917 0.12087 0.0
C1096 C 0.46884 0.55459 0.11379 0.0
C1097 C 0.50509 0.55082 0.13089 0.0
C1098 C 0.46312 0.566 0.12392 0.0
N1099 N 0.48121 0.56391 0.1322 0.0
C1100 C 0.5744 0.51957 0.10522 0.0
C1101 C 0.56595 0.47739 0.0968 0.0
C1102 C 0.59684 0.50902 0.11059 0.0
N1103 N 0.55921 0.50353 0.09869 0.0
C1104 C 0.58806 0.46594 0.10205 0.0
C1105 C 0.60366 0.4817 0.10919 0.0
H1106 H 0.56879 0.54048 0.10638 0.0
H1107 H 0.55395 0.46527 0.09134 0.0
C1108 C 0.4318 0.48728 0.08486 0.0
N1109 N 0.4476 0.49595 0.09318 0.0
C1110 C 0.4107 0.46937 0.08687 0.0
C1111 C 0.42208 0.47046 0.10601 0.0
C1112 C 0.44293 0.48834 0.10363 0.0
C1113 C 0.40595 0.46034 0.09754 0.0
H1114 H 0.43623 0.49356 0.07661 0.0
H1115 H 0.45616 0.49518 0.11005 0.0
O1116 O 0.53461 0.55136 0.08325 0.0
O1117 O 0.47374 0.54701 0.08037 0.0
O1118 O 0.50789 0.49514 0.08175 0.0
O1119 O 0.49947 0.53009 0.10235 0.0
H1120 H 0.57123 0.58994 0.08381 0.0
H1121 H 0.5548 0.5092 0.0727 0.0
H1122 H 0.61707 0.58647 0.07579 0.0
H1123 H 0.60084 0.50714 0.06491 0.0
H1124 H 0.38529 0.56753 0.08559 0.0
H1125 H 0.46377 0.56741 0.0609 0.0
H1126 H 0.42877 0.54913 0.09211 0.0
H1127 H 0.41953 0.58525 0.05487 0.0
H1128 H 0.53901 0.56333 0.03831 0.0
H1129 H 0.47584 0.50319 0.03821 0.0
H1130 H 0.51993 0.63814 0.11503 0.0
H1131 H 0.47104 0.65383 0.08661 0.0
H1132 H 0.50551 0.47004 0.10074 0.0
H1133 H 0.48915 0.46229 0.06646 0.0
H1134 H 0.48701 0.42404 0.10355 0.0
H1135 H 0.47068 0.4166 0.06989 0.0
H1136 H 0.53047 0.52864 0.11985 0.0
H1137 H 0.45457 0.55642 0.10721 0.0
H1138 H 0.51904 0.54943 0.13763 0.0
H1139 H 0.44431 0.57656 0.12521 0.0
H1140 H 0.60858 0.52207 0.11583 0.0
H1141 H 0.59233 0.44475 0.10078 0.0
H1142 H 0.39859 0.46225 0.08012 0.0
H1143 H 0.41946 0.46367 0.11433 0.0
Li1144 Li 0.99179 0.48276 0.59337 0.0
Li1145 Li 0.04082 0.48241 0.59141 0.0
Li1146 Li 0.01143 0.47393 0.57588 0.0
Li1147 Li 0.01656 0.44093 0.59047 0.0
C1148 C 0.01536 0.52677 0.57698 0.0
N1149 N 0.01789 0.56434 0.56038 0.0
C1150 C 0.04009 0.53809 0.57401 0.0
C1151 C 0.9919 0.53467 0.57154 0.0
C1152 C 0.04094 0.55707 0.56561 0.0
C1153 C 0.99361 0.55363 0.56315 0.0
C1154 C 0.03199 0.47338 0.61207 0.0
C1155 C 0.0701 0.46997 0.62418 0.0
N1156 N 0.06063 0.49141 0.62993 0.0
C1157 C 0.02257 0.49532 0.61813 0.0
C1158 C 0.05587 0.46049 0.61514 0.0
C1159 C 0.03735 0.50414 0.62713 0.0
C1160 C 0.94939 0.48338 0.60858 0.0
N1161 N 0.96252 0.49842 0.601 0.0
C1162 C 0.93397 0.53616 0.60452 0.0
C1163 C 0.95542 0.52438 0.59894 0.0
C1164 C 0.91975 0.52105 0.61232 0.0
C1165 C 0.9277 0.49428 0.61431 0.0
H1166 H 0.95579 0.46288 0.61014 0.0
H1167 H 0.9666 0.53605 0.59305 0.0
C1168 C 0.09741 0.48818 0.59435 0.0
N1169 N 0.07288 0.49956 0.59611 0.0
C1170 C 0.12071 0.50084 0.59816 0.0
C1171 C 0.09295 0.53675 0.60539 0.0
C1172 C 0.07027 0.52347 0.60141 0.0
C1173 C 0.11859 0.52537 0.60383 0.0
H1174 H 0.09888 0.46925 0.59003 0.0
H1175 H 0.05047 0.53215 0.60256 0.0
C1176 C 0.95635 0.44915 0.58511 0.0
N1177 N 0.90229 0.4427 0.58985 0.0
C1178 C 0.94772 0.42719 0.59135 0.0
C1179 C 0.93745 0.46775 0.58124 0.0
C1180 C 0.92031 0.42429 0.59366 0.0
C1181 C 0.91023 0.46417 0.58374 0.0
C1182 C 0.05645 0.43098 0.57697 0.0
C1183 C 0.0509 0.4203 0.56668 0.0
C1184 C 0.07353 0.41702 0.58406 0.0
C1185 C 0.0624 0.39566 0.56368 0.0
C1186 C 0.08458 0.39241 0.58076 0.0
N1187 N 0.07883 0.38233 0.57073 0.0
C1188 C 0.02856 0.48924 0.55493 0.0
C1189 C 0.98301 0.4751 0.55594 0.0
C1190 C 0.0254 0.49627 0.544 0.0
N1191 N 0.00733 0.47945 0.56069 0.0
C1192 C 0.97897 0.48174 0.54503 0.0
C1193 C 0.00021 0.49293 0.53896 0.0
H1194 H 0.04772 0.49233 0.55892 0.0
H1195 H 0.96661 0.46689 0.56067 0.0
C1196 C 0.02092 0.39606 0.60444 0.0
N1197 N 0.01678 0.40377 0.59396 0.0
C1198 C 0.01994 0.36882 0.60727 0.0
C1199 C 0.01059 0.35805 0.58843 0.0
C1200 C 0.01144 0.3855 0.586 0.0
C1201 C 0.01474 0.34948 0.5992 0.0
H1202 H 0.02458 0.41109 0.61063 0.0
H1203 H 0.00752 0.39233 0.57779 0.0
O1204 O 0.01418 0.50773 0.58503 0.0
O1205 O 0.01819 0.46486 0.60307 0.0
O1206 O 0.98315 0.45256 0.5829 0.0
O1207 O 0.04511 0.4549 0.58011 0.0
H1208 H 0.05848 0.53208 0.57807 0.0
H1209 H 0.97264 0.5259 0.57364 0.0
H1210 H 0.05995 0.5659 0.56319 0.0
H1211 H 0.97566 0.55973 0.55881 0.0
H1212 H 0.08872 0.46033 0.62659 0.0
H1213 H 0.00423 0.50564 0.61584 0.0
H1214 H 0.06355 0.44361 0.61049 0.0
H1215 H 0.03038 0.52118 0.63186 0.0
H1216 H 0.92898 0.55705 0.60291 0.0
H1217 H 0.91723 0.48183 0.62019 0.0
H1218 H 0.1401 0.49137 0.59683 0.0
H1219 H 0.09045 0.55588 0.60953 0.0
H1220 H 0.96201 0.41265 0.59446 0.0
H1221 H 0.94378 0.48503 0.57651 0.0
H1222 H 0.91336 0.40745 0.59851 0.0
H1223 H 0.89543 0.47853 0.58087 0.0
H1224 H 0.03768 0.43079 0.56111 0.0
H1225 H 0.07784 0.42488 0.59209 0.0
H1226 H 0.0582 0.38709 0.55576 0.0
H1227 H 0.09764 0.38128 0.58619 0.0
H1228 H 0.04228 0.505 0.53967 0.0
H1229 H 0.95939 0.47827 0.5414 0.0
H1230 H 0.02324 0.36294 0.61566 0.0
H1231 H 0.00605 0.34374 0.58203 0.0
Li1232 Li 0.47061 0.47447 0.90463 0.0
Li1233 Li 0.52162 0.47958 0.904 0.0
Li1234 Li 0.50032 0.4366 0.9075 0.0
Li1235 Li 0.49915 0.47042 0.92157 0.0
C1236 C 0.49754 0.44002 0.8863 0.0
N1237 N 0.49937 0.39876 0.87121 0.0
C1238 C 0.52135 0.43476 0.88061 0.0
C1239 C 0.4746 0.42448 0.88427 0.0
C1240 C 0.52188 0.41376 0.87302 0.0
C1241 C 0.47596 0.40365 0.87662 0.0
C1242 C 0.50342 0.5268 0.91483 0.0
C1243 C 0.53608 0.55466 0.92402 0.0
N1244 N 0.52221 0.57704 0.92089 0.0
C1245 C 0.48943 0.55002 0.91173 0.0
C1246 C 0.52689 0.52907 0.92104 0.0
C1247 C 0.49929 0.57526 0.91487 0.0
C1248 C 0.42185 0.50085 0.90705 0.0
N1249 N 0.43781 0.48861 0.89955 0.0
C1250 C 0.408 0.50123 0.88519 0.0
C1251 C 0.43131 0.48825 0.88881 0.0
C1252 C 0.39145 0.51482 0.8927 0.0
C1253 C 0.39843 0.51414 0.90379 0.0
H1254 H 0.42782 0.50099 0.91552 0.0
H1255 H 0.44458 0.47851 0.88304 0.0
C1256 C 0.57468 0.48337 0.89677 0.0
N1257 N 0.55121 0.49733 0.89755 0.0
C1258 C 0.59781 0.49589 0.89277 0.0
C1259 C 0.57194 0.53678 0.89023 0.0
C1260 C 0.54927 0.52337 0.8942 0.0
C1261 C 0.59673 0.5231 0.88956 0.0
H1262 H 0.57548 0.46254 0.8994 0.0
H1263 H 0.53026 0.53389 0.89478 0.0
C1264 C 0.45621 0.42664 0.9214 0.0
N1265 N 0.43076 0.38355 0.93125 0.0
C1266 C 0.46872 0.413 0.92997 0.0
C1267 C 0.43064 0.41862 0.91791 0.0
C1268 C 0.45555 0.39119 0.93482 0.0
C1269 C 0.41813 0.39672 0.92298 0.0
C1270 C 0.55026 0.44382 0.92208 0.0
C1271 C 0.54829 0.41797 0.92659 0.0
C1272 C 0.57226 0.46016 0.92472 0.0
C1273 C 0.56824 0.40904 0.93376 0.0
C1274 C 0.59176 0.45051 0.93193 0.0
N1275 N 0.58936 0.42537 0.93627 0.0
C1276 C 0.53219 0.39324 0.90177 0.0
C1277 C 0.48721 0.37982 0.90525 0.0
C1278 C 0.53982 0.3666 0.8999 0.0
N1279 N 0.50642 0.39928 0.90461 0.0
C1280 C 0.49401 0.3528 0.90357 0.0
C1281 C 0.52076 0.34586 0.90102 0.0
H1282 H 0.54694 0.40921 0.90109 0.0
H1283 H 0.46668 0.38509 0.90716 0.0
C1284 C 0.48334 0.50154 0.93932 0.0
N1285 N 0.4989 0.47997 0.93661 0.0
C1286 C 0.48328 0.51144 0.94995 0.0
C1287 C 0.51423 0.47593 0.95498 0.0
C1288 C 0.51382 0.46683 0.94423 0.0
C1289 C 0.49911 0.49875 0.95791 0.0
H1290 H 0.47123 0.51133 0.93316 0.0
H1291 H 0.52561 0.44945 0.94203 0.0
O1292 O 0.49684 0.45997 0.89397 0.0
O1293 O 0.49418 0.50198 0.91174 0.0
O1294 O 0.46872 0.44795 0.91649 0.0
O1295 O 0.5311 0.45288 0.91495 0.0
H1296 H 0.53929 0.4466 0.88213 0.0
H1297 H 0.45608 0.42821 0.88868 0.0
H1298 H 0.5402 0.40934 0.8686 0.0
H1299 H 0.45843 0.3913 0.87503 0.0
H1300 H 0.55422 0.55673 0.92883 0.0
H1301 H 0.47122 0.54854 0.90692 0.0
H1302 H 0.53782 0.51126 0.92354 0.0
H1303 H 0.48872 0.59344 0.9125 0.0
H1304 H 0.40325 0.50104 0.87659 0.0
H1305 H 0.38659 0.52472 0.90984 0.0
H1306 H 0.6163 0.48439 0.8922 0.0
H1307 H 0.57016 0.55783 0.88798 0.0
H1308 H 0.48838 0.41916 0.93282 0.0
H1309 H 0.42069 0.42911 0.9113 0.0
H1310 H 0.46504 0.38033 0.94143 0.0
H1311 H 0.3984 0.39018 0.92033 0.0
H1312 H 0.53144 0.405 0.92468 0.0
H1313 H 0.57433 0.48008 0.92121 0.0
H1314 H 0.56689 0.38915 0.93734 0.0
H1315 H 0.60885 0.46298 0.93406 0.0
H1316 H 0.5605 0.36232 0.89769 0.0
H1317 H 0.47863 0.33753 0.90458 0.0
H1318 H 0.47094 0.5288 0.95192 0.0
H1319 H 0.52677 0.46558 0.96087 0.0
Li1320 Li 0.01735 0.55999 0.40603 0.0
Li1321 Li 0.01492 0.53357 0.42284 0.0
Li1322 Li 0.04167 0.51921 0.4073 0.0
Li1323 Li 0.9921 0.51869 0.40628 0.0
C1324 C 0.07315 0.55204 0.41949 0.0
N1325 N 0.12681 0.55139 0.42555 0.0
C1326 C 0.08043 0.54554 0.43017 0.0
C1327 C 0.09321 0.55869 0.41195 0.0
C1328 C 0.10764 0.54522 0.43306 0.0
C1329 C 0.1202 0.55809 0.41516 0.0
C1330 C 0.96142 0.54851 0.42055 0.0
C1331 C 0.93149 0.52146 0.43151 0.0
N1332 N 0.91414 0.54265 0.43218 0.0
C1333 C 0.94329 0.56999 0.42133 0.0
C1334 C 0.95548 0.524 0.42566 0.0
C1335 C 0.9195 0.56664 0.42725 0.0
C1336 C 0.99218 0.60536 0.39715 0.0
N1337 N 0.01639 0.59555 0.40046 0.0
C1338 C 0.03773 0.63764 0.39664 0.0
C1339 C 0.03904 0.61091 0.40017 0.0
C1340 C 0.01283 0.64866 0.39348 0.0
C1341 C 0.98992 0.632 0.3936 0.0
H1342 H 0.97453 0.59259 0.39751 0.0
H1343 H 0.058 0.60254 0.40284 0.0
C1344 C 0.01988 0.51189 0.44377 0.0
N1345 N 0.01173 0.53409 0.43819 0.0
C1346 C 0.01637 0.51046 0.45501 0.0
C1347 C 0.99656 0.55505 0.45459 0.0
C1348 C 0.00053 0.55563 0.44333 0.0
C1349 C 0.00434 0.53214 0.46056 0.0
H1350 H 0.02896 0.49523 0.43945 0.0
H1351 H 0.99432 0.57306 0.43866 0.0
C1352 C 0.02303 0.54555 0.38589 0.0
N1353 N 0.03218 0.57747 0.36779 0.0
C1354 C 0.00176 0.55241 0.37896 0.0
C1355 C 0.04902 0.55459 0.38349 0.0
C1356 C 0.00676 0.56865 0.36989 0.0
C1357 C 0.05323 0.57079 0.37434 0.0
C1358 C 0.01775 0.47064 0.41332 0.0
C1359 C 0.0189 0.46333 0.40233 0.0
C1360 C 0.01868 0.45058 0.42131 0.0
C1361 C 0.02112 0.4361 0.39953 0.0
C1362 C 0.02085 0.42356 0.41818 0.0
N1363 N 0.02204 0.41694 0.40744 0.0
C1364 C 0.08983 0.49001 0.41125 0.0
C1365 C 0.07584 0.49105 0.39283 0.0
C1366 C 0.11108 0.47273 0.40866 0.0
N1367 N 0.07286 0.49893 0.40336 0.0
C1368 C 0.09634 0.47318 0.38992 0.0
C1369 C 0.11426 0.46352 0.3979 0.0
H1370 H 0.08644 0.49567 0.41963 0.0
H1371 H 0.06149 0.49758 0.38677 0.0
C1372 C 0.94412 0.51832 0.39464 0.0
N1373 N 0.96004 0.50216 0.40085 0.0
C1374 C 0.92157 0.50777 0.38938 0.0
C1375 C 0.93077 0.46464 0.39778 0.0
C1376 C 0.95316 0.47607 0.40287 0.0
C1377 C 0.91511 0.48037 0.39067 0.0
H1378 H 0.94921 0.53938 0.39367 0.0
H1379 H 0.96519 0.46386 0.40827 0.0
O1380 O 0.04655 0.55251 0.41651 0.0
O1381 O 0.9848 0.55162 0.41477 0.0
O1382 O 0.01846 0.53029 0.39501 0.0
O1383 O 0.01617 0.49724 0.41629 0.0
H1384 H 0.0653 0.54077 0.43617 0.0
H1385 H 0.08808 0.56417 0.40371 0.0
H1386 H 0.11353 0.54007 0.44128 0.0
H1387 H 0.13591 0.56298 0.40938 0.0
H1388 H 0.92665 0.50264 0.43552 0.0
H1389 H 0.9476 0.58908 0.41741 0.0
H1390 H 0.96921 0.50712 0.42514 0.0
H1391 H 0.90529 0.58311 0.42794 0.0
H1392 H 0.05594 0.64967 0.39655 0.0
H1393 H 0.97026 0.63973 0.39138 0.0
H1394 H 0.02242 0.4923 0.45926 0.0
H1395 H 0.98752 0.57233 0.45857 0.0
H1396 H 0.98159 0.54534 0.38055 0.0
H1397 H 0.06577 0.5492 0.38865 0.0
H1398 H 0.99043 0.57423 0.36451 0.0
H1399 H 0.07324 0.57805 0.37245 0.0
H1400 H 0.01791 0.47844 0.396 0.0
H1401 H 0.01767 0.45574 0.42985 0.0
H1402 H 0.02206 0.43021 0.39106 0.0
H1403 H 0.02158 0.40785 0.42428 0.0
H1404 H 0.12447 0.46627 0.41511 0.0
H1405 H 0.09727 0.46621 0.38159 0.0
H1406 H 0.90956 0.5208 0.38423 0.0
H1407 H 0.92643 0.44346 0.39906 0.0
H1408 H 0.03269 0.19226 0.58877 0.0
H1409 H 0.97934 0.17821 0.61615 0.0
H1410 H 0.97819 0.22731 0.61987 0.0
H1411 H 0.07074 0.24825 0.60074 0.0
H1412 H 0.07297 0.26606 0.58798 0.0
H1413 H 0.0713 0.22974 0.58811 0.0
H1414 H 0.02971 0.23136 0.57535 0.0
H1415 H 0.0312 0.26764 0.57521 0.0
H1416 H 0.00064 0.25085 0.57932 0.0
H1417 H 0.98151 0.27804 0.62005 0.0
H1418 H 0.98715 0.3267 0.61614 0.0
H1419 H 0.03772 0.3071 0.58844 0.0
C1420 C 0.02118 0.1995 0.59567 0.0
C1421 C 0.00624 0.18158 0.60223 0.0
C1422 C 0.99085 0.19175 0.61102 0.0
C1423 C 0.99023 0.21952 0.61323 0.0
C1424 C 0.00504 0.23671 0.60653 0.0
C1425 C 0.02017 0.22709 0.59791 0.0
C1426 C 0.0329 0.24983 0.59153 0.0
C1427 C 0.06381 0.24838 0.59213 0.0
C1428 C 0.02301 0.24992 0.57965 0.0
C1429 C 0.02218 0.27381 0.59777 0.0
C1430 C 0.00646 0.26585 0.60649 0.0
C1431 C 0.99392 0.28452 0.61329 0.0
C1432 C 0.9973 0.31205 0.61104 0.0
C1433 C 0.01284 0.32054 0.602 0.0
C1434 C 0.02561 0.30112 0.59537 0.0
H1435 H 0.95034 0.74997 0.8503 0.0
H1436 H 0.93731 0.71511 0.81831 0.0
H1437 H 0.98638 0.7148 0.8151 0.0
H1438 H 0.0037 0.79396 0.84267 0.0
H1439 H 0.02244 0.78955 0.85511 0.0
H1440 H 0.98636 0.78583 0.85514 0.0
H1441 H 0.99115 0.73785 0.86332 0.0
H1442 H 0.02726 0.74146 0.86335 0.0
H1443 H 0.01189 0.71325 0.85649 0.0
H1444 H 0.03636 0.72021 0.81499 0.0
H1445 H 0.08454 0.72933 0.81829 0.0
H1446 H 0.06517 0.76103 0.85029 0.0
C1447 C 0.95784 0.74223 0.84263 0.0
C1448 C 0.94005 0.73248 0.83456 0.0
C1449 C 0.95061 0.72231 0.82466 0.0
C1450 C 0.97842 0.72219 0.82274 0.0
C1451 C 0.99536 0.7322 0.83082 0.0
C1452 C 0.98554 0.74187 0.84059 0.0
C1453 C 0.0081 0.75182 0.84785 0.0
C1454 C 0.00495 0.78209 0.85033 0.0
C1455 C 0.00969 0.73509 0.85837 0.0
C1456 C 0.03211 0.74655 0.84056 0.0
C1457 C 0.02429 0.73522 0.83077 0.0
C1458 C 0.04277 0.72901 0.82263 0.0
C1459 C 0.07003 0.73445 0.82454 0.0
C1460 C 0.07853 0.74598 0.83452 0.0
C1461 C 0.05926 0.752 0.84263 0.0
H1462 H 0.50804 0.69056 0.08747 0.0
H1463 H 0.48287 0.67425 0.12062 0.0
H1464 H 0.48219 0.72341 0.12444 0.0
H1465 H 0.55215 0.74608 0.09396 0.0
H1466 H 0.54383 0.7646 0.08178 0.0
H1467 H 0.54225 0.72829 0.0818 0.0
H1468 H 0.4925 0.73036 0.0754 0.0
H1469 H 0.49392 0.76666 0.07537 0.0
H1470 H 0.46841 0.74954 0.0832 0.0
H1471 H 0.48234 0.77464 0.1242 0.0
H1472 H 0.48619 0.82358 0.12029 0.0
H1473 H 0.5129 0.80531 0.0875 0.0
C1474 C 0.50229 0.69739 0.09552 0.0
C1475 C 0.49527 0.67884 0.10374 0.0
C1476 C 0.48832 0.68832 0.11424 0.0
C1477 C 0.48782 0.71611 0.11646 0.0
C1478 C 0.49466 0.73393 0.10812 0.0
C1479 C 0.50203 0.72489 0.09789 0.0
C1480 C 0.50888 0.748 0.09037 0.0
C1481 C 0.53854 0.74666 0.08677 0.0
C1482 C 0.48978 0.74867 0.08051 0.0
C1483 C 0.50394 0.77157 0.0979 0.0
C1484 C 0.49561 0.76313 0.10809 0.0
C1485 C 0.48905 0.78146 0.11628 0.0
C1486 C 0.49117 0.80913 0.11399 0.0
C1487 C 0.50003 0.81803 0.10364 0.0
C1488 C 0.50649 0.79897 0.09553 0.0
H1489 H 0.56454 0.25552 0.33443 0.0
H1490 H 0.58286 0.23703 0.36821 0.0
H1491 H 0.53432 0.23188 0.37199 0.0
H1492 H 0.50541 0.29581 0.34019 0.0
H1493 H 0.48775 0.2843 0.32824 0.0
H1494 H 0.52399 0.28595 0.32822 0.0
H1495 H 0.52624 0.2354 0.32285 0.0
H1496 H 0.49002 0.23353 0.32294 0.0
H1497 H 0.50948 0.21069 0.33122 0.0
H1498 H 0.48366 0.22733 0.37189 0.0
H1499 H 0.43488 0.226 0.36815 0.0
H1500 H 0.45012 0.25174 0.33489 0.0
C1501 C 0.55847 0.25079 0.34268 0.0
C1502 C 0.57768 0.24655 0.351 0.0
C1503 C 0.56865 0.23988 0.36162 0.0
C1504 C 0.54109 0.23709 0.36388 0.0
C1505 C 0.52279 0.24131 0.35546 0.0
C1506 C 0.5311 0.24828 0.3451 0.0
C1507 C 0.5074 0.25208 0.33752 0.0
C1508 C 0.50606 0.28127 0.3333 0.0
C1509 C 0.50835 0.23171 0.32808 0.0
C1510 C 0.48442 0.24601 0.34522 0.0
C1511 C 0.49367 0.23967 0.35551 0.0
C1512 C 0.47616 0.23259 0.36389 0.0
C1513 C 0.44842 0.23208 0.3617 0.0
C1514 C 0.43843 0.23889 0.35123 0.0
C1515 C 0.45688 0.24602 0.34294 0.0
H1516 H 0.0304 0.80503 0.40542 0.0
H1517 H 0.97169 0.82075 0.38001 0.0
H1518 H 0.97138 0.77221 0.37533 0.0
H1519 H 0.06726 0.75151 0.39149 0.0
H1520 H 0.07208 0.73238 0.40382 0.0
H1521 H 0.06958 0.76863 0.4044 0.0
H1522 H 0.03025 0.76472 0.41822 0.0
H1523 H 0.03271 0.72853 0.41771 0.0
H1524 H 0.00109 0.74483 0.41474 0.0
H1525 H 0.97508 0.72129 0.37441 0.0
H1526 H 0.98221 0.67245 0.37744 0.0
H1527 H 0.03718 0.69082 0.40389 0.0
C1528 C 0.01749 0.79834 0.39885 0.0
C1529 C 0.00105 0.8167 0.39309 0.0
C1530 C 0.98472 0.80711 0.38445 0.0
C1531 C 0.98435 0.77957 0.38175 0.0
C1532 C 0.00052 0.76198 0.38774 0.0
C1533 C 0.01682 0.77104 0.39609 0.0
C1534 C 0.03114 0.74798 0.40169 0.0
C1535 C 0.06183 0.75027 0.40026 0.0
C1536 C 0.02332 0.74643 0.4138 0.0
C1537 C 0.01993 0.72441 0.39535 0.0
C1538 C 0.00251 0.73283 0.38726 0.0
C1539 C 0.98885 0.71448 0.38067 0.0
C1540 C 0.9929 0.68681 0.38249 0.0
C1541 C 0.01035 0.6778 0.39087 0.0
C1542 C 0.0242 0.69698 0.39726 0.0
H1543 H 0.45042 0.72893 0.64694 0.0
H1544 H 0.43719 0.81544 0.64567 0.0
H1545 H 0.48606 0.82268 0.64334 0.0
H1546 H 0.50823 0.73071 0.66251 0.0
H1547 H 0.52519 0.70333 0.6557 0.0
H1548 H 0.48899 0.70467 0.65583 0.0
H1549 H 0.4882 0.70267 0.63475 0.0
H1550 H 0.52449 0.70121 0.63454 0.0
H1551 H 0.50709 0.72711 0.62701 0.0
H1552 H 0.53618 0.82083 0.6432 0.0
H1553 H 0.58451 0.80995 0.64518 0.0
H1554 H 0.56521 0.72464 0.64626 0.0
C1555 C 0.45773 0.74935 0.64585 0.0
C1556 C 0.44006 0.77164 0.64646 0.0
C1557 C 0.45045 0.7981 0.64531 0.0
C1558 C 0.47811 0.8024 0.64389 0.0
C1559 C 0.49505 0.78001 0.64356 0.0
C1560 C 0.48528 0.75398 0.64443 0.0
C1561 C 0.50797 0.73356 0.64468 0.0
C1562 C 0.50756 0.71712 0.65531 0.0
C1563 C 0.50687 0.71505 0.63465 0.0
C1564 C 0.53204 0.75224 0.64419 0.0
C1565 C 0.52413 0.77892 0.64341 0.0
C1566 C 0.54266 0.80001 0.64363 0.0
C1567 C 0.56999 0.79366 0.64482 0.0
C1568 C 0.57846 0.76649 0.64581 0.0
C1569 C 0.55927 0.74554 0.64529 0.0
H1570 H 0.4922 0.30359 0.89212 0.0
H1571 H 0.56772 0.32291 0.9082 0.0
H1572 H 0.58031 0.2749 0.90792 0.0
H1573 H 0.47891 0.24564 0.90722 0.0
H1574 H 0.46423 0.22678 0.89616 0.0
H1575 H 0.46275 0.26304 0.8961 0.0
H1576 H 0.48591 0.26398 0.87719 0.0
H1577 H 0.48741 0.22764 0.87718 0.0
H1578 H 0.51775 0.24709 0.87535 0.0
H1579 H 0.58279 0.2248 0.9077 0.0
H1580 H 0.57456 0.17578 0.90787 0.0
H1581 H 0.49711 0.18853 0.89227 0.0
C1582 C 0.51149 0.29779 0.8955 0.0
C1583 C 0.52904 0.31715 0.9001 0.0
C1584 C 0.55416 0.30864 0.9044 0.0
C1585 C 0.56147 0.28135 0.90433 0.0
C1586 C 0.5435 0.2628 0.89991 0.0
C1587 C 0.51905 0.27062 0.89555 0.0
C1588 C 0.50251 0.24641 0.89211 0.0
C1589 C 0.47551 0.24542 0.89827 0.0
C1590 C 0.49815 0.24628 0.87972 0.0
C1591 C 0.52107 0.22377 0.89559 0.0
C1592 C 0.5448 0.23368 0.8999 0.0
C1593 C 0.5645 0.21675 0.90418 0.0
C1594 C 0.55968 0.18891 0.9042 0.0
C1595 C 0.53527 0.17831 0.90002 0.0
C1596 C 0.51594 0.19604 0.89553 0.0
H1597 H 0.0643 0.22409 0.1485 0.0
H1598 H 0.08027 0.31024 0.14968 0.0
H1599 H 0.03183 0.31938 0.14734 0.0
H1600 H 0.00926 0.22632 0.1289 0.0
H1601 H 0.99033 0.20031 0.13574 0.0
H1602 H 0.02659 0.20046 0.13649 0.0
H1603 H 0.02405 0.20053 0.15757 0.0
H1604 H 0.98784 0.20033 0.15689 0.0
H1605 H 0.00495 0.22646 0.16439 0.0
H1606 H 0.98155 0.31927 0.146 0.0
H1607 H 0.93275 0.30983 0.14641 0.0
H1608 H 0.9494 0.22383 0.14654 0.0
C1609 C 0.05768 0.2449 0.14827 0.0
C1610 C 0.07622 0.26643 0.1492 0.0
C1611 C 0.06661 0.29337 0.14876 0.0
C1612 C 0.03909 0.29879 0.14748 0.0
C1613 C 0.02141 0.27709 0.14667 0.0
C1614 C 0.03029 0.25069 0.14707 0.0
C1615 C 0.00696 0.23104 0.14664 0.0
C1616 C 0.00838 0.2135 0.13633 0.0
C1617 C 0.0059 0.21357 0.15699 0.0
C1618 C 0.98355 0.25056 0.14615 0.0
C1619 C 0.99233 0.27702 0.14604 0.0
C1620 C 0.97441 0.29864 0.14596 0.0
C1621 C 0.94675 0.29307 0.14613 0.0
C1622 C 0.9373 0.2661 0.14643 0.0
C1623 C 0.95604 0.24464 0.14632 0.0
H1624 H 0.00287 0.00794 0.47546 0.0
H1625 H 0.99696 0.92051 0.47516 0.0
H1626 H 0.99525 0.92026 0.49523 0.0
H1627 H 0.04451 0.01357 0.49895 0.0
H1628 H 0.02804 0.04341 0.50405 0.0
H1629 H 0.0286 0.03676 0.48965 0.0
H1630 H 0.97648 0.03964 0.48902 0.0
H1631 H 0.97576 0.0464 0.50343 0.0
H1632 H 0.95677 0.01854 0.49794 0.0
H1633 H 0.99513 0.92947 0.51534 0.0
H1634 H 0.99634 0.94748 0.53404 0.0
H1635 H 2e-05 0.02904 0.52116 0.0
C1636 C 0.0009 0.98874 0.4796 0.0
C1637 C 0.00016 0.96423 0.47371 0.0
C1638 C 0.99801 0.93953 0.47948 0.0
C1639 C 0.99683 0.93918 0.49088 0.0
C1640 C 0.9977 0.9637 0.49641 0.0
C1641 C -0.00041 0.98802 0.49096 0.0
C1642 C 0.00036 0.01151 0.49884 0.0
C1643 C 0.02696 0.02723 0.49781 0.0
C1644 C 0.97588 0.03012 0.49721 0.0
C1645 C -0.00126 0.99658 0.50956 0.0
C1646 C 0.99721 0.96902 0.50798 0.0
C1647 C 0.99608 0.95104 0.51668 0.0
C1648 C 0.99659 0.96149 0.52728 0.0
C1649 C 0.99812 0.98971 0.52911 0.0
C1650 C -0.00091 0.00737 0.52008 0.0
H1651 H 0.26248 0.7755 0.77341 0.0
H1652 H 0.27413 0.69066 0.78081 0.0
H1653 H 0.28099 0.68112 0.76128 0.0
H1654 H 0.22557 0.76586 0.74899 0.0
H1655 H 0.24047 0.79402 0.74191 0.0
H1656 H 0.23781 0.79456 0.75653 0.0
H1657 H 0.28926 0.8025 0.75813 0.0
H1658 H 0.29206 0.80222 0.74351 0.0
H1659 H 0.31219 0.77945 0.75156 0.0
H1660 H 0.28528 0.68054 0.741 0.0
H1661 H 0.28706 0.689 0.72121 0.0
H1662 H 0.27271 0.77424 0.72695 0.0
C1663 C 0.26691 0.755 0.77093 0.0
C1664 C 0.2678 0.7338 0.77861 0.0
C1665 C 0.27315 0.70715 0.77504 0.0
C1666 C 0.27717 0.70156 0.76398 0.0
C1667 C 0.27576 0.72284 0.7566 0.0
C1668 C 0.27084 0.74904 0.75991 0.0
C1669 C 0.2696 0.76806 0.75027 0.0
C1670 C 0.2417 0.7814 0.74938 0.0
C1671 C 0.29212 0.78931 0.75091 0.0
C1672 C 0.27441 0.74842 0.74103 0.0
C1673 C 0.27804 0.72246 0.74487 0.0
C1674 C 0.28264 0.7008 0.73789 0.0
C1675 C 0.28371 0.70582 0.72668 0.0
C1676 C 0.2801 0.73227 0.72255 0.0
C1677 C 0.27531 0.75378 0.72985 0.0
H1678 H 0.50259 0.01153 0.02552 0.0
H1679 H 0.55803 0.94384 0.02758 0.0
H1680 H 0.56338 0.94464 0.00764 0.0
H1681 H 0.47014 0.99264 0.00099 0.0
H1682 H 0.46768 0.02653 0.99575 0.0
H1683 H 0.46824 0.02086 0.01022 0.0
H1684 H 0.50921 0.05294 0.01211 0.0
H1685 H 0.50868 0.05884 0.99764 0.0
H1686 H 0.53901 0.04681 0.00409 0.0
H1687 H 0.56165 0.95178 0.98747 0.0
H1688 H 0.55405 0.96569 0.96847 0.0
H1689 H 0.50203 0.03057 0.97963 0.0
C1690 C 0.51616 0.99708 0.02183 0.0
C1691 C 0.52971 0.97748 0.02817 0.0
C1692 C 0.54697 0.95872 0.02292 0.0
C1693 C 0.55032 0.95912 0.0116 0.0
C1694 C 0.53651 0.97857 0.00562 0.0
C1695 C 0.51995 0.99735 0.01055 0.0
C1696 C 0.50746 0.01615 0.00224 0.0
C1697 C 0.47655 0.01389 0.00231 0.0
C1698 C 0.51665 0.04542 0.00413 0.0
C1699 C 0.51931 0.00476 0.99185 0.0
C1700 C 0.53603 0.98311 0.99399 0.0
C1701 C 0.54885 0.96891 0.9857 0.0
C1702 C 0.54452 0.9771 0.97492 0.0
C1703 C 0.52761 -0.00061 0.97252 0.0
C1704 C 0.51491 0.01334 0.98115 0.0
H1705 H 0.25474 0.21921 0.22467 0.0
H1706 H 0.26377 0.30438 0.21741 0.0
H1707 H 0.27346 0.31353 0.23681 0.0
H1708 H 0.22093 0.22825 0.25008 0.0
H1709 H 0.23692 0.19989 0.25661 0.0
H1710 H 0.23203 0.19983 0.24209 0.0
H1711 H 0.28316 0.19195 0.23921 0.0
H1712 H 0.2882 0.19192 0.25373 0.0
H1713 H 0.30701 0.2149 0.24527 0.0
H1714 H 0.28191 0.31342 0.25692 0.0
H1715 H 0.28659 0.30439 0.27661 0.0
H1716 H 0.27085 0.21945 0.27089 0.0
C1717 C 0.25906 0.23971 0.22717 0.0
C1718 C 0.25864 0.26111 0.21958 0.0
C1719 C 0.2639 0.28777 0.22314 0.0
C1720 C 0.26953 0.29312 0.23411 0.0
C1721 C 0.26961 0.27161 0.24141 0.0
C1722 C 0.26439 0.24546 0.23811 0.0
C1723 C 0.26468 0.22617 0.24768 0.0
C1724 C 0.23699 0.21275 0.2492 0.0
C1725 C 0.2871 0.20499 0.24639 0.0
C1726 C 0.27083 0.24558 0.25687 0.0
C1727 C 0.27382 0.27165 0.25306 0.0
C1728 C 0.27965 0.29309 0.26 0.0
C1729 C 0.28239 0.28776 0.27116 0.0
C1730 C 0.27908 0.26125 0.27525 0.0
C1731 C 0.27325 0.23994 0.26798 0.0
H1732 H 0.76318 0.2346 0.2249 0.0
H1733 H 0.79886 0.31405 0.22108 0.0
H1734 H 0.79289 0.32247 0.24072 0.0
H1735 H 0.7138 0.25293 0.24494 0.0
H1736 H 0.71711 0.222 0.25256 0.0
H1737 H 0.72373 0.22227 0.23814 0.0
H1738 H 0.77137 0.20258 0.24154 0.0
H1739 H 0.76484 0.20209 0.25596 0.0
H1740 H 0.79391 0.21965 0.25075 0.0
H1741 H 0.78331 0.32226 0.26069 0.0
H1742 H 0.77182 0.31304 0.27986 0.0
H1743 H 0.74373 0.23312 0.27085 0.0
C1744 C 0.76997 0.25368 0.2282 0.0
C1745 C 0.7814 0.27372 0.22143 0.0
C1746 C 0.78968 0.29856 0.22607 0.0
C1747 C 0.78649 0.30348 0.23722 0.0
C1748 C 0.77504 0.28336 0.24364 0.0
C1749 C 0.76699 0.25892 0.23932 0.0
C1750 C 0.75555 0.24059 0.24805 0.0
C1751 C 0.72578 0.23408 0.24578 0.0
C1752 C 0.77243 0.2147 0.24914 0.0
C1753 C 0.75856 0.25853 0.25795 0.0
C1754 C 0.76975 0.28313 0.25521 0.0
C1755 C 0.77465 0.30302 0.26295 0.0
C1756 C 0.76819 0.29752 0.27383 0.0
C1757 C 0.75706 0.27228 0.27688 0.0
C1758 C 0.75199 0.25267 0.26878 0.0
H1759 H 0.76117 0.76022 0.72483 0.0
H1760 H 0.68558 0.71684 0.72193 0.0
H1761 H 0.68327 0.7127 0.74197 0.0
H1762 H 0.78802 0.7217 0.74701 0.0
H1763 H 0.80347 0.75034 0.75354 0.0
H1764 H 0.79899 0.75013 0.739 0.0
H1765 H 0.77261 0.79521 0.74015 0.0
H1766 H 0.77707 0.79559 0.7547 0.0
H1767 H 0.74369 0.7976 0.74898 0.0
H1768 H 0.69009 0.71194 0.76222 0.0
H1769 H 0.7046 0.71598 0.78134 0.0
H1770 H 0.77482 0.7616 0.77097 0.0
C1771 C 0.74419 0.74977 0.72842 0.0
C1772 C 0.72355 0.73883 0.72186 0.0
C1773 C 0.70146 0.72559 0.72684 0.0
C1774 C 0.70005 0.72303 0.73819 0.0
C1775 C 0.7208 0.73396 0.74442 0.0
C1776 C 0.74236 0.7472 0.73972 0.0
C1777 C 0.7619 0.7573 0.74825 0.0
C1778 C 0.78974 0.74407 0.74686 0.0
C1779 C 0.76392 0.78826 0.74801 0.0
C1780 C 0.74802 0.74753 0.75848 0.0
C1781 C 0.72441 0.73404 0.7561 0.0
C1782 C 0.7084 0.72271 0.7642 0.0
C1783 C 0.71674 0.7253 0.77505 0.0
C1784 C 0.74078 0.7393 0.77772 0.0
C1785 C 0.7565 0.75055 0.76926 0.0
H1786 H 0.49767 0.47012 0.977 0.0
H1787 H 0.50317 0.55159 0.96422 0.0
H1788 H 0.50584 0.56943 0.98298 0.0
H1789 H 0.45682 0.48621 0.0003 0.0
H1790 H 0.47351 0.46236 0.00909 0.0
H1791 H 0.47175 0.45612 0.99466 0.0
H1792 H 0.52377 0.45182 0.99387 0.0
H1793 H 0.52569 0.45804 0.00829 0.0
H1794 H 0.54439 0.47897 0.99897 0.0
H1795 H 0.50867 0.57823 0.00314 0.0
H1796 H 0.51017 0.57741 0.02324 0.0
H1797 H 0.50361 0.49006 0.02269 0.0
C1798 C 0.49957 0.4917 0.97814 0.0
C1799 C 0.50019 0.50948 0.96916 0.0
C1800 C 0.50233 0.53764 0.971 0.0
C1801 C 0.50402 0.54794 0.98161 0.0
C1802 C 0.50346 0.52982 0.99028 0.0
C1803 C 0.5012 0.50232 0.98866 0.0
C1804 C 0.50096 0.48717 0.99935 0.0
C1805 C 0.47416 0.47208 0.00094 0.0
C1806 C 0.52515 0.46787 0.00017 0.0
C1807 C 0.50358 0.51045 0.00724 0.0
C1808 C 0.50502 0.53488 0.00186 0.0
C1809 C 0.50759 0.55921 0.00745 0.0
C1810 C 0.5086 0.55853 0.01885 0.0
C1811 C 0.50702 0.53368 0.02453 0.0
C1812 C 0.50454 0.5094 0.01859 0.0
H1813 H 0.03475 0.48701 0.52164 0.0
H1814 H 0.95609 0.51862 0.53042 0.0
H1815 H 0.94894 0.53304 0.5114 0.0
H1816 H 0.05204 0.54045 0.50277 0.0
H1817 H 0.06918 0.51806 0.4935 0.0
H1818 H 0.06811 0.51032 0.50782 0.0
H1819 H 0.04718 0.4636 0.5035 0.0
H1820 H 0.04818 0.4712 0.48918 0.0
H1821 H 0.01678 0.46182 0.4955 0.0
H1822 H 0.95017 0.54356 0.49138 0.0
H1823 H 0.95936 0.54847 0.47172 0.0
H1824 H 0.03785 0.51147 0.47626 0.0
C1825 C 0.01612 0.4972 0.5196 0.0
C1826 C 0.99594 0.50159 0.52752 0.0
C1827 C 0.97168 0.51465 0.52446 0.0
C1828 C 0.96751 0.52312 0.5137 0.0
C1829 C 0.98783 0.51848 0.50611 0.0
C1830 C 0.01166 0.50585 0.50892 0.0
C1831 C 0.03016 0.50301 0.4992 0.0
C1832 C 0.05642 0.51891 0.50093 0.0
C1833 C 0.0359 0.47313 0.4967 0.0
C1834 C 0.0129 0.51578 0.49045 0.0
C1835 C 0.98862 0.5247 0.49461 0.0
C1836 C 0.96919 0.53681 0.48804 0.0
C1837 C 0.97466 0.53967 0.4769 0.0
C1838 C -0.00066 0.53041 0.47245 0.0
C1839 C 0.01871 0.51853 0.47938 0.0
H1840 H 0.18723 0.87661 0.64656 0.0
H1841 H 0.25334 0.87989 0.62349 0.0
H1842 H 0.23006 0.91623 0.61344 0.0
H1843 H 0.13585 0.88412 0.62771 0.0
H1844 H 0.1145 0.9048 0.63615 0.0
H1845 H 0.13774 0.88155 0.64233 0.0
H1846 H 0.15917 0.9206 0.65338 0.0
H1847 H 0.13581 0.94401 0.64728 0.0
H1848 H 0.17155 0.95001 0.64634 0.0
H1849 H 0.19783 0.94885 0.60495 0.0
H1850 H 0.15873 0.9752 0.59854 0.0
H1851 H 0.11398 0.95135 0.62735 0.0
C1852 C 0.19711 0.8855 0.63956 0.0
C1853 C 0.22208 0.87554 0.6358 0.0
C1854 C 0.23411 0.88716 0.62645 0.0
C1855 C 0.22115 0.90791 0.62074 0.0
C1856 C 0.19625 0.91687 0.62452 0.0
C1857 C 0.1844 0.90615 0.63375 0.0
C1858 C 0.15665 0.91794 0.63561 0.0
C1859 C 0.13491 0.89578 0.63544 0.0
C1860 C 0.15575 0.9341 0.64629 0.0
C1861 C 0.15441 0.9363 0.62581 0.0
C1862 C 0.17759 0.93568 0.6196 0.0
C1863 C 0.17972 0.94987 0.60984 0.0
C1864 C 0.15744 0.96486 0.60629 0.0
C1865 C 0.1333 0.96542 0.61245 0.0
C1866 C 0.13207 0.95123 0.62242 0.0
H1867 H 0.3287 0.8801 0.85361 0.0
H1868 H 0.25951 0.89397 0.87442 0.0
H1869 H 0.28463 0.92972 0.88417 0.0
H1870 H 0.37689 0.88547 0.87393 0.0
H1871 H 0.40195 0.902 0.86567 0.0
H1872 H 0.37744 0.88027 0.85941 0.0
H1873 H 0.36269 0.91912 0.8466 0.0
H1874 H 0.38733 0.94099 0.85278 0.0
H1875 H 0.35243 0.95099 0.85234 0.0
H1876 H 0.31852 0.96133 0.8925 0.0
H1877 H 0.35903 0.9851 0.89923 0.0
H1878 H 0.40616 0.94978 0.87312 0.0
C1879 C 0.3186 0.89121 0.86002 0.0
C1880 C 0.29211 0.88456 0.86321 0.0
C1881 C 0.27981 0.89888 0.87186 0.0
C1882 C 0.29385 0.91926 0.87739 0.0
C1883 C 0.32017 0.92499 0.87417 0.0
C1884 C 0.33241 0.91138 0.86568 0.0
C1885 C 0.36158 0.91968 0.86442 0.0
C1886 C 0.38057 0.89541 0.86595 0.0
C1887 C 0.36627 0.93353 0.85338 0.0
C1888 C 0.36406 0.93955 0.87371 0.0
C1889 C 0.33986 0.94269 0.87913 0.0
C1890 C 0.3375 0.95927 0.88825 0.0
C1891 C 0.36057 0.97274 0.89199 0.0
C1892 C 0.38568 0.96927 0.88669 0.0
C1893 C 0.38725 0.95271 0.87736 0.0
H1894 H 0.39497 0.04521 0.12534 0.0
H1895 H 0.35779 0.0286 0.09401 0.0
H1896 H 0.31624 0.05093 0.10021 0.0
H1897 H 0.33472 0.03956 0.14225 0.0
H1898 H 0.3442 0.06761 0.15077 0.0
H1899 H 0.36982 0.04709 0.14447 0.0
H1900 H 0.39078 0.08966 0.13558 0.0
H1901 H 0.36541 0.11027 0.14192 0.0
H1902 H 0.36987 0.11135 0.12737 0.0
H1903 H 0.27978 0.07779 0.1093 0.0
H1904 H 0.25261 0.10995 0.12001 0.0
H1905 H 0.31511 0.11204 0.14473 0.0
C1906 C 0.37818 0.04618 0.11974 0.0
C1907 C 0.37979 0.03483 0.10919 0.0
C1908 C 0.35703 0.03647 0.10223 0.0
C1909 C 0.33329 0.04924 0.10566 0.0
C1910 C 0.33259 0.06044 0.11605 0.0
C1911 C 0.35451 0.0592 0.12296 0.0
C1912 C 0.34948 0.07493 0.13333 0.0
C1913 C 0.34956 0.05617 0.14329 0.0
C1914 C 0.3701 0.09791 0.13462 0.0
C1915 C 0.32151 0.08573 0.13106 0.0
C1916 C 0.31194 0.07673 0.12114 0.0
C1917 C 0.28703 0.0849 0.11709 0.0
C1918 C 0.27182 0.10329 0.12321 0.0
C1919 C 0.28173 0.11362 0.13321 0.0
C1920 C 0.30667 0.10418 0.13724 0.0
H1921 H 0.13683 0.05742 0.395 0.0
H1922 H 0.11766 0.00153 0.36894 0.0
H1923 H 0.15116 0.02387 0.35712 0.0
H1924 H 0.14272 0.11485 0.37889 0.0
H1925 H 0.17048 0.12942 0.38629 0.0
H1926 H 0.14735 0.10719 0.39311 0.0
H1927 H 0.18698 0.07638 0.39898 0.0
H1928 H 0.21032 0.09866 0.39223 0.0
H1929 H 0.20966 0.0633 0.38881 0.0
H1930 H 0.1826 0.05561 0.3475 0.0
H1931 H 0.21099 0.09309 0.34103 0.0
H1932 H 0.21136 0.12701 0.37366 0.0
C1933 C 0.13996 0.04968 0.38685 0.0
C1934 C 0.12474 0.02771 0.38289 0.0
C1935 C 0.1294 0.0181 0.37219 0.0
C1936 C 0.1483 0.03072 0.3654 0.0
C1937 C 0.16258 0.05269 0.36949 0.0
C1938 C 0.15888 0.06189 0.38001 0.0
C1939 C 0.17582 0.08667 0.38224 0.0
C1940 C 0.15802 0.11096 0.38531 0.0
C1941 C 0.19695 0.0809 0.39109 0.0
C1942 C 0.18889 0.09053 0.37122 0.0
C1943 C 0.18116 0.07063 0.364 0.0
C1944 C 0.18926 0.07099 0.35314 0.0
C1945 C 0.20554 0.09235 0.34956 0.0
C1946 C 0.21364 0.11308 0.35682 0.0
C1947 C 0.20543 0.11173 0.36784 0.0
H1948 H 0.90017 0.05578 0.375 0.0
H1949 H 0.85706 0.03767 0.40488 0.0
H1950 H 0.81971 0.06711 0.39894 0.0
H1951 H 0.88362 0.12482 0.37413 0.0
H1952 H 0.88027 0.12629 0.35953 0.0
H1953 H 0.90237 0.10182 0.36565 0.0
H1954 H 0.87715 0.06335 0.35561 0.0
H1955 H 0.85494 0.08775 0.34946 0.0
H1956 H 0.84119 0.06011 0.35721 0.0
H1957 H 0.78865 0.10102 0.39039 0.0
H1958 H 0.76589 0.13662 0.37973 0.0
H1959 H 0.82997 0.13344 0.35571 0.0
C1960 C 0.88283 0.05791 0.38029 0.0
C1961 C 0.88152 0.04436 0.3904 0.0
C1962 C 0.85835 0.04751 0.39702 0.0
C1963 C 0.83709 0.06428 0.39375 0.0
C1964 C 0.83925 0.07765 0.38381 0.0
C1965 C 0.86148 0.07456 0.37715 0.0
C1966 C 0.85941 0.09213 0.3671 0.0
C1967 C 0.8828 0.11247 0.36658 0.0
C1968 C 0.85809 0.07479 0.35673 0.0
C1969 C 0.83282 0.10606 0.36927 0.0
C1970 C 0.82141 0.09727 0.3789 0.0
C1971 C 0.79731 0.10794 0.3828 0.0
C1972 C 0.78465 0.12827 0.37673 0.0
C1973 C 0.79615 0.1378 0.3669 0.0
C1974 C 0.82044 0.12628 0.3631 0.0
H1975 H 0.64816 0.05114 0.10799 0.0
H1976 H 0.60779 0.02068 0.1369 0.0
H1977 H 0.63857 0.04693 0.1484 0.0
H1978 H 0.71659 0.05616 0.11966 0.0
H1979 H 0.72357 0.08739 0.11269 0.0
H1980 H 0.70117 0.06298 0.10666 0.0
H1981 H 0.66381 0.09937 0.10526 0.0
H1982 H 0.68606 0.12384 0.11126 0.0
H1983 H 0.65363 0.11737 0.11733 0.0
H1984 H 0.67038 0.07959 0.15679 0.0
H1985 H 0.70036 0.11757 0.16144 0.0
H1986 H 0.71824 0.12908 0.12715 0.0
C1987 C 0.64587 0.04976 0.11674 0.0
C1988 C 0.62562 0.03347 0.12148 0.0
C1989 C 0.62351 0.03232 0.133 0.0
C1990 C 0.64085 0.04732 0.13964 0.0
C1991 C 0.6602 0.06348 0.13468 0.0
C1992 C 0.66283 0.06484 0.1235 0.0
C1993 C 0.68366 0.08566 0.12023 0.0
C1994 C 0.70767 0.07223 0.11447 0.0
C1995 C 0.67102 0.10787 0.1131 0.0
C1996 C 0.69165 0.09637 0.13131 0.0
C1997 C 0.6782 0.08296 0.13954 0.0
C1998 C 0.6812 0.09011 0.15043 0.0
C1999 C 0.6981 0.11183 0.15298 0.0
C2000 C 0.71156 0.12633 0.14466 0.0
C2001 C 0.70859 0.11812 0.1337 0.0
H2002 H 0.69838 0.87022 0.85638 0.0
H2003 H 0.75442 0.85875 0.88315 0.0
H2004 H 0.72829 0.89096 0.89425 0.0
H2005 H 0.68795 0.94293 0.86096 0.0
H2006 H 0.65293 0.94117 0.85714 0.0
H2007 H 0.67691 0.91823 0.85116 0.0
H2008 H 0.64792 0.87773 0.85756 0.0
H2009 H 0.62401 0.90048 0.86365 0.0
H2010 H 0.63954 0.87449 0.87178 0.0
H2011 H 0.69408 0.9215 0.90287 0.0
H2012 H 0.65551 0.94986 0.90816 0.0
H2013 H 0.6239 0.9441 0.87525 0.0
C2014 C 0.70562 0.87492 0.86447 0.0
C2015 C 0.72847 0.86185 0.86888 0.0
C2016 C 0.73677 0.86818 0.87963 0.0
C2017 C 0.72218 0.8866 0.88598 0.0
C2018 C 0.69954 0.89876 0.88142 0.0
C2019 C 0.69149 0.89344 0.87087 0.0
C2020 C 0.66603 0.90868 0.86801 0.0
C2021 C 0.67128 0.92896 0.85877 0.0
C2022 C 0.64303 0.88918 0.86508 0.0
C2023 C 0.66068 0.92293 0.87868 0.0
C2024 C 0.68025 0.91699 0.8863 0.0
C2025 C 0.67889 0.92672 0.89692 0.0
C2026 C 0.65693 0.94298 0.89982 0.0
C2027 C 0.63666 0.94954 0.89211 0.0
C2028 C 0.63883 0.93942 0.88138 0.0
H2029 H 0.81986 0.84759 0.62456 0.0
H2030 H 0.78272 0.8948 0.65028 0.0
H2031 H 0.80822 0.93491 0.64428 0.0
H2032 H 0.88488 0.87609 0.62686 0.0
H2033 H 0.89169 0.87561 0.61244 0.0
H2034 H 0.86905 0.8512 0.61828 0.0
H2035 H 0.83169 0.8661 0.60481 0.0
H2036 H 0.85422 0.89063 0.59895 0.0
H2037 H 0.82196 0.90112 0.60419 0.0
H2038 H 0.84004 0.96893 0.63632 0.0
H2039 H 0.87556 0.99463 0.62673 0.0
H2040 H 0.89184 0.92515 0.60628 0.0
C2041 C 0.81705 0.86638 0.62892 0.0
C2042 C 0.79927 0.8681 0.63787 0.0
C2043 C 0.79597 0.89312 0.6433 0.0
C2044 C 0.81042 0.91597 0.63998 0.0
C2045 C 0.82795 0.91351 0.63118 0.0
C2046 C 0.83123 0.88938 0.6257 0.0
C2047 C 0.85202 0.89186 0.61674 0.0
C2048 C 0.87581 0.87255 0.6187 0.0
C2049 C 0.8392 0.88715 0.60551 0.0
C2050 C 0.86031 0.92101 0.61819 0.0
C2051 C 0.84611 0.93318 0.62653 0.0
C2052 C 0.85113 0.9597 0.62971 0.0
C2053 C 0.87139 0.97407 0.62426 0.0
C2054 C 0.88629 0.96188 0.61575 0.0
C2055 C 0.88041 0.93511 0.61262 0.0
H2056 H 0.71309 0.36888 0.12183 0.0
H2057 H 0.71268 0.39694 0.15531 0.0
H2058 H 0.68396 0.43536 0.14999 0.0
H2059 H 0.71205 0.43604 0.1088 0.0
H2060 H 0.68993 0.42489 0.09807 0.0
H2061 H 0.71313 0.40147 0.10425 0.0
H2062 H 0.67347 0.3694 0.10883 0.0
H2063 H 0.65019 0.39269 0.1027 0.0
H2064 H 0.64532 0.38205 0.11659 0.0
H2065 H 0.65146 0.46773 0.14149 0.0
H2066 H 0.61753 0.49155 0.13044 0.0
H2067 H 0.63966 0.44294 0.10241 0.0
C2068 C 0.70717 0.38324 0.12803 0.0
C2069 C 0.71526 0.37996 0.13897 0.0
C2070 C 0.70714 0.39927 0.14683 0.0
C2071 C 0.69075 0.42113 0.1439 0.0
C2072 C 0.6828 0.42349 0.13307 0.0
C2073 C 0.69084 0.40516 0.12524 0.0
C2074 C 0.67807 0.41126 0.11433 0.0
C2075 C 0.69958 0.41888 0.10586 0.0
C2076 C 0.66073 0.38744 0.11039 0.0
C2077 C 0.66088 0.43535 0.11734 0.0
C2078 C 0.66412 0.44229 0.12815 0.0
C2079 C 0.6491 0.46282 0.13296 0.0
C2080 C 0.62995 0.47634 0.12659 0.0
C2081 C 0.62594 0.46925 0.11552 0.0
C2082 C 0.64207 0.44879 0.11084 0.0
H2083 H 0.8016 0.37183 0.37703 0.0
H2084 H 0.81091 0.39543 0.34313 0.0
H2085 H 0.84061 0.43249 0.34869 0.0
H2086 H 0.80557 0.4392 0.38913 0.0
H2087 H 0.82545 0.42781 0.40052 0.0
H2088 H 0.80186 0.40518 0.39411 0.0
H2089 H 0.84016 0.37052 0.39089 0.0
H2090 H 0.86382 0.39299 0.39729 0.0
H2091 H 0.87007 0.38088 0.38368 0.0
H2092 H 0.87183 0.46489 0.35757 0.0
H2093 H 0.90464 0.48876 0.36913 0.0
H2094 H 0.87736 0.44293 0.39717 0.0
C2095 C 0.80975 0.38476 0.37074 0.0
C2096 C 0.80337 0.38073 0.35963 0.0
C2097 C 0.8146 0.39838 0.35173 0.0
C2098 C 0.83173 0.41949 0.35479 0.0
C2099 C 0.83773 0.42265 0.36578 0.0
C2100 C 0.82726 0.4057 0.37363 0.0
C2101 C 0.83879 0.41207 0.38476 0.0
C2102 C 0.81659 0.42164 0.39259 0.0
C2103 C 0.85412 0.38767 0.38942 0.0
C2104 C 0.8578 0.43488 0.38187 0.0
C2105 C 0.85651 0.44093 0.3709 0.0
C2106 C 0.87283 0.46057 0.3662 0.0
C2107 C 0.8913 0.47412 0.37285 0.0
C2108 C 0.89347 0.46782 0.38407 0.0
C2109 C 0.8762 0.44816 0.38863 0.0
H2110 H 0.881 0.55593 0.60479 0.0
H2111 H 0.90817 0.51487 0.63403 0.0
H2112 H 0.87275 0.53789 0.64462 0.0
H2113 H 0.87009 0.61862 0.61705 0.0
H2114 H 0.8407 0.62701 0.60913 0.0
H2115 H 0.86587 0.60479 0.60358 0.0
H2116 H 0.82949 0.56817 0.6003 0.0
H2117 H 0.80414 0.59033 0.60582 0.0
H2118 H 0.80875 0.55708 0.61148 0.0
H2119 H 0.83735 0.56841 0.65232 0.0
H2120 H 0.80493 0.60458 0.65663 0.0
H2121 H 0.8011 0.6261 0.6224 0.0
C2122 C 0.87943 0.55162 0.6134 0.0
C2123 C 0.89733 0.53349 0.61856 0.0
C2124 C 0.89442 0.5283 0.62985 0.0
C2125 C 0.87442 0.54136 0.63595 0.0
C2126 C 0.85744 0.55946 0.63063 0.0
C2127 C 0.85968 0.56453 0.61961 0.0
C2128 C 0.84011 0.58619 0.616 0.0
C2129 C 0.8551 0.61059 0.61116 0.0
C2130 C 0.81939 0.57475 0.60792 0.0
C2131 C 0.82709 0.5931 0.62678 0.0
C2132 C 0.83709 0.5772 0.63509 0.0
C2133 C 0.82905 0.58071 0.64586 0.0
C2134 C 0.81052 0.60124 0.64821 0.0
C2135 C 0.80033 0.61808 0.63984 0.0
C2136 C 0.80855 0.61361 0.62898 0.0
H2137 H 0.67856 0.63392 0.85643 0.0
H2138 H 0.75022 0.60938 0.87416 0.0
H2139 H 0.72384 0.57395 0.88345 0.0
H2140 H 0.63188 0.62477 0.87748 0.0
H2141 H 0.60557 0.6117 0.86885 0.0
H2142 H 0.63029 0.63447 0.86334 0.0
H2143 H 0.64255 0.59947 0.84845 0.0
H2144 H 0.6177 0.57662 0.85387 0.0
H2145 H 0.65218 0.56578 0.8524 0.0
H2146 H 0.68887 0.54279 0.89147 0.0
H2147 H 0.64839 0.51783 0.89734 0.0
H2148 H 0.60078 0.561 0.87332 0.0
C2149 C 0.68896 0.62079 0.86208 0.0
C2150 C 0.71653 0.62451 0.86455 0.0
C2151 C 0.72905 0.60722 0.87223 0.0
C2152 C 0.71429 0.58689 0.87749 0.0
C2153 C 0.68713 0.58395 0.87489 0.0
C2154 C 0.67467 0.6003 0.8673 0.0
C2155 C 0.64516 0.59335 0.86609 0.0
C2156 C 0.62718 0.61751 0.86913 0.0
C2157 C 0.63905 0.5832 0.85452 0.0
C2158 C 0.6428 0.57087 0.87435 0.0
C2159 C 0.66722 0.56566 0.87932 0.0
C2160 C 0.66972 0.54643 0.88753 0.0
C2161 C 0.64662 0.53224 0.89075 0.0
C2162 C 0.62135 0.53732 0.88576 0.0
C2163 C 0.61966 0.55676 0.87738 0.0
H2164 H 0.3891 0.54738 0.87473 0.0
H2165 H 0.34182 0.52048 0.90241 0.0
H2166 H 0.30561 0.55225 0.89728 0.0
H2167 H 0.37363 0.61518 0.87658 0.0
H2168 H 0.37174 0.62119 0.86213 0.0
H2169 H 0.39269 0.59447 0.86729 0.0
H2170 H 0.36769 0.5598 0.85514 0.0
H2171 H 0.34684 0.5865 0.84982 0.0
H2172 H 0.33151 0.55723 0.85594 0.0
H2173 H 0.27665 0.59008 0.89009 0.0
H2174 H 0.25659 0.62986 0.8811 0.0
H2175 H 0.3221 0.63011 0.85766 0.0
C2176 C 0.37082 0.54752 0.87954 0.0
C2177 C 0.3683 0.53138 0.88897 0.0
C2178 C 0.34431 0.53283 0.89521 0.0
C2179 C 0.32357 0.55068 0.89232 0.0
C2180 C 0.32703 0.56675 0.88312 0.0
C2181 C 0.34994 0.5651 0.87676 0.0
C2182 C 0.3494 0.58554 0.86761 0.0
C2183 C 0.37328 0.60525 0.86846 0.0
C2184 C 0.34882 0.57142 0.85647 0.0
C2185 C 0.32296 0.59947 0.87 0.0
C2186 C 0.31024 0.58826 0.87892 0.0
C2187 C 0.2862 0.59873 0.88298 0.0
C2188 C 0.27491 0.62129 0.87779 0.0
C2189 C 0.28771 0.63315 0.86865 0.0
C2190 C 0.31191 0.62177 0.86469 0.0
H2191 H 0.12483 0.5501 0.62357 0.0
H2192 H 0.16694 0.53268 0.59342 0.0
H2193 H 0.20599 0.55921 0.59986 0.0
H2194 H 0.14432 0.61725 0.62557 0.0
H2195 H 0.14788 0.61735 0.64017 0.0
H2196 H 0.12485 0.59426 0.63378 0.0
H2197 H 0.14877 0.55399 0.64318 0.0
H2198 H 0.17188 0.57702 0.64964 0.0
H2199 H 0.18458 0.5496 0.64148 0.0
H2200 H 0.23829 0.59155 0.60881 0.0
H2201 H 0.26121 0.62694 0.61951 0.0
H2202 H 0.19793 0.62267 0.64384 0.0
C2203 C 0.14237 0.55166 0.61836 0.0
C2204 C 0.14288 0.53935 0.60799 0.0
C2205 C 0.16626 0.54168 0.60145 0.0
C2206 C 0.18849 0.55675 0.60503 0.0
C2207 C 0.18708 0.56909 0.61521 0.0
C2208 C 0.16467 0.56653 0.62181 0.0
C2209 C 0.16742 0.58311 0.63208 0.0
C2210 C 0.14478 0.60424 0.63294 0.0
C2211 C 0.16822 0.56483 0.64219 0.0
C2212 C 0.19446 0.5962 0.63006 0.0
C2213 C 0.20568 0.58762 0.62036 0.0
C2214 C 0.22992 0.59809 0.61651 0.0
C2215 C 0.24285 0.61811 0.62266 0.0
C2216 C 0.2314 0.62754 0.63253 0.0
C2217 C 0.20713 0.61601 0.63631 0.0
H2218 H 0.14166 0.45656 0.37848 0.0
H2219 H 0.13304 0.42223 0.41089 0.0
H2220 H 0.16477 0.38622 0.406 0.0
H2221 H 0.13933 0.39399 0.36497 0.0
H2222 H 0.16293 0.40332 0.35447 0.0
H2223 H 0.1427 0.42882 0.36094 0.0
H2224 H 0.18589 0.45515 0.36621 0.0
H2225 H 0.20629 0.42967 0.35974 0.0
H2226 H 0.21205 0.43833 0.3738 0.0
H2227 H 0.19528 0.35234 0.39738 0.0
H2228 H 0.22055 0.32171 0.38535 0.0
H2229 H 0.20519 0.3752 0.35801 0.0
C2230 C 0.14638 0.44159 0.3846 0.0
C2231 C 0.13488 0.44269 0.39515 0.0
C2232 C 0.14201 0.42258 0.40286 0.0
C2233 C 0.15994 0.40181 0.40014 0.0
C2234 C 0.17042 0.40115 0.38964 0.0
C2235 C 0.1638 0.4204 0.38197 0.0
C2236 C 0.17598 0.41373 0.37098 0.0
C2237 C 0.15392 0.40972 0.36233 0.0
C2238 C 0.19626 0.43552 0.36748 0.0
C2239 C 0.19006 0.38744 0.37365 0.0
C2240 C 0.18696 0.38081 0.38449 0.0
C2241 C 0.19778 0.35727 0.38886 0.0
C2242 C 0.21187 0.33985 0.38191 0.0
C2243 C 0.21466 0.34578 0.37067 0.0
C2244 C 0.20377 0.37013 0.36656 0.0
H2245 H 0.37115 0.45695 0.11488 0.0
H2246 H 0.39577 0.41508 0.08546 0.0
H2247 H 0.36545 0.37736 0.09008 0.0
H2248 H 0.37076 0.40024 0.13169 0.0
H2249 H 0.34184 0.41027 0.1396 0.0
H2250 H 0.36277 0.4355 0.13332 0.0
H2251 H 0.32115 0.45533 0.1234 0.0
H2252 H 0.30003 0.4302 0.12969 0.0
H2253 H 0.30054 0.4336 0.11508 0.0
H2254 H 0.33635 0.34229 0.09881 0.0
H2255 H 0.30917 0.31288 0.11078 0.0
H2256 H 0.30411 0.37725 0.13463 0.0
C2257 C 0.36992 0.43999 0.10934 0.0
C2258 C 0.3857 0.43905 0.09977 0.0
C2259 C 0.38349 0.41651 0.09273 0.0
C2260 C 0.36643 0.39491 0.09531 0.0
C2261 C 0.35163 0.39623 0.10493 0.0
C2262 C 0.35303 0.41828 0.11179 0.0
C2263 C 0.33632 0.41398 0.12196 0.0
C2264 C 0.35398 0.41505 0.13225 0.0
C2265 C 0.31313 0.4345 0.12256 0.0
C2266 C 0.3259 0.38577 0.11987 0.0
C2267 C 0.3348 0.37597 0.10997 0.0
C2268 C 0.32899 0.34983 0.10652 0.0
C2269 C 0.31374 0.33324 0.1134 0.0
C2270 C 0.30454 0.34285 0.1236 0.0
C2271 C 0.31051 0.36955 0.1268 0.0
loop_
_geom_bond_atom_site_label_1
_geom_bond_atom_site_label_2
_geom_bond_distance
_geom_bond_site_symmetry_2
_ccdc_geom_bond_type
Li0 N17 1.990 . S
Li0 O60 1.956 . S
Li0 O61 1.970 1_455 S
Li0 O62 1.961 . S
Li1 N25 1.990 . S
Li1 O60 1.970 . S
Li1 O61 1.956 1_455 S
Li1 O63 1.961 . S
Li2 N47 1.990 . S
Li2 O60 1.961 . S
Li2 O62 1.956 . S
Li2 O63 1.970 . S
Li3 N53 1.990 . S
Li3 O61 1.961 . S
Li3 O62 1.970 1_655 S
Li3 O63 1.956 1_655 S
C4 C6 1.348 . S
C4 C7 1.356 . S
C4 O60 1.325 . S
N5 C8 1.314 . S
N5 C9 1.279 . S
C6 C4 1.348 . S
C6 C8 1.353 . S
C6 H64 0.929 . S
C7 C4 1.356 . S
C7 C9 1.358 . S
C7 H65 0.930 . S
C8 N5 1.314 . S
C8 C6 1.353 . S
C8 H66 0.930 . S
C9 N5 1.279 . S
C9 C7 1.358 . S
C9 H67 0.930 . S
C10 C13 1.348 . S
C10 C14 1.356 . S
C10 O61 1.325 . S
C11 N12 1.279 . S
C11 C14 1.358 . S
C11 H68 0.930 . S
N12 C11 1.279 . S
N12 C15 1.314 . S
C13 C10 1.348 . S
C13 C15 1.353 . S
C13 H69 0.929 . S
C14 C10 1.356 . S
C14 C11 1.358 . S
C14 H70 0.930 . S
C15 N12 1.314 . S
C15 C13 1.353 . S
C15 H71 0.930 . S
C16 N17 1.314 1_655 S
C16 C21 1.353 . S
C16 H22 0.947 . S
N17 Li0 1.990 . S
N17 C16 1.314 1_455 S
N17 C19 1.279 . S
C18 C19 1.358 . S
C18 C20 1.356 . S
C18 H72 0.930 . S
C19 N17 1.279 . S
C19 C18 1.358 . S
C19 H23 0.930 . S
C20 C18 1.356 . S
C20 C21 1.348 1_455 S
C21 C16 1.353 . S
C21 C20 1.348 1_655 S
C21 H73 0.929 1_545 S
H22 C16 0.947 . S
H23 C19 0.930 . S
C24 N25 1.314 . S
C24 C26 1.353 . S
C24 H30 0.930 . S
N25 Li1 1.990 . S
N25 C24 1.314 . S
N25 C28 1.279 1_455 S
C26 C24 1.353 . S
C26 C29 1.348 . S
C26 H74 0.929 . S
C27 C28 1.358 . S
C27 C29 1.356 1_655 S
C27 H75 0.930 . S
C28 N25 1.279 1_655 S
C28 C27 1.358 . S
C28 H31 0.930 . S
C29 C26 1.348 . S
C29 C27 1.356 1_455 S
H30 C24 0.930 . S
H31 C28 0.930 . S
C32 C34 1.348 1_455 S
C32 C35 1.356 . S
C32 O62 1.325 1_565 S
N33 C36 1.314 1_455 S
N33 C37 1.279 . S
C34 C32 1.348 1_655 S
C34 C36 1.353 . S
C34 H76 0.929 . S
C35 C32 1.356 . S
C35 C37 1.358 . S
C35 H77 0.930 . S
C36 N33 1.314 1_655 S
C36 C34 1.353 . S
C36 H78 0.930 . S
C37 N33 1.279 . S
C37 C35 1.358 . S
C37 H79 0.930 . S
C38 C39 1.348 . S
C38 C40 1.356 1_455 S
C38 O63 1.325 . S
C39 C38 1.348 . S
C39 C41 1.353 . S
C39 H80 0.929 . S
C40 C38 1.356 1_655 S
C40 C42 1.358 . S
C40 H81 0.930 . S
C41 C39 1.353 . S
C41 N43 1.314 . S
C41 H82 0.930 . S
C42 C40 1.358 . S
C42 N43 1.279 1_655 S
C42 H83 0.930 . S
N43 C41 1.314 . S
N43 C42 1.279 1_455 S
C44 C46 1.353 . S
C44 N47 1.314 . S
C44 H50 0.930 . S
C45 N47 1.279 1_565 S
C45 C48 1.358 . S
C45 H51 0.930 . S
C46 C44 1.353 . S
C46 C49 1.348 1_545 S
C46 H84 0.929 . S
N47 Li2 1.990 . S
N47 C44 1.314 . S
N47 C45 1.279 1_545 S
C48 C45 1.358 . S
C48 C49 1.356 . S
C48 H85 0.930 . S
C49 C46 1.348 1_565 S
C49 C48 1.356 . S
H50 C44 0.930 . S
H51 C45 0.930 . S
C52 N53 1.314 . S
C52 C54 1.353 1_545 S
C52 H58 0.930 . S
N53 Li3 1.990 . S
N53 C52 1.314 . S
N53 C56 1.279 . S
C54 C52 1.353 1_565 S
C54 C57 1.348 . S
C54 H86 0.929 . S
C55 C56 1.358 1_565 S
C55 C57 1.356 . S
C55 H87 0.930 . S
C56 N53 1.279 . S
C56 C55 1.358 1_545 S
C56 H59 0.930 . S
C57 C54 1.348 . S
C57 C55 1.356 . S
H58 C52 0.930 . S
H59 C56 0.930 . S
O60 Li0 1.956 . S
O60 Li1 1.970 . S
O60 Li2 1.961 . S
O60 C4 1.325 . S
O61 Li0 1.970 1_655 S
O61 Li1 1.956 1_655 S
O61 Li3 1.961 . S
O61 C10 1.325 . S
O62 Li0 1.961 . S
O62 Li2 1.956 . S
O62 Li3 1.970 1_455 S
O62 C32 1.325 1_545 S
O63 Li1 1.961 . S
O63 Li2 1.970 . S
O63 Li3 1.956 1_455 S
O63 C38 1.325 . S
H64 C6 0.929 . S
H65 C7 0.930 . S
H66 C8 0.930 . S
H67 C9 0.930 . S
H68 C11 0.930 . S
H69 C13 0.929 . S
H70 C14 0.930 . S
H71 C15 0.930 . S
H72 C18 0.930 . S
H73 C21 0.929 1_565 S
H74 C26 0.929 . S
H75 C27 0.930 . S
H76 C34 0.929 . S
H77 C35 0.930 . S
H78 C36 0.930 . S
H79 C37 0.930 . S
H80 C39 0.929 . S
H81 C40 0.930 . S
H82 C41 0.930 . S
H83 C42 0.930 . S
H84 C46 0.929 . S
H85 C48 0.930 . S
H86 C54 0.929 . S
H87 C55 0.930 . S
Li88 N105 1.990 . S
Li88 O148 1.956 . S
Li88 O149 1.970 . S
Li88 O150 1.961 . S
Li89 N113 1.990 . S
Li89 O148 1.970 . S
Li89 O149 1.956 . S
Li89 O151 1.961 . S
Li90 N135 1.990 . S
Li90 O148 1.961 . S
Li90 O150 1.956 . S
Li90 O151 1.970 . S
Li91 N141 1.990 . S
Li91 O149 1.961 . S
Li91 O150 1.970 . S
Li91 O151 1.956 . S
C92 C94 1.348 . S
C92 C95 1.356 . S
C92 O148 1.325 . S
N93 C96 1.314 . S
N93 C97 1.279 . S
C94 C92 1.348 . S
C94 C96 1.353 . S
C94 H152 0.929 . S
C95 C92 1.356 . S
C95 C97 1.358 . S
C95 H153 0.930 . S
C96 N93 1.314 . S
C96 C94 1.353 . S
C96 H154 0.930 . S
C97 N93 1.279 . S
C97 C95 1.358 . S
C97 H155 0.930 . S
C98 C101 1.348 . S
C98 C102 1.356 . S
C98 O149 1.325 . S
C99 N100 1.279 . S
C99 C102 1.358 . S
C99 H156 0.930 . S
N100 C99 1.279 . S
N100 C103 1.314 . S
C101 C98 1.348 . S
C101 C103 1.353 . S
C101 H157 0.929 . S
C102 C98 1.356 . S
C102 C99 1.358 . S
C102 H158 0.930 . S
C103 N100 1.314 . S
C103 C101 1.353 . S
C103 H159 0.930 . S
C104 N105 1.314 . S
C104 C109 1.353 . S
C104 H110 0.930 . S
N105 Li88 1.990 . S
N105 C104 1.314 . S
N105 C107 1.279 . S
C106 C107 1.358 . S
C106 C108 1.356 . S
C106 H160 0.930 . S
C107 N105 1.279 . S
C107 C106 1.358 . S
C107 H111 0.930 . S
C108 C106 1.356 . S
C108 C109 1.348 . S
C109 C104 1.353 . S
C109 C108 1.348 . S
C109 H161 0.929 . S
H110 C104 0.930 . S
H111 C107 0.930 . S
C112 N113 1.314 . S
C112 C114 1.353 . S
C112 H118 0.930 . S
N113 Li89 1.990 . S
N113 C112 1.314 . S
N113 C116 1.279 . S
C114 C112 1.353 . S
C114 C117 1.348 . S
C114 H162 0.929 . S
C115 C116 1.358 . S
C115 C117 1.356 . S
C115 H163 0.930 . S
C116 N113 1.279 . S
C116 C115 1.358 . S
C116 H119 0.930 . S
C117 C114 1.348 . S
C117 C115 1.356 . S
H118 C112 0.930 . S
H119 C116 0.930 . S
C120 C122 1.348 . S
C120 C123 1.356 . S
C120 O150 1.325 . S
N121 C124 1.314 . S
N121 C125 1.279 . S
C122 C120 1.348 . S
C122 C124 1.353 . S
C122 H164 0.929 . S
C123 C120 1.356 . S
C123 C125 1.358 . S
C123 H165 0.930 . S
C124 N121 1.314 . S
C124 C122 1.353 . S
C124 H166 0.930 . S
C125 N121 1.279 . S
C125 C123 1.358 . S
C125 H167 0.930 . S
C126 C127 1.348 . S
C126 C128 1.356 . S
C126 O151 1.325 . S
C127 C126 1.348 . S
C127 C129 1.353 . S
C127 H168 0.929 . S
C128 C126 1.356 . S
C128 C130 1.358 . S
C128 H169 0.930 . S
C129 C127 1.353 . S
C129 N131 1.314 . S
C129 H170 0.930 . S
C130 C128 1.358 . S
C130 N131 1.279 . S
C130 H171 0.930 . S
N131 C129 1.314 . S
N131 C130 1.279 . S
C132 C134 1.353 . S
C132 N135 1.314 . S
C132 H138 0.930 . S
C133 N135 1.279 . S
C133 C136 1.358 . S
C133 H139 0.930 . S
C134 C132 1.353 . S
C134 C137 1.348 . S
C134 H172 0.929 . S
N135 Li90 1.990 . S
N135 C132 1.314 . S
N135 C133 1.279 . S
C136 C133 1.358 . S
C136 C137 1.356 . S
C136 H173 0.930 . S
C137 C134 1.348 . S
C137 C136 1.356 . S
H138 C132 0.930 . S
H139 C133 0.930 . S
C140 N141 1.314 . S
C140 C142 1.353 . S
C140 H146 0.930 . S
N141 Li91 1.990 . S
N141 C140 1.314 . S
N141 C144 1.279 . S
C142 C140 1.353 . S
C142 C145 1.348 . S
C142 H174 0.929 . S
C143 C144 1.358 . S
C143 C145 1.356 . S
C143 H175 0.930 . S
C144 N141 1.279 . S
C144 C143 1.358 . S
C144 H147 0.930 . S
C145 C142 1.348 . S
C145 C143 1.356 . S
H146 C140 0.930 . S
H147 C144 0.930 . S
O148 Li88 1.956 . S
O148 Li89 1.970 . S
O148 Li90 1.961 . S
O148 C92 1.325 . S
O149 Li88 1.970 . S
O149 Li89 1.956 . S
O149 Li91 1.961 . S
O149 C98 1.325 . S
O150 Li88 1.961 . S
O150 Li90 1.956 . S
O150 Li91 1.970 . S
O150 C120 1.325 . S
O151 Li89 1.961 . S
O151 Li90 1.970 . S
O151 Li91 1.956 . S
O151 C126 1.325 . S
H152 C94 0.929 . S
H153 C95 0.930 . S
H154 C96 0.930 . S
H155 C97 0.930 . S
H156 C99 0.930 . S
H157 C101 0.929 . S
H158 C102 0.930 . S
H159 C103 0.930 . S
H160 C106 0.930 . S
H161 C109 0.929 . S
H162 C114 0.929 . S
H163 C115 0.930 . S
H164 C122 0.929 . S
H165 C123 0.930 . S
H166 C124 0.930 . S
H167 C125 0.930 . S
H168 C127 0.929 . S
H169 C128 0.930 . S
H170 C129 0.930 . S
H171 C130 0.930 . S
H172 C134 0.929 . S
H173 C136 0.930 . S
H174 C142 0.929 . S
H175 C143 0.930 . S
Li176 N193 1.990 . S
Li176 O236 1.956 . S
Li176 O237 1.970 . S
Li176 O238 1.961 . S
Li177 N201 1.990 . S
Li177 O236 1.970 . S
Li177 O237 1.956 . S
Li177 O239 1.961 . S
Li178 N223 1.990 . S
Li178 O236 1.961 . S
Li178 O238 1.956 . S
Li178 O239 1.970 . S
Li179 N229 1.990 . S
Li179 O237 1.961 . S
Li179 O238 1.970 . S
Li179 O239 1.956 . S
C180 C182 1.348 . S
C180 C183 1.356 . S
C180 O236 1.325 . S
N181 C184 1.314 . S
N181 C185 1.279 . S
C182 C180 1.348 . S
C182 C184 1.353 . S
C182 H240 0.929 . S
C183 C180 1.356 . S
C183 C185 1.358 . S
C183 H241 0.930 . S
C184 N181 1.314 . S
C184 C182 1.353 . S
C184 H242 0.930 . S
C185 N181 1.279 . S
C185 C183 1.358 . S
C185 H243 0.930 . S
C186 C189 1.348 . S
C186 C190 1.356 . S
C186 O237 1.325 1_545 S
C187 N188 1.279 . S
C187 C190 1.358 . S
C187 H244 0.930 . S
N188 C187 1.279 . S
N188 C191 1.314 . S
C189 C186 1.348 . S
C189 C191 1.353 . S
C189 H245 0.929 . S
C190 C186 1.356 . S
C190 C187 1.358 . S
C190 H246 0.930 . S
C191 N188 1.314 . S
C191 C189 1.353 . S
C191 H247 0.930 . S
C192 N193 1.314 . S
C192 C197 1.353 1_565 S
C192 H198 0.930 . S
N193 Li176 1.990 . S
N193 C192 1.314 . S
N193 C195 1.279 . S
C194 C195 1.358 1_545 S
C194 C196 1.356 . S
C194 H248 0.930 . S
C195 N193 1.279 . S
C195 C194 1.358 1_565 S
C195 H199 0.930 . S
C196 C194 1.356 . S
C196 C197 1.348 . S
C197 C192 1.353 1_545 S
C197 C196 1.348 . S
C197 H249 0.929 . S
H198 C192 0.930 . S
H199 C195 0.930 . S
C200 N201 1.314 . S
C200 C202 1.353 . S
C200 H206 0.930 . S
N201 Li177 1.990 . S
N201 C200 1.314 . S
N201 C204 1.279 1_565 S
C202 C200 1.353 . S
C202 C205 1.348 1_565 S
C202 H250 0.929 . S
C203 C204 1.358 . S
C203 C205 1.356 . S
C203 H251 0.930 . S
C204 N201 1.279 1_545 S
C204 C203 1.358 . S
C204 H207 0.930 . S
C205 C202 1.348 1_545 S
C205 C203 1.356 . S
H206 C200 0.930 . S
H207 C204 0.930 . S
C208 C210 1.348 . S
C208 C211 1.356 . S
C208 O238 1.325 . S
N209 C212 1.314 . S
N209 C213 1.279 . S
C210 C208 1.348 . S
C210 C212 1.353 . S
C210 H252 0.929 . S
C211 C208 1.356 . S
C211 C213 1.358 . S
C211 H253 0.930 . S
C212 N209 1.314 . S
C212 C210 1.353 . S
C212 H254 0.930 . S
C213 N209 1.279 . S
C213 C211 1.358 . S
C213 H255 0.930 . S
C214 C215 1.348 . S
C214 C216 1.356 . S
C214 O239 1.325 . S
C215 C214 1.348 . S
C215 C217 1.353 . S
C215 H256 0.929 . S
C216 C214 1.356 . S
C216 C218 1.358 . S
C216 H257 0.930 . S
C217 C215 1.353 . S
C217 N219 1.314 . S
C217 H258 0.930 . S
C218 C216 1.358 . S
C218 N219 1.279 . S
C218 H259 0.930 . S
N219 C217 1.314 . S
N219 C218 1.279 . S
C220 C222 1.353 . S
C220 N223 1.314 . S
C220 H226 0.930 . S
C221 N223 1.279 . S
C221 C224 1.358 . S
C221 H227 0.930 . S
C222 C220 1.353 . S
C222 C225 1.348 . S
C222 H260 0.929 . S
N223 Li178 1.990 . S
N223 C220 1.314 . S
N223 C221 1.279 . S
C224 C221 1.358 . S
C224 C225 1.356 . S
C224 H261 0.930 . S
C225 C222 1.348 . S
C225 C224 1.356 . S
H226 C220 0.930 . S
H227 C221 0.930 . S
C228 N229 1.314 . S
C228 C230 1.353 . S
C228 H234 0.948 . S
N229 Li179 1.990 . S
N229 C228 1.314 . S
N229 C232 1.279 . S
C230 C228 1.353 . S
C230 C233 1.348 . S
C230 H262 0.929 1_565 S
C231 C232 1.358 . S
C231 C233 1.356 . S
C231 H263 0.930 . S
C232 N229 1.279 . S
C232 C231 1.358 . S
C232 H235 0.930 . S
C233 C230 1.348 . S
C233 C231 1.356 . S
H234 C228 0.948 . S
H235 C232 0.930 . S
O236 Li176 1.956 . S
O236 Li177 1.970 . S
O236 Li178 1.961 . S
O236 C180 1.325 . S
O237 Li176 1.970 . S
O237 Li177 1.956 . S
O237 Li179 1.961 . S
O237 C186 1.325 1_565 S
O238 Li176 1.961 . S
O238 Li178 1.956 . S
O238 Li179 1.970 . S
O238 C208 1.325 . S
O239 Li177 1.961 . S
O239 Li178 1.970 . S
O239 Li179 1.956 . S
O239 C214 1.325 . S
H240 C182 0.929 . S
H241 C183 0.930 . S
H242 C184 0.930 . S
H243 C185 0.930 . S
H244 C187 0.930 . S
H245 C189 0.929 . S
H246 C190 0.930 . S
H247 C191 0.930 . S
H248 C194 0.930 . S
H249 C197 0.929 . S
H250 C202 0.929 . S
H251 C203 0.930 . S
H252 C210 0.929 . S
H253 C211 0.930 . S
H254 C212 0.930 . S
H255 C213 0.930 . S
H256 C215 0.929 . S
H257 C216 0.930 . S
H258 C217 0.930 . S
H259 C218 0.930 . S
H260 C222 0.929 . S
H261 C224 0.930 . S
H262 C230 0.929 1_545 S
H263 C231 0.930 . S
Li264 N281 1.990 . S
Li264 O324 1.956 . S
Li264 O325 1.970 . S
Li264 O326 1.961 . S
Li265 N289 1.990 . S
Li265 O324 1.970 . S
Li265 O325 1.956 . S
Li265 O327 1.961 . S
Li266 N311 1.990 . S
Li266 O324 1.961 . S
Li266 O326 1.956 . S
Li266 O327 1.970 . S
Li267 N317 1.990 . S
Li267 O325 1.961 . S
Li267 O326 1.970 . S
Li267 O327 1.956 . S
C268 C270 1.348 . S
C268 C271 1.356 . S
C268 O324 1.325 . S
N269 C272 1.314 . S
N269 C273 1.279 . S
C270 C268 1.348 . S
C270 C272 1.353 . S
C270 H328 0.929 . S
C271 C268 1.356 . S
C271 C273 1.358 . S
C271 H329 0.930 . S
C272 N269 1.314 . S
C272 C270 1.353 . S
C272 H330 0.930 . S
C273 N269 1.279 . S
C273 C271 1.358 . S
C273 H331 0.930 . S
C274 C277 1.348 . S
C274 C278 1.356 . S
C274 O325 1.325 . S
C275 N276 1.279 . S
C275 C278 1.358 . S
C275 H332 0.930 . S
N276 C275 1.279 . S
N276 C279 1.314 . S
C277 C274 1.348 . S
C277 C279 1.353 . S
C277 H333 0.929 . S
C278 C274 1.356 . S
C278 C275 1.358 . S
C278 H334 0.930 . S
C279 N276 1.314 . S
C279 C277 1.353 . S
C279 H335 0.930 . S
C280 N281 1.314 . S
C280 C285 1.353 . S
C280 H286 0.930 . S
N281 Li264 1.990 . S
N281 C280 1.314 . S
N281 C283 1.279 . S
C282 C283 1.358 . S
C282 C284 1.356 . S
C282 H336 0.930 . S
C283 N281 1.279 . S
C283 C282 1.358 . S
C283 H287 0.930 . S
C284 C282 1.356 . S
C284 C285 1.348 . S
C285 C280 1.353 . S
C285 C284 1.348 . S
C285 H337 0.929 . S
H286 C280 0.930 . S
H287 C283 0.930 . S
C288 N289 1.314 . S
C288 C290 1.353 . S
C288 H294 0.930 . S
N289 Li265 1.990 . S
N289 C288 1.314 . S
N289 C292 1.279 . S
C290 C288 1.353 . S
C290 C293 1.348 . S
C290 H338 0.929 . S
C291 C292 1.358 . S
C291 C293 1.356 . S
C291 H339 0.930 . S
C292 N289 1.279 . S
C292 C291 1.358 . S
C292 H295 0.930 . S
C293 C290 1.348 . S
C293 C291 1.356 . S
H294 C288 0.930 . S
H295 C292 0.930 . S
C296 C298 1.348 . S
C296 C299 1.356 . S
C296 O326 1.325 . S
N297 C300 1.314 . S
N297 C301 1.279 . S
C298 C296 1.348 . S
C298 C300 1.353 . S
C298 H340 0.929 . S
C299 C296 1.356 . S
C299 C301 1.358 . S
C299 H341 0.930 . S
C300 N297 1.314 . S
C300 C298 1.353 . S
C300 H342 0.930 . S
C301 N297 1.279 . S
C301 C299 1.358 . S
C301 H343 0.930 . S
C302 C303 1.348 . S
C302 C304 1.356 . S
C302 O327 1.325 . S
C303 C302 1.348 . S
C303 C305 1.353 . S
C303 H344 0.929 . S
C304 C302 1.356 . S
C304 C306 1.358 . S
C304 H345 0.930 . S
C305 C303 1.353 . S
C305 N307 1.314 . S
C305 H346 0.930 . S
C306 C304 1.358 . S
C306 N307 1.279 . S
C306 H347 0.930 . S
N307 C305 1.314 . S
N307 C306 1.279 . S
C308 C310 1.353 . S
C308 N311 1.314 . S
C308 H314 0.930 . S
C309 N311 1.279 . S
C309 C312 1.358 . S
C309 H315 0.930 . S
C310 C308 1.353 . S
C310 C313 1.348 . S
C310 H348 0.929 . S
N311 Li266 1.990 . S
N311 C308 1.314 . S
N311 C309 1.279 . S
C312 C309 1.358 . S
C312 C313 1.356 . S
C312 H349 0.930 . S
C313 C310 1.348 . S
C313 C312 1.356 . S
H314 C308 0.930 . S
H315 C309 0.930 . S
C316 N317 1.314 . S
C316 C318 1.353 . S
C316 H322 0.930 . S
N317 Li267 1.990 . S
N317 C316 1.314 . S
N317 C320 1.279 . S
C318 C316 1.353 . S
C318 C321 1.348 . S
C318 H350 0.929 . S
C319 C320 1.358 . S
C319 C321 1.356 . S
C319 H351 0.930 . S
C320 N317 1.279 . S
C320 C319 1.358 . S
C320 H323 0.930 . S
C321 C318 1.348 . S
C321 C319 1.356 . S
H322 C316 0.930 . S
H323 C320 0.930 . S
O324 Li264 1.956 . S
O324 Li265 1.970 . S
O324 Li266 1.961 . S
O324 C268 1.325 . S
O325 Li264 1.970 . S
O325 Li265 1.956 . S
O325 Li267 1.961 . S
O325 C274 1.325 . S
O326 Li264 1.961 . S
O326 Li266 1.956 . S
O326 Li267 1.970 . S
O326 C296 1.325 . S
O327 Li265 1.961 . S
O327 Li266 1.970 . S
O327 Li267 1.956 . S
O327 C302 1.325 . S
H328 C270 0.929 . S
H329 C271 0.930 . S
H330 C272 0.930 . S
H331 C273 0.930 . S
H332 C275 0.930 . S
H333 C277 0.929 . S
H334 C278 0.930 . S
H335 C279 0.930 . S
H336 C282 0.930 . S
H337 C285 0.929 . S
H338 C290 0.929 . S
H339 C291 0.930 . S
H340 C298 0.929 . S
H341 C299 0.930 . S
H342 C300 0.930 . S
H343 C301 0.930 . S
H344 C303 0.929 . S
H345 C304 0.930 . S
H346 C305 0.930 . S
H347 C306 0.930 . S
H348 C310 0.929 . S
H349 C312 0.930 . S
H350 C318 0.929 . S
H351 C319 0.930 . S
Li352 N369 1.990 . S
Li352 O412 1.956 1_655 S
Li352 O413 1.970 1_655 S
Li352 O414 1.961 . S
Li353 N377 1.990 . S
Li353 O412 1.970 . S
Li353 O413 1.956 . S
Li353 O415 1.961 . S
Li354 N399 1.990 . S
Li354 O412 1.961 . S
Li354 O414 1.956 1_455 S
Li354 O415 1.970 . S
Li355 N405 1.990 . S
Li355 O413 1.961 . S
Li355 O414 1.970 1_455 S
Li355 O415 1.956 . S
C356 C358 1.348 . S
C356 C359 1.356 1_455 S
C356 O412 1.325 . S
N357 C360 1.314 . S
N357 C361 1.279 1_455 S
C358 C356 1.348 . S
C358 C360 1.353 . S
C358 H416 0.929 . S
C359 C356 1.356 1_655 S
C359 C361 1.358 . S
C359 H417 0.930 . S
C360 N357 1.314 . S
C360 C358 1.353 . S
C360 H418 0.930 . S
C361 N357 1.279 1_655 S
C361 C359 1.358 . S
C361 H419 0.930 . S
C362 C365 1.348 1_455 S
C362 C366 1.356 . S
C362 O413 1.325 1_545 S
C363 N364 1.279 . S
C363 C366 1.358 . S
C363 H420 0.930 . S
N364 C363 1.279 . S
N364 C367 1.314 1_455 S
C365 C362 1.348 1_655 S
C365 C367 1.353 . S
C365 H421 0.929 . S
C366 C362 1.356 . S
C366 C363 1.358 . S
C366 H422 0.930 . S
C367 N364 1.314 1_655 S
C367 C365 1.353 . S
C367 H423 0.930 . S
C368 N369 1.314 . S
C368 C373 1.353 1_565 S
C368 H374 0.930 . S
N369 Li352 1.990 . S
N369 C368 1.314 . S
N369 C371 1.279 . S
C370 C371 1.358 1_545 S
C370 C372 1.356 . S
C370 H424 0.930 . S
C371 N369 1.279 . S
C371 C370 1.358 1_565 S
C371 H375 0.930 . S
C372 C370 1.356 . S
C372 C373 1.348 . S
C373 C368 1.353 1_545 S
C373 C372 1.348 . S
C373 H425 0.929 . S
H374 C368 0.930 . S
H375 C371 0.930 . S
C376 N377 1.314 . S
C376 C378 1.353 . S
C376 H382 0.930 . S
N377 Li353 1.990 . S
N377 C376 1.314 . S
N377 C380 1.279 1_565 S
C378 C376 1.353 . S
C378 C381 1.348 1_565 S
C378 H426 0.929 . S
C379 C380 1.358 . S
C379 C381 1.356 . S
C379 H427 0.930 . S
C380 N377 1.279 1_545 S
C380 C379 1.358 . S
C380 H383 0.930 . S
C381 C378 1.348 1_545 S
C381 C379 1.356 . S
H382 C376 0.930 . S
H383 C380 0.930 . S
C384 C386 1.348 . S
C384 C387 1.356 . S
C384 O414 1.325 . S
N385 C388 1.314 . S
N385 C389 1.279 . S
C386 C384 1.348 . S
C386 C388 1.353 . S
C386 H428 0.929 . S
C387 C384 1.356 . S
C387 C389 1.358 . S
C387 H429 0.930 . S
C388 N385 1.314 . S
C388 C386 1.353 . S
C388 H430 0.930 . S
C389 N385 1.279 . S
C389 C387 1.358 . S
C389 H431 0.930 . S
C390 C391 1.348 . S
C390 C392 1.356 . S
C390 O415 1.325 . S
C391 C390 1.348 . S
C391 C393 1.353 . S
C391 H432 0.929 . S
C392 C390 1.356 . S
C392 C394 1.358 . S
C392 H433 0.930 . S
C393 C391 1.353 . S
C393 N395 1.314 . S
C393 H434 0.930 . S
C394 C392 1.358 . S
C394 N395 1.279 . S
C394 H435 0.930 . S
N395 C393 1.314 . S
N395 C394 1.279 . S
C396 C398 1.353 . S
C396 N399 1.314 . S
C396 H402 0.930 . S
C397 N399 1.279 1_655 S
C397 C400 1.358 . S
C397 H403 0.930 . S
C398 C396 1.353 . S
C398 C401 1.348 . S
C398 H436 0.929 . S
N399 Li354 1.990 . S
N399 C396 1.314 . S
N399 C397 1.279 1_455 S
C400 C397 1.358 . S
C400 C401 1.356 1_655 S
C400 H437 0.930 . S
C401 C398 1.348 . S
C401 C400 1.356 1_455 S
H402 C396 0.930 . S
H403 C397 0.930 . S
C404 N405 1.314 1_655 S
C404 C406 1.353 . S
C404 H410 0.947 . S
N405 Li355 1.990 . S
N405 C404 1.314 1_455 S
N405 C408 1.279 . S
C406 C404 1.353 . S
C406 C409 1.348 1_655 S
C406 H438 0.929 1_565 S
C407 C408 1.358 . S
C407 C409 1.356 . S
C407 H439 0.930 . S
C408 N405 1.279 . S
C408 C407 1.358 . S
C408 H411 0.930 . S
C409 C406 1.348 1_455 S
C409 C407 1.356 . S
H410 C404 0.947 . S
H411 C408 0.930 . S
O412 Li352 1.956 1_455 S
O412 Li353 1.970 . S
O412 Li354 1.961 . S
O412 C356 1.325 . S
O413 Li352 1.970 1_455 S
O413 Li353 1.956 . S
O413 Li355 1.961 . S
O413 C362 1.325 1_565 S
O414 Li352 1.961 . S
O414 Li354 1.956 1_655 S
O414 Li355 1.970 1_655 S
O414 C384 1.325 . S
O415 Li353 1.961 . S
O415 Li354 1.970 . S
O415 Li355 1.956 . S
O415 C390 1.325 . S
H416 C358 0.929 . S
H417 C359 0.930 . S
H418 C360 0.930 . S
H419 C361 0.930 . S
H420 C363 0.930 . S
H421 C365 0.929 . S
H422 C366 0.930 . S
H423 C367 0.930 . S
H424 C370 0.930 . S
H425 C373 0.929 . S
H426 C378 0.929 . S
H427 C379 0.930 . S
H428 C386 0.929 . S
H429 C387 0.930 . S
H430 C388 0.930 . S
H431 C389 0.930 . S
H432 C391 0.929 . S
H433 C392 0.930 . S
H434 C393 0.930 . S
H435 C394 0.930 . S
H436 C398 0.929 . S
H437 C400 0.930 . S
H438 C406 0.929 1_545 S
H439 C407 0.930 . S
Li440 N457 1.990 . S
Li440 O500 1.956 . S
Li440 O501 1.970 . S
Li440 O502 1.961 . S
Li441 N465 1.990 . S
Li441 O500 1.970 . S
Li441 O501 1.956 . S
Li441 O503 1.961 . S
Li442 N487 1.990 . S
Li442 O500 1.961 . S
Li442 O502 1.956 . S
Li442 O503 1.970 . S
Li443 N493 1.990 . S
Li443 O501 1.961 . S
Li443 O502 1.970 . S
Li443 O503 1.956 . S
C444 C446 1.348 . S
C444 C447 1.356 . S
C444 O500 1.325 . S
N445 C448 1.314 . S
N445 C449 1.279 . S
C446 C444 1.348 . S
C446 C448 1.353 . S
C446 H504 0.929 . S
C447 C444 1.356 . S
C447 C449 1.358 . S
C447 H505 0.930 . S
C448 N445 1.314 . S
C448 C446 1.353 . S
C448 H506 0.930 . S
C449 N445 1.279 . S
C449 C447 1.358 . S
C449 H507 0.930 . S
C450 C453 1.348 . S
C450 C454 1.356 . S
C450 O501 1.325 . S
C451 N452 1.279 . S
C451 C454 1.358 . S
C451 H508 0.930 . S
N452 C451 1.279 . S
N452 C455 1.314 . S
C453 C450 1.348 . S
C453 C455 1.353 . S
C453 H509 0.929 . S
C454 C450 1.356 . S
C454 C451 1.358 . S
C454 H510 0.930 . S
C455 N452 1.314 . S
C455 C453 1.353 . S
C455 H511 0.930 . S
C456 N457 1.314 . S
C456 C461 1.353 . S
C456 H462 0.930 . S
N457 Li440 1.990 . S
N457 C456 1.314 . S
N457 C459 1.279 . S
C458 C459 1.358 . S
C458 C460 1.356 . S
C458 H512 0.930 . S
C459 N457 1.279 . S
C459 C458 1.358 . S
C459 H463 0.930 . S
C460 C458 1.356 . S
C460 C461 1.348 . S
C461 C456 1.353 . S
C461 C460 1.348 . S
C461 H513 0.929 . S
H462 C456 0.930 . S
H463 C459 0.930 . S
C464 N465 1.314 . S
C464 C466 1.353 . S
C464 H470 0.930 . S
N465 Li441 1.990 . S
N465 C464 1.314 . S
N465 C468 1.279 . S
C466 C464 1.353 . S
C466 C469 1.348 . S
C466 H514 0.929 . S
C467 C468 1.358 . S
C467 C469 1.356 . S
C467 H515 0.930 . S
C468 N465 1.279 . S
C468 C467 1.358 . S
C468 H471 0.930 . S
C469 C466 1.348 . S
C469 C467 1.356 . S
H470 C464 0.930 . S
H471 C468 0.930 . S
C472 C474 1.348 . S
C472 C475 1.356 . S
C472 O502 1.325 . S
N473 C476 1.314 . S
N473 C477 1.279 . S
C474 C472 1.348 . S
C474 C476 1.353 . S
C474 H516 0.929 . S
C475 C472 1.356 . S
C475 C477 1.358 . S
C475 H517 0.930 . S
C476 N473 1.314 . S
C476 C474 1.353 . S
C476 H518 0.930 . S
C477 N473 1.279 . S
C477 C475 1.358 . S
C477 H519 0.930 . S
C478 C479 1.348 . S
C478 C480 1.356 . S
C478 O503 1.325 . S
C479 C478 1.348 . S
C479 C481 1.353 . S
C479 H520 0.929 . S
C480 C478 1.356 . S
C480 C482 1.358 . S
C480 H521 0.930 . S
C481 C479 1.353 . S
C481 N483 1.314 . S
C481 H522 0.930 . S
C482 C480 1.358 . S
C482 N483 1.279 . S
C482 H523 0.930 . S
N483 C481 1.314 . S
N483 C482 1.279 . S
C484 C486 1.353 . S
C484 N487 1.314 . S
C484 H490 0.930 . S
C485 N487 1.279 . S
C485 C488 1.358 . S
C485 H491 0.930 . S
C486 C484 1.353 . S
C486 C489 1.348 . S
C486 H524 0.929 . S
N487 Li442 1.990 . S
N487 C484 1.314 . S
N487 C485 1.279 . S
C488 C485 1.358 . S
C488 C489 1.356 . S
C488 H525 0.930 . S
C489 C486 1.348 . S
C489 C488 1.356 . S
H490 C484 0.930 . S
H491 C485 0.930 . S
C492 N493 1.314 . S
C492 C494 1.353 . S
C492 H498 0.930 . S
N493 Li443 1.990 . S
N493 C492 1.314 . S
N493 C496 1.279 . S
C494 C492 1.353 . S
C494 C497 1.348 . S
C494 H526 0.929 . S
C495 C496 1.358 . S
C495 C497 1.356 . S
C495 H527 0.930 . S
C496 N493 1.279 . S
C496 C495 1.358 . S
C496 H499 0.930 . S
C497 C494 1.348 . S
C497 C495 1.356 . S
H498 C492 0.930 . S
H499 C496 0.930 . S
O500 Li440 1.956 . S
O500 Li441 1.970 . S
O500 Li442 1.961 . S
O500 C444 1.325 . S
O501 Li440 1.970 . S
O501 Li441 1.956 . S
O501 Li443 1.961 . S
O501 C450 1.325 . S
O502 Li440 1.961 . S
O502 Li442 1.956 . S
O502 Li443 1.970 . S
O502 C472 1.325 . S
O503 Li441 1.961 . S
O503 Li442 1.970 . S
O503 Li443 1.956 . S
O503 C478 1.325 . S
H504 C446 0.929 . S
H505 C447 0.930 . S
H506 C448 0.930 . S
H507 C449 0.930 . S
H508 C451 0.930 . S
H509 C453 0.929 . S
H510 C454 0.930 . S
H511 C455 0.930 . S
H512 C458 0.930 . S
H513 C461 0.929 . S
H514 C466 0.929 . S
H515 C467 0.930 . S
H516 C474 0.929 . S
H517 C475 0.930 . S
H518 C476 0.930 . S
H519 C477 0.930 . S
H520 C479 0.929 . S
H521 C480 0.930 . S
H522 C481 0.930 . S
H523 C482 0.930 . S
H524 C486 0.929 . S
H525 C488 0.930 . S
H526 C494 0.929 . S
H527 C495 0.930 . S
Li528 N545 1.990 . S
Li528 O588 1.956 . S
Li528 O589 1.970 . S
Li528 O590 1.961 . S
Li529 N553 1.990 . S
Li529 O588 1.970 . S
Li529 O589 1.956 . S
Li529 O591 1.961 . S
Li530 N575 1.990 . S
Li530 O588 1.961 . S
Li530 O590 1.956 . S
Li530 O591 1.970 . S
Li531 N581 1.990 . S
Li531 O589 1.961 . S
Li531 O590 1.970 . S
Li531 O591 1.956 . S
C532 C534 1.348 . S
C532 C535 1.356 . S
C532 O588 1.325 . S
N533 C536 1.314 . S
N533 C537 1.279 . S
C534 C532 1.348 . S
C534 C536 1.353 . S
C534 H592 0.929 . S
C535 C532 1.356 . S
C535 C537 1.358 . S
C535 H593 0.930 . S
C536 N533 1.314 . S
C536 C534 1.353 . S
C536 H594 0.930 . S
C537 N533 1.279 . S
C537 C535 1.358 . S
C537 H595 0.930 . S
C538 C541 1.348 . S
C538 C542 1.356 . S
C538 O589 1.325 . S
C539 N540 1.279 . S
C539 C542 1.358 . S
C539 H596 0.930 . S
N540 C539 1.279 . S
N540 C543 1.314 . S
C541 C538 1.348 . S
C541 C543 1.353 . S
C541 H597 0.929 . S
C542 C538 1.356 . S
C542 C539 1.358 . S
C542 H598 0.930 . S
C543 N540 1.314 . S
C543 C541 1.353 . S
C543 H599 0.930 . S
C544 N545 1.314 . S
C544 C549 1.353 . S
C544 H550 0.930 . S
N545 Li528 1.990 . S
N545 C544 1.314 . S
N545 C547 1.279 . S
C546 C547 1.358 . S
C546 C548 1.356 . S
C546 H600 0.930 . S
C547 N545 1.279 . S
C547 C546 1.358 . S
C547 H551 0.930 . S
C548 C546 1.356 . S
C548 C549 1.348 . S
C549 C544 1.353 . S
C549 C548 1.348 . S
C549 H601 0.929 . S
H550 C544 0.930 . S
H551 C547 0.930 . S
C552 N553 1.314 . S
C552 C554 1.353 . S
C552 H558 0.948 . S
N553 Li529 1.990 . S
N553 C552 1.314 . S
N553 C556 1.279 . S
C554 C552 1.353 . S
C554 C557 1.348 . S
C554 H602 0.929 1_545 S
C555 C556 1.358 . S
C555 C557 1.356 . S
C555 H603 0.930 . S
C556 N553 1.279 . S
C556 C555 1.358 . S
C556 H559 0.930 . S
C557 C554 1.348 . S
C557 C555 1.356 . S
H558 C552 0.948 . S
H559 C556 0.930 . S
C560 C562 1.348 . S
C560 C563 1.356 . S
C560 O590 1.325 . S
N561 C564 1.314 . S
N561 C565 1.279 . S
C562 C560 1.348 . S
C562 C564 1.353 . S
C562 H604 0.929 . S
C563 C560 1.356 . S
C563 C565 1.358 . S
C563 H605 0.930 . S
C564 N561 1.314 . S
C564 C562 1.353 . S
C564 H606 0.930 . S
C565 N561 1.279 . S
C565 C563 1.358 . S
C565 H607 0.930 . S
C566 C567 1.348 . S
C566 C568 1.356 . S
C566 O591 1.325 1_565 S
C567 C566 1.348 . S
C567 C569 1.353 . S
C567 H608 0.929 . S
C568 C566 1.356 . S
C568 C570 1.358 . S
C568 H609 0.930 . S
C569 C567 1.353 . S
C569 N571 1.314 . S
C569 H610 0.930 . S
C570 C568 1.358 . S
C570 N571 1.279 . S
C570 H611 0.930 . S
N571 C569 1.314 . S
N571 C570 1.279 . S
C572 C574 1.353 1_545 S
C572 N575 1.314 . S
C572 H578 0.930 . S
C573 N575 1.279 . S
C573 C576 1.358 1_545 S
C573 H579 0.930 . S
C574 C572 1.353 1_565 S
C574 C577 1.348 . S
C574 H612 0.929 . S
N575 Li530 1.990 . S
N575 C572 1.314 . S
N575 C573 1.279 . S
C576 C573 1.358 1_565 S
C576 C577 1.356 . S
C576 H613 0.930 . S
C577 C574 1.348 . S
C577 C576 1.356 . S
H578 C572 0.930 . S
H579 C573 0.930 . S
C580 N581 1.314 . S
C580 C582 1.353 . S
C580 H586 0.930 . S
N581 Li531 1.990 . S
N581 C580 1.314 . S
N581 C584 1.279 1_545 S
C582 C580 1.353 . S
C582 C585 1.348 1_545 S
C582 H614 0.929 . S
C583 C584 1.358 . S
C583 C585 1.356 . S
C583 H615 0.930 . S
C584 N581 1.279 1_565 S
C584 C583 1.358 . S
C584 H587 0.930 . S
C585 C582 1.348 1_565 S
C585 C583 1.356 . S
H586 C580 0.930 . S
H587 C584 0.930 . S
O588 Li528 1.956 . S
O588 Li529 1.970 . S
O588 Li530 1.961 . S
O588 C532 1.325 . S
O589 Li528 1.970 . S
O589 Li529 1.956 . S
O589 Li531 1.961 . S
O589 C538 1.325 . S
O590 Li528 1.961 . S
O590 Li530 1.956 . S
O590 Li531 1.970 . S
O590 C560 1.325 . S
O591 Li529 1.961 . S
O591 Li530 1.970 . S
O591 Li531 1.956 . S
O591 C566 1.325 1_545 S
H592 C534 0.929 . S
H593 C535 0.930 . S
H594 C536 0.930 . S
H595 C537 0.930 . S
H596 C539 0.930 . S
H597 C541 0.929 . S
H598 C542 0.930 . S
H599 C543 0.930 . S
H600 C546 0.930 . S
H601 C549 0.929 . S
H602 C554 0.929 1_565 S
H603 C555 0.930 . S
H604 C562 0.929 . S
H605 C563 0.930 . S
H606 C564 0.930 . S
H607 C565 0.930 . S
H608 C567 0.929 . S
H609 C568 0.930 . S
H610 C569 0.930 . S
H611 C570 0.930 . S
H612 C574 0.929 . S
H613 C576 0.930 . S
H614 C582 0.929 . S
H615 C583 0.930 . S
Li616 N633 1.990 . S
Li616 O676 1.956 . S
Li616 O677 1.970 . S
Li616 O678 1.961 . S
Li617 N641 1.990 . S
Li617 O676 1.970 . S
Li617 O677 1.956 . S
Li617 O679 1.961 . S
Li618 N663 1.990 . S
Li618 O676 1.961 . S
Li618 O678 1.956 . S
Li618 O679 1.970 . S
Li619 N669 1.990 . S
Li619 O677 1.961 . S
Li619 O678 1.970 . S
Li619 O679 1.956 . S
C620 C622 1.348 . S
C620 C623 1.356 . S
C620 O676 1.325 . S
N621 C624 1.314 . S
N621 C625 1.279 . S
C622 C620 1.348 . S
C622 C624 1.353 . S
C622 H680 0.929 . S
C623 C620 1.356 . S
C623 C625 1.358 . S
C623 H681 0.930 . S
C624 N621 1.314 . S
C624 C622 1.353 . S
C624 H682 0.930 . S
C625 N621 1.279 . S
C625 C623 1.358 . S
C625 H683 0.930 . S
C626 C629 1.348 . S
C626 C630 1.356 . S
C626 O677 1.325 . S
C627 N628 1.279 . S
C627 C630 1.358 . S
C627 H684 0.930 . S
N628 C627 1.279 . S
N628 C631 1.314 . S
C629 C626 1.348 . S
C629 C631 1.353 . S
C629 H685 0.929 . S
C630 C626 1.356 . S
C630 C627 1.358 . S
C630 H686 0.930 . S
C631 N628 1.314 . S
C631 C629 1.353 . S
C631 H687 0.930 . S
C632 N633 1.314 . S
C632 C637 1.353 . S
C632 H638 0.930 . S
N633 Li616 1.990 . S
N633 C632 1.314 . S
N633 C635 1.279 . S
C634 C635 1.358 . S
C634 C636 1.356 . S
C634 H688 0.930 . S
C635 N633 1.279 . S
C635 C634 1.358 . S
C635 H639 0.930 . S
C636 C634 1.356 . S
C636 C637 1.348 . S
C637 C632 1.353 . S
C637 C636 1.348 . S
C637 H689 0.929 . S
H638 C632 0.930 . S
H639 C635 0.930 . S
C640 N641 1.314 . S
C640 C642 1.353 . S
C640 H646 0.930 . S
N641 Li617 1.990 . S
N641 C640 1.314 . S
N641 C644 1.279 . S
C642 C640 1.353 . S
C642 C645 1.348 . S
C642 H690 0.929 . S
C643 C644 1.358 . S
C643 C645 1.356 . S
C643 H691 0.930 . S
C644 N641 1.279 . S
C644 C643 1.358 . S
C644 H647 0.930 . S
C645 C642 1.348 . S
C645 C643 1.356 . S
H646 C640 0.930 . S
H647 C644 0.930 . S
C648 C650 1.348 . S
C648 C651 1.356 . S
C648 O678 1.325 . S
N649 C652 1.314 . S
N649 C653 1.279 . S
C650 C648 1.348 . S
C650 C652 1.353 . S
C650 H692 0.929 . S
C651 C648 1.356 . S
C651 C653 1.358 . S
C651 H693 0.930 . S
C652 N649 1.314 . S
C652 C650 1.353 . S
C652 H694 0.930 . S
C653 N649 1.279 . S
C653 C651 1.358 . S
C653 H695 0.930 . S
C654 C655 1.348 . S
C654 C656 1.356 . S
C654 O679 1.325 . S
C655 C654 1.348 . S
C655 C657 1.353 . S
C655 H696 0.929 . S
C656 C654 1.356 . S
C656 C658 1.358 . S
C656 H697 0.930 . S
C657 C655 1.353 . S
C657 N659 1.314 . S
C657 H698 0.930 . S
C658 C656 1.358 . S
C658 N659 1.279 . S
C658 H699 0.930 . S
N659 C657 1.314 . S
N659 C658 1.279 . S
C660 C662 1.353 . S
C660 N663 1.314 . S
C660 H666 0.930 . S
C661 N663 1.279 . S
C661 C664 1.358 . S
C661 H667 0.930 . S
C662 C660 1.353 . S
C662 C665 1.348 . S
C662 H700 0.929 . S
N663 Li618 1.990 . S
N663 C660 1.314 . S
N663 C661 1.279 . S
C664 C661 1.358 . S
C664 C665 1.356 . S
C664 H701 0.930 . S
C665 C662 1.348 . S
C665 C664 1.356 . S
H666 C660 0.930 . S
H667 C661 0.930 . S
C668 N669 1.314 . S
C668 C670 1.353 . S
C668 H674 0.930 . S
N669 Li619 1.990 . S
N669 C668 1.314 . S
N669 C672 1.279 . S
C670 C668 1.353 . S
C670 C673 1.348 . S
C670 H702 0.929 . S
C671 C672 1.358 . S
C671 C673 1.356 . S
C671 H703 0.930 . S
C672 N669 1.279 . S
C672 C671 1.358 . S
C672 H675 0.930 . S
C673 C670 1.348 . S
C673 C671 1.356 . S
H674 C668 0.930 . S
H675 C672 0.930 . S
O676 Li616 1.956 . S
O676 Li617 1.970 . S
O676 Li618 1.961 . S
O676 C620 1.325 . S
O677 Li616 1.970 . S
O677 Li617 1.956 . S
O677 Li619 1.961 . S
O677 C626 1.325 . S
O678 Li616 1.961 . S
O678 Li618 1.956 . S
O678 Li619 1.970 . S
O678 C648 1.325 . S
O679 Li617 1.961 . S
O679 Li618 1.970 . S
O679 Li619 1.956 . S
O679 C654 1.325 . S
H680 C622 0.929 . S
H681 C623 0.930 . S
H682 C624 0.930 . S
H683 C625 0.930 . S
H684 C627 0.930 . S
H685 C629 0.929 . S
H686 C630 0.930 . S
H687 C631 0.930 . S
H688 C634 0.930 . S
H689 C637 0.929 . S
H690 C642 0.929 . S
H691 C643 0.930 . S
H692 C650 0.929 . S
H693 C651 0.930 . S
H694 C652 0.930 . S
H695 C653 0.930 . S
H696 C655 0.929 . S
H697 C656 0.930 . S
H698 C657 0.930 . S
H699 C658 0.930 . S
H700 C662 0.929 . S
H701 C664 0.930 . S
H702 C670 0.929 . S
H703 C671 0.930 . S
Li704 N721 1.990 . S
Li704 O764 1.956 . S
Li704 O765 1.970 . S
Li704 O766 1.961 . S
Li705 N729 1.990 . S
Li705 O764 1.970 . S
Li705 O765 1.956 . S
Li705 O767 1.961 . S
Li706 N751 1.990 . S
Li706 O764 1.961 . S
Li706 O766 1.956 . S
Li706 O767 1.970 . S
Li707 N757 1.990 . S
Li707 O765 1.961 . S
Li707 O766 1.970 . S
Li707 O767 1.956 . S
C708 C710 1.348 . S
C708 C711 1.356 . S
C708 O764 1.325 . S
N709 C712 1.314 . S
N709 C713 1.279 . S
C710 C708 1.348 . S
C710 C712 1.353 . S
C710 H768 0.929 . S
C711 C708 1.356 . S
C711 C713 1.358 . S
C711 H769 0.930 . S
C712 N709 1.314 . S
C712 C710 1.353 . S
C712 H770 0.930 . S
C713 N709 1.279 . S
C713 C711 1.358 . S
C713 H771 0.930 . S
C714 C717 1.348 . S
C714 C718 1.356 . S
C714 O765 1.325 . S
C715 N716 1.279 . S
C715 C718 1.358 . S
C715 H772 0.930 . S
N716 C715 1.279 . S
N716 C719 1.314 . S
C717 C714 1.348 . S
C717 C719 1.353 . S
C717 H773 0.929 . S
C718 C714 1.356 . S
C718 C715 1.358 . S
C718 H774 0.930 . S
C719 N716 1.314 . S
C719 C717 1.353 . S
C719 H775 0.930 . S
C720 N721 1.314 . S
C720 C725 1.353 . S
C720 H726 0.930 . S
N721 Li704 1.990 . S
N721 C720 1.314 . S
N721 C723 1.279 . S
C722 C723 1.358 . S
C722 C724 1.356 . S
C722 H776 0.930 . S
C723 N721 1.279 . S
C723 C722 1.358 . S
C723 H727 0.930 . S
C724 C722 1.356 . S
C724 C725 1.348 . S
C725 C720 1.353 . S
C725 C724 1.348 . S
C725 H777 0.929 . S
H726 C720 0.930 . S
H727 C723 0.930 . S
C728 N729 1.314 . S
C728 C730 1.353 . S
C728 H734 0.930 . S
N729 Li705 1.990 . S
N729 C728 1.314 . S
N729 C732 1.279 . S
C730 C728 1.353 . S
C730 C733 1.348 . S
C730 H778 0.929 . S
C731 C732 1.358 . S
C731 C733 1.356 . S
C731 H779 0.930 . S
C732 N729 1.279 . S
C732 C731 1.358 . S
C732 H735 0.930 . S
C733 C730 1.348 . S
C733 C731 1.356 . S
H734 C728 0.930 . S
H735 C732 0.930 . S
C736 C738 1.348 . S
C736 C739 1.356 . S
C736 O766 1.325 . S
N737 C740 1.314 . S
N737 C741 1.279 . S
C738 C736 1.348 . S
C738 C740 1.353 . S
C738 H780 0.929 . S
C739 C736 1.356 . S
C739 C741 1.358 . S
C739 H781 0.930 . S
C740 N737 1.314 . S
C740 C738 1.353 . S
C740 H782 0.930 . S
C741 N737 1.279 . S
C741 C739 1.358 . S
C741 H783 0.930 . S
C742 C743 1.348 . S
C742 C744 1.356 . S
C742 O767 1.325 . S
C743 C742 1.348 . S
C743 C745 1.353 . S
C743 H784 0.929 . S
C744 C742 1.356 . S
C744 C746 1.358 . S
C744 H785 0.930 . S
C745 C743 1.353 . S
C745 N747 1.314 . S
C745 H786 0.930 . S
C746 C744 1.358 . S
C746 N747 1.279 . S
C746 H787 0.930 . S
N747 C745 1.314 . S
N747 C746 1.279 . S
C748 C750 1.353 . S
C748 N751 1.314 . S
C748 H754 0.930 . S
C749 N751 1.279 . S
C749 C752 1.358 . S
C749 H755 0.930 . S
C750 C748 1.353 . S
C750 C753 1.348 . S
C750 H788 0.929 . S
N751 Li706 1.990 . S
N751 C748 1.314 . S
N751 C749 1.279 . S
C752 C749 1.358 . S
C752 C753 1.356 . S
C752 H789 0.930 . S
C753 C750 1.348 . S
C753 C752 1.356 . S
H754 C748 0.930 . S
H755 C749 0.930 . S
C756 N757 1.314 . S
C756 C758 1.353 . S
C756 H762 0.930 . S
N757 Li707 1.990 . S
N757 C756 1.314 . S
N757 C760 1.279 . S
C758 C756 1.353 . S
C758 C761 1.348 . S
C758 H790 0.929 . S
C759 C760 1.358 . S
C759 C761 1.356 . S
C759 H791 0.930 . S
C760 N757 1.279 . S
C760 C759 1.358 . S
C760 H763 0.930 . S
C761 C758 1.348 . S
C761 C759 1.356 . S
H762 C756 0.930 . S
H763 C760 0.930 . S
O764 Li704 1.956 . S
O764 Li705 1.970 . S
O764 Li706 1.961 . S
O764 C708 1.325 . S
O765 Li704 1.970 . S
O765 Li705 1.956 . S
O765 Li707 1.961 . S
O765 C714 1.325 . S
O766 Li704 1.961 . S
O766 Li706 1.956 . S
O766 Li707 1.970 . S
O766 C736 1.325 . S
O767 Li705 1.961 . S
O767 Li706 1.970 . S
O767 Li707 1.956 . S
O767 C742 1.325 . S
H768 C710 0.929 . S
H769 C711 0.930 . S
H770 C712 0.930 . S
H771 C713 0.930 . S
H772 C715 0.930 . S
H773 C717 0.929 . S
H774 C718 0.930 . S
H775 C719 0.930 . S
H776 C722 0.930 . S
H777 C725 0.929 . S
H778 C730 0.929 . S
H779 C731 0.930 . S
H780 C738 0.929 . S
H781 C739 0.930 . S
H782 C740 0.930 . S
H783 C741 0.930 . S
H784 C743 0.929 . S
H785 C744 0.930 . S
H786 C745 0.930 . S
H787 C746 0.930 . S
H788 C750 0.929 . S
H789 C752 0.930 . S
H790 C758 0.929 . S
H791 C759 0.930 . S
Li792 N809 1.990 . S
Li792 O852 1.956 . S
Li792 O853 1.970 . S
Li792 O854 1.961 . S
Li793 N817 1.990 . S
Li793 O852 1.970 . S
Li793 O853 1.956 . S
Li793 O855 1.961 . S
Li794 N839 1.990 . S
Li794 O852 1.961 . S
Li794 O854 1.956 . S
Li794 O855 1.970 . S
Li795 N845 1.990 . S
Li795 O853 1.961 . S
Li795 O854 1.970 . S
Li795 O855 1.956 . S
C796 C798 1.348 . S
C796 C799 1.356 . S
C796 O852 1.325 . S
N797 C800 1.314 . S
N797 C801 1.279 . S
C798 C796 1.348 . S
C798 C800 1.353 . S
C798 H856 0.929 . S
C799 C796 1.356 . S
C799 C801 1.358 . S
C799 H857 0.930 . S
C800 N797 1.314 . S
C800 C798 1.353 . S
C800 H858 0.930 . S
C801 N797 1.279 . S
C801 C799 1.358 . S
C801 H859 0.930 . S
C802 C805 1.348 . S
C802 C806 1.356 . S
C802 O853 1.325 . S
C803 N804 1.279 . S
C803 C806 1.358 . S
C803 H860 0.930 . S
N804 C803 1.279 . S
N804 C807 1.314 . S
C805 C802 1.348 . S
C805 C807 1.353 . S
C805 H861 0.929 . S
C806 C802 1.356 . S
C806 C803 1.358 . S
C806 H862 0.930 . S
C807 N804 1.314 . S
C807 C805 1.353 . S
C807 H863 0.930 . S
C808 N809 1.314 . S
C808 C813 1.353 . S
C808 H814 0.930 . S
N809 Li792 1.990 . S
N809 C808 1.314 . S
N809 C811 1.279 . S
C810 C811 1.358 . S
C810 C812 1.356 . S
C810 H864 0.930 . S
C811 N809 1.279 . S
C811 C810 1.358 . S
C811 H815 0.930 . S
C812 C810 1.356 . S
C812 C813 1.348 . S
C813 C808 1.353 . S
C813 C812 1.348 . S
C813 H865 0.929 . S
H814 C808 0.930 . S
H815 C811 0.930 . S
C816 N817 1.314 . S
C816 C818 1.353 . S
C816 H822 0.930 . S
N817 Li793 1.990 . S
N817 C816 1.314 . S
N817 C820 1.279 . S
C818 C816 1.353 . S
C818 C821 1.348 . S
C818 H866 0.929 . S
C819 C820 1.358 . S
C819 C821 1.356 . S
C819 H867 0.930 . S
C820 N817 1.279 . S
C820 C819 1.358 . S
C820 H823 0.930 . S
C821 C818 1.348 . S
C821 C819 1.356 . S
H822 C816 0.930 . S
H823 C820 0.930 . S
C824 C826 1.348 . S
C824 C827 1.356 . S
C824 O854 1.325 . S
N825 C828 1.314 . S
N825 C829 1.279 . S
C826 C824 1.348 . S
C826 C828 1.353 . S
C826 H868 0.929 . S
C827 C824 1.356 . S
C827 C829 1.358 . S
C827 H869 0.930 . S
C828 N825 1.314 . S
C828 C826 1.353 . S
C828 H870 0.930 . S
C829 N825 1.279 . S
C829 C827 1.358 . S
C829 H871 0.930 . S
C830 C831 1.348 . S
C830 C832 1.356 . S
C830 O855 1.325 . S
C831 C830 1.348 . S
C831 C833 1.353 . S
C831 H872 0.929 . S
C832 C830 1.356 . S
C832 C834 1.358 . S
C832 H873 0.930 . S
C833 C831 1.353 . S
C833 N835 1.314 . S
C833 H874 0.930 . S
C834 C832 1.358 . S
C834 N835 1.279 . S
C834 H875 0.930 . S
N835 C833 1.314 . S
N835 C834 1.279 . S
C836 C838 1.353 . S
C836 N839 1.314 . S
C836 H842 0.930 . S
C837 N839 1.279 . S
C837 C840 1.358 . S
C837 H843 0.930 . S
C838 C836 1.353 . S
C838 C841 1.348 . S
C838 H876 0.929 . S
N839 Li794 1.990 . S
N839 C836 1.314 . S
N839 C837 1.279 . S
C840 C837 1.358 . S
C840 C841 1.356 . S
C840 H877 0.930 . S
C841 C838 1.348 . S
C841 C840 1.356 . S
H842 C836 0.930 . S
H843 C837 0.930 . S
C844 N845 1.314 . S
C844 C846 1.353 . S
C844 H850 0.930 . S
N845 Li795 1.990 . S
N845 C844 1.314 . S
N845 C848 1.279 . S
C846 C844 1.353 . S
C846 C849 1.348 . S
C846 H878 0.929 . S
C847 C848 1.358 . S
C847 C849 1.356 . S
C847 H879 0.930 . S
C848 N845 1.279 . S
C848 C847 1.358 . S
C848 H851 0.930 . S
C849 C846 1.348 . S
C849 C847 1.356 . S
H850 C844 0.930 . S
H851 C848 0.930 . S
O852 Li792 1.956 . S
O852 Li793 1.970 . S
O852 Li794 1.961 . S
O852 C796 1.325 . S
O853 Li792 1.970 . S
O853 Li793 1.956 . S
O853 Li795 1.961 . S
O853 C802 1.325 . S
O854 Li792 1.961 . S
O854 Li794 1.956 . S
O854 Li795 1.970 . S
O854 C824 1.325 . S
O855 Li793 1.961 . S
O855 Li794 1.970 . S
O855 Li795 1.956 . S
O855 C830 1.325 . S
H856 C798 0.929 . S
H857 C799 0.930 . S
H858 C800 0.930 . S
H859 C801 0.930 . S
H860 C803 0.930 . S
H861 C805 0.929 . S
H862 C806 0.930 . S
H863 C807 0.930 . S
H864 C810 0.930 . S
H865 C813 0.929 . S
H866 C818 0.929 . S
H867 C819 0.930 . S
H868 C826 0.929 . S
H869 C827 0.930 . S
H870 C828 0.930 . S
H871 C829 0.930 . S
H872 C831 0.929 . S
H873 C832 0.930 . S
H874 C833 0.930 . S
H875 C834 0.930 . S
H876 C838 0.929 . S
H877 C840 0.930 . S
H878 C846 0.929 . S
H879 C847 0.930 . S
Li880 N897 1.990 . S
Li880 O940 1.956 . S
Li880 O941 1.970 . S
Li880 O942 1.961 . S
Li881 N905 1.990 . S
Li881 O940 1.970 . S
Li881 O941 1.956 . S
Li881 O943 1.961 . S
Li882 N927 1.990 . S
Li882 O940 1.961 . S
Li882 O942 1.956 . S
Li882 O943 1.970 . S
Li883 N933 1.990 . S
Li883 O941 1.961 . S
Li883 O942 1.970 . S
Li883 O943 1.956 . S
C884 C886 1.348 . S
C884 C887 1.356 . S
C884 O940 1.325 . S
N885 C888 1.314 . S
N885 C889 1.279 . S
C886 C884 1.348 . S
C886 C888 1.353 . S
C886 H944 0.929 . S
C887 C884 1.356 . S
C887 C889 1.358 . S
C887 H945 0.930 . S
C888 N885 1.314 . S
C888 C886 1.353 . S
C888 H946 0.930 . S
C889 N885 1.279 . S
C889 C887 1.358 . S
C889 H947 0.930 . S
C890 C893 1.348 . S
C890 C894 1.356 . S
C890 O941 1.325 . S
C891 N892 1.279 . S
C891 C894 1.358 . S
C891 H948 0.930 . S
N892 C891 1.279 . S
N892 C895 1.314 . S
C893 C890 1.348 . S
C893 C895 1.353 . S
C893 H949 0.929 . S
C894 C890 1.356 . S
C894 C891 1.358 . S
C894 H950 0.930 . S
C895 N892 1.314 . S
C895 C893 1.353 . S
C895 H951 0.930 . S
C896 N897 1.314 . S
C896 C901 1.353 . S
C896 H902 0.930 . S
N897 Li880 1.990 . S
N897 C896 1.314 . S
N897 C899 1.279 . S
C898 C899 1.358 . S
C898 C900 1.356 . S
C898 H952 0.930 . S
C899 N897 1.279 . S
C899 C898 1.358 . S
C899 H903 0.930 . S
C900 C898 1.356 . S
C900 C901 1.348 . S
C901 C896 1.353 . S
C901 C900 1.348 . S
C901 H953 0.929 . S
H902 C896 0.930 . S
H903 C899 0.930 . S
C904 N905 1.314 . S
C904 C906 1.353 . S
C904 H910 0.930 . S
N905 Li881 1.990 . S
N905 C904 1.314 . S
N905 C908 1.279 . S
C906 C904 1.353 . S
C906 C909 1.348 . S
C906 H954 0.929 . S
C907 C908 1.358 . S
C907 C909 1.356 . S
C907 H955 0.930 . S
C908 N905 1.279 . S
C908 C907 1.358 . S
C908 H911 0.930 . S
C909 C906 1.348 . S
C909 C907 1.356 . S
H910 C904 0.930 . S
H911 C908 0.930 . S
C912 C914 1.348 . S
C912 C915 1.356 . S
C912 O942 1.325 . S
N913 C916 1.314 . S
N913 C917 1.279 . S
C914 C912 1.348 . S
C914 C916 1.353 . S
C914 H956 0.929 . S
C915 C912 1.356 . S
C915 C917 1.358 . S
C915 H957 0.930 . S
C916 N913 1.314 . S
C916 C914 1.353 . S
C916 H958 0.930 . S
C917 N913 1.279 . S
C917 C915 1.358 . S
C917 H959 0.930 . S
C918 C919 1.348 . S
C918 C920 1.356 . S
C918 O943 1.325 . S
C919 C918 1.348 . S
C919 C921 1.353 . S
C919 H960 0.929 . S
C920 C918 1.356 . S
C920 C922 1.358 . S
C920 H961 0.930 . S
C921 C919 1.353 . S
C921 N923 1.314 . S
C921 H962 0.930 . S
C922 C920 1.358 . S
C922 N923 1.279 . S
C922 H963 0.930 . S
N923 C921 1.314 . S
N923 C922 1.279 . S
C924 C926 1.353 . S
C924 N927 1.314 . S
C924 H930 0.930 . S
C925 N927 1.279 . S
C925 C928 1.358 . S
C925 H931 0.930 . S
C926 C924 1.353 . S
C926 C929 1.348 . S
C926 H964 0.929 . S
N927 Li882 1.990 . S
N927 C924 1.314 . S
N927 C925 1.279 . S
C928 C925 1.358 . S
C928 C929 1.356 . S
C928 H965 0.930 . S
C929 C926 1.348 . S
C929 C928 1.356 . S
H930 C924 0.930 . S
H931 C925 0.930 . S
C932 N933 1.314 . S
C932 C934 1.353 . S
C932 H938 0.930 . S
N933 Li883 1.990 . S
N933 C932 1.314 . S
N933 C936 1.279 . S
C934 C932 1.353 . S
C934 C937 1.348 . S
C934 H966 0.929 . S
C935 C936 1.358 . S
C935 C937 1.356 . S
C935 H967 0.930 . S
C936 N933 1.279 . S
C936 C935 1.358 . S
C936 H939 0.930 . S
C937 C934 1.348 . S
C937 C935 1.356 . S
H938 C932 0.930 . S
H939 C936 0.930 . S
O940 Li880 1.956 . S
O940 Li881 1.970 . S
O940 Li882 1.961 . S
O940 C884 1.325 . S
O941 Li880 1.970 . S
O941 Li881 1.956 . S
O941 Li883 1.961 . S
O941 C890 1.325 . S
O942 Li880 1.961 . S
O942 Li882 1.956 . S
O942 Li883 1.970 . S
O942 C912 1.325 . S
O943 Li881 1.961 . S
O943 Li882 1.970 . S
O943 Li883 1.956 . S
O943 C918 1.325 . S
H944 C886 0.929 . S
H945 C887 0.930 . S
H946 C888 0.930 . S
H947 C889 0.930 . S
H948 C891 0.930 . S
H949 C893 0.929 . S
H950 C894 0.930 . S
H951 C895 0.930 . S
H952 C898 0.930 . S
H953 C901 0.929 . S
H954 C906 0.929 . S
H955 C907 0.930 . S
H956 C914 0.929 . S
H957 C915 0.930 . S
H958 C916 0.930 . S
H959 C917 0.930 . S
H960 C919 0.929 . S
H961 C920 0.930 . S
H962 C921 0.930 . S
H963 C922 0.930 . S
H964 C926 0.929 . S
H965 C928 0.930 . S
H966 C934 0.929 . S
H967 C935 0.930 . S
Li968 N985 1.990 . S
Li968 O1028 1.956 . S
Li968 O1029 1.970 . S
Li968 O1030 1.961 . S
Li969 N993 1.990 . S
Li969 O1028 1.970 . S
Li969 O1029 1.956 . S
Li969 O1031 1.961 . S
Li970 N1015 1.990 . S
Li970 O1028 1.961 . S
Li970 O1030 1.956 . S
Li970 O1031 1.970 . S
Li971 N1021 1.990 . S
Li971 O1029 1.961 . S
Li971 O1030 1.970 . S
Li971 O1031 1.956 . S
C972 C974 1.348 . S
C972 C975 1.356 . S
C972 O1028 1.325 . S
N973 C976 1.314 . S
N973 C977 1.279 . S
C974 C972 1.348 . S
C974 C976 1.353 . S
C974 H1032 0.929 . S
C975 C972 1.356 . S
C975 C977 1.358 . S
C975 H1033 0.930 . S
C976 N973 1.314 . S
C976 C974 1.353 . S
C976 H1034 0.930 . S
C977 N973 1.279 . S
C977 C975 1.358 . S
C977 H1035 0.930 . S
C978 C981 1.348 . S
C978 C982 1.356 . S
C978 O1029 1.325 . S
C979 N980 1.279 . S
C979 C982 1.358 . S
C979 H1036 0.930 . S
N980 C979 1.279 . S
N980 C983 1.314 . S
C981 C978 1.348 . S
C981 C983 1.353 . S
C981 H1037 0.929 . S
C982 C978 1.356 . S
C982 C979 1.358 . S
C982 H1038 0.930 . S
C983 N980 1.314 . S
C983 C981 1.353 . S
C983 H1039 0.930 . S
C984 N985 1.314 . S
C984 C989 1.353 . S
C984 H990 0.930 . S
N985 Li968 1.990 . S
N985 C984 1.314 . S
N985 C987 1.279 . S
C986 C987 1.358 . S
C986 C988 1.356 . S
C986 H1040 0.930 . S
C987 N985 1.279 . S
C987 C986 1.358 . S
C987 H991 0.930 . S
C988 C986 1.356 . S
C988 C989 1.348 . S
C989 C984 1.353 . S
C989 C988 1.348 . S
C989 H1041 0.929 . S
H990 C984 0.930 . S
H991 C987 0.930 . S
C992 N993 1.314 . S
C992 C994 1.353 . S
C992 H998 0.930 . S
N993 Li969 1.990 . S
N993 C992 1.314 . S
N993 C996 1.279 . S
C994 C992 1.353 . S
C994 C997 1.348 . S
C994 H1042 0.929 . S
C995 C996 1.358 . S
C995 C997 1.356 . S
C995 H1043 0.930 . S
C996 N993 1.279 . S
C996 C995 1.358 . S
C996 H999 0.930 . S
C997 C994 1.348 . S
C997 C995 1.356 . S
H998 C992 0.930 . S
H999 C996 0.930 . S
C1000 C1002 1.348 . S
C1000 C1003 1.356 . S
C1000 O1030 1.325 . S
N1001 C1004 1.314 . S
N1001 C1005 1.279 . S
C1002 C1000 1.348 . S
C1002 C1004 1.353 . S
C1002 H1044 0.929 . S
C1003 C1000 1.356 . S
C1003 C1005 1.358 . S
C1003 H1045 0.930 . S
C1004 N1001 1.314 . S
C1004 C1002 1.353 . S
C1004 H1046 0.930 . S
C1005 N1001 1.279 . S
C1005 C1003 1.358 . S
C1005 H1047 0.930 . S
C1006 C1007 1.348 . S
C1006 C1008 1.356 . S
C1006 O1031 1.325 . S
C1007 C1006 1.348 . S
C1007 C1009 1.353 . S
C1007 H1048 0.929 . S
C1008 C1006 1.356 . S
C1008 C1010 1.358 . S
C1008 H1049 0.930 . S
C1009 C1007 1.353 . S
C1009 N1011 1.314 . S
C1009 H1050 0.930 . S
C1010 C1008 1.358 . S
C1010 N1011 1.279 . S
C1010 H1051 0.930 . S
N1011 C1009 1.314 . S
N1011 C1010 1.279 . S
C1012 C1014 1.353 . S
C1012 N1015 1.314 . S
C1012 H1018 0.930 . S
C1013 N1015 1.279 . S
C1013 C1016 1.358 . S
C1013 H1019 0.930 . S
C1014 C1012 1.353 . S
C1014 C1017 1.348 . S
C1014 H1052 0.929 . S
N1015 Li970 1.990 . S
N1015 C1012 1.314 . S
N1015 C1013 1.279 . S
C1016 C1013 1.358 . S
C1016 C1017 1.356 . S
C1016 H1053 0.930 . S
C1017 C1014 1.348 . S
C1017 C1016 1.356 . S
H1018 C1012 0.930 . S
H1019 C1013 0.930 . S
C1020 N1021 1.314 . S
C1020 C1022 1.353 . S
C1020 H1026 0.930 . S
N1021 Li971 1.990 . S
N1021 C1020 1.314 . S
N1021 C1024 1.279 . S
C1022 C1020 1.353 . S
C1022 C1025 1.348 . S
C1022 H1054 0.929 . S
C1023 C1024 1.358 . S
C1023 C1025 1.356 . S
C1023 H1055 0.930 . S
C1024 N1021 1.279 . S
C1024 C1023 1.358 . S
C1024 H1027 0.930 . S
C1025 C1022 1.348 . S
C1025 C1023 1.356 . S
H1026 C1020 0.930 . S
H1027 C1024 0.930 . S
O1028 Li968 1.956 . S
O1028 Li969 1.970 . S
O1028 Li970 1.961 . S
O1028 C972 1.325 . S
O1029 Li968 1.970 . S
O1029 Li969 1.956 . S
O1029 Li971 1.961 . S
O1029 C978 1.325 . S
O1030 Li968 1.961 . S
O1030 Li970 1.956 . S
O1030 Li971 1.970 . S
O1030 C1000 1.325 . S
O1031 Li969 1.961 . S
O1031 Li970 1.970 . S
O1031 Li971 1.956 . S
O1031 C1006 1.325 . S
H1032 C974 0.929 . S
H1033 C975 0.930 . S
H1034 C976 0.930 . S
H1035 C977 0.930 . S
H1036 C979 0.930 . S
H1037 C981 0.929 . S
H1038 C982 0.930 . S
H1039 C983 0.930 . S
H1040 C986 0.930 . S
H1041 C989 0.929 . S
H1042 C994 0.929 . S
H1043 C995 0.930 . S
H1044 C1002 0.929 . S
H1045 C1003 0.930 . S
H1046 C1004 0.930 . S
H1047 C1005 0.930 . S
H1048 C1007 0.929 . S
H1049 C1008 0.930 . S
H1050 C1009 0.930 . S
H1051 C1010 0.930 . S
H1052 C1014 0.929 . S
H1053 C1016 0.930 . S
H1054 C1022 0.929 . S
H1055 C1023 0.930 . S
Li1056 N1073 1.990 . S
Li1056 O1116 1.956 . S
Li1056 O1117 1.970 . S
Li1056 O1118 1.961 . S
Li1057 N1081 1.990 . S
Li1057 O1116 1.970 . S
Li1057 O1117 1.956 . S
Li1057 O1119 1.961 . S
Li1058 N1103 1.990 . S
Li1058 O1116 1.961 . S
Li1058 O1118 1.956 . S
Li1058 O1119 1.970 . S
Li1059 N1109 1.990 . S
Li1059 O1117 1.961 . S
Li1059 O1118 1.970 . S
Li1059 O1119 1.956 . S
C1060 C1062 1.348 . S
C1060 C1063 1.356 . S
C1060 O1116 1.325 . S
N1061 C1064 1.314 . S
N1061 C1065 1.279 . S
C1062 C1060 1.348 . S
C1062 C1064 1.353 . S
C1062 H1120 0.929 . S
C1063 C1060 1.356 . S
C1063 C1065 1.358 . S
C1063 H1121 0.930 . S
C1064 N1061 1.314 . S
C1064 C1062 1.353 . S
C1064 H1122 0.930 . S
C1065 N1061 1.279 . S
C1065 C1063 1.358 . S
C1065 H1123 0.930 . S
C1066 C1069 1.348 . S
C1066 C1070 1.356 . S
C1066 O1117 1.325 . S
C1067 N1068 1.279 . S
C1067 C1070 1.358 . S
C1067 H1124 0.930 . S
N1068 C1067 1.279 . S
N1068 C1071 1.314 . S
C1069 C1066 1.348 . S
C1069 C1071 1.353 . S
C1069 H1125 0.929 . S
C1070 C1066 1.356 . S
C1070 C1067 1.358 . S
C1070 H1126 0.930 . S
C1071 N1068 1.314 . S
C1071 C1069 1.353 . S
C1071 H1127 0.930 . S
C1072 N1073 1.314 . S
C1072 C1077 1.353 . S
C1072 H1078 0.930 . S
N1073 Li1056 1.990 . S
N1073 C1072 1.314 . S
N1073 C1075 1.279 . S
C1074 C1075 1.358 . S
C1074 C1076 1.356 . S
C1074 H1128 0.930 . S
C1075 N1073 1.279 . S
C1075 C1074 1.358 . S
C1075 H1079 0.930 . S
C1076 C1074 1.356 . S
C1076 C1077 1.348 . S
C1077 C1072 1.353 . S
C1077 C1076 1.348 . S
C1077 H1129 0.929 . S
H1078 C1072 0.930 . S
H1079 C1075 0.930 . S
C1080 N1081 1.314 . S
C1080 C1082 1.353 . S
C1080 H1086 0.930 . S
N1081 Li1057 1.990 . S
N1081 C1080 1.314 . S
N1081 C1084 1.279 . S
C1082 C1080 1.353 . S
C1082 C1085 1.348 . S
C1082 H1130 0.929 . S
C1083 C1084 1.358 . S
C1083 C1085 1.356 . S
C1083 H1131 0.930 . S
C1084 N1081 1.279 . S
C1084 C1083 1.358 . S
C1084 H1087 0.930 . S
C1085 C1082 1.348 . S
C1085 C1083 1.356 . S
H1086 C1080 0.930 . S
H1087 C1084 0.930 . S
C1088 C1090 1.348 . S
C1088 C1091 1.356 . S
C1088 O1118 1.325 . S
N1089 C1092 1.314 . S
N1089 C1093 1.279 . S
C1090 C1088 1.348 . S
C1090 C1092 1.353 . S
C1090 H1132 0.929 . S
C1091 C1088 1.356 . S
C1091 C1093 1.358 . S
C1091 H1133 0.930 . S
C1092 N1089 1.314 . S
C1092 C1090 1.353 . S
C1092 H1134 0.930 . S
C1093 N1089 1.279 . S
C1093 C1091 1.358 . S
C1093 H1135 0.930 . S
C1094 C1095 1.348 . S
C1094 C1096 1.356 . S
C1094 O1119 1.325 . S
C1095 C1094 1.348 . S
C1095 C1097 1.353 . S
C1095 H1136 0.929 . S
C1096 C1094 1.356 . S
C1096 C1098 1.358 . S
C1096 H1137 0.930 . S
C1097 C1095 1.353 . S
C1097 N1099 1.314 . S
C1097 H1138 0.930 . S
C1098 C1096 1.358 . S
C1098 N1099 1.279 . S
C1098 H1139 0.930 . S
N1099 C1097 1.314 . S
N1099 C1098 1.279 . S
C1100 C1102 1.353 . S
C1100 N1103 1.314 . S
C1100 H1106 0.930 . S
C1101 N1103 1.279 . S
C1101 C1104 1.358 . S
C1101 H1107 0.930 . S
C1102 C1100 1.353 . S
C1102 C1105 1.348 . S
C1102 H1140 0.929 . S
N1103 Li1058 1.990 . S
N1103 C1100 1.314 . S
N1103 C1101 1.279 . S
C1104 C1101 1.358 . S
C1104 C1105 1.356 . S
C1104 H1141 0.930 . S
C1105 C1102 1.348 . S
C1105 C1104 1.356 . S
H1106 C1100 0.930 . S
H1107 C1101 0.930 . S
C1108 N1109 1.314 . S
C1108 C1110 1.353 . S
C1108 H1114 0.930 . S
N1109 Li1059 1.990 . S
N1109 C1108 1.314 . S
N1109 C1112 1.279 . S
C1110 C1108 1.353 . S
C1110 C1113 1.348 . S
C1110 H1142 0.929 . S
C1111 C1112 1.358 . S
C1111 C1113 1.356 . S
C1111 H1143 0.930 . S
C1112 N1109 1.279 . S
C1112 C1111 1.358 . S
C1112 H1115 0.930 . S
C1113 C1110 1.348 . S
C1113 C1111 1.356 . S
H1114 C1108 0.930 . S
H1115 C1112 0.930 . S
O1116 Li1056 1.956 . S
O1116 Li1057 1.970 . S
O1116 Li1058 1.961 . S
O1116 C1060 1.325 . S
O1117 Li1056 1.970 . S
O1117 Li1057 1.956 . S
O1117 Li1059 1.961 . S
O1117 C1066 1.325 . S
O1118 Li1056 1.961 . S
O1118 Li1058 1.956 . S
O1118 Li1059 1.970 . S
O1118 C1088 1.325 . S
O1119 Li1057 1.961 . S
O1119 Li1058 1.970 . S
O1119 Li1059 1.956 . S
O1119 C1094 1.325 . S
H1120 C1062 0.929 . S
H1121 C1063 0.930 . S
H1122 C1064 0.930 . S
H1123 C1065 0.930 . S
H1124 C1067 0.930 . S
H1125 C1069 0.929 . S
H1126 C1070 0.930 . S
H1127 C1071 0.930 . S
H1128 C1074 0.930 . S
H1129 C1077 0.929 . S
H1130 C1082 0.929 . S
H1131 C1083 0.930 . S
H1132 C1090 0.929 . S
H1133 C1091 0.930 . S
H1134 C1092 0.930 . S
H1135 C1093 0.930 . S
H1136 C1095 0.929 . S
H1137 C1096 0.930 . S
H1138 C1097 0.930 . S
H1139 C1098 0.930 . S
H1140 C1102 0.929 . S
H1141 C1104 0.930 . S
H1142 C1110 0.929 . S
H1143 C1111 0.930 . S
Li1144 N1161 1.990 . S
Li1144 O1204 1.956 1_655 S
Li1144 O1205 1.970 1_655 S
Li1144 O1206 1.961 . S
Li1145 N1169 1.990 . S
Li1145 O1204 1.970 . S
Li1145 O1205 1.956 . S
Li1145 O1207 1.961 . S
Li1146 N1191 1.990 . S
Li1146 O1204 1.961 . S
Li1146 O1206 1.956 1_455 S
Li1146 O1207 1.970 . S
Li1147 N1197 1.990 . S
Li1147 O1205 1.961 . S
Li1147 O1206 1.970 1_455 S
Li1147 O1207 1.956 . S
C1148 C1150 1.348 . S
C1148 C1151 1.356 1_455 S
C1148 O1204 1.325 . S
N1149 C1152 1.314 . S
N1149 C1153 1.279 1_455 S
C1150 C1148 1.348 . S
C1150 C1152 1.353 . S
C1150 H1208 0.929 . S
C1151 C1148 1.356 1_655 S
C1151 C1153 1.358 . S
C1151 H1209 0.930 . S
C1152 N1149 1.314 . S
C1152 C1150 1.353 . S
C1152 H1210 0.930 . S
C1153 N1149 1.279 1_655 S
C1153 C1151 1.358 . S
C1153 H1211 0.930 . S
C1154 C1157 1.348 1_455 S
C1154 C1158 1.356 . S
C1154 O1205 1.325 . S
C1155 N1156 1.279 . S
C1155 C1158 1.358 . S
C1155 H1212 0.930 . S
N1156 C1155 1.279 . S
N1156 C1159 1.316 1_455 S
C1157 C1154 1.348 1_655 S
C1157 C1159 1.353 . S
C1157 H1213 0.929 . S
C1158 C1154 1.356 . S
C1158 C1155 1.358 . S
C1158 H1214 0.930 . S
C1159 N1156 1.316 1_655 S
C1159 C1157 1.353 . S
C1159 H1215 0.928 . S
C1160 N1161 1.314 . S
C1160 C1165 1.353 . S
C1160 H1166 0.930 . S
N1161 Li1144 1.990 . S
N1161 C1160 1.314 . S
N1161 C1163 1.279 . S
C1162 C1163 1.358 . S
C1162 C1164 1.356 . S
C1162 H1216 0.930 . S
C1163 N1161 1.279 . S
C1163 C1162 1.358 . S
C1163 H1167 0.930 . S
C1164 C1162 1.356 . S
C1164 C1165 1.348 . S
C1165 C1160 1.353 . S
C1165 C1164 1.348 . S
C1165 H1217 0.929 . S
H1166 C1160 0.930 . S
H1167 C1163 0.930 . S
C1168 N1169 1.314 . S
C1168 C1170 1.353 . S
C1168 H1174 0.930 . S
N1169 Li1145 1.990 . S
N1169 C1168 1.314 . S
N1169 C1172 1.279 . S
C1170 C1168 1.353 . S
C1170 C1173 1.348 . S
C1170 H1218 0.929 . S
C1171 C1172 1.358 . S
C1171 C1173 1.356 . S
C1171 H1219 0.930 . S
C1172 N1169 1.279 . S
C1172 C1171 1.358 . S
C1172 H1175 0.930 . S
C1173 C1170 1.348 . S
C1173 C1171 1.356 . S
H1174 C1168 0.930 . S
H1175 C1172 0.930 . S
C1176 C1178 1.348 . S
C1176 C1179 1.356 . S
C1176 O1206 1.325 . S
N1177 C1180 1.314 . S
N1177 C1181 1.279 . S
C1178 C1176 1.348 . S
C1178 C1180 1.353 . S
C1178 H1220 0.929 . S
C1179 C1176 1.356 . S
C1179 C1181 1.358 . S
C1179 H1221 0.930 . S
C1180 N1177 1.314 . S
C1180 C1178 1.353 . S
C1180 H1222 0.930 . S
C1181 N1177 1.279 . S
C1181 C1179 1.358 . S
C1181 H1223 0.930 . S
C1182 C1183 1.348 . S
C1182 C1184 1.356 . S
C1182 O1207 1.325 . S
C1183 C1182 1.348 . S
C1183 C1185 1.353 . S
C1183 H1224 0.929 . S
C1184 C1182 1.356 . S
C1184 C1186 1.358 . S
C1184 H1225 0.930 . S
C1185 C1183 1.353 . S
C1185 N1187 1.314 . S
C1185 H1226 0.930 . S
C1186 C1184 1.358 . S
C1186 N1187 1.279 . S
C1186 H1227 0.930 . S
N1187 C1185 1.314 . S
N1187 C1186 1.279 . S
C1188 C1190 1.353 . S
C1188 N1191 1.314 . S
C1188 H1194 0.930 . S
C1189 N1191 1.279 1_655 S
C1189 C1192 1.358 . S
C1189 H1195 0.930 . S
C1190 C1188 1.353 . S
C1190 C1193 1.348 . S
C1190 H1228 0.929 . S
N1191 Li1146 1.990 . S
N1191 C1188 1.314 . S
N1191 C1189 1.279 1_455 S
C1192 C1189 1.358 . S
C1192 C1193 1.356 1_655 S
C1192 H1229 0.930 . S
C1193 C1190 1.348 . S
C1193 C1192 1.356 1_455 S
H1194 C1188 0.930 . S
H1195 C1189 0.930 . S
C1196 N1197 1.317 . S
C1196 C1198 1.353 1_455 S
C1196 H1202 0.927 1_455 S
N1197 Li1147 1.990 . S
N1197 C1196 1.317 . S
N1197 C1200 1.279 . S
C1198 C1196 1.353 1_655 S
C1198 C1201 1.348 1_655 S
C1198 H1230 0.929 . S
C1199 C1200 1.358 . S
C1199 C1201 1.356 . S
C1199 H1231 0.930 . S
C1200 N1197 1.279 . S
C1200 C1199 1.358 . S
C1200 H1203 0.930 . S
C1201 C1198 1.348 1_455 S
C1201 C1199 1.356 . S
H1202 C1196 0.927 1_655 S
H1203 C1200 0.930 . S
O1204 Li1144 1.956 1_455 S
O1204 Li1145 1.970 . S
O1204 Li1146 1.961 . S
O1204 C1148 1.325 . S
O1205 Li1144 1.970 1_455 S
O1205 Li1145 1.956 . S
O1205 Li1147 1.961 . S
O1205 C1154 1.325 . S
O1206 Li1144 1.961 . S
O1206 Li1146 1.956 1_655 S
O1206 Li1147 1.970 1_655 S
O1206 C1176 1.325 . S
O1207 Li1145 1.961 . S
O1207 Li1146 1.970 . S
O1207 Li1147 1.956 . S
O1207 C1182 1.325 . S
H1208 C1150 0.929 . S
H1209 C1151 0.930 . S
H1210 C1152 0.930 . S
H1211 C1153 0.930 . S
H1212 C1155 0.930 . S
H1213 C1157 0.929 . S
H1214 C1158 0.930 . S
H1215 C1159 0.928 . S
H1216 C1162 0.930 . S
H1217 C1165 0.929 . S
H1218 C1170 0.929 . S
H1219 C1171 0.930 . S
H1220 C1178 0.929 . S
H1221 C1179 0.930 . S
H1222 C1180 0.930 . S
H1223 C1181 0.930 . S
H1224 C1183 0.929 . S
H1225 C1184 0.930 . S
H1226 C1185 0.930 . S
H1227 C1186 0.930 . S
H1228 C1190 0.929 . S
H1229 C1192 0.930 . S
H1230 C1198 0.929 . S
H1231 C1199 0.930 . S
Li1232 N1249 1.990 . S
Li1232 O1292 1.956 . S
Li1232 O1293 1.970 . S
Li1232 O1294 1.961 . S
Li1233 N1257 1.990 . S
Li1233 O1292 1.970 . S
Li1233 O1293 1.956 . S
Li1233 O1295 1.961 . S
Li1234 N1279 1.990 . S
Li1234 O1292 1.961 . S
Li1234 O1294 1.956 . S
Li1234 O1295 1.970 . S
Li1235 N1285 1.990 . S
Li1235 O1293 1.961 . S
Li1235 O1294 1.970 . S
Li1235 O1295 1.956 . S
C1236 C1238 1.348 . S
C1236 C1239 1.356 . S
C1236 O1292 1.325 . S
N1237 C1240 1.314 . S
N1237 C1241 1.279 . S
C1238 C1236 1.348 . S
C1238 C1240 1.353 . S
C1238 H1296 0.929 . S
C1239 C1236 1.356 . S
C1239 C1241 1.358 . S
C1239 H1297 0.930 . S
C1240 N1237 1.314 . S
C1240 C1238 1.353 . S
C1240 H1298 0.930 . S
C1241 N1237 1.279 . S
C1241 C1239 1.358 . S
C1241 H1299 0.930 . S
C1242 C1245 1.348 . S
C1242 C1246 1.356 . S
C1242 O1293 1.325 . S
C1243 N1244 1.279 . S
C1243 C1246 1.358 . S
C1243 H1300 0.930 . S
N1244 C1243 1.279 . S
N1244 C1247 1.314 . S
C1245 C1242 1.348 . S
C1245 C1247 1.353 . S
C1245 H1301 0.929 . S
C1246 C1242 1.356 . S
C1246 C1243 1.358 . S
C1246 H1302 0.930 . S
C1247 N1244 1.314 . S
C1247 C1245 1.353 . S
C1247 H1303 0.930 . S
C1248 N1249 1.314 . S
C1248 C1253 1.353 . S
C1248 H1254 0.930 . S
N1249 Li1232 1.990 . S
N1249 C1248 1.314 . S
N1249 C1251 1.279 . S
C1250 C1251 1.358 . S
C1250 C1252 1.356 . S
C1250 H1304 0.930 . S
C1251 N1249 1.279 . S
C1251 C1250 1.358 . S
C1251 H1255 0.930 . S
C1252 C1250 1.356 . S
C1252 C1253 1.348 . S
C1253 C1248 1.353 . S
C1253 C1252 1.348 . S
C1253 H1305 0.929 . S
H1254 C1248 0.930 . S
H1255 C1251 0.930 . S
C1256 N1257 1.314 . S
C1256 C1258 1.353 . S
C1256 H1262 0.930 . S
N1257 Li1233 1.990 . S
N1257 C1256 1.314 . S
N1257 C1260 1.279 . S
C1258 C1256 1.353 . S
C1258 C1261 1.348 . S
C1258 H1306 0.929 . S
C1259 C1260 1.358 . S
C1259 C1261 1.356 . S
C1259 H1307 0.930 . S
C1260 N1257 1.279 . S
C1260 C1259 1.358 . S
C1260 H1263 0.930 . S
C1261 C1258 1.348 . S
C1261 C1259 1.356 . S
H1262 C1256 0.930 . S
H1263 C1260 0.930 . S
C1264 C1266 1.348 . S
C1264 C1267 1.356 . S
C1264 O1294 1.325 . S
N1265 C1268 1.314 . S
N1265 C1269 1.279 . S
C1266 C1264 1.348 . S
C1266 C1268 1.353 . S
C1266 H1308 0.929 . S
C1267 C1264 1.356 . S
C1267 C1269 1.358 . S
C1267 H1309 0.930 . S
C1268 N1265 1.314 . S
C1268 C1266 1.353 . S
C1268 H1310 0.930 . S
C1269 N1265 1.279 . S
C1269 C1267 1.358 . S
C1269 H1311 0.930 . S
C1270 C1271 1.348 . S
C1270 C1272 1.356 . S
C1270 O1295 1.325 . S
C1271 C1270 1.348 . S
C1271 C1273 1.353 . S
C1271 H1312 0.929 . S
C1272 C1270 1.356 . S
C1272 C1274 1.358 . S
C1272 H1313 0.930 . S
C1273 C1271 1.353 . S
C1273 N1275 1.314 . S
C1273 H1314 0.930 . S
C1274 C1272 1.358 . S
C1274 N1275 1.279 . S
C1274 H1315 0.930 . S
N1275 C1273 1.314 . S
N1275 C1274 1.279 . S
C1276 C1278 1.353 . S
C1276 N1279 1.314 . S
C1276 H1282 0.930 . S
C1277 N1279 1.279 . S
C1277 C1280 1.358 . S
C1277 H1283 0.930 . S
C1278 C1276 1.353 . S
C1278 C1281 1.348 . S
C1278 H1316 0.929 . S
N1279 Li1234 1.990 . S
N1279 C1276 1.314 . S
N1279 C1277 1.279 . S
C1280 C1277 1.358 . S
C1280 C1281 1.356 . S
C1280 H1317 0.930 . S
C1281 C1278 1.348 . S
C1281 C1280 1.356 . S
H1282 C1276 0.930 . S
H1283 C1277 0.930 . S
C1284 N1285 1.314 . S
C1284 C1286 1.353 . S
C1284 H1290 0.930 . S
N1285 Li1235 1.990 . S
N1285 C1284 1.314 . S
N1285 C1288 1.279 . S
C1286 C1284 1.353 . S
C1286 C1289 1.348 . S
C1286 H1318 0.929 . S
C1287 C1288 1.358 . S
C1287 C1289 1.356 . S
C1287 H1319 0.930 . S
C1288 N1285 1.279 . S
C1288 C1287 1.358 . S
C1288 H1291 0.930 . S
C1289 C1286 1.348 . S
C1289 C1287 1.356 . S
H1290 C1284 0.930 . S
H1291 C1288 0.930 . S
O1292 Li1232 1.956 . S
O1292 Li1233 1.970 . S
O1292 Li1234 1.961 . S
O1292 C1236 1.325 . S
O1293 Li1232 1.970 . S
O1293 Li1233 1.956 . S
O1293 Li1235 1.961 . S
O1293 C1242 1.325 . S
O1294 Li1232 1.961 . S
O1294 Li1234 1.956 . S
O1294 Li1235 1.970 . S
O1294 C1264 1.325 . S
O1295 Li1233 1.961 . S
O1295 Li1234 1.970 . S
O1295 Li1235 1.956 . S
O1295 C1270 1.325 . S
H1296 C1238 0.929 . S
H1297 C1239 0.930 . S
H1298 C1240 0.930 . S
H1299 C1241 0.930 . S
H1300 C1243 0.930 . S
H1301 C1245 0.929 . S
H1302 C1246 0.930 . S
H1303 C1247 0.930 . S
H1304 C1250 0.930 . S
H1305 C1253 0.929 . S
H1306 C1258 0.929 . S
H1307 C1259 0.930 . S
H1308 C1266 0.929 . S
H1309 C1267 0.930 . S
H1310 C1268 0.930 . S
H1311 C1269 0.930 . S
H1312 C1271 0.929 . S
H1313 C1272 0.930 . S
H1314 C1273 0.930 . S
H1315 C1274 0.930 . S
H1316 C1278 0.929 . S
H1317 C1280 0.930 . S
H1318 C1286 0.929 . S
H1319 C1287 0.930 . S
Li1320 N1337 1.990 . S
Li1320 O1380 1.956 . S
Li1320 O1381 1.970 1_455 S
Li1320 O1382 1.961 . S
Li1321 N1345 1.990 . S
Li1321 O1380 1.970 . S
Li1321 O1381 1.956 1_455 S
Li1321 O1383 1.961 . S
Li1322 N1367 1.990 . S
Li1322 O1380 1.961 . S
Li1322 O1382 1.956 . S
Li1322 O1383 1.970 . S
Li1323 N1373 1.990 . S
Li1323 O1381 1.961 . S
Li1323 O1382 1.970 1_655 S
Li1323 O1383 1.956 1_655 S
C1324 C1326 1.348 . S
C1324 C1327 1.356 . S
C1324 O1380 1.325 . S
N1325 C1328 1.314 . S
N1325 C1329 1.279 . S
C1326 C1324 1.348 . S
C1326 C1328 1.353 . S
C1326 H1384 0.929 . S
C1327 C1324 1.356 . S
C1327 C1329 1.358 . S
C1327 H1385 0.930 . S
C1328 N1325 1.314 . S
C1328 C1326 1.353 . S
C1328 H1386 0.930 . S
C1329 N1325 1.279 . S
C1329 C1327 1.358 . S
C1329 H1387 0.930 . S
C1330 C1333 1.348 . S
C1330 C1334 1.356 . S
C1330 O1381 1.325 . S
C1331 N1332 1.279 . S
C1331 C1334 1.358 . S
C1331 H1388 0.930 . S
N1332 C1331 1.279 . S
N1332 C1335 1.314 . S
C1333 C1330 1.348 . S
C1333 C1335 1.353 . S
C1333 H1389 0.929 . S
C1334 C1330 1.356 . S
C1334 C1331 1.358 . S
C1334 H1390 0.930 . S
C1335 N1332 1.314 . S
C1335 C1333 1.353 . S
C1335 H1391 0.930 . S
C1336 N1337 1.317 . S
C1336 C1341 1.353 1_455 S
C1336 H1342 0.927 1_455 S
N1337 Li1320 1.990 . S
N1337 C1336 1.317 . S
N1337 C1339 1.279 . S
C1338 C1339 1.358 . S
C1338 C1340 1.356 . S
C1338 H1392 0.930 . S
C1339 N1337 1.279 . S
C1339 C1338 1.358 . S
C1339 H1343 0.930 . S
C1340 C1338 1.356 . S
C1340 C1341 1.348 1_455 S
C1341 C1336 1.353 1_655 S
C1341 C1340 1.348 1_655 S
C1341 H1393 0.929 . S
H1342 C1336 0.927 1_655 S
H1343 C1339 0.930 . S
C1344 N1345 1.314 . S
C1344 C1346 1.353 . S
C1344 H1350 0.930 . S
N1345 Li1321 1.990 . S
N1345 C1344 1.314 . S
N1345 C1348 1.279 1_455 S
C1346 C1344 1.353 . S
C1346 C1349 1.348 . S
C1346 H1394 0.929 . S
C1347 C1348 1.358 . S
C1347 C1349 1.356 1_655 S
C1347 H1395 0.930 . S
C1348 N1345 1.279 1_655 S
C1348 C1347 1.358 . S
C1348 H1351 0.930 . S
C1349 C1346 1.348 . S
C1349 C1347 1.356 1_455 S
H1350 C1344 0.930 . S
H1351 C1348 0.930 . S
C1352 C1354 1.348 1_455 S
C1352 C1355 1.356 . S
C1352 O1382 1.325 . S
N1353 C1356 1.316 1_455 S
N1353 C1357 1.279 . S
C1354 C1352 1.348 1_655 S
C1354 C1356 1.353 . S
C1354 H1396 0.929 . S
C1355 C1352 1.356 . S
C1355 C1357 1.358 . S
C1355 H1397 0.930 . S
C1356 N1353 1.316 1_655 S
C1356 C1354 1.353 . S
C1356 H1398 0.928 . S
C1357 N1353 1.279 . S
C1357 C1355 1.358 . S
C1357 H1399 0.930 . S
C1358 C1359 1.348 . S
C1358 C1360 1.356 1_455 S
C1358 O1383 1.325 . S
C1359 C1358 1.348 . S
C1359 C1361 1.353 . S
C1359 H1400 0.929 . S
C1360 C1358 1.356 1_655 S
C1360 C1362 1.358 . S
C1360 H1401 0.930 . S
C1361 C1359 1.353 . S
C1361 N1363 1.314 . S
C1361 H1402 0.930 . S
C1362 C1360 1.358 . S
C1362 N1363 1.279 1_655 S
C1362 H1403 0.930 . S
N1363 C1361 1.314 . S
N1363 C1362 1.279 1_455 S
C1364 C1366 1.353 . S
C1364 N1367 1.314 . S
C1364 H1370 0.930 . S
C1365 N1367 1.279 . S
C1365 C1368 1.358 . S
C1365 H1371 0.930 . S
C1366 C1364 1.353 . S
C1366 C1369 1.348 . S
C1366 H1404 0.929 . S
N1367 Li1322 1.990 . S
N1367 C1364 1.314 . S
N1367 C1365 1.279 . S
C1368 C1365 1.358 . S
C1368 C1369 1.356 . S
C1368 H1405 0.930 . S
C1369 C1366 1.348 . S
C1369 C1368 1.356 . S
H1370 C1364 0.930 . S
H1371 C1365 0.930 . S
C1372 N1373 1.314 . S
C1372 C1374 1.353 . S
C1372 H1378 0.930 . S
N1373 Li1323 1.990 . S
N1373 C1372 1.314 . S
N1373 C1376 1.279 . S
C1374 C1372 1.353 . S
C1374 C1377 1.348 . S
C1374 H1406 0.929 . S
C1375 C1376 1.358 . S
C1375 C1377 1.356 . S
C1375 H1407 0.930 . S
C1376 N1373 1.279 . S
C1376 C1375 1.358 . S
C1376 H1379 0.930 . S
C1377 C1374 1.348 . S
C1377 C1375 1.356 . S
H1378 C1372 0.930 . S
H1379 C1376 0.930 . S
O1380 Li1320 1.956 . S
O1380 Li1321 1.970 . S
O1380 Li1322 1.961 . S
O1380 C1324 1.325 . S
O1381 Li1320 1.970 1_655 S
O1381 Li1321 1.956 1_655 S
O1381 Li1323 1.961 . S
O1381 C1330 1.325 . S
O1382 Li1320 1.961 . S
O1382 Li1322 1.956 . S
O1382 Li1323 1.970 1_455 S
O1382 C1352 1.325 . S
O1383 Li1321 1.961 . S
O1383 Li1322 1.970 . S
O1383 Li1323 1.956 1_455 S
O1383 C1358 1.325 . S
H1384 C1326 0.929 . S
H1385 C1327 0.930 . S
H1386 C1328 0.930 . S
H1387 C1329 0.930 . S
H1388 C1331 0.930 . S
H1389 C1333 0.929 . S
H1390 C1334 0.930 . S
H1391 C1335 0.930 . S
H1392 C1338 0.930 . S
H1393 C1341 0.929 . S
H1394 C1346 0.929 . S
H1395 C1347 0.930 . S
H1396 C1354 0.929 . S
H1397 C1355 0.930 . S
H1398 C1356 0.928 . S
H1399 C1357 0.930 . S
H1400 C1359 0.929 . S
H1401 C1360 0.930 . S
H1402 C1361 0.930 . S
H1403 C1362 0.930 . S
H1404 C1366 0.929 . S
H1405 C1368 0.930 . S
H1406 C1374 0.929 . S
H1407 C1375 0.930 . S
H1408 C1420 0.930 . S
H1409 C1422 0.930 . S
H1410 C1423 0.930 . S
H1411 C1427 0.959 . S
H1412 C1427 0.959 . S
H1413 C1427 0.961 . S
H1414 C1428 0.960 . S
H1415 C1428 0.961 . S
H1416 C1428 0.959 . S
H1417 C1431 0.929 . S
H1418 C1432 0.931 . S
H1419 C1434 0.930 . S
C1420 H1408 0.930 . S
C1420 C1421 1.399 . S
C1420 C1425 1.399 . S
C1421 C1420 1.399 . S
C1421 C1422 1.376 1_455 S
C1422 H1409 0.930 . S
C1422 C1421 1.376 1_655 S
C1422 C1423 1.388 . S
C1423 H1410 0.930 . S
C1423 C1422 1.388 . S
C1423 C1424 1.390 . S
C1424 C1423 1.390 . S
C1424 C1425 1.394 1_655 S
C1424 C1430 1.465 . S
C1425 C1420 1.399 . S
C1425 C1424 1.394 1_455 S
C1425 C1426 1.516 . S
C1426 C1425 1.516 . S
C1426 C1427 1.502 . S
C1426 C1428 1.561 . S
C1426 C1429 1.526 . S
C1427 H1411 0.959 . S
C1427 H1412 0.959 . S
C1427 H1413 0.961 . S
C1427 C1426 1.502 . S
C1428 H1414 0.960 . S
C1428 H1415 0.961 . S
C1428 H1416 0.959 . S
C1428 C1426 1.561 . S
C1429 C1426 1.526 . S
C1429 C1430 1.396 1_455 S
C1429 C1434 1.390 . S
C1430 C1424 1.465 . S
C1430 C1429 1.396 1_655 S
C1430 C1431 1.399 . S
C1431 H1417 0.929 . S
C1431 C1430 1.399 . S
C1431 C1432 1.385 . S
C1432 H1418 0.931 . S
C1432 C1431 1.385 . S
C1432 C1433 1.389 1_655 S
C1433 C1432 1.389 1_455 S
C1433 C1434 1.387 . S
C1434 H1419 0.930 . S
C1434 C1429 1.390 . S
C1434 C1433 1.387 . S
H1435 C1447 0.930 . S
H1436 C1449 0.930 . S
H1437 C1450 0.930 . S
H1438 C1454 0.959 . S
H1439 C1454 0.959 . S
H1440 C1454 0.961 1_655 S
H1441 C1455 0.960 1_655 S
H1442 C1455 0.961 . S
H1443 C1455 0.959 . S
H1444 C1458 0.929 . S
H1445 C1459 0.931 . S
H1446 C1461 0.930 . S
C1447 H1435 0.930 . S
C1447 C1448 1.399 . S
C1447 C1452 1.399 . S
C1448 C1447 1.399 . S
C1448 C1449 1.376 . S
C1449 H1436 0.930 . S
C1449 C1448 1.376 . S
C1449 C1450 1.388 . S
C1450 H1437 0.930 . S
C1450 C1449 1.388 . S
C1450 C1451 1.390 . S
C1451 C1450 1.390 . S
C1451 C1452 1.394 . S
C1451 C1457 1.465 1_655 S
C1452 C1447 1.399 . S
C1452 C1451 1.394 . S
C1452 C1453 1.516 1_655 S
C1453 C1452 1.516 1_455 S
C1453 C1454 1.502 . S
C1453 C1455 1.561 . S
C1453 C1456 1.526 . S
C1454 H1438 0.959 . S
C1454 H1439 0.959 . S
C1454 H1440 0.961 1_455 S
C1454 C1453 1.502 . S
C1455 H1441 0.960 1_455 S
C1455 H1442 0.961 . S
C1455 H1443 0.959 . S
C1455 C1453 1.561 . S
C1456 C1453 1.526 . S
C1456 C1457 1.396 . S
C1456 C1461 1.390 . S
C1457 C1451 1.465 1_455 S
C1457 C1456 1.396 . S
C1457 C1458 1.399 . S
C1458 H1444 0.929 . S
C1458 C1457 1.399 . S
C1458 C1459 1.385 . S
C1459 H1445 0.931 . S
C1459 C1458 1.385 . S
C1459 C1460 1.389 . S
C1460 C1459 1.389 . S
C1460 C1461 1.387 . S
C1461 H1446 0.930 . S
C1461 C1456 1.390 . S
C1461 C1460 1.387 . S
H1462 C1474 0.930 . S
H1463 C1476 0.930 . S
H1464 C1477 0.930 . S
H1465 C1481 0.959 . S
H1466 C1481 0.959 . S
H1467 C1481 0.961 . S
H1468 C1482 0.960 . S
H1469 C1482 0.961 . S
H1470 C1482 0.959 . S
H1471 C1485 0.929 . S
H1472 C1486 0.931 . S
H1473 C1488 0.930 . S
C1474 H1462 0.930 . S
C1474 C1475 1.399 . S
C1474 C1479 1.399 . S
C1475 C1474 1.399 . S
C1475 C1476 1.376 . S
C1476 H1463 0.930 . S
C1476 C1475 1.376 . S
C1476 C1477 1.388 . S
C1477 H1464 0.930 . S
C1477 C1476 1.388 . S
C1477 C1478 1.390 . S
C1478 C1477 1.390 . S
C1478 C1479 1.394 . S
C1478 C1484 1.465 . S
C1479 C1474 1.399 . S
C1479 C1478 1.394 . S
C1479 C1480 1.516 . S
C1480 C1479 1.516 . S
C1480 C1481 1.502 . S
C1480 C1482 1.561 . S
C1480 C1483 1.526 . S
C1481 H1465 0.959 . S
C1481 H1466 0.959 . S
C1481 H1467 0.961 . S
C1481 C1480 1.502 . S
C1482 H1468 0.960 . S
C1482 H1469 0.961 . S
C1482 H1470 0.959 . S
C1482 C1480 1.561 . S
C1483 C1480 1.526 . S
C1483 C1484 1.396 . S
C1483 C1488 1.390 . S
C1484 C1478 1.465 . S
C1484 C1483 1.396 . S
C1484 C1485 1.399 . S
C1485 H1471 0.929 . S
C1485 C1484 1.399 . S
C1485 C1486 1.385 . S
C1486 H1472 0.931 . S
C1486 C1485 1.385 . S
C1486 C1487 1.389 . S
C1487 C1486 1.389 . S
C1487 C1488 1.387 . S
C1488 H1473 0.930 . S
C1488 C1483 1.390 . S
C1488 C1487 1.387 . S
H1489 C1501 0.930 . S
H1490 C1503 0.930 . S
H1491 C1504 0.930 . S
H1492 C1508 0.959 . S
H1493 C1508 0.959 . S
H1494 C1508 0.961 . S
H1495 C1509 0.960 . S
H1496 C1509 0.961 . S
H1497 C1509 0.959 . S
H1498 C1512 0.929 . S
H1499 C1513 0.931 . S
H1500 C1515 0.930 . S
C1501 H1489 0.930 . S
C1501 C1502 1.399 . S
C1501 C1506 1.399 . S
C1502 C1501 1.399 . S
C1502 C1503 1.376 . S
C1503 H1490 0.930 . S
C1503 C1502 1.376 . S
C1503 C1504 1.388 . S
C1504 H1491 0.930 . S
C1504 C1503 1.388 . S
C1504 C1505 1.390 . S
C1505 C1504 1.390 . S
C1505 C1506 1.394 . S
C1505 C1511 1.465 . S
C1506 C1501 1.399 . S
C1506 C1505 1.394 . S
C1506 C1507 1.516 . S
C1507 C1506 1.516 . S
C1507 C1508 1.502 . S
C1507 C1509 1.561 . S
C1507 C1510 1.526 . S
C1508 H1492 0.959 . S
C1508 H1493 0.959 . S
C1508 H1494 0.961 . S
C1508 C1507 1.502 . S
C1509 H1495 0.960 . S
C1509 H1496 0.961 . S
C1509 H1497 0.959 . S
C1509 C1507 1.561 . S
C1510 C1507 1.526 . S
C1510 C1511 1.396 . S
C1510 C1515 1.390 . S
C1511 C1505 1.465 . S
C1511 C1510 1.396 . S
C1511 C1512 1.399 . S
C1512 H1498 0.929 . S
C1512 C1511 1.399 . S
C1512 C1513 1.385 . S
C1513 H1499 0.931 . S
C1513 C1512 1.385 . S
C1513 C1514 1.389 . S
C1514 C1513 1.389 . S
C1514 C1515 1.387 . S
C1515 H1500 0.930 . S
C1515 C1510 1.390 . S
C1515 C1514 1.387 . S
H1516 C1528 0.930 . S
H1517 C1530 0.930 . S
H1518 C1531 0.930 . S
H1519 C1535 0.959 . S
H1520 C1535 0.959 . S
H1521 C1535 0.961 . S
H1522 C1536 0.960 . S
H1523 C1536 0.962 . S
H1524 C1536 0.959 . S
H1525 C1539 0.929 . S
H1526 C1540 0.931 1_655 S
H1527 C1542 0.930 . S
C1528 H1516 0.930 . S
C1528 C1529 1.399 . S
C1528 C1533 1.399 . S
C1529 C1528 1.399 . S
C1529 C1530 1.376 1_455 S
C1530 H1517 0.930 . S
C1530 C1529 1.376 1_655 S
C1530 C1531 1.388 . S
C1531 H1518 0.930 . S
C1531 C1530 1.388 . S
C1531 C1532 1.390 1_655 S
C1532 C1531 1.390 1_455 S
C1532 C1533 1.394 . S
C1532 C1538 1.465 . S
C1533 C1528 1.399 . S
C1533 C1532 1.394 . S
C1533 C1534 1.516 . S
C1534 C1533 1.516 . S
C1534 C1535 1.502 . S
C1534 C1536 1.561 1_455 S
C1534 C1537 1.526 . S
C1535 H1519 0.959 . S
C1535 H1520 0.959 . S
C1535 H1521 0.961 . S
C1535 C1534 1.502 . S
C1536 H1522 0.960 . S
C1536 H1523 0.962 . S
C1536 H1524 0.959 . S
C1536 C1534 1.561 1_655 S
C1537 C1534 1.526 . S
C1537 C1538 1.396 . S
C1537 C1542 1.390 . S
C1538 C1532 1.465 . S
C1538 C1537 1.396 . S
C1538 C1539 1.399 1_455 S
C1539 H1525 0.929 . S
C1539 C1538 1.399 1_655 S
C1539 C1540 1.385 1_655 S
C1540 H1526 0.931 1_455 S
C1540 C1539 1.385 1_455 S
C1540 C1541 1.389 . S
C1541 C1540 1.389 . S
C1541 C1542 1.387 . S
C1542 H1527 0.930 . S
C1542 C1537 1.390 . S
C1542 C1541 1.387 . S
H1543 C1555 0.930 . S
H1544 C1557 0.930 . S
H1545 C1558 0.930 . S
H1546 C1562 0.959 . S
H1547 C1562 0.959 . S
H1548 C1562 0.961 . S
H1549 C1563 0.960 . S
H1550 C1563 0.961 . S
H1551 C1563 0.959 . S
H1552 C1566 0.929 . S
H1553 C1567 0.931 . S
H1554 C1569 0.930 . S
C1555 H1543 0.930 . S
C1555 C1556 1.399 . S
C1555 C1560 1.399 . S
C1556 C1555 1.399 . S
C1556 C1557 1.376 . S
C1557 H1544 0.930 . S
C1557 C1556 1.376 . S
C1557 C1558 1.388 . S
C1558 H1545 0.930 . S
C1558 C1557 1.388 . S
C1558 C1559 1.390 . S
C1559 C1558 1.390 . S
C1559 C1560 1.394 . S
C1559 C1565 1.465 . S
C1560 C1555 1.399 . S
C1560 C1559 1.394 . S
C1560 C1561 1.516 . S
C1561 C1560 1.516 . S
C1561 C1562 1.502 . S
C1561 C1563 1.561 . S
C1561 C1564 1.526 . S
C1562 H1546 0.959 . S
C1562 H1547 0.959 . S
C1562 H1548 0.961 . S
C1562 C1561 1.502 . S
C1563 H1549 0.960 . S
C1563 H1550 0.961 . S
C1563 H1551 0.959 . S
C1563 C1561 1.561 . S
C1564 C1561 1.526 . S
C1564 C1565 1.396 . S
C1564 C1569 1.390 . S
C1565 C1559 1.465 . S
C1565 C1564 1.396 . S
C1565 C1566 1.399 . S
C1566 H1552 0.929 . S
C1566 C1565 1.399 . S
C1566 C1567 1.385 . S
C1567 H1553 0.931 . S
C1567 C1566 1.385 . S
C1567 C1568 1.389 . S
C1568 C1567 1.389 . S
C1568 C1569 1.387 . S
C1569 H1554 0.930 . S
C1569 C1564 1.390 . S
C1569 C1568 1.387 . S
H1570 C1582 0.930 . S
H1571 C1584 0.930 . S
H1572 C1585 0.930 . S
H1573 C1589 0.959 . S
H1574 C1589 0.959 . S
H1575 C1589 0.961 . S
H1576 C1590 0.960 . S
H1577 C1590 0.961 . S
H1578 C1590 0.959 . S
H1579 C1593 0.929 . S
H1580 C1594 0.931 . S
H1581 C1596 0.930 . S
C1582 H1570 0.930 . S
C1582 C1583 1.399 . S
C1582 C1587 1.399 . S
C1583 C1582 1.399 . S
C1583 C1584 1.376 . S
C1584 H1571 0.930 . S
C1584 C1583 1.376 . S
C1584 C1585 1.388 . S
C1585 H1572 0.930 . S
C1585 C1584 1.388 . S
C1585 C1586 1.390 . S
C1586 C1585 1.390 . S
C1586 C1587 1.394 . S
C1586 C1592 1.465 . S
C1587 C1582 1.399 . S
C1587 C1586 1.394 . S
C1587 C1588 1.516 . S
C1588 C1587 1.516 . S
C1588 C1589 1.502 . S
C1588 C1590 1.561 . S
C1588 C1591 1.526 . S
C1589 H1573 0.959 . S
C1589 H1574 0.959 . S
C1589 H1575 0.961 . S
C1589 C1588 1.502 . S
C1590 H1576 0.960 . S
C1590 H1577 0.961 . S
C1590 H1578 0.959 . S
C1590 C1588 1.561 . S
C1591 C1588 1.526 . S
C1591 C1592 1.396 . S
C1591 C1596 1.390 . S
C1592 C1586 1.465 . S
C1592 C1591 1.396 . S
C1592 C1593 1.399 . S
C1593 H1579 0.929 . S
C1593 C1592 1.399 . S
C1593 C1594 1.385 . S
C1594 H1580 0.931 . S
C1594 C1593 1.385 . S
C1594 C1595 1.389 . S
C1595 C1594 1.389 . S
C1595 C1596 1.387 . S
C1596 H1581 0.930 . S
C1596 C1591 1.390 . S
C1596 C1595 1.387 . S
H1597 C1609 0.930 . S
H1598 C1611 0.930 . S
H1599 C1612 0.930 . S
H1600 C1616 0.959 . S
H1601 C1616 0.959 1_655 S
H1602 C1616 0.961 . S
H1603 C1617 0.960 . S
H1604 C1617 0.961 1_655 S
H1605 C1617 0.959 . S
H1606 C1620 0.929 . S
H1607 C1621 0.931 . S
H1608 C1623 0.930 . S
C1609 H1597 0.930 . S
C1609 C1610 1.399 . S
C1609 C1614 1.399 . S
C1610 C1609 1.399 . S
C1610 C1611 1.376 . S
C1611 H1598 0.930 . S
C1611 C1610 1.376 . S
C1611 C1612 1.388 . S
C1612 H1599 0.930 . S
C1612 C1611 1.388 . S
C1612 C1613 1.390 . S
C1613 C1612 1.390 . S
C1613 C1614 1.394 . S
C1613 C1619 1.465 1_455 S
C1614 C1609 1.399 . S
C1614 C1613 1.394 . S
C1614 C1615 1.516 . S
C1615 C1614 1.516 . S
C1615 C1616 1.502 . S
C1615 C1617 1.561 . S
C1615 C1618 1.526 1_455 S
C1616 H1600 0.959 . S
C1616 H1601 0.959 1_455 S
C1616 H1602 0.961 . S
C1616 C1615 1.502 . S
C1617 H1603 0.960 . S
C1617 H1604 0.961 1_455 S
C1617 H1605 0.959 . S
C1617 C1615 1.561 . S
C1618 C1615 1.526 1_655 S
C1618 C1619 1.396 . S
C1618 C1623 1.390 . S
C1619 C1613 1.465 1_655 S
C1619 C1618 1.396 . S
C1619 C1620 1.399 . S
C1620 H1606 0.929 . S
C1620 C1619 1.399 . S
C1620 C1621 1.385 . S
C1621 H1607 0.931 . S
C1621 C1620 1.385 . S
C1621 C1622 1.389 . S
C1622 C1621 1.389 . S
C1622 C1623 1.387 . S
C1623 H1608 0.930 . S
C1623 C1618 1.390 . S
C1623 C1622 1.387 . S
H1624 C1636 0.930 . S
H1625 C1638 0.930 . S
H1626 C1639 0.930 . S
H1627 C1643 0.959 . S
H1628 C1643 0.959 . S
H1629 C1643 0.961 . S
H1630 C1644 0.962 . S
H1631 C1644 0.964 . S
H1632 C1644 0.945 1_655 S
H1633 C1647 0.929 . S
H1634 C1648 0.931 . S
H1635 C1650 0.930 . S
C1636 H1624 0.930 . S
C1636 C1637 1.399 1_545 S
C1636 C1641 1.399 . S
C1637 C1636 1.399 1_565 S
C1637 C1638 1.376 1_455 S
C1638 H1625 0.930 . S
C1638 C1637 1.376 1_655 S
C1638 C1639 1.388 . S
C1639 H1626 0.930 . S
C1639 C1638 1.388 . S
C1639 C1640 1.390 . S
C1640 C1639 1.390 . S
C1640 C1641 1.394 1_665 S
C1640 C1646 1.465 . S
C1641 C1636 1.399 . S
C1641 C1640 1.394 1_445 S
C1641 C1642 1.516 . S
C1642 C1641 1.516 . S
C1642 C1643 1.502 . S
C1642 C1644 1.570 . S
C1642 C1645 1.526 . S
C1643 H1627 0.959 . S
C1643 H1628 0.959 . S
C1643 H1629 0.961 . S
C1643 C1642 1.502 . S
C1644 H1630 0.962 . S
C1644 H1631 0.964 . S
C1644 H1632 0.945 1_455 S
C1644 C1642 1.570 . S
C1645 C1642 1.526 . S
C1645 C1646 1.396 1_445 S
C1645 C1650 1.390 . S
C1646 C1640 1.465 . S
C1646 C1645 1.396 1_665 S
C1646 C1647 1.399 . S
C1647 H1633 0.929 . S
C1647 C1646 1.399 . S
C1647 C1648 1.385 . S
C1648 H1634 0.931 . S
C1648 C1647 1.385 . S
C1648 C1649 1.389 1_665 S
C1649 C1648 1.389 1_445 S
C1649 C1650 1.387 . S
C1650 H1635 0.930 . S
C1650 C1645 1.390 . S
C1650 C1649 1.387 . S
H1651 C1663 0.930 . S
H1652 C1665 0.930 . S
H1653 C1666 0.930 . S
H1654 C1670 0.959 . S
H1655 C1670 0.959 . S
H1656 C1670 0.961 . S
H1657 C1671 0.960 . S
H1658 C1671 0.961 . S
H1659 C1671 0.959 . S
H1660 C1674 0.929 . S
H1661 C1675 0.931 . S
H1662 C1677 0.930 . S
C1663 H1651 0.930 . S
C1663 C1664 1.399 . S
C1663 C1668 1.399 . S
C1664 C1663 1.399 . S
C1664 C1665 1.376 . S
C1665 H1652 0.930 . S
C1665 C1664 1.376 . S
C1665 C1666 1.388 . S
C1666 H1653 0.930 . S
C1666 C1665 1.388 . S
C1666 C1667 1.390 . S
C1667 C1666 1.390 . S
C1667 C1668 1.394 . S
C1667 C1673 1.465 . S
C1668 C1663 1.399 . S
C1668 C1667 1.394 . S
C1668 C1669 1.516 . S
C1669 C1668 1.516 . S
C1669 C1670 1.502 . S
C1669 C1671 1.561 . S
C1669 C1672 1.526 . S
C1670 H1654 0.959 . S
C1670 H1655 0.959 . S
C1670 H1656 0.961 . S
C1670 C1669 1.502 . S
C1671 H1657 0.960 . S
C1671 H1658 0.961 . S
C1671 H1659 0.959 . S
C1671 C1669 1.561 . S
C1672 C1669 1.526 . S
C1672 C1673 1.396 . S
C1672 C1677 1.390 . S
C1673 C1667 1.465 . S
C1673 C1672 1.396 . S
C1673 C1674 1.399 . S
C1674 H1660 0.929 . S
C1674 C1673 1.399 . S
C1674 C1675 1.385 . S
C1675 H1661 0.931 . S
C1675 C1674 1.385 . S
C1675 C1676 1.389 . S
C1676 C1675 1.389 . S
C1676 C1677 1.387 . S
C1677 H1662 0.930 . S
C1677 C1672 1.390 . S
C1677 C1676 1.387 . S
H1678 C1690 0.930 . S
H1679 C1692 0.930 . S
H1680 C1693 0.930 . S
H1681 C1697 0.959 . S
H1682 C1697 0.959 1_556 S
H1683 C1697 0.961 . S
H1684 C1698 0.960 . S
H1685 C1698 0.967 1_556 S
H1686 C1698 0.959 . S
H1687 C1701 0.929 . S
H1688 C1702 0.931 . S
H1689 C1704 0.930 . S
C1690 H1678 0.930 . S
C1690 C1691 1.399 1_545 S
C1690 C1695 1.399 . S
C1691 C1690 1.399 1_565 S
C1691 C1692 1.376 . S
C1692 H1679 0.930 . S
C1692 C1691 1.376 . S
C1692 C1693 1.388 . S
C1693 H1680 0.930 . S
C1693 C1692 1.388 . S
C1693 C1694 1.390 . S
C1694 C1693 1.390 . S
C1694 C1695 1.394 1_565 S
C1694 C1700 1.465 1_554 S
C1695 C1690 1.399 . S
C1695 C1694 1.394 1_545 S
C1695 C1696 1.516 . S
C1696 C1695 1.516 . S
C1696 C1697 1.502 . S
C1696 C1698 1.561 . S
C1696 C1699 1.526 1_554 S
C1697 H1681 0.959 . S
C1697 H1682 0.959 1_554 S
C1697 H1683 0.961 . S
C1697 C1696 1.502 . S
C1698 H1684 0.960 . S
C1698 H1685 0.967 1_554 S
C1698 H1686 0.959 . S
C1698 C1696 1.561 . S
C1699 C1696 1.526 1_556 S
C1699 C1700 1.396 1_545 S
C1699 C1704 1.390 . S
C1700 C1694 1.465 1_556 S
C1700 C1699 1.396 1_565 S
C1700 C1701 1.399 . S
C1701 H1687 0.929 . S
C1701 C1700 1.399 . S
C1701 C1702 1.385 . S
C1702 H1688 0.931 . S
C1702 C1701 1.385 . S
C1702 C1703 1.389 1_565 S
C1703 C1702 1.389 1_545 S
C1703 C1704 1.387 . S
C1704 H1689 0.930 . S
C1704 C1699 1.390 . S
C1704 C1703 1.387 . S
H1705 C1717 0.930 . S
H1706 C1719 0.930 . S
H1707 C1720 0.930 . S
H1708 C1724 0.959 . S
H1709 C1724 0.959 . S
H1710 C1724 0.961 . S
H1711 C1725 0.960 . S
H1712 C1725 0.961 . S
H1713 C1725 0.959 . S
H1714 C1728 0.929 . S
H1715 C1729 0.931 . S
H1716 C1731 0.930 . S
C1717 H1705 0.930 . S
C1717 C1718 1.399 . S
C1717 C1722 1.399 . S
C1718 C1717 1.399 . S
C1718 C1719 1.376 . S
C1719 H1706 0.930 . S
C1719 C1718 1.376 . S
C1719 C1720 1.388 . S
C1720 H1707 0.930 . S
C1720 C1719 1.388 . S
C1720 C1721 1.390 . S
C1721 C1720 1.390 . S
C1721 C1722 1.394 . S
C1721 C1727 1.465 . S
C1722 C1717 1.399 . S
C1722 C1721 1.394 . S
C1722 C1723 1.516 . S
C1723 C1722 1.516 . S
C1723 C1724 1.502 . S
C1723 C1725 1.561 . S
C1723 C1726 1.526 . S
C1724 H1708 0.959 . S
C1724 H1709 0.959 . S
C1724 H1710 0.961 . S
C1724 C1723 1.502 . S
C1725 H1711 0.960 . S
C1725 H1712 0.961 . S
C1725 H1713 0.959 . S
C1725 C1723 1.561 . S
C1726 C1723 1.526 . S
C1726 C1727 1.396 . S
C1726 C1731 1.390 . S
C1727 C1721 1.465 . S
C1727 C1726 1.396 . S
C1727 C1728 1.399 . S
C1728 H1714 0.929 . S
C1728 C1727 1.399 . S
C1728 C1729 1.385 . S
C1729 H1715 0.931 . S
C1729 C1728 1.385 . S
C1729 C1730 1.389 . S
C1730 C1729 1.389 . S
C1730 C1731 1.387 . S
C1731 H1716 0.930 . S
C1731 C1726 1.390 . S
C1731 C1730 1.387 . S
H1732 C1744 0.930 . S
H1733 C1746 0.930 . S
H1734 C1747 0.930 . S
H1735 C1751 0.959 . S
H1736 C1751 0.959 . S
H1737 C1751 0.961 . S
H1738 C1752 0.960 . S
H1739 C1752 0.961 . S
H1740 C1752 0.959 . S
H1741 C1755 0.929 . S
H1742 C1756 0.931 . S
H1743 C1758 0.930 . S
C1744 H1732 0.930 . S
C1744 C1745 1.399 . S
C1744 C1749 1.399 . S
C1745 C1744 1.399 . S
C1745 C1746 1.376 . S
C1746 H1733 0.930 . S
C1746 C1745 1.376 . S
C1746 C1747 1.388 . S
C1747 H1734 0.930 . S
C1747 C1746 1.388 . S
C1747 C1748 1.390 . S
C1748 C1747 1.390 . S
C1748 C1749 1.394 . S
C1748 C1754 1.465 . S
C1749 C1744 1.399 . S
C1749 C1748 1.394 . S
C1749 C1750 1.516 . S
C1750 C1749 1.516 . S
C1750 C1751 1.502 . S
C1750 C1752 1.561 . S
C1750 C1753 1.526 . S
C1751 H1735 0.959 . S
C1751 H1736 0.959 . S
C1751 H1737 0.961 . S
C1751 C1750 1.502 . S
C1752 H1738 0.960 . S
C1752 H1739 0.961 . S
C1752 H1740 0.959 . S
C1752 C1750 1.561 . S
C1753 C1750 1.526 . S
C1753 C1754 1.396 . S
C1753 C1758 1.390 . S
C1754 C1748 1.465 . S
C1754 C1753 1.396 . S
C1754 C1755 1.399 . S
C1755 H1741 0.929 . S
C1755 C1754 1.399 . S
C1755 C1756 1.385 . S
C1756 H1742 0.931 . S
C1756 C1755 1.385 . S
C1756 C1757 1.389 . S
C1757 C1756 1.389 . S
C1757 C1758 1.387 . S
C1758 H1743 0.930 . S
C1758 C1753 1.390 . S
C1758 C1757 1.387 . S
H1759 C1771 0.930 . S
H1760 C1773 0.930 . S
H1761 C1774 0.930 . S
H1762 C1778 0.959 . S
H1763 C1778 0.959 . S
H1764 C1778 0.961 . S
H1765 C1779 0.960 . S
H1766 C1779 0.961 . S
H1767 C1779 0.959 . S
H1768 C1782 0.929 . S
H1769 C1783 0.931 . S
H1770 C1785 0.930 . S
C1771 H1759 0.930 . S
C1771 C1772 1.399 . S
C1771 C1776 1.399 . S
C1772 C1771 1.399 . S
C1772 C1773 1.376 . S
C1773 H1760 0.930 . S
C1773 C1772 1.376 . S
C1773 C1774 1.388 . S
C1774 H1761 0.930 . S
C1774 C1773 1.388 . S
C1774 C1775 1.390 . S
C1775 C1774 1.390 . S
C1775 C1776 1.394 . S
C1775 C1781 1.465 . S
C1776 C1771 1.399 . S
C1776 C1775 1.394 . S
C1776 C1777 1.516 . S
C1777 C1776 1.516 . S
C1777 C1778 1.502 . S
C1777 C1779 1.561 . S
C1777 C1780 1.526 . S
C1778 H1762 0.959 . S
C1778 H1763 0.959 . S
C1778 H1764 0.961 . S
C1778 C1777 1.502 . S
C1779 H1765 0.960 . S
C1779 H1766 0.961 . S
C1779 H1767 0.959 . S
C1779 C1777 1.561 . S
C1780 C1777 1.526 . S
C1780 C1781 1.396 . S
C1780 C1785 1.390 . S
C1781 C1775 1.465 . S
C1781 C1780 1.396 . S
C1781 C1782 1.399 . S
C1782 H1768 0.929 . S
C1782 C1781 1.399 . S
C1782 C1783 1.385 . S
C1783 H1769 0.931 . S
C1783 C1782 1.385 . S
C1783 C1784 1.389 . S
C1784 C1783 1.389 . S
C1784 C1785 1.387 . S
C1785 H1770 0.930 . S
C1785 C1780 1.390 . S
C1785 C1784 1.387 . S
H1786 C1798 0.930 . S
H1787 C1800 0.930 . S
H1788 C1801 0.930 . S
H1789 C1805 0.959 . S
H1790 C1805 0.959 . S
H1791 C1805 0.891 1_556 S
H1792 C1806 0.893 1_556 S
H1793 C1806 0.961 . S
H1794 C1806 0.959 . S
H1795 C1809 0.929 . S
H1796 C1810 0.931 . S
H1797 C1812 0.930 . S
C1798 H1786 0.930 . S
C1798 C1799 1.399 . S
C1798 C1803 1.399 . S
C1799 C1798 1.399 . S
C1799 C1800 1.376 . S
C1800 H1787 0.930 . S
C1800 C1799 1.376 . S
C1800 C1801 1.388 . S
C1801 H1788 0.930 . S
C1801 C1800 1.388 . S
C1801 C1802 1.390 . S
C1802 C1801 1.390 . S
C1802 C1803 1.394 . S
C1802 C1808 1.465 1_556 S
C1803 C1798 1.399 . S
C1803 C1802 1.394 . S
C1803 C1804 1.516 1_556 S
C1804 C1803 1.516 1_554 S
C1804 C1805 1.502 . S
C1804 C1806 1.561 . S
C1804 C1807 1.526 . S
C1805 H1789 0.959 . S
C1805 H1790 0.959 . S
C1805 H1791 0.891 1_554 S
C1805 C1804 1.502 . S
C1806 H1792 0.893 1_554 S
C1806 H1793 0.961 . S
C1806 H1794 0.959 . S
C1806 C1804 1.561 . S
C1807 C1804 1.526 . S
C1807 C1808 1.396 . S
C1807 C1812 1.390 . S
C1808 C1802 1.465 1_554 S
C1808 C1807 1.396 . S
C1808 C1809 1.399 . S
C1809 H1795 0.929 . S
C1809 C1808 1.399 . S
C1809 C1810 1.385 . S
C1810 H1796 0.931 . S
C1810 C1809 1.385 . S
C1810 C1811 1.389 . S
C1811 C1810 1.389 . S
C1811 C1812 1.387 . S
C1812 H1797 0.930 . S
C1812 C1807 1.390 . S
C1812 C1811 1.387 . S
H1813 C1825 0.930 . S
H1814 C1827 0.930 . S
H1815 C1828 0.930 . S
H1816 C1832 0.959 . S
H1817 C1832 0.959 . S
H1818 C1832 0.961 . S
H1819 C1833 0.960 . S
H1820 C1833 0.961 . S
H1821 C1833 0.959 . S
H1822 C1836 0.929 . S
H1823 C1837 0.931 . S
H1824 C1839 0.930 . S
C1825 H1813 0.930 . S
C1825 C1826 1.399 . S
C1825 C1830 1.399 . S
C1826 C1825 1.399 . S
C1826 C1827 1.376 1_455 S
C1827 H1814 0.930 . S
C1827 C1826 1.376 1_655 S
C1827 C1828 1.388 . S
C1828 H1815 0.930 . S
C1828 C1827 1.388 . S
C1828 C1829 1.393 . S
C1829 C1828 1.393 . S
C1829 C1830 1.390 1_655 S
C1829 C1835 1.465 . S
C1830 C1825 1.399 . S
C1830 C1829 1.390 1_455 S
C1830 C1831 1.516 . S
C1831 C1830 1.516 . S
C1831 C1832 1.502 . S
C1831 C1833 1.561 . S
C1831 C1834 1.526 . S
C1832 H1816 0.959 . S
C1832 H1817 0.959 . S
C1832 H1818 0.961 . S
C1832 C1831 1.502 . S
C1833 H1819 0.960 . S
C1833 H1820 0.961 . S
C1833 H1821 0.959 . S
C1833 C1831 1.561 . S
C1834 C1831 1.526 . S
C1834 C1835 1.396 1_455 S
C1834 C1839 1.390 . S
C1835 C1829 1.465 . S
C1835 C1834 1.396 1_655 S
C1835 C1836 1.399 . S
C1836 H1822 0.929 . S
C1836 C1835 1.399 . S
C1836 C1837 1.385 . S
C1837 H1823 0.931 . S
C1837 C1836 1.385 . S
C1837 C1838 1.389 1_655 S
C1838 C1837 1.389 1_455 S
C1838 C1839 1.387 . S
C1839 H1824 0.930 . S
C1839 C1834 1.390 . S
C1839 C1838 1.387 . S
H1840 C1852 0.930 . S
H1841 C1854 0.930 . S
H1842 C1855 0.930 . S
H1843 C1859 0.959 . S
H1844 C1859 0.959 . S
H1845 C1859 0.961 . S
H1846 C1860 0.960 . S
H1847 C1860 0.961 . S
H1848 C1860 0.959 . S
H1849 C1863 0.929 . S
H1850 C1864 0.931 . S
H1851 C1866 0.930 . S
C1852 H1840 0.930 . S
C1852 C1853 1.399 . S
C1852 C1857 1.399 . S
C1853 C1852 1.399 . S
C1853 C1854 1.376 . S
C1854 H1841 0.930 . S
C1854 C1853 1.376 . S
C1854 C1855 1.388 . S
C1855 H1842 0.930 . S
C1855 C1854 1.388 . S
C1855 C1856 1.390 . S
C1856 C1855 1.390 . S
C1856 C1857 1.394 . S
C1856 C1862 1.465 . S
C1857 C1852 1.399 . S
C1857 C1856 1.394 . S
C1857 C1858 1.516 . S
C1858 C1857 1.516 . S
C1858 C1859 1.502 . S
C1858 C1860 1.561 . S
C1858 C1861 1.526 . S
C1859 H1843 0.959 . S
C1859 H1844 0.959 . S
C1859 H1845 0.961 . S
C1859 C1858 1.502 . S
C1860 H1846 0.960 . S
C1860 H1847 0.961 . S
C1860 H1848 0.959 . S
C1860 C1858 1.561 . S
C1861 C1858 1.526 . S
C1861 C1862 1.396 . S
C1861 C1866 1.390 . S
C1862 C1856 1.465 . S
C1862 C1861 1.396 . S
C1862 C1863 1.399 . S
C1863 H1849 0.929 . S
C1863 C1862 1.399 . S
C1863 C1864 1.385 . S
C1864 H1850 0.931 . S
C1864 C1863 1.385 . S
C1864 C1865 1.389 . S
C1865 C1864 1.389 . S
C1865 C1866 1.387 . S
C1866 H1851 0.930 . S
C1866 C1861 1.390 . S
C1866 C1865 1.387 . S
H1867 C1879 0.930 . S
H1868 C1881 0.930 . S
H1869 C1882 0.930 . S
H1870 C1886 0.959 . S
H1871 C1886 0.959 . S
H1872 C1886 0.961 . S
H1873 C1887 0.960 . S
H1874 C1887 0.961 . S
H1875 C1887 0.959 . S
H1876 C1890 0.929 . S
H1877 C1891 0.931 . S
H1878 C1893 0.930 . S
C1879 H1867 0.930 . S
C1879 C1880 1.399 . S
C1879 C1884 1.399 . S
C1880 C1879 1.399 . S
C1880 C1881 1.376 . S
C1881 H1868 0.930 . S
C1881 C1880 1.376 . S
C1881 C1882 1.388 . S
C1882 H1869 0.930 . S
C1882 C1881 1.388 . S
C1882 C1883 1.390 . S
C1883 C1882 1.390 . S
C1883 C1884 1.394 . S
C1883 C1889 1.465 . S
C1884 C1879 1.399 . S
C1884 C1883 1.394 . S
C1884 C1885 1.516 . S
C1885 C1884 1.516 . S
C1885 C1886 1.502 . S
C1885 C1887 1.561 . S
C1885 C1888 1.526 . S
C1886 H1870 0.959 . S
C1886 H1871 0.959 . S
C1886 H1872 0.961 . S
C1886 C1885 1.502 . S
C1887 H1873 0.960 . S
C1887 H1874 0.961 . S
C1887 H1875 0.959 . S
C1887 C1885 1.561 . S
C1888 C1885 1.526 . S
C1888 C1889 1.396 . S
C1888 C1893 1.390 . S
C1889 C1883 1.465 . S
C1889 C1888 1.396 . S
C1889 C1890 1.399 . S
C1890 H1876 0.929 . S
C1890 C1889 1.399 . S
C1890 C1891 1.385 . S
C1891 H1877 0.931 . S
C1891 C1890 1.385 . S
C1891 C1892 1.389 . S
C1892 C1891 1.389 . S
C1892 C1893 1.387 . S
C1893 H1878 0.930 . S
C1893 C1888 1.390 . S
C1893 C1892 1.387 . S
H1894 C1906 0.930 . S
H1895 C1908 0.930 . S
H1896 C1909 0.930 . S
H1897 C1913 0.959 . S
H1898 C1913 0.959 . S
H1899 C1913 0.961 . S
H1900 C1914 0.960 . S
H1901 C1914 0.961 . S
H1902 C1914 0.959 . S
H1903 C1917 0.929 . S
H1904 C1918 0.931 . S
H1905 C1920 0.930 . S
C1906 H1894 0.930 . S
C1906 C1907 1.399 . S
C1906 C1911 1.399 . S
C1907 C1906 1.399 . S
C1907 C1908 1.376 . S
C1908 H1895 0.930 . S
C1908 C1907 1.376 . S
C1908 C1909 1.388 . S
C1909 H1896 0.930 . S
C1909 C1908 1.388 . S
C1909 C1910 1.390 . S
C1910 C1909 1.390 . S
C1910 C1911 1.394 . S
C1910 C1916 1.465 . S
C1911 C1906 1.399 . S
C1911 C1910 1.394 . S
C1911 C1912 1.516 . S
C1912 C1911 1.516 . S
C1912 C1913 1.502 . S
C1912 C1914 1.561 . S
C1912 C1915 1.526 . S
C1913 H1897 0.959 . S
C1913 H1898 0.959 . S
C1913 H1899 0.961 . S
C1913 C1912 1.502 . S
C1914 H1900 0.960 . S
C1914 H1901 0.961 . S
C1914 H1902 0.959 . S
C1914 C1912 1.561 . S
C1915 C1912 1.526 . S
C1915 C1916 1.396 . S
C1915 C1920 1.390 . S
C1916 C1910 1.465 . S
C1916 C1915 1.396 . S
C1916 C1917 1.399 . S
C1917 H1903 0.929 . S
C1917 C1916 1.399 . S
C1917 C1918 1.385 . S
C1918 H1904 0.931 . S
C1918 C1917 1.385 . S
C1918 C1919 1.389 . S
C1919 C1918 1.389 . S
C1919 C1920 1.387 . S
C1920 H1905 0.930 . S
C1920 C1915 1.390 . S
C1920 C1919 1.387 . S
H1921 C1933 0.930 . S
H1922 C1935 0.930 1_565 S
H1923 C1936 0.930 . S
H1924 C1940 0.959 . S
H1925 C1940 0.959 . S
H1926 C1940 0.961 . S
H1927 C1941 0.960 . S
H1928 C1941 0.961 . S
H1929 C1941 0.959 . S
H1930 C1944 0.929 . S
H1931 C1945 0.931 . S
H1932 C1947 0.930 . S
C1933 H1921 0.930 . S
C1933 C1934 1.399 . S
C1933 C1938 1.399 . S
C1934 C1933 1.399 . S
C1934 C1935 1.376 . S
C1935 H1922 0.930 1_545 S
C1935 C1934 1.376 . S
C1935 C1936 1.388 . S
C1936 H1923 0.930 . S
C1936 C1935 1.388 . S
C1936 C1937 1.390 . S
C1937 C1936 1.390 . S
C1937 C1938 1.394 . S
C1937 C1943 1.465 . S
C1938 C1933 1.399 . S
C1938 C1937 1.394 . S
C1938 C1939 1.516 . S
C1939 C1938 1.516 . S
C1939 C1940 1.502 . S
C1939 C1941 1.561 . S
C1939 C1942 1.526 . S
C1940 H1924 0.959 . S
C1940 H1925 0.959 . S
C1940 H1926 0.961 . S
C1940 C1939 1.502 . S
C1941 H1927 0.960 . S
C1941 H1928 0.961 . S
C1941 H1929 0.959 . S
C1941 C1939 1.561 . S
C1942 C1939 1.526 . S
C1942 C1943 1.396 . S
C1942 C1947 1.390 . S
C1943 C1937 1.465 . S
C1943 C1942 1.396 . S
C1943 C1944 1.399 . S
C1944 H1930 0.929 . S
C1944 C1943 1.399 . S
C1944 C1945 1.385 . S
C1945 H1931 0.931 . S
C1945 C1944 1.385 . S
C1945 C1946 1.389 . S
C1946 C1945 1.389 . S
C1946 C1947 1.387 . S
C1947 H1932 0.930 . S
C1947 C1942 1.390 . S
C1947 C1946 1.387 . S
H1948 C1960 0.930 . S
H1949 C1962 0.930 . S
H1950 C1963 0.930 . S
H1951 C1967 0.959 . S
H1952 C1967 0.959 . S
H1953 C1967 0.961 . S
H1954 C1968 0.960 . S
H1955 C1968 0.961 . S
H1956 C1968 0.959 . S
H1957 C1971 0.929 . S
H1958 C1972 0.931 . S
H1959 C1974 0.930 . S
C1960 H1948 0.930 . S
C1960 C1961 1.399 . S
C1960 C1965 1.399 . S
C1961 C1960 1.399 . S
C1961 C1962 1.376 . S
C1962 H1949 0.930 . S
C1962 C1961 1.376 . S
C1962 C1963 1.388 . S
C1963 H1950 0.930 . S
C1963 C1962 1.388 . S
C1963 C1964 1.390 . S
C1964 C1963 1.390 . S
C1964 C1965 1.394 . S
C1964 C1970 1.465 . S
C1965 C1960 1.399 . S
C1965 C1964 1.394 . S
C1965 C1966 1.516 . S
C1966 C1965 1.516 . S
C1966 C1967 1.502 . S
C1966 C1968 1.561 . S
C1966 C1969 1.526 . S
C1967 H1951 0.959 . S
C1967 H1952 0.959 . S
C1967 H1953 0.961 . S
C1967 C1966 1.502 . S
C1968 H1954 0.960 . S
C1968 H1955 0.961 . S
C1968 H1956 0.959 . S
C1968 C1966 1.561 . S
C1969 C1966 1.526 . S
C1969 C1970 1.396 . S
C1969 C1974 1.390 . S
C1970 C1964 1.465 . S
C1970 C1969 1.396 . S
C1970 C1971 1.399 . S
C1971 H1957 0.929 . S
C1971 C1970 1.399 . S
C1971 C1972 1.385 . S
C1972 H1958 0.931 . S
C1972 C1971 1.385 . S
C1972 C1973 1.389 . S
C1973 C1972 1.389 . S
C1973 C1974 1.387 . S
C1974 H1959 0.930 . S
C1974 C1969 1.390 . S
C1974 C1973 1.387 . S
H1975 C1987 0.930 . S
H1976 C1989 0.930 . S
H1977 C1990 0.930 . S
H1978 C1994 0.959 . S
H1979 C1994 0.959 . S
H1980 C1994 0.961 . S
H1981 C1995 0.960 . S
H1982 C1995 0.961 . S
H1983 C1995 0.959 . S
H1984 C1998 0.929 . S
H1985 C1999 0.931 . S
H1986 C2001 0.930 . S
C1987 H1975 0.930 . S
C1987 C1988 1.399 . S
C1987 C1992 1.399 . S
C1988 C1987 1.399 . S
C1988 C1989 1.376 . S
C1989 H1976 0.930 . S
C1989 C1988 1.376 . S
C1989 C1990 1.388 . S
C1990 H1977 0.930 . S
C1990 C1989 1.388 . S
C1990 C1991 1.390 . S
C1991 C1990 1.390 . S
C1991 C1992 1.394 . S
C1991 C1997 1.465 . S
C1992 C1987 1.399 . S
C1992 C1991 1.394 . S
C1992 C1993 1.516 . S
C1993 C1992 1.516 . S
C1993 C1994 1.502 . S
C1993 C1995 1.561 . S
C1993 C1996 1.526 . S
C1994 H1978 0.959 . S
C1994 H1979 0.959 . S
C1994 H1980 0.961 . S
C1994 C1993 1.502 . S
C1995 H1981 0.960 . S
C1995 H1982 0.961 . S
C1995 H1983 0.959 . S
C1995 C1993 1.561 . S
C1996 C1993 1.526 . S
C1996 C1997 1.396 . S
C1996 C2001 1.390 . S
C1997 C1991 1.465 . S
C1997 C1996 1.396 . S
C1997 C1998 1.399 . S
C1998 H1984 0.929 . S
C1998 C1997 1.399 . S
C1998 C1999 1.385 . S
C1999 H1985 0.931 . S
C1999 C1998 1.385 . S
C1999 C2000 1.389 . S
C2000 C1999 1.389 . S
C2000 C2001 1.387 . S
C2001 H1986 0.930 . S
C2001 C1996 1.390 . S
C2001 C2000 1.387 . S
H2002 C2014 0.930 . S
H2003 C2016 0.930 . S
H2004 C2017 0.930 . S
H2005 C2021 0.959 . S
H2006 C2021 0.959 . S
H2007 C2021 0.961 . S
H2008 C2022 0.960 . S
H2009 C2022 0.961 . S
H2010 C2022 0.959 . S
H2011 C2025 0.929 . S
H2012 C2026 0.931 . S
H2013 C2028 0.930 . S
C2014 H2002 0.930 . S
C2014 C2015 1.399 . S
C2014 C2019 1.399 . S
C2015 C2014 1.399 . S
C2015 C2016 1.376 . S
C2016 H2003 0.930 . S
C2016 C2015 1.376 . S
C2016 C2017 1.388 . S
C2017 H2004 0.930 . S
C2017 C2016 1.388 . S
C2017 C2018 1.390 . S
C2018 C2017 1.390 . S
C2018 C2019 1.394 . S
C2018 C2024 1.465 . S
C2019 C2014 1.399 . S
C2019 C2018 1.394 . S
C2019 C2020 1.516 . S
C2020 C2019 1.516 . S
C2020 C2021 1.502 . S
C2020 C2022 1.561 . S
C2020 C2023 1.526 . S
C2021 H2005 0.959 . S
C2021 H2006 0.959 . S
C2021 H2007 0.961 . S
C2021 C2020 1.502 . S
C2022 H2008 0.960 . S
C2022 H2009 0.961 . S
C2022 H2010 0.959 . S
C2022 C2020 1.561 . S
C2023 C2020 1.526 . S
C2023 C2024 1.396 . S
C2023 C2028 1.390 . S
C2024 C2018 1.465 . S
C2024 C2023 1.396 . S
C2024 C2025 1.399 . S
C2025 H2011 0.929 . S
C2025 C2024 1.399 . S
C2025 C2026 1.385 . S
C2026 H2012 0.931 . S
C2026 C2025 1.385 . S
C2026 C2027 1.389 . S
C2027 C2026 1.389 . S
C2027 C2028 1.387 . S
C2028 H2013 0.930 . S
C2028 C2023 1.390 . S
C2028 C2027 1.387 . S
H2029 C2041 0.930 . S
H2030 C2043 0.930 . S
H2031 C2044 0.930 . S
H2032 C2048 0.959 . S
H2033 C2048 0.959 . S
H2034 C2048 0.961 . S
H2035 C2049 0.960 . S
H2036 C2049 0.961 . S
H2037 C2049 0.959 . S
H2038 C2052 0.929 . S
H2039 C2053 0.931 . S
H2040 C2055 0.930 . S
C2041 H2029 0.930 . S
C2041 C2042 1.399 . S
C2041 C2046 1.399 . S
C2042 C2041 1.399 . S
C2042 C2043 1.376 . S
C2043 H2030 0.930 . S
C2043 C2042 1.376 . S
C2043 C2044 1.388 . S
C2044 H2031 0.930 . S
C2044 C2043 1.388 . S
C2044 C2045 1.390 . S
C2045 C2044 1.390 . S
C2045 C2046 1.394 . S
C2045 C2051 1.465 . S
C2046 C2041 1.399 . S
C2046 C2045 1.394 . S
C2046 C2047 1.516 . S
C2047 C2046 1.516 . S
C2047 C2048 1.502 . S
C2047 C2049 1.561 . S
C2047 C2050 1.526 . S
C2048 H2032 0.959 . S
C2048 H2033 0.959 . S
C2048 H2034 0.961 . S
C2048 C2047 1.502 . S
C2049 H2035 0.960 . S
C2049 H2036 0.961 . S
C2049 H2037 0.959 . S
C2049 C2047 1.561 . S
C2050 C2047 1.526 . S
C2050 C2051 1.396 . S
C2050 C2055 1.390 . S
C2051 C2045 1.465 . S
C2051 C2050 1.396 . S
C2051 C2052 1.399 . S
C2052 H2038 0.929 . S
C2052 C2051 1.399 . S
C2052 C2053 1.385 . S
C2053 H2039 0.931 . S
C2053 C2052 1.385 . S
C2053 C2054 1.389 . S
C2054 C2053 1.389 . S
C2054 C2055 1.387 . S
C2055 H2040 0.930 . S
C2055 C2050 1.390 . S
C2055 C2054 1.387 . S
H2056 C2068 0.930 . S
H2057 C2070 0.930 . S
H2058 C2071 0.930 . S
H2059 C2075 0.959 . S
H2060 C2075 0.959 . S
H2061 C2075 0.961 . S
H2062 C2076 0.960 . S
H2063 C2076 0.961 . S
H2064 C2076 0.959 . S
H2065 C2079 0.929 . S
H2066 C2080 0.931 . S
H2067 C2082 0.930 . S
C2068 H2056 0.930 . S
C2068 C2069 1.399 . S
C2068 C2073 1.399 . S
C2069 C2068 1.399 . S
C2069 C2070 1.376 . S
C2070 H2057 0.930 . S
C2070 C2069 1.376 . S
C2070 C2071 1.388 . S
C2071 H2058 0.930 . S
C2071 C2070 1.388 . S
C2071 C2072 1.390 . S
C2072 C2071 1.390 . S
C2072 C2073 1.394 . S
C2072 C2078 1.465 . S
C2073 C2068 1.399 . S
C2073 C2072 1.394 . S
C2073 C2074 1.516 . S
C2074 C2073 1.516 . S
C2074 C2075 1.502 . S
C2074 C2076 1.561 . S
C2074 C2077 1.526 . S
C2075 H2059 0.959 . S
C2075 H2060 0.959 . S
C2075 H2061 0.961 . S
C2075 C2074 1.502 . S
C2076 H2062 0.960 . S
C2076 H2063 0.961 . S
C2076 H2064 0.959 . S
C2076 C2074 1.561 . S
C2077 C2074 1.526 . S
C2077 C2078 1.396 . S
C2077 C2082 1.390 . S
C2078 C2072 1.465 . S
C2078 C2077 1.396 . S
C2078 C2079 1.399 . S
C2079 H2065 0.929 . S
C2079 C2078 1.399 . S
C2079 C2080 1.385 . S
C2080 H2066 0.931 . S
C2080 C2079 1.385 . S
C2080 C2081 1.389 . S
C2081 C2080 1.389 . S
C2081 C2082 1.387 . S
C2082 H2067 0.930 . S
C2082 C2077 1.390 . S
C2082 C2081 1.387 . S
H2083 C2095 0.930 . S
H2084 C2097 0.930 . S
H2085 C2098 0.930 . S
H2086 C2102 0.959 . S
H2087 C2102 0.959 . S
H2088 C2102 0.961 . S
H2089 C2103 0.960 . S
H2090 C2103 0.961 . S
H2091 C2103 0.959 . S
H2092 C2106 0.929 . S
H2093 C2107 0.931 . S
H2094 C2109 0.930 . S
C2095 H2083 0.930 . S
C2095 C2096 1.399 . S
C2095 C2100 1.399 . S
C2096 C2095 1.399 . S
C2096 C2097 1.376 . S
C2097 H2084 0.930 . S
C2097 C2096 1.376 . S
C2097 C2098 1.388 . S
C2098 H2085 0.930 . S
C2098 C2097 1.388 . S
C2098 C2099 1.390 . S
C2099 C2098 1.390 . S
C2099 C2100 1.394 . S
C2099 C2105 1.465 . S
C2100 C2095 1.399 . S
C2100 C2099 1.394 . S
C2100 C2101 1.516 . S
C2101 C2100 1.516 . S
C2101 C2102 1.502 . S
C2101 C2103 1.561 . S
C2101 C2104 1.526 . S
C2102 H2086 0.959 . S
C2102 H2087 0.959 . S
C2102 H2088 0.961 . S
C2102 C2101 1.502 . S
C2103 H2089 0.960 . S
C2103 H2090 0.961 . S
C2103 H2091 0.959 . S
C2103 C2101 1.561 . S
C2104 C2101 1.526 . S
C2104 C2105 1.396 . S
C2104 C2109 1.390 . S
C2105 C2099 1.465 . S
C2105 C2104 1.396 . S
C2105 C2106 1.399 . S
C2106 H2092 0.929 . S
C2106 C2105 1.399 . S
C2106 C2107 1.385 . S
C2107 H2093 0.931 . S
C2107 C2106 1.385 . S
C2107 C2108 1.389 . S
C2108 C2107 1.389 . S
C2108 C2109 1.387 . S
C2109 H2094 0.930 . S
C2109 C2104 1.390 . S
C2109 C2108 1.387 . S
H2110 C2122 0.930 . S
H2111 C2124 0.930 . S
H2112 C2125 0.930 . S
H2113 C2129 0.959 . S
H2114 C2129 0.959 . S
H2115 C2129 0.961 . S
H2116 C2130 0.960 . S
H2117 C2130 0.961 . S
H2118 C2130 0.959 . S
H2119 C2133 0.929 . S
H2120 C2134 0.931 . S
H2121 C2136 0.930 . S
C2122 H2110 0.930 . S
C2122 C2123 1.399 . S
C2122 C2127 1.399 . S
C2123 C2122 1.399 . S
C2123 C2124 1.376 . S
C2124 H2111 0.930 . S
C2124 C2123 1.376 . S
C2124 C2125 1.388 . S
C2125 H2112 0.930 . S
C2125 C2124 1.388 . S
C2125 C2126 1.390 . S
C2126 C2125 1.390 . S
C2126 C2127 1.394 . S
C2126 C2132 1.465 . S
C2127 C2122 1.399 . S
C2127 C2126 1.394 . S
C2127 C2128 1.516 . S
C2128 C2127 1.516 . S
C2128 C2129 1.502 . S
C2128 C2130 1.561 . S
C2128 C2131 1.526 . S
C2129 H2113 0.959 . S
C2129 H2114 0.959 . S
C2129 H2115 0.961 . S
C2129 C2128 1.502 . S
C2130 H2116 0.960 . S
C2130 H2117 0.961 . S
C2130 H2118 0.959 . S
C2130 C2128 1.561 . S
C2131 C2128 1.526 . S
C2131 C2132 1.396 . S
C2131 C2136 1.390 . S
C2132 C2126 1.465 . S
C2132 C2131 1.396 . S
C2132 C2133 1.399 . S
C2133 H2119 0.929 . S
C2133 C2132 1.399 . S
C2133 C2134 1.385 . S
C2134 H2120 0.931 . S
C2134 C2133 1.385 . S
C2134 C2135 1.389 . S
C2135 C2134 1.389 . S
C2135 C2136 1.387 . S
C2136 H2121 0.930 . S
C2136 C2131 1.390 . S
C2136 C2135 1.387 . S
H2137 C2149 0.930 . S
H2138 C2151 0.930 . S
H2139 C2152 0.930 . S
H2140 C2156 0.959 . S
H2141 C2156 0.959 . S
H2142 C2156 0.961 . S
H2143 C2157 0.960 . S
H2144 C2157 0.961 . S
H2145 C2157 0.959 . S
H2146 C2160 0.929 . S
H2147 C2161 0.931 . S
H2148 C2163 0.930 . S
C2149 H2137 0.930 . S
C2149 C2150 1.399 . S
C2149 C2154 1.399 . S
C2150 C2149 1.399 . S
C2150 C2151 1.376 . S
C2151 H2138 0.930 . S
C2151 C2150 1.376 . S
C2151 C2152 1.388 . S
C2152 H2139 0.930 . S
C2152 C2151 1.388 . S
C2152 C2153 1.390 . S
C2153 C2152 1.390 . S
C2153 C2154 1.394 . S
C2153 C2159 1.465 . S
C2154 C2149 1.399 . S
C2154 C2153 1.394 . S
C2154 C2155 1.516 . S
C2155 C2154 1.516 . S
C2155 C2156 1.502 . S
C2155 C2157 1.561 . S
C2155 C2158 1.526 . S
C2156 H2140 0.959 . S
C2156 H2141 0.959 . S
C2156 H2142 0.961 . S
C2156 C2155 1.502 . S
C2157 H2143 0.960 . S
C2157 H2144 0.961 . S
C2157 H2145 0.959 . S
C2157 C2155 1.561 . S
C2158 C2155 1.526 . S
C2158 C2159 1.396 . S
C2158 C2163 1.390 . S
C2159 C2153 1.465 . S
C2159 C2158 1.396 . S
C2159 C2160 1.399 . S
C2160 H2146 0.929 . S
C2160 C2159 1.399 . S
C2160 C2161 1.385 . S
C2161 H2147 0.931 . S
C2161 C2160 1.385 . S
C2161 C2162 1.389 . S
C2162 C2161 1.389 . S
C2162 C2163 1.387 . S
C2163 H2148 0.930 . S
C2163 C2158 1.390 . S
C2163 C2162 1.387 . S
H2164 C2176 0.930 . S
H2165 C2178 0.930 . S
H2166 C2179 0.930 . S
H2167 C2183 0.959 . S
H2168 C2183 0.959 . S
H2169 C2183 0.961 . S
H2170 C2184 0.960 . S
H2171 C2184 0.961 . S
H2172 C2184 0.959 . S
H2173 C2187 0.929 . S
H2174 C2188 0.931 . S
H2175 C2190 0.930 . S
C2176 H2164 0.930 . S
C2176 C2177 1.399 . S
C2176 C2181 1.399 . S
C2177 C2176 1.399 . S
C2177 C2178 1.376 . S
C2178 H2165 0.930 . S
C2178 C2177 1.376 . S
C2178 C2179 1.388 . S
C2179 H2166 0.930 . S
C2179 C2178 1.388 . S
C2179 C2180 1.390 . S
C2180 C2179 1.390 . S
C2180 C2181 1.394 . S
C2180 C2186 1.465 . S
C2181 C2176 1.399 . S
C2181 C2180 1.394 . S
C2181 C2182 1.516 . S
C2182 C2181 1.516 . S
C2182 C2183 1.502 . S
C2182 C2184 1.561 . S
C2182 C2185 1.526 . S
C2183 H2167 0.959 . S
C2183 H2168 0.959 . S
C2183 H2169 0.961 . S
C2183 C2182 1.502 . S
C2184 H2170 0.960 . S
C2184 H2171 0.961 . S
C2184 H2172 0.959 . S
C2184 C2182 1.561 . S
C2185 C2182 1.526 . S
C2185 C2186 1.396 . S
C2185 C2190 1.390 . S
C2186 C2180 1.465 . S
C2186 C2185 1.396 . S
C2186 C2187 1.399 . S
C2187 H2173 0.929 . S
C2187 C2186 1.399 . S
C2187 C2188 1.385 . S
C2188 H2174 0.931 . S
C2188 C2187 1.385 . S
C2188 C2189 1.389 . S
C2189 C2188 1.389 . S
C2189 C2190 1.387 . S
C2190 H2175 0.930 . S
C2190 C2185 1.390 . S
C2190 C2189 1.387 . S
H2191 C2203 0.930 . S
H2192 C2205 0.930 . S
H2193 C2206 0.930 . S
H2194 C2210 0.959 . S
H2195 C2210 0.959 . S
H2196 C2210 0.961 . S
H2197 C2211 0.960 . S
H2198 C2211 0.961 . S
H2199 C2211 0.959 . S
H2200 C2214 0.929 . S
H2201 C2215 0.931 . S
H2202 C2217 0.930 . S
C2203 H2191 0.930 . S
C2203 C2204 1.399 . S
C2203 C2208 1.399 . S
C2204 C2203 1.399 . S
C2204 C2205 1.376 . S
C2205 H2192 0.930 . S
C2205 C2204 1.376 . S
C2205 C2206 1.388 . S
C2206 H2193 0.930 . S
C2206 C2205 1.388 . S
C2206 C2207 1.390 . S
C2207 C2206 1.390 . S
C2207 C2208 1.394 . S
C2207 C2213 1.465 . S
C2208 C2203 1.399 . S
C2208 C2207 1.394 . S
C2208 C2209 1.516 . S
C2209 C2208 1.516 . S
C2209 C2210 1.502 . S
C2209 C2211 1.561 . S
C2209 C2212 1.526 . S
C2210 H2194 0.959 . S
C2210 H2195 0.959 . S
C2210 H2196 0.961 . S
C2210 C2209 1.502 . S
C2211 H2197 0.960 . S
C2211 H2198 0.961 . S
C2211 H2199 0.959 . S
C2211 C2209 1.561 . S
C2212 C2209 1.526 . S
C2212 C2213 1.396 . S
C2212 C2217 1.390 . S
C2213 C2207 1.465 . S
C2213 C2212 1.396 . S
C2213 C2214 1.399 . S
C2214 H2200 0.929 . S
C2214 C2213 1.399 . S
C2214 C2215 1.385 . S
C2215 H2201 0.931 . S
C2215 C2214 1.385 . S
C2215 C2216 1.389 . S
C2216 C2215 1.389 . S
C2216 C2217 1.387 . S
C2217 H2202 0.930 . S
C2217 C2212 1.390 . S
C2217 C2216 1.387 . S
H2218 C2230 0.930 . S
H2219 C2232 0.930 . S
H2220 C2233 0.930 . S
H2221 C2237 0.959 . S
H2222 C2237 0.959 . S
H2223 C2237 0.961 . S
H2224 C2238 0.960 . S
H2225 C2238 0.961 . S
H2226 C2238 0.959 . S
H2227 C2241 0.929 . S
H2228 C2242 0.931 . S
H2229 C2244 0.930 . S
C2230 H2218 0.930 . S
C2230 C2231 1.399 . S
C2230 C2235 1.399 . S
C2231 C2230 1.399 . S
C2231 C2232 1.376 . S
C2232 H2219 0.930 . S
C2232 C2231 1.376 . S
C2232 C2233 1.388 . S
C2233 H2220 0.930 . S
C2233 C2232 1.388 . S
C2233 C2234 1.390 . S
C2234 C2233 1.390 . S
C2234 C2235 1.394 . S
C2234 C2240 1.465 . S
C2235 C2230 1.399 . S
C2235 C2234 1.394 . S
C2235 C2236 1.516 . S
C2236 C2235 1.516 . S
C2236 C2237 1.502 . S
C2236 C2238 1.561 . S
C2236 C2239 1.526 . S
C2237 H2221 0.959 . S
C2237 H2222 0.959 . S
C2237 H2223 0.961 . S
C2237 C2236 1.502 . S
C2238 H2224 0.960 . S
C2238 H2225 0.961 . S
C2238 H2226 0.959 . S
C2238 C2236 1.561 . S
C2239 C2236 1.526 . S
C2239 C2240 1.396 . S
C2239 C2244 1.390 . S
C2240 C2234 1.465 . S
C2240 C2239 1.396 . S
C2240 C2241 1.399 . S
C2241 H2227 0.929 . S
C2241 C2240 1.399 . S
C2241 C2242 1.385 . S
C2242 H2228 0.931 . S
C2242 C2241 1.385 . S
C2242 C2243 1.389 . S
C2243 C2242 1.389 . S
C2243 C2244 1.387 . S
C2244 H2229 0.930 . S
C2244 C2239 1.390 . S
C2244 C2243 1.387 . S
H2245 C2257 0.930 . S
H2246 C2259 0.930 . S
H2247 C2260 0.930 . S
H2248 C2264 0.959 . S
H2249 C2264 0.959 . S
H2250 C2264 0.961 . S
H2251 C2265 0.960 . S
H2252 C2265 0.961 . S
H2253 C2265 0.959 . S
H2254 C2268 0.929 . S
H2255 C2269 0.931 . S
H2256 C2271 0.930 . S
C2257 H2245 0.930 . S
C2257 C2258 1.399 . S
C2257 C2262 1.399 . S
C2258 C2257 1.399 . S
C2258 C2259 1.376 . S
C2259 H2246 0.930 . S
C2259 C2258 1.376 . S
C2259 C2260 1.388 . S
C2260 H2247 0.930 . S
C2260 C2259 1.388 . S
C2260 C2261 1.390 . S
C2261 C2260 1.390 . S
C2261 C2262 1.394 . S
C2261 C2267 1.465 . S
C2262 C2257 1.399 . S
C2262 C2261 1.394 . S
C2262 C2263 1.516 . S
C2263 C2262 1.516 . S
C2263 C2264 1.502 . S
C2263 C2265 1.561 . S
C2263 C2266 1.526 . S
C2264 H2248 0.959 . S
C2264 H2249 0.959 . S
C2264 H2250 0.961 . S
C2264 C2263 1.502 . S
C2265 H2251 0.960 . S
C2265 H2252 0.961 . S
C2265 H2253 0.959 . S
C2265 C2263 1.561 . S
C2266 C2263 1.526 . S
C2266 C2267 1.396 . S
C2266 C2271 1.390 . S
C2267 C2261 1.465 . S
C2267 C2266 1.396 . S
C2267 C2268 1.399 . S
C2268 H2254 0.929 . S
C2268 C2267 1.399 . S
C2268 C2269 1.385 . S
C2269 H2255 0.931 . S
C2269 C2268 1.385 . S
C2269 C2270 1.389 . S
C2270 C2269 1.389 . S
C2270 C2271 1.387 . S
C2271 H2256 0.930 . S
C2271 C2266 1.390 . S
C2271 C2270 1.387 . S
C1421 C29 0.714 . S
C1433 C1201 0.726 . S
C1448 C997 0.695 . S
C1460 C117 0.693 . S
C1475 C1085 0.730 . S
C1487 C225 0.737 . S
C1502 C900 0.740 . S
C1514 C293 0.743 . S
C1529 C401 0.731 . S
C1541 C1340 0.738 . S
C1556 C489 0.705 . S
C1568 C849 0.698 . S
C1583 C1281 0.695 . S
C1595 C548 0.686 . S
C1610 C673 0.710 . S
C1622 C761 0.719 . S
C1637 C409 1.689 . S
C1649 C20 1.680 . S
C1664 C137 1.680 . S
C1676 C469 1.689 . S
C1691 C233 1.690 . S
C1703 C557 1.680 . S
C1718 C636 1.679 . S
C1730 C313 1.690 . S
C1745 C724 1.692 . S
C1757 C937 1.687 . S
C1772 C812 1.695 . S
C1784 C1017 1.682 . S
C1799 C1289 1.677 . S
C1811 C1076 1.688 . S
C1826 C1193 1.681 . S
C1838 C1349 1.683 . S
C1853 C460 1.295 . S
C1865 C49 1.262 . S
C1880 C145 1.285 . S
C1892 C585 1.249 . S
C1907 C205 1.250 . S
C1919 C645 1.287 . S
C1934 C381 1.297 . S
C1946 C321 1.282 . S
C1961 C372 1.268 . S
C1973 C909 1.283 . S
C1988 C196 1.256 . S
C2000 C753 1.244 . S
C2015 C988 1.276 . S
C2027 C577 1.262 . S
C2042 C841 1.278 . S
C2054 C57 1.291 . S
C2069 C733 1.258 . S
C2081 C1105 1.286 . S
C2096 C929 1.254 . S
C2108 C1377 1.281 . S
C2123 C1164 1.296 . S
C2135 C821 1.272 . S
C2150 C1025 1.294 . S
C2162 C1261 1.261 . S
C2177 C1252 1.283 . S
C2189 C108 1.292 . S
C2204 C1173 1.275 . S
C2216 C497 1.288 . S
C2231 C1369 1.263 . S
C2243 C284 1.278 . S
C2258 C1113 1.249 . S
C2270 C665 1.261 . S
