# Generated by pormake.
# Topology uoq, (4)-cn, num edge types: 1
# Building blocks:
#     Node 0, Type 0, BuildingBlock: KUFVIS_clean_sbu_0, # of connection points: 4
#     Node 1, Type 0, BuildingBlock: KUFVIS_clean_sbu_0, # of connection points: 4
#     Node 2, Type 0, BuildingBlock: KUFVIS_clean_sbu_0, # of connection points: 4
#     Node 3, Type 0, BuildingBlock: KUFVIS_clean_sbu_0, # of connection points: 4
#     Node 4, Type 0, BuildingBlock: KUFVIS_clean_sbu_0, # of connection points: 4
#     Node 5, Type 0, BuildingBlock: KUFVIS_clean_sbu_0, # of connection points: 4
#     Node 6, Type 0, BuildingBlock: KUFVIS_clean_sbu_0, # of connection points: 4
#     Node 7, Type 0, BuildingBlock: KUFVIS_clean_sbu_0, # of connection points: 4
#     Node 8, Type 0, BuildingBlock: KUFVIS_clean_sbu_0, # of connection points: 4
#     Node 9, Type 0, BuildingBlock: KUFVIS_clean_sbu_0, # of connection points: 4
#     Node 10, Type 0, BuildingBlock: KUFVIS_clean_sbu_0, # of connection points: 4
#     Node 11, Type 0, BuildingBlock: KUFVIS_clean_sbu_0, # of connection points: 4
#     Edge 12, Type (0, 0), BuildingBlock: AJUNOK_clean_linker_0, # of connection points: 2
#     Edge 13, Type (0, 0), BuildingBlock: AJUNOK_clean_linker_0, # of connection points: 2
#     Edge 14, Type (0, 0), BuildingBlock: AJUNOK_clean_linker_0, # of connection points: 2
#     Edge 15, Type (0, 0), BuildingBlock: AJUNOK_clean_linker_0, # of connection points: 2
#     Edge 16, Type (0, 0), BuildingBlock: AJUNOK_clean_linker_0, # of connection points: 2
#     Edge 17, Type (0, 0), BuildingBlock: AJUNOK_clean_linker_0, # of connection points: 2
#     Edge 18, Type (0, 0), BuildingBlock: AJUNOK_clean_linker_0, # of connection points: 2
#     Edge 19, Type (0, 0), BuildingBlock: AJUNOK_clean_linker_0, # of connection points: 2
#     Edge 20, Type (0, 0), BuildingBlock: AJUNOK_clean_linker_0, # of connection points: 2
#     Edge 21, Type (0, 0), BuildingBlock: AJUNOK_clean_linker_0, # of connection points: 2
#     Edge 22, Type (0, 0), BuildingBlock: AJUNOK_clean_linker_0, # of connection points: 2
#     Edge 23, Type (0, 0), BuildingBlock: AJUNOK_clean_linker_0, # of connection points: 2
#     Edge 24, Type (0, 0), BuildingBlock: AJUNOK_clean_linker_0, # of connection points: 2
#     Edge 25, Type (0, 0), BuildingBlock: AJUNOK_clean_linker_0, # of connection points: 2
#     Edge 26, Type (0, 0), BuildingBlock: AJUNOK_clean_linker_0, # of connection points: 2
#     Edge 27, Type (0, 0), BuildingBlock: AJUNOK_clean_linker_0, # of connection points: 2
#     Edge 28, Type (0, 0), BuildingBlock: AJUNOK_clean_linker_0, # of connection points: 2
#     Edge 29, Type (0, 0), BuildingBlock: AJUNOK_clean_linker_0, # of connection points: 2
#     Edge 30, Type (0, 0), BuildingBlock: AJUNOK_clean_linker_0, # of connection points: 2
#     Edge 31, Type (0, 0), BuildingBlock: AJUNOK_clean_linker_0, # of connection points: 2
#     Edge 32, Type (0, 0), BuildingBlock: AJUNOK_clean_linker_0, # of connection points: 2
#     Edge 33, Type (0, 0), BuildingBlock: AJUNOK_clean_linker_0, # of connection points: 2
#     Edge 34, Type (0, 0), BuildingBlock: AJUNOK_clean_linker_0, # of connection points: 2
#     Edge 35, Type (0, 0), BuildingBlock: AJUNOK_clean_linker_0, # of connection points: 2
# Relax obj value: 0.140
# Max RMSD: 0.132
# Mean RMSD: 0.132
data_MOF--net-uoq--node1-KUFVIS_clean_sbu_0--edge1-AJUNOK_clean_linker_0
_symmetry_space_group_name_H-M    P1
_symmetry_Int_Tables_number       1
_symmetry_cell_setting            triclinic
loop_
_symmetry_equiv_pos_as_xyz
'x, y, z'
_cell_length_a     43.864045
_cell_length_b     43.997888
_cell_length_c     15.746122
_cell_angle_alpha  90.120891
_cell_angle_beta   90.028578
_cell_angle_gamma 120.02612
loop_
_atom_site_label
_atom_site_type_symbol
_atom_site_fract_x
_atom_site_fract_y
_atom_site_fract_z
_atom_type_partial_charge
Mn0 Mn 0.29642 0.44524 0.29105 0.0
Mn1 Mn 0.31968 0.44292 0.49786 0.0
C2 C 0.27404 0.4619 0.40319 0.0
C3 C 0.25933 0.42598 0.16831 0.0
C4 C 0.36633 0.49981 0.37543 0.0
O5 O 0.31666 0.41158 0.28431 0.0
O6 O 0.33174 0.41504 0.42353 0.0
C7 C 0.27141 0.3676 0.53408 0.0
N8 N 0.28361 0.40202 0.55306 0.0
C9 C 0.24907 0.38661 0.68104 0.0
C10 C 0.23624 0.35101 0.66296 0.0
C11 C 0.24731 0.34148 0.5889 0.0
C12 C 0.27291 0.41147 0.62381 0.0
H13 H 0.2802 0.36014 0.47792 0.0
C14 C 0.32995 0.40378 0.34805 0.0
O15 O 0.29242 0.44959 0.16505 0.0
O16 O 0.24854 0.4103 0.24114 0.0
N17 N 0.30919 0.46897 0.5786 0.0
C18 C 0.3253 0.50445 0.58907 0.0
C19 C 0.31683 0.51831 0.65975 0.0
C20 C 0.29249 0.49559 0.71989 0.0
C21 C 0.27704 0.45919 0.70912 0.0
C22 C 0.28645 0.4469 0.63734 0.0
H23 H 0.34431 0.52205 0.54356 0.0
O24 O 0.27526 0.4743 0.32787 0.0
O25 O 0.28618 0.44074 0.4118 0.0
O26 O 0.34628 0.48675 0.31088 0.0
O27 O 0.35841 0.48601 0.44897 0.0
C28 C 0.25286 0.43464 0.7671 0.0
C29 C 0.23888 0.39838 0.75313 0.0
H30 H 0.21768 0.33078 0.70512 0.0
H31 H 0.23747 0.31406 0.57438 0.0
H32 H 0.3291 0.54644 0.66796 0.0
H33 H 0.28598 0.50636 0.77427 0.0
H34 H 0.24491 0.44338 0.82273 0.0
H35 H 0.22029 0.37978 0.79822 0.0
Mn36 Mn 0.84827 0.2985 0.62638 0.0
Mn37 Mn 0.8738 0.31882 0.83382 0.0
C38 C 0.8089 0.27664 0.73783 0.0
C39 C 0.83027 0.2617 0.50373 0.0
C40 C 0.86277 0.36664 0.71784 0.0
O41 O 0.90189 0.31734 0.61837 0.0
O42 O 0.91339 0.33355 0.7565 0.0
C43 C 0.90028 0.26886 0.84893 0.0
N44 N 0.87975 0.28168 0.87862 0.0
C45 C 0.86025 0.24146 0.99625 0.0
C46 C 0.88141 0.22805 0.96722 0.0
C47 C 0.90139 0.24172 0.893 0.0
C48 C 0.86 0.26832 0.94923 0.0
H49 H 0.91563 0.27918 0.79199 0.0
C50 C 0.92308 0.33196 0.68128 0.0
O51 O 0.83955 0.29466 0.50004 0.0
O52 O 0.83476 0.25087 0.57675 0.0
N53 N 0.83853 0.306 0.91987 0.0
C54 C 0.8203 0.32244 0.9412 0.0
C55 C 0.79908 0.31203 1.01413 0.0
C56 C 0.79767 0.28551 0.06619 0.0
C57 C 0.81795 0.27008 0.04546 0.0
C58 C 0.83869 0.28167 0.97199 0.0
H59 H 0.82221 0.34353 0.90329 0.0
O60 O 0.79803 0.27861 0.66263 0.0
O61 O 0.84196 0.28714 0.74642 0.0
O62 O 0.8582 0.34876 0.6501 0.0
O63 O 0.867 0.35727 0.7917 0.0
C64 C 0.81831 0.24356 0.09465 0.0
C65 C 0.83919 0.22902 0.06962 0.0
H66 H 0.88237 0.20716 1.00116 0.0
H67 H 0.91765 0.23141 0.86987 0.0
H68 H 0.78403 0.32458 1.03042 0.0
H69 H 0.78115 0.27739 0.12221 0.0
H70 H 0.80243 0.23402 0.15149 0.0
H71 H 0.83889 0.2083 0.1072 0.0
Mn72 Mn 0.55352 0.85235 0.95337 0.0
Mn73 Mn 0.55749 0.87753 0.16143 0.0
C74 C 0.53649 0.81301 0.06457 0.0
C75 C 0.57242 0.8343 0.83032 0.0
C76 C 0.50079 0.86962 0.0399 0.0
O77 O 0.58807 0.90601 0.94781 0.0
O78 O 0.58635 0.91735 0.08813 0.0
C79 C 0.63262 0.90259 0.19842 0.0
N80 N 0.59794 0.88088 0.21652 0.0
C81 C 0.61241 0.86107 0.34476 0.0
C82 C 0.64828 0.88328 0.32751 0.0
C83 C 0.65841 0.90398 0.25378 0.0
C84 C 0.58791 0.86071 0.28707 0.0
H85 H 0.64054 0.91895 0.1426 0.0
C86 C 0.5972 0.92684 1.01249 0.0
O87 O 0.54898 0.84399 0.82687 0.0
O88 O 0.58786 0.83877 0.90344 0.0
N89 N 0.53055 0.84092 0.24102 0.0
C90 C 0.49491 0.82201 0.25042 0.0
C91 C 0.48044 0.79959 0.32052 0.0
C92 C 0.50274 0.79736 0.38114 0.0
C93 C 0.53934 0.81773 0.37132 0.0
C94 C 0.55224 0.83951 0.29997 0.0
H95 H 0.47764 0.82378 0.20438 0.0
O96 O 0.52362 0.80217 0.98927 0.0
O97 O 0.55823 0.84615 0.07374 0.0
O98 O 0.51274 0.86187 0.97445 0.0
O99 O 0.51497 0.87489 0.1131 0.0
C100 C 0.56352 0.81742 0.42977 0.0
C101 C 0.60003 0.83908 0.41653 0.0
H102 H 0.66825 0.88445 0.37007 0.0
H103 H 0.68603 0.92113 0.23994 0.0
H104 H 0.45216 0.78411 0.3279 0.0
H105 H 0.49149 0.78003 0.43509 0.0
H106 H 0.55432 0.80069 0.48526 0.0
H107 H 0.61835 0.83862 0.46194 0.0
Mn108 Mn 0.69996 0.551 0.28808 0.0
Mn109 Mn 0.67701 0.55455 0.49456 0.0
C110 C 0.7225 0.53487 0.40084 0.0
C111 C 0.73672 0.56968 0.16504 0.0
C112 C 0.63007 0.49722 0.37251 0.0
O113 O 0.6796 0.58456 0.2807 0.0
O114 O 0.66578 0.58289 0.42034 0.0
C115 C 0.72624 0.62964 0.53178 0.0
N116 N 0.71359 0.59513 0.55018 0.0
C117 C 0.74814 0.61003 0.67833 0.0
C118 C 0.76145 0.64571 0.66084 0.0
C119 C 0.75059 0.65555 0.58699 0.0
C120 C 0.72404 0.58539 0.62078 0.0
H121 H 0.71761 0.63733 0.47579 0.0
C122 C 0.66725 0.59347 0.34445 0.0
O123 O 0.70359 0.54619 0.16229 0.0
O124 O 0.74775 0.58578 0.23755 0.0
N125 N 0.68686 0.52803 0.57498 0.0
C126 C 0.67029 0.49252 0.58483 0.0
C127 C 0.67854 0.47836 0.65516 0.0
C128 C 0.70312 0.50083 0.71559 0.0
C129 C 0.71905 0.53728 0.70541 0.0
C130 C 0.70991 0.54987 0.63388 0.0
H131 H 0.65101 0.47513 0.53921 0.0
O132 O 0.72136 0.52225 0.32566 0.0
O133 O 0.71026 0.55598 0.40878 0.0
O134 O 0.65031 0.50932 0.30823 0.0
O135 O 0.63757 0.51184 0.44533 0.0
C136 C 0.74348 0.56162 0.76371 0.0
C137 C 0.75802 0.59795 0.75024 0.0
H138 H 0.78021 0.66578 0.7033 0.0
H139 H 0.7608 0.68303 0.57293 0.0
H140 H 0.66589 0.4502 0.66294 0.0
H141 H 0.70943 0.48983 0.76972 0.0
H142 H 0.75118 0.55267 0.81925 0.0
H143 H 0.77678 0.61636 0.79561 0.0
Mn144 Mn 0.14999 0.70028 0.6236 0.0
Mn145 Mn 0.12368 0.68265 0.83113 0.0
C146 C 0.18947 0.72217 0.73524 0.0
C147 C 0.16838 0.73651 0.49999 0.0
C148 C 0.12999 0.6309 0.71606 0.0
O149 O 0.09638 0.68207 0.61563 0.0
O150 O 0.0844 0.67293 0.75645 0.0
C151 C 0.10603 0.73888 0.85497 0.0
N152 N 0.12359 0.72228 0.88066 0.0
C153 C 0.14659 0.75967 1.00355 0.0
C154 C 0.12859 0.77705 0.97868 0.0
C155 C 0.10838 0.76672 0.90383 0.0
C156 C 0.14342 0.73226 0.95203 0.0
H157 H 0.09038 0.73092 0.79765 0.0
C158 C 0.07531 0.67288 0.67967 0.0
O159 O 0.15872 0.70342 0.49718 0.0
O160 O 0.16405 0.74783 0.57259 0.0
N161 N 0.15925 0.69094 0.91323 0.0
C162 C 0.17638 0.67267 0.92601 0.0
C163 C 0.19824 0.68019 0.99742 0.0
C164 C 0.20194 0.70611 0.05549 0.0
C165 C 0.18361 0.72418 0.0418 0.0
C166 C 0.16198 0.71534 0.96987 0.0
H167 H 0.17366 0.65274 0.88163 0.0
O168 O 0.20022 0.71971 0.66029 0.0
O169 O 0.15652 0.71229 0.74303 0.0
O170 O 0.13938 0.64999 0.64927 0.0
O171 O 0.12359 0.64077 0.78679 0.0
C172 C 0.18636 0.75099 0.09598 0.0
C173 C 0.16804 0.76887 0.07657 0.0
H174 H 0.13035 0.79855 1.01617 0.0
H175 H 0.09457 0.78013 0.88399 0.0
H176 H 0.21229 0.66612 1.00752 0.0
H177 H 0.21909 0.71209 0.11003 0.0
H178 H 0.20291 0.75841 0.152 0.0
H179 H 0.1709 0.78988 0.11776 0.0
Mn180 Mn 0.44543 0.14729 0.95189 0.0
Mn181 Mn 0.4411 0.12209 0.15929 0.0
C182 C 0.46388 0.18702 0.06299 0.0
C183 C 0.4267 0.16519 0.82915 0.0
C184 C 0.49775 0.1297 0.03839 0.0
O185 O 0.41035 0.09353 0.94615 0.0
O186 O 0.4112 0.08239 0.08653 0.0
C187 C 0.36686 0.10253 0.19004 0.0
N188 N 0.40147 0.12112 0.21248 0.0
C189 C 0.38813 0.14477 0.33571 0.0
C190 C 0.35231 0.12573 0.31415 0.0
C191 C 0.34166 0.10465 0.24077 0.0
C192 C 0.41204 0.14178 0.28241 0.0
H193 H 0.35858 0.08623 0.13385 0.0
C194 C 0.40057 0.07278 1.01078 0.0
O195 O 0.4498 0.15504 0.82573 0.0
O196 O 0.41119 0.1609 0.90207 0.0
N197 N 0.46901 0.15827 0.23933 0.0
C198 C 0.50463 0.17562 0.25002 0.0
C199 C 0.51966 0.19814 0.32005 0.0
C200 C 0.49791 0.20216 0.37904 0.0
C201 C 0.46128 0.18337 0.36783 0.0
C202 C 0.4478 0.16113 0.29719 0.0
H203 H 0.52147 0.17237 0.20536 0.0
O204 O 0.47601 0.19761 0.9872 0.0
O205 O 0.44153 0.15405 0.07201 0.0
O206 O 0.48616 0.13806 0.97342 0.0
O207 O 0.48294 0.12296 0.11102 0.0
C208 C 0.43764 0.18615 0.42344 0.0
C209 C 0.40111 0.16704 0.40717 0.0
H210 H 0.3328 0.12731 0.3531 0.0
H211 H 0.31409 0.08999 0.2235 0.0
H212 H 0.54794 0.2124 0.32849 0.0
H213 H 0.5096 0.21978 0.43256 0.0
H214 H 0.44733 0.2033 0.47819 0.0
H215 H 0.38327 0.16987 0.44969 0.0
Mn216 Mn 0.55191 0.70114 0.44076 0.0
Mn217 Mn 0.55776 0.68122 0.23302 0.0
C218 C 0.53683 0.72498 0.32918 0.0
C219 C 0.56932 0.73683 0.56602 0.0
C220 C 0.49836 0.63297 0.34788 0.0
O221 O 0.58557 0.68091 0.449 0.0
O222 O 0.58344 0.66724 0.30923 0.0
C223 C 0.6342 0.72888 0.20733 0.0
N224 N 0.60027 0.71743 0.18369 0.0
C225 C 0.61916 0.75278 0.05726 0.0
C226 C 0.6543 0.76486 0.08014 0.0
C227 C 0.66184 0.75302 0.1558 0.0
C228 C 0.59273 0.72893 0.1115 0.0
H229 H 0.64014 0.71944 0.26464 0.0
C230 C 0.5936 0.66783 0.38523 0.0
O231 O 0.54581 0.70373 0.56669 0.0
O232 O 0.58611 0.74833 0.49471 0.0
N233 N 0.53399 0.69352 0.14981 0.0
C234 C 0.49872 0.67841 0.1352 0.0
C235 C 0.48675 0.68792 0.06278 0.0
C236 C 0.51113 0.71229 1.00522 0.0
C237 C 0.54728 0.7267 1.02021 0.0
C238 C 0.55764 0.71629 0.09358 0.0
H239 H 0.47988 0.6596 0.17908 0.0
O240 O 0.52313 0.72249 0.40355 0.0
O241 O 0.55845 0.71331 0.32094 0.0
O242 O 0.51062 0.65142 0.41532 0.0
O243 O 0.51333 0.64252 0.27587 0.0
C244 C 0.57342 0.75081 0.96497 0.0
C245 C 0.60933 0.76384 0.98343 0.0
H246 H 0.67569 0.78343 0.04049 0.0
H247 H 0.68888 0.76229 0.17401 0.0
H248 H 0.4588 0.6765 0.05137 0.0
H249 H 0.5018 0.71965 0.94966 0.0
H250 H 0.5662 0.75944 0.90803 0.0
H251 H 0.62917 0.78243 0.94052 0.0
Mn252 Mn 0.85178 0.55435 0.77795 0.0
Mn253 Mn 0.87618 0.55613 0.57012 0.0
C254 C 0.81189 0.5371 0.66716 0.0
C255 C 0.83488 0.57414 0.90113 0.0
C256 C 0.86666 0.49983 0.69334 0.0
O257 O 0.90593 0.58806 0.78258 0.0
O258 O 0.91657 0.58487 0.64257 0.0
C259 C 0.9021 0.63095 0.53107 0.0
N260 N 0.87995 0.59632 0.51382 0.0
C261 C 0.85953 0.6103 0.3858 0.0
C262 C 0.88218 0.64611 0.40218 0.0
C263 C 0.9034 0.65646 0.47538 0.0
C264 C 0.85923 0.58608 0.44387 0.0
H265 H 0.91889 0.63902 0.58648 0.0
C266 C 0.9266 0.59605 0.71788 0.0
O267 O 0.84421 0.5505 0.90436 0.0
O268 O 0.83927 0.58943 0.82797 0.0
N269 N 0.83905 0.52908 0.49124 0.0
C270 C 0.81999 0.4935 0.4823 0.0
C271 C 0.79712 0.47884 0.41265 0.0
C272 C 0.79471 0.50087 0.35186 0.0
C273 C 0.81538 0.53739 0.36096 0.0
C274 C 0.83758 0.55049 0.43191 0.0
H275 H 0.82212 0.47643 0.52813 0.0
O276 O 0.80119 0.52515 0.74302 0.0
O277 O 0.84521 0.55827 0.65728 0.0
O278 O 0.85945 0.51256 0.75803 0.0
O279 O 0.873 0.51377 0.61997 0.0
C280 C 0.81503 0.56129 0.30208 0.0
C281 C 0.83708 0.59772 0.3145 0.0
H282 H 0.8833 0.66587 0.35932 0.0
H283 H 0.92089 0.68404 0.48852 0.0
H284 H 0.78151 0.45062 0.40565 0.0
H285 H 0.77705 0.48946 0.29823 0.0
H286 H 0.79798 0.55193 0.24688 0.0
H287 H 0.83657 0.61583 0.26879 0.0
Mn288 Mn 0.29902 0.85077 0.11109 0.0
Mn289 Mn 0.31643 0.87618 0.9031 0.0
C290 C 0.27756 0.81093 1.00028 0.0
C291 C 0.26289 0.83181 0.23503 0.0
C292 C 0.36879 0.87121 1.01877 0.0
O293 O 0.31626 0.90413 0.11783 0.0
O294 O 0.32578 0.91547 0.97688 0.0
C295 C 0.25934 0.89274 0.87866 0.0
N296 N 0.27637 0.87555 0.85338 0.0
C297 C 0.2388 0.85172 0.73095 0.0
C298 C 0.22098 0.86936 0.75537 0.0
C299 C 0.23119 0.88981 0.8298 0.0
C300 C 0.2665 0.85546 0.78249 0.0
H301 H 0.26718 0.90852 0.93568 0.0
C302 C 0.32554 0.92486 0.05326 0.0
O303 O 0.29637 0.84265 0.23747 0.0
O304 O 0.25112 0.83577 0.16263 0.0
N305 N 0.30851 0.84056 0.8218 0.0
C306 C 0.32734 0.82397 0.80925 0.0
C307 C 0.32005 0.802 0.73822 0.0
C308 C 0.29381 0.79768 0.68025 0.0
C309 C 0.27522 0.81552 0.69364 0.0
C310 C 0.28385 0.83728 0.76516 0.0
H311 H 0.34759 0.82724 0.85344 0.0
O312 O 0.28042 0.80068 0.07544 0.0
O313 O 0.28691 0.84361 0.99175 0.0
O314 O 0.3497 0.86218 0.08564 0.0
O315 O 0.3587 0.87695 0.94763 0.0
C316 C 0.24813 0.81218 0.6395 0.0
C317 C 0.22976 0.83007 0.65839 0.0
H318 H 0.19924 0.86714 0.71788 0.0
H319 H 0.21745 0.90334 0.84933 0.0
H320 H 0.33455 0.78836 0.72831 0.0
H321 H 0.28801 0.78045 0.62598 0.0
H322 H 0.24086 0.79548 0.58394 0.0
H323 H 0.20854 0.82674 0.61709 0.0
Mn324 Mn 0.44594 0.29658 0.4412 0.0
Mn325 Mn 0.43978 0.31587 0.2336 0.0
C326 C 0.46315 0.27437 0.32956 0.0
C327 C 0.42727 0.26029 0.56461 0.0
C328 C 0.49934 0.36444 0.34857 0.0
O329 O 0.41155 0.31584 0.44969 0.0
O330 O 0.41499 0.33062 0.311 0.0
C331 C 0.36323 0.26521 0.22003 0.0
N332 N 0.39655 0.27822 0.18972 0.0
C333 C 0.37555 0.23747 0.07258 0.0
C334 C 0.34102 0.22386 0.10222 0.0
C335 C 0.33487 0.23768 0.17652 0.0
C336 C 0.4028 0.26465 0.11919 0.0
H337 H 0.35831 0.27567 0.27705 0.0
C338 C 0.40429 0.32967 0.38651 0.0
O339 O 0.45123 0.29323 0.56757 0.0
O340 O 0.41166 0.24914 0.49181 0.0
N341 N 0.46212 0.30309 0.14718 0.0
C342 C 0.49669 0.32017 0.12443 0.0
C343 C 0.50732 0.30983 0.05102 0.0
C344 C 0.4821 0.28277 0.9998 0.0
C345 C 0.44643 0.26679 1.02175 0.0
C346 C 0.43746 0.2783 0.09571 0.0
H347 H 0.5159 0.34178 0.16144 0.0
O348 O 0.47604 0.27647 0.40477 0.0
O349 O 0.44048 0.28469 0.32112 0.0
O350 O 0.48647 0.34668 0.41651 0.0
O351 O 0.48521 0.35483 0.27506 0.0
C352 C 0.41941 0.23994 0.973 0.0
C353 C 0.38401 0.22504 0.99885 0.0
H354 H 0.31906 0.20272 0.06865 0.0
H355 H 0.3083 0.2272 0.20008 0.0
H356 H 0.53487 0.32289 0.03364 0.0
H357 H 0.49037 0.27475 0.94332 0.0
H358 H 0.42561 0.23052 0.9157 0.0
H359 H 0.36349 0.20414 0.96137 0.0
Mn360 Mn 0.14636 0.44497 0.78057 0.0
Mn361 Mn 0.12123 0.44161 0.5728 0.0
C362 C 0.1859 0.46189 0.66938 0.0
C363 C 0.16359 0.42509 0.903 0.0
C364 C 0.12986 0.49829 0.69518 0.0
O365 O 0.09246 0.41092 0.78601 0.0
O366 O 0.08106 0.41273 0.64584 0.0
C367 C 0.09603 0.36677 0.53476 0.0
N368 N 0.11779 0.40136 0.51699 0.0
C369 C 0.13783 0.38709 0.38868 0.0
C370 C 0.11553 0.3513 0.40555 0.0
C371 C 0.09469 0.34112 0.47919 0.0
C372 C 0.13815 0.41144 0.44662 0.0
H373 H 0.07964 0.35886 0.5905 0.0
C374 C 0.07153 0.40191 0.72151 0.0
O375 O 0.15461 0.449 0.90709 0.0
O376 O 0.15912 0.40999 0.82944 0.0
N377 N 0.15807 0.46856 0.49346 0.0
C378 C 0.17712 0.50411 0.4845 0.0
C379 C 0.19967 0.51862 0.41449 0.0
C380 C 0.20188 0.49645 0.3535 0.0
C381 C 0.18139 0.45995 0.3629 0.0
C382 C 0.15948 0.44701 0.43416 0.0
H383 H 0.17538 0.52127 0.53082 0.0
O384 O 0.19681 0.47438 0.74495 0.0
O385 O 0.1526 0.44049 0.66007 0.0
O386 O 0.13758 0.48621 0.76033 0.0
O387 O 0.12413 0.48403 0.622 0.0
C388 C 0.1817 0.43592 0.3041 0.0
C389 C 0.15993 0.39951 0.317 0.0
H390 H 0.11439 0.33145 0.36277 0.0
H391 H 0.07746 0.31356 0.49281 0.0
H392 H 0.21526 0.54682 0.40747 0.0
H393 H 0.21932 0.50773 0.29964 0.0
H394 H 0.19851 0.44514 0.24863 0.0
H395 H 0.16037 0.38128 0.27144 0.0
Mn396 Mn 0.69942 0.14874 0.11349 0.0
Mn397 Mn 0.68099 0.12387 0.90525 0.0
C398 C 0.72167 0.18844 1.00308 0.0
C399 C 0.73533 0.167 0.23794 0.0
C400 C 0.6315 0.13354 1.0189 0.0
O401 O 0.68098 0.09533 0.12088 0.0
O402 O 0.66603 0.0844 0.98206 0.0
C403 C 0.73201 0.09846 0.89357 0.0
N404 N 0.71894 0.11855 0.86266 0.0
C405 C 0.7599 0.1382 0.7462 0.0
C406 C 0.77358 0.11751 0.77646 0.0
C407 C 0.75969 0.0977 0.85074 0.0
C408 C 0.73257 0.13822 0.79216 0.0
H409 H 0.72148 0.08317 0.95055 0.0
C410 C 0.66696 0.07444 0.05724 0.0
O411 O 0.70199 0.15682 0.23987 0.0
O412 O 0.74699 0.16283 0.16561 0.0
N413 N 0.69404 0.15899 0.81921 0.0
C414 C 0.67714 0.17658 0.79632 0.0
C415 C 0.68762 0.19747 0.72298 0.0
C416 C 0.71464 0.19913 0.672 0.0
C417 C 0.73053 0.17945 0.69429 0.0
C418 C 0.71889 0.15907 0.76816 0.0
H419 H 0.6556 0.17438 0.83325 0.0
O420 O 0.71894 0.19886 0.07824 0.0
O421 O 0.7118 0.15564 0.99393 0.0
O422 O 0.64896 0.13811 0.08742 0.0
O423 O 0.64171 0.12995 0.94539 0.0
C424 C 0.75746 0.17925 0.6461 0.0
C425 C 0.7724 0.15894 0.67247 0.0
H426 H 0.79484 0.11675 0.7434 0.0
H427 H 0.77022 0.08179 0.87478 0.0
H428 H 0.6747 0.21202 0.70545 0.0
H429 H 0.72276 0.21532 0.61556 0.0
H430 H 0.76695 0.19472 0.58886 0.0
H431 H 0.7934 0.15935 0.63538 0.0
C432 C 0.32985 0.3475 0.35813 0.0
C433 C 0.34818 0.38366 0.33974 0.0
C434 C 0.34789 0.33001 0.38342 0.0
C435 C 0.38467 0.34844 0.39472 0.0
H436 H 0.30135 0.3329 0.35532 0.0
H437 H 0.33315 0.30179 0.39171 0.0
S438 S 0.44455 0.4435 0.35791 0.0
N439 N 0.40496 0.4372 0.3361 0.0
N440 N 0.43861 0.40467 0.38509 0.0
C441 C 0.40302 0.38462 0.37784 0.0
C442 C 0.38491 0.40208 0.34989 0.0
C443 C 0.98045 0.38496 0.69705 0.0
C444 C 0.9615 0.34927 0.67389 0.0
C445 C 0.01549 0.40079 0.72415 0.0
C446 C 0.03315 0.38163 0.72956 0.0
H447 H 0.9675 0.40047 0.69744 0.0
H448 H 0.02944 0.42875 0.73732 0.0
S449 S 0.99555 0.2874 0.67705 0.0
N450 N 0.96277 0.29498 0.65992 0.0
N451 N 0.02935 0.32518 0.70833 0.0
C452 C 0.01466 0.34597 0.70642 0.0
C453 C 0.97875 0.32973 0.67901 0.0
C454 C 0.65239 0.98353 1.03104 0.0
C455 C 0.61691 0.9651 1.00477 0.0
C456 C 0.66831 0.01874 0.05827 0.0
C457 C 0.64878 0.03609 0.06372 0.0
H458 H 0.66761 0.9703 1.03286 0.0
H459 H 0.69623 0.03277 0.07252 0.0
S460 S 0.55468 -0.00111 1.00652 0.0
N461 N 0.56275 0.96663 0.9879 0.0
N462 N 0.59216 0.03214 0.04107 0.0
C463 C 0.61317 0.01759 0.03929 0.0
C464 C 0.59744 0.98242 1.00907 0.0
C465 C 0.66773 0.64979 0.35642 0.0
C466 C 0.6493 0.61379 0.33576 0.0
C467 C 0.64978 0.66723 0.3829 0.0
C468 C 0.61299 0.64886 0.39329 0.0
H469 H 0.69624 0.66428 0.35455 0.0
H470 H 0.6646 0.69537 0.39276 0.0
S471 S 0.55284 0.55421 0.35041 0.0
N472 N 0.59241 0.56048 0.32873 0.0
N473 N 0.55889 0.59286 0.38025 0.0
C474 C 0.59453 0.61282 0.37415 0.0
C475 C 0.61255 0.59546 0.34476 0.0
C476 C 0.98293 0.65301 0.71854 0.0
C477 C 0.96512 0.61619 0.72459 0.0
C478 C 0.01858 0.67196 0.69394 0.0
C479 C 0.03695 0.65458 0.67033 0.0
H480 H 0.96901 0.66711 0.73076 0.0
H481 H 0.03216 0.70038 0.6956 0.0
S482 S 0.00191 0.55853 0.6742 0.0
N483 N 0.96853 0.56322 0.70524 0.0
N484 N 0.03478 0.59864 0.6564 0.0
C485 C 0.01912 0.61783 0.67491 0.0
C486 C 0.98352 0.59876 0.70277 0.0
C487 C 0.37973 0.98135 0.04934 0.0
C488 C 0.34306 0.96316 0.06122 0.0
C489 C 0.39757 0.0161 1.02085 0.0
C490 C 0.37964 0.03443 1.00354 0.0
H491 H 0.39459 0.96795 0.05816 0.0
H492 H 0.42604 0.02939 1.01605 0.0
S493 S 0.28362 -0.00099 1.0251 0.0
N494 N 0.28918 0.96571 0.05119 0.0
N495 N 0.32323 0.03219 1.00319 0.0
C496 C 0.34303 0.01678 1.01595 0.0
C497 C 0.32467 0.98097 0.04349 0.0
C498 C 0.22025 0.45244 0.98454 0.0
C499 C 0.18679 0.42293 0.97019 0.0
C500 C 0.24364 0.45226 0.04572 0.0
C501 C 0.2345 0.42289 0.09794 0.0
H502 H 0.22865 0.476 0.94731 0.0
H503 H 0.26886 0.47598 0.05377 0.0
S504 S 0.14968 0.33869 0.08685 0.0
N505 N 0.14583 0.36303 1.01243 0.0
N506 N 0.18896 0.36316 0.13032 0.0
C507 C 0.20092 0.39312 0.08465 0.0
C508 C 0.17737 0.393 1.02019 0.0
C509 C 0.77248 0.23007 0.42723 0.0
C510 C 0.8071 0.23641 0.43665 0.0
C511 C 0.74923 0.20637 0.36595 0.0
C512 C 0.75963 0.18831 0.30944 0.0
H513 H 0.76315 0.24355 0.46809 0.0
H514 H 0.72312 0.20311 0.36118 0.0
S515 S 0.84752 0.19503 0.30868 0.0
N516 N 0.85039 0.22175 0.3862 0.0
N517 N 0.80738 0.17827 0.26891 0.0
C518 C 0.79424 0.19423 0.31868 0.0
C519 C 0.81773 0.21791 0.38268 0.0
C520 C 0.60258 0.81836 0.71266 0.0
C521 C 0.57302 0.80987 0.76407 0.0
C522 C 0.6017 0.79474 0.64945 0.0
C523 C 0.57172 0.76113 0.63726 0.0
H524 H 0.62622 0.84367 0.71997 0.0
H525 H 0.62466 0.8029 0.60981 0.0
S526 S 0.4878 0.7262 0.75732 0.0
N527 N 0.5131 0.76567 0.79798 0.0
N528 N 0.51182 0.72121 0.68399 0.0
C529 C 0.54243 0.75236 0.69001 0.0
C530 C 0.543 0.77666 0.75192 0.0
C531 C 0.79472 0.60281 0.08197 0.0
C532 C 0.76139 0.57249 0.09441 0.0
C533 C 0.81845 0.60407 1.01848 0.0
C534 C 0.81033 0.5746 0.9672 0.0
H535 H 0.80253 0.62573 0.12148 0.0
H536 H 0.84354 0.62793 1.0109 0.0
S537 S 0.72759 0.48859 0.97502 0.0
N538 N 0.72217 0.51238 0.04818 0.0
N539 N 0.76693 0.51433 0.93418 0.0
C540 C 0.77747 0.54423 0.97989 0.0
C541 C 0.75303 0.54327 0.04186 0.0
C542 C 0.22415 0.76442 0.41475 0.0
C543 C 0.19119 0.76133 0.43182 0.0
C544 C 0.24746 0.78833 0.35414 0.0
C545 C 0.23863 0.80974 0.30545 0.0
H546 H 0.23229 0.74848 0.44967 0.0
H547 H 0.27232 0.78926 0.34367 0.0
S548 S 0.15525 0.81168 0.32466 0.0
N549 N 0.1512 0.78241 0.39614 0.0
N550 N 0.19397 0.82586 0.27903 0.0
C551 C 0.20555 0.80672 0.3214 0.0
C552 C 0.1822 0.78303 0.38532 0.0
C553 C 0.45375 0.20718 0.70709 0.0
C554 C 0.42412 0.18711 0.759 0.0
C555 C 0.45438 0.231 0.64641 0.0
C556 C 0.42507 0.23531 0.63238 0.0
H557 H 0.4773 0.20533 0.71501 0.0
H558 H 0.47807 0.24598 0.6092 0.0
S559 S 0.34049 0.18899 0.74908 0.0
N560 N 0.36455 0.17372 0.79205 0.0
N561 N 0.36517 0.21703 0.67474 0.0
C562 C 0.39493 0.21501 0.6822 0.0
C563 C 0.39462 0.19138 0.7462 0.0
C564 C 0.23645 0.49473 0.57123 0.0
C565 C 0.21006 0.4629 0.60513 0.0
C566 C 0.25646 0.49471 0.50186 0.0
C567 C 0.25113 0.46286 0.46821 0.0
H568 H 0.24077 0.5195 0.59654 0.0
H569 H 0.27671 0.51947 0.47618 0.0
S570 S 0.18592 0.37293 0.53732 0.0
N571 N 0.1805 0.39916 0.60282 0.0
N572 N 0.21738 0.3991 0.47146 0.0
C573 C 0.22486 0.43106 0.502 0.0
C574 C 0.20478 0.43109 0.57187 0.0
C575 C 0.79022 0.22847 0.83686 0.0
C576 C 0.78462 0.25463 0.80284 0.0
C577 C 0.77041 0.20843 0.9047 0.0
C578 C 0.74353 0.21307 0.93855 0.0
H579 H 0.81048 0.22375 0.8116 0.0
H580 H 0.77581 0.1887 0.92996 0.0
S581 S 0.71789 0.27757 0.8704 0.0
N582 N 0.75054 0.28437 0.8062 0.0
N583 N 0.71205 0.24544 0.93482 0.0
C584 C 0.73741 0.23907 0.90544 0.0
C585 C 0.75791 0.2598 0.83585 0.0
C586 C 0.50369 0.76258 0.16248 0.0
C587 C 0.53557 0.7889 0.12844 0.0
C588 C 0.50381 0.74262 0.23158 0.0
C589 C 0.53582 0.74795 0.26479 0.0
H590 H 0.47881 0.75825 0.13746 0.0
H591 H 0.47902 0.72234 0.25724 0.0
S592 S 0.62593 0.81331 0.19584 0.0
N593 N 0.59953 0.81852 0.13039 0.0
N594 N 0.59976 0.7819 0.26168 0.0
C595 C 0.56767 0.77428 0.23115 0.0
C596 C 0.56754 0.79424 0.16141 0.0
C597 C 0.74049 0.50289 0.50092 0.0
C598 C 0.74565 0.53445 0.46608 0.0
C599 C 0.7609 0.50346 0.57011 0.0
C600 C 0.7875 0.53558 0.60274 0.0
H601 H 0.7201 0.47792 0.47619 0.0
H602 H 0.7567 0.47892 0.59632 0.0
S603 S 0.81129 0.62495 0.53172 0.0
N604 N 0.77945 0.59822 0.46699 0.0
N605 N 0.81708 0.59928 0.59804 0.0
C606 C 0.7926 0.5671 0.56836 0.0
C607 C 0.77213 0.56653 0.49865 0.0
C608 C 0.20873 0.77069 0.83407 0.0
C609 C 0.21395 0.74423 0.80031 0.0
C610 C 0.22862 0.79074 0.90208 0.0
C611 C 0.25549 0.78608 0.93586 0.0
H612 H 0.18864 0.77562 0.80858 0.0
H613 H 0.22331 0.81056 0.92738 0.0
S614 S 0.2803 0.72082 0.86829 0.0
N615 N 0.2477 0.71415 0.80386 0.0
N616 N 0.28645 0.7532 0.93261 0.0
C617 C 0.26127 0.75979 0.90298 0.0
C618 C 0.24058 0.73894 0.83339 0.0
C619 C 0.43438 0.20586 0.16257 0.0
C620 C 0.46617 0.21144 0.12802 0.0
C621 C 0.43422 0.22577 0.23052 0.0
C622 C 0.46582 0.25267 0.26409 0.0
H623 H 0.40933 0.18555 0.13763 0.0
H624 H 0.40907 0.22039 0.25617 0.0
S625 S 0.55604 0.27898 0.19307 0.0
N626 N 0.53009 0.2461 0.12944 0.0
N627 N 0.52977 0.28454 0.25864 0.0
C628 C 0.49795 0.25892 0.23011 0.0
C629 C 0.49812 0.2384 0.16027 0.0
C630 C 0.41858 0.55241 0.43872 0.0
C631 C 0.40021 0.53325 0.36596 0.0
C632 C 0.45011 0.58448 0.43226 0.0
C633 C 0.46493 0.59871 0.35276 0.0
H634 H 0.40842 0.54284 0.50166 0.0
H635 H 0.46295 0.59811 0.49037 0.0
S636 S 0.42797 0.55831 0.14217 0.0
N637 N 0.39962 0.53057 0.2116 0.0
N638 N 0.45897 0.59044 0.19908 0.0
C639 C 0.4471 0.57953 0.27927 0.0
C640 C 0.41478 0.54699 0.28595 0.0
C641 C 0.88939 0.45963 0.65503 0.0
C642 C 0.86589 0.46609 0.70203 0.0
C643 C 0.88802 0.42713 0.65963 0.0
C644 C 0.86297 0.40007 0.71087 0.0
H645 H 0.90914 0.47993 0.615 0.0
H646 H 0.9069 0.42326 0.62378 0.0
S647 S 0.79245 0.40197 0.83629 0.0
N648 N 0.81517 0.4418 0.79595 0.0
N649 N 0.81195 0.38048 0.80199 0.0
C650 C 0.83867 0.4058 0.75577 0.0
C651 C 0.84031 0.43893 0.75208 0.0
C652 C 0.44803 0.86799 0.10533 0.0
C653 C 0.46818 0.87176 1.03234 0.0
C654 C 0.41644 0.86852 0.10047 0.0
C655 C 0.40374 0.87333 1.02253 0.0
H656 H 0.45628 0.86391 0.16701 0.0
H657 H 0.40174 0.86474 0.15853 0.0
S658 S 0.44852 0.88799 0.81337 0.0
N659 N 0.47438 0.88265 0.88037 0.0
N660 N 0.41542 0.88438 0.87083 0.0
C661 C 0.42438 0.8785 0.94924 0.0
C662 C 0.4564 0.87749 0.95422 0.0
C663 C 0.56682 0.45755 0.4106 0.0
C664 C 0.59672 0.46356 0.36391 0.0
C665 C 0.53532 0.42521 0.40595 0.0
C666 C 0.53283 0.39786 0.35486 0.0
H667 H 0.5677 0.47806 0.45052 0.0
H668 H 0.5127 0.42169 0.44179 0.0
S669 S 0.60473 0.39854 0.22976 0.0
N670 N 0.62245 0.4385 0.27011 0.0
N671 N 0.56367 0.37753 0.26393 0.0
C672 C 0.56275 0.40315 0.31009 0.0
C673 C 0.59462 0.4361 0.31389 0.0
C674 C 0.13176 0.5828 0.63449 0.0
C675 C 0.12785 0.59602 0.71261 0.0
C676 C 0.13178 0.55103 0.62968 0.0
C677 C 0.1284 0.53121 0.7029 0.0
H678 H 0.13509 0.59715 0.57619 0.0
H679 H 0.13507 0.54233 0.56776 0.0
S680 S 0.1149 0.55258 0.92279 0.0
N681 N 0.11829 0.58536 0.86498 0.0
N682 N 0.11917 0.52614 0.85556 0.0
C683 C 0.12374 0.54363 0.78133 0.0
C684 C 0.1232 0.57581 0.78625 0.0
C685 C 0.57026 0.10786 0.07431 0.0
C686 C 0.59781 0.13309 1.0244 0.0
C687 C 0.53764 0.10655 0.07789 0.0
C688 C 0.53158 0.13029 1.03112 0.0
H689 H 0.57384 0.08885 0.11 0.0
H690 H 0.51696 0.08671 0.11697 0.0
S691 S 0.59714 0.2043 0.90065 0.0
N692 N 0.6183 0.18451 0.93509 0.0
N693 N 0.55687 0.18149 0.93922 0.0
C694 C 0.55929 0.15607 0.98253 0.0
C695 C 0.59248 0.15762 0.97987 0.0
loop_
_geom_bond_atom_site_label_1
_geom_bond_atom_site_label_2
_geom_bond_distance
_geom_bond_site_symmetry_2
_ccdc_geom_bond_type
Mn0 O5 2.095 . S
Mn0 O15 2.162 . S
Mn0 O16 2.297 . S
Mn0 O24 2.385 . S
Mn0 O25 2.209 . S
Mn0 O26 2.094 . S
Mn1 O6 2.121 . S
Mn1 N8 2.257 . S
Mn1 N17 2.282 . S
Mn1 O25 2.215 . S
Mn1 O27 2.117 . S
C2 O24 1.234 . S
C2 O25 1.283 . S
C3 O15 1.281 . S
C3 O16 1.236 . S
C4 O26 1.240 . S
C4 O27 1.264 . S
O5 Mn0 2.095 . S
O5 C14 1.250 . S
O6 Mn1 2.121 . S
O6 C14 1.258 . S
C7 N8 1.326 . S
C7 C11 1.460 . S
C7 H13 0.929 . S
N8 Mn1 2.257 . S
N8 C7 1.326 . S
N8 C12 1.362 . S
C9 C10 1.258 . S
C9 C12 1.431 . S
C9 C29 1.449 . S
C10 C9 1.258 . S
C10 C11 1.477 . S
C10 H30 0.931 . S
C11 C7 1.460 . S
C11 C10 1.477 . S
C11 H31 0.930 . S
C12 N8 1.362 . S
C12 C9 1.431 . S
C12 C22 1.476 . S
H13 C7 0.929 . S
C14 O5 1.250 . S
C14 O6 1.258 . S
O15 Mn0 2.162 . S
O15 C3 1.281 . S
O16 Mn0 2.297 . S
O16 C3 1.236 . S
N17 Mn1 2.282 . S
N17 C18 1.328 . S
N17 C22 1.318 . S
C18 N17 1.328 . S
C18 C19 1.457 . S
C18 H23 0.929 . S
C19 C18 1.457 . S
C19 C20 1.291 . S
C19 H32 0.931 . S
C20 C19 1.291 . S
C20 C21 1.373 . S
C20 H33 0.929 . S
C21 C20 1.373 . S
C21 C22 1.396 . S
C21 C28 1.403 . S
C22 C12 1.476 . S
C22 N17 1.318 . S
C22 C21 1.396 . S
H23 C18 0.929 . S
O24 Mn0 2.385 . S
O24 C2 1.234 . S
O25 Mn0 2.209 . S
O25 Mn1 2.215 . S
O25 C2 1.283 . S
O26 Mn0 2.094 . S
O26 C4 1.240 . S
O27 Mn1 2.117 . S
O27 C4 1.264 . S
C28 C21 1.403 . S
C28 C29 1.399 . S
C28 H34 0.929 . S
C29 C9 1.449 . S
C29 C28 1.399 . S
C29 H35 0.930 . S
H30 C10 0.931 . S
H31 C11 0.930 . S
H32 C19 0.931 . S
H33 C20 0.929 . S
H34 C28 0.929 . S
H35 C29 0.930 . S
Mn36 O41 2.095 . S
Mn36 O51 2.162 . S
Mn36 O52 2.297 . S
Mn36 O60 2.385 . S
Mn36 O61 2.209 . S
Mn36 O62 2.094 . S
Mn37 O42 2.121 . S
Mn37 N44 2.257 . S
Mn37 N53 2.282 . S
Mn37 O61 2.215 . S
Mn37 O63 2.117 . S
C38 O60 1.234 . S
C38 O61 1.283 . S
C39 O51 1.281 . S
C39 O52 1.236 . S
C40 O62 1.240 . S
C40 O63 1.264 . S
O41 Mn36 2.095 . S
O41 C50 1.250 . S
O42 Mn37 2.121 . S
O42 C50 1.258 . S
C43 N44 1.326 . S
C43 C47 1.460 . S
C43 H49 0.929 . S
N44 Mn37 2.257 . S
N44 C43 1.326 . S
N44 C48 1.362 . S
C45 C46 1.258 . S
C45 C48 1.431 1_554 S
C45 C65 1.449 . S
C46 C45 1.258 . S
C46 C47 1.477 1_554 S
C46 H66 0.931 . S
C47 C43 1.460 . S
C47 C46 1.477 1_556 S
C47 H67 0.930 . S
C48 N44 1.362 . S
C48 C45 1.431 1_556 S
C48 C58 1.476 . S
H49 C43 0.929 . S
C50 O41 1.250 . S
C50 O42 1.258 . S
O51 Mn36 2.162 . S
O51 C39 1.281 . S
O52 Mn36 2.297 . S
O52 C39 1.236 . S
N53 Mn37 2.282 . S
N53 C54 1.328 . S
N53 C58 1.318 . S
C54 N53 1.328 . S
C54 C55 1.457 . S
C54 H59 0.929 . S
C55 C54 1.457 . S
C55 C56 1.291 . S
C55 H68 0.931 . S
C56 C55 1.291 . S
C56 C57 1.373 1_556 S
C56 H69 0.929 1_556 S
C57 C56 1.373 1_554 S
C57 C58 1.396 1_554 S
C57 C64 1.403 . S
C58 C48 1.476 . S
C58 N53 1.318 . S
C58 C57 1.396 1_556 S
H59 C54 0.929 . S
O60 Mn36 2.385 . S
O60 C38 1.234 . S
O61 Mn36 2.209 . S
O61 Mn37 2.215 . S
O61 C38 1.283 . S
O62 Mn36 2.094 . S
O62 C40 1.240 . S
O63 Mn37 2.117 . S
O63 C40 1.264 . S
C64 C57 1.403 . S
C64 C65 1.399 . S
C64 H70 0.929 . S
C65 C45 1.449 . S
C65 C64 1.399 . S
C65 H71 0.930 . S
H66 C46 0.931 . S
H67 C47 0.930 . S
H68 C55 0.931 . S
H69 C56 0.929 1_554 S
H70 C64 0.929 . S
H71 C65 0.930 . S
Mn72 O77 2.095 . S
Mn72 O87 2.162 . S
Mn72 O88 2.297 . S
Mn72 O96 2.385 . S
Mn72 O97 2.209 1_556 S
Mn72 O98 2.094 . S
Mn73 O78 2.121 . S
Mn73 N80 2.257 . S
Mn73 N89 2.282 . S
Mn73 O97 2.215 . S
Mn73 O99 2.117 . S
C74 O96 1.234 1_554 S
C74 O97 1.283 . S
C75 O87 1.281 . S
C75 O88 1.236 . S
C76 O98 1.240 1_554 S
C76 O99 1.264 . S
O77 Mn72 2.095 . S
O77 C86 1.250 . S
O78 Mn73 2.121 . S
O78 C86 1.258 1_554 S
C79 N80 1.326 . S
C79 C83 1.460 . S
C79 H85 0.929 . S
N80 Mn73 2.257 . S
N80 C79 1.326 . S
N80 C84 1.362 . S
C81 C82 1.258 . S
C81 C84 1.431 . S
C81 C101 1.449 . S
C82 C81 1.258 . S
C82 C83 1.477 . S
C82 H102 0.931 . S
C83 C79 1.460 . S
C83 C82 1.477 . S
C83 H103 0.930 . S
C84 N80 1.362 . S
C84 C81 1.431 . S
C84 C94 1.476 . S
H85 C79 0.929 . S
C86 O77 1.250 . S
C86 O78 1.258 1_556 S
O87 Mn72 2.162 . S
O87 C75 1.281 . S
O88 Mn72 2.297 . S
O88 C75 1.236 . S
N89 Mn73 2.282 . S
N89 C90 1.328 . S
N89 C94 1.318 . S
C90 N89 1.328 . S
C90 C91 1.457 . S
C90 H95 0.929 . S
C91 C90 1.457 . S
C91 C92 1.291 . S
C91 H104 0.931 . S
C92 C91 1.291 . S
C92 C93 1.373 . S
C92 H105 0.929 . S
C93 C92 1.373 . S
C93 C94 1.396 . S
C93 C100 1.403 . S
C94 C84 1.476 . S
C94 N89 1.318 . S
C94 C93 1.396 . S
H95 C90 0.929 . S
O96 Mn72 2.385 . S
O96 C74 1.234 1_556 S
O97 Mn72 2.209 1_554 S
O97 Mn73 2.215 . S
O97 C74 1.283 . S
O98 Mn72 2.094 . S
O98 C76 1.240 1_556 S
O99 Mn73 2.117 . S
O99 C76 1.264 . S
C100 C93 1.403 . S
C100 C101 1.399 . S
C100 H106 0.929 . S
C101 C81 1.449 . S
C101 C100 1.399 . S
C101 H107 0.930 . S
H102 C82 0.931 . S
H103 C83 0.930 . S
H104 C91 0.931 . S
H105 C92 0.929 . S
H106 C100 0.929 . S
H107 C101 0.930 . S
Mn108 O113 2.095 . S
Mn108 O123 2.162 . S
Mn108 O124 2.297 . S
Mn108 O132 2.385 . S
Mn108 O133 2.209 . S
Mn108 O134 2.094 . S
Mn109 O114 2.121 . S
Mn109 N116 2.257 . S
Mn109 N125 2.282 . S
Mn109 O133 2.215 . S
Mn109 O135 2.117 . S
C110 O132 1.234 . S
C110 O133 1.283 . S
C111 O123 1.281 . S
C111 O124 1.236 . S
C112 O134 1.240 . S
C112 O135 1.264 . S
O113 Mn108 2.095 . S
O113 C122 1.250 . S
O114 Mn109 2.121 . S
O114 C122 1.258 . S
C115 N116 1.326 . S
C115 C119 1.460 . S
C115 H121 0.929 . S
N116 Mn109 2.257 . S
N116 C115 1.326 . S
N116 C120 1.362 . S
C117 C118 1.258 . S
C117 C120 1.431 . S
C117 C137 1.449 . S
C118 C117 1.258 . S
C118 C119 1.477 . S
C118 H138 0.931 . S
C119 C115 1.460 . S
C119 C118 1.477 . S
C119 H139 0.930 . S
C120 N116 1.362 . S
C120 C117 1.431 . S
C120 C130 1.476 . S
H121 C115 0.929 . S
C122 O113 1.250 . S
C122 O114 1.258 . S
O123 Mn108 2.162 . S
O123 C111 1.281 . S
O124 Mn108 2.297 . S
O124 C111 1.236 . S
N125 Mn109 2.282 . S
N125 C126 1.328 . S
N125 C130 1.318 . S
C126 N125 1.328 . S
C126 C127 1.457 . S
C126 H131 0.929 . S
C127 C126 1.457 . S
C127 C128 1.291 . S
C127 H140 0.931 . S
C128 C127 1.291 . S
C128 C129 1.373 . S
C128 H141 0.929 . S
C129 C128 1.373 . S
C129 C130 1.396 . S
C129 C136 1.403 . S
C130 C120 1.476 . S
C130 N125 1.318 . S
C130 C129 1.396 . S
H131 C126 0.929 . S
O132 Mn108 2.385 . S
O132 C110 1.234 . S
O133 Mn108 2.209 . S
O133 Mn109 2.215 . S
O133 C110 1.283 . S
O134 Mn108 2.094 . S
O134 C112 1.240 . S
O135 Mn109 2.117 . S
O135 C112 1.264 . S
C136 C129 1.403 . S
C136 C137 1.399 . S
C136 H142 0.929 . S
C137 C117 1.449 . S
C137 C136 1.399 . S
C137 H143 0.930 . S
H138 C118 0.931 . S
H139 C119 0.930 . S
H140 C127 0.931 . S
H141 C128 0.929 . S
H142 C136 0.929 . S
H143 C137 0.930 . S
Mn144 O149 2.095 . S
Mn144 O159 2.162 . S
Mn144 O160 2.297 . S
Mn144 O168 2.385 . S
Mn144 O169 2.209 . S
Mn144 O170 2.094 . S
Mn145 O150 2.121 . S
Mn145 N152 2.257 . S
Mn145 N161 2.282 . S
Mn145 O169 2.215 . S
Mn145 O171 2.117 . S
C146 O168 1.234 . S
C146 O169 1.283 . S
C147 O159 1.281 . S
C147 O160 1.236 . S
C148 O170 1.240 . S
C148 O171 1.264 . S
O149 Mn144 2.095 . S
O149 C158 1.250 . S
O150 Mn145 2.121 . S
O150 C158 1.258 . S
C151 N152 1.326 . S
C151 C155 1.460 . S
C151 H157 0.929 . S
N152 Mn145 2.257 . S
N152 C151 1.326 . S
N152 C156 1.362 . S
C153 C154 1.258 . S
C153 C156 1.431 1_554 S
C153 C173 1.449 . S
C154 C153 1.258 . S
C154 C155 1.477 1_554 S
C154 H174 0.931 . S
C155 C151 1.460 . S
C155 C154 1.477 1_556 S
C155 H175 0.930 . S
C156 N152 1.362 . S
C156 C153 1.431 1_556 S
C156 C166 1.476 . S
H157 C151 0.929 . S
C158 O149 1.250 . S
C158 O150 1.258 . S
O159 Mn144 2.162 . S
O159 C147 1.281 . S
O160 Mn144 2.297 . S
O160 C147 1.236 . S
N161 Mn145 2.282 . S
N161 C162 1.328 . S
N161 C166 1.318 . S
C162 N161 1.328 . S
C162 C163 1.457 . S
C162 H167 0.929 . S
C163 C162 1.457 . S
C163 C164 1.291 . S
C163 H176 0.931 . S
C164 C163 1.291 . S
C164 C165 1.373 1_556 S
C164 H177 0.929 1_556 S
C165 C164 1.373 1_554 S
C165 C166 1.396 1_554 S
C165 C172 1.403 . S
C166 C156 1.476 . S
C166 N161 1.318 . S
C166 C165 1.396 1_556 S
H167 C162 0.929 . S
O168 Mn144 2.385 . S
O168 C146 1.234 . S
O169 Mn144 2.209 . S
O169 Mn145 2.215 . S
O169 C146 1.283 . S
O170 Mn144 2.094 . S
O170 C148 1.240 . S
O171 Mn145 2.117 . S
O171 C148 1.264 . S
C172 C165 1.403 . S
C172 C173 1.399 . S
C172 H178 0.929 . S
C173 C153 1.449 . S
C173 C172 1.399 . S
C173 H179 0.930 . S
H174 C154 0.931 . S
H175 C155 0.930 . S
H176 C163 0.931 . S
H177 C164 0.929 1_554 S
H178 C172 0.929 . S
H179 C173 0.930 . S
Mn180 O185 2.095 . S
Mn180 O195 2.162 . S
Mn180 O196 2.297 . S
Mn180 O204 2.385 . S
Mn180 O205 2.209 1_556 S
Mn180 O206 2.094 . S
Mn181 O186 2.121 . S
Mn181 N188 2.257 . S
Mn181 N197 2.282 . S
Mn181 O205 2.215 . S
Mn181 O207 2.117 . S
C182 O204 1.234 1_554 S
C182 O205 1.283 . S
C183 O195 1.281 . S
C183 O196 1.236 . S
C184 O206 1.240 1_554 S
C184 O207 1.264 . S
O185 Mn180 2.095 . S
O185 C194 1.250 . S
O186 Mn181 2.121 . S
O186 C194 1.258 1_554 S
C187 N188 1.326 . S
C187 C191 1.460 . S
C187 H193 0.929 . S
N188 Mn181 2.257 . S
N188 C187 1.326 . S
N188 C192 1.362 . S
C189 C190 1.258 . S
C189 C192 1.431 . S
C189 C209 1.449 . S
C190 C189 1.258 . S
C190 C191 1.477 . S
C190 H210 0.931 . S
C191 C187 1.460 . S
C191 C190 1.477 . S
C191 H211 0.930 . S
C192 N188 1.362 . S
C192 C189 1.431 . S
C192 C202 1.476 . S
H193 C187 0.929 . S
C194 O185 1.250 . S
C194 O186 1.258 1_556 S
O195 Mn180 2.162 . S
O195 C183 1.281 . S
O196 Mn180 2.297 . S
O196 C183 1.236 . S
N197 Mn181 2.282 . S
N197 C198 1.328 . S
N197 C202 1.318 . S
C198 N197 1.328 . S
C198 C199 1.457 . S
C198 H203 0.929 . S
C199 C198 1.457 . S
C199 C200 1.291 . S
C199 H212 0.931 . S
C200 C199 1.291 . S
C200 C201 1.373 . S
C200 H213 0.929 . S
C201 C200 1.373 . S
C201 C202 1.396 . S
C201 C208 1.403 . S
C202 C192 1.476 . S
C202 N197 1.318 . S
C202 C201 1.396 . S
H203 C198 0.929 . S
O204 Mn180 2.385 . S
O204 C182 1.234 1_556 S
O205 Mn180 2.209 1_554 S
O205 Mn181 2.215 . S
O205 C182 1.283 . S
O206 Mn180 2.094 . S
O206 C184 1.240 1_556 S
O207 Mn181 2.117 . S
O207 C184 1.264 . S
C208 C201 1.403 . S
C208 C209 1.399 . S
C208 H214 0.929 . S
C209 C189 1.449 . S
C209 C208 1.399 . S
C209 H215 0.930 . S
H210 C190 0.931 . S
H211 C191 0.930 . S
H212 C199 0.931 . S
H213 C200 0.929 . S
H214 C208 0.929 . S
H215 C209 0.930 . S
Mn216 O221 2.095 . S
Mn216 O231 2.162 . S
Mn216 O232 2.297 . S
Mn216 O240 2.385 . S
Mn216 O241 2.209 . S
Mn216 O242 2.094 . S
Mn217 O222 2.121 . S
Mn217 N224 2.257 . S
Mn217 N233 2.282 . S
Mn217 O241 2.215 . S
Mn217 O243 2.117 . S
C218 O240 1.234 . S
C218 O241 1.283 . S
C219 O231 1.281 . S
C219 O232 1.236 . S
C220 O242 1.240 . S
C220 O243 1.264 . S
O221 Mn216 2.095 . S
O221 C230 1.250 . S
O222 Mn217 2.121 . S
O222 C230 1.258 . S
C223 N224 1.326 . S
C223 C227 1.460 . S
C223 H229 0.929 . S
N224 Mn217 2.257 . S
N224 C223 1.326 . S
N224 C228 1.362 . S
C225 C226 1.258 . S
C225 C228 1.431 1_556 S
C225 C245 1.449 . S
C226 C225 1.258 . S
C226 C227 1.477 1_556 S
C226 H246 0.931 . S
C227 C223 1.460 . S
C227 C226 1.477 1_554 S
C227 H247 0.930 . S
C228 N224 1.362 . S
C228 C225 1.431 1_554 S
C228 C238 1.476 . S
H229 C223 0.929 . S
C230 O221 1.250 . S
C230 O222 1.258 . S
O231 Mn216 2.162 . S
O231 C219 1.281 . S
O232 Mn216 2.297 . S
O232 C219 1.236 . S
N233 Mn217 2.282 . S
N233 C234 1.328 . S
N233 C238 1.318 . S
C234 N233 1.328 . S
C234 C235 1.457 . S
C234 H239 0.929 . S
C235 C234 1.457 . S
C235 C236 1.291 . S
C235 H248 0.931 . S
C236 C235 1.291 . S
C236 C237 1.373 1_554 S
C236 H249 0.929 1_554 S
C237 C236 1.373 1_556 S
C237 C238 1.396 1_556 S
C237 C244 1.403 . S
C238 C228 1.476 . S
C238 N233 1.318 . S
C238 C237 1.396 1_554 S
H239 C234 0.929 . S
O240 Mn216 2.385 . S
O240 C218 1.234 . S
O241 Mn216 2.209 . S
O241 Mn217 2.215 . S
O241 C218 1.283 . S
O242 Mn216 2.094 . S
O242 C220 1.240 . S
O243 Mn217 2.117 . S
O243 C220 1.264 . S
C244 C237 1.403 . S
C244 C245 1.399 . S
C244 H250 0.929 . S
C245 C225 1.449 . S
C245 C244 1.399 . S
C245 H251 0.930 . S
H246 C226 0.931 . S
H247 C227 0.930 . S
H248 C235 0.931 . S
H249 C236 0.929 1_556 S
H250 C244 0.929 . S
H251 C245 0.930 . S
Mn252 O257 2.095 . S
Mn252 O267 2.162 . S
Mn252 O268 2.297 . S
Mn252 O276 2.385 . S
Mn252 O277 2.209 . S
Mn252 O278 2.094 . S
Mn253 O258 2.121 . S
Mn253 N260 2.257 . S
Mn253 N269 2.282 . S
Mn253 O277 2.215 . S
Mn253 O279 2.117 . S
C254 O276 1.234 . S
C254 O277 1.283 . S
C255 O267 1.281 . S
C255 O268 1.236 . S
C256 O278 1.240 . S
C256 O279 1.264 . S
O257 Mn252 2.095 . S
O257 C266 1.250 . S
O258 Mn253 2.121 . S
O258 C266 1.258 . S
C259 N260 1.326 . S
C259 C263 1.460 . S
C259 H265 0.929 . S
N260 Mn253 2.257 . S
N260 C259 1.326 . S
N260 C264 1.362 . S
C261 C262 1.258 . S
C261 C264 1.431 . S
C261 C281 1.449 . S
C262 C261 1.258 . S
C262 C263 1.477 . S
C262 H282 0.931 . S
C263 C259 1.460 . S
C263 C262 1.477 . S
C263 H283 0.930 . S
C264 N260 1.362 . S
C264 C261 1.431 . S
C264 C274 1.476 . S
H265 C259 0.929 . S
C266 O257 1.250 . S
C266 O258 1.258 . S
O267 Mn252 2.162 . S
O267 C255 1.281 . S
O268 Mn252 2.297 . S
O268 C255 1.236 . S
N269 Mn253 2.282 . S
N269 C270 1.328 . S
N269 C274 1.318 . S
C270 N269 1.328 . S
C270 C271 1.457 . S
C270 H275 0.929 . S
C271 C270 1.457 . S
C271 C272 1.291 . S
C271 H284 0.931 . S
C272 C271 1.291 . S
C272 C273 1.373 . S
C272 H285 0.929 . S
C273 C272 1.373 . S
C273 C274 1.396 . S
C273 C280 1.403 . S
C274 C264 1.476 . S
C274 N269 1.318 . S
C274 C273 1.396 . S
H275 C270 0.929 . S
O276 Mn252 2.385 . S
O276 C254 1.234 . S
O277 Mn252 2.209 . S
O277 Mn253 2.215 . S
O277 C254 1.283 . S
O278 Mn252 2.094 . S
O278 C256 1.240 . S
O279 Mn253 2.117 . S
O279 C256 1.264 . S
C280 C273 1.403 . S
C280 C281 1.399 . S
C280 H286 0.929 . S
C281 C261 1.449 . S
C281 C280 1.399 . S
C281 H287 0.930 . S
H282 C262 0.931 . S
H283 C263 0.930 . S
H284 C271 0.931 . S
H285 C272 0.929 . S
H286 C280 0.929 . S
H287 C281 0.930 . S
Mn288 O293 2.095 . S
Mn288 O303 2.162 . S
Mn288 O304 2.297 . S
Mn288 O312 2.385 . S
Mn288 O313 2.209 1_554 S
Mn288 O314 2.094 . S
Mn289 O294 2.121 . S
Mn289 N296 2.257 . S
Mn289 N305 2.282 . S
Mn289 O313 2.215 . S
Mn289 O315 2.117 . S
C290 O312 1.234 1_556 S
C290 O313 1.283 . S
C291 O303 1.281 . S
C291 O304 1.236 . S
C292 O314 1.240 1_556 S
C292 O315 1.264 . S
O293 Mn288 2.095 . S
O293 C302 1.250 . S
O294 Mn289 2.121 . S
O294 C302 1.258 1_556 S
C295 N296 1.326 . S
C295 C299 1.460 . S
C295 H301 0.929 . S
N296 Mn289 2.257 . S
N296 C295 1.326 . S
N296 C300 1.362 . S
C297 C298 1.258 . S
C297 C300 1.431 . S
C297 C317 1.449 . S
C298 C297 1.258 . S
C298 C299 1.477 . S
C298 H318 0.931 . S
C299 C295 1.460 . S
C299 C298 1.477 . S
C299 H319 0.930 . S
C300 N296 1.362 . S
C300 C297 1.431 . S
C300 C310 1.476 . S
H301 C295 0.929 . S
C302 O293 1.250 . S
C302 O294 1.258 1_554 S
O303 Mn288 2.162 . S
O303 C291 1.281 . S
O304 Mn288 2.297 . S
O304 C291 1.236 . S
N305 Mn289 2.282 . S
N305 C306 1.328 . S
N305 C310 1.318 . S
C306 N305 1.328 . S
C306 C307 1.457 . S
C306 H311 0.929 . S
C307 C306 1.457 . S
C307 C308 1.291 . S
C307 H320 0.931 . S
C308 C307 1.291 . S
C308 C309 1.373 . S
C308 H321 0.929 . S
C309 C308 1.373 . S
C309 C310 1.396 . S
C309 C316 1.403 . S
C310 C300 1.476 . S
C310 N305 1.318 . S
C310 C309 1.396 . S
H311 C306 0.929 . S
O312 Mn288 2.385 . S
O312 C290 1.234 1_554 S
O313 Mn288 2.209 1_556 S
O313 Mn289 2.215 . S
O313 C290 1.283 . S
O314 Mn288 2.094 . S
O314 C292 1.240 1_554 S
O315 Mn289 2.117 . S
O315 C292 1.264 . S
C316 C309 1.403 . S
C316 C317 1.399 . S
C316 H322 0.929 . S
C317 C297 1.449 . S
C317 C316 1.399 . S
C317 H323 0.930 . S
H318 C298 0.931 . S
H319 C299 0.930 . S
H320 C307 0.931 . S
H321 C308 0.929 . S
H322 C316 0.929 . S
H323 C317 0.930 . S
Mn324 O329 2.095 . S
Mn324 O339 2.162 . S
Mn324 O340 2.297 . S
Mn324 O348 2.385 . S
Mn324 O349 2.209 . S
Mn324 O350 2.094 . S
Mn325 O330 2.121 . S
Mn325 N332 2.257 . S
Mn325 N341 2.282 . S
Mn325 O349 2.215 . S
Mn325 O351 2.117 . S
C326 O348 1.234 . S
C326 O349 1.283 . S
C327 O339 1.281 . S
C327 O340 1.236 . S
C328 O350 1.240 . S
C328 O351 1.264 . S
O329 Mn324 2.095 . S
O329 C338 1.250 . S
O330 Mn325 2.121 . S
O330 C338 1.258 . S
C331 N332 1.326 . S
C331 C335 1.460 . S
C331 H337 0.929 . S
N332 Mn325 2.257 . S
N332 C331 1.326 . S
N332 C336 1.362 . S
C333 C334 1.258 . S
C333 C336 1.431 1_556 S
C333 C353 1.449 . S
C334 C333 1.258 . S
C334 C335 1.477 1_556 S
C334 H354 0.931 . S
C335 C331 1.460 . S
C335 C334 1.477 1_554 S
C335 H355 0.930 . S
C336 N332 1.362 . S
C336 C333 1.431 1_554 S
C336 C346 1.476 . S
H337 C331 0.929 . S
C338 O329 1.250 . S
C338 O330 1.258 . S
O339 Mn324 2.162 . S
O339 C327 1.281 . S
O340 Mn324 2.297 . S
O340 C327 1.236 . S
N341 Mn325 2.282 . S
N341 C342 1.328 . S
N341 C346 1.318 . S
C342 N341 1.328 . S
C342 C343 1.457 . S
C342 H347 0.929 . S
C343 C342 1.457 . S
C343 C344 1.291 . S
C343 H356 0.931 . S
C344 C343 1.291 . S
C344 C345 1.373 1_554 S
C344 H357 0.929 1_554 S
C345 C344 1.373 1_556 S
C345 C346 1.396 1_556 S
C345 C352 1.403 . S
C346 C336 1.476 . S
C346 N341 1.318 . S
C346 C345 1.396 1_554 S
H347 C342 0.929 . S
O348 Mn324 2.385 . S
O348 C326 1.234 . S
O349 Mn324 2.209 . S
O349 Mn325 2.215 . S
O349 C326 1.283 . S
O350 Mn324 2.094 . S
O350 C328 1.240 . S
O351 Mn325 2.117 . S
O351 C328 1.264 . S
C352 C345 1.403 . S
C352 C353 1.399 . S
C352 H358 0.929 . S
C353 C333 1.449 . S
C353 C352 1.399 . S
C353 H359 0.930 . S
H354 C334 0.931 . S
H355 C335 0.930 . S
H356 C343 0.931 . S
H357 C344 0.929 1_556 S
H358 C352 0.929 . S
H359 C353 0.930 . S
Mn360 O365 2.095 . S
Mn360 O375 2.162 . S
Mn360 O376 2.297 . S
Mn360 O384 2.385 . S
Mn360 O385 2.209 . S
Mn360 O386 2.094 . S
Mn361 O366 2.121 . S
Mn361 N368 2.257 . S
Mn361 N377 2.282 . S
Mn361 O385 2.215 . S
Mn361 O387 2.117 . S
C362 O384 1.234 . S
C362 O385 1.283 . S
C363 O375 1.281 . S
C363 O376 1.236 . S
C364 O386 1.240 . S
C364 O387 1.264 . S
O365 Mn360 2.095 . S
O365 C374 1.250 . S
O366 Mn361 2.121 . S
O366 C374 1.258 . S
C367 N368 1.326 . S
C367 C371 1.460 . S
C367 H373 0.929 . S
N368 Mn361 2.257 . S
N368 C367 1.326 . S
N368 C372 1.362 . S
C369 C370 1.258 . S
C369 C372 1.431 . S
C369 C389 1.449 . S
C370 C369 1.258 . S
C370 C371 1.477 . S
C370 H390 0.931 . S
C371 C367 1.460 . S
C371 C370 1.477 . S
C371 H391 0.930 . S
C372 N368 1.362 . S
C372 C369 1.431 . S
C372 C382 1.476 . S
H373 C367 0.929 . S
C374 O365 1.250 . S
C374 O366 1.258 . S
O375 Mn360 2.162 . S
O375 C363 1.281 . S
O376 Mn360 2.297 . S
O376 C363 1.236 . S
N377 Mn361 2.282 . S
N377 C378 1.328 . S
N377 C382 1.318 . S
C378 N377 1.328 . S
C378 C379 1.457 . S
C378 H383 0.929 . S
C379 C378 1.457 . S
C379 C380 1.291 . S
C379 H392 0.931 . S
C380 C379 1.291 . S
C380 C381 1.373 . S
C380 H393 0.929 . S
C381 C380 1.373 . S
C381 C382 1.396 . S
C381 C388 1.403 . S
C382 C372 1.476 . S
C382 N377 1.318 . S
C382 C381 1.396 . S
H383 C378 0.929 . S
O384 Mn360 2.385 . S
O384 C362 1.234 . S
O385 Mn360 2.209 . S
O385 Mn361 2.215 . S
O385 C362 1.283 . S
O386 Mn360 2.094 . S
O386 C364 1.240 . S
O387 Mn361 2.117 . S
O387 C364 1.264 . S
C388 C381 1.403 . S
C388 C389 1.399 . S
C388 H394 0.929 . S
C389 C369 1.449 . S
C389 C388 1.399 . S
C389 H395 0.930 . S
H390 C370 0.931 . S
H391 C371 0.930 . S
H392 C379 0.931 . S
H393 C380 0.929 . S
H394 C388 0.929 . S
H395 C389 0.930 . S
Mn396 O401 2.095 . S
Mn396 O411 2.162 . S
Mn396 O412 2.297 . S
Mn396 O420 2.385 . S
Mn396 O421 2.209 1_554 S
Mn396 O422 2.094 . S
Mn397 O402 2.121 . S
Mn397 N404 2.257 . S
Mn397 N413 2.282 . S
Mn397 O421 2.215 . S
Mn397 O423 2.117 . S
C398 O420 1.234 1_556 S
C398 O421 1.283 . S
C399 O411 1.281 . S
C399 O412 1.236 . S
C400 O422 1.240 1_556 S
C400 O423 1.264 . S
O401 Mn396 2.095 . S
O401 C410 1.250 . S
O402 Mn397 2.121 . S
O402 C410 1.258 1_556 S
C403 N404 1.326 . S
C403 C407 1.460 . S
C403 H409 0.929 . S
N404 Mn397 2.257 . S
N404 C403 1.326 . S
N404 C408 1.362 . S
C405 C406 1.258 . S
C405 C408 1.431 . S
C405 C425 1.449 . S
C406 C405 1.258 . S
C406 C407 1.477 . S
C406 H426 0.931 . S
C407 C403 1.460 . S
C407 C406 1.477 . S
C407 H427 0.930 . S
C408 N404 1.362 . S
C408 C405 1.431 . S
C408 C418 1.476 . S
H409 C403 0.929 . S
C410 O401 1.250 . S
C410 O402 1.258 1_554 S
O411 Mn396 2.162 . S
O411 C399 1.281 . S
O412 Mn396 2.297 . S
O412 C399 1.236 . S
N413 Mn397 2.282 . S
N413 C414 1.328 . S
N413 C418 1.318 . S
C414 N413 1.328 . S
C414 C415 1.457 . S
C414 H419 0.929 . S
C415 C414 1.457 . S
C415 C416 1.291 . S
C415 H428 0.931 . S
C416 C415 1.291 . S
C416 C417 1.373 . S
C416 H429 0.929 . S
C417 C416 1.373 . S
C417 C418 1.396 . S
C417 C424 1.403 . S
C418 C408 1.476 . S
C418 N413 1.318 . S
C418 C417 1.396 . S
H419 C414 0.929 . S
O420 Mn396 2.385 . S
O420 C398 1.234 1_554 S
O421 Mn396 2.209 1_556 S
O421 Mn397 2.215 . S
O421 C398 1.283 . S
O422 Mn396 2.094 . S
O422 C400 1.240 1_554 S
O423 Mn397 2.117 . S
O423 C400 1.264 . S
C424 C417 1.403 . S
C424 C425 1.399 . S
C424 H430 0.929 . S
C425 C405 1.449 . S
C425 C424 1.399 . S
C425 H431 0.930 . S
H426 C406 0.931 . S
H427 C407 0.930 . S
H428 C415 0.931 . S
H429 C416 0.929 . S
H430 C424 0.929 . S
H431 C425 0.930 . S
C432 C433 1.369 . S
C432 C434 1.419 . S
C432 H436 0.930 . S
C433 C432 1.369 . S
C433 C442 1.429 . S
C434 C432 1.419 . S
C434 C435 1.363 . S
C434 H437 0.929 . S
C435 C434 1.363 . S
C435 C441 1.428 . S
H436 C432 0.930 . S
H437 C434 0.929 . S
S438 N439 1.613 . S
S438 N440 1.610 . S
N439 S438 1.613 . S
N439 C442 1.350 . S
N440 S438 1.610 . S
N440 C441 1.351 . S
C441 C435 1.428 . S
C441 N440 1.351 . S
C441 C442 1.434 . S
C442 C433 1.429 . S
C442 N439 1.350 . S
C442 C441 1.434 . S
C443 C444 1.369 . S
C443 C445 1.419 1_655 S
C443 H447 0.930 . S
C444 C443 1.369 . S
C444 C453 1.429 . S
C445 C443 1.419 1_455 S
C445 C446 1.363 . S
C445 H448 0.929 . S
C446 C445 1.363 . S
C446 C452 1.428 . S
H447 C443 0.930 . S
H448 C445 0.929 . S
S449 N450 1.613 . S
S449 N451 1.610 1_655 S
N450 S449 1.613 . S
N450 C453 1.350 . S
N451 S449 1.610 1_455 S
N451 C452 1.351 . S
C452 C446 1.428 . S
C452 N451 1.351 . S
C452 C453 1.434 1_455 S
C453 C444 1.429 . S
C453 N450 1.350 . S
C453 C452 1.434 1_655 S
C454 C455 1.369 1_554 S
C454 C456 1.419 1_565 S
C454 H458 0.930 . S
C455 C454 1.369 1_556 S
C455 C464 1.429 . S
C456 C454 1.419 1_545 S
C456 C457 1.363 . S
C456 H459 0.929 . S
C457 C456 1.363 . S
C457 C463 1.428 1_554 S
H458 C454 0.930 . S
H459 C456 0.929 . S
S460 N461 1.613 1_545 S
S460 N462 1.610 . S
N461 S460 1.613 1_565 S
N461 C464 1.350 . S
N462 S460 1.610 . S
N462 C463 1.351 . S
C463 C457 1.428 1_556 S
C463 N462 1.351 . S
C463 C464 1.434 1_545 S
C464 C455 1.429 . S
C464 N461 1.350 . S
C464 C463 1.434 1_565 S
C465 C466 1.369 . S
C465 C467 1.419 . S
C465 H469 0.930 . S
C466 C465 1.369 . S
C466 C475 1.429 . S
C467 C465 1.419 . S
C467 C468 1.363 . S
C467 H470 0.929 . S
C468 C467 1.363 . S
C468 C474 1.428 . S
H469 C465 0.930 . S
H470 C467 0.929 . S
S471 N472 1.613 . S
S471 N473 1.610 . S
N472 S471 1.613 . S
N472 C475 1.350 . S
N473 S471 1.610 . S
N473 C474 1.351 . S
C474 C468 1.428 . S
C474 N473 1.351 . S
C474 C475 1.434 . S
C475 C466 1.429 . S
C475 N472 1.350 . S
C475 C474 1.434 . S
C476 C477 1.369 . S
C476 C478 1.419 1_655 S
C476 H480 0.930 . S
C477 C476 1.369 . S
C477 C486 1.429 . S
C478 C476 1.419 1_455 S
C478 C479 1.363 . S
C478 H481 0.929 . S
C479 C478 1.363 . S
C479 C485 1.428 . S
H480 C476 0.930 . S
H481 C478 0.929 . S
S482 N483 1.613 1_455 S
S482 N484 1.610 . S
N483 S482 1.613 1_655 S
N483 C486 1.350 . S
N484 S482 1.610 . S
N484 C485 1.351 . S
C485 C479 1.428 . S
C485 N484 1.351 . S
C485 C486 1.434 1_455 S
C486 C477 1.429 . S
C486 N483 1.350 . S
C486 C485 1.434 1_655 S
C487 C488 1.369 . S
C487 C489 1.419 1_564 S
C487 H491 0.930 . S
C488 C487 1.369 . S
C488 C497 1.429 . S
C489 C487 1.419 1_546 S
C489 C490 1.363 . S
C489 H492 0.929 . S
C490 C489 1.363 . S
C490 C496 1.428 . S
H491 C487 0.930 . S
H492 C489 0.929 . S
S493 N494 1.613 1_556 S
S493 N495 1.610 1_565 S
N494 S493 1.613 1_554 S
N494 C497 1.350 . S
N495 S493 1.610 1_545 S
N495 C496 1.351 . S
C496 C490 1.428 . S
C496 N495 1.351 . S
C496 C497 1.434 1_546 S
C497 C488 1.429 . S
C497 N494 1.350 . S
C497 C496 1.434 1_564 S
C498 C499 1.369 . S
C498 C500 1.419 . S
C498 H502 0.930 . S
C499 C498 1.369 . S
C499 C508 1.429 1_556 S
C500 C498 1.419 . S
C500 C501 1.363 1_556 S
C500 H503 0.929 . S
C501 C500 1.363 1_554 S
C501 C507 1.428 . S
H502 C498 0.930 . S
H503 C500 0.929 . S
S504 N505 1.613 . S
S504 N506 1.610 . S
N505 S504 1.613 . S
N505 C508 1.350 . S
N506 S504 1.610 . S
N506 C507 1.351 . S
C507 C501 1.428 . S
C507 N506 1.351 . S
C507 C508 1.434 . S
C508 C499 1.429 1_554 S
C508 N505 1.350 . S
C508 C507 1.434 . S
C509 C510 1.369 . S
C509 C511 1.419 . S
C509 H513 0.930 . S
C510 C509 1.369 . S
C510 C519 1.429 . S
C511 C509 1.419 . S
C511 C512 1.363 . S
C511 H514 0.929 . S
C512 C511 1.363 . S
C512 C518 1.428 . S
H513 C509 0.930 . S
H514 C511 0.929 . S
S515 N516 1.613 . S
S515 N517 1.610 . S
N516 S515 1.613 . S
N516 C519 1.350 . S
N517 S515 1.610 . S
N517 C518 1.351 . S
C518 C512 1.428 . S
C518 N517 1.351 . S
C518 C519 1.434 . S
C519 C510 1.429 . S
C519 N516 1.350 . S
C519 C518 1.434 . S
C520 C521 1.369 . S
C520 C522 1.419 . S
C520 H524 0.930 . S
C521 C520 1.369 . S
C521 C530 1.429 . S
C522 C520 1.419 . S
C522 C523 1.363 . S
C522 H525 0.929 . S
C523 C522 1.363 . S
C523 C529 1.428 . S
H524 C520 0.930 . S
H525 C522 0.929 . S
S526 N527 1.613 . S
S526 N528 1.610 . S
N527 S526 1.613 . S
N527 C530 1.350 . S
N528 S526 1.610 . S
N528 C529 1.351 . S
C529 C523 1.428 . S
C529 N528 1.351 . S
C529 C530 1.434 . S
C530 C521 1.429 . S
C530 N527 1.350 . S
C530 C529 1.434 . S
C531 C532 1.369 . S
C531 C533 1.419 1_554 S
C531 H535 0.930 . S
C532 C531 1.369 . S
C532 C541 1.429 . S
C533 C531 1.419 1_556 S
C533 C534 1.363 . S
C533 H536 0.929 . S
C534 C533 1.363 . S
C534 C540 1.428 . S
H535 C531 0.930 . S
H536 C533 0.929 . S
S537 N538 1.613 . S
S537 N539 1.610 . S
N538 S537 1.613 . S
N538 C541 1.350 1_556 S
N539 S537 1.610 . S
N539 C540 1.351 . S
C540 C534 1.428 . S
C540 N539 1.351 . S
C540 C541 1.434 1_556 S
C541 C532 1.429 . S
C541 N538 1.350 1_554 S
C541 C540 1.434 1_554 S
C542 C543 1.369 . S
C542 C544 1.419 . S
C542 H546 0.930 . S
C543 C542 1.369 . S
C543 C552 1.429 . S
C544 C542 1.419 . S
C544 C545 1.363 . S
C544 H547 0.929 . S
C545 C544 1.363 . S
C545 C551 1.428 . S
H546 C542 0.930 . S
H547 C544 0.929 . S
S548 N549 1.613 . S
S548 N550 1.610 . S
N549 S548 1.613 . S
N549 C552 1.350 . S
N550 S548 1.610 . S
N550 C551 1.351 . S
C551 C545 1.428 . S
C551 N550 1.351 . S
C551 C552 1.434 . S
C552 C543 1.429 . S
C552 N549 1.350 . S
C552 C551 1.434 . S
C553 C554 1.369 . S
C553 C555 1.419 . S
C553 H557 0.930 . S
C554 C553 1.369 . S
C554 C563 1.429 . S
C555 C553 1.419 . S
C555 C556 1.363 . S
C555 H558 0.929 . S
C556 C555 1.363 . S
C556 C562 1.428 . S
H557 C553 0.930 . S
H558 C555 0.929 . S
S559 N560 1.613 . S
S559 N561 1.610 . S
N560 S559 1.613 . S
N560 C563 1.350 . S
N561 S559 1.610 . S
N561 C562 1.351 . S
C562 C556 1.428 . S
C562 N561 1.351 . S
C562 C563 1.434 . S
C563 C554 1.429 . S
C563 N560 1.350 . S
C563 C562 1.434 . S
C564 C565 1.369 . S
C564 C566 1.419 . S
C564 H568 0.930 . S
C565 C564 1.369 . S
C565 C574 1.429 . S
C566 C564 1.419 . S
C566 C567 1.363 . S
C566 H569 0.929 . S
C567 C566 1.363 . S
C567 C573 1.428 . S
H568 C564 0.930 . S
H569 C566 0.929 . S
S570 N571 1.613 . S
S570 N572 1.610 . S
N571 S570 1.613 . S
N571 C574 1.350 . S
N572 S570 1.610 . S
N572 C573 1.351 . S
C573 C567 1.428 . S
C573 N572 1.351 . S
C573 C574 1.434 . S
C574 C565 1.429 . S
C574 N571 1.350 . S
C574 C573 1.434 . S
C575 C576 1.369 . S
C575 C577 1.419 . S
C575 H579 0.930 . S
C576 C575 1.369 . S
C576 C585 1.429 . S
C577 C575 1.419 . S
C577 C578 1.363 . S
C577 H580 0.929 . S
C578 C577 1.363 . S
C578 C584 1.428 . S
H579 C575 0.930 . S
H580 C577 0.929 . S
S581 N582 1.613 . S
S581 N583 1.610 . S
N582 S581 1.613 . S
N582 C585 1.350 . S
N583 S581 1.610 . S
N583 C584 1.351 . S
C584 C578 1.428 . S
C584 N583 1.351 . S
C584 C585 1.434 . S
C585 C576 1.429 . S
C585 N582 1.350 . S
C585 C584 1.434 . S
C586 C587 1.369 . S
C586 C588 1.419 . S
C586 H590 0.930 . S
C587 C586 1.369 . S
C587 C596 1.429 . S
C588 C586 1.419 . S
C588 C589 1.363 . S
C588 H591 0.929 . S
C589 C588 1.363 . S
C589 C595 1.428 . S
H590 C586 0.930 . S
H591 C588 0.929 . S
S592 N593 1.613 . S
S592 N594 1.610 . S
N593 S592 1.613 . S
N593 C596 1.350 . S
N594 S592 1.610 . S
N594 C595 1.351 . S
C595 C589 1.428 . S
C595 N594 1.351 . S
C595 C596 1.434 . S
C596 C587 1.429 . S
C596 N593 1.350 . S
C596 C595 1.434 . S
C597 C598 1.369 . S
C597 C599 1.419 . S
C597 H601 0.930 . S
C598 C597 1.369 . S
C598 C607 1.429 . S
C599 C597 1.419 . S
C599 C600 1.363 . S
C599 H602 0.929 . S
C600 C599 1.363 . S
C600 C606 1.428 . S
H601 C597 0.930 . S
H602 C599 0.929 . S
S603 N604 1.613 . S
S603 N605 1.610 . S
N604 S603 1.613 . S
N604 C607 1.350 . S
N605 S603 1.610 . S
N605 C606 1.351 . S
C606 C600 1.428 . S
C606 N605 1.351 . S
C606 C607 1.434 . S
C607 C598 1.429 . S
C607 N604 1.350 . S
C607 C606 1.434 . S
C608 C609 1.369 . S
C608 C610 1.419 . S
C608 H612 0.930 . S
C609 C608 1.369 . S
C609 C618 1.429 . S
C610 C608 1.419 . S
C610 C611 1.363 . S
C610 H613 0.929 . S
C611 C610 1.363 . S
C611 C617 1.428 . S
H612 C608 0.930 . S
H613 C610 0.929 . S
S614 N615 1.613 . S
S614 N616 1.610 . S
N615 S614 1.613 . S
N615 C618 1.350 . S
N616 S614 1.610 . S
N616 C617 1.351 . S
C617 C611 1.428 . S
C617 N616 1.351 . S
C617 C618 1.434 . S
C618 C609 1.429 . S
C618 N615 1.350 . S
C618 C617 1.434 . S
C619 C620 1.369 . S
C619 C621 1.419 . S
C619 H623 0.930 . S
C620 C619 1.369 . S
C620 C629 1.429 . S
C621 C619 1.419 . S
C621 C622 1.363 . S
C621 H624 0.929 . S
C622 C621 1.363 . S
C622 C628 1.428 . S
H623 C619 0.930 . S
H624 C621 0.929 . S
S625 N626 1.613 . S
S625 N627 1.610 . S
N626 S625 1.613 . S
N626 C629 1.350 . S
N627 S625 1.610 . S
N627 C628 1.351 . S
C628 C622 1.428 . S
C628 N627 1.351 . S
C628 C629 1.434 . S
C629 C620 1.429 . S
C629 N626 1.350 . S
C629 C628 1.434 . S
C630 C631 1.369 . S
C630 C632 1.419 . S
C630 H634 0.930 . S
C631 C630 1.369 . S
C631 C640 1.429 . S
C632 C630 1.419 . S
C632 C633 1.363 . S
C632 H635 0.929 . S
C633 C632 1.363 . S
C633 C639 1.428 . S
H634 C630 0.930 . S
H635 C632 0.929 . S
S636 N637 1.613 . S
S636 N638 1.610 . S
N637 S636 1.613 . S
N637 C640 1.350 . S
N638 S636 1.610 . S
N638 C639 1.351 . S
C639 C633 1.428 . S
C639 N638 1.351 . S
C639 C640 1.434 . S
C640 C631 1.429 . S
C640 N637 1.350 . S
C640 C639 1.434 . S
C641 C642 1.369 . S
C641 C643 1.419 . S
C641 H645 0.930 . S
C642 C641 1.369 . S
C642 C651 1.429 . S
C643 C641 1.419 . S
C643 C644 1.363 . S
C643 H646 0.929 . S
C644 C643 1.363 . S
C644 C650 1.428 . S
H645 C641 0.930 . S
H646 C643 0.929 . S
S647 N648 1.613 . S
S647 N649 1.610 . S
N648 S647 1.613 . S
N648 C651 1.350 . S
N649 S647 1.610 . S
N649 C650 1.351 . S
C650 C644 1.428 . S
C650 N649 1.351 . S
C650 C651 1.434 . S
C651 C642 1.429 . S
C651 N648 1.350 . S
C651 C650 1.434 . S
C652 C653 1.375 . S
C652 C654 1.419 . S
C652 H656 0.930 . S
C653 C652 1.375 . S
C653 C662 1.423 1_554 S
C654 C652 1.419 . S
C654 C655 1.363 1_554 S
C654 H657 0.929 . S
C655 C654 1.363 1_556 S
C655 C661 1.428 . S
H656 C652 0.930 . S
H657 C654 0.929 . S
S658 N659 1.613 . S
S658 N660 1.610 . S
N659 S658 1.613 . S
N659 C662 1.350 . S
N660 S658 1.610 . S
N660 C661 1.351 . S
C661 C655 1.428 . S
C661 N660 1.351 . S
C661 C662 1.434 . S
C662 C653 1.423 1_556 S
C662 N659 1.350 . S
C662 C661 1.434 . S
C663 C664 1.369 . S
C663 C665 1.419 . S
C663 H667 0.930 . S
C664 C663 1.369 . S
C664 C673 1.429 . S
C665 C663 1.419 . S
C665 C666 1.363 . S
C665 H668 0.929 . S
C666 C665 1.363 . S
C666 C672 1.428 . S
H667 C663 0.930 . S
H668 C665 0.929 . S
S669 N670 1.613 . S
S669 N671 1.610 . S
N670 S669 1.613 . S
N670 C673 1.350 . S
N671 S669 1.610 . S
N671 C672 1.351 . S
C672 C666 1.428 . S
C672 N671 1.351 . S
C672 C673 1.434 . S
C673 C664 1.429 . S
C673 N670 1.350 . S
C673 C672 1.434 . S
C674 C675 1.369 . S
C674 C676 1.419 . S
C674 H678 0.930 . S
C675 C674 1.369 . S
C675 C684 1.429 . S
C676 C674 1.419 . S
C676 C677 1.363 . S
C676 H679 0.929 . S
C677 C676 1.363 . S
C677 C683 1.428 . S
H678 C674 0.930 . S
H679 C676 0.929 . S
S680 N681 1.613 . S
S680 N682 1.610 . S
N681 S680 1.613 . S
N681 C684 1.350 . S
N682 S680 1.610 . S
N682 C683 1.351 . S
C683 C677 1.428 . S
C683 N682 1.351 . S
C683 C684 1.434 . S
C684 C675 1.429 . S
C684 N681 1.350 . S
C684 C683 1.434 . S
C685 C686 1.368 1_554 S
C685 C687 1.419 . S
C685 H689 0.930 . S
C686 C685 1.368 1_556 S
C686 C695 1.430 . S
C687 C685 1.419 . S
C687 C688 1.363 . S
C687 H690 0.929 . S
C688 C687 1.363 . S
C688 C694 1.428 1_554 S
H689 C685 0.930 . S
H690 C687 0.929 . S
S691 N692 1.613 . S
S691 N693 1.610 . S
N692 S691 1.613 . S
N692 C695 1.350 . S
N693 S691 1.610 . S
N693 C694 1.351 . S
C694 C688 1.428 1_556 S
C694 N693 1.351 . S
C694 C695 1.434 . S
C695 C686 1.430 . S
C695 N692 1.350 . S
C695 C694 1.434 . S
C433 C14 1.282 . S
C435 C338 1.270 . S
C444 C50 1.277 . S
C446 C374 1.282 . S
C455 C86 1.284 . S
C457 C410 1.271 . S
C466 C122 1.282 . S
C468 C230 1.270 . S
C477 C266 1.282 . S
C479 C158 1.270 . S
C488 C302 1.276 . S
C490 C194 1.282 . S
C499 C363 1.682 . S
C501 C3 1.682 . S
C510 C39 1.683 . S
C512 C399 1.682 . S
C521 C75 1.681 . S
C523 C219 1.682 . S
C532 C111 1.680 . S
C534 C255 1.681 . S
C543 C147 1.683 . S
C545 C291 1.682 . S
C554 C183 1.684 . S
C556 C327 1.684 . S
C565 C362 1.142 . S
C567 C2 1.143 . S
C576 C38 1.140 . S
C578 C398 1.140 . S
C587 C74 1.141 . S
C589 C218 1.142 . S
C598 C110 1.144 . S
C600 C254 1.143 . S
C609 C146 1.143 . S
C611 C290 1.142 . S
C620 C182 1.140 . S
C622 C326 1.141 . S
C631 C4 1.628 . S
C633 C220 1.629 . S
C642 C256 1.628 . S
C644 C40 1.629 . S
C653 C76 1.628 . S
C655 C292 1.628 . S
C664 C112 1.628 . S
C666 C328 1.629 . S
C675 C148 1.629 . S
C677 C364 1.628 . S
C686 C400 1.628 . S
C688 C184 1.629 . S
