# Generated by pormake.
# Topology dft, (4)-cn, num edge types: 1
# Building blocks:
#     Node 0, Type 0, BuildingBlock: UXUYUI_clean_sbu_0, # of connection points: 4
#     Node 1, Type 0, BuildingBlock: UXUYUI_clean_sbu_0, # of connection points: 4
#     Node 2, Type 0, BuildingBlock: UXUYUI_clean_sbu_0, # of connection points: 4
#     Node 3, Type 0, BuildingBlock: UXUYUI_clean_sbu_0, # of connection points: 4
#     Node 4, Type 0, BuildingBlock: UXUYUI_clean_sbu_0, # of connection points: 4
#     Node 5, Type 0, BuildingBlock: UXUYUI_clean_sbu_0, # of connection points: 4
#     Node 6, Type 0, BuildingBlock: UXUYUI_clean_sbu_0, # of connection points: 4
#     Node 7, Type 0, BuildingBlock: UXUYUI_clean_sbu_0, # of connection points: 4
#     Edge 8, Type (0, 0), BuildingBlock: XIVTED_clean_linker_0, # of connection points: 2
#     Edge 9, Type (0, 0), BuildingBlock: XIVTED_clean_linker_0, # of connection points: 2
#     Edge 10, Type (0, 0), BuildingBlock: XIVTED_clean_linker_0, # of connection points: 2
#     Edge 11, Type (0, 0), BuildingBlock: XIVTED_clean_linker_0, # of connection points: 2
#     Edge 12, Type (0, 0), BuildingBlock: XIVTED_clean_linker_0, # of connection points: 2
#     Edge 13, Type (0, 0), BuildingBlock: XIVTED_clean_linker_0, # of connection points: 2
#     Edge 14, Type (0, 0), BuildingBlock: XIVTED_clean_linker_0, # of connection points: 2
#     Edge 15, Type (0, 0), BuildingBlock: XIVTED_clean_linker_0, # of connection points: 2
#     Edge 16, Type (0, 0), BuildingBlock: XIVTED_clean_linker_0, # of connection points: 2
#     Edge 17, Type (0, 0), BuildingBlock: XIVTED_clean_linker_0, # of connection points: 2
#     Edge 18, Type (0, 0), BuildingBlock: XIVTED_clean_linker_0, # of connection points: 2
#     Edge 19, Type (0, 0), BuildingBlock: XIVTED_clean_linker_0, # of connection points: 2
#     Edge 20, Type (0, 0), BuildingBlock: XIVTED_clean_linker_0, # of connection points: 2
#     Edge 21, Type (0, 0), BuildingBlock: XIVTED_clean_linker_0, # of connection points: 2
#     Edge 22, Type (0, 0), BuildingBlock: XIVTED_clean_linker_0, # of connection points: 2
#     Edge 23, Type (0, 0), BuildingBlock: XIVTED_clean_linker_0, # of connection points: 2
# Relax obj value: 0.226
# Max RMSD: 0.178
# Mean RMSD: 0.177
data_MOF--net-dft--node1-UXUYUI_clean_sbu_0--edge1-XIVTED_clean_linker_0
_symmetry_space_group_name_H-M    P1
_symmetry_Int_Tables_number       1
_symmetry_cell_setting            triclinic
loop_
_symmetry_equiv_pos_as_xyz
'x, y, z'
_cell_length_a     50.514234
_cell_length_b     50.381544
_cell_length_c     58.322778
_cell_angle_alpha  89.999173
_cell_angle_beta   89.955665
_cell_angle_gamma 89.970979
loop_
_atom_site_label
_atom_site_type_symbol
_atom_site_fract_x
_atom_site_fract_y
_atom_site_fract_z
_atom_type_partial_charge
Li0 Li 0.27303 0.0125 0.19828 0.0
Li1 Li 0.31553 0.99032 0.20199 0.0
Li2 Li 0.2913 0.99003 0.16579 0.0
Li3 Li 0.27612 0.96416 0.19881 0.0
C4 C 0.31894 0.03421 0.16526 0.0
N5 N 0.34455 0.05905 0.12932 0.0
C6 C 0.34647 0.03256 0.16325 0.0
C7 C 0.30445 0.04863 0.14908 0.0
C8 C 0.35905 0.04525 0.14494 0.0
C9 C 0.31776 0.06099 0.131 0.0
C10 C 0.29682 0.99228 0.24415 0.0
C11 C 0.32296 0.97498 0.27535 0.0
N12 N 0.32236 -0.00078 0.28559 0.0
C13 C 0.29637 0.017 0.25502 0.0
C14 C 0.31011 0.97104 0.25443 0.0
C15 C 0.30942 0.02011 0.27596 0.0
C16 C 0.2341 0.03617 0.22529 0.0
N17 N 0.25233 0.04133 0.20876 0.0
C18 C 0.2398 0.08699 0.20779 0.0
C19 C 0.25563 0.06611 0.20004 0.0
C20 C 0.22058 0.08222 0.22473 0.0
C21 C 0.21788 0.05641 0.23354 0.0
H22 H 0.23208 0.01623 0.23194 0.0
H23 H 0.27051 0.06965 0.18709 0.0
C24 C 0.36653 0.97184 0.21221 0.0
N25 N 0.34948 0.99232 0.21544 0.0
C26 C 0.3921 0.97309 0.22104 0.0
C27 C 0.38194 0.01635 0.23671 0.0
C28 C 0.35662 0.01437 0.22733 0.0
C29 C 0.40021 0.99565 0.23337 0.0
H30 H 0.36048 0.9548 0.20228 0.0
H31 H 0.34273 0.03056 0.22926 0.0
C32 C 0.22993 0.99626 0.17817 0.0
N33 N 0.17954 0.0174 0.18078 0.0
C34 C 0.21086 0.9844 0.19219 0.0
C35 C 0.22334 0.01877 0.16536 0.0
C36 C 0.18549 0.9954 0.19328 0.0
C37 C 0.19778 0.0292 0.16697 0.0
C38 C 0.31108 0.93353 0.17775 0.0
C39 C 0.30516 0.92281 0.15626 0.0
C40 C 0.31787 0.91665 0.19585 0.0
C41 C 0.30593 0.8953 0.15327 0.0
C42 C 0.31835 0.88926 0.19219 0.0
N43 N 0.31242 0.87924 0.17115 0.0
C44 C 0.31899 0.98764 0.1236 0.0
C45 C 0.27232 0.99091 0.12041 0.0
C46 C 0.32164 0.98721 0.09976 0.0
N47 N 0.29462 0.98972 0.13335 0.0
C48 C 0.27401 0.9903 0.09655 0.0
C49 C 0.29891 0.98845 0.08594 0.0
H50 H 0.33636 0.98618 0.13436 0.0
H51 H 0.25318 0.99214 0.12861 0.0
C52 C 0.25373 0.92937 0.23102 0.0
N53 N 0.25843 0.93291 0.2083 0.0
C54 C 0.23925 0.9075 0.23857 0.0
C55 C 0.23511 0.89308 0.1992 0.0
C56 C 0.24934 0.91546 0.19239 0.0
C57 C 0.22958 0.88901 0.22258 0.0
H58 H 0.26055 0.94394 0.24324 0.0
H59 H 0.25282 0.91914 0.17438 0.0
O60 O 0.30621 0.02163 0.18289 0.0
O61 O 0.28445 0.9889 0.2235 0.0
O62 O 0.25506 0.98619 0.1773 0.0
O63 O 0.31024 0.96039 0.18108 0.0
H64 H 0.35799 0.02143 0.17556 0.0
H65 H 0.28312 0.04992 0.15027 0.0
H66 H 0.38032 0.04406 0.14311 0.0
H67 H 0.30679 0.07203 0.11825 0.0
H68 H 0.33346 0.95876 0.28343 0.0
H69 H 0.28632 0.0337 0.24726 0.0
H70 H 0.3107 0.9518 0.24622 0.0
H71 H 0.30935 0.03917 0.28451 0.0
H72 H 0.24273 0.10666 0.20076 0.0
H73 H 0.2031 0.05179 0.24639 0.0
H74 H 0.40563 0.95694 0.21746 0.0
H75 H 0.3872 0.03404 0.24621 0.0
H76 H 0.21563 0.96704 0.20229 0.0
H77 H 0.23793 0.02833 0.15458 0.0
H78 H 0.17056 0.9865 0.20414 0.0
H79 H 0.19246 0.04673 0.1573 0.0
H80 H 0.29982 0.93554 0.14207 0.0
H81 H 0.32244 0.92462 0.21261 0.0
H82 H 0.30128 0.88672 0.13676 0.0
H83 H 0.3234 0.87596 0.20607 0.0
H84 H 0.34117 0.98542 0.09225 0.0
H85 H 0.25602 0.9915 0.0865 0.0
H86 H 0.23496 0.90566 0.25669 0.0
H87 H 0.22832 0.8793 0.18624 0.0
Li88 Li -0.00131 0.29529 0.66584 0.0
Li89 Li 0.99111 0.32023 0.70144 0.0
Li90 Li 0.02003 0.28045 0.70054 0.0
Li91 Li 0.97222 0.27528 0.6985 0.0
C92 C 0.04065 0.32962 0.67066 0.0
N93 N 0.07189 0.35955 0.6416 0.0
C94 C 0.03763 0.35719 0.66979 0.0
C95 C 0.05972 0.31731 0.65692 0.0
C96 C 0.05358 0.37196 0.65495 0.0
C97 C 0.07526 0.33277 0.64228 0.0
C98 C 0.94308 0.3222 0.67352 0.0
C99 C 0.8985 0.33747 0.68048 0.0
N100 N 0.90004 0.35319 0.66157 0.0
C101 C 0.9441 0.33832 0.65402 0.0
C102 C 0.91998 0.3216 0.68675 0.0
C103 C 0.9222 0.35391 0.64832 0.0
C104 C 0.99588 0.27434 0.6215 0.0
N105 N 0.00098 0.29708 0.63321 0.0
C106 C 0.00816 0.32059 0.59815 0.0
C107 C 0.00678 0.32004 0.62204 0.0
C108 C 0.00297 0.2974 0.58552 0.0
C109 C -0.00332 0.27406 0.59758 0.0
H110 H 0.99087 0.25644 0.63076 0.0
H111 H 0.01007 0.33807 0.6316 0.0
C112 C -0.00048 0.35887 0.73511 0.0
N113 N 0.98668 0.35418 0.71503 0.0
C114 C -0.0023 0.38368 0.74567 0.0
C115 C 0.9693 0.3982 0.71477 0.0
C116 C 0.9718 0.37323 0.70478 0.0
C117 C 0.98248 0.40373 0.7354 0.0
H118 H 0.01143 0.3434 0.74278 0.0
H119 H 0.96239 0.3694 0.68857 0.0
C120 C 0.0143 0.23622 0.6768 0.0
N121 N 0.04555 0.19129 0.67453 0.0
C122 C 0.00732 0.21352 0.68916 0.0
C123 C 0.03695 0.23598 0.66304 0.0
C124 C 0.02343 0.19102 0.68785 0.0
C125 C 0.05256 0.2131 0.66219 0.0
C126 C 0.97973 0.29271 0.74399 0.0
C127 C 0.98911 0.28027 0.76381 0.0
C128 C 0.95637 0.30752 0.74491 0.0
C129 C 0.97475 0.28263 0.78419 0.0
C130 C 0.9426 0.30945 0.76562 0.0
N131 N 0.95198 0.29704 0.78467 0.0
C132 C 0.0752 0.27168 0.70839 0.0
C133 C 0.04521 0.24365 0.72818 0.0
C134 C 0.09675 0.2582 0.71789 0.0
N135 N 0.05011 0.26399 0.71352 0.0
C136 C 0.06607 0.22956 0.73793 0.0
C137 C 0.0923 0.23669 0.73277 0.0
H138 H 0.0785 0.28818 0.69692 0.0
H139 H 0.02499 0.23809 0.73196 0.0
C140 C 0.92151 0.25179 0.69396 0.0
N141 N 0.94379 0.25305 0.70695 0.0
C142 C 0.90055 0.23542 0.70059 0.0
C143 C 0.92621 0.22165 0.73351 0.0
C144 C 0.94663 0.2382 0.72623 0.0
C145 C 0.90274 0.2202 0.72069 0.0
H146 H 0.92002 0.26352 0.67849 0.0
H147 H 0.9649 0.239 0.73583 0.0
O148 O 0.02525 0.31487 0.68514 0.0
O149 O 0.96433 0.30668 0.67925 0.0
O150 O -0.00087 0.25863 0.67827 0.0
O151 O 0.99348 0.29038 0.72386 0.0
H152 H 0.02308 0.36707 0.68038 0.0
H153 H 0.06237 0.29602 0.65741 0.0
H154 H 0.0514 0.3933 0.65403 0.0
H155 H 0.08998 0.32349 0.63145 0.0
H156 H 0.88055 0.33723 0.69061 0.0
H157 H 0.9617 0.33904 0.64354 0.0
H158 H 0.91851 0.30888 0.70161 0.0
H159 H 0.92282 0.3666 0.63337 0.0
H160 H 0.01336 0.33902 0.58974 0.0
H161 H 0.99194 0.25582 0.58868 0.0
H162 H 0.0082 0.3872 0.76156 0.0
H163 H 0.95794 0.41332 0.70596 0.0
H164 H 0.98979 0.21336 0.69983 0.0
H165 H 0.04246 0.2533 0.6532 0.0
H166 H 0.01838 0.17337 0.69746 0.0
H167 H 0.07024 0.21268 0.65173 0.0
H168 H 0.00724 0.26883 0.76343 0.0
H169 H 0.94912 0.31762 0.72987 0.0
H170 H 0.98172 0.27302 0.79964 0.0
H171 H 0.92449 0.32087 0.76655 0.0
H172 H 0.11662 0.26461 0.71368 0.0
H173 H 0.06163 0.21286 0.74897 0.0
H174 H 0.88277 0.23488 0.69024 0.0
H175 H 0.92898 0.20977 0.7488 0.0
Li176 Li 0.67923 0.00617 0.20093 0.0
Li177 Li 0.72118 0.98257 0.19863 0.0
Li178 Li 0.71914 0.03093 0.19591 0.0
Li179 Li 0.70341 0.00265 0.16475 0.0
C180 C 0.69806 0.00667 0.2431 0.0
N181 N 0.67261 0.00253 0.2849 0.0
C182 C 0.69919 0.98296 0.25551 0.0
C183 C 0.68414 0.02833 0.25202 0.0
C184 C 0.68617 0.98126 0.27661 0.0
C185 C 0.67134 0.02582 0.27315 0.0
C186 C 0.67478 0.95938 0.16711 0.0
C187 C 0.67538 0.92924 0.13499 0.0
N188 N 0.64876 0.93226 0.13268 0.0
C189 C 0.64741 0.96212 0.16448 0.0
C190 C 0.68889 0.94272 0.15233 0.0
C191 C 0.63462 0.94824 0.14696 0.0
C192 C 0.62832 0.02611 0.20973 0.0
N193 N 0.64523 0.0059 0.21443 0.0
C194 C 0.61262 0.98424 0.2374 0.0
C195 C 0.63794 0.98513 0.22788 0.0
C196 C 0.59447 0.00465 0.23256 0.0
C197 C 0.60272 0.02588 0.21862 0.0
H198 H 0.63449 0.04208 0.19859 0.0
H199 H 0.65172 0.9691 0.23098 0.0
C200 C 0.76142 0.95881 0.22474 0.0
N201 N 0.74072 0.95367 0.21058 0.0
C202 C 0.77664 0.93804 0.23344 0.0
C203 C 0.74829 0.90703 0.21349 0.0
C204 C 0.73375 0.92844 0.20503 0.0
C205 C 0.7702 0.9117 0.22778 0.0
H206 H 0.76623 0.97911 0.22908 0.0
H207 H 0.71687 0.92494 0.19409 0.0
C208 C 0.68523 0.06048 0.1731 0.0
N209 N 0.68617 0.11414 0.16339 0.0
C210 C 0.69237 0.06928 0.15123 0.0
C211 C 0.6784 0.07894 0.18999 0.0
C212 C 0.69274 0.0965 0.14666 0.0
C213 C 0.67908 0.10599 0.18476 0.0
C214 C 0.76483 0.99642 0.1773 0.0
C215 C 0.78443 0.01001 0.18946 0.0
C216 C 0.77092 0.97228 0.16669 0.0
C217 C 0.80981 -0.00089 0.19093 0.0
C218 C 0.79652 0.96201 0.16862 0.0
N219 N 0.81526 0.97553 0.1806 0.0
C220 C 0.73941 0.06997 0.22549 0.0
C221 C 0.748 0.07761 0.18608 0.0
C222 C 0.75316 0.09292 0.23148 0.0
N223 N 0.73708 0.06285 0.20313 0.0
C224 C 0.76176 0.10086 0.19126 0.0
C225 C 0.76465 0.1087 0.21426 0.0
H226 H 0.73105 0.05755 0.23872 0.0
H227 H 0.74619 0.07118 0.16846 0.0
C228 C 0.67597 0.0025 0.12238 0.0
N229 N 0.70009 -0.00031 0.13242 0.0
C230 C 0.67333 -0.00017 0.09865 0.0
C231 C 0.72048 0.9921 0.09609 0.0
C232 C 0.72218 0.99484 0.11983 0.0
C233 C 0.69579 0.99444 0.08519 0.0
H234 H 0.65878 0.00666 0.13285 0.0
H235 H 0.74117 0.99324 0.12819 0.0
O236 O 0.71044 0.00864 0.2223 0.0
O237 O 0.68774 0.97315 0.1839 0.0
O238 O 0.68507 0.03393 0.17799 0.0
O239 O 0.73975 0.00656 0.17595 0.0
H240 H 0.70978 0.96596 0.24886 0.0
H241 H 0.68295 0.04678 0.24259 0.0
H242 H 0.68678 0.963 0.28635 0.0
H243 H 0.66035 0.04235 0.28018 0.0
H244 H 0.68608 0.91645 0.12331 0.0
H245 H 0.63618 0.975 0.1757 0.0
H246 H 0.71011 0.94054 0.15401 0.0
H247 H 0.61347 0.95025 0.14466 0.0
H248 H 0.60726 0.96759 0.24817 0.0
H249 H 0.58929 0.0417 0.21388 0.0
H250 H 0.79351 0.94264 0.24415 0.0
H251 H 0.7423 0.88706 0.20903 0.0
H252 H 0.69779 0.05528 0.13797 0.0
H253 H 0.67295 0.07246 0.20704 0.0
H254 H 0.69833 0.10361 0.12984 0.0
H255 H 0.67402 0.12051 0.19771 0.0
H256 H 0.78006 0.02865 0.19784 0.0
H257 H 0.75593 0.96137 0.1574 0.0
H258 H 0.82514 0.00935 0.20036 0.0
H259 H 0.80145 0.94326 0.16066 0.0
H260 H 0.7554 0.09779 0.24945 0.0
H261 H 0.77011 0.11247 0.17742 0.0
H262 H 0.65389 0.00164 0.091 0.0
H263 H 0.73841 0.98855 0.08637 0.0
Li264 Li 0.97916 0.71936 0.69751 0.0
Li265 Li 0.02758 0.71736 0.69818 0.0
Li266 Li 0.00384 0.69975 0.66575 0.0
Li267 Li 0.00301 0.67844 0.7037 0.0
C268 C 0.00604 0.76376 0.68001 0.0
N269 N 0.00918 0.81777 0.68793 0.0
C270 C 0.00587 0.77357 0.70246 0.0
C271 C 0.0078 0.78146 0.66162 0.0
C272 C 0.00749 0.80093 0.70609 0.0
C273 C 0.00936 0.80869 0.66598 0.0
C274 C 0.00351 0.70119 0.74556 0.0
C275 C 0.02473 0.67535 0.77517 0.0
N276 N 0.005 0.68199 0.78998 0.0
C277 C 0.98371 0.70812 0.76121 0.0
C278 C 0.02442 0.68504 0.75273 0.0
C279 C 0.98472 0.69809 0.78353 0.0
C280 C 0.93168 0.72597 0.72108 0.0
N281 N 0.94742 0.73762 0.70508 0.0
C282 C 0.9174 0.77403 0.70163 0.0
C283 C 0.94036 0.76079 0.6948 0.0
C284 C 0.90162 0.76322 0.7191 0.0
C285 C 0.90873 0.73867 0.72863 0.0
H286 H 0.93719 0.70693 0.72818 0.0
H287 H 0.95254 0.76916 0.68143 0.0
C288 C 0.07252 0.74839 0.68914 0.0
N289 N 0.05828 0.73687 0.70621 0.0
C290 C 0.09424 0.76436 0.69434 0.0
C291 C 0.08605 0.75644 0.73462 0.0
C292 C 0.06462 0.74047 0.72862 0.0
C293 C 0.10107 0.76883 0.71738 0.0
H294 H 0.06669 0.74554 0.67147 0.0
H295 H 0.05261 0.73159 0.74186 0.0
C296 C 0.95049 0.68628 0.66933 0.0
N297 N 0.90544 0.68915 0.64261 0.0
C298 C 0.93187 0.6658 0.66994 0.0
C299 C 0.94617 0.70827 0.65518 0.0
C300 C 0.90922 0.66761 0.65628 0.0
C301 C 0.92329 0.70933 0.64179 0.0
C302 C 0.06021 0.68308 0.67913 0.0
C303 C 0.07051 0.69028 0.65776 0.0
C304 C 0.07754 0.67655 0.69695 0.0
C305 C 0.09792 0.69139 0.65472 0.0
C306 C 0.10483 0.67794 0.69325 0.0
N307 N 0.11438 0.6853 0.6724 0.0
C308 C 0.01437 0.71519 0.62081 0.0
C309 C 0.99216 0.67387 0.62345 0.0
C310 C 0.01387 0.714 0.59695 0.0
N311 N 0.00355 0.69537 0.63348 0.0
C312 C 0.99093 0.672 0.59956 0.0
C313 C 0.00172 0.69237 0.58596 0.0
H314 H 0.02354 0.73188 0.6293 0.0
H315 H 0.98361 0.65844 0.63401 0.0
C316 C 0.97854 0.64019 0.73146 0.0
N317 N 0.00054 0.64554 0.71887 0.0
C318 C 0.97563 0.61552 0.74203 0.0
C319 C 0.01828 0.60267 0.7267 0.0
C320 C 0.02037 0.62757 0.71648 0.0
C321 C 0.99551 0.59623 0.73941 0.0
H322 H 0.96313 0.65501 0.73301 0.0
H323 H 0.03751 0.63238 0.70619 0.0
O324 O 0.00479 0.73703 0.67592 0.0
O325 O 0.00275 0.71073 0.72355 0.0
O326 O 0.97267 0.68476 0.68271 0.0
O327 O 0.03337 0.6823 0.68251 0.0
H328 H 0.00448 0.76032 0.71696 0.0
H329 H 0.00787 0.77427 0.64415 0.0
H330 H 0.00739 0.80876 0.72336 0.0
H331 H 0.01071 0.82259 0.65189 0.0
H332 H 0.04066 0.66257 0.78081 0.0
H333 H 0.96793 0.72144 0.75636 0.0
H334 H 0.04012 0.67984 0.74103 0.0
H335 H 0.96945 0.70323 0.79577 0.0
H336 H 0.91251 0.79291 0.69381 0.0
H337 H 0.89675 0.72946 0.74182 0.0
H338 H 0.10536 0.7733 0.68048 0.0
H339 H 0.0902 0.75975 0.75261 0.0
H340 H 0.9349 0.64869 0.68086 0.0
H341 H 0.96031 0.72436 0.65451 0.0
H342 H 0.89465 0.65189 0.65656 0.0
H343 H 0.91971 0.72621 0.63075 0.0
H344 H 0.05754 0.69509 0.64368 0.0
H345 H 0.07008 0.67051 0.71348 0.0
H346 H 0.10611 0.69711 0.63831 0.0
H347 H 0.11842 0.67312 0.70696 0.0
H348 H 0.02302 0.72987 0.58726 0.0
H349 H 0.98111 0.6551 0.59189 0.0
H350 H 0.95785 0.61144 0.75179 0.0
H351 H 0.03385 0.58825 0.72385 0.0
Li352 Li 0.27481 0.02875 0.80399 0.0
Li353 Li 0.29152 6e-05 0.8345 0.0
Li354 Li 0.31552 0.00539 0.7984 0.0
Li355 Li 0.27436 0.98046 0.8002 0.0
C356 C 0.30793 0.05866 0.82741 0.0
N357 N 0.30557 0.11196 0.83832 0.0
C358 C 0.30056 0.06661 0.84946 0.0
C359 C 0.31429 0.07779 0.81095 0.0
C360 C 0.29946 0.09366 0.85464 0.0
C361 C 0.31289 0.10465 0.81678 0.0
C362 C 0.23039 0.99213 0.82183 0.0
C363 C 0.20002 0.95636 0.82979 0.0
N364 N 0.18082 0.96942 0.81796 0.0
C365 C 0.21033 0.00525 0.80983 0.0
C366 C 0.22519 0.96754 0.832 0.0
C367 C 0.1854 0.99343 0.80806 0.0
C368 C 0.25239 0.06745 0.77525 0.0
N369 N 0.25566 0.06018 0.79748 0.0
C370 C 0.2296 0.09689 0.8102 0.0
C371 C 0.24455 0.07423 0.81489 0.0
C372 C 0.22566 0.10482 0.78734 0.0
C373 C 0.23741 0.08979 0.76975 0.0
H374 H 0.2609 0.05554 0.76172 0.0
H375 H 0.24706 0.06765 0.83239 0.0
C376 C 0.31895 -0.00031 0.87688 0.0
N377 N 0.29493 0.99645 0.86678 0.0
C378 C 0.32157 -0.00293 0.90061 0.0
C379 C 0.27459 0.98836 0.90305 0.0
C380 C 0.27292 0.99106 0.87931 0.0
C381 C 0.29918 0.99129 0.91403 0.0
H382 H 0.33607 0.00431 0.86647 0.0
H383 H 0.25398 0.98913 0.8709 0.0
C384 C 0.29646 0.00695 0.75623 0.0
N385 N 0.32169 0.0056 0.71419 0.0
C386 C 0.29612 0.98378 0.74305 0.0
C387 C 0.30948 0.02949 0.74796 0.0
C388 C 0.30901 0.9835 0.72185 0.0
C389 C 0.32219 0.02838 0.7267 0.0
C390 C 0.32156 0.95781 0.83119 0.0
C391 C 0.34885 0.96131 0.83378 0.0
C392 C 0.30805 0.94035 0.84569 0.0
C393 C 0.36216 0.94735 0.85097 0.0
C394 C 0.32207 0.92681 0.8627 0.0
N395 N 0.3486 0.93057 0.86497 0.0
C396 C 0.36603 0.02671 0.79008 0.0
C397 C 0.35702 0.98632 0.77077 0.0
C398 C 0.39166 0.02715 0.78121 0.0
N399 N 0.34944 0.00644 0.78481 0.0
C400 C 0.38233 0.98615 0.76122 0.0
C401 C 0.40023 0.00656 0.76669 0.0
H402 H 0.35962 0.04216 0.80167 0.0
H403 H 0.3435 0.9702 0.76724 0.0
C404 C 0.23519 0.95666 0.77314 0.0
N405 N 0.25569 0.95146 0.78751 0.0
C406 C 0.22048 0.9359 0.76382 0.0
C407 C 0.24887 0.9048 0.78366 0.0
C408 C 0.26293 0.9262 0.79271 0.0
C409 C 0.22719 0.90953 0.76912 0.0
H410 H 0.23014 0.97699 0.76911 0.0
H411 H 0.27963 0.92268 0.80387 0.0
O412 O 0.30882 0.03228 0.82191 0.0
O413 O 0.25506 0.00315 0.82341 0.0
O414 O 0.2842 0.00755 0.77714 0.0
O415 O 0.30809 0.97161 0.81471 0.0
H416 H 0.29551 0.05208 0.8624 0.0
H417 H 0.31996 0.07197 0.79378 0.0
H418 H 0.29368 0.10011 0.87161 0.0
H419 H 0.31758 0.11968 0.80417 0.0
H420 H 0.19579 0.93724 0.8374 0.0
H421 H 0.21401 0.02423 0.80178 0.0
H422 H 0.24055 0.95701 0.84117 0.0
H423 H 0.16972 0.00329 0.79874 0.0
H424 H 0.2211 0.10794 0.82433 0.0
H425 H 0.23442 0.0947 0.75187 0.0
H426 H 0.34094 -0.00067 0.90831 0.0
H427 H 0.2567 0.98449 0.91273 0.0
H428 H 0.28623 0.96613 0.74919 0.0
H429 H 0.31002 0.04755 0.75798 0.0
H430 H 0.30901 0.96567 0.71151 0.0
H431 H 0.33248 0.04562 0.72016 0.0
H432 H 0.35961 0.9748 0.82278 0.0
H433 H 0.2869 0.93757 0.84404 0.0
H434 H 0.38325 0.94994 0.85323 0.0
H435 H 0.31184 0.91339 0.87415 0.0
H436 H 0.40486 0.04294 0.78643 0.0
H437 H 0.3879 0.97 0.74996 0.0
H438 H 0.20374 0.94053 0.75295 0.0
H439 H 0.25504 0.88481 0.78789 0.0
Li440 Li 0.00075 0.31786 0.29718 0.0
Li441 Li -0.00285 0.29278 0.33306 0.0
Li442 Li 0.01862 0.27296 0.29896 0.0
Li443 Li 0.9714 0.27989 0.29985 0.0
C444 C 0.05049 0.31866 0.32434 0.0
N445 N 0.09311 0.34801 0.33981 0.0
C446 C 0.04777 0.33524 0.34342 0.0
C447 C 0.07498 0.31685 0.31326 0.0
C448 C 0.06952 0.34997 0.35094 0.0
C449 C 0.09626 0.33189 0.3213 0.0
C450 C 0.9458 0.31483 0.32901 0.0
C451 C 0.91447 0.29511 0.35517 0.0
N452 N 0.89844 0.31661 0.35267 0.0
C453 C 0.929 0.33669 0.32665 0.0
C454 C 0.93849 0.29382 0.34333 0.0
C455 C 0.90514 0.33724 0.33879 0.0
C456 C 0.9909 0.35713 0.26422 0.0
N457 N 0.00455 0.35201 0.28382 0.0
C458 C 0.022 0.39599 0.28417 0.0
C459 C 0.0199 0.37082 0.29385 0.0
C460 C 0.00802 0.40196 0.26401 0.0
C461 C 0.9924 0.3821 0.25392 0.0
H462 H 0.97861 0.34185 0.25672 0.0
H463 H 0.03009 0.3666 0.30962 0.0
C464 C 0.01338 0.27569 0.37641 0.0
N465 N -0.00102 0.29464 0.36552 0.0
C466 C 0.01537 0.27575 0.40028 0.0
C467 C 0.98761 0.31484 0.40125 0.0
C468 C 0.98645 0.31421 0.37735 0.0
C469 C 0.00219 0.29539 0.4131 0.0
H470 H 0.02337 0.26056 0.36648 0.0
H471 H 0.97547 0.32931 0.36825 0.0
C472 C 0.01016 0.29279 0.25488 0.0
N473 N 0.0389 0.30075 0.21515 0.0
C474 C 0.00021 0.28413 0.23382 0.0
C475 C 0.03471 0.30551 0.25573 0.0
C476 C 0.01505 0.28833 0.21393 0.0
C477 C 0.04894 0.30937 0.23547 0.0
C478 C 0.98972 0.23015 0.31501 0.0
C479 C 0.98571 0.22232 0.29228 0.0
C480 C 0.99095 0.21099 0.33229 0.0
C481 C 0.98298 0.19536 0.28722 0.0
C482 C 0.98814 0.18422 0.32652 0.0
N483 N 0.98425 0.17703 0.3043 0.0
C484 C 0.06734 0.24667 0.30365 0.0
C485 C 0.04504 0.23788 0.26872 0.0
C486 C 0.08828 0.23021 0.29716 0.0
N487 N 0.04643 0.25031 0.28936 0.0
C488 C 0.06549 0.22128 0.26154 0.0
C489 C 0.08753 0.21733 0.2758 0.0
H490 H 0.06774 0.25663 0.32008 0.0
H491 H 0.02795 0.24062 0.25787 0.0
C492 C 0.93031 0.27326 0.26837 0.0
N493 N 0.93871 0.266 0.28958 0.0
C494 C 0.90795 0.2614 0.25879 0.0
C495 C 0.90273 0.23566 0.29352 0.0
C496 C 0.92527 0.24791 0.30236 0.0
C497 C 0.89414 0.242 0.27128 0.0
H498 H 0.94144 0.28774 0.25865 0.0
H499 H 0.93258 0.24228 0.31908 0.0
O500 O 0.02953 0.30375 0.31691 0.0
O501 O 0.9691 0.31397 0.31707 0.0
O502 O 0.9959 0.28856 0.2745 0.0
O503 O 0.99246 0.25641 0.32048 0.0
H504 H 0.02896 0.3371 0.3521 0.0
H505 H 0.07761 0.30392 0.29862 0.0
H506 H 0.06762 0.363 0.36559 0.0
H507 H 0.11529 0.33072 0.31285 0.0
H508 H 0.90859 0.27901 0.36633 0.0
H509 H 0.93436 0.35306 0.31556 0.0
H510 H 0.95123 0.27672 0.34534 0.0
H511 H 0.89195 0.35405 0.33715 0.0
H512 H 0.03372 0.41089 0.29287 0.0
H513 H 0.98132 0.38587 0.23837 0.0
H514 H 0.02728 0.26066 0.40854 0.0
H515 H 0.97683 0.33018 0.41029 0.0
H516 H 0.98127 0.27414 0.23289 0.0
H517 H 0.04261 0.31245 0.27183 0.0
H518 H 0.00761 0.28168 0.19751 0.0
H519 H 0.06796 0.31922 0.23589 0.0
H520 H 0.98461 0.23686 0.27869 0.0
H521 H 0.99403 0.21676 0.34996 0.0
H522 H 0.97985 0.18903 0.26971 0.0
H523 H 0.98905 0.16916 0.33972 0.0
H524 H 0.10496 0.22781 0.30863 0.0
H525 H 0.06382 0.21129 0.24517 0.0
H526 H 0.90181 0.26698 0.24167 0.0
H527 H 0.89288 0.22053 0.30357 0.0
Li528 Li 0.70307 0.99062 0.83355 0.0
Li529 Li 0.71844 0.96532 0.80027 0.0
Li530 Li 0.72144 0.01366 0.8014 0.0
Li531 Li 0.67903 0.99152 0.79725 0.0
C532 C 0.76449 -0.00285 0.82134 0.0
N533 N 0.81485 0.01834 0.81898 0.0
C534 C 0.7836 0.98549 0.80722 0.0
C535 C 0.77104 0.01948 0.83438 0.0
C536 C 0.80895 0.99651 0.80626 0.0
C537 C 0.79659 0.02995 0.8329 0.0
C538 C 0.68335 0.93434 0.82084 0.0
C539 C 0.67624 0.8903 0.80585 0.0
N540 N 0.68194 0.87996 0.82682 0.0
C541 C 0.68903 0.92329 0.84226 0.0
C542 C 0.67677 0.91774 0.8025 0.0
C543 C 0.68823 0.89574 0.84493 0.0
C544 C 0.67527 0.98776 0.8757 0.0
N545 N 0.69965 0.98991 0.86597 0.0
C546 C 0.72022 0.99055 0.90279 0.0
C547 C 0.72194 0.99111 0.87893 0.0
C548 C 0.6953 0.98871 0.91337 0.0
C549 C 0.6726 0.98737 0.89953 0.0
H550 H 0.65792 0.98632 0.86492 0.0
H551 H 0.74107 0.99241 0.87074 0.0
C552 C 0.74121 0.93097 0.76783 0.0
N553 N 0.73624 0.9342 0.79054 0.0
C554 C 0.7558 0.9092 0.76018 0.0
C555 C 0.75951 0.89425 0.79944 0.0
C556 C 0.74518 0.91654 0.80635 0.0
C557 C 0.76532 0.8905 0.77607 0.0
H558 H 0.73449 0.94571 0.7557 0.0
H559 H 0.7415 0.91997 0.82436 0.0
C560 C 0.67535 0.03478 0.83452 0.0
N561 N 0.64952 0.05904 0.87066 0.0
C562 C 0.64782 0.03307 0.83641 0.0
C563 C 0.68974 0.04895 0.85092 0.0
C564 C 0.63513 0.04548 0.85482 0.0
C565 C 0.67632 0.06101 0.8691 0.0
C566 C 0.69788 0.99414 0.75522 0.0
C567 C 0.69816 0.01908 0.74471 0.0
C568 C 0.68478 0.97302 0.74462 0.0
C569 C 0.68512 0.02251 0.7238 0.0
C570 C 0.67193 0.97727 0.72374 0.0
N571 N 0.67236 0.00172 0.71385 0.0
C572 C 0.76025 0.03817 0.77476 0.0
C573 C 0.73824 0.0674 0.80033 0.0
C574 C 0.77605 0.05881 0.76667 0.0
N575 N 0.74195 0.0428 0.79135 0.0
C576 C 0.75366 0.08864 0.79278 0.0
C577 C 0.77287 0.08445 0.77572 0.0
H578 H 0.76259 0.01837 0.76788 0.0
H579 H 0.72329 0.07052 0.8133 0.0
C580 C 0.62815 0.97331 0.7862 0.0
N581 N 0.64519 0.99391 0.78367 0.0
C582 C 0.60261 0.97495 0.77732 0.0
C583 C 0.61284 0.01883 0.76302 0.0
C584 C 0.63812 0.01643 0.77241 0.0
C585 C 0.59456 -0.00197 0.76568 0.0
H586 H 0.63415 0.95588 0.79564 0.0
H587 H 0.65201 0.03267 0.77102 0.0
O588 O 0.73938 0.98704 0.82211 0.0
O589 O 0.68421 0.96125 0.81783 0.0
O590 O 0.68819 0.02247 0.8168 0.0
O591 O 0.71023 0.99045 0.77584 0.0
H592 H 0.77886 0.96827 0.79694 0.0
H593 H 0.75642 0.0289 0.84524 0.0
H594 H 0.8239 0.98777 0.79532 0.0
H595 H 0.80186 0.04735 0.84275 0.0
H596 H 0.67135 0.87721 0.79177 0.0
H597 H 0.6942 0.93581 0.85664 0.0
H598 H 0.67239 0.92596 0.78579 0.0
H599 H 0.69269 0.88691 0.86139 0.0
H600 H 0.73819 0.99183 0.91284 0.0
H601 H 0.65306 0.98559 0.90703 0.0
H602 H 0.76031 0.90762 0.74208 0.0
H603 H 0.76615 0.88029 0.81232 0.0
H604 H 0.63637 0.02212 0.82394 0.0
H605 H 0.71108 0.05025 0.84984 0.0
H606 H 0.61384 0.04424 0.85656 0.0
H607 H 0.68721 0.07186 0.88202 0.0
H608 H 0.70806 0.03569 0.75273 0.0
H609 H 0.68433 0.95362 0.75255 0.0
H610 H 0.68506 0.04172 0.71553 0.0
H611 H 0.66158 0.96115 0.71541 0.0
H612 H 0.79085 0.05465 0.75371 0.0
H613 H 0.75038 0.10817 0.8 0.0
H614 H 0.58906 0.95868 0.78036 0.0
H615 H 0.6076 0.03691 0.75407 0.0
Li616 Li 0.9676 0.71739 0.30126 0.0
Li617 Li 0.01601 0.71873 0.30207 0.0
Li618 Li 0.99173 0.67798 0.29622 0.0
Li619 Li 0.99098 0.69988 0.33393 0.0
C620 C 0.99116 0.70056 0.25406 0.0
N621 N 0.98859 0.68157 0.20962 0.0
C622 C 0.01063 0.70748 0.2381 0.0
C623 C 0.97005 0.68451 0.2472 0.0
C624 C 0.00907 0.69756 0.21577 0.0
C625 C 0.96919 0.67493 0.22474 0.0
C626 C 0.98965 0.76373 0.31896 0.0
C627 C 0.98657 0.80891 0.33242 0.0
N628 N 0.98715 0.81763 0.31036 0.0
C629 C 0.99025 0.77317 0.29641 0.0
C630 C 0.9878 0.78174 0.33712 0.0
C631 C 0.98895 0.80047 0.29242 0.0
C632 C 0.92312 0.74922 0.30991 0.0
N633 N 0.93725 0.73735 0.29294 0.0
C634 C 0.9104 0.75785 0.26433 0.0
C635 C 0.93128 0.74121 0.27049 0.0
C636 C 0.89555 0.77066 0.28147 0.0
C637 C 0.90193 0.76584 0.30455 0.0
H638 H 0.92871 0.74622 0.32762 0.0
H639 H 0.94323 0.73208 0.25732 0.0
C640 C 0.06324 0.72493 0.27802 0.0
N641 N 0.0479 0.73655 0.29433 0.0
C642 C 0.0862 0.73746 0.27032 0.0
C643 C 0.07834 0.77258 0.29775 0.0
C644 C 0.05536 0.75951 0.30473 0.0
C645 C 0.09372 0.76181 0.27998 0.0
H646 H 0.05739 0.70606 0.2708 0.0
H647 H 0.04345 0.76786 0.3183 0.0
C648 C 0.93447 0.68363 0.32053 0.0
N649 N 0.88029 0.68623 0.32707 0.0
C650 C 0.92412 0.6917 0.34165 0.0
C651 C 0.91719 0.67642 0.30288 0.0
C652 C 0.8967 0.69299 0.34459 0.0
C653 C 0.88989 0.67801 0.30648 0.0
C654 C 0.04422 0.68568 0.33067 0.0
C655 C 0.06265 0.66501 0.33028 0.0
C656 C 0.04869 0.70778 0.34465 0.0
C657 C 0.08525 0.66672 0.34398 0.0
C658 C 0.07153 0.70874 0.3581 0.0
N659 N 0.08919 0.68836 0.35749 0.0
C660 C 0.01533 0.63942 0.26813 0.0
C661 C 0.97435 0.62678 0.28473 0.0
C662 C 0.01796 0.61457 0.2578 0.0
N663 N 0.99388 0.64485 0.28139 0.0
C664 C 0.9762 0.60168 0.27482 0.0
C665 C -0.0016 0.59518 0.26138 0.0
H666 H 0.03053 0.65431 0.26584 0.0
H667 H 0.95766 0.63165 0.29555 0.0
C668 C 0.98059 0.71607 0.37872 0.0
N669 N 0.99109 0.69591 0.36624 0.0
C670 C 0.9811 0.7152 0.40258 0.0
C671 C 0.00337 0.67278 0.40039 0.0
C672 C 0.00214 0.67435 0.37648 0.0
C673 C 0.99293 0.69352 0.41379 0.0
H674 H 0.9717 0.73281 0.37006 0.0
H675 H 0.01045 0.65864 0.36607 0.0
O676 O 0.99246 0.70997 0.27609 0.0
O677 O 0.99055 0.73704 0.32339 0.0
O678 O 0.96132 0.68262 0.31725 0.0
O679 O 0.02207 0.68425 0.31724 0.0
H680 H 0.02658 0.72068 0.24274 0.0
H681 H 0.95462 0.67931 0.25916 0.0
H682 H 0.02407 0.70269 0.20329 0.0
H683 H 0.9531 0.66224 0.21934 0.0
H684 H 0.98514 0.82306 0.34632 0.0
H685 H 0.99172 0.75967 0.28208 0.0
H686 H 0.98739 0.77484 0.35468 0.0
H687 H 0.98938 0.80803 0.27507 0.0
H688 H 0.90662 0.7614 0.24632 0.0
H689 H 0.89091 0.77507 0.31835 0.0
H690 H 0.09786 0.72829 0.25688 0.0
H691 H 0.08355 0.7913 0.30567 0.0
H692 H 0.93706 0.69707 0.3556 0.0
H693 H 0.92469 0.66963 0.28658 0.0
H694 H 0.88847 0.6994 0.3608 0.0
H695 H 0.87633 0.67265 0.2929 0.0
H696 H 0.05949 0.64781 0.31948 0.0
H697 H 0.0347 0.72402 0.34516 0.0
H698 H 0.09968 0.65084 0.34387 0.0
H699 H 0.07522 0.7257 0.36901 0.0
H700 H 0.03528 0.61047 0.24744 0.0
H701 H 0.96092 0.58722 0.27845 0.0
H702 H 0.97224 0.73136 0.41213 0.0
H703 H 0.01294 0.65583 0.40822 0.0
H704 H 0.33398 0.01499 0.05832 0.0
H705 H 0.27377 0.95585 0.9421 0.0
H706 H 0.26869 0.95986 0.05593 0.0
H707 H 0.32911 0.02111 0.94376 0.0
H708 H 0.27511 0.95389 0.98387 0.0
H709 H 0.33607 0.01416 0.01636 0.0
C710 C 0.32022 0.00257 0.04896 0.0
C711 C 0.30103 0.98758 0.0606 0.0
C712 C 0.28702 0.96861 0.9751 0.0
C713 C 0.30323 0.98661 0.01269 0.0
C714 C 0.28617 0.96982 0.95124 0.0
C715 C 0.30116 0.98884 0.93936 0.0
C716 C 0.30303 0.98648 0.98727 0.0
C717 C 0.31737 0.00599 0.95214 0.0
C718 C 0.32133 0.00221 0.02504 0.0
C719 C 0.28354 0.97202 0.04764 0.0
N720 N 0.31778 0.00448 0.97541 0.0
N721 N 0.28506 0.97195 0.02439 0.0
H722 H 0.98806 0.33761 0.55628 0.0
H723 H 0.00353 0.25256 0.44236 0.0
H724 H 0.01931 0.25774 0.55626 0.0
H725 H 0.00344 0.33834 0.44229 0.0
H726 H 0.00497 0.25318 0.48416 0.0
H727 H 0.98916 0.33743 0.51448 0.0
C728 C 0.99539 0.3201 0.54759 0.0
C729 C 0.00366 0.29765 0.55999 0.0
C730 C 0.00473 0.27184 0.47494 0.0
C731 C 0.00429 0.29718 0.51198 0.0
C732 C 0.00406 0.27155 0.45103 0.0
C733 C 0.00338 0.29545 0.43861 0.0
C734 C 0.00436 0.29618 0.48661 0.0
C735 C 0.00346 0.31939 0.45102 0.0
C736 C 0.99585 0.32 0.52367 0.0
C737 C 0.01231 0.27535 0.54756 0.0
N738 N 0.0038 0.31913 0.47431 0.0
N739 N 0.01227 0.27564 0.52426 0.0
H740 H 0.66013 0.01547 0.94076 0.0
H741 H 0.72162 0.95896 0.05747 0.0
H742 H 0.7256 0.96053 0.94362 0.0
H743 H 0.6652 0.02331 0.05524 0.0
H744 H 0.72 0.9562 0.01575 0.0
H745 H 0.6582 0.01532 0.98272 0.0
C746 C 0.67395 0.00322 0.95022 0.0
C747 C 0.69316 0.98811 0.93871 0.0
C748 C 0.70792 0.97089 0.02438 0.0
C749 C 0.69115 0.98793 0.98664 0.0
C750 C 0.70893 0.97257 0.04821 0.0
C751 C 0.69372 0.99158 0.05991 0.0
C752 C 0.69153 0.98829 0.01205 0.0
C753 C 0.67714 0.00824 0.04699 0.0
C754 C 0.67294 0.00326 0.97415 0.0
C755 C 0.71074 0.97279 0.95181 0.0
N756 N 0.67657 0.00628 0.02374 0.0
N757 N 0.70932 0.97311 0.97506 0.0
H758 H 0.00208 0.73521 0.44289 0.0
H759 H 0.00584 0.64892 0.55741 0.0
H760 H 0.98825 0.6506 0.44287 0.0
H761 H 0.99351 0.73377 0.55631 0.0
H762 H 0.00356 0.64851 0.51547 0.0
H763 H 0.00368 0.73444 0.48458 0.0
C764 C -0.00085 0.71646 0.45161 0.0
C765 C 0.99472 0.69297 0.43924 0.0
C766 C 0.00134 0.66717 0.52449 0.0
C767 C -0.00287 0.69192 0.48717 0.0
C768 C 0.0025 0.66743 0.54843 0.0
C769 C 3e-05 0.69145 0.56051 0.0
C770 C -0.00209 0.69111 0.51254 0.0
C771 C -0.00387 0.71484 0.54784 0.0
C772 C 0.00022 0.71604 0.47546 0.0
C773 C 0.99191 0.66917 0.45161 0.0
N774 N 0.99531 0.71408 0.5246 0.0
N775 N 0.99317 0.66925 0.47491 0.0
H776 H 0.43108 0.04049 0.23381 0.0
H777 H 0.56346 0.96013 0.23653 0.0
H778 H 0.43334 0.95684 0.25002 0.0
H779 H 0.56141 0.04515 0.24615 0.0
H780 H 0.51612 0.95839 0.24396 0.0
H781 H 0.47849 0.04305 0.2408 0.0
C782 C 0.44136 0.02274 0.23931 0.0
C783 C 0.42815 -0.00172 0.24095 0.0
C784 C 0.5261 0.97738 0.24482 0.0
C785 C 0.48271 0.00103 0.24838 0.0
C786 C 0.55325 0.97841 0.24068 0.0
C787 C 0.56651 0.00291 0.24034 0.0
C788 C 0.51198 0.00104 0.24826 0.0
C789 C 0.55194 0.0259 0.24555 0.0
C790 C 0.46854 0.02422 0.24319 0.0
C791 C 0.44278 0.97595 0.24788 0.0
N792 N 0.52538 0.02446 0.24891 0.0
N793 N 0.46935 0.97777 0.25095 0.0
H794 H 0.93987 0.43695 0.73964 0.0
H795 H 0.03202 0.56293 0.75918 0.0
H796 H 0.02387 0.4326 0.7525 0.0
H797 H 0.95007 0.56674 0.73848 0.0
H798 H 0.02697 0.51533 0.76601 0.0
H799 H 0.94094 0.48431 0.74852 0.0
C800 C 0.95848 0.44593 0.74463 0.0
C801 C 0.98191 0.43097 0.7449 0.0
C802 C 0.00998 0.52668 0.76034 0.0
C803 C 0.98333 0.4851 0.755 0.0
C804 C 0.01288 0.55382 0.75635 0.0
C805 C 0.99158 0.56874 0.74782 0.0
C806 C 0.98565 0.51438 0.75565 0.0
C807 C 0.96705 0.55607 0.74503 0.0
C808 C 0.95908 0.47293 0.74976 0.0
C809 C 0.00536 0.44341 0.752 0.0
N810 N 0.96488 0.52954 0.74859 0.0
N811 N 0.00556 0.46988 0.7564 0.0
H812 H 0.56365 0.04285 0.76681 0.0
H813 H 0.43154 0.96242 0.7613 0.0
H814 H 0.56152 0.96006 0.7476 0.0
H815 H 0.43317 0.04785 0.75471 0.0
H816 H 0.47885 0.96121 0.75381 0.0
H817 H 0.51621 0.04572 0.75996 0.0
C818 C 0.55339 0.02539 0.76068 0.0
C819 C 0.56663 0.00103 0.75816 0.0
C820 C 0.46879 0.9802 0.75364 0.0
C821 C 0.51207 0.0041 0.75087 0.0
C822 C 0.44164 0.98093 0.7578 0.0
C823 C 0.42825 0.00534 0.75898 0.0
C824 C 0.4828 0.00404 0.75103 0.0
C825 C 0.44273 0.02862 0.75464 0.0
C826 C 0.5262 0.02704 0.75687 0.0
C827 C 0.55205 0.97905 0.75043 0.0
N828 N 0.4693 0.02744 0.75124 0.0
N829 N 0.52547 0.981 0.74744 0.0
H830 H 0.96628 0.43068 0.24713 0.0
H831 H 0.04419 0.56607 0.26029 0.0
H832 H 0.05021 0.43587 0.2602 0.0
H833 H 0.96102 0.56124 0.24377 0.0
H834 H 0.04846 0.51872 0.25286 0.0
H835 H 0.96564 0.47802 0.23843 0.0
C836 C 0.9847 0.44164 0.24769 0.0
C837 C 0.00825 0.4294 0.25484 0.0
C838 C 0.02934 0.52805 0.25051 0.0
C839 C 0.00755 0.48374 0.24536 0.0
C840 C 0.02691 0.5552 0.2546 0.0
C841 C 0.00209 0.5676 0.25306 0.0
C842 C 0.00673 0.51312 0.24506 0.0
C843 C 0.9804 0.55236 0.24579 0.0
C844 C 0.98429 0.46875 0.24285 0.0
C845 C 0.03148 0.44467 0.25536 0.0
N846 N 0.98314 0.52583 0.24241 0.0
N847 N 0.03046 0.47112 0.25105 0.0
H848 H 0.10991 0.21281 0.23319 0.0
H849 H 0.20477 0.09246 0.2688 0.0
H850 H 0.11464 0.18105 0.30181 0.0
H851 H 0.19658 0.12124 0.19945 0.0
H852 H 0.17407 0.12681 0.28172 0.0
H853 H 0.14396 0.18142 0.22101 0.0
C854 C 0.1181 0.19921 0.2457 0.0
C855 C 0.10927 0.19943 0.26852 0.0
C856 C 0.17906 0.12568 0.26369 0.0
C857 C 0.14843 0.16358 0.25474 0.0
C858 C 0.19649 0.106 0.25628 0.0
C859 C 0.20312 0.10387 0.23298 0.0
C860 C 0.16813 0.14337 0.24768 0.0
C861 C 0.1922 0.12227 0.2176 0.0
C862 C 0.13764 0.18138 0.23876 0.0
C863 C 0.12098 0.18172 0.28409 0.0
N864 N 0.17513 0.14117 0.2252 0.0
N865 N 0.13985 0.16442 0.27688 0.0
H866 H 0.87221 0.18745 0.6941 0.0
H867 H 0.7965 0.12342 0.80125 0.0
H868 H 0.88393 0.21232 0.76418 0.0
H869 H 0.78771 0.09579 0.73161 0.0
H870 H 0.82578 0.1586 0.78757 0.0
H871 H 0.83831 0.15629 0.70709 0.0
C872 C 0.86745 0.18656 0.71219 0.0
C873 C 0.88103 0.20238 0.7281 0.0
C874 C 0.81737 0.14491 0.77526 0.0
C875 C 0.8425 0.16657 0.74313 0.0
C876 C 0.80053 0.12491 0.78305 0.0
C877 C 0.78976 0.10656 0.76756 0.0
C878 C 0.82347 0.14659 0.75181 0.0
C879 C 0.79592 0.10925 0.7442 0.0
C880 C 0.84822 0.16865 0.71962 0.0
C881 C 0.87426 0.20018 0.75137 0.0
N882 N 0.81243 0.12884 0.73704 0.0
N883 N 0.85554 0.18254 0.75819 0.0
H884 H 0.88361 0.8178 0.30262 0.0
H885 H 0.78443 0.86603 0.20523 0.0
H886 H 0.85994 0.76806 0.2459 0.0
H887 H 0.79318 0.90627 0.27017 0.0
H888 H 0.81252 0.83023 0.21943 0.0
H889 H 0.85101 0.85069 0.29078 0.0
C890 C 0.87133 0.81358 0.28786 0.0
C891 C 0.87462 0.79006 0.27523 0.0
C892 C 0.80816 0.84683 0.23062 0.0
C893 C 0.8376 0.82806 0.26127 0.0
C894 C 0.792 0.86724 0.22256 0.0
C895 C 0.78647 0.88931 0.23648 0.0
C896 C 0.81907 0.84855 0.25269 0.0
C897 C 0.79729 0.88993 0.25866 0.0
C898 C 0.85281 0.83249 0.28102 0.0
C899 C 0.85845 0.78606 0.25595 0.0
N900 N 0.81318 0.86994 0.26602 0.0
N901 N 0.84076 0.80494 0.24947 0.0
H902 H 0.13724 0.76456 0.75237 0.0
H903 H 0.20524 0.90464 0.72629 0.0
H904 H 0.11414 0.81578 0.69646 0.0
H905 H 0.21291 0.86338 0.79087 0.0
H906 H 0.17683 0.86894 0.71235 0.0
H907 H 0.17021 0.79739 0.76392 0.0
C908 C 0.1391 0.78266 0.74249 0.0
C909 C 0.12271 0.78746 0.72349 0.0
C910 C 0.18484 0.86767 0.72954 0.0
C911 C 0.16066 0.82493 0.73647 0.0
C912 C 0.20094 0.88811 0.73757 0.0
C913 C 0.21131 0.88717 0.75988 0.0
C914 C 0.17913 0.84604 0.74386 0.0
C915 C 0.20558 0.86489 0.77349 0.0
C916 C 0.15801 0.80133 0.74905 0.0
C917 C 0.12647 0.81104 0.71106 0.0
N918 N 0.18979 0.84526 0.76529 0.0
N919 N 0.14497 0.82893 0.71783 0.0
H920 H 0.76225 0.86159 0.73606 0.0
H921 H 0.88893 0.77235 0.76385 0.0
H922 H 0.80784 0.86848 0.79845 0.0
H923 H 0.86247 0.78836 0.6949 0.0
H924 H 0.85311 0.80028 0.77858 0.0
H925 H 0.79328 0.82782 0.72248 0.0
C926 C 0.77869 0.85604 0.74695 0.0
C927 C 0.78248 0.86819 0.7684 0.0
C928 C 0.85504 0.79751 0.76024 0.0
C929 C 0.81765 0.8291 0.75309 0.0
C930 C 0.87533 0.78146 0.75184 0.0
C931 C 0.87868 0.77819 0.72813 0.0
C932 C 0.83785 0.81016 0.74482 0.0
C933 C 0.8607 0.79065 0.71329 0.0
C934 C 0.79629 0.83665 0.7392 0.0
C935 C 0.80381 0.85956 0.78195 0.0
N936 N 0.84103 0.80615 0.72189 0.0
N937 N 0.82061 0.84062 0.77404 0.0
H938 H 0.23326 0.85952 0.26222 0.0
H939 H 0.10571 0.77135 0.23516 0.0
H940 H 0.18676 0.86735 0.20041 0.0
H941 H 0.1335 0.78625 0.30389 0.0
H942 H 0.14146 0.79917 0.22022 0.0
H943 H 0.20238 0.82565 0.27582 0.0
C944 C 0.21665 0.85415 0.25146 0.0
C945 C 0.21255 0.8666 0.23018 0.0
C946 C 0.13984 0.79618 0.23855 0.0
C947 C 0.17754 0.82742 0.2455 0.0
C948 C 0.11959 0.78019 0.24707 0.0
C949 C 0.11663 0.77665 0.27078 0.0
C950 C 0.15738 0.8085 0.25385 0.0
C951 C 0.13497 0.78876 0.2855 0.0
C952 C 0.19913 0.83471 0.25921 0.0
C953 C 0.19101 0.8582 0.21678 0.0
N954 N 0.15459 0.80422 0.27679 0.0
N955 N 0.17429 0.83921 0.2247 0.0
H956 H 0.13867 0.22242 0.71148 0.0
H957 H 0.17959 0.11996 0.80862 0.0
H958 H 0.09695 0.21528 0.77585 0.0
H959 H 0.23176 0.14174 0.753 0.0
H960 H 0.1495 0.15535 0.79722 0.0
H961 H 0.17344 0.19362 0.72653 0.0
C962 C 0.13697 0.21513 0.72889 0.0
C963 C 0.11468 0.22112 0.74233 0.0
C964 C 0.16765 0.15255 0.78763 0.0
C965 C 0.15421 0.1877 0.75948 0.0
C966 C 0.18497 0.13241 0.79422 0.0
C967 C 0.20825 0.12768 0.78169 0.0
C968 C 0.17344 0.16795 0.76821 0.0
C969 C 0.21381 0.14425 0.76291 0.0
C970 C 0.15679 0.19856 0.73742 0.0
C971 C 0.11345 0.21074 0.76467 0.0
N972 N 0.19642 0.16348 0.75661 0.0
N973 N 0.1328 0.19436 0.77245 0.0
H974 H 0.89204 0.22164 0.22791 0.0
H975 H 0.75545 0.14511 0.24846 0.0
H976 H 0.84665 0.22756 0.29043 0.0
H977 H 0.81069 0.12609 0.19433 0.0
H978 H 0.78463 0.18108 0.2607 0.0
H979 H 0.85795 0.19279 0.21186 0.0
C980 C 0.87468 0.21723 0.23813 0.0
C981 C 0.87223 0.22689 0.26059 0.0
C982 C 0.79022 0.16914 0.24604 0.0
C983 C 0.83333 0.19359 0.24243 0.0
C984 C 0.77365 0.14852 0.23909 0.0
C985 C 0.78073 0.1323 0.22047 0.0
C986 C 0.81399 0.1737 0.23422 0.0
C987 C 0.80426 0.13813 0.20866 0.0
C988 C 0.85533 0.20058 0.22901 0.0
C989 C 0.84947 0.22023 0.27315 0.0
N990 N 0.82011 0.15823 0.21582 0.0
N991 N 0.83094 0.20386 0.26394 0.0
loop_
_geom_bond_atom_site_label_1
_geom_bond_atom_site_label_2
_geom_bond_distance
_geom_bond_site_symmetry_2
_ccdc_geom_bond_type
Li0 N17 1.990 . S
Li0 O60 1.956 . S
Li0 O61 1.970 . S
Li0 O62 1.977 . S
Li1 N25 1.990 1_545 S
Li1 O60 1.982 . S
Li1 O61 1.956 . S
Li1 O63 1.950 1_545 S
Li2 N47 1.990 . S
Li2 O60 1.961 . S
Li2 O62 1.957 . S
Li2 O63 1.970 1_545 S
Li3 N53 1.990 . S
Li3 O61 1.961 1_565 S
Li3 O62 1.955 1_565 S
Li3 O63 1.956 . S
C4 C6 1.348 . S
C4 C7 1.356 . S
C4 O60 1.325 . S
N5 C8 1.314 . S
N5 C9 1.279 . S
C6 C4 1.348 . S
C6 C8 1.353 . S
C6 H64 0.929 . S
C7 C4 1.356 . S
C7 C9 1.358 . S
C7 H65 0.930 . S
C8 N5 1.314 . S
C8 C6 1.353 . S
C8 H66 0.930 . S
C9 N5 1.279 . S
C9 C7 1.358 . S
C9 H67 0.930 . S
C10 C13 1.375 . S
C10 C14 1.329 1_545 S
C10 O61 1.326 . S
C11 N12 1.290 . S
C11 C14 1.358 . S
C11 H68 0.930 . S
N12 C11 1.290 . S
N12 C15 1.303 1_565 S
C13 C10 1.375 . S
C13 C15 1.353 . S
C13 H69 0.929 . S
C14 C10 1.329 1_565 S
C14 C11 1.358 . S
C14 H70 0.930 . S
C15 N12 1.303 1_545 S
C15 C13 1.353 . S
C15 H71 0.930 . S
C16 N17 1.314 . S
C16 C21 1.353 . S
C16 H22 0.930 . S
N17 Li0 1.990 . S
N17 C16 1.314 . S
N17 C19 1.279 . S
C18 C19 1.358 . S
C18 C20 1.356 . S
C18 H72 0.930 . S
C19 N17 1.279 . S
C19 C18 1.358 . S
C19 H23 0.930 . S
C20 C18 1.356 . S
C20 C21 1.348 . S
C21 C16 1.353 . S
C21 C20 1.348 . S
C21 H73 0.929 . S
H22 C16 0.930 . S
H23 C19 0.930 . S
C24 N25 1.314 . S
C24 C26 1.353 . S
C24 H30 0.930 . S
N25 Li1 1.990 1_565 S
N25 C24 1.314 . S
N25 C28 1.279 1_565 S
C26 C24 1.353 . S
C26 C29 1.337 1_565 S
C26 H74 0.929 . S
C27 C28 1.358 . S
C27 C29 1.364 . S
C27 H75 0.930 . S
C28 N25 1.279 1_545 S
C28 C27 1.358 . S
C28 H31 0.930 . S
C29 C26 1.337 1_545 S
C29 C27 1.364 . S
H30 C24 0.930 . S
H31 C28 0.930 . S
C32 C34 1.313 1_545 S
C32 C35 1.390 . S
C32 O62 1.325 . S
N33 C36 1.314 1_545 S
N33 C37 1.279 . S
C34 C32 1.313 1_565 S
C34 C36 1.353 . S
C34 H76 0.929 . S
C35 C32 1.390 . S
C35 C37 1.358 . S
C35 H77 0.930 . S
C36 N33 1.314 1_565 S
C36 C34 1.353 . S
C36 H78 0.930 . S
C37 N33 1.279 . S
C37 C35 1.358 . S
C37 H79 0.930 . S
C38 C39 1.348 . S
C38 C40 1.356 . S
C38 O63 1.325 . S
C39 C38 1.348 . S
C39 C41 1.353 . S
C39 H80 0.929 . S
C40 C38 1.356 . S
C40 C42 1.358 . S
C40 H81 0.930 . S
C41 C39 1.353 . S
C41 N43 1.314 . S
C41 H82 0.930 . S
C42 C40 1.358 . S
C42 N43 1.279 . S
C42 H83 0.930 . S
N43 C41 1.314 . S
N43 C42 1.279 . S
C44 C46 1.353 . S
C44 N47 1.314 . S
C44 H50 0.930 . S
C45 N47 1.279 1_565 S
C45 C48 1.358 . S
C45 H51 0.930 . S
C46 C44 1.353 . S
C46 C49 1.359 . S
C46 H84 0.929 . S
N47 Li2 1.990 . S
N47 C44 1.314 . S
N47 C45 1.279 1_545 S
C48 C45 1.358 . S
C48 C49 1.350 1_565 S
C48 H85 0.930 . S
C49 C46 1.359 . S
C49 C48 1.350 1_545 S
H50 C44 0.930 . S
H51 C45 0.930 . S
C52 N53 1.314 . S
C52 C54 1.353 . S
C52 H58 0.930 . S
N53 Li3 1.990 . S
N53 C52 1.314 . S
N53 C56 1.279 . S
C54 C52 1.353 . S
C54 C57 1.348 . S
C54 H86 0.929 . S
C55 C56 1.358 . S
C55 C57 1.356 . S
C55 H87 0.930 . S
C56 N53 1.279 . S
C56 C55 1.358 . S
C56 H59 0.930 . S
C57 C54 1.348 . S
C57 C55 1.356 . S
H58 C52 0.930 . S
H59 C56 0.930 . S
O60 Li0 1.956 . S
O60 Li1 1.982 . S
O60 Li2 1.961 . S
O60 C4 1.325 . S
O61 Li0 1.970 . S
O61 Li1 1.956 . S
O61 Li3 1.961 1_545 S
O61 C10 1.326 . S
O62 Li0 1.977 . S
O62 Li2 1.957 . S
O62 Li3 1.955 1_545 S
O62 C32 1.325 . S
O63 Li1 1.950 1_565 S
O63 Li2 1.970 1_565 S
O63 Li3 1.956 . S
O63 C38 1.325 . S
H64 C6 0.929 . S
H65 C7 0.930 . S
H66 C8 0.930 . S
H67 C9 0.930 . S
H68 C11 0.930 . S
H69 C13 0.929 . S
H70 C14 0.930 . S
H71 C15 0.930 . S
H72 C18 0.930 . S
H73 C21 0.929 . S
H74 C26 0.929 . S
H75 C27 0.930 . S
H76 C34 0.929 . S
H77 C35 0.930 . S
H78 C36 0.930 . S
H79 C37 0.930 . S
H80 C39 0.929 . S
H81 C40 0.930 . S
H82 C41 0.930 . S
H83 C42 0.930 . S
H84 C46 0.929 . S
H85 C48 0.930 . S
H86 C54 0.929 . S
H87 C55 0.930 . S
Li88 N105 1.990 . S
Li88 O148 1.956 . S
Li88 O149 1.970 1_455 S
Li88 O150 1.960 1_455 S
Li89 N113 1.991 . S
Li89 O148 1.957 1_655 S
Li89 O149 1.969 . S
Li89 O151 1.960 1_655 S
Li90 N135 1.990 . S
Li90 O148 1.961 . S
Li90 O150 1.948 1_455 S
Li90 O151 1.970 . S
Li91 N141 1.990 . S
Li91 O149 1.961 . S
Li91 O150 1.978 . S
Li91 O151 1.956 1_655 S
C92 C94 1.348 . S
C92 C95 1.356 . S
C92 O148 1.325 . S
N93 C96 1.314 . S
N93 C97 1.279 . S
C94 C92 1.348 . S
C94 C96 1.353 . S
C94 H152 0.929 . S
C95 C92 1.356 . S
C95 C97 1.358 . S
C95 H153 0.930 . S
C96 N93 1.314 . S
C96 C94 1.353 . S
C96 H154 0.930 . S
C97 N93 1.279 . S
C97 C95 1.358 . S
C97 H155 0.930 . S
C98 C101 1.348 . S
C98 C102 1.356 . S
C98 O149 1.325 . S
C99 N100 1.279 . S
C99 C102 1.358 . S
C99 H156 0.930 . S
N100 C99 1.279 . S
N100 C103 1.314 . S
C101 C98 1.348 . S
C101 C103 1.353 . S
C101 H157 0.929 . S
C102 C98 1.356 . S
C102 C99 1.358 . S
C102 H158 0.930 . S
C103 N100 1.314 . S
C103 C101 1.353 . S
C103 H159 0.930 . S
C104 N105 1.314 1_655 S
C104 C109 1.353 . S
C104 H110 0.930 . S
N105 Li88 1.990 . S
N105 C104 1.314 1_455 S
N105 C107 1.279 . S
C106 C107 1.358 . S
C106 C108 1.377 . S
C106 H160 0.930 . S
C107 N105 1.279 . S
C107 C106 1.358 . S
C107 H111 0.930 . S
C108 C106 1.377 . S
C108 C109 1.330 1_455 S
C109 C104 1.353 . S
C109 C108 1.330 1_655 S
C109 H161 0.929 . S
H110 C104 0.930 . S
H111 C107 0.930 . S
C112 N113 1.314 1_455 S
C112 C114 1.353 . S
C112 H118 0.930 . S
N113 Li89 1.991 . S
N113 C112 1.314 1_655 S
N113 C116 1.279 . S
C114 C112 1.353 . S
C114 C117 1.363 . S
C114 H162 0.929 . S
C115 C116 1.358 . S
C115 C117 1.338 1_655 S
C115 H163 0.930 . S
C116 N113 1.279 . S
C116 C115 1.358 . S
C116 H119 0.930 . S
C117 C114 1.363 . S
C117 C115 1.338 1_455 S
H118 C112 0.930 . S
H119 C116 0.930 . S
C120 C122 1.331 1_455 S
C120 C123 1.377 . S
C120 O150 1.324 1_455 S
N121 C124 1.314 1_455 S
N121 C125 1.279 . S
C122 C120 1.331 1_655 S
C122 C124 1.353 . S
C122 H164 0.929 . S
C123 C120 1.377 . S
C123 C125 1.358 . S
C123 H165 0.930 . S
C124 N121 1.314 1_655 S
C124 C122 1.353 . S
C124 H166 0.930 . S
C125 N121 1.279 . S
C125 C123 1.358 . S
C125 H167 0.930 . S
C126 C127 1.364 . S
C126 C128 1.337 1_455 S
C126 O151 1.326 . S
C127 C126 1.364 . S
C127 C129 1.353 . S
C127 H168 0.929 . S
C128 C126 1.337 1_655 S
C128 C130 1.358 . S
C128 H169 0.930 . S
C129 C127 1.353 . S
C129 N131 1.314 1_455 S
C129 H170 0.930 . S
C130 C128 1.358 . S
C130 N131 1.279 . S
C130 H171 0.930 . S
N131 C129 1.314 1_655 S
N131 C130 1.279 . S
C132 C134 1.353 . S
C132 N135 1.314 . S
C132 H138 0.930 . S
C133 N135 1.279 . S
C133 C136 1.358 . S
C133 H139 0.930 . S
C134 C132 1.353 . S
C134 C137 1.348 . S
C134 H172 0.929 . S
N135 Li90 1.990 . S
N135 C132 1.314 . S
N135 C133 1.279 . S
C136 C133 1.358 . S
C136 C137 1.356 . S
C136 H173 0.930 . S
C137 C134 1.348 . S
C137 C136 1.356 . S
H138 C132 0.930 . S
H139 C133 0.930 . S
C140 N141 1.314 . S
C140 C142 1.353 . S
C140 H146 0.930 . S
N141 Li91 1.990 . S
N141 C140 1.314 . S
N141 C144 1.279 . S
C142 C140 1.353 . S
C142 C145 1.348 . S
C142 H174 0.929 . S
C143 C144 1.358 . S
C143 C145 1.356 . S
C143 H175 0.930 . S
C144 N141 1.279 . S
C144 C143 1.358 . S
C144 H147 0.930 . S
C145 C142 1.348 . S
C145 C143 1.356 . S
H146 C140 0.930 . S
H147 C144 0.930 . S
O148 Li88 1.956 . S
O148 Li89 1.957 1_455 S
O148 Li90 1.961 . S
O148 C92 1.325 . S
O149 Li88 1.970 1_655 S
O149 Li89 1.969 . S
O149 Li91 1.961 . S
O149 C98 1.325 . S
O150 Li88 1.960 1_655 S
O150 Li90 1.948 1_655 S
O150 Li91 1.978 . S
O150 C120 1.324 1_655 S
O151 Li89 1.960 1_455 S
O151 Li90 1.970 . S
O151 Li91 1.956 1_455 S
O151 C126 1.326 . S
H152 C94 0.929 . S
H153 C95 0.930 . S
H154 C96 0.930 . S
H155 C97 0.930 . S
H156 C99 0.930 . S
H157 C101 0.929 . S
H158 C102 0.930 . S
H159 C103 0.930 . S
H160 C106 0.930 . S
H161 C109 0.929 . S
H162 C114 0.929 . S
H163 C115 0.930 . S
H164 C122 0.929 . S
H165 C123 0.930 . S
H166 C124 0.930 . S
H167 C125 0.930 . S
H168 C127 0.929 . S
H169 C128 0.930 . S
H170 C129 0.930 . S
H171 C130 0.930 . S
H172 C134 0.929 . S
H173 C136 0.930 . S
H174 C142 0.929 . S
H175 C143 0.930 . S
Li176 N193 1.990 . S
Li176 O236 1.956 . S
Li176 O237 1.970 1_545 S
Li176 O238 1.961 . S
Li177 N201 1.990 . S
Li177 O236 1.970 1_565 S
Li177 O237 1.956 . S
Li177 O239 1.961 1_565 S
Li178 N223 1.990 . S
Li178 O236 1.961 . S
Li178 O238 1.956 . S
Li178 O239 1.970 . S
Li179 N229 1.990 1_545 S
Li179 O237 1.961 1_545 S
Li179 O238 1.970 . S
Li179 O239 1.956 . S
C180 C182 1.348 1_545 S
C180 C183 1.356 . S
C180 O236 1.325 . S
N181 C184 1.314 1_545 S
N181 C185 1.279 . S
C182 C180 1.348 1_565 S
C182 C184 1.353 . S
C182 H240 0.929 . S
C183 C180 1.356 . S
C183 C185 1.358 . S
C183 H241 0.930 . S
C184 N181 1.314 1_565 S
C184 C182 1.353 . S
C184 H242 0.930 . S
C185 N181 1.279 . S
C185 C183 1.358 . S
C185 H243 0.930 . S
C186 C189 1.348 . S
C186 C190 1.356 . S
C186 O237 1.325 . S
C187 N188 1.279 . S
C187 C190 1.358 . S
C187 H244 0.930 . S
N188 C187 1.279 . S
N188 C191 1.314 . S
C189 C186 1.348 . S
C189 C191 1.353 . S
C189 H245 0.929 . S
C190 C186 1.356 . S
C190 C187 1.358 . S
C190 H246 0.930 . S
C191 N188 1.314 . S
C191 C189 1.353 . S
C191 H247 0.930 . S
C192 N193 1.314 . S
C192 C197 1.353 . S
C192 H198 0.930 . S
N193 Li176 1.990 . S
N193 C192 1.314 . S
N193 C195 1.279 1_545 S
C194 C195 1.358 . S
C194 C196 1.356 1_565 S
C194 H248 0.930 . S
C195 N193 1.279 1_565 S
C195 C194 1.358 . S
C195 H199 0.930 . S
C196 C194 1.356 1_545 S
C196 C197 1.348 . S
C197 C192 1.353 . S
C197 C196 1.348 . S
C197 H249 0.929 . S
H198 C192 0.930 . S
H199 C195 0.930 . S
C200 N201 1.314 . S
C200 C202 1.353 . S
C200 H206 0.930 . S
N201 Li177 1.990 . S
N201 C200 1.314 . S
N201 C204 1.279 . S
C202 C200 1.353 . S
C202 C205 1.348 . S
C202 H250 0.929 . S
C203 C204 1.358 . S
C203 C205 1.356 . S
C203 H251 0.930 . S
C204 N201 1.279 . S
C204 C203 1.358 . S
C204 H207 0.930 . S
C205 C202 1.348 . S
C205 C203 1.356 . S
H206 C200 0.930 . S
H207 C204 0.930 . S
C208 C210 1.348 . S
C208 C211 1.356 . S
C208 O238 1.325 . S
N209 C212 1.314 . S
N209 C213 1.279 . S
C210 C208 1.348 . S
C210 C212 1.353 . S
C210 H252 0.929 . S
C211 C208 1.356 . S
C211 C213 1.358 . S
C211 H253 0.930 . S
C212 N209 1.314 . S
C212 C210 1.353 . S
C212 H254 0.930 . S
C213 N209 1.279 . S
C213 C211 1.358 . S
C213 H255 0.930 . S
C214 C215 1.348 . S
C214 C216 1.356 1_545 S
C214 O239 1.325 . S
C215 C214 1.348 . S
C215 C217 1.353 . S
C215 H256 0.929 . S
C216 C214 1.356 1_565 S
C216 C218 1.358 . S
C216 H257 0.930 . S
C217 C215 1.353 . S
C217 N219 1.333 . S
C217 H258 0.930 . S
C218 C216 1.358 . S
C218 N219 1.261 1_565 S
C218 H259 0.930 . S
N219 C217 1.333 . S
N219 C218 1.261 1_545 S
C220 C222 1.353 . S
C220 N223 1.314 . S
C220 H226 0.930 . S
C221 N223 1.279 . S
C221 C224 1.358 . S
C221 H227 0.930 . S
C222 C220 1.353 . S
C222 C225 1.348 . S
C222 H260 0.929 . S
N223 Li178 1.990 . S
N223 C220 1.314 . S
N223 C221 1.279 . S
C224 C221 1.358 . S
C224 C225 1.356 . S
C224 H261 0.930 . S
C225 C222 1.348 . S
C225 C224 1.356 . S
H226 C220 0.930 . S
H227 C221 0.930 . S
C228 N229 1.316 . S
C228 C230 1.353 . S
C228 H234 0.930 . S
N229 Li179 1.990 1_565 S
N229 C228 1.316 . S
N229 C232 1.278 1_565 S
C230 C228 1.353 . S
C230 C233 1.348 1_565 S
C230 H262 0.929 . S
C231 C232 1.358 . S
C231 C233 1.356 . S
C231 H263 0.930 . S
C232 N229 1.278 1_545 S
C232 C231 1.358 . S
C232 H235 0.930 . S
C233 C230 1.348 1_545 S
C233 C231 1.356 . S
H234 C228 0.930 . S
H235 C232 0.930 . S
O236 Li176 1.956 . S
O236 Li177 1.970 1_545 S
O236 Li178 1.961 . S
O236 C180 1.325 . S
O237 Li176 1.970 1_565 S
O237 Li177 1.956 . S
O237 Li179 1.961 1_565 S
O237 C186 1.325 . S
O238 Li176 1.961 . S
O238 Li178 1.956 . S
O238 Li179 1.970 . S
O238 C208 1.325 . S
O239 Li177 1.961 1_545 S
O239 Li178 1.970 . S
O239 Li179 1.956 . S
O239 C214 1.325 . S
H240 C182 0.929 . S
H241 C183 0.930 . S
H242 C184 0.930 . S
H243 C185 0.930 . S
H244 C187 0.930 . S
H245 C189 0.929 . S
H246 C190 0.930 . S
H247 C191 0.930 . S
H248 C194 0.930 . S
H249 C197 0.929 . S
H250 C202 0.929 . S
H251 C203 0.930 . S
H252 C210 0.929 . S
H253 C211 0.930 . S
H254 C212 0.930 . S
H255 C213 0.930 . S
H256 C215 0.929 . S
H257 C216 0.930 . S
H258 C217 0.930 . S
H259 C218 0.930 . S
H260 C222 0.929 . S
H261 C224 0.930 . S
H262 C230 0.929 . S
H263 C231 0.930 . S
Li264 N281 1.990 . S
Li264 O324 1.956 1_655 S
Li264 O325 1.960 1_655 S
Li264 O326 1.961 . S
Li265 N289 1.990 . S
Li265 O324 1.970 . S
Li265 O325 1.967 . S
Li265 O327 1.961 . S
Li266 N311 1.990 1_455 S
Li266 O324 1.961 . S
Li266 O326 1.950 1_455 S
Li266 O327 1.977 . S
Li267 N317 1.990 . S
Li267 O325 1.962 . S
Li267 O326 1.970 1_455 S
Li267 O327 1.956 . S
C268 C270 1.348 . S
C268 C271 1.356 1_455 S
C268 O324 1.325 . S
N269 C272 1.314 1_655 S
N269 C273 1.279 . S
C270 C268 1.348 . S
C270 C272 1.353 . S
C270 H328 0.929 . S
C271 C268 1.356 1_655 S
C271 C273 1.358 . S
C271 H329 0.930 . S
C272 N269 1.314 1_455 S
C272 C270 1.353 . S
C272 H330 0.930 . S
C273 N269 1.279 . S
C273 C271 1.358 . S
C273 H331 0.930 . S
C274 C277 1.348 1_455 S
C274 C278 1.356 . S
C274 O325 1.326 . S
C275 N276 1.279 . S
C275 C278 1.358 . S
C275 H332 0.930 . S
N276 C275 1.279 . S
N276 C279 1.314 1_455 S
C277 C274 1.348 1_655 S
C277 C279 1.353 . S
C277 H333 0.929 . S
C278 C274 1.356 . S
C278 C275 1.358 . S
C278 H334 0.930 . S
C279 N276 1.314 1_655 S
C279 C277 1.353 . S
C279 H335 0.930 . S
C280 N281 1.314 . S
C280 C285 1.353 . S
C280 H286 0.930 . S
N281 Li264 1.990 . S
N281 C280 1.314 . S
N281 C283 1.279 . S
C282 C283 1.358 . S
C282 C284 1.356 . S
C282 H336 0.930 . S
C283 N281 1.279 . S
C283 C282 1.358 . S
C283 H287 0.930 . S
C284 C282 1.356 . S
C284 C285 1.348 . S
C285 C280 1.353 . S
C285 C284 1.348 . S
C285 H337 0.929 . S
H286 C280 0.930 . S
H287 C283 0.930 . S
C288 N289 1.314 . S
C288 C290 1.353 . S
C288 H294 0.930 . S
N289 Li265 1.990 . S
N289 C288 1.314 . S
N289 C292 1.279 . S
C290 C288 1.353 . S
C290 C293 1.348 . S
C290 H338 0.929 . S
C291 C292 1.358 . S
C291 C293 1.356 . S
C291 H339 0.930 . S
C292 N289 1.279 . S
C292 C291 1.358 . S
C292 H295 0.930 . S
C293 C290 1.348 . S
C293 C291 1.356 . S
H294 C288 0.930 . S
H295 C292 0.930 . S
C296 C298 1.348 . S
C296 C299 1.356 . S
C296 O326 1.325 . S
N297 C300 1.314 . S
N297 C301 1.279 . S
C298 C296 1.348 . S
C298 C300 1.353 . S
C298 H340 0.929 . S
C299 C296 1.356 . S
C299 C301 1.358 . S
C299 H341 0.930 . S
C300 N297 1.314 . S
C300 C298 1.353 . S
C300 H342 0.930 . S
C301 N297 1.279 . S
C301 C299 1.358 . S
C301 H343 0.930 . S
C302 C303 1.348 . S
C302 C304 1.356 . S
C302 O327 1.325 . S
C303 C302 1.348 . S
C303 C305 1.353 . S
C303 H344 0.929 . S
C304 C302 1.356 . S
C304 C306 1.358 . S
C304 H345 0.930 . S
C305 C303 1.353 . S
C305 N307 1.314 . S
C305 H346 0.930 . S
C306 C304 1.358 . S
C306 N307 1.279 . S
C306 H347 0.930 . S
N307 C305 1.314 . S
N307 C306 1.279 . S
C308 C310 1.353 . S
C308 N311 1.314 1_455 S
C308 H314 0.930 . S
C309 N311 1.279 . S
C309 C312 1.358 . S
C309 H315 0.930 . S
C310 C308 1.353 . S
C310 C313 1.348 . S
C310 H348 0.929 . S
N311 Li266 1.990 1_655 S
N311 C308 1.314 1_655 S
N311 C309 1.279 . S
C312 C309 1.358 . S
C312 C313 1.356 1_655 S
C312 H349 0.930 . S
C313 C310 1.348 . S
C313 C312 1.356 1_455 S
H314 C308 0.930 . S
H315 C309 0.930 . S
C316 N317 1.314 1_655 S
C316 C318 1.353 . S
C316 H322 0.930 . S
N317 Li267 1.990 . S
N317 C316 1.314 1_455 S
N317 C320 1.279 . S
C318 C316 1.353 . S
C318 C321 1.348 1_655 S
C318 H350 0.929 . S
C319 C320 1.358 . S
C319 C321 1.356 . S
C319 H351 0.930 . S
C320 N317 1.279 . S
C320 C319 1.358 . S
C320 H323 0.930 . S
C321 C318 1.348 1_455 S
C321 C319 1.356 . S
H322 C316 0.930 . S
H323 C320 0.930 . S
O324 Li264 1.956 1_455 S
O324 Li265 1.970 . S
O324 Li266 1.961 . S
O324 C268 1.325 . S
O325 Li264 1.960 1_455 S
O325 Li265 1.967 . S
O325 Li267 1.962 . S
O325 C274 1.326 . S
O326 Li264 1.961 . S
O326 Li266 1.950 1_655 S
O326 Li267 1.970 1_655 S
O326 C296 1.325 . S
O327 Li265 1.961 . S
O327 Li266 1.977 . S
O327 Li267 1.956 . S
O327 C302 1.325 . S
H328 C270 0.929 . S
H329 C271 0.930 . S
H330 C272 0.930 . S
H331 C273 0.930 . S
H332 C275 0.930 . S
H333 C277 0.929 . S
H334 C278 0.930 . S
H335 C279 0.930 . S
H336 C282 0.930 . S
H337 C285 0.929 . S
H338 C290 0.929 . S
H339 C291 0.930 . S
H340 C298 0.929 . S
H341 C299 0.930 . S
H342 C300 0.930 . S
H343 C301 0.930 . S
H344 C303 0.929 . S
H345 C304 0.930 . S
H346 C305 0.930 . S
H347 C306 0.930 . S
H348 C310 0.929 . S
H349 C312 0.930 . S
H350 C318 0.929 . S
H351 C319 0.930 . S
Li352 N369 1.990 . S
Li352 O412 1.956 . S
Li352 O413 1.970 . S
Li352 O414 1.961 . S
Li353 N377 1.990 1_545 S
Li353 O412 1.970 . S
Li353 O413 1.956 . S
Li353 O415 1.961 1_545 S
Li354 N399 1.990 . S
Li354 O412 1.961 . S
Li354 O414 1.956 . S
Li354 O415 1.970 1_545 S
Li355 N405 1.990 . S
Li355 O413 1.961 1_565 S
Li355 O414 1.970 1_565 S
Li355 O415 1.956 . S
C356 C358 1.348 . S
C356 C359 1.356 . S
C356 O412 1.325 . S
N357 C360 1.314 . S
N357 C361 1.279 . S
C358 C356 1.348 . S
C358 C360 1.353 . S
C358 H416 0.929 . S
C359 C356 1.356 . S
C359 C361 1.358 . S
C359 H417 0.930 . S
C360 N357 1.314 . S
C360 C358 1.353 . S
C360 H418 0.930 . S
C361 N357 1.279 . S
C361 C359 1.358 . S
C361 H419 0.930 . S
C362 C365 1.348 . S
C362 C366 1.356 1_545 S
C362 O413 1.325 . S
C363 N364 1.261 1_565 S
C363 C366 1.358 . S
C363 H420 0.930 . S
N364 C363 1.261 1_545 S
N364 C367 1.333 . S
C365 C362 1.348 . S
C365 C367 1.353 . S
C365 H421 0.929 . S
C366 C362 1.356 1_565 S
C366 C363 1.358 . S
C366 H422 0.930 . S
C367 N364 1.333 . S
C367 C365 1.353 . S
C367 H423 0.930 . S
C368 N369 1.314 . S
C368 C373 1.353 . S
C368 H374 0.930 . S
N369 Li352 1.990 . S
N369 C368 1.314 . S
N369 C371 1.279 . S
C370 C371 1.358 . S
C370 C372 1.356 . S
C370 H424 0.930 . S
C371 N369 1.279 . S
C371 C370 1.358 . S
C371 H375 0.930 . S
C372 C370 1.356 . S
C372 C373 1.348 . S
C373 C368 1.353 . S
C373 C372 1.348 . S
C373 H425 0.929 . S
H374 C368 0.930 . S
H375 C371 0.930 . S
C376 N377 1.316 . S
C376 C378 1.353 . S
C376 H382 0.930 . S
N377 Li353 1.990 1_565 S
N377 C376 1.316 . S
N377 C380 1.278 1_565 S
C378 C376 1.353 . S
C378 C381 1.348 1_565 S
C378 H426 0.929 . S
C379 C380 1.358 . S
C379 C381 1.356 . S
C379 H427 0.930 . S
C380 N377 1.278 1_545 S
C380 C379 1.358 . S
C380 H383 0.930 . S
C381 C378 1.348 1_545 S
C381 C379 1.356 . S
H382 C376 0.930 . S
H383 C380 0.930 . S
C384 C386 1.348 1_545 S
C384 C387 1.356 . S
C384 O414 1.325 . S
N385 C388 1.314 1_545 S
N385 C389 1.279 . S
C386 C384 1.348 1_565 S
C386 C388 1.353 . S
C386 H428 0.929 . S
C387 C384 1.356 . S
C387 C389 1.358 . S
C387 H429 0.930 . S
C388 N385 1.314 1_565 S
C388 C386 1.353 . S
C388 H430 0.930 . S
C389 N385 1.279 . S
C389 C387 1.358 . S
C389 H431 0.930 . S
C390 C391 1.348 . S
C390 C392 1.356 . S
C390 O415 1.325 . S
C391 C390 1.348 . S
C391 C393 1.353 . S
C391 H432 0.929 . S
C392 C390 1.356 . S
C392 C394 1.358 . S
C392 H433 0.930 . S
C393 C391 1.353 . S
C393 N395 1.314 . S
C393 H434 0.930 . S
C394 C392 1.358 . S
C394 N395 1.279 . S
C394 H435 0.930 . S
N395 C393 1.314 . S
N395 C394 1.279 . S
C396 C398 1.353 . S
C396 N399 1.314 . S
C396 H402 0.930 . S
C397 N399 1.279 1_565 S
C397 C400 1.358 . S
C397 H403 0.930 . S
C398 C396 1.353 . S
C398 C401 1.348 . S
C398 H436 0.929 . S
N399 Li354 1.990 . S
N399 C396 1.314 . S
N399 C397 1.279 1_545 S
C400 C397 1.358 . S
C400 C401 1.356 1_565 S
C400 H437 0.930 . S
C401 C398 1.348 . S
C401 C400 1.356 1_545 S
H402 C396 0.930 . S
H403 C397 0.930 . S
C404 N405 1.314 . S
C404 C406 1.353 . S
C404 H410 0.930 . S
N405 Li355 1.990 . S
N405 C404 1.314 . S
N405 C408 1.279 . S
C406 C404 1.353 . S
C406 C409 1.348 . S
C406 H438 0.929 . S
C407 C408 1.358 . S
C407 C409 1.356 . S
C407 H439 0.930 . S
C408 N405 1.279 . S
C408 C407 1.358 . S
C408 H411 0.930 . S
C409 C406 1.348 . S
C409 C407 1.356 . S
H410 C404 0.930 . S
H411 C408 0.930 . S
O412 Li352 1.956 . S
O412 Li353 1.970 . S
O412 Li354 1.961 . S
O412 C356 1.325 . S
O413 Li352 1.970 . S
O413 Li353 1.956 . S
O413 Li355 1.961 1_545 S
O413 C362 1.325 . S
O414 Li352 1.961 . S
O414 Li354 1.956 . S
O414 Li355 1.970 1_545 S
O414 C384 1.325 . S
O415 Li353 1.961 1_565 S
O415 Li354 1.970 1_565 S
O415 Li355 1.956 . S
O415 C390 1.325 . S
H416 C358 0.929 . S
H417 C359 0.930 . S
H418 C360 0.930 . S
H419 C361 0.930 . S
H420 C363 0.930 . S
H421 C365 0.929 . S
H422 C366 0.930 . S
H423 C367 0.930 . S
H424 C370 0.930 . S
H425 C373 0.929 . S
H426 C378 0.929 . S
H427 C379 0.930 . S
H428 C386 0.929 . S
H429 C387 0.930 . S
H430 C388 0.930 . S
H431 C389 0.930 . S
H432 C391 0.929 . S
H433 C392 0.930 . S
H434 C393 0.930 . S
H435 C394 0.930 . S
H436 C398 0.929 . S
H437 C400 0.930 . S
H438 C406 0.929 . S
H439 C407 0.930 . S
Li440 N457 1.990 . S
Li440 O500 1.956 . S
Li440 O501 1.970 1_455 S
Li440 O502 1.962 . S
Li441 N465 1.990 1_455 S
Li441 O500 1.977 . S
Li441 O501 1.950 1_455 S
Li441 O503 1.961 . S
Li442 N487 1.990 . S
Li442 O500 1.961 . S
Li442 O502 1.967 . S
Li442 O503 1.970 . S
Li443 N493 1.990 . S
Li443 O501 1.961 . S
Li443 O502 1.960 1_655 S
Li443 O503 1.956 1_655 S
C444 C446 1.348 . S
C444 C447 1.356 . S
C444 O500 1.325 . S
N445 C448 1.314 . S
N445 C449 1.279 . S
C446 C444 1.348 . S
C446 C448 1.353 . S
C446 H504 0.929 . S
C447 C444 1.356 . S
C447 C449 1.358 . S
C447 H505 0.930 . S
C448 N445 1.314 . S
C448 C446 1.353 . S
C448 H506 0.930 . S
C449 N445 1.279 . S
C449 C447 1.358 . S
C449 H507 0.930 . S
C450 C453 1.348 . S
C450 C454 1.356 . S
C450 O501 1.325 . S
C451 N452 1.279 . S
C451 C454 1.358 . S
C451 H508 0.930 . S
N452 C451 1.279 . S
N452 C455 1.314 . S
C453 C450 1.348 . S
C453 C455 1.353 . S
C453 H509 0.929 . S
C454 C450 1.356 . S
C454 C451 1.358 . S
C454 H510 0.930 . S
C455 N452 1.314 . S
C455 C453 1.353 . S
C455 H511 0.930 . S
C456 N457 1.314 1_655 S
C456 C461 1.353 . S
C456 H462 0.930 . S
N457 Li440 1.990 . S
N457 C456 1.314 1_455 S
N457 C459 1.279 . S
C458 C459 1.358 . S
C458 C460 1.356 . S
C458 H512 0.930 . S
C459 N457 1.279 . S
C459 C458 1.358 . S
C459 H463 0.930 . S
C460 C458 1.356 . S
C460 C461 1.348 1_455 S
C461 C456 1.353 . S
C461 C460 1.348 1_655 S
C461 H513 0.929 . S
H462 C456 0.930 . S
H463 C459 0.930 . S
C464 N465 1.314 1_455 S
C464 C466 1.353 . S
C464 H470 0.930 . S
N465 Li441 1.990 1_655 S
N465 C464 1.314 1_655 S
N465 C468 1.279 . S
C466 C464 1.353 . S
C466 C469 1.348 . S
C466 H514 0.929 . S
C467 C468 1.358 . S
C467 C469 1.356 1_655 S
C467 H515 0.930 . S
C468 N465 1.279 . S
C468 C467 1.358 . S
C468 H471 0.930 . S
C469 C466 1.348 . S
C469 C467 1.356 1_455 S
H470 C464 0.930 . S
H471 C468 0.930 . S
C472 C474 1.348 1_455 S
C472 C475 1.356 . S
C472 O502 1.326 . S
N473 C476 1.314 1_455 S
N473 C477 1.279 . S
C474 C472 1.348 1_655 S
C474 C476 1.353 . S
C474 H516 0.929 . S
C475 C472 1.356 . S
C475 C477 1.358 . S
C475 H517 0.930 . S
C476 N473 1.314 1_655 S
C476 C474 1.353 . S
C476 H518 0.930 . S
C477 N473 1.279 . S
C477 C475 1.358 . S
C477 H519 0.930 . S
C478 C479 1.348 . S
C478 C480 1.356 1_455 S
C478 O503 1.325 . S
C479 C478 1.348 . S
C479 C481 1.353 . S
C479 H520 0.929 . S
C480 C478 1.356 1_655 S
C480 C482 1.358 . S
C480 H521 0.930 . S
C481 C479 1.353 . S
C481 N483 1.314 1_455 S
C481 H522 0.930 . S
C482 C480 1.358 . S
C482 N483 1.279 . S
C482 H523 0.930 . S
N483 C481 1.314 1_655 S
N483 C482 1.279 . S
C484 C486 1.353 . S
C484 N487 1.314 . S
C484 H490 0.930 . S
C485 N487 1.279 . S
C485 C488 1.358 . S
C485 H491 0.930 . S
C486 C484 1.353 . S
C486 C489 1.348 . S
C486 H524 0.929 . S
N487 Li442 1.990 . S
N487 C484 1.314 . S
N487 C485 1.279 . S
C488 C485 1.358 . S
C488 C489 1.356 . S
C488 H525 0.930 . S
C489 C486 1.348 . S
C489 C488 1.356 . S
H490 C484 0.930 . S
H491 C485 0.930 . S
C492 N493 1.314 . S
C492 C494 1.353 . S
C492 H498 0.930 . S
N493 Li443 1.990 . S
N493 C492 1.314 . S
N493 C496 1.279 . S
C494 C492 1.353 . S
C494 C497 1.348 . S
C494 H526 0.929 . S
C495 C496 1.358 . S
C495 C497 1.356 . S
C495 H527 0.930 . S
C496 N493 1.279 . S
C496 C495 1.358 . S
C496 H499 0.930 . S
C497 C494 1.348 . S
C497 C495 1.356 . S
H498 C492 0.930 . S
H499 C496 0.930 . S
O500 Li440 1.956 . S
O500 Li441 1.977 . S
O500 Li442 1.961 . S
O500 C444 1.325 . S
O501 Li440 1.970 1_655 S
O501 Li441 1.950 1_655 S
O501 Li443 1.961 . S
O501 C450 1.325 . S
O502 Li440 1.962 . S
O502 Li442 1.967 . S
O502 Li443 1.960 1_455 S
O502 C472 1.326 . S
O503 Li441 1.961 . S
O503 Li442 1.970 . S
O503 Li443 1.956 1_455 S
O503 C478 1.325 . S
H504 C446 0.929 . S
H505 C447 0.930 . S
H506 C448 0.930 . S
H507 C449 0.930 . S
H508 C451 0.930 . S
H509 C453 0.929 . S
H510 C454 0.930 . S
H511 C455 0.930 . S
H512 C458 0.930 . S
H513 C461 0.929 . S
H514 C466 0.929 . S
H515 C467 0.930 . S
H516 C474 0.929 . S
H517 C475 0.930 . S
H518 C476 0.930 . S
H519 C477 0.930 . S
H520 C479 0.929 . S
H521 C480 0.930 . S
H522 C481 0.930 . S
H523 C482 0.930 . S
H524 C486 0.929 . S
H525 C488 0.930 . S
H526 C494 0.929 . S
H527 C495 0.930 . S
Li528 N545 1.990 . S
Li528 O588 1.957 . S
Li528 O589 1.970 1_545 S
Li528 O590 1.961 . S
Li529 N553 1.990 . S
Li529 O588 1.955 1_565 S
Li529 O589 1.956 . S
Li529 O591 1.961 1_565 S
Li530 N575 1.990 . S
Li530 O588 1.977 . S
Li530 O590 1.956 . S
Li530 O591 1.970 . S
Li531 N581 1.990 1_545 S
Li531 O589 1.950 1_545 S
Li531 O590 1.982 . S
Li531 O591 1.956 . S
C532 C534 1.313 1_545 S
C532 C535 1.390 . S
C532 O588 1.325 . S
N533 C536 1.314 1_545 S
N533 C537 1.279 . S
C534 C532 1.313 1_565 S
C534 C536 1.353 . S
C534 H592 0.929 . S
C535 C532 1.390 . S
C535 C537 1.358 . S
C535 H593 0.930 . S
C536 N533 1.314 1_565 S
C536 C534 1.353 . S
C536 H594 0.930 . S
C537 N533 1.279 . S
C537 C535 1.358 . S
C537 H595 0.930 . S
C538 C541 1.348 . S
C538 C542 1.356 . S
C538 O589 1.325 . S
C539 N540 1.279 . S
C539 C542 1.358 . S
C539 H596 0.930 . S
N540 C539 1.279 . S
N540 C543 1.314 . S
C541 C538 1.348 . S
C541 C543 1.353 . S
C541 H597 0.929 . S
C542 C538 1.356 . S
C542 C539 1.358 . S
C542 H598 0.930 . S
C543 N540 1.314 . S
C543 C541 1.353 . S
C543 H599 0.930 . S
C544 N545 1.314 . S
C544 C549 1.353 . S
C544 H550 0.930 . S
N545 Li528 1.990 . S
N545 C544 1.314 . S
N545 C547 1.279 1_545 S
C546 C547 1.358 . S
C546 C548 1.350 1_565 S
C546 H600 0.930 . S
C547 N545 1.279 1_565 S
C547 C546 1.358 . S
C547 H551 0.930 . S
C548 C546 1.350 1_545 S
C548 C549 1.359 . S
C549 C544 1.353 . S
C549 C548 1.359 . S
C549 H601 0.929 . S
H550 C544 0.930 . S
H551 C547 0.930 . S
C552 N553 1.314 . S
C552 C554 1.353 . S
C552 H558 0.930 . S
N553 Li529 1.990 . S
N553 C552 1.314 . S
N553 C556 1.279 . S
C554 C552 1.353 . S
C554 C557 1.348 . S
C554 H602 0.929 . S
C555 C556 1.358 . S
C555 C557 1.356 . S
C555 H603 0.930 . S
C556 N553 1.279 . S
C556 C555 1.358 . S
C556 H559 0.930 . S
C557 C554 1.348 . S
C557 C555 1.356 . S
H558 C552 0.930 . S
H559 C556 0.930 . S
C560 C562 1.348 . S
C560 C563 1.356 . S
C560 O590 1.325 . S
N561 C564 1.314 . S
N561 C565 1.279 . S
C562 C560 1.348 . S
C562 C564 1.353 . S
C562 H604 0.929 . S
C563 C560 1.356 . S
C563 C565 1.358 . S
C563 H605 0.930 . S
C564 N561 1.314 . S
C564 C562 1.353 . S
C564 H606 0.930 . S
C565 N561 1.279 . S
C565 C563 1.358 . S
C565 H607 0.930 . S
C566 C567 1.375 . S
C566 C568 1.329 1_545 S
C566 O591 1.326 . S
C567 C566 1.375 . S
C567 C569 1.353 . S
C567 H608 0.929 . S
C568 C566 1.329 1_565 S
C568 C570 1.358 . S
C568 H609 0.930 . S
C569 C567 1.353 . S
C569 N571 1.303 1_545 S
C569 H610 0.930 . S
C570 C568 1.358 . S
C570 N571 1.290 . S
C570 H611 0.930 . S
N571 C569 1.303 1_565 S
N571 C570 1.290 . S
C572 C574 1.353 . S
C572 N575 1.314 . S
C572 H578 0.930 . S
C573 N575 1.279 . S
C573 C576 1.358 . S
C573 H579 0.930 . S
C574 C572 1.353 . S
C574 C577 1.348 . S
C574 H612 0.929 . S
N575 Li530 1.990 . S
N575 C572 1.314 . S
N575 C573 1.279 . S
C576 C573 1.358 . S
C576 C577 1.356 . S
C576 H613 0.930 . S
C577 C574 1.348 . S
C577 C576 1.356 . S
H578 C572 0.930 . S
H579 C573 0.930 . S
C580 N581 1.314 . S
C580 C582 1.353 . S
C580 H586 0.930 . S
N581 Li531 1.990 1_565 S
N581 C580 1.314 . S
N581 C584 1.279 1_565 S
C582 C580 1.353 . S
C582 C585 1.337 1_565 S
C582 H614 0.929 . S
C583 C584 1.358 . S
C583 C585 1.364 . S
C583 H615 0.930 . S
C584 N581 1.279 1_545 S
C584 C583 1.358 . S
C584 H587 0.930 . S
C585 C582 1.337 1_545 S
C585 C583 1.364 . S
H586 C580 0.930 . S
H587 C584 0.930 . S
O588 Li528 1.957 . S
O588 Li529 1.955 1_545 S
O588 Li530 1.977 . S
O588 C532 1.325 . S
O589 Li528 1.970 1_565 S
O589 Li529 1.956 . S
O589 Li531 1.950 1_565 S
O589 C538 1.325 . S
O590 Li528 1.961 . S
O590 Li530 1.956 . S
O590 Li531 1.982 . S
O590 C560 1.325 . S
O591 Li529 1.961 1_545 S
O591 Li530 1.970 . S
O591 Li531 1.956 . S
O591 C566 1.326 . S
H592 C534 0.929 . S
H593 C535 0.930 . S
H594 C536 0.930 . S
H595 C537 0.930 . S
H596 C539 0.930 . S
H597 C541 0.929 . S
H598 C542 0.930 . S
H599 C543 0.930 . S
H600 C546 0.930 . S
H601 C549 0.929 . S
H602 C554 0.929 . S
H603 C555 0.930 . S
H604 C562 0.929 . S
H605 C563 0.930 . S
H606 C564 0.930 . S
H607 C565 0.930 . S
H608 C567 0.929 . S
H609 C568 0.930 . S
H610 C569 0.930 . S
H611 C570 0.930 . S
H612 C574 0.929 . S
H613 C576 0.930 . S
H614 C582 0.929 . S
H615 C583 0.930 . S
Li616 N633 1.990 . S
Li616 O676 1.956 1_655 S
Li616 O677 1.978 . S
Li616 O678 1.961 . S
Li617 N641 1.990 . S
Li617 O676 1.970 . S
Li617 O677 1.948 1_455 S
Li617 O679 1.961 . S
Li618 N663 1.991 . S
Li618 O676 1.960 1_655 S
Li618 O678 1.969 . S
Li618 O679 1.957 1_655 S
Li619 N669 1.990 . S
Li619 O677 1.960 1_455 S
Li619 O678 1.970 1_455 S
Li619 O679 1.956 . S
C620 C622 1.364 . S
C620 C623 1.336 1_455 S
C620 O676 1.326 . S
N621 C624 1.314 1_655 S
N621 C625 1.279 . S
C622 C620 1.364 . S
C622 C624 1.353 . S
C622 H680 0.929 . S
C623 C620 1.336 1_655 S
C623 C625 1.358 . S
C623 H681 0.930 . S
C624 N621 1.314 1_455 S
C624 C622 1.353 . S
C624 H682 0.930 . S
C625 N621 1.279 . S
C625 C623 1.358 . S
C625 H683 0.930 . S
C626 C629 1.331 1_455 S
C626 C630 1.377 . S
C626 O677 1.324 1_455 S
C627 N628 1.279 . S
C627 C630 1.358 . S
C627 H684 0.930 . S
N628 C627 1.279 . S
N628 C631 1.314 1_455 S
C629 C626 1.331 1_655 S
C629 C631 1.353 . S
C629 H685 0.929 . S
C630 C626 1.377 . S
C630 C627 1.358 . S
C630 H686 0.930 . S
C631 N628 1.314 1_655 S
C631 C629 1.353 . S
C631 H687 0.930 . S
C632 N633 1.314 . S
C632 C637 1.353 . S
C632 H638 0.930 . S
N633 Li616 1.990 . S
N633 C632 1.314 . S
N633 C635 1.279 . S
C634 C635 1.358 . S
C634 C636 1.356 . S
C634 H688 0.930 . S
C635 N633 1.279 . S
C635 C634 1.358 . S
C635 H639 0.930 . S
C636 C634 1.356 . S
C636 C637 1.348 . S
C637 C632 1.353 . S
C637 C636 1.348 . S
C637 H689 0.929 . S
H638 C632 0.930 . S
H639 C635 0.930 . S
C640 N641 1.314 . S
C640 C642 1.353 . S
C640 H646 0.930 . S
N641 Li617 1.990 . S
N641 C640 1.314 . S
N641 C644 1.279 . S
C642 C640 1.353 . S
C642 C645 1.348 . S
C642 H690 0.929 . S
C643 C644 1.358 . S
C643 C645 1.356 . S
C643 H691 0.930 . S
C644 N641 1.279 . S
C644 C643 1.358 . S
C644 H647 0.930 . S
C645 C642 1.348 . S
C645 C643 1.356 . S
H646 C640 0.930 . S
H647 C644 0.930 . S
C648 C650 1.348 . S
C648 C651 1.356 . S
C648 O678 1.325 . S
N649 C652 1.314 . S
N649 C653 1.279 . S
C650 C648 1.348 . S
C650 C652 1.353 . S
C650 H692 0.929 . S
C651 C648 1.356 . S
C651 C653 1.358 . S
C651 H693 0.930 . S
C652 N649 1.314 . S
C652 C650 1.353 . S
C652 H694 0.930 . S
C653 N649 1.279 . S
C653 C651 1.358 . S
C653 H695 0.930 . S
C654 C655 1.348 . S
C654 C656 1.356 . S
C654 O679 1.325 . S
C655 C654 1.348 . S
C655 C657 1.353 . S
C655 H696 0.929 . S
C656 C654 1.356 . S
C656 C658 1.358 . S
C656 H697 0.930 . S
C657 C655 1.353 . S
C657 N659 1.314 . S
C657 H698 0.930 . S
C658 C656 1.358 . S
C658 N659 1.279 . S
C658 H699 0.930 . S
N659 C657 1.314 . S
N659 C658 1.279 . S
C660 C662 1.353 . S
C660 N663 1.314 1_455 S
C660 H666 0.930 . S
C661 N663 1.279 . S
C661 C664 1.358 . S
C661 H667 0.930 . S
C662 C660 1.353 . S
C662 C665 1.364 . S
C662 H700 0.929 . S
N663 Li618 1.991 . S
N663 C660 1.314 1_655 S
N663 C661 1.279 . S
C664 C661 1.358 . S
C664 C665 1.338 1_655 S
C664 H701 0.930 . S
C665 C662 1.364 . S
C665 C664 1.338 1_455 S
H666 C660 0.930 . S
H667 C661 0.930 . S
C668 N669 1.314 1_655 S
C668 C670 1.353 . S
C668 H674 0.930 . S
N669 Li619 1.990 . S
N669 C668 1.314 1_455 S
N669 C672 1.279 . S
C670 C668 1.353 . S
C670 C673 1.330 1_655 S
C670 H702 0.929 . S
C671 C672 1.358 . S
C671 C673 1.378 . S
C671 H703 0.930 . S
C672 N669 1.279 . S
C672 C671 1.358 . S
C672 H675 0.930 . S
C673 C670 1.330 1_455 S
C673 C671 1.378 . S
H674 C668 0.930 . S
H675 C672 0.930 . S
O676 Li616 1.956 1_455 S
O676 Li617 1.970 . S
O676 Li618 1.960 1_455 S
O676 C620 1.326 . S
O677 Li616 1.978 . S
O677 Li617 1.948 1_655 S
O677 Li619 1.960 1_655 S
O677 C626 1.324 1_655 S
O678 Li616 1.961 . S
O678 Li618 1.969 . S
O678 Li619 1.970 1_655 S
O678 C648 1.325 . S
O679 Li617 1.961 . S
O679 Li618 1.957 1_455 S
O679 Li619 1.956 . S
O679 C654 1.325 . S
H680 C622 0.929 . S
H681 C623 0.930 . S
H682 C624 0.930 . S
H683 C625 0.930 . S
H684 C627 0.930 . S
H685 C629 0.929 . S
H686 C630 0.930 . S
H687 C631 0.930 . S
H688 C634 0.930 . S
H689 C637 0.929 . S
H690 C642 0.929 . S
H691 C643 0.930 . S
H692 C650 0.929 . S
H693 C651 0.930 . S
H694 C652 0.930 . S
H695 C653 0.930 . S
H696 C655 0.929 . S
H697 C656 0.930 . S
H698 C657 0.930 . S
H699 C658 0.930 . S
H700 C662 0.929 . S
H701 C664 0.930 . S
H702 C670 0.929 . S
H703 C671 0.930 . S
H704 C710 0.930 . S
H705 C714 0.930 . S
H706 C719 0.929 . S
H707 C717 0.929 . S
H708 C712 0.929 . S
H709 C718 0.929 . S
C710 H704 0.930 . S
C710 C711 1.367 . S
C710 C718 1.378 . S
C711 C710 1.367 . S
C711 C719 1.433 1_545 S
C712 H708 0.929 . S
C712 C714 1.378 . S
C712 C716 1.326 1_565 S
C713 C716 1.464 1_554 S
C713 C718 1.350 . S
C713 N721 1.427 1_545 S
C714 H705 0.930 . S
C714 C712 1.378 . S
C714 C715 1.367 1_565 S
C715 C714 1.367 1_545 S
C715 C717 1.433 . S
C716 C712 1.326 1_545 S
C716 C713 1.464 1_556 S
C716 N720 1.453 . S
C717 H707 0.929 . S
C717 C715 1.433 . S
C717 N720 1.384 . S
C718 H709 0.929 . S
C718 C710 1.378 . S
C718 C713 1.350 . S
C719 H706 0.929 . S
C719 C711 1.433 1_565 S
C719 N721 1.384 . S
N720 C716 1.453 . S
N720 C717 1.384 . S
N721 C713 1.427 1_565 S
N721 C719 1.384 . S
H722 C728 0.930 . S
H723 C732 0.930 . S
H724 C737 0.929 . S
H725 C735 0.928 1_655 S
H726 C730 0.929 . S
H727 C736 0.931 . S
C728 H722 0.930 . S
C728 C729 1.366 1_655 S
C728 C736 1.379 . S
C729 C728 1.366 1_455 S
C729 C737 1.434 . S
C730 H726 0.929 . S
C730 C732 1.378 . S
C730 C734 1.350 . S
C731 C734 1.464 . S
C731 C736 1.347 1_455 S
C731 N739 1.430 . S
C732 H723 0.930 . S
C732 C730 1.378 . S
C732 C733 1.367 . S
C733 C732 1.367 . S
C733 C735 1.433 . S
C734 C730 1.350 . S
C734 C731 1.464 . S
C734 N738 1.427 1_455 S
C735 H725 0.928 1_455 S
C735 C733 1.433 . S
C735 N738 1.384 1_455 S
C736 H727 0.931 . S
C736 C728 1.379 . S
C736 C731 1.347 1_655 S
C737 H724 0.929 . S
C737 C729 1.434 . S
C737 N739 1.384 . S
N738 C734 1.427 1_655 S
N738 C735 1.384 1_655 S
N739 C731 1.430 . S
N739 C737 1.384 . S
H740 C746 0.930 . S
H741 C750 0.930 . S
H742 C755 0.929 . S
H743 C753 0.929 . S
H744 C748 0.929 . S
H745 C754 0.929 . S
C746 H740 0.930 . S
C746 C747 1.367 . S
C746 C754 1.378 . S
C747 C746 1.367 . S
C747 C755 1.433 1_545 S
C748 H744 0.929 . S
C748 C750 1.378 . S
C748 C752 1.326 1_565 S
C749 C752 1.464 1_556 S
C749 C754 1.350 . S
C749 N757 1.427 1_545 S
C750 H741 0.930 . S
C750 C748 1.378 . S
C750 C751 1.367 1_565 S
C751 C750 1.367 1_545 S
C751 C753 1.433 . S
C752 C748 1.326 1_545 S
C752 C749 1.464 1_554 S
C752 N756 1.452 . S
C753 H743 0.929 . S
C753 C751 1.433 . S
C753 N756 1.384 . S
C754 H745 0.929 . S
C754 C746 1.378 . S
C754 C749 1.350 . S
C755 H742 0.929 . S
C755 C747 1.433 1_565 S
C755 N757 1.384 . S
N756 C752 1.452 . S
N756 C753 1.384 . S
N757 C749 1.427 1_565 S
N757 C755 1.384 . S
H758 C764 0.930 . S
H759 C768 0.930 . S
H760 C773 0.929 . S
H761 C771 0.929 . S
H762 C766 0.929 . S
H763 C772 0.929 . S
C764 H758 0.930 . S
C764 C765 1.367 1_655 S
C764 C772 1.378 . S
C765 C764 1.367 1_455 S
C765 C773 1.433 . S
C766 H762 0.929 . S
C766 C768 1.378 . S
C766 C770 1.350 . S
C767 C770 1.464 . S
C767 C772 1.341 1_455 S
C767 N775 1.437 . S
C768 H759 0.930 . S
C768 C766 1.378 . S
C768 C769 1.367 . S
C769 C768 1.367 . S
C769 C771 1.433 1_455 S
C770 C766 1.350 . S
C770 C767 1.464 . S
C770 N774 1.427 1_455 S
C771 H761 0.929 . S
C771 C769 1.433 1_655 S
C771 N774 1.384 . S
C772 H763 0.929 . S
C772 C764 1.378 . S
C772 C767 1.341 1_655 S
C773 H760 0.929 . S
C773 C765 1.433 . S
C773 N775 1.384 . S
N774 C770 1.427 1_655 S
N774 C771 1.384 . S
N775 C767 1.437 . S
N775 C773 1.384 . S
H776 C782 0.930 . S
H777 C786 0.930 . S
H778 C791 0.929 . S
H779 C789 0.929 . S
H780 C784 0.929 . S
H781 C790 0.929 . S
C782 H776 0.930 . S
C782 C783 1.367 . S
C782 C790 1.378 . S
C783 C782 1.367 . S
C783 C791 1.433 1_545 S
C784 H780 0.929 . S
C784 C786 1.378 . S
C784 C788 1.332 1_565 S
C785 C788 1.464 . S
C785 C790 1.350 . S
C785 N793 1.427 1_545 S
C786 H777 0.930 . S
C786 C784 1.378 . S
C786 C787 1.367 1_565 S
C787 C786 1.367 1_545 S
C787 C789 1.433 . S
C788 C784 1.332 1_545 S
C788 C785 1.464 . S
C788 N792 1.446 . S
C789 H779 0.929 . S
C789 C787 1.433 . S
C789 N792 1.384 . S
C790 H781 0.929 . S
C790 C782 1.378 . S
C790 C785 1.350 . S
C791 H778 0.929 . S
C791 C783 1.433 1_565 S
C791 N793 1.384 . S
N792 C788 1.446 . S
N792 C789 1.384 . S
N793 C785 1.427 1_565 S
N793 C791 1.384 . S
H794 C800 0.930 . S
H795 C804 0.930 . S
H796 C809 0.929 . S
H797 C807 0.929 . S
H798 C802 0.929 . S
H799 C808 0.929 . S
C800 H794 0.930 . S
C800 C801 1.341 1_655 S
C800 C808 1.378 . S
C801 C800 1.341 1_455 S
C801 C809 1.460 . S
C802 H798 0.929 . S
C802 C804 1.378 . S
C802 C806 1.350 . S
C803 C806 1.463 . S
C803 C808 1.337 1_455 S
C803 N811 1.441 . S
C804 H795 0.930 . S
C804 C802 1.378 . S
C804 C805 1.367 . S
C805 C804 1.367 . S
C805 C807 1.433 1_455 S
C806 C802 1.350 . S
C806 C803 1.463 . S
C806 N810 1.427 1_455 S
C807 H797 0.929 . S
C807 C805 1.433 1_655 S
C807 N810 1.384 . S
C808 H799 0.929 . S
C808 C800 1.378 . S
C808 C803 1.337 1_655 S
C809 H796 0.929 . S
C809 C801 1.460 . S
C809 N811 1.384 . S
N810 C806 1.427 1_655 S
N810 C807 1.384 . S
N811 C803 1.441 . S
N811 C809 1.384 . S
H812 C818 0.930 . S
H813 C822 0.930 . S
H814 C827 0.929 . S
H815 C825 0.929 . S
H816 C820 0.929 . S
H817 C826 0.929 . S
C818 H812 0.930 . S
C818 C819 1.367 . S
C818 C826 1.378 . S
C819 C818 1.367 . S
C819 C827 1.433 1_545 S
C820 H816 0.929 . S
C820 C822 1.378 . S
C820 C824 1.334 1_565 S
C821 C824 1.464 . S
C821 C826 1.350 . S
C821 N829 1.427 1_545 S
C822 H813 0.930 . S
C822 C820 1.378 . S
C822 C823 1.367 1_565 S
C823 C822 1.367 1_545 S
C823 C825 1.433 . S
C824 C820 1.334 1_545 S
C824 C821 1.464 . S
C824 N828 1.445 . S
C825 H815 0.929 . S
C825 C823 1.433 . S
C825 N828 1.384 . S
C826 H817 0.929 . S
C826 C818 1.378 . S
C826 C821 1.350 . S
C827 H814 0.929 . S
C827 C819 1.433 1_565 S
C827 N829 1.384 . S
N828 C824 1.445 . S
N828 C825 1.384 . S
N829 C821 1.427 1_565 S
N829 C827 1.384 . S
H830 C836 0.930 . S
H831 C840 0.930 . S
H832 C845 0.929 . S
H833 C843 0.929 . S
H834 C838 0.929 . S
H835 C844 0.929 . S
C836 H830 0.930 . S
C836 C837 1.354 1_655 S
C836 C844 1.378 . S
C837 C836 1.354 1_455 S
C837 C845 1.447 . S
C838 H834 0.929 . S
C838 C840 1.378 . S
C838 C842 1.350 . S
C839 C842 1.463 . S
C839 C844 1.338 1_455 S
C839 N847 1.439 . S
C840 H831 0.930 . S
C840 C838 1.378 . S
C840 C841 1.367 . S
C841 C840 1.367 . S
C841 C843 1.433 1_455 S
C842 C838 1.350 . S
C842 C839 1.463 . S
C842 N846 1.427 1_455 S
C843 H833 0.929 . S
C843 C841 1.433 1_655 S
C843 N846 1.384 . S
C844 H835 0.929 . S
C844 C836 1.378 . S
C844 C839 1.338 1_655 S
C845 H832 0.929 . S
C845 C837 1.447 . S
C845 N847 1.384 . S
N846 C842 1.427 1_655 S
N846 C843 1.384 . S
N847 C839 1.439 . S
N847 C845 1.384 . S
H848 C854 0.930 . S
H849 C858 0.930 . S
H850 C863 0.929 . S
H851 C861 0.929 . S
H852 C856 0.929 . S
H853 C862 0.929 . S
C854 H848 0.930 . S
C854 C855 1.367 . S
C854 C862 1.378 . S
C855 C854 1.367 . S
C855 C863 1.433 . S
C856 H852 0.929 . S
C856 C858 1.378 . S
C856 C860 1.350 . S
C857 C860 1.463 . S
C857 C862 1.350 . S
C857 N865 1.427 . S
C858 H849 0.930 . S
C858 C856 1.378 . S
C858 C859 1.367 . S
C859 C858 1.367 . S
C859 C861 1.433 . S
C860 C856 1.350 . S
C860 C857 1.463 . S
C860 N864 1.427 . S
C861 H851 0.929 . S
C861 C859 1.433 . S
C861 N864 1.384 . S
C862 H853 0.929 . S
C862 C854 1.378 . S
C862 C857 1.350 . S
C863 H850 0.929 . S
C863 C855 1.433 . S
C863 N865 1.384 . S
N864 C860 1.427 . S
N864 C861 1.384 . S
N865 C857 1.427 . S
N865 C863 1.384 . S
H866 C872 0.930 . S
H867 C876 0.930 . S
H868 C881 0.929 . S
H869 C879 0.929 . S
H870 C874 0.929 . S
H871 C880 0.929 . S
C872 H866 0.930 . S
C872 C873 1.367 . S
C872 C880 1.378 . S
C873 C872 1.367 . S
C873 C881 1.433 . S
C874 H870 0.929 . S
C874 C876 1.378 . S
C874 C878 1.350 . S
C875 C878 1.463 . S
C875 C880 1.350 . S
C875 N883 1.427 . S
C876 H867 0.930 . S
C876 C874 1.378 . S
C876 C877 1.367 . S
C877 C876 1.367 . S
C877 C879 1.433 . S
C878 C874 1.350 . S
C878 C875 1.463 . S
C878 N882 1.427 . S
C879 H869 0.929 . S
C879 C877 1.433 . S
C879 N882 1.384 . S
C880 H871 0.929 . S
C880 C872 1.378 . S
C880 C875 1.350 . S
C881 H868 0.929 . S
C881 C873 1.433 . S
C881 N883 1.384 . S
N882 C878 1.427 . S
N882 C879 1.384 . S
N883 C875 1.427 . S
N883 C881 1.384 . S
H884 C890 0.930 . S
H885 C894 0.930 . S
H886 C899 0.929 . S
H887 C897 0.929 . S
H888 C892 0.929 . S
H889 C898 0.929 . S
C890 H884 0.930 . S
C890 C891 1.367 . S
C890 C898 1.378 . S
C891 C890 1.367 . S
C891 C899 1.433 . S
C892 H888 0.929 . S
C892 C894 1.378 . S
C892 C896 1.350 . S
C893 C896 1.463 . S
C893 C898 1.350 . S
C893 N901 1.427 . S
C894 H885 0.930 . S
C894 C892 1.378 . S
C894 C895 1.367 . S
C895 C894 1.367 . S
C895 C897 1.433 . S
C896 C892 1.350 . S
C896 C893 1.463 . S
C896 N900 1.427 . S
C897 H887 0.929 . S
C897 C895 1.433 . S
C897 N900 1.384 . S
C898 H889 0.929 . S
C898 C890 1.378 . S
C898 C893 1.350 . S
C899 H886 0.929 . S
C899 C891 1.433 . S
C899 N901 1.384 . S
N900 C896 1.427 . S
N900 C897 1.384 . S
N901 C893 1.427 . S
N901 C899 1.384 . S
H902 C908 0.930 . S
H903 C912 0.930 . S
H904 C917 0.929 . S
H905 C915 0.929 . S
H906 C910 0.929 . S
H907 C916 0.929 . S
C908 H902 0.930 . S
C908 C909 1.367 . S
C908 C916 1.378 . S
C909 C908 1.367 . S
C909 C917 1.433 . S
C910 H906 0.929 . S
C910 C912 1.378 . S
C910 C914 1.350 . S
C911 C914 1.463 . S
C911 C916 1.350 . S
C911 N919 1.427 . S
C912 H903 0.930 . S
C912 C910 1.378 . S
C912 C913 1.367 . S
C913 C912 1.367 . S
C913 C915 1.433 . S
C914 C910 1.350 . S
C914 C911 1.463 . S
C914 N918 1.427 . S
C915 H905 0.929 . S
C915 C913 1.433 . S
C915 N918 1.384 . S
C916 H907 0.929 . S
C916 C908 1.378 . S
C916 C911 1.350 . S
C917 H904 0.929 . S
C917 C909 1.433 . S
C917 N919 1.384 . S
N918 C914 1.427 . S
N918 C915 1.384 . S
N919 C911 1.427 . S
N919 C917 1.384 . S
H920 C926 0.930 . S
H921 C930 0.930 . S
H922 C935 0.929 . S
H923 C933 0.929 . S
H924 C928 0.929 . S
H925 C934 0.929 . S
C926 H920 0.930 . S
C926 C927 1.367 . S
C926 C934 1.378 . S
C927 C926 1.367 . S
C927 C935 1.433 . S
C928 H924 0.929 . S
C928 C930 1.378 . S
C928 C932 1.350 . S
C929 C932 1.463 . S
C929 C934 1.350 . S
C929 N937 1.427 . S
C930 H921 0.930 . S
C930 C928 1.378 . S
C930 C931 1.367 . S
C931 C930 1.367 . S
C931 C933 1.433 . S
C932 C928 1.350 . S
C932 C929 1.463 . S
C932 N936 1.427 . S
C933 H923 0.929 . S
C933 C931 1.433 . S
C933 N936 1.384 . S
C934 H925 0.929 . S
C934 C926 1.378 . S
C934 C929 1.350 . S
C935 H922 0.929 . S
C935 C927 1.433 . S
C935 N937 1.384 . S
N936 C932 1.427 . S
N936 C933 1.384 . S
N937 C929 1.427 . S
N937 C935 1.384 . S
H938 C944 0.930 . S
H939 C948 0.930 . S
H940 C953 0.929 . S
H941 C951 0.929 . S
H942 C946 0.929 . S
H943 C952 0.929 . S
C944 H938 0.930 . S
C944 C945 1.367 . S
C944 C952 1.378 . S
C945 C944 1.367 . S
C945 C953 1.433 . S
C946 H942 0.929 . S
C946 C948 1.378 . S
C946 C950 1.350 . S
C947 C950 1.463 . S
C947 C952 1.350 . S
C947 N955 1.427 . S
C948 H939 0.930 . S
C948 C946 1.378 . S
C948 C949 1.367 . S
C949 C948 1.367 . S
C949 C951 1.433 . S
C950 C946 1.350 . S
C950 C947 1.463 . S
C950 N954 1.427 . S
C951 H941 0.929 . S
C951 C949 1.433 . S
C951 N954 1.384 . S
C952 H943 0.929 . S
C952 C944 1.378 . S
C952 C947 1.350 . S
C953 H940 0.929 . S
C953 C945 1.433 . S
C953 N955 1.384 . S
N954 C950 1.427 . S
N954 C951 1.384 . S
N955 C947 1.427 . S
N955 C953 1.384 . S
H956 C962 0.930 . S
H957 C966 0.930 . S
H958 C971 0.929 . S
H959 C969 0.929 . S
H960 C964 0.929 . S
H961 C970 0.929 . S
C962 H956 0.930 . S
C962 C963 1.367 . S
C962 C970 1.378 . S
C963 C962 1.367 . S
C963 C971 1.433 . S
C964 H960 0.929 . S
C964 C966 1.378 . S
C964 C968 1.350 . S
C965 C968 1.463 . S
C965 C970 1.350 . S
C965 N973 1.427 . S
C966 H957 0.930 . S
C966 C964 1.378 . S
C966 C967 1.367 . S
C967 C966 1.367 . S
C967 C969 1.433 . S
C968 C964 1.350 . S
C968 C965 1.463 . S
C968 N972 1.427 . S
C969 H959 0.929 . S
C969 C967 1.433 . S
C969 N972 1.384 . S
C970 H961 0.929 . S
C970 C962 1.378 . S
C970 C965 1.350 . S
C971 H958 0.929 . S
C971 C963 1.433 . S
C971 N973 1.384 . S
N972 C968 1.427 . S
N972 C969 1.384 . S
N973 C965 1.427 . S
N973 C971 1.384 . S
H974 C980 0.930 . S
H975 C984 0.930 . S
H976 C989 0.929 . S
H977 C987 0.929 . S
H978 C982 0.929 . S
H979 C988 0.929 . S
C980 H974 0.930 . S
C980 C981 1.367 . S
C980 C988 1.378 . S
C981 C980 1.367 . S
C981 C989 1.433 . S
C982 H978 0.929 . S
C982 C984 1.378 . S
C982 C986 1.350 . S
C983 C986 1.463 . S
C983 C988 1.350 . S
C983 N991 1.427 . S
C984 H975 0.930 . S
C984 C982 1.378 . S
C984 C985 1.367 . S
C985 C984 1.367 . S
C985 C987 1.433 . S
C986 C982 1.350 . S
C986 C983 1.463 . S
C986 N990 1.427 . S
C987 H977 0.929 . S
C987 C985 1.433 . S
C987 N990 1.384 . S
C988 H979 0.929 . S
C988 C980 1.378 . S
C988 C983 1.350 . S
C989 H976 0.929 . S
C989 C981 1.433 . S
C989 N991 1.384 . S
N990 C986 1.427 . S
N990 C987 1.384 . S
N991 C983 1.427 . S
N991 C989 1.384 . S
C711 C49 1.600 . S
C715 C381 1.599 . S
C729 C108 1.597 . S
C733 C469 1.598 . S
C747 C548 1.600 . S
C751 C233 1.599 . S
C765 C673 1.598 . S
C769 C313 1.597 . S
C783 C29 0.739 . S
C787 C196 0.749 . S
C801 C117 0.740 . S
C805 C321 0.750 . S
C819 C585 0.739 . S
C823 C401 0.749 . S
C837 C460 0.754 . S
C841 C665 0.744 . S
C855 C489 1.278 . S
C859 C20 1.274 . S
C873 C145 1.271 . S
C877 C577 1.266 . S
C891 C636 1.272 . S
C895 C205 1.265 . S
C909 C293 1.279 . S
C913 C409 1.273 . S
C927 C557 1.276 . S
C931 C284 1.272 . S
C945 C57 1.278 . S
C949 C645 1.271 . S
C963 C137 1.272 . S
C967 C372 1.271 . S
C981 C497 1.272 . S
C985 C225 1.277 . S
