# Generated by pormake.
# Topology nov, (5)-cn, num edge types: 1
# Building blocks:
#     Node 0, Type 0, BuildingBlock: XOMCOT_clean_sbu_0, # of connection points: 5
#     Node 1, Type 0, BuildingBlock: XOMCOT_clean_sbu_0, # of connection points: 5
#     Node 2, Type 0, BuildingBlock: XOMCOT_clean_sbu_0, # of connection points: 5
#     Node 3, Type 0, BuildingBlock: XOMCOT_clean_sbu_0, # of connection points: 5
#     Node 4, Type 0, BuildingBlock: XOMCOT_clean_sbu_0, # of connection points: 5
#     Node 5, Type 0, BuildingBlock: XOMCOT_clean_sbu_0, # of connection points: 5
#     Node 6, Type 0, BuildingBlock: XOMCOT_clean_sbu_0, # of connection points: 5
#     Node 7, Type 0, BuildingBlock: XOMCOT_clean_sbu_0, # of connection points: 5
#     Edge 8, Type (0, 0), BuildingBlock: TEMPAE_clean_linker_10, # of connection points: 2
#     Edge 9, Type (0, 0), BuildingBlock: TEMPAE_clean_linker_10, # of connection points: 2
#     Edge 10, Type (0, 0), BuildingBlock: TEMPAE_clean_linker_10, # of connection points: 2
#     Edge 11, Type (0, 0), BuildingBlock: TEMPAE_clean_linker_10, # of connection points: 2
#     Edge 12, Type (0, 0), BuildingBlock: TEMPAE_clean_linker_10, # of connection points: 2
#     Edge 13, Type (0, 0), BuildingBlock: TEMPAE_clean_linker_10, # of connection points: 2
#     Edge 14, Type (0, 0), BuildingBlock: TEMPAE_clean_linker_10, # of connection points: 2
#     Edge 15, Type (0, 0), BuildingBlock: TEMPAE_clean_linker_10, # of connection points: 2
#     Edge 16, Type (0, 0), BuildingBlock: TEMPAE_clean_linker_10, # of connection points: 2
#     Edge 17, Type (0, 0), BuildingBlock: TEMPAE_clean_linker_10, # of connection points: 2
#     Edge 18, Type (0, 0), BuildingBlock: TEMPAE_clean_linker_10, # of connection points: 2
#     Edge 19, Type (0, 0), BuildingBlock: TEMPAE_clean_linker_10, # of connection points: 2
#     Edge 20, Type (0, 0), BuildingBlock: TEMPAE_clean_linker_10, # of connection points: 2
#     Edge 21, Type (0, 0), BuildingBlock: TEMPAE_clean_linker_10, # of connection points: 2
#     Edge 22, Type (0, 0), BuildingBlock: TEMPAE_clean_linker_10, # of connection points: 2
#     Edge 23, Type (0, 0), BuildingBlock: TEMPAE_clean_linker_10, # of connection points: 2
#     Edge 24, Type (0, 0), BuildingBlock: TEMPAE_clean_linker_10, # of connection points: 2
#     Edge 25, Type (0, 0), BuildingBlock: TEMPAE_clean_linker_10, # of connection points: 2
#     Edge 26, Type (0, 0), BuildingBlock: TEMPAE_clean_linker_10, # of connection points: 2
#     Edge 27, Type (0, 0), BuildingBlock: TEMPAE_clean_linker_10, # of connection points: 2
# Relax obj value: 0.158
# Max RMSD: 0.189
# Mean RMSD: 0.189
data_MOF--net-nov--node1-XOMCOT_clean_sbu_0--edge1-TEMPAE_clean_linker_10
_symmetry_space_group_name_H-M    P1
_symmetry_Int_Tables_number       1
_symmetry_cell_setting            triclinic
loop_
_symmetry_equiv_pos_as_xyz
'x, y, z'
_cell_length_a     27.542651
_cell_length_b     54.698518
_cell_length_c     28.501614
_cell_angle_alpha  90.175855
_cell_angle_beta   90.035659
_cell_angle_gamma 89.997478
loop_
_atom_site_label
_atom_site_type_symbol
_atom_site_fract_x
_atom_site_fract_y
_atom_site_fract_z
_atom_type_partial_charge
Co0 Co 0.04213 0.16225 0.15346 0.0
C1 C 0.03741 0.10989 0.12007 0.0
C2 C 0.10727 0.1266 0.11121 0.0
C3 C 0.10924 0.10334 0.09341 0.0
N4 N 0.06244 0.13083 0.12816 0.0
N5 N 0.06544 0.09265 0.09898 0.0
H6 H 0.99953 0.1074 0.12871 0.0
H7 H 0.13629 0.1399 0.11018 0.0
C8 C 0.13396 0.18209 0.20236 0.0
O9 O 0.11599 0.20416 0.20703 0.0
N10 N 0.02138 0.19367 0.17826 0.0
C11 C 1.00092 0.21194 0.15357 0.0
C12 C 0.9891 0.23064 0.1838 0.0
C13 C 0.01924 0.201 0.22356 0.0
N14 N 1.00125 0.22394 0.22783 0.0
C15 C 0.03749 0.16975 0.05511 0.0
C16 C 0.1008 0.20882 0.04975 0.0
C17 C 0.07483 0.20191 0.00951 0.0
C18 C 0.04367 0.18171 0.01235 0.0
C19 C 0.0935 0.19635 0.0919 0.0
N20 N 0.06127 0.17743 0.09452 0.0
H21 H 0.01235 0.15462 0.05695 0.0
H22 H 0.11206 0.20287 0.12246 0.0
H23 H 0.99464 0.21168 0.11612 0.0
H24 H 0.03291 0.19016 0.25239 0.0
O25 O 0.97515 0.15606 0.13819 0.0
O26 O 0.01019 0.1463 0.20572 0.0
O27 O 0.10988 0.1652 0.18155 0.0
C28 C 0.9708 0.14739 0.18039 0.0
H29 H 0.14023 0.09538 0.07575 0.0
H30 H 0.97274 0.24785 0.17392 0.0
H31 H 0.12492 0.22446 0.0493 0.0
H32 H 0.02353 0.17544 0.98196 0.0
Co33 Co 0.5368 0.86468 0.65039 0.0
C34 C 0.54513 0.91692 0.61894 0.0
C35 C 0.47161 0.90395 0.62039 0.0
C36 C 0.47129 0.92784 0.60593 0.0
N37 N 0.51772 0.89708 0.62935 0.0
N38 N 0.5174 0.93599 0.60501 0.0
H39 H 0.58433 0.91745 0.62089 0.0
H40 H 0.44019 0.89219 0.62257 0.0
C41 C 0.44545 0.84427 0.69895 0.0
O42 O 0.46275 0.82195 0.70054 0.0
N43 N 0.55651 0.83242 0.67127 0.0
C44 C 0.57492 0.81431 0.64453 0.0
C45 C 0.5872 0.79501 0.67305 0.0
C46 C 0.56026 0.82437 0.7159 0.0
N47 N 0.57748 0.80124 0.71795 0.0
C48 C 0.53968 0.8599 0.55138 0.0
C49 C 0.47535 0.82141 0.54242 0.0
C50 C 0.50181 0.82888 0.50293 0.0
C51 C 0.53326 0.84888 0.5076 0.0
C52 C 0.48289 0.83297 0.58569 0.0
N53 N 0.51588 0.85148 0.59009 0.0
H54 H 0.56538 0.87473 0.5546 0.0
H55 H 0.46411 0.82596 0.61565 0.0
H56 H 0.57969 0.81509 0.60692 0.0
H57 H 0.54845 0.83493 0.74597 0.0
O58 O 0.60389 0.87054 0.63482 0.0
O59 O 0.57033 0.87885 0.70381 0.0
O60 O 0.46957 0.86151 0.6795 0.0
C61 C 0.6092 0.87819 0.67776 0.0
H62 H 0.43974 0.93816 0.59493 0.0
H63 H 0.60238 0.77778 0.66146 0.0
H64 H 0.45088 0.80594 0.54054 0.0
H65 H 0.55373 0.8556 0.47787 0.0
Co66 Co 0.01196 0.87117 0.85791 0.0
C67 C 0.01093 0.91905 0.9127 0.0
C68 C 0.04373 0.92103 0.84467 0.0
C69 C 0.04467 0.94387 0.86436 0.0
N70 N 0.02344 0.90521 0.875 0.0
N71 N 0.02379 0.94283 0.90712 0.0
H72 H 0.9917 0.91232 0.94289 0.0
H73 H 0.0569 0.91622 0.81011 0.0
C74 C 0.11918 0.87736 0.84932 0.0
O75 O 0.11801 0.88829 0.89044 0.0
N76 N 1.00057 0.83787 0.83817 0.0
C77 C 0.97544 0.82044 0.8609 0.0
C78 C 0.97319 0.79996 0.83265 0.0
C79 C 0.01285 0.82797 0.79647 0.0
N80 N 0.99661 0.80475 0.79206 0.0
C81 C 1.00379 0.86284 0.95698 0.0
C82 C 0.07959 0.82999 0.96403 0.0
C83 C 0.05018 0.83402 1.00349 0.0
C84 C 0.0121 0.85092 0.99954 0.0
C85 C 0.06967 0.8421 0.922 0.0
N86 N 0.03288 0.85883 0.91896 0.0
H87 H 0.97177 0.87403 0.95392 0.0
H88 H 0.09006 0.83684 0.89129 0.0
H89 H 0.95899 0.82266 0.89509 0.0
H90 H 0.03286 0.83775 0.76979 0.0
O91 O 0.94364 0.87465 0.87099 0.0
O92 O 0.97809 0.88253 0.80237 0.0
O93 O 0.07992 0.86913 0.83118 0.0
C94 C 0.93869 0.88129 0.82752 0.0
H95 H 0.06021 0.95995 0.84825 0.0
H96 H 0.95431 0.78315 0.8408 0.0
H97 H 0.10918 0.81697 0.96501 0.0
H98 H 0.98709 0.85397 0.02826 0.0
Co99 Co 0.5683 0.15524 0.35927 0.0
C100 C 0.56042 0.10833 0.41617 0.0
C101 C 0.54305 0.10471 0.34315 0.0
C102 C 0.53888 0.0822 0.36358 0.0
N103 N 0.55631 0.12126 0.37583 0.0
N104 N 0.54955 0.08437 0.40956 0.0
H105 H 0.57044 0.11595 0.44967 0.0
H106 H 0.53699 0.10879 0.3065 0.0
C107 C 0.4619 0.14829 0.34786 0.0
O108 O 0.46282 0.13715 0.38863 0.0
N109 N 0.5805 0.18844 0.34007 0.0
C110 C 0.60603 0.20563 0.36327 0.0
C111 C 0.61037 0.22585 0.33483 0.0
C112 C 0.56997 0.1982 0.29795 0.0
N113 N 0.58783 0.22112 0.29367 0.0
C114 C 0.57396 0.16434 0.45835 0.0
C115 C 0.49887 0.19782 0.46225 0.0
C116 C 0.52761 0.19435 0.50226 0.0
C117 C 0.56513 0.17705 0.5001 0.0
C118 C 0.509 0.18477 0.42117 0.0
N119 N 0.54568 0.16789 0.4196 0.0
H120 H 0.60544 0.15263 0.45652 0.0
H121 H 0.48938 0.18966 0.38981 0.0
H122 H 0.6217 0.20334 0.39778 0.0
H123 H 0.55038 0.18847 0.2708 0.0
O124 O 0.63634 0.15167 0.3741 0.0
O125 O 0.60358 0.1438 0.3046 0.0
O126 O 0.50111 0.15711 0.3308 0.0
C127 C 0.64231 0.14489 0.33074 0.0
H128 H 0.52952 0.06541 0.34555 0.0
H129 H 0.6303 0.24234 0.3432 0.0
H130 H 0.47063 0.2116 0.46171 0.0
H131 H 0.5886 0.17392 0.52999 0.0
Co132 Co 0.52188 0.65766 0.14956 0.0
C133 C 0.52958 0.60956 0.0965 0.0
C134 C 0.54906 0.60758 0.16921 0.0
C135 C 0.55241 0.58459 0.15026 0.0
N136 N 0.53503 0.6234 0.13571 0.0
N137 N 0.54034 0.58573 0.10445 0.0
H138 H 0.51832 0.61647 0.0629 0.0
H139 H 0.55588 0.61246 0.20542 0.0
C140 C 0.62853 0.65169 0.16225 0.0
O141 O 0.62871 0.63888 0.12318 0.0
N142 N 0.50844 0.6912 0.16607 0.0
C143 C 0.48247 0.70776 0.14184 0.0
C144 C 0.476 0.72814 0.1698 0.0
C145 C 0.5171 0.7015 0.20821 0.0
N146 N 0.49754 0.72408 0.21166 0.0
C147 C 0.51382 0.66443 0.05007 0.0
C148 C 0.58906 0.69759 0.04207 0.0
C149 C 0.55916 0.69339 1.00311 0.0
C150 C 0.5216 0.67623 0.00731 0.0
C151 C 0.57994 0.68546 0.08421 0.0
N152 N 0.54311 0.66877 0.08786 0.0
H153 H 0.48234 0.65282 0.05342 0.0
H154 H 0.60041 0.69103 0.11467 0.0
H155 H 0.46759 0.70484 0.10715 0.0
H156 H 0.53621 0.69224 0.23618 0.0
O157 O 0.45378 0.65253 0.13625 0.0
O158 O 0.48847 0.64777 0.20597 0.0
O159 O 0.58902 0.66118 0.1772 0.0
C160 C 0.44927 0.64735 0.18052 0.0
H161 H 0.56193 0.5682 0.16931 0.0
H162 H 0.45507 0.7442 0.16073 0.0
H163 H 0.61738 0.71132 0.041 0.0
H164 H 0.49726 0.67258 0.97826 0.0
Co165 Co 0.06804 0.37335 0.65484 0.0
C166 C 0.06262 0.4203 0.59816 0.0
C167 C 0.03282 0.42278 0.66751 0.0
C168 C 0.02776 0.44511 0.64636 0.0
N169 N 0.05357 0.40694 0.63718 0.0
N170 N 0.0465 0.44356 0.60289 0.0
H171 H 0.08026 0.41357 0.56698 0.0
H172 H 0.02196 0.41831 0.70292 0.0
C173 C 0.96099 0.37783 0.66468 0.0
O174 O 0.96147 0.3881 0.62305 0.0
N175 N 0.08259 0.34057 0.6751 0.0
C176 C 0.10942 0.32368 0.65248 0.0
C177 C 0.11428 0.30358 0.68114 0.0
C178 C 0.07185 0.33077 0.7171 0.0
N179 N 0.09076 0.30811 0.72183 0.0
C180 C 0.07369 0.36369 0.55573 0.0
C181 C 1.00153 0.32857 0.55336 0.0
C182 C 0.02907 0.33259 0.51283 0.0
C183 C 0.06523 0.35063 0.51425 0.0
C184 C 0.01134 0.34193 0.59413 0.0
N185 N 0.04632 0.35972 0.5949 0.0
H186 H 0.10449 0.37582 0.55704 0.0
H187 H 0.99281 0.33667 0.62587 0.0
H188 H 0.12534 0.32606 0.61812 0.0
H189 H 0.05111 0.34024 0.74378 0.0
O190 O 0.13569 0.37793 0.6399 0.0
O191 O 0.10254 0.38595 0.70914 0.0
O192 O 1.00079 0.37046 0.68306 0.0
C193 C 0.14137 0.38503 0.68311 0.0
H194 H 0.01218 0.46139 0.66193 0.0
H195 H 0.13501 0.28728 0.67321 0.0
H196 H 0.97453 0.31419 0.5545 0.0
H197 H 0.08796 0.3541 0.484 0.0
Co198 Co 0.54199 0.36499 0.85967 0.0
C199 C 0.53601 0.41697 0.89433 0.0
C200 C 0.60863 0.40274 0.89373 0.0
C201 C 0.6102 0.42639 0.90972 0.0
N202 N 0.56233 0.39681 0.88325 0.0
N203 N 0.56468 0.43534 0.91012 0.0
H204 H 0.49693 0.41823 0.8914 0.0
H205 H 0.63929 0.39048 0.89145 0.0
C206 C 0.63325 0.34444 0.81075 0.0
O207 O 0.61528 0.3223 0.80734 0.0
N208 N 0.52114 0.33329 0.83634 0.0
C209 C 0.50157 0.31505 0.86174 0.0
C210 C 0.48951 0.29613 0.83202 0.0
C211 C 0.51826 0.32572 0.79123 0.0
N212 N 0.50059 0.3027 0.78767 0.0
C213 C 0.53818 0.35861 0.95832 0.0
C214 C 0.60149 0.31959 0.9649 0.0
C215 C 0.57538 0.32676 1.00487 0.0
C216 C 0.54432 0.34697 1.00142 0.0
C217 C 0.59421 0.33175 0.92237 0.0
N218 N 0.56185 0.35059 0.91913 0.0
H219 H 0.51295 0.37368 0.95602 0.0
H220 H 0.61278 0.32498 0.89203 0.0
H221 H 0.49608 0.31546 0.89929 0.0
H222 H 0.53123 0.33646 0.76198 0.0
O223 O 0.47505 0.37134 0.87515 0.0
O224 O 0.50951 0.38035 0.80702 0.0
O225 O 0.60936 0.36159 0.83094 0.0
C226 C 0.47039 0.37968 0.83272 0.0
H227 H 0.64218 0.43601 0.92198 0.0
H228 H 0.47374 0.27887 0.84246 0.0
H229 H 0.6256 0.30395 0.96582 0.0
H230 H 0.5241 0.35344 0.03158 0.0
Co231 Co 0.04641 0.66252 0.354 0.0
C232 C 0.04843 0.61296 0.40074 0.0
C233 C 1.00404 0.61439 0.33915 0.0
C234 C 1.00409 0.59084 0.35538 0.0
N235 N 0.03066 0.62858 0.36813 0.0
N236 N 0.03224 0.58978 0.39406 0.0
H237 H 0.0746 0.61791 0.42717 0.0
H238 H 0.98659 0.62064 0.30737 0.0
C239 C 0.9386 0.66037 0.34954 0.0
O240 O 0.94011 0.64936 0.39046 0.0
N241 N 0.0623 0.69568 0.33714 0.0
C242 C 0.09408 0.71075 0.35854 0.0
C243 C 0.10002 0.73124 0.33104 0.0
C244 C 0.04936 0.70704 0.29717 0.0
N245 N 0.07187 0.72882 0.2925 0.0
C246 C 0.05853 0.66775 0.45403 0.0
C247 C 0.99038 0.70438 0.46529 0.0
C248 C 0.01906 0.69781 0.50388 0.0
C249 C 0.0532 0.67903 0.49787 0.0
C250 C 0.9969 0.69267 0.42214 0.0
N251 N 0.02988 0.67415 0.41692 0.0
H252 H 0.08802 0.65508 0.4494 0.0
H253 H 0.97732 0.69965 0.39223 0.0
H254 H 0.11291 0.7067 0.39092 0.0
H255 H 0.02603 0.6989 0.27084 0.0
O256 O 0.11441 0.65567 0.36379 0.0
O257 O 0.07545 0.6517 0.29588 0.0
O258 O 0.97794 0.66772 0.33036 0.0
C259 C 0.1159 0.6503 0.31935 0.0
H260 H 0.98489 0.57569 0.33946 0.0
H261 H 0.12387 0.74651 0.33838 0.0
H262 H 0.96491 0.71943 0.46759 0.0
H263 H 0.07677 0.67357 0.52641 0.0
C264 C 0.01281 0.95938 0.98793 0.0
C265 C 0.0181 0.96315 0.93944 0.0
C266 C 0.01273 0.97922 0.01966 0.0
C267 C 0.01921 1.00333 1.00264 0.0
C268 C 0.022 1.0073 0.95369 0.0
C269 C 0.02063 0.9873 0.92287 0.0
C270 C 1.00788 0.97426 0.07148 0.0
C271 C 0.02932 0.03262 0.93378 0.0
C272 C 1.00349 0.06285 0.07084 0.0
C273 C 0.05192 0.06864 0.08171 0.0
C274 C 0.99153 0.04068 0.04825 0.0
C275 C 0.02894 0.02417 0.03533 0.0
C276 C 0.07736 0.02927 0.04878 0.0
C277 C 0.08803 0.05115 0.07234 0.0
C278 C 0.93919 0.03554 0.03611 0.0
C279 C 0.11859 1.01237 0.03554 0.0
H280 H 0.01052 0.94094 1.00138 0.0
H281 H 0.02285 0.99068 0.88557 0.0
H282 H 0.04397 0.97586 0.08849 0.0
H283 H 0.98352 0.98787 0.08827 0.0
H284 H 0.99354 0.95562 0.07831 0.0
H285 H 0.02881 0.03273 0.89481 0.0
H286 H 1.00064 0.04517 0.94667 0.0
H287 H 0.06474 0.04002 0.94581 0.0
H288 H 0.97509 0.076 0.0781 0.0
H289 H 0.12529 0.05487 0.08207 0.0
H290 H 0.93015 0.01607 0.04269 0.0
H291 H 0.93311 0.0391 0.99827 0.0
H292 H 0.91394 0.04728 0.05657 0.0
H293 H 0.11085 0.99349 0.04738 0.0
H294 H 0.15379 0.01828 0.05088 0.0
H295 H 0.12238 1.01183 0.99678 0.0
C296 C 0.57867 0.06539 0.48355 0.0
C297 C 0.54894 0.06478 0.44351 0.0
C298 C 0.57944 0.04569 0.51534 0.0
C299 C 0.54998 0.02491 0.50672 0.0
C300 C 0.51963 0.02436 0.46665 0.0
C301 C 0.51925 0.04429 0.43592 0.0
C302 C 0.61188 0.04704 0.55795 0.0
C303 C 0.48738 1.00267 0.4561 0.0
C304 C 0.5711 0.96133 0.55583 0.0
C305 C 0.5325 0.95946 0.58758 0.0
C306 C 0.57969 0.98324 0.53145 0.0
C307 C 0.54931 1.00376 0.53963 0.0
C308 C 0.51299 1.00247 0.57466 0.0
C309 C 0.50479 0.98028 0.59788 0.0
C310 C 0.61862 0.98376 0.49424 0.0
C311 C 0.48029 0.02395 0.58515 0.0
H312 H 0.60197 0.08103 0.48959 0.0
H313 H 0.49526 0.04381 0.40584 0.0
H314 H 0.59 0.04471 0.5903 0.0
H315 H 0.63869 0.03191 0.55698 0.0
H316 H 0.63178 0.06467 0.56022 0.0
H317 H 0.46698 1.00482 0.42273 0.0
H318 H 0.50953 0.98576 0.45378 0.0
H319 H 0.46087 1.0001 0.48496 0.0
H320 H 0.59236 0.94519 0.54769 0.0
H321 H 0.47533 0.97887 0.62291 0.0
H322 H 0.64024 1.00082 0.49679 0.0
H323 H 0.60134 0.98345 0.45906 0.0
H324 H 0.64353 0.96785 0.49691 0.0
H325 H 0.50173 0.04105 0.58821 0.0
H326 H 0.45934 0.02131 0.61804 0.0
H327 H 0.45419 0.02639 0.55586 0.0
C328 C 0.56707 0.5444 0.08061 0.0
C329 C 0.53917 0.56539 0.07181 0.0
C330 C 0.56556 0.52407 0.05061 0.0
C331 C 0.53597 0.52467 0.01002 0.0
C332 C 0.50801 0.54582 1.00041 0.0
C333 C 0.5098 0.56591 0.03149 0.0
C334 C 0.59612 0.50195 0.06227 0.0
C335 C 0.4764 0.54724 0.95724 0.0
C336 C 0.58026 0.47932 0.91902 0.0
C337 C 0.55094 0.45896 0.92822 0.0
C338 C 0.57321 0.50154 0.94276 0.0
C339 C 0.53636 0.50334 0.9772 0.0
C340 C 0.50456 0.4833 0.98443 0.0
C341 C 0.51206 0.46134 0.95954 0.0
C342 C 0.60745 0.52251 0.93327 0.0
C343 C 0.46503 0.48437 0.02099 0.0
H344 H 0.59074 0.54387 0.1109 0.0
H345 H 0.48775 0.58186 0.02444 0.0
H346 H 0.57292 0.4854 0.06404 0.0
H347 H 0.62336 0.49883 0.03422 0.0
H348 H 0.61558 0.50399 0.09621 0.0
H349 H 0.45663 0.5649 0.95486 0.0
H350 H 0.49897 0.54496 0.9253 0.0
H351 H 0.44953 0.53214 0.95738 0.0
H352 H 0.61 0.47752 0.89437 0.0
H353 H 0.48959 0.44555 0.96686 0.0
H354 H 0.63266 0.52472 0.96337 0.0
H355 H 0.58705 0.53988 0.9295 0.0
H356 H 0.62934 0.51946 0.90105 0.0
H357 H 0.48166 0.48387 0.05646 0.0
H358 H 0.43934 0.46879 0.01778 0.0
H359 H 0.44436 0.50171 0.01824 0.0
C360 C 1.00731 0.47828 0.5639 0.0
C361 C 0.04787 0.46311 0.56927 0.0
C362 C 0.00846 0.49852 0.53389 0.0
C363 C 0.05171 0.50409 0.5093 0.0
C364 C 0.09284 0.48871 0.51434 0.0
C365 C 0.09023 0.46818 0.54394 0.0
C366 C 0.96338 0.51401 0.5287 0.0
C367 C 0.13984 0.49429 0.4894 0.0
C368 C 0.03474 0.54474 0.40286 0.0
C369 C 0.04241 0.56821 0.42176 0.0
C370 C 0.03939 0.52367 0.43047 0.0
C371 C 0.05311 0.52592 0.47809 0.0
C372 C 0.06369 0.54936 0.49681 0.0
C373 C 0.05786 0.57021 0.46858 0.0
C374 C 0.02732 0.49908 0.40917 0.0
C375 C 0.07926 0.5525 0.54726 0.0
H376 H 0.97448 0.47418 0.5833 0.0
H377 H 0.12173 0.45657 0.54862 0.0
H378 H 0.97088 0.53295 0.54067 0.0
H379 H 0.95262 0.51498 0.49123 0.0
H380 H 0.93229 0.50674 0.54919 0.0
H381 H 0.16828 0.48039 0.49655 0.0
H382 H 0.13372 0.49521 0.45098 0.0
H383 H 0.15351 0.51247 0.50071 0.0
H384 H 0.02421 0.54271 0.3665 0.0
H385 H 0.06385 0.58811 0.48379 0.0
H386 H 0.99446 0.49153 0.42636 0.0
H387 H 0.05733 0.48596 0.41526 0.0
H388 H 0.0204 0.50023 0.37083 0.0
H389 H 0.04836 0.54822 0.5708 0.0
H390 H 0.09171 0.57142 0.55488 0.0
H391 H 0.10903 0.53959 0.55581 0.0
C392 C 0.37123 0.14545 0.34569 0.0
C393 C 0.41478 0.15222 0.32372 0.0
C394 C 0.32613 0.14982 0.32436 0.0
C395 C 0.32437 0.16107 0.27973 0.0
C396 C 0.36818 0.16755 0.25692 0.0
C397 C 0.41287 0.16314 0.27925 0.0
C398 C 0.28026 0.1428 0.35006 0.0
C399 C 0.36781 0.17941 0.20916 0.0
C400 C 0.20631 0.15448 0.21123 0.0
C401 C 0.18338 0.17689 0.22066 0.0
C402 C 0.25267 0.14928 0.22932 0.0
C403 C 0.27652 0.16679 0.25788 0.0
C404 C 0.25377 0.18951 0.26716 0.0
C405 C 0.20764 0.1943 0.24833 0.0
C406 C 0.27587 0.12492 0.21836 0.0
C407 C 0.27776 0.2086 0.29776 0.0
H408 H 0.37224 0.13703 0.38004 0.0
H409 H 0.4463 0.16836 0.26192 0.0
H410 H 0.25801 0.15935 0.35686 0.0
H411 H 0.25811 0.13028 0.32808 0.0
H412 H 0.28788 0.13371 0.38408 0.0
H413 H 0.40502 0.1824 0.19528 0.0
H414 H 0.34736 0.16787 0.18391 0.0
H415 H 0.34897 0.19731 0.21115 0.0
H416 H 0.18801 0.14092 0.18979 0.0
H417 H 0.19028 0.21165 0.25597 0.0
H418 H 0.28106 0.11442 0.25123 0.0
H419 H 0.31231 0.12772 0.20269 0.0
H420 H 0.25364 0.11377 0.19378 0.0
H421 H 0.28354 0.20117 0.33351 0.0
H422 H 0.25579 0.22557 0.30064 0.0
H423 H 0.31396 0.21338 0.28343 0.0
C424 C 0.37492 0.87241 0.71389 0.0
C425 C 0.39669 0.84937 0.71905 0.0
C426 C 0.32903 0.87742 0.73323 0.0
C427 C 0.30453 0.85907 0.75895 0.0
C428 C 0.32624 0.83578 0.76427 0.0
C429 C 0.37187 0.83118 0.74411 0.0
C430 C 0.30694 0.90243 0.72644 0.0
C431 C 0.30157 0.8158 0.79187 0.0
C432 C 0.21007 0.87846 0.84894 0.0
C433 C 0.16642 0.87325 0.82553 0.0
C434 C 0.25517 0.87404 0.82759 0.0
C435 C 0.2568 0.8644 0.78146 0.0
C436 C 0.2129 0.85941 0.75735 0.0
C437 C 0.16824 0.86377 0.77975 0.0
C438 C 0.30113 0.87939 0.85468 0.0
C439 C 0.2131 0.84933 0.70798 0.0
H440 H 0.39372 0.88663 0.6948 0.0
H441 H 0.38834 0.81335 0.74856 0.0
H442 H 0.27047 0.90071 0.71021 0.0
H443 H 0.30204 0.91152 0.76096 0.0
H444 H 0.32974 0.91436 0.70395 0.0
H445 H 0.32303 0.79861 0.79233 0.0
H446 H 0.2958 0.82193 0.8286 0.0
H447 H 0.26531 0.81184 0.77669 0.0
H448 H 0.20911 0.88571 0.88436 0.0
H449 H 0.13472 0.85976 0.76132 0.0
H450 H 0.32395 0.89258 0.8351 0.0
H451 H 0.32264 0.86237 0.85872 0.0
H452 H 0.29365 0.88703 0.8901 0.0
H453 H 0.2339 0.86166 0.68458 0.0
H454 H 0.17587 0.8471 0.69357 0.0
H455 H 0.23151 0.83129 0.70733 0.0
C456 C 0.8509 0.87114 0.82406 0.0
C457 C 0.89004 0.88479 0.8069 0.0
C458 C 0.80508 0.87234 0.80272 0.0
C459 C 0.79778 0.88825 0.76424 0.0
C460 C 0.83672 0.90293 0.74811 0.0
C461 C 0.88277 0.90066 0.76907 0.0
C462 C 0.76513 0.85574 0.82006 0.0
C463 C 0.82993 0.92071 0.70825 0.0
C464 C 0.6978 0.87 0.6795 0.0
C465 C 0.65797 0.88302 0.69716 0.0
C466 C 0.74373 0.87194 0.70042 0.0
C467 C 0.75039 0.88798 0.73899 0.0
C468 C 0.71077 0.90217 0.75542 0.0
C469 C 0.66467 0.89914 0.73488 0.0
C470 C 0.78446 0.85587 0.68275 0.0
C471 C 0.71682 0.92007 0.79538 0.0
H472 H 0.85664 0.85867 0.85304 0.0
H473 H 0.91302 0.91133 0.756 0.0
H474 H 0.73287 0.86665 0.83026 0.0
H475 H 0.7537 0.84318 0.79145 0.0
H476 H 0.77662 0.84461 0.85066 0.0
H477 H 0.86203 0.93275 0.70353 0.0
H478 H 0.82366 0.91053 0.67508 0.0
H479 H 0.79747 0.93228 0.71457 0.0
H480 H 0.69255 0.8573 0.65064 0.0
H481 H 0.63389 0.9093 0.74838 0.0
H482 H 0.79623 0.84328 0.71105 0.0
H483 H 0.81632 0.86715 0.67305 0.0
H484 H 0.77356 0.84478 0.65177 0.0
H485 H 0.7232 0.91001 0.82853 0.0
H486 H 0.68432 0.93187 0.79998 0.0
H487 H 0.74895 0.93189 0.78928 0.0
C488 C 0.69842 0.12503 0.2731 0.0
C489 C 0.69125 0.14085 0.31121 0.0
C490 C 0.74454 0.12249 0.25249 0.0
C491 C 0.78372 0.13685 0.26929 0.0
C492 C 0.77666 0.15255 0.30833 0.0
C493 C 0.73068 0.15402 0.32929 0.0
C494 C 0.75101 0.10495 0.212 0.0
C495 C 0.81695 0.16878 0.32643 0.0
C496 C 0.91627 0.12593 0.23745 0.0
C497 C 0.92239 0.14233 0.20029 0.0
C498 C 0.87056 0.12288 0.25872 0.0
C499 C 0.83081 0.13733 0.24361 0.0
C500 C 0.83688 0.15367 0.20564 0.0
C501 C 0.88236 0.15564 0.18397 0.0
C502 C 0.86507 0.10465 0.29798 0.0
C503 C 0.79599 0.17 0.18933 0.0
H504 H 0.66795 0.11469 0.25935 0.0
H505 H 0.72503 0.16643 0.35853 0.0
H506 H 0.75663 0.11534 0.17909 0.0
H507 H 0.78369 0.09344 0.21752 0.0
H508 H 0.71898 0.09284 0.20729 0.0
H509 H 0.80591 0.17941 0.35794 0.0
H510 H 0.8493 0.15769 0.33543 0.0
H511 H 0.828 0.1818 0.29861 0.0
H512 H 0.94721 0.11557 0.24997 0.0
H513 H 0.88714 0.16859 0.1556 0.0
H514 H 0.83278 0.09293 0.29181 0.0
H515 H 0.85924 0.11444 0.33164 0.0
H516 H 0.89758 0.09278 0.30163 0.0
H517 H 0.76403 0.15886 0.17917 0.0
H518 H 0.80657 0.18152 0.15897 0.0
H519 H 0.7845 0.18219 0.21849 0.0
C520 C 0.85182 0.64837 0.33846 0.0
C521 C 0.89196 0.66216 0.32385 0.0
C522 C 0.80856 0.64814 0.31245 0.0
C523 C 0.80504 0.66231 0.27111 0.0
C524 C 0.84481 0.67698 0.25706 0.0
C525 C 0.88796 0.6766 0.28342 0.0
C526 C 0.7672 0.63204 0.32838 0.0
C527 C 0.84218 0.69264 0.21361 0.0
C528 C 0.71471 0.64047 0.17935 0.0
C529 C 0.67426 0.65526 0.1888 0.0
C530 C 0.75769 0.64285 0.20544 0.0
C531 C 0.76059 0.66069 0.24146 0.0
C532 C 0.72031 0.6761 0.25039 0.0
C533 C 0.67747 0.67308 0.22419 0.0
C534 C 0.7996 0.62584 0.19521 0.0
C535 C 0.72225 0.69555 0.28804 0.0
H536 H 0.85462 0.63709 0.36955 0.0
H537 H 0.91873 0.68742 0.27206 0.0
H538 H 0.7336 0.64302 0.33249 0.0
H539 H 0.7598 0.61786 0.30139 0.0
H540 H 0.7751 0.6228 0.36219 0.0
H541 H 0.87475 0.70442 0.20951 0.0
H542 H 0.83889 0.6808 0.18209 0.0
H543 H 0.80945 0.70445 0.21479 0.0
H544 H 0.71247 0.6266 0.15219 0.0
H545 H 0.64647 0.6847 0.23147 0.0
H546 H 0.80773 0.61468 0.2267 0.0
H547 H 0.83272 0.63655 0.18701 0.0
H548 H 0.79193 0.61332 0.16535 0.0
H549 H 0.72676 0.68689 0.32291 0.0
H550 H 0.68891 0.70698 0.28874 0.0
H551 H 0.7541 0.70761 0.28245 0.0
C552 C 0.87022 0.37891 0.66546 0.0
C553 C 0.91392 0.3735 0.68856 0.0
C554 C 0.82518 0.37438 0.6867 0.0
C555 C 0.82362 0.36436 0.73239 0.0
C556 C 0.86755 0.35914 0.75623 0.0
C557 C 0.9122 0.36368 0.73396 0.0
C558 C 0.7792 0.38004 0.65992 0.0
C559 C 0.86736 0.34861 0.80513 0.0
C560 C 0.70489 0.37221 0.79897 0.0
C561 C 0.68265 0.34938 0.7921 0.0
C562 C 0.75129 0.37713 0.78082 0.0
C563 C 0.77586 0.35891 0.75461 0.0
C564 C 0.75379 0.3358 0.74779 0.0
C565 C 0.70762 0.33128 0.76675 0.0
C566 C 0.77372 0.40196 0.78912 0.0
C567 C 0.77856 0.31597 0.71963 0.0
H568 H 0.87106 0.38646 0.63036 0.0
H569 H 0.94576 0.35949 0.75213 0.0
H570 H 0.75756 0.3631 0.65515 0.0
H571 H 0.7565 0.3931 0.68012 0.0
H572 H 0.78665 0.38799 0.62483 0.0
H573 H 0.9046 0.34622 0.81939 0.0
H574 H 0.84664 0.36075 0.82911 0.0
H575 H 0.84888 0.33059 0.80498 0.0
H576 H 0.68599 0.38636 0.81835 0.0
H577 H 0.69082 0.31361 0.76106 0.0
H578 H 0.77862 0.41149 0.75516 0.0
H579 H 0.81022 0.39992 0.80515 0.0
H580 H 0.75111 0.41364 0.8124 0.0
H581 H 0.7843 0.32229 0.68309 0.0
H582 H 0.75714 0.29876 0.71863 0.0
H583 H 0.81483 0.31196 0.73468 0.0
C584 C 0.41607 0.40156 0.77602 0.0
C585 C 0.42193 0.38515 0.81323 0.0
C586 C 0.37025 0.40512 0.75523 0.0
C587 C 0.33001 0.39118 0.77086 0.0
C588 C 0.33581 0.37486 0.80893 0.0
C589 C 0.38149 0.37239 0.83013 0.0
C590 C 0.36515 0.42331 0.71584 0.0
C591 C 0.2944 0.35904 0.82576 0.0
C592 C 0.19797 0.40463 0.74093 0.0
C593 C 0.19035 0.38884 0.70285 0.0
C594 C 0.24413 0.40675 0.76175 0.0
C595 C 0.28284 0.39197 0.74525 0.0
C596 C 0.27528 0.37625 0.70633 0.0
C597 C 0.22936 0.37522 0.68513 0.0
C598 C 0.25119 0.42434 0.80207 0.0
C599 C 0.31495 0.35955 0.68857 0.0
H600 H 0.44732 0.41153 0.76308 0.0
H601 H 0.38605 0.35946 0.85858 0.0
H602 H 0.3589 0.4135 0.68228 0.0
H603 H 0.33326 0.4353 0.722 0.0
H604 H 0.39801 0.43491 0.71201 0.0
H605 H 0.3047 0.34763 0.85637 0.0
H606 H 0.2629 0.37054 0.83573 0.0
H607 H 0.28234 0.34677 0.79693 0.0
H608 H 0.16782 0.41527 0.75448 0.0
H609 H 0.22338 0.36279 0.65599 0.0
H610 H 0.28426 0.43555 0.79645 0.0
H611 H 0.25646 0.41401 0.83509 0.0
H612 H 0.21958 0.43674 0.8066 0.0
H613 H 0.34762 0.37031 0.67918 0.0
H614 H 0.30345 0.34879 0.65736 0.0
H615 H 0.32571 0.34664 0.71669 0.0
C616 C 0.19628 0.62961 0.31536 0.0
C617 C 0.16241 0.6457 0.29584 0.0
C618 C 0.2426 0.62692 0.29543 0.0
C619 C 0.25586 0.64162 0.25663 0.0
C620 C 0.22136 0.65776 0.23665 0.0
C621 C 0.17462 0.65921 0.25598 0.0
C622 C 0.27767 0.60882 0.31653 0.0
C623 C 0.23455 0.67444 0.19649 0.0
C624 C 0.38916 0.65739 0.24209 0.0
C625 C 0.40124 0.64403 0.20185 0.0
C626 C 0.34193 0.65671 0.26036 0.0
C627 C 0.30667 0.64146 0.23893 0.0
C628 C 0.31952 0.62705 0.19944 0.0
C629 C 0.36649 0.62898 0.1806 0.0
C630 C 0.32931 0.67308 0.30136 0.0
C631 C 0.28355 0.60984 0.17683 0.0
H632 H 0.18651 0.61919 0.34626 0.0
H633 H 0.14842 0.67194 0.24152 0.0
H634 H 0.2942 0.59736 0.28858 0.0
H635 H 0.30759 0.61872 0.33441 0.0
H636 H 0.25979 0.59667 0.34248 0.0
H637 H 0.20334 0.68575 0.18475 0.0
H638 H 0.26445 0.68683 0.20742 0.0
H639 H 0.24788 0.66361 0.1662 0.0
H640 H 0.41611 0.6693 0.25794 0.0
H641 H 0.37618 0.61865 0.14946 0.0
H642 H 0.31609 0.66198 0.33122 0.0
H643 H 0.29951 0.68568 0.29131 0.0
H644 H 0.36079 0.68414 0.31343 0.0
H645 H 0.26676 0.59794 0.20381 0.0
H646 H 0.30071 0.5981 0.14963 0.0
H647 H 0.25389 0.62044 0.1602 0.0
C648 C 0.09259 0.26705 0.75782 0.0
C649 C 0.08856 0.29251 0.76257 0.0
C650 C 0.09108 0.25167 0.79717 0.0
C651 C 0.0853 0.26199 0.84243 0.0
C652 C 0.08115 0.28766 0.84752 0.0
C653 C 0.08289 0.30259 0.80759 0.0
C654 C 0.09543 0.22438 0.79029 0.0
C655 C 0.07497 0.29936 0.89521 0.0
C656 C 0.03577 0.22234 0.94058 0.0
C657 C 0.07805 0.21651 0.96567 0.0
C658 C 0.03768 0.23694 0.90022 0.0
C659 C 0.08298 0.24593 0.88447 0.0
C660 C 0.12589 0.23992 0.90931 0.0
C661 C 0.1229 0.22532 0.94968 0.0
C662 C 0.99108 0.24306 0.87488 0.0
C663 C 0.1749 0.24907 0.89344 0.0
H664 H 0.09634 0.25907 0.72321 0.0
H665 H 0.08054 0.32223 0.81178 0.0
H666 H 0.12661 0.21726 0.81078 0.0
H667 H 0.06231 0.21517 0.80359 0.0
H668 H 0.10051 0.21927 0.75286 0.0
H669 H 0.07217 0.31959 0.89317 0.0
H670 H 0.04176 0.2922 0.91237 0.0
H671 H 0.10619 0.29461 0.91804 0.0
H672 H 1.00088 0.21595 0.95315 0.0
H673 H 0.15574 0.2207 0.96866 0.0
H674 H 0.99349 0.23726 0.83762 0.0
H675 H 0.9853 0.26313 0.87519 0.0
H676 H 0.95896 0.23413 0.89101 0.0
H677 H 0.18197 0.24307 0.85687 0.0
H678 H 0.20487 0.24242 0.91617 0.0
H679 H 0.17529 0.26936 0.89365 0.0
C680 C 0.45483 0.80628 0.44068 0.0
C681 C 0.49933 0.81488 0.45812 0.0
C682 C 0.45271 0.79209 0.3995 0.0
C683 C 0.49616 0.78624 0.37536 0.0
C684 C 0.5411 0.79509 0.39254 0.0
C685 C 0.54212 0.80929 0.43361 0.0
C686 C 0.40408 0.78311 0.38212 0.0
C687 C 0.58829 0.7891 0.3681 0.0
C688 C 0.49993 0.72964 0.29779 0.0
C689 C 0.49655 0.73969 0.25264 0.0
C690 C 0.49934 0.74455 0.33795 0.0
C691 C 0.49501 0.7702 0.33302 0.0
C692 C 0.49099 0.78049 0.28765 0.0
C693 C 0.49187 0.76512 0.24804 0.0
C694 C 0.50369 0.73284 0.3857 0.0
C695 C 0.48634 0.80776 0.28095 0.0
H696 H 0.4216 0.81069 0.45922 0.0
H697 H 0.57675 0.81548 0.44728 0.0
H698 H 0.3982 0.78907 0.34538 0.0
H699 H 0.40338 0.76283 0.38222 0.0
H700 H 0.37354 0.78992 0.404 0.0
H701 H 0.61998 0.79806 0.38507 0.0
H702 H 0.59422 0.76903 0.36824 0.0
H703 H 0.58667 0.79493 0.33089 0.0
H704 H 0.50251 0.71002 0.3019 0.0
H705 H 0.48966 0.77308 0.21337 0.0
H706 H 0.47186 0.73775 0.40761 0.0
H707 H 0.53648 0.73985 0.40394 0.0
H708 H 0.50618 0.71259 0.38356 0.0
H709 H 0.45475 0.8148 0.301 0.0
H710 H 0.48182 0.81281 0.24348 0.0
H711 H 0.51914 0.81707 0.29486 0.0
C712 C 0.06906 0.79447 0.04454 0.0
C713 C 0.05657 0.81935 0.04718 0.0
C714 C 0.07295 0.7801 0.08512 0.0
C715 C 0.06343 0.79069 0.12955 0.0
C716 C 0.05121 0.81579 0.13263 0.0
C717 C 0.04822 0.82983 0.0915 0.0
C718 C 0.08647 0.75345 0.08033 0.0
C719 C 0.04056 0.82772 0.17933 0.0
C720 C 0.02613 0.74728 0.22714 0.0
C721 C 0.0694 0.74497 0.25268 0.0
C722 C 0.02346 0.76241 0.1875 0.0
C723 C 0.06528 0.77532 0.17264 0.0
C724 C 0.10906 0.77311 0.19838 0.0
C725 C 0.11049 0.75808 0.23825 0.0
C726 C 0.97593 0.76449 0.16139 0.0
C727 C 0.15464 0.78624 0.18326 0.0
H728 H 0.07465 0.78597 0.01059 0.0
H729 H 0.03921 0.84907 0.0941 0.0
H730 H 0.11839 0.74927 0.10269 0.0
H731 H 0.05606 0.74183 0.09268 0.0
H732 H 0.09513 0.7483 0.04354 0.0
H733 H 0.03192 0.84747 0.17582 0.0
H734 H 0.00937 0.81845 0.19632 0.0
H735 H 0.07221 0.82574 0.2031 0.0
H736 H 0.9942 0.73736 0.23848 0.0
H737 H 0.14419 0.75607 0.25746 0.0
H738 H 0.98046 0.75788 0.12482 0.0
H739 H 0.96456 0.78393 0.15954 0.0
H740 H 0.94645 0.75379 0.17824 0.0
H741 H 0.16526 0.78008 0.14759 0.0
H742 H 0.1855 0.78294 0.20754 0.0
H743 H 0.1479 0.8062 0.18139 0.0
C744 C 0.4976 0.29764 0.70122 0.0
C745 C 0.49915 0.28735 0.74626 0.0
C746 C 0.49962 0.28287 0.66078 0.0
C747 C 0.50316 0.25715 0.6654 0.0
C748 C 0.50344 0.24661 0.71066 0.0
C749 C 0.50156 0.26178 0.75041 0.0
C750 C 0.4991 0.29482 0.61311 0.0
C751 C 0.50719 0.21927 0.71718 0.0
C752 C 0.4744 0.21585 0.56113 0.0
C753 C 0.52101 0.21012 0.54451 0.0
C754 C 0.46794 0.23127 0.6002 0.0
C755 C 0.50906 0.24129 0.62313 0.0
C756 C 0.55616 0.23567 0.60637 0.0
C757 C 0.56155 0.22017 0.56737 0.0
C758 C 0.41716 0.23671 0.61717 0.0
C759 C 0.60095 0.24606 0.62964 0.0
H760 H 0.49505 0.31729 0.69751 0.0
H761 H 0.50354 0.25355 0.78483 0.0
H762 H 0.53386 0.29111 0.59477 0.0
H763 H 0.46963 0.28696 0.59122 0.0
H764 H 0.4939 0.31493 0.61541 0.0
H765 H 0.50406 0.21385 0.75458 0.0
H766 H 0.47832 0.20985 0.69687 0.0
H767 H 0.54259 0.2127 0.70354 0.0
H768 H 0.44293 0.20805 0.54382 0.0
H769 H 0.59765 0.21627 0.55421 0.0
H770 H 0.4108 0.25674 0.61746 0.0
H771 H 0.41275 0.23019 0.65374 0.0
H772 H 0.38897 0.22791 0.59491 0.0
H773 H 0.5994 0.26633 0.62945 0.0
H774 H 0.63494 0.24015 0.61196 0.0
H775 H 0.60245 0.24022 0.66685 0.0
C776 C 0.58366 0.79568 0.80399 0.0
C777 C 0.58021 0.78563 0.75873 0.0
C778 C 0.58285 0.78071 0.84399 0.0
C779 C 0.57869 0.75504 0.83868 0.0
C780 C 0.57659 0.74472 0.79314 0.0
C781 C 0.57725 0.76011 0.75382 0.0
C782 C 0.58529 0.79241 0.89198 0.0
C783 C 0.57218 0.71745 0.78593 0.0
C784 C 0.61048 0.7138 0.94166 0.0
C785 C 0.56442 0.70845 0.95999 0.0
C786 C 0.61577 0.72891 0.90218 0.0
C787 C 0.57401 0.73903 0.88066 0.0
C788 C 0.52744 0.73366 0.89896 0.0
C789 C 0.52322 0.71844 0.9383 0.0
C790 C 0.666 0.73407 0.8835 0.0
C791 C 0.48202 0.74418 0.87721 0.0
H792 H 0.58673 0.81529 0.80824 0.0
H793 H 0.57387 0.75209 0.71922 0.0
H794 H 0.55116 0.78872 0.91138 0.0
H795 H 0.61543 0.78433 0.91261 0.0
H796 H 0.5907 0.81251 0.89013 0.0
H797 H 0.57404 0.7122 0.74829 0.0
H798 H 0.60151 0.7078 0.8051 0.0
H799 H 0.53712 0.71095 0.80041 0.0
H800 H 0.64243 0.70603 0.9581 0.0
H801 H 0.48757 0.71481 0.95278 0.0
H802 H 0.67299 0.75405 0.88384 0.0
H803 H 0.66871 0.72785 0.84651 0.0
H804 H 0.69477 0.72486 0.90429 0.0
H805 H 0.48366 0.76445 0.87797 0.0
H806 H 0.44854 0.73823 0.89566 0.0
H807 H 0.47939 0.73853 0.83989 0.0
C808 C 0.97615 0.31023 0.45497 0.0
C809 C 0.02271 0.31667 0.47078 0.0
C810 C 0.96986 0.29464 0.41611 0.0
C811 C 0.0111 0.28517 0.39262 0.0
C812 C 0.05817 0.29149 0.4086 0.0
C813 C 0.06338 0.30717 0.44738 0.0
C814 C 0.91909 0.28849 0.39994 0.0
C815 C 0.10309 0.28168 0.38472 0.0
C816 C 1.00052 0.22879 0.3144 0.0
C817 C 1.00049 0.23918 0.26942 0.0
C818 C 1.00297 0.24351 0.3549 0.0
C819 C 1.00529 0.26927 0.35038 0.0
C820 C 1.0041 0.2799 0.30521 0.0
C821 C 1.00188 0.26477 0.26541 0.0
C822 C 1.00407 0.23149 0.40249 0.0
C823 C 1.00649 0.30728 0.2988 0.0
H824 H 0.94456 0.3176 0.47273 0.0
H825 H 0.09947 0.31164 0.45993 0.0
H826 H 0.91366 0.29497 0.36346 0.0
H827 H 0.91386 0.26838 0.39967 0.0
H828 H 0.89083 0.29687 0.42266 0.0
H829 H 0.13705 0.28798 0.40199 0.0
H830 H 0.10254 0.26139 0.38481 0.0
H831 H 0.10374 0.28759 0.34752 0.0
H832 H 0.99882 0.20911 0.31803 0.0
H833 H 1.00271 0.2731 0.23105 0.0
H834 H 0.97455 0.23887 0.42489 0.0
H835 H 0.03893 0.2357 0.42029 0.0
H836 H 1.00003 0.21131 0.40015 0.0
H837 H 0.9775 0.31633 0.31954 0.0
H838 H 1.00253 0.31272 0.26147 0.0
H839 H 0.04178 0.31426 0.31202 0.0
C840 C 0.53561 0.30663 0.0737 0.0
C841 C 0.57816 0.31234 0.04897 0.0
C842 C 0.53703 0.29213 0.11422 0.0
C843 C 0.58213 0.28311 0.13055 0.0
C844 C 0.62531 0.28902 0.1061 0.0
C845 C 0.6228 0.30351 0.06553 0.0
C846 C 0.49014 0.2861 0.13907 0.0
C847 C 0.67411 0.27986 0.1226 0.0
C848 C 0.58997 0.26215 0.25746 0.0
C849 C 0.58603 0.23667 0.25281 0.0
C850 C 0.58908 0.27747 0.218 0.0
C851 C 0.5839 0.26711 0.17271 0.0
C852 C 0.57977 0.24143 0.1677 0.0
C853 C 0.58099 0.22655 0.20774 0.0
C854 C 0.59347 0.30477 0.22479 0.0
C855 C 0.57413 0.22967 0.12 0.0
H856 H 0.50088 0.31302 0.06069 0.0
H857 H 0.65584 0.30802 0.04682 0.0
H858 H 0.48427 0.26604 0.1388 0.0
H859 H 0.49217 0.29196 0.17632 0.0
H860 H 0.45824 0.29504 0.12253 0.0
H861 H 0.70436 0.2865 0.10024 0.0
H862 H 0.68075 0.28588 0.15925 0.0
H863 H 0.67449 0.25958 0.12243 0.0
H864 H 0.59324 0.27019 0.29207 0.0
H865 H 0.57873 0.20691 0.20355 0.0
H866 H 0.56054 0.314 0.21107 0.0
H867 H 0.62491 0.31183 0.20463 0.0
H868 H 0.59817 0.30992 0.26226 0.0
H869 H 0.5412 0.23686 0.10235 0.0
H870 H 0.57116 0.20945 0.1221 0.0
H871 H 0.60568 0.23433 0.09757 0.0
C872 C 0.05823 0.7187 0.57291 0.0
C873 C 0.01589 0.71185 0.54873 0.0
C874 C 0.05601 0.73325 0.61358 0.0
C875 C 0.01037 0.74125 0.63054 0.0
C876 C 0.96745 0.73409 0.60679 0.0
C877 C 0.97073 0.71948 0.56626 0.0
C878 C 0.10263 0.74051 0.63781 0.0
C879 C 0.91807 0.74217 0.6238 0.0
C880 C 0.99996 0.76332 0.757 0.0
C881 C 1.00102 0.78883 0.75169 0.0
C882 C 1.0032 0.74763 0.71798 0.0
C883 C 1.00756 0.75763 0.67242 0.0
C884 C 0.00895 0.78334 0.6668 0.0
C885 C 1.00568 0.7986 0.70642 0.0
C886 C 1.00187 0.72032 0.72551 0.0
C887 C 0.01343 0.79475 0.61882 0.0
H888 H 0.09335 0.71328 0.55928 0.0
H889 H 0.93781 0.71407 0.54814 0.0
H890 H 0.10696 0.76067 0.63665 0.0
H891 H 0.10138 0.73518 0.67531 0.0
H892 H 0.13502 0.73195 0.62136 0.0
H893 H 0.88815 0.73457 0.60205 0.0
H894 H 0.9126 0.73637 0.66068 0.0
H895 H 0.9157 0.76242 0.62314 0.0
H896 H 0.99705 0.75559 0.7918 0.0
H897 H 1.0058 0.81823 0.70178 0.0
H898 H 0.0354 0.71184 0.71131 0.0
H899 H 0.97076 0.71225 0.70617 0.0
H900 H 0.99856 0.71544 0.76317 0.0
H901 H 0.04683 0.7881 0.60119 0.0
H902 H 0.0147 0.81504 0.62045 0.0
H903 H 0.98217 0.78922 0.59663 0.0
loop_
_geom_bond_atom_site_label_1
_geom_bond_atom_site_label_2
_geom_bond_distance
_geom_bond_site_symmetry_2
_ccdc_geom_bond_type
Co0 N4 2.148 . S
Co0 N10 2.128 . S
Co0 N20 2.194 . S
Co0 O25 2.351 1_455 S
Co0 O26 2.155 1_455 S
Co0 O27 2.096 . S
C1 N4 1.301 1_655 S
C1 N5 1.328 1_655 S
C1 H6 0.930 . S
C2 C3 1.333 . S
C2 N4 1.317 . S
C2 H7 0.930 . S
C3 C2 1.333 . S
C3 N5 1.350 . S
C3 H29 0.931 . S
N4 Co0 2.148 . S
N4 C1 1.301 1_455 S
N4 C2 1.317 . S
N5 C1 1.328 1_455 S
N5 C3 1.350 . S
H6 C1 0.930 . S
H7 C2 0.930 . S
C8 O9 1.224 . S
C8 O27 1.247 . S
O9 C8 1.224 . S
N10 Co0 2.128 . S
N10 C11 1.355 1_455 S
N10 C13 1.311 . S
C11 N10 1.355 1_655 S
C11 C12 1.363 . S
C11 H23 0.929 . S
C12 C11 1.363 . S
C12 N14 1.375 1_655 S
C12 H30 0.931 . S
C13 N10 1.311 . S
C13 N14 1.347 . S
C13 H24 0.929 . S
N14 C12 1.375 1_455 S
N14 C13 1.347 . S
C15 C18 1.365 . S
C15 N20 1.328 1_655 S
C15 H21 0.929 . S
C16 C17 1.362 . S
C16 C19 1.378 . S
C16 H31 0.929 . S
C17 C16 1.362 . S
C17 C18 1.366 1_455 S
C18 C15 1.365 . S
C18 C17 1.366 1_655 S
C18 H32 0.930 . S
C19 C16 1.378 . S
C19 N20 1.315 . S
C19 H22 0.930 . S
N20 Co0 2.194 . S
N20 C15 1.328 1_455 S
N20 C19 1.315 . S
H21 C15 0.929 . S
H22 C19 0.930 . S
H23 C11 0.929 . S
H24 C13 0.929 . S
O25 Co0 2.351 1_655 S
O25 C28 1.244 . S
O26 Co0 2.155 1_655 S
O26 C28 1.240 . S
O27 Co0 2.096 . S
O27 C8 1.247 . S
C28 O25 1.244 . S
C28 O26 1.240 . S
H29 C3 0.931 . S
H30 C12 0.931 . S
H31 C16 0.929 . S
H32 C18 0.930 . S
Co33 N37 2.148 . S
Co33 N43 2.128 . S
Co33 N53 2.194 . S
Co33 O58 2.351 . S
Co33 O59 2.155 . S
Co33 O60 2.096 . S
C34 N37 1.301 . S
C34 N38 1.328 . S
C34 H39 0.930 . S
C35 C36 1.333 . S
C35 N37 1.317 . S
C35 H40 0.930 . S
C36 C35 1.333 . S
C36 N38 1.350 . S
C36 H62 0.931 . S
N37 Co33 2.148 . S
N37 C34 1.301 . S
N37 C35 1.317 . S
N38 C34 1.328 . S
N38 C36 1.350 . S
H39 C34 0.930 . S
H40 C35 0.930 . S
C41 O42 1.224 . S
C41 O60 1.247 . S
O42 C41 1.224 . S
N43 Co33 2.128 . S
N43 C44 1.355 . S
N43 C46 1.311 . S
C44 N43 1.355 . S
C44 C45 1.363 . S
C44 H56 0.929 . S
C45 C44 1.363 . S
C45 N47 1.375 . S
C45 H63 0.931 . S
C46 N43 1.311 . S
C46 N47 1.347 . S
C46 H57 0.929 . S
N47 C45 1.375 . S
N47 C46 1.347 . S
C48 C51 1.365 . S
C48 N53 1.328 . S
C48 H54 0.929 . S
C49 C50 1.362 . S
C49 C52 1.378 . S
C49 H64 0.929 . S
C50 C49 1.362 . S
C50 C51 1.366 . S
C51 C48 1.365 . S
C51 C50 1.366 . S
C51 H65 0.930 . S
C52 C49 1.378 . S
C52 N53 1.315 . S
C52 H55 0.930 . S
N53 Co33 2.194 . S
N53 C48 1.328 . S
N53 C52 1.315 . S
H54 C48 0.929 . S
H55 C52 0.930 . S
H56 C44 0.929 . S
H57 C46 0.929 . S
O58 Co33 2.351 . S
O58 C61 1.244 . S
O59 Co33 2.155 . S
O59 C61 1.240 . S
O60 Co33 2.096 . S
O60 C41 1.247 . S
C61 O58 1.244 . S
C61 O59 1.240 . S
H62 C36 0.931 . S
H63 C45 0.931 . S
H64 C49 0.929 . S
H65 C51 0.930 . S
Co66 N70 2.148 . S
Co66 N76 2.128 . S
Co66 N86 2.194 . S
Co66 O91 2.351 1_455 S
Co66 O92 2.155 1_455 S
Co66 O93 2.096 . S
C67 N70 1.301 1_655 S
C67 N71 1.328 1_655 S
C67 H72 0.930 . S
C68 C69 1.333 . S
C68 N70 1.317 . S
C68 H73 0.930 . S
C69 C68 1.333 . S
C69 N71 1.350 . S
C69 H95 0.931 . S
N70 Co66 2.148 . S
N70 C67 1.301 1_455 S
N70 C68 1.317 . S
N71 C67 1.328 1_455 S
N71 C69 1.350 . S
H72 C67 0.930 . S
H73 C68 0.930 . S
C74 O75 1.224 . S
C74 O93 1.247 . S
O75 C74 1.224 . S
N76 Co66 2.128 . S
N76 C77 1.355 1_455 S
N76 C79 1.311 . S
C77 N76 1.355 1_655 S
C77 C78 1.363 . S
C77 H89 0.929 . S
C78 C77 1.363 . S
C78 N80 1.375 1_655 S
C78 H96 0.931 . S
C79 N76 1.311 . S
C79 N80 1.347 . S
C79 H90 0.929 . S
N80 C78 1.375 1_455 S
N80 C79 1.347 . S
C81 C84 1.365 . S
C81 N86 1.328 1_655 S
C81 H87 0.929 . S
C82 C83 1.362 . S
C82 C85 1.378 . S
C82 H97 0.929 . S
C83 C82 1.362 . S
C83 C84 1.366 1_455 S
C84 C81 1.365 . S
C84 C83 1.366 1_655 S
C84 H98 0.930 . S
C85 C82 1.378 . S
C85 N86 1.315 . S
C85 H88 0.930 . S
N86 Co66 2.194 . S
N86 C81 1.328 1_455 S
N86 C85 1.315 . S
H87 C81 0.929 . S
H88 C85 0.930 . S
H89 C77 0.929 . S
H90 C79 0.929 . S
O91 Co66 2.351 1_655 S
O91 C94 1.244 . S
O92 Co66 2.155 1_655 S
O92 C94 1.240 . S
O93 Co66 2.096 . S
O93 C74 1.247 . S
C94 O91 1.244 . S
C94 O92 1.240 . S
H95 C69 0.931 . S
H96 C78 0.931 . S
H97 C82 0.929 . S
H98 C84 0.930 . S
Co99 N103 2.148 . S
Co99 N109 2.128 . S
Co99 N119 2.194 . S
Co99 O124 2.351 . S
Co99 O125 2.155 . S
Co99 O126 2.096 . S
C100 N103 1.301 . S
C100 N104 1.328 . S
C100 H105 0.930 . S
C101 C102 1.333 . S
C101 N103 1.317 . S
C101 H106 0.930 . S
C102 C101 1.333 . S
C102 N104 1.350 . S
C102 H128 0.931 . S
N103 Co99 2.148 . S
N103 C100 1.301 . S
N103 C101 1.317 . S
N104 C100 1.328 . S
N104 C102 1.350 . S
H105 C100 0.930 . S
H106 C101 0.930 . S
C107 O108 1.224 . S
C107 O126 1.247 . S
O108 C107 1.224 . S
N109 Co99 2.128 . S
N109 C110 1.355 . S
N109 C112 1.311 . S
C110 N109 1.355 . S
C110 C111 1.363 . S
C110 H122 0.929 . S
C111 C110 1.363 . S
C111 N113 1.375 . S
C111 H129 0.931 . S
C112 N109 1.311 . S
C112 N113 1.347 . S
C112 H123 0.929 . S
N113 C111 1.375 . S
N113 C112 1.347 . S
C114 C117 1.365 . S
C114 N119 1.328 . S
C114 H120 0.929 . S
C115 C116 1.362 . S
C115 C118 1.378 . S
C115 H130 0.929 . S
C116 C115 1.362 . S
C116 C117 1.366 . S
C117 C114 1.365 . S
C117 C116 1.366 . S
C117 H131 0.930 . S
C118 C115 1.378 . S
C118 N119 1.315 . S
C118 H121 0.930 . S
N119 Co99 2.194 . S
N119 C114 1.328 . S
N119 C118 1.315 . S
H120 C114 0.929 . S
H121 C118 0.930 . S
H122 C110 0.929 . S
H123 C112 0.929 . S
O124 Co99 2.351 . S
O124 C127 1.244 . S
O125 Co99 2.155 . S
O125 C127 1.240 . S
O126 Co99 2.096 . S
O126 C107 1.247 . S
C127 O124 1.244 . S
C127 O125 1.240 . S
H128 C102 0.931 . S
H129 C111 0.931 . S
H130 C115 0.929 . S
H131 C117 0.930 . S
Co132 N136 2.148 . S
Co132 N142 2.128 . S
Co132 N152 2.194 . S
Co132 O157 2.351 . S
Co132 O158 2.155 . S
Co132 O159 2.096 . S
C133 N136 1.301 . S
C133 N137 1.328 . S
C133 H138 0.930 . S
C134 C135 1.333 . S
C134 N136 1.317 . S
C134 H139 0.930 . S
C135 C134 1.333 . S
C135 N137 1.350 . S
C135 H161 0.931 . S
N136 Co132 2.148 . S
N136 C133 1.301 . S
N136 C134 1.317 . S
N137 C133 1.328 . S
N137 C135 1.350 . S
H138 C133 0.930 . S
H139 C134 0.930 . S
C140 O141 1.224 . S
C140 O159 1.247 . S
O141 C140 1.224 . S
N142 Co132 2.128 . S
N142 C143 1.355 . S
N142 C145 1.311 . S
C143 N142 1.355 . S
C143 C144 1.363 . S
C143 H155 0.929 . S
C144 C143 1.363 . S
C144 N146 1.375 . S
C144 H162 0.931 . S
C145 N142 1.311 . S
C145 N146 1.347 . S
C145 H156 0.929 . S
N146 C144 1.375 . S
N146 C145 1.347 . S
C147 C150 1.365 . S
C147 N152 1.328 . S
C147 H153 0.929 . S
C148 C149 1.362 . S
C148 C151 1.378 . S
C148 H163 0.929 . S
C149 C148 1.362 . S
C149 C150 1.366 . S
C150 C147 1.365 . S
C150 C149 1.366 . S
C150 H164 0.930 . S
C151 C148 1.378 . S
C151 N152 1.315 . S
C151 H154 0.930 . S
N152 Co132 2.194 . S
N152 C147 1.328 . S
N152 C151 1.315 . S
H153 C147 0.929 . S
H154 C151 0.930 . S
H155 C143 0.929 . S
H156 C145 0.929 . S
O157 Co132 2.351 . S
O157 C160 1.244 . S
O158 Co132 2.155 . S
O158 C160 1.240 . S
O159 Co132 2.096 . S
O159 C140 1.247 . S
C160 O157 1.244 . S
C160 O158 1.240 . S
H161 C135 0.931 . S
H162 C144 0.931 . S
H163 C148 0.929 . S
H164 C150 0.930 . S
Co165 N169 2.148 . S
Co165 N175 2.128 . S
Co165 N185 2.194 . S
Co165 O190 2.351 . S
Co165 O191 2.155 . S
Co165 O192 2.096 1_455 S
C166 N169 1.301 . S
C166 N170 1.328 . S
C166 H171 0.930 . S
C167 C168 1.333 . S
C167 N169 1.317 . S
C167 H172 0.930 1_455 S
C168 C167 1.333 . S
C168 N170 1.350 . S
C168 H194 0.931 1_455 S
N169 Co165 2.148 . S
N169 C166 1.301 . S
N169 C167 1.317 . S
N170 C166 1.328 . S
N170 C168 1.350 . S
H171 C166 0.930 . S
H172 C167 0.930 1_655 S
C173 O174 1.224 . S
C173 O192 1.247 . S
O174 C173 1.224 . S
N175 Co165 2.128 . S
N175 C176 1.355 . S
N175 C178 1.311 . S
C176 N175 1.355 . S
C176 C177 1.363 . S
C176 H188 0.929 . S
C177 C176 1.363 . S
C177 N179 1.375 . S
C177 H195 0.931 . S
C178 N175 1.311 . S
C178 N179 1.347 . S
C178 H189 0.929 . S
N179 C177 1.375 . S
N179 C178 1.347 . S
C180 C183 1.365 . S
C180 N185 1.328 . S
C180 H186 0.929 . S
C181 C182 1.362 . S
C181 C184 1.378 . S
C181 H196 0.929 1_455 S
C182 C181 1.362 . S
C182 C183 1.366 . S
C183 C180 1.365 . S
C183 C182 1.366 . S
C183 H197 0.930 . S
C184 C181 1.378 . S
C184 N185 1.315 . S
C184 H187 0.930 1_455 S
N185 Co165 2.194 . S
N185 C180 1.328 . S
N185 C184 1.315 . S
H186 C180 0.929 . S
H187 C184 0.930 1_655 S
H188 C176 0.929 . S
H189 C178 0.929 . S
O190 Co165 2.351 . S
O190 C193 1.244 . S
O191 Co165 2.155 . S
O191 C193 1.240 . S
O192 Co165 2.096 1_655 S
O192 C173 1.247 . S
C193 O190 1.244 . S
C193 O191 1.240 . S
H194 C168 0.931 1_655 S
H195 C177 0.931 . S
H196 C181 0.929 1_655 S
H197 C183 0.930 . S
Co198 N202 2.148 . S
Co198 N208 2.128 . S
Co198 N218 2.194 . S
Co198 O223 2.351 . S
Co198 O224 2.155 . S
Co198 O225 2.096 . S
C199 N202 1.301 . S
C199 N203 1.328 . S
C199 H204 0.930 . S
C200 C201 1.333 . S
C200 N202 1.317 . S
C200 H205 0.930 . S
C201 C200 1.333 . S
C201 N203 1.350 . S
C201 H227 0.931 . S
N202 Co198 2.148 . S
N202 C199 1.301 . S
N202 C200 1.317 . S
N203 C199 1.328 . S
N203 C201 1.350 . S
H204 C199 0.930 . S
H205 C200 0.930 . S
C206 O207 1.224 . S
C206 O225 1.247 . S
O207 C206 1.224 . S
N208 Co198 2.128 . S
N208 C209 1.355 . S
N208 C211 1.311 . S
C209 N208 1.355 . S
C209 C210 1.363 . S
C209 H221 0.929 . S
C210 C209 1.363 . S
C210 N212 1.375 . S
C210 H228 0.931 . S
C211 N208 1.311 . S
C211 N212 1.347 . S
C211 H222 0.929 . S
N212 C210 1.375 . S
N212 C211 1.347 . S
C213 C216 1.365 . S
C213 N218 1.328 . S
C213 H219 0.929 . S
C214 C215 1.362 . S
C214 C217 1.378 . S
C214 H229 0.929 . S
C215 C214 1.362 . S
C215 C216 1.366 . S
C216 C213 1.365 . S
C216 C215 1.366 . S
C216 H230 0.930 . S
C217 C214 1.378 . S
C217 N218 1.315 . S
C217 H220 0.930 . S
N218 Co198 2.194 . S
N218 C213 1.328 . S
N218 C217 1.315 . S
H219 C213 0.929 . S
H220 C217 0.930 . S
H221 C209 0.929 . S
H222 C211 0.929 . S
O223 Co198 2.351 . S
O223 C226 1.244 . S
O224 Co198 2.155 . S
O224 C226 1.240 . S
O225 Co198 2.096 . S
O225 C206 1.247 . S
C226 O223 1.244 . S
C226 O224 1.240 . S
H227 C201 0.931 . S
H228 C210 0.931 . S
H229 C214 0.929 . S
H230 C216 0.930 . S
Co231 N235 2.148 . S
Co231 N241 2.128 . S
Co231 N251 2.194 . S
Co231 O256 2.351 . S
Co231 O257 2.155 . S
Co231 O258 2.096 1_455 S
C232 N235 1.301 . S
C232 N236 1.328 . S
C232 H237 0.930 . S
C233 C234 1.333 . S
C233 N235 1.317 . S
C233 H238 0.930 1_455 S
C234 C233 1.333 . S
C234 N236 1.350 . S
C234 H260 0.931 1_455 S
N235 Co231 2.148 . S
N235 C232 1.301 . S
N235 C233 1.317 . S
N236 C232 1.328 . S
N236 C234 1.350 . S
H237 C232 0.930 . S
H238 C233 0.930 1_655 S
C239 O240 1.224 . S
C239 O258 1.247 . S
O240 C239 1.224 . S
N241 Co231 2.128 . S
N241 C242 1.355 . S
N241 C244 1.311 . S
C242 N241 1.355 . S
C242 C243 1.363 . S
C242 H254 0.929 . S
C243 C242 1.363 . S
C243 N245 1.375 . S
C243 H261 0.931 . S
C244 N241 1.311 . S
C244 N245 1.347 . S
C244 H255 0.929 . S
N245 C243 1.375 . S
N245 C244 1.347 . S
C246 C249 1.365 . S
C246 N251 1.328 . S
C246 H252 0.929 . S
C247 C248 1.362 . S
C247 C250 1.378 . S
C247 H262 0.929 1_455 S
C248 C247 1.362 . S
C248 C249 1.366 . S
C249 C246 1.365 . S
C249 C248 1.366 . S
C249 H263 0.930 . S
C250 C247 1.378 . S
C250 N251 1.315 . S
C250 H253 0.930 1_455 S
N251 Co231 2.194 . S
N251 C246 1.328 . S
N251 C250 1.315 . S
H252 C246 0.929 . S
H253 C250 0.930 1_655 S
H254 C242 0.929 . S
H255 C244 0.929 . S
O256 Co231 2.351 . S
O256 C259 1.244 . S
O257 Co231 2.155 . S
O257 C259 1.240 . S
O258 Co231 2.096 1_655 S
O258 C239 1.247 . S
C259 O256 1.244 . S
C259 O257 1.240 . S
H260 C234 0.931 1_655 S
H261 C243 0.931 . S
H262 C247 0.929 1_655 S
H263 C249 0.930 . S
C264 C265 1.391 1_655 S
C264 C266 1.394 1_556 S
C264 H280 0.931 1_556 S
C265 C264 1.391 1_455 S
C265 C269 1.376 . S
C266 C264 1.394 1_554 S
C266 C267 1.369 1_654 S
C266 C270 1.531 . S
C267 C266 1.369 1_456 S
C267 C268 1.410 . S
C267 C275 1.503 1_566 S
C268 C267 1.410 . S
C268 C269 1.392 . S
C268 C271 1.511 1_565 S
C269 C265 1.376 . S
C269 C268 1.392 . S
C269 H281 0.929 . S
C270 C266 1.531 . S
C270 H282 0.960 . S
C270 H283 0.962 . S
C270 H284 0.960 . S
C271 C268 1.511 1_545 S
C271 H285 0.961 1_545 S
C271 H286 0.961 . S
C271 H287 0.961 . S
C272 C273 1.370 1_655 S
C272 C274 1.362 1_554 S
C272 H288 0.931 . S
C273 C272 1.370 1_455 S
C273 C277 1.408 . S
C274 C272 1.362 1_556 S
C274 C275 1.370 1_656 S
C274 C278 1.526 . S
C275 C267 1.503 1_544 S
C275 C274 1.370 1_454 S
C275 C276 1.403 . S
C276 C275 1.403 . S
C276 C277 1.404 . S
C276 C279 1.539 . S
C277 C273 1.408 . S
C277 C276 1.404 . S
C277 H289 0.930 . S
C278 C274 1.526 . S
C278 H290 0.956 . S
C278 H291 0.961 . S
C278 H292 0.961 . S
C279 C276 1.539 . S
C279 H293 0.958 1_545 S
C279 H294 0.961 . S
C279 H295 0.960 1_545 S
H280 C264 0.931 1_554 S
H281 C269 0.929 . S
H282 C270 0.960 . S
H283 C270 0.962 . S
H284 C270 0.960 . S
H285 C271 0.961 1_565 S
H286 C271 0.961 . S
H287 C271 0.961 . S
H288 C272 0.931 . S
H289 C277 0.930 . S
H290 C278 0.956 . S
H291 C278 0.961 . S
H292 C278 0.961 . S
H293 C279 0.958 1_565 S
H294 C279 0.961 . S
H295 C279 0.960 1_565 S
C296 C297 1.391 . S
C296 C298 1.394 . S
C296 H312 0.931 . S
C297 C296 1.391 . S
C297 C301 1.376 . S
C298 C296 1.394 . S
C298 C299 1.369 . S
C298 C302 1.531 . S
C299 C298 1.369 . S
C299 C300 1.410 . S
C299 C307 1.503 1_545 S
C300 C299 1.410 . S
C300 C301 1.392 . S
C300 C303 1.511 . S
C301 C297 1.376 . S
C301 C300 1.392 . S
C301 H313 0.929 . S
C302 C298 1.531 . S
C302 H314 0.960 . S
C302 H315 0.962 . S
C302 H316 0.960 . S
C303 C300 1.511 . S
C303 H317 0.961 . S
C303 H318 0.961 1_545 S
C303 H319 0.961 . S
C304 C305 1.370 . S
C304 C306 1.363 . S
C304 H320 0.931 . S
C305 C304 1.370 . S
C305 C309 1.408 . S
C306 C304 1.363 . S
C306 C307 1.370 . S
C306 C310 1.524 . S
C307 C299 1.503 1_565 S
C307 C306 1.370 . S
C307 C308 1.403 . S
C308 C307 1.403 . S
C308 C309 1.404 . S
C308 C311 1.539 1_565 S
C309 C305 1.408 . S
C309 C308 1.404 . S
C309 H321 0.930 . S
C310 C306 1.524 . S
C310 H322 0.956 . S
C310 H323 0.961 . S
C310 H324 0.961 . S
C311 C308 1.539 1_545 S
C311 H325 0.958 . S
C311 H326 0.961 1_545 S
C311 H327 0.960 . S
H312 C296 0.931 . S
H313 C301 0.929 . S
H314 C302 0.960 . S
H315 C302 0.962 . S
H316 C302 0.960 . S
H317 C303 0.961 . S
H318 C303 0.961 1_565 S
H319 C303 0.961 . S
H320 C304 0.931 . S
H321 C309 0.930 . S
H322 C310 0.956 . S
H323 C310 0.961 . S
H324 C310 0.961 . S
H325 C311 0.958 . S
H326 C311 0.961 1_565 S
H327 C311 0.960 . S
C328 C329 1.391 . S
C328 C330 1.394 . S
C328 H344 0.931 . S
C329 C328 1.391 . S
C329 C333 1.376 . S
C330 C328 1.394 . S
C330 C331 1.369 . S
C330 C334 1.531 . S
C331 C330 1.369 . S
C331 C332 1.410 . S
C331 C339 1.503 1_554 S
C332 C331 1.410 . S
C332 C333 1.392 . S
C332 C335 1.511 1_554 S
C333 C329 1.376 . S
C333 C332 1.392 . S
C333 H345 0.929 . S
C334 C330 1.531 . S
C334 H346 0.960 . S
C334 H347 0.962 . S
C334 H348 0.960 . S
C335 C332 1.511 1_556 S
C335 H349 0.961 . S
C335 H350 0.961 . S
C335 H351 0.961 1_556 S
C336 C337 1.370 . S
C336 C338 1.363 . S
C336 H352 0.931 . S
C337 C336 1.370 . S
C337 C341 1.408 . S
C338 C336 1.363 . S
C338 C339 1.370 . S
C338 C342 1.524 . S
C339 C331 1.503 1_556 S
C339 C338 1.370 . S
C339 C340 1.403 1_556 S
C340 C339 1.403 1_554 S
C340 C341 1.404 1_554 S
C340 C343 1.539 . S
C341 C337 1.408 . S
C341 C340 1.404 1_556 S
C341 H353 0.930 1_556 S
C342 C338 1.524 . S
C342 H354 0.956 . S
C342 H355 0.961 . S
C342 H356 0.961 . S
C343 C340 1.539 . S
C343 H357 0.958 . S
C343 H358 0.961 . S
C343 H359 0.960 . S
H344 C328 0.931 . S
H345 C333 0.929 . S
H346 C334 0.960 . S
H347 C334 0.962 . S
H348 C334 0.960 . S
H349 C335 0.961 . S
H350 C335 0.961 . S
H351 C335 0.961 1_554 S
H352 C336 0.931 . S
H353 C341 0.930 1_554 S
H354 C342 0.956 . S
H355 C342 0.961 . S
H356 C342 0.961 . S
H357 C343 0.958 . S
H358 C343 0.961 . S
H359 C343 0.960 . S
C360 C361 1.391 . S
C360 C362 1.394 . S
C360 H376 0.931 . S
C361 C360 1.391 . S
C361 C365 1.376 . S
C362 C360 1.394 . S
C362 C363 1.369 . S
C362 C366 1.531 . S
C363 C362 1.369 . S
C363 C364 1.410 . S
C363 C371 1.503 . S
C364 C363 1.410 . S
C364 C365 1.392 . S
C364 C367 1.511 . S
C365 C361 1.376 . S
C365 C364 1.392 . S
C365 H377 0.929 . S
C366 C362 1.531 . S
C366 H378 0.960 . S
C366 H379 0.962 1_455 S
C366 H380 0.960 1_455 S
C367 C364 1.511 . S
C367 H381 0.961 . S
C367 H382 0.961 . S
C367 H383 0.961 . S
C368 C369 1.370 . S
C368 C370 1.363 . S
C368 H384 0.931 . S
C369 C368 1.370 . S
C369 C373 1.408 . S
C370 C368 1.363 . S
C370 C371 1.370 . S
C370 C374 1.524 . S
C371 C363 1.503 . S
C371 C370 1.370 . S
C371 C372 1.403 . S
C372 C371 1.403 . S
C372 C373 1.404 . S
C372 C375 1.539 . S
C373 C369 1.408 . S
C373 C372 1.404 . S
C373 H385 0.930 . S
C374 C370 1.524 . S
C374 H386 0.956 1_455 S
C374 H387 0.961 . S
C374 H388 0.961 1_455 S
C375 C372 1.539 . S
C375 H389 0.958 . S
C375 H390 0.961 . S
C375 H391 0.960 . S
H376 C360 0.931 . S
H377 C365 0.929 . S
H378 C366 0.960 . S
H379 C366 0.962 1_655 S
H380 C366 0.960 1_655 S
H381 C367 0.961 . S
H382 C367 0.961 . S
H383 C367 0.961 . S
H384 C368 0.931 . S
H385 C373 0.930 . S
H386 C374 0.956 1_655 S
H387 C374 0.961 . S
H388 C374 0.961 1_655 S
H389 C375 0.958 . S
H390 C375 0.961 . S
H391 C375 0.960 . S
C392 C393 1.391 . S
C392 C394 1.394 . S
C392 H408 0.931 . S
C393 C392 1.391 . S
C393 C397 1.376 . S
C394 C392 1.394 . S
C394 C395 1.369 . S
C394 C398 1.531 . S
C395 C394 1.369 . S
C395 C396 1.410 . S
C395 C403 1.503 . S
C396 C395 1.410 . S
C396 C397 1.392 . S
C396 C399 1.511 . S
C397 C393 1.376 . S
C397 C396 1.392 . S
C397 H409 0.929 . S
C398 C394 1.531 . S
C398 H410 0.960 . S
C398 H411 0.962 . S
C398 H412 0.960 . S
C399 C396 1.511 . S
C399 H413 0.961 . S
C399 H414 0.961 . S
C399 H415 0.961 . S
C400 C401 1.370 . S
C400 C402 1.363 . S
C400 H416 0.931 . S
C401 C400 1.370 . S
C401 C405 1.408 . S
C402 C400 1.363 . S
C402 C403 1.370 . S
C402 C406 1.524 . S
C403 C395 1.503 . S
C403 C402 1.370 . S
C403 C404 1.403 . S
C404 C403 1.403 . S
C404 C405 1.404 . S
C404 C407 1.539 . S
C405 C401 1.408 . S
C405 C404 1.404 . S
C405 H417 0.930 . S
C406 C402 1.524 . S
C406 H418 0.956 . S
C406 H419 0.961 . S
C406 H420 0.961 . S
C407 C404 1.539 . S
C407 H421 0.958 . S
C407 H422 0.961 . S
C407 H423 0.960 . S
H408 C392 0.931 . S
H409 C397 0.929 . S
H410 C398 0.960 . S
H411 C398 0.962 . S
H412 C398 0.960 . S
H413 C399 0.961 . S
H414 C399 0.961 . S
H415 C399 0.961 . S
H416 C400 0.931 . S
H417 C405 0.930 . S
H418 C406 0.956 . S
H419 C406 0.961 . S
H420 C406 0.961 . S
H421 C407 0.958 . S
H422 C407 0.961 . S
H423 C407 0.960 . S
C424 C425 1.391 . S
C424 C426 1.394 . S
C424 H440 0.931 . S
C425 C424 1.391 . S
C425 C429 1.376 . S
C426 C424 1.394 . S
C426 C427 1.369 . S
C426 C430 1.531 . S
C427 C426 1.369 . S
C427 C428 1.410 . S
C427 C435 1.503 . S
C428 C427 1.410 . S
C428 C429 1.392 . S
C428 C431 1.511 . S
C429 C425 1.376 . S
C429 C428 1.392 . S
C429 H441 0.929 . S
C430 C426 1.531 . S
C430 H442 0.960 . S
C430 H443 0.962 . S
C430 H444 0.960 . S
C431 C428 1.511 . S
C431 H445 0.961 . S
C431 H446 0.961 . S
C431 H447 0.961 . S
C432 C433 1.370 . S
C432 C434 1.363 . S
C432 H448 0.931 . S
C433 C432 1.370 . S
C433 C437 1.408 . S
C434 C432 1.363 . S
C434 C435 1.370 . S
C434 C438 1.524 . S
C435 C427 1.503 . S
C435 C434 1.370 . S
C435 C436 1.403 . S
C436 C435 1.403 . S
C436 C437 1.404 . S
C436 C439 1.539 . S
C437 C433 1.408 . S
C437 C436 1.404 . S
C437 H449 0.930 . S
C438 C434 1.524 . S
C438 H450 0.956 . S
C438 H451 0.961 . S
C438 H452 0.961 . S
C439 C436 1.539 . S
C439 H453 0.958 . S
C439 H454 0.961 . S
C439 H455 0.960 . S
H440 C424 0.931 . S
H441 C429 0.929 . S
H442 C430 0.960 . S
H443 C430 0.962 . S
H444 C430 0.960 . S
H445 C431 0.961 . S
H446 C431 0.961 . S
H447 C431 0.961 . S
H448 C432 0.931 . S
H449 C437 0.930 . S
H450 C438 0.956 . S
H451 C438 0.961 . S
H452 C438 0.961 . S
H453 C439 0.958 . S
H454 C439 0.961 . S
H455 C439 0.960 . S
C456 C457 1.391 . S
C456 C458 1.394 . S
C456 H472 0.931 . S
C457 C456 1.391 . S
C457 C461 1.376 . S
C458 C456 1.394 . S
C458 C459 1.369 . S
C458 C462 1.531 . S
C459 C458 1.369 . S
C459 C460 1.410 . S
C459 C467 1.503 . S
C460 C459 1.410 . S
C460 C461 1.392 . S
C460 C463 1.511 . S
C461 C457 1.376 . S
C461 C460 1.392 . S
C461 H473 0.929 . S
C462 C458 1.531 . S
C462 H474 0.960 . S
C462 H475 0.962 . S
C462 H476 0.960 . S
C463 C460 1.511 . S
C463 H477 0.961 . S
C463 H478 0.961 . S
C463 H479 0.961 . S
C464 C465 1.370 . S
C464 C466 1.363 . S
C464 H480 0.931 . S
C465 C464 1.370 . S
C465 C469 1.408 . S
C466 C464 1.363 . S
C466 C467 1.370 . S
C466 C470 1.524 . S
C467 C459 1.503 . S
C467 C466 1.370 . S
C467 C468 1.403 . S
C468 C467 1.403 . S
C468 C469 1.404 . S
C468 C471 1.539 . S
C469 C465 1.408 . S
C469 C468 1.404 . S
C469 H481 0.930 . S
C470 C466 1.524 . S
C470 H482 0.956 . S
C470 H483 0.961 . S
C470 H484 0.961 . S
C471 C468 1.539 . S
C471 H485 0.958 . S
C471 H486 0.961 . S
C471 H487 0.960 . S
H472 C456 0.931 . S
H473 C461 0.929 . S
H474 C462 0.960 . S
H475 C462 0.962 . S
H476 C462 0.960 . S
H477 C463 0.961 . S
H478 C463 0.961 . S
H479 C463 0.961 . S
H480 C464 0.931 . S
H481 C469 0.930 . S
H482 C470 0.956 . S
H483 C470 0.961 . S
H484 C470 0.961 . S
H485 C471 0.958 . S
H486 C471 0.961 . S
H487 C471 0.960 . S
C488 C489 1.391 . S
C488 C490 1.394 . S
C488 H504 0.931 . S
C489 C488 1.391 . S
C489 C493 1.376 . S
C490 C488 1.394 . S
C490 C491 1.369 . S
C490 C494 1.531 . S
C491 C490 1.369 . S
C491 C492 1.410 . S
C491 C499 1.503 . S
C492 C491 1.410 . S
C492 C493 1.392 . S
C492 C495 1.511 . S
C493 C489 1.376 . S
C493 C492 1.392 . S
C493 H505 0.929 . S
C494 C490 1.531 . S
C494 H506 0.960 . S
C494 H507 0.962 . S
C494 H508 0.960 . S
C495 C492 1.511 . S
C495 H509 0.961 . S
C495 H510 0.961 . S
C495 H511 0.961 . S
C496 C497 1.370 . S
C496 C498 1.363 . S
C496 H512 0.931 . S
C497 C496 1.370 . S
C497 C501 1.408 . S
C498 C496 1.363 . S
C498 C499 1.370 . S
C498 C502 1.524 . S
C499 C491 1.503 . S
C499 C498 1.370 . S
C499 C500 1.403 . S
C500 C499 1.403 . S
C500 C501 1.404 . S
C500 C503 1.539 . S
C501 C497 1.408 . S
C501 C500 1.404 . S
C501 H513 0.930 . S
C502 C498 1.524 . S
C502 H514 0.956 . S
C502 H515 0.961 . S
C502 H516 0.961 . S
C503 C500 1.539 . S
C503 H517 0.958 . S
C503 H518 0.961 . S
C503 H519 0.960 . S
H504 C488 0.931 . S
H505 C493 0.929 . S
H506 C494 0.960 . S
H507 C494 0.962 . S
H508 C494 0.960 . S
H509 C495 0.961 . S
H510 C495 0.961 . S
H511 C495 0.961 . S
H512 C496 0.931 . S
H513 C501 0.930 . S
H514 C502 0.956 . S
H515 C502 0.961 . S
H516 C502 0.961 . S
H517 C503 0.958 . S
H518 C503 0.961 . S
H519 C503 0.960 . S
C520 C521 1.391 . S
C520 C522 1.394 . S
C520 H536 0.931 . S
C521 C520 1.391 . S
C521 C525 1.376 . S
C522 C520 1.394 . S
C522 C523 1.369 . S
C522 C526 1.531 . S
C523 C522 1.369 . S
C523 C524 1.410 . S
C523 C531 1.503 . S
C524 C523 1.410 . S
C524 C525 1.392 . S
C524 C527 1.511 . S
C525 C521 1.376 . S
C525 C524 1.392 . S
C525 H537 0.929 . S
C526 C522 1.531 . S
C526 H538 0.960 . S
C526 H539 0.962 . S
C526 H540 0.960 . S
C527 C524 1.511 . S
C527 H541 0.961 . S
C527 H542 0.961 . S
C527 H543 0.961 . S
C528 C529 1.370 . S
C528 C530 1.363 . S
C528 H544 0.931 . S
C529 C528 1.370 . S
C529 C533 1.408 . S
C530 C528 1.363 . S
C530 C531 1.370 . S
C530 C534 1.524 . S
C531 C523 1.503 . S
C531 C530 1.370 . S
C531 C532 1.403 . S
C532 C531 1.403 . S
C532 C533 1.404 . S
C532 C535 1.539 . S
C533 C529 1.408 . S
C533 C532 1.404 . S
C533 H545 0.930 . S
C534 C530 1.524 . S
C534 H546 0.956 . S
C534 H547 0.961 . S
C534 H548 0.961 . S
C535 C532 1.539 . S
C535 H549 0.958 . S
C535 H550 0.961 . S
C535 H551 0.960 . S
H536 C520 0.931 . S
H537 C525 0.929 . S
H538 C526 0.960 . S
H539 C526 0.962 . S
H540 C526 0.960 . S
H541 C527 0.961 . S
H542 C527 0.961 . S
H543 C527 0.961 . S
H544 C528 0.931 . S
H545 C533 0.930 . S
H546 C534 0.956 . S
H547 C534 0.961 . S
H548 C534 0.961 . S
H549 C535 0.958 . S
H550 C535 0.961 . S
H551 C535 0.960 . S
C552 C553 1.391 . S
C552 C554 1.394 . S
C552 H568 0.931 . S
C553 C552 1.391 . S
C553 C557 1.376 . S
C554 C552 1.394 . S
C554 C555 1.369 . S
C554 C558 1.531 . S
C555 C554 1.369 . S
C555 C556 1.410 . S
C555 C563 1.503 . S
C556 C555 1.410 . S
C556 C557 1.392 . S
C556 C559 1.511 . S
C557 C553 1.376 . S
C557 C556 1.392 . S
C557 H569 0.929 . S
C558 C554 1.531 . S
C558 H570 0.960 . S
C558 H571 0.962 . S
C558 H572 0.960 . S
C559 C556 1.511 . S
C559 H573 0.961 . S
C559 H574 0.961 . S
C559 H575 0.961 . S
C560 C561 1.370 . S
C560 C562 1.363 . S
C560 H576 0.931 . S
C561 C560 1.370 . S
C561 C565 1.408 . S
C562 C560 1.363 . S
C562 C563 1.370 . S
C562 C566 1.524 . S
C563 C555 1.503 . S
C563 C562 1.370 . S
C563 C564 1.403 . S
C564 C563 1.403 . S
C564 C565 1.404 . S
C564 C567 1.539 . S
C565 C561 1.408 . S
C565 C564 1.404 . S
C565 H577 0.930 . S
C566 C562 1.524 . S
C566 H578 0.956 . S
C566 H579 0.961 . S
C566 H580 0.961 . S
C567 C564 1.539 . S
C567 H581 0.958 . S
C567 H582 0.961 . S
C567 H583 0.960 . S
H568 C552 0.931 . S
H569 C557 0.929 . S
H570 C558 0.960 . S
H571 C558 0.962 . S
H572 C558 0.960 . S
H573 C559 0.961 . S
H574 C559 0.961 . S
H575 C559 0.961 . S
H576 C560 0.931 . S
H577 C565 0.930 . S
H578 C566 0.956 . S
H579 C566 0.961 . S
H580 C566 0.961 . S
H581 C567 0.958 . S
H582 C567 0.961 . S
H583 C567 0.960 . S
C584 C585 1.391 . S
C584 C586 1.394 . S
C584 H600 0.931 . S
C585 C584 1.391 . S
C585 C589 1.376 . S
C586 C584 1.394 . S
C586 C587 1.369 . S
C586 C590 1.531 . S
C587 C586 1.369 . S
C587 C588 1.410 . S
C587 C595 1.503 . S
C588 C587 1.410 . S
C588 C589 1.392 . S
C588 C591 1.511 . S
C589 C585 1.376 . S
C589 C588 1.392 . S
C589 H601 0.929 . S
C590 C586 1.531 . S
C590 H602 0.960 . S
C590 H603 0.962 . S
C590 H604 0.960 . S
C591 C588 1.511 . S
C591 H605 0.961 . S
C591 H606 0.961 . S
C591 H607 0.961 . S
C592 C593 1.370 . S
C592 C594 1.363 . S
C592 H608 0.931 . S
C593 C592 1.370 . S
C593 C597 1.408 . S
C594 C592 1.363 . S
C594 C595 1.370 . S
C594 C598 1.524 . S
C595 C587 1.503 . S
C595 C594 1.370 . S
C595 C596 1.403 . S
C596 C595 1.403 . S
C596 C597 1.404 . S
C596 C599 1.539 . S
C597 C593 1.408 . S
C597 C596 1.404 . S
C597 H609 0.930 . S
C598 C594 1.524 . S
C598 H610 0.956 . S
C598 H611 0.961 . S
C598 H612 0.961 . S
C599 C596 1.539 . S
C599 H613 0.958 . S
C599 H614 0.961 . S
C599 H615 0.960 . S
H600 C584 0.931 . S
H601 C589 0.929 . S
H602 C590 0.960 . S
H603 C590 0.962 . S
H604 C590 0.960 . S
H605 C591 0.961 . S
H606 C591 0.961 . S
H607 C591 0.961 . S
H608 C592 0.931 . S
H609 C597 0.930 . S
H610 C598 0.956 . S
H611 C598 0.961 . S
H612 C598 0.961 . S
H613 C599 0.958 . S
H614 C599 0.961 . S
H615 C599 0.960 . S
C616 C617 1.391 . S
C616 C618 1.394 . S
C616 H632 0.931 . S
C617 C616 1.391 . S
C617 C621 1.376 . S
C618 C616 1.394 . S
C618 C619 1.369 . S
C618 C622 1.531 . S
C619 C618 1.369 . S
C619 C620 1.410 . S
C619 C627 1.503 . S
C620 C619 1.410 . S
C620 C621 1.392 . S
C620 C623 1.511 . S
C621 C617 1.376 . S
C621 C620 1.392 . S
C621 H633 0.929 . S
C622 C618 1.531 . S
C622 H634 0.960 . S
C622 H635 0.962 . S
C622 H636 0.960 . S
C623 C620 1.511 . S
C623 H637 0.961 . S
C623 H638 0.961 . S
C623 H639 0.961 . S
C624 C625 1.370 . S
C624 C626 1.363 . S
C624 H640 0.931 . S
C625 C624 1.370 . S
C625 C629 1.408 . S
C626 C624 1.363 . S
C626 C627 1.370 . S
C626 C630 1.524 . S
C627 C619 1.503 . S
C627 C626 1.370 . S
C627 C628 1.403 . S
C628 C627 1.403 . S
C628 C629 1.404 . S
C628 C631 1.539 . S
C629 C625 1.408 . S
C629 C628 1.404 . S
C629 H641 0.930 . S
C630 C626 1.524 . S
C630 H642 0.956 . S
C630 H643 0.961 . S
C630 H644 0.961 . S
C631 C628 1.539 . S
C631 H645 0.958 . S
C631 H646 0.961 . S
C631 H647 0.960 . S
H632 C616 0.931 . S
H633 C621 0.929 . S
H634 C622 0.960 . S
H635 C622 0.962 . S
H636 C622 0.960 . S
H637 C623 0.961 . S
H638 C623 0.961 . S
H639 C623 0.961 . S
H640 C624 0.931 . S
H641 C629 0.930 . S
H642 C630 0.956 . S
H643 C630 0.961 . S
H644 C630 0.961 . S
H645 C631 0.958 . S
H646 C631 0.961 . S
H647 C631 0.960 . S
C648 C649 1.391 1_655 S
C648 C650 1.394 . S
C648 H664 0.931 . S
C649 C648 1.391 1_455 S
C649 C653 1.376 . S
C650 C648 1.394 . S
C650 C651 1.369 1_655 S
C650 C654 1.531 . S
C651 C650 1.369 1_455 S
C651 C652 1.410 . S
C651 C659 1.503 . S
C652 C651 1.410 . S
C652 C653 1.392 . S
C652 C655 1.511 . S
C653 C649 1.376 . S
C653 C652 1.392 . S
C653 H665 0.929 . S
C654 C650 1.531 . S
C654 H666 0.960 . S
C654 H667 0.962 . S
C654 H668 0.960 . S
C655 C652 1.511 . S
C655 H669 0.961 . S
C655 H670 0.961 . S
C655 H671 0.961 . S
C656 C657 1.370 . S
C656 C658 1.363 . S
C656 H672 0.913 1_456 S
C657 C656 1.370 . S
C657 C661 1.408 . S
C658 C656 1.363 . S
C658 C659 1.370 . S
C658 C662 1.524 1_455 S
C659 C651 1.503 . S
C659 C658 1.370 . S
C659 C660 1.403 . S
C660 C659 1.403 . S
C660 C661 1.404 . S
C660 C663 1.539 . S
C661 C657 1.408 . S
C661 C660 1.404 . S
C661 H673 0.930 . S
C662 C658 1.524 1_655 S
C662 H674 0.956 . S
C662 H675 0.961 . S
C662 H676 0.961 . S
C663 C660 1.539 . S
C663 H677 0.958 . S
C663 H678 0.961 . S
C663 H679 0.960 . S
H664 C648 0.931 . S
H665 C653 0.929 . S
H666 C654 0.960 . S
H667 C654 0.962 . S
H668 C654 0.960 . S
H669 C655 0.961 . S
H670 C655 0.961 . S
H671 C655 0.961 . S
H672 C656 0.913 1_654 S
H673 C661 0.930 . S
H674 C662 0.956 . S
H675 C662 0.961 . S
H676 C662 0.961 . S
H677 C663 0.958 . S
H678 C663 0.961 . S
H679 C663 0.960 . S
C680 C681 1.391 . S
C680 C682 1.394 . S
C680 H696 0.931 . S
C681 C680 1.391 . S
C681 C685 1.376 . S
C682 C680 1.394 . S
C682 C683 1.369 . S
C682 C686 1.531 . S
C683 C682 1.369 . S
C683 C684 1.410 . S
C683 C691 1.503 . S
C684 C683 1.410 . S
C684 C685 1.392 . S
C684 C687 1.511 . S
C685 C681 1.376 . S
C685 C684 1.392 . S
C685 H697 0.929 . S
C686 C682 1.531 . S
C686 H698 0.960 . S
C686 H699 0.962 . S
C686 H700 0.960 . S
C687 C684 1.511 . S
C687 H701 0.961 . S
C687 H702 0.961 . S
C687 H703 0.961 . S
C688 C689 1.370 . S
C688 C690 1.363 . S
C688 H704 0.931 . S
C689 C688 1.370 . S
C689 C693 1.408 . S
C690 C688 1.363 . S
C690 C691 1.370 . S
C690 C694 1.524 . S
C691 C683 1.503 . S
C691 C690 1.370 . S
C691 C692 1.403 . S
C692 C691 1.403 . S
C692 C693 1.404 . S
C692 C695 1.539 . S
C693 C689 1.408 . S
C693 C692 1.404 . S
C693 H705 0.930 . S
C694 C690 1.524 . S
C694 H706 0.956 . S
C694 H707 0.961 . S
C694 H708 0.961 . S
C695 C692 1.539 . S
C695 H709 0.958 . S
C695 H710 0.961 . S
C695 H711 0.960 . S
H696 C680 0.931 . S
H697 C685 0.929 . S
H698 C686 0.960 . S
H699 C686 0.962 . S
H700 C686 0.960 . S
H701 C687 0.961 . S
H702 C687 0.961 . S
H703 C687 0.961 . S
H704 C688 0.931 . S
H705 C693 0.930 . S
H706 C694 0.956 . S
H707 C694 0.961 . S
H708 C694 0.961 . S
H709 C695 0.958 . S
H710 C695 0.961 . S
H711 C695 0.960 . S
C712 C713 1.391 . S
C712 C714 1.394 . S
C712 H728 0.931 1_454 S
C713 C712 1.391 . S
C713 C717 1.376 . S
C714 C712 1.394 . S
C714 C715 1.369 . S
C714 C718 1.531 1_455 S
C715 C714 1.369 . S
C715 C716 1.410 . S
C715 C723 1.503 . S
C716 C715 1.410 . S
C716 C717 1.392 . S
C716 C719 1.511 . S
C717 C713 1.376 . S
C717 C716 1.392 . S
C717 H729 0.929 . S
C718 C714 1.531 1_655 S
C718 H730 0.960 . S
C718 H731 0.962 . S
C718 H732 0.960 . S
C719 C716 1.511 . S
C719 H733 0.961 . S
C719 H734 0.961 . S
C719 H735 0.961 . S
C720 C721 1.370 1_655 S
C720 C722 1.363 . S
C720 H736 0.931 . S
C721 C720 1.370 1_455 S
C721 C725 1.408 . S
C722 C720 1.363 . S
C722 C723 1.370 1_655 S
C722 C726 1.524 . S
C723 C715 1.503 . S
C723 C722 1.370 1_455 S
C723 C724 1.403 . S
C724 C723 1.403 . S
C724 C725 1.404 . S
C724 C727 1.539 . S
C725 C721 1.408 . S
C725 C724 1.404 . S
C725 H737 0.930 . S
C726 C722 1.524 . S
C726 H738 0.956 . S
C726 H739 0.961 . S
C726 H740 0.961 . S
C727 C724 1.539 . S
C727 H741 0.958 . S
C727 H742 0.961 . S
C727 H743 0.960 . S
H728 C712 0.931 1_656 S
H729 C717 0.929 . S
H730 C718 0.960 . S
H731 C718 0.962 . S
H732 C718 0.960 . S
H733 C719 0.961 . S
H734 C719 0.961 . S
H735 C719 0.961 . S
H736 C720 0.931 . S
H737 C725 0.930 . S
H738 C726 0.956 . S
H739 C726 0.961 . S
H740 C726 0.961 . S
H741 C727 0.958 . S
H742 C727 0.961 . S
H743 C727 0.960 . S
C744 C745 1.391 . S
C744 C746 1.394 . S
C744 H760 0.931 . S
C745 C744 1.391 . S
C745 C749 1.376 . S
C746 C744 1.394 . S
C746 C747 1.369 . S
C746 C750 1.531 . S
C747 C746 1.369 . S
C747 C748 1.410 . S
C747 C755 1.503 . S
C748 C747 1.410 . S
C748 C749 1.392 . S
C748 C751 1.511 . S
C749 C745 1.376 . S
C749 C748 1.392 . S
C749 H761 0.929 . S
C750 C746 1.531 . S
C750 H762 0.960 . S
C750 H763 0.962 . S
C750 H764 0.960 . S
C751 C748 1.511 . S
C751 H765 0.961 . S
C751 H766 0.961 . S
C751 H767 0.961 . S
C752 C753 1.370 . S
C752 C754 1.363 . S
C752 H768 0.931 . S
C753 C752 1.370 . S
C753 C757 1.408 . S
C754 C752 1.363 . S
C754 C755 1.370 . S
C754 C758 1.524 . S
C755 C747 1.503 . S
C755 C754 1.370 . S
C755 C756 1.403 . S
C756 C755 1.403 . S
C756 C757 1.404 . S
C756 C759 1.539 . S
C757 C753 1.408 . S
C757 C756 1.404 . S
C757 H769 0.930 . S
C758 C754 1.524 . S
C758 H770 0.956 . S
C758 H771 0.961 . S
C758 H772 0.961 . S
C759 C756 1.539 . S
C759 H773 0.958 . S
C759 H774 0.961 . S
C759 H775 0.960 . S
H760 C744 0.931 . S
H761 C749 0.929 . S
H762 C750 0.960 . S
H763 C750 0.962 . S
H764 C750 0.960 . S
H765 C751 0.961 . S
H766 C751 0.961 . S
H767 C751 0.961 . S
H768 C752 0.931 . S
H769 C757 0.930 . S
H770 C758 0.956 . S
H771 C758 0.961 . S
H772 C758 0.961 . S
H773 C759 0.958 . S
H774 C759 0.961 . S
H775 C759 0.960 . S
C776 C777 1.391 . S
C776 C778 1.394 . S
C776 H792 0.931 . S
C777 C776 1.391 . S
C777 C781 1.376 . S
C778 C776 1.394 . S
C778 C779 1.369 . S
C778 C782 1.531 . S
C779 C778 1.369 . S
C779 C780 1.410 . S
C779 C787 1.503 . S
C780 C779 1.410 . S
C780 C781 1.392 . S
C780 C783 1.511 . S
C781 C777 1.376 . S
C781 C780 1.392 . S
C781 H793 0.929 . S
C782 C778 1.531 . S
C782 H794 0.960 . S
C782 H795 0.962 . S
C782 H796 0.960 . S
C783 C780 1.511 . S
C783 H797 0.961 . S
C783 H798 0.961 . S
C783 H799 0.961 . S
C784 C785 1.370 . S
C784 C786 1.363 . S
C784 H800 0.931 . S
C785 C784 1.370 . S
C785 C789 1.408 . S
C786 C784 1.363 . S
C786 C787 1.370 . S
C786 C790 1.524 . S
C787 C779 1.503 . S
C787 C786 1.370 . S
C787 C788 1.403 . S
C788 C787 1.403 . S
C788 C789 1.404 . S
C788 C791 1.539 . S
C789 C785 1.408 . S
C789 C788 1.404 . S
C789 H801 0.930 1_556 S
C790 C786 1.524 . S
C790 H802 0.956 . S
C790 H803 0.961 . S
C790 H804 0.961 . S
C791 C788 1.539 . S
C791 H805 0.958 . S
C791 H806 0.961 . S
C791 H807 0.960 . S
H792 C776 0.931 . S
H793 C781 0.929 . S
H794 C782 0.960 . S
H795 C782 0.962 . S
H796 C782 0.960 . S
H797 C783 0.961 . S
H798 C783 0.961 . S
H799 C783 0.961 . S
H800 C784 0.931 . S
H801 C789 0.930 1_554 S
H802 C790 0.956 . S
H803 C790 0.961 . S
H804 C790 0.961 . S
H805 C791 0.958 . S
H806 C791 0.961 . S
H807 C791 0.960 . S
C808 C809 1.391 . S
C808 C810 1.394 . S
C808 H824 0.931 1_455 S
C809 C808 1.391 . S
C809 C813 1.376 . S
C810 C808 1.394 . S
C810 C811 1.369 . S
C810 C814 1.531 1_455 S
C811 C810 1.369 . S
C811 C812 1.410 . S
C811 C819 1.503 . S
C812 C811 1.410 . S
C812 C813 1.392 . S
C812 C815 1.511 . S
C813 C809 1.376 . S
C813 C812 1.392 . S
C813 H825 0.929 . S
C814 C810 1.531 1_655 S
C814 H826 0.960 . S
C814 H827 0.962 . S
C814 H828 0.960 . S
C815 C812 1.511 . S
C815 H829 0.961 . S
C815 H830 0.961 . S
C815 H831 0.961 . S
C816 C817 1.370 . S
C816 C818 1.363 . S
C816 H832 0.931 . S
C817 C816 1.370 . S
C817 C821 1.408 . S
C818 C816 1.363 . S
C818 C819 1.370 . S
C818 C822 1.516 1_455 S
C819 C811 1.503 . S
C819 C818 1.370 . S
C819 C820 1.403 . S
C820 C819 1.403 . S
C820 C821 1.404 . S
C820 C823 1.539 . S
C821 C817 1.408 . S
C821 C820 1.404 . S
C821 H833 0.930 . S
C822 C818 1.516 1_655 S
C822 H834 0.971 . S
C822 H835 0.948 1_655 S
C822 H836 0.967 . S
C823 C820 1.539 . S
C823 H837 0.958 . S
C823 H838 0.961 . S
C823 H839 0.960 . S
H824 C808 0.931 1_655 S
H825 C813 0.929 . S
H826 C814 0.960 . S
H827 C814 0.962 . S
H828 C814 0.960 . S
H829 C815 0.961 . S
H830 C815 0.961 . S
H831 C815 0.961 . S
H832 C816 0.931 . S
H833 C821 0.930 . S
H834 C822 0.971 . S
H835 C822 0.948 1_455 S
H836 C822 0.967 . S
H837 C823 0.958 . S
H838 C823 0.961 . S
H839 C823 0.960 . S
C840 C841 1.391 . S
C840 C842 1.394 . S
C840 H856 0.931 . S
C841 C840 1.391 . S
C841 C845 1.376 . S
C842 C840 1.394 . S
C842 C843 1.369 . S
C842 C846 1.531 . S
C843 C842 1.369 . S
C843 C844 1.410 . S
C843 C851 1.503 . S
C844 C843 1.410 . S
C844 C845 1.392 . S
C844 C847 1.511 . S
C845 C841 1.376 . S
C845 C844 1.392 . S
C845 H857 0.929 . S
C846 C842 1.531 . S
C846 H858 0.960 . S
C846 H859 0.962 . S
C846 H860 0.960 . S
C847 C844 1.511 . S
C847 H861 0.961 . S
C847 H862 0.961 . S
C847 H863 0.961 . S
C848 C849 1.370 . S
C848 C850 1.363 . S
C848 H864 0.931 . S
C849 C848 1.370 . S
C849 C853 1.408 . S
C850 C848 1.363 . S
C850 C851 1.370 . S
C850 C854 1.524 . S
C851 C843 1.503 . S
C851 C850 1.370 . S
C851 C852 1.403 . S
C852 C851 1.403 . S
C852 C853 1.404 . S
C852 C855 1.539 . S
C853 C849 1.408 . S
C853 C852 1.404 . S
C853 H865 0.930 . S
C854 C850 1.524 . S
C854 H866 0.956 . S
C854 H867 0.961 . S
C854 H868 0.961 . S
C855 C852 1.539 . S
C855 H869 0.958 . S
C855 H870 0.961 . S
C855 H871 0.960 . S
H856 C840 0.931 . S
H857 C845 0.929 . S
H858 C846 0.960 . S
H859 C846 0.962 . S
H860 C846 0.960 . S
H861 C847 0.961 . S
H862 C847 0.961 . S
H863 C847 0.961 . S
H864 C848 0.931 . S
H865 C853 0.930 . S
H866 C854 0.956 . S
H867 C854 0.961 . S
H868 C854 0.961 . S
H869 C855 0.958 . S
H870 C855 0.961 . S
H871 C855 0.960 . S
C872 C873 1.391 . S
C872 C874 1.394 . S
C872 H888 0.931 . S
C873 C872 1.391 . S
C873 C877 1.378 . S
C874 C872 1.394 . S
C874 C875 1.369 . S
C874 C878 1.531 . S
C875 C874 1.369 . S
C875 C876 1.410 1_455 S
C875 C883 1.503 . S
C876 C875 1.410 1_655 S
C876 C877 1.392 1_655 S
C876 C879 1.511 . S
C877 C873 1.378 . S
C877 C876 1.392 1_455 S
C877 H889 0.927 1_455 S
C878 C874 1.531 . S
C878 H890 0.960 . S
C878 H891 0.962 . S
C878 H892 0.960 . S
C879 C876 1.511 . S
C879 H893 0.961 . S
C879 H894 0.961 . S
C879 H895 0.961 . S
C880 C881 1.370 . S
C880 C882 1.363 . S
C880 H896 0.931 . S
C881 C880 1.370 . S
C881 C885 1.408 . S
C882 C880 1.363 . S
C882 C883 1.370 . S
C882 C886 1.524 . S
C883 C875 1.503 . S
C883 C882 1.370 . S
C883 C884 1.403 . S
C884 C883 1.403 . S
C884 C885 1.404 . S
C884 C887 1.539 1_455 S
C885 C881 1.408 . S
C885 C884 1.404 . S
C885 H897 0.930 . S
C886 C882 1.524 . S
C886 H898 0.956 . S
C886 H899 0.961 . S
C886 H900 0.961 . S
C887 C884 1.539 1_655 S
C887 H901 0.958 1_655 S
C887 H902 0.961 . S
C887 H903 0.960 . S
H888 C872 0.931 . S
H889 C877 0.927 1_655 S
H890 C878 0.960 . S
H891 C878 0.962 . S
H892 C878 0.960 . S
H893 C879 0.961 . S
H894 C879 0.961 . S
H895 C879 0.961 . S
H896 C880 0.931 . S
H897 C885 0.930 . S
H898 C886 0.956 . S
H899 C886 0.961 . S
H900 C886 0.961 . S
H901 C887 0.958 1_455 S
H902 C887 0.961 . S
H903 C887 0.960 . S
C265 N71 1.372 . S
C273 N5 1.368 . S
C297 N104 1.387 . S
C305 N38 1.369 . S
C329 N137 1.374 . S
C337 N203 1.398 . S
C361 N170 1.381 . S
C369 N236 1.398 . S
C393 C107 1.565 . S
C401 C8 1.554 . S
C425 C41 1.560 . S
C433 C74 1.569 . S
C457 C94 1.102 . S
C465 C61 1.087 . S
C489 C127 1.046 . S
C497 C28 1.061 . S
C521 C239 1.551 . S
C529 C140 1.552 . S
C553 C173 1.538 . S
C561 C206 1.562 . S
C585 C226 1.042 . S
C593 C193 1.061 . S
C617 C259 1.089 . S
C625 C160 1.085 . S
C649 N179 1.541 . S
C657 C17 1.601 1_556 S
C681 C50 1.593 . S
C689 N146 1.562 . S
C713 C83 1.601 1_554 S
C721 N245 1.549 . S
C745 N212 1.574 . S
C753 C116 1.601 . S
C777 N47 1.575 . S
C785 C149 1.601 1_556 S
C809 C182 1.593 . S
C817 N14 1.566 . S
C841 C215 1.601 1_554 S
C849 N113 1.552 . S
C873 C248 1.601 . S
C881 N80 1.551 . S
