# Generated by pormake.
# Topology wjd, (6)-cn, num edge types: 1
# Building blocks:
#     Node 0, Type 0, BuildingBlock: CUWYAW_clean_sbu_0, # of connection points: 6
#     Node 1, Type 0, BuildingBlock: CUWYAW_clean_sbu_0, # of connection points: 6
#     Node 2, Type 0, BuildingBlock: CUWYAW_clean_sbu_0, # of connection points: 6
#     Node 3, Type 0, BuildingBlock: CUWYAW_clean_sbu_0, # of connection points: 6
#     Node 4, Type 0, BuildingBlock: CUWYAW_clean_sbu_0, # of connection points: 6
#     Node 5, Type 0, BuildingBlock: CUWYAW_clean_sbu_0, # of connection points: 6
#     Node 6, Type 0, BuildingBlock: CUWYAW_clean_sbu_0, # of connection points: 6
#     Node 7, Type 0, BuildingBlock: CUWYAW_clean_sbu_0, # of connection points: 6
#     Node 8, Type 0, BuildingBlock: CUWYAW_clean_sbu_0, # of connection points: 6
#     Node 9, Type 0, BuildingBlock: CUWYAW_clean_sbu_0, # of connection points: 6
#     Node 10, Type 0, BuildingBlock: CUWYAW_clean_sbu_0, # of connection points: 6
#     Node 11, Type 0, BuildingBlock: CUWYAW_clean_sbu_0, # of connection points: 6
#     Edge 12, Type (0, 0), None
#     Edge 13, Type (0, 0), None
#     Edge 14, Type (0, 0), None
#     Edge 15, Type (0, 0), None
#     Edge 16, Type (0, 0), None
#     Edge 17, Type (0, 0), None
#     Edge 18, Type (0, 0), None
#     Edge 19, Type (0, 0), None
#     Edge 20, Type (0, 0), None
#     Edge 21, Type (0, 0), None
#     Edge 22, Type (0, 0), None
#     Edge 23, Type (0, 0), None
#     Edge 24, Type (0, 0), None
#     Edge 25, Type (0, 0), None
#     Edge 26, Type (0, 0), None
#     Edge 27, Type (0, 0), None
#     Edge 28, Type (0, 0), None
#     Edge 29, Type (0, 0), None
#     Edge 30, Type (0, 0), None
#     Edge 31, Type (0, 0), None
#     Edge 32, Type (0, 0), None
#     Edge 33, Type (0, 0), None
#     Edge 34, Type (0, 0), None
#     Edge 35, Type (0, 0), None
#     Edge 36, Type (0, 0), None
#     Edge 37, Type (0, 0), None
#     Edge 38, Type (0, 0), None
#     Edge 39, Type (0, 0), None
#     Edge 40, Type (0, 0), None
#     Edge 41, Type (0, 0), None
#     Edge 42, Type (0, 0), None
#     Edge 43, Type (0, 0), None
#     Edge 44, Type (0, 0), None
#     Edge 45, Type (0, 0), None
#     Edge 46, Type (0, 0), None
#     Edge 47, Type (0, 0), None
# Relax obj value: 0.118
# Max RMSD: 0.282
# Mean RMSD: 0.282
data_MOF--net-wjd--node1-CUWYAW_clean_sbu_0--edge1-none
_symmetry_space_group_name_H-M    P1
_symmetry_Int_Tables_number       1
_symmetry_cell_setting            triclinic
loop_
_symmetry_equiv_pos_as_xyz
'x, y, z'
_cell_length_a     22.621289
_cell_length_b     22.663964
_cell_length_c     23.502372
_cell_angle_alpha  88.183818
_cell_angle_beta   90.564676
_cell_angle_gamma 119.97815
loop_
_atom_site_label
_atom_site_type_symbol
_atom_site_fract_x
_atom_site_fract_y
_atom_site_fract_z
_atom_type_partial_charge
C0 C 0.27778 0.96549 0.08675 0.0
Eu1 Eu 0.36917 0.09464 0.07878 0.0
C2 C 0.20288 0.92946 0.08643 0.0
C3 C 0.16696 0.86442 0.11153 0.0
C4 C 0.09675 0.82536 0.10433 0.0
C5 C 1.06086 0.8505 0.07167 0.0
C6 C 0.09636 0.91709 0.04865 0.0
C7 C 0.16711 0.95641 0.05598 0.0
C8 C 0.39032 0.16585 0.17384 0.0
C9 C 0.32014 0.20441 0.06526 0.0
C10 C 0.53375 0.33471 0.00861 0.0
Eu11 Eu 0.45625 0.21077 0.04997 0.0
C12 C 0.56986 0.40299 0.03485 0.0
C13 C 0.57917 0.46136 0.00418 0.0
C14 C 0.61775 0.52666 0.02691 0.0
C15 C 0.649 0.53516 0.08039 0.0
C16 C 0.63521 0.47604 0.11262 0.0
C17 C 0.59577 0.41085 0.0904 0.0
C18 C 0.44001 0.09188 -0.02653 0.0
C19 C 0.53328 0.14458 0.09375 0.0
O20 O 0.3058 0.99794 0.03945 0.0
O21 O 0.30896 1.00092 0.13103 0.0
O22 O 0.33179 0.1285 0.15054 0.0
O23 O 0.43826 0.17231 0.14192 0.0
O24 O 0.29993 0.14037 0.05341 0.0
O25 O 0.38377 0.2424 0.07818 0.0
O26 O 0.55633 0.29255 0.02065 0.0
O27 O 0.46714 0.30402 0.00947 0.0
O28 O 0.4069 0.12277 -0.01114 0.0
O29 O 0.40921 0.12345 -0.01014 0.0
O30 O 0.53944 0.2046 0.09219 0.0
O31 O 0.47143 0.0908 0.08631 0.0
H32 H 0.19349 0.84288 0.13513 0.0
H33 H 1.07085 0.7746 0.12373 0.0
H34 H 1.07003 0.93785 0.02378 0.0
H35 H 0.19421 1.0069 0.03617 0.0
H36 H 0.55936 0.45668 -0.03858 0.0
H37 H 0.62855 0.57082 0.00042 0.0
H38 H 0.65976 0.48061 0.1533 0.0
H39 H 0.5885 0.36683 0.11563 0.0
C40 C 0.90653 0.60133 0.40152 0.0
Eu41 Eu 0.86221 0.67965 0.35616 0.0
C42 C 0.94024 0.56351 0.38012 0.0
C43 C 0.98617 0.55371 0.41464 0.0
C44 C 1.01099 0.51061 0.39799 0.0
C45 C 0.99047 0.47619 0.34633 0.0
C46 C 0.94849 0.49017 0.31022 0.0
C47 C 0.92411 0.53341 0.32659 0.0
C48 C 0.82763 0.7699 0.44238 0.0
C49 C 0.72249 0.5989 0.307 0.0
C50 C 0.78488 0.84942 0.30512 0.0
Eu51 Eu 0.82537 0.76077 0.32198 0.0
C52 C 0.82208 0.92243 0.31833 0.0
C53 C 0.78609 0.95093 0.34213 0.0
C54 C 0.82044 1.0183 0.35912 0.0
C55 C 0.89179 0.05916 0.35263 0.0
C56 C 0.92853 1.03011 0.3306 0.0
C57 C 0.89384 0.96198 0.31372 0.0
C58 C 0.88766 0.74324 0.23156 0.0
C59 C 0.98323 0.8211 0.34562 0.0
O60 O 0.84304 0.5793 0.38678 0.0
O61 O 0.94244 0.66791 0.39962 0.0
O62 O 0.80414 0.71512 0.41157 0.0
O63 O 0.80848 0.71842 0.41124 0.0
O64 O 0.77959 0.59796 0.30796 0.0
O65 O 0.72464 0.65746 0.31548 0.0
O66 O 0.80895 0.8295 0.26463 0.0
O67 O 0.76725 0.80844 0.34923 0.0
O68 O 0.90435 0.80075 0.25356 0.0
O69 O 0.84481 0.69499 0.26337 0.0
O70 O 0.9338 0.83415 0.35672 0.0
O71 O 0.96551 0.75982 0.3317 0.0
H72 H 0.99995 0.57641 0.45603 0.0
H73 H 1.04099 0.4993 0.42792 0.0
H74 H 0.92978 0.46296 0.2711 0.0
H75 H 0.88948 0.5402 0.2986 0.0
H76 H 0.7312 0.92097 0.34766 0.0
H77 H 0.79056 1.0391 0.37613 0.0
H78 H 0.98326 0.06051 0.32446 0.0
H79 H 0.923 0.94037 0.29683 0.0
C80 C 0.167 0.33883 0.11819 0.0
Eu81 Eu 1.03976 0.30766 0.1011 0.0
C82 C 0.20328 0.30161 0.10395 0.0
C83 C 0.27052 0.33904 0.08391 0.0
C84 C 0.30582 0.30612 0.06813 0.0
C85 C 0.27516 0.23449 0.0719 0.0
C86 C 0.20671 0.19633 0.09002 0.0
C87 C 0.17095 0.22969 0.10579 0.0
C88 C 0.95402 0.24309 0.1911 0.0
C89 C 0.93934 0.15405 0.07234 0.0
C90 C 0.80664 0.2405 0.0244 0.0
Eu91 Eu 0.92674 0.28003 0.06881 0.0
C92 C 0.73575 0.20321 0.04814 0.0
C93 C 0.68128 0.15507 0.01565 0.0
C94 C 0.61336 0.12595 0.03509 0.0
C95 C 0.59857 0.14476 0.08726 0.0
C96 C 0.65362 0.18826 0.12175 0.0
C97 C 0.7213 0.21679 0.10267 0.0
C98 C 1.05471 0.32015 -0.01795 0.0
C99 C 0.98717 0.41653 0.11776 0.0
O100 O 0.12023 0.31296 0.15761 0.0
O101 O 0.14754 0.36152 0.07506 0.0
O102 O 0.99235 0.22398 0.16718 0.0
O103 O 0.95467 0.29064 0.16149 0.0
O104 O 1.00253 0.20244 0.06086 0.0
O105 O 0.89789 0.17367 0.08895 0.0
O106 O 0.84695 0.3023 0.04198 0.0
O107 O 0.83815 0.20559 0.02128 0.0
O108 O 1.02168 0.34132 0.01362 0.0
O109 O 1.02065 0.33663 0.01392 0.0
O110 O 0.9283 0.36061 0.11925 0.0
O111 O 1.04226 0.41143 0.10836 0.0
H112 H 0.29613 0.39419 0.08073 0.0
H113 H 0.35839 0.33736 0.05416 0.0
H114 H 0.18182 0.1413 0.09403 0.0
H115 H 0.11839 0.19938 0.11991 0.0
H116 H 0.69092 0.14281 -0.02619 0.0
H117 H 0.57236 0.09433 0.00669 0.0
H118 H 0.64401 0.20522 0.1614 0.0
H119 H 0.76207 0.25257 0.12931 0.0
C120 C 0.54079 0.33193 0.39139 0.0
Eu121 Eu 0.46275 0.20954 0.35528 0.0
C122 C 0.5783 0.39984 0.36275 0.0
C123 C 0.57668 0.45558 0.38558 0.0
C124 C 0.61706 0.52136 0.36176 0.0
C125 C 0.66011 0.53218 0.31515 0.0
C126 C 0.65696 0.47548 0.28948 0.0
C127 C 0.61608 0.40986 0.31277 0.0
C128 C 0.44885 0.09736 0.44297 0.0
C129 C 0.53713 0.13948 0.32034 0.0
C130 C 0.27514 0.96392 0.33701 0.0
Eu131 Eu 0.37337 0.09022 0.33488 0.0
C132 C 0.20006 0.9357 0.3363 0.0
C133 C 0.16179 0.8979 0.29021 0.0
C134 C 0.09074 0.86676 0.2913 0.0
C135 C 1.0561 0.87234 0.33857 0.0
C136 C 0.09413 0.91364 0.38319 0.0
C137 C 0.16563 0.94522 0.38206 0.0
C138 C 0.39083 0.16211 0.236 0.0
C139 C 0.32657 0.20057 0.34137 0.0
O140 O 0.56273 0.28917 0.38276 0.0
O141 O 0.47436 0.30293 0.38963 0.0
O142 O 0.41383 0.12443 0.42188 0.0
O143 O 0.41591 0.1251 0.42116 0.0
O144 O 0.54262 0.19904 0.31306 0.0
O145 O 0.47543 0.08626 0.33215 0.0
O146 O 0.30585 0.9968 0.38214 0.0
O147 O 0.30986 0.9944 0.29066 0.0
O148 O 0.33321 0.12227 0.26087 0.0
O149 O 0.43992 0.16814 0.26665 0.0
O150 O 0.30864 0.1384 0.36039 0.0
O151 O 0.38895 0.23885 0.32411 0.0
H152 H 0.54677 0.44874 0.4235 0.0
H153 H 0.61959 0.56417 0.38324 0.0
H154 H 0.69062 0.48256 0.25423 0.0
H155 H 0.61689 0.36753 0.29336 0.0
H156 H 0.1866 0.89028 0.25425 0.0
H157 H 1.06238 0.83463 0.25638 0.0
H158 H 1.06871 0.9176 0.42049 0.0
H159 H 0.19358 0.97488 0.41818 0.0
C160 C 0.80339 0.86139 0.07161 0.0
Eu161 Eu 0.83082 0.76252 0.07265 0.0
C162 C 0.84607 0.93621 0.0766 0.0
C163 C 0.82715 0.96924 0.11538 0.0
C164 C 0.86121 1.04017 0.11567 0.0
C165 C 0.9149 0.0801 0.07691 0.0
C166 C 0.93702 1.04741 0.04032 0.0
C167 C 0.90277 0.97584 0.04011 0.0
C168 C 0.88548 0.74326 0.1696 0.0
C169 C 0.98719 0.80482 0.06237 0.0
C170 C 0.90033 0.59089 0.01649 0.0
Eu171 Eu 0.85722 0.67076 0.05111 0.0
C172 C 0.93139 0.55537 0.04782 0.0
C173 C 0.98676 0.5525 0.02426 0.0
C174 C 1.01308 0.51478 0.05198 0.0
C175 C 0.98401 0.47891 0.10352 0.0
C176 C 0.93255 0.4868 0.12919 0.0
C177 C 0.90686 0.52497 0.10189 0.0
C178 C 0.75837 0.68926 -0.03229 0.0
C179 C 0.71344 0.59968 0.09155 0.0
O180 O 0.81482 0.83714 0.02645 0.0
O181 O 0.79363 0.82234 0.11683 0.0
O182 O 0.90384 0.80117 0.1442 0.0
O183 O 0.84166 0.69479 0.14035 0.0
O184 O 0.94445 0.82541 0.04542 0.0
O185 O 0.96119 0.74176 0.07908 0.0
O186 O 0.83572 0.56974 0.02683 0.0
O187 O 0.93756 0.65729 0.0139 0.0
O188 O 0.82136 0.72166 -0.01409 0.0
O189 O 0.81973 0.71936 -0.01319 0.0
O190 O 0.76662 0.59236 0.09633 0.0
O191 O 0.72325 0.66191 0.07916 0.0
H192 H 0.78434 0.94025 0.14413 0.0
H193 H 0.84356 0.06388 0.14524 0.0
H194 H 0.97802 0.07677 0.01011 0.0
H195 H 0.91918 0.95174 0.00988 0.0
H196 H 1.00761 0.57682 -0.01683 0.0
H197 H 1.05145 0.50833 0.03034 0.0
H198 H 0.90807 0.45855 0.16813 0.0
H199 H 0.86548 0.52789 0.1219 0.0
C200 C 0.79785 0.21712 0.41931 0.0
Eu201 Eu 0.91998 0.26304 0.37742 0.0
C202 C 0.73092 0.19121 0.39029 0.0
C203 C 0.67073 0.14088 0.41698 0.0
C204 C 0.60717 0.11549 0.38986 0.0
C205 C 0.60209 0.14176 0.33626 0.0
C206 C 0.66306 0.18994 0.30842 0.0
C207 C 0.72672 0.21365 0.33474 0.0
C208 C 1.05118 0.34697 0.45594 0.0
C209 C 0.98817 0.40957 0.34079 0.0
C210 C 0.1626 0.32766 0.32484 0.0
Eu211 Eu 1.03501 0.2916 0.34344 0.0
C212 C 0.198 0.28842 0.32208 0.0
C213 C 0.26032 0.3169 0.29341 0.0
C214 C 0.30033 0.28628 0.29853 0.0
C215 C 0.27887 0.22658 0.33267 0.0
C216 C 0.21445 0.19565 0.35878 0.0
C217 C 0.17416 0.2265 0.35353 0.0
C218 C 0.95367 0.24002 0.25297 0.0
C219 C 0.92262 0.1334 0.35997 0.0
O220 O 0.84238 0.28238 0.41319 0.0
O221 O 0.82598 0.17938 0.41413 0.0
O222 O 1.00988 0.28676 0.43553 0.0
O223 O 1.00971 0.2891 0.4348 0.0
O224 O 0.92752 0.35697 0.34263 0.0
O225 O 1.04124 0.39923 0.34487 0.0
O226 O 0.13731 0.32582 0.37432 0.0
O227 O 0.12073 0.32135 0.28405 0.0
O228 O 0.9917 0.2179 0.27477 0.0
O229 O 0.95237 0.28384 0.28465 0.0
O230 O 0.9884 0.17641 0.36844 0.0
O231 O 0.88394 0.15935 0.34876 0.0
H232 H 0.67295 0.12313 0.45976 0.0
H233 H 0.56134 0.07964 0.4127 0.0
H234 H 0.66109 0.21268 0.26774 0.0
H235 H 0.77242 0.25149 0.31249 0.0
H236 H 0.27935 0.36431 0.26891 0.0
H237 H 0.34924 0.31083 0.27676 0.0
H238 H 0.19652 0.14952 0.38485 0.0
H239 H 0.12577 0.2036 0.37601 0.0
C240 C 0.37044 0.53093 0.51677 0.0
Eu241 Eu 0.24976 0.44989 0.56257 0.0
C242 C 0.44233 0.56614 0.53829 0.0
C243 C 0.49691 0.57713 0.5027 0.0
C244 C 0.56529 0.61746 0.52016 0.0
C245 C 0.58075 0.64772 0.57372 0.0
C246 C 0.52584 0.63213 0.61078 0.0
C247 C 0.45771 0.59165 0.59353 0.0
C248 C 0.11964 0.36198 0.47927 0.0
C249 C 0.19192 0.52762 0.61516 0.0
C250 C 1.00851 0.27655 0.62089 0.0
Eu251 Eu 0.1357 0.367 0.59746 0.0
C252 C 0.97189 0.20229 0.61315 0.0
C253 C 0.90283 0.1703 0.5994 0.0
C254 C 0.86801 0.10187 0.58561 0.0
C255 C 0.90116 0.06311 0.58535 0.0
C256 C 0.97098 0.09529 0.59821 0.0
C257 C 1.00624 0.16468 0.6119 0.0
C258 C 0.22095 0.38449 0.68516 0.0
C259 C 0.23191 0.30815 0.56471 0.0
O260 O 0.32975 0.55202 0.53482 0.0
O261 O 0.33944 0.46452 0.51504 0.0
O262 O 0.15399 0.41734 0.50904 0.0
O263 O 0.15484 0.41356 0.50956 0.0
O264 O 0.25006 0.52882 0.61491 0.0
O265 O 0.13607 0.46898 0.60521 0.0
O266 O 1.05586 0.30119 0.65925 0.0
O267 O 1.02796 0.31257 0.57398 0.0
O268 O 0.18437 0.32843 0.65941 0.0
O269 O 0.22197 0.43255 0.65599 0.0
O270 O 0.16827 0.29447 0.55798 0.0
O271 O 0.27603 0.36946 0.57874 0.0
H272 H 0.48681 0.55766 0.46007 0.0
H273 H 0.60586 0.63028 0.48965 0.0
H274 H 0.53562 0.65623 0.65157 0.0
H275 H 0.41708 0.5835 0.6224 0.0
H276 H 0.87582 0.19858 0.59853 0.0
H277 H 0.81431 0.07909 0.5755 0.0
H278 H 0.99772 0.06679 0.59882 0.0
H279 H 1.06023 0.18901 0.62115 0.0
C280 C 0.38201 0.14783 0.82221 0.0
Eu281 Eu 0.342 1.01906 0.8359 0.0
C282 C 0.34019 0.18029 0.82163 0.0
C283 C 0.36326 0.24226 0.79228 0.0
C284 C 0.32776 0.27718 0.7972 0.0
C285 C 0.26901 0.25088 0.83209 0.0
C286 C 0.24325 0.18659 0.85854 0.0
C287 C 0.27879 0.15134 0.85329 0.0
C288 C 0.29094 0.94917 0.74076 0.0
C289 C 0.18352 0.91306 0.84644 0.0
C290 C 0.25926 0.77854 0.91018 0.0
Eu291 Eu 0.30919 0.90256 0.86623 0.0
C292 C 0.22844 0.70818 0.8878 0.0
C293 C 0.18029 0.65137 0.92052 0.0
C294 C 0.15619 0.58437 0.90241 0.0
C295 C 0.17964 0.57268 0.85107 0.0
C296 C 0.22395 0.62985 0.81662 0.0
C297 C 0.24771 0.69659 0.8345 0.0
C298 C 0.40689 1.02222 0.94641 0.0
C299 C 0.45351 0.96734 0.8271 0.0
O300 O 0.38237 0.1193 0.87065 0.0
O301 O 0.37481 0.10947 0.77972 0.0
O302 O 0.2707 0.98694 0.76375 0.0
O303 O 0.33129 0.94046 0.77359 0.0
O304 O 0.2283 0.97553 0.86157 0.0
O305 O 0.20748 0.87404 0.83317 0.0
O306 O 0.32457 0.82029 0.90086 0.0
O307 O 0.22362 0.8091 0.90304 0.0
O308 O 0.34403 0.99037 0.92729 0.0
O309 O 0.34595 0.98984 0.92638 0.0
O310 O 0.39908 0.90775 0.82751 0.0
O311 O 0.44658 1.02143 0.83418 0.0
H312 H 0.4099 0.26475 0.76726 0.0
H313 H 0.34807 0.32629 0.77521 0.0
H314 H 0.19815 0.1654 0.8854 0.0
H315 H 0.25996 0.10294 0.87604 0.0
H316 H 0.16386 0.65868 -0.03846 0.0
H317 H 0.12417 0.54191 0.93099 0.0
H318 H 0.24462 0.62285 0.77765 0.0
H319 H 0.28388 0.7391 0.80786 0.0
C320 C 0.65618 0.91456 0.50913 0.0
Eu321 Eu 0.72771 0.86219 0.55184 0.0
C322 C 0.6138 0.93984 0.53563 0.0
C323 C 0.60141 0.9873 0.50606 0.0
C324 C 0.5606 1.01092 0.53018 0.0
C325 C 0.52943 0.98596 0.58366 0.0
C326 C 0.54466 0.94074 0.61436 0.0
C327 C 0.58702 0.91865 0.59099 0.0
C328 C 0.77558 0.78467 0.46842 0.0
C329 C 0.6452 0.7137 0.5807 0.0
C330 C 0.8999 0.78997 0.60264 0.0
Eu331 Eu 0.81048 0.82979 0.58506 0.0
C332 C 0.97453 0.82662 0.59794 0.0
C333 C 1.01054 0.79807 0.62362 0.0
C334 C 1.0807 0.8288 0.61553 0.0
C335 C 0.1165 0.88892 0.58149 0.0
C336 C 1.08072 0.91904 0.55722 0.0
C337 C 1.00989 0.88786 0.5653 0.0
C338 C 0.77757 0.87142 0.67919 0.0
C339 C 0.8583 0.98864 0.5776 0.0
O340 O 0.63363 0.8488 0.51257 0.0
O341 O 0.72142 0.95021 0.51932 0.0
O342 O 0.79529 0.84298 0.49261 0.0
O343 O 0.79286 0.84073 0.49325 0.0
O344 O 0.6379 0.76667 0.57812 0.0
O345 O 0.70838 0.72321 0.58007 0.0
O346 O 0.86816 0.78334 0.55521 0.0
O347 O 0.87345 0.80691 0.64331 0.0
O348 O 0.8382 0.89621 0.65852 0.0
O349 O 0.73339 0.8313 0.64422 0.0
O350 O 0.88045 0.94638 0.56461 0.0
O351 O 0.79383 0.96149 0.5891 0.0
H352 H 0.62129 1.00397 0.46329 0.0
H353 H 0.54834 1.044 0.50504 0.0
H354 H 0.51995 0.91881 0.65497 0.0
H355 H 0.59651 0.88279 0.61524 0.0
H356 H 0.9842 0.75116 0.64899 0.0
H357 H 0.10673 0.80462 0.63576 0.0
H358 H 0.10697 0.96533 0.53113 0.0
H359 H 0.9825 0.91061 0.5451 0.0
C360 C 1.00304 0.25293 0.82439 0.0
Eu361 Eu 0.13167 0.3439 0.83951 0.0
C362 C 0.96623 0.17786 0.82787 0.0
C363 C 0.90388 0.14212 0.80022 0.0
C364 C 0.8649 0.07157 0.80721 0.0
C365 C 0.88734 1.03475 0.84203 0.0
C366 C 0.95135 0.07022 0.86805 0.0
C367 C 0.99053 0.14154 0.86116 0.0
C368 C 0.21156 0.37691 0.74659 0.0
C369 C 0.24138 0.29548 0.84416 0.0
C370 C 0.37221 0.49398 0.91389 0.0
Eu371 Eu 0.24911 0.42598 0.8728 0.0
C372 C 0.43937 0.53667 0.88515 0.0
C373 C 0.49927 0.54324 0.90946 0.0
C374 C 0.56322 0.58565 0.88342 0.0
C375 C 0.56854 0.62332 0.83312 0.0
C376 C 0.50782 0.61249 0.80676 0.0
C377 C 0.44401 0.56933 0.83221 0.0
C378 C 0.12187 0.37389 0.95732 0.0
C379 C 0.18156 0.50847 0.84461 0.0
O380 O 1.02763 0.28266 0.87183 0.0
O381 O 1.04614 0.28263 0.78269 0.0
O382 O 0.16921 0.31608 0.76518 0.0
O383 O 0.21579 0.42127 0.7809 0.0
O384 O 0.17749 0.27406 0.85952 0.0
O385 O 0.2808 0.36009 0.83376 0.0
O386 O 0.32937 0.51717 0.9129 0.0
O387 O 0.34221 0.42927 0.90314 0.0
O388 O 0.16068 0.35555 0.93117 0.0
O389 O 0.1609 0.35817 0.93062 0.0
O390 O 0.24193 0.5156 0.84744 0.0
O391 O 0.12753 0.44566 0.84485 0.0
H392 H 0.88446 0.16895 0.77419 0.0
H393 H 0.81631 1.04595 0.78558 0.0
H394 H 0.97003 1.04333 0.89482 0.0
H395 H 1.03895 0.16846 0.88287 0.0
H396 H 0.49672 0.51772 0.94982 0.0
H397 H 0.60885 0.59374 0.90528 0.0
H398 H 0.51009 0.64162 0.76854 0.0
H399 H 0.39849 0.56382 0.81169 0.0
C400 C 0.27742 0.79126 0.52174 0.0
Eu401 Eu 0.32013 0.91272 0.55853 0.0
C402 C 0.24754 0.72412 0.55166 0.0
C403 C 0.19083 0.66736 0.52873 0.0
C404 C 0.16497 0.60263 0.55487 0.0
C405 C 0.19602 0.59384 0.604 0.0
C406 C 0.24879 0.65167 0.62956 0.0
C407 C 0.27407 0.71631 0.60384 0.0
C408 C 0.4162 1.02906 0.47336 0.0
C409 C 0.46459 0.98499 0.59623 0.0
C410 C 0.37265 0.15617 0.58047 0.0
Eu411 Eu 0.34658 1.03015 0.581 0.0
C412 C 0.32721 0.18615 0.57966 0.0
C413 C 0.3305 0.22756 0.62385 0.0
C414 C 0.29373 0.262 0.62063 0.0
C415 C 0.25286 0.25622 0.57305 0.0
C416 C 0.24585 0.21155 0.53032 0.0
C417 C 0.2827 0.17669 0.5336 0.0
C418 C 0.29465 0.95436 0.67861 0.0
C419 C 0.19035 0.9169 0.5721 0.0
O420 O 0.34209 0.83463 0.5309 0.0
O421 O 0.2395 0.8197 0.52214 0.0
O422 O 0.35376 0.99904 0.49323 0.0
O423 O 0.35532 0.99847 0.49407 0.0
O424 O 0.41173 0.92428 0.60072 0.0
O425 O 0.45432 1.0374 0.58527 0.0
O426 O 0.37136 0.12439 0.53516 0.0
O427 O 0.37511 0.12411 0.62682 0.0
O428 O 0.27468 0.99326 0.65447 0.0
O429 O 0.33876 0.95157 0.64782 0.0
O430 O 0.23316 0.98006 0.55453 0.0
O431 O 0.21638 0.87982 0.58874 0.0
H432 H 0.16851 0.67258 0.48924 0.0
H433 H 0.12527 0.55887 0.53351 0.0
H434 H 0.27423 0.64614 0.66695 0.0
H435 H 0.31644 0.75963 0.62342 0.0
H436 H 0.36368 0.23551 0.65985 0.0
H437 H 0.30019 0.29633 0.65428 0.0
H438 H 0.21566 0.20699 0.49292 0.0
H439 H 0.27832 0.14451 0.49884 0.0
C440 C 0.89175 0.77455 0.82736 0.0
Eu441 Eu 0.795 0.80466 0.83533 0.0
C442 C 0.9668 0.81788 0.82642 0.0
C443 C 1.00541 0.79988 0.79281 0.0
C444 C 1.07625 0.83434 0.79743 0.0
C445 C 0.11019 0.88743 0.83607 0.0
C446 C 1.07205 0.90869 0.86713 0.0
C447 C 1.00066 0.87408 0.86233 0.0
C448 C 0.77468 0.86387 0.74124 0.0
C449 C 0.84075 0.96044 0.85093 0.0
C450 C 0.62919 0.87341 0.90606 0.0
Eu451 Eu 0.70583 0.83004 0.86315 0.0
C452 C 0.59466 0.90864 0.88038 0.0
C453 C 0.58896 0.95806 0.91071 0.0
C454 C 0.55095 0.98704 0.88862 0.0
C455 C 0.51773 0.96655 0.83605 0.0
C456 C 0.52895 0.9219 0.80361 0.0
C457 C 0.56736 0.89355 0.82535 0.0
C458 C 0.72334 0.72494 0.94101 0.0
C459 C 0.63217 0.68897 0.82131 0.0
O460 O 0.86278 0.77402 0.87479 0.0
O461 O 0.85788 0.77753 0.7832 0.0
O462 O 0.83247 0.88258 0.76558 0.0
O463 O 0.72621 0.81808 0.77123 0.0
O464 O 0.86023 0.91591 0.86525 0.0
O465 O 0.77788 0.93583 0.83551 0.0
O466 O 0.60593 0.80978 0.89268 0.0
O467 O 0.69575 0.90887 0.90554 0.0
O468 O 0.75585 0.78928 0.9245 0.0
O469 O 0.7536 0.78768 0.92354 0.0
O470 O 0.62447 0.742 0.821 0.0
O471 O 0.69469 0.69818 0.82889 0.0
H472 H 0.98067 0.75741 0.76458 0.0
H473 H 0.10438 0.8175 0.77193 0.0
H474 H 0.09679 0.94933 0.89704 0.0
H475 H 0.97184 0.8895 0.88845 0.0
H476 H 0.61093 0.97166 0.95273 0.0
H477 H 0.54178 1.01985 0.91523 0.0
H478 H 0.50273 0.90407 0.76357 0.0
H479 H 0.57257 0.85701 0.80037 0.0
loop_
_geom_bond_atom_site_label_1
_geom_bond_atom_site_label_2
_geom_bond_distance
_geom_bond_site_symmetry_2
_ccdc_geom_bond_type
C0 Eu1 2.835 1_565 S
C0 C2 1.500 . S
C0 O20 1.257 . S
C0 O21 1.260 . S
Eu1 C0 2.835 1_545 S
Eu1 O20 2.473 1_545 S
Eu1 O21 2.480 1_545 S
Eu1 O22 2.430 . S
Eu1 O23 2.670 . S
Eu1 O24 2.394 . S
Eu1 O29 2.355 . S
Eu1 O31 2.374 . S
C2 C0 1.500 . S
C2 C3 1.377 . S
C2 C7 1.377 . S
C3 C2 1.377 . S
C3 C4 1.395 . S
C3 H32 0.931 . S
C4 C3 1.395 . S
C4 C5 1.383 1_455 S
C4 H33 0.931 1_455 S
C5 C4 1.383 1_655 S
C5 C6 1.394 1_655 S
C6 C5 1.394 1_455 S
C6 C7 1.378 . S
C6 H34 0.931 1_455 S
C7 C2 1.377 . S
C7 C6 1.378 . S
C7 H35 0.931 . S
C8 O22 1.259 . S
C8 O23 1.270 . S
C9 O24 1.251 . S
C9 O25 1.251 . S
C10 Eu11 2.835 . S
C10 C12 1.500 . S
C10 O26 1.257 . S
C10 O27 1.260 . S
Eu11 C10 2.835 . S
Eu11 O23 2.355 . S
Eu11 O25 2.374 . S
Eu11 O26 2.473 . S
Eu11 O27 2.480 . S
Eu11 O28 2.430 1_554 S
Eu11 O29 2.670 . S
Eu11 O30 2.394 . S
C12 C10 1.500 . S
C12 C13 1.377 1_554 S
C12 C17 1.377 . S
C13 C12 1.377 1_556 S
C13 C14 1.395 . S
C13 H36 0.931 . S
C14 C13 1.395 . S
C14 C15 1.383 1_556 S
C14 H37 0.931 . S
C15 C14 1.383 1_554 S
C15 C16 1.394 . S
C16 C15 1.394 . S
C16 C17 1.378 . S
C16 H38 0.931 . S
C17 C12 1.377 . S
C17 C16 1.378 . S
C17 H39 0.931 . S
C18 O28 1.259 . S
C18 O29 1.270 1_556 S
C19 O30 1.251 . S
C19 O31 1.251 . S
O20 C0 1.257 . S
O20 Eu1 2.473 1_565 S
O21 C0 1.260 . S
O21 Eu1 2.480 1_565 S
O22 Eu1 2.430 . S
O22 C8 1.259 . S
O23 Eu1 2.670 . S
O23 C8 1.270 . S
O23 Eu11 2.355 . S
O24 Eu1 2.394 . S
O24 C9 1.251 . S
O25 C9 1.251 . S
O25 Eu11 2.374 . S
O26 C10 1.257 . S
O26 Eu11 2.473 . S
O27 C10 1.260 . S
O27 Eu11 2.480 . S
O28 Eu11 2.430 1_556 S
O28 C18 1.259 . S
O29 Eu1 2.355 . S
O29 Eu11 2.670 . S
O29 C18 1.270 1_554 S
O30 Eu11 2.394 . S
O30 C19 1.251 . S
O31 Eu1 2.374 . S
O31 C19 1.251 . S
H32 C3 0.931 . S
H33 C4 0.931 1_655 S
H34 C6 0.931 1_655 S
H35 C7 0.931 . S
H36 C13 0.931 . S
H37 C14 0.931 . S
H38 C16 0.931 . S
H39 C17 0.931 . S
C40 Eu41 2.835 . S
C40 C42 1.500 . S
C40 O60 1.257 . S
C40 O61 1.260 . S
Eu41 C40 2.835 . S
Eu41 O60 2.473 . S
Eu41 O61 2.480 . S
Eu41 O62 2.430 . S
Eu41 O63 2.670 . S
Eu41 O64 2.394 . S
Eu41 O69 2.355 . S
Eu41 O71 2.374 . S
C42 C40 1.500 . S
C42 C43 1.377 . S
C42 C47 1.377 . S
C43 C42 1.377 . S
C43 C44 1.395 . S
C43 H72 0.931 . S
C44 C43 1.395 . S
C44 C45 1.383 . S
C44 H73 0.931 . S
C45 C44 1.383 . S
C45 C46 1.394 . S
C46 C45 1.394 . S
C46 C47 1.378 . S
C46 H74 0.931 . S
C47 C42 1.377 . S
C47 C46 1.378 . S
C47 H75 0.931 . S
C48 O62 1.259 . S
C48 O63 1.270 . S
C49 O64 1.251 . S
C49 O65 1.251 . S
C50 Eu51 2.835 . S
C50 C52 1.500 . S
C50 O66 1.257 . S
C50 O67 1.260 . S
Eu51 C50 2.835 . S
Eu51 O63 2.355 . S
Eu51 O65 2.374 . S
Eu51 O66 2.473 . S
Eu51 O67 2.480 . S
Eu51 O68 2.430 . S
Eu51 O69 2.670 . S
Eu51 O70 2.394 . S
C52 C50 1.500 . S
C52 C53 1.377 . S
C52 C57 1.377 . S
C53 C52 1.377 . S
C53 C54 1.395 . S
C53 H76 0.931 . S
C54 C53 1.395 . S
C54 C55 1.383 1_565 S
C54 H77 0.931 1_565 S
C55 C54 1.383 1_545 S
C55 C56 1.394 1_545 S
C56 C55 1.394 1_565 S
C56 C57 1.378 . S
C56 H78 0.931 1_565 S
C57 C52 1.377 . S
C57 C56 1.378 . S
C57 H79 0.931 . S
C58 O68 1.259 . S
C58 O69 1.270 . S
C59 O70 1.251 . S
C59 O71 1.251 . S
O60 C40 1.257 . S
O60 Eu41 2.473 . S
O61 C40 1.260 . S
O61 Eu41 2.480 . S
O62 Eu41 2.430 . S
O62 C48 1.259 . S
O63 Eu41 2.670 . S
O63 C48 1.270 . S
O63 Eu51 2.355 . S
O64 Eu41 2.394 . S
O64 C49 1.251 . S
O65 C49 1.251 . S
O65 Eu51 2.374 . S
O66 C50 1.257 . S
O66 Eu51 2.473 . S
O67 C50 1.260 . S
O67 Eu51 2.480 . S
O68 Eu51 2.430 . S
O68 C58 1.259 . S
O69 Eu41 2.355 . S
O69 Eu51 2.670 . S
O69 C58 1.270 . S
O70 Eu51 2.394 . S
O70 C59 1.251 . S
O71 Eu41 2.374 . S
O71 C59 1.251 . S
H72 C43 0.931 . S
H73 C44 0.931 . S
H74 C46 0.931 . S
H75 C47 0.931 . S
H76 C53 0.931 . S
H77 C54 0.931 1_545 S
H78 C56 0.931 1_545 S
H79 C57 0.931 . S
C80 Eu81 2.835 1_455 S
C80 C82 1.500 . S
C80 O100 1.257 . S
C80 O101 1.260 . S
Eu81 C80 2.835 1_655 S
Eu81 O100 2.473 1_655 S
Eu81 O101 2.480 1_655 S
Eu81 O102 2.430 . S
Eu81 O103 2.670 . S
Eu81 O104 2.394 . S
Eu81 O109 2.355 . S
Eu81 O111 2.374 . S
C82 C80 1.500 . S
C82 C83 1.377 . S
C82 C87 1.377 . S
C83 C82 1.377 . S
C83 C84 1.395 . S
C83 H112 0.931 . S
C84 C83 1.395 . S
C84 C85 1.383 . S
C84 H113 0.931 . S
C85 C84 1.383 . S
C85 C86 1.394 . S
C86 C85 1.394 . S
C86 C87 1.378 . S
C86 H114 0.931 . S
C87 C82 1.377 . S
C87 C86 1.378 . S
C87 H115 0.931 . S
C88 O102 1.259 . S
C88 O103 1.270 . S
C89 O104 1.251 . S
C89 O105 1.251 . S
C90 Eu91 2.835 . S
C90 C92 1.500 . S
C90 O106 1.257 . S
C90 O107 1.260 . S
Eu91 C90 2.835 . S
Eu91 O103 2.355 . S
Eu91 O105 2.374 . S
Eu91 O106 2.473 . S
Eu91 O107 2.480 . S
Eu91 O108 2.430 1_554 S
Eu91 O109 2.670 . S
Eu91 O110 2.394 . S
C92 C90 1.500 . S
C92 C93 1.377 1_554 S
C92 C97 1.377 . S
C93 C92 1.377 1_556 S
C93 C94 1.395 . S
C93 H116 0.931 . S
C94 C93 1.395 . S
C94 C95 1.383 1_556 S
C94 H117 0.931 . S
C95 C94 1.383 1_554 S
C95 C96 1.394 . S
C96 C95 1.394 . S
C96 C97 1.378 . S
C96 H118 0.931 . S
C97 C92 1.377 . S
C97 C96 1.378 . S
C97 H119 0.931 . S
C98 O108 1.259 . S
C98 O109 1.270 1_556 S
C99 O110 1.251 . S
C99 O111 1.251 . S
O100 C80 1.257 . S
O100 Eu81 2.473 1_455 S
O101 C80 1.260 . S
O101 Eu81 2.480 1_455 S
O102 Eu81 2.430 . S
O102 C88 1.259 . S
O103 Eu81 2.670 . S
O103 C88 1.270 . S
O103 Eu91 2.355 . S
O104 Eu81 2.394 . S
O104 C89 1.251 . S
O105 C89 1.251 . S
O105 Eu91 2.374 . S
O106 C90 1.257 . S
O106 Eu91 2.473 . S
O107 C90 1.260 . S
O107 Eu91 2.480 . S
O108 Eu91 2.430 1_556 S
O108 C98 1.259 . S
O109 Eu81 2.355 . S
O109 Eu91 2.670 . S
O109 C98 1.270 1_554 S
O110 Eu91 2.394 . S
O110 C99 1.251 . S
O111 Eu81 2.374 . S
O111 C99 1.251 . S
H112 C83 0.931 . S
H113 C84 0.931 . S
H114 C86 0.931 . S
H115 C87 0.931 . S
H116 C93 0.931 . S
H117 C94 0.931 . S
H118 C96 0.931 . S
H119 C97 0.931 . S
C120 Eu121 2.835 . S
C120 C122 1.500 . S
C120 O140 1.257 . S
C120 O141 1.260 . S
Eu121 C120 2.835 . S
Eu121 O140 2.473 . S
Eu121 O141 2.480 . S
Eu121 O142 2.430 . S
Eu121 O143 2.670 . S
Eu121 O144 2.394 . S
Eu121 O149 2.355 . S
Eu121 O151 2.374 . S
C122 C120 1.500 . S
C122 C123 1.377 . S
C122 C127 1.377 . S
C123 C122 1.377 . S
C123 C124 1.395 . S
C123 H152 0.931 . S
C124 C123 1.395 . S
C124 C125 1.383 . S
C124 H153 0.931 . S
C125 C124 1.383 . S
C125 C126 1.394 . S
C126 C125 1.394 . S
C126 C127 1.378 . S
C126 H154 0.931 . S
C127 C122 1.377 . S
C127 C126 1.378 . S
C127 H155 0.931 . S
C128 O142 1.259 . S
C128 O143 1.270 . S
C129 O144 1.251 . S
C129 O145 1.251 . S
C130 Eu131 2.835 1_565 S
C130 C132 1.500 . S
C130 O146 1.257 . S
C130 O147 1.260 . S
Eu131 C130 2.835 1_545 S
Eu131 O143 2.355 . S
Eu131 O145 2.374 . S
Eu131 O146 2.473 1_545 S
Eu131 O147 2.480 1_545 S
Eu131 O148 2.430 . S
Eu131 O149 2.670 . S
Eu131 O150 2.394 . S
C132 C130 1.500 . S
C132 C133 1.377 . S
C132 C137 1.377 . S
C133 C132 1.377 . S
C133 C134 1.395 . S
C133 H156 0.931 . S
C134 C133 1.395 . S
C134 C135 1.383 1_455 S
C134 H157 0.931 1_455 S
C135 C134 1.383 1_655 S
C135 C136 1.394 1_655 S
C136 C135 1.394 1_455 S
C136 C137 1.378 . S
C136 H158 0.931 1_455 S
C137 C132 1.377 . S
C137 C136 1.378 . S
C137 H159 0.931 . S
C138 O148 1.259 . S
C138 O149 1.270 . S
C139 O150 1.251 . S
C139 O151 1.251 . S
O140 C120 1.257 . S
O140 Eu121 2.473 . S
O141 C120 1.260 . S
O141 Eu121 2.480 . S
O142 Eu121 2.430 . S
O142 C128 1.259 . S
O143 Eu121 2.670 . S
O143 C128 1.270 . S
O143 Eu131 2.355 . S
O144 Eu121 2.394 . S
O144 C129 1.251 . S
O145 C129 1.251 . S
O145 Eu131 2.374 . S
O146 C130 1.257 . S
O146 Eu131 2.473 1_565 S
O147 C130 1.260 . S
O147 Eu131 2.480 1_565 S
O148 Eu131 2.430 . S
O148 C138 1.259 . S
O149 Eu121 2.355 . S
O149 Eu131 2.670 . S
O149 C138 1.270 . S
O150 Eu131 2.394 . S
O150 C139 1.251 . S
O151 Eu121 2.374 . S
O151 C139 1.251 . S
H152 C123 0.931 . S
H153 C124 0.931 . S
H154 C126 0.931 . S
H155 C127 0.931 . S
H156 C133 0.931 . S
H157 C134 0.931 1_655 S
H158 C136 0.931 1_655 S
H159 C137 0.931 . S
C160 Eu161 2.835 . S
C160 C162 1.500 . S
C160 O180 1.257 . S
C160 O181 1.260 . S
Eu161 C160 2.835 . S
Eu161 O180 2.473 . S
Eu161 O181 2.480 . S
Eu161 O182 2.430 . S
Eu161 O183 2.670 . S
Eu161 O184 2.394 . S
Eu161 O189 2.355 . S
Eu161 O191 2.374 . S
C162 C160 1.500 . S
C162 C163 1.377 . S
C162 C167 1.377 . S
C163 C162 1.377 . S
C163 C164 1.395 . S
C163 H192 0.931 . S
C164 C163 1.395 . S
C164 C165 1.383 1_565 S
C164 H193 0.931 1_565 S
C165 C164 1.383 1_545 S
C165 C166 1.394 1_545 S
C166 C165 1.394 1_565 S
C166 C167 1.378 . S
C166 H194 0.931 1_565 S
C167 C162 1.377 . S
C167 C166 1.378 . S
C167 H195 0.931 . S
C168 O182 1.259 . S
C168 O183 1.270 . S
C169 O184 1.251 . S
C169 O185 1.251 . S
C170 Eu171 2.835 . S
C170 C172 1.500 . S
C170 O186 1.257 . S
C170 O187 1.260 . S
Eu171 C170 2.835 . S
Eu171 O183 2.355 . S
Eu171 O185 2.374 . S
Eu171 O186 2.473 . S
Eu171 O187 2.480 . S
Eu171 O188 2.430 1_554 S
Eu171 O189 2.670 . S
Eu171 O190 2.394 . S
C172 C170 1.500 . S
C172 C173 1.377 1_554 S
C172 C177 1.377 . S
C173 C172 1.377 1_556 S
C173 C174 1.395 . S
C173 H196 0.931 . S
C174 C173 1.395 . S
C174 C175 1.383 1_556 S
C174 H197 0.931 . S
C175 C174 1.383 1_554 S
C175 C176 1.394 . S
C176 C175 1.394 . S
C176 C177 1.378 . S
C176 H198 0.931 . S
C177 C172 1.377 . S
C177 C176 1.378 . S
C177 H199 0.931 . S
C178 O188 1.259 . S
C178 O189 1.270 1_556 S
C179 O190 1.251 . S
C179 O191 1.251 . S
O180 C160 1.257 . S
O180 Eu161 2.473 . S
O181 C160 1.260 . S
O181 Eu161 2.480 . S
O182 Eu161 2.430 . S
O182 C168 1.259 . S
O183 Eu161 2.670 . S
O183 C168 1.270 . S
O183 Eu171 2.355 . S
O184 Eu161 2.394 . S
O184 C169 1.251 . S
O185 C169 1.251 . S
O185 Eu171 2.374 . S
O186 C170 1.257 . S
O186 Eu171 2.473 . S
O187 C170 1.260 . S
O187 Eu171 2.480 . S
O188 Eu171 2.430 1_556 S
O188 C178 1.259 . S
O189 Eu161 2.355 . S
O189 Eu171 2.670 . S
O189 C178 1.270 1_554 S
O190 Eu171 2.394 . S
O190 C179 1.251 . S
O191 Eu161 2.374 . S
O191 C179 1.251 . S
H192 C163 0.931 . S
H193 C164 0.931 1_545 S
H194 C166 0.931 1_545 S
H195 C167 0.931 . S
H196 C173 0.931 . S
H197 C174 0.931 . S
H198 C176 0.931 . S
H199 C177 0.931 . S
C200 Eu201 2.835 . S
C200 C202 1.500 . S
C200 O220 1.257 . S
C200 O221 1.260 . S
Eu201 C200 2.835 . S
Eu201 O220 2.473 . S
Eu201 O221 2.480 . S
Eu201 O222 2.430 . S
Eu201 O223 2.670 . S
Eu201 O224 2.394 . S
Eu201 O229 2.355 . S
Eu201 O231 2.374 . S
C202 C200 1.500 . S
C202 C203 1.377 . S
C202 C207 1.377 . S
C203 C202 1.377 . S
C203 C204 1.395 . S
C203 H232 0.931 . S
C204 C203 1.395 . S
C204 C205 1.383 . S
C204 H233 0.931 . S
C205 C204 1.383 . S
C205 C206 1.394 . S
C206 C205 1.394 . S
C206 C207 1.378 . S
C206 H234 0.931 . S
C207 C202 1.377 . S
C207 C206 1.378 . S
C207 H235 0.931 . S
C208 O222 1.259 . S
C208 O223 1.270 . S
C209 O224 1.251 . S
C209 O225 1.251 . S
C210 Eu211 2.835 1_455 S
C210 C212 1.500 . S
C210 O226 1.257 . S
C210 O227 1.260 . S
Eu211 C210 2.835 1_655 S
Eu211 O223 2.355 . S
Eu211 O225 2.374 . S
Eu211 O226 2.473 1_655 S
Eu211 O227 2.480 1_655 S
Eu211 O228 2.430 . S
Eu211 O229 2.670 . S
Eu211 O230 2.394 . S
C212 C210 1.500 . S
C212 C213 1.377 . S
C212 C217 1.377 . S
C213 C212 1.377 . S
C213 C214 1.395 . S
C213 H236 0.931 . S
C214 C213 1.395 . S
C214 C215 1.383 . S
C214 H237 0.931 . S
C215 C214 1.383 . S
C215 C216 1.394 . S
C216 C215 1.394 . S
C216 C217 1.378 . S
C216 H238 0.931 . S
C217 C212 1.377 . S
C217 C216 1.378 . S
C217 H239 0.931 . S
C218 O228 1.259 . S
C218 O229 1.270 . S
C219 O230 1.251 . S
C219 O231 1.251 . S
O220 C200 1.257 . S
O220 Eu201 2.473 . S
O221 C200 1.260 . S
O221 Eu201 2.480 . S
O222 Eu201 2.430 . S
O222 C208 1.259 . S
O223 Eu201 2.670 . S
O223 C208 1.270 . S
O223 Eu211 2.355 . S
O224 Eu201 2.394 . S
O224 C209 1.251 . S
O225 C209 1.251 . S
O225 Eu211 2.374 . S
O226 C210 1.257 . S
O226 Eu211 2.473 1_455 S
O227 C210 1.260 . S
O227 Eu211 2.480 1_455 S
O228 Eu211 2.430 . S
O228 C218 1.259 . S
O229 Eu201 2.355 . S
O229 Eu211 2.670 . S
O229 C218 1.270 . S
O230 Eu211 2.394 . S
O230 C219 1.251 . S
O231 Eu201 2.374 . S
O231 C219 1.251 . S
H232 C203 0.931 . S
H233 C204 0.931 . S
H234 C206 0.931 . S
H235 C207 0.931 . S
H236 C213 0.931 . S
H237 C214 0.931 . S
H238 C216 0.931 . S
H239 C217 0.931 . S
C240 Eu241 2.835 . S
C240 C242 1.500 . S
C240 O260 1.257 . S
C240 O261 1.260 . S
Eu241 C240 2.835 . S
Eu241 O260 2.473 . S
Eu241 O261 2.480 . S
Eu241 O262 2.430 . S
Eu241 O263 2.670 . S
Eu241 O264 2.394 . S
Eu241 O269 2.355 . S
Eu241 O271 2.374 . S
C242 C240 1.500 . S
C242 C243 1.377 . S
C242 C247 1.377 . S
C243 C242 1.377 . S
C243 C244 1.395 . S
C243 H272 0.931 . S
C244 C243 1.395 . S
C244 C245 1.383 . S
C244 H273 0.931 . S
C245 C244 1.383 . S
C245 C246 1.394 . S
C246 C245 1.394 . S
C246 C247 1.378 . S
C246 H274 0.931 . S
C247 C242 1.377 . S
C247 C246 1.378 . S
C247 H275 0.931 . S
C248 O262 1.259 . S
C248 O263 1.270 . S
C249 O264 1.251 . S
C249 O265 1.251 . S
C250 Eu251 2.835 1_655 S
C250 C252 1.500 . S
C250 O266 1.257 . S
C250 O267 1.260 . S
Eu251 C250 2.835 1_455 S
Eu251 O263 2.355 . S
Eu251 O265 2.374 . S
Eu251 O266 2.473 1_455 S
Eu251 O267 2.480 1_455 S
Eu251 O268 2.430 . S
Eu251 O269 2.670 . S
Eu251 O270 2.394 . S
C252 C250 1.500 . S
C252 C253 1.377 . S
C252 C257 1.377 . S
C253 C252 1.377 . S
C253 C254 1.395 . S
C253 H276 0.931 . S
C254 C253 1.395 . S
C254 C255 1.383 1_545 S
C254 H277 0.931 1_545 S
C255 C254 1.383 1_565 S
C255 C256 1.394 1_565 S
C256 C255 1.394 1_545 S
C256 C257 1.378 . S
C256 H278 0.931 1_545 S
C257 C252 1.377 . S
C257 C256 1.378 . S
C257 H279 0.931 . S
C258 O268 1.259 . S
C258 O269 1.270 . S
C259 O270 1.251 . S
C259 O271 1.251 . S
O260 C240 1.257 . S
O260 Eu241 2.473 . S
O261 C240 1.260 . S
O261 Eu241 2.480 . S
O262 Eu241 2.430 . S
O262 C248 1.259 . S
O263 Eu241 2.670 . S
O263 C248 1.270 . S
O263 Eu251 2.355 . S
O264 Eu241 2.394 . S
O264 C249 1.251 . S
O265 C249 1.251 . S
O265 Eu251 2.374 . S
O266 C250 1.257 . S
O266 Eu251 2.473 1_655 S
O267 C250 1.260 . S
O267 Eu251 2.480 1_655 S
O268 Eu251 2.430 . S
O268 C258 1.259 . S
O269 Eu241 2.355 . S
O269 Eu251 2.670 . S
O269 C258 1.270 . S
O270 Eu251 2.394 . S
O270 C259 1.251 . S
O271 Eu241 2.374 . S
O271 C259 1.251 . S
H272 C243 0.931 . S
H273 C244 0.931 . S
H274 C246 0.931 . S
H275 C247 0.931 . S
H276 C253 0.931 . S
H277 C254 0.931 1_565 S
H278 C256 0.931 1_565 S
H279 C257 0.931 . S
C280 Eu281 2.835 1_545 S
C280 C282 1.500 . S
C280 O300 1.257 . S
C280 O301 1.260 . S
Eu281 C280 2.835 1_565 S
Eu281 O300 2.473 1_565 S
Eu281 O301 2.480 1_565 S
Eu281 O302 2.430 . S
Eu281 O303 2.670 . S
Eu281 O304 2.394 . S
Eu281 O309 2.355 . S
Eu281 O311 2.374 . S
C282 C280 1.500 . S
C282 C283 1.377 . S
C282 C287 1.377 . S
C283 C282 1.377 . S
C283 C284 1.395 . S
C283 H312 0.931 . S
C284 C283 1.395 . S
C284 C285 1.383 . S
C284 H313 0.931 . S
C285 C284 1.383 . S
C285 C286 1.394 . S
C286 C285 1.394 . S
C286 C287 1.378 . S
C286 H314 0.931 . S
C287 C282 1.377 . S
C287 C286 1.378 . S
C287 H315 0.931 . S
C288 O302 1.259 . S
C288 O303 1.270 . S
C289 O304 1.251 . S
C289 O305 1.251 . S
C290 Eu291 2.835 . S
C290 C292 1.500 . S
C290 O306 1.257 . S
C290 O307 1.260 . S
Eu291 C290 2.835 . S
Eu291 O303 2.355 . S
Eu291 O305 2.374 . S
Eu291 O306 2.473 . S
Eu291 O307 2.480 . S
Eu291 O308 2.430 1_556 S
Eu291 O309 2.670 . S
Eu291 O310 2.394 . S
C292 C290 1.500 . S
C292 C293 1.377 1_556 S
C292 C297 1.377 . S
C293 C292 1.377 1_554 S
C293 C294 1.395 . S
C293 H316 0.931 . S
C294 C293 1.395 . S
C294 C295 1.383 1_554 S
C294 H317 0.931 . S
C295 C294 1.383 1_556 S
C295 C296 1.394 . S
C296 C295 1.394 . S
C296 C297 1.378 . S
C296 H318 0.931 . S
C297 C292 1.377 . S
C297 C296 1.378 . S
C297 H319 0.931 . S
C298 O308 1.259 . S
C298 O309 1.270 1_554 S
C299 O310 1.251 . S
C299 O311 1.251 . S
O300 C280 1.257 . S
O300 Eu281 2.473 1_545 S
O301 C280 1.260 . S
O301 Eu281 2.480 1_545 S
O302 Eu281 2.430 . S
O302 C288 1.259 . S
O303 Eu281 2.670 . S
O303 C288 1.270 . S
O303 Eu291 2.355 . S
O304 Eu281 2.394 . S
O304 C289 1.251 . S
O305 C289 1.251 . S
O305 Eu291 2.374 . S
O306 C290 1.257 . S
O306 Eu291 2.473 . S
O307 C290 1.260 . S
O307 Eu291 2.480 . S
O308 Eu291 2.430 1_554 S
O308 C298 1.259 . S
O309 Eu281 2.355 . S
O309 Eu291 2.670 . S
O309 C298 1.270 1_556 S
O310 Eu291 2.394 . S
O310 C299 1.251 . S
O311 Eu281 2.374 . S
O311 C299 1.251 . S
H312 C283 0.931 . S
H313 C284 0.931 . S
H314 C286 0.931 . S
H315 C287 0.931 . S
H316 C293 0.931 . S
H317 C294 0.931 . S
H318 C296 0.931 . S
H319 C297 0.931 . S
C320 Eu321 2.835 . S
C320 C322 1.500 . S
C320 O340 1.257 . S
C320 O341 1.260 . S
Eu321 C320 2.835 . S
Eu321 O340 2.473 . S
Eu321 O341 2.480 . S
Eu321 O342 2.430 . S
Eu321 O343 2.670 . S
Eu321 O344 2.394 . S
Eu321 O349 2.355 . S
Eu321 O351 2.374 . S
C322 C320 1.500 . S
C322 C323 1.377 . S
C322 C327 1.377 . S
C323 C322 1.377 . S
C323 C324 1.395 . S
C323 H352 0.931 . S
C324 C323 1.395 . S
C324 C325 1.383 . S
C324 H353 0.931 . S
C325 C324 1.383 . S
C325 C326 1.394 . S
C326 C325 1.394 . S
C326 C327 1.378 . S
C326 H354 0.931 . S
C327 C322 1.377 . S
C327 C326 1.378 . S
C327 H355 0.931 . S
C328 O342 1.259 . S
C328 O343 1.270 . S
C329 O344 1.251 . S
C329 O345 1.251 . S
C330 Eu331 2.835 . S
C330 C332 1.500 . S
C330 O346 1.257 . S
C330 O347 1.260 . S
Eu331 C330 2.835 . S
Eu331 O343 2.355 . S
Eu331 O345 2.374 . S
Eu331 O346 2.473 . S
Eu331 O347 2.480 . S
Eu331 O348 2.430 . S
Eu331 O349 2.670 . S
Eu331 O350 2.394 . S
C332 C330 1.500 . S
C332 C333 1.377 . S
C332 C337 1.377 . S
C333 C332 1.377 . S
C333 C334 1.395 . S
C333 H356 0.931 . S
C334 C333 1.395 . S
C334 C335 1.383 1_655 S
C334 H357 0.931 1_655 S
C335 C334 1.383 1_455 S
C335 C336 1.394 1_455 S
C336 C335 1.394 1_655 S
C336 C337 1.378 . S
C336 H358 0.931 1_655 S
C337 C332 1.377 . S
C337 C336 1.378 . S
C337 H359 0.931 . S
C338 O348 1.259 . S
C338 O349 1.270 . S
C339 O350 1.251 . S
C339 O351 1.251 . S
O340 C320 1.257 . S
O340 Eu321 2.473 . S
O341 C320 1.260 . S
O341 Eu321 2.480 . S
O342 Eu321 2.430 . S
O342 C328 1.259 . S
O343 Eu321 2.670 . S
O343 C328 1.270 . S
O343 Eu331 2.355 . S
O344 Eu321 2.394 . S
O344 C329 1.251 . S
O345 C329 1.251 . S
O345 Eu331 2.374 . S
O346 C330 1.257 . S
O346 Eu331 2.473 . S
O347 C330 1.260 . S
O347 Eu331 2.480 . S
O348 Eu331 2.430 . S
O348 C338 1.259 . S
O349 Eu321 2.355 . S
O349 Eu331 2.670 . S
O349 C338 1.270 . S
O350 Eu331 2.394 . S
O350 C339 1.251 . S
O351 Eu321 2.374 . S
O351 C339 1.251 . S
H352 C323 0.931 . S
H353 C324 0.931 . S
H354 C326 0.931 . S
H355 C327 0.931 . S
H356 C333 0.931 . S
H357 C334 0.931 1_455 S
H358 C336 0.931 1_455 S
H359 C337 0.931 . S
C360 Eu361 2.835 1_655 S
C360 C362 1.500 . S
C360 O380 1.257 . S
C360 O381 1.260 . S
Eu361 C360 2.835 1_455 S
Eu361 O380 2.473 1_455 S
Eu361 O381 2.480 1_455 S
Eu361 O382 2.430 . S
Eu361 O383 2.670 . S
Eu361 O384 2.394 . S
Eu361 O389 2.355 . S
Eu361 O391 2.374 . S
C362 C360 1.500 . S
C362 C363 1.377 . S
C362 C367 1.377 . S
C363 C362 1.377 . S
C363 C364 1.395 . S
C363 H392 0.931 . S
C364 C363 1.395 . S
C364 C365 1.383 1_545 S
C364 H393 0.931 1_545 S
C365 C364 1.383 1_565 S
C365 C366 1.394 1_565 S
C366 C365 1.394 1_545 S
C366 C367 1.378 . S
C366 H394 0.931 1_545 S
C367 C362 1.377 . S
C367 C366 1.378 . S
C367 H395 0.931 . S
C368 O382 1.259 . S
C368 O383 1.270 . S
C369 O384 1.251 . S
C369 O385 1.251 . S
C370 Eu371 2.835 . S
C370 C372 1.500 . S
C370 O386 1.257 . S
C370 O387 1.260 . S
Eu371 C370 2.835 . S
Eu371 O383 2.355 . S
Eu371 O385 2.374 . S
Eu371 O386 2.473 . S
Eu371 O387 2.480 . S
Eu371 O388 2.430 1_556 S
Eu371 O389 2.670 . S
Eu371 O390 2.394 . S
C372 C370 1.500 . S
C372 C373 1.377 1_556 S
C372 C377 1.377 . S
C373 C372 1.377 1_554 S
C373 C374 1.395 . S
C373 H396 0.931 . S
C374 C373 1.395 . S
C374 C375 1.383 1_554 S
C374 H397 0.931 . S
C375 C374 1.383 1_556 S
C375 C376 1.394 . S
C376 C375 1.394 . S
C376 C377 1.378 . S
C376 H398 0.931 . S
C377 C372 1.377 . S
C377 C376 1.378 . S
C377 H399 0.931 . S
C378 O388 1.259 . S
C378 O389 1.270 1_554 S
C379 O390 1.251 . S
C379 O391 1.251 . S
O380 C360 1.257 . S
O380 Eu361 2.473 1_655 S
O381 C360 1.260 . S
O381 Eu361 2.480 1_655 S
O382 Eu361 2.430 . S
O382 C368 1.259 . S
O383 Eu361 2.670 . S
O383 C368 1.270 . S
O383 Eu371 2.355 . S
O384 Eu361 2.394 . S
O384 C369 1.251 . S
O385 C369 1.251 . S
O385 Eu371 2.374 . S
O386 C370 1.257 . S
O386 Eu371 2.473 . S
O387 C370 1.260 . S
O387 Eu371 2.480 . S
O388 Eu371 2.430 1_554 S
O388 C378 1.259 . S
O389 Eu361 2.355 . S
O389 Eu371 2.670 . S
O389 C378 1.270 1_556 S
O390 Eu371 2.394 . S
O390 C379 1.251 . S
O391 Eu361 2.374 . S
O391 C379 1.251 . S
H392 C363 0.931 . S
H393 C364 0.931 1_565 S
H394 C366 0.931 1_565 S
H395 C367 0.931 . S
H396 C373 0.931 . S
H397 C374 0.931 . S
H398 C376 0.931 . S
H399 C377 0.931 . S
C400 Eu401 2.835 . S
C400 C402 1.500 . S
C400 O420 1.257 . S
C400 O421 1.260 . S
Eu401 C400 2.835 . S
Eu401 O420 2.473 . S
Eu401 O421 2.480 . S
Eu401 O422 2.430 . S
Eu401 O423 2.670 . S
Eu401 O424 2.394 . S
Eu401 O429 2.355 . S
Eu401 O431 2.374 . S
C402 C400 1.500 . S
C402 C403 1.377 . S
C402 C407 1.377 . S
C403 C402 1.377 . S
C403 C404 1.395 . S
C403 H432 0.931 . S
C404 C403 1.395 . S
C404 C405 1.383 . S
C404 H433 0.931 . S
C405 C404 1.383 . S
C405 C406 1.394 . S
C406 C405 1.394 . S
C406 C407 1.378 . S
C406 H434 0.931 . S
C407 C402 1.377 . S
C407 C406 1.378 . S
C407 H435 0.931 . S
C408 O422 1.259 . S
C408 O423 1.270 . S
C409 O424 1.251 . S
C409 O425 1.251 . S
C410 Eu411 2.835 1_545 S
C410 C412 1.500 . S
C410 O426 1.257 . S
C410 O427 1.260 . S
Eu411 C410 2.835 1_565 S
Eu411 O423 2.355 . S
Eu411 O425 2.374 . S
Eu411 O426 2.473 1_565 S
Eu411 O427 2.480 1_565 S
Eu411 O428 2.430 . S
Eu411 O429 2.670 . S
Eu411 O430 2.394 . S
C412 C410 1.500 . S
C412 C413 1.377 . S
C412 C417 1.377 . S
C413 C412 1.377 . S
C413 C414 1.395 . S
C413 H436 0.931 . S
C414 C413 1.395 . S
C414 C415 1.383 . S
C414 H437 0.931 . S
C415 C414 1.383 . S
C415 C416 1.394 . S
C416 C415 1.394 . S
C416 C417 1.378 . S
C416 H438 0.931 . S
C417 C412 1.377 . S
C417 C416 1.378 . S
C417 H439 0.931 . S
C418 O428 1.259 . S
C418 O429 1.270 . S
C419 O430 1.251 . S
C419 O431 1.251 . S
O420 C400 1.257 . S
O420 Eu401 2.473 . S
O421 C400 1.260 . S
O421 Eu401 2.480 . S
O422 Eu401 2.430 . S
O422 C408 1.259 . S
O423 Eu401 2.670 . S
O423 C408 1.270 . S
O423 Eu411 2.355 . S
O424 Eu401 2.394 . S
O424 C409 1.251 . S
O425 C409 1.251 . S
O425 Eu411 2.374 . S
O426 C410 1.257 . S
O426 Eu411 2.473 1_545 S
O427 C410 1.260 . S
O427 Eu411 2.480 1_545 S
O428 Eu411 2.430 . S
O428 C418 1.259 . S
O429 Eu401 2.355 . S
O429 Eu411 2.670 . S
O429 C418 1.270 . S
O430 Eu411 2.394 . S
O430 C419 1.251 . S
O431 Eu401 2.374 . S
O431 C419 1.251 . S
H432 C403 0.931 . S
H433 C404 0.931 . S
H434 C406 0.931 . S
H435 C407 0.931 . S
H436 C413 0.931 . S
H437 C414 0.931 . S
H438 C416 0.931 . S
H439 C417 0.931 . S
C440 Eu441 2.835 . S
C440 C442 1.500 . S
C440 O460 1.257 . S
C440 O461 1.260 . S
Eu441 C440 2.835 . S
Eu441 O460 2.473 . S
Eu441 O461 2.480 . S
Eu441 O462 2.430 . S
Eu441 O463 2.670 . S
Eu441 O464 2.394 . S
Eu441 O469 2.355 . S
Eu441 O471 2.374 . S
C442 C440 1.500 . S
C442 C443 1.377 . S
C442 C447 1.377 . S
C443 C442 1.377 . S
C443 C444 1.395 . S
C443 H472 0.931 . S
C444 C443 1.395 . S
C444 C445 1.383 1_655 S
C444 H473 0.931 1_655 S
C445 C444 1.383 1_455 S
C445 C446 1.394 1_455 S
C446 C445 1.394 1_655 S
C446 C447 1.378 . S
C446 H474 0.931 1_655 S
C447 C442 1.377 . S
C447 C446 1.378 . S
C447 H475 0.931 . S
C448 O462 1.259 . S
C448 O463 1.270 . S
C449 O464 1.251 . S
C449 O465 1.251 . S
C450 Eu451 2.835 . S
C450 C452 1.500 . S
C450 O466 1.257 . S
C450 O467 1.260 . S
Eu451 C450 2.835 . S
Eu451 O463 2.355 . S
Eu451 O465 2.374 . S
Eu451 O466 2.473 . S
Eu451 O467 2.480 . S
Eu451 O468 2.430 1_556 S
Eu451 O469 2.670 . S
Eu451 O470 2.394 . S
C452 C450 1.500 . S
C452 C453 1.377 1_556 S
C452 C457 1.377 . S
C453 C452 1.377 1_554 S
C453 C454 1.395 . S
C453 H476 0.931 . S
C454 C453 1.395 . S
C454 C455 1.383 1_554 S
C454 H477 0.931 . S
C455 C454 1.383 1_556 S
C455 C456 1.394 . S
C456 C455 1.394 . S
C456 C457 1.378 . S
C456 H478 0.931 . S
C457 C452 1.377 . S
C457 C456 1.378 . S
C457 H479 0.931 . S
C458 O468 1.259 . S
C458 O469 1.270 1_554 S
C459 O470 1.251 . S
C459 O471 1.251 . S
O460 C440 1.257 . S
O460 Eu441 2.473 . S
O461 C440 1.260 . S
O461 Eu441 2.480 . S
O462 Eu441 2.430 . S
O462 C448 1.259 . S
O463 Eu441 2.670 . S
O463 C448 1.270 . S
O463 Eu451 2.355 . S
O464 Eu441 2.394 . S
O464 C449 1.251 . S
O465 C449 1.251 . S
O465 Eu451 2.374 . S
O466 C450 1.257 . S
O466 Eu451 2.473 . S
O467 C450 1.260 . S
O467 Eu451 2.480 . S
O468 Eu451 2.430 1_554 S
O468 C458 1.259 . S
O469 Eu441 2.355 . S
O469 Eu451 2.670 . S
O469 C458 1.270 1_556 S
O470 Eu451 2.394 . S
O470 C459 1.251 . S
O471 Eu441 2.374 . S
O471 C459 1.251 . S
H472 C443 0.931 . S
H473 C444 0.931 1_455 S
H474 C446 0.931 1_455 S
H475 C447 0.931 . S
H476 C453 0.931 . S
H477 C454 0.931 . S
H478 C456 0.931 . S
H479 C457 0.931 . S
C85 C9 1.681 . S
C135 C59 1.681 . S
C89 C165 1.681 . S
C139 C215 1.681 . S
C5 C169 1.681 . S
C55 C219 1.681 . S
C415 C259 1.681 . S
C289 C445 1.681 . S
C339 C255 1.681 . S
C369 C285 1.681 . S
C419 C335 1.681 . S
C365 C449 1.681 . S
C138 C8 1.683 . S
C58 C168 1.682 . S
C88 C218 1.682 . S
C258 C368 1.683 . S
C288 C418 1.682 . S
C338 C448 1.682 . S
C298 C18 4.920 1_564 S
C48 C328 4.920 . S
C378 C98 4.920 1_454 S
C128 C408 4.920 1_545 S
C178 C458 4.920 1_556 S
C248 C208 4.920 1_455 S
C95 C19 2.585 . S
C49 C125 2.585 . S
C99 C175 2.586 . S
C129 C205 2.585 . S
C15 C179 2.585 . S
C45 C209 2.585 . S
C405 C249 2.585 . S
C299 C455 2.586 . S
C329 C245 2.585 . S
C295 C379 2.585 . S
C409 C325 2.586 . S
C459 C375 2.585 . S
