# Generated by pormake.
# Topology yfh, (5)-cn, num edge types: 1
# Building blocks:
#     Node 0, Type 0, BuildingBlock: BEQFEK_clean_sbu_0, # of connection points: 5
#     Node 1, Type 0, BuildingBlock: BEQFEK_clean_sbu_0, # of connection points: 5
#     Node 2, Type 0, BuildingBlock: BEQFEK_clean_sbu_0, # of connection points: 5
#     Node 3, Type 0, BuildingBlock: BEQFEK_clean_sbu_0, # of connection points: 5
#     Node 4, Type 0, BuildingBlock: BEQFEK_clean_sbu_0, # of connection points: 5
#     Node 5, Type 0, BuildingBlock: BEQFEK_clean_sbu_0, # of connection points: 5
#     Node 6, Type 0, BuildingBlock: BEQFEK_clean_sbu_0, # of connection points: 5
#     Node 7, Type 0, BuildingBlock: BEQFEK_clean_sbu_0, # of connection points: 5
#     Edge 8, Type (0, 0), BuildingBlock: XIVTED_clean_linker_0, # of connection points: 2
#     Edge 9, Type (0, 0), BuildingBlock: XIVTED_clean_linker_0, # of connection points: 2
#     Edge 10, Type (0, 0), BuildingBlock: XIVTED_clean_linker_0, # of connection points: 2
#     Edge 11, Type (0, 0), BuildingBlock: XIVTED_clean_linker_0, # of connection points: 2
#     Edge 12, Type (0, 0), BuildingBlock: XIVTED_clean_linker_0, # of connection points: 2
#     Edge 13, Type (0, 0), BuildingBlock: XIVTED_clean_linker_0, # of connection points: 2
#     Edge 14, Type (0, 0), BuildingBlock: XIVTED_clean_linker_0, # of connection points: 2
#     Edge 15, Type (0, 0), BuildingBlock: XIVTED_clean_linker_0, # of connection points: 2
#     Edge 16, Type (0, 0), BuildingBlock: XIVTED_clean_linker_0, # of connection points: 2
#     Edge 17, Type (0, 0), BuildingBlock: XIVTED_clean_linker_0, # of connection points: 2
#     Edge 18, Type (0, 0), BuildingBlock: XIVTED_clean_linker_0, # of connection points: 2
#     Edge 19, Type (0, 0), BuildingBlock: XIVTED_clean_linker_0, # of connection points: 2
#     Edge 20, Type (0, 0), BuildingBlock: XIVTED_clean_linker_0, # of connection points: 2
#     Edge 21, Type (0, 0), BuildingBlock: XIVTED_clean_linker_0, # of connection points: 2
#     Edge 22, Type (0, 0), BuildingBlock: XIVTED_clean_linker_0, # of connection points: 2
#     Edge 23, Type (0, 0), BuildingBlock: XIVTED_clean_linker_0, # of connection points: 2
#     Edge 24, Type (0, 0), BuildingBlock: XIVTED_clean_linker_0, # of connection points: 2
#     Edge 25, Type (0, 0), BuildingBlock: XIVTED_clean_linker_0, # of connection points: 2
#     Edge 26, Type (0, 0), BuildingBlock: XIVTED_clean_linker_0, # of connection points: 2
#     Edge 27, Type (0, 0), BuildingBlock: XIVTED_clean_linker_0, # of connection points: 2
# Relax obj value: 0.471
# Max RMSD: 0.266
# Mean RMSD: 0.266
data_MOF--net-yfh--node1-BEQFEK_clean_sbu_0--edge1-XIVTED_clean_linker_0
_symmetry_space_group_name_H-M    P1
_symmetry_Int_Tables_number       1
_symmetry_cell_setting            triclinic
loop_
_symmetry_equiv_pos_as_xyz
'x, y, z'
_cell_length_a     29.235942
_cell_length_b     29.307689
_cell_length_c     58.255877
_cell_angle_alpha  90.068867
_cell_angle_beta   89.83204
_cell_angle_gamma 89.968131
loop_
_atom_site_label
_atom_site_type_symbol
_atom_site_fract_x
_atom_site_fract_y
_atom_site_fract_z
_atom_type_partial_charge
Co0 Co 0.24046 0.96054 0.04346 0.0
Co1 Co 0.33537 0.95741 0.06843 0.0
C2 C 0.27261 0.03706 0.07404 0.0
O3 O 0.24316 0.01928 0.06065 0.0
O4 O 0.30994 0.0167 0.07869 0.0
C5 C 0.14295 0.96999 0.03835 0.0
O6 O 0.14398 0.98304 0.05993 0.0
C7 C 0.40469 0.95945 0.10502 0.0
C8 C 0.44909 0.90205 0.09462 0.0
C9 C 0.44115 0.93267 0.11236 0.0
N10 N 0.39063 0.94385 0.08452 0.0
N11 N 0.41824 0.91049 0.07807 0.0
C12 C 0.38426 0.00017 0.11667 0.0
H13 H 0.37948 0.02769 0.10388 0.0
H14 H 0.35025 0.99106 0.12382 0.0
H15 H 0.40673 0.01342 0.13046 0.0
C16 C 0.22914 0.872 0.06751 0.0
N17 N 0.2527 0.91037 0.06276 0.0
N18 N 0.2917 0.9099 0.07401 0.0
C19 C 0.29329 0.87189 0.087 0.0
C20 C 0.25418 0.84617 0.08303 0.0
C21 C 0.18539 0.85901 0.05596 0.0
H22 H 0.18604 0.87022 0.03779 0.0
H23 H 0.15654 0.8765 0.06471 0.0
H24 H 0.17963 0.82163 0.0566 0.0
O25 O 0.28467 0.96118 0.01813 0.0
O26 O 0.35228 0.96046 0.03528 0.0
H27 H 0.36007 0.84719 0.09519 0.0
H28 H 0.31798 0.83691 0.11723 0.0
C29 C 0.32991 0.86173 0.10416 0.0
H30 H 0.34008 0.89348 0.11309 0.0
H31 H 0.4143 0.8917 0.063 0.0
O32 O 0.17973 0.95683 0.02876 0.0
C33 C 0.32809 0.96122 0.01714 0.0
Co34 Co 0.53651 0.74221 0.29479 0.0
Co35 Co 0.54033 0.83855 0.31791 0.0
C36 C 0.46201 0.77513 0.3264 0.0
O37 O 0.47962 0.7443 0.31372 0.0
O38 O 0.48176 0.81336 0.32934 0.0
C39 C 0.52193 0.64567 0.2889 0.0
O40 O 0.50558 0.64762 0.30991 0.0
C41 C 0.54532 0.90381 0.35575 0.0
C42 C 0.57738 0.96343 0.33902 0.0
C43 C 0.56203 0.94736 0.36005 0.0
N44 N 0.55107 0.89464 0.33334 0.0
N45 N 0.56932 0.93074 0.32332 0.0
C46 C 0.52911 0.86923 0.37285 0.0
H47 H 0.49293 0.87648 0.37736 0.0
H48 H 0.53123 0.83431 0.36555 0.0
H49 H 0.54983 0.87091 0.38876 0.0
C50 C 0.62717 0.73342 0.31719 0.0
N51 N 0.58839 0.75652 0.31269 0.0
N52 N 0.59027 0.797 0.32249 0.0
C53 C 0.6305 0.80086 0.33364 0.0
C54 C 0.65531 0.7607 0.33063 0.0
C55 C 0.63786 0.68732 0.30749 0.0
H56 H 0.62764 0.68601 0.28918 0.0
H57 H 0.61768 0.66123 0.31688 0.0
H58 H 0.67478 0.6791 0.3089 0.0
O59 O 0.5324 0.78531 0.26876 0.0
O60 O 0.53383 0.85371 0.28508 0.0
H61 H 0.6435 0.87249 0.33682 0.0
H62 H 0.67783 0.83771 0.35578 0.0
C63 C 0.64382 0.8415 0.34772 0.0
H64 H 0.61862 0.84612 0.3617 0.0
H65 H 0.57801 0.93232 0.30596 0.0
O66 O 0.5398 0.68119 0.28019 0.0
C67 C 0.53157 0.8286 0.26731 0.0
Co68 Co 0.74937 0.02787 0.54686 0.0
Co69 Co 0.65105 0.03117 0.56819 0.0
C70 C 0.71492 0.95326 0.57731 0.0
O71 O 0.74681 0.97135 0.56552 0.0
O72 O 0.67607 0.97243 0.57942 0.0
C73 C 0.84693 0.01569 0.54248 0.0
O74 O 0.8443 0.00026 0.56361 0.0
C75 C 0.58446 0.03512 0.60555 0.0
C76 C 0.52445 0.06583 0.58853 0.0
C77 C 0.54035 0.05091 0.60964 0.0
N78 N 0.59408 0.04097 0.58319 0.0
N79 N 0.55778 0.05841 0.573 0.0
C80 C 0.61906 0.01967 0.6228 0.0
H81 H 0.65417 0.02233 0.61565 0.0
H82 H 0.61666 0.04042 0.6387 0.0
H83 H 0.61237 0.98349 0.62726 0.0
C84 C 0.75608 0.11797 0.56972 0.0
N85 N 0.73342 0.07928 0.56471 0.0
N86 N 0.69215 0.08098 0.5738 0.0
C87 C 0.6873 0.12107 0.58499 0.0
C88 C 0.72768 0.14588 0.58277 0.0
C89 C 0.80284 0.12889 0.56077 0.0
H90 H 0.8053 0.11903 0.54243 0.0
H91 H 0.82847 0.10866 0.57042 0.0
H92 H 0.81089 0.16571 0.56251 0.0
O93 O 0.70774 0.02331 0.52036 0.0
O94 O 0.63776 0.02619 0.53505 0.0
H95 H 0.61511 0.13311 0.58685 0.0
H96 H 0.6481 0.16868 0.60606 0.0
C97 C 0.64538 0.13437 0.59825 0.0
H98 H 0.64015 0.10977 0.61238 0.0
H99 H 0.55644 0.06698 0.55563 0.0
O100 O 0.81127 0.03188 0.5331 0.0
C101 C 0.66453 0.02335 0.51787 0.0
Co102 Co 0.45655 0.23996 0.79553 0.0
Co103 Co 0.45464 0.14258 0.81753 0.0
C104 C 0.53227 0.20748 0.82567 0.0
O105 O 0.51361 0.23873 0.81378 0.0
O106 O 0.51342 0.16868 0.82815 0.0
C107 C 0.46694 0.33723 0.79094 0.0
O108 O 0.48154 0.33515 0.81222 0.0
C109 C 0.45194 0.07851 0.8558 0.0
C110 C 0.42432 0.01633 0.83947 0.0
C111 C 0.43797 0.03411 0.86045 0.0
N112 N 0.44627 0.08643 0.83328 0.0
N113 N 0.43065 0.04888 0.82352 0.0
C114 C 0.46588 0.11467 0.87257 0.0
H115 H 0.46249 0.14907 0.86481 0.0
H116 H 0.44461 0.11288 0.88835 0.0
H117 H 0.50217 0.10934 0.87739 0.0
C118 C 0.3668 0.24678 0.81898 0.0
N119 N 0.4056 0.22422 0.81383 0.0
N120 N 0.40431 0.18327 0.8231 0.0
C121 C 0.36431 0.17849 0.83449 0.0
C122 C 0.33924 0.21866 0.8323 0.0
C123 C 0.35542 0.29318 0.80993 0.0
H124 H 0.36487 0.29525 0.79151 0.0
H125 H 0.37577 0.31905 0.81935 0.0
H126 H 0.31851 0.30111 0.81188 0.0
O127 O 0.46099 0.19743 0.76932 0.0
O128 O 0.45912 0.12803 0.78443 0.0
H129 H 0.35451 0.10618 0.83678 0.0
H130 H 0.31629 0.1387 0.85499 0.0
C131 C 0.35134 0.13681 0.84786 0.0
H132 H 0.37501 0.133 0.8625 0.0
H133 H 0.4227 0.04604 0.80612 0.0
O134 O 0.45177 0.30125 0.78145 0.0
C135 C 0.46135 0.15424 0.76708 0.0
Co136 Co 0.7478 0.52839 0.68303 0.0
Co137 Co 0.84627 0.53131 0.66189 0.0
C138 C 0.78285 0.45292 0.65314 0.0
O139 O 0.75085 0.47131 0.66478 0.0
O140 O 0.82165 0.47211 0.65097 0.0
C141 C 0.65018 0.51666 0.68673 0.0
O142 O 0.65339 0.50144 0.66556 0.0
C143 C 0.91264 0.53478 0.62449 0.0
C144 C 0.97248 0.56644 0.64122 0.0
C145 C 0.95649 0.55099 0.6202 0.0
N146 N 0.90321 0.54092 0.64685 0.0
N147 N 0.93944 0.55889 0.65688 0.0
C148 C 0.87796 0.5189 0.60737 0.0
H149 H 0.88487 0.48269 0.60296 0.0
H150 H 0.84291 0.52145 0.6146 0.0
H151 H 0.88004 0.53943 0.59141 0.0
C152 C 0.74106 0.61797 0.65984 0.0
N153 N 0.76367 0.57927 0.66489 0.0
N154 N 0.80499 0.58083 0.65587 0.0
C155 C 0.80991 0.62083 0.64466 0.0
C156 C 0.76955 0.64572 0.64681 0.0
C157 C 0.69441 0.6292 0.66887 0.0
H158 H 0.69206 0.61949 0.68723 0.0
H159 H 0.66862 0.60904 0.65929 0.0
H160 H 0.6865 0.66605 0.66713 0.0
O161 O 0.78917 0.52522 0.70967 0.0
O162 O 0.85929 0.52765 0.69511 0.0
H163 H 0.88208 0.63309 0.64307 0.0
H164 H 0.84924 0.66832 0.62366 0.0
C165 C 0.85199 0.63411 0.63154 0.0
H166 H 0.85755 0.60938 0.61747 0.0
H167 H 0.94085 0.56786 0.67421 0.0
O168 O 0.68563 0.5325 0.69646 0.0
C169 C 0.83236 0.52558 0.71226 0.0
Co170 Co 0.95463 0.24692 0.93187 0.0
Co171 Co 0.95481 0.34511 0.91104 0.0
C172 C 0.03206 0.27989 0.90262 0.0
O173 O 0.0125 0.24845 0.91405 0.0
O174 O 0.01385 0.31908 0.90043 0.0
C175 C 0.96276 0.14922 0.93475 0.0
O176 O 0.97782 0.15231 0.91354 0.0
C177 C 0.95425 0.41156 0.87392 0.0
C178 C 0.92344 0.47198 0.89061 0.0
C179 C 0.93924 0.45571 0.86966 0.0
N180 N 0.94716 0.40224 0.8962 0.0
N181 N 0.92973 0.43879 0.90622 0.0
C182 C 0.96977 0.37663 0.85678 0.0
H183 H 0.00632 0.38265 0.85258 0.0
H184 H 0.96619 0.34172 0.86389 0.0
H185 H 0.94966 0.37926 0.84071 0.0
C186 C 0.86561 0.24245 0.908 0.0
N187 N 0.90467 0.26411 0.91342 0.0
N188 N 0.90438 0.30533 0.90445 0.0
C189 C 0.86485 0.31112 0.89288 0.0
C190 C 0.83898 0.27141 0.89473 0.0
C191 C 0.85287 0.19631 0.91695 0.0
H192 H 0.86223 0.19373 0.93534 0.0
H193 H 0.87241 0.16994 0.90738 0.0
H194 H 0.81574 0.18953 0.91512 0.0
O195 O 0.95801 0.28772 0.95876 0.0
O196 O 0.95769 0.35769 0.94433 0.0
H197 H 0.8544 0.3834 0.89133 0.0
H198 H 0.81874 0.35148 0.8717 0.0
C199 C 0.85291 0.35339 0.87976 0.0
H200 H 0.87818 0.35827 0.86583 0.0
H201 H 0.9202 0.44035 0.92349 0.0
O202 O 0.94845 0.18494 0.94484 0.0
C203 C 0.9586 0.3308 0.96144 0.0
Co204 Co 0.23499 0.46141 0.17935 0.0
Co205 Co 0.13465 0.45827 0.16091 0.0
C206 C 0.19681 0.53827 0.15205 0.0
O207 O 0.22997 0.51982 0.16266 0.0
O208 O 0.15826 0.51839 0.1504 0.0
C209 C 0.33183 0.47744 0.18314 0.0
O210 O 0.32672 0.49853 0.16343 0.0
C211 C 0.07028 0.45339 0.12345 0.0
C212 C 0.0071 0.42845 0.14012 0.0
C213 C 0.02571 0.44 0.11898 0.0
N214 N 0.07762 0.44986 0.14609 0.0
N215 N 0.03954 0.43579 0.15607 0.0
C216 C 0.10722 0.46412 0.10643 0.0
H217 H 0.14146 0.4607 0.1144 0.0
H218 H 0.10489 0.44117 0.09131 0.0
H219 H 0.10304 0.49981 0.10045 0.0
C220 C 0.24157 0.37522 0.15282 0.0
N221 N 0.21845 0.41223 0.16013 0.0
N222 N 0.17569 0.40956 0.15323 0.0
C223 C 0.16996 0.3699 0.14181 0.0
C224 C 0.21161 0.34698 0.14095 0.0
C225 C 0.29157 0.36796 0.1568 0.0
H226 H 0.29679 0.35592 0.17465 0.0
H227 H 0.31007 0.4007 0.15473 0.0
H228 H 0.30603 0.34254 0.14466 0.0
O229 O 0.19505 0.46184 0.20688 0.0
O230 O 0.12359 0.45958 0.19424 0.0
H231 H 0.12483 0.31408 0.13307 0.0
H232 H 0.11663 0.36566 0.11686 0.0
C233 C 0.12459 0.35188 0.13411 0.0
H234 H 0.09739 0.36251 0.14625 0.0
H235 H 0.0363 0.42935 0.17364 0.0
O236 O 0.29792 0.45644 0.19182 0.0
C237 C 0.15215 0.46079 0.21064 0.0
Co238 Co 0.03643 0.73661 0.4326 0.0
Co239 Co 0.03884 0.63845 0.4116 0.0
C240 C 0.96121 0.70273 0.40226 0.0
O241 O 0.97971 0.73452 0.4139 0.0
O242 O 0.98004 0.66375 0.40036 0.0
C243 C 0.02538 0.83416 0.43673 0.0
O244 O 0.0099 0.83165 0.41562 0.0
C245 C 0.04068 0.57157 0.37462 0.0
C246 C 0.07385 0.51234 0.3911 0.0
C247 C 0.05675 0.52779 0.37033 0.0
N248 N 0.04825 0.58147 0.39678 0.0
N249 N 0.06718 0.54563 0.40669 0.0
C250 C 0.02389 0.6058 0.35751 0.0
H251 H 0.02785 0.64098 0.36425 0.0
H252 H 0.04294 0.60267 0.34108 0.0
H253 H 0.98711 0.59954 0.35411 0.0
C254 C 0.12718 0.7421 0.40982 0.0
N255 N 0.088 0.72007 0.41481 0.0
N256 N 0.0891 0.67895 0.40568 0.0
C257 C 0.12913 0.67367 0.39436 0.0
C258 C 0.15471 0.7135 0.39664 0.0
C259 C 0.13896 0.78835 0.41896 0.0
H260 H 0.1281 0.79102 0.43717 0.0
H261 H 0.12006 0.81456 0.40905 0.0
H262 H 0.17618 0.79526 0.41774 0.0
O263 O 0.03144 0.69541 0.45928 0.0
O264 O 0.03397 0.62548 0.4448 0.0
H265 H 0.14232 0.6019 0.39242 0.0
H266 H 0.17495 0.63523 0.37199 0.0
C267 C 0.1416 0.63193 0.38086 0.0
H268 H 0.11537 0.62599 0.36758 0.0
H269 H 0.07732 0.54463 0.42385 0.0
O270 O 0.04107 0.79841 0.44619 0.0
C271 C 0.03128 0.65232 0.46191 0.0
H272 H 0.06265 0.01165 0.05099 0.0
H273 H 0.00786 0.07136 0.9215 0.0
H274 H 0.13104 0.95062 -0.00722 0.0
H275 H 0.94023 0.13331 0.97969 0.0
H276 H 0.03929 0.01319 0.94694 0.0
H277 H 0.00454 0.04211 0.02516 0.0
C278 C 0.06498 0.00384 0.03285 0.0
C279 C 0.10243 0.97954 0.02397 0.0
C280 C 0.01686 0.039 0.95409 0.0
C281 C 0.03633 0.01475 -0.00573 0.0
C282 C 0.99877 0.0722 0.93953 0.0
C283 C 0.97237 0.10799 0.94856 0.0
C284 C 0.00874 0.04186 0.97784 0.0
C285 C 0.96126 0.10692 0.97203 0.0
C286 C 0.03179 0.02135 0.01808 0.0
C287 C 0.10329 0.97001 0.00034 0.0
N288 N 0.98023 0.07497 0.98593 0.0
N289 N 0.07125 0.98836 0.98626 0.0
H290 H 0.34879 0.44831 0.22702 0.0
H291 H 0.54446 0.63378 0.24359 0.0
H292 H 0.40791 0.52744 0.17197 0.0
H293 H 0.47122 0.56968 0.29934 0.0
H294 H 0.50964 0.57987 0.2169 0.0
H295 H 0.40777 0.47709 0.25284 0.0
C296 C 0.37469 0.47102 0.22021 0.0
C297 C 0.37276 0.48628 0.19739 0.0
C298 C 0.50179 0.57708 0.23503 0.0
C299 C 0.44021 0.51959 0.22696 0.0
C300 C 0.52177 0.6078 0.25032 0.0
C301 C 0.50992 0.60697 0.2737 0.0
C302 C 0.46963 0.54536 0.24314 0.0
C303 C 0.48081 0.57209 0.28142 0.0
C304 C 0.40832 0.48754 0.23501 0.0
C305 C 0.40759 0.51532 0.18952 0.0
N306 N 0.46104 0.54318 0.26612 0.0
N307 N 0.43944 0.5316 0.20437 0.0
H308 H 0.98016 0.91247 0.42449 0.0
H309 H 0.92489 0.96958 0.55463 0.0
H310 H 0.0464 0.84771 0.48203 0.0
H311 H 0.86046 0.03615 0.49709 0.0
H312 H 0.98172 0.93719 0.52848 0.0
H313 H 0.94876 0.96987 0.45056 0.0
C314 C 0.9889 0.91081 0.44252 0.0
C315 C 0.01509 0.87457 0.45114 0.0
C316 C 0.95564 0.95954 0.52161 0.0
C317 C 0.97873 0.93986 0.48116 0.0
C318 C 0.92319 0.97818 0.53657 0.0
C319 C 0.88718 0.00476 0.52798 0.0
C320 C 0.95182 0.96727 0.49788 0.0
C321 C 0.8871 0.01513 0.50444 0.0
C322 C 0.97083 0.94358 0.45744 0.0
C323 C 0.02567 0.87454 0.47466 0.0
N324 N 0.91836 0.99569 0.49016 0.0
N325 N 0.00677 0.90613 0.48889 0.0
H326 H 0.5725 0.47095 0.67382 0.0
H327 H 0.51111 0.41595 0.80347 0.0
H328 H 0.63497 0.53745 0.73198 0.0
H329 H 0.4482 0.34982 0.74532 0.0
H330 H 0.54368 0.47289 0.7776 0.0
H331 H 0.51441 0.43915 0.6994 0.0
C332 C 0.57351 0.47966 0.69188 0.0
C333 C 0.60933 0.50604 0.70083 0.0
C334 C 0.52208 0.4464 0.77053 0.0
C335 C 0.54322 0.46926 0.73028 0.0
C336 C 0.50333 0.41389 0.78533 0.0
C337 C 0.47776 0.37739 0.77651 0.0
C338 C 0.51547 0.44217 0.74673 0.0
C339 C 0.46843 0.37686 0.75286 0.0
C340 C 0.54034 0.46137 0.70652 0.0
C341 C 0.60851 0.51657 0.72436 0.0
N342 N 0.48796 0.40822 0.73876 0.0
N343 N 0.57653 0.49748 0.73832 0.0
H344 H 0.36787 0.97765 0.87162 0.0
H345 H 0.41697 0.98424 0.00654 0.0
H346 H 0.48762 0.0412 0.90066 0.0
H347 H 0.28948 0.94255 0.97574 0.0
H348 H 0.4498 0.99338 0.96798 0.0
H349 H 0.34619 0.95106 0.90967 0.0
C350 C 0.38988 0.98573 0.88599 0.0
C351 C 0.42879 0.01305 0.88307 0.0
C352 C 0.41478 0.98185 0.96975 0.0
C353 C 0.40391 0.98299 0.92682 0.0
C354 C 0.39607 0.97655 -0.00829 0.0
C355 C 0.35024 0.9632 -0.00566 0.0
C356 C 0.38751 0.97329 0.95039 0.0
C357 C 0.32475 0.95357 0.97455 0.0
C358 C 0.37732 0.97073 0.90776 0.0
C359 C 0.45627 0.02191 0.90229 0.0
N360 N 0.34365 0.95901 0.95347 0.0
N361 N 0.443 0.00741 0.92345 0.0
H362 H 0.55764 0.79449 0.22565 0.0
H363 H 0.39995 0.95039 0.15413 0.0
H364 H 0.49284 0.91103 0.25738 0.0
H365 H 0.5252 0.89971 0.12395 0.0
H366 H 0.42982 0.93344 0.19196 0.0
H367 H 0.54269 0.8279 0.18784 0.0
C368 C 0.54055 0.82723 0.22463 0.0
C369 C 0.52613 0.84995 0.24459 0.0
C370 C 0.45122 0.92719 0.17707 0.0
C371 C 0.50853 0.88778 0.20162 0.0
C372 C 0.43453 0.93763 0.15534 0.0
C373 C 0.46081 0.92823 0.13567 0.0
C374 C 0.49363 0.90538 0.17916 0.0
C375 C 0.50401 0.90808 0.13863 0.0
C376 C 0.53237 0.84635 0.20313 0.0
C377 C 0.50446 0.89244 0.24238 0.0
N378 N 0.51884 0.89665 0.15996 0.0
N379 N 0.49553 0.90965 0.22122 0.0
H380 H 0.63704 0.99663 0.37162 0.0
H381 H 0.57551 0.0068 0.50536 0.0
H382 H 0.50956 0.94698 0.39947 0.0
H383 H 0.71 0.03133 0.47709 0.0
H384 H 0.5462 0.99643 0.46634 0.0
H385 H 0.6588 0.02289 0.40976 0.0
C386 C 0.61339 0.99165 0.38575 0.0
C387 C 0.57201 0.96841 0.38253 0.0
C388 C 0.58204 0.00436 0.46874 0.0
C389 C 0.59685 0.99806 0.42628 0.0
C390 C 0.5988 0.01031 0.49097 0.0
C391 C 0.6454 0.01945 0.4945 0.0
C392 C 0.61205 0.00796 0.44997 0.0
C393 C 0.67396 0.02381 0.47523 0.0
C394 C 0.62597 0.00639 0.40755 0.0
C395 C 0.54252 0.96325 0.40139 0.0
N396 N 0.65685 0.01787 0.45383 0.0
N397 N 0.55572 0.97753 0.42257 0.0
H398 H 0.47983 0.06546 0.75488 0.0
H399 H 0.48867 0.12453 0.62097 0.0
H400 H 0.45129 0.19823 0.72616 0.0
H401 H 0.54124 -0.00104 0.64911 0.0
H402 H 0.46125 0.14607 0.659 0.0
H403 H 0.4906 0.03553 0.71594 0.0
C404 C 0.47548 0.08822 0.74041 0.0
C405 C 0.46517 0.13456 0.74379 0.0
C406 C 0.47864 0.1137 0.65689 0.0
C407 C 0.47714 0.10051 0.69934 0.0
C408 C 0.49406 0.10124 0.63514 0.0
C409 C 0.51849 0.06053 0.63203 0.0
C410 C 0.48752 0.08514 0.67568 0.0
C411 C 0.52409 0.03147 0.65094 0.0
C412 C 0.48167 0.07112 0.71822 0.0
C413 C 0.45977 0.16242 0.72442 0.0
N414 N 0.50917 0.04456 0.67207 0.0
N415 N 0.466 0.145 0.70307 0.0
H416 H 0.99318 0.45498 0.83083 0.0
H417 H 0.78673 0.53807 0.75269 0.0
H418 H 0.86459 0.50481 0.85735 0.0
H419 H 0.92092 0.50829 0.72531 0.0
H420 H 0.81693 0.53041 0.79135 0.0
H421 H 0.97029 0.47928 0.79232 0.0
C422 C 0.96024 0.4712 0.82854 0.0
C423 C 0.93014 0.47674 0.84713 0.0
C424 C 0.83995 0.52586 0.77693 0.0
C425 C 0.90397 0.50496 0.80336 0.0
C426 C 0.82264 0.53001 0.7548 0.0
C427 C 0.85123 0.5233 0.73572 0.0
C428 C 0.88613 0.51437 0.78008 0.0
C429 C 0.89761 0.51349 0.73955 0.0
C430 C 0.94731 0.48532 0.80661 0.0
C431 C 0.88863 0.49946 0.84343 0.0
N432 N 0.91355 0.50882 0.76133 0.0
N433 N 0.87648 0.51212 0.82192 0.0
H434 H 0.94566 0.28548 0.00187 0.0
H435 H 0.02973 0.49162 0.07979 0.0
H436 H 0.97611 0.41904 0.97457 0.0
H437 H 0.97556 0.36585 0.1069 0.0
H438 H 0.00631 0.46795 0.04127 0.0
H439 H 0.95306 0.31593 0.04058 0.0
C440 C 0.95379 0.32129 0.00401 0.0
C441 C 0.96076 0.34965 0.98493 0.0
C442 C 0.9991 0.44574 0.05568 0.0
C443 C 0.96935 0.38477 0.02931 0.0
C444 C 0.0127 0.45912 0.07761 0.0
C445 C 0.00553 0.43008 0.09637 0.0
C446 C 0.97846 0.40292 0.05257 0.0
C447 C 0.98203 0.38904 0.09281 0.0
C448 C 0.95778 0.33872 0.02615 0.0
C449 C 0.9707 0.39589 0.98879 0.0
N450 N 0.96993 0.37634 0.07126 0.0
N451 N 0.97517 0.41193 0.01056 0.0
H452 H 0.20187 0.44898 0.24981 0.0
H453 H 0.9996 0.52522 0.333 0.0
H454 H 0.0644 0.4745 0.22606 0.0
H455 H 0.13233 0.48143 0.35645 0.0
H456 H 0.01998 0.50078 0.29408 0.0
H457 H 0.17493 0.45529 0.28926 0.0
C458 C 0.16594 0.45576 0.25288 0.0
C459 C 0.13544 0.46176 0.23459 0.0
C460 C 0.04445 0.49605 0.30779 0.0
C461 C 0.10433 0.46914 0.27982 0.0
C462 C 0.03292 0.51022 0.32995 0.0
C463 C 0.06484 0.50644 0.34775 0.0
C464 C 0.08825 0.47817 0.30352 0.0
C465 C 0.1069 0.48537 0.34312 0.0
C466 C 0.15051 0.45915 0.27545 0.0
C467 C 0.08916 0.46992 0.23965 0.0
N468 N 0.11768 0.47266 0.32138 0.0
N469 N 0.07509 0.47387 0.26182 0.0
H470 H 0.01493 0.56359 0.47473 0.0
H471 H 0.00584 0.62578 0.60836 0.0
H472 H 0.0393 0.69804 0.50255 0.0
H473 H 0.95625 0.49829 0.58098 0.0
H474 H 0.03178 0.64734 0.57008 0.0
H475 H 0.00502 0.53459 0.51385 0.0
C476 C 0.01849 0.58694 0.48903 0.0
C477 C 0.02747 0.63344 0.48535 0.0
C478 C 0.01539 0.61453 0.57243 0.0
C479 C 0.01652 0.60043 0.53002 0.0
C480 C 0.00084 0.60207 0.59431 0.0
C481 C 0.9777 0.56075 0.5977 0.0
C482 C 0.00694 0.58535 0.55379 0.0
C483 C 0.97249 0.53119 0.57893 0.0
C484 C 0.01281 0.57036 0.51133 0.0
C485 C 0.03189 0.66207 0.50453 0.0
N486 N 0.98656 0.54427 0.55767 0.0
N487 N 0.02623 0.64513 0.526 0.0
H488 H 0.13131 0.59727 0.13597 0.0
H489 H 0.31221 0.77375 0.08487 0.0
H490 H 0.27745 0.58231 0.14351 0.0
H491 H 0.17362 0.81322 0.10087 0.0
H492 H 0.29752 0.6986 0.10133 0.0
H493 H 0.14375 0.67215 0.11827 0.0
C494 C 0.16597 0.60965 0.13388 0.0
C495 C 0.20341 0.58351 0.14129 0.0
C496 C 0.27029 0.72366 0.10127 0.0
C497 C 0.21773 0.66869 0.12089 0.0
C498 C 0.27869 0.76658 0.09195 0.0
C499 C 0.24424 0.79985 0.09183 0.0
C500 C 0.22688 0.71362 0.11024 0.0
C501 C 0.20103 0.78838 0.10061 0.0
C502 C 0.17298 0.65239 0.12385 0.0
C503 C 0.24755 0.6013 0.13817 0.0
N504 N 0.19351 0.74611 0.10951 0.0
N505 N 0.25347 0.64264 0.12812 0.0
H506 H 0.92239 0.78488 0.39131 0.0
H507 H 0.68222 0.6842 0.35376 0.0
H508 H 0.89906 0.63966 0.38713 0.0
H509 H 0.73306 0.81208 0.32762 0.0
H510 H 0.75792 0.66865 0.37019 0.0
H511 H 0.84871 0.79784 0.37251 0.0
C512 C 0.90176 0.75573 0.38648 0.0
C513 C 0.91689 0.71112 0.39079 0.0
C514 C 0.75245 0.70003 0.3608 0.0
C515 C 0.8325 0.72577 0.36952 0.0
C516 C 0.70942 0.70884 0.3514 0.0
C517 C 0.70137 0.74975 0.33962 0.0
C518 C 0.78731 0.73271 0.35867 0.0
C519 C 0.73764 0.78064 0.33707 0.0
C520 C 0.85988 0.76316 0.37566 0.0
C521 C 0.88879 0.67462 0.38406 0.0
N522 N 0.77892 0.77177 0.34676 0.0
N523 N 0.84773 0.68275 0.37394 0.0
H524 H 0.80248 0.1727 0.60728 0.0
H525 H 0.70088 0.41383 0.64207 0.0
H526 H 0.67645 0.22344 0.57876 0.0
H527 H 0.84658 0.39042 0.6389 0.0
H528 H 0.68845 0.33958 0.6238 0.0
H529 H 0.81735 0.2486 0.62356 0.0
C530 C 0.77808 0.19991 0.6044 0.0
C531 C 0.7379 0.19183 0.59197 0.0
C532 C 0.72311 0.35086 0.62706 0.0
C533 C 0.75414 0.27794 0.6108 0.0
C534 C 0.73024 0.39305 0.63757 0.0
C535 C 0.77484 0.40831 0.64199 0.0
C536 C 0.76078 0.32334 0.62137 0.0
C537 C 0.81164 0.38004 0.63571 0.0
C538 C 0.7865 0.24303 0.6137 0.0
C539 C 0.70727 0.22808 0.58875 0.0
N540 N 0.80378 0.33868 0.62589 0.0
N541 N 0.71574 0.26948 0.59833 0.0
H542 H 0.3136 0.29358 0.85701 0.0
H543 H 0.06972 0.19711 0.89179 0.0
H544 H 0.26094 0.16815 0.82884 0.0
H545 H 0.09639 0.34185 0.88864 0.0
H546 H 0.14419 0.18283 0.8738 0.0
H547 H 0.23788 0.30968 0.87349 0.0
C548 C 0.28602 0.26952 0.85429 0.0
C549 C 0.2935 0.2292 0.84187 0.0
C550 C 0.13358 0.21768 0.87701 0.0
C551 C 0.20753 0.24688 0.8609 0.0
C552 C 0.09127 0.22586 0.88736 0.0
C553 C 0.07685 0.27074 0.8917 0.0
C554 C 0.16206 0.25457 0.87139 0.0
C555 C 0.10609 0.30672 0.88551 0.0
C556 C 0.24299 0.27866 0.8637 0.0
C557 C 0.25679 0.19905 0.83883 0.0
N558 N 0.14753 0.29785 0.87584 0.0
N559 N 0.21544 0.20824 0.84849 0.0
H560 H 0.69492 0.67308 0.62236 0.0
H561 H 0.7969 0.91416 0.58843 0.0
H562 H 0.82104 0.72302 0.65114 0.0
H563 H 0.65118 0.89107 0.59164 0.0
H564 H 0.80928 0.83982 0.60656 0.0
H565 H 0.68024 0.74922 0.60642 0.0
C566 C 0.7194 0.70016 0.62536 0.0
C567 C 0.75953 0.69179 0.63777 0.0
C568 C 0.77463 0.8512 0.60335 0.0
C569 C 0.7435 0.77819 0.61934 0.0
C570 C 0.76753 0.89345 0.59293 0.0
C571 C 0.72294 0.90879 0.58854 0.0
C572 C 0.73694 0.82373 0.60898 0.0
C573 C 0.68612 0.88061 0.59481 0.0
C574 C 0.71107 0.74342 0.61626 0.0
C575 C 0.79025 0.72788 0.64116 0.0
N576 N 0.69394 0.8392 0.60452 0.0
N577 N 0.78188 0.76945 0.63177 0.0
H578 H 0.59516 0.14475 0.84012 0.0
H579 H 0.76213 0.3242 0.89828 0.0
H580 H 0.57123 0.28988 0.83597 0.0
H581 H 0.81133 0.19706 0.87024 0.0
H582 H 0.68683 0.30895 0.88147 0.0
H583 H 0.66989 0.15995 0.85742 0.0
C584 C 0.60553 0.17978 0.84294 0.0
C585 C 0.57703 0.21614 0.83654 0.0
C586 C 0.7142 0.2845 0.87897 0.0
C587 C 0.662 0.23357 0.85652 0.0
C588 C 0.7571 0.29326 0.88841 0.0
C589 C 0.79304 0.26218 0.88524 0.0
C590 C 0.70699 0.24382 0.86679 0.0
C591 C 0.78442 0.22186 0.87302 0.0
C592 C 0.64819 0.18837 0.8527 0.0
C593 C 0.59225 0.26087 0.84053 0.0
N594 N 0.74215 0.21371 0.86428 0.0
N595 N 0.63363 0.26835 0.85041 0.0
H596 H 0.1855 0.31553 0.09885 0.0
H597 H 0.31403 0.07636 0.11124 0.0
H598 H 0.25849 0.27549 0.1598 0.0
H599 H 0.21032 0.1013 0.06018 0.0
H600 H 0.29967 0.15191 0.12736 0.0
H601 H 0.19945 0.23969 0.08251 0.0
C602 C 0.20442 0.29069 0.10878 0.0
C603 C 0.22098 0.30171 0.13066 0.0
C604 C 0.28002 0.14084 0.11264 0.0
C605 C 0.23755 0.2153 0.11203 0.0
C606 C 0.28837 0.09776 0.10333 0.0
C607 C 0.26353 0.08248 0.08423 0.0
C608 C 0.24686 0.16915 0.10267 0.0
C609 C 0.23023 0.1116 0.07494 0.0
C610 C 0.21243 0.24752 0.09945 0.0
C611 C 0.24577 0.26858 0.14272 0.0
N612 N 0.22303 0.15365 0.08417 0.0
N613 N 0.25341 0.22688 0.13322 0.0
H614 H 0.40092 0.83842 0.34238 0.0
H615 H 0.23112 0.65997 0.39967 0.0
H616 H 0.42135 0.69306 0.33601 0.0
H617 H 0.18385 0.78897 0.37329 0.0
H618 H 0.30659 0.67471 0.38275 0.0
H619 H 0.32636 0.82409 0.36026 0.0
C620 C 0.38984 0.8035 0.34484 0.0
C621 C 0.41733 0.76684 0.33763 0.0
C622 C 0.27963 0.69972 0.38067 0.0
C623 C 0.33249 0.75039 0.35831 0.0
C624 C 0.23662 0.69128 0.3902 0.0
C625 C 0.20108 0.72297 0.38749 0.0
C626 C 0.28745 0.74068 0.36887 0.0
C627 C 0.21039 0.76369 0.37575 0.0
C628 C 0.34726 0.79542 0.35494 0.0
C629 C 0.40115 0.7223 0.34119 0.0
N630 N 0.25276 0.77148 0.3669 0.0
N631 N 0.35988 0.7153 0.35142 0.0
loop_
_geom_bond_atom_site_label_1
_geom_bond_atom_site_label_2
_geom_bond_distance
_geom_bond_site_symmetry_2
_ccdc_geom_bond_type
Co0 O3 1.970 . S
Co0 N17 1.989 . S
Co0 O25 1.967 . S
Co0 O32 1.920 . S
Co1 O4 1.966 . S
Co1 N10 2.022 . S
Co1 N18 1.993 . S
Co1 O26 1.941 . S
C2 O3 1.258 . S
C2 O4 1.263 . S
O3 Co0 1.970 . S
O3 C2 1.258 . S
O4 Co1 1.966 . S
O4 C2 1.263 . S
C5 O6 1.235 . S
C5 O32 1.289 . S
O6 C5 1.235 . S
C7 C9 1.400 . S
C7 N10 1.351 . S
C7 C12 1.501 . S
C8 C9 1.387 1_565 S
C8 N11 1.341 . S
C9 C7 1.400 . S
C9 C8 1.387 1_545 S
N10 Co1 2.022 . S
N10 C7 1.351 . S
N10 N11 1.365 1_545 S
N11 C8 1.341 . S
N11 N10 1.365 1_565 S
N11 H31 0.862 . S
C12 C7 1.501 . S
C12 H13 0.961 . S
C12 H14 0.961 . S
C12 H15 0.960 . S
H13 C12 0.961 . S
H14 C12 0.961 . S
H15 C12 0.960 . S
C16 N17 1.342 1_565 S
C16 C20 1.401 . S
C16 C21 1.499 . S
N17 Co0 1.989 . S
N17 C16 1.342 1_545 S
N17 N18 1.388 . S
N18 Co1 1.993 . S
N18 N17 1.388 . S
N18 C19 1.346 1_545 S
C19 N18 1.346 1_565 S
C19 C20 1.396 . S
C19 C29 1.510 . S
C20 C16 1.401 . S
C20 C19 1.396 . S
C21 C16 1.499 . S
C21 H22 0.959 1_565 S
C21 H23 0.960 . S
C21 H24 0.961 . S
H22 C21 0.959 1_545 S
H23 C21 0.960 . S
H24 C21 0.961 . S
O25 Co0 1.967 . S
O25 C33 1.258 . S
O26 Co1 1.941 . S
O26 C33 1.266 . S
H27 C29 0.959 . S
H28 C29 0.961 . S
C29 C19 1.510 . S
C29 H27 0.959 . S
C29 H28 0.961 . S
C29 H30 0.960 . S
H30 C29 0.960 . S
H31 N11 0.862 . S
O32 Co0 1.920 . S
O32 C5 1.289 . S
C33 O25 1.258 . S
C33 O26 1.266 . S
Co34 O37 1.970 . S
Co34 N51 1.989 . S
Co34 O59 1.967 . S
Co34 O66 1.920 . S
Co35 O38 1.966 . S
Co35 N44 2.022 . S
Co35 N52 1.993 . S
Co35 O60 1.941 . S
C36 O37 1.258 . S
C36 O38 1.263 . S
O37 Co34 1.970 . S
O37 C36 1.258 . S
O38 Co35 1.966 . S
O38 C36 1.263 . S
C39 O40 1.235 . S
C39 O66 1.289 . S
O40 C39 1.235 . S
C41 C43 1.400 . S
C41 N44 1.351 . S
C41 C46 1.501 . S
C42 C43 1.387 . S
C42 N45 1.341 . S
C43 C41 1.400 . S
C43 C42 1.387 . S
N44 Co35 2.022 . S
N44 C41 1.351 . S
N44 N45 1.365 . S
N45 C42 1.341 . S
N45 N44 1.365 . S
N45 H65 0.862 . S
C46 C41 1.501 . S
C46 H47 0.961 . S
C46 H48 0.961 . S
C46 H49 0.960 . S
H47 C46 0.961 . S
H48 C46 0.961 . S
H49 C46 0.960 . S
C50 N51 1.342 . S
C50 C54 1.401 . S
C50 C55 1.499 . S
N51 Co34 1.989 . S
N51 C50 1.342 . S
N51 N52 1.388 . S
N52 Co35 1.993 . S
N52 N51 1.388 . S
N52 C53 1.346 . S
C53 N52 1.346 . S
C53 C54 1.396 . S
C53 C63 1.510 . S
C54 C50 1.401 . S
C54 C53 1.396 . S
C55 C50 1.499 . S
C55 H56 0.959 . S
C55 H57 0.960 . S
C55 H58 0.961 . S
H56 C55 0.959 . S
H57 C55 0.960 . S
H58 C55 0.961 . S
O59 Co34 1.967 . S
O59 C67 1.258 . S
O60 Co35 1.941 . S
O60 C67 1.266 . S
H61 C63 0.959 . S
H62 C63 0.961 . S
C63 C53 1.510 . S
C63 H61 0.959 . S
C63 H62 0.961 . S
C63 H64 0.960 . S
H64 C63 0.960 . S
H65 N45 0.862 . S
O66 Co34 1.920 . S
O66 C39 1.289 . S
C67 O59 1.258 . S
C67 O60 1.266 . S
Co68 O71 1.970 . S
Co68 N85 1.989 . S
Co68 O93 1.967 . S
Co68 O100 1.920 . S
Co69 O72 1.966 . S
Co69 N78 2.022 . S
Co69 N86 1.993 . S
Co69 O94 1.941 . S
C70 O71 1.258 . S
C70 O72 1.263 . S
O71 Co68 1.970 . S
O71 C70 1.258 . S
O72 Co69 1.966 . S
O72 C70 1.263 . S
C73 O74 1.235 . S
C73 O100 1.289 . S
O74 C73 1.235 . S
C75 C77 1.400 . S
C75 N78 1.351 . S
C75 C80 1.501 . S
C76 C77 1.387 1_545 S
C76 N79 1.338 1_545 S
C77 C75 1.400 . S
C77 C76 1.387 1_565 S
N78 Co69 2.022 . S
N78 C75 1.351 . S
N78 N79 1.373 . S
N79 C76 1.338 1_565 S
N79 N78 1.373 . S
N79 H99 0.858 1_565 S
C80 C75 1.501 . S
C80 H81 0.961 . S
C80 H82 0.961 . S
C80 H83 0.960 . S
H81 C80 0.961 . S
H82 C80 0.961 . S
H83 C80 0.960 . S
C84 N85 1.342 1_545 S
C84 C88 1.401 . S
C84 C89 1.499 . S
N85 Co68 1.989 . S
N85 C84 1.342 1_565 S
N85 N86 1.388 . S
N86 Co69 1.993 . S
N86 N85 1.388 . S
N86 C87 1.346 1_565 S
C87 N86 1.346 1_545 S
C87 C88 1.396 . S
C87 C97 1.510 . S
C88 C84 1.401 . S
C88 C87 1.396 . S
C89 C84 1.499 . S
C89 H90 0.959 1_545 S
C89 H91 0.960 . S
C89 H92 0.961 . S
H90 C89 0.959 1_565 S
H91 C89 0.960 . S
H92 C89 0.961 . S
O93 Co68 1.967 . S
O93 C101 1.258 . S
O94 Co69 1.941 . S
O94 C101 1.266 . S
H95 C97 0.959 . S
H96 C97 0.961 . S
C97 C87 1.510 . S
C97 H95 0.959 . S
C97 H96 0.961 . S
C97 H98 0.960 . S
H98 C97 0.960 . S
H99 N79 0.858 1_545 S
O100 Co68 1.920 . S
O100 C73 1.289 . S
C101 O93 1.258 . S
C101 O94 1.266 . S
Co102 O105 1.970 . S
Co102 N119 1.989 . S
Co102 O127 1.967 . S
Co102 O134 1.920 . S
Co103 O106 1.966 . S
Co103 N112 2.022 . S
Co103 N120 1.993 . S
Co103 O128 1.941 . S
C104 O105 1.258 . S
C104 O106 1.263 . S
O105 Co102 1.970 . S
O105 C104 1.258 . S
O106 Co103 1.966 . S
O106 C104 1.263 . S
C107 O108 1.235 . S
C107 O134 1.289 . S
O108 C107 1.235 . S
C109 C111 1.400 . S
C109 N112 1.351 . S
C109 C114 1.501 . S
C110 C111 1.387 . S
C110 N113 1.341 . S
C111 C109 1.400 . S
C111 C110 1.387 . S
N112 Co103 2.022 . S
N112 C109 1.351 . S
N112 N113 1.365 . S
N113 C110 1.341 . S
N113 N112 1.365 . S
N113 H133 0.862 . S
C114 C109 1.501 . S
C114 H115 0.961 . S
C114 H116 0.961 . S
C114 H117 0.960 . S
H115 C114 0.961 . S
H116 C114 0.961 . S
H117 C114 0.960 . S
C118 N119 1.342 . S
C118 C122 1.401 . S
C118 C123 1.499 . S
N119 Co102 1.989 . S
N119 C118 1.342 . S
N119 N120 1.388 . S
N120 Co103 1.993 . S
N120 N119 1.388 . S
N120 C121 1.346 . S
C121 N120 1.346 . S
C121 C122 1.396 . S
C121 C131 1.510 . S
C122 C118 1.401 . S
C122 C121 1.396 . S
C123 C118 1.499 . S
C123 H124 0.959 . S
C123 H125 0.960 . S
C123 H126 0.961 . S
H124 C123 0.959 . S
H125 C123 0.960 . S
H126 C123 0.961 . S
O127 Co102 1.967 . S
O127 C135 1.258 . S
O128 Co103 1.941 . S
O128 C135 1.266 . S
H129 C131 0.959 . S
H130 C131 0.961 . S
C131 C121 1.510 . S
C131 H129 0.959 . S
C131 H130 0.961 . S
C131 H132 0.960 . S
H132 C131 0.960 . S
H133 N113 0.862 . S
O134 Co102 1.920 . S
O134 C107 1.289 . S
C135 O127 1.258 . S
C135 O128 1.266 . S
Co136 O139 1.970 . S
Co136 N153 1.989 . S
Co136 O161 1.967 . S
Co136 O168 1.920 . S
Co137 O140 1.966 . S
Co137 N146 2.022 . S
Co137 N154 1.993 . S
Co137 O162 1.941 . S
C138 O139 1.258 . S
C138 O140 1.263 . S
O139 Co136 1.970 . S
O139 C138 1.258 . S
O140 Co137 1.966 . S
O140 C138 1.263 . S
C141 O142 1.235 . S
C141 O168 1.289 . S
O142 C141 1.235 . S
C143 C145 1.400 . S
C143 N146 1.351 . S
C143 C148 1.501 . S
C144 C145 1.387 . S
C144 N147 1.341 . S
C145 C143 1.400 . S
C145 C144 1.387 . S
N146 Co137 2.022 . S
N146 C143 1.351 . S
N146 N147 1.365 . S
N147 C144 1.341 . S
N147 N146 1.365 . S
N147 H167 0.862 . S
C148 C143 1.501 . S
C148 H149 0.961 . S
C148 H150 0.961 . S
C148 H151 0.960 . S
H149 C148 0.961 . S
H150 C148 0.961 . S
H151 C148 0.960 . S
C152 N153 1.342 . S
C152 C156 1.401 . S
C152 C157 1.499 . S
N153 Co136 1.989 . S
N153 C152 1.342 . S
N153 N154 1.388 . S
N154 Co137 1.993 . S
N154 N153 1.388 . S
N154 C155 1.346 . S
C155 N154 1.346 . S
C155 C156 1.396 . S
C155 C165 1.510 . S
C156 C152 1.401 . S
C156 C155 1.396 . S
C157 C152 1.499 . S
C157 H158 0.959 . S
C157 H159 0.960 . S
C157 H160 0.961 . S
H158 C157 0.959 . S
H159 C157 0.960 . S
H160 C157 0.961 . S
O161 Co136 1.967 . S
O161 C169 1.258 . S
O162 Co137 1.941 . S
O162 C169 1.266 . S
H163 C165 0.959 . S
H164 C165 0.961 . S
C165 C155 1.510 . S
C165 H163 0.959 . S
C165 H164 0.961 . S
C165 H166 0.960 . S
H166 C165 0.960 . S
H167 N147 0.862 . S
O168 Co136 1.920 . S
O168 C141 1.289 . S
C169 O161 1.258 . S
C169 O162 1.266 . S
Co170 O173 1.970 . S
Co170 N187 1.989 . S
Co170 O195 1.967 . S
Co170 O202 1.920 . S
Co171 O174 1.966 . S
Co171 N180 2.022 . S
Co171 N188 1.993 . S
Co171 O196 1.941 . S
C172 O173 1.258 . S
C172 O174 1.263 . S
O173 Co170 1.970 . S
O173 C172 1.258 . S
O174 Co171 1.966 . S
O174 C172 1.263 . S
C175 O176 1.235 . S
C175 O202 1.289 . S
O176 C175 1.235 . S
C177 C179 1.400 . S
C177 N180 1.351 . S
C177 C182 1.501 . S
C178 C179 1.387 1_655 S
C178 N181 1.341 . S
C179 C177 1.400 . S
C179 C178 1.387 1_455 S
N180 Co171 2.022 . S
N180 C177 1.351 . S
N180 N181 1.365 1_455 S
N181 C178 1.341 . S
N181 N180 1.365 1_655 S
N181 H201 0.862 . S
C182 C177 1.501 . S
C182 H183 0.961 . S
C182 H184 0.961 . S
C182 H185 0.960 . S
H183 C182 0.961 . S
H184 C182 0.961 . S
H185 C182 0.960 . S
C186 N187 1.342 1_655 S
C186 C190 1.401 . S
C186 C191 1.499 . S
N187 Co170 1.989 . S
N187 C186 1.342 1_455 S
N187 N188 1.388 . S
N188 Co171 1.993 . S
N188 N187 1.388 . S
N188 C189 1.346 1_455 S
C189 N188 1.346 1_655 S
C189 C190 1.396 . S
C189 C199 1.510 . S
C190 C186 1.401 . S
C190 C189 1.396 . S
C191 C186 1.499 . S
C191 H192 0.959 1_655 S
C191 H193 0.960 . S
C191 H194 0.961 . S
H192 C191 0.959 1_455 S
H193 C191 0.960 . S
H194 C191 0.961 . S
O195 Co170 1.967 . S
O195 C203 1.258 . S
O196 Co171 1.941 . S
O196 C203 1.266 . S
H197 C199 0.959 . S
H198 C199 0.961 . S
C199 C189 1.510 . S
C199 H197 0.959 . S
C199 H198 0.961 . S
C199 H200 0.960 . S
H200 C199 0.960 . S
H201 N181 0.862 . S
O202 Co170 1.920 . S
O202 C175 1.289 . S
C203 O195 1.258 . S
C203 O196 1.266 . S
Co204 O207 1.970 . S
Co204 N221 1.989 . S
Co204 O229 1.967 . S
Co204 O236 1.920 . S
Co205 O208 1.966 . S
Co205 N214 2.022 . S
Co205 N222 1.993 . S
Co205 O230 1.941 . S
C206 O207 1.258 . S
C206 O208 1.263 . S
O207 Co204 1.970 . S
O207 C206 1.258 . S
O208 Co205 1.966 . S
O208 C206 1.263 . S
C209 O210 1.235 . S
C209 O236 1.289 . S
O210 C209 1.235 . S
C211 C213 1.400 . S
C211 N214 1.351 . S
C211 C216 1.501 . S
C212 C213 1.387 . S
C212 N215 1.341 . S
C213 C211 1.400 . S
C213 C212 1.387 . S
N214 Co205 2.022 . S
N214 C211 1.351 . S
N214 N215 1.365 . S
N215 C212 1.341 . S
N215 N214 1.365 . S
N215 H235 0.862 . S
C216 C211 1.501 . S
C216 H217 0.961 . S
C216 H218 0.961 . S
C216 H219 0.960 . S
H217 C216 0.961 . S
H218 C216 0.961 . S
H219 C216 0.960 . S
C220 N221 1.342 . S
C220 C224 1.401 . S
C220 C225 1.499 . S
N221 Co204 1.989 . S
N221 C220 1.342 . S
N221 N222 1.388 . S
N222 Co205 1.993 . S
N222 N221 1.388 . S
N222 C223 1.346 . S
C223 N222 1.346 . S
C223 C224 1.396 . S
C223 C233 1.510 . S
C224 C220 1.401 . S
C224 C223 1.396 . S
C225 C220 1.499 . S
C225 H226 0.959 . S
C225 H227 0.960 . S
C225 H228 0.961 . S
H226 C225 0.959 . S
H227 C225 0.960 . S
H228 C225 0.961 . S
O229 Co204 1.967 . S
O229 C237 1.258 . S
O230 Co205 1.941 . S
O230 C237 1.266 . S
H231 C233 0.959 . S
H232 C233 0.961 . S
C233 C223 1.510 . S
C233 H231 0.959 . S
C233 H232 0.961 . S
C233 H234 0.960 . S
H234 C233 0.960 . S
H235 N215 0.862 . S
O236 Co204 1.920 . S
O236 C209 1.289 . S
C237 O229 1.258 . S
C237 O230 1.266 . S
Co238 O241 1.970 . S
Co238 N255 1.989 . S
Co238 O263 1.967 . S
Co238 O270 1.920 . S
Co239 O242 1.966 . S
Co239 N248 2.022 . S
Co239 N256 1.993 . S
Co239 O264 1.941 . S
C240 O241 1.258 . S
C240 O242 1.263 . S
O241 Co238 1.970 . S
O241 C240 1.258 . S
O242 Co239 1.966 . S
O242 C240 1.263 . S
C243 O244 1.235 . S
C243 O270 1.289 . S
O244 C243 1.235 . S
C245 C247 1.400 . S
C245 N248 1.351 . S
C245 C250 1.501 . S
C246 C247 1.387 1_455 S
C246 N249 1.338 1_455 S
C247 C245 1.400 . S
C247 C246 1.387 1_655 S
N248 Co239 2.022 . S
N248 C245 1.351 . S
N248 N249 1.373 . S
N249 C246 1.338 1_655 S
N249 N248 1.373 . S
N249 H269 0.858 1_655 S
C250 C245 1.501 . S
C250 H251 0.961 . S
C250 H252 0.961 . S
C250 H253 0.960 . S
H251 C250 0.961 . S
H252 C250 0.961 . S
H253 C250 0.960 . S
C254 N255 1.342 1_455 S
C254 C258 1.401 . S
C254 C259 1.499 . S
N255 Co238 1.989 . S
N255 C254 1.342 1_655 S
N255 N256 1.388 . S
N256 Co239 1.993 . S
N256 N255 1.388 . S
N256 C257 1.346 1_655 S
C257 N256 1.346 1_455 S
C257 C258 1.396 . S
C257 C267 1.510 . S
C258 C254 1.401 . S
C258 C257 1.396 . S
C259 C254 1.499 . S
C259 H260 0.959 1_455 S
C259 H261 0.960 . S
C259 H262 0.961 . S
H260 C259 0.959 1_655 S
H261 C259 0.960 . S
H262 C259 0.961 . S
O263 Co238 1.967 . S
O263 C271 1.258 . S
O264 Co239 1.941 . S
O264 C271 1.266 . S
H265 C267 0.959 . S
H266 C267 0.961 . S
C267 C257 1.510 . S
C267 H265 0.959 . S
C267 H266 0.961 . S
C267 H268 0.960 . S
H268 C267 0.960 . S
H269 N249 0.858 1_455 S
O270 Co238 1.920 . S
O270 C243 1.289 . S
C271 O263 1.258 . S
C271 O264 1.266 . S
H272 C278 0.930 . S
H273 C282 0.930 . S
H274 C287 0.929 . S
H275 C285 0.929 . S
H276 C280 0.929 . S
H277 C286 0.929 . S
C278 H272 0.930 . S
C278 C279 1.367 . S
C278 C286 1.378 . S
C279 C278 1.367 . S
C279 C287 1.433 . S
C280 H276 0.929 . S
C280 C282 1.378 . S
C280 C284 1.350 . S
C281 C284 1.463 1_554 S
C281 C286 1.350 . S
C281 N289 1.427 . S
C282 H273 0.930 . S
C282 C280 1.378 . S
C282 C283 1.367 . S
C283 C282 1.367 . S
C283 C285 1.433 . S
C284 C280 1.350 . S
C284 C281 1.463 1_556 S
C284 N288 1.427 . S
C285 H275 0.929 . S
C285 C283 1.433 . S
C285 N288 1.384 . S
C286 H277 0.929 . S
C286 C278 1.378 . S
C286 C281 1.350 . S
C287 H274 0.929 . S
C287 C279 1.433 . S
C287 N289 1.384 . S
N288 C284 1.427 . S
N288 C285 1.384 . S
N289 C281 1.427 . S
N289 C287 1.384 . S
H290 C296 0.930 . S
H291 C300 0.930 . S
H292 C305 0.929 . S
H293 C303 0.929 . S
H294 C298 0.929 . S
H295 C304 0.929 . S
C296 H290 0.930 . S
C296 C297 1.367 . S
C296 C304 1.378 . S
C297 C296 1.367 . S
C297 C305 1.433 . S
C298 H294 0.929 . S
C298 C300 1.378 . S
C298 C302 1.350 . S
C299 C302 1.463 . S
C299 C304 1.350 . S
C299 N307 1.427 . S
C300 H291 0.930 . S
C300 C298 1.378 . S
C300 C301 1.367 . S
C301 C300 1.367 . S
C301 C303 1.433 . S
C302 C298 1.350 . S
C302 C299 1.463 . S
C302 N306 1.427 . S
C303 H293 0.929 . S
C303 C301 1.433 . S
C303 N306 1.384 . S
C304 H295 0.929 . S
C304 C296 1.378 . S
C304 C299 1.350 . S
C305 H292 0.929 . S
C305 C297 1.433 . S
C305 N307 1.384 . S
N306 C302 1.427 . S
N306 C303 1.384 . S
N307 C299 1.427 . S
N307 C305 1.384 . S
H308 C314 0.930 . S
H309 C318 0.930 . S
H310 C323 0.929 . S
H311 C321 0.929 . S
H312 C316 0.929 . S
H313 C322 0.929 . S
C314 H308 0.930 . S
C314 C315 1.367 . S
C314 C322 1.378 . S
C315 C314 1.367 . S
C315 C323 1.433 . S
C316 H312 0.929 . S
C316 C318 1.378 . S
C316 C320 1.350 . S
C317 C320 1.463 . S
C317 C322 1.350 . S
C317 N325 1.427 . S
C318 H309 0.930 . S
C318 C316 1.378 . S
C318 C319 1.367 . S
C319 C318 1.367 . S
C319 C321 1.433 . S
C320 C316 1.350 . S
C320 C317 1.463 . S
C320 N324 1.427 . S
C321 H311 0.929 . S
C321 C319 1.433 . S
C321 N324 1.384 . S
C322 H313 0.929 . S
C322 C314 1.378 . S
C322 C317 1.350 . S
C323 H310 0.929 . S
C323 C315 1.433 . S
C323 N325 1.384 . S
N324 C320 1.427 . S
N324 C321 1.384 . S
N325 C317 1.427 . S
N325 C323 1.384 . S
H326 C332 0.930 . S
H327 C336 0.930 . S
H328 C341 0.929 . S
H329 C339 0.929 . S
H330 C334 0.929 . S
H331 C340 0.929 . S
C332 H326 0.930 . S
C332 C333 1.367 . S
C332 C340 1.378 . S
C333 C332 1.367 . S
C333 C341 1.433 . S
C334 H330 0.929 . S
C334 C336 1.378 . S
C334 C338 1.350 . S
C335 C338 1.463 . S
C335 C340 1.350 . S
C335 N343 1.427 . S
C336 H327 0.930 . S
C336 C334 1.378 . S
C336 C337 1.367 . S
C337 C336 1.367 . S
C337 C339 1.433 . S
C338 C334 1.350 . S
C338 C335 1.463 . S
C338 N342 1.427 . S
C339 H329 0.929 . S
C339 C337 1.433 . S
C339 N342 1.384 . S
C340 H331 0.929 . S
C340 C332 1.378 . S
C340 C335 1.350 . S
C341 H328 0.929 . S
C341 C333 1.433 . S
C341 N343 1.384 . S
N342 C338 1.427 . S
N342 C339 1.384 . S
N343 C335 1.427 . S
N343 C341 1.384 . S
H344 C350 0.930 . S
H345 C354 0.930 . S
H346 C359 0.929 . S
H347 C357 0.929 . S
H348 C352 0.929 . S
H349 C358 0.929 . S
C350 H344 0.930 . S
C350 C351 1.367 . S
C350 C358 1.378 . S
C351 C350 1.367 . S
C351 C359 1.433 . S
C352 H348 0.929 . S
C352 C354 1.378 . S
C352 C356 1.350 . S
C353 C356 1.463 . S
C353 C358 1.350 1_554 S
C353 N361 1.427 1_554 S
C354 H345 0.930 . S
C354 C352 1.378 . S
C354 C355 1.367 . S
C355 C354 1.367 . S
C355 C357 1.433 . S
C356 C352 1.350 . S
C356 C353 1.463 . S
C356 N360 1.427 . S
C357 H347 0.929 . S
C357 C355 1.433 . S
C357 N360 1.384 . S
C358 H349 0.929 . S
C358 C350 1.378 . S
C358 C353 1.350 1_556 S
C359 H346 0.929 . S
C359 C351 1.433 . S
C359 N361 1.384 . S
N360 C356 1.427 . S
N360 C357 1.384 . S
N361 C353 1.427 1_556 S
N361 C359 1.384 . S
H362 C368 0.930 . S
H363 C372 0.930 . S
H364 C377 0.929 . S
H365 C375 0.929 . S
H366 C370 0.932 . S
H367 C376 0.929 . S
C368 H362 0.930 . S
C368 C369 1.367 . S
C368 C376 1.378 . S
C369 C368 1.367 . S
C369 C377 1.433 . S
C370 H366 0.932 . S
C370 C372 1.381 . S
C370 C374 1.343 1_545 S
C371 C374 1.463 . S
C371 C376 1.350 . S
C371 N379 1.427 . S
C372 H363 0.930 . S
C372 C370 1.381 . S
C372 C373 1.367 . S
C373 C372 1.367 . S
C373 C375 1.433 1_545 S
C374 C370 1.343 1_565 S
C374 C371 1.463 . S
C374 N378 1.427 . S
C375 H365 0.929 . S
C375 C373 1.433 1_565 S
C375 N378 1.384 . S
C376 H367 0.929 . S
C376 C368 1.378 . S
C376 C371 1.350 . S
C377 H364 0.929 . S
C377 C369 1.433 . S
C377 N379 1.384 . S
N378 C374 1.427 . S
N378 C375 1.384 . S
N379 C371 1.427 . S
N379 C377 1.384 . S
H380 C386 0.930 . S
H381 C390 0.930 . S
H382 C395 0.929 . S
H383 C393 0.929 . S
H384 C388 0.929 . S
H385 C394 0.929 . S
C386 H380 0.930 . S
C386 C387 1.367 . S
C386 C394 1.378 . S
C387 C386 1.367 . S
C387 C395 1.433 . S
C388 H384 0.929 . S
C388 C390 1.378 . S
C388 C392 1.350 . S
C389 C392 1.463 . S
C389 C394 1.350 . S
C389 N397 1.427 . S
C390 H381 0.930 . S
C390 C388 1.378 . S
C390 C391 1.367 . S
C391 C390 1.367 . S
C391 C393 1.433 . S
C392 C388 1.350 . S
C392 C389 1.463 . S
C392 N396 1.427 . S
C393 H383 0.929 . S
C393 C391 1.433 . S
C393 N396 1.384 . S
C394 H385 0.929 . S
C394 C386 1.378 . S
C394 C389 1.350 . S
C395 H382 0.929 . S
C395 C387 1.433 . S
C395 N397 1.384 . S
N396 C392 1.427 . S
N396 C393 1.384 . S
N397 C389 1.427 . S
N397 C395 1.384 . S
H398 C404 0.930 . S
H399 C408 0.930 . S
H400 C413 0.929 . S
H401 C411 0.929 . S
H402 C406 0.929 . S
H403 C412 0.929 1_565 S
C404 H398 0.930 . S
C404 C405 1.367 . S
C404 C412 1.378 . S
C405 C404 1.367 . S
C405 C413 1.433 . S
C406 H402 0.929 . S
C406 C408 1.378 . S
C406 C410 1.350 . S
C407 C410 1.463 . S
C407 C412 1.350 . S
C407 N415 1.427 . S
C408 H399 0.930 . S
C408 C406 1.378 . S
C408 C409 1.367 1_545 S
C409 C408 1.367 1_565 S
C409 C411 1.433 . S
C410 C406 1.350 . S
C410 C407 1.463 . S
C410 N414 1.427 1_545 S
C411 H401 0.929 . S
C411 C409 1.433 . S
C411 N414 1.384 . S
C412 H403 0.929 1_545 S
C412 C404 1.378 . S
C412 C407 1.350 . S
C413 H400 0.929 . S
C413 C405 1.433 . S
C413 N415 1.384 . S
N414 C410 1.427 1_565 S
N414 C411 1.384 . S
N415 C407 1.427 . S
N415 C413 1.384 . S
H416 C422 0.930 . S
H417 C426 0.930 . S
H418 C431 0.929 . S
H419 C429 0.929 . S
H420 C424 0.929 . S
H421 C430 0.929 . S
C422 H416 0.930 . S
C422 C423 1.367 . S
C422 C430 1.378 . S
C423 C422 1.367 . S
C423 C431 1.433 1_455 S
C424 H420 0.929 . S
C424 C426 1.378 . S
C424 C428 1.350 . S
C425 C428 1.463 . S
C425 C430 1.350 1_655 S
C425 N433 1.427 . S
C426 H417 0.930 . S
C426 C424 1.378 . S
C426 C427 1.367 . S
C427 C426 1.367 . S
C427 C429 1.433 . S
C428 C424 1.350 . S
C428 C425 1.463 . S
C428 N432 1.427 . S
C429 H419 0.929 . S
C429 C427 1.433 . S
C429 N432 1.384 . S
C430 H421 0.929 . S
C430 C422 1.378 . S
C430 C425 1.350 1_455 S
C431 H418 0.929 . S
C431 C423 1.433 1_655 S
C431 N433 1.384 . S
N432 C428 1.427 . S
N432 C429 1.384 . S
N433 C425 1.427 . S
N433 C431 1.384 . S
H434 C440 0.930 . S
H435 C444 0.930 . S
H436 C449 0.929 . S
H437 C447 0.929 . S
H438 C442 0.929 1_556 S
H439 C448 0.929 . S
C440 H434 0.930 . S
C440 C441 1.367 . S
C440 C448 1.378 . S
C441 C440 1.367 . S
C441 C449 1.433 . S
C442 H438 0.929 1_554 S
C442 C444 1.378 . S
C442 C446 1.350 1_554 S
C443 C446 1.463 . S
C443 C448 1.350 . S
C443 N451 1.427 . S
C444 H435 0.930 . S
C444 C442 1.378 . S
C444 C445 1.367 . S
C445 C444 1.367 . S
C445 C447 1.433 . S
C446 C442 1.350 1_556 S
C446 C443 1.463 . S
C446 N450 1.427 1_556 S
C447 H437 0.929 . S
C447 C445 1.433 . S
C447 N450 1.384 . S
C448 H439 0.929 . S
C448 C440 1.378 . S
C448 C443 1.350 . S
C449 H436 0.929 . S
C449 C441 1.433 . S
C449 N451 1.384 . S
N450 C446 1.427 1_554 S
N450 C447 1.384 . S
N451 C443 1.427 . S
N451 C449 1.384 . S
H452 C458 0.930 . S
H453 C462 0.930 . S
H454 C467 0.929 . S
H455 C465 0.929 . S
H456 C460 0.929 . S
H457 C466 0.929 . S
C458 H452 0.930 . S
C458 C459 1.367 . S
C458 C466 1.378 . S
C459 C458 1.367 . S
C459 C467 1.433 . S
C460 H456 0.929 . S
C460 C462 1.378 . S
C460 C464 1.350 1_655 S
C461 C464 1.463 . S
C461 C466 1.350 . S
C461 N469 1.427 . S
C462 H453 0.930 . S
C462 C460 1.378 . S
C462 C463 1.367 . S
C463 C462 1.367 . S
C463 C465 1.433 1_655 S
C464 C460 1.350 1_455 S
C464 C461 1.463 . S
C464 N468 1.427 . S
C465 H455 0.929 . S
C465 C463 1.433 1_455 S
C465 N468 1.384 . S
C466 H457 0.929 . S
C466 C458 1.378 . S
C466 C461 1.350 . S
C467 H454 0.929 . S
C467 C459 1.433 . S
C467 N469 1.384 . S
N468 C464 1.427 . S
N468 C465 1.384 . S
N469 C461 1.427 . S
N469 C467 1.384 . S
H470 C476 0.930 . S
H471 C480 0.930 . S
H472 C485 0.929 . S
H473 C483 0.929 . S
H474 C478 0.929 . S
H475 C484 0.929 . S
C476 H470 0.930 . S
C476 C477 1.367 . S
C476 C484 1.378 . S
C477 C476 1.367 . S
C477 C485 1.433 . S
C478 H474 0.929 . S
C478 C480 1.378 . S
C478 C482 1.350 . S
C479 C482 1.463 . S
C479 C484 1.350 . S
C479 N487 1.427 . S
C480 H471 0.930 . S
C480 C478 1.378 . S
C480 C481 1.367 . S
C481 C480 1.367 . S
C481 C483 1.433 . S
C482 C478 1.350 . S
C482 C479 1.463 . S
C482 N486 1.427 . S
C483 H473 0.929 . S
C483 C481 1.433 . S
C483 N486 1.384 . S
C484 H475 0.929 . S
C484 C476 1.378 . S
C484 C479 1.350 . S
C485 H472 0.929 . S
C485 C477 1.433 . S
C485 N487 1.384 . S
N486 C482 1.427 . S
N486 C483 1.384 . S
N487 C479 1.427 . S
N487 C485 1.384 . S
H488 C494 0.930 . S
H489 C498 0.930 . S
H490 C503 0.929 . S
H491 C501 0.929 . S
H492 C496 0.929 . S
H493 C502 0.929 . S
C494 H488 0.930 . S
C494 C495 1.367 . S
C494 C502 1.378 . S
C495 C494 1.367 . S
C495 C503 1.433 . S
C496 H492 0.929 . S
C496 C498 1.378 . S
C496 C500 1.350 . S
C497 C500 1.463 . S
C497 C502 1.350 . S
C497 N505 1.427 . S
C498 H489 0.930 . S
C498 C496 1.378 . S
C498 C499 1.367 . S
C499 C498 1.367 . S
C499 C501 1.433 . S
C500 C496 1.350 . S
C500 C497 1.463 . S
C500 N504 1.427 . S
C501 H491 0.929 . S
C501 C499 1.433 . S
C501 N504 1.384 . S
C502 H493 0.929 . S
C502 C494 1.378 . S
C502 C497 1.350 . S
C503 H490 0.929 . S
C503 C495 1.433 . S
C503 N505 1.384 . S
N504 C500 1.427 . S
N504 C501 1.384 . S
N505 C497 1.427 . S
N505 C503 1.384 . S
H506 C512 0.930 . S
H507 C516 0.930 . S
H508 C521 0.929 . S
H509 C519 0.929 . S
H510 C514 0.929 . S
H511 C520 0.929 . S
C512 H506 0.930 . S
C512 C513 1.367 . S
C512 C520 1.378 . S
C513 C512 1.367 . S
C513 C521 1.433 . S
C514 H510 0.929 . S
C514 C516 1.378 . S
C514 C518 1.350 . S
C515 C518 1.463 . S
C515 C520 1.350 . S
C515 N523 1.427 . S
C516 H507 0.930 . S
C516 C514 1.378 . S
C516 C517 1.367 . S
C517 C516 1.367 . S
C517 C519 1.433 . S
C518 C514 1.350 . S
C518 C515 1.463 . S
C518 N522 1.427 . S
C519 H509 0.929 . S
C519 C517 1.433 . S
C519 N522 1.384 . S
C520 H511 0.929 . S
C520 C512 1.378 . S
C520 C515 1.350 . S
C521 H508 0.929 . S
C521 C513 1.433 . S
C521 N523 1.384 . S
N522 C518 1.427 . S
N522 C519 1.384 . S
N523 C515 1.427 . S
N523 C521 1.384 . S
H524 C530 0.930 . S
H525 C534 0.930 . S
H526 C539 0.929 . S
H527 C537 0.929 . S
H528 C532 0.929 . S
H529 C538 0.929 . S
C530 H524 0.930 . S
C530 C531 1.367 . S
C530 C538 1.378 . S
C531 C530 1.367 . S
C531 C539 1.433 . S
C532 H528 0.929 . S
C532 C534 1.378 . S
C532 C536 1.350 . S
C533 C536 1.463 . S
C533 C538 1.350 . S
C533 N541 1.427 . S
C534 H525 0.930 . S
C534 C532 1.378 . S
C534 C535 1.367 . S
C535 C534 1.367 . S
C535 C537 1.433 . S
C536 C532 1.350 . S
C536 C533 1.463 . S
C536 N540 1.427 . S
C537 H527 0.929 . S
C537 C535 1.433 . S
C537 N540 1.384 . S
C538 H529 0.929 . S
C538 C530 1.378 . S
C538 C533 1.350 . S
C539 H526 0.929 . S
C539 C531 1.433 . S
C539 N541 1.384 . S
N540 C536 1.427 . S
N540 C537 1.384 . S
N541 C533 1.427 . S
N541 C539 1.384 . S
H542 C548 0.930 . S
H543 C552 0.930 . S
H544 C557 0.929 . S
H545 C555 0.929 . S
H546 C550 0.929 . S
H547 C556 0.929 . S
C548 H542 0.930 . S
C548 C549 1.367 . S
C548 C556 1.378 . S
C549 C548 1.367 . S
C549 C557 1.433 . S
C550 H546 0.929 . S
C550 C552 1.378 . S
C550 C554 1.350 . S
C551 C554 1.463 . S
C551 C556 1.350 . S
C551 N559 1.427 . S
C552 H543 0.930 . S
C552 C550 1.378 . S
C552 C553 1.367 . S
C553 C552 1.367 . S
C553 C555 1.433 . S
C554 C550 1.350 . S
C554 C551 1.463 . S
C554 N558 1.427 . S
C555 H545 0.929 . S
C555 C553 1.433 . S
C555 N558 1.384 . S
C556 H547 0.929 . S
C556 C548 1.378 . S
C556 C551 1.350 . S
C557 H544 0.929 . S
C557 C549 1.433 . S
C557 N559 1.384 . S
N558 C554 1.427 . S
N558 C555 1.384 . S
N559 C551 1.427 . S
N559 C557 1.384 . S
H560 C566 0.930 . S
H561 C570 0.930 . S
H562 C575 0.929 . S
H563 C573 0.929 . S
H564 C568 0.929 . S
H565 C574 0.929 . S
C566 H560 0.930 . S
C566 C567 1.367 . S
C566 C574 1.378 . S
C567 C566 1.367 . S
C567 C575 1.433 . S
C568 H564 0.929 . S
C568 C570 1.378 . S
C568 C572 1.350 . S
C569 C572 1.463 . S
C569 C574 1.350 . S
C569 N577 1.427 . S
C570 H561 0.930 . S
C570 C568 1.378 . S
C570 C571 1.367 . S
C571 C570 1.367 . S
C571 C573 1.433 . S
C572 C568 1.350 . S
C572 C569 1.463 . S
C572 N576 1.427 . S
C573 H563 0.929 . S
C573 C571 1.433 . S
C573 N576 1.384 . S
C574 H565 0.929 . S
C574 C566 1.378 . S
C574 C569 1.350 . S
C575 H562 0.929 . S
C575 C567 1.433 . S
C575 N577 1.384 . S
N576 C572 1.427 . S
N576 C573 1.384 . S
N577 C569 1.427 . S
N577 C575 1.384 . S
H578 C584 0.930 . S
H579 C588 0.930 . S
H580 C593 0.929 . S
H581 C591 0.929 . S
H582 C586 0.929 . S
H583 C592 0.929 . S
C584 H578 0.930 . S
C584 C585 1.367 . S
C584 C592 1.378 . S
C585 C584 1.367 . S
C585 C593 1.433 . S
C586 H582 0.929 . S
C586 C588 1.378 . S
C586 C590 1.350 . S
C587 C590 1.463 . S
C587 C592 1.350 . S
C587 N595 1.427 . S
C588 H579 0.930 . S
C588 C586 1.378 . S
C588 C589 1.367 . S
C589 C588 1.367 . S
C589 C591 1.433 . S
C590 C586 1.350 . S
C590 C587 1.463 . S
C590 N594 1.427 . S
C591 H581 0.929 . S
C591 C589 1.433 . S
C591 N594 1.384 . S
C592 H583 0.929 . S
C592 C584 1.378 . S
C592 C587 1.350 . S
C593 H580 0.929 . S
C593 C585 1.433 . S
C593 N595 1.384 . S
N594 C590 1.427 . S
N594 C591 1.384 . S
N595 C587 1.427 . S
N595 C593 1.384 . S
H596 C602 0.930 . S
H597 C606 0.930 . S
H598 C611 0.929 . S
H599 C609 0.929 . S
H600 C604 0.929 . S
H601 C610 0.929 . S
C602 H596 0.930 . S
C602 C603 1.367 . S
C602 C610 1.378 . S
C603 C602 1.367 . S
C603 C611 1.433 . S
C604 H600 0.929 . S
C604 C606 1.378 . S
C604 C608 1.350 . S
C605 C608 1.463 . S
C605 C610 1.350 . S
C605 N613 1.427 . S
C606 H597 0.930 . S
C606 C604 1.378 . S
C606 C607 1.367 . S
C607 C606 1.367 . S
C607 C609 1.433 . S
C608 C604 1.350 . S
C608 C605 1.463 . S
C608 N612 1.427 . S
C609 H599 0.929 . S
C609 C607 1.433 . S
C609 N612 1.384 . S
C610 H601 0.929 . S
C610 C602 1.378 . S
C610 C605 1.350 . S
C611 H598 0.929 . S
C611 C603 1.433 . S
C611 N613 1.384 . S
N612 C608 1.427 . S
N612 C609 1.384 . S
N613 C605 1.427 . S
N613 C611 1.384 . S
H614 C620 0.930 . S
H615 C624 0.930 . S
H616 C629 0.929 . S
H617 C627 0.929 . S
H618 C622 0.929 . S
H619 C628 0.929 . S
C620 H614 0.930 . S
C620 C621 1.367 . S
C620 C628 1.378 . S
C621 C620 1.367 . S
C621 C629 1.433 . S
C622 H618 0.929 . S
C622 C624 1.378 . S
C622 C626 1.350 . S
C623 C626 1.463 . S
C623 C628 1.350 . S
C623 N631 1.427 . S
C624 H615 0.930 . S
C624 C622 1.378 . S
C624 C625 1.367 . S
C625 C624 1.367 . S
C625 C627 1.433 . S
C626 C622 1.350 . S
C626 C623 1.463 . S
C626 N630 1.427 . S
C627 H617 0.929 . S
C627 C625 1.433 . S
C627 N630 1.384 . S
C628 H619 0.929 . S
C628 C620 1.378 . S
C628 C623 1.350 . S
C629 H616 0.929 . S
C629 C621 1.433 . S
C629 N631 1.384 . S
N630 C626 1.427 . S
N630 C627 1.384 . S
N631 C623 1.427 . S
N631 C629 1.384 . S
C279 C5 0.740 . S
C283 C175 0.749 . S
C297 C209 0.755 . S
C301 C39 0.751 . S
C315 C243 0.743 . S
C319 C73 0.739 . S
C333 C141 0.739 . S
C337 C107 0.744 . S
C351 C111 0.898 . S
C355 C33 0.911 . S
C369 C67 0.892 . S
C373 C9 0.913 . S
C387 C43 0.902 . S
C391 C101 0.905 . S
C405 C135 0.909 . S
C409 C77 0.899 . S
C423 C179 0.913 . S
C427 C169 0.895 . S
C441 C203 0.890 . S
C445 C213 0.915 . S
C459 C237 0.890 . S
C463 C247 0.914 . S
C477 C271 0.900 . S
C481 C145 0.906 . S
C495 C206 1.233 . S
C499 C20 1.249 . S
C513 C240 1.219 . S
C517 C54 1.250 . S
C531 C88 1.249 . S
C535 C138 1.230 . S
C549 C122 1.250 . S
C553 C172 1.221 . S
C567 C156 1.249 . S
C571 C70 1.228 . S
C585 C104 1.229 . S
C589 C190 1.249 . S
C603 C224 1.248 . S
C607 C2 1.231 . S
C621 C36 1.232 . S
C625 C258 1.249 . S
