# Generated by pormake.
# Topology nbo, (4)-cn, num edge types: 1
# Building blocks:
#     Node 0, Type 0, BuildingBlock: KOZSID_clean_sbu_0, # of connection points: 4
#     Node 1, Type 0, BuildingBlock: KOZSID_clean_sbu_0, # of connection points: 4
#     Node 2, Type 0, BuildingBlock: KOZSID_clean_sbu_0, # of connection points: 4
#     Node 3, Type 0, BuildingBlock: KOZSID_clean_sbu_0, # of connection points: 4
#     Node 4, Type 0, BuildingBlock: KOZSID_clean_sbu_0, # of connection points: 4
#     Node 5, Type 0, BuildingBlock: KOZSID_clean_sbu_0, # of connection points: 4
#     Edge 6, Type (0, 0), BuildingBlock: FUNLAD_clean_linker_0, # of connection points: 2
#     Edge 7, Type (0, 0), BuildingBlock: FUNLAD_clean_linker_0, # of connection points: 2
#     Edge 8, Type (0, 0), BuildingBlock: FUNLAD_clean_linker_0, # of connection points: 2
#     Edge 9, Type (0, 0), BuildingBlock: FUNLAD_clean_linker_0, # of connection points: 2
#     Edge 10, Type (0, 0), BuildingBlock: FUNLAD_clean_linker_0, # of connection points: 2
#     Edge 11, Type (0, 0), BuildingBlock: FUNLAD_clean_linker_0, # of connection points: 2
#     Edge 12, Type (0, 0), BuildingBlock: FUNLAD_clean_linker_0, # of connection points: 2
#     Edge 13, Type (0, 0), BuildingBlock: FUNLAD_clean_linker_0, # of connection points: 2
#     Edge 14, Type (0, 0), BuildingBlock: FUNLAD_clean_linker_0, # of connection points: 2
#     Edge 15, Type (0, 0), BuildingBlock: FUNLAD_clean_linker_0, # of connection points: 2
#     Edge 16, Type (0, 0), BuildingBlock: FUNLAD_clean_linker_0, # of connection points: 2
#     Edge 17, Type (0, 0), BuildingBlock: FUNLAD_clean_linker_0, # of connection points: 2
# Relax obj value: 0.000
# Max RMSD: 0.000
# Mean RMSD: 0.000
data_MOF--net-nbo--node1-KOZSID_clean_sbu_0--edge1-FUNLAD_clean_linker_0
_symmetry_space_group_name_H-M    P1
_symmetry_Int_Tables_number       1
_symmetry_cell_setting            triclinic
loop_
_symmetry_equiv_pos_as_xyz
'x, y, z'
_cell_length_a     38.276349
_cell_length_b     44.200058
_cell_length_c     41.355723
_cell_angle_alpha  106.70606
_cell_angle_beta   107.37987
_cell_angle_gamma 107.15048
loop_
_atom_site_label
_atom_site_type_symbol
_atom_site_fract_x
_atom_site_fract_y
_atom_site_fract_z
_atom_type_partial_charge
C0 C 0.90603 0.97956 0.45948 0.0
C1 C 0.87435 0.96367 0.42439 0.0
C2 C 0.89083 0.95936 0.39932 0.0
C3 C 0.93143 0.97294 0.42037 0.0
N4 N 0.94196 0.98538 0.45745 0.0
Co5 Co 0.99793 0.00885 0.49821 0.0
N6 N 0.02223 1.00544 0.46126 0.0
C7 C 0.00252 0.99226 0.42381 0.0
C8 C 0.02739 0.99372 0.40585 0.0
C9 C 0.0653 0.00835 0.43342 0.0
C10 C 0.06124 0.01475 0.46671 0.0
N11 N 0.05388 0.03205 0.53896 0.0
C12 C 0.08984 0.03811 0.53694 0.0
C13 C 0.12144 0.05328 0.57201 0.0
C14 C 0.1049 0.05694 0.59706 0.0
C15 C 0.06434 0.04368 0.57602 0.0
N16 N 0.97363 0.01258 0.53516 0.0
C17 C 0.99332 0.0261 0.57263 0.0
C18 C 0.96847 0.02535 0.5906 0.0
C19 C 0.93061 0.011 0.56301 0.0
C20 C 0.93469 1.00398 0.52971 0.0
N21 N 0.99589 0.96277 0.49629 0.0
C22 C 0.99412 0.89763 0.49358 0.0
C23 C 0.00681 0.92538 0.5274 0.0
C24 C 0.00747 0.95738 0.52812 0.0
C25 C 0.98225 0.90312 0.46113 0.0
C26 C 0.98335 0.93554 0.4631 0.0
N27 N 0.99995 0.0549 0.50011 0.0
C28 C 0.01567 0.1151 0.53532 0.0
C29 C 1.00123 0.11987 0.50271 0.0
C30 C 0.98631 0.0915 0.4688 0.0
C31 C 0.98598 0.05962 0.46815 0.0
C32 C 0.01475 0.08273 0.5334 0.0
H33 H 0.97393 0.0391 0.44139 0.0
H34 H 0.02608 0.08085 0.55925 0.0
H35 H 0.01755 0.97733 0.5548 0.0
H36 H 0.97415 0.93795 0.43737 0.0
C37 C 0.96054 0.97711 0.40622 0.0
C38 C 0.90083 0.99053 0.49386 0.0
C39 C 0.09522 0.02838 0.50254 0.0
C40 C 0.03526 0.0403 0.59019 0.0
H41 H 0.84267 0.95676 0.41747 0.0
H42 H 0.8752 0.94877 0.36934 0.0
H43 H 0.01892 0.9846 0.37621 0.0
H44 H 0.0928 0.01319 0.42945 0.0
H45 H 0.15313 0.06029 0.57891 0.0
H46 H 0.12049 0.06721 0.62701 0.0
H47 H 0.97693 0.03472 0.62025 0.0
H48 H 0.90314 1.00674 0.56697 0.0
H49 H 0.01584 0.92243 0.55335 0.0
H50 H 0.97271 0.88268 0.43421 0.0
H51 H 0.02803 0.13633 0.56235 0.0
H52 H 0.97418 0.09357 0.44268 0.0
C53 C 0.53527 0.02501 0.08397 0.0
C54 C 0.5712 0.04243 0.11577 0.0
C55 C 0.60129 0.0508 0.10436 0.0
C56 C 0.58208 0.0382 0.06644 0.0
N57 N 0.54146 0.02267 0.05291 0.0
Co58 Co 0.50179 1.00012 0.9994 0.0
N59 N 0.54622 0.00959 0.98232 0.0
C60 C 0.58633 0.02532 0.00392 0.0
C61 C 0.60942 0.02904 0.98441 0.0
C62 C 0.58253 0.01518 0.94817 0.0
C63 C 0.5444 1.00369 0.94769 0.0
N64 N 0.46212 0.97779 0.94589 0.0
C65 C 0.46833 0.9752 0.91479 0.0
C66 C 0.43234 0.9583 0.88305 0.0
C67 C 0.40224 0.95044 0.89453 0.0
C68 C 0.42147 0.96284 0.93243 0.0
N69 N 0.45738 0.99043 0.01648 0.0
C70 C 0.41728 0.97451 0.99489 0.0
C71 C 0.39422 0.97023 0.01437 0.0
C72 C 0.42115 0.98378 0.05055 0.0
C73 C 0.45926 0.99571 0.05104 0.0
N74 N 0.5008 0.04567 0.00249 0.0
C75 C 0.49938 0.11002 0.00541 0.0
C76 C 0.46373 0.07996 0.98972 0.0
C77 C 0.46511 0.04842 0.98858 0.0
C78 C 0.53575 0.10724 0.01976 0.0
C79 C 0.53576 0.07518 0.01804 0.0
N80 N 0.50277 0.95462 0.99645 0.0
C81 C 0.46773 0.89318 0.97978 0.0
C82 C 0.50385 0.89113 0.99715 0.0
C83 C 0.5395 0.92124 0.01326 0.0
C84 C 0.5383 0.95233 0.01243 0.0
C85 C 0.46787 0.92488 0.97978 0.0
H86 H 0.56652 0.97426 0.02528 0.0
H87 H 0.43929 0.92475 0.96662 0.0
H88 H 0.43688 0.02657 0.97604 0.0
H89 H 0.56449 0.07497 0.02942 0.0
C90 C 0.60136 0.03839 0.04263 0.0
C91 C 0.49624 0.01005 0.08464 0.0
C92 C 0.50748 0.98909 0.91395 0.0
C93 C 0.40223 0.9621 0.95622 0.0
H94 H 0.57525 0.04786 0.14421 0.0
H95 H 0.63338 0.06368 0.12155 0.0
H96 H 0.64193 0.04129 0.99534 0.0
H97 H 0.59018 0.01443 0.92488 0.0
H98 H 0.42829 0.9527 0.85459 0.0
H99 H 0.37014 0.93779 0.87738 0.0
H100 H 0.36172 0.9578 0.00343 0.0
H101 H 0.41355 0.98404 0.07378 0.0
H102 H 0.43473 0.08053 0.97776 0.0
H103 H 0.56424 0.1298 0.03272 0.0
H104 H 0.43925 0.87064 0.96704 0.0
H105 H 0.56836 0.92088 0.02644 0.0
C106 C 0.09623 0.55485 0.03032 0.0
C107 C 0.12863 0.58716 0.04747 0.0
C108 C 0.1134 0.61136 0.05445 0.0
C109 C 0.07276 0.59256 0.04115 0.0
N110 N 0.06105 0.55774 0.02639 0.0
Co111 Co 0.00453 0.5208 0.00249 0.0
N112 N 0.98192 0.55656 0.01033 0.0
C113 C 0.00275 0.59152 0.02634 0.0
C114 C 0.97905 0.60933 0.02813 0.0
C115 C 0.94074 0.5843 0.01254 0.0
C116 C 0.94336 0.55253 0.00218 0.0
N117 N 0.948 0.48384 0.97854 0.0
C118 C 0.91265 0.48678 0.97333 0.0
C119 C 0.8802 0.4545 0.95599 0.0
C120 C 0.89556 0.43026 0.95018 0.0
C121 C 0.93632 0.44901 0.96426 0.0
N122 N 0.02715 0.48506 0.99459 0.0
C123 C 0.00642 0.4501 0.97919 0.0
C124 C 0.03012 0.43232 0.97692 0.0
C125 C 0.06826 0.45737 0.99133 0.0
C126 C 0.06555 0.48911 0.00147 0.0
N127 N 0.00906 0.52082 0.05172 0.0
C128 C 0.01117 0.5206 0.12052 0.0
C129 C 0.99661 0.48958 0.08945 0.0
C130 C 0.9959 0.49029 0.05572 0.0
C131 C 0.02546 0.55177 0.11673 0.0
C132 C 0.02424 0.55129 0.08245 0.0
N133 N 0.99986 0.52071 0.95331 0.0
C134 C 0.98129 0.48923 0.88798 0.0
C135 C 0.99451 0.52019 0.88358 0.0
C136 C 0.01031 0.55146 0.91474 0.0
C137 C 0.01264 0.55113 0.94902 0.0
C138 C 0.98419 0.49008 0.9227 0.0
H139 H 0.02497 0.57579 0.97165 0.0
H140 H 0.97383 0.46558 0.92412 0.0
H141 H 0.98404 0.46572 0.0332 0.0
H142 H 0.03545 0.57592 0.08146 0.0
C143 C 0.04467 0.60686 0.04026 0.0
C144 C 0.10019 0.52227 0.01679 0.0
C145 C 0.90843 0.51938 0.98533 0.0
C146 C 0.96447 0.4347 0.96539 0.0
H147 H 0.15995 0.59273 0.05358 0.0
H148 H 0.12985 0.63934 0.06687 0.0
H149 H 0.98854 0.6372 0.03975 0.0
H150 H 0.9139 0.58888 0.00943 0.0
H151 H 0.84872 0.44906 0.94871 0.0
H152 H 0.87905 0.40228 0.93765 0.0
H153 H 0.02067 0.40446 0.96544 0.0
H154 H 0.09499 0.45281 0.99363 0.0
H155 H 0.98481 0.46469 0.09076 0.0
H156 H 0.0377 0.57655 0.14015 0.0
H157 H 0.96937 0.4643 0.86486 0.0
H158 H 0.02055 0.57616 0.9127 0.0
C159 C 0.54972 0.50259 0.9561 0.0
C160 C 0.55003 0.49327 0.92117 0.0
C161 C 0.51073 0.47603 0.8958 0.0
C162 C 0.48867 0.47568 0.91652 0.0
N163 N 0.51163 0.49223 0.95366 0.0
Co164 Co 0.4923 0.49641 0.99404 0.0
N165 N 0.4349 0.46891 0.95697 0.0
C166 C 0.42099 0.45184 0.91984 0.0
C167 C 0.38018 0.43215 0.90262 0.0
C168 C 0.36732 0.43831 0.93042 0.0
C169 C 0.40092 0.46267 0.96265 0.0
N170 N 0.47265 0.50047 0.03406 0.0
C171 C 0.4344 0.49021 0.03101 0.0
C172 C 0.43319 0.49152 0.06456 0.0
C173 C 0.47233 0.5075 0.09054 0.0
C174 C 0.49499 0.5132 0.07095 0.0
N175 N 0.54957 0.52405 0.0315 0.0
C176 C 0.56314 0.5382 0.06899 0.0
C177 C 0.60426 0.55529 0.08731 0.0
C178 C 0.61774 0.55123 0.05994 0.0
C179 C 0.58391 0.53166 0.02638 0.0
N180 N 0.4878 0.53976 0.99314 0.0
C181 C 0.48378 0.60207 0.99152 0.0
C182 C 0.5013 0.59994 0.02524 0.0
C183 C 0.50265 0.56869 0.02543 0.0
C184 C 0.46746 0.57215 0.95871 0.0
C185 C 0.46975 0.54154 0.96013 0.0
N186 N 0.49696 0.45263 0.99491 0.0
C187 C 0.51814 0.4199 0.02883 0.0
C188 C 0.50278 0.39039 0.9959 0.0
C189 C 0.48504 0.39277 0.96247 0.0
C190 C 0.48267 0.42376 0.96261 0.0
C191 C 0.51518 0.45043 0.02769 0.0
H192 H 0.46939 0.42356 0.93607 0.0
H193 H 0.52844 0.47191 0.05379 0.0
H194 H 0.51571 0.5684 0.05199 0.0
H195 H 0.45678 0.51958 0.93419 0.0
C196 C 0.44685 0.45681 0.90211 0.0
C197 C 0.58607 0.51859 0.99071 0.0
C198 C 0.39989 0.48228 0.99735 0.0
C199 C 0.53683 0.53186 0.08612 0.0
H200 H 0.5759 0.49735 0.91462 0.0
H201 H 0.49962 0.46378 0.86586 0.0
H202 H 0.36179 0.41619 0.87326 0.0
H203 H 0.33643 0.42777 0.92698 0.0
H204 H 0.40682 0.48312 0.07002 0.0
H205 H 0.48288 0.51473 0.12019 0.0
H206 H 0.62237 0.56788 0.11704 0.0
H207 H 0.64896 0.56047 0.06417 0.0
H208 H 0.51357 0.6222 0.05145 0.0
H209 H 0.45363 0.57246 0.93188 0.0
H210 H 0.53311 0.41976 0.0555 0.0
H211 H 0.47255 0.37066 0.93609 0.0
C212 C 0.04666 0.54009 0.5873 0.0
C213 C 0.08333 0.55662 0.61832 0.0
C214 C 0.1126 0.56322 0.60569 0.0
C215 C 0.0923 0.55031 0.56787 0.0
N216 N 0.05174 0.53595 0.55546 0.0
Co217 Co 0.01082 0.51335 0.50237 0.0
N218 N 0.0541 0.52222 0.48382 0.0
C219 C 0.09439 0.53745 0.50451 0.0
C220 C 0.11656 0.54081 0.48414 0.0
C221 C 0.08885 0.52722 0.44828 0.0
C222 C 0.05119 0.51621 0.44885 0.0
N223 N 0.96993 0.49104 0.44929 0.0
C224 C 0.97504 0.48827 0.41767 0.0
C225 C 0.9385 0.47148 0.38655 0.0
C226 C 0.90916 0.46384 0.39897 0.0
C227 C 0.92938 0.47626 0.43678 0.0
N228 N 0.96754 0.50431 0.52087 0.0
C229 C 0.92725 0.48843 0.5001 0.0
C230 C 0.90508 0.48571 0.52054 0.0
C231 C 0.93279 0.5005 0.55656 0.0
C232 C 0.97045 0.51131 0.55596 0.0
N233 N 0.01011 0.55899 0.50582 0.0
C234 C 0.00913 0.62345 0.50888 0.0
C235 C 0.97333 0.59368 0.49395 0.0
C236 C 0.9745 0.56205 0.49272 0.0
C237 C 0.04543 0.62036 0.52253 0.0
C238 C 0.04522 0.58823 0.52077 0.0
N239 N 0.01152 0.46762 0.49892 0.0
C240 C 0.97621 0.40604 0.48146 0.0
C241 C 0.01244 0.40316 0.49617 0.0
C242 C 0.0482 0.43312 0.51199 0.0
C243 C 0.04706 0.46471 0.51302 0.0
C244 C 0.97644 0.43815 0.48307 0.0
H245 H 0.07538 0.48644 0.52565 0.0
H246 H 0.94781 0.43843 0.47137 0.0
H247 H 0.94617 0.54042 0.48095 0.0
H248 H 0.07389 0.58766 0.53144 0.0
C249 C 0.1105 0.55019 0.54321 0.0
C250 C 0.00798 0.52776 0.58946 0.0
C251 C 0.01367 0.50173 0.41574 0.0
C252 C 0.91115 0.47585 0.46137 0.0
H253 H 0.08848 0.56282 0.64709 0.0
H254 H 0.14485 0.57545 0.62208 0.0
H255 H 0.14901 0.55258 0.49429 0.0
H256 H 0.09566 0.52623 0.42452 0.0
H257 H 0.93358 0.46579 0.35788 0.0
H258 H 0.87692 0.45134 0.3825 0.0
H259 H 0.87262 0.47413 0.51043 0.0
H260 H 0.92606 0.50288 0.58056 0.0
H261 H 0.94437 0.59472 0.48353 0.0
H262 H 0.07404 0.6425 0.53399 0.0
H263 H 0.94765 0.38353 0.46833 0.0
H264 H 0.0771 0.43247 0.52417 0.0
C265 C 0.59383 0.04896 0.53523 0.0
C266 C 0.62596 0.08151 0.55336 0.0
C267 C 0.61017 0.10532 0.55998 0.0
C268 C 0.56948 0.08612 0.54541 0.0
N269 N 0.55825 0.05137 0.53018 0.0
Co270 Co 0.50187 0.01394 0.50398 0.0
N271 N 0.47857 0.04921 0.51111 0.0
C272 C 0.49897 0.08423 0.52771 0.0
C273 C 0.47472 0.10161 0.52828 0.0
C274 C 0.43651 0.07622 0.51142 0.0
C275 C 0.43976 0.04469 0.50173 0.0
N276 N 0.4455 0.97651 0.47772 0.0
C277 C 0.40984 0.97892 0.47193 0.0
C278 C 0.37771 0.94635 0.45371 0.0
C279 C 0.3936 0.92254 0.4477 0.0
C280 C 0.43431 0.94176 0.46269 0.0
N281 N 0.52517 0.97869 0.49687 0.0
C282 C 0.50484 0.94367 0.48064 0.0
C283 C 0.52911 0.92632 0.47984 0.0
C284 C 0.56725 0.95174 0.49609 0.0
C285 C 0.56393 0.98324 0.50565 0.0
N286 N 0.50384 0.01263 0.55215 0.0
C287 C 0.50394 0.01075 0.61985 0.0
C288 C 0.49002 0.98015 0.58845 0.0
C289 C 0.49023 0.98167 0.55523 0.0
C290 C 0.51827 0.04232 0.61686 0.0
C291 C 0.51801 0.04266 0.58311 0.0
N292 N 0.49981 0.01526 0.45583 0.0
C293 C 0.48401 0.98564 0.39075 0.0
C294 C 0.49714 0.01724 0.38757 0.0
C295 C 0.51174 0.04781 0.4192 0.0
C296 C 0.51285 0.04624 0.45271 0.0
C297 C 0.48557 0.98525 0.42483 0.0
H298 H 0.52459 0.07048 0.47572 0.0
H299 H 0.47509 0.96035 0.42538 0.0
H300 H 0.47881 0.95741 0.53237 0.0
H301 H 0.52923 0.06756 0.58275 0.0
C302 C 0.54096 0.10002 0.54338 0.0
C303 C 0.59831 0.01665 0.52161 0.0
C304 C 0.40517 0.01125 0.48476 0.0
C305 C 0.46285 0.92786 0.46495 0.0
H306 H 0.65751 0.08761 0.5603 0.0
H307 H 0.6263 0.13334 0.57282 0.0
H308 H 0.48377 0.12942 0.53999 0.0
H309 H 0.40933 0.08043 0.50717 0.0
H310 H 0.34609 0.94026 0.44621 0.0
H311 H 0.37747 0.89453 0.43483 0.0
H312 H 0.52008 0.89851 0.46818 0.0
H313 H 0.59441 0.94757 0.49987 0.0
H314 H 0.47816 0.95498 0.58917 0.0
H315 H 0.52993 0.06679 0.64055 0.0
H316 H 0.47208 0.9612 0.36695 0.0
H317 H 0.52291 0.07299 0.41836 0.0
C318 C 0.01021 0.16654 0.47844 0.0
C319 C 0.00131 0.15398 0.50398 0.0
C320 C 0.0096 0.19824 0.47921 0.0
C321 C 1.00036 0.21842 0.50581 0.0
C322 C 0.99126 0.20574 0.53116 0.0
C323 C 0.99183 0.17403 0.53036 0.0
C324 C 0.99846 0.25206 0.50736 0.0
C325 C 0.01621 0.27138 0.49197 0.0
C326 C 0.01447 0.30509 0.49367 0.0
C327 C 0.04313 0.32774 0.48699 0.0
C328 C 0.04251 0.35944 0.48782 0.0
C329 C 0.01296 0.36927 0.49513 0.0
H330 H 0.96114 0.29776 0.50479 0.0
C331 C 0.98394 0.34645 0.50139 0.0
C332 C 0.98455 0.31471 0.50055 0.0
H333 H 0.96085 0.35322 0.50729 0.0
H334 H 0.01788 0.15192 0.45786 0.0
H335 H 0.01572 0.20634 0.45843 0.0
H336 H 0.98358 0.22042 0.55171 0.0
H337 H 0.9841 0.16495 0.55004 0.0
H338 H 0.98312 0.26176 0.52323 0.0
H339 H 0.03441 0.26315 0.4788 0.0
H340 H 0.06625 0.32094 0.48116 0.0
H341 H 0.06492 0.37603 0.48222 0.0
C342 C 0.85967 0.02288 0.50688 0.0
C343 C 0.86201 0.99101 0.49284 0.0
C344 C 0.82361 0.0237 0.50717 0.0
C345 C 0.78929 0.99257 0.4933 0.0
C346 C 0.79157 0.96072 0.47866 0.0
C347 C 0.82784 0.95992 0.47886 0.0
C348 C 0.75057 0.99265 0.49299 0.0
C349 C 0.74859 0.01703 0.51984 0.0
C350 C 0.70988 0.01686 0.5198 0.0
C351 C 0.70711 0.02919 0.55382 0.0
C352 C 0.67083 0.02908 0.55454 0.0
C353 C 0.63714 0.01748 0.52124 0.0
H354 H 0.67752 0.99659 0.45981 0.0
C355 C 0.63998 1.00575 0.48723 0.0
C356 C 0.67605 1.00538 0.48645 0.0
H357 H 0.61421 0.99682 0.46129 0.0
H358 H 0.88583 0.04711 0.51767 0.0
H359 H 0.82254 0.04869 0.51774 0.0
H360 H 0.76542 0.93643 0.46762 0.0
H361 H 0.8293 0.9351 0.46817 0.0
H362 H 0.72304 0.97096 0.47122 0.0
H363 H 0.77607 0.03659 0.54372 0.0
H364 H 0.73288 0.03836 0.57984 0.0
H365 H 0.66898 0.03801 0.58102 0.0
C366 C 0.98035 0.65887 0.48041 0.0
C367 C 0.00865 0.65738 0.5101 0.0
C368 C 0.98001 0.69072 0.48145 0.0
C369 C 0.00823 0.72205 0.51224 0.0
C370 C 0.03618 0.72043 0.54202 0.0
C371 C 0.0365 0.6886 0.54097 0.0
C372 C 0.00928 0.75682 0.51505 0.0
C373 C 0.99054 0.76316 0.4861 0.0
C374 C 0.99208 0.79808 0.48932 0.0
C375 C 0.96155 0.80003 0.46205 0.0
C376 C 0.96206 0.83218 0.46351 0.0
C377 C 0.9934 0.86333 0.49218 0.0
H378 H 0.04857 0.82911 0.53878 0.0
C379 C 0.02421 0.86143 0.51933 0.0
C380 C 0.02366 0.82925 0.51791 0.0
H381 H 0.04929 0.88486 0.54134 0.0
H382 H 0.95861 0.63539 0.45606 0.0
H383 H 0.95719 0.6903 0.45819 0.0
H384 H 0.05805 0.74397 0.56628 0.0
H385 H 0.0583 0.68846 0.56463 0.0
H386 H 0.02663 0.77809 0.54242 0.0
H387 H 0.97272 0.74207 0.4587 0.0
H388 H 0.93696 0.77652 0.43958 0.0
H389 H 0.93759 0.83257 0.44233 0.0
C390 C 0.36113 0.02156 0.51657 0.0
C391 C 0.36576 0.01031 0.48341 0.0
C392 C 0.32433 0.02134 0.51569 0.0
C393 C 0.29154 0.00972 0.48151 0.0
C394 C 0.29613 0.99798 0.44834 0.0
C395 C 0.33316 0.99868 0.44929 0.0
C396 C 0.25194 0.00852 0.47971 0.0
C397 C 0.24826 0.03206 0.50595 0.0
C398 C 0.20867 0.03067 0.50438 0.0
C399 C 0.20494 0.06179 0.51916 0.0
C400 C 0.16798 0.06117 0.51832 0.0
C401 C 0.13455 0.02937 0.50354 0.0
H402 H 0.17719 0.97435 0.47886 0.0
C403 C 0.13827 0.99822 0.48919 0.0
C404 C 0.17502 0.99882 0.48954 0.0
H405 H 0.11271 0.97346 0.47783 0.0
H406 H 0.38603 0.03046 0.54313 0.0
H407 H 0.32144 0.02966 0.54169 0.0
H408 H 0.27119 0.98869 0.42171 0.0
H409 H 0.33637 0.99005 0.42346 0.0
H410 H 0.22526 0.9887 0.4552 0.0
H411 H 0.27504 0.05402 0.5284 0.0
H412 H 0.23054 0.0866 0.53095 0.0
H413 H 0.16547 0.08545 0.52933 0.0
C414 C 0.50668 0.99603 0.3289 0.0
C415 C 0.49586 0.01842 0.35166 0.0
C416 C 0.50618 0.99759 0.29546 0.0
C417 C 0.49449 0.02146 0.28385 0.0
C418 C 0.48388 0.0439 0.30673 0.0
C419 C 0.4844 0.04235 0.34014 0.0
C420 C 0.49437 0.02477 0.24898 0.0
C421 C 0.49212 0.99936 0.2199 0.0
C422 C 0.49273 1.00293 0.18532 0.0
C423 C 0.50408 0.98079 0.16291 0.0
C424 C 0.50515 0.98312 0.13021 0.0
C425 C 0.49446 0.00742 0.11911 0.0
H426 H 0.47143 0.04391 0.18945 0.0
C427 C 0.48267 0.02937 0.14102 0.0
C428 C 0.48159 0.02709 0.17378 0.0
H429 H 0.47418 0.04819 0.13267 0.0
H430 H 0.51647 0.9778 0.33734 0.0
H431 H 0.51596 0.98061 0.27947 0.0
H432 H 0.47495 0.06266 0.29865 0.0
H433 H 0.47549 0.05974 0.3568 0.0
H434 H 0.49601 0.04923 0.2475 0.0
H435 H 0.49047 0.9749 0.22138 0.0
H436 H 0.51252 0.96179 0.1709 0.0
H437 H 0.51431 0.96597 0.11353 0.0
C438 C 0.01997 0.49615 0.16889 0.0
C439 C 0.01061 0.52034 0.15629 0.0
C440 C 0.01818 0.49519 0.20189 0.0
C441 C 0.0072 0.51863 0.22329 0.0
C442 C 0.99777 0.54271 0.21059 0.0
C443 C 0.99958 0.54367 0.17762 0.0
C444 C 0.00382 0.51822 0.25818 0.0
C445 C 0.02168 0.50363 0.27856 0.0
C446 C 0.01829 0.50334 0.31347 0.0
C447 C 0.02696 0.47887 0.32595 0.0
C448 C 0.02506 0.47805 0.35895 0.0
C449 C 0.01477 0.50193 0.38025 0.0
H450 H 0.00232 0.54734 0.32735 0.0
C451 C 0.00614 0.52647 0.36811 0.0
C452 C 0.00803 0.52733 0.33511 0.0
H453 H 0.99846 0.54526 0.38448 0.0
H454 H 0.02876 0.4779 0.15323 0.0
H455 H 0.02465 0.47554 0.20988 0.0
H456 H 0.98885 0.56088 0.22622 0.0
H457 H 0.99149 0.56225 0.16844 0.0
H458 H 0.98596 0.5308 0.26729 0.0
H459 H 0.03948 0.49097 0.26947 0.0
H460 H 0.0352 0.46024 0.31008 0.0
H461 H 0.03187 0.45897 0.36802 0.0
C462 C 0.51298 0.98566 0.66762 0.0
C463 C 0.50294 0.00971 0.65521 0.0
C464 C 0.51141 0.98435 0.70058 0.0
C465 C 0.49992 0.00725 0.72204 0.0
C466 C 0.4896 0.03105 0.70942 0.0
C467 C 0.49124 0.03239 0.67653 0.0
C468 C 0.49697 1.00654 0.75696 0.0
C469 C 0.51625 0.99289 0.77763 0.0
C470 C 0.51324 0.99237 0.81258 0.0
C471 C 0.52278 0.96821 0.82512 0.0
C472 C 0.52079 0.967 0.85797 0.0
C473 C 0.50959 0.99018 0.87905 0.0
H474 H 0.496 0.03559 0.82634 0.0
C475 C 0.50035 0.01454 0.86696 0.0
C476 C 0.50231 0.01579 0.83413 0.0
H477 H 0.49194 0.03279 0.88316 0.0
H478 H 0.52226 0.96789 0.65193 0.0
H479 H 0.51851 0.9649 0.70854 0.0
H480 H 0.48024 0.04876 0.7251 0.0
H481 H 0.48263 0.05082 0.66746 0.0
H482 H 0.4783 0.01816 0.7659 0.0
H483 H 0.53483 0.98116 0.76869 0.0
H484 H 0.53159 0.95005 0.80932 0.0
H485 H 0.52804 0.94804 0.86699 0.0
C486 C 0.9966 0.50072 0.63294 0.0
C487 C 0.00685 0.53047 0.62571 0.0
C488 C 0.99644 0.50321 0.66736 0.0
C489 C 0.00632 0.53561 0.69513 0.0
C490 C 0.0167 0.56532 0.68768 0.0
C491 C 0.01675 0.56276 0.6532 0.0
C492 C 0.0079 0.53962 0.7326 0.0
C493 C 0.98682 0.5136 0.73926 0.0
C494 C 0.98897 0.5171 0.77678 0.0
C495 C 0.95725 0.49341 0.77931 0.0
C496 C 0.95874 0.49476 0.81389 0.0
C497 C 0.99223 0.51971 0.84687 0.0
H498 H 0.04818 0.56025 0.80913 0.0
C499 C 0.02399 0.54353 0.84441 0.0
C500 C 0.02249 0.5422 0.80979 0.0
H501 H 0.05059 0.56263 0.86922 0.0
H502 H 0.98925 0.47564 0.61207 0.0
H503 H 0.98954 0.47985 0.67229 0.0
H504 H 0.02477 0.59061 0.7086 0.0
H505 H 0.02483 0.586 0.64804 0.0
H506 H 0.02596 0.56534 0.75504 0.0
H507 H 0.96585 0.48883 0.71613 0.0
H508 H 0.93115 0.47371 0.75439 0.0
H509 H 0.93353 0.47627 0.81476 0.0
C510 C 0.14535 0.51421 0.98532 0.0
C511 C 0.1395 0.52278 0.01806 0.0
C512 C 0.18207 0.51391 0.98625 0.0
C513 C 0.21368 0.52232 0.02014 0.0
C514 C 0.20743 0.53077 0.0528 0.0
C515 C 0.17072 0.53108 0.05181 0.0
C516 C 0.25253 0.52051 0.02244 0.0
C517 C 0.26659 0.52121 0.99625 0.0
C518 C 0.30356 0.51588 0.99775 0.0
C519 C 0.30726 0.5021 0.9646 0.0
C520 C 0.33958 0.49341 0.9647 0.0
C521 C 0.36858 0.49697 0.99789 0.0
H522 H 0.33546 0.53799 0.0578 0.0
C523 C 0.36756 0.51575 0.0314 0.0
C524 C 0.33525 0.52439 0.03135 0.0
H525 H 0.39149 0.52468 0.0582 0.0
H526 H 0.1213 0.50741 0.95897 0.0
H527 H 0.18492 0.50617 0.96022 0.0
H528 H 0.23099 0.537 0.07921 0.0
H529 H 0.16654 0.53754 0.07731 0.0
H530 H 0.26976 0.51772 0.04667 0.0
H531 H 0.24952 0.5237 0.97176 0.0
H532 H 0.28458 0.49727 0.93831 0.0
H533 H 0.34126 0.4842 0.93836 0.0
C534 C 0.4991 0.34606 0.02331 0.0
C535 C 0.50548 0.35751 0.9963 0.0
C536 C 0.50111 0.31493 0.02333 0.0
C537 C 0.50937 0.29435 0.99614 0.0
C538 C 0.5164 0.30615 0.96959 0.0
C539 C 0.51436 0.33722 0.96955 0.0
C540 C 0.51204 0.26106 0.99498 0.0
C541 C 0.49498 0.2419 0.01084 0.0
C542 C 0.49689 0.2082 0.00893 0.0
C543 C 0.46846 0.18538 0.01566 0.0
C544 C 0.46919 0.15363 0.01446 0.0
C545 C 0.49863 0.14391 0.00673 0.0
H546 H 0.54995 0.21578 0.99733 0.0
C547 C 0.52743 0.16691 0.00041 0.0
C548 C 0.5267 0.19869 0.00162 0.0
H549 H 0.55042 0.16024 0.99419 0.0
H550 H 0.49208 0.36097 0.04428 0.0
H551 H 0.49667 0.30749 0.04502 0.0
H552 H 0.52334 0.29117 0.94858 0.0
H553 H 0.5202 0.34552 0.94874 0.0
H554 H 0.52702 0.2513 0.97871 0.0
H555 H 0.47705 0.25016 0.02437 0.0
H556 H 0.44542 0.19209 0.02179 0.0
H557 H 0.44696 0.1369 0.02011 0.0
C558 C 0.85954 0.5234 0.01316 0.0
C559 C 0.86871 0.51895 0.98224 0.0
C560 C 0.82257 0.52398 0.01078 0.0
C561 C 0.79406 0.51999 0.97724 0.0
C562 C 0.80369 0.51589 0.94647 0.0
C563 C 0.84066 0.5152 0.94888 0.0
C564 C 0.7548 0.52132 0.97387 0.0
C565 C 0.73622 0.51242 0.99488 0.0
C566 C 0.69711 0.51382 0.99203 0.0
C567 C 0.67341 0.49283 0.00409 0.0
C568 C 0.63709 0.49409 0.00305 0.0
C569 C 0.62392 0.51659 0.99021 0.0
H570 H 0.70184 0.55392 0.97086 0.0
C571 C 0.64755 0.5379 0.97845 0.0
C572 C 0.68387 0.53653 0.97929 0.0
H573 H 0.63811 0.55585 0.96906 0.0
H574 H 0.8812 0.52676 0.03925 0.0
H575 H 0.81692 0.52835 0.03547 0.0
H576 H 0.78251 0.51311 0.92046 0.0
H577 H 0.84753 0.51201 0.92486 0.0
H578 H 0.74005 0.52835 0.95221 0.0
H579 H 0.74917 0.50217 0.01399 0.0
H580 H 0.68303 0.47537 0.01437 0.0
H581 H 0.61932 0.47766 0.01252 0.0
C582 C 0.51678 0.66697 0.01324 0.0
C583 C 0.48282 0.63525 0.99049 0.0
C584 C 0.51638 0.69805 0.01149 0.0
C585 C 0.48168 0.69825 0.98715 0.0
C586 C 0.44776 0.66646 0.96455 0.0
C587 C 0.44829 0.6354 0.96615 0.0
C588 C 0.47962 0.73046 0.98345 0.0
C589 C 0.50703 0.76313 0.00724 0.0
C590 C 0.50493 0.79528 0.00345 0.0
C591 C 0.52971 0.82742 0.03409 0.0
C592 C 0.52941 0.85838 0.03201 0.0
C593 C 0.50431 0.85808 0.99911 0.0
H594 H 0.46134 0.7712 0.94554 0.0
C595 C 0.47964 0.82603 0.9683 0.0
C596 C 0.48007 0.79502 0.9703 0.0
H597 H 0.46045 0.82494 0.94233 0.0
H598 H 0.54411 0.66767 0.03184 0.0
H599 H 0.54369 0.72148 0.0288 0.0
H600 H 0.42061 0.66558 0.94543 0.0
H601 H 0.42147 0.61148 0.94845 0.0
H602 H 0.45347 0.72672 0.96048 0.0
H603 H 0.53178 0.76707 0.03159 0.0
H604 H 0.54934 0.82864 0.05995 0.0
H605 H 0.54849 0.88254 0.05642 0.0
loop_
_geom_bond_atom_site_label_1
_geom_bond_atom_site_label_2
_geom_bond_distance
_geom_bond_site_symmetry_2
_ccdc_geom_bond_type
C0 C1 1.443 . S
C0 N4 1.376 . S
C0 C38 1.388 1_565 S
C1 C0 1.443 . S
C1 C2 1.340 . S
C1 H41 0.951 . S
C2 C1 1.340 . S
C2 C3 1.439 . S
C2 H42 0.950 . S
C3 C2 1.439 . S
C3 N4 1.374 . S
C3 C37 1.395 . S
N4 C0 1.376 . S
N4 C3 1.374 . S
N4 Co5 1.992 1_665 S
Co5 N4 1.992 1_445 S
Co5 N6 2.011 1_545 S
Co5 N11 2.024 . S
Co5 N16 1.979 1_455 S
Co5 N21 2.287 1_445 S
Co5 N27 2.278 . S
N6 Co5 2.011 1_565 S
N6 C7 1.377 . S
N6 C10 1.383 . S
C7 N6 1.377 . S
C7 C8 1.455 . S
C7 C37 1.382 1_455 S
C8 C7 1.455 . S
C8 C9 1.339 . S
C8 H43 0.949 . S
C9 C8 1.339 . S
C9 C10 1.439 . S
C9 H44 0.950 . S
C10 N6 1.383 . S
C10 C9 1.439 . S
C10 C39 1.392 1_565 S
N11 Co5 2.024 . S
N11 C12 1.376 . S
N11 C15 1.374 . S
C12 N11 1.376 . S
C12 C13 1.443 . S
C12 C39 1.389 . S
C13 C12 1.443 . S
C13 C14 1.340 . S
C13 H45 0.951 . S
C14 C13 1.340 . S
C14 C15 1.439 . S
C14 H46 0.950 . S
C15 N11 1.374 . S
C15 C14 1.439 . S
C15 C40 1.395 . S
N16 Co5 1.979 1_655 S
N16 C17 1.376 1_655 S
N16 C20 1.383 . S
C17 N16 1.376 1_455 S
C17 C18 1.446 1_455 S
C17 C40 1.391 . S
C18 C17 1.446 1_655 S
C18 C19 1.339 . S
C18 H47 0.949 . S
C19 C18 1.339 . S
C19 C20 1.439 . S
C19 H48 0.950 . S
C20 N16 1.383 . S
C20 C19 1.439 . S
C20 C38 1.390 . S
N21 Co5 2.287 1_665 S
N21 C24 1.332 1_655 S
N21 C26 1.332 . S
C22 C23 1.389 1_655 S
C22 C25 1.388 . S
C23 C22 1.389 1_455 S
C23 C24 1.384 . S
C23 H49 0.950 . S
C24 N21 1.332 1_455 S
C24 C23 1.384 . S
C24 H35 0.949 . S
C25 C22 1.388 . S
C25 C26 1.382 . S
C25 H50 0.950 . S
C26 N21 1.332 . S
C26 C25 1.382 . S
C26 H36 0.948 . S
N27 Co5 2.278 . S
N27 C31 1.332 . S
N27 C32 1.332 . S
C28 C29 1.388 . S
C28 C32 1.382 . S
C28 H51 0.950 . S
C29 C28 1.388 . S
C29 C30 1.386 1_455 S
C30 C29 1.386 1_655 S
C30 C31 1.382 1_655 S
C30 H52 0.950 . S
C31 N27 1.332 . S
C31 C30 1.382 1_455 S
C31 H33 0.952 1_455 S
C32 N27 1.332 . S
C32 C28 1.382 . S
C32 H34 0.948 . S
H33 C31 0.952 1_655 S
H34 C32 0.948 . S
H35 C24 0.949 . S
H36 C26 0.948 . S
C37 C3 1.395 . S
C37 C7 1.382 1_655 S
C38 C0 1.388 1_545 S
C38 C20 1.390 . S
C39 C10 1.392 1_545 S
C39 C12 1.389 . S
C40 C15 1.395 . S
C40 C17 1.391 . S
H41 C1 0.951 . S
H42 C2 0.950 . S
H43 C8 0.949 . S
H44 C9 0.950 . S
H45 C13 0.951 . S
H46 C14 0.950 . S
H47 C18 0.949 . S
H48 C19 0.950 . S
H49 C23 0.950 . S
H50 C25 0.950 . S
H51 C28 0.950 . S
H52 C30 0.950 . S
C53 C54 1.443 . S
C53 N57 1.376 . S
C53 C91 1.389 . S
C54 C53 1.443 . S
C54 C55 1.340 . S
C54 H94 0.951 . S
C55 C54 1.340 . S
C55 C56 1.439 . S
C55 H95 0.950 . S
C56 C55 1.439 . S
C56 N57 1.374 . S
C56 C90 1.395 . S
N57 C53 1.376 . S
N57 C56 1.374 . S
N57 Co58 2.025 . S
Co58 N57 2.025 . S
Co58 N59 1.978 1_554 S
Co58 N64 1.992 1_544 S
Co58 N69 2.011 1_545 S
Co58 N74 2.278 . S
Co58 N80 2.287 1_544 S
N59 Co58 1.978 1_556 S
N59 C60 1.372 1_556 S
N59 C63 1.383 . S
C60 N59 1.372 1_554 S
C60 C61 1.413 1_554 S
C60 C90 1.423 . S
C61 C60 1.413 1_556 S
C61 C62 1.339 . S
C61 H96 0.949 . S
C62 C61 1.339 . S
C62 C63 1.439 . S
C62 H97 0.950 . S
C63 N59 1.383 . S
C63 C62 1.439 . S
C63 C92 1.390 . S
N64 Co58 1.992 1_566 S
N64 C65 1.376 . S
N64 C68 1.374 . S
C65 N64 1.376 . S
C65 C66 1.443 . S
C65 C92 1.388 1_565 S
C66 C65 1.443 . S
C66 C67 1.340 . S
C66 H98 0.951 . S
C67 C66 1.340 . S
C67 C68 1.439 . S
C67 H99 0.950 . S
C68 N64 1.374 . S
C68 C67 1.439 . S
C68 C93 1.395 . S
N69 Co58 2.011 1_565 S
N69 C70 1.377 . S
N69 C73 1.383 . S
C70 N69 1.377 . S
C70 C71 1.456 . S
C70 C93 1.382 1_554 S
C71 C70 1.456 . S
C71 C72 1.339 . S
C71 H100 0.949 . S
C72 C71 1.339 . S
C72 C73 1.439 . S
C72 H101 0.950 . S
C73 N69 1.383 . S
C73 C72 1.439 . S
C73 C91 1.392 1_565 S
N74 Co58 2.278 . S
N74 C77 1.332 . S
N74 C79 1.332 . S
C75 C76 1.386 1_554 S
C75 C78 1.388 . S
C76 C75 1.386 1_556 S
C76 C77 1.382 1_556 S
C76 H102 0.950 . S
C77 N74 1.332 . S
C77 C76 1.382 1_554 S
C77 H88 0.952 1_554 S
C78 C75 1.388 . S
C78 C79 1.382 . S
C78 H103 0.950 . S
C79 N74 1.332 . S
C79 C78 1.382 . S
C79 H89 0.948 . S
N80 Co58 2.287 1_566 S
N80 C84 1.332 1_556 S
N80 C85 1.332 . S
C81 C82 1.388 . S
C81 C85 1.382 . S
C81 H104 0.950 . S
C82 C81 1.388 . S
C82 C83 1.388 1_556 S
C83 C82 1.388 1_554 S
C83 C84 1.384 . S
C83 H105 0.950 . S
C84 N80 1.332 1_554 S
C84 C83 1.384 . S
C84 H86 0.949 . S
C85 N80 1.332 . S
C85 C81 1.382 . S
C85 H87 0.948 . S
H86 C84 0.949 . S
H87 C85 0.948 . S
H88 C77 0.952 1_556 S
H89 C79 0.948 . S
C90 C56 1.395 . S
C90 C60 1.423 . S
C91 C53 1.389 . S
C91 C73 1.392 1_545 S
C92 C63 1.390 . S
C92 C65 1.388 1_545 S
C93 C68 1.395 . S
C93 C70 1.382 1_556 S
H94 C54 0.951 . S
H95 C55 0.950 . S
H96 C61 0.949 . S
H97 C62 0.950 . S
H98 C66 0.951 . S
H99 C67 0.950 . S
H100 C71 0.949 . S
H101 C72 0.950 . S
H102 C76 0.950 . S
H103 C78 0.950 . S
H104 C81 0.950 . S
H105 C83 0.950 . S
C106 C107 1.443 . S
C106 N110 1.376 . S
C106 C144 1.389 . S
C107 C106 1.443 . S
C107 C108 1.340 . S
C107 H147 0.951 . S
C108 C107 1.340 . S
C108 C109 1.439 . S
C108 H148 0.950 . S
C109 C108 1.439 . S
C109 N110 1.374 . S
C109 C143 1.395 . S
N110 C106 1.376 . S
N110 C109 1.374 . S
N110 Co111 2.018 . S
Co111 N110 2.018 . S
Co111 N112 1.982 1_455 S
Co111 N117 1.998 1_454 S
Co111 N122 2.008 1_554 S
Co111 N127 2.303 . S
Co111 N133 2.262 1_454 S
N112 Co111 1.982 1_655 S
N112 C113 1.376 1_655 S
N112 C116 1.383 . S
C113 N112 1.376 1_455 S
C113 C114 1.446 1_455 S
C113 C143 1.391 . S
C114 C113 1.446 1_655 S
C114 C115 1.339 . S
C114 H149 0.949 . S
C115 C114 1.339 . S
C115 C116 1.439 . S
C115 H150 0.950 . S
C116 N112 1.383 . S
C116 C115 1.439 . S
C116 C145 1.396 1_554 S
N117 Co111 1.998 1_656 S
N117 C118 1.376 . S
N117 C121 1.374 . S
C118 N117 1.376 . S
C118 C119 1.443 . S
C118 C145 1.390 . S
C119 C118 1.443 . S
C119 C120 1.340 . S
C119 H151 0.951 . S
C120 C119 1.340 . S
C120 C121 1.439 . S
C120 H152 0.950 . S
C121 N117 1.374 . S
C121 C120 1.439 . S
C121 C146 1.395 . S
N122 Co111 2.008 1_556 S
N122 C123 1.377 . S
N122 C126 1.383 . S
C123 N122 1.377 . S
C123 C124 1.454 . S
C123 C146 1.383 1_455 S
C124 C123 1.454 . S
C124 C125 1.339 . S
C124 H153 0.949 . S
C125 C124 1.339 . S
C125 C126 1.439 . S
C125 H154 0.950 . S
C126 N122 1.383 . S
C126 C125 1.439 . S
C126 C144 1.392 1_556 S
N127 Co111 2.303 . S
N127 C130 1.332 . S
N127 C132 1.332 . S
C128 C129 1.386 1_455 S
C128 C131 1.388 . S
C129 C128 1.386 1_655 S
C129 C130 1.382 1_655 S
C129 H155 0.950 . S
C130 N127 1.332 . S
C130 C129 1.382 1_455 S
C130 H141 0.952 1_455 S
C131 C128 1.388 . S
C131 C132 1.382 . S
C131 H156 0.950 . S
C132 N127 1.332 . S
C132 C131 1.382 . S
C132 H142 0.948 . S
N133 Co111 2.262 1_656 S
N133 C137 1.332 1_655 S
N133 C138 1.332 . S
C134 C135 1.388 . S
C134 C138 1.382 . S
C134 H157 0.950 . S
C135 C134 1.388 . S
C135 C136 1.389 1_655 S
C136 C135 1.389 1_455 S
C136 C137 1.384 . S
C136 H158 0.950 . S
C137 N133 1.332 1_455 S
C137 C136 1.384 . S
C137 H139 0.949 . S
C138 N133 1.332 . S
C138 C134 1.382 . S
C138 H140 0.948 . S
H139 C137 0.949 . S
H140 C138 0.948 . S
H141 C130 0.952 1_655 S
H142 C132 0.948 . S
C143 C109 1.395 . S
C143 C113 1.391 . S
C144 C106 1.389 . S
C144 C126 1.392 1_554 S
C145 C116 1.396 1_556 S
C145 C118 1.390 . S
C146 C121 1.395 . S
C146 C123 1.383 1_655 S
H147 C107 0.951 . S
H148 C108 0.950 . S
H149 C114 0.949 . S
H150 C115 0.950 . S
H151 C119 0.951 . S
H152 C120 0.950 . S
H153 C124 0.949 . S
H154 C125 0.950 . S
H155 C129 0.950 . S
H156 C131 0.950 . S
H157 C134 0.950 . S
H158 C136 0.950 . S
C159 C160 1.443 . S
C159 N163 1.376 . S
C159 C197 1.386 1_556 S
C160 C159 1.443 . S
C160 C161 1.340 . S
C160 H200 0.951 . S
C161 C160 1.340 . S
C161 C162 1.439 . S
C161 H201 0.950 . S
C162 C161 1.439 . S
C162 N163 1.374 . S
C162 C196 1.395 . S
N163 C159 1.376 . S
N163 C162 1.374 . S
N163 Co164 1.989 1_556 S
Co164 N163 1.989 1_554 S
Co164 N165 1.986 1_554 S
Co164 N170 2.028 . S
Co164 N175 2.003 . S
Co164 N180 2.274 1_554 S
Co164 N186 2.291 . S
N165 Co164 1.986 1_556 S
N165 C166 1.376 . S
N165 C169 1.383 . S
C166 N165 1.376 . S
C166 C167 1.446 . S
C166 C196 1.391 . S
C167 C166 1.446 . S
C167 C168 1.339 . S
C167 H202 0.949 . S
C168 C167 1.339 . S
C168 C169 1.439 . S
C168 H203 0.950 . S
C169 N165 1.383 . S
C169 C168 1.439 . S
C169 C198 1.392 1_556 S
N170 Co164 2.028 . S
N170 C171 1.376 . S
N170 C174 1.374 . S
C171 N170 1.376 . S
C171 C172 1.443 . S
C171 C198 1.389 . S
C172 C171 1.443 . S
C172 C173 1.340 . S
C172 H204 0.951 . S
C173 C172 1.340 . S
C173 C174 1.439 . S
C173 H205 0.950 . S
C174 N170 1.374 . S
C174 C173 1.439 . S
C174 C199 1.395 . S
N175 Co164 2.003 . S
N175 C176 1.376 . S
N175 C179 1.383 . S
C176 N175 1.376 . S
C176 C177 1.446 . S
C176 C199 1.391 . S
C177 C176 1.446 . S
C177 C178 1.339 . S
C177 H206 0.949 . S
C178 C177 1.339 . S
C178 C179 1.439 . S
C178 H207 0.950 . S
C179 N175 1.383 . S
C179 C178 1.439 . S
C179 C197 1.396 . S
N180 Co164 2.274 1_556 S
N180 C183 1.332 1_556 S
N180 C185 1.332 . S
C181 C182 1.392 . S
C181 C184 1.384 1_554 S
C182 C181 1.392 . S
C182 C183 1.382 . S
C182 H208 0.950 . S
C183 N180 1.332 1_554 S
C183 C182 1.382 . S
C183 H194 0.952 . S
C184 C181 1.384 1_556 S
C184 C185 1.382 . S
C184 H209 0.950 . S
C185 N180 1.332 . S
C185 C184 1.382 . S
C185 H195 0.948 . S
N186 Co164 2.291 . S
N186 C190 1.332 1_554 S
N186 C191 1.332 . S
C187 C188 1.388 . S
C187 C191 1.382 . S
C187 H210 0.950 . S
C188 C187 1.388 . S
C188 C189 1.386 1_554 S
C189 C188 1.386 1_556 S
C189 C190 1.382 . S
C189 H211 0.950 . S
C190 N186 1.332 1_556 S
C190 C189 1.382 . S
C190 H192 0.952 . S
C191 N186 1.332 . S
C191 C187 1.382 . S
C191 H193 0.948 . S
H192 C190 0.952 . S
H193 C191 0.948 . S
H194 C183 0.952 . S
H195 C185 0.948 . S
C196 C162 1.395 . S
C196 C166 1.391 . S
C197 C159 1.386 1_554 S
C197 C179 1.396 . S
C198 C169 1.392 1_554 S
C198 C171 1.389 . S
C199 C174 1.395 . S
C199 C176 1.391 . S
H200 C160 0.951 . S
H201 C161 0.950 . S
H202 C167 0.949 . S
H203 C168 0.950 . S
H204 C172 0.951 . S
H205 C173 0.950 . S
H206 C177 0.949 . S
H207 C178 0.950 . S
H208 C182 0.950 . S
H209 C184 0.950 . S
H210 C187 0.950 . S
H211 C189 0.950 . S
C212 C213 1.443 . S
C212 N216 1.376 . S
C212 C250 1.389 . S
C213 C212 1.443 . S
C213 C214 1.340 . S
C213 H253 0.951 . S
C214 C213 1.340 . S
C214 C215 1.439 . S
C214 H254 0.950 . S
C215 C214 1.439 . S
C215 N216 1.374 . S
C215 C249 1.395 . S
N216 C212 1.376 . S
N216 C215 1.374 . S
N216 Co217 2.018 . S
Co217 N216 2.018 . S
Co217 N218 2.014 . S
Co217 N223 1.999 1_455 S
Co217 N228 1.975 1_455 S
Co217 N233 2.276 . S
Co217 N239 2.289 1_455 S
N218 Co217 2.014 . S
N218 C219 1.376 . S
N218 C222 1.383 . S
C219 N218 1.376 . S
C219 C220 1.446 . S
C219 C249 1.391 . S
C220 C219 1.446 . S
C220 C221 1.339 . S
C220 H255 0.949 . S
C221 C220 1.339 . S
C221 C222 1.439 . S
C221 H256 0.950 . S
C222 N218 1.383 . S
C222 C221 1.439 . S
C222 C251 1.394 . S
N223 Co217 1.999 1_655 S
N223 C224 1.376 . S
N223 C227 1.374 . S
C224 N223 1.376 . S
C224 C225 1.443 . S
C224 C251 1.386 1_655 S
C225 C224 1.443 . S
C225 C226 1.340 . S
C225 H257 0.951 . S
C226 C225 1.340 . S
C226 C227 1.439 . S
C226 H258 0.950 . S
C227 N223 1.374 . S
C227 C226 1.439 . S
C227 C252 1.395 . S
N228 Co217 1.975 1_655 S
N228 C229 1.376 . S
N228 C232 1.383 . S
C229 N228 1.376 . S
C229 C230 1.446 . S
C229 C252 1.391 . S
C230 C229 1.446 . S
C230 C231 1.339 . S
C230 H259 0.949 . S
C231 C230 1.339 . S
C231 C232 1.439 . S
C231 H260 0.950 . S
C232 N228 1.383 . S
C232 C231 1.439 . S
C232 C250 1.392 1_655 S
N233 Co217 2.276 . S
N233 C236 1.332 1_455 S
N233 C238 1.332 . S
C234 C235 1.386 1_455 S
C234 C237 1.388 . S
C235 C234 1.386 1_655 S
C235 C236 1.382 . S
C235 H261 0.950 . S
C236 N233 1.332 1_655 S
C236 C235 1.382 . S
C236 H247 0.952 . S
C237 C234 1.388 . S
C237 C238 1.382 . S
C237 H262 0.950 . S
C238 N233 1.332 . S
C238 C237 1.382 . S
C238 H248 0.948 . S
N239 Co217 2.289 1_655 S
N239 C243 1.332 1_655 S
N239 C244 1.332 . S
C240 C241 1.382 1_655 S
C240 C244 1.382 . S
C240 H263 0.950 . S
C241 C240 1.382 1_455 S
C241 C242 1.390 . S
C242 C241 1.390 . S
C242 C243 1.382 . S
C242 H264 0.950 . S
C243 N239 1.332 1_455 S
C243 C242 1.382 . S
C243 H245 0.952 . S
C244 N239 1.332 . S
C244 C240 1.382 . S
C244 H246 0.948 . S
H245 C243 0.952 . S
H246 C244 0.948 . S
H247 C236 0.952 . S
H248 C238 0.948 . S
C249 C215 1.395 . S
C249 C219 1.391 . S
C250 C212 1.389 . S
C250 C232 1.392 1_455 S
C251 C222 1.394 . S
C251 C224 1.386 1_455 S
C252 C227 1.395 . S
C252 C229 1.391 . S
H253 C213 0.951 . S
H254 C214 0.950 . S
H255 C220 0.949 . S
H256 C221 0.950 . S
H257 C225 0.951 . S
H258 C226 0.950 . S
H259 C230 0.949 . S
H260 C231 0.950 . S
H261 C235 0.950 . S
H262 C237 0.950 . S
H263 C240 0.950 . S
H264 C242 0.950 . S
C265 C266 1.443 . S
C265 N269 1.376 . S
C265 C303 1.389 . S
C266 C265 1.443 . S
C266 C267 1.340 . S
C266 H306 0.951 . S
C267 C266 1.340 . S
C267 C268 1.439 . S
C267 H307 0.950 . S
C268 C267 1.439 . S
C268 N269 1.374 . S
C268 C302 1.395 . S
N269 C265 1.376 . S
N269 C268 1.374 . S
N269 Co270 2.008 . S
Co270 N269 2.008 . S
Co270 N271 1.995 . S
Co270 N276 2.008 1_545 S
Co270 N281 1.995 1_545 S
Co270 N286 2.282 . S
Co270 N292 2.282 1_545 S
N271 Co270 1.995 . S
N271 C272 1.376 . S
N271 C275 1.383 . S
C272 N271 1.376 . S
C272 C273 1.446 . S
C272 C302 1.391 . S
C273 C272 1.446 . S
C273 C274 1.339 . S
C273 H308 0.949 . S
C274 C273 1.339 . S
C274 C275 1.439 . S
C274 H309 0.950 . S
C275 N271 1.383 . S
C275 C274 1.439 . S
C275 C304 1.392 . S
N276 Co270 2.008 1_565 S
N276 C277 1.376 . S
N276 C280 1.374 . S
C277 N276 1.376 . S
C277 C278 1.443 . S
C277 C304 1.389 1_565 S
C278 C277 1.443 . S
C278 C279 1.340 . S
C278 H310 0.951 . S
C279 C278 1.340 . S
C279 C280 1.439 . S
C279 H311 0.950 . S
C280 N276 1.374 . S
C280 C279 1.439 . S
C280 C305 1.395 . S
N281 Co270 1.995 1_565 S
N281 C282 1.376 . S
N281 C285 1.383 . S
C282 N281 1.376 . S
C282 C283 1.446 . S
C282 C305 1.391 . S
C283 C282 1.446 . S
C283 C284 1.339 . S
C283 H312 0.949 . S
C284 C283 1.339 . S
C284 C285 1.439 . S
C284 H313 0.950 . S
C285 N281 1.383 . S
C285 C284 1.439 . S
C285 C303 1.392 1_565 S
N286 Co270 2.282 . S
N286 C289 1.332 1_545 S
N286 C291 1.332 . S
C287 C288 1.386 1_545 S
C287 C290 1.388 . S
C288 C287 1.386 1_565 S
C288 C289 1.382 . S
C288 H314 0.950 . S
C289 N286 1.332 1_565 S
C289 C288 1.382 . S
C289 H300 0.952 . S
C290 C287 1.388 . S
C290 C291 1.382 . S
C290 H315 0.950 . S
C291 N286 1.332 . S
C291 C290 1.382 . S
C291 H301 0.948 . S
N292 Co270 2.282 1_565 S
N292 C296 1.332 1_565 S
N292 C297 1.332 . S
C293 C294 1.388 1_565 S
C293 C297 1.382 . S
C293 H316 0.950 . S
C294 C293 1.388 1_545 S
C294 C295 1.386 . S
C295 C294 1.386 . S
C295 C296 1.382 . S
C295 H317 0.950 . S
C296 N292 1.332 1_545 S
C296 C295 1.382 . S
C296 H298 0.952 . S
C297 N292 1.332 . S
C297 C293 1.382 . S
C297 H299 0.948 . S
H298 C296 0.952 . S
H299 C297 0.948 . S
H300 C289 0.952 . S
H301 C291 0.948 . S
C302 C268 1.395 . S
C302 C272 1.391 . S
C303 C265 1.389 . S
C303 C285 1.392 1_545 S
C304 C275 1.392 . S
C304 C277 1.389 1_545 S
C305 C280 1.395 . S
C305 C282 1.391 . S
H306 C266 0.951 . S
H307 C267 0.950 . S
H308 C273 0.949 . S
H309 C274 0.950 . S
H310 C278 0.951 . S
H311 C279 0.950 . S
H312 C283 0.949 . S
H313 C284 0.950 . S
H314 C288 0.950 . S
H315 C290 0.950 . S
H316 C293 0.950 . S
H317 C295 0.950 . S
C318 C319 1.386 1_455 S
C318 C320 1.383 . S
C318 H334 0.951 . S
C319 C318 1.386 1_655 S
C319 C323 1.383 . S
C320 C318 1.383 . S
C320 C321 1.402 1_455 S
C320 H335 0.951 . S
C321 C320 1.402 1_655 S
C321 C322 1.375 . S
C321 C324 1.481 . S
C322 C321 1.375 . S
C322 C323 1.367 . S
C322 H336 0.951 . S
C323 C319 1.383 . S
C323 C322 1.367 . S
C323 H337 0.950 . S
C324 C321 1.481 . S
C324 C325 1.297 . S
C324 H338 0.950 . S
C325 C324 1.297 . S
C325 C326 1.479 . S
C325 H339 0.950 1_655 S
C326 C325 1.479 . S
C326 C327 1.375 1_655 S
C326 C332 1.404 . S
C327 C326 1.375 1_455 S
C327 C328 1.369 . S
C327 H340 0.950 . S
C328 C327 1.369 . S
C328 C329 1.392 1_455 S
C328 H341 0.951 . S
C329 C328 1.392 1_655 S
C329 C331 1.384 . S
H330 C332 0.949 . S
C331 C329 1.384 . S
C331 C332 1.385 . S
C331 H333 0.950 . S
C332 C326 1.404 . S
C332 H330 0.949 . S
C332 C331 1.385 . S
H333 C331 0.950 . S
H334 C318 0.951 . S
H335 C320 0.951 . S
H336 C322 0.951 . S
H337 C323 0.950 . S
H338 C324 0.950 . S
H339 C325 0.950 1_455 S
H340 C327 0.950 . S
H341 C328 0.951 . S
C342 C343 1.390 . S
C342 C344 1.383 . S
C342 H358 0.951 . S
C343 C342 1.390 . S
C343 C347 1.380 1_545 S
C344 C342 1.383 . S
C344 C345 1.402 1_545 S
C344 H359 0.951 . S
C345 C344 1.402 1_565 S
C345 C346 1.375 . S
C345 C348 1.481 . S
C346 C345 1.375 . S
C346 C347 1.367 . S
C346 H360 0.951 . S
C347 C343 1.380 1_565 S
C347 C346 1.367 . S
C347 H361 0.950 . S
C348 C345 1.481 . S
C348 C349 1.297 1_565 S
C348 H362 0.950 . S
C349 C348 1.297 1_545 S
C349 C350 1.479 . S
C349 H363 0.950 . S
C350 C349 1.479 . S
C350 C351 1.375 . S
C350 C356 1.404 1_545 S
C351 C350 1.375 . S
C351 C352 1.369 . S
C351 H364 0.950 . S
C352 C351 1.369 . S
C352 C353 1.392 . S
C352 H365 0.951 . S
C353 C352 1.392 . S
C353 C355 1.384 1_545 S
H354 C356 0.949 . S
C355 C353 1.384 1_565 S
C355 C356 1.385 . S
C355 H357 0.950 . S
C356 C350 1.404 1_565 S
C356 H354 0.949 . S
C356 C355 1.385 . S
H357 C355 0.950 . S
H358 C342 0.951 . S
H359 C344 0.951 . S
H360 C346 0.951 . S
H361 C347 0.950 . S
H362 C348 0.950 . S
H363 C349 0.950 . S
H364 C351 0.950 . S
H365 C352 0.951 . S
C366 C367 1.386 1_655 S
C366 C368 1.383 . S
C366 H382 0.951 . S
C367 C366 1.386 1_455 S
C367 C371 1.383 . S
C368 C366 1.383 . S
C368 C369 1.402 1_655 S
C368 H383 0.951 . S
C369 C368 1.402 1_455 S
C369 C370 1.375 . S
C369 C372 1.481 . S
C370 C369 1.375 . S
C370 C371 1.367 . S
C370 H384 0.951 . S
C371 C367 1.383 . S
C371 C370 1.367 . S
C371 H385 0.950 . S
C372 C369 1.481 . S
C372 C373 1.297 1_455 S
C372 H386 0.950 . S
C373 C372 1.297 1_655 S
C373 C374 1.479 . S
C373 H387 0.950 . S
C374 C373 1.479 . S
C374 C375 1.375 . S
C374 C380 1.404 1_655 S
C375 C374 1.375 . S
C375 C376 1.369 . S
C375 H388 0.950 . S
C376 C375 1.369 . S
C376 C377 1.392 . S
C376 H389 0.951 . S
C377 C376 1.392 . S
C377 C379 1.384 1_655 S
H378 C380 0.949 . S
C379 C377 1.384 1_455 S
C379 C380 1.385 . S
C379 H381 0.950 . S
C380 C374 1.404 1_455 S
C380 H378 0.949 . S
C380 C379 1.385 . S
H381 C379 0.950 . S
H382 C366 0.951 . S
H383 C368 0.951 . S
H384 C370 0.951 . S
H385 C371 0.950 . S
H386 C372 0.950 . S
H387 C373 0.950 . S
H388 C375 0.950 . S
H389 C376 0.951 . S
C390 C391 1.382 1_545 S
C390 C392 1.383 . S
C390 H406 0.951 . S
C391 C390 1.382 1_565 S
C391 C395 1.385 . S
C392 C390 1.383 . S
C392 C393 1.402 1_545 S
C392 H407 0.951 . S
C393 C392 1.402 1_565 S
C393 C394 1.375 . S
C393 C396 1.481 . S
C394 C393 1.375 . S
C394 C395 1.367 . S
C394 H408 0.951 . S
C395 C391 1.385 . S
C395 C394 1.367 . S
C395 H409 0.950 . S
C396 C393 1.481 . S
C396 C397 1.297 1_565 S
C396 H410 0.950 . S
C397 C396 1.297 1_545 S
C397 C398 1.479 . S
C397 H411 0.950 . S
C398 C397 1.479 . S
C398 C399 1.375 . S
C398 C404 1.404 1_545 S
C399 C398 1.375 . S
C399 C400 1.369 . S
C399 H412 0.950 . S
C400 C399 1.369 . S
C400 C401 1.392 . S
C400 H413 0.951 . S
C401 C400 1.392 . S
C401 C403 1.384 1_545 S
H402 C404 0.949 . S
C403 C401 1.384 1_565 S
C403 C404 1.385 . S
C403 H405 0.950 . S
C404 C398 1.404 1_565 S
C404 H402 0.949 . S
C404 C403 1.385 . S
H405 C403 0.950 . S
H406 C390 0.951 . S
H407 C392 0.951 . S
H408 C394 0.951 . S
H409 C395 0.950 . S
H410 C396 0.950 . S
H411 C397 0.950 . S
H412 C399 0.950 . S
H413 C400 0.951 . S
C414 C415 1.386 1_565 S
C414 C416 1.383 . S
C414 H430 0.951 . S
C415 C414 1.386 1_545 S
C415 C419 1.383 . S
C416 C414 1.383 . S
C416 C417 1.402 1_565 S
C416 H431 0.951 . S
C417 C416 1.402 1_545 S
C417 C418 1.375 . S
C417 C420 1.481 . S
C418 C417 1.375 . S
C418 C419 1.367 . S
C418 H432 0.951 . S
C419 C415 1.383 . S
C419 C418 1.367 . S
C419 H433 0.950 . S
C420 C417 1.481 . S
C420 C421 1.297 1_545 S
C420 H434 0.950 . S
C421 C420 1.297 1_565 S
C421 C422 1.479 . S
C421 H435 0.950 . S
C422 C421 1.479 . S
C422 C423 1.375 . S
C422 C428 1.404 1_565 S
C423 C422 1.375 . S
C423 C424 1.369 . S
C423 H436 0.950 . S
C424 C423 1.369 . S
C424 C425 1.422 . S
C424 H437 0.951 . S
C425 C424 1.422 . S
C425 C427 1.365 1_565 S
H426 C428 0.949 . S
C427 C425 1.365 1_545 S
C427 C428 1.385 . S
C427 H429 0.950 . S
C428 C422 1.404 1_545 S
C428 H426 0.949 . S
C428 C427 1.385 . S
H429 C427 0.950 . S
H430 C414 0.951 . S
H431 C416 0.951 . S
H432 C418 0.951 . S
H433 C419 0.950 . S
H434 C420 0.950 . S
H435 C421 0.950 . S
H436 C423 0.950 . S
H437 C424 0.951 . S
C438 C439 1.399 . S
C438 C440 1.383 . S
C438 H454 0.951 . S
C439 C438 1.399 . S
C439 C443 1.361 1_455 S
C440 C438 1.383 . S
C440 C441 1.428 . S
C440 H455 0.951 . S
C441 C440 1.428 . S
C441 C442 1.360 1_455 S
C441 C444 1.462 1_455 S
C442 C441 1.360 1_655 S
C442 C443 1.367 . S
C442 H456 0.951 . S
C443 C439 1.361 1_655 S
C443 C442 1.367 . S
C443 H457 0.950 . S
C444 C441 1.462 1_655 S
C444 C445 1.288 1_655 S
C444 H458 0.969 . S
C445 C444 1.288 1_455 S
C445 C446 1.479 . S
C445 H459 0.950 . S
C446 C445 1.479 . S
C446 C447 1.375 . S
C446 C452 1.404 1_455 S
C447 C446 1.375 . S
C447 C448 1.369 . S
C447 H460 0.950 . S
C448 C447 1.369 . S
C448 C449 1.392 . S
C448 H461 0.951 . S
C449 C448 1.392 . S
C449 C451 1.384 1_455 S
H450 C452 0.949 . S
C451 C449 1.384 1_655 S
C451 C452 1.385 . S
C451 H453 0.950 . S
C452 C446 1.404 1_655 S
C452 H450 0.949 . S
C452 C451 1.385 . S
H453 C451 0.950 . S
H454 C438 0.951 . S
H455 C440 0.951 . S
H456 C442 0.951 . S
H457 C443 0.950 . S
H458 C444 0.969 . S
H459 C445 0.950 . S
H460 C447 0.950 . S
H461 C448 0.951 . S
C462 C463 1.386 . S
C462 C464 1.383 . S
C462 H478 0.951 . S
C463 C462 1.386 . S
C463 C467 1.383 . S
C464 C462 1.383 . S
C464 C465 1.402 . S
C464 H479 0.951 . S
C465 C464 1.402 . S
C465 C466 1.375 . S
C465 C468 1.481 . S
C466 C465 1.375 . S
C466 C467 1.367 . S
C466 H480 0.951 . S
C467 C463 1.383 . S
C467 C466 1.367 . S
C467 H481 0.950 . S
C468 C465 1.481 . S
C468 C469 1.297 . S
C468 H482 0.950 . S
C469 C468 1.297 . S
C469 C470 1.479 . S
C469 H483 0.950 . S
C470 C469 1.479 . S
C470 C471 1.375 . S
C470 C476 1.404 . S
C471 C470 1.375 . S
C471 C472 1.369 . S
C471 H484 0.950 . S
C472 C471 1.369 . S
C472 C473 1.392 . S
C472 H485 0.951 . S
C473 C472 1.392 . S
C473 C475 1.384 . S
H474 C476 0.949 . S
C475 C473 1.384 . S
C475 C476 1.385 . S
C475 H477 0.950 . S
C476 C470 1.404 . S
C476 H474 0.949 . S
C476 C475 1.385 . S
H477 C475 0.950 . S
H478 C462 0.951 . S
H479 C464 0.951 . S
H480 C466 0.951 . S
H481 C467 0.950 . S
H482 C468 0.950 . S
H483 C469 0.950 . S
H484 C471 0.950 . S
H485 C472 0.951 . S
C486 C487 1.386 1_655 S
C486 C488 1.383 . S
C486 H502 0.951 . S
C487 C486 1.386 1_455 S
C487 C491 1.383 . S
C488 C486 1.383 . S
C488 C489 1.402 1_655 S
C488 H503 0.951 . S
C489 C488 1.402 1_455 S
C489 C490 1.375 . S
C489 C492 1.481 . S
C490 C489 1.375 . S
C490 C491 1.367 . S
C490 H504 0.951 . S
C491 C487 1.383 . S
C491 C490 1.367 . S
C491 H505 0.950 . S
C492 C489 1.481 . S
C492 C493 1.297 . S
C492 H506 0.950 . S
C493 C492 1.297 . S
C493 C494 1.479 . S
C493 H507 0.950 1_455 S
C494 C493 1.479 . S
C494 C495 1.375 1_455 S
C494 C500 1.404 . S
C495 C494 1.375 1_655 S
C495 C496 1.369 . S
C495 H508 0.950 . S
C496 C495 1.369 . S
C496 C497 1.392 1_655 S
C496 H509 0.951 . S
C497 C496 1.392 1_455 S
C497 C499 1.384 . S
H498 C500 0.949 . S
C499 C497 1.384 . S
C499 C500 1.385 . S
C499 H501 0.950 . S
C500 C494 1.404 . S
C500 H498 0.949 . S
C500 C499 1.385 . S
H501 C499 0.950 . S
H502 C486 0.951 . S
H503 C488 0.951 . S
H504 C490 0.951 . S
H505 C491 0.950 . S
H506 C492 0.950 . S
H507 C493 0.950 1_655 S
H508 C495 0.950 . S
H509 C496 0.951 . S
C510 C511 1.386 1_556 S
C510 C512 1.383 . S
C510 H526 0.951 . S
C511 C510 1.386 1_554 S
C511 C515 1.383 . S
C512 C510 1.383 . S
C512 C513 1.402 1_556 S
C512 H527 0.951 . S
C513 C512 1.402 1_554 S
C513 C514 1.375 . S
C513 C516 1.481 . S
C514 C513 1.375 . S
C514 C515 1.367 . S
C514 H528 0.951 . S
C515 C511 1.383 . S
C515 C514 1.367 . S
C515 H529 0.950 . S
C516 C513 1.481 . S
C516 C517 1.297 1_554 S
C516 H530 0.950 . S
C517 C516 1.297 1_556 S
C517 C518 1.479 . S
C517 H531 0.950 . S
C518 C517 1.479 . S
C518 C519 1.375 . S
C518 C524 1.404 1_556 S
C519 C518 1.375 . S
C519 C520 1.369 . S
C519 H532 0.950 . S
C520 C519 1.369 . S
C520 C521 1.400 . S
C520 H533 0.951 . S
C521 C520 1.400 . S
C521 C523 1.375 1_556 S
H522 C524 0.949 . S
C523 C521 1.375 1_554 S
C523 C524 1.385 . S
C523 H525 0.950 . S
C524 C518 1.404 1_554 S
C524 H522 0.949 . S
C524 C523 1.385 . S
H525 C523 0.950 . S
H526 C510 0.951 . S
H527 C512 0.951 . S
H528 C514 0.951 . S
H529 C515 0.950 . S
H530 C516 0.950 . S
H531 C517 0.950 . S
H532 C519 0.950 . S
H533 C520 0.951 . S
C534 C535 1.386 1_554 S
C534 C536 1.389 1_554 S
C534 H550 0.951 . S
C535 C534 1.386 1_556 S
C535 C539 1.383 . S
C536 C534 1.389 1_556 S
C536 C537 1.417 . S
C536 H551 0.930 1_556 S
C537 C536 1.417 . S
C537 C538 1.375 . S
C537 C540 1.481 . S
C538 C537 1.375 . S
C538 C539 1.367 . S
C538 H552 0.951 . S
C539 C535 1.383 . S
C539 C538 1.367 . S
C539 H553 0.950 . S
C540 C537 1.481 . S
C540 C541 1.297 . S
C540 H554 0.950 . S
C541 C540 1.297 . S
C541 C542 1.479 . S
C541 H555 0.950 . S
C542 C541 1.479 . S
C542 C543 1.375 . S
C542 C548 1.404 . S
C543 C542 1.375 . S
C543 C544 1.369 1_556 S
C543 H556 0.950 1_556 S
C544 C543 1.369 1_554 S
C544 C545 1.392 1_554 S
C544 H557 0.951 . S
C545 C544 1.392 1_556 S
C545 C547 1.384 . S
H546 C548 0.949 . S
C547 C545 1.384 . S
C547 C548 1.385 . S
C547 H549 0.950 . S
C548 C542 1.404 . S
C548 H546 0.949 . S
C548 C547 1.385 . S
H549 C547 0.950 . S
H550 C534 0.951 . S
H551 C536 0.930 1_554 S
H552 C538 0.951 . S
H553 C539 0.950 . S
H554 C540 0.950 . S
H555 C541 0.950 . S
H556 C543 0.950 1_554 S
H557 C544 0.951 . S
C558 C559 1.370 1_554 S
C558 C560 1.383 . S
C558 H574 0.951 . S
C559 C558 1.370 1_556 S
C559 C563 1.395 . S
C560 C558 1.383 . S
C560 C561 1.402 1_554 S
C560 H575 0.951 . S
C561 C560 1.402 1_556 S
C561 C562 1.375 . S
C561 C564 1.481 . S
C562 C561 1.375 . S
C562 C563 1.367 . S
C562 H576 0.951 . S
C563 C559 1.395 . S
C563 C562 1.367 . S
C563 H577 0.950 . S
C564 C561 1.481 . S
C564 C565 1.297 1_556 S
C564 H578 0.950 . S
C565 C564 1.297 1_554 S
C565 C566 1.479 . S
C565 H579 0.950 . S
C566 C565 1.479 . S
C566 C567 1.375 . S
C566 C572 1.404 1_554 S
C567 C566 1.375 . S
C567 C568 1.369 . S
C567 H580 0.950 . S
C568 C567 1.369 . S
C568 C569 1.392 . S
C568 H581 0.951 . S
C569 C568 1.392 . S
C569 C571 1.384 1_554 S
H570 C572 0.949 . S
C571 C569 1.384 1_556 S
C571 C572 1.385 . S
C571 H573 0.950 . S
C572 C566 1.404 1_556 S
C572 H570 0.949 . S
C572 C571 1.385 . S
H573 C571 0.950 . S
H574 C558 0.951 . S
H575 C560 0.951 . S
H576 C562 0.951 . S
H577 C563 0.950 . S
H578 C564 0.950 . S
H579 C565 0.950 . S
H580 C567 0.950 . S
H581 C568 0.951 . S
C582 C583 1.386 1_554 S
C582 C584 1.383 . S
C582 H598 0.951 . S
C583 C582 1.386 1_556 S
C583 C587 1.383 . S
C584 C582 1.383 . S
C584 C585 1.402 1_554 S
C584 H599 0.951 . S
C585 C584 1.402 1_556 S
C585 C586 1.375 . S
C585 C588 1.481 . S
C586 C585 1.375 . S
C586 C587 1.367 . S
C586 H600 0.951 . S
C587 C583 1.383 . S
C587 C586 1.367 . S
C587 H601 0.950 . S
C588 C585 1.481 . S
C588 C589 1.297 . S
C588 H602 0.950 . S
C589 C588 1.297 . S
C589 C590 1.479 . S
C589 H603 0.950 . S
C590 C589 1.479 . S
C590 C591 1.375 1_556 S
C590 C596 1.404 . S
C591 C590 1.375 1_554 S
C591 C592 1.369 . S
C591 H604 0.950 . S
C592 C591 1.369 . S
C592 C593 1.392 1_554 S
C592 H605 0.951 . S
C593 C592 1.392 1_556 S
C593 C595 1.384 . S
H594 C596 0.949 . S
C595 C593 1.384 . S
C595 C596 1.385 . S
C595 H597 0.950 . S
C596 C590 1.404 . S
C596 H594 0.949 . S
C596 C595 1.385 . S
H597 C595 0.950 . S
H598 C582 0.951 . S
H599 C584 0.951 . S
H600 C586 0.951 . S
H601 C587 0.950 . S
H602 C588 0.950 . S
H603 C589 0.950 . S
H604 C591 0.950 . S
H605 C592 0.951 . S
C319 C29 1.498 1_655 S
C329 C241 1.486 1_655 S
C343 C38 1.495 . S
C353 C303 1.491 . S
C367 C234 1.493 . S
C377 C22 1.483 . S
C391 C304 1.494 1_565 S
C401 C39 1.485 . S
C415 C294 1.494 . S
C425 C91 1.480 1_565 S
C439 C128 1.504 . S
C449 C251 1.493 . S
C463 C287 1.497 . S
C473 C92 1.497 . S
C487 C250 1.494 . S
C497 C135 1.487 1_455 S
C511 C144 1.493 . S
C521 C198 1.496 1_556 S
C535 C188 1.498 1_556 S
C545 C75 1.492 1_556 S
C559 C145 1.494 . S
C569 C197 1.483 . S
C583 C181 1.493 1_556 S
C593 C82 1.483 . S
