# Generated by pormake.
# Topology yfz, (5)-cn, num edge types: 1
# Building blocks:
#     Node 0, Type 0, BuildingBlock: XOMCOT_clean_sbu_1, # of connection points: 5
#     Node 1, Type 0, BuildingBlock: XOMCOT_clean_sbu_1, # of connection points: 5
#     Node 2, Type 0, BuildingBlock: XOMCOT_clean_sbu_1, # of connection points: 5
#     Node 3, Type 0, BuildingBlock: XOMCOT_clean_sbu_1, # of connection points: 5
#     Node 4, Type 0, BuildingBlock: XOMCOT_clean_sbu_1, # of connection points: 5
#     Node 5, Type 0, BuildingBlock: XOMCOT_clean_sbu_1, # of connection points: 5
#     Node 6, Type 0, BuildingBlock: XOMCOT_clean_sbu_1, # of connection points: 5
#     Node 7, Type 0, BuildingBlock: XOMCOT_clean_sbu_1, # of connection points: 5
#     Edge 8, Type (0, 0), BuildingBlock: TEMPAE_clean_linker_10, # of connection points: 2
#     Edge 9, Type (0, 0), BuildingBlock: TEMPAE_clean_linker_10, # of connection points: 2
#     Edge 10, Type (0, 0), BuildingBlock: TEMPAE_clean_linker_10, # of connection points: 2
#     Edge 11, Type (0, 0), BuildingBlock: TEMPAE_clean_linker_10, # of connection points: 2
#     Edge 12, Type (0, 0), BuildingBlock: TEMPAE_clean_linker_10, # of connection points: 2
#     Edge 13, Type (0, 0), BuildingBlock: TEMPAE_clean_linker_10, # of connection points: 2
#     Edge 14, Type (0, 0), BuildingBlock: TEMPAE_clean_linker_10, # of connection points: 2
#     Edge 15, Type (0, 0), BuildingBlock: TEMPAE_clean_linker_10, # of connection points: 2
#     Edge 16, Type (0, 0), BuildingBlock: TEMPAE_clean_linker_10, # of connection points: 2
#     Edge 17, Type (0, 0), BuildingBlock: TEMPAE_clean_linker_10, # of connection points: 2
#     Edge 18, Type (0, 0), BuildingBlock: TEMPAE_clean_linker_10, # of connection points: 2
#     Edge 19, Type (0, 0), BuildingBlock: TEMPAE_clean_linker_10, # of connection points: 2
#     Edge 20, Type (0, 0), BuildingBlock: TEMPAE_clean_linker_10, # of connection points: 2
#     Edge 21, Type (0, 0), BuildingBlock: TEMPAE_clean_linker_10, # of connection points: 2
#     Edge 22, Type (0, 0), BuildingBlock: TEMPAE_clean_linker_10, # of connection points: 2
#     Edge 23, Type (0, 0), BuildingBlock: TEMPAE_clean_linker_10, # of connection points: 2
#     Edge 24, Type (0, 0), BuildingBlock: TEMPAE_clean_linker_10, # of connection points: 2
#     Edge 25, Type (0, 0), BuildingBlock: TEMPAE_clean_linker_10, # of connection points: 2
#     Edge 26, Type (0, 0), BuildingBlock: TEMPAE_clean_linker_10, # of connection points: 2
#     Edge 27, Type (0, 0), BuildingBlock: TEMPAE_clean_linker_10, # of connection points: 2
# Relax obj value: 0.148
# Max RMSD: 0.137
# Mean RMSD: 0.137
data_MOF--net-yfz--node1-XOMCOT_clean_sbu_1--edge1-TEMPAE_clean_linker_10
_symmetry_space_group_name_H-M    P1
_symmetry_Int_Tables_number       1
_symmetry_cell_setting            triclinic
loop_
_symmetry_equiv_pos_as_xyz
'x, y, z'
_cell_length_a     53.101847
_cell_length_b     53.088048
_cell_length_c     17.662558
_cell_angle_alpha  90.00353
_cell_angle_beta   90.098488
_cell_angle_gamma 90.030224
loop_
_atom_site_label
_atom_site_type_symbol
_atom_site_fract_x
_atom_site_fract_y
_atom_site_fract_z
_atom_type_partial_charge
C0 C 0.56422 0.06585 0.32668 0.0
C1 C 0.56345 0.0624 0.24949 0.0
N2 N 0.55883 0.08483 0.21651 0.0
N3 N 0.55997 0.0903 0.34262 0.0
C4 C 0.55669 0.10136 0.27431 0.0
H5 H 0.56864 0.05158 0.36824 0.0
Co6 Co 0.56278 0.10475 0.43851 0.0
C7 C 0.53113 0.15001 0.4278 0.0
O8 O 0.51986 0.14421 0.49164 0.0
N9 N 0.56619 0.11914 0.53538 0.0
C10 C 0.57583 0.14565 0.62871 0.0
C11 C 0.57526 0.14231 0.55148 0.0
C12 C 0.56157 0.10873 0.60386 0.0
N13 N 0.56716 0.12448 0.6616 0.0
O14 O 0.52986 0.09224 0.46319 0.0
H15 H 0.5812 0.15593 0.50963 0.0
H16 H 0.5549 0.08972 0.61186 0.0
O17 O 0.54824 0.13572 0.4012 0.0
C18 C 0.52949 0.07014 0.49126 0.0
O19 O 0.55104 0.05866 0.50367 0.0
N20 N 0.59541 0.11525 0.41417 0.0
C21 C 0.64567 0.12219 0.37278 0.0
C22 C 0.62662 0.1375 0.34223 0.0
C23 C 0.60155 0.13373 0.36362 0.0
C24 C 0.61365 0.1007 0.4461 0.0
C25 C 0.63891 0.10395 0.42664 0.0
H26 H 0.58717 0.1451 0.33721 0.0
H27 H 0.60841 0.08602 0.48553 0.0
H28 H 0.55427 0.1214 0.2666 0.0
H29 H 0.56661 0.04482 0.22001 0.0
H30 H 0.58202 0.16241 0.65826 0.0
H31 H 0.63087 0.1516 0.29983 0.0
H32 H 0.65295 0.09196 0.45274 0.0
C33 C 0.40272 0.5562 0.79325 0.0
C34 C 0.40553 0.55525 0.71584 0.0
N35 N 0.38248 0.5544 0.68394 0.0
N36 N 0.378 0.55581 0.81047 0.0
C37 C 0.36617 0.5546 0.74257 0.0
H38 H 0.41779 0.55834 0.83387 0.0
Co39 Co 0.364 0.56154 0.90611 0.0
C40 C 0.31659 0.53232 0.90124 0.0
O41 O 0.31941 0.524 0.97076 0.0
N42 N 0.34991 0.56791 1.00255 0.0
C43 C 0.32415 0.58053 0.09463 0.0
C44 C 0.32762 0.57913 0.01746 0.0
C45 C 0.35964 0.56287 0.07185 0.0
N46 N 0.34432 0.57016 0.12873 0.0
O47 O 0.37546 0.529 0.93892 0.0
H48 H 0.31449 0.58564 0.97491 0.0
H49 H 0.37781 0.55439 0.08129 0.0
O50 O 0.3329 0.54692 0.8719 0.0
C51 C 0.39744 0.52917 0.96786 0.0
O52 O 0.40929 0.55083 0.97405 0.0
N53 N 0.35452 0.59372 0.8736 0.0
C54 C 0.3501 0.64205 0.81298 0.0
C55 C 0.33158 0.62375 0.79893 0.0
C56 C 0.33412 0.59963 0.82973 0.0
C57 C 0.37216 0.61146 0.89027 0.0
C58 C 0.3703 0.63577 0.86078 0.0
H59 H 0.3201 0.58565 0.81569 0.0
H60 H 0.38825 0.60638 0.92465 0.0
H61 H 0.34595 0.55555 0.73582 0.0
H62 H 0.4232 0.55588 0.68545 0.0
H63 H 0.30786 0.58819 0.1233 0.0
H64 H 0.31576 0.62769 0.76201 0.0
H65 H 0.38479 0.64941 0.87441 0.0
C66 C 0.90238 0.40532 0.303 0.0
C67 C 0.90121 0.40961 0.22629 0.0
N68 N 0.9121 0.39002 0.19076 0.0
N69 N 0.91365 0.38298 0.31572 0.0
C70 C 0.91978 0.37425 0.24618 0.0
H71 H 0.89424 0.417 0.34674 0.0
Co72 Co 0.9141 0.36796 0.41086 0.0
C73 C 0.91554 0.31361 0.37839 0.0
O74 O 0.89683 0.31088 0.42634 0.0
N75 N 0.91516 0.3538 0.50965 0.0
C76 C 0.92932 0.33274 0.61055 0.0
C77 C 0.9305 0.33498 0.53327 0.0
C78 C 0.90615 0.36369 0.57504 0.0
N79 N 0.91412 0.35091 0.63672 0.0
O80 O 0.94833 0.37829 0.42378 0.0
H81 H 0.94339 0.32465 0.49768 0.0
H82 H 0.89553 0.381 0.57836 0.0
O83 O 0.92498 0.33549 0.36657 0.0
C84 C 0.94954 0.39866 0.46171 0.0
O85 O 0.92842 0.40876 0.48576 0.0
N86 N 0.87942 0.36 0.39697 0.0
C87 C 0.82802 0.35846 0.35986 0.0
C88 C 0.8458 0.34539 0.31654 0.0
C89 C 0.87128 0.34708 0.3344 0.0
C90 C 0.86238 0.37284 0.43989 0.0
C91 C 0.83661 0.37212 0.42293 0.0
H92 H 0.88444 0.33889 0.29507 0.0
H93 H 0.86877 0.3853 0.484 0.0
H94 H 0.92794 0.3559 0.23581 0.0
H95 H 0.89222 0.42543 0.19858 0.0
H96 H 0.94042 0.32013 0.64537 0.0
H97 H 0.84027 0.33457 0.26726 0.0
H98 H 0.82378 0.38334 0.4565 0.0
C99 C 0.06904 0.92138 0.79004 0.0
C100 C 0.06711 0.92433 0.71292 0.0
N101 N 0.09046 0.92388 0.68264 0.0
N102 N 0.09346 0.91917 0.80912 0.0
C103 C 0.10605 0.92089 0.7428 0.0
H104 H 0.0535 0.91955 0.82908 0.0
Co105 Co 0.10543 0.90995 0.90443 0.0
C106 C 0.15564 0.93451 0.91647 0.0
O107 O 0.15398 0.93789 0.9899 0.0
N108 N 0.1173 0.89991 1.00262 0.0
C109 C 0.13308 0.87701 0.09786 0.0
C110 C 0.13016 0.87867 0.02067 0.0
C111 C 0.11325 0.91102 0.07089 0.0
N112 N 0.12248 0.89743 0.12919 0.0
O113 O 0.0943 0.94176 0.943 0.0
H114 H 0.13674 0.86467 0.98109 0.0
H115 H 0.10334 0.92853 0.07894 0.0
O116 O 0.13773 0.9242 0.87979 0.0
C117 C 0.0724 0.94112 0.97228 0.0
O118 O 0.06115 0.9192 0.97985 0.0
N119 N 0.11429 0.87859 0.86359 0.0
C120 C 0.11914 0.83162 0.794 0.0
C121 C 0.13882 0.84927 0.79108 0.0
C122 C 0.13603 0.87273 0.82609 0.0
C123 C 0.09516 0.86159 0.86801 0.0
C124 C 0.0972 0.83798 0.83392 0.0
H125 H 0.15122 0.88615 0.82143 0.0
H126 H 0.07801 0.86666 0.89723 0.0
H127 H 0.12623 0.91881 0.7388 0.0
H128 H 0.04959 0.92524 0.68179 0.0
H129 H 0.1421 0.86186 0.12869 0.0
H130 H 0.15599 0.84527 0.76034 0.0
H131 H 0.08168 0.82484 0.83877 0.0
C132 C 0.56965 0.4084 0.25534 0.0
C133 C 0.57037 0.41299 0.33195 0.0
N134 N 0.55991 0.39321 0.36778 0.0
N135 N 0.55906 0.3857 0.24288 0.0
C136 C 0.55291 0.37703 0.31252 0.0
H137 H 0.57762 0.42019 0.21156 0.0
Co138 Co 0.55933 0.3704 0.14794 0.0
C139 C 0.55917 0.31619 0.18334 0.0
O140 O 0.57832 0.31362 0.13689 0.0
N141 N 0.55895 0.35595 0.04923 0.0
C142 C 0.5459 0.33419 0.94822 0.0
C143 C 0.54487 0.33615 0.02562 0.0
C144 C 0.56701 0.36659 0.98372 0.0
N145 N 0.55969 0.35346 0.92196 0.0
O146 O 0.52494 0.37988 0.13316 0.0
H147 H 0.53272 0.32493 0.06114 0.0
H148 H 0.5764 0.38461 0.98046 0.0
O149 O 0.54901 0.33785 0.19285 0.0
C150 C 0.52396 0.4001 0.0945 0.0
O151 O 0.54522 0.41083 0.07425 0.0
N152 N 0.59411 0.36325 0.16289 0.0
C153 C 0.64564 0.36102 0.19531 0.0
C154 C 0.62819 0.349 0.24212 0.0
C155 C 0.60256 0.35096 0.22627 0.0
C156 C 0.61093 0.3756 0.11783 0.0
C157 C 0.63681 0.37459 0.13265 0.0
H158 H 0.58954 0.34324 0.26693 0.0
H159 H 0.60435 0.38755 0.07278 0.0
H160 H 0.54522 0.35849 0.32314 0.0
H161 H 0.57876 0.42919 0.35943 0.0
H162 H 0.53553 0.32095 0.91347 0.0
H163 H 0.63423 0.33918 0.29278 0.0
H164 H 0.64973 0.38477 0.09645 0.0
C165 C 0.07302 0.58036 0.65773 0.0
C166 C 0.06869 0.58096 0.73461 0.0
N167 N 0.08893 0.57113 0.76997 0.0
N168 N 0.09584 0.57019 0.64477 0.0
C169 C 0.10492 0.56442 0.71417 0.0
H170 H 0.06075 0.5877 0.61406 0.0
Co171 Co 0.11092 0.56807 0.54992 0.0
C172 C 0.16499 0.56369 0.58501 0.0
O173 O 0.16937 0.58129 0.53432 0.0
N174 N 0.12519 0.56498 0.45207 0.0
C175 C 0.14359 0.54558 0.35475 0.0
C176 C 0.14202 0.54704 0.43201 0.0
C177 C 0.11611 0.57343 0.38488 0.0
N178 N 0.12713 0.56204 0.32501 0.0
O179 O 0.09897 0.53423 0.54054 0.0
H180 H 0.15103 0.53404 0.47052 0.0
H181 H 0.09983 0.58548 0.37942 0.0
O182 O 0.14245 0.556 0.59628 0.0
C183 C 0.07856 0.53287 0.50282 0.0
O184 O 0.06885 0.55383 0.476 0.0
N185 N 0.12089 0.60245 0.56034 0.0
C186 C 0.12528 0.65394 0.59288 0.0
C187 C 0.13644 0.63591 0.63982 0.0
C188 C 0.13371 0.61041 0.62339 0.0
C189 C 0.10998 0.61987 0.51383 0.0
C190 C 0.11235 0.64573 0.52818 0.0
H191 H 0.14079 0.59718 0.66447 0.0
H192 H 0.09776 0.61391 0.46863 0.0
H193 H 0.12323 0.55613 0.72403 0.0
H194 H 0.05243 0.58904 0.76239 0.0
H195 H 0.15485 0.53229 0.32295 0.0
H196 H 0.14634 0.64142 0.6909 0.0
H197 H 0.10276 0.65908 0.49182 0.0
C198 C 0.90487 0.06503 0.22939 0.0
C199 C 0.90552 0.06151 0.30656 0.0
N200 N 0.91064 0.08381 0.3397 0.0
N201 N 0.90969 0.08939 0.21365 0.0
C202 C 0.91318 0.10034 0.28204 0.0
H203 H 0.90016 0.0509 0.18769 0.0
Co204 Co 0.90725 0.10393 0.11784 0.0
C205 C 0.94036 0.14818 0.12838 0.0
O206 O 0.9513 0.14218 0.06421 0.0
N207 N 0.90421 0.11837 0.02097 0.0
C208 C 0.89545 0.14509 0.92743 0.0
C209 C 0.89595 0.14183 1.0047 0.0
C210 C 0.90839 0.10773 0.95256 0.0
N211 N 0.90334 0.1236 0.8947 0.0
O212 O 0.93975 0.09055 0.09299 0.0
H213 H 0.89054 0.1557 0.04646 0.0
H214 H 0.91438 0.0885 0.9447 0.0
O215 O 0.92283 0.13439 0.15504 0.0
C216 C 0.93983 0.06854 0.06441 0.0
O217 O 0.91819 0.05723 0.05199 0.0
N218 N 0.87499 0.11545 0.14244 0.0
C219 C 0.82511 0.12445 0.18375 0.0
C220 C 0.84472 0.13916 0.21367 0.0
C221 C 0.86959 0.13438 0.19227 0.0
C222 C 0.85618 0.10138 0.11142 0.0
C223 C 0.83108 0.10564 0.13094 0.0
H224 H 0.88439 0.14545 0.2178 0.0
H225 H 0.86085 0.08623 0.07294 0.0
H226 H 0.91606 0.12031 0.2899 0.0
H227 H 0.90195 0.04398 0.33592 0.0
H228 H 0.88986 0.16203 0.89774 0.0
H229 H 0.8409 0.15398 0.2542 0.0
H230 H 0.81659 0.09361 0.10723 0.0
C231 C 0.39938 0.89131 0.67751 0.0
C232 C 0.40333 0.88983 0.75447 0.0
N233 N 0.38304 0.89954 0.7897 0.0
N234 N 0.37676 0.90192 0.66441 0.0
C235 C 0.36738 0.90702 0.73375 0.0
H236 H 0.41179 0.88435 0.63376 0.0
Co237 Co 0.36236 0.9053 0.56921 0.0
C238 C 0.30816 0.9112 0.59793 0.0
O239 O 0.30408 0.89481 0.54342 0.0
N240 N 0.34874 0.90959 0.47099 0.0
C241 C 0.33188 0.93063 0.37418 0.0
C242 C 0.33388 0.92924 0.45134 0.0
C243 C 0.35624 0.89988 0.4037 0.0
N244 N 0.34615 0.9123 0.34408 0.0
O245 O 0.3753 0.9389 0.56348 0.0
H246 H 0.32642 0.94304 0.49029 0.0
H247 H 0.37077 0.88582 0.39777 0.0
O248 O 0.33075 0.91777 0.61415 0.0
C249 C 0.39536 0.94037 0.52435 0.0
O250 O 0.40413 0.91972 0.49291 0.0
N251 N 0.35156 0.87116 0.57651 0.0
C252 C 0.34676 0.81967 0.60875 0.0
C253 C 0.33408 0.8377 0.65198 0.0
C254 C 0.33719 0.86317 0.63626 0.0
C255 C 0.36389 0.85378 0.53329 0.0
C256 C 0.36139 0.8279 0.54752 0.0
H257 H 0.32936 0.87631 0.67625 0.0
H258 H 0.37743 0.85985 0.49181 0.0
H259 H 0.34917 0.91553 0.74333 0.0
H260 H 0.4194 0.88133 0.78224 0.0
H261 H 0.32181 0.94493 0.34265 0.0
H262 H 0.32283 0.83222 0.7004 0.0
H263 H 0.37222 0.81462 0.51432 0.0
C264 C 0.42823 0.9661 0.46065 0.0
C265 C 0.40973 0.96415 0.51688 0.0
C266 C 0.44449 0.98685 0.45758 0.0
C267 C 0.44236 0.00617 0.51244 0.0
C268 C 0.42275 0.00509 0.56669 0.0
C269 C 0.40657 0.98406 0.56818 0.0
C270 C 0.46495 0.98729 0.39823 0.0
C271 C 0.41977 0.02538 0.6258 0.0
C272 C 0.50594 0.03526 0.55287 0.0
C273 C 0.50565 0.05657 0.50601 0.0
C274 C 0.48475 0.0197 0.55959 0.0
C275 C 0.46269 0.02546 0.51798 0.0
C276 C 0.46169 0.04786 0.47442 0.0
C277 C 0.48323 0.06325 0.46909 0.0
C278 C 0.48662 0.99617 0.60738 0.0
C279 C 0.43848 0.05473 0.42962 0.0
H280 H 0.43054 0.95096 0.42004 0.0
H281 H 0.39224 0.9827 0.61163 0.0
H282 H 0.46521 0.00572 0.36868 0.0
H283 H 0.48358 0.98481 0.42586 0.0
H284 H 0.46253 0.97215 0.35539 0.0
H285 H 0.40144 0.02395 0.65572 0.0
H286 H 0.4351 0.02368 0.66824 0.0
H287 H 0.42132 0.04434 0.59979 0.0
H288 H 0.5231 0.03021 0.58255 0.0
H289 H 0.48288 0.07976 0.43297 0.0
H290 H 0.48665 0.97935 0.57006 0.0
H291 H 0.47009 0.99457 0.6454 0.0
H292 H 0.50401 0.99584 0.64242 0.0
H293 H 0.43693 0.04217 0.37963 0.0
H294 H 0.4391 0.07454 0.40939 0.0
H295 H 0.42125 0.05203 0.46415 0.0
C296 C 0.47856 0.41077 0.11864 0.0
C297 C 0.49997 0.41214 0.07255 0.0
C298 C 0.45743 0.42605 0.1037 0.0
C299 C 0.45786 0.44278 0.04109 0.0
C300 C 0.47866 0.44251 0.99108 0.0
C301 C 0.49946 0.42731 0.00767 0.0
C302 C 0.43552 0.42561 0.1579 0.0
C303 C 0.47987 0.45973 0.92306 0.0
C304 C 0.40335 0.48217 0.96677 0.0
C305 C 0.40983 0.50596 0.99533 0.0
C306 C 0.41777 0.46077 0.9853 0.0
C307 C 0.43895 0.46335 0.03369 0.0
C308 C 0.44428 0.48702 0.06697 0.0
C309 C 0.42974 0.508 0.04715 0.0
C310 C 0.41133 0.43582 0.94926 0.0
C311 C 0.46646 0.49065 0.11959 0.0
H312 H 0.47889 0.39897 0.16871 0.0
H313 H 0.51583 0.42802 0.97109 0.0
H314 H 0.43648 0.44239 0.19526 0.0
H315 H 0.41737 0.42644 0.12682 0.0
H316 H 0.43572 0.40849 0.19408 0.0
H317 H 0.49588 0.45507 0.88515 0.0
H318 H 0.46215 0.45863 0.88989 0.0
H319 H 0.48209 0.47951 0.94236 0.0
H320 H 0.38786 0.4805 0.92702 0.0
H321 H 0.43452 0.52626 0.07062 0.0
H322 H 0.41306 0.42027 0.99088 0.0
H323 H 0.42476 0.43195 0.90265 0.0
H324 H 0.39195 0.43576 0.92541 0.0
H325 H 0.46646 0.47605 0.16447 0.0
H326 H 0.46638 0.5095 0.14694 0.0
H327 H 0.48424 0.48863 0.08721 0.0
C328 C 0.9945 0.40849 0.42801 0.0
C329 C 0.97351 0.41222 0.47476 0.0
C330 C 0.01559 0.42452 0.43307 0.0
C331 C 0.01556 0.44457 0.48611 0.0
C332 C 0.9952 0.44707 0.53717 0.0
C333 C 0.97447 0.43091 0.53078 0.0
C334 C 0.03707 0.42103 0.37833 0.0
C335 C 0.99439 0.46802 0.59503 0.0
C336 C 0.07111 0.48714 0.53352 0.0
C337 C 0.06493 0.50878 0.49183 0.0
C338 C 0.05612 0.46529 0.52885 0.0
C339 C 0.03453 0.46521 0.48155 0.0
C340 C 0.02918 0.4865 0.43608 0.0
C341 C 0.04442 0.50795 0.44178 0.0
C342 C 0.06261 0.44286 0.5775 0.0
C343 C 0.00644 0.48726 0.38457 0.0
H344 H 0.9939 0.39398 0.38486 0.0
H345 H 0.95848 0.43359 0.56804 0.0
H346 H 0.03593 0.43562 0.33346 0.0
H347 H 0.05545 0.42338 0.40747 0.0
H348 H 0.03654 0.40221 0.35087 0.0
H349 H 0.97862 0.4657 0.6357 0.0
H350 H 0.0123 0.46885 0.6273 0.0
H351 H 0.99206 0.48636 0.56568 0.0
H352 H 0.08704 0.48758 0.57194 0.0
H353 H 0.03972 0.52444 0.40842 0.0
H354 H 0.06081 0.42512 0.5447 0.0
H355 H 0.04924 0.44173 0.62556 0.0
H356 H 0.08202 0.44415 0.60076 0.0
H357 H 0.00599 0.47038 0.34761 0.0
H358 H 0.00617 0.50433 0.34819 0.0
H359 H 0.98901 0.48707 0.41918 0.0
C360 C 0.96333 0.03608 0.99217 0.0
C361 C 0.96351 0.05521 0.04675 0.0
C362 C 0.98449 0.02087 0.98034 0.0
C363 C 0.00632 0.02459 0.02514 0.0
C364 C 0.0071 0.04474 0.07776 0.0
C365 C 0.98567 0.05999 0.0876 0.0
C366 C 0.98295 -9e-05 0.92264 0.0
C367 C 0.02996 0.04924 0.12679 0.0
C368 C 0.04051 0.96285 0.05142 0.0
C369 C 0.05906 0.96426 0.9953 0.0
C370 C 0.02453 0.98326 0.06595 0.0
C371 C 0.02683 0.0055 0.02222 0.0
C372 C 0.04662 0.00763 0.96884 0.0
C373 C 0.06268 0.98697 0.95635 0.0
C374 C 0.00404 0.98032 0.1245 0.0
C375 C 0.04967 0.03097 0.92097 0.0
H376 H 0.94633 0.03258 0.95969 0.0
H377 H 0.98584 0.07478 0.12992 0.0
H378 H -0.00035 0.00029 0.885 0.0
H379 H 0.98286 0.98144 0.95208 0.0
H380 H 0.96571 0.00121 0.88713 0.0
H381 H 0.0291 0.06771 0.15622 0.0
H382 H 0.03124 0.03417 0.17016 0.0
H383 H 0.04743 0.04845 0.09256 0.0
H384 H 0.03791 0.9454 0.08235 0.0
H385 H 0.07701 0.98807 0.9128 0.0
H386 H 0.98552 0.97868 0.09571 0.0
H387 H 0.00327 0.99711 0.1618 0.0
H388 H 0.00684 0.96332 0.16024 0.0
H389 H 0.03458 0.03146 0.87745 0.0
H390 H 0.06817 0.0314 0.89172 0.0
H391 H 0.04776 0.04821 0.95597 0.0
C392 C 0.53016 0.17822 0.31535 0.0
C393 C 0.52762 0.17511 0.39367 0.0
C394 C 0.53099 0.20232 0.283 0.0
C395 C 0.53003 0.22381 0.33052 0.0
C396 C 0.52612 0.22074 0.40931 0.0
C397 C 0.52465 0.19635 0.43989 0.0
C398 C 0.53452 0.20473 0.19849 0.0
C399 C 0.52556 0.24309 0.46213 0.0
C400 C 0.56939 0.27782 0.25635 0.0
C401 C 0.55106 0.29416 0.2276 0.0
C402 C 0.56264 0.25547 0.2931 0.0
C403 C 0.53687 0.24892 0.29921 0.0
C404 C 0.51818 0.26568 0.27177 0.0
C405 C 0.52553 0.2884 0.23706 0.0
C406 C 0.58318 0.23853 0.32341 0.0
C407 C 0.49058 0.25907 0.27582 0.0
H408 H 0.5322 0.16178 0.27952 0.0
H409 H 0.5229 0.19395 0.50061 0.0
H410 H 0.52165 0.21923 0.17503 0.0
H411 H 0.55408 0.21084 0.18633 0.0
H412 H 0.53108 0.18662 0.16863 0.0
H413 H 0.51893 0.23785 0.51965 0.0
H414 H 0.54481 0.25107 0.46712 0.0
H415 H 0.5132 0.25814 0.43945 0.0
H416 H 0.58915 0.28249 0.24961 0.0
H417 H 0.5114 0.30104 0.21422 0.0
H418 H 0.58361 0.22072 0.29057 0.0
H419 H 0.57935 0.23355 0.38331 0.0
H420 H 0.60208 0.24745 0.32006 0.0
H421 H 0.48672 0.24271 0.23845 0.0
H422 H 0.47836 0.27498 0.25793 0.0
H423 H 0.48537 0.25344 0.3342 0.0
C424 C 0.20476 0.57256 0.6537 0.0
C425 C 0.18564 0.55547 0.63504 0.0
C426 C 0.22466 0.56557 0.70133 0.0
C427 C 0.22588 0.54059 0.72923 0.0
C428 C 0.2066 0.52319 0.71055 0.0
C429 C 0.18641 0.53099 0.66452 0.0
C430 C 0.24444 0.58494 0.72147 0.0
C431 C 0.2077 0.49624 0.73745 0.0
C432 C 0.29293 0.5247 0.78235 0.0
C433 C 0.29266 0.52883 0.86059 0.0
C434 C 0.27072 0.52616 0.73965 0.0
C435 C 0.24791 0.53289 0.77585 0.0
C436 C 0.24734 0.53579 0.85563 0.0
C437 C 0.26977 0.53336 0.89732 0.0
C438 C 0.27211 0.52228 0.65508 0.0
C439 C 0.2236 0.54367 0.89615 0.0
H440 H 0.20396 0.59164 0.63189 0.0
H441 H 0.1716 0.51778 0.64989 0.0
H442 H 0.24666 0.58612 0.78386 0.0
H443 H 0.2629 0.57925 0.69769 0.0
H444 H 0.23972 0.60398 0.69953 0.0
H445 H 0.19095 0.4852 0.71942 0.0
H446 H 0.22484 0.48703 0.71462 0.0
H447 H 0.20909 0.49558 0.80008 0.0
H448 H 0.31071 0.52117 0.75414 0.0
H449 H 0.26971 0.53692 0.95778 0.0
H450 H 0.27219 0.54085 0.62627 0.0
H451 H 0.2555 0.51161 0.63428 0.0
H452 H 0.28948 0.51202 0.63851 0.0
H453 H 0.21938 0.56364 0.88242 0.0
H454 H 0.22542 0.54189 0.95859 0.0
H455 H 0.20729 0.53226 0.87704 0.0
C456 C 0.9477 0.19439 0.11711 0.0
C457 C 0.94471 0.17306 0.16294 0.0
C458 C 0.9468 0.2187 0.14844 0.0
C459 C 0.94346 0.22157 0.22753 0.0
C460 C 0.94258 0.19996 0.27454 0.0
C461 C 0.94281 0.17596 0.24149 0.0
C462 C 0.94726 0.24119 0.09616 0.0
C463 C 0.93965 0.20215 0.35931 0.0
C464 C 0.94879 0.28589 0.32236 0.0
C465 C 0.92334 0.29168 0.33329 0.0
C466 C 0.95584 0.26324 0.2867 0.0
C467 C 0.93693 0.24661 0.25981 0.0
C468 C 0.91123 0.25322 0.26743 0.0
C469 C 0.90478 0.27548 0.30509 0.0
C470 C 0.98338 0.25657 0.28103 0.0
C471 C 0.89044 0.23642 0.23777 0.0
H472 H 0.94894 0.19214 0.05621 0.0
H473 H 0.94076 0.15943 0.27697 0.0
H474 H 0.92802 0.24925 0.09208 0.0
H475 H 0.95979 0.25613 0.11872 0.0
H476 H 0.95362 0.23607 0.03827 0.0
H477 H 0.94321 0.18394 0.38847 0.0
H478 H 0.95275 0.21654 0.38233 0.0
H479 H 0.9202 0.20829 0.37285 0.0
H480 H 0.96308 0.29844 0.34477 0.0
H481 H 0.88508 0.28019 0.31298 0.0
H482 H 0.98823 0.25104 0.22228 0.0
H483 H 0.9874 0.24012 0.3179 0.0
H484 H 0.99577 0.27241 0.29855 0.0
H485 H 0.8939 0.2316 0.17755 0.0
H486 H 0.8716 0.24538 0.24233 0.0
H487 H 0.89012 0.21852 0.27018 0.0
C488 C 0.26731 0.9012 0.65865 0.0
C489 C 0.28711 0.91826 0.64795 0.0
C490 C 0.24723 0.90685 0.70693 0.0
C491 C 0.24654 0.93051 0.74383 0.0
C492 C 0.26642 0.94795 0.73295 0.0
C493 C 0.28677 0.94143 0.68594 0.0
C494 C 0.22678 0.88741 0.71849 0.0
C495 C 0.26592 0.9736 0.76972 0.0
C496 C 0.17979 0.94591 0.80108 0.0
C497 C 0.17975 0.9385 0.87716 0.0
C498 C 0.20205 0.94557 0.75857 0.0
C499 C 0.22458 0.93676 0.79242 0.0
C500 C 0.22489 0.93049 0.87042 0.0
C501 C 0.20245 0.93179 0.91224 0.0
C502 C 0.20102 0.95301 0.67611 0.0
C503 C 0.24831 0.92029 0.90809 0.0
H504 H 0.26775 0.88308 0.63031 0.0
H505 H 0.30212 0.95461 0.67758 0.0
H506 H 0.22427 0.88359 0.7798 0.0
H507 H 0.20859 0.89466 0.69654 0.0
H508 H 0.23101 0.86935 0.68942 0.0
H509 H 0.28282 0.98499 0.75551 0.0
H510 H 0.24887 0.98399 0.75111 0.0
H511 H 0.26479 0.97165 0.83213 0.0
H512 H 0.16221 0.95122 0.77414 0.0
H513 H 0.20233 0.92579 0.97091 0.0
H514 H 0.20149 0.93584 0.64031 0.0
H515 H 0.21757 0.96472 0.66089 0.0
H516 H 0.18357 0.96362 0.66234 0.0
H517 H 0.25212 0.90103 0.8865 0.0
H518 H 0.24634 0.9193 0.97064 0.0
H519 H 0.26494 0.93205 0.89429 0.0
C520 C 0.35034 0.78712 0.71018 0.0
C521 C 0.34683 0.79291 0.63336 0.0
C522 C 0.3504 0.76214 0.73569 0.0
C523 C 0.34688 0.74233 0.68315 0.0
C524 C 0.34345 0.74796 0.60536 0.0
C525 C 0.3436 0.77324 0.58126 0.0
C526 C 0.35442 0.75697 0.81897 0.0
C527 C 0.33955 0.72731 0.54779 0.0
C528 C 0.37088 0.67851 0.74778 0.0
C529 C 0.34891 0.66726 0.7762 0.0
C530 C 0.37034 0.70259 0.71511 0.0
C531 C 0.34724 0.71577 0.71026 0.0
C532 C 0.32485 0.70426 0.7367 0.0
C533 C 0.32595 0.68017 0.76948 0.0
C534 C 0.39464 0.71421 0.68765 0.0
C535 C 0.29984 0.71771 0.73246 0.0
H536 H 0.3534 0.80221 0.75052 0.0
H537 H 0.34084 0.77765 0.5219 0.0
H538 H 0.3382 0.74627 0.84202 0.0
H539 H 0.37146 0.74517 0.82696 0.0
H540 H 0.3567 0.77454 0.85248 0.0
H541 H 0.33699 0.73482 0.48958 0.0
H542 H 0.35594 0.71437 0.54801 0.0
H543 H 0.32273 0.71599 0.56298 0.0
H544 H 0.3886 0.66845 0.75112 0.0
H545 H 0.30891 0.6717 0.79163 0.0
H546 H 0.39908 0.73116 0.7219 0.0
H547 H 0.39263 0.72041 0.62798 0.0
H548 H 0.41076 0.70094 0.69157 0.0
H549 H 0.30021 0.73449 0.7699 0.0
H550 H 0.28392 0.70544 0.74988 0.0
H551 H 0.29633 0.72449 0.67397 0.0
C552 C 0.79479 0.35974 0.2585 0.0
C553 C 0.80108 0.35919 0.33584 0.0
C554 C 0.76963 0.35996 0.23438 0.0
C555 C 0.75013 0.3603 0.28879 0.0
C556 C 0.75623 0.36029 0.3669 0.0
C557 C 0.78161 0.35953 0.3895 0.0
C558 C 0.76392 0.35972 0.15056 0.0
C559 C 0.73592 0.36103 0.42658 0.0
C560 C 0.68592 0.38348 0.22381 0.0
C561 C 0.67269 0.3608 0.21562 0.0
C562 C 0.71107 0.38362 0.24842 0.0
C563 C 0.72337 0.3605 0.26372 0.0
C564 C 0.71018 0.33752 0.25412 0.0
C565 C 0.6849 0.33797 0.23094 0.0
C566 C 0.72436 0.40852 0.25922 0.0
C567 C 0.72279 0.31246 0.26825 0.0
H568 H 0.80958 0.36023 0.21634 0.0
H569 H 0.78618 0.35892 0.44928 0.0
H570 H 0.75189 0.34326 0.13649 0.0
H571 H 0.75325 0.37688 0.13471 0.0
H572 H 0.78126 0.35883 0.11554 0.0
H573 H 0.74379 0.36187 0.48485 0.0
H574 H 0.72364 0.37768 0.41762 0.0
H575 H 0.72383 0.34406 0.42185 0.0
H576 H 0.67633 0.40115 0.213 0.0
H577 H 0.67463 0.32044 0.22441 0.0
H578 H 0.74126 0.40944 0.22251 0.0
H579 H 0.73093 0.41028 0.31866 0.0
H580 H 0.71203 0.42483 0.24585 0.0
H581 H 0.73971 0.31065 0.23184 0.0
H582 H 0.71005 0.2963 0.25673 0.0
H583 H 0.72925 0.31133 0.3279 0.0
C584 C 0.14377 0.79297 0.75844 0.0
C585 C 0.12126 0.80677 0.75542 0.0
C586 C 0.14546 0.76887 0.72594 0.0
C587 C 0.1241 0.75827 0.68986 0.0
C588 C 0.10161 0.77244 0.68437 0.0
C589 C 0.10049 0.79652 0.71699 0.0
C590 C 0.16982 0.75439 0.73273 0.0
C591 C 0.07842 0.76182 0.64639 0.0
C592 C 0.13128 0.70003 0.56539 0.0
C593 C 0.125 0.68078 0.6163 0.0
C594 C 0.13133 0.72541 0.58853 0.0
C595 C 0.12456 0.73158 0.66388 0.0
C596 C 0.11789 0.71218 0.71502 0.0
C597 C 0.11829 0.68706 0.6907 0.0
C598 C 0.13879 0.74557 0.53267 0.0
C599 C 0.11018 0.71794 0.79548 0.0
H600 H 0.15987 0.80066 0.78837 0.0
H601 H 0.08319 0.80727 0.7129 0.0
H602 H 0.16706 0.73793 0.77054 0.0
H603 H 0.17561 0.74703 0.6766 0.0
H604 H 0.18533 0.76613 0.75601 0.0
H605 H 0.06298 0.77588 0.6423 0.0
H606 H 0.08304 0.75511 0.58859 0.0
H607 H 0.07148 0.74534 0.67889 0.0
H608 H 0.13653 0.69519 0.50793 0.0
H609 H 0.11299 0.67225 0.72983 0.0
H610 H 0.15522 0.75623 0.55469 0.0
H611 H 0.12316 0.75922 0.52542 0.0
H612 H 0.1437 0.73766 0.47637 0.0
H613 H 0.12563 0.72794 0.82528 0.0
H614 H 0.10542 0.70066 0.82797 0.0
H615 H 0.09356 0.7306 0.79554 0.0
C616 C 0.79377 0.12994 0.28839 0.0
C617 C 0.79878 0.12757 0.21074 0.0
C618 C 0.76894 0.13077 0.31552 0.0
C619 C 0.74861 0.12932 0.26374 0.0
C620 C 0.75354 0.12778 0.18509 0.0
C621 C 0.77856 0.12683 0.15957 0.0
C622 C 0.76449 0.13222 0.39982 0.0
C623 C 0.73238 0.12644 0.12802 0.0
C624 C 0.68659 0.10248 0.33396 0.0
C625 C 0.67219 0.12429 0.34594 0.0
C626 C 0.71146 0.10391 0.30764 0.0
C627 C 0.72224 0.12774 0.29214 0.0
C628 C 0.70786 0.14986 0.30375 0.0
C629 C 0.68303 0.14788 0.33067 0.0
C630 C 0.72615 0.07986 0.29605 0.0
C631 C 0.7187 0.1756 0.28767 0.0
H632 H 0.80929 0.1302 0.32834 0.0
H633 H 0.78233 0.1253 0.09944 0.0
H634 H 0.75157 0.14801 0.4132 0.0
H635 H 0.7553 0.11463 0.4195 0.0
H636 H 0.78226 0.13486 0.43217 0.0
H637 H 0.73935 0.12702 0.06877 0.0
H638 H 0.72161 0.10874 0.13612 0.0
H639 H 0.7191 0.1423 0.13664 0.0
H640 H 0.67827 0.08414 0.34399 0.0
H641 H 0.67217 0.16484 0.34039 0.0
H642 H 0.74367 0.0803 0.33034 0.0
H643 H 0.7318 0.07814 0.23583 0.0
H644 H 0.71516 0.06286 0.31196 0.0
H645 H 0.73567 0.17878 0.32316 0.0
H646 H 0.70499 0.19094 0.29886 0.0
H647 H 0.72474 0.17675 0.22766 0.0
C648 C 0.58155 0.13066 0.79344 0.0
C649 C 0.56492 0.11944 0.74163 0.0
C650 C 0.57996 0.12551 0.87129 0.0
C651 C 0.56117 0.10884 0.89823 0.0
C652 C 0.54408 0.09774 0.84638 0.0
C653 C 0.54622 0.1031 0.76874 0.0
C654 C 0.59871 0.13754 0.92458 0.0
C655 C 0.52364 0.08006 0.87287 0.0
C656 C 0.57294 0.07582 0.08596 0.0
C657 C 0.55879 0.09048 0.13649 0.0
C658 C 0.57374 0.08151 0.00839 0.0
C659 C 0.55999 0.10236 0.98029 0.0
C660 C 0.5455 0.11715 0.03078 0.0
C661 C 0.54512 0.11107 0.10824 0.0
C662 C 0.58962 0.06541 0.95662 0.0
C663 C 0.53047 0.13946 1.00302 0.0
H664 H 0.59622 0.14306 0.77287 0.0
H665 H 0.53308 0.09466 0.72921 0.0
H666 H 0.58869 0.1482 0.96937 0.0
H667 H 0.60999 0.12273 0.95314 0.0
H668 H 0.61176 0.15057 0.89491 0.0
H669 H 0.51135 0.07363 0.8257 0.0
H670 H 0.5322 0.06328 0.90012 0.0
H671 H 0.51177 0.08948 0.91606 0.0
H672 H 0.58391 0.06016 0.10728 0.0
H673 H 0.53394 0.12234 0.14669 0.0
H674 H 0.60433 0.07714 0.92935 0.0
H675 H 0.57777 0.05739 0.91075 0.0
H676 H 0.59895 0.04968 0.98719 0.0
H677 H 0.54321 0.15345 0.97638 0.0
H678 H 0.51996 0.14888 0.04939 0.0
H679 H 0.51686 0.13332 0.95901 0.0
C680 C 0.35412 0.54534 0.57584 0.0
C681 C 0.37644 0.55595 0.60424 0.0
C682 C 0.34794 0.54705 0.4985 0.0
C683 C 0.36434 0.5599 0.44839 0.0
C684 C 0.3868 0.57076 0.47685 0.0
C685 C 0.3926 0.56858 0.55418 0.0
C686 C 0.32391 0.53505 0.47037 0.0
C687 C 0.40465 0.58489 0.42565 0.0
C688 C 0.36259 0.54671 0.23653 0.0
C689 C 0.34867 0.56724 0.20902 0.0
C690 C 0.36734 0.54379 0.31434 0.0
C691 C 0.35817 0.56198 0.3661 0.0
C692 C 0.34392 0.58263 0.33878 0.0
C693 C 0.33923 0.58493 0.26069 0.0
C694 C 0.38236 0.52134 0.3411 0.0
C695 C 0.33406 0.6026 0.3919 0.0
H696 H 0.34163 0.53542 0.61402 0.0
H697 H 0.40962 0.57726 0.57574 0.0
H698 H 0.31141 0.54964 0.44569 0.0
H699 H 0.32819 0.52133 0.42478 0.0
H700 H 0.31353 0.52516 0.51613 0.0
H701 H 0.42123 0.59244 0.45672 0.0
H702 H 0.41145 0.57228 0.37996 0.0
H703 H 0.39467 0.60081 0.39814 0.0
H704 H 0.36958 0.53274 0.19713 0.0
H705 H 0.32868 0.60095 0.23979 0.0
H706 H 0.37148 0.51066 0.38401 0.0
H707 H 0.39999 0.52779 0.36875 0.0
H708 H 0.38734 0.50841 0.294 0.0
H709 H 0.32221 0.59386 0.43639 0.0
H710 H 0.32274 0.61712 0.36199 0.0
H711 H 0.35004 0.61204 0.42088 0.0
C712 C 0.93326 0.37529 0.07486 0.0
C713 C 0.91194 0.38515 0.11062 0.0
C714 C 0.93328 0.37056 0.99653 0.0
C715 C 0.91116 0.37511 0.95356 0.0
C716 C 0.88945 0.38476 0.98987 0.0
C717 C 0.89022 0.38996 0.06777 0.0
C718 C 0.95697 0.36078 0.95972 0.0
C719 C 0.86528 0.38916 0.94672 0.0
C720 C 0.9163 0.38219 0.7395 0.0
C721 C 0.91121 0.35762 0.71504 0.0
C722 C 0.91637 0.3882 0.81704 0.0
C723 C 0.91056 0.36929 0.87098 0.0
C724 C 0.90455 0.34464 0.84602 0.0
C725 C 0.90535 0.33904 0.76838 0.0
C726 C 0.92348 0.41452 0.84137 0.0
C727 C 0.89757 0.32412 0.90133 0.0
H728 H 0.95003 0.37169 0.10818 0.0
H729 H 0.87361 0.39722 0.09582 0.0
H730 H 0.95348 0.34186 0.93523 0.0
H731 H 0.96257 0.37337 0.91249 0.0
H732 H 0.9729 0.3594 1.00035 0.0
H733 H 0.84999 0.39646 0.98355 0.0
H734 H 0.8685 0.4028 0.90019 0.0
H735 H 0.85886 0.37128 0.92044 0.0
H736 H 0.92126 0.39639 0.69805 0.0
H737 H 0.90147 0.32006 0.74897 0.0
H738 H 0.94047 0.41382 0.87797 0.0
H739 H 0.90811 0.42295 0.87541 0.0
H740 H 0.92741 0.42704 0.79239 0.0
H741 H 0.91381 0.31994 0.93884 0.0
H742 H 0.89185 0.30644 0.87237 0.0
H743 H 0.88186 0.33048 0.938 0.0
C744 C 0.11252 0.88325 0.25838 0.0
C745 C 0.11962 0.90256 0.20877 0.0
C746 C 0.10868 0.88803 0.33568 0.0
C747 C 0.11271 0.91262 0.36452 0.0
C748 C 0.12052 0.93208 0.31485 0.0
C749 C 0.1235 0.92688 0.23725 0.0
C750 C 0.09975 0.86689 0.38617 0.0
C751 C 0.12571 0.95834 0.34365 0.0
C752 C 0.07862 0.92882 0.54729 0.0
C753 C 0.09688 0.92333 0.60269 0.0
C754 C 0.0837 0.92596 0.46974 0.0
C755 C 0.10786 0.91798 0.44618 0.0
C756 C 0.12683 0.9137 0.50108 0.0
C757 C 0.12109 0.91621 0.57843 0.0
C758 C 0.06285 0.93059 0.41311 0.0
C759 C 0.15303 0.9057 0.47831 0.0
H760 H 0.10926 0.86452 0.23605 0.0
H761 H 0.12921 0.94172 0.1988 0.0
H762 H 0.11337 0.86385 0.43295 0.0
H763 H 0.08145 0.87201 0.41223 0.0
H764 H 0.09738 0.84889 0.35484 0.0
H765 H 0.13296 0.97097 0.29851 0.0
H766 H 0.10821 0.96665 0.36705 0.0
H767 H 0.13969 0.95765 0.39037 0.0
H768 H 0.06007 0.935 0.56409 0.0
H769 H 0.13559 0.91191 0.61945 0.0
H770 H 0.05847 0.91284 0.38262 0.0
H771 H 0.06896 0.94454 0.37018 0.0
H772 H 0.04535 0.93757 0.4403 0.0
H773 H 0.15246 0.88625 0.45536 0.0
H774 H 0.16642 0.9061 0.52674 0.0
H775 H 0.16035 0.91813 0.43288 0.0
C776 C 0.58111 0.39485 0.49187 0.0
C777 C 0.55994 0.38861 0.44815 0.0
C778 C 0.58186 0.3898 0.56989 0.0
C779 C 0.56068 0.37878 0.60549 0.0
C780 C 0.53905 0.37286 0.56173 0.0
C781 C 0.5391 0.37752 0.48332 0.0
C782 C 0.60554 0.39574 0.61387 0.0
C783 C 0.51588 0.36159 0.59773 0.0
C784 C 0.5688 0.34256 0.78973 0.0
C785 C 0.56183 0.36055 0.84369 0.0
C786 C 0.5691 0.34844 0.71222 0.0
C787 C 0.56146 0.3727 0.68796 0.0
C788 C 0.55442 0.39099 0.7425 0.0
C789 C 0.55502 0.38478 0.81992 0.0
C790 C 0.57738 0.32859 0.6563 0.0
C791 C 0.54558 0.41685 0.71899 0.0
H792 H 0.59739 0.40307 0.46443 0.0
H793 H 0.52271 0.37283 0.44945 0.0
H794 H 0.60124 0.4089 0.66086 0.0
H795 H 0.61314 0.37825 0.63959 0.0
H796 H 0.62037 0.4043 0.57776 0.0
H797 H 0.50014 0.35941 0.55671 0.0
H798 H 0.52041 0.34282 0.6217 0.0
H799 H 0.50945 0.37365 0.64523 0.0
H800 H 0.574 0.32384 0.80858 0.0
H801 H 0.54919 0.39849 0.86182 0.0
H802 H 0.59278 0.33604 0.62026 0.0
H803 H 0.5615 0.32363 0.61824 0.0
H804 H 0.58406 0.31116 0.6847 0.0
H805 H 0.56047 0.42652 0.686 0.0
H806 H 0.54055 0.42882 0.76831 0.0
H807 H 0.52885 0.41513 0.68159 0.0
C808 C 0.11819 0.57321 0.87855 0.0
C809 C 0.09363 0.57037 0.8504 0.0
C810 C 0.12308 0.57278 0.95665 0.0
C811 C 0.10294 0.56928 0.00802 0.0
C812 C 0.07807 0.56652 0.98003 0.0
C813 C 0.07371 0.56722 0.90155 0.0
C814 C 0.14985 0.57594 0.98413 0.0
C815 C 0.05615 0.56239 0.0329 0.0
C816 C 0.12018 0.54237 0.2003 0.0
C817 C 0.12005 0.56389 0.24639 0.0
C818 C 0.11417 0.54382 0.1231 0.0
C819 C 0.1081 0.56744 0.09079 0.0
C820 C 0.10758 0.58923 0.13719 0.0
C821 C 0.11339 0.58715 0.21469 0.0
C822 C 0.11456 0.52008 0.07597 0.0
C823 C 0.10141 0.61478 0.10462 0.0
H824 H 0.1336 0.57615 0.83945 0.0
H825 H 0.05475 0.56485 0.88003 0.0
H826 H 0.15103 0.59202 0.02414 0.0
H827 H 0.15589 0.55884 0.01533 0.0
H828 H 0.16327 0.57926 0.93695 0.0
H829 H 0.0379 0.5612 1.00225 0.0
H830 H 0.05895 0.54469 0.06523 0.0
H831 H 0.05508 0.57796 0.07466 0.0
H832 H 0.1248 0.52426 0.22489 0.0
H833 H 0.11337 0.60378 0.25024 0.0
H834 H 0.12902 0.52172 0.03098 0.0
H835 H 0.09611 0.5174 0.0475 0.0
H836 H 0.11874 0.50306 0.11036 0.0
H837 H 0.11548 0.61984 0.06079 0.0
H838 H 0.10125 0.62976 0.14854 0.0
H839 H 0.08272 0.61429 0.07651 0.0
C840 C 0.89618 0.07512 0.47008 0.0
C841 C 0.91082 0.08939 0.41975 0.0
C842 C 0.89552 0.08077 0.5477 0.0
C843 C 0.90994 0.10114 0.57605 0.0
C844 C 0.92494 0.1155 0.52577 0.0
C845 C 0.92515 0.1095 0.44824 0.0
C846 C 0.87907 0.06514 0.59923 0.0
C847 C 0.9407 0.13728 0.5538 0.0
C848 C 0.8892 0.13015 0.76277 0.0
C849 C 0.90541 0.11841 0.8147 0.0
C850 C 0.89065 0.12491 0.68494 0.0
C851 C 0.90888 0.10762 0.65815 0.0
C852 C 0.92554 0.09597 0.71012 0.0
C853 C 0.92354 0.10143 0.78774 0.0
C854 C 0.87236 0.13754 0.63152 0.0
C855 C 0.94538 0.0776 0.68379 0.0
H856 H 0.88472 0.05984 0.44854 0.0
H857 H 0.9367 0.12044 0.40992 0.0
H858 H 0.8906 0.05673 0.64515 0.0
H859 H 0.86473 0.07732 0.62644 0.0
H860 H 0.86925 0.04974 0.56847 0.0
H861 H 0.95162 0.14634 0.50761 0.0
H862 H 0.92842 0.15169 0.58026 0.0
H863 H 0.95401 0.13067 0.59802 0.0
H864 H 0.87497 0.14305 0.78322 0.0
H865 H 0.93636 0.09257 0.82737 0.0
H866 H 0.86066 0.1231 0.60273 0.0
H867 H 0.88278 0.14791 0.58691 0.0
H868 H 0.85969 0.15095 0.66112 0.0
H869 H 0.93628 0.06115 0.65628 0.0
H870 H 0.95736 0.07071 0.7311 0.0
H871 H 0.95764 0.08664 0.64085 0.0
C872 C 0.35347 0.93061 0.21779 0.0
C873 C 0.35235 0.90942 0.26515 0.0
C874 C 0.35897 0.92826 0.14057 0.0
C875 C 0.3634 0.90409 0.1096 0.0
C876 C 0.36257 0.8826 0.15713 0.0
C877 C 0.35718 0.88555 0.23458 0.0
C878 C 0.35996 0.95168 0.09205 0.0
C879 C 0.36704 0.85652 0.12597 0.0
C880 C 0.35347 0.89835 0.89736 0.0
C881 C 0.3782 0.90006 0.86999 0.0
C882 C 0.34843 0.89901 0.97528 0.0
C883 C 0.36862 0.90149 0.02722 0.0
C884 C 0.39366 0.90288 1.00007 0.0
C885 C 0.39815 0.90209 0.92178 0.0
C886 C 0.32146 0.8974 1.00193 0.0
C887 C 0.41566 0.90579 0.05364 0.0
H888 H 0.3503 0.94916 0.24136 0.0
H889 H 0.35623 0.86916 0.27102 0.0
H890 H 0.37865 0.95323 0.06444 0.0
H891 H 0.34564 0.95047 0.04639 0.0
H892 H 0.35651 0.96912 0.12522 0.0
H893 H 0.36607 0.8418 0.17057 0.0
H894 H 0.3528 0.85219 0.08181 0.0
H895 H 0.3858 0.85559 0.09858 0.0
H896 H 0.338 0.89625 0.85781 0.0
H897 H 0.41726 0.9036 0.90095 0.0
H898 H 0.31625 0.915 0.03192 0.0
H899 H 0.31933 0.88169 0.04282 0.0
H900 H 0.30802 0.89449 0.95444 0.0
H901 H 0.41403 0.92387 0.08476 0.0
H902 H 0.43404 0.90548 0.0237 0.0
H903 H 0.4155 0.89047 0.09636 0.0
loop_
_geom_bond_atom_site_label_1
_geom_bond_atom_site_label_2
_geom_bond_distance
_geom_bond_site_symmetry_2
_ccdc_geom_bond_type
C0 C1 1.351 . S
C0 N3 1.368 . S
C0 H5 0.931 . S
C1 C0 1.351 . S
C1 N2 1.373 . S
C1 H29 0.930 . S
N2 C1 1.373 . S
N2 C4 1.340 . S
N3 C0 1.368 . S
N3 C4 1.321 . S
N3 Co6 2.135 . S
C4 N2 1.340 . S
C4 N3 1.321 . S
C4 H28 0.930 . S
H5 C0 0.931 . S
Co6 N3 2.135 . S
Co6 N9 2.121 . S
Co6 O14 2.055 . S
Co6 O17 2.039 . S
Co6 N20 2.140 . S
C7 O8 1.227 . S
C7 O17 1.265 . S
O8 C7 1.227 . S
N9 Co6 2.121 . S
N9 C11 1.375 . S
N9 C12 1.313 . S
C10 C11 1.338 . S
C10 N13 1.377 . S
C10 H30 0.930 . S
C11 N9 1.375 . S
C11 C10 1.338 . S
C11 H15 0.931 . S
C12 N9 1.313 . S
C12 N13 1.344 . S
C12 H16 0.930 . S
N13 C10 1.377 . S
N13 C12 1.344 . S
O14 Co6 2.055 . S
O14 C18 1.253 . S
H15 C11 0.931 . S
H16 C12 0.930 . S
O17 Co6 2.039 . S
O17 C7 1.265 . S
C18 O14 1.253 . S
C18 O19 1.227 . S
O19 C18 1.227 . S
N20 Co6 2.140 . S
N20 C23 1.346 . S
N20 C24 1.345 . S
C21 C22 1.387 . S
C21 C25 1.391 . S
C22 C21 1.387 . S
C22 C23 1.369 . S
C22 H31 0.929 . S
C23 N20 1.346 . S
C23 C22 1.369 . S
C23 H26 0.928 . S
C24 N20 1.345 . S
C24 C25 1.371 . S
C24 H27 0.931 . S
C25 C21 1.391 . S
C25 C24 1.371 . S
C25 H32 0.930 . S
H26 C23 0.928 . S
H27 C24 0.931 . S
H28 C4 0.930 . S
H29 C1 0.930 . S
H30 C10 0.930 . S
H31 C22 0.929 . S
H32 C25 0.930 . S
C33 C34 1.351 . S
C33 N36 1.368 . S
C33 H38 0.931 . S
C34 C33 1.351 . S
C34 N35 1.373 . S
C34 H62 0.930 . S
N35 C34 1.373 . S
N35 C37 1.340 . S
N36 C33 1.368 . S
N36 C37 1.321 . S
N36 Co39 2.135 . S
C37 N35 1.340 . S
C37 N36 1.321 . S
C37 H61 0.930 . S
H38 C33 0.931 . S
Co39 N36 2.135 . S
Co39 N42 2.121 . S
Co39 O47 2.055 . S
Co39 O50 2.039 . S
Co39 N53 2.140 . S
C40 O41 1.227 . S
C40 O50 1.265 . S
O41 C40 1.227 . S
N42 Co39 2.121 . S
N42 C44 1.375 . S
N42 C45 1.313 . S
C43 C44 1.338 1_554 S
C43 N46 1.377 . S
C43 H63 0.930 . S
C44 N42 1.375 . S
C44 C43 1.338 1_556 S
C44 H48 0.931 . S
C45 N42 1.313 . S
C45 N46 1.344 1_556 S
C45 H49 0.930 . S
N46 C43 1.377 . S
N46 C45 1.344 1_554 S
O47 Co39 2.055 . S
O47 C51 1.253 . S
H48 C44 0.931 . S
H49 C45 0.930 . S
O50 Co39 2.039 . S
O50 C40 1.265 . S
C51 O47 1.253 . S
C51 O52 1.227 . S
O52 C51 1.227 . S
N53 Co39 2.140 . S
N53 C56 1.346 . S
N53 C57 1.345 . S
C54 C55 1.387 . S
C54 C58 1.391 . S
C55 C54 1.387 . S
C55 C56 1.369 . S
C55 H64 0.929 . S
C56 N53 1.346 . S
C56 C55 1.369 . S
C56 H59 0.928 . S
C57 N53 1.345 . S
C57 C58 1.371 . S
C57 H60 0.931 . S
C58 C54 1.391 . S
C58 C57 1.371 . S
C58 H65 0.930 . S
H59 C56 0.928 . S
H60 C57 0.931 . S
H61 C37 0.930 . S
H62 C34 0.930 . S
H63 C43 0.930 . S
H64 C55 0.929 . S
H65 C58 0.930 . S
C66 C67 1.351 . S
C66 N69 1.368 . S
C66 H71 0.931 . S
C67 C66 1.351 . S
C67 N68 1.373 . S
C67 H95 0.930 . S
N68 C67 1.373 . S
N68 C70 1.340 . S
N69 C66 1.368 . S
N69 C70 1.321 . S
N69 Co72 2.135 . S
C70 N68 1.340 . S
C70 N69 1.321 . S
C70 H94 0.930 . S
H71 C66 0.931 . S
Co72 N69 2.135 . S
Co72 N75 2.121 . S
Co72 O80 2.055 . S
Co72 O83 2.039 . S
Co72 N86 2.140 . S
C73 O74 1.227 . S
C73 O83 1.265 . S
O74 C73 1.227 . S
N75 Co72 2.121 . S
N75 C77 1.375 . S
N75 C78 1.313 . S
C76 C77 1.338 . S
C76 N79 1.377 . S
C76 H96 0.930 . S
C77 N75 1.375 . S
C77 C76 1.338 . S
C77 H81 0.931 . S
C78 N75 1.313 . S
C78 N79 1.344 . S
C78 H82 0.930 . S
N79 C76 1.377 . S
N79 C78 1.344 . S
O80 Co72 2.055 . S
O80 C84 1.253 . S
H81 C77 0.931 . S
H82 C78 0.930 . S
O83 Co72 2.039 . S
O83 C73 1.265 . S
C84 O80 1.253 . S
C84 O85 1.227 . S
O85 C84 1.227 . S
N86 Co72 2.140 . S
N86 C89 1.346 . S
N86 C90 1.345 . S
C87 C88 1.387 . S
C87 C91 1.391 . S
C88 C87 1.387 . S
C88 C89 1.369 . S
C88 H97 0.929 . S
C89 N86 1.346 . S
C89 C88 1.369 . S
C89 H92 0.928 . S
C90 N86 1.345 . S
C90 C91 1.371 . S
C90 H93 0.931 . S
C91 C87 1.391 . S
C91 C90 1.371 . S
C91 H98 0.930 . S
H92 C89 0.928 . S
H93 C90 0.931 . S
H94 C70 0.930 . S
H95 C67 0.930 . S
H96 C76 0.930 . S
H97 C88 0.929 . S
H98 C91 0.930 . S
C99 C100 1.351 . S
C99 N102 1.368 . S
C99 H104 0.931 . S
C100 C99 1.351 . S
C100 N101 1.373 . S
C100 H128 0.930 . S
N101 C100 1.373 . S
N101 C103 1.340 . S
N102 C99 1.368 . S
N102 C103 1.321 . S
N102 Co105 2.135 . S
C103 N101 1.340 . S
C103 N102 1.321 . S
C103 H127 0.930 . S
H104 C99 0.931 . S
Co105 N102 2.135 . S
Co105 N108 2.121 . S
Co105 O113 2.055 . S
Co105 O116 2.039 . S
Co105 N119 2.140 . S
C106 O107 1.227 . S
C106 O116 1.265 . S
O107 C106 1.227 . S
N108 Co105 2.121 . S
N108 C110 1.375 . S
N108 C111 1.313 . S
C109 C110 1.338 1_554 S
C109 N112 1.377 . S
C109 H129 0.930 . S
C110 N108 1.375 . S
C110 C109 1.338 1_556 S
C110 H114 0.931 . S
C111 N108 1.313 . S
C111 N112 1.344 1_556 S
C111 H115 0.930 . S
N112 C109 1.377 . S
N112 C111 1.344 1_554 S
O113 Co105 2.055 . S
O113 C117 1.253 . S
H114 C110 0.931 . S
H115 C111 0.930 . S
O116 Co105 2.039 . S
O116 C106 1.265 . S
C117 O113 1.253 . S
C117 O118 1.227 . S
O118 C117 1.227 . S
N119 Co105 2.140 . S
N119 C122 1.346 . S
N119 C123 1.345 . S
C120 C121 1.387 . S
C120 C124 1.391 . S
C121 C120 1.387 . S
C121 C122 1.369 . S
C121 H130 0.929 . S
C122 N119 1.346 . S
C122 C121 1.369 . S
C122 H125 0.928 . S
C123 N119 1.345 . S
C123 C124 1.371 . S
C123 H126 0.931 . S
C124 C120 1.391 . S
C124 C123 1.371 . S
C124 H131 0.930 . S
H125 C122 0.928 . S
H126 C123 0.931 . S
H127 C103 0.930 . S
H128 C100 0.930 . S
H129 C109 0.930 . S
H130 C121 0.929 . S
H131 C124 0.930 . S
C132 C133 1.351 . S
C132 N135 1.368 . S
C132 H137 0.931 . S
C133 C132 1.351 . S
C133 N134 1.373 . S
C133 H161 0.930 . S
N134 C133 1.373 . S
N134 C136 1.340 . S
N135 C132 1.368 . S
N135 C136 1.321 . S
N135 Co138 2.135 . S
C136 N134 1.340 . S
C136 N135 1.321 . S
C136 H160 0.930 . S
H137 C132 0.931 . S
Co138 N135 2.135 . S
Co138 N141 2.121 . S
Co138 O146 2.055 . S
Co138 O149 2.039 . S
Co138 N152 2.140 . S
C139 O140 1.227 . S
C139 O149 1.265 . S
O140 C139 1.227 . S
N141 Co138 2.121 . S
N141 C143 1.375 . S
N141 C144 1.313 . S
C142 C143 1.338 1_556 S
C142 N145 1.377 . S
C142 H162 0.930 . S
C143 N141 1.375 . S
C143 C142 1.338 1_554 S
C143 H147 0.931 . S
C144 N141 1.313 . S
C144 N145 1.344 1_554 S
C144 H148 0.930 . S
N145 C142 1.377 . S
N145 C144 1.344 1_556 S
O146 Co138 2.055 . S
O146 C150 1.253 . S
H147 C143 0.931 . S
H148 C144 0.930 . S
O149 Co138 2.039 . S
O149 C139 1.265 . S
C150 O146 1.253 . S
C150 O151 1.227 . S
O151 C150 1.227 . S
N152 Co138 2.140 . S
N152 C155 1.346 . S
N152 C156 1.345 . S
C153 C154 1.387 . S
C153 C157 1.391 . S
C154 C153 1.387 . S
C154 C155 1.369 . S
C154 H163 0.929 . S
C155 N152 1.346 . S
C155 C154 1.369 . S
C155 H158 0.928 . S
C156 N152 1.345 . S
C156 C157 1.371 . S
C156 H159 0.931 . S
C157 C153 1.391 . S
C157 C156 1.371 . S
C157 H164 0.930 . S
H158 C155 0.928 . S
H159 C156 0.931 . S
H160 C136 0.930 . S
H161 C133 0.930 . S
H162 C142 0.930 . S
H163 C154 0.929 . S
H164 C157 0.930 . S
C165 C166 1.351 . S
C165 N168 1.368 . S
C165 H170 0.931 . S
C166 C165 1.351 . S
C166 N167 1.373 . S
C166 H194 0.930 . S
N167 C166 1.373 . S
N167 C169 1.340 . S
N168 C165 1.368 . S
N168 C169 1.321 . S
N168 Co171 2.135 . S
C169 N167 1.340 . S
C169 N168 1.321 . S
C169 H193 0.930 . S
H170 C165 0.931 . S
Co171 N168 2.135 . S
Co171 N174 2.121 . S
Co171 O179 2.055 . S
Co171 O182 2.039 . S
Co171 N185 2.140 . S
C172 O173 1.227 . S
C172 O182 1.265 . S
O173 C172 1.227 . S
N174 Co171 2.121 . S
N174 C176 1.375 . S
N174 C177 1.313 . S
C175 C176 1.338 . S
C175 N178 1.377 . S
C175 H195 0.930 . S
C176 N174 1.375 . S
C176 C175 1.338 . S
C176 H180 0.931 . S
C177 N174 1.313 . S
C177 N178 1.344 . S
C177 H181 0.930 . S
N178 C175 1.377 . S
N178 C177 1.344 . S
O179 Co171 2.055 . S
O179 C183 1.253 . S
H180 C176 0.931 . S
H181 C177 0.930 . S
O182 Co171 2.039 . S
O182 C172 1.265 . S
C183 O179 1.253 . S
C183 O184 1.227 . S
O184 C183 1.227 . S
N185 Co171 2.140 . S
N185 C188 1.346 . S
N185 C189 1.345 . S
C186 C187 1.387 . S
C186 C190 1.391 . S
C187 C186 1.387 . S
C187 C188 1.369 . S
C187 H196 0.929 . S
C188 N185 1.346 . S
C188 C187 1.369 . S
C188 H191 0.928 . S
C189 N185 1.345 . S
C189 C190 1.371 . S
C189 H192 0.931 . S
C190 C186 1.391 . S
C190 C189 1.371 . S
C190 H197 0.930 . S
H191 C188 0.928 . S
H192 C189 0.931 . S
H193 C169 0.930 . S
H194 C166 0.930 . S
H195 C175 0.930 . S
H196 C187 0.929 . S
H197 C190 0.930 . S
C198 C199 1.351 . S
C198 N201 1.368 . S
C198 H203 0.931 . S
C199 C198 1.351 . S
C199 N200 1.373 . S
C199 H227 0.930 . S
N200 C199 1.373 . S
N200 C202 1.340 . S
N201 C198 1.368 . S
N201 C202 1.321 . S
N201 Co204 2.135 . S
C202 N200 1.340 . S
C202 N201 1.321 . S
C202 H226 0.930 . S
H203 C198 0.931 . S
Co204 N201 2.135 . S
Co204 N207 2.121 . S
Co204 O212 2.055 . S
Co204 O215 2.039 . S
Co204 N218 2.140 . S
C205 O206 1.227 . S
C205 O215 1.265 . S
O206 C205 1.227 . S
N207 Co204 2.121 . S
N207 C209 1.375 . S
N207 C210 1.313 . S
C208 C209 1.338 1_556 S
C208 N211 1.377 . S
C208 H228 0.930 . S
C209 N207 1.375 . S
C209 C208 1.338 1_554 S
C209 H213 0.931 . S
C210 N207 1.313 . S
C210 N211 1.344 1_554 S
C210 H214 0.930 . S
N211 C208 1.377 . S
N211 C210 1.344 1_556 S
O212 Co204 2.055 . S
O212 C216 1.253 . S
H213 C209 0.931 . S
H214 C210 0.930 . S
O215 Co204 2.039 . S
O215 C205 1.265 . S
C216 O212 1.253 . S
C216 O217 1.227 . S
O217 C216 1.227 . S
N218 Co204 2.140 . S
N218 C221 1.346 . S
N218 C222 1.345 . S
C219 C220 1.387 . S
C219 C223 1.391 . S
C220 C219 1.387 . S
C220 C221 1.369 . S
C220 H229 0.929 . S
C221 N218 1.346 . S
C221 C220 1.369 . S
C221 H224 0.928 . S
C222 N218 1.345 . S
C222 C223 1.371 . S
C222 H225 0.931 . S
C223 C219 1.391 . S
C223 C222 1.371 . S
C223 H230 0.930 . S
H224 C221 0.928 . S
H225 C222 0.931 . S
H226 C202 0.930 . S
H227 C199 0.930 . S
H228 C208 0.930 . S
H229 C220 0.929 . S
H230 C223 0.930 . S
C231 C232 1.351 . S
C231 N234 1.368 . S
C231 H236 0.931 . S
C232 C231 1.351 . S
C232 N233 1.373 . S
C232 H260 0.930 . S
N233 C232 1.373 . S
N233 C235 1.340 . S
N234 C231 1.368 . S
N234 C235 1.321 . S
N234 Co237 2.135 . S
C235 N233 1.340 . S
C235 N234 1.321 . S
C235 H259 0.930 . S
H236 C231 0.931 . S
Co237 N234 2.135 . S
Co237 N240 2.121 . S
Co237 O245 2.055 . S
Co237 O248 2.039 . S
Co237 N251 2.140 . S
C238 O239 1.227 . S
C238 O248 1.265 . S
O239 C238 1.227 . S
N240 Co237 2.121 . S
N240 C242 1.375 . S
N240 C243 1.313 . S
C241 C242 1.338 . S
C241 N244 1.377 . S
C241 H261 0.930 . S
C242 N240 1.375 . S
C242 C241 1.338 . S
C242 H246 0.931 . S
C243 N240 1.313 . S
C243 N244 1.344 . S
C243 H247 0.930 . S
N244 C241 1.377 . S
N244 C243 1.344 . S
O245 Co237 2.055 . S
O245 C249 1.253 . S
H246 C242 0.931 . S
H247 C243 0.930 . S
O248 Co237 2.039 . S
O248 C238 1.265 . S
C249 O245 1.253 . S
C249 O250 1.227 . S
O250 C249 1.227 . S
N251 Co237 2.140 . S
N251 C254 1.346 . S
N251 C255 1.345 . S
C252 C253 1.387 . S
C252 C256 1.391 . S
C253 C252 1.387 . S
C253 C254 1.369 . S
C253 H262 0.929 . S
C254 N251 1.346 . S
C254 C253 1.369 . S
C254 H257 0.928 . S
C255 N251 1.345 . S
C255 C256 1.371 . S
C255 H258 0.931 . S
C256 C252 1.391 . S
C256 C255 1.371 . S
C256 H263 0.930 . S
H257 C254 0.928 . S
H258 C255 0.931 . S
H259 C235 0.930 . S
H260 C232 0.930 . S
H261 C241 0.930 . S
H262 C253 0.929 . S
H263 C256 0.930 . S
C264 C265 1.391 . S
C264 C266 1.394 . S
C264 H280 0.931 . S
C265 C264 1.391 . S
C265 C269 1.376 . S
C266 C264 1.394 . S
C266 C267 1.369 . S
C266 C270 1.531 . S
C267 C266 1.369 . S
C267 C268 1.407 1_565 S
C267 C275 1.503 1_565 S
C268 C267 1.407 1_545 S
C268 C269 1.389 1_545 S
C268 C271 1.517 . S
C269 C265 1.376 . S
C269 C268 1.389 1_565 S
C269 H281 0.929 . S
C270 C266 1.531 . S
C270 H282 0.960 . S
C270 H283 0.962 . S
C270 H284 0.960 . S
C271 C268 1.517 . S
C271 H285 0.961 . S
C271 H286 0.961 . S
C271 H287 0.961 . S
C272 C273 1.370 . S
C272 C274 1.363 . S
C272 H288 0.931 . S
C273 C272 1.370 . S
C273 C277 1.408 . S
C274 C272 1.363 . S
C274 C275 1.370 . S
C274 C278 1.524 . S
C275 C267 1.503 1_545 S
C275 C274 1.370 . S
C275 C276 1.403 . S
C276 C275 1.403 . S
C276 C277 1.404 . S
C276 C279 1.539 1_545 S
C277 C273 1.408 . S
C277 C276 1.404 . S
C277 H289 0.930 . S
C278 C274 1.524 . S
C278 H290 0.956 1_545 S
C278 H291 0.961 . S
C278 H292 0.961 . S
C279 C276 1.539 1_565 S
C279 H293 0.958 . S
C279 H294 0.961 1_565 S
C279 H295 0.960 . S
H280 C264 0.931 . S
H281 C269 0.929 . S
H282 C270 0.960 . S
H283 C270 0.962 . S
H284 C270 0.960 . S
H285 C271 0.961 . S
H286 C271 0.961 . S
H287 C271 0.961 . S
H288 C272 0.931 . S
H289 C277 0.930 . S
H290 C278 0.956 1_565 S
H291 C278 0.961 . S
H292 C278 0.961 . S
H293 C279 0.958 . S
H294 C279 0.961 1_545 S
H295 C279 0.960 . S
C296 C297 1.391 . S
C296 C298 1.394 . S
C296 H312 0.931 . S
C297 C296 1.391 . S
C297 C301 1.376 . S
C298 C296 1.394 . S
C298 C299 1.369 . S
C298 C302 1.531 . S
C299 C298 1.369 . S
C299 C300 1.410 . S
C299 C307 1.503 1_554 S
C300 C299 1.410 . S
C300 C301 1.392 . S
C300 C303 1.511 1_554 S
C301 C297 1.376 . S
C301 C300 1.392 . S
C301 H313 0.929 . S
C302 C298 1.531 . S
C302 H314 0.960 . S
C302 H315 0.962 . S
C302 H316 0.960 . S
C303 C300 1.511 1_556 S
C303 H317 0.961 . S
C303 H318 0.961 . S
C303 H319 0.961 . S
C304 C305 1.370 . S
C304 C306 1.363 . S
C304 H320 0.931 . S
C305 C304 1.370 . S
C305 C309 1.408 . S
C306 C304 1.363 . S
C306 C307 1.370 . S
C306 C310 1.524 . S
C307 C299 1.503 1_556 S
C307 C306 1.370 . S
C307 C308 1.403 . S
C308 C307 1.403 . S
C308 C309 1.404 . S
C308 C311 1.539 1_556 S
C309 C305 1.408 . S
C309 C308 1.404 . S
C309 H321 0.930 . S
C310 C306 1.524 . S
C310 H322 0.956 . S
C310 H323 0.961 . S
C310 H324 0.961 . S
C311 C308 1.539 1_554 S
C311 H325 0.958 . S
C311 H326 0.961 . S
C311 H327 0.960 . S
H312 C296 0.931 . S
H313 C301 0.929 . S
H314 C302 0.960 . S
H315 C302 0.962 . S
H316 C302 0.960 . S
H317 C303 0.961 . S
H318 C303 0.961 . S
H319 C303 0.961 . S
H320 C304 0.931 . S
H321 C309 0.930 . S
H322 C310 0.956 . S
H323 C310 0.961 . S
H324 C310 0.961 . S
H325 C311 0.958 . S
H326 C311 0.961 . S
H327 C311 0.960 . S
C328 C329 1.391 . S
C328 C330 1.394 . S
C328 H344 0.931 . S
C329 C328 1.391 . S
C329 C333 1.376 . S
C330 C328 1.394 . S
C330 C331 1.369 . S
C330 C334 1.531 1_655 S
C331 C330 1.369 . S
C331 C332 1.410 . S
C331 C339 1.503 1_655 S
C332 C331 1.410 . S
C332 C333 1.392 . S
C332 C335 1.511 . S
C333 C329 1.376 . S
C333 C332 1.392 . S
C333 H345 0.929 . S
C334 C330 1.531 1_455 S
C334 H346 0.960 . S
C334 H347 0.962 . S
C334 H348 0.960 . S
C335 C332 1.511 . S
C335 H349 0.961 . S
C335 H350 0.961 . S
C335 H351 0.961 . S
C336 C337 1.370 . S
C336 C338 1.363 . S
C336 H352 0.931 . S
C337 C336 1.370 . S
C337 C341 1.408 . S
C338 C336 1.363 . S
C338 C339 1.370 . S
C338 C342 1.524 . S
C339 C331 1.503 1_455 S
C339 C338 1.370 . S
C339 C340 1.403 . S
C340 C339 1.403 . S
C340 C341 1.404 . S
C340 C343 1.539 1_455 S
C341 C337 1.408 . S
C341 C340 1.404 . S
C341 H353 0.930 . S
C342 C338 1.524 . S
C342 H354 0.956 . S
C342 H355 0.961 . S
C342 H356 0.961 . S
C343 C340 1.539 1_655 S
C343 H357 0.958 . S
C343 H358 0.961 . S
C343 H359 0.960 . S
H344 C328 0.931 . S
H345 C333 0.929 . S
H346 C334 0.960 . S
H347 C334 0.962 . S
H348 C334 0.960 . S
H349 C335 0.961 . S
H350 C335 0.961 . S
H351 C335 0.961 . S
H352 C336 0.931 . S
H353 C341 0.930 . S
H354 C342 0.956 . S
H355 C342 0.961 . S
H356 C342 0.961 . S
H357 C343 0.958 . S
H358 C343 0.961 . S
H359 C343 0.960 . S
C360 C361 1.391 . S
C360 C362 1.394 . S
C360 H376 0.931 . S
C361 C360 1.391 . S
C361 C365 1.376 . S
C362 C360 1.394 . S
C362 C363 1.369 . S
C362 C366 1.531 1_544 S
C363 C362 1.369 . S
C363 C364 1.392 1_655 S
C363 C371 1.503 1_644 S
C364 C363 1.392 1_455 S
C364 C365 1.368 1_455 S
C364 C367 1.553 . S
C365 C361 1.376 . S
C365 C364 1.368 1_655 S
C365 H377 0.929 . S
C366 C362 1.531 1_566 S
C366 H378 0.960 . S
C366 H379 0.962 1_556 S
C366 H380 0.960 . S
C367 C364 1.553 . S
C367 H381 0.961 . S
C367 H382 0.961 . S
C367 H383 0.961 . S
C368 C369 1.370 . S
C368 C370 1.363 . S
C368 H384 0.931 . S
C369 C368 1.370 . S
C369 C373 1.408 . S
C370 C368 1.363 . S
C370 C371 1.370 . S
C370 C374 1.524 1_556 S
C371 C363 1.503 1_466 S
C371 C370 1.370 . S
C371 C372 1.403 . S
C372 C371 1.403 . S
C372 C373 1.404 . S
C372 C375 1.539 1_465 S
C373 C369 1.408 . S
C373 C372 1.404 . S
C373 H385 0.930 . S
C374 C370 1.524 1_554 S
C374 H386 0.956 1_455 S
C374 H387 0.961 . S
C374 H388 0.961 . S
C375 C372 1.539 1_645 S
C375 H389 0.960 . S
C375 H390 0.960 1_655 S
C375 H391 0.960 . S
H376 C360 0.931 . S
H377 C365 0.929 . S
H378 C366 0.960 . S
H379 C366 0.962 1_554 S
H380 C366 0.960 . S
H381 C367 0.961 . S
H382 C367 0.961 . S
H383 C367 0.961 . S
H384 C368 0.931 . S
H385 C373 0.930 . S
H386 C374 0.956 1_655 S
H387 C374 0.961 . S
H388 C374 0.961 . S
H389 C375 0.960 . S
H390 C375 0.960 1_455 S
H391 C375 0.960 . S
C392 C393 1.391 . S
C392 C394 1.394 . S
C392 H408 0.931 . S
C393 C392 1.391 . S
C393 C397 1.376 . S
C394 C392 1.394 . S
C394 C395 1.369 . S
C394 C398 1.531 . S
C395 C394 1.369 . S
C395 C396 1.410 . S
C395 C403 1.503 . S
C396 C395 1.410 . S
C396 C397 1.392 . S
C396 C399 1.511 . S
C397 C393 1.376 . S
C397 C396 1.392 . S
C397 H409 0.929 . S
C398 C394 1.531 . S
C398 H410 0.960 . S
C398 H411 0.962 . S
C398 H412 0.960 . S
C399 C396 1.511 . S
C399 H413 0.961 . S
C399 H414 0.961 . S
C399 H415 0.961 . S
C400 C401 1.370 . S
C400 C402 1.363 . S
C400 H416 0.931 . S
C401 C400 1.370 . S
C401 C405 1.408 . S
C402 C400 1.363 . S
C402 C403 1.370 . S
C402 C406 1.524 . S
C403 C395 1.503 . S
C403 C402 1.370 . S
C403 C404 1.403 . S
C404 C403 1.403 . S
C404 C405 1.404 . S
C404 C407 1.539 . S
C405 C401 1.408 . S
C405 C404 1.404 . S
C405 H417 0.930 . S
C406 C402 1.524 . S
C406 H418 0.956 . S
C406 H419 0.961 . S
C406 H420 0.961 . S
C407 C404 1.539 . S
C407 H421 0.958 . S
C407 H422 0.961 . S
C407 H423 0.960 . S
H408 C392 0.931 . S
H409 C397 0.929 . S
H410 C398 0.960 . S
H411 C398 0.962 . S
H412 C398 0.960 . S
H413 C399 0.961 . S
H414 C399 0.961 . S
H415 C399 0.961 . S
H416 C400 0.931 . S
H417 C405 0.930 . S
H418 C406 0.956 . S
H419 C406 0.961 . S
H420 C406 0.961 . S
H421 C407 0.958 . S
H422 C407 0.961 . S
H423 C407 0.960 . S
C424 C425 1.391 . S
C424 C426 1.394 . S
C424 H440 0.931 . S
C425 C424 1.391 . S
C425 C429 1.376 . S
C426 C424 1.394 . S
C426 C427 1.369 . S
C426 C430 1.531 . S
C427 C426 1.369 . S
C427 C428 1.410 . S
C427 C435 1.503 . S
C428 C427 1.410 . S
C428 C429 1.392 . S
C428 C431 1.511 . S
C429 C425 1.376 . S
C429 C428 1.392 . S
C429 H441 0.929 . S
C430 C426 1.531 . S
C430 H442 0.960 . S
C430 H443 0.962 . S
C430 H444 0.960 . S
C431 C428 1.511 . S
C431 H445 0.961 . S
C431 H446 0.961 . S
C431 H447 0.961 . S
C432 C433 1.370 . S
C432 C434 1.363 . S
C432 H448 0.931 . S
C433 C432 1.370 . S
C433 C437 1.408 . S
C434 C432 1.363 . S
C434 C435 1.370 . S
C434 C438 1.524 . S
C435 C427 1.503 . S
C435 C434 1.370 . S
C435 C436 1.403 . S
C436 C435 1.403 . S
C436 C437 1.404 . S
C436 C439 1.539 . S
C437 C433 1.408 . S
C437 C436 1.404 . S
C437 H449 0.930 . S
C438 C434 1.524 . S
C438 H450 0.956 . S
C438 H451 0.961 . S
C438 H452 0.961 . S
C439 C436 1.539 . S
C439 H453 0.958 . S
C439 H454 0.961 . S
C439 H455 0.960 . S
H440 C424 0.931 . S
H441 C429 0.929 . S
H442 C430 0.960 . S
H443 C430 0.962 . S
H444 C430 0.960 . S
H445 C431 0.961 . S
H446 C431 0.961 . S
H447 C431 0.961 . S
H448 C432 0.931 . S
H449 C437 0.930 . S
H450 C438 0.956 . S
H451 C438 0.961 . S
H452 C438 0.961 . S
H453 C439 0.958 . S
H454 C439 0.961 . S
H455 C439 0.960 . S
C456 C457 1.391 . S
C456 C458 1.394 . S
C456 H472 0.931 . S
C457 C456 1.391 . S
C457 C461 1.376 . S
C458 C456 1.394 . S
C458 C459 1.369 . S
C458 C462 1.531 . S
C459 C458 1.369 . S
C459 C460 1.410 . S
C459 C467 1.503 . S
C460 C459 1.410 . S
C460 C461 1.392 . S
C460 C463 1.511 . S
C461 C457 1.376 . S
C461 C460 1.392 . S
C461 H473 0.929 . S
C462 C458 1.531 . S
C462 H474 0.960 . S
C462 H475 0.962 . S
C462 H476 0.960 . S
C463 C460 1.511 . S
C463 H477 0.961 . S
C463 H478 0.961 . S
C463 H479 0.961 . S
C464 C465 1.370 . S
C464 C466 1.363 . S
C464 H480 0.931 . S
C465 C464 1.370 . S
C465 C469 1.408 . S
C466 C464 1.363 . S
C466 C467 1.370 . S
C466 C470 1.524 . S
C467 C459 1.503 . S
C467 C466 1.370 . S
C467 C468 1.403 . S
C468 C467 1.403 . S
C468 C469 1.404 . S
C468 C471 1.539 . S
C469 C465 1.408 . S
C469 C468 1.404 . S
C469 H481 0.930 . S
C470 C466 1.524 . S
C470 H482 0.956 . S
C470 H483 0.961 . S
C470 H484 0.961 . S
C471 C468 1.539 . S
C471 H485 0.958 . S
C471 H486 0.961 . S
C471 H487 0.960 . S
H472 C456 0.931 . S
H473 C461 0.929 . S
H474 C462 0.960 . S
H475 C462 0.962 . S
H476 C462 0.960 . S
H477 C463 0.961 . S
H478 C463 0.961 . S
H479 C463 0.961 . S
H480 C464 0.931 . S
H481 C469 0.930 . S
H482 C470 0.956 . S
H483 C470 0.961 . S
H484 C470 0.961 . S
H485 C471 0.958 . S
H486 C471 0.961 . S
H487 C471 0.960 . S
C488 C489 1.391 . S
C488 C490 1.394 . S
C488 H504 0.931 . S
C489 C488 1.391 . S
C489 C493 1.376 . S
C490 C488 1.394 . S
C490 C491 1.369 . S
C490 C494 1.531 . S
C491 C490 1.369 . S
C491 C492 1.410 . S
C491 C499 1.503 . S
C492 C491 1.410 . S
C492 C493 1.392 . S
C492 C495 1.511 . S
C493 C489 1.376 . S
C493 C492 1.392 . S
C493 H505 0.929 . S
C494 C490 1.531 . S
C494 H506 0.960 . S
C494 H507 0.962 . S
C494 H508 0.960 . S
C495 C492 1.511 . S
C495 H509 0.961 . S
C495 H510 0.961 . S
C495 H511 0.961 . S
C496 C497 1.370 . S
C496 C498 1.363 . S
C496 H512 0.931 . S
C497 C496 1.370 . S
C497 C501 1.408 . S
C498 C496 1.363 . S
C498 C499 1.370 . S
C498 C502 1.524 . S
C499 C491 1.503 . S
C499 C498 1.370 . S
C499 C500 1.403 . S
C500 C499 1.403 . S
C500 C501 1.404 . S
C500 C503 1.539 . S
C501 C497 1.408 . S
C501 C500 1.404 . S
C501 H513 0.930 . S
C502 C498 1.524 . S
C502 H514 0.956 . S
C502 H515 0.961 . S
C502 H516 0.961 . S
C503 C500 1.539 . S
C503 H517 0.958 . S
C503 H518 0.961 . S
C503 H519 0.960 . S
H504 C488 0.931 . S
H505 C493 0.929 . S
H506 C494 0.960 . S
H507 C494 0.962 . S
H508 C494 0.960 . S
H509 C495 0.961 . S
H510 C495 0.961 . S
H511 C495 0.961 . S
H512 C496 0.931 . S
H513 C501 0.930 . S
H514 C502 0.956 . S
H515 C502 0.961 . S
H516 C502 0.961 . S
H517 C503 0.958 . S
H518 C503 0.961 . S
H519 C503 0.960 . S
C520 C521 1.391 . S
C520 C522 1.394 . S
C520 H536 0.931 . S
C521 C520 1.391 . S
C521 C525 1.376 . S
C522 C520 1.394 . S
C522 C523 1.369 . S
C522 C526 1.531 . S
C523 C522 1.369 . S
C523 C524 1.410 . S
C523 C531 1.503 . S
C524 C523 1.410 . S
C524 C525 1.392 . S
C524 C527 1.511 . S
C525 C521 1.376 . S
C525 C524 1.392 . S
C525 H537 0.929 . S
C526 C522 1.531 . S
C526 H538 0.960 . S
C526 H539 0.962 . S
C526 H540 0.960 . S
C527 C524 1.511 . S
C527 H541 0.961 . S
C527 H542 0.961 . S
C527 H543 0.961 . S
C528 C529 1.370 . S
C528 C530 1.363 . S
C528 H544 0.931 . S
C529 C528 1.370 . S
C529 C533 1.408 . S
C530 C528 1.363 . S
C530 C531 1.370 . S
C530 C534 1.524 . S
C531 C523 1.503 . S
C531 C530 1.370 . S
C531 C532 1.403 . S
C532 C531 1.403 . S
C532 C533 1.404 . S
C532 C535 1.539 . S
C533 C529 1.408 . S
C533 C532 1.404 . S
C533 H545 0.930 . S
C534 C530 1.524 . S
C534 H546 0.956 . S
C534 H547 0.961 . S
C534 H548 0.961 . S
C535 C532 1.539 . S
C535 H549 0.958 . S
C535 H550 0.961 . S
C535 H551 0.960 . S
H536 C520 0.931 . S
H537 C525 0.929 . S
H538 C526 0.960 . S
H539 C526 0.962 . S
H540 C526 0.960 . S
H541 C527 0.961 . S
H542 C527 0.961 . S
H543 C527 0.961 . S
H544 C528 0.931 . S
H545 C533 0.930 . S
H546 C534 0.956 . S
H547 C534 0.961 . S
H548 C534 0.961 . S
H549 C535 0.958 . S
H550 C535 0.961 . S
H551 C535 0.960 . S
C552 C553 1.391 . S
C552 C554 1.394 . S
C552 H568 0.931 . S
C553 C552 1.391 . S
C553 C557 1.376 . S
C554 C552 1.394 . S
C554 C555 1.369 . S
C554 C558 1.531 . S
C555 C554 1.369 . S
C555 C556 1.410 . S
C555 C563 1.503 . S
C556 C555 1.410 . S
C556 C557 1.392 . S
C556 C559 1.511 . S
C557 C553 1.376 . S
C557 C556 1.392 . S
C557 H569 0.929 . S
C558 C554 1.531 . S
C558 H570 0.960 . S
C558 H571 0.962 . S
C558 H572 0.960 . S
C559 C556 1.511 . S
C559 H573 0.961 . S
C559 H574 0.961 . S
C559 H575 0.961 . S
C560 C561 1.370 . S
C560 C562 1.363 . S
C560 H576 0.931 . S
C561 C560 1.370 . S
C561 C565 1.408 . S
C562 C560 1.363 . S
C562 C563 1.370 . S
C562 C566 1.524 . S
C563 C555 1.503 . S
C563 C562 1.370 . S
C563 C564 1.403 . S
C564 C563 1.403 . S
C564 C565 1.404 . S
C564 C567 1.539 . S
C565 C561 1.408 . S
C565 C564 1.404 . S
C565 H577 0.930 . S
C566 C562 1.524 . S
C566 H578 0.956 . S
C566 H579 0.961 . S
C566 H580 0.961 . S
C567 C564 1.539 . S
C567 H581 0.958 . S
C567 H582 0.961 . S
C567 H583 0.960 . S
H568 C552 0.931 . S
H569 C557 0.929 . S
H570 C558 0.960 . S
H571 C558 0.962 . S
H572 C558 0.960 . S
H573 C559 0.961 . S
H574 C559 0.961 . S
H575 C559 0.961 . S
H576 C560 0.931 . S
H577 C565 0.930 . S
H578 C566 0.956 . S
H579 C566 0.961 . S
H580 C566 0.961 . S
H581 C567 0.958 . S
H582 C567 0.961 . S
H583 C567 0.960 . S
C584 C585 1.391 . S
C584 C586 1.394 . S
C584 H600 0.931 . S
C585 C584 1.391 . S
C585 C589 1.376 . S
C586 C584 1.394 . S
C586 C587 1.369 . S
C586 C590 1.531 . S
C587 C586 1.369 . S
C587 C588 1.410 . S
C587 C595 1.503 . S
C588 C587 1.410 . S
C588 C589 1.392 . S
C588 C591 1.511 . S
C589 C585 1.376 . S
C589 C588 1.392 . S
C589 H601 0.929 . S
C590 C586 1.531 . S
C590 H602 0.960 . S
C590 H603 0.962 . S
C590 H604 0.960 . S
C591 C588 1.511 . S
C591 H605 0.961 . S
C591 H606 0.961 . S
C591 H607 0.961 . S
C592 C593 1.370 . S
C592 C594 1.363 . S
C592 H608 0.931 . S
C593 C592 1.370 . S
C593 C597 1.408 . S
C594 C592 1.363 . S
C594 C595 1.370 . S
C594 C598 1.524 . S
C595 C587 1.503 . S
C595 C594 1.370 . S
C595 C596 1.403 . S
C596 C595 1.403 . S
C596 C597 1.404 . S
C596 C599 1.539 . S
C597 C593 1.408 . S
C597 C596 1.404 . S
C597 H609 0.930 . S
C598 C594 1.524 . S
C598 H610 0.956 . S
C598 H611 0.961 . S
C598 H612 0.961 . S
C599 C596 1.539 . S
C599 H613 0.958 . S
C599 H614 0.961 . S
C599 H615 0.960 . S
H600 C584 0.931 . S
H601 C589 0.929 . S
H602 C590 0.960 . S
H603 C590 0.962 . S
H604 C590 0.960 . S
H605 C591 0.961 . S
H606 C591 0.961 . S
H607 C591 0.961 . S
H608 C592 0.931 . S
H609 C597 0.930 . S
H610 C598 0.956 . S
H611 C598 0.961 . S
H612 C598 0.961 . S
H613 C599 0.958 . S
H614 C599 0.961 . S
H615 C599 0.960 . S
C616 C617 1.391 . S
C616 C618 1.394 . S
C616 H632 0.931 . S
C617 C616 1.391 . S
C617 C621 1.376 . S
C618 C616 1.394 . S
C618 C619 1.369 . S
C618 C622 1.531 . S
C619 C618 1.369 . S
C619 C620 1.410 . S
C619 C627 1.503 . S
C620 C619 1.410 . S
C620 C621 1.392 . S
C620 C623 1.511 . S
C621 C617 1.376 . S
C621 C620 1.392 . S
C621 H633 0.929 . S
C622 C618 1.531 . S
C622 H634 0.960 . S
C622 H635 0.962 . S
C622 H636 0.960 . S
C623 C620 1.511 . S
C623 H637 0.961 . S
C623 H638 0.961 . S
C623 H639 0.961 . S
C624 C625 1.370 . S
C624 C626 1.363 . S
C624 H640 0.931 . S
C625 C624 1.370 . S
C625 C629 1.408 . S
C626 C624 1.363 . S
C626 C627 1.370 . S
C626 C630 1.524 . S
C627 C619 1.503 . S
C627 C626 1.370 . S
C627 C628 1.403 . S
C628 C627 1.403 . S
C628 C629 1.404 . S
C628 C631 1.539 . S
C629 C625 1.408 . S
C629 C628 1.404 . S
C629 H641 0.930 . S
C630 C626 1.524 . S
C630 H642 0.956 . S
C630 H643 0.961 . S
C630 H644 0.961 . S
C631 C628 1.539 . S
C631 H645 0.958 . S
C631 H646 0.961 . S
C631 H647 0.960 . S
H632 C616 0.931 . S
H633 C621 0.929 . S
H634 C622 0.960 . S
H635 C622 0.962 . S
H636 C622 0.960 . S
H637 C623 0.961 . S
H638 C623 0.961 . S
H639 C623 0.961 . S
H640 C624 0.931 . S
H641 C629 0.930 . S
H642 C630 0.956 . S
H643 C630 0.961 . S
H644 C630 0.961 . S
H645 C631 0.958 . S
H646 C631 0.961 . S
H647 C631 0.960 . S
C648 C649 1.391 . S
C648 C650 1.394 . S
C648 H664 0.931 . S
C649 C648 1.391 . S
C649 C653 1.376 . S
C650 C648 1.394 . S
C650 C651 1.369 . S
C650 C654 1.531 . S
C651 C650 1.369 . S
C651 C652 1.410 . S
C651 C659 1.503 . S
C652 C651 1.410 . S
C652 C653 1.392 . S
C652 C655 1.511 . S
C653 C649 1.376 . S
C653 C652 1.392 . S
C653 H665 0.929 . S
C654 C650 1.531 . S
C654 H666 0.960 . S
C654 H667 0.962 . S
C654 H668 0.960 . S
C655 C652 1.511 . S
C655 H669 0.961 . S
C655 H670 0.961 . S
C655 H671 0.961 . S
C656 C657 1.370 1_556 S
C656 C658 1.363 . S
C656 H672 0.931 . S
C657 C656 1.370 1_554 S
C657 C661 1.408 1_554 S
C658 C656 1.363 . S
C658 C659 1.370 . S
C658 C662 1.524 . S
C659 C651 1.503 . S
C659 C658 1.370 . S
C659 C660 1.403 . S
C660 C659 1.403 . S
C660 C661 1.404 . S
C660 C663 1.539 . S
C661 C657 1.408 1_556 S
C661 C660 1.404 . S
C661 H673 0.930 1_556 S
C662 C658 1.524 . S
C662 H674 0.956 . S
C662 H675 0.961 . S
C662 H676 0.961 . S
C663 C660 1.539 . S
C663 H677 0.958 . S
C663 H678 0.961 . S
C663 H679 0.960 . S
H664 C648 0.931 . S
H665 C653 0.929 . S
H666 C654 0.960 . S
H667 C654 0.962 . S
H668 C654 0.960 . S
H669 C655 0.961 . S
H670 C655 0.961 . S
H671 C655 0.961 . S
H672 C656 0.931 . S
H673 C661 0.930 1_554 S
H674 C662 0.956 . S
H675 C662 0.961 . S
H676 C662 0.961 . S
H677 C663 0.958 . S
H678 C663 0.961 . S
H679 C663 0.960 . S
C680 C681 1.391 . S
C680 C682 1.394 . S
C680 H696 0.931 . S
C681 C680 1.391 . S
C681 C685 1.376 . S
C682 C680 1.394 . S
C682 C683 1.369 . S
C682 C686 1.531 . S
C683 C682 1.369 . S
C683 C684 1.410 . S
C683 C691 1.503 . S
C684 C683 1.410 . S
C684 C685 1.392 . S
C684 C687 1.511 . S
C685 C681 1.376 . S
C685 C684 1.392 . S
C685 H697 0.929 . S
C686 C682 1.531 . S
C686 H698 0.960 . S
C686 H699 0.962 . S
C686 H700 0.960 . S
C687 C684 1.511 . S
C687 H701 0.961 . S
C687 H702 0.961 . S
C687 H703 0.961 . S
C688 C689 1.370 . S
C688 C690 1.363 . S
C688 H704 0.931 . S
C689 C688 1.370 . S
C689 C693 1.408 . S
C690 C688 1.363 . S
C690 C691 1.370 . S
C690 C694 1.524 . S
C691 C683 1.503 . S
C691 C690 1.370 . S
C691 C692 1.403 . S
C692 C691 1.403 . S
C692 C693 1.404 . S
C692 C695 1.539 . S
C693 C689 1.408 . S
C693 C692 1.404 . S
C693 H705 0.930 . S
C694 C690 1.524 . S
C694 H706 0.956 . S
C694 H707 0.961 . S
C694 H708 0.961 . S
C695 C692 1.539 . S
C695 H709 0.958 . S
C695 H710 0.961 . S
C695 H711 0.960 . S
H696 C680 0.931 . S
H697 C685 0.929 . S
H698 C686 0.960 . S
H699 C686 0.962 . S
H700 C686 0.960 . S
H701 C687 0.961 . S
H702 C687 0.961 . S
H703 C687 0.961 . S
H704 C688 0.931 . S
H705 C693 0.930 . S
H706 C694 0.956 . S
H707 C694 0.961 . S
H708 C694 0.961 . S
H709 C695 0.958 . S
H710 C695 0.961 . S
H711 C695 0.960 . S
C712 C713 1.391 1_556 S
C712 C714 1.394 . S
C712 H728 0.931 1_556 S
C713 C712 1.391 1_554 S
C713 C717 1.376 1_554 S
C714 C712 1.394 . S
C714 C715 1.369 . S
C714 C718 1.531 . S
C715 C714 1.369 . S
C715 C716 1.410 . S
C715 C723 1.503 . S
C716 C715 1.410 . S
C716 C717 1.392 . S
C716 C719 1.511 . S
C717 C713 1.376 1_556 S
C717 C716 1.392 . S
C717 H729 0.929 1_556 S
C718 C714 1.531 . S
C718 H730 0.960 . S
C718 H731 0.962 . S
C718 H732 0.960 . S
C719 C716 1.511 . S
C719 H733 0.961 . S
C719 H734 0.961 . S
C719 H735 0.961 . S
C720 C721 1.370 . S
C720 C722 1.363 . S
C720 H736 0.931 . S
C721 C720 1.370 . S
C721 C725 1.408 . S
C722 C720 1.363 . S
C722 C723 1.370 . S
C722 C726 1.524 . S
C723 C715 1.503 . S
C723 C722 1.370 . S
C723 C724 1.403 . S
C724 C723 1.403 . S
C724 C725 1.404 . S
C724 C727 1.539 . S
C725 C721 1.408 . S
C725 C724 1.404 . S
C725 H737 0.930 . S
C726 C722 1.524 . S
C726 H738 0.956 . S
C726 H739 0.961 . S
C726 H740 0.961 . S
C727 C724 1.539 . S
C727 H741 0.958 . S
C727 H742 0.961 . S
C727 H743 0.960 . S
H728 C712 0.931 1_554 S
H729 C717 0.929 1_554 S
H730 C718 0.960 . S
H731 C718 0.962 . S
H732 C718 0.960 . S
H733 C719 0.961 . S
H734 C719 0.961 . S
H735 C719 0.961 . S
H736 C720 0.931 . S
H737 C725 0.930 . S
H738 C726 0.956 . S
H739 C726 0.961 . S
H740 C726 0.961 . S
H741 C727 0.958 . S
H742 C727 0.961 . S
H743 C727 0.960 . S
C744 C745 1.391 . S
C744 C746 1.394 . S
C744 H760 0.931 . S
C745 C744 1.391 . S
C745 C749 1.376 . S
C746 C744 1.394 . S
C746 C747 1.369 . S
C746 C750 1.531 . S
C747 C746 1.369 . S
C747 C748 1.410 . S
C747 C755 1.503 . S
C748 C747 1.410 . S
C748 C749 1.392 . S
C748 C751 1.511 . S
C749 C745 1.376 . S
C749 C748 1.392 . S
C749 H761 0.929 . S
C750 C746 1.531 . S
C750 H762 0.960 . S
C750 H763 0.962 . S
C750 H764 0.960 . S
C751 C748 1.511 . S
C751 H765 0.961 . S
C751 H766 0.961 . S
C751 H767 0.961 . S
C752 C753 1.370 . S
C752 C754 1.363 . S
C752 H768 0.931 . S
C753 C752 1.370 . S
C753 C757 1.408 . S
C754 C752 1.363 . S
C754 C755 1.370 . S
C754 C758 1.524 . S
C755 C747 1.503 . S
C755 C754 1.370 . S
C755 C756 1.403 . S
C756 C755 1.403 . S
C756 C757 1.404 . S
C756 C759 1.539 . S
C757 C753 1.408 . S
C757 C756 1.404 . S
C757 H769 0.930 . S
C758 C754 1.524 . S
C758 H770 0.956 . S
C758 H771 0.961 . S
C758 H772 0.961 . S
C759 C756 1.539 . S
C759 H773 0.958 . S
C759 H774 0.961 . S
C759 H775 0.960 . S
H760 C744 0.931 . S
H761 C749 0.929 . S
H762 C750 0.960 . S
H763 C750 0.962 . S
H764 C750 0.960 . S
H765 C751 0.961 . S
H766 C751 0.961 . S
H767 C751 0.961 . S
H768 C752 0.931 . S
H769 C757 0.930 . S
H770 C758 0.956 . S
H771 C758 0.961 . S
H772 C758 0.961 . S
H773 C759 0.958 . S
H774 C759 0.961 . S
H775 C759 0.960 . S
C776 C777 1.391 . S
C776 C778 1.394 . S
C776 H792 0.931 . S
C777 C776 1.391 . S
C777 C781 1.376 . S
C778 C776 1.394 . S
C778 C779 1.369 . S
C778 C782 1.531 . S
C779 C778 1.369 . S
C779 C780 1.410 . S
C779 C787 1.503 . S
C780 C779 1.410 . S
C780 C781 1.392 . S
C780 C783 1.511 . S
C781 C777 1.376 . S
C781 C780 1.392 . S
C781 H793 0.929 . S
C782 C778 1.531 . S
C782 H794 0.960 . S
C782 H795 0.962 . S
C782 H796 0.960 . S
C783 C780 1.511 . S
C783 H797 0.961 . S
C783 H798 0.961 . S
C783 H799 0.961 . S
C784 C785 1.370 . S
C784 C786 1.363 . S
C784 H800 0.931 . S
C785 C784 1.370 . S
C785 C789 1.408 . S
C786 C784 1.363 . S
C786 C787 1.370 . S
C786 C790 1.524 . S
C787 C779 1.503 . S
C787 C786 1.370 . S
C787 C788 1.403 . S
C788 C787 1.403 . S
C788 C789 1.404 . S
C788 C791 1.539 . S
C789 C785 1.408 . S
C789 C788 1.404 . S
C789 H801 0.930 . S
C790 C786 1.524 . S
C790 H802 0.956 . S
C790 H803 0.961 . S
C790 H804 0.961 . S
C791 C788 1.539 . S
C791 H805 0.958 . S
C791 H806 0.961 . S
C791 H807 0.960 . S
H792 C776 0.931 . S
H793 C781 0.929 . S
H794 C782 0.960 . S
H795 C782 0.962 . S
H796 C782 0.960 . S
H797 C783 0.961 . S
H798 C783 0.961 . S
H799 C783 0.961 . S
H800 C784 0.931 . S
H801 C789 0.930 . S
H802 C790 0.956 . S
H803 C790 0.961 . S
H804 C790 0.961 . S
H805 C791 0.958 . S
H806 C791 0.961 . S
H807 C791 0.960 . S
C808 C809 1.391 1_554 S
C808 C810 1.394 . S
C808 H824 0.931 1_554 S
C809 C808 1.391 1_556 S
C809 C813 1.376 1_556 S
C810 C808 1.394 . S
C810 C811 1.369 . S
C810 C814 1.531 . S
C811 C810 1.369 . S
C811 C812 1.410 . S
C811 C819 1.503 . S
C812 C811 1.410 . S
C812 C813 1.392 . S
C812 C815 1.511 . S
C813 C809 1.376 1_554 S
C813 C812 1.392 . S
C813 H825 0.929 . S
C814 C810 1.531 . S
C814 H826 0.960 . S
C814 H827 0.962 . S
C814 H828 0.960 . S
C815 C812 1.511 . S
C815 H829 0.961 . S
C815 H830 0.961 . S
C815 H831 0.961 . S
C816 C817 1.370 . S
C816 C818 1.363 . S
C816 H832 0.931 . S
C817 C816 1.370 . S
C817 C821 1.408 . S
C818 C816 1.363 . S
C818 C819 1.370 . S
C818 C822 1.524 . S
C819 C811 1.503 . S
C819 C818 1.370 . S
C819 C820 1.403 . S
C820 C819 1.403 . S
C820 C821 1.404 . S
C820 C823 1.539 . S
C821 C817 1.408 . S
C821 C820 1.404 . S
C821 H833 0.930 . S
C822 C818 1.524 . S
C822 H834 0.956 . S
C822 H835 0.961 . S
C822 H836 0.961 . S
C823 C820 1.539 . S
C823 H837 0.958 . S
C823 H838 0.961 . S
C823 H839 0.960 . S
H824 C808 0.931 1_556 S
H825 C813 0.929 . S
H826 C814 0.960 . S
H827 C814 0.962 . S
H828 C814 0.960 . S
H829 C815 0.961 . S
H830 C815 0.961 . S
H831 C815 0.961 . S
H832 C816 0.931 . S
H833 C821 0.930 . S
H834 C822 0.956 . S
H835 C822 0.961 . S
H836 C822 0.961 . S
H837 C823 0.958 . S
H838 C823 0.961 . S
H839 C823 0.960 . S
C840 C841 1.391 . S
C840 C842 1.394 . S
C840 H856 0.931 . S
C841 C840 1.391 . S
C841 C845 1.376 . S
C842 C840 1.394 . S
C842 C843 1.369 . S
C842 C846 1.531 . S
C843 C842 1.369 . S
C843 C844 1.410 . S
C843 C851 1.503 . S
C844 C843 1.410 . S
C844 C845 1.392 . S
C844 C847 1.511 . S
C845 C841 1.376 . S
C845 C844 1.392 . S
C845 H857 0.929 . S
C846 C842 1.531 . S
C846 H858 0.960 . S
C846 H859 0.962 . S
C846 H860 0.960 . S
C847 C844 1.511 . S
C847 H861 0.961 . S
C847 H862 0.961 . S
C847 H863 0.961 . S
C848 C849 1.370 . S
C848 C850 1.363 . S
C848 H864 0.931 . S
C849 C848 1.370 . S
C849 C853 1.408 . S
C850 C848 1.363 . S
C850 C851 1.370 . S
C850 C854 1.524 . S
C851 C843 1.503 . S
C851 C850 1.370 . S
C851 C852 1.403 . S
C852 C851 1.403 . S
C852 C853 1.404 . S
C852 C855 1.539 . S
C853 C849 1.408 . S
C853 C852 1.404 . S
C853 H865 0.930 . S
C854 C850 1.524 . S
C854 H866 0.956 . S
C854 H867 0.961 . S
C854 H868 0.961 . S
C855 C852 1.539 . S
C855 H869 0.958 . S
C855 H870 0.961 . S
C855 H871 0.960 . S
H856 C840 0.931 . S
H857 C845 0.929 . S
H858 C846 0.960 . S
H859 C846 0.962 . S
H860 C846 0.960 . S
H861 C847 0.961 . S
H862 C847 0.961 . S
H863 C847 0.961 . S
H864 C848 0.931 . S
H865 C853 0.930 . S
H866 C854 0.956 . S
H867 C854 0.961 . S
H868 C854 0.961 . S
H869 C855 0.958 . S
H870 C855 0.961 . S
H871 C855 0.960 . S
C872 C873 1.391 . S
C872 C874 1.394 . S
C872 H888 0.931 . S
C873 C872 1.391 . S
C873 C877 1.376 . S
C874 C872 1.394 . S
C874 C875 1.369 . S
C874 C878 1.531 . S
C875 C874 1.369 . S
C875 C876 1.410 . S
C875 C883 1.503 . S
C876 C875 1.410 . S
C876 C877 1.392 . S
C876 C879 1.511 . S
C877 C873 1.376 . S
C877 C876 1.392 . S
C877 H889 0.929 . S
C878 C874 1.531 . S
C878 H890 0.960 . S
C878 H891 0.962 . S
C878 H892 0.960 . S
C879 C876 1.511 . S
C879 H893 0.961 . S
C879 H894 0.961 . S
C879 H895 0.961 . S
C880 C881 1.370 1_554 S
C880 C882 1.363 . S
C880 H896 0.931 1_554 S
C881 C880 1.370 1_556 S
C881 C885 1.408 1_556 S
C882 C880 1.363 . S
C882 C883 1.370 . S
C882 C886 1.524 . S
C883 C875 1.503 . S
C883 C882 1.370 . S
C883 C884 1.403 . S
C884 C883 1.403 . S
C884 C885 1.404 . S
C884 C887 1.539 . S
C885 C881 1.408 1_554 S
C885 C884 1.404 . S
C885 H897 0.930 1_554 S
C886 C882 1.524 . S
C886 H898 0.956 . S
C886 H899 0.961 . S
C886 H900 0.961 . S
C887 C884 1.539 . S
C887 H901 0.958 . S
C887 H902 0.961 . S
C887 H903 0.960 . S
H888 C872 0.931 . S
H889 C877 0.929 . S
H890 C878 0.960 . S
H891 C878 0.962 . S
H892 C878 0.960 . S
H893 C879 0.961 . S
H894 C879 0.961 . S
H895 C879 0.961 . S
H896 C880 0.931 1_556 S
H897 C885 0.930 1_556 S
H898 C886 0.956 . S
H899 C886 0.961 . S
H900 C886 0.961 . S
H901 C887 0.958 . S
H902 C887 0.961 . S
H903 C887 0.960 . S
C265 C249 1.151 . S
C273 C18 1.197 . S
C297 C150 1.201 . S
C305 C51 1.179 . S
C329 C84 1.193 . S
C337 C183 1.183 . S
C361 C216 1.152 . S
C369 C117 1.196 . S
C393 C7 1.454 . S
C401 C139 1.460 . S
C425 C172 1.428 . S
C433 C40 1.448 . S
C457 C205 1.439 . S
C465 C73 1.443 . S
C489 C238 1.435 . S
C497 C106 1.443 . S
C521 C252 1.471 . S
C529 C54 1.482 . S
C553 C87 1.470 . S
C561 C153 1.484 . S
C585 C120 1.489 . S
C593 C186 1.486 . S
C617 C219 1.472 . S
C625 C21 1.482 . S
C649 N13 1.218 . S
C657 N2 1.241 . S
C681 N35 1.226 . S
C689 N46 1.241 . S
C713 N68 1.250 . S
C721 N79 1.231 . S
C745 N112 1.214 . S
C753 N101 1.245 . S
C777 N134 1.211 . S
C785 N145 1.245 . S
C809 N167 1.215 . S
C817 N178 1.245 . S
C841 N200 1.214 . S
C849 N211 1.243 . S
C873 N244 1.247 . S
C881 N233 1.229 . S
