# Generated by pormake.
# Topology upd, (4)-cn, num edge types: 1
# Building blocks:
#     Node 0, Type 0, BuildingBlock: NAWXER_clean_sbu_0, # of connection points: 4
#     Node 1, Type 0, BuildingBlock: NAWXER_clean_sbu_0, # of connection points: 4
#     Node 2, Type 0, BuildingBlock: NAWXER_clean_sbu_0, # of connection points: 4
#     Node 3, Type 0, BuildingBlock: NAWXER_clean_sbu_0, # of connection points: 4
#     Node 4, Type 0, BuildingBlock: NAWXER_clean_sbu_0, # of connection points: 4
#     Node 5, Type 0, BuildingBlock: NAWXER_clean_sbu_0, # of connection points: 4
#     Node 6, Type 0, BuildingBlock: NAWXER_clean_sbu_0, # of connection points: 4
#     Node 7, Type 0, BuildingBlock: NAWXER_clean_sbu_0, # of connection points: 4
#     Node 8, Type 0, BuildingBlock: NAWXER_clean_sbu_0, # of connection points: 4
#     Node 9, Type 0, BuildingBlock: NAWXER_clean_sbu_0, # of connection points: 4
#     Node 10, Type 0, BuildingBlock: NAWXER_clean_sbu_0, # of connection points: 4
#     Node 11, Type 0, BuildingBlock: NAWXER_clean_sbu_0, # of connection points: 4
#     Node 12, Type 0, BuildingBlock: NAWXER_clean_sbu_0, # of connection points: 4
#     Node 13, Type 0, BuildingBlock: NAWXER_clean_sbu_0, # of connection points: 4
#     Node 14, Type 0, BuildingBlock: NAWXER_clean_sbu_0, # of connection points: 4
#     Node 15, Type 0, BuildingBlock: NAWXER_clean_sbu_0, # of connection points: 4
#     Node 16, Type 0, BuildingBlock: NAWXER_clean_sbu_0, # of connection points: 4
#     Node 17, Type 0, BuildingBlock: NAWXER_clean_sbu_0, # of connection points: 4
#     Node 18, Type 0, BuildingBlock: NAWXER_clean_sbu_0, # of connection points: 4
#     Node 19, Type 0, BuildingBlock: NAWXER_clean_sbu_0, # of connection points: 4
#     Node 20, Type 0, BuildingBlock: NAWXER_clean_sbu_0, # of connection points: 4
#     Node 21, Type 0, BuildingBlock: NAWXER_clean_sbu_0, # of connection points: 4
#     Node 22, Type 0, BuildingBlock: NAWXER_clean_sbu_0, # of connection points: 4
#     Node 23, Type 0, BuildingBlock: NAWXER_clean_sbu_0, # of connection points: 4
#     Node 24, Type 0, BuildingBlock: NAWXER_clean_sbu_0, # of connection points: 4
#     Node 25, Type 0, BuildingBlock: NAWXER_clean_sbu_0, # of connection points: 4
#     Node 26, Type 0, BuildingBlock: NAWXER_clean_sbu_0, # of connection points: 4
#     Node 27, Type 0, BuildingBlock: NAWXER_clean_sbu_0, # of connection points: 4
#     Node 28, Type 0, BuildingBlock: NAWXER_clean_sbu_0, # of connection points: 4
#     Node 29, Type 0, BuildingBlock: NAWXER_clean_sbu_0, # of connection points: 4
#     Node 30, Type 0, BuildingBlock: NAWXER_clean_sbu_0, # of connection points: 4
#     Node 31, Type 0, BuildingBlock: NAWXER_clean_sbu_0, # of connection points: 4
#     Edge 32, Type (0, 0), BuildingBlock: KIFKEQ_clean_linker_1, # of connection points: 2
#     Edge 33, Type (0, 0), BuildingBlock: KIFKEQ_clean_linker_1, # of connection points: 2
#     Edge 34, Type (0, 0), BuildingBlock: KIFKEQ_clean_linker_1, # of connection points: 2
#     Edge 35, Type (0, 0), BuildingBlock: KIFKEQ_clean_linker_1, # of connection points: 2
#     Edge 36, Type (0, 0), BuildingBlock: KIFKEQ_clean_linker_1, # of connection points: 2
#     Edge 37, Type (0, 0), BuildingBlock: KIFKEQ_clean_linker_1, # of connection points: 2
#     Edge 38, Type (0, 0), BuildingBlock: KIFKEQ_clean_linker_1, # of connection points: 2
#     Edge 39, Type (0, 0), BuildingBlock: KIFKEQ_clean_linker_1, # of connection points: 2
#     Edge 40, Type (0, 0), BuildingBlock: KIFKEQ_clean_linker_1, # of connection points: 2
#     Edge 41, Type (0, 0), BuildingBlock: KIFKEQ_clean_linker_1, # of connection points: 2
#     Edge 42, Type (0, 0), BuildingBlock: KIFKEQ_clean_linker_1, # of connection points: 2
#     Edge 43, Type (0, 0), BuildingBlock: KIFKEQ_clean_linker_1, # of connection points: 2
#     Edge 44, Type (0, 0), BuildingBlock: KIFKEQ_clean_linker_1, # of connection points: 2
#     Edge 45, Type (0, 0), BuildingBlock: KIFKEQ_clean_linker_1, # of connection points: 2
#     Edge 46, Type (0, 0), BuildingBlock: KIFKEQ_clean_linker_1, # of connection points: 2
#     Edge 47, Type (0, 0), BuildingBlock: KIFKEQ_clean_linker_1, # of connection points: 2
#     Edge 48, Type (0, 0), BuildingBlock: KIFKEQ_clean_linker_1, # of connection points: 2
#     Edge 49, Type (0, 0), BuildingBlock: KIFKEQ_clean_linker_1, # of connection points: 2
#     Edge 50, Type (0, 0), BuildingBlock: KIFKEQ_clean_linker_1, # of connection points: 2
#     Edge 51, Type (0, 0), BuildingBlock: KIFKEQ_clean_linker_1, # of connection points: 2
#     Edge 52, Type (0, 0), BuildingBlock: KIFKEQ_clean_linker_1, # of connection points: 2
#     Edge 53, Type (0, 0), BuildingBlock: KIFKEQ_clean_linker_1, # of connection points: 2
#     Edge 54, Type (0, 0), BuildingBlock: KIFKEQ_clean_linker_1, # of connection points: 2
#     Edge 55, Type (0, 0), BuildingBlock: KIFKEQ_clean_linker_1, # of connection points: 2
#     Edge 56, Type (0, 0), BuildingBlock: KIFKEQ_clean_linker_1, # of connection points: 2
#     Edge 57, Type (0, 0), BuildingBlock: KIFKEQ_clean_linker_1, # of connection points: 2
#     Edge 58, Type (0, 0), BuildingBlock: KIFKEQ_clean_linker_1, # of connection points: 2
#     Edge 59, Type (0, 0), BuildingBlock: KIFKEQ_clean_linker_1, # of connection points: 2
#     Edge 60, Type (0, 0), BuildingBlock: KIFKEQ_clean_linker_1, # of connection points: 2
#     Edge 61, Type (0, 0), BuildingBlock: KIFKEQ_clean_linker_1, # of connection points: 2
#     Edge 62, Type (0, 0), BuildingBlock: KIFKEQ_clean_linker_1, # of connection points: 2
#     Edge 63, Type (0, 0), BuildingBlock: KIFKEQ_clean_linker_1, # of connection points: 2
#     Edge 64, Type (0, 0), BuildingBlock: KIFKEQ_clean_linker_1, # of connection points: 2
#     Edge 65, Type (0, 0), BuildingBlock: KIFKEQ_clean_linker_1, # of connection points: 2
#     Edge 66, Type (0, 0), BuildingBlock: KIFKEQ_clean_linker_1, # of connection points: 2
#     Edge 67, Type (0, 0), BuildingBlock: KIFKEQ_clean_linker_1, # of connection points: 2
#     Edge 68, Type (0, 0), BuildingBlock: KIFKEQ_clean_linker_1, # of connection points: 2
#     Edge 69, Type (0, 0), BuildingBlock: KIFKEQ_clean_linker_1, # of connection points: 2
#     Edge 70, Type (0, 0), BuildingBlock: KIFKEQ_clean_linker_1, # of connection points: 2
#     Edge 71, Type (0, 0), BuildingBlock: KIFKEQ_clean_linker_1, # of connection points: 2
#     Edge 72, Type (0, 0), BuildingBlock: KIFKEQ_clean_linker_1, # of connection points: 2
#     Edge 73, Type (0, 0), BuildingBlock: KIFKEQ_clean_linker_1, # of connection points: 2
#     Edge 74, Type (0, 0), BuildingBlock: KIFKEQ_clean_linker_1, # of connection points: 2
#     Edge 75, Type (0, 0), BuildingBlock: KIFKEQ_clean_linker_1, # of connection points: 2
#     Edge 76, Type (0, 0), BuildingBlock: KIFKEQ_clean_linker_1, # of connection points: 2
#     Edge 77, Type (0, 0), BuildingBlock: KIFKEQ_clean_linker_1, # of connection points: 2
#     Edge 78, Type (0, 0), BuildingBlock: KIFKEQ_clean_linker_1, # of connection points: 2
#     Edge 79, Type (0, 0), BuildingBlock: KIFKEQ_clean_linker_1, # of connection points: 2
#     Edge 80, Type (0, 0), BuildingBlock: KIFKEQ_clean_linker_1, # of connection points: 2
#     Edge 81, Type (0, 0), BuildingBlock: KIFKEQ_clean_linker_1, # of connection points: 2
#     Edge 82, Type (0, 0), BuildingBlock: KIFKEQ_clean_linker_1, # of connection points: 2
#     Edge 83, Type (0, 0), BuildingBlock: KIFKEQ_clean_linker_1, # of connection points: 2
#     Edge 84, Type (0, 0), BuildingBlock: KIFKEQ_clean_linker_1, # of connection points: 2
#     Edge 85, Type (0, 0), BuildingBlock: KIFKEQ_clean_linker_1, # of connection points: 2
#     Edge 86, Type (0, 0), BuildingBlock: KIFKEQ_clean_linker_1, # of connection points: 2
#     Edge 87, Type (0, 0), BuildingBlock: KIFKEQ_clean_linker_1, # of connection points: 2
#     Edge 88, Type (0, 0), BuildingBlock: KIFKEQ_clean_linker_1, # of connection points: 2
#     Edge 89, Type (0, 0), BuildingBlock: KIFKEQ_clean_linker_1, # of connection points: 2
#     Edge 90, Type (0, 0), BuildingBlock: KIFKEQ_clean_linker_1, # of connection points: 2
#     Edge 91, Type (0, 0), BuildingBlock: KIFKEQ_clean_linker_1, # of connection points: 2
#     Edge 92, Type (0, 0), BuildingBlock: KIFKEQ_clean_linker_1, # of connection points: 2
#     Edge 93, Type (0, 0), BuildingBlock: KIFKEQ_clean_linker_1, # of connection points: 2
#     Edge 94, Type (0, 0), BuildingBlock: KIFKEQ_clean_linker_1, # of connection points: 2
#     Edge 95, Type (0, 0), BuildingBlock: KIFKEQ_clean_linker_1, # of connection points: 2
# Relax obj value: 0.044
# Max RMSD: 0.097
# Mean RMSD: 0.097
data_MOF--net-upd--node1-NAWXER_clean_sbu_0--edge1-KIFKEQ_clean_linker_1
_symmetry_space_group_name_H-M    P1
_symmetry_Int_Tables_number       1
_symmetry_cell_setting            triclinic
loop_
_symmetry_equiv_pos_as_xyz
'x, y, z'
_cell_length_a     40.683064
_cell_length_b     40.968098
_cell_length_c     77.53915
_cell_angle_alpha  90.283091
_cell_angle_beta   89.856593
_cell_angle_gamma 90.056203
loop_
_atom_site_label
_atom_site_type_symbol
_atom_site_fract_x
_atom_site_fract_y
_atom_site_fract_z
_atom_type_partial_charge
C0 C 0.14521 0.1191 0.28648 0.0
C1 C 0.13831 0.20607 0.33009 0.0
O2 O 0.12431 0.14219 0.28677 0.0
Zn3 Zn 0.13886 0.16236 0.30831 0.0
O4 O 0.16575 0.11624 0.29886 0.0
Zn5 Zn 0.17877 0.1399 0.32231 0.0
O6 O 0.1676 0.10775 0.33996 0.0
O7 O 0.12387 0.12786 0.32709 0.0
O8 O 0.16017 0.18433 0.33312 0.0
O9 O 0.11965 0.20287 0.31702 0.0
O10 O 0.18707 0.17883 0.30198 0.0
O11 O 0.22426 0.15221 0.3172 0.0
C12 C 0.1365 0.10871 0.33826 0.0
C13 C 0.21714 0.17371 0.306 0.0
C14 C 0.09627 0.92025 0.55106 0.0
C15 C 0.15335 0.8373 0.58408 0.0
O16 O 0.11659 0.93234 0.56199 0.0
Zn17 Zn 0.15177 0.91541 0.58047 0.0
O18 O 0.09375 0.88945 0.54939 0.0
Zn19 Zn 0.1253 0.87816 0.56672 0.0
O20 O 0.1018 0.8963 0.58947 0.0
O21 O 0.13362 0.93311 0.60202 0.0
O22 O 0.13259 0.83288 0.57208 0.0
O23 O 0.16225 0.86641 0.58807 0.0
O24 O 0.19327 0.93124 0.5706 0.0
O25 O 0.16985 0.89279 0.5549 0.0
C26 C 0.10699 0.91672 0.60173 0.0
C27 C 0.19339 0.91304 0.55724 0.0
C28 C 0.37112 0.78962 0.83111 0.0
C29 C 0.35688 0.88589 0.79587 0.0
O30 O 0.38965 0.799 0.81888 0.0
Zn31 Zn 0.36324 0.83623 0.81267 0.0
O32 O 0.34453 0.80499 0.83458 0.0
Zn33 Zn 0.31898 0.84759 0.82609 0.0
O34 O 0.27765 0.82991 0.81768 0.0
O35 O 0.32002 0.81498 0.80174 0.0
O36 O 0.33355 0.88288 0.80694 0.0
O37 O 0.37908 0.86421 0.79486 0.0
O38 O 0.36906 0.86437 0.83584 0.0
O39 O 0.3202 0.87154 0.84783 0.0
C40 C 0.28904 0.81433 0.80478 0.0
C41 C 0.35125 0.87525 0.84824 0.0
C42 C 0.42921 0.09485 0.08411 0.0
C43 C 0.34045 0.09681 0.04237 0.0
O44 O 0.43191 0.1187 0.07352 0.0
Zn45 Zn 0.40489 0.13843 0.05195 0.0
O46 O 0.40538 0.07494 0.08271 0.0
Zn47 Zn 0.38511 0.09584 0.06334 0.0
O48 O 0.42026 0.08763 0.04301 0.0
O49 O 0.43665 0.13552 0.03332 0.0
O50 O 0.34544 0.07666 0.05445 0.0
O51 O 0.36039 0.12075 0.04024 0.0
O52 O 0.39305 0.18117 0.06071 0.0
O53 O 0.37017 0.14098 0.07525 0.0
C54 C 0.43802 0.10455 0.03266 0.0
C55 C 0.37528 0.17162 0.07321 0.0
C56 C 0.16899 0.83711 0.16463 0.0
C57 C 0.15889 0.92808 0.20528 0.0
O58 O 0.14882 0.83144 0.17699 0.0
Zn59 Zn 0.13012 0.85565 0.19953 0.0
O60 O 0.18468 0.86396 0.16428 0.0
Zn61 Zn 0.16621 0.8821 0.18539 0.0
O62 O 0.186 0.85141 0.20533 0.0
O63 O 0.14414 0.82709 0.21799 0.0
O64 O 0.17879 0.92559 0.19267 0.0
O65 O 0.1402 0.90391 0.20908 0.0
O66 O 0.08364 0.85928 0.19384 0.0
O67 O 0.11606 0.88965 0.17765 0.0
C68 C 0.17497 0.83167 0.21678 0.0
C69 C 0.08713 0.87982 0.1817 0.0
C70 C 0.37074 0.91235 0.466 0.0
C71 C 0.46301 0.91744 0.42499 0.0
O72 O 0.39297 0.89072 0.46834 0.0
Zn73 Zn 0.43857 0.87547 0.45757 0.0
O74 O 0.37335 0.93208 0.45343 0.0
Zn75 Zn 0.41485 0.91499 0.44429 0.0
O76 O 0.40207 0.86722 0.43505 0.0
O77 O 0.42993 0.83106 0.45011 0.0
O78 O 0.43696 0.93463 0.42439 0.0
O79 O 0.46558 0.8952 0.43646 0.0
O80 O 0.4683 0.88459 0.47664 0.0
O81 O 0.44781 0.9287 0.46442 0.0
C82 C 0.40946 0.83741 0.43822 0.0
C83 C 0.46649 0.91556 0.4757 0.0
C84 C 0.34479 0.17232 0.72046 0.0
C85 C 0.43642 0.12139 0.6894 0.0
O86 O 0.33502 0.14992 0.71003 0.0
Zn87 Zn 0.35715 0.11682 0.69157 0.0
O88 O 0.37527 0.17874 0.72145 0.0
Zn89 Zn 0.39078 0.14639 0.70514 0.0
O90 O 0.37485 0.16518 0.68069 0.0
O91 O 0.3384 0.13074 0.66996 0.0
O92 O 0.43752 0.143 0.70121 0.0
O93 O 0.40846 0.10967 0.68481 0.0
O94 O 0.34464 0.07468 0.69997 0.0
O95 O 0.37882 0.10066 0.71735 0.0
C96 C 0.35501 0.15686 0.66861 0.0
C97 C 0.36102 0.0756 0.71388 0.0
C98 C 0.11125 0.15904 0.93917 0.0
C99 C 0.04433 0.07687 0.96922 0.0
O100 O 0.11795 0.1294 0.93508 0.0
Zn101 Zn 0.10227 0.08053 0.94118 0.0
O102 O 0.08911 0.16489 0.95043 0.0
Zn103 Zn 0.07767 0.1194 0.95471 0.0
O104 O 0.12159 0.10245 0.96648 0.0
O105 O 0.14225 0.06216 0.9509 0.0
O106 O 0.0433 0.10769 0.97114 0.0
O107 O 0.06489 0.06444 0.95851 0.0
O108 O 0.08598 0.0662 0.91871 0.0
O109 O 0.05805 0.10733 0.93 0.0
C110 C 0.14403 0.08103 0.96395 0.0
C111 C 0.06335 0.08749 0.91748 0.0
C112 C 0.91846 0.8908 0.68289 0.0
C113 C 0.82729 0.83642 0.71233 0.0
O114 O 0.91984 0.86898 0.69444 0.0
Zn115 Zn 0.87292 0.8639 0.69808 0.0
O116 O 0.89031 0.90158 0.67817 0.0
Zn117 Zn 0.83937 0.89311 0.68418 0.0
O118 O 0.82487 0.93442 0.69339 0.0
O119 O 0.85832 0.90818 0.71086 0.0
O120 O 0.81736 0.85847 0.70185 0.0
O121 O 0.85793 0.83128 0.71401 0.0
O122 O 0.85625 0.84377 0.67403 0.0
O123 O 0.82235 0.87907 0.66207 0.0
C124 C 0.83987 0.93279 0.70771 0.0
C125 C 0.83722 0.85182 0.66159 0.0
C126 C 0.91707 0.14103 0.43215 0.0
C127 C 0.96535 0.06904 0.47493 0.0
O128 O 0.93371 0.14943 0.44529 0.0
Zn129 Zn 0.94032 0.10615 0.45467 0.0
O130 O 0.90923 0.11102 0.42996 0.0
Zn131 Zn 0.91668 0.06535 0.44224 0.0
O132 O 0.87294 0.05247 0.45048 0.0
O133 O 0.89422 0.09297 0.4656 0.0
O134 O 0.94685 0.05424 0.46404 0.0
O135 O 0.96915 0.09985 0.47408 0.0
O136 O 0.9683 0.08248 0.43497 0.0
O137 O 0.93977 0.04165 0.42381 0.0
C138 C 0.87107 0.07228 0.46314 0.0
C139 C 0.96601 0.05867 0.42427 0.0
C140 C 0.66532 0.1752 0.17394 0.0
C141 C 0.65008 0.08371 0.21282 0.0
O142 O 0.68279 0.14958 0.17498 0.0
Zn143 Zn 0.65882 0.13019 0.19376 0.0
O144 O 0.64089 0.1793 0.18424 0.0
Zn145 Zn 0.61686 0.15286 0.20476 0.0
O146 O 0.62096 0.18189 0.22424 0.0
O147 O 0.66872 0.16313 0.21498 0.0
O148 O 0.62855 0.1061 0.21524 0.0
O149 O 0.67252 0.08778 0.20163 0.0
O150 O 0.61311 0.11966 0.18122 0.0
O151 O 0.57361 0.14553 0.19521 0.0
C152 C 0.65208 0.18119 0.2254 0.0
C153 C 0.58264 0.12693 0.18291 0.0
C154 C 0.57139 0.96432 0.95348 0.0
C155 C 0.62816 0.87735 0.92169 0.0
O156 O 0.56507 0.93543 0.95872 0.0
Zn157 Zn 0.57871 0.88632 0.95388 0.0
O158 O 0.59255 0.96876 0.94161 0.0
Zn159 Zn 0.60192 0.9223 0.9376 0.0
O160 O 0.55545 0.90443 0.92889 0.0
O161 O 0.53569 0.86861 0.94745 0.0
O162 O 0.63015 0.90786 0.91883 0.0
O163 O 0.61037 0.86692 0.93419 0.0
O164 O 0.6006 0.87413 0.9753 0.0
O165 O 0.6292 0.90941 0.95995 0.0
C166 C 0.53267 0.88469 0.93352 0.0
C167 C 0.62636 0.89136 0.97332 0.0
C168 C 0.82859 0.18572 0.84674 0.0
C169 C 0.82961 0.108 0.79883 0.0
O170 O 0.81204 0.15948 0.84551 0.0
Zn171 Zn 0.82833 0.14638 0.8229 0.0
O172 O 0.84795 0.19404 0.83447 0.0
Zn173 Zn 0.86407 0.1755 0.81008 0.0
O174 O 0.85104 0.20956 0.7945 0.0
O175 O 0.80889 0.1826 0.80543 0.0
O176 O 0.84904 0.13226 0.79651 0.0
O177 O 0.81296 0.10608 0.81269 0.0
O178 O 0.8784 0.13466 0.82871 0.0
O179 O 0.91046 0.16811 0.81413 0.0
C180 C 0.82019 0.20491 0.79543 0.0
C181 C 0.90726 0.14465 0.82468 0.0
C182 C 0.6116 0.08827 0.60057 0.0
C183 C 0.69218 0.08128 0.55333 0.0
O184 O 0.63627 0.0692 0.59988 0.0
Zn185 Zn 0.65243 0.08371 0.57737 0.0
O186 O 0.60537 0.10698 0.5878 0.0
Zn187 Zn 0.62506 0.11847 0.56291 0.0
O188 O 0.59048 0.10405 0.54772 0.0
O189 O 0.61636 0.06332 0.56033 0.0
O190 O 0.66831 0.10075 0.5502 0.0
O191 O 0.69341 0.06688 0.56781 0.0
O192 O 0.66352 0.1341 0.58272 0.0
O193 O 0.63331 0.16469 0.56561 0.0
C194 C 0.59434 0.07354 0.54987 0.0
C195 C 0.65447 0.16243 0.57759 0.0
C196 C 0.64822 0.88631 0.28893 0.0
C197 C 0.63499 0.80138 0.33234 0.0
O198 O 0.66855 0.88825 0.30147 0.0
Zn199 Zn 0.68241 0.86197 0.32375 0.0
O200 O 0.62876 0.86205 0.28785 0.0
Zn201 Zn 0.6421 0.84098 0.30918 0.0
O202 O 0.62883 0.87662 0.3282 0.0
O203 O 0.67311 0.89418 0.34188 0.0
O204 O 0.61899 0.80309 0.31827 0.0
O205 O 0.65873 0.82119 0.33523 0.0
O206 O 0.72698 0.8462 0.31826 0.0
O207 O 0.68871 0.82125 0.30304 0.0
C208 C 0.642 0.8947 0.33981 0.0
C209 C 0.71898 0.82484 0.30706 0.0
C210 C 0.91492 0.92 0.04396 0.0
C211 C 0.87103 0.83456 0.08169 0.0
O212 O 0.92063 0.8895 0.04326 0.0
Zn213 Zn 0.89194 0.8761 0.06183 0.0
O214 O 0.89447 0.93105 0.0552 0.0
Zn215 Zn 0.86395 0.91193 0.07563 0.0
O216 O 0.88204 0.93265 0.09628 0.0
O217 O 0.91573 0.89751 0.0837 0.0
O218 O 0.85989 0.86315 0.085 0.0
O219 O 0.89018 0.83045 0.06886 0.0
O220 O 0.84386 0.88453 0.05179 0.0
O221 O 0.81928 0.92129 0.06818 0.0
C222 C 0.90963 0.91802 0.09582 0.0
C223 C 0.81853 0.90195 0.05531 0.0
C224 C 0.66607 0.61132 0.79422 0.0
C225 C 0.67185 0.69805 0.83786 0.0
O226 O 0.64428 0.63363 0.79252 0.0
Zn227 Zn 0.62949 0.67831 0.80445 0.0
O228 O 0.68701 0.61347 0.80635 0.0
Zn229 Zn 0.67021 0.65377 0.81652 0.0
O230 O 0.62282 0.6392 0.82531 0.0
O231 O 0.58474 0.66787 0.81202 0.0
O232 O 0.68937 0.67236 0.83737 0.0
O233 O 0.64951 0.70264 0.82652 0.0
O234 O 0.63824 0.70981 0.78617 0.0
O235 O 0.68324 0.68891 0.79752 0.0
C236 C 0.59246 0.64587 0.82281 0.0
C237 C 0.66948 0.70844 0.7869 0.0
C238 C 0.58199 0.41706 0.04773 0.0
C239 C 0.64572 0.34126 0.08227 0.0
O240 O 0.60087 0.43157 0.05858 0.0
Zn241 Zn 0.63693 0.41853 0.07771 0.0
O242 O 0.58199 0.38607 0.04673 0.0
Zn243 Zn 0.61437 0.37899 0.0643 0.0
O244 O 0.58904 0.39572 0.08705 0.0
O245 O 0.61771 0.43599 0.09871 0.0
O246 O 0.62612 0.33466 0.07001 0.0
O247 O 0.65163 0.37116 0.08611 0.0
O248 O 0.67706 0.43762 0.06865 0.0
O249 O 0.65717 0.39836 0.05213 0.0
C250 C 0.59277 0.41724 0.09897 0.0
C251 C 0.67867 0.42062 0.05492 0.0
C252 C 0.85581 0.30051 0.33927 0.0
C253 C 0.84721 0.39459 0.30129 0.0
O254 O 0.87532 0.30794 0.32703 0.0
Zn255 Zn 0.85065 0.34536 0.31915 0.0
O256 O 0.82923 0.31681 0.34146 0.0
Zn257 Zn 0.8051 0.35884 0.33077 0.0
O258 O 0.76461 0.34123 0.32103 0.0
O259 O 0.80889 0.32269 0.30784 0.0
O260 O 0.82288 0.39273 0.31181 0.0
O261 O 0.86857 0.37202 0.30099 0.0
O262 O 0.85386 0.37546 0.34189 0.0
O263 O 0.8036 0.38468 0.35182 0.0
C264 C 0.77759 0.32301 0.3096 0.0
C265 C 0.8346 0.38789 0.35326 0.0
C266 C 0.91831 0.61593 0.58397 0.0
C267 C 0.83402 0.61014 0.5393 0.0
O268 O 0.92236 0.63794 0.57239 0.0
Zn269 Zn 0.89728 0.65377 0.54905 0.0
O270 O 0.89418 0.59635 0.58278 0.0
Zn271 Zn 0.87608 0.61379 0.56183 0.0
O272 O 0.91373 0.60222 0.54296 0.0
O273 O 0.93096 0.64873 0.53183 0.0
O274 O 0.83707 0.59321 0.55286 0.0
O275 O 0.85463 0.63321 0.53633 0.0
O276 O 0.88432 0.69776 0.55477 0.0
O277 O 0.85933 0.66072 0.57059 0.0
C278 C 0.9326 0.61781 0.53253 0.0
C279 C 0.86454 0.69075 0.56688 0.0
C280 C 0.66531 0.32922 0.71765 0.0
C281 C 0.57869 0.37776 0.68266 0.0
O282 O 0.6769 0.34919 0.70644 0.0
Zn283 Zn 0.65739 0.38195 0.68702 0.0
O284 O 0.63442 0.32516 0.71879 0.0
Zn285 Zn 0.62214 0.35477 0.70075 0.0
O286 O 0.64233 0.3313 0.6781 0.0
O287 O 0.67744 0.36556 0.66609 0.0
O288 O 0.57618 0.35786 0.69509 0.0
O289 O 0.60716 0.38891 0.67856 0.0
O290 O 0.67132 0.42419 0.69543 0.0
O291 O 0.63407 0.40118 0.7121 0.0
C292 C 0.66285 0.33812 0.66604 0.0
C293 C 0.65356 0.42504 0.70891 0.0
C294 C 0.85478 0.42314 0.96475 0.0
C295 C 0.93191 0.4083 0.91689 0.0
O296 O 0.87658 0.40122 0.96757 0.0
Zn297 Zn 0.91796 0.37967 0.95471 0.0
O298 O 0.85486 0.4385 0.95053 0.0
Zn299 Zn 0.89359 0.41777 0.94088 0.0
O300 O 0.87596 0.36926 0.93604 0.0
O301 O 0.90419 0.33441 0.95178 0.0
O302 O 0.90992 0.43024 0.91814 0.0
O303 O 0.93699 0.38906 0.92957 0.0
O304 O 0.95412 0.39097 0.97001 0.0
O305 O 0.93112 0.43409 0.95815 0.0
C306 C 0.88183 0.33986 0.9407 0.0
C307 C 0.95224 0.42181 0.9685 0.0
C308 C 0.86555 0.68652 0.23077 0.0
C309 C 0.94135 0.62495 0.19369 0.0
O310 O 0.85067 0.66731 0.22022 0.0
Zn311 Zn 0.86367 0.63171 0.20066 0.0
O312 O 0.89679 0.68697 0.231 0.0
Zn313 Zn 0.90389 0.65477 0.21296 0.0
O314 O 0.88507 0.67899 0.19023 0.0
O315 O 0.84413 0.64916 0.18006 0.0
O316 O 0.94872 0.64478 0.20575 0.0
O317 O 0.91106 0.61826 0.19088 0.0
O318 O 0.8467 0.59104 0.20926 0.0
O319 O 0.88764 0.61015 0.22495 0.0
C320 C 0.86271 0.674 0.17885 0.0
C321 C 0.86573 0.58823 0.22212 0.0
C322 C 0.64606 0.57348 0.4565 0.0
C323 C 0.56196 0.55683 0.41208 0.0
O324 O 0.62036 0.59094 0.45898 0.0
Zn325 Zn 0.57393 0.59875 0.44693 0.0
O326 O 0.64709 0.55409 0.44368 0.0
Zn327 Zn 0.60355 0.56287 0.43439 0.0
O328 O 0.60776 0.61122 0.42452 0.0
O329 O 0.57581 0.64407 0.4397 0.0
O330 O 0.58941 0.54204 0.41304 0.0
O331 O 0.55351 0.5771 0.42394 0.0
O332 O 0.54301 0.58622 0.46447 0.0
O333 O 0.5693 0.54403 0.45321 0.0
C334 C 0.59556 0.6396 0.42716 0.0
C335 C 0.5478 0.5556 0.46374 0.0
C336 C 0.42661 0.37672 0.19084 0.0
C337 C 0.35641 0.30835 0.22657 0.0
O338 O 0.43489 0.35701 0.20264 0.0
Zn339 Zn 0.39129 0.34346 0.20914 0.0
O340 O 0.39599 0.3814 0.18775 0.0
Zn341 Zn 0.34943 0.36351 0.19726 0.0
O342 O 0.32811 0.40152 0.20687 0.0
O343 O 0.37152 0.38622 0.22172 0.0
O344 O 0.33979 0.32645 0.21631 0.0
O345 O 0.38755 0.31043 0.22667 0.0
O346 O 0.37447 0.31844 0.18604 0.0
O347 O 0.331 0.34507 0.17655 0.0
C348 C 0.34725 0.40578 0.21958 0.0
C349 C 0.35147 0.32187 0.17486 0.0
C350 C 0.44239 0.56808 0.91464 0.0
C351 C 0.3602 0.57607 0.96069 0.0
O352 O 0.4153 0.5526 0.91539 0.0
Zn353 Zn 0.40105 0.57075 0.93752 0.0
O354 O 0.4506 0.58729 0.92697 0.0
Zn355 Zn 0.43075 0.60562 0.95062 0.0
O356 O 0.46295 0.59249 0.96694 0.0
O357 O 0.43535 0.55086 0.95594 0.0
O358 O 0.3854 0.59422 0.96334 0.0
O359 O 0.35862 0.55893 0.94701 0.0
O360 O 0.39433 0.62033 0.92985 0.0
O361 O 0.42787 0.65135 0.94518 0.0
C362 C 0.45743 0.562 0.96623 0.0
C363 C 0.40647 0.64844 0.93337 0.0
C364 C 0.1483 0.5783 0.71444 0.0
C365 C 0.16235 0.66688 0.67381 0.0
O366 O 0.16734 0.5802 0.70152 0.0
Zn367 Zn 0.15395 0.62233 0.69347 0.0
O368 O 0.12741 0.60116 0.71728 0.0
Zn369 Zn 0.11423 0.64659 0.70526 0.0
O370 O 0.07008 0.64031 0.6964 0.0
O371 O 0.10748 0.6146 0.68096 0.0
O372 O 0.13846 0.6721 0.68434 0.0
O373 O 0.17858 0.64045 0.67465 0.0
O374 O 0.16649 0.65529 0.71455 0.0
O375 O 0.12015 0.67734 0.72385 0.0
C376 C 0.07748 0.62313 0.68329 0.0
C377 C 0.15122 0.67476 0.72486 0.0
C378 C 0.11903 0.3933 0.47005 0.0
C379 C 0.01822 0.39623 0.43519 0.0
O380 O 0.12063 0.4129 0.45723 0.0
Zn381 Zn 0.09005 0.42982 0.43683 0.0
O382 O 0.09279 0.3771 0.47263 0.0
Zn383 Zn 0.06758 0.39305 0.45304 0.0
O384 O 0.09299 0.37484 0.4309 0.0
O385 O 0.11311 0.41616 0.41597 0.0
O386 O 0.02259 0.37836 0.4484 0.0
O387 O 0.04123 0.4153 0.43011 0.0
O388 O 0.08334 0.47611 0.44264 0.0
O389 O 0.05745 0.44188 0.45993 0.0
C390 C 0.10864 0.38558 0.41773 0.0
C391 C 0.06396 0.47107 0.45527 0.0
C392 C 0.3443 0.68489 0.34313 0.0
C393 C 0.3318 0.60303 0.29718 0.0
O394 O 0.32159 0.66353 0.34229 0.0
Zn395 Zn 0.33392 0.64537 0.31974 0.0
O396 O 0.36407 0.68842 0.33039 0.0
Zn397 Zn 0.37407 0.66742 0.30577 0.0
O398 O 0.36313 0.70146 0.28909 0.0
O399 O 0.3191 0.68235 0.30219 0.0
O400 O 0.35427 0.62432 0.29445 0.0
O401 O 0.31312 0.60606 0.3103 0.0
O402 O 0.38221 0.62694 0.32528 0.0
O403 O 0.41935 0.65324 0.30979 0.0
C404 C 0.33212 0.70178 0.29122 0.0
C405 C 0.41229 0.63151 0.32092 0.0
C406 C 0.09713 0.58437 0.09599 0.0
C407 C 0.18035 0.58421 0.05031 0.0
O408 O 0.12335 0.5675 0.09544 0.0
Zn409 Zn 0.13913 0.58374 0.07344 0.0
O410 O 0.09038 0.60376 0.08355 0.0
Zn411 Zn 0.11218 0.61956 0.05968 0.0
O412 O 0.07985 0.60689 0.04283 0.0
O413 O 0.10362 0.5647 0.05526 0.0
O414 O 0.15657 0.60388 0.04737 0.0
O415 O 0.18063 0.56798 0.06424 0.0
O416 O 0.14996 0.63334 0.0803 0.0
O417 O 0.11973 0.66567 0.06419 0.0
C418 C 0.08295 0.57616 0.04436 0.0
C419 C 0.14093 0.66217 0.07605 0.0
C420 C 0.16757 0.3129 0.8453 0.0
C421 C 0.16606 0.39341 0.79902 0.0
O422 O 0.1836 0.33954 0.84474 0.0
Zn423 Zn 0.16838 0.35314 0.82214 0.0
O424 O 0.14921 0.30464 0.83259 0.0
Zn425 Zn 0.13385 0.32406 0.80831 0.0
O426 O 0.14878 0.29175 0.79191 0.0
O427 O 0.18974 0.31773 0.80459 0.0
O428 O 0.14752 0.36872 0.79603 0.0
O429 O 0.18273 0.39462 0.81286 0.0
O430 O 0.11776 0.36303 0.82777 0.0
O431 O 0.087 0.32971 0.81226 0.0
C432 C 0.1795 0.29612 0.7938 0.0
C433 C 0.0893 0.35255 0.82336 0.0
C434 C 0.40695 0.39371 0.59051 0.0
C435 C 0.31759 0.38815 0.5482 0.0
O436 O 0.38124 0.41133 0.5902 0.0
Zn437 Zn 0.36284 0.39288 0.56902 0.0
O438 O 0.41241 0.37349 0.57817 0.0
Zn439 Zn 0.38933 0.35767 0.55465 0.0
O440 O 0.42005 0.37093 0.53722 0.0
O441 O 0.39491 0.41273 0.54945 0.0
O442 O 0.34196 0.36972 0.54421 0.0
O443 O 0.31919 0.40582 0.56169 0.0
O444 O 0.3553 0.34249 0.57649 0.0
O445 O 0.38539 0.31181 0.55907 0.0
C446 C 0.4156 0.40151 0.53839 0.0
C447 C 0.36561 0.31422 0.57172 0.0
H448 H 0.11715 0.39604 0.38298 0.0
H449 H 0.12124 0.32131 0.42201 0.0
H450 H 0.12586 0.35426 0.36056 0.0
H451 H 0.12978 0.28005 0.39986 0.0
H452 H 0.17525 0.21799 0.35858 0.0
H453 H 0.17187 0.26363 0.3785 0.0
H454 H 0.09316 0.30521 0.34855 0.0
H455 H 0.09669 0.25918 0.32821 0.0
C456 C 0.12053 0.37086 0.38677 0.0
C457 C 0.11863 0.36193 0.40424 0.0
C458 C 0.12511 0.34695 0.37396 0.0
C459 C 0.12841 0.31389 0.37846 0.0
C460 C 0.12762 0.30532 0.39597 0.0
C461 C 0.12267 0.32898 0.40867 0.0
C462 C 0.15719 0.23679 0.35611 0.0
C463 C 0.13595 0.23466 0.34185 0.0
C464 C 0.1553 0.263 0.36759 0.0
C465 C 0.13215 0.2879 0.36516 0.0
C466 C 0.11142 0.28644 0.35067 0.0
C467 C 0.11325 0.25998 0.33912 0.0
H468 H 0.04167 0.91226 0.59679 0.0
H469 H 0.11391 0.92921 0.63653 0.0
H470 H 0.99826 0.91191 0.61833 0.0
H471 H 0.06989 0.9285 0.65844 0.0
H472 H 0.98223 0.87026 0.68749 0.0
H473 H 0.0299 0.88316 0.6694 0.0
H474 H 0.97042 0.94926 0.63963 0.0
H475 H 0.92294 0.93648 0.65752 0.0
C476 C 0.0482 0.91632 0.61017 0.0
C477 C 0.08115 0.92074 0.615 0.0
C478 C 0.02327 0.9163 0.62252 0.0
C479 C 0.03063 0.92025 0.64008 0.0
C480 C 0.06356 0.92536 0.64498 0.0
C481 C 0.08865 0.926 0.63248 0.0
C482 C 0.97948 0.888 0.67729 0.0
C483 C 0.9486 0.90194 0.6738 0.0
C484 C 0.00685 0.89552 0.667 0.0
C485 C 1.00378 0.91697 0.653 0.0
C486 C 0.97342 0.93234 0.6502 0.0
C487 C 0.9462 0.92498 0.66048 0.0
H488 H 0.45002 0.69407 0.92231 0.0
H489 H 0.34997 0.66105 0.91616 0.0
H490 H 0.44496 0.72716 0.89647 0.0
H491 H 0.34398 0.69561 0.89092 0.0
H492 H 0.35113 0.72719 0.83622 0.0
H493 H 0.36063 0.69492 0.86215 0.0
H494 H 0.4226 0.77199 0.88242 0.0
H495 H 0.41464 0.80276 0.85596 0.0
C496 C 0.4265 0.69499 0.9158 0.0
C497 C 0.40036 0.67509 0.92118 0.0
C498 C 0.42362 0.7138 0.9009 0.0
C499 C 0.39429 0.71349 0.89129 0.0
C500 C 0.36733 0.69553 0.89758 0.0
C501 C 0.37048 0.67622 0.91224 0.0
C502 C 0.36779 0.73637 0.84599 0.0
C503 C 0.38296 0.76676 0.84404 0.0
C504 C 0.3727 0.71838 0.86102 0.0
C505 C 0.39192 0.73109 0.8746 0.0
C506 C 0.40801 0.76115 0.87223 0.0
C507 C 0.40367 0.77872 0.85704 0.0
H508 H 0.41875 0.06766 0.1158 0.0
H509 H 0.49175 0.11774 0.08518 0.0
H510 H 0.45536 0.07041 0.14087 0.0
H511 H 0.52826 0.12 0.11004 0.0
H512 H 0.59646 0.09345 0.15338 0.0
H513 H 0.55917 0.07999 0.12992 0.0
H514 H 0.47812 0.12074 0.15883 0.0
H515 H 0.51554 0.13461 0.18248 0.0
C516 C 0.44283 0.07864 0.11435 0.0
C517 C 0.45249 0.0925 0.09858 0.0
C518 C 0.46358 0.08041 0.12869 0.0
C519 C 0.49452 0.09541 0.12734 0.0
C520 C 0.50462 0.10807 0.11138 0.0
C521 C 0.4837 0.10686 0.09718 0.0
C522 C 0.57063 0.09922 0.15491 0.0
C523 C 0.55901 0.11545 0.16974 0.0
C524 C 0.54935 0.09151 0.14144 0.0
C525 C 0.51592 0.09951 0.14257 0.0
C526 C 0.50383 0.11416 0.15773 0.0
C527 C 0.52525 0.12224 0.17119 0.0
H528 H 0.18493 0.8472 0.13061 0.0
H529 H 0.15952 0.77189 0.16708 0.0
H530 H 0.18365 0.8066 0.10713 0.0
H531 H 0.15871 0.73167 0.14388 0.0
H532 H 0.18543 0.66151 0.10224 0.0
H533 H 0.19821 0.7054 0.12237 0.0
H534 H 0.13617 0.77092 0.0937 0.0
H535 H 0.12307 0.72679 0.07339 0.0
C536 C 0.1797 0.82193 0.13363 0.0
C537 C 0.17231 0.81266 0.15065 0.0
C538 C 0.17874 0.79882 0.12022 0.0
C539 C 0.17116 0.76601 0.12371 0.0
C540 C 0.16498 0.7567 0.14082 0.0
C541 C 0.1653 0.77976 0.1541 0.0
C542 C 0.17486 0.68536 0.09999 0.0
C543 C 0.15281 0.69047 0.08631 0.0
C544 C 0.1822 0.71049 0.11156 0.0
C545 C 0.16791 0.74142 0.1097 0.0
C546 C 0.14764 0.74731 0.09539 0.0
C547 C 0.14006 0.722 0.08381 0.0
H548 H 0.46648 0.9575 0.39646 0.0
H549 H 0.52343 0.88949 0.42654 0.0
H550 H 0.51273 0.96309 0.37633 0.0
H551 H 0.56877 0.89456 0.40653 0.0
H552 H 0.65356 0.9135 0.37333 0.0
H553 H 0.61174 0.92836 0.39472 0.0
H554 H 0.5378 0.92802 0.35481 0.0
H555 H 0.57947 0.91414 0.33357 0.0
C556 C 0.48883 0.94395 0.39884 0.0
C557 C 0.49102 0.92277 0.413 0.0
C558 C 0.51534 0.94713 0.38733 0.0
C559 C 0.54461 0.92937 0.38982 0.0
C560 C 0.54699 0.90912 0.40432 0.0
C561 C 0.52065 0.90587 0.41571 0.0
C562 C 0.6286 0.91778 0.36908 0.0
C563 C 0.61972 0.91216 0.35184 0.0
C564 C 0.60453 0.92594 0.38134 0.0
C565 C 0.57122 0.9287 0.37656 0.0
C566 C 0.56309 0.92618 0.35901 0.0
C567 C 0.58704 0.918 0.34682 0.0
H568 H 0.3038 0.16278 0.64584 0.0
H569 H 0.40299 0.19555 0.65573 0.0
H570 H 0.3022 0.19687 0.61979 0.0
H571 H 0.40159 0.22855 0.62967 0.0
H572 H 0.39963 0.25703 0.57348 0.0
H573 H 0.39398 0.21486 0.59547 0.0
H574 H 0.30909 0.26429 0.61636 0.0
H575 H 0.31498 0.30699 0.59459 0.0
C576 C 0.32524 0.17704 0.64238 0.0
C577 C 0.35343 0.17675 0.65283 0.0
C578 C 0.32431 0.19642 0.62754 0.0
C579 C 0.35189 0.21494 0.62274 0.0
C580 C 0.38017 0.21415 0.63303 0.0
C581 C 0.38083 0.19551 0.648 0.0
C582 C 0.37924 0.2585 0.58246 0.0
C583 C 0.35794 0.28548 0.58243 0.0
C584 C 0.37611 0.23443 0.59505 0.0
C585 C 0.35123 0.23658 0.60758 0.0
C586 C 0.32835 0.26211 0.60675 0.0
C587 C 0.33184 0.28654 0.59435 0.0
H588 H 0.04765 0.04242 0.89218 0.0
H589 H 0.0383 0.14424 0.90607 0.0
H590 H 0.01485 0.05239 0.86604 0.0
H591 H 0.00649 0.1541 0.88022 0.0
H592 H 0.96897 0.17077 0.82768 0.0
H593 H 0.01222 0.15321 0.8474 0.0
H594 H 0.95354 0.07001 0.8621 0.0
H595 H 0.91028 0.08747 0.84247 0.0
C596 C 0.0389 0.06685 0.88957 0.0
C597 C 0.04511 0.09244 0.90125 0.0
C598 C 0.02024 0.07256 0.87466 0.0
C599 C 0.00841 0.10409 0.87105 0.0
C600 C 0.01567 0.12968 0.8825 0.0
C601 C 0.03356 0.1239 0.89744 0.0
C602 C 0.96565 0.14829 0.83477 0.0
C603 C 0.936 0.13081 0.83373 0.0
C604 C 0.99036 0.13829 0.84608 0.0
C605 C 0.98604 0.11043 0.85638 0.0
C606 C 0.95759 0.09147 0.85426 0.0
C607 C 0.93273 0.10165 0.84311 0.0
H608 H 0.82231 0.6834 0.59396 0.0
H609 H 0.87579 0.75672 0.56539 0.0
H610 H 0.80823 0.72398 0.61579 0.0
H611 H 0.86174 0.7973 0.5874 0.0
H612 H 0.8176 0.86593 0.62858 0.0
H613 H 0.81649 0.8284 0.60377 0.0
H614 H 0.84748 0.74963 0.63676 0.0
H615 H 0.84875 0.78673 0.66128 0.0
C616 C 0.83053 0.7083 0.59214 0.0
C617 C 0.85068 0.71669 0.57808 0.0
C618 C 0.8225 0.73151 0.60468 0.0
C619 C 0.83431 0.76363 0.6034 0.0
C620 C 0.85222 0.77272 0.58867 0.0
C621 C 0.86038 0.74943 0.57612 0.0
C622 C 0.82372 0.84049 0.63051 0.0
C623 C 0.83344 0.82926 0.64682 0.0
C624 C 0.8232 0.81911 0.61634 0.0
C625 C 0.83175 0.78611 0.61838 0.0
C626 C 0.84031 0.77481 0.63483 0.0
C627 C 0.84131 0.79615 0.64885 0.0
H628 H 0.15131 0.07579 0.36814 0.0
H629 H 0.07084 0.09911 0.33412 0.0
H630 H 0.11225 0.05233 0.38873 0.0
H631 H 0.03211 0.07659 0.35466 0.0
H632 H 0.96505 0.02966 0.39213 0.0
H633 H 0.00917 0.03118 0.37052 0.0
H634 H 0.07292 0.07826 0.40758 0.0
H635 H 0.02952 0.07613 0.42898 0.0
C636 C 0.12542 0.07541 0.36492 0.0
C637 C 0.11418 0.08982 0.34963 0.0
C638 C 0.10301 0.0621 0.37673 0.0
C639 C 0.06894 0.06284 0.37345 0.0
C640 C 0.05808 0.07524 0.3576 0.0
C641 C 0.08038 0.08855 0.34587 0.0
C642 C 0.98881 0.03946 0.39573 0.0
C643 C 0.99367 0.05321 0.41215 0.0
C644 C 0.01402 0.04056 0.38334 0.0
C645 C 0.04454 0.05519 0.38723 0.0
C646 C 0.04997 0.06657 0.4041 0.0
C647 C 0.02488 0.06563 0.41636 0.0
H648 H 0.68417 0.34848 0.11077 0.0
H649 H 0.63606 0.27508 0.07947 0.0
H650 H 0.6966 0.30742 0.13236 0.0
H651 H 0.64883 0.23393 0.1012 0.0
H652 H 0.69312 0.16532 0.14216 0.0
H653 H 0.69601 0.20459 0.11837 0.0
H654 H 0.65362 0.27864 0.15138 0.0
H655 H 0.65025 0.23959 0.1749 0.0
C656 C 0.67684 0.32347 0.10829 0.0
C657 C 0.65863 0.31516 0.09351 0.0
C658 C 0.68397 0.30001 0.12069 0.0
C659 C 0.67336 0.26767 0.11851 0.0
C660 C 0.6574 0.25872 0.10314 0.0
C661 C 0.64998 0.2823 0.09075 0.0
C662 C 0.685 0.19017 0.14436 0.0
C663 C 0.67138 0.19947 0.16033 0.0
C664 C 0.68649 0.21249 0.13076 0.0
C665 C 0.6751 0.24458 0.13308 0.0
C666 C 0.6629 0.25415 0.14929 0.0
C667 C 0.66081 0.23177 0.16272 0.0
H668 H 0.46888 0.87054 0.94308 0.0
H669 H 0.52971 0.89385 0.89915 0.0
H670 H 0.4198 0.87363 0.92478 0.0
H671 H 0.48163 0.89559 0.88089 0.0
H672 H 0.39548 0.92416 0.85202 0.0
H673 H 0.43643 0.92855 0.87481 0.0
H674 H 0.39 0.84849 0.90169 0.0
H675 H 0.34787 0.84586 0.87933 0.0
C676 C 0.47177 0.87577 0.92948 0.0
C677 C 0.50306 0.88218 0.92256 0.0
C678 C 0.4437 0.87766 0.91899 0.0
C679 C 0.44653 0.8857 0.90138 0.0
C680 C 0.47814 0.89064 0.89447 0.0
C681 C 0.50588 0.8892 0.90492 0.0
C682 C 0.39326 0.90862 0.86323 0.0
C683 C 0.36835 0.88508 0.86411 0.0
C684 C 0.41707 0.91058 0.87614 0.0
C685 C 0.41722 0.88817 0.88989 0.0
C686 C 0.39072 0.86623 0.89139 0.0
C687 C 0.36639 0.86485 0.87864 0.0
H688 H 0.82702 0.34414 0.9209 0.0
H689 H 0.8991 0.27493 0.93897 0.0
H690 H 0.80692 0.3041 0.9002 0.0
H691 H 0.87866 0.23464 0.91809 0.0
H692 H 0.8208 0.16642 0.88037 0.0
H693 H 0.82735 0.20072 0.90631 0.0
H694 H 0.84089 0.28525 0.87402 0.0
H695 H 0.83505 0.25125 0.84839 0.0
C696 C 0.83811 0.3201 0.92075 0.0
C697 C 0.86509 0.31292 0.93138 0.0
C698 C 0.82654 0.29719 0.90887 0.0
C699 C 0.84156 0.2665 0.90738 0.0
C700 C 0.86658 0.25814 0.91903 0.0
C701 C 0.87831 0.28122 0.93095 0.0
C702 C 0.82452 0.19245 0.87892 0.0
C703 C 0.82738 0.20627 0.86242 0.0
C704 C 0.82849 0.21195 0.89371 0.0
C705 C 0.83449 0.24561 0.89215 0.0
C706 C 0.83589 0.25946 0.87563 0.0
C707 C 0.83267 0.23999 0.86095 0.0
H708 H 0.49578 0.15279 0.68895 0.0
H709 H 0.44507 0.06903 0.6678 0.0
H710 H 0.54227 0.14211 0.66972 0.0
H711 H 0.49183 0.05825 0.64872 0.0
H712 H 0.59477 0.04009 0.6237 0.0
H713 H 0.55562 0.04485 0.64789 0.0
H714 H 0.54248 0.14702 0.63647 0.0
H715 H 0.58061 0.14218 0.61236 0.0
C716 C 0.49482 0.1317 0.68049 0.0
C717 C 0.46657 0.11196 0.67979 0.0
C718 C 0.52142 0.12565 0.66945 0.0
C719 C 0.52057 0.09944 0.65769 0.0
C720 C 0.49324 0.07848 0.65774 0.0
C721 C 0.4664 0.08481 0.6686 0.0
C722 C 0.58371 0.06355 0.62653 0.0
C723 C 0.59052 0.0907 0.61611 0.0
C724 C 0.5613 0.06626 0.64029 0.0
C725 C 0.54616 0.09635 0.64408 0.0
C726 C 0.55401 0.12362 0.63399 0.0
C727 C 0.57567 0.12077 0.6201 0.0
H728 H 0.60239 0.74271 0.3296 0.0
H729 H 0.6461 0.80911 0.36647 0.0
H730 H 0.59033 0.70441 0.35309 0.0
H731 H 0.63387 0.77129 0.3897 0.0
H732 H 0.57894 0.70473 0.42854 0.0
H733 H 0.58468 0.74485 0.40531 0.0
H734 H 0.62899 0.67133 0.3727 0.0
H735 H 0.62376 0.63163 0.39566 0.0
C736 C 0.60912 0.7492 0.34268 0.0
C737 C 0.62557 0.77859 0.34618 0.0
C738 C 0.60231 0.72737 0.35608 0.0
C739 C 0.61125 0.73499 0.37317 0.0
C740 C 0.62651 0.76493 0.37669 0.0
C741 C 0.63379 0.78638 0.36333 0.0
C742 C 0.59015 0.69729 0.41647 0.0
C743 C 0.60113 0.66509 0.41403 0.0
C744 C 0.59329 0.72014 0.40318 0.0
C745 C 0.60688 0.71096 0.38717 0.0
C746 C 0.61791 0.67888 0.3848 0.0
C747 C 0.61528 0.65629 0.39808 0.0
H748 H 0.02251 0.85947 0.18306 0.0
H749 H 0.0873 0.92749 0.1574 0.0
H750 H 0.97779 0.8756 0.16375 0.0
H751 H 0.04286 0.94354 0.1384 0.0
H752 H 0.97555 0.91573 0.09221 0.0
H753 H 0.01654 0.91156 0.11485 0.0
H754 H 0.94065 0.92268 0.15348 0.0
H755 H 0.89924 0.92713 0.13052 0.0
C756 C 0.02709 0.87818 0.17353 0.0
C757 C 0.05865 0.89177 0.17161 0.0
C758 C 1.00144 0.88756 0.16255 0.0
C759 C 0.00694 0.91062 0.14945 0.0
C760 C 0.03799 0.92538 0.14819 0.0
C761 C 0.06348 0.91611 0.15912 0.0
C762 C 0.96767 0.91805 0.10552 0.0
C763 C 0.93428 0.9219 0.10962 0.0
C764 C 0.99116 0.91571 0.11851 0.0
C765 C 0.98182 0.91672 0.13596 0.0
C766 C 0.9485 0.92168 0.14013 0.0
C767 C 0.92491 0.9246 0.12703 0.0
H768 H 0.65712 0.69272 0.87184 0.0
H769 H 0.69416 0.75969 0.83382 0.0
H770 H 0.65245 0.73718 0.89267 0.0
H771 H 0.69206 0.80413 0.85486 0.0
H772 H 0.63726 0.8815 0.8869 0.0
H773 H 0.65418 0.83794 0.86739 0.0
H774 H 0.67323 0.77556 0.91114 0.0
H775 H 0.65391 0.81856 0.93041 0.0
C776 C 0.66548 0.71686 0.86823 0.0
C777 C 0.6762 0.72292 0.85138 0.0
C778 C 0.66293 0.7425 0.88015 0.0
C779 C 0.67159 0.77471 0.87554 0.0
C780 C 0.68429 0.78005 0.85887 0.0
C781 C 0.68603 0.75454 0.84684 0.0
C782 C 0.64559 0.85861 0.8923 0.0
C783 C 0.64405 0.85329 0.91012 0.0
C784 C 0.65549 0.83351 0.88111 0.0
C785 C 0.66486 0.80272 0.88755 0.0
C786 C 0.66531 0.79838 0.90556 0.0
C787 C 0.65457 0.82318 0.91667 0.0
H788 H 0.52921 0.39772 0.09762 0.0
H789 H 0.60097 0.44022 0.13203 0.0
H790 H 0.48964 0.39509 0.12112 0.0
H791 H 0.56104 0.4373 0.15581 0.0
H792 H 0.49372 0.37198 0.19324 0.0
H793 H 0.53428 0.38887 0.17175 0.0
H794 H 0.45708 0.43148 0.14115 0.0
H795 H 0.41652 0.41467 0.16251 0.0
C796 C 0.5364 0.40684 0.1102 0.0
C797 C 0.56821 0.41906 0.11301 0.0
C798 C 0.51364 0.40554 0.12363 0.0
C799 C 0.52224 0.41605 0.14029 0.0
C800 C 0.55383 0.42898 0.14309 0.0
C801 C 0.57656 0.4308 0.1295 0.0
C802 C 0.48547 0.38552 0.1821 0.0
C803 C 0.45181 0.39156 0.17948 0.0
C804 C 0.50874 0.39534 0.16985 0.0
C805 C 0.49875 0.41117 0.15471 0.0
C806 C 0.46539 0.41896 0.15261 0.0
C807 C 0.44219 0.40937 0.16489 0.0
H808 H 0.90066 0.12783 0.39891 0.0
H809 H 0.91501 0.20786 0.43465 0.0
H810 H 0.88755 0.1664 0.37612 0.0
H811 H 0.90132 0.24654 0.41171 0.0
H812 H 0.83108 0.29486 0.37162 0.0
H813 H 0.84764 0.25712 0.3941 0.0
H814 H 0.91798 0.21314 0.35933 0.0
H815 H 0.90177 0.25154 0.33667 0.0
C816 C 0.90085 0.15367 0.40193 0.0
C817 C 0.90861 0.16485 0.41862 0.0
C818 C 0.89365 0.1757 0.38882 0.0
C819 C 0.89352 0.20933 0.39218 0.0
C820 C 0.90118 0.22063 0.40885 0.0
C821 C 0.909 0.19857 0.42194 0.0
C822 C 0.84995 0.27705 0.36867 0.0
C823 C 0.86497 0.27599 0.3523 0.0
C824 C 0.85962 0.25569 0.38163 0.0
C825 C 0.88415 0.23243 0.37845 0.0
C826 C 0.89893 0.23092 0.36205 0.0
C827 C 0.88967 0.25279 0.34911 0.0
H828 H 0.08873 0.59994 0.65078 0.0
H829 H 0.01051 0.63182 0.68469 0.0
H830 H 0.04979 0.5957 0.62704 0.0
H831 H 0.97141 0.62714 0.66082 0.0
H832 H 0.90868 0.58568 0.61503 0.0
H833 H 0.94629 0.58407 0.63966 0.0
H834 H 0.0175 0.63987 0.61081 0.0
H835 H 0.97993 0.64191 0.58634 0.0
C836 C 0.06313 0.60551 0.65327 0.0
C837 C 0.05278 0.61635 0.66966 0.0
C838 C 0.04088 0.60328 0.63962 0.0
C839 C 0.00766 0.61135 0.64205 0.0
C840 C 0.99689 0.62067 0.6586 0.0
C841 C 0.01928 0.62339 0.67225 0.0
C842 C 0.93242 0.59749 0.61393 0.0
C843 C 0.94133 0.61392 0.59872 0.0
C844 C 0.95383 0.59669 0.62805 0.0
C845 C 0.98483 0.61175 0.62712 0.0
C846 C 0.99388 0.62778 0.61184 0.0
C847 C 0.97229 0.62908 0.59786 0.0
H848 H 0.69751 0.16467 0.60444 0.0
H849 H 0.63486 0.22615 0.5735 0.0
H850 H 0.70562 0.20942 0.62473 0.0
H851 H 0.64336 0.27113 0.59392 0.0
H852 H 0.68302 0.3495 0.63281 0.0
H853 H 0.68759 0.3093 0.60927 0.0
H854 H 0.65994 0.23272 0.6445 0.0
H855 H 0.65486 0.27255 0.66776 0.0
C856 C 0.68607 0.18794 0.60171 0.0
C857 C 0.66507 0.19164 0.58747 0.0
C858 C 0.69071 0.21353 0.61338 0.0
C859 C 0.67476 0.24351 0.61099 0.0
C860 C 0.656 0.24823 0.59602 0.0
C861 C 0.65109 0.22245 0.58437 0.0
C862 C 0.67832 0.324 0.6355 0.0
C863 C 0.66852 0.31411 0.65208 0.0
C864 C 0.68079 0.30112 0.62206 0.0
C865 C 0.67429 0.26796 0.62513 0.0
C866 C 0.66548 0.25807 0.64183 0.0
C867 C 0.66238 0.2809 0.65511 0.0
H868 H 0.08363 0.41029 0.84062 0.0
H869 H 0.02931 0.3231 0.82738 0.0
H870 H 0.04012 0.42646 0.86059 0.0
H871 H 0.98575 0.33931 0.8475 0.0
H872 H 0.95906 0.35153 0.90616 0.0
H873 H 0.99109 0.34109 0.88026 0.0
H874 H 0.97868 0.44137 0.86473 0.0
H875 H 0.9458 0.45191 0.89087 0.0
C876 C 0.06203 0.39494 0.84169 0.0
C877 C 0.06006 0.3652 0.8326 0.0
C878 C 0.03702 0.40434 0.85305 0.0
C879 C 0.00973 0.384 0.85571 0.0
C880 C 0.0067 0.35532 0.84577 0.0
C881 C 0.03154 0.34611 0.83421 0.0
C882 C 0.96295 0.37141 0.89721 0.0
C883 C 0.95023 0.40268 0.90064 0.0
C884 C 0.98098 0.36527 0.88225 0.0
C885 C 0.98719 0.39033 0.87042 0.0
C886 C 0.97415 0.4216 0.87366 0.0
C887 C 0.95542 0.42763 0.88857 0.0
H888 H 0.89083 0.77015 0.08029 0.0
H889 H 0.83605 0.83901 0.11153 0.0
H890 H 0.88526 0.72933 0.10325 0.0
H891 H 0.8312 0.79867 0.13424 0.0
H892 H 0.88197 0.73746 0.17747 0.0
H893 H 0.88028 0.77402 0.15272 0.0
H894 H 0.83692 0.69762 0.12174 0.0
H895 H 0.83791 0.66094 0.14672 0.0
C896 C 0.87722 0.77642 0.09186 0.0
C897 C 0.86416 0.80795 0.0941 0.0
C898 C 0.87401 0.75308 0.10495 0.0
C899 C 0.8581 0.7611 0.12052 0.0
C900 C 0.84385 0.79203 0.12241 0.0
C901 C 0.84661 0.81508 0.10933 0.0
C902 C 0.87184 0.72849 0.16543 0.0
C903 C 0.85992 0.69642 0.16404 0.0
C904 C 0.87084 0.74942 0.1513 0.0
C905 C 0.85848 0.73855 0.13537 0.0
C906 C 0.84665 0.70646 0.13389 0.0
C907 C 0.847 0.68565 0.14819 0.0
H908 H 0.58244 0.55558 0.37848 0.0
H909 H 0.49564 0.55756 0.41053 0.0
H910 H 0.54862 0.56784 0.3531 0.0
H911 H 0.46201 0.56935 0.38542 0.0
H912 H 0.40417 0.57426 0.33781 0.0
H913 H 0.44239 0.54782 0.3573 0.0
H914 H 0.51656 0.61927 0.34465 0.0
H915 H 0.47812 0.64584 0.32484 0.0
C916 C 0.55602 0.55739 0.37997 0.0
C917 C 0.54153 0.55533 0.39641 0.0
C918 C 0.53676 0.56484 0.36551 0.0
C919 C 0.50268 0.56966 0.36726 0.0
C920 C 0.48812 0.56544 0.38357 0.0
C921 C 0.50734 0.55863 0.39798 0.0
C922 C 0.42882 0.58409 0.33891 0.0
C923 C 0.43794 0.61252 0.32999 0.0
C924 C 0.4507 0.56888 0.35011 0.0
C925 C 0.4823 0.58172 0.35272 0.0
C926 C 0.49239 0.60872 0.34284 0.0
C927 C 0.47037 0.624 0.33153 0.0
H928 H 0.37969 0.23862 0.07334 0.0
H929 H 0.3464 0.1571 0.10399 0.0
H930 H 0.36926 0.27541 0.09775 0.0
H931 H 0.33644 0.19377 0.12824 0.0
H932 H 0.37846 0.26133 0.17175 0.0
H933 H 0.37882 0.22578 0.14642 0.0
H934 H 0.32226 0.29683 0.11829 0.0
H935 H 0.32143 0.33243 0.14381 0.0
C936 C 0.36962 0.22863 0.08513 0.0
C937 C 0.36413 0.19487 0.08673 0.0
C938 C 0.3636 0.2497 0.09907 0.0
C939 C 0.35239 0.23731 0.11491 0.0
C940 C 0.34543 0.20387 0.11623 0.0
C941 C 0.351 0.18293 0.10228 0.0
C942 C 0.36585 0.26929 0.16023 0.0
C943 C 0.34989 0.29965 0.15978 0.0
C944 C 0.36593 0.24887 0.14576 0.0
C945 C 0.35051 0.25856 0.13042 0.0
C946 C 0.33439 0.28885 0.12995 0.0
C947 C 0.33378 0.30908 0.14457 0.0
H948 H 0.5086 0.57006 0.91333 0.0
H949 H 0.42256 0.56872 0.88093 0.0
H950 H 0.54265 0.58378 0.88859 0.0
H951 H 0.45686 0.58282 0.85588 0.0
H952 H 0.52699 0.66101 0.82783 0.0
H953 H 0.48872 0.63454 0.84791 0.0
H954 H 0.5632 0.56364 0.86055 0.0
H955 H 0.60125 0.59 0.84087 0.0
C956 C 0.49716 0.57175 0.90075 0.0
C957 C 0.46306 0.56805 0.89899 0.0
C958 C 0.51664 0.57965 0.88656 0.0
C959 C 0.50242 0.58453 0.87027 0.0
C960 C 0.46843 0.57938 0.8683 0.0
C961 C 0.44891 0.57087 0.88255 0.0
C962 C 0.53494 0.63947 0.8347 0.0
C963 C 0.56736 0.62803 0.833 0.0
C964 C 0.51299 0.62419 0.84611 0.0
C965 C 0.52312 0.59722 0.85595 0.0
C966 C 0.55485 0.58468 0.85338 0.0
C967 C 0.57666 0.59989 0.84209 0.0
H968 H 0.15108 0.73197 0.67529 0.0
H969 H 0.18882 0.6561 0.64183 0.0
H970 H 0.15693 0.77147 0.65209 0.0
H971 H 0.19413 0.69583 0.61836 0.0
H972 H 0.13809 0.7723 0.58064 0.0
H973 H 0.14809 0.72933 0.60178 0.0
H974 H 0.20289 0.79733 0.63322 0.0
H975 H 0.19329 0.84016 0.61219 0.0
C976 C 0.16099 0.72386 0.66301 0.0
C977 C 0.16946 0.69104 0.66032 0.0
C978 C 0.16451 0.74647 0.64978 0.0
C979 C 0.17604 0.73661 0.63349 0.0
C980 C 0.18521 0.70393 0.63084 0.0
C981 C 0.18232 0.68135 0.64425 0.0
C982 C 0.15295 0.77787 0.59184 0.0
C983 C 0.16442 0.80977 0.59487 0.0
C984 C 0.15878 0.75325 0.60389 0.0
C985 C 0.17593 0.76025 0.61917 0.0
C986 C 0.18933 0.79148 0.6216 0.0
C987 C 0.1838 0.81595 0.60953 0.0
H988 H 0.01105 0.41177 0.4017 0.0
H989 H 0.95549 0.38052 0.44618 0.0
H990 H 0.96119 0.41542 0.38506 0.0
H991 H 0.90445 0.38537 0.42948 0.0
H992 H 0.83238 0.35713 0.38384 0.0
H993 H 0.87427 0.36131 0.4062 0.0
H994 H 0.914 0.4468 0.3811 0.0
H995 H 0.87344 0.44085 0.35818 0.0
C996 C 0.98797 0.40594 0.40799 0.0
C997 C 0.9872 0.39597 0.42528 0.0
C998 C 0.95917 0.40847 0.39847 0.0
C999 C 0.92847 0.4016 0.40599 0.0
C1000 C 0.92762 0.39098 0.42327 0.0
C1001 C 0.9568 0.38807 0.43282 0.0
C1002 C 0.84924 0.37762 0.38359 0.0
C1003 C 0.84968 0.39886 0.36943 0.0
C1004 C 0.87342 0.37994 0.39635 0.0
C1005 C 0.89821 0.40382 0.39522 0.0
C1006 C 0.89601 0.42739 0.38208 0.0
C1007 C 0.8724 0.42451 0.36911 0.0
H1008 H 0.40315 0.70693 0.35413 0.0
H1009 H 0.30035 0.70539 0.36816 0.0
H1010 H 0.41545 0.7397 0.37951 0.0
H1011 H 0.31281 0.73921 0.39372 0.0
H1012 H 0.35498 0.84035 0.4178 0.0
H1013 H 0.33584 0.7996 0.39699 0.0
H1014 H 0.41335 0.73452 0.41277 0.0
H1015 H 0.43238 0.77509 0.43376 0.0
C1016 C 0.38312 0.71362 0.36267 0.0
C1017 C 0.3507 0.70384 0.35907 0.0
C1018 C 0.39027 0.73213 0.37731 0.0
C1019 C 0.36514 0.74185 0.38863 0.0
C1020 C 0.33264 0.73195 0.38518 0.0
C1021 C 0.32552 0.71265 0.37062 0.0
C1022 C 0.36763 0.81713 0.41704 0.0
C1023 C 0.39544 0.81108 0.4273 0.0
C1024 C 0.35647 0.79373 0.40522 0.0
C1025 C 0.37319 0.764 0.40323 0.0
C1026 C 0.4001 0.75733 0.41401 0.0
C1027 C 0.41095 0.78053 0.42604 0.0
H1028 H 0.11224 0.56855 0.12944 0.0
H1029 H 0.03225 0.59933 0.09683 0.0
H1030 H 0.07623 0.57351 0.15482 0.0
H1031 H 0.99654 0.60388 0.12195 0.0
H1032 H 0.93213 0.58228 0.16711 0.0
H1033 H 0.97102 0.56714 0.14461 0.0
H1034 H 0.04691 0.62277 0.17016 0.0
H1035 H 0.00778 0.63823 0.19287 0.0
C1036 C 0.08688 0.5758 0.12767 0.0
C1037 C 0.07502 0.58353 0.11116 0.0
C1038 C 0.06641 0.57887 0.14218 0.0
C1039 C 0.0336 0.58902 0.14034 0.0
C1040 C 0.0216 0.59568 0.12376 0.0
C1041 C 0.0421 0.59319 0.10937 0.0
C1042 C 0.9572 0.59098 0.16815 0.0
C1043 C 0.96669 0.61187 0.18171 0.0
C1044 C 0.97945 0.5823 0.15521 0.0
C1045 C 0.01185 0.59407 0.15553 0.0
C1046 C 0.02208 0.61325 0.16963 0.0
C1047 C 0.99965 0.62218 0.18259 0.0
H1048 H 0.16017 0.24735 0.84629 0.0
H1049 H 0.174 0.33157 0.87918 0.0
H1050 H 0.15256 0.21312 0.87156 0.0
H1051 H 0.16576 0.29705 0.90473 0.0
H1052 H 0.09367 0.2239 0.9371 0.0
H1053 H 0.11411 0.26372 0.91609 0.0
H1054 H 0.18507 0.19344 0.89769 0.0
H1055 H 0.16502 0.15392 0.9185 0.0
C1056 C 0.16208 0.25843 0.85897 0.0
C1057 C 0.16779 0.29205 0.86079 0.0
C1058 C 0.15781 0.23883 0.87345 0.0
C1059 C 0.1586 0.25244 0.89011 0.0
C1060 C 0.16501 0.28599 0.89202 0.0
C1061 C 0.16999 0.30562 0.87744 0.0
C1062 C 0.1142 0.2173 0.92888 0.0
C1063 C 0.12731 0.18556 0.92927 0.0
C1064 C 0.12593 0.2401 0.91689 0.0
C1065 C 0.15085 0.23144 0.90512 0.0
C1066 C 0.16554 0.20059 0.90644 0.0
C1067 C 0.15398 0.17798 0.91839 0.0
H1068 H 0.4449 0.34403 0.60179 0.0
H1069 H 0.42039 0.44453 0.61288 0.0
H1070 H 0.48302 0.34372 0.62596 0.0
H1071 H 0.45967 0.44437 0.63703 0.0
H1072 H 0.57179 0.42693 0.65905 0.0
H1073 H 0.5271 0.43396 0.63824 0.0
H1074 H 0.47623 0.35165 0.66027 0.0
H1075 H 0.52032 0.3449 0.68127 0.0
C1076 C 0.44776 0.36614 0.60936 0.0
C1077 C 0.42973 0.39437 0.60539 0.0
C1078 C 0.46943 0.36585 0.62328 0.0
C1079 C 0.47415 0.39396 0.63338 0.0
C1080 C 0.45638 0.42238 0.62942 0.0
C1081 C 0.43394 0.42244 0.61566 0.0
C1082 C 0.55075 0.41076 0.65969 0.0
C1083 C 0.54973 0.38523 0.67176 0.0
C1084 C 0.52515 0.4149 0.64783 0.0
C1085 C 0.49838 0.39324 0.64764 0.0
C1086 C 0.49668 0.36861 0.66014 0.0
C1087 C 0.52191 0.36484 0.67219 0.0
H1088 H 0.38202 0.27253 0.25331 0.0
H1089 H 0.29127 0.29362 0.22674 0.0
H1090 H 0.35158 0.23925 0.27417 0.0
H1091 H 0.26134 0.2602 0.24719 0.0
H1092 H 0.21062 0.23595 0.29585 0.0
H1093 H 0.24716 0.26727 0.27753 0.0
H1094 H 0.31707 0.18795 0.27751 0.0
H1095 H 0.28024 0.1565 0.29646 0.0
C1096 C 0.3557 0.26983 0.25182 0.0
C1097 C 0.33899 0.28609 0.2385 0.0
C1098 C 0.33834 0.2507 0.26372 0.0
C1099 C 0.30402 0.24759 0.2625 0.0
C1100 C 0.28767 0.26279 0.24876 0.0
C1101 C 0.30488 0.28185 0.23697 0.0
C1102 C 0.23397 0.22528 0.29213 0.0
C1103 C 0.24243 0.19364 0.29735 0.0
C1104 C 0.25483 0.24315 0.28154 0.0
C1105 C 0.28458 0.22974 0.27568 0.0
C1106 C 0.29418 0.19884 0.28177 0.0
C1107 C 0.27322 0.18089 0.29261 0.0
H1108 H 0.08703 0.98541 0.55611 0.0
H1109 H 0.05979 0.90538 0.52253 0.0
H1110 H 0.0539 0.02249 0.53901 0.0
H1111 H 0.02756 0.94271 0.50503 0.0
H1112 H 0.94795 0.00925 0.48656 0.0
H1113 H 0.97838 0.97406 0.50589 0.0
H1114 H 0.05296 0.04862 0.51147 0.0
H1115 H 0.02164 0.08444 0.4925 0.0
C1116 C 0.07411 0.97577 0.545 0.0
C1117 C 0.07599 0.94246 0.54065 0.0
C1118 C 0.05526 0.99709 0.53515 0.0
C1119 C 0.03808 0.98561 0.52066 0.0
C1120 C 0.04002 0.95226 0.5163 0.0
C1121 C 0.05863 0.93087 0.52626 0.0
C1122 C 0.97073 0.01824 0.49202 0.0
C1123 C 0.98261 0.04947 0.48795 0.0
C1124 C 0.98829 0.99796 0.50301 0.0
C1125 C 0.01836 0.00828 0.51001 0.0
C1126 C 0.02974 0.04 0.50638 0.0
C1127 C 0.01189 0.06052 0.49551 0.0
H1128 H 0.21567 0.66812 0.73374 0.0
H1129 H 0.1294 0.72616 0.74461 0.0
H1130 H 0.24745 0.70157 0.75358 0.0
H1131 H 0.16159 0.76049 0.76412 0.0
H1132 H 0.22437 0.79711 0.8099 0.0
H1133 H 0.19011 0.76279 0.79131 0.0
H1134 H 0.27028 0.75471 0.75486 0.0
H1135 H 0.30455 0.78785 0.77358 0.0
C1136 C 0.20349 0.68812 0.74032 0.0
C1137 C 0.17002 0.69455 0.73751 0.0
C1138 C 0.22179 0.70749 0.75164 0.0
C1139 C 0.20724 0.73405 0.76033 0.0
C1140 C 0.17356 0.74011 0.75778 0.0
C1141 C 0.15514 0.72051 0.74652 0.0
C1142 C 0.23457 0.78802 0.7979 0.0
C1143 C 0.26727 0.79502 0.7933 0.0
C1144 C 0.21491 0.76845 0.7872 0.0
C1145 C 0.2275 0.75564 0.77164 0.0
C1146 C 0.25996 0.7634 0.76692 0.0
C1147 C 0.2796 0.78266 0.77763 0.0
H1148 H 0.44738 0.03921 0.0295 0.0
H1149 H 0.47738 0.13115 0.00727 0.0
H1150 H 0.48021 0.01016 0.00837 0.0
H1151 H 0.5104 0.1015 0.98572 0.0
H1152 H 0.59259 0.02462 0.96496 0.0
H1153 H 0.56075 0.06268 0.9832 0.0
H1154 H 0.47489 0.0017 0.97693 0.0
H1155 H 0.50655 0.96387 0.95932 0.0
C1156 C 0.46094 0.05331 0.02007 0.0
C1157 C 0.45941 0.08755 0.01999 0.0
C1158 C 0.47969 0.03658 0.00788 0.0
C1159 C 0.49743 0.05353 0.99519 0.0
C1160 C 0.49689 0.08784 0.99534 0.0
C1161 C 0.47792 0.10474 0.00762 0.0
C1162 C 0.56671 0.02001 0.96719 0.0
C1163 C 0.55202 0.99123 0.96099 0.0
C1164 C 0.54854 0.04166 0.97761 0.0
C1165 C 0.51556 0.03468 0.98181 0.0
C1166 C 0.50046 0.00728 0.97431 0.0
C1167 C 0.51852 0.98572 0.96415 0.0
H1168 H 0.26867 0.71856 0.29812 0.0
H1169 H 0.3463 0.73373 0.26095 0.0
H1170 H 0.2316 0.7512 0.28082 0.0
H1171 H 0.3087 0.76543 0.24311 0.0
H1172 H 0.24058 0.84359 0.22152 0.0
H1173 H 0.27897 0.81432 0.23988 0.0
H1174 H 0.20075 0.74926 0.2555 0.0
H1175 H 0.16222 0.77945 0.23771 0.0
C1176 C 0.27783 0.7288 0.28618 0.0
C1177 C 0.31048 0.72341 0.28091 0.0
C1178 C 0.2564 0.74737 0.27614 0.0
C1179 C 0.26681 0.76079 0.26037 0.0
C1180 C 0.29974 0.75588 0.25524 0.0
C1181 C 0.32136 0.73757 0.26544 0.0
C1182 C 0.23155 0.82311 0.22894 0.0
C1183 C 0.19824 0.81397 0.22817 0.0
C1184 C 0.25368 0.80611 0.23941 0.0
C1185 C 0.24319 0.77927 0.24928 0.0
C1186 C 0.2098 0.77014 0.24842 0.0
C1187 C 0.18762 0.78737 0.2381 0.0
H1188 H 0.48103 0.97917 0.47034 0.0
H1189 H 0.49566 0.90104 0.50673 0.0
H1190 H 0.51115 0.01623 0.48886 0.0
H1191 H 0.52507 0.93882 0.52583 0.0
H1192 H 0.60571 0.00833 0.54598 0.0
H1193 H 0.57481 0.96928 0.5287 0.0
H1194 H 0.50617 0.04532 0.51499 0.0
H1195 H 0.53795 0.08465 0.53171 0.0
C1196 C 0.49047 0.96995 0.48243 0.0
C1197 C 0.48582 0.93718 0.48713 0.0
C1198 C 0.50756 0.99135 0.49314 0.0
C1199 C 0.52018 0.98074 0.50899 0.0
C1200 C 0.51588 0.94778 0.51365 0.0
C1201 C 0.49899 0.92614 0.50276 0.0
C1202 C 0.58394 0.01669 0.53932 0.0
C1203 C 0.57441 0.04966 0.54009 0.0
C1204 C 0.56608 0.99421 0.52949 0.0
C1205 C 0.53808 0.00411 0.52033 0.0
C1206 C 0.52803 0.03694 0.52155 0.0
C1207 C 0.54613 0.0595 0.53121 0.0
H1208 H 0.16782 0.25982 0.76471 0.0
H1209 H 0.24551 0.28949 0.79925 0.0
H1210 H 0.20758 0.23054 0.74695 0.0
H1211 H 0.28511 0.25901 0.78199 0.0
H1212 H 0.35393 0.22936 0.73839 0.0
H1213 H 0.31398 0.25904 0.75586 0.0
H1214 H 0.24138 0.18452 0.74519 0.0
H1215 H 0.28094 0.15577 0.72711 0.0
C1216 C 0.19335 0.25975 0.76863 0.0
C1217 C 0.20347 0.27706 0.78339 0.0
C1218 C 0.21622 0.24277 0.75848 0.0
C1219 C 0.24977 0.24228 0.76294 0.0
C1220 C 0.25971 0.25927 0.77788 0.0
C1221 C 0.23691 0.2766 0.78789 0.0
C1222 C 0.32941 0.21936 0.73977 0.0
C1223 C 0.32063 0.19024 0.73131 0.0
C1224 C 0.30648 0.23628 0.74991 0.0
C1225 C 0.27426 0.22429 0.75205 0.0
C1226 C 0.26565 0.19496 0.74365 0.0
C1227 C 0.28845 0.1783 0.73333 0.0
H1228 H 0.03036 0.01294 0.96276 0.0
H1229 H 0.00993 0.0909 0.99888 0.0
H1230 H 0.9976 0.97566 0.97999 0.0
H1231 H 0.97817 0.05319 0.01664 0.0
H1232 H 0.90049 0.98412 0.03787 0.0
H1233 H 0.92964 0.02223 0.01928 0.0
H1234 H 0.99898 0.94633 1.00576 0.0
H1235 H 0.96894 0.90799 0.02377 0.0
C1236 C 0.01894 0.02211 0.97445 0.0
C1237 C 0.02285 0.05492 0.97946 0.0
C1238 C 1.0003 1.0006 0.98444 0.0
C1239 C 0.98538 0.01113 0.99989 0.0
C1240 C 0.98888 0.04416 1.00475 0.0
C1241 C 0.00724 0.06583 0.9946 0.0
C1242 C 0.92188 0.97553 0.03085 0.0
C1243 C 0.93232 0.94294 0.03229 0.0
C1244 C 0.93879 0.9975 0.02026 0.0
C1245 C 0.96683 0.98757 0.01095 0.0
C1246 C 0.97718 0.95488 0.01242 0.0
C1247 C 0.96004 0.93283 0.02285 0.0
H1248 H 0.838 0.78083 0.73078 0.0
H1249 H 0.76179 0.84909 0.71687 0.0
H1250 H 0.7986 0.75023 0.74794 0.0
H1251 H 0.72252 0.81919 0.73462 0.0
H1252 H 0.65389 0.73938 0.75651 0.0
H1253 H 0.6913 0.76991 0.7377 0.0
H1254 H 0.77 0.7552 0.77421 0.0
H1255 H 0.73328 0.72403 0.79243 0.0
C1256 C 0.81286 0.78943 0.73147 0.0
C1257 C 0.80311 0.81749 0.72253 0.0
C1258 C 0.79023 0.77198 0.74141 0.0
C1259 C 0.75734 0.78239 0.74286 0.0
C1260 C 0.74749 0.81023 0.73369 0.0
C1261 C 0.77009 0.8275 0.72358 0.0
C1262 C 0.67917 0.74285 0.76047 0.0
C1263 C 0.6907 0.72901 0.77584 0.0
C1264 C 0.70062 0.76039 0.74974 0.0
C1265 C 0.73389 0.76467 0.7543 0.0
C1266 C 0.74489 0.75166 0.76998 0.0
C1267 C 0.72369 0.73393 0.78053 0.0
H1268 H 0.62648 0.21078 0.25427 0.0
H1269 H 0.71663 0.19853 0.22545 0.0
H1270 H 0.65555 0.24434 0.27544 0.0
H1271 H 0.74526 0.23314 0.24597 0.0
H1272 H 0.79736 0.26799 0.2931 0.0
H1273 H 0.76605 0.23323 0.27383 0.0
H1274 H 0.68114 0.29543 0.28073 0.0
H1275 H 0.71244 0.32948 0.30088 0.0
C1276 C 0.65246 0.21543 0.25241 0.0
C1277 C 0.66933 0.20175 0.23827 0.0
C1278 C 0.66911 0.23486 0.26448 0.0
C1279 C 0.70291 0.24137 0.26256 0.0
C1280 C 0.71949 0.22805 0.2482 0.0
C1281 C 0.703 0.20829 0.23633 0.0
C1282 C 0.77197 0.27424 0.29056 0.0
C1283 C 0.75743 0.30164 0.2984 0.0
C1284 C 0.754 0.25438 0.27937 0.0
C1285 C 0.72111 0.2617 0.27541 0.0
C1286 C 0.70631 0.28882 0.28355 0.0
C1287 C 0.72425 0.30847 0.29503 0.0
H1288 H 0.83275 0.2616 0.77801 0.0
H1289 H 0.75598 0.1914 0.78824 0.0
H1290 H 0.79525 0.29239 0.75981 0.0
H1291 H 0.71895 0.22117 0.76948 0.0
H1292 H 0.65004 0.29689 0.74739 0.0
H1293 H 0.68726 0.26844 0.7667 0.0
H1294 H 0.76876 0.29148 0.73296 0.0
H1295 H 0.73166 0.32119 0.71412 0.0
C1296 C 0.8079 0.25266 0.7763 0.0
C1297 C 0.79734 0.2241 0.78462 0.0
C1298 C 0.7864 0.27018 0.76575 0.0
C1299 C 0.75393 0.25934 0.76306 0.0
C1300 C 0.74348 0.23073 0.77144 0.0
C1301 C 0.76482 0.21348 0.78216 0.0
C1302 C 0.67591 0.29588 0.74411 0.0
C1303 C 0.68787 0.31132 0.72922 0.0
C1304 C 0.69731 0.27938 0.75515 0.0
C1305 C 0.73117 0.2775 0.75145 0.0
C1306 C 0.74302 0.29286 0.73647 0.0
C1307 C 0.72168 0.30973 0.72556 0.0
H1308 H 0.78436 0.83771 0.30012 0.0
H1309 H 0.70894 0.76444 0.29397 0.0
H1310 H 0.8216 0.8049 0.28208 0.0
H1311 H 0.74599 0.73139 0.27672 0.0
H1312 H 0.79998 0.69929 0.22929 0.0
H1313 H 0.76724 0.73298 0.24852 0.0
H1314 H 0.85376 0.75541 0.27857 0.0
H1315 H 0.88699 0.7223 0.25876 0.0
C1316 C 0.77599 0.81437 0.2952 0.0
C1317 C 0.7436 0.80387 0.29826 0.0
C1318 C 0.79729 0.79553 0.28487 0.0
C1319 C 0.78663 0.76573 0.27758 0.0
C1320 C 0.7548 0.75463 0.28157 0.0
C1321 C 0.73357 0.77351 0.29161 0.0
C1322 C 0.81213 0.71136 0.23998 0.0
C1323 C 0.8461 0.70783 0.24253 0.0
C1324 C 0.79326 0.73059 0.25113 0.0
C1325 C 0.80766 0.74659 0.26535 0.0
C1326 C 0.84182 0.7436 0.26774 0.0
C1327 C 0.86085 0.72449 0.25643 0.0
H1328 H 0.56574 0.48101 0.05146 0.0
H1329 H 0.55184 0.39778 0.01781 0.0
H1330 H 0.53474 0.51489 0.03171 0.0
H1331 H 0.52169 0.43208 0.99762 0.0
H1332 H 0.44334 0.49819 0.97331 0.0
H1333 H 0.47187 0.46222 0.99327 0.0
H1334 H 0.54187 0.53901 1.0042 0.0
H1335 H 0.5127 0.5752 0.98478 0.0
C1336 C 0.55611 0.46997 0.03979 0.0
C1337 C 0.56137 0.43678 0.03613 0.0
C1338 C 0.53853 0.48946 0.0284 0.0
C1339 C 0.52611 0.47635 0.01294 0.0
C1340 C 0.5307 0.44292 0.00946 0.0
C1341 C 0.54805 0.42327 0.021 0.0
C1342 C 0.46489 0.50731 0.97995 0.0
C1343 C 0.47568 0.53958 0.97756 0.0
C1344 C 0.48132 0.48665 0.99133 0.0
C1345 C 0.50901 0.49779 1.00045 0.0
C1346 C 0.52018 0.52985 0.9977 0.0
C1347 C 0.5036 0.55056 0.98647 0.0
H1348 H 0.0853 0.53308 0.46428 0.0
H1349 H 1.00149 0.46841 0.4659 0.0
H1350 H 0.05559 0.57213 0.483 0.0
H1351 H 0.97211 0.50692 0.484 0.0
H1352 H 0.94766 0.55334 0.53418 0.0
H1353 H 0.9817 0.52178 0.51454 0.0
H1354 H 1.00351 0.60873 0.48539 0.0
H1355 H 0.96955 0.64087 0.50541 0.0
C1356 C 0.06043 0.52758 0.46835 0.0
C1357 C 0.04586 0.49757 0.46398 0.0
C1358 C 0.04349 0.54977 0.47903 0.0
C1359 C 0.0119 0.54208 0.48531 0.0
C1360 C 0.99678 0.51307 0.47983 0.0
C1361 C 0.01358 0.49108 0.46939 0.0
C1362 C 0.95978 0.5659 0.52367 0.0
C1363 C 0.95545 0.59953 0.52121 0.0
C1364 C 0.97926 0.54778 0.51238 0.0
C1365 C 0.99476 0.56272 0.49825 0.0
C1366 C 0.9918 0.59662 0.49617 0.0
C1367 C 0.97226 0.61492 0.50758 0.0
H1368 H 0.05099 0.58999 0.01433 0.0
H1369 H 0.07196 0.51105 0.04929 0.0
H1370 H 0.02145 0.55242 0.99555 0.0
H1371 H 0.041 0.47363 0.031 0.0
H1372 H 0.00813 0.40748 0.98687 0.0
H1373 H 0.04054 0.44466 1.00479 0.0
H1374 H 0.97297 0.52288 0.9931 0.0
H1375 H 0.9419 0.48633 0.97468 0.0
C1376 C 0.0489 0.56466 0.01812 0.0
C1377 C 0.06375 0.55354 0.03332 0.0
C1378 C 0.0318 0.54304 0.00738 0.0
C1379 C 0.02861 0.50981 0.01171 0.0
C1380 C 0.04335 0.49882 0.02702 0.0
C1381 C 0.0609 0.52036 0.03762 0.0
C1382 C 1.00043 0.43269 0.98807 0.0
C1383 C 0.97259 0.44397 0.97925 0.0
C1384 C 0.01885 0.45401 0.99845 0.0
C1385 C 0.00953 0.48698 1.00044 0.0
C1386 C 0.9815 0.498 0.99164 0.0
C1387 C 0.96348 0.47689 0.98111 0.0
H1388 H 0.53868 0.49017 0.4593 0.0
H1389 H 0.51297 0.57049 0.49296 0.0
H1390 H 0.506 0.45336 0.47688 0.0
H1391 H 0.48156 0.53341 0.51115 0.0
H1392 H 0.4021 0.46538 0.53126 0.0
H1393 H 0.43335 0.50247 0.51302 0.0
H1394 H 0.50439 0.4261 0.50313 0.0
H1395 H 0.47216 0.38873 0.52063 0.0
C1396 C 0.52632 0.49989 0.47059 0.0
C1397 C 0.52841 0.53324 0.47474 0.0
C1398 C 0.50769 0.47871 0.48078 0.0
C1399 C 0.49109 0.49023 0.49556 0.0
C1400 C 0.49343 0.52365 0.49973 0.0
C1401 C 0.51165 0.54493 0.48937 0.0
C1402 C 0.42435 0.45654 0.52512 0.0
C1403 C 0.43458 0.42409 0.52733 0.0
C1404 C 0.44246 0.47789 0.51475 0.0
C1405 C 0.47156 0.46745 0.50654 0.0
C1406 C 0.48183 0.43496 0.5089 0.0
C1407 C 0.46343 0.41351 0.51904 0.0
H1408 H 0.19809 0.08365 0.27648 0.0
H1409 H 0.09601 0.10048 0.2642 0.0
H1410 H 0.20063 0.04047 0.25489 0.0
H1411 H 0.09856 0.05671 0.24246 0.0
H1412 H 0.11023 0.94541 0.22772 0.0
H1413 H 0.10599 0.99509 0.24498 0.0
H1414 H 0.19676 0.03024 0.22285 0.0
H1415 H 0.20108 0.98039 0.20545 0.0
C1416 C 0.17622 0.07829 0.26903 0.0
C1417 C 0.14674 0.09526 0.27212 0.0
C1418 C 0.17779 0.05371 0.25657 0.0
C1419 C 0.14981 0.04519 0.24701 0.0
C1420 C 0.12047 0.06271 0.24973 0.0
C1421 C 0.11903 0.0878 0.26208 0.0
C1422 C 0.12927 0.96375 0.22646 0.0
C1423 C 0.1562 0.9588 0.21533 0.0
C1424 C 0.1266 0.99237 0.23622 0.0
C1425 C 0.15098 0.01656 0.23523 0.0
C1426 C 0.17766 0.01191 0.22391 0.0
C1427 C 0.18014 0.9834 0.21396 0.0
H1428 H 0.20498 0.86958 0.53149 0.0
H1429 H 0.24084 0.96064 0.55269 0.0
H1430 H 0.2463 0.87187 0.50897 0.0
H1431 H 0.28282 0.96277 0.5298 0.0
H1432 H 0.3295 0.9642 0.47317 0.0
H1433 H 0.2866 0.96666 0.49561 0.0
H1434 H 0.30799 0.86705 0.50952 0.0
H1435 H 0.35027 0.86452 0.48743 0.0
C1436 C 0.22173 0.89015 0.53138 0.0
C1437 C 0.2197 0.91485 0.544 0.0
C1438 C 0.24546 0.89139 0.51844 0.0
C1439 C 0.2678 0.91744 0.51764 0.0
C1440 C 0.26571 0.94251 0.53007 0.0
C1441 C 0.24195 0.94112 0.54324 0.0
C1442 C 0.32474 0.94282 0.48095 0.0
C1443 C 0.34316 0.91413 0.47848 0.0
C1444 C 0.3005 0.94435 0.49388 0.0
C1445 C 0.29402 0.91704 0.50429 0.0
C1446 C 0.31226 0.8884 0.50162 0.0
C1447 C 0.33654 0.887 0.48896 0.0
H1448 H 0.34341 0.01256 0.70702 0.0
H1449 H 0.37575 0.07636 0.74817 0.0
H1450 H 0.34244 0.96666 0.7271 0.0
H1451 H 0.37414 0.03051 0.76826 0.0
H1452 H 0.32638 0.94477 0.80006 0.0
H1453 H 0.32714 0.99118 0.78026 0.0
H1454 H 0.38891 0.93672 0.74515 0.0
H1455 H 0.38875 0.89055 0.76501 0.0
C1456 C 0.35012 0.0168 0.72036 0.0
C1457 C 0.35974 0.04799 0.72603 0.0
C1458 C 0.34969 0.99055 0.73179 0.0
C1459 C 0.35822 0.99518 0.74917 0.0
C1460 C 0.36731 0.02643 0.75493 0.0
C1461 C 0.36838 0.05255 0.74342 0.0
C1462 C 0.34016 0.94276 0.78813 0.0
C1463 C 0.35754 0.91408 0.78408 0.0
C1464 C 0.34068 0.9693 0.77687 0.0
C1465 C 0.35801 0.96735 0.76122 0.0
C1466 C 0.3752 0.93866 0.75711 0.0
C1467 C 0.37524 0.91238 0.76851 0.0
H1468 H 0.30137 0.04282 0.03814 0.0
H1469 H 0.31571 0.14136 0.01992 0.0
H1470 H 0.25424 0.03663 0.01876 0.0
H1471 H 0.26866 0.13514 1.00077 0.0
H1472 H 0.15907 0.12579 0.9886 0.0
H1473 H 0.20693 0.12767 0.00717 0.0
H1474 H 0.24195 0.03729 0.98503 0.0
H1475 H 0.19366 0.03535 0.96604 0.0
C1476 C 0.29448 0.06312 0.03003 0.0
C1477 C 0.31211 0.09267 0.03064 0.0
C1478 C 0.26772 0.05945 0.01886 0.0
C1479 C 0.25786 0.08543 0.00835 0.0
C1480 C 0.27566 0.11481 0.00885 0.0
C1481 C 0.30261 0.11834 0.0198 0.0
C1482 C 0.17676 0.10612 0.98767 0.0
C1483 C 0.17255 0.08042 0.97577 0.0
C1484 C 0.20429 0.10736 0.99827 0.0
C1485 C 0.22819 0.0828 0.99742 0.0
C1486 C 0.22375 0.05652 0.98591 0.0
C1487 C 0.19624 0.05547 0.97505 0.0
H1488 H 0.8486 0.11281 0.7653 0.0
H1489 H 0.80536 0.04579 0.80179 0.0
H1490 H 0.84791 0.07037 0.7432 0.0
H1491 H 0.80486 0.00311 0.77953 0.0
H1492 H 0.85654 0.92973 0.74166 0.0
H1493 H 0.85032 0.97203 0.76364 0.0
H1494 H 0.80725 0.03618 0.72593 0.0
H1495 H 0.81332 0.99373 0.70383 0.0
C1496 C 0.83878 0.08904 0.76858 0.0
C1497 C 0.8272 0.08255 0.78532 0.0
C1498 C 0.83819 0.06483 0.75587 0.0
C1499 C 0.82636 0.0335 0.75967 0.0
C1500 C 0.81428 0.02707 0.77632 0.0
C1501 C 0.81445 0.05148 0.78901 0.0
C1502 C 0.84568 0.95282 0.73803 0.0
C1503 C 0.83561 0.95849 0.72097 0.0
C1504 C 0.84186 0.97691 0.75067 0.0
C1505 C 0.82824 0.0073 0.74648 0.0
C1506 C 0.81796 0.01296 0.72946 0.0
C1507 C 0.82139 0.98869 0.71684 0.0
H1508 H 0.75442 0.05661 0.55729 0.0
H1509 H 0.68743 0.09353 0.51891 0.0
H1510 H 0.79709 0.05097 0.53511 0.0
H1511 H 0.72989 0.08753 0.49682 0.0
H1512 H 0.80943 0.0448 0.45958 0.0
H1513 H 0.76535 0.04335 0.48134 0.0
H1514 H 0.82822 0.09388 0.51742 0.0
H1515 H 0.87168 0.09579 0.49589 0.0
C1516 C 0.7487 0.0632 0.54412 0.0
C1517 C 0.71766 0.0758 0.5399 0.0
C1518 C 0.77312 0.06003 0.53144 0.0
C1519 C 0.76679 0.06883 0.51424 0.0
C1520 C 0.73539 0.08031 0.50992 0.0
C1521 C 0.7112 0.08399 0.52263 0.0
C1522 C 0.81375 0.05553 0.47217 0.0
C1523 C 0.84395 0.07062 0.47594 0.0
C1524 C 0.78857 0.05474 0.48459 0.0
C1525 C 0.79347 0.06834 0.50111 0.0
C1526 C 0.82384 0.08287 0.5049 0.0
C1527 C 0.84864 0.08421 0.49246 0.0
H1528 H 0.6163 0.07402 0.24264 0.0
H1529 H 0.6792 0.02477 0.20581 0.0
H1530 H 0.61366 0.02446 0.25988 0.0
H1531 H 0.67598 0.97483 0.22311 0.0
H1532 H 0.62701 0.88606 0.25518 0.0
H1533 H 0.62617 0.93294 0.23536 0.0
H1534 H 0.66448 0.99487 0.27576 0.0
H1535 H 0.66599 0.94865 0.29525 0.0
C1536 C 0.62935 0.05255 0.23815 0.0
C1537 C 0.64821 0.05335 0.22295 0.0
C1538 C 0.62775 0.02423 0.248 0.0
C1539 C 0.64451 0.99599 0.24272 0.0
C1540 C 0.66263 0.99633 0.2273 0.0
C1541 C 0.66471 0.02492 0.21755 0.0
C1542 C 0.6352 0.90973 0.25974 0.0
C1543 C 0.64667 0.91372 0.2767 0.0
C1544 C 0.63487 0.93636 0.24843 0.0
C1545 C 0.6452 0.96733 0.25415 0.0
C1546 C 0.65626 0.97125 0.27112 0.0
C1547 C 0.65724 0.94472 0.28222 0.0
H1548 H 0.68947 0.91017 0.96802 0.0
H1549 H 0.62466 0.8724 0.0074 0.0
H1550 H 0.7344 0.91182 0.9886 0.0
H1551 H 0.67015 0.87442 0.02823 0.0
H1552 H 0.7559 0.92484 0.0615 0.0
H1553 H 0.70796 0.92035 0.04243 0.0
H1554 H 0.76693 0.86851 1.00497 0.0
H1555 H 0.81444 0.87268 0.02383 0.0
C1556 C 0.68478 0.9022 0.9811 0.0
C1557 C 0.65347 0.89109 0.98606 0.0
C1558 C 0.71061 0.90306 0.99287 0.0
C1559 C 0.70578 0.89322 0.01 0.0
C1560 C 0.67445 0.88229 0.01511 0.0
C1561 C 0.64855 0.88092 1.00318 0.0
C1562 C 0.75855 0.91243 0.04921 0.0
C1563 C 0.78905 0.89929 0.04416 0.0
C1564 C 0.73108 0.90966 0.03838 0.0
C1565 C 0.7338 0.89415 0.02222 0.0
C1566 C 0.76418 0.88079 0.01729 0.0
C1567 C 0.79139 0.88316 0.02815 0.0
H1568 H 0.70214 0.47129 0.71126 0.0
H1569 H 0.61103 0.44041 0.73489 0.0
H1570 H 0.70679 0.51543 0.73257 0.0
H1571 H 0.61565 0.4845 0.75598 0.0
H1572 H 0.61526 0.59177 0.77412 0.0
H1573 H 0.61346 0.5466 0.75372 0.0
H1574 H 0.71372 0.52194 0.76617 0.0
H1575 H 0.71559 0.56745 0.78694 0.0
C1576 C 0.68306 0.47401 0.72093 0.0
C1577 C 0.6561 0.45249 0.72132 0.0
C1578 C 0.68592 0.49904 0.7332 0.0
C1579 C 0.6616 0.50331 0.74591 0.0
C1580 C 0.63466 0.48186 0.74626 0.0
C1581 C 0.63204 0.45662 0.73418 0.0
C1582 C 0.63701 0.57678 0.77257 0.0
C1583 C 0.66562 0.58322 0.78215 0.0
C1584 C 0.63586 0.5508 0.76093 0.0
C1585 C 0.6634 0.53078 0.75839 0.0
C1586 C 0.69219 0.53717 0.76785 0.0
C1587 C 0.69319 0.56303 0.77978 0.0
H1588 H 0.79355 0.45002 0.9608 0.0
H1589 H 0.85959 0.41087 0.99902 0.0
H1590 H 0.75056 0.45516 0.98289 0.0
H1591 H 0.81694 0.41627 0.02095 0.0
H1592 H 0.73812 0.45155 0.05892 0.0
H1593 H 0.7812 0.45839 0.03701 0.0
H1594 H 0.7195 0.4105 0.99937 0.0
H1595 H 0.67685 0.4034 0.0211 0.0
C1596 C 0.79903 0.44303 0.97394 0.0
C1597 C 0.82975 0.42973 0.97816 0.0
C1598 C 0.77447 0.44588 0.98654 0.0
C1599 C 0.78048 0.43606 1.0036 0.0
C1600 C 0.81173 0.42429 0.00795 0.0
C1601 C 0.83602 0.42095 0.99534 0.0
C1602 C 0.73374 0.44275 0.04593 0.0
C1603 C 0.7043 0.42664 0.04177 0.0
C1604 C 0.75834 0.44664 0.03343 0.0
C1605 C 0.75357 0.43506 0.0165 0.0
C1606 C 0.72368 0.42 0.01225 0.0
C1607 C 0.69942 0.41564 0.02476 0.0
H1608 H 0.87929 0.39761 0.27032 0.0
H1609 H 0.82195 0.45558 0.30603 0.0
H1610 H 0.88339 0.44456 0.25093 0.0
H1611 H 0.82692 0.50264 0.28684 0.0
H1612 H 0.88463 0.58433 0.25577 0.0
H1613 H 0.87999 0.53728 0.275 0.0
H1614 H 0.83681 0.48069 0.23381 0.0
H1615 H 0.84055 0.52797 0.21464 0.0
C1616 C 0.86775 0.4204 0.27406 0.0
C1617 C 0.85026 0.42295 0.28967 0.0
C1618 C 0.86999 0.44713 0.26295 0.0
C1619 C 0.85547 0.47707 0.26745 0.0
C1620 C 0.83839 0.47979 0.28314 0.0
C1621 C 0.83547 0.45286 0.29406 0.0
C1622 C 0.8741 0.56187 0.25083 0.0
C1623 C 0.86289 0.55981 0.23372 0.0
C1624 C 0.87137 0.53506 0.26183 0.0
C1625 C 0.85812 0.50549 0.25582 0.0
C1626 C 0.84725 0.50325 0.23869 0.0
C1627 C 0.84925 0.5303 0.22778 0.0
H1628 H 0.71085 0.5579 0.4508 0.0
H1629 H 0.64462 0.59611 0.48955 0.0
H1630 H 0.75714 0.56563 0.47067 0.0
H1631 H 0.69061 0.6032 0.50937 0.0
H1632 H 0.77726 0.57621 0.54523 0.0
H1633 H 0.73237 0.56554 0.52505 0.0
H1634 H 0.78508 0.61702 0.4852 0.0
H1635 H 0.82985 0.62824 0.50545 0.0
C1636 C 0.70615 0.56766 0.46358 0.0
C1637 C 0.6741 0.57645 0.46859 0.0
C1638 C 0.73262 0.57223 0.4749 0.0
C1639 C 0.72741 0.58499 0.49155 0.0
C1640 C 0.6953 0.59312 0.49666 0.0
C1641 C 0.66901 0.58919 0.48526 0.0
C1642 C 0.77933 0.58521 0.53217 0.0
C1643 C 0.80705 0.60321 0.52697 0.0
C1644 C 0.75359 0.57916 0.52064 0.0
C1645 C 0.75529 0.59042 0.50357 0.0
C1646 C 0.78326 0.60786 0.49825 0.0
C1647 C 0.80874 0.61446 0.50988 0.0
H1648 H 0.28445 0.55454 0.29553 0.0
H1649 H 0.37626 0.58579 0.2727 0.0
H1650 H 0.28545 0.50539 0.2771 0.0
H1651 H 0.37725 0.53715 0.25481 0.0
H1652 H 0.38998 0.4287 0.24378 0.0
H1653 H 0.38305 0.4755 0.26296 0.0
H1654 H 0.28593 0.49186 0.24255 0.0
H1655 H 0.29286 0.44497 0.22306 0.0
C1656 C 0.30464 0.55107 0.28658 0.0
C1657 C 0.33026 0.57409 0.28563 0.0
C1658 C 0.30517 0.52305 0.27605 0.0
C1659 C 0.33162 0.51745 0.2647 0.0
C1660 C 0.3568 0.5407 0.2636 0.0
C1661 C 0.35604 0.5687 0.27383 0.0
C1662 C 0.36703 0.44207 0.24341 0.0
C1663 C 0.34209 0.43328 0.23177 0.0
C1664 C 0.3631 0.46887 0.2544 0.0
C1665 C 0.33399 0.48727 0.25417 0.0
C1666 C 0.30852 0.47792 0.24301 0.0
C1667 C 0.31263 0.45128 0.2318 0.0
H1668 H 0.36347 0.59622 0.99417 0.0
H1669 H 0.29725 0.553 0.95701 0.0
H1670 H 0.32006 0.59528 0.0159 0.0
H1671 H 0.25362 0.55237 0.97884 0.0
H1672 H 0.17815 0.60169 0.01653 0.0
H1673 H 0.22146 0.59696 0.9949 0.0
H1674 H 0.2855 0.55353 0.03267 0.0
H1675 H 0.2419 0.55798 0.05444 0.0
C1676 C 0.33964 0.5865 0.99063 0.0
C1677 C 0.33374 0.57483 0.97382 0.0
C1678 C 0.31488 0.58573 1.00314 0.0
C1679 C 0.28352 0.57371 0.99906 0.0
C1680 C 0.27757 0.5619 0.98229 0.0
C1681 C 0.30254 0.56219 0.96983 0.0
C1682 C 0.20142 0.59103 0.02025 0.0
C1683 C 0.20667 0.58035 0.03724 0.0
C1684 C 0.22611 0.5881 0.0078 0.0
C1685 C 0.25679 0.57486 0.0121 0.0
C1686 C 0.26208 0.56398 0.02905 0.0
C1687 C 0.23714 0.56643 0.04148 0.0
H1688 H 0.14958 0.39061 0.76512 0.0
H1689 H 0.18374 0.45721 0.80459 0.0
H1690 H 0.14669 0.43549 0.74465 0.0
H1691 H 0.18045 0.50236 0.784 0.0
H1692 H 0.12487 0.57488 0.74742 0.0
H1693 H 0.132 0.53042 0.768 0.0
H1694 H 0.18618 0.47549 0.72975 0.0
H1695 H 0.17939 0.51999 0.70918 0.0
C1696 C 0.15665 0.41483 0.7694 0.0
C1697 C 0.16683 0.42043 0.78647 0.0
C1698 C 0.15511 0.44046 0.75764 0.0
C1699 C 0.16324 0.47235 0.76277 0.0
C1700 C 0.17384 0.47798 0.77978 0.0
C1701 C 0.17592 0.45217 0.7915 0.0
C1702 C 0.1382 0.55327 0.74338 0.0
C1703 C 0.15144 0.55086 0.72665 0.0
C1704 C 0.14253 0.528 0.75521 0.0
C1705 C 0.15975 0.49964 0.75046 0.0
C1706 C 0.17272 0.49708 0.7337 0.0
C1707 C 0.16884 0.52254 0.72196 0.0
H1708 H 0.18229 0.41058 0.46325 0.0
H1709 H 0.1207 0.37016 0.50329 0.0
H1710 H 0.22948 0.40859 0.48249 0.0
H1711 H 0.16828 0.36851 0.52271 0.0
H1712 H 0.25598 0.41163 0.55588 0.0
H1713 H 0.20723 0.41104 0.53734 0.0
H1714 H 0.26355 0.36444 0.49693 0.0
H1715 H 0.31201 0.36471 0.51537 0.0
C1716 C 0.17882 0.40118 0.47617 0.0
C1717 C 0.14771 0.39048 0.48173 0.0
C1718 C 0.20592 0.39995 0.48716 0.0
C1719 C 0.20257 0.38842 0.5041 0.0
C1720 C 0.1715 0.37771 0.50974 0.0
C1721 C 0.14437 0.37843 0.4986 0.0
C1722 C 0.25793 0.40127 0.54304 0.0
C1723 C 0.28792 0.38832 0.53709 0.0
C1724 C 0.22997 0.40071 0.53249 0.0
C1725 C 0.23161 0.3877 0.5157 0.0
C1726 C 0.26159 0.37482 0.50977 0.0
C1727 C 0.28933 0.37491 0.52037 0.0
loop_
_geom_bond_atom_site_label_1
_geom_bond_atom_site_label_2
_geom_bond_distance
_geom_bond_site_symmetry_2
_ccdc_geom_bond_type
C0 O2 1.247 . S
C0 O4 1.258 . S
C1 O8 1.247 . S
C1 O9 1.258 . S
O2 C0 1.247 . S
O2 Zn3 2.028 . S
Zn3 O2 2.028 . S
Zn3 O7 2.035 . S
Zn3 O9 2.035 . S
Zn3 O10 2.028 . S
O4 C0 1.258 . S
O4 Zn5 2.035 . S
Zn5 O4 2.035 . S
Zn5 O6 2.028 . S
Zn5 O8 2.028 . S
Zn5 O11 2.035 . S
O6 Zn5 2.028 . S
O6 C12 1.247 . S
O7 Zn3 2.035 . S
O7 C12 1.258 . S
O8 C1 1.247 . S
O8 Zn5 2.028 . S
O9 C1 1.258 . S
O9 Zn3 2.035 . S
O10 Zn3 2.028 . S
O10 C13 1.247 . S
O11 Zn5 2.035 . S
O11 C13 1.258 . S
C12 O6 1.247 . S
C12 O7 1.258 . S
C13 O10 1.247 . S
C13 O11 1.258 . S
C14 O16 1.247 . S
C14 O18 1.258 . S
C15 O22 1.247 . S
C15 O23 1.258 . S
O16 C14 1.247 . S
O16 Zn17 2.028 . S
Zn17 O16 2.028 . S
Zn17 O21 2.035 . S
Zn17 O23 2.035 . S
Zn17 O24 2.028 . S
O18 C14 1.258 . S
O18 Zn19 2.035 . S
Zn19 O18 2.035 . S
Zn19 O20 2.028 . S
Zn19 O22 2.028 . S
Zn19 O25 2.035 . S
O20 Zn19 2.028 . S
O20 C26 1.247 . S
O21 Zn17 2.035 . S
O21 C26 1.258 . S
O22 C15 1.247 . S
O22 Zn19 2.028 . S
O23 C15 1.258 . S
O23 Zn17 2.035 . S
O24 Zn17 2.028 . S
O24 C27 1.247 . S
O25 Zn19 2.035 . S
O25 C27 1.258 . S
C26 O20 1.247 . S
C26 O21 1.258 . S
C27 O24 1.247 . S
C27 O25 1.258 . S
C28 O30 1.247 . S
C28 O32 1.258 . S
C29 O36 1.247 . S
C29 O37 1.258 . S
O30 C28 1.247 . S
O30 Zn31 2.028 . S
Zn31 O30 2.028 . S
Zn31 O35 2.035 . S
Zn31 O37 2.035 . S
Zn31 O38 2.028 . S
O32 C28 1.258 . S
O32 Zn33 2.035 . S
Zn33 O32 2.035 . S
Zn33 O34 2.028 . S
Zn33 O36 2.028 . S
Zn33 O39 2.035 . S
O34 Zn33 2.028 . S
O34 C40 1.247 . S
O35 Zn31 2.035 . S
O35 C40 1.258 . S
O36 C29 1.247 . S
O36 Zn33 2.028 . S
O37 C29 1.258 . S
O37 Zn31 2.035 . S
O38 Zn31 2.028 . S
O38 C41 1.247 . S
O39 Zn33 2.035 . S
O39 C41 1.258 . S
C40 O34 1.247 . S
C40 O35 1.258 . S
C41 O38 1.247 . S
C41 O39 1.258 . S
C42 O44 1.247 . S
C42 O46 1.258 . S
C43 O50 1.247 . S
C43 O51 1.258 . S
O44 C42 1.247 . S
O44 Zn45 2.028 . S
Zn45 O44 2.028 . S
Zn45 O49 2.035 . S
Zn45 O51 2.035 . S
Zn45 O52 2.028 . S
O46 C42 1.258 . S
O46 Zn47 2.035 . S
Zn47 O46 2.035 . S
Zn47 O48 2.028 . S
Zn47 O50 2.028 . S
Zn47 O53 2.035 . S
O48 Zn47 2.028 . S
O48 C54 1.247 . S
O49 Zn45 2.035 . S
O49 C54 1.258 . S
O50 C43 1.247 . S
O50 Zn47 2.028 . S
O51 C43 1.258 . S
O51 Zn45 2.035 . S
O52 Zn45 2.028 . S
O52 C55 1.247 . S
O53 Zn47 2.035 . S
O53 C55 1.258 . S
C54 O48 1.247 . S
C54 O49 1.258 . S
C55 O52 1.247 . S
C55 O53 1.258 . S
C56 O58 1.247 . S
C56 O60 1.258 . S
C57 O64 1.247 . S
C57 O65 1.258 . S
O58 C56 1.247 . S
O58 Zn59 2.028 . S
Zn59 O58 2.028 . S
Zn59 O63 2.035 . S
Zn59 O65 2.035 . S
Zn59 O66 2.028 . S
O60 C56 1.258 . S
O60 Zn61 2.035 . S
Zn61 O60 2.035 . S
Zn61 O62 2.028 . S
Zn61 O64 2.028 . S
Zn61 O67 2.035 . S
O62 Zn61 2.028 . S
O62 C68 1.247 . S
O63 Zn59 2.035 . S
O63 C68 1.258 . S
O64 C57 1.247 . S
O64 Zn61 2.028 . S
O65 C57 1.258 . S
O65 Zn59 2.035 . S
O66 Zn59 2.028 . S
O66 C69 1.247 . S
O67 Zn61 2.035 . S
O67 C69 1.258 . S
C68 O62 1.247 . S
C68 O63 1.258 . S
C69 O66 1.247 . S
C69 O67 1.258 . S
C70 O72 1.247 . S
C70 O74 1.258 . S
C71 O78 1.247 . S
C71 O79 1.258 . S
O72 C70 1.247 . S
O72 Zn73 2.028 . S
Zn73 O72 2.028 . S
Zn73 O77 2.035 . S
Zn73 O79 2.035 . S
Zn73 O80 2.028 . S
O74 C70 1.258 . S
O74 Zn75 2.035 . S
Zn75 O74 2.035 . S
Zn75 O76 2.028 . S
Zn75 O78 2.028 . S
Zn75 O81 2.035 . S
O76 Zn75 2.028 . S
O76 C82 1.247 . S
O77 Zn73 2.035 . S
O77 C82 1.258 . S
O78 C71 1.247 . S
O78 Zn75 2.028 . S
O79 C71 1.258 . S
O79 Zn73 2.035 . S
O80 Zn73 2.028 . S
O80 C83 1.247 . S
O81 Zn75 2.035 . S
O81 C83 1.258 . S
C82 O76 1.247 . S
C82 O77 1.258 . S
C83 O80 1.247 . S
C83 O81 1.258 . S
C84 O86 1.247 . S
C84 O88 1.258 . S
C85 O92 1.247 . S
C85 O93 1.258 . S
O86 C84 1.247 . S
O86 Zn87 2.028 . S
Zn87 O86 2.028 . S
Zn87 O91 2.035 . S
Zn87 O93 2.035 . S
Zn87 O94 2.028 . S
O88 C84 1.258 . S
O88 Zn89 2.035 . S
Zn89 O88 2.035 . S
Zn89 O90 2.028 . S
Zn89 O92 2.028 . S
Zn89 O95 2.035 . S
O90 Zn89 2.028 . S
O90 C96 1.247 . S
O91 Zn87 2.035 . S
O91 C96 1.258 . S
O92 C85 1.247 . S
O92 Zn89 2.028 . S
O93 C85 1.258 . S
O93 Zn87 2.035 . S
O94 Zn87 2.028 . S
O94 C97 1.247 . S
O95 Zn89 2.035 . S
O95 C97 1.258 . S
C96 O90 1.247 . S
C96 O91 1.258 . S
C97 O94 1.247 . S
C97 O95 1.258 . S
C98 O100 1.247 . S
C98 O102 1.258 . S
C99 O106 1.247 . S
C99 O107 1.258 . S
O100 C98 1.247 . S
O100 Zn101 2.028 . S
Zn101 O100 2.028 . S
Zn101 O105 2.035 . S
Zn101 O107 2.035 . S
Zn101 O108 2.028 . S
O102 C98 1.258 . S
O102 Zn103 2.035 . S
Zn103 O102 2.035 . S
Zn103 O104 2.028 . S
Zn103 O106 2.028 . S
Zn103 O109 2.035 . S
O104 Zn103 2.028 . S
O104 C110 1.247 . S
O105 Zn101 2.035 . S
O105 C110 1.258 . S
O106 C99 1.247 . S
O106 Zn103 2.028 . S
O107 C99 1.258 . S
O107 Zn101 2.035 . S
O108 Zn101 2.028 . S
O108 C111 1.247 . S
O109 Zn103 2.035 . S
O109 C111 1.258 . S
C110 O104 1.247 . S
C110 O105 1.258 . S
C111 O108 1.247 . S
C111 O109 1.258 . S
C112 O114 1.247 . S
C112 O116 1.258 . S
C113 O120 1.247 . S
C113 O121 1.258 . S
O114 C112 1.247 . S
O114 Zn115 2.028 . S
Zn115 O114 2.028 . S
Zn115 O119 2.035 . S
Zn115 O121 2.035 . S
Zn115 O122 2.028 . S
O116 C112 1.258 . S
O116 Zn117 2.035 . S
Zn117 O116 2.035 . S
Zn117 O118 2.028 . S
Zn117 O120 2.028 . S
Zn117 O123 2.035 . S
O118 Zn117 2.028 . S
O118 C124 1.247 . S
O119 Zn115 2.035 . S
O119 C124 1.258 . S
O120 C113 1.247 . S
O120 Zn117 2.028 . S
O121 C113 1.258 . S
O121 Zn115 2.035 . S
O122 Zn115 2.028 . S
O122 C125 1.247 . S
O123 Zn117 2.035 . S
O123 C125 1.258 . S
C124 O118 1.247 . S
C124 O119 1.258 . S
C125 O122 1.247 . S
C125 O123 1.258 . S
C126 O128 1.247 . S
C126 O130 1.258 . S
C127 O134 1.247 . S
C127 O135 1.258 . S
O128 C126 1.247 . S
O128 Zn129 2.028 . S
Zn129 O128 2.028 . S
Zn129 O133 2.035 . S
Zn129 O135 2.035 . S
Zn129 O136 2.028 . S
O130 C126 1.258 . S
O130 Zn131 2.035 . S
Zn131 O130 2.035 . S
Zn131 O132 2.028 . S
Zn131 O134 2.028 . S
Zn131 O137 2.035 . S
O132 Zn131 2.028 . S
O132 C138 1.247 . S
O133 Zn129 2.035 . S
O133 C138 1.258 . S
O134 C127 1.247 . S
O134 Zn131 2.028 . S
O135 C127 1.258 . S
O135 Zn129 2.035 . S
O136 Zn129 2.028 . S
O136 C139 1.247 . S
O137 Zn131 2.035 . S
O137 C139 1.258 . S
C138 O132 1.247 . S
C138 O133 1.258 . S
C139 O136 1.247 . S
C139 O137 1.258 . S
C140 O142 1.247 . S
C140 O144 1.258 . S
C141 O148 1.247 . S
C141 O149 1.258 . S
O142 C140 1.247 . S
O142 Zn143 2.028 . S
Zn143 O142 2.028 . S
Zn143 O147 2.035 . S
Zn143 O149 2.035 . S
Zn143 O150 2.028 . S
O144 C140 1.258 . S
O144 Zn145 2.035 . S
Zn145 O144 2.035 . S
Zn145 O146 2.028 . S
Zn145 O148 2.028 . S
Zn145 O151 2.035 . S
O146 Zn145 2.028 . S
O146 C152 1.247 . S
O147 Zn143 2.035 . S
O147 C152 1.258 . S
O148 C141 1.247 . S
O148 Zn145 2.028 . S
O149 C141 1.258 . S
O149 Zn143 2.035 . S
O150 Zn143 2.028 . S
O150 C153 1.247 . S
O151 Zn145 2.035 . S
O151 C153 1.258 . S
C152 O146 1.247 . S
C152 O147 1.258 . S
C153 O150 1.247 . S
C153 O151 1.258 . S
C154 O156 1.247 . S
C154 O158 1.258 . S
C155 O162 1.247 . S
C155 O163 1.258 . S
O156 C154 1.247 . S
O156 Zn157 2.028 . S
Zn157 O156 2.028 . S
Zn157 O161 2.035 . S
Zn157 O163 2.035 . S
Zn157 O164 2.028 . S
O158 C154 1.258 . S
O158 Zn159 2.035 . S
Zn159 O158 2.035 . S
Zn159 O160 2.028 . S
Zn159 O162 2.028 . S
Zn159 O165 2.035 . S
O160 Zn159 2.028 . S
O160 C166 1.247 . S
O161 Zn157 2.035 . S
O161 C166 1.258 . S
O162 C155 1.247 . S
O162 Zn159 2.028 . S
O163 C155 1.258 . S
O163 Zn157 2.035 . S
O164 Zn157 2.028 . S
O164 C167 1.247 . S
O165 Zn159 2.035 . S
O165 C167 1.258 . S
C166 O160 1.247 . S
C166 O161 1.258 . S
C167 O164 1.247 . S
C167 O165 1.258 . S
C168 O170 1.247 . S
C168 O172 1.258 . S
C169 O176 1.247 . S
C169 O177 1.258 . S
O170 C168 1.247 . S
O170 Zn171 2.028 . S
Zn171 O170 2.028 . S
Zn171 O175 2.035 . S
Zn171 O177 2.035 . S
Zn171 O178 2.028 . S
O172 C168 1.258 . S
O172 Zn173 2.035 . S
Zn173 O172 2.035 . S
Zn173 O174 2.028 . S
Zn173 O176 2.028 . S
Zn173 O179 2.035 . S
O174 Zn173 2.028 . S
O174 C180 1.247 . S
O175 Zn171 2.035 . S
O175 C180 1.258 . S
O176 C169 1.247 . S
O176 Zn173 2.028 . S
O177 C169 1.258 . S
O177 Zn171 2.035 . S
O178 Zn171 2.028 . S
O178 C181 1.247 . S
O179 Zn173 2.035 . S
O179 C181 1.258 . S
C180 O174 1.247 . S
C180 O175 1.258 . S
C181 O178 1.247 . S
C181 O179 1.258 . S
C182 O184 1.247 . S
C182 O186 1.258 . S
C183 O190 1.247 . S
C183 O191 1.258 . S
O184 C182 1.247 . S
O184 Zn185 2.028 . S
Zn185 O184 2.028 . S
Zn185 O189 2.035 . S
Zn185 O191 2.035 . S
Zn185 O192 2.028 . S
O186 C182 1.258 . S
O186 Zn187 2.035 . S
Zn187 O186 2.035 . S
Zn187 O188 2.028 . S
Zn187 O190 2.028 . S
Zn187 O193 2.035 . S
O188 Zn187 2.028 . S
O188 C194 1.247 . S
O189 Zn185 2.035 . S
O189 C194 1.258 . S
O190 C183 1.247 . S
O190 Zn187 2.028 . S
O191 C183 1.258 . S
O191 Zn185 2.035 . S
O192 Zn185 2.028 . S
O192 C195 1.247 . S
O193 Zn187 2.035 . S
O193 C195 1.258 . S
C194 O188 1.247 . S
C194 O189 1.258 . S
C195 O192 1.247 . S
C195 O193 1.258 . S
C196 O198 1.247 . S
C196 O200 1.258 . S
C197 O204 1.247 . S
C197 O205 1.258 . S
O198 C196 1.247 . S
O198 Zn199 2.028 . S
Zn199 O198 2.028 . S
Zn199 O203 2.035 . S
Zn199 O205 2.035 . S
Zn199 O206 2.028 . S
O200 C196 1.258 . S
O200 Zn201 2.035 . S
Zn201 O200 2.035 . S
Zn201 O202 2.028 . S
Zn201 O204 2.028 . S
Zn201 O207 2.035 . S
O202 Zn201 2.028 . S
O202 C208 1.247 . S
O203 Zn199 2.035 . S
O203 C208 1.258 . S
O204 C197 1.247 . S
O204 Zn201 2.028 . S
O205 C197 1.258 . S
O205 Zn199 2.035 . S
O206 Zn199 2.028 . S
O206 C209 1.247 . S
O207 Zn201 2.035 . S
O207 C209 1.258 . S
C208 O202 1.247 . S
C208 O203 1.258 . S
C209 O206 1.247 . S
C209 O207 1.258 . S
C210 O212 1.247 . S
C210 O214 1.258 . S
C211 O218 1.247 . S
C211 O219 1.258 . S
O212 C210 1.247 . S
O212 Zn213 2.028 . S
Zn213 O212 2.028 . S
Zn213 O217 2.035 . S
Zn213 O219 2.035 . S
Zn213 O220 2.028 . S
O214 C210 1.258 . S
O214 Zn215 2.035 . S
Zn215 O214 2.035 . S
Zn215 O216 2.028 . S
Zn215 O218 2.028 . S
Zn215 O221 2.035 . S
O216 Zn215 2.028 . S
O216 C222 1.247 . S
O217 Zn213 2.035 . S
O217 C222 1.258 . S
O218 C211 1.247 . S
O218 Zn215 2.028 . S
O219 C211 1.258 . S
O219 Zn213 2.035 . S
O220 Zn213 2.028 . S
O220 C223 1.247 . S
O221 Zn215 2.035 . S
O221 C223 1.258 . S
C222 O216 1.247 . S
C222 O217 1.258 . S
C223 O220 1.247 . S
C223 O221 1.258 . S
C224 O226 1.247 . S
C224 O228 1.258 . S
C225 O232 1.247 . S
C225 O233 1.258 . S
O226 C224 1.247 . S
O226 Zn227 2.028 . S
Zn227 O226 2.028 . S
Zn227 O231 2.035 . S
Zn227 O233 2.035 . S
Zn227 O234 2.028 . S
O228 C224 1.258 . S
O228 Zn229 2.035 . S
Zn229 O228 2.035 . S
Zn229 O230 2.028 . S
Zn229 O232 2.028 . S
Zn229 O235 2.035 . S
O230 Zn229 2.028 . S
O230 C236 1.247 . S
O231 Zn227 2.035 . S
O231 C236 1.258 . S
O232 C225 1.247 . S
O232 Zn229 2.028 . S
O233 C225 1.258 . S
O233 Zn227 2.035 . S
O234 Zn227 2.028 . S
O234 C237 1.247 . S
O235 Zn229 2.035 . S
O235 C237 1.258 . S
C236 O230 1.247 . S
C236 O231 1.258 . S
C237 O234 1.247 . S
C237 O235 1.258 . S
C238 O240 1.247 . S
C238 O242 1.258 . S
C239 O246 1.247 . S
C239 O247 1.258 . S
O240 C238 1.247 . S
O240 Zn241 2.028 . S
Zn241 O240 2.028 . S
Zn241 O245 2.035 . S
Zn241 O247 2.035 . S
Zn241 O248 2.028 . S
O242 C238 1.258 . S
O242 Zn243 2.035 . S
Zn243 O242 2.035 . S
Zn243 O244 2.028 . S
Zn243 O246 2.028 . S
Zn243 O249 2.035 . S
O244 Zn243 2.028 . S
O244 C250 1.247 . S
O245 Zn241 2.035 . S
O245 C250 1.258 . S
O246 C239 1.247 . S
O246 Zn243 2.028 . S
O247 C239 1.258 . S
O247 Zn241 2.035 . S
O248 Zn241 2.028 . S
O248 C251 1.247 . S
O249 Zn243 2.035 . S
O249 C251 1.258 . S
C250 O244 1.247 . S
C250 O245 1.258 . S
C251 O248 1.247 . S
C251 O249 1.258 . S
C252 O254 1.247 . S
C252 O256 1.258 . S
C253 O260 1.247 . S
C253 O261 1.258 . S
O254 C252 1.247 . S
O254 Zn255 2.028 . S
Zn255 O254 2.028 . S
Zn255 O259 2.035 . S
Zn255 O261 2.035 . S
Zn255 O262 2.028 . S
O256 C252 1.258 . S
O256 Zn257 2.035 . S
Zn257 O256 2.035 . S
Zn257 O258 2.028 . S
Zn257 O260 2.028 . S
Zn257 O263 2.035 . S
O258 Zn257 2.028 . S
O258 C264 1.247 . S
O259 Zn255 2.035 . S
O259 C264 1.258 . S
O260 C253 1.247 . S
O260 Zn257 2.028 . S
O261 C253 1.258 . S
O261 Zn255 2.035 . S
O262 Zn255 2.028 . S
O262 C265 1.247 . S
O263 Zn257 2.035 . S
O263 C265 1.258 . S
C264 O258 1.247 . S
C264 O259 1.258 . S
C265 O262 1.247 . S
C265 O263 1.258 . S
C266 O268 1.247 . S
C266 O270 1.258 . S
C267 O274 1.247 . S
C267 O275 1.258 . S
O268 C266 1.247 . S
O268 Zn269 2.028 . S
Zn269 O268 2.028 . S
Zn269 O273 2.035 . S
Zn269 O275 2.035 . S
Zn269 O276 2.028 . S
O270 C266 1.258 . S
O270 Zn271 2.035 . S
Zn271 O270 2.035 . S
Zn271 O272 2.028 . S
Zn271 O274 2.028 . S
Zn271 O277 2.035 . S
O272 Zn271 2.028 . S
O272 C278 1.247 . S
O273 Zn269 2.035 . S
O273 C278 1.258 . S
O274 C267 1.247 . S
O274 Zn271 2.028 . S
O275 C267 1.258 . S
O275 Zn269 2.035 . S
O276 Zn269 2.028 . S
O276 C279 1.247 . S
O277 Zn271 2.035 . S
O277 C279 1.258 . S
C278 O272 1.247 . S
C278 O273 1.258 . S
C279 O276 1.247 . S
C279 O277 1.258 . S
C280 O282 1.247 . S
C280 O284 1.258 . S
C281 O288 1.247 . S
C281 O289 1.258 . S
O282 C280 1.247 . S
O282 Zn283 2.028 . S
Zn283 O282 2.028 . S
Zn283 O287 2.035 . S
Zn283 O289 2.035 . S
Zn283 O290 2.028 . S
O284 C280 1.258 . S
O284 Zn285 2.035 . S
Zn285 O284 2.035 . S
Zn285 O286 2.028 . S
Zn285 O288 2.028 . S
Zn285 O291 2.035 . S
O286 Zn285 2.028 . S
O286 C292 1.247 . S
O287 Zn283 2.035 . S
O287 C292 1.258 . S
O288 C281 1.247 . S
O288 Zn285 2.028 . S
O289 C281 1.258 . S
O289 Zn283 2.035 . S
O290 Zn283 2.028 . S
O290 C293 1.247 . S
O291 Zn285 2.035 . S
O291 C293 1.258 . S
C292 O286 1.247 . S
C292 O287 1.258 . S
C293 O290 1.247 . S
C293 O291 1.258 . S
C294 O296 1.247 . S
C294 O298 1.258 . S
C295 O302 1.247 . S
C295 O303 1.258 . S
O296 C294 1.247 . S
O296 Zn297 2.028 . S
Zn297 O296 2.028 . S
Zn297 O301 2.035 . S
Zn297 O303 2.035 . S
Zn297 O304 2.028 . S
O298 C294 1.258 . S
O298 Zn299 2.035 . S
Zn299 O298 2.035 . S
Zn299 O300 2.028 . S
Zn299 O302 2.028 . S
Zn299 O305 2.035 . S
O300 Zn299 2.028 . S
O300 C306 1.247 . S
O301 Zn297 2.035 . S
O301 C306 1.258 . S
O302 C295 1.247 . S
O302 Zn299 2.028 . S
O303 C295 1.258 . S
O303 Zn297 2.035 . S
O304 Zn297 2.028 . S
O304 C307 1.247 . S
O305 Zn299 2.035 . S
O305 C307 1.258 . S
C306 O300 1.247 . S
C306 O301 1.258 . S
C307 O304 1.247 . S
C307 O305 1.258 . S
C308 O310 1.247 . S
C308 O312 1.258 . S
C309 O316 1.247 . S
C309 O317 1.258 . S
O310 C308 1.247 . S
O310 Zn311 2.028 . S
Zn311 O310 2.028 . S
Zn311 O315 2.035 . S
Zn311 O317 2.035 . S
Zn311 O318 2.028 . S
O312 C308 1.258 . S
O312 Zn313 2.035 . S
Zn313 O312 2.035 . S
Zn313 O314 2.028 . S
Zn313 O316 2.028 . S
Zn313 O319 2.035 . S
O314 Zn313 2.028 . S
O314 C320 1.247 . S
O315 Zn311 2.035 . S
O315 C320 1.258 . S
O316 C309 1.247 . S
O316 Zn313 2.028 . S
O317 C309 1.258 . S
O317 Zn311 2.035 . S
O318 Zn311 2.028 . S
O318 C321 1.247 . S
O319 Zn313 2.035 . S
O319 C321 1.258 . S
C320 O314 1.247 . S
C320 O315 1.258 . S
C321 O318 1.247 . S
C321 O319 1.258 . S
C322 O324 1.247 . S
C322 O326 1.258 . S
C323 O330 1.247 . S
C323 O331 1.258 . S
O324 C322 1.247 . S
O324 Zn325 2.028 . S
Zn325 O324 2.028 . S
Zn325 O329 2.035 . S
Zn325 O331 2.035 . S
Zn325 O332 2.028 . S
O326 C322 1.258 . S
O326 Zn327 2.035 . S
Zn327 O326 2.035 . S
Zn327 O328 2.028 . S
Zn327 O330 2.028 . S
Zn327 O333 2.035 . S
O328 Zn327 2.028 . S
O328 C334 1.247 . S
O329 Zn325 2.035 . S
O329 C334 1.258 . S
O330 C323 1.247 . S
O330 Zn327 2.028 . S
O331 C323 1.258 . S
O331 Zn325 2.035 . S
O332 Zn325 2.028 . S
O332 C335 1.247 . S
O333 Zn327 2.035 . S
O333 C335 1.258 . S
C334 O328 1.247 . S
C334 O329 1.258 . S
C335 O332 1.247 . S
C335 O333 1.258 . S
C336 O338 1.247 . S
C336 O340 1.258 . S
C337 O344 1.247 . S
C337 O345 1.258 . S
O338 C336 1.247 . S
O338 Zn339 2.028 . S
Zn339 O338 2.028 . S
Zn339 O343 2.035 . S
Zn339 O345 2.035 . S
Zn339 O346 2.028 . S
O340 C336 1.258 . S
O340 Zn341 2.035 . S
Zn341 O340 2.035 . S
Zn341 O342 2.028 . S
Zn341 O344 2.028 . S
Zn341 O347 2.035 . S
O342 Zn341 2.028 . S
O342 C348 1.247 . S
O343 Zn339 2.035 . S
O343 C348 1.258 . S
O344 C337 1.247 . S
O344 Zn341 2.028 . S
O345 C337 1.258 . S
O345 Zn339 2.035 . S
O346 Zn339 2.028 . S
O346 C349 1.247 . S
O347 Zn341 2.035 . S
O347 C349 1.258 . S
C348 O342 1.247 . S
C348 O343 1.258 . S
C349 O346 1.247 . S
C349 O347 1.258 . S
C350 O352 1.247 . S
C350 O354 1.258 . S
C351 O358 1.247 . S
C351 O359 1.258 . S
O352 C350 1.247 . S
O352 Zn353 2.028 . S
Zn353 O352 2.028 . S
Zn353 O357 2.035 . S
Zn353 O359 2.035 . S
Zn353 O360 2.028 . S
O354 C350 1.258 . S
O354 Zn355 2.035 . S
Zn355 O354 2.035 . S
Zn355 O356 2.028 . S
Zn355 O358 2.028 . S
Zn355 O361 2.035 . S
O356 Zn355 2.028 . S
O356 C362 1.247 . S
O357 Zn353 2.035 . S
O357 C362 1.258 . S
O358 C351 1.247 . S
O358 Zn355 2.028 . S
O359 C351 1.258 . S
O359 Zn353 2.035 . S
O360 Zn353 2.028 . S
O360 C363 1.247 . S
O361 Zn355 2.035 . S
O361 C363 1.258 . S
C362 O356 1.247 . S
C362 O357 1.258 . S
C363 O360 1.247 . S
C363 O361 1.258 . S
C364 O366 1.247 . S
C364 O368 1.258 . S
C365 O372 1.247 . S
C365 O373 1.258 . S
O366 C364 1.247 . S
O366 Zn367 2.028 . S
Zn367 O366 2.028 . S
Zn367 O371 2.035 . S
Zn367 O373 2.035 . S
Zn367 O374 2.028 . S
O368 C364 1.258 . S
O368 Zn369 2.035 . S
Zn369 O368 2.035 . S
Zn369 O370 2.028 . S
Zn369 O372 2.028 . S
Zn369 O375 2.035 . S
O370 Zn369 2.028 . S
O370 C376 1.247 . S
O371 Zn367 2.035 . S
O371 C376 1.258 . S
O372 C365 1.247 . S
O372 Zn369 2.028 . S
O373 C365 1.258 . S
O373 Zn367 2.035 . S
O374 Zn367 2.028 . S
O374 C377 1.247 . S
O375 Zn369 2.035 . S
O375 C377 1.258 . S
C376 O370 1.247 . S
C376 O371 1.258 . S
C377 O374 1.247 . S
C377 O375 1.258 . S
C378 O380 1.247 . S
C378 O382 1.258 . S
C379 O386 1.247 . S
C379 O387 1.258 . S
O380 C378 1.247 . S
O380 Zn381 2.028 . S
Zn381 O380 2.028 . S
Zn381 O385 2.035 . S
Zn381 O387 2.035 . S
Zn381 O388 2.028 . S
O382 C378 1.258 . S
O382 Zn383 2.035 . S
Zn383 O382 2.035 . S
Zn383 O384 2.028 . S
Zn383 O386 2.028 . S
Zn383 O389 2.035 . S
O384 Zn383 2.028 . S
O384 C390 1.247 . S
O385 Zn381 2.035 . S
O385 C390 1.258 . S
O386 C379 1.247 . S
O386 Zn383 2.028 . S
O387 C379 1.258 . S
O387 Zn381 2.035 . S
O388 Zn381 2.028 . S
O388 C391 1.247 . S
O389 Zn383 2.035 . S
O389 C391 1.258 . S
C390 O384 1.247 . S
C390 O385 1.258 . S
C391 O388 1.247 . S
C391 O389 1.258 . S
C392 O394 1.247 . S
C392 O396 1.258 . S
C393 O400 1.247 . S
C393 O401 1.258 . S
O394 C392 1.247 . S
O394 Zn395 2.028 . S
Zn395 O394 2.028 . S
Zn395 O399 2.035 . S
Zn395 O401 2.035 . S
Zn395 O402 2.028 . S
O396 C392 1.258 . S
O396 Zn397 2.035 . S
Zn397 O396 2.035 . S
Zn397 O398 2.028 . S
Zn397 O400 2.028 . S
Zn397 O403 2.035 . S
O398 Zn397 2.028 . S
O398 C404 1.247 . S
O399 Zn395 2.035 . S
O399 C404 1.258 . S
O400 C393 1.247 . S
O400 Zn397 2.028 . S
O401 C393 1.258 . S
O401 Zn395 2.035 . S
O402 Zn395 2.028 . S
O402 C405 1.247 . S
O403 Zn397 2.035 . S
O403 C405 1.258 . S
C404 O398 1.247 . S
C404 O399 1.258 . S
C405 O402 1.247 . S
C405 O403 1.258 . S
C406 O408 1.247 . S
C406 O410 1.258 . S
C407 O414 1.247 . S
C407 O415 1.258 . S
O408 C406 1.247 . S
O408 Zn409 2.028 . S
Zn409 O408 2.028 . S
Zn409 O413 2.035 . S
Zn409 O415 2.035 . S
Zn409 O416 2.028 . S
O410 C406 1.258 . S
O410 Zn411 2.035 . S
Zn411 O410 2.035 . S
Zn411 O412 2.028 . S
Zn411 O414 2.028 . S
Zn411 O417 2.035 . S
O412 Zn411 2.028 . S
O412 C418 1.247 . S
O413 Zn409 2.035 . S
O413 C418 1.258 . S
O414 C407 1.247 . S
O414 Zn411 2.028 . S
O415 C407 1.258 . S
O415 Zn409 2.035 . S
O416 Zn409 2.028 . S
O416 C419 1.247 . S
O417 Zn411 2.035 . S
O417 C419 1.258 . S
C418 O412 1.247 . S
C418 O413 1.258 . S
C419 O416 1.247 . S
C419 O417 1.258 . S
C420 O422 1.247 . S
C420 O424 1.258 . S
C421 O428 1.247 . S
C421 O429 1.258 . S
O422 C420 1.247 . S
O422 Zn423 2.028 . S
Zn423 O422 2.028 . S
Zn423 O427 2.035 . S
Zn423 O429 2.035 . S
Zn423 O430 2.028 . S
O424 C420 1.258 . S
O424 Zn425 2.035 . S
Zn425 O424 2.035 . S
Zn425 O426 2.028 . S
Zn425 O428 2.028 . S
Zn425 O431 2.035 . S
O426 Zn425 2.028 . S
O426 C432 1.247 . S
O427 Zn423 2.035 . S
O427 C432 1.258 . S
O428 C421 1.247 . S
O428 Zn425 2.028 . S
O429 C421 1.258 . S
O429 Zn423 2.035 . S
O430 Zn423 2.028 . S
O430 C433 1.247 . S
O431 Zn425 2.035 . S
O431 C433 1.258 . S
C432 O426 1.247 . S
C432 O427 1.258 . S
C433 O430 1.247 . S
C433 O431 1.258 . S
C434 O436 1.247 . S
C434 O438 1.258 . S
C435 O442 1.247 . S
C435 O443 1.258 . S
O436 C434 1.247 . S
O436 Zn437 2.028 . S
Zn437 O436 2.028 . S
Zn437 O441 2.035 . S
Zn437 O443 2.035 . S
Zn437 O444 2.028 . S
O438 C434 1.258 . S
O438 Zn439 2.035 . S
Zn439 O438 2.035 . S
Zn439 O440 2.028 . S
Zn439 O442 2.028 . S
Zn439 O445 2.035 . S
O440 Zn439 2.028 . S
O440 C446 1.247 . S
O441 Zn437 2.035 . S
O441 C446 1.258 . S
O442 C435 1.247 . S
O442 Zn439 2.028 . S
O443 C435 1.258 . S
O443 Zn437 2.035 . S
O444 Zn437 2.028 . S
O444 C447 1.247 . S
O445 Zn439 2.035 . S
O445 C447 1.258 . S
C446 O440 1.247 . S
C446 O441 1.258 . S
C447 O444 1.247 . S
C447 O445 1.258 . S
H448 C456 0.950 . S
H449 C461 0.950 . S
H450 C458 0.950 . S
H451 C460 0.950 . S
H452 C462 0.950 . S
H453 C464 0.950 . S
H454 C466 0.950 . S
H455 C467 0.950 . S
C456 H448 0.950 . S
C456 C457 1.386 . S
C456 C458 1.391 . S
C457 C456 1.386 . S
C457 C461 1.393 . S
C458 H450 0.950 . S
C458 C456 1.391 . S
C458 C459 1.400 . S
C459 C458 1.400 . S
C459 C460 1.398 . S
C459 C465 1.491 . S
C460 H451 0.950 . S
C460 C459 1.398 . S
C460 C461 1.391 . S
C461 H449 0.950 . S
C461 C457 1.393 . S
C461 C460 1.391 . S
C462 H452 0.950 . S
C462 C463 1.386 . S
C462 C464 1.391 . S
C463 C462 1.386 . S
C463 C467 1.393 . S
C464 H453 0.950 . S
C464 C462 1.391 . S
C464 C465 1.400 . S
C465 C459 1.491 . S
C465 C464 1.400 . S
C465 C466 1.398 . S
C466 H454 0.950 . S
C466 C465 1.398 . S
C466 C467 1.391 . S
C467 H455 0.950 . S
C467 C463 1.393 . S
C467 C466 1.391 . S
H468 C476 0.950 . S
H469 C481 0.950 . S
H470 C478 0.950 . S
H471 C480 0.950 . S
H472 C482 0.950 . S
H473 C484 0.950 . S
H474 C486 0.950 . S
H475 C487 0.950 . S
C476 H468 0.950 . S
C476 C477 1.386 . S
C476 C478 1.391 1_455 S
C477 C476 1.386 . S
C477 C481 1.393 . S
C478 H470 0.950 . S
C478 C476 1.391 1_655 S
C478 C479 1.400 . S
C479 C478 1.400 . S
C479 C480 1.398 . S
C479 C485 1.491 . S
C480 H471 0.950 . S
C480 C479 1.398 . S
C480 C481 1.391 1_655 S
C481 H469 0.950 . S
C481 C477 1.393 . S
C481 C480 1.391 1_455 S
C482 H472 0.950 . S
C482 C483 1.386 . S
C482 C484 1.391 . S
C483 C482 1.386 . S
C483 C487 1.393 . S
C484 H473 0.950 . S
C484 C482 1.391 . S
C484 C485 1.400 . S
C485 C479 1.491 . S
C485 C484 1.400 . S
C485 C486 1.398 . S
C486 H474 0.950 . S
C486 C485 1.398 . S
C486 C487 1.391 . S
C487 H475 0.950 . S
C487 C483 1.393 . S
C487 C486 1.391 . S
H488 C496 0.950 . S
H489 C501 0.950 . S
H490 C498 0.950 . S
H491 C500 0.950 . S
H492 C502 0.950 . S
H493 C504 0.950 . S
H494 C506 0.950 . S
H495 C507 0.950 . S
C496 H488 0.950 . S
C496 C497 1.386 . S
C496 C498 1.391 . S
C497 C496 1.386 . S
C497 C501 1.393 . S
C498 H490 0.950 . S
C498 C496 1.391 . S
C498 C499 1.400 . S
C499 C498 1.400 . S
C499 C500 1.398 . S
C499 C505 1.491 . S
C500 H491 0.950 . S
C500 C499 1.398 . S
C500 C501 1.391 . S
C501 H489 0.950 . S
C501 C497 1.393 . S
C501 C500 1.391 . S
C502 H492 0.950 . S
C502 C503 1.386 . S
C502 C504 1.391 . S
C503 C502 1.386 . S
C503 C507 1.393 . S
C504 H493 0.950 . S
C504 C502 1.391 . S
C504 C505 1.400 . S
C505 C499 1.491 . S
C505 C504 1.400 . S
C505 C506 1.398 . S
C506 H494 0.950 . S
C506 C505 1.398 . S
C506 C507 1.391 . S
C507 H495 0.950 . S
C507 C503 1.393 . S
C507 C506 1.391 . S
H508 C516 0.950 . S
H509 C521 0.950 . S
H510 C518 0.950 . S
H511 C520 0.950 . S
H512 C522 0.950 . S
H513 C524 0.950 . S
H514 C526 0.950 . S
H515 C527 0.950 . S
C516 H508 0.950 . S
C516 C517 1.386 . S
C516 C518 1.391 . S
C517 C516 1.386 . S
C517 C521 1.393 . S
C518 H510 0.950 . S
C518 C516 1.391 . S
C518 C519 1.400 . S
C519 C518 1.400 . S
C519 C520 1.398 . S
C519 C525 1.491 . S
C520 H511 0.950 . S
C520 C519 1.398 . S
C520 C521 1.391 . S
C521 H509 0.950 . S
C521 C517 1.393 . S
C521 C520 1.391 . S
C522 H512 0.950 . S
C522 C523 1.386 . S
C522 C524 1.391 . S
C523 C522 1.386 . S
C523 C527 1.393 . S
C524 H513 0.950 . S
C524 C522 1.391 . S
C524 C525 1.400 . S
C525 C519 1.491 . S
C525 C524 1.400 . S
C525 C526 1.398 . S
C526 H514 0.950 . S
C526 C525 1.398 . S
C526 C527 1.391 . S
C527 H515 0.950 . S
C527 C523 1.393 . S
C527 C526 1.391 . S
H528 C536 0.950 . S
H529 C541 0.950 . S
H530 C538 0.950 . S
H531 C540 0.950 . S
H532 C542 0.950 . S
H533 C544 0.950 . S
H534 C546 0.950 . S
H535 C547 0.950 . S
C536 H528 0.950 . S
C536 C537 1.386 . S
C536 C538 1.391 . S
C537 C536 1.386 . S
C537 C541 1.393 . S
C538 H530 0.950 . S
C538 C536 1.391 . S
C538 C539 1.400 . S
C539 C538 1.400 . S
C539 C540 1.398 . S
C539 C545 1.491 . S
C540 H531 0.950 . S
C540 C539 1.398 . S
C540 C541 1.391 . S
C541 H529 0.950 . S
C541 C537 1.393 . S
C541 C540 1.391 . S
C542 H532 0.950 . S
C542 C543 1.386 . S
C542 C544 1.391 . S
C543 C542 1.386 . S
C543 C547 1.393 . S
C544 H533 0.950 . S
C544 C542 1.391 . S
C544 C545 1.400 . S
C545 C539 1.491 . S
C545 C544 1.400 . S
C545 C546 1.398 . S
C546 H534 0.950 . S
C546 C545 1.398 . S
C546 C547 1.391 . S
C547 H535 0.950 . S
C547 C543 1.393 . S
C547 C546 1.391 . S
H548 C556 0.950 . S
H549 C561 0.950 . S
H550 C558 0.950 . S
H551 C560 0.950 . S
H552 C562 0.950 . S
H553 C564 0.950 . S
H554 C566 0.950 . S
H555 C567 0.950 . S
C556 H548 0.950 . S
C556 C557 1.386 . S
C556 C558 1.391 . S
C557 C556 1.386 . S
C557 C561 1.393 . S
C558 H550 0.950 . S
C558 C556 1.391 . S
C558 C559 1.400 . S
C559 C558 1.400 . S
C559 C560 1.398 . S
C559 C565 1.491 . S
C560 H551 0.950 . S
C560 C559 1.398 . S
C560 C561 1.391 . S
C561 H549 0.950 . S
C561 C557 1.393 . S
C561 C560 1.391 . S
C562 H552 0.950 . S
C562 C563 1.386 . S
C562 C564 1.391 . S
C563 C562 1.386 . S
C563 C567 1.393 . S
C564 H553 0.950 . S
C564 C562 1.391 . S
C564 C565 1.400 . S
C565 C559 1.491 . S
C565 C564 1.400 . S
C565 C566 1.398 . S
C566 H554 0.950 . S
C566 C565 1.398 . S
C566 C567 1.391 . S
C567 H555 0.950 . S
C567 C563 1.393 . S
C567 C566 1.391 . S
H568 C576 0.950 . S
H569 C581 0.950 . S
H570 C578 0.950 . S
H571 C580 0.950 . S
H572 C582 0.950 . S
H573 C584 0.950 . S
H574 C586 0.950 . S
H575 C587 0.950 . S
C576 H568 0.950 . S
C576 C577 1.386 . S
C576 C578 1.391 . S
C577 C576 1.386 . S
C577 C581 1.393 . S
C578 H570 0.950 . S
C578 C576 1.391 . S
C578 C579 1.400 . S
C579 C578 1.400 . S
C579 C580 1.398 . S
C579 C585 1.491 . S
C580 H571 0.950 . S
C580 C579 1.398 . S
C580 C581 1.391 . S
C581 H569 0.950 . S
C581 C577 1.393 . S
C581 C580 1.391 . S
C582 H572 0.950 . S
C582 C583 1.386 . S
C582 C584 1.391 . S
C583 C582 1.386 . S
C583 C587 1.393 . S
C584 H573 0.950 . S
C584 C582 1.391 . S
C584 C585 1.400 . S
C585 C579 1.491 . S
C585 C584 1.400 . S
C585 C586 1.398 . S
C586 H574 0.950 . S
C586 C585 1.398 . S
C586 C587 1.391 . S
C587 H575 0.950 . S
C587 C583 1.393 . S
C587 C586 1.391 . S
H588 C596 0.950 . S
H589 C601 0.950 . S
H590 C598 0.950 . S
H591 C600 0.950 . S
H592 C602 0.950 . S
H593 C604 0.950 . S
H594 C606 0.950 . S
H595 C607 0.950 . S
C596 H588 0.950 . S
C596 C597 1.386 . S
C596 C598 1.391 1_455 S
C597 C596 1.386 . S
C597 C601 1.393 . S
C598 H590 0.950 . S
C598 C596 1.391 1_655 S
C598 C599 1.400 . S
C599 C598 1.400 . S
C599 C600 1.398 . S
C599 C605 1.491 . S
C600 H591 0.950 . S
C600 C599 1.398 . S
C600 C601 1.391 1_655 S
C601 H589 0.950 . S
C601 C597 1.393 . S
C601 C600 1.391 1_455 S
C602 H592 0.950 . S
C602 C603 1.386 . S
C602 C604 1.391 . S
C603 C602 1.386 . S
C603 C607 1.393 . S
C604 H593 0.950 . S
C604 C602 1.391 . S
C604 C605 1.400 . S
C605 C599 1.491 . S
C605 C604 1.400 . S
C605 C606 1.398 . S
C606 H594 0.950 . S
C606 C605 1.398 . S
C606 C607 1.391 . S
C607 H595 0.950 . S
C607 C603 1.393 . S
C607 C606 1.391 . S
H608 C616 0.950 . S
H609 C621 0.950 . S
H610 C618 0.950 . S
H611 C620 0.950 . S
H612 C622 0.950 . S
H613 C624 0.950 . S
H614 C626 0.950 . S
H615 C627 0.950 . S
C616 H608 0.950 . S
C616 C617 1.386 . S
C616 C618 1.391 . S
C617 C616 1.386 . S
C617 C621 1.393 . S
C618 H610 0.950 . S
C618 C616 1.391 . S
C618 C619 1.400 . S
C619 C618 1.400 . S
C619 C620 1.398 . S
C619 C625 1.491 . S
C620 H611 0.950 . S
C620 C619 1.398 . S
C620 C621 1.391 . S
C621 H609 0.950 . S
C621 C617 1.393 . S
C621 C620 1.391 . S
C622 H612 0.950 . S
C622 C623 1.386 . S
C622 C624 1.391 . S
C623 C622 1.386 . S
C623 C627 1.393 . S
C624 H613 0.950 . S
C624 C622 1.391 . S
C624 C625 1.400 . S
C625 C619 1.491 . S
C625 C624 1.400 . S
C625 C626 1.398 . S
C626 H614 0.950 . S
C626 C625 1.398 . S
C626 C627 1.391 . S
C627 H615 0.950 . S
C627 C623 1.393 . S
C627 C626 1.391 . S
H628 C636 0.950 . S
H629 C641 0.950 . S
H630 C638 0.950 . S
H631 C640 0.950 . S
H632 C642 0.950 . S
H633 C644 0.951 . S
H634 C646 0.950 . S
H635 C647 0.950 . S
C636 H628 0.950 . S
C636 C637 1.386 . S
C636 C638 1.391 . S
C637 C636 1.386 . S
C637 C641 1.393 . S
C638 H630 0.950 . S
C638 C636 1.391 . S
C638 C639 1.400 . S
C639 C638 1.400 . S
C639 C640 1.398 . S
C639 C645 1.491 . S
C640 H631 0.950 . S
C640 C639 1.398 . S
C640 C641 1.391 . S
C641 H629 0.950 . S
C641 C637 1.393 . S
C641 C640 1.391 . S
C642 H632 0.950 . S
C642 C643 1.386 . S
C642 C644 1.418 . S
C643 C642 1.386 . S
C643 C647 1.411 . S
C644 H633 0.951 . S
C644 C642 1.418 . S
C644 C645 1.373 1_655 S
C645 C639 1.491 . S
C645 C644 1.373 1_455 S
C645 C646 1.398 . S
C646 H634 0.950 . S
C646 C645 1.398 . S
C646 C647 1.372 1_455 S
C647 H635 0.950 . S
C647 C643 1.411 . S
C647 C646 1.372 1_655 S
H648 C656 0.950 . S
H649 C661 0.950 . S
H650 C658 0.950 . S
H651 C660 0.950 . S
H652 C662 0.950 . S
H653 C664 0.950 . S
H654 C666 0.950 . S
H655 C667 0.950 . S
C656 H648 0.950 . S
C656 C657 1.386 . S
C656 C658 1.391 . S
C657 C656 1.386 . S
C657 C661 1.393 . S
C658 H650 0.950 . S
C658 C656 1.391 . S
C658 C659 1.400 . S
C659 C658 1.400 . S
C659 C660 1.398 . S
C659 C665 1.491 . S
C660 H651 0.950 . S
C660 C659 1.398 . S
C660 C661 1.391 . S
C661 H649 0.950 . S
C661 C657 1.393 . S
C661 C660 1.391 . S
C662 H652 0.950 . S
C662 C663 1.386 . S
C662 C664 1.391 . S
C663 C662 1.386 . S
C663 C667 1.393 . S
C664 H653 0.950 . S
C664 C662 1.391 . S
C664 C665 1.400 . S
C665 C659 1.491 . S
C665 C664 1.400 . S
C665 C666 1.398 . S
C666 H654 0.950 . S
C666 C665 1.398 . S
C666 C667 1.391 . S
C667 H655 0.950 . S
C667 C663 1.393 . S
C667 C666 1.391 . S
H668 C676 0.950 . S
H669 C681 0.950 . S
H670 C678 0.950 . S
H671 C680 0.950 . S
H672 C682 0.950 . S
H673 C684 0.950 . S
H674 C686 0.950 . S
H675 C687 0.950 . S
C676 H668 0.950 . S
C676 C677 1.386 . S
C676 C678 1.391 . S
C677 C676 1.386 . S
C677 C681 1.393 . S
C678 H670 0.950 . S
C678 C676 1.391 . S
C678 C679 1.400 . S
C679 C678 1.400 . S
C679 C680 1.398 . S
C679 C685 1.491 . S
C680 H671 0.950 . S
C680 C679 1.398 . S
C680 C681 1.391 . S
C681 H669 0.950 . S
C681 C677 1.393 . S
C681 C680 1.391 . S
C682 H672 0.950 . S
C682 C683 1.386 . S
C682 C684 1.391 . S
C683 C682 1.386 . S
C683 C687 1.393 . S
C684 H673 0.950 . S
C684 C682 1.391 . S
C684 C685 1.400 . S
C685 C679 1.491 . S
C685 C684 1.400 . S
C685 C686 1.398 . S
C686 H674 0.950 . S
C686 C685 1.398 . S
C686 C687 1.391 . S
C687 H675 0.950 . S
C687 C683 1.393 . S
C687 C686 1.391 . S
H688 C696 0.950 . S
H689 C701 0.950 . S
H690 C698 0.950 . S
H691 C700 0.950 . S
H692 C702 0.950 . S
H693 C704 0.950 . S
H694 C706 0.950 . S
H695 C707 0.950 . S
C696 H688 0.950 . S
C696 C697 1.386 . S
C696 C698 1.391 . S
C697 C696 1.386 . S
C697 C701 1.393 . S
C698 H690 0.950 . S
C698 C696 1.391 . S
C698 C699 1.400 . S
C699 C698 1.400 . S
C699 C700 1.398 . S
C699 C705 1.491 . S
C700 H691 0.950 . S
C700 C699 1.398 . S
C700 C701 1.391 . S
C701 H689 0.950 . S
C701 C697 1.393 . S
C701 C700 1.391 . S
C702 H692 0.950 . S
C702 C703 1.386 . S
C702 C704 1.391 . S
C703 C702 1.386 . S
C703 C707 1.393 . S
C704 H693 0.950 . S
C704 C702 1.391 . S
C704 C705 1.400 . S
C705 C699 1.491 . S
C705 C704 1.400 . S
C705 C706 1.398 . S
C706 H694 0.950 . S
C706 C705 1.398 . S
C706 C707 1.391 . S
C707 H695 0.950 . S
C707 C703 1.393 . S
C707 C706 1.391 . S
H708 C716 0.950 . S
H709 C721 0.950 . S
H710 C718 0.950 . S
H711 C720 0.950 . S
H712 C722 0.950 . S
H713 C724 0.950 . S
H714 C726 0.950 . S
H715 C727 0.950 . S
C716 H708 0.950 . S
C716 C717 1.386 . S
C716 C718 1.391 . S
C717 C716 1.386 . S
C717 C721 1.393 . S
C718 H710 0.950 . S
C718 C716 1.391 . S
C718 C719 1.400 . S
C719 C718 1.400 . S
C719 C720 1.398 . S
C719 C725 1.491 . S
C720 H711 0.950 . S
C720 C719 1.398 . S
C720 C721 1.391 . S
C721 H709 0.950 . S
C721 C717 1.393 . S
C721 C720 1.391 . S
C722 H712 0.950 . S
C722 C723 1.386 . S
C722 C724 1.391 . S
C723 C722 1.386 . S
C723 C727 1.393 . S
C724 H713 0.950 . S
C724 C722 1.391 . S
C724 C725 1.400 . S
C725 C719 1.491 . S
C725 C724 1.400 . S
C725 C726 1.398 . S
C726 H714 0.950 . S
C726 C725 1.398 . S
C726 C727 1.391 . S
C727 H715 0.950 . S
C727 C723 1.393 . S
C727 C726 1.391 . S
H728 C736 0.950 . S
H729 C741 0.950 . S
H730 C738 0.950 . S
H731 C740 0.950 . S
H732 C742 0.950 . S
H733 C744 0.950 . S
H734 C746 0.950 . S
H735 C747 0.950 . S
C736 H728 0.950 . S
C736 C737 1.386 . S
C736 C738 1.391 . S
C737 C736 1.386 . S
C737 C741 1.393 . S
C738 H730 0.950 . S
C738 C736 1.391 . S
C738 C739 1.400 . S
C739 C738 1.400 . S
C739 C740 1.398 . S
C739 C745 1.491 . S
C740 H731 0.950 . S
C740 C739 1.398 . S
C740 C741 1.391 . S
C741 H729 0.950 . S
C741 C737 1.393 . S
C741 C740 1.391 . S
C742 H732 0.950 . S
C742 C743 1.386 . S
C742 C744 1.391 . S
C743 C742 1.386 . S
C743 C747 1.393 . S
C744 H733 0.950 . S
C744 C742 1.391 . S
C744 C745 1.400 . S
C745 C739 1.491 . S
C745 C744 1.400 . S
C745 C746 1.398 . S
C746 H734 0.950 . S
C746 C745 1.398 . S
C746 C747 1.391 . S
C747 H735 0.950 . S
C747 C743 1.393 . S
C747 C746 1.391 . S
H748 C756 0.950 . S
H749 C761 0.950 . S
H750 C758 0.950 . S
H751 C760 0.950 . S
H752 C762 0.950 . S
H753 C764 0.950 . S
H754 C766 0.950 . S
H755 C767 0.950 . S
C756 H748 0.950 . S
C756 C757 1.386 . S
C756 C758 1.391 . S
C757 C756 1.386 . S
C757 C761 1.393 . S
C758 H750 0.950 . S
C758 C756 1.391 . S
C758 C759 1.400 . S
C759 C758 1.400 . S
C759 C760 1.398 . S
C759 C765 1.491 . S
C760 H751 0.950 . S
C760 C759 1.398 . S
C760 C761 1.391 . S
C761 H749 0.950 . S
C761 C757 1.393 . S
C761 C760 1.391 . S
C762 H752 0.950 . S
C762 C763 1.386 . S
C762 C764 1.391 1_655 S
C763 C762 1.386 . S
C763 C767 1.393 . S
C764 H753 0.950 . S
C764 C762 1.391 1_455 S
C764 C765 1.400 . S
C765 C759 1.491 . S
C765 C764 1.400 . S
C765 C766 1.398 . S
C766 H754 0.950 . S
C766 C765 1.398 . S
C766 C767 1.391 1_455 S
C767 H755 0.950 . S
C767 C763 1.393 . S
C767 C766 1.391 1_655 S
H768 C776 0.950 . S
H769 C781 0.950 . S
H770 C778 0.950 . S
H771 C780 0.950 . S
H772 C782 0.950 . S
H773 C784 0.950 . S
H774 C786 0.950 . S
H775 C787 0.950 . S
C776 H768 0.950 . S
C776 C777 1.386 . S
C776 C778 1.391 . S
C777 C776 1.386 . S
C777 C781 1.393 . S
C778 H770 0.950 . S
C778 C776 1.391 . S
C778 C779 1.400 . S
C779 C778 1.400 . S
C779 C780 1.398 . S
C779 C785 1.491 . S
C780 H771 0.950 . S
C780 C779 1.398 . S
C780 C781 1.391 . S
C781 H769 0.950 . S
C781 C777 1.393 . S
C781 C780 1.391 . S
C782 H772 0.950 . S
C782 C783 1.386 . S
C782 C784 1.391 . S
C783 C782 1.386 . S
C783 C787 1.393 . S
C784 H773 0.950 . S
C784 C782 1.391 . S
C784 C785 1.400 . S
C785 C779 1.491 . S
C785 C784 1.400 . S
C785 C786 1.398 . S
C786 H774 0.950 . S
C786 C785 1.398 . S
C786 C787 1.391 . S
C787 H775 0.950 . S
C787 C783 1.393 . S
C787 C786 1.391 . S
H788 C796 0.950 . S
H789 C801 0.950 . S
H790 C798 0.950 . S
H791 C800 0.950 . S
H792 C802 0.950 . S
H793 C804 0.950 . S
H794 C806 0.950 . S
H795 C807 0.950 . S
C796 H788 0.950 . S
C796 C797 1.386 . S
C796 C798 1.391 . S
C797 C796 1.386 . S
C797 C801 1.393 . S
C798 H790 0.950 . S
C798 C796 1.391 . S
C798 C799 1.400 . S
C799 C798 1.400 . S
C799 C800 1.398 . S
C799 C805 1.491 . S
C800 H791 0.950 . S
C800 C799 1.398 . S
C800 C801 1.391 . S
C801 H789 0.950 . S
C801 C797 1.393 . S
C801 C800 1.391 . S
C802 H792 0.950 . S
C802 C803 1.386 . S
C802 C804 1.391 . S
C803 C802 1.386 . S
C803 C807 1.393 . S
C804 H793 0.950 . S
C804 C802 1.391 . S
C804 C805 1.400 . S
C805 C799 1.491 . S
C805 C804 1.400 . S
C805 C806 1.398 . S
C806 H794 0.950 . S
C806 C805 1.398 . S
C806 C807 1.391 . S
C807 H795 0.950 . S
C807 C803 1.393 . S
C807 C806 1.391 . S
H808 C816 0.950 . S
H809 C821 0.950 . S
H810 C818 0.950 . S
H811 C820 0.950 . S
H812 C822 0.950 . S
H813 C824 0.950 . S
H814 C826 0.950 . S
H815 C827 0.950 . S
C816 H808 0.950 . S
C816 C817 1.386 . S
C816 C818 1.391 . S
C817 C816 1.386 . S
C817 C821 1.393 . S
C818 H810 0.950 . S
C818 C816 1.391 . S
C818 C819 1.400 . S
C819 C818 1.400 . S
C819 C820 1.398 . S
C819 C825 1.491 . S
C820 H811 0.950 . S
C820 C819 1.398 . S
C820 C821 1.391 . S
C821 H809 0.950 . S
C821 C817 1.393 . S
C821 C820 1.391 . S
C822 H812 0.950 . S
C822 C823 1.386 . S
C822 C824 1.391 . S
C823 C822 1.386 . S
C823 C827 1.393 . S
C824 H813 0.950 . S
C824 C822 1.391 . S
C824 C825 1.400 . S
C825 C819 1.491 . S
C825 C824 1.400 . S
C825 C826 1.398 . S
C826 H814 0.950 . S
C826 C825 1.398 . S
C826 C827 1.391 . S
C827 H815 0.950 . S
C827 C823 1.393 . S
C827 C826 1.391 . S
H828 C836 0.950 . S
H829 C841 0.950 . S
H830 C838 0.950 . S
H831 C840 0.950 . S
H832 C842 0.950 . S
H833 C844 0.950 . S
H834 C846 0.950 . S
H835 C847 0.950 . S
C836 H828 0.950 . S
C836 C837 1.386 . S
C836 C838 1.391 . S
C837 C836 1.386 . S
C837 C841 1.393 . S
C838 H830 0.950 . S
C838 C836 1.391 . S
C838 C839 1.400 . S
C839 C838 1.400 . S
C839 C840 1.398 . S
C839 C845 1.491 . S
C840 H831 0.950 . S
C840 C839 1.398 . S
C840 C841 1.391 . S
C841 H829 0.950 . S
C841 C837 1.393 . S
C841 C840 1.391 . S
C842 H832 0.950 . S
C842 C843 1.386 . S
C842 C844 1.391 1_655 S
C843 C842 1.386 . S
C843 C847 1.393 . S
C844 H833 0.950 . S
C844 C842 1.391 1_455 S
C844 C845 1.400 . S
C845 C839 1.491 . S
C845 C844 1.400 . S
C845 C846 1.398 . S
C846 H834 0.950 . S
C846 C845 1.398 . S
C846 C847 1.391 1_455 S
C847 H835 0.950 . S
C847 C843 1.393 . S
C847 C846 1.391 1_655 S
H848 C856 0.950 . S
H849 C861 0.950 . S
H850 C858 0.950 . S
H851 C860 0.950 . S
H852 C862 0.950 . S
H853 C864 0.950 . S
H854 C866 0.950 . S
H855 C867 0.950 . S
C856 H848 0.950 . S
C856 C857 1.386 . S
C856 C858 1.391 . S
C857 C856 1.386 . S
C857 C861 1.393 . S
C858 H850 0.950 . S
C858 C856 1.391 . S
C858 C859 1.400 . S
C859 C858 1.400 . S
C859 C860 1.398 . S
C859 C865 1.491 . S
C860 H851 0.950 . S
C860 C859 1.398 . S
C860 C861 1.391 . S
C861 H849 0.950 . S
C861 C857 1.393 . S
C861 C860 1.391 . S
C862 H852 0.950 . S
C862 C863 1.386 . S
C862 C864 1.391 . S
C863 C862 1.386 . S
C863 C867 1.393 . S
C864 H853 0.950 . S
C864 C862 1.391 . S
C864 C865 1.400 . S
C865 C859 1.491 . S
C865 C864 1.400 . S
C865 C866 1.398 . S
C866 H854 0.950 . S
C866 C865 1.398 . S
C866 C867 1.391 . S
C867 H855 0.950 . S
C867 C863 1.393 . S
C867 C866 1.391 . S
H868 C876 0.950 . S
H869 C881 0.950 . S
H870 C878 0.950 . S
H871 C880 0.950 . S
H872 C882 0.950 . S
H873 C884 0.950 . S
H874 C886 0.950 . S
H875 C887 0.950 . S
C876 H868 0.950 . S
C876 C877 1.386 . S
C876 C878 1.391 . S
C877 C876 1.386 . S
C877 C881 1.393 . S
C878 H870 0.950 . S
C878 C876 1.391 . S
C878 C879 1.400 . S
C879 C878 1.400 . S
C879 C880 1.398 . S
C879 C885 1.491 . S
C880 H871 0.950 . S
C880 C879 1.398 . S
C880 C881 1.391 . S
C881 H869 0.950 . S
C881 C877 1.393 . S
C881 C880 1.391 . S
C882 H872 0.950 . S
C882 C883 1.386 . S
C882 C884 1.391 1_655 S
C883 C882 1.386 . S
C883 C887 1.393 . S
C884 H873 0.950 . S
C884 C882 1.391 1_455 S
C884 C885 1.400 . S
C885 C879 1.491 . S
C885 C884 1.400 . S
C885 C886 1.398 . S
C886 H874 0.950 . S
C886 C885 1.398 . S
C886 C887 1.391 1_455 S
C887 H875 0.950 . S
C887 C883 1.393 . S
C887 C886 1.391 1_655 S
H888 C896 0.950 . S
H889 C901 0.950 . S
H890 C898 0.950 . S
H891 C900 0.950 . S
H892 C902 0.950 . S
H893 C904 0.950 . S
H894 C906 0.950 . S
H895 C907 0.950 . S
C896 H888 0.950 . S
C896 C897 1.386 . S
C896 C898 1.391 . S
C897 C896 1.386 . S
C897 C901 1.393 . S
C898 H890 0.950 . S
C898 C896 1.391 . S
C898 C899 1.400 . S
C899 C898 1.400 . S
C899 C900 1.398 . S
C899 C905 1.491 . S
C900 H891 0.950 . S
C900 C899 1.398 . S
C900 C901 1.391 . S
C901 H889 0.950 . S
C901 C897 1.393 . S
C901 C900 1.391 . S
C902 H892 0.950 . S
C902 C903 1.386 . S
C902 C904 1.391 . S
C903 C902 1.386 . S
C903 C907 1.393 . S
C904 H893 0.950 . S
C904 C902 1.391 . S
C904 C905 1.400 . S
C905 C899 1.491 . S
C905 C904 1.400 . S
C905 C906 1.398 . S
C906 H894 0.950 . S
C906 C905 1.398 . S
C906 C907 1.391 . S
C907 H895 0.950 . S
C907 C903 1.393 . S
C907 C906 1.391 . S
H908 C916 0.950 . S
H909 C921 0.950 . S
H910 C918 0.950 . S
H911 C920 0.950 . S
H912 C922 0.950 . S
H913 C924 0.950 . S
H914 C926 0.950 . S
H915 C927 0.950 . S
C916 H908 0.950 . S
C916 C917 1.386 . S
C916 C918 1.391 . S
C917 C916 1.386 . S
C917 C921 1.393 . S
C918 H910 0.950 . S
C918 C916 1.391 . S
C918 C919 1.400 . S
C919 C918 1.400 . S
C919 C920 1.398 . S
C919 C925 1.491 . S
C920 H911 0.950 . S
C920 C919 1.398 . S
C920 C921 1.391 . S
C921 H909 0.950 . S
C921 C917 1.393 . S
C921 C920 1.391 . S
C922 H912 0.950 . S
C922 C923 1.386 . S
C922 C924 1.391 . S
C923 C922 1.386 . S
C923 C927 1.393 . S
C924 H913 0.950 . S
C924 C922 1.391 . S
C924 C925 1.400 . S
C925 C919 1.491 . S
C925 C924 1.400 . S
C925 C926 1.398 . S
C926 H914 0.950 . S
C926 C925 1.398 . S
C926 C927 1.391 . S
C927 H915 0.950 . S
C927 C923 1.393 . S
C927 C926 1.391 . S
H928 C936 0.950 . S
H929 C941 0.950 . S
H930 C938 0.950 . S
H931 C940 0.950 . S
H932 C942 0.950 . S
H933 C944 0.950 . S
H934 C946 0.950 . S
H935 C947 0.950 . S
C936 H928 0.950 . S
C936 C937 1.386 . S
C936 C938 1.391 . S
C937 C936 1.386 . S
C937 C941 1.393 . S
C938 H930 0.950 . S
C938 C936 1.391 . S
C938 C939 1.400 . S
C939 C938 1.400 . S
C939 C940 1.398 . S
C939 C945 1.491 . S
C940 H931 0.950 . S
C940 C939 1.398 . S
C940 C941 1.391 . S
C941 H929 0.950 . S
C941 C937 1.393 . S
C941 C940 1.391 . S
C942 H932 0.950 . S
C942 C943 1.386 . S
C942 C944 1.391 . S
C943 C942 1.386 . S
C943 C947 1.393 . S
C944 H933 0.950 . S
C944 C942 1.391 . S
C944 C945 1.400 . S
C945 C939 1.491 . S
C945 C944 1.400 . S
C945 C946 1.398 . S
C946 H934 0.950 . S
C946 C945 1.398 . S
C946 C947 1.391 . S
C947 H935 0.950 . S
C947 C943 1.393 . S
C947 C946 1.391 . S
H948 C956 0.950 . S
H949 C961 0.950 . S
H950 C958 0.950 . S
H951 C960 0.950 . S
H952 C962 0.950 . S
H953 C964 0.950 . S
H954 C966 0.950 . S
H955 C967 0.950 . S
C956 H948 0.950 . S
C956 C957 1.386 . S
C956 C958 1.391 . S
C957 C956 1.386 . S
C957 C961 1.393 . S
C958 H950 0.950 . S
C958 C956 1.391 . S
C958 C959 1.400 . S
C959 C958 1.400 . S
C959 C960 1.398 . S
C959 C965 1.491 . S
C960 H951 0.950 . S
C960 C959 1.398 . S
C960 C961 1.391 . S
C961 H949 0.950 . S
C961 C957 1.393 . S
C961 C960 1.391 . S
C962 H952 0.950 . S
C962 C963 1.386 . S
C962 C964 1.391 . S
C963 C962 1.386 . S
C963 C967 1.393 . S
C964 H953 0.950 . S
C964 C962 1.391 . S
C964 C965 1.400 . S
C965 C959 1.491 . S
C965 C964 1.400 . S
C965 C966 1.398 . S
C966 H954 0.950 . S
C966 C965 1.398 . S
C966 C967 1.391 . S
C967 H955 0.950 . S
C967 C963 1.393 . S
C967 C966 1.391 . S
H968 C976 0.950 . S
H969 C981 0.950 . S
H970 C978 0.950 . S
H971 C980 0.950 . S
H972 C982 0.950 . S
H973 C984 0.950 . S
H974 C986 0.950 . S
H975 C987 0.950 . S
C976 H968 0.950 . S
C976 C977 1.386 . S
C976 C978 1.391 . S
C977 C976 1.386 . S
C977 C981 1.393 . S
C978 H970 0.950 . S
C978 C976 1.391 . S
C978 C979 1.400 . S
C979 C978 1.400 . S
C979 C980 1.398 . S
C979 C985 1.491 . S
C980 H971 0.950 . S
C980 C979 1.398 . S
C980 C981 1.391 . S
C981 H969 0.950 . S
C981 C977 1.393 . S
C981 C980 1.391 . S
C982 H972 0.950 . S
C982 C983 1.386 . S
C982 C984 1.391 . S
C983 C982 1.386 . S
C983 C987 1.393 . S
C984 H973 0.950 . S
C984 C982 1.391 . S
C984 C985 1.400 . S
C985 C979 1.491 . S
C985 C984 1.400 . S
C985 C986 1.398 . S
C986 H974 0.950 . S
C986 C985 1.398 . S
C986 C987 1.391 . S
C987 H975 0.950 . S
C987 C983 1.393 . S
C987 C986 1.391 . S
H988 C996 0.950 . S
H989 C1001 0.950 1_655 S
H990 C998 0.950 . S
H991 C1000 0.950 . S
H992 C1002 0.950 . S
H993 C1004 0.950 . S
H994 C1006 0.950 . S
H995 C1007 0.950 . S
C996 H988 0.950 . S
C996 C997 1.386 . S
C996 C998 1.391 . S
C997 C996 1.386 . S
C997 C1001 1.399 . S
C998 H990 0.950 . S
C998 C996 1.391 . S
C998 C999 1.400 1_455 S
C999 C998 1.400 1_655 S
C999 C1000 1.398 . S
C999 C1005 1.491 . S
C1000 H991 0.950 . S
C1000 C999 1.398 . S
C1000 C1001 1.384 1_655 S
C1001 H989 0.950 1_455 S
C1001 C997 1.399 . S
C1001 C1000 1.384 1_455 S
C1002 H992 0.950 . S
C1002 C1003 1.386 . S
C1002 C1004 1.391 . S
C1003 C1002 1.386 . S
C1003 C1007 1.393 . S
C1004 H993 0.950 . S
C1004 C1002 1.391 . S
C1004 C1005 1.400 . S
C1005 C999 1.491 . S
C1005 C1004 1.400 . S
C1005 C1006 1.398 . S
C1006 H994 0.950 . S
C1006 C1005 1.398 . S
C1006 C1007 1.391 . S
C1007 H995 0.950 . S
C1007 C1003 1.393 . S
C1007 C1006 1.391 . S
H1008 C1016 0.950 . S
H1009 C1021 0.950 . S
H1010 C1018 0.950 . S
H1011 C1020 0.950 . S
H1012 C1022 0.950 . S
H1013 C1024 0.950 . S
H1014 C1026 0.950 . S
H1015 C1027 0.950 . S
C1016 H1008 0.950 . S
C1016 C1017 1.386 . S
C1016 C1018 1.391 . S
C1017 C1016 1.386 . S
C1017 C1021 1.393 . S
C1018 H1010 0.950 . S
C1018 C1016 1.391 . S
C1018 C1019 1.400 . S
C1019 C1018 1.400 . S
C1019 C1020 1.398 . S
C1019 C1025 1.491 . S
C1020 H1011 0.950 . S
C1020 C1019 1.398 . S
C1020 C1021 1.391 . S
C1021 H1009 0.950 . S
C1021 C1017 1.393 . S
C1021 C1020 1.391 . S
C1022 H1012 0.950 . S
C1022 C1023 1.386 . S
C1022 C1024 1.391 . S
C1023 C1022 1.386 . S
C1023 C1027 1.393 . S
C1024 H1013 0.950 . S
C1024 C1022 1.391 . S
C1024 C1025 1.400 . S
C1025 C1019 1.491 . S
C1025 C1024 1.400 . S
C1025 C1026 1.398 . S
C1026 H1014 0.950 . S
C1026 C1025 1.398 . S
C1026 C1027 1.391 . S
C1027 H1015 0.950 . S
C1027 C1023 1.393 . S
C1027 C1026 1.391 . S
H1028 C1036 0.950 . S
H1029 C1041 0.950 . S
H1030 C1038 0.950 . S
H1031 C1040 0.950 . S
H1032 C1042 0.950 . S
H1033 C1044 0.950 . S
H1034 C1046 0.950 . S
H1035 C1047 0.950 . S
C1036 H1028 0.950 . S
C1036 C1037 1.386 . S
C1036 C1038 1.391 1_455 S
C1037 C1036 1.386 . S
C1037 C1041 1.393 . S
C1038 H1030 0.950 . S
C1038 C1036 1.391 1_655 S
C1038 C1039 1.400 . S
C1039 C1038 1.400 . S
C1039 C1040 1.398 . S
C1039 C1045 1.491 . S
C1040 H1031 0.950 . S
C1040 C1039 1.398 . S
C1040 C1041 1.391 1_655 S
C1041 H1029 0.950 . S
C1041 C1037 1.393 . S
C1041 C1040 1.391 1_455 S
C1042 H1032 0.950 . S
C1042 C1043 1.386 . S
C1042 C1044 1.391 . S
C1043 C1042 1.386 . S
C1043 C1047 1.393 . S
C1044 H1033 0.950 . S
C1044 C1042 1.391 . S
C1044 C1045 1.400 . S
C1045 C1039 1.491 . S
C1045 C1044 1.400 . S
C1045 C1046 1.398 . S
C1046 H1034 0.950 . S
C1046 C1045 1.398 . S
C1046 C1047 1.391 . S
C1047 H1035 0.950 . S
C1047 C1043 1.393 . S
C1047 C1046 1.391 . S
H1048 C1056 0.950 . S
H1049 C1061 0.950 . S
H1050 C1058 0.950 . S
H1051 C1060 0.950 . S
H1052 C1062 0.950 . S
H1053 C1064 0.950 . S
H1054 C1066 0.950 . S
H1055 C1067 0.950 . S
C1056 H1048 0.950 . S
C1056 C1057 1.386 . S
C1056 C1058 1.391 . S
C1057 C1056 1.386 . S
C1057 C1061 1.393 . S
C1058 H1050 0.950 . S
C1058 C1056 1.391 . S
C1058 C1059 1.400 . S
C1059 C1058 1.400 . S
C1059 C1060 1.398 . S
C1059 C1065 1.491 . S
C1060 H1051 0.950 . S
C1060 C1059 1.398 . S
C1060 C1061 1.391 . S
C1061 H1049 0.950 . S
C1061 C1057 1.393 . S
C1061 C1060 1.391 . S
C1062 H1052 0.950 . S
C1062 C1063 1.386 . S
C1062 C1064 1.391 . S
C1063 C1062 1.386 . S
C1063 C1067 1.393 . S
C1064 H1053 0.950 . S
C1064 C1062 1.391 . S
C1064 C1065 1.400 . S
C1065 C1059 1.491 . S
C1065 C1064 1.400 . S
C1065 C1066 1.398 . S
C1066 H1054 0.950 . S
C1066 C1065 1.398 . S
C1066 C1067 1.391 . S
C1067 H1055 0.950 . S
C1067 C1063 1.393 . S
C1067 C1066 1.391 . S
H1068 C1076 0.950 . S
H1069 C1081 0.950 . S
H1070 C1078 0.950 . S
H1071 C1080 0.950 . S
H1072 C1082 0.950 . S
H1073 C1084 0.950 . S
H1074 C1086 0.950 . S
H1075 C1087 0.950 . S
C1076 H1068 0.950 . S
C1076 C1077 1.386 . S
C1076 C1078 1.391 . S
C1077 C1076 1.386 . S
C1077 C1081 1.393 . S
C1078 H1070 0.950 . S
C1078 C1076 1.391 . S
C1078 C1079 1.400 . S
C1079 C1078 1.400 . S
C1079 C1080 1.398 . S
C1079 C1085 1.491 . S
C1080 H1071 0.950 . S
C1080 C1079 1.398 . S
C1080 C1081 1.391 . S
C1081 H1069 0.950 . S
C1081 C1077 1.393 . S
C1081 C1080 1.391 . S
C1082 H1072 0.950 . S
C1082 C1083 1.386 . S
C1082 C1084 1.391 . S
C1083 C1082 1.386 . S
C1083 C1087 1.393 . S
C1084 H1073 0.950 . S
C1084 C1082 1.391 . S
C1084 C1085 1.400 . S
C1085 C1079 1.491 . S
C1085 C1084 1.400 . S
C1085 C1086 1.398 . S
C1086 H1074 0.950 . S
C1086 C1085 1.398 . S
C1086 C1087 1.391 . S
C1087 H1075 0.950 . S
C1087 C1083 1.393 . S
C1087 C1086 1.391 . S
H1088 C1096 0.950 . S
H1089 C1101 0.950 . S
H1090 C1098 0.950 . S
H1091 C1100 0.950 . S
H1092 C1102 0.950 . S
H1093 C1104 0.950 . S
H1094 C1106 0.950 . S
H1095 C1107 0.950 . S
C1096 H1088 0.950 . S
C1096 C1097 1.386 . S
C1096 C1098 1.391 . S
C1097 C1096 1.386 . S
C1097 C1101 1.393 . S
C1098 H1090 0.950 . S
C1098 C1096 1.391 . S
C1098 C1099 1.400 . S
C1099 C1098 1.400 . S
C1099 C1100 1.398 . S
C1099 C1105 1.491 . S
C1100 H1091 0.950 . S
C1100 C1099 1.398 . S
C1100 C1101 1.391 . S
C1101 H1089 0.950 . S
C1101 C1097 1.393 . S
C1101 C1100 1.391 . S
C1102 H1092 0.950 . S
C1102 C1103 1.386 . S
C1102 C1104 1.391 . S
C1103 C1102 1.386 . S
C1103 C1107 1.393 . S
C1104 H1093 0.950 . S
C1104 C1102 1.391 . S
C1104 C1105 1.400 . S
C1105 C1099 1.491 . S
C1105 C1104 1.400 . S
C1105 C1106 1.398 . S
C1106 H1094 0.950 . S
C1106 C1105 1.398 . S
C1106 C1107 1.391 . S
C1107 H1095 0.950 . S
C1107 C1103 1.393 . S
C1107 C1106 1.391 . S
H1108 C1116 0.950 . S
H1109 C1121 0.950 . S
H1110 C1118 0.950 . S
H1111 C1120 0.950 1_655 S
H1112 C1122 0.950 . S
H1113 C1124 0.950 . S
H1114 C1126 0.950 1_455 S
H1115 C1127 0.950 . S
C1116 H1108 0.950 . S
C1116 C1117 1.386 1_545 S
C1116 C1118 1.391 . S
C1117 C1116 1.386 1_565 S
C1117 C1121 1.393 . S
C1118 H1110 0.950 . S
C1118 C1116 1.391 . S
C1118 C1119 1.400 1_545 S
C1119 C1118 1.400 1_565 S
C1119 C1120 1.398 . S
C1119 C1125 1.491 1_465 S
C1120 H1111 0.950 1_455 S
C1120 C1119 1.398 . S
C1120 C1121 1.391 . S
C1121 H1109 0.950 . S
C1121 C1117 1.393 . S
C1121 C1120 1.391 . S
C1122 H1112 0.950 . S
C1122 C1123 1.386 1_565 S
C1122 C1124 1.391 . S
C1123 C1122 1.386 1_545 S
C1123 C1127 1.393 . S
C1124 H1113 0.950 . S
C1124 C1122 1.391 . S
C1124 C1125 1.400 1_565 S
C1125 C1119 1.491 1_645 S
C1125 C1124 1.400 1_545 S
C1125 C1126 1.398 . S
C1126 H1114 0.950 1_655 S
C1126 C1125 1.398 . S
C1126 C1127 1.391 . S
C1127 H1115 0.950 . S
C1127 C1123 1.393 . S
C1127 C1126 1.391 . S
H1128 C1136 0.950 . S
H1129 C1141 0.950 . S
H1130 C1138 0.950 . S
H1131 C1140 0.950 . S
H1132 C1142 0.950 . S
H1133 C1144 0.950 . S
H1134 C1146 0.950 . S
H1135 C1147 0.950 . S
C1136 H1128 0.950 . S
C1136 C1137 1.386 . S
C1136 C1138 1.391 . S
C1137 C1136 1.386 . S
C1137 C1141 1.393 . S
C1138 H1130 0.950 . S
C1138 C1136 1.391 . S
C1138 C1139 1.400 . S
C1139 C1138 1.400 . S
C1139 C1140 1.398 . S
C1139 C1145 1.491 . S
C1140 H1131 0.950 . S
C1140 C1139 1.398 . S
C1140 C1141 1.391 . S
C1141 H1129 0.950 . S
C1141 C1137 1.393 . S
C1141 C1140 1.391 . S
C1142 H1132 0.950 . S
C1142 C1143 1.386 . S
C1142 C1144 1.391 . S
C1143 C1142 1.386 . S
C1143 C1147 1.393 . S
C1144 H1133 0.950 . S
C1144 C1142 1.391 . S
C1144 C1145 1.400 . S
C1145 C1139 1.491 . S
C1145 C1144 1.400 . S
C1145 C1146 1.398 . S
C1146 H1134 0.950 . S
C1146 C1145 1.398 . S
C1146 C1147 1.391 . S
C1147 H1135 0.950 . S
C1147 C1143 1.393 . S
C1147 C1146 1.391 . S
H1148 C1156 0.950 . S
H1149 C1161 0.950 . S
H1150 C1158 0.950 . S
H1151 C1160 0.950 . S
H1152 C1162 0.950 . S
H1153 C1164 0.950 . S
H1154 C1166 0.950 . S
H1155 C1167 0.950 . S
C1156 H1148 0.950 . S
C1156 C1157 1.386 1_565 S
C1156 C1158 1.391 . S
C1157 C1156 1.386 1_545 S
C1157 C1161 1.393 . S
C1158 H1150 0.950 . S
C1158 C1156 1.391 . S
C1158 C1159 1.400 1_565 S
C1159 C1158 1.400 1_545 S
C1159 C1160 1.398 . S
C1159 C1165 1.491 1_544 S
C1160 H1151 0.950 . S
C1160 C1159 1.398 . S
C1160 C1161 1.391 . S
C1161 H1149 0.950 . S
C1161 C1157 1.393 . S
C1161 C1160 1.391 . S
C1162 H1152 0.950 . S
C1162 C1163 1.386 1_545 S
C1162 C1164 1.391 . S
C1163 C1162 1.386 1_565 S
C1163 C1167 1.393 . S
C1164 H1153 0.950 . S
C1164 C1162 1.391 . S
C1164 C1165 1.400 1_545 S
C1165 C1159 1.491 1_566 S
C1165 C1164 1.400 1_565 S
C1165 C1166 1.398 . S
C1166 H1154 0.950 . S
C1166 C1165 1.398 . S
C1166 C1167 1.391 . S
C1167 H1155 0.950 . S
C1167 C1163 1.393 . S
C1167 C1166 1.391 . S
H1168 C1176 0.950 . S
H1169 C1181 0.950 . S
H1170 C1178 0.950 . S
H1171 C1180 0.950 . S
H1172 C1182 0.950 . S
H1173 C1184 0.950 . S
H1174 C1186 0.950 . S
H1175 C1187 0.950 . S
C1176 H1168 0.950 . S
C1176 C1177 1.386 . S
C1176 C1178 1.391 . S
C1177 C1176 1.386 . S
C1177 C1181 1.393 . S
C1178 H1170 0.950 . S
C1178 C1176 1.391 . S
C1178 C1179 1.400 . S
C1179 C1178 1.400 . S
C1179 C1180 1.398 . S
C1179 C1185 1.491 . S
C1180 H1171 0.950 . S
C1180 C1179 1.398 . S
C1180 C1181 1.391 . S
C1181 H1169 0.950 . S
C1181 C1177 1.393 . S
C1181 C1180 1.391 . S
C1182 H1172 0.950 . S
C1182 C1183 1.386 . S
C1182 C1184 1.391 . S
C1183 C1182 1.386 . S
C1183 C1187 1.393 . S
C1184 H1173 0.950 . S
C1184 C1182 1.391 . S
C1184 C1185 1.400 . S
C1185 C1179 1.491 . S
C1185 C1184 1.400 . S
C1185 C1186 1.398 . S
C1186 H1174 0.950 . S
C1186 C1185 1.398 . S
C1186 C1187 1.391 . S
C1187 H1175 0.950 . S
C1187 C1183 1.393 . S
C1187 C1186 1.391 . S
H1188 C1196 0.950 . S
H1189 C1201 0.950 . S
H1190 C1198 0.945 1_545 S
H1191 C1200 0.950 . S
H1192 C1202 0.950 . S
H1193 C1204 0.945 1_565 S
H1194 C1206 0.950 . S
H1195 C1207 0.950 . S
C1196 H1188 0.950 . S
C1196 C1197 1.386 . S
C1196 C1198 1.391 . S
C1197 C1196 1.386 . S
C1197 C1201 1.393 . S
C1198 H1190 0.945 1_565 S
C1198 C1196 1.391 . S
C1198 C1199 1.400 . S
C1199 C1198 1.400 . S
C1199 C1200 1.398 . S
C1199 C1205 1.491 1_565 S
C1200 H1191 0.950 . S
C1200 C1199 1.398 . S
C1200 C1201 1.391 . S
C1201 H1189 0.950 . S
C1201 C1197 1.393 . S
C1201 C1200 1.391 . S
C1202 H1192 0.950 . S
C1202 C1203 1.386 . S
C1202 C1204 1.391 . S
C1203 C1202 1.386 . S
C1203 C1207 1.393 . S
C1204 H1193 0.945 1_545 S
C1204 C1202 1.391 . S
C1204 C1205 1.400 . S
C1205 C1199 1.491 1_545 S
C1205 C1204 1.400 . S
C1205 C1206 1.398 . S
C1206 H1194 0.950 . S
C1206 C1205 1.398 . S
C1206 C1207 1.391 . S
C1207 H1195 0.950 . S
C1207 C1203 1.393 . S
C1207 C1206 1.391 . S
H1208 C1216 0.950 . S
H1209 C1221 0.950 . S
H1210 C1218 0.950 . S
H1211 C1220 0.950 . S
H1212 C1222 0.950 . S
H1213 C1224 0.950 . S
H1214 C1226 0.950 . S
H1215 C1227 0.950 . S
C1216 H1208 0.950 . S
C1216 C1217 1.386 . S
C1216 C1218 1.391 . S
C1217 C1216 1.386 . S
C1217 C1221 1.393 . S
C1218 H1210 0.950 . S
C1218 C1216 1.391 . S
C1218 C1219 1.400 . S
C1219 C1218 1.400 . S
C1219 C1220 1.398 . S
C1219 C1225 1.491 . S
C1220 H1211 0.950 . S
C1220 C1219 1.398 . S
C1220 C1221 1.391 . S
C1221 H1209 0.950 . S
C1221 C1217 1.393 . S
C1221 C1220 1.391 . S
C1222 H1212 0.950 . S
C1222 C1223 1.386 . S
C1222 C1224 1.391 . S
C1223 C1222 1.386 . S
C1223 C1227 1.393 . S
C1224 H1213 0.950 . S
C1224 C1222 1.391 . S
C1224 C1225 1.400 . S
C1225 C1219 1.491 . S
C1225 C1224 1.400 . S
C1225 C1226 1.398 . S
C1226 H1214 0.950 . S
C1226 C1225 1.398 . S
C1226 C1227 1.391 . S
C1227 H1215 0.950 . S
C1227 C1223 1.393 . S
C1227 C1226 1.391 . S
H1228 C1236 0.950 . S
H1229 C1241 0.950 . S
H1230 C1238 0.950 1_655 S
H1231 C1240 0.950 1_554 S
H1232 C1242 0.950 . S
H1233 C1244 0.950 1_455 S
H1234 C1246 0.950 1_556 S
H1235 C1247 0.950 . S
C1236 H1228 0.950 . S
C1236 C1237 1.386 . S
C1236 C1238 1.391 1_545 S
C1237 C1236 1.386 . S
C1237 C1241 1.393 . S
C1238 H1230 0.950 1_455 S
C1238 C1236 1.391 1_565 S
C1238 C1239 1.400 1_565 S
C1239 C1238 1.400 1_545 S
C1239 C1240 1.398 . S
C1239 C1245 1.491 1_446 S
C1240 H1231 0.950 1_556 S
C1240 C1239 1.398 . S
C1240 C1241 1.391 . S
C1241 H1229 0.950 . S
C1241 C1237 1.393 . S
C1241 C1240 1.391 . S
C1242 H1232 0.950 . S
C1242 C1243 1.386 . S
C1242 C1244 1.391 1_565 S
C1243 C1242 1.386 . S
C1243 C1247 1.393 . S
C1244 H1233 0.950 1_655 S
C1244 C1242 1.391 1_545 S
C1244 C1245 1.400 1_545 S
C1245 C1239 1.491 1_664 S
C1245 C1244 1.400 1_565 S
C1245 C1246 1.398 . S
C1246 H1234 0.950 1_554 S
C1246 C1245 1.398 . S
C1246 C1247 1.391 . S
C1247 H1235 0.950 . S
C1247 C1243 1.393 . S
C1247 C1246 1.391 . S
H1248 C1256 0.950 . S
H1249 C1261 0.950 . S
H1250 C1258 0.950 . S
H1251 C1260 0.950 . S
H1252 C1262 0.950 . S
H1253 C1264 0.950 . S
H1254 C1266 0.950 . S
H1255 C1267 0.950 . S
C1256 H1248 0.950 . S
C1256 C1257 1.386 . S
C1256 C1258 1.391 . S
C1257 C1256 1.386 . S
C1257 C1261 1.393 . S
C1258 H1250 0.950 . S
C1258 C1256 1.391 . S
C1258 C1259 1.400 . S
C1259 C1258 1.400 . S
C1259 C1260 1.398 . S
C1259 C1265 1.491 . S
C1260 H1251 0.950 . S
C1260 C1259 1.398 . S
C1260 C1261 1.391 . S
C1261 H1249 0.950 . S
C1261 C1257 1.393 . S
C1261 C1260 1.391 . S
C1262 H1252 0.950 . S
C1262 C1263 1.386 . S
C1262 C1264 1.391 . S
C1263 C1262 1.386 . S
C1263 C1267 1.393 . S
C1264 H1253 0.950 . S
C1264 C1262 1.391 . S
C1264 C1265 1.400 . S
C1265 C1259 1.491 . S
C1265 C1264 1.400 . S
C1265 C1266 1.398 . S
C1266 H1254 0.950 . S
C1266 C1265 1.398 . S
C1266 C1267 1.391 . S
C1267 H1255 0.950 . S
C1267 C1263 1.393 . S
C1267 C1266 1.391 . S
H1268 C1276 0.950 . S
H1269 C1281 0.950 . S
H1270 C1278 0.950 . S
H1271 C1280 0.950 . S
H1272 C1282 0.950 . S
H1273 C1284 0.950 . S
H1274 C1286 0.950 . S
H1275 C1287 0.950 . S
C1276 H1268 0.950 . S
C1276 C1277 1.386 . S
C1276 C1278 1.391 . S
C1277 C1276 1.386 . S
C1277 C1281 1.393 . S
C1278 H1270 0.950 . S
C1278 C1276 1.391 . S
C1278 C1279 1.400 . S
C1279 C1278 1.400 . S
C1279 C1280 1.398 . S
C1279 C1285 1.491 . S
C1280 H1271 0.950 . S
C1280 C1279 1.398 . S
C1280 C1281 1.391 . S
C1281 H1269 0.950 . S
C1281 C1277 1.393 . S
C1281 C1280 1.391 . S
C1282 H1272 0.950 . S
C1282 C1283 1.386 . S
C1282 C1284 1.391 . S
C1283 C1282 1.386 . S
C1283 C1287 1.393 . S
C1284 H1273 0.950 . S
C1284 C1282 1.391 . S
C1284 C1285 1.400 . S
C1285 C1279 1.491 . S
C1285 C1284 1.400 . S
C1285 C1286 1.398 . S
C1286 H1274 0.950 . S
C1286 C1285 1.398 . S
C1286 C1287 1.391 . S
C1287 H1275 0.950 . S
C1287 C1283 1.393 . S
C1287 C1286 1.391 . S
H1288 C1296 0.950 . S
H1289 C1301 0.950 . S
H1290 C1298 0.950 . S
H1291 C1300 0.950 . S
H1292 C1302 0.950 . S
H1293 C1304 0.950 . S
H1294 C1306 0.950 . S
H1295 C1307 0.950 . S
C1296 H1288 0.950 . S
C1296 C1297 1.386 . S
C1296 C1298 1.391 . S
C1297 C1296 1.386 . S
C1297 C1301 1.393 . S
C1298 H1290 0.950 . S
C1298 C1296 1.391 . S
C1298 C1299 1.400 . S
C1299 C1298 1.400 . S
C1299 C1300 1.398 . S
C1299 C1305 1.491 . S
C1300 H1291 0.950 . S
C1300 C1299 1.398 . S
C1300 C1301 1.391 . S
C1301 H1289 0.950 . S
C1301 C1297 1.393 . S
C1301 C1300 1.391 . S
C1302 H1292 0.950 . S
C1302 C1303 1.386 . S
C1302 C1304 1.391 . S
C1303 C1302 1.386 . S
C1303 C1307 1.393 . S
C1304 H1293 0.950 . S
C1304 C1302 1.391 . S
C1304 C1305 1.400 . S
C1305 C1299 1.491 . S
C1305 C1304 1.400 . S
C1305 C1306 1.398 . S
C1306 H1294 0.950 . S
C1306 C1305 1.398 . S
C1306 C1307 1.391 . S
C1307 H1295 0.950 . S
C1307 C1303 1.393 . S
C1307 C1306 1.391 . S
H1308 C1316 0.950 . S
H1309 C1321 0.950 . S
H1310 C1318 0.950 . S
H1311 C1320 0.950 . S
H1312 C1322 0.950 . S
H1313 C1324 0.950 . S
H1314 C1326 0.950 . S
H1315 C1327 0.950 . S
C1316 H1308 0.950 . S
C1316 C1317 1.386 . S
C1316 C1318 1.391 . S
C1317 C1316 1.386 . S
C1317 C1321 1.393 . S
C1318 H1310 0.950 . S
C1318 C1316 1.391 . S
C1318 C1319 1.400 . S
C1319 C1318 1.400 . S
C1319 C1320 1.398 . S
C1319 C1325 1.491 . S
C1320 H1311 0.950 . S
C1320 C1319 1.398 . S
C1320 C1321 1.391 . S
C1321 H1309 0.950 . S
C1321 C1317 1.393 . S
C1321 C1320 1.391 . S
C1322 H1312 0.950 . S
C1322 C1323 1.386 . S
C1322 C1324 1.391 . S
C1323 C1322 1.386 . S
C1323 C1327 1.393 . S
C1324 H1313 0.950 . S
C1324 C1322 1.391 . S
C1324 C1325 1.400 . S
C1325 C1319 1.491 . S
C1325 C1324 1.400 . S
C1325 C1326 1.398 . S
C1326 H1314 0.950 . S
C1326 C1325 1.398 . S
C1326 C1327 1.391 . S
C1327 H1315 0.950 . S
C1327 C1323 1.393 . S
C1327 C1326 1.391 . S
H1328 C1336 0.950 . S
H1329 C1341 0.950 . S
H1330 C1338 0.950 . S
H1331 C1340 0.950 1_556 S
H1332 C1342 0.950 . S
H1333 C1344 0.950 . S
H1334 C1346 0.950 1_554 S
H1335 C1347 0.950 . S
C1336 H1328 0.950 . S
C1336 C1337 1.386 . S
C1336 C1338 1.391 . S
C1337 C1336 1.386 . S
C1337 C1341 1.393 . S
C1338 H1330 0.950 . S
C1338 C1336 1.391 . S
C1338 C1339 1.400 . S
C1339 C1338 1.400 . S
C1339 C1340 1.398 . S
C1339 C1345 1.491 1_554 S
C1340 H1331 0.950 1_554 S
C1340 C1339 1.398 . S
C1340 C1341 1.391 . S
C1341 H1329 0.950 . S
C1341 C1337 1.393 . S
C1341 C1340 1.391 . S
C1342 H1332 0.950 . S
C1342 C1343 1.386 . S
C1342 C1344 1.391 . S
C1343 C1342 1.386 . S
C1343 C1347 1.393 . S
C1344 H1333 0.950 . S
C1344 C1342 1.391 . S
C1344 C1345 1.400 . S
C1345 C1339 1.491 1_556 S
C1345 C1344 1.400 . S
C1345 C1346 1.398 . S
C1346 H1334 0.950 1_556 S
C1346 C1345 1.398 . S
C1346 C1347 1.391 . S
C1347 H1335 0.950 . S
C1347 C1343 1.393 . S
C1347 C1346 1.391 . S
H1348 C1356 0.950 . S
H1349 C1361 0.950 . S
H1350 C1358 0.950 . S
H1351 C1360 0.950 . S
H1352 C1362 0.950 . S
H1353 C1364 0.950 . S
H1354 C1366 0.950 . S
H1355 C1367 0.950 . S
C1356 H1348 0.950 . S
C1356 C1357 1.386 . S
C1356 C1358 1.391 . S
C1357 C1356 1.386 . S
C1357 C1361 1.393 . S
C1358 H1350 0.950 . S
C1358 C1356 1.391 . S
C1358 C1359 1.400 . S
C1359 C1358 1.400 . S
C1359 C1360 1.398 . S
C1359 C1365 1.491 1_455 S
C1360 H1351 0.950 . S
C1360 C1359 1.398 . S
C1360 C1361 1.391 . S
C1361 H1349 0.950 . S
C1361 C1357 1.393 . S
C1361 C1360 1.391 . S
C1362 H1352 0.950 . S
C1362 C1363 1.386 . S
C1362 C1364 1.391 . S
C1363 C1362 1.386 . S
C1363 C1367 1.393 . S
C1364 H1353 0.950 . S
C1364 C1362 1.391 . S
C1364 C1365 1.400 . S
C1365 C1359 1.491 1_655 S
C1365 C1364 1.400 . S
C1365 C1366 1.398 . S
C1366 H1354 0.950 . S
C1366 C1365 1.398 . S
C1366 C1367 1.391 . S
C1367 H1355 0.950 . S
C1367 C1363 1.393 . S
C1367 C1366 1.391 . S
H1368 C1376 0.950 . S
H1369 C1381 0.950 . S
H1370 C1378 0.950 1_655 S
H1371 C1380 0.921 1_556 S
H1372 C1382 0.950 . S
H1373 C1384 0.950 1_455 S
H1374 C1386 0.921 1_554 S
H1375 C1387 0.950 . S
C1376 H1368 0.950 . S
C1376 C1377 1.386 . S
C1376 C1378 1.391 . S
C1377 C1376 1.386 . S
C1377 C1381 1.393 . S
C1378 H1370 0.950 1_455 S
C1378 C1376 1.391 . S
C1378 C1379 1.400 . S
C1379 C1378 1.400 . S
C1379 C1380 1.398 . S
C1379 C1385 1.491 1_454 S
C1380 H1371 0.921 1_554 S
C1380 C1379 1.398 . S
C1380 C1381 1.391 . S
C1381 H1369 0.950 . S
C1381 C1377 1.393 . S
C1381 C1380 1.391 . S
C1382 H1372 0.950 . S
C1382 C1383 1.386 . S
C1382 C1384 1.391 . S
C1383 C1382 1.386 . S
C1383 C1387 1.393 . S
C1384 H1373 0.950 1_655 S
C1384 C1382 1.391 . S
C1384 C1385 1.400 . S
C1385 C1379 1.491 1_656 S
C1385 C1384 1.400 . S
C1385 C1386 1.398 . S
C1386 H1374 0.921 1_556 S
C1386 C1385 1.398 . S
C1386 C1387 1.391 . S
C1387 H1375 0.950 . S
C1387 C1383 1.393 . S
C1387 C1386 1.391 . S
H1388 C1396 0.950 . S
H1389 C1401 0.950 . S
H1390 C1398 0.950 . S
H1391 C1400 0.950 . S
H1392 C1402 0.950 . S
H1393 C1404 0.950 . S
H1394 C1406 0.950 . S
H1395 C1407 0.950 . S
C1396 H1388 0.950 . S
C1396 C1397 1.386 . S
C1396 C1398 1.391 . S
C1397 C1396 1.386 . S
C1397 C1401 1.393 . S
C1398 H1390 0.950 . S
C1398 C1396 1.391 . S
C1398 C1399 1.400 . S
C1399 C1398 1.400 . S
C1399 C1400 1.398 . S
C1399 C1405 1.491 . S
C1400 H1391 0.950 . S
C1400 C1399 1.398 . S
C1400 C1401 1.391 . S
C1401 H1389 0.950 . S
C1401 C1397 1.393 . S
C1401 C1400 1.391 . S
C1402 H1392 0.950 . S
C1402 C1403 1.386 . S
C1402 C1404 1.391 . S
C1403 C1402 1.386 . S
C1403 C1407 1.393 . S
C1404 H1393 0.950 . S
C1404 C1402 1.391 . S
C1404 C1405 1.400 . S
C1405 C1399 1.491 . S
C1405 C1404 1.400 . S
C1405 C1406 1.398 . S
C1406 H1394 0.950 . S
C1406 C1405 1.398 . S
C1406 C1407 1.391 . S
C1407 H1395 0.950 . S
C1407 C1403 1.393 . S
C1407 C1406 1.391 . S
H1408 C1416 0.950 . S
H1409 C1421 0.950 . S
H1410 C1418 0.950 . S
H1411 C1420 0.950 1_565 S
H1412 C1422 0.950 . S
H1413 C1424 0.950 . S
H1414 C1426 0.950 1_545 S
H1415 C1427 0.950 . S
C1416 H1408 0.950 . S
C1416 C1417 1.386 . S
C1416 C1418 1.391 . S
C1417 C1416 1.386 . S
C1417 C1421 1.393 . S
C1418 H1410 0.950 . S
C1418 C1416 1.391 . S
C1418 C1419 1.400 . S
C1419 C1418 1.400 . S
C1419 C1420 1.398 . S
C1419 C1425 1.491 1_545 S
C1420 H1411 0.950 1_545 S
C1420 C1419 1.398 . S
C1420 C1421 1.391 . S
C1421 H1409 0.950 . S
C1421 C1417 1.393 . S
C1421 C1420 1.391 . S
C1422 H1412 0.950 . S
C1422 C1423 1.386 . S
C1422 C1424 1.391 . S
C1423 C1422 1.386 . S
C1423 C1427 1.393 . S
C1424 H1413 0.950 . S
C1424 C1422 1.391 . S
C1424 C1425 1.400 . S
C1425 C1419 1.491 1_565 S
C1425 C1424 1.400 . S
C1425 C1426 1.398 . S
C1426 H1414 0.950 1_565 S
C1426 C1425 1.398 . S
C1426 C1427 1.391 . S
C1427 H1415 0.950 . S
C1427 C1423 1.393 . S
C1427 C1426 1.391 . S
H1428 C1436 0.950 . S
H1429 C1441 0.950 . S
H1430 C1438 0.950 . S
H1431 C1440 0.950 . S
H1432 C1442 0.950 . S
H1433 C1444 0.950 . S
H1434 C1446 0.950 . S
H1435 C1447 0.950 . S
C1436 H1428 0.950 . S
C1436 C1437 1.386 . S
C1436 C1438 1.391 . S
C1437 C1436 1.386 . S
C1437 C1441 1.393 . S
C1438 H1430 0.950 . S
C1438 C1436 1.391 . S
C1438 C1439 1.400 . S
C1439 C1438 1.400 . S
C1439 C1440 1.398 . S
C1439 C1445 1.491 . S
C1440 H1431 0.950 . S
C1440 C1439 1.398 . S
C1440 C1441 1.391 . S
C1441 H1429 0.950 . S
C1441 C1437 1.393 . S
C1441 C1440 1.391 . S
C1442 H1432 0.950 . S
C1442 C1443 1.386 . S
C1442 C1444 1.391 . S
C1443 C1442 1.386 . S
C1443 C1447 1.393 . S
C1444 H1433 0.950 . S
C1444 C1442 1.391 . S
C1444 C1445 1.400 . S
C1445 C1439 1.491 . S
C1445 C1444 1.400 . S
C1445 C1446 1.398 . S
C1446 H1434 0.950 . S
C1446 C1445 1.398 . S
C1446 C1447 1.391 . S
C1447 H1435 0.950 . S
C1447 C1443 1.393 . S
C1447 C1446 1.391 . S
H1448 C1456 0.950 . S
H1449 C1461 0.950 . S
H1450 C1458 0.950 1_565 S
H1451 C1460 0.950 . S
H1452 C1462 0.950 . S
H1453 C1464 0.950 1_545 S
H1454 C1466 0.950 . S
H1455 C1467 0.950 . S
C1456 H1448 0.950 . S
C1456 C1457 1.386 . S
C1456 C1458 1.391 . S
C1457 C1456 1.386 . S
C1457 C1461 1.393 . S
C1458 H1450 0.950 1_545 S
C1458 C1456 1.391 . S
C1458 C1459 1.400 . S
C1459 C1458 1.400 . S
C1459 C1460 1.398 . S
C1459 C1465 1.491 1_545 S
C1460 H1451 0.950 . S
C1460 C1459 1.398 . S
C1460 C1461 1.391 . S
C1461 H1449 0.950 . S
C1461 C1457 1.393 . S
C1461 C1460 1.391 . S
C1462 H1452 0.950 . S
C1462 C1463 1.386 . S
C1462 C1464 1.391 . S
C1463 C1462 1.386 . S
C1463 C1467 1.393 . S
C1464 H1453 0.950 1_565 S
C1464 C1462 1.391 . S
C1464 C1465 1.400 . S
C1465 C1459 1.491 1_565 S
C1465 C1464 1.400 . S
C1465 C1466 1.398 . S
C1466 H1454 0.950 . S
C1466 C1465 1.398 . S
C1466 C1467 1.391 . S
C1467 H1455 0.950 . S
C1467 C1463 1.393 . S
C1467 C1466 1.391 . S
H1468 C1476 0.950 . S
H1469 C1481 0.950 . S
H1470 C1478 0.993 . S
H1471 C1480 0.950 . S
H1472 C1482 0.950 . S
H1473 C1484 0.993 . S
H1474 C1486 0.950 . S
H1475 C1487 0.950 . S
C1476 H1468 0.950 . S
C1476 C1477 1.386 . S
C1476 C1478 1.391 . S
C1477 C1476 1.386 . S
C1477 C1481 1.393 . S
C1478 H1470 0.993 . S
C1478 C1476 1.391 . S
C1478 C1479 1.400 . S
C1479 C1478 1.400 . S
C1479 C1480 1.398 . S
C1479 C1485 1.491 1_554 S
C1480 H1471 0.950 . S
C1480 C1479 1.398 . S
C1480 C1481 1.391 . S
C1481 H1469 0.950 . S
C1481 C1477 1.393 . S
C1481 C1480 1.391 . S
C1482 H1472 0.950 . S
C1482 C1483 1.386 . S
C1482 C1484 1.391 . S
C1483 C1482 1.386 . S
C1483 C1487 1.393 . S
C1484 H1473 0.993 . S
C1484 C1482 1.391 . S
C1484 C1485 1.400 . S
C1485 C1479 1.491 1_556 S
C1485 C1484 1.400 . S
C1485 C1486 1.398 . S
C1486 H1474 0.950 . S
C1486 C1485 1.398 . S
C1486 C1487 1.391 . S
C1487 H1475 0.950 . S
C1487 C1483 1.393 . S
C1487 C1486 1.391 . S
H1488 C1496 0.950 . S
H1489 C1501 0.950 . S
H1490 C1498 0.950 . S
H1491 C1500 0.950 1_565 S
H1492 C1502 0.950 . S
H1493 C1504 0.950 . S
H1494 C1506 0.950 1_545 S
H1495 C1507 0.950 . S
C1496 H1488 0.950 . S
C1496 C1497 1.386 . S
C1496 C1498 1.391 . S
C1497 C1496 1.386 . S
C1497 C1501 1.393 . S
C1498 H1490 0.950 . S
C1498 C1496 1.391 . S
C1498 C1499 1.400 . S
C1499 C1498 1.400 . S
C1499 C1500 1.398 . S
C1499 C1505 1.491 1_545 S
C1500 H1491 0.950 1_545 S
C1500 C1499 1.398 . S
C1500 C1501 1.391 . S
C1501 H1489 0.950 . S
C1501 C1497 1.393 . S
C1501 C1500 1.391 . S
C1502 H1492 0.950 . S
C1502 C1503 1.386 . S
C1502 C1504 1.391 . S
C1503 C1502 1.386 . S
C1503 C1507 1.393 . S
C1504 H1493 0.950 . S
C1504 C1502 1.391 . S
C1504 C1505 1.400 . S
C1505 C1499 1.491 1_565 S
C1505 C1504 1.400 . S
C1505 C1506 1.398 . S
C1506 H1494 0.950 1_565 S
C1506 C1505 1.398 . S
C1506 C1507 1.391 . S
C1507 H1495 0.950 . S
C1507 C1503 1.393 . S
C1507 C1506 1.391 . S
H1508 C1516 0.950 . S
H1509 C1521 0.950 . S
H1510 C1518 0.950 . S
H1511 C1520 0.950 . S
H1512 C1522 0.950 . S
H1513 C1524 0.950 . S
H1514 C1526 0.950 . S
H1515 C1527 0.950 . S
C1516 H1508 0.950 . S
C1516 C1517 1.386 . S
C1516 C1518 1.391 . S
C1517 C1516 1.386 . S
C1517 C1521 1.393 . S
C1518 H1510 0.950 . S
C1518 C1516 1.391 . S
C1518 C1519 1.400 . S
C1519 C1518 1.400 . S
C1519 C1520 1.398 . S
C1519 C1525 1.491 . S
C1520 H1511 0.950 . S
C1520 C1519 1.398 . S
C1520 C1521 1.391 . S
C1521 H1509 0.950 . S
C1521 C1517 1.393 . S
C1521 C1520 1.391 . S
C1522 H1512 0.950 . S
C1522 C1523 1.386 . S
C1522 C1524 1.391 . S
C1523 C1522 1.386 . S
C1523 C1527 1.393 . S
C1524 H1513 0.950 . S
C1524 C1522 1.391 . S
C1524 C1525 1.400 . S
C1525 C1519 1.491 . S
C1525 C1524 1.400 . S
C1525 C1526 1.398 . S
C1526 H1514 0.950 . S
C1526 C1525 1.398 . S
C1526 C1527 1.391 . S
C1527 H1515 0.950 . S
C1527 C1523 1.393 . S
C1527 C1526 1.391 . S
H1528 C1536 0.950 . S
H1529 C1541 0.950 . S
H1530 C1538 0.950 . S
H1531 C1540 0.950 1_565 S
H1532 C1542 0.950 . S
H1533 C1544 0.950 . S
H1534 C1546 0.950 1_545 S
H1535 C1547 0.950 . S
C1536 H1528 0.950 . S
C1536 C1537 1.386 . S
C1536 C1538 1.391 . S
C1537 C1536 1.386 . S
C1537 C1541 1.393 . S
C1538 H1530 0.950 . S
C1538 C1536 1.391 . S
C1538 C1539 1.400 . S
C1539 C1538 1.400 . S
C1539 C1540 1.398 . S
C1539 C1545 1.491 1_545 S
C1540 H1531 0.950 1_545 S
C1540 C1539 1.398 . S
C1540 C1541 1.391 . S
C1541 H1529 0.950 . S
C1541 C1537 1.393 . S
C1541 C1540 1.391 . S
C1542 H1532 0.950 . S
C1542 C1543 1.386 . S
C1542 C1544 1.391 . S
C1543 C1542 1.386 . S
C1543 C1547 1.393 . S
C1544 H1533 0.950 . S
C1544 C1542 1.391 . S
C1544 C1545 1.400 . S
C1545 C1539 1.491 1_565 S
C1545 C1544 1.400 . S
C1545 C1546 1.398 . S
C1546 H1534 0.950 1_565 S
C1546 C1545 1.398 . S
C1546 C1547 1.391 . S
C1547 H1535 0.950 . S
C1547 C1543 1.393 . S
C1547 C1546 1.391 . S
H1548 C1556 0.950 . S
H1549 C1561 0.950 . S
H1550 C1558 0.950 . S
H1551 C1560 0.950 1_554 S
H1552 C1562 0.950 . S
H1553 C1564 0.950 . S
H1554 C1566 0.950 1_556 S
H1555 C1567 0.950 . S
C1556 H1548 0.950 . S
C1556 C1557 1.386 . S
C1556 C1558 1.391 . S
C1557 C1556 1.386 . S
C1557 C1561 1.393 . S
C1558 H1550 0.950 . S
C1558 C1556 1.391 . S
C1558 C1559 1.400 . S
C1559 C1558 1.400 . S
C1559 C1560 1.398 . S
C1559 C1565 1.491 1_556 S
C1560 H1551 0.950 1_556 S
C1560 C1559 1.398 . S
C1560 C1561 1.391 . S
C1561 H1549 0.950 . S
C1561 C1557 1.393 . S
C1561 C1560 1.391 . S
C1562 H1552 0.950 . S
C1562 C1563 1.386 . S
C1562 C1564 1.391 . S
C1563 C1562 1.386 . S
C1563 C1567 1.393 . S
C1564 H1553 0.950 . S
C1564 C1562 1.391 . S
C1564 C1565 1.400 . S
C1565 C1559 1.491 1_554 S
C1565 C1564 1.400 . S
C1565 C1566 1.398 . S
C1566 H1554 0.950 1_554 S
C1566 C1565 1.398 . S
C1566 C1567 1.391 . S
C1567 H1555 0.950 . S
C1567 C1563 1.393 . S
C1567 C1566 1.391 . S
H1568 C1576 0.950 . S
H1569 C1581 0.950 . S
H1570 C1578 0.950 . S
H1571 C1580 0.950 . S
H1572 C1582 0.950 . S
H1573 C1584 0.950 . S
H1574 C1586 0.950 . S
H1575 C1587 0.950 . S
C1576 H1568 0.950 . S
C1576 C1577 1.386 . S
C1576 C1578 1.391 . S
C1577 C1576 1.386 . S
C1577 C1581 1.393 . S
C1578 H1570 0.950 . S
C1578 C1576 1.391 . S
C1578 C1579 1.400 . S
C1579 C1578 1.400 . S
C1579 C1580 1.398 . S
C1579 C1585 1.491 . S
C1580 H1571 0.950 . S
C1580 C1579 1.398 . S
C1580 C1581 1.391 . S
C1581 H1569 0.950 . S
C1581 C1577 1.393 . S
C1581 C1580 1.391 . S
C1582 H1572 0.950 . S
C1582 C1583 1.386 . S
C1582 C1584 1.391 . S
C1583 C1582 1.386 . S
C1583 C1587 1.393 . S
C1584 H1573 0.950 . S
C1584 C1582 1.391 . S
C1584 C1585 1.400 . S
C1585 C1579 1.491 . S
C1585 C1584 1.400 . S
C1585 C1586 1.398 . S
C1586 H1574 0.950 . S
C1586 C1585 1.398 . S
C1586 C1587 1.391 . S
C1587 H1575 0.950 . S
C1587 C1583 1.393 . S
C1587 C1586 1.391 . S
H1588 C1596 0.950 . S
H1589 C1601 0.950 . S
H1590 C1598 0.950 . S
H1591 C1600 0.950 1_554 S
H1592 C1602 0.950 . S
H1593 C1604 0.950 . S
H1594 C1606 0.950 1_556 S
H1595 C1607 0.950 . S
C1596 H1588 0.950 . S
C1596 C1597 1.386 . S
C1596 C1598 1.391 . S
C1597 C1596 1.386 . S
C1597 C1601 1.393 . S
C1598 H1590 0.950 . S
C1598 C1596 1.391 . S
C1598 C1599 1.400 . S
C1599 C1598 1.400 . S
C1599 C1600 1.398 . S
C1599 C1605 1.491 1_556 S
C1600 H1591 0.950 1_556 S
C1600 C1599 1.398 . S
C1600 C1601 1.391 . S
C1601 H1589 0.950 . S
C1601 C1597 1.393 . S
C1601 C1600 1.391 . S
C1602 H1592 0.950 . S
C1602 C1603 1.386 . S
C1602 C1604 1.391 . S
C1603 C1602 1.386 . S
C1603 C1607 1.393 . S
C1604 H1593 0.950 . S
C1604 C1602 1.391 . S
C1604 C1605 1.400 . S
C1605 C1599 1.491 1_554 S
C1605 C1604 1.400 . S
C1605 C1606 1.398 . S
C1606 H1594 0.950 1_554 S
C1606 C1605 1.398 . S
C1606 C1607 1.391 . S
C1607 H1595 0.950 . S
C1607 C1603 1.393 . S
C1607 C1606 1.391 . S
H1608 C1616 0.950 . S
H1609 C1621 0.950 . S
H1610 C1618 0.950 . S
H1611 C1620 0.950 . S
H1612 C1622 0.950 . S
H1613 C1624 0.950 . S
H1614 C1626 0.950 . S
H1615 C1627 0.950 . S
C1616 H1608 0.950 . S
C1616 C1617 1.386 . S
C1616 C1618 1.391 . S
C1617 C1616 1.386 . S
C1617 C1621 1.393 . S
C1618 H1610 0.950 . S
C1618 C1616 1.391 . S
C1618 C1619 1.400 . S
C1619 C1618 1.400 . S
C1619 C1620 1.398 . S
C1619 C1625 1.491 . S
C1620 H1611 0.950 . S
C1620 C1619 1.398 . S
C1620 C1621 1.391 . S
C1621 H1609 0.950 . S
C1621 C1617 1.393 . S
C1621 C1620 1.391 . S
C1622 H1612 0.950 . S
C1622 C1623 1.386 . S
C1622 C1624 1.391 . S
C1623 C1622 1.386 . S
C1623 C1627 1.393 . S
C1624 H1613 0.950 . S
C1624 C1622 1.391 . S
C1624 C1625 1.400 . S
C1625 C1619 1.491 . S
C1625 C1624 1.400 . S
C1625 C1626 1.398 . S
C1626 H1614 0.950 . S
C1626 C1625 1.398 . S
C1626 C1627 1.391 . S
C1627 H1615 0.950 . S
C1627 C1623 1.393 . S
C1627 C1626 1.391 . S
H1628 C1636 0.950 . S
H1629 C1641 0.950 . S
H1630 C1638 0.950 . S
H1631 C1640 0.950 . S
H1632 C1642 0.950 . S
H1633 C1644 0.950 . S
H1634 C1646 0.950 . S
H1635 C1647 0.950 . S
C1636 H1628 0.950 . S
C1636 C1637 1.386 . S
C1636 C1638 1.391 . S
C1637 C1636 1.386 . S
C1637 C1641 1.393 . S
C1638 H1630 0.950 . S
C1638 C1636 1.391 . S
C1638 C1639 1.400 . S
C1639 C1638 1.400 . S
C1639 C1640 1.398 . S
C1639 C1645 1.491 . S
C1640 H1631 0.950 . S
C1640 C1639 1.398 . S
C1640 C1641 1.391 . S
C1641 H1629 0.950 . S
C1641 C1637 1.393 . S
C1641 C1640 1.391 . S
C1642 H1632 0.950 . S
C1642 C1643 1.386 . S
C1642 C1644 1.391 . S
C1643 C1642 1.386 . S
C1643 C1647 1.393 . S
C1644 H1633 0.950 . S
C1644 C1642 1.391 . S
C1644 C1645 1.400 . S
C1645 C1639 1.491 . S
C1645 C1644 1.400 . S
C1645 C1646 1.398 . S
C1646 H1634 0.950 . S
C1646 C1645 1.398 . S
C1646 C1647 1.391 . S
C1647 H1635 0.950 . S
C1647 C1643 1.393 . S
C1647 C1646 1.391 . S
H1648 C1656 0.950 . S
H1649 C1661 0.950 . S
H1650 C1658 0.950 . S
H1651 C1660 0.950 . S
H1652 C1662 0.950 . S
H1653 C1664 0.950 . S
H1654 C1666 0.950 . S
H1655 C1667 0.950 . S
C1656 H1648 0.950 . S
C1656 C1657 1.386 . S
C1656 C1658 1.391 . S
C1657 C1656 1.386 . S
C1657 C1661 1.393 . S
C1658 H1650 0.950 . S
C1658 C1656 1.391 . S
C1658 C1659 1.400 . S
C1659 C1658 1.400 . S
C1659 C1660 1.398 . S
C1659 C1665 1.491 . S
C1660 H1651 0.950 . S
C1660 C1659 1.398 . S
C1660 C1661 1.391 . S
C1661 H1649 0.950 . S
C1661 C1657 1.393 . S
C1661 C1660 1.391 . S
C1662 H1652 0.950 . S
C1662 C1663 1.386 . S
C1662 C1664 1.391 . S
C1663 C1662 1.386 . S
C1663 C1667 1.393 . S
C1664 H1653 0.950 . S
C1664 C1662 1.391 . S
C1664 C1665 1.400 . S
C1665 C1659 1.491 . S
C1665 C1664 1.400 . S
C1665 C1666 1.398 . S
C1666 H1654 0.950 . S
C1666 C1665 1.398 . S
C1666 C1667 1.391 . S
C1667 H1655 0.950 . S
C1667 C1663 1.393 . S
C1667 C1666 1.391 . S
H1668 C1676 0.950 . S
H1669 C1681 0.950 . S
H1670 C1678 0.950 1_554 S
H1671 C1680 0.950 . S
H1672 C1682 0.950 . S
H1673 C1684 0.950 1_556 S
H1674 C1686 0.950 . S
H1675 C1687 0.950 . S
C1676 H1668 0.950 . S
C1676 C1677 1.386 . S
C1676 C1678 1.391 . S
C1677 C1676 1.386 . S
C1677 C1681 1.393 . S
C1678 H1670 0.950 1_556 S
C1678 C1676 1.391 . S
C1678 C1679 1.400 . S
C1679 C1678 1.400 . S
C1679 C1680 1.398 . S
C1679 C1685 1.491 1_556 S
C1680 H1671 0.950 . S
C1680 C1679 1.398 . S
C1680 C1681 1.391 . S
C1681 H1669 0.950 . S
C1681 C1677 1.393 . S
C1681 C1680 1.391 . S
C1682 H1672 0.950 . S
C1682 C1683 1.386 . S
C1682 C1684 1.391 . S
C1683 C1682 1.386 . S
C1683 C1687 1.393 . S
C1684 H1673 0.950 1_554 S
C1684 C1682 1.391 . S
C1684 C1685 1.400 . S
C1685 C1679 1.491 1_554 S
C1685 C1684 1.400 . S
C1685 C1686 1.398 . S
C1686 H1674 0.950 . S
C1686 C1685 1.398 . S
C1686 C1687 1.391 . S
C1687 H1675 0.950 . S
C1687 C1683 1.393 . S
C1687 C1686 1.391 . S
H1688 C1696 0.950 . S
H1689 C1701 0.950 . S
H1690 C1698 0.950 . S
H1691 C1700 0.950 . S
H1692 C1702 0.950 . S
H1693 C1704 0.950 . S
H1694 C1706 0.950 . S
H1695 C1707 0.950 . S
C1696 H1688 0.950 . S
C1696 C1697 1.386 . S
C1696 C1698 1.391 . S
C1697 C1696 1.386 . S
C1697 C1701 1.393 . S
C1698 H1690 0.950 . S
C1698 C1696 1.391 . S
C1698 C1699 1.400 . S
C1699 C1698 1.400 . S
C1699 C1700 1.398 . S
C1699 C1705 1.491 . S
C1700 H1691 0.950 . S
C1700 C1699 1.398 . S
C1700 C1701 1.391 . S
C1701 H1689 0.950 . S
C1701 C1697 1.393 . S
C1701 C1700 1.391 . S
C1702 H1692 0.950 . S
C1702 C1703 1.386 . S
C1702 C1704 1.391 . S
C1703 C1702 1.386 . S
C1703 C1707 1.393 . S
C1704 H1693 0.950 . S
C1704 C1702 1.391 . S
C1704 C1705 1.400 . S
C1705 C1699 1.491 . S
C1705 C1704 1.400 . S
C1705 C1706 1.398 . S
C1706 H1694 0.950 . S
C1706 C1705 1.398 . S
C1706 C1707 1.391 . S
C1707 H1695 0.950 . S
C1707 C1703 1.393 . S
C1707 C1706 1.391 . S
H1708 C1716 0.950 . S
H1709 C1721 0.950 . S
H1710 C1718 0.950 . S
H1711 C1720 0.950 . S
H1712 C1722 0.950 . S
H1713 C1724 0.950 . S
H1714 C1726 0.950 . S
H1715 C1727 0.950 . S
C1716 H1708 0.950 . S
C1716 C1717 1.386 . S
C1716 C1718 1.391 . S
C1717 C1716 1.386 . S
C1717 C1721 1.393 . S
C1718 H1710 0.950 . S
C1718 C1716 1.391 . S
C1718 C1719 1.400 . S
C1719 C1718 1.400 . S
C1719 C1720 1.398 . S
C1719 C1725 1.491 . S
C1720 H1711 0.950 . S
C1720 C1719 1.398 . S
C1720 C1721 1.391 . S
C1721 H1709 0.950 . S
C1721 C1717 1.393 . S
C1721 C1720 1.391 . S
C1722 H1712 0.950 . S
C1722 C1723 1.386 . S
C1722 C1724 1.391 . S
C1723 C1722 1.386 . S
C1723 C1727 1.393 . S
C1724 H1713 0.950 . S
C1724 C1722 1.391 . S
C1724 C1725 1.400 . S
C1725 C1719 1.491 . S
C1725 C1724 1.400 . S
C1725 C1726 1.398 . S
C1726 H1714 0.950 . S
C1726 C1725 1.398 . S
C1726 C1727 1.391 . S
C1727 H1715 0.950 . S
C1727 C1723 1.393 . S
C1727 C1726 1.391 . S
C457 C390 1.484 . S
C463 C1 1.504 . S
C477 C26 1.511 . S
C483 C112 1.497 . S
C497 C363 1.496 . S
C503 C28 1.514 . S
C517 C42 1.505 . S
C523 C153 1.481 . S
C537 C56 1.503 . S
C543 C419 1.480 . S
C557 C71 1.510 . S
C563 C208 1.484 . S
C577 C96 1.502 . S
C583 C447 1.481 . S
C597 C111 1.511 . S
C603 C181 1.498 . S
C617 C279 1.485 . S
C623 C125 1.510 . S
C637 C12 1.487 . S
C643 C139 1.510 . S
C657 C239 1.479 . S
C663 C140 1.506 . S
C677 C166 1.511 . S
C683 C41 1.485 . S
C697 C306 1.480 . S
C703 C168 1.505 . S
C717 C85 1.494 . S
C723 C182 1.509 . S
C737 C197 1.504 . S
C743 C334 1.480 . S
C757 C69 1.487 . S
C763 C222 1.505 . S
C777 C225 1.509 . S
C783 C155 1.484 . S
C797 C250 1.511 . S
C803 C336 1.497 . S
C817 C126 1.486 . S
C823 C252 1.504 . S
C837 C376 1.496 . S
C843 C266 1.510 . S
C857 C195 1.499 . S
C863 C292 1.511 . S
C877 C433 1.484 . S
C883 C295 1.503 . S
C897 C211 1.487 . S
C903 C320 1.510 . S
C917 C323 1.505 . S
C923 C405 1.480 . S
C937 C55 1.497 . S
C943 C349 1.511 . S
C957 C350 1.514 . S
C963 C236 1.496 . S
C977 C365 1.511 . S
C983 C15 1.486 . S
C997 C379 1.505 . S
C1003 C265 1.490 . S
C1017 C392 1.503 . S
C1023 C82 1.481 . S
C1037 C406 1.510 . S
C1043 C309 1.495 . S
C1057 C420 1.507 . S
C1063 C98 1.482 . S
C1077 C434 1.503 . S
C1083 C281 1.478 . S
C1097 C337 1.703 . S
C1103 C13 1.700 . S
C1117 C14 1.688 . S
C1123 C127 1.688 . S
C1137 C377 1.689 . S
C1143 C40 1.689 . S
C1157 C54 1.693 . S
C1163 C154 1.690 . S
C1177 C404 1.680 . S
C1183 C68 1.683 . S
C1197 C83 1.701 . S
C1203 C194 1.701 . S
C1217 C432 1.684 . S
C1223 C84 1.687 . S
C1237 C99 1.702 . S
C1243 C210 1.702 . S
C1257 C113 1.687 . S
C1263 C237 1.684 . S
C1277 C152 1.700 . S
C1283 C264 1.703 . S
C1297 C180 1.694 . S
C1303 C280 1.697 . S
C1317 C209 1.685 . S
C1323 C308 1.685 . S
C1337 C238 1.702 . S
C1343 C362 1.700 . S
C1357 C391 1.686 . S
C1363 C278 1.686 . S
C1377 C418 1.688 . S
C1383 C307 1.688 . S
C1397 C335 1.698 . S
C1403 C446 1.698 . S
C1417 C0 1.944 . S
C1423 C57 1.943 . S
C1437 C27 1.940 . S
C1443 C70 1.942 . S
C1457 C97 1.940 . S
C1463 C29 1.945 . S
C1477 C43 1.945 . S
C1483 C110 1.942 . S
C1497 C169 1.940 . S
C1503 C124 1.946 . S
C1517 C183 1.943 . S
C1523 C138 1.940 . S
C1537 C141 1.940 . S
C1543 C196 1.946 . S
C1557 C167 1.945 . S
C1563 C223 1.940 . S
C1577 C293 1.945 . S
C1583 C224 1.943 . S
C1597 C294 1.939 . S
C1603 C251 1.945 . S
C1617 C253 1.945 . S
C1623 C321 1.942 . S
C1637 C322 1.939 . S
C1643 C267 1.945 . S
C1657 C393 1.939 . S
C1663 C348 1.944 . S
C1677 C351 1.940 . S
C1683 C407 1.945 . S
C1697 C421 1.939 . S
C1703 C364 1.945 . S
C1717 C378 1.946 . S
C1723 C435 1.940 . S
