# Generated by pormake.
# Topology afi, (4)-cn, num edge types: 1
# Building blocks:
#     Node 0, Type 0, BuildingBlock: GALJAG_clean_sbu_0, # of connection points: 4
#     Node 1, Type 0, BuildingBlock: GALJAG_clean_sbu_0, # of connection points: 4
#     Node 2, Type 0, BuildingBlock: GALJAG_clean_sbu_0, # of connection points: 4
#     Node 3, Type 0, BuildingBlock: GALJAG_clean_sbu_0, # of connection points: 4
#     Node 4, Type 0, BuildingBlock: GALJAG_clean_sbu_0, # of connection points: 4
#     Node 5, Type 0, BuildingBlock: GALJAG_clean_sbu_0, # of connection points: 4
#     Node 6, Type 0, BuildingBlock: GALJAG_clean_sbu_0, # of connection points: 4
#     Node 7, Type 0, BuildingBlock: GALJAG_clean_sbu_0, # of connection points: 4
#     Node 8, Type 0, BuildingBlock: GALJAG_clean_sbu_0, # of connection points: 4
#     Node 9, Type 0, BuildingBlock: GALJAG_clean_sbu_0, # of connection points: 4
#     Node 10, Type 0, BuildingBlock: GALJAG_clean_sbu_0, # of connection points: 4
#     Node 11, Type 0, BuildingBlock: GALJAG_clean_sbu_0, # of connection points: 4
#     Node 12, Type 0, BuildingBlock: GALJAG_clean_sbu_0, # of connection points: 4
#     Node 13, Type 0, BuildingBlock: GALJAG_clean_sbu_0, # of connection points: 4
#     Node 14, Type 0, BuildingBlock: GALJAG_clean_sbu_0, # of connection points: 4
#     Node 15, Type 0, BuildingBlock: GALJAG_clean_sbu_0, # of connection points: 4
#     Node 16, Type 0, BuildingBlock: GALJAG_clean_sbu_0, # of connection points: 4
#     Node 17, Type 0, BuildingBlock: GALJAG_clean_sbu_0, # of connection points: 4
#     Node 18, Type 0, BuildingBlock: GALJAG_clean_sbu_0, # of connection points: 4
#     Node 19, Type 0, BuildingBlock: GALJAG_clean_sbu_0, # of connection points: 4
#     Node 20, Type 0, BuildingBlock: GALJAG_clean_sbu_0, # of connection points: 4
#     Node 21, Type 0, BuildingBlock: GALJAG_clean_sbu_0, # of connection points: 4
#     Node 22, Type 0, BuildingBlock: GALJAG_clean_sbu_0, # of connection points: 4
#     Node 23, Type 0, BuildingBlock: GALJAG_clean_sbu_0, # of connection points: 4
#     Edge 24, Type (0, 0), BuildingBlock: EZIPEK_clean_linker_0, # of connection points: 2
#     Edge 25, Type (0, 0), BuildingBlock: EZIPEK_clean_linker_0, # of connection points: 2
#     Edge 26, Type (0, 0), BuildingBlock: EZIPEK_clean_linker_0, # of connection points: 2
#     Edge 27, Type (0, 0), BuildingBlock: EZIPEK_clean_linker_0, # of connection points: 2
#     Edge 28, Type (0, 0), BuildingBlock: EZIPEK_clean_linker_0, # of connection points: 2
#     Edge 29, Type (0, 0), BuildingBlock: EZIPEK_clean_linker_0, # of connection points: 2
#     Edge 30, Type (0, 0), BuildingBlock: EZIPEK_clean_linker_0, # of connection points: 2
#     Edge 31, Type (0, 0), BuildingBlock: EZIPEK_clean_linker_0, # of connection points: 2
#     Edge 32, Type (0, 0), BuildingBlock: EZIPEK_clean_linker_0, # of connection points: 2
#     Edge 33, Type (0, 0), BuildingBlock: EZIPEK_clean_linker_0, # of connection points: 2
#     Edge 34, Type (0, 0), BuildingBlock: EZIPEK_clean_linker_0, # of connection points: 2
#     Edge 35, Type (0, 0), BuildingBlock: EZIPEK_clean_linker_0, # of connection points: 2
#     Edge 36, Type (0, 0), BuildingBlock: EZIPEK_clean_linker_0, # of connection points: 2
#     Edge 37, Type (0, 0), BuildingBlock: EZIPEK_clean_linker_0, # of connection points: 2
#     Edge 38, Type (0, 0), BuildingBlock: EZIPEK_clean_linker_0, # of connection points: 2
#     Edge 39, Type (0, 0), BuildingBlock: EZIPEK_clean_linker_0, # of connection points: 2
#     Edge 40, Type (0, 0), BuildingBlock: EZIPEK_clean_linker_0, # of connection points: 2
#     Edge 41, Type (0, 0), BuildingBlock: EZIPEK_clean_linker_0, # of connection points: 2
#     Edge 42, Type (0, 0), BuildingBlock: EZIPEK_clean_linker_0, # of connection points: 2
#     Edge 43, Type (0, 0), BuildingBlock: EZIPEK_clean_linker_0, # of connection points: 2
#     Edge 44, Type (0, 0), BuildingBlock: EZIPEK_clean_linker_0, # of connection points: 2
#     Edge 45, Type (0, 0), BuildingBlock: EZIPEK_clean_linker_0, # of connection points: 2
#     Edge 46, Type (0, 0), BuildingBlock: EZIPEK_clean_linker_0, # of connection points: 2
#     Edge 47, Type (0, 0), BuildingBlock: EZIPEK_clean_linker_0, # of connection points: 2
#     Edge 48, Type (0, 0), BuildingBlock: EZIPEK_clean_linker_0, # of connection points: 2
#     Edge 49, Type (0, 0), BuildingBlock: EZIPEK_clean_linker_0, # of connection points: 2
#     Edge 50, Type (0, 0), BuildingBlock: EZIPEK_clean_linker_0, # of connection points: 2
#     Edge 51, Type (0, 0), BuildingBlock: EZIPEK_clean_linker_0, # of connection points: 2
#     Edge 52, Type (0, 0), BuildingBlock: EZIPEK_clean_linker_0, # of connection points: 2
#     Edge 53, Type (0, 0), BuildingBlock: EZIPEK_clean_linker_0, # of connection points: 2
#     Edge 54, Type (0, 0), BuildingBlock: EZIPEK_clean_linker_0, # of connection points: 2
#     Edge 55, Type (0, 0), BuildingBlock: EZIPEK_clean_linker_0, # of connection points: 2
#     Edge 56, Type (0, 0), BuildingBlock: EZIPEK_clean_linker_0, # of connection points: 2
#     Edge 57, Type (0, 0), BuildingBlock: EZIPEK_clean_linker_0, # of connection points: 2
#     Edge 58, Type (0, 0), BuildingBlock: EZIPEK_clean_linker_0, # of connection points: 2
#     Edge 59, Type (0, 0), BuildingBlock: EZIPEK_clean_linker_0, # of connection points: 2
#     Edge 60, Type (0, 0), BuildingBlock: EZIPEK_clean_linker_0, # of connection points: 2
#     Edge 61, Type (0, 0), BuildingBlock: EZIPEK_clean_linker_0, # of connection points: 2
#     Edge 62, Type (0, 0), BuildingBlock: EZIPEK_clean_linker_0, # of connection points: 2
#     Edge 63, Type (0, 0), BuildingBlock: EZIPEK_clean_linker_0, # of connection points: 2
#     Edge 64, Type (0, 0), BuildingBlock: EZIPEK_clean_linker_0, # of connection points: 2
#     Edge 65, Type (0, 0), BuildingBlock: EZIPEK_clean_linker_0, # of connection points: 2
#     Edge 66, Type (0, 0), BuildingBlock: EZIPEK_clean_linker_0, # of connection points: 2
#     Edge 67, Type (0, 0), BuildingBlock: EZIPEK_clean_linker_0, # of connection points: 2
#     Edge 68, Type (0, 0), BuildingBlock: EZIPEK_clean_linker_0, # of connection points: 2
#     Edge 69, Type (0, 0), BuildingBlock: EZIPEK_clean_linker_0, # of connection points: 2
#     Edge 70, Type (0, 0), BuildingBlock: EZIPEK_clean_linker_0, # of connection points: 2
#     Edge 71, Type (0, 0), BuildingBlock: EZIPEK_clean_linker_0, # of connection points: 2
# Relax obj value: 0.135
# Max RMSD: 0.138
# Mean RMSD: 0.138
data_MOF--net-afi--node1-GALJAG_clean_sbu_0--edge1-EZIPEK_clean_linker_0
_symmetry_space_group_name_H-M    P1
_symmetry_Int_Tables_number       1
_symmetry_cell_setting            triclinic
loop_
_symmetry_equiv_pos_as_xyz
'x, y, z'
_cell_length_a     49.819252
_cell_length_b     49.85156
_cell_length_c     29.414912
_cell_angle_alpha  89.972381
_cell_angle_beta   90.033429
_cell_angle_gamma 119.98965
loop_
_atom_site_label
_atom_site_type_symbol
_atom_site_fract_x
_atom_site_fract_y
_atom_site_fract_z
_atom_type_partial_charge
In0 In 0.46138 0.12675 0.18723 0.0
O1 O 0.47791 0.137 0.1138 0.0
O2 O 0.42933 0.11442 0.12528 0.0
C3 C 0.51395 0.13319 0.2234 0.0
C4 C 0.45898 0.17719 0.21519 0.0
C5 C 0.42396 0.06804 0.21597 0.0
O6 O 0.50838 0.12983 0.18134 0.0
O7 O 0.49343 0.13412 0.24741 0.0
O8 O 0.41967 0.09002 0.22745 0.0
O9 O 0.44653 0.07558 0.18957 0.0
C10 C 0.45117 0.12525 0.09688 0.0
O11 O 0.43729 0.14994 0.22242 0.0
O12 O 0.48174 0.17907 0.1937 0.0
In13 In 0.33671 0.4592 0.1957 0.0
O14 O 0.28589 0.42967 0.21713 0.0
O15 O 0.3055 0.47858 0.21565 0.0
C16 C 0.35561 0.42046 0.22731 0.0
C17 C 0.32873 0.45415 0.10473 0.0
C18 C 0.38528 0.51191 0.22753 0.0
O19 O 0.33305 0.42166 0.24461 0.0
O20 O 0.36801 0.43813 0.19375 0.0
O21 O 0.38253 0.50416 0.18628 0.0
O22 O 0.36339 0.4934 0.25292 0.0
C23 C 0.28202 0.45253 0.22342 0.0
O24 O 0.33785 0.47929 0.12562 0.0
O25 O 0.32312 0.4313 0.1295 0.0
In26 In 0.87982 0.33474 0.18893 0.0
O27 O 0.86636 0.33737 0.11599 0.0
O28 O 0.89137 0.31369 0.12815 0.0
C29 C 0.87256 0.38172 0.22024 0.0
C30 C 0.8306 0.28118 0.21723 0.0
C31 C 0.93863 0.35732 0.21842 0.0
O32 O 0.88296 0.38177 0.18122 0.0
O33 O 0.86492 0.35762 0.24322 0.0
O34 O 0.91586 0.33529 0.23845 0.0
O35 O 0.93183 0.36716 0.18335 0.0
C36 C 0.8789 0.32297 0.09955 0.0
O37 O 0.85813 0.28832 0.22676 0.0
O38 O 0.82804 0.30076 0.19321 0.0
In39 In 0.55046 0.88053 0.19202 0.0
O40 O 0.53365 0.86128 0.12081 0.0
O41 O 0.57981 0.89873 0.12757 0.0
C42 C 0.4969 0.87663 0.21914 0.0
C43 C 0.55554 0.83183 0.22168 0.0
C44 C 0.58856 0.93778 0.22507 0.0
O45 O 0.50367 0.87684 0.1778 0.0
O46 O 0.5168 0.87789 0.24693 0.0
O47 O 0.58711 0.91389 0.24241 0.0
O48 O 0.57143 0.93283 0.19091 0.0
C49 C 0.5586 0.88014 0.10142 0.0
O50 O 0.57891 0.85766 0.21233 0.0
O51 O 0.52986 0.83056 0.2162 0.0
In52 In 0.66984 0.54707 0.18209 0.0
O53 O 0.718 0.5747 0.21416 0.0
O54 O 0.70274 0.52837 0.19303 0.0
C55 C 0.64782 0.58355 0.21258 0.0
C56 C 0.68111 0.55606 0.09228 0.0
C57 C 0.62222 0.4929 0.21202 0.0
O58 O 0.66566 0.57802 0.23615 0.0
O59 O 0.642 0.57166 0.17353 0.0
O60 O 0.62276 0.50331 0.17279 0.0
O61 O 0.64591 0.5093 0.23587 0.0
C62 C 0.72383 0.55288 0.21091 0.0
O63 O 0.6646 0.52956 0.10946 0.0
O64 O 0.6928 0.57814 0.12038 0.0
In65 In 0.12689 0.66936 0.18555 0.0
O66 O 0.13848 0.66456 0.1124 0.0
O67 O 0.11629 0.69094 0.12424 0.0
C68 C 0.13247 0.62127 0.21505 0.0
C69 C 0.17643 0.72211 0.21588 0.0
C70 C 0.06785 0.64642 0.2138 0.0
O71 O 0.13355 0.62801 0.17351 0.0
O72 O 0.12949 0.63928 0.24206 0.0
O73 O 0.09036 0.66879 0.23373 0.0
O74 O 0.07501 0.63619 0.17952 0.0
C75 C 0.12721 0.68005 0.09573 0.0
O76 O 0.14961 0.71868 0.21441 0.0
O77 O 0.17835 0.69916 0.20246 0.0
In78 In 0.88202 0.54808 0.30653 0.0
O79 O 0.86017 0.5761 0.2797 0.0
O80 O 0.8309 0.52766 0.28837 0.0
C81 C 0.94121 0.58373 0.27822 0.0
C82 C 0.88255 0.55717 0.39697 0.0
C83 C 0.87383 0.4931 0.27835 0.0
O84 O 0.91855 0.58141 0.25578 0.0
O85 O 0.93411 0.56876 0.31495 0.0
O86 O 0.86973 0.49823 0.31898 0.0
O87 O 0.88121 0.51537 0.25127 0.0
C88 C 0.83326 0.553 0.27642 0.0
O89 O 0.87563 0.53145 0.37954 0.0
O90 O 0.88906 0.57873 0.36889 0.0
In91 In 0.33855 0.88266 0.30934 0.0
O92 O 0.34759 0.87544 0.38294 0.0
O93 O 0.31385 0.88883 0.37109 0.0
C94 C 0.38639 0.87715 0.27787 0.0
C95 C 0.2862 0.83235 0.2789 0.0
C96 C 0.35949 0.94151 0.28095 0.0
O97 O 0.37902 0.87419 0.31931 0.0
O98 O 0.36922 0.88213 0.25178 0.0
O99 O 0.33666 0.91854 0.26269 0.0
O100 O 0.371 0.93494 0.31436 0.0
C101 C 0.32838 0.88205 0.39972 0.0
O102 O 0.28978 0.85922 0.27822 0.0
O103 O 0.30884 0.83074 0.29478 0.0
In104 In 0.45911 0.33788 0.312 0.0
O105 O 0.47367 0.35163 0.38536 0.0
O106 O 0.4298 0.31141 0.37406 0.0
C107 C 0.51304 0.38357 0.27818 0.0
C108 C 0.45841 0.28669 0.27986 0.0
C109 C 0.41854 0.35672 0.28897 0.0
O110 O 0.50922 0.3765 0.31973 0.0
O111 O 0.49003 0.36706 0.25313 0.0
O112 O 0.41293 0.32944 0.2818 0.0
O113 O 0.44388 0.37395 0.3087 0.0
C114 C 0.44955 0.32958 0.40243 0.0
O115 O 0.4427 0.29741 0.26209 0.0
O116 O 0.47445 0.30165 0.31368 0.0
In117 In 0.12364 0.45748 0.31435 0.0
O118 O 0.1437 0.42859 0.28506 0.0
O119 O 0.1749 0.47593 0.3011 0.0
C120 C 0.06447 0.42015 0.28686 0.0
C121 C 0.1283 0.45281 0.40488 0.0
C122 C 0.13007 0.51067 0.28027 0.0
O123 O 0.08731 0.42379 0.2636 0.0
O124 O 0.07137 0.43437 0.32419 0.0
O125 O 0.12072 0.50157 0.32012 0.0
O126 O 0.13674 0.49333 0.25762 0.0
C127 C 0.17133 0.45073 0.28583 0.0
O128 O 0.13816 0.4784 0.38484 0.0
O129 O 0.11654 0.42933 0.3793 0.0
In130 In 0.6691 0.12214 0.31685 0.0
O131 O 0.70582 0.14684 0.26119 0.0
O132 O 0.71124 0.1706 0.32332 0.0
C133 C 0.65067 0.06356 0.29019 0.0
C134 C 0.67837 0.12194 0.40697 0.0
C135 C 0.62152 0.12993 0.28982 0.0
O136 O 0.67859 0.08493 0.28722 0.0
O137 O 0.63258 0.0716 0.30719 0.0
O138 O 0.62437 0.123 0.33001 0.0
O139 O 0.64296 0.13367 0.26323 0.0
C140 C 0.72165 0.17115 0.28414 0.0
O141 O 0.66849 0.13828 0.38887 0.0
O142 O 0.68418 0.10593 0.37974 0.0
In143 In 0.55088 0.66906 0.3178 0.0
O144 O 0.53627 0.6705 0.39072 0.0
O145 O 0.5837 0.68496 0.3792 0.0
C146 C 0.49628 0.6209 0.29042 0.0
C147 C 0.55564 0.72234 0.28667 0.0
C148 C 0.5859 0.64618 0.28496 0.0
O149 O 0.50447 0.62558 0.33157 0.0
O150 O 0.5152 0.64087 0.26299 0.0
O151 O 0.58769 0.67061 0.2693 0.0
O152 O 0.56703 0.63374 0.31724 0.0
C153 C 0.56281 0.6803 0.40746 0.0
O154 O 0.57823 0.71758 0.28639 0.0
O155 O 0.53083 0.70046 0.3025 0.0
In156 In 0.54593 0.88058 0.81543 0.0
O157 O 0.53294 0.8828 0.8888 0.0
O158 O 0.57448 0.8816 0.87744 0.0
C159 C 0.49214 0.87275 0.78145 0.0
C160 C 0.54643 0.82976 0.78393 0.0
C161 C 0.58676 0.93966 0.79136 0.0
O162 O 0.49478 0.86596 0.82184 0.0
O163 O 0.51621 0.88242 0.7575 0.0
O164 O 0.59133 0.9175 0.78242 0.0
O165 O 0.56244 0.93221 0.81362 0.0
C166 C 0.55595 0.88247 0.90582 0.0
O167 O 0.56336 0.85639 0.76742 0.0
O168 O 0.5291 0.82864 0.81595 0.0
In169 In 0.67159 0.54762 0.80671 0.0
O170 O 0.70896 0.55915 0.75256 0.0
O171 O 0.71235 0.53916 0.81445 0.0
C172 C 0.6543 0.58867 0.77996 0.0
C173 C 0.68142 0.55672 0.89675 0.0
C174 C 0.62392 0.49333 0.77709 0.0
O175 O 0.68111 0.59299 0.77221 0.0
O176 O 0.63679 0.5644 0.80185 0.0
O177 O 0.62551 0.50293 0.81711 0.0
O178 O 0.64653 0.51063 0.75203 0.0
C179 C 0.72364 0.5494 0.77574 0.0
O180 O 0.66857 0.53018 0.87887 0.0
O181 O 0.68999 0.57903 0.86927 0.0
In182 In 0.12496 0.66809 0.81044 0.0
O183 O 0.14775 0.71808 0.78427 0.0
O184 O 0.17565 0.69703 0.78944 0.0
C185 C 0.06712 0.64708 0.77803 0.0
C186 C 0.12617 0.67924 0.90049 0.0
C187 C 0.12975 0.61923 0.7828 0.0
O188 O 0.09025 0.67117 0.76248 0.0
O189 O 0.07313 0.63418 0.81015 0.0
O190 O 0.12594 0.6236 0.82395 0.0
O191 O 0.13162 0.63965 0.75551 0.0
C192 C 0.1741 0.72073 0.77905 0.0
O193 O 0.14266 0.66956 0.88248 0.0
O194 O 0.10961 0.68415 0.87318 0.0
In195 In 0.45756 0.12297 0.81142 0.0
O196 O 0.44122 0.1465 0.76033 0.0
O197 O 0.4689 0.1734 0.81584 0.0
C198 C 0.41863 0.06394 0.78521 0.0
C199 C 0.44858 0.12252 0.90175 0.0
C200 C 0.5118 0.13097 0.77924 0.0
O201 O 0.41177 0.08497 0.78066 0.0
O202 O 0.44436 0.07243 0.80391 0.0
O203 O 0.50401 0.12515 0.82034 0.0
O204 O 0.49278 0.13378 0.75422 0.0
C205 C 0.45424 0.17233 0.78032 0.0
O206 O 0.47503 0.13338 0.88412 0.0
O207 O 0.42625 0.11191 0.87403 0.0
In208 In 0.33921 0.4588 0.81803 0.0
O209 O 0.29026 0.42963 0.78859 0.0
O210 O 0.30621 0.47699 0.80387 0.0
C211 C 0.36081 0.42134 0.79002 0.0
C212 C 0.32991 0.45437 0.90851 0.0
C213 C 0.38704 0.51228 0.78668 0.0
O214 O 0.34383 0.42735 0.76521 0.0
O215 O 0.36594 0.43321 0.82907 0.0
O216 O 0.38644 0.50234 0.82624 0.0
O217 O 0.36339 0.49561 0.76288 0.0
C218 C 0.28463 0.45168 0.78878 0.0
O219 O 0.34557 0.47991 0.88831 0.0
O220 O 0.31816 0.4308 0.8831 0.0
In221 In 0.88321 0.33525 0.8145 0.0
O222 O 0.8599 0.28721 0.78166 0.0
O223 O 0.83107 0.30493 0.80351 0.0
C224 C 0.94182 0.35541 0.78584 0.0
C225 C 0.88161 0.32427 0.90454 0.0
C226 C 0.87803 0.38281 0.78118 0.0
O227 O 0.91881 0.33168 0.76938 0.0
O228 O 0.93539 0.36835 0.81738 0.0
O229 O 0.88174 0.37991 0.82291 0.0
O230 O 0.87649 0.36159 0.75603 0.0
C231 C 0.83284 0.28299 0.78532 0.0
O232 O 0.87151 0.34065 0.88742 0.0
O233 O 0.8922 0.31284 0.87639 0.0
In234 In 0.12683 0.4566 0.69198 0.0
O235 O 0.14879 0.42781 0.71476 0.0
O236 O 0.17685 0.47683 0.71582 0.0
C237 C 0.06844 0.41846 0.72163 0.0
C238 C 0.12997 0.45137 0.60103 0.0
C239 C 0.1307 0.50929 0.72274 0.0
O240 O 0.09122 0.41631 0.73581 0.0
O241 O 0.07509 0.43917 0.69214 0.0
O242 O 0.12811 0.50236 0.68114 0.0
O243 O 0.13191 0.48996 0.7492 0.0
C244 C 0.17496 0.45104 0.72305 0.0
O245 O 0.14688 0.47619 0.62212 0.0
O246 O 0.11181 0.42885 0.6256 0.0
In247 In 0.66981 0.12318 0.69269 0.0
O248 O 0.6674 0.1375 0.6199 0.0
O249 O 0.68807 0.10963 0.63039 0.0
C250 C 0.62084 0.12819 0.71949 0.0
C251 C 0.72253 0.17338 0.72204 0.0
C252 C 0.64986 0.06568 0.72604 0.0
O253 O 0.62581 0.12488 0.6784 0.0
O254 O 0.64065 0.12924 0.74734 0.0
O255 O 0.67273 0.0894 0.74285 0.0
O256 O 0.63757 0.07094 0.69233 0.0
C257 C 0.67977 0.12326 0.60245 0.0
O258 O 0.72048 0.14736 0.71633 0.0
O259 O 0.6982 0.17413 0.71303 0.0
In260 In 0.55036 0.66977 0.69209 0.0
O261 O 0.53687 0.65768 0.61825 0.0
O262 O 0.58211 0.69542 0.6316 0.0
C263 C 0.49625 0.62272 0.7234 0.0
C264 C 0.54909 0.72071 0.72131 0.0
C265 C 0.59117 0.65188 0.718 0.0
O266 O 0.50127 0.62952 0.68186 0.0
O267 O 0.5181 0.64014 0.74965 0.0
O268 O 0.59532 0.67843 0.72706 0.0
O269 O 0.56717 0.63491 0.69519 0.0
C270 C 0.56222 0.67862 0.60233 0.0
O271 O 0.56413 0.71012 0.74157 0.0
O272 O 0.53472 0.70572 0.68646 0.0
In273 In 0.88276 0.5448 0.68195 0.0
O274 O 0.85974 0.56762 0.72115 0.0
O275 O 0.83047 0.52518 0.68724 0.0
C276 C 0.94124 0.58315 0.71092 0.0
C277 C 0.88279 0.55566 0.59208 0.0
C278 C 0.8777 0.49167 0.71389 0.0
O279 O 0.91871 0.58629 0.72333 0.0
O280 O 0.93437 0.56134 0.68333 0.0
O281 O 0.88276 0.49946 0.67267 0.0
O282 O 0.87453 0.5103 0.73929 0.0
C283 C 0.83245 0.54692 0.71153 0.0
O284 O 0.87003 0.52883 0.60876 0.0
O285 O 0.89545 0.57737 0.62054 0.0
In286 In 0.33599 0.88082 0.68549 0.0
O287 O 0.34019 0.86794 0.61278 0.0
O288 O 0.31667 0.89315 0.62306 0.0
C289 C 0.38389 0.87533 0.71669 0.0
C290 C 0.28301 0.83078 0.71369 0.0
C291 C 0.35604 0.9385 0.71767 0.0
O292 O 0.37992 0.87814 0.67501 0.0
O293 O 0.36362 0.87498 0.74278 0.0
O294 O 0.33325 0.91489 0.73481 0.0
O295 O 0.36813 0.93314 0.68379 0.0
C296 C 0.32638 0.88073 0.59519 0.0
O297 O 0.28652 0.85763 0.71365 0.0
O298 O 0.30594 0.82906 0.69948 0.0
In299 In 0.45868 0.33587 0.68782 0.0
O300 O 0.43095 0.28616 0.71539 0.0
O301 O 0.47928 0.30524 0.70478 0.0
C302 C 0.42336 0.3584 0.72089 0.0
C303 C 0.44805 0.3259 0.59775 0.0
C304 C 0.51307 0.384 0.71544 0.0
O305 O 0.42181 0.33409 0.73666 0.0
O306 O 0.44211 0.37083 0.68848 0.0
O307 O 0.5052 0.37907 0.67419 0.0
O308 O 0.49387 0.36431 0.74293 0.0
C309 C 0.45411 0.28232 0.71743 0.0
O310 O 0.47404 0.33418 0.61546 0.0
O311 O 0.42702 0.322 0.62526 0.0
C312 C 0.39915 0.02935 0.27962 0.0
C313 C 0.40449 0.03575 0.2324 0.0
C314 C 0.38074 0.9802 0.2167 0.0
C315 C 0.37298 0.97367 0.26344 0.0
N316 N 0.36771 0.99196 0.33697 0.0
N317 N 0.39299 0.01682 0.15526 0.0
C318 C 0.38001 0.99825 0.29419 0.0
C319 C 0.39297 0.01101 0.20068 0.0
N320 N 0.41365 0.05256 0.31084 0.0
N321 N 0.37831 0.95755 0.18795 0.0
H322 H 0.4008 0.03898 0.14226 0.0
H323 H 0.38215 0.99932 0.13111 0.0
H324 H 0.37085 0.93491 0.19829 0.0
H325 H 0.38682 0.96204 0.1548 0.0
H326 H 0.41305 0.04844 0.34567 0.0
H327 H 0.42883 0.07554 0.30202 0.0
H328 H 0.36981 0.00909 0.35939 0.0
H329 H 0.35248 0.9695 0.34811 0.0
C330 C 0.39012 0.36782 0.22761 0.0
C331 C 0.39785 0.36847 0.27422 0.0
C332 C 0.37622 0.40202 0.29115 0.0
C333 C 0.36726 0.40027 0.24489 0.0
N334 N 0.35802 0.37468 0.17226 0.0
N335 N 0.39066 0.37885 0.35187 0.0
C336 C 0.3718 0.38098 0.21411 0.0
C337 C 0.38847 0.38328 0.30648 0.0
N338 N 0.40173 0.35638 0.19576 0.0
N339 N 0.37483 0.42282 0.31993 0.0
H340 H 0.39855 0.36436 0.36408 0.0
H341 H 0.38156 0.38671 0.37703 0.0
H342 H 0.3665 0.43743 0.3103 0.0
H343 H 0.38451 0.42753 0.35238 0.0
H344 H 0.39975 0.35869 0.1609 0.0
H345 H 0.41567 0.34695 0.20378 0.0
H346 H 0.35805 0.3584 0.1501 0.0
H347 H 0.34374 0.38325 0.16168 0.0
C348 C 0.9869 0.35633 0.2411 0.0
C349 C 0.97061 0.37281 0.23684 0.0
C350 C 0.01671 0.42058 0.26184 0.0
C351 C 0.03224 0.40363 0.26949 0.0
N352 N 0.03121 0.35484 0.27268 0.0
N353 N 0.96799 0.41925 0.25023 0.0
C354 C 0.01711 0.37133 0.26076 0.0
C355 C 0.98498 0.40457 0.24911 0.0
N356 N 0.97401 0.32679 0.22469 0.0
N357 N 0.03262 0.4522 0.26488 0.0
H358 H 0.94478 0.40863 0.24065 0.0
H359 H 0.97606 0.44112 0.26433 0.0
H360 H 0.05582 0.465 0.2745 0.0
H361 H 0.02367 0.46607 0.25411 0.0
H362 H 0.98597 0.3147 0.22218 0.0
H363 H 0.95197 0.31511 0.21013 0.0
H364 H 0.02015 0.33076 0.27181 0.0
H365 H 0.05333 0.3651 0.28696 0.0
C366 C 0.60399 0.97604 0.28929 0.0
C367 C 0.6081 0.96938 0.24375 0.0
C368 C 0.64236 0.0248 0.2289 0.0
C369 C 0.63931 0.03128 0.275 0.0
N370 N 0.62426 0.01265 0.35159 0.0
N371 N 0.63696 0.98629 0.17372 0.0
C372 C 0.62233 0.00671 0.306 0.0
C373 C 0.62914 0.99345 0.21465 0.0
N374 N 0.58134 0.95367 0.31585 0.0
N375 N 0.65623 0.04838 0.19808 0.0
H376 H 0.62814 0.96354 0.16257 0.0
H377 H 0.65446 0.00262 0.15299 0.0
H378 H 0.66602 0.07167 0.20681 0.0
H379 H 0.65581 0.04476 0.16316 0.0
H380 H 0.57503 0.95829 0.34739 0.0
H381 H 0.56685 0.93101 0.30489 0.0
H382 H 0.61473 0.99532 0.37619 0.0
H383 H 0.63827 0.03476 0.36498 0.0
C384 C 0.63509 0.64575 0.26713 0.0
C385 C 0.60234 0.63132 0.26449 0.0
C386 C 0.59954 0.58491 0.23152 0.0
C387 C 0.63242 0.60018 0.23066 0.0
N388 N 0.68174 0.64682 0.2406 0.0
N389 N 0.55391 0.59024 0.2352 0.0
C390 C 0.65033 0.6311 0.24659 0.0
C391 C 0.5847 0.60177 0.2441 0.0
N392 N 0.65151 0.67288 0.29059 0.0
N393 N 0.58238 0.55391 0.22232 0.0
H394 H 0.54235 0.60228 0.24278 0.0
H395 H 0.54058 0.57025 0.21619 0.0
H396 H 0.59216 0.54039 0.2136 0.0
H397 H 0.55855 0.54091 0.22762 0.0
H398 H 0.675 0.68276 0.2981 0.0
H399 H 0.64114 0.68438 0.30566 0.0
H400 H 0.69569 0.67039 0.24711 0.0
H401 H 0.69365 0.63693 0.2254 0.0
C402 C 0.02132 0.59957 0.24456 0.0
C403 C 0.03575 0.63115 0.23151 0.0
C404 C 0.98875 0.63253 0.25234 0.0
C405 C 0.97346 0.6002 0.261 0.0
N406 N 0.97313 0.55167 0.25602 0.0
N407 N 0.03225 0.67688 0.21669 0.0
C408 C 0.98917 0.58334 0.25455 0.0
C409 C 0.01924 0.64749 0.23376 0.0
N410 N 0.03859 0.58535 0.24922 0.0
N411 N 0.9746 0.64911 0.26338 0.0
H412 H 0.05453 0.68856 0.20299 0.0
H413 H 0.02013 0.68874 0.21278 0.0
H414 H 0.95234 0.63895 0.27708 0.0
H415 H 0.98581 0.6732 0.26247 0.0
H416 H 0.02991 0.56331 0.26308 0.0
H417 H 0.06245 0.59673 0.2437 0.0
H418 H 0.98278 0.53811 0.2469 0.0
H419 H 0.94932 0.53876 0.26177 0.0
C420 C 0.61784 0.99657 0.80698 0.0
C421 C 0.60724 0.97188 0.77534 0.0
C422 C 0.63208 0.00952 0.71377 0.0
C423 C 0.63782 0.0339 0.74422 0.0
N424 N 0.6319 0.04996 0.81938 0.0
N425 N 0.60051 0.95493 0.697 0.0
C426 C 0.62986 0.02736 0.79088 0.0
C427 C 0.61359 0.9783 0.72828 0.0
N428 N 0.61703 0.99064 0.85246 0.0
N429 N 0.64488 0.01617 0.67127 0.0
H430 H 0.58618 0.93176 0.70568 0.0
H431 H 0.60159 0.95889 0.66209 0.0
H432 H 0.65939 0.03877 0.65995 0.0
H433 H 0.64388 0.99935 0.64921 0.0
H434 H 0.62703 0.00801 0.87694 0.0
H435 H 0.60944 0.96845 0.86516 0.0
H436 H 0.62316 0.04548 0.85239 0.0
H437 H 0.63957 0.07263 0.80898 0.0
C438 C 0.6386 0.6116 0.71633 0.0
C439 C 0.64331 0.6096 0.7635 0.0
C440 C 0.61607 0.63787 0.78116 0.0
C441 C 0.61203 0.64058 0.7339 0.0
N442 N 0.62576 0.63688 0.65658 0.0
N443 N 0.64352 0.62696 0.83989 0.0
C444 C 0.62533 0.62959 0.70149 0.0
C445 C 0.63428 0.62476 0.79562 0.0
N446 N 0.64518 0.59498 0.68587 0.0
N447 N 0.601 0.64599 0.81228 0.0
H448 H 0.65723 0.61792 0.85128 0.0
H449 H 0.64027 0.64028 0.86416 0.0
H450 H 0.5872 0.65542 0.80335 0.0
H451 H 0.60013 0.6411 0.84684 0.0
H452 H 0.63873 0.59251 0.65178 0.0
H453 H 0.65512 0.5817 0.69522 0.0
H454 H 0.63769 0.63209 0.6318 0.0
H455 H 0.61671 0.65049 0.64477 0.0
C456 C 0.97939 0.6069 0.77543 0.0
C457 C 0.97335 0.60282 0.72799 0.0
C458 C 0.02914 0.62805 0.71281 0.0
C459 C 0.03521 0.63424 0.75996 0.0
N460 N 0.01622 0.63674 0.83441 0.0
N461 N 0.99268 0.61675 0.65134 0.0
C462 C 0.01034 0.62592 0.79074 0.0
C463 C 0.99831 0.61567 0.6966 0.0
N464 N 0.95604 0.5912 0.80608 0.0
N465 N 0.05229 0.63213 0.68375 0.0
H466 H 0.97049 0.60883 0.63831 0.0
H467 H 0.01025 0.62852 0.62757 0.0
H468 H 0.07504 0.64009 0.69412 0.0
H469 H 0.04825 0.62469 0.65005 0.0
H470 H 0.95995 0.59084 0.84082 0.0
H471 H 0.93316 0.57602 0.79671 0.0
H472 H 0.99884 0.63377 0.857 0.0
H473 H 0.03855 0.65155 0.84651 0.0
C474 C 0.39025 0.00689 0.79975 0.0
C475 C 0.39874 0.03175 0.76895 0.0
C476 C 0.37276 0.99459 0.70718 0.0
C477 C 0.36851 0.97014 0.73646 0.0
N478 N 0.37733 0.95358 0.80952 0.0
N479 N 0.4019 0.0496 0.69168 0.0
C480 C 0.37808 0.97633 0.78262 0.0
C481 C 0.39079 0.02575 0.72223 0.0
N482 N 0.39324 0.01243 0.84551 0.0
N483 N 0.35892 0.988 0.66537 0.0
H484 H 0.4156 0.07277 0.70091 0.0
H485 H 0.3998 0.04625 0.65662 0.0
H486 H 0.34494 0.96541 0.65362 0.0
H487 H 0.35867 0.0047 0.64435 0.0
H488 H 0.3846 0.99486 0.86979 0.0
H489 H 0.40149 0.03447 0.85927 0.0
H490 H 0.38742 0.95782 0.84166 0.0
H491 H 0.36918 0.93097 0.79842 0.0
C492 C 0.35858 0.37332 0.75838 0.0
C493 C 0.37635 0.40451 0.77319 0.0
C494 C 0.42425 0.40311 0.76047 0.0
C495 C 0.40672 0.37317 0.74115 0.0
N496 N 0.35757 0.33086 0.71647 0.0
N497 N 0.42621 0.45109 0.78056 0.0
C498 C 0.37393 0.35845 0.73883 0.0
C499 C 0.40923 0.41995 0.77224 0.0
N500 N 0.32717 0.35761 0.76436 0.0
N501 N 0.45514 0.41505 0.76908 0.0
H502 H 0.41628 0.46455 0.78878 0.0
H503 H 0.45002 0.46419 0.77508 0.0
H504 H 0.46685 0.40308 0.76203 0.0
H505 H 0.46846 0.43539 0.78735 0.0
H506 H 0.31327 0.33392 0.75875 0.0
H507 H 0.3152 0.36776 0.7786 0.0
H508 H 0.33403 0.32065 0.70913 0.0
H509 H 0.368 0.3192 0.70215 0.0
C510 C 0.02961 0.39501 0.78562 0.0
C511 C 0.0362 0.39877 0.73829 0.0
C512 C 0.98061 0.37395 0.7217 0.0
C513 C 0.97397 0.36801 0.76878 0.0
N514 N 0.99203 0.36528 0.84379 0.0
N515 N 0.01749 0.38384 0.6615 0.0
C516 C 0.99846 0.37617 0.80022 0.0
C517 C 0.01152 0.38572 0.70638 0.0
N518 N 0.05259 0.41079 0.81677 0.0
N519 N 0.95798 0.37019 0.69178 0.0
H520 H 0.03971 0.39104 0.64921 0.0
H521 H 1.00006 0.37197 0.63756 0.0
H522 H 0.93522 0.3628 0.70143 0.0
H523 H 0.96257 0.37746 0.65804 0.0
H524 H 0.04823 0.41126 0.85132 0.0
H525 H 0.07558 0.42594 0.80795 0.0
H526 H 0.00912 0.36821 0.86697 0.0
H527 H 0.96953 0.35032 0.85508 0.0
C528 C 0.46316 0.22883 0.20038 0.0
C529 C 0.45814 0.20494 0.23145 0.0
C530 C 0.44919 0.23297 0.29258 0.0
C531 C 0.45777 0.25839 0.26282 0.0
N532 N 0.47826 0.2828 0.19034 0.0
N533 N 0.45244 0.18714 0.30915 0.0
C534 C 0.46617 0.25696 0.21717 0.0
C535 C 0.45275 0.20773 0.27814 0.0
N536 N 0.46384 0.22424 0.15468 0.0
N537 N 0.43648 0.23233 0.33403 0.0
H538 H 0.45589 0.16882 0.30037 0.0
H539 H 0.45189 0.19003 0.34415 0.0
H540 H 0.43254 0.2499 0.34523 0.0
H541 H 0.42692 0.21299 0.35521 0.0
H542 H 0.46415 0.23955 0.13028 0.0
H543 H 0.46101 0.20373 0.14087 0.0
H544 H 0.48791 0.284 0.15847 0.0
H545 H 0.48135 0.30401 0.20151 0.0
C546 C 0.21154 0.46289 0.22604 0.0
C547 C 0.19767 0.44817 0.26774 0.0
C548 C 0.23872 0.43544 0.28018 0.0
C549 C 0.25202 0.44926 0.23771 0.0
N550 N 0.24754 0.46973 0.16562 0.0
N551 N 0.19426 0.4156 0.33061 0.0
C552 C 0.23743 0.46121 0.20931 0.0
C553 C 0.20998 0.43272 0.29344 0.0
N554 N 0.20015 0.47876 0.20261 0.0
N555 N 0.25441 0.42654 0.30898 0.0
H556 H 0.17367 0.41392 0.3421 0.0
H557 H 0.20022 0.40113 0.34798 0.0
H558 H 0.27565 0.42843 0.3008 0.0
H559 H 0.24773 0.41959 0.34242 0.0
H560 H 0.21155 0.49327 0.17522 0.0
H561 H 0.18002 0.47884 0.21207 0.0
H562 H 0.23598 0.47561 0.14165 0.0
H563 H 0.26597 0.46811 0.15181 0.0
C564 C 0.77451 0.19659 0.24741 0.0
C565 C 0.74946 0.19896 0.26598 0.0
C566 C 0.77953 0.25541 0.25788 0.0
C567 C 0.8031 0.25279 0.2347 0.0
N568 N 0.8203 0.22019 0.19973 0.0
N569 N 0.72543 0.23006 0.2789 0.0
C570 C 0.79989 0.22318 0.22735 0.0
C571 C 0.75119 0.22822 0.26842 0.0
N572 N 0.77475 0.16936 0.25054 0.0
N573 N 0.7846 0.28376 0.2717 0.0
H574 H 0.70383 0.21065 0.28517 0.0
H575 H 0.72468 0.25053 0.27652 0.0
H576 H 0.80547 0.30424 0.26638 0.0
H577 H 0.76936 0.28655 0.29275 0.0
H578 H 0.79391 0.16728 0.24193 0.0
H579 H 0.75698 0.14953 0.26578 0.0
H580 H 0.81716 0.19883 0.18935 0.0
H581 H 0.83879 0.23895 0.1836 0.0
C582 C 0.54324 0.77705 0.21057 0.0
C583 C 0.55774 0.80461 0.23681 0.0
C584 C 0.57497 0.77942 0.29213 0.0
C585 C 0.5576 0.75099 0.26846 0.0
N586 N 0.52322 0.72165 0.2071 0.0
N587 N 0.58425 0.83144 0.30524 0.0
C588 C 0.5411 0.74949 0.22827 0.0
C589 C 0.57308 0.80579 0.27811 0.0
N590 N 0.53277 0.77761 0.16775 0.0
N591 N 0.59308 0.78116 0.32823 0.0
H592 H 0.58308 0.8511 0.29645 0.0
H593 H 0.59247 0.83248 0.3381 0.0
H594 H 0.59381 0.76204 0.34107 0.0
H595 H 0.60903 0.80191 0.3436 0.0
H596 H 0.52496 0.75925 0.14495 0.0
H597 H 0.53453 0.79752 0.15321 0.0
H598 H 0.50751 0.71828 0.1813 0.0
H599 H 0.5227 0.7013 0.21695 0.0
C600 C 0.75202 0.54174 0.27173 0.0
C601 C 0.75259 0.55509 0.2289 0.0
C602 C 0.8062 0.56722 0.21681 0.0
C603 C 0.80618 0.55528 0.26071 0.0
N604 N 0.78168 0.53747 0.33382 0.0
N605 N 0.78107 0.58501 0.16371 0.0
C606 C 0.77978 0.54426 0.28927 0.0
C607 C 0.78004 0.56939 0.20249 0.0
N608 N 0.72483 0.52628 0.29538 0.0
N609 N 0.83041 0.57478 0.1878 0.0
H610 H 0.762 0.58611 0.1514 0.0
H611 H 0.80136 0.59881 0.14559 0.0
H612 H 0.84976 0.57304 0.19659 0.0
H613 H 0.83027 0.58034 0.15371 0.0
H614 H 0.72202 0.51279 0.32397 0.0
H615 H 0.70433 0.52522 0.28478 0.0
H616 H 0.76433 0.53241 0.35762 0.0
H617 H 0.80185 0.53978 0.34828 0.0
C618 C 0.21526 0.75148 0.27683 0.0
C619 C 0.20372 0.75078 0.23252 0.0
C620 C 0.24706 0.80305 0.21761 0.0
C621 C 0.25739 0.80462 0.26308 0.0
N622 N 0.24785 0.78305 0.3387 0.0
N623 N 0.20555 0.77688 0.16261 0.0
C624 C 0.24058 0.77952 0.29345 0.0
C625 C 0.21861 0.77696 0.20356 0.0
N626 N 0.20217 0.72526 0.30293 0.0
N627 N 0.26524 0.82565 0.18718 0.0
H628 H 0.18543 0.75774 0.15038 0.0
H629 H 0.21333 0.79645 0.1422 0.0
H630 H 0.2865 0.84481 0.19584 0.0
H631 H 0.26068 0.82418 0.15246 0.0
H632 H 0.21185 0.72326 0.33323 0.0
H633 H 0.18268 0.70466 0.29284 0.0
H634 H 0.23453 0.76681 0.36335 0.0
H635 H 0.26553 0.8036 0.3524 0.0
C636 C 0.57658 0.77665 0.7453 0.0
C637 C 0.54841 0.74867 0.73713 0.0
C638 C 0.5192 0.77507 0.75441 0.0
C639 C 0.54713 0.80194 0.76752 0.0
N640 N 0.60179 0.82594 0.78441 0.0
N641 N 0.49256 0.71962 0.7426 0.0
C642 C 0.5757 0.80212 0.76541 0.0
C643 C 0.51958 0.74741 0.74402 0.0
N644 N 0.60418 0.77945 0.73211 0.0
N645 N 0.49247 0.77623 0.7501 0.0
H646 H 0.49176 0.69868 0.7362 0.0
H647 H 0.47123 0.71694 0.75223 0.0
H648 H 0.49127 0.79618 0.75641 0.0
H649 H 0.47224 0.75834 0.73596 0.0
H650 H 0.62505 0.80036 0.73294 0.0
H651 H 0.60586 0.76173 0.71595 0.0
H652 H 0.62242 0.8256 0.78807 0.0
H653 H 0.60206 0.84462 0.80076 0.0
C654 C 0.75284 0.52119 0.76168 0.0
C655 C 0.75139 0.54888 0.75846 0.0
C656 C 0.80168 0.5742 0.71954 0.0
C657 C 0.80473 0.5478 0.72794 0.0
N658 N 0.78593 0.49866 0.76593 0.0
N659 N 0.77738 0.60372 0.7422 0.0
C660 C 0.78106 0.52195 0.75151 0.0
C661 C 0.77661 0.57597 0.73948 0.0
N662 N 0.72691 0.4938 0.77243 0.0
N663 N 0.82195 0.59704 0.69107 0.0
H664 H 0.76004 0.60632 0.75779 0.0
H665 H 0.7967 0.62469 0.73308 0.0
H666 H 0.84016 0.59629 0.6748 0.0
H667 H 0.81884 0.61517 0.68003 0.0
H668 H 0.72604 0.4725 0.77081 0.0
H669 H 0.70532 0.49181 0.77806 0.0
H670 H 0.77063 0.48086 0.78727 0.0
H671 H 0.80671 0.49882 0.76068 0.0
C672 C 0.22675 0.79085 0.70582 0.0
C673 C 0.25471 0.80344 0.73114 0.0
C674 C 0.22866 0.76401 0.79019 0.0
C675 C 0.2015 0.74967 0.76292 0.0
N676 N 0.17587 0.74645 0.69182 0.0
N677 N 0.28367 0.8009 0.79515 0.0
C678 C 0.20072 0.76242 0.72007 0.0
C679 C 0.25608 0.78962 0.77259 0.0
N680 N 0.22515 0.80595 0.668 0.0
N681 N 0.22782 0.7541 0.83381 0.0
H682 H 0.30385 0.82092 0.78528 0.0
H683 H 0.28712 0.78945 0.82216 0.0
H684 H 0.20815 0.73565 0.84821 0.0
H685 H 0.24565 0.76574 0.8572 0.0
H686 H 0.20453 0.80003 0.65115 0.0
H687 H 0.24418 0.82583 0.65501 0.0
H688 H 0.17531 0.75273 0.65822 0.0
H689 H 0.15664 0.72526 0.70049 0.0
C690 C 0.44196 0.2418 0.77739 0.0
C691 C 0.45213 0.25303 0.7327 0.0
C692 C 0.46485 0.21201 0.71982 0.0
C693 C 0.45266 0.19951 0.76329 0.0
N694 N 0.42383 0.19857 0.82969 0.0
N695 N 0.46716 0.24529 0.65806 0.0
C696 C 0.43954 0.21329 0.79104 0.0
C697 C 0.46182 0.2371 0.70292 0.0
N698 N 0.43596 0.25902 0.80752 0.0
N699 N 0.4806 0.2009 0.69549 0.0
H700 H 0.46481 0.26328 0.64424 0.0
H701 H 0.47103 0.23245 0.63369 0.0
H702 H 0.48367 0.18278 0.7068 0.0
H703 H 0.49299 0.2114 0.66601 0.0
H704 H 0.43189 0.25374 0.84198 0.0
H705 H 0.43767 0.28014 0.79905 0.0
H706 H 0.41104 0.20582 0.84885 0.0
H707 H 0.42107 0.17737 0.84029 0.0
C708 C 0.2011 0.43405 0.78029 0.0
C709 C 0.20201 0.44852 0.73826 0.0
C710 C 0.25686 0.46422 0.72887 0.0
C711 C 0.25571 0.44887 0.77011 0.0
N712 N 0.22601 0.41483 0.83141 0.0
N713 N 0.22819 0.47109 0.66768 0.0
C714 C 0.2275 0.43222 0.79451 0.0
C715 C 0.22921 0.46189 0.71118 0.0
N716 N 0.1757 0.42365 0.80783 0.0
N717 N 0.28448 0.48124 0.70671 0.0
H718 H 0.20813 0.46899 0.6531 0.0
H719 H 0.24625 0.47805 0.64449 0.0
H720 H 0.30484 0.48177 0.71662 0.0
H721 H 0.28768 0.49623 0.67994 0.0
H722 H 0.17491 0.41608 0.84105 0.0
H723 H 0.15604 0.42477 0.79887 0.0
H724 H 0.2054 0.39947 0.84767 0.0
H725 H 0.24517 0.41401 0.84395 0.0
C726 C 0.79007 0.25618 0.72856 0.0
C727 C 0.80519 0.25471 0.76856 0.0
C728 C 0.7652 0.20035 0.77957 0.0
C729 C 0.75134 0.20115 0.73774 0.0
N730 N 0.75363 0.22798 0.66824 0.0
N731 N 0.81001 0.22492 0.82935 0.0
C732 C 0.76453 0.22861 0.71114 0.0
C733 C 0.79372 0.22656 0.79306 0.0
N734 N 0.80003 0.28399 0.70728 0.0
N735 N 0.75022 0.17527 0.80769 0.0
H736 H 0.83008 0.24402 0.84177 0.0
H737 H 0.80487 0.20424 0.84527 0.0
H738 H 0.72894 0.15594 0.7997 0.0
H739 H 0.75739 0.17465 0.84073 0.0
H740 H 0.78769 0.2873 0.68144 0.0
H741 H 0.81973 0.3044 0.71734 0.0
H742 H 0.76442 0.2462 0.64523 0.0
H743 H 0.73531 0.20818 0.65387 0.0
C744 C 0.45095 0.09977 0.0237 0.0
C745 C 0.44601 0.12178 0.04724 0.0
C746 C 0.43919 0.14224 0.97501 0.0
C747 C 0.44436 0.12038 0.95156 0.0
N748 N 0.44856 0.07433 0.95218 0.0
N749 N 0.42976 0.15989 0.04714 0.0
C750 C 0.44823 0.09789 0.97556 0.0
C751 C 0.43813 0.14164 0.02341 0.0
N752 N 0.45881 0.08108 0.04744 0.0
N753 N 0.43672 0.16441 0.95099 0.0
H754 H 0.42954 0.16051 0.08257 0.0
H755 H 0.42092 0.17274 0.03206 0.0
H756 H 0.43668 0.16499 0.91554 0.0
H757 H 0.43642 0.18319 0.96584 0.0
H758 H 0.46652 0.0673 0.03226 0.0
H759 H 0.45901 0.08032 0.08288 0.0
H760 H 0.44823 0.05539 0.96765 0.0
H761 H 0.44659 0.07231 0.91686 0.0
C762 C 0.30029 0.44085 0.98217 0.0
C763 C 0.32884 0.45227 0.95871 0.0
C764 C 0.35706 0.46511 0.03101 0.0
C765 C 0.32846 0.45258 0.05457 0.0
N766 N 0.27263 0.42457 0.05405 0.0
N767 N 0.38337 0.46884 0.96004 0.0
C768 C 0.29995 0.43907 0.03055 0.0
C769 C 0.35698 0.46268 0.98292 0.0
N770 N 0.27383 0.43309 0.95831 0.0
N771 N 0.38439 0.47958 0.05458 0.0
H772 H 0.38415 0.46666 0.92487 0.0
H773 H 0.40383 0.47328 0.97605 0.0
H774 H 0.38559 0.48015 0.09 0.0
H775 H 0.40593 0.49269 0.03913 0.0
H776 H 0.25286 0.42775 0.97343 0.0
H777 H 0.27328 0.43408 0.92292 0.0
H778 H 0.25108 0.41142 0.03867 0.0
H779 H 0.2716 0.42397 0.08949 0.0
C780 C 0.85267 0.30274 0.97727 0.0
C781 C 0.88142 0.31956 0.95419 0.0
C782 C 0.90907 0.3358 0.02691 0.0
C783 C 0.8803 0.31909 0.04997 0.0
N784 N 0.82582 0.28162 0.04872 0.0
N785 N 0.93732 0.34733 0.95579 0.0
C786 C 0.85238 0.30101 0.02556 0.0
C787 C 0.90976 0.33431 0.97868 0.0
N788 N 0.82566 0.28884 0.95291 0.0
N789 N 0.93543 0.35475 0.05088 0.0
H790 H 0.93885 0.34843 0.92046 0.0
H791 H 0.95867 0.35516 0.97157 0.0
H792 H 0.93605 0.35641 0.08623 0.0
H793 H 0.95638 0.37051 0.03584 0.0
H794 H 0.80377 0.27948 0.96749 0.0
H795 H 0.82512 0.28775 0.91746 0.0
H796 H 0.8052 0.26563 0.03313 0.0
H797 H 0.82506 0.27966 0.08409 0.0
C798 C 0.56128 0.85775 0.02655 0.0
C799 C 0.56152 0.88222 0.0514 0.0
C800 C 0.56457 0.9094 0.98045 0.0
C801 C 0.56058 0.88329 0.95558 0.0
N802 N 0.55224 0.83127 0.95416 0.0
N803 N 0.56007 0.92991 0.05289 0.0
C804 C 0.55848 0.85718 0.97835 0.0
C805 C 0.56258 0.90785 0.02863 0.0
N806 N 0.56432 0.83542 0.04907 0.0
N807 N 0.57088 0.93592 0.95792 0.0
H808 H 0.55872 0.92981 0.08826 0.0
H809 H 0.55693 0.94707 0.03792 0.0
H810 H 0.57223 0.93777 0.92259 0.0
H811 H 0.57743 0.95686 0.97414 0.0
H812 H 0.56748 0.81866 0.03279 0.0
H813 H 0.56635 0.83521 0.08437 0.0
H814 H 0.54686 0.81025 0.96917 0.0
H815 H 0.55024 0.82999 0.91884 0.0
C816 C 0.70151 0.54854 0.01847 0.0
C817 C 0.68522 0.56064 0.04253 0.0
C818 C 0.6684 0.57259 0.97069 0.0
C819 C 0.68504 0.56087 0.94662 0.0
N820 N 0.72254 0.54384 0.94636 0.0
N821 N 0.65807 0.58944 0.0426 0.0
C822 C 0.70312 0.55064 0.9702 0.0
C823 C 0.67049 0.57463 0.01893 0.0
N824 N 0.71511 0.53472 0.04182 0.0
N825 N 0.64889 0.57975 0.94775 0.0
H826 H 0.65751 0.59 0.07797 0.0
H827 H 0.65034 0.60317 0.02727 0.0
H828 H 0.64636 0.57826 0.91252 0.0
H829 H 0.63331 0.58483 0.96366 0.0
H830 H 0.72396 0.52201 0.02635 0.0
H831 H 0.71632 0.53474 0.07724 0.0
H832 H 0.73858 0.53907 0.9615 0.0
H833 H 0.72458 0.54562 0.91104 0.0
C834 C 0.09746 0.66407 0.97469 0.0
C835 C 0.12529 0.6829 0.9503 0.0
C836 C 0.15389 0.70234 0.0218 0.0
C837 C 0.12601 0.68387 0.04611 0.0
N838 N 0.07028 0.65208 0.04681 0.0
N839 N 0.17795 0.72512 0.9495 0.0
C840 C 0.09742 0.66654 0.02285 0.0
C841 C 0.15295 0.70359 0.97357 0.0
N842 N 0.07162 0.64235 0.95222 0.0
N843 N 0.18129 0.71834 0.04484 0.0
H844 H 0.17752 0.72715 0.91427 0.0
H845 H 0.19794 0.74277 0.96445 0.0
H846 H 0.18258 0.71954 0.08025 0.0
H847 H 0.20288 0.72915 0.02906 0.0
H848 H 0.05183 0.62544 0.96857 0.0
H849 H 0.07061 0.63945 0.91705 0.0
H850 H 0.0485 0.64205 0.03163 0.0
H851 H 0.06936 0.65217 0.0822 0.0
C852 C 0.86697 0.57034 0.5195 0.0
C853 C 0.88581 0.56079 0.54246 0.0
C854 C 0.90761 0.55668 0.46995 0.0
C855 C 0.88566 0.56188 0.44674 0.0
N856 N 0.84346 0.57245 0.44817 0.0
N857 N 0.92379 0.54425 0.54082 0.0
C858 C 0.86535 0.56889 0.47111 0.0
C859 C 0.90618 0.55393 0.51803 0.0
N860 N 0.85052 0.58057 0.54401 0.0
N861 N 0.93047 0.55539 0.44594 0.0
H862 H 0.92508 0.54402 0.57621 0.0
H863 H 0.93594 0.53495 0.52482 0.0
H864 H 0.93258 0.55797 0.41071 0.0
H865 H 0.94902 0.5547 0.46099 0.0
H866 H 0.83873 0.59073 0.52944 0.0
H867 H 0.85052 0.58099 0.57947 0.0
H868 H 0.82565 0.57407 0.464 0.0
H869 H 0.84188 0.57191 0.4128 0.0
C870 C 0.33611 0.90993 0.52164 0.0
C871 C 0.32255 0.88128 0.54535 0.0
C872 C 0.31048 0.853 0.47322 0.0
C873 C 0.32348 0.88157 0.44942 0.0
N874 N 0.34323 0.9367 0.44992 0.0
N875 N 0.29017 0.82577 0.54448 0.0
C876 C 0.33425 0.90985 0.47334 0.0
C877 C 0.30771 0.85285 0.52131 0.0
N878 N 0.35264 0.93716 0.5449 0.0
N879 N 0.30128 0.82606 0.44993 0.0
H880 H 0.2871 0.82497 0.57965 0.0
H881 H 0.27628 0.80453 0.52868 0.0
H882 H 0.3014 0.82497 0.41455 0.0
H883 H 0.29523 0.80506 0.46562 0.0
H884 H 0.36617 0.95851 0.52918 0.0
H885 H 0.35495 0.93837 0.58016 0.0
H886 H 0.34793 0.95739 0.46538 0.0
H887 H 0.34377 0.93786 0.41455 0.0
C888 C 0.44135 0.29899 0.52337 0.0
C889 C 0.44386 0.32457 0.54796 0.0
C890 C 0.44333 0.34989 0.47684 0.0
C891 C 0.4448 0.32621 0.4522 0.0
N892 N 0.44795 0.27947 0.45119 0.0
N893 N 0.44957 0.37555 0.54928 0.0
C894 C 0.44416 0.30084 0.47517 0.0
C895 C 0.44517 0.35024 0.52505 0.0
N896 N 0.43593 0.27286 0.54621 0.0
N897 N 0.43951 0.37169 0.45408 0.0
H898 H 0.45025 0.37642 0.58471 0.0
H899 H 0.4546 0.39649 0.53437 0.0
H900 H 0.4383 0.37226 0.41873 0.0
H901 H 0.43491 0.38757 0.4701 0.0
H902 H 0.43088 0.25224 0.5302 0.0
H903 H 0.43384 0.27097 0.58153 0.0
H904 H 0.45115 0.26239 0.46631 0.0
H905 H 0.45018 0.28013 0.41592 0.0
C906 C 0.14292 0.43632 0.52631 0.0
C907 C 0.12848 0.45013 0.55089 0.0
C908 C 0.11028 0.46126 0.47982 0.0
C909 C 0.12751 0.45054 0.45505 0.0
N910 N 0.16276 0.43064 0.45369 0.0
N911 N 0.1006 0.47818 0.55204 0.0
C912 C 0.14433 0.43853 0.47798 0.0
C913 C 0.11283 0.46336 0.5279 0.0
N914 N 0.15521 0.42109 0.54923 0.0
N915 N 0.09029 0.46803 0.45747 0.0
H916 H 0.10019 0.47861 0.58747 0.0
H917 H 0.09255 0.49175 0.53701 0.0
H918 H 0.08713 0.46608 0.42231 0.0
H919 H 0.0746 0.47275 0.4739 0.0
H920 H 0.16315 0.40772 0.53335 0.0
H921 H 0.15555 0.42006 0.58465 0.0
H922 H 0.17816 0.42485 0.46851 0.0
H923 H 0.16439 0.43208 0.41834 0.0
C924 C 0.7038 0.14797 0.47988 0.0
C925 C 0.68163 0.12093 0.45679 0.0
C926 C 0.66332 0.09353 0.52942 0.0
C927 C 0.6828 0.12168 0.55263 0.0
N928 N 0.72124 0.17593 0.55121 0.0
N929 N 0.63806 0.06888 0.45865 0.0
C930 C 0.70303 0.14897 0.52817 0.0
C931 C 0.66108 0.09376 0.48124 0.0
N932 N 0.7261 0.1723 0.45553 0.0
N933 N 0.64662 0.06666 0.55344 0.0
H934 H 0.63539 0.06826 0.42345 0.0
H935 H 0.62009 0.04977 0.4748 0.0
H936 H 0.6462 0.06571 0.58884 0.0
H937 H 0.63488 0.04487 0.53838 0.0
H938 H 0.74479 0.19157 0.47022 0.0
H939 H 0.72741 0.17211 0.42014 0.0
H940 H 0.7336 0.19749 0.53564 0.0
H941 H 0.72297 0.17693 0.58656 0.0
C942 C 0.56411 0.65561 0.48059 0.0
C943 C 0.56786 0.6821 0.45707 0.0
C944 C 0.57186 0.70836 0.52929 0.0
C945 C 0.56809 0.68181 0.55281 0.0
N946 N 0.56835 0.63362 0.55197 0.0
N947 N 0.58166 0.73574 0.45733 0.0
C948 C 0.56662 0.65648 0.52872 0.0
C949 C 0.5739 0.70923 0.48097 0.0
N950 N 0.55701 0.62922 0.457 0.0
N951 N 0.57173 0.73191 0.55292 0.0
H952 H 0.58289 0.73682 0.42191 0.0
H953 H 0.5893 0.75718 0.47265 0.0
H954 H 0.57057 0.73223 0.58829 0.0
H955 H 0.57081 0.75024 0.53753 0.0
H956 H 0.55015 0.60797 0.47246 0.0
H957 H 0.55611 0.62801 0.42158 0.0
H958 H 0.57046 0.61605 0.53627 0.0
H959 H 0.57062 0.63381 0.58726 0.0
C960 C 0.57145 0.15901 0.23501 0.0
C961 C 0.5414 0.13348 0.24313 0.0
C962 C 0.56398 0.10513 0.27969 0.0
C963 C 0.59397 0.13145 0.27438 0.0
N964 N 0.62614 0.18524 0.25429 0.0
N965 N 0.50836 0.08399 0.27878 0.0
C966 C 0.59772 0.1589 0.2539 0.0
C967 C 0.53746 0.10719 0.26754 0.0
N968 N 0.57488 0.18329 0.20905 0.0
N969 N 0.56085 0.07749 0.29353 0.0
H970 H 0.48815 0.08351 0.26822 0.0
H971 H 0.5042 0.06622 0.30134 0.0
H972 H 0.5796 0.07457 0.30153 0.0
H973 H 0.53992 0.05666 0.29299 0.0
H974 H 0.5962 0.20077 0.19721 0.0
H975 H 0.55614 0.18509 0.19702 0.0
H976 H 0.62983 0.20684 0.2442 0.0
H977 H 0.64576 0.18616 0.26849 0.0
C978 C 0.46299 0.56315 0.28475 0.0
C979 C 0.46744 0.59305 0.27524 0.0
C980 C 0.41847 0.56971 0.23273 0.0
C981 C 0.41304 0.53986 0.24499 0.0
N982 N 0.42803 0.50762 0.28646 0.0
N983 N 0.44763 0.62511 0.24659 0.0
C984 C 0.43459 0.53645 0.27243 0.0
C985 C 0.44475 0.59645 0.25076 0.0
N986 N 0.48664 0.5602 0.30311 0.0
N987 N 0.39854 0.57249 0.2037 0.0
H988 H 0.46631 0.64517 0.25988 0.0
H989 H 0.43038 0.62885 0.23341 0.0
H990 H 0.37804 0.55355 0.19204 0.0
H991 H 0.40313 0.59335 0.18897 0.0
H992 H 0.48628 0.53921 0.30577 0.0
H993 H 0.50798 0.57904 0.31221 0.0
H994 H 0.44075 0.50387 0.3112 0.0
H995 H 0.40869 0.48726 0.27543 0.0
C996 C 0.89208 0.45479 0.28593 0.0
C997 C 0.87235 0.46386 0.26442 0.0
C998 C 0.85203 0.41848 0.2144 0.0
C999 C 0.87048 0.4085 0.23777 0.0
N1000 N 0.90346 0.41391 0.30165 0.0
N1001 N 0.82972 0.45207 0.214 0.0
C1002 C 0.88889 0.42551 0.27556 0.0
C1003 C 0.85131 0.44514 0.2301 0.0
N1004 N 0.91522 0.47495 0.31422 0.0
N1005 N 0.83509 0.4024 0.17729 0.0
H1006 H 0.82828 0.47118 0.22511 0.0
H1007 H 0.8116 0.43762 0.19252 0.0
H1008 H 0.83272 0.38127 0.16716 0.0
H1009 H 0.82447 0.41062 0.15526 0.0
H1010 H 0.93269 0.47118 0.32645 0.0
H1011 H 0.91896 0.49694 0.3221 0.0
H1012 H 0.91403 0.42356 0.33261 0.0
H1013 H 0.90305 0.39325 0.29458 0.0
C1014 C 0.43894 0.8513 0.2229 0.0
C1015 C 0.46853 0.8767 0.23386 0.0
C1016 C 0.44417 0.90178 0.27496 0.0
C1017 C 0.41457 0.8772 0.26182 0.0
N1018 N 0.38331 0.83053 0.21887 0.0
N1019 N 0.49978 0.92856 0.26302 0.0
C1020 C 0.41183 0.85262 0.23422 0.0
C1021 C 0.47131 0.90256 0.25815 0.0
N1022 N 0.43674 0.8253 0.20365 0.0
N1023 N 0.44637 0.92449 0.30344 0.0
H1024 H 0.52019 0.93031 0.2506 0.0
H1025 H 0.50308 0.94945 0.27586 0.0
H1026 H 0.4273 0.92633 0.3136 0.0
H1027 H 0.4669 0.94065 0.31909 0.0
H1028 H 0.41593 0.80468 0.19923 0.0
H1029 H 0.45606 0.82337 0.1953 0.0
H1030 H 0.38003 0.81409 0.1944 0.0
H1031 H 0.36278 0.82975 0.22845 0.0
C1032 C 0.58609 0.43534 0.21007 0.0
C1033 C 0.59489 0.46464 0.22969 0.0
C1034 C 0.54864 0.44091 0.27806 0.0
C1035 C 0.54116 0.41131 0.26112 0.0
N1036 N 0.55433 0.37935 0.21571 0.0
N1037 N 0.58697 0.49519 0.28623 0.0
C1038 C 0.56022 0.40823 0.22818 0.0
C1039 C 0.577 0.46734 0.26507 0.0
N1040 N 0.6025 0.43346 0.17417 0.0
N1041 N 0.52777 0.44405 0.3045 0.0
H1042 H 0.60648 0.51569 0.27608 0.0
H1043 H 0.57706 0.49769 0.31592 0.0
H1044 H 0.50639 0.42543 0.31407 0.0
H1045 H 0.5302 0.46534 0.31348 0.0
H1046 H 0.5952 0.41352 0.1548 0.0
H1047 H 0.62278 0.45241 0.16197 0.0
H1048 H 0.56913 0.37534 0.19557 0.0
H1049 H 0.53567 0.35904 0.2284 0.0
C1050 C 0.11032 0.56374 0.21356 0.0
C1051 C 0.13279 0.59318 0.23065 0.0
C1052 C 0.15342 0.56843 0.28082 0.0
C1053 C 0.1323 0.53926 0.26144 0.0
N1054 N 0.09431 0.50957 0.20384 0.0
N1055 N 0.1792 0.62441 0.27423 0.0
C1056 C 0.11205 0.53709 0.22587 0.0
C1057 C 0.15526 0.59579 0.26272 0.0
N1058 N 0.08616 0.56089 0.18778 0.0
N1059 N 0.17177 0.57001 0.31649 0.0
H1060 H 0.18167 0.64494 0.261 0.0
H1061 H 0.19812 0.62786 0.29369 0.0
H1062 H 0.17293 0.55091 0.32844 0.0
H1063 H 0.18468 0.58991 0.33584 0.0
H1064 H 0.06708 0.53965 0.17904 0.0
H1065 H 0.08345 0.57961 0.17865 0.0
H1066 H 0.08197 0.50754 0.17421 0.0
H1067 H 0.09366 0.48905 0.21287 0.0
C1068 C 0.44437 0.85074 0.73283 0.0
C1069 C 0.46418 0.87298 0.76511 0.0
C1070 C 0.43253 0.89803 0.76301 0.0
C1071 C 0.41125 0.87422 0.73379 0.0
N1072 N 0.39401 0.82536 0.69606 0.0
N1073 N 0.47585 0.91595 0.81502 0.0
C1074 C 0.41643 0.84991 0.71991 0.0
C1075 C 0.45775 0.89595 0.78165 0.0
N1076 N 0.45238 0.83055 0.71434 0.0
N1077 N 0.42969 0.92356 0.77079 0.0
H1078 H 0.49586 0.9168 0.82746 0.0
H1079 H 0.47002 0.93047 0.8325 0.0
H1080 H 0.41205 0.92643 0.75677 0.0
H1081 H 0.44631 0.94327 0.78764 0.0
H1082 H 0.44081 0.81612 0.68697 0.0
H1083 H 0.47202 0.8297 0.72433 0.0
H1084 H 0.39488 0.80534 0.68903 0.0
H1085 H 0.37309 0.82376 0.68651 0.0
C1086 C 0.57532 0.46839 0.73088 0.0
C1087 C 0.59629 0.46523 0.76 0.0
C1088 C 0.5641 0.40864 0.75654 0.0
C1089 C 0.54184 0.41188 0.7306 0.0
N1090 N 0.52339 0.4447 0.69994 0.0
N1091 N 0.60961 0.43313 0.805 0.0
C1092 C 0.54674 0.44171 0.71931 0.0
C1093 C 0.59031 0.43556 0.77429 0.0
N1094 N 0.58263 0.49692 0.71441 0.0
N1095 N 0.56093 0.37998 0.76238 0.0
H1096 H 0.62994 0.45222 0.81681 0.0
H1097 H 0.60456 0.41248 0.82093 0.0
H1098 H 0.54234 0.3598 0.74923 0.0
H1099 H 0.57793 0.37635 0.77681 0.0
H1100 H 0.57018 0.50018 0.68868 0.0
H1101 H 0.6024 0.51737 0.72412 0.0
H1102 H 0.5242 0.46584 0.69586 0.0
H1103 H 0.50182 0.42588 0.69165 0.0
C1104 C 0.10505 0.56856 0.74153 0.0
C1105 C 0.13024 0.59123 0.76744 0.0
C1106 C 0.15649 0.56074 0.76259 0.0
C1107 C 0.13042 0.53721 0.7392 0.0
N1108 N 0.07758 0.51575 0.71371 0.0
N1109 N 0.17834 0.6079 0.80739 0.0
C1110 C 0.10411 0.54037 0.73042 0.0
C1111 C 0.15543 0.58693 0.77961 0.0
N1112 N 0.0819 0.5739 0.72767 0.0
N1113 N 0.18282 0.55877 0.76655 0.0
H1114 H 0.17946 0.62837 0.81816 0.0
H1115 H 0.19528 0.60426 0.82201 0.0
H1116 H 0.18453 0.54005 0.75432 0.0
H1117 H 0.20379 0.57667 0.7787 0.0
H1118 H 0.06511 0.56022 0.70388 0.0
H1119 H 0.08037 0.59314 0.73777 0.0
H1120 H 0.05652 0.51532 0.71125 0.0
H1121 H 0.07567 0.49445 0.70607 0.0
C1122 C 0.59643 0.15601 0.75693 0.0
C1123 C 0.59305 0.12946 0.73396 0.0
C1124 C 0.53649 0.10625 0.73486 0.0
C1125 C 0.53981 0.13151 0.76139 0.0
N1126 N 0.57227 0.17904 0.80178 0.0
N1127 N 0.56023 0.07704 0.70782 0.0
C1128 C 0.56962 0.15597 0.77374 0.0
C1129 C 0.56317 0.10404 0.7244 0.0
N1130 N 0.62513 0.18176 0.76088 0.0
N1131 N 0.50782 0.08418 0.71993 0.0
H1132 H 0.57912 0.07414 0.70076 0.0
H1133 H 0.53912 0.05653 0.70498 0.0
H1134 H 0.48741 0.08381 0.72891 0.0
H1135 H 0.50437 0.06738 0.69599 0.0
H1136 H 0.62882 0.20298 0.77289 0.0
H1137 H 0.64525 0.18279 0.74856 0.0
H1138 H 0.59307 0.19543 0.81657 0.0
H1139 H 0.55326 0.18082 0.81249 0.0
C1140 C 0.42191 0.56996 0.78822 0.0
C1141 C 0.41413 0.54078 0.76917 0.0
C1142 C 0.46141 0.56518 0.72306 0.0
C1143 C 0.46801 0.59465 0.73947 0.0
N1144 N 0.45275 0.62597 0.78249 0.0
N1145 N 0.42387 0.51069 0.71416 0.0
C1146 C 0.44785 0.5973 0.77085 0.0
C1147 C 0.43298 0.53846 0.73504 0.0
N1148 N 0.40451 0.57153 0.82297 0.0
N1149 N 0.48317 0.56246 0.69825 0.0
H1150 H 0.40416 0.4901 0.72353 0.0
H1151 H 0.43464 0.50836 0.68532 0.0
H1152 H 0.50468 0.58128 0.6897 0.0
H1153 H 0.48127 0.54131 0.68975 0.0
H1154 H 0.41108 0.59142 0.84211 0.0
H1155 H 0.38414 0.55238 0.83449 0.0
H1156 H 0.43711 0.62958 0.8012 0.0
H1157 H 0.47146 0.64646 0.7704 0.0
C1158 C 0.85145 0.41394 0.77164 0.0
C1159 C 0.87738 0.41014 0.763 0.0
C1160 C 0.90443 0.461 0.72608 0.0
C1161 C 0.87755 0.46372 0.73138 0.0
N1162 N 0.82385 0.44112 0.75282 0.0
N1163 N 0.92718 0.42791 0.72761 0.0
C1164 C 0.85063 0.43981 0.75267 0.0
C1165 C 0.90338 0.43296 0.73862 0.0
N1166 N 0.82763 0.39283 0.79804 0.0
N1167 N 0.93153 0.4859 0.7115 0.0
H1168 H 0.92834 0.40862 0.73856 0.0
H1169 H 0.94484 0.44181 0.70509 0.0
H1170 H 0.93357 0.50715 0.70311 0.0
H1171 H 0.95276 0.48658 0.71171 0.0
H1172 H 0.80987 0.39615 0.81015 0.0
H1173 H 0.82654 0.37267 0.81028 0.0
H1174 H 0.80255 0.42298 0.76347 0.0
H1175 H 0.82227 0.45946 0.73866 0.0
loop_
_geom_bond_atom_site_label_1
_geom_bond_atom_site_label_2
_geom_bond_distance
_geom_bond_site_symmetry_2
_ccdc_geom_bond_type
In0 O1 2.294 . S
In0 O2 2.326 . S
In0 O6 2.266 . S
In0 O7 2.326 . S
In0 O8 2.266 . S
In0 O9 2.326 . S
In0 O11 2.294 . S
In0 O12 2.326 . S
O1 In0 2.294 . S
O1 C10 1.240 . S
O2 In0 2.326 . S
O2 C10 1.252 . S
C3 O6 1.252 . S
C3 O7 1.260 . S
C4 O11 1.240 . S
C4 O12 1.252 . S
C5 O8 1.252 . S
C5 O9 1.260 . S
O6 In0 2.266 . S
O6 C3 1.252 . S
O7 In0 2.326 . S
O7 C3 1.260 . S
O8 In0 2.266 . S
O8 C5 1.252 . S
O9 In0 2.326 . S
O9 C5 1.260 . S
C10 O1 1.240 . S
C10 O2 1.252 . S
O11 In0 2.294 . S
O11 C4 1.240 . S
O12 In0 2.326 . S
O12 C4 1.252 . S
In13 O14 2.294 . S
In13 O15 2.326 . S
In13 O19 2.266 . S
In13 O20 2.326 . S
In13 O21 2.266 . S
In13 O22 2.326 . S
In13 O24 2.294 . S
In13 O25 2.326 . S
O14 In13 2.294 . S
O14 C23 1.240 . S
O15 In13 2.326 . S
O15 C23 1.252 . S
C16 O19 1.252 . S
C16 O20 1.260 . S
C17 O24 1.240 . S
C17 O25 1.252 . S
C18 O21 1.252 . S
C18 O22 1.260 . S
O19 In13 2.266 . S
O19 C16 1.252 . S
O20 In13 2.326 . S
O20 C16 1.260 . S
O21 In13 2.266 . S
O21 C18 1.252 . S
O22 In13 2.326 . S
O22 C18 1.260 . S
C23 O14 1.240 . S
C23 O15 1.252 . S
O24 In13 2.294 . S
O24 C17 1.240 . S
O25 In13 2.326 . S
O25 C17 1.252 . S
In26 O27 2.294 . S
In26 O28 2.326 . S
In26 O32 2.266 . S
In26 O33 2.326 . S
In26 O34 2.266 . S
In26 O35 2.326 . S
In26 O37 2.294 . S
In26 O38 2.326 . S
O27 In26 2.294 . S
O27 C36 1.240 . S
O28 In26 2.326 . S
O28 C36 1.252 . S
C29 O32 1.252 . S
C29 O33 1.260 . S
C30 O37 1.240 . S
C30 O38 1.252 . S
C31 O34 1.252 . S
C31 O35 1.260 . S
O32 In26 2.266 . S
O32 C29 1.252 . S
O33 In26 2.326 . S
O33 C29 1.260 . S
O34 In26 2.266 . S
O34 C31 1.252 . S
O35 In26 2.326 . S
O35 C31 1.260 . S
C36 O27 1.240 . S
C36 O28 1.252 . S
O37 In26 2.294 . S
O37 C30 1.240 . S
O38 In26 2.326 . S
O38 C30 1.252 . S
In39 O40 2.294 . S
In39 O41 2.326 . S
In39 O45 2.266 . S
In39 O46 2.326 . S
In39 O47 2.266 . S
In39 O48 2.326 . S
In39 O50 2.294 . S
In39 O51 2.326 . S
O40 In39 2.294 . S
O40 C49 1.240 . S
O41 In39 2.326 . S
O41 C49 1.252 . S
C42 O45 1.252 . S
C42 O46 1.260 . S
C43 O50 1.240 . S
C43 O51 1.252 . S
C44 O47 1.252 . S
C44 O48 1.260 . S
O45 In39 2.266 . S
O45 C42 1.252 . S
O46 In39 2.326 . S
O46 C42 1.260 . S
O47 In39 2.266 . S
O47 C44 1.252 . S
O48 In39 2.326 . S
O48 C44 1.260 . S
C49 O40 1.240 . S
C49 O41 1.252 . S
O50 In39 2.294 . S
O50 C43 1.240 . S
O51 In39 2.326 . S
O51 C43 1.252 . S
In52 O53 2.294 . S
In52 O54 2.326 . S
In52 O58 2.266 . S
In52 O59 2.326 . S
In52 O60 2.266 . S
In52 O61 2.326 . S
In52 O63 2.294 . S
In52 O64 2.326 . S
O53 In52 2.294 . S
O53 C62 1.240 . S
O54 In52 2.326 . S
O54 C62 1.252 . S
C55 O58 1.252 . S
C55 O59 1.260 . S
C56 O63 1.240 . S
C56 O64 1.252 . S
C57 O60 1.252 . S
C57 O61 1.260 . S
O58 In52 2.266 . S
O58 C55 1.252 . S
O59 In52 2.326 . S
O59 C55 1.260 . S
O60 In52 2.266 . S
O60 C57 1.252 . S
O61 In52 2.326 . S
O61 C57 1.260 . S
C62 O53 1.240 . S
C62 O54 1.252 . S
O63 In52 2.294 . S
O63 C56 1.240 . S
O64 In52 2.326 . S
O64 C56 1.252 . S
In65 O66 2.294 . S
In65 O67 2.326 . S
In65 O71 2.266 . S
In65 O72 2.326 . S
In65 O73 2.266 . S
In65 O74 2.326 . S
In65 O76 2.294 . S
In65 O77 2.326 . S
O66 In65 2.294 . S
O66 C75 1.240 . S
O67 In65 2.326 . S
O67 C75 1.252 . S
C68 O71 1.252 . S
C68 O72 1.260 . S
C69 O76 1.240 . S
C69 O77 1.252 . S
C70 O73 1.252 . S
C70 O74 1.260 . S
O71 In65 2.266 . S
O71 C68 1.252 . S
O72 In65 2.326 . S
O72 C68 1.260 . S
O73 In65 2.266 . S
O73 C70 1.252 . S
O74 In65 2.326 . S
O74 C70 1.260 . S
C75 O66 1.240 . S
C75 O67 1.252 . S
O76 In65 2.294 . S
O76 C69 1.240 . S
O77 In65 2.326 . S
O77 C69 1.252 . S
In78 O79 2.294 . S
In78 O80 2.326 . S
In78 O84 2.266 . S
In78 O85 2.326 . S
In78 O86 2.266 . S
In78 O87 2.326 . S
In78 O89 2.294 . S
In78 O90 2.326 . S
O79 In78 2.294 . S
O79 C88 1.240 . S
O80 In78 2.326 . S
O80 C88 1.252 . S
C81 O84 1.252 . S
C81 O85 1.260 . S
C82 O89 1.240 . S
C82 O90 1.252 . S
C83 O86 1.252 . S
C83 O87 1.260 . S
O84 In78 2.266 . S
O84 C81 1.252 . S
O85 In78 2.326 . S
O85 C81 1.260 . S
O86 In78 2.266 . S
O86 C83 1.252 . S
O87 In78 2.326 . S
O87 C83 1.260 . S
C88 O79 1.240 . S
C88 O80 1.252 . S
O89 In78 2.294 . S
O89 C82 1.240 . S
O90 In78 2.326 . S
O90 C82 1.252 . S
In91 O92 2.294 . S
In91 O93 2.326 . S
In91 O97 2.266 . S
In91 O98 2.326 . S
In91 O99 2.266 . S
In91 O100 2.326 . S
In91 O102 2.294 . S
In91 O103 2.326 . S
O92 In91 2.294 . S
O92 C101 1.240 . S
O93 In91 2.326 . S
O93 C101 1.252 . S
C94 O97 1.252 . S
C94 O98 1.260 . S
C95 O102 1.240 . S
C95 O103 1.252 . S
C96 O99 1.252 . S
C96 O100 1.260 . S
O97 In91 2.266 . S
O97 C94 1.252 . S
O98 In91 2.326 . S
O98 C94 1.260 . S
O99 In91 2.266 . S
O99 C96 1.252 . S
O100 In91 2.326 . S
O100 C96 1.260 . S
C101 O92 1.240 . S
C101 O93 1.252 . S
O102 In91 2.294 . S
O102 C95 1.240 . S
O103 In91 2.326 . S
O103 C95 1.252 . S
In104 O105 2.294 . S
In104 O106 2.326 . S
In104 O110 2.266 . S
In104 O111 2.326 . S
In104 O112 2.266 . S
In104 O113 2.326 . S
In104 O115 2.294 . S
In104 O116 2.326 . S
O105 In104 2.294 . S
O105 C114 1.240 . S
O106 In104 2.326 . S
O106 C114 1.252 . S
C107 O110 1.252 . S
C107 O111 1.260 . S
C108 O115 1.240 . S
C108 O116 1.252 . S
C109 O112 1.252 . S
C109 O113 1.260 . S
O110 In104 2.266 . S
O110 C107 1.252 . S
O111 In104 2.326 . S
O111 C107 1.260 . S
O112 In104 2.266 . S
O112 C109 1.252 . S
O113 In104 2.326 . S
O113 C109 1.260 . S
C114 O105 1.240 . S
C114 O106 1.252 . S
O115 In104 2.294 . S
O115 C108 1.240 . S
O116 In104 2.326 . S
O116 C108 1.252 . S
In117 O118 2.294 . S
In117 O119 2.326 . S
In117 O123 2.266 . S
In117 O124 2.326 . S
In117 O125 2.266 . S
In117 O126 2.326 . S
In117 O128 2.294 . S
In117 O129 2.326 . S
O118 In117 2.294 . S
O118 C127 1.240 . S
O119 In117 2.326 . S
O119 C127 1.252 . S
C120 O123 1.252 . S
C120 O124 1.260 . S
C121 O128 1.240 . S
C121 O129 1.252 . S
C122 O125 1.252 . S
C122 O126 1.260 . S
O123 In117 2.266 . S
O123 C120 1.252 . S
O124 In117 2.326 . S
O124 C120 1.260 . S
O125 In117 2.266 . S
O125 C122 1.252 . S
O126 In117 2.326 . S
O126 C122 1.260 . S
C127 O118 1.240 . S
C127 O119 1.252 . S
O128 In117 2.294 . S
O128 C121 1.240 . S
O129 In117 2.326 . S
O129 C121 1.252 . S
In130 O131 2.294 . S
In130 O132 2.326 . S
In130 O136 2.266 . S
In130 O137 2.326 . S
In130 O138 2.266 . S
In130 O139 2.326 . S
In130 O141 2.294 . S
In130 O142 2.326 . S
O131 In130 2.294 . S
O131 C140 1.240 . S
O132 In130 2.326 . S
O132 C140 1.252 . S
C133 O136 1.252 . S
C133 O137 1.260 . S
C134 O141 1.240 . S
C134 O142 1.252 . S
C135 O138 1.252 . S
C135 O139 1.260 . S
O136 In130 2.266 . S
O136 C133 1.252 . S
O137 In130 2.326 . S
O137 C133 1.260 . S
O138 In130 2.266 . S
O138 C135 1.252 . S
O139 In130 2.326 . S
O139 C135 1.260 . S
C140 O131 1.240 . S
C140 O132 1.252 . S
O141 In130 2.294 . S
O141 C134 1.240 . S
O142 In130 2.326 . S
O142 C134 1.252 . S
In143 O144 2.294 . S
In143 O145 2.326 . S
In143 O149 2.266 . S
In143 O150 2.326 . S
In143 O151 2.266 . S
In143 O152 2.326 . S
In143 O154 2.294 . S
In143 O155 2.326 . S
O144 In143 2.294 . S
O144 C153 1.240 . S
O145 In143 2.326 . S
O145 C153 1.252 . S
C146 O149 1.252 . S
C146 O150 1.260 . S
C147 O154 1.240 . S
C147 O155 1.252 . S
C148 O151 1.252 . S
C148 O152 1.260 . S
O149 In143 2.266 . S
O149 C146 1.252 . S
O150 In143 2.326 . S
O150 C146 1.260 . S
O151 In143 2.266 . S
O151 C148 1.252 . S
O152 In143 2.326 . S
O152 C148 1.260 . S
C153 O144 1.240 . S
C153 O145 1.252 . S
O154 In143 2.294 . S
O154 C147 1.240 . S
O155 In143 2.326 . S
O155 C147 1.252 . S
In156 O157 2.294 . S
In156 O158 2.326 . S
In156 O162 2.266 . S
In156 O163 2.326 . S
In156 O164 2.266 . S
In156 O165 2.326 . S
In156 O167 2.294 . S
In156 O168 2.326 . S
O157 In156 2.294 . S
O157 C166 1.240 . S
O158 In156 2.326 . S
O158 C166 1.252 . S
C159 O162 1.252 . S
C159 O163 1.260 . S
C160 O167 1.240 . S
C160 O168 1.252 . S
C161 O164 1.252 . S
C161 O165 1.260 . S
O162 In156 2.266 . S
O162 C159 1.252 . S
O163 In156 2.326 . S
O163 C159 1.260 . S
O164 In156 2.266 . S
O164 C161 1.252 . S
O165 In156 2.326 . S
O165 C161 1.260 . S
C166 O157 1.240 . S
C166 O158 1.252 . S
O167 In156 2.294 . S
O167 C160 1.240 . S
O168 In156 2.326 . S
O168 C160 1.252 . S
In169 O170 2.294 . S
In169 O171 2.326 . S
In169 O175 2.266 . S
In169 O176 2.326 . S
In169 O177 2.266 . S
In169 O178 2.326 . S
In169 O180 2.294 . S
In169 O181 2.326 . S
O170 In169 2.294 . S
O170 C179 1.240 . S
O171 In169 2.326 . S
O171 C179 1.252 . S
C172 O175 1.252 . S
C172 O176 1.260 . S
C173 O180 1.240 . S
C173 O181 1.252 . S
C174 O177 1.252 . S
C174 O178 1.260 . S
O175 In169 2.266 . S
O175 C172 1.252 . S
O176 In169 2.326 . S
O176 C172 1.260 . S
O177 In169 2.266 . S
O177 C174 1.252 . S
O178 In169 2.326 . S
O178 C174 1.260 . S
C179 O170 1.240 . S
C179 O171 1.252 . S
O180 In169 2.294 . S
O180 C173 1.240 . S
O181 In169 2.326 . S
O181 C173 1.252 . S
In182 O183 2.294 . S
In182 O184 2.326 . S
In182 O188 2.266 . S
In182 O189 2.326 . S
In182 O190 2.266 . S
In182 O191 2.326 . S
In182 O193 2.294 . S
In182 O194 2.326 . S
O183 In182 2.294 . S
O183 C192 1.240 . S
O184 In182 2.326 . S
O184 C192 1.252 . S
C185 O188 1.252 . S
C185 O189 1.260 . S
C186 O193 1.240 . S
C186 O194 1.252 . S
C187 O190 1.252 . S
C187 O191 1.260 . S
O188 In182 2.266 . S
O188 C185 1.252 . S
O189 In182 2.326 . S
O189 C185 1.260 . S
O190 In182 2.266 . S
O190 C187 1.252 . S
O191 In182 2.326 . S
O191 C187 1.260 . S
C192 O183 1.240 . S
C192 O184 1.252 . S
O193 In182 2.294 . S
O193 C186 1.240 . S
O194 In182 2.326 . S
O194 C186 1.252 . S
In195 O196 2.294 . S
In195 O197 2.326 . S
In195 O201 2.266 . S
In195 O202 2.326 . S
In195 O203 2.266 . S
In195 O204 2.326 . S
In195 O206 2.294 . S
In195 O207 2.326 . S
O196 In195 2.294 . S
O196 C205 1.240 . S
O197 In195 2.326 . S
O197 C205 1.252 . S
C198 O201 1.252 . S
C198 O202 1.260 . S
C199 O206 1.240 . S
C199 O207 1.252 . S
C200 O203 1.252 . S
C200 O204 1.260 . S
O201 In195 2.266 . S
O201 C198 1.252 . S
O202 In195 2.326 . S
O202 C198 1.260 . S
O203 In195 2.266 . S
O203 C200 1.252 . S
O204 In195 2.326 . S
O204 C200 1.260 . S
C205 O196 1.240 . S
C205 O197 1.252 . S
O206 In195 2.294 . S
O206 C199 1.240 . S
O207 In195 2.326 . S
O207 C199 1.252 . S
In208 O209 2.294 . S
In208 O210 2.326 . S
In208 O214 2.266 . S
In208 O215 2.326 . S
In208 O216 2.266 . S
In208 O217 2.326 . S
In208 O219 2.294 . S
In208 O220 2.326 . S
O209 In208 2.294 . S
O209 C218 1.240 . S
O210 In208 2.326 . S
O210 C218 1.252 . S
C211 O214 1.252 . S
C211 O215 1.260 . S
C212 O219 1.240 . S
C212 O220 1.252 . S
C213 O216 1.252 . S
C213 O217 1.260 . S
O214 In208 2.266 . S
O214 C211 1.252 . S
O215 In208 2.326 . S
O215 C211 1.260 . S
O216 In208 2.266 . S
O216 C213 1.252 . S
O217 In208 2.326 . S
O217 C213 1.260 . S
C218 O209 1.240 . S
C218 O210 1.252 . S
O219 In208 2.294 . S
O219 C212 1.240 . S
O220 In208 2.326 . S
O220 C212 1.252 . S
In221 O222 2.294 . S
In221 O223 2.326 . S
In221 O227 2.266 . S
In221 O228 2.326 . S
In221 O229 2.266 . S
In221 O230 2.326 . S
In221 O232 2.294 . S
In221 O233 2.326 . S
O222 In221 2.294 . S
O222 C231 1.240 . S
O223 In221 2.326 . S
O223 C231 1.252 . S
C224 O227 1.252 . S
C224 O228 1.260 . S
C225 O232 1.240 . S
C225 O233 1.252 . S
C226 O229 1.252 . S
C226 O230 1.260 . S
O227 In221 2.266 . S
O227 C224 1.252 . S
O228 In221 2.326 . S
O228 C224 1.260 . S
O229 In221 2.266 . S
O229 C226 1.252 . S
O230 In221 2.326 . S
O230 C226 1.260 . S
C231 O222 1.240 . S
C231 O223 1.252 . S
O232 In221 2.294 . S
O232 C225 1.240 . S
O233 In221 2.326 . S
O233 C225 1.252 . S
In234 O235 2.294 . S
In234 O236 2.326 . S
In234 O240 2.266 . S
In234 O241 2.326 . S
In234 O242 2.266 . S
In234 O243 2.326 . S
In234 O245 2.294 . S
In234 O246 2.326 . S
O235 In234 2.294 . S
O235 C244 1.240 . S
O236 In234 2.326 . S
O236 C244 1.252 . S
C237 O240 1.252 . S
C237 O241 1.260 . S
C238 O245 1.240 . S
C238 O246 1.252 . S
C239 O242 1.252 . S
C239 O243 1.260 . S
O240 In234 2.266 . S
O240 C237 1.252 . S
O241 In234 2.326 . S
O241 C237 1.260 . S
O242 In234 2.266 . S
O242 C239 1.252 . S
O243 In234 2.326 . S
O243 C239 1.260 . S
C244 O235 1.240 . S
C244 O236 1.252 . S
O245 In234 2.294 . S
O245 C238 1.240 . S
O246 In234 2.326 . S
O246 C238 1.252 . S
In247 O248 2.294 . S
In247 O249 2.326 . S
In247 O253 2.266 . S
In247 O254 2.326 . S
In247 O255 2.266 . S
In247 O256 2.326 . S
In247 O258 2.294 . S
In247 O259 2.326 . S
O248 In247 2.294 . S
O248 C257 1.240 . S
O249 In247 2.326 . S
O249 C257 1.252 . S
C250 O253 1.252 . S
C250 O254 1.260 . S
C251 O258 1.240 . S
C251 O259 1.252 . S
C252 O255 1.252 . S
C252 O256 1.260 . S
O253 In247 2.266 . S
O253 C250 1.252 . S
O254 In247 2.326 . S
O254 C250 1.260 . S
O255 In247 2.266 . S
O255 C252 1.252 . S
O256 In247 2.326 . S
O256 C252 1.260 . S
C257 O248 1.240 . S
C257 O249 1.252 . S
O258 In247 2.294 . S
O258 C251 1.240 . S
O259 In247 2.326 . S
O259 C251 1.252 . S
In260 O261 2.294 . S
In260 O262 2.326 . S
In260 O266 2.266 . S
In260 O267 2.326 . S
In260 O268 2.266 . S
In260 O269 2.326 . S
In260 O271 2.294 . S
In260 O272 2.326 . S
O261 In260 2.294 . S
O261 C270 1.240 . S
O262 In260 2.326 . S
O262 C270 1.252 . S
C263 O266 1.252 . S
C263 O267 1.260 . S
C264 O271 1.240 . S
C264 O272 1.252 . S
C265 O268 1.252 . S
C265 O269 1.260 . S
O266 In260 2.266 . S
O266 C263 1.252 . S
O267 In260 2.326 . S
O267 C263 1.260 . S
O268 In260 2.266 . S
O268 C265 1.252 . S
O269 In260 2.326 . S
O269 C265 1.260 . S
C270 O261 1.240 . S
C270 O262 1.252 . S
O271 In260 2.294 . S
O271 C264 1.240 . S
O272 In260 2.326 . S
O272 C264 1.252 . S
In273 O274 2.294 . S
In273 O275 2.326 . S
In273 O279 2.266 . S
In273 O280 2.326 . S
In273 O281 2.266 . S
In273 O282 2.326 . S
In273 O284 2.294 . S
In273 O285 2.326 . S
O274 In273 2.294 . S
O274 C283 1.240 . S
O275 In273 2.326 . S
O275 C283 1.252 . S
C276 O279 1.252 . S
C276 O280 1.260 . S
C277 O284 1.240 . S
C277 O285 1.252 . S
C278 O281 1.252 . S
C278 O282 1.260 . S
O279 In273 2.266 . S
O279 C276 1.252 . S
O280 In273 2.326 . S
O280 C276 1.260 . S
O281 In273 2.266 . S
O281 C278 1.252 . S
O282 In273 2.326 . S
O282 C278 1.260 . S
C283 O274 1.240 . S
C283 O275 1.252 . S
O284 In273 2.294 . S
O284 C277 1.240 . S
O285 In273 2.326 . S
O285 C277 1.252 . S
In286 O287 2.294 . S
In286 O288 2.326 . S
In286 O292 2.266 . S
In286 O293 2.326 . S
In286 O294 2.266 . S
In286 O295 2.326 . S
In286 O297 2.294 . S
In286 O298 2.326 . S
O287 In286 2.294 . S
O287 C296 1.240 . S
O288 In286 2.326 . S
O288 C296 1.252 . S
C289 O292 1.252 . S
C289 O293 1.260 . S
C290 O297 1.240 . S
C290 O298 1.252 . S
C291 O294 1.252 . S
C291 O295 1.260 . S
O292 In286 2.266 . S
O292 C289 1.252 . S
O293 In286 2.326 . S
O293 C289 1.260 . S
O294 In286 2.266 . S
O294 C291 1.252 . S
O295 In286 2.326 . S
O295 C291 1.260 . S
C296 O287 1.240 . S
C296 O288 1.252 . S
O297 In286 2.294 . S
O297 C290 1.240 . S
O298 In286 2.326 . S
O298 C290 1.252 . S
In299 O300 2.294 . S
In299 O301 2.326 . S
In299 O305 2.266 . S
In299 O306 2.326 . S
In299 O307 2.266 . S
In299 O308 2.326 . S
In299 O310 2.294 . S
In299 O311 2.326 . S
O300 In299 2.294 . S
O300 C309 1.240 . S
O301 In299 2.326 . S
O301 C309 1.252 . S
C302 O305 1.252 . S
C302 O306 1.260 . S
C303 O310 1.240 . S
C303 O311 1.252 . S
C304 O307 1.252 . S
C304 O308 1.260 . S
O305 In299 2.266 . S
O305 C302 1.252 . S
O306 In299 2.326 . S
O306 C302 1.260 . S
O307 In299 2.266 . S
O307 C304 1.252 . S
O308 In299 2.326 . S
O308 C304 1.260 . S
C309 O300 1.240 . S
C309 O301 1.252 . S
O310 In299 2.294 . S
O310 C303 1.240 . S
O311 In299 2.326 . S
O311 C303 1.252 . S
C312 C313 1.363 . S
C312 C318 1.379 1_545 S
C312 N320 1.356 . S
C313 C312 1.363 . S
C313 C319 1.363 . S
C314 C315 1.363 . S
C314 C319 1.379 1_565 S
C314 N321 1.356 . S
C315 C314 1.363 . S
C315 C318 1.363 . S
N316 C318 1.356 . S
N316 H328 0.984 . S
N316 H329 0.985 . S
N317 C319 1.356 . S
N317 H322 0.984 . S
N317 H323 0.985 . S
C318 C312 1.379 1_565 S
C318 C315 1.363 . S
C318 N316 1.356 . S
C319 C313 1.363 . S
C319 C314 1.379 1_545 S
C319 N317 1.356 . S
N320 C312 1.356 . S
N320 H326 0.984 . S
N320 H327 0.984 . S
N321 C314 1.356 . S
N321 H324 0.984 . S
N321 H325 0.985 . S
H322 N317 0.984 . S
H323 N317 0.985 . S
H324 N321 0.984 . S
H325 N321 0.985 . S
H326 N320 0.984 . S
H327 N320 0.984 . S
H328 N316 0.984 . S
H329 N316 0.985 . S
C330 C331 1.363 . S
C330 C336 1.379 . S
C330 N338 1.356 . S
C331 C330 1.363 . S
C331 C337 1.363 . S
C332 C333 1.363 . S
C332 C337 1.379 . S
C332 N339 1.356 . S
C333 C332 1.363 . S
C333 C336 1.363 . S
N334 C336 1.356 . S
N334 H346 0.984 . S
N334 H347 0.985 . S
N335 C337 1.356 . S
N335 H340 0.984 . S
N335 H341 0.985 . S
C336 C330 1.379 . S
C336 C333 1.363 . S
C336 N334 1.356 . S
C337 C331 1.363 . S
C337 C332 1.379 . S
C337 N335 1.356 . S
N338 C330 1.356 . S
N338 H344 0.984 . S
N338 H345 0.984 . S
N339 C332 1.356 . S
N339 H342 0.984 . S
N339 H343 0.985 . S
H340 N335 0.984 . S
H341 N335 0.985 . S
H342 N339 0.984 . S
H343 N339 0.985 . S
H344 N338 0.984 . S
H345 N338 0.984 . S
H346 N334 0.984 . S
H347 N334 0.985 . S
C348 C349 1.363 . S
C348 C354 1.379 1_655 S
C348 N356 1.356 . S
C349 C348 1.363 . S
C349 C355 1.363 . S
C350 C351 1.363 . S
C350 C355 1.379 1_455 S
C350 N357 1.356 . S
C351 C350 1.363 . S
C351 C354 1.363 . S
N352 C354 1.356 . S
N352 H364 0.984 . S
N352 H365 0.985 . S
N353 C355 1.356 . S
N353 H358 0.984 . S
N353 H359 0.985 . S
C354 C348 1.379 1_455 S
C354 C351 1.363 . S
C354 N352 1.356 . S
C355 C349 1.363 . S
C355 C350 1.379 1_655 S
C355 N353 1.356 . S
N356 C348 1.356 . S
N356 H362 0.984 . S
N356 H363 0.984 . S
N357 C350 1.356 . S
N357 H360 0.984 . S
N357 H361 0.985 . S
H358 N353 0.984 . S
H359 N353 0.985 . S
H360 N357 0.984 . S
H361 N357 0.985 . S
H362 N356 0.984 . S
H363 N356 0.984 . S
H364 N352 0.984 . S
H365 N352 0.985 . S
C366 C367 1.363 . S
C366 C372 1.379 1_565 S
C366 N374 1.356 . S
C367 C366 1.363 . S
C367 C373 1.363 . S
C368 C369 1.363 . S
C368 C373 1.379 1_545 S
C368 N375 1.356 . S
C369 C368 1.363 . S
C369 C372 1.363 . S
N370 C372 1.356 . S
N370 H382 0.984 . S
N370 H383 0.985 . S
N371 C373 1.356 . S
N371 H376 0.984 . S
N371 H377 0.985 . S
C372 C366 1.379 1_545 S
C372 C369 1.363 . S
C372 N370 1.356 . S
C373 C367 1.363 . S
C373 C368 1.379 1_565 S
C373 N371 1.356 . S
N374 C366 1.356 . S
N374 H380 0.984 . S
N374 H381 0.984 . S
N375 C368 1.356 . S
N375 H378 0.984 . S
N375 H379 0.985 . S
H376 N371 0.984 . S
H377 N371 0.985 . S
H378 N375 0.984 . S
H379 N375 0.985 . S
H380 N374 0.984 . S
H381 N374 0.984 . S
H382 N370 0.984 . S
H383 N370 0.985 . S
C384 C385 1.363 . S
C384 C390 1.379 . S
C384 N392 1.356 . S
C385 C384 1.363 . S
C385 C391 1.363 . S
C386 C387 1.363 . S
C386 C391 1.379 . S
C386 N393 1.356 . S
C387 C386 1.363 . S
C387 C390 1.363 . S
N388 C390 1.356 . S
N388 H400 0.984 . S
N388 H401 0.985 . S
N389 C391 1.356 . S
N389 H394 0.984 . S
N389 H395 0.985 . S
C390 C384 1.379 . S
C390 C387 1.363 . S
C390 N388 1.356 . S
C391 C385 1.363 . S
C391 C386 1.379 . S
C391 N389 1.356 . S
N392 C384 1.356 . S
N392 H398 0.984 . S
N392 H399 0.984 . S
N393 C386 1.356 . S
N393 H396 0.984 . S
N393 H397 0.985 . S
H394 N389 0.984 . S
H395 N389 0.985 . S
H396 N393 0.984 . S
H397 N393 0.985 . S
H398 N392 0.984 . S
H399 N392 0.984 . S
H400 N388 0.984 . S
H401 N388 0.985 . S
C402 C403 1.363 . S
C402 C408 1.379 1_455 S
C402 N410 1.356 . S
C403 C402 1.363 . S
C403 C409 1.363 . S
C404 C405 1.363 . S
C404 C409 1.379 1_655 S
C404 N411 1.356 . S
C405 C404 1.363 . S
C405 C408 1.363 . S
N406 C408 1.356 . S
N406 H418 0.984 . S
N406 H419 0.985 . S
N407 C409 1.356 . S
N407 H412 0.984 . S
N407 H413 0.985 . S
C408 C402 1.379 1_655 S
C408 C405 1.363 . S
C408 N406 1.356 . S
C409 C403 1.363 . S
C409 C404 1.379 1_455 S
C409 N407 1.356 . S
N410 C402 1.356 . S
N410 H416 0.984 . S
N410 H417 0.984 . S
N411 C404 1.356 . S
N411 H414 0.984 . S
N411 H415 0.985 . S
H412 N407 0.984 . S
H413 N407 0.985 . S
H414 N411 0.984 . S
H415 N411 0.985 . S
H416 N410 0.984 . S
H417 N410 0.984 . S
H418 N406 0.984 . S
H419 N406 0.985 . S
C420 C421 1.363 . S
C420 C426 1.379 1_565 S
C420 N428 1.356 . S
C421 C420 1.363 . S
C421 C427 1.363 . S
C422 C423 1.363 . S
C422 C427 1.379 1_545 S
C422 N429 1.356 . S
C423 C422 1.363 . S
C423 C426 1.363 . S
N424 C426 1.356 . S
N424 H436 0.984 . S
N424 H437 0.985 . S
N425 C427 1.356 . S
N425 H430 0.984 . S
N425 H431 0.985 . S
C426 C420 1.379 1_545 S
C426 C423 1.363 . S
C426 N424 1.356 . S
C427 C421 1.363 . S
C427 C422 1.379 1_565 S
C427 N425 1.356 . S
N428 C420 1.356 . S
N428 H434 0.984 . S
N428 H435 0.984 . S
N429 C422 1.356 . S
N429 H432 0.984 . S
N429 H433 0.985 . S
H430 N425 0.984 . S
H431 N425 0.985 . S
H432 N429 0.984 . S
H433 N429 0.985 . S
H434 N428 0.984 . S
H435 N428 0.984 . S
H436 N424 0.984 . S
H437 N424 0.985 . S
C438 C439 1.363 . S
C438 C444 1.379 . S
C438 N446 1.356 . S
C439 C438 1.363 . S
C439 C445 1.363 . S
C440 C441 1.363 . S
C440 C445 1.379 . S
C440 N447 1.356 . S
C441 C440 1.363 . S
C441 C444 1.363 . S
N442 C444 1.356 . S
N442 H454 0.984 . S
N442 H455 0.985 . S
N443 C445 1.356 . S
N443 H448 0.984 . S
N443 H449 0.985 . S
C444 C438 1.379 . S
C444 C441 1.363 . S
C444 N442 1.356 . S
C445 C439 1.363 . S
C445 C440 1.379 . S
C445 N443 1.356 . S
N446 C438 1.356 . S
N446 H452 0.984 . S
N446 H453 0.984 . S
N447 C440 1.356 . S
N447 H450 0.984 . S
N447 H451 0.985 . S
H448 N443 0.984 . S
H449 N443 0.985 . S
H450 N447 0.984 . S
H451 N447 0.985 . S
H452 N446 0.984 . S
H453 N446 0.984 . S
H454 N442 0.984 . S
H455 N442 0.985 . S
C456 C457 1.363 . S
C456 C462 1.379 1_655 S
C456 N464 1.356 . S
C457 C456 1.363 . S
C457 C463 1.363 . S
C458 C459 1.363 . S
C458 C463 1.379 1_455 S
C458 N465 1.356 . S
C459 C458 1.363 . S
C459 C462 1.363 . S
N460 C462 1.356 . S
N460 H472 0.984 . S
N460 H473 0.985 . S
N461 C463 1.356 . S
N461 H466 0.984 . S
N461 H467 0.985 . S
C462 C456 1.379 1_455 S
C462 C459 1.363 . S
C462 N460 1.356 . S
C463 C457 1.363 . S
C463 C458 1.379 1_655 S
C463 N461 1.356 . S
N464 C456 1.356 . S
N464 H470 0.984 . S
N464 H471 0.984 . S
N465 C458 1.356 . S
N465 H468 0.984 . S
N465 H469 0.985 . S
H466 N461 0.984 . S
H467 N461 0.985 . S
H468 N465 0.984 . S
H469 N465 0.985 . S
H470 N464 0.984 . S
H471 N464 0.984 . S
H472 N460 0.984 . S
H473 N460 0.985 . S
C474 C475 1.363 . S
C474 C480 1.379 1_545 S
C474 N482 1.356 . S
C475 C474 1.363 . S
C475 C481 1.363 . S
C476 C477 1.363 . S
C476 C481 1.379 1_565 S
C476 N483 1.356 . S
C477 C476 1.363 . S
C477 C480 1.363 . S
N478 C480 1.356 . S
N478 H490 0.984 . S
N478 H491 0.985 . S
N479 C481 1.356 . S
N479 H484 0.984 . S
N479 H485 0.985 . S
C480 C474 1.379 1_565 S
C480 C477 1.363 . S
C480 N478 1.356 . S
C481 C475 1.363 . S
C481 C476 1.379 1_545 S
C481 N479 1.356 . S
N482 C474 1.356 . S
N482 H488 0.984 . S
N482 H489 0.984 . S
N483 C476 1.356 . S
N483 H486 0.984 . S
N483 H487 0.985 . S
H484 N479 0.984 . S
H485 N479 0.985 . S
H486 N483 0.984 . S
H487 N483 0.985 . S
H488 N482 0.984 . S
H489 N482 0.984 . S
H490 N478 0.984 . S
H491 N478 0.985 . S
C492 C493 1.363 . S
C492 C498 1.379 . S
C492 N500 1.356 . S
C493 C492 1.363 . S
C493 C499 1.363 . S
C494 C495 1.363 . S
C494 C499 1.379 . S
C494 N501 1.356 . S
C495 C494 1.363 . S
C495 C498 1.363 . S
N496 C498 1.356 . S
N496 H508 0.984 . S
N496 H509 0.985 . S
N497 C499 1.356 . S
N497 H502 0.984 . S
N497 H503 0.985 . S
C498 C492 1.379 . S
C498 C495 1.363 . S
C498 N496 1.356 . S
C499 C493 1.363 . S
C499 C494 1.379 . S
C499 N497 1.356 . S
N500 C492 1.356 . S
N500 H506 0.984 . S
N500 H507 0.984 . S
N501 C494 1.356 . S
N501 H504 0.984 . S
N501 H505 0.985 . S
H502 N497 0.984 . S
H503 N497 0.985 . S
H504 N501 0.984 . S
H505 N501 0.985 . S
H506 N500 0.984 . S
H507 N500 0.984 . S
H508 N496 0.984 . S
H509 N496 0.985 . S
C510 C511 1.363 . S
C510 C516 1.379 1_455 S
C510 N518 1.356 . S
C511 C510 1.363 . S
C511 C517 1.363 . S
C512 C513 1.363 . S
C512 C517 1.379 1_655 S
C512 N519 1.356 . S
C513 C512 1.363 . S
C513 C516 1.363 . S
N514 C516 1.356 . S
N514 H526 0.984 . S
N514 H527 0.985 . S
N515 C517 1.356 . S
N515 H520 0.984 . S
N515 H521 0.985 . S
C516 C510 1.379 1_655 S
C516 C513 1.363 . S
C516 N514 1.356 . S
C517 C511 1.363 . S
C517 C512 1.379 1_455 S
C517 N515 1.356 . S
N518 C510 1.356 . S
N518 H524 0.984 . S
N518 H525 0.984 . S
N519 C512 1.356 . S
N519 H522 0.984 . S
N519 H523 0.985 . S
H520 N515 0.984 . S
H521 N515 0.985 . S
H522 N519 0.984 . S
H523 N519 0.985 . S
H524 N518 0.984 . S
H525 N518 0.984 . S
H526 N514 0.984 . S
H527 N514 0.985 . S
C528 C529 1.363 . S
C528 C534 1.379 . S
C528 N536 1.356 . S
C529 C528 1.363 . S
C529 C535 1.363 . S
C530 C531 1.363 . S
C530 C535 1.379 . S
C530 N537 1.356 . S
C531 C530 1.363 . S
C531 C534 1.363 . S
N532 C534 1.356 . S
N532 H544 0.984 . S
N532 H545 0.985 . S
N533 C535 1.356 . S
N533 H538 0.984 . S
N533 H539 0.985 . S
C534 C528 1.379 . S
C534 C531 1.363 . S
C534 N532 1.356 . S
C535 C529 1.363 . S
C535 C530 1.379 . S
C535 N533 1.356 . S
N536 C528 1.356 . S
N536 H542 0.984 . S
N536 H543 0.984 . S
N537 C530 1.356 . S
N537 H540 0.984 . S
N537 H541 0.985 . S
H538 N533 0.984 . S
H539 N533 0.985 . S
H540 N537 0.984 . S
H541 N537 0.985 . S
H542 N536 0.984 . S
H543 N536 0.984 . S
H544 N532 0.984 . S
H545 N532 0.985 . S
C546 C547 1.363 . S
C546 C552 1.379 . S
C546 N554 1.356 . S
C547 C546 1.363 . S
C547 C553 1.363 . S
C548 C549 1.363 . S
C548 C553 1.379 . S
C548 N555 1.356 . S
C549 C548 1.363 . S
C549 C552 1.363 . S
N550 C552 1.356 . S
N550 H562 0.984 . S
N550 H563 0.985 . S
N551 C553 1.356 . S
N551 H556 0.984 . S
N551 H557 0.985 . S
C552 C546 1.379 . S
C552 C549 1.363 . S
C552 N550 1.356 . S
C553 C547 1.363 . S
C553 C548 1.379 . S
C553 N551 1.356 . S
N554 C546 1.356 . S
N554 H560 0.984 . S
N554 H561 0.984 . S
N555 C548 1.356 . S
N555 H558 0.984 . S
N555 H559 0.985 . S
H556 N551 0.984 . S
H557 N551 0.985 . S
H558 N555 0.984 . S
H559 N555 0.985 . S
H560 N554 0.984 . S
H561 N554 0.984 . S
H562 N550 0.984 . S
H563 N550 0.985 . S
C564 C565 1.363 . S
C564 C570 1.379 . S
C564 N572 1.356 . S
C565 C564 1.363 . S
C565 C571 1.363 . S
C566 C567 1.363 . S
C566 C571 1.379 . S
C566 N573 1.356 . S
C567 C566 1.363 . S
C567 C570 1.363 . S
N568 C570 1.356 . S
N568 H580 0.984 . S
N568 H581 0.985 . S
N569 C571 1.356 . S
N569 H574 0.984 . S
N569 H575 0.985 . S
C570 C564 1.379 . S
C570 C567 1.363 . S
C570 N568 1.356 . S
C571 C565 1.363 . S
C571 C566 1.379 . S
C571 N569 1.356 . S
N572 C564 1.356 . S
N572 H578 0.984 . S
N572 H579 0.984 . S
N573 C566 1.356 . S
N573 H576 0.984 . S
N573 H577 0.985 . S
H574 N569 0.984 . S
H575 N569 0.985 . S
H576 N573 0.984 . S
H577 N573 0.985 . S
H578 N572 0.984 . S
H579 N572 0.984 . S
H580 N568 0.984 . S
H581 N568 0.985 . S
C582 C583 1.363 . S
C582 C588 1.379 . S
C582 N590 1.356 . S
C583 C582 1.363 . S
C583 C589 1.363 . S
C584 C585 1.363 . S
C584 C589 1.379 . S
C584 N591 1.356 . S
C585 C584 1.363 . S
C585 C588 1.363 . S
N586 C588 1.356 . S
N586 H598 0.984 . S
N586 H599 0.985 . S
N587 C589 1.356 . S
N587 H592 0.984 . S
N587 H593 0.985 . S
C588 C582 1.379 . S
C588 C585 1.363 . S
C588 N586 1.356 . S
C589 C583 1.363 . S
C589 C584 1.379 . S
C589 N587 1.356 . S
N590 C582 1.356 . S
N590 H596 0.984 . S
N590 H597 0.984 . S
N591 C584 1.356 . S
N591 H594 0.984 . S
N591 H595 0.985 . S
H592 N587 0.984 . S
H593 N587 0.985 . S
H594 N591 0.984 . S
H595 N591 0.985 . S
H596 N590 0.984 . S
H597 N590 0.984 . S
H598 N586 0.984 . S
H599 N586 0.985 . S
C600 C601 1.363 . S
C600 C606 1.379 . S
C600 N608 1.356 . S
C601 C600 1.363 . S
C601 C607 1.363 . S
C602 C603 1.363 . S
C602 C607 1.379 . S
C602 N609 1.356 . S
C603 C602 1.363 . S
C603 C606 1.363 . S
N604 C606 1.356 . S
N604 H616 0.984 . S
N604 H617 0.985 . S
N605 C607 1.356 . S
N605 H610 0.984 . S
N605 H611 0.985 . S
C606 C600 1.379 . S
C606 C603 1.363 . S
C606 N604 1.356 . S
C607 C601 1.363 . S
C607 C602 1.379 . S
C607 N605 1.356 . S
N608 C600 1.356 . S
N608 H614 0.984 . S
N608 H615 0.984 . S
N609 C602 1.356 . S
N609 H612 0.984 . S
N609 H613 0.985 . S
H610 N605 0.984 . S
H611 N605 0.985 . S
H612 N609 0.984 . S
H613 N609 0.985 . S
H614 N608 0.984 . S
H615 N608 0.984 . S
H616 N604 0.984 . S
H617 N604 0.985 . S
C618 C619 1.363 . S
C618 C624 1.379 . S
C618 N626 1.356 . S
C619 C618 1.363 . S
C619 C625 1.363 . S
C620 C621 1.363 . S
C620 C625 1.379 . S
C620 N627 1.356 . S
C621 C620 1.363 . S
C621 C624 1.363 . S
N622 C624 1.356 . S
N622 H634 0.984 . S
N622 H635 0.985 . S
N623 C625 1.356 . S
N623 H628 0.984 . S
N623 H629 0.985 . S
C624 C618 1.379 . S
C624 C621 1.363 . S
C624 N622 1.356 . S
C625 C619 1.363 . S
C625 C620 1.379 . S
C625 N623 1.356 . S
N626 C618 1.356 . S
N626 H632 0.984 . S
N626 H633 0.984 . S
N627 C620 1.356 . S
N627 H630 0.984 . S
N627 H631 0.985 . S
H628 N623 0.984 . S
H629 N623 0.985 . S
H630 N627 0.984 . S
H631 N627 0.985 . S
H632 N626 0.984 . S
H633 N626 0.984 . S
H634 N622 0.984 . S
H635 N622 0.985 . S
C636 C637 1.363 . S
C636 C642 1.379 . S
C636 N644 1.356 . S
C637 C636 1.363 . S
C637 C643 1.363 . S
C638 C639 1.363 . S
C638 C643 1.379 . S
C638 N645 1.356 . S
C639 C638 1.363 . S
C639 C642 1.363 . S
N640 C642 1.356 . S
N640 H652 0.984 . S
N640 H653 0.985 . S
N641 C643 1.356 . S
N641 H646 0.984 . S
N641 H647 0.985 . S
C642 C636 1.379 . S
C642 C639 1.363 . S
C642 N640 1.356 . S
C643 C637 1.363 . S
C643 C638 1.379 . S
C643 N641 1.356 . S
N644 C636 1.356 . S
N644 H650 0.984 . S
N644 H651 0.984 . S
N645 C638 1.356 . S
N645 H648 0.984 . S
N645 H649 0.985 . S
H646 N641 0.984 . S
H647 N641 0.985 . S
H648 N645 0.984 . S
H649 N645 0.985 . S
H650 N644 0.984 . S
H651 N644 0.984 . S
H652 N640 0.984 . S
H653 N640 0.985 . S
C654 C655 1.363 . S
C654 C660 1.379 . S
C654 N662 1.356 . S
C655 C654 1.363 . S
C655 C661 1.363 . S
C656 C657 1.363 . S
C656 C661 1.379 . S
C656 N663 1.356 . S
C657 C656 1.363 . S
C657 C660 1.363 . S
N658 C660 1.356 . S
N658 H670 0.984 . S
N658 H671 0.985 . S
N659 C661 1.356 . S
N659 H664 0.984 . S
N659 H665 0.985 . S
C660 C654 1.379 . S
C660 C657 1.363 . S
C660 N658 1.356 . S
C661 C655 1.363 . S
C661 C656 1.379 . S
C661 N659 1.356 . S
N662 C654 1.356 . S
N662 H668 0.984 . S
N662 H669 0.984 . S
N663 C656 1.356 . S
N663 H666 0.984 . S
N663 H667 0.985 . S
H664 N659 0.984 . S
H665 N659 0.985 . S
H666 N663 0.984 . S
H667 N663 0.985 . S
H668 N662 0.984 . S
H669 N662 0.984 . S
H670 N658 0.984 . S
H671 N658 0.985 . S
C672 C673 1.363 . S
C672 C678 1.379 . S
C672 N680 1.356 . S
C673 C672 1.363 . S
C673 C679 1.363 . S
C674 C675 1.363 . S
C674 C679 1.379 . S
C674 N681 1.356 . S
C675 C674 1.363 . S
C675 C678 1.363 . S
N676 C678 1.356 . S
N676 H688 0.984 . S
N676 H689 0.985 . S
N677 C679 1.356 . S
N677 H682 0.984 . S
N677 H683 0.985 . S
C678 C672 1.379 . S
C678 C675 1.363 . S
C678 N676 1.356 . S
C679 C673 1.363 . S
C679 C674 1.379 . S
C679 N677 1.356 . S
N680 C672 1.356 . S
N680 H686 0.984 . S
N680 H687 0.984 . S
N681 C674 1.356 . S
N681 H684 0.984 . S
N681 H685 0.985 . S
H682 N677 0.984 . S
H683 N677 0.985 . S
H684 N681 0.984 . S
H685 N681 0.985 . S
H686 N680 0.984 . S
H687 N680 0.984 . S
H688 N676 0.984 . S
H689 N676 0.985 . S
C690 C691 1.363 . S
C690 C696 1.379 . S
C690 N698 1.356 . S
C691 C690 1.363 . S
C691 C697 1.363 . S
C692 C693 1.363 . S
C692 C697 1.379 . S
C692 N699 1.356 . S
C693 C692 1.363 . S
C693 C696 1.363 . S
N694 C696 1.356 . S
N694 H706 0.984 . S
N694 H707 0.985 . S
N695 C697 1.356 . S
N695 H700 0.984 . S
N695 H701 0.985 . S
C696 C690 1.379 . S
C696 C693 1.363 . S
C696 N694 1.356 . S
C697 C691 1.363 . S
C697 C692 1.379 . S
C697 N695 1.356 . S
N698 C690 1.356 . S
N698 H704 0.984 . S
N698 H705 0.984 . S
N699 C692 1.356 . S
N699 H702 0.984 . S
N699 H703 0.985 . S
H700 N695 0.984 . S
H701 N695 0.985 . S
H702 N699 0.984 . S
H703 N699 0.985 . S
H704 N698 0.984 . S
H705 N698 0.984 . S
H706 N694 0.984 . S
H707 N694 0.985 . S
C708 C709 1.363 . S
C708 C714 1.379 . S
C708 N716 1.356 . S
C709 C708 1.363 . S
C709 C715 1.363 . S
C710 C711 1.363 . S
C710 C715 1.379 . S
C710 N717 1.356 . S
C711 C710 1.363 . S
C711 C714 1.363 . S
N712 C714 1.356 . S
N712 H724 0.984 . S
N712 H725 0.985 . S
N713 C715 1.356 . S
N713 H718 0.984 . S
N713 H719 0.985 . S
C714 C708 1.379 . S
C714 C711 1.363 . S
C714 N712 1.356 . S
C715 C709 1.363 . S
C715 C710 1.379 . S
C715 N713 1.356 . S
N716 C708 1.356 . S
N716 H722 0.984 . S
N716 H723 0.984 . S
N717 C710 1.356 . S
N717 H720 0.984 . S
N717 H721 0.985 . S
H718 N713 0.984 . S
H719 N713 0.985 . S
H720 N717 0.984 . S
H721 N717 0.985 . S
H722 N716 0.984 . S
H723 N716 0.984 . S
H724 N712 0.984 . S
H725 N712 0.985 . S
C726 C727 1.363 . S
C726 C732 1.379 . S
C726 N734 1.356 . S
C727 C726 1.363 . S
C727 C733 1.363 . S
C728 C729 1.363 . S
C728 C733 1.379 . S
C728 N735 1.356 . S
C729 C728 1.363 . S
C729 C732 1.363 . S
N730 C732 1.356 . S
N730 H742 0.984 . S
N730 H743 0.985 . S
N731 C733 1.356 . S
N731 H736 0.984 . S
N731 H737 0.985 . S
C732 C726 1.379 . S
C732 C729 1.363 . S
C732 N730 1.356 . S
C733 C727 1.363 . S
C733 C728 1.379 . S
C733 N731 1.356 . S
N734 C726 1.356 . S
N734 H740 0.984 . S
N734 H741 0.984 . S
N735 C728 1.356 . S
N735 H738 0.984 . S
N735 H739 0.985 . S
H736 N731 0.984 . S
H737 N731 0.985 . S
H738 N735 0.984 . S
H739 N735 0.985 . S
H740 N734 0.984 . S
H741 N734 0.984 . S
H742 N730 0.984 . S
H743 N730 0.985 . S
C744 C745 1.363 . S
C744 C750 1.379 1_554 S
C744 N752 1.356 . S
C745 C744 1.363 . S
C745 C751 1.363 . S
C746 C747 1.363 . S
C746 C751 1.379 1_556 S
C746 N753 1.356 . S
C747 C746 1.363 . S
C747 C750 1.363 . S
N748 C750 1.356 . S
N748 H760 0.984 . S
N748 H761 0.985 . S
N749 C751 1.356 . S
N749 H754 0.984 . S
N749 H755 0.985 . S
C750 C744 1.379 1_556 S
C750 C747 1.363 . S
C750 N748 1.356 . S
C751 C745 1.363 . S
C751 C746 1.379 1_554 S
C751 N749 1.356 . S
N752 C744 1.356 . S
N752 H758 0.984 . S
N752 H759 0.984 . S
N753 C746 1.356 . S
N753 H756 0.984 . S
N753 H757 0.985 . S
H754 N749 0.984 . S
H755 N749 0.985 . S
H756 N753 0.984 . S
H757 N753 0.985 . S
H758 N752 0.984 . S
H759 N752 0.984 . S
H760 N748 0.984 . S
H761 N748 0.985 . S
C762 C763 1.363 . S
C762 C768 1.379 1_556 S
C762 N770 1.356 . S
C763 C762 1.363 . S
C763 C769 1.363 . S
C764 C765 1.363 . S
C764 C769 1.379 1_554 S
C764 N771 1.356 . S
C765 C764 1.363 . S
C765 C768 1.363 . S
N766 C768 1.356 . S
N766 H778 0.984 . S
N766 H779 0.985 . S
N767 C769 1.356 . S
N767 H772 0.984 . S
N767 H773 0.985 . S
C768 C762 1.379 1_554 S
C768 C765 1.363 . S
C768 N766 1.356 . S
C769 C763 1.363 . S
C769 C764 1.379 1_556 S
C769 N767 1.356 . S
N770 C762 1.356 . S
N770 H776 0.984 . S
N770 H777 0.984 . S
N771 C764 1.356 . S
N771 H774 0.984 . S
N771 H775 0.985 . S
H772 N767 0.984 . S
H773 N767 0.985 . S
H774 N771 0.984 . S
H775 N771 0.985 . S
H776 N770 0.984 . S
H777 N770 0.984 . S
H778 N766 0.984 . S
H779 N766 0.985 . S
C780 C781 1.363 . S
C780 C786 1.379 1_556 S
C780 N788 1.356 . S
C781 C780 1.363 . S
C781 C787 1.363 . S
C782 C783 1.363 . S
C782 C787 1.379 1_554 S
C782 N789 1.356 . S
C783 C782 1.363 . S
C783 C786 1.363 . S
N784 C786 1.356 . S
N784 H796 0.984 . S
N784 H797 0.985 . S
N785 C787 1.356 . S
N785 H790 0.984 . S
N785 H791 0.985 . S
C786 C780 1.379 1_554 S
C786 C783 1.363 . S
C786 N784 1.356 . S
C787 C781 1.363 . S
C787 C782 1.379 1_556 S
C787 N785 1.356 . S
N788 C780 1.356 . S
N788 H794 0.984 . S
N788 H795 0.984 . S
N789 C782 1.356 . S
N789 H792 0.984 . S
N789 H793 0.985 . S
H790 N785 0.984 . S
H791 N785 0.985 . S
H792 N789 0.984 . S
H793 N789 0.985 . S
H794 N788 0.984 . S
H795 N788 0.984 . S
H796 N784 0.984 . S
H797 N784 0.985 . S
C798 C799 1.363 . S
C798 C804 1.379 1_554 S
C798 N806 1.356 . S
C799 C798 1.363 . S
C799 C805 1.363 . S
C800 C801 1.363 . S
C800 C805 1.379 1_556 S
C800 N807 1.356 . S
C801 C800 1.363 . S
C801 C804 1.363 . S
N802 C804 1.356 . S
N802 H814 0.984 . S
N802 H815 0.985 . S
N803 C805 1.356 . S
N803 H808 0.984 . S
N803 H809 0.985 . S
C804 C798 1.379 1_556 S
C804 C801 1.363 . S
C804 N802 1.356 . S
C805 C799 1.363 . S
C805 C800 1.379 1_554 S
C805 N803 1.356 . S
N806 C798 1.356 . S
N806 H812 0.984 . S
N806 H813 0.984 . S
N807 C800 1.356 . S
N807 H810 0.984 . S
N807 H811 0.985 . S
H808 N803 0.984 . S
H809 N803 0.985 . S
H810 N807 0.984 . S
H811 N807 0.985 . S
H812 N806 0.984 . S
H813 N806 0.984 . S
H814 N802 0.984 . S
H815 N802 0.985 . S
C816 C817 1.363 . S
C816 C822 1.379 1_554 S
C816 N824 1.356 . S
C817 C816 1.363 . S
C817 C823 1.363 . S
C818 C819 1.363 . S
C818 C823 1.379 1_556 S
C818 N825 1.356 . S
C819 C818 1.363 . S
C819 C822 1.363 . S
N820 C822 1.356 . S
N820 H832 0.984 . S
N820 H833 0.985 . S
N821 C823 1.356 . S
N821 H826 0.984 . S
N821 H827 0.985 . S
C822 C816 1.379 1_556 S
C822 C819 1.363 . S
C822 N820 1.356 . S
C823 C817 1.363 . S
C823 C818 1.379 1_554 S
C823 N821 1.356 . S
N824 C816 1.356 . S
N824 H830 0.984 . S
N824 H831 0.984 . S
N825 C818 1.356 . S
N825 H828 0.984 . S
N825 H829 0.985 . S
H826 N821 0.984 . S
H827 N821 0.985 . S
H828 N825 0.984 . S
H829 N825 0.985 . S
H830 N824 0.984 . S
H831 N824 0.984 . S
H832 N820 0.984 . S
H833 N820 0.985 . S
C834 C835 1.363 . S
C834 C840 1.379 1_556 S
C834 N842 1.356 . S
C835 C834 1.363 . S
C835 C841 1.363 . S
C836 C837 1.363 . S
C836 C841 1.379 1_554 S
C836 N843 1.356 . S
C837 C836 1.363 . S
C837 C840 1.363 . S
N838 C840 1.356 . S
N838 H850 0.984 . S
N838 H851 0.985 . S
N839 C841 1.356 . S
N839 H844 0.984 . S
N839 H845 0.985 . S
C840 C834 1.379 1_554 S
C840 C837 1.363 . S
C840 N838 1.356 . S
C841 C835 1.363 . S
C841 C836 1.379 1_556 S
C841 N839 1.356 . S
N842 C834 1.356 . S
N842 H848 0.984 . S
N842 H849 0.984 . S
N843 C836 1.356 . S
N843 H846 0.984 . S
N843 H847 0.985 . S
H844 N839 0.984 . S
H845 N839 0.985 . S
H846 N843 0.984 . S
H847 N843 0.985 . S
H848 N842 0.984 . S
H849 N842 0.984 . S
H850 N838 0.984 . S
H851 N838 0.985 . S
C852 C853 1.363 . S
C852 C858 1.379 . S
C852 N860 1.356 . S
C853 C852 1.363 . S
C853 C859 1.363 . S
C854 C855 1.363 . S
C854 C859 1.379 . S
C854 N861 1.356 . S
C855 C854 1.363 . S
C855 C858 1.363 . S
N856 C858 1.356 . S
N856 H868 0.984 . S
N856 H869 0.985 . S
N857 C859 1.356 . S
N857 H862 0.984 . S
N857 H863 0.985 . S
C858 C852 1.379 . S
C858 C855 1.363 . S
C858 N856 1.356 . S
C859 C853 1.363 . S
C859 C854 1.379 . S
C859 N857 1.356 . S
N860 C852 1.356 . S
N860 H866 0.984 . S
N860 H867 0.984 . S
N861 C854 1.356 . S
N861 H864 0.984 . S
N861 H865 0.985 . S
H862 N857 0.984 . S
H863 N857 0.985 . S
H864 N861 0.984 . S
H865 N861 0.985 . S
H866 N860 0.984 . S
H867 N860 0.984 . S
H868 N856 0.984 . S
H869 N856 0.985 . S
C870 C871 1.363 . S
C870 C876 1.379 . S
C870 N878 1.356 . S
C871 C870 1.363 . S
C871 C877 1.363 . S
C872 C873 1.363 . S
C872 C877 1.379 . S
C872 N879 1.356 . S
C873 C872 1.363 . S
C873 C876 1.363 . S
N874 C876 1.356 . S
N874 H886 0.984 . S
N874 H887 0.985 . S
N875 C877 1.356 . S
N875 H880 0.984 . S
N875 H881 0.985 . S
C876 C870 1.379 . S
C876 C873 1.363 . S
C876 N874 1.356 . S
C877 C871 1.363 . S
C877 C872 1.379 . S
C877 N875 1.356 . S
N878 C870 1.356 . S
N878 H884 0.984 . S
N878 H885 0.984 . S
N879 C872 1.356 . S
N879 H882 0.984 . S
N879 H883 0.985 . S
H880 N875 0.984 . S
H881 N875 0.985 . S
H882 N879 0.984 . S
H883 N879 0.985 . S
H884 N878 0.984 . S
H885 N878 0.984 . S
H886 N874 0.984 . S
H887 N874 0.985 . S
C888 C889 1.363 . S
C888 C894 1.379 . S
C888 N896 1.356 . S
C889 C888 1.363 . S
C889 C895 1.363 . S
C890 C891 1.363 . S
C890 C895 1.379 . S
C890 N897 1.356 . S
C891 C890 1.363 . S
C891 C894 1.363 . S
N892 C894 1.356 . S
N892 H904 0.984 . S
N892 H905 0.985 . S
N893 C895 1.356 . S
N893 H898 0.984 . S
N893 H899 0.985 . S
C894 C888 1.379 . S
C894 C891 1.363 . S
C894 N892 1.356 . S
C895 C889 1.363 . S
C895 C890 1.379 . S
C895 N893 1.356 . S
N896 C888 1.356 . S
N896 H902 0.984 . S
N896 H903 0.984 . S
N897 C890 1.356 . S
N897 H900 0.984 . S
N897 H901 0.985 . S
H898 N893 0.984 . S
H899 N893 0.985 . S
H900 N897 0.984 . S
H901 N897 0.985 . S
H902 N896 0.984 . S
H903 N896 0.984 . S
H904 N892 0.984 . S
H905 N892 0.985 . S
C906 C907 1.363 . S
C906 C912 1.379 . S
C906 N914 1.356 . S
C907 C906 1.363 . S
C907 C913 1.363 . S
C908 C909 1.363 . S
C908 C913 1.379 . S
C908 N915 1.356 . S
C909 C908 1.363 . S
C909 C912 1.363 . S
N910 C912 1.356 . S
N910 H922 0.984 . S
N910 H923 0.985 . S
N911 C913 1.356 . S
N911 H916 0.984 . S
N911 H917 0.985 . S
C912 C906 1.379 . S
C912 C909 1.363 . S
C912 N910 1.356 . S
C913 C907 1.363 . S
C913 C908 1.379 . S
C913 N911 1.356 . S
N914 C906 1.356 . S
N914 H920 0.984 . S
N914 H921 0.984 . S
N915 C908 1.356 . S
N915 H918 0.984 . S
N915 H919 0.985 . S
H916 N911 0.984 . S
H917 N911 0.985 . S
H918 N915 0.984 . S
H919 N915 0.985 . S
H920 N914 0.984 . S
H921 N914 0.984 . S
H922 N910 0.984 . S
H923 N910 0.985 . S
C924 C925 1.363 . S
C924 C930 1.379 . S
C924 N932 1.356 . S
C925 C924 1.363 . S
C925 C931 1.363 . S
C926 C927 1.363 . S
C926 C931 1.379 . S
C926 N933 1.356 . S
C927 C926 1.363 . S
C927 C930 1.363 . S
N928 C930 1.356 . S
N928 H940 0.984 . S
N928 H941 0.985 . S
N929 C931 1.356 . S
N929 H934 0.984 . S
N929 H935 0.985 . S
C930 C924 1.379 . S
C930 C927 1.363 . S
C930 N928 1.356 . S
C931 C925 1.363 . S
C931 C926 1.379 . S
C931 N929 1.356 . S
N932 C924 1.356 . S
N932 H938 0.984 . S
N932 H939 0.984 . S
N933 C926 1.356 . S
N933 H936 0.984 . S
N933 H937 0.985 . S
H934 N929 0.984 . S
H935 N929 0.985 . S
H936 N933 0.984 . S
H937 N933 0.985 . S
H938 N932 0.984 . S
H939 N932 0.984 . S
H940 N928 0.984 . S
H941 N928 0.985 . S
C942 C943 1.363 . S
C942 C948 1.379 . S
C942 N950 1.356 . S
C943 C942 1.363 . S
C943 C949 1.363 . S
C944 C945 1.363 . S
C944 C949 1.379 . S
C944 N951 1.356 . S
C945 C944 1.363 . S
C945 C948 1.363 . S
N946 C948 1.356 . S
N946 H958 0.984 . S
N946 H959 0.985 . S
N947 C949 1.356 . S
N947 H952 0.984 . S
N947 H953 0.985 . S
C948 C942 1.379 . S
C948 C945 1.363 . S
C948 N946 1.356 . S
C949 C943 1.363 . S
C949 C944 1.379 . S
C949 N947 1.356 . S
N950 C942 1.356 . S
N950 H956 0.984 . S
N950 H957 0.984 . S
N951 C944 1.356 . S
N951 H954 0.984 . S
N951 H955 0.985 . S
H952 N947 0.984 . S
H953 N947 0.985 . S
H954 N951 0.984 . S
H955 N951 0.985 . S
H956 N950 0.984 . S
H957 N950 0.984 . S
H958 N946 0.984 . S
H959 N946 0.985 . S
C960 C961 1.363 . S
C960 C966 1.379 . S
C960 N968 1.356 . S
C961 C960 1.363 . S
C961 C967 1.363 . S
C962 C963 1.363 . S
C962 C967 1.379 . S
C962 N969 1.356 . S
C963 C962 1.363 . S
C963 C966 1.363 . S
N964 C966 1.356 . S
N964 H976 0.984 . S
N964 H977 0.985 . S
N965 C967 1.356 . S
N965 H970 0.984 . S
N965 H971 0.985 . S
C966 C960 1.379 . S
C966 C963 1.363 . S
C966 N964 1.356 . S
C967 C961 1.363 . S
C967 C962 1.379 . S
C967 N965 1.356 . S
N968 C960 1.356 . S
N968 H974 0.984 . S
N968 H975 0.984 . S
N969 C962 1.356 . S
N969 H972 0.984 . S
N969 H973 0.985 . S
H970 N965 0.984 . S
H971 N965 0.985 . S
H972 N969 0.984 . S
H973 N969 0.985 . S
H974 N968 0.984 . S
H975 N968 0.984 . S
H976 N964 0.984 . S
H977 N964 0.985 . S
C978 C979 1.363 . S
C978 C984 1.379 . S
C978 N986 1.356 . S
C979 C978 1.363 . S
C979 C985 1.363 . S
C980 C981 1.363 . S
C980 C985 1.379 . S
C980 N987 1.356 . S
C981 C980 1.363 . S
C981 C984 1.363 . S
N982 C984 1.356 . S
N982 H994 0.984 . S
N982 H995 0.985 . S
N983 C985 1.356 . S
N983 H988 0.984 . S
N983 H989 0.985 . S
C984 C978 1.379 . S
C984 C981 1.363 . S
C984 N982 1.356 . S
C985 C979 1.363 . S
C985 C980 1.379 . S
C985 N983 1.356 . S
N986 C978 1.356 . S
N986 H992 0.984 . S
N986 H993 0.984 . S
N987 C980 1.356 . S
N987 H990 0.984 . S
N987 H991 0.985 . S
H988 N983 0.984 . S
H989 N983 0.985 . S
H990 N987 0.984 . S
H991 N987 0.985 . S
H992 N986 0.984 . S
H993 N986 0.984 . S
H994 N982 0.984 . S
H995 N982 0.985 . S
C996 C997 1.363 . S
C996 C1002 1.379 . S
C996 N1004 1.356 . S
C997 C996 1.363 . S
C997 C1003 1.363 . S
C998 C999 1.363 . S
C998 C1003 1.379 . S
C998 N1005 1.356 . S
C999 C998 1.363 . S
C999 C1002 1.363 . S
N1000 C1002 1.356 . S
N1000 H1012 0.984 . S
N1000 H1013 0.985 . S
N1001 C1003 1.356 . S
N1001 H1006 0.984 . S
N1001 H1007 0.985 . S
C1002 C996 1.379 . S
C1002 C999 1.363 . S
C1002 N1000 1.356 . S
C1003 C997 1.363 . S
C1003 C998 1.379 . S
C1003 N1001 1.356 . S
N1004 C996 1.356 . S
N1004 H1010 0.984 . S
N1004 H1011 0.984 . S
N1005 C998 1.356 . S
N1005 H1008 0.984 . S
N1005 H1009 0.985 . S
H1006 N1001 0.984 . S
H1007 N1001 0.985 . S
H1008 N1005 0.984 . S
H1009 N1005 0.985 . S
H1010 N1004 0.984 . S
H1011 N1004 0.984 . S
H1012 N1000 0.984 . S
H1013 N1000 0.985 . S
C1014 C1015 1.363 . S
C1014 C1020 1.379 . S
C1014 N1022 1.356 . S
C1015 C1014 1.363 . S
C1015 C1021 1.363 . S
C1016 C1017 1.363 . S
C1016 C1021 1.379 . S
C1016 N1023 1.356 . S
C1017 C1016 1.363 . S
C1017 C1020 1.363 . S
N1018 C1020 1.356 . S
N1018 H1030 0.984 . S
N1018 H1031 0.985 . S
N1019 C1021 1.356 . S
N1019 H1024 0.984 . S
N1019 H1025 0.985 . S
C1020 C1014 1.379 . S
C1020 C1017 1.363 . S
C1020 N1018 1.356 . S
C1021 C1015 1.363 . S
C1021 C1016 1.379 . S
C1021 N1019 1.356 . S
N1022 C1014 1.356 . S
N1022 H1028 0.984 . S
N1022 H1029 0.984 . S
N1023 C1016 1.356 . S
N1023 H1026 0.984 . S
N1023 H1027 0.985 . S
H1024 N1019 0.984 . S
H1025 N1019 0.985 . S
H1026 N1023 0.984 . S
H1027 N1023 0.985 . S
H1028 N1022 0.984 . S
H1029 N1022 0.984 . S
H1030 N1018 0.984 . S
H1031 N1018 0.985 . S
C1032 C1033 1.363 . S
C1032 C1038 1.379 . S
C1032 N1040 1.356 . S
C1033 C1032 1.363 . S
C1033 C1039 1.363 . S
C1034 C1035 1.363 . S
C1034 C1039 1.379 . S
C1034 N1041 1.356 . S
C1035 C1034 1.363 . S
C1035 C1038 1.363 . S
N1036 C1038 1.356 . S
N1036 H1048 0.984 . S
N1036 H1049 0.985 . S
N1037 C1039 1.356 . S
N1037 H1042 0.984 . S
N1037 H1043 0.985 . S
C1038 C1032 1.379 . S
C1038 C1035 1.363 . S
C1038 N1036 1.356 . S
C1039 C1033 1.363 . S
C1039 C1034 1.379 . S
C1039 N1037 1.356 . S
N1040 C1032 1.356 . S
N1040 H1046 0.984 . S
N1040 H1047 0.984 . S
N1041 C1034 1.356 . S
N1041 H1044 0.984 . S
N1041 H1045 0.985 . S
H1042 N1037 0.984 . S
H1043 N1037 0.985 . S
H1044 N1041 0.984 . S
H1045 N1041 0.985 . S
H1046 N1040 0.984 . S
H1047 N1040 0.984 . S
H1048 N1036 0.984 . S
H1049 N1036 0.985 . S
C1050 C1051 1.363 . S
C1050 C1056 1.379 . S
C1050 N1058 1.356 . S
C1051 C1050 1.363 . S
C1051 C1057 1.363 . S
C1052 C1053 1.363 . S
C1052 C1057 1.379 . S
C1052 N1059 1.356 . S
C1053 C1052 1.363 . S
C1053 C1056 1.363 . S
N1054 C1056 1.356 . S
N1054 H1066 0.984 . S
N1054 H1067 0.985 . S
N1055 C1057 1.356 . S
N1055 H1060 0.984 . S
N1055 H1061 0.985 . S
C1056 C1050 1.379 . S
C1056 C1053 1.363 . S
C1056 N1054 1.356 . S
C1057 C1051 1.363 . S
C1057 C1052 1.379 . S
C1057 N1055 1.356 . S
N1058 C1050 1.356 . S
N1058 H1064 0.984 . S
N1058 H1065 0.984 . S
N1059 C1052 1.356 . S
N1059 H1062 0.984 . S
N1059 H1063 0.985 . S
H1060 N1055 0.984 . S
H1061 N1055 0.985 . S
H1062 N1059 0.984 . S
H1063 N1059 0.985 . S
H1064 N1058 0.984 . S
H1065 N1058 0.984 . S
H1066 N1054 0.984 . S
H1067 N1054 0.985 . S
C1068 C1069 1.363 . S
C1068 C1074 1.379 . S
C1068 N1076 1.356 . S
C1069 C1068 1.363 . S
C1069 C1075 1.363 . S
C1070 C1071 1.363 . S
C1070 C1075 1.379 . S
C1070 N1077 1.356 . S
C1071 C1070 1.363 . S
C1071 C1074 1.363 . S
N1072 C1074 1.356 . S
N1072 H1084 0.984 . S
N1072 H1085 0.985 . S
N1073 C1075 1.356 . S
N1073 H1078 0.984 . S
N1073 H1079 0.985 . S
C1074 C1068 1.379 . S
C1074 C1071 1.363 . S
C1074 N1072 1.356 . S
C1075 C1069 1.363 . S
C1075 C1070 1.379 . S
C1075 N1073 1.356 . S
N1076 C1068 1.356 . S
N1076 H1082 0.984 . S
N1076 H1083 0.984 . S
N1077 C1070 1.356 . S
N1077 H1080 0.984 . S
N1077 H1081 0.985 . S
H1078 N1073 0.984 . S
H1079 N1073 0.985 . S
H1080 N1077 0.984 . S
H1081 N1077 0.985 . S
H1082 N1076 0.984 . S
H1083 N1076 0.984 . S
H1084 N1072 0.984 . S
H1085 N1072 0.985 . S
C1086 C1087 1.363 . S
C1086 C1092 1.379 . S
C1086 N1094 1.356 . S
C1087 C1086 1.363 . S
C1087 C1093 1.363 . S
C1088 C1089 1.363 . S
C1088 C1093 1.379 . S
C1088 N1095 1.356 . S
C1089 C1088 1.363 . S
C1089 C1092 1.363 . S
N1090 C1092 1.356 . S
N1090 H1102 0.984 . S
N1090 H1103 0.985 . S
N1091 C1093 1.356 . S
N1091 H1096 0.984 . S
N1091 H1097 0.985 . S
C1092 C1086 1.379 . S
C1092 C1089 1.363 . S
C1092 N1090 1.356 . S
C1093 C1087 1.363 . S
C1093 C1088 1.379 . S
C1093 N1091 1.356 . S
N1094 C1086 1.356 . S
N1094 H1100 0.984 . S
N1094 H1101 0.984 . S
N1095 C1088 1.356 . S
N1095 H1098 0.984 . S
N1095 H1099 0.985 . S
H1096 N1091 0.984 . S
H1097 N1091 0.985 . S
H1098 N1095 0.984 . S
H1099 N1095 0.985 . S
H1100 N1094 0.984 . S
H1101 N1094 0.984 . S
H1102 N1090 0.984 . S
H1103 N1090 0.985 . S
C1104 C1105 1.363 . S
C1104 C1110 1.379 . S
C1104 N1112 1.356 . S
C1105 C1104 1.363 . S
C1105 C1111 1.363 . S
C1106 C1107 1.363 . S
C1106 C1111 1.379 . S
C1106 N1113 1.356 . S
C1107 C1106 1.363 . S
C1107 C1110 1.363 . S
N1108 C1110 1.356 . S
N1108 H1120 0.984 . S
N1108 H1121 0.985 . S
N1109 C1111 1.356 . S
N1109 H1114 0.984 . S
N1109 H1115 0.985 . S
C1110 C1104 1.379 . S
C1110 C1107 1.363 . S
C1110 N1108 1.356 . S
C1111 C1105 1.363 . S
C1111 C1106 1.379 . S
C1111 N1109 1.356 . S
N1112 C1104 1.356 . S
N1112 H1118 0.984 . S
N1112 H1119 0.984 . S
N1113 C1106 1.356 . S
N1113 H1116 0.984 . S
N1113 H1117 0.985 . S
H1114 N1109 0.984 . S
H1115 N1109 0.985 . S
H1116 N1113 0.984 . S
H1117 N1113 0.985 . S
H1118 N1112 0.984 . S
H1119 N1112 0.984 . S
H1120 N1108 0.984 . S
H1121 N1108 0.985 . S
C1122 C1123 1.363 . S
C1122 C1128 1.379 . S
C1122 N1130 1.356 . S
C1123 C1122 1.363 . S
C1123 C1129 1.363 . S
C1124 C1125 1.363 . S
C1124 C1129 1.379 . S
C1124 N1131 1.356 . S
C1125 C1124 1.363 . S
C1125 C1128 1.363 . S
N1126 C1128 1.356 . S
N1126 H1138 0.984 . S
N1126 H1139 0.985 . S
N1127 C1129 1.356 . S
N1127 H1132 0.984 . S
N1127 H1133 0.985 . S
C1128 C1122 1.379 . S
C1128 C1125 1.363 . S
C1128 N1126 1.356 . S
C1129 C1123 1.363 . S
C1129 C1124 1.379 . S
C1129 N1127 1.356 . S
N1130 C1122 1.356 . S
N1130 H1136 0.984 . S
N1130 H1137 0.984 . S
N1131 C1124 1.356 . S
N1131 H1134 0.984 . S
N1131 H1135 0.985 . S
H1132 N1127 0.984 . S
H1133 N1127 0.985 . S
H1134 N1131 0.984 . S
H1135 N1131 0.985 . S
H1136 N1130 0.984 . S
H1137 N1130 0.984 . S
H1138 N1126 0.984 . S
H1139 N1126 0.985 . S
C1140 C1141 1.363 . S
C1140 C1146 1.379 . S
C1140 N1148 1.356 . S
C1141 C1140 1.363 . S
C1141 C1147 1.363 . S
C1142 C1143 1.363 . S
C1142 C1147 1.379 . S
C1142 N1149 1.356 . S
C1143 C1142 1.363 . S
C1143 C1146 1.363 . S
N1144 C1146 1.356 . S
N1144 H1156 0.984 . S
N1144 H1157 0.985 . S
N1145 C1147 1.356 . S
N1145 H1150 0.984 . S
N1145 H1151 0.985 . S
C1146 C1140 1.379 . S
C1146 C1143 1.363 . S
C1146 N1144 1.356 . S
C1147 C1141 1.363 . S
C1147 C1142 1.379 . S
C1147 N1145 1.356 . S
N1148 C1140 1.356 . S
N1148 H1154 0.984 . S
N1148 H1155 0.984 . S
N1149 C1142 1.356 . S
N1149 H1152 0.984 . S
N1149 H1153 0.985 . S
H1150 N1145 0.984 . S
H1151 N1145 0.985 . S
H1152 N1149 0.984 . S
H1153 N1149 0.985 . S
H1154 N1148 0.984 . S
H1155 N1148 0.984 . S
H1156 N1144 0.984 . S
H1157 N1144 0.985 . S
C1158 C1159 1.363 . S
C1158 C1164 1.379 . S
C1158 N1166 1.356 . S
C1159 C1158 1.363 . S
C1159 C1165 1.363 . S
C1160 C1161 1.363 . S
C1160 C1165 1.379 . S
C1160 N1167 1.356 . S
C1161 C1160 1.363 . S
C1161 C1164 1.363 . S
N1162 C1164 1.356 . S
N1162 H1174 0.984 . S
N1162 H1175 0.985 . S
N1163 C1165 1.356 . S
N1163 H1168 0.984 . S
N1163 H1169 0.985 . S
C1164 C1158 1.379 . S
C1164 C1161 1.363 . S
C1164 N1162 1.356 . S
C1165 C1159 1.363 . S
C1165 C1160 1.379 . S
C1165 N1163 1.356 . S
N1166 C1158 1.356 . S
N1166 H1172 0.984 . S
N1166 H1173 0.984 . S
N1167 C1160 1.356 . S
N1167 H1170 0.984 . S
N1167 H1171 0.985 . S
H1168 N1163 0.984 . S
H1169 N1163 0.985 . S
H1170 N1167 0.984 . S
H1171 N1167 0.985 . S
H1172 N1166 0.984 . S
H1173 N1166 0.984 . S
H1174 N1162 0.984 . S
H1175 N1162 0.985 . S
C313 C5 1.551 . S
C315 C96 1.551 . S
C331 C109 1.551 . S
C333 C16 1.551 . S
C349 C31 1.551 . S
C351 C120 1.551 . S
C367 C44 1.551 . S
C369 C133 1.551 . S
C385 C148 1.551 . S
C387 C55 1.551 . S
C403 C70 1.551 . S
C405 C81 1.551 . S
C421 C161 1.551 . S
C423 C252 1.551 . S
C439 C172 1.551 . S
C441 C265 1.551 . S
C457 C276 1.551 . S
C459 C185 1.551 . S
C475 C198 1.551 . S
C477 C291 1.551 . S
C493 C211 1.551 . S
C495 C302 1.551 . S
C511 C237 1.551 . S
C513 C224 1.551 . S
C529 C4 1.581 . S
C531 C108 1.581 . S
C547 C127 1.581 . S
C549 C23 1.581 . S
C565 C140 1.581 . S
C567 C30 1.581 . S
C583 C43 1.581 . S
C585 C147 1.581 . S
C601 C62 1.581 . S
C603 C88 1.581 . S
C619 C69 1.581 . S
C621 C95 1.581 . S
C637 C264 1.581 . S
C639 C160 1.581 . S
C655 C179 1.581 . S
C657 C283 1.581 . S
C673 C290 1.581 . S
C675 C192 1.581 . S
C691 C309 1.581 . S
C693 C205 1.581 . S
C709 C244 1.581 . S
C711 C218 1.581 . S
C727 C231 1.581 . S
C729 C251 1.581 . S
C745 C10 1.662 . S
C747 C199 1.662 . S
C763 C212 1.662 . S
C765 C17 1.662 . S
C781 C225 1.662 . S
C783 C36 1.662 . S
C799 C49 1.662 . S
C801 C166 1.662 . S
C817 C56 1.662 . S
C819 C173 1.662 . S
C835 C186 1.662 . S
C837 C75 1.662 . S
C853 C277 1.662 . S
C855 C82 1.662 . S
C871 C296 1.662 . S
C873 C101 1.662 . S
C889 C303 1.662 . S
C891 C114 1.662 . S
C907 C238 1.662 . S
C909 C121 1.662 . S
C925 C134 1.662 . S
C927 C257 1.662 . S
C943 C153 1.662 . S
C945 C270 1.662 . S
C961 C3 1.595 . S
C963 C135 1.595 . S
C979 C146 1.595 . S
C981 C18 1.595 . S
C997 C83 1.595 . S
C999 C29 1.595 . S
C1015 C42 1.595 . S
C1017 C94 1.595 . S
C1033 C57 1.595 . S
C1035 C107 1.595 . S
C1051 C68 1.595 . S
C1053 C122 1.595 . S
C1069 C159 1.595 . S
C1071 C289 1.595 . S
C1087 C174 1.595 . S
C1089 C304 1.595 . S
C1105 C187 1.595 . S
C1107 C239 1.595 . S
C1123 C250 1.595 . S
C1125 C200 1.595 . S
C1141 C213 1.595 . S
C1143 C263 1.595 . S
C1159 C226 1.595 . S
C1161 C278 1.595 . S
