# Generated by pormake.
# Topology uol, (4)-cn, num edge types: 1
# Building blocks:
#     Node 0, Type 0, BuildingBlock: KUFVIS_clean_sbu_0, # of connection points: 4
#     Node 1, Type 0, BuildingBlock: KUFVIS_clean_sbu_0, # of connection points: 4
#     Node 2, Type 0, BuildingBlock: KUFVIS_clean_sbu_0, # of connection points: 4
#     Node 3, Type 0, BuildingBlock: KUFVIS_clean_sbu_0, # of connection points: 4
#     Node 4, Type 0, BuildingBlock: KUFVIS_clean_sbu_0, # of connection points: 4
#     Node 5, Type 0, BuildingBlock: KUFVIS_clean_sbu_0, # of connection points: 4
#     Node 6, Type 0, BuildingBlock: KUFVIS_clean_sbu_0, # of connection points: 4
#     Node 7, Type 0, BuildingBlock: KUFVIS_clean_sbu_0, # of connection points: 4
#     Node 8, Type 0, BuildingBlock: KUFVIS_clean_sbu_0, # of connection points: 4
#     Node 9, Type 0, BuildingBlock: KUFVIS_clean_sbu_0, # of connection points: 4
#     Node 10, Type 0, BuildingBlock: KUFVIS_clean_sbu_0, # of connection points: 4
#     Node 11, Type 0, BuildingBlock: KUFVIS_clean_sbu_0, # of connection points: 4
#     Edge 12, Type (0, 0), BuildingBlock: ZUJKAS_clean_linker_0, # of connection points: 2
#     Edge 13, Type (0, 0), BuildingBlock: ZUJKAS_clean_linker_0, # of connection points: 2
#     Edge 14, Type (0, 0), BuildingBlock: ZUJKAS_clean_linker_0, # of connection points: 2
#     Edge 15, Type (0, 0), BuildingBlock: ZUJKAS_clean_linker_0, # of connection points: 2
#     Edge 16, Type (0, 0), BuildingBlock: ZUJKAS_clean_linker_0, # of connection points: 2
#     Edge 17, Type (0, 0), BuildingBlock: ZUJKAS_clean_linker_0, # of connection points: 2
#     Edge 18, Type (0, 0), BuildingBlock: ZUJKAS_clean_linker_0, # of connection points: 2
#     Edge 19, Type (0, 0), BuildingBlock: ZUJKAS_clean_linker_0, # of connection points: 2
#     Edge 20, Type (0, 0), BuildingBlock: ZUJKAS_clean_linker_0, # of connection points: 2
#     Edge 21, Type (0, 0), BuildingBlock: ZUJKAS_clean_linker_0, # of connection points: 2
#     Edge 22, Type (0, 0), BuildingBlock: ZUJKAS_clean_linker_0, # of connection points: 2
#     Edge 23, Type (0, 0), BuildingBlock: ZUJKAS_clean_linker_0, # of connection points: 2
#     Edge 24, Type (0, 0), BuildingBlock: ZUJKAS_clean_linker_0, # of connection points: 2
#     Edge 25, Type (0, 0), BuildingBlock: ZUJKAS_clean_linker_0, # of connection points: 2
#     Edge 26, Type (0, 0), BuildingBlock: ZUJKAS_clean_linker_0, # of connection points: 2
#     Edge 27, Type (0, 0), BuildingBlock: ZUJKAS_clean_linker_0, # of connection points: 2
#     Edge 28, Type (0, 0), BuildingBlock: ZUJKAS_clean_linker_0, # of connection points: 2
#     Edge 29, Type (0, 0), BuildingBlock: ZUJKAS_clean_linker_0, # of connection points: 2
#     Edge 30, Type (0, 0), BuildingBlock: ZUJKAS_clean_linker_0, # of connection points: 2
#     Edge 31, Type (0, 0), BuildingBlock: ZUJKAS_clean_linker_0, # of connection points: 2
#     Edge 32, Type (0, 0), BuildingBlock: ZUJKAS_clean_linker_0, # of connection points: 2
#     Edge 33, Type (0, 0), BuildingBlock: ZUJKAS_clean_linker_0, # of connection points: 2
#     Edge 34, Type (0, 0), BuildingBlock: ZUJKAS_clean_linker_0, # of connection points: 2
#     Edge 35, Type (0, 0), BuildingBlock: ZUJKAS_clean_linker_0, # of connection points: 2
# Relax obj value: 0.144
# Max RMSD: 0.197
# Mean RMSD: 0.197
data_MOF--net-uol--node1-KUFVIS_clean_sbu_0--edge1-ZUJKAS_clean_linker_0
_symmetry_space_group_name_H-M    P1
_symmetry_Int_Tables_number       1
_symmetry_cell_setting            triclinic
loop_
_symmetry_equiv_pos_as_xyz
'x, y, z'
_cell_length_a     41.55133
_cell_length_b     41.553455
_cell_length_c     87.803021
_cell_angle_alpha  89.986431
_cell_angle_beta   89.996651
_cell_angle_gamma 120.05062
loop_
_atom_site_label
_atom_site_type_symbol
_atom_site_fract_x
_atom_site_fract_y
_atom_site_fract_z
_atom_type_partial_charge
Mn0 Mn 0.11258 0.32794 0.11242 0.0
Mn1 Mn 0.13195 0.37537 0.14549 0.0
C2 C 0.14437 0.31689 0.13128 0.0
C3 C 0.12883 0.32523 0.08724 0.0
C4 C 0.05592 0.30992 0.13785 0.0
O5 O 0.10313 0.37018 0.10752 0.0
O6 O 0.12131 0.40251 0.12944 0.0
C7 C 0.20283 0.44149 0.13636 0.0
N8 N 0.18354 0.41209 0.1459 0.0
C9 C 0.23828 0.42889 0.16082 0.0
C10 C 0.25871 0.45948 0.15121 0.0
C11 C 0.24091 0.46572 0.1389 0.0
C12 C 0.20045 0.40562 0.15768 0.0
H13 H 0.18925 0.44636 0.12688 0.0
C14 C 0.10955 0.39813 0.11569 0.0
O15 O 0.09459 0.30562 0.09184 0.0
O16 O 0.15321 0.34664 0.0972 0.0
N17 N 0.14307 0.35273 0.1621 0.0
C18 C 0.11952 0.32165 0.17013 0.0
C19 C 0.13294 0.31145 0.18283 0.0
C20 C 0.17027 0.33353 0.18724 0.0
C21 C 0.19393 0.36552 0.17886 0.0
C22 C 0.17892 0.37442 0.16637 0.0
H23 H 0.0907 0.30478 0.1669 0.0
O24 O 0.12793 0.29287 0.12046 0.0
O25 O 0.14277 0.34731 0.13046 0.0
O26 O 0.06461 0.30194 0.12501 0.0
O27 O 0.0786 0.33738 0.14608 0.0
C28 C 0.23179 0.38895 0.1824 0.0
C29 C 0.25401 0.42046 0.17333 0.0
H30 H 0.28808 0.47826 0.15314 0.0
H31 H 0.25652 0.48919 0.1314 0.0
H32 H 0.11452 0.28675 0.18926 0.0
H33 H 0.18039 0.32571 0.19713 0.0
H34 H 0.24417 0.38294 0.19205 0.0
H35 H 0.28317 0.43804 0.17607 0.0
Mn36 Mn 0.7784 0.10288 0.27512 0.0
Mn37 Mn 0.75487 0.12276 0.30922 0.0
C38 C 0.82395 0.13617 0.29282 0.0
C39 C 0.79396 0.11847 0.24963 0.0
C40 C 0.74442 0.04705 0.30116 0.0
O41 O 0.72574 0.09239 0.27173 0.0
O42 O 0.71466 0.11109 0.29422 0.0
C43 C 0.75713 0.19286 0.30083 0.0
N44 N 0.76891 0.17412 0.30985 0.0
C45 C 0.80815 0.22929 0.32433 0.0
C46 C 0.79625 0.24915 0.31526 0.0
C47 C 0.7707 0.23086 0.30344 0.0
C48 C 0.7936 0.19147 0.32121 0.0
H49 H 0.73757 0.17891 0.29171 0.0
C50 C 0.70529 0.09875 0.28061 0.0
O51 O 0.78018 0.08439 0.25432 0.0
O52 O 0.79756 0.14294 0.25966 0.0
N53 N 0.79109 0.1348 0.32492 0.0
C54 C 0.80064 0.11193 0.3323 0.0
C55 C 0.82632 0.12604 0.34433 0.0
C56 C 0.8416 0.16336 0.34875 0.0
C57 C 0.83101 0.18624 0.34111 0.0
C58 C 0.80504 0.17054 0.3293 0.0
H59 H 0.78887 0.08317 0.32901 0.0
O60 O 0.83016 0.11943 0.28171 0.0
O61 O 0.7915 0.13375 0.29305 0.0
O62 O 0.75909 0.05541 0.28792 0.0
O63 O 0.74044 0.06976 0.30968 0.0
C64 C 0.8456 0.22413 0.34461 0.0
C65 C 0.83426 0.24567 0.33619 0.0
H66 H 0.80674 0.27849 0.31721 0.0
H67 H 0.76152 0.24603 0.29635 0.0
H68 H 0.83432 0.1082 0.35019 0.0
H69 H 0.86145 0.17416 0.35801 0.0
H70 H 0.86588 0.23708 0.35363 0.0
H71 H 0.846 0.27487 0.33887 0.0
Mn72 Mn 0.67902 0.7796 0.44144 0.0
Mn73 Mn 0.62948 0.75428 0.47404 0.0
C74 C 0.69142 0.82353 0.46001 0.0
C75 C 0.68359 0.79787 0.41609 0.0
C76 C 0.69251 0.73918 0.46745 0.0
O77 O 0.63524 0.72871 0.43649 0.0
O78 O 0.60137 0.7173 0.45786 0.0
C79 C 0.56676 0.764 0.46415 0.0
N80 N 0.59525 0.7723 0.47397 0.0
C81 C 0.5807 0.81217 0.48869 0.0
C82 C 0.55106 0.8039 0.47879 0.0
C83 C 0.54416 0.77981 0.46643 0.0
C84 C 0.60239 0.79575 0.48579 0.0
H85 H 0.56134 0.74547 0.45465 0.0
C86 C 0.60596 0.70898 0.4443 0.0
O87 O 0.70182 0.78215 0.42111 0.0
O88 O 0.66274 0.80258 0.42575 0.0
N89 N 0.65288 0.78758 0.49072 0.0
C90 C 0.68299 0.79325 0.49903 0.0
C91 C 0.69368 0.81669 0.5118 0.0
C92 C 0.67305 0.83363 0.51601 0.0
C93 C 0.64208 0.82727 0.50733 0.0
C94 C 0.63265 0.80351 0.49476 0.0
H95 H 0.69869 0.77994 0.49597 0.0
O96 O 0.7156 0.82968 0.44941 0.0
O97 O 0.66007 0.79237 0.45909 0.0
O98 O 0.70234 0.75597 0.45465 0.0
O99 O 0.66483 0.73565 0.47518 0.0
C100 C 0.62013 0.84348 0.51067 0.0
C101 C 0.58965 0.83618 0.50128 0.0
H102 H 0.53351 0.81598 0.48053 0.0
H103 H 0.52142 0.77339 0.45871 0.0
H104 H 0.7176 0.82147 0.51845 0.0
H105 H 0.68118 0.85136 0.52597 0.0
H106 H 0.62652 0.86174 0.52038 0.0
H107 H 0.57325 0.84913 0.50387 0.0
Mn108 Mn 0.88699 0.66909 0.6113 0.0
Mn109 Mn 0.86541 0.62158 0.6444 0.0
C110 C 0.85644 0.68213 0.63005 0.0
C111 C 0.87165 0.67254 0.58607 0.0
C112 C 0.94274 0.68503 0.63691 0.0
O113 O 0.89406 0.62534 0.60648 0.0
O114 O 0.87485 0.59332 0.62844 0.0
C115 C 0.79338 0.55722 0.6351 0.0
N116 N 0.81337 0.58635 0.64467 0.0
C117 C 0.75888 0.57156 0.65943 0.0
C118 C 0.73773 0.54125 0.64979 0.0
C119 C 0.75505 0.53414 0.63754 0.0
C120 C 0.79692 0.59368 0.65639 0.0
H121 H 0.80659 0.55168 0.62567 0.0
C122 C 0.88649 0.59712 0.61468 0.0
O123 O 0.90593 0.69093 0.59073 0.0
O124 O 0.84668 0.65198 0.59602 0.0
N125 N 0.85525 0.64516 0.66093 0.0
C126 C 0.8795 0.67583 0.66901 0.0
C127 C 0.86662 0.68676 0.68166 0.0
C128 C 0.82911 0.66581 0.68598 0.0
C129 C 0.80472 0.63423 0.67755 0.0
C130 C 0.81919 0.62456 0.6651 0.0
H131 H 0.90845 0.69182 0.66584 0.0
O132 O 0.8738 0.70585 0.61923 0.0
O133 O 0.85639 0.65083 0.62929 0.0
O134 O 0.93486 0.69331 0.62396 0.0
O135 O 0.91918 0.65807 0.64514 0.0
C136 C 0.76663 0.61194 0.681 0.0
C137 C 0.74368 0.58079 0.67188 0.0
H138 H 0.70817 0.52335 0.65164 0.0
H139 H 0.7389 0.51089 0.63002 0.0
H140 H 0.88561 0.71114 0.68813 0.0
H141 H 0.81942 0.67416 0.69584 0.0
H142 H 0.75464 0.61857 0.69061 0.0
H143 H 0.71437 0.5641 0.67456 0.0
Mn144 Mn 0.21455 0.89337 0.77491 0.0
Mn145 Mn 0.2352 0.87299 0.80947 0.0
C146 C 0.16786 0.86297 0.7925 0.0
C147 C 0.19987 0.87697 0.74944 0.0
C148 C 0.25078 0.95007 0.80042 0.0
O149 O 0.26624 0.90074 0.77208 0.0
O150 O 0.27476 0.88059 0.79471 0.0
C151 C 0.22725 0.79974 0.80234 0.0
N152 N 0.21742 0.82085 0.81085 0.0
C153 C 0.17484 0.76782 0.82575 0.0
C154 C 0.1847 0.74554 0.81721 0.0
C155 C 0.21096 0.76157 0.80544 0.0
C156 C 0.19209 0.8057 0.82217 0.0
H157 H 0.24733 0.81194 0.79325 0.0
C158 C 0.28501 0.8924 0.78109 0.0
O159 O 0.2148 0.91141 0.75379 0.0
O160 O 0.19427 0.85252 0.75982 0.0
N161 N 0.19934 0.86468 0.82492 0.0
C162 C 0.19195 0.88975 0.83174 0.0
C163 C 0.16585 0.87806 0.84362 0.0
C164 C 0.14789 0.84085 0.84846 0.0
C165 C 0.15627 0.81567 0.84141 0.0
C166 C 0.18279 0.829 0.82972 0.0
H167 H 0.20574 0.91842 0.82811 0.0
O168 O 0.16321 0.87985 0.78102 0.0
O169 O 0.19938 0.86341 0.79311 0.0
O170 O 0.23563 0.94162 0.78728 0.0
O171 O 0.25349 0.92694 0.80918 0.0
C172 C 0.13896 0.77775 0.84536 0.0
C173 C 0.14816 0.75382 0.8375 0.0
H174 H 0.17209 0.71606 0.81952 0.0
H175 H 0.21858 0.74452 0.79875 0.0
H176 H 0.15955 0.89767 0.84901 0.0
H177 H 0.12767 0.83192 0.85758 0.0
H178 H 0.11819 0.76661 0.85429 0.0
H179 H 0.13434 0.72463 0.84052 0.0
Mn180 Mn 0.31928 0.2107 0.94333 0.0
Mn181 Mn 0.36947 0.23374 0.97574 0.0
C182 C 0.30533 0.16608 0.96174 0.0
C183 C 0.31366 0.19257 0.9179 0.0
C184 C 0.30819 0.25181 0.96978 0.0
O185 O 0.36415 0.26078 0.93838 0.0
O186 O 0.39807 0.27091 0.95964 0.0
C187 C 0.43019 0.22161 0.9651 0.0
N188 N 0.40228 0.21402 0.97515 0.0
C189 C 0.41522 0.17218 0.98927 0.0
C190 C 0.44426 0.1797 0.97913 0.0
C191 C 0.45167 0.20443 0.96697 0.0
C192 C 0.39463 0.18996 0.98678 0.0
H193 H 0.43599 0.24062 0.95574 0.0
C194 C 0.39365 0.27978 0.94615 0.0
O195 O 0.29668 0.20944 0.92306 0.0
O196 O 0.33389 0.18667 0.92747 0.0
N197 N 0.34579 0.20031 0.99237 0.0
C198 C 0.31653 0.19572 0.00101 0.0
C199 C 0.30557 0.17194 0.01368 0.0
C200 C 0.32509 0.15355 0.01746 0.0
C201 C 0.35524 0.15887 0.00846 0.0
C202 C 0.36501 0.18305 0.99601 0.0
H203 H 0.3017 0.21013 0.99828 0.0
O204 O 0.28135 0.1611 0.95122 0.0
O205 O 0.33745 0.19644 0.9608 0.0
O206 O 0.29788 0.23572 0.95684 0.0
O207 O 0.33548 0.25392 0.97737 0.0
C208 C 0.37606 0.14122 0.01136 0.0
C209 C 0.40583 0.14764 0.0017 0.0
H210 H 0.46094 0.16656 0.98055 0.0
H211 H 0.47394 0.21028 0.95907 0.0
H212 H 0.28229 0.16799 0.02059 0.0
H213 H 0.31679 0.13559 0.02735 0.0
H214 H 0.36934 0.12255 0.02096 0.0
H215 H 0.42138 0.13361 0.00396 0.0
Mn216 Mn 0.67318 0.88671 0.72228 0.0
Mn217 Mn 0.62358 0.86217 0.6897 0.0
C218 C 0.68503 0.85444 0.70391 0.0
C219 C 0.67784 0.87346 0.74769 0.0
C220 C 0.68757 0.94008 0.69587 0.0
O221 O 0.6299 0.89452 0.72715 0.0
O222 O 0.59636 0.87307 0.70564 0.0
C223 C 0.5599 0.79103 0.70023 0.0
N224 N 0.58838 0.81014 0.69027 0.0
C225 C 0.57264 0.75437 0.67629 0.0
C226 C 0.54299 0.73411 0.68635 0.0
C227 C 0.53669 0.75251 0.6984 0.0
C228 C 0.59495 0.79266 0.67874 0.0
H229 H 0.55498 0.80508 0.70951 0.0
C230 C 0.60112 0.88612 0.71919 0.0
O231 O 0.69629 0.90731 0.74253 0.0
O232 O 0.65662 0.84775 0.73814 0.0
N233 N 0.64607 0.85054 0.6732 0.0
C234 C 0.6761 0.87408 0.66462 0.0
C235 C 0.68612 0.8601 0.65206 0.0
C236 C 0.66492 0.82223 0.64832 0.0
C237 C 0.63401 0.79858 0.65726 0.0
C238 C 0.62522 0.81413 0.66958 0.0
H239 H 0.69225 0.9033 0.66733 0.0
O240 O 0.70932 0.8726 0.71445 0.0
O241 O 0.65381 0.85453 0.70477 0.0
O242 O 0.69682 0.93339 0.70886 0.0
O243 O 0.66 0.91581 0.68811 0.0
C244 C 0.61151 0.76021 0.6544 0.0
C245 C 0.58102 0.73808 0.66398 0.0
H246 H 0.52498 0.7044 0.68496 0.0
H247 H 0.51395 0.73704 0.70624 0.0
H248 H 0.71 0.87852 0.6452 0.0
H249 H 0.67253 0.81168 0.63852 0.0
H250 H 0.61747 0.74739 0.64491 0.0
H251 H 0.56417 0.70855 0.66176 0.0
Mn252 Mn 0.78075 0.67276 0.89107 0.0
Mn253 Mn 0.76824 0.63031 0.85706 0.0
C254 C 0.831 0.69037 0.87527 0.0
C255 C 0.7908 0.67265 0.91713 0.0
C256 C 0.74843 0.69033 0.86323 0.0
O257 O 0.72951 0.62733 0.89286 0.0
O258 O 0.72626 0.59802 0.87089 0.0
C259 C 0.777 0.56696 0.86686 0.0
N260 N 0.78761 0.59722 0.85778 0.0
C261 C 0.83367 0.58756 0.84534 0.0
C262 C 0.82307 0.55613 0.85448 0.0
C263 C 0.79468 0.54586 0.86531 0.0
C264 C 0.81502 0.60747 0.84738 0.0
H265 H 0.75526 0.55903 0.87523 0.0
C266 C 0.71317 0.59963 0.8839 0.0
O267 O 0.77562 0.69084 0.91152 0.0
O268 O 0.7993 0.65418 0.90764 0.0
N269 N 0.80666 0.65786 0.84249 0.0
C270 C 0.81445 0.68962 0.83494 0.0
C271 C 0.84265 0.70404 0.82388 0.0
C272 C 0.86223 0.68546 0.82056 0.0
C273 C 0.85337 0.65254 0.82832 0.0
C274 C 0.82485 0.63938 0.83917 0.0
H275 H 0.7994 0.70396 0.83738 0.0
O276 O 0.83249 0.71194 0.88625 0.0
O277 O 0.80047 0.6584 0.87416 0.0
O278 O 0.76048 0.69767 0.8769 0.0
O279 O 0.74864 0.66473 0.85521 0.0
C280 C 0.87205 0.63253 0.82587 0.0
C281 C 0.86231 0.60016 0.83441 0.0
H282 H 0.8367 0.53983 0.85334 0.0
H283 H 0.78647 0.52175 0.87246 0.0
H284 H 0.84929 0.72943 0.81792 0.0
H285 H 0.88407 0.69677 0.81207 0.0
H286 H 0.89421 0.642 0.81755 0.0
H287 H 0.87719 0.58529 0.83256 0.0
Mn288 Mn 0.09461 0.77935 0.05611 0.0
Mn289 Mn 0.11207 0.7526 0.02231 0.0
C290 C 0.12411 0.82273 0.03714 0.0
C291 C 0.11232 0.79824 0.08116 0.0
C292 C 0.03616 0.74012 0.03137 0.0
O293 O 0.08695 0.72807 0.0606 0.0
O294 O 0.10343 0.71481 0.03807 0.0
C295 C 0.18424 0.75871 0.03006 0.0
N296 N 0.16379 0.76839 0.02104 0.0
C297 C 0.21688 0.80677 0.00534 0.0
C298 C 0.23849 0.79705 0.01441 0.0
C299 C 0.22212 0.77302 0.02686 0.0
C300 C 0.17934 0.7918 0.00914 0.0
H301 H 0.17174 0.74021 0.03963 0.0
C302 C 0.09314 0.70708 0.05198 0.0
O303 O 0.07771 0.78279 0.077 0.0
O304 O 0.13628 0.80203 0.07083 0.0
N305 N 0.12127 0.78646 0.00591 0.0
C306 C 0.09673 0.79362 0.99849 0.0
C307 C 0.10869 0.81721 0.98574 0.0
C308 C 0.14556 0.83277 0.98066 0.0
C309 C 0.17027 0.82487 0.98844 0.0
C310 C 0.15672 0.80104 0.00102 0.0
H311 H 0.06823 0.78138 0.00223 0.0
O312 O 0.10808 0.82955 0.04835 0.0
O313 O 0.12347 0.79112 0.03761 0.0
O314 O 0.04562 0.75646 0.04426 0.0
O315 O 0.05849 0.73622 0.02257 0.0
C316 C 0.20778 0.83963 0.9842 0.0
C317 C 0.23114 0.83083 0.99272 0.0
H318 H 0.2677 0.80798 0.01195 0.0
H319 H 0.23864 0.76549 0.03395 0.0
H320 H 0.08947 0.82319 0.97979 0.0
H321 H 0.15453 0.85062 0.97073 0.0
H322 H 0.21903 0.85792 0.97445 0.0
H323 H 0.26003 0.84268 0.98944 0.0
Mn324 Mn 0.32064 0.1085 0.22246 0.0
Mn325 Mn 0.37129 0.13273 0.19013 0.0
C326 C 0.31273 0.1447 0.20465 0.0
C327 C 0.31634 0.12027 0.24802 0.0
C328 C 0.30358 0.0565 0.19535 0.0
O329 O 0.36094 0.09599 0.227 0.0
O330 O 0.39603 0.11834 0.2059 0.0
C331 C 0.43737 0.20086 0.20146 0.0
N332 N 0.40893 0.18392 0.1913 0.0
C333 C 0.42862 0.24147 0.17802 0.0
C334 C 0.45826 0.25952 0.18829 0.0
C335 C 0.46257 0.23913 0.20009 0.0
C336 C 0.40428 0.20333 0.18002 0.0
H337 H 0.44076 0.18528 0.21055 0.0
C338 C 0.38972 0.1036 0.21917 0.0
O339 O 0.29565 0.08726 0.24234 0.0
O340 O 0.33958 0.14607 0.23895 0.0
N341 N 0.35113 0.1476 0.1738 0.0
C342 C 0.32102 0.12603 0.16489 0.0
C343 C 0.31296 0.1421 0.15247 0.0
C344 C 0.33619 0.18001 0.14922 0.0
C345 C 0.36717 0.2016 0.15847 0.0
C346 C 0.37395 0.184 0.17063 0.0
H347 H 0.30333 0.09676 0.16721 0.0
O348 O 0.28775 0.12715 0.21503 0.0
O349 O 0.34247 0.14183 0.20538 0.0
O350 O 0.2945 0.06328 0.20835 0.0
O351 O 0.33238 0.08 0.18794 0.0
C352 C 0.39169 0.23985 0.15608 0.0
C353 C 0.42222 0.25983 0.16592 0.0
H354 H 0.47781 0.28902 0.18724 0.0
H355 H 0.48529 0.25288 0.20809 0.0
H356 H 0.28904 0.12526 0.14536 0.0
H357 H 0.33012 0.19216 0.13952 0.0
H358 H 0.38727 0.25423 0.14674 0.0
H359 H 0.44067 0.28929 0.16405 0.0
Mn360 Mn 0.20896 0.32808 0.38923 0.0
Mn361 Mn 0.22008 0.37359 0.35606 0.0
C362 C 0.15808 0.31265 0.3741 0.0
C363 C 0.19915 0.32568 0.41544 0.0
C364 C 0.2385 0.31189 0.36007 0.0
O365 O 0.26046 0.37283 0.3912 0.0
O366 O 0.26378 0.40328 0.36954 0.0
C367 C 0.21541 0.43768 0.36808 0.0
N368 N 0.20292 0.40823 0.35839 0.0
C369 C 0.15776 0.42172 0.34758 0.0
C370 C 0.17031 0.45235 0.35737 0.0
C371 C 0.19919 0.46029 0.36769 0.0
C372 C 0.17501 0.40021 0.34848 0.0
H373 H 0.23756 0.44383 0.37605 0.0
C374 C 0.27724 0.40059 0.3823 0.0
O375 O 0.21398 0.30775 0.40923 0.0
O376 O 0.1912 0.34547 0.40649 0.0
N377 N 0.18015 0.34877 0.34183 0.0
C378 C 0.17025 0.31736 0.3336 0.0
C379 C 0.1415 0.30532 0.32284 0.0
C380 C 0.12341 0.32581 0.32057 0.0
C381 C 0.13417 0.35814 0.32911 0.0
C382 C 0.16327 0.36898 0.33957 0.0
H383 H 0.1839 0.30138 0.33533 0.0
O384 O 0.15691 0.28979 0.38443 0.0
O385 O 0.18879 0.3445 0.37317 0.0
O386 O 0.22862 0.30433 0.37401 0.0
O387 O 0.23719 0.33768 0.35262 0.0
C388 C 0.11682 0.37973 0.32783 0.0
C389 C 0.12851 0.41141 0.3371 0.0
H390 H 0.15782 0.46981 0.35713 0.0
H391 H 0.20892 0.48378 0.37533 0.0
H392 H 0.13325 0.28025 0.31634 0.0
H393 H 0.10121 0.31637 0.31228 0.0
H394 H 0.09417 0.37198 0.31988 0.0
H395 H 0.11466 0.42754 0.33613 0.0
Mn396 Mn 0.88879 0.20971 0.55421 0.0
Mn397 Mn 0.86968 0.23572 0.52057 0.0
C398 C 0.85862 0.1659 0.53549 0.0
C399 C 0.8722 0.19168 0.57943 0.0
C400 C 0.94598 0.24815 0.52892 0.0
O401 O 0.89676 0.2611 0.55862 0.0
O402 O 0.87917 0.27393 0.53628 0.0
C403 C 0.79794 0.22972 0.52909 0.0
N404 N 0.81788 0.21987 0.51983 0.0
C405 C 0.76383 0.18095 0.50471 0.0
C406 C 0.74274 0.19084 0.51403 0.0
C407 C 0.75986 0.21523 0.52631 0.0
C408 C 0.80161 0.19609 0.5081 0.0
H409 H 0.811 0.24847 0.53854 0.0
C410 C 0.89014 0.28193 0.5501 0.0
O411 O 0.90661 0.20687 0.575 0.0
O412 O 0.84779 0.18751 0.56926 0.0
N413 N 0.85955 0.20155 0.50421 0.0
C414 C 0.88373 0.19452 0.49642 0.0
C415 C 0.87105 0.17074 0.48374 0.0
C416 C 0.83384 0.1549 0.47909 0.0
C417 C 0.80952 0.16272 0.48722 0.0
C418 C 0.82378 0.18676 0.49971 0.0
H419 H 0.91249 0.207 0.49982 0.0
O420 O 0.875 0.15934 0.54664 0.0
O421 O 0.85913 0.19747 0.53592 0.0
O422 O 0.93717 0.2322 0.54191 0.0
O423 O 0.92327 0.25202 0.52033 0.0
C424 C 0.77173 0.14772 0.48341 0.0
C425 C 0.74884 0.15659 0.49222 0.0
H426 H 0.71338 0.17979 0.51189 0.0
H427 H 0.74375 0.22289 0.53358 0.0
H428 H 0.88998 0.16486 0.47751 0.0
H429 H 0.82432 0.13695 0.4692 0.0
H430 H 0.75993 0.12923 0.47375 0.0
H431 H 0.71975 0.14459 0.48926 0.0
H432 H 0.0922 0.64954 0.03653 0.0
H433 H 0.08925 0.59388 0.04714 0.0
H434 H 0.08404 0.63085 0.0925 0.0
H435 H 0.0861 0.6863 0.08199 0.0
H436 H 0.13932 0.59153 0.06598 0.0
H437 H 0.00082 0.52374 0.09373 0.0
H438 H 0.01514 0.56119 0.08021 0.0
H439 H 0.03035 0.57096 0.0997 0.0
C440 C 0.09003 0.64572 0.04876 0.0
C441 C 0.08935 0.67241 0.05841 0.0
C442 C 0.08832 0.61384 0.0548 0.0
C443 C 0.08593 0.60798 0.07059 0.0
C444 C 0.08495 0.63436 0.08026 0.0
H445 H 0.11223 0.45787 0.13005 0.0
H446 H 0.10492 0.50748 0.11866 0.0
C447 C 0.08637 0.66617 0.07423 0.0
C448 C 0.08699 0.57551 0.07692 0.0
H449 H 0.04076 0.49979 0.10007 0.0
C450 C 0.11759 0.57128 0.07332 0.0
C451 C 0.05861 0.54917 0.0865 0.0
C452 C 0.0242 0.55121 0.09016 0.0
C453 C 0.12098 0.54184 0.07929 0.0
C454 C 0.09291 0.51589 0.08902 0.0
C455 C 0.0622 0.51989 0.09259 0.0
C456 C 0.09555 0.48488 0.09588 0.0
C457 C 0.15492 0.53909 0.07544 0.0
C458 C 0.09216 0.45559 0.0868 0.0
C459 C 0.09621 0.42709 0.09325 0.0
C460 C 0.10383 0.42751 0.10889 0.0
C461 C 0.10657 0.45671 0.11796 0.0
C462 C 0.1023 0.48505 0.11151 0.0
H463 H 0.17693 0.56476 0.06989 0.0
H464 H 0.16662 0.53372 0.08588 0.0
H465 H 0.14692 0.51543 0.06754 0.0
H466 H 0.08664 0.45496 0.07471 0.0
H467 H 0.09387 0.40504 0.08593 0.0
H468 H 0.6483 0.09635 0.29707 0.0
H469 H 0.58997 0.08919 0.28745 0.0
H470 H 0.62257 0.08135 0.24157 0.0
H471 H 0.68063 0.08756 0.2511 0.0
H472 H 0.58259 0.13563 0.26846 0.0
H473 H 0.51718 0.99533 0.24253 0.0
H474 H 0.55639 0.01225 0.25529 0.0
H475 H 0.56331 0.02559 0.23553 0.0
C476 C 0.64294 0.09269 0.28494 0.0
C477 C 0.66915 0.09251 0.27485 0.0
C478 C 0.60954 0.08854 0.27947 0.0
C479 C 0.60169 0.08418 0.26383 0.0
C480 C 0.62762 0.08369 0.25373 0.0
H481 H 0.44988 0.10676 0.20504 0.0
H482 H 0.49902 0.09896 0.2166 0.0
C483 C 0.66093 0.08751 0.25919 0.0
C484 C 0.56774 0.08308 0.258 0.0
H485 H 0.49117 0.03342 0.23564 0.0
C486 C 0.56236 0.11304 0.26145 0.0
C487 C 0.54141 0.05356 0.24886 0.0
C488 C 0.54461 0.01969 0.24545 0.0
C489 C 0.53191 0.11483 0.25562 0.0
C490 C 0.50619 0.08583 0.24618 0.0
C491 C 0.51114 0.05559 0.24289 0.0
C492 C 0.47485 0.08746 0.23914 0.0
C493 C 0.52795 0.1482 0.25921 0.0
C494 C 0.4448 0.08288 0.24801 0.0
C495 C 0.41656 0.08721 0.24146 0.0
C496 C 0.41811 0.09637 0.22594 0.0
C497 C 0.4479 0.09993 0.21704 0.0
C498 C 0.47594 0.09537 0.22358 0.0
H499 H 0.55294 0.17058 0.265 0.0
H500 H 0.52296 0.15963 0.24861 0.0
H501 H 0.50359 0.1396 0.26679 0.0
H502 H 0.44356 0.07659 0.26004 0.0
H503 H 0.39405 0.08425 0.24864 0.0
H504 H 0.5386 0.66042 0.45693 0.0
H505 H 0.48607 0.60738 0.44479 0.0
H506 H 0.54939 0.62875 0.40338 0.0
H507 H 0.6025 0.68189 0.41544 0.0
H508 H 0.44955 0.61104 0.41818 0.0
H509 H 0.50686 0.5162 0.41133 0.0
H510 H 0.52683 0.55528 0.42425 0.0
H511 H 0.53524 0.56266 0.40415 0.0
C512 C 0.54165 0.65375 0.44528 0.0
C513 C 0.57489 0.67549 0.43717 0.0
C514 C 0.51152 0.62343 0.43837 0.0
C515 C 0.51401 0.61405 0.42326 0.0
C516 C 0.54717 0.63526 0.41515 0.0
H517 H 0.31972 0.46789 0.36819 0.0
H518 H 0.3787 0.52007 0.37698 0.0
C519 C 0.57742 0.6657 0.42205 0.0
C520 C 0.48112 0.5831 0.41587 0.0
H521 H 0.44729 0.49623 0.40092 0.0
C522 C 0.44905 0.58598 0.41434 0.0
C523 C 0.48066 0.55047 0.41099 0.0
C524 C 0.51409 0.54563 0.41283 0.0
C525 C 0.41628 0.55688 0.40814 0.0
C526 C 0.41584 0.5243 0.40319 0.0
C527 C 0.44796 0.52146 0.40463 0.0
C528 C 0.38156 0.49208 0.39727 0.0
C529 C 0.38208 0.56074 0.40736 0.0
C530 C 0.36426 0.45886 0.4056 0.0
C531 C 0.33064 0.42898 0.40063 0.0
C532 C 0.31377 0.43173 0.38717 0.0
C533 C 0.3318 0.46482 0.37863 0.0
C534 C 0.36544 0.49473 0.38364 0.0
H535 H 0.38502 0.58432 0.41437 0.0
H536 H 0.37729 0.56574 0.39538 0.0
H537 H 0.35716 0.53483 0.41128 0.0
H538 H 0.3764 0.45635 0.41614 0.0
H539 H 0.3177 0.4039 0.40746 0.0
H540 H 0.90002 0.58865 0.58481 0.0
H541 H 0.90421 0.53705 0.57354 0.0
H542 H 0.88628 0.48521 0.61763 0.0
H543 H 0.88191 0.53651 0.62909 0.0
H544 H 0.94945 0.49115 0.59784 0.0
H545 H 0.81031 0.42762 0.57012 0.0
H546 H 0.84084 0.47686 0.56769 0.0
H547 H 0.82258 0.45869 0.58621 0.0
C548 C 0.89713 0.56641 0.59216 0.0
C549 C 0.89047 0.56669 0.60787 0.0
C550 C 0.89944 0.53695 0.58567 0.0
C551 C 0.8953 0.50739 0.59477 0.0
C552 C 0.88947 0.50786 0.61046 0.0
H553 H 0.89996 0.30363 0.58002 0.0
H554 H 0.90333 0.3595 0.59069 0.0
C555 C 0.88689 0.53715 0.61696 0.0
C556 C 0.8963 0.47554 0.58787 0.0
H557 H 0.84622 0.39924 0.56555 0.0
C558 C 0.92697 0.47099 0.59076 0.0
C559 C 0.86692 0.44957 0.57864 0.0
C560 C 0.8331 0.45307 0.57549 0.0
C561 C 0.92922 0.44111 0.58448 0.0
C562 C 0.89952 0.41473 0.57542 0.0
C563 C 0.86894 0.4195 0.5725 0.0
C564 C 0.89925 0.3817 0.56893 0.0
C565 C 0.96366 0.43854 0.58736 0.0
C566 C 0.89505 0.37523 0.55319 0.0
C567 C 0.89259 0.34309 0.54706 0.0
C568 C 0.89432 0.31673 0.55657 0.0
C569 C 0.89889 0.32348 0.57234 0.0
C570 C 0.90106 0.35554 0.57847 0.0
H571 H 0.98773 0.46597 0.59052 0.0
H572 H 0.95835 0.41912 0.59696 0.0
H573 H 0.97125 0.4279 0.57719 0.0
H574 H 0.89341 0.39499 0.54563 0.0
H575 H 0.88912 0.33884 0.53486 0.0
H576 H 0.54155 0.8836 0.70477 0.0
H577 H 0.49099 0.88923 0.71623 0.0
H578 H 0.5417 0.90442 0.76044 0.0
H579 H 0.59267 0.89904 0.74913 0.0
H580 H 0.46069 0.8456 0.75668 0.0
H581 H 0.49753 0.98632 0.73567 0.0
H582 H 0.49926 0.95487 0.72204 0.0
H583 H 0.53149 0.97152 0.73762 0.0
C584 C 0.54216 0.88837 0.71692 0.0
C585 C 0.57121 0.89089 0.72603 0.0
C586 C 0.51333 0.89174 0.72342 0.0
C587 C 0.51294 0.89755 0.73912 0.0
C588 C 0.54179 0.90018 0.74827 0.0
H589 H 0.33971 0.89018 0.79764 0.0
H590 H 0.39629 0.8931 0.78806 0.0
C591 C 0.57086 0.89715 0.74177 0.0
C592 C 0.48135 0.89901 0.74604 0.0
H593 H 0.43911 0.95124 0.74778 0.0
C594 C 0.45601 0.86876 0.75487 0.0
C595 C 0.47544 0.92919 0.74349 0.0
C596 C 0.50241 0.96253 0.73428 0.0
C597 C 0.42413 0.86741 0.76093 0.0
C598 C 0.41813 0.89767 0.75842 0.0
C599 C 0.44382 0.92814 0.74971 0.0
C600 C 0.38483 0.89777 0.76437 0.0
C601 C 0.39655 0.83301 0.76949 0.0
C602 C 0.36037 0.90094 0.75428 0.0
C603 C 0.32826 0.89984 0.75973 0.0
C604 C 0.31997 0.89546 0.77539 0.0
C605 C 0.34501 0.89314 0.7855 0.0
C606 C 0.37728 0.8946 0.78004 0.0
H607 H 0.40005 0.80881 0.76681 0.0
H608 H 0.40094 0.83833 0.78191 0.0
H609 H 0.36753 0.82557 0.76678 0.0
H610 H 0.36579 0.90359 0.74214 0.0
H611 H 0.30961 0.9017 0.75162 0.0
H612 H 0.46238 0.32608 0.9583 0.0
H613 H 0.51417 0.38064 0.94652 0.0
H614 H 0.44816 0.36404 0.90628 0.0
H615 H 0.39588 0.30952 0.91798 0.0
H616 H 0.55017 0.38287 0.91893 0.0
H617 H 0.48807 0.47428 0.9174 0.0
H618 H 0.46963 0.43315 0.92915 0.0
H619 H 0.4603 0.42903 0.90906 0.0
C620 C 0.45865 0.33407 0.94698 0.0
C621 C 0.42481 0.31341 0.93913 0.0
C622 C 0.48835 0.36525 0.94026 0.0
C623 C 0.4848 0.37653 0.92562 0.0
C624 C 0.4512 0.35609 0.9177 0.0
H625 H 0.67177 0.53257 0.86947 0.0
H626 H 0.61519 0.47814 0.87874 0.0
C627 C 0.42142 0.32483 0.9244 0.0
C628 C 0.51677 0.40913 0.91851 0.0
H629 H 0.54663 0.49705 0.9055 0.0
C630 C 0.54942 0.40782 0.91594 0.0
C631 C 0.51566 0.44165 0.91477 0.0
C632 C 0.48168 0.44494 0.91783 0.0
C633 C 0.58114 0.43829 0.90973 0.0
C634 C 0.57991 0.47067 0.90583 0.0
C635 C 0.54726 0.472 0.90839 0.0
C636 C 0.61289 0.5041 0.89975 0.0
C637 C 0.61602 0.43599 0.90778 0.0
C638 C 0.62964 0.53697 0.90832 0.0
C639 C 0.66187 0.56817 0.90306 0.0
C640 C 0.67786 0.56714 0.88906 0.0
C641 C 0.66034 0.53436 0.88032 0.0
C642 C 0.6281 0.50315 0.88562 0.0
H643 H 0.61475 0.41243 0.91428 0.0
H644 H 0.61966 0.43184 0.89555 0.0
H645 H 0.64086 0.46216 0.91155 0.0
H646 H 0.61819 0.53822 0.91924 0.0
H647 H 0.67445 0.59292 0.91008 0.0
H648 H 0.25573 0.12726 0.18548 0.0
H649 H 0.24167 0.17065 0.17219 0.0
H650 H 0.34374 0.26305 0.18897 0.0
H651 H 0.3582 0.21943 0.20211 0.0
H652 H 0.26496 0.25409 0.1964 0.0
H653 H 0.29643 0.24954 0.13505 0.0
H654 H 0.27874 0.2073 0.14601 0.0
H655 H 0.32394 0.24595 0.15019 0.0
C656 C 0.27566 0.15678 0.1859 0.0
C657 C 0.3084 0.17016 0.19443 0.0
C658 C 0.26768 0.18146 0.17833 0.0
C659 C 0.29187 0.21991 0.17952 0.0
C660 C 0.32506 0.23341 0.18778 0.0
H661 H 0.21855 0.36234 0.13534 0.0
H662 H 0.26088 0.34742 0.14922 0.0
C663 C 0.33334 0.20859 0.19519 0.0
C664 C 0.27946 0.24534 0.17385 0.0
H665 H 0.25735 0.274 0.1411 0.0
C666 C 0.26397 0.25922 0.18434 0.0
C667 C 0.2783 0.25186 0.15815 0.0
C668 C 0.29535 0.23809 0.1466 0.0
C669 C 0.2452 0.2775 0.17939 0.0
C670 C 0.24218 0.28212 0.16363 0.0
C671 C 0.25977 0.27038 0.15321 0.0
C672 C 0.21704 0.29452 0.15759 0.0
C673 C 0.22774 0.29084 0.19094 0.0
C674 C 0.17855 0.26984 0.15788 0.0
C675 C 0.15458 0.27813 0.1499 0.0
C676 C 0.16868 0.31159 0.14183 0.0
C677 C 0.20708 0.33688 0.14192 0.0
C678 C 0.23119 0.32835 0.14975 0.0
H679 H 0.23682 0.28977 0.20274 0.0
H680 H 0.23515 0.31982 0.18828 0.0
H681 H 0.19702 0.27324 0.19036 0.0
H682 H 0.16725 0.24328 0.16363 0.0
H683 H 0.12511 0.25795 0.14966 0.0
H684 H 0.85073 0.20968 0.29807 0.0
H685 H 0.90481 0.25131 0.31376 0.0
H686 H 0.92222 0.15965 0.32425 0.0
H687 H 0.86771 0.11806 0.30897 0.0
H688 H 0.92766 0.20217 0.34962 0.0
H689 H 0.01277 0.29071 0.3012 0.0
H690 H 0.96825 0.2871 0.30414 0.0
H691 H 0.97058 0.24693 0.29826 0.0
C692 C 0.86585 0.19852 0.30401 0.0
C693 C 0.85466 0.16066 0.30286 0.0
C694 C 0.8969 0.2223 0.31276 0.0
C695 C 0.91753 0.20853 0.32011 0.0
C696 C 0.90647 0.17072 0.31876 0.0
H697 H 0.11488 0.24976 0.35851 0.0
H698 H 0.05488 0.23105 0.34641 0.0
C699 C 0.87549 0.14705 0.31006 0.0
C700 C 0.95129 0.23313 0.32897 0.0
H701 H 0.04208 0.30091 0.32495 0.0
C702 C 0.95246 0.22427 0.34431 0.0
C703 C 0.9836 0.26202 0.322 0.0
C704 C 0.98407 0.27227 0.30548 0.0
C705 C 0.98569 0.24198 0.35259 0.0
C706 C 0.0184 0.26906 0.34532 0.0
C707 C 0.0168 0.27994 0.33038 0.0
C708 C 0.05506 0.28172 0.35223 0.0
C709 C 0.98622 0.23028 0.3688 0.0
C710 C 0.07478 0.31645 0.35938 0.0
C711 C 0.10905 0.32713 0.36627 0.0
C712 C 0.12409 0.3035 0.36573 0.0
C713 C 0.10407 0.26868 0.3587 0.0
C714 C 0.06995 0.25802 0.35186 0.0
H715 H 0.95779 0.21457 0.37371 0.0
H716 H -0.00121 0.21218 0.36911 0.0
H717 H 0.0035 0.25494 0.37605 0.0
H718 H 0.06342 0.33489 0.35982 0.0
H719 H 0.12353 0.35351 0.37219 0.0
H720 H 0.88154 0.12775 0.51808 0.0
H721 H 0.84218 0.07 0.50407 0.0
H722 H 0.745 0.07634 0.51628 0.0
H723 H 0.78452 0.13454 0.53018 0.0
H724 H 0.75608 0.00728 0.5254 0.0
H725 H 0.76902 0.04572 0.464 0.0
H726 H 0.80884 0.07074 0.47627 0.0
H727 H 0.76867 0.07561 0.47886 0.0
C728 C 0.8519 0.11732 0.51735 0.0
C729 C 0.83599 0.1358 0.52481 0.0
C730 C 0.82952 0.0845 0.50937 0.0
C731 C 0.79085 0.06926 0.50907 0.0
C732 C 0.77488 0.08806 0.51625 0.0
H733 H 0.64888 0.85564 0.46357 0.0
H734 H 0.66599 0.91351 0.4774 0.0
C735 C 0.79739 0.12125 0.52408 0.0
C736 C 0.76731 0.03142 0.50297 0.0
H737 H 0.74196 0.98188 0.46987 0.0
C738 C 0.7524 0.00162 0.51327 0.0
C739 C 0.76275 0.02437 0.48718 0.0
C740 C 0.778 0.05568 0.47582 0.0
C741 C 0.73447 0.96474 0.5081 0.0
C742 C 0.73119 0.95769 0.49229 0.0
C743 C 0.74449 0.98748 0.482 0.0
C744 C 0.71761 0.92001 0.48611 0.0
C745 C 0.71966 0.93347 0.51948 0.0
C746 C 0.74084 0.90455 0.48662 0.0
C747 C 0.73127 0.87187 0.47869 0.0
C748 C 0.69796 0.85377 0.47044 0.0
C749 C 0.67415 0.86862 0.47028 0.0
C750 C 0.68395 0.90163 0.47808 0.0
H751 H 0.72082 0.94336 0.53134 0.0
H752 H 0.69044 0.91294 0.51664 0.0
H753 H 0.73611 0.91915 0.51888 0.0
H754 H 0.76725 0.91877 0.49254 0.0
H755 H 0.75034 0.86123 0.47865 0.0
H756 H 0.87801 0.74193 0.64819 0.0
H757 H 0.83758 0.75922 0.66199 0.0
H758 H 0.74136 0.65676 0.64791 0.0
H759 H 0.78194 0.63924 0.63419 0.0
H760 H 0.74898 0.73278 0.6396 0.0
H761 H 0.76678 0.71369 0.70123 0.0
H762 H 0.80617 0.72843 0.68873 0.0
H763 H 0.76653 0.68273 0.68674 0.0
C764 C 0.84832 0.72269 0.64846 0.0
C765 C 0.83299 0.68892 0.64053 0.0
C766 C 0.82532 0.73249 0.65633 0.0
C767 C 0.78662 0.70903 0.65608 0.0
C768 C 0.77123 0.67491 0.64839 0.0
H769 H 0.64255 0.77958 0.70068 0.0
H770 H 0.66001 0.73857 0.68726 0.0
C771 C 0.79433 0.66488 0.64066 0.0
C772 C 0.76256 0.72279 0.66212 0.0
H773 H 0.7384 0.74902 0.69501 0.0
C774 C 0.74607 0.7358 0.65172 0.0
C775 C 0.75893 0.72661 0.6779 0.0
C776 C 0.77537 0.71208 0.6894 0.0
C777 C 0.72761 0.75434 0.65673 0.0
C778 C 0.72539 0.75959 0.67249 0.0
C779 C 0.7402 0.74488 0.68292 0.0
C780 C 0.71151 0.78365 0.67839 0.0
C781 C 0.71125 0.76896 0.64523 0.0
C782 C 0.73452 0.82236 0.67763 0.0
C783 C 0.72476 0.84561 0.68533 0.0
C784 C 0.69146 0.83048 0.69358 0.0
C785 C 0.6678 0.79178 0.69395 0.0
C786 C 0.67781 0.76843 0.68639 0.0
H787 H 0.7119 0.75931 0.6335 0.0
H788 H 0.68205 0.75975 0.64835 0.0
H789 H 0.72704 0.79981 0.64537 0.0
H790 H 0.76091 0.8345 0.6717 0.0
H791 H 0.74373 0.87537 0.68521 0.0
H792 H 0.8668 0.65115 0.87159 0.0
H793 H 0.92638 0.67199 0.85839 0.0
H794 H 0.93169 0.77559 0.84719 0.0
H795 H 0.87213 0.75466 0.86013 0.0
H796 H 0.94527 0.70804 0.82402 0.0
H797 H 0.03097 0.79308 0.87283 0.0
H798 H 0.98567 0.75223 0.8753 0.0
H799 H 0.98939 0.79473 0.86859 0.0
C800 C 0.88043 0.67797 0.86597 0.0
C801 C 0.86458 0.7009 0.86631 0.0
C802 C 0.91442 0.68991 0.8586 0.0
C803 C 0.93312 0.7252 0.85184 0.0
C804 C 0.91743 0.74821 0.85233 0.0
H805 H 0.12692 0.88578 0.80803 0.0
H806 H 0.07081 0.8474 0.8231 0.0
C807 C 0.88355 0.73627 0.85964 0.0
C808 C 0.96958 0.73899 0.84452 0.0
H809 H 0.06105 0.80399 0.84888 0.0
C810 C 0.97079 0.72846 0.82948 0.0
C811 C 0.00257 0.76559 0.85178 0.0
C812 C 0.00242 0.77706 0.86806 0.0
C813 C 0.00408 0.74561 0.82113 0.0
C814 C 0.03689 0.77349 0.8282 0.0
C815 C 0.03588 0.7826 0.84351 0.0
C816 C 0.07157 0.79622 0.81952 0.0
C817 C 0.00339 0.73538 0.8046 0.0
C818 C 0.0906 0.78013 0.81261 0.0
C819 C 0.12261 0.80208 0.80402 0.0
C820 C 0.13634 0.84041 0.80256 0.0
C821 C 0.11716 0.85638 0.80935 0.0
C822 C 0.08525 0.83453 0.81793 0.0
H823 H 0.97457 0.71852 0.80018 0.0
H824 H 0.01848 0.76074 0.79747 0.0
H825 H 0.01747 0.71883 0.80332 0.0
H826 H 0.08067 0.75069 0.81382 0.0
H827 H 0.13644 0.78912 0.7984 0.0
H828 H 0.10277 0.86278 0.02001 0.0
H829 H 0.14331 0.9201 0.00593 0.0
H830 H 0.23853 0.90981 0.01767 0.0
H831 H 0.19787 0.8522 0.0317 0.0
H832 H 0.23458 0.98025 0.02676 0.0
H833 H 0.20961 0.94213 0.9653 0.0
H834 H 0.17148 0.91889 0.97852 0.0
H835 H 0.21012 0.91106 0.97955 0.0
C836 C 0.13221 0.87228 0.01918 0.0
C837 C 0.14725 0.85283 0.02653 0.0
C838 C 0.15527 0.90484 0.01115 0.0
C839 C 0.19375 0.91882 0.01065 0.0
C840 C 0.2088 0.89909 0.01777 0.0
H841 H 0.34428 0.13008 0.96513 0.0
H842 H 0.32375 0.07123 0.9788 0.0
C843 C 0.18563 0.86621 0.02568 0.0
C844 C 0.21828 0.95632 0.00438 0.0
H845 H 0.24205 0.00606 0.97131 0.0
C846 C 0.23674 0.98593 0.01463 0.0
C847 C 0.22085 0.96344 0.98859 0.0
C848 C 0.20211 0.93232 0.97724 0.0
C849 C 0.2564 0.02281 0.00945 0.0
C850 C 0.25788 0.03 0.99369 0.0
C851 C 0.24085 0.00029 0.98341 0.0
C852 C 0.2737 0.06812 0.98767 0.0
C853 C 0.27486 0.05398 0.0208 0.0
C854 C 0.25251 0.08579 0.98836 0.0
C855 C 0.26401 0.11901 0.98052 0.0
C856 C 0.29726 0.13542 0.97219 0.0
C857 C 0.31912 0.11839 0.9719 0.0
C858 C 0.30737 0.08484 0.97961 0.0
H859 H 0.26071 0.07063 0.02075 0.0
H860 H 0.27409 0.0437 0.03255 0.0
H861 H 0.30423 0.07254 0.01743 0.0
H862 H 0.22617 0.07292 0.99435 0.0
H863 H 0.24641 0.13137 0.98059 0.0
H864 H 0.19843 0.36318 0.07525 0.0
H865 H 0.2193 0.35411 0.05057 0.0
H866 H 0.10675 0.27147 0.03903 0.0
H867 H 0.08558 0.27992 0.06403 0.0
H868 H 0.1546 0.24668 0.03439 0.0
H869 H 0.21286 0.38507 0.00783 0.0
H870 H 0.2315 0.38884 0.02657 0.0
H871 H 0.18243 0.37153 0.02418 0.0
C872 C 0.17793 0.34347 0.0674 0.0
C873 C 0.14033 0.3222 0.07161 0.0
C874 C 0.18989 0.33858 0.0532 0.0
C875 C 0.16451 0.31264 0.04281 0.0
C876 C 0.12675 0.29193 0.04682 0.0
H877 H 0.23654 0.2341 0.96324 0.0
H878 H 0.19671 0.24986 0.97839 0.0
C879 C 0.11471 0.29677 0.0611 0.0
C880 C 0.17846 0.30456 0.02859 0.0
H881 H 0.23874 0.34705 0.99908 0.0
C882 C 0.17216 0.26837 0.02642 0.0
C883 C 0.20131 0.33287 0.01816 0.0
C884 C 0.20707 0.37164 0.01922 0.0
C885 C 0.19031 0.26041 0.0148 0.0
C886 C 0.21513 0.28934 0.00506 0.0
C887 C 0.21978 0.32499 0.00664 0.0
C888 C 0.23977 0.28393 0.99452 0.0
C889 C 0.18475 0.22171 0.01361 0.0
C890 C 0.27734 0.29894 0.99832 0.0
C891 C 0.30006 0.28995 0.98979 0.0
C892 C 0.28568 0.26596 0.97719 0.0
C893 C 0.24851 0.25272 0.97285 0.0
C894 C 0.22567 0.26154 0.98151 0.0
H895 H 0.167 0.20323 0.02292 0.0
H896 H 0.17134 0.20919 0.00256 0.0
H897 H 0.21202 0.22284 0.01392 0.0
H898 H 0.28868 0.3163 0.00833 0.0
H899 H 0.32859 0.30083 0.99339 0.0
H900 H 0.7937 0.07493 0.22602 0.0
H901 H 0.82475 0.09637 0.20128 0.0
H902 H 0.85833 0.20944 0.21349 0.0
H903 H 0.8267 0.1883 0.23786 0.0
H904 H 0.83792 0.19506 0.18351 0.0
H905 H 0.93713 0.14685 0.19877 0.0
H906 H 0.88881 0.11181 0.19825 0.0
H907 H 0.90524 0.14775 0.21245 0.0
C908 C 0.80722 0.10427 0.2233 0.0
C909 C 0.80815 0.12998 0.23396 0.0
C910 C 0.82512 0.1165 0.20921 0.0
C911 C 0.84452 0.1546 0.20568 0.0
C912 C 0.84366 0.17993 0.21599 0.0
H913 H 0.0194 0.32653 0.15943 0.0
H914 H 0.96172 0.28367 0.17245 0.0
C915 C 0.82563 0.16778 0.22996 0.0
C916 C 0.86816 0.16907 0.19189 0.0
H917 H 0.94987 0.18288 0.17678 0.0
C918 C 0.86203 0.19184 0.18187 0.0
C919 C 0.89962 0.16481 0.18974 0.0
C920 C 0.90842 0.14173 0.20039 0.0
C921 C 0.88754 0.21199 0.17028 0.0
C922 C 0.91997 0.20936 0.16873 0.0
C923 C 0.92486 0.18469 0.17803 0.0
C924 C 0.9516 0.23565 0.15916 0.0
C925 C 0.88034 0.23702 0.16016 0.0
C926 C 0.96493 0.22285 0.1473 0.0
C927 C -0.00206 0.24742 0.13974 0.0
C928 C 0.01846 0.28497 0.14418 0.0
C929 C 0.00432 0.29779 0.15576 0.0
C930 C 0.97119 0.27338 0.16314 0.0
H931 H 0.85025 0.22792 0.15968 0.0
H932 H 0.8953 0.26572 0.16478 0.0
H933 H 0.89059 0.23769 0.14841 0.0
H934 H 0.95036 0.1937 0.1442 0.0
H935 H 0.00825 0.23665 0.13094 0.0
H936 H 0.6955 0.01152 0.3242 0.0
H937 H 0.68474 0.95572 0.33771 0.0
H938 H 0.75859 0.94342 0.30686 0.0
H939 H 0.76962 -0.0004 0.29314 0.0
H940 H 0.66132 0.8782 0.32657 0.0
H941 H 0.8038 0.95748 0.35147 0.0
H942 H 0.78144 0.98103 0.34321 0.0
H943 H 0.798 0.95762 0.33114 0.0
C944 C 0.70906 0.9967 0.32011 0.0
C945 C 0.73368 0.01018 0.30768 0.0
C946 C 0.70274 0.96473 0.32781 0.0
C947 C 0.72111 0.94574 0.32334 0.0
C948 C 0.74431 0.9579 0.31049 0.0
H949 H 0.73112 0.80032 0.39376 0.0
H950 H 0.73998 0.82808 0.3683 0.0
C951 C 0.75043 0.98985 0.30265 0.0
C952 C 0.71808 0.91542 0.33313 0.0
H953 H 0.76207 0.90065 0.36281 0.0
C954 C 0.68359 0.8826 0.33426 0.0
C955 C 0.74729 0.92121 0.34306 0.0
C956 C 0.78479 0.95621 0.3423 0.0
C957 C 0.67686 0.85636 0.34569 0.0
C958 C 0.70506 0.86371 0.35646 0.0
C959 C 0.74043 0.89514 0.35458 0.0
C960 C 0.697 0.8426 0.37092 0.0
C961 C 0.63915 0.82168 0.34645 0.0
C962 C 0.67 0.84161 0.38081 0.0
C963 C 0.66501 0.826 0.39527 0.0
C964 C 0.68713 0.81126 0.40024 0.0
C965 C 0.71361 0.81139 0.39023 0.0
C966 C 0.71866 0.82718 0.37569 0.0
H967 H 0.6267 0.81328 0.33492 0.0
H968 H 0.64077 0.79817 0.35167 0.0
H969 H 0.62025 0.82731 0.35343 0.0
H970 H 0.6537 0.85427 0.37758 0.0
H971 H 0.64442 0.82641 0.40271 0.0
H972 H 0.91676 0.71359 0.56237 0.0
H973 H 0.89714 0.72213 0.53703 0.0
H974 H 0.78255 0.64826 0.54927 0.0
H975 H 0.80181 0.63895 0.57429 0.0
H976 H 0.79855 0.63655 0.51989 0.0
H977 H 0.85014 0.7868 0.53069 0.0
H978 H 0.88384 0.77187 0.53195 0.0
H979 H 0.84682 0.75552 0.54564 0.0
C980 C 0.88743 0.69893 0.55957 0.0
C981 C 0.86081 0.67589 0.57037 0.0
C982 C 0.87627 0.70396 0.54513 0.0
C983 C 0.83835 0.68628 0.54136 0.0
C984 C 0.81196 0.66221 0.55194 0.0
H985 H 0.67245 0.68644 0.48951 0.0
H986 H 0.71317 0.67161 0.50417 0.0
C987 C 0.82304 0.65704 0.56628 0.0
C988 C 0.82529 0.69396 0.52683 0.0
H989 H 0.81509 0.76092 0.50863 0.0
C990 C 0.80271 0.66389 0.51727 0.0
C991 C 0.83087 0.72969 0.52339 0.0
C992 C 0.854 0.76286 0.53347 0.0
C993 C 0.78399 0.6682 0.50483 0.0
C994 C 0.7878 0.70339 0.50197 0.0
C995 C 0.81233 0.73397 0.51087 0.0
C996 C 0.7628 0.70813 0.49137 0.0
C997 C 0.75926 0.63481 0.49517 0.0
C998 C 0.77716 0.73339 0.47921 0.0
C999 C 0.75382 0.74185 0.47073 0.0
C1000 C 0.71593 0.72572 0.47451 0.0
C1001 C 0.70149 0.69938 0.48632 0.0
C1002 C 0.72469 0.69065 0.49465 0.0
H1003 H 0.7681 0.61363 0.49565 0.0
H1004 H 0.73034 0.62178 0.49951 0.0
H1005 H 0.75932 0.64291 0.48311 0.0
H1006 H 0.80661 0.74745 0.47663 0.0
H1007 H 0.76585 0.76248 0.46178 0.0
H1008 H 0.17054 0.80741 0.73769 0.0
H1009 H 0.14153 0.78561 0.71293 0.0
H1010 H 0.17092 0.8975 0.7005 0.0
H1011 H 0.1996 0.91961 0.7256 0.0
H1012 H 0.0984 0.8496 0.69634 0.0
H1013 H 0.17678 0.78937 0.67009 0.0
H1014 H 0.16307 0.7718 0.68904 0.0
H1015 H 0.19459 0.82077 0.68612 0.0
C1016 C 0.17154 0.8276 0.72961 0.0
C1017 C 0.18721 0.86523 0.73363 0.0
C1018 C 0.15525 0.8151 0.71536 0.0
C1019 C 0.15461 0.83998 0.70472 0.0
C1020 C 0.17145 0.87788 0.70848 0.0
H1021 H 0.99473 0.75583 0.62817 0.0
H1022 H 0.05231 0.79873 0.64158 0.0
C1023 C 0.1878 0.89046 0.72281 0.0
C1024 C 0.13199 0.8252 0.69069 0.0
H1025 H 0.11151 0.76136 0.66243 0.0
C1026 C 0.1019 0.83121 0.68862 0.0
C1027 C 0.13662 0.80127 0.68059 0.0
C1028 C 0.1698 0.79578 0.68149 0.0
C1029 C 0.07463 0.81152 0.67756 0.0
C1030 C 0.07778 0.78542 0.66829 0.0
C1031 C 0.10913 0.78127 0.66963 0.0
C1032 C 0.04635 0.7588 0.65876 0.0
C1033 C 0.04125 0.81672 0.67657 0.0
C1034 C 0.02476 0.72197 0.66374 0.0
C1035 C 0.99192 0.69752 0.6562 0.0
C1036 C 0.98015 0.70938 0.64344 0.0
C1037 C 0.00301 0.74579 0.63795 0.0
C1038 C 0.03583 0.77038 0.64561 0.0
H1039 H 0.04164 0.83599 0.68544 0.0
H1040 H 0.04059 0.82814 0.66523 0.0
H1041 H 0.01525 0.78952 0.67782 0.0
H1042 H 0.0325 0.71259 0.67389 0.0
H1043 H 0.97517 0.66964 0.66068 0.0
H1044 H 0.271 0.19728 0.895 0.0
H1045 H 0.26167 0.17074 0.86927 0.0
H1046 H 0.33712 0.13079 0.87952 0.0
H1047 H 0.34708 0.15759 0.9049 0.0
H1048 H 0.34748 0.16142 0.85042 0.0
H1049 H 0.19838 0.05871 0.86181 0.0
H1050 H 0.21287 0.10713 0.86389 0.0
H1051 H 0.22997 0.08573 0.87685 0.0
C1052 C 0.28581 0.18311 0.89168 0.0
C1053 C 0.30949 0.17922 0.90202 0.0
C1054 C 0.28034 0.16787 0.87702 0.0
C1055 C 0.29834 0.14839 0.87257 0.0
C1056 C 0.32296 0.14571 0.88271 0.0
H1057 H 0.30456 0.9871 0.82161 0.0
H1058 H 0.31745 0.04325 0.83538 0.0
C1059 C 0.32848 0.16093 0.89726 0.0
C1060 C 0.29053 0.12869 0.85777 0.0
H1061 H 0.22488 0.05024 0.83981 0.0
C1062 C 0.32046 0.13758 0.8479 0.0
C1063 C 0.2552 0.09772 0.85446 0.0
C1064 C 0.2222 0.08643 0.8648 0.0
C1065 C 0.31659 0.11491 0.8354 0.0
C1066 C 0.28203 0.08246 0.83278 0.0
C1067 C 0.25136 0.0752 0.84188 0.0
C1068 C 0.27851 0.05265 0.82249 0.0
C1069 C 0.34995 0.12494 0.82548 0.0
C1070 C 0.25257 0.03948 0.81055 0.0
C1071 C 0.24528 0.00734 0.80255 0.0
C1072 C 0.26324 0.98754 0.80665 0.0
C1073 C 0.29027 0.00174 0.8182 0.0
C1074 C 0.29787 0.034 0.82601 0.0
H1075 H 0.36981 0.15537 0.82566 0.0
H1076 H 0.36468 0.11076 0.82987 0.0
H1077 H 0.34154 0.11596 0.81352 0.0
H1078 H 0.23705 0.05328 0.80779 0.0
H1079 H 0.22404 0.99683 0.7938 0.0
H1080 H 0.63731 0.80648 0.76157 0.0
H1081 H 0.64797 0.78769 0.78642 0.0
H1082 H 0.73809 0.8991 0.79458 0.0
H1083 H 0.7278 0.91819 0.76942 0.0
H1084 H 0.75831 0.84681 0.79882 0.0
H1085 H 0.62757 0.80349 0.82995 0.0
H1086 H 0.61824 0.78261 0.81143 0.0
H1087 H 0.64034 0.83244 0.81315 0.0
C1088 C 0.65901 0.82724 0.76873 0.0
C1089 C 0.68184 0.8638 0.7635 0.0
C1090 C 0.66481 0.81651 0.78303 0.0
C1091 C 0.69339 0.84213 0.79249 0.0
C1092 C 0.7156 0.87901 0.78752 0.0
H1093 H 0.75892 0.75804 0.8727 0.0
H1094 H 0.74596 0.80075 0.85812 0.0
C1095 C 0.70971 0.88985 0.77316 0.0
C1096 C 0.70259 0.82872 0.80657 0.0
H1097 H 0.6619 0.77226 0.83731 0.0
C1098 C 0.73764 0.83152 0.80751 0.0
C1099 C 0.67567 0.80885 0.81794 0.0
C1100 C 0.6385 0.80703 0.81815 0.0
C1101 C 0.74532 0.8124 0.81878 0.0
C1102 C 0.71727 0.79002 0.82931 0.0
C1103 C 0.68322 0.78933 0.82911 0.0
C1104 C 0.72129 0.76335 0.83907 0.0
C1105 C 0.78244 0.81409 0.81879 0.0
C1106 C 0.71092 0.72813 0.83323 0.0
C1107 C 0.7183 0.70382 0.84143 0.0
C1108 C 0.73618 0.71426 0.85566 0.0
C1109 C 0.74501 0.74907 0.8618 0.0
C1110 C 0.73772 0.77353 0.85351 0.0
H1111 H 0.80255 0.83558 0.81084 0.0
H1112 H 0.79444 0.82017 0.83044 0.0
H1113 H 0.77853 0.78664 0.81535 0.0
H1114 H 0.69823 0.71994 0.82207 0.0
H1115 H 0.71093 0.67723 0.83637 0.0
H1116 H 0.78277 0.71359 0.93989 0.0
H1117 H 0.80734 0.72242 0.96594 0.0
H1118 H 0.84685 0.64611 0.95676 0.0
H1119 H 0.82173 0.63644 0.93111 0.0
H1120 H 0.81886 0.63807 0.98582 0.0
H1121 H 0.91875 0.78692 0.97248 0.0
H1122 H 0.87005 0.7717 0.9711 0.0
H1123 H 0.89074 0.75428 0.95792 0.0
C1124 C 0.79615 0.69826 0.94355 0.0
C1125 C 0.8008 0.67474 0.93339 0.0
C1126 C 0.81032 0.70347 0.95839 0.0
C1127 C 0.82955 0.68546 0.96318 0.0
C1128 C 0.83219 0.66036 0.95331 0.0
H1129 H -0.00211 0.68617 0.01032 0.0
H1130 H 0.93961 0.67148 0.99792 0.0
C1131 C 0.81795 0.65501 0.9386 0.0
C1132 C 0.85008 0.69461 0.97781 0.0
H1133 H 0.92992 0.7621 0.99429 0.0
C1134 C 0.84263 0.66543 0.98789 0.0
C1135 C 0.88101 0.73039 0.98054 0.0
C1136 C 0.89093 0.76267 0.96994 0.0
C1137 C 0.86686 0.67039 -6e-05 0.0
C1138 C 0.89928 0.70532 0.0019 0.0
C1139 C 0.90497 0.73533 0.9927 0.0
C1140 C 0.93062 0.70985 0.01142 0.0
C1141 C 0.85863 0.63775 0.01001 0.0
C1142 C 0.94474 0.73611 0.02322 0.0
C1143 C 0.9781 0.74446 0.03042 0.0
C1144 C -0.00183 0.72723 0.02566 0.0
C1145 C 0.98314 0.69996 0.01422 0.0
C1146 C 0.94965 0.6913 0.00721 0.0
H1147 H 0.82835 0.61734 0.01037 0.0
H1148 H 0.87296 0.6234 0.00538 0.0
H1149 H 0.86875 0.64694 0.0218 0.0
H1150 H 0.93064 0.75104 0.02648 0.0
H1151 H 0.98914 0.7658 0.03912 0.0
H1152 H 0.18253 0.83029 0.09253 0.0
H1153 H 0.20461 0.8612 0.11697 0.0
H1154 H 0.09256 0.83103 0.1295 0.0
H1155 H 0.07015 0.80036 0.10476 0.0
H1156 H 0.14067 0.9044 0.13316 0.0
H1157 H 0.20054 0.82624 0.16008 0.0
H1158 H 0.21782 0.83956 0.14107 0.0
H1159 H 0.16893 0.80807 0.14414 0.0
C1160 C 0.1624 0.82961 0.10056 0.0
C1161 C 0.12459 0.81297 0.09669 0.0
C1162 C 0.17506 0.84702 0.11462 0.0
C1163 C 0.15017 0.84785 0.1252 0.0
C1164 C 0.11218 0.83036 0.12156 0.0
H1165 H 0.23121 0.00553 0.20261 0.0
H1166 H 0.18859 0.94943 0.18827 0.0
C1167 C 0.09944 0.81288 0.10743 0.0
C1168 C 0.16485 0.8708 0.13914 0.0
H1169 H 0.22743 0.89104 0.1679 0.0
C1170 C 0.15879 0.9009 0.14104 0.0
C1171 C 0.18839 0.86612 0.14944 0.0
C1172 C 0.19396 0.83297 0.14867 0.0
C1173 C 0.17797 0.92806 0.15219 0.0
C1174 C 0.20359 0.92479 0.16172 0.0
C1175 C 0.20787 0.89349 0.16049 0.0
C1176 C 0.22958 0.95593 0.17152 0.0
C1177 C 0.17271 0.96142 0.15305 0.0
C1178 C 0.2668 0.97741 0.16702 0.0
C1179 C 0.29108 0.00939 0.17509 0.0
C1180 C 0.27867 0.0204 0.1879 0.0
C1181 C 0.24167 0.99783 0.1928 0.0
C1182 C 0.21726 0.96586 0.18462 0.0
H1183 H 0.15391 0.96116 0.144 0.0
H1184 H 0.16072 0.96189 0.16429 0.0
H1185 H 0.19998 0.98743 0.15202 0.0
H1186 H 0.27676 0.97012 0.15693 0.0
H1187 H 0.31941 0.02593 0.17105 0.0
H1188 H 0.25167 0.10035 0.2628 0.0
H1189 H 0.24459 0.12795 0.28629 0.0
H1190 H 0.36368 0.18706 0.29245 0.0
H1191 H 0.37082 0.16183 0.26827 0.0
H1192 H 0.25928 0.13354 0.31532 0.0
H1193 H 0.34769 0.27265 0.28933 0.0
H1194 H 0.33345 0.23035 0.27893 0.0
H1195 H 0.37179 0.24748 0.29212 0.0
C1196 C 0.27621 0.11874 0.26935 0.0
C1197 C 0.31178 0.12953 0.26372 0.0
C1198 C 0.2722 0.1345 0.28277 0.0
C1199 C 0.3037 0.16065 0.29089 0.0
C1200 C 0.33906 0.1682 0.28607 0.0
H1201 H 0.2601 0.26357 0.37141 0.0
H1202 H 0.27971 0.22605 0.35671 0.0
C1203 C 0.34313 0.15351 0.27237 0.0
C1204 C 0.29951 0.18255 0.30335 0.0
H1205 H 0.32454 0.27123 0.31371 0.0
C1206 C 0.27366 0.16367 0.31503 0.0
C1207 C 0.31808 0.22194 0.3029 0.0
C1208 C 0.344 0.2443 0.29008 0.0
C1209 C 0.26468 0.18293 0.32585 0.0
C1210 C 0.28316 0.22224 0.32529 0.0
C1211 C 0.31045 0.2411 0.31413 0.0
C1212 C 0.2716 0.24447 0.33469 0.0
C1213 C 0.23408 0.16089 0.33716 0.0
C1214 C 0.26162 0.26809 0.32728 0.0
C1215 C 0.25157 0.29019 0.33559 0.0
C1216 C 0.25049 0.28882 0.35159 0.0
C1217 C 0.26036 0.26506 0.3591 0.0
C1218 C 0.27126 0.24335 0.3507 0.0
H1219 H 0.21728 0.13113 0.3339 0.0
H1220 H 0.24653 0.16232 0.3485 0.0
H1221 H 0.2152 0.17246 0.33824 0.0
H1222 H 0.26155 0.26946 0.31496 0.0
H1223 H 0.24425 0.30809 0.32935 0.0
H1224 H 0.20168 0.27858 0.43689 0.0
H1225 H 0.17413 0.26606 0.46251 0.0
H1226 H 0.14335 0.34999 0.45576 0.0
H1227 H 0.17154 0.36333 0.43064 0.0
H1228 H 0.16555 0.35014 0.48487 0.0
H1229 H 0.06207 0.20619 0.46649 0.0
H1230 H 0.11014 0.2186 0.46605 0.0
H1231 H 0.09351 0.24071 0.4532 0.0
C1232 C 0.18969 0.29481 0.44103 0.0
C1233 C 0.18828 0.32154 0.43167 0.0
C1234 C 0.17373 0.28746 0.45561 0.0
C1235 C 0.15594 0.30652 0.46091 0.0
C1236 C 0.15677 0.33482 0.45192 0.0
H1237 H 0.9839 0.3022 0.50783 0.0
H1238 H 0.04181 0.31669 0.49505 0.0
C1239 C 0.17279 0.34229 0.43749 0.0
C1240 C 0.13338 0.2955 0.47506 0.0
H1241 H 0.0502 0.22761 0.48915 0.0
C1242 C 0.14077 0.32304 0.486 0.0
C1243 C 0.101 0.2601 0.47654 0.0
C1244 C 0.09088 0.22968 0.46494 0.0
C1245 C 0.11541 0.31698 0.49774 0.0
C1246 C 0.08199 0.28255 0.49856 0.0
C1247 C 0.07598 0.25399 0.48843 0.0
C1248 C 0.05047 0.27748 0.50809 0.0
C1249 C 0.12359 0.34803 0.50873 0.0
C1250 C 0.03638 0.25086 0.51976 0.0
C1251 C 0.00337 0.24275 0.52722 0.0
C1252 C 0.98358 0.26055 0.52283 0.0
C1253 C -0.00153 0.28799 0.51145 0.0
C1254 C 0.03167 0.29647 0.5042 0.0
H1255 H 0.15384 0.36847 0.5093 0.0
H1256 H 0.10907 0.36287 0.50487 0.0
H1257 H 0.11339 0.33694 0.52033 0.0
H1258 H 0.05034 0.23564 0.52277 0.0
H1259 H 0.99239 0.22123 0.53585 0.0
H1260 H 0.66978 0.97062 0.67216 0.0
H1261 H 0.71145 0.02643 0.65779 0.0
H1262 H 0.80112 0.04846 0.68851 0.0
H1263 H 0.75949 0.99234 0.70307 0.0
H1264 H 0.76124 0.10582 0.66751 0.0
H1265 H 0.83369 0.03379 0.64447 0.0
H1266 H 0.78827 0.0083 0.65313 0.0
H1267 H 0.82845 0.03513 0.66478 0.0
C1268 C 0.6982 0.98755 0.67604 0.0
C1269 C 0.71139 0.97681 0.68869 0.0
C1270 C 0.72192 0.01953 0.66784 0.0
C1271 C 0.75934 0.04126 0.67203 0.0
C1272 C 0.77231 0.03182 0.68508 0.0
H1273 H 0.91549 0.19123 0.60294 0.0
H1274 H 0.89432 0.1626 0.62811 0.0
C1275 C 0.74845 -0.00014 0.6934 0.0
C1276 C 0.78494 0.07167 0.66182 0.0
H1277 H 0.84658 0.08972 0.63294 0.0
C1278 C 0.78051 0.10279 0.66014 0.0
C1279 C 0.81017 0.06765 0.65233 0.0
C1280 C 0.81556 0.03443 0.65363 0.0
C1281 C 0.79942 0.12919 0.64868 0.0
C1282 C 0.82252 0.12369 0.63843 0.0
C1283 C 0.82879 0.09385 0.64077 0.0
C1284 C 0.83649 0.14538 0.62414 0.0
C1285 C 0.7937 0.16218 0.64742 0.0
C1286 C 0.81107 0.14527 0.61359 0.0
C1287 C 0.82302 0.16151 0.59929 0.0
C1288 C 0.86065 0.17789 0.59514 0.0
C1289 C 0.88633 0.17886 0.60582 0.0
C1290 C 0.87429 0.16257 0.6202 0.0
H1291 H 0.78767 0.16991 0.65874 0.0
H1292 H 0.81845 0.1867 0.64249 0.0
H1293 H 0.76943 0.15486 0.63996 0.0
H1294 H 0.78164 0.13127 0.61618 0.0
H1295 H 0.8025 0.16017 0.59131 0.0
loop_
_geom_bond_atom_site_label_1
_geom_bond_atom_site_label_2
_geom_bond_distance
_geom_bond_site_symmetry_2
_ccdc_geom_bond_type
Mn0 O5 2.095 . S
Mn0 O15 2.162 . S
Mn0 O16 2.297 . S
Mn0 O24 2.385 . S
Mn0 O25 2.209 . S
Mn0 O26 2.094 . S
Mn1 O6 2.121 . S
Mn1 N8 2.257 . S
Mn1 N17 2.282 . S
Mn1 O25 2.215 . S
Mn1 O27 2.117 . S
C2 O24 1.234 . S
C2 O25 1.283 . S
C3 O15 1.281 . S
C3 O16 1.236 . S
C4 O26 1.240 . S
C4 O27 1.264 . S
O5 Mn0 2.095 . S
O5 C14 1.250 . S
O6 Mn1 2.121 . S
O6 C14 1.258 . S
C7 N8 1.326 . S
C7 C11 1.460 . S
C7 H13 0.929 . S
N8 Mn1 2.257 . S
N8 C7 1.326 . S
N8 C12 1.362 . S
C9 C10 1.258 . S
C9 C12 1.431 . S
C9 C29 1.449 . S
C10 C9 1.258 . S
C10 C11 1.477 . S
C10 H30 0.931 . S
C11 C7 1.460 . S
C11 C10 1.477 . S
C11 H31 0.930 . S
C12 N8 1.362 . S
C12 C9 1.431 . S
C12 C22 1.476 . S
H13 C7 0.929 . S
C14 O5 1.250 . S
C14 O6 1.258 . S
O15 Mn0 2.162 . S
O15 C3 1.281 . S
O16 Mn0 2.297 . S
O16 C3 1.236 . S
N17 Mn1 2.282 . S
N17 C18 1.328 . S
N17 C22 1.318 . S
C18 N17 1.328 . S
C18 C19 1.457 . S
C18 H23 0.929 . S
C19 C18 1.457 . S
C19 C20 1.291 . S
C19 H32 0.931 . S
C20 C19 1.291 . S
C20 C21 1.373 . S
C20 H33 0.929 . S
C21 C20 1.373 . S
C21 C22 1.396 . S
C21 C28 1.403 . S
C22 C12 1.476 . S
C22 N17 1.318 . S
C22 C21 1.396 . S
H23 C18 0.929 . S
O24 Mn0 2.385 . S
O24 C2 1.234 . S
O25 Mn0 2.209 . S
O25 Mn1 2.215 . S
O25 C2 1.283 . S
O26 Mn0 2.094 . S
O26 C4 1.240 . S
O27 Mn1 2.117 . S
O27 C4 1.264 . S
C28 C21 1.403 . S
C28 C29 1.399 . S
C28 H34 0.929 . S
C29 C9 1.449 . S
C29 C28 1.399 . S
C29 H35 0.930 . S
H30 C10 0.931 . S
H31 C11 0.930 . S
H32 C19 0.931 . S
H33 C20 0.929 . S
H34 C28 0.929 . S
H35 C29 0.930 . S
Mn36 O41 2.095 . S
Mn36 O51 2.162 . S
Mn36 O52 2.297 . S
Mn36 O60 2.385 . S
Mn36 O61 2.209 . S
Mn36 O62 2.094 . S
Mn37 O42 2.121 . S
Mn37 N44 2.257 . S
Mn37 N53 2.282 . S
Mn37 O61 2.215 . S
Mn37 O63 2.117 . S
C38 O60 1.234 . S
C38 O61 1.283 . S
C39 O51 1.281 . S
C39 O52 1.236 . S
C40 O62 1.240 . S
C40 O63 1.264 . S
O41 Mn36 2.095 . S
O41 C50 1.250 . S
O42 Mn37 2.121 . S
O42 C50 1.258 . S
C43 N44 1.326 . S
C43 C47 1.460 . S
C43 H49 0.929 . S
N44 Mn37 2.257 . S
N44 C43 1.326 . S
N44 C48 1.362 . S
C45 C46 1.258 . S
C45 C48 1.431 . S
C45 C65 1.449 . S
C46 C45 1.258 . S
C46 C47 1.477 . S
C46 H66 0.931 . S
C47 C43 1.460 . S
C47 C46 1.477 . S
C47 H67 0.930 . S
C48 N44 1.362 . S
C48 C45 1.431 . S
C48 C58 1.476 . S
H49 C43 0.929 . S
C50 O41 1.250 . S
C50 O42 1.258 . S
O51 Mn36 2.162 . S
O51 C39 1.281 . S
O52 Mn36 2.297 . S
O52 C39 1.236 . S
N53 Mn37 2.282 . S
N53 C54 1.328 . S
N53 C58 1.318 . S
C54 N53 1.328 . S
C54 C55 1.457 . S
C54 H59 0.929 . S
C55 C54 1.457 . S
C55 C56 1.291 . S
C55 H68 0.931 . S
C56 C55 1.291 . S
C56 C57 1.373 . S
C56 H69 0.929 . S
C57 C56 1.373 . S
C57 C58 1.396 . S
C57 C64 1.403 . S
C58 C48 1.476 . S
C58 N53 1.318 . S
C58 C57 1.396 . S
H59 C54 0.929 . S
O60 Mn36 2.385 . S
O60 C38 1.234 . S
O61 Mn36 2.209 . S
O61 Mn37 2.215 . S
O61 C38 1.283 . S
O62 Mn36 2.094 . S
O62 C40 1.240 . S
O63 Mn37 2.117 . S
O63 C40 1.264 . S
C64 C57 1.403 . S
C64 C65 1.399 . S
C64 H70 0.929 . S
C65 C45 1.449 . S
C65 C64 1.399 . S
C65 H71 0.930 . S
H66 C46 0.931 . S
H67 C47 0.930 . S
H68 C55 0.931 . S
H69 C56 0.929 . S
H70 C64 0.929 . S
H71 C65 0.930 . S
Mn72 O77 2.095 . S
Mn72 O87 2.162 . S
Mn72 O88 2.297 . S
Mn72 O96 2.385 . S
Mn72 O97 2.209 . S
Mn72 O98 2.094 . S
Mn73 O78 2.121 . S
Mn73 N80 2.257 . S
Mn73 N89 2.282 . S
Mn73 O97 2.215 . S
Mn73 O99 2.117 . S
C74 O96 1.234 . S
C74 O97 1.283 . S
C75 O87 1.281 . S
C75 O88 1.236 . S
C76 O98 1.240 . S
C76 O99 1.264 . S
O77 Mn72 2.095 . S
O77 C86 1.250 . S
O78 Mn73 2.121 . S
O78 C86 1.258 . S
C79 N80 1.326 . S
C79 C83 1.460 . S
C79 H85 0.929 . S
N80 Mn73 2.257 . S
N80 C79 1.326 . S
N80 C84 1.362 . S
C81 C82 1.258 . S
C81 C84 1.431 . S
C81 C101 1.449 . S
C82 C81 1.258 . S
C82 C83 1.477 . S
C82 H102 0.931 . S
C83 C79 1.460 . S
C83 C82 1.477 . S
C83 H103 0.930 . S
C84 N80 1.362 . S
C84 C81 1.431 . S
C84 C94 1.476 . S
H85 C79 0.929 . S
C86 O77 1.250 . S
C86 O78 1.258 . S
O87 Mn72 2.162 . S
O87 C75 1.281 . S
O88 Mn72 2.297 . S
O88 C75 1.236 . S
N89 Mn73 2.282 . S
N89 C90 1.328 . S
N89 C94 1.318 . S
C90 N89 1.328 . S
C90 C91 1.457 . S
C90 H95 0.929 . S
C91 C90 1.457 . S
C91 C92 1.291 . S
C91 H104 0.931 . S
C92 C91 1.291 . S
C92 C93 1.373 . S
C92 H105 0.929 . S
C93 C92 1.373 . S
C93 C94 1.396 . S
C93 C100 1.403 . S
C94 C84 1.476 . S
C94 N89 1.318 . S
C94 C93 1.396 . S
H95 C90 0.929 . S
O96 Mn72 2.385 . S
O96 C74 1.234 . S
O97 Mn72 2.209 . S
O97 Mn73 2.215 . S
O97 C74 1.283 . S
O98 Mn72 2.094 . S
O98 C76 1.240 . S
O99 Mn73 2.117 . S
O99 C76 1.264 . S
C100 C93 1.403 . S
C100 C101 1.399 . S
C100 H106 0.929 . S
C101 C81 1.449 . S
C101 C100 1.399 . S
C101 H107 0.930 . S
H102 C82 0.931 . S
H103 C83 0.930 . S
H104 C91 0.931 . S
H105 C92 0.929 . S
H106 C100 0.929 . S
H107 C101 0.930 . S
Mn108 O113 2.095 . S
Mn108 O123 2.162 . S
Mn108 O124 2.297 . S
Mn108 O132 2.385 . S
Mn108 O133 2.209 . S
Mn108 O134 2.094 . S
Mn109 O114 2.121 . S
Mn109 N116 2.257 . S
Mn109 N125 2.282 . S
Mn109 O133 2.215 . S
Mn109 O135 2.117 . S
C110 O132 1.234 . S
C110 O133 1.283 . S
C111 O123 1.281 . S
C111 O124 1.236 . S
C112 O134 1.240 . S
C112 O135 1.264 . S
O113 Mn108 2.095 . S
O113 C122 1.250 . S
O114 Mn109 2.121 . S
O114 C122 1.258 . S
C115 N116 1.326 . S
C115 C119 1.460 . S
C115 H121 0.929 . S
N116 Mn109 2.257 . S
N116 C115 1.326 . S
N116 C120 1.362 . S
C117 C118 1.258 . S
C117 C120 1.431 . S
C117 C137 1.449 . S
C118 C117 1.258 . S
C118 C119 1.477 . S
C118 H138 0.931 . S
C119 C115 1.460 . S
C119 C118 1.477 . S
C119 H139 0.930 . S
C120 N116 1.362 . S
C120 C117 1.431 . S
C120 C130 1.476 . S
H121 C115 0.929 . S
C122 O113 1.250 . S
C122 O114 1.258 . S
O123 Mn108 2.162 . S
O123 C111 1.281 . S
O124 Mn108 2.297 . S
O124 C111 1.236 . S
N125 Mn109 2.282 . S
N125 C126 1.328 . S
N125 C130 1.318 . S
C126 N125 1.328 . S
C126 C127 1.457 . S
C126 H131 0.929 . S
C127 C126 1.457 . S
C127 C128 1.291 . S
C127 H140 0.931 . S
C128 C127 1.291 . S
C128 C129 1.373 . S
C128 H141 0.929 . S
C129 C128 1.373 . S
C129 C130 1.396 . S
C129 C136 1.403 . S
C130 C120 1.476 . S
C130 N125 1.318 . S
C130 C129 1.396 . S
H131 C126 0.929 . S
O132 Mn108 2.385 . S
O132 C110 1.234 . S
O133 Mn108 2.209 . S
O133 Mn109 2.215 . S
O133 C110 1.283 . S
O134 Mn108 2.094 . S
O134 C112 1.240 . S
O135 Mn109 2.117 . S
O135 C112 1.264 . S
C136 C129 1.403 . S
C136 C137 1.399 . S
C136 H142 0.929 . S
C137 C117 1.449 . S
C137 C136 1.399 . S
C137 H143 0.930 . S
H138 C118 0.931 . S
H139 C119 0.930 . S
H140 C127 0.931 . S
H141 C128 0.929 . S
H142 C136 0.929 . S
H143 C137 0.930 . S
Mn144 O149 2.095 . S
Mn144 O159 2.162 . S
Mn144 O160 2.297 . S
Mn144 O168 2.385 . S
Mn144 O169 2.209 . S
Mn144 O170 2.094 . S
Mn145 O150 2.121 . S
Mn145 N152 2.257 . S
Mn145 N161 2.282 . S
Mn145 O169 2.215 . S
Mn145 O171 2.117 . S
C146 O168 1.234 . S
C146 O169 1.283 . S
C147 O159 1.281 . S
C147 O160 1.236 . S
C148 O170 1.240 . S
C148 O171 1.264 . S
O149 Mn144 2.095 . S
O149 C158 1.250 . S
O150 Mn145 2.121 . S
O150 C158 1.258 . S
C151 N152 1.326 . S
C151 C155 1.460 . S
C151 H157 0.929 . S
N152 Mn145 2.257 . S
N152 C151 1.326 . S
N152 C156 1.362 . S
C153 C154 1.258 . S
C153 C156 1.431 . S
C153 C173 1.449 . S
C154 C153 1.258 . S
C154 C155 1.477 . S
C154 H174 0.931 . S
C155 C151 1.460 . S
C155 C154 1.477 . S
C155 H175 0.930 . S
C156 N152 1.362 . S
C156 C153 1.431 . S
C156 C166 1.476 . S
H157 C151 0.929 . S
C158 O149 1.250 . S
C158 O150 1.258 . S
O159 Mn144 2.162 . S
O159 C147 1.281 . S
O160 Mn144 2.297 . S
O160 C147 1.236 . S
N161 Mn145 2.282 . S
N161 C162 1.328 . S
N161 C166 1.318 . S
C162 N161 1.328 . S
C162 C163 1.457 . S
C162 H167 0.929 . S
C163 C162 1.457 . S
C163 C164 1.291 . S
C163 H176 0.931 . S
C164 C163 1.291 . S
C164 C165 1.373 . S
C164 H177 0.929 . S
C165 C164 1.373 . S
C165 C166 1.396 . S
C165 C172 1.403 . S
C166 C156 1.476 . S
C166 N161 1.318 . S
C166 C165 1.396 . S
H167 C162 0.929 . S
O168 Mn144 2.385 . S
O168 C146 1.234 . S
O169 Mn144 2.209 . S
O169 Mn145 2.215 . S
O169 C146 1.283 . S
O170 Mn144 2.094 . S
O170 C148 1.240 . S
O171 Mn145 2.117 . S
O171 C148 1.264 . S
C172 C165 1.403 . S
C172 C173 1.399 . S
C172 H178 0.929 . S
C173 C153 1.449 . S
C173 C172 1.399 . S
C173 H179 0.930 . S
H174 C154 0.931 . S
H175 C155 0.930 . S
H176 C163 0.931 . S
H177 C164 0.929 . S
H178 C172 0.929 . S
H179 C173 0.930 . S
Mn180 O185 2.095 . S
Mn180 O195 2.162 . S
Mn180 O196 2.297 . S
Mn180 O204 2.385 . S
Mn180 O205 2.209 . S
Mn180 O206 2.094 . S
Mn181 O186 2.121 . S
Mn181 N188 2.257 . S
Mn181 N197 2.282 . S
Mn181 O205 2.215 . S
Mn181 O207 2.117 . S
C182 O204 1.234 . S
C182 O205 1.283 . S
C183 O195 1.281 . S
C183 O196 1.236 . S
C184 O206 1.240 . S
C184 O207 1.264 . S
O185 Mn180 2.095 . S
O185 C194 1.250 . S
O186 Mn181 2.121 . S
O186 C194 1.258 . S
C187 N188 1.326 . S
C187 C191 1.460 . S
C187 H193 0.929 . S
N188 Mn181 2.257 . S
N188 C187 1.326 . S
N188 C192 1.362 . S
C189 C190 1.258 1_554 S
C189 C192 1.431 1_554 S
C189 C209 1.449 . S
C190 C189 1.258 1_556 S
C190 C191 1.477 . S
C190 H210 0.931 1_556 S
C191 C187 1.460 . S
C191 C190 1.477 . S
C191 H211 0.930 . S
C192 N188 1.362 . S
C192 C189 1.431 1_556 S
C192 C202 1.502 . S
H193 C187 0.929 . S
C194 O185 1.250 . S
C194 O186 1.258 . S
O195 Mn180 2.162 . S
O195 C183 1.281 . S
O196 Mn180 2.297 . S
O196 C183 1.236 . S
N197 Mn181 2.282 . S
N197 C198 1.328 . S
N197 C202 1.356 . S
C198 N197 1.328 . S
C198 C199 1.457 1_556 S
C198 H203 0.929 . S
C199 C198 1.457 1_554 S
C199 C200 1.291 . S
C199 H212 0.931 . S
C200 C199 1.291 . S
C200 C201 1.373 . S
C200 H213 0.929 . S
C201 C200 1.373 . S
C201 C202 1.337 1_554 S
C201 C208 1.403 . S
C202 C192 1.502 . S
C202 N197 1.356 . S
C202 C201 1.337 1_556 S
H203 C198 0.929 . S
O204 Mn180 2.385 . S
O204 C182 1.234 . S
O205 Mn180 2.209 . S
O205 Mn181 2.215 . S
O205 C182 1.283 . S
O206 Mn180 2.094 . S
O206 C184 1.240 . S
O207 Mn181 2.117 . S
O207 C184 1.264 . S
C208 C201 1.403 . S
C208 C209 1.399 . S
C208 H214 0.929 . S
C209 C189 1.449 . S
C209 C208 1.399 . S
C209 H215 0.930 . S
H210 C190 0.931 1_554 S
H211 C191 0.930 . S
H212 C199 0.931 . S
H213 C200 0.929 . S
H214 C208 0.929 . S
H215 C209 0.930 . S
Mn216 O221 2.095 . S
Mn216 O231 2.162 . S
Mn216 O232 2.297 . S
Mn216 O240 2.385 . S
Mn216 O241 2.209 . S
Mn216 O242 2.094 . S
Mn217 O222 2.121 . S
Mn217 N224 2.257 . S
Mn217 N233 2.282 . S
Mn217 O241 2.215 . S
Mn217 O243 2.117 . S
C218 O240 1.234 . S
C218 O241 1.283 . S
C219 O231 1.281 . S
C219 O232 1.236 . S
C220 O242 1.240 . S
C220 O243 1.264 . S
O221 Mn216 2.095 . S
O221 C230 1.250 . S
O222 Mn217 2.121 . S
O222 C230 1.258 . S
C223 N224 1.326 . S
C223 C227 1.460 . S
C223 H229 0.929 . S
N224 Mn217 2.257 . S
N224 C223 1.326 . S
N224 C228 1.362 . S
C225 C226 1.258 . S
C225 C228 1.431 . S
C225 C245 1.449 . S
C226 C225 1.258 . S
C226 C227 1.477 . S
C226 H246 0.931 . S
C227 C223 1.460 . S
C227 C226 1.477 . S
C227 H247 0.930 . S
C228 N224 1.362 . S
C228 C225 1.431 . S
C228 C238 1.476 . S
H229 C223 0.929 . S
C230 O221 1.250 . S
C230 O222 1.258 . S
O231 Mn216 2.162 . S
O231 C219 1.281 . S
O232 Mn216 2.297 . S
O232 C219 1.236 . S
N233 Mn217 2.282 . S
N233 C234 1.328 . S
N233 C238 1.318 . S
C234 N233 1.328 . S
C234 C235 1.457 . S
C234 H239 0.929 . S
C235 C234 1.457 . S
C235 C236 1.291 . S
C235 H248 0.931 . S
C236 C235 1.291 . S
C236 C237 1.373 . S
C236 H249 0.929 . S
C237 C236 1.373 . S
C237 C238 1.396 . S
C237 C244 1.403 . S
C238 C228 1.476 . S
C238 N233 1.318 . S
C238 C237 1.396 . S
H239 C234 0.929 . S
O240 Mn216 2.385 . S
O240 C218 1.234 . S
O241 Mn216 2.209 . S
O241 Mn217 2.215 . S
O241 C218 1.283 . S
O242 Mn216 2.094 . S
O242 C220 1.240 . S
O243 Mn217 2.117 . S
O243 C220 1.264 . S
C244 C237 1.403 . S
C244 C245 1.399 . S
C244 H250 0.929 . S
C245 C225 1.449 . S
C245 C244 1.399 . S
C245 H251 0.930 . S
H246 C226 0.931 . S
H247 C227 0.930 . S
H248 C235 0.931 . S
H249 C236 0.929 . S
H250 C244 0.929 . S
H251 C245 0.930 . S
Mn252 O257 2.095 . S
Mn252 O267 2.162 . S
Mn252 O268 2.297 . S
Mn252 O276 2.385 . S
Mn252 O277 2.209 . S
Mn252 O278 2.094 . S
Mn253 O258 2.121 . S
Mn253 N260 2.257 . S
Mn253 N269 2.282 . S
Mn253 O277 2.215 . S
Mn253 O279 2.117 . S
C254 O276 1.234 . S
C254 O277 1.283 . S
C255 O267 1.281 . S
C255 O268 1.236 . S
C256 O278 1.240 . S
C256 O279 1.264 . S
O257 Mn252 2.095 . S
O257 C266 1.250 . S
O258 Mn253 2.121 . S
O258 C266 1.258 . S
C259 N260 1.326 . S
C259 C263 1.460 . S
C259 H265 0.929 . S
N260 Mn253 2.257 . S
N260 C259 1.326 . S
N260 C264 1.362 . S
C261 C262 1.258 . S
C261 C264 1.431 . S
C261 C281 1.449 . S
C262 C261 1.258 . S
C262 C263 1.477 . S
C262 H282 0.931 . S
C263 C259 1.460 . S
C263 C262 1.477 . S
C263 H283 0.930 . S
C264 N260 1.362 . S
C264 C261 1.431 . S
C264 C274 1.476 . S
H265 C259 0.929 . S
C266 O257 1.250 . S
C266 O258 1.258 . S
O267 Mn252 2.162 . S
O267 C255 1.281 . S
O268 Mn252 2.297 . S
O268 C255 1.236 . S
N269 Mn253 2.282 . S
N269 C270 1.328 . S
N269 C274 1.318 . S
C270 N269 1.328 . S
C270 C271 1.457 . S
C270 H275 0.929 . S
C271 C270 1.457 . S
C271 C272 1.291 . S
C271 H284 0.931 . S
C272 C271 1.291 . S
C272 C273 1.373 . S
C272 H285 0.929 . S
C273 C272 1.373 . S
C273 C274 1.396 . S
C273 C280 1.403 . S
C274 C264 1.476 . S
C274 N269 1.318 . S
C274 C273 1.396 . S
H275 C270 0.929 . S
O276 Mn252 2.385 . S
O276 C254 1.234 . S
O277 Mn252 2.209 . S
O277 Mn253 2.215 . S
O277 C254 1.283 . S
O278 Mn252 2.094 . S
O278 C256 1.240 . S
O279 Mn253 2.117 . S
O279 C256 1.264 . S
C280 C273 1.403 . S
C280 C281 1.399 . S
C280 H286 0.929 . S
C281 C261 1.449 . S
C281 C280 1.399 . S
C281 H287 0.930 . S
H282 C262 0.931 . S
H283 C263 0.930 . S
H284 C271 0.931 . S
H285 C272 0.929 . S
H286 C280 0.929 . S
H287 C281 0.930 . S
Mn288 O293 2.095 . S
Mn288 O303 2.162 . S
Mn288 O304 2.297 . S
Mn288 O312 2.385 . S
Mn288 O313 2.209 . S
Mn288 O314 2.094 . S
Mn289 O294 2.121 . S
Mn289 N296 2.257 . S
Mn289 N305 2.282 . S
Mn289 O313 2.215 . S
Mn289 O315 2.117 . S
C290 O312 1.234 . S
C290 O313 1.283 . S
C291 O303 1.281 . S
C291 O304 1.236 . S
C292 O314 1.240 . S
C292 O315 1.264 . S
O293 Mn288 2.095 . S
O293 C302 1.250 . S
O294 Mn289 2.121 . S
O294 C302 1.258 . S
C295 N296 1.326 . S
C295 C299 1.460 . S
C295 H301 0.929 . S
N296 Mn289 2.257 . S
N296 C295 1.326 . S
N296 C300 1.362 . S
C297 C298 1.258 1_556 S
C297 C300 1.431 1_556 S
C297 C317 1.449 . S
C298 C297 1.258 1_554 S
C298 C299 1.477 . S
C298 H318 0.931 1_554 S
C299 C295 1.460 . S
C299 C298 1.477 . S
C299 H319 0.930 . S
C300 N296 1.362 . S
C300 C297 1.431 1_554 S
C300 C310 1.502 . S
H301 C295 0.929 . S
C302 O293 1.250 . S
C302 O294 1.258 . S
O303 Mn288 2.162 . S
O303 C291 1.281 . S
O304 Mn288 2.297 . S
O304 C291 1.236 . S
N305 Mn289 2.282 . S
N305 C306 1.328 . S
N305 C310 1.357 . S
C306 N305 1.328 . S
C306 C307 1.457 1_554 S
C306 H311 0.929 . S
C307 C306 1.457 1_556 S
C307 C308 1.291 . S
C307 H320 0.931 . S
C308 C307 1.291 . S
C308 C309 1.373 . S
C308 H321 0.929 . S
C309 C308 1.373 . S
C309 C310 1.337 1_556 S
C309 C316 1.403 . S
C310 C300 1.502 . S
C310 N305 1.357 . S
C310 C309 1.337 1_554 S
H311 C306 0.929 . S
O312 Mn288 2.385 . S
O312 C290 1.234 . S
O313 Mn288 2.209 . S
O313 Mn289 2.215 . S
O313 C290 1.283 . S
O314 Mn288 2.094 . S
O314 C292 1.240 . S
O315 Mn289 2.117 . S
O315 C292 1.264 . S
C316 C309 1.403 . S
C316 C317 1.399 . S
C316 H322 0.929 . S
C317 C297 1.449 . S
C317 C316 1.399 . S
C317 H323 0.930 . S
H318 C298 0.931 1_556 S
H319 C299 0.930 . S
H320 C307 0.931 . S
H321 C308 0.929 . S
H322 C316 0.929 . S
H323 C317 0.930 . S
Mn324 O329 2.095 . S
Mn324 O339 2.162 . S
Mn324 O340 2.297 . S
Mn324 O348 2.385 . S
Mn324 O349 2.209 . S
Mn324 O350 2.094 . S
Mn325 O330 2.121 . S
Mn325 N332 2.257 . S
Mn325 N341 2.282 . S
Mn325 O349 2.215 . S
Mn325 O351 2.117 . S
C326 O348 1.234 . S
C326 O349 1.283 . S
C327 O339 1.281 . S
C327 O340 1.236 . S
C328 O350 1.240 . S
C328 O351 1.264 . S
O329 Mn324 2.095 . S
O329 C338 1.250 . S
O330 Mn325 2.121 . S
O330 C338 1.258 . S
C331 N332 1.326 . S
C331 C335 1.460 . S
C331 H337 0.929 . S
N332 Mn325 2.257 . S
N332 C331 1.326 . S
N332 C336 1.362 . S
C333 C334 1.258 . S
C333 C336 1.431 . S
C333 C353 1.449 . S
C334 C333 1.258 . S
C334 C335 1.477 . S
C334 H354 0.931 . S
C335 C331 1.460 . S
C335 C334 1.477 . S
C335 H355 0.930 . S
C336 N332 1.362 . S
C336 C333 1.431 . S
C336 C346 1.476 . S
H337 C331 0.929 . S
C338 O329 1.250 . S
C338 O330 1.258 . S
O339 Mn324 2.162 . S
O339 C327 1.281 . S
O340 Mn324 2.297 . S
O340 C327 1.236 . S
N341 Mn325 2.282 . S
N341 C342 1.328 . S
N341 C346 1.318 . S
C342 N341 1.328 . S
C342 C343 1.457 . S
C342 H347 0.929 . S
C343 C342 1.457 . S
C343 C344 1.291 . S
C343 H356 0.931 . S
C344 C343 1.291 . S
C344 C345 1.373 . S
C344 H357 0.929 . S
C345 C344 1.373 . S
C345 C346 1.396 . S
C345 C352 1.403 . S
C346 C336 1.476 . S
C346 N341 1.318 . S
C346 C345 1.396 . S
H347 C342 0.929 . S
O348 Mn324 2.385 . S
O348 C326 1.234 . S
O349 Mn324 2.209 . S
O349 Mn325 2.215 . S
O349 C326 1.283 . S
O350 Mn324 2.094 . S
O350 C328 1.240 . S
O351 Mn325 2.117 . S
O351 C328 1.264 . S
C352 C345 1.403 . S
C352 C353 1.399 . S
C352 H358 0.929 . S
C353 C333 1.449 . S
C353 C352 1.399 . S
C353 H359 0.930 . S
H354 C334 0.931 . S
H355 C335 0.930 . S
H356 C343 0.931 . S
H357 C344 0.929 . S
H358 C352 0.929 . S
H359 C353 0.930 . S
Mn360 O365 2.095 . S
Mn360 O375 2.162 . S
Mn360 O376 2.297 . S
Mn360 O384 2.385 . S
Mn360 O385 2.209 . S
Mn360 O386 2.094 . S
Mn361 O366 2.121 . S
Mn361 N368 2.257 . S
Mn361 N377 2.282 . S
Mn361 O385 2.215 . S
Mn361 O387 2.117 . S
C362 O384 1.234 . S
C362 O385 1.283 . S
C363 O375 1.281 . S
C363 O376 1.236 . S
C364 O386 1.240 . S
C364 O387 1.264 . S
O365 Mn360 2.095 . S
O365 C374 1.250 . S
O366 Mn361 2.121 . S
O366 C374 1.258 . S
C367 N368 1.326 . S
C367 C371 1.460 . S
C367 H373 0.929 . S
N368 Mn361 2.257 . S
N368 C367 1.326 . S
N368 C372 1.362 . S
C369 C370 1.258 . S
C369 C372 1.431 . S
C369 C389 1.449 . S
C370 C369 1.258 . S
C370 C371 1.477 . S
C370 H390 0.931 . S
C371 C367 1.460 . S
C371 C370 1.477 . S
C371 H391 0.930 . S
C372 N368 1.362 . S
C372 C369 1.431 . S
C372 C382 1.476 . S
H373 C367 0.929 . S
C374 O365 1.250 . S
C374 O366 1.258 . S
O375 Mn360 2.162 . S
O375 C363 1.281 . S
O376 Mn360 2.297 . S
O376 C363 1.236 . S
N377 Mn361 2.282 . S
N377 C378 1.328 . S
N377 C382 1.318 . S
C378 N377 1.328 . S
C378 C379 1.457 . S
C378 H383 0.929 . S
C379 C378 1.457 . S
C379 C380 1.291 . S
C379 H392 0.931 . S
C380 C379 1.291 . S
C380 C381 1.373 . S
C380 H393 0.929 . S
C381 C380 1.373 . S
C381 C382 1.396 . S
C381 C388 1.403 . S
C382 C372 1.476 . S
C382 N377 1.318 . S
C382 C381 1.396 . S
H383 C378 0.929 . S
O384 Mn360 2.385 . S
O384 C362 1.234 . S
O385 Mn360 2.209 . S
O385 Mn361 2.215 . S
O385 C362 1.283 . S
O386 Mn360 2.094 . S
O386 C364 1.240 . S
O387 Mn361 2.117 . S
O387 C364 1.264 . S
C388 C381 1.403 . S
C388 C389 1.399 . S
C388 H394 0.929 . S
C389 C369 1.449 . S
C389 C388 1.399 . S
C389 H395 0.930 . S
H390 C370 0.931 . S
H391 C371 0.930 . S
H392 C379 0.931 . S
H393 C380 0.929 . S
H394 C388 0.929 . S
H395 C389 0.930 . S
Mn396 O401 2.095 . S
Mn396 O411 2.162 . S
Mn396 O412 2.297 . S
Mn396 O420 2.385 . S
Mn396 O421 2.209 . S
Mn396 O422 2.094 . S
Mn397 O402 2.121 . S
Mn397 N404 2.257 . S
Mn397 N413 2.282 . S
Mn397 O421 2.215 . S
Mn397 O423 2.117 . S
C398 O420 1.234 . S
C398 O421 1.283 . S
C399 O411 1.281 . S
C399 O412 1.236 . S
C400 O422 1.240 . S
C400 O423 1.264 . S
O401 Mn396 2.095 . S
O401 C410 1.250 . S
O402 Mn397 2.121 . S
O402 C410 1.258 . S
C403 N404 1.326 . S
C403 C407 1.460 . S
C403 H409 0.929 . S
N404 Mn397 2.257 . S
N404 C403 1.326 . S
N404 C408 1.362 . S
C405 C406 1.258 . S
C405 C408 1.431 . S
C405 C425 1.449 . S
C406 C405 1.258 . S
C406 C407 1.477 . S
C406 H426 0.931 . S
C407 C403 1.460 . S
C407 C406 1.477 . S
C407 H427 0.930 . S
C408 N404 1.362 . S
C408 C405 1.431 . S
C408 C418 1.476 . S
H409 C403 0.929 . S
C410 O401 1.250 . S
C410 O402 1.258 . S
O411 Mn396 2.162 . S
O411 C399 1.281 . S
O412 Mn396 2.297 . S
O412 C399 1.236 . S
N413 Mn397 2.282 . S
N413 C414 1.328 . S
N413 C418 1.318 . S
C414 N413 1.328 . S
C414 C415 1.457 . S
C414 H419 0.929 . S
C415 C414 1.457 . S
C415 C416 1.291 . S
C415 H428 0.931 . S
C416 C415 1.291 . S
C416 C417 1.373 . S
C416 H429 0.929 . S
C417 C416 1.373 . S
C417 C418 1.396 . S
C417 C424 1.403 . S
C418 C408 1.476 . S
C418 N413 1.318 . S
C418 C417 1.396 . S
H419 C414 0.929 . S
O420 Mn396 2.385 . S
O420 C398 1.234 . S
O421 Mn396 2.209 . S
O421 Mn397 2.215 . S
O421 C398 1.283 . S
O422 Mn396 2.094 . S
O422 C400 1.240 . S
O423 Mn397 2.117 . S
O423 C400 1.264 . S
C424 C417 1.403 . S
C424 C425 1.399 . S
C424 H430 0.929 . S
C425 C405 1.449 . S
C425 C424 1.399 . S
C425 H431 0.930 . S
H426 C406 0.931 . S
H427 C407 0.930 . S
H428 C415 0.931 . S
H429 C416 0.929 . S
H430 C424 0.929 . S
H431 C425 0.930 . S
H432 C440 0.929 . S
H433 C442 0.930 . S
H434 C444 0.930 . S
H435 C447 0.929 . S
H436 C450 0.930 . S
H437 C452 0.960 . S
H438 C452 0.960 . S
H439 C452 0.960 . S
C440 H432 0.929 . S
C440 C441 1.377 . S
C440 C442 1.384 . S
C441 C440 1.377 . S
C441 C447 1.390 . S
C442 H433 0.930 . S
C442 C440 1.384 . S
C442 C443 1.372 . S
C443 C442 1.372 . S
C443 C444 1.400 . S
C443 C448 1.490 . S
C444 H434 0.930 . S
C444 C443 1.400 . S
C444 C447 1.386 . S
H445 C461 0.930 . S
H446 C462 0.931 . S
C447 H435 0.929 . S
C447 C441 1.390 . S
C447 C444 1.386 . S
C448 C443 1.490 . S
C448 C450 1.395 . S
C448 C451 1.403 . S
H449 C455 0.930 . S
C450 H436 0.930 . S
C450 C448 1.395 . S
C450 C453 1.403 . S
C451 C448 1.403 . S
C451 C452 1.524 . S
C451 C455 1.400 . S
C452 H437 0.960 . S
C452 H438 0.960 . S
C452 H439 0.960 . S
C452 C451 1.524 . S
C453 C450 1.403 . S
C453 C454 1.392 . S
C453 C457 1.495 . S
C454 C453 1.392 . S
C454 C455 1.385 . S
C454 C456 1.478 . S
C455 H449 0.930 . S
C455 C451 1.400 . S
C455 C454 1.385 . S
C456 C454 1.478 . S
C456 C458 1.381 . S
C456 C462 1.383 . S
C457 C453 1.495 . S
C457 H463 0.959 . S
C457 H464 0.961 . S
C457 H465 0.960 . S
C458 C456 1.381 . S
C458 C459 1.394 . S
C458 H466 0.930 . S
C459 C458 1.394 . S
C459 C460 1.383 . S
C459 H467 0.929 . S
C460 C459 1.383 . S
C460 C461 1.377 . S
C461 H445 0.930 . S
C461 C460 1.377 . S
C461 C462 1.379 . S
C462 H446 0.931 . S
C462 C456 1.383 . S
C462 C461 1.379 . S
H463 C457 0.959 . S
H464 C457 0.961 . S
H465 C457 0.960 . S
H466 C458 0.930 . S
H467 C459 0.929 . S
H468 C476 0.929 . S
H469 C478 0.930 . S
H470 C480 0.930 . S
H471 C483 0.929 . S
H472 C486 0.930 . S
H473 C488 0.960 . S
H474 C488 0.960 . S
H475 C488 0.960 . S
C476 H468 0.929 . S
C476 C477 1.377 . S
C476 C478 1.384 . S
C477 C476 1.377 . S
C477 C483 1.390 . S
C478 H469 0.930 . S
C478 C476 1.384 . S
C478 C479 1.372 . S
C479 C478 1.372 . S
C479 C480 1.400 . S
C479 C484 1.490 . S
C480 H470 0.930 . S
C480 C479 1.400 . S
C480 C483 1.386 . S
H481 C497 0.930 . S
H482 C498 0.931 . S
C483 H471 0.929 . S
C483 C477 1.390 . S
C483 C480 1.386 . S
C484 C479 1.490 . S
C484 C486 1.395 . S
C484 C487 1.403 . S
H485 C491 0.930 . S
C486 H472 0.930 . S
C486 C484 1.395 . S
C486 C489 1.403 . S
C487 C484 1.403 . S
C487 C488 1.524 . S
C487 C491 1.400 . S
C488 H473 0.960 . S
C488 H474 0.960 . S
C488 H475 0.960 . S
C488 C487 1.524 . S
C489 C486 1.403 . S
C489 C490 1.392 . S
C489 C493 1.495 . S
C490 C489 1.392 . S
C490 C491 1.385 . S
C490 C492 1.478 . S
C491 H485 0.930 . S
C491 C487 1.400 . S
C491 C490 1.385 . S
C492 C490 1.478 . S
C492 C494 1.381 . S
C492 C498 1.383 . S
C493 C489 1.495 . S
C493 H499 0.959 . S
C493 H500 0.961 . S
C493 H501 0.960 . S
C494 C492 1.381 . S
C494 C495 1.394 . S
C494 H502 0.930 . S
C495 C494 1.394 . S
C495 C496 1.383 . S
C495 H503 0.929 . S
C496 C495 1.383 . S
C496 C497 1.377 . S
C497 H481 0.930 . S
C497 C496 1.377 . S
C497 C498 1.379 . S
C498 H482 0.931 . S
C498 C492 1.383 . S
C498 C497 1.379 . S
H499 C493 0.959 . S
H500 C493 0.961 . S
H501 C493 0.960 . S
H502 C494 0.930 . S
H503 C495 0.929 . S
H504 C512 0.929 . S
H505 C514 0.930 . S
H506 C516 0.930 . S
H507 C519 0.929 . S
H508 C522 0.930 . S
H509 C524 0.960 . S
H510 C524 0.960 . S
H511 C524 0.960 . S
C512 H504 0.929 . S
C512 C513 1.377 . S
C512 C514 1.384 . S
C513 C512 1.377 . S
C513 C519 1.390 . S
C514 H505 0.930 . S
C514 C512 1.384 . S
C514 C515 1.372 . S
C515 C514 1.372 . S
C515 C516 1.400 . S
C515 C520 1.490 . S
C516 H506 0.930 . S
C516 C515 1.400 . S
C516 C519 1.386 . S
H517 C533 0.930 . S
H518 C534 0.931 . S
C519 H507 0.929 . S
C519 C513 1.390 . S
C519 C516 1.386 . S
C520 C515 1.490 . S
C520 C522 1.395 . S
C520 C523 1.403 . S
H521 C527 0.930 . S
C522 H508 0.930 . S
C522 C520 1.395 . S
C522 C525 1.403 . S
C523 C520 1.403 . S
C523 C524 1.524 . S
C523 C527 1.400 . S
C524 H509 0.960 . S
C524 H510 0.960 . S
C524 H511 0.960 . S
C524 C523 1.524 . S
C525 C522 1.403 . S
C525 C526 1.392 . S
C525 C529 1.495 . S
C526 C525 1.392 . S
C526 C527 1.385 . S
C526 C528 1.478 . S
C527 H521 0.930 . S
C527 C523 1.400 . S
C527 C526 1.385 . S
C528 C526 1.478 . S
C528 C530 1.381 . S
C528 C534 1.383 . S
C529 C525 1.495 . S
C529 H535 0.959 . S
C529 H536 0.961 . S
C529 H537 0.960 . S
C530 C528 1.381 . S
C530 C531 1.394 . S
C530 H538 0.930 . S
C531 C530 1.394 . S
C531 C532 1.383 . S
C531 H539 0.929 . S
C532 C531 1.383 . S
C532 C533 1.377 . S
C533 H517 0.930 . S
C533 C532 1.377 . S
C533 C534 1.379 . S
C534 H518 0.931 . S
C534 C528 1.383 . S
C534 C533 1.379 . S
H535 C529 0.959 . S
H536 C529 0.961 . S
H537 C529 0.960 . S
H538 C530 0.930 . S
H539 C531 0.929 . S
H540 C548 0.929 . S
H541 C550 0.930 . S
H542 C552 0.930 . S
H543 C555 0.929 . S
H544 C558 0.930 . S
H545 C560 0.960 . S
H546 C560 0.960 . S
H547 C560 0.960 . S
C548 H540 0.929 . S
C548 C549 1.377 . S
C548 C550 1.384 . S
C549 C548 1.377 . S
C549 C555 1.390 . S
C550 H541 0.930 . S
C550 C548 1.384 . S
C550 C551 1.372 . S
C551 C550 1.372 . S
C551 C552 1.400 . S
C551 C556 1.490 . S
C552 H542 0.930 . S
C552 C551 1.400 . S
C552 C555 1.386 . S
H553 C569 0.930 . S
H554 C570 0.931 . S
C555 H543 0.929 . S
C555 C549 1.390 . S
C555 C552 1.386 . S
C556 C551 1.490 . S
C556 C558 1.395 . S
C556 C559 1.403 . S
H557 C563 0.930 . S
C558 H544 0.930 . S
C558 C556 1.395 . S
C558 C561 1.403 . S
C559 C556 1.403 . S
C559 C560 1.524 . S
C559 C563 1.400 . S
C560 H545 0.960 . S
C560 H546 0.960 . S
C560 H547 0.960 . S
C560 C559 1.524 . S
C561 C558 1.403 . S
C561 C562 1.392 . S
C561 C565 1.495 . S
C562 C561 1.392 . S
C562 C563 1.385 . S
C562 C564 1.478 . S
C563 H557 0.930 . S
C563 C559 1.400 . S
C563 C562 1.385 . S
C564 C562 1.478 . S
C564 C566 1.381 . S
C564 C570 1.383 . S
C565 C561 1.495 . S
C565 H571 0.959 . S
C565 H572 0.961 . S
C565 H573 0.960 . S
C566 C564 1.381 . S
C566 C567 1.394 . S
C566 H574 0.930 . S
C567 C566 1.394 . S
C567 C568 1.383 . S
C567 H575 0.929 . S
C568 C567 1.383 . S
C568 C569 1.377 . S
C569 H553 0.930 . S
C569 C568 1.377 . S
C569 C570 1.379 . S
C570 H554 0.931 . S
C570 C564 1.383 . S
C570 C569 1.379 . S
H571 C565 0.959 . S
H572 C565 0.961 . S
H573 C565 0.960 . S
H574 C566 0.930 . S
H575 C567 0.929 . S
H576 C584 0.929 . S
H577 C586 0.930 . S
H578 C588 0.930 . S
H579 C591 0.929 . S
H580 C594 0.930 . S
H581 C596 0.960 . S
H582 C596 0.960 . S
H583 C596 0.960 . S
C584 H576 0.929 . S
C584 C585 1.377 . S
C584 C586 1.384 . S
C585 C584 1.377 . S
C585 C591 1.390 . S
C586 H577 0.930 . S
C586 C584 1.384 . S
C586 C587 1.372 . S
C587 C586 1.372 . S
C587 C588 1.400 . S
C587 C592 1.490 . S
C588 H578 0.930 . S
C588 C587 1.400 . S
C588 C591 1.386 . S
H589 C605 0.930 . S
H590 C606 0.931 . S
C591 H579 0.929 . S
C591 C585 1.390 . S
C591 C588 1.386 . S
C592 C587 1.490 . S
C592 C594 1.395 . S
C592 C595 1.403 . S
H593 C599 0.930 . S
C594 H580 0.930 . S
C594 C592 1.395 . S
C594 C597 1.403 . S
C595 C592 1.403 . S
C595 C596 1.524 . S
C595 C599 1.400 . S
C596 H581 0.960 . S
C596 H582 0.960 . S
C596 H583 0.960 . S
C596 C595 1.524 . S
C597 C594 1.403 . S
C597 C598 1.392 . S
C597 C601 1.495 . S
C598 C597 1.392 . S
C598 C599 1.385 . S
C598 C600 1.478 . S
C599 H593 0.930 . S
C599 C595 1.400 . S
C599 C598 1.385 . S
C600 C598 1.478 . S
C600 C602 1.381 . S
C600 C606 1.383 . S
C601 C597 1.495 . S
C601 H607 0.959 . S
C601 H608 0.961 . S
C601 H609 0.960 . S
C602 C600 1.381 . S
C602 C603 1.394 . S
C602 H610 0.930 . S
C603 C602 1.394 . S
C603 C604 1.383 . S
C603 H611 0.929 . S
C604 C603 1.383 . S
C604 C605 1.377 . S
C605 H589 0.930 . S
C605 C604 1.377 . S
C605 C606 1.379 . S
C606 H590 0.931 . S
C606 C600 1.383 . S
C606 C605 1.379 . S
H607 C601 0.959 . S
H608 C601 0.961 . S
H609 C601 0.960 . S
H610 C602 0.930 . S
H611 C603 0.929 . S
H612 C620 0.929 . S
H613 C622 0.930 . S
H614 C624 0.930 . S
H615 C627 0.929 . S
H616 C630 0.930 . S
H617 C632 0.960 . S
H618 C632 0.960 . S
H619 C632 0.960 . S
C620 H612 0.929 . S
C620 C621 1.377 . S
C620 C622 1.384 . S
C621 C620 1.377 . S
C621 C627 1.390 . S
C622 H613 0.930 . S
C622 C620 1.384 . S
C622 C623 1.372 . S
C623 C622 1.372 . S
C623 C624 1.400 . S
C623 C628 1.490 . S
C624 H614 0.930 . S
C624 C623 1.400 . S
C624 C627 1.386 . S
H625 C641 0.930 . S
H626 C642 0.931 . S
C627 H615 0.929 . S
C627 C621 1.390 . S
C627 C624 1.386 . S
C628 C623 1.490 . S
C628 C630 1.395 . S
C628 C631 1.403 . S
H629 C635 0.930 . S
C630 H616 0.930 . S
C630 C628 1.395 . S
C630 C633 1.403 . S
C631 C628 1.403 . S
C631 C632 1.524 . S
C631 C635 1.400 . S
C632 H617 0.960 . S
C632 H618 0.960 . S
C632 H619 0.960 . S
C632 C631 1.524 . S
C633 C630 1.403 . S
C633 C634 1.392 . S
C633 C637 1.495 . S
C634 C633 1.392 . S
C634 C635 1.385 . S
C634 C636 1.478 . S
C635 H629 0.930 . S
C635 C631 1.400 . S
C635 C634 1.385 . S
C636 C634 1.478 . S
C636 C638 1.381 . S
C636 C642 1.383 . S
C637 C633 1.495 . S
C637 H643 0.959 . S
C637 H644 0.961 . S
C637 H645 0.960 . S
C638 C636 1.381 . S
C638 C639 1.394 . S
C638 H646 0.930 . S
C639 C638 1.394 . S
C639 C640 1.383 . S
C639 H647 0.929 . S
C640 C639 1.383 . S
C640 C641 1.377 . S
C641 H625 0.930 . S
C641 C640 1.377 . S
C641 C642 1.379 . S
C642 H626 0.931 . S
C642 C636 1.383 . S
C642 C641 1.379 . S
H643 C637 0.959 . S
H644 C637 0.961 . S
H645 C637 0.960 . S
H646 C638 0.930 . S
H647 C639 0.929 . S
H648 C656 0.929 . S
H649 C658 0.930 . S
H650 C660 0.930 . S
H651 C663 0.929 . S
H652 C666 0.930 . S
H653 C668 0.960 . S
H654 C668 0.960 . S
H655 C668 0.960 . S
C656 H648 0.929 . S
C656 C657 1.377 . S
C656 C658 1.384 . S
C657 C656 1.377 . S
C657 C663 1.390 . S
C658 H649 0.930 . S
C658 C656 1.384 . S
C658 C659 1.372 . S
C659 C658 1.372 . S
C659 C660 1.400 . S
C659 C664 1.490 . S
C660 H650 0.930 . S
C660 C659 1.400 . S
C660 C663 1.386 . S
H661 C677 0.930 . S
H662 C678 0.931 . S
C663 H651 0.929 . S
C663 C657 1.390 . S
C663 C660 1.386 . S
C664 C659 1.490 . S
C664 C666 1.395 . S
C664 C667 1.403 . S
H665 C671 0.930 . S
C666 H652 0.930 . S
C666 C664 1.395 . S
C666 C669 1.403 . S
C667 C664 1.403 . S
C667 C668 1.524 . S
C667 C671 1.400 . S
C668 H653 0.960 . S
C668 H654 0.960 . S
C668 H655 0.960 . S
C668 C667 1.524 . S
C669 C666 1.403 . S
C669 C670 1.392 . S
C669 C673 1.495 . S
C670 C669 1.392 . S
C670 C671 1.385 . S
C670 C672 1.478 . S
C671 H665 0.930 . S
C671 C667 1.400 . S
C671 C670 1.385 . S
C672 C670 1.478 . S
C672 C674 1.381 . S
C672 C678 1.383 . S
C673 C669 1.495 . S
C673 H679 0.959 . S
C673 H680 0.961 . S
C673 H681 0.960 . S
C674 C672 1.381 . S
C674 C675 1.394 . S
C674 H682 0.930 . S
C675 C674 1.394 . S
C675 C676 1.383 . S
C675 H683 0.929 . S
C676 C675 1.383 . S
C676 C677 1.377 . S
C677 H661 0.930 . S
C677 C676 1.377 . S
C677 C678 1.379 . S
C678 H662 0.931 . S
C678 C672 1.383 . S
C678 C677 1.379 . S
H679 C673 0.959 . S
H680 C673 0.961 . S
H681 C673 0.960 . S
H682 C674 0.930 . S
H683 C675 0.929 . S
H684 C692 0.929 . S
H685 C694 0.930 . S
H686 C696 0.930 . S
H687 C699 0.929 . S
H688 C702 0.930 . S
H689 C704 0.960 . S
H690 C704 0.960 . S
H691 C704 0.960 1_655 S
C692 H684 0.929 . S
C692 C693 1.377 . S
C692 C694 1.384 . S
C693 C692 1.377 . S
C693 C699 1.390 . S
C694 H685 0.930 . S
C694 C692 1.384 . S
C694 C695 1.372 . S
C695 C694 1.372 . S
C695 C696 1.400 . S
C695 C700 1.490 . S
C696 H686 0.930 . S
C696 C695 1.400 . S
C696 C699 1.386 . S
H697 C713 0.930 . S
H698 C714 0.931 . S
C699 H687 0.929 . S
C699 C693 1.390 . S
C699 C696 1.386 . S
C700 C695 1.490 . S
C700 C702 1.395 . S
C700 C703 1.403 1_655 S
H701 C707 0.930 . S
C702 H688 0.930 . S
C702 C700 1.395 . S
C702 C705 1.403 . S
C703 C700 1.403 1_455 S
C703 C704 1.524 . S
C703 C707 1.400 . S
C704 H689 0.960 . S
C704 H690 0.960 . S
C704 H691 0.960 1_455 S
C704 C703 1.524 . S
C705 C702 1.403 . S
C705 C706 1.392 1_655 S
C705 C709 1.495 . S
C706 C705 1.392 1_455 S
C706 C707 1.385 . S
C706 C708 1.478 . S
C707 H701 0.930 . S
C707 C703 1.400 . S
C707 C706 1.385 . S
C708 C706 1.478 . S
C708 C710 1.381 . S
C708 C714 1.383 . S
C709 C705 1.495 . S
C709 H715 0.959 . S
C709 H716 0.961 . S
C709 H717 0.960 1_655 S
C710 C708 1.381 . S
C710 C711 1.394 . S
C710 H718 0.930 . S
C711 C710 1.394 . S
C711 C712 1.383 . S
C711 H719 0.929 . S
C712 C711 1.383 . S
C712 C713 1.377 . S
C713 H697 0.930 . S
C713 C712 1.377 . S
C713 C714 1.379 . S
C714 H698 0.931 . S
C714 C708 1.383 . S
C714 C713 1.379 . S
H715 C709 0.959 . S
H716 C709 0.961 . S
H717 C709 0.960 1_455 S
H718 C710 0.930 . S
H719 C711 0.929 . S
H720 C728 0.929 . S
H721 C730 0.930 . S
H722 C732 0.930 . S
H723 C735 0.929 . S
H724 C738 0.930 . S
H725 C740 0.960 . S
H726 C740 0.960 . S
H727 C740 0.960 . S
C728 H720 0.929 . S
C728 C729 1.377 . S
C728 C730 1.384 . S
C729 C728 1.377 . S
C729 C735 1.390 . S
C730 H721 0.930 . S
C730 C728 1.384 . S
C730 C731 1.372 . S
C731 C730 1.372 . S
C731 C732 1.400 . S
C731 C736 1.490 . S
C732 H722 0.930 . S
C732 C731 1.400 . S
C732 C735 1.386 . S
H733 C749 0.930 . S
H734 C750 0.931 . S
C735 H723 0.929 . S
C735 C729 1.390 . S
C735 C732 1.386 . S
C736 C731 1.490 . S
C736 C738 1.395 1_545 S
C736 C739 1.403 . S
H737 C743 0.930 . S
C738 H724 0.930 . S
C738 C736 1.395 1_565 S
C738 C741 1.403 . S
C739 C736 1.403 . S
C739 C740 1.524 . S
C739 C743 1.400 1_545 S
C740 H725 0.960 . S
C740 H726 0.960 . S
C740 H727 0.960 . S
C740 C739 1.524 . S
C741 C738 1.403 . S
C741 C742 1.392 . S
C741 C745 1.495 . S
C742 C741 1.392 . S
C742 C743 1.385 . S
C742 C744 1.478 . S
C743 H737 0.930 . S
C743 C739 1.400 1_565 S
C743 C742 1.385 . S
C744 C742 1.478 . S
C744 C746 1.381 . S
C744 C750 1.383 . S
C745 C741 1.495 . S
C745 H751 0.959 . S
C745 H752 0.961 . S
C745 H753 0.960 . S
C746 C744 1.381 . S
C746 C747 1.394 . S
C746 H754 0.930 . S
C747 C746 1.394 . S
C747 C748 1.383 . S
C747 H755 0.929 . S
C748 C747 1.383 . S
C748 C749 1.377 . S
C749 H733 0.930 . S
C749 C748 1.377 . S
C749 C750 1.379 . S
C750 H734 0.931 . S
C750 C744 1.383 . S
C750 C749 1.379 . S
H751 C745 0.959 . S
H752 C745 0.961 . S
H753 C745 0.960 . S
H754 C746 0.930 . S
H755 C747 0.929 . S
H756 C764 0.929 . S
H757 C766 0.930 . S
H758 C768 0.930 . S
H759 C771 0.929 . S
H760 C774 0.930 . S
H761 C776 0.960 . S
H762 C776 0.960 . S
H763 C776 0.960 . S
C764 H756 0.929 . S
C764 C765 1.377 . S
C764 C766 1.384 . S
C765 C764 1.377 . S
C765 C771 1.390 . S
C766 H757 0.930 . S
C766 C764 1.384 . S
C766 C767 1.372 . S
C767 C766 1.372 . S
C767 C768 1.400 . S
C767 C772 1.490 . S
C768 H758 0.930 . S
C768 C767 1.400 . S
C768 C771 1.386 . S
H769 C785 0.930 . S
H770 C786 0.931 . S
C771 H759 0.929 . S
C771 C765 1.390 . S
C771 C768 1.386 . S
C772 C767 1.490 . S
C772 C774 1.395 . S
C772 C775 1.403 . S
H773 C779 0.930 . S
C774 H760 0.930 . S
C774 C772 1.395 . S
C774 C777 1.403 . S
C775 C772 1.403 . S
C775 C776 1.524 . S
C775 C779 1.400 . S
C776 H761 0.960 . S
C776 H762 0.960 . S
C776 H763 0.960 . S
C776 C775 1.524 . S
C777 C774 1.403 . S
C777 C778 1.392 . S
C777 C781 1.495 . S
C778 C777 1.392 . S
C778 C779 1.385 . S
C778 C780 1.478 . S
C779 H773 0.930 . S
C779 C775 1.400 . S
C779 C778 1.385 . S
C780 C778 1.478 . S
C780 C782 1.381 . S
C780 C786 1.383 . S
C781 C777 1.495 . S
C781 H787 0.959 . S
C781 H788 0.961 . S
C781 H789 0.960 . S
C782 C780 1.381 . S
C782 C783 1.394 . S
C782 H790 0.930 . S
C783 C782 1.394 . S
C783 C784 1.383 . S
C783 H791 0.929 . S
C784 C783 1.383 . S
C784 C785 1.377 . S
C785 H769 0.930 . S
C785 C784 1.377 . S
C785 C786 1.379 . S
C786 H770 0.931 . S
C786 C780 1.383 . S
C786 C785 1.379 . S
H787 C781 0.959 . S
H788 C781 0.961 . S
H789 C781 0.960 . S
H790 C782 0.930 . S
H791 C783 0.929 . S
H792 C800 0.929 . S
H793 C802 0.930 . S
H794 C804 0.930 . S
H795 C807 0.929 . S
H796 C810 0.930 . S
H797 C812 0.960 . S
H798 C812 0.960 . S
H799 C812 0.960 . S
C800 H792 0.929 . S
C800 C801 1.377 . S
C800 C802 1.384 . S
C801 C800 1.377 . S
C801 C807 1.390 . S
C802 H793 0.930 . S
C802 C800 1.384 . S
C802 C803 1.372 . S
C803 C802 1.372 . S
C803 C804 1.400 . S
C803 C808 1.490 . S
C804 H794 0.930 . S
C804 C803 1.400 . S
C804 C807 1.386 . S
H805 C821 0.930 . S
H806 C822 0.931 . S
C807 H795 0.929 . S
C807 C801 1.390 . S
C807 C804 1.386 . S
C808 C803 1.490 . S
C808 C810 1.395 . S
C808 C811 1.403 . S
H809 C815 0.930 . S
C810 H796 0.930 . S
C810 C808 1.395 . S
C810 C813 1.403 1_655 S
C811 C808 1.403 . S
C811 C812 1.524 . S
C811 C815 1.400 1_655 S
C812 H797 0.960 . S
C812 H798 0.960 . S
C812 H799 0.960 . S
C812 C811 1.524 . S
C813 C810 1.403 1_455 S
C813 C814 1.392 . S
C813 C817 1.495 . S
C814 C813 1.392 . S
C814 C815 1.385 . S
C814 C816 1.478 . S
C815 H809 0.930 . S
C815 C811 1.400 1_455 S
C815 C814 1.385 . S
C816 C814 1.478 . S
C816 C818 1.381 . S
C816 C822 1.383 . S
C817 C813 1.495 . S
C817 H823 0.959 . S
C817 H824 0.961 . S
C817 H825 0.960 . S
C818 C816 1.381 . S
C818 C819 1.394 . S
C818 H826 0.930 . S
C819 C818 1.394 . S
C819 C820 1.383 . S
C819 H827 0.929 . S
C820 C819 1.383 . S
C820 C821 1.377 . S
C821 H805 0.930 . S
C821 C820 1.377 . S
C821 C822 1.379 . S
C822 H806 0.931 . S
C822 C816 1.383 . S
C822 C821 1.379 . S
H823 C817 0.959 . S
H824 C817 0.961 . S
H825 C817 0.960 . S
H826 C818 0.930 . S
H827 C819 0.929 . S
H828 C836 0.929 . S
H829 C838 0.930 . S
H830 C840 0.930 . S
H831 C843 0.929 . S
H832 C846 0.927 . S
H833 C848 0.960 . S
H834 C848 0.960 . S
H835 C848 0.960 . S
C836 H828 0.929 . S
C836 C837 1.377 . S
C836 C838 1.384 . S
C837 C836 1.377 . S
C837 C843 1.390 . S
C838 H829 0.930 . S
C838 C836 1.384 . S
C838 C839 1.372 . S
C839 C838 1.372 . S
C839 C840 1.400 . S
C839 C844 1.490 . S
C840 H830 0.930 . S
C840 C839 1.400 . S
C840 C843 1.386 . S
H841 C857 0.930 . S
H842 C858 0.931 . S
C843 H831 0.929 . S
C843 C837 1.390 . S
C843 C840 1.386 . S
C844 C839 1.490 . S
C844 C846 1.395 1_565 S
C844 C847 1.403 1_554 S
H845 C851 0.930 . S
C846 H832 0.927 . S
C846 C844 1.395 1_545 S
C846 C849 1.403 . S
C847 C844 1.403 1_556 S
C847 C848 1.524 . S
C847 C851 1.400 1_565 S
C848 H833 0.960 . S
C848 H834 0.960 . S
C848 H835 0.960 . S
C848 C847 1.524 . S
C849 C846 1.403 . S
C849 C850 1.392 1_554 S
C849 C853 1.495 . S
C850 C849 1.392 1_556 S
C850 C851 1.385 . S
C850 C852 1.478 . S
C851 H845 0.930 . S
C851 C847 1.400 1_545 S
C851 C850 1.385 . S
C852 C850 1.478 . S
C852 C854 1.381 . S
C852 C858 1.383 . S
C853 C849 1.495 . S
C853 H859 0.959 . S
C853 H860 0.961 . S
C853 H861 0.960 . S
C854 C852 1.381 . S
C854 C855 1.394 . S
C854 H862 0.930 . S
C855 C854 1.394 . S
C855 C856 1.383 . S
C855 H863 0.929 . S
C856 C855 1.383 . S
C856 C857 1.377 . S
C857 H841 0.930 . S
C857 C856 1.377 . S
C857 C858 1.379 . S
C858 H842 0.931 . S
C858 C852 1.383 . S
C858 C857 1.379 . S
H859 C853 0.959 . S
H860 C853 0.961 . S
H861 C853 0.960 . S
H862 C854 0.930 . S
H863 C855 0.929 . S
H864 C872 0.929 . S
H865 C874 0.930 . S
H866 C876 0.930 . S
H867 C879 0.929 . S
H868 C882 0.930 . S
H869 C884 0.960 . S
H870 C884 0.960 . S
H871 C884 0.960 . S
C872 H864 0.929 . S
C872 C873 1.377 . S
C872 C874 1.384 . S
C873 C872 1.377 . S
C873 C879 1.390 . S
C874 H865 0.930 . S
C874 C872 1.384 . S
C874 C875 1.372 . S
C875 C874 1.372 . S
C875 C876 1.400 . S
C875 C880 1.490 . S
C876 H866 0.930 . S
C876 C875 1.400 . S
C876 C879 1.386 . S
H877 C893 0.930 . S
H878 C894 0.931 . S
C879 H867 0.929 . S
C879 C873 1.390 . S
C879 C876 1.386 . S
C880 C875 1.490 . S
C880 C882 1.395 . S
C880 C883 1.403 . S
H881 C887 0.930 1_556 S
C882 H868 0.930 . S
C882 C880 1.395 . S
C882 C885 1.403 . S
C883 C880 1.403 . S
C883 C884 1.524 . S
C883 C887 1.400 . S
C884 H869 0.960 . S
C884 H870 0.960 . S
C884 H871 0.960 . S
C884 C883 1.524 . S
C885 C882 1.403 . S
C885 C886 1.392 . S
C885 C889 1.495 . S
C886 C885 1.392 . S
C886 C887 1.385 . S
C886 C888 1.478 1_554 S
C887 H881 0.930 1_554 S
C887 C883 1.400 . S
C887 C886 1.385 . S
C888 C886 1.478 1_556 S
C888 C890 1.381 . S
C888 C894 1.383 . S
C889 C885 1.495 . S
C889 H895 0.959 . S
C889 H896 0.961 . S
C889 H897 0.960 . S
C890 C888 1.381 . S
C890 C891 1.394 . S
C890 H898 0.930 . S
C891 C890 1.394 . S
C891 C892 1.383 . S
C891 H899 0.929 . S
C892 C891 1.383 . S
C892 C893 1.377 . S
C893 H877 0.930 . S
C893 C892 1.377 . S
C893 C894 1.379 . S
C894 H878 0.931 . S
C894 C888 1.383 . S
C894 C893 1.379 . S
H895 C889 0.959 . S
H896 C889 0.961 . S
H897 C889 0.960 . S
H898 C890 0.930 . S
H899 C891 0.929 . S
H900 C908 0.929 . S
H901 C910 0.930 . S
H902 C912 0.930 . S
H903 C915 0.929 . S
H904 C918 0.930 . S
H905 C920 0.960 1_455 S
H906 C920 0.960 . S
H907 C920 0.960 . S
C908 H900 0.929 . S
C908 C909 1.377 . S
C908 C910 1.384 . S
C909 C908 1.377 . S
C909 C915 1.390 . S
C910 H901 0.930 . S
C910 C908 1.384 . S
C910 C911 1.372 . S
C911 C910 1.372 . S
C911 C912 1.400 . S
C911 C916 1.490 . S
C912 H902 0.930 . S
C912 C911 1.400 . S
C912 C915 1.386 . S
H913 C929 0.930 . S
H914 C930 0.931 . S
C915 H903 0.929 . S
C915 C909 1.390 . S
C915 C912 1.386 . S
C916 C911 1.490 . S
C916 C918 1.395 . S
C916 C919 1.403 . S
H917 C923 0.930 . S
C918 H904 0.930 . S
C918 C916 1.395 . S
C918 C921 1.403 . S
C919 C916 1.403 . S
C919 C920 1.524 . S
C919 C923 1.400 1_655 S
C920 H905 0.960 1_655 S
C920 H906 0.960 . S
C920 H907 0.960 . S
C920 C919 1.524 . S
C921 C918 1.403 . S
C921 C922 1.392 . S
C921 C925 1.495 . S
C922 C921 1.392 . S
C922 C923 1.385 1_655 S
C922 C924 1.478 1_655 S
C923 H917 0.930 . S
C923 C919 1.400 1_455 S
C923 C922 1.385 1_455 S
C924 C922 1.478 1_455 S
C924 C926 1.381 . S
C924 C930 1.383 . S
C925 C921 1.495 . S
C925 H931 0.959 . S
C925 H932 0.961 . S
C925 H933 0.960 . S
C926 C924 1.381 . S
C926 C927 1.394 . S
C926 H934 0.930 1_455 S
C927 C926 1.394 . S
C927 C928 1.383 . S
C927 H935 0.929 . S
C928 C927 1.383 . S
C928 C929 1.377 . S
C929 H913 0.930 . S
C929 C928 1.377 . S
C929 C930 1.379 . S
C930 H914 0.931 . S
C930 C924 1.383 . S
C930 C929 1.379 . S
H931 C925 0.959 . S
H932 C925 0.961 . S
H933 C925 0.960 . S
H934 C926 0.930 1_655 S
H935 C927 0.929 . S
H936 C944 0.929 . S
H937 C946 0.930 . S
H938 C948 0.930 1_565 S
H939 C951 0.929 . S
H940 C954 0.930 . S
H941 C956 0.960 . S
H942 C956 0.960 . S
H943 C956 0.960 . S
C944 H936 0.929 . S
C944 C945 1.377 . S
C944 C946 1.384 . S
C945 C944 1.377 . S
C945 C951 1.390 . S
C946 H937 0.930 . S
C946 C944 1.384 . S
C946 C947 1.372 . S
C947 C946 1.372 . S
C947 C948 1.400 . S
C947 C952 1.505 . S
C948 H938 0.930 1_545 S
C948 C947 1.400 . S
C948 C951 1.386 . S
H949 C965 0.930 . S
H950 C966 0.931 . S
C951 H939 0.929 . S
C951 C945 1.390 . S
C951 C948 1.386 . S
C952 C947 1.505 . S
C952 C954 1.405 . S
C952 C955 1.378 1_545 S
H953 C959 0.930 . S
C954 H940 0.930 . S
C954 C952 1.405 . S
C954 C957 1.403 1_545 S
C955 C952 1.378 1_565 S
C955 C956 1.524 . S
C955 C959 1.400 . S
C956 H941 0.960 . S
C956 H942 0.960 . S
C956 H943 0.960 . S
C956 C955 1.524 . S
C957 C954 1.403 1_565 S
C957 C958 1.392 . S
C957 C961 1.495 . S
C958 C957 1.392 . S
C958 C959 1.385 . S
C958 C960 1.478 . S
C959 H953 0.930 . S
C959 C955 1.400 . S
C959 C958 1.385 . S
C960 C958 1.478 . S
C960 C962 1.381 . S
C960 C966 1.383 . S
C961 C957 1.495 . S
C961 H967 0.959 1_565 S
C961 H968 0.961 . S
C961 H969 0.960 . S
C962 C960 1.381 . S
C962 C963 1.394 . S
C962 H970 0.930 . S
C963 C962 1.394 . S
C963 C964 1.383 . S
C963 H971 0.929 . S
C964 C963 1.383 . S
C964 C965 1.377 . S
C965 H949 0.930 . S
C965 C964 1.377 . S
C965 C966 1.379 . S
C966 H950 0.931 . S
C966 C960 1.383 . S
C966 C965 1.379 . S
H967 C961 0.959 1_545 S
H968 C961 0.961 . S
H969 C961 0.960 . S
H970 C962 0.930 . S
H971 C963 0.929 . S
H972 C980 0.929 . S
H973 C982 0.930 . S
H974 C984 0.930 . S
H975 C987 0.929 . S
H976 C990 0.930 . S
H977 C992 0.960 . S
H978 C992 0.960 . S
H979 C992 0.960 . S
C980 H972 0.929 . S
C980 C981 1.377 . S
C980 C982 1.384 . S
C981 C980 1.377 . S
C981 C987 1.390 . S
C982 H973 0.930 . S
C982 C980 1.384 . S
C982 C983 1.372 . S
C983 C982 1.372 . S
C983 C984 1.400 . S
C983 C988 1.490 . S
C984 H974 0.930 . S
C984 C983 1.400 . S
C984 C987 1.386 . S
H985 C1001 0.930 . S
H986 C1002 0.931 . S
C987 H975 0.929 . S
C987 C981 1.390 . S
C987 C984 1.386 . S
C988 C983 1.490 . S
C988 C990 1.395 . S
C988 C991 1.403 . S
H989 C995 0.930 . S
C990 H976 0.930 . S
C990 C988 1.395 . S
C990 C993 1.403 . S
C991 C988 1.403 . S
C991 C992 1.524 . S
C991 C995 1.400 . S
C992 H977 0.960 . S
C992 H978 0.960 . S
C992 H979 0.960 . S
C992 C991 1.524 . S
C993 C990 1.403 . S
C993 C994 1.392 . S
C993 C997 1.495 . S
C994 C993 1.392 . S
C994 C995 1.385 . S
C994 C996 1.478 . S
C995 H989 0.930 . S
C995 C991 1.400 . S
C995 C994 1.385 . S
C996 C994 1.478 . S
C996 C998 1.381 . S
C996 C1002 1.383 . S
C997 C993 1.495 . S
C997 H1003 0.959 . S
C997 H1004 0.961 . S
C997 H1005 0.960 . S
C998 C996 1.381 . S
C998 C999 1.394 . S
C998 H1006 0.930 . S
C999 C998 1.394 . S
C999 C1000 1.383 . S
C999 H1007 0.929 . S
C1000 C999 1.383 . S
C1000 C1001 1.377 . S
C1001 H985 0.930 . S
C1001 C1000 1.377 . S
C1001 C1002 1.379 . S
C1002 H986 0.931 . S
C1002 C996 1.383 . S
C1002 C1001 1.379 . S
H1003 C997 0.959 . S
H1004 C997 0.961 . S
H1005 C997 0.960 . S
H1006 C998 0.930 . S
H1007 C999 0.929 . S
H1008 C1016 0.929 . S
H1009 C1018 0.930 . S
H1010 C1020 0.930 . S
H1011 C1023 0.929 . S
H1012 C1026 0.930 . S
H1013 C1028 0.960 . S
H1014 C1028 0.960 . S
H1015 C1028 0.960 . S
C1016 H1008 0.929 . S
C1016 C1017 1.377 . S
C1016 C1018 1.384 . S
C1017 C1016 1.377 . S
C1017 C1023 1.390 . S
C1018 H1009 0.930 . S
C1018 C1016 1.384 . S
C1018 C1019 1.372 . S
C1019 C1018 1.372 . S
C1019 C1020 1.400 . S
C1019 C1024 1.490 . S
C1020 H1010 0.930 . S
C1020 C1019 1.400 . S
C1020 C1023 1.386 . S
H1021 C1037 0.930 . S
H1022 C1038 0.931 . S
C1023 H1011 0.929 . S
C1023 C1017 1.390 . S
C1023 C1020 1.386 . S
C1024 C1019 1.490 . S
C1024 C1026 1.395 . S
C1024 C1027 1.403 . S
H1025 C1031 0.930 . S
C1026 H1012 0.930 . S
C1026 C1024 1.395 . S
C1026 C1029 1.403 1_455 S
C1027 C1024 1.403 . S
C1027 C1028 1.524 . S
C1027 C1031 1.400 . S
C1028 H1013 0.960 . S
C1028 H1014 0.960 . S
C1028 H1015 0.960 . S
C1028 C1027 1.524 . S
C1029 C1026 1.403 1_655 S
C1029 C1030 1.392 . S
C1029 C1033 1.495 . S
C1030 C1029 1.392 . S
C1030 C1031 1.385 1_655 S
C1030 C1032 1.478 . S
C1031 H1025 0.930 . S
C1031 C1027 1.400 . S
C1031 C1030 1.385 1_455 S
C1032 C1030 1.478 . S
C1032 C1034 1.381 . S
C1032 C1038 1.383 . S
C1033 C1029 1.495 . S
C1033 H1039 0.959 . S
C1033 H1040 0.961 . S
C1033 H1041 0.960 . S
C1034 C1032 1.381 . S
C1034 C1035 1.394 . S
C1034 H1042 0.930 . S
C1035 C1034 1.394 . S
C1035 C1036 1.383 . S
C1035 H1043 0.929 . S
C1036 C1035 1.383 . S
C1036 C1037 1.377 . S
C1037 H1021 0.930 . S
C1037 C1036 1.377 . S
C1037 C1038 1.379 . S
C1038 H1022 0.931 . S
C1038 C1032 1.383 . S
C1038 C1037 1.379 . S
H1039 C1033 0.959 . S
H1040 C1033 0.961 . S
H1041 C1033 0.960 . S
H1042 C1034 0.930 . S
H1043 C1035 0.929 . S
H1044 C1052 0.929 . S
H1045 C1054 0.930 . S
H1046 C1056 0.930 . S
H1047 C1059 0.929 . S
H1048 C1062 0.930 . S
H1049 C1064 0.960 . S
H1050 C1064 0.960 1_545 S
H1051 C1064 0.960 1_545 S
C1052 H1044 0.929 . S
C1052 C1053 1.377 . S
C1052 C1054 1.384 . S
C1053 C1052 1.377 . S
C1053 C1059 1.390 . S
C1054 H1045 0.930 . S
C1054 C1052 1.384 . S
C1054 C1055 1.372 . S
C1055 C1054 1.372 . S
C1055 C1056 1.400 . S
C1055 C1060 1.490 . S
C1056 H1046 0.930 . S
C1056 C1055 1.400 . S
C1056 C1059 1.386 . S
H1057 C1073 0.930 . S
H1058 C1074 0.931 . S
C1059 H1047 0.929 . S
C1059 C1053 1.390 . S
C1059 C1056 1.386 . S
C1060 C1055 1.490 . S
C1060 C1062 1.395 . S
C1060 C1063 1.403 . S
H1061 C1067 0.930 . S
C1062 H1048 0.930 . S
C1062 C1060 1.395 . S
C1062 C1065 1.403 . S
C1063 C1060 1.403 . S
C1063 C1064 1.524 1_545 S
C1063 C1067 1.400 1_545 S
C1064 H1049 0.960 . S
C1064 H1050 0.960 1_565 S
C1064 H1051 0.960 1_565 S
C1064 C1063 1.524 1_565 S
C1065 C1062 1.403 . S
C1065 C1066 1.392 . S
C1065 C1069 1.495 . S
C1066 C1065 1.392 . S
C1066 C1067 1.385 1_545 S
C1066 C1068 1.478 1_545 S
C1067 H1061 0.930 . S
C1067 C1063 1.400 1_565 S
C1067 C1066 1.385 1_565 S
C1068 C1066 1.478 1_565 S
C1068 C1070 1.381 . S
C1068 C1074 1.383 . S
C1069 C1065 1.495 . S
C1069 H1075 0.959 . S
C1069 H1076 0.961 . S
C1069 H1077 0.960 . S
C1070 C1068 1.381 . S
C1070 C1071 1.394 . S
C1070 H1078 0.930 . S
C1071 C1070 1.394 . S
C1071 C1072 1.383 . S
C1071 H1079 0.929 . S
C1072 C1071 1.383 . S
C1072 C1073 1.377 . S
C1073 H1057 0.930 . S
C1073 C1072 1.377 . S
C1073 C1074 1.379 . S
C1074 H1058 0.931 . S
C1074 C1068 1.383 . S
C1074 C1073 1.379 . S
H1075 C1069 0.959 . S
H1076 C1069 0.961 . S
H1077 C1069 0.960 . S
H1078 C1070 0.930 . S
H1079 C1071 0.929 . S
H1080 C1088 0.929 . S
H1081 C1090 0.930 . S
H1082 C1092 0.930 . S
H1083 C1095 0.929 . S
H1084 C1098 0.930 . S
H1085 C1100 0.960 . S
H1086 C1100 0.960 . S
H1087 C1100 0.960 . S
C1088 H1080 0.929 . S
C1088 C1089 1.377 . S
C1088 C1090 1.384 . S
C1089 C1088 1.377 . S
C1089 C1095 1.390 . S
C1090 H1081 0.930 . S
C1090 C1088 1.384 . S
C1090 C1091 1.372 . S
C1091 C1090 1.372 . S
C1091 C1092 1.400 . S
C1091 C1096 1.490 . S
C1092 H1082 0.930 . S
C1092 C1091 1.400 . S
C1092 C1095 1.386 . S
H1093 C1109 0.930 . S
H1094 C1110 0.931 . S
C1095 H1083 0.929 . S
C1095 C1089 1.390 . S
C1095 C1092 1.386 . S
C1096 C1091 1.490 . S
C1096 C1098 1.395 . S
C1096 C1099 1.403 . S
H1097 C1103 0.930 . S
C1098 H1084 0.930 . S
C1098 C1096 1.395 . S
C1098 C1101 1.403 . S
C1099 C1096 1.403 . S
C1099 C1100 1.524 . S
C1099 C1103 1.400 . S
C1100 H1085 0.960 . S
C1100 H1086 0.960 . S
C1100 H1087 0.960 . S
C1100 C1099 1.524 . S
C1101 C1098 1.403 . S
C1101 C1102 1.392 . S
C1101 C1105 1.495 . S
C1102 C1101 1.392 . S
C1102 C1103 1.385 . S
C1102 C1104 1.478 . S
C1103 H1097 0.930 . S
C1103 C1099 1.400 . S
C1103 C1102 1.385 . S
C1104 C1102 1.478 . S
C1104 C1106 1.381 . S
C1104 C1110 1.383 . S
C1105 C1101 1.495 . S
C1105 H1111 0.959 . S
C1105 H1112 0.961 . S
C1105 H1113 0.960 . S
C1106 C1104 1.381 . S
C1106 C1107 1.394 . S
C1106 H1114 0.930 . S
C1107 C1106 1.394 . S
C1107 C1108 1.383 . S
C1107 H1115 0.929 . S
C1108 C1107 1.383 . S
C1108 C1109 1.377 . S
C1109 H1093 0.930 . S
C1109 C1108 1.377 . S
C1109 C1110 1.379 . S
C1110 H1094 0.931 . S
C1110 C1104 1.383 . S
C1110 C1109 1.379 . S
H1111 C1105 0.959 . S
H1112 C1105 0.961 . S
H1113 C1105 0.960 . S
H1114 C1106 0.930 . S
H1115 C1107 0.929 . S
H1116 C1124 0.929 . S
H1117 C1126 0.930 . S
H1118 C1128 0.930 . S
H1119 C1131 0.929 . S
H1120 C1134 0.930 . S
H1121 C1136 0.960 . S
H1122 C1136 0.960 . S
H1123 C1136 0.960 . S
C1124 H1116 0.929 . S
C1124 C1125 1.377 . S
C1124 C1126 1.384 . S
C1125 C1124 1.377 . S
C1125 C1131 1.390 . S
C1126 H1117 0.930 . S
C1126 C1124 1.384 . S
C1126 C1127 1.372 . S
C1127 C1126 1.372 . S
C1127 C1128 1.400 . S
C1127 C1132 1.490 . S
C1128 H1118 0.930 . S
C1128 C1127 1.400 . S
C1128 C1131 1.386 . S
H1129 C1145 0.930 . S
H1130 C1146 0.931 1_655 S
C1131 H1119 0.929 . S
C1131 C1125 1.390 . S
C1131 C1128 1.386 . S
C1132 C1127 1.490 . S
C1132 C1134 1.395 . S
C1132 C1135 1.403 . S
H1133 C1139 0.930 . S
C1134 H1120 0.930 . S
C1134 C1132 1.395 . S
C1134 C1137 1.403 . S
C1135 C1132 1.403 . S
C1135 C1136 1.524 . S
C1135 C1139 1.400 . S
C1136 H1121 0.960 . S
C1136 H1122 0.960 . S
C1136 H1123 0.960 . S
C1136 C1135 1.524 . S
C1137 C1134 1.403 . S
C1137 C1138 1.383 1_655 S
C1137 C1141 1.495 1_655 S
C1138 C1137 1.383 1_455 S
C1138 C1139 1.387 1_455 S
C1138 C1140 1.486 1_556 S
C1139 H1133 0.930 . S
C1139 C1135 1.400 . S
C1139 C1138 1.387 1_655 S
C1140 C1138 1.486 1_554 S
C1140 C1142 1.381 . S
C1140 C1146 1.383 . S
C1141 C1137 1.495 1_455 S
C1141 H1147 0.959 1_455 S
C1141 H1148 0.961 1_456 S
C1141 H1149 0.960 . S
C1142 C1140 1.381 . S
C1142 C1143 1.394 . S
C1142 H1150 0.930 1_554 S
C1143 C1142 1.394 . S
C1143 C1144 1.383 . S
C1143 H1151 0.929 . S
C1144 C1143 1.383 . S
C1144 C1145 1.377 . S
C1145 H1129 0.930 . S
C1145 C1144 1.377 . S
C1145 C1146 1.379 . S
C1146 H1130 0.931 1_455 S
C1146 C1140 1.383 . S
C1146 C1145 1.379 . S
H1147 C1141 0.959 1_655 S
H1148 C1141 0.961 1_654 S
H1149 C1141 0.960 . S
H1150 C1142 0.930 1_556 S
H1151 C1143 0.929 . S
H1152 C1160 0.929 . S
H1153 C1162 0.930 . S
H1154 C1164 0.930 . S
H1155 C1167 0.929 . S
H1156 C1170 0.930 . S
H1157 C1172 0.960 . S
H1158 C1172 0.960 . S
H1159 C1172 0.960 . S
C1160 H1152 0.929 . S
C1160 C1161 1.377 . S
C1160 C1162 1.384 . S
C1161 C1160 1.377 . S
C1161 C1167 1.390 . S
C1162 H1153 0.930 . S
C1162 C1160 1.384 . S
C1162 C1163 1.372 . S
C1163 C1162 1.372 . S
C1163 C1164 1.400 . S
C1163 C1168 1.490 . S
C1164 H1154 0.930 . S
C1164 C1163 1.400 . S
C1164 C1167 1.386 . S
H1165 C1181 0.930 . S
H1166 C1182 0.931 . S
C1167 H1155 0.929 . S
C1167 C1161 1.390 . S
C1167 C1164 1.386 . S
C1168 C1163 1.490 . S
C1168 C1170 1.395 . S
C1168 C1171 1.403 . S
H1169 C1175 0.930 . S
C1170 H1156 0.930 . S
C1170 C1168 1.395 . S
C1170 C1173 1.403 1_565 S
C1171 C1168 1.403 . S
C1171 C1172 1.524 . S
C1171 C1175 1.400 . S
C1172 H1157 0.960 . S
C1172 H1158 0.960 . S
C1172 H1159 0.960 . S
C1172 C1171 1.524 . S
C1173 C1170 1.403 1_545 S
C1173 C1174 1.392 . S
C1173 C1177 1.495 . S
C1174 C1173 1.392 . S
C1174 C1175 1.385 1_545 S
C1174 C1176 1.478 . S
C1175 H1169 0.930 . S
C1175 C1171 1.400 . S
C1175 C1174 1.385 1_565 S
C1176 C1174 1.478 . S
C1176 C1178 1.381 . S
C1176 C1182 1.383 . S
C1177 C1173 1.495 . S
C1177 H1183 0.959 . S
C1177 H1184 0.961 . S
C1177 H1185 0.960 . S
C1178 C1176 1.381 . S
C1178 C1179 1.394 . S
C1178 H1186 0.930 . S
C1179 C1178 1.394 . S
C1179 C1180 1.383 . S
C1179 H1187 0.929 . S
C1180 C1179 1.383 . S
C1180 C1181 1.377 . S
C1181 H1165 0.930 . S
C1181 C1180 1.377 . S
C1181 C1182 1.379 . S
C1182 H1166 0.931 . S
C1182 C1176 1.383 . S
C1182 C1181 1.379 . S
H1183 C1177 0.959 . S
H1184 C1177 0.961 . S
H1185 C1177 0.960 . S
H1186 C1178 0.930 . S
H1187 C1179 0.929 . S
H1188 C1196 0.929 . S
H1189 C1198 0.930 . S
H1190 C1200 0.930 . S
H1191 C1203 0.929 . S
H1192 C1206 0.930 . S
H1193 C1208 0.960 . S
H1194 C1208 0.960 . S
H1195 C1208 0.960 . S
C1196 H1188 0.929 . S
C1196 C1197 1.377 . S
C1196 C1198 1.384 . S
C1197 C1196 1.377 . S
C1197 C1203 1.390 . S
C1198 H1189 0.930 . S
C1198 C1196 1.384 . S
C1198 C1199 1.372 . S
C1199 C1198 1.372 . S
C1199 C1200 1.400 . S
C1199 C1204 1.490 . S
C1200 H1190 0.930 . S
C1200 C1199 1.400 . S
C1200 C1203 1.386 . S
H1201 C1217 0.930 . S
H1202 C1218 0.931 . S
C1203 H1191 0.929 . S
C1203 C1197 1.390 . S
C1203 C1200 1.386 . S
C1204 C1199 1.490 . S
C1204 C1206 1.395 . S
C1204 C1207 1.403 . S
H1205 C1211 0.930 . S
C1206 H1192 0.930 . S
C1206 C1204 1.395 . S
C1206 C1209 1.403 . S
C1207 C1204 1.403 . S
C1207 C1208 1.524 . S
C1207 C1211 1.400 . S
C1208 H1193 0.960 . S
C1208 H1194 0.960 . S
C1208 H1195 0.960 . S
C1208 C1207 1.524 . S
C1209 C1206 1.403 . S
C1209 C1210 1.392 . S
C1209 C1213 1.495 . S
C1210 C1209 1.392 . S
C1210 C1211 1.385 . S
C1210 C1212 1.478 . S
C1211 H1205 0.930 . S
C1211 C1207 1.400 . S
C1211 C1210 1.385 . S
C1212 C1210 1.478 . S
C1212 C1214 1.381 . S
C1212 C1218 1.383 . S
C1213 C1209 1.495 . S
C1213 H1219 0.959 . S
C1213 H1220 0.961 . S
C1213 H1221 0.960 . S
C1214 C1212 1.381 . S
C1214 C1215 1.394 . S
C1214 H1222 0.930 . S
C1215 C1214 1.394 . S
C1215 C1216 1.383 . S
C1215 H1223 0.929 . S
C1216 C1215 1.383 . S
C1216 C1217 1.377 . S
C1217 H1201 0.930 . S
C1217 C1216 1.377 . S
C1217 C1218 1.379 . S
C1218 H1202 0.931 . S
C1218 C1212 1.383 . S
C1218 C1217 1.379 . S
H1219 C1213 0.959 . S
H1220 C1213 0.961 . S
H1221 C1213 0.960 . S
H1222 C1214 0.930 . S
H1223 C1215 0.929 . S
H1224 C1232 0.929 . S
H1225 C1234 0.930 . S
H1226 C1236 0.930 . S
H1227 C1239 0.929 . S
H1228 C1242 0.930 . S
H1229 C1244 0.960 . S
H1230 C1244 0.960 . S
H1231 C1244 0.960 . S
C1232 H1224 0.929 . S
C1232 C1233 1.377 . S
C1232 C1234 1.384 . S
C1233 C1232 1.377 . S
C1233 C1239 1.390 . S
C1234 H1225 0.930 . S
C1234 C1232 1.384 . S
C1234 C1235 1.372 . S
C1235 C1234 1.372 . S
C1235 C1236 1.400 . S
C1235 C1240 1.490 . S
C1236 H1226 0.930 . S
C1236 C1235 1.400 . S
C1236 C1239 1.386 . S
H1237 C1253 0.930 . S
H1238 C1254 0.931 1_455 S
C1239 H1227 0.929 . S
C1239 C1233 1.390 . S
C1239 C1236 1.386 . S
C1240 C1235 1.490 . S
C1240 C1242 1.395 . S
C1240 C1243 1.403 . S
H1241 C1247 0.930 1_655 S
C1242 H1228 0.930 . S
C1242 C1240 1.395 . S
C1242 C1245 1.403 . S
C1243 C1240 1.403 . S
C1243 C1244 1.524 . S
C1243 C1247 1.400 . S
C1244 H1229 0.960 . S
C1244 H1230 0.960 . S
C1244 H1231 0.960 . S
C1244 C1243 1.524 . S
C1245 C1242 1.403 . S
C1245 C1246 1.415 . S
C1245 C1249 1.495 . S
C1246 C1245 1.415 . S
C1246 C1247 1.379 . S
C1246 C1248 1.461 1_455 S
C1247 H1241 0.930 1_455 S
C1247 C1243 1.400 . S
C1247 C1246 1.379 . S
C1248 C1246 1.461 1_655 S
C1248 C1250 1.381 . S
C1248 C1254 1.383 . S
C1249 C1245 1.495 . S
C1249 H1255 0.959 . S
C1249 H1256 0.961 . S
C1249 H1257 0.960 1_455 S
C1250 C1248 1.381 . S
C1250 C1251 1.394 . S
C1250 H1258 0.930 . S
C1251 C1250 1.394 . S
C1251 C1252 1.383 . S
C1251 H1259 0.929 . S
C1252 C1251 1.383 . S
C1252 C1253 1.377 . S
C1253 H1237 0.930 . S
C1253 C1252 1.377 . S
C1253 C1254 1.379 . S
C1254 H1238 0.931 1_655 S
C1254 C1248 1.383 . S
C1254 C1253 1.379 . S
H1255 C1249 0.959 . S
H1256 C1249 0.961 . S
H1257 C1249 0.960 1_655 S
H1258 C1250 0.930 . S
H1259 C1251 0.929 . S
H1260 C1268 0.929 . S
H1261 C1270 0.930 . S
H1262 C1272 0.930 . S
H1263 C1275 0.929 . S
H1264 C1278 0.930 . S
H1265 C1280 0.960 . S
H1266 C1280 0.960 . S
H1267 C1280 0.960 . S
C1268 H1260 0.929 . S
C1268 C1269 1.377 . S
C1268 C1270 1.384 . S
C1269 C1268 1.377 . S
C1269 C1275 1.390 . S
C1270 H1261 0.930 . S
C1270 C1268 1.384 . S
C1270 C1271 1.372 . S
C1271 C1270 1.372 . S
C1271 C1272 1.400 . S
C1271 C1276 1.490 1_565 S
C1272 H1262 0.930 . S
C1272 C1271 1.400 . S
C1272 C1275 1.386 . S
H1273 C1289 0.930 . S
H1274 C1290 0.931 . S
C1275 H1263 0.929 . S
C1275 C1269 1.390 . S
C1275 C1272 1.386 . S
C1276 C1271 1.490 1_545 S
C1276 C1278 1.395 . S
C1276 C1279 1.403 1_545 S
H1277 C1283 0.930 . S
C1278 H1264 0.930 . S
C1278 C1276 1.395 . S
C1278 C1281 1.403 . S
C1279 C1276 1.403 1_565 S
C1279 C1280 1.524 . S
C1279 C1283 1.400 1_565 S
C1280 H1265 0.960 . S
C1280 H1266 0.960 . S
C1280 H1267 0.960 . S
C1280 C1279 1.524 . S
C1281 C1278 1.403 . S
C1281 C1282 1.392 . S
C1281 C1285 1.495 . S
C1282 C1281 1.392 . S
C1282 C1283 1.385 . S
C1282 C1284 1.478 . S
C1283 H1277 0.930 . S
C1283 C1279 1.400 1_545 S
C1283 C1282 1.385 . S
C1284 C1282 1.478 . S
C1284 C1286 1.381 . S
C1284 C1290 1.383 . S
C1285 C1281 1.495 . S
C1285 H1291 0.959 . S
C1285 H1292 0.961 . S
C1285 H1293 0.960 . S
C1286 C1284 1.381 . S
C1286 C1287 1.394 . S
C1286 H1294 0.930 . S
C1287 C1286 1.394 . S
C1287 C1288 1.383 . S
C1287 H1295 0.929 . S
C1288 C1287 1.383 . S
C1288 C1289 1.377 . S
C1289 H1273 0.930 . S
C1289 C1288 1.377 . S
C1289 C1290 1.379 . S
C1290 H1274 0.931 . S
C1290 C1284 1.383 . S
C1290 C1289 1.379 . S
H1291 C1285 0.959 . S
H1292 C1285 0.961 . S
H1293 C1285 0.960 . S
H1294 C1286 0.930 . S
H1295 C1287 0.929 . S
C441 C302 1.063 . S
C460 C14 1.094 . S
C477 C50 1.062 . S
C496 C338 1.095 . S
C513 C86 1.060 . S
C532 C374 1.096 . S
C549 C122 1.069 . S
C568 C410 1.059 . S
C585 C230 1.056 . S
C604 C158 1.043 . S
C621 C194 1.054 . S
C640 C266 1.077 . S
C657 C326 0.680 . S
C676 C2 0.638 . S
C693 C38 0.682 . S
C712 C362 0.686 . S
C729 C398 0.671 . S
C748 C74 0.676 . S
C765 C110 0.667 . S
C784 C218 0.730 . S
C801 C254 0.669 . S
C820 C146 0.730 . S
C837 C290 0.672 . S
C856 C182 0.670 . S
C873 C3 1.399 . S
C892 C184 1.343 . S
C909 C39 1.400 . S
C928 C4 1.382 . S
C945 C40 1.364 . S
C964 C75 1.386 . S
C981 C111 1.399 . S
C1000 C76 1.388 . S
C1017 C147 1.397 . S
C1036 C112 1.341 . S
C1053 C183 1.399 . S
C1072 C148 1.388 . S
C1089 C219 1.397 . S
C1108 C256 1.341 . S
C1125 C255 1.396 . S
C1144 C292 1.363 . S
C1161 C291 1.399 . S
C1180 C328 1.345 . S
C1197 C327 1.397 . S
C1216 C364 1.363 . S
C1233 C363 1.397 . S
C1252 C400 1.369 . S
C1269 C220 1.364 . S
C1288 C399 1.402 . S
