# Generated by pormake.
# Topology yfh, (5)-cn, num edge types: 1
# Building blocks:
#     Node 0, Type 0, BuildingBlock: BEQFEK_clean_sbu_0, # of connection points: 5
#     Node 1, Type 0, BuildingBlock: BEQFEK_clean_sbu_0, # of connection points: 5
#     Node 2, Type 0, BuildingBlock: BEQFEK_clean_sbu_0, # of connection points: 5
#     Node 3, Type 0, BuildingBlock: BEQFEK_clean_sbu_0, # of connection points: 5
#     Node 4, Type 0, BuildingBlock: BEQFEK_clean_sbu_0, # of connection points: 5
#     Node 5, Type 0, BuildingBlock: BEQFEK_clean_sbu_0, # of connection points: 5
#     Node 6, Type 0, BuildingBlock: BEQFEK_clean_sbu_0, # of connection points: 5
#     Node 7, Type 0, BuildingBlock: BEQFEK_clean_sbu_0, # of connection points: 5
#     Edge 8, Type (0, 0), BuildingBlock: UVAHIK_clean_linker_0, # of connection points: 2
#     Edge 9, Type (0, 0), BuildingBlock: UVAHIK_clean_linker_0, # of connection points: 2
#     Edge 10, Type (0, 0), BuildingBlock: UVAHIK_clean_linker_0, # of connection points: 2
#     Edge 11, Type (0, 0), BuildingBlock: UVAHIK_clean_linker_0, # of connection points: 2
#     Edge 12, Type (0, 0), BuildingBlock: UVAHIK_clean_linker_0, # of connection points: 2
#     Edge 13, Type (0, 0), BuildingBlock: UVAHIK_clean_linker_0, # of connection points: 2
#     Edge 14, Type (0, 0), BuildingBlock: UVAHIK_clean_linker_0, # of connection points: 2
#     Edge 15, Type (0, 0), BuildingBlock: UVAHIK_clean_linker_0, # of connection points: 2
#     Edge 16, Type (0, 0), BuildingBlock: UVAHIK_clean_linker_0, # of connection points: 2
#     Edge 17, Type (0, 0), BuildingBlock: UVAHIK_clean_linker_0, # of connection points: 2
#     Edge 18, Type (0, 0), BuildingBlock: UVAHIK_clean_linker_0, # of connection points: 2
#     Edge 19, Type (0, 0), BuildingBlock: UVAHIK_clean_linker_0, # of connection points: 2
#     Edge 20, Type (0, 0), BuildingBlock: UVAHIK_clean_linker_0, # of connection points: 2
#     Edge 21, Type (0, 0), BuildingBlock: UVAHIK_clean_linker_0, # of connection points: 2
#     Edge 22, Type (0, 0), BuildingBlock: UVAHIK_clean_linker_0, # of connection points: 2
#     Edge 23, Type (0, 0), BuildingBlock: UVAHIK_clean_linker_0, # of connection points: 2
#     Edge 24, Type (0, 0), BuildingBlock: UVAHIK_clean_linker_0, # of connection points: 2
#     Edge 25, Type (0, 0), BuildingBlock: UVAHIK_clean_linker_0, # of connection points: 2
#     Edge 26, Type (0, 0), BuildingBlock: UVAHIK_clean_linker_0, # of connection points: 2
#     Edge 27, Type (0, 0), BuildingBlock: UVAHIK_clean_linker_0, # of connection points: 2
# Relax obj value: 0.461
# Max RMSD: 0.265
# Mean RMSD: 0.265
data_MOF--net-yfh--node1-BEQFEK_clean_sbu_0--edge1-UVAHIK_clean_linker_0
_symmetry_space_group_name_H-M    P1
_symmetry_Int_Tables_number       1
_symmetry_cell_setting            triclinic
loop_
_symmetry_equiv_pos_as_xyz
'x, y, z'
_cell_length_a     37.235065
_cell_length_b     37.208467
_cell_length_c     71.27578
_cell_angle_alpha  89.935922
_cell_angle_beta   90.036548
_cell_angle_gamma 90.017637
loop_
_atom_site_label
_atom_site_type_symbol
_atom_site_fract_x
_atom_site_fract_y
_atom_site_fract_z
_atom_type_partial_charge
Co0 Co 0.31517 0.07663 0.06495 0.0
Co1 Co 0.36694 0.07622 0.09949 0.0
C2 C 0.31214 0.13336 0.09508 0.0
O3 O 0.30176 0.11948 0.07971 0.0
O4 O 0.33732 0.11926 0.10465 0.0
C5 C 0.2447 0.07314 0.05101 0.0
O6 O 0.23763 0.0769 0.06896 0.0
C7 C 0.39166 0.07211 0.13849 0.0
C8 C 0.44724 0.05257 0.1348 0.0
C9 C 0.42221 0.06177 0.14837 0.0
N10 N 0.39846 0.0688 0.12007 0.0
N11 N 0.43188 0.05766 0.11794 0.0
C12 C 0.35555 0.08191 0.14618 0.0
H13 H 0.356 0.11035 0.15082 0.0
H14 H 0.33452 0.07894 0.13525 0.0
H15 H 0.34876 0.06471 0.1584 0.0
C16 C 0.30137 0.00259 0.07841 0.0
N17 N 0.31735 0.03488 0.0801 0.0
N18 N 0.33805 0.0348 0.09508 0.0
C19 C 0.33538 0.00249 0.1036 0.0
C20 C 0.3119 0.98107 0.09333 0.0
C21 C 0.279 0.99147 0.06195 0.0
H22 H 0.28909 0.00444 0.04897 0.0
H23 H 0.25082 -2e-05 0.06429 0.0
H24 H 0.27947 0.96187 0.06006 0.0
O25 O 0.36188 0.0851 0.0527 0.0
O26 O 0.39824 0.08488 0.07744 0.0
H27 H 0.38352 0.9944 0.11947 0.0
H28 H 0.3466 0.96592 0.12672 0.0
C29 C 0.35404 0.99298 0.12155 0.0
H30 H 0.34657 0.01266 0.13247 0.0
H31 H 0.44386 0.0526 0.10498 0.0
O32 O 0.27727 0.07162 0.04572 0.0
C33 C 0.39315 0.08774 0.05983 0.0
Co34 Co 0.4208 0.80792 0.33349 0.0
Co35 Co 0.39512 0.86741 0.36136 0.0
C36 C 0.34761 0.80619 0.35028 0.0
O37 O 0.37141 0.79383 0.33934 0.0
O38 O 0.35331 0.83433 0.35994 0.0
C39 C 0.43239 0.73605 0.32356 0.0
O40 O 0.41633 0.73138 0.33979 0.0
C41 C 0.37857 0.89082 0.39901 0.0
C42 C 0.38085 0.94997 0.39692 0.0
C43 C 0.37635 0.92205 0.40967 0.0
N44 N 0.3845 0.90001 0.38107 0.0
N45 N 0.38501 0.93541 0.37978 0.0
C46 C 0.37889 0.85263 0.40571 0.0
H47 H 0.3512 0.84457 0.40962 0.0
H48 H 0.38837 0.83431 0.3945 0.0
H49 H 0.39636 0.8497 0.41823 0.0
C50 C 0.47997 0.80253 0.36063 0.0
N51 N 0.44787 0.81565 0.3554 0.0
N52 N 0.43886 0.84231 0.36659 0.0
C53 C 0.46578 0.84765 0.37901 0.0
C54 C 0.49214 0.82207 0.37585 0.0
C55 C 0.50068 0.77514 0.3497 0.0
H56 H 0.50084 0.78262 0.33464 0.0
H57 H 0.4873 0.74865 0.35111 0.0
H58 H 0.52877 0.77265 0.35474 0.0
O59 O 0.42092 0.85227 0.31825 0.0
O60 O 0.40056 0.89455 0.33758 0.0
H61 H 0.45544 0.90289 0.38596 0.0
H62 H 0.49664 0.88504 0.3957 0.0
C63 C 0.46827 0.87881 0.39221 0.0
H64 H 0.45427 0.87199 0.40546 0.0
H65 H 0.38986 0.94953 0.36739 0.0
O66 O 0.43977 0.76783 0.31824 0.0
C67 C 0.41199 0.88474 0.32152 0.0
Co68 Co 0.67514 0.92066 0.56444 0.0
Co69 Co 0.62895 0.90724 0.60037 0.0
C70 C 0.68517 0.85522 0.58841 0.0
O71 O 0.69233 0.8743 0.57414 0.0
O72 O 0.66125 0.86485 0.60007 0.0
C73 C 0.74314 0.92974 0.54939 0.0
O74 O 0.75092 0.91975 0.56661 0.0
C75 C 0.61572 0.90149 0.6405 0.0
C76 C 0.55664 0.90534 0.64203 0.0
C77 C 0.5872 0.90278 0.65316 0.0
N78 N 0.60244 0.90392 0.62303 0.0
N79 N 0.56708 0.90536 0.62399 0.0
C80 C 0.65519 0.90055 0.64454 0.0
H81 H 0.66265 0.87328 0.64951 0.0
H82 H 0.67088 0.90657 0.63168 0.0
H83 H 0.66229 0.92019 0.65563 0.0
C84 C 0.69003 0.98897 0.58399 0.0
N85 N 0.67445 0.95637 0.58335 0.0
N86 N 0.65504 0.95154 0.5986 0.0
C87 C 0.65755 0.9814 0.60936 0.0
C88 C 0.6804 0.00565 0.60056 0.0
C89 C 0.71131 0.00533 0.56833 0.0
H90 H 0.69974 -0.00253 0.55461 0.0
H91 H 0.73943 0.99564 0.56914 0.0
H92 H 0.71155 0.0351 0.56929 0.0
O93 O 0.62659 0.91448 0.5537 0.0
O94 O 0.59399 0.9049 0.5794 0.0
H95 H 0.61204 0.97322 0.62742 0.0
H96 H 0.63439 0.01565 0.63071 0.0
C97 C 0.63849 0.9868 0.62762 0.0
H98 H 0.65507 0.97554 0.6391 0.0
H99 H 0.55019 0.90765 0.61236 0.0
O100 O 0.71036 0.93332 0.54473 0.0
C101 C 0.59655 0.90832 0.56166 0.0
Co102 Co 0.5993 0.19272 0.81914 0.0
Co103 Co 0.6139 0.14105 0.85297 0.0
C104 C 0.65769 0.20725 0.84671 0.0
O105 O 0.63937 0.2151 0.83229 0.0
O106 O 0.6513 0.17888 0.8561 0.0
C107 C 0.58243 0.26112 0.80517 0.0
O108 O 0.58707 0.26905 0.82296 0.0
C109 C 0.61646 0.12256 0.89252 0.0
C110 C 0.61614 0.06322 0.89206 0.0
C111 C 0.61587 0.09247 0.90414 0.0
N112 N 0.61671 0.11142 0.87462 0.0
N113 N 0.61719 0.07595 0.87439 0.0
C114 C 0.61359 0.16135 0.89792 0.0
H115 H 0.64012 0.17091 0.90295 0.0
H116 H 0.60561 0.17796 0.88567 0.0
H117 H 0.5937 0.16497 0.90935 0.0
C118 C 0.52713 0.19385 0.83578 0.0
N119 N 0.56141 0.18267 0.8358 0.0
N120 N 0.56682 0.1613 0.85029 0.0
C121 C 0.53568 0.15828 0.85995 0.0
C122 C 0.50991 0.17938 0.85119 0.0
C123 C 0.51036 0.21636 0.82072 0.0
H124 H 0.52143 0.20891 0.80683 0.0
H125 H 0.51623 0.24509 0.82347 0.0
H126 H 0.48076 0.21281 0.82042 0.0
O127 O 0.61531 0.14822 0.80688 0.0
O128 O 0.62433 0.11062 0.83073 0.0
H129 H 0.54584 0.11066 0.87615 0.0
H130 H 0.50189 0.12988 0.8797 0.0
C131 C 0.53061 0.13612 0.87728 0.0
H132 H 0.54048 0.15137 0.88957 0.0
H133 H 0.61701 0.06048 0.86219 0.0
O134 O 0.58512 0.22852 0.8 0.0
C135 C 0.62407 0.1174 0.81321 0.0
Co136 Co 0.81339 0.42639 0.65851 0.0
Co137 Co 0.88048 0.41204 0.63333 0.0
C138 C 0.82387 0.3562 0.63884 0.0
O139 O 0.80659 0.37691 0.64971 0.0
O140 O 0.85316 0.36618 0.63126 0.0
C141 C 0.73873 0.42833 0.66511 0.0
O142 O 0.73834 0.41149 0.64891 0.0
C143 C 0.91614 0.40562 0.59734 0.0
C144 C 0.97241 0.41873 0.60436 0.0
C145 C 0.94964 0.41179 0.58937 0.0
N146 N 0.91903 0.40941 0.616 0.0
N147 N 0.9529 0.41624 0.6202 0.0
C148 C 0.88095 0.40057 0.58749 0.0
H149 H 0.85821 0.40465 0.59731 0.0
H150 H 0.87848 0.41941 0.57548 0.0
H151 H 0.87953 0.37277 0.58193 0.0
C152 C 0.80592 0.48867 0.63349 0.0
N153 N 0.82199 0.45764 0.63826 0.0
N154 N 0.85132 0.4534 0.62818 0.0
C155 C 0.85537 0.48257 0.61704 0.0
C156 C 0.82632 0.50529 0.6198 0.0
C157 C 0.77427 0.50421 0.64358 0.0
H158 H 0.77902 0.50321 0.65893 0.0
H159 H 0.75013 0.48786 0.6404 0.0
H160 H 0.76903 0.53245 0.63938 0.0
O161 O 0.85398 0.42945 0.67645 0.0
O162 O 0.90134 0.41703 0.65863 0.0
H163 H 0.91236 0.48039 0.61243 0.0
H164 H 0.89071 0.51957 0.6026 0.0
C165 C 0.88783 0.49037 0.60534 0.0
H166 H 0.88509 0.47677 0.5916 0.0
H167 H 0.96224 0.42135 0.63374 0.0
O168 O 0.76855 0.43896 0.67179 0.0
C169 C 0.88769 0.42481 0.67448 0.0
Co170 Co 0.08727 0.30871 0.90234 0.0
Co171 Co 0.10647 0.37782 0.87939 0.0
C172 C 0.15625 0.3148 0.88162 0.0
O173 O 0.13472 0.29777 0.89217 0.0
O174 O 0.14881 0.34612 0.87557 0.0
C175 C 0.07897 0.23384 0.90863 0.0
O176 O 0.09574 0.23184 0.89245 0.0
C177 C 0.11086 0.41564 0.84405 0.0
C178 C 0.10554 0.47239 0.85259 0.0
C179 C 0.10652 0.45016 0.83697 0.0
N180 N 0.11159 0.41746 0.86283 0.0
N181 N 0.10959 0.45154 0.86789 0.0
C182 C 0.10912 0.3809 0.83346 0.0
H183 H 0.13416 0.3776 0.82521 0.0
H184 H 0.10655 0.35779 0.84321 0.0
H185 H 0.08623 0.38102 0.82349 0.0
C186 C 0.02238 0.31189 0.87929 0.0
N187 N 0.05574 0.32326 0.88328 0.0
N188 N 0.06192 0.35388 0.87457 0.0
C189 C 0.03177 0.36366 0.86532 0.0
C190 C 0.00625 0.33695 0.8677 0.0
C191 C 0.00462 0.28054 0.88865 0.0
H192 H 0.00483 0.2846 0.90407 0.0
H193 H 0.02004 0.25578 0.88553 0.0
H194 H 0.9765 0.27693 0.88384 0.0
O195 O 0.09022 0.34732 0.9214 0.0
O196 O 0.10552 0.39614 0.90525 0.0
H197 H 0.04016 0.42083 0.86476 0.0
H198 H -0.00364 0.4067 0.85672 0.0
C199 C 0.02538 0.39994 0.85683 0.0
H200 H 0.03481 0.39995 0.8421 0.0
H201 H 0.10828 0.46028 0.88177 0.0
O202 O 0.07068 0.26453 0.91512 0.0
C203 C 0.09777 0.38072 0.92068 0.0
Co204 Co 0.1797 0.57677 0.17455 0.0
Co205 Co 0.12184 0.57562 0.14281 0.0
C206 C 0.17636 0.63381 0.14473 0.0
O207 O 0.19012 0.61979 0.15931 0.0
O208 O 0.14929 0.61977 0.1367 0.0
C209 C 0.25219 0.57666 0.18522 0.0
O210 O 0.25581 0.58197 0.16709 0.0
C211 C 0.09413 0.56936 0.10486 0.0
C212 C 0.0384 0.5511 0.10968 0.0
C213 C 0.06313 0.5585 0.09565 0.0
N214 N 0.08798 0.56818 0.12339 0.0
N215 N 0.05443 0.55796 0.12621 0.0
C216 C 0.13028 0.57685 0.09652 0.0
H217 H 0.15161 0.57433 0.10732 0.0
H218 H 0.13593 0.55811 0.08479 0.0
H219 H 0.13067 0.6047 0.09094 0.0
C220 C 0.19404 0.50387 0.15955 0.0
N221 N 0.17645 0.53548 0.15914 0.0
N222 N 0.15209 0.53463 0.14573 0.0
C223 C 0.15318 0.5021 0.13736 0.0
C224 C 0.18003 0.48187 0.14573 0.0
C225 C 0.22206 0.49387 0.17368 0.0
H226 H 0.21461 0.50442 0.18768 0.0
H227 H 0.24811 0.50584 0.16946 0.0
H228 H 0.22541 0.46427 0.17458 0.0
O229 O 0.13434 0.58323 0.18897 0.0
O230 O 0.09415 0.58234 0.16591 0.0
H231 H 0.10069 0.497 0.1253 0.0
H232 H 0.13115 0.46124 0.11896 0.0
C233 C 0.12891 0.49045 0.12176 0.0
H234 H 0.1363 0.50502 0.10878 0.0
H235 H 0.04298 0.55424 0.13942 0.0
O236 O 0.22085 0.57258 0.19198 0.0
C237 C 0.1019 0.58468 0.18324 0.0
Co238 Co 0.92133 0.69842 0.41476 0.0
Co239 Co 0.89609 0.63765 0.38765 0.0
C240 C 0.84719 0.69717 0.39854 0.0
O241 O 0.87103 0.71007 0.4093 0.0
O242 O 0.85335 0.66932 0.38878 0.0
C243 C 0.93251 0.77125 0.41979 0.0
O244 O 0.9203 0.77038 0.40249 0.0
C245 C 0.88115 0.61096 0.35049 0.0
C246 C 0.88494 0.55212 0.35394 0.0
C247 C 0.88081 0.57886 0.34047 0.0
N248 N 0.88605 0.60336 0.36871 0.0
N249 N 0.88729 0.56813 0.37082 0.0
C250 C 0.88078 0.64864 0.34302 0.0
H251 H 0.85338 0.65515 0.33794 0.0
H252 H 0.88796 0.66816 0.35415 0.0
H253 H 0.89972 0.65152 0.33111 0.0
C254 C 0.98052 0.70289 0.38752 0.0
N255 N 0.94814 0.69033 0.39271 0.0
N256 N 0.93912 0.66329 0.38176 0.0
C257 C 0.96623 0.65718 0.36956 0.0
C258 C 0.99268 0.68273 0.37254 0.0
C259 C 0.002 0.72958 0.39857 0.0
H260 H -0.00107 0.72428 0.41379 0.0
H261 H 0.99193 0.75701 0.39552 0.0
H262 H 0.03093 0.72861 0.39489 0.0
O263 O 0.92422 0.65499 0.43083 0.0
O264 O 0.90353 0.61235 0.41174 0.0
H265 H 0.95649 0.60123 0.36398 0.0
H266 H -0.0021 0.61831 0.35426 0.0
C267 C 0.96939 0.62476 0.35724 0.0
H268 H 0.95602 0.63016 0.34365 0.0
H269 H 0.89179 0.55517 0.38359 0.0
O270 O 0.93812 0.74166 0.42825 0.0
C271 C 0.91575 0.62231 0.42762 0.0
C272 C 0.22272 0.06851 0.01792 0.0
C273 C 0.21532 0.0734 0.03707 0.0
C274 C 0.19576 0.07334 0.00453 0.0
C275 C 0.11749 0.12899 -0.00172 0.0
H276 H 0.11045 0.07974 0.95052 0.0
C277 C 0.05494 0.20257 0.93701 0.0
C278 C 0.07673 0.20202 0.92094 0.0
C279 C 0.05901 0.17636 0.9509 0.0
C280 C 0.11198 0.09377 0.9638 0.0
H281 H 0.17326 0.08453 0.05732 0.0
H282 H 0.12628 0.09331 0.03387 0.0
H283 H 0.1435 0.05193 0.97637 0.0
H284 H 0.11728 0.17178 0.90591 0.0
H285 H 0.12555 0.1272 0.93032 0.0
H286 H 0.08875 0.17202 0.9856 0.0
C287 C 0.15299 0.08596 0.02924 0.0
C288 C 0.13079 0.07776 0.9786 0.0
C289 C 0.17991 0.08094 0.04265 0.0
C290 C 0.10021 0.17301 0.9182 0.0
C291 C 0.10477 0.1472 0.93222 0.0
C292 C 0.0991 0.14515 0.98348 0.0
C293 C 0.16091 0.08329 0.01003 0.0
C294 C 0.13484 0.09587 -0.00425 0.0
C295 C 0.08549 0.14958 0.94916 0.0
C296 C 0.09732 0.12844 0.9658 0.0
H297 H 0.24967 0.06236 0.01319 0.0
H298 H 0.20278 0.07144 0.98982 0.0
H299 H 0.12045 0.14383 0.01126 0.0
H300 H 0.03611 0.22431 0.93931 0.0
H301 H 0.04289 0.17839 0.96349 0.0
C302 C 0.28044 0.57128 0.21697 0.0
C303 C 0.28387 0.57823 0.19768 0.0
C304 C 0.30934 0.5772 0.22908 0.0
C305 C 0.38392 0.63837 0.23296 0.0
H306 H 0.40456 0.58492 0.27842 0.0
C307 C 0.45284 0.71024 0.29297 0.0
C308 C 0.43452 0.70608 0.31004 0.0
C309 C 0.44792 0.68543 0.27848 0.0
C310 C 0.39921 0.60016 0.26577 0.0
H311 H 0.32099 0.59441 0.17576 0.0
H312 H 0.37127 0.60516 0.19699 0.0
H313 H 0.36859 0.5572 0.25365 0.0
H314 H 0.39964 0.67081 0.32604 0.0
H315 H 0.38987 0.62864 0.30075 0.0
H316 H 0.41169 0.68228 0.24539 0.0
C317 C 0.34619 0.59527 0.20272 0.0
C318 C 0.37873 0.5842 0.25159 0.0
C319 C 0.31738 0.58911 0.19059 0.0
C320 C 0.41395 0.67494 0.31299 0.0
C321 C 0.40857 0.65049 0.29844 0.0
C322 C 0.40394 0.65445 0.24719 0.0
C323 C 0.34213 0.59037 0.22214 0.0
C324 C 0.36982 0.60368 0.23535 0.0
C325 C 0.42407 0.65637 0.28069 0.0
C326 C 0.41063 0.63611 0.26411 0.0
H327 H 0.25505 0.56258 0.22284 0.0
H328 H 0.30529 0.57353 0.24401 0.0
H329 H 0.37719 0.65421 0.22069 0.0
H330 H 0.46942 0.73367 0.29042 0.0
H331 H 0.46117 0.69023 0.26519 0.0
C332 C 0.93967 0.80584 0.44963 0.0
C333 C 0.93225 0.80544 0.43031 0.0
C334 C 0.93055 0.83573 0.46046 0.0
C335 C 0.85755 0.89798 0.46031 0.0
H336 H 0.89909 0.92938 0.50737 0.0
C337 C 0.76536 0.94959 0.51786 0.0
C338 C 0.77204 0.93373 0.5354 0.0
C339 C 0.79171 0.94915 0.5039 0.0
C340 C 0.88708 0.92095 0.49426 0.0
H341 H 0.91387 0.8377 0.40679 0.0
H342 H 0.89769 0.88965 0.42577 0.0
H343 H 0.93705 0.90005 0.484 0.0
H344 H 0.81221 0.90709 0.55251 0.0
H345 H 0.85724 0.90471 0.52811 0.0
H346 H 0.80716 0.91549 0.47094 0.0
C347 C 0.91009 0.86673 0.43255 0.0
C348 C 0.90892 0.90441 0.48085 0.0
C349 C 0.91935 0.83692 0.42171 0.0
C350 C 0.80619 0.91942 0.5391 0.0
C351 C 0.83226 0.91843 0.52509 0.0
C352 C 0.83568 0.91397 0.47377 0.0
C353 C 0.91381 0.86563 0.45214 0.0
C354 C 0.89399 0.89141 0.46409 0.0
C355 C 0.825 0.93224 0.50709 0.0
C356 C 0.84981 0.92411 0.49128 0.0
H357 H 0.95 0.78215 0.45664 0.0
H358 H 0.93364 0.83403 0.47555 0.0
H359 H 0.84512 0.88789 0.44761 0.0
H360 H 0.73945 0.96141 0.51475 0.0
H361 H 0.78544 0.96082 0.49036 0.0
C362 C 0.67864 0.40421 0.67389 0.0
C363 C 0.70621 0.42927 0.67688 0.0
C364 C 0.65174 0.39947 0.68729 0.0
C365 C 0.64383 0.40917 0.73824 0.0
H366 H 0.55432 0.35878 0.72923 0.0
C367 C 0.5815 0.32625 0.79657 0.0
C368 C 0.57838 0.29008 0.79114 0.0
C369 C 0.58416 0.35332 0.78306 0.0
C370 C 0.57902 0.37324 0.73199 0.0
H371 H 0.72494 0.47214 0.69497 0.0
H372 H 0.67709 0.465 0.71802 0.0
H373 H 0.58291 0.39187 0.70364 0.0
H374 H 0.57201 0.25426 0.76737 0.0
H375 H 0.57701 0.30141 0.74381 0.0
H376 H 0.64073 0.38953 0.76631 0.0
C377 C 0.67702 0.44785 0.70575 0.0
C378 C 0.59552 0.39204 0.71733 0.0
C379 C 0.70435 0.4521 0.69252 0.0
C380 C 0.57481 0.28184 0.772 0.0
C381 C 0.57732 0.30893 0.75849 0.0
C382 C 0.62713 0.39083 0.75288 0.0
C383 C 0.65154 0.42013 0.70382 0.0
C384 C 0.6291 0.40868 0.72005 0.0
C385 C 0.58354 0.34472 0.76388 0.0
C386 C 0.59548 0.37127 0.74969 0.0
H387 H 0.6793 0.38631 0.66192 0.0
H388 H 0.6329 0.37766 0.68527 0.0
H389 H 0.66981 0.42114 0.74096 0.0
H390 H 0.58387 0.33355 0.81123 0.0
H391 H 0.58857 0.38075 0.78759 0.0
C392 C 0.61881 0.11821 0.93684 0.0
C393 C 0.60811 0.09073 0.92451 0.0
C394 C 0.60555 0.11928 0.95517 0.0
C395 C 0.54361 0.12838 0.98301 0.0
H396 H 0.53027 0.04565 0.01544 0.0
C397 C 0.41949 0.10602 0.02902 0.0
C398 C 0.42436 0.0932 0.04738 0.0
C399 C 0.44877 0.10956 0.01695 0.0
C400 C 0.53426 0.06916 0.0067 0.0
H401 H 0.57867 0.04051 0.92248 0.0
H402 H 0.55632 0.04199 0.95449 0.0
H403 H 0.57287 0.04235 0.98936 0.0
H404 H 0.4638 0.07459 0.06763 0.0
H405 H 0.51493 0.07997 0.04626 0.0
H406 H 0.50345 0.15445 -0.00033 0.0
C407 C 0.57434 0.0631 0.94989 0.0
C408 C 0.55846 0.06721 0.99178 0.0
C409 C 0.5871 0.06234 0.93151 0.0
C410 C 0.45922 0.08459 0.05355 0.0
C411 C 0.48844 0.08757 0.04136 0.0
C412 C 0.51906 0.13015 -0.00223 0.0
C413 C 0.58228 0.09229 0.96164 0.0
C414 C 0.56257 0.09647 0.9795 0.0
C415 C 0.4834 0.09986 0.02292 0.0
C416 C 0.51344 0.1002 0.00939 0.0
H417 H 0.63655 0.13945 0.93225 0.0
H418 H 0.61257 0.14173 0.96411 0.0
H419 H 0.54603 0.15121 0.97365 0.0
H420 H 0.393 0.11303 0.0239 0.0
H421 H 0.44413 0.11871 0.00272 0.0
C422 C 0.4361 0.90326 0.29034 0.0
C423 C 0.41587 0.91161 0.30638 0.0
C424 C 0.44005 0.92829 0.27596 0.0
C425 C 0.39551 0.00323 0.25355 0.0
H426 H 0.48726 0.01364 0.22835 0.0
C427 C 0.40857 0.07603 0.18223 0.0
C428 C 0.42644 0.05514 0.16873 0.0
C429 C 0.41053 0.06692 0.20126 0.0
C430 C 0.46149 0.01115 0.23528 0.0
H431 H 0.384 0.95292 0.31994 0.0
H432 H 0.39044 -0.00335 0.29443 0.0
H433 H 0.48403 0.98132 0.25811 0.0
H434 H 0.46222 0.00979 0.1647 0.0
H435 H 0.46569 0.99405 0.19765 0.0
H436 H 0.37265 0.0314 0.23023 0.0
C437 C 0.40337 0.97069 0.29318 0.0
C438 C 0.45967 0.99271 0.25229 0.0
C439 C 0.39975 0.9457 0.30775 0.0
C440 C 0.44802 0.02639 0.17472 0.0
C441 C 0.45015 0.01745 0.19366 0.0
C442 C 0.39731 0.02159 0.23646 0.0
C443 C 0.42365 0.96218 0.27718 0.0
C444 C 0.42648 0.98742 0.26122 0.0
C445 C 0.4309 0.03715 0.20711 0.0
C446 C 0.43012 0.02451 0.22682 0.0
H447 H 0.44899 0.87732 0.28886 0.0
H448 H 0.45534 0.92079 0.26364 0.0
H449 H 0.36957 -0.00061 0.26012 0.0
H450 H 0.39295 0.09925 0.17817 0.0
H451 H 0.39587 0.08292 0.21137 0.0
C452 C 0.4013 0.95256 0.4379 0.0
C453 C 0.37955 0.92534 0.43032 0.0
C454 C 0.41171 0.9513 0.45669 0.0
C455 C 0.4266 0.94429 0.49865 0.0
H456 H 0.47569 0.85299 0.50452 0.0
C457 C 0.53002 0.91436 0.55781 0.0
C458 C 0.56377 0.906 0.55011 0.0
C459 C 0.4993 0.91431 0.54651 0.0
C460 C 0.4616 0.87835 0.50325 0.0
H461 H 0.34658 0.87913 0.43728 0.0
H462 H 0.36639 0.87583 0.46992 0.0
H463 H 0.43183 0.86055 0.47936 0.0
H464 H 0.59172 0.88974 0.52483 0.0
H465 H 0.53791 0.88877 0.50524 0.0
H466 H 0.45791 0.96251 0.52204 0.0
C467 C 0.37585 0.8977 0.46118 0.0
C468 C 0.43632 0.88263 0.48898 0.0
C469 C 0.36497 0.89932 0.44243 0.0
C470 C 0.56609 0.89645 0.53111 0.0
C471 C 0.53533 0.89564 0.51995 0.0
C472 C 0.45151 0.93981 0.51314 0.0
C473 C 0.4006 0.92277 0.46821 0.0
C474 C 0.4197 0.91608 0.48607 0.0
C475 C 0.50179 0.90501 0.5275 0.0
C476 C 0.47025 0.90726 0.51502 0.0
H477 H 0.41262 0.97332 0.42903 0.0
H478 H 0.43088 0.97097 0.46173 0.0
H479 H 0.41411 0.97032 0.49667 0.0
H480 H 0.5275 0.92196 0.57242 0.0
H481 H 0.47368 0.92173 0.55257 0.0
C482 C 0.64188 0.09681 0.78138 0.0
C483 C 0.63078 0.08831 0.79965 0.0
C484 C 0.64178 0.07064 0.76744 0.0
C485 C 0.63011 0.97362 0.75696 0.0
H486 H 0.58414 0.01229 0.71248 0.0
C487 C 0.61756 0.90092 0.68494 0.0
C488 C 0.5882 0.91059 0.67357 0.0
C489 C 0.62189 0.9163 0.7027 0.0
C490 C 0.59653 0.00083 0.72487 0.0
H491 H 0.6136 0.04525 0.81811 0.0
H492 H 0.61234 -0.00047 0.79349 0.0
H493 H 0.59777 0.05178 0.73838 0.0
H494 H 0.53715 0.9389 0.67337 0.0
H495 H 0.54392 0.96416 0.70445 0.0
H496 H 0.62803 0.92226 0.74325 0.0
C497 C 0.62159 0.02632 0.79002 0.0
C498 C 0.60502 0.02368 0.73961 0.0
C499 C 0.62221 0.05251 0.80409 0.0
C500 C 0.56075 0.93167 0.68143 0.0
C501 C 0.56473 0.94647 0.69923 0.0
C502 C 0.62154 0.95054 0.74208 0.0
C503 C 0.62991 0.03557 0.7714 0.0
C504 C 0.62211 0.0105 0.75577 0.0
C505 C 0.59638 0.94081 0.70954 0.0
C506 C 0.6045 0.96399 0.72591 0.0
H507 H 0.64926 0.12408 0.77767 0.0
H508 H 0.64935 0.07832 0.75332 0.0
H509 H 0.64325 0.96273 0.76927 0.0
H510 H 0.63802 0.88277 0.67991 0.0
H511 H 0.64625 0.91079 0.71049 0.0
C512 C 0.10516 0.44289 0.80201 0.0
C513 C 0.092 0.45944 0.81831 0.0
C514 C 0.08594 0.44525 0.7852 0.0
C515 C 0.99294 0.45187 0.77095 0.0
H516 H 0.02996 0.46237 0.72043 0.0
C517 C 0.8993 0.44768 0.70691 0.0
C518 C 0.91178 0.43022 0.69071 0.0
C519 C 0.92249 0.45435 0.72189 0.0
C520 C 0.0193 0.45898 0.73445 0.0
H521 H 0.05049 0.49427 0.82946 0.0
H522 H 0.01722 0.49865 0.80012 0.0
H523 H 0.07011 0.47102 0.74723 0.0
H524 H 0.95829 0.40566 0.67762 0.0
H525 H -0.00157 0.41617 0.70404 0.0
H526 H 0.94263 0.43851 0.75844 0.0
C527 C 0.04197 0.48334 0.80039 0.0
C528 C 0.04225 0.46416 0.74975 0.0
C529 C 0.06121 0.4811 0.81713 0.0
C530 C 0.94787 0.41927 0.6899 0.0
C531 C 0.97098 0.4256 0.70497 0.0
C532 C 0.97016 0.44633 0.75572 0.0
C533 C 0.05334 0.46421 0.78451 0.0
C534 C 0.02921 0.4607 0.76813 0.0
C535 C 0.9586 0.44333 0.72113 0.0
C536 C 0.983 0.44979 0.73727 0.0
H537 H 0.12927 0.42667 0.80248 0.0
H538 H 0.09536 0.43037 0.77311 0.0
H539 H 0.98237 0.44822 0.78498 0.0
H540 H 0.87175 0.45683 0.70789 0.0
H541 H 0.91217 0.46862 0.73397 0.0
C542 C 0.106 0.43873 0.93796 0.0
C543 C 0.09484 0.4026 0.93788 0.0
C544 C 0.10053 0.46015 0.95377 0.0
C545 C 0.10379 0.49014 -0.00614 0.0
H546 H 0.01062 0.48545 0.01808 0.0
C547 C 0.07529 0.569 0.0615 0.0
C548 C 0.05937 0.54842 0.07576 0.0
C549 C 0.07573 0.55641 0.04304 0.0
C550 C 0.0368 0.48698 0.01151 0.0
H551 H 0.06981 0.36049 0.95446 0.0
H552 H 0.06027 0.39797 0.98199 0.0
H553 H 0.02097 0.45199 0.98918 0.0
H554 H 0.02939 0.49986 0.08184 0.0
H555 H 0.03044 0.47767 0.04982 0.0
H556 H 0.12017 0.52392 0.01653 0.0
C557 C 0.07297 0.4097 0.96975 0.0
C558 C 0.0427 0.46784 -0.005 0.0
C559 C 0.07875 0.38819 0.95405 0.0
C560 C 0.04186 0.51627 0.0711 0.0
C561 C 0.04238 0.50362 0.05271 0.0
C562 C 0.098 0.50908 0.01048 0.0
C563 C 0.08345 0.44594 0.96968 0.0
C564 C 0.07645 0.46867 0.98625 0.0
C565 C 0.06011 0.52309 0.03857 0.0
C566 C 0.06466 0.50708 0.01969 0.0
H567 H 0.11851 0.45063 0.92572 0.0
H568 H 0.10883 0.48805 0.95339 0.0
H569 H 0.13011 0.49106 0.9874 0.0
H570 H 0.08803 0.59444 0.06466 0.0
H571 H 0.08892 0.57238 0.03236 0.0
C572 C 0.03715 0.57742 0.19141 0.0
C573 C 0.07216 0.58717 0.19687 0.0
C574 C 0.00915 0.57755 0.20438 0.0
C575 C 0.97911 0.61533 0.24871 0.0
H576 H 0.92881 0.52501 0.25609 0.0
C577 C 0.91062 0.54672 0.31411 0.0
C578 C 0.8873 0.5741 0.32012 0.0
C579 C 0.92418 0.54685 0.29589 0.0
C580 C 0.94223 0.55052 0.25394 0.0
H581 H 0.10499 0.60581 0.22003 0.0
H582 H 0.0556 0.6067 0.2427 0.0
H583 H 0.97233 0.53085 0.23049 0.0
H584 H 0.85513 0.61931 0.31073 0.0
H585 H 0.88062 0.62079 0.27915 0.0
H586 H 0.94976 0.63473 0.27244 0.0
C587 C 0.05013 0.59878 0.22836 0.0
C588 C 0.96703 0.55388 0.23936 0.0
C589 C 0.07835 0.59807 0.21545 0.0
C590 C 0.87462 0.59911 0.30689 0.0
C591 C 0.88878 0.5997 0.28874 0.0
C592 C 0.95384 0.61219 0.26307 0.0
C593 C 0.01544 0.58804 0.22297 0.0
C594 C 0.98635 0.586 0.23697 0.0
C595 C 0.91477 0.57443 0.28339 0.0
C596 C 0.93591 0.57947 0.26609 0.0
H597 H 0.03148 0.56878 0.17721 0.0
H598 H 0.98258 0.56928 0.19992 0.0
H599 H 0.99357 0.6404 0.24703 0.0
H600 H 0.9206 0.5267 0.32384 0.0
H601 H 0.94418 0.52703 0.29207 0.0
C602 C 0.90915 0.55959 0.43997 0.0
C603 C 0.92198 0.59488 0.44229 0.0
C604 C 0.91638 0.53329 0.45345 0.0
C605 C 0.9785 0.51093 0.49183 0.0
H606 H 0.89918 0.45526 0.51178 0.0
C607 C 0.97774 0.45191 0.5657 0.0
C608 C 0.9571 0.42126 0.56963 0.0
C609 C 0.97911 0.4658 0.54755 0.0
C610 C 0.92188 0.46983 0.50607 0.0
H611 H 0.95248 0.63017 0.46057 0.0
H612 H 0.96497 0.58425 0.48407 0.0
H613 H 0.88928 0.49476 0.48502 0.0
H614 H 0.92542 0.37848 0.55734 0.0
H615 H 0.92771 0.40281 0.52547 0.0
H616 H 0.01095 0.48666 0.51313 0.0
C617 C 0.94959 0.57693 0.47174 0.0
C618 C 0.91611 0.49261 0.4908 0.0
C619 C 0.94211 0.6033 0.45837 0.0
C620 C 0.94057 0.40282 0.55477 0.0
C621 C 0.94195 0.41671 0.53655 0.0
C622 C 0.98435 0.48794 0.50701 0.0
C623 C 0.93688 0.54167 0.46939 0.0
C624 C 0.9441 0.51418 0.48392 0.0
C625 C 0.96009 0.44914 0.53291 0.0
C626 C 0.95583 0.46801 0.51469 0.0
H627 H 0.8936 0.55219 0.42772 0.0
H628 H 0.90631 0.50628 0.4513 0.0
H629 H 0.0007 0.52679 0.48654 0.0
H630 H 0.99084 0.4667 0.57686 0.0
H631 H 0.99309 0.49097 0.54533 0.0
C632 C 0.22784 0.6763 0.14153 0.0
C633 C 0.19216 0.66725 0.13723 0.0
C634 C 0.24257 0.70858 0.13521 0.0
C635 C 0.22692 0.78479 0.10209 0.0
H636 H 0.29189 0.83438 0.13587 0.0
C637 C 0.26315 0.93554 0.09661 0.0
C638 C 0.29987 0.94399 0.09731 0.0
C639 C 0.25143 0.90058 0.10018 0.0
C640 C 0.27405 0.82063 0.12624 0.0
H641 H 0.14401 0.68461 0.12274 0.0
H642 H 0.16912 0.74177 0.11237 0.0
H643 H 0.26824 0.77572 0.14461 0.0
H644 H 0.35329 0.9225 0.10167 0.0
H645 H 0.3326 0.86141 0.10879 0.0
H646 H 0.23169 0.83091 0.08418 0.0
C647 C 0.18619 0.72353 0.12017 0.0
C648 C 0.26059 0.78691 0.13117 0.0
C649 C 0.17165 0.69086 0.12621 0.0
C650 C 0.32476 0.91681 0.10151 0.0
C651 C 0.31299 0.88194 0.10543 0.0
C652 C 0.23993 0.81884 0.09734 0.0
C653 C 0.22177 0.73297 0.12474 0.0
C654 C 0.23679 0.76852 0.11917 0.0
C655 C 0.27623 0.87357 0.10478 0.0
C656 C 0.26353 0.83701 0.1094 0.0
H657 H 0.24447 0.65837 0.14979 0.0
H658 H 0.27032 0.71437 0.1386 0.0
H659 H 0.20923 0.77125 0.09233 0.0
H660 H 0.24343 0.95611 0.0935 0.0
H661 H 0.22292 0.89481 0.09977 0.0
C662 C 0.80254 0.74146 0.41081 0.0
C663 C 0.81181 0.71505 0.39756 0.0
C664 C 0.76909 0.75828 0.4101 0.0
C665 C 0.695 0.77998 0.3784 0.0
H666 H 0.63673 0.7837 0.42348 0.0
C667 C 0.53774 0.7907 0.39514 0.0
C668 C 0.52839 0.82007 0.38386 0.0
C669 C 0.57371 0.78408 0.39942 0.0
C670 C 0.65287 0.78309 0.41085 0.0
H671 H 0.79342 0.68596 0.373 0.0
H672 H 0.73495 0.71567 0.37168 0.0
H673 H 0.69754 0.75883 0.42496 0.0
H674 H 0.54819 0.86628 0.36863 0.0
H675 H 0.61149 0.85472 0.37605 0.0
H676 H 0.65015 0.8034 0.36417 0.0
C677 C 0.7537 0.72325 0.38261 0.0
C678 C 0.68762 0.76902 0.4117 0.0
C679 C 0.78704 0.7061 0.38344 0.0
C680 C 0.55506 0.84378 0.3776 0.0
C681 C 0.5911 0.83698 0.38171 0.0
C682 C 0.66046 0.79442 0.3776 0.0
C683 C 0.74439 0.74935 0.39599 0.0
C684 C 0.7087 0.76671 0.3954 0.0
C685 C 0.60079 0.80647 0.39219 0.0
C686 C 0.63885 0.79552 0.39374 0.0
H687 H 0.82103 0.74901 0.42187 0.0
H688 H 0.76262 0.77848 0.42049 0.0
H689 H 0.71087 0.77879 0.36568 0.0
H690 H 0.51741 0.77185 0.39978 0.0
H691 H 0.58047 0.76016 0.40734 0.0
C692 C 0.67059 0.06884 0.61157 0.0
C693 C 0.69403 0.04052 0.60736 0.0
C694 C 0.68421 0.10267 0.61629 0.0
C695 C 0.76871 0.14992 0.63004 0.0
H696 H 0.71886 0.23345 0.61048 0.0
C697 C 0.8309 0.29268 0.62759 0.0
C698 C 0.80918 0.32004 0.63504 0.0
C699 C 0.81682 0.25828 0.62462 0.0
C700 C 0.73293 0.21033 0.61609 0.0
H701 H 0.74975 0.02488 0.60473 0.0
H702 H 0.77366 0.084 0.61227 0.0
H703 H 0.69389 0.17373 0.60528 0.0
H704 H 0.75551 0.33299 0.64486 0.0
H705 H 0.73097 0.27324 0.63935 0.0
H706 H 0.80831 0.18682 0.64033 0.0
C707 C 0.74484 0.08018 0.61256 0.0
C708 C 0.71852 0.17611 0.61326 0.0
C709 C 0.7312 0.04636 0.60808 0.0
C710 C 0.77302 0.31248 0.63917 0.0
C711 C 0.75886 0.27835 0.63593 0.0
C712 C 0.78335 0.18413 0.63264 0.0
C713 C 0.72154 0.10891 0.61656 0.0
C714 C 0.73622 0.14544 0.62019 0.0
C715 C 0.78066 0.25089 0.62875 0.0
C716 C 0.76556 0.21461 0.6257 0.0
H717 H 0.64179 0.06518 0.61063 0.0
H718 H 0.66546 0.12402 0.61951 0.0
H719 H 0.78279 0.12703 0.63587 0.0
H720 H 0.85886 0.29768 0.6243 0.0
H721 H 0.83408 0.23754 0.61894 0.0
C722 C 0.4465 0.16303 0.85924 0.0
C723 C 0.47364 0.189 0.8576 0.0
C724 C 0.41097 0.17368 0.8624 0.0
C725 C 0.35199 0.24799 0.85188 0.0
H726 H 0.29062 0.21426 0.8921 0.0
C727 C 0.21968 0.31879 0.87027 0.0
C728 C 0.19094 0.29797 0.8769 0.0
C729 C 0.25318 0.30307 0.86717 0.0
C730 C 0.30716 0.22347 0.88057 0.0
H731 H 0.48587 0.24584 0.85871 0.0
H732 H 0.42385 0.26447 0.86398 0.0
H733 H 0.35134 0.19006 0.88897 0.0
H734 H 0.17424 0.24408 0.88472 0.0
H735 H 0.23229 0.21651 0.87874 0.0
H736 H 0.30811 0.28096 0.84319 0.0
C737 C 0.42986 0.23607 0.8628 0.0
C738 C 0.34191 0.20969 0.87887 0.0
C739 C 0.46521 0.22544 0.85989 0.0
C740 C 0.19601 0.26093 0.87979 0.0
C741 C 0.22936 0.24515 0.87648 0.0
C742 C 0.31719 0.26138 0.85339 0.0
C743 C 0.40237 0.21037 0.86364 0.0
C744 C 0.36475 0.22242 0.86473 0.0
C745 C 0.2585 0.26611 0.8704 0.0
C746 C 0.29456 0.24981 0.86796 0.0
H747 H 0.45245 0.13482 0.85717 0.0
H748 H 0.39004 0.15348 0.86297 0.0
H749 H 0.36908 0.25775 0.84067 0.0
H750 H 0.21662 0.34742 0.86801 0.0
H751 H 0.27516 0.32016 0.86276 0.0
C752 C 0.8422 0.57022 0.61848 0.0
C753 C 0.82051 0.54171 0.61242 0.0
C754 C 0.83275 0.60563 0.6142 0.0
C755 C 0.77485 0.66163 0.58385 0.0
H756 H 0.77273 0.72604 0.62662 0.0
C757 C 0.6989 0.79976 0.60716 0.0
C758 C 0.70477 0.82104 0.59115 0.0
C759 C 0.71684 0.76702 0.60934 0.0
C760 C 0.77317 0.70834 0.61456 0.0
H761 H 0.77282 0.527 0.59692 0.0
H762 H 0.75631 0.58889 0.5892 0.0
H763 H 0.79846 0.66604 0.63005 0.0
H764 H 0.73468 0.82492 0.56505 0.0
H765 H 0.76577 0.76789 0.56889 0.0
H766 H 0.74863 0.70354 0.56851 0.0
C767 C 0.78077 0.58409 0.59704 0.0
C768 C 0.78827 0.67418 0.61646 0.0
C769 C 0.79011 0.54877 0.60144 0.0
C770 C 0.72934 0.80913 0.57752 0.0
C771 C 0.74709 0.77637 0.57966 0.0
C772 C 0.75996 0.69586 0.58193 0.0
C773 C 0.8015 0.61292 0.60378 0.0
C774 C 0.7888 0.65031 0.60119 0.0
C775 C 0.74086 0.75487 0.59551 0.0
C776 C 0.75852 0.71937 0.59733 0.0
H777 H 0.86546 0.56518 0.62724 0.0
H778 H 0.84931 0.62734 0.61945 0.0
H779 H 0.77506 0.64383 0.57184 0.0
H780 H 0.68023 0.80819 0.61794 0.0
H781 H 0.71127 0.75081 0.62163 0.0
C782 C 0.69226 0.26413 0.84261 0.0
C783 C 0.68795 0.23095 0.85182 0.0
C784 C 0.72287 0.28488 0.84558 0.0
C785 C 0.80268 0.29647 0.87588 0.0
H786 H 0.84885 0.32517 0.82941 0.0
C787 C 0.95395 0.31711 0.84898 0.0
C788 C 0.96783 0.33854 0.86336 0.0
C789 C 0.91691 0.31293 0.84708 0.0
C790 C 0.83613 0.3176 0.8425 0.0
H791 H 0.71129 0.19464 0.87229 0.0
H792 H 0.7652 0.23075 0.87729 0.0
H793 H 0.78837 0.30023 0.82862 0.0
H794 H 0.95503 0.37325 0.88673 0.0
H795 H 0.88983 0.36606 0.88345 0.0
H796 H 0.85126 0.31223 0.88963 0.0
C797 C 0.74469 0.24077 0.86786 0.0
C798 C 0.80142 0.30359 0.84209 0.0
C799 C 0.71393 0.21998 0.86492 0.0
C800 C 0.9445 0.35697 0.87539 0.0
C801 C 0.90742 0.35262 0.8736 0.0
C802 C 0.83739 0.31064 0.8763 0.0
C803 C 0.74987 0.27292 0.85781 0.0
C804 C 0.78468 0.29206 0.85872 0.0
C805 C 0.89335 0.3298 0.85972 0.0
C806 C 0.85477 0.32044 0.85955 0.0
H807 H 0.67245 0.27369 0.83265 0.0
H808 H 0.72586 0.30986 0.83791 0.0
H809 H 0.79027 0.28812 0.88892 0.0
H810 H 0.97178 0.30229 0.8398 0.0
H811 H 0.90685 0.29479 0.83642 0.0
C812 C 0.22723 0.43994 0.13456 0.0
C813 C 0.19204 0.44538 0.14089 0.0
C814 C 0.23906 0.40544 0.13006 0.0
C815 C 0.22358 0.31034 0.13947 0.0
H816 H 0.27164 0.29555 0.09182 0.0
C817 C 0.27336 0.18698 0.08913 0.0
C818 C 0.29551 0.16734 0.10141 0.0
C819 C 0.25932 0.22013 0.09452 0.0
C820 C 0.25815 0.29928 0.10514 0.0
H821 H 0.14177 0.4197 0.14808 0.0
H822 H 0.16258 0.35885 0.14035 0.0
H823 H 0.24999 0.35542 0.10011 0.0
H824 H 0.31922 0.16655 0.12923 0.0
H825 H 0.29416 0.22455 0.13871 0.0
H826 H 0.23212 0.25413 0.14453 0.0
C827 C 0.18089 0.38127 0.13874 0.0
C828 C 0.24601 0.33352 0.10992 0.0
C829 C 0.16892 0.41591 0.14301 0.0
C830 C 0.30239 0.18111 0.11942 0.0
C831 C 0.28793 0.21417 0.12489 0.0
C832 C 0.23619 0.27611 0.13478 0.0
C833 C 0.216 0.37579 0.13211 0.0
C834 C 0.22858 0.33936 0.12711 0.0
C835 C 0.26674 0.23419 0.11236 0.0
C836 C 0.25345 0.2703 0.11753 0.0
H837 H 0.24547 0.46244 0.13299 0.0
H838 H 0.26636 0.40186 0.12516 0.0
H839 H 0.21039 0.31425 0.15285 0.0
H840 H 0.26743 0.17715 0.07517 0.0
H841 H 0.24273 0.2349 0.08468 0.0
C842 C 0.28783 0.79636 0.36559 0.0
C843 C 0.31271 0.78745 0.35154 0.0
C844 C 0.25478 0.77868 0.36655 0.0
C845 C 0.18955 0.73161 0.3375 0.0
H846 H 0.15087 0.69942 0.38515 0.0
C847 C 0.05533 0.66005 0.37164 0.0
C848 C 0.0292 0.68384 0.36485 0.0
C849 C 0.09157 0.66608 0.3677 0.0
C850 C 0.16154 0.70776 0.3717 0.0
H851 H 0.32254 0.75281 0.32756 0.0
H852 H 0.26465 0.72239 0.32916 0.0
H853 H 0.21179 0.72359 0.38376 0.0
H854 H 0.01937 0.73145 0.34824 0.0
H855 H 0.08277 0.74182 0.341 0.0
H856 H 0.13882 0.71678 0.32555 0.0
C857 C 0.27078 0.74301 0.33939 0.0
C858 C 0.19619 0.72195 0.37095 0.0
C859 C 0.30394 0.76038 0.33855 0.0
C860 C 0.03929 0.71253 0.35329 0.0
C861 C 0.07545 0.71838 0.34918 0.0
C862 C 0.15472 0.71777 0.33828 0.0
C863 C 0.24589 0.75205 0.35337 0.0
C864 C 0.21028 0.73452 0.35391 0.0
C865 C 0.10199 0.69591 0.35688 0.0
C866 C 0.14023 0.7062 0.35544 0.0
H867 H 0.29384 0.81698 0.37584 0.0
H868 H 0.23587 0.78636 0.37736 0.0
H869 H 0.19977 0.74127 0.32419 0.0
H870 H 0.04788 0.63811 0.38085 0.0
H871 H 0.11154 0.64832 0.37373 0.0
loop_
_geom_bond_atom_site_label_1
_geom_bond_atom_site_label_2
_geom_bond_distance
_geom_bond_site_symmetry_2
_ccdc_geom_bond_type
Co0 O3 1.970 . S
Co0 N17 1.989 . S
Co0 O25 1.967 . S
Co0 O32 1.920 . S
Co1 O4 1.966 . S
Co1 N10 2.022 . S
Co1 N18 1.993 . S
Co1 O26 1.941 . S
C2 O3 1.258 . S
C2 O4 1.263 . S
O3 Co0 1.970 . S
O3 C2 1.258 . S
O4 Co1 1.966 . S
O4 C2 1.263 . S
C5 O6 1.235 . S
C5 O32 1.289 . S
O6 C5 1.235 . S
C7 C9 1.400 . S
C7 N10 1.351 . S
C7 C12 1.501 . S
C8 C9 1.387 . S
C8 N11 1.341 . S
C9 C7 1.400 . S
C9 C8 1.387 . S
N10 Co1 2.022 . S
N10 C7 1.351 . S
N10 N11 1.365 . S
N11 C8 1.341 . S
N11 N10 1.365 . S
N11 H31 0.862 . S
C12 C7 1.501 . S
C12 H13 0.961 . S
C12 H14 0.961 . S
C12 H15 0.960 . S
H13 C12 0.961 . S
H14 C12 0.961 . S
H15 C12 0.960 . S
C16 N17 1.342 . S
C16 C20 1.401 1_545 S
C16 C21 1.499 . S
N17 Co0 1.989 . S
N17 C16 1.342 . S
N17 N18 1.388 . S
N18 Co1 1.993 . S
N18 N17 1.388 . S
N18 C19 1.346 1_545 S
C19 N18 1.346 1_565 S
C19 C20 1.396 . S
C19 C29 1.510 . S
C20 C16 1.401 1_565 S
C20 C19 1.396 . S
C21 C16 1.499 . S
C21 H22 0.959 . S
C21 H23 0.960 1_545 S
C21 H24 0.961 1_545 S
H22 C21 0.959 . S
H23 C21 0.960 1_565 S
H24 C21 0.961 1_565 S
O25 Co0 1.967 . S
O25 C33 1.258 . S
O26 Co1 1.941 . S
O26 C33 1.266 . S
H27 C29 0.959 . S
H28 C29 0.961 . S
C29 C19 1.510 . S
C29 H27 0.959 . S
C29 H28 0.961 . S
C29 H30 0.960 . S
H30 C29 0.960 . S
H31 N11 0.862 . S
O32 Co0 1.920 . S
O32 C5 1.289 . S
C33 O25 1.258 . S
C33 O26 1.266 . S
Co34 O37 1.970 . S
Co34 N51 1.989 . S
Co34 O59 1.967 . S
Co34 O66 1.920 . S
Co35 O38 1.966 . S
Co35 N44 2.022 . S
Co35 N52 1.993 . S
Co35 O60 1.941 . S
C36 O37 1.258 . S
C36 O38 1.263 . S
O37 Co34 1.970 . S
O37 C36 1.258 . S
O38 Co35 1.966 . S
O38 C36 1.263 . S
C39 O40 1.235 . S
C39 O66 1.289 . S
O40 C39 1.235 . S
C41 C43 1.400 . S
C41 N44 1.351 . S
C41 C46 1.501 . S
C42 C43 1.387 . S
C42 N45 1.341 . S
C43 C41 1.400 . S
C43 C42 1.387 . S
N44 Co35 2.022 . S
N44 C41 1.351 . S
N44 N45 1.365 . S
N45 C42 1.341 . S
N45 N44 1.365 . S
N45 H65 0.862 . S
C46 C41 1.501 . S
C46 H47 0.961 . S
C46 H48 0.961 . S
C46 H49 0.960 . S
H47 C46 0.961 . S
H48 C46 0.961 . S
H49 C46 0.960 . S
C50 N51 1.342 . S
C50 C54 1.401 . S
C50 C55 1.499 . S
N51 Co34 1.989 . S
N51 C50 1.342 . S
N51 N52 1.388 . S
N52 Co35 1.993 . S
N52 N51 1.388 . S
N52 C53 1.346 . S
C53 N52 1.346 . S
C53 C54 1.396 . S
C53 C63 1.510 . S
C54 C50 1.401 . S
C54 C53 1.396 . S
C55 C50 1.499 . S
C55 H56 0.959 . S
C55 H57 0.960 . S
C55 H58 0.961 . S
H56 C55 0.959 . S
H57 C55 0.960 . S
H58 C55 0.961 . S
O59 Co34 1.967 . S
O59 C67 1.258 . S
O60 Co35 1.941 . S
O60 C67 1.266 . S
H61 C63 0.959 . S
H62 C63 0.961 . S
C63 C53 1.510 . S
C63 H61 0.959 . S
C63 H62 0.961 . S
C63 H64 0.960 . S
H64 C63 0.960 . S
H65 N45 0.862 . S
O66 Co34 1.920 . S
O66 C39 1.289 . S
C67 O59 1.258 . S
C67 O60 1.266 . S
Co68 O71 1.970 . S
Co68 N85 1.989 . S
Co68 O93 1.967 . S
Co68 O100 1.920 . S
Co69 O72 1.966 . S
Co69 N78 2.022 . S
Co69 N86 1.993 . S
Co69 O94 1.941 . S
C70 O71 1.258 . S
C70 O72 1.263 . S
O71 Co68 1.970 . S
O71 C70 1.258 . S
O72 Co69 1.966 . S
O72 C70 1.263 . S
C73 O74 1.235 . S
C73 O100 1.289 . S
O74 C73 1.235 . S
C75 C77 1.400 . S
C75 N78 1.351 . S
C75 C80 1.501 . S
C76 C77 1.387 1_545 S
C76 N79 1.341 1_545 S
C77 C75 1.400 . S
C77 C76 1.387 1_565 S
N78 Co69 2.022 . S
N78 C75 1.351 . S
N78 N79 1.365 . S
N79 C76 1.341 1_565 S
N79 N78 1.365 . S
N79 H99 0.862 1_565 S
C80 C75 1.501 . S
C80 H81 0.961 . S
C80 H82 0.961 . S
C80 H83 0.960 . S
H81 C80 0.961 . S
H82 C80 0.961 . S
H83 C80 0.960 . S
C84 N85 1.342 1_545 S
C84 C88 1.401 . S
C84 C89 1.499 . S
N85 Co68 1.989 . S
N85 C84 1.342 1_565 S
N85 N86 1.388 . S
N86 Co69 1.993 . S
N86 N85 1.388 . S
N86 C87 1.346 1_565 S
C87 N86 1.346 1_545 S
C87 C88 1.396 . S
C87 C97 1.510 . S
C88 C84 1.401 . S
C88 C87 1.396 . S
C89 C84 1.499 . S
C89 H90 0.959 1_545 S
C89 H91 0.960 . S
C89 H92 0.961 . S
H90 C89 0.959 1_565 S
H91 C89 0.960 . S
H92 C89 0.961 . S
O93 Co68 1.967 . S
O93 C101 1.258 . S
O94 Co69 1.941 . S
O94 C101 1.266 . S
H95 C97 0.959 . S
H96 C97 0.961 . S
C97 C87 1.510 . S
C97 H95 0.959 . S
C97 H96 0.961 . S
C97 H98 0.960 . S
H98 C97 0.960 . S
H99 N79 0.862 1_545 S
O100 Co68 1.920 . S
O100 C73 1.289 . S
C101 O93 1.258 . S
C101 O94 1.266 . S
Co102 O105 1.970 . S
Co102 N119 1.989 . S
Co102 O127 1.967 . S
Co102 O134 1.920 . S
Co103 O106 1.966 . S
Co103 N112 2.022 . S
Co103 N120 1.993 . S
Co103 O128 1.941 . S
C104 O105 1.258 . S
C104 O106 1.263 . S
O105 Co102 1.970 . S
O105 C104 1.258 . S
O106 Co103 1.966 . S
O106 C104 1.263 . S
C107 O108 1.235 . S
C107 O134 1.289 . S
O108 C107 1.235 . S
C109 C111 1.400 . S
C109 N112 1.351 . S
C109 C114 1.501 . S
C110 C111 1.387 . S
C110 N113 1.341 . S
C111 C109 1.400 . S
C111 C110 1.387 . S
N112 Co103 2.022 . S
N112 C109 1.351 . S
N112 N113 1.365 . S
N113 C110 1.341 . S
N113 N112 1.365 . S
N113 H133 0.862 . S
C114 C109 1.501 . S
C114 H115 0.961 . S
C114 H116 0.961 . S
C114 H117 0.960 . S
H115 C114 0.961 . S
H116 C114 0.961 . S
H117 C114 0.960 . S
C118 N119 1.342 . S
C118 C122 1.401 . S
C118 C123 1.499 . S
N119 Co102 1.989 . S
N119 C118 1.342 . S
N119 N120 1.388 . S
N120 Co103 1.993 . S
N120 N119 1.388 . S
N120 C121 1.346 . S
C121 N120 1.346 . S
C121 C122 1.396 . S
C121 C131 1.510 . S
C122 C118 1.401 . S
C122 C121 1.396 . S
C123 C118 1.499 . S
C123 H124 0.959 . S
C123 H125 0.960 . S
C123 H126 0.961 . S
H124 C123 0.959 . S
H125 C123 0.960 . S
H126 C123 0.961 . S
O127 Co102 1.967 . S
O127 C135 1.258 . S
O128 Co103 1.941 . S
O128 C135 1.266 . S
H129 C131 0.959 . S
H130 C131 0.961 . S
C131 C121 1.510 . S
C131 H129 0.959 . S
C131 H130 0.961 . S
C131 H132 0.960 . S
H132 C131 0.960 . S
H133 N113 0.862 . S
O134 Co102 1.920 . S
O134 C107 1.289 . S
C135 O127 1.258 . S
C135 O128 1.266 . S
Co136 O139 1.970 . S
Co136 N153 1.989 . S
Co136 O161 1.967 . S
Co136 O168 1.920 . S
Co137 O140 1.966 . S
Co137 N146 2.022 . S
Co137 N154 1.993 . S
Co137 O162 1.941 . S
C138 O139 1.258 . S
C138 O140 1.263 . S
O139 Co136 1.970 . S
O139 C138 1.258 . S
O140 Co137 1.966 . S
O140 C138 1.263 . S
C141 O142 1.235 . S
C141 O168 1.289 . S
O142 C141 1.235 . S
C143 C145 1.400 . S
C143 N146 1.351 . S
C143 C148 1.501 . S
C144 C145 1.387 . S
C144 N147 1.341 . S
C145 C143 1.400 . S
C145 C144 1.387 . S
N146 Co137 2.022 . S
N146 C143 1.351 . S
N146 N147 1.365 . S
N147 C144 1.341 . S
N147 N146 1.365 . S
N147 H167 0.862 . S
C148 C143 1.501 . S
C148 H149 0.961 . S
C148 H150 0.961 . S
C148 H151 0.960 . S
H149 C148 0.961 . S
H150 C148 0.961 . S
H151 C148 0.960 . S
C152 N153 1.342 . S
C152 C156 1.401 . S
C152 C157 1.499 . S
N153 Co136 1.989 . S
N153 C152 1.342 . S
N153 N154 1.388 . S
N154 Co137 1.993 . S
N154 N153 1.388 . S
N154 C155 1.346 . S
C155 N154 1.346 . S
C155 C156 1.396 . S
C155 C165 1.510 . S
C156 C152 1.401 . S
C156 C155 1.396 . S
C157 C152 1.499 . S
C157 H158 0.959 . S
C157 H159 0.960 . S
C157 H160 0.961 . S
H158 C157 0.959 . S
H159 C157 0.960 . S
H160 C157 0.961 . S
O161 Co136 1.967 . S
O161 C169 1.258 . S
O162 Co137 1.941 . S
O162 C169 1.266 . S
H163 C165 0.959 . S
H164 C165 0.961 . S
C165 C155 1.510 . S
C165 H163 0.959 . S
C165 H164 0.961 . S
C165 H166 0.960 . S
H166 C165 0.960 . S
H167 N147 0.862 . S
O168 Co136 1.920 . S
O168 C141 1.289 . S
C169 O161 1.258 . S
C169 O162 1.266 . S
Co170 O173 1.970 . S
Co170 N187 1.989 . S
Co170 O195 1.967 . S
Co170 O202 1.920 . S
Co171 O174 1.966 . S
Co171 N180 2.022 . S
Co171 N188 1.993 . S
Co171 O196 1.941 . S
C172 O173 1.258 . S
C172 O174 1.263 . S
O173 Co170 1.970 . S
O173 C172 1.258 . S
O174 Co171 1.966 . S
O174 C172 1.263 . S
C175 O176 1.235 . S
C175 O202 1.289 . S
O176 C175 1.235 . S
C177 C179 1.400 . S
C177 N180 1.351 . S
C177 C182 1.501 . S
C178 C179 1.387 . S
C178 N181 1.341 . S
C179 C177 1.400 . S
C179 C178 1.387 . S
N180 Co171 2.022 . S
N180 C177 1.351 . S
N180 N181 1.365 . S
N181 C178 1.341 . S
N181 N180 1.365 . S
N181 H201 0.862 . S
C182 C177 1.501 . S
C182 H183 0.961 . S
C182 H184 0.961 . S
C182 H185 0.960 . S
H183 C182 0.961 . S
H184 C182 0.961 . S
H185 C182 0.960 . S
C186 N187 1.342 . S
C186 C190 1.401 1_455 S
C186 C191 1.499 . S
N187 Co170 1.989 . S
N187 C186 1.342 . S
N187 N188 1.388 . S
N188 Co171 1.993 . S
N188 N187 1.388 . S
N188 C189 1.346 1_455 S
C189 N188 1.346 1_655 S
C189 C190 1.396 . S
C189 C199 1.510 . S
C190 C186 1.401 1_655 S
C190 C189 1.396 . S
C191 C186 1.499 . S
C191 H192 0.959 . S
C191 H193 0.960 1_455 S
C191 H194 0.961 1_455 S
H192 C191 0.959 . S
H193 C191 0.960 1_655 S
H194 C191 0.961 1_655 S
O195 Co170 1.967 . S
O195 C203 1.258 . S
O196 Co171 1.941 . S
O196 C203 1.266 . S
H197 C199 0.959 . S
H198 C199 0.961 . S
C199 C189 1.510 . S
C199 H197 0.959 . S
C199 H198 0.961 . S
C199 H200 0.960 . S
H200 C199 0.960 . S
H201 N181 0.862 . S
O202 Co170 1.920 . S
O202 C175 1.289 . S
C203 O195 1.258 . S
C203 O196 1.266 . S
Co204 O207 1.970 . S
Co204 N221 1.989 . S
Co204 O229 1.967 . S
Co204 O236 1.920 . S
Co205 O208 1.966 . S
Co205 N214 2.022 . S
Co205 N222 1.993 . S
Co205 O230 1.941 . S
C206 O207 1.258 . S
C206 O208 1.263 . S
O207 Co204 1.970 . S
O207 C206 1.258 . S
O208 Co205 1.966 . S
O208 C206 1.263 . S
C209 O210 1.235 . S
C209 O236 1.289 . S
O210 C209 1.235 . S
C211 C213 1.400 . S
C211 N214 1.351 . S
C211 C216 1.501 . S
C212 C213 1.387 . S
C212 N215 1.341 . S
C213 C211 1.400 . S
C213 C212 1.387 . S
N214 Co205 2.022 . S
N214 C211 1.351 . S
N214 N215 1.365 . S
N215 C212 1.341 . S
N215 N214 1.365 . S
N215 H235 0.862 . S
C216 C211 1.501 . S
C216 H217 0.961 . S
C216 H218 0.961 . S
C216 H219 0.960 . S
H217 C216 0.961 . S
H218 C216 0.961 . S
H219 C216 0.960 . S
C220 N221 1.342 . S
C220 C224 1.401 . S
C220 C225 1.499 . S
N221 Co204 1.989 . S
N221 C220 1.342 . S
N221 N222 1.388 . S
N222 Co205 1.993 . S
N222 N221 1.388 . S
N222 C223 1.346 . S
C223 N222 1.346 . S
C223 C224 1.396 . S
C223 C233 1.510 . S
C224 C220 1.401 . S
C224 C223 1.396 . S
C225 C220 1.499 . S
C225 H226 0.959 . S
C225 H227 0.960 . S
C225 H228 0.961 . S
H226 C225 0.959 . S
H227 C225 0.960 . S
H228 C225 0.961 . S
O229 Co204 1.967 . S
O229 C237 1.258 . S
O230 Co205 1.941 . S
O230 C237 1.266 . S
H231 C233 0.959 . S
H232 C233 0.961 . S
C233 C223 1.510 . S
C233 H231 0.959 . S
C233 H232 0.961 . S
C233 H234 0.960 . S
H234 C233 0.960 . S
H235 N215 0.862 . S
O236 Co204 1.920 . S
O236 C209 1.289 . S
C237 O229 1.258 . S
C237 O230 1.266 . S
Co238 O241 1.970 . S
Co238 N255 1.989 . S
Co238 O263 1.967 . S
Co238 O270 1.920 . S
Co239 O242 1.966 . S
Co239 N248 2.022 . S
Co239 N256 1.993 . S
Co239 O264 1.941 . S
C240 O241 1.258 . S
C240 O242 1.263 . S
O241 Co238 1.970 . S
O241 C240 1.258 . S
O242 Co239 1.966 . S
O242 C240 1.263 . S
C243 O244 1.235 . S
C243 O270 1.289 . S
O244 C243 1.235 . S
C245 C247 1.400 . S
C245 N248 1.351 . S
C245 C250 1.501 . S
C246 C247 1.387 1_455 S
C246 N249 1.341 1_455 S
C247 C245 1.400 . S
C247 C246 1.387 1_655 S
N248 Co239 2.022 . S
N248 C245 1.351 . S
N248 N249 1.365 . S
N249 C246 1.341 1_655 S
N249 N248 1.365 . S
N249 H269 0.862 1_655 S
C250 C245 1.501 . S
C250 H251 0.961 . S
C250 H252 0.961 . S
C250 H253 0.960 . S
H251 C250 0.961 . S
H252 C250 0.961 . S
H253 C250 0.960 . S
C254 N255 1.342 1_455 S
C254 C258 1.401 . S
C254 C259 1.499 . S
N255 Co238 1.989 . S
N255 C254 1.342 1_655 S
N255 N256 1.388 . S
N256 Co239 1.993 . S
N256 N255 1.388 . S
N256 C257 1.346 1_655 S
C257 N256 1.346 1_455 S
C257 C258 1.396 . S
C257 C267 1.510 . S
C258 C254 1.401 . S
C258 C257 1.396 . S
C259 C254 1.499 . S
C259 H260 0.959 1_455 S
C259 H261 0.960 . S
C259 H262 0.961 . S
H260 C259 0.959 1_655 S
H261 C259 0.960 . S
H262 C259 0.961 . S
O263 Co238 1.967 . S
O263 C271 1.258 . S
O264 Co239 1.941 . S
O264 C271 1.266 . S
H265 C267 0.959 . S
H266 C267 0.961 . S
C267 C257 1.510 . S
C267 H265 0.959 . S
C267 H266 0.961 . S
C267 H268 0.960 . S
H268 C267 0.960 . S
H269 N249 0.862 1_455 S
O270 Co238 1.920 . S
O270 C243 1.289 . S
C271 O263 1.258 . S
C271 O264 1.266 . S
C272 C273 1.349 . S
C272 C274 1.327 . S
C272 H297 0.950 . S
C273 C272 1.349 . S
C273 C289 1.349 . S
C274 C272 1.327 . S
C274 C293 1.429 . S
C274 H298 0.950 . S
C275 C292 1.574 1_554 S
C275 C294 1.368 . S
C275 H299 0.949 . S
H276 C280 0.949 . S
C277 C278 1.349 . S
C277 C279 1.327 . S
C277 H300 0.950 . S
C278 C277 1.349 . S
C278 C290 1.349 . S
C279 C277 1.327 . S
C279 C295 1.429 . S
C279 H301 0.950 . S
C280 H276 0.949 . S
C280 C288 1.574 1_556 S
C280 C296 1.368 . S
H281 C289 0.950 . S
H282 C287 0.950 . S
H283 C288 0.949 . S
H284 C290 0.950 . S
H285 C291 0.950 . S
H286 C292 0.949 . S
C287 H282 0.950 . S
C287 C289 1.327 . S
C287 C293 1.429 . S
C288 C280 1.574 1_554 S
C288 H283 0.949 . S
C288 C294 1.368 . S
C289 C273 1.349 . S
C289 H281 0.950 . S
C289 C287 1.327 . S
C290 C278 1.349 . S
C290 H284 0.950 . S
C290 C291 1.327 . S
C291 H285 0.950 . S
C291 C290 1.327 . S
C291 C295 1.429 . S
C292 C275 1.574 1_556 S
C292 H286 0.949 . S
C292 C296 1.368 . S
C293 C274 1.429 . S
C293 C287 1.429 . S
C293 C294 1.523 . S
C294 C275 1.368 . S
C294 C288 1.368 . S
C294 C293 1.523 . S
C295 C279 1.429 . S
C295 C291 1.429 . S
C295 C296 1.523 . S
C296 C280 1.368 . S
C296 C292 1.368 . S
C296 C295 1.523 . S
H297 C272 0.950 . S
H298 C274 0.950 . S
H299 C275 0.949 . S
H300 C277 0.950 . S
H301 C279 0.950 . S
C302 C303 1.349 . S
C302 C304 1.327 . S
C302 H327 0.950 . S
C303 C302 1.349 . S
C303 C319 1.349 . S
C304 C302 1.327 . S
C304 C323 1.429 . S
C304 H328 0.950 . S
C305 C322 1.574 . S
C305 C324 1.368 . S
C305 H329 0.949 . S
H306 C310 0.949 . S
C307 C308 1.349 . S
C307 C309 1.327 . S
C307 H330 0.950 . S
C308 C307 1.349 . S
C308 C320 1.349 . S
C309 C307 1.327 . S
C309 C325 1.429 . S
C309 H331 0.950 . S
C310 H306 0.949 . S
C310 C318 1.574 . S
C310 C326 1.368 . S
H311 C319 0.950 . S
H312 C317 0.950 . S
H313 C318 0.949 . S
H314 C320 0.950 . S
H315 C321 0.950 . S
H316 C322 0.949 . S
C317 H312 0.950 . S
C317 C319 1.327 . S
C317 C323 1.429 . S
C318 C310 1.574 . S
C318 H313 0.949 . S
C318 C324 1.368 . S
C319 C303 1.349 . S
C319 H311 0.950 . S
C319 C317 1.327 . S
C320 C308 1.349 . S
C320 H314 0.950 . S
C320 C321 1.327 . S
C321 H315 0.950 . S
C321 C320 1.327 . S
C321 C325 1.429 . S
C322 C305 1.574 . S
C322 H316 0.949 . S
C322 C326 1.368 . S
C323 C304 1.429 . S
C323 C317 1.429 . S
C323 C324 1.523 . S
C324 C305 1.368 . S
C324 C318 1.368 . S
C324 C323 1.523 . S
C325 C309 1.429 . S
C325 C321 1.429 . S
C325 C326 1.523 . S
C326 C310 1.368 . S
C326 C322 1.368 . S
C326 C325 1.523 . S
H327 C302 0.950 . S
H328 C304 0.950 . S
H329 C305 0.949 . S
H330 C307 0.950 . S
H331 C309 0.950 . S
C332 C333 1.349 . S
C332 C334 1.327 . S
C332 H357 0.950 . S
C333 C332 1.349 . S
C333 C349 1.349 . S
C334 C332 1.327 . S
C334 C353 1.429 . S
C334 H358 0.950 . S
C335 C352 1.574 . S
C335 C354 1.368 . S
C335 H359 0.949 . S
H336 C340 0.949 . S
C337 C338 1.349 . S
C337 C339 1.327 . S
C337 H360 0.950 . S
C338 C337 1.349 . S
C338 C350 1.349 . S
C339 C337 1.327 . S
C339 C355 1.429 . S
C339 H361 0.950 . S
C340 H336 0.949 . S
C340 C348 1.574 . S
C340 C356 1.368 . S
H341 C349 0.950 . S
H342 C347 0.950 . S
H343 C348 0.949 . S
H344 C350 0.950 . S
H345 C351 0.950 . S
H346 C352 0.949 . S
C347 H342 0.950 . S
C347 C349 1.327 . S
C347 C353 1.429 . S
C348 C340 1.574 . S
C348 H343 0.949 . S
C348 C354 1.368 . S
C349 C333 1.349 . S
C349 H341 0.950 . S
C349 C347 1.327 . S
C350 C338 1.349 . S
C350 H344 0.950 . S
C350 C351 1.327 . S
C351 H345 0.950 . S
C351 C350 1.327 . S
C351 C355 1.429 . S
C352 C335 1.574 . S
C352 H346 0.949 . S
C352 C356 1.368 . S
C353 C334 1.429 . S
C353 C347 1.429 . S
C353 C354 1.523 . S
C354 C335 1.368 . S
C354 C348 1.368 . S
C354 C353 1.523 . S
C355 C339 1.429 . S
C355 C351 1.429 . S
C355 C356 1.523 . S
C356 C340 1.368 . S
C356 C352 1.368 . S
C356 C355 1.523 . S
H357 C332 0.950 . S
H358 C334 0.950 . S
H359 C335 0.949 . S
H360 C337 0.950 . S
H361 C339 0.950 . S
C362 C363 1.349 . S
C362 C364 1.327 . S
C362 H387 0.950 . S
C363 C362 1.349 . S
C363 C379 1.349 . S
C364 C362 1.327 . S
C364 C383 1.429 . S
C364 H388 0.950 . S
C365 C382 1.574 . S
C365 C384 1.368 . S
C365 H389 0.949 . S
H366 C370 0.949 . S
C367 C368 1.349 . S
C367 C369 1.327 . S
C367 H390 0.950 . S
C368 C367 1.349 . S
C368 C380 1.349 . S
C369 C367 1.327 . S
C369 C385 1.429 . S
C369 H391 0.950 . S
C370 H366 0.949 . S
C370 C378 1.574 . S
C370 C386 1.368 . S
H371 C379 0.950 . S
H372 C377 0.950 . S
H373 C378 0.949 . S
H374 C380 0.950 . S
H375 C381 0.950 . S
H376 C382 0.949 . S
C377 H372 0.950 . S
C377 C379 1.327 . S
C377 C383 1.429 . S
C378 C370 1.574 . S
C378 H373 0.949 . S
C378 C384 1.368 . S
C379 C363 1.349 . S
C379 H371 0.950 . S
C379 C377 1.327 . S
C380 C368 1.349 . S
C380 H374 0.950 . S
C380 C381 1.327 . S
C381 H375 0.950 . S
C381 C380 1.327 . S
C381 C385 1.429 . S
C382 C365 1.574 . S
C382 H376 0.949 . S
C382 C386 1.368 . S
C383 C364 1.429 . S
C383 C377 1.429 . S
C383 C384 1.523 . S
C384 C365 1.368 . S
C384 C378 1.368 . S
C384 C383 1.523 . S
C385 C369 1.429 . S
C385 C381 1.429 . S
C385 C386 1.523 . S
C386 C370 1.368 . S
C386 C382 1.368 . S
C386 C385 1.523 . S
H387 C362 0.950 . S
H388 C364 0.950 . S
H389 C365 0.949 . S
H390 C367 0.950 . S
H391 C369 0.950 . S
C392 C393 1.349 . S
C392 C394 1.327 . S
C392 H417 0.950 . S
C393 C392 1.349 . S
C393 C409 1.349 . S
C394 C392 1.327 . S
C394 C413 1.429 . S
C394 H418 0.950 . S
C395 C412 1.574 1_556 S
C395 C414 1.368 . S
C395 H419 0.949 . S
H396 C400 0.949 . S
C397 C398 1.349 . S
C397 C399 1.327 . S
C397 H420 0.950 . S
C398 C397 1.349 . S
C398 C410 1.349 . S
C399 C397 1.327 . S
C399 C415 1.429 . S
C399 H421 0.950 . S
C400 H396 0.949 . S
C400 C408 1.630 . S
C400 C416 1.368 . S
H401 C409 0.950 . S
H402 C407 0.950 . S
H403 C408 0.930 1_556 S
H404 C410 0.950 . S
H405 C411 0.950 . S
H406 C412 0.949 . S
C407 H402 0.950 . S
C407 C409 1.327 . S
C407 C413 1.429 . S
C408 C400 1.630 . S
C408 H403 0.930 1_554 S
C408 C414 1.336 1_554 S
C409 C393 1.349 . S
C409 H401 0.950 . S
C409 C407 1.327 . S
C410 C398 1.349 . S
C410 H404 0.950 . S
C410 C411 1.327 . S
C411 H405 0.950 . S
C411 C410 1.327 . S
C411 C415 1.429 . S
C412 C395 1.574 1_554 S
C412 H406 0.949 . S
C412 C416 1.368 . S
C413 C394 1.429 . S
C413 C407 1.429 . S
C413 C414 1.523 . S
C414 C395 1.368 . S
C414 C408 1.336 1_556 S
C414 C413 1.523 . S
C415 C399 1.429 . S
C415 C411 1.429 . S
C415 C416 1.523 . S
C416 C400 1.368 . S
C416 C412 1.368 . S
C416 C415 1.523 . S
H417 C392 0.950 . S
H418 C394 0.950 . S
H419 C395 0.949 . S
H420 C397 0.950 . S
H421 C399 0.950 . S
C422 C423 1.349 . S
C422 C424 1.327 . S
C422 H447 0.950 . S
C423 C422 1.349 . S
C423 C439 1.349 . S
C424 C422 1.327 . S
C424 C443 1.429 . S
C424 H448 0.950 . S
C425 C442 1.574 . S
C425 C444 1.368 . S
C425 H449 0.949 . S
H426 C430 0.949 . S
C427 C428 1.349 . S
C427 C429 1.327 . S
C427 H450 0.950 . S
C428 C427 1.349 . S
C428 C440 1.349 1_545 S
C429 C427 1.327 . S
C429 C445 1.429 1_545 S
C429 H451 0.950 . S
C430 H426 0.949 . S
C430 C438 1.574 . S
C430 C446 1.368 . S
H431 C439 0.950 . S
H432 C437 0.950 . S
H433 C438 0.949 . S
H434 C440 0.950 . S
H435 C441 0.950 . S
H436 C442 0.949 1_545 S
C437 H432 0.950 . S
C437 C439 1.327 . S
C437 C443 1.429 . S
C438 C430 1.574 . S
C438 H433 0.949 . S
C438 C444 1.368 . S
C439 C423 1.349 . S
C439 H431 0.950 . S
C439 C437 1.327 . S
C440 C428 1.349 1_565 S
C440 H434 0.950 . S
C440 C441 1.327 . S
C441 H435 0.950 . S
C441 C440 1.327 . S
C441 C445 1.429 . S
C442 C425 1.574 . S
C442 H436 0.949 1_565 S
C442 C446 1.368 . S
C443 C424 1.429 . S
C443 C437 1.429 . S
C443 C444 1.523 . S
C444 C425 1.368 . S
C444 C438 1.368 . S
C444 C443 1.523 . S
C445 C429 1.429 1_565 S
C445 C441 1.429 . S
C445 C446 1.523 . S
C446 C430 1.368 . S
C446 C442 1.368 . S
C446 C445 1.523 . S
H447 C422 0.950 . S
H448 C424 0.950 . S
H449 C425 0.949 . S
H450 C427 0.950 . S
H451 C429 0.950 . S
C452 C453 1.349 . S
C452 C454 1.327 . S
C452 H477 0.950 . S
C453 C452 1.349 . S
C453 C469 1.349 . S
C454 C452 1.327 . S
C454 C473 1.429 . S
C454 H478 0.950 . S
C455 C472 1.574 . S
C455 C474 1.368 . S
C455 H479 0.949 . S
H456 C460 0.949 . S
C457 C458 1.349 . S
C457 C459 1.327 . S
C457 H480 0.950 . S
C458 C457 1.349 . S
C458 C470 1.349 . S
C459 C457 1.327 . S
C459 C475 1.429 . S
C459 H481 0.950 . S
C460 H456 0.949 . S
C460 C468 1.574 . S
C460 C476 1.368 . S
H461 C469 0.950 . S
H462 C467 0.950 . S
H463 C468 0.949 . S
H464 C470 0.950 . S
H465 C471 0.950 . S
H466 C472 0.949 . S
C467 H462 0.950 . S
C467 C469 1.327 . S
C467 C473 1.429 . S
C468 C460 1.574 . S
C468 H463 0.949 . S
C468 C474 1.368 . S
C469 C453 1.349 . S
C469 H461 0.950 . S
C469 C467 1.327 . S
C470 C458 1.349 . S
C470 H464 0.950 . S
C470 C471 1.327 . S
C471 H465 0.950 . S
C471 C470 1.327 . S
C471 C475 1.429 . S
C472 C455 1.574 . S
C472 H466 0.949 . S
C472 C476 1.368 . S
C473 C454 1.429 . S
C473 C467 1.429 . S
C473 C474 1.523 . S
C474 C455 1.368 . S
C474 C468 1.368 . S
C474 C473 1.523 . S
C475 C459 1.429 . S
C475 C471 1.429 . S
C475 C476 1.523 . S
C476 C460 1.368 . S
C476 C472 1.368 . S
C476 C475 1.523 . S
H477 C452 0.950 . S
H478 C454 0.950 . S
H479 C455 0.949 . S
H480 C457 0.950 . S
H481 C459 0.950 . S
C482 C483 1.349 . S
C482 C484 1.327 . S
C482 H507 0.950 . S
C483 C482 1.349 . S
C483 C499 1.349 . S
C484 C482 1.327 . S
C484 C503 1.429 . S
C484 H508 0.950 . S
C485 C502 1.574 . S
C485 C504 1.368 . S
C485 H509 0.949 . S
H486 C490 0.949 . S
C487 C488 1.349 . S
C487 C489 1.327 . S
C487 H510 0.950 . S
C488 C487 1.349 . S
C488 C500 1.349 1_565 S
C489 C487 1.327 . S
C489 C505 1.429 1_565 S
C489 H511 0.950 . S
C490 H486 0.949 . S
C490 C498 1.574 . S
C490 C506 1.368 . S
H491 C499 0.950 . S
H492 C497 0.950 . S
H493 C498 0.949 . S
H494 C500 0.950 . S
H495 C501 0.950 . S
H496 C502 0.949 1_565 S
C497 H492 0.950 . S
C497 C499 1.327 . S
C497 C503 1.429 . S
C498 C490 1.574 . S
C498 H493 0.949 . S
C498 C504 1.368 . S
C499 C483 1.349 . S
C499 H491 0.950 . S
C499 C497 1.327 . S
C500 C488 1.349 1_545 S
C500 H494 0.950 . S
C500 C501 1.327 . S
C501 H495 0.950 . S
C501 C500 1.327 . S
C501 C505 1.429 . S
C502 C485 1.574 . S
C502 H496 0.949 1_545 S
C502 C506 1.368 . S
C503 C484 1.429 . S
C503 C497 1.429 . S
C503 C504 1.523 . S
C504 C485 1.368 . S
C504 C498 1.368 . S
C504 C503 1.523 . S
C505 C489 1.429 1_545 S
C505 C501 1.429 . S
C505 C506 1.523 . S
C506 C490 1.368 . S
C506 C502 1.368 . S
C506 C505 1.523 . S
H507 C482 0.950 . S
H508 C484 0.950 . S
H509 C485 0.949 . S
H510 C487 0.950 . S
H511 C489 0.950 . S
C512 C513 1.349 . S
C512 C514 1.327 . S
C512 H537 0.950 . S
C513 C512 1.349 . S
C513 C529 1.360 . S
C514 C512 1.327 . S
C514 C533 1.429 1_455 S
C514 H538 0.950 . S
C515 C532 1.574 . S
C515 C534 1.368 . S
C515 H539 0.949 . S
H516 C520 0.949 . S
C517 C518 1.349 . S
C517 C519 1.327 . S
C517 H540 0.950 . S
C518 C517 1.349 . S
C518 C530 1.349 . S
C519 C517 1.327 . S
C519 C535 1.429 . S
C519 H541 0.950 . S
C520 H516 0.949 . S
C520 C528 1.574 . S
C520 C536 1.368 . S
H521 C529 0.946 1_655 S
H522 C527 0.950 . S
H523 C528 0.949 1_455 S
H524 C530 0.950 . S
H525 C531 0.950 . S
H526 C532 0.949 . S
C527 H522 0.950 . S
C527 C529 1.321 1_655 S
C527 C533 1.429 . S
C528 C520 1.574 . S
C528 H523 0.949 1_655 S
C528 C534 1.368 . S
C529 C513 1.360 . S
C529 H521 0.946 1_455 S
C529 C527 1.321 1_455 S
C530 C518 1.349 . S
C530 H524 0.950 . S
C530 C531 1.327 . S
C531 H525 0.950 . S
C531 C530 1.327 . S
C531 C535 1.429 . S
C532 C515 1.574 . S
C532 H526 0.949 . S
C532 C536 1.368 . S
C533 C514 1.429 1_655 S
C533 C527 1.429 . S
C533 C534 1.523 . S
C534 C515 1.368 . S
C534 C528 1.368 . S
C534 C533 1.523 . S
C535 C519 1.429 . S
C535 C531 1.429 . S
C535 C536 1.523 . S
C536 C520 1.368 . S
C536 C532 1.368 . S
C536 C535 1.523 . S
H537 C512 0.950 . S
H538 C514 0.950 . S
H539 C515 0.949 . S
H540 C517 0.950 . S
H541 C519 0.950 . S
C542 C543 1.349 . S
C542 C544 1.327 . S
C542 H567 0.950 . S
C543 C542 1.349 . S
C543 C559 1.349 . S
C544 C542 1.327 . S
C544 C563 1.429 . S
C544 H568 0.950 . S
C545 C562 1.574 . S
C545 C564 1.368 . S
C545 H569 0.949 . S
H546 C550 0.949 . S
C547 C548 1.349 . S
C547 C549 1.327 . S
C547 H570 0.950 . S
C548 C547 1.349 . S
C548 C560 1.349 . S
C549 C547 1.327 . S
C549 C565 1.429 . S
C549 H571 0.950 . S
C550 H546 0.949 . S
C550 C558 1.574 1_554 S
C550 C566 1.368 . S
H551 C559 0.950 . S
H552 C557 0.950 . S
H553 C558 0.949 . S
H554 C560 0.950 . S
H555 C561 0.950 . S
H556 C562 0.949 . S
C557 H552 0.950 . S
C557 C559 1.327 . S
C557 C563 1.429 . S
C558 C550 1.574 1_556 S
C558 H553 0.949 . S
C558 C564 1.368 . S
C559 C543 1.349 . S
C559 H551 0.950 . S
C559 C557 1.327 . S
C560 C548 1.349 . S
C560 H554 0.950 . S
C560 C561 1.327 . S
C561 H555 0.950 . S
C561 C560 1.327 . S
C561 C565 1.429 . S
C562 C545 1.574 . S
C562 H556 0.949 . S
C562 C566 1.368 1_556 S
C563 C544 1.429 . S
C563 C557 1.429 . S
C563 C564 1.523 . S
C564 C545 1.368 . S
C564 C558 1.368 . S
C564 C563 1.523 . S
C565 C549 1.429 . S
C565 C561 1.429 . S
C565 C566 1.523 . S
C566 C550 1.368 . S
C566 C562 1.368 1_554 S
C566 C565 1.523 . S
H567 C542 0.950 . S
H568 C544 0.950 . S
H569 C545 0.949 . S
H570 C547 0.950 . S
H571 C549 0.950 . S
C572 C573 1.349 . S
C572 C574 1.327 . S
C572 H597 0.950 . S
C573 C572 1.349 . S
C573 C589 1.349 . S
C574 C572 1.327 . S
C574 C593 1.429 . S
C574 H598 0.950 . S
C575 C592 1.574 . S
C575 C594 1.368 . S
C575 H599 0.949 . S
H576 C580 0.949 . S
C577 C578 1.349 . S
C577 C579 1.327 1_655 S
C577 H600 0.950 . S
C578 C577 1.349 . S
C578 C590 1.349 . S
C579 C577 1.327 1_455 S
C579 C595 1.429 . S
C579 H601 0.950 . S
C580 H576 0.949 . S
C580 C588 1.574 . S
C580 C596 1.368 . S
H581 C589 0.950 . S
H582 C587 0.950 . S
H583 C588 0.949 . S
H584 C590 0.950 . S
H585 C591 0.950 . S
H586 C592 0.949 . S
C587 H582 0.950 . S
C587 C589 1.327 . S
C587 C593 1.429 . S
C588 C580 1.574 . S
C588 H583 0.949 . S
C588 C594 1.368 . S
C589 C573 1.349 . S
C589 H581 0.950 . S
C589 C587 1.327 . S
C590 C578 1.349 . S
C590 H584 0.950 . S
C590 C591 1.327 1_655 S
C591 H585 0.950 . S
C591 C590 1.327 1_455 S
C591 C595 1.429 . S
C592 C575 1.574 . S
C592 H586 0.949 . S
C592 C596 1.368 . S
C593 C574 1.429 . S
C593 C587 1.429 . S
C593 C594 1.523 . S
C594 C575 1.368 . S
C594 C588 1.368 . S
C594 C593 1.523 . S
C595 C579 1.429 . S
C595 C591 1.429 . S
C595 C596 1.523 . S
C596 C580 1.368 . S
C596 C592 1.368 . S
C596 C595 1.523 . S
H597 C572 0.950 . S
H598 C574 0.950 . S
H599 C575 0.949 . S
H600 C577 0.950 . S
H601 C579 0.950 . S
C602 C603 1.349 . S
C602 C604 1.327 . S
C602 H627 0.950 . S
C603 C602 1.349 . S
C603 C619 1.349 . S
C604 C602 1.327 . S
C604 C623 1.429 . S
C604 H628 0.950 . S
C605 C622 1.574 . S
C605 C624 1.368 . S
C605 H629 0.949 . S
H606 C610 0.949 . S
C607 C608 1.349 . S
C607 C609 1.327 . S
C607 H630 0.950 . S
C608 C607 1.349 . S
C608 C620 1.349 . S
C609 C607 1.327 . S
C609 C625 1.429 . S
C609 H631 0.950 . S
C610 H606 0.949 . S
C610 C618 1.574 . S
C610 C626 1.368 . S
H611 C619 0.950 . S
H612 C617 0.950 . S
H613 C618 0.949 . S
H614 C620 0.950 . S
H615 C621 0.950 . S
H616 C622 0.949 . S
C617 H612 0.950 . S
C617 C619 1.327 . S
C617 C623 1.429 . S
C618 C610 1.574 . S
C618 H613 0.949 . S
C618 C624 1.368 . S
C619 C603 1.349 . S
C619 H611 0.950 . S
C619 C617 1.327 . S
C620 C608 1.349 . S
C620 H614 0.950 . S
C620 C621 1.327 . S
C621 H615 0.950 . S
C621 C620 1.327 . S
C621 C625 1.429 . S
C622 C605 1.574 . S
C622 H616 0.949 . S
C622 C626 1.368 . S
C623 C604 1.429 . S
C623 C617 1.429 . S
C623 C624 1.523 . S
C624 C605 1.368 . S
C624 C618 1.368 . S
C624 C623 1.523 . S
C625 C609 1.429 . S
C625 C621 1.429 . S
C625 C626 1.523 . S
C626 C610 1.368 . S
C626 C622 1.368 . S
C626 C625 1.523 . S
H627 C602 0.950 . S
H628 C604 0.950 . S
H629 C605 0.949 . S
H630 C607 0.950 . S
H631 C609 0.950 . S
C632 C633 1.349 . S
C632 C634 1.327 . S
C632 H657 0.950 . S
C633 C632 1.349 . S
C633 C649 1.349 . S
C634 C632 1.327 . S
C634 C653 1.429 . S
C634 H658 0.950 . S
C635 C652 1.574 . S
C635 C654 1.368 . S
C635 H659 0.949 . S
H636 C640 0.949 . S
C637 C638 1.349 . S
C637 C639 1.327 . S
C637 H660 0.950 . S
C638 C637 1.349 . S
C638 C650 1.349 . S
C639 C637 1.327 . S
C639 C655 1.429 . S
C639 H661 0.950 . S
C640 H636 0.949 . S
C640 C648 1.574 . S
C640 C656 1.368 . S
H641 C649 0.950 . S
H642 C647 0.950 . S
H643 C648 0.949 . S
H644 C650 0.950 . S
H645 C651 0.950 . S
H646 C652 0.949 . S
C647 H642 0.950 . S
C647 C649 1.327 . S
C647 C653 1.429 . S
C648 C640 1.574 . S
C648 H643 0.949 . S
C648 C654 1.368 . S
C649 C633 1.349 . S
C649 H641 0.950 . S
C649 C647 1.327 . S
C650 C638 1.349 . S
C650 H644 0.950 . S
C650 C651 1.327 . S
C651 H645 0.950 . S
C651 C650 1.327 . S
C651 C655 1.429 . S
C652 C635 1.574 . S
C652 H646 0.949 . S
C652 C656 1.368 . S
C653 C634 1.429 . S
C653 C647 1.429 . S
C653 C654 1.523 . S
C654 C635 1.368 . S
C654 C648 1.368 . S
C654 C653 1.523 . S
C655 C639 1.429 . S
C655 C651 1.429 . S
C655 C656 1.523 . S
C656 C640 1.368 . S
C656 C652 1.368 . S
C656 C655 1.523 . S
H657 C632 0.950 . S
H658 C634 0.950 . S
H659 C635 0.949 . S
H660 C637 0.950 . S
H661 C639 0.950 . S
C662 C663 1.349 . S
C662 C664 1.327 . S
C662 H687 0.950 . S
C663 C662 1.349 . S
C663 C679 1.349 . S
C664 C662 1.327 . S
C664 C683 1.429 . S
C664 H688 0.950 . S
C665 C682 1.574 . S
C665 C684 1.368 . S
C665 H689 0.949 . S
H666 C670 0.949 . S
C667 C668 1.349 . S
C667 C669 1.327 . S
C667 H690 0.950 . S
C668 C667 1.349 . S
C668 C680 1.349 . S
C669 C667 1.327 . S
C669 C685 1.429 . S
C669 H691 0.950 . S
C670 H666 0.949 . S
C670 C678 1.574 . S
C670 C686 1.368 . S
H671 C679 0.950 . S
H672 C677 0.950 . S
H673 C678 0.949 . S
H674 C680 0.950 . S
H675 C681 0.950 . S
H676 C682 0.949 . S
C677 H672 0.950 . S
C677 C679 1.327 . S
C677 C683 1.429 . S
C678 C670 1.574 . S
C678 H673 0.949 . S
C678 C684 1.368 . S
C679 C663 1.349 . S
C679 H671 0.950 . S
C679 C677 1.327 . S
C680 C668 1.349 . S
C680 H674 0.950 . S
C680 C681 1.327 . S
C681 H675 0.950 . S
C681 C680 1.327 . S
C681 C685 1.429 . S
C682 C665 1.574 . S
C682 H676 0.949 . S
C682 C686 1.368 . S
C683 C664 1.429 . S
C683 C677 1.429 . S
C683 C684 1.523 . S
C684 C665 1.368 . S
C684 C678 1.368 . S
C684 C683 1.523 . S
C685 C669 1.429 . S
C685 C681 1.429 . S
C685 C686 1.523 . S
C686 C670 1.368 . S
C686 C682 1.368 . S
C686 C685 1.523 . S
H687 C662 0.950 . S
H688 C664 0.950 . S
H689 C665 0.949 . S
H690 C667 0.950 . S
H691 C669 0.950 . S
C692 C693 1.349 . S
C692 C694 1.327 . S
C692 H717 0.950 . S
C693 C692 1.349 . S
C693 C709 1.349 . S
C694 C692 1.327 . S
C694 C713 1.429 . S
C694 H718 0.950 . S
C695 C712 1.574 . S
C695 C714 1.368 . S
C695 H719 0.949 . S
H696 C700 0.949 . S
C697 C698 1.349 . S
C697 C699 1.327 . S
C697 H720 0.950 . S
C698 C697 1.349 . S
C698 C710 1.349 . S
C699 C697 1.327 . S
C699 C715 1.429 . S
C699 H721 0.950 . S
C700 H696 0.949 . S
C700 C708 1.574 . S
C700 C716 1.368 . S
H701 C709 0.950 . S
H702 C707 0.950 . S
H703 C708 0.949 . S
H704 C710 0.950 . S
H705 C711 0.950 . S
H706 C712 0.949 . S
C707 H702 0.950 . S
C707 C709 1.327 . S
C707 C713 1.429 . S
C708 C700 1.574 . S
C708 H703 0.949 . S
C708 C714 1.368 . S
C709 C693 1.349 . S
C709 H701 0.950 . S
C709 C707 1.327 . S
C710 C698 1.349 . S
C710 H704 0.950 . S
C710 C711 1.327 . S
C711 H705 0.950 . S
C711 C710 1.327 . S
C711 C715 1.429 . S
C712 C695 1.574 . S
C712 H706 0.949 . S
C712 C716 1.368 . S
C713 C694 1.429 . S
C713 C707 1.429 . S
C713 C714 1.523 . S
C714 C695 1.368 . S
C714 C708 1.368 . S
C714 C713 1.523 . S
C715 C699 1.429 . S
C715 C711 1.429 . S
C715 C716 1.523 . S
C716 C700 1.368 . S
C716 C712 1.368 . S
C716 C715 1.523 . S
H717 C692 0.950 . S
H718 C694 0.950 . S
H719 C695 0.949 . S
H720 C697 0.950 . S
H721 C699 0.950 . S
C722 C723 1.349 . S
C722 C724 1.327 . S
C722 H747 0.950 . S
C723 C722 1.349 . S
C723 C739 1.349 . S
C724 C722 1.327 . S
C724 C743 1.429 . S
C724 H748 0.950 . S
C725 C742 1.574 . S
C725 C744 1.368 . S
C725 H749 0.949 . S
H726 C730 0.949 . S
C727 C728 1.349 . S
C727 C729 1.327 . S
C727 H750 0.950 . S
C728 C727 1.349 . S
C728 C740 1.349 . S
C729 C727 1.327 . S
C729 C745 1.429 . S
C729 H751 0.950 . S
C730 H726 0.949 . S
C730 C738 1.574 . S
C730 C746 1.368 . S
H731 C739 0.950 . S
H732 C737 0.950 . S
H733 C738 0.949 . S
H734 C740 0.950 . S
H735 C741 0.950 . S
H736 C742 0.949 . S
C737 H732 0.950 . S
C737 C739 1.327 . S
C737 C743 1.429 . S
C738 C730 1.574 . S
C738 H733 0.949 . S
C738 C744 1.368 . S
C739 C723 1.349 . S
C739 H731 0.950 . S
C739 C737 1.327 . S
C740 C728 1.349 . S
C740 H734 0.950 . S
C740 C741 1.327 . S
C741 H735 0.950 . S
C741 C740 1.327 . S
C741 C745 1.429 . S
C742 C725 1.574 . S
C742 H736 0.949 . S
C742 C746 1.368 . S
C743 C724 1.429 . S
C743 C737 1.429 . S
C743 C744 1.523 . S
C744 C725 1.368 . S
C744 C738 1.368 . S
C744 C743 1.523 . S
C745 C729 1.429 . S
C745 C741 1.429 . S
C745 C746 1.523 . S
C746 C730 1.368 . S
C746 C742 1.368 . S
C746 C745 1.523 . S
H747 C722 0.950 . S
H748 C724 0.950 . S
H749 C725 0.949 . S
H750 C727 0.950 . S
H751 C729 0.950 . S
C752 C753 1.349 . S
C752 C754 1.327 . S
C752 H777 0.950 . S
C753 C752 1.349 . S
C753 C769 1.349 . S
C754 C752 1.327 . S
C754 C773 1.429 . S
C754 H778 0.950 . S
C755 C772 1.574 . S
C755 C774 1.368 . S
C755 H779 0.949 . S
H756 C760 0.949 . S
C757 C758 1.349 . S
C757 C759 1.327 . S
C757 H780 0.950 . S
C758 C757 1.349 . S
C758 C770 1.349 . S
C759 C757 1.327 . S
C759 C775 1.429 . S
C759 H781 0.950 . S
C760 H756 0.949 . S
C760 C768 1.574 . S
C760 C776 1.368 . S
H761 C769 0.950 . S
H762 C767 0.950 . S
H763 C768 0.949 . S
H764 C770 0.950 . S
H765 C771 0.950 . S
H766 C772 0.949 . S
C767 H762 0.950 . S
C767 C769 1.327 . S
C767 C773 1.429 . S
C768 C760 1.574 . S
C768 H763 0.949 . S
C768 C774 1.368 . S
C769 C753 1.349 . S
C769 H761 0.950 . S
C769 C767 1.327 . S
C770 C758 1.349 . S
C770 H764 0.950 . S
C770 C771 1.327 . S
C771 H765 0.950 . S
C771 C770 1.327 . S
C771 C775 1.429 . S
C772 C755 1.574 . S
C772 H766 0.949 . S
C772 C776 1.368 . S
C773 C754 1.429 . S
C773 C767 1.429 . S
C773 C774 1.523 . S
C774 C755 1.368 . S
C774 C768 1.368 . S
C774 C773 1.523 . S
C775 C759 1.429 . S
C775 C771 1.429 . S
C775 C776 1.523 . S
C776 C760 1.368 . S
C776 C772 1.368 . S
C776 C775 1.523 . S
H777 C752 0.950 . S
H778 C754 0.950 . S
H779 C755 0.949 . S
H780 C757 0.950 . S
H781 C759 0.950 . S
C782 C783 1.349 . S
C782 C784 1.327 . S
C782 H807 0.950 . S
C783 C782 1.349 . S
C783 C799 1.349 . S
C784 C782 1.327 . S
C784 C803 1.429 . S
C784 H808 0.950 . S
C785 C802 1.574 . S
C785 C804 1.368 . S
C785 H809 0.949 . S
H786 C790 0.949 . S
C787 C788 1.349 . S
C787 C789 1.327 . S
C787 H810 0.950 . S
C788 C787 1.349 . S
C788 C800 1.349 . S
C789 C787 1.327 . S
C789 C805 1.429 . S
C789 H811 0.950 . S
C790 H786 0.949 . S
C790 C798 1.574 . S
C790 C806 1.368 . S
H791 C799 0.950 . S
H792 C797 0.950 . S
H793 C798 0.949 . S
H794 C800 0.950 . S
H795 C801 0.950 . S
H796 C802 0.949 . S
C797 H792 0.950 . S
C797 C799 1.327 . S
C797 C803 1.429 . S
C798 C790 1.574 . S
C798 H793 0.949 . S
C798 C804 1.368 . S
C799 C783 1.349 . S
C799 H791 0.950 . S
C799 C797 1.327 . S
C800 C788 1.349 . S
C800 H794 0.950 . S
C800 C801 1.327 . S
C801 H795 0.950 . S
C801 C800 1.327 . S
C801 C805 1.429 . S
C802 C785 1.574 . S
C802 H796 0.949 . S
C802 C806 1.368 . S
C803 C784 1.429 . S
C803 C797 1.429 . S
C803 C804 1.523 . S
C804 C785 1.368 . S
C804 C798 1.368 . S
C804 C803 1.523 . S
C805 C789 1.429 . S
C805 C801 1.429 . S
C805 C806 1.523 . S
C806 C790 1.368 . S
C806 C802 1.368 . S
C806 C805 1.523 . S
H807 C782 0.950 . S
H808 C784 0.950 . S
H809 C785 0.949 . S
H810 C787 0.950 . S
H811 C789 0.950 . S
C812 C813 1.349 . S
C812 C814 1.327 . S
C812 H837 0.950 . S
C813 C812 1.349 . S
C813 C829 1.349 . S
C814 C812 1.327 . S
C814 C833 1.429 . S
C814 H838 0.950 . S
C815 C832 1.574 . S
C815 C834 1.368 . S
C815 H839 0.949 . S
H816 C820 0.949 . S
C817 C818 1.349 . S
C817 C819 1.327 . S
C817 H840 0.950 . S
C818 C817 1.349 . S
C818 C830 1.349 . S
C819 C817 1.327 . S
C819 C835 1.429 . S
C819 H841 0.950 . S
C820 H816 0.949 . S
C820 C828 1.574 . S
C820 C836 1.368 . S
H821 C829 0.950 . S
H822 C827 0.950 . S
H823 C828 0.949 . S
H824 C830 0.950 . S
H825 C831 0.950 . S
H826 C832 0.949 . S
C827 H822 0.950 . S
C827 C829 1.327 . S
C827 C833 1.429 . S
C828 C820 1.574 . S
C828 H823 0.949 . S
C828 C834 1.368 . S
C829 C813 1.349 . S
C829 H821 0.950 . S
C829 C827 1.327 . S
C830 C818 1.349 . S
C830 H824 0.950 . S
C830 C831 1.327 . S
C831 H825 0.950 . S
C831 C830 1.327 . S
C831 C835 1.429 . S
C832 C815 1.574 . S
C832 H826 0.949 . S
C832 C836 1.368 . S
C833 C814 1.429 . S
C833 C827 1.429 . S
C833 C834 1.523 . S
C834 C815 1.368 . S
C834 C828 1.368 . S
C834 C833 1.523 . S
C835 C819 1.429 . S
C835 C831 1.429 . S
C835 C836 1.523 . S
C836 C820 1.368 . S
C836 C832 1.368 . S
C836 C835 1.523 . S
H837 C812 0.950 . S
H838 C814 0.950 . S
H839 C815 0.949 . S
H840 C817 0.950 . S
H841 C819 0.950 . S
C842 C843 1.349 . S
C842 C844 1.327 . S
C842 H867 0.950 . S
C843 C842 1.349 . S
C843 C859 1.349 . S
C844 C842 1.327 . S
C844 C863 1.429 . S
C844 H868 0.950 . S
C845 C862 1.574 . S
C845 C864 1.368 . S
C845 H869 0.949 . S
H846 C850 0.949 . S
C847 C848 1.349 . S
C847 C849 1.327 . S
C847 H870 0.950 . S
C848 C847 1.349 . S
C848 C860 1.349 . S
C849 C847 1.327 . S
C849 C865 1.429 . S
C849 H871 0.950 . S
C850 H846 0.949 . S
C850 C858 1.574 . S
C850 C866 1.368 . S
H851 C859 0.950 . S
H852 C857 0.950 . S
H853 C858 0.949 . S
H854 C860 0.950 . S
H855 C861 0.950 . S
H856 C862 0.949 . S
C857 H852 0.950 . S
C857 C859 1.327 . S
C857 C863 1.429 . S
C858 C850 1.574 . S
C858 H853 0.949 . S
C858 C864 1.368 . S
C859 C843 1.349 . S
C859 H851 0.950 . S
C859 C857 1.327 . S
C860 C848 1.349 . S
C860 H854 0.950 . S
C860 C861 1.327 . S
C861 H855 0.950 . S
C861 C860 1.327 . S
C861 C865 1.429 . S
C862 C845 1.574 . S
C862 H856 0.949 . S
C862 C866 1.368 . S
C863 C844 1.429 . S
C863 C857 1.429 . S
C863 C864 1.523 . S
C864 C845 1.368 . S
C864 C858 1.368 . S
C864 C863 1.523 . S
C865 C849 1.429 . S
C865 C861 1.429 . S
C865 C866 1.523 . S
C866 C850 1.368 . S
C866 C862 1.368 . S
C866 C865 1.523 . S
H867 C842 0.950 . S
H868 C844 0.950 . S
H869 C845 0.949 . S
H870 C847 0.950 . S
H871 C849 0.950 . S
C273 C5 0.578 . S
C278 C175 0.578 . S
C303 C209 0.578 . S
C308 C39 0.578 . S
C333 C243 0.578 . S
C338 C73 0.578 . S
C363 C141 0.578 . S
C368 C107 0.578 . S
C393 C111 0.671 . S
C398 C33 0.671 . S
C423 C67 0.671 . S
C428 C9 0.671 . S
C453 C43 0.671 . S
C458 C101 0.671 . S
C483 C135 0.671 . S
C488 C77 0.671 . S
C513 C179 0.671 . S
C518 C169 0.671 . S
C543 C203 0.671 . S
C548 C213 0.671 . S
C573 C237 0.671 . S
C578 C247 0.671 . S
C603 C271 0.671 . S
C608 C145 0.671 . S
C633 C206 1.091 . S
C638 C20 1.109 . S
C663 C240 1.091 . S
C668 C54 1.109 . S
C693 C88 1.109 . S
C698 C138 1.091 . S
C723 C122 1.109 . S
C728 C172 1.091 . S
C753 C156 1.109 . S
C758 C70 1.091 . S
C783 C104 1.091 . S
C788 C190 1.109 . S
C813 C224 1.109 . S
C818 C2 1.091 . S
C843 C36 1.091 . S
C848 C258 1.109 . S
