# Generated by pormake.
# Topology ukh, (4)-cn, num edge types: 1
# Building blocks:
#     Node 0, Type 0, BuildingBlock: QUQFOY_clean_sbu_1, # of connection points: 4
#     Node 1, Type 0, BuildingBlock: QUQFOY_clean_sbu_1, # of connection points: 4
#     Node 2, Type 0, BuildingBlock: QUQFOY_clean_sbu_1, # of connection points: 4
#     Node 3, Type 0, BuildingBlock: QUQFOY_clean_sbu_1, # of connection points: 4
#     Node 4, Type 0, BuildingBlock: QUQFOY_clean_sbu_1, # of connection points: 4
#     Node 5, Type 0, BuildingBlock: QUQFOY_clean_sbu_1, # of connection points: 4
#     Node 6, Type 0, BuildingBlock: QUQFOY_clean_sbu_1, # of connection points: 4
#     Node 7, Type 0, BuildingBlock: QUQFOY_clean_sbu_1, # of connection points: 4
#     Node 8, Type 0, BuildingBlock: QUQFOY_clean_sbu_1, # of connection points: 4
#     Node 9, Type 0, BuildingBlock: QUQFOY_clean_sbu_1, # of connection points: 4
#     Node 10, Type 0, BuildingBlock: QUQFOY_clean_sbu_1, # of connection points: 4
#     Node 11, Type 0, BuildingBlock: QUQFOY_clean_sbu_1, # of connection points: 4
#     Edge 12, Type (0, 0), BuildingBlock: ZUJKAS_clean_linker_0, # of connection points: 2
#     Edge 13, Type (0, 0), BuildingBlock: ZUJKAS_clean_linker_0, # of connection points: 2
#     Edge 14, Type (0, 0), BuildingBlock: ZUJKAS_clean_linker_0, # of connection points: 2
#     Edge 15, Type (0, 0), BuildingBlock: ZUJKAS_clean_linker_0, # of connection points: 2
#     Edge 16, Type (0, 0), BuildingBlock: ZUJKAS_clean_linker_0, # of connection points: 2
#     Edge 17, Type (0, 0), BuildingBlock: ZUJKAS_clean_linker_0, # of connection points: 2
#     Edge 18, Type (0, 0), BuildingBlock: ZUJKAS_clean_linker_0, # of connection points: 2
#     Edge 19, Type (0, 0), BuildingBlock: ZUJKAS_clean_linker_0, # of connection points: 2
#     Edge 20, Type (0, 0), BuildingBlock: ZUJKAS_clean_linker_0, # of connection points: 2
#     Edge 21, Type (0, 0), BuildingBlock: ZUJKAS_clean_linker_0, # of connection points: 2
#     Edge 22, Type (0, 0), BuildingBlock: ZUJKAS_clean_linker_0, # of connection points: 2
#     Edge 23, Type (0, 0), BuildingBlock: ZUJKAS_clean_linker_0, # of connection points: 2
#     Edge 24, Type (0, 0), BuildingBlock: ZUJKAS_clean_linker_0, # of connection points: 2
#     Edge 25, Type (0, 0), BuildingBlock: ZUJKAS_clean_linker_0, # of connection points: 2
#     Edge 26, Type (0, 0), BuildingBlock: ZUJKAS_clean_linker_0, # of connection points: 2
#     Edge 27, Type (0, 0), BuildingBlock: ZUJKAS_clean_linker_0, # of connection points: 2
#     Edge 28, Type (0, 0), BuildingBlock: ZUJKAS_clean_linker_0, # of connection points: 2
#     Edge 29, Type (0, 0), BuildingBlock: ZUJKAS_clean_linker_0, # of connection points: 2
#     Edge 30, Type (0, 0), BuildingBlock: ZUJKAS_clean_linker_0, # of connection points: 2
#     Edge 31, Type (0, 0), BuildingBlock: ZUJKAS_clean_linker_0, # of connection points: 2
#     Edge 32, Type (0, 0), BuildingBlock: ZUJKAS_clean_linker_0, # of connection points: 2
#     Edge 33, Type (0, 0), BuildingBlock: ZUJKAS_clean_linker_0, # of connection points: 2
#     Edge 34, Type (0, 0), BuildingBlock: ZUJKAS_clean_linker_0, # of connection points: 2
#     Edge 35, Type (0, 0), BuildingBlock: ZUJKAS_clean_linker_0, # of connection points: 2
# Relax obj value: 0.056
# Max RMSD: 0.078
# Mean RMSD: 0.078
data_MOF--net-ukh--node1-QUQFOY_clean_sbu_1--edge1-ZUJKAS_clean_linker_0
_symmetry_space_group_name_H-M    P1
_symmetry_Int_Tables_number       1
_symmetry_cell_setting            triclinic
loop_
_symmetry_equiv_pos_as_xyz
'x, y, z'
_cell_length_a     42.736785
_cell_length_b     42.729931
_cell_length_c     84.876614
_cell_angle_alpha  90.108766
_cell_angle_beta   89.902199
_cell_angle_gamma 120.04054
loop_
_atom_site_label
_atom_site_type_symbol
_atom_site_fract_x
_atom_site_fract_y
_atom_site_fract_z
_atom_type_partial_charge
O0 O 0.31988 0.17708 0.05247 0.0
Cd1 Cd 0.31505 0.21631 0.0646 0.0
Cd2 Cd 0.35838 0.25671 0.04078 0.0
O3 O 0.36168 0.21102 0.03512 0.0
O4 O 0.29176 0.19147 0.08469 0.0
O5 O 0.34692 0.23873 0.08367 0.0
C6 C 0.32115 0.21363 0.0919 0.0
C7 C 0.40696 0.31526 0.04464 0.0
C8 C 0.34089 0.18016 0.04121 0.0
C9 C 0.2835 0.24603 0.0417 0.0
O10 O 0.31198 0.25578 0.03364 0.0
O11 O 0.28021 0.23201 0.05525 0.0
O12 O 0.39858 0.30089 0.03078 0.0
O13 O 0.38933 0.29525 0.05653 0.0
O14 O 0.15245 0.31892 0.38532 0.0
Cd15 Cd 0.10905 0.3159 0.39744 0.0
Cd16 Cd 0.1124 0.35677 0.37253 0.0
O17 O 0.16108 0.35935 0.36714 0.0
O18 O 0.11013 0.29217 0.41746 0.0
O19 O 0.11997 0.34801 0.41661 0.0
C20 C 0.11849 0.32179 0.42475 0.0
C21 C 0.10232 0.40517 0.37641 0.0
C22 C 0.17059 0.33873 0.3738 0.0
C23 C 0.04723 0.28325 0.37468 0.0
O24 O 0.06682 0.30999 0.36585 0.0
O25 O 0.05761 0.28181 0.38857 0.0
O26 O 0.10816 0.39673 0.36252 0.0
O27 O 0.10508 0.3878 0.3883 0.0
O28 O 0.84536 0.14957 0.71835 0.0
Cd29 Cd 0.8065 0.10517 0.73043 0.0
Cd30 Cd 0.76645 0.10703 0.70597 0.0
O31 O 0.81216 0.15566 0.70004 0.0
O32 O 0.8322 0.10708 0.75031 0.0
O33 O 0.78449 0.11419 0.74983 0.0
C34 C 0.81004 0.11386 0.7578 0.0
C35 C 0.70799 0.09704 0.70988 0.0
C36 C 0.84262 0.16661 0.70667 0.0
C37 C 0.77734 0.04313 0.70762 0.0
O38 O 0.7674 0.0613 0.69933 0.0
O39 O 0.79136 0.05456 0.72113 0.0
O40 O 0.72207 0.10238 0.69597 0.0
O41 O 0.7283 0.10019 0.72176 0.0
O42 O 0.703 0.8416 0.05319 0.0
Cd43 Cd 0.71144 0.80473 0.06525 0.0
Cd44 Cd 0.66902 0.76157 0.04115 0.0
O45 O 0.66563 0.80679 0.03458 0.0
O46 O 0.73481 0.83102 0.0851 0.0
O47 O 0.68133 0.78134 0.08471 0.0
C48 C 0.70665 0.80757 0.09267 0.0
C49 C 0.62055 0.7028 0.0447 0.0
C50 C 0.68353 0.83758 0.04121 0.0
C51 C 0.74532 0.77589 0.04274 0.0
O52 O 0.71602 0.76255 0.035 0.0
O53 O 0.74873 0.79253 0.05564 0.0
O54 O 0.63006 0.71696 0.03085 0.0
O55 O 0.63685 0.72316 0.05671 0.0
O56 O 0.88077 0.70828 0.38419 0.0
Cd57 Cd 0.92278 0.70979 0.39665 0.0
Cd58 Cd 0.91669 0.66559 0.373 0.0
O59 O 0.86762 0.66292 0.36804 0.0
O60 O 0.92146 0.73352 0.41669 0.0
O61 O 0.91145 0.6776 0.41575 0.0
C62 C 0.91284 0.70381 0.42392 0.0
C63 C 0.92657 0.61707 0.37692 0.0
C64 C 0.8607 0.68656 0.37355 0.0
C65 C 0.9831 0.73918 0.37364 0.0
O66 O 0.96249 0.71153 0.36542 0.0
O67 O 0.97392 0.74249 0.38753 0.0
O68 O 0.91972 0.62475 0.3631 0.0
O69 O 0.9248 0.63519 0.38878 0.0
O70 O 0.18336 0.87262 0.7195 0.0
Cd71 Cd 0.22363 0.91737 0.73087 0.0
Cd72 Cd 0.26189 0.91255 0.70664 0.0
O73 O 0.21564 0.86347 0.7017 0.0
O74 O 0.20052 0.91773 0.75124 0.0
O75 O 0.24709 0.90882 0.74978 0.0
C76 C 0.22295 0.91066 0.75827 0.0
C77 C 0.32036 0.92265 0.71053 0.0
C78 C 0.18536 0.85396 0.70828 0.0
C79 C 0.25243 0.97734 0.70721 0.0
O80 O 0.26119 0.95786 0.69913 0.0
O81 O 0.23932 0.96747 0.72097 0.0
O82 O 0.3058 0.9158 0.6967 0.0
O83 O 0.30049 0.92086 0.7224 0.0
O84 O 0.84777 0.70174 0.62515 0.0
Cd85 Cd 0.81018 0.70831 0.61259 0.0
Cd86 Cd 0.76774 0.6646 0.63608 0.0
O87 O 0.81248 0.66033 0.64234 0.0
O88 O 0.83717 0.73174 0.5929 0.0
O89 O 0.78802 0.67784 0.5931 0.0
C90 C 0.81449 0.70324 0.58528 0.0
C91 C 0.70884 0.61672 0.6322 0.0
C92 C 0.84372 0.68063 0.63648 0.0
C93 C 0.78024 0.74032 0.63522 0.0
O94 O 0.76926 0.7114 0.64307 0.0
O95 O 0.79526 0.7439 0.62187 0.0
O96 O 0.72299 0.62524 0.64608 0.0
O97 O 0.72926 0.63369 0.6203 0.0
O98 O 0.15575 0.84112 0.95823 0.0
Cd99 Cd 0.11078 0.80419 0.94596 0.0
Cd100 Cd 0.10976 0.76114 0.97016 0.0
O101 O 0.15826 0.80645 0.97688 0.0
O102 O 0.11418 0.83092 0.92622 0.0
O103 O 0.11836 0.78149 0.92644 0.0
C104 C 0.11947 0.8079 0.9186 0.0
C105 C 0.0998 0.70251 0.9666 0.0
C106 C 0.17112 0.8372 0.97026 0.0
C107 C 0.0476 0.77513 0.96821 0.0
O108 O 0.06356 0.76199 0.97608 0.0
O109 O 0.06098 0.79168 0.95533 0.0
O110 O 0.10411 0.7166 0.98045 0.0
O111 O 0.10393 0.72285 0.95459 0.0
O112 O 0.3233 0.14884 0.29227 0.0
Cd113 Cd 0.31965 0.10569 0.27975 0.0
Cd114 Cd 0.36189 0.1079 0.30389 0.0
O115 O 0.36437 0.15634 0.3099 0.0
O116 O 0.29654 0.10746 0.25965 0.0
O117 O 0.35198 0.11618 0.26073 0.0
C118 C 0.32608 0.11506 0.25247 0.0
C119 C 0.41052 0.09812 0.30006 0.0
C120 C 0.34358 0.16633 0.30378 0.0
C121 C 0.28772 0.04305 0.30202 0.0
O122 O 0.31547 0.06175 0.31049 0.0
O123 O 0.28512 0.05441 0.28852 0.0
O124 O 0.40173 0.10352 0.31394 0.0
O125 O 0.39347 0.1013 0.28814 0.0
O126 O 0.18328 0.31728 0.62439 0.0
Cd127 Cd 0.22266 0.3129 0.61215 0.0
Cd128 Cd 0.26293 0.35544 0.63609 0.0
O129 O 0.21721 0.3584 0.64199 0.0
O130 O 0.19846 0.29045 0.59182 0.0
O131 O 0.24565 0.3456 0.59337 0.0
C132 C 0.22095 0.32011 0.58488 0.0
C133 C 0.32129 0.40409 0.63209 0.0
C134 C 0.18637 0.33786 0.63584 0.0
C135 C 0.25277 0.28091 0.63467 0.0
O136 O 0.26241 0.30908 0.64294 0.0
O137 O 0.23859 0.27796 0.62118 0.0
O138 O 0.30725 0.39562 0.646 0.0
O139 O 0.30101 0.38656 0.62024 0.0
O140 O 0.87366 0.17609 0.95826 0.0
Cd141 Cd 0.91787 0.21512 0.94614 0.0
Cd142 Cd 0.91556 0.25581 0.97006 0.0
O143 O 0.86646 0.21029 0.97573 0.0
O144 O 0.91623 0.19057 0.92591 0.0
O145 O 0.90892 0.23815 0.92719 0.0
C146 C 0.90955 0.2132 0.91881 0.0
C147 C 0.92621 0.31461 0.96637 0.0
C148 C 0.85602 0.17937 0.9696 0.0
C149 C 0.97946 0.24475 0.96896 0.0
O150 O 0.96097 0.25465 0.9771 0.0
O151 O 0.96844 0.23062 0.95544 0.0
O152 O 0.92009 0.30012 0.98019 0.0
O153 O 0.92343 0.29455 0.95442 0.0
O154 O 0.71516 0.8801 0.29215 0.0
Cd155 Cd 0.71364 0.9214 0.28029 0.0
Cd156 Cd 0.66894 0.9112 0.3037 0.0
O157 O 0.66704 0.86202 0.30715 0.0
O158 O 0.73784 0.92363 0.25987 0.0
O159 O 0.68025 0.90807 0.26153 0.0
C160 C 0.70723 0.91258 0.25298 0.0
C161 C 0.62043 0.92079 0.29934 0.0
C162 C 0.69257 0.85765 0.30195 0.0
C163 C 0.74041 0.97917 0.30434 0.0
O164 O 0.71399 0.95611 0.31253 0.0
O165 O 0.74329 0.97255 0.28996 0.0
O166 O 0.62657 0.91217 0.31311 0.0
O167 O 0.64022 0.92108 0.28773 0.0
H168 H 0.58636 0.65302 0.02138 0.0
H169 H 0.55061 0.58735 0.02395 0.0
H170 H 0.56093 0.59713 0.07447 0.0
H171 H 0.59699 0.66316 0.07204 0.0
H172 H 0.5783 0.54482 0.03965 0.0
H173 H 0.45039 0.52546 0.06599 0.0
H174 H 0.48106 0.56584 0.05523 0.0
H175 H 0.49222 0.55895 0.07479 0.0
C176 C 0.58057 0.64138 0.03308 0.0
C177 C 0.59458 0.66348 0.04651 0.0
C178 C 0.56021 0.60375 0.03451 0.0
C179 C 0.55303 0.58733 0.04939 0.0
C180 C 0.56584 0.60926 0.06288 0.0
H181 H 0.42761 0.35552 0.07189 0.0
H182 H 0.46594 0.42132 0.07431 0.0
C183 C 0.58645 0.64701 0.06146 0.0
C184 C 0.53409 0.54724 0.05058 0.0
H185 H 0.45458 0.47322 0.06166 0.0
C186 C 0.5513 0.52914 0.04452 0.0
C187 C 0.49908 0.52688 0.0571 0.0
C188 C 0.47932 0.54506 0.06359 0.0
C189 C 0.5343 0.49121 0.04463 0.0
C190 C 0.49866 0.47068 0.05059 0.0
C191 C 0.48184 0.48887 0.05706 0.0
C192 C 0.47763 0.43046 0.04938 0.0
C193 C 0.55489 0.47357 0.03847 0.0
C194 C 0.47155 0.41356 0.0346 0.0
C195 C 0.44996 0.37603 0.0332 0.0
C196 C 0.4335 0.35442 0.04654 0.0
C197 C 0.44007 0.37128 0.06139 0.0
C198 C 0.46183 0.40893 0.06278 0.0
H199 H 0.58455 0.492 0.03944 0.0
H200 H 0.54754 0.44823 0.04493 0.0
H201 H 0.54842 0.46691 0.02582 0.0
H202 H 0.48263 0.42952 0.02402 0.0
H203 H 0.44524 0.3641 0.02156 0.0
H204 H 0.08475 0.42723 0.40383 0.0
H205 H 0.05611 0.46439 0.40644 0.0
H206 H 0.0599 0.4778 0.356 0.0
H207 H 0.08923 0.4416 0.35333 0.0
H208 H 0.07772 0.54029 0.37109 0.0
H209 H 0.95098 0.42895 0.39662 0.0
H210 H 0.99106 0.44001 0.40763 0.0
H211 H 0.9854 0.42147 0.38811 0.0
C212 C 0.0799 0.43848 0.39331 0.0
C213 C 0.08917 0.43125 0.37836 0.0
C214 C 0.06314 0.45941 0.39481 0.0
C215 C 0.05498 0.47319 0.38138 0.0
C216 C 0.06562 0.46726 0.36653 0.0
H217 H 0.93806 0.57947 0.35376 0.0
H218 H 0.96861 0.5443 0.35607 0.0
C219 C 0.08249 0.44656 0.36503 0.0
C220 C 0.03501 0.49343 0.3826 0.0
H221 H 0.9545 0.48569 0.39397 0.0
C222 C 0.05083 0.52834 0.37614 0.0
C223 C 0.99983 0.47788 0.38918 0.0
C224 C 0.9806 0.43991 0.39566 0.0
C225 C 0.03245 0.54791 0.37597 0.0
C226 C 0.99716 0.53215 0.38232 0.0
C227 C 0.98158 0.49767 0.38912 0.0
C228 C 0.97565 0.55069 0.38131 0.0
C229 C 0.05083 0.58534 0.36894 0.0
C230 C 0.96829 0.56487 0.39484 0.0
C231 C 0.95077 0.58511 0.39357 0.0
C232 C 0.94004 0.59123 0.37875 0.0
C233 C 0.94592 0.57539 0.36536 0.0
C234 C 0.96358 0.5554 0.36663 0.0
H235 H 0.08041 0.59654 0.36757 0.0
H236 H 0.03924 0.58422 0.35712 0.0
H237 H 0.0462 0.60407 0.37637 0.0
H238 H 0.97724 0.56137 0.4063 0.0
H239 H 0.94673 0.59695 0.40412 0.0
H240 H 0.36069 0.94282 0.73773 0.0
H241 H 0.4268 0.97316 0.73993 0.0
H242 H 0.43512 0.96435 0.6897 0.0
H243 H 0.36937 0.93398 0.68737 0.0
H244 H 0.47946 0.9502 0.72768 0.0
H245 H 0.49517 0.07611 0.70116 0.0
H246 H 0.45331 0.04201 0.70992 0.0
H247 H 0.46621 0.03493 0.69068 0.0
C248 C 0.37654 0.9468 0.72719 0.0
C249 C 0.35967 0.93608 0.71236 0.0
C250 C 0.41432 0.96422 0.72846 0.0
C251 C 0.43584 0.97147 0.71494 0.0
C252 C 0.41902 0.9594 0.70025 0.0
H253 H 0.6583 0.08365 0.68683 0.0
H254 H 0.5928 0.05463 0.68957 0.0
C255 C 0.38136 0.94186 0.69897 0.0
C256 C 0.4759 0.99286 0.71596 0.0
H257 H 0.54858 0.07315 0.70466 0.0
C258 C 0.49467 0.97723 0.72281 0.0
C259 C 0.49557 0.02809 0.70958 0.0
C260 C 0.47666 0.04654 0.70251 0.0
C261 C 0.53273 0.99534 0.72286 0.0
C262 C 0.5525 0.03044 0.71623 0.0
C263 C 0.53354 0.04633 0.70975 0.0
C264 C 0.5927 0.0502 0.71497 0.0
C265 C 0.55133 0.97605 0.72938 0.0
C266 C 0.61476 0.05853 0.72838 0.0
C267 C 0.65244 0.07511 0.72684 0.0
C268 C 0.6688 0.08404 0.71187 0.0
C269 C 0.64671 0.07718 0.69855 0.0
C270 C 0.60915 0.06049 0.70009 0.0
H271 H 0.53253 0.94647 0.73042 0.0
H272 H 0.57445 0.98059 0.72182 0.0
H273 H 0.56187 0.98671 0.74132 0.0
H274 H 0.60284 0.05176 0.74002 0.0
H275 H 0.66862 0.08011 0.73735 0.0
H276 H 0.66915 0.59528 0.60481 0.0
H277 H 0.60305 0.55982 0.60236 0.0
H278 H 0.59339 0.54588 0.65274 0.0
H279 H 0.65909 0.58093 0.65533 0.0
H280 H 0.54978 0.48523 0.61506 0.0
H281 H 0.53413 0.59711 0.63979 0.0
H282 H 0.57616 0.60423 0.6315 0.0
H283 H 0.56258 0.58531 0.65086 0.0
C284 C 0.65299 0.58418 0.61535 0.0
C285 C 0.66948 0.59112 0.63028 0.0
C286 C 0.61523 0.56401 0.61392 0.0
C287 C 0.59335 0.55073 0.62739 0.0
C288 C 0.60978 0.55629 0.64221 0.0
H289 H 0.37084 0.44168 0.65505 0.0
H290 H 0.43634 0.47825 0.65232 0.0
C291 C 0.64741 0.57621 0.64365 0.0
C292 C 0.55332 0.53214 0.62617 0.0
H293 H 0.48063 0.54045 0.63672 0.0
C294 C 0.53456 0.49735 0.61962 0.0
C295 C 0.53365 0.54809 0.63215 0.0
C296 C 0.55254 0.58587 0.63887 0.0
C297 C 0.49651 0.47744 0.61949 0.0
C298 C 0.47674 0.49315 0.62575 0.0
C299 C 0.49568 0.52837 0.63191 0.0
C300 C 0.43654 0.47275 0.62697 0.0
C301 C 0.47789 0.43917 0.61331 0.0
C302 C 0.41454 0.45834 0.61358 0.0
C303 C 0.37687 0.43722 0.61511 0.0
C304 C 0.36045 0.43039 0.63006 0.0
C305 C 0.38248 0.44631 0.64335 0.0
C306 C 0.42004 0.46723 0.64181 0.0
H307 H 0.49667 0.42835 0.6125 0.0
H308 H 0.45477 0.42099 0.62096 0.0
H309 H 0.46733 0.43863 0.60132 0.0
H310 H 0.42652 0.46298 0.60196 0.0
H311 H 0.36073 0.42548 0.60463 0.0
H312 H 0.94557 0.35496 0.93917 0.0
H313 H 0.97599 0.42109 0.937 0.0
H314 H 0.96912 0.4295 0.98734 0.0
H315 H 0.93874 0.36375 0.98965 0.0
H316 H 0.95419 0.47354 0.94889 0.0
H317 H 0.07981 0.49012 0.976 0.0
H318 H 0.04553 0.44784 0.96763 0.0
H319 H 0.03887 0.46176 0.98672 0.0
C320 C 0.95002 0.37085 0.94975 0.0
C321 C 0.93983 0.35398 0.9646 0.0
C322 C 0.9675 0.40864 0.94849 0.0
C323 C 0.97535 0.4302 0.96203 0.0
C324 C 0.96381 0.41339 0.97676 0.0
H325 H 0.08552 0.653 0.98984 0.0
H326 H 0.05682 0.58748 0.98724 0.0
C327 C 0.94623 0.37573 0.97803 0.0
C328 C 0.99663 0.4703 0.96098 0.0
H329 H 0.07639 0.54338 0.97255 0.0
C330 C 0.98106 0.48889 0.9539 0.0
C331 C 0.03168 0.4902 0.96753 0.0
C332 C 0.05021 0.47157 0.9748 0.0
C333 C 0.99901 0.52695 0.95378 0.0
C334 C 0.03388 0.54693 0.96061 0.0
C335 C 0.04974 0.52818 0.96732 0.0
C336 C 0.05342 0.58715 0.9618 0.0
C337 C 0.97979 0.54535 0.94697 0.0
C338 C 0.06221 0.6091 0.94833 0.0
C339 C 0.07864 0.64679 0.94979 0.0
C340 C 0.08691 0.66329 0.96474 0.0
C341 C 0.07955 0.64131 0.97814 0.0
C342 C 0.06304 0.60374 0.97667 0.0
H343 H 0.95028 0.52641 0.94574 0.0
H344 H 0.98391 0.56845 0.95446 0.0
H345 H 0.99087 0.55592 0.93509 0.0
H346 H 0.05594 0.59706 0.9367 0.0
H347 H 0.08402 0.66288 0.93922 0.0
H348 H 0.44507 0.08277 0.32321 0.0
H349 H 0.4803 0.05233 0.32046 0.0
H350 H 0.46913 0.05129 0.26999 0.0
H351 H 0.43348 0.08164 0.2726 0.0
H352 H 0.45029 0.98079 0.30358 0.0
H353 H 0.58073 0.09023 0.27944 0.0
H354 H 0.55074 0.09988 0.29081 0.0
H355 H 0.53927 0.08376 0.27097 0.0
C356 C 0.45057 0.0767 0.31148 0.0
C357 C 0.4364 0.0847 0.29812 0.0
C358 C 0.47063 0.05915 0.30995 0.0
C359 C 0.47735 0.04958 0.29504 0.0
C360 C 0.46447 0.05869 0.28161 0.0
H361 H 0.60292 0.94374 0.27226 0.0
H362 H 0.56525 0.97185 0.26991 0.0
C363 C 0.44413 0.07608 0.28313 0.0
C364 C 0.49583 0.02806 0.29374 0.0
H365 H 0.57573 0.03344 0.28355 0.0
C366 C 0.47767 0.99221 0.29913 0.0
C367 C 0.53132 0.04288 0.28776 0.0
C368 C 0.55195 0.08135 0.28195 0.0
C369 C 0.49419 0.97086 0.29888 0.0
C370 C 0.53032 0.98609 0.2935 0.0
C371 C 0.54812 0.02171 0.28771 0.0
C372 C 0.55076 0.96632 0.2946 0.0
C373 C 0.47257 0.93207 0.30425 0.0
C374 C 0.55501 0.95354 0.30922 0.0
C375 C 0.57618 0.93716 0.31057 0.0
C376 C 0.59409 0.93359 0.29736 0.0
C377 C 0.58933 0.94581 0.28265 0.0
C378 C 0.56794 0.96207 0.2813 0.0
H379 H 0.4431 0.9213 0.30274 0.0
H380 H 0.48026 0.91446 0.29765 0.0
H381 H 0.47763 0.93056 0.31697 0.0
H382 H 0.54287 0.95726 0.31974 0.0
H383 H 0.57953 0.92848 0.32211 0.0
H384 H 0.38844 0.14676 0.23487 0.0
H385 H 0.39503 0.1661 0.2072 0.0
H386 H 0.28 0.12322 0.20416 0.0
H387 H 0.27314 0.10414 0.23166 0.0
H388 H 0.31946 0.10519 0.17798 0.0
H389 H 0.37443 0.25112 0.19183 0.0
H390 H 0.39218 0.22627 0.20195 0.0
H391 H 0.34682 0.21614 0.20579 0.0
C392 C 0.36454 0.14117 0.22825 0.0
C393 C 0.33028 0.124 0.23546 0.0
C394 C 0.36838 0.15238 0.2125 0.0
C395 C 0.33801 0.14632 0.20375 0.0
C396 C 0.30375 0.12826 0.21077 0.0
H397 H 0.26886 0.16945 0.11257 0.0
H398 H 0.27658 0.15512 0.13957 0.0
C399 C 0.29992 0.11737 0.22649 0.0
C400 C 0.34149 0.159 0.18729 0.0
H401 H 0.36157 0.23359 0.16527 0.0
C402 C 0.32903 0.1333 0.17515 0.0
C403 C 0.35422 0.19571 0.18368 0.0
C404 C 0.36765 0.22412 0.19643 0.0
C405 C 0.3282 0.14324 0.15947 0.0
C406 C 0.33914 0.17969 0.15593 0.0
C407 C 0.35295 0.20565 0.16801 0.0
C408 C 0.33456 0.19081 0.13993 0.0
C409 C 0.31549 0.11451 0.14686 0.0
C410 C 0.36434 0.21717 0.13142 0.0
C411 C 0.35992 0.22586 0.11597 0.0
C412 C 0.32563 0.20833 0.10882 0.0
C413 C 0.29571 0.18319 0.11766 0.0
C414 C 0.3001 0.17473 0.13307 0.0
H415 H 0.31926 0.09165 0.1505 0.0
H416 H 0.28621 0.10357 0.14474 0.0
H417 H 0.33016 0.12569 0.13561 0.0
H418 H 0.39112 0.23022 0.13657 0.0
H419 H 0.3835 0.24535 0.10947 0.0
H420 H 0.1511 0.38401 0.44247 0.0
H421 H 0.17416 0.39072 0.46949 0.0
H422 H 0.13146 0.27559 0.47209 0.0
H423 H 0.10905 0.26875 0.44518 0.0
H424 H 0.14095 0.36117 0.49823 0.0
H425 H 0.23757 0.31555 0.48268 0.0
H426 H 0.21504 0.32767 0.46798 0.0
H427 H 0.19222 0.28352 0.47689 0.0
C428 C 0.14637 0.36012 0.44887 0.0
C429 C 0.12857 0.32589 0.44163 0.0
C430 C 0.15965 0.36401 0.46428 0.0
C431 C 0.15537 0.33377 0.47264 0.0
C432 C 0.13601 0.29943 0.46569 0.0
H433 H 0.17921 0.26812 0.56359 0.0
H434 H 0.16765 0.27626 0.53616 0.0
C435 C 0.12296 0.29555 0.45033 0.0
C436 C 0.17116 0.33769 0.48859 0.0
H437 H 0.22458 0.31546 0.51023 0.0
C438 C 0.15971 0.35178 0.50082 0.0
C439 C 0.19594 0.32572 0.49193 0.0
C440 C 0.21122 0.31262 0.47914 0.0
C441 C 0.17083 0.3523 0.51646 0.0
C442 C 0.19404 0.33854 0.51986 0.0
C443 C 0.20663 0.32582 0.50756 0.0
C444 C 0.20301 0.33424 0.53625 0.0
C445 C 0.15651 0.366 0.52937 0.0
C446 C 0.22739 0.36415 0.54526 0.0
C447 C 0.23437 0.35956 0.56097 0.0
C448 C 0.21682 0.32501 0.56789 0.0
C449 C 0.1931 0.2951 0.55865 0.0
C450 C 0.18643 0.29967 0.54297 0.0
H451 H 0.13651 0.37324 0.52493 0.0
H452 H 0.14357 0.34516 0.5387 0.0
H453 H 0.17927 0.39032 0.53488 0.0
H454 H 0.24064 0.39102 0.5402 0.0
H455 H 0.25269 0.38313 0.5678 0.0
H456 H 0.77819 0.14349 0.77601 0.0
H457 H 0.79377 0.16566 0.8032 0.0
H458 H 0.87007 0.12766 0.80501 0.0
H459 H 0.85529 0.10621 0.77791 0.0
H460 H 0.79133 0.13209 0.83148 0.0
H461 H 0.93269 0.23351 0.81675 0.0
H462 H 0.89855 0.21052 0.80186 0.0
H463 H 0.92121 0.18886 0.81056 0.0
C464 C 0.79806 0.13961 0.78226 0.0
C465 C 0.81577 0.12342 0.77475 0.0
C466 C 0.80701 0.15239 0.79777 0.0
C467 C 0.8338 0.14919 0.80598 0.0
C468 C 0.85012 0.13141 0.79875 0.0
H469 H 0.91912 0.17043 0.89782 0.0
H470 H 0.90016 0.15897 0.87027 0.0
C471 C 0.84141 0.11889 0.78328 0.0
C472 C 0.84503 0.1644 0.82208 0.0
H473 H 0.91961 0.21911 0.84418 0.0
C474 C 0.81924 0.15157 0.83423 0.0
C475 C 0.88145 0.19011 0.82563 0.0
C476 C 0.90999 0.20685 0.81297 0.0
C477 C 0.82931 0.16233 0.84994 0.0
C478 C 0.86598 0.18651 0.85353 0.0
C479 C 0.89152 0.20041 0.84135 0.0
C480 C 0.87876 0.19531 0.87 0.0
C481 C 0.80109 0.14673 0.86275 0.0
C482 C 0.87361 0.22016 0.87885 0.0
C483 C 0.88475 0.22708 0.89462 0.0
C484 C 0.90092 0.209 0.90177 0.0
C485 C 0.90668 0.18475 0.8927 0.0
C486 C 0.89586 0.17812 0.87696 0.0
H487 H 0.77393 0.12699 0.85809 0.0
H488 H 0.80902 0.13308 0.8717 0.0
H489 H 0.79934 0.16888 0.86878 0.0
H490 H 0.8606 0.2338 0.8736 0.0
H491 H 0.87981 0.24579 0.90131 0.0
H492 H 0.75979 0.85218 0.11288 0.0
H493 H 0.75365 0.86449 0.14047 0.0
H494 H 0.63958 0.78715 0.13875 0.0
H495 H 0.6455 0.77436 0.11099 0.0
H496 H 0.66247 0.86156 0.15129 0.0
H497 H 0.73181 0.79575 0.17955 0.0
H498 H 0.75491 0.82393 0.1629 0.0
H499 H 0.71207 0.78352 0.16011 0.0
C500 C 0.73343 0.83741 0.11839 0.0
C501 C 0.70313 0.81222 0.10975 0.0
C502 C 0.73001 0.84445 0.13417 0.0
C503 C 0.69623 0.82659 0.14165 0.0
C504 C 0.66591 0.80109 0.13317 0.0
H505 H 0.64442 0.87415 0.23615 0.0
H506 H 0.63822 0.85192 0.20904 0.0
C507 C 0.66937 0.79371 0.11736 0.0
C508 C 0.69281 0.83603 0.15812 0.0
H509 H 0.72257 0.83631 0.19541 0.0
C510 C 0.67512 0.85567 0.16102 0.0
C511 C 0.70949 0.82838 0.1707 0.0
C512 C 0.72793 0.80648 0.16826 0.0
C513 C 0.67514 0.86935 0.17612 0.0
C514 C 0.6927 0.86249 0.18865 0.0
C515 C 0.7093 0.84176 0.18579 0.0
C516 C 0.6958 0.87782 0.20469 0.0
C517 C 0.65785 0.89237 0.17833 0.0
C518 C 0.73015 0.89967 0.21129 0.0
C519 C 0.73374 0.91205 0.22679 0.0
C520 C 0.70303 0.90292 0.23604 0.0
C521 C 0.66859 0.88195 0.22928 0.0
C522 C 0.66501 0.86929 0.21376 0.0
H523 H 0.6535 0.90231 0.16692 0.0
H524 H 0.63113 0.87601 0.18408 0.0
H525 H 0.67472 0.916 0.186 0.0
H526 H 0.75429 0.90665 0.20452 0.0
H527 H 0.76066 0.92817 0.23162 0.0
H528 H 0.77214 0.64688 0.56534 0.0
H529 H 0.78518 0.63945 0.5378 0.0
H530 H 0.88324 0.74291 0.5396 0.0
H531 H 0.87055 0.75066 0.56691 0.0
H532 H 0.79872 0.6882 0.51099 0.0
H533 H 0.91531 0.66968 0.52477 0.0
H534 H 0.88168 0.66355 0.53927 0.0
H535 H 0.91689 0.70825 0.53409 0.0
C536 C 0.79636 0.66812 0.55983 0.0
C537 C 0.82036 0.6993 0.56834 0.0
C538 C 0.80379 0.66379 0.54413 0.0
C539 C 0.83549 0.69035 0.5368 0.0
C540 C 0.85896 0.72181 0.54515 0.0
H541 H 0.90901 0.75312 0.44298 0.0
H542 H 0.88787 0.74523 0.47017 0.0
C543 C 0.8515 0.72626 0.56074 0.0
C544 C 0.84425 0.68582 0.52035 0.0
H545 H 0.90917 0.68273 0.49795 0.0
C546 C 0.82257 0.68649 0.50813 0.0
C547 C 0.87516 0.68319 0.51666 0.0
C548 C 0.89849 0.68078 0.52938 0.0
C549 C 0.83204 0.68646 0.49227 0.0
C550 C 0.86411 0.68597 0.4886 0.0
C551 C 0.88478 0.68341 0.50081 0.0
C552 C 0.87777 0.6905 0.47222 0.0
C553 C 0.80801 0.68757 0.47955 0.0
C554 C 0.88016 0.66267 0.46451 0.0
C555 C 0.89232 0.66709 0.44888 0.0
C556 C 0.90265 0.69958 0.44081 0.0
C557 C 0.90121 0.72771 0.4488 0.0
C558 C 0.8889 0.72319 0.46433 0.0
H559 H 0.78031 0.6785 0.484 0.0
H560 H 0.81964 0.71575 0.47526 0.0
H561 H 0.8062 0.67031 0.46939 0.0
H562 H 0.87198 0.63734 0.47048 0.0
H563 H 0.89313 0.64492 0.44306 0.0
H564 H 0.1124 0.85355 0.89854 0.0
H565 H 0.1336 0.868 0.8714 0.0
H566 H 0.17098 0.79118 0.87328 0.0
H567 H 0.14886 0.77582 0.90045 0.0
H568 H 0.20285 0.89734 0.86149 0.0
H569 H 0.11774 0.76535 0.83163 0.0
H570 H 0.10787 0.77465 0.85119 0.0
H571 H 0.14301 0.7638 0.84819 0.0
C572 C 0.12462 0.83927 0.89312 0.0
C573 C 0.12888 0.81347 0.90164 0.0
C574 C 0.13684 0.84766 0.87761 0.0
C575 C 0.15372 0.83057 0.87024 0.0
C576 C 0.15743 0.80424 0.87859 0.0
H577 H 0.2516 0.87661 0.77541 0.0
H578 H 0.23915 0.85765 0.80313 0.0
C579 C 0.14485 0.79555 0.89414 0.0
C580 C 0.16894 0.84201 0.85414 0.0
H581 H 0.1623 0.81267 0.81614 0.0
C582 C 0.19406 0.87874 0.8516 0.0
C583 C 0.15767 0.81772 0.84124 0.0
C584 C 0.12987 0.77824 0.8431 0.0
C585 C 0.20754 0.89197 0.8365 0.0
C586 C 0.19558 0.86789 0.82358 0.0
C587 C 0.17149 0.83098 0.82613 0.0
C588 C 0.20523 0.8811 0.80719 0.0
C589 C 0.23409 0.93171 0.83437 0.0
C590 C 0.19044 0.90069 0.80041 0.0
C591 C 0.19724 0.91128 0.78464 0.0
C592 C 0.21917 0.90266 0.77536 0.0
C593 C 0.23483 0.88388 0.7823 0.0
C594 C 0.22762 0.87289 0.79808 0.0
H595 H 0.24655 0.94513 0.84572 0.0
H596 H 0.25585 0.9358 0.82602 0.0
H597 H 0.2198 0.94509 0.82937 0.0
H598 H 0.17286 0.90703 0.80723 0.0
H599 H 0.18474 0.92567 0.77965 0.0
H600 H 0.18925 0.85154 1.00146 0.0
H601 H 0.23003 0.91101 0.01308 0.0
H602 H 0.26265 0.95638 0.96656 0.0
H603 H 0.22104 0.89757 0.95494 0.0
H604 H 0.30233 0.96355 0.012 0.0
H605 H 0.21852 0.01356 0.98388 0.0
H606 H 0.20525 0.96635 0.98415 0.0
H607 H 0.23795 0.99638 0.97003 0.0
C608 C 0.20577 0.87403 0.99374 0.0
C609 C 0.20162 0.87005 0.9773 0.0
C610 C 0.22898 0.90804 1.00038 0.0
C611 C 0.2486 0.93842 0.99068 0.0
C612 C 0.24697 0.93362 0.97428 0.0
H613 H 0.36064 0.17018 0.01163 0.0
H614 H 0.34473 0.11226 0.9991 0.0
C615 C 0.22338 0.89991 0.96766 0.0
C616 C 0.26816 0.97543 0.99758 0.0
H617 H 0.27046 0.05657 0.99746 0.0
C618 C 0.29545 0.98393 0.00879 0.0
C619 C 0.25902 1.00203 0.99349 0.0
C620 C 0.22836 0.99411 0.98236 0.0
C621 C 0.3139 0.0183 0.01592 0.0
C622 C 0.3047 0.04474 0.01178 0.0
C623 C 0.27782 0.03642 1.00044 0.0
C624 C 0.3201 0.08018 0.01996 0.0
C625 C 0.34306 0.02611 0.02783 0.0
C626 C 0.3121 0.08142 0.0359 0.0
C627 C 0.32086 0.11432 0.04303 0.0
C628 C 0.3379 0.14676 0.03438 0.0
C629 C 0.34775 0.14575 0.01865 0.0
C630 C 0.3386 0.11267 0.01146 0.0
H631 H 0.35348 1.00705 0.02666 0.0
H632 H 0.36594 0.0542 0.02656 0.0
H633 H 0.33175 0.02319 0.03987 0.0
H634 H 0.2973 0.05669 0.04262 0.0
H635 H 0.31291 0.11412 0.05517 0.0
H636 H 0.21186 0.31737 0.38972 0.0
H637 H 0.25393 0.30018 0.37872 0.0
H638 H 0.23739 0.33064 0.33237 0.0
H639 H 0.19628 0.34925 0.34348 0.0
H640 H 0.23486 0.24669 0.35919 0.0
H641 H 0.3439 0.36906 0.33052 0.0
H642 H 0.3124 0.37093 0.34415 0.0
H643 H 0.3 0.35883 0.32384 0.0
C644 C 0.21793 0.32132 0.37724 0.0
C645 C 0.20072 0.33464 0.36747 0.0
C646 C 0.24197 0.31142 0.37095 0.0
C647 C 0.24914 0.31423 0.3547 0.0
C648 C 0.23313 0.32898 0.34499 0.0
H649 H 0.31372 0.20319 0.29033 0.0
H650 H 0.29665 0.24348 0.30335 0.0
C651 C 0.20945 0.33949 0.35134 0.0
C652 C 0.26965 0.29767 0.34783 0.0
H653 H 0.33821 0.31225 0.32261 0.0
C654 C 0.25785 0.26132 0.35141 0.0
C655 C 0.29959 0.31656 0.33759 0.0
C656 C 0.31495 0.3561 0.33392 0.0
C657 C 0.27433 0.2431 0.34473 0.0
C658 C 0.3036 0.26168 0.33421 0.0
C659 C 0.31584 0.29813 0.33074 0.0
C660 C 0.31968 0.24251 0.32587 0.0
C661 C 0.25946 0.20363 0.34852 0.0
C662 C 0.33951 0.22966 0.33408 0.0
C663 C 0.34954 0.20666 0.32663 0.0
C664 C 0.33957 0.19593 0.31089 0.0
C665 C 0.32161 0.21068 0.30249 0.0
C666 C 0.31191 0.23384 0.30989 0.0
H667 H 0.23354 0.19191 0.35511 0.0
H668 H 0.25506 0.1878 0.33753 0.0
H669 H 0.2793 0.20062 0.35582 0.0
H670 H 0.3459 0.23622 0.34642 0.0
H671 H 0.36328 0.19575 0.33344 0.0
H672 H 0.85746 0.18796 0.67582 0.0
H673 H 0.91725 0.22852 0.66446 0.0
H674 H 0.96325 0.25429 0.71112 0.0
H675 H 0.90407 0.21279 0.72243 0.0
H676 H 0.97079 0.29947 0.66667 0.0
H677 H 0.0186 0.21081 0.69156 0.0
H678 H 0.97167 0.19858 0.69182 0.0
H679 H 1.00248 0.22944 0.70629 0.0
C680 C 0.88021 0.20288 0.68365 0.0
C681 C 0.87622 0.19684 0.69999 0.0
C682 C 0.91439 0.22598 0.67715 0.0
C683 C 0.94498 0.24362 0.68691 0.0
C684 C 0.94031 0.24009 0.70331 0.0
H685 H 0.17648 0.35604 0.66573 0.0
H686 H 0.11863 0.33948 0.67847 0.0
C687 C 0.9064 0.21658 0.70978 0.0
C688 C 0.98194 0.26327 0.67997 0.0
H689 H 0.06228 0.26401 0.67891 0.0
C690 C 0.99082 0.29179 0.66938 0.0
C691 C 1.00808 0.25307 0.68339 0.0
C692 C 0.99969 0.22109 0.69375 0.0
C693 C 0.02514 0.31042 0.66222 0.0
C694 C 0.05115 0.30023 0.66573 0.0
C695 C 0.04245 0.27211 0.67643 0.0
C696 C 0.08652 0.31605 0.6575 0.0
C697 C 0.03338 0.34082 0.65095 0.0
C698 C 0.08768 0.30893 0.64144 0.0
C699 C 0.12055 0.31802 0.6342 0.0
C700 C 0.153 0.33456 0.64284 0.0
C701 C 0.15205 0.34357 0.65872 0.0
C702 C 0.11901 0.33405 0.66602 0.0
H703 H 1.01428 0.35112 0.6524 0.0
H704 H 0.06141 0.36353 0.65265 0.0
H705 H 0.03104 0.33084 0.63868 0.0
H706 H 0.06293 0.29456 0.6347 0.0
H707 H 0.12032 0.31073 0.62195 0.0
H708 H 0.67892 0.85146 0.01004 0.0
H709 H 0.69747 0.91076 0.99837 0.0
H710 H 0.71165 0.9569 0.04484 0.0
H711 H 0.69457 0.89824 0.05651 0.0
H712 H 0.67802 0.96339 0.99951 0.0
H713 H 0.81254 0.01367 0.02709 0.0
H714 H 0.77847 0.96648 0.02698 0.0
H715 H 0.77625 0.99682 0.04109 0.0
C716 C 0.68516 0.87408 0.01775 0.0
C717 C 0.68577 0.87035 0.03418 0.0
C718 C 0.69589 0.908 0.01107 0.0
C719 C 0.70702 0.93855 0.02073 0.0
C720 C 0.70428 0.93401 0.03715 0.0
H721 H 0.82678 0.16989 0.99924 0.0
H722 H 0.78489 0.11221 0.01193 0.0
C723 C 0.69423 0.90039 0.04381 0.0
C724 C 0.7244 0.97544 0.01375 0.0
H725 H 0.80342 0.05649 0.01352 0.0
C726 C 0.70539 0.98378 1.00261 0.0
C727 C 0.76029 1.00206 0.01769 0.0
C728 C 0.78324 0.99429 0.02874 0.0
C729 C 0.72125 0.01802 0.99539 0.0
C730 C 0.75703 0.04449 0.99937 0.0
C731 C 0.7758 0.03632 0.01065 0.0
C732 C 0.77696 0.07978 0.9911 0.0
C733 C 0.69967 0.02567 0.98355 0.0
C734 C 0.78588 0.08074 0.97514 0.0
C735 C 0.80996 0.11352 0.96792 0.0
C736 C 0.82562 0.1461 0.97651 0.0
C737 C 0.81505 0.14535 0.99227 0.0
C738 C 0.79119 0.11241 0.99954 0.0
H739 H 0.67019 1.00664 0.98482 0.0
H740 H 0.70496 0.05378 0.98479 0.0
H741 H 0.70781 0.02256 0.97148 0.0
H742 H 0.77577 0.05591 0.96846 0.0
H743 H 0.81748 0.11311 0.95576 0.0
H744 H 0.75212 0.8511 0.29792 0.0
H745 H 0.76502 0.80686 0.3093 0.0
H746 H 0.65943 0.75246 0.3309 0.0
H747 H 0.64682 0.79827 0.32 0.0
H748 H 0.70584 0.75784 0.35131 0.0
H749 H 0.73802 0.70726 0.29786 0.0
H750 H 0.76564 0.75545 0.2979 0.0
H751 H 0.71704 0.73484 0.29692 0.0
C752 C 0.73127 0.82949 0.30489 0.0
C753 C 0.6983 0.82823 0.30797 0.0
C754 C 0.73861 0.80382 0.31128 0.0
C755 C 0.71289 0.77548 0.32062 0.0
C756 C 0.67963 0.77377 0.32359 0.0
H757 H 0.80727 0.64353 0.35224 0.0
H758 H 0.76216 0.65584 0.34028 0.0
C759 C 0.67242 0.79996 0.31735 0.0
C760 C 0.72263 0.75017 0.32834 0.0
H761 H 0.77026 0.70675 0.32179 0.0
C762 C 0.71913 0.74594 0.34477 0.0
C763 C 0.73888 0.73329 0.31992 0.0
C764 C 0.73965 0.73262 0.30216 0.0
C765 C 0.73431 0.72832 0.35307 0.0
C766 C 0.7549 0.71591 0.34481 0.0
C767 C 0.75544 0.71708 0.32827 0.0
C768 C 0.77933 0.70576 0.35308 0.0
C769 C 0.72858 0.72388 0.37065 0.0
C770 C 0.8041 0.72958 0.3642 0.0
C771 C 0.82931 0.72235 0.37117 0.0
C772 C 0.83124 0.6915 0.36694 0.0
C773 C 0.80643 0.66744 0.35582 0.0
C774 C 0.78067 0.67449 0.34897 0.0
H775 H 0.70152 0.71966 0.37388 0.0
H776 H 0.73087 0.70073 0.37514 0.0
H777 H 0.74902 0.74897 0.37663 0.0
H778 H 0.80485 0.7546 0.36716 0.0
H779 H 0.84818 0.74183 0.37952 0.0
H780 H 0.1217 0.81495 0.72394 0.0
H781 H 0.06283 0.77235 0.71281 0.0
H782 H 0.11225 0.7827 0.66731 0.0
H783 H 0.17159 0.8246 0.67855 0.0
H784 H 0.03119 0.79116 0.69127 0.0
H785 H 0.04178 0.67581 0.66786 0.0
H786 H 0.07451 0.70835 0.68139 0.0
H787 H 0.07703 0.71851 0.6607 0.0
C788 C 0.12021 0.80744 0.71164 0.0
C789 C 0.15132 0.82326 0.70211 0.0
C790 C 0.08648 0.78308 0.70529 0.0
C791 C 0.08294 0.77407 0.68922 0.0
C792 C 0.11424 0.78849 0.67981 0.0
H793 H 0.91045 0.70757 0.62324 0.0
H794 H 0.96716 0.72408 0.63671 0.0
C795 C 0.1482 0.81261 0.68624 0.0
C796 C 0.04625 0.75349 0.68208 0.0
H797 H 0.99189 0.68163 0.6584 0.0
C798 C 0.02247 0.76687 0.6843 0.0
C799 C 0.0348 0.72188 0.67289 0.0
C800 C 0.05825 0.70507 0.67069 0.0
C801 C 0.98814 0.7502 0.67731 0.0
C802 C 0.97704 0.71914 0.66786 0.0
C803 C 1.00047 0.70537 0.66572 0.0
C804 C 0.94216 0.70263 0.65928 0.0
C805 C 0.96435 0.76664 0.67961 0.0
C806 C 0.90916 0.68381 0.66739 0.0
C807 C 0.87652 0.67408 0.65969 0.0
C808 C 0.87653 0.68342 0.64381 0.0
C809 C 0.90951 0.70018 0.63551 0.0
C810 C 0.94197 0.70955 0.64317 0.0
H811 H 0.97865 0.79317 0.68573 0.0
H812 H 0.95449 0.77038 0.66805 0.0
H813 H 0.94038 0.74805 0.68674 0.0
H814 H 0.90882 0.67823 0.67985 0.0
H815 H 0.85165 0.66133 0.66643 0.0
H816 H 1.01165 0.27613 0.99691 0.0
H817 H 0.06507 0.27917 0.00876 0.0
H818 H 0.07723 0.22496 0.96832 0.0
H819 H 0.02342 0.22141 0.95635 0.0
H820 H 0.08021 0.19504 0.99739 0.0
H821 H 0.17185 0.34374 0.99673 0.0
H822 H 0.12851 0.32947 0.00552 0.0
H823 H 0.13135 0.32142 0.98492 0.0
C824 C 0.0258 0.2651 0.99043 0.0
C825 C 1.01322 0.24853 0.97565 0.0
C826 C 0.05648 0.26706 0.99721 0.0
C827 C 0.07534 0.25269 0.98934 0.0
C828 C 0.06311 0.23638 0.97454 0.0
H829 H 0.28302 0.27711 0.01366 0.0
H830 H 0.23239 0.2789 1.00134 0.0
C831 C 0.03241 0.23445 0.96771 0.0
C832 C 0.10676 0.25315 0.99693 0.0
H833 H 0.19089 0.30943 0.01185 0.0
C834 C 0.10449 0.22002 1.0005 0.0
C835 C 0.13845 0.28581 1.00086 0.0
C836 C 0.14297 0.32216 0.9967 0.0
C837 C 0.13289 0.21866 0.00813 0.0
C838 C 0.16415 0.25131 0.01248 0.0
C839 C 0.16668 0.28445 0.00867 0.0
C840 C 0.19507 0.25157 0.02047 0.0
C841 C 0.12946 0.18231 0.01124 0.0
C842 C 0.19108 0.23632 0.03549 0.0
C843 C 0.22003 0.23523 0.04261 0.0
C844 C 0.2535 0.24947 0.03483 0.0
C845 C 0.25761 0.26571 0.01998 0.0
C846 C 0.22871 0.26683 0.0129 0.0
H847 H 0.10777 0.16059 1.00402 0.0
H848 H 0.15532 0.18301 0.00873 0.0
H849 H 0.12271 0.17523 0.02384 0.0
H850 H 0.16548 0.22498 0.04164 0.0
H851 H 0.21597 0.22267 0.05407 0.0
H852 H 0.74795 0.99667 0.33562 0.0
H853 H 0.79715 0.05001 0.34832 0.0
H854 H 0.8465 0.0909 0.30304 0.0
H855 H 0.79751 0.03746 0.29017 0.0
H856 H 0.87534 0.07144 0.34399 0.0
H857 H 0.84155 0.17656 0.32659 0.0
H858 H 0.80805 0.12903 0.32735 0.0
H859 H 0.83985 0.14626 0.3114 0.0
C860 C 0.76903 0.01714 0.32831 0.0
C861 C 0.76881 0.01276 0.31186 0.0
C862 C 0.79712 0.04756 0.33561 0.0
C863 C 0.82521 0.07437 0.32659 0.0
C864 C 0.82478 0.07058 0.31016 0.0
H865 H 0.02279 0.2731 0.34438 0.0
H866 H 0.96805 0.22214 0.33364 0.0
C867 C 0.79684 0.03999 0.30285 0.0
C868 C 0.85606 0.10529 0.33446 0.0
H869 H 0.89736 0.19663 0.33953 0.0
C870 C 0.88014 0.09883 0.34313 0.0
C871 C 0.86212 0.14083 0.3332 0.0
C872 C 0.83649 0.14883 0.32423 0.0
C873 C 0.91087 0.12726 0.35027 0.0
C874 C 0.917 0.16296 0.34906 0.0
C875 C 0.89256 0.16927 0.34051 0.0
C876 C 0.94948 0.19435 0.35594 0.0
C877 C 0.9371 0.11891 0.35852 0.0
C878 C 0.95697 0.19603 0.37213 0.0
C879 C 0.98856 0.22504 0.37831 0.0
C880 C 1.01293 0.25317 0.36844 0.0
C881 C 1.00468 0.2519 0.35233 0.0
C882 C 0.97334 0.22279 0.34615 0.0
H883 H 0.93357 0.0924 0.35477 0.0
H884 H 0.96549 0.14016 0.35618 0.0
H885 H 0.93234 0.11771 0.37141 0.0
H886 H 0.93847 0.17484 0.37998 0.0
H887 H 0.99392 0.22537 0.3908 0.0
H888 H 0.80475 0.80831 0.62315 0.0
H889 H 0.80192 0.85862 0.63559 0.0
H890 H 0.74574 0.79085 0.67536 0.0
H891 H 0.74799 0.74041 0.66301 0.0
H892 H 0.7157 0.83204 0.66482 0.0
H893 H 0.86408 0.91612 0.67357 0.0
H894 H 0.85041 0.90168 0.65362 0.0
H895 H 0.84226 0.86872 0.66857 0.0
C896 C 0.79163 0.80404 0.6345 0.0
C897 C 0.77682 0.77037 0.64212 0.0
C898 C 0.79024 0.83288 0.64164 0.0
C899 C 0.77416 0.82858 0.65651 0.0
C900 C 0.75845 0.79477 0.66392 0.0
H901 H 0.80098 0.99977 0.72053 0.0
H902 H 0.79826 0.9461 0.70871 0.0
C903 C 0.75983 0.76598 0.65682 0.0
C904 C 0.77386 0.85929 0.6645 0.0
H905 H 0.82898 0.94323 0.6799 0.0
C906 C 0.74044 0.85636 0.66813 0.0
C907 C 0.80619 0.89068 0.66904 0.0
C908 C 0.8428 0.89452 0.66615 0.0
C909 C 0.73849 0.88431 0.67596 0.0
C910 C 0.77084 0.91617 0.68006 0.0
C911 C 0.80424 0.91883 0.67666 0.0
C912 C 0.77069 0.9474 0.68758 0.0
C913 C 0.70185 0.87932 0.67995 0.0
C914 C 0.7561 0.96586 0.67961 0.0
C915 C 0.75757 0.99643 0.6863 0.0
C916 C 0.77388 1.00933 0.7011 0.0
C917 C 0.78813 0.99052 0.70915 0.0
C918 C 0.78669 0.95991 0.70241 0.0
H919 H 0.68056 0.85032 0.67991 0.0
H920 H 0.70214 0.89097 0.69169 0.0
H921 H 0.69446 0.89345 0.67103 0.0
H922 H 0.74425 0.95706 0.66803 0.0
H923 H 0.74643 1.01029 0.67973 0.0
H924 H 0.8173 0.82 0.04885 0.0
H925 H 0.86821 0.81959 0.03577 0.0
H926 H 0.79377 0.72528 0.00915 0.0
H927 H 0.74289 0.72658 0.02163 0.0
H928 H 0.89183 0.77389 0.03452 0.0
H929 H 0.85317 0.78953 0.97413 0.0
H930 H 0.83108 0.79411 0.99136 0.0
H931 H 0.81806 0.74998 0.98357 0.0
C932 C 0.81183 0.79912 0.04024 0.0
C933 C 0.77613 0.77357 0.03613 0.0
C934 C 0.84093 0.79894 0.03275 0.0
C935 C 0.83485 0.773 0.02114 0.0
C936 C 0.79919 0.74636 0.01763 0.0
H937 H 1.00044 0.72592 0.98924 0.0
H938 H 0.94826 0.72483 1.00162 0.0
C939 C 0.77011 0.74693 0.02488 0.0
C940 C 0.86579 0.77371 0.01279 0.0
H941 H 0.89906 0.7735 0.97619 0.0
C942 C 0.89351 0.77402 0.02176 0.0
C943 C 0.86843 0.77464 0.99613 0.0
C944 C 0.84129 0.77746 0.98575 0.0
C945 C 0.92341 0.77461 0.01458 0.0
C946 C 0.92499 0.77345 0.99792 0.0
C947 C 0.8976 0.77379 0.98895 0.0
C948 C 0.95511 0.7725 0.98957 0.0
C949 C 0.95337 0.77742 0.02496 0.0
C950 C 0.97505 0.79831 0.97795 0.0
C951 C 1.00431 0.79836 0.97052 0.0
C952 C 1.01437 0.77281 0.9747 0.0
C953 C 0.99363 0.74626 0.98593 0.0
C954 C 0.964 0.74582 0.99313 0.0
H955 H 0.95369 0.78965 0.03657 0.0
H956 H 0.949 0.74993 0.02717 0.0
H957 H 0.98023 0.79393 0.01932 0.0
H958 H 0.96852 0.81899 0.9749 0.0
H959 H 0.01982 0.81918 0.96192 0.0
H960 H 0.02922 0.80622 0.38589 0.0
H961 H 0.08239 0.8558 0.37318 0.0
H962 H 0.06653 0.78809 0.3328 0.0
H963 H 1.01346 0.73833 0.34537 0.0
H964 H 0.14041 0.82992 0.34386 0.0
H965 H 0.07419 0.9121 0.33471 0.0
H966 H 0.07279 0.89672 0.35454 0.0
H967 H 0.04904 0.86442 0.33921 0.0
C968 C 0.03717 0.80175 0.37436 0.0
C969 C 0.01691 0.76838 0.3666 0.0
C970 C 0.06744 0.83016 0.3671 0.0
C971 C 0.07799 0.82568 0.35198 0.0
C972 C 0.05865 0.79209 0.34444 0.0
H973 H 0.22179 0.99817 0.28849 0.0
H974 H 0.17134 0.94342 0.29984 0.0
C975 C 0.0283 0.76372 0.35165 0.0
C976 C 0.10868 0.85627 0.34385 0.0
H977 H 0.13638 0.93977 0.32835 0.0
C978 C 0.13959 0.85395 0.34043 0.0
C979 C 0.10717 0.88723 0.33919 0.0
C980 C 0.07394 0.89034 0.34195 0.0
C981 C 0.16947 0.88226 0.33276 0.0
C982 C 0.1684 0.91373 0.32855 0.0
C983 C 0.13716 0.91567 0.33167 0.0
C984 C 0.1997 0.94541 0.32124 0.0
C985 C 0.20178 0.87814 0.32909 0.0
C986 C 0.23229 0.9646 0.32953 0.0
C987 C 0.26111 0.99584 0.32311 0.0
C988 C 0.25783 1.00864 0.30829 0.0
C989 C 0.22526 0.98904 0.29991 0.0
C990 C 0.1964 0.95779 0.30637 0.0
H991 H 0.19469 0.84933 0.3292 0.0
H992 H 0.21342 0.8899 0.31741 0.0
H993 H 0.22291 0.8927 0.33815 0.0
H994 H 0.23517 0.95591 0.34115 0.0
H995 H 0.28573 1.01029 0.32992 0.0
H996 H 0.22974 0.02218 0.71941 0.0
H997 H 0.2326 0.07506 0.70679 0.0
H998 H 0.28591 0.0608 0.66654 0.0
H999 H 0.28346 1.00819 0.67904 0.0
H1000 H 0.31714 0.13357 0.67725 0.0
H1001 H 0.16855 0.06792 0.66873 0.0
H1002 H 0.18275 0.06715 0.68858 0.0
H1003 H 0.19084 0.04267 0.67341 0.0
C1004 C 0.24227 0.03041 0.70792 0.0
C1005 C 0.25613 0.01077 0.70019 0.0
C1006 C 0.2437 0.0605 0.70069 0.0
C1007 C 0.25896 0.07144 0.68564 0.0
C1008 C 0.27384 0.05264 0.67813 0.0
H1009 H 0.23026 0.21411 0.62167 0.0
H1010 H 0.23392 0.16369 0.63339 0.0
C1011 C 0.27234 0.02253 0.6853 0.0
C1012 C 0.25902 0.10216 0.67757 0.0
H1013 H 0.20325 0.13001 0.6622 0.0
C1014 C 0.29228 0.13285 0.67394 0.0
C1015 C 0.22652 0.10079 0.67304 0.0
C1016 C 0.19009 0.06778 0.67599 0.0
C1017 C 0.2939 0.16259 0.66615 0.0
C1018 C 0.26137 0.16166 0.66206 0.0
C1019 C 0.22814 0.13069 0.66543 0.0
C1020 C 0.26112 0.19282 0.65457 0.0
C1021 C 0.33038 0.19457 0.66221 0.0
C1022 C 0.27519 0.22584 0.6626 0.0
C1023 C 0.27316 0.25464 0.65596 0.0
C1024 C 0.25681 0.25094 0.64117 0.0
C1025 C 0.24311 0.21792 0.63305 0.0
C1026 C 0.24511 0.18906 0.63974 0.0
H1027 H 0.35193 0.18725 0.66229 0.0
H1028 H 0.33001 0.20579 0.65047 0.0
H1029 H 0.33743 0.21609 0.67114 0.0
H1030 H 0.28705 0.22909 0.67419 0.0
H1031 H 0.2839 0.27962 0.66257 0.0
loop_
_geom_bond_atom_site_label_1
_geom_bond_atom_site_label_2
_geom_bond_distance
_geom_bond_site_symmetry_2
_ccdc_geom_bond_type
O0 Cd1 2.223 . S
O0 C8 1.315 . S
Cd1 O0 2.223 . S
Cd1 O4 2.297 . S
Cd1 O5 2.439 . S
Cd1 O11 2.240 . S
Cd2 O3 2.240 . S
Cd2 O10 2.223 . S
Cd2 O12 2.297 . S
Cd2 O13 2.439 . S
O3 Cd2 2.240 . S
O3 C8 1.279 . S
O4 Cd1 2.297 . S
O4 C6 1.247 . S
O5 Cd1 2.439 . S
O5 C6 1.208 . S
C6 O4 1.247 . S
C6 O5 1.208 . S
C7 O12 1.247 . S
C7 O13 1.208 . S
C8 O0 1.315 . S
C8 O3 1.279 . S
C9 O10 1.315 . S
C9 O11 1.279 . S
O10 Cd2 2.223 . S
O10 C9 1.315 . S
O11 Cd1 2.240 . S
O11 C9 1.279 . S
O12 Cd2 2.297 . S
O12 C7 1.247 . S
O13 Cd2 2.439 . S
O13 C7 1.208 . S
O14 Cd15 2.223 . S
O14 C22 1.315 . S
Cd15 O14 2.223 . S
Cd15 O18 2.297 . S
Cd15 O19 2.439 . S
Cd15 O25 2.240 . S
Cd16 O17 2.240 . S
Cd16 O24 2.223 . S
Cd16 O26 2.297 . S
Cd16 O27 2.439 . S
O17 Cd16 2.240 . S
O17 C22 1.279 . S
O18 Cd15 2.297 . S
O18 C20 1.247 . S
O19 Cd15 2.439 . S
O19 C20 1.208 . S
C20 O18 1.247 . S
C20 O19 1.208 . S
C21 O26 1.247 . S
C21 O27 1.208 . S
C22 O14 1.315 . S
C22 O17 1.279 . S
C23 O24 1.315 . S
C23 O25 1.279 . S
O24 Cd16 2.223 . S
O24 C23 1.315 . S
O25 Cd15 2.240 . S
O25 C23 1.279 . S
O26 Cd16 2.297 . S
O26 C21 1.247 . S
O27 Cd16 2.439 . S
O27 C21 1.208 . S
O28 Cd29 2.223 . S
O28 C36 1.315 . S
Cd29 O28 2.223 . S
Cd29 O32 2.297 . S
Cd29 O33 2.439 . S
Cd29 O39 2.240 . S
Cd30 O31 2.240 . S
Cd30 O38 2.223 . S
Cd30 O40 2.297 . S
Cd30 O41 2.439 . S
O31 Cd30 2.240 . S
O31 C36 1.279 . S
O32 Cd29 2.297 . S
O32 C34 1.247 . S
O33 Cd29 2.439 . S
O33 C34 1.208 . S
C34 O32 1.247 . S
C34 O33 1.208 . S
C35 O40 1.247 . S
C35 O41 1.208 . S
C36 O28 1.315 . S
C36 O31 1.279 . S
C37 O38 1.315 . S
C37 O39 1.279 . S
O38 Cd30 2.223 . S
O38 C37 1.315 . S
O39 Cd29 2.240 . S
O39 C37 1.279 . S
O40 Cd30 2.297 . S
O40 C35 1.247 . S
O41 Cd30 2.439 . S
O41 C35 1.208 . S
O42 Cd43 2.223 . S
O42 C50 1.315 . S
Cd43 O42 2.223 . S
Cd43 O46 2.297 . S
Cd43 O47 2.439 . S
Cd43 O53 2.240 . S
Cd44 O45 2.240 . S
Cd44 O52 2.223 . S
Cd44 O54 2.297 . S
Cd44 O55 2.439 . S
O45 Cd44 2.240 . S
O45 C50 1.279 . S
O46 Cd43 2.297 . S
O46 C48 1.247 . S
O47 Cd43 2.439 . S
O47 C48 1.208 . S
C48 O46 1.247 . S
C48 O47 1.208 . S
C49 O54 1.247 . S
C49 O55 1.208 . S
C50 O42 1.315 . S
C50 O45 1.279 . S
C51 O52 1.315 . S
C51 O53 1.279 . S
O52 Cd44 2.223 . S
O52 C51 1.315 . S
O53 Cd43 2.240 . S
O53 C51 1.279 . S
O54 Cd44 2.297 . S
O54 C49 1.247 . S
O55 Cd44 2.439 . S
O55 C49 1.208 . S
O56 Cd57 2.223 . S
O56 C64 1.315 . S
Cd57 O56 2.223 . S
Cd57 O60 2.297 . S
Cd57 O61 2.439 . S
Cd57 O67 2.240 . S
Cd58 O59 2.240 . S
Cd58 O66 2.223 . S
Cd58 O68 2.297 . S
Cd58 O69 2.439 . S
O59 Cd58 2.240 . S
O59 C64 1.279 . S
O60 Cd57 2.297 . S
O60 C62 1.247 . S
O61 Cd57 2.439 . S
O61 C62 1.208 . S
C62 O60 1.247 . S
C62 O61 1.208 . S
C63 O68 1.247 . S
C63 O69 1.208 . S
C64 O56 1.315 . S
C64 O59 1.279 . S
C65 O66 1.315 . S
C65 O67 1.279 . S
O66 Cd58 2.223 . S
O66 C65 1.315 . S
O67 Cd57 2.240 . S
O67 C65 1.279 . S
O68 Cd58 2.297 . S
O68 C63 1.247 . S
O69 Cd58 2.439 . S
O69 C63 1.208 . S
O70 Cd71 2.223 . S
O70 C78 1.315 . S
Cd71 O70 2.223 . S
Cd71 O74 2.297 . S
Cd71 O75 2.439 . S
Cd71 O81 2.240 . S
Cd72 O73 2.240 . S
Cd72 O80 2.223 . S
Cd72 O82 2.297 . S
Cd72 O83 2.439 . S
O73 Cd72 2.240 . S
O73 C78 1.279 . S
O74 Cd71 2.297 . S
O74 C76 1.247 . S
O75 Cd71 2.439 . S
O75 C76 1.208 . S
C76 O74 1.247 . S
C76 O75 1.208 . S
C77 O82 1.247 . S
C77 O83 1.208 . S
C78 O70 1.315 . S
C78 O73 1.279 . S
C79 O80 1.315 . S
C79 O81 1.279 . S
O80 Cd72 2.223 . S
O80 C79 1.315 . S
O81 Cd71 2.240 . S
O81 C79 1.279 . S
O82 Cd72 2.297 . S
O82 C77 1.247 . S
O83 Cd72 2.439 . S
O83 C77 1.208 . S
O84 Cd85 2.223 . S
O84 C92 1.315 . S
Cd85 O84 2.223 . S
Cd85 O88 2.297 . S
Cd85 O89 2.439 . S
Cd85 O95 2.240 . S
Cd86 O87 2.240 . S
Cd86 O94 2.223 . S
Cd86 O96 2.297 . S
Cd86 O97 2.439 . S
O87 Cd86 2.240 . S
O87 C92 1.279 . S
O88 Cd85 2.297 . S
O88 C90 1.247 . S
O89 Cd85 2.439 . S
O89 C90 1.208 . S
C90 O88 1.247 . S
C90 O89 1.208 . S
C91 O96 1.247 . S
C91 O97 1.208 . S
C92 O84 1.315 . S
C92 O87 1.279 . S
C93 O94 1.315 . S
C93 O95 1.279 . S
O94 Cd86 2.223 . S
O94 C93 1.315 . S
O95 Cd85 2.240 . S
O95 C93 1.279 . S
O96 Cd86 2.297 . S
O96 C91 1.247 . S
O97 Cd86 2.439 . S
O97 C91 1.208 . S
O98 Cd99 2.223 . S
O98 C106 1.315 . S
Cd99 O98 2.223 . S
Cd99 O102 2.297 . S
Cd99 O103 2.439 . S
Cd99 O109 2.240 . S
Cd100 O101 2.240 . S
Cd100 O108 2.223 . S
Cd100 O110 2.297 . S
Cd100 O111 2.439 . S
O101 Cd100 2.240 . S
O101 C106 1.279 . S
O102 Cd99 2.297 . S
O102 C104 1.247 . S
O103 Cd99 2.439 . S
O103 C104 1.208 . S
C104 O102 1.247 . S
C104 O103 1.208 . S
C105 O110 1.247 . S
C105 O111 1.208 . S
C106 O98 1.315 . S
C106 O101 1.279 . S
C107 O108 1.315 . S
C107 O109 1.279 . S
O108 Cd100 2.223 . S
O108 C107 1.315 . S
O109 Cd99 2.240 . S
O109 C107 1.279 . S
O110 Cd100 2.297 . S
O110 C105 1.247 . S
O111 Cd100 2.439 . S
O111 C105 1.208 . S
O112 Cd113 2.223 . S
O112 C120 1.315 . S
Cd113 O112 2.223 . S
Cd113 O116 2.297 . S
Cd113 O117 2.439 . S
Cd113 O123 2.240 . S
Cd114 O115 2.240 . S
Cd114 O122 2.223 . S
Cd114 O124 2.297 . S
Cd114 O125 2.439 . S
O115 Cd114 2.240 . S
O115 C120 1.279 . S
O116 Cd113 2.297 . S
O116 C118 1.247 . S
O117 Cd113 2.439 . S
O117 C118 1.208 . S
C118 O116 1.247 . S
C118 O117 1.208 . S
C119 O124 1.247 . S
C119 O125 1.208 . S
C120 O112 1.315 . S
C120 O115 1.279 . S
C121 O122 1.315 . S
C121 O123 1.279 . S
O122 Cd114 2.223 . S
O122 C121 1.315 . S
O123 Cd113 2.240 . S
O123 C121 1.279 . S
O124 Cd114 2.297 . S
O124 C119 1.247 . S
O125 Cd114 2.439 . S
O125 C119 1.208 . S
O126 Cd127 2.223 . S
O126 C134 1.315 . S
Cd127 O126 2.223 . S
Cd127 O130 2.297 . S
Cd127 O131 2.439 . S
Cd127 O137 2.240 . S
Cd128 O129 2.240 . S
Cd128 O136 2.223 . S
Cd128 O138 2.297 . S
Cd128 O139 2.439 . S
O129 Cd128 2.240 . S
O129 C134 1.279 . S
O130 Cd127 2.297 . S
O130 C132 1.247 . S
O131 Cd127 2.439 . S
O131 C132 1.208 . S
C132 O130 1.247 . S
C132 O131 1.208 . S
C133 O138 1.247 . S
C133 O139 1.208 . S
C134 O126 1.315 . S
C134 O129 1.279 . S
C135 O136 1.315 . S
C135 O137 1.279 . S
O136 Cd128 2.223 . S
O136 C135 1.315 . S
O137 Cd127 2.240 . S
O137 C135 1.279 . S
O138 Cd128 2.297 . S
O138 C133 1.247 . S
O139 Cd128 2.439 . S
O139 C133 1.208 . S
O140 Cd141 2.223 . S
O140 C148 1.315 . S
Cd141 O140 2.223 . S
Cd141 O144 2.297 . S
Cd141 O145 2.439 . S
Cd141 O151 2.240 . S
Cd142 O143 2.240 . S
Cd142 O150 2.223 . S
Cd142 O152 2.297 . S
Cd142 O153 2.439 . S
O143 Cd142 2.240 . S
O143 C148 1.279 . S
O144 Cd141 2.297 . S
O144 C146 1.247 . S
O145 Cd141 2.439 . S
O145 C146 1.208 . S
C146 O144 1.247 . S
C146 O145 1.208 . S
C147 O152 1.247 . S
C147 O153 1.208 . S
C148 O140 1.315 . S
C148 O143 1.279 . S
C149 O150 1.315 . S
C149 O151 1.279 . S
O150 Cd142 2.223 . S
O150 C149 1.315 . S
O151 Cd141 2.240 . S
O151 C149 1.279 . S
O152 Cd142 2.297 . S
O152 C147 1.247 . S
O153 Cd142 2.439 . S
O153 C147 1.208 . S
O154 Cd155 2.223 . S
O154 C162 1.315 . S
Cd155 O154 2.223 . S
Cd155 O158 2.297 . S
Cd155 O159 2.439 . S
Cd155 O165 2.240 . S
Cd156 O157 2.240 . S
Cd156 O164 2.223 . S
Cd156 O166 2.297 . S
Cd156 O167 2.439 . S
O157 Cd156 2.240 . S
O157 C162 1.279 . S
O158 Cd155 2.297 . S
O158 C160 1.247 . S
O159 Cd155 2.439 . S
O159 C160 1.208 . S
C160 O158 1.247 . S
C160 O159 1.208 . S
C161 O166 1.247 . S
C161 O167 1.208 . S
C162 O154 1.315 . S
C162 O157 1.279 . S
C163 O164 1.315 . S
C163 O165 1.279 . S
O164 Cd156 2.223 . S
O164 C163 1.315 . S
O165 Cd155 2.240 . S
O165 C163 1.279 . S
O166 Cd156 2.297 . S
O166 C161 1.247 . S
O167 Cd156 2.439 . S
O167 C161 1.208 . S
H168 C176 0.929 . S
H169 C178 0.930 . S
H170 C180 0.930 . S
H171 C183 0.929 . S
H172 C186 0.930 . S
H173 C188 0.960 . S
H174 C188 0.960 . S
H175 C188 0.960 . S
C176 H168 0.929 . S
C176 C177 1.377 . S
C176 C178 1.384 . S
C177 C176 1.377 . S
C177 C183 1.390 . S
C178 H169 0.930 . S
C178 C176 1.384 . S
C178 C179 1.372 . S
C179 C178 1.372 . S
C179 C180 1.400 . S
C179 C184 1.490 . S
C180 H170 0.930 . S
C180 C179 1.400 . S
C180 C183 1.386 . S
H181 C197 0.930 . S
H182 C198 0.931 . S
C183 H171 0.929 . S
C183 C177 1.390 . S
C183 C180 1.386 . S
C184 C179 1.490 . S
C184 C186 1.395 . S
C184 C187 1.403 . S
H185 C191 0.930 . S
C186 H172 0.930 . S
C186 C184 1.395 . S
C186 C189 1.403 . S
C187 C184 1.403 . S
C187 C188 1.524 . S
C187 C191 1.400 . S
C188 H173 0.960 . S
C188 H174 0.960 . S
C188 H175 0.960 . S
C188 C187 1.524 . S
C189 C186 1.403 . S
C189 C190 1.392 . S
C189 C193 1.495 . S
C190 C189 1.392 . S
C190 C191 1.385 . S
C190 C192 1.478 . S
C191 H185 0.930 . S
C191 C187 1.400 . S
C191 C190 1.385 . S
C192 C190 1.478 . S
C192 C194 1.381 . S
C192 C198 1.383 . S
C193 C189 1.495 . S
C193 H199 0.959 . S
C193 H200 0.961 . S
C193 H201 0.960 . S
C194 C192 1.381 . S
C194 C195 1.394 . S
C194 H202 0.930 . S
C195 C194 1.394 . S
C195 C196 1.383 . S
C195 H203 0.929 . S
C196 C195 1.383 . S
C196 C197 1.377 . S
C197 H181 0.930 . S
C197 C196 1.377 . S
C197 C198 1.379 . S
C198 H182 0.931 . S
C198 C192 1.383 . S
C198 C197 1.379 . S
H199 C193 0.959 . S
H200 C193 0.961 . S
H201 C193 0.960 . S
H202 C194 0.930 . S
H203 C195 0.929 . S
H204 C212 0.929 . S
H205 C214 0.930 . S
H206 C216 0.930 1_655 S
H207 C219 0.929 1_655 S
H208 C222 0.930 . S
H209 C224 0.960 . S
H210 C224 0.960 . S
H211 C224 0.960 . S
C212 H204 0.929 . S
C212 C213 1.377 . S
C212 C214 1.384 . S
C213 C212 1.377 . S
C213 C219 1.390 . S
C214 H205 0.930 . S
C214 C212 1.384 . S
C214 C215 1.372 . S
C215 C214 1.372 . S
C215 C216 1.400 . S
C215 C220 1.490 . S
C216 H206 0.930 1_455 S
C216 C215 1.400 . S
C216 C219 1.386 . S
H217 C233 0.930 . S
H218 C234 0.931 . S
C219 H207 0.929 1_455 S
C219 C213 1.390 . S
C219 C216 1.386 . S
C220 C215 1.490 . S
C220 C222 1.395 . S
C220 C223 1.403 1_455 S
H221 C227 0.930 . S
C222 H208 0.930 . S
C222 C220 1.395 . S
C222 C225 1.403 . S
C223 C220 1.403 1_655 S
C223 C224 1.524 . S
C223 C227 1.400 . S
C224 H209 0.960 . S
C224 H210 0.960 . S
C224 H211 0.960 . S
C224 C223 1.524 . S
C225 C222 1.403 . S
C225 C226 1.392 1_455 S
C225 C229 1.495 . S
C226 C225 1.392 1_655 S
C226 C227 1.385 . S
C226 C228 1.478 . S
C227 H221 0.930 . S
C227 C223 1.400 . S
C227 C226 1.385 . S
C228 C226 1.478 . S
C228 C230 1.379 1_655 S
C228 C234 1.383 . S
C229 C225 1.495 . S
C229 H235 0.959 . S
C229 H236 0.961 . S
C229 H237 0.960 . S
C230 C228 1.379 1_455 S
C230 C231 1.377 1_455 S
C230 H238 0.950 . S
C231 C230 1.377 1_655 S
C231 C232 1.383 . S
C231 H239 0.929 1_655 S
C232 C231 1.383 . S
C232 C233 1.377 . S
C233 H217 0.930 . S
C233 C232 1.377 . S
C233 C234 1.379 . S
C234 H218 0.931 . S
C234 C228 1.383 . S
C234 C233 1.379 . S
H235 C229 0.959 . S
H236 C229 0.961 . S
H237 C229 0.960 . S
H238 C230 0.950 . S
H239 C231 0.929 1_455 S
H240 C248 0.929 . S
H241 C250 0.930 . S
H242 C252 0.930 . S
H243 C255 0.929 . S
H244 C258 0.930 . S
H245 C260 0.960 . S
H246 C260 0.960 . S
H247 C260 0.960 . S
C248 H240 0.929 . S
C248 C249 1.377 . S
C248 C250 1.384 . S
C249 C248 1.377 . S
C249 C255 1.390 . S
C250 H241 0.930 . S
C250 C248 1.384 . S
C250 C251 1.372 . S
C251 C250 1.372 . S
C251 C252 1.400 . S
C251 C256 1.490 . S
C252 H242 0.930 . S
C252 C251 1.400 . S
C252 C255 1.386 . S
H253 C269 0.930 . S
H254 C270 0.931 . S
C255 H243 0.929 . S
C255 C249 1.390 . S
C255 C252 1.386 . S
C256 C251 1.490 . S
C256 C258 1.395 . S
C256 C259 1.403 1_565 S
H257 C263 0.930 . S
C258 H244 0.930 . S
C258 C256 1.395 . S
C258 C261 1.403 . S
C259 C256 1.403 1_545 S
C259 C260 1.524 . S
C259 C263 1.400 . S
C260 H245 0.960 . S
C260 H246 0.960 . S
C260 H247 0.960 . S
C260 C259 1.524 . S
C261 C258 1.403 . S
C261 C262 1.392 1_565 S
C261 C265 1.495 . S
C262 C261 1.392 1_545 S
C262 C263 1.385 . S
C262 C264 1.478 . S
C263 H257 0.930 . S
C263 C259 1.400 . S
C263 C262 1.385 . S
C264 C262 1.478 . S
C264 C266 1.381 . S
C264 C270 1.383 . S
C265 C261 1.495 . S
C265 H271 0.959 . S
C265 H272 0.961 . S
C265 H273 0.960 . S
C266 C264 1.381 . S
C266 C267 1.394 . S
C266 H274 0.930 . S
C267 C266 1.394 . S
C267 C268 1.383 . S
C267 H275 0.929 . S
C268 C267 1.383 . S
C268 C269 1.377 . S
C269 H253 0.930 . S
C269 C268 1.377 . S
C269 C270 1.379 . S
C270 H254 0.931 . S
C270 C264 1.383 . S
C270 C269 1.379 . S
H271 C265 0.959 . S
H272 C265 0.961 . S
H273 C265 0.960 . S
H274 C266 0.930 . S
H275 C267 0.929 . S
H276 C284 0.929 . S
H277 C286 0.930 . S
H278 C288 0.930 . S
H279 C291 0.929 . S
H280 C294 0.930 . S
H281 C296 0.960 . S
H282 C296 0.960 . S
H283 C296 0.960 . S
C284 H276 0.929 . S
C284 C285 1.377 . S
C284 C286 1.384 . S
C285 C284 1.377 . S
C285 C291 1.390 . S
C286 H277 0.930 . S
C286 C284 1.384 . S
C286 C287 1.372 . S
C287 C286 1.372 . S
C287 C288 1.400 . S
C287 C292 1.490 . S
C288 H278 0.930 . S
C288 C287 1.400 . S
C288 C291 1.386 . S
H289 C305 0.930 . S
H290 C306 0.931 . S
C291 H279 0.929 . S
C291 C285 1.390 . S
C291 C288 1.386 . S
C292 C287 1.490 . S
C292 C294 1.395 . S
C292 C295 1.403 . S
H293 C299 0.930 . S
C294 H280 0.930 . S
C294 C292 1.395 . S
C294 C297 1.403 . S
C295 C292 1.403 . S
C295 C296 1.524 . S
C295 C299 1.400 . S
C296 H281 0.960 . S
C296 H282 0.960 . S
C296 H283 0.960 . S
C296 C295 1.524 . S
C297 C294 1.403 . S
C297 C298 1.392 . S
C297 C301 1.495 . S
C298 C297 1.392 . S
C298 C299 1.385 . S
C298 C300 1.478 . S
C299 H293 0.930 . S
C299 C295 1.400 . S
C299 C298 1.385 . S
C300 C298 1.478 . S
C300 C302 1.381 . S
C300 C306 1.383 . S
C301 C297 1.495 . S
C301 H307 0.959 . S
C301 H308 0.961 . S
C301 H309 0.960 . S
C302 C300 1.381 . S
C302 C303 1.394 . S
C302 H310 0.930 . S
C303 C302 1.394 . S
C303 C304 1.383 . S
C303 H311 0.929 . S
C304 C303 1.383 . S
C304 C305 1.377 . S
C305 H289 0.930 . S
C305 C304 1.377 . S
C305 C306 1.379 . S
C306 H290 0.931 . S
C306 C300 1.383 . S
C306 C305 1.379 . S
H307 C301 0.959 . S
H308 C301 0.961 . S
H309 C301 0.960 . S
H310 C302 0.930 . S
H311 C303 0.929 . S
H312 C320 0.929 . S
H313 C322 0.933 . S
H314 C324 0.930 . S
H315 C327 0.929 . S
H316 C330 0.930 . S
H317 C332 0.960 . S
H318 C332 0.960 . S
H319 C332 0.960 . S
C320 H312 0.929 . S
C320 C321 1.377 . S
C320 C322 1.384 . S
C321 C320 1.377 . S
C321 C327 1.390 . S
C322 H313 0.933 . S
C322 C320 1.384 . S
C322 C323 1.372 . S
C323 C322 1.372 . S
C323 C324 1.400 . S
C323 C328 1.490 . S
C324 H314 0.930 . S
C324 C323 1.400 . S
C324 C327 1.386 . S
H325 C341 0.930 . S
H326 C342 0.931 1_655 S
C327 H315 0.929 . S
C327 C321 1.390 . S
C327 C324 1.386 . S
C328 C323 1.490 . S
C328 C330 1.395 . S
C328 C331 1.403 1_655 S
H329 C335 0.930 . S
C330 H316 0.930 . S
C330 C328 1.395 . S
C330 C333 1.403 . S
C331 C328 1.403 1_455 S
C331 C332 1.524 . S
C331 C335 1.400 . S
C332 H317 0.960 . S
C332 H318 0.960 . S
C332 H319 0.960 . S
C332 C331 1.524 . S
C333 C330 1.403 . S
C333 C334 1.392 1_655 S
C333 C337 1.495 . S
C334 C333 1.392 1_455 S
C334 C335 1.385 . S
C334 C336 1.478 . S
C335 H329 0.930 . S
C335 C331 1.400 . S
C335 C334 1.385 . S
C336 C334 1.478 . S
C336 C338 1.381 . S
C336 C342 1.383 . S
C337 C333 1.495 . S
C337 H343 0.959 . S
C337 H344 0.961 . S
C337 H345 0.960 . S
C338 C336 1.381 . S
C338 C339 1.394 . S
C338 H346 0.930 . S
C339 C338 1.394 . S
C339 C340 1.383 . S
C339 H347 0.929 . S
C340 C339 1.383 . S
C340 C341 1.377 . S
C341 H325 0.930 . S
C341 C340 1.377 . S
C341 C342 1.379 . S
C342 H326 0.931 1_455 S
C342 C336 1.383 . S
C342 C341 1.379 . S
H343 C337 0.959 . S
H344 C337 0.961 . S
H345 C337 0.960 . S
H346 C338 0.930 . S
H347 C339 0.929 . S
H348 C356 0.929 . S
H349 C358 0.930 . S
H350 C360 0.930 . S
H351 C363 0.929 . S
H352 C366 0.930 . S
H353 C368 0.960 . S
H354 C368 0.960 . S
H355 C368 0.960 . S
C356 H348 0.929 . S
C356 C357 1.377 . S
C356 C358 1.384 . S
C357 C356 1.377 . S
C357 C363 1.390 . S
C358 H349 0.930 . S
C358 C356 1.384 . S
C358 C359 1.372 . S
C359 C358 1.372 . S
C359 C360 1.400 . S
C359 C364 1.490 . S
C360 H350 0.930 . S
C360 C359 1.400 . S
C360 C363 1.386 . S
H361 C377 0.930 . S
H362 C378 0.931 . S
C363 H351 0.929 . S
C363 C357 1.390 . S
C363 C360 1.386 . S
C364 C359 1.490 . S
C364 C366 1.395 1_545 S
C364 C367 1.403 . S
H365 C371 0.930 . S
C366 H352 0.930 . S
C366 C364 1.395 1_565 S
C366 C369 1.403 . S
C367 C364 1.403 . S
C367 C368 1.524 . S
C367 C371 1.400 . S
C368 H353 0.960 . S
C368 H354 0.960 . S
C368 H355 0.960 . S
C368 C367 1.524 . S
C369 C366 1.403 . S
C369 C370 1.392 . S
C369 C373 1.495 . S
C370 C369 1.392 . S
C370 C371 1.385 1_565 S
C370 C372 1.478 . S
C371 H365 0.930 . S
C371 C367 1.400 . S
C371 C370 1.385 1_545 S
C372 C370 1.478 . S
C372 C374 1.381 . S
C372 C378 1.383 . S
C373 C369 1.495 . S
C373 H379 0.959 . S
C373 H380 0.961 . S
C373 H381 0.960 . S
C374 C372 1.381 . S
C374 C375 1.394 . S
C374 H382 0.930 . S
C375 C374 1.394 . S
C375 C376 1.383 . S
C375 H383 0.929 . S
C376 C375 1.383 . S
C376 C377 1.377 . S
C377 H361 0.930 . S
C377 C376 1.377 . S
C377 C378 1.379 . S
C378 H362 0.931 . S
C378 C372 1.383 . S
C378 C377 1.379 . S
H379 C373 0.959 . S
H380 C373 0.961 . S
H381 C373 0.960 . S
H382 C374 0.930 . S
H383 C375 0.929 . S
H384 C392 0.929 . S
H385 C394 0.930 . S
H386 C396 0.930 . S
H387 C399 0.929 . S
H388 C402 0.930 . S
H389 C404 0.960 . S
H390 C404 0.960 . S
H391 C404 0.960 . S
C392 H384 0.929 . S
C392 C393 1.377 . S
C392 C394 1.384 . S
C393 C392 1.377 . S
C393 C399 1.390 . S
C394 H385 0.930 . S
C394 C392 1.384 . S
C394 C395 1.372 . S
C395 C394 1.372 . S
C395 C396 1.400 . S
C395 C400 1.490 . S
C396 H386 0.930 . S
C396 C395 1.400 . S
C396 C399 1.386 . S
H397 C413 0.930 . S
H398 C414 0.931 . S
C399 H387 0.929 . S
C399 C393 1.390 . S
C399 C396 1.386 . S
C400 C395 1.490 . S
C400 C402 1.395 . S
C400 C403 1.403 . S
H401 C407 0.930 . S
C402 H388 0.930 . S
C402 C400 1.395 . S
C402 C405 1.403 . S
C403 C400 1.403 . S
C403 C404 1.524 . S
C403 C407 1.400 . S
C404 H389 0.960 . S
C404 H390 0.960 . S
C404 H391 0.960 . S
C404 C403 1.524 . S
C405 C402 1.403 . S
C405 C406 1.392 . S
C405 C409 1.495 . S
C406 C405 1.392 . S
C406 C407 1.385 . S
C406 C408 1.478 . S
C407 H401 0.930 . S
C407 C403 1.400 . S
C407 C406 1.385 . S
C408 C406 1.478 . S
C408 C410 1.381 . S
C408 C414 1.383 . S
C409 C405 1.495 . S
C409 H415 0.959 . S
C409 H416 0.961 . S
C409 H417 0.960 . S
C410 C408 1.381 . S
C410 C411 1.394 . S
C410 H418 0.930 . S
C411 C410 1.394 . S
C411 C412 1.383 . S
C411 H419 0.929 . S
C412 C411 1.383 . S
C412 C413 1.377 . S
C413 H397 0.930 . S
C413 C412 1.377 . S
C413 C414 1.379 . S
C414 H398 0.931 . S
C414 C408 1.383 . S
C414 C413 1.379 . S
H415 C409 0.959 . S
H416 C409 0.961 . S
H417 C409 0.960 . S
H418 C410 0.930 . S
H419 C411 0.929 . S
H420 C428 0.929 . S
H421 C430 0.930 . S
H422 C432 0.930 . S
H423 C435 0.929 . S
H424 C438 0.930 . S
H425 C440 0.960 . S
H426 C440 0.960 . S
H427 C440 0.960 . S
C428 H420 0.929 . S
C428 C429 1.377 . S
C428 C430 1.384 . S
C429 C428 1.377 . S
C429 C435 1.390 . S
C430 H421 0.930 . S
C430 C428 1.384 . S
C430 C431 1.372 . S
C431 C430 1.372 . S
C431 C432 1.400 . S
C431 C436 1.490 . S
C432 H422 0.930 . S
C432 C431 1.400 . S
C432 C435 1.386 . S
H433 C449 0.930 . S
H434 C450 0.931 . S
C435 H423 0.929 . S
C435 C429 1.390 . S
C435 C432 1.386 . S
C436 C431 1.490 . S
C436 C438 1.395 . S
C436 C439 1.403 . S
H437 C443 0.930 . S
C438 H424 0.930 . S
C438 C436 1.395 . S
C438 C441 1.403 . S
C439 C436 1.403 . S
C439 C440 1.524 . S
C439 C443 1.400 . S
C440 H425 0.960 . S
C440 H426 0.960 . S
C440 H427 0.960 . S
C440 C439 1.524 . S
C441 C438 1.403 . S
C441 C442 1.392 . S
C441 C445 1.495 . S
C442 C441 1.392 . S
C442 C443 1.385 . S
C442 C444 1.478 . S
C443 H437 0.930 . S
C443 C439 1.400 . S
C443 C442 1.385 . S
C444 C442 1.478 . S
C444 C446 1.381 . S
C444 C450 1.383 . S
C445 C441 1.495 . S
C445 H451 0.959 . S
C445 H452 0.961 . S
C445 H453 0.960 . S
C446 C444 1.381 . S
C446 C447 1.394 . S
C446 H454 0.930 . S
C447 C446 1.394 . S
C447 C448 1.383 . S
C447 H455 0.929 . S
C448 C447 1.383 . S
C448 C449 1.377 . S
C449 H433 0.930 . S
C449 C448 1.377 . S
C449 C450 1.379 . S
C450 H434 0.931 . S
C450 C444 1.383 . S
C450 C449 1.379 . S
H451 C445 0.959 . S
H452 C445 0.961 . S
H453 C445 0.960 . S
H454 C446 0.930 . S
H455 C447 0.929 . S
H456 C464 0.929 . S
H457 C466 0.930 . S
H458 C468 0.930 . S
H459 C471 0.929 . S
H460 C474 0.930 . S
H461 C476 0.960 . S
H462 C476 0.960 . S
H463 C476 0.960 . S
C464 H456 0.929 . S
C464 C465 1.377 . S
C464 C466 1.384 . S
C465 C464 1.377 . S
C465 C471 1.390 . S
C466 H457 0.930 . S
C466 C464 1.384 . S
C466 C467 1.372 . S
C467 C466 1.372 . S
C467 C468 1.400 . S
C467 C472 1.490 . S
C468 H458 0.930 . S
C468 C467 1.400 . S
C468 C471 1.386 . S
H469 C485 0.930 . S
H470 C486 0.931 . S
C471 H459 0.929 . S
C471 C465 1.390 . S
C471 C468 1.386 . S
C472 C467 1.490 . S
C472 C474 1.395 . S
C472 C475 1.403 . S
H473 C479 0.930 . S
C474 H460 0.930 . S
C474 C472 1.395 . S
C474 C477 1.403 . S
C475 C472 1.403 . S
C475 C476 1.524 . S
C475 C479 1.400 . S
C476 H461 0.960 . S
C476 H462 0.960 . S
C476 H463 0.960 . S
C476 C475 1.524 . S
C477 C474 1.403 . S
C477 C478 1.392 . S
C477 C481 1.495 . S
C478 C477 1.392 . S
C478 C479 1.385 . S
C478 C480 1.478 . S
C479 H473 0.930 . S
C479 C475 1.400 . S
C479 C478 1.385 . S
C480 C478 1.478 . S
C480 C482 1.381 . S
C480 C486 1.383 . S
C481 C477 1.495 . S
C481 H487 0.959 . S
C481 H488 0.961 . S
C481 H489 0.960 . S
C482 C480 1.381 . S
C482 C483 1.394 . S
C482 H490 0.930 . S
C483 C482 1.394 . S
C483 C484 1.383 . S
C483 H491 0.929 . S
C484 C483 1.383 . S
C484 C485 1.377 . S
C485 H469 0.930 . S
C485 C484 1.377 . S
C485 C486 1.379 . S
C486 H470 0.931 . S
C486 C480 1.383 . S
C486 C485 1.379 . S
H487 C481 0.959 . S
H488 C481 0.961 . S
H489 C481 0.960 . S
H490 C482 0.930 . S
H491 C483 0.929 . S
H492 C500 0.929 . S
H493 C502 0.930 . S
H494 C504 0.930 . S
H495 C507 0.929 . S
H496 C510 0.930 . S
H497 C512 0.960 . S
H498 C512 0.960 . S
H499 C512 0.960 . S
C500 H492 0.929 . S
C500 C501 1.377 . S
C500 C502 1.384 . S
C501 C500 1.377 . S
C501 C507 1.390 . S
C502 H493 0.930 . S
C502 C500 1.384 . S
C502 C503 1.372 . S
C503 C502 1.372 . S
C503 C504 1.400 . S
C503 C508 1.490 . S
C504 H494 0.930 . S
C504 C503 1.400 . S
C504 C507 1.386 . S
H505 C521 0.930 . S
H506 C522 0.931 . S
C507 H495 0.929 . S
C507 C501 1.390 . S
C507 C504 1.386 . S
C508 C503 1.490 . S
C508 C510 1.395 . S
C508 C511 1.403 . S
H509 C515 0.930 . S
C510 H496 0.930 . S
C510 C508 1.395 . S
C510 C513 1.403 . S
C511 C508 1.403 . S
C511 C512 1.524 . S
C511 C515 1.400 . S
C512 H497 0.960 . S
C512 H498 0.960 . S
C512 H499 0.960 . S
C512 C511 1.524 . S
C513 C510 1.403 . S
C513 C514 1.392 . S
C513 C517 1.495 . S
C514 C513 1.392 . S
C514 C515 1.385 . S
C514 C516 1.478 . S
C515 H509 0.930 . S
C515 C511 1.400 . S
C515 C514 1.385 . S
C516 C514 1.478 . S
C516 C518 1.381 . S
C516 C522 1.383 . S
C517 C513 1.495 . S
C517 H523 0.959 . S
C517 H524 0.961 . S
C517 H525 0.960 . S
C518 C516 1.381 . S
C518 C519 1.394 . S
C518 H526 0.930 . S
C519 C518 1.394 . S
C519 C520 1.383 . S
C519 H527 0.929 . S
C520 C519 1.383 . S
C520 C521 1.377 . S
C521 H505 0.930 . S
C521 C520 1.377 . S
C521 C522 1.379 . S
C522 H506 0.931 . S
C522 C516 1.383 . S
C522 C521 1.379 . S
H523 C517 0.959 . S
H524 C517 0.961 . S
H525 C517 0.960 . S
H526 C518 0.930 . S
H527 C519 0.929 . S
H528 C536 0.929 . S
H529 C538 0.930 . S
H530 C540 0.930 . S
H531 C543 0.929 . S
H532 C546 0.930 . S
H533 C548 0.960 . S
H534 C548 0.960 . S
H535 C548 0.960 . S
C536 H528 0.929 . S
C536 C537 1.377 . S
C536 C538 1.384 . S
C537 C536 1.377 . S
C537 C543 1.390 . S
C538 H529 0.930 . S
C538 C536 1.384 . S
C538 C539 1.372 . S
C539 C538 1.372 . S
C539 C540 1.400 . S
C539 C544 1.490 . S
C540 H530 0.930 . S
C540 C539 1.400 . S
C540 C543 1.386 . S
H541 C557 0.930 . S
H542 C558 0.931 . S
C543 H531 0.929 . S
C543 C537 1.390 . S
C543 C540 1.386 . S
C544 C539 1.490 . S
C544 C546 1.395 . S
C544 C547 1.403 . S
H545 C551 0.930 . S
C546 H532 0.930 . S
C546 C544 1.395 . S
C546 C549 1.403 . S
C547 C544 1.403 . S
C547 C548 1.524 . S
C547 C551 1.400 . S
C548 H533 0.960 . S
C548 H534 0.960 . S
C548 H535 0.960 . S
C548 C547 1.524 . S
C549 C546 1.403 . S
C549 C550 1.392 . S
C549 C553 1.495 . S
C550 C549 1.392 . S
C550 C551 1.385 . S
C550 C552 1.478 . S
C551 H545 0.930 . S
C551 C547 1.400 . S
C551 C550 1.385 . S
C552 C550 1.478 . S
C552 C554 1.381 . S
C552 C558 1.383 . S
C553 C549 1.495 . S
C553 H559 0.959 . S
C553 H560 0.961 . S
C553 H561 0.960 . S
C554 C552 1.381 . S
C554 C555 1.394 . S
C554 H562 0.930 . S
C555 C554 1.394 . S
C555 C556 1.383 . S
C555 H563 0.929 . S
C556 C555 1.383 . S
C556 C557 1.377 . S
C557 H541 0.930 . S
C557 C556 1.377 . S
C557 C558 1.379 . S
C558 H542 0.931 . S
C558 C552 1.383 . S
C558 C557 1.379 . S
H559 C553 0.959 . S
H560 C553 0.961 . S
H561 C553 0.960 . S
H562 C554 0.930 . S
H563 C555 0.929 . S
H564 C572 0.929 . S
H565 C574 0.930 . S
H566 C576 0.930 . S
H567 C579 0.929 . S
H568 C582 0.930 . S
H569 C584 0.960 . S
H570 C584 0.960 . S
H571 C584 0.960 . S
C572 H564 0.929 . S
C572 C573 1.377 . S
C572 C574 1.384 . S
C573 C572 1.377 . S
C573 C579 1.390 . S
C574 H565 0.930 . S
C574 C572 1.384 . S
C574 C575 1.372 . S
C575 C574 1.372 . S
C575 C576 1.400 . S
C575 C580 1.490 . S
C576 H566 0.930 . S
C576 C575 1.400 . S
C576 C579 1.386 . S
H577 C593 0.930 . S
H578 C594 0.931 . S
C579 H567 0.929 . S
C579 C573 1.390 . S
C579 C576 1.386 . S
C580 C575 1.490 . S
C580 C582 1.395 . S
C580 C583 1.403 . S
H581 C587 0.930 . S
C582 H568 0.930 . S
C582 C580 1.395 . S
C582 C585 1.403 . S
C583 C580 1.403 . S
C583 C584 1.524 . S
C583 C587 1.400 . S
C584 H569 0.960 . S
C584 H570 0.960 . S
C584 H571 0.960 . S
C584 C583 1.524 . S
C585 C582 1.403 . S
C585 C586 1.392 . S
C585 C589 1.495 . S
C586 C585 1.392 . S
C586 C587 1.385 . S
C586 C588 1.478 . S
C587 H581 0.930 . S
C587 C583 1.400 . S
C587 C586 1.385 . S
C588 C586 1.478 . S
C588 C590 1.381 . S
C588 C594 1.383 . S
C589 C585 1.495 . S
C589 H595 0.959 . S
C589 H596 0.961 . S
C589 H597 0.960 . S
C590 C588 1.381 . S
C590 C591 1.394 . S
C590 H598 0.930 . S
C591 C590 1.394 . S
C591 C592 1.383 . S
C591 H599 0.929 . S
C592 C591 1.383 . S
C592 C593 1.377 . S
C593 H577 0.930 . S
C593 C592 1.377 . S
C593 C594 1.379 . S
C594 H578 0.931 . S
C594 C588 1.383 . S
C594 C593 1.379 . S
H595 C589 0.959 . S
H596 C589 0.961 . S
H597 C589 0.960 . S
H598 C590 0.930 . S
H599 C591 0.929 . S
H600 C608 0.929 . S
H601 C610 0.930 1_554 S
H602 C612 0.930 . S
H603 C615 0.929 . S
H604 C618 0.930 . S
H605 C620 0.960 1_545 S
H606 C620 0.960 . S
H607 C620 0.960 . S
C608 H600 0.929 . S
C608 C609 1.377 . S
C608 C610 1.384 . S
C609 C608 1.377 . S
C609 C615 1.390 . S
C610 H601 0.930 1_556 S
C610 C608 1.384 . S
C610 C611 1.372 . S
C611 C610 1.372 . S
C611 C612 1.400 . S
C611 C616 1.490 . S
C612 H602 0.930 . S
C612 C611 1.400 . S
C612 C615 1.386 . S
H613 C629 0.930 . S
H614 C630 0.932 . S
C615 H603 0.929 . S
C615 C609 1.390 . S
C615 C612 1.386 . S
C616 C611 1.490 . S
C616 C618 1.395 1_556 S
C616 C619 1.403 . S
H617 C623 0.930 . S
C618 H604 0.930 . S
C618 C616 1.395 1_554 S
C618 C621 1.403 1_565 S
C619 C616 1.403 . S
C619 C620 1.524 . S
C619 C623 1.400 1_565 S
C620 H605 0.960 1_565 S
C620 H606 0.960 . S
C620 H607 0.960 . S
C620 C619 1.524 . S
C621 C618 1.403 1_545 S
C621 C622 1.392 . S
C621 C625 1.495 . S
C622 C621 1.392 . S
C622 C623 1.385 1_554 S
C622 C624 1.478 . S
C623 H617 0.930 . S
C623 C619 1.400 1_545 S
C623 C622 1.385 1_556 S
C624 C622 1.478 . S
C624 C626 1.381 . S
C624 C630 1.383 . S
C625 C621 1.495 . S
C625 H631 0.959 1_545 S
C625 H632 0.961 . S
C625 H633 0.960 . S
C626 C624 1.381 . S
C626 C627 1.394 . S
C626 H634 0.930 . S
C627 C626 1.394 . S
C627 C628 1.383 . S
C627 H635 0.929 . S
C628 C627 1.383 . S
C628 C629 1.377 . S
C629 H613 0.930 . S
C629 C628 1.377 . S
C629 C630 1.379 . S
C630 H614 0.932 . S
C630 C624 1.383 . S
C630 C629 1.379 . S
H631 C625 0.959 1_565 S
H632 C625 0.961 . S
H633 C625 0.960 . S
H634 C626 0.930 . S
H635 C627 0.929 . S
H636 C644 0.929 . S
H637 C646 0.930 . S
H638 C648 0.930 . S
H639 C651 0.929 . S
H640 C654 0.930 . S
H641 C656 0.960 . S
H642 C656 0.960 . S
H643 C656 0.960 . S
C644 H636 0.929 . S
C644 C645 1.377 . S
C644 C646 1.384 . S
C645 C644 1.377 . S
C645 C651 1.390 . S
C646 H637 0.930 . S
C646 C644 1.384 . S
C646 C647 1.372 . S
C647 C646 1.372 . S
C647 C648 1.400 . S
C647 C652 1.490 . S
C648 H638 0.930 . S
C648 C647 1.400 . S
C648 C651 1.386 . S
H649 C665 0.930 . S
H650 C666 0.931 . S
C651 H639 0.929 . S
C651 C645 1.390 . S
C651 C648 1.386 . S
C652 C647 1.490 . S
C652 C654 1.395 . S
C652 C655 1.403 . S
H653 C659 0.930 . S
C654 H640 0.930 . S
C654 C652 1.395 . S
C654 C657 1.403 . S
C655 C652 1.403 . S
C655 C656 1.524 . S
C655 C659 1.400 . S
C656 H641 0.960 . S
C656 H642 0.960 . S
C656 H643 0.960 . S
C656 C655 1.524 . S
C657 C654 1.403 . S
C657 C658 1.392 . S
C657 C661 1.495 . S
C658 C657 1.392 . S
C658 C659 1.385 . S
C658 C660 1.478 . S
C659 H653 0.930 . S
C659 C655 1.400 . S
C659 C658 1.385 . S
C660 C658 1.478 . S
C660 C662 1.381 . S
C660 C666 1.383 . S
C661 C657 1.495 . S
C661 H667 0.959 . S
C661 H668 0.961 . S
C661 H669 0.960 . S
C662 C660 1.381 . S
C662 C663 1.394 . S
C662 H670 0.930 . S
C663 C662 1.394 . S
C663 C664 1.383 . S
C663 H671 0.929 . S
C664 C663 1.383 . S
C664 C665 1.377 . S
C665 H649 0.930 . S
C665 C664 1.377 . S
C665 C666 1.379 . S
C666 H650 0.931 . S
C666 C660 1.383 . S
C666 C665 1.379 . S
H667 C661 0.959 . S
H668 C661 0.961 . S
H669 C661 0.960 . S
H670 C662 0.930 . S
H671 C663 0.929 . S
H672 C680 0.929 . S
H673 C682 0.930 . S
H674 C684 0.930 . S
H675 C687 0.929 . S
H676 C690 0.930 . S
H677 C692 0.960 1_455 S
H678 C692 0.960 . S
H679 C692 0.960 . S
C680 H672 0.929 . S
C680 C681 1.377 . S
C680 C682 1.384 . S
C681 C680 1.377 . S
C681 C687 1.390 . S
C682 H673 0.930 . S
C682 C680 1.384 . S
C682 C683 1.372 . S
C683 C682 1.372 . S
C683 C684 1.400 . S
C683 C688 1.490 . S
C684 H674 0.930 . S
C684 C683 1.400 . S
C684 C687 1.386 . S
H685 C701 0.930 . S
H686 C702 0.931 . S
C687 H675 0.929 . S
C687 C681 1.390 . S
C687 C684 1.386 . S
C688 C683 1.490 . S
C688 C690 1.395 . S
C688 C691 1.403 . S
H689 C695 0.930 . S
C690 H676 0.930 . S
C690 C688 1.395 . S
C690 C693 1.391 1_655 S
C691 C688 1.403 . S
C691 C692 1.524 . S
C691 C695 1.400 1_655 S
C692 H677 0.960 1_655 S
C692 H678 0.960 . S
C692 H679 0.960 . S
C692 C691 1.524 . S
C693 C690 1.391 1_455 S
C693 C694 1.404 . S
C693 C697 1.495 . S
C694 C693 1.404 . S
C694 C695 1.385 . S
C694 C696 1.478 . S
C695 H689 0.930 . S
C695 C691 1.400 1_455 S
C695 C694 1.385 . S
C696 C694 1.478 . S
C696 C698 1.381 . S
C696 C702 1.383 . S
C697 C693 1.495 . S
C697 H703 0.959 1_455 S
C697 H704 0.961 . S
C697 H705 0.960 . S
C698 C696 1.381 . S
C698 C699 1.394 . S
C698 H706 0.930 . S
C699 C698 1.394 . S
C699 C700 1.383 . S
C699 H707 0.929 . S
C700 C699 1.383 . S
C700 C701 1.377 . S
C701 H685 0.930 . S
C701 C700 1.377 . S
C701 C702 1.379 . S
C702 H686 0.931 . S
C702 C696 1.383 . S
C702 C701 1.379 . S
H703 C697 0.959 1_655 S
H704 C697 0.961 . S
H705 C697 0.960 . S
H706 C698 0.930 . S
H707 C699 0.929 . S
H708 C716 0.929 . S
H709 C718 0.930 1_556 S
H710 C720 0.930 . S
H711 C723 0.929 . S
H712 C726 0.930 . S
H713 C728 0.960 1_545 S
H714 C728 0.960 . S
H715 C728 0.960 . S
C716 H708 0.929 . S
C716 C717 1.377 . S
C716 C718 1.384 . S
C717 C716 1.377 . S
C717 C723 1.390 . S
C718 H709 0.930 1_554 S
C718 C716 1.384 . S
C718 C719 1.372 . S
C719 C718 1.372 . S
C719 C720 1.400 . S
C719 C724 1.490 . S
C720 H710 0.930 . S
C720 C719 1.400 . S
C720 C723 1.386 . S
H721 C737 0.930 . S
H722 C738 0.931 1_554 S
C723 H711 0.929 . S
C723 C717 1.390 . S
C723 C720 1.386 . S
C724 C719 1.490 . S
C724 C726 1.395 1_554 S
C724 C727 1.403 . S
H725 C731 0.930 . S
C726 H712 0.930 . S
C726 C724 1.395 1_556 S
C726 C729 1.403 1_565 S
C727 C724 1.403 . S
C727 C728 1.524 . S
C727 C731 1.400 1_565 S
C728 H713 0.960 1_565 S
C728 H714 0.960 . S
C728 H715 0.960 . S
C728 C727 1.524 . S
C729 C726 1.403 1_545 S
C729 C730 1.392 . S
C729 C733 1.495 . S
C730 C729 1.392 . S
C730 C731 1.385 1_556 S
C730 C732 1.478 . S
C731 H725 0.930 . S
C731 C727 1.400 1_545 S
C731 C730 1.385 1_554 S
C732 C730 1.478 . S
C732 C734 1.381 . S
C732 C738 1.383 . S
C733 C729 1.495 . S
C733 H739 0.959 1_545 S
C733 H740 0.961 . S
C733 H741 0.960 . S
C734 C732 1.381 . S
C734 C735 1.394 . S
C734 H742 0.930 . S
C735 C734 1.394 . S
C735 C736 1.383 . S
C735 H743 0.929 . S
C736 C735 1.383 . S
C736 C737 1.377 . S
C737 H721 0.930 . S
C737 C736 1.377 . S
C737 C738 1.379 . S
C738 H722 0.931 1_556 S
C738 C732 1.383 . S
C738 C737 1.379 . S
H739 C733 0.959 1_565 S
H740 C733 0.961 . S
H741 C733 0.960 . S
H742 C734 0.930 . S
H743 C735 0.929 . S
H744 C752 0.929 . S
H745 C754 0.930 . S
H746 C756 0.930 . S
H747 C759 0.929 . S
H748 C762 0.930 . S
H749 C764 0.960 . S
H750 C764 0.960 . S
H751 C764 0.960 . S
C752 H744 0.929 . S
C752 C753 1.377 . S
C752 C754 1.384 . S
C753 C752 1.377 . S
C753 C759 1.390 . S
C754 H745 0.930 . S
C754 C752 1.384 . S
C754 C755 1.372 . S
C755 C754 1.372 . S
C755 C756 1.400 . S
C755 C760 1.490 . S
C756 H746 0.930 . S
C756 C755 1.400 . S
C756 C759 1.386 . S
H757 C773 0.930 . S
H758 C774 0.931 . S
C759 H747 0.929 . S
C759 C753 1.390 . S
C759 C756 1.386 . S
C760 C755 1.490 . S
C760 C762 1.395 . S
C760 C763 1.403 . S
H761 C767 0.930 . S
C762 H748 0.930 . S
C762 C760 1.395 . S
C762 C765 1.403 . S
C763 C760 1.403 . S
C763 C764 1.524 . S
C763 C767 1.400 . S
C764 H749 0.960 . S
C764 H750 0.960 . S
C764 H751 0.960 . S
C764 C763 1.524 . S
C765 C762 1.403 . S
C765 C766 1.392 . S
C765 C769 1.495 . S
C766 C765 1.392 . S
C766 C767 1.385 . S
C766 C768 1.478 . S
C767 H761 0.930 . S
C767 C763 1.400 . S
C767 C766 1.385 . S
C768 C766 1.478 . S
C768 C770 1.381 . S
C768 C774 1.383 . S
C769 C765 1.495 . S
C769 H775 0.959 . S
C769 H776 0.961 . S
C769 H777 0.960 . S
C770 C768 1.381 . S
C770 C771 1.394 . S
C770 H778 0.930 . S
C771 C770 1.394 . S
C771 C772 1.383 . S
C771 H779 0.929 . S
C772 C771 1.383 . S
C772 C773 1.377 . S
C773 H757 0.930 . S
C773 C772 1.377 . S
C773 C774 1.379 . S
C774 H758 0.931 . S
C774 C768 1.383 . S
C774 C773 1.379 . S
H775 C769 0.959 . S
H776 C769 0.961 . S
H777 C769 0.960 . S
H778 C770 0.930 . S
H779 C771 0.929 . S
H780 C788 0.929 . S
H781 C790 0.930 . S
H782 C792 0.930 . S
H783 C795 0.929 . S
H784 C798 0.930 . S
H785 C800 0.960 1_655 S
H786 C800 0.960 . S
H787 C800 0.960 . S
C788 H780 0.929 . S
C788 C789 1.377 . S
C788 C790 1.384 . S
C789 C788 1.377 . S
C789 C795 1.390 . S
C790 H781 0.930 . S
C790 C788 1.384 . S
C790 C791 1.372 . S
C791 C790 1.372 . S
C791 C792 1.400 . S
C791 C796 1.490 . S
C792 H782 0.930 . S
C792 C791 1.400 . S
C792 C795 1.386 . S
H793 C809 0.930 . S
H794 C810 0.931 . S
C795 H783 0.929 . S
C795 C789 1.390 . S
C795 C792 1.386 . S
C796 C791 1.490 . S
C796 C798 1.395 . S
C796 C799 1.403 . S
H797 C803 0.930 . S
C798 H784 0.930 . S
C798 C796 1.395 . S
C798 C801 1.403 1_455 S
C799 C796 1.403 . S
C799 C800 1.524 . S
C799 C803 1.400 1_455 S
C800 H785 0.960 1_455 S
C800 H786 0.960 . S
C800 H787 0.960 . S
C800 C799 1.524 . S
C801 C798 1.403 1_655 S
C801 C802 1.392 . S
C801 C805 1.495 . S
C802 C801 1.392 . S
C802 C803 1.385 . S
C802 C804 1.478 . S
C803 H797 0.930 . S
C803 C799 1.400 1_655 S
C803 C802 1.385 . S
C804 C802 1.478 . S
C804 C806 1.381 . S
C804 C810 1.383 . S
C805 C801 1.495 . S
C805 H811 0.959 1_655 S
C805 H812 0.961 . S
C805 H813 0.960 . S
C806 C804 1.381 . S
C806 C807 1.394 . S
C806 H814 0.930 . S
C807 C806 1.394 . S
C807 C808 1.383 . S
C807 H815 0.929 . S
C808 C807 1.383 . S
C808 C809 1.377 . S
C809 H793 0.930 . S
C809 C808 1.377 . S
C809 C810 1.379 . S
C810 H794 0.931 . S
C810 C804 1.383 . S
C810 C809 1.379 . S
H811 C805 0.959 1_455 S
H812 C805 0.961 . S
H813 C805 0.960 . S
H814 C806 0.930 . S
H815 C807 0.929 . S
H816 C824 0.929 1_655 S
H817 C826 0.930 1_554 S
H818 C828 0.930 . S
H819 C831 0.929 . S
H820 C834 0.930 . S
H821 C836 0.960 . S
H822 C836 0.960 . S
H823 C836 0.960 . S
C824 H816 0.929 1_455 S
C824 C825 1.377 . S
C824 C826 1.384 . S
C825 C824 1.377 . S
C825 C831 1.386 . S
C826 H817 0.930 1_556 S
C826 C824 1.384 . S
C826 C827 1.372 . S
C827 C826 1.372 . S
C827 C828 1.400 . S
C827 C832 1.490 . S
C828 H818 0.930 . S
C828 C827 1.400 . S
C828 C831 1.386 . S
H829 C845 0.930 . S
H830 C846 0.931 1_556 S
C831 H819 0.929 . S
C831 C825 1.386 . S
C831 C828 1.386 . S
C832 C827 1.490 . S
C832 C834 1.395 1_556 S
C832 C835 1.403 . S
H833 C839 0.930 . S
C834 H820 0.930 . S
C834 C832 1.395 1_554 S
C834 C837 1.403 . S
C835 C832 1.403 . S
C835 C836 1.524 . S
C835 C839 1.400 . S
C836 H821 0.960 . S
C836 H822 0.960 . S
C836 H823 0.960 . S
C836 C835 1.524 . S
C837 C834 1.403 . S
C837 C838 1.392 . S
C837 C841 1.495 . S
C838 C837 1.392 . S
C838 C839 1.385 1_554 S
C838 C840 1.478 . S
C839 H833 0.930 . S
C839 C835 1.400 . S
C839 C838 1.385 1_556 S
C840 C838 1.478 . S
C840 C842 1.381 . S
C840 C846 1.383 . S
C841 C837 1.495 . S
C841 H847 0.959 . S
C841 H848 0.961 . S
C841 H849 0.960 . S
C842 C840 1.381 . S
C842 C843 1.394 . S
C842 H850 0.930 . S
C843 C842 1.394 . S
C843 C844 1.383 . S
C843 H851 0.929 . S
C844 C843 1.383 . S
C844 C845 1.377 . S
C845 H829 0.930 . S
C845 C844 1.377 . S
C845 C846 1.379 . S
C846 H830 0.931 1_554 S
C846 C840 1.383 . S
C846 C845 1.379 . S
H847 C841 0.959 . S
H848 C841 0.961 . S
H849 C841 0.960 . S
H850 C842 0.930 . S
H851 C843 0.929 . S
H852 C860 0.929 1_565 S
H853 C862 0.930 . S
H854 C864 0.930 . S
H855 C867 0.929 . S
H856 C870 0.930 . S
H857 C872 0.960 . S
H858 C872 0.960 . S
H859 C872 0.960 . S
C860 H852 0.929 1_545 S
C860 C861 1.377 . S
C860 C862 1.384 . S
C861 C860 1.377 . S
C861 C867 1.389 . S
C862 H853 0.930 . S
C862 C860 1.384 . S
C862 C863 1.372 . S
C863 C862 1.372 . S
C863 C864 1.400 . S
C863 C868 1.490 . S
C864 H854 0.930 . S
C864 C863 1.400 . S
C864 C867 1.386 . S
H865 C881 0.939 . S
H866 C882 0.931 . S
C867 H855 0.929 . S
C867 C861 1.389 . S
C867 C864 1.386 . S
C868 C863 1.490 . S
C868 C870 1.395 . S
C868 C871 1.403 . S
H869 C875 0.930 . S
C870 H856 0.930 . S
C870 C868 1.395 . S
C870 C873 1.403 . S
C871 C868 1.403 . S
C871 C872 1.524 . S
C871 C875 1.400 . S
C872 H857 0.960 . S
C872 H858 0.960 . S
C872 H859 0.960 . S
C872 C871 1.524 . S
C873 C870 1.403 . S
C873 C874 1.392 . S
C873 C877 1.495 . S
C874 C873 1.392 . S
C874 C875 1.385 . S
C874 C876 1.478 . S
C875 H869 0.930 . S
C875 C871 1.400 . S
C875 C874 1.385 . S
C876 C874 1.478 . S
C876 C878 1.381 . S
C876 C882 1.383 . S
C877 C873 1.495 . S
C877 H883 0.959 . S
C877 H884 0.961 . S
C877 H885 0.960 . S
C878 C876 1.381 . S
C878 C879 1.394 . S
C878 H886 0.930 . S
C879 C878 1.394 . S
C879 C880 1.366 1_655 S
C879 H887 0.929 . S
C880 C879 1.366 1_455 S
C880 C881 1.379 . S
C881 H865 0.939 . S
C881 C880 1.379 . S
C881 C882 1.373 1_455 S
C882 H866 0.931 . S
C882 C876 1.383 . S
C882 C881 1.373 1_655 S
H883 C877 0.959 . S
H884 C877 0.961 . S
H885 C877 0.960 . S
H886 C878 0.930 . S
H887 C879 0.929 . S
H888 C896 0.929 . S
H889 C898 0.930 . S
H890 C900 0.930 . S
H891 C903 0.929 . S
H892 C906 0.930 . S
H893 C908 0.960 . S
H894 C908 0.960 . S
H895 C908 0.960 . S
C896 H888 0.929 . S
C896 C897 1.377 . S
C896 C898 1.384 . S
C897 C896 1.377 . S
C897 C903 1.390 . S
C898 H889 0.930 . S
C898 C896 1.384 . S
C898 C899 1.372 . S
C899 C898 1.372 . S
C899 C900 1.400 . S
C899 C904 1.490 . S
C900 H890 0.930 . S
C900 C899 1.400 . S
C900 C903 1.386 . S
H901 C917 0.930 . S
H902 C918 0.931 . S
C903 H891 0.929 . S
C903 C897 1.390 . S
C903 C900 1.386 . S
C904 C899 1.490 . S
C904 C906 1.395 . S
C904 C907 1.403 . S
H905 C911 0.930 . S
C906 H892 0.930 . S
C906 C904 1.395 . S
C906 C909 1.403 . S
C907 C904 1.403 . S
C907 C908 1.524 . S
C907 C911 1.400 . S
C908 H893 0.960 . S
C908 H894 0.960 . S
C908 H895 0.960 . S
C908 C907 1.524 . S
C909 C906 1.403 . S
C909 C910 1.392 . S
C909 C913 1.495 . S
C910 C909 1.392 . S
C910 C911 1.385 . S
C910 C912 1.478 . S
C911 H905 0.930 . S
C911 C907 1.400 . S
C911 C910 1.385 . S
C912 C910 1.478 . S
C912 C914 1.381 . S
C912 C918 1.383 . S
C913 C909 1.495 . S
C913 H919 0.959 . S
C913 H920 0.961 . S
C913 H921 0.960 . S
C914 C912 1.381 . S
C914 C915 1.394 . S
C914 H922 0.930 . S
C915 C914 1.394 . S
C915 C916 1.383 . S
C915 H923 0.929 . S
C916 C915 1.383 . S
C916 C917 1.377 . S
C917 H901 0.930 . S
C917 C916 1.377 . S
C917 C918 1.379 . S
C918 H902 0.931 . S
C918 C912 1.383 . S
C918 C917 1.379 . S
H919 C913 0.959 . S
H920 C913 0.961 . S
H921 C913 0.960 . S
H922 C914 0.930 . S
H923 C915 0.929 . S
H924 C932 0.929 . S
H925 C934 0.930 . S
H926 C936 0.930 . S
H927 C939 0.929 . S
H928 C942 0.930 . S
H929 C944 0.960 . S
H930 C944 0.960 . S
H931 C944 0.960 . S
C932 H924 0.929 . S
C932 C933 1.377 . S
C932 C934 1.384 . S
C933 C932 1.377 . S
C933 C939 1.390 . S
C934 H925 0.930 . S
C934 C932 1.384 . S
C934 C935 1.372 . S
C935 C934 1.372 . S
C935 C936 1.400 . S
C935 C940 1.490 . S
C936 H926 0.930 . S
C936 C935 1.400 . S
C936 C939 1.386 . S
H937 C953 0.930 . S
H938 C954 0.931 . S
C939 H927 0.929 . S
C939 C933 1.390 . S
C939 C936 1.386 . S
C940 C935 1.490 . S
C940 C942 1.395 . S
C940 C943 1.403 1_554 S
H941 C947 0.930 . S
C942 H928 0.930 . S
C942 C940 1.395 . S
C942 C945 1.403 . S
C943 C940 1.403 1_556 S
C943 C944 1.524 . S
C943 C947 1.400 . S
C944 H929 0.960 . S
C944 H930 0.960 . S
C944 H931 0.960 . S
C944 C943 1.524 . S
C945 C942 1.403 . S
C945 C946 1.392 1_554 S
C945 C949 1.495 . S
C946 C945 1.392 1_556 S
C946 C947 1.385 . S
C946 C948 1.478 . S
C947 H941 0.930 . S
C947 C943 1.400 . S
C947 C946 1.385 . S
C948 C946 1.478 . S
C948 C950 1.381 . S
C948 C954 1.383 . S
C949 C945 1.495 . S
C949 H955 0.959 . S
C949 H956 0.961 . S
C949 H957 0.960 . S
C950 C948 1.381 . S
C950 C951 1.394 1_655 S
C950 H958 0.930 . S
C951 C950 1.394 1_455 S
C951 C952 1.383 . S
C951 H959 0.929 . S
C952 C951 1.383 . S
C952 C953 1.377 1_455 S
C953 H937 0.930 . S
C953 C952 1.377 1_655 S
C953 C954 1.379 . S
C954 H938 0.931 . S
C954 C948 1.383 . S
C954 C953 1.379 . S
H955 C949 0.959 . S
H956 C949 0.961 . S
H957 C949 0.960 . S
H958 C950 0.930 . S
H959 C951 0.929 . S
H960 C968 0.929 . S
H961 C970 0.930 . S
H962 C972 0.930 . S
H963 C975 0.929 . S
H964 C978 0.930 . S
H965 C980 0.960 . S
H966 C980 0.960 . S
H967 C980 0.960 . S
C968 H960 0.929 . S
C968 C969 1.379 1_455 S
C968 C970 1.384 . S
C969 C968 1.379 1_655 S
C969 C975 1.382 1_655 S
C970 H961 0.930 . S
C970 C968 1.384 . S
C970 C971 1.372 . S
C971 C970 1.372 . S
C971 C972 1.400 . S
C971 C976 1.490 . S
C972 H962 0.930 . S
C972 C971 1.400 . S
C972 C975 1.386 . S
H973 C989 0.930 . S
H974 C990 0.931 . S
C975 H963 0.929 . S
C975 C969 1.382 1_455 S
C975 C972 1.386 . S
C976 C971 1.490 . S
C976 C978 1.395 . S
C976 C979 1.403 . S
H977 C983 0.930 . S
C978 H964 0.930 . S
C978 C976 1.395 . S
C978 C981 1.403 . S
C979 C976 1.403 . S
C979 C980 1.524 . S
C979 C983 1.400 . S
C980 H965 0.960 . S
C980 H966 0.960 . S
C980 H967 0.960 . S
C980 C979 1.524 . S
C981 C978 1.403 . S
C981 C982 1.392 . S
C981 C985 1.495 . S
C982 C981 1.392 . S
C982 C983 1.385 . S
C982 C984 1.478 . S
C983 H977 0.930 . S
C983 C979 1.400 . S
C983 C982 1.385 . S
C984 C982 1.478 . S
C984 C986 1.381 . S
C984 C990 1.383 . S
C985 C981 1.495 . S
C985 H991 0.959 . S
C985 H992 0.961 . S
C985 H993 0.960 . S
C986 C984 1.381 . S
C986 C987 1.394 1_565 S
C986 H994 0.930 . S
C987 C986 1.394 1_545 S
C987 C988 1.389 . S
C987 H995 0.929 . S
C988 C987 1.389 . S
C988 C989 1.364 1_545 S
C989 H973 0.930 . S
C989 C988 1.364 1_565 S
C989 C990 1.379 . S
C990 H974 0.931 . S
C990 C984 1.383 . S
C990 C989 1.379 . S
H991 C985 0.959 . S
H992 C985 0.961 . S
H993 C985 0.960 . S
H994 C986 0.930 . S
H995 C987 0.929 . S
H996 C1004 0.929 . S
H997 C1006 0.930 . S
H998 C1008 0.930 . S
H999 C1011 0.929 1_565 S
H1000 C1014 0.930 . S
H1001 C1016 0.960 . S
H1002 C1016 0.960 . S
H1003 C1016 0.960 . S
C1004 H996 0.929 . S
C1004 C1005 1.370 1_545 S
C1004 C1006 1.384 . S
C1005 C1004 1.370 1_565 S
C1005 C1011 1.388 1_565 S
C1006 H997 0.930 . S
C1006 C1004 1.384 . S
C1006 C1007 1.372 . S
C1007 C1006 1.372 . S
C1007 C1008 1.400 . S
C1007 C1012 1.490 . S
C1008 H998 0.930 . S
C1008 C1007 1.400 . S
C1008 C1011 1.386 . S
H1009 C1025 0.930 . S
H1010 C1026 0.931 . S
C1011 H999 0.929 1_545 S
C1011 C1005 1.388 1_545 S
C1011 C1008 1.386 . S
C1012 C1007 1.490 . S
C1012 C1014 1.395 . S
C1012 C1015 1.403 . S
H1013 C1019 0.930 . S
C1014 H1000 0.930 . S
C1014 C1012 1.395 . S
C1014 C1017 1.403 . S
C1015 C1012 1.403 . S
C1015 C1016 1.524 . S
C1015 C1019 1.400 . S
C1016 H1001 0.960 . S
C1016 H1002 0.960 . S
C1016 H1003 0.960 . S
C1016 C1015 1.524 . S
C1017 C1014 1.403 . S
C1017 C1018 1.392 . S
C1017 C1021 1.495 . S
C1018 C1017 1.392 . S
C1018 C1019 1.385 . S
C1018 C1020 1.478 . S
C1019 H1013 0.930 . S
C1019 C1015 1.400 . S
C1019 C1018 1.385 . S
C1020 C1018 1.478 . S
C1020 C1022 1.381 . S
C1020 C1026 1.383 . S
C1021 C1017 1.495 . S
C1021 H1027 0.959 . S
C1021 H1028 0.961 . S
C1021 H1029 0.960 . S
C1022 C1020 1.381 . S
C1022 C1023 1.394 . S
C1022 H1030 0.930 . S
C1023 C1022 1.394 . S
C1023 C1024 1.383 . S
C1023 H1031 0.929 . S
C1024 C1023 1.383 . S
C1024 C1025 1.377 . S
C1025 H1009 0.930 . S
C1025 C1024 1.377 . S
C1025 C1026 1.379 . S
C1026 H1010 0.931 . S
C1026 C1020 1.383 . S
C1026 C1025 1.379 . S
H1027 C1021 0.959 . S
H1028 C1021 0.961 . S
H1029 C1021 0.960 . S
H1030 C1022 0.930 . S
H1031 C1023 0.929 . S
C177 C49 1.232 . S
C196 C7 1.216 . S
C213 C21 1.235 . S
C232 C63 1.219 . S
C249 C77 1.233 . S
C268 C35 1.231 . S
C285 C91 1.234 . S
C304 C133 1.229 . S
C321 C147 1.233 . S
C340 C105 1.242 . S
C357 C119 1.229 . S
C376 C161 1.228 . S
C393 C118 1.608 . S
C412 C6 1.592 . S
C429 C20 1.610 . S
C448 C132 1.611 . S
C465 C34 1.608 . S
C484 C146 1.620 . S
C501 C48 1.601 . S
C520 C160 1.608 . S
C537 C90 1.610 . S
C556 C62 1.605 . S
C573 C104 1.601 . S
C592 C76 1.589 . S
C609 C106 1.623 . S
C628 C8 1.615 . S
C645 C22 1.626 . S
C664 C120 1.621 . S
C681 C36 1.620 . S
C700 C134 1.605 . S
C717 C50 1.624 . S
C736 C148 1.625 . S
C753 C162 1.621 . S
C772 C64 1.605 . S
C789 C78 1.620 . S
C808 C92 1.599 . S
C825 C149 1.464 1_455 S
C844 C9 1.467 . S
C861 C163 1.461 1_545 S
C880 C23 1.478 . S
C897 C93 1.464 . S
C916 C37 1.456 1_565 S
C933 C51 1.462 . S
C952 C107 1.453 . S
C969 C65 1.468 . S
C988 C121 1.456 . S
C1005 C79 1.473 . S
C1024 C135 1.450 . S
