# Generated by pormake.
# Topology cbo, (4)-cn, num edge types: 1
# Building blocks:
#     Node 0, Type 0, BuildingBlock: QUQFOY_clean_sbu_3, # of connection points: 4
#     Node 1, Type 0, BuildingBlock: QUQFOY_clean_sbu_3, # of connection points: 4
#     Node 2, Type 0, BuildingBlock: QUQFOY_clean_sbu_3, # of connection points: 4
#     Node 3, Type 0, BuildingBlock: QUQFOY_clean_sbu_3, # of connection points: 4
#     Node 4, Type 0, BuildingBlock: QUQFOY_clean_sbu_3, # of connection points: 4
#     Node 5, Type 0, BuildingBlock: QUQFOY_clean_sbu_3, # of connection points: 4
#     Node 6, Type 0, BuildingBlock: QUQFOY_clean_sbu_3, # of connection points: 4
#     Node 7, Type 0, BuildingBlock: QUQFOY_clean_sbu_3, # of connection points: 4
#     Node 8, Type 0, BuildingBlock: QUQFOY_clean_sbu_3, # of connection points: 4
#     Node 9, Type 0, BuildingBlock: QUQFOY_clean_sbu_3, # of connection points: 4
#     Node 10, Type 0, BuildingBlock: QUQFOY_clean_sbu_3, # of connection points: 4
#     Node 11, Type 0, BuildingBlock: QUQFOY_clean_sbu_3, # of connection points: 4
#     Node 12, Type 0, BuildingBlock: QUQFOY_clean_sbu_3, # of connection points: 4
#     Node 13, Type 0, BuildingBlock: QUQFOY_clean_sbu_3, # of connection points: 4
#     Node 14, Type 0, BuildingBlock: QUQFOY_clean_sbu_3, # of connection points: 4
#     Node 15, Type 0, BuildingBlock: QUQFOY_clean_sbu_3, # of connection points: 4
#     Node 16, Type 0, BuildingBlock: QUQFOY_clean_sbu_3, # of connection points: 4
#     Node 17, Type 0, BuildingBlock: QUQFOY_clean_sbu_3, # of connection points: 4
#     Node 18, Type 0, BuildingBlock: QUQFOY_clean_sbu_3, # of connection points: 4
#     Node 19, Type 0, BuildingBlock: QUQFOY_clean_sbu_3, # of connection points: 4
#     Node 20, Type 0, BuildingBlock: QUQFOY_clean_sbu_3, # of connection points: 4
#     Node 21, Type 0, BuildingBlock: QUQFOY_clean_sbu_3, # of connection points: 4
#     Node 22, Type 0, BuildingBlock: QUQFOY_clean_sbu_3, # of connection points: 4
#     Node 23, Type 0, BuildingBlock: QUQFOY_clean_sbu_3, # of connection points: 4
#     Edge 24, Type (0, 0), BuildingBlock: MIFKUJ_clean_linker_0, # of connection points: 2
#     Edge 25, Type (0, 0), BuildingBlock: MIFKUJ_clean_linker_0, # of connection points: 2
#     Edge 26, Type (0, 0), BuildingBlock: MIFKUJ_clean_linker_0, # of connection points: 2
#     Edge 27, Type (0, 0), BuildingBlock: MIFKUJ_clean_linker_0, # of connection points: 2
#     Edge 28, Type (0, 0), BuildingBlock: MIFKUJ_clean_linker_0, # of connection points: 2
#     Edge 29, Type (0, 0), BuildingBlock: MIFKUJ_clean_linker_0, # of connection points: 2
#     Edge 30, Type (0, 0), BuildingBlock: MIFKUJ_clean_linker_0, # of connection points: 2
#     Edge 31, Type (0, 0), BuildingBlock: MIFKUJ_clean_linker_0, # of connection points: 2
#     Edge 32, Type (0, 0), BuildingBlock: MIFKUJ_clean_linker_0, # of connection points: 2
#     Edge 33, Type (0, 0), BuildingBlock: MIFKUJ_clean_linker_0, # of connection points: 2
#     Edge 34, Type (0, 0), BuildingBlock: MIFKUJ_clean_linker_0, # of connection points: 2
#     Edge 35, Type (0, 0), BuildingBlock: MIFKUJ_clean_linker_0, # of connection points: 2
#     Edge 36, Type (0, 0), BuildingBlock: MIFKUJ_clean_linker_0, # of connection points: 2
#     Edge 37, Type (0, 0), BuildingBlock: MIFKUJ_clean_linker_0, # of connection points: 2
#     Edge 38, Type (0, 0), BuildingBlock: MIFKUJ_clean_linker_0, # of connection points: 2
#     Edge 39, Type (0, 0), BuildingBlock: MIFKUJ_clean_linker_0, # of connection points: 2
#     Edge 40, Type (0, 0), BuildingBlock: MIFKUJ_clean_linker_0, # of connection points: 2
#     Edge 41, Type (0, 0), BuildingBlock: MIFKUJ_clean_linker_0, # of connection points: 2
#     Edge 42, Type (0, 0), BuildingBlock: MIFKUJ_clean_linker_0, # of connection points: 2
#     Edge 43, Type (0, 0), BuildingBlock: MIFKUJ_clean_linker_0, # of connection points: 2
#     Edge 44, Type (0, 0), BuildingBlock: MIFKUJ_clean_linker_0, # of connection points: 2
#     Edge 45, Type (0, 0), BuildingBlock: MIFKUJ_clean_linker_0, # of connection points: 2
#     Edge 46, Type (0, 0), BuildingBlock: MIFKUJ_clean_linker_0, # of connection points: 2
#     Edge 47, Type (0, 0), BuildingBlock: MIFKUJ_clean_linker_0, # of connection points: 2
#     Edge 48, Type (0, 0), BuildingBlock: MIFKUJ_clean_linker_0, # of connection points: 2
#     Edge 49, Type (0, 0), BuildingBlock: MIFKUJ_clean_linker_0, # of connection points: 2
#     Edge 50, Type (0, 0), BuildingBlock: MIFKUJ_clean_linker_0, # of connection points: 2
#     Edge 51, Type (0, 0), BuildingBlock: MIFKUJ_clean_linker_0, # of connection points: 2
#     Edge 52, Type (0, 0), BuildingBlock: MIFKUJ_clean_linker_0, # of connection points: 2
#     Edge 53, Type (0, 0), BuildingBlock: MIFKUJ_clean_linker_0, # of connection points: 2
#     Edge 54, Type (0, 0), BuildingBlock: MIFKUJ_clean_linker_0, # of connection points: 2
#     Edge 55, Type (0, 0), BuildingBlock: MIFKUJ_clean_linker_0, # of connection points: 2
#     Edge 56, Type (0, 0), BuildingBlock: MIFKUJ_clean_linker_0, # of connection points: 2
#     Edge 57, Type (0, 0), BuildingBlock: MIFKUJ_clean_linker_0, # of connection points: 2
#     Edge 58, Type (0, 0), BuildingBlock: MIFKUJ_clean_linker_0, # of connection points: 2
#     Edge 59, Type (0, 0), BuildingBlock: MIFKUJ_clean_linker_0, # of connection points: 2
#     Edge 60, Type (0, 0), BuildingBlock: MIFKUJ_clean_linker_0, # of connection points: 2
#     Edge 61, Type (0, 0), BuildingBlock: MIFKUJ_clean_linker_0, # of connection points: 2
#     Edge 62, Type (0, 0), BuildingBlock: MIFKUJ_clean_linker_0, # of connection points: 2
#     Edge 63, Type (0, 0), BuildingBlock: MIFKUJ_clean_linker_0, # of connection points: 2
#     Edge 64, Type (0, 0), BuildingBlock: MIFKUJ_clean_linker_0, # of connection points: 2
#     Edge 65, Type (0, 0), BuildingBlock: MIFKUJ_clean_linker_0, # of connection points: 2
#     Edge 66, Type (0, 0), BuildingBlock: MIFKUJ_clean_linker_0, # of connection points: 2
#     Edge 67, Type (0, 0), BuildingBlock: MIFKUJ_clean_linker_0, # of connection points: 2
#     Edge 68, Type (0, 0), BuildingBlock: MIFKUJ_clean_linker_0, # of connection points: 2
#     Edge 69, Type (0, 0), BuildingBlock: MIFKUJ_clean_linker_0, # of connection points: 2
#     Edge 70, Type (0, 0), BuildingBlock: MIFKUJ_clean_linker_0, # of connection points: 2
#     Edge 71, Type (0, 0), BuildingBlock: MIFKUJ_clean_linker_0, # of connection points: 2
# Relax obj value: 0.195
# Max RMSD: 0.201
# Mean RMSD: 0.197
data_MOF--net-cbo--node1-QUQFOY_clean_sbu_3--edge1-MIFKUJ_clean_linker_0
_symmetry_space_group_name_H-M    P1
_symmetry_Int_Tables_number       1
_symmetry_cell_setting            triclinic
loop_
_symmetry_equiv_pos_as_xyz
'x, y, z'
_cell_length_a     67.218051
_cell_length_b     68.034394
_cell_length_c     69.244286
_cell_angle_alpha  89.924053
_cell_angle_beta   90.037143
_cell_angle_gamma 89.908449
loop_
_atom_site_label
_atom_site_type_symbol
_atom_site_fract_x
_atom_site_fract_y
_atom_site_fract_z
_atom_type_partial_charge
C0 C 0.10729 0.24648 0.31261 0.0
O1 O 0.11698 0.24998 0.32798 0.0
Cd2 Cd 0.12013 0.22801 0.35522 0.0
O3 O 0.0974 0.23063 0.31087 0.0
Cd4 Cd 0.09028 0.20076 0.32985 0.0
C5 C 0.13941 0.18875 0.33029 0.0
O6 O 0.08863 0.21391 0.36253 0.0
O7 O 0.09153 0.18244 0.35979 0.0
O8 O 0.05484 0.19941 0.3232 0.0
C9 C 0.0897 0.19724 0.37076 0.0
O10 O 0.14172 0.20175 0.34334 0.0
C11 C 0.05561 0.1836 0.31348 0.0
O12 O 0.12264 0.18633 0.32201 0.0
O13 O 0.07268 0.17601 0.31085 0.0
C14 C 0.37407 0.74187 0.81397 0.0
O15 O 0.36496 0.73675 0.82925 0.0
Cd16 Cd 0.36203 0.75627 0.85809 0.0
O17 O 0.38361 0.75804 0.81334 0.0
Cd18 Cd 0.39129 0.78603 0.83494 0.0
C19 C 0.34211 0.79762 0.83692 0.0
O20 O 0.39408 0.7689 0.86581 0.0
O21 O 0.39239 0.80052 0.86701 0.0
O22 O 0.42596 0.78803 0.82492 0.0
C23 C 0.3941 0.78438 0.87602 0.0
O24 O 0.33994 0.7832 0.8485 0.0
C25 C 0.42466 0.80547 0.81843 0.0
O26 O 0.35889 0.80113 0.82912 0.0
O27 O 0.40769 0.81366 0.81924 0.0
C28 C 0.61737 0.25491 0.67234 0.0
O29 O 0.62743 0.24929 0.6578 0.0
Cd30 Cd 0.62985 0.2662 0.62722 0.0
O31 O 0.60662 0.27033 0.67145 0.0
Cd32 Cd 0.59717 0.29612 0.64789 0.0
C33 C 0.64557 0.31111 0.64414 0.0
O34 O 0.59679 0.27571 0.61924 0.0
O35 O 0.59244 0.3066 0.61439 0.0
O36 O 0.56322 0.29648 0.66026 0.0
C37 C 0.5944 0.28958 0.60724 0.0
O38 O 0.64935 0.29566 0.6344 0.0
C39 C 0.5631 0.3148 0.66386 0.0
O40 O 0.62835 0.31404 0.65129 0.0
O41 O 0.57895 0.32426 0.66028 0.0
C42 C 0.87915 0.73616 0.17563 0.0
O43 O 0.87022 0.74159 0.16034 0.0
Cd44 Cd 0.86819 0.72262 0.13097 0.0
O45 O 0.88887 0.72007 0.17603 0.0
Cd46 Cd 0.8977 0.69243 0.15456 0.0
C47 C 0.84869 0.68032 0.15066 0.0
O48 O 0.90053 0.71017 0.12417 0.0
O49 O 0.90147 0.6786 0.12227 0.0
O50 O 0.93188 0.69127 0.16602 0.0
C51 C 0.9018 0.69501 0.1136 0.0
O52 O 0.84657 0.69515 0.13958 0.0
C53 C 0.93084 0.6738 0.17246 0.0
O54 O 0.86535 0.67667 0.15873 0.0
O55 O 0.91419 0.66512 0.1709 0.0
C56 C 0.31566 0.10793 0.25197 0.0
O57 O 0.33169 0.11764 0.2539 0.0
Cd58 Cd 0.35837 0.12021 0.23073 0.0
O59 O 0.31256 0.09761 0.23693 0.0
Cd60 Cd 0.32903 0.08927 0.20621 0.0
C61 C 0.32948 0.13772 0.19318 0.0
O62 O 0.3635 0.08916 0.21622 0.0
O63 O 0.35803 0.08802 0.1856 0.0
O64 O 0.32191 0.05437 0.20708 0.0
C65 C 0.37058 0.08902 0.19923 0.0
O66 O 0.34338 0.14021 0.20547 0.0
C67 C 0.31106 0.05442 0.19204 0.0
O68 O 0.32089 0.12109 0.19131 0.0
O69 O 0.30776 0.07095 0.18407 0.0
C70 C 0.17049 0.87819 0.74863 0.0
O71 O 0.15411 0.8694 0.75175 0.0
Cd72 Cd 0.12617 0.86702 0.73004 0.0
O73 O 0.17324 0.88788 0.73308 0.0
Cd74 Cd 0.15542 0.89719 0.70315 0.0
C75 C 0.15188 0.84853 0.69076 0.0
O76 O 0.12235 0.89867 0.71652 0.0
O77 O 0.12432 0.90368 0.68598 0.0
O78 O 0.16956 0.93005 0.70502 0.0
C79 C 0.11334 0.90116 0.70062 0.0
O80 O 0.13893 0.84644 0.70405 0.0
C81 C 0.17605 0.93004 0.68777 0.0
O82 O 0.16068 0.86493 0.68809 0.0
O83 O 0.17355 0.91443 0.678 0.0
C84 C 0.81231 0.39091 0.7343 0.0
O85 O 0.82762 0.38027 0.73155 0.0
Cd86 Cd 0.85495 0.37478 0.75357 0.0
O87 O 0.81014 0.40052 0.74996 0.0
Cd88 Cd 0.82778 0.40584 0.78081 0.0
C89 C 0.82739 0.35654 0.79131 0.0
O90 O 0.86124 0.40556 0.76818 0.0
O91 O 0.85894 0.40864 0.79897 0.0
O92 O 0.81724 0.44004 0.78311 0.0
C93 C 0.87002 0.40658 0.78434 0.0
O94 O 0.84086 0.35385 0.77864 0.0
C95 C 0.80866 0.43787 0.79935 0.0
O96 O 0.81955 0.37341 0.79389 0.0
O97 O 0.80852 0.42068 0.80653 0.0
C98 C 0.67474 0.60216 0.23434 0.0
O99 O 0.65917 0.61225 0.2309 0.0
Cd100 Cd 0.6302 0.61664 0.25095 0.0
O101 O 0.67637 0.59209 0.24982 0.0
Cd102 Cd 0.65677 0.58428 0.27911 0.0
C103 C 0.65444 0.63324 0.2917 0.0
O104 O 0.62462 0.58508 0.2639 0.0
O105 O 0.62429 0.57784 0.29397 0.0
O106 O 0.67087 0.55119 0.28034 0.0
C107 C 0.61443 0.58244 0.27904 0.0
O108 O 0.64241 0.63646 0.27779 0.0
C109 C 0.67601 0.5525 0.29799 0.0
O110 O 0.66206 0.61627 0.29442 0.0
O111 O 0.67269 0.56874 0.30644 0.0
C112 C 0.24194 0.30708 0.10846 0.0
O113 O 0.24652 0.32344 0.1161 0.0
Cd114 Cd 0.22452 0.3512 0.1182 0.0
O115 O 0.2253 0.30491 0.09988 0.0
Cd116 Cd 0.19528 0.32391 0.09076 0.0
C117 C 0.18432 0.32687 0.13862 0.0
O118 O 0.21074 0.35574 0.08698 0.0
O119 O 0.17874 0.35581 0.08681 0.0
O120 O 0.1977 0.31127 0.05819 0.0
C121 C 0.19476 0.36557 0.08585 0.0
O122 O 0.19853 0.33919 0.13988 0.0
C123 C 0.18027 0.30412 0.0576 0.0
O124 O 0.18028 0.31846 0.12263 0.0
O125 O 0.16976 0.30574 0.07279 0.0
C126 C 0.74294 0.18082 0.86597 0.0
O127 O 0.74539 0.1654 0.85587 0.0
Cd128 Cd 0.72496 0.13651 0.85589 0.0
O129 O 0.72867 0.18212 0.87804 0.0
Cd130 Cd 0.70017 0.16235 0.88977 0.0
C131 C 0.68186 0.16089 0.84338 0.0
O132 O 0.71763 0.1316 0.88895 0.0
O133 O 0.68689 0.12921 0.89703 0.0
O134 O 0.70445 0.17576 0.92219 0.0
C135 C 0.70321 0.1206 0.89346 0.0
O136 O 0.69538 0.14848 0.83911 0.0
C137 C 0.68662 0.18185 0.92367 0.0
O138 O 0.68095 0.16851 0.86019 0.0
O139 O 0.67527 0.17908 0.90925 0.0
C140 C 0.73577 0.80247 0.37614 0.0
O141 O 0.7324 0.81798 0.36643 0.0
Cd142 Cd 0.7554 0.84474 0.36343 0.0
O143 O 0.75182 0.8006 0.38578 0.0
Cd144 Cd 0.78234 0.8193 0.39342 0.0
C145 C 0.79522 0.81828 0.3459 0.0
O146 O 0.76729 0.85167 0.39516 0.0
O147 O 0.79928 0.85119 0.39504 0.0
O148 O 0.78067 0.80781 0.42672 0.0
C149 C 0.78341 0.86125 0.39584 0.0
O150 O 0.78192 0.83134 0.34306 0.0
C151 C 0.7982 0.80081 0.42706 0.0
O152 O 0.79773 0.81071 0.36258 0.0
O153 O 0.80829 0.80222 0.41161 0.0
C154 C 0.23782 0.68031 0.6062 0.0
O155 O 0.234 0.66392 0.61417 0.0
Cd156 Cd 0.25796 0.63791 0.61754 0.0
O157 O 0.25458 0.68323 0.5981 0.0
Cd158 Cd 0.28583 0.66579 0.59025 0.0
C159 C 0.29602 0.6652 0.63819 0.0
O160 O 0.27269 0.6328 0.58674 0.0
O161 O 0.30452 0.63498 0.58889 0.0
O162 O 0.28236 0.67877 0.5578 0.0
C163 C 0.28936 0.62408 0.58711 0.0
O164 O 0.28284 0.65179 0.63948 0.0
C165 C 0.29997 0.68536 0.55657 0.0
O166 O 0.29952 0.6737 0.62212 0.0
O167 O 0.3111 0.68318 0.57129 0.0
C168 C 0.86201 0.82892 0.6812 0.0
O169 O 0.87685 0.83404 0.69135 0.0
Cd170 Cd 0.90913 0.81996 0.68768 0.0
O171 O 0.86396 0.81618 0.66784 0.0
Cd172 Cd 0.89064 0.79586 0.65287 0.0
C173 C 0.8959 0.77158 0.695 0.0
O174 O 0.91619 0.82056 0.65391 0.0
O175 O 0.92703 0.79117 0.64932 0.0
O176 O 0.8758 0.80471 0.62232 0.0
C177 C 0.93073 0.80943 0.6501 0.0
O178 O 0.90524 0.78678 0.70074 0.0
C179 C 0.87535 0.78749 0.61534 0.0
O180 O 0.88786 0.77117 0.67833 0.0
O181 O 0.8819 0.7737 0.626 0.0
C182 C 0.62131 0.1531 0.17686 0.0
O183 O 0.60602 0.14763 0.18618 0.0
Cd184 Cd 0.57455 0.16364 0.1835 0.0
O185 O 0.62016 0.16703 0.16455 0.0
Cd186 Cd 0.59494 0.18921 0.14958 0.0
C187 C 0.59001 0.21128 0.19293 0.0
O188 O 0.56867 0.16555 0.14966 0.0
O189 O 0.55874 0.19517 0.14473 0.0
O190 O 0.61072 0.18036 0.11959 0.0
C191 C 0.55446 0.17704 0.14574 0.0
O192 O 0.58032 0.19601 0.19798 0.0
C193 C 0.61202 0.19763 0.1128 0.0
O194 O 0.59794 0.21243 0.17625 0.0
O195 O 0.60544 0.21152 0.12331 0.0
C196 C 0.37428 0.65454 0.30607 0.0
O197 O 0.38948 0.65042 0.29599 0.0
Cd198 Cd 0.41921 0.66943 0.29756 0.0
O199 O 0.37496 0.66825 0.31859 0.0
Cd200 Cd 0.39934 0.69181 0.33252 0.0
C201 C 0.39828 0.71514 0.28968 0.0
O202 O 0.42812 0.67111 0.33097 0.0
O203 O 0.43479 0.70194 0.33361 0.0
O204 O 0.38858 0.68198 0.36434 0.0
C205 C 0.44103 0.68433 0.33357 0.0
O206 O 0.40915 0.70112 0.2835 0.0
C207 C 0.38429 0.69909 0.37031 0.0
O208 O 0.39182 0.7151 0.30695 0.0
O209 O 0.38708 0.71323 0.35861 0.0
C210 C 0.11947 0.32533 0.80241 0.0
O211 O 0.10502 0.3312 0.79208 0.0
Cd212 Cd 0.07282 0.31701 0.79479 0.0
O213 O 0.11683 0.31219 0.81533 0.0
Cd214 Cd 0.08977 0.29221 0.83014 0.0
C215 C 0.08615 0.26831 0.78788 0.0
O216 O 0.06564 0.31822 0.82852 0.0
O217 O 0.05306 0.28966 0.83365 0.0
O218 O 0.10788 0.30055 0.85904 0.0
C219 C 0.05044 0.30809 0.83242 0.0
O220 O 0.07749 0.28382 0.78182 0.0
C221 C 0.10544 0.28428 0.86766 0.0
O222 O 0.09312 0.26745 0.80497 0.0
O223 O 0.09558 0.27117 0.85878 0.0
C224 C 0.67092 0.8833 0.74934 0.0
O225 O 0.65575 0.87275 0.74585 0.0
Cd226 Cd 0.62727 0.86921 0.7665 0.0
O227 O 0.67197 0.89352 0.76474 0.0
Cd228 Cd 0.65184 0.90001 0.79398 0.0
C229 C 0.65344 0.85118 0.80521 0.0
O230 O 0.61969 0.90135 0.7781 0.0
O231 O 0.61894 0.90175 0.80909 0.0
O232 O 0.66535 0.93336 0.79522 0.0
C233 C 0.60934 0.90201 0.79335 0.0
O234 O 0.64026 0.84819 0.7923 0.0
C235 C 0.66948 0.93258 0.81313 0.0
O236 O 0.66074 0.86823 0.8078 0.0
O237 O 0.66572 0.91659 0.82186 0.0
C238 C 0.81025 0.09474 0.24818 0.0
O239 O 0.82526 0.1048 0.24301 0.0
Cd240 Cd 0.85468 0.11 0.26227 0.0
O241 O 0.81018 0.08572 0.26432 0.0
Cd242 Cd 0.83176 0.0801 0.29269 0.0
C243 C 0.83129 0.12926 0.30227 0.0
O244 O 0.86365 0.07932 0.27645 0.0
O245 O 0.86463 0.08033 0.30747 0.0
O246 O 0.82211 0.04571 0.29535 0.0
C247 C 0.87411 0.08018 0.29166 0.0
O248 O 0.84294 0.13175 0.28795 0.0
C249 C 0.81535 0.04723 0.31242 0.0
O250 O 0.82438 0.11232 0.30634 0.0
O251 O 0.81603 0.06414 0.32017 0.0
C252 C 0.18558 0.60581 0.22806 0.0
O253 O 0.17066 0.61565 0.23388 0.0
Cd254 Cd 0.14013 0.61945 0.2161 0.0
O255 O 0.18488 0.59648 0.21211 0.0
Cd256 Cd 0.16115 0.58991 0.18552 0.0
C257 C 0.15928 0.63853 0.17403 0.0
O258 O 0.13095 0.58752 0.2049 0.0
O259 O 0.12696 0.58779 0.17408 0.0
O260 O 0.17339 0.55622 0.18373 0.0
C261 C 0.1191 0.58681 0.19066 0.0
O262 O 0.14876 0.64106 0.18913 0.0
C263 C 0.1766 0.55658 0.16565 0.0
O264 O 0.16646 0.6217 0.16997 0.0
O265 O 0.1731 0.57265 0.15693 0.0
C266 C 0.30908 0.38261 0.73355 0.0
O267 O 0.32416 0.37198 0.73729 0.0
Cd268 Cd 0.35258 0.36808 0.71657 0.0
O269 O 0.30852 0.39307 0.71826 0.0
Cd270 Cd 0.32967 0.40075 0.69001 0.0
C271 C 0.3279 0.35292 0.6756 0.0
O272 O 0.36199 0.39993 0.70572 0.0
O273 O 0.36232 0.40119 0.67464 0.0
O274 O 0.32289 0.43592 0.69034 0.0
C275 C 0.3721 0.40065 0.69029 0.0
O276 O 0.33984 0.34901 0.6894 0.0
C277 C 0.31448 0.43626 0.6739 0.0
O278 O 0.32119 0.37028 0.67318 0.0
O279 O 0.31261 0.41995 0.66519 0.0
C280 C 0.75382 0.6813 0.87565 0.0
O281 O 0.74914 0.66601 0.86616 0.0
Cd282 Cd 0.76894 0.63708 0.86247 0.0
O283 O 0.76995 0.68196 0.88537 0.0
Cd284 Cd 0.79823 0.65962 0.89339 0.0
C285 C 0.81151 0.65961 0.84584 0.0
O286 O 0.77931 0.62953 0.89444 0.0
O287 O 0.81097 0.62565 0.89532 0.0
O288 O 0.79875 0.67125 0.92673 0.0
C289 C 0.79389 0.61781 0.8954 0.0
O290 O 0.79677 0.64838 0.8424 0.0
C291 C 0.8172 0.67535 0.92677 0.0
O292 O 0.81469 0.66618 0.86278 0.0
O293 O 0.82663 0.67254 0.91113 0.0
C294 C 0.24615 0.81168 0.10652 0.0
O295 O 0.24218 0.82635 0.1172 0.0
Cd296 Cd 0.2642 0.85336 0.1235 0.0
O297 O 0.26268 0.81064 0.09756 0.0
Cd298 Cd 0.29346 0.83022 0.09338 0.0
C299 C 0.30338 0.82658 0.14164 0.0
O300 O 0.27832 0.86253 0.09317 0.0
O301 O 0.31023 0.86209 0.09517 0.0
O302 O 0.29571 0.82164 0.05926 0.0
C303 C 0.29438 0.87216 0.09437 0.0
O304 O 0.28958 0.83906 0.14473 0.0
C305 C 0.31297 0.81408 0.06048 0.0
O306 O 0.30695 0.82038 0.12463 0.0
O307 O 0.32104 0.8139 0.07707 0.0
C308 C 0.2395 0.18039 0.60631 0.0
O309 O 0.24415 0.16669 0.61797 0.0
Cd310 Cd 0.22459 0.13803 0.62512 0.0
O311 O 0.22355 0.17944 0.59638 0.0
Cd312 Cd 0.19515 0.15678 0.59154 0.0
C313 C 0.18154 0.16168 0.63886 0.0
O314 O 0.21292 0.1261 0.59497 0.0
O315 O 0.18102 0.12371 0.5942 0.0
O316 O 0.19389 0.16043 0.55656 0.0
C317 C 0.19772 0.11514 0.59566 0.0
O318 O 0.19637 0.15095 0.64348 0.0
C319 C 0.17688 0.16859 0.55627 0.0
O320 O 0.17845 0.16659 0.62134 0.0
O321 O 0.16848 0.17154 0.57244 0.0
C322 C 0.74287 0.30368 0.36881 0.0
O323 O 0.74598 0.31761 0.35692 0.0
Cd324 Cd 0.72558 0.34611 0.35172 0.0
O325 O 0.72774 0.30389 0.37995 0.0
Cd326 Cd 0.69865 0.32527 0.3874 0.0
C327 C 0.68207 0.32184 0.34046 0.0
O328 O 0.71718 0.35516 0.38374 0.0
O329 O 0.68659 0.35945 0.39149 0.0
O330 O 0.70067 0.31398 0.4209 0.0
C331 C 0.70315 0.36706 0.38703 0.0
O332 O 0.69649 0.33272 0.33511 0.0
C333 C 0.68225 0.30995 0.42222 0.0
O334 O 0.68012 0.31674 0.35808 0.0
O335 O 0.67167 0.31281 0.40727 0.0
H336 H 0.15145 0.30311 0.14189 0.0
H337 H 0.13465 0.29295 0.17166 0.0
H338 H 0.17508 0.32848 0.20504 0.0
H339 H 0.19191 0.33871 0.17554 0.0
H340 H 0.17255 0.29059 0.21828 0.0
H341 H 0.12811 0.34278 0.20006 0.0
H342 H 0.10551 0.36085 0.17829 0.0
H343 H 0.0669 0.31072 0.17542 0.0
H344 H 0.08943 0.29223 0.19697 0.0
H345 H 0.1306 0.27929 0.30955 0.0
H346 H 0.13978 0.29651 0.27992 0.0
H347 H 0.09931 0.26022 0.24741 0.0
H348 H 0.08989 0.24294 0.27698 0.0
H349 H 0.1009 0.29891 0.23358 0.0
H350 H 0.14538 0.24622 0.24987 0.0
H351 H 0.16779 0.22718 0.27104 0.0
H352 H 0.20633 0.27715 0.27643 0.0
H353 H 0.18395 0.2966 0.25552 0.0
C354 C 0.15665 0.30891 0.15555 0.0
C355 C 0.17309 0.32166 0.15631 0.0
C356 C 0.14697 0.30316 0.17253 0.0
C357 C 0.15361 0.31003 0.19052 0.0
C358 C 0.16974 0.32302 0.19128 0.0
C359 C 0.17932 0.32887 0.17437 0.0
C360 C 0.14463 0.30275 0.2087 0.0
C361 C 0.15695 0.2927 0.22175 0.0
C362 C 0.12415 0.30497 0.21292 0.0
C363 C 0.11057 0.31605 0.19996 0.0
C364 C 0.1149 0.33554 0.19464 0.0
C365 C 0.10208 0.34588 0.18237 0.0
C366 C 0.08481 0.33692 0.17543 0.0
C367 C 0.0803 0.31763 0.18079 0.0
C368 C 0.09308 0.30722 0.19304 0.0
C369 C 0.12328 0.27524 0.2962 0.0
C370 C 0.10975 0.2595 0.29561 0.0
C371 C 0.12859 0.28508 0.27927 0.0
C372 C 0.12049 0.27936 0.26146 0.0
C373 C 0.10579 0.26478 0.26101 0.0
C374 C 0.10048 0.25489 0.27794 0.0
C375 C 0.12893 0.28705 0.24321 0.0
C376 C 0.11652 0.29698 0.23012 0.0
C377 C 0.14934 0.2846 0.2388 0.0
C378 C 0.16287 0.27293 0.25132 0.0
C379 C 0.15854 0.2532 0.25571 0.0
C380 C 0.17125 0.24233 0.26763 0.0
C381 C 0.18844 0.25097 0.27512 0.0
C382 C 0.19298 0.27049 0.27065 0.0
C383 C 0.1803 0.28144 0.25876 0.0
H384 H 0.19827 0.24253 0.28434 0.0
H385 H 0.07489 0.34495 0.16594 0.0
H386 H 0.35463 0.70683 0.80985 0.0
H387 H 0.3456 0.69055 0.77972 0.0
H388 H 0.37805 0.73429 0.74748 0.0
H389 H 0.3874 0.75054 0.77755 0.0
H390 H 0.32274 0.70779 0.75309 0.0
H391 H 0.39149 0.7151 0.7033 0.0
H392 H 0.4281 0.71438 0.70567 0.0
H393 H 0.42432 0.67838 0.75651 0.0
H394 H 0.38771 0.67865 0.7543 0.0
H395 H 0.3242 0.69415 0.64193 0.0
H396 H 0.34065 0.70501 0.67162 0.0
H397 H 0.30914 0.66067 0.70392 0.0
H398 H 0.29255 0.64984 0.67451 0.0
H399 H 0.36486 0.68681 0.69803 0.0
H400 H 0.29528 0.67924 0.74672 0.0
H401 H 0.25876 0.68262 0.74486 0.0
H402 H 0.2647 0.72183 0.69657 0.0
H403 H 0.3012 0.71866 0.69813 0.0
C404 C 0.36023 0.71277 0.79639 0.0
C405 C 0.37158 0.73012 0.79613 0.0
C406 C 0.35502 0.70345 0.77917 0.0
C407 C 0.36111 0.71121 0.76134 0.0
C408 C 0.37337 0.72789 0.76106 0.0
C409 C 0.37863 0.73722 0.7783 0.0
C410 C 0.35275 0.70324 0.74314 0.0
C411 C 0.33198 0.70281 0.74121 0.0
C412 C 0.36481 0.69751 0.72736 0.0
C413 C 0.38684 0.69707 0.72873 0.0
C414 C 0.39847 0.70697 0.71494 0.0
C415 C 0.41923 0.70665 0.71626 0.0
C416 C 0.42853 0.69639 0.73126 0.0
C417 C 0.4171 0.68639 0.74494 0.0
C418 C 0.39634 0.68665 0.74368 0.0
C419 C 0.32083 0.68666 0.65533 0.0
C420 C 0.3069 0.67124 0.65584 0.0
C421 C 0.3303 0.69284 0.67227 0.0
C422 C 0.32593 0.68381 0.69 0.0
C423 C 0.3125 0.66805 0.69044 0.0
C424 C 0.30305 0.66186 0.67357 0.0
C425 C 0.33489 0.69116 0.70817 0.0
C426 C 0.35569 0.6916 0.71003 0.0
C427 C 0.32291 0.69708 0.72391 0.0
C428 C 0.30095 0.69854 0.72243 0.0
C429 C 0.28877 0.68851 0.73566 0.0
C430 C 0.26808 0.69038 0.73465 0.0
C431 C 0.25941 0.70236 0.72055 0.0
C432 C 0.27141 0.71242 0.70738 0.0
C433 C 0.2921 0.71054 0.70828 0.0
H434 H 0.24341 0.70395 0.71994 0.0
H435 H 0.4446 0.69617 0.73226 0.0
H436 H 0.60415 0.26629 0.708 0.0
H437 H 0.60925 0.24942 0.73883 0.0
H438 H 0.63937 0.20215 0.70941 0.0
H439 H 0.63441 0.21889 0.67852 0.0
H440 H 0.61337 0.18885 0.73783 0.0
H441 H 0.66604 0.2364 0.7305 0.0
H442 H 0.68121 0.26909 0.72612 0.0
H443 H 0.65155 0.28994 0.77705 0.0
H444 H 0.63598 0.25743 0.78158 0.0
H445 H 0.67827 0.14668 0.80665 0.0
H446 H 0.66037 0.1616 0.77978 0.0
H447 H 0.63716 0.20621 0.81786 0.0
H448 H 0.65528 0.19149 0.84491 0.0
H449 H 0.65491 0.22206 0.78718 0.0
H450 H 0.60605 0.17271 0.79699 0.0
H451 H 0.593 0.13928 0.80219 0.0
H452 H 0.61623 0.12124 0.74724 0.0
H453 H 0.62969 0.15449 0.74182 0.0
C454 C 0.61169 0.25221 0.70804 0.0
C455 C 0.61899 0.24399 0.69079 0.0
C456 C 0.61462 0.24263 0.72568 0.0
C457 C 0.62482 0.22463 0.72639 0.0
C458 C 0.63146 0.21603 0.70915 0.0
C459 C 0.62868 0.22567 0.69152 0.0
C460 C 0.62944 0.21517 0.74513 0.0
C461 C 0.62252 0.19604 0.74863 0.0
C462 C 0.64091 0.2248 0.75939 0.0
C463 C 0.64963 0.24456 0.75623 0.0
C464 C 0.66252 0.24804 0.7406 0.0
C465 C 0.67125 0.26651 0.73814 0.0
C466 C 0.66733 0.28158 0.75129 0.0
C467 C 0.65456 0.27825 0.76686 0.0
C468 C 0.64577 0.25982 0.76938 0.0
C469 C 0.66907 0.15945 0.80945 0.0
C470 C 0.66838 0.16799 0.82792 0.0
C471 C 0.65872 0.16789 0.79405 0.0
C472 C 0.64736 0.18498 0.79681 0.0
C473 C 0.64584 0.19301 0.81542 0.0
C474 C 0.65617 0.18454 0.83087 0.0
C475 C 0.63906 0.19559 0.77989 0.0
C476 C 0.64538 0.21496 0.77665 0.0
C477 C 0.62708 0.18614 0.76589 0.0
C478 C 0.619 0.16609 0.76906 0.0
C479 C 0.60852 0.16158 0.78608 0.0
C480 C 0.60102 0.14267 0.78905 0.0
C481 C 0.60382 0.12814 0.77507 0.0
C482 C 0.61408 0.13251 0.75806 0.0
C483 C 0.62162 0.1514 0.75502 0.0
H484 H 0.598 0.1135 0.7774 0.0
H485 H 0.67428 0.29578 0.74951 0.0
H486 H 0.86002 0.77142 0.18042 0.0
H487 H 0.85119 0.78723 0.21089 0.0
H488 H 0.88292 0.74224 0.2423 0.0
H489 H 0.8918 0.72628 0.21194 0.0
H490 H 0.8447 0.74632 0.25447 0.0
H491 H 0.90004 0.78847 0.24252 0.0
H492 H 0.9212 0.81098 0.22367 0.0
H493 H 0.87286 0.85207 0.21918 0.0
H494 H 0.8513 0.82968 0.23777 0.0
H495 H 0.82281 0.78856 0.34557 0.0
H496 H 0.84158 0.77619 0.3179 0.0
H497 H 0.81394 0.81972 0.28129 0.0
H498 H 0.79527 0.83233 0.30886 0.0
H499 H 0.85322 0.81612 0.27332 0.0
H500 H 0.79705 0.77305 0.28096 0.0
H501 H 0.77444 0.75014 0.29765 0.0
H502 H 0.82325 0.71095 0.30884 0.0
H503 H 0.84619 0.7337 0.29227 0.0
C504 C 0.86546 0.76507 0.19378 0.0
C505 C 0.87647 0.74747 0.19372 0.0
C506 C 0.86046 0.77419 0.21119 0.0
C507 C 0.86641 0.7659 0.22885 0.0
C508 C 0.87817 0.74885 0.22882 0.0
C509 C 0.88326 0.73978 0.21142 0.0
C510 C 0.85865 0.77386 0.24728 0.0
C511 C 0.84695 0.76147 0.25882 0.0
C512 C 0.86108 0.79377 0.25261 0.0
C513 C 0.874 0.8073 0.24142 0.0
C514 C 0.89386 0.80223 0.23738 0.0
C515 C 0.90594 0.81499 0.22676 0.0
C516 C 0.89837 0.83293 0.22019 0.0
C517 C 0.87871 0.83816 0.22426 0.0
C518 C 0.86656 0.82545 0.23486 0.0
C519 C 0.82081 0.79561 0.33167 0.0
C520 C 0.80742 0.81137 0.32943 0.0
C521 C 0.83151 0.78847 0.31586 0.0
C522 C 0.82899 0.79691 0.2975 0.0
C523 C 0.8161 0.813 0.29533 0.0
C524 C 0.80537 0.82012 0.31111 0.0
C525 C 0.83923 0.78858 0.2804 0.0
C526 C 0.85128 0.80089 0.2691 0.0
C527 C 0.837 0.76862 0.27515 0.0
C528 C 0.82336 0.75518 0.28558 0.0
C529 C 0.803 0.75965 0.28717 0.0
C530 C 0.79012 0.74666 0.29655 0.0
C531 C 0.79742 0.72913 0.30435 0.0
C532 C 0.81763 0.72455 0.30281 0.0
C533 C 0.83057 0.73747 0.2934 0.0
H534 H 0.7874 0.71902 0.31149 0.0
H535 H 0.90774 0.84279 0.21198 0.0
H536 H 0.28197 0.08584 0.25635 0.0
H537 H 0.25167 0.09545 0.27357 0.0
H538 H 0.28124 0.14719 0.29499 0.0
H539 H 0.31167 0.1376 0.27819 0.0
H540 H 0.24183 0.10913 0.31476 0.0
H541 H 0.24916 0.18423 0.27858 0.0
H542 H 0.26562 0.19941 0.25042 0.0
H543 H 0.2616 0.14492 0.21947 0.0
H544 H 0.24479 0.12955 0.24729 0.0
H545 H 0.17388 0.18239 0.35027 0.0
H546 H 0.20324 0.16413 0.33951 0.0
H547 H 0.17358 0.15009 0.28605 0.0
H548 H 0.14404 0.16813 0.29676 0.0
H549 H 0.21192 0.1669 0.28172 0.0
H550 H 0.1794 0.11481 0.31633 0.0
H551 H 0.1631 0.09962 0.34451 0.0
H552 H 0.21632 0.10724 0.37798 0.0
H553 H 0.23286 0.12274 0.35006 0.0
C554 C 0.28221 0.09895 0.26521 0.0
C555 C 0.29914 0.11108 0.26572 0.0
C556 C 0.26492 0.10436 0.27508 0.0
C557 C 0.26426 0.12209 0.28534 0.0
C558 C 0.28154 0.13345 0.2871 0.0
C559 C 0.29891 0.12792 0.27749 0.0
C560 C 0.24497 0.13016 0.29173 0.0
C561 C 0.23525 0.12176 0.30761 0.0
C562 C 0.23638 0.14646 0.28214 0.0
C563 C 0.24595 0.1557 0.26511 0.0
C564 C 0.25171 0.17553 0.26573 0.0
C565 C 0.2611 0.18417 0.24983 0.0
C566 C 0.26473 0.17311 0.23319 0.0
C567 C 0.25886 0.15344 0.23238 0.0
C568 C 0.24942 0.14476 0.24822 0.0
C569 C 0.17354 0.1753 0.33628 0.0
C570 C 0.15668 0.17676 0.32431 0.0
C571 C 0.19028 0.1648 0.33021 0.0
C572 C 0.1905 0.15576 0.31203 0.0
C573 C 0.17363 0.15697 0.30015 0.0
C574 C 0.15677 0.16722 0.30631 0.0
C575 C 0.20876 0.14604 0.30495 0.0
C576 C 0.21839 0.15422 0.2889 0.0
C577 C 0.21717 0.12953 0.31438 0.0
C578 C 0.20731 0.1201 0.33115 0.0
C579 C 0.18758 0.1134 0.32974 0.0
C580 C 0.17831 0.1047 0.34566 0.0
C581 C 0.18865 0.10251 0.36304 0.0
C582 C 0.20832 0.10896 0.36452 0.0
C583 C 0.21766 0.11769 0.34864 0.0
H584 H 0.18145 0.09577 0.37535 0.0
H585 H 0.27204 0.17981 0.22092 0.0
H586 H 0.30488 0.7964 0.8528 0.0
H587 H 0.27533 0.81438 0.8423 0.0
H588 H 0.30995 0.84412 0.79876 0.0
H589 H 0.33972 0.82647 0.80939 0.0
H590 H 0.28281 0.86876 0.8151 0.0
H591 H 0.28335 0.80397 0.78709 0.0
H592 H 0.2851 0.76776 0.78764 0.0
H593 H 0.23275 0.76557 0.8231 0.0
H594 H 0.23086 0.80181 0.82296 0.0
H595 H 0.20916 0.88983 0.74411 0.0
H596 H 0.23761 0.88047 0.76397 0.0
H597 H 0.19841 0.85097 0.80387 0.0
H598 H 0.16986 0.85991 0.78386 0.0
H599 H 0.22696 0.82723 0.79227 0.0
H600 H 0.22457 0.89285 0.81679 0.0
H601 H 0.22313 0.92902 0.81496 0.0
H602 H 0.27891 0.92992 0.7848 0.0
H603 H 0.28057 0.89373 0.78621 0.0
C604 C 0.30629 0.80691 0.84111 0.0
C605 C 0.32463 0.8098 0.83176 0.0
C606 C 0.28937 0.81717 0.83514 0.0
C607 C 0.2904 0.83034 0.81956 0.0
C608 C 0.30884 0.83399 0.8108 0.0
C609 C 0.32582 0.82381 0.81684 0.0
C610 C 0.27204 0.8392 0.81149 0.0
C611 C 0.27061 0.85973 0.80999 0.0
C612 C 0.25602 0.82738 0.80516 0.0
C613 C 0.25709 0.80559 0.80519 0.0
C614 C 0.27231 0.79577 0.79513 0.0
C615 C 0.27331 0.77524 0.79534 0.0
C616 C 0.25908 0.76437 0.80545 0.0
C617 C 0.24379 0.77401 0.81531 0.0
C618 C 0.24273 0.79454 0.81516 0.0
C619 C 0.20651 0.88169 0.75731 0.0
C620 C 0.18724 0.87543 0.76228 0.0
C621 C 0.22282 0.87644 0.76872 0.0
C622 C 0.22014 0.86506 0.78545 0.0
C623 C 0.20081 0.85972 0.79099 0.0
C624 C 0.18451 0.86486 0.77954 0.0
C625 C 0.23759 0.85688 0.79584 0.0
C626 C 0.23894 0.83638 0.79766 0.0
C627 C 0.25353 0.86876 0.8023 0.0
C628 C 0.25261 0.89054 0.80148 0.0
C629 C 0.23646 0.90074 0.80964 0.0
C630 C 0.23562 0.92126 0.8087 0.0
C631 C 0.25089 0.93176 0.79974 0.0
C632 C 0.26708 0.92176 0.79173 0.0
C633 C 0.26799 0.90125 0.79262 0.0
H634 H 0.25021 0.94764 0.79903 0.0
H635 H 0.25988 0.74848 0.80559 0.0
H636 H 0.81032 0.36987 0.70069 0.0
H637 H 0.78095 0.36416 0.68083 0.0
H638 H 0.74733 0.40462 0.71598 0.0
H639 H 0.77659 0.41023 0.73614 0.0
H640 H 0.72963 0.36997 0.7141 0.0
H641 H 0.75656 0.41463 0.66825 0.0
H642 H 0.78202 0.42926 0.64707 0.0
H643 H 0.78596 0.37542 0.61501 0.0
H644 H 0.76072 0.36034 0.63617 0.0
H645 H 0.64286 0.34623 0.6632 0.0
H646 H 0.67021 0.3673 0.6736 0.0
H647 H 0.71215 0.32906 0.64512 0.0
H648 H 0.68489 0.30811 0.63428 0.0
H649 H 0.72348 0.36779 0.64272 0.0
H650 H 0.70108 0.32205 0.69173 0.0
H651 H 0.6756 0.30692 0.71256 0.0
H652 H 0.664 0.36285 0.73897 0.0
H653 H 0.68914 0.3784 0.71797 0.0
C654 C 0.79682 0.37791 0.70397 0.0
C655 C 0.79576 0.39032 0.72017 0.0
C656 C 0.78004 0.37472 0.6925 0.0
C657 C 0.76194 0.38399 0.6969 0.0
C658 C 0.76116 0.3973 0.71235 0.0
C659 C 0.77792 0.40049 0.72385 0.0
C660 C 0.7434 0.37778 0.68705 0.0
C661 C 0.7281 0.36999 0.6985 0.0
C662 C 0.74161 0.37731 0.66669 0.0
C663 C 0.75682 0.38631 0.6539 0.0
C664 C 0.76296 0.40584 0.65678 0.0
C665 C 0.77734 0.41423 0.64476 0.0
C666 C 0.78563 0.40326 0.62973 0.0
C667 C 0.77953 0.38389 0.62667 0.0
C668 C 0.76516 0.37543 0.63865 0.0
C669 C 0.65786 0.34245 0.65887 0.0
C670 C 0.66173 0.32525 0.64824 0.0
C671 C 0.67347 0.35454 0.6648 0.0
C672 C 0.69321 0.34953 0.66042 0.0
C673 C 0.69701 0.33315 0.6487 0.0
C674 C 0.68141 0.32111 0.64264 0.0
C675 C 0.70996 0.35991 0.66982 0.0
C676 C 0.72492 0.36827 0.65832 0.0
C677 C 0.71155 0.36086 0.69017 0.0
C678 C 0.6968 0.35143 0.70313 0.0
C679 C 0.693 0.33114 0.7019 0.0
C680 C 0.67862 0.32249 0.71373 0.0
C681 C 0.66814 0.33393 0.72705 0.0
C682 C 0.67209 0.35402 0.72861 0.0
C683 C 0.68639 0.36277 0.71674 0.0
H684 H 0.65698 0.32722 0.73617 0.0
H685 H 0.79676 0.40979 0.62043 0.0
H686 H 0.84607 0.65013 0.17678 0.0
H687 H 0.81623 0.63202 0.18615 0.0
H688 H 0.78208 0.66393 0.14362 0.0
H689 H 0.81171 0.68231 0.13436 0.0
H690 H 0.76513 0.66574 0.17812 0.0
H691 H 0.79194 0.61469 0.13837 0.0
H692 H 0.81753 0.59158 0.12671 0.0
H693 H 0.81979 0.56416 0.18256 0.0
H694 H 0.79441 0.58729 0.19465 0.0
H695 H 0.67561 0.61881 0.1984 0.0
H696 H 0.70503 0.6269 0.17935 0.0
H697 H 0.74235 0.59821 0.22156 0.0
H698 H 0.71296 0.58968 0.24054 0.0
H699 H 0.75696 0.59358 0.18481 0.0
H700 H 0.73371 0.64637 0.22539 0.0
H701 H 0.70884 0.66969 0.23807 0.0
H702 H 0.70103 0.69416 0.18137 0.0
H703 H 0.72567 0.67076 0.16829 0.0
C704 C 0.83228 0.65311 0.16922 0.0
C705 C 0.83124 0.66781 0.15495 0.0
C706 C 0.81525 0.64265 0.17452 0.0
C707 C 0.79695 0.64656 0.16551 0.0
C708 C 0.79605 0.66069 0.15076 0.0
C709 C 0.81302 0.6712 0.14551 0.0
C710 C 0.7784 0.63742 0.17274 0.0
C711 C 0.7632 0.64994 0.17917 0.0
C712 C 0.77615 0.61682 0.17469 0.0
C713 C 0.79138 0.60285 0.16746 0.0
C714 C 0.79801 0.60384 0.14822 0.0
C715 C 0.81246 0.59071 0.14152 0.0
C716 C 0.82031 0.57644 0.1539 0.0
C717 C 0.8137 0.57524 0.17299 0.0
C718 C 0.79927 0.58834 0.17976 0.0
C719 C 0.69002 0.61386 0.20346 0.0
C720 C 0.69198 0.60392 0.22118 0.0
C721 C 0.70682 0.6185 0.19255 0.0
C722 C 0.72587 0.61352 0.19928 0.0
C723 C 0.72777 0.60226 0.21616 0.0
C724 C 0.71095 0.59746 0.22703 0.0
C725 C 0.74377 0.62194 0.18999 0.0
C726 C 0.75885 0.60934 0.1834 0.0
C727 C 0.74607 0.64252 0.18798 0.0
C728 C 0.73135 0.65668 0.19583 0.0
C729 C 0.72658 0.65663 0.2156 0.0
C730 C 0.71254 0.66987 0.22287 0.0
C731 C 0.70332 0.68336 0.21052 0.0
C732 C 0.70816 0.68367 0.1909 0.0
C733 C 0.72216 0.67043 0.18356 0.0
H734 H 0.69245 0.69361 0.21617 0.0
H735 H 0.8315 0.56629 0.14869 0.0
H736 H 0.30059 0.13874 0.16513 0.0
H737 H 0.28923 0.16743 0.14676 0.0
H738 H 0.33257 0.20354 0.17582 0.0
H739 H 0.34391 0.17516 0.19429 0.0
H740 H 0.29554 0.21934 0.17698 0.0
H741 H 0.33922 0.1919 0.12953 0.0
H742 H 0.35271 0.16585 0.10855 0.0
H743 H 0.29633 0.16101 0.07977 0.0
H744 H 0.2824 0.18686 0.10077 0.0
H745 H 0.27842 0.30608 0.12599 0.0
H746 H 0.29696 0.27693 0.13607 0.0
H747 H 0.25354 0.23985 0.10835 0.0
H748 H 0.23499 0.26891 0.09795 0.0
H749 H 0.29193 0.22468 0.10556 0.0
H750 H 0.24779 0.25003 0.15449 0.0
H751 H 0.23385 0.27565 0.17574 0.0
H752 H 0.29109 0.2837 0.20213 0.0
H753 H 0.30543 0.25831 0.18082 0.0
C754 C 0.3078 0.15276 0.16751 0.0
C755 C 0.32309 0.15466 0.18126 0.0
C756 C 0.30137 0.1691 0.15693 0.0
C757 C 0.31015 0.18756 0.15989 0.0
C758 C 0.32561 0.18941 0.17334 0.0
C759 C 0.33207 0.17314 0.18387 0.0
C760 C 0.30239 0.20524 0.14995 0.0
C761 C 0.29508 0.22064 0.16136 0.0
C762 C 0.30135 0.20667 0.12959 0.0
C763 C 0.30971 0.1912 0.11685 0.0
C764 C 0.32964 0.18518 0.11884 0.0
C765 C 0.33738 0.17046 0.10692 0.0
C766 C 0.32537 0.16175 0.09287 0.0
C767 C 0.30561 0.16776 0.09067 0.0
C768 C 0.29779 0.18246 0.10257 0.0
C769 C 0.273 0.29176 0.12168 0.0
C770 C 0.25502 0.28982 0.11146 0.0
C771 C 0.28362 0.27512 0.12746 0.0
C772 C 0.27638 0.25626 0.12326 0.0
C773 C 0.25932 0.25428 0.11179 0.0
C774 C 0.2487 0.27093 0.10593 0.0
C775 C 0.28527 0.23877 0.13264 0.0
C776 C 0.29262 0.2234 0.12117 0.0
C777 C 0.28634 0.23727 0.153 0.0
C778 C 0.27772 0.25243 0.16593 0.0
C779 C 0.25743 0.25737 0.16473 0.0
C780 C 0.24946 0.27184 0.17679 0.0
C781 C 0.26159 0.28134 0.19024 0.0
C782 C 0.28172 0.27635 0.19168 0.0
C783 C 0.28977 0.26192 0.17962 0.0
H784 H 0.25539 0.29253 0.19957 0.0
H785 H 0.33138 0.15036 0.08366 0.0
H786 H 0.84615 0.32136 0.79657 0.0
H787 H 0.83348 0.29241 0.81347 0.0
H788 H 0.78025 0.32424 0.82873 0.0
H789 H 0.79288 0.35341 0.81201 0.0
H790 H 0.81965 0.28579 0.85253 0.0
H791 H 0.74191 0.29067 0.81908 0.0
H792 H 0.72493 0.30526 0.79086 0.0
H793 H 0.77896 0.30151 0.75801 0.0
H794 H 0.79615 0.28662 0.78592 0.0
H795 H 0.74651 0.21426 0.88775 0.0
H796 H 0.7636 0.24473 0.87863 0.0
H797 H 0.7838 0.21748 0.82599 0.0
H798 H 0.7672 0.18697 0.83505 0.0
H799 H 0.76066 0.25439 0.82251 0.0
H800 H 0.81698 0.22481 0.8553 0.0
H801 H 0.83404 0.2098 0.88321 0.0
H802 H 0.82346 0.26189 0.91664 0.0
H803 H 0.80607 0.2771 0.88899 0.0
C804 C 0.83183 0.32228 0.80368 0.0
C805 C 0.82042 0.3396 0.80281 0.0
C806 C 0.82471 0.30579 0.81345 0.0
C807 C 0.80595 0.30624 0.82224 0.0
C808 C 0.79477 0.32367 0.82197 0.0
C809 C 0.802 0.34028 0.81241 0.0
C810 C 0.79743 0.28796 0.83018 0.0
C811 C 0.80668 0.27897 0.84608 0.0
C812 C 0.78058 0.27909 0.82165 0.0
C813 C 0.77036 0.28778 0.80467 0.0
C814 C 0.75014 0.29293 0.80581 0.0
C815 C 0.74048 0.30124 0.78987 0.0
C816 C 0.75088 0.30439 0.77268 0.0
C817 C 0.77095 0.29915 0.77136 0.0
C818 C 0.78066 0.29079 0.78725 0.0
C819 C 0.7549 0.21466 0.8744 0.0
C820 C 0.75541 0.19824 0.86206 0.0
C821 C 0.76464 0.23203 0.86925 0.0
C822 C 0.7748 0.23326 0.85163 0.0
C823 C 0.77597 0.21673 0.83965 0.0
C824 C 0.76653 0.1993 0.8449 0.0
C825 C 0.78289 0.25217 0.84483 0.0
C826 C 0.77349 0.26132 0.82913 0.0
C827 C 0.79957 0.26112 0.85355 0.0
C828 C 0.81001 0.25199 0.87016 0.0
C829 C 0.8181 0.23298 0.86867 0.0
C830 C 0.82788 0.22446 0.88443 0.0
C831 C 0.82978 0.23486 0.90171 0.0
C832 C 0.82195 0.25384 0.90326 0.0
C833 C 0.81214 0.26241 0.88755 0.0
H834 H 0.83736 0.22825 0.91389 0.0
H835 H 0.74338 0.31084 0.76037 0.0
H836 H 0.73754 0.76741 0.39551 0.0
H837 H 0.7192 0.73744 0.38788 0.0
H838 H 0.68531 0.7689 0.34486 0.0
H839 H 0.70325 0.79902 0.35262 0.0
H840 H 0.66297 0.74023 0.36258 0.0
H841 H 0.72781 0.74692 0.33281 0.0
H842 H 0.76411 0.75193 0.33381 0.0
H843 H 0.77102 0.69922 0.36734 0.0
H844 H 0.73465 0.6942 0.36701 0.0
H845 H 0.64377 0.67189 0.2885 0.0
H846 H 0.65374 0.69907 0.3092 0.0
H847 H 0.68674 0.65897 0.34543 0.0
H848 H 0.67711 0.63163 0.32456 0.0
H849 H 0.7087 0.68978 0.33588 0.0
H850 H 0.64365 0.68122 0.36271 0.0
H851 H 0.6072 0.67708 0.36224 0.0
H852 H 0.60066 0.73245 0.33314 0.0
H853 H 0.63706 0.73707 0.33363 0.0
C854 C 0.72586 0.76809 0.38474 0.0
C855 C 0.72214 0.78551 0.37438 0.0
C856 C 0.71539 0.75094 0.38042 0.0
C857 C 0.70122 0.75089 0.36553 0.0
C858 C 0.69626 0.76862 0.35635 0.0
C859 C 0.70662 0.78581 0.36075 0.0
C860 C 0.69354 0.73214 0.35772 0.0
C861 C 0.67292 0.72917 0.35673 0.0
C862 C 0.70659 0.71761 0.35037 0.0
C863 C 0.7285 0.72032 0.3501 0.0
C864 C 0.73706 0.73647 0.34051 0.0
C865 C 0.75764 0.73932 0.34097 0.0
C866 C 0.76986 0.72593 0.35067 0.0
C867 C 0.76152 0.70962 0.35988 0.0
C868 C 0.74092 0.70678 0.3596 0.0
C869 C 0.65303 0.66878 0.30094 0.0
C870 C 0.65976 0.64958 0.30479 0.0
C871 C 0.65857 0.68434 0.31288 0.0
C872 C 0.67077 0.68101 0.32901 0.0
C873 C 0.67725 0.66183 0.33309 0.0
C874 C 0.67177 0.64624 0.32111 0.0
C875 C 0.67806 0.69782 0.34059 0.0
C876 C 0.69868 0.70054 0.34214 0.0
C877 C 0.66499 0.7121 0.34837 0.0
C878 C 0.64309 0.70943 0.34811 0.0
C879 C 0.63444 0.69247 0.35612 0.0
C880 C 0.6138 0.69004 0.35587 0.0
C881 C 0.60164 0.7044 0.34752 0.0
C882 C 0.61009 0.72132 0.33957 0.0
C883 C 0.63072 0.72391 0.33993 0.0
H884 H 0.58566 0.70244 0.34727 0.0
H885 H 0.7858 0.72815 0.35099 0.0
H886 H 0.1787 0.84671 0.66095 0.0
H887 H 0.18843 0.81767 0.64241 0.0
H888 H 0.14654 0.78254 0.67452 0.0
H889 H 0.13679 0.81135 0.69318 0.0
H890 H 0.18286 0.76583 0.67358 0.0
H891 H 0.13734 0.79371 0.62841 0.0
H892 H 0.1228 0.8199 0.6082 0.0
H893 H 0.17732 0.82429 0.57621 0.0
H894 H 0.19233 0.79834 0.59647 0.0
H895 H 0.20075 0.67973 0.62255 0.0
H896 H 0.18069 0.70815 0.63182 0.0
H897 H 0.22293 0.7468 0.60441 0.0
H898 H 0.24294 0.7185 0.59479 0.0
H899 H 0.1836 0.76086 0.60206 0.0
H900 H 0.22967 0.73518 0.64972 0.0
H901 H 0.24365 0.70811 0.66919 0.0
H902 H 0.18711 0.69981 0.69682 0.0
H903 H 0.17262 0.72646 0.67706 0.0
C904 C 0.17144 0.83285 0.66397 0.0
C905 C 0.15706 0.83135 0.67865 0.0
C906 C 0.17694 0.81629 0.65329 0.0
C907 C 0.16812 0.79799 0.65705 0.0
C908 C 0.15352 0.79654 0.67142 0.0
C909 C 0.14798 0.81305 0.68206 0.0
C910 C 0.17498 0.78012 0.64685 0.0
C911 C 0.18268 0.76462 0.65796 0.0
C912 C 0.17506 0.77872 0.62645 0.0
C913 C 0.16603 0.79419 0.61409 0.0
C914 C 0.1463 0.80036 0.61717 0.0
C915 C 0.13795 0.81515 0.60569 0.0
C916 C 0.14914 0.82378 0.59096 0.0
C917 C 0.16868 0.8176 0.58765 0.0
C918 C 0.17711 0.80284 0.59912 0.0
C919 C 0.20554 0.69423 0.61806 0.0
C920 C 0.22368 0.69687 0.6083 0.0
C921 C 0.19402 0.71044 0.62334 0.0
C922 C 0.20056 0.72956 0.61912 0.0
C923 C 0.21768 0.73216 0.60786 0.0
C924 C 0.22916 0.71594 0.60248 0.0
C925 C 0.1914 0.74668 0.62883 0.0
C926 C 0.18348 0.76205 0.61768 0.0
C927 C 0.19107 0.74803 0.64923 0.0
C928 C 0.2 0.73265 0.66176 0.0
C929 C 0.22019 0.72752 0.65989 0.0
C930 C 0.22821 0.71224 0.67096 0.0
C931 C 0.21627 0.70222 0.68421 0.0
C932 C 0.19632 0.70755 0.68651 0.0
C933 C 0.18819 0.72272 0.67536 0.0
H934 H 0.22246 0.69032 0.69268 0.0
H935 H 0.14266 0.83523 0.58209 0.0
H936 H 0.84658 0.67972 0.84821 0.0
H937 H 0.86562 0.69403 0.8217 0.0
H938 H 0.82452 0.6692 0.7806 0.0
H939 H 0.80556 0.65446 0.80702 0.0
H940 H 0.86274 0.66848 0.7669 0.0
H941 H 0.81811 0.71553 0.79544 0.0
H942 H 0.80317 0.73437 0.82217 0.0
H943 H 0.86009 0.75967 0.83528 0.0
H944 H 0.87541 0.74075 0.80876 0.0
H945 H 0.87144 0.73964 0.69077 0.0
H946 H 0.86217 0.71588 0.71569 0.0
H947 H 0.90375 0.74263 0.75515 0.0
H948 H 0.91293 0.76654 0.73047 0.0
H949 H 0.86717 0.7412 0.76998 0.0
H950 H 0.91101 0.69595 0.73845 0.0
H951 H 0.92483 0.67729 0.71106 0.0
H952 H 0.86845 0.64904 0.70245 0.0
H953 H 0.85419 0.66775 0.72962 0.0
C954 C 0.84172 0.67706 0.83353 0.0
C955 C 0.82437 0.6662 0.82975 0.0
C956 C 0.85263 0.68525 0.8184 0.0
C957 C 0.84626 0.68297 0.79922 0.0
C958 C 0.82965 0.67117 0.79531 0.0
C959 C 0.81879 0.66283 0.81044 0.0
C960 C 0.85581 0.69434 0.78351 0.0
C961 C 0.86362 0.68439 0.76746 0.0
C962 C 0.85715 0.71507 0.7844 0.0
C963 C 0.84794 0.72657 0.80026 0.0
C964 C 0.82746 0.725 0.80411 0.0
C965 C 0.81892 0.73571 0.81921 0.0
C966 C 0.83068 0.74816 0.83045 0.0
C967 C 0.851 0.74998 0.82658 0.0
C968 C 0.85962 0.73929 0.81151 0.0
C969 C 0.87893 0.74021 0.70461 0.0
C970 C 0.89274 0.75516 0.70871 0.0
C971 C 0.87367 0.72655 0.71882 0.0
C972 C 0.88225 0.72751 0.73729 0.0
C973 C 0.89689 0.74168 0.74102 0.0
C974 C 0.90211 0.75535 0.72687 0.0
C975 C 0.87433 0.7154 0.75334 0.0
C976 C 0.8666 0.72527 0.76946 0.0
C977 C 0.87295 0.69467 0.75234 0.0
C978 C 0.88148 0.6834 0.73598 0.0
C979 C 0.9015 0.68589 0.73062 0.0
C980 C 0.90943 0.67527 0.71515 0.0
C981 C 0.89751 0.66202 0.70499 0.0
C982 C 0.87765 0.65933 0.71031 0.0
C983 C 0.86965 0.66992 0.72577 0.0
H984 H 0.90368 0.65381 0.69302 0.0
H985 H 0.82405 0.75644 0.84214 0.0
H986 H 0.57288 0.21523 0.22852 0.0
H987 H 0.582 0.23835 0.25393 0.0
H988 H 0.62457 0.26553 0.21573 0.0
H989 H 0.61527 0.24272 0.19011 0.0
H990 H 0.61698 0.23961 0.27028 0.0
H991 H 0.63387 0.31248 0.22922 0.0
H992 H 0.62028 0.33174 0.20204 0.0
H993 H 0.56293 0.30545 0.2106 0.0
H994 H 0.57608 0.28624 0.23799 0.0
H995 H 0.68523 0.32433 0.30117 0.0
H996 H 0.66391 0.30902 0.277 0.0
H997 H 0.62554 0.28718 0.32208 0.0
H998 H 0.64715 0.30199 0.34645 0.0
H999 H 0.62618 0.3118 0.26603 0.0
H1000 H 0.60816 0.24239 0.30966 0.0
H1001 H 0.62186 0.22233 0.33628 0.0
H1002 H 0.68094 0.24085 0.32147 0.0
H1003 H 0.66763 0.2609 0.29475 0.0
C1004 C 0.58393 0.22636 0.22538 0.0
C1005 C 0.59348 0.227 0.20732 0.0
C1006 C 0.58911 0.23957 0.23994 0.0
C1007 C 0.60394 0.25371 0.23676 0.0
C1008 C 0.61286 0.25497 0.21846 0.0
C1009 C 0.6076 0.24182 0.20383 0.0
C1010 C 0.61168 0.26554 0.25311 0.0
C1011 C 0.61854 0.25546 0.26951 0.0
C1012 C 0.61412 0.28617 0.25197 0.0
C1013 C 0.60603 0.29779 0.23558 0.0
C1014 C 0.61834 0.31087 0.22536 0.0
C1015 C 0.61071 0.32177 0.2099 0.0
C1016 C 0.59077 0.31978 0.20456 0.0
C1017 C 0.57839 0.30693 0.2147 0.0
C1018 C 0.58594 0.296 0.23018 0.0
C1019 C 0.67218 0.31641 0.30598 0.0
C1020 C 0.66804 0.31418 0.32578 0.0
C1021 C 0.65995 0.30772 0.29212 0.0
C1022 C 0.64329 0.29669 0.29772 0.0
C1023 C 0.63854 0.29529 0.31743 0.0
C1024 C 0.65089 0.3038 0.33134 0.0
C1025 C 0.63172 0.28577 0.28296 0.0
C1026 C 0.62423 0.296 0.26687 0.0
C1027 C 0.62865 0.26524 0.28433 0.0
C1028 C 0.63687 0.25331 0.3004 0.0
C1029 C 0.62408 0.24216 0.31212 0.0
C1030 C 0.63178 0.23081 0.32723 0.0
C1031 C 0.65226 0.23039 0.33064 0.0
C1032 C 0.66509 0.24128 0.31892 0.0
C1033 C 0.65747 0.25267 0.30381 0.0
H1034 H 0.65819 0.22156 0.34232 0.0
H1035 H 0.5849 0.32823 0.19258 0.0
H1036 H 0.37236 0.74537 0.29671 0.0
H1037 H 0.35837 0.76841 0.27326 0.0
H1038 H 0.3949 0.7431 0.22852 0.0
H1039 H 0.40912 0.72008 0.25187 0.0
H1040 H 0.39213 0.78332 0.22516 0.0
H1041 H 0.34828 0.72808 0.23337 0.0
H1042 H 0.32766 0.70476 0.25186 0.0
H1043 H 0.29132 0.75238 0.27221 0.0
H1044 H 0.31193 0.77603 0.25404 0.0
H1045 H 0.33626 0.80292 0.14024 0.0
H1046 H 0.35433 0.78843 0.16735 0.0
H1047 H 0.31509 0.81772 0.20732 0.0
H1048 H 0.29686 0.83234 0.18027 0.0
H1049 H 0.31922 0.77826 0.21498 0.0
H1050 H 0.3617 0.83321 0.20337 0.0
H1051 H 0.38229 0.85571 0.18391 0.0
H1052 H 0.42116 0.80799 0.16887 0.0
H1053 H 0.40063 0.78513 0.18801 0.0
C1054 C 0.37766 0.74487 0.28196 0.0
C1055 C 0.39171 0.73071 0.27613 0.0
C1056 C 0.3696 0.75803 0.26857 0.0
C1057 C 0.37539 0.75725 0.24912 0.0
C1058 C 0.3902 0.7439 0.24346 0.0
C1059 C 0.39825 0.7307 0.25683 0.0
C1060 C 0.36504 0.76934 0.2344 0.0
C1061 C 0.37622 0.78216 0.22283 0.0
C1062 C 0.34422 0.76803 0.23164 0.0
C1063 C 0.33178 0.75385 0.24254 0.0
C1064 C 0.336 0.7336 0.24192 0.0
C1065 C 0.3243 0.72032 0.25232 0.0
C1066 C 0.30823 0.72709 0.26325 0.0
C1067 C 0.3038 0.74716 0.26376 0.0
C1068 C 0.31548 0.76051 0.25342 0.0
C1069 C 0.33153 0.80643 0.15479 0.0
C1070 C 0.31505 0.81873 0.15808 0.0
C1071 C 0.34196 0.79821 0.17027 0.0
C1072 C 0.33612 0.80212 0.18933 0.0
C1073 C 0.31984 0.81457 0.1927 0.0
C1074 C 0.30947 0.82292 0.17722 0.0
C1075 C 0.34631 0.79221 0.20563 0.0
C1076 C 0.33509 0.77969 0.21747 0.0
C1077 C 0.36709 0.79371 0.20851 0.0
C1078 C 0.37952 0.80742 0.197 0.0
C1079 C 0.37454 0.82747 0.19578 0.0
C1080 C 0.38622 0.8403 0.18483 0.0
C1081 C 0.403 0.83327 0.17512 0.0
C1082 C 0.40815 0.81341 0.17638 0.0
C1083 C 0.39651 0.80051 0.1873 0.0
H1084 H 0.41203 0.84323 0.16666 0.0
H1085 H 0.29918 0.71679 0.27128 0.0
H1086 H 0.18372 0.15465 0.67775 0.0
H1087 H 0.16316 0.16898 0.70316 0.0
H1088 H 0.12849 0.19977 0.66024 0.0
H1089 H 0.14915 0.18575 0.63471 0.0
H1090 H 0.14063 0.22391 0.68828 0.0
H1091 H 0.1093 0.16084 0.68505 0.0
H1092 H 0.10857 0.12461 0.68476 0.0
H1093 H 0.13279 0.12322 0.74214 0.0
H1094 H 0.13399 0.15946 0.74265 0.0
H1095 H 0.07148 0.26419 0.75132 0.0
H1096 H 0.08321 0.24161 0.72647 0.0
H1097 H 0.12205 0.21368 0.76783 0.0
H1098 H 0.11027 0.23614 0.79294 0.0
H1099 H 0.10613 0.18713 0.74035 0.0
H1100 H 0.14019 0.24932 0.74257 0.0
H1101 H 0.14208 0.2855 0.74307 0.0
H1102 H 0.11395 0.28818 0.68744 0.0
H1103 H 0.11146 0.252 0.68681 0.0
C1104 C 0.17161 0.16433 0.67367 0.0
C1105 C 0.16817 0.16915 0.65418 0.0
C1106 C 0.1598 0.17242 0.68823 0.0
C1107 C 0.14421 0.18533 0.68358 0.0
C1108 C 0.14044 0.18982 0.66413 0.0
C1109 C 0.15226 0.18177 0.64956 0.0
C1110 C 0.13274 0.19524 0.69904 0.0
C1111 C 0.13276 0.21584 0.69943 0.0
C1112 C 0.12299 0.18468 0.71392 0.0
C1113 C 0.12189 0.16289 0.71382 0.0
C1114 C 0.11459 0.15282 0.69756 0.0
C1115 C 0.11408 0.13228 0.69736 0.0
C1116 C 0.12067 0.12162 0.7134 0.0
C1117 C 0.12771 0.1315 0.72971 0.0
C1118 C 0.12829 0.15204 0.72997 0.0
C1119 C 0.08219 0.25299 0.75529 0.0
C1120 C 0.09022 0.25222 0.77404 0.0
C1121 C 0.08885 0.24007 0.74105 0.0
C1122 C 0.10374 0.22625 0.74526 0.0
C1123 C 0.11058 0.22431 0.76431 0.0
C1124 C 0.10387 0.23721 0.77862 0.0
C1125 C 0.11391 0.21572 0.72937 0.0
C1126 C 0.11379 0.1951 0.72901 0.0
C1127 C 0.12371 0.22621 0.7145 0.0
C1128 C 0.12544 0.24796 0.71474 0.0
C1129 C 0.13426 0.25762 0.73051 0.0
C1130 C 0.13546 0.27813 0.73081 0.0
C1131 C 0.12813 0.28913 0.7153 0.0
C1132 C 0.1196 0.27964 0.69945 0.0
C1133 C 0.11827 0.25913 0.69912 0.0
H1134 H 0.12909 0.30501 0.71556 0.0
H1135 H 0.1203 0.10572 0.7132 0.0
H1136 H 0.67966 0.85401 0.72389 0.0
H1137 H 0.71165 0.84791 0.70823 0.0
H1138 H 0.73422 0.90258 0.73064 0.0
H1139 H 0.70238 0.90864 0.74683 0.0
H1140 H 0.74553 0.88846 0.68785 0.0
H1141 H 0.74617 0.8724 0.75725 0.0
H1142 H 0.7312 0.85659 0.78584 0.0
H1143 H 0.73307 0.80064 0.75726 0.0
H1144 H 0.74773 0.81622 0.72837 0.0
H1145 H 0.85102 0.85003 0.71292 0.0
H1146 H 0.81789 0.8622 0.72106 0.0
H1147 H 0.79491 0.83899 0.66761 0.0
H1148 H 0.82807 0.82654 0.65935 0.0
H1149 H 0.78358 0.83863 0.72522 0.0
H1150 H 0.7574 0.8729 0.65359 0.0
H1151 H 0.77162 0.88854 0.62455 0.0
H1152 H 0.82169 0.90844 0.65771 0.0
H1153 H 0.80763 0.89316 0.68697 0.0
C1154 C 0.69122 0.86501 0.72509 0.0
C1155 C 0.68859 0.88172 0.73676 0.0
C1156 C 0.70946 0.86149 0.7161 0.0
C1157 C 0.72518 0.87479 0.71836 0.0
C1158 C 0.72214 0.89224 0.7287 0.0
C1159 C 0.70401 0.8956 0.738 0.0
C1160 C 0.74543 0.86908 0.71244 0.0
C1161 C 0.7539 0.87756 0.69593 0.0
C1162 C 0.75623 0.85493 0.72311 0.0
C1163 C 0.74782 0.8455 0.7406 0.0
C1164 C 0.74322 0.85676 0.75701 0.0
C1165 C 0.73482 0.84784 0.77328 0.0
C1166 C 0.73113 0.82763 0.77335 0.0
C1167 C 0.7359 0.81629 0.75718 0.0
C1168 C 0.74426 0.82516 0.74086 0.0
C1169 C 0.83899 0.84762 0.70279 0.0
C1170 C 0.84217 0.83726 0.68551 0.0
C1171 C 0.82006 0.85454 0.70751 0.0
C1172 C 0.80404 0.85151 0.69491 0.0
C1173 C 0.80717 0.84157 0.67744 0.0
C1174 C 0.82609 0.83442 0.6728 0.0
C1175 C 0.78389 0.85802 0.70057 0.0
C1176 C 0.77531 0.84955 0.71705 0.0
C1177 C 0.77308 0.87218 0.68983 0.0
C1178 C 0.78155 0.8817 0.67241 0.0
C1179 C 0.77141 0.88067 0.65469 0.0
C1180 C 0.77945 0.88947 0.63819 0.0
C1181 C 0.79758 0.89942 0.63927 0.0
C1182 C 0.80768 0.90065 0.65687 0.0
C1183 C 0.7997 0.8919 0.67341 0.0
H1184 H 0.80379 0.9062 0.62648 0.0
H1185 H 0.72461 0.82076 0.78595 0.0
H1186 H 0.62855 0.12092 0.19946 0.0
H1187 H 0.66076 0.10682 0.20804 0.0
H1188 H 0.69025 0.14973 0.17222 0.0
H1189 H 0.65801 0.16376 0.16324 0.0
H1190 H 0.70792 0.11377 0.16938 0.0
H1191 H 0.68649 0.15712 0.22012 0.0
H1192 H 0.66326 0.16994 0.24462 0.0
H1193 H 0.66396 0.11422 0.27381 0.0
H1194 H 0.68701 0.10098 0.24931 0.0
H1195 H 0.80273 0.11689 0.21592 0.0
H1196 H 0.77061 0.12204 0.20025 0.0
H1197 H 0.74386 0.07927 0.23821 0.0
H1198 H 0.77585 0.07424 0.25419 0.0
H1199 H 0.72428 0.1131 0.23925 0.0
H1200 H 0.74857 0.07075 0.18942 0.0
H1201 H 0.7723 0.05884 0.16493 0.0
H1202 H 0.76711 0.11342 0.13412 0.0
H1203 H 0.74355 0.12578 0.15857 0.0
C1204 C 0.64185 0.12729 0.19326 0.0
C1205 C 0.64072 0.14363 0.18084 0.0
C1206 C 0.66026 0.1192 0.19819 0.0
C1207 C 0.67789 0.12743 0.191 0.0
C1208 C 0.6768 0.14319 0.17796 0.0
C1209 C 0.65837 0.15123 0.17291 0.0
C1210 C 0.69746 0.12037 0.19804 0.0
C1211 C 0.71161 0.11375 0.18463 0.0
C1212 C 0.70208 0.12004 0.21797 0.0
C1213 C 0.6883 0.128 0.23277 0.0
C1214 C 0.68157 0.14756 0.23168 0.0
C1215 C 0.66846 0.15491 0.24558 0.0
C1216 C 0.66209 0.14289 0.26073 0.0
C1217 C 0.66888 0.1235 0.26205 0.0
C1218 C 0.68198 0.11607 0.24817 0.0
C1219 C 0.79012 0.10825 0.22068 0.0
C1220 C 0.79182 0.0953 0.23646 0.0
C1221 C 0.77176 0.11117 0.21163 0.0
C1222 C 0.75483 0.10103 0.21805 0.0
C1223 C 0.75674 0.08729 0.23307 0.0
C1224 C 0.77505 0.08442 0.24217 0.0
C1225 C 0.73484 0.10635 0.21063 0.0
C1226 C 0.72059 0.11283 0.224 0.0
C1227 C 0.73025 0.10664 0.19068 0.0
C1228 C 0.74441 0.09925 0.17593 0.0
C1229 C 0.75261 0.08028 0.17751 0.0
C1230 C 0.76601 0.07344 0.16362 0.0
C1231 C 0.77124 0.08539 0.14801 0.0
C1232 C 0.76305 0.10419 0.14623 0.0
C1233 C 0.74965 0.11111 0.16009 0.0
H1234 H 0.78162 0.08006 0.13726 0.0
H1235 H 0.65194 0.1486 0.27148 0.0
H1236 H 0.3378 0.66185 0.3222 0.0
H1237 H 0.30576 0.64842 0.31212 0.0
H1238 H 0.33546 0.61111 0.27084 0.0
H1239 H 0.36753 0.6246 0.28063 0.0
H1240 H 0.30688 0.63276 0.2543 0.0
H1241 H 0.31221 0.59154 0.31026 0.0
H1242 H 0.31751 0.5844 0.3448 0.0
H1243 H 0.26686 0.61987 0.35947 0.0
H1244 H 0.26138 0.62744 0.32502 0.0
H1245 H 0.22056 0.58705 0.21969 0.0
H1246 H 0.25248 0.59069 0.23611 0.0
H1247 H 0.22537 0.62935 0.27784 0.0
H1248 H 0.19326 0.62563 0.26166 0.0
H1249 H 0.25288 0.60494 0.29474 0.0
H1250 H 0.24929 0.6487 0.24041 0.0
H1251 H 0.2443 0.65814 0.20637 0.0
H1252 H 0.29204 0.61991 0.18931 0.0
H1253 H 0.29714 0.61005 0.22327 0.0
C1254 C 0.33757 0.65053 0.31122 0.0
C1255 C 0.35522 0.64445 0.30208 0.0
C1256 C 0.31923 0.64279 0.30554 0.0
C1257 C 0.31824 0.62873 0.29076 0.0
C1258 C 0.33591 0.62197 0.28227 0.0
C1259 C 0.35423 0.6297 0.28789 0.0
C1260 C 0.29877 0.62266 0.28272 0.0
C1261 C 0.29523 0.62626 0.26308 0.0
C1262 C 0.28336 0.61487 0.29433 0.0
C1263 C 0.28648 0.61018 0.31505 0.0
C1264 C 0.30228 0.59793 0.32086 0.0
C1265 C 0.3053 0.59378 0.34042 0.0
C1266 C 0.29256 0.60171 0.35433 0.0
C1267 C 0.27672 0.61375 0.34868 0.0
C1268 C 0.27363 0.61795 0.32913 0.0
C1269 C 0.22128 0.59614 0.23251 0.0
C1270 C 0.20438 0.60624 0.23922 0.0
C1271 C 0.23956 0.59821 0.24186 0.0
C1272 C 0.24133 0.61052 0.25802 0.0
C1273 C 0.22431 0.61981 0.26537 0.0
C1274 C 0.20599 0.61772 0.25604 0.0
C1275 C 0.26116 0.61487 0.26631 0.0
C1276 C 0.26468 0.61113 0.28597 0.0
C1277 C 0.27659 0.62273 0.25479 0.0
C1278 C 0.27343 0.62846 0.23434 0.0
C1279 C 0.25859 0.64216 0.22937 0.0
C1280 C 0.25577 0.64761 0.2101 0.0
C1281 C 0.26781 0.63958 0.19568 0.0
C1282 C 0.2827 0.62609 0.2005 0.0
C1283 C 0.28557 0.62057 0.21976 0.0
H1284 H 0.26566 0.64384 0.18078 0.0
H1285 H 0.29493 0.5985 0.36947 0.0
H1286 H 0.27274 0.39976 0.72768 0.0
H1287 H 0.24192 0.39293 0.74492 0.0
H1288 H 0.27376 0.35528 0.78452 0.0
H1289 H 0.30467 0.36173 0.76711 0.0
H1290 H 0.24289 0.33677 0.76962 0.0
H1291 H 0.25282 0.39908 0.79956 0.0
H1292 H 0.25978 0.43461 0.80113 0.0
H1293 H 0.20747 0.44662 0.76749 0.0
H1294 H 0.20033 0.41114 0.76548 0.0
H1295 H 0.15414 0.31562 0.82096 0.0
H1296 H 0.18753 0.3281 0.81426 0.0
H1297 H 0.16372 0.36585 0.76978 0.0
H1298 H 0.1303 0.35366 0.77647 0.0
H1299 H 0.19187 0.38459 0.79144 0.0
H1300 H 0.18481 0.32281 0.75772 0.0
H1301 H 0.17778 0.28733 0.75511 0.0
H1302 H 0.22479 0.27473 0.79529 0.0
H1303 H 0.232 0.31017 0.79826 0.0
C1304 C 0.27331 0.39033 0.74028 0.0
C1305 C 0.29116 0.38115 0.7459 0.0
C1306 C 0.25565 0.38652 0.7502 0.0
C1307 C 0.25554 0.37364 0.76607 0.0
C1308 C 0.27351 0.36524 0.7723 0.0
C1309 C 0.29117 0.36898 0.76234 0.0
C1310 C 0.23641 0.36738 0.77476 0.0
C1311 C 0.23193 0.34723 0.77482 0.0
C1312 C 0.2219 0.38103 0.78106 0.0
C1313 C 0.22612 0.40241 0.78226 0.0
C1314 C 0.24288 0.40928 0.79237 0.0
C1315 C 0.24684 0.42942 0.79336 0.0
C1316 C 0.2341 0.44286 0.78438 0.0
C1317 C 0.21733 0.43619 0.77443 0.0
C1318 C 0.21331 0.41607 0.77338 0.0
C1319 C 0.15597 0.32667 0.80984 0.0
C1320 C 0.13956 0.33352 0.79914 0.0
C1321 C 0.17506 0.33377 0.80602 0.0
C1322 C 0.17809 0.34776 0.79141 0.0
C1323 C 0.16168 0.35507 0.78113 0.0
C1324 C 0.1426 0.348 0.78492 0.0
C1325 C 0.19842 0.35409 0.78609 0.0
C1326 C 0.20304 0.37419 0.78657 0.0
C1327 C 0.21307 0.34043 0.78019 0.0
C1328 C 0.20879 0.31913 0.77838 0.0
C1329 C 0.19354 0.31248 0.76611 0.0
C1330 C 0.18954 0.29238 0.76454 0.0
C1331 C 0.20077 0.2788 0.77509 0.0
C1332 C 0.21608 0.28527 0.78716 0.0
C1333 C 0.22014 0.30536 0.78878 0.0
H1334 H 0.19765 0.26325 0.77386 0.0
H1335 H 0.23719 0.45845 0.78517 0.0
H1336 H 0.71587 0.68332 0.86191 0.0
H1337 H 0.69679 0.71285 0.85432 0.0
H1338 H 0.74398 0.7489 0.87715 0.0
H1339 H 0.76311 0.71931 0.88516 0.0
H1340 H 0.70692 0.7643 0.88521 0.0
H1341 H 0.7425 0.74048 0.82995 0.0
H1342 H 0.75333 0.71566 0.80625 0.0
H1343 H 0.6928 0.70736 0.78819 0.0
H1344 H 0.68157 0.73195 0.81199 0.0
H1345 H 0.68506 0.85084 0.83015 0.0
H1346 H 0.69989 0.82238 0.84618 0.0
H1347 H 0.65448 0.78505 0.82194 0.0
H1348 H 0.63972 0.81335 0.80558 0.0
H1349 H 0.69069 0.77058 0.81554 0.0
H1350 H 0.65556 0.79638 0.87048 0.0
H1351 H 0.64581 0.82183 0.89398 0.0
H1352 H 0.70659 0.82749 0.91224 0.0
H1353 H 0.71675 0.80225 0.88866 0.0
C1354 C 0.72209 0.6975 0.86561 0.0
C1355 C 0.74114 0.69899 0.87388 0.0
C1356 C 0.71116 0.71436 0.86125 0.0
C1357 C 0.71917 0.73304 0.86481 0.0
C1358 C 0.73759 0.7346 0.87422 0.0
C1359 C 0.74851 0.71768 0.87875 0.0
C1360 C 0.70904 0.75078 0.85719 0.0
C1361 C 0.70351 0.76581 0.86997 0.0
C1362 C 0.70446 0.7526 0.83732 0.0
C1363 C 0.71118 0.73791 0.82288 0.0
C1364 C 0.73148 0.73326 0.82102 0.0
C1365 C 0.7377 0.71925 0.80755 0.0
C1366 C 0.72375 0.7099 0.79575 0.0
C1367 C 0.70357 0.71459 0.79736 0.0
C1368 C 0.69728 0.72858 0.81082 0.0
C1369 C 0.67804 0.83662 0.82843 0.0
C1370 C 0.66125 0.83436 0.8165 0.0
C1371 C 0.68651 0.82038 0.83769 0.0
C1372 C 0.67821 0.80162 0.83536 0.0
C1373 C 0.66111 0.79941 0.82392 0.0
C1374 C 0.6527 0.81561 0.81459 0.0
C1375 C 0.68819 0.78406 0.84358 0.0
C1376 C 0.69389 0.76907 0.83084 0.0
C1377 C 0.69304 0.78243 0.86343 0.0
C1378 C 0.68694 0.79754 0.87768 0.0
C1379 C 0.66687 0.80315 0.8794 0.0
C1380 C 0.66127 0.81752 0.89276 0.0
C1381 C 0.67558 0.8263 0.90456 0.0
C1382 C 0.69552 0.82069 0.90307 0.0
C1383 C 0.70121 0.80634 0.88973 0.0
H1384 H 0.67121 0.83743 0.91489 0.0
H1385 H 0.72859 0.69906 0.78534 0.0
H1386 H 0.17749 0.63843 0.13863 0.0
H1387 H 0.18755 0.66692 0.11944 0.0
H1388 H 0.16202 0.70561 0.1621 0.0
H1389 H 0.15144 0.67729 0.18108 0.0
H1390 H 0.15588 0.71975 0.12625 0.0
H1391 H 0.21187 0.6926 0.16254 0.0
H1392 H 0.23514 0.66607 0.17151 0.0
H1393 H 0.25416 0.66129 0.11251 0.0
H1394 H 0.23073 0.68759 0.10314 0.0
H1395 H 0.21306 0.80597 0.12871 0.0
H1396 H 0.19395 0.77585 0.13215 0.0
H1397 H 0.22864 0.74876 0.08699 0.0
H1398 H 0.24832 0.77877 0.08385 0.0
H1399 H 0.22873 0.72647 0.11709 0.0
H1400 H 0.1775 0.75806 0.08179 0.0
H1401 H 0.15434 0.78457 0.0725 0.0
H1402 H 0.12641 0.78137 0.12816 0.0
H1403 H 0.14959 0.75504 0.13791 0.0
C1404 C 0.17382 0.653 0.14383 0.0
C1405 C 0.16391 0.65559 0.16153 0.0
C1406 C 0.17958 0.66926 0.13283 0.0
C1407 C 0.17582 0.6884 0.1395 0.0
C1408 C 0.16509 0.69099 0.15668 0.0
C1409 C 0.15916 0.67475 0.16758 0.0
C1410 C 0.18442 0.70575 0.1296 0.0
C1411 C 0.17181 0.7213 0.12424 0.0
C1412 C 0.20514 0.70747 0.12639 0.0
C1413 C 0.2194 0.69187 0.13211 0.0
C1414 C 0.22094 0.6858 0.15147 0.0
C1415 C 0.23416 0.67081 0.15663 0.0
C1416 C 0.2461 0.66196 0.14258 0.0
C1417 C 0.24488 0.66813 0.12336 0.0
C1418 C 0.23163 0.68306 0.11812 0.0
C1419 C 0.21639 0.79378 0.1192 0.0
C1420 C 0.23238 0.79472 0.10615 0.0
C1421 C 0.20531 0.77656 0.12109 0.0
C1422 C 0.20974 0.76003 0.10974 0.0
C1423 C 0.22496 0.76131 0.09591 0.0
C1424 C 0.23619 0.77849 0.09413 0.0
C1425 C 0.20027 0.74084 0.11414 0.0
C1426 C 0.21274 0.72489 0.11856 0.0
C1427 C 0.17943 0.73879 0.1164 0.0
C1428 C 0.16538 0.75461 0.11061 0.0
C1429 C 0.16652 0.7631 0.0921 0.0
C1430 C 0.15336 0.77808 0.08675 0.0
C1431 C 0.13893 0.78467 0.09974 0.0
C1432 C 0.1376 0.77625 0.11811 0.0
C1433 C 0.15072 0.76126 0.12355 0.0
H1434 H 0.12876 0.79627 0.09557 0.0
H1435 H 0.25631 0.65033 0.14656 0.0
H1436 H 0.3016 0.35503 0.64532 0.0
H1437 H 0.2887 0.32778 0.62601 0.0
H1438 H 0.32573 0.28722 0.6578 0.0
H1439 H 0.33892 0.31428 0.6769 0.0
H1440 H 0.32478 0.27785 0.61995 0.0
H1441 H 0.27718 0.29447 0.67005 0.0
H1442 H 0.25449 0.31662 0.68766 0.0
H1443 H 0.22124 0.32689 0.63563 0.0
H1444 H 0.24391 0.30496 0.61765 0.0
H1445 H 0.27505 0.18702 0.62432 0.0
H1446 H 0.29215 0.21833 0.62796 0.0
H1447 H 0.24866 0.24632 0.59121 0.0
H1448 H 0.23125 0.21499 0.58761 0.0
H1449 H 0.25233 0.26507 0.62493 0.0
H1450 H 0.29687 0.24265 0.57655 0.0
H1451 H 0.31931 0.21947 0.55998 0.0
H1452 H 0.35822 0.21912 0.60918 0.0
H1453 H 0.33588 0.24208 0.62618 0.0
C1454 C 0.30716 0.34034 0.64807 0.0
C1455 C 0.32115 0.33682 0.66281 0.0
C1456 C 0.29975 0.32479 0.63703 0.0
C1457 C 0.3061 0.30545 0.64063 0.0
C1458 C 0.32065 0.30203 0.65477 0.0
C1459 C 0.32808 0.31753 0.66576 0.0
C1460 C 0.29673 0.28853 0.63071 0.0
C1461 C 0.30895 0.275 0.62103 0.0
C1462 C 0.27599 0.28513 0.63167 0.0
C1463 C 0.26238 0.2983 0.64246 0.0
C1464 C 0.26513 0.30158 0.66233 0.0
C1465 C 0.25226 0.31407 0.67239 0.0
C1466 C 0.23648 0.32321 0.66275 0.0
C1467 C 0.2335 0.31984 0.64306 0.0
C1468 C 0.24635 0.30738 0.63293 0.0
C1469 C 0.2693 0.19972 0.61668 0.0
C1470 C 0.25166 0.19852 0.60582 0.0
C1471 C 0.27919 0.21762 0.61868 0.0
C1472 C 0.27173 0.23466 0.60979 0.0
C1473 C 0.25468 0.23333 0.59817 0.0
C1474 C 0.24478 0.2154 0.59611 0.0
C1475 C 0.28044 0.25406 0.61455 0.0
C1476 C 0.2681 0.26808 0.62335 0.0
C1477 C 0.30106 0.25781 0.61286 0.0
C1478 C 0.31461 0.24403 0.60269 0.0
C1479 C 0.31014 0.23753 0.5839 0.0
C1480 C 0.32286 0.22444 0.57442 0.0
C1481 C 0.34017 0.21781 0.58353 0.0
C1482 C 0.34481 0.22428 0.60214 0.0
C1483 C 0.33214 0.23736 0.61169 0.0
H1484 H 0.34999 0.20768 0.57617 0.0
H1485 H 0.22653 0.33287 0.67056 0.0
H1486 H 0.77505 0.29735 0.34552 0.0
H1487 H 0.79364 0.26687 0.34152 0.0
H1488 H 0.75989 0.2402 0.38755 0.0
H1489 H 0.74083 0.2706 0.39143 0.0
H1490 H 0.81674 0.24211 0.36263 0.0
H1491 H 0.74779 0.19362 0.37312 0.0
H1492 H 0.71117 0.19663 0.37265 0.0
H1493 H 0.71537 0.24424 0.33207 0.0
H1494 H 0.75188 0.2412 0.33198 0.0
H1495 H 0.80913 0.12947 0.33546 0.0
H1496 H 0.79791 0.15809 0.35383 0.0
H1497 H 0.82812 0.19638 0.31374 0.0
H1498 H 0.83968 0.16795 0.29555 0.0
H1499 H 0.77405 0.18651 0.342 0.0
H1500 H 0.84258 0.23808 0.33501 0.0
H1501 H 0.87914 0.23521 0.33374 0.0
H1502 H 0.87642 0.18106 0.36553 0.0
H1503 H 0.83989 0.18375 0.36727 0.0
C1504 C 0.77173 0.28513 0.35503 0.0
C1505 C 0.75617 0.2863 0.36855 0.0
C1506 C 0.7825 0.26774 0.35279 0.0
C1507 C 0.77794 0.25119 0.36403 0.0
C1508 C 0.76344 0.25274 0.37855 0.0
C1509 C 0.75256 0.27012 0.38073 0.0
C1510 C 0.78669 0.23189 0.35887 0.0
C1511 C 0.80746 0.22991 0.35814 0.0
C1512 C 0.77454 0.21587 0.35336 0.0
C1513 C 0.75254 0.21735 0.35277 0.0
C1514 C 0.74085 0.20464 0.36403 0.0
C1515 C 0.72012 0.20634 0.36384 0.0
C1516 C 0.71093 0.22065 0.35239 0.0
C1517 C 0.72245 0.23317 0.34096 0.0
C1518 C 0.74317 0.23146 0.34101 0.0
C1519 C 0.81357 0.14398 0.33067 0.0
C1520 C 0.8253 0.14643 0.31402 0.0
C1521 C 0.80715 0.1603 0.3412 0.0
C1522 C 0.81237 0.17935 0.33531 0.0
C1523 C 0.82427 0.18181 0.31883 0.0
C1524 C 0.83077 0.16552 0.30836 0.0
C1525 C 0.80417 0.19676 0.34542 0.0
C1526 C 0.78344 0.19844 0.34698 0.0
C1527 C 0.8164 0.21249 0.35157 0.0
C1528 C 0.83845 0.21107 0.35116 0.0
C1529 C 0.84978 0.22564 0.34187 0.0
C1530 C 0.87051 0.22402 0.34104 0.0
C1531 C 0.88009 0.20794 0.34951 0.0
C1532 C 0.86898 0.19348 0.35892 0.0
C1533 C 0.84826 0.19504 0.35983 0.0
H1534 H 0.89613 0.20669 0.3488 0.0
H1535 H 0.6949 0.22202 0.35237 0.0
H1536 H 0.14723 0.19544 0.55046 0.0
H1537 H 0.13038 0.20325 0.52006 0.0
H1538 H 0.16666 0.16025 0.49065 0.0
H1539 H 0.18425 0.15329 0.52073 0.0
H1540 H 0.16344 0.18936 0.46861 0.0
H1541 H 0.11599 0.15229 0.50529 0.0
H1542 H 0.09477 0.14417 0.53322 0.0
H1543 H 0.06393 0.19913 0.52695 0.0
H1544 H 0.08515 0.20769 0.49912 0.0
H1545 H 0.10143 0.16448 0.3903 0.0
H1546 H 0.11322 0.16257 0.42358 0.0
H1547 H 0.09889 0.22372 0.43198 0.0
H1548 H 0.08739 0.22599 0.39836 0.0
H1549 H 0.08969 0.18888 0.46459 0.0
H1550 H 0.13985 0.22382 0.42564 0.0
H1551 H 0.15942 0.22668 0.39564 0.0
H1552 H 0.18396 0.16916 0.40513 0.0
H1553 H 0.16425 0.16585 0.43504 0.0
C1554 C 0.15164 0.18776 0.53746 0.0
C1555 C 0.167 0.17374 0.53792 0.0
C1556 C 0.14192 0.19212 0.52012 0.0
C1557 C 0.14696 0.18209 0.50307 0.0
C1558 C 0.16249 0.16824 0.50355 0.0
C1559 C 0.17252 0.16423 0.52077 0.0
C1560 C 0.13614 0.18587 0.48469 0.0
C1561 C 0.14732 0.1892 0.46786 0.0
C1562 C 0.11505 0.18582 0.48353 0.0
C1563 C 0.10231 0.18073 0.50028 0.0
C1564 C 0.10479 0.16271 0.50997 0.0
C1565 C 0.09274 0.15802 0.52576 0.0
C1566 C 0.07806 0.17115 0.5319 0.0
C1567 C 0.07535 0.18899 0.52221 0.0
C1568 C 0.08737 0.19377 0.50642 0.0
C1569 C 0.10042 0.17747 0.39927 0.0
C1570 C 0.09368 0.19546 0.39166 0.0
C1571 C 0.10712 0.17631 0.41829 0.0
C1572 C 0.10694 0.19301 0.43007 0.0
C1573 C 0.09905 0.2107 0.423 0.0
C1574 C 0.09257 0.21196 0.40383 0.0
C1575 C 0.11707 0.19229 0.44894 0.0
C1576 C 0.10579 0.1894 0.46567 0.0
C1577 C 0.13803 0.19224 0.45 0.0
C1578 C 0.15048 0.19455 0.43247 0.0
C1579 C 0.14934 0.21175 0.42126 0.0
C1580 C 0.16046 0.21345 0.40429 0.0
C1581 C 0.1729 0.19809 0.39846 0.0
C1582 C 0.17432 0.18104 0.40966 0.0
C1583 C 0.16319 0.17926 0.42663 0.0
H1584 H 0.18146 0.19942 0.3853 0.0
H1585 H 0.06874 0.16749 0.54412 0.0
H1586 H 0.30018 0.81463 0.02309 0.0
H1587 H 0.3182 0.80361 -0.0055 0.0
H1588 H 0.36729 0.78494 0.03031 0.0
H1589 H 0.34947 0.79632 0.05902 0.0
H1590 H 0.38062 0.80495 0.00065 0.0
H1591 H 0.33719 0.75091 0.00848 0.0
H1592 H 0.30542 0.73369 0.01388 0.0
H1593 H 0.28213 0.75778 0.96115 0.0
H1594 H 0.31365 0.77538 0.95557 0.0
H1595 H 0.39064 0.7518 0.89907 0.0
H1596 H 0.38236 0.75105 0.93353 0.0
H1597 H 0.38322 0.81445 0.93497 0.0
H1598 H 0.39185 0.81529 0.90084 0.0
H1599 H 0.3497 0.76426 0.9494 0.0
H1600 H 0.39461 0.83159 0.9784 0.0
H1601 H 0.42772 0.84645 0.97396 0.0
H1602 H 0.45101 0.79093 0.95505 0.0
H1603 H 0.41812 0.77565 0.95964 0.0
C1604 C 0.31474 0.80803 0.02492 0.0
C1605 C 0.32341 0.80636 0.04331 0.0
C1606 C 0.32498 0.80163 0.00856 0.0
C1607 C 0.344 0.79322 0.01028 0.0
C1608 C 0.35262 0.79134 0.02866 0.0
C1609 C 0.3424 0.79782 0.04504 0.0
C1610 C 0.3552 0.78747 -0.00728 0.0
C1611 C 0.37396 0.7959 0.9895 0.0
C1612 C 0.34678 0.77517 0.97843 0.0
C1613 C 0.32778 0.76456 0.98166 0.0
C1614 C 0.32525 0.75265 -0.0019 0.0
C1615 C 0.30729 0.7428 0.00118 0.0
C1616 C 0.29176 0.74466 0.98788 0.0
C1617 C 0.29418 0.75635 0.97144 0.0
C1618 C 0.3121 0.76624 0.96829 0.0
C1619 C 0.38947 0.76556 0.90686 0.0
C1620 C 0.39179 0.78362 0.89723 0.0
C1621 C 0.38468 0.7651 0.92651 0.0
C1622 C 0.38228 0.78268 0.93687 0.0
C1623 C 0.38534 0.80068 0.92741 0.0
C1624 C 0.39015 0.80115 0.90782 0.0
C1625 C 0.37469 0.7825 0.95698 0.0
C1626 C 0.35658 0.77297 0.96068 0.0
C1627 C 0.38391 0.79344 0.97186 0.0
C1628 C 0.40383 0.8025 0.96927 0.0
C1629 C 0.40681 0.82251 0.97341 0.0
C1630 C 0.42555 0.83102 0.97084 0.0
C1631 C 0.44145 0.81965 0.96419 0.0
C1632 C 0.43867 0.79973 0.96014 0.0
C1633 C 0.41997 0.79115 0.9627 0.0
H1634 H 0.45594 0.82627 0.9622 0.0
H1635 H 0.27787 0.73703 0.99029 0.0
H1636 H 0.7014 0.29961 0.45559 0.0
H1637 H 0.68632 0.29036 0.48643 0.0
H1638 H 0.62789 0.2964 0.46122 0.0
H1639 H 0.64285 0.30507 0.43029 0.0
H1640 H 0.66434 0.31128 0.50896 0.0
H1641 H 0.59447 0.2676 0.48365 0.0
H1642 H 0.5851 0.24445 0.45782 0.0
H1643 H 0.64618 0.22701 0.45159 0.0
H1644 H 0.65588 0.24983 0.47755 0.0
H1645 H 0.59141 0.31717 0.5789 0.0
H1646 H 0.60545 0.31548 0.54647 0.0
H1647 H 0.62281 0.25525 0.55635 0.0
H1648 H 0.60869 0.25677 0.58895 0.0
H1649 H 0.60998 0.2628 0.51791 0.0
H1650 H 0.65607 0.28716 0.56443 0.0
H1651 H 0.66676 0.30809 0.59155 0.0
H1652 H 0.6575 0.35968 0.55688 0.0
H1653 H 0.64638 0.33906 0.52965 0.0
C1654 C 0.68535 0.29871 0.45657 0.0
C1655 C 0.67331 0.30308 0.44052 0.0
C1656 C 0.67675 0.29345 0.4742 0.0
C1657 C 0.65597 0.29251 0.47613 0.0
C1658 C 0.64395 0.2966 0.46002 0.0
C1659 C 0.65254 0.30169 0.44236 0.0
C1660 C 0.6468 0.28871 0.49527 0.0
C1661 C 0.65257 0.30057 0.51088 0.0
C1662 C 0.63164 0.2745 0.49796 0.0
C1663 C 0.62591 0.26056 0.48246 0.0
C1664 C 0.60589 0.25876 0.47684 0.0
C1665 C 0.60052 0.24571 0.46216 0.0
C1666 C 0.61504 0.23431 0.45303 0.0
C1667 C 0.63495 0.2359 0.45861 0.0
C1668 C 0.6404 0.24891 0.47329 0.0
C1669 C 0.59783 0.30342 0.57407 0.0
C1670 C 0.59923 0.2872 0.58658 0.0
C1671 C 0.60585 0.30249 0.55554 0.0
C1672 C 0.61545 0.28536 0.54921 0.0
C1673 C 0.6155 0.26862 0.56105 0.0
C1674 C 0.60746 0.26953 0.57966 0.0
C1675 C 0.62717 0.28578 0.53115 0.0
C1676 C 0.62189 0.27334 0.51587 0.0
C1677 C 0.64313 0.2991 0.52885 0.0
C1678 C 0.65024 0.31156 0.54504 0.0
C1679 C 0.65619 0.30297 0.56262 0.0
C1680 C 0.66233 0.31478 0.57802 0.0
C1681 C 0.66278 0.3352 0.57595 0.0
C1682 C 0.65714 0.34385 0.55846 0.0
C1683 C 0.65092 0.33211 0.54303 0.0
H1684 H 0.66753 0.34432 0.58789 0.0
H1685 H 0.61086 0.22422 0.44166 0.0
H1686 H 0.90837 0.6659 0.08752 0.0
H1687 H 0.89839 0.6654 0.05362 0.0
H1688 H 0.87763 0.72527 0.05832 0.0
H1689 H 0.88812 0.72602 0.09214 0.0
H1690 H 0.86199 0.66758 0.04186 0.0
H1691 H 0.87637 0.74676 0.01359 0.0
H1692 H 0.90109 0.77322 0.01747 0.0
H1693 H 0.94553 0.73075 0.0333 0.0
H1694 H 0.92117 0.70401 0.02927 0.0
H1695 H 0.80071 0.68341 0.96193 0.0
H1696 H 0.8182 0.69018 -0.00785 0.0
H1697 H 0.8744 0.68808 0.96218 0.0
H1698 H 0.857 0.68167 0.93181 0.0
H1699 H 0.87462 0.7163 0.98993 0.0
H1700 H 0.8581 0.64794 0.98499 0.0
H1701 H 0.83592 0.61954 0.98002 0.0
H1702 H 0.801 0.63685 0.02906 0.0
H1703 H 0.82282 0.66552 0.03415 0.0
C1704 C 0.90208 0.6791 0.08121 0.0
C1705 C 0.89888 0.69595 0.09249 0.0
C1706 C 0.89634 0.67879 0.06185 0.0
C1707 C 0.88719 0.69526 0.05342 0.0
C1708 C 0.88489 0.71246 0.06441 0.0
C1709 C 0.89084 0.71286 0.08377 0.0
C1710 C 0.87824 0.69367 0.03389 0.0
C1711 C 0.86485 0.67824 0.03052 0.0
C1712 C 0.88204 0.70744 0.019 0.0
C1713 C 0.89687 0.7234 0.02131 0.0
C1714 C 0.89143 0.74306 0.01783 0.0
C1715 C 0.90538 0.75811 0.02007 0.0
C1716 C 0.92485 0.75367 0.02569 0.0
C1717 C 0.93043 0.73417 0.02903 0.0
C1718 C 0.91654 0.71907 0.0268 0.0
C1719 C 0.81677 0.68468 0.96171 0.0
C1720 C 0.8275 0.68177 0.94453 0.0
C1721 C 0.82674 0.68852 0.97899 0.0
C1722 C 0.84761 0.6893 0.97944 0.0
C1723 C 0.8583 0.68749 0.96214 0.0
C1724 C 0.84832 0.68375 0.94482 0.0
C1725 C 0.85829 0.6904 -0.00186 0.0
C1726 C 0.87188 0.7057 0.00133 0.0
C1727 C 0.85507 0.67625 0.01279 0.0
C1728 C 0.84198 0.65897 0.00984 0.0
C1729 C 0.84561 0.64576 -0.00537 0.0
C1730 C 0.83311 0.62961 -0.0082 0.0
C1731 C 0.81703 0.62642 0.00419 0.0
C1732 C 0.81345 0.63935 0.01946 0.0
C1733 C 0.82588 0.65555 0.02233 0.0
H1734 H 0.80738 0.6139 0.00198 0.0
H1735 H 0.93562 0.76535 0.02742 0.0
H1736 H 0.39821 0.10355 0.22459 0.0
H1737 H 0.42948 0.12003 0.21623 0.0
H1738 H 0.42001 0.10618 0.15615 0.0
H1739 H 0.38889 0.08981 0.1643 0.0
H1740 H 0.46403 0.10934 0.19776 0.0
H1741 H 0.42973 0.14729 0.12977 0.0
H1742 H 0.39676 0.15894 0.11892 0.0
H1743 H 0.37824 0.1656 0.17788 0.0
H1744 H 0.41115 0.15436 0.18907 0.0
H1745 H 0.54124 0.14004 0.13978 0.0
H1746 H 0.50884 0.12665 0.14859 0.0
H1747 H 0.48898 0.18448 0.16543 0.0
H1748 H 0.52135 0.19812 0.15605 0.0
H1749 H 0.45881 0.16346 0.14975 0.0
H1750 H 0.50733 0.15444 0.19895 0.0
H1751 H 0.53998 0.14486 0.21224 0.0
H1752 H 0.5292 0.08479 0.19645 0.0
H1753 H 0.49664 0.09409 0.18272 0.0
C1754 C 0.40302 0.10368 0.20966 0.0
C1755 C 0.39101 0.09561 0.19506 0.0
C1756 C 0.42082 0.11314 0.20492 0.0
C1757 C 0.42674 0.11467 0.18554 0.0
C1758 C 0.41544 0.10548 0.17114 0.0
C1759 C 0.39773 0.09605 0.17585 0.0
C1760 C 0.44423 0.12655 0.18007 0.0
C1761 C 0.46292 0.1212 0.18732 0.0
C1762 C 0.44257 0.14245 0.16693 0.0
C1763 C 0.42289 0.1498 0.16025 0.0
C1764 C 0.41867 0.15137 0.14042 0.0
C1765 C 0.39997 0.15788 0.13421 0.0
C1766 C 0.38539 0.16295 0.1477 0.0
C1767 C 0.38951 0.16162 0.16744 0.0
C1768 C 0.40818 0.15516 0.17372 0.0
C1769 C 0.52982 0.14997 0.14496 0.0
C1770 C 0.53383 0.17004 0.14748 0.0
C1771 C 0.51136 0.1423 0.15005 0.0
C1772 C 0.49674 0.1545 0.15815 0.0
C1773 C 0.50015 0.17482 0.15934 0.0
C1774 C 0.51861 0.18258 0.15397 0.0
C1775 C 0.47872 0.14565 0.16679 0.0
C1776 C 0.45992 0.15166 0.16025 0.0
C1777 C 0.4802 0.13075 0.18105 0.0
C1778 C 0.49959 0.12499 0.18969 0.0
C1779 C 0.51196 0.1392 0.19822 0.0
C1780 C 0.53046 0.13383 0.20583 0.0
C1781 C 0.53667 0.11423 0.20517 0.0
C1782 C 0.52437 0.09997 0.19695 0.0
C1783 C 0.50588 0.10528 0.18926 0.0
H1784 H 0.551 0.1101 0.21106 0.0
H1785 H 0.37092 0.16795 0.14288 0.0
H1786 H 0.96348 0.79056 0.66434 0.0
H1787 H -0.00436 0.80564 0.6723 0.0
H1788 H 0.97598 0.86033 0.64718 0.0
H1789 H 0.9436 0.84562 0.63982 0.0
H1790 H 0.02206 0.83945 0.64129 0.0
H1791 H 0.96953 0.8682 0.68504 0.0
H1792 H 0.94142 0.86224 0.7072 0.0
H1793 H 0.9778 0.82326 0.74099 0.0
H1794 H 0.006 0.82876 0.71879 0.0
H1795 H 0.08904 0.91072 0.67075 0.0
H1796 H 0.05766 0.89494 0.6622 0.0
H1797 H 0.06006 0.86079 0.71474 0.0
H1798 H 0.09086 0.87738 0.72386 0.0
H1799 H 0.02358 0.86799 0.70727 0.0
H1800 H 0.07697 0.8421 0.67069 0.0
H1801 H 0.10653 0.84223 0.64961 0.0
H1802 H 0.07214 0.8681 0.60386 0.0
H1803 H 0.04242 0.86835 0.62476 0.0
C1804 C 0.96622 0.80565 0.66013 0.0
C1805 C 0.95113 0.81701 0.65155 0.0
C1806 C 0.98452 0.81422 0.6647 0.0
C1807 C 0.98799 0.83404 0.66034 0.0
C1808 C 0.97346 0.84499 0.65059 0.0
C1809 C 0.95504 0.8366 0.64645 0.0
C1810 C 0.00588 0.84399 0.66767 0.0
C1811 C 0.02244 0.8459 0.6556 0.0
C1812 C 0.00649 0.85155 0.68662 0.0
C1813 C 0.98975 0.84873 0.7002 0.0
C1814 C 0.97146 0.85825 0.69712 0.0
C1815 C 0.95553 0.85498 0.70969 0.0
C1816 C 0.9578 0.84234 0.72547 0.0
C1817 C 0.97604 0.83301 0.72875 0.0
C1818 C 0.992 0.83621 0.71619 0.0
C1819 C 0.08259 0.9002 0.68069 0.0
C1820 C 0.09254 0.89502 0.6978 0.0
C1821 C 0.06479 0.89103 0.6757 0.0
C1822 C 0.05691 0.87613 0.68746 0.0
C1823 C 0.066 0.87205 0.7053 0.0
C1824 C 0.08361 0.88155 0.71051 0.0
C1825 C 0.03985 0.8642 0.68066 0.0
C1826 C 0.02341 0.86169 0.69289 0.0
C1827 C 0.03967 0.85551 0.66202 0.0
C1828 C 0.0575 0.85541 0.64936 0.0
C1829 C 0.07574 0.84795 0.65618 0.0
C1830 C 0.09252 0.84793 0.64426 0.0
C1831 C 0.09122 0.85522 0.62543 0.0
C1832 C 0.07313 0.86249 0.61846 0.0
C1833 C 0.0563 0.86255 0.63033 0.0
H1834 H 0.10423 0.85519 0.61621 0.0
H1835 H 0.94545 0.83981 0.73517 0.0
H1836 H 0.03995 0.34538 0.84138 0.0
H1837 H 0.00836 0.36182 0.83406 0.0
H1838 H 0.98508 0.3077 0.81101 0.0
H1839 H 0.01647 0.29093 0.8189 0.0
H1840 H 0.98802 0.34919 0.78658 0.0
H1841 H 0.96215 0.31477 0.84317 0.0
H1842 H 0.96327 0.30509 0.87749 0.0
H1843 H 0.96232 0.36582 0.8943 0.0
H1844 H 0.9615 0.37586 0.86004 0.0
H1845 H 0.89055 0.38042 0.76217 0.0
H1846 H 0.9215 0.36392 0.77066 0.0
H1847 H 0.92753 0.4015 0.82057 0.0
H1848 H 0.89561 0.41692 0.81287 0.0
H1849 H 0.93382 0.36738 0.83173 0.0
H1850 H 0.95903 0.4033 0.77772 0.0
H1851 H 0.96037 0.41565 0.74425 0.0
H1852 H 0.96577 0.35657 0.72312 0.0
H1853 H 0.96422 0.34384 0.75646 0.0
C1854 C 0.02792 0.3369 0.83516 0.0
C1855 C 0.03054 0.31693 0.83072 0.0
C1856 C 0.00997 0.34629 0.83098 0.0
C1857 C -0.00544 0.33592 0.82201 0.0
C1858 C -0.00312 0.31584 0.81803 0.0
C1859 C 0.01471 0.3063 0.82263 0.0
C1860 C 0.97669 0.34657 0.81549 0.0
C1861 C 0.97593 0.35296 0.79627 0.0
C1862 C 0.96156 0.35208 0.82848 0.0
C1863 C 0.96202 0.34606 0.84905 0.0
C1864 C 0.96242 0.32606 0.85418 0.0
C1865 C 0.96293 0.32051 0.87362 0.0
C1866 C 0.96293 0.33483 0.88807 0.0
C1867 C 0.96235 0.35474 0.8831 0.0
C1868 C 0.96185 0.36036 0.86367 0.0
C1869 C 0.89866 0.3854 0.77474 0.0
C1870 C 0.89068 0.39986 0.78694 0.0
C1871 C 0.91647 0.37602 0.77955 0.0
C1872 C 0.92704 0.3815 0.79623 0.0
C1873 C 0.91962 0.39686 0.80773 0.0
C1874 C 0.90149 0.40579 0.80325 0.0
C1875 C 0.94485 0.37021 0.80254 0.0
C1876 C 0.94575 0.3637 0.82183 0.0
C1877 C 0.96037 0.365 0.78966 0.0
C1878 C 0.96132 0.37261 0.76959 0.0
C1879 C 0.96036 0.39293 0.76593 0.0
C1880 C 0.96118 0.4 0.74698 0.0
C1881 C 0.9631 0.3869 0.73157 0.0
C1882 C 0.96426 0.3667 0.73508 0.0
C1883 C 0.96343 0.35955 0.754 0.0
H1884 H 0.96373 0.39241 0.71691 0.0
H1885 H 0.96332 0.3305 0.90311 0.0
H1886 H 0.46807 0.70273 0.31058 0.0
H1887 H 0.50035 0.68924 0.30043 0.0
H1888 H 0.49333 0.64126 0.34059 0.0
H1889 H 0.46081 0.65423 0.35019 0.0
H1890 H 0.53531 0.65972 0.33507 0.0
H1891 H 0.47684 0.6309 0.30195 0.0
H1892 H 0.44608 0.63521 0.28295 0.0
H1893 H 0.47896 0.66521 0.23871 0.0
H1894 H 0.50986 0.66141 0.25768 0.0
H1895 H 0.58946 0.57818 0.30957 0.0
H1896 H 0.56088 0.59881 0.3173 0.0
H1897 H 0.5661 0.62786 0.26212 0.0
H1898 H 0.59437 0.60672 0.25397 0.0
H1899 H 0.52775 0.62469 0.27256 0.0
H1900 H 0.58663 0.64938 0.3009 0.0
H1901 H 0.61828 0.64777 0.31881 0.0
H1902 H 0.58714 0.62992 0.36998 0.0
H1903 H 0.55525 0.63123 0.35233 0.0
C1904 C 0.47379 0.68969 0.31768 0.0
C1905 C 0.46212 0.67944 0.33114 0.0
C1906 C 0.49213 0.682 0.31185 0.0
C1907 C 0.49907 0.66429 0.31979 0.0
C1908 C 0.48819 0.65501 0.33444 0.0
C1909 C 0.46967 0.66238 0.33987 0.0
C1910 C 0.51597 0.65377 0.31103 0.0
C1911 C 0.53374 0.65205 0.32143 0.0
C1912 C 0.51401 0.64436 0.29294 0.0
C1913 C 0.49558 0.64607 0.28131 0.0
C1914 C 0.47747 0.63854 0.28824 0.0
C1915 C 0.46002 0.64088 0.27748 0.0
C1916 C 0.46056 0.65053 0.25965 0.0
C1917 C 0.47856 0.65778 0.25253 0.0
C1918 C 0.49604 0.65554 0.26328 0.0
C1919 C 0.58424 0.58862 0.29887 0.0
C1920 C 0.59446 0.59118 0.28137 0.0
C1921 C 0.56801 0.60051 0.30337 0.0
C1922 C 0.56188 0.61534 0.29057 0.0
C1923 C 0.57084 0.61671 0.27233 0.0
C1924 C 0.587 0.60462 0.2677 0.0
C1925 C 0.547 0.63004 0.29691 0.0
C1926 C 0.52958 0.6326 0.28604 0.0
C1927 C 0.54951 0.64062 0.31437 0.0
C1928 C 0.56856 0.64023 0.32524 0.0
C1929 C 0.58653 0.645 0.31595 0.0
C1930 C 0.60452 0.64414 0.32605 0.0
C1931 C 0.60475 0.63859 0.34547 0.0
C1932 C 0.58695 0.63412 0.3549 0.0
C1933 C 0.5689 0.63497 0.34487 0.0
H1934 H 0.61871 0.63793 0.35325 0.0
H1935 H 0.44703 0.65234 0.25135 0.0
H1936 H 0.16302 0.39028 0.08238 0.0
H1937 H 0.16167 0.42509 0.09089 0.0
H1938 H 0.22451 0.42422 0.10369 0.0
H1939 H 0.22605 0.38953 0.09475 0.0
H1940 H 0.16776 0.4387 0.12531 0.0
H1941 H 0.24378 0.47045 0.1 0.0
H1942 H 0.26706 0.46686 0.0727 0.0
H1943 H 0.21927 0.44728 0.03636 0.0
H1944 H 0.19567 0.451 0.06335 0.0
H1945 H 0.18831 0.52137 0.18081 0.0
H1946 H 0.19406 0.49068 0.16341 0.0
H1947 H 0.18367 0.52044 0.10927 0.0
H1948 H 0.17837 0.55135 0.12657 0.0
H1949 H 0.21251 0.49303 0.10547 0.0
H1950 H 0.1462 0.49607 0.1307 0.0
H1951 H 0.12068 0.50066 0.15587 0.0
H1952 H 0.14473 0.45198 0.18784 0.0
H1953 H 0.17058 0.44728 0.16297 0.0
C1954 C 0.17663 0.39761 0.08663 0.0
C1955 C 0.1946 0.38715 0.08806 0.0
C1956 C 0.17583 0.41749 0.09152 0.0
C1957 C 0.19297 0.42727 0.09797 0.0
C1958 C 0.21114 0.41708 0.09851 0.0
C1959 C 0.21199 0.39721 0.09346 0.0
C1960 C 0.19137 0.44738 0.10605 0.0
C1961 C 0.17751 0.45057 0.12087 0.0
C1962 C 0.20393 0.46296 0.10016 0.0
C1963 C 0.21799 0.46083 0.08378 0.0
C1964 C 0.23823 0.46545 0.08617 0.0
C1965 C 0.25148 0.46338 0.07075 0.0
C1966 C 0.24466 0.45679 0.05283 0.0
C1967 C 0.22455 0.45231 0.05027 0.0
C1968 C 0.21124 0.45436 0.06564 0.0
C1969 C 0.18755 0.52146 0.16519 0.0
C1970 C 0.18263 0.5387 0.15507 0.0
C1971 C 0.19081 0.50391 0.15526 0.0
C1972 C 0.18889 0.50322 0.13508 0.0
C1973 C 0.18515 0.52065 0.12485 0.0
C1974 C 0.18206 0.53827 0.13477 0.0
C1975 C 0.18919 0.48409 0.12489 0.0
C1976 C 0.20277 0.48111 0.10978 0.0
C1977 C 0.17606 0.46876 0.13016 0.0
C1978 C 0.16042 0.47143 0.14506 0.0
C1979 C 0.14612 0.48642 0.14316 0.0
C1980 C 0.13159 0.48904 0.15736 0.0
C1981 C 0.13111 0.47665 0.17346 0.0
C1982 C 0.14513 0.46158 0.17537 0.0
C1983 C 0.15972 0.45893 0.16122 0.0
H1984 H 0.11985 0.47869 0.18444 0.0
H1985 H 0.25495 0.45519 0.04091 0.0
H1986 H 0.66874 0.93883 0.85193 0.0
H1987 H 0.67831 0.96877 0.86916 0.0
H1988 H 0.69743 -0.00505 0.81559 0.0
H1989 H 0.68737 0.96523 0.79809 0.0
H1990 H 0.72364 -0.00129 0.8545 0.0
H1991 H 0.65809 0.00964 0.82382 0.0
H1992 H 0.62347 -0.00049 0.81751 0.0
H1993 H 0.61189 -0.00218 0.87847 0.0
H1994 H 0.64657 0.00767 0.88512 0.0
H1995 H 0.72744 0.10094 0.86866 0.0
H1996 H 0.725 0.06671 0.85896 0.0
H1997 H 0.67888 0.0574 0.90142 0.0
H1998 H 0.68022 0.09226 0.91002 0.0
H1999 H 0.66704 0.04233 0.87137 0.0
H2000 H 0.72902 0.0362 0.90353 0.0
H2001 H 0.76354 0.04417 0.91263 0.0
H2002 H 0.7826 0.03418 0.85429 0.0
H2003 H 0.74814 0.02641 0.84476 0.0
C2004 C 0.67524 0.95085 0.84384 0.0
C2005 C 0.6772 0.94979 0.82365 0.0
C2006 C 0.68072 0.96788 0.85371 0.0
C2007 C 0.68858 0.98392 0.84359 0.0
C2008 C 0.69147 0.98259 0.82359 0.0
C2009 C 0.68562 0.9657 0.81363 0.0
C2010 C 0.69194 0.00273 0.8536 0.0
C2011 C 0.71139 0.00843 0.85813 0.0
C2012 C 0.67581 0.01481 0.85898 0.0
C2013 C 0.65494 0.00914 0.85496 0.0
C2014 C 0.64821 0.00692 0.83587 0.0
C2015 C 0.62857 0.00127 0.83223 0.0
C2016 C 0.61551 -0.00204 0.84758 0.0
C2017 C 0.62204 0.00036 0.8666 0.0
C2018 C 0.64167 0.00598 0.87031 0.0
C2019 C 0.71697 0.09154 0.87612 0.0
C2020 C 0.70391 0.09925 0.89 0.0
C2021 C 0.71572 0.07184 0.87069 0.0
C2022 C 0.70194 0.05924 0.8796 0.0
C2023 C 0.68959 0.06677 0.89424 0.0
C2024 C 0.6904 0.08666 0.89922 0.0
C2025 C 0.69901 0.03889 0.87226 0.0
C2026 C 0.67951 0.03274 0.86813 0.0
C2027 C 0.71516 0.02623 0.86774 0.0
C2028 C 0.73594 0.03085 0.8734 0.0
C2029 C 0.74054 0.03583 0.8926 0.0
C2030 C 0.7601 0.04029 0.89784 0.0
C2031 C 0.77524 0.03971 0.88404 0.0
C2032 C 0.77085 0.03463 0.86497 0.0
C2033 C 0.75131 0.03016 0.85964 0.0
H2034 H 0.79038 0.04318 0.88813 0.0
H2035 H 0.60031 -0.00641 0.84474 0.0
H2036 H 0.8143 0.00912 0.30029 0.0
H2037 H 0.80366 0.98036 0.31863 0.0
H2038 H 0.78836 0.01749 0.36689 0.0
H2039 H 0.79938 0.04636 0.34871 0.0
H2040 H 0.80896 0.98695 0.37891 0.0
H2041 H 0.75184 -0.00405 0.33983 0.0
H2042 H 0.73268 0.00159 0.30995 0.0
H2043 H 0.75437 0.94716 0.28667 0.0
H2044 H 0.77389 0.94133 0.31629 0.0
H2045 H 0.75162 0.88622 0.3934 0.0
H2046 H 0.75214 0.92106 0.3846 0.0
H2047 H 0.81629 0.91946 0.38254 0.0
H2048 H 0.81589 0.88486 0.39172 0.0
H2049 H 0.76446 0.93573 0.352 0.0
H2050 H 0.83607 0.96343 0.39127 0.0
H2051 H 0.85289 0.95891 0.42263 0.0
H2052 H 0.79749 0.94221 0.4487 0.0
H2053 H 0.78027 0.94689 0.41758 0.0
C2054 C 0.80851 0.0112 0.31474 0.0
C2055 C 0.80769 0.03 0.32306 0.0
C2056 C 0.80233 -0.00525 0.32518 0.0
C2057 C 0.795 -0.0032 0.34406 0.0
C2058 C 0.79393 0.01559 0.35233 0.0
C2059 C 0.80019 0.03206 0.34191 0.0
C2060 C 0.78951 0.97914 0.35541 0.0
C2061 C 0.7991 0.97581 0.37313 0.0
C2062 C 0.77619 0.96487 0.34813 0.0
C2063 C 0.76442 0.96826 0.33027 0.0
C2064 C 0.75263 0.98525 0.32829 0.0
C2065 C 0.74169 0.98847 0.3114 0.0
C2066 C 0.74233 0.97475 0.29641 0.0
C2067 C 0.75389 0.95777 0.29829 0.0
C2068 C 0.76487 0.95448 0.31515 0.0
C2069 C 0.76584 0.89341 0.39145 0.0
C2070 C 0.78372 0.88278 0.39314 0.0
C2071 C 0.76611 0.91329 0.38638 0.0
C2072 C 0.78424 0.9229 0.38299 0.0
C2073 C 0.80212 0.91248 0.3854 0.0
C2074 C 0.80187 0.89264 0.39055 0.0
C2075 C 0.78457 0.94317 0.37511 0.0
C2076 C 0.77403 0.947 0.358 0.0
C2077 C 0.79667 0.95805 0.38319 0.0
C2078 C 0.8069 0.9554 0.40203 0.0
C2079 C 0.82744 0.9589 0.40371 0.0
C2080 C 0.83706 0.95629 0.42145 0.0
C2081 C 0.82627 0.95024 0.43764 0.0
C2082 C 0.80584 0.94684 0.43614 0.0
C2083 C 0.79615 0.94944 0.41844 0.0
H2084 H 0.83374 0.94821 0.45135 0.0
H2085 H 0.73385 0.97728 0.28334 0.0
H2086 H 0.28792 0.44161 0.64446 0.0
H2087 H 0.27988 0.47241 0.62787 0.0
H2088 H 0.32036 0.50348 0.6654 0.0
H2089 H 0.32752 0.473 0.68264 0.0
H2090 H 0.29081 0.52555 0.65982 0.0
H2091 H 0.33243 0.48777 0.61742 0.0
H2092 H 0.34248 0.45898 0.59813 0.0
H2093 H 0.28927 0.46415 0.56413 0.0
H2094 H 0.27878 0.49285 0.5834 0.0
H2095 H 0.32186 0.60348 0.59918 0.0
H2096 H 0.32262 0.56966 0.61103 0.0
H2097 H 0.26097 0.56248 0.59549 0.0
H2098 H 0.25985 0.59661 0.58398 0.0
H2099 H 0.29751 0.52834 0.58847 0.0
H2100 H 0.25762 0.5684 0.63408 0.0
H2101 H 0.25327 0.59939 0.65208 0.0
H2102 H 0.31008 0.59103 0.67931 0.0
H2103 H 0.3149 0.56017 0.66116 0.0
C2104 C 0.29491 0.45508 0.64927 0.0
C2105 C 0.30841 0.45493 0.66477 0.0
C2106 C 0.29042 0.47265 0.63971 0.0
C2107 C 0.29983 0.49025 0.64508 0.0
C2108 C 0.31288 0.49014 0.66094 0.0
C2109 C 0.31701 0.47269 0.67078 0.0
C2110 C 0.2966 0.50871 0.634 0.0
C2111 C 0.29226 0.52602 0.64423 0.0
C2112 C 0.29844 0.50954 0.61359 0.0
C2113 C 0.30471 0.4923 0.60199 0.0
C2114 C 0.3228 0.48267 0.60592 0.0
C2115 C 0.32859 0.46639 0.59498 0.0
C2116 C 0.31649 0.4597 0.57996 0.0
C2117 C 0.2986 0.46932 0.57581 0.0
C2118 C 0.29273 0.4856 0.58672 0.0
C2119 C 0.30855 0.59463 0.59789 0.0
C2120 C 0.29072 0.60276 0.59085 0.0
C2121 C 0.30904 0.57532 0.60464 0.0
C2122 C 0.29184 0.56376 0.60417 0.0
C2123 C 0.27438 0.57129 0.5959 0.0
C2124 C 0.27377 0.59075 0.5894 0.0
C2125 C 0.29171 0.54474 0.61436 0.0
C2126 C 0.29561 0.52753 0.60401 0.0
C2127 C 0.28996 0.54402 0.63466 0.0
C2128 C 0.28668 0.5621 0.64617 0.0
C2129 C 0.26922 0.57325 0.64382 0.0
C2130 C 0.26667 0.59078 0.65405 0.0
C2131 C 0.28141 0.5972 0.6668 0.0
C2132 C 0.29868 0.58605 0.66942 0.0
C2133 C 0.30132 0.56853 0.65918 0.0
H2134 H 0.27943 0.6108 0.67467 0.0
H2135 H 0.32099 0.44709 0.5715 0.0
H2136 H 0.83549 0.78555 0.43222 0.0
H2137 H 0.85077 0.77501 0.4626 0.0
H2138 H 0.79593 0.78727 0.49265 0.0
H2139 H 0.7805 0.79747 0.46236 0.0
H2140 H 0.8577 0.79739 0.49229 0.0
H2141 H 0.79144 0.75964 0.53253 0.0
H2142 H 0.76371 0.73728 0.52489 0.0
H2143 H 0.79558 0.71558 0.47559 0.0
H2144 H 0.82364 0.73758 0.48308 0.0
H2145 H 0.86005 0.81457 0.59057 0.0
H2146 H 0.84939 0.8097 0.55733 0.0
H2147 H 0.8634 0.74795 0.56161 0.0
H2148 H 0.87403 0.75269 0.59525 0.0
H2149 H 0.82778 0.75473 0.54266 0.0
H2150 H 0.89472 0.77606 0.53775 0.0
H2151 H 0.92396 0.79667 0.54487 0.0
H2152 H 0.89379 0.84719 0.5218 0.0
H2153 H 0.86426 0.82695 0.51481 0.0
C2154 C 0.82659 0.78567 0.44525 0.0
C2155 C 0.80683 0.79246 0.44492 0.0
C2156 C 0.83535 0.77965 0.46259 0.0
C2157 C 0.82448 0.78022 0.47989 0.0
C2158 C 0.80452 0.78634 0.47945 0.0
C2159 C 0.79575 0.79232 0.46213 0.0
C2160 C 0.83446 0.77658 0.49867 0.0
C2161 C 0.85127 0.78787 0.5032 0.0
C2162 C 0.82638 0.76382 0.5128 0.0
C2163 C 0.80962 0.75038 0.50832 0.0
C2164 C 0.7926 0.75002 0.52012 0.0
C2165 C 0.7768 0.73742 0.5158 0.0
C2166 C 0.77786 0.72505 0.49974 0.0
C2167 C 0.79475 0.72522 0.48799 0.0
C2168 C 0.81059 0.73777 0.49226 0.0
C2169 C 0.86083 0.79991 0.58453 0.0
C2170 C 0.86802 0.78403 0.5955 0.0
C2171 C 0.85479 0.79717 0.56548 0.0
C2172 C 0.85592 0.77854 0.55693 0.0
C2173 C 0.86252 0.76247 0.56796 0.0
C2174 C 0.86861 0.76521 0.58712 0.0
C2175 C 0.85034 0.77622 0.53637 0.0
C2176 C 0.83439 0.76389 0.53156 0.0
C2177 C 0.85943 0.78774 0.52182 0.0
C2178 C 0.87723 0.79998 0.52583 0.0
C2179 C 0.89427 0.79159 0.5343 0.0
C2180 C 0.91091 0.8032 0.5383 0.0
C2181 C 0.91072 0.82323 0.53381 0.0
C2182 C 0.89392 0.83167 0.52527 0.0
C2183 C 0.87723 0.82013 0.52125 0.0
H2184 H 0.92361 0.8322 0.53692 0.0
H2185 H 0.76561 0.71532 0.49642 0.0
H2186 H 0.64997 0.19793 0.93011 0.0
H2187 H 0.6362 0.20898 0.96091 0.0
H2188 H 0.69205 0.19599 0.98896 0.0
H2189 H 0.70604 0.18538 0.95817 0.0
H2190 H 0.62994 0.1869 0.99056 0.0
H2191 H 0.69803 0.22285 0.0293 0.0
H2192 H 0.72624 0.24442 0.02109 0.0
H2193 H 0.69391 0.26714 0.97243 0.0
H2194 H 0.66539 0.24593 0.98049 0.0
H2195 H 0.62816 0.1704 0.08883 0.0
H2196 H 0.63956 0.17495 0.05579 0.0
H2197 H 0.6258 0.23679 0.05911 0.0
H2198 H 0.61437 0.23238 0.09257 0.0
H2199 H 0.66196 0.22896 0.04011 0.0
H2200 H 0.59422 0.20945 0.03607 0.0
H2201 H 0.56461 0.18962 0.04384 0.0
H2202 H 0.59332 0.13809 0.02135 0.0
H2203 H 0.62323 0.15756 0.01371 0.0
C2204 C 0.65943 0.19777 0.94278 0.0
C2205 C 0.67905 0.19065 0.94175 0.0
C2206 C 0.65154 0.20409 0.96037 0.0
C2207 C 0.6631 0.20341 0.97725 0.0
C2208 C 0.68294 0.19701 0.9761 0.0
C2209 C 0.69088 0.1908 0.95849 0.0
C2210 C 0.65384 0.20715 -0.00364 0.0
C2211 C 0.63684 0.19629 0.00128 0.0
C2212 C 0.66257 0.21971 0.01028 0.0
C2213 C 0.67961 0.23268 0.00545 0.0
C2214 C 0.69689 0.23252 0.01691 0.0
C2215 C 0.71295 0.24467 0.01227 0.0
C2216 C 0.71189 0.25711 -0.00378 0.0
C2217 C 0.69474 0.25745 0.98482 0.0
C2218 C 0.67863 0.24535 0.9894 0.0
C2219 C 0.62763 0.18503 0.08265 0.0
C2220 C 0.62018 0.20101 0.09326 0.0
C2221 C 0.63414 0.18758 0.06373 0.0
C2222 C 0.63322 0.20613 0.05494 0.0
C2223 C 0.62653 0.22234 0.06566 0.0
C2224 C 0.61997 0.21979 0.08471 0.0
C2225 C 0.63868 0.2081 0.03432 0.0
C2226 C 0.65491 0.21993 0.02918 0.0
C2227 C 0.62905 0.19673 0.02002 0.0
C2228 C 0.61101 0.18496 0.0244 0.0
C2229 C 0.59427 0.19387 0.03289 0.0
C2230 C 0.57742 0.18269 0.03726 0.0
C2231 C 0.57709 0.1626 0.03311 0.0
C2232 C 0.5936 0.15366 0.02455 0.0
C2233 C 0.61049 0.16476 0.02017 0.0
H2234 H 0.56404 0.15397 0.03651 0.0
H2235 H 0.72434 0.26649 -0.00735 0.0
H2236 H 0.381 0.67191 0.3989 0.0
H2237 H 0.36533 0.67579 0.43036 0.0
H2238 H 0.35266 0.73659 0.41746 0.0
H2239 H 0.36876 0.7329 0.38584 0.0
H2240 H 0.36462 0.73164 0.45499 0.0
H2241 H 0.3162 0.70395 0.41296 0.0
H2242 H 0.30319 0.68098 0.38851 0.0
H2243 H 0.31301 0.6325 0.42713 0.0
H2244 H 0.32636 0.65514 0.45172 0.0
H2245 H 0.27827 0.69666 0.52522 0.0
H2246 H 0.29078 0.70647 0.49355 0.0
H2247 H 0.35104 0.70207 0.5147 0.0
H2248 H 0.33857 0.69284 0.54658 0.0
H2249 H 0.31085 0.68443 0.47086 0.0
H2250 H 0.38247 0.72963 0.48805 0.0
H2251 H 0.39367 0.75451 0.51152 0.0
H2252 H 0.33313 0.77209 0.52126 0.0
H2253 H 0.32158 0.74752 0.49766 0.0
C2254 C 0.375 0.68616 0.40275 0.0
C2255 C 0.37593 0.70206 0.38981 0.0
C2256 C 0.36601 0.68834 0.42074 0.0
C2257 C 0.35752 0.70637 0.42609 0.0
C2258 C 0.35905 0.72252 0.41354 0.0
C2259 C 0.36819 0.72038 0.3955 0.0
C2260 C 0.34647 0.70788 0.44452 0.0
C2261 C 0.35278 0.72143 0.4585 0.0
C2262 C 0.33063 0.69493 0.44881 0.0
C2263 C 0.32239 0.68125 0.43414 0.0
C2264 C 0.31569 0.68838 0.4162 0.0
C2265 C 0.30825 0.67542 0.40232 0.0
C2266 C 0.3073 0.65529 0.40625 0.0
C2267 C 0.31375 0.6481 0.4241 0.0
C2268 C 0.32124 0.66099 0.43803 0.0
C2269 C 0.29418 0.69817 0.52322 0.0
C2270 C 0.30746 0.69384 0.53833 0.0
C2271 C 0.30131 0.70377 0.50511 0.0
C2272 C 0.32185 0.70504 0.50171 0.0
C2273 C 0.33512 0.70153 0.51703 0.0
C2274 C 0.32798 0.69613 0.53523 0.0
C2275 C 0.3294 0.70776 0.48174 0.0
C2276 C 0.32247 0.69491 0.4674 0.0
C2277 C 0.34432 0.72166 0.47706 0.0
C2278 C 0.35116 0.7366 0.49118 0.0
C2279 C 0.37155 0.73886 0.49513 0.0
C2280 C 0.37796 0.7529 0.50847 0.0
C2281 C 0.36411 0.76484 0.51791 0.0
C2282 C 0.34383 0.76279 0.51399 0.0
C2283 C 0.33735 0.74878 0.50065 0.0
H2284 H 0.36911 0.77569 0.52824 0.0
H2285 H 0.30154 0.64528 0.39548 0.0
H2286 H 0.19773 0.30406 0.02219 0.0
H2287 H 0.1827 0.29474 0.99146 0.0
H2288 H 0.12966 0.27593 0.02107 0.0
H2289 H 0.14446 0.2856 0.05208 0.0
H2290 H 0.1503 0.25136 0.98389 0.0
H2291 H 0.1181 0.31183 0.00698 0.0
H2292 H 0.11947 0.3446 0.02213 0.0
H2293 H 0.16027 0.36416 0.97848 0.0
H2294 H 0.15937 0.33137 0.96326 0.0
H2295 H 0.09322 0.25773 0.89506 0.0
H2296 H 0.10427 0.2559 0.92883 0.0
H2297 H 0.14687 0.30202 0.91792 0.0
H2298 H 0.13542 0.30437 0.88464 0.0
H2299 H 0.12695 0.3105 0.94844 0.0
H2300 H 0.15986 0.25215 0.92477 0.0
H2301 H 0.16177 0.21953 0.9094 0.0
H2302 H 0.123 0.19577 0.95279 0.0
H2303 H 0.12066 0.22834 0.96829 0.0
C2304 C 0.18301 0.29761 0.02228 0.0
C2305 C 0.17219 0.29576 0.03954 0.0
C2306 C 0.1745 0.29223 0.00471 0.0
C2307 C 0.15514 0.28467 0.0041 0.0
C2308 C 0.14469 0.28164 0.02136 0.0
C2309 C 0.15312 0.28727 0.039 0.0
C2310 C 0.14521 0.28255 0.98523 0.0
C2311 C 0.14476 0.26414 0.97618 0.0
C2312 C 0.13849 0.29935 0.97518 0.0
C2313 C 0.13882 0.31913 0.98412 0.0
C2314 C 0.1275 0.32307 0.00073 0.0
C2315 C 0.12816 0.34165 0.0093 0.0
C2316 C 0.13999 0.35644 0.0013 0.0
C2317 C 0.15114 0.35269 0.98467 0.0
C2318 C 0.15054 0.33412 0.97606 0.0
C2319 C 0.1051 0.26728 0.89989 0.0
C2320 C 0.11336 0.28131 0.88732 0.0
C2321 C 0.11144 0.2662 0.91914 0.0
C2322 C 0.1264 0.27885 0.92594 0.0
C2323 C 0.13517 0.29224 0.91309 0.0
C2324 C 0.12865 0.29355 0.89405 0.0
C2325 C 0.13227 0.27926 0.94662 0.0
C2326 C 0.13204 0.2975 0.95608 0.0
C2327 C 0.13852 0.26228 0.95687 0.0
C2328 C 0.13989 0.24273 0.94754 0.0
C2329 C 0.1516 0.24001 0.93093 0.0
C2330 C 0.15279 0.22152 0.92222 0.0
C2331 C 0.14246 0.2056 0.93008 0.0
C2332 C 0.13096 0.20813 0.9467 0.0
C2333 C 0.1297 0.22659 0.95546 0.0
H2334 H 0.14341 0.1913 0.92331 0.0
H2335 H 0.14049 0.37081 0.00796 0.0
H2336 H 0.58434 0.89931 0.82419 0.0
H2337 H 0.55051 0.88643 0.82431 0.0
H2338 H 0.55159 0.88254 0.76213 0.0
H2339 H 0.5857 0.89509 0.76191 0.0
H2340 H 0.51479 0.89509 0.80974 0.0
H2341 H 0.53045 0.83855 0.74967 0.0
H2342 H 0.55917 0.8221 0.7344 0.0
H2343 H 0.5928 0.82814 0.78681 0.0
H2344 H 0.56418 0.8443 0.80246 0.0
H2345 H 0.4257 0.84068 0.79939 0.0
H2346 H 0.45517 0.85972 0.79052 0.0
H2347 H 0.49285 0.81388 0.81351 0.0
H2348 H 0.46353 0.79453 0.82177 0.0
H2349 H 0.50909 0.82789 0.78251 0.0
H2350 H 0.48016 0.85582 0.83996 0.0
H2351 H 0.45351 0.87075 0.85957 0.0
H2352 H 0.44955 0.91901 0.81971 0.0
H2353 H 0.47602 0.90422 0.79973 0.0
C2354 C 0.57727 0.89605 0.81051 0.0
C2355 C 0.58779 0.89788 0.79306 0.0
C2356 C 0.55789 0.88877 0.8106 0.0
C2357 C 0.54869 0.88321 0.79326 0.0
C2358 C 0.55857 0.88647 0.77569 0.0
C2359 C 0.57802 0.89369 0.77559 0.0
C2360 C 0.52971 0.87221 0.7939 0.0
C2361 C 0.51343 0.8805 0.80358 0.0
C2362 C 0.52813 0.85298 0.78625 0.0
C2363 C 0.54526 0.84285 0.77713 0.0
C2364 C 0.54395 0.83629 0.75794 0.0
C2365 C 0.56021 0.82702 0.74923 0.0
C2366 C 0.57782 0.82415 0.75961 0.0
C2367 C 0.57917 0.83043 0.77877 0.0
C2368 C 0.56294 0.83964 0.78756 0.0
C2369 C 0.44028 0.83457 0.80233 0.0
C2370 C 0.44233 0.81619 0.81141 0.0
C2371 C 0.4571 0.8455 0.79732 0.0
C2372 C 0.47622 0.83839 0.80166 0.0
C2373 C 0.47826 0.81968 0.81003 0.0
C2374 C 0.46148 0.80865 0.8148 0.0
C2375 C 0.49411 0.85072 0.79846 0.0
C2376 C 0.51023 0.84265 0.7883 0.0
C2377 C 0.49577 0.86989 0.80625 0.0
C2378 C 0.47988 0.87881 0.81824 0.0
C2379 C 0.47349 0.86954 0.83531 0.0
C2380 C 0.45844 0.87799 0.8465 0.0
C2381 C 0.4498 0.89579 0.84086 0.0
C2382 C 0.45623 0.9052 0.82404 0.0
C2383 C 0.47125 0.8968 0.81278 0.0
H2384 H 0.43815 0.90231 0.84955 0.0
H2385 H 0.5904 0.81701 0.75282 0.0
H2386 H 0.8971 0.09171 0.32195 0.0
H2387 H 0.92947 0.10777 0.32046 0.0
H2388 H 0.9312 0.09924 0.25882 0.0
H2389 H 0.89838 0.08346 0.26003 0.0
H2390 H 0.96997 0.09194 0.28838 0.0
H2391 H 0.91991 0.13818 0.2628 0.0
H2392 H 0.88696 0.15404 0.26504 0.0
H2393 H 0.90167 0.17627 0.32126 0.0
H2394 H 0.93456 0.1602 0.31951 0.0
H2395 H 0.05144 0.15782 0.28351 0.0
H2396 H 0.02142 0.13966 0.27443 0.0
H2397 H 0.9892 0.16791 0.32071 0.0
H2398 H 0.01868 0.18694 0.32886 0.0
H2399 H 0.96548 0.16458 0.29344 0.0
H2400 H 0.01098 0.11916 0.32329 0.0
H2401 H 0.04253 0.10109 0.32754 0.0
H2402 H 0.03596 0.07559 0.27121 0.0
H2403 H 0.00447 0.09371 0.26654 0.0
C2404 C 0.90447 0.09289 0.30809 0.0
C2405 C 0.8951 0.0865 0.29106 0.0
C2406 C 0.92295 0.10207 0.3073 0.0
C2407 C 0.9325 0.10476 0.28954 0.0
C2408 C 0.92392 0.09725 0.27264 0.0
C2409 C 0.90522 0.08828 0.27337 0.0
C2410 C 0.95051 0.11702 0.28871 0.0
C2411 C 0.96915 0.10786 0.289 0.0
C2412 C 0.94916 0.13767 0.29031 0.0
C2413 C 0.92963 0.14785 0.29108 0.0
C2414 C 0.91606 0.14632 0.2757 0.0
C2415 C 0.8974 0.15537 0.27687 0.0
C2416 C 0.89222 0.16614 0.29329 0.0
C2417 C 0.9057 0.16793 0.30855 0.0
C2418 C 0.92436 0.15886 0.30747 0.0
C2419 C 0.03783 0.16029 0.29152 0.0
C2420 C 0.03735 0.1737 0.30691 0.0
C2421 C 0.02073 0.14981 0.28644 0.0
C2422 C 0.00309 0.15204 0.29714 0.0
C2423 C 0.00255 0.16589 0.31217 0.0
C2424 C 0.01944 0.17675 0.31687 0.0
C2425 C 0.98535 0.1396 0.29331 0.0
C2426 C 0.96659 0.14872 0.29229 0.0
C2427 C 0.98659 0.11883 0.29172 0.0
C2428 C 0.00553 0.10798 0.29447 0.0
C2429 C 0.01635 0.10981 0.31175 0.0
C2430 C 0.03421 0.09955 0.31425 0.0
C2431 C 0.04128 0.08725 0.29963 0.0
C2432 C 0.03049 0.08516 0.2825 0.0
C2433 C 0.01264 0.09541 0.27992 0.0
H2434 H 0.0551 0.07931 0.30159 0.0
H2435 H 0.87778 0.17313 0.29418 0.0
H2436 H 0.09106 0.58816 0.16238 0.0
H2437 H 0.05651 0.59839 0.16557 0.0
H2438 H 0.06328 0.60135 0.22748 0.0
H2439 H 0.09822 0.59155 0.22433 0.0
H2440 H 0.02326 0.58707 0.18244 0.0
H2441 H 0.0388 0.64266 0.24288 0.0
H2442 H 0.06711 0.66055 0.25723 0.0
H2443 H 0.09782 0.65888 0.20288 0.0
H2444 H 0.06957 0.64127 0.18818 0.0
H2445 H 0.9322 0.63894 0.19218 0.0
H2446 H 0.96192 0.62071 0.20216 0.0
H2447 H -0.00102 0.66706 0.17945 0.0
H2448 H 0.96943 0.68561 0.17019 0.0
H2449 H 0.01519 0.65367 0.21055 0.0
H2450 H 0.9867 0.62431 0.15307 0.0
H2451 H 0.96027 0.6083 0.13403 0.0
H2452 H 0.95826 0.56076 0.17485 0.0
H2453 H 0.98454 0.57663 0.19424 0.0
C2454 C 0.08515 0.59067 0.17672 0.0
C2455 C 0.09745 0.5894 0.19309 0.0
C2456 C 0.06533 0.5964 0.17852 0.0
C2457 C 0.05741 0.60094 0.19672 0.0
C2458 C 0.06921 0.5982 0.21326 0.0
C2459 C 0.08913 0.59256 0.21145 0.0
C2460 C 0.03766 0.61055 0.19787 0.0
C2461 C 0.02138 0.6015 0.18886 0.0
C2462 C 0.03531 0.62951 0.20595 0.0
C2463 C 0.0522 0.64043 0.21454 0.0
C2464 C 0.05158 0.64618 0.234 0.0
C2465 C 0.0676 0.65627 0.24219 0.0
C2466 C 0.08429 0.66078 0.231 0.0
C2467 C 0.08492 0.65532 0.21156 0.0
C2468 C 0.06891 0.64529 0.20329 0.0
C2469 C 0.9467 0.64533 0.18958 0.0
C2470 C 0.94852 0.66361 0.18025 0.0
C2471 C 0.96366 0.63488 0.19523 0.0
C2472 C 0.9827 0.64234 0.19126 0.0
C2473 C 0.98447 0.66098 0.1827 0.0
C2474 C 0.96755 0.67156 0.17733 0.0
C2475 C 0.00086 0.6304 0.1947 0.0
C2476 C 0.01684 0.639 0.20463 0.0
C2477 C 0.00314 0.6113 0.18685 0.0
C2478 C 0.98737 0.60176 0.17521 0.0
C2479 C 0.98051 0.61051 0.15804 0.0
C2480 C 0.96558 0.60145 0.14718 0.0
C2481 C 0.95754 0.58356 0.15326 0.0
C2482 C 0.96446 0.57465 0.17018 0.0
C2483 C 0.97937 0.58366 0.18111 0.0
H2484 H 0.94599 0.57656 0.14483 0.0
H2485 H 0.09669 0.66855 0.23737 0.0
H2486 H 0.39504 0.38658 0.71987 0.0
H2487 H 0.4295 0.37517 0.71785 0.0
H2488 H 0.43228 0.39439 0.65849 0.0
H2489 H 0.39771 0.4053 0.66026 0.0
H2490 H 0.44394 0.35819 0.66102 0.0
H2491 H 0.45889 0.41745 0.69508 0.0
H2492 H 0.45592 0.44199 0.72109 0.0
H2493 H 0.47357 0.39865 0.76288 0.0
H2494 H 0.47638 0.37376 0.73714 0.0
H2495 H 0.55772 0.35417 0.6695 0.0
H2496 H 0.52661 0.37115 0.67704 0.0
H2497 H 0.49655 0.31536 0.6816 0.0
H2498 H 0.52751 0.29827 0.6737 0.0
H2499 H 0.49962 0.37155 0.70618 0.0
H2500 H 0.45186 0.31925 0.65971 0.0
H2501 H 0.45572 0.29699 0.63185 0.0
H2502 H 0.50508 0.33119 0.61146 0.0
H2503 H 0.50133 0.3538 0.63904 0.0
C2504 C 0.40314 0.38871 0.70651 0.0
C2505 C 0.39367 0.39667 0.69016 0.0
C2506 C 0.42285 0.38224 0.70539 0.0
C2507 C 0.43347 0.38392 0.68801 0.0
C2508 C 0.42432 0.39283 0.672 0.0
C2509 C 0.40459 0.3991 0.67305 0.0
C2510 C 0.45338 0.37479 0.68588 0.0
C2511 C 0.4561 0.36119 0.6709 0.0
C2512 C 0.46931 0.37876 0.69868 0.0
C2513 C 0.46767 0.3937 0.71419 0.0
C2514 C 0.46199 0.41311 0.70983 0.0
C2515 C 0.46036 0.42709 0.72453 0.0
C2516 C 0.46451 0.42187 0.74364 0.0
C2517 C 0.47034 0.40266 0.74808 0.0
C2518 C 0.47198 0.38862 0.73344 0.0
C2519 C 0.54454 0.3455 0.67233 0.0
C2520 C 0.54498 0.32489 0.67074 0.0
C2521 C 0.52681 0.35523 0.67673 0.0
C2522 C 0.50924 0.34452 0.67959 0.0
C2523 C 0.5099 0.3239 0.67914 0.0
C2524 C 0.5276 0.31416 0.67465 0.0
C2525 C 0.48998 0.35492 0.68145 0.0
C2526 C 0.4874 0.36864 0.69637 0.0
C2527 C 0.47423 0.35142 0.66835 0.0
C2528 C 0.47644 0.33808 0.65155 0.0
C2529 C 0.46348 0.32205 0.64924 0.0
C2530 C 0.46566 0.30937 0.6335 0.0
C2531 C 0.48068 0.31264 0.61993 0.0
C2532 C 0.4935 0.32864 0.62202 0.0
C2533 C 0.49137 0.34137 0.63771 0.0
H2534 H 0.48235 0.30279 0.60777 0.0
H2535 H 0.46324 0.43271 0.75499 0.0
H2536 H 0.75906 0.59783 0.89048 0.0
H2537 H 0.75506 0.56411 0.87895 0.0
H2538 H 0.81882 0.5566 0.87908 0.0
H2539 H 0.82291 0.59008 0.89092 0.0
H2540 H 0.76699 0.55101 0.84539 0.0
H2541 H 0.83153 0.50957 0.88472 0.0
H2542 H 0.84706 0.50869 0.91698 0.0
H2543 H 0.79322 0.53086 0.94228 0.0
H2544 H 0.77727 0.53161 0.91022 0.0
H2545 H 0.81088 0.47671 0.78971 0.0
H2546 H 0.80141 0.50478 0.80958 0.0
H2547 H 0.77879 0.46549 0.85331 0.0
H2548 H 0.78865 0.43727 0.83366 0.0
H2549 H 0.80214 0.49154 0.86912 0.0
H2550 H 0.74699 0.49456 0.82663 0.0
H2551 H 0.72924 0.49468 0.79546 0.0
H2552 H 0.7595 0.54761 0.77893 0.0
H2553 H 0.77765 0.54767 0.80989 0.0
C2554 C 0.77221 0.58884 0.88845 0.0
C2555 C 0.79132 0.59664 0.89146 0.0
C2556 C 0.76989 0.5696 0.88182 0.0
C2557 C 0.78662 0.55782 0.87819 0.0
C2558 C 0.80567 0.5653 0.88206 0.0
C2559 C 0.808 0.5845 0.88874 0.0
C2560 C 0.78443 0.53854 0.8685 0.0
C2561 C 0.77448 0.53793 0.85068 0.0
C2562 C 0.7938 0.52137 0.87562 0.0
C2563 C 0.80324 0.52075 0.89501 0.0
C2564 C 0.82296 0.51415 0.89717 0.0
C2565 C 0.83185 0.5137 0.91543 0.0
C2566 C 0.82115 0.51976 0.93166 0.0
C2567 C 0.80152 0.52623 0.92968 0.0
C2568 C 0.79255 0.5267 0.91146 0.0
C2569 C 0.8036 0.47403 0.80341 0.0
C2570 C 0.80059 0.45479 0.81015 0.0
C2571 C 0.7981 0.4901 0.81473 0.0
C2572 C 0.78926 0.48723 0.83289 0.0
C2573 C 0.7856 0.46803 0.83936 0.0
C2574 C 0.79119 0.45194 0.82808 0.0
C2575 C 0.7854 0.50427 0.84567 0.0
C2576 C 0.79428 0.50448 0.86403 0.0
C2577 C 0.7747 0.52095 0.83922 0.0
C2578 C 0.76376 0.52105 0.82057 0.0
C2579 C 0.74996 0.50616 0.8163 0.0
C2580 C 0.73981 0.5062 0.79867 0.0
C2581 C 0.74326 0.52113 0.78521 0.0
C2582 C 0.75684 0.53606 0.78937 0.0
C2583 C 0.76704 0.53608 0.80698 0.0
H2584 H 0.73539 0.52113 0.77157 0.0
H2585 H 0.82806 0.51941 0.94578 0.0
H2586 H 0.32517 0.89332 0.10919 0.0
H2587 H 0.32348 0.92593 0.12382 0.0
H2588 H 0.26191 0.93101 0.10709 0.0
H2589 H 0.26327 0.89806 0.09275 0.0
H2590 H 0.29374 0.9675 0.10325 0.0
H2591 H 0.26099 0.91997 0.14617 0.0
H2592 H 0.26047 0.88754 0.16213 0.0
H2593 H 0.31589 0.90051 0.19019 0.0
H2594 H 0.31692 0.93288 0.17406 0.0
H2595 H 0.28166 0.04927 0.16517 0.0
H2596 H 0.27377 0.01903 0.14763 0.0
H2597 H 0.31874 0.98804 0.18028 0.0
H2598 H 0.3258 0.01781 0.19849 0.0
H2599 H 0.29049 0.96448 0.17482 0.0
H2600 H 0.32654 0.00843 0.1331 0.0
H2601 H 0.33296 0.03933 0.11551 0.0
H2602 H 0.27815 0.03257 0.08434 0.0
H2603 H 0.2713 0.00173 0.10193 0.0
C2604 C 0.31136 0.90149 0.10826 0.0
C2605 C 0.29428 0.89307 0.1 0.0
C2606 C 0.31045 0.9201 0.11661 0.0
C2607 C 0.29255 0.93068 0.11657 0.0
C2608 C 0.27583 0.92297 0.10719 0.0
C2609 C 0.27664 0.90417 0.09908 0.0
C2610 C 0.29099 0.94878 0.12812 0.0
C2611 C 0.29257 0.967 0.11887 0.0
C2612 C 0.29014 0.94785 0.14847 0.0
C2613 C 0.2891 0.92876 0.1588 0.0
C2614 C 0.27312 0.91585 0.15565 0.0
C2615 C 0.27273 0.89749 0.16473 0.0
C2616 C 0.28816 0.89195 0.17714 0.0
C2617 C 0.30396 0.90481 0.18056 0.0
C2618 C 0.30444 0.92317 0.17147 0.0
C2619 C 0.28958 0.03589 0.1688 0.0
C2620 C 0.30441 0.0359 0.18309 0.0
C2621 C 0.28518 0.01866 0.15868 0.0
C2622 C 0.296 0.00133 0.16228 0.0
C2623 C 0.31019 0.00118 0.17718 0.0
C2624 C 0.31424 0.01824 0.18758 0.0
C2625 C 0.2934 0.98358 0.15006 0.0
C2626 C 0.29116 0.96526 0.15919 0.0
C2627 C 0.2942 0.98442 0.12958 0.0
C2628 C 0.29829 0.00293 0.119 0.0
C2629 C 0.31579 0.01362 0.12259 0.0
C2630 C 0.31952 0.0311 0.11261 0.0
C2631 C 0.30594 0.03794 0.09886 0.0
C2632 C 0.28863 0.02728 0.09503 0.0
C2633 C 0.28482 0.0098 0.10499 0.0
H2634 H 0.30885 0.05148 0.09114 0.0
H2635 H 0.28786 0.8777 0.18411 0.0
H2636 H 0.1825 0.93709 0.64954 0.0
H2637 H 0.19158 0.96822 0.63454 0.0
H2638 H 0.19794 -0.0054 0.69088 0.0
H2639 H 0.18804 0.9636 0.70596 0.0
H2640 H 0.17661 0.01711 0.67013 0.0
H2641 H 0.23878 0.98584 0.65999 0.0
H2642 H 0.26207 0.95968 0.65013 0.0
H2643 H 0.24225 0.96506 0.5914 0.0
H2644 H 0.21863 0.99107 0.60094 0.0
H2645 H 0.23077 0.09554 0.60842 0.0
H2646 H 0.23181 0.06347 0.62444 0.0
H2647 H 0.16884 0.05645 0.61459 0.0
H2648 H 0.1676 0.08858 0.59889 0.0
H2649 H 0.22318 0.02605 0.61526 0.0
H2650 H 0.14758 0.03771 0.65473 0.0
H2651 H 0.1272 0.06518 0.66698 0.0
H2652 H 0.1794 0.10113 0.67187 0.0
H2653 H 0.20013 0.07378 0.65998 0.0
C2654 C 0.18618 0.94942 0.65876 0.0
C2655 C 0.18447 0.94795 0.67893 0.0
C2656 C 0.19148 0.96722 0.65015 0.0
C2657 C 0.1956 0.98377 0.66156 0.0
C2658 C 0.19477 0.98206 0.68176 0.0
C2659 C 0.18918 0.96433 0.69037 0.0
C2660 C 0.19891 0.00323 0.65237 0.0
C2661 C 0.18692 0.01905 0.65823 0.0
C2662 C 0.21262 0.00595 0.63706 0.0
C2663 C 0.22683 0.99032 0.63122 0.0
C2664 C 0.23928 0.98135 0.645 0.0
C2665 C 0.25256 0.96656 0.63946 0.0
C2666 C 0.25361 0.96069 0.62016 0.0
C2667 C 0.24141 0.96962 0.60635 0.0
C2668 C 0.2281 0.98441 0.61181 0.0
C2669 C 0.2172 0.08703 0.60943 0.0
C2670 C 0.19904 0.09467 0.60263 0.0
C2671 C 0.21784 0.06871 0.61856 0.0
C2672 C 0.20034 0.05779 0.62103 0.0
C2673 C 0.18244 0.06485 0.61317 0.0
C2674 C 0.18177 0.08317 0.60414 0.0
C2675 C 0.20046 0.03954 0.63269 0.0
C2676 C 0.21305 0.02404 0.62729 0.0
C2677 C 0.18774 0.03726 0.64881 0.0
C2678 C 0.17539 0.05372 0.65628 0.0
C2679 C 0.15473 0.05144 0.65851 0.0
C2680 C 0.14311 0.067 0.66539 0.0
C2681 C 0.15199 0.08491 0.67016 0.0
C2682 C 0.17252 0.08727 0.66812 0.0
C2683 C 0.18421 0.07175 0.6613 0.0
H2684 H 0.14296 0.09694 0.67546 0.0
H2685 H 0.2639 0.94923 0.6159 0.0
H2686 H 0.72779 0.38362 0.36052 0.0
H2687 H 0.7269 0.41724 0.34849 0.0
H2688 H 0.6817 0.43171 0.3905 0.0
H2689 H 0.68153 0.39752 0.40153 0.0
H2690 H 0.67039 0.44536 0.35944 0.0
H2691 H 0.7327 0.45005 0.39128 0.0
H2692 H 0.76681 0.44079 0.40078 0.0
H2693 H 0.78611 0.44658 0.34195 0.0
H2694 H 0.75206 0.45563 0.33204 0.0
H2695 H 0.6777 0.54784 0.33697 0.0
H2696 H 0.68665 0.51804 0.3548 0.0
H2697 H 0.70134 0.48901 0.30138 0.0
H2698 H 0.69187 0.51864 0.28328 0.0
H2699 H 0.72902 0.48524 0.34057 0.0
H2700 H 0.66261 0.47605 0.31054 0.0
H2701 H 0.62854 0.48785 0.304 0.0
H2702 H 0.61788 0.49354 0.36488 0.0
H2703 H 0.65204 0.48205 0.37174 0.0
C2704 C 0.71787 0.39405 0.36736 0.0
C2705 C 0.70465 0.388 0.38188 0.0
C2706 C 0.71749 0.41337 0.36059 0.0
C2707 C 0.70442 0.42723 0.36872 0.0
C2708 C 0.69187 0.42134 0.3839 0.0
C2709 C 0.69182 0.40184 0.39026 0.0
C2710 C 0.70249 0.44721 0.36015 0.0
C2711 C 0.68331 0.45412 0.35571 0.0
C2712 C 0.71923 0.45879 0.35501 0.0
C2713 C 0.73977 0.45338 0.3609 0.0
C2714 C 0.74418 0.44922 0.38034 0.0
C2715 C 0.76352 0.44403 0.3858 0.0
C2716 C 0.77861 0.44306 0.37197 0.0
C2717 C 0.77441 0.44733 0.35265 0.0
C2718 C 0.75509 0.45252 0.34711 0.0
C2719 C 0.68317 0.53524 0.32902 0.0
C2720 C 0.68397 0.53548 0.30872 0.0
C2721 C 0.68829 0.51829 0.33923 0.0
C2722 C 0.69464 0.50148 0.32934 0.0
C2723 C 0.69655 0.50197 0.30919 0.0
C2724 C 0.69105 0.51882 0.2989 0.0
C2725 C 0.69716 0.48281 0.33987 0.0
C2726 C 0.71632 0.47632 0.34461 0.0
C2727 C 0.68047 0.4718 0.34577 0.0
C2728 C 0.6599 0.47843 0.34163 0.0
C2729 C 0.65305 0.48 0.32251 0.0
C2730 C 0.63372 0.48659 0.31875 0.0
C2731 C 0.62107 0.4915 0.33401 0.0
C2732 C 0.62771 0.48976 0.35307 0.0
C2733 C 0.64704 0.48321 0.3569 0.0
H2734 H 0.60611 0.4966 0.33107 0.0
H2735 H 0.79357 0.43903 0.37623 0.0
loop_
_geom_bond_atom_site_label_1
_geom_bond_atom_site_label_2
_geom_bond_distance
_geom_bond_site_symmetry_2
_ccdc_geom_bond_type
C0 O1 1.306 . S
C0 O3 1.160 . S
O1 C0 1.306 . S
O1 Cd2 2.228 . S
Cd2 O1 2.228 . S
Cd2 O6 2.273 . S
Cd2 O10 2.277 . S
O3 C0 1.160 . S
O3 Cd4 2.203 . S
Cd4 O3 2.203 . S
Cd4 O6 2.411 . S
Cd4 O7 2.333 . S
Cd4 O8 2.352 . S
Cd4 O12 2.277 . S
Cd4 O13 2.356 . S
C5 O10 1.209 . S
C5 O12 1.226 . S
O6 Cd2 2.273 . S
O6 Cd4 2.411 . S
O6 C9 1.320 . S
O7 Cd4 2.333 . S
O7 C9 1.214 . S
O8 Cd4 2.352 . S
O8 C11 1.258 . S
C9 O6 1.320 . S
C9 O7 1.214 . S
O10 Cd2 2.277 . S
O10 C5 1.209 . S
C11 O8 1.258 . S
C11 O13 1.282 . S
O12 Cd4 2.277 . S
O12 C5 1.226 . S
O13 Cd4 2.356 . S
O13 C11 1.282 . S
C14 O15 1.306 . S
C14 O17 1.160 . S
O15 C14 1.306 . S
O15 Cd16 2.228 . S
Cd16 O15 2.228 . S
Cd16 O20 2.273 . S
Cd16 O24 2.277 . S
O17 C14 1.160 . S
O17 Cd18 2.203 . S
Cd18 O17 2.203 . S
Cd18 O20 2.411 . S
Cd18 O21 2.333 . S
Cd18 O22 2.352 . S
Cd18 O26 2.277 . S
Cd18 O27 2.356 . S
C19 O24 1.209 . S
C19 O26 1.226 . S
O20 Cd16 2.273 . S
O20 Cd18 2.411 . S
O20 C23 1.320 . S
O21 Cd18 2.333 . S
O21 C23 1.214 . S
O22 Cd18 2.352 . S
O22 C25 1.258 . S
C23 O20 1.320 . S
C23 O21 1.214 . S
O24 Cd16 2.277 . S
O24 C19 1.209 . S
C25 O22 1.258 . S
C25 O27 1.282 . S
O26 Cd18 2.277 . S
O26 C19 1.226 . S
O27 Cd18 2.356 . S
O27 C25 1.282 . S
C28 O29 1.306 . S
C28 O31 1.160 . S
O29 C28 1.306 . S
O29 Cd30 2.228 . S
Cd30 O29 2.228 . S
Cd30 O34 2.273 . S
Cd30 O38 2.277 . S
O31 C28 1.160 . S
O31 Cd32 2.203 . S
Cd32 O31 2.203 . S
Cd32 O34 2.411 . S
Cd32 O35 2.333 . S
Cd32 O36 2.352 . S
Cd32 O40 2.277 . S
Cd32 O41 2.356 . S
C33 O38 1.209 . S
C33 O40 1.226 . S
O34 Cd30 2.273 . S
O34 Cd32 2.411 . S
O34 C37 1.320 . S
O35 Cd32 2.333 . S
O35 C37 1.214 . S
O36 Cd32 2.352 . S
O36 C39 1.258 . S
C37 O34 1.320 . S
C37 O35 1.214 . S
O38 Cd30 2.277 . S
O38 C33 1.209 . S
C39 O36 1.258 . S
C39 O41 1.282 . S
O40 Cd32 2.277 . S
O40 C33 1.226 . S
O41 Cd32 2.356 . S
O41 C39 1.282 . S
C42 O43 1.306 . S
C42 O45 1.160 . S
O43 C42 1.306 . S
O43 Cd44 2.228 . S
Cd44 O43 2.228 . S
Cd44 O48 2.273 . S
Cd44 O52 2.277 . S
O45 C42 1.160 . S
O45 Cd46 2.203 . S
Cd46 O45 2.203 . S
Cd46 O48 2.411 . S
Cd46 O49 2.333 . S
Cd46 O50 2.352 . S
Cd46 O54 2.277 . S
Cd46 O55 2.356 . S
C47 O52 1.209 . S
C47 O54 1.226 . S
O48 Cd44 2.273 . S
O48 Cd46 2.411 . S
O48 C51 1.320 . S
O49 Cd46 2.333 . S
O49 C51 1.214 . S
O50 Cd46 2.352 . S
O50 C53 1.258 . S
C51 O48 1.320 . S
C51 O49 1.214 . S
O52 Cd44 2.277 . S
O52 C47 1.209 . S
C53 O50 1.258 . S
C53 O55 1.282 . S
O54 Cd46 2.277 . S
O54 C47 1.226 . S
O55 Cd46 2.356 . S
O55 C53 1.282 . S
C56 O57 1.306 . S
C56 O59 1.160 . S
O57 C56 1.306 . S
O57 Cd58 2.228 . S
Cd58 O57 2.228 . S
Cd58 O62 2.273 . S
Cd58 O66 2.277 . S
O59 C56 1.160 . S
O59 Cd60 2.203 . S
Cd60 O59 2.203 . S
Cd60 O62 2.411 . S
Cd60 O63 2.333 . S
Cd60 O64 2.352 . S
Cd60 O68 2.277 . S
Cd60 O69 2.356 . S
C61 O66 1.209 . S
C61 O68 1.226 . S
O62 Cd58 2.273 . S
O62 Cd60 2.411 . S
O62 C65 1.320 . S
O63 Cd60 2.333 . S
O63 C65 1.214 . S
O64 Cd60 2.352 . S
O64 C67 1.258 . S
C65 O62 1.320 . S
C65 O63 1.214 . S
O66 Cd58 2.277 . S
O66 C61 1.209 . S
C67 O64 1.258 . S
C67 O69 1.282 . S
O68 Cd60 2.277 . S
O68 C61 1.226 . S
O69 Cd60 2.356 . S
O69 C67 1.282 . S
C70 O71 1.306 . S
C70 O73 1.160 . S
O71 C70 1.306 . S
O71 Cd72 2.228 . S
Cd72 O71 2.228 . S
Cd72 O76 2.273 . S
Cd72 O80 2.277 . S
O73 C70 1.160 . S
O73 Cd74 2.203 . S
Cd74 O73 2.203 . S
Cd74 O76 2.411 . S
Cd74 O77 2.333 . S
Cd74 O78 2.352 . S
Cd74 O82 2.277 . S
Cd74 O83 2.356 . S
C75 O80 1.209 . S
C75 O82 1.226 . S
O76 Cd72 2.273 . S
O76 Cd74 2.411 . S
O76 C79 1.320 . S
O77 Cd74 2.333 . S
O77 C79 1.214 . S
O78 Cd74 2.352 . S
O78 C81 1.258 . S
C79 O76 1.320 . S
C79 O77 1.214 . S
O80 Cd72 2.277 . S
O80 C75 1.209 . S
C81 O78 1.258 . S
C81 O83 1.282 . S
O82 Cd74 2.277 . S
O82 C75 1.226 . S
O83 Cd74 2.356 . S
O83 C81 1.282 . S
C84 O85 1.306 . S
C84 O87 1.160 . S
O85 C84 1.306 . S
O85 Cd86 2.228 . S
Cd86 O85 2.228 . S
Cd86 O90 2.273 . S
Cd86 O94 2.277 . S
O87 C84 1.160 . S
O87 Cd88 2.203 . S
Cd88 O87 2.203 . S
Cd88 O90 2.411 . S
Cd88 O91 2.333 . S
Cd88 O92 2.352 . S
Cd88 O96 2.277 . S
Cd88 O97 2.356 . S
C89 O94 1.209 . S
C89 O96 1.226 . S
O90 Cd86 2.273 . S
O90 Cd88 2.411 . S
O90 C93 1.320 . S
O91 Cd88 2.333 . S
O91 C93 1.214 . S
O92 Cd88 2.352 . S
O92 C95 1.258 . S
C93 O90 1.320 . S
C93 O91 1.214 . S
O94 Cd86 2.277 . S
O94 C89 1.209 . S
C95 O92 1.258 . S
C95 O97 1.282 . S
O96 Cd88 2.277 . S
O96 C89 1.226 . S
O97 Cd88 2.356 . S
O97 C95 1.282 . S
C98 O99 1.306 . S
C98 O101 1.160 . S
O99 C98 1.306 . S
O99 Cd100 2.228 . S
Cd100 O99 2.228 . S
Cd100 O104 2.273 . S
Cd100 O108 2.277 . S
O101 C98 1.160 . S
O101 Cd102 2.203 . S
Cd102 O101 2.203 . S
Cd102 O104 2.411 . S
Cd102 O105 2.333 . S
Cd102 O106 2.352 . S
Cd102 O110 2.277 . S
Cd102 O111 2.356 . S
C103 O108 1.209 . S
C103 O110 1.226 . S
O104 Cd100 2.273 . S
O104 Cd102 2.411 . S
O104 C107 1.320 . S
O105 Cd102 2.333 . S
O105 C107 1.214 . S
O106 Cd102 2.352 . S
O106 C109 1.258 . S
C107 O104 1.320 . S
C107 O105 1.214 . S
O108 Cd100 2.277 . S
O108 C103 1.209 . S
C109 O106 1.258 . S
C109 O111 1.282 . S
O110 Cd102 2.277 . S
O110 C103 1.226 . S
O111 Cd102 2.356 . S
O111 C109 1.282 . S
C112 O113 1.306 . S
C112 O115 1.160 . S
O113 C112 1.306 . S
O113 Cd114 2.228 . S
Cd114 O113 2.228 . S
Cd114 O118 2.273 . S
Cd114 O122 2.277 . S
O115 C112 1.160 . S
O115 Cd116 2.203 . S
Cd116 O115 2.203 . S
Cd116 O118 2.411 . S
Cd116 O119 2.333 . S
Cd116 O120 2.352 . S
Cd116 O124 2.277 . S
Cd116 O125 2.356 . S
C117 O122 1.209 . S
C117 O124 1.226 . S
O118 Cd114 2.273 . S
O118 Cd116 2.411 . S
O118 C121 1.320 . S
O119 Cd116 2.333 . S
O119 C121 1.214 . S
O120 Cd116 2.352 . S
O120 C123 1.258 . S
C121 O118 1.320 . S
C121 O119 1.214 . S
O122 Cd114 2.277 . S
O122 C117 1.209 . S
C123 O120 1.258 . S
C123 O125 1.282 . S
O124 Cd116 2.277 . S
O124 C117 1.226 . S
O125 Cd116 2.356 . S
O125 C123 1.282 . S
C126 O127 1.306 . S
C126 O129 1.160 . S
O127 C126 1.306 . S
O127 Cd128 2.228 . S
Cd128 O127 2.228 . S
Cd128 O132 2.273 . S
Cd128 O136 2.277 . S
O129 C126 1.160 . S
O129 Cd130 2.203 . S
Cd130 O129 2.203 . S
Cd130 O132 2.411 . S
Cd130 O133 2.333 . S
Cd130 O134 2.352 . S
Cd130 O138 2.277 . S
Cd130 O139 2.356 . S
C131 O136 1.209 . S
C131 O138 1.226 . S
O132 Cd128 2.273 . S
O132 Cd130 2.411 . S
O132 C135 1.320 . S
O133 Cd130 2.333 . S
O133 C135 1.214 . S
O134 Cd130 2.352 . S
O134 C137 1.258 . S
C135 O132 1.320 . S
C135 O133 1.214 . S
O136 Cd128 2.277 . S
O136 C131 1.209 . S
C137 O134 1.258 . S
C137 O139 1.282 . S
O138 Cd130 2.277 . S
O138 C131 1.226 . S
O139 Cd130 2.356 . S
O139 C137 1.282 . S
C140 O141 1.306 . S
C140 O143 1.160 . S
O141 C140 1.306 . S
O141 Cd142 2.228 . S
Cd142 O141 2.228 . S
Cd142 O146 2.273 . S
Cd142 O150 2.277 . S
O143 C140 1.160 . S
O143 Cd144 2.203 . S
Cd144 O143 2.203 . S
Cd144 O146 2.411 . S
Cd144 O147 2.333 . S
Cd144 O148 2.352 . S
Cd144 O152 2.277 . S
Cd144 O153 2.356 . S
C145 O150 1.209 . S
C145 O152 1.226 . S
O146 Cd142 2.273 . S
O146 Cd144 2.411 . S
O146 C149 1.320 . S
O147 Cd144 2.333 . S
O147 C149 1.214 . S
O148 Cd144 2.352 . S
O148 C151 1.258 . S
C149 O146 1.320 . S
C149 O147 1.214 . S
O150 Cd142 2.277 . S
O150 C145 1.209 . S
C151 O148 1.258 . S
C151 O153 1.282 . S
O152 Cd144 2.277 . S
O152 C145 1.226 . S
O153 Cd144 2.356 . S
O153 C151 1.282 . S
C154 O155 1.306 . S
C154 O157 1.160 . S
O155 C154 1.306 . S
O155 Cd156 2.228 . S
Cd156 O155 2.228 . S
Cd156 O160 2.273 . S
Cd156 O164 2.277 . S
O157 C154 1.160 . S
O157 Cd158 2.203 . S
Cd158 O157 2.203 . S
Cd158 O160 2.411 . S
Cd158 O161 2.333 . S
Cd158 O162 2.352 . S
Cd158 O166 2.277 . S
Cd158 O167 2.356 . S
C159 O164 1.209 . S
C159 O166 1.226 . S
O160 Cd156 2.273 . S
O160 Cd158 2.411 . S
O160 C163 1.320 . S
O161 Cd158 2.333 . S
O161 C163 1.214 . S
O162 Cd158 2.352 . S
O162 C165 1.258 . S
C163 O160 1.320 . S
C163 O161 1.214 . S
O164 Cd156 2.277 . S
O164 C159 1.209 . S
C165 O162 1.258 . S
C165 O167 1.282 . S
O166 Cd158 2.277 . S
O166 C159 1.226 . S
O167 Cd158 2.356 . S
O167 C165 1.282 . S
C168 O169 1.306 . S
C168 O171 1.160 . S
O169 C168 1.306 . S
O169 Cd170 2.228 . S
Cd170 O169 2.228 . S
Cd170 O174 2.273 . S
Cd170 O178 2.277 . S
O171 C168 1.160 . S
O171 Cd172 2.203 . S
Cd172 O171 2.203 . S
Cd172 O174 2.411 . S
Cd172 O175 2.333 . S
Cd172 O176 2.352 . S
Cd172 O180 2.277 . S
Cd172 O181 2.356 . S
C173 O178 1.209 . S
C173 O180 1.226 . S
O174 Cd170 2.273 . S
O174 Cd172 2.411 . S
O174 C177 1.320 . S
O175 Cd172 2.333 . S
O175 C177 1.214 . S
O176 Cd172 2.352 . S
O176 C179 1.258 . S
C177 O174 1.320 . S
C177 O175 1.214 . S
O178 Cd170 2.277 . S
O178 C173 1.209 . S
C179 O176 1.258 . S
C179 O181 1.282 . S
O180 Cd172 2.277 . S
O180 C173 1.226 . S
O181 Cd172 2.356 . S
O181 C179 1.282 . S
C182 O183 1.306 . S
C182 O185 1.160 . S
O183 C182 1.306 . S
O183 Cd184 2.228 . S
Cd184 O183 2.228 . S
Cd184 O188 2.273 . S
Cd184 O192 2.277 . S
O185 C182 1.160 . S
O185 Cd186 2.203 . S
Cd186 O185 2.203 . S
Cd186 O188 2.411 . S
Cd186 O189 2.333 . S
Cd186 O190 2.352 . S
Cd186 O194 2.277 . S
Cd186 O195 2.356 . S
C187 O192 1.209 . S
C187 O194 1.226 . S
O188 Cd184 2.273 . S
O188 Cd186 2.411 . S
O188 C191 1.320 . S
O189 Cd186 2.333 . S
O189 C191 1.214 . S
O190 Cd186 2.352 . S
O190 C193 1.258 . S
C191 O188 1.320 . S
C191 O189 1.214 . S
O192 Cd184 2.277 . S
O192 C187 1.209 . S
C193 O190 1.258 . S
C193 O195 1.282 . S
O194 Cd186 2.277 . S
O194 C187 1.226 . S
O195 Cd186 2.356 . S
O195 C193 1.282 . S
C196 O197 1.306 . S
C196 O199 1.160 . S
O197 C196 1.306 . S
O197 Cd198 2.228 . S
Cd198 O197 2.228 . S
Cd198 O202 2.273 . S
Cd198 O206 2.277 . S
O199 C196 1.160 . S
O199 Cd200 2.203 . S
Cd200 O199 2.203 . S
Cd200 O202 2.411 . S
Cd200 O203 2.333 . S
Cd200 O204 2.352 . S
Cd200 O208 2.277 . S
Cd200 O209 2.356 . S
C201 O206 1.209 . S
C201 O208 1.226 . S
O202 Cd198 2.273 . S
O202 Cd200 2.411 . S
O202 C205 1.320 . S
O203 Cd200 2.333 . S
O203 C205 1.214 . S
O204 Cd200 2.352 . S
O204 C207 1.258 . S
C205 O202 1.320 . S
C205 O203 1.214 . S
O206 Cd198 2.277 . S
O206 C201 1.209 . S
C207 O204 1.258 . S
C207 O209 1.282 . S
O208 Cd200 2.277 . S
O208 C201 1.226 . S
O209 Cd200 2.356 . S
O209 C207 1.282 . S
C210 O211 1.306 . S
C210 O213 1.160 . S
O211 C210 1.306 . S
O211 Cd212 2.228 . S
Cd212 O211 2.228 . S
Cd212 O216 2.273 . S
Cd212 O220 2.277 . S
O213 C210 1.160 . S
O213 Cd214 2.203 . S
Cd214 O213 2.203 . S
Cd214 O216 2.411 . S
Cd214 O217 2.333 . S
Cd214 O218 2.352 . S
Cd214 O222 2.277 . S
Cd214 O223 2.356 . S
C215 O220 1.209 . S
C215 O222 1.226 . S
O216 Cd212 2.273 . S
O216 Cd214 2.411 . S
O216 C219 1.320 . S
O217 Cd214 2.333 . S
O217 C219 1.214 . S
O218 Cd214 2.352 . S
O218 C221 1.258 . S
C219 O216 1.320 . S
C219 O217 1.214 . S
O220 Cd212 2.277 . S
O220 C215 1.209 . S
C221 O218 1.258 . S
C221 O223 1.282 . S
O222 Cd214 2.277 . S
O222 C215 1.226 . S
O223 Cd214 2.356 . S
O223 C221 1.282 . S
C224 O225 1.306 . S
C224 O227 1.160 . S
O225 C224 1.306 . S
O225 Cd226 2.228 . S
Cd226 O225 2.228 . S
Cd226 O230 2.273 . S
Cd226 O234 2.277 . S
O227 C224 1.160 . S
O227 Cd228 2.203 . S
Cd228 O227 2.203 . S
Cd228 O230 2.411 . S
Cd228 O231 2.333 . S
Cd228 O232 2.352 . S
Cd228 O236 2.277 . S
Cd228 O237 2.356 . S
C229 O234 1.209 . S
C229 O236 1.226 . S
O230 Cd226 2.273 . S
O230 Cd228 2.411 . S
O230 C233 1.320 . S
O231 Cd228 2.333 . S
O231 C233 1.214 . S
O232 Cd228 2.352 . S
O232 C235 1.258 . S
C233 O230 1.320 . S
C233 O231 1.214 . S
O234 Cd226 2.277 . S
O234 C229 1.209 . S
C235 O232 1.258 . S
C235 O237 1.282 . S
O236 Cd228 2.277 . S
O236 C229 1.226 . S
O237 Cd228 2.356 . S
O237 C235 1.282 . S
C238 O239 1.306 . S
C238 O241 1.160 . S
O239 C238 1.306 . S
O239 Cd240 2.228 . S
Cd240 O239 2.228 . S
Cd240 O244 2.273 . S
Cd240 O248 2.277 . S
O241 C238 1.160 . S
O241 Cd242 2.203 . S
Cd242 O241 2.203 . S
Cd242 O244 2.411 . S
Cd242 O245 2.333 . S
Cd242 O246 2.352 . S
Cd242 O250 2.277 . S
Cd242 O251 2.356 . S
C243 O248 1.209 . S
C243 O250 1.226 . S
O244 Cd240 2.273 . S
O244 Cd242 2.411 . S
O244 C247 1.320 . S
O245 Cd242 2.333 . S
O245 C247 1.214 . S
O246 Cd242 2.352 . S
O246 C249 1.258 . S
C247 O244 1.320 . S
C247 O245 1.214 . S
O248 Cd240 2.277 . S
O248 C243 1.209 . S
C249 O246 1.258 . S
C249 O251 1.282 . S
O250 Cd242 2.277 . S
O250 C243 1.226 . S
O251 Cd242 2.356 . S
O251 C249 1.282 . S
C252 O253 1.306 . S
C252 O255 1.160 . S
O253 C252 1.306 . S
O253 Cd254 2.228 . S
Cd254 O253 2.228 . S
Cd254 O258 2.273 . S
Cd254 O262 2.277 . S
O255 C252 1.160 . S
O255 Cd256 2.203 . S
Cd256 O255 2.203 . S
Cd256 O258 2.411 . S
Cd256 O259 2.333 . S
Cd256 O260 2.352 . S
Cd256 O264 2.277 . S
Cd256 O265 2.356 . S
C257 O262 1.209 . S
C257 O264 1.226 . S
O258 Cd254 2.273 . S
O258 Cd256 2.411 . S
O258 C261 1.320 . S
O259 Cd256 2.333 . S
O259 C261 1.214 . S
O260 Cd256 2.352 . S
O260 C263 1.258 . S
C261 O258 1.320 . S
C261 O259 1.214 . S
O262 Cd254 2.277 . S
O262 C257 1.209 . S
C263 O260 1.258 . S
C263 O265 1.282 . S
O264 Cd256 2.277 . S
O264 C257 1.226 . S
O265 Cd256 2.356 . S
O265 C263 1.282 . S
C266 O267 1.306 . S
C266 O269 1.160 . S
O267 C266 1.306 . S
O267 Cd268 2.228 . S
Cd268 O267 2.228 . S
Cd268 O272 2.273 . S
Cd268 O276 2.277 . S
O269 C266 1.160 . S
O269 Cd270 2.203 . S
Cd270 O269 2.203 . S
Cd270 O272 2.411 . S
Cd270 O273 2.333 . S
Cd270 O274 2.352 . S
Cd270 O278 2.277 . S
Cd270 O279 2.356 . S
C271 O276 1.209 . S
C271 O278 1.226 . S
O272 Cd268 2.273 . S
O272 Cd270 2.411 . S
O272 C275 1.320 . S
O273 Cd270 2.333 . S
O273 C275 1.214 . S
O274 Cd270 2.352 . S
O274 C277 1.258 . S
C275 O272 1.320 . S
C275 O273 1.214 . S
O276 Cd268 2.277 . S
O276 C271 1.209 . S
C277 O274 1.258 . S
C277 O279 1.282 . S
O278 Cd270 2.277 . S
O278 C271 1.226 . S
O279 Cd270 2.356 . S
O279 C277 1.282 . S
C280 O281 1.306 . S
C280 O283 1.160 . S
O281 C280 1.306 . S
O281 Cd282 2.228 . S
Cd282 O281 2.228 . S
Cd282 O286 2.273 . S
Cd282 O290 2.277 . S
O283 C280 1.160 . S
O283 Cd284 2.203 . S
Cd284 O283 2.203 . S
Cd284 O286 2.411 . S
Cd284 O287 2.333 . S
Cd284 O288 2.352 . S
Cd284 O292 2.277 . S
Cd284 O293 2.356 . S
C285 O290 1.209 . S
C285 O292 1.226 . S
O286 Cd282 2.273 . S
O286 Cd284 2.411 . S
O286 C289 1.320 . S
O287 Cd284 2.333 . S
O287 C289 1.214 . S
O288 Cd284 2.352 . S
O288 C291 1.258 . S
C289 O286 1.320 . S
C289 O287 1.214 . S
O290 Cd282 2.277 . S
O290 C285 1.209 . S
C291 O288 1.258 . S
C291 O293 1.282 . S
O292 Cd284 2.277 . S
O292 C285 1.226 . S
O293 Cd284 2.356 . S
O293 C291 1.282 . S
C294 O295 1.306 . S
C294 O297 1.160 . S
O295 C294 1.306 . S
O295 Cd296 2.228 . S
Cd296 O295 2.228 . S
Cd296 O300 2.273 . S
Cd296 O304 2.277 . S
O297 C294 1.160 . S
O297 Cd298 2.203 . S
Cd298 O297 2.203 . S
Cd298 O300 2.411 . S
Cd298 O301 2.333 . S
Cd298 O302 2.352 . S
Cd298 O306 2.277 . S
Cd298 O307 2.356 . S
C299 O304 1.209 . S
C299 O306 1.226 . S
O300 Cd296 2.273 . S
O300 Cd298 2.411 . S
O300 C303 1.320 . S
O301 Cd298 2.333 . S
O301 C303 1.214 . S
O302 Cd298 2.352 . S
O302 C305 1.258 . S
C303 O300 1.320 . S
C303 O301 1.214 . S
O304 Cd296 2.277 . S
O304 C299 1.209 . S
C305 O302 1.258 . S
C305 O307 1.282 . S
O306 Cd298 2.277 . S
O306 C299 1.226 . S
O307 Cd298 2.356 . S
O307 C305 1.282 . S
C308 O309 1.306 . S
C308 O311 1.160 . S
O309 C308 1.306 . S
O309 Cd310 2.228 . S
Cd310 O309 2.228 . S
Cd310 O314 2.273 . S
Cd310 O318 2.277 . S
O311 C308 1.160 . S
O311 Cd312 2.203 . S
Cd312 O311 2.203 . S
Cd312 O314 2.411 . S
Cd312 O315 2.333 . S
Cd312 O316 2.352 . S
Cd312 O320 2.277 . S
Cd312 O321 2.356 . S
C313 O318 1.209 . S
C313 O320 1.226 . S
O314 Cd310 2.273 . S
O314 Cd312 2.411 . S
O314 C317 1.320 . S
O315 Cd312 2.333 . S
O315 C317 1.214 . S
O316 Cd312 2.352 . S
O316 C319 1.258 . S
C317 O314 1.320 . S
C317 O315 1.214 . S
O318 Cd310 2.277 . S
O318 C313 1.209 . S
C319 O316 1.258 . S
C319 O321 1.282 . S
O320 Cd312 2.277 . S
O320 C313 1.226 . S
O321 Cd312 2.356 . S
O321 C319 1.282 . S
C322 O323 1.306 . S
C322 O325 1.160 . S
O323 C322 1.306 . S
O323 Cd324 2.228 . S
Cd324 O323 2.228 . S
Cd324 O328 2.273 . S
Cd324 O332 2.277 . S
O325 C322 1.160 . S
O325 Cd326 2.203 . S
Cd326 O325 2.203 . S
Cd326 O328 2.411 . S
Cd326 O329 2.333 . S
Cd326 O330 2.352 . S
Cd326 O334 2.277 . S
Cd326 O335 2.356 . S
C327 O332 1.209 . S
C327 O334 1.226 . S
O328 Cd324 2.273 . S
O328 Cd326 2.411 . S
O328 C331 1.320 . S
O329 Cd326 2.333 . S
O329 C331 1.214 . S
O330 Cd326 2.352 . S
O330 C333 1.258 . S
C331 O328 1.320 . S
C331 O329 1.214 . S
O332 Cd324 2.277 . S
O332 C327 1.209 . S
C333 O330 1.258 . S
C333 O335 1.282 . S
O334 Cd326 2.277 . S
O334 C327 1.226 . S
O335 Cd326 2.356 . S
O335 C333 1.282 . S
H336 C354 0.951 . S
H337 C356 0.951 . S
H338 C358 0.950 . S
H339 C359 0.950 . S
H340 C361 0.950 . S
H341 C364 0.950 . S
H342 C365 0.950 . S
H343 C367 0.950 . S
H344 C368 0.950 . S
H345 C369 0.951 . S
H346 C371 0.951 . S
H347 C373 0.950 . S
H348 C374 0.950 . S
H349 C376 0.950 . S
H350 C379 0.950 . S
H351 C380 0.950 . S
H352 C382 0.950 . S
H353 C383 0.950 . S
C354 H336 0.951 . S
C354 C355 1.366 . S
C354 C356 1.388 . S
C355 C354 1.366 . S
C355 C359 1.385 . S
C356 H337 0.951 . S
C356 C354 1.388 . S
C356 C357 1.366 . S
C357 C356 1.366 . S
C357 C358 1.414 . S
C357 C360 1.499 . S
C358 H338 0.950 . S
C358 C357 1.414 . S
C358 C359 1.374 . S
C359 H339 0.950 . S
C359 C355 1.385 . S
C359 C358 1.374 . S
C360 C357 1.499 . S
C360 C361 1.373 . S
C360 C362 1.389 . S
C361 H340 0.950 . S
C361 C360 1.373 . S
C361 C377 1.377 . S
C362 C360 1.389 . S
C362 C363 1.524 . S
C362 C376 1.377 . S
C363 C362 1.524 . S
C363 C364 1.397 . S
C363 C368 1.363 . S
C364 H341 0.950 . S
C364 C363 1.397 . S
C364 C365 1.334 . S
C365 H342 0.950 . S
C365 C364 1.334 . S
C365 C366 1.287 . S
C366 C365 1.287 . S
C366 C367 1.524 . S
C366 H385 0.913 . S
C367 H343 0.950 . S
C367 C366 1.524 . S
C367 C368 1.415 . S
C368 H344 0.950 . S
C368 C363 1.363 . S
C368 C367 1.415 . S
C369 H345 0.951 . S
C369 C370 1.366 . S
C369 C371 1.388 . S
C370 C369 1.366 . S
C370 C374 1.385 . S
C371 H346 0.951 . S
C371 C369 1.388 . S
C371 C372 1.366 . S
C372 C371 1.366 . S
C372 C373 1.414 . S
C372 C375 1.499 . S
C373 H347 0.950 . S
C373 C372 1.414 . S
C373 C374 1.374 . S
C374 H348 0.950 . S
C374 C370 1.385 . S
C374 C373 1.374 . S
C375 C372 1.499 . S
C375 C376 1.373 . S
C375 C377 1.389 . S
C376 H349 0.950 . S
C376 C362 1.377 . S
C376 C375 1.373 . S
C377 C361 1.377 . S
C377 C375 1.389 . S
C377 C378 1.524 . S
C378 C377 1.524 . S
C378 C379 1.397 . S
C378 C383 1.363 . S
C379 H350 0.950 . S
C379 C378 1.397 . S
C379 C380 1.334 . S
C380 H351 0.950 . S
C380 C379 1.334 . S
C380 C381 1.287 . S
C381 C380 1.287 . S
C381 C382 1.524 . S
C381 H384 0.999 . S
C382 H352 0.950 . S
C382 C381 1.524 . S
C382 C383 1.415 . S
C383 H353 0.950 . S
C383 C378 1.363 . S
C383 C382 1.415 . S
H384 C381 0.999 . S
H385 C366 0.913 . S
H386 C404 0.951 . S
H387 C406 0.951 . S
H388 C408 0.950 . S
H389 C409 0.950 . S
H390 C411 0.950 . S
H391 C414 0.950 . S
H392 C415 0.950 . S
H393 C417 0.950 . S
H394 C418 0.950 . S
H395 C419 0.951 . S
H396 C421 0.951 . S
H397 C423 0.950 . S
H398 C424 0.950 . S
H399 C426 0.950 . S
H400 C429 0.950 . S
H401 C430 0.950 . S
H402 C432 0.950 . S
H403 C433 0.950 . S
C404 H386 0.951 . S
C404 C405 1.366 . S
C404 C406 1.388 . S
C405 C404 1.366 . S
C405 C409 1.385 . S
C406 H387 0.951 . S
C406 C404 1.388 . S
C406 C407 1.366 . S
C407 C406 1.366 . S
C407 C408 1.414 . S
C407 C410 1.499 . S
C408 H388 0.950 . S
C408 C407 1.414 . S
C408 C409 1.374 . S
C409 H389 0.950 . S
C409 C405 1.385 . S
C409 C408 1.374 . S
C410 C407 1.499 . S
C410 C411 1.373 . S
C410 C412 1.389 . S
C411 H390 0.950 . S
C411 C410 1.373 . S
C411 C427 1.377 . S
C412 C410 1.389 . S
C412 C413 1.524 . S
C412 C426 1.377 . S
C413 C412 1.524 . S
C413 C414 1.397 . S
C413 C418 1.363 . S
C414 H391 0.950 . S
C414 C413 1.397 . S
C414 C415 1.334 . S
C415 H392 0.950 . S
C415 C414 1.334 . S
C415 C416 1.287 . S
C416 C415 1.287 . S
C416 C417 1.524 . S
C416 H435 0.913 . S
C417 H393 0.950 . S
C417 C416 1.524 . S
C417 C418 1.415 . S
C418 H394 0.950 . S
C418 C413 1.363 . S
C418 C417 1.415 . S
C419 H395 0.951 . S
C419 C420 1.366 . S
C419 C421 1.388 . S
C420 C419 1.366 . S
C420 C424 1.385 . S
C421 H396 0.951 . S
C421 C419 1.388 . S
C421 C422 1.366 . S
C422 C421 1.366 . S
C422 C423 1.414 . S
C422 C425 1.499 . S
C423 H397 0.950 . S
C423 C422 1.414 . S
C423 C424 1.374 . S
C424 H398 0.950 . S
C424 C420 1.385 . S
C424 C423 1.374 . S
C425 C422 1.499 . S
C425 C426 1.373 . S
C425 C427 1.389 . S
C426 H399 0.950 . S
C426 C412 1.377 . S
C426 C425 1.373 . S
C427 C411 1.377 . S
C427 C425 1.389 . S
C427 C428 1.524 . S
C428 C427 1.524 . S
C428 C429 1.397 . S
C428 C433 1.363 . S
C429 H400 0.950 . S
C429 C428 1.397 . S
C429 C430 1.334 . S
C430 H401 0.950 . S
C430 C429 1.334 . S
C430 C431 1.287 . S
C431 C430 1.287 . S
C431 C432 1.524 . S
C431 H434 0.999 . S
C432 H402 0.950 . S
C432 C431 1.524 . S
C432 C433 1.415 . S
C433 H403 0.950 . S
C433 C428 1.363 . S
C433 C432 1.415 . S
H434 C431 0.999 . S
H435 C416 0.913 . S
H436 C454 0.951 . S
H437 C456 0.951 . S
H438 C458 0.950 . S
H439 C459 0.950 . S
H440 C461 0.950 . S
H441 C464 0.950 . S
H442 C465 0.950 . S
H443 C467 0.950 . S
H444 C468 0.950 . S
H445 C469 0.951 . S
H446 C471 0.951 . S
H447 C473 0.950 . S
H448 C474 0.950 . S
H449 C476 0.950 . S
H450 C479 0.950 . S
H451 C480 0.950 . S
H452 C482 0.950 . S
H453 C483 0.950 . S
C454 H436 0.951 . S
C454 C455 1.366 . S
C454 C456 1.388 . S
C455 C454 1.366 . S
C455 C459 1.385 . S
C456 H437 0.951 . S
C456 C454 1.388 . S
C456 C457 1.366 . S
C457 C456 1.366 . S
C457 C458 1.414 . S
C457 C460 1.499 . S
C458 H438 0.950 . S
C458 C457 1.414 . S
C458 C459 1.374 . S
C459 H439 0.950 . S
C459 C455 1.385 . S
C459 C458 1.374 . S
C460 C457 1.499 . S
C460 C461 1.373 . S
C460 C462 1.389 . S
C461 H440 0.950 . S
C461 C460 1.373 . S
C461 C477 1.377 . S
C462 C460 1.389 . S
C462 C463 1.524 . S
C462 C476 1.377 . S
C463 C462 1.524 . S
C463 C464 1.397 . S
C463 C468 1.363 . S
C464 H441 0.950 . S
C464 C463 1.397 . S
C464 C465 1.334 . S
C465 H442 0.950 . S
C465 C464 1.334 . S
C465 C466 1.287 . S
C466 C465 1.287 . S
C466 C467 1.524 . S
C466 H485 0.913 . S
C467 H443 0.950 . S
C467 C466 1.524 . S
C467 C468 1.415 . S
C468 H444 0.950 . S
C468 C463 1.363 . S
C468 C467 1.415 . S
C469 H445 0.951 . S
C469 C470 1.366 . S
C469 C471 1.388 . S
C470 C469 1.366 . S
C470 C474 1.385 . S
C471 H446 0.951 . S
C471 C469 1.388 . S
C471 C472 1.366 . S
C472 C471 1.366 . S
C472 C473 1.414 . S
C472 C475 1.499 . S
C473 H447 0.950 . S
C473 C472 1.414 . S
C473 C474 1.374 . S
C474 H448 0.950 . S
C474 C470 1.385 . S
C474 C473 1.374 . S
C475 C472 1.499 . S
C475 C476 1.373 . S
C475 C477 1.389 . S
C476 H449 0.950 . S
C476 C462 1.377 . S
C476 C475 1.373 . S
C477 C461 1.377 . S
C477 C475 1.389 . S
C477 C478 1.524 . S
C478 C477 1.524 . S
C478 C479 1.397 . S
C478 C483 1.363 . S
C479 H450 0.950 . S
C479 C478 1.397 . S
C479 C480 1.334 . S
C480 H451 0.950 . S
C480 C479 1.334 . S
C480 C481 1.287 . S
C481 C480 1.287 . S
C481 C482 1.524 . S
C481 H484 0.999 . S
C482 H452 0.950 . S
C482 C481 1.524 . S
C482 C483 1.415 . S
C483 H453 0.950 . S
C483 C478 1.363 . S
C483 C482 1.415 . S
H484 C481 0.999 . S
H485 C466 0.913 . S
H486 C504 0.951 . S
H487 C506 0.951 . S
H488 C508 0.950 . S
H489 C509 0.950 . S
H490 C511 0.950 . S
H491 C514 0.950 . S
H492 C515 0.950 . S
H493 C517 0.950 . S
H494 C518 0.950 . S
H495 C519 0.951 . S
H496 C521 0.951 . S
H497 C523 0.950 . S
H498 C524 0.950 . S
H499 C526 0.950 . S
H500 C529 0.950 . S
H501 C530 0.950 . S
H502 C532 0.950 . S
H503 C533 0.950 . S
C504 H486 0.951 . S
C504 C505 1.366 . S
C504 C506 1.388 . S
C505 C504 1.366 . S
C505 C509 1.385 . S
C506 H487 0.951 . S
C506 C504 1.388 . S
C506 C507 1.366 . S
C507 C506 1.366 . S
C507 C508 1.414 . S
C507 C510 1.499 . S
C508 H488 0.950 . S
C508 C507 1.414 . S
C508 C509 1.374 . S
C509 H489 0.950 . S
C509 C505 1.385 . S
C509 C508 1.374 . S
C510 C507 1.499 . S
C510 C511 1.373 . S
C510 C512 1.389 . S
C511 H490 0.950 . S
C511 C510 1.373 . S
C511 C527 1.377 . S
C512 C510 1.389 . S
C512 C513 1.524 . S
C512 C526 1.377 . S
C513 C512 1.524 . S
C513 C514 1.397 . S
C513 C518 1.363 . S
C514 H491 0.950 . S
C514 C513 1.397 . S
C514 C515 1.334 . S
C515 H492 0.950 . S
C515 C514 1.334 . S
C515 C516 1.287 . S
C516 C515 1.287 . S
C516 C517 1.524 . S
C516 H535 0.913 . S
C517 H493 0.950 . S
C517 C516 1.524 . S
C517 C518 1.415 . S
C518 H494 0.950 . S
C518 C513 1.363 . S
C518 C517 1.415 . S
C519 H495 0.951 . S
C519 C520 1.366 . S
C519 C521 1.388 . S
C520 C519 1.366 . S
C520 C524 1.385 . S
C521 H496 0.951 . S
C521 C519 1.388 . S
C521 C522 1.366 . S
C522 C521 1.366 . S
C522 C523 1.414 . S
C522 C525 1.499 . S
C523 H497 0.950 . S
C523 C522 1.414 . S
C523 C524 1.374 . S
C524 H498 0.950 . S
C524 C520 1.385 . S
C524 C523 1.374 . S
C525 C522 1.499 . S
C525 C526 1.373 . S
C525 C527 1.389 . S
C526 H499 0.950 . S
C526 C512 1.377 . S
C526 C525 1.373 . S
C527 C511 1.377 . S
C527 C525 1.389 . S
C527 C528 1.524 . S
C528 C527 1.524 . S
C528 C529 1.397 . S
C528 C533 1.363 . S
C529 H500 0.950 . S
C529 C528 1.397 . S
C529 C530 1.334 . S
C530 H501 0.950 . S
C530 C529 1.334 . S
C530 C531 1.287 . S
C531 C530 1.287 . S
C531 C532 1.524 . S
C531 H534 0.999 . S
C532 H502 0.950 . S
C532 C531 1.524 . S
C532 C533 1.415 . S
C533 H503 0.950 . S
C533 C528 1.363 . S
C533 C532 1.415 . S
H534 C531 0.999 . S
H535 C516 0.913 . S
H536 C554 0.951 . S
H537 C556 0.951 . S
H538 C558 0.950 . S
H539 C559 0.950 . S
H540 C561 0.950 . S
H541 C564 0.950 . S
H542 C565 0.950 . S
H543 C567 0.950 . S
H544 C568 0.950 . S
H545 C569 0.951 . S
H546 C571 0.951 . S
H547 C573 0.950 . S
H548 C574 0.950 . S
H549 C576 0.950 . S
H550 C579 0.950 . S
H551 C580 0.950 . S
H552 C582 0.950 . S
H553 C583 0.950 . S
C554 H536 0.951 . S
C554 C555 1.366 . S
C554 C556 1.388 . S
C555 C554 1.366 . S
C555 C559 1.385 . S
C556 H537 0.951 . S
C556 C554 1.388 . S
C556 C557 1.366 . S
C557 C556 1.366 . S
C557 C558 1.414 . S
C557 C560 1.499 . S
C558 H538 0.950 . S
C558 C557 1.414 . S
C558 C559 1.374 . S
C559 H539 0.950 . S
C559 C555 1.385 . S
C559 C558 1.374 . S
C560 C557 1.499 . S
C560 C561 1.373 . S
C560 C562 1.389 . S
C561 H540 0.950 . S
C561 C560 1.373 . S
C561 C577 1.377 . S
C562 C560 1.389 . S
C562 C563 1.524 . S
C562 C576 1.377 . S
C563 C562 1.524 . S
C563 C564 1.397 . S
C563 C568 1.363 . S
C564 H541 0.950 . S
C564 C563 1.397 . S
C564 C565 1.334 . S
C565 H542 0.950 . S
C565 C564 1.334 . S
C565 C566 1.287 . S
C566 C565 1.287 . S
C566 C567 1.524 . S
C566 H585 0.913 . S
C567 H543 0.950 . S
C567 C566 1.524 . S
C567 C568 1.415 . S
C568 H544 0.950 . S
C568 C563 1.363 . S
C568 C567 1.415 . S
C569 H545 0.951 . S
C569 C570 1.366 . S
C569 C571 1.388 . S
C570 C569 1.366 . S
C570 C574 1.385 . S
C571 H546 0.951 . S
C571 C569 1.388 . S
C571 C572 1.366 . S
C572 C571 1.366 . S
C572 C573 1.414 . S
C572 C575 1.499 . S
C573 H547 0.950 . S
C573 C572 1.414 . S
C573 C574 1.374 . S
C574 H548 0.950 . S
C574 C570 1.385 . S
C574 C573 1.374 . S
C575 C572 1.499 . S
C575 C576 1.373 . S
C575 C577 1.389 . S
C576 H549 0.950 . S
C576 C562 1.377 . S
C576 C575 1.373 . S
C577 C561 1.377 . S
C577 C575 1.389 . S
C577 C578 1.524 . S
C578 C577 1.524 . S
C578 C579 1.397 . S
C578 C583 1.363 . S
C579 H550 0.950 . S
C579 C578 1.397 . S
C579 C580 1.334 . S
C580 H551 0.950 . S
C580 C579 1.334 . S
C580 C581 1.287 . S
C581 C580 1.287 . S
C581 C582 1.524 . S
C581 H584 0.999 . S
C582 H552 0.950 . S
C582 C581 1.524 . S
C582 C583 1.415 . S
C583 H553 0.950 . S
C583 C578 1.363 . S
C583 C582 1.415 . S
H584 C581 0.999 . S
H585 C566 0.913 . S
H586 C604 0.951 . S
H587 C606 0.951 . S
H588 C608 0.950 . S
H589 C609 0.950 . S
H590 C611 0.950 . S
H591 C614 0.950 . S
H592 C615 0.950 . S
H593 C617 0.950 . S
H594 C618 0.950 . S
H595 C619 0.951 . S
H596 C621 0.951 . S
H597 C623 0.950 . S
H598 C624 0.950 . S
H599 C626 0.950 . S
H600 C629 0.950 . S
H601 C630 0.950 . S
H602 C632 0.950 . S
H603 C633 0.950 . S
C604 H586 0.951 . S
C604 C605 1.366 . S
C604 C606 1.388 . S
C605 C604 1.366 . S
C605 C609 1.385 . S
C606 H587 0.951 . S
C606 C604 1.388 . S
C606 C607 1.366 . S
C607 C606 1.366 . S
C607 C608 1.414 . S
C607 C610 1.499 . S
C608 H588 0.950 . S
C608 C607 1.414 . S
C608 C609 1.374 . S
C609 H589 0.950 . S
C609 C605 1.385 . S
C609 C608 1.374 . S
C610 C607 1.499 . S
C610 C611 1.373 . S
C610 C612 1.389 . S
C611 H590 0.950 . S
C611 C610 1.373 . S
C611 C627 1.377 . S
C612 C610 1.389 . S
C612 C613 1.524 . S
C612 C626 1.377 . S
C613 C612 1.524 . S
C613 C614 1.397 . S
C613 C618 1.363 . S
C614 H591 0.950 . S
C614 C613 1.397 . S
C614 C615 1.334 . S
C615 H592 0.950 . S
C615 C614 1.334 . S
C615 C616 1.287 . S
C616 C615 1.287 . S
C616 C617 1.524 . S
C616 H635 0.913 . S
C617 H593 0.950 . S
C617 C616 1.524 . S
C617 C618 1.415 . S
C618 H594 0.950 . S
C618 C613 1.363 . S
C618 C617 1.415 . S
C619 H595 0.951 . S
C619 C620 1.366 . S
C619 C621 1.388 . S
C620 C619 1.366 . S
C620 C624 1.385 . S
C621 H596 0.951 . S
C621 C619 1.388 . S
C621 C622 1.366 . S
C622 C621 1.366 . S
C622 C623 1.414 . S
C622 C625 1.499 . S
C623 H597 0.950 . S
C623 C622 1.414 . S
C623 C624 1.374 . S
C624 H598 0.950 . S
C624 C620 1.385 . S
C624 C623 1.374 . S
C625 C622 1.499 . S
C625 C626 1.373 . S
C625 C627 1.389 . S
C626 H599 0.950 . S
C626 C612 1.377 . S
C626 C625 1.373 . S
C627 C611 1.377 . S
C627 C625 1.389 . S
C627 C628 1.524 . S
C628 C627 1.524 . S
C628 C629 1.397 . S
C628 C633 1.363 . S
C629 H600 0.950 . S
C629 C628 1.397 . S
C629 C630 1.334 . S
C630 H601 0.950 . S
C630 C629 1.334 . S
C630 C631 1.287 . S
C631 C630 1.287 . S
C631 C632 1.524 . S
C631 H634 0.999 . S
C632 H602 0.950 . S
C632 C631 1.524 . S
C632 C633 1.415 . S
C633 H603 0.950 . S
C633 C628 1.363 . S
C633 C632 1.415 . S
H634 C631 0.999 . S
H635 C616 0.913 . S
H636 C654 0.951 . S
H637 C656 0.951 . S
H638 C658 0.950 . S
H639 C659 0.950 . S
H640 C661 0.950 . S
H641 C664 0.950 . S
H642 C665 0.950 . S
H643 C667 0.950 . S
H644 C668 0.950 . S
H645 C669 0.951 . S
H646 C671 0.951 . S
H647 C673 0.950 . S
H648 C674 0.950 . S
H649 C676 0.950 . S
H650 C679 0.950 . S
H651 C680 0.950 . S
H652 C682 0.950 . S
H653 C683 0.950 . S
C654 H636 0.951 . S
C654 C655 1.366 . S
C654 C656 1.388 . S
C655 C654 1.366 . S
C655 C659 1.385 . S
C656 H637 0.951 . S
C656 C654 1.388 . S
C656 C657 1.366 . S
C657 C656 1.366 . S
C657 C658 1.414 . S
C657 C660 1.499 . S
C658 H638 0.950 . S
C658 C657 1.414 . S
C658 C659 1.374 . S
C659 H639 0.950 . S
C659 C655 1.385 . S
C659 C658 1.374 . S
C660 C657 1.499 . S
C660 C661 1.373 . S
C660 C662 1.389 . S
C661 H640 0.950 . S
C661 C660 1.373 . S
C661 C677 1.377 . S
C662 C660 1.389 . S
C662 C663 1.524 . S
C662 C676 1.377 . S
C663 C662 1.524 . S
C663 C664 1.397 . S
C663 C668 1.363 . S
C664 H641 0.950 . S
C664 C663 1.397 . S
C664 C665 1.334 . S
C665 H642 0.950 . S
C665 C664 1.334 . S
C665 C666 1.287 . S
C666 C665 1.287 . S
C666 C667 1.524 . S
C666 H685 0.913 . S
C667 H643 0.950 . S
C667 C666 1.524 . S
C667 C668 1.415 . S
C668 H644 0.950 . S
C668 C663 1.363 . S
C668 C667 1.415 . S
C669 H645 0.951 . S
C669 C670 1.366 . S
C669 C671 1.388 . S
C670 C669 1.366 . S
C670 C674 1.385 . S
C671 H646 0.951 . S
C671 C669 1.388 . S
C671 C672 1.366 . S
C672 C671 1.366 . S
C672 C673 1.414 . S
C672 C675 1.499 . S
C673 H647 0.950 . S
C673 C672 1.414 . S
C673 C674 1.374 . S
C674 H648 0.950 . S
C674 C670 1.385 . S
C674 C673 1.374 . S
C675 C672 1.499 . S
C675 C676 1.373 . S
C675 C677 1.389 . S
C676 H649 0.950 . S
C676 C662 1.377 . S
C676 C675 1.373 . S
C677 C661 1.377 . S
C677 C675 1.389 . S
C677 C678 1.524 . S
C678 C677 1.524 . S
C678 C679 1.397 . S
C678 C683 1.363 . S
C679 H650 0.950 . S
C679 C678 1.397 . S
C679 C680 1.334 . S
C680 H651 0.950 . S
C680 C679 1.334 . S
C680 C681 1.287 . S
C681 C680 1.287 . S
C681 C682 1.524 . S
C681 H684 0.999 . S
C682 H652 0.950 . S
C682 C681 1.524 . S
C682 C683 1.415 . S
C683 H653 0.950 . S
C683 C678 1.363 . S
C683 C682 1.415 . S
H684 C681 0.999 . S
H685 C666 0.913 . S
H686 C704 0.951 . S
H687 C706 0.951 . S
H688 C708 0.950 . S
H689 C709 0.950 . S
H690 C711 0.950 . S
H691 C714 0.950 . S
H692 C715 0.950 . S
H693 C717 0.950 . S
H694 C718 0.950 . S
H695 C719 0.951 . S
H696 C721 0.951 . S
H697 C723 0.950 . S
H698 C724 0.950 . S
H699 C726 0.950 . S
H700 C729 0.950 . S
H701 C730 0.950 . S
H702 C732 0.950 . S
H703 C733 0.950 . S
C704 H686 0.951 . S
C704 C705 1.366 . S
C704 C706 1.388 . S
C705 C704 1.366 . S
C705 C709 1.385 . S
C706 H687 0.951 . S
C706 C704 1.388 . S
C706 C707 1.366 . S
C707 C706 1.366 . S
C707 C708 1.414 . S
C707 C710 1.499 . S
C708 H688 0.950 . S
C708 C707 1.414 . S
C708 C709 1.374 . S
C709 H689 0.950 . S
C709 C705 1.385 . S
C709 C708 1.374 . S
C710 C707 1.499 . S
C710 C711 1.373 . S
C710 C712 1.389 . S
C711 H690 0.950 . S
C711 C710 1.373 . S
C711 C727 1.377 . S
C712 C710 1.389 . S
C712 C713 1.524 . S
C712 C726 1.377 . S
C713 C712 1.524 . S
C713 C714 1.397 . S
C713 C718 1.363 . S
C714 H691 0.950 . S
C714 C713 1.397 . S
C714 C715 1.334 . S
C715 H692 0.950 . S
C715 C714 1.334 . S
C715 C716 1.287 . S
C716 C715 1.287 . S
C716 C717 1.524 . S
C716 H735 0.913 . S
C717 H693 0.950 . S
C717 C716 1.524 . S
C717 C718 1.415 . S
C718 H694 0.950 . S
C718 C713 1.363 . S
C718 C717 1.415 . S
C719 H695 0.951 . S
C719 C720 1.366 . S
C719 C721 1.388 . S
C720 C719 1.366 . S
C720 C724 1.385 . S
C721 H696 0.951 . S
C721 C719 1.388 . S
C721 C722 1.366 . S
C722 C721 1.366 . S
C722 C723 1.414 . S
C722 C725 1.499 . S
C723 H697 0.950 . S
C723 C722 1.414 . S
C723 C724 1.374 . S
C724 H698 0.950 . S
C724 C720 1.385 . S
C724 C723 1.374 . S
C725 C722 1.499 . S
C725 C726 1.373 . S
C725 C727 1.389 . S
C726 H699 0.950 . S
C726 C712 1.377 . S
C726 C725 1.373 . S
C727 C711 1.377 . S
C727 C725 1.389 . S
C727 C728 1.524 . S
C728 C727 1.524 . S
C728 C729 1.397 . S
C728 C733 1.363 . S
C729 H700 0.950 . S
C729 C728 1.397 . S
C729 C730 1.334 . S
C730 H701 0.950 . S
C730 C729 1.334 . S
C730 C731 1.287 . S
C731 C730 1.287 . S
C731 C732 1.524 . S
C731 H734 0.999 . S
C732 H702 0.950 . S
C732 C731 1.524 . S
C732 C733 1.415 . S
C733 H703 0.950 . S
C733 C728 1.363 . S
C733 C732 1.415 . S
H734 C731 0.999 . S
H735 C716 0.913 . S
H736 C754 0.951 . S
H737 C756 0.951 . S
H738 C758 0.950 . S
H739 C759 0.950 . S
H740 C761 0.950 . S
H741 C764 0.950 . S
H742 C765 0.950 . S
H743 C767 0.950 . S
H744 C768 0.950 . S
H745 C769 0.951 . S
H746 C771 0.951 . S
H747 C773 0.950 . S
H748 C774 0.950 . S
H749 C776 0.950 . S
H750 C779 0.950 . S
H751 C780 0.950 . S
H752 C782 0.950 . S
H753 C783 0.950 . S
C754 H736 0.951 . S
C754 C755 1.366 . S
C754 C756 1.388 . S
C755 C754 1.366 . S
C755 C759 1.385 . S
C756 H737 0.951 . S
C756 C754 1.388 . S
C756 C757 1.366 . S
C757 C756 1.366 . S
C757 C758 1.414 . S
C757 C760 1.499 . S
C758 H738 0.950 . S
C758 C757 1.414 . S
C758 C759 1.374 . S
C759 H739 0.950 . S
C759 C755 1.385 . S
C759 C758 1.374 . S
C760 C757 1.499 . S
C760 C761 1.373 . S
C760 C762 1.389 . S
C761 H740 0.950 . S
C761 C760 1.373 . S
C761 C777 1.377 . S
C762 C760 1.389 . S
C762 C763 1.524 . S
C762 C776 1.377 . S
C763 C762 1.524 . S
C763 C764 1.397 . S
C763 C768 1.363 . S
C764 H741 0.950 . S
C764 C763 1.397 . S
C764 C765 1.334 . S
C765 H742 0.950 . S
C765 C764 1.334 . S
C765 C766 1.287 . S
C766 C765 1.287 . S
C766 C767 1.524 . S
C766 H785 0.913 . S
C767 H743 0.950 . S
C767 C766 1.524 . S
C767 C768 1.415 . S
C768 H744 0.950 . S
C768 C763 1.363 . S
C768 C767 1.415 . S
C769 H745 0.951 . S
C769 C770 1.366 . S
C769 C771 1.388 . S
C770 C769 1.366 . S
C770 C774 1.385 . S
C771 H746 0.951 . S
C771 C769 1.388 . S
C771 C772 1.366 . S
C772 C771 1.366 . S
C772 C773 1.414 . S
C772 C775 1.499 . S
C773 H747 0.950 . S
C773 C772 1.414 . S
C773 C774 1.374 . S
C774 H748 0.950 . S
C774 C770 1.385 . S
C774 C773 1.374 . S
C775 C772 1.499 . S
C775 C776 1.373 . S
C775 C777 1.389 . S
C776 H749 0.950 . S
C776 C762 1.377 . S
C776 C775 1.373 . S
C777 C761 1.377 . S
C777 C775 1.389 . S
C777 C778 1.524 . S
C778 C777 1.524 . S
C778 C779 1.397 . S
C778 C783 1.363 . S
C779 H750 0.950 . S
C779 C778 1.397 . S
C779 C780 1.334 . S
C780 H751 0.950 . S
C780 C779 1.334 . S
C780 C781 1.287 . S
C781 C780 1.287 . S
C781 C782 1.524 . S
C781 H784 0.999 . S
C782 H752 0.950 . S
C782 C781 1.524 . S
C782 C783 1.415 . S
C783 H753 0.950 . S
C783 C778 1.363 . S
C783 C782 1.415 . S
H784 C781 0.999 . S
H785 C766 0.913 . S
H786 C804 0.951 . S
H787 C806 0.951 . S
H788 C808 0.950 . S
H789 C809 0.950 . S
H790 C811 0.950 . S
H791 C814 0.950 . S
H792 C815 0.950 . S
H793 C817 0.950 . S
H794 C818 0.950 . S
H795 C819 0.951 . S
H796 C821 0.951 . S
H797 C823 0.950 . S
H798 C824 0.950 . S
H799 C826 0.950 . S
H800 C829 0.950 . S
H801 C830 0.950 . S
H802 C832 0.950 . S
H803 C833 0.950 . S
C804 H786 0.951 . S
C804 C805 1.366 . S
C804 C806 1.388 . S
C805 C804 1.366 . S
C805 C809 1.385 . S
C806 H787 0.951 . S
C806 C804 1.388 . S
C806 C807 1.366 . S
C807 C806 1.366 . S
C807 C808 1.414 . S
C807 C810 1.499 . S
C808 H788 0.950 . S
C808 C807 1.414 . S
C808 C809 1.374 . S
C809 H789 0.950 . S
C809 C805 1.385 . S
C809 C808 1.374 . S
C810 C807 1.499 . S
C810 C811 1.373 . S
C810 C812 1.389 . S
C811 H790 0.950 . S
C811 C810 1.373 . S
C811 C827 1.377 . S
C812 C810 1.389 . S
C812 C813 1.524 . S
C812 C826 1.377 . S
C813 C812 1.524 . S
C813 C814 1.397 . S
C813 C818 1.363 . S
C814 H791 0.950 . S
C814 C813 1.397 . S
C814 C815 1.334 . S
C815 H792 0.950 . S
C815 C814 1.334 . S
C815 C816 1.287 . S
C816 C815 1.287 . S
C816 C817 1.524 . S
C816 H835 0.913 . S
C817 H793 0.950 . S
C817 C816 1.524 . S
C817 C818 1.415 . S
C818 H794 0.950 . S
C818 C813 1.363 . S
C818 C817 1.415 . S
C819 H795 0.951 . S
C819 C820 1.366 . S
C819 C821 1.388 . S
C820 C819 1.366 . S
C820 C824 1.385 . S
C821 H796 0.951 . S
C821 C819 1.388 . S
C821 C822 1.366 . S
C822 C821 1.366 . S
C822 C823 1.414 . S
C822 C825 1.499 . S
C823 H797 0.950 . S
C823 C822 1.414 . S
C823 C824 1.374 . S
C824 H798 0.950 . S
C824 C820 1.385 . S
C824 C823 1.374 . S
C825 C822 1.499 . S
C825 C826 1.373 . S
C825 C827 1.389 . S
C826 H799 0.950 . S
C826 C812 1.377 . S
C826 C825 1.373 . S
C827 C811 1.377 . S
C827 C825 1.389 . S
C827 C828 1.524 . S
C828 C827 1.524 . S
C828 C829 1.397 . S
C828 C833 1.363 . S
C829 H800 0.950 . S
C829 C828 1.397 . S
C829 C830 1.334 . S
C830 H801 0.950 . S
C830 C829 1.334 . S
C830 C831 1.287 . S
C831 C830 1.287 . S
C831 C832 1.524 . S
C831 H834 0.999 . S
C832 H802 0.950 . S
C832 C831 1.524 . S
C832 C833 1.415 . S
C833 H803 0.950 . S
C833 C828 1.363 . S
C833 C832 1.415 . S
H834 C831 0.999 . S
H835 C816 0.913 . S
H836 C854 0.951 . S
H837 C856 0.951 . S
H838 C858 0.950 . S
H839 C859 0.950 . S
H840 C861 0.950 . S
H841 C864 0.950 . S
H842 C865 0.950 . S
H843 C867 0.950 . S
H844 C868 0.950 . S
H845 C869 0.951 . S
H846 C871 0.951 . S
H847 C873 0.950 . S
H848 C874 0.950 . S
H849 C876 0.950 . S
H850 C879 0.950 . S
H851 C880 0.950 . S
H852 C882 0.950 . S
H853 C883 0.950 . S
C854 H836 0.951 . S
C854 C855 1.366 . S
C854 C856 1.388 . S
C855 C854 1.366 . S
C855 C859 1.385 . S
C856 H837 0.951 . S
C856 C854 1.388 . S
C856 C857 1.366 . S
C857 C856 1.366 . S
C857 C858 1.414 . S
C857 C860 1.499 . S
C858 H838 0.950 . S
C858 C857 1.414 . S
C858 C859 1.374 . S
C859 H839 0.950 . S
C859 C855 1.385 . S
C859 C858 1.374 . S
C860 C857 1.499 . S
C860 C861 1.373 . S
C860 C862 1.389 . S
C861 H840 0.950 . S
C861 C860 1.373 . S
C861 C877 1.377 . S
C862 C860 1.389 . S
C862 C863 1.524 . S
C862 C876 1.377 . S
C863 C862 1.524 . S
C863 C864 1.397 . S
C863 C868 1.363 . S
C864 H841 0.950 . S
C864 C863 1.397 . S
C864 C865 1.334 . S
C865 H842 0.950 . S
C865 C864 1.334 . S
C865 C866 1.287 . S
C866 C865 1.287 . S
C866 C867 1.524 . S
C866 H885 0.913 . S
C867 H843 0.950 . S
C867 C866 1.524 . S
C867 C868 1.415 . S
C868 H844 0.950 . S
C868 C863 1.363 . S
C868 C867 1.415 . S
C869 H845 0.951 . S
C869 C870 1.366 . S
C869 C871 1.388 . S
C870 C869 1.366 . S
C870 C874 1.385 . S
C871 H846 0.951 . S
C871 C869 1.388 . S
C871 C872 1.366 . S
C872 C871 1.366 . S
C872 C873 1.414 . S
C872 C875 1.499 . S
C873 H847 0.950 . S
C873 C872 1.414 . S
C873 C874 1.374 . S
C874 H848 0.950 . S
C874 C870 1.385 . S
C874 C873 1.374 . S
C875 C872 1.499 . S
C875 C876 1.373 . S
C875 C877 1.389 . S
C876 H849 0.950 . S
C876 C862 1.377 . S
C876 C875 1.373 . S
C877 C861 1.377 . S
C877 C875 1.389 . S
C877 C878 1.524 . S
C878 C877 1.524 . S
C878 C879 1.397 . S
C878 C883 1.363 . S
C879 H850 0.950 . S
C879 C878 1.397 . S
C879 C880 1.334 . S
C880 H851 0.950 . S
C880 C879 1.334 . S
C880 C881 1.287 . S
C881 C880 1.287 . S
C881 C882 1.524 . S
C881 H884 0.999 . S
C882 H852 0.950 . S
C882 C881 1.524 . S
C882 C883 1.415 . S
C883 H853 0.950 . S
C883 C878 1.363 . S
C883 C882 1.415 . S
H884 C881 0.999 . S
H885 C866 0.913 . S
H886 C904 0.951 . S
H887 C906 0.951 . S
H888 C908 0.950 . S
H889 C909 0.950 . S
H890 C911 0.950 . S
H891 C914 0.950 . S
H892 C915 0.950 . S
H893 C917 0.950 . S
H894 C918 0.950 . S
H895 C919 0.951 . S
H896 C921 0.951 . S
H897 C923 0.950 . S
H898 C924 0.950 . S
H899 C926 0.950 . S
H900 C929 0.950 . S
H901 C930 0.950 . S
H902 C932 0.950 . S
H903 C933 0.950 . S
C904 H886 0.951 . S
C904 C905 1.366 . S
C904 C906 1.388 . S
C905 C904 1.366 . S
C905 C909 1.385 . S
C906 H887 0.951 . S
C906 C904 1.388 . S
C906 C907 1.366 . S
C907 C906 1.366 . S
C907 C908 1.414 . S
C907 C910 1.499 . S
C908 H888 0.950 . S
C908 C907 1.414 . S
C908 C909 1.374 . S
C909 H889 0.950 . S
C909 C905 1.385 . S
C909 C908 1.374 . S
C910 C907 1.499 . S
C910 C911 1.373 . S
C910 C912 1.389 . S
C911 H890 0.950 . S
C911 C910 1.373 . S
C911 C927 1.377 . S
C912 C910 1.389 . S
C912 C913 1.524 . S
C912 C926 1.377 . S
C913 C912 1.524 . S
C913 C914 1.397 . S
C913 C918 1.363 . S
C914 H891 0.950 . S
C914 C913 1.397 . S
C914 C915 1.334 . S
C915 H892 0.950 . S
C915 C914 1.334 . S
C915 C916 1.287 . S
C916 C915 1.287 . S
C916 C917 1.524 . S
C916 H935 0.913 . S
C917 H893 0.950 . S
C917 C916 1.524 . S
C917 C918 1.415 . S
C918 H894 0.950 . S
C918 C913 1.363 . S
C918 C917 1.415 . S
C919 H895 0.951 . S
C919 C920 1.366 . S
C919 C921 1.388 . S
C920 C919 1.366 . S
C920 C924 1.385 . S
C921 H896 0.951 . S
C921 C919 1.388 . S
C921 C922 1.366 . S
C922 C921 1.366 . S
C922 C923 1.414 . S
C922 C925 1.499 . S
C923 H897 0.950 . S
C923 C922 1.414 . S
C923 C924 1.374 . S
C924 H898 0.950 . S
C924 C920 1.385 . S
C924 C923 1.374 . S
C925 C922 1.499 . S
C925 C926 1.373 . S
C925 C927 1.389 . S
C926 H899 0.950 . S
C926 C912 1.377 . S
C926 C925 1.373 . S
C927 C911 1.377 . S
C927 C925 1.389 . S
C927 C928 1.524 . S
C928 C927 1.524 . S
C928 C929 1.397 . S
C928 C933 1.363 . S
C929 H900 0.950 . S
C929 C928 1.397 . S
C929 C930 1.334 . S
C930 H901 0.950 . S
C930 C929 1.334 . S
C930 C931 1.287 . S
C931 C930 1.287 . S
C931 C932 1.524 . S
C931 H934 0.999 . S
C932 H902 0.950 . S
C932 C931 1.524 . S
C932 C933 1.415 . S
C933 H903 0.950 . S
C933 C928 1.363 . S
C933 C932 1.415 . S
H934 C931 0.999 . S
H935 C916 0.913 . S
H936 C954 0.951 . S
H937 C956 0.951 . S
H938 C958 0.950 . S
H939 C959 0.950 . S
H940 C961 0.950 . S
H941 C964 0.950 . S
H942 C965 0.950 . S
H943 C967 0.950 . S
H944 C968 0.950 . S
H945 C969 0.951 . S
H946 C971 0.951 . S
H947 C973 0.950 . S
H948 C974 0.950 . S
H949 C976 0.950 . S
H950 C979 0.950 . S
H951 C980 0.950 . S
H952 C982 0.950 . S
H953 C983 0.950 . S
C954 H936 0.951 . S
C954 C955 1.366 . S
C954 C956 1.388 . S
C955 C954 1.366 . S
C955 C959 1.385 . S
C956 H937 0.951 . S
C956 C954 1.388 . S
C956 C957 1.366 . S
C957 C956 1.366 . S
C957 C958 1.414 . S
C957 C960 1.499 . S
C958 H938 0.950 . S
C958 C957 1.414 . S
C958 C959 1.374 . S
C959 H939 0.950 . S
C959 C955 1.385 . S
C959 C958 1.374 . S
C960 C957 1.499 . S
C960 C961 1.373 . S
C960 C962 1.389 . S
C961 H940 0.950 . S
C961 C960 1.373 . S
C961 C977 1.377 . S
C962 C960 1.389 . S
C962 C963 1.524 . S
C962 C976 1.377 . S
C963 C962 1.524 . S
C963 C964 1.397 . S
C963 C968 1.363 . S
C964 H941 0.950 . S
C964 C963 1.397 . S
C964 C965 1.334 . S
C965 H942 0.950 . S
C965 C964 1.334 . S
C965 C966 1.287 . S
C966 C965 1.287 . S
C966 C967 1.524 . S
C966 H985 0.913 . S
C967 H943 0.950 . S
C967 C966 1.524 . S
C967 C968 1.415 . S
C968 H944 0.950 . S
C968 C963 1.363 . S
C968 C967 1.415 . S
C969 H945 0.951 . S
C969 C970 1.366 . S
C969 C971 1.388 . S
C970 C969 1.366 . S
C970 C974 1.385 . S
C971 H946 0.951 . S
C971 C969 1.388 . S
C971 C972 1.366 . S
C972 C971 1.366 . S
C972 C973 1.414 . S
C972 C975 1.499 . S
C973 H947 0.950 . S
C973 C972 1.414 . S
C973 C974 1.374 . S
C974 H948 0.950 . S
C974 C970 1.385 . S
C974 C973 1.374 . S
C975 C972 1.499 . S
C975 C976 1.373 . S
C975 C977 1.389 . S
C976 H949 0.950 . S
C976 C962 1.377 . S
C976 C975 1.373 . S
C977 C961 1.377 . S
C977 C975 1.389 . S
C977 C978 1.524 . S
C978 C977 1.524 . S
C978 C979 1.397 . S
C978 C983 1.363 . S
C979 H950 0.950 . S
C979 C978 1.397 . S
C979 C980 1.334 . S
C980 H951 0.950 . S
C980 C979 1.334 . S
C980 C981 1.287 . S
C981 C980 1.287 . S
C981 C982 1.524 . S
C981 H984 0.999 . S
C982 H952 0.950 . S
C982 C981 1.524 . S
C982 C983 1.415 . S
C983 H953 0.950 . S
C983 C978 1.363 . S
C983 C982 1.415 . S
H984 C981 0.999 . S
H985 C966 0.913 . S
H986 C1004 0.951 . S
H987 C1006 0.951 . S
H988 C1008 0.950 . S
H989 C1009 0.950 . S
H990 C1011 0.950 . S
H991 C1014 0.950 . S
H992 C1015 0.950 . S
H993 C1017 0.950 . S
H994 C1018 0.950 . S
H995 C1019 0.951 . S
H996 C1021 0.951 . S
H997 C1023 0.950 . S
H998 C1024 0.950 . S
H999 C1026 0.950 . S
H1000 C1029 0.950 . S
H1001 C1030 0.950 . S
H1002 C1032 0.950 . S
H1003 C1033 0.950 . S
C1004 H986 0.951 . S
C1004 C1005 1.366 . S
C1004 C1006 1.388 . S
C1005 C1004 1.366 . S
C1005 C1009 1.385 . S
C1006 H987 0.951 . S
C1006 C1004 1.388 . S
C1006 C1007 1.366 . S
C1007 C1006 1.366 . S
C1007 C1008 1.414 . S
C1007 C1010 1.499 . S
C1008 H988 0.950 . S
C1008 C1007 1.414 . S
C1008 C1009 1.374 . S
C1009 H989 0.950 . S
C1009 C1005 1.385 . S
C1009 C1008 1.374 . S
C1010 C1007 1.499 . S
C1010 C1011 1.373 . S
C1010 C1012 1.389 . S
C1011 H990 0.950 . S
C1011 C1010 1.373 . S
C1011 C1027 1.377 . S
C1012 C1010 1.389 . S
C1012 C1013 1.524 . S
C1012 C1026 1.377 . S
C1013 C1012 1.524 . S
C1013 C1014 1.397 . S
C1013 C1018 1.363 . S
C1014 H991 0.950 . S
C1014 C1013 1.397 . S
C1014 C1015 1.334 . S
C1015 H992 0.950 . S
C1015 C1014 1.334 . S
C1015 C1016 1.287 . S
C1016 C1015 1.287 . S
C1016 C1017 1.524 . S
C1016 H1035 0.913 . S
C1017 H993 0.950 . S
C1017 C1016 1.524 . S
C1017 C1018 1.415 . S
C1018 H994 0.950 . S
C1018 C1013 1.363 . S
C1018 C1017 1.415 . S
C1019 H995 0.951 . S
C1019 C1020 1.366 . S
C1019 C1021 1.388 . S
C1020 C1019 1.366 . S
C1020 C1024 1.385 . S
C1021 H996 0.951 . S
C1021 C1019 1.388 . S
C1021 C1022 1.366 . S
C1022 C1021 1.366 . S
C1022 C1023 1.414 . S
C1022 C1025 1.499 . S
C1023 H997 0.950 . S
C1023 C1022 1.414 . S
C1023 C1024 1.374 . S
C1024 H998 0.950 . S
C1024 C1020 1.385 . S
C1024 C1023 1.374 . S
C1025 C1022 1.499 . S
C1025 C1026 1.373 . S
C1025 C1027 1.389 . S
C1026 H999 0.950 . S
C1026 C1012 1.377 . S
C1026 C1025 1.373 . S
C1027 C1011 1.377 . S
C1027 C1025 1.389 . S
C1027 C1028 1.524 . S
C1028 C1027 1.524 . S
C1028 C1029 1.397 . S
C1028 C1033 1.363 . S
C1029 H1000 0.950 . S
C1029 C1028 1.397 . S
C1029 C1030 1.334 . S
C1030 H1001 0.950 . S
C1030 C1029 1.334 . S
C1030 C1031 1.287 . S
C1031 C1030 1.287 . S
C1031 C1032 1.524 . S
C1031 H1034 0.999 . S
C1032 H1002 0.950 . S
C1032 C1031 1.524 . S
C1032 C1033 1.415 . S
C1033 H1003 0.950 . S
C1033 C1028 1.363 . S
C1033 C1032 1.415 . S
H1034 C1031 0.999 . S
H1035 C1016 0.913 . S
H1036 C1054 0.951 . S
H1037 C1056 0.951 . S
H1038 C1058 0.950 . S
H1039 C1059 0.950 . S
H1040 C1061 0.950 . S
H1041 C1064 0.950 . S
H1042 C1065 0.950 . S
H1043 C1067 0.950 . S
H1044 C1068 0.950 . S
H1045 C1069 0.951 . S
H1046 C1071 0.951 . S
H1047 C1073 0.950 . S
H1048 C1074 0.950 . S
H1049 C1076 0.950 . S
H1050 C1079 0.950 . S
H1051 C1080 0.950 . S
H1052 C1082 0.950 . S
H1053 C1083 0.950 . S
C1054 H1036 0.951 . S
C1054 C1055 1.366 . S
C1054 C1056 1.388 . S
C1055 C1054 1.366 . S
C1055 C1059 1.385 . S
C1056 H1037 0.951 . S
C1056 C1054 1.388 . S
C1056 C1057 1.366 . S
C1057 C1056 1.366 . S
C1057 C1058 1.414 . S
C1057 C1060 1.499 . S
C1058 H1038 0.950 . S
C1058 C1057 1.414 . S
C1058 C1059 1.374 . S
C1059 H1039 0.950 . S
C1059 C1055 1.385 . S
C1059 C1058 1.374 . S
C1060 C1057 1.499 . S
C1060 C1061 1.373 . S
C1060 C1062 1.389 . S
C1061 H1040 0.950 . S
C1061 C1060 1.373 . S
C1061 C1077 1.377 . S
C1062 C1060 1.389 . S
C1062 C1063 1.524 . S
C1062 C1076 1.377 . S
C1063 C1062 1.524 . S
C1063 C1064 1.397 . S
C1063 C1068 1.363 . S
C1064 H1041 0.950 . S
C1064 C1063 1.397 . S
C1064 C1065 1.334 . S
C1065 H1042 0.950 . S
C1065 C1064 1.334 . S
C1065 C1066 1.287 . S
C1066 C1065 1.287 . S
C1066 C1067 1.524 . S
C1066 H1085 0.913 . S
C1067 H1043 0.950 . S
C1067 C1066 1.524 . S
C1067 C1068 1.415 . S
C1068 H1044 0.950 . S
C1068 C1063 1.363 . S
C1068 C1067 1.415 . S
C1069 H1045 0.951 . S
C1069 C1070 1.366 . S
C1069 C1071 1.388 . S
C1070 C1069 1.366 . S
C1070 C1074 1.385 . S
C1071 H1046 0.951 . S
C1071 C1069 1.388 . S
C1071 C1072 1.366 . S
C1072 C1071 1.366 . S
C1072 C1073 1.414 . S
C1072 C1075 1.499 . S
C1073 H1047 0.950 . S
C1073 C1072 1.414 . S
C1073 C1074 1.374 . S
C1074 H1048 0.950 . S
C1074 C1070 1.385 . S
C1074 C1073 1.374 . S
C1075 C1072 1.499 . S
C1075 C1076 1.373 . S
C1075 C1077 1.389 . S
C1076 H1049 0.950 . S
C1076 C1062 1.377 . S
C1076 C1075 1.373 . S
C1077 C1061 1.377 . S
C1077 C1075 1.389 . S
C1077 C1078 1.524 . S
C1078 C1077 1.524 . S
C1078 C1079 1.397 . S
C1078 C1083 1.363 . S
C1079 H1050 0.950 . S
C1079 C1078 1.397 . S
C1079 C1080 1.334 . S
C1080 H1051 0.950 . S
C1080 C1079 1.334 . S
C1080 C1081 1.287 . S
C1081 C1080 1.287 . S
C1081 C1082 1.524 . S
C1081 H1084 0.999 . S
C1082 H1052 0.950 . S
C1082 C1081 1.524 . S
C1082 C1083 1.415 . S
C1083 H1053 0.950 . S
C1083 C1078 1.363 . S
C1083 C1082 1.415 . S
H1084 C1081 0.999 . S
H1085 C1066 0.913 . S
H1086 C1104 0.951 . S
H1087 C1106 0.951 . S
H1088 C1108 0.950 . S
H1089 C1109 0.950 . S
H1090 C1111 0.950 . S
H1091 C1114 0.950 . S
H1092 C1115 0.950 . S
H1093 C1117 0.950 . S
H1094 C1118 0.950 . S
H1095 C1119 0.951 . S
H1096 C1121 0.951 . S
H1097 C1123 0.950 . S
H1098 C1124 0.950 . S
H1099 C1126 0.950 . S
H1100 C1129 0.950 . S
H1101 C1130 0.950 . S
H1102 C1132 0.950 . S
H1103 C1133 0.950 . S
C1104 H1086 0.951 . S
C1104 C1105 1.366 . S
C1104 C1106 1.388 . S
C1105 C1104 1.366 . S
C1105 C1109 1.385 . S
C1106 H1087 0.951 . S
C1106 C1104 1.388 . S
C1106 C1107 1.366 . S
C1107 C1106 1.366 . S
C1107 C1108 1.414 . S
C1107 C1110 1.499 . S
C1108 H1088 0.950 . S
C1108 C1107 1.414 . S
C1108 C1109 1.374 . S
C1109 H1089 0.950 . S
C1109 C1105 1.385 . S
C1109 C1108 1.374 . S
C1110 C1107 1.499 . S
C1110 C1111 1.373 . S
C1110 C1112 1.389 . S
C1111 H1090 0.950 . S
C1111 C1110 1.373 . S
C1111 C1127 1.377 . S
C1112 C1110 1.389 . S
C1112 C1113 1.524 . S
C1112 C1126 1.377 . S
C1113 C1112 1.524 . S
C1113 C1114 1.397 . S
C1113 C1118 1.363 . S
C1114 H1091 0.950 . S
C1114 C1113 1.397 . S
C1114 C1115 1.334 . S
C1115 H1092 0.950 . S
C1115 C1114 1.334 . S
C1115 C1116 1.287 . S
C1116 C1115 1.287 . S
C1116 C1117 1.524 . S
C1116 H1135 0.913 . S
C1117 H1093 0.950 . S
C1117 C1116 1.524 . S
C1117 C1118 1.415 . S
C1118 H1094 0.950 . S
C1118 C1113 1.363 . S
C1118 C1117 1.415 . S
C1119 H1095 0.951 . S
C1119 C1120 1.366 . S
C1119 C1121 1.388 . S
C1120 C1119 1.366 . S
C1120 C1124 1.385 . S
C1121 H1096 0.951 . S
C1121 C1119 1.388 . S
C1121 C1122 1.366 . S
C1122 C1121 1.366 . S
C1122 C1123 1.414 . S
C1122 C1125 1.499 . S
C1123 H1097 0.950 . S
C1123 C1122 1.414 . S
C1123 C1124 1.374 . S
C1124 H1098 0.950 . S
C1124 C1120 1.385 . S
C1124 C1123 1.374 . S
C1125 C1122 1.499 . S
C1125 C1126 1.373 . S
C1125 C1127 1.389 . S
C1126 H1099 0.950 . S
C1126 C1112 1.377 . S
C1126 C1125 1.373 . S
C1127 C1111 1.377 . S
C1127 C1125 1.389 . S
C1127 C1128 1.524 . S
C1128 C1127 1.524 . S
C1128 C1129 1.397 . S
C1128 C1133 1.363 . S
C1129 H1100 0.950 . S
C1129 C1128 1.397 . S
C1129 C1130 1.334 . S
C1130 H1101 0.950 . S
C1130 C1129 1.334 . S
C1130 C1131 1.287 . S
C1131 C1130 1.287 . S
C1131 C1132 1.524 . S
C1131 H1134 0.999 . S
C1132 H1102 0.950 . S
C1132 C1131 1.524 . S
C1132 C1133 1.415 . S
C1133 H1103 0.950 . S
C1133 C1128 1.363 . S
C1133 C1132 1.415 . S
H1134 C1131 0.999 . S
H1135 C1116 0.913 . S
H1136 C1154 0.951 . S
H1137 C1156 0.951 . S
H1138 C1158 0.950 . S
H1139 C1159 0.950 . S
H1140 C1161 0.950 . S
H1141 C1164 0.950 . S
H1142 C1165 0.950 . S
H1143 C1167 0.950 . S
H1144 C1168 0.950 . S
H1145 C1169 0.951 . S
H1146 C1171 0.951 . S
H1147 C1173 0.950 . S
H1148 C1174 0.950 . S
H1149 C1176 0.950 . S
H1150 C1179 0.950 . S
H1151 C1180 0.950 . S
H1152 C1182 0.950 . S
H1153 C1183 0.950 . S
C1154 H1136 0.951 . S
C1154 C1155 1.366 . S
C1154 C1156 1.388 . S
C1155 C1154 1.366 . S
C1155 C1159 1.385 . S
C1156 H1137 0.951 . S
C1156 C1154 1.388 . S
C1156 C1157 1.366 . S
C1157 C1156 1.366 . S
C1157 C1158 1.414 . S
C1157 C1160 1.499 . S
C1158 H1138 0.950 . S
C1158 C1157 1.414 . S
C1158 C1159 1.374 . S
C1159 H1139 0.950 . S
C1159 C1155 1.385 . S
C1159 C1158 1.374 . S
C1160 C1157 1.499 . S
C1160 C1161 1.373 . S
C1160 C1162 1.389 . S
C1161 H1140 0.950 . S
C1161 C1160 1.373 . S
C1161 C1177 1.377 . S
C1162 C1160 1.389 . S
C1162 C1163 1.524 . S
C1162 C1176 1.377 . S
C1163 C1162 1.524 . S
C1163 C1164 1.397 . S
C1163 C1168 1.363 . S
C1164 H1141 0.950 . S
C1164 C1163 1.397 . S
C1164 C1165 1.334 . S
C1165 H1142 0.950 . S
C1165 C1164 1.334 . S
C1165 C1166 1.287 . S
C1166 C1165 1.287 . S
C1166 C1167 1.524 . S
C1166 H1185 0.913 . S
C1167 H1143 0.950 . S
C1167 C1166 1.524 . S
C1167 C1168 1.415 . S
C1168 H1144 0.950 . S
C1168 C1163 1.363 . S
C1168 C1167 1.415 . S
C1169 H1145 0.951 . S
C1169 C1170 1.366 . S
C1169 C1171 1.388 . S
C1170 C1169 1.366 . S
C1170 C1174 1.385 . S
C1171 H1146 0.951 . S
C1171 C1169 1.388 . S
C1171 C1172 1.366 . S
C1172 C1171 1.366 . S
C1172 C1173 1.414 . S
C1172 C1175 1.499 . S
C1173 H1147 0.950 . S
C1173 C1172 1.414 . S
C1173 C1174 1.374 . S
C1174 H1148 0.950 . S
C1174 C1170 1.385 . S
C1174 C1173 1.374 . S
C1175 C1172 1.499 . S
C1175 C1176 1.373 . S
C1175 C1177 1.389 . S
C1176 H1149 0.950 . S
C1176 C1162 1.377 . S
C1176 C1175 1.373 . S
C1177 C1161 1.377 . S
C1177 C1175 1.389 . S
C1177 C1178 1.524 . S
C1178 C1177 1.524 . S
C1178 C1179 1.397 . S
C1178 C1183 1.363 . S
C1179 H1150 0.950 . S
C1179 C1178 1.397 . S
C1179 C1180 1.334 . S
C1180 H1151 0.950 . S
C1180 C1179 1.334 . S
C1180 C1181 1.287 . S
C1181 C1180 1.287 . S
C1181 C1182 1.524 . S
C1181 H1184 0.999 . S
C1182 H1152 0.950 . S
C1182 C1181 1.524 . S
C1182 C1183 1.415 . S
C1183 H1153 0.950 . S
C1183 C1178 1.363 . S
C1183 C1182 1.415 . S
H1184 C1181 0.999 . S
H1185 C1166 0.913 . S
H1186 C1204 0.951 . S
H1187 C1206 0.951 . S
H1188 C1208 0.950 . S
H1189 C1209 0.950 . S
H1190 C1211 0.950 . S
H1191 C1214 0.950 . S
H1192 C1215 0.950 . S
H1193 C1217 0.950 . S
H1194 C1218 0.950 . S
H1195 C1219 0.951 . S
H1196 C1221 0.951 . S
H1197 C1223 0.950 . S
H1198 C1224 0.950 . S
H1199 C1226 0.950 . S
H1200 C1229 0.950 . S
H1201 C1230 0.950 . S
H1202 C1232 0.950 . S
H1203 C1233 0.950 . S
C1204 H1186 0.951 . S
C1204 C1205 1.366 . S
C1204 C1206 1.388 . S
C1205 C1204 1.366 . S
C1205 C1209 1.385 . S
C1206 H1187 0.951 . S
C1206 C1204 1.388 . S
C1206 C1207 1.366 . S
C1207 C1206 1.366 . S
C1207 C1208 1.414 . S
C1207 C1210 1.499 . S
C1208 H1188 0.950 . S
C1208 C1207 1.414 . S
C1208 C1209 1.374 . S
C1209 H1189 0.950 . S
C1209 C1205 1.385 . S
C1209 C1208 1.374 . S
C1210 C1207 1.499 . S
C1210 C1211 1.373 . S
C1210 C1212 1.389 . S
C1211 H1190 0.950 . S
C1211 C1210 1.373 . S
C1211 C1227 1.377 . S
C1212 C1210 1.389 . S
C1212 C1213 1.524 . S
C1212 C1226 1.377 . S
C1213 C1212 1.524 . S
C1213 C1214 1.397 . S
C1213 C1218 1.363 . S
C1214 H1191 0.950 . S
C1214 C1213 1.397 . S
C1214 C1215 1.334 . S
C1215 H1192 0.950 . S
C1215 C1214 1.334 . S
C1215 C1216 1.287 . S
C1216 C1215 1.287 . S
C1216 C1217 1.524 . S
C1216 H1235 0.913 . S
C1217 H1193 0.950 . S
C1217 C1216 1.524 . S
C1217 C1218 1.415 . S
C1218 H1194 0.950 . S
C1218 C1213 1.363 . S
C1218 C1217 1.415 . S
C1219 H1195 0.951 . S
C1219 C1220 1.366 . S
C1219 C1221 1.388 . S
C1220 C1219 1.366 . S
C1220 C1224 1.385 . S
C1221 H1196 0.951 . S
C1221 C1219 1.388 . S
C1221 C1222 1.366 . S
C1222 C1221 1.366 . S
C1222 C1223 1.414 . S
C1222 C1225 1.499 . S
C1223 H1197 0.950 . S
C1223 C1222 1.414 . S
C1223 C1224 1.374 . S
C1224 H1198 0.950 . S
C1224 C1220 1.385 . S
C1224 C1223 1.374 . S
C1225 C1222 1.499 . S
C1225 C1226 1.373 . S
C1225 C1227 1.389 . S
C1226 H1199 0.950 . S
C1226 C1212 1.377 . S
C1226 C1225 1.373 . S
C1227 C1211 1.377 . S
C1227 C1225 1.389 . S
C1227 C1228 1.524 . S
C1228 C1227 1.524 . S
C1228 C1229 1.397 . S
C1228 C1233 1.363 . S
C1229 H1200 0.950 . S
C1229 C1228 1.397 . S
C1229 C1230 1.334 . S
C1230 H1201 0.950 . S
C1230 C1229 1.334 . S
C1230 C1231 1.287 . S
C1231 C1230 1.287 . S
C1231 C1232 1.524 . S
C1231 H1234 0.999 . S
C1232 H1202 0.950 . S
C1232 C1231 1.524 . S
C1232 C1233 1.415 . S
C1233 H1203 0.950 . S
C1233 C1228 1.363 . S
C1233 C1232 1.415 . S
H1234 C1231 0.999 . S
H1235 C1216 0.913 . S
H1236 C1254 0.951 . S
H1237 C1256 0.951 . S
H1238 C1258 0.950 . S
H1239 C1259 0.950 . S
H1240 C1261 0.950 . S
H1241 C1264 0.950 . S
H1242 C1265 0.950 . S
H1243 C1267 0.950 . S
H1244 C1268 0.950 . S
H1245 C1269 0.951 . S
H1246 C1271 0.951 . S
H1247 C1273 0.950 . S
H1248 C1274 0.950 . S
H1249 C1276 0.950 . S
H1250 C1279 0.950 . S
H1251 C1280 0.950 . S
H1252 C1282 0.950 . S
H1253 C1283 0.950 . S
C1254 H1236 0.951 . S
C1254 C1255 1.366 . S
C1254 C1256 1.388 . S
C1255 C1254 1.366 . S
C1255 C1259 1.385 . S
C1256 H1237 0.951 . S
C1256 C1254 1.388 . S
C1256 C1257 1.366 . S
C1257 C1256 1.366 . S
C1257 C1258 1.414 . S
C1257 C1260 1.499 . S
C1258 H1238 0.950 . S
C1258 C1257 1.414 . S
C1258 C1259 1.374 . S
C1259 H1239 0.950 . S
C1259 C1255 1.385 . S
C1259 C1258 1.374 . S
C1260 C1257 1.499 . S
C1260 C1261 1.373 . S
C1260 C1262 1.389 . S
C1261 H1240 0.950 . S
C1261 C1260 1.373 . S
C1261 C1277 1.377 . S
C1262 C1260 1.389 . S
C1262 C1263 1.524 . S
C1262 C1276 1.377 . S
C1263 C1262 1.524 . S
C1263 C1264 1.397 . S
C1263 C1268 1.363 . S
C1264 H1241 0.950 . S
C1264 C1263 1.397 . S
C1264 C1265 1.334 . S
C1265 H1242 0.950 . S
C1265 C1264 1.334 . S
C1265 C1266 1.287 . S
C1266 C1265 1.287 . S
C1266 C1267 1.524 . S
C1266 H1285 0.913 . S
C1267 H1243 0.950 . S
C1267 C1266 1.524 . S
C1267 C1268 1.415 . S
C1268 H1244 0.950 . S
C1268 C1263 1.363 . S
C1268 C1267 1.415 . S
C1269 H1245 0.951 . S
C1269 C1270 1.366 . S
C1269 C1271 1.388 . S
C1270 C1269 1.366 . S
C1270 C1274 1.385 . S
C1271 H1246 0.951 . S
C1271 C1269 1.388 . S
C1271 C1272 1.366 . S
C1272 C1271 1.366 . S
C1272 C1273 1.414 . S
C1272 C1275 1.499 . S
C1273 H1247 0.950 . S
C1273 C1272 1.414 . S
C1273 C1274 1.374 . S
C1274 H1248 0.950 . S
C1274 C1270 1.385 . S
C1274 C1273 1.374 . S
C1275 C1272 1.499 . S
C1275 C1276 1.373 . S
C1275 C1277 1.389 . S
C1276 H1249 0.950 . S
C1276 C1262 1.377 . S
C1276 C1275 1.373 . S
C1277 C1261 1.377 . S
C1277 C1275 1.389 . S
C1277 C1278 1.524 . S
C1278 C1277 1.524 . S
C1278 C1279 1.397 . S
C1278 C1283 1.363 . S
C1279 H1250 0.950 . S
C1279 C1278 1.397 . S
C1279 C1280 1.334 . S
C1280 H1251 0.950 . S
C1280 C1279 1.334 . S
C1280 C1281 1.287 . S
C1281 C1280 1.287 . S
C1281 C1282 1.524 . S
C1281 H1284 0.999 . S
C1282 H1252 0.950 . S
C1282 C1281 1.524 . S
C1282 C1283 1.415 . S
C1283 H1253 0.950 . S
C1283 C1278 1.363 . S
C1283 C1282 1.415 . S
H1284 C1281 0.999 . S
H1285 C1266 0.913 . S
H1286 C1304 0.951 . S
H1287 C1306 0.951 . S
H1288 C1308 0.950 . S
H1289 C1309 0.950 . S
H1290 C1311 0.950 . S
H1291 C1314 0.950 . S
H1292 C1315 0.950 . S
H1293 C1317 0.950 . S
H1294 C1318 0.950 . S
H1295 C1319 0.951 . S
H1296 C1321 0.951 . S
H1297 C1323 0.950 . S
H1298 C1324 0.950 . S
H1299 C1326 0.950 . S
H1300 C1329 0.950 . S
H1301 C1330 0.950 . S
H1302 C1332 0.950 . S
H1303 C1333 0.950 . S
C1304 H1286 0.951 . S
C1304 C1305 1.366 . S
C1304 C1306 1.388 . S
C1305 C1304 1.366 . S
C1305 C1309 1.385 . S
C1306 H1287 0.951 . S
C1306 C1304 1.388 . S
C1306 C1307 1.366 . S
C1307 C1306 1.366 . S
C1307 C1308 1.414 . S
C1307 C1310 1.499 . S
C1308 H1288 0.950 . S
C1308 C1307 1.414 . S
C1308 C1309 1.374 . S
C1309 H1289 0.950 . S
C1309 C1305 1.385 . S
C1309 C1308 1.374 . S
C1310 C1307 1.499 . S
C1310 C1311 1.373 . S
C1310 C1312 1.389 . S
C1311 H1290 0.950 . S
C1311 C1310 1.373 . S
C1311 C1327 1.377 . S
C1312 C1310 1.389 . S
C1312 C1313 1.524 . S
C1312 C1326 1.377 . S
C1313 C1312 1.524 . S
C1313 C1314 1.397 . S
C1313 C1318 1.363 . S
C1314 H1291 0.950 . S
C1314 C1313 1.397 . S
C1314 C1315 1.334 . S
C1315 H1292 0.950 . S
C1315 C1314 1.334 . S
C1315 C1316 1.287 . S
C1316 C1315 1.287 . S
C1316 C1317 1.524 . S
C1316 H1335 0.913 . S
C1317 H1293 0.950 . S
C1317 C1316 1.524 . S
C1317 C1318 1.415 . S
C1318 H1294 0.950 . S
C1318 C1313 1.363 . S
C1318 C1317 1.415 . S
C1319 H1295 0.951 . S
C1319 C1320 1.366 . S
C1319 C1321 1.388 . S
C1320 C1319 1.366 . S
C1320 C1324 1.385 . S
C1321 H1296 0.951 . S
C1321 C1319 1.388 . S
C1321 C1322 1.366 . S
C1322 C1321 1.366 . S
C1322 C1323 1.414 . S
C1322 C1325 1.499 . S
C1323 H1297 0.950 . S
C1323 C1322 1.414 . S
C1323 C1324 1.374 . S
C1324 H1298 0.950 . S
C1324 C1320 1.385 . S
C1324 C1323 1.374 . S
C1325 C1322 1.499 . S
C1325 C1326 1.373 . S
C1325 C1327 1.389 . S
C1326 H1299 0.950 . S
C1326 C1312 1.377 . S
C1326 C1325 1.373 . S
C1327 C1311 1.377 . S
C1327 C1325 1.389 . S
C1327 C1328 1.524 . S
C1328 C1327 1.524 . S
C1328 C1329 1.397 . S
C1328 C1333 1.363 . S
C1329 H1300 0.950 . S
C1329 C1328 1.397 . S
C1329 C1330 1.334 . S
C1330 H1301 0.950 . S
C1330 C1329 1.334 . S
C1330 C1331 1.287 . S
C1331 C1330 1.287 . S
C1331 C1332 1.524 . S
C1331 H1334 0.999 . S
C1332 H1302 0.950 . S
C1332 C1331 1.524 . S
C1332 C1333 1.415 . S
C1333 H1303 0.950 . S
C1333 C1328 1.363 . S
C1333 C1332 1.415 . S
H1334 C1331 0.999 . S
H1335 C1316 0.913 . S
H1336 C1354 0.951 . S
H1337 C1356 0.951 . S
H1338 C1358 0.950 . S
H1339 C1359 0.950 . S
H1340 C1361 0.950 . S
H1341 C1364 0.950 . S
H1342 C1365 0.950 . S
H1343 C1367 0.950 . S
H1344 C1368 0.950 . S
H1345 C1369 0.951 . S
H1346 C1371 0.951 . S
H1347 C1373 0.950 . S
H1348 C1374 0.950 . S
H1349 C1376 0.950 . S
H1350 C1379 0.950 . S
H1351 C1380 0.950 . S
H1352 C1382 0.950 . S
H1353 C1383 0.950 . S
C1354 H1336 0.951 . S
C1354 C1355 1.366 . S
C1354 C1356 1.388 . S
C1355 C1354 1.366 . S
C1355 C1359 1.385 . S
C1356 H1337 0.951 . S
C1356 C1354 1.388 . S
C1356 C1357 1.366 . S
C1357 C1356 1.366 . S
C1357 C1358 1.414 . S
C1357 C1360 1.499 . S
C1358 H1338 0.950 . S
C1358 C1357 1.414 . S
C1358 C1359 1.374 . S
C1359 H1339 0.950 . S
C1359 C1355 1.385 . S
C1359 C1358 1.374 . S
C1360 C1357 1.499 . S
C1360 C1361 1.373 . S
C1360 C1362 1.389 . S
C1361 H1340 0.950 . S
C1361 C1360 1.373 . S
C1361 C1377 1.377 . S
C1362 C1360 1.389 . S
C1362 C1363 1.524 . S
C1362 C1376 1.377 . S
C1363 C1362 1.524 . S
C1363 C1364 1.397 . S
C1363 C1368 1.363 . S
C1364 H1341 0.950 . S
C1364 C1363 1.397 . S
C1364 C1365 1.334 . S
C1365 H1342 0.950 . S
C1365 C1364 1.334 . S
C1365 C1366 1.287 . S
C1366 C1365 1.287 . S
C1366 C1367 1.524 . S
C1366 H1385 0.913 . S
C1367 H1343 0.950 . S
C1367 C1366 1.524 . S
C1367 C1368 1.415 . S
C1368 H1344 0.950 . S
C1368 C1363 1.363 . S
C1368 C1367 1.415 . S
C1369 H1345 0.951 . S
C1369 C1370 1.366 . S
C1369 C1371 1.388 . S
C1370 C1369 1.366 . S
C1370 C1374 1.385 . S
C1371 H1346 0.951 . S
C1371 C1369 1.388 . S
C1371 C1372 1.366 . S
C1372 C1371 1.366 . S
C1372 C1373 1.414 . S
C1372 C1375 1.499 . S
C1373 H1347 0.950 . S
C1373 C1372 1.414 . S
C1373 C1374 1.374 . S
C1374 H1348 0.950 . S
C1374 C1370 1.385 . S
C1374 C1373 1.374 . S
C1375 C1372 1.499 . S
C1375 C1376 1.373 . S
C1375 C1377 1.389 . S
C1376 H1349 0.950 . S
C1376 C1362 1.377 . S
C1376 C1375 1.373 . S
C1377 C1361 1.377 . S
C1377 C1375 1.389 . S
C1377 C1378 1.524 . S
C1378 C1377 1.524 . S
C1378 C1379 1.397 . S
C1378 C1383 1.363 . S
C1379 H1350 0.950 . S
C1379 C1378 1.397 . S
C1379 C1380 1.334 . S
C1380 H1351 0.950 . S
C1380 C1379 1.334 . S
C1380 C1381 1.287 . S
C1381 C1380 1.287 . S
C1381 C1382 1.524 . S
C1381 H1384 0.999 . S
C1382 H1352 0.950 . S
C1382 C1381 1.524 . S
C1382 C1383 1.415 . S
C1383 H1353 0.950 . S
C1383 C1378 1.363 . S
C1383 C1382 1.415 . S
H1384 C1381 0.999 . S
H1385 C1366 0.913 . S
H1386 C1404 0.951 . S
H1387 C1406 0.951 . S
H1388 C1408 0.950 . S
H1389 C1409 0.950 . S
H1390 C1411 0.950 . S
H1391 C1414 0.950 . S
H1392 C1415 0.950 . S
H1393 C1417 0.950 . S
H1394 C1418 0.950 . S
H1395 C1419 0.951 . S
H1396 C1421 0.951 . S
H1397 C1423 0.950 . S
H1398 C1424 0.950 . S
H1399 C1426 0.950 . S
H1400 C1429 0.950 . S
H1401 C1430 0.950 . S
H1402 C1432 0.950 . S
H1403 C1433 0.950 . S
C1404 H1386 0.951 . S
C1404 C1405 1.366 . S
C1404 C1406 1.388 . S
C1405 C1404 1.366 . S
C1405 C1409 1.385 . S
C1406 H1387 0.951 . S
C1406 C1404 1.388 . S
C1406 C1407 1.366 . S
C1407 C1406 1.366 . S
C1407 C1408 1.414 . S
C1407 C1410 1.499 . S
C1408 H1388 0.950 . S
C1408 C1407 1.414 . S
C1408 C1409 1.374 . S
C1409 H1389 0.950 . S
C1409 C1405 1.385 . S
C1409 C1408 1.374 . S
C1410 C1407 1.499 . S
C1410 C1411 1.373 . S
C1410 C1412 1.389 . S
C1411 H1390 0.950 . S
C1411 C1410 1.373 . S
C1411 C1427 1.377 . S
C1412 C1410 1.389 . S
C1412 C1413 1.524 . S
C1412 C1426 1.377 . S
C1413 C1412 1.524 . S
C1413 C1414 1.397 . S
C1413 C1418 1.363 . S
C1414 H1391 0.950 . S
C1414 C1413 1.397 . S
C1414 C1415 1.334 . S
C1415 H1392 0.950 . S
C1415 C1414 1.334 . S
C1415 C1416 1.287 . S
C1416 C1415 1.287 . S
C1416 C1417 1.524 . S
C1416 H1435 0.913 . S
C1417 H1393 0.950 . S
C1417 C1416 1.524 . S
C1417 C1418 1.415 . S
C1418 H1394 0.950 . S
C1418 C1413 1.363 . S
C1418 C1417 1.415 . S
C1419 H1395 0.951 . S
C1419 C1420 1.366 . S
C1419 C1421 1.388 . S
C1420 C1419 1.366 . S
C1420 C1424 1.385 . S
C1421 H1396 0.951 . S
C1421 C1419 1.388 . S
C1421 C1422 1.366 . S
C1422 C1421 1.366 . S
C1422 C1423 1.414 . S
C1422 C1425 1.499 . S
C1423 H1397 0.950 . S
C1423 C1422 1.414 . S
C1423 C1424 1.374 . S
C1424 H1398 0.950 . S
C1424 C1420 1.385 . S
C1424 C1423 1.374 . S
C1425 C1422 1.499 . S
C1425 C1426 1.373 . S
C1425 C1427 1.389 . S
C1426 H1399 0.950 . S
C1426 C1412 1.377 . S
C1426 C1425 1.373 . S
C1427 C1411 1.377 . S
C1427 C1425 1.389 . S
C1427 C1428 1.524 . S
C1428 C1427 1.524 . S
C1428 C1429 1.397 . S
C1428 C1433 1.363 . S
C1429 H1400 0.950 . S
C1429 C1428 1.397 . S
C1429 C1430 1.334 . S
C1430 H1401 0.950 . S
C1430 C1429 1.334 . S
C1430 C1431 1.287 . S
C1431 C1430 1.287 . S
C1431 C1432 1.524 . S
C1431 H1434 0.999 . S
C1432 H1402 0.950 . S
C1432 C1431 1.524 . S
C1432 C1433 1.415 . S
C1433 H1403 0.950 . S
C1433 C1428 1.363 . S
C1433 C1432 1.415 . S
H1434 C1431 0.999 . S
H1435 C1416 0.913 . S
H1436 C1454 0.951 . S
H1437 C1456 0.951 . S
H1438 C1458 0.950 . S
H1439 C1459 0.950 . S
H1440 C1461 0.950 . S
H1441 C1464 0.950 . S
H1442 C1465 0.950 . S
H1443 C1467 0.950 . S
H1444 C1468 0.950 . S
H1445 C1469 0.951 . S
H1446 C1471 0.951 . S
H1447 C1473 0.950 . S
H1448 C1474 0.950 . S
H1449 C1476 0.950 . S
H1450 C1479 0.950 . S
H1451 C1480 0.950 . S
H1452 C1482 0.950 . S
H1453 C1483 0.950 . S
C1454 H1436 0.951 . S
C1454 C1455 1.366 . S
C1454 C1456 1.388 . S
C1455 C1454 1.366 . S
C1455 C1459 1.385 . S
C1456 H1437 0.951 . S
C1456 C1454 1.388 . S
C1456 C1457 1.366 . S
C1457 C1456 1.366 . S
C1457 C1458 1.414 . S
C1457 C1460 1.499 . S
C1458 H1438 0.950 . S
C1458 C1457 1.414 . S
C1458 C1459 1.374 . S
C1459 H1439 0.950 . S
C1459 C1455 1.385 . S
C1459 C1458 1.374 . S
C1460 C1457 1.499 . S
C1460 C1461 1.373 . S
C1460 C1462 1.389 . S
C1461 H1440 0.950 . S
C1461 C1460 1.373 . S
C1461 C1477 1.377 . S
C1462 C1460 1.389 . S
C1462 C1463 1.524 . S
C1462 C1476 1.377 . S
C1463 C1462 1.524 . S
C1463 C1464 1.397 . S
C1463 C1468 1.363 . S
C1464 H1441 0.950 . S
C1464 C1463 1.397 . S
C1464 C1465 1.334 . S
C1465 H1442 0.950 . S
C1465 C1464 1.334 . S
C1465 C1466 1.287 . S
C1466 C1465 1.287 . S
C1466 C1467 1.524 . S
C1466 H1485 0.913 . S
C1467 H1443 0.950 . S
C1467 C1466 1.524 . S
C1467 C1468 1.415 . S
C1468 H1444 0.950 . S
C1468 C1463 1.363 . S
C1468 C1467 1.415 . S
C1469 H1445 0.951 . S
C1469 C1470 1.366 . S
C1469 C1471 1.388 . S
C1470 C1469 1.366 . S
C1470 C1474 1.385 . S
C1471 H1446 0.951 . S
C1471 C1469 1.388 . S
C1471 C1472 1.366 . S
C1472 C1471 1.366 . S
C1472 C1473 1.414 . S
C1472 C1475 1.499 . S
C1473 H1447 0.950 . S
C1473 C1472 1.414 . S
C1473 C1474 1.374 . S
C1474 H1448 0.950 . S
C1474 C1470 1.385 . S
C1474 C1473 1.374 . S
C1475 C1472 1.499 . S
C1475 C1476 1.373 . S
C1475 C1477 1.389 . S
C1476 H1449 0.950 . S
C1476 C1462 1.377 . S
C1476 C1475 1.373 . S
C1477 C1461 1.377 . S
C1477 C1475 1.389 . S
C1477 C1478 1.524 . S
C1478 C1477 1.524 . S
C1478 C1479 1.397 . S
C1478 C1483 1.363 . S
C1479 H1450 0.950 . S
C1479 C1478 1.397 . S
C1479 C1480 1.334 . S
C1480 H1451 0.950 . S
C1480 C1479 1.334 . S
C1480 C1481 1.287 . S
C1481 C1480 1.287 . S
C1481 C1482 1.524 . S
C1481 H1484 0.999 . S
C1482 H1452 0.950 . S
C1482 C1481 1.524 . S
C1482 C1483 1.415 . S
C1483 H1453 0.950 . S
C1483 C1478 1.363 . S
C1483 C1482 1.415 . S
H1484 C1481 0.999 . S
H1485 C1466 0.913 . S
H1486 C1504 0.951 . S
H1487 C1506 0.951 . S
H1488 C1508 0.950 . S
H1489 C1509 0.950 . S
H1490 C1511 0.950 . S
H1491 C1514 0.950 . S
H1492 C1515 0.950 . S
H1493 C1517 0.950 . S
H1494 C1518 0.950 . S
H1495 C1519 0.951 . S
H1496 C1521 0.951 . S
H1497 C1523 0.950 . S
H1498 C1524 0.950 . S
H1499 C1526 0.950 . S
H1500 C1529 0.950 . S
H1501 C1530 0.950 . S
H1502 C1532 0.950 . S
H1503 C1533 0.950 . S
C1504 H1486 0.951 . S
C1504 C1505 1.366 . S
C1504 C1506 1.388 . S
C1505 C1504 1.366 . S
C1505 C1509 1.385 . S
C1506 H1487 0.951 . S
C1506 C1504 1.388 . S
C1506 C1507 1.366 . S
C1507 C1506 1.366 . S
C1507 C1508 1.414 . S
C1507 C1510 1.499 . S
C1508 H1488 0.950 . S
C1508 C1507 1.414 . S
C1508 C1509 1.374 . S
C1509 H1489 0.950 . S
C1509 C1505 1.385 . S
C1509 C1508 1.374 . S
C1510 C1507 1.499 . S
C1510 C1511 1.373 . S
C1510 C1512 1.389 . S
C1511 H1490 0.950 . S
C1511 C1510 1.373 . S
C1511 C1527 1.377 . S
C1512 C1510 1.389 . S
C1512 C1513 1.524 . S
C1512 C1526 1.377 . S
C1513 C1512 1.524 . S
C1513 C1514 1.397 . S
C1513 C1518 1.363 . S
C1514 H1491 0.950 . S
C1514 C1513 1.397 . S
C1514 C1515 1.334 . S
C1515 H1492 0.950 . S
C1515 C1514 1.334 . S
C1515 C1516 1.287 . S
C1516 C1515 1.287 . S
C1516 C1517 1.524 . S
C1516 H1535 0.913 . S
C1517 H1493 0.950 . S
C1517 C1516 1.524 . S
C1517 C1518 1.415 . S
C1518 H1494 0.950 . S
C1518 C1513 1.363 . S
C1518 C1517 1.415 . S
C1519 H1495 0.951 . S
C1519 C1520 1.366 . S
C1519 C1521 1.388 . S
C1520 C1519 1.366 . S
C1520 C1524 1.385 . S
C1521 H1496 0.951 . S
C1521 C1519 1.388 . S
C1521 C1522 1.366 . S
C1522 C1521 1.366 . S
C1522 C1523 1.414 . S
C1522 C1525 1.499 . S
C1523 H1497 0.950 . S
C1523 C1522 1.414 . S
C1523 C1524 1.374 . S
C1524 H1498 0.950 . S
C1524 C1520 1.385 . S
C1524 C1523 1.374 . S
C1525 C1522 1.499 . S
C1525 C1526 1.373 . S
C1525 C1527 1.389 . S
C1526 H1499 0.950 . S
C1526 C1512 1.377 . S
C1526 C1525 1.373 . S
C1527 C1511 1.377 . S
C1527 C1525 1.389 . S
C1527 C1528 1.524 . S
C1528 C1527 1.524 . S
C1528 C1529 1.397 . S
C1528 C1533 1.363 . S
C1529 H1500 0.950 . S
C1529 C1528 1.397 . S
C1529 C1530 1.334 . S
C1530 H1501 0.950 . S
C1530 C1529 1.334 . S
C1530 C1531 1.287 . S
C1531 C1530 1.287 . S
C1531 C1532 1.524 . S
C1531 H1534 0.999 . S
C1532 H1502 0.950 . S
C1532 C1531 1.524 . S
C1532 C1533 1.415 . S
C1533 H1503 0.950 . S
C1533 C1528 1.363 . S
C1533 C1532 1.415 . S
H1534 C1531 0.999 . S
H1535 C1516 0.913 . S
H1536 C1554 0.951 . S
H1537 C1556 0.951 . S
H1538 C1558 0.950 . S
H1539 C1559 0.950 . S
H1540 C1561 0.950 . S
H1541 C1564 0.950 . S
H1542 C1565 0.950 . S
H1543 C1567 0.950 . S
H1544 C1568 0.950 . S
H1545 C1569 0.951 . S
H1546 C1571 0.951 . S
H1547 C1573 0.950 . S
H1548 C1574 0.950 . S
H1549 C1576 0.950 . S
H1550 C1579 0.950 . S
H1551 C1580 0.950 . S
H1552 C1582 0.950 . S
H1553 C1583 0.950 . S
C1554 H1536 0.951 . S
C1554 C1555 1.366 . S
C1554 C1556 1.388 . S
C1555 C1554 1.366 . S
C1555 C1559 1.385 . S
C1556 H1537 0.951 . S
C1556 C1554 1.388 . S
C1556 C1557 1.366 . S
C1557 C1556 1.366 . S
C1557 C1558 1.414 . S
C1557 C1560 1.499 . S
C1558 H1538 0.950 . S
C1558 C1557 1.414 . S
C1558 C1559 1.374 . S
C1559 H1539 0.950 . S
C1559 C1555 1.385 . S
C1559 C1558 1.374 . S
C1560 C1557 1.499 . S
C1560 C1561 1.373 . S
C1560 C1562 1.389 . S
C1561 H1540 0.950 . S
C1561 C1560 1.373 . S
C1561 C1577 1.377 . S
C1562 C1560 1.389 . S
C1562 C1563 1.524 . S
C1562 C1576 1.377 . S
C1563 C1562 1.524 . S
C1563 C1564 1.397 . S
C1563 C1568 1.363 . S
C1564 H1541 0.950 . S
C1564 C1563 1.397 . S
C1564 C1565 1.334 . S
C1565 H1542 0.950 . S
C1565 C1564 1.334 . S
C1565 C1566 1.287 . S
C1566 C1565 1.287 . S
C1566 C1567 1.524 . S
C1566 H1585 0.913 . S
C1567 H1543 0.950 . S
C1567 C1566 1.524 . S
C1567 C1568 1.415 . S
C1568 H1544 0.950 . S
C1568 C1563 1.363 . S
C1568 C1567 1.415 . S
C1569 H1545 0.951 . S
C1569 C1570 1.366 . S
C1569 C1571 1.388 . S
C1570 C1569 1.366 . S
C1570 C1574 1.385 . S
C1571 H1546 0.951 . S
C1571 C1569 1.388 . S
C1571 C1572 1.366 . S
C1572 C1571 1.366 . S
C1572 C1573 1.414 . S
C1572 C1575 1.499 . S
C1573 H1547 0.950 . S
C1573 C1572 1.414 . S
C1573 C1574 1.374 . S
C1574 H1548 0.950 . S
C1574 C1570 1.385 . S
C1574 C1573 1.374 . S
C1575 C1572 1.499 . S
C1575 C1576 1.373 . S
C1575 C1577 1.389 . S
C1576 H1549 0.950 . S
C1576 C1562 1.377 . S
C1576 C1575 1.373 . S
C1577 C1561 1.377 . S
C1577 C1575 1.389 . S
C1577 C1578 1.524 . S
C1578 C1577 1.524 . S
C1578 C1579 1.397 . S
C1578 C1583 1.363 . S
C1579 H1550 0.950 . S
C1579 C1578 1.397 . S
C1579 C1580 1.334 . S
C1580 H1551 0.950 . S
C1580 C1579 1.334 . S
C1580 C1581 1.287 . S
C1581 C1580 1.287 . S
C1581 C1582 1.524 . S
C1581 H1584 0.999 . S
C1582 H1552 0.950 . S
C1582 C1581 1.524 . S
C1582 C1583 1.415 . S
C1583 H1553 0.950 . S
C1583 C1578 1.363 . S
C1583 C1582 1.415 . S
H1584 C1581 0.999 . S
H1585 C1566 0.913 . S
H1586 C1604 0.951 . S
H1587 C1606 0.951 . S
H1588 C1608 0.950 . S
H1589 C1609 0.950 . S
H1590 C1611 0.950 . S
H1591 C1614 0.950 . S
H1592 C1615 0.950 1_554 S
H1593 C1617 0.950 . S
H1594 C1618 0.950 . S
H1595 C1619 0.951 . S
H1596 C1621 0.951 . S
H1597 C1623 0.950 . S
H1598 C1624 0.950 . S
H1599 C1626 0.950 . S
H1600 C1629 0.950 . S
H1601 C1630 0.950 . S
H1602 C1632 0.950 . S
H1603 C1633 0.950 . S
C1604 H1586 0.951 . S
C1604 C1605 1.366 . S
C1604 C1606 1.388 . S
C1605 C1604 1.366 . S
C1605 C1609 1.385 . S
C1606 H1587 0.951 . S
C1606 C1604 1.388 . S
C1606 C1607 1.366 . S
C1607 C1606 1.366 . S
C1607 C1608 1.414 . S
C1607 C1610 1.499 1_554 S
C1608 H1588 0.950 . S
C1608 C1607 1.414 . S
C1608 C1609 1.374 . S
C1609 H1589 0.950 . S
C1609 C1605 1.385 . S
C1609 C1608 1.374 . S
C1610 C1607 1.499 1_556 S
C1610 C1611 1.373 . S
C1610 C1612 1.389 . S
C1611 H1590 0.950 . S
C1611 C1610 1.373 . S
C1611 C1627 1.377 . S
C1612 C1610 1.389 . S
C1612 C1613 1.524 . S
C1612 C1626 1.377 . S
C1613 C1612 1.524 . S
C1613 C1614 1.397 . S
C1613 C1618 1.363 . S
C1614 H1591 0.950 . S
C1614 C1613 1.397 . S
C1614 C1615 1.334 . S
C1615 H1592 0.950 1_556 S
C1615 C1614 1.334 . S
C1615 C1616 1.287 . S
C1616 C1615 1.287 . S
C1616 C1617 1.524 . S
C1616 H1635 0.913 . S
C1617 H1593 0.950 . S
C1617 C1616 1.524 . S
C1617 C1618 1.415 . S
C1618 H1594 0.950 . S
C1618 C1613 1.363 . S
C1618 C1617 1.415 . S
C1619 H1595 0.951 . S
C1619 C1620 1.366 . S
C1619 C1621 1.388 . S
C1620 C1619 1.366 . S
C1620 C1624 1.385 . S
C1621 H1596 0.951 . S
C1621 C1619 1.388 . S
C1621 C1622 1.366 . S
C1622 C1621 1.366 . S
C1622 C1623 1.414 . S
C1622 C1625 1.499 . S
C1623 H1597 0.950 . S
C1623 C1622 1.414 . S
C1623 C1624 1.374 . S
C1624 H1598 0.950 . S
C1624 C1620 1.385 . S
C1624 C1623 1.374 . S
C1625 C1622 1.499 . S
C1625 C1626 1.373 . S
C1625 C1627 1.389 . S
C1626 H1599 0.950 . S
C1626 C1612 1.377 . S
C1626 C1625 1.373 . S
C1627 C1611 1.377 . S
C1627 C1625 1.389 . S
C1627 C1628 1.524 . S
C1628 C1627 1.524 . S
C1628 C1629 1.397 . S
C1628 C1633 1.363 . S
C1629 H1600 0.950 . S
C1629 C1628 1.397 . S
C1629 C1630 1.334 . S
C1630 H1601 0.950 . S
C1630 C1629 1.334 . S
C1630 C1631 1.287 . S
C1631 C1630 1.287 . S
C1631 C1632 1.524 . S
C1631 H1634 0.999 . S
C1632 H1602 0.950 . S
C1632 C1631 1.524 . S
C1632 C1633 1.415 . S
C1633 H1603 0.950 . S
C1633 C1628 1.363 . S
C1633 C1632 1.415 . S
H1634 C1631 0.999 . S
H1635 C1616 0.913 . S
H1636 C1654 0.951 . S
H1637 C1656 0.951 . S
H1638 C1658 0.950 . S
H1639 C1659 0.950 . S
H1640 C1661 0.950 . S
H1641 C1664 0.950 . S
H1642 C1665 0.950 . S
H1643 C1667 0.950 . S
H1644 C1668 0.950 . S
H1645 C1669 0.951 . S
H1646 C1671 0.951 . S
H1647 C1673 0.950 . S
H1648 C1674 0.950 . S
H1649 C1676 0.950 . S
H1650 C1679 0.950 . S
H1651 C1680 0.950 . S
H1652 C1682 0.950 . S
H1653 C1683 0.950 . S
C1654 H1636 0.951 . S
C1654 C1655 1.366 . S
C1654 C1656 1.388 . S
C1655 C1654 1.366 . S
C1655 C1659 1.385 . S
C1656 H1637 0.951 . S
C1656 C1654 1.388 . S
C1656 C1657 1.366 . S
C1657 C1656 1.366 . S
C1657 C1658 1.414 . S
C1657 C1660 1.499 . S
C1658 H1638 0.950 . S
C1658 C1657 1.414 . S
C1658 C1659 1.374 . S
C1659 H1639 0.950 . S
C1659 C1655 1.385 . S
C1659 C1658 1.374 . S
C1660 C1657 1.499 . S
C1660 C1661 1.373 . S
C1660 C1662 1.389 . S
C1661 H1640 0.950 . S
C1661 C1660 1.373 . S
C1661 C1677 1.377 . S
C1662 C1660 1.389 . S
C1662 C1663 1.524 . S
C1662 C1676 1.377 . S
C1663 C1662 1.524 . S
C1663 C1664 1.397 . S
C1663 C1668 1.363 . S
C1664 H1641 0.950 . S
C1664 C1663 1.397 . S
C1664 C1665 1.334 . S
C1665 H1642 0.950 . S
C1665 C1664 1.334 . S
C1665 C1666 1.287 . S
C1666 C1665 1.287 . S
C1666 C1667 1.524 . S
C1666 H1685 0.913 . S
C1667 H1643 0.950 . S
C1667 C1666 1.524 . S
C1667 C1668 1.415 . S
C1668 H1644 0.950 . S
C1668 C1663 1.363 . S
C1668 C1667 1.415 . S
C1669 H1645 0.951 . S
C1669 C1670 1.366 . S
C1669 C1671 1.388 . S
C1670 C1669 1.366 . S
C1670 C1674 1.385 . S
C1671 H1646 0.951 . S
C1671 C1669 1.388 . S
C1671 C1672 1.366 . S
C1672 C1671 1.366 . S
C1672 C1673 1.414 . S
C1672 C1675 1.499 . S
C1673 H1647 0.950 . S
C1673 C1672 1.414 . S
C1673 C1674 1.374 . S
C1674 H1648 0.950 . S
C1674 C1670 1.385 . S
C1674 C1673 1.374 . S
C1675 C1672 1.499 . S
C1675 C1676 1.373 . S
C1675 C1677 1.389 . S
C1676 H1649 0.950 . S
C1676 C1662 1.377 . S
C1676 C1675 1.373 . S
C1677 C1661 1.377 . S
C1677 C1675 1.389 . S
C1677 C1678 1.524 . S
C1678 C1677 1.524 . S
C1678 C1679 1.397 . S
C1678 C1683 1.363 . S
C1679 H1650 0.950 . S
C1679 C1678 1.397 . S
C1679 C1680 1.334 . S
C1680 H1651 0.950 . S
C1680 C1679 1.334 . S
C1680 C1681 1.287 . S
C1681 C1680 1.287 . S
C1681 C1682 1.524 . S
C1681 H1684 0.999 . S
C1682 H1652 0.950 . S
C1682 C1681 1.524 . S
C1682 C1683 1.415 . S
C1683 H1653 0.950 . S
C1683 C1678 1.363 . S
C1683 C1682 1.415 . S
H1684 C1681 0.999 . S
H1685 C1666 0.913 . S
H1686 C1704 0.951 . S
H1687 C1706 0.951 . S
H1688 C1708 0.950 . S
H1689 C1709 0.950 . S
H1690 C1711 0.950 . S
H1691 C1714 0.950 . S
H1692 C1715 0.950 . S
H1693 C1717 0.950 . S
H1694 C1718 0.950 . S
H1695 C1719 0.951 . S
H1696 C1721 0.951 . S
H1697 C1723 0.950 . S
H1698 C1724 0.950 . S
H1699 C1726 0.950 . S
H1700 C1729 0.950 . S
H1701 C1730 0.950 1_556 S
H1702 C1732 0.950 . S
H1703 C1733 0.950 . S
C1704 H1686 0.951 . S
C1704 C1705 1.366 . S
C1704 C1706 1.388 . S
C1705 C1704 1.366 . S
C1705 C1709 1.385 . S
C1706 H1687 0.951 . S
C1706 C1704 1.388 . S
C1706 C1707 1.366 . S
C1707 C1706 1.366 . S
C1707 C1708 1.414 . S
C1707 C1710 1.499 . S
C1708 H1688 0.950 . S
C1708 C1707 1.414 . S
C1708 C1709 1.374 . S
C1709 H1689 0.950 . S
C1709 C1705 1.385 . S
C1709 C1708 1.374 . S
C1710 C1707 1.499 . S
C1710 C1711 1.373 . S
C1710 C1712 1.389 . S
C1711 H1690 0.950 . S
C1711 C1710 1.373 . S
C1711 C1727 1.377 . S
C1712 C1710 1.389 . S
C1712 C1713 1.524 . S
C1712 C1726 1.377 . S
C1713 C1712 1.524 . S
C1713 C1714 1.397 . S
C1713 C1718 1.363 . S
C1714 H1691 0.950 . S
C1714 C1713 1.397 . S
C1714 C1715 1.334 . S
C1715 H1692 0.950 . S
C1715 C1714 1.334 . S
C1715 C1716 1.287 . S
C1716 C1715 1.287 . S
C1716 C1717 1.524 . S
C1716 H1735 0.913 . S
C1717 H1693 0.950 . S
C1717 C1716 1.524 . S
C1717 C1718 1.415 . S
C1718 H1694 0.950 . S
C1718 C1713 1.363 . S
C1718 C1717 1.415 . S
C1719 H1695 0.951 . S
C1719 C1720 1.366 . S
C1719 C1721 1.388 . S
C1720 C1719 1.366 . S
C1720 C1724 1.385 . S
C1721 H1696 0.951 . S
C1721 C1719 1.388 . S
C1721 C1722 1.366 . S
C1722 C1721 1.366 . S
C1722 C1723 1.414 . S
C1722 C1725 1.499 1_556 S
C1723 H1697 0.950 . S
C1723 C1722 1.414 . S
C1723 C1724 1.374 . S
C1724 H1698 0.950 . S
C1724 C1720 1.385 . S
C1724 C1723 1.374 . S
C1725 C1722 1.499 1_554 S
C1725 C1726 1.373 . S
C1725 C1727 1.389 . S
C1726 H1699 0.950 . S
C1726 C1712 1.377 . S
C1726 C1725 1.373 . S
C1727 C1711 1.377 . S
C1727 C1725 1.389 . S
C1727 C1728 1.524 . S
C1728 C1727 1.524 . S
C1728 C1729 1.397 . S
C1728 C1733 1.363 . S
C1729 H1700 0.950 . S
C1729 C1728 1.397 . S
C1729 C1730 1.334 . S
C1730 H1701 0.950 1_554 S
C1730 C1729 1.334 . S
C1730 C1731 1.287 . S
C1731 C1730 1.287 . S
C1731 C1732 1.524 . S
C1731 H1734 0.999 . S
C1732 H1702 0.950 . S
C1732 C1731 1.524 . S
C1732 C1733 1.415 . S
C1733 H1703 0.950 . S
C1733 C1728 1.363 . S
C1733 C1732 1.415 . S
H1734 C1731 0.999 . S
H1735 C1716 0.913 . S
H1736 C1754 0.951 . S
H1737 C1756 0.951 . S
H1738 C1758 0.950 . S
H1739 C1759 0.950 . S
H1740 C1761 0.950 . S
H1741 C1764 0.950 . S
H1742 C1765 0.950 . S
H1743 C1767 0.950 . S
H1744 C1768 0.950 . S
H1745 C1769 0.951 . S
H1746 C1771 0.951 . S
H1747 C1773 0.950 . S
H1748 C1774 0.950 . S
H1749 C1776 0.950 . S
H1750 C1779 0.950 . S
H1751 C1780 0.950 . S
H1752 C1782 0.950 . S
H1753 C1783 0.950 . S
C1754 H1736 0.951 . S
C1754 C1755 1.366 . S
C1754 C1756 1.388 . S
C1755 C1754 1.366 . S
C1755 C1759 1.385 . S
C1756 H1737 0.951 . S
C1756 C1754 1.388 . S
C1756 C1757 1.366 . S
C1757 C1756 1.366 . S
C1757 C1758 1.414 . S
C1757 C1760 1.499 . S
C1758 H1738 0.950 . S
C1758 C1757 1.414 . S
C1758 C1759 1.374 . S
C1759 H1739 0.950 . S
C1759 C1755 1.385 . S
C1759 C1758 1.374 . S
C1760 C1757 1.499 . S
C1760 C1761 1.373 . S
C1760 C1762 1.389 . S
C1761 H1740 0.950 . S
C1761 C1760 1.373 . S
C1761 C1777 1.377 . S
C1762 C1760 1.389 . S
C1762 C1763 1.524 . S
C1762 C1776 1.377 . S
C1763 C1762 1.524 . S
C1763 C1764 1.397 . S
C1763 C1768 1.363 . S
C1764 H1741 0.950 . S
C1764 C1763 1.397 . S
C1764 C1765 1.334 . S
C1765 H1742 0.950 . S
C1765 C1764 1.334 . S
C1765 C1766 1.287 . S
C1766 C1765 1.287 . S
C1766 C1767 1.524 . S
C1766 H1785 0.913 . S
C1767 H1743 0.950 . S
C1767 C1766 1.524 . S
C1767 C1768 1.415 . S
C1768 H1744 0.950 . S
C1768 C1763 1.363 . S
C1768 C1767 1.415 . S
C1769 H1745 0.951 . S
C1769 C1770 1.366 . S
C1769 C1771 1.388 . S
C1770 C1769 1.366 . S
C1770 C1774 1.385 . S
C1771 H1746 0.951 . S
C1771 C1769 1.388 . S
C1771 C1772 1.366 . S
C1772 C1771 1.366 . S
C1772 C1773 1.414 . S
C1772 C1775 1.499 . S
C1773 H1747 0.950 . S
C1773 C1772 1.414 . S
C1773 C1774 1.374 . S
C1774 H1748 0.950 . S
C1774 C1770 1.385 . S
C1774 C1773 1.374 . S
C1775 C1772 1.499 . S
C1775 C1776 1.373 . S
C1775 C1777 1.389 . S
C1776 H1749 0.950 . S
C1776 C1762 1.377 . S
C1776 C1775 1.373 . S
C1777 C1761 1.377 . S
C1777 C1775 1.389 . S
C1777 C1778 1.524 . S
C1778 C1777 1.524 . S
C1778 C1779 1.397 . S
C1778 C1783 1.363 . S
C1779 H1750 0.950 . S
C1779 C1778 1.397 . S
C1779 C1780 1.334 . S
C1780 H1751 0.950 . S
C1780 C1779 1.334 . S
C1780 C1781 1.287 . S
C1781 C1780 1.287 . S
C1781 C1782 1.524 . S
C1781 H1784 0.999 . S
C1782 H1752 0.950 . S
C1782 C1781 1.524 . S
C1782 C1783 1.415 . S
C1783 H1753 0.950 . S
C1783 C1778 1.363 . S
C1783 C1782 1.415 . S
H1784 C1781 0.999 . S
H1785 C1766 0.913 . S
H1786 C1804 0.951 . S
H1787 C1806 0.951 . S
H1788 C1808 0.950 . S
H1789 C1809 0.950 . S
H1790 C1811 0.950 . S
H1791 C1814 0.950 . S
H1792 C1815 0.950 . S
H1793 C1817 0.950 . S
H1794 C1818 0.950 . S
H1795 C1819 0.951 . S
H1796 C1821 0.951 . S
H1797 C1823 0.950 . S
H1798 C1824 0.950 . S
H1799 C1826 0.950 . S
H1800 C1829 0.950 . S
H1801 C1830 0.950 . S
H1802 C1832 0.950 . S
H1803 C1833 0.950 . S
C1804 H1786 0.951 . S
C1804 C1805 1.366 . S
C1804 C1806 1.388 . S
C1805 C1804 1.366 . S
C1805 C1809 1.385 . S
C1806 H1787 0.951 . S
C1806 C1804 1.388 . S
C1806 C1807 1.366 . S
C1807 C1806 1.366 . S
C1807 C1808 1.414 . S
C1807 C1810 1.499 1_655 S
C1808 H1788 0.950 . S
C1808 C1807 1.414 . S
C1808 C1809 1.374 . S
C1809 H1789 0.950 . S
C1809 C1805 1.385 . S
C1809 C1808 1.374 . S
C1810 C1807 1.499 1_455 S
C1810 C1811 1.373 . S
C1810 C1812 1.389 . S
C1811 H1790 0.950 . S
C1811 C1810 1.373 . S
C1811 C1827 1.377 . S
C1812 C1810 1.389 . S
C1812 C1813 1.524 . S
C1812 C1826 1.377 . S
C1813 C1812 1.524 . S
C1813 C1814 1.397 1_455 S
C1813 C1818 1.363 . S
C1814 H1791 0.950 . S
C1814 C1813 1.397 1_655 S
C1814 C1815 1.334 . S
C1815 H1792 0.950 . S
C1815 C1814 1.334 . S
C1815 C1816 1.261 1_655 S
C1816 C1815 1.261 1_455 S
C1816 C1817 1.565 . S
C1816 H1835 0.896 1_455 S
C1817 H1793 0.950 . S
C1817 C1816 1.565 . S
C1817 C1818 1.415 . S
C1818 H1794 0.950 . S
C1818 C1813 1.363 . S
C1818 C1817 1.415 . S
C1819 H1795 0.951 . S
C1819 C1820 1.366 . S
C1819 C1821 1.388 . S
C1820 C1819 1.366 . S
C1820 C1824 1.385 . S
C1821 H1796 0.951 . S
C1821 C1819 1.388 . S
C1821 C1822 1.366 . S
C1822 C1821 1.366 . S
C1822 C1823 1.414 . S
C1822 C1825 1.499 . S
C1823 H1797 0.950 . S
C1823 C1822 1.414 . S
C1823 C1824 1.374 . S
C1824 H1798 0.950 . S
C1824 C1820 1.385 . S
C1824 C1823 1.374 . S
C1825 C1822 1.499 . S
C1825 C1826 1.373 . S
C1825 C1827 1.389 . S
C1826 H1799 0.950 . S
C1826 C1812 1.377 . S
C1826 C1825 1.373 . S
C1827 C1811 1.377 . S
C1827 C1825 1.389 . S
C1827 C1828 1.524 . S
C1828 C1827 1.524 . S
C1828 C1829 1.397 . S
C1828 C1833 1.363 . S
C1829 H1800 0.950 . S
C1829 C1828 1.397 . S
C1829 C1830 1.334 . S
C1830 H1801 0.950 . S
C1830 C1829 1.334 . S
C1830 C1831 1.287 . S
C1831 C1830 1.287 . S
C1831 C1832 1.524 . S
C1831 H1834 0.999 . S
C1832 H1802 0.950 . S
C1832 C1831 1.524 . S
C1832 C1833 1.415 . S
C1833 H1803 0.950 . S
C1833 C1828 1.363 . S
C1833 C1832 1.415 . S
H1834 C1831 0.999 . S
H1835 C1816 0.896 1_655 S
H1836 C1854 0.951 . S
H1837 C1856 0.951 . S
H1838 C1858 0.950 . S
H1839 C1859 0.950 . S
H1840 C1861 0.950 . S
H1841 C1864 0.950 . S
H1842 C1865 0.950 . S
H1843 C1867 0.950 . S
H1844 C1868 0.950 . S
H1845 C1869 0.951 . S
H1846 C1871 0.951 . S
H1847 C1873 0.950 . S
H1848 C1874 0.950 . S
H1849 C1876 0.950 . S
H1850 C1879 0.950 . S
H1851 C1880 0.950 . S
H1852 C1882 0.950 . S
H1853 C1883 0.950 . S
C1854 H1836 0.951 . S
C1854 C1855 1.366 . S
C1854 C1856 1.388 . S
C1855 C1854 1.366 . S
C1855 C1859 1.385 . S
C1856 H1837 0.951 . S
C1856 C1854 1.388 . S
C1856 C1857 1.366 . S
C1857 C1856 1.366 . S
C1857 C1858 1.414 . S
C1857 C1860 1.499 1_455 S
C1858 H1838 0.950 . S
C1858 C1857 1.414 . S
C1858 C1859 1.374 . S
C1859 H1839 0.950 . S
C1859 C1855 1.385 . S
C1859 C1858 1.374 . S
C1860 C1857 1.499 1_655 S
C1860 C1861 1.373 . S
C1860 C1862 1.389 . S
C1861 H1840 0.950 . S
C1861 C1860 1.373 . S
C1861 C1877 1.377 . S
C1862 C1860 1.389 . S
C1862 C1863 1.524 . S
C1862 C1876 1.377 . S
C1863 C1862 1.524 . S
C1863 C1864 1.397 . S
C1863 C1868 1.363 . S
C1864 H1841 0.950 . S
C1864 C1863 1.397 . S
C1864 C1865 1.334 1_655 S
C1865 H1842 0.950 . S
C1865 C1864 1.334 1_455 S
C1865 C1866 1.287 . S
C1866 C1865 1.287 . S
C1866 C1867 1.524 1_455 S
C1866 H1885 0.913 . S
C1867 H1843 0.950 . S
C1867 C1866 1.524 1_655 S
C1867 C1868 1.415 . S
C1868 H1844 0.950 . S
C1868 C1863 1.363 . S
C1868 C1867 1.415 . S
C1869 H1845 0.951 . S
C1869 C1870 1.366 . S
C1869 C1871 1.388 . S
C1870 C1869 1.366 . S
C1870 C1874 1.385 . S
C1871 H1846 0.951 . S
C1871 C1869 1.388 . S
C1871 C1872 1.366 . S
C1872 C1871 1.366 . S
C1872 C1873 1.414 . S
C1872 C1875 1.499 . S
C1873 H1847 0.950 . S
C1873 C1872 1.414 . S
C1873 C1874 1.374 . S
C1874 H1848 0.950 . S
C1874 C1870 1.385 . S
C1874 C1873 1.374 . S
C1875 C1872 1.499 . S
C1875 C1876 1.373 . S
C1875 C1877 1.389 . S
C1876 H1849 0.950 . S
C1876 C1862 1.377 . S
C1876 C1875 1.373 . S
C1877 C1861 1.377 . S
C1877 C1875 1.389 . S
C1877 C1878 1.524 . S
C1878 C1877 1.524 . S
C1878 C1879 1.397 . S
C1878 C1883 1.363 . S
C1879 H1850 0.950 . S
C1879 C1878 1.397 . S
C1879 C1880 1.334 . S
C1880 H1851 0.950 . S
C1880 C1879 1.334 . S
C1880 C1881 1.287 . S
C1881 C1880 1.287 . S
C1881 C1882 1.524 . S
C1881 H1884 0.999 . S
C1882 H1852 0.950 . S
C1882 C1881 1.524 . S
C1882 C1883 1.415 . S
C1883 H1853 0.950 . S
C1883 C1878 1.363 . S
C1883 C1882 1.415 . S
H1884 C1881 0.999 . S
H1885 C1866 0.913 . S
H1886 C1904 0.951 . S
H1887 C1906 0.951 . S
H1888 C1908 0.950 . S
H1889 C1909 0.950 . S
H1890 C1911 0.950 . S
H1891 C1914 0.950 . S
H1892 C1915 0.950 . S
H1893 C1917 0.950 . S
H1894 C1918 0.950 . S
H1895 C1919 0.951 . S
H1896 C1921 0.951 . S
H1897 C1923 0.950 . S
H1898 C1924 0.950 . S
H1899 C1926 0.950 . S
H1900 C1929 0.950 . S
H1901 C1930 0.950 . S
H1902 C1932 0.950 . S
H1903 C1933 0.950 . S
C1904 H1886 0.951 . S
C1904 C1905 1.366 . S
C1904 C1906 1.388 . S
C1905 C1904 1.366 . S
C1905 C1909 1.385 . S
C1906 H1887 0.951 . S
C1906 C1904 1.388 . S
C1906 C1907 1.366 . S
C1907 C1906 1.366 . S
C1907 C1908 1.414 . S
C1907 C1910 1.499 . S
C1908 H1888 0.950 . S
C1908 C1907 1.414 . S
C1908 C1909 1.374 . S
C1909 H1889 0.950 . S
C1909 C1905 1.385 . S
C1909 C1908 1.374 . S
C1910 C1907 1.499 . S
C1910 C1911 1.373 . S
C1910 C1912 1.389 . S
C1911 H1890 0.950 . S
C1911 C1910 1.373 . S
C1911 C1927 1.377 . S
C1912 C1910 1.389 . S
C1912 C1913 1.524 . S
C1912 C1926 1.377 . S
C1913 C1912 1.524 . S
C1913 C1914 1.397 . S
C1913 C1918 1.363 . S
C1914 H1891 0.950 . S
C1914 C1913 1.397 . S
C1914 C1915 1.334 . S
C1915 H1892 0.950 . S
C1915 C1914 1.334 . S
C1915 C1916 1.287 . S
C1916 C1915 1.287 . S
C1916 C1917 1.524 . S
C1916 H1935 0.913 . S
C1917 H1893 0.950 . S
C1917 C1916 1.524 . S
C1917 C1918 1.415 . S
C1918 H1894 0.950 . S
C1918 C1913 1.363 . S
C1918 C1917 1.415 . S
C1919 H1895 0.951 . S
C1919 C1920 1.366 . S
C1919 C1921 1.388 . S
C1920 C1919 1.366 . S
C1920 C1924 1.385 . S
C1921 H1896 0.951 . S
C1921 C1919 1.388 . S
C1921 C1922 1.366 . S
C1922 C1921 1.366 . S
C1922 C1923 1.414 . S
C1922 C1925 1.499 . S
C1923 H1897 0.950 . S
C1923 C1922 1.414 . S
C1923 C1924 1.374 . S
C1924 H1898 0.950 . S
C1924 C1920 1.385 . S
C1924 C1923 1.374 . S
C1925 C1922 1.499 . S
C1925 C1926 1.373 . S
C1925 C1927 1.389 . S
C1926 H1899 0.950 . S
C1926 C1912 1.377 . S
C1926 C1925 1.373 . S
C1927 C1911 1.377 . S
C1927 C1925 1.389 . S
C1927 C1928 1.524 . S
C1928 C1927 1.524 . S
C1928 C1929 1.397 . S
C1928 C1933 1.363 . S
C1929 H1900 0.950 . S
C1929 C1928 1.397 . S
C1929 C1930 1.334 . S
C1930 H1901 0.950 . S
C1930 C1929 1.334 . S
C1930 C1931 1.287 . S
C1931 C1930 1.287 . S
C1931 C1932 1.524 . S
C1931 H1934 0.999 . S
C1932 H1902 0.950 . S
C1932 C1931 1.524 . S
C1932 C1933 1.415 . S
C1933 H1903 0.950 . S
C1933 C1928 1.363 . S
C1933 C1932 1.415 . S
H1934 C1931 0.999 . S
H1935 C1916 0.913 . S
H1936 C1954 0.951 . S
H1937 C1956 0.951 . S
H1938 C1958 0.950 . S
H1939 C1959 0.950 . S
H1940 C1961 0.950 . S
H1941 C1964 0.950 . S
H1942 C1965 0.950 . S
H1943 C1967 0.950 . S
H1944 C1968 0.950 . S
H1945 C1969 0.951 . S
H1946 C1971 0.951 . S
H1947 C1973 0.950 . S
H1948 C1974 0.950 . S
H1949 C1976 0.950 . S
H1950 C1979 0.950 . S
H1951 C1980 0.950 . S
H1952 C1982 0.950 . S
H1953 C1983 0.950 . S
C1954 H1936 0.951 . S
C1954 C1955 1.366 . S
C1954 C1956 1.388 . S
C1955 C1954 1.366 . S
C1955 C1959 1.385 . S
C1956 H1937 0.951 . S
C1956 C1954 1.388 . S
C1956 C1957 1.366 . S
C1957 C1956 1.366 . S
C1957 C1958 1.414 . S
C1957 C1960 1.499 . S
C1958 H1938 0.950 . S
C1958 C1957 1.414 . S
C1958 C1959 1.374 . S
C1959 H1939 0.950 . S
C1959 C1955 1.385 . S
C1959 C1958 1.374 . S
C1960 C1957 1.499 . S
C1960 C1961 1.373 . S
C1960 C1962 1.389 . S
C1961 H1940 0.950 . S
C1961 C1960 1.373 . S
C1961 C1977 1.377 . S
C1962 C1960 1.389 . S
C1962 C1963 1.524 . S
C1962 C1976 1.377 . S
C1963 C1962 1.524 . S
C1963 C1964 1.397 . S
C1963 C1968 1.363 . S
C1964 H1941 0.950 . S
C1964 C1963 1.397 . S
C1964 C1965 1.334 . S
C1965 H1942 0.950 . S
C1965 C1964 1.334 . S
C1965 C1966 1.287 . S
C1966 C1965 1.287 . S
C1966 C1967 1.524 . S
C1966 H1985 0.913 . S
C1967 H1943 0.950 . S
C1967 C1966 1.524 . S
C1967 C1968 1.415 . S
C1968 H1944 0.950 . S
C1968 C1963 1.363 . S
C1968 C1967 1.415 . S
C1969 H1945 0.951 . S
C1969 C1970 1.366 . S
C1969 C1971 1.388 . S
C1970 C1969 1.366 . S
C1970 C1974 1.385 . S
C1971 H1946 0.951 . S
C1971 C1969 1.388 . S
C1971 C1972 1.366 . S
C1972 C1971 1.366 . S
C1972 C1973 1.414 . S
C1972 C1975 1.499 . S
C1973 H1947 0.950 . S
C1973 C1972 1.414 . S
C1973 C1974 1.374 . S
C1974 H1948 0.950 . S
C1974 C1970 1.385 . S
C1974 C1973 1.374 . S
C1975 C1972 1.499 . S
C1975 C1976 1.373 . S
C1975 C1977 1.389 . S
C1976 H1949 0.950 . S
C1976 C1962 1.377 . S
C1976 C1975 1.373 . S
C1977 C1961 1.377 . S
C1977 C1975 1.389 . S
C1977 C1978 1.524 . S
C1978 C1977 1.524 . S
C1978 C1979 1.397 . S
C1978 C1983 1.363 . S
C1979 H1950 0.950 . S
C1979 C1978 1.397 . S
C1979 C1980 1.334 . S
C1980 H1951 0.950 . S
C1980 C1979 1.334 . S
C1980 C1981 1.287 . S
C1981 C1980 1.287 . S
C1981 C1982 1.524 . S
C1981 H1984 0.999 . S
C1982 H1952 0.950 . S
C1982 C1981 1.524 . S
C1982 C1983 1.415 . S
C1983 H1953 0.950 . S
C1983 C1978 1.363 . S
C1983 C1982 1.415 . S
H1984 C1981 0.999 . S
H1985 C1966 0.913 . S
H1986 C2004 0.951 . S
H1987 C2006 0.951 . S
H1988 C2008 0.950 . S
H1989 C2009 0.950 . S
H1990 C2011 0.950 . S
H1991 C2014 0.950 . S
H1992 C2015 0.950 1_565 S
H1993 C2017 0.950 . S
H1994 C2018 0.950 . S
H1995 C2019 0.951 . S
H1996 C2021 0.951 . S
H1997 C2023 0.950 . S
H1998 C2024 0.950 . S
H1999 C2026 0.950 . S
H2000 C2029 0.950 . S
H2001 C2030 0.950 . S
H2002 C2032 0.950 . S
H2003 C2033 0.950 . S
C2004 H1986 0.951 . S
C2004 C2005 1.366 . S
C2004 C2006 1.388 . S
C2005 C2004 1.366 . S
C2005 C2009 1.385 . S
C2006 H1987 0.951 . S
C2006 C2004 1.388 . S
C2006 C2007 1.366 . S
C2007 C2006 1.366 . S
C2007 C2008 1.414 . S
C2007 C2010 1.499 1_565 S
C2008 H1988 0.950 . S
C2008 C2007 1.414 . S
C2008 C2009 1.374 . S
C2009 H1989 0.950 . S
C2009 C2005 1.385 . S
C2009 C2008 1.374 . S
C2010 C2007 1.499 1_545 S
C2010 C2011 1.373 . S
C2010 C2012 1.389 . S
C2011 H1990 0.950 . S
C2011 C2010 1.373 . S
C2011 C2027 1.377 . S
C2012 C2010 1.389 . S
C2012 C2013 1.524 . S
C2012 C2026 1.377 . S
C2013 C2012 1.524 . S
C2013 C2014 1.397 . S
C2013 C2018 1.363 . S
C2014 H1991 0.950 . S
C2014 C2013 1.397 . S
C2014 C2015 1.334 . S
C2015 H1992 0.950 1_545 S
C2015 C2014 1.334 . S
C2015 C2016 1.287 . S
C2016 C2015 1.287 . S
C2016 C2017 1.524 . S
C2016 H2035 0.913 1_545 S
C2017 H1993 0.950 . S
C2017 C2016 1.524 . S
C2017 C2018 1.415 . S
C2018 H1994 0.950 . S
C2018 C2013 1.363 . S
C2018 C2017 1.415 . S
C2019 H1995 0.951 . S
C2019 C2020 1.366 . S
C2019 C2021 1.388 . S
C2020 C2019 1.366 . S
C2020 C2024 1.385 . S
C2021 H1996 0.951 . S
C2021 C2019 1.388 . S
C2021 C2022 1.366 . S
C2022 C2021 1.366 . S
C2022 C2023 1.414 . S
C2022 C2025 1.499 . S
C2023 H1997 0.950 . S
C2023 C2022 1.414 . S
C2023 C2024 1.374 . S
C2024 H1998 0.950 . S
C2024 C2020 1.385 . S
C2024 C2023 1.374 . S
C2025 C2022 1.499 . S
C2025 C2026 1.373 . S
C2025 C2027 1.389 . S
C2026 H1999 0.950 . S
C2026 C2012 1.377 . S
C2026 C2025 1.373 . S
C2027 C2011 1.377 . S
C2027 C2025 1.389 . S
C2027 C2028 1.524 . S
C2028 C2027 1.524 . S
C2028 C2029 1.397 . S
C2028 C2033 1.363 . S
C2029 H2000 0.950 . S
C2029 C2028 1.397 . S
C2029 C2030 1.334 . S
C2030 H2001 0.950 . S
C2030 C2029 1.334 . S
C2030 C2031 1.287 . S
C2031 C2030 1.287 . S
C2031 C2032 1.524 . S
C2031 H2034 0.999 . S
C2032 H2002 0.950 . S
C2032 C2031 1.524 . S
C2032 C2033 1.415 . S
C2033 H2003 0.950 . S
C2033 C2028 1.363 . S
C2033 C2032 1.415 . S
H2034 C2031 0.999 . S
H2035 C2016 0.913 1_565 S
H2036 C2054 0.951 . S
H2037 C2056 0.951 . S
H2038 C2058 0.950 . S
H2039 C2059 0.950 . S
H2040 C2061 0.950 . S
H2041 C2064 0.950 . S
H2042 C2065 0.950 1_545 S
H2043 C2067 0.950 . S
H2044 C2068 0.950 . S
H2045 C2069 0.951 . S
H2046 C2071 0.951 . S
H2047 C2073 0.950 . S
H2048 C2074 0.950 . S
H2049 C2076 0.950 . S
H2050 C2079 0.950 . S
H2051 C2080 0.950 . S
H2052 C2082 0.950 . S
H2053 C2083 0.950 . S
C2054 H2036 0.951 . S
C2054 C2055 1.366 . S
C2054 C2056 1.388 . S
C2055 C2054 1.366 . S
C2055 C2059 1.385 . S
C2056 H2037 0.951 . S
C2056 C2054 1.388 . S
C2056 C2057 1.366 . S
C2057 C2056 1.366 . S
C2057 C2058 1.414 . S
C2057 C2060 1.499 1_545 S
C2058 H2038 0.950 . S
C2058 C2057 1.414 . S
C2058 C2059 1.374 . S
C2059 H2039 0.950 . S
C2059 C2055 1.385 . S
C2059 C2058 1.374 . S
C2060 C2057 1.499 1_565 S
C2060 C2061 1.373 . S
C2060 C2062 1.389 . S
C2061 H2040 0.950 . S
C2061 C2060 1.373 . S
C2061 C2077 1.377 . S
C2062 C2060 1.389 . S
C2062 C2063 1.524 . S
C2062 C2076 1.377 . S
C2063 C2062 1.524 . S
C2063 C2064 1.397 . S
C2063 C2068 1.363 . S
C2064 H2041 0.950 . S
C2064 C2063 1.397 . S
C2064 C2065 1.334 . S
C2065 H2042 0.950 1_565 S
C2065 C2064 1.334 . S
C2065 C2066 1.287 . S
C2066 C2065 1.287 . S
C2066 C2067 1.524 . S
C2066 H2085 0.913 . S
C2067 H2043 0.950 . S
C2067 C2066 1.524 . S
C2067 C2068 1.415 . S
C2068 H2044 0.950 . S
C2068 C2063 1.363 . S
C2068 C2067 1.415 . S
C2069 H2045 0.951 . S
C2069 C2070 1.366 . S
C2069 C2071 1.388 . S
C2070 C2069 1.366 . S
C2070 C2074 1.385 . S
C2071 H2046 0.951 . S
C2071 C2069 1.388 . S
C2071 C2072 1.366 . S
C2072 C2071 1.366 . S
C2072 C2073 1.414 . S
C2072 C2075 1.499 . S
C2073 H2047 0.950 . S
C2073 C2072 1.414 . S
C2073 C2074 1.374 . S
C2074 H2048 0.950 . S
C2074 C2070 1.385 . S
C2074 C2073 1.374 . S
C2075 C2072 1.499 . S
C2075 C2076 1.373 . S
C2075 C2077 1.389 . S
C2076 H2049 0.950 . S
C2076 C2062 1.377 . S
C2076 C2075 1.373 . S
C2077 C2061 1.377 . S
C2077 C2075 1.389 . S
C2077 C2078 1.524 . S
C2078 C2077 1.524 . S
C2078 C2079 1.397 . S
C2078 C2083 1.363 . S
C2079 H2050 0.950 . S
C2079 C2078 1.397 . S
C2079 C2080 1.334 . S
C2080 H2051 0.950 . S
C2080 C2079 1.334 . S
C2080 C2081 1.287 . S
C2081 C2080 1.287 . S
C2081 C2082 1.524 . S
C2081 H2084 0.999 . S
C2082 H2052 0.950 . S
C2082 C2081 1.524 . S
C2082 C2083 1.415 . S
C2083 H2053 0.950 . S
C2083 C2078 1.363 . S
C2083 C2082 1.415 . S
H2084 C2081 0.999 . S
H2085 C2066 0.913 . S
H2086 C2104 0.951 . S
H2087 C2106 0.951 . S
H2088 C2108 0.950 . S
H2089 C2109 0.950 . S
H2090 C2111 0.950 . S
H2091 C2114 0.950 . S
H2092 C2115 0.950 . S
H2093 C2117 0.950 . S
H2094 C2118 0.950 . S
H2095 C2119 0.951 . S
H2096 C2121 0.951 . S
H2097 C2123 0.950 . S
H2098 C2124 0.950 . S
H2099 C2126 0.950 . S
H2100 C2129 0.950 . S
H2101 C2130 0.950 . S
H2102 C2132 0.950 . S
H2103 C2133 0.950 . S
C2104 H2086 0.951 . S
C2104 C2105 1.366 . S
C2104 C2106 1.388 . S
C2105 C2104 1.366 . S
C2105 C2109 1.385 . S
C2106 H2087 0.951 . S
C2106 C2104 1.388 . S
C2106 C2107 1.366 . S
C2107 C2106 1.366 . S
C2107 C2108 1.414 . S
C2107 C2110 1.499 . S
C2108 H2088 0.950 . S
C2108 C2107 1.414 . S
C2108 C2109 1.374 . S
C2109 H2089 0.950 . S
C2109 C2105 1.385 . S
C2109 C2108 1.374 . S
C2110 C2107 1.499 . S
C2110 C2111 1.373 . S
C2110 C2112 1.389 . S
C2111 H2090 0.950 . S
C2111 C2110 1.373 . S
C2111 C2127 1.377 . S
C2112 C2110 1.389 . S
C2112 C2113 1.524 . S
C2112 C2126 1.377 . S
C2113 C2112 1.524 . S
C2113 C2114 1.397 . S
C2113 C2118 1.363 . S
C2114 H2091 0.950 . S
C2114 C2113 1.397 . S
C2114 C2115 1.334 . S
C2115 H2092 0.950 . S
C2115 C2114 1.334 . S
C2115 C2116 1.287 . S
C2116 C2115 1.287 . S
C2116 C2117 1.524 . S
C2116 H2135 0.913 . S
C2117 H2093 0.950 . S
C2117 C2116 1.524 . S
C2117 C2118 1.415 . S
C2118 H2094 0.950 . S
C2118 C2113 1.363 . S
C2118 C2117 1.415 . S
C2119 H2095 0.951 . S
C2119 C2120 1.366 . S
C2119 C2121 1.388 . S
C2120 C2119 1.366 . S
C2120 C2124 1.385 . S
C2121 H2096 0.951 . S
C2121 C2119 1.388 . S
C2121 C2122 1.366 . S
C2122 C2121 1.366 . S
C2122 C2123 1.414 . S
C2122 C2125 1.499 . S
C2123 H2097 0.950 . S
C2123 C2122 1.414 . S
C2123 C2124 1.374 . S
C2124 H2098 0.950 . S
C2124 C2120 1.385 . S
C2124 C2123 1.374 . S
C2125 C2122 1.499 . S
C2125 C2126 1.373 . S
C2125 C2127 1.389 . S
C2126 H2099 0.950 . S
C2126 C2112 1.377 . S
C2126 C2125 1.373 . S
C2127 C2111 1.377 . S
C2127 C2125 1.389 . S
C2127 C2128 1.524 . S
C2128 C2127 1.524 . S
C2128 C2129 1.397 . S
C2128 C2133 1.363 . S
C2129 H2100 0.950 . S
C2129 C2128 1.397 . S
C2129 C2130 1.334 . S
C2130 H2101 0.950 . S
C2130 C2129 1.334 . S
C2130 C2131 1.287 . S
C2131 C2130 1.287 . S
C2131 C2132 1.524 . S
C2131 H2134 0.999 . S
C2132 H2102 0.950 . S
C2132 C2131 1.524 . S
C2132 C2133 1.415 . S
C2133 H2103 0.950 . S
C2133 C2128 1.363 . S
C2133 C2132 1.415 . S
H2134 C2131 0.999 . S
H2135 C2116 0.913 . S
H2136 C2154 0.951 . S
H2137 C2156 0.951 . S
H2138 C2158 0.950 . S
H2139 C2159 0.950 . S
H2140 C2161 0.950 . S
H2141 C2164 0.950 . S
H2142 C2165 0.950 . S
H2143 C2167 0.950 . S
H2144 C2168 0.950 . S
H2145 C2169 0.951 . S
H2146 C2171 0.951 . S
H2147 C2173 0.950 . S
H2148 C2174 0.950 . S
H2149 C2176 0.950 . S
H2150 C2179 0.950 . S
H2151 C2180 0.950 . S
H2152 C2182 0.950 . S
H2153 C2183 0.950 . S
C2154 H2136 0.951 . S
C2154 C2155 1.366 . S
C2154 C2156 1.388 . S
C2155 C2154 1.366 . S
C2155 C2159 1.385 . S
C2156 H2137 0.951 . S
C2156 C2154 1.388 . S
C2156 C2157 1.366 . S
C2157 C2156 1.366 . S
C2157 C2158 1.414 . S
C2157 C2160 1.499 . S
C2158 H2138 0.950 . S
C2158 C2157 1.414 . S
C2158 C2159 1.374 . S
C2159 H2139 0.950 . S
C2159 C2155 1.385 . S
C2159 C2158 1.374 . S
C2160 C2157 1.499 . S
C2160 C2161 1.373 . S
C2160 C2162 1.389 . S
C2161 H2140 0.950 . S
C2161 C2160 1.373 . S
C2161 C2177 1.377 . S
C2162 C2160 1.389 . S
C2162 C2163 1.524 . S
C2162 C2176 1.377 . S
C2163 C2162 1.524 . S
C2163 C2164 1.397 . S
C2163 C2168 1.363 . S
C2164 H2141 0.950 . S
C2164 C2163 1.397 . S
C2164 C2165 1.334 . S
C2165 H2142 0.950 . S
C2165 C2164 1.334 . S
C2165 C2166 1.287 . S
C2166 C2165 1.287 . S
C2166 C2167 1.524 . S
C2166 H2185 0.913 . S
C2167 H2143 0.950 . S
C2167 C2166 1.524 . S
C2167 C2168 1.415 . S
C2168 H2144 0.950 . S
C2168 C2163 1.363 . S
C2168 C2167 1.415 . S
C2169 H2145 0.951 . S
C2169 C2170 1.366 . S
C2169 C2171 1.388 . S
C2170 C2169 1.366 . S
C2170 C2174 1.385 . S
C2171 H2146 0.951 . S
C2171 C2169 1.388 . S
C2171 C2172 1.366 . S
C2172 C2171 1.366 . S
C2172 C2173 1.414 . S
C2172 C2175 1.499 . S
C2173 H2147 0.950 . S
C2173 C2172 1.414 . S
C2173 C2174 1.374 . S
C2174 H2148 0.950 . S
C2174 C2170 1.385 . S
C2174 C2173 1.374 . S
C2175 C2172 1.499 . S
C2175 C2176 1.373 . S
C2175 C2177 1.389 . S
C2176 H2149 0.950 . S
C2176 C2162 1.377 . S
C2176 C2175 1.373 . S
C2177 C2161 1.377 . S
C2177 C2175 1.389 . S
C2177 C2178 1.524 . S
C2178 C2177 1.524 . S
C2178 C2179 1.397 . S
C2178 C2183 1.363 . S
C2179 H2150 0.950 . S
C2179 C2178 1.397 . S
C2179 C2180 1.334 . S
C2180 H2151 0.950 . S
C2180 C2179 1.334 . S
C2180 C2181 1.287 . S
C2181 C2180 1.287 . S
C2181 C2182 1.524 . S
C2181 H2184 0.999 . S
C2182 H2152 0.950 . S
C2182 C2181 1.524 . S
C2182 C2183 1.415 . S
C2183 H2153 0.950 . S
C2183 C2178 1.363 . S
C2183 C2182 1.415 . S
H2184 C2181 0.999 . S
H2185 C2166 0.913 . S
H2186 C2204 0.951 . S
H2187 C2206 0.951 . S
H2188 C2208 0.950 . S
H2189 C2209 0.950 . S
H2190 C2211 0.950 . S
H2191 C2214 0.950 . S
H2192 C2215 0.936 1_556 S
H2193 C2217 0.950 . S
H2194 C2218 0.950 . S
H2195 C2219 0.951 . S
H2196 C2221 0.951 . S
H2197 C2223 0.950 . S
H2198 C2224 0.950 . S
H2199 C2226 0.950 . S
H2200 C2229 0.950 . S
H2201 C2230 0.950 . S
H2202 C2232 0.950 . S
H2203 C2233 0.950 . S
C2204 H2186 0.951 . S
C2204 C2205 1.366 . S
C2204 C2206 1.388 . S
C2205 C2204 1.366 . S
C2205 C2209 1.385 . S
C2206 H2187 0.951 . S
C2206 C2204 1.388 . S
C2206 C2207 1.366 . S
C2207 C2206 1.366 . S
C2207 C2208 1.414 . S
C2207 C2210 1.499 1_556 S
C2208 H2188 0.950 . S
C2208 C2207 1.414 . S
C2208 C2209 1.374 . S
C2209 H2189 0.950 . S
C2209 C2205 1.385 . S
C2209 C2208 1.374 . S
C2210 C2207 1.499 1_554 S
C2210 C2211 1.373 . S
C2210 C2212 1.389 . S
C2211 H2190 0.950 . S
C2211 C2210 1.373 . S
C2211 C2227 1.377 . S
C2212 C2210 1.389 . S
C2212 C2213 1.524 . S
C2212 C2226 1.377 . S
C2213 C2212 1.524 . S
C2213 C2214 1.397 . S
C2213 C2218 1.363 . S
C2214 H2191 0.950 . S
C2214 C2213 1.397 . S
C2214 C2215 1.344 . S
C2215 H2192 0.936 1_554 S
C2215 C2214 1.344 . S
C2215 C2216 1.294 . S
C2216 C2215 1.294 . S
C2216 C2217 1.524 . S
C2216 H2235 0.916 . S
C2217 H2193 0.950 . S
C2217 C2216 1.524 . S
C2217 C2218 1.415 . S
C2218 H2194 0.950 . S
C2218 C2213 1.363 . S
C2218 C2217 1.415 . S
C2219 H2195 0.951 . S
C2219 C2220 1.366 . S
C2219 C2221 1.388 . S
C2220 C2219 1.366 . S
C2220 C2224 1.385 . S
C2221 H2196 0.951 . S
C2221 C2219 1.388 . S
C2221 C2222 1.366 . S
C2222 C2221 1.366 . S
C2222 C2223 1.414 . S
C2222 C2225 1.499 . S
C2223 H2197 0.950 . S
C2223 C2222 1.414 . S
C2223 C2224 1.374 . S
C2224 H2198 0.950 . S
C2224 C2220 1.385 . S
C2224 C2223 1.374 . S
C2225 C2222 1.499 . S
C2225 C2226 1.373 . S
C2225 C2227 1.389 . S
C2226 H2199 0.950 . S
C2226 C2212 1.377 . S
C2226 C2225 1.373 . S
C2227 C2211 1.377 . S
C2227 C2225 1.389 . S
C2227 C2228 1.524 . S
C2228 C2227 1.524 . S
C2228 C2229 1.397 . S
C2228 C2233 1.363 . S
C2229 H2200 0.950 . S
C2229 C2228 1.397 . S
C2229 C2230 1.334 . S
C2230 H2201 0.950 . S
C2230 C2229 1.334 . S
C2230 C2231 1.287 . S
C2231 C2230 1.287 . S
C2231 C2232 1.524 . S
C2231 H2234 0.999 . S
C2232 H2202 0.950 . S
C2232 C2231 1.524 . S
C2232 C2233 1.415 . S
C2233 H2203 0.950 . S
C2233 C2228 1.363 . S
C2233 C2232 1.415 . S
H2234 C2231 0.999 . S
H2235 C2216 0.916 . S
H2236 C2254 0.951 . S
H2237 C2256 0.951 . S
H2238 C2258 0.950 . S
H2239 C2259 0.950 . S
H2240 C2261 0.950 . S
H2241 C2264 0.950 . S
H2242 C2265 0.950 . S
H2243 C2267 0.950 . S
H2244 C2268 0.950 . S
H2245 C2269 0.951 . S
H2246 C2271 0.951 . S
H2247 C2273 0.950 . S
H2248 C2274 0.950 . S
H2249 C2276 0.950 . S
H2250 C2279 0.950 . S
H2251 C2280 0.950 . S
H2252 C2282 0.950 . S
H2253 C2283 0.950 . S
C2254 H2236 0.951 . S
C2254 C2255 1.366 . S
C2254 C2256 1.388 . S
C2255 C2254 1.366 . S
C2255 C2259 1.385 . S
C2256 H2237 0.951 . S
C2256 C2254 1.388 . S
C2256 C2257 1.366 . S
C2257 C2256 1.366 . S
C2257 C2258 1.414 . S
C2257 C2260 1.499 . S
C2258 H2238 0.950 . S
C2258 C2257 1.414 . S
C2258 C2259 1.374 . S
C2259 H2239 0.950 . S
C2259 C2255 1.385 . S
C2259 C2258 1.374 . S
C2260 C2257 1.499 . S
C2260 C2261 1.373 . S
C2260 C2262 1.389 . S
C2261 H2240 0.950 . S
C2261 C2260 1.373 . S
C2261 C2277 1.377 . S
C2262 C2260 1.389 . S
C2262 C2263 1.524 . S
C2262 C2276 1.377 . S
C2263 C2262 1.524 . S
C2263 C2264 1.397 . S
C2263 C2268 1.363 . S
C2264 H2241 0.950 . S
C2264 C2263 1.397 . S
C2264 C2265 1.334 . S
C2265 H2242 0.950 . S
C2265 C2264 1.334 . S
C2265 C2266 1.287 . S
C2266 C2265 1.287 . S
C2266 C2267 1.524 . S
C2266 H2285 0.913 . S
C2267 H2243 0.950 . S
C2267 C2266 1.524 . S
C2267 C2268 1.415 . S
C2268 H2244 0.950 . S
C2268 C2263 1.363 . S
C2268 C2267 1.415 . S
C2269 H2245 0.951 . S
C2269 C2270 1.366 . S
C2269 C2271 1.388 . S
C2270 C2269 1.366 . S
C2270 C2274 1.385 . S
C2271 H2246 0.951 . S
C2271 C2269 1.388 . S
C2271 C2272 1.366 . S
C2272 C2271 1.366 . S
C2272 C2273 1.414 . S
C2272 C2275 1.499 . S
C2273 H2247 0.950 . S
C2273 C2272 1.414 . S
C2273 C2274 1.374 . S
C2274 H2248 0.950 . S
C2274 C2270 1.385 . S
C2274 C2273 1.374 . S
C2275 C2272 1.499 . S
C2275 C2276 1.373 . S
C2275 C2277 1.389 . S
C2276 H2249 0.950 . S
C2276 C2262 1.377 . S
C2276 C2275 1.373 . S
C2277 C2261 1.377 . S
C2277 C2275 1.389 . S
C2277 C2278 1.524 . S
C2278 C2277 1.524 . S
C2278 C2279 1.397 . S
C2278 C2283 1.363 . S
C2279 H2250 0.950 . S
C2279 C2278 1.397 . S
C2279 C2280 1.334 . S
C2280 H2251 0.950 . S
C2280 C2279 1.334 . S
C2280 C2281 1.287 . S
C2281 C2280 1.287 . S
C2281 C2282 1.524 . S
C2281 H2284 0.999 . S
C2282 H2252 0.950 . S
C2282 C2281 1.524 . S
C2282 C2283 1.415 . S
C2283 H2253 0.950 . S
C2283 C2278 1.363 . S
C2283 C2282 1.415 . S
H2284 C2281 0.999 . S
H2285 C2266 0.913 . S
H2286 C2304 0.951 . S
H2287 C2306 0.951 . S
H2288 C2308 0.950 . S
H2289 C2309 0.950 . S
H2290 C2311 0.950 . S
H2291 C2314 0.950 . S
H2292 C2315 0.950 . S
H2293 C2317 0.950 . S
H2294 C2318 0.950 . S
H2295 C2319 0.951 . S
H2296 C2321 0.951 . S
H2297 C2323 0.950 . S
H2298 C2324 0.950 . S
H2299 C2326 0.950 . S
H2300 C2329 0.950 . S
H2301 C2330 0.950 . S
H2302 C2332 0.950 . S
H2303 C2333 0.950 . S
C2304 H2286 0.951 . S
C2304 C2305 1.366 . S
C2304 C2306 1.388 . S
C2305 C2304 1.366 . S
C2305 C2309 1.385 . S
C2306 H2287 0.951 . S
C2306 C2304 1.388 . S
C2306 C2307 1.366 . S
C2307 C2306 1.366 . S
C2307 C2308 1.414 . S
C2307 C2310 1.499 1_554 S
C2308 H2288 0.950 . S
C2308 C2307 1.414 . S
C2308 C2309 1.374 . S
C2309 H2289 0.950 . S
C2309 C2305 1.385 . S
C2309 C2308 1.374 . S
C2310 C2307 1.499 1_556 S
C2310 C2311 1.373 . S
C2310 C2312 1.389 . S
C2311 H2290 0.950 . S
C2311 C2310 1.373 . S
C2311 C2327 1.377 . S
C2312 C2310 1.389 . S
C2312 C2313 1.524 . S
C2312 C2326 1.377 . S
C2313 C2312 1.524 . S
C2313 C2314 1.397 1_556 S
C2313 C2318 1.363 . S
C2314 H2291 0.950 . S
C2314 C2313 1.397 1_554 S
C2314 C2315 1.334 . S
C2315 H2292 0.950 . S
C2315 C2314 1.334 . S
C2315 C2316 1.287 . S
C2316 C2315 1.287 . S
C2316 C2317 1.524 1_554 S
C2316 H2335 0.913 . S
C2317 H2293 0.950 . S
C2317 C2316 1.524 1_556 S
C2317 C2318 1.415 . S
C2318 H2294 0.950 . S
C2318 C2313 1.363 . S
C2318 C2317 1.415 . S
C2319 H2295 0.951 . S
C2319 C2320 1.366 . S
C2319 C2321 1.388 . S
C2320 C2319 1.366 . S
C2320 C2324 1.385 . S
C2321 H2296 0.951 . S
C2321 C2319 1.388 . S
C2321 C2322 1.366 . S
C2322 C2321 1.366 . S
C2322 C2323 1.414 . S
C2322 C2325 1.499 . S
C2323 H2297 0.950 . S
C2323 C2322 1.414 . S
C2323 C2324 1.374 . S
C2324 H2298 0.950 . S
C2324 C2320 1.385 . S
C2324 C2323 1.374 . S
C2325 C2322 1.499 . S
C2325 C2326 1.373 . S
C2325 C2327 1.389 . S
C2326 H2299 0.950 . S
C2326 C2312 1.377 . S
C2326 C2325 1.373 . S
C2327 C2311 1.377 . S
C2327 C2325 1.389 . S
C2327 C2328 1.524 . S
C2328 C2327 1.524 . S
C2328 C2329 1.397 . S
C2328 C2333 1.363 . S
C2329 H2300 0.950 . S
C2329 C2328 1.397 . S
C2329 C2330 1.334 . S
C2330 H2301 0.950 . S
C2330 C2329 1.334 . S
C2330 C2331 1.287 . S
C2331 C2330 1.287 . S
C2331 C2332 1.524 . S
C2331 H2334 0.999 . S
C2332 H2302 0.950 . S
C2332 C2331 1.524 . S
C2332 C2333 1.415 . S
C2333 H2303 0.950 . S
C2333 C2328 1.363 . S
C2333 C2332 1.415 . S
H2334 C2331 0.999 . S
H2335 C2316 0.913 . S
H2336 C2354 0.951 . S
H2337 C2356 0.951 . S
H2338 C2358 0.950 . S
H2339 C2359 0.950 . S
H2340 C2361 0.950 . S
H2341 C2364 0.950 . S
H2342 C2365 0.950 . S
H2343 C2367 0.950 . S
H2344 C2368 0.950 . S
H2345 C2369 0.951 . S
H2346 C2371 0.951 . S
H2347 C2373 0.950 . S
H2348 C2374 0.950 . S
H2349 C2376 0.950 . S
H2350 C2379 0.950 . S
H2351 C2380 0.950 . S
H2352 C2382 0.950 . S
H2353 C2383 0.950 . S
C2354 H2336 0.951 . S
C2354 C2355 1.366 . S
C2354 C2356 1.388 . S
C2355 C2354 1.366 . S
C2355 C2359 1.385 . S
C2356 H2337 0.951 . S
C2356 C2354 1.388 . S
C2356 C2357 1.366 . S
C2357 C2356 1.366 . S
C2357 C2358 1.414 . S
C2357 C2360 1.499 . S
C2358 H2338 0.950 . S
C2358 C2357 1.414 . S
C2358 C2359 1.374 . S
C2359 H2339 0.950 . S
C2359 C2355 1.385 . S
C2359 C2358 1.374 . S
C2360 C2357 1.499 . S
C2360 C2361 1.373 . S
C2360 C2362 1.389 . S
C2361 H2340 0.950 . S
C2361 C2360 1.373 . S
C2361 C2377 1.377 . S
C2362 C2360 1.389 . S
C2362 C2363 1.524 . S
C2362 C2376 1.377 . S
C2363 C2362 1.524 . S
C2363 C2364 1.397 . S
C2363 C2368 1.363 . S
C2364 H2341 0.950 . S
C2364 C2363 1.397 . S
C2364 C2365 1.334 . S
C2365 H2342 0.950 . S
C2365 C2364 1.334 . S
C2365 C2366 1.287 . S
C2366 C2365 1.287 . S
C2366 C2367 1.524 . S
C2366 H2385 0.913 . S
C2367 H2343 0.950 . S
C2367 C2366 1.524 . S
C2367 C2368 1.415 . S
C2368 H2344 0.950 . S
C2368 C2363 1.363 . S
C2368 C2367 1.415 . S
C2369 H2345 0.951 . S
C2369 C2370 1.366 . S
C2369 C2371 1.388 . S
C2370 C2369 1.366 . S
C2370 C2374 1.385 . S
C2371 H2346 0.951 . S
C2371 C2369 1.388 . S
C2371 C2372 1.366 . S
C2372 C2371 1.366 . S
C2372 C2373 1.414 . S
C2372 C2375 1.499 . S
C2373 H2347 0.950 . S
C2373 C2372 1.414 . S
C2373 C2374 1.374 . S
C2374 H2348 0.950 . S
C2374 C2370 1.385 . S
C2374 C2373 1.374 . S
C2375 C2372 1.499 . S
C2375 C2376 1.373 . S
C2375 C2377 1.389 . S
C2376 H2349 0.950 . S
C2376 C2362 1.377 . S
C2376 C2375 1.373 . S
C2377 C2361 1.377 . S
C2377 C2375 1.389 . S
C2377 C2378 1.524 . S
C2378 C2377 1.524 . S
C2378 C2379 1.397 . S
C2378 C2383 1.363 . S
C2379 H2350 0.950 . S
C2379 C2378 1.397 . S
C2379 C2380 1.334 . S
C2380 H2351 0.950 . S
C2380 C2379 1.334 . S
C2380 C2381 1.287 . S
C2381 C2380 1.287 . S
C2381 C2382 1.524 . S
C2381 H2384 0.999 . S
C2382 H2352 0.950 . S
C2382 C2381 1.524 . S
C2382 C2383 1.415 . S
C2383 H2353 0.950 . S
C2383 C2378 1.363 . S
C2383 C2382 1.415 . S
H2384 C2381 0.999 . S
H2385 C2366 0.913 . S
H2386 C2404 0.951 . S
H2387 C2406 0.951 . S
H2388 C2408 0.950 . S
H2389 C2409 0.950 . S
H2390 C2411 0.950 . S
H2391 C2414 0.950 . S
H2392 C2415 0.950 . S
H2393 C2417 0.950 . S
H2394 C2418 0.950 . S
H2395 C2419 0.951 . S
H2396 C2421 0.951 . S
H2397 C2423 0.950 . S
H2398 C2424 0.950 . S
H2399 C2426 0.950 . S
H2400 C2429 0.950 . S
H2401 C2430 0.950 . S
H2402 C2432 0.950 . S
H2403 C2433 0.950 . S
C2404 H2386 0.951 . S
C2404 C2405 1.366 . S
C2404 C2406 1.388 . S
C2405 C2404 1.366 . S
C2405 C2409 1.385 . S
C2406 H2387 0.951 . S
C2406 C2404 1.388 . S
C2406 C2407 1.366 . S
C2407 C2406 1.366 . S
C2407 C2408 1.414 . S
C2407 C2410 1.499 . S
C2408 H2388 0.950 . S
C2408 C2407 1.414 . S
C2408 C2409 1.374 . S
C2409 H2389 0.950 . S
C2409 C2405 1.385 . S
C2409 C2408 1.374 . S
C2410 C2407 1.499 . S
C2410 C2411 1.373 . S
C2410 C2412 1.389 . S
C2411 H2390 0.950 . S
C2411 C2410 1.373 . S
C2411 C2427 1.377 . S
C2412 C2410 1.389 . S
C2412 C2413 1.524 . S
C2412 C2426 1.377 . S
C2413 C2412 1.524 . S
C2413 C2414 1.397 . S
C2413 C2418 1.363 . S
C2414 H2391 0.950 . S
C2414 C2413 1.397 . S
C2414 C2415 1.334 . S
C2415 H2392 0.950 . S
C2415 C2414 1.334 . S
C2415 C2416 1.287 . S
C2416 C2415 1.287 . S
C2416 C2417 1.524 . S
C2416 H2435 0.913 . S
C2417 H2393 0.950 . S
C2417 C2416 1.524 . S
C2417 C2418 1.415 . S
C2418 H2394 0.950 . S
C2418 C2413 1.363 . S
C2418 C2417 1.415 . S
C2419 H2395 0.951 . S
C2419 C2420 1.366 . S
C2419 C2421 1.388 . S
C2420 C2419 1.366 . S
C2420 C2424 1.385 . S
C2421 H2396 0.951 . S
C2421 C2419 1.388 . S
C2421 C2422 1.366 . S
C2422 C2421 1.366 . S
C2422 C2423 1.414 . S
C2422 C2425 1.499 1_455 S
C2423 H2397 0.950 . S
C2423 C2422 1.414 . S
C2423 C2424 1.374 . S
C2424 H2398 0.950 . S
C2424 C2420 1.385 . S
C2424 C2423 1.374 . S
C2425 C2422 1.499 1_655 S
C2425 C2426 1.373 . S
C2425 C2427 1.389 . S
C2426 H2399 0.950 . S
C2426 C2412 1.377 . S
C2426 C2425 1.373 . S
C2427 C2411 1.377 . S
C2427 C2425 1.389 . S
C2427 C2428 1.524 . S
C2428 C2427 1.524 . S
C2428 C2429 1.397 1_655 S
C2428 C2433 1.363 . S
C2429 H2400 0.950 . S
C2429 C2428 1.397 1_455 S
C2429 C2430 1.334 . S
C2430 H2401 0.950 . S
C2430 C2429 1.334 . S
C2430 C2431 1.287 . S
C2431 C2430 1.287 . S
C2431 C2432 1.524 . S
C2431 H2434 0.999 . S
C2432 H2402 0.950 . S
C2432 C2431 1.524 . S
C2432 C2433 1.415 1_455 S
C2433 H2403 0.950 . S
C2433 C2428 1.363 . S
C2433 C2432 1.415 1_655 S
H2434 C2431 0.999 . S
H2435 C2416 0.913 . S
H2436 C2454 0.951 . S
H2437 C2456 0.951 . S
H2438 C2458 0.950 . S
H2439 C2459 0.950 . S
H2440 C2461 0.950 . S
H2441 C2464 0.950 . S
H2442 C2465 0.950 . S
H2443 C2467 0.950 . S
H2444 C2468 0.950 . S
H2445 C2469 0.951 . S
H2446 C2471 0.951 . S
H2447 C2473 0.950 . S
H2448 C2474 0.950 . S
H2449 C2476 0.950 . S
H2450 C2479 0.950 . S
H2451 C2480 0.950 . S
H2452 C2482 0.950 . S
H2453 C2483 0.950 . S
C2454 H2436 0.951 . S
C2454 C2455 1.366 . S
C2454 C2456 1.388 . S
C2455 C2454 1.366 . S
C2455 C2459 1.385 . S
C2456 H2437 0.951 . S
C2456 C2454 1.388 . S
C2456 C2457 1.366 . S
C2457 C2456 1.366 . S
C2457 C2458 1.414 . S
C2457 C2460 1.499 . S
C2458 H2438 0.950 . S
C2458 C2457 1.414 . S
C2458 C2459 1.374 . S
C2459 H2439 0.950 . S
C2459 C2455 1.385 . S
C2459 C2458 1.374 . S
C2460 C2457 1.499 . S
C2460 C2461 1.373 . S
C2460 C2462 1.389 . S
C2461 H2440 0.950 . S
C2461 C2460 1.373 . S
C2461 C2477 1.377 . S
C2462 C2460 1.389 . S
C2462 C2463 1.524 . S
C2462 C2476 1.377 . S
C2463 C2462 1.524 . S
C2463 C2464 1.397 . S
C2463 C2468 1.363 . S
C2464 H2441 0.950 . S
C2464 C2463 1.397 . S
C2464 C2465 1.334 . S
C2465 H2442 0.950 . S
C2465 C2464 1.334 . S
C2465 C2466 1.287 . S
C2466 C2465 1.287 . S
C2466 C2467 1.524 . S
C2466 H2485 0.913 . S
C2467 H2443 0.950 . S
C2467 C2466 1.524 . S
C2467 C2468 1.415 . S
C2468 H2444 0.950 . S
C2468 C2463 1.363 . S
C2468 C2467 1.415 . S
C2469 H2445 0.951 . S
C2469 C2470 1.366 . S
C2469 C2471 1.388 . S
C2470 C2469 1.366 . S
C2470 C2474 1.385 . S
C2471 H2446 0.951 . S
C2471 C2469 1.388 . S
C2471 C2472 1.366 . S
C2472 C2471 1.366 . S
C2472 C2473 1.414 . S
C2472 C2475 1.499 1_655 S
C2473 H2447 0.950 . S
C2473 C2472 1.414 . S
C2473 C2474 1.374 . S
C2474 H2448 0.950 . S
C2474 C2470 1.385 . S
C2474 C2473 1.374 . S
C2475 C2472 1.499 1_455 S
C2475 C2476 1.373 . S
C2475 C2477 1.389 . S
C2476 H2449 0.950 . S
C2476 C2462 1.377 . S
C2476 C2475 1.373 . S
C2477 C2461 1.377 . S
C2477 C2475 1.389 . S
C2477 C2478 1.524 . S
C2478 C2477 1.524 . S
C2478 C2479 1.397 1_455 S
C2478 C2483 1.363 . S
C2479 H2450 0.950 . S
C2479 C2478 1.397 1_655 S
C2479 C2480 1.334 . S
C2480 H2451 0.950 . S
C2480 C2479 1.334 . S
C2480 C2481 1.287 . S
C2481 C2480 1.287 . S
C2481 C2482 1.524 . S
C2481 H2484 0.999 . S
C2482 H2452 0.950 . S
C2482 C2481 1.524 . S
C2482 C2483 1.415 1_655 S
C2483 H2453 0.950 . S
C2483 C2478 1.363 . S
C2483 C2482 1.415 1_455 S
H2484 C2481 0.999 . S
H2485 C2466 0.913 . S
H2486 C2504 0.951 . S
H2487 C2506 0.951 . S
H2488 C2508 0.950 . S
H2489 C2509 0.950 . S
H2490 C2511 0.950 . S
H2491 C2514 0.950 . S
H2492 C2515 0.950 . S
H2493 C2517 0.950 . S
H2494 C2518 0.950 . S
H2495 C2519 0.951 . S
H2496 C2521 0.951 . S
H2497 C2523 0.950 . S
H2498 C2524 0.950 . S
H2499 C2526 0.950 . S
H2500 C2529 0.950 . S
H2501 C2530 0.950 . S
H2502 C2532 0.950 . S
H2503 C2533 0.950 . S
C2504 H2486 0.951 . S
C2504 C2505 1.366 . S
C2504 C2506 1.388 . S
C2505 C2504 1.366 . S
C2505 C2509 1.385 . S
C2506 H2487 0.951 . S
C2506 C2504 1.388 . S
C2506 C2507 1.366 . S
C2507 C2506 1.366 . S
C2507 C2508 1.414 . S
C2507 C2510 1.499 . S
C2508 H2488 0.950 . S
C2508 C2507 1.414 . S
C2508 C2509 1.374 . S
C2509 H2489 0.950 . S
C2509 C2505 1.385 . S
C2509 C2508 1.374 . S
C2510 C2507 1.499 . S
C2510 C2511 1.373 . S
C2510 C2512 1.389 . S
C2511 H2490 0.950 . S
C2511 C2510 1.373 . S
C2511 C2527 1.377 . S
C2512 C2510 1.389 . S
C2512 C2513 1.524 . S
C2512 C2526 1.377 . S
C2513 C2512 1.524 . S
C2513 C2514 1.397 . S
C2513 C2518 1.363 . S
C2514 H2491 0.950 . S
C2514 C2513 1.397 . S
C2514 C2515 1.334 . S
C2515 H2492 0.950 . S
C2515 C2514 1.334 . S
C2515 C2516 1.287 . S
C2516 C2515 1.287 . S
C2516 C2517 1.524 . S
C2516 H2535 0.913 . S
C2517 H2493 0.950 . S
C2517 C2516 1.524 . S
C2517 C2518 1.415 . S
C2518 H2494 0.950 . S
C2518 C2513 1.363 . S
C2518 C2517 1.415 . S
C2519 H2495 0.951 . S
C2519 C2520 1.366 . S
C2519 C2521 1.388 . S
C2520 C2519 1.366 . S
C2520 C2524 1.385 . S
C2521 H2496 0.951 . S
C2521 C2519 1.388 . S
C2521 C2522 1.366 . S
C2522 C2521 1.366 . S
C2522 C2523 1.414 . S
C2522 C2525 1.499 . S
C2523 H2497 0.950 . S
C2523 C2522 1.414 . S
C2523 C2524 1.374 . S
C2524 H2498 0.950 . S
C2524 C2520 1.385 . S
C2524 C2523 1.374 . S
C2525 C2522 1.499 . S
C2525 C2526 1.373 . S
C2525 C2527 1.389 . S
C2526 H2499 0.950 . S
C2526 C2512 1.377 . S
C2526 C2525 1.373 . S
C2527 C2511 1.377 . S
C2527 C2525 1.389 . S
C2527 C2528 1.524 . S
C2528 C2527 1.524 . S
C2528 C2529 1.397 . S
C2528 C2533 1.363 . S
C2529 H2500 0.950 . S
C2529 C2528 1.397 . S
C2529 C2530 1.334 . S
C2530 H2501 0.950 . S
C2530 C2529 1.334 . S
C2530 C2531 1.287 . S
C2531 C2530 1.287 . S
C2531 C2532 1.524 . S
C2531 H2534 0.999 . S
C2532 H2502 0.950 . S
C2532 C2531 1.524 . S
C2532 C2533 1.415 . S
C2533 H2503 0.950 . S
C2533 C2528 1.363 . S
C2533 C2532 1.415 . S
H2534 C2531 0.999 . S
H2535 C2516 0.913 . S
H2536 C2554 0.951 . S
H2537 C2556 0.951 . S
H2538 C2558 0.950 . S
H2539 C2559 0.950 . S
H2540 C2561 0.950 . S
H2541 C2564 0.950 . S
H2542 C2565 0.950 . S
H2543 C2567 0.950 . S
H2544 C2568 0.950 . S
H2545 C2569 0.951 . S
H2546 C2571 0.951 . S
H2547 C2573 0.950 . S
H2548 C2574 0.950 . S
H2549 C2576 0.950 . S
H2550 C2579 0.950 . S
H2551 C2580 0.950 . S
H2552 C2582 0.950 . S
H2553 C2583 0.950 . S
C2554 H2536 0.951 . S
C2554 C2555 1.366 . S
C2554 C2556 1.388 . S
C2555 C2554 1.366 . S
C2555 C2559 1.385 . S
C2556 H2537 0.951 . S
C2556 C2554 1.388 . S
C2556 C2557 1.366 . S
C2557 C2556 1.366 . S
C2557 C2558 1.414 . S
C2557 C2560 1.499 . S
C2558 H2538 0.950 . S
C2558 C2557 1.414 . S
C2558 C2559 1.374 . S
C2559 H2539 0.950 . S
C2559 C2555 1.385 . S
C2559 C2558 1.374 . S
C2560 C2557 1.499 . S
C2560 C2561 1.373 . S
C2560 C2562 1.389 . S
C2561 H2540 0.950 . S
C2561 C2560 1.373 . S
C2561 C2577 1.377 . S
C2562 C2560 1.389 . S
C2562 C2563 1.524 . S
C2562 C2576 1.377 . S
C2563 C2562 1.524 . S
C2563 C2564 1.397 . S
C2563 C2568 1.363 . S
C2564 H2541 0.950 . S
C2564 C2563 1.397 . S
C2564 C2565 1.334 . S
C2565 H2542 0.950 . S
C2565 C2564 1.334 . S
C2565 C2566 1.287 . S
C2566 C2565 1.287 . S
C2566 C2567 1.524 . S
C2566 H2585 0.913 . S
C2567 H2543 0.950 . S
C2567 C2566 1.524 . S
C2567 C2568 1.415 . S
C2568 H2544 0.950 . S
C2568 C2563 1.363 . S
C2568 C2567 1.415 . S
C2569 H2545 0.951 . S
C2569 C2570 1.366 . S
C2569 C2571 1.388 . S
C2570 C2569 1.366 . S
C2570 C2574 1.385 . S
C2571 H2546 0.951 . S
C2571 C2569 1.388 . S
C2571 C2572 1.366 . S
C2572 C2571 1.366 . S
C2572 C2573 1.414 . S
C2572 C2575 1.499 . S
C2573 H2547 0.950 . S
C2573 C2572 1.414 . S
C2573 C2574 1.374 . S
C2574 H2548 0.950 . S
C2574 C2570 1.385 . S
C2574 C2573 1.374 . S
C2575 C2572 1.499 . S
C2575 C2576 1.373 . S
C2575 C2577 1.389 . S
C2576 H2549 0.950 . S
C2576 C2562 1.377 . S
C2576 C2575 1.373 . S
C2577 C2561 1.377 . S
C2577 C2575 1.389 . S
C2577 C2578 1.524 . S
C2578 C2577 1.524 . S
C2578 C2579 1.397 . S
C2578 C2583 1.363 . S
C2579 H2550 0.950 . S
C2579 C2578 1.397 . S
C2579 C2580 1.334 . S
C2580 H2551 0.950 . S
C2580 C2579 1.334 . S
C2580 C2581 1.287 . S
C2581 C2580 1.287 . S
C2581 C2582 1.524 . S
C2581 H2584 0.999 . S
C2582 H2552 0.950 . S
C2582 C2581 1.524 . S
C2582 C2583 1.415 . S
C2583 H2553 0.950 . S
C2583 C2578 1.363 . S
C2583 C2582 1.415 . S
H2584 C2581 0.999 . S
H2585 C2566 0.913 . S
H2586 C2604 0.951 . S
H2587 C2606 0.951 . S
H2588 C2608 0.950 . S
H2589 C2609 0.950 . S
H2590 C2611 0.950 . S
H2591 C2614 0.950 . S
H2592 C2615 0.950 . S
H2593 C2617 0.950 . S
H2594 C2618 0.950 . S
H2595 C2619 0.951 . S
H2596 C2621 0.951 . S
H2597 C2623 0.950 . S
H2598 C2624 0.950 . S
H2599 C2626 0.950 . S
H2600 C2629 0.950 . S
H2601 C2630 0.950 . S
H2602 C2632 0.950 . S
H2603 C2633 0.950 . S
C2604 H2586 0.951 . S
C2604 C2605 1.366 . S
C2604 C2606 1.388 . S
C2605 C2604 1.366 . S
C2605 C2609 1.385 . S
C2606 H2587 0.951 . S
C2606 C2604 1.388 . S
C2606 C2607 1.366 . S
C2607 C2606 1.366 . S
C2607 C2608 1.414 . S
C2607 C2610 1.499 . S
C2608 H2588 0.950 . S
C2608 C2607 1.414 . S
C2608 C2609 1.374 . S
C2609 H2589 0.950 . S
C2609 C2605 1.385 . S
C2609 C2608 1.374 . S
C2610 C2607 1.499 . S
C2610 C2611 1.373 . S
C2610 C2612 1.389 . S
C2611 H2590 0.950 . S
C2611 C2610 1.373 . S
C2611 C2627 1.377 . S
C2612 C2610 1.389 . S
C2612 C2613 1.524 . S
C2612 C2626 1.377 . S
C2613 C2612 1.524 . S
C2613 C2614 1.397 . S
C2613 C2618 1.363 . S
C2614 H2591 0.950 . S
C2614 C2613 1.397 . S
C2614 C2615 1.334 . S
C2615 H2592 0.950 . S
C2615 C2614 1.334 . S
C2615 C2616 1.287 . S
C2616 C2615 1.287 . S
C2616 C2617 1.524 . S
C2616 H2635 0.913 . S
C2617 H2593 0.950 . S
C2617 C2616 1.524 . S
C2617 C2618 1.415 . S
C2618 H2594 0.950 . S
C2618 C2613 1.363 . S
C2618 C2617 1.415 . S
C2619 H2595 0.951 . S
C2619 C2620 1.366 . S
C2619 C2621 1.388 . S
C2620 C2619 1.366 . S
C2620 C2624 1.385 . S
C2621 H2596 0.951 . S
C2621 C2619 1.388 . S
C2621 C2622 1.366 . S
C2622 C2621 1.366 . S
C2622 C2623 1.414 . S
C2622 C2625 1.499 1_545 S
C2623 H2597 0.950 . S
C2623 C2622 1.414 . S
C2623 C2624 1.374 . S
C2624 H2598 0.950 . S
C2624 C2620 1.385 . S
C2624 C2623 1.374 . S
C2625 C2622 1.499 1_565 S
C2625 C2626 1.373 . S
C2625 C2627 1.389 . S
C2626 H2599 0.950 . S
C2626 C2612 1.377 . S
C2626 C2625 1.373 . S
C2627 C2611 1.377 . S
C2627 C2625 1.389 . S
C2627 C2628 1.524 . S
C2628 C2627 1.524 . S
C2628 C2629 1.397 1_565 S
C2628 C2633 1.363 . S
C2629 H2600 0.950 . S
C2629 C2628 1.397 1_545 S
C2629 C2630 1.334 . S
C2630 H2601 0.950 . S
C2630 C2629 1.334 . S
C2630 C2631 1.287 . S
C2631 C2630 1.287 . S
C2631 C2632 1.524 . S
C2631 H2634 0.999 . S
C2632 H2602 0.950 . S
C2632 C2631 1.524 . S
C2632 C2633 1.415 1_545 S
C2633 H2603 0.950 . S
C2633 C2628 1.363 . S
C2633 C2632 1.415 1_565 S
H2634 C2631 0.999 . S
H2635 C2616 0.913 . S
H2636 C2654 0.951 . S
H2637 C2656 0.951 . S
H2638 C2658 0.950 . S
H2639 C2659 0.950 . S
H2640 C2661 0.950 . S
H2641 C2664 0.950 . S
H2642 C2665 0.950 . S
H2643 C2667 0.950 . S
H2644 C2668 0.950 . S
H2645 C2669 0.951 . S
H2646 C2671 0.951 . S
H2647 C2673 0.950 . S
H2648 C2674 0.950 . S
H2649 C2676 0.950 . S
H2650 C2679 0.950 . S
H2651 C2680 0.950 . S
H2652 C2682 0.950 . S
H2653 C2683 0.950 . S
C2654 H2636 0.951 . S
C2654 C2655 1.366 . S
C2654 C2656 1.388 . S
C2655 C2654 1.366 . S
C2655 C2659 1.385 . S
C2656 H2637 0.951 . S
C2656 C2654 1.388 . S
C2656 C2657 1.366 . S
C2657 C2656 1.366 . S
C2657 C2658 1.414 . S
C2657 C2660 1.499 1_565 S
C2658 H2638 0.950 . S
C2658 C2657 1.414 . S
C2658 C2659 1.374 . S
C2659 H2639 0.950 . S
C2659 C2655 1.385 . S
C2659 C2658 1.374 . S
C2660 C2657 1.499 1_545 S
C2660 C2661 1.373 . S
C2660 C2662 1.389 . S
C2661 H2640 0.950 . S
C2661 C2660 1.373 . S
C2661 C2677 1.377 . S
C2662 C2660 1.389 . S
C2662 C2663 1.524 . S
C2662 C2676 1.377 . S
C2663 C2662 1.524 . S
C2663 C2664 1.397 1_545 S
C2663 C2668 1.363 . S
C2664 H2641 0.950 . S
C2664 C2663 1.397 1_565 S
C2664 C2665 1.334 . S
C2665 H2642 0.950 . S
C2665 C2664 1.334 . S
C2665 C2666 1.287 . S
C2666 C2665 1.287 . S
C2666 C2667 1.524 . S
C2666 H2685 0.913 . S
C2667 H2643 0.950 . S
C2667 C2666 1.524 . S
C2667 C2668 1.415 1_565 S
C2668 H2644 0.950 . S
C2668 C2663 1.363 . S
C2668 C2667 1.415 1_545 S
C2669 H2645 0.951 . S
C2669 C2670 1.366 . S
C2669 C2671 1.388 . S
C2670 C2669 1.366 . S
C2670 C2674 1.385 . S
C2671 H2646 0.951 . S
C2671 C2669 1.388 . S
C2671 C2672 1.366 . S
C2672 C2671 1.366 . S
C2672 C2673 1.414 . S
C2672 C2675 1.499 . S
C2673 H2647 0.950 . S
C2673 C2672 1.414 . S
C2673 C2674 1.374 . S
C2674 H2648 0.950 . S
C2674 C2670 1.385 . S
C2674 C2673 1.374 . S
C2675 C2672 1.499 . S
C2675 C2676 1.373 . S
C2675 C2677 1.389 . S
C2676 H2649 0.950 . S
C2676 C2662 1.377 . S
C2676 C2675 1.373 . S
C2677 C2661 1.377 . S
C2677 C2675 1.389 . S
C2677 C2678 1.524 . S
C2678 C2677 1.524 . S
C2678 C2679 1.397 . S
C2678 C2683 1.363 . S
C2679 H2650 0.950 . S
C2679 C2678 1.397 . S
C2679 C2680 1.334 . S
C2680 H2651 0.950 . S
C2680 C2679 1.334 . S
C2680 C2681 1.287 . S
C2681 C2680 1.287 . S
C2681 C2682 1.524 . S
C2681 H2684 0.999 . S
C2682 H2652 0.950 . S
C2682 C2681 1.524 . S
C2682 C2683 1.415 . S
C2683 H2653 0.950 . S
C2683 C2678 1.363 . S
C2683 C2682 1.415 . S
H2684 C2681 0.999 . S
H2685 C2666 0.913 . S
H2686 C2704 0.951 . S
H2687 C2706 0.951 . S
H2688 C2708 0.950 . S
H2689 C2709 0.950 . S
H2690 C2711 0.950 . S
H2691 C2714 0.950 . S
H2692 C2715 0.950 . S
H2693 C2717 0.950 . S
H2694 C2718 0.950 . S
H2695 C2719 0.951 . S
H2696 C2721 0.951 . S
H2697 C2723 0.950 . S
H2698 C2724 0.950 . S
H2699 C2726 0.950 . S
H2700 C2729 0.950 . S
H2701 C2730 0.950 . S
H2702 C2732 0.950 . S
H2703 C2733 0.950 . S
C2704 H2686 0.951 . S
C2704 C2705 1.366 . S
C2704 C2706 1.388 . S
C2705 C2704 1.366 . S
C2705 C2709 1.385 . S
C2706 H2687 0.951 . S
C2706 C2704 1.388 . S
C2706 C2707 1.366 . S
C2707 C2706 1.366 . S
C2707 C2708 1.414 . S
C2707 C2710 1.499 . S
C2708 H2688 0.950 . S
C2708 C2707 1.414 . S
C2708 C2709 1.374 . S
C2709 H2689 0.950 . S
C2709 C2705 1.385 . S
C2709 C2708 1.374 . S
C2710 C2707 1.499 . S
C2710 C2711 1.373 . S
C2710 C2712 1.389 . S
C2711 H2690 0.950 . S
C2711 C2710 1.373 . S
C2711 C2727 1.377 . S
C2712 C2710 1.389 . S
C2712 C2713 1.524 . S
C2712 C2726 1.377 . S
C2713 C2712 1.524 . S
C2713 C2714 1.397 . S
C2713 C2718 1.363 . S
C2714 H2691 0.950 . S
C2714 C2713 1.397 . S
C2714 C2715 1.334 . S
C2715 H2692 0.950 . S
C2715 C2714 1.334 . S
C2715 C2716 1.287 . S
C2716 C2715 1.287 . S
C2716 C2717 1.524 . S
C2716 H2735 0.913 . S
C2717 H2693 0.950 . S
C2717 C2716 1.524 . S
C2717 C2718 1.415 . S
C2718 H2694 0.950 . S
C2718 C2713 1.363 . S
C2718 C2717 1.415 . S
C2719 H2695 0.951 . S
C2719 C2720 1.366 . S
C2719 C2721 1.388 . S
C2720 C2719 1.366 . S
C2720 C2724 1.385 . S
C2721 H2696 0.951 . S
C2721 C2719 1.388 . S
C2721 C2722 1.366 . S
C2722 C2721 1.366 . S
C2722 C2723 1.414 . S
C2722 C2725 1.499 . S
C2723 H2697 0.950 . S
C2723 C2722 1.414 . S
C2723 C2724 1.374 . S
C2724 H2698 0.950 . S
C2724 C2720 1.385 . S
C2724 C2723 1.374 . S
C2725 C2722 1.499 . S
C2725 C2726 1.373 . S
C2725 C2727 1.389 . S
C2726 H2699 0.950 . S
C2726 C2712 1.377 . S
C2726 C2725 1.373 . S
C2727 C2711 1.377 . S
C2727 C2725 1.389 . S
C2727 C2728 1.524 . S
C2728 C2727 1.524 . S
C2728 C2729 1.397 . S
C2728 C2733 1.363 . S
C2729 H2700 0.950 . S
C2729 C2728 1.397 . S
C2729 C2730 1.334 . S
C2730 H2701 0.950 . S
C2730 C2729 1.334 . S
C2730 C2731 1.287 . S
C2731 C2730 1.287 . S
C2731 C2732 1.524 . S
C2731 H2734 0.999 . S
C2732 H2702 0.950 . S
C2732 C2731 1.524 . S
C2732 C2733 1.415 . S
C2733 H2703 0.950 . S
C2733 C2728 1.363 . S
C2733 C2732 1.415 . S
H2734 C2731 0.999 . S
H2735 C2716 0.913 . S
C355 C117 0.850 . S
C370 C0 0.847 . S
C405 C14 0.845 . S
C420 C159 0.851 . S
C455 C28 0.847 . S
C470 C131 0.850 . S
C505 C42 0.845 . S
C520 C145 0.852 . S
C555 C56 0.902 . S
C570 C5 0.910 . S
C605 C19 0.911 . S
C620 C70 0.901 . S
C655 C84 0.900 . S
C670 C33 0.911 . S
C705 C47 0.910 . S
C720 C98 0.902 . S
C755 C61 0.875 . S
C770 C112 0.868 . S
C805 C89 0.875 . S
C820 C126 0.868 . S
C855 C140 0.869 . S
C870 C103 0.874 . S
C905 C75 0.874 . S
C920 C154 0.869 . S
C955 C285 0.883 . S
C970 C173 0.879 . S
C1005 C187 0.879 . S
C1020 C327 0.882 . S
C1055 C201 0.880 . S
C1070 C299 0.882 . S
C1105 C313 0.882 . S
C1120 C215 0.880 . S
C1155 C224 0.829 . S
C1170 C168 0.831 . S
C1205 C182 0.832 . S
C1220 C238 0.828 . S
C1255 C196 0.831 . S
C1270 C252 0.830 . S
C1305 C266 0.828 . S
C1320 C210 0.832 . S
C1355 C280 0.859 . S
C1370 C229 0.865 . S
C1405 C257 0.865 . S
C1420 C294 0.859 . S
C1455 C271 0.866 . S
C1470 C308 0.858 . S
C1505 C322 0.859 . S
C1520 C243 0.865 . S
C1555 C319 1.377 . S
C1570 C9 1.371 . S
C1605 C305 1.377 . S
C1620 C23 1.372 . S
C1655 C333 1.377 . S
C1670 C37 1.372 . S
C1705 C51 1.371 . S
C1720 C291 1.377 . S
C1755 C65 1.401 . S
C1770 C191 1.410 . S
C1805 C177 1.410 . S
C1820 C79 1.401 . S
C1855 C219 1.410 . S
C1870 C93 1.401 . S
C1905 C205 1.410 . S
C1920 C107 1.401 . S
C1955 C121 1.337 . S
C1970 C263 1.341 . S
C2005 C235 1.341 . S
C2020 C135 1.337 . S
C2055 C249 1.341 . S
C2070 C149 1.337 . S
C2105 C277 1.341 . S
C2120 C163 1.337 . S
C2155 C151 1.383 . S
C2170 C179 1.386 . S
C2205 C137 1.383 . S
C2220 C193 1.386 . S
C2255 C207 1.386 . S
C2270 C165 1.383 . S
C2305 C123 1.383 . S
C2320 C221 1.386 . S
C2355 C233 1.355 . S
C2370 C25 1.359 . S
C2405 C247 1.355 . S
C2420 C11 1.359 . S
C2455 C261 1.355 . S
C2470 C53 1.359 . S
C2505 C275 1.355 . S
C2520 C39 1.358 . S
C2555 C289 1.430 . S
C2570 C95 1.433 . S
C2605 C303 1.430 . S
C2620 C67 1.433 . S
C2655 C81 1.433 . S
C2670 C317 1.430 . S
C2705 C331 1.430 . S
C2720 C109 1.433 . S
