# Generated by pormake.
# Topology sxb, (6)-cn, num edge types: 1
# Building blocks:
#     Node 0, Type 0, BuildingBlock: MIDCAF_clean_sbu_0, # of connection points: 6
#     Node 1, Type 0, BuildingBlock: MIDCAF_clean_sbu_0, # of connection points: 6
#     Node 2, Type 0, BuildingBlock: MIDCAF_clean_sbu_0, # of connection points: 6
#     Node 3, Type 0, BuildingBlock: MIDCAF_clean_sbu_0, # of connection points: 6
#     Edge 4, Type (0, 0), BuildingBlock: EZIPEK_clean_linker_0, # of connection points: 2
#     Edge 5, Type (0, 0), BuildingBlock: EZIPEK_clean_linker_0, # of connection points: 2
#     Edge 6, Type (0, 0), BuildingBlock: EZIPEK_clean_linker_0, # of connection points: 2
#     Edge 7, Type (0, 0), BuildingBlock: EZIPEK_clean_linker_0, # of connection points: 2
#     Edge 8, Type (0, 0), BuildingBlock: EZIPEK_clean_linker_0, # of connection points: 2
#     Edge 9, Type (0, 0), BuildingBlock: EZIPEK_clean_linker_0, # of connection points: 2
#     Edge 10, Type (0, 0), BuildingBlock: EZIPEK_clean_linker_0, # of connection points: 2
#     Edge 11, Type (0, 0), BuildingBlock: EZIPEK_clean_linker_0, # of connection points: 2
#     Edge 12, Type (0, 0), BuildingBlock: EZIPEK_clean_linker_0, # of connection points: 2
#     Edge 13, Type (0, 0), BuildingBlock: EZIPEK_clean_linker_0, # of connection points: 2
#     Edge 14, Type (0, 0), BuildingBlock: EZIPEK_clean_linker_0, # of connection points: 2
#     Edge 15, Type (0, 0), BuildingBlock: EZIPEK_clean_linker_0, # of connection points: 2
# Relax obj value: 0.308
# Max RMSD: 0.251
# Mean RMSD: 0.251
data_MOF--net-sxb--node1-MIDCAF_clean_sbu_0--edge1-EZIPEK_clean_linker_0
_symmetry_space_group_name_H-M    P1
_symmetry_Int_Tables_number       1
_symmetry_cell_setting            triclinic
loop_
_symmetry_equiv_pos_as_xyz
'x, y, z'
_cell_length_a     10.502544
_cell_length_b     19.762081
_cell_length_c     22.408347
_cell_angle_alpha  93.794703
_cell_angle_beta   89.507374
_cell_angle_gamma 89.269048
loop_
_atom_site_label
_atom_site_type_symbol
_atom_site_fract_x
_atom_site_fract_y
_atom_site_fract_z
_atom_type_partial_charge
Zn0 Zn 0.05761 0.30604 0.01908 0.0
Zn1 Zn 0.76589 0.09123 0.90496 0.0
Zn2 Zn 0.93205 0.20252 0.96706 0.0
C3 C 0.91377 0.04416 1.00595 0.0
C4 C -0.00805 0.13088 0.83479 0.0
O5 O 0.80951 0.2926 1.00101 0.0
O6 O 0.93033 0.38115 0.02299 0.0
C7 C 0.0243 0.1962 0.09667 0.0
O8 O 0.95385 0.10582 0.0128 0.0
O9 O 0.83064 0.02809 0.96704 0.0
O10 O 0.89548 0.09257 0.83705 0.0
O11 O 0.01924 0.17389 0.87875 0.0
O12 O 0.06478 0.2559 0.09385 0.0
O13 O -0.02463 0.164 0.05108 0.0
O14 O 0.09976 0.21979 0.91378 0.0
O15 O 0.20479 0.30175 0.96319 0.0
C16 C 0.19777 0.25761 0.92005 0.0
O17 O 0.74948 0.20122 0.92064 0.0
O18 O 0.7471 0.19948 0.91974 0.0
C19 C 0.82109 0.35531 0.0195 0.0
C20 C 0.69105 0.24575 0.89238 0.0
Zn21 Zn 0.16023 0.02803 0.42469 0.0
Zn22 Zn 0.8728 0.15061 0.53793 0.0
Zn23 Zn 0.02332 0.10804 0.46984 0.0
C24 C 0.04908 0.25185 0.52642 0.0
C25 C 0.07849 0.10883 0.5991 0.0
O26 O 0.95025 1.01275 0.49404 0.0
O27 O 0.0607 0.94472 0.43071 0.0
C28 C 0.06044 0.11097 0.33597 0.0
O29 O 0.11323 0.19637 0.51468 0.0
O30 O 0.92964 0.24903 0.53283 0.0
O31 O 0.96134 0.09409 0.598 0.0
O32 O 0.12773 0.1342 0.55297 0.0
O33 O 0.15433 0.07306 0.34597 0.0
O34 O -0.0145 0.1295 0.37925 0.0
O35 O 0.21603 0.14163 0.46756 0.0
O36 O 0.31611 0.04464 0.47405 0.0
C37 C 0.32004 0.10742 0.46685 0.0
O38 O 0.88217 0.15624 0.42032 0.0
O39 O 0.73467 0.12371 0.48223 0.0
C40 C 0.97196 0.95394 0.46869 0.0
C41 C 0.76528 0.14984 0.43403 0.0
Zn42 Zn 0.49781 0.81582 0.12183 0.0
Zn43 Zn 0.34761 0.60214 0.00946 0.0
Zn44 Zn 0.45336 0.7014 0.05616 0.0
C45 C 0.42557 0.54611 0.09706 0.0
C46 C 0.56586 0.6219 0.94197 0.0
O47 O 0.29415 0.78235 0.06335 0.0
O48 O 0.34246 0.87269 0.1218 0.0
C49 C 0.53069 0.69964 0.19242 0.0
O50 O 0.48707 0.60236 0.09825 0.0
O51 O 0.31269 0.54692 0.07874 0.0
O52 O 0.50183 0.57401 0.96076 0.0
O53 O 0.56177 0.68043 0.97107 0.0
O54 O 0.53405 0.76373 0.19438 0.0
O55 O 0.50288 0.66536 0.14359 0.0
O56 O 0.61505 0.7382 0.01425 0.0
O57 O 0.63755 0.83757 0.06446 0.0
C58 C 0.67758 0.79255 0.02586 0.0
O59 O 0.26412 0.7238 0.02849 0.0
O60 O 0.19998 0.63989 0.96655 0.0
C61 C 0.265 0.84218 0.0873 0.0
C62 C 0.18285 0.69854 0.99099 0.0
Zn63 Zn 0.63657 0.47934 0.49903 0.0
Zn64 Zn 0.51447 0.71025 0.63546 0.0
Zn65 Zn 0.57197 0.59518 0.56438 0.0
C66 C 0.63635 0.74637 0.53118 0.0
C67 C 0.67357 0.62917 0.70067 0.0
O68 O 0.40342 0.53022 0.55435 0.0
O69 O 0.49458 0.42982 0.53232 0.0
C70 C 0.60841 0.59071 0.42352 0.0
O71 O 0.63207 0.68237 0.51624 0.0
O72 O 0.58798 0.77099 0.57965 0.0
O73 O 0.61668 0.68592 0.7043 0.0
O74 O 0.67206 0.5915 0.6514 0.0
O75 O 0.608 0.52662 0.42287 0.0
O76 O 0.61261 0.6268 0.47359 0.0
O77 O 0.72655 0.54821 0.60558 0.0
O78 O 0.80798 0.47733 0.53422 0.0
C79 C 0.82076 0.51424 0.5819 0.0
O80 O 0.37964 0.59383 0.58984 0.0
O81 O 0.33032 0.69202 0.63932 0.0
C82 C 0.39684 0.46527 0.54641 0.0
C83 C 0.30003 0.63365 0.61846 0.0
C84 C 0.0512 0.903 0.09815 0.0
C85 C 0.16016 0.88338 0.06277 0.0
C86 C 0.10466 0.96784 0.99155 0.0
C87 C -0.00411 0.9882 0.02684 0.0
N88 N 0.85305 0.96898 0.10809 0.0
N89 N 0.27691 0.887 0.96982 0.0
C90 C 0.96485 0.95354 0.0784 0.0
C91 C 0.18176 0.91234 0.0074 0.0
N92 N 0.03229 0.87399 0.15112 0.0
N93 N 0.13757 1.00369 0.94379 0.0
H94 H 0.34101 0.84921 0.98063 0.0
H95 H 0.28656 0.89902 0.92551 0.0
H96 H 0.08366 0.04418 0.92984 0.0
H97 H 0.22242 0.99657 0.91985 0.0
H98 H 0.96229 0.88968 0.18231 0.0
H99 H 0.09052 0.83481 0.16477 0.0
H100 H 0.8181 0.94217 0.14299 0.0
H101 H 0.79106 1.007 0.09533 0.0
C102 C 0.49682 0.44439 0.03012 0.0
C103 C 0.50277 0.48153 0.08677 0.0
C104 C 0.70508 0.42188 0.10479 0.0
C105 C 0.70955 0.39677 0.04352 0.0
N106 N 0.62247 0.402 0.94509 0.0
N107 N 0.60588 0.49952 0.18125 0.0
C108 C 0.60866 0.41248 1.00551 0.0
C109 C 0.60516 0.46805 0.1252 0.0
N110 N 0.38511 0.43776 0.99969 0.0
N111 N 0.79579 0.40143 0.14334 0.0
H112 H 0.52803 0.52818 0.19831 0.0
H113 H 0.68251 0.49801 0.21025 0.0
H114 H 0.87192 0.36959 0.12978 0.0
H115 H 0.79201 0.41229 0.18939 0.0
H116 H 0.37827 0.40867 0.95933 0.0
H117 H 0.29676 0.45109 0.01854 0.0
H118 H 0.55736 0.42158 0.91565 0.0
H119 H 0.70604 0.38227 0.92494 0.0
C120 C 0.17224 0.34186 0.47939 0.0
C121 C 0.11419 0.31776 0.53115 0.0
C122 C 0.21463 0.40776 0.59377 0.0
C123 C 0.27433 0.43033 0.54209 0.0
N124 N 0.27739 0.43529 0.43535 0.0
N125 N 0.0473 0.3404 0.63408 0.0
C126 C 0.24061 0.40311 0.48466 0.0
C127 C 0.12326 0.35539 0.58717 0.0
N128 N 0.16712 0.30484 0.4258 0.0
N129 N 0.25163 0.43295 0.64902 0.0
H130 H -0.01668 0.30046 0.63182 0.0
H131 H 0.04202 0.37054 0.67394 0.0
H132 H 0.31649 0.47237 0.65471 0.0
H133 H 0.2226 0.41283 0.68867 0.0
H134 H 0.22017 0.31605 0.38831 0.0
H135 H 0.11711 0.25981 0.41998 0.0
H136 H 0.24742 0.42096 0.39221 0.0
H137 H 0.32744 0.48071 0.43875 0.0
C138 C 0.76744 0.89266 0.45325 0.0
C139 C 0.88947 0.89681 0.48018 0.0
C140 C 0.8534 0.79238 0.52955 0.0
C141 C 0.73064 0.78865 0.50343 0.0
N142 N 0.57772 0.82544 0.43326 0.0
N143 N 0.06049 0.84485 0.53289 0.0
C144 C 0.69006 0.83573 0.46264 0.0
C145 C 0.93655 0.8445 0.5145 0.0
N146 N 0.72552 0.94361 0.41955 0.0
N147 N 0.88694 0.74879 0.57196 0.0
H148 H 0.1226 0.88434 0.52575 0.0
H149 H 0.10462 0.80399 0.55174 0.0
H150 H 0.83068 0.70829 0.5831 0.0
H151 H 0.96717 0.75467 0.59866 0.0
H152 H 0.63352 0.94713 0.40321 0.0
H153 H 0.78164 0.9847 0.40976 0.0
H154 H 0.54515 0.85474 0.39951 0.0
H155 H 0.5208 0.78363 0.43991 0.0
C156 C 0.37139 0.29571 0.85383 0.0
C157 C 0.31273 0.24264 0.88341 0.0
C158 C 0.50359 0.1735 0.86566 0.0
C159 C 0.57143 0.23302 0.85893 0.0
N160 N 0.57105 0.34041 0.81648 0.0
N161 N 0.32719 0.12823 0.91726 0.0
C162 C 0.5047 0.29062 0.84171 0.0
C163 C 0.37789 0.17957 0.8874 0.0
N164 N 0.30091 0.35124 0.84073 0.0
N165 N 0.55755 0.11234 0.84884 0.0
H166 H 0.23829 0.13126 0.93806 0.0
H167 H 0.3801 0.08499 0.92591 0.0
H168 H 0.64482 0.10979 0.82609 0.0
H169 H 0.50837 0.0669 0.84996 0.0
H170 H 0.33742 0.39278 0.82049 0.0
H171 H 0.20292 0.35436 0.84893 0.0
H172 H 0.5308 0.38533 0.80344 0.0
H173 H 0.66863 0.33482 0.80759 0.0
C174 C 0.49061 0.09656 0.38621 0.0
C175 C 0.43161 0.13468 0.43644 0.0
C176 C 0.58862 0.22276 0.42608 0.0
C177 C 0.66553 0.17346 0.3958 0.0
N178 N 0.67244 0.08855 0.31665 0.0
N179 N 0.42196 0.23911 0.50038 0.0
C180 C 0.60764 0.11987 0.3639 0.0
C181 C 0.47654 0.20086 0.45388 0.0
N182 N 0.43907 0.03814 0.36153 0.0
N183 N 0.63324 0.28695 0.43464 0.0
H184 H 0.34696 0.22214 0.52562 0.0
H185 H 0.45808 0.28529 0.51716 0.0
H186 H 0.72163 0.29956 0.41695 0.0
H187 H 0.57931 0.32717 0.45431 0.0
H188 H 0.4831 1.00687 0.32817 0.0
H189 H 0.35189 0.01932 0.37387 0.0
H190 H 0.63747 0.049 0.28883 0.0
H191 H 0.76132 0.10624 0.30394 0.0
C192 C 0.87916 0.75414 0.06505 0.0
C193 C 0.81519 0.78567 0.01869 0.0
C194 C 0.00261 0.76871 0.95418 0.0
C195 C 0.05434 0.72636 0.99673 0.0
N196 N 0.03268 0.66914 0.08844 0.0
N197 N 0.81137 0.82366 0.91904 0.0
C198 C -0.0099 0.71642 0.05098 0.0
C199 C 0.876 0.79395 0.96317 0.0
N200 N 0.83469 0.75998 0.12273 0.0
N201 N 0.07349 0.7839 0.90564 0.0
H202 H 0.7203 0.84465 0.92609 0.0
H203 H 0.84564 0.82493 0.87539 0.0
H204 H 0.16484 0.76379 0.89743 0.0
H205 H 0.04495 0.81934 0.87589 0.0
H206 H 0.88814 0.74475 0.15858 0.0
H207 H 0.75303 0.78701 0.13653 0.0
H208 H -0.01979 0.65488 0.12513 0.0
H209 H 0.11395 0.63911 0.07989 0.0
C210 C 0.10924 0.61905 0.55887 0.0
C211 C 0.16762 0.61525 0.61491 0.0
C212 C 0.00067 0.54276 0.64977 0.0
C213 C 0.94426 0.54472 0.59273 0.0
N214 N 0.92228 0.60078 0.49976 0.0
N215 N 0.16539 0.58606 0.71728 0.0
C216 C -0.00771 0.58711 0.54894 0.0
C217 C 0.11143 0.58139 0.66188 0.0
N218 N 0.1676 0.65227 0.51463 0.0
N219 N 0.94935 0.50305 0.69129 0.0
H220 H 0.2469 0.61443 0.72648 0.0
H221 H 0.12633 0.56589 0.7549 0.0
H222 H 0.86829 0.47403 0.68302 0.0
H223 H -0.01052 0.49577 0.73266 0.0
H224 H 0.14075 0.64744 0.46994 0.0
H225 H 0.2472 0.68262 0.52216 0.0
H226 H 0.94506 0.63832 0.47113 0.0
H227 H 0.83428 0.57983 0.48995 0.0
C228 C -0.0275 0.19072 0.26117 0.0
C229 C 0.03642 0.12929 0.27365 0.0
C230 C 0.09132 0.10969 0.16726 0.0
C231 C 0.01905 0.16772 0.1553 0.0
N232 N 0.85188 0.24685 0.18728 0.0
N233 N 0.11096 0.01855 0.23283 0.0
C234 C 0.94649 0.20269 0.20112 0.0
C235 C 0.0823 0.08496 0.22496 0.0
N236 N 0.94386 0.24003 0.30493 0.0
N237 N 0.16983 0.07903 0.12442 0.0
H238 H 0.08579 0.99489 0.27136 0.0
H239 H 0.14394 0.98484 0.19837 0.0
H240 H 0.17821 0.09606 0.08149 0.0
H241 H 0.23381 0.04023 0.13313 0.0
H242 H 0.90655 0.28732 0.29569 0.0
H243 H 0.97161 0.23816 0.34901 0.0
H244 H 0.78943 0.26947 0.21934 0.0
H245 H 0.82663 0.25403 0.14318 0.0
C246 C 0.09881 0.05832 0.75222 0.0
C247 C 0.07157 0.12445 0.77914 0.0
C248 C 0.1585 0.1719 0.68943 0.0
C249 C 0.14196 0.10879 0.65782 0.0
N250 N 0.12625 0.98852 0.65926 0.0
N251 N 0.07738 0.2465 0.77066 0.0
C252 C 0.1259 0.05056 0.68993 0.0
C253 C 0.10602 0.18223 0.74798 0.0
N254 N 0.09609 1.00327 0.78585 0.0
N255 N 0.22005 0.22204 0.66262 0.0
H256 H 0.02739 0.25751 0.81039 0.0
H257 H 0.09344 0.28926 0.74707 0.0
H258 H 0.25906 0.21377 0.61981 0.0
H259 H 0.24507 0.26757 0.68542 0.0
H260 H 0.12495 0.95475 0.76995 0.0
H261 H 0.0749 1.00734 0.83131 0.0
H262 H 0.09929 0.94387 0.67779 0.0
H263 H 0.15038 0.98305 0.61383 0.0
C264 C 0.69008 0.61371 0.32078 0.0
C265 C 0.59339 0.6227 0.36556 0.0
C266 C 0.45008 0.67151 0.29294 0.0
C267 C 0.5492 0.66644 0.24941 0.0
N268 N 0.76491 0.63658 0.2211 0.0
N269 N 0.38503 0.6651 0.39654 0.0
C270 C 0.66971 0.63856 0.26316 0.0
C271 C 0.47467 0.65338 0.35231 0.0
N272 N 0.80063 0.58035 0.33321 0.0
N273 N 0.33065 0.69119 0.27656 0.0
H274 H 0.39576 0.64905 0.43956 0.0
H275 H 0.30346 0.69471 0.39212 0.0
H276 H 0.30917 0.70414 0.23335 0.0
H277 H 0.25026 0.68938 0.30383 0.0
H278 H 0.86898 0.56476 0.30116 0.0
H279 H 0.82216 0.56545 0.37579 0.0
H280 H 0.85957 0.62494 0.22973 0.0
H281 H 0.74926 0.64854 0.17711 0.0
C282 C 0.59034 0.56131 0.77768 0.0
C283 C 0.69412 0.59883 0.75836 0.0
C284 C 0.74073 0.63081 0.86343 0.0
C285 C 0.61587 0.61196 0.87945 0.0
N286 N 0.4109 0.56912 0.84479 0.0
N287 N 0.87664 0.66636 0.78327 0.0
C288 C 0.53787 0.5787 0.83491 0.0
C289 C 0.77353 0.63182 0.80159 0.0
N290 N 0.53538 0.51367 0.73967 0.0
N291 N 0.82865 0.64494 0.90652 0.0
H292 H 0.90309 0.66559 0.73817 0.0
H293 H 0.93124 0.69703 0.81248 0.0
H294 H 0.80726 0.6435 0.95198 0.0
H295 H 0.92481 0.65012 0.89621 0.0
H296 H 0.46072 0.48346 0.75263 0.0
H297 H 0.57482 0.49907 0.69786 0.0
H298 H 0.35024 0.54904 0.81179 0.0
H299 H 0.36216 0.58941 0.88259 0.0
loop_
_geom_bond_atom_site_label_1
_geom_bond_atom_site_label_2
_geom_bond_distance
_geom_bond_site_symmetry_2
_ccdc_geom_bond_type
Zn0 O6 1.920 . S
Zn0 O12 1.898 . S
Zn0 O15 1.905 . S
Zn1 O9 1.905 . S
Zn1 O10 1.898 . S
Zn1 O18 1.920 . S
Zn2 O5 2.081 1_455 S
Zn2 O8 2.114 . S
Zn2 O11 2.120 1_554 S
Zn2 O13 2.120 . S
Zn2 O14 2.114 . S
Zn2 O17 2.080 1_455 S
C3 O8 1.166 . S
C3 O9 1.176 1_454 S
C4 O10 1.167 1_455 S
C4 O11 1.299 . S
O5 Zn2 2.081 1_655 S
O5 C19 1.313 . S
O6 Zn0 1.920 . S
O6 C19 1.234 1_455 S
C7 O12 1.167 . S
C7 O13 1.299 . S
O8 Zn2 2.114 . S
O8 C3 1.166 . S
O9 Zn1 1.905 . S
O9 C3 1.176 1_656 S
O10 Zn1 1.898 . S
O10 C4 1.167 1_655 S
O11 Zn2 2.120 1_556 S
O11 C4 1.299 . S
O12 Zn0 1.898 . S
O12 C7 1.167 . S
O13 Zn2 2.120 . S
O13 C7 1.299 . S
O14 Zn2 2.114 . S
O14 C16 1.166 . S
O15 Zn0 1.905 . S
O15 C16 1.182 . S
C16 O14 1.166 . S
C16 O15 1.182 . S
O17 Zn2 2.080 1_655 S
O17 C20 1.305 1_554 S
O18 Zn1 1.920 . S
O18 C20 1.234 . S
C19 O5 1.313 . S
C19 O6 1.234 1_655 S
C20 O17 1.305 1_556 S
C20 O18 1.234 . S
Zn21 O27 1.920 . S
Zn21 O33 1.898 1_565 S
Zn21 O36 1.905 . S
Zn22 O30 1.905 . S
Zn22 O31 1.898 . S
Zn22 O39 1.920 . S
Zn23 O26 2.080 1_445 S
Zn23 O29 2.114 . S
Zn23 O32 2.120 . S
Zn23 O34 2.120 . S
Zn23 O35 2.114 . S
Zn23 O38 2.080 1_455 S
C24 O29 1.166 . S
C24 O30 1.182 1_455 S
C25 O31 1.167 1_455 S
C25 O32 1.299 . S
O26 Zn23 2.080 1_665 S
O26 C40 1.305 . S
O27 Zn21 1.920 . S
O27 C40 1.234 1_455 S
C28 O33 1.167 . S
C28 O34 1.299 . S
O29 Zn23 2.114 . S
O29 C24 1.166 . S
O30 Zn22 1.905 . S
O30 C24 1.182 1_655 S
O31 Zn22 1.898 . S
O31 C25 1.167 1_655 S
O32 Zn23 2.120 . S
O32 C25 1.299 . S
O33 Zn21 1.898 1_545 S
O33 C28 1.167 . S
O34 Zn23 2.120 . S
O34 C28 1.299 . S
O35 Zn23 2.114 . S
O35 C37 1.166 . S
O36 Zn21 1.905 . S
O36 C37 1.182 1_565 S
C37 O35 1.166 . S
C37 O36 1.182 1_545 S
O38 Zn23 2.080 1_655 S
O38 C41 1.305 . S
O39 Zn22 1.920 . S
O39 C41 1.234 . S
C40 O26 1.305 . S
C40 O27 1.234 1_655 S
C41 O38 1.305 . S
C41 O39 1.234 . S
Zn42 O48 1.920 . S
Zn42 O54 1.898 . S
Zn42 O57 1.905 . S
Zn43 O51 1.905 . S
Zn43 O52 1.898 . S
Zn43 O60 1.920 . S
Zn44 O47 2.081 . S
Zn44 O50 2.114 . S
Zn44 O53 2.120 1_554 S
Zn44 O55 2.120 . S
Zn44 O56 2.114 . S
Zn44 O59 2.080 . S
C45 O50 1.166 . S
C45 O51 1.176 1_554 S
C46 O52 1.167 . S
C46 O53 1.299 . S
O47 Zn44 2.081 . S
O47 C61 1.313 . S
O48 Zn42 1.920 . S
O48 C61 1.234 . S
C49 O54 1.167 . S
C49 O55 1.299 . S
O50 Zn44 2.114 . S
O50 C45 1.166 . S
O51 Zn43 1.905 . S
O51 C45 1.176 1_556 S
O52 Zn43 1.898 . S
O52 C46 1.167 . S
O53 Zn44 2.120 1_556 S
O53 C46 1.299 . S
O54 Zn42 1.898 . S
O54 C49 1.167 . S
O55 Zn44 2.120 . S
O55 C49 1.299 . S
O56 Zn44 2.114 . S
O56 C58 1.166 . S
O57 Zn42 1.905 . S
O57 C58 1.182 . S
C58 O56 1.166 . S
C58 O57 1.182 . S
O59 Zn44 2.080 . S
O59 C62 1.305 1_554 S
O60 Zn43 1.920 . S
O60 C62 1.234 . S
C61 O47 1.313 . S
C61 O48 1.234 . S
C62 O59 1.305 1_556 S
C62 O60 1.234 . S
Zn63 O69 1.920 . S
Zn63 O75 1.898 . S
Zn63 O78 1.905 . S
Zn64 O72 1.905 . S
Zn64 O73 1.898 . S
Zn64 O81 1.920 . S
Zn65 O68 2.080 . S
Zn65 O71 2.114 . S
Zn65 O74 2.120 . S
Zn65 O76 2.120 . S
Zn65 O77 2.114 . S
Zn65 O80 2.080 . S
C66 O71 1.166 . S
C66 O72 1.182 . S
C67 O73 1.167 . S
C67 O74 1.299 . S
O68 Zn65 2.080 . S
O68 C82 1.305 . S
O69 Zn63 1.920 . S
O69 C82 1.234 . S
C70 O75 1.167 . S
C70 O76 1.299 . S
O71 Zn65 2.114 . S
O71 C66 1.166 . S
O72 Zn64 1.905 . S
O72 C66 1.182 . S
O73 Zn64 1.898 . S
O73 C67 1.167 . S
O74 Zn65 2.120 . S
O74 C67 1.299 . S
O75 Zn63 1.898 . S
O75 C70 1.167 . S
O76 Zn65 2.120 . S
O76 C70 1.299 . S
O77 Zn65 2.114 . S
O77 C79 1.166 . S
O78 Zn63 1.905 . S
O78 C79 1.182 . S
C79 O77 1.166 . S
C79 O78 1.182 . S
O80 Zn65 2.080 . S
O80 C83 1.305 . S
O81 Zn64 1.920 . S
O81 C83 1.234 . S
C82 O68 1.305 . S
C82 O69 1.234 . S
C83 O80 1.305 . S
C83 O81 1.234 . S
C84 C85 1.363 . S
C84 C90 1.379 . S
C84 N92 1.356 . S
C85 C84 1.363 . S
C85 C91 1.363 1_554 S
C86 C87 1.363 1_556 S
C86 C91 1.379 . S
C86 N93 1.356 1_565 S
C87 C86 1.363 1_554 S
C87 C90 1.363 . S
N88 C90 1.356 . S
N88 H100 0.984 1_455 S
N88 H101 0.985 1_455 S
N89 C91 1.356 . S
N89 H94 0.984 . S
N89 H95 0.985 . S
C90 C84 1.379 . S
C90 C87 1.363 . S
C90 N88 1.356 . S
C91 C85 1.363 1_556 S
C91 C86 1.379 . S
C91 N89 1.356 . S
N92 C84 1.356 . S
N92 H98 0.984 . S
N92 H99 0.984 . S
N93 C86 1.356 1_545 S
N93 H96 0.984 . S
N93 H97 0.985 . S
H94 N89 0.984 . S
H95 N89 0.985 . S
H96 N93 0.984 . S
H97 N93 0.985 . S
H98 N92 0.984 . S
H99 N92 0.984 . S
H100 N88 0.984 1_655 S
H101 N88 0.985 1_655 S
C102 C103 1.363 1_556 S
C102 C108 1.379 . S
C102 N110 1.356 . S
C103 C102 1.363 1_554 S
C103 C109 1.363 . S
C104 C105 1.363 . S
C104 C109 1.379 . S
C104 N111 1.356 . S
C105 C104 1.363 . S
C105 C108 1.363 1_554 S
N106 C108 1.356 . S
N106 H118 0.984 . S
N106 H119 0.985 . S
N107 C109 1.356 . S
N107 H112 0.984 . S
N107 H113 0.985 . S
C108 C102 1.379 . S
C108 C105 1.363 1_556 S
C108 N106 1.356 . S
C109 C103 1.363 . S
C109 C104 1.379 . S
C109 N107 1.356 . S
N110 C102 1.356 . S
N110 H116 0.984 . S
N110 H117 0.984 . S
N111 C104 1.356 . S
N111 H114 0.984 . S
N111 H115 0.985 . S
H112 N107 0.984 . S
H113 N107 0.985 . S
H114 N111 0.984 . S
H115 N111 0.985 . S
H116 N110 0.984 . S
H117 N110 0.984 . S
H118 N106 0.984 . S
H119 N106 0.985 . S
C120 C121 1.363 . S
C120 C126 1.379 . S
C120 N128 1.356 . S
C121 C120 1.363 . S
C121 C127 1.363 . S
C122 C123 1.363 . S
C122 C127 1.379 . S
C122 N129 1.356 . S
C123 C122 1.363 . S
C123 C126 1.363 . S
N124 C126 1.356 . S
N124 H136 0.984 . S
N124 H137 0.985 . S
N125 C127 1.356 . S
N125 H130 0.984 1_455 S
N125 H131 0.985 1_455 S
C126 C120 1.379 . S
C126 C123 1.363 . S
C126 N124 1.356 . S
C127 C121 1.363 . S
C127 C122 1.379 . S
C127 N125 1.356 . S
N128 C120 1.356 . S
N128 H134 0.984 . S
N128 H135 0.984 . S
N129 C122 1.356 . S
N129 H132 0.984 . S
N129 H133 0.985 . S
H130 N125 0.984 1_655 S
H131 N125 0.985 1_655 S
H132 N129 0.984 . S
H133 N129 0.985 . S
H134 N128 0.984 . S
H135 N128 0.984 . S
H136 N124 0.984 . S
H137 N124 0.985 . S
C138 C139 1.363 . S
C138 C144 1.379 . S
C138 N146 1.356 . S
C139 C138 1.363 . S
C139 C145 1.363 . S
C140 C141 1.363 . S
C140 C145 1.379 . S
C140 N147 1.356 . S
C141 C140 1.363 . S
C141 C144 1.363 . S
N142 C144 1.356 . S
N142 H154 0.984 . S
N142 H155 0.985 . S
N143 C145 1.356 . S
N143 H148 0.984 . S
N143 H149 0.985 . S
C144 C138 1.379 . S
C144 C141 1.363 . S
C144 N142 1.356 . S
C145 C139 1.363 . S
C145 C140 1.379 . S
C145 N143 1.356 . S
N146 C138 1.356 . S
N146 H152 0.984 . S
N146 H153 0.984 . S
N147 C140 1.356 . S
N147 H150 0.984 . S
N147 H151 0.985 . S
H148 N143 0.984 . S
H149 N143 0.985 . S
H150 N147 0.984 . S
H151 N147 0.985 . S
H152 N146 0.984 . S
H153 N146 0.984 . S
H154 N142 0.984 . S
H155 N142 0.985 . S
C156 C157 1.363 . S
C156 C162 1.379 . S
C156 N164 1.356 . S
C157 C156 1.363 . S
C157 C163 1.363 1_556 S
C158 C159 1.363 1_554 S
C158 C163 1.379 . S
C158 N165 1.356 . S
C159 C158 1.363 1_556 S
C159 C162 1.363 . S
N160 C162 1.356 . S
N160 H172 0.984 . S
N160 H173 0.985 . S
N161 C163 1.356 . S
N161 H166 0.984 . S
N161 H167 0.985 . S
C162 C156 1.379 . S
C162 C159 1.363 . S
C162 N160 1.356 . S
C163 C157 1.363 1_554 S
C163 C158 1.379 . S
C163 N161 1.356 . S
N164 C156 1.356 . S
N164 H170 0.984 . S
N164 H171 0.984 . S
N165 C158 1.356 . S
N165 H168 0.984 . S
N165 H169 0.985 . S
H166 N161 0.984 . S
H167 N161 0.985 . S
H168 N165 0.984 . S
H169 N165 0.985 . S
H170 N164 0.984 . S
H171 N164 0.984 . S
H172 N160 0.984 . S
H173 N160 0.985 . S
C174 C175 1.363 . S
C174 C180 1.379 . S
C174 N182 1.356 1_545 S
C175 C174 1.363 . S
C175 C181 1.363 . S
C176 C177 1.363 . S
C176 C181 1.379 . S
C176 N183 1.356 . S
C177 C176 1.363 . S
C177 C180 1.363 . S
N178 C180 1.356 . S
N178 H190 0.984 . S
N178 H191 0.985 . S
N179 C181 1.356 . S
N179 H184 0.984 . S
N179 H185 0.985 . S
C180 C174 1.379 . S
C180 C177 1.363 . S
C180 N178 1.356 . S
C181 C175 1.363 . S
C181 C176 1.379 . S
C181 N179 1.356 . S
N182 C174 1.356 1_565 S
N182 H188 0.984 . S
N182 H189 0.984 . S
N183 C176 1.356 . S
N183 H186 0.984 . S
N183 H187 0.985 . S
H184 N179 0.984 . S
H185 N179 0.985 . S
H186 N183 0.984 . S
H187 N183 0.985 . S
H188 N182 0.984 . S
H189 N182 0.984 . S
H190 N178 0.984 . S
H191 N178 0.985 . S
C192 C193 1.363 1_554 S
C192 C198 1.379 1_655 S
C192 N200 1.356 . S
C193 C192 1.363 1_556 S
C193 C199 1.363 . S
C194 C195 1.363 . S
C194 C199 1.379 1_455 S
C194 N201 1.356 . S
C195 C194 1.363 . S
C195 C198 1.363 1_556 S
N196 C198 1.356 . S
N196 H208 0.984 . S
N196 H209 0.985 . S
N197 C199 1.356 . S
N197 H202 0.984 . S
N197 H203 0.985 . S
C198 C192 1.379 1_455 S
C198 C195 1.363 1_554 S
C198 N196 1.356 . S
C199 C193 1.363 . S
C199 C194 1.379 1_655 S
C199 N197 1.356 . S
N200 C192 1.356 . S
N200 H206 0.984 . S
N200 H207 0.984 . S
N201 C194 1.356 . S
N201 H204 0.984 . S
N201 H205 0.985 . S
H202 N197 0.984 . S
H203 N197 0.985 . S
H204 N201 0.984 . S
H205 N201 0.985 . S
H206 N200 0.984 . S
H207 N200 0.984 . S
H208 N196 0.984 . S
H209 N196 0.985 . S
C210 C211 1.363 . S
C210 C216 1.379 1_455 S
C210 N218 1.356 . S
C211 C210 1.363 . S
C211 C217 1.363 . S
C212 C213 1.363 . S
C212 C217 1.379 1_655 S
C212 N219 1.356 . S
C213 C212 1.363 . S
C213 C216 1.363 . S
N214 C216 1.356 . S
N214 H226 0.984 . S
N214 H227 0.985 . S
N215 C217 1.356 . S
N215 H220 0.984 . S
N215 H221 0.985 . S
C216 C210 1.379 1_655 S
C216 C213 1.363 . S
C216 N214 1.356 . S
C217 C211 1.363 . S
C217 C212 1.379 1_455 S
C217 N215 1.356 . S
N218 C210 1.356 . S
N218 H224 0.984 . S
N218 H225 0.984 . S
N219 C212 1.356 . S
N219 H222 0.984 . S
N219 H223 0.985 . S
H220 N215 0.984 . S
H221 N215 0.985 . S
H222 N219 0.984 . S
H223 N219 0.985 . S
H224 N218 0.984 . S
H225 N218 0.984 . S
H226 N214 0.984 . S
H227 N214 0.985 . S
C228 C229 1.363 . S
C228 C234 1.379 . S
C228 N236 1.356 1_455 S
C229 C228 1.363 . S
C229 C235 1.363 . S
C230 C231 1.363 . S
C230 C235 1.379 . S
C230 N237 1.356 . S
C231 C230 1.363 . S
C231 C234 1.363 . S
N232 C234 1.356 1_655 S
N232 H244 0.984 . S
N232 H245 0.985 . S
N233 C235 1.356 . S
N233 H238 0.984 . S
N233 H239 0.984 . S
C234 C228 1.379 . S
C234 C231 1.363 . S
C234 N232 1.356 1_455 S
C235 C229 1.363 . S
C235 C230 1.379 . S
C235 N233 1.356 . S
N236 C228 1.356 1_655 S
N236 H242 0.984 . S
N236 H243 0.984 . S
N237 C230 1.356 . S
N237 H240 0.984 . S
N237 H241 0.985 . S
H238 N233 0.984 . S
H239 N233 0.984 . S
H240 N237 0.984 . S
H241 N237 0.985 . S
H242 N236 0.984 . S
H243 N236 0.984 . S
H244 N232 0.984 . S
H245 N232 0.985 . S
C246 C247 1.363 . S
C246 C252 1.379 . S
C246 N254 1.356 . S
C247 C246 1.363 . S
C247 C253 1.363 . S
C248 C249 1.363 . S
C248 C253 1.379 . S
C248 N255 1.356 . S
C249 C248 1.363 . S
C249 C252 1.363 . S
N250 C252 1.356 . S
N250 H262 0.984 1_545 S
N250 H263 0.985 . S
N251 C253 1.356 . S
N251 H256 0.984 . S
N251 H257 0.985 . S
C252 C246 1.379 . S
C252 C249 1.363 . S
C252 N250 1.356 . S
C253 C247 1.363 . S
C253 C248 1.379 . S
C253 N251 1.356 . S
N254 C246 1.356 . S
N254 H260 0.984 . S
N254 H261 0.984 . S
N255 C248 1.356 . S
N255 H258 0.984 . S
N255 H259 0.985 . S
H256 N251 0.984 . S
H257 N251 0.985 . S
H258 N255 0.984 . S
H259 N255 0.985 . S
H260 N254 0.984 . S
H261 N254 0.984 . S
H262 N250 0.984 1_565 S
H263 N250 0.985 . S
C264 C265 1.363 . S
C264 C270 1.379 . S
C264 N272 1.356 . S
C265 C264 1.363 . S
C265 C271 1.363 . S
C266 C267 1.363 . S
C266 C271 1.379 . S
C266 N273 1.356 . S
C267 C266 1.363 . S
C267 C270 1.363 . S
N268 C270 1.356 . S
N268 H280 0.984 . S
N268 H281 0.985 . S
N269 C271 1.356 . S
N269 H274 0.984 . S
N269 H275 0.985 . S
C270 C264 1.379 . S
C270 C267 1.363 . S
C270 N268 1.356 . S
C271 C265 1.363 . S
C271 C266 1.379 . S
C271 N269 1.356 . S
N272 C264 1.356 . S
N272 H278 0.984 . S
N272 H279 0.984 . S
N273 C266 1.356 . S
N273 H276 0.984 . S
N273 H277 0.985 . S
H274 N269 0.984 . S
H275 N269 0.985 . S
H276 N273 0.984 . S
H277 N273 0.985 . S
H278 N272 0.984 . S
H279 N272 0.984 . S
H280 N268 0.984 . S
H281 N268 0.985 . S
C282 C283 1.363 . S
C282 C288 1.379 . S
C282 N290 1.356 . S
C283 C282 1.363 . S
C283 C289 1.363 . S
C284 C285 1.363 . S
C284 C289 1.379 . S
C284 N291 1.356 . S
C285 C284 1.363 . S
C285 C288 1.363 . S
N286 C288 1.356 . S
N286 H298 0.984 . S
N286 H299 0.985 . S
N287 C289 1.356 . S
N287 H292 0.984 . S
N287 H293 0.985 . S
C288 C282 1.379 . S
C288 C285 1.363 . S
C288 N286 1.356 . S
C289 C283 1.363 . S
C289 C284 1.379 . S
C289 N287 1.356 . S
N290 C282 1.356 . S
N290 H296 0.984 . S
N290 H297 0.984 . S
N291 C284 1.356 . S
N291 H294 0.984 . S
N291 H295 0.985 . S
H292 N287 0.984 . S
H293 N287 0.985 . S
H294 N291 0.984 . S
H295 N291 0.985 . S
H296 N290 0.984 . S
H297 N290 0.984 . S
H298 N286 0.984 . S
H299 N286 0.985 . S
C85 C61 1.669 . S
C87 C3 1.586 1_565 S
C103 C45 1.586 . S
C105 C19 1.669 . S
C121 C24 1.582 . S
C123 C82 1.669 . S
C139 C40 1.669 . S
C141 C66 1.582 . S
C157 C16 0.942 1_556 S
C159 C20 0.990 . S
C175 C37 0.942 . S
C177 C41 0.990 . S
C193 C58 0.942 1_556 S
C195 C62 0.990 . S
C211 C83 0.990 . S
C213 C79 0.942 . S
C229 C28 1.454 . S
C231 C7 1.454 . S
C247 C4 1.325 . S
C249 C25 1.325 . S
C265 C70 1.454 . S
C267 C49 1.454 . S
C283 C67 1.325 . S
C285 C46 1.325 . S
