# Generated by pormake.
# Topology qtz-f, (3)-cn, num edge types: 1
# Building blocks:
#     Node 0, Type 0, BuildingBlock: OLANEW_clean_sbu_2, # of connection points: 3
#     Node 1, Type 0, BuildingBlock: OLANEW_clean_sbu_2, # of connection points: 3
#     Node 2, Type 0, BuildingBlock: OLANEW_clean_sbu_2, # of connection points: 3
#     Node 3, Type 0, BuildingBlock: OLANEW_clean_sbu_2, # of connection points: 3
#     Node 4, Type 0, BuildingBlock: OLANEW_clean_sbu_2, # of connection points: 3
#     Node 5, Type 0, BuildingBlock: OLANEW_clean_sbu_2, # of connection points: 3
#     Node 6, Type 0, BuildingBlock: OLANEW_clean_sbu_2, # of connection points: 3
#     Node 7, Type 0, BuildingBlock: OLANEW_clean_sbu_2, # of connection points: 3
#     Node 8, Type 0, BuildingBlock: OLANEW_clean_sbu_2, # of connection points: 3
#     Node 9, Type 0, BuildingBlock: OLANEW_clean_sbu_2, # of connection points: 3
#     Node 10, Type 0, BuildingBlock: OLANEW_clean_sbu_2, # of connection points: 3
#     Node 11, Type 0, BuildingBlock: OLANEW_clean_sbu_2, # of connection points: 3
#     Edge 12, Type (0, 0), BuildingBlock: UKIBIB_clean_linker_0, # of connection points: 2
#     Edge 13, Type (0, 0), BuildingBlock: UKIBIB_clean_linker_0, # of connection points: 2
#     Edge 14, Type (0, 0), BuildingBlock: UKIBIB_clean_linker_0, # of connection points: 2
#     Edge 15, Type (0, 0), BuildingBlock: UKIBIB_clean_linker_0, # of connection points: 2
#     Edge 16, Type (0, 0), BuildingBlock: UKIBIB_clean_linker_0, # of connection points: 2
#     Edge 17, Type (0, 0), BuildingBlock: UKIBIB_clean_linker_0, # of connection points: 2
#     Edge 18, Type (0, 0), BuildingBlock: UKIBIB_clean_linker_0, # of connection points: 2
#     Edge 19, Type (0, 0), BuildingBlock: UKIBIB_clean_linker_0, # of connection points: 2
#     Edge 20, Type (0, 0), BuildingBlock: UKIBIB_clean_linker_0, # of connection points: 2
#     Edge 21, Type (0, 0), BuildingBlock: UKIBIB_clean_linker_0, # of connection points: 2
#     Edge 22, Type (0, 0), BuildingBlock: UKIBIB_clean_linker_0, # of connection points: 2
#     Edge 23, Type (0, 0), BuildingBlock: UKIBIB_clean_linker_0, # of connection points: 2
#     Edge 24, Type (0, 0), BuildingBlock: UKIBIB_clean_linker_0, # of connection points: 2
#     Edge 25, Type (0, 0), BuildingBlock: UKIBIB_clean_linker_0, # of connection points: 2
#     Edge 26, Type (0, 0), BuildingBlock: UKIBIB_clean_linker_0, # of connection points: 2
#     Edge 27, Type (0, 0), BuildingBlock: UKIBIB_clean_linker_0, # of connection points: 2
#     Edge 28, Type (0, 0), BuildingBlock: UKIBIB_clean_linker_0, # of connection points: 2
#     Edge 29, Type (0, 0), BuildingBlock: UKIBIB_clean_linker_0, # of connection points: 2
# Relax obj value: 0.009
# Max RMSD: 0.031
# Mean RMSD: 0.031
data_MOF--net-qtz-f--node1-OLANEW_clean_sbu_2--edge1-UKIBIB_clean_linker_0
_symmetry_space_group_name_H-M    P1
_symmetry_Int_Tables_number       1
_symmetry_cell_setting            triclinic
loop_
_symmetry_equiv_pos_as_xyz
'x, y, z'
_cell_length_a     99.81395
_cell_length_b     99.750356
_cell_length_c     30.803085
_cell_angle_alpha  90.047883
_cell_angle_beta   90.069168
_cell_angle_gamma 120.05492
loop_
_atom_site_label
_atom_site_type_symbol
_atom_site_fract_x
_atom_site_fract_y
_atom_site_fract_z
_atom_type_partial_charge
O0 O 0.12898 0.48021 0.15786 0.0
Cd1 Cd 0.13114 0.45802 0.17505 0.0
O2 O 0.11214 0.47235 0.21205 0.0
Cd3 Cd 0.1039 0.45074 0.24681 0.0
O4 O 0.08611 0.43277 0.20657 0.0
C5 C 0.07573 0.43631 0.20005 0.0
O6 O 0.07728 0.44877 0.21928 0.0
C7 C 0.11988 0.48207 0.18254 0.0
C8 C 0.15346 0.45498 0.12855 0.0
O9 O 0.15029 0.46551 0.11914 0.0
O10 O 0.14622 0.44585 0.15981 0.0
O11 O 0.64223 0.13349 0.49363 0.0
Cd12 Cd 0.66638 0.1351 0.5089 0.0
O13 O 0.63245 0.11553 0.5449 0.0
Cd14 Cd 0.64524 0.10709 0.58192 0.0
O15 O 0.64604 0.09024 0.53997 0.0
C16 C 0.63229 0.07916 0.53575 0.0
O17 O 0.62143 0.07933 0.55932 0.0
C18 C 0.63086 0.12372 0.516 0.0
C19 C 0.6916 0.15752 0.46213 0.0
O20 O 0.67788 0.15443 0.4533 0.0
O21 O 0.69356 0.15012 0.49288 0.0
O22 O 0.50193 0.64642 0.82683 0.0
Cd23 Cd 0.52464 0.67041 0.84269 0.0
O24 O 0.51008 0.63671 0.87826 0.0
Cd25 Cd 0.5313 0.64913 0.91555 0.0
O26 O 0.5489 0.64999 0.87329 0.0
C27 C 0.54624 0.63625 0.86896 0.0
O28 O 0.53522 0.62534 0.89247 0.0
C29 C 0.50023 0.63507 0.84949 0.0
C30 C 0.52717 0.69564 0.79634 0.0
O31 O 0.5175 0.68176 0.78533 0.0
O32 O 0.5357 0.69769 0.8294 0.0
O33 O 0.85062 0.50721 0.15822 0.0
Cd34 Cd 0.84718 0.52844 0.1762 0.0
O35 O 0.86626 0.513 0.21549 0.0
Cd36 Cd 0.87421 0.53558 0.24552 0.0
O37 O 0.89224 0.55387 0.20611 0.0
C38 C 0.90355 0.55148 0.20798 0.0
O39 O 0.90284 0.54109 0.23548 0.0
C40 C 0.85889 0.50431 0.18352 0.0
C41 C 0.82481 0.53117 0.12855 0.0
O42 O 0.82781 0.52041 0.12054 0.0
O43 O 0.83244 0.54079 0.15864 0.0
O44 O 0.33629 0.85275 0.49102 0.0
Cd45 Cd 0.31218 0.85124 0.50891 0.0
O46 O 0.3448 0.86987 0.54441 0.0
Cd47 Cd 0.33305 0.87912 0.58286 0.0
O48 O 0.33212 0.89608 0.54115 0.0
C49 C 0.34581 0.9074 0.53878 0.0
O50 O 0.35644 0.90749 0.5641 0.0
C51 C 0.34713 0.86216 0.51561 0.0
C52 C 0.28674 0.82887 0.46227 0.0
O53 O 0.30051 0.83211 0.4536 0.0
O54 O 0.28479 0.83632 0.49292 0.0
O55 O 0.47647 0.34019 0.82577 0.0
Cd56 Cd 0.45396 0.31616 0.84257 0.0
O57 O 0.46792 0.34931 0.87792 0.0
Cd58 Cd 0.44593 0.33487 0.9114 0.0
O59 O 0.42741 0.33485 0.87342 0.0
C60 C 0.43217 0.34911 0.86734 0.0
O61 O 0.44568 0.35916 0.88388 0.0
C62 C 0.47781 0.3513 0.84892 0.0
C63 C 0.45109 0.29075 0.7962 0.0
O64 O 0.46101 0.3046 0.78585 0.0
O65 O 0.44236 0.28878 0.82866 0.0
O66 O 0.50169 0.85259 0.52247 0.0
Cd67 Cd 0.5243 0.85114 0.50671 0.0
O68 O 0.51009 0.86993 0.46961 0.0
Cd69 Cd 0.53227 0.87781 0.43704 0.0
O70 O 0.5508 0.89648 0.475 0.0
C71 C 0.54601 0.90597 0.48055 0.0
O72 O 0.5325 0.90237 0.46378 0.0
C73 C 0.50007 0.86199 0.49838 0.0
C74 C 0.52714 0.8286 0.55253 0.0
O75 O 0.51744 0.83263 0.56423 0.0
O76 O 0.5355 0.83508 0.51929 0.0
O77 O 0.64246 0.50639 0.85414 0.0
Cd78 Cd 0.66662 0.52892 0.83849 0.0
O79 O 0.63267 0.51402 0.80159 0.0
Cd80 Cd 0.64771 0.53645 0.77082 0.0
O81 O 0.64747 0.55494 0.80863 0.0
C82 C 0.63316 0.5501 0.81375 0.0
O83 O 0.62331 0.53661 0.79669 0.0
C84 C 0.6311 0.50429 0.83077 0.0
C85 C 0.69158 0.53134 0.88607 0.0
O86 O 0.67775 0.5208 0.89419 0.0
O87 O 0.69374 0.54091 0.85577 0.0
O88 O 0.12958 0.64612 0.19016 0.0
Cd89 Cd 0.13106 0.67017 0.17282 0.0
O90 O 0.11233 0.63744 0.13698 0.0
Cd91 Cd 0.10372 0.65053 0.10144 0.0
O92 O 0.08608 0.65091 0.1427 0.0
C93 C 0.07477 0.63725 0.13883 0.0
O94 O 0.07574 0.62821 0.10953 0.0
C95 C 0.12019 0.63521 0.16569 0.0
C96 C 0.15343 0.6955 0.21956 0.0
O97 O 0.15041 0.68177 0.22784 0.0
O98 O 0.14581 0.69744 0.18938 0.0
O99 O 0.47609 0.13325 0.52141 0.0
Cd100 Cd 0.45368 0.135 0.50646 0.0
O101 O 0.46805 0.11539 0.46953 0.0
Cd102 Cd 0.44557 0.10883 0.4393 0.0
O103 O 0.42763 0.09013 0.47941 0.0
C104 C 0.43092 0.07955 0.47312 0.0
O105 O 0.44159 0.08222 0.44403 0.0
C106 C 0.47785 0.12365 0.49861 0.0
C107 C 0.45095 0.15747 0.5531 0.0
O108 O 0.46117 0.15396 0.56334 0.0
O109 O 0.44208 0.15054 0.52099 0.0
O110 O 0.336 0.48045 0.85516 0.0
Cd111 Cd 0.31196 0.45777 0.83894 0.0
O112 O 0.34562 0.47204 0.8041 0.0
Cd113 Cd 0.33302 0.45091 0.76646 0.0
O114 O 0.33221 0.4333 0.80861 0.0
C115 C 0.34596 0.43604 0.81311 0.0
O116 O 0.35686 0.44718 0.78988 0.0
C117 C 0.34734 0.48187 0.833 0.0
C118 C 0.28666 0.45505 0.88559 0.0
O119 O 0.30054 0.46507 0.89552 0.0
O120 O 0.28461 0.44612 0.85349 0.0
O121 O 0.84883 0.33972 0.18721 0.0
Cd122 Cd 0.84741 0.31564 0.17155 0.0
O123 O 0.86653 0.34971 0.13549 0.0
Cd124 Cd 0.87472 0.33619 0.10102 0.0
O125 O 0.8922 0.33564 0.14146 0.0
C126 C 0.90243 0.34961 0.14846 0.0
O127 O 0.90064 0.36047 0.12989 0.0
C128 C 0.85826 0.35117 0.16443 0.0
C129 C 0.82473 0.29062 0.21884 0.0
O130 O 0.82858 0.30454 0.22821 0.0
O131 O 0.83165 0.28845 0.18718 0.0
C132 C 0.25816 0.44339 0.89869 0.0
C133 C 0.27353 0.45427 0.90971 0.0
C134 C 0.24585 0.44325 0.92084 0.0
C135 C 0.18133 0.46492 0.11649 0.0
C136 C 0.16593 0.4542 0.10605 0.0
C137 C 0.19341 0.4647 0.0943 0.0
H138 H 0.28805 0.4734 0.95269 0.0
H139 H 0.26649 0.47305 0.99119 0.0
H140 H 0.15076 0.43491 0.06482 0.0
H141 H 0.17207 0.43462 0.02529 0.0
C142 C 0.27634 0.46487 0.94346 0.0
C143 C 0.26405 0.46471 0.96548 0.0
C144 C 0.16263 0.4432 0.07332 0.0
C145 C 0.17474 0.44307 0.05083 0.0
C146 C 0.24877 0.45394 0.95421 0.0
C147 C 0.23609 0.45385 0.97687 0.0
C148 C 0.22544 0.45374 0.99576 0.0
C149 C 0.19017 0.45383 0.06123 0.0
C150 C 0.20265 0.45377 0.03788 0.0
C151 C 0.21309 0.4537 0.01831 0.0
H152 H 0.25563 0.43509 0.87281 0.0
H153 H 0.23407 0.43484 0.9118 0.0
H154 H 0.18399 0.47347 0.14174 0.0
H155 H 0.20526 0.47307 0.10276 0.0
C156 C 0.7084 0.18533 0.44614 0.0
C157 C 0.7048 0.16999 0.43947 0.0
C158 C 0.72074 0.19738 0.42399 0.0
C159 C 0.80892 0.26226 0.23514 0.0
C160 C 0.81233 0.27754 0.24297 0.0
C161 C 0.79678 0.24991 0.25725 0.0
H162 H 0.71088 0.1549 0.40493 0.0
H163 H 0.7325 0.17615 0.36513 0.0
H164 H 0.80576 0.29187 0.28 0.0
H165 H 0.78455 0.27023 0.31838 0.0
C166 C 0.71362 0.16673 0.41051 0.0
C167 C 0.72587 0.1788 0.38787 0.0
C168 C 0.80346 0.28024 0.2734 0.0
C169 C 0.79131 0.2679 0.29529 0.0
C170 C 0.72946 0.19417 0.39457 0.0
C171 C 0.74201 0.20668 0.37129 0.0
C172 C 0.75247 0.21728 0.35206 0.0
C173 C 0.78792 0.2527 0.2873 0.0
C174 C 0.77535 0.24005 0.31007 0.0
C175 C 0.76478 0.2296 0.32943 0.0
H176 H 0.70168 0.18797 0.46858 0.0
H177 H 0.72341 0.20919 0.42962 0.0
H178 H 0.81557 0.25984 0.21188 0.0
H179 H 0.79428 0.2382 0.25078 0.0
C180 C 0.52232 0.80177 0.55605 0.0
C181 C 0.52811 0.81633 0.57556 0.0
C182 C 0.52241 0.7897 0.5788 0.0
C183 C 0.53458 0.72353 0.79136 0.0
C184 C 0.52808 0.70879 0.77217 0.0
C185 C 0.53458 0.73573 0.76902 0.0
H186 H 0.5387 0.83007 0.63312 0.0
H187 H 0.53922 0.80892 0.67286 0.0
H188 H 0.51692 0.69531 0.7144 0.0
H189 H 0.51718 0.71679 0.67521 0.0
C190 C 0.53419 0.81885 0.61774 0.0
C191 C 0.53447 0.80683 0.6403 0.0
C192 C 0.5219 0.70654 0.73003 0.0
C193 C 0.52204 0.71877 0.70763 0.0
C194 C 0.52847 0.79218 0.621 0.0
C195 C 0.52846 0.77966 0.64438 0.0
C196 C 0.52834 0.76903 0.6634 0.0
C197 C 0.52828 0.73338 0.72714 0.0
C198 C 0.52821 0.74594 0.70424 0.0
C199 C 0.52822 0.75654 0.68539 0.0
H200 H 0.51747 0.79966 0.5236 0.0
H201 H 0.5177 0.77844 0.56354 0.0
H202 H 0.53934 0.72555 0.8239 0.0
H203 H 0.53942 0.74697 0.78452 0.0
C204 C 0.70368 0.51794 0.92287 0.0
C205 C 0.70463 0.53183 0.90949 0.0
C206 C 0.71605 0.51814 0.9446 0.0
C207 C 0.81354 0.54606 0.09445 0.0
C208 C 0.8123 0.53182 0.10536 0.0
C209 C 0.8015 0.54639 0.07198 0.0
H210 H 0.71906 0.55683 0.90821 0.0
H211 H 0.74071 0.55718 0.94757 0.0
H212 H 0.79759 0.50688 0.10293 0.0
H213 H 0.7764 0.50751 0.06458 0.0
C214 C 0.71813 0.54598 0.91818 0.0
C215 C 0.73043 0.54618 0.94059 0.0
C216 C 0.79884 0.51798 0.09427 0.0
C217 C 0.78675 0.51832 0.07255 0.0
C218 C 0.72943 0.53225 0.95377 0.0
C219 C 0.74206 0.53238 0.97679 0.0
C220 C 0.75259 0.53238 0.99608 0.0
C221 C 0.78806 0.53251 0.06106 0.0
C222 C 0.77559 0.5327 0.03799 0.0
C223 C 0.76499 0.53254 0.0187 0.0
H224 H 0.69345 0.50689 0.91596 0.0
H225 H 0.71515 0.50728 0.95434 0.0
H226 H 0.82386 0.55687 0.10265 0.0
H227 H 0.80268 0.55745 0.0632 0.0
C228 C 0.16426 0.72117 0.25636 0.0
C229 C 0.16594 0.70868 0.24259 0.0
C230 C 0.17629 0.73351 0.27899 0.0
C231 C 0.2749 0.80385 0.42279 0.0
C232 C 0.2736 0.81631 0.43897 0.0
C233 C 0.26254 0.79168 0.40098 0.0
H234 H 0.18133 0.69928 0.24013 0.0
H235 H 0.20254 0.72111 0.27869 0.0
H236 H 0.2585 0.826 0.44505 0.0
H237 H 0.23681 0.80468 0.40564 0.0
C238 C 0.17979 0.70875 0.25098 0.0
C239 C 0.19188 0.72119 0.27282 0.0
C240 C 0.25973 0.81647 0.43294 0.0
C241 C 0.2474 0.80436 0.41049 0.0
C242 C 0.19014 0.73355 0.28716 0.0
C243 C 0.2026 0.74619 0.31031 0.0
C244 C 0.21321 0.75664 0.32962 0.0
C245 C 0.24878 0.79193 0.39455 0.0
C246 C 0.23614 0.77941 0.37154 0.0
C247 C 0.22561 0.76889 0.35223 0.0
H248 H 0.1536 0.72125 0.25031 0.0
H249 H 0.1748 0.743 0.29003 0.0
H250 H 0.28543 0.8034 0.42753 0.0
H251 H 0.26374 0.78212 0.38906 0.0
C252 C 0.44084 0.26229 0.78686 0.0
C253 C 0.45019 0.27755 0.77207 0.0
C254 C 0.44071 0.24995 0.76483 0.0
C255 C 0.45916 0.18516 0.56113 0.0
C256 C 0.45016 0.1699 0.57578 0.0
C257 C 0.45901 0.19727 0.58348 0.0
H258 H 0.46649 0.29186 0.72233 0.0
H259 H 0.46613 0.27022 0.6839 0.0
H260 H 0.43391 0.15498 0.6244 0.0
H261 H 0.43357 0.17633 0.66378 0.0
C262 C 0.4592 0.28022 0.73458 0.0
C263 C 0.45903 0.2679 0.71259 0.0
C264 C 0.44088 0.16674 0.61274 0.0
C265 C 0.44072 0.17887 0.63511 0.0
C266 C 0.44983 0.25273 0.72773 0.0
C267 C 0.44977 0.24005 0.70516 0.0
C268 C 0.4498 0.22951 0.68604 0.0
C269 C 0.44984 0.19418 0.62062 0.0
C270 C 0.44984 0.20672 0.64387 0.0
C271 C 0.44983 0.2172 0.66338 0.0
H272 H 0.4338 0.25988 0.81572 0.0
H273 H 0.43354 0.23827 0.77688 0.0
H274 H 0.46641 0.18771 0.53265 0.0
H275 H 0.46611 0.20903 0.57192 0.0
C276 C 0.11935 0.61345 0.20836 0.0
C277 C 0.11839 0.61972 0.16853 0.0
C278 C 0.11859 0.59904 0.20952 0.0
C279 C 0.11678 0.50167 0.13984 0.0
C280 C 0.1185 0.49595 0.17973 0.0
C281 C 0.11599 0.51531 0.13867 0.0
H282 H 0.11495 0.61567 0.0992 0.0
H283 H 0.11406 0.59071 0.10125 0.0
H284 H 0.11978 0.49907 0.24948 0.0
H285 H 0.11895 0.52316 0.24723 0.0
C286 C 0.1159 0.61111 0.13027 0.0
C287 C 0.11541 0.59688 0.13137 0.0
C288 C 0.1187 0.5035 0.21834 0.0
C289 C 0.11822 0.51722 0.21709 0.0
C290 C 0.11696 0.59085 0.17093 0.0
C291 C 0.11713 0.5764 0.17189 0.0
C292 C 0.11728 0.56433 0.17309 0.0
C293 C 0.11706 0.52333 0.17725 0.0
C294 C 0.1172 0.53791 0.17599 0.0
C295 C 0.11731 0.55011 0.17477 0.0
H296 H 0.12084 0.61973 0.23837 0.0
H297 H 0.11959 0.59444 0.24044 0.0
H298 H 0.1161 0.49568 0.10984 0.0
H299 H 0.11482 0.51974 0.10766 0.0
C300 C 0.49131 0.10831 0.50017 0.0
C301 C 0.49196 0.12269 0.5028 0.0
C302 C 0.50497 0.10758 0.50171 0.0
C303 C 0.615 0.13632 0.51353 0.0
C304 C 0.6158 0.12272 0.51249 0.0
C305 C 0.60067 0.13558 0.51272 0.0
H306 H 0.50708 0.14749 0.50722 0.0
H307 H 0.53098 0.14623 0.50914 0.0
H308 H 0.60254 0.09763 0.51124 0.0
H309 H 0.57722 0.09634 0.50825 0.0
C310 C 0.50635 0.13628 0.50622 0.0
C311 C 0.51996 0.13556 0.50702 0.0
C312 C 0.6021 0.10827 0.5114 0.0
C313 C 0.58771 0.10754 0.50983 0.0
C314 C 0.51939 0.12124 0.50499 0.0
C315 C 0.53367 0.12077 0.50609 0.0
C316 C 0.54585 0.12085 0.5071 0.0
C317 C 0.58694 0.12124 0.51053 0.0
C318 C 0.5722 0.12077 0.50924 0.0
C319 C 0.5601 0.12085 0.50822 0.0
H320 H 0.48027 0.09768 0.49714 0.0
H321 H 0.50428 0.0964 0.50005 0.0
H322 H 0.62546 0.14752 0.5157 0.0
H323 H 0.60031 0.14625 0.51376 0.0
C324 C 0.47209 0.61881 0.8351 0.0
C325 C 0.48623 0.61985 0.84553 0.0
C326 C 0.45852 0.60443 0.83435 0.0
C327 C 0.37589 0.49535 0.84403 0.0
C328 C 0.36237 0.49597 0.83587 0.0
C329 C 0.39025 0.50909 0.84564 0.0
H330 H 0.4975 0.60686 0.86356 0.0
H331 H 0.4736 0.58149 0.86105 0.0
H332 H 0.35303 0.51074 0.8197 0.0
H333 H 0.37815 0.53474 0.82175 0.0
C334 C 0.48667 0.60629 0.85516 0.0
C335 C 0.47307 0.59184 0.85382 0.0
C336 C 0.36334 0.5102 0.82741 0.0
C337 C 0.37766 0.52383 0.82831 0.0
C338 C 0.45889 0.59087 0.84361 0.0
C339 C 0.44462 0.5761 0.84284 0.0
C340 C 0.43239 0.56403 0.84179 0.0
C341 C 0.39117 0.52341 0.83785 0.0
C342 C 0.40589 0.53773 0.83943 0.0
C343 C 0.41805 0.54987 0.84055 0.0
H344 H 0.47146 0.62914 0.82849 0.0
H345 H 0.44767 0.6039 0.8267 0.0
H346 H 0.37531 0.48435 0.84984 0.0
H347 H 0.40059 0.50854 0.85291 0.0
C348 C 0.87199 0.37953 0.14998 0.0
C349 C 0.85953 0.36643 0.16931 0.0
C350 C 0.87269 0.39387 0.15121 0.0
C351 C 0.8479 0.47674 0.19833 0.0
C352 C 0.85943 0.49014 0.17854 0.0
C353 C 0.84867 0.46318 0.19731 0.0
H354 H 0.83826 0.35811 0.20564 0.0
H355 H 0.8395 0.38326 0.20759 0.0
H356 H 0.88148 0.50075 0.14517 0.0
H357 H 0.88267 0.4766 0.14234 0.0
C358 C 0.848 0.368 0.19067 0.0
C359 C 0.84867 0.38234 0.19163 0.0
C360 C 0.87219 0.49021 0.15916 0.0
C361 C 0.87292 0.47655 0.1579 0.0
C362 C 0.86093 0.39532 0.17169 0.0
C363 C 0.86126 0.41 0.17207 0.0
C364 C 0.86124 0.42213 0.17289 0.0
C365 C 0.86104 0.46291 0.17669 0.0
C366 C 0.86135 0.44857 0.17489 0.0
C367 C 0.86126 0.43639 0.17395 0.0
H368 H 0.88113 0.37869 0.13346 0.0
H369 H 0.88229 0.40377 0.13578 0.0
H370 H 0.83836 0.47681 0.21491 0.0
H371 H 0.83954 0.45286 0.21256 0.0
C372 C 0.48129 0.86833 0.46524 0.0
C373 C 0.48636 0.86376 0.50197 0.0
C374 C 0.46759 0.86888 0.46654 0.0
C375 C 0.36886 0.8614 0.55114 0.0
C376 C 0.36251 0.86383 0.51342 0.0
C377 C 0.38304 0.86182 0.54954 0.0
H378 H 0.48198 0.8576 0.56998 0.0
H379 H 0.45799 0.85885 0.57244 0.0
H380 H 0.36632 0.87001 0.44543 0.0
H381 H 0.39162 0.87124 0.44282 0.0
C382 C 0.47806 0.86073 0.54092 0.0
C383 C 0.46442 0.86148 0.54234 0.0
C384 C 0.37092 0.8677 0.47456 0.0
C385 C 0.38531 0.86842 0.47316 0.0
C386 C 0.45893 0.86523 0.50492 0.0
C387 C 0.44433 0.86508 0.50582 0.0
C388 C 0.43211 0.86493 0.50687 0.0
C389 C 0.3913 0.86516 0.51047 0.0
C390 C 0.40577 0.86505 0.5088 0.0
C391 C 0.41784 0.86491 0.50798 0.0
H392 H 0.4876 0.87093 0.43491 0.0
H393 H 0.46364 0.87191 0.43737 0.0
H394 H 0.36255 0.85859 0.58153 0.0
H395 H 0.38747 0.85933 0.57871 0.0
C396 C 0.61362 0.47804 0.86267 0.0
C397 C 0.61576 0.49031 0.83579 0.0
C398 C 0.59927 0.46434 0.86391 0.0
C399 C 0.49246 0.37839 0.82128 0.0
C400 C 0.49181 0.36641 0.84665 0.0
C401 C 0.50619 0.39276 0.8196 0.0
H402 H 0.60433 0.49821 0.79095 0.0
H403 H 0.57934 0.4743 0.79349 0.0
H404 H 0.50403 0.35994 0.89222 0.0
H405 H 0.52808 0.38503 0.88922 0.0
C406 C 0.60313 0.48888 0.81161 0.0
C407 C 0.58881 0.47522 0.81297 0.0
C408 C 0.50457 0.36903 0.87173 0.0
C409 C 0.51823 0.38333 0.87011 0.0
C410 C 0.58686 0.46279 0.8387 0.0
C411 C 0.57223 0.44836 0.83899 0.0
C412 C 0.56009 0.43619 0.8397 0.0
C413 C 0.51921 0.39523 0.84375 0.0
C414 C 0.53361 0.40986 0.84166 0.0
C415 C 0.54582 0.42195 0.84065 0.0
H416 H 0.62309 0.47883 0.88189 0.0
H417 H 0.59793 0.45487 0.88413 0.0
H418 H 0.4825 0.37658 0.80245 0.0
H419 H 0.5067 0.40187 0.79931 0.0
C420 C 0.05 0.41751 0.2245 0.0
C421 C 0.05999 0.42425 0.18935 0.0
C422 C 0.03408 0.40974 0.21843 0.0
C423 C 0.92831 0.35771 0.1231 0.0
C424 C 0.91825 0.3535 0.15845 0.0
C425 C 0.94421 0.36579 0.1294 0.0
H426 H 0.06151 0.4276 0.11958 0.0
H427 H 0.03311 0.41263 0.10833 0.0
H428 H 0.91657 0.35356 0.22864 0.0
H429 H 0.94498 0.36694 0.24005 0.0
C430 C 0.05393 0.4222 0.14707 0.0
C431 C 0.0378 0.41393 0.1408 0.0
C432 C 0.92422 0.35652 0.20094 0.0
C433 C 0.94035 0.36434 0.20735 0.0
C434 C 0.02785 0.40803 0.17681 0.0
C435 C 0.01125 0.40028 0.17227 0.0
C436 C -0.00272 0.39361 0.17287 0.0
C437 C 0.95035 0.36931 0.17132 0.0
C438 C 0.96695 0.37807 0.17604 0.0
C439 C 0.98092 0.3854 0.17529 0.0
H440 H 0.05453 0.41925 0.2573 0.0
H441 H 0.0266 0.40535 0.24656 0.0
H442 H 0.92384 0.35564 0.09019 0.0
H443 H 0.95173 0.36958 0.10129 0.0
C444 C 0.61962 0.05751 0.48336 0.0
C445 C 0.62926 0.06422 0.51959 0.0
C446 C 0.61157 0.04137 0.47834 0.0
C447 C 0.5658 0.92797 0.52798 0.0
C448 C 0.55674 0.92242 0.49 0.0
C449 C 0.57448 0.94409 0.53567 0.0
H450 H 0.63868 0.05993 0.57763 0.0
H451 H 0.62442 0.0318 0.56938 0.0
H452 H 0.54996 0.92901 0.4306 0.0
H453 H 0.56472 0.95657 0.44423 0.0
C454 C 0.63159 0.0549 0.54893 0.0
C455 C 0.62326 0.03887 0.54464 0.0
C456 C 0.55673 0.93299 0.46019 0.0
C457 C 0.56517 0.94877 0.4679 0.0
C458 C 0.61302 0.03201 0.50986 0.0
C459 C 0.60396 0.01537 0.50754 0.0
C460 C 0.59694 0.0014 0.50851 0.0
C461 C 0.57407 0.95448 0.50543 0.0
C462 C 0.58278 0.97107 0.51102 0.0
C463 C 0.58928 0.98504 0.51068 0.0
H464 H 0.61748 0.06459 0.46091 0.0
H465 H 0.60372 0.03621 0.45115 0.0
H466 H 0.56586 0.92001 0.55177 0.0
H467 H 0.58137 0.9484 0.56498 0.0
C468 C 0.55513 0.62351 0.81672 0.0
C469 C 0.55816 0.63326 0.85272 0.0
C470 C 0.56322 0.61548 0.81175 0.0
C471 C 0.63106 0.56996 0.8611 0.0
C472 C 0.62739 0.56076 0.82335 0.0
C473 C 0.62364 0.57864 0.86881 0.0
H474 H 0.57207 0.6429 0.91041 0.0
H475 H 0.58595 0.62867 0.90228 0.0
H476 H 0.61374 0.55375 0.76436 0.0
H477 H 0.601 0.56851 0.77798 0.0
C478 C 0.56992 0.63572 0.88187 0.0
C479 C 0.57763 0.62741 0.87765 0.0
C480 C 0.61666 0.56061 0.79381 0.0
C481 C 0.60935 0.56906 0.8015 0.0
C482 C 0.57414 0.61705 0.8431 0.0
C483 C 0.58172 0.60799 0.84077 0.0
C484 C 0.58863 0.60093 0.84151 0.0
C485 C 0.61271 0.57811 0.83877 0.0
C486 C 0.60483 0.58682 0.84422 0.0
C487 C 0.59732 0.59328 0.84367 0.0
H488 H 0.54582 0.62126 0.79441 0.0
H489 H 0.56044 0.60754 0.78475 0.0
H490 H 0.63921 0.57013 0.88469 0.0
H491 H 0.62634 0.58563 0.89794 0.0
C492 C 0.92571 0.57701 0.18572 0.0
C493 C 0.91807 0.56078 0.18439 0.0
C494 C 0.94186 0.58553 0.18139 0.0
C495 C 0.05117 0.61517 0.16668 0.0
C496 C 0.0601 0.63131 0.1625 0.0
C497 C 0.03519 0.60796 0.17045 0.0
H498 H 0.92053 0.54082 0.17079 0.0
H499 H 0.94864 0.55567 0.16364 0.0
H500 H 0.05986 0.65289 0.16752 0.0
H501 H 0.03155 0.64005 0.1783 0.0
C502 C 0.92632 0.55336 0.17266 0.0
C503 C 0.94237 0.56178 0.16909 0.0
C504 C 0.05316 0.64038 0.16989 0.0
C505 C 0.03701 0.63307 0.17515 0.0
C506 C 0.95026 0.57784 0.1749 0.0
C507 C 0.96695 0.58628 0.17475 0.0
C508 C 0.98093 0.59321 0.17456 0.0
C509 C 0.02796 0.61681 0.17332 0.0
C510 C 0.01127 0.60897 0.17372 0.0
C511 C -0.0027 0.60167 0.17391 0.0
H512 H 0.91952 0.58296 0.19454 0.0
H513 H 0.94784 0.598 0.18533 0.0
H514 H 0.05638 0.60798 0.16242 0.0
H515 H 0.02844 0.59542 0.16951 0.0
C516 C 0.42771 0.0537 0.4807 0.0
C517 C 0.42238 0.06383 0.49233 0.0
C518 C 0.41852 0.03788 0.48603 0.0
C519 C 0.34295 0.93035 0.53503 0.0
C520 C 0.3494 0.92188 0.51771 0.0
C521 C 0.35095 0.94649 0.53167 0.0
H522 H 0.40426 0.06549 0.5269 0.0
H523 H 0.38858 0.03718 0.54072 0.0
H524 H 0.3681 0.92299 0.47941 0.0
H525 H 0.38167 0.95126 0.4713 0.0
C526 C 0.40848 0.05793 0.51612 0.0
C527 C 0.39947 0.04181 0.52353 0.0
C528 C 0.36291 0.9294 0.49261 0.0
C529 C 0.37079 0.94551 0.48872 0.0
C530 C 0.40427 0.03176 0.5066 0.0
C531 C 0.39495 0.01512 0.50926 0.0
C532 C 0.38843 0.00114 0.50915 0.0
C533 C 0.3651 0.95413 0.50953 0.0
C534 C 0.37385 0.97081 0.50876 0.0
C535 C 0.38084 0.98478 0.50882 0.0
H536 H 0.43868 0.0578 0.46435 0.0
H537 H 0.42254 0.03038 0.47332 0.0
H538 H 0.33269 0.92473 0.55516 0.0
H539 H 0.34642 0.95301 0.54793 0.0
C540 C 0.41278 0.35172 0.81956 0.0
C541 C 0.42132 0.35465 0.85835 0.0
C542 C 0.40417 0.35921 0.81214 0.0
C543 C 0.35817 0.42658 0.8656 0.0
C544 C 0.34894 0.42403 0.82865 0.0
C545 C 0.36618 0.41847 0.87059 0.0
H546 H 0.42724 0.36703 0.91945 0.0
H547 H 0.41265 0.38001 0.90625 0.0
H548 H 0.34023 0.41097 0.76922 0.0
H549 H 0.35446 0.3971 0.77735 0.0
C550 C 0.42085 0.36468 0.88927 0.0
C551 C 0.41251 0.37214 0.88179 0.0
C552 C 0.347 0.41274 0.79843 0.0
C553 C 0.35531 0.40503 0.8027 0.0
C554 C 0.40416 0.36954 0.84342 0.0
C555 C 0.39556 0.37753 0.83793 0.0
C556 C 0.38904 0.38498 0.83817 0.0
C557 C 0.36514 0.40804 0.83831 0.0
C558 C 0.37418 0.40044 0.84074 0.0
C559 C 0.38127 0.39357 0.84004 0.0
H560 H 0.41311 0.34412 0.79494 0.0
H561 H 0.3977 0.3571 0.78219 0.0
H562 H 0.36003 0.43554 0.88878 0.0
H563 H 0.3737 0.42086 0.89842 0.0
loop_
_geom_bond_atom_site_label_1
_geom_bond_atom_site_label_2
_geom_bond_distance
_geom_bond_site_symmetry_2
_ccdc_geom_bond_type
O0 Cd1 2.300 . S
O0 C7 1.275 . S
Cd1 O0 2.300 . S
Cd1 O9 2.381 . S
Cd1 O10 2.378 . S
O2 Cd3 2.385 . S
O2 C7 1.255 . S
Cd3 O2 2.385 . S
Cd3 O4 2.317 . S
O4 Cd3 2.317 . S
O4 C5 1.232 . S
C5 O4 1.232 . S
C5 O6 1.218 . S
O6 C5 1.218 . S
C7 O0 1.275 . S
C7 O2 1.255 . S
C8 O9 1.258 . S
C8 O10 1.256 . S
O9 Cd1 2.381 . S
O9 C8 1.258 . S
O10 Cd1 2.378 . S
O10 C8 1.256 . S
O11 Cd12 2.300 . S
O11 C18 1.275 . S
Cd12 O11 2.300 . S
Cd12 O20 2.381 . S
Cd12 O21 2.378 . S
O13 Cd14 2.385 . S
O13 C18 1.255 . S
Cd14 O13 2.385 . S
Cd14 O15 2.317 . S
O15 Cd14 2.317 . S
O15 C16 1.232 . S
C16 O15 1.232 . S
C16 O17 1.218 . S
O17 C16 1.218 . S
C18 O11 1.275 . S
C18 O13 1.255 . S
C19 O20 1.258 . S
C19 O21 1.256 . S
O20 Cd12 2.381 . S
O20 C19 1.258 . S
O21 Cd12 2.378 . S
O21 C19 1.256 . S
O22 Cd23 2.300 . S
O22 C29 1.275 . S
Cd23 O22 2.300 . S
Cd23 O31 2.381 . S
Cd23 O32 2.378 . S
O24 Cd25 2.385 . S
O24 C29 1.255 . S
Cd25 O24 2.385 . S
Cd25 O26 2.317 . S
O26 Cd25 2.317 . S
O26 C27 1.232 . S
C27 O26 1.232 . S
C27 O28 1.218 . S
O28 C27 1.218 . S
C29 O22 1.275 . S
C29 O24 1.255 . S
C30 O31 1.258 . S
C30 O32 1.256 . S
O31 Cd23 2.381 . S
O31 C30 1.258 . S
O32 Cd23 2.378 . S
O32 C30 1.256 . S
O33 Cd34 2.300 . S
O33 C40 1.275 . S
Cd34 O33 2.300 . S
Cd34 O42 2.381 . S
Cd34 O43 2.378 . S
O35 Cd36 2.385 . S
O35 C40 1.255 . S
Cd36 O35 2.385 . S
Cd36 O37 2.317 . S
O37 Cd36 2.317 . S
O37 C38 1.232 . S
C38 O37 1.232 . S
C38 O39 1.218 . S
O39 C38 1.218 . S
C40 O33 1.275 . S
C40 O35 1.255 . S
C41 O42 1.258 . S
C41 O43 1.256 . S
O42 Cd34 2.381 . S
O42 C41 1.258 . S
O43 Cd34 2.378 . S
O43 C41 1.256 . S
O44 Cd45 2.300 . S
O44 C51 1.275 . S
Cd45 O44 2.300 . S
Cd45 O53 2.381 . S
Cd45 O54 2.378 . S
O46 Cd47 2.385 . S
O46 C51 1.255 . S
Cd47 O46 2.385 . S
Cd47 O48 2.317 . S
O48 Cd47 2.317 . S
O48 C49 1.232 . S
C49 O48 1.232 . S
C49 O50 1.218 . S
O50 C49 1.218 . S
C51 O44 1.275 . S
C51 O46 1.255 . S
C52 O53 1.258 . S
C52 O54 1.256 . S
O53 Cd45 2.381 . S
O53 C52 1.258 . S
O54 Cd45 2.378 . S
O54 C52 1.256 . S
O55 Cd56 2.300 . S
O55 C62 1.275 . S
Cd56 O55 2.300 . S
Cd56 O64 2.381 . S
Cd56 O65 2.378 . S
O57 Cd58 2.385 . S
O57 C62 1.255 . S
Cd58 O57 2.385 . S
Cd58 O59 2.317 . S
O59 Cd58 2.317 . S
O59 C60 1.232 . S
C60 O59 1.232 . S
C60 O61 1.218 . S
O61 C60 1.218 . S
C62 O55 1.275 . S
C62 O57 1.255 . S
C63 O64 1.258 . S
C63 O65 1.256 . S
O64 Cd56 2.381 . S
O64 C63 1.258 . S
O65 Cd56 2.378 . S
O65 C63 1.256 . S
O66 Cd67 2.300 . S
O66 C73 1.275 . S
Cd67 O66 2.300 . S
Cd67 O75 2.381 . S
Cd67 O76 2.378 . S
O68 Cd69 2.385 . S
O68 C73 1.255 . S
Cd69 O68 2.385 . S
Cd69 O70 2.317 . S
O70 Cd69 2.317 . S
O70 C71 1.232 . S
C71 O70 1.232 . S
C71 O72 1.218 . S
O72 C71 1.218 . S
C73 O66 1.275 . S
C73 O68 1.255 . S
C74 O75 1.258 . S
C74 O76 1.256 . S
O75 Cd67 2.381 . S
O75 C74 1.258 . S
O76 Cd67 2.378 . S
O76 C74 1.256 . S
O77 Cd78 2.300 . S
O77 C84 1.275 . S
Cd78 O77 2.300 . S
Cd78 O86 2.381 . S
Cd78 O87 2.378 . S
O79 Cd80 2.385 . S
O79 C84 1.255 . S
Cd80 O79 2.385 . S
Cd80 O81 2.317 . S
O81 Cd80 2.317 . S
O81 C82 1.232 . S
C82 O81 1.232 . S
C82 O83 1.218 . S
O83 C82 1.218 . S
C84 O77 1.275 . S
C84 O79 1.255 . S
C85 O86 1.258 . S
C85 O87 1.256 . S
O86 Cd78 2.381 . S
O86 C85 1.258 . S
O87 Cd78 2.378 . S
O87 C85 1.256 . S
O88 Cd89 2.300 . S
O88 C95 1.275 . S
Cd89 O88 2.300 . S
Cd89 O97 2.381 . S
Cd89 O98 2.378 . S
O90 Cd91 2.385 . S
O90 C95 1.255 . S
Cd91 O90 2.385 . S
Cd91 O92 2.317 . S
O92 Cd91 2.317 . S
O92 C93 1.232 . S
C93 O92 1.232 . S
C93 O94 1.218 . S
O94 C93 1.218 . S
C95 O88 1.275 . S
C95 O90 1.255 . S
C96 O97 1.258 . S
C96 O98 1.256 . S
O97 Cd89 2.381 . S
O97 C96 1.258 . S
O98 Cd89 2.378 . S
O98 C96 1.256 . S
O99 Cd100 2.300 . S
O99 C106 1.275 . S
Cd100 O99 2.300 . S
Cd100 O108 2.381 . S
Cd100 O109 2.378 . S
O101 Cd102 2.385 . S
O101 C106 1.255 . S
Cd102 O101 2.385 . S
Cd102 O103 2.317 . S
O103 Cd102 2.317 . S
O103 C104 1.232 . S
C104 O103 1.232 . S
C104 O105 1.218 . S
O105 C104 1.218 . S
C106 O99 1.275 . S
C106 O101 1.255 . S
C107 O108 1.258 . S
C107 O109 1.256 . S
O108 Cd100 2.381 . S
O108 C107 1.258 . S
O109 Cd100 2.378 . S
O109 C107 1.256 . S
O110 Cd111 2.300 . S
O110 C117 1.275 . S
Cd111 O110 2.300 . S
Cd111 O119 2.381 . S
Cd111 O120 2.378 . S
O112 Cd113 2.385 . S
O112 C117 1.255 . S
Cd113 O112 2.385 . S
Cd113 O114 2.317 . S
O114 Cd113 2.317 . S
O114 C115 1.232 . S
C115 O114 1.232 . S
C115 O116 1.218 . S
O116 C115 1.218 . S
C117 O110 1.275 . S
C117 O112 1.255 . S
C118 O119 1.258 . S
C118 O120 1.256 . S
O119 Cd111 2.381 . S
O119 C118 1.258 . S
O120 Cd111 2.378 . S
O120 C118 1.256 . S
O121 Cd122 2.300 . S
O121 C128 1.275 . S
Cd122 O121 2.300 . S
Cd122 O130 2.381 . S
Cd122 O131 2.378 . S
O123 Cd124 2.385 . S
O123 C128 1.255 . S
Cd124 O123 2.385 . S
Cd124 O125 2.317 . S
O125 Cd124 2.317 . S
O125 C126 1.232 . S
C126 O125 1.232 . S
C126 O127 1.218 . S
O127 C126 1.218 . S
C128 O121 1.275 . S
C128 O123 1.255 . S
C129 O130 1.258 . S
C129 O131 1.256 . S
O130 Cd122 2.381 . S
O130 C129 1.258 . S
O131 Cd122 2.378 . S
O131 C129 1.256 . S
C132 C133 1.332 . S
C132 C134 1.345 . S
C132 H152 0.932 . S
C133 C132 1.332 . S
C133 C142 1.332 . S
C134 C132 1.345 . S
C134 C146 1.334 . S
C134 H153 0.928 . S
C135 C136 1.332 . S
C135 C137 1.345 . S
C135 H154 0.932 . S
C136 C135 1.332 . S
C136 C144 1.332 . S
C137 C135 1.345 . S
C137 C149 1.334 . S
C137 H155 0.928 . S
H138 C142 0.932 . S
H139 C143 0.928 . S
H140 C144 0.932 . S
H141 C145 0.928 . S
C142 C133 1.332 . S
C142 H138 0.932 . S
C142 C143 1.345 . S
C143 H139 0.928 . S
C143 C142 1.345 . S
C143 C146 1.334 . S
C144 C136 1.332 . S
C144 H140 0.932 . S
C144 C145 1.345 . S
C145 H141 0.928 . S
C145 C144 1.345 . S
C145 C149 1.334 . S
C146 C134 1.334 . S
C146 C143 1.334 . S
C146 C147 1.487 . S
C147 C146 1.487 . S
C147 C148 1.185 . S
C148 C147 1.185 . S
C148 C151 1.482 1_556 S
C149 C137 1.334 . S
C149 C145 1.334 . S
C149 C150 1.487 . S
C150 C149 1.487 . S
C150 C151 1.185 . S
C151 C148 1.482 1_554 S
C151 C150 1.185 . S
H152 C132 0.932 . S
H153 C134 0.928 . S
H154 C135 0.932 . S
H155 C137 0.928 . S
C156 C157 1.332 . S
C156 C158 1.345 . S
C156 H176 0.932 . S
C157 C156 1.332 . S
C157 C166 1.332 . S
C158 C156 1.345 . S
C158 C170 1.334 . S
C158 H177 0.928 . S
C159 C160 1.332 . S
C159 C161 1.345 . S
C159 H178 0.932 . S
C160 C159 1.332 . S
C160 C168 1.332 . S
C161 C159 1.345 . S
C161 C173 1.334 . S
C161 H179 0.928 . S
H162 C166 0.932 . S
H163 C167 0.928 . S
H164 C168 0.932 . S
H165 C169 0.928 . S
C166 C157 1.332 . S
C166 H162 0.932 . S
C166 C167 1.345 . S
C167 H163 0.928 . S
C167 C166 1.345 . S
C167 C170 1.334 . S
C168 C160 1.332 . S
C168 H164 0.932 . S
C168 C169 1.345 . S
C169 H165 0.928 . S
C169 C168 1.345 . S
C169 C173 1.334 . S
C170 C158 1.334 . S
C170 C167 1.334 . S
C170 C171 1.487 . S
C171 C170 1.487 . S
C171 C172 1.185 . S
C172 C171 1.185 . S
C172 C175 1.482 . S
C173 C161 1.334 . S
C173 C169 1.334 . S
C173 C174 1.487 . S
C174 C173 1.487 . S
C174 C175 1.185 . S
C175 C172 1.482 . S
C175 C174 1.185 . S
H176 C156 0.932 . S
H177 C158 0.928 . S
H178 C159 0.932 . S
H179 C161 0.928 . S
C180 C181 1.332 . S
C180 C182 1.345 . S
C180 H200 0.932 . S
C181 C180 1.332 . S
C181 C190 1.332 . S
C182 C180 1.345 . S
C182 C194 1.334 . S
C182 H201 0.928 . S
C183 C184 1.332 . S
C183 C185 1.345 . S
C183 H202 0.932 . S
C184 C183 1.332 . S
C184 C192 1.332 . S
C185 C183 1.345 . S
C185 C197 1.334 . S
C185 H203 0.928 . S
H186 C190 0.932 . S
H187 C191 0.928 . S
H188 C192 0.932 . S
H189 C193 0.928 . S
C190 C181 1.332 . S
C190 H186 0.932 . S
C190 C191 1.345 . S
C191 H187 0.928 . S
C191 C190 1.345 . S
C191 C194 1.334 . S
C192 C184 1.332 . S
C192 H188 0.932 . S
C192 C193 1.345 . S
C193 H189 0.928 . S
C193 C192 1.345 . S
C193 C197 1.334 . S
C194 C182 1.334 . S
C194 C191 1.334 . S
C194 C195 1.487 . S
C195 C194 1.487 . S
C195 C196 1.185 . S
C196 C195 1.185 . S
C196 C199 1.482 . S
C197 C185 1.334 . S
C197 C193 1.334 . S
C197 C198 1.487 . S
C198 C197 1.487 . S
C198 C199 1.185 . S
C199 C196 1.482 . S
C199 C198 1.185 . S
H200 C180 0.932 . S
H201 C182 0.928 . S
H202 C183 0.932 . S
H203 C185 0.928 . S
C204 C205 1.332 . S
C204 C206 1.345 . S
C204 H224 0.932 . S
C205 C204 1.332 . S
C205 C214 1.332 . S
C206 C204 1.345 . S
C206 C218 1.334 . S
C206 H225 0.928 . S
C207 C208 1.332 . S
C207 C209 1.345 . S
C207 H226 0.932 . S
C208 C207 1.332 . S
C208 C216 1.332 . S
C209 C207 1.345 . S
C209 C221 1.334 . S
C209 H227 0.928 . S
H210 C214 0.932 . S
H211 C215 0.928 . S
H212 C216 0.932 . S
H213 C217 0.928 . S
C214 C205 1.332 . S
C214 H210 0.932 . S
C214 C215 1.345 . S
C215 H211 0.928 . S
C215 C214 1.345 . S
C215 C218 1.334 . S
C216 C208 1.332 . S
C216 H212 0.932 . S
C216 C217 1.345 . S
C217 H213 0.928 . S
C217 C216 1.345 . S
C217 C221 1.334 . S
C218 C206 1.334 . S
C218 C215 1.334 . S
C218 C219 1.487 . S
C219 C218 1.487 . S
C219 C220 1.185 . S
C220 C219 1.185 . S
C220 C223 1.482 1_556 S
C221 C209 1.334 . S
C221 C217 1.334 . S
C221 C222 1.487 . S
C222 C221 1.487 . S
C222 C223 1.185 . S
C223 C220 1.482 1_554 S
C223 C222 1.185 . S
H224 C204 0.932 . S
H225 C206 0.928 . S
H226 C207 0.932 . S
H227 C209 0.928 . S
C228 C229 1.332 . S
C228 C230 1.345 . S
C228 H248 0.932 . S
C229 C228 1.332 . S
C229 C238 1.332 . S
C230 C228 1.345 . S
C230 C242 1.334 . S
C230 H249 0.928 . S
C231 C232 1.332 . S
C231 C233 1.345 . S
C231 H250 0.932 . S
C232 C231 1.332 . S
C232 C240 1.332 . S
C233 C231 1.345 . S
C233 C245 1.334 . S
C233 H251 0.928 . S
H234 C238 0.932 . S
H235 C239 0.928 . S
H236 C240 0.932 . S
H237 C241 0.928 . S
C238 C229 1.332 . S
C238 H234 0.932 . S
C238 C239 1.345 . S
C239 H235 0.928 . S
C239 C238 1.345 . S
C239 C242 1.334 . S
C240 C232 1.332 . S
C240 H236 0.932 . S
C240 C241 1.345 . S
C241 H237 0.928 . S
C241 C240 1.345 . S
C241 C245 1.334 . S
C242 C230 1.334 . S
C242 C239 1.334 . S
C242 C243 1.487 . S
C243 C242 1.487 . S
C243 C244 1.185 . S
C244 C243 1.185 . S
C244 C247 1.482 . S
C245 C233 1.334 . S
C245 C241 1.334 . S
C245 C246 1.487 . S
C246 C245 1.487 . S
C246 C247 1.185 . S
C247 C244 1.482 . S
C247 C246 1.185 . S
H248 C228 0.932 . S
H249 C230 0.928 . S
H250 C231 0.932 . S
H251 C233 0.928 . S
C252 C253 1.332 . S
C252 C254 1.345 . S
C252 H272 0.932 . S
C253 C252 1.332 . S
C253 C262 1.332 . S
C254 C252 1.345 . S
C254 C266 1.334 . S
C254 H273 0.928 . S
C255 C256 1.332 . S
C255 C257 1.345 . S
C255 H274 0.932 . S
C256 C255 1.332 . S
C256 C264 1.332 . S
C257 C255 1.345 . S
C257 C269 1.334 . S
C257 H275 0.928 . S
H258 C262 0.932 . S
H259 C263 0.928 . S
H260 C264 0.932 . S
H261 C265 0.928 . S
C262 C253 1.332 . S
C262 H258 0.932 . S
C262 C263 1.345 . S
C263 H259 0.928 . S
C263 C262 1.345 . S
C263 C266 1.334 . S
C264 C256 1.332 . S
C264 H260 0.932 . S
C264 C265 1.345 . S
C265 H261 0.928 . S
C265 C264 1.345 . S
C265 C269 1.334 . S
C266 C254 1.334 . S
C266 C263 1.334 . S
C266 C267 1.487 . S
C267 C266 1.487 . S
C267 C268 1.185 . S
C268 C267 1.185 . S
C268 C271 1.482 . S
C269 C257 1.334 . S
C269 C265 1.334 . S
C269 C270 1.487 . S
C270 C269 1.487 . S
C270 C271 1.185 . S
C271 C268 1.482 . S
C271 C270 1.185 . S
H272 C252 0.932 . S
H273 C254 0.928 . S
H274 C255 0.932 . S
H275 C257 0.928 . S
C276 C277 1.332 . S
C276 C278 1.345 . S
C276 H296 0.932 . S
C277 C276 1.332 . S
C277 C286 1.332 . S
C278 C276 1.345 . S
C278 C290 1.334 . S
C278 H297 0.928 . S
C279 C280 1.332 . S
C279 C281 1.345 . S
C279 H298 0.932 . S
C280 C279 1.332 . S
C280 C288 1.332 . S
C281 C279 1.345 . S
C281 C293 1.334 . S
C281 H299 0.928 . S
H282 C286 0.932 . S
H283 C287 0.928 . S
H284 C288 0.932 . S
H285 C289 0.928 . S
C286 C277 1.332 . S
C286 H282 0.932 . S
C286 C287 1.345 . S
C287 H283 0.928 . S
C287 C286 1.345 . S
C287 C290 1.334 . S
C288 C280 1.332 . S
C288 H284 0.932 . S
C288 C289 1.345 . S
C289 H285 0.928 . S
C289 C288 1.345 . S
C289 C293 1.334 . S
C290 C278 1.334 . S
C290 C287 1.334 . S
C290 C291 1.487 . S
C291 C290 1.487 . S
C291 C292 1.185 . S
C292 C291 1.185 . S
C292 C295 1.482 . S
C293 C281 1.334 . S
C293 C289 1.334 . S
C293 C294 1.487 . S
C294 C293 1.487 . S
C294 C295 1.185 . S
C295 C292 1.482 . S
C295 C294 1.185 . S
H296 C276 0.932 . S
H297 C278 0.928 . S
H298 C279 0.932 . S
H299 C281 0.928 . S
C300 C301 1.332 . S
C300 C302 1.345 . S
C300 H320 0.932 . S
C301 C300 1.332 . S
C301 C310 1.332 . S
C302 C300 1.345 . S
C302 C314 1.334 . S
C302 H321 0.928 . S
C303 C304 1.332 . S
C303 C305 1.345 . S
C303 H322 0.932 . S
C304 C303 1.332 . S
C304 C312 1.332 . S
C305 C303 1.345 . S
C305 C317 1.334 . S
C305 H323 0.928 . S
H306 C310 0.932 . S
H307 C311 0.928 . S
H308 C312 0.932 . S
H309 C313 0.928 . S
C310 C301 1.332 . S
C310 H306 0.932 . S
C310 C311 1.345 . S
C311 H307 0.928 . S
C311 C310 1.345 . S
C311 C314 1.334 . S
C312 C304 1.332 . S
C312 H308 0.932 . S
C312 C313 1.345 . S
C313 H309 0.928 . S
C313 C312 1.345 . S
C313 C317 1.334 . S
C314 C302 1.334 . S
C314 C311 1.334 . S
C314 C315 1.487 . S
C315 C314 1.487 . S
C315 C316 1.185 . S
C316 C315 1.185 . S
C316 C319 1.482 . S
C317 C305 1.334 . S
C317 C313 1.334 . S
C317 C318 1.487 . S
C318 C317 1.487 . S
C318 C319 1.185 . S
C319 C316 1.482 . S
C319 C318 1.185 . S
H320 C300 0.932 . S
H321 C302 0.928 . S
H322 C303 0.932 . S
H323 C305 0.928 . S
C324 C325 1.332 . S
C324 C326 1.345 . S
C324 H344 0.932 . S
C325 C324 1.332 . S
C325 C334 1.332 . S
C326 C324 1.345 . S
C326 C338 1.334 . S
C326 H345 0.928 . S
C327 C328 1.332 . S
C327 C329 1.345 . S
C327 H346 0.932 . S
C328 C327 1.332 . S
C328 C336 1.332 . S
C329 C327 1.345 . S
C329 C341 1.334 . S
C329 H347 0.928 . S
H330 C334 0.932 . S
H331 C335 0.928 . S
H332 C336 0.932 . S
H333 C337 0.928 . S
C334 C325 1.332 . S
C334 H330 0.932 . S
C334 C335 1.345 . S
C335 H331 0.928 . S
C335 C334 1.345 . S
C335 C338 1.334 . S
C336 C328 1.332 . S
C336 H332 0.932 . S
C336 C337 1.345 . S
C337 H333 0.928 . S
C337 C336 1.345 . S
C337 C341 1.334 . S
C338 C326 1.334 . S
C338 C335 1.334 . S
C338 C339 1.487 . S
C339 C338 1.487 . S
C339 C340 1.185 . S
C340 C339 1.185 . S
C340 C343 1.482 . S
C341 C329 1.334 . S
C341 C337 1.334 . S
C341 C342 1.487 . S
C342 C341 1.487 . S
C342 C343 1.185 . S
C343 C340 1.482 . S
C343 C342 1.185 . S
H344 C324 0.932 . S
H345 C326 0.928 . S
H346 C327 0.932 . S
H347 C329 0.928 . S
C348 C349 1.332 . S
C348 C350 1.345 . S
C348 H368 0.932 . S
C349 C348 1.332 . S
C349 C358 1.332 . S
C350 C348 1.345 . S
C350 C362 1.334 . S
C350 H369 0.928 . S
C351 C352 1.332 . S
C351 C353 1.345 . S
C351 H370 0.932 . S
C352 C351 1.332 . S
C352 C360 1.332 . S
C353 C351 1.345 . S
C353 C365 1.334 . S
C353 H371 0.928 . S
H354 C358 0.932 . S
H355 C359 0.928 . S
H356 C360 0.932 . S
H357 C361 0.928 . S
C358 C349 1.332 . S
C358 H354 0.932 . S
C358 C359 1.345 . S
C359 H355 0.928 . S
C359 C358 1.345 . S
C359 C362 1.334 . S
C360 C352 1.332 . S
C360 H356 0.932 . S
C360 C361 1.345 . S
C361 H357 0.928 . S
C361 C360 1.345 . S
C361 C365 1.334 . S
C362 C350 1.334 . S
C362 C359 1.334 . S
C362 C363 1.487 . S
C363 C362 1.487 . S
C363 C364 1.185 . S
C364 C363 1.185 . S
C364 C367 1.482 . S
C365 C353 1.334 . S
C365 C361 1.334 . S
C365 C366 1.487 . S
C366 C365 1.487 . S
C366 C367 1.185 . S
C367 C364 1.482 . S
C367 C366 1.185 . S
H368 C348 0.932 . S
H369 C350 0.928 . S
H370 C351 0.932 . S
H371 C353 0.928 . S
C372 C373 1.332 . S
C372 C374 1.345 . S
C372 H392 0.932 . S
C373 C372 1.332 . S
C373 C382 1.332 . S
C374 C372 1.345 . S
C374 C386 1.334 . S
C374 H393 0.928 . S
C375 C376 1.332 . S
C375 C377 1.345 . S
C375 H394 0.932 . S
C376 C375 1.332 . S
C376 C384 1.332 . S
C377 C375 1.345 . S
C377 C389 1.334 . S
C377 H395 0.928 . S
H378 C382 0.932 . S
H379 C383 0.928 . S
H380 C384 0.932 . S
H381 C385 0.928 . S
C382 C373 1.332 . S
C382 H378 0.932 . S
C382 C383 1.345 . S
C383 H379 0.928 . S
C383 C382 1.345 . S
C383 C386 1.334 . S
C384 C376 1.332 . S
C384 H380 0.932 . S
C384 C385 1.345 . S
C385 H381 0.928 . S
C385 C384 1.345 . S
C385 C389 1.334 . S
C386 C374 1.334 . S
C386 C383 1.334 . S
C386 C387 1.487 . S
C387 C386 1.487 . S
C387 C388 1.185 . S
C388 C387 1.185 . S
C388 C391 1.482 . S
C389 C377 1.334 . S
C389 C385 1.334 . S
C389 C390 1.487 . S
C390 C389 1.487 . S
C390 C391 1.185 . S
C391 C388 1.482 . S
C391 C390 1.185 . S
H392 C372 0.932 . S
H393 C374 0.928 . S
H394 C375 0.932 . S
H395 C377 0.928 . S
C396 C397 1.332 . S
C396 C398 1.345 . S
C396 H416 0.932 . S
C397 C396 1.332 . S
C397 C406 1.332 . S
C398 C396 1.345 . S
C398 C410 1.334 . S
C398 H417 0.928 . S
C399 C400 1.332 . S
C399 C401 1.345 . S
C399 H418 0.932 . S
C400 C399 1.332 . S
C400 C408 1.332 . S
C401 C399 1.345 . S
C401 C413 1.334 . S
C401 H419 0.928 . S
H402 C406 0.932 . S
H403 C407 0.928 . S
H404 C408 0.932 . S
H405 C409 0.928 . S
C406 C397 1.332 . S
C406 H402 0.932 . S
C406 C407 1.345 . S
C407 H403 0.928 . S
C407 C406 1.345 . S
C407 C410 1.334 . S
C408 C400 1.332 . S
C408 H404 0.932 . S
C408 C409 1.345 . S
C409 H405 0.928 . S
C409 C408 1.345 . S
C409 C413 1.334 . S
C410 C398 1.334 . S
C410 C407 1.334 . S
C410 C411 1.487 . S
C411 C410 1.487 . S
C411 C412 1.185 . S
C412 C411 1.185 . S
C412 C415 1.482 . S
C413 C401 1.334 . S
C413 C409 1.334 . S
C413 C414 1.487 . S
C414 C413 1.487 . S
C414 C415 1.185 . S
C415 C412 1.482 . S
C415 C414 1.185 . S
H416 C396 0.932 . S
H417 C398 0.928 . S
H418 C399 0.932 . S
H419 C401 0.928 . S
C420 C421 1.332 . S
C420 C422 1.345 . S
C420 H440 0.932 . S
C421 C420 1.332 . S
C421 C430 1.332 . S
C422 C420 1.345 . S
C422 C434 1.334 . S
C422 H441 0.928 . S
C423 C424 1.332 . S
C423 C425 1.345 . S
C423 H442 0.932 . S
C424 C423 1.332 . S
C424 C432 1.332 . S
C425 C423 1.345 . S
C425 C437 1.334 . S
C425 H443 0.928 . S
H426 C430 0.932 . S
H427 C431 0.928 . S
H428 C432 0.932 . S
H429 C433 0.928 . S
C430 C421 1.332 . S
C430 H426 0.932 . S
C430 C431 1.345 . S
C431 H427 0.928 . S
C431 C430 1.345 . S
C431 C434 1.334 . S
C432 C424 1.332 . S
C432 H428 0.932 . S
C432 C433 1.345 . S
C433 H429 0.928 . S
C433 C432 1.345 . S
C433 C437 1.334 . S
C434 C422 1.334 . S
C434 C431 1.334 . S
C434 C435 1.487 . S
C435 C434 1.487 . S
C435 C436 1.185 . S
C436 C435 1.185 . S
C436 C439 1.482 1_455 S
C437 C425 1.334 . S
C437 C433 1.334 . S
C437 C438 1.487 . S
C438 C437 1.487 . S
C438 C439 1.185 . S
C439 C436 1.482 1_655 S
C439 C438 1.185 . S
H440 C420 0.932 . S
H441 C422 0.928 . S
H442 C423 0.932 . S
H443 C425 0.928 . S
C444 C445 1.332 . S
C444 C446 1.345 . S
C444 H464 0.932 . S
C445 C444 1.332 . S
C445 C454 1.332 . S
C446 C444 1.345 . S
C446 C458 1.334 . S
C446 H465 0.928 . S
C447 C448 1.332 . S
C447 C449 1.345 . S
C447 H466 0.932 . S
C448 C447 1.332 . S
C448 C456 1.332 . S
C449 C447 1.345 . S
C449 C461 1.334 . S
C449 H467 0.928 . S
H450 C454 0.932 . S
H451 C455 0.928 . S
H452 C456 0.932 . S
H453 C457 0.928 . S
C454 C445 1.332 . S
C454 H450 0.932 . S
C454 C455 1.345 . S
C455 H451 0.928 . S
C455 C454 1.345 . S
C455 C458 1.334 . S
C456 C448 1.332 . S
C456 H452 0.932 . S
C456 C457 1.345 . S
C457 H453 0.928 . S
C457 C456 1.345 . S
C457 C461 1.334 . S
C458 C446 1.334 . S
C458 C455 1.334 . S
C458 C459 1.487 . S
C459 C458 1.487 . S
C459 C460 1.185 . S
C460 C459 1.185 . S
C460 C463 1.482 1_545 S
C461 C449 1.334 . S
C461 C457 1.334 . S
C461 C462 1.487 . S
C462 C461 1.487 . S
C462 C463 1.185 . S
C463 C460 1.482 1_565 S
C463 C462 1.185 . S
H464 C444 0.932 . S
H465 C446 0.928 . S
H466 C447 0.932 . S
H467 C449 0.928 . S
C468 C469 1.332 . S
C468 C470 1.345 . S
C468 H488 0.932 . S
C469 C468 1.332 . S
C469 C478 1.332 . S
C470 C468 1.345 . S
C470 C482 1.334 . S
C470 H489 0.928 . S
C471 C472 1.332 . S
C471 C473 1.345 . S
C471 H490 0.932 . S
C472 C471 1.332 . S
C472 C480 1.332 . S
C473 C471 1.345 . S
C473 C485 1.334 . S
C473 H491 0.928 . S
H474 C478 0.932 . S
H475 C479 0.928 . S
H476 C480 0.932 . S
H477 C481 0.928 . S
C478 C469 1.332 . S
C478 H474 0.932 . S
C478 C479 1.345 . S
C479 H475 0.928 . S
C479 C478 1.345 . S
C479 C482 1.334 . S
C480 C472 1.332 . S
C480 H476 0.932 . S
C480 C481 1.345 . S
C481 H477 0.928 . S
C481 C480 1.345 . S
C481 C485 1.334 . S
C482 C470 1.334 . S
C482 C479 1.334 . S
C482 C483 1.487 . S
C483 C482 1.487 . S
C483 C484 1.185 . S
C484 C483 1.185 . S
C484 C487 1.482 . S
C485 C473 1.334 . S
C485 C481 1.334 . S
C485 C486 1.487 . S
C486 C485 1.487 . S
C486 C487 1.185 . S
C487 C484 1.482 . S
C487 C486 1.185 . S
H488 C468 0.932 . S
H489 C470 0.928 . S
H490 C471 0.932 . S
H491 C473 0.928 . S
C492 C493 1.332 . S
C492 C494 1.345 . S
C492 H512 0.932 . S
C493 C492 1.332 . S
C493 C502 1.332 . S
C494 C492 1.345 . S
C494 C506 1.334 . S
C494 H513 0.928 . S
C495 C496 1.332 . S
C495 C497 1.345 . S
C495 H514 0.932 . S
C496 C495 1.332 . S
C496 C504 1.332 . S
C497 C495 1.345 . S
C497 C509 1.334 . S
C497 H515 0.928 . S
H498 C502 0.932 . S
H499 C503 0.928 . S
H500 C504 0.932 . S
H501 C505 0.928 . S
C502 C493 1.332 . S
C502 H498 0.932 . S
C502 C503 1.345 . S
C503 H499 0.928 . S
C503 C502 1.345 . S
C503 C506 1.334 . S
C504 C496 1.332 . S
C504 H500 0.932 . S
C504 C505 1.345 . S
C505 H501 0.928 . S
C505 C504 1.345 . S
C505 C509 1.334 . S
C506 C494 1.334 . S
C506 C503 1.334 . S
C506 C507 1.487 . S
C507 C506 1.487 . S
C507 C508 1.185 . S
C508 C507 1.185 . S
C508 C511 1.482 1_655 S
C509 C497 1.334 . S
C509 C505 1.334 . S
C509 C510 1.487 . S
C510 C509 1.487 . S
C510 C511 1.185 . S
C511 C508 1.482 1_455 S
C511 C510 1.185 . S
H512 C492 0.932 . S
H513 C494 0.928 . S
H514 C495 0.932 . S
H515 C497 0.928 . S
C516 C517 1.332 . S
C516 C518 1.345 . S
C516 H536 0.932 . S
C517 C516 1.332 . S
C517 C526 1.332 . S
C518 C516 1.345 . S
C518 C530 1.334 . S
C518 H537 0.928 . S
C519 C520 1.332 . S
C519 C521 1.345 . S
C519 H538 0.932 . S
C520 C519 1.332 . S
C520 C528 1.332 . S
C521 C519 1.345 . S
C521 C533 1.334 . S
C521 H539 0.928 . S
H522 C526 0.932 . S
H523 C527 0.928 . S
H524 C528 0.932 . S
H525 C529 0.928 . S
C526 C517 1.332 . S
C526 H522 0.932 . S
C526 C527 1.345 . S
C527 H523 0.928 . S
C527 C526 1.345 . S
C527 C530 1.334 . S
C528 C520 1.332 . S
C528 H524 0.932 . S
C528 C529 1.345 . S
C529 H525 0.928 . S
C529 C528 1.345 . S
C529 C533 1.334 . S
C530 C518 1.334 . S
C530 C527 1.334 . S
C530 C531 1.487 . S
C531 C530 1.487 . S
C531 C532 1.185 . S
C532 C531 1.185 . S
C532 C535 1.482 1_545 S
C533 C521 1.334 . S
C533 C529 1.334 . S
C533 C534 1.487 . S
C534 C533 1.487 . S
C534 C535 1.185 . S
C535 C532 1.482 1_565 S
C535 C534 1.185 . S
H536 C516 0.932 . S
H537 C518 0.928 . S
H538 C519 0.932 . S
H539 C521 0.928 . S
C540 C541 1.332 . S
C540 C542 1.345 . S
C540 H560 0.932 . S
C541 C540 1.332 . S
C541 C550 1.332 . S
C542 C540 1.345 . S
C542 C554 1.334 . S
C542 H561 0.928 . S
C543 C544 1.332 . S
C543 C545 1.345 . S
C543 H562 0.932 . S
C544 C543 1.332 . S
C544 C552 1.332 . S
C545 C543 1.345 . S
C545 C557 1.334 . S
C545 H563 0.928 . S
H546 C550 0.932 . S
H547 C551 0.928 . S
H548 C552 0.932 . S
H549 C553 0.928 . S
C550 C541 1.332 . S
C550 H546 0.932 . S
C550 C551 1.345 . S
C551 H547 0.928 . S
C551 C550 1.345 . S
C551 C554 1.334 . S
C552 C544 1.332 . S
C552 H548 0.932 . S
C552 C553 1.345 . S
C553 H549 0.928 . S
C553 C552 1.345 . S
C553 C557 1.334 . S
C554 C542 1.334 . S
C554 C551 1.334 . S
C554 C555 1.487 . S
C555 C554 1.487 . S
C555 C556 1.185 . S
C556 C555 1.185 . S
C556 C559 1.482 . S
C557 C545 1.334 . S
C557 C553 1.334 . S
C557 C558 1.487 . S
C558 C557 1.487 . S
C558 C559 1.185 . S
C559 C556 1.482 . S
C559 C558 1.185 . S
H560 C540 0.932 . S
H561 C542 0.928 . S
H562 C543 0.932 . S
H563 C545 0.928 . S
C133 C118 1.587 . S
C136 C8 1.587 . S
C157 C19 1.588 . S
C160 C129 1.588 . S
C181 C74 1.588 . S
C184 C30 1.588 . S
C205 C85 1.587 . S
C208 C41 1.587 . S
C229 C96 1.587 . S
C232 C52 1.587 . S
C253 C63 1.587 . S
C256 C107 1.587 . S
C277 C95 1.605 . S
C280 C7 1.605 . S
C301 C106 1.605 . S
C304 C18 1.605 . S
C325 C29 1.605 . S
C328 C117 1.605 . S
C349 C128 1.605 . S
C352 C40 1.605 . S
C373 C73 1.605 . S
C376 C51 1.605 . S
C397 C84 1.605 . S
C400 C62 1.605 . S
C421 C5 1.399 . S
C424 C126 1.399 . S
C445 C16 1.399 . S
C448 C71 1.399 . S
C469 C27 1.398 . S
C472 C82 1.398 . S
C493 C38 1.398 . S
C496 C93 1.398 . S
C517 C104 1.398 . S
C520 C49 1.398 . S
C541 C60 1.398 . S
C544 C115 1.398 . S
