# Generated by pormake.
# Topology wni, (7)-cn, num edge types: 1
# Building blocks:
#     Node 0, Type 0, BuildingBlock: NUHQUE_clean_sbu_2, # of connection points: 7
#     Node 1, Type 0, BuildingBlock: NUHQUE_clean_sbu_2, # of connection points: 7
#     Node 2, Type 0, BuildingBlock: NUHQUE_clean_sbu_2, # of connection points: 7
#     Node 3, Type 0, BuildingBlock: NUHQUE_clean_sbu_2, # of connection points: 7
#     Node 4, Type 0, BuildingBlock: NUHQUE_clean_sbu_2, # of connection points: 7
#     Node 5, Type 0, BuildingBlock: NUHQUE_clean_sbu_2, # of connection points: 7
#     Edge 6, Type (0, 0), BuildingBlock: MIFKUJ_clean_linker_0, # of connection points: 2
#     Edge 7, Type (0, 0), BuildingBlock: MIFKUJ_clean_linker_0, # of connection points: 2
#     Edge 8, Type (0, 0), BuildingBlock: MIFKUJ_clean_linker_0, # of connection points: 2
#     Edge 9, Type (0, 0), BuildingBlock: MIFKUJ_clean_linker_0, # of connection points: 2
#     Edge 10, Type (0, 0), BuildingBlock: MIFKUJ_clean_linker_0, # of connection points: 2
#     Edge 11, Type (0, 0), BuildingBlock: MIFKUJ_clean_linker_0, # of connection points: 2
#     Edge 12, Type (0, 0), BuildingBlock: MIFKUJ_clean_linker_0, # of connection points: 2
#     Edge 13, Type (0, 0), BuildingBlock: MIFKUJ_clean_linker_0, # of connection points: 2
#     Edge 14, Type (0, 0), BuildingBlock: MIFKUJ_clean_linker_0, # of connection points: 2
#     Edge 15, Type (0, 0), BuildingBlock: MIFKUJ_clean_linker_0, # of connection points: 2
#     Edge 16, Type (0, 0), BuildingBlock: MIFKUJ_clean_linker_0, # of connection points: 2
#     Edge 17, Type (0, 0), BuildingBlock: MIFKUJ_clean_linker_0, # of connection points: 2
#     Edge 18, Type (0, 0), BuildingBlock: MIFKUJ_clean_linker_0, # of connection points: 2
#     Edge 19, Type (0, 0), BuildingBlock: MIFKUJ_clean_linker_0, # of connection points: 2
#     Edge 20, Type (0, 0), BuildingBlock: MIFKUJ_clean_linker_0, # of connection points: 2
#     Edge 21, Type (0, 0), BuildingBlock: MIFKUJ_clean_linker_0, # of connection points: 2
#     Edge 22, Type (0, 0), BuildingBlock: MIFKUJ_clean_linker_0, # of connection points: 2
#     Edge 23, Type (0, 0), BuildingBlock: MIFKUJ_clean_linker_0, # of connection points: 2
#     Edge 24, Type (0, 0), BuildingBlock: MIFKUJ_clean_linker_0, # of connection points: 2
#     Edge 25, Type (0, 0), BuildingBlock: MIFKUJ_clean_linker_0, # of connection points: 2
#     Edge 26, Type (0, 0), BuildingBlock: MIFKUJ_clean_linker_0, # of connection points: 2
# Relax obj value: 0.259
# Max RMSD: 0.302
# Mean RMSD: 0.302
data_MOF--net-wni--node1-NUHQUE_clean_sbu_2--edge1-MIFKUJ_clean_linker_0
_symmetry_space_group_name_H-M    P1
_symmetry_Int_Tables_number       1
_symmetry_cell_setting            triclinic
loop_
_symmetry_equiv_pos_as_xyz
'x, y, z'
_cell_length_a     44.857052
_cell_length_b     44.90149
_cell_length_c     38.046693
_cell_angle_alpha  90.016989
_cell_angle_beta   89.919681
_cell_angle_gamma 120.23157
loop_
_atom_site_label
_atom_site_type_symbol
_atom_site_fract_x
_atom_site_fract_y
_atom_site_fract_z
_atom_type_partial_charge
O0 O 0.2564 0.47835 0.0393 0.0
Tb1 Tb 0.23999 0.44238 0.0828 0.0
Eu2 Eu 0.16434 0.38399 0.12289 0.0
C3 C 0.25884 0.46939 0.00704 0.0
O4 O 0.24777 0.43685 0.99988 0.0
C5 C 0.20976 0.36535 0.07972 0.0
O6 O 0.12308 0.35679 0.16428 0.0
C7 C 0.1362 0.38891 0.06521 0.0
C8 C 0.13101 0.35672 0.19758 0.0
O9 O 0.16362 0.37055 0.20646 0.0
C10 C 0.20381 0.46426 0.14049 0.0
C11 C 0.1115 0.39884 0.05281 0.0
C12 C 0.09803 0.38937 0.01873 0.0
C13 C 0.07314 0.39703 0.00649 0.0
C14 C 0.06203 0.41442 0.02877 0.0
C15 C 0.07567 0.42438 0.06271 0.0
C16 C 0.1006 0.41674 0.07471 0.0
O17 O 0.21104 0.39072 0.06135 0.0
O18 O 0.19724 0.3603 0.11178 0.0
O19 O 0.29372 0.45609 0.07823 0.0
O20 O 0.2693 0.44078 0.12827 0.0
C21 C 0.29792 0.45071 0.1109 0.0
O22 O 0.18797 0.4331 0.15418 0.0
O23 O 0.21927 0.47094 0.10964 0.0
O24 O 0.12338 0.36055 0.08402 0.0
O25 O 0.1657 0.41383 0.07724 0.0
H26 H 0.10647 0.37545 0.002 0.0
H27 H 0.04303 0.42076 0.01953 0.0
H28 H 0.11086 0.42398 0.1011 0.0
O29 O 0.53078 0.77828 0.68944 0.0
Tb30 Tb 0.55157 0.78512 0.74204 0.0
Eu31 Eu 0.6091 0.77828 0.79557 0.0
C32 C 0.5357 0.80574 0.67216 0.0
O33 O 0.5554 0.83622 0.68631 0.0
C34 C 0.62873 0.8384 0.74313 0.0
O35 O 0.63231 0.77332 0.84634 0.0
C36 C 0.61893 0.7426 0.74806 0.0
C37 C 0.61499 0.74512 0.8653 0.0
O38 O 0.58432 0.72113 0.85471 0.0
C39 C 0.52805 0.73081 0.79995 0.0
C40 C 0.61416 0.70857 0.73955 0.0
C41 C 0.61587 0.70105 0.70413 0.0
C42 C 0.61276 0.66954 0.69427 0.0
C43 C 0.60809 0.64557 0.72041 0.0
C44 C 0.60658 0.65271 0.75619 0.0
C45 C 0.6093 0.68432 0.76566 0.0
O46 O 0.60471 0.81356 0.72389 0.0
O47 O 0.63137 0.83302 0.77674 0.0
O48 O 0.5621 0.8262 0.77989 0.0
O49 O 0.51475 0.80242 0.75182 0.0
C50 C 0.53329 0.82596 0.77471 0.0
O51 O 0.55528 0.75224 0.81834 0.0
O52 O 0.52769 0.73429 0.76575 0.0
O53 O 0.64161 0.76047 0.7725 0.0
O54 O 0.59129 0.74557 0.74894 0.0
H55 H 0.61946 0.7198 0.68413 0.0
H56 H 0.60552 0.62112 0.71279 0.0
H57 H 0.60817 0.69024 0.79308 0.0
O58 O 0.21611 0.74036 0.36908 0.0
Tb59 Tb 0.2008 0.75583 0.41675 0.0
Eu60 Eu 0.23208 0.83877 0.46185 0.0
C61 C 0.19666 0.73107 0.34077 0.0
O62 O 0.16977 0.73531 0.33991 0.0
C63 C 0.163 0.79581 0.42248 0.0
O64 O 0.24801 0.87451 0.50878 0.0
C65 C 0.26654 0.8719 0.4063 0.0
C66 C 0.28053 0.89049 0.5188 0.0
O67 O 0.30251 0.88525 0.50089 0.0
C68 C 0.26328 0.78837 0.47088 0.0
C69 C 0.30087 0.89484 0.39099 0.0
C70 C 0.30312 0.89876 0.35437 0.0
C71 C 0.3346 0.92137 0.33808 0.0
C72 C 0.36413 0.93982 0.35889 0.0
C73 C 0.36244 0.93721 0.39582 0.0
C74 C 0.33052 0.91418 0.41176 0.0
O75 O 0.18387 0.79146 0.40169 0.0
O76 O 0.17472 0.81163 0.45265 0.0
O77 O 0.15707 0.70375 0.41063 0.0
O78 O 0.17095 0.72439 0.46213 0.0
C79 C 0.14952 0.69746 0.44373 0.0
O80 O 0.25229 0.80708 0.48693 0.0
O81 O 0.25112 0.77298 0.44039 0.0
O82 O 0.25511 0.88517 0.42987 0.0
O83 O 0.25797 0.83981 0.41285 0.0
H84 H 0.28012 0.8844 0.33849 0.0
H85 H 0.38846 0.95711 0.34615 0.0
H86 H 0.32848 0.91209 0.44007 0.0
O87 O 0.48834 0.28988 0.98821 0.0
Tb88 Tb 0.46927 0.26831 0.93638 0.0
Eu89 Eu 0.40626 0.15938 0.8858 0.0
C90 C 0.48448 0.31559 0.99909 0.0
O91 O 0.46671 0.32526 0.97958 0.0
C92 C 0.39198 0.20983 0.92623 0.0
O93 O 0.38637 0.1284 0.83575 0.0
C94 C 0.41634 0.12484 0.93432 0.0
C95 C 0.40478 0.11705 0.81977 0.0
O96 O 0.43481 0.12468 0.83305 0.0
C97 C 0.48342 0.22163 0.88951 0.0
C98 C 0.41333 0.0911 0.94099 0.0
C99 C 0.40151 0.07561 0.97402 0.0
C100 C 0.39966 0.0442 0.98213 0.0
C101 C 0.40901 0.028 0.95638 0.0
C102 C 0.42103 0.04323 0.92329 0.0
C103 C 0.42331 0.07492 0.91572 0.0
O104 O 0.42348 0.2176 0.93443 0.0
O105 O 0.37465 0.18225 0.90653 0.0
O106 O 0.44963 0.29909 0.91154 0.0
O107 O 0.49964 0.30804 0.8981 0.0
C108 C 0.47732 0.31791 0.89277 0.0
O109 O 0.45231 0.21307 0.87843 0.0
O110 O 0.49822 0.24612 0.91341 0.0
O111 O 0.3873 0.12514 0.93113 0.0
O112 O 0.44056 0.14572 0.91234 0.0
H113 H 0.39481 0.08865 0.9938 0.0
H114 H 0.40766 0.00374 0.96236 0.0
H115 H 0.43288 0.08687 0.89032 0.0
O116 O 0.7304 0.22601 0.6265 0.0
Tb117 Tb 0.75089 0.21347 0.58077 0.0
Eu118 Eu 0.83496 0.23872 0.54138 0.0
C119 C 0.7255 0.20915 0.65621 0.0
O120 O 0.73707 0.18761 0.65936 0.0
C121 C 0.78673 0.17178 0.58165 0.0
O122 O 0.8739 0.24983 0.49811 0.0
C123 C 0.86839 0.27141 0.5975 0.0
C124 C 0.86742 0.25247 0.46486 0.0
O125 O 0.83691 0.24744 0.45611 0.0
C126 C 0.7913 0.27741 0.52913 0.0
C127 C 0.89643 0.3053 0.60901 0.0
C128 C 0.90828 0.30862 0.64366 0.0
C129 C 0.93684 0.33946 0.65523 0.0
C130 C 0.95321 0.36721 0.63175 0.0
C131 C 0.94183 0.36443 0.59682 0.0
C132 C 0.91309 0.33325 0.5856 0.0
O133 O 0.78279 0.19388 0.60066 0.0
O134 O 0.80282 0.18166 0.5514 0.0
O135 O 0.69858 0.16962 0.58301 0.0
O136 O 0.72226 0.18648 0.53297 0.0
C137 C 0.69433 0.16404 0.54948 0.0
O138 O 0.80952 0.26497 0.51461 0.0
O139 O 0.77299 0.26497 0.55822 0.0
O140 O 0.87763 0.25369 0.57738 0.0
O141 O 0.83916 0.2691 0.5879 0.0
H142 H 0.89585 0.28674 0.66134 0.0
H143 H 0.97469 0.39136 0.64095 0.0
H144 H 0.90429 0.33038 0.55863 0.0
O145 O 0.83468 0.5579 0.29389 0.0
Tb146 Tb 0.83338 0.57182 0.23961 0.0
Eu147 Eu 0.76224 0.62051 0.22637 0.0
C148 C 0.80617 0.54215 0.31255 0.0
O149 O 0.77762 0.539 0.29949 0.0
C150 C 0.83678 0.64347 0.25241 0.0
O151 O 0.74289 0.63973 0.18205 0.0
C152 C 0.71834 0.59665 0.27793 0.0
C153 C 0.75502 0.64269 0.14992 0.0
O154 O 0.78019 0.63635 0.14422 0.0
C155 C 0.76093 0.54978 0.20995 0.0
C156 C 0.68388 0.58973 0.28849 0.0
C157 C 0.67935 0.59719 0.3232 0.0
C158 C 0.64729 0.59173 0.33478 0.0
C159 C 0.61965 0.57877 0.31108 0.0
C160 C 0.62378 0.57139 0.27609 0.0
C161 C 0.65598 0.57663 0.26491 0.0
O162 O 0.83078 0.61823 0.23087 0.0
O163 O 0.81538 0.65546 0.25032 0.0
O164 O 0.8452 0.53959 0.20635 0.0
O165 O 0.88505 0.59077 0.21734 0.0
C166 C 0.87762 0.56216 0.20151 0.0
O167 O 0.77594 0.58277 0.20265 0.0
O168 O 0.78033 0.53755 0.22179 0.0
O169 O 0.74219 0.62927 0.27485 0.0
O170 O 0.72029 0.57684 0.25376 0.0
H171 H 0.70088 0.60705 0.34136 0.0
H172 H 0.59484 0.57466 0.31983 0.0
H173 H 0.65948 0.57126 0.23791 0.0
H174 H 0.58292 0.59896 0.26496 0.0
H175 H 0.52968 0.57456 0.23085 0.0
H176 H 0.54426 0.49078 0.19792 0.0
H177 H 0.59782 0.5152 0.23243 0.0
H178 H 0.51359 0.55852 0.16152 0.0
H179 H 0.46222 0.41775 0.19911 0.0
H180 H 0.47049 0.38359 0.24484 0.0
H181 H 0.498 0.46516 0.31944 0.0
H182 H 0.48951 0.49959 0.27426 0.0
H183 H 0.35438 0.46164 0.07435 0.0
H184 H 0.41108 0.47684 0.09746 0.0
H185 H 0.37321 0.46962 0.20326 0.0
H186 H 0.31589 0.45341 0.1801 0.0
H187 H 0.4171 0.44462 0.19924 0.0
H188 H 0.41661 0.54738 0.16039 0.0
H189 H 0.40821 0.58327 0.11692 0.0
H190 H 0.48392 0.58128 0.0493 0.0
H191 H 0.49244 0.54501 0.0922 0.0
C192 C 0.57493 0.5755 0.25019 0.0
C193 C 0.59418 0.55871 0.25164 0.0
C194 C 0.54465 0.5617 0.23056 0.0
C195 C 0.53283 0.53068 0.2122 0.0
C196 C 0.55281 0.5146 0.21221 0.0
C197 C 0.58341 0.52861 0.23172 0.0
C198 C 0.49854 0.51456 0.19502 0.0
C199 C 0.49259 0.53344 0.16944 0.0
C200 C 0.47107 0.48202 0.20566 0.0
C201 C 0.47556 0.46132 0.23323 0.0
C202 C 0.46991 0.4283 0.22532 0.0
C203 C 0.47465 0.40891 0.25113 0.0
C204 C 0.48485 0.42223 0.285 0.0
C205 C 0.4902 0.45491 0.29317 0.0
C206 C 0.48546 0.47438 0.26747 0.0
C207 C 0.35804 0.46293 0.10256 0.0
C208 C 0.33094 0.45677 0.1255 0.0
C209 C 0.39046 0.47166 0.11572 0.0
C210 C 0.39657 0.47499 0.15205 0.0
C211 C 0.36907 0.46728 0.1751 0.0
C212 C 0.33642 0.45816 0.16191 0.0
C213 C 0.43208 0.48871 0.16585 0.0
C214 C 0.43823 0.46941 0.1908 0.0
C215 C 0.45973 0.52108 0.15488 0.0
C216 C 0.45491 0.54323 0.12933 0.0
C217 C 0.43131 0.55444 0.13615 0.0
C218 C 0.42655 0.57486 0.11164 0.0
C219 C 0.44545 0.58447 0.08033 0.0
C220 C 0.46926 0.57378 0.07354 0.0
C221 C 0.47408 0.55331 0.09795 0.0
H222 H 0.44171 0.60026 0.06137 0.0
H223 H 0.48855 0.4072 0.30493 0.0
H224 H 0.57718 0.89182 0.79619 0.0
H225 H 0.56196 0.93496 0.81387 0.0
H226 H 0.45383 0.85883 0.80378 0.0
H227 H 0.46925 0.81662 0.78371 0.0
H228 H 0.4619 0.91407 0.77846 0.0
H229 H 0.50122 0.88891 0.8869 0.0
H230 H 0.54258 0.88386 0.92556 0.0
H231 H 0.616 0.9913 0.91061 0.0
H232 H 0.5752 0.99689 0.87155 0.0
H233 H 0.38565 0.97713 0.89965 0.0
H234 H 0.40847 0.94674 0.86555 0.0
H235 H 0.50666 0.0408 0.85692 0.0
H236 H 0.48368 0.07145 0.89076 0.0
H237 H 0.50968 0.98447 0.8862 0.0
H238 H 0.46388 0.00951 0.78474 0.0
H239 H 0.41999 0.01275 0.74876 0.0
H240 H 0.35496 0.90281 0.75404 0.0
H241 H 0.39831 0.89886 0.79046 0.0
C242 C 0.5502 0.88436 0.79814 0.0
C243 C 0.52432 0.85093 0.78899 0.0
C244 C 0.54146 0.90897 0.80831 0.0
C245 C 0.50664 0.90017 0.81076 0.0
C246 C 0.48086 0.86646 0.80202 0.0
C247 C 0.48964 0.84223 0.79086 0.0
C248 C 0.49676 0.92583 0.82212 0.0
C249 C 0.47214 0.92916 0.80224 0.0
C250 C 0.51084 0.94654 0.8525 0.0
C251 C 0.53532 0.94321 0.87603 0.0
C252 C 0.52627 0.91139 0.89169 0.0
C253 C 0.5496 0.90845 0.9137 0.0
C254 C 0.58193 0.93722 0.92045 0.0
C255 C 0.59097 0.96903 0.90531 0.0
C256 C 0.56776 0.9721 0.88326 0.0
C257 C 0.41185 0.99144 0.88977 0.0
C258 C 0.43298 0.02653 0.89783 0.0
C259 C 0.42482 0.97413 0.87022 0.0
C260 C 0.45923 0.99156 0.85871 0.0
C261 C 0.48 0.02697 0.86549 0.0
C262 C 0.46684 0.04444 0.88463 0.0
C263 C 0.47422 0.97175 0.84315 0.0
C264 C 0.4998 0.96959 0.86222 0.0
C265 C 0.46056 0.9517 0.81244 0.0
C266 C 0.4343 0.95393 0.7906 0.0
C267 C 0.4401 0.98603 0.77852 0.0
C268 C 0.41532 0.988 0.75798 0.0
C269 C 0.38465 0.95804 0.74918 0.0
C270 C 0.37873 0.92601 0.76088 0.0
C271 C 0.40343 0.92389 0.78144 0.0
H272 H 0.36553 0.95964 0.73324 0.0
H273 H 0.59996 0.93488 0.93748 0.0
H274 H 0.10233 0.64256 0.40602 0.0
H275 H 0.06198 0.58438 0.4273 0.0
H276 H 0.09708 0.61684 0.53332 0.0
H277 H 0.13707 0.67545 0.51224 0.0
H278 H 0.08567 0.54372 0.46729 0.0
H279 H 0.04515 0.59806 0.56632 0.0
H280 H 0.0217 0.6362 0.57935 0.0
H281 H 0.94811 0.58947 0.49583 0.0
H282 H 0.97192 0.55184 0.48172 0.0
H283 H 0.01149 0.40643 0.58979 0.0
H284 H 0.04222 0.46031 0.55702 0.0
H285 H 0.94582 0.44386 0.51522 0.0
H286 H 0.91451 0.39046 0.54943 0.0
H287 H 0.98311 0.50765 0.54323 0.0
H288 H 1.00274 0.43986 0.46173 0.0
H289 H 0.01936 0.39865 0.43953 0.0
H290 H 0.12321 0.46483 0.47503 0.0
H291 H 0.10712 0.50624 0.49793 0.0
C292 C 0.10104 0.63746 0.43398 0.0
C293 C 0.12282 0.66355 0.45753 0.0
C294 C 0.07796 0.6042 0.44606 0.0
C295 C 0.07604 0.59638 0.48196 0.0
C296 C 0.09734 0.62254 0.50565 0.0
C297 C 0.12036 0.65595 0.49358 0.0
C298 C 0.05416 0.56022 0.49406 0.0
C299 C 0.06333 0.53577 0.48407 0.0
C300 C 0.02419 0.54952 0.51456 0.0
C301 C 0.01081 0.57283 0.52249 0.0
C302 C 0.02442 0.59643 0.55036 0.0
C303 C 0.01099 0.61785 0.558 0.0
C304 C 0.98354 0.61538 0.53832 0.0
C305 C 0.96941 0.59143 0.511 0.0
C306 C 0.983 0.57021 0.50305 0.0
C307 C 0.99674 0.41422 0.57361 0.0
C308 C 0.96047 0.39442 0.57272 0.0
C309 C 0.01442 0.4449 0.55459 0.0
C310 C 0.99631 0.45636 0.5339 0.0
C311 C 0.96023 0.4358 0.5315 0.0
C312 C 0.94242 0.40507 0.5507 0.0
C313 C 0.01497 0.49103 0.51723 0.0
C314 C 0.00525 0.51528 0.52626 0.0
C315 C 0.04388 0.50118 0.49498 0.0
C316 C 0.05361 0.47605 0.48186 0.0
C317 C 0.02904 0.44548 0.46517 0.0
C318 C 0.03838 0.42211 0.45236 0.0
C319 C 0.0723 0.42909 0.45593 0.0
C320 C 0.09694 0.45945 0.47231 0.0
C321 C 0.08772 0.4829 0.48518 0.0
H322 H 0.07949 0.411 0.44595 0.0
H323 H 0.97315 0.63195 0.5443 0.0
H324 H 0.56111 0.63005 0.81146 0.0
H325 H 0.54239 0.57709 0.84571 0.0
H326 H 0.61847 0.56128 0.79342 0.0
H327 H 0.63844 0.61465 0.76061 0.0
H328 H 0.51286 0.51775 0.81027 0.0
H329 H 0.63697 0.51568 0.82991 0.0
H330 H 0.69536 0.54974 0.85533 0.0
H331 H 0.65723 0.5934 0.93106 0.0
H332 H 0.59899 0.5608 0.90499 0.0
H333 H 0.53184 0.3559 0.84975 0.0
H334 H 0.5534 0.41523 0.83063 0.0
H335 H 0.46614 0.41414 0.87991 0.0
H336 H 0.44378 0.35392 0.89759 0.0
H337 H 0.57552 0.46813 0.87107 0.0
H338 H 0.4543 0.47877 0.84611 0.0
H339 H 0.39448 0.44334 0.82505 0.0
H340 H 0.42354 0.38095 0.76495 0.0
H341 H 0.48366 0.41633 0.78521 0.0
C342 C 0.57469 0.61597 0.80829 0.0
C343 C 0.60069 0.62602 0.78277 0.0
C344 C 0.56379 0.58567 0.82764 0.0
C345 C 0.57859 0.56502 0.82176 0.0
C346 C 0.60674 0.57681 0.79872 0.0
C347 C 0.61783 0.60714 0.77959 0.0
C348 C 0.56087 0.52875 0.83419 0.0
C349 C 0.5263 0.50702 0.82435 0.0
C350 C 0.57854 0.51447 0.85156 0.0
C351 C 0.61388 0.53615 0.86533 0.0
C352 C 0.64124 0.53294 0.85168 0.0
C353 C 0.67428 0.55209 0.86608 0.0
C354 C 0.68004 0.57393 0.89463 0.0
C355 C 0.6528 0.5768 0.90868 0.0
C356 C 0.61989 0.55835 0.89382 0.0
C357 C 0.51678 0.36804 0.85563 0.0
C358 C 0.4862 0.3506 0.87528 0.0
C359 C 0.52925 0.40204 0.84497 0.0
C360 C 0.51157 0.41937 0.85404 0.0
C361 C 0.48009 0.4013 0.87226 0.0
C362 C 0.46731 0.36701 0.88241 0.0
C363 C 0.52754 0.45687 0.84665 0.0
C364 C 0.56182 0.47882 0.85738 0.0
C365 C 0.50939 0.47131 0.83026 0.0
C366 C 0.47339 0.44991 0.81761 0.0
C367 C 0.44794 0.45751 0.82836 0.0
C368 C 0.41398 0.43745 0.81655 0.0
C369 C 0.40518 0.40979 0.79382 0.0
C370 C 0.43037 0.40226 0.78271 0.0
C371 C 0.46439 0.42229 0.79438 0.0
H372 H 0.37886 0.39427 0.78473 0.0
H373 H 0.70556 0.58852 0.90596 0.0
H374 H 0.41132 0.00444 0.38307 0.0
H375 H 0.46648 0.03915 0.41231 0.0
H376 H 0.44002 0.95798 0.48767 0.0
H377 H 0.38511 0.92168 0.45704 0.0
H378 H 0.47377 0.02892 0.51592 0.0
H379 H 0.49118 0.96223 0.42775 0.0
H380 H 0.48582 0.93846 0.36812 0.0
H381 H 0.54356 0.04096 0.32604 0.0
H382 H 0.54873 0.06527 0.38541 0.0
H383 H 0.64444 0.10595 0.58049 0.0
H384 H 0.58773 0.06443 0.55719 0.0
H385 H 0.61237 0.12225 0.46034 0.0
H386 H 0.6701 0.16281 0.48309 0.0
H387 H 0.57806 0.05867 0.44493 0.0
H388 H 0.56026 0.12662 0.53094 0.0
H389 H 0.56388 0.15215 0.58931 0.0
H390 H 0.50574 0.05104 0.63445 0.0
H391 H 0.50226 0.02488 0.57645 0.0
C392 C 0.41722 0.99354 0.40554 0.0
C393 C 0.39403 0.95969 0.41694 0.0
C394 C 0.44873 0.01366 0.42244 0.0
C395 C 0.4577 1.00083 0.45161 0.0
C396 C 0.43378 0.96808 0.46477 0.0
C397 C 0.4023 0.9475 0.44739 0.0
C398 C 0.49282 0.02132 0.46687 0.0
C399 C 0.49665 0.035 0.50077 0.0
C400 C 0.52258 0.02998 0.44661 0.0
C401 C 0.52004 0.01551 0.41096 0.0
C402 C 0.50247 0.97965 0.40572 0.0
C403 C 0.4995 0.96609 0.37199 0.0
C404 C 0.51426 0.98819 0.34329 0.0
C405 C 0.53211 0.02387 0.3483 0.0
C406 C 0.53509 0.03755 0.38199 0.0
C407 C 0.63784 0.10955 0.55406 0.0
C408 C 0.66152 0.13763 0.53359 0.0
C409 C 0.60525 0.08598 0.54087 0.0
C410 C 0.59514 0.0906 0.50733 0.0
C411 C 0.61932 0.11812 0.48639 0.0
C412 C 0.65233 0.1413 0.49932 0.0
C413 C 0.55943 0.06694 0.49413 0.0
C414 C 0.55538 0.05259 0.46044 0.0
C415 C 0.52949 0.05809 0.51452 0.0
C416 C 0.53139 0.0738 0.5494 0.0
C417 C 0.54849 0.10983 0.55336 0.0
C418 C 0.55051 0.12441 0.58638 0.0
C419 C 0.53525 0.10322 0.61561 0.0
C420 C 0.51771 0.06741 0.61182 0.0
C421 C 0.5157 0.0527 0.57888 0.0
H422 H 0.53684 0.11456 0.64115 0.0
H423 H 0.51194 0.97766 0.31718 0.0
H424 H 0.11075 0.49031 0.08796 0.0
H425 H 0.08503 0.5222 0.11464 0.0
H426 H 0.98528 0.42923 0.11403 0.0
H427 H 0.0107 0.39793 0.08674 0.0
H428 H 0.98487 0.48116 0.07942 0.0
H429 H 0.03277 0.4674 0.18909 0.0
H430 H 0.07983 0.47619 0.22894 0.0
H431 H 0.12336 0.58578 0.22228 0.0
H432 H 0.07727 0.57777 0.18141 0.0
H433 H 0.86498 0.50088 0.17531 0.0
H434 H 0.90669 0.48581 0.15329 0.0
H435 H 0.98902 0.59049 0.16933 0.0
H436 H 0.94707 0.60554 0.19253 0.0
H437 H 0.00804 0.5455 0.19148 0.0
H438 H 0.96112 0.56153 0.08644 0.0
H439 H 0.91583 0.55581 0.0457 0.0
H440 H 0.87369 0.44624 0.04181 0.0
H441 H 0.91842 0.45121 0.08292 0.0
C442 C 0.08353 0.47671 0.09447 0.0
C443 C 0.0625 0.44186 0.08532 0.0
C444 C 0.06888 0.49485 0.10964 0.0
C445 C 0.03319 0.47811 0.11609 0.0
C446 C 0.01281 0.4427 0.10904 0.0
C447 C 0.02729 0.4248 0.09363 0.0
C448 C 0.01584 0.49747 0.1264 0.0
C449 C 0.98979 0.495 0.10409 0.0
C450 C 0.0237 0.51727 0.15756 0.0
C451 C 0.05174 0.52196 0.18173 0.0
C452 C 0.05266 0.4934 0.19564 0.0
C453 C 0.07918 0.49825 0.21845 0.0
C454 C 0.10467 0.53154 0.22797 0.0
C455 C 0.10375 0.56004 0.21466 0.0
C456 C 0.07746 0.55535 0.19163 0.0
C457 C 0.8919 0.5208 0.17381 0.0
C458 C 0.9028 0.55443 0.18529 0.0
C459 C 0.91575 0.51218 0.16119 0.0
C460 C 0.95096 0.53714 0.15918 0.0
C461 C 0.96197 0.57088 0.17055 0.0
C462 C 0.93802 0.57948 0.18351 0.0
C463 C 0.97579 0.52731 0.14542 0.0
C464 C 0.00345 0.53197 0.16667 0.0
C465 C 0.96991 0.50989 0.11297 0.0
C466 C 0.94308 0.50676 0.08792 0.0
C467 C 0.94209 0.53619 0.07705 0.0
C468 C 0.91652 0.53308 0.05387 0.0
C469 C 0.89188 0.50068 0.04121 0.0
C470 C 0.8928 0.47133 0.05163 0.0
C471 C 0.9183 0.47428 0.07483 0.0
H472 H 0.87209 0.49833 0.02328 0.0
H473 H 0.12501 0.53524 0.24585 0.0
H474 H 0.33201 0.20593 0.90468 0.0
H475 H 0.30232 0.23335 0.93169 0.0
H476 H 0.38555 0.28482 0.00598 0.0
H477 H 0.41513 0.25725 0.97914 0.0
H478 H 0.27773 0.22455 0.99729 0.0
H479 H 0.3946 0.34998 0.03148 0.0
H480 H 0.44919 0.39847 0.00877 0.0
H481 H 0.40574 0.3812 0.90512 0.0
H482 H 0.35144 0.33204 0.92711 0.0
H483 H 0.22006 0.3162 0.11201 0.0
H484 H 0.25096 0.28846 0.08775 0.0
H485 H 0.26622 0.34343 0.99033 0.0
H486 H 0.2356 0.37079 0.01396 0.0
H487 H 0.32597 0.34998 0.01496 0.0
H488 H 0.20816 0.25951 0.99517 0.0
H489 H 0.14883 0.217 0.01327 0.0
H490 H 0.18769 0.16736 0.0803 0.0
H491 H 0.24733 0.2099 0.06292 0.0
C492 C 0.34428 0.22358 0.92636 0.0
C493 C 0.3762 0.22983 0.93947 0.0
C494 C 0.32722 0.23915 0.94187 0.0
C495 C 0.34173 0.26138 0.97077 0.0
C496 C 0.37407 0.26837 0.98331 0.0
C497 C 0.39107 0.25268 0.96786 0.0
C498 C 0.3219 0.27519 0.98914 0.0
C499 C 0.28837 0.25199 1.00127 0.0
C500 C 0.33555 0.31085 0.99468 0.0
C501 C 0.36941 0.33712 0.98073 0.0
C502 C 0.39709 0.35615 0.00372 0.0
C503 C 0.42795 0.38369 0.99099 0.0
C504 C 0.43111 0.39268 0.95546 0.0
C505 C 0.40348 0.37397 0.93255 0.0
C506 C 0.37282 0.34602 0.94502 0.0
C507 C 0.2297 0.32202 0.08531 0.0
C508 C 0.22554 0.34588 0.06503 0.0
C509 C 0.24733 0.30618 0.0715 0.0
C510 C 0.26104 0.31404 0.03728 0.0
C511 C 0.25612 0.33718 0.01687 0.0
C512 C 0.2385 0.35279 0.03049 0.0
C513 C 0.28168 0.29946 0.02258 0.0
C514 C 0.31547 0.32248 0.01144 0.0
C515 C 0.268 0.26369 0.01767 0.0
C516 C 0.2322 0.23811 0.02807 0.0
C517 C 0.20407 0.23972 0.01401 0.0
C518 C 0.17038 0.21558 0.02408 0.0
C519 C 0.1645 0.18956 0.04801 0.0
C520 C 0.19229 0.18757 0.06183 0.0
C521 C 0.22604 0.21167 0.05186 0.0
H522 H 0.1384 0.17089 0.05577 0.0
H523 H 0.45486 0.41429 0.94577 0.0
H524 H 0.7253 0.13178 0.61332 0.0
H525 H 0.7038 0.07527 0.64009 0.0
H526 H 0.7974 0.07685 0.60971 0.0
H527 H 0.81783 0.13268 0.58053 0.0
H528 H 0.74842 0.01561 0.60371 0.0
H529 H 0.78088 0.09696 0.6973 0.0
H530 H 0.78193 0.14476 0.73034 0.0
H531 H 0.67274 0.08351 0.74794 0.0
H532 H 0.67091 0.03549 0.71458 0.0
H533 H 0.68236 0.89655 0.77302 0.0
H534 H 0.71648 0.95367 0.74604 0.0
H535 H 0.65786 0.91499 0.65031 0.0
H536 H 0.62503 0.85804 0.67631 0.0
H537 H 0.69939 0.99739 0.72402 0.0
H538 H 0.70196 0.9559 0.57947 0.0
H539 H 0.70521 0.90966 0.54785 0.0
H540 H 0.75457 0.89416 0.63689 0.0
H541 H 0.75205 0.94061 0.66888 0.0
C542 C 0.74111 0.11988 0.61211 0.0
C543 C 0.77328 0.13656 0.59516 0.0
C544 C 0.72899 0.08771 0.62773 0.0
C545 C 0.74945 0.07217 0.62813 0.0
C546 C 0.78121 0.08837 0.61011 0.0
C547 C 0.7929 0.12021 0.59343 0.0
C548 C 0.73758 0.03917 0.64746 0.0
C549 C 0.73792 0.01174 0.63009 0.0
C550 C 0.72463 0.03418 0.68233 0.0
C551 C 0.72576 0.06268 0.70327 0.0
C552 C 0.75708 0.09371 0.70814 0.0
C553 C 0.75779 0.12085 0.72689 0.0
C554 C 0.7274 0.11719 0.74116 0.0
C555 C 0.69624 0.08631 0.73684 0.0
C556 C 0.69536 0.0591 0.71807 0.0
C557 C 0.67713 0.90016 0.74606 0.0
C558 C 0.651 0.87266 0.72685 0.0
C559 C 0.69654 0.93285 0.7307 0.0
C560 C 0.69013 0.93864 0.69592 0.0
C561 C 0.66401 0.91114 0.67683 0.0
C562 C 0.64499 0.87851 0.69193 0.0
C563 C 0.70938 0.97363 0.67987 0.0
C564 C 0.71038 1.00142 0.69784 0.0
C565 C 0.7244 0.9792 0.64595 0.0
C566 C 0.7266 0.95162 0.62665 0.0
C567 C 0.71371 0.94278 0.59223 0.0
C568 C 0.71537 0.91649 0.57426 0.0
C569 C 0.73002 0.89893 0.59038 0.0
C570 C 0.74314 0.90771 0.62447 0.0
C571 C 0.74156 0.93399 0.64255 0.0
H572 H 0.73124 0.87855 0.57644 0.0
H573 H 0.72799 0.13824 0.75562 0.0
H574 H 0.85713 0.69902 0.29586 0.0
H575 H 0.9074 0.72566 0.33464 0.0
H576 H 0.93229 0.64783 0.30547 0.0
H577 H 0.88134 0.62049 0.26833 0.0
H578 H 0.94653 0.66177 0.37134 0.0
H579 H 0.97135 0.73012 0.26621 0.0
H580 H 0.96243 0.76483 0.22174 0.0
H581 H 0.97256 0.83718 0.30134 0.0
H582 H 0.98113 0.80262 0.34638 0.0
H583 H 0.1263 0.74276 0.37797 0.0
H584 H 0.06696 0.71928 0.35854 0.0
H585 H 0.05725 0.79267 0.42349 0.0
H586 H 0.11738 0.81652 0.44331 0.0
H587 H 0.03243 0.78485 0.34922 0.0
H588 H 0.01718 0.71726 0.45265 0.0
H589 H 0.03565 0.68503 0.49066 0.0
H590 H 0.01358 0.61161 0.40815 0.0
H591 H 0.99535 0.64364 0.3694 0.0
C592 C 0.8731 0.68734 0.29799 0.0
C593 C 0.86559 0.6579 0.27818 0.0
C594 C 0.90198 0.70273 0.32008 0.0
C595 C 0.92423 0.68928 0.32246 0.0
C596 C 0.91579 0.65896 0.304 0.0
C597 C 0.88677 0.64346 0.28227 0.0
C598 C 0.95722 0.7075 0.34249 0.0
C599 C 0.96517 0.6887 0.36651 0.0
C600 C 0.98165 0.74282 0.33668 0.0
C601 C 0.9764 0.76356 0.30971 0.0
C602 C 0.97138 0.75328 0.27426 0.0
C603 C 0.96644 0.77295 0.24896 0.0
C604 C 0.9668 0.80313 0.25873 0.0
C605 C 0.9722 0.81375 0.29383 0.0
C606 C 0.9771 0.79414 0.31925 0.0
C607 C 0.11175 0.75415 0.38798 0.0
C608 C 0.12662 0.78169 0.41189 0.0
C609 C 0.07773 0.74054 0.37701 0.0
C610 C 0.05774 0.75419 0.38963 0.0
C611 C 0.07237 0.78183 0.41347 0.0
C612 C 0.10654 0.79527 0.42486 0.0
C613 C 0.02157 0.73901 0.3775 0.0
C614 C 0.0132 0.75826 0.3548 0.0
C615 C 0.99705 0.70401 0.384 0.0
C616 C 0.00504 0.68295 0.40808 0.0
C617 C 0.01618 0.69419 0.44263 0.0
C618 C 0.0267 0.67604 0.46425 0.0
C619 C 0.02603 0.6465 0.45169 0.0
C620 C 0.01418 0.6346 0.41774 0.0
C621 C 0.00364 0.65269 0.39597 0.0
H622 H 0.03466 0.63283 0.46834 0.0
H623 H 0.96299 0.81833 0.2391 0.0
H624 H 0.86388 0.26408 0.39474 0.0
H625 H 0.90875 0.2805 0.35019 0.0
H626 H 0.97715 0.27828 0.42837 0.0
H627 H 0.93258 0.26253 0.4733 0.0
H628 H 0.01097 0.33344 0.38839 0.0
H629 H 0.93615 0.21303 0.36654 0.0
H630 H 0.88077 0.16001 0.35493 0.0
H631 H 0.86917 0.20394 0.25932 0.0
H632 H 0.92429 0.25743 0.27059 0.0
H633 H 0.13657 0.3436 0.26686 0.0
H634 H 0.09233 0.32449 0.31259 0.0
H635 H 0.01998 0.32264 0.23674 0.0
H636 H 0.06375 0.34052 0.19068 0.0
H637 H 0.9886 0.26869 0.27666 0.0
H638 H 0.06557 0.38993 0.29971 0.0
H639 H 0.1216 0.44172 0.31264 0.0
H640 H 0.12972 0.39498 0.40786 0.0
H641 H 0.0741 0.34267 0.39518 0.0
C642 C 0.88841 0.26695 0.4025 0.0
C643 C 0.89451 0.26179 0.43763 0.0
C644 C 0.91405 0.27622 0.3769 0.0
C645 C 0.94627 0.28019 0.38572 0.0
C646 C 0.95252 0.27531 0.42084 0.0
C647 C 0.92693 0.26618 0.4465 0.0
C648 C 0.97358 0.28992 0.35845 0.0
C649 C 0.00622 0.31899 0.36416 0.0
C650 C 0.9673 0.27152 0.32648 0.0
C651 C 0.93419 0.23936 0.31959 0.0
C652 C 0.92166 0.21149 0.34317 0.0
C653 C 0.89034 0.18133 0.33663 0.0
C654 C 0.87142 0.17864 0.30645 0.0
C655 C 0.88384 0.20608 0.2827 0.0
C656 C 0.91513 0.23631 0.28914 0.0
C657 C 0.11119 0.33897 0.25987 0.0
C658 C 0.10375 0.34365 0.22508 0.0
C659 C 0.08593 0.32828 0.28615 0.0
C660 C 0.05287 0.32273 0.27841 0.0
C661 C 0.04525 0.32681 0.24352 0.0
C662 C 0.07035 0.33705 0.21715 0.0
C663 C 0.02606 0.3124 0.30643 0.0
C664 C 0.99343 0.28318 0.30087 0.0
C665 C 0.03246 0.33058 0.33864 0.0
C666 C 0.06585 0.3622 0.34625 0.0
C667 C 0.07944 0.39058 0.32325 0.0
C668 C 0.11113 0.42006 0.33056 0.0
C669 C 0.12927 0.42156 0.36099 0.0
C670 C 0.1157 0.39371 0.38424 0.0
C671 C 0.08411 0.36416 0.377 0.0
H672 H 0.15384 0.44426 0.36664 0.0
H673 H 0.84718 0.15527 0.30144 0.0
H674 H 0.68323 0.76934 0.8792 0.0
H675 H 0.70729 0.75283 0.9285 0.0
H676 H 0.60519 0.69062 0.97176 0.0
H677 H 0.58092 0.70605 0.92211 0.0
H678 H 0.66248 0.73568 0.02181 0.0
H679 H 0.62967 0.65136 0.9295 0.0
H680 H 0.63071 0.63524 0.86785 0.0
H681 H 0.73965 0.67399 0.87501 0.0
H682 H 0.73959 0.69182 0.93635 0.0
H683 H 0.69183 0.63776 0.14689 0.0
H684 H 0.66744 0.65427 0.09839 0.0
H685 H 0.76023 0.68665 0.03785 0.0
H686 H 0.78407 0.6687 0.08577 0.0
H687 H 0.70788 0.65753 0.99554 0.0
H688 H 0.74336 0.74518 0.08397 0.0
H689 H 0.74614 0.76837 0.14341 0.0
H690 H 0.6366 0.72759 0.14222 0.0
H691 H 0.63311 0.70377 0.08291 0.0
C692 C 0.66604 0.75255 0.89951 0.0
C693 C 0.63023 0.73887 0.89684 0.0
C694 C 0.67977 0.7431 0.92754 0.0
C695 C 0.65795 0.72044 0.95362 0.0
C696 C 0.62241 0.70816 0.9519 0.0
C697 C 0.60861 0.7169 0.92349 0.0
C698 C 0.67178 0.70774 0.98153 0.0
C699 C 0.67211 0.71832 0.01623 0.0
C700 C 0.68494 0.68568 0.97387 0.0
C701 C 0.68474 0.67354 0.93744 0.0
C702 C 0.65399 0.65704 0.91781 0.0
C703 C 0.6544 0.64767 0.88284 0.0
C704 C 0.68527 0.65385 0.8674 0.0
C705 C 0.71578 0.66939 0.88694 0.0
C706 C 0.71559 0.67924 0.9218 0.0
C707 C 0.70705 0.64845 0.12326 0.0
C708 C 0.74011 0.65245 0.12039 0.0
C709 C 0.69311 0.65794 0.09551 0.0
C710 C 0.71227 0.67254 0.06463 0.0
C711 C 0.74493 0.67564 0.06138 0.0
C712 C 0.75863 0.66554 0.08889 0.0
C713 C 0.69874 0.68549 0.03625 0.0
C714 C 0.69835 0.67492 1.00133 0.0
C715 C 0.68591 0.70799 0.04357 0.0
C716 C 0.68794 0.72243 0.07915 0.0
C717 C 0.71984 0.74097 0.09648 0.0
C718 C 0.72154 0.75425 0.13013 0.0
C719 C 0.69155 0.74938 0.14661 0.0
C720 C 0.6598 0.7313 0.12943 0.0
C721 C 0.65795 0.71794 0.09579 0.0
H722 H 0.69292 0.75968 0.17267 0.0
H723 H 0.68547 0.64629 0.84042 0.0
H724 H 0.44091 0.09954 0.77469 0.0
H725 H 0.41947 0.06245 0.72294 0.0
H726 H 0.3178 0.04728 0.74099 0.0
H727 H 0.33923 0.08485 0.7927 0.0
H728 H 0.31566 0.98649 0.72774 0.0
H729 H 0.36929 0.09948 0.67532 0.0
H730 H 0.4168 0.15859 0.66386 0.0
H731 H 0.47875 0.11869 0.62235 0.0
H732 H 0.43189 0.05931 0.63422 0.0
H733 H 0.24229 0.90609 0.56377 0.0
H734 H 0.26294 0.9447 0.61472 0.0
H735 H 0.36657 0.96596 0.595 0.0
H736 H 0.34629 0.92791 0.54397 0.0
H737 H 0.36751 0.02386 0.60922 0.0
H738 H 0.31861 0.91308 0.66319 0.0
H739 H 0.27403 0.85298 0.676 0.0
H740 H 0.2067 0.88734 0.71553 0.0
H741 H 0.25077 0.94765 0.70255 0.0
C742 C 0.414 0.08844 0.76762 0.0
C743 C 0.39178 0.09521 0.78783 0.0
C744 C 0.40178 0.06724 0.73795 0.0
C745 C 0.36701 0.05206 0.72798 0.0
C746 C 0.34472 0.05868 0.74817 0.0
C747 C 0.35704 0.08027 0.77764 0.0
C748 C 0.35381 0.02879 0.6969 0.0
C749 C 0.32659 0.99485 0.70169 0.0
C750 C 0.36891 0.03924 0.66313 0.0
C751 C 0.39716 0.07494 0.65598 0.0
C752 C 0.39316 0.1033 0.66406 0.0
C753 C 0.41998 0.13686 0.65747 0.0
C754 C 0.45083 0.14239 0.64252 0.0
C755 C 0.45489 0.11436 0.63405 0.0
C756 C 0.4282 0.08074 0.64069 0.0
C757 C 0.26946 0.91898 0.5703 0.0
C758 C 0.29258 0.91382 0.54977 0.0
C759 C 0.28123 0.94093 0.59956 0.0
C760 C 0.31631 0.95806 0.60899 0.0
C761 C 0.33941 0.9531 0.58834 0.0
C762 C 0.3277 0.9312 0.55916 0.0
C763 C 0.32915 0.98158 0.63997 0.0
C764 C 0.35639 0.01553 0.6352 0.0
C765 C 0.31445 0.97101 0.67387 0.0
C766 C 0.28781 0.93481 0.6815 0.0
C767 C 0.29417 0.90778 0.6743 0.0
C768 C 0.26903 0.87369 0.68167 0.0
C769 C 0.23751 0.86634 0.69646 0.0
C770 C 0.2311 0.89307 0.704 0.0
C771 C 0.25616 0.92721 0.69668 0.0
H772 H 0.21808 0.83993 0.70215 0.0
H773 H 0.47154 0.16838 0.6374 0.0
H774 H 0.29958 0.53827 0.01863 0.0
H775 H 0.33876 0.58189 0.97753 0.0
H776 H 0.30258 0.50615 0.89446 0.0
H777 H 0.26417 0.46173 0.9362 0.0
H778 H 0.36834 0.53966 0.89334 0.0
H779 H 0.28527 0.57546 0.89724 0.0
H780 H 0.24522 0.59151 0.92395 0.0
H781 H 0.32998 0.67765 0.97526 0.0
H782 H 0.37052 0.66186 0.94927 0.0
H783 H 0.47325 0.67407 0.77064 0.0
H784 H 0.42167 0.62928 0.80059 0.0
H785 H 0.46066 0.68151 0.89946 0.0
H786 H 0.51256 0.72608 0.8699 0.0
H787 H 0.3885 0.6587 0.88523 0.0
H788 H 0.46978 0.6183 0.88373 0.0
H789 H 0.50909 0.6031 0.85461 0.0
H790 H 0.42449 0.52353 0.79623 0.0
H791 H 0.3847 0.53939 0.82418 0.0
C792 C 0.29945 0.53091 0.99149 0.0
C793 C 0.27878 0.49648 0.98069 0.0
C794 C 0.32179 0.55604 0.96787 0.0
C795 C 0.32338 0.54755 0.93266 0.0
C796 C 0.30181 0.51338 0.92148 0.0
C797 C 0.2798 0.48803 0.94531 0.0
C798 C 0.34973 0.5737 0.90861 0.0
C799 C 0.3721 0.56541 0.89092 0.0
C800 C 0.3552 0.60759 0.90583 0.0
C801 C 0.33093 0.61732 0.92144 0.0
C802 C 0.29536 0.59769 0.9144 0.0
C803 C 0.27257 0.60677 0.92939 0.0
C804 C 0.28504 0.63554 0.95133 0.0
C805 C 0.32035 0.65536 0.95826 0.0
C806 C 0.34326 0.64639 0.94335 0.0
C807 C 0.47084 0.67604 0.79876 0.0
C808 C 0.49702 0.70354 0.81795 0.0
C809 C 0.44136 0.65047 0.81577 0.0
C810 C 0.4374 0.65222 0.85216 0.0
C811 C 0.46322 0.67987 0.8713 0.0
C812 C 0.49294 0.70514 0.85442 0.0
C813 C 0.40697 0.62454 0.87064 0.0
C814 C 0.38405 0.63267 0.88724 0.0
C815 C 0.40067 0.59039 0.87206 0.0
C816 C 0.42438 0.58046 0.85558 0.0
C817 C 0.45959 0.59788 0.86433 0.0
C818 C 0.48198 0.58908 0.84803 0.0
C819 C 0.46937 0.56236 0.82342 0.0
C820 C 0.43426 0.54434 0.81517 0.0
C821 C 0.41179 0.55332 0.83115 0.0
H822 H 0.48674 0.5556 0.81073 0.0
H823 H 0.26735 0.64252 0.96292 0.0
H824 H 0.31001 0.83221 0.51876 0.0
H825 H 0.35944 0.83049 0.54307 0.0
H826 H 0.33093 0.73753 0.48491 0.0
H827 H 0.2818 0.73964 0.45933 0.0
H828 H 0.34649 0.74093 0.56455 0.0
H829 H 0.39077 0.79691 0.45349 0.0
H830 H 0.4022 0.84016 0.40766 0.0
H831 H 0.46527 0.9214 0.47962 0.0
H832 H 0.45294 0.8788 0.52634 0.0
H833 H 0.49574 0.74783 0.63298 0.0
H834 H 0.45313 0.7403 0.58847 0.0
H835 H 0.483 0.84752 0.59897 0.0
H836 H 0.52643 0.8555 0.64208 0.0
H837 H 0.46669 0.82984 0.53446 0.0
H838 H 0.41405 0.78088 0.64638 0.0
H839 H 0.40014 0.74249 0.69767 0.0
H840 H 0.35237 0.654 0.63001 0.0
H841 H 0.36641 0.69194 0.57824 0.0
C842 C 0.31418 0.81141 0.51103 0.0
C843 C 0.29209 0.78617 0.48695 0.0
C844 C 0.34249 0.81053 0.52489 0.0
C845 C 0.34884 0.78407 0.51547 0.0
C846 C 0.32642 0.75825 0.49224 0.0
C847 C 0.29847 0.75954 0.47768 0.0
C848 C 0.37879 0.78345 0.53059 0.0
C849 C 0.37284 0.75978 0.55747 0.0
C850 C 0.41296 0.80881 0.52185 0.0
C851 C 0.42052 0.83457 0.49363 0.0
C852 C 0.40659 0.82401 0.45976 0.0
C853 C 0.41321 0.84845 0.43359 0.0
C854 C 0.43417 0.88355 0.44079 0.0
C855 C 0.4487 0.89426 0.47413 0.0
C856 C 0.44185 0.86996 0.5005 0.0
C857 C 0.49367 0.76993 0.62522 0.0
C858 C 0.5141 0.80214 0.64138 0.0
C859 C 0.4692 0.76556 0.59992 0.0
C860 C 0.46423 0.79314 0.591 0.0
C861 C 0.48621 0.8258 0.60546 0.0
C862 C 0.51102 0.83031 0.63025 0.0
C863 C 0.43451 0.78773 0.56912 0.0
C864 C 0.44043 0.81038 0.54104 0.0
C865 C 0.40018 0.76206 0.57739 0.0
C866 C 0.39167 0.73922 0.60844 0.0
C867 C 0.4008 0.75323 0.64244 0.0
C868 C 0.39287 0.73157 0.67158 0.0
C869 C 0.37549 0.69583 0.66709 0.0
C870 C 0.36591 0.68169 0.63344 0.0
C871 C 0.37385 0.70325 0.60418 0.0
H872 H 0.36936 0.67909 0.68969 0.0
H873 H 0.43922 0.90239 0.42049 0.0
H874 H 0.24404 0.53339 0.12886 0.0
H875 H 0.24263 0.58024 0.15984 0.0
H876 H 0.159 0.50625 0.22469 0.0
H877 H 0.16095 0.45922 0.19446 0.0
H878 H 0.19648 0.59919 0.16683 0.0
H879 H 0.16472 0.54226 0.30668 0.0
H880 H 0.1708 0.50086 0.34391 0.0
H881 H 0.25798 0.51617 0.28273 0.0
H882 H 0.25315 0.55873 0.24585 0.0
H883 H 0.15297 0.69542 0.28661 0.0
H884 H 0.15536 0.65287 0.24845 0.0
H885 H 0.25215 0.6759 0.29542 0.0
H886 H 0.24963 0.71797 0.33411 0.0
H887 H 0.20806 0.60897 0.29652 0.0
H888 H 0.24652 0.69899 0.21025 0.0
H889 H 0.24323 0.74295 0.17436 0.0
H890 H 0.14847 0.66476 0.12841 0.0
H891 H 0.15098 0.62038 0.1643 0.0
C892 C 0.22538 0.52705 0.14977 0.0
C893 C 0.20287 0.49257 0.15944 0.0
C894 C 0.22448 0.55389 0.16734 0.0
C895 C 0.20094 0.54687 0.19483 0.0
C896 C 0.17781 0.5124 0.20399 0.0
C897 C 0.17898 0.48551 0.1867 0.0
C898 C 0.2014 0.57581 0.21428 0.0
C899 C 0.199 0.60132 0.19521 0.0
C900 C 0.20484 0.57875 0.25129 0.0
C901 C 0.20825 0.55333 0.27322 0.0
C902 C 0.18526 0.53688 0.30123 0.0
C903 C 0.18851 0.5132 0.3223 0.0
C904 C 0.21456 0.50557 0.31551 0.0
C905 C 0.23767 0.52193 0.28784 0.0
C906 C 0.23474 0.54592 0.26689 0.0
C907 C 0.17513 0.69194 0.28835 0.0
C908 C 0.20102 0.70993 0.31359 0.0
C909 C 0.17647 0.66761 0.26645 0.0
C910 C 0.20392 0.66115 0.26909 0.0
C911 C 0.23062 0.68033 0.29306 0.0
C912 C 0.22921 0.70448 0.31508 0.0
C913 C 0.20354 0.63255 0.2491 0.0
C914 C 0.20563 0.60691 0.26812 0.0
C915 C 0.2002 0.62976 0.21209 0.0
C916 C 0.19872 0.6564 0.19034 0.0
C917 C 0.22481 0.6912 0.19273 0.0
C918 C 0.22313 0.71619 0.17232 0.0
C919 C 0.1956 0.70668 0.14921 0.0
C920 C 0.16975 0.67212 0.14638 0.0
C921 C 0.1713 0.64702 0.16674 0.0
H922 H 0.19434 0.72607 0.13343 0.0
H923 H 0.21693 0.48711 0.33179 0.0
H924 H 0.52894 0.30751 0.04209 0.0
H925 H 0.56647 0.34737 0.08743 0.0
H926 H 0.52152 0.41148 0.07071 0.0
H927 H 0.48409 0.3719 0.02534 0.0
H928 H 0.59066 0.4484 0.06733 0.0
H929 H 0.50729 0.36879 0.14761 0.0
H930 H 0.46797 0.31191 0.17371 0.0
H931 H 0.55407 0.2986 0.19767 0.0
H932 H 0.5939 0.35523 0.17132 0.0
H933 H 0.7128 0.56582 0.18646 0.0
H934 H 0.65562 0.52645 0.16305 0.0
H935 H 0.67284 0.44106 0.17907 0.0
H936 H 0.72813 0.4797 0.20642 0.0
H937 H 0.60943 0.41815 0.18743 0.0
H938 H 0.6905 0.49298 0.09576 0.0
H939 H 0.72985 0.55038 0.07049 0.0
H940 H 0.64738 0.57272 0.06816 0.0
H941 H 0.6076 0.51549 0.09361 0.0
C942 C 0.52659 0.32974 0.04851 0.0
C943 C 0.50369 0.33665 0.02992 0.0
C944 C 0.54798 0.35246 0.07453 0.0
C945 C 0.54675 0.3824 0.08251 0.0
C946 C 0.52294 0.38859 0.06495 0.0
C947 C 0.50151 0.36587 0.03905 0.0
C948 C 0.57239 0.40863 0.10683 0.0
C949 C 0.59438 0.44197 0.09384 0.0
C950 C 0.57739 0.40022 0.14129 0.0
C951 C 0.55356 0.36617 0.15725 0.0
C952 C 0.51783 0.35363 0.15821 0.0
C953 C 0.49545 0.32145 0.1731 0.0
C954 C 0.5085 0.30163 0.18727 0.0
C955 C 0.54399 0.31398 0.18667 0.0
C956 C 0.56648 0.34615 0.17181 0.0
C957 C 0.70394 0.53851 0.1861 0.0
C958 C 0.72503 0.52593 0.19854 0.0
C959 C 0.67138 0.51602 0.1721 0.0
C960 C 0.66023 0.48082 0.16802 0.0
C961 C 0.68074 0.46807 0.18168 0.0
C962 C 0.71257 0.4903 0.19716 0.0
C963 C 0.62874 0.4575 0.14739 0.0
C964 C 0.6055 0.42473 0.16108 0.0
C965 C 0.62264 0.46637 0.11343 0.0
C966 C 0.6462 0.50011 0.09678 0.0
C967 C 0.68079 0.51013 0.08978 0.0
C968 C 0.70315 0.54264 0.07549 0.0
C969 C 0.69112 0.5652 0.06779 0.0
C970 C 0.65664 0.55521 0.07415 0.0
C971 C 0.63417 0.52273 0.08844 0.0
H972 H 0.7085 0.59039 0.05685 0.0
H973 H 0.49113 0.27672 0.19878 0.0
H974 H 0.71751 0.18678 0.72437 0.0
H975 H 0.67593 0.18443 0.76762 0.0
H976 H 0.6382 0.22906 0.69174 0.0
H977 H 0.68068 0.23296 0.64923 0.0
H978 H 0.64044 0.25624 0.74978 0.0
H979 H 0.59513 0.13959 0.71368 0.0
H980 H 0.59423 0.08505 0.7025 0.0
H981 H 0.61038 0.07616 0.8123 0.0
H982 H 0.6119 0.13096 0.82409 0.0
H983 H 0.47393 0.19738 0.82253 0.0
H984 H 0.51438 0.18871 0.78697 0.0
H985 H 0.58061 0.2111 0.87693 0.0
H986 H 0.54044 0.22044 0.91273 0.0
H987 H 0.5633 0.14842 0.81482 0.0
H988 H 0.61357 0.27356 0.84439 0.0
H989 H 0.60517 0.32362 0.85009 0.0
H990 H 0.56943 0.30993 0.74341 0.0
H991 H 0.57714 0.25945 0.73736 0.0
C992 C 0.70057 0.19643 0.71711 0.0
C993 C 0.70245 0.21017 0.68344 0.0
C994 C 0.67656 0.19475 0.74173 0.0
C995 C 0.65338 0.20598 0.73284 0.0
C996 C 0.65574 0.22025 0.69937 0.0
C997 C 0.68013 0.22253 0.67504 0.0
C998 C 0.62687 0.20331 0.75827 0.0
C999 C 0.62367 0.23252 0.76379 0.0
C1000 C 0.60461 0.17241 0.77673 0.0
C1001 C 0.60407 0.13962 0.7697 0.0
C1002 C 0.59884 0.12619 0.7354 0.0
C1003 C 0.59814 0.09519 0.72896 0.0
C1004 C 0.60233 0.0772 0.75666 0.0
C1005 C 0.6072 0.09016 0.79087 0.0
C1006 C 0.60798 0.12119 0.79744 0.0
C1007 C 0.49657 0.19944 0.83507 0.0
C1008 C 0.5041 0.20964 0.8704 0.0
C1009 C 0.51962 0.19449 0.81469 0.0
C1010 C 0.55035 0.1993 0.82941 0.0
C1011 C 0.55684 0.20709 0.86527 0.0
C1012 C 0.534 0.21255 0.88559 0.0
C1013 C 0.5777 0.2013 0.80619 0.0
C1014 C 0.5807 0.17204 0.80098 0.0
C1015 C 0.5992 0.23174 0.78722 0.0
C1016 C 0.59565 0.26267 0.79054 0.0
C1017 C 0.60373 0.28114 0.82226 0.0
C1018 C 0.59912 0.30958 0.82554 0.0
C1019 C 0.58669 0.31991 0.79716 0.0
C1020 C 0.57901 0.30189 0.76539 0.0
C1021 C 0.58352 0.27339 0.76201 0.0
H1022 H 0.58307 0.34189 0.79976 0.0
H1023 H 0.60175 0.05318 0.75163 0.0
H1024 H 0.84226 0.32665 0.48806 0.0
H1025 H 0.84338 0.37639 0.46017 0.0
H1026 H 0.74314 0.34559 0.50369 0.0
H1027 H 0.74212 0.29618 0.53235 0.0
H1028 H 0.75057 0.35895 0.42908 0.0
H1029 H 0.80685 0.40893 0.53756 0.0
H1030 H 0.85003 0.42696 0.58478 0.0
H1031 H 0.93007 0.49152 0.51215 0.0
H1032 H 0.8879 0.47248 0.46415 0.0
H1033 H 0.75089 0.50345 0.35567 0.0
H1034 H 0.74648 0.46283 0.40104 0.0
H1035 H 0.85354 0.49401 0.38505 0.0
H1036 H 0.85842 0.53524 0.34053 0.0
H1037 H 0.83793 0.48123 0.45201 0.0
H1038 H 0.78722 0.42287 0.34301 0.0
H1039 H 0.74716 0.40553 0.29281 0.0
H1040 H 0.66073 0.35821 0.36341 0.0
H1041 H 0.70033 0.3757 0.41409 0.0
C1042 C 0.82048 0.33051 0.49175 0.0
C1043 C 0.79202 0.30746 0.51229 0.0
C1044 C 0.82129 0.35904 0.47602 0.0
C1045 C 0.79345 0.36473 0.48011 0.0
C1046 C 0.76494 0.3417 0.50042 0.0
C1047 C 0.76442 0.31354 0.51676 0.0
C1048 C 0.79336 0.39367 0.46155 0.0
C1049 C 0.76929 0.38574 0.43451 0.0
C1050 C 0.81838 0.42853 0.46818 0.0
C1051 C 0.8441 0.4388 0.49699 0.0
C1052 C 0.83376 0.42633 0.53141 0.0
C1053 C 0.85814 0.43678 0.5584 0.0
C1054 C 0.89287 0.46021 0.55148 0.0
C1055 C 0.90327 0.47319 0.51754 0.0
C1056 C 0.87916 0.46239 0.49036 0.0
C1057 C 0.77368 0.50216 0.36232 0.0
C1058 C 0.80488 0.52224 0.34412 0.0
C1059 C 0.77105 0.47877 0.38812 0.0
C1060 C 0.79945 0.47475 0.39585 0.0
C1061 C 0.83121 0.49647 0.37941 0.0
C1062 C 0.83393 0.52003 0.35385 0.0
C1063 C 0.79576 0.44645 0.41902 0.0
C1064 C 0.81903 0.45444 0.44689 0.0
C1065 C 0.77055 0.41156 0.41275 0.0
C1066 C 0.74672 0.40097 0.38233 0.0
C1067 C 0.75967 0.409 0.34783 0.0
C1068 C 0.73705 0.39912 0.3193 0.0
C1069 C 0.70142 0.38088 0.32492 0.0
C1070 C 0.68833 0.37241 0.3591 0.0
C1071 C 0.71085 0.3823 0.38773 0.0
H1072 H 0.68395 0.37324 0.3028 0.0
H1073 H 0.91169 0.46841 0.57242 0.0
H1074 H 0.89998 0.31884 0.71666 0.0
H1075 H 0.92252 0.3255 0.77655 0.0
H1076 H 0.02631 0.37409 0.73569 0.0
H1077 H 0.00394 0.36702 0.67579 0.0
H1078 H 0.01524 0.32693 0.78757 0.0
H1079 H 0.99694 0.42261 0.76988 0.0
H1080 H 0.96326 0.45039 0.75454 0.0
H1081 H 0.89179 0.39556 0.83795 0.0
H1082 H 0.9248 0.36705 0.85348 0.0
H1083 H 0.10792 0.40552 0.94478 0.0
H1084 H 0.08401 0.39253 0.88526 0.0
H1085 H 0.98161 0.353 0.92772 0.0
H1086 H 0.00548 0.36643 0.98714 0.0
H1087 H 0.99114 0.39422 0.8749 0.0
H1088 H 0.00986 0.29934 0.89382 0.0
H1089 H 0.04332 0.27134 0.90926 0.0
H1090 H 0.11335 0.32375 0.82409 0.0
H1091 H 0.08057 0.35244 0.80842 0.0
C1092 C 0.92757 0.33066 0.72045 0.0
C1093 C 0.95021 0.34263 0.69156 0.0
C1094 C 0.94042 0.33463 0.75466 0.0
C1095 C 0.97612 0.35059 0.76056 0.0
C1096 C 0.9987 0.3618 0.73172 0.0
C1097 C 0.9859 0.358 0.69756 0.0
C1098 C 0.99003 0.35626 0.79682 0.0
C1099 C 0.0103 0.34193 0.80661 0.0
C1100 C 0.98295 0.37522 0.82181 0.0
C1101 C 0.96313 0.39242 0.8126 0.0
C1102 C 0.97388 0.41625 0.78476 0.0
C1103 C 0.95494 0.43217 0.77607 0.0
C1104 C 0.92535 0.42467 0.79519 0.0
C1105 C 0.91469 0.4013 0.82312 0.0
C1106 C 0.93351 0.38527 0.8319 0.0
C1107 C 0.08027 0.39363 0.94139 0.0
C1108 C 0.05857 0.38705 0.97057 0.0
C1109 C 0.06661 0.38619 0.90739 0.0
C1110 C 0.03093 0.37151 0.90198 0.0
C1111 C 0.00921 0.36442 0.93119 0.0
C1112 C 0.02287 0.37212 0.96512 0.0
C1113 C 0.01633 0.36476 0.86589 0.0
C1114 C 0.99598 0.37902 0.85603 0.0
C1115 C 0.02327 0.34563 0.84091 0.0
C1116 C 0.04293 0.32828 0.85015 0.0
C1117 C 0.03254 0.30509 0.87854 0.0
C1118 C 0.05136 0.28906 0.88731 0.0
C1119 C 0.08049 0.29583 0.86772 0.0
C1120 C 0.0908 0.31856 0.83926 0.0
C1121 C 0.07209 0.33469 0.8304 0.0
H1122 H 0.09503 0.2834 0.87456 0.0
H1123 H 0.91073 0.43703 0.78843 0.0
H1124 H 0.65948 0.71143 0.64504 0.0
H1125 H 0.66345 0.69807 0.5835 0.0
H1126 H 0.57434 0.59676 0.59713 0.0
H1127 H 0.57053 0.6099 0.65885 0.0
H1128 H 0.62269 0.59238 0.56229 0.0
H1129 H 0.56951 0.66132 0.55256 0.0
H1130 H 0.56296 0.71198 0.56263 0.0
H1131 H 0.65948 0.77673 0.51051 0.0
H1132 H 0.66685 0.72651 0.50054 0.0
H1133 H 0.59448 0.55212 0.37991 0.0
H1134 H 0.58718 0.5655 0.44062 0.0
H1135 H 0.68248 0.66268 0.43333 0.0
H1136 H 0.68974 0.64963 0.37246 0.0
H1137 H 0.62931 0.66843 0.46434 0.0
H1138 H 0.68204 0.59826 0.47543 0.0
H1139 H 0.68707 0.54675 0.46505 0.0
H1140 H 0.58867 0.48316 0.51432 0.0
H1141 H 0.58282 0.53426 0.52454 0.0
C1142 C 0.64054 0.68644 0.6348 0.0
C1143 C 0.61466 0.66173 0.65671 0.0
C1144 C 0.64281 0.67883 0.59963 0.0
C1145 C 0.61893 0.64654 0.58555 0.0
C1146 C 0.59306 0.62182 0.60741 0.0
C1147 C 0.59094 0.62933 0.64266 0.0
C1148 C 0.62147 0.63826 0.54827 0.0
C1149 C 0.62359 0.60875 0.54086 0.0
C1150 C 0.6233 0.65994 0.5203 0.0
C1151 C 0.61888 0.69019 0.52609 0.0
C1152 C 0.58947 0.68641 0.54348 0.0
C1153 C 0.58558 0.71504 0.54913 0.0
C1154 C 0.61083 0.74757 0.5373 0.0
C1155 C 0.63997 0.75152 0.51969 0.0
C1156 C 0.64399 0.72297 0.514 0.0
C1157 C 0.61375 0.57643 0.3912 0.0
C1158 C 0.64274 0.5998 0.37152 0.0
C1159 C 0.60965 0.58394 0.4259 0.0
C1160 C 0.63442 0.61497 0.4415 0.0
C1161 C 0.66311 0.63858 0.42176 0.0
C1162 C 0.66736 0.63098 0.38714 0.0
C1163 C 0.63059 0.62268 0.47854 0.0
C1164 C 0.62826 0.65207 0.48585 0.0
C1165 C 0.62828 0.60076 0.50639 0.0
C1166 C 0.63184 0.57004 0.50043 0.0
C1167 C 0.66134 0.57325 0.48379 0.0
C1168 C 0.66437 0.54414 0.47798 0.0
C1169 C 0.63817 0.51169 0.48893 0.0
C1170 C 0.60892 0.50831 0.5058 0.0
C1171 C 0.60575 0.53734 0.51164 0.0
H1172 H 0.64056 0.48918 0.48442 0.0
H1173 H 0.60778 0.7697 0.5417 0.0
H1174 H 0.43075 0.01714 0.02205 0.0
H1175 H 0.41483 0.9924 0.08088 0.0
H1176 H 0.33042 0.01258 0.08241 0.0
H1177 H 0.34642 0.03763 0.02335 0.0
H1178 H 0.36453 0.03089 0.14309 0.0
H1179 H 0.31617 0.93046 0.07061 0.0
H1180 H 0.31582 0.89206 0.02407 0.0
H1181 H 0.39323 0.88127 0.07939 0.0
H1182 H 0.39442 0.92003 0.12604 0.0
H1183 H 0.29111 0.93329 0.29824 0.0
H1184 H 0.29754 0.94998 0.23622 0.0
H1185 H 0.38919 0.94188 0.22938 0.0
H1186 H 0.38265 0.92474 0.29133 0.0
H1187 H 0.34684 0.91504 0.17067 0.0
H1188 H 0.39746 0.01838 0.24087 0.0
H1189 H 0.39785 0.05685 0.28735 0.0
H1190 H 0.3153 0.0617 0.23579 0.0
H1191 H 0.31407 0.02279 0.18925 0.0
C1192 C 0.40853 0.01594 0.03471 0.0
C1193 C 0.38963 0.02905 0.01791 0.0
C1194 C 0.39945 1.00179 0.06837 0.0
C1195 C 0.37106 1.00008 0.08587 0.0
C1196 C 0.35235 0.01351 0.06936 0.0
C1197 C 0.36154 0.02787 0.03567 0.0
C1198 C 0.36158 0.98504 0.12173 0.0
C1199 C 0.36001 0.0053 0.14896 0.0
C1200 C 0.35638 0.9519 0.12958 0.0
C1201 C 0.35558 0.92838 0.10169 0.0
C1202 C 0.3333 0.9201 0.07273 0.0
C1203 C 0.33293 0.89823 0.04635 0.0
C1204 C 0.35454 0.88429 0.04874 0.0
C1205 C 0.37652 0.89211 0.07757 0.0
C1206 C 0.37703 0.914 0.10401 0.0
C1207 C 0.31224 0.93441 0.28333 0.0
C1208 C 0.33646 0.92783 0.29965 0.0
C1209 C 0.31603 0.9442 0.248 0.0
C1210 C 0.34407 0.94755 0.22835 0.0
C1211 C 0.36743 0.93954 0.24413 0.0
C1212 C 0.36378 0.92995 0.27952 0.0
C1213 C 0.35001 0.96098 0.19187 0.0
C1214 C 0.35099 0.94046 0.16461 0.0
C1215 C 0.3546 0.99384 0.18395 0.0
C1216 C 0.35541 0.01736 0.21181 0.0
C1217 C 0.37919 0.02741 0.23961 0.0
C1218 C 0.3796 0.04933 0.26593 0.0
C1219 C 0.35655 0.06163 0.26458 0.0
C1220 C 0.3331 0.0521 0.23684 0.0
C1221 C 0.33254 0.03012 0.21047 0.0
H1222 H 0.35691 0.07862 0.28497 0.0
H1223 H 0.35422 0.86737 0.02828 0.0
loop_
_geom_bond_atom_site_label_1
_geom_bond_atom_site_label_2
_geom_bond_distance
_geom_bond_site_symmetry_2
_ccdc_geom_bond_type
O0 Tb1 2.292 . S
O0 C3 1.255 1_554 S
Tb1 O0 2.292 . S
Tb1 O17 2.326 . S
Tb1 O19 2.500 . S
Tb1 O20 2.473 . S
Tb1 O23 2.324 . S
Eu2 O6 2.292 . S
Eu2 C7 2.852 . S
Eu2 O18 2.324 . S
Eu2 O22 2.326 . S
Eu2 O24 2.500 . S
Eu2 O25 2.473 . S
C3 O0 1.255 1_556 S
C3 O4 1.247 . S
O4 C3 1.247 . S
C5 O17 1.242 . S
C5 O18 1.258 . S
O6 Eu2 2.292 . S
O6 C8 1.255 . S
C7 Eu2 2.852 . S
C7 C11 1.503 . S
C7 O24 1.273 . S
C7 O25 1.257 . S
C8 O6 1.255 . S
C8 O9 1.247 . S
O9 C8 1.247 . S
C10 O22 1.242 . S
C10 O23 1.258 . S
C11 C7 1.503 . S
C11 C12 1.379 . S
C11 C16 1.392 . S
C12 C11 1.379 . S
C12 C13 1.404 1_554 S
C12 H26 0.929 . S
C13 C12 1.404 1_556 S
C13 C14 1.389 1_556 S
C14 C13 1.389 1_554 S
C14 C15 1.399 . S
C14 H27 0.931 1_554 S
C15 C14 1.399 . S
C15 C16 1.390 . S
C16 C11 1.392 . S
C16 C15 1.390 . S
C16 H28 0.929 . S
O17 Tb1 2.326 . S
O17 C5 1.242 . S
O18 Eu2 2.324 . S
O18 C5 1.258 . S
O19 Tb1 2.500 . S
O19 C21 1.273 . S
O20 Tb1 2.473 . S
O20 C21 1.257 . S
C21 O19 1.273 . S
C21 O20 1.257 . S
O22 Eu2 2.326 . S
O22 C10 1.242 . S
O23 Tb1 2.324 . S
O23 C10 1.258 . S
O24 Eu2 2.500 . S
O24 C7 1.273 . S
O25 Eu2 2.473 . S
O25 C7 1.257 . S
H26 C12 0.929 . S
H27 C14 0.931 1_556 S
H28 C16 0.929 . S
O29 Tb30 2.292 . S
O29 C32 1.255 . S
Tb30 O29 2.292 . S
Tb30 O46 2.326 . S
Tb30 O48 2.500 . S
Tb30 O49 2.473 . S
Tb30 O52 2.324 . S
Eu31 O35 2.292 . S
Eu31 C36 2.852 . S
Eu31 O47 2.324 . S
Eu31 O51 2.326 . S
Eu31 O53 2.500 . S
Eu31 O54 2.473 . S
C32 O29 1.255 . S
C32 O33 1.247 . S
O33 C32 1.247 . S
C34 O46 1.242 . S
C34 O47 1.258 . S
O35 Eu31 2.292 . S
O35 C37 1.255 . S
C36 Eu31 2.852 . S
C36 C40 1.503 . S
C36 O53 1.273 . S
C36 O54 1.257 . S
C37 O35 1.255 . S
C37 O38 1.247 . S
O38 C37 1.247 . S
C39 O51 1.242 . S
C39 O52 1.258 . S
C40 C36 1.503 . S
C40 C41 1.379 . S
C40 C45 1.392 . S
C41 C40 1.379 . S
C41 C42 1.404 . S
C41 H55 0.929 . S
C42 C41 1.404 . S
C42 C43 1.389 . S
C43 C42 1.389 . S
C43 C44 1.399 . S
C43 H56 0.931 . S
C44 C43 1.399 . S
C44 C45 1.390 . S
C45 C40 1.392 . S
C45 C44 1.390 . S
C45 H57 0.929 . S
O46 Tb30 2.326 . S
O46 C34 1.242 . S
O47 Eu31 2.324 . S
O47 C34 1.258 . S
O48 Tb30 2.500 . S
O48 C50 1.273 . S
O49 Tb30 2.473 . S
O49 C50 1.257 . S
C50 O48 1.273 . S
C50 O49 1.257 . S
O51 Eu31 2.326 . S
O51 C39 1.242 . S
O52 Tb30 2.324 . S
O52 C39 1.258 . S
O53 Eu31 2.500 . S
O53 C36 1.273 . S
O54 Eu31 2.473 . S
O54 C36 1.257 . S
H55 C41 0.929 . S
H56 C43 0.931 . S
H57 C45 0.929 . S
O58 Tb59 2.292 . S
O58 C61 1.255 . S
Tb59 O58 2.292 . S
Tb59 O75 2.326 . S
Tb59 O77 2.500 . S
Tb59 O78 2.473 . S
Tb59 O81 2.324 . S
Eu60 O64 2.292 . S
Eu60 C65 2.852 . S
Eu60 O76 2.324 . S
Eu60 O80 2.326 . S
Eu60 O82 2.500 . S
Eu60 O83 2.473 . S
C61 O58 1.255 . S
C61 O62 1.247 . S
O62 C61 1.247 . S
C63 O75 1.242 . S
C63 O76 1.258 . S
O64 Eu60 2.292 . S
O64 C66 1.255 . S
C65 Eu60 2.852 . S
C65 C69 1.503 . S
C65 O82 1.273 . S
C65 O83 1.257 . S
C66 O64 1.255 . S
C66 O67 1.247 . S
O67 C66 1.247 . S
C68 O80 1.242 . S
C68 O81 1.258 . S
C69 C65 1.503 . S
C69 C70 1.379 . S
C69 C74 1.392 . S
C70 C69 1.379 . S
C70 C71 1.404 . S
C70 H84 0.929 . S
C71 C70 1.404 . S
C71 C72 1.389 . S
C72 C71 1.389 . S
C72 C73 1.399 . S
C72 H85 0.931 . S
C73 C72 1.399 . S
C73 C74 1.390 . S
C74 C69 1.392 . S
C74 C73 1.390 . S
C74 H86 0.929 . S
O75 Tb59 2.326 . S
O75 C63 1.242 . S
O76 Eu60 2.324 . S
O76 C63 1.258 . S
O77 Tb59 2.500 . S
O77 C79 1.273 . S
O78 Tb59 2.473 . S
O78 C79 1.257 . S
C79 O77 1.273 . S
C79 O78 1.257 . S
O80 Eu60 2.326 . S
O80 C68 1.242 . S
O81 Tb59 2.324 . S
O81 C68 1.258 . S
O82 Eu60 2.500 . S
O82 C65 1.273 . S
O83 Eu60 2.473 . S
O83 C65 1.257 . S
H84 C70 0.929 . S
H85 C72 0.931 . S
H86 C74 0.929 . S
O87 Tb88 2.292 . S
O87 C90 1.255 1_556 S
Tb88 O87 2.292 . S
Tb88 O104 2.326 . S
Tb88 O106 2.500 . S
Tb88 O107 2.473 . S
Tb88 O110 2.324 . S
Eu89 O93 2.292 . S
Eu89 C94 2.852 . S
Eu89 O105 2.324 . S
Eu89 O109 2.326 . S
Eu89 O111 2.500 . S
Eu89 O112 2.473 . S
C90 O87 1.255 1_554 S
C90 O91 1.247 . S
O91 C90 1.247 . S
C92 O104 1.242 . S
C92 O105 1.258 . S
O93 Eu89 2.292 . S
O93 C95 1.255 . S
C94 Eu89 2.852 . S
C94 C98 1.503 . S
C94 O111 1.273 . S
C94 O112 1.257 . S
C95 O93 1.255 . S
C95 O96 1.247 . S
O96 C95 1.247 . S
C97 O109 1.242 . S
C97 O110 1.258 . S
C98 C94 1.503 . S
C98 C99 1.379 . S
C98 C103 1.392 . S
C99 C98 1.379 . S
C99 C100 1.404 1_556 S
C99 H113 0.929 . S
C100 C99 1.404 1_554 S
C100 C101 1.389 1_554 S
C101 C100 1.389 1_556 S
C101 C102 1.399 . S
C101 H114 0.931 1_556 S
C102 C101 1.399 . S
C102 C103 1.390 . S
C103 C98 1.392 . S
C103 C102 1.390 . S
C103 H115 0.929 . S
O104 Tb88 2.326 . S
O104 C92 1.242 . S
O105 Eu89 2.324 . S
O105 C92 1.258 . S
O106 Tb88 2.500 . S
O106 C108 1.273 . S
O107 Tb88 2.473 . S
O107 C108 1.257 . S
C108 O106 1.273 . S
C108 O107 1.257 . S
O109 Eu89 2.326 . S
O109 C97 1.242 . S
O110 Tb88 2.324 . S
O110 C97 1.258 . S
O111 Eu89 2.500 . S
O111 C94 1.273 . S
O112 Eu89 2.473 . S
O112 C94 1.257 . S
H113 C99 0.929 . S
H114 C101 0.931 1_554 S
H115 C103 0.929 . S
O116 Tb117 2.292 . S
O116 C119 1.255 . S
Tb117 O116 2.292 . S
Tb117 O133 2.326 . S
Tb117 O135 2.500 . S
Tb117 O136 2.473 . S
Tb117 O139 2.324 . S
Eu118 O122 2.292 . S
Eu118 C123 2.852 . S
Eu118 O134 2.324 . S
Eu118 O138 2.326 . S
Eu118 O140 2.500 . S
Eu118 O141 2.473 . S
C119 O116 1.255 . S
C119 O120 1.247 . S
O120 C119 1.247 . S
C121 O133 1.242 . S
C121 O134 1.258 . S
O122 Eu118 2.292 . S
O122 C124 1.255 . S
C123 Eu118 2.852 . S
C123 C127 1.503 . S
C123 O140 1.273 . S
C123 O141 1.257 . S
C124 O122 1.255 . S
C124 O125 1.247 . S
O125 C124 1.247 . S
C126 O138 1.242 . S
C126 O139 1.258 . S
C127 C123 1.503 . S
C127 C128 1.379 . S
C127 C132 1.392 . S
C128 C127 1.379 . S
C128 C129 1.404 . S
C128 H142 0.929 . S
C129 C128 1.404 . S
C129 C130 1.389 . S
C130 C129 1.389 . S
C130 C131 1.399 . S
C130 H143 0.931 . S
C131 C130 1.399 . S
C131 C132 1.390 . S
C132 C127 1.392 . S
C132 C131 1.390 . S
C132 H144 0.929 . S
O133 Tb117 2.326 . S
O133 C121 1.242 . S
O134 Eu118 2.324 . S
O134 C121 1.258 . S
O135 Tb117 2.500 . S
O135 C137 1.273 . S
O136 Tb117 2.473 . S
O136 C137 1.257 . S
C137 O135 1.273 . S
C137 O136 1.257 . S
O138 Eu118 2.326 . S
O138 C126 1.242 . S
O139 Tb117 2.324 . S
O139 C126 1.258 . S
O140 Eu118 2.500 . S
O140 C123 1.273 . S
O141 Eu118 2.473 . S
O141 C123 1.257 . S
H142 C128 0.929 . S
H143 C130 0.931 . S
H144 C132 0.929 . S
O145 Tb146 2.292 . S
O145 C148 1.255 . S
Tb146 O145 2.292 . S
Tb146 O162 2.326 . S
Tb146 O164 2.500 . S
Tb146 O165 2.473 . S
Tb146 O168 2.324 . S
Eu147 O151 2.292 . S
Eu147 C152 2.852 . S
Eu147 O163 2.324 . S
Eu147 O167 2.326 . S
Eu147 O169 2.500 . S
Eu147 O170 2.473 . S
C148 O145 1.255 . S
C148 O149 1.247 . S
O149 C148 1.247 . S
C150 O162 1.242 . S
C150 O163 1.258 . S
O151 Eu147 2.292 . S
O151 C153 1.255 . S
C152 Eu147 2.852 . S
C152 C156 1.503 . S
C152 O169 1.273 . S
C152 O170 1.257 . S
C153 O151 1.255 . S
C153 O154 1.247 . S
O154 C153 1.247 . S
C155 O167 1.242 . S
C155 O168 1.258 . S
C156 C152 1.503 . S
C156 C157 1.379 . S
C156 C161 1.392 . S
C157 C156 1.379 . S
C157 C158 1.404 . S
C157 H171 0.929 . S
C158 C157 1.404 . S
C158 C159 1.389 . S
C159 C158 1.389 . S
C159 C160 1.399 . S
C159 H172 0.931 . S
C160 C159 1.399 . S
C160 C161 1.390 . S
C161 C156 1.392 . S
C161 C160 1.390 . S
C161 H173 0.929 . S
O162 Tb146 2.326 . S
O162 C150 1.242 . S
O163 Eu147 2.324 . S
O163 C150 1.258 . S
O164 Tb146 2.500 . S
O164 C166 1.273 . S
O165 Tb146 2.473 . S
O165 C166 1.257 . S
C166 O164 1.273 . S
C166 O165 1.257 . S
O167 Eu147 2.326 . S
O167 C155 1.242 . S
O168 Tb146 2.324 . S
O168 C155 1.258 . S
O169 Eu147 2.500 . S
O169 C152 1.273 . S
O170 Eu147 2.473 . S
O170 C152 1.257 . S
H171 C157 0.929 . S
H172 C159 0.931 . S
H173 C161 0.929 . S
H174 C192 0.951 . S
H175 C194 0.951 . S
H176 C196 0.950 . S
H177 C197 0.950 . S
H178 C199 0.950 . S
H179 C202 0.950 . S
H180 C203 0.950 . S
H181 C205 0.950 . S
H182 C206 0.950 . S
H183 C207 0.951 . S
H184 C209 0.951 . S
H185 C211 0.950 . S
H186 C212 0.950 . S
H187 C214 0.950 . S
H188 C217 0.950 . S
H189 C218 0.950 . S
H190 C220 0.950 . S
H191 C221 0.950 . S
C192 H174 0.951 . S
C192 C193 1.366 . S
C192 C194 1.388 . S
C193 C192 1.366 . S
C193 C197 1.385 . S
C194 H175 0.951 . S
C194 C192 1.388 . S
C194 C195 1.366 . S
C195 C194 1.366 . S
C195 C196 1.414 . S
C195 C198 1.499 . S
C196 H176 0.950 . S
C196 C195 1.414 . S
C196 C197 1.374 . S
C197 H177 0.950 . S
C197 C193 1.385 . S
C197 C196 1.374 . S
C198 C195 1.499 . S
C198 C199 1.373 . S
C198 C200 1.389 . S
C199 H178 0.950 . S
C199 C198 1.373 . S
C199 C215 1.377 . S
C200 C198 1.389 . S
C200 C201 1.524 . S
C200 C214 1.377 . S
C201 C200 1.524 . S
C201 C202 1.397 . S
C201 C206 1.363 . S
C202 H179 0.950 . S
C202 C201 1.397 . S
C202 C203 1.334 . S
C203 H180 0.950 . S
C203 C202 1.334 . S
C203 C204 1.287 . S
C204 C203 1.287 . S
C204 C205 1.524 . S
C204 H223 0.913 . S
C205 H181 0.950 . S
C205 C204 1.524 . S
C205 C206 1.415 . S
C206 H182 0.950 . S
C206 C201 1.363 . S
C206 C205 1.415 . S
C207 H183 0.951 . S
C207 C208 1.366 . S
C207 C209 1.388 . S
C208 C207 1.366 . S
C208 C212 1.385 . S
C209 H184 0.951 . S
C209 C207 1.388 . S
C209 C210 1.366 . S
C210 C209 1.366 . S
C210 C211 1.414 . S
C210 C213 1.499 . S
C211 H185 0.950 . S
C211 C210 1.414 . S
C211 C212 1.374 . S
C212 H186 0.950 . S
C212 C208 1.385 . S
C212 C211 1.374 . S
C213 C210 1.499 . S
C213 C214 1.373 . S
C213 C215 1.389 . S
C214 H187 0.950 . S
C214 C200 1.377 . S
C214 C213 1.373 . S
C215 C199 1.377 . S
C215 C213 1.389 . S
C215 C216 1.524 . S
C216 C215 1.524 . S
C216 C217 1.397 . S
C216 C221 1.363 . S
C217 H188 0.950 . S
C217 C216 1.397 . S
C217 C218 1.334 . S
C218 H189 0.950 . S
C218 C217 1.334 . S
C218 C219 1.287 . S
C219 C218 1.287 . S
C219 C220 1.524 . S
C219 H222 0.999 . S
C220 H190 0.950 . S
C220 C219 1.524 . S
C220 C221 1.415 . S
C221 H191 0.950 . S
C221 C216 1.363 . S
C221 C220 1.415 . S
H222 C219 0.999 . S
H223 C204 0.913 . S
H224 C242 0.951 . S
H225 C244 0.951 . S
H226 C246 0.950 . S
H227 C247 0.950 . S
H228 C249 0.950 . S
H229 C252 0.950 . S
H230 C253 0.950 . S
H231 C255 0.950 . S
H232 C256 0.950 . S
H233 C257 0.951 . S
H234 C259 0.951 . S
H235 C261 0.950 . S
H236 C262 0.950 . S
H237 C264 0.950 . S
H238 C267 0.950 . S
H239 C268 0.950 . S
H240 C270 0.950 . S
H241 C271 0.950 . S
C242 H224 0.951 . S
C242 C243 1.366 . S
C242 C244 1.388 . S
C243 C242 1.366 . S
C243 C247 1.385 . S
C244 H225 0.951 . S
C244 C242 1.388 . S
C244 C245 1.366 . S
C245 C244 1.366 . S
C245 C246 1.414 . S
C245 C248 1.499 . S
C246 H226 0.950 . S
C246 C245 1.414 . S
C246 C247 1.374 . S
C247 H227 0.950 . S
C247 C243 1.385 . S
C247 C246 1.374 . S
C248 C245 1.499 . S
C248 C249 1.373 . S
C248 C250 1.389 . S
C249 H228 0.950 . S
C249 C248 1.373 . S
C249 C265 1.377 . S
C250 C248 1.389 . S
C250 C251 1.524 . S
C250 C264 1.377 . S
C251 C250 1.524 . S
C251 C252 1.397 . S
C251 C256 1.363 . S
C252 H229 0.950 . S
C252 C251 1.397 . S
C252 C253 1.334 . S
C253 H230 0.950 . S
C253 C252 1.334 . S
C253 C254 1.287 . S
C254 C253 1.287 . S
C254 C255 1.524 . S
C254 H273 0.913 . S
C255 H231 0.950 . S
C255 C254 1.524 . S
C255 C256 1.415 . S
C256 H232 0.950 . S
C256 C251 1.363 . S
C256 C255 1.415 . S
C257 H233 0.951 . S
C257 C258 1.366 1_565 S
C257 C259 1.388 . S
C258 C257 1.366 1_545 S
C258 C262 1.385 . S
C259 H234 0.951 . S
C259 C257 1.388 . S
C259 C260 1.366 . S
C260 C259 1.366 . S
C260 C261 1.414 1_565 S
C260 C263 1.499 . S
C261 H235 0.950 . S
C261 C260 1.414 1_545 S
C261 C262 1.374 . S
C262 H236 0.950 . S
C262 C258 1.385 . S
C262 C261 1.374 . S
C263 C260 1.499 . S
C263 C264 1.373 . S
C263 C265 1.389 . S
C264 H237 0.950 . S
C264 C250 1.377 . S
C264 C263 1.373 . S
C265 C249 1.377 . S
C265 C263 1.389 . S
C265 C266 1.524 . S
C266 C265 1.524 . S
C266 C267 1.397 . S
C266 C271 1.363 . S
C267 H238 0.950 . S
C267 C266 1.397 . S
C267 C268 1.334 . S
C268 H239 0.950 . S
C268 C267 1.334 . S
C268 C269 1.287 . S
C269 C268 1.287 . S
C269 C270 1.524 . S
C269 H272 0.999 . S
C270 H240 0.950 . S
C270 C269 1.524 . S
C270 C271 1.415 . S
C271 H241 0.950 . S
C271 C266 1.363 . S
C271 C270 1.415 . S
H272 C269 0.999 . S
H273 C254 0.913 . S
H274 C292 0.951 . S
H275 C294 0.951 . S
H276 C296 0.950 . S
H277 C297 0.950 . S
H278 C299 0.950 . S
H279 C302 0.950 . S
H280 C303 0.950 . S
H281 C305 0.950 1_655 S
H282 C306 0.950 . S
H283 C307 0.951 . S
H284 C309 0.951 . S
H285 C311 0.950 1_655 S
H286 C312 0.950 . S
H287 C314 0.950 . S
H288 C317 0.950 . S
H289 C318 0.950 . S
H290 C320 0.950 . S
H291 C321 0.950 . S
C292 H274 0.951 . S
C292 C293 1.366 . S
C292 C294 1.388 . S
C293 C292 1.366 . S
C293 C297 1.385 . S
C294 H275 0.951 . S
C294 C292 1.388 . S
C294 C295 1.366 . S
C295 C294 1.366 . S
C295 C296 1.414 . S
C295 C298 1.499 . S
C296 H276 0.950 . S
C296 C295 1.414 . S
C296 C297 1.374 . S
C297 H277 0.950 . S
C297 C293 1.385 . S
C297 C296 1.374 . S
C298 C295 1.499 . S
C298 C299 1.373 . S
C298 C300 1.389 . S
C299 H278 0.950 . S
C299 C298 1.373 . S
C299 C315 1.377 . S
C300 C298 1.389 . S
C300 C301 1.524 . S
C300 C314 1.377 . S
C301 C300 1.524 . S
C301 C302 1.397 . S
C301 C306 1.363 . S
C302 H279 0.950 . S
C302 C301 1.397 . S
C302 C303 1.334 . S
C303 H280 0.950 . S
C303 C302 1.334 . S
C303 C304 1.287 . S
C304 C303 1.287 . S
C304 C305 1.524 . S
C304 H323 0.913 . S
C305 H281 0.950 1_455 S
C305 C304 1.524 . S
C305 C306 1.415 . S
C306 H282 0.950 . S
C306 C301 1.363 . S
C306 C305 1.415 . S
C307 H283 0.951 . S
C307 C308 1.366 1_455 S
C307 C309 1.388 . S
C308 C307 1.366 1_655 S
C308 C312 1.385 . S
C309 H284 0.951 . S
C309 C307 1.388 . S
C309 C310 1.366 . S
C310 C309 1.366 . S
C310 C311 1.414 . S
C310 C313 1.499 . S
C311 H285 0.950 1_455 S
C311 C310 1.414 . S
C311 C312 1.374 1_455 S
C312 H286 0.950 . S
C312 C308 1.385 . S
C312 C311 1.374 1_655 S
C313 C310 1.499 . S
C313 C314 1.373 . S
C313 C315 1.389 . S
C314 H287 0.950 . S
C314 C300 1.377 . S
C314 C313 1.373 . S
C315 C299 1.377 . S
C315 C313 1.389 . S
C315 C316 1.524 . S
C316 C315 1.524 . S
C316 C317 1.397 . S
C316 C321 1.363 . S
C317 H288 0.950 . S
C317 C316 1.397 . S
C317 C318 1.334 . S
C318 H289 0.950 . S
C318 C317 1.334 . S
C318 C319 1.287 . S
C319 C318 1.287 . S
C319 C320 1.524 . S
C319 H322 0.999 . S
C320 H290 0.950 . S
C320 C319 1.524 . S
C320 C321 1.415 . S
C321 H291 0.950 . S
C321 C316 1.363 . S
C321 C320 1.415 . S
H322 C319 0.999 . S
H323 C304 0.913 . S
H324 C342 0.951 . S
H325 C344 0.951 . S
H326 C346 0.950 . S
H327 C347 0.950 . S
H328 C349 0.950 . S
H329 C352 0.950 . S
H330 C353 0.950 . S
H331 C355 0.950 . S
H332 C356 0.950 . S
H333 C357 0.951 . S
H334 C359 0.951 . S
H335 C361 0.950 . S
H336 C362 0.950 . S
H337 C364 0.950 . S
H338 C367 0.950 . S
H339 C368 0.950 . S
H340 C370 0.950 . S
H341 C371 0.950 . S
C342 H324 0.951 . S
C342 C343 1.366 . S
C342 C344 1.388 . S
C343 C342 1.366 . S
C343 C347 1.385 . S
C344 H325 0.951 . S
C344 C342 1.388 . S
C344 C345 1.366 . S
C345 C344 1.366 . S
C345 C346 1.414 . S
C345 C348 1.499 . S
C346 H326 0.950 . S
C346 C345 1.414 . S
C346 C347 1.374 . S
C347 H327 0.950 . S
C347 C343 1.385 . S
C347 C346 1.374 . S
C348 C345 1.499 . S
C348 C349 1.373 . S
C348 C350 1.389 . S
C349 H328 0.950 . S
C349 C348 1.373 . S
C349 C365 1.377 . S
C350 C348 1.389 . S
C350 C351 1.524 . S
C350 C364 1.377 . S
C351 C350 1.524 . S
C351 C352 1.397 . S
C351 C356 1.363 . S
C352 H329 0.950 . S
C352 C351 1.397 . S
C352 C353 1.334 . S
C353 H330 0.950 . S
C353 C352 1.334 . S
C353 C354 1.287 . S
C354 C353 1.287 . S
C354 C355 1.524 . S
C354 H373 0.913 . S
C355 H331 0.950 . S
C355 C354 1.524 . S
C355 C356 1.415 . S
C356 H332 0.950 . S
C356 C351 1.363 . S
C356 C355 1.415 . S
C357 H333 0.951 . S
C357 C358 1.366 . S
C357 C359 1.388 . S
C358 C357 1.366 . S
C358 C362 1.385 . S
C359 H334 0.951 . S
C359 C357 1.388 . S
C359 C360 1.366 . S
C360 C359 1.366 . S
C360 C361 1.414 . S
C360 C363 1.499 . S
C361 H335 0.950 . S
C361 C360 1.414 . S
C361 C362 1.374 . S
C362 H336 0.950 . S
C362 C358 1.385 . S
C362 C361 1.374 . S
C363 C360 1.499 . S
C363 C364 1.373 . S
C363 C365 1.389 . S
C364 H337 0.950 . S
C364 C350 1.377 . S
C364 C363 1.373 . S
C365 C349 1.377 . S
C365 C363 1.389 . S
C365 C366 1.524 . S
C366 C365 1.524 . S
C366 C367 1.397 . S
C366 C371 1.363 . S
C367 H338 0.950 . S
C367 C366 1.397 . S
C367 C368 1.334 . S
C368 H339 0.950 . S
C368 C367 1.334 . S
C368 C369 1.287 . S
C369 C368 1.287 . S
C369 C370 1.524 . S
C369 H372 0.999 . S
C370 H340 0.950 . S
C370 C369 1.524 . S
C370 C371 1.415 . S
C371 H341 0.950 . S
C371 C366 1.363 . S
C371 C370 1.415 . S
H372 C369 0.999 . S
H373 C354 0.913 . S
H374 C392 0.951 . S
H375 C394 0.951 . S
H376 C396 0.950 . S
H377 C397 0.950 . S
H378 C399 0.950 . S
H379 C402 0.950 . S
H380 C403 0.950 . S
H381 C405 0.950 . S
H382 C406 0.950 . S
H383 C407 0.951 . S
H384 C409 0.951 . S
H385 C411 0.950 . S
H386 C412 0.950 . S
H387 C414 0.950 . S
H388 C417 0.950 . S
H389 C418 0.950 . S
H390 C420 0.950 . S
H391 C421 0.950 . S
C392 H374 0.951 . S
C392 C393 1.366 1_545 S
C392 C394 1.388 . S
C393 C392 1.366 1_565 S
C393 C397 1.385 . S
C394 H375 0.951 . S
C394 C392 1.388 . S
C394 C395 1.366 . S
C395 C394 1.366 . S
C395 C396 1.414 1_545 S
C395 C398 1.499 . S
C396 H376 0.950 . S
C396 C395 1.414 1_565 S
C396 C397 1.374 . S
C397 H377 0.950 . S
C397 C393 1.385 . S
C397 C396 1.374 . S
C398 C395 1.499 . S
C398 C399 1.373 . S
C398 C400 1.389 . S
C399 H378 0.950 . S
C399 C398 1.373 . S
C399 C415 1.377 . S
C400 C398 1.389 . S
C400 C401 1.524 . S
C400 C414 1.377 . S
C401 C400 1.524 . S
C401 C402 1.397 . S
C401 C406 1.363 . S
C402 H379 0.950 . S
C402 C401 1.397 . S
C402 C403 1.334 . S
C403 H380 0.950 . S
C403 C402 1.334 . S
C403 C404 1.287 . S
C404 C403 1.287 . S
C404 C405 1.524 . S
C404 H423 0.913 . S
C405 H381 0.950 . S
C405 C404 1.524 . S
C405 C406 1.415 . S
C406 H382 0.950 . S
C406 C401 1.363 . S
C406 C405 1.415 . S
C407 H383 0.951 . S
C407 C408 1.366 . S
C407 C409 1.388 . S
C408 C407 1.366 . S
C408 C412 1.385 . S
C409 H384 0.951 . S
C409 C407 1.388 . S
C409 C410 1.366 . S
C410 C409 1.366 . S
C410 C411 1.414 . S
C410 C413 1.499 . S
C411 H385 0.950 . S
C411 C410 1.414 . S
C411 C412 1.374 . S
C412 H386 0.950 . S
C412 C408 1.385 . S
C412 C411 1.374 . S
C413 C410 1.499 . S
C413 C414 1.373 . S
C413 C415 1.389 . S
C414 H387 0.950 . S
C414 C400 1.377 . S
C414 C413 1.373 . S
C415 C399 1.377 . S
C415 C413 1.389 . S
C415 C416 1.524 . S
C416 C415 1.524 . S
C416 C417 1.397 . S
C416 C421 1.363 . S
C417 H388 0.950 . S
C417 C416 1.397 . S
C417 C418 1.334 . S
C418 H389 0.950 . S
C418 C417 1.334 . S
C418 C419 1.287 . S
C419 C418 1.287 . S
C419 C420 1.524 . S
C419 H422 0.999 . S
C420 H390 0.950 . S
C420 C419 1.524 . S
C420 C421 1.415 . S
C421 H391 0.950 . S
C421 C416 1.363 . S
C421 C420 1.415 . S
H422 C419 0.999 . S
H423 C404 0.913 . S
H424 C442 0.951 . S
H425 C444 0.949 . S
H426 C446 0.950 . S
H427 C447 0.950 . S
H428 C449 0.950 . S
H429 C452 0.950 . S
H430 C453 0.950 . S
H431 C455 0.950 . S
H432 C456 0.950 . S
H433 C457 0.951 . S
H434 C459 0.951 . S
H435 C461 0.950 . S
H436 C462 0.950 . S
H437 C464 0.950 . S
H438 C467 0.950 . S
H439 C468 0.950 . S
H440 C470 0.950 . S
H441 C471 0.950 . S
C442 H424 0.951 . S
C442 C443 1.366 . S
C442 C444 1.395 . S
C443 C442 1.366 . S
C443 C447 1.385 1_455 S
C444 H425 0.949 . S
C444 C442 1.395 . S
C444 C445 1.360 1_455 S
C445 C444 1.360 1_655 S
C445 C446 1.414 . S
C445 C448 1.499 . S
C446 H426 0.950 . S
C446 C445 1.414 . S
C446 C447 1.374 . S
C447 H427 0.950 . S
C447 C443 1.385 1_655 S
C447 C446 1.374 . S
C448 C445 1.499 . S
C448 C449 1.373 . S
C448 C450 1.389 . S
C449 H428 0.950 . S
C449 C448 1.373 . S
C449 C465 1.377 . S
C450 C448 1.389 . S
C450 C451 1.524 . S
C450 C464 1.377 . S
C451 C450 1.524 . S
C451 C452 1.397 . S
C451 C456 1.363 1_655 S
C452 H429 0.950 . S
C452 C451 1.397 . S
C452 C453 1.334 1_655 S
C453 H430 0.950 . S
C453 C452 1.334 1_455 S
C453 C454 1.287 . S
C454 C453 1.287 . S
C454 C455 1.524 . S
C454 H473 0.913 . S
C455 H431 0.950 . S
C455 C454 1.524 . S
C455 C456 1.415 . S
C456 H432 0.950 . S
C456 C451 1.363 1_455 S
C456 C455 1.415 . S
C457 H433 0.951 . S
C457 C458 1.366 . S
C457 C459 1.388 . S
C458 C457 1.366 . S
C458 C462 1.385 . S
C459 H434 0.951 . S
C459 C457 1.388 . S
C459 C460 1.366 . S
C460 C459 1.366 . S
C460 C461 1.414 . S
C460 C463 1.499 . S
C461 H435 0.950 . S
C461 C460 1.414 . S
C461 C462 1.374 . S
C462 H436 0.950 . S
C462 C458 1.385 . S
C462 C461 1.374 . S
C463 C460 1.499 . S
C463 C464 1.373 . S
C463 C465 1.389 . S
C464 H437 0.950 . S
C464 C450 1.377 . S
C464 C463 1.373 . S
C465 C449 1.377 . S
C465 C463 1.389 . S
C465 C466 1.524 . S
C466 C465 1.524 . S
C466 C467 1.397 . S
C466 C471 1.363 . S
C467 H438 0.950 . S
C467 C466 1.397 . S
C467 C468 1.334 . S
C468 H439 0.950 . S
C468 C467 1.334 . S
C468 C469 1.287 . S
C469 C468 1.287 . S
C469 C470 1.524 . S
C469 H472 0.999 . S
C470 H440 0.950 . S
C470 C469 1.524 . S
C470 C471 1.415 . S
C471 H441 0.950 . S
C471 C466 1.363 . S
C471 C470 1.415 . S
H472 C469 0.999 . S
H473 C454 0.913 . S
H474 C492 0.951 . S
H475 C494 0.951 . S
H476 C496 0.950 1_554 S
H477 C497 0.950 . S
H478 C499 0.950 . S
H479 C502 0.950 . S
H480 C503 0.950 . S
H481 C505 0.950 . S
H482 C506 0.950 . S
H483 C507 0.951 . S
H484 C509 0.951 . S
H485 C511 0.950 1_556 S
H486 C512 0.950 . S
H487 C514 0.950 . S
H488 C517 0.950 . S
H489 C518 0.950 . S
H490 C520 0.950 . S
H491 C521 0.950 . S
C492 H474 0.951 . S
C492 C493 1.366 . S
C492 C494 1.388 . S
C493 C492 1.366 . S
C493 C497 1.385 . S
C494 H475 0.951 . S
C494 C492 1.388 . S
C494 C495 1.366 . S
C495 C494 1.366 . S
C495 C496 1.414 . S
C495 C498 1.499 . S
C496 H476 0.950 1_556 S
C496 C495 1.414 . S
C496 C497 1.374 . S
C497 H477 0.950 . S
C497 C493 1.385 . S
C497 C496 1.374 . S
C498 C495 1.499 . S
C498 C499 1.373 . S
C498 C500 1.389 . S
C499 H478 0.950 . S
C499 C498 1.373 . S
C499 C515 1.377 1_556 S
C500 C498 1.389 . S
C500 C501 1.524 . S
C500 C514 1.377 1_556 S
C501 C500 1.524 . S
C501 C502 1.397 1_556 S
C501 C506 1.363 . S
C502 H479 0.950 . S
C502 C501 1.397 1_554 S
C502 C503 1.334 . S
C503 H480 0.950 . S
C503 C502 1.334 . S
C503 C504 1.287 . S
C504 C503 1.287 . S
C504 C505 1.524 1_554 S
C504 H523 0.913 . S
C505 H481 0.950 . S
C505 C504 1.524 1_556 S
C505 C506 1.415 . S
C506 H482 0.950 . S
C506 C501 1.363 . S
C506 C505 1.415 . S
C507 H483 0.951 . S
C507 C508 1.366 . S
C507 C509 1.388 . S
C508 C507 1.366 . S
C508 C512 1.385 . S
C509 H484 0.951 . S
C509 C507 1.388 . S
C509 C510 1.366 . S
C510 C509 1.366 . S
C510 C511 1.414 . S
C510 C513 1.499 . S
C511 H485 0.950 1_554 S
C511 C510 1.414 . S
C511 C512 1.374 . S
C512 H486 0.950 . S
C512 C508 1.385 . S
C512 C511 1.374 . S
C513 C510 1.499 . S
C513 C514 1.373 . S
C513 C515 1.389 . S
C514 H487 0.950 . S
C514 C500 1.377 1_554 S
C514 C513 1.373 . S
C515 C499 1.377 1_554 S
C515 C513 1.389 . S
C515 C516 1.524 . S
C516 C515 1.524 . S
C516 C517 1.397 1_554 S
C516 C521 1.363 . S
C517 H488 0.950 . S
C517 C516 1.397 1_556 S
C517 C518 1.334 . S
C518 H489 0.950 . S
C518 C517 1.334 . S
C518 C519 1.287 . S
C519 C518 1.287 . S
C519 C520 1.524 1_556 S
C519 H522 0.999 . S
C520 H490 0.950 . S
C520 C519 1.524 1_554 S
C520 C521 1.415 . S
C521 H491 0.950 . S
C521 C516 1.363 . S
C521 C520 1.415 . S
H522 C519 0.999 . S
H523 C504 0.913 . S
H524 C542 0.951 . S
H525 C544 0.951 . S
H526 C546 0.950 . S
H527 C547 0.950 . S
H528 C549 0.950 . S
H529 C552 0.950 . S
H530 C553 0.950 . S
H531 C555 0.950 . S
H532 C556 0.950 . S
H533 C557 0.951 . S
H534 C559 0.951 . S
H535 C561 0.950 . S
H536 C562 0.950 . S
H537 C564 0.950 . S
H538 C567 0.950 . S
H539 C568 0.950 . S
H540 C570 0.950 . S
H541 C571 0.950 . S
C542 H524 0.951 . S
C542 C543 1.366 . S
C542 C544 1.388 . S
C543 C542 1.366 . S
C543 C547 1.385 . S
C544 H525 0.951 . S
C544 C542 1.388 . S
C544 C545 1.366 . S
C545 C544 1.366 . S
C545 C546 1.414 . S
C545 C548 1.499 . S
C546 H526 0.950 . S
C546 C545 1.414 . S
C546 C547 1.374 . S
C547 H527 0.950 . S
C547 C543 1.385 . S
C547 C546 1.374 . S
C548 C545 1.499 . S
C548 C549 1.373 . S
C548 C550 1.389 . S
C549 H528 0.950 . S
C549 C548 1.373 . S
C549 C565 1.377 1_545 S
C550 C548 1.389 . S
C550 C551 1.524 . S
C550 C564 1.377 1_545 S
C551 C550 1.524 . S
C551 C552 1.397 . S
C551 C556 1.363 . S
C552 H529 0.950 . S
C552 C551 1.397 . S
C552 C553 1.334 . S
C553 H530 0.950 . S
C553 C552 1.334 . S
C553 C554 1.287 . S
C554 C553 1.287 . S
C554 C555 1.524 . S
C554 H573 0.913 . S
C555 H531 0.950 . S
C555 C554 1.524 . S
C555 C556 1.415 . S
C556 H532 0.950 . S
C556 C551 1.363 . S
C556 C555 1.415 . S
C557 H533 0.951 . S
C557 C558 1.366 . S
C557 C559 1.388 . S
C558 C557 1.366 . S
C558 C562 1.385 . S
C559 H534 0.951 . S
C559 C557 1.388 . S
C559 C560 1.366 . S
C560 C559 1.366 . S
C560 C561 1.414 . S
C560 C563 1.499 . S
C561 H535 0.950 . S
C561 C560 1.414 . S
C561 C562 1.374 . S
C562 H536 0.950 . S
C562 C558 1.385 . S
C562 C561 1.374 . S
C563 C560 1.499 . S
C563 C564 1.373 . S
C563 C565 1.389 . S
C564 H537 0.950 . S
C564 C550 1.377 1_565 S
C564 C563 1.373 . S
C565 C549 1.377 1_565 S
C565 C563 1.389 . S
C565 C566 1.524 . S
C566 C565 1.524 . S
C566 C567 1.397 . S
C566 C571 1.363 . S
C567 H538 0.950 . S
C567 C566 1.397 . S
C567 C568 1.334 . S
C568 H539 0.950 . S
C568 C567 1.334 . S
C568 C569 1.287 . S
C569 C568 1.287 . S
C569 C570 1.524 . S
C569 H572 0.999 . S
C570 H540 0.950 . S
C570 C569 1.524 . S
C570 C571 1.415 . S
C571 H541 0.950 . S
C571 C566 1.363 . S
C571 C570 1.415 . S
H572 C569 0.999 . S
H573 C554 0.913 . S
H574 C592 0.951 . S
H575 C594 0.951 . S
H576 C596 0.950 . S
H577 C597 0.950 . S
H578 C599 0.950 . S
H579 C602 0.950 . S
H580 C603 0.950 . S
H581 C605 0.950 . S
H582 C606 0.950 . S
H583 C607 0.951 . S
H584 C609 0.951 . S
H585 C611 0.950 . S
H586 C612 0.950 . S
H587 C614 0.950 . S
H588 C617 0.950 . S
H589 C618 0.950 . S
H590 C620 0.950 . S
H591 C621 0.950 . S
C592 H574 0.951 . S
C592 C593 1.366 . S
C592 C594 1.388 . S
C593 C592 1.366 . S
C593 C597 1.385 . S
C594 H575 0.951 . S
C594 C592 1.388 . S
C594 C595 1.366 . S
C595 C594 1.366 . S
C595 C596 1.414 . S
C595 C598 1.499 . S
C596 H576 0.950 . S
C596 C595 1.414 . S
C596 C597 1.374 . S
C597 H577 0.950 . S
C597 C593 1.385 . S
C597 C596 1.374 . S
C598 C595 1.499 . S
C598 C599 1.373 . S
C598 C600 1.389 . S
C599 H578 0.950 . S
C599 C598 1.373 . S
C599 C615 1.377 1_655 S
C600 C598 1.389 . S
C600 C601 1.524 . S
C600 C614 1.377 1_655 S
C601 C600 1.524 . S
C601 C602 1.397 . S
C601 C606 1.363 . S
C602 H579 0.950 . S
C602 C601 1.397 . S
C602 C603 1.334 . S
C603 H580 0.950 . S
C603 C602 1.334 . S
C603 C604 1.287 . S
C604 C603 1.287 . S
C604 C605 1.524 . S
C604 H623 0.913 . S
C605 H581 0.950 . S
C605 C604 1.524 . S
C605 C606 1.415 . S
C606 H582 0.950 . S
C606 C601 1.363 . S
C606 C605 1.415 . S
C607 H583 0.951 . S
C607 C608 1.366 . S
C607 C609 1.388 . S
C608 C607 1.366 . S
C608 C612 1.385 . S
C609 H584 0.951 . S
C609 C607 1.388 . S
C609 C610 1.366 . S
C610 C609 1.366 . S
C610 C611 1.414 . S
C610 C613 1.499 . S
C611 H585 0.950 . S
C611 C610 1.414 . S
C611 C612 1.374 . S
C612 H586 0.950 . S
C612 C608 1.385 . S
C612 C611 1.374 . S
C613 C610 1.499 . S
C613 C614 1.373 . S
C613 C615 1.389 . S
C614 H587 0.950 . S
C614 C600 1.377 1_455 S
C614 C613 1.373 . S
C615 C599 1.377 1_455 S
C615 C613 1.389 . S
C615 C616 1.524 . S
C616 C615 1.524 . S
C616 C617 1.397 . S
C616 C621 1.363 . S
C617 H588 0.950 . S
C617 C616 1.397 . S
C617 C618 1.334 . S
C618 H589 0.950 . S
C618 C617 1.334 . S
C618 C619 1.287 . S
C619 C618 1.287 . S
C619 C620 1.524 . S
C619 H622 0.999 . S
C620 H590 0.950 . S
C620 C619 1.524 . S
C620 C621 1.415 . S
C621 H591 0.950 . S
C621 C616 1.363 . S
C621 C620 1.415 . S
H622 C619 0.999 . S
H623 C604 0.913 . S
H624 C642 0.951 . S
H625 C644 0.951 . S
H626 C646 0.950 . S
H627 C647 0.950 . S
H628 C649 0.950 . S
H629 C652 0.950 . S
H630 C653 0.950 . S
H631 C655 0.950 . S
H632 C656 0.950 . S
H633 C657 0.951 . S
H634 C659 0.951 . S
H635 C661 0.950 . S
H636 C662 0.950 . S
H637 C664 0.950 . S
H638 C667 0.950 . S
H639 C668 0.950 . S
H640 C670 0.950 . S
H641 C671 0.950 . S
C642 H624 0.951 . S
C642 C643 1.366 . S
C642 C644 1.388 . S
C643 C642 1.366 . S
C643 C647 1.385 . S
C644 H625 0.951 . S
C644 C642 1.388 . S
C644 C645 1.366 . S
C645 C644 1.366 . S
C645 C646 1.414 . S
C645 C648 1.499 . S
C646 H626 0.950 . S
C646 C645 1.414 . S
C646 C647 1.374 . S
C647 H627 0.950 . S
C647 C643 1.385 . S
C647 C646 1.374 . S
C648 C645 1.499 . S
C648 C649 1.373 1_655 S
C648 C650 1.389 . S
C649 H628 0.950 . S
C649 C648 1.373 1_455 S
C649 C665 1.377 . S
C650 C648 1.389 . S
C650 C651 1.524 . S
C650 C664 1.377 . S
C651 C650 1.524 . S
C651 C652 1.397 . S
C651 C656 1.363 . S
C652 H629 0.950 . S
C652 C651 1.397 . S
C652 C653 1.334 . S
C653 H630 0.950 . S
C653 C652 1.334 . S
C653 C654 1.287 . S
C654 C653 1.287 . S
C654 C655 1.524 . S
C654 H673 0.913 . S
C655 H631 0.950 . S
C655 C654 1.524 . S
C655 C656 1.415 . S
C656 H632 0.950 . S
C656 C651 1.363 . S
C656 C655 1.415 . S
C657 H633 0.951 . S
C657 C658 1.366 . S
C657 C659 1.388 . S
C658 C657 1.366 . S
C658 C662 1.385 . S
C659 H634 0.951 . S
C659 C657 1.388 . S
C659 C660 1.366 . S
C660 C659 1.366 . S
C660 C661 1.414 . S
C660 C663 1.499 . S
C661 H635 0.950 . S
C661 C660 1.414 . S
C661 C662 1.374 . S
C662 H636 0.950 . S
C662 C658 1.385 . S
C662 C661 1.374 . S
C663 C660 1.499 . S
C663 C664 1.373 1_455 S
C663 C665 1.389 . S
C664 H637 0.950 . S
C664 C650 1.377 . S
C664 C663 1.373 1_655 S
C665 C649 1.377 . S
C665 C663 1.389 . S
C665 C666 1.524 . S
C666 C665 1.524 . S
C666 C667 1.397 . S
C666 C671 1.363 . S
C667 H638 0.950 . S
C667 C666 1.397 . S
C667 C668 1.334 . S
C668 H639 0.950 . S
C668 C667 1.334 . S
C668 C669 1.287 . S
C669 C668 1.287 . S
C669 C670 1.524 . S
C669 H672 0.999 . S
C670 H640 0.950 . S
C670 C669 1.524 . S
C670 C671 1.415 . S
C671 H641 0.950 . S
C671 C666 1.363 . S
C671 C670 1.415 . S
H672 C669 0.999 . S
H673 C654 0.913 . S
H674 C692 0.951 . S
H675 C694 0.951 . S
H676 C696 0.950 . S
H677 C697 0.950 . S
H678 C699 0.950 . S
H679 C702 0.950 . S
H680 C703 0.950 . S
H681 C705 0.950 . S
H682 C706 0.950 . S
H683 C707 0.951 . S
H684 C709 0.951 . S
H685 C711 0.950 . S
H686 C712 0.950 . S
H687 C714 0.950 . S
H688 C717 0.950 . S
H689 C718 0.950 . S
H690 C720 0.950 . S
H691 C721 0.950 . S
C692 H674 0.951 . S
C692 C693 1.366 . S
C692 C694 1.388 . S
C693 C692 1.366 . S
C693 C697 1.385 . S
C694 H675 0.951 . S
C694 C692 1.388 . S
C694 C695 1.366 . S
C695 C694 1.366 . S
C695 C696 1.414 . S
C695 C698 1.499 . S
C696 H676 0.950 . S
C696 C695 1.414 . S
C696 C697 1.374 . S
C697 H677 0.950 . S
C697 C693 1.385 . S
C697 C696 1.374 . S
C698 C695 1.499 . S
C698 C699 1.373 1_556 S
C698 C700 1.389 . S
C699 H678 0.950 . S
C699 C698 1.373 1_554 S
C699 C715 1.377 . S
C700 C698 1.389 . S
C700 C701 1.524 . S
C700 C714 1.377 . S
C701 C700 1.524 . S
C701 C702 1.397 . S
C701 C706 1.363 . S
C702 H679 0.950 . S
C702 C701 1.397 . S
C702 C703 1.334 . S
C703 H680 0.950 . S
C703 C702 1.334 . S
C703 C704 1.287 . S
C704 C703 1.287 . S
C704 C705 1.524 . S
C704 H723 0.913 . S
C705 H681 0.950 . S
C705 C704 1.524 . S
C705 C706 1.415 . S
C706 H682 0.950 . S
C706 C701 1.363 . S
C706 C705 1.415 . S
C707 H683 0.951 . S
C707 C708 1.366 . S
C707 C709 1.388 . S
C708 C707 1.366 . S
C708 C712 1.385 . S
C709 H684 0.951 . S
C709 C707 1.388 . S
C709 C710 1.366 . S
C710 C709 1.366 . S
C710 C711 1.414 . S
C710 C713 1.499 . S
C711 H685 0.950 . S
C711 C710 1.414 . S
C711 C712 1.374 . S
C712 H686 0.950 . S
C712 C708 1.385 . S
C712 C711 1.374 . S
C713 C710 1.499 . S
C713 C714 1.373 1_554 S
C713 C715 1.389 . S
C714 H687 0.950 . S
C714 C700 1.377 . S
C714 C713 1.373 1_556 S
C715 C699 1.377 . S
C715 C713 1.389 . S
C715 C716 1.524 . S
C716 C715 1.524 . S
C716 C717 1.397 . S
C716 C721 1.363 . S
C717 H688 0.950 . S
C717 C716 1.397 . S
C717 C718 1.334 . S
C718 H689 0.950 . S
C718 C717 1.334 . S
C718 C719 1.287 . S
C719 C718 1.287 . S
C719 C720 1.524 . S
C719 H722 0.999 . S
C720 H690 0.950 . S
C720 C719 1.524 . S
C720 C721 1.415 . S
C721 H691 0.950 . S
C721 C716 1.363 . S
C721 C720 1.415 . S
H722 C719 0.999 . S
H723 C704 0.913 . S
H724 C742 0.951 . S
H725 C744 0.951 . S
H726 C746 0.950 . S
H727 C747 0.950 . S
H728 C749 0.950 . S
H729 C752 0.950 . S
H730 C753 0.950 . S
H731 C755 0.950 . S
H732 C756 0.950 . S
H733 C757 0.951 . S
H734 C759 0.951 . S
H735 C761 0.950 . S
H736 C762 0.950 . S
H737 C764 0.950 . S
H738 C767 0.950 . S
H739 C768 0.950 . S
H740 C770 0.950 . S
H741 C771 0.950 . S
C742 H724 0.951 . S
C742 C743 1.366 . S
C742 C744 1.388 . S
C743 C742 1.366 . S
C743 C747 1.385 . S
C744 H725 0.951 . S
C744 C742 1.388 . S
C744 C745 1.366 . S
C745 C744 1.366 . S
C745 C746 1.414 . S
C745 C748 1.499 . S
C746 H726 0.950 . S
C746 C745 1.414 . S
C746 C747 1.374 . S
C747 H727 0.950 . S
C747 C743 1.385 . S
C747 C746 1.374 . S
C748 C745 1.499 . S
C748 C749 1.373 1_545 S
C748 C750 1.389 . S
C749 H728 0.950 . S
C749 C748 1.373 1_565 S
C749 C765 1.377 . S
C750 C748 1.389 . S
C750 C751 1.524 . S
C750 C764 1.377 . S
C751 C750 1.524 . S
C751 C752 1.397 . S
C751 C756 1.363 . S
C752 H729 0.950 . S
C752 C751 1.397 . S
C752 C753 1.334 . S
C753 H730 0.950 . S
C753 C752 1.334 . S
C753 C754 1.287 . S
C754 C753 1.287 . S
C754 C755 1.524 . S
C754 H773 0.913 . S
C755 H731 0.950 . S
C755 C754 1.524 . S
C755 C756 1.415 . S
C756 H732 0.950 . S
C756 C751 1.363 . S
C756 C755 1.415 . S
C757 H733 0.951 . S
C757 C758 1.366 . S
C757 C759 1.388 . S
C758 C757 1.366 . S
C758 C762 1.385 . S
C759 H734 0.951 . S
C759 C757 1.388 . S
C759 C760 1.366 . S
C760 C759 1.366 . S
C760 C761 1.414 . S
C760 C763 1.499 . S
C761 H735 0.950 . S
C761 C760 1.414 . S
C761 C762 1.374 . S
C762 H736 0.950 . S
C762 C758 1.385 . S
C762 C761 1.374 . S
C763 C760 1.499 . S
C763 C764 1.373 1_565 S
C763 C765 1.389 . S
C764 H737 0.950 . S
C764 C750 1.377 . S
C764 C763 1.373 1_545 S
C765 C749 1.377 . S
C765 C763 1.389 . S
C765 C766 1.524 . S
C766 C765 1.524 . S
C766 C767 1.397 . S
C766 C771 1.363 . S
C767 H738 0.950 . S
C767 C766 1.397 . S
C767 C768 1.334 . S
C768 H739 0.950 . S
C768 C767 1.334 . S
C768 C769 1.287 . S
C769 C768 1.287 . S
C769 C770 1.524 . S
C769 H772 0.999 . S
C770 H740 0.950 . S
C770 C769 1.524 . S
C770 C771 1.415 . S
C771 H741 0.950 . S
C771 C766 1.363 . S
C771 C770 1.415 . S
H772 C769 0.999 . S
H773 C754 0.913 . S
H774 C792 0.951 1_554 S
H775 C794 0.951 . S
H776 C796 0.950 . S
H777 C797 0.950 . S
H778 C799 0.950 . S
H779 C802 0.950 . S
H780 C803 0.950 . S
H781 C805 0.950 . S
H782 C806 0.950 . S
H783 C807 0.951 . S
H784 C809 0.951 . S
H785 C811 0.950 . S
H786 C812 0.950 . S
H787 C814 0.950 . S
H788 C817 0.950 . S
H789 C818 0.950 . S
H790 C820 0.950 . S
H791 C821 0.950 . S
C792 H774 0.951 1_556 S
C792 C793 1.366 . S
C792 C794 1.388 . S
C793 C792 1.366 . S
C793 C797 1.385 . S
C794 H775 0.951 . S
C794 C792 1.388 . S
C794 C795 1.366 . S
C795 C794 1.366 . S
C795 C796 1.414 . S
C795 C798 1.499 . S
C796 H776 0.950 . S
C796 C795 1.414 . S
C796 C797 1.374 . S
C797 H777 0.950 . S
C797 C793 1.385 . S
C797 C796 1.374 . S
C798 C795 1.499 . S
C798 C799 1.373 . S
C798 C800 1.389 . S
C799 H778 0.950 . S
C799 C798 1.373 . S
C799 C815 1.377 . S
C800 C798 1.389 . S
C800 C801 1.524 . S
C800 C814 1.377 . S
C801 C800 1.524 . S
C801 C802 1.397 . S
C801 C806 1.363 . S
C802 H779 0.950 . S
C802 C801 1.397 . S
C802 C803 1.334 . S
C803 H780 0.950 . S
C803 C802 1.334 . S
C803 C804 1.287 . S
C804 C803 1.287 . S
C804 C805 1.524 . S
C804 H823 0.913 . S
C805 H781 0.950 . S
C805 C804 1.524 . S
C805 C806 1.415 . S
C806 H782 0.950 . S
C806 C801 1.363 . S
C806 C805 1.415 . S
C807 H783 0.951 . S
C807 C808 1.366 . S
C807 C809 1.388 . S
C808 C807 1.366 . S
C808 C812 1.385 . S
C809 H784 0.951 . S
C809 C807 1.388 . S
C809 C810 1.366 . S
C810 C809 1.366 . S
C810 C811 1.414 . S
C810 C813 1.499 . S
C811 H785 0.950 . S
C811 C810 1.414 . S
C811 C812 1.374 . S
C812 H786 0.950 . S
C812 C808 1.385 . S
C812 C811 1.374 . S
C813 C810 1.499 . S
C813 C814 1.373 . S
C813 C815 1.389 . S
C814 H787 0.950 . S
C814 C800 1.377 . S
C814 C813 1.373 . S
C815 C799 1.377 . S
C815 C813 1.389 . S
C815 C816 1.524 . S
C816 C815 1.524 . S
C816 C817 1.397 . S
C816 C821 1.363 . S
C817 H788 0.950 . S
C817 C816 1.397 . S
C817 C818 1.334 . S
C818 H789 0.950 . S
C818 C817 1.334 . S
C818 C819 1.287 . S
C819 C818 1.287 . S
C819 C820 1.524 . S
C819 H822 0.999 . S
C820 H790 0.950 . S
C820 C819 1.524 . S
C820 C821 1.415 . S
C821 H791 0.950 . S
C821 C816 1.363 . S
C821 C820 1.415 . S
H822 C819 0.999 . S
H823 C804 0.913 . S
H824 C842 0.951 . S
H825 C844 0.951 . S
H826 C846 0.950 . S
H827 C847 0.950 . S
H828 C849 0.950 . S
H829 C852 0.950 . S
H830 C853 0.950 . S
H831 C855 0.950 . S
H832 C856 0.950 . S
H833 C857 0.951 . S
H834 C859 0.951 . S
H835 C861 0.950 . S
H836 C862 0.950 . S
H837 C864 0.950 . S
H838 C867 0.950 . S
H839 C868 0.950 . S
H840 C870 0.950 . S
H841 C871 0.950 . S
C842 H824 0.951 . S
C842 C843 1.366 . S
C842 C844 1.388 . S
C843 C842 1.366 . S
C843 C847 1.385 . S
C844 H825 0.951 . S
C844 C842 1.388 . S
C844 C845 1.366 . S
C845 C844 1.366 . S
C845 C846 1.414 . S
C845 C848 1.499 . S
C846 H826 0.950 . S
C846 C845 1.414 . S
C846 C847 1.374 . S
C847 H827 0.950 . S
C847 C843 1.385 . S
C847 C846 1.374 . S
C848 C845 1.499 . S
C848 C849 1.373 . S
C848 C850 1.389 . S
C849 H828 0.950 . S
C849 C848 1.373 . S
C849 C865 1.377 . S
C850 C848 1.389 . S
C850 C851 1.524 . S
C850 C864 1.377 . S
C851 C850 1.524 . S
C851 C852 1.397 . S
C851 C856 1.363 . S
C852 H829 0.950 . S
C852 C851 1.397 . S
C852 C853 1.334 . S
C853 H830 0.950 . S
C853 C852 1.334 . S
C853 C854 1.287 . S
C854 C853 1.287 . S
C854 C855 1.524 . S
C854 H873 0.913 . S
C855 H831 0.950 . S
C855 C854 1.524 . S
C855 C856 1.415 . S
C856 H832 0.950 . S
C856 C851 1.363 . S
C856 C855 1.415 . S
C857 H833 0.951 . S
C857 C858 1.366 . S
C857 C859 1.388 . S
C858 C857 1.366 . S
C858 C862 1.385 . S
C859 H834 0.951 . S
C859 C857 1.388 . S
C859 C860 1.366 . S
C860 C859 1.366 . S
C860 C861 1.414 . S
C860 C863 1.499 . S
C861 H835 0.950 . S
C861 C860 1.414 . S
C861 C862 1.374 . S
C862 H836 0.950 . S
C862 C858 1.385 . S
C862 C861 1.374 . S
C863 C860 1.499 . S
C863 C864 1.373 . S
C863 C865 1.389 . S
C864 H837 0.950 . S
C864 C850 1.377 . S
C864 C863 1.373 . S
C865 C849 1.377 . S
C865 C863 1.389 . S
C865 C866 1.524 . S
C866 C865 1.524 . S
C866 C867 1.397 . S
C866 C871 1.363 . S
C867 H838 0.950 . S
C867 C866 1.397 . S
C867 C868 1.334 . S
C868 H839 0.950 . S
C868 C867 1.334 . S
C868 C869 1.287 . S
C869 C868 1.287 . S
C869 C870 1.524 . S
C869 H872 0.999 . S
C870 H840 0.950 . S
C870 C869 1.524 . S
C870 C871 1.415 . S
C871 H841 0.950 . S
C871 C866 1.363 . S
C871 C870 1.415 . S
H872 C869 0.999 . S
H873 C854 0.913 . S
H874 C892 0.951 . S
H875 C894 0.951 . S
H876 C896 0.950 . S
H877 C897 0.950 . S
H878 C899 0.950 . S
H879 C902 0.950 . S
H880 C903 0.950 . S
H881 C905 0.950 . S
H882 C906 0.950 . S
H883 C907 0.951 . S
H884 C909 0.951 . S
H885 C911 0.950 . S
H886 C912 0.950 . S
H887 C914 0.950 . S
H888 C917 0.950 . S
H889 C918 0.950 . S
H890 C920 0.950 . S
H891 C921 0.950 . S
C892 H874 0.951 . S
C892 C893 1.366 . S
C892 C894 1.388 . S
C893 C892 1.366 . S
C893 C897 1.385 . S
C894 H875 0.951 . S
C894 C892 1.388 . S
C894 C895 1.366 . S
C895 C894 1.366 . S
C895 C896 1.414 . S
C895 C898 1.499 . S
C896 H876 0.950 . S
C896 C895 1.414 . S
C896 C897 1.374 . S
C897 H877 0.950 . S
C897 C893 1.385 . S
C897 C896 1.374 . S
C898 C895 1.499 . S
C898 C899 1.373 . S
C898 C900 1.389 . S
C899 H878 0.950 . S
C899 C898 1.373 . S
C899 C915 1.377 . S
C900 C898 1.389 . S
C900 C901 1.524 . S
C900 C914 1.377 . S
C901 C900 1.524 . S
C901 C902 1.397 . S
C901 C906 1.363 . S
C902 H879 0.950 . S
C902 C901 1.397 . S
C902 C903 1.334 . S
C903 H880 0.950 . S
C903 C902 1.334 . S
C903 C904 1.287 . S
C904 C903 1.287 . S
C904 C905 1.524 . S
C904 H923 0.913 . S
C905 H881 0.950 . S
C905 C904 1.524 . S
C905 C906 1.415 . S
C906 H882 0.950 . S
C906 C901 1.363 . S
C906 C905 1.415 . S
C907 H883 0.951 . S
C907 C908 1.366 . S
C907 C909 1.388 . S
C908 C907 1.366 . S
C908 C912 1.385 . S
C909 H884 0.951 . S
C909 C907 1.388 . S
C909 C910 1.366 . S
C910 C909 1.366 . S
C910 C911 1.414 . S
C910 C913 1.499 . S
C911 H885 0.950 . S
C911 C910 1.414 . S
C911 C912 1.374 . S
C912 H886 0.950 . S
C912 C908 1.385 . S
C912 C911 1.374 . S
C913 C910 1.499 . S
C913 C914 1.373 . S
C913 C915 1.389 . S
C914 H887 0.950 . S
C914 C900 1.377 . S
C914 C913 1.373 . S
C915 C899 1.377 . S
C915 C913 1.389 . S
C915 C916 1.524 . S
C916 C915 1.524 . S
C916 C917 1.397 . S
C916 C921 1.363 . S
C917 H888 0.950 . S
C917 C916 1.397 . S
C917 C918 1.334 . S
C918 H889 0.950 . S
C918 C917 1.334 . S
C918 C919 1.287 . S
C919 C918 1.287 . S
C919 C920 1.524 . S
C919 H922 0.999 . S
C920 H890 0.950 . S
C920 C919 1.524 . S
C920 C921 1.415 . S
C921 H891 0.950 . S
C921 C916 1.363 . S
C921 C920 1.415 . S
H922 C919 0.999 . S
H923 C904 0.913 . S
H924 C942 0.951 . S
H925 C944 0.951 . S
H926 C946 0.950 . S
H927 C947 0.950 . S
H928 C949 0.950 . S
H929 C952 0.950 . S
H930 C953 0.950 . S
H931 C955 0.950 . S
H932 C956 0.950 . S
H933 C957 0.951 . S
H934 C959 0.951 . S
H935 C961 0.950 . S
H936 C962 0.950 . S
H937 C964 0.950 . S
H938 C967 0.950 . S
H939 C968 0.950 . S
H940 C970 0.950 . S
H941 C971 0.950 . S
C942 H924 0.951 . S
C942 C943 1.366 . S
C942 C944 1.388 . S
C943 C942 1.366 . S
C943 C947 1.385 . S
C944 H925 0.951 . S
C944 C942 1.388 . S
C944 C945 1.366 . S
C945 C944 1.366 . S
C945 C946 1.414 . S
C945 C948 1.499 . S
C946 H926 0.950 . S
C946 C945 1.414 . S
C946 C947 1.374 . S
C947 H927 0.950 . S
C947 C943 1.385 . S
C947 C946 1.374 . S
C948 C945 1.499 . S
C948 C949 1.373 . S
C948 C950 1.389 . S
C949 H928 0.950 . S
C949 C948 1.373 . S
C949 C965 1.377 . S
C950 C948 1.389 . S
C950 C951 1.524 . S
C950 C964 1.377 . S
C951 C950 1.524 . S
C951 C952 1.397 . S
C951 C956 1.363 . S
C952 H929 0.950 . S
C952 C951 1.397 . S
C952 C953 1.334 . S
C953 H930 0.950 . S
C953 C952 1.334 . S
C953 C954 1.287 . S
C954 C953 1.287 . S
C954 C955 1.524 . S
C954 H973 0.913 . S
C955 H931 0.950 . S
C955 C954 1.524 . S
C955 C956 1.415 . S
C956 H932 0.950 . S
C956 C951 1.363 . S
C956 C955 1.415 . S
C957 H933 0.951 . S
C957 C958 1.366 . S
C957 C959 1.388 . S
C958 C957 1.366 . S
C958 C962 1.385 . S
C959 H934 0.951 . S
C959 C957 1.388 . S
C959 C960 1.366 . S
C960 C959 1.366 . S
C960 C961 1.414 . S
C960 C963 1.499 . S
C961 H935 0.950 . S
C961 C960 1.414 . S
C961 C962 1.374 . S
C962 H936 0.950 . S
C962 C958 1.385 . S
C962 C961 1.374 . S
C963 C960 1.499 . S
C963 C964 1.373 . S
C963 C965 1.389 . S
C964 H937 0.950 . S
C964 C950 1.377 . S
C964 C963 1.373 . S
C965 C949 1.377 . S
C965 C963 1.389 . S
C965 C966 1.524 . S
C966 C965 1.524 . S
C966 C967 1.397 . S
C966 C971 1.363 . S
C967 H938 0.950 . S
C967 C966 1.397 . S
C967 C968 1.334 . S
C968 H939 0.950 . S
C968 C967 1.334 . S
C968 C969 1.287 . S
C969 C968 1.287 . S
C969 C970 1.524 . S
C969 H972 0.999 . S
C970 H940 0.950 . S
C970 C969 1.524 . S
C970 C971 1.415 . S
C971 H941 0.950 . S
C971 C966 1.363 . S
C971 C970 1.415 . S
H972 C969 0.999 . S
H973 C954 0.913 . S
H974 C992 0.951 . S
H975 C994 0.951 . S
H976 C996 0.950 . S
H977 C997 0.950 . S
H978 C999 0.950 . S
H979 C1002 0.950 . S
H980 C1003 0.950 . S
H981 C1005 0.950 . S
H982 C1006 0.950 . S
H983 C1007 0.951 . S
H984 C1009 0.951 . S
H985 C1011 0.950 . S
H986 C1012 0.950 . S
H987 C1014 0.950 . S
H988 C1017 0.950 . S
H989 C1018 0.950 . S
H990 C1020 0.950 . S
H991 C1021 0.950 . S
C992 H974 0.951 . S
C992 C993 1.366 . S
C992 C994 1.388 . S
C993 C992 1.366 . S
C993 C997 1.385 . S
C994 H975 0.951 . S
C994 C992 1.388 . S
C994 C995 1.366 . S
C995 C994 1.366 . S
C995 C996 1.414 . S
C995 C998 1.499 . S
C996 H976 0.950 . S
C996 C995 1.414 . S
C996 C997 1.374 . S
C997 H977 0.950 . S
C997 C993 1.385 . S
C997 C996 1.374 . S
C998 C995 1.499 . S
C998 C999 1.373 . S
C998 C1000 1.389 . S
C999 H978 0.950 . S
C999 C998 1.373 . S
C999 C1015 1.377 . S
C1000 C998 1.389 . S
C1000 C1001 1.524 . S
C1000 C1014 1.377 . S
C1001 C1000 1.524 . S
C1001 C1002 1.397 . S
C1001 C1006 1.363 . S
C1002 H979 0.950 . S
C1002 C1001 1.397 . S
C1002 C1003 1.334 . S
C1003 H980 0.950 . S
C1003 C1002 1.334 . S
C1003 C1004 1.287 . S
C1004 C1003 1.287 . S
C1004 C1005 1.524 . S
C1004 H1023 0.913 . S
C1005 H981 0.950 . S
C1005 C1004 1.524 . S
C1005 C1006 1.415 . S
C1006 H982 0.950 . S
C1006 C1001 1.363 . S
C1006 C1005 1.415 . S
C1007 H983 0.951 . S
C1007 C1008 1.366 . S
C1007 C1009 1.388 . S
C1008 C1007 1.366 . S
C1008 C1012 1.385 . S
C1009 H984 0.951 . S
C1009 C1007 1.388 . S
C1009 C1010 1.366 . S
C1010 C1009 1.366 . S
C1010 C1011 1.414 . S
C1010 C1013 1.499 . S
C1011 H985 0.950 . S
C1011 C1010 1.414 . S
C1011 C1012 1.374 . S
C1012 H986 0.950 . S
C1012 C1008 1.385 . S
C1012 C1011 1.374 . S
C1013 C1010 1.499 . S
C1013 C1014 1.373 . S
C1013 C1015 1.389 . S
C1014 H987 0.950 . S
C1014 C1000 1.377 . S
C1014 C1013 1.373 . S
C1015 C999 1.377 . S
C1015 C1013 1.389 . S
C1015 C1016 1.524 . S
C1016 C1015 1.524 . S
C1016 C1017 1.397 . S
C1016 C1021 1.363 . S
C1017 H988 0.950 . S
C1017 C1016 1.397 . S
C1017 C1018 1.334 . S
C1018 H989 0.950 . S
C1018 C1017 1.334 . S
C1018 C1019 1.287 . S
C1019 C1018 1.287 . S
C1019 C1020 1.524 . S
C1019 H1022 0.999 . S
C1020 H990 0.950 . S
C1020 C1019 1.524 . S
C1020 C1021 1.415 . S
C1021 H991 0.950 . S
C1021 C1016 1.363 . S
C1021 C1020 1.415 . S
H1022 C1019 0.999 . S
H1023 C1004 0.913 . S
H1024 C1042 0.951 . S
H1025 C1044 0.951 . S
H1026 C1046 0.950 . S
H1027 C1047 0.950 . S
H1028 C1049 0.950 . S
H1029 C1052 0.950 . S
H1030 C1053 0.950 . S
H1031 C1055 0.950 . S
H1032 C1056 0.950 . S
H1033 C1057 0.951 . S
H1034 C1059 0.951 . S
H1035 C1061 0.950 . S
H1036 C1062 0.950 . S
H1037 C1064 0.950 . S
H1038 C1067 0.950 . S
H1039 C1068 0.950 . S
H1040 C1070 0.950 . S
H1041 C1071 0.950 . S
C1042 H1024 0.951 . S
C1042 C1043 1.366 . S
C1042 C1044 1.388 . S
C1043 C1042 1.366 . S
C1043 C1047 1.385 . S
C1044 H1025 0.951 . S
C1044 C1042 1.388 . S
C1044 C1045 1.366 . S
C1045 C1044 1.366 . S
C1045 C1046 1.414 . S
C1045 C1048 1.499 . S
C1046 H1026 0.950 . S
C1046 C1045 1.414 . S
C1046 C1047 1.374 . S
C1047 H1027 0.950 . S
C1047 C1043 1.385 . S
C1047 C1046 1.374 . S
C1048 C1045 1.499 . S
C1048 C1049 1.373 . S
C1048 C1050 1.389 . S
C1049 H1028 0.950 . S
C1049 C1048 1.373 . S
C1049 C1065 1.377 . S
C1050 C1048 1.389 . S
C1050 C1051 1.524 . S
C1050 C1064 1.377 . S
C1051 C1050 1.524 . S
C1051 C1052 1.397 . S
C1051 C1056 1.363 . S
C1052 H1029 0.950 . S
C1052 C1051 1.397 . S
C1052 C1053 1.334 . S
C1053 H1030 0.950 . S
C1053 C1052 1.334 . S
C1053 C1054 1.287 . S
C1054 C1053 1.287 . S
C1054 C1055 1.524 . S
C1054 H1073 0.913 . S
C1055 H1031 0.950 . S
C1055 C1054 1.524 . S
C1055 C1056 1.415 . S
C1056 H1032 0.950 . S
C1056 C1051 1.363 . S
C1056 C1055 1.415 . S
C1057 H1033 0.951 . S
C1057 C1058 1.366 . S
C1057 C1059 1.388 . S
C1058 C1057 1.366 . S
C1058 C1062 1.385 . S
C1059 H1034 0.951 . S
C1059 C1057 1.388 . S
C1059 C1060 1.366 . S
C1060 C1059 1.366 . S
C1060 C1061 1.414 . S
C1060 C1063 1.499 . S
C1061 H1035 0.950 . S
C1061 C1060 1.414 . S
C1061 C1062 1.374 . S
C1062 H1036 0.950 . S
C1062 C1058 1.385 . S
C1062 C1061 1.374 . S
C1063 C1060 1.499 . S
C1063 C1064 1.373 . S
C1063 C1065 1.389 . S
C1064 H1037 0.950 . S
C1064 C1050 1.377 . S
C1064 C1063 1.373 . S
C1065 C1049 1.377 . S
C1065 C1063 1.389 . S
C1065 C1066 1.524 . S
C1066 C1065 1.524 . S
C1066 C1067 1.397 . S
C1066 C1071 1.363 . S
C1067 H1038 0.950 . S
C1067 C1066 1.397 . S
C1067 C1068 1.334 . S
C1068 H1039 0.950 . S
C1068 C1067 1.334 . S
C1068 C1069 1.287 . S
C1069 C1068 1.287 . S
C1069 C1070 1.524 . S
C1069 H1072 0.999 . S
C1070 H1040 0.950 . S
C1070 C1069 1.524 . S
C1070 C1071 1.415 . S
C1071 H1041 0.950 . S
C1071 C1066 1.363 . S
C1071 C1070 1.415 . S
H1072 C1069 0.999 . S
H1073 C1054 0.913 . S
H1074 C1092 0.951 . S
H1075 C1094 0.951 . S
H1076 C1096 0.950 1_455 S
H1077 C1097 0.950 . S
H1078 C1099 0.950 . S
H1079 C1102 0.950 . S
H1080 C1103 0.950 . S
H1081 C1105 0.950 . S
H1082 C1106 0.950 . S
H1083 C1107 0.951 . S
H1084 C1109 0.951 . S
H1085 C1111 0.950 1_655 S
H1086 C1112 0.950 . S
H1087 C1114 0.950 . S
H1088 C1117 0.950 . S
H1089 C1118 0.950 . S
H1090 C1120 0.950 . S
H1091 C1121 0.950 . S
C1092 H1074 0.951 . S
C1092 C1093 1.366 . S
C1092 C1094 1.388 . S
C1093 C1092 1.366 . S
C1093 C1097 1.385 . S
C1094 H1075 0.951 . S
C1094 C1092 1.388 . S
C1094 C1095 1.366 . S
C1095 C1094 1.366 . S
C1095 C1096 1.414 . S
C1095 C1098 1.499 . S
C1096 H1076 0.950 1_655 S
C1096 C1095 1.414 . S
C1096 C1097 1.374 . S
C1097 H1077 0.950 . S
C1097 C1093 1.385 . S
C1097 C1096 1.374 . S
C1098 C1095 1.499 . S
C1098 C1099 1.373 1_655 S
C1098 C1100 1.389 . S
C1099 H1078 0.950 . S
C1099 C1098 1.373 1_455 S
C1099 C1115 1.377 . S
C1100 C1098 1.389 . S
C1100 C1101 1.524 . S
C1100 C1114 1.377 . S
C1101 C1100 1.524 . S
C1101 C1102 1.397 . S
C1101 C1106 1.363 . S
C1102 H1079 0.950 . S
C1102 C1101 1.397 . S
C1102 C1103 1.334 . S
C1103 H1080 0.950 . S
C1103 C1102 1.334 . S
C1103 C1104 1.287 . S
C1104 C1103 1.287 . S
C1104 C1105 1.524 . S
C1104 H1123 0.913 . S
C1105 H1081 0.950 . S
C1105 C1104 1.524 . S
C1105 C1106 1.415 . S
C1106 H1082 0.950 . S
C1106 C1101 1.363 . S
C1106 C1105 1.415 . S
C1107 H1083 0.951 . S
C1107 C1108 1.366 . S
C1107 C1109 1.388 . S
C1108 C1107 1.366 . S
C1108 C1112 1.385 . S
C1109 H1084 0.951 . S
C1109 C1107 1.388 . S
C1109 C1110 1.366 . S
C1110 C1109 1.366 . S
C1110 C1111 1.414 . S
C1110 C1113 1.499 . S
C1111 H1085 0.950 1_455 S
C1111 C1110 1.414 . S
C1111 C1112 1.374 . S
C1112 H1086 0.950 . S
C1112 C1108 1.385 . S
C1112 C1111 1.374 . S
C1113 C1110 1.499 . S
C1113 C1114 1.373 1_455 S
C1113 C1115 1.389 . S
C1114 H1087 0.950 . S
C1114 C1100 1.377 . S
C1114 C1113 1.373 1_655 S
C1115 C1099 1.377 . S
C1115 C1113 1.389 . S
C1115 C1116 1.524 . S
C1116 C1115 1.524 . S
C1116 C1117 1.397 . S
C1116 C1121 1.363 . S
C1117 H1088 0.950 . S
C1117 C1116 1.397 . S
C1117 C1118 1.334 . S
C1118 H1089 0.950 . S
C1118 C1117 1.334 . S
C1118 C1119 1.287 . S
C1119 C1118 1.287 . S
C1119 C1120 1.524 . S
C1119 H1122 0.999 . S
C1120 H1090 0.950 . S
C1120 C1119 1.524 . S
C1120 C1121 1.415 . S
C1121 H1091 0.950 . S
C1121 C1116 1.363 . S
C1121 C1120 1.415 . S
H1122 C1119 0.999 . S
H1123 C1104 0.913 . S
H1124 C1142 0.951 . S
H1125 C1144 0.951 . S
H1126 C1146 0.950 . S
H1127 C1147 0.950 . S
H1128 C1149 0.950 . S
H1129 C1152 0.950 . S
H1130 C1153 0.950 . S
H1131 C1155 0.950 . S
H1132 C1156 0.950 . S
H1133 C1157 0.951 . S
H1134 C1159 0.951 . S
H1135 C1161 0.950 . S
H1136 C1162 0.950 . S
H1137 C1164 0.950 . S
H1138 C1167 0.950 . S
H1139 C1168 0.950 . S
H1140 C1170 0.950 . S
H1141 C1171 0.950 . S
C1142 H1124 0.951 . S
C1142 C1143 1.366 . S
C1142 C1144 1.388 . S
C1143 C1142 1.366 . S
C1143 C1147 1.385 . S
C1144 H1125 0.951 . S
C1144 C1142 1.388 . S
C1144 C1145 1.366 . S
C1145 C1144 1.366 . S
C1145 C1146 1.414 . S
C1145 C1148 1.499 . S
C1146 H1126 0.950 . S
C1146 C1145 1.414 . S
C1146 C1147 1.374 . S
C1147 H1127 0.950 . S
C1147 C1143 1.385 . S
C1147 C1146 1.374 . S
C1148 C1145 1.499 . S
C1148 C1149 1.373 . S
C1148 C1150 1.389 . S
C1149 H1128 0.950 . S
C1149 C1148 1.373 . S
C1149 C1165 1.377 . S
C1150 C1148 1.389 . S
C1150 C1151 1.524 . S
C1150 C1164 1.377 . S
C1151 C1150 1.524 . S
C1151 C1152 1.397 . S
C1151 C1156 1.363 . S
C1152 H1129 0.950 . S
C1152 C1151 1.397 . S
C1152 C1153 1.334 . S
C1153 H1130 0.950 . S
C1153 C1152 1.334 . S
C1153 C1154 1.287 . S
C1154 C1153 1.287 . S
C1154 C1155 1.524 . S
C1154 H1173 0.913 . S
C1155 H1131 0.950 . S
C1155 C1154 1.524 . S
C1155 C1156 1.415 . S
C1156 H1132 0.950 . S
C1156 C1151 1.363 . S
C1156 C1155 1.415 . S
C1157 H1133 0.951 . S
C1157 C1158 1.366 . S
C1157 C1159 1.388 . S
C1158 C1157 1.366 . S
C1158 C1162 1.385 . S
C1159 H1134 0.951 . S
C1159 C1157 1.388 . S
C1159 C1160 1.366 . S
C1160 C1159 1.366 . S
C1160 C1161 1.414 . S
C1160 C1163 1.499 . S
C1161 H1135 0.950 . S
C1161 C1160 1.414 . S
C1161 C1162 1.374 . S
C1162 H1136 0.950 . S
C1162 C1158 1.385 . S
C1162 C1161 1.374 . S
C1163 C1160 1.499 . S
C1163 C1164 1.373 . S
C1163 C1165 1.389 . S
C1164 H1137 0.950 . S
C1164 C1150 1.377 . S
C1164 C1163 1.373 . S
C1165 C1149 1.377 . S
C1165 C1163 1.389 . S
C1165 C1166 1.524 . S
C1166 C1165 1.524 . S
C1166 C1167 1.397 . S
C1166 C1171 1.363 . S
C1167 H1138 0.950 . S
C1167 C1166 1.397 . S
C1167 C1168 1.334 . S
C1168 H1139 0.950 . S
C1168 C1167 1.334 . S
C1168 C1169 1.287 . S
C1169 C1168 1.287 . S
C1169 C1170 1.524 . S
C1169 H1172 0.999 . S
C1170 H1140 0.950 . S
C1170 C1169 1.524 . S
C1170 C1171 1.415 . S
C1171 H1141 0.950 . S
C1171 C1166 1.363 . S
C1171 C1170 1.415 . S
H1172 C1169 0.999 . S
H1173 C1154 0.913 . S
H1174 C1192 0.951 . S
H1175 C1194 0.951 . S
H1176 C1196 0.950 . S
H1177 C1197 0.950 . S
H1178 C1199 0.950 . S
H1179 C1202 0.950 . S
H1180 C1203 0.950 . S
H1181 C1205 0.950 . S
H1182 C1206 0.950 . S
H1183 C1207 0.951 . S
H1184 C1209 0.951 . S
H1185 C1211 0.950 . S
H1186 C1212 0.950 . S
H1187 C1214 0.950 . S
H1188 C1217 0.950 . S
H1189 C1218 0.950 . S
H1190 C1220 0.950 . S
H1191 C1221 0.950 . S
C1192 H1174 0.951 . S
C1192 C1193 1.366 . S
C1192 C1194 1.388 . S
C1193 C1192 1.366 . S
C1193 C1197 1.385 . S
C1194 H1175 0.951 . S
C1194 C1192 1.388 . S
C1194 C1195 1.366 . S
C1195 C1194 1.366 . S
C1195 C1196 1.414 . S
C1195 C1198 1.499 . S
C1196 H1176 0.950 . S
C1196 C1195 1.414 . S
C1196 C1197 1.374 . S
C1197 H1177 0.950 . S
C1197 C1193 1.385 . S
C1197 C1196 1.374 . S
C1198 C1195 1.499 . S
C1198 C1199 1.373 . S
C1198 C1200 1.389 1_545 S
C1199 H1178 0.950 . S
C1199 C1198 1.373 . S
C1199 C1215 1.377 . S
C1200 C1198 1.389 1_565 S
C1200 C1201 1.524 . S
C1200 C1214 1.377 . S
C1201 C1200 1.524 . S
C1201 C1202 1.397 . S
C1201 C1206 1.363 . S
C1202 H1179 0.950 . S
C1202 C1201 1.397 . S
C1202 C1203 1.334 . S
C1203 H1180 0.950 . S
C1203 C1202 1.334 . S
C1203 C1204 1.287 . S
C1204 C1203 1.287 . S
C1204 C1205 1.524 . S
C1204 H1223 0.913 . S
C1205 H1181 0.950 . S
C1205 C1204 1.524 . S
C1205 C1206 1.415 . S
C1206 H1182 0.950 . S
C1206 C1201 1.363 . S
C1206 C1205 1.415 . S
C1207 H1183 0.951 . S
C1207 C1208 1.366 . S
C1207 C1209 1.388 . S
C1208 C1207 1.366 . S
C1208 C1212 1.385 . S
C1209 H1184 0.951 . S
C1209 C1207 1.388 . S
C1209 C1210 1.366 . S
C1210 C1209 1.366 . S
C1210 C1211 1.414 . S
C1210 C1213 1.499 . S
C1211 H1185 0.950 . S
C1211 C1210 1.414 . S
C1211 C1212 1.374 . S
C1212 H1186 0.950 . S
C1212 C1208 1.385 . S
C1212 C1211 1.374 . S
C1213 C1210 1.499 . S
C1213 C1214 1.373 . S
C1213 C1215 1.389 1_565 S
C1214 H1187 0.950 . S
C1214 C1200 1.377 . S
C1214 C1213 1.373 . S
C1215 C1199 1.377 . S
C1215 C1213 1.389 1_545 S
C1215 C1216 1.524 . S
C1216 C1215 1.524 . S
C1216 C1217 1.397 . S
C1216 C1221 1.363 . S
C1217 H1188 0.950 . S
C1217 C1216 1.397 . S
C1217 C1218 1.334 . S
C1218 H1189 0.950 . S
C1218 C1217 1.334 . S
C1218 C1219 1.287 . S
C1219 C1218 1.287 . S
C1219 C1220 1.524 . S
C1219 H1222 0.999 . S
C1220 H1190 0.950 . S
C1220 C1219 1.524 . S
C1220 C1221 1.415 . S
C1221 H1191 0.950 . S
C1221 C1216 1.363 . S
C1221 C1220 1.415 . S
H1222 C1219 0.999 . S
H1223 C1204 0.913 . S
C193 C160 1.465 . S
C208 C21 1.424 . S
C243 C50 1.423 . S
C258 C102 1.465 . S
C293 C79 1.422 . S
C308 C131 1.465 . S
C343 C44 1.465 . S
C358 C108 1.422 . S
C393 C73 1.465 . S
C408 C137 1.423 . S
C443 C15 1.465 . S
C458 C166 1.423 . S
C493 C92 2.518 . S
C508 C5 2.518 . S
C543 C121 2.518 . S
C558 C34 2.517 . S
C593 C150 2.518 . S
C608 C63 2.518 . S
C643 C124 1.855 . S
C658 C8 1.854 . S
C693 C37 1.855 . S
C708 C153 1.855 . S
C743 C95 1.855 . S
C758 C66 1.855 . S
C793 C3 0.803 . S
C808 C39 0.804 . S
C843 C68 0.805 . S
C858 C32 0.803 . S
C893 C10 0.805 . S
C908 C61 0.802 . S
C943 C90 0.803 . S
C958 C155 0.804 . S
C993 C119 0.801 . S
C1008 C97 0.806 . S
C1043 C126 0.805 . S
C1058 C148 0.803 . S
C1093 C129 1.396 . S
C1108 C13 1.396 . S
C1143 C42 1.395 . S
C1158 C158 1.395 . S
C1193 C100 1.397 . S
C1208 C71 1.397 . S
