# Generated by pormake.
# Topology cdl, (4)-cn, num edge types: 1
# Building blocks:
#     Node 0, Type 0, BuildingBlock: NAWXER_clean_sbu_0, # of connection points: 4
#     Node 1, Type 0, BuildingBlock: NAWXER_clean_sbu_0, # of connection points: 4
#     Node 2, Type 0, BuildingBlock: NAWXER_clean_sbu_0, # of connection points: 4
#     Node 3, Type 0, BuildingBlock: NAWXER_clean_sbu_0, # of connection points: 4
#     Edge 4, Type (0, 0), BuildingBlock: XUDNAN_clean_linker_2, # of connection points: 2
#     Edge 5, Type (0, 0), BuildingBlock: XUDNAN_clean_linker_2, # of connection points: 2
#     Edge 6, Type (0, 0), BuildingBlock: XUDNAN_clean_linker_2, # of connection points: 2
#     Edge 7, Type (0, 0), BuildingBlock: XUDNAN_clean_linker_2, # of connection points: 2
#     Edge 8, Type (0, 0), BuildingBlock: XUDNAN_clean_linker_2, # of connection points: 2
#     Edge 9, Type (0, 0), BuildingBlock: XUDNAN_clean_linker_2, # of connection points: 2
#     Edge 10, Type (0, 0), BuildingBlock: XUDNAN_clean_linker_2, # of connection points: 2
#     Edge 11, Type (0, 0), BuildingBlock: XUDNAN_clean_linker_2, # of connection points: 2
# Relax obj value: 0.000
# Max RMSD: 0.003
# Mean RMSD: 0.003
data_MOF--net-cdl--node1-NAWXER_clean_sbu_0--edge1-XUDNAN_clean_linker_2
_symmetry_space_group_name_H-M    P1
_symmetry_Int_Tables_number       1
_symmetry_cell_setting            triclinic
loop_
_symmetry_equiv_pos_as_xyz
'x, y, z'
_cell_length_a     14.659123
_cell_length_b     14.695758
_cell_length_c     58.031626
_cell_angle_alpha  96.896079
_cell_angle_beta   96.713597
_cell_angle_gamma 88.699284
loop_
_atom_site_label
_atom_site_type_symbol
_atom_site_fract_x
_atom_site_fract_y
_atom_site_fract_z
_atom_type_partial_charge
C0 C 0.90656 0.23611 0.13191 0.0
C1 C 0.90803 0.90527 0.13073 0.0
O2 O 0.9879 0.20588 0.13785 0.0
Zn3 Zn 0.05166 0.07205 0.14199 0.0
O4 O 0.84058 0.18009 0.12687 0.0
Zn5 Zn 0.90949 0.0712 0.1315 0.0
O6 O 0.94755 0.08835 0.16861 0.0
O7 O 0.09871 0.08415 0.17502 0.0
O8 O 0.84201 0.9598 0.12606 0.0
O9 O 0.9892 0.93742 0.13679 0.0
O10 O 0.13832 0.06234 0.11884 0.0
O11 O 0.99366 0.06097 0.1034 0.0
C12 C 0.02129 0.09193 0.18294 0.0
C13 C 0.07942 0.05875 0.10085 0.0
C14 C 0.32382 0.87387 0.62577 0.0
C15 C 0.98801 0.87515 0.62249 0.0
O16 O 0.27251 0.80391 0.62104 0.0
Zn17 Zn 0.15614 0.86823 0.6263 0.0
O18 O 0.28931 0.95143 0.63296 0.0
Zn19 Zn 0.15961 1.00915 0.64005 0.0
O20 O 0.16964 0.04184 0.67361 0.0
O21 O 0.16042 0.89274 0.6636 0.0
O22 O 0.02509 0.95235 0.63059 0.0
O23 O 0.03845 0.80524 0.61789 0.0
O24 O 0.14829 0.96706 0.60073 0.0
O25 O 0.15259 0.10575 0.62041 0.0
C26 C 0.16554 0.96172 0.67947 0.0
C27 C 0.148 0.05472 0.60096 0.0
C28 C 0.97338 0.19073 0.88656 0.0
C29 C 0.97287 0.86068 0.88702 0.0
O30 O 0.05584 0.15892 0.88863 0.0
Zn31 Zn 0.11951 0.02499 0.88994 0.0
O32 O 0.9067 0.13598 0.8848 0.0
Zn33 Zn 0.97558 0.02469 0.88675 0.0
O34 O 0.04166 0.03776 0.92211 0.0
O35 O 0.19108 0.03668 0.92045 0.0
O36 O 0.90572 0.91664 0.88569 0.0
O37 O 0.05539 0.89079 0.8886 0.0
O38 O 0.1845 1.01166 0.86242 0.0
O39 O 0.03395 1.00058 0.85417 0.0
C40 C 0.12388 0.04092 0.93254 0.0
C41 C 0.11428 0.99835 0.84745 0.0
C42 C 0.27301 0.34516 0.39895 0.0
C43 C 0.94355 0.34604 0.39981 0.0
O44 O 0.24364 0.26299 0.39797 0.0
Zn45 Zn 0.11152 0.19935 0.39711 0.0
O46 O 0.21637 0.41155 0.39981 0.0
Zn47 Zn 0.10752 0.34293 0.39936 0.0
O48 O 0.12279 0.2887 0.43244 0.0
O49 O 0.12509 0.13808 0.42518 0.0
O50 O 0.99785 0.41294 0.40104 0.0
O51 O 0.97576 0.26362 0.39828 0.0
O52 O 0.09947 0.12488 0.36691 0.0
O53 O 0.08497 0.27341 0.36442 0.0
C54 C 0.12801 0.20976 0.43986 0.0
C55 C 0.08469 0.19057 0.35456 0.0
H56 H 0.03156 0.37692 0.14103 0.0
H57 H 0.74245 0.31967 0.11982 0.0
H58 H 0.71257 0.48383 0.11713 0.0
H59 H 0.99816 0.59151 0.17643 0.0
H60 H 0.09619 0.64551 0.16794 0.0
H61 H 0.09549 0.52311 0.16825 0.0
H62 H 0.12666 0.49956 0.12488 0.0
H63 H 0.12731 0.62189 0.12443 0.0
H64 H 0.05052 0.55168 0.10341 0.0
H65 H 0.71316 0.65293 0.11651 0.0
H66 H 0.74394 0.81785 0.1184 0.0
H67 H 0.03264 0.76727 0.14004 0.0
C68 C 0.96195 0.3989 0.13585 0.0
C69 C 0.88936 0.3352 0.13064 0.0
C70 C 0.79927 0.36693 0.12391 0.0
C71 C 0.7815 0.46013 0.12231 0.0
C72 C 0.85447 0.52093 0.1275 0.0
C73 C 0.94288 0.49189 0.13416 0.0
C74 C 1.00874 0.57186 0.13876 0.0
C75 C 0.05218 0.58368 0.16437 0.0
C76 C 0.08266 0.56055 0.12186 0.0
C77 C 0.94338 0.65024 0.13364 0.0
C78 C 0.8548 0.61912 0.12716 0.0
C79 C 0.78222 0.67824 0.12158 0.0
C80 C 0.80051 0.77189 0.1227 0.0
C81 C 0.89071 0.80574 0.12937 0.0
C82 C 0.96297 0.7437 0.13487 0.0
H83 H 0.46784 0.75284 0.63615 0.0
H84 H 0.39349 0.99471 0.60176 0.0
H85 H 0.55277 1.00813 0.59334 0.0
H86 H 0.67932 0.83743 0.6645 0.0
H87 H 0.74189 0.73044 0.66157 0.0
H88 H 0.61944 0.73032 0.66222 0.0
H89 H 0.59996 0.62689 0.62261 0.0
H90 H 0.72261 0.62658 0.62185 0.0
H91 H 0.64689 0.66283 0.59783 0.0
H92 H 0.71823 1.00833 0.59233 0.0
H93 H 0.88669 0.99533 0.59895 0.0
H94 H 0.86298 0.75323 0.63378 0.0
C95 C 0.48523 0.80699 0.62636 0.0
C96 C 0.41854 0.87254 0.61944 0.0
C97 C 0.44374 0.94398 0.6072 0.0
C98 C 0.53389 0.95191 0.60222 0.0
C99 C 0.5987 0.88799 0.60967 0.0
C100 C 0.57623 0.81674 0.62146 0.0
C101 C 0.6621 0.76295 0.6292 0.0
C102 C 0.67651 0.76548 0.65596 0.0
C103 C 0.6576 0.66392 0.61715 0.0
C104 C 0.73588 0.81688 0.62046 0.0
C105 C 0.69685 0.88802 0.60903 0.0
C106 C 0.74973 0.95201 0.60087 0.0
C107 C 0.84527 0.94426 0.60476 0.0
C108 C 0.88738 0.87278 0.61657 0.0
C109 C 0.83214 0.80712 0.62419 0.0
H110 H 0.09977 0.32865 0.88909 0.0
H111 H 0.80665 0.2782 0.88338 0.0
H112 H 0.77567 0.44346 0.88296 0.0
H113 H 0.09787 0.54123 0.92709 0.0
H114 H 0.18383 0.59429 0.91345 0.0
H115 H 0.18365 0.47164 0.91327 0.0
H116 H 0.17633 0.45096 0.86811 0.0
H117 H 0.1765 0.57355 0.86815 0.0
H118 H 0.08556 0.50644 0.85106 0.0
H119 H 0.77559 0.61307 0.88318 0.0
H120 H 0.80635 0.77746 0.88388 0.0
H121 H 0.09955 0.71954 0.88936 0.0
C122 C 0.02907 0.35232 0.88775 0.0
C123 C 0.95564 0.29025 0.88627 0.0
C124 C 0.86411 0.32419 0.88453 0.0
C125 C 0.84572 0.41803 0.88428 0.0
C126 C 0.91953 0.47721 0.88577 0.0
C127 C 1.00937 0.44595 0.88746 0.0
C128 C 0.0759 0.52446 0.88878 0.0
C129 C 0.13902 0.53341 0.91203 0.0
C130 C 0.13186 0.51315 0.86777 0.0
C131 C 1.00927 0.60461 0.88759 0.0
C132 C 0.91947 0.57563 0.88586 0.0
C133 C 0.84561 0.63669 0.88452 0.0
C134 C 0.86389 0.73002 0.88494 0.0
C135 C 0.95539 0.76162 0.88668 0.0
C136 C 0.02888 0.69771 0.88802 0.0
H137 H 0.41455 0.21926 0.39692 0.0
H138 H 0.35541 0.51154 0.40156 0.0
H139 H 0.52014 0.54257 0.40224 0.0
H140 H 0.62606 0.23536 0.43528 0.0
H141 H 0.68229 0.14398 0.41856 0.0
H142 H 0.55929 0.14402 0.41826 0.0
H143 H 0.53982 0.1346 0.37307 0.0
H144 H 0.66277 0.13446 0.37323 0.0
H145 H 0.59337 0.21942 0.3592 0.0
H146 H 0.68991 0.54281 0.40264 0.0
H147 H 0.85568 0.51222 0.40251 0.0
H148 H 0.80597 0.21973 0.3975 0.0
C149 C 0.4362 0.28978 0.39806 0.0
C150 C 0.37198 0.36296 0.39919 0.0
C151 C 0.4032 0.45428 0.40067 0.0
C152 C 0.49666 0.4727 0.40107 0.0
C153 C 0.55805 0.39912 0.39996 0.0
C154 C 0.52936 0.30949 0.39846 0.0
C155 C 0.60989 0.24317 0.39751 0.0
C156 C 0.61996 0.18843 0.41866 0.0
C157 C 0.6009 0.17915 0.37437 0.0
C158 C 0.68822 0.30971 0.39876 0.0
C159 C 0.65661 0.39925 0.40016 0.0
C160 C 0.71564 0.473 0.40154 0.0
C161 C 0.80973 0.45482 0.40146 0.0
C162 C 0.84394 0.36356 0.4 0.0
C163 C 0.78205 0.29021 0.39864 0.0
H164 H 0.993 0.04794 0.96262 0.0
H165 H 0.28838 0.04551 0.96108 0.0
H166 H 0.31092 0.04955 1.00416 0.0
H167 H 0.98927 0.20144 0.01568 0.0
H168 H 0.897 0.14201 0.02528 0.0
H169 H 0.9055 0.1405 0.99453 0.0
H170 H 0.90592 0.96277 0.98965 0.0
H171 H 0.89784 0.96373 0.02039 0.0
H172 H 0.99038 0.90229 1.00735 0.0
H173 H 0.29947 0.05192 0.04798 0.0
H174 H 0.25507 0.05472 0.08799 0.0
H175 H 0.96757 0.05446 0.05965 0.0
C176 C 0.06263 0.04866 0.97127 0.0
C177 C 0.13895 0.04651 0.95841 0.0
C178 C 0.22878 0.04729 0.97053 0.0
C179 C 0.24224 0.04947 0.995 0.0
C180 C 0.16521 0.05086 1.00708 0.0
C181 C 0.07721 0.05071 0.99555 0.0
C182 C 1.00563 0.0518 1.01235 0.0
C183 C 0.94586 0.13914 1.01193 0.0
C184 C 0.94649 0.96497 1.00712 0.0
C185 C 0.06686 0.05236 0.03521 0.0
C186 C 0.15873 0.05187 0.03193 0.0
C187 C 0.22767 0.05235 0.0507 0.0
C188 C 0.20182 0.05381 0.07336 0.0
C189 C 0.10786 0.05468 0.07702 0.0
C190 C 0.04004 0.05366 0.05756 0.0
H191 H 0.13144 0.05438 0.46249 0.0
H192 H 0.13861 0.3517 0.47505 0.0
H193 H 0.14422 0.34411 0.51734 0.0
H194 H 0.98703 0.02238 0.50663 0.0
H195 H 0.04611 0.92053 0.51507 0.0
H196 H 0.0445 0.94853 0.48565 0.0
H197 H 0.22243 0.94314 0.48975 0.0
H198 H 0.22454 0.91475 0.51916 0.0
H199 H 0.28658 1.01287 0.51362 0.0
H200 H 0.14659 0.3053 0.55826 0.0
H201 H 0.14873 0.2371 0.59517 0.0
H202 H 0.14016 0.96505 0.55634 0.0
C203 C 0.13467 0.11787 0.47413 0.0
C204 C 0.13464 0.20365 0.46536 0.0
C205 C 0.13859 0.28509 0.48125 0.0
C206 C 0.14174 0.28159 0.50536 0.0
C207 C 0.14098 0.19616 0.5134 0.0
C208 C 0.13784 0.1157 0.49832 0.0
C209 C 0.13724 0.03293 0.5116 0.0
C210 C 0.04843 0.97787 0.5043 0.0
C211 C 0.2228 0.97237 0.50834 0.0
C212 C 0.14031 0.07957 0.53645 0.0
C213 C 0.1424 0.17373 0.53708 0.0
C214 C 0.14512 0.23159 0.55801 0.0
C215 C 0.1462 0.19216 0.57889 0.0
C216 C 0.14458 0.0957 0.57872 0.0
C217 C 0.14138 0.03901 0.55712 0.0
H218 H 0.18834 0.1136 0.32055 0.0
H219 H 0.92153 0.23217 0.33184 0.0
H220 H 0.8748 0.21322 0.2892 0.0
H221 H 0.21271 0.22637 0.27041 0.0
H222 H 0.27051 0.13204 0.25517 0.0
H223 H 0.2808 0.14653 0.28662 0.0
H224 H 0.22149 0.98163 0.28626 0.0
H225 H 0.21139 0.96647 0.25479 0.0
H226 H 0.11321 0.94841 0.26966 0.0
H227 H 0.85749 0.1844 0.24597 0.0
H228 H 0.87216 0.15534 0.20393 0.0
H229 H 0.15419 0.06425 0.21955 0.0
C230 C 0.1197 0.13389 0.31391 0.0
C231 C 0.05755 0.17289 0.32926 0.0
C232 C 0.96927 0.20133 0.32019 0.0
C233 C 0.94228 0.19077 0.29608 0.0
C234 C 1.0051 0.153 0.28128 0.0
C235 C 0.09223 0.12556 0.28974 0.0
C236 C 0.14803 0.09284 0.2698 0.0
C237 C 0.23304 0.15306 0.27055 0.0
C238 C 0.17511 0.99129 0.27015 0.0
C239 C 0.07862 0.1064 0.2489 0.0
C240 C 0.99643 0.14016 0.25603 0.0
C241 C 0.92147 0.15799 0.24014 0.0
C242 C 0.93056 0.1411 0.21626 0.0
C243 C 1.01437 0.10768 0.20839 0.0
C244 C 0.08942 0.09023 0.22501 0.0
H245 H 0.21695 0.08034 0.71925 0.0
H246 H 0.10116 0.81144 0.69543 0.0
H247 H 0.08185 0.78982 0.73603 0.0
H248 H 0.34311 1.01514 0.77348 0.0
H249 H 0.32231 0.12387 0.79006 0.0
H250 H 0.32983 0.11765 0.75913 0.0
H251 H 0.16943 0.1947 0.7533 0.0
H252 H 0.16131 0.20093 0.78417 0.0
H253 H 0.07285 0.14453 0.76354 0.0
H254 H 0.06071 0.80296 0.7783 0.0
H255 H 0.05274 0.84449 0.82062 0.0
H256 H 0.19368 0.09861 0.81822 0.0
C257 C 0.18831 1.01664 0.72264 0.0
C258 C 0.16043 0.94759 0.70414 0.0
C259 C 0.12348 0.86509 0.70928 0.0
C260 C 0.11199 0.85221 0.7323 0.0
C261 C 0.13923 0.92179 0.75008 0.0
C262 C 0.17792 1.00184 0.74563 0.0
C263 C 0.2012 0.06561 0.76805 0.0
C264 C 0.30531 0.08147 0.77297 0.0
C265 C 0.14801 0.15683 0.76721 0.0
C266 C 0.16773 1.00961 0.78569 0.0
C267 C 0.13162 0.92715 0.77485 0.0
C268 C 0.09039 0.86643 0.78707 0.0
C269 C 0.08595 0.89055 0.81102 0.0
C270 C 0.12401 0.97365 0.82254 0.0
C271 C 0.1661 0.03365 0.80979 0.0
loop_
_geom_bond_atom_site_label_1
_geom_bond_atom_site_label_2
_geom_bond_distance
_geom_bond_site_symmetry_2
_ccdc_geom_bond_type
C0 O2 1.247 . S
C0 O4 1.258 1_455 S
C1 O8 1.247 1_455 S
C1 O9 1.258 . S
O2 C0 1.247 . S
O2 Zn3 2.028 . S
Zn3 O2 2.028 . S
Zn3 O7 2.035 . S
Zn3 O9 2.035 1_545 S
Zn3 O10 2.028 . S
O4 C0 1.258 1_655 S
O4 Zn5 2.035 . S
Zn5 O4 2.035 . S
Zn5 O6 2.028 . S
Zn5 O8 2.028 1_545 S
Zn5 O11 2.035 . S
O6 Zn5 2.028 . S
O6 C12 1.247 1_655 S
O7 Zn3 2.035 . S
O7 C12 1.258 . S
O8 C1 1.247 1_655 S
O8 Zn5 2.028 1_565 S
O9 C1 1.258 . S
O9 Zn3 2.035 1_565 S
O10 Zn3 2.028 . S
O10 C13 1.247 . S
O11 Zn5 2.035 . S
O11 C13 1.258 1_655 S
C12 O6 1.247 1_455 S
C12 O7 1.258 . S
C13 O10 1.247 . S
C13 O11 1.258 1_455 S
C14 O16 1.247 1_545 S
C14 O18 1.258 . S
C15 O22 1.247 . S
C15 O23 1.258 1_545 S
O16 C14 1.247 1_565 S
O16 Zn17 2.028 . S
Zn17 O16 2.028 . S
Zn17 O21 2.035 . S
Zn17 O23 2.035 1_455 S
Zn17 O24 2.028 . S
O18 C14 1.258 . S
O18 Zn19 2.035 . S
Zn19 O18 2.035 . S
Zn19 O20 2.028 . S
Zn19 O22 2.028 1_455 S
Zn19 O25 2.035 . S
O20 Zn19 2.028 . S
O20 C26 1.247 . S
O21 Zn17 2.035 . S
O21 C26 1.258 1_565 S
O22 C15 1.247 . S
O22 Zn19 2.028 1_655 S
O23 C15 1.258 1_565 S
O23 Zn17 2.035 1_655 S
O24 Zn17 2.028 . S
O24 C27 1.247 1_565 S
O25 Zn19 2.035 . S
O25 C27 1.258 . S
C26 O20 1.247 . S
C26 O21 1.258 1_545 S
C27 O24 1.247 1_545 S
C27 O25 1.258 . S
C28 O30 1.247 . S
C28 O32 1.258 1_455 S
C29 O36 1.247 1_455 S
C29 O37 1.258 . S
O30 C28 1.247 . S
O30 Zn31 2.028 . S
Zn31 O30 2.028 . S
Zn31 O35 2.035 . S
Zn31 O37 2.035 1_545 S
Zn31 O38 2.028 . S
O32 C28 1.258 1_655 S
O32 Zn33 2.035 . S
Zn33 O32 2.035 . S
Zn33 O34 2.028 . S
Zn33 O36 2.028 1_545 S
Zn33 O39 2.035 . S
O34 Zn33 2.028 . S
O34 C40 1.247 1_655 S
O35 Zn31 2.035 . S
O35 C40 1.258 . S
O36 C29 1.247 1_655 S
O36 Zn33 2.028 1_565 S
O37 C29 1.258 . S
O37 Zn31 2.035 1_565 S
O38 Zn31 2.028 . S
O38 C41 1.247 . S
O39 Zn33 2.035 . S
O39 C41 1.258 1_655 S
C40 O34 1.247 1_455 S
C40 O35 1.258 . S
C41 O38 1.247 . S
C41 O39 1.258 1_455 S
C42 O44 1.247 1_545 S
C42 O46 1.258 . S
C43 O50 1.247 . S
C43 O51 1.258 1_545 S
O44 C42 1.247 1_565 S
O44 Zn45 2.028 . S
Zn45 O44 2.028 . S
Zn45 O49 2.035 . S
Zn45 O51 2.035 1_455 S
Zn45 O52 2.028 . S
O46 C42 1.258 . S
O46 Zn47 2.035 . S
Zn47 O46 2.035 . S
Zn47 O48 2.028 . S
Zn47 O50 2.028 1_455 S
Zn47 O53 2.035 . S
O48 Zn47 2.028 . S
O48 C54 1.247 . S
O49 Zn45 2.035 . S
O49 C54 1.258 1_565 S
O50 C43 1.247 . S
O50 Zn47 2.028 1_655 S
O51 C43 1.258 1_565 S
O51 Zn45 2.035 1_655 S
O52 Zn45 2.028 . S
O52 C55 1.247 1_565 S
O53 Zn47 2.035 . S
O53 C55 1.258 . S
C54 O48 1.247 . S
C54 O49 1.258 1_545 S
C55 O52 1.247 1_545 S
C55 O53 1.258 . S
H56 C68 0.930 . S
H57 C70 0.930 . S
H58 C71 0.930 . S
H59 C75 0.959 . S
H60 C75 0.959 . S
H61 C75 0.961 . S
H62 C76 0.960 . S
H63 C76 0.961 1_455 S
H64 C76 0.959 . S
H65 C79 0.929 . S
H66 C80 0.931 . S
H67 C82 0.930 . S
C68 H56 0.930 . S
C68 C69 1.399 . S
C68 C73 1.399 . S
C69 C68 1.399 . S
C69 C70 1.376 . S
C70 H57 0.930 . S
C70 C69 1.376 . S
C70 C71 1.388 . S
C71 H58 0.930 . S
C71 C70 1.388 . S
C71 C72 1.390 . S
C72 C71 1.390 . S
C72 C73 1.394 . S
C72 C78 1.465 . S
C73 C68 1.399 . S
C73 C72 1.394 . S
C73 C74 1.516 . S
C74 C73 1.516 . S
C74 C75 1.502 . S
C74 C76 1.561 1_455 S
C74 C77 1.526 . S
C75 H59 0.959 . S
C75 H60 0.959 . S
C75 H61 0.961 . S
C75 C74 1.502 . S
C76 H62 0.960 . S
C76 H63 0.961 1_655 S
C76 H64 0.959 . S
C76 C74 1.561 1_655 S
C77 C74 1.526 . S
C77 C78 1.396 . S
C77 C82 1.390 . S
C78 C72 1.465 . S
C78 C77 1.396 . S
C78 C79 1.399 . S
C79 H65 0.929 . S
C79 C78 1.399 . S
C79 C80 1.385 . S
C80 H66 0.931 . S
C80 C79 1.385 . S
C80 C81 1.389 . S
C81 C80 1.389 . S
C81 C82 1.387 . S
C82 H67 0.930 . S
C82 C77 1.390 . S
C82 C81 1.387 . S
H83 C95 0.930 1_565 S
H84 C97 0.930 . S
H85 C98 0.930 . S
H86 C102 0.959 1_545 S
H87 C102 0.959 . S
H88 C102 0.961 . S
H89 C103 0.960 . S
H90 C103 0.961 . S
H91 C103 0.959 . S
H92 C106 0.929 . S
H93 C107 0.931 . S
H94 C109 0.930 1_565 S
C95 H83 0.930 1_545 S
C95 C96 1.399 . S
C95 C100 1.399 . S
C96 C95 1.399 . S
C96 C97 1.376 . S
C97 H84 0.930 . S
C97 C96 1.376 . S
C97 C98 1.388 . S
C98 H85 0.930 . S
C98 C97 1.388 . S
C98 C99 1.390 . S
C99 C98 1.390 . S
C99 C100 1.394 . S
C99 C105 1.465 . S
C100 C95 1.399 . S
C100 C99 1.394 . S
C100 C101 1.516 1_545 S
C101 C100 1.516 1_565 S
C101 C102 1.502 . S
C101 C103 1.561 . S
C101 C104 1.526 1_565 S
C102 H86 0.959 1_565 S
C102 H87 0.959 . S
C102 H88 0.961 . S
C102 C101 1.502 . S
C103 H89 0.960 . S
C103 H90 0.961 . S
C103 H91 0.959 . S
C103 C101 1.561 . S
C104 C101 1.526 1_545 S
C104 C105 1.396 . S
C104 C109 1.390 . S
C105 C99 1.465 . S
C105 C104 1.396 . S
C105 C106 1.399 . S
C106 H92 0.929 . S
C106 C105 1.399 . S
C106 C107 1.385 . S
C107 H93 0.931 . S
C107 C106 1.385 . S
C107 C108 1.389 . S
C108 C107 1.389 . S
C108 C109 1.387 . S
C109 H94 0.930 1_545 S
C109 C104 1.390 . S
C109 C108 1.387 . S
H110 C122 0.930 . S
H111 C124 0.930 . S
H112 C125 0.930 . S
H113 C129 0.959 . S
H114 C129 0.959 . S
H115 C129 0.961 . S
H116 C130 0.960 . S
H117 C130 0.961 . S
H118 C130 0.959 . S
H119 C133 0.929 . S
H120 C134 0.931 . S
H121 C136 0.930 . S
C122 H110 0.930 . S
C122 C123 1.399 . S
C122 C127 1.399 . S
C123 C122 1.399 . S
C123 C124 1.376 . S
C124 H111 0.930 . S
C124 C123 1.376 . S
C124 C125 1.388 . S
C125 H112 0.930 . S
C125 C124 1.388 . S
C125 C126 1.390 . S
C126 C125 1.390 . S
C126 C127 1.394 . S
C126 C132 1.465 . S
C127 C122 1.399 . S
C127 C126 1.394 . S
C127 C128 1.516 . S
C128 C127 1.516 . S
C128 C129 1.502 . S
C128 C130 1.561 1_455 S
C128 C131 1.526 . S
C129 H113 0.959 . S
C129 H114 0.959 . S
C129 H115 0.961 . S
C129 C128 1.502 . S
C130 H116 0.960 . S
C130 H117 0.961 . S
C130 H118 0.959 . S
C130 C128 1.561 1_655 S
C131 C128 1.526 . S
C131 C132 1.396 . S
C131 C136 1.390 . S
C132 C126 1.465 . S
C132 C131 1.396 . S
C132 C133 1.399 . S
C133 H119 0.929 . S
C133 C132 1.399 . S
C133 C134 1.385 . S
C134 H120 0.931 . S
C134 C133 1.385 . S
C134 C135 1.389 . S
C135 C134 1.389 . S
C135 C136 1.387 . S
C136 H121 0.930 . S
C136 C131 1.390 . S
C136 C135 1.387 . S
H137 C149 0.930 1_565 S
H138 C151 0.930 . S
H139 C152 0.930 . S
H140 C156 0.959 . S
H141 C156 0.959 . S
H142 C156 0.961 . S
H143 C157 0.960 . S
H144 C157 0.961 . S
H145 C157 0.959 . S
H146 C160 0.929 . S
H147 C161 0.931 . S
H148 C163 0.930 1_565 S
C149 H137 0.930 1_545 S
C149 C150 1.399 . S
C149 C154 1.399 . S
C150 C149 1.399 . S
C150 C151 1.376 . S
C151 H138 0.930 . S
C151 C150 1.376 . S
C151 C152 1.388 . S
C152 H139 0.930 . S
C152 C151 1.388 . S
C152 C153 1.390 . S
C153 C152 1.390 . S
C153 C154 1.394 . S
C153 C159 1.465 . S
C154 C149 1.399 . S
C154 C153 1.394 . S
C154 C155 1.516 1_545 S
C155 C154 1.516 1_565 S
C155 C156 1.502 . S
C155 C157 1.561 . S
C155 C158 1.526 1_565 S
C156 H140 0.959 . S
C156 H141 0.959 . S
C156 H142 0.961 . S
C156 C155 1.502 . S
C157 H143 0.960 . S
C157 H144 0.961 . S
C157 H145 0.959 . S
C157 C155 1.561 . S
C158 C155 1.526 1_545 S
C158 C159 1.396 . S
C158 C163 1.390 . S
C159 C153 1.465 . S
C159 C158 1.396 . S
C159 C160 1.399 . S
C160 H146 0.929 . S
C160 C159 1.399 . S
C160 C161 1.385 . S
C161 H147 0.931 . S
C161 C160 1.385 . S
C161 C162 1.389 . S
C162 C161 1.389 . S
C162 C163 1.387 . S
C163 H148 0.930 1_545 S
C163 C158 1.390 . S
C163 C162 1.387 . S
H164 C176 0.930 1_565 S
H165 C178 0.930 . S
H166 C179 0.930 . S
H167 C183 0.959 . S
H168 C183 0.959 1_554 S
H169 C183 0.961 . S
H170 C184 0.960 . S
H171 C184 0.961 1_554 S
H172 C184 0.959 . S
H173 C187 0.929 . S
H174 C188 0.931 . S
H175 C190 0.930 1_565 S
C176 H164 0.930 1_545 S
C176 C177 1.399 . S
C176 C181 1.399 . S
C177 C176 1.399 . S
C177 C178 1.376 . S
C178 H165 0.930 . S
C178 C177 1.376 . S
C178 C179 1.388 . S
C179 H166 0.930 . S
C179 C178 1.388 . S
C179 C180 1.390 . S
C180 C179 1.390 . S
C180 C181 1.394 . S
C180 C186 1.465 1_556 S
C181 C176 1.399 . S
C181 C180 1.394 . S
C181 C182 1.516 1_545 S
C182 C181 1.516 1_565 S
C182 C183 1.502 1_455 S
C182 C184 1.561 . S
C182 C185 1.526 1_566 S
C183 H167 0.959 . S
C183 H168 0.959 1_556 S
C183 H169 0.961 . S
C183 C182 1.502 1_655 S
C184 H170 0.960 . S
C184 H171 0.961 1_556 S
C184 H172 0.959 . S
C184 C182 1.561 . S
C185 C182 1.526 1_544 S
C185 C186 1.396 . S
C185 C190 1.390 . S
C186 C180 1.465 1_554 S
C186 C185 1.396 . S
C186 C187 1.399 . S
C187 H173 0.929 . S
C187 C186 1.399 . S
C187 C188 1.385 . S
C188 H174 0.931 . S
C188 C187 1.385 . S
C188 C189 1.389 . S
C189 C188 1.389 . S
C189 C190 1.387 . S
C190 H175 0.930 1_545 S
C190 C185 1.390 . S
C190 C189 1.387 . S
H191 C203 0.925 1_665 S
H192 C205 0.930 . S
H193 C206 0.930 . S
H194 C210 0.959 . S
H195 C210 0.955 1_565 S
H196 C210 0.961 . S
H197 C211 0.960 . S
H198 C211 0.961 . S
H199 C211 0.959 1_455 S
H200 C214 0.929 . S
H201 C215 0.931 . S
H202 C217 0.930 1_655 S
C203 H191 0.925 1_445 S
C203 C204 1.399 . S
C203 C208 1.399 . S
C204 C203 1.399 . S
C204 C205 1.376 . S
C205 H192 0.930 . S
C205 C204 1.376 . S
C205 C206 1.388 . S
C206 H193 0.930 . S
C206 C205 1.388 . S
C206 C207 1.390 . S
C207 C206 1.390 . S
C207 C208 1.394 . S
C207 C213 1.465 . S
C208 C203 1.399 . S
C208 C207 1.394 . S
C208 C209 1.516 1_445 S
C209 C208 1.516 1_665 S
C209 C210 1.502 1_565 S
C209 C211 1.561 . S
C209 C212 1.526 1_665 S
C210 H194 0.959 . S
C210 H195 0.955 1_545 S
C210 H196 0.961 . S
C210 C209 1.502 1_545 S
C211 H197 0.960 . S
C211 H198 0.961 . S
C211 H199 0.959 1_655 S
C211 C209 1.561 . S
C212 C209 1.526 1_445 S
C212 C213 1.396 . S
C212 C217 1.390 . S
C213 C207 1.465 . S
C213 C212 1.396 . S
C213 C214 1.399 . S
C214 H200 0.929 . S
C214 C213 1.399 . S
C214 C215 1.385 . S
C215 H201 0.931 . S
C215 C214 1.385 . S
C215 C216 1.389 . S
C216 C215 1.389 . S
C216 C217 1.387 . S
C217 H202 0.930 1_455 S
C217 C212 1.390 . S
C217 C216 1.387 . S
H218 C230 0.933 . S
H219 C232 0.930 . S
H220 C233 0.930 1_655 S
H221 C237 0.959 . S
H222 C237 0.959 . S
H223 C237 0.961 . S
H224 C238 0.960 . S
H225 C238 0.961 . S
H226 C238 0.959 1_655 S
H227 C241 0.929 1_655 S
H228 C242 0.931 . S
H229 C244 0.930 1_565 S
C230 H218 0.933 . S
C230 C231 1.397 1_565 S
C230 C235 1.398 1_565 S
C231 C230 1.397 1_545 S
C231 C232 1.376 . S
C232 H219 0.930 . S
C232 C231 1.376 . S
C232 C233 1.388 . S
C233 H220 0.930 1_455 S
C233 C232 1.388 . S
C233 C234 1.390 . S
C234 C233 1.390 . S
C234 C235 1.394 . S
C234 C240 1.465 . S
C235 C230 1.398 1_545 S
C235 C234 1.394 . S
C235 C236 1.516 1_545 S
C236 C235 1.516 1_565 S
C236 C237 1.502 . S
C236 C238 1.561 . S
C236 C239 1.526 1_565 S
C237 H221 0.959 . S
C237 H222 0.959 . S
C237 H223 0.961 . S
C237 C236 1.502 . S
C238 H224 0.960 . S
C238 H225 0.961 . S
C238 H226 0.959 1_455 S
C238 C236 1.561 . S
C239 C236 1.526 1_545 S
C239 C240 1.396 . S
C239 C244 1.390 . S
C240 C234 1.465 . S
C240 C239 1.396 . S
C240 C241 1.399 . S
C241 H227 0.929 1_455 S
C241 C240 1.399 . S
C241 C242 1.385 . S
C242 H228 0.931 . S
C242 C241 1.385 . S
C242 C243 1.389 . S
C243 C242 1.389 . S
C243 C244 1.387 . S
C244 H229 0.930 1_545 S
C244 C239 1.390 . S
C244 C243 1.387 . S
H245 C257 0.930 . S
H246 C259 0.930 1_655 S
H247 C260 0.930 . S
H248 C264 0.959 . S
H249 C264 0.959 . S
H250 C264 0.961 . S
H251 C265 0.960 . S
H252 C265 0.961 . S
H253 C265 0.959 1_655 S
H254 C268 0.929 . S
H255 C269 0.931 1_655 S
H256 C271 0.930 . S
C257 H245 0.930 . S
C257 C258 1.399 . S
C257 C262 1.399 . S
C258 C257 1.399 . S
C258 C259 1.376 1_545 S
C259 H246 0.930 1_455 S
C259 C258 1.376 1_565 S
C259 C260 1.388 1_455 S
C260 H247 0.930 . S
C260 C259 1.388 1_655 S
C260 C261 1.390 1_665 S
C261 C260 1.390 1_445 S
C261 C262 1.394 . S
C261 C267 1.465 . S
C262 C257 1.399 . S
C262 C261 1.394 . S
C262 C263 1.516 . S
C263 C262 1.516 . S
C263 C264 1.502 . S
C263 C265 1.561 . S
C263 C266 1.526 . S
C264 H248 0.959 . S
C264 H249 0.959 . S
C264 H250 0.961 . S
C264 C263 1.502 . S
C265 H251 0.960 . S
C265 H252 0.961 . S
C265 H253 0.959 1_455 S
C265 C263 1.561 . S
C266 C263 1.526 . S
C266 C267 1.396 . S
C266 C271 1.390 . S
C267 C261 1.465 . S
C267 C266 1.396 . S
C267 C268 1.399 1_445 S
C268 H254 0.929 . S
C268 C267 1.399 1_665 S
C268 C269 1.385 1_655 S
C269 H255 0.931 1_455 S
C269 C268 1.385 1_455 S
C269 C270 1.389 1_565 S
C270 C269 1.389 1_545 S
C270 C271 1.387 . S
C271 H256 0.930 . S
C271 C266 1.390 . S
C271 C270 1.387 . S
C69 C0 1.486 . S
C81 C1 1.498 . S
C96 C14 1.497 . S
C108 C15 1.486 . S
C123 C28 1.486 . S
C135 C29 1.498 . S
C150 C42 1.497 . S
C162 C43 1.487 . S
C177 C40 1.487 . S
C189 C13 1.497 . S
C204 C54 1.485 . S
C216 C27 1.498 . S
C231 C55 1.487 . S
C243 C12 1.486 . S
C258 C26 1.497 . S
C270 C41 1.488 . S
