# Generated by pormake.
# Topology unv, (4)-cn, num edge types: 1
# Building blocks:
#     Node 0, Type 0, BuildingBlock: KUFVIS_clean_sbu_0, # of connection points: 4
#     Node 1, Type 0, BuildingBlock: KUFVIS_clean_sbu_0, # of connection points: 4
#     Node 2, Type 0, BuildingBlock: KUFVIS_clean_sbu_0, # of connection points: 4
#     Node 3, Type 0, BuildingBlock: KUFVIS_clean_sbu_0, # of connection points: 4
#     Node 4, Type 0, BuildingBlock: KUFVIS_clean_sbu_0, # of connection points: 4
#     Node 5, Type 0, BuildingBlock: KUFVIS_clean_sbu_0, # of connection points: 4
#     Node 6, Type 0, BuildingBlock: KUFVIS_clean_sbu_0, # of connection points: 4
#     Node 7, Type 0, BuildingBlock: KUFVIS_clean_sbu_0, # of connection points: 4
#     Node 8, Type 0, BuildingBlock: KUFVIS_clean_sbu_0, # of connection points: 4
#     Node 9, Type 0, BuildingBlock: KUFVIS_clean_sbu_0, # of connection points: 4
#     Node 10, Type 0, BuildingBlock: KUFVIS_clean_sbu_0, # of connection points: 4
#     Node 11, Type 0, BuildingBlock: KUFVIS_clean_sbu_0, # of connection points: 4
#     Node 12, Type 0, BuildingBlock: KUFVIS_clean_sbu_0, # of connection points: 4
#     Node 13, Type 0, BuildingBlock: KUFVIS_clean_sbu_0, # of connection points: 4
#     Node 14, Type 0, BuildingBlock: KUFVIS_clean_sbu_0, # of connection points: 4
#     Node 15, Type 0, BuildingBlock: KUFVIS_clean_sbu_0, # of connection points: 4
#     Node 16, Type 0, BuildingBlock: KUFVIS_clean_sbu_0, # of connection points: 4
#     Node 17, Type 0, BuildingBlock: KUFVIS_clean_sbu_0, # of connection points: 4
#     Node 18, Type 0, BuildingBlock: KUFVIS_clean_sbu_0, # of connection points: 4
#     Node 19, Type 0, BuildingBlock: KUFVIS_clean_sbu_0, # of connection points: 4
#     Node 20, Type 0, BuildingBlock: KUFVIS_clean_sbu_0, # of connection points: 4
#     Node 21, Type 0, BuildingBlock: KUFVIS_clean_sbu_0, # of connection points: 4
#     Node 22, Type 0, BuildingBlock: KUFVIS_clean_sbu_0, # of connection points: 4
#     Node 23, Type 0, BuildingBlock: KUFVIS_clean_sbu_0, # of connection points: 4
#     Edge 24, Type (0, 0), BuildingBlock: ZUJKAS_clean_linker_0, # of connection points: 2
#     Edge 25, Type (0, 0), BuildingBlock: ZUJKAS_clean_linker_0, # of connection points: 2
#     Edge 26, Type (0, 0), BuildingBlock: ZUJKAS_clean_linker_0, # of connection points: 2
#     Edge 27, Type (0, 0), BuildingBlock: ZUJKAS_clean_linker_0, # of connection points: 2
#     Edge 28, Type (0, 0), BuildingBlock: ZUJKAS_clean_linker_0, # of connection points: 2
#     Edge 29, Type (0, 0), BuildingBlock: ZUJKAS_clean_linker_0, # of connection points: 2
#     Edge 30, Type (0, 0), BuildingBlock: ZUJKAS_clean_linker_0, # of connection points: 2
#     Edge 31, Type (0, 0), BuildingBlock: ZUJKAS_clean_linker_0, # of connection points: 2
#     Edge 32, Type (0, 0), BuildingBlock: ZUJKAS_clean_linker_0, # of connection points: 2
#     Edge 33, Type (0, 0), BuildingBlock: ZUJKAS_clean_linker_0, # of connection points: 2
#     Edge 34, Type (0, 0), BuildingBlock: ZUJKAS_clean_linker_0, # of connection points: 2
#     Edge 35, Type (0, 0), BuildingBlock: ZUJKAS_clean_linker_0, # of connection points: 2
#     Edge 36, Type (0, 0), BuildingBlock: ZUJKAS_clean_linker_0, # of connection points: 2
#     Edge 37, Type (0, 0), BuildingBlock: ZUJKAS_clean_linker_0, # of connection points: 2
#     Edge 38, Type (0, 0), BuildingBlock: ZUJKAS_clean_linker_0, # of connection points: 2
#     Edge 39, Type (0, 0), BuildingBlock: ZUJKAS_clean_linker_0, # of connection points: 2
#     Edge 40, Type (0, 0), BuildingBlock: ZUJKAS_clean_linker_0, # of connection points: 2
#     Edge 41, Type (0, 0), BuildingBlock: ZUJKAS_clean_linker_0, # of connection points: 2
#     Edge 42, Type (0, 0), BuildingBlock: ZUJKAS_clean_linker_0, # of connection points: 2
#     Edge 43, Type (0, 0), BuildingBlock: ZUJKAS_clean_linker_0, # of connection points: 2
#     Edge 44, Type (0, 0), BuildingBlock: ZUJKAS_clean_linker_0, # of connection points: 2
#     Edge 45, Type (0, 0), BuildingBlock: ZUJKAS_clean_linker_0, # of connection points: 2
#     Edge 46, Type (0, 0), BuildingBlock: ZUJKAS_clean_linker_0, # of connection points: 2
#     Edge 47, Type (0, 0), BuildingBlock: ZUJKAS_clean_linker_0, # of connection points: 2
#     Edge 48, Type (0, 0), BuildingBlock: ZUJKAS_clean_linker_0, # of connection points: 2
#     Edge 49, Type (0, 0), BuildingBlock: ZUJKAS_clean_linker_0, # of connection points: 2
#     Edge 50, Type (0, 0), BuildingBlock: ZUJKAS_clean_linker_0, # of connection points: 2
#     Edge 51, Type (0, 0), BuildingBlock: ZUJKAS_clean_linker_0, # of connection points: 2
#     Edge 52, Type (0, 0), BuildingBlock: ZUJKAS_clean_linker_0, # of connection points: 2
#     Edge 53, Type (0, 0), BuildingBlock: ZUJKAS_clean_linker_0, # of connection points: 2
#     Edge 54, Type (0, 0), BuildingBlock: ZUJKAS_clean_linker_0, # of connection points: 2
#     Edge 55, Type (0, 0), BuildingBlock: ZUJKAS_clean_linker_0, # of connection points: 2
#     Edge 56, Type (0, 0), BuildingBlock: ZUJKAS_clean_linker_0, # of connection points: 2
#     Edge 57, Type (0, 0), BuildingBlock: ZUJKAS_clean_linker_0, # of connection points: 2
#     Edge 58, Type (0, 0), BuildingBlock: ZUJKAS_clean_linker_0, # of connection points: 2
#     Edge 59, Type (0, 0), BuildingBlock: ZUJKAS_clean_linker_0, # of connection points: 2
#     Edge 60, Type (0, 0), BuildingBlock: ZUJKAS_clean_linker_0, # of connection points: 2
#     Edge 61, Type (0, 0), BuildingBlock: ZUJKAS_clean_linker_0, # of connection points: 2
#     Edge 62, Type (0, 0), BuildingBlock: ZUJKAS_clean_linker_0, # of connection points: 2
#     Edge 63, Type (0, 0), BuildingBlock: ZUJKAS_clean_linker_0, # of connection points: 2
#     Edge 64, Type (0, 0), BuildingBlock: ZUJKAS_clean_linker_0, # of connection points: 2
#     Edge 65, Type (0, 0), BuildingBlock: ZUJKAS_clean_linker_0, # of connection points: 2
#     Edge 66, Type (0, 0), BuildingBlock: ZUJKAS_clean_linker_0, # of connection points: 2
#     Edge 67, Type (0, 0), BuildingBlock: ZUJKAS_clean_linker_0, # of connection points: 2
#     Edge 68, Type (0, 0), BuildingBlock: ZUJKAS_clean_linker_0, # of connection points: 2
#     Edge 69, Type (0, 0), BuildingBlock: ZUJKAS_clean_linker_0, # of connection points: 2
#     Edge 70, Type (0, 0), BuildingBlock: ZUJKAS_clean_linker_0, # of connection points: 2
#     Edge 71, Type (0, 0), BuildingBlock: ZUJKAS_clean_linker_0, # of connection points: 2
# Relax obj value: 0.332
# Max RMSD: 0.272
# Mean RMSD: 0.240
data_MOF--net-unv--node1-KUFVIS_clean_sbu_0--edge1-ZUJKAS_clean_linker_0
_symmetry_space_group_name_H-M    P1
_symmetry_Int_Tables_number       1
_symmetry_cell_setting            triclinic
loop_
_symmetry_equiv_pos_as_xyz
'x, y, z'
_cell_length_a     62.315845
_cell_length_b     62.2934
_cell_length_c     62.313409
_cell_angle_alpha  89.98276
_cell_angle_beta   89.980621
_cell_angle_gamma 89.981502
loop_
_atom_site_label
_atom_site_type_symbol
_atom_site_fract_x
_atom_site_fract_y
_atom_site_fract_z
_atom_type_partial_charge
Mn0 Mn 0.01057 0.09456 0.37623 0.0
Mn1 Mn 0.06003 0.10571 0.3575 0.0
C2 C 0.03742 0.10371 0.39993 0.0
C3 C 0.98539 0.0692 0.38691 0.0
C4 C 0.02228 0.1362 0.3537 0.0
O5 O 0.01036 0.08241 0.34611 0.0
O6 O 0.04484 0.08738 0.33616 0.0
C7 C 0.07932 0.0623 0.35829 0.0
N8 N 0.07956 0.08319 0.36472 0.0
C9 C 0.11179 0.07761 0.38524 0.0
C10 C 0.11197 0.05607 0.37872 0.0
C11 C 0.09564 0.04838 0.36522 0.0
C12 C 0.09519 0.09077 0.3777 0.0
H13 H 0.06676 0.0563 0.34797 0.0
C14 C 0.0259 0.07993 0.33304 0.0
O15 O 0.97949 0.0879 0.3798 0.0
O16 O 0.00584 0.06543 0.38802 0.0
N17 N 0.07631 0.123 0.37698 0.0
C18 C 0.0728 0.14367 0.3832 0.0
C19 C 0.08715 0.15351 0.39751 0.0
C20 C 0.10498 0.14205 0.40519 0.0
C21 C 0.10827 0.1208 0.39853 0.0
C22 C 0.09346 0.11185 0.38421 0.0
H23 H 0.0591 0.15254 0.37739 0.0
O24 O 0.01741 0.10562 0.40543 0.0
O25 O 0.04099 0.09631 0.38073 0.0
O26 O 0.00902 0.12508 0.36458 0.0
O27 O 0.04138 0.13012 0.34945 0.0
C28 C 0.12545 0.10804 0.40583 0.0
C29 C 0.12717 0.08644 0.39925 0.0
H30 H 0.12445 0.04525 0.38415 0.0
H31 H 0.09561 0.03174 0.36022 0.0
H32 H 0.08446 0.16989 0.40265 0.0
H33 H 0.11595 0.14966 0.41632 0.0
H34 H 0.13727 0.1146 0.41674 0.0
H35 H 0.14023 0.07669 0.40529 0.0
Mn36 Mn 0.98372 0.39561 0.36779 0.0
Mn37 Mn 0.9331 0.38274 0.35398 0.0
C38 C 0.96011 0.38393 0.39377 0.0
C39 C 0.00854 0.42198 0.37664 0.0
C40 C 0.97167 0.35431 0.34504 0.0
O41 O 0.98015 0.40851 0.33811 0.0
O42 O 0.9448 0.4034 0.33255 0.0
C43 C 0.91193 0.42486 0.36008 0.0
N44 N 0.9134 0.40358 0.3649 0.0
C45 C 0.88376 0.40603 0.38955 0.0
C46 C 0.88181 0.42793 0.3847 0.0
C47 C 0.89599 0.43738 0.36993 0.0
C48 C 0.89985 0.39432 0.3791 0.0
H49 H 0.92288 0.43224 0.34885 0.0
C50 C 0.96299 0.41157 0.32739 0.0
O51 O 0.01461 0.40386 0.3683 0.0
O52 O 0.98815 0.42462 0.37995 0.0
N53 N 0.91995 0.36327 0.37381 0.0
C54 C 0.92488 0.34233 0.37782 0.0
C55 C 0.91269 0.33073 0.39281 0.0
C56 C 0.89553 0.34073 0.40348 0.0
C57 C 0.89069 0.36225 0.39901 0.0
C58 C 0.90328 0.37296 0.38378 0.0
H59 H 0.93807 0.33454 0.36974 0.0
O60 O 0.98064 0.38332 0.39725 0.0
O61 O 0.95414 0.39188 0.37544 0.0
O62 O 0.98538 0.3656 0.35514 0.0
O63 O 0.95209 0.3599 0.34248 0.0
C64 C 0.8741 0.3736 0.40937 0.0
C65 C 0.87067 0.39549 0.40469 0.0
H66 H 0.86964 0.43768 0.39239 0.0
H67 H 0.89468 0.4543 0.36622 0.0
H68 H 0.91657 0.31414 0.39621 0.0
H69 H 0.8863 0.33179 0.41518 0.0
H70 H 0.8641 0.36573 0.42121 0.0
H71 H 0.85811 0.40413 0.41304 0.0
Mn72 Mn 0.99827 0.90265 0.12691 0.0
Mn73 Mn 0.04857 0.89164 0.14349 0.0
C74 C 0.0233 0.89007 0.10274 0.0
C75 C 0.97334 0.92769 0.11486 0.0
C76 C 0.01034 0.86305 0.15288 0.0
O77 O 0.00051 0.91809 0.15545 0.0
O78 O 0.03534 0.91251 0.16375 0.0
C79 C 0.06873 0.93414 0.1368 0.0
N80 N 0.06802 0.9127 0.13257 0.0
C81 C 0.09829 0.91532 0.10872 0.0
C82 C 0.09943 0.9374 0.11293 0.0
C83 C 0.08457 0.94684 0.12702 0.0
C84 C 0.08228 0.90343 0.1191 0.0
H85 H 0.05724 0.9415 0.14749 0.0
C86 C 0.01697 0.92114 0.16721 0.0
O87 O 0.96725 0.91028 0.12462 0.0
O88 O 0.99378 0.93039 0.11208 0.0
N89 N 0.06302 0.87194 0.12485 0.0
C90 C 0.05875 0.85079 0.12128 0.0
C91 C 0.07166 0.83913 0.10694 0.0
C92 C 0.08881 0.84932 0.09644 0.0
C93 C 0.09293 0.87109 0.10041 0.0
C94 C 0.07965 0.88184 0.11501 0.0
H95 H 0.04552 0.84289 0.12921 0.0
O96 O 0.00295 0.88824 0.09862 0.0
O97 O 0.02817 0.89921 0.12083 0.0
O98 O 0.99662 0.8736 0.14197 0.0
O99 O 0.02988 0.86879 0.15518 0.0
C100 C 0.1094 0.88264 0.0901 0.0
C101 C 0.11207 0.90474 0.09424 0.0
H102 H 0.1115 0.94729 0.10527 0.0
H103 H 0.08527 0.9639 0.13025 0.0
H104 H 0.06833 0.82236 0.1039 0.0
H105 H 0.09859 0.84033 0.08523 0.0
H106 H 0.1199 0.87476 0.07871 0.0
H107 H 0.12457 0.91352 0.08593 0.0
Mn108 Mn 0.98913 0.60435 0.13918 0.0
Mn109 Mn 0.93733 0.61513 0.15031 0.0
C110 C 0.96672 0.61639 0.11228 0.0
C111 C 0.0154 0.57936 0.13029 0.0
C112 C 0.97424 0.64435 0.16276 0.0
O113 O 0.98416 0.58975 0.16788 0.0
O114 O 0.94849 0.59425 0.17179 0.0
C115 C 0.91805 0.57253 0.14181 0.0
N116 N 0.91907 0.59398 0.13767 0.0
C117 C 0.89077 0.59136 0.11153 0.0
C118 C 0.88932 0.56928 0.11563 0.0
C119 C 0.90305 0.55982 0.13081 0.0
C120 C 0.90593 0.60324 0.1231 0.0
H121 H 0.92865 0.56517 0.15338 0.0
C122 C 0.9665 0.58613 0.1776 0.0
O123 O 0.02028 0.59704 0.14021 0.0
O124 O 0.99535 0.57628 0.12566 0.0
N125 N 0.92469 0.63474 0.1303 0.0
C126 C 0.92921 0.65589 0.12706 0.0
C127 C 0.91747 0.66754 0.11174 0.0
C128 C 0.90116 0.65736 0.09999 0.0
C129 C 0.89674 0.6356 0.10366 0.0
C130 C 0.90889 0.62484 0.11921 0.0
H131 H 0.94175 0.66382 0.13599 0.0
O132 O 0.98739 0.61804 0.11021 0.0
O133 O 0.95996 0.60746 0.12987 0.0
O134 O 0.98901 0.63375 0.15341 0.0
O135 O 0.95469 0.63823 0.1636 0.0
C136 C 0.88102 0.62408 0.09223 0.0
C137 C 0.87808 0.60196 0.0961 0.0
H138 H 0.87787 0.55939 0.10707 0.0
H139 H 0.90212 0.54277 0.13397 0.0
H140 H 0.92103 0.68431 0.10895 0.0
H141 H 0.89226 0.66635 0.08807 0.0
H142 H 0.87131 0.63201 0.08018 0.0
H143 H 0.86621 0.5932 0.08691 0.0
Mn144 Mn 0.37781 0.00876 0.09392 0.0
Mn145 Mn 0.35821 0.05786 0.10502 0.0
C146 C 0.4011 0.03602 0.10303 0.0
C147 C 0.38849 0.98378 0.06837 0.0
C148 C 0.35516 0.01994 0.13545 0.0
O149 O 0.34747 0.00795 0.08228 0.0
O150 O 0.33752 0.04252 0.08613 0.0
C151 C 0.35933 0.07767 0.06185 0.0
N152 N 0.36543 0.07777 0.08284 0.0
C153 C 0.38523 0.11058 0.07802 0.0
C154 C 0.37906 0.11089 0.05639 0.0
C155 C 0.3661 0.09433 0.04826 0.0
C156 C 0.3779 0.09361 0.09083 0.0
H157 H 0.3494 0.06495 0.05553 0.0
C158 C 0.33444 0.02342 0.07908 0.0
O159 O 0.38179 0.97775 0.08717 0.0
O160 O 0.38924 0.00426 0.06462 0.0
N161 N 0.37712 0.07429 0.12279 0.0
C162 C 0.38306 0.0707 0.14353 0.0
C163 C 0.39683 0.08528 0.15379 0.0
C164 C 0.40424 0.10345 0.14268 0.0
C165 C 0.39787 0.10683 0.12137 0.0
C166 C 0.38411 0.09177 0.11199 0.0
H167 H 0.37743 0.05677 0.15215 0.0
O168 O 0.40705 0.01609 0.10461 0.0
O169 O 0.38182 0.03927 0.09573 0.0
O170 O 0.36667 0.00706 0.12455 0.0
O171 O 0.35011 0.0388 0.12916 0.0
C172 C 0.4049 0.12439 0.10897 0.0
C173 C 0.39866 0.12622 0.08729 0.0
H174 H 0.38434 0.12365 0.04582 0.0
H175 H 0.36136 0.0944 0.03156 0.0
H176 H 0.40174 0.08252 0.17022 0.0
H177 H 0.41495 0.11461 0.15062 0.0
H178 H 0.41536 0.13643 0.11588 0.0
H179 H 0.40451 0.13957 0.07782 0.0
Mn180 Mn 0.61321 0.50655 0.09171 0.0
Mn181 Mn 0.63544 0.45755 0.09722 0.0
C182 C 0.59163 0.47731 0.09887 0.0
C183 C 0.59992 0.53319 0.06925 0.0
C184 C 0.63748 0.49204 0.13147 0.0
O185 O 0.64288 0.51015 0.07884 0.0
O186 O 0.65505 0.47613 0.08024 0.0
C187 C 0.63488 0.44311 0.05197 0.0
N188 N 0.62914 0.44007 0.07284 0.0
C189 C 0.61208 0.40648 0.06442 0.0
C190 C 0.61789 0.40919 0.04284 0.0
C191 C 0.62927 0.42763 0.03659 0.0
C192 C 0.6181 0.42246 0.07902 0.0
H193 H 0.64367 0.45724 0.0471 0.0
C194 C 0.65687 0.49583 0.07458 0.0
O195 O 0.60753 0.53788 0.08808 0.0
O196 O 0.59995 0.51315 0.06365 0.0
N197 N 0.61781 0.43796 0.11299 0.0
C198 C 0.61193 0.43865 0.13405 0.0
C199 C 0.59958 0.42188 0.14266 0.0
C200 C 0.5936 0.4045 0.12961 0.0
C201 C 0.5999 0.40412 0.10801 0.0
C202 C 0.6121 0.42134 0.10029 0.0
H203 H 0.61656 0.45193 0.14417 0.0
O204 O 0.5849 0.49663 0.10288 0.0
O205 O 0.61071 0.47581 0.09055 0.0
O206 O 0.62577 0.50582 0.12192 0.0
O207 O 0.64266 0.47395 0.12335 0.0
C208 C 0.59436 0.38747 0.09377 0.0
C209 C 0.60032 0.3887 0.07196 0.0
H210 H 0.61357 0.3973 0.03093 0.0
H211 H 0.63374 0.42988 0.01995 0.0
H212 H 0.59472 0.42232 0.15932 0.0
H213 H 0.58405 0.3916 0.1363 0.0
H214 H 0.58524 0.37376 0.09935 0.0
H215 H 0.59558 0.376 0.06108 0.0
Mn216 Mn 0.3688 0.98551 0.39753 0.0
Mn217 Mn 0.35809 0.93393 0.3855 0.0
C218 C 0.39638 0.96291 0.38767 0.0
C219 C 0.37554 0.01149 0.4234 0.0
C220 C 0.34839 0.97128 0.35575 0.0
O221 O 0.33884 0.98076 0.40937 0.0
O222 O 0.33528 0.94502 0.40497 0.0
C223 C 0.36345 0.91406 0.42834 0.0
N224 N 0.36913 0.91532 0.40727 0.0
C225 C 0.39535 0.88727 0.41157 0.0
C226 C 0.38965 0.88555 0.43327 0.0
C227 C 0.37364 0.89903 0.44169 0.0
C228 C 0.38448 0.9024 0.39899 0.0
H229 H 0.35129 0.9245 0.43494 0.0
C230 C 0.32891 0.96312 0.41246 0.0
O231 O 0.36755 0.01663 0.40484 0.0
O232 O 0.37958 0.99135 0.42682 0.0
N233 N 0.37942 0.92142 0.36722 0.0
C234 C 0.38412 0.92613 0.34638 0.0
C235 C 0.40036 0.91464 0.3358 0.0
C236 C 0.41158 0.89841 0.34671 0.0
C237 C 0.4064 0.89377 0.36811 0.0
C238 C 0.38991 0.90561 0.37777 0.0
H239 H 0.37564 0.93864 0.33792 0.0
O240 O 0.39884 0.98358 0.38652 0.0
O241 O 0.37803 0.95627 0.39499 0.0
O242 O 0.35735 0.98575 0.36704 0.0
O243 O 0.34657 0.95173 0.36172 0.0
C244 C 0.41727 0.87818 0.38036 0.0
C245 C 0.41177 0.87495 0.40208 0.0
H246 H 0.39761 0.87412 0.44367 0.0
H247 H 0.36926 0.8979 0.45846 0.0
H248 H 0.4043 0.91836 0.31929 0.0
H249 H 0.42425 0.88974 0.33855 0.0
H250 H 0.43012 0.86881 0.37332 0.0
H251 H 0.4205 0.86316 0.41142 0.0
Mn252 Mn 0.62552 0.49401 0.39834 0.0
Mn253 Mn 0.63816 0.54575 0.38938 0.0
C254 C 0.59867 0.51828 0.39054 0.0
C255 C 0.6186 0.46709 0.4232 0.0
C256 C 0.64579 0.50997 0.35718 0.0
O257 O 0.65599 0.49678 0.40954 0.0
O258 O 0.66064 0.5326 0.40785 0.0
C259 C 0.63404 0.56327 0.43335 0.0
N260 N 0.62816 0.56351 0.4123 0.0
C261 C 0.60378 0.59287 0.41833 0.0
C262 C 0.60968 0.59303 0.44004 0.0
C263 C 0.62484 0.57813 0.44758 0.0
C264 C 0.61357 0.57776 0.40487 0.0
H265 H 0.64561 0.55179 0.43924 0.0
C266 C 0.66653 0.5138 0.41383 0.0
O267 O 0.62564 0.46248 0.40412 0.0
O268 O 0.61541 0.48718 0.4276 0.0
N269 N 0.61728 0.56023 0.37209 0.0
C270 C 0.61221 0.55697 0.35107 0.0
C271 C 0.59667 0.57002 0.34125 0.0
C272 C 0.58661 0.58635 0.35309 0.0
C273 C 0.59217 0.58948 0.37466 0.0
C274 C 0.60783 0.57604 0.38357 0.0
H275 H 0.61987 0.54447 0.34185 0.0
O276 O 0.59526 0.49783 0.38837 0.0
O277 O 0.61746 0.52369 0.39774 0.0
O278 O 0.63617 0.49515 0.36748 0.0
O279 O 0.64868 0.5289 0.36455 0.0
C280 C 0.58252 0.60517 0.38777 0.0
C281 C 0.58825 0.60682 0.40961 0.0
H282 H 0.60253 0.60438 0.4511 0.0
H283 H 0.62939 0.57808 0.46434 0.0
H284 H 0.59244 0.56747 0.32461 0.0
H285 H 0.57452 0.59628 0.34551 0.0
H286 H 0.57041 0.61584 0.3813 0.0
H287 H 0.58042 0.61868 0.41961 0.0
Mn288 Mn 0.0965 0.38073 0.01297 0.0
Mn289 Mn 0.10902 0.36044 0.06141 0.0
C290 C 0.1074 0.40353 0.03998 0.0
C291 C 0.07031 0.39255 0.98919 0.0
C292 C 0.13771 0.35659 0.02221 0.0
O293 O 0.08377 0.3508 0.0125 0.0
O294 O 0.08887 0.3404 0.04677 0.0
C295 C 0.06678 0.36272 0.08304 0.0
N296 N 0.08791 0.36824 0.08225 0.0
C297 C 0.08497 0.38835 0.11509 0.0
C298 C 0.0632 0.38277 0.11631 0.0
C299 C 0.05407 0.36994 0.10019 0.0
C300 C 0.09688 0.38056 0.09769 0.0
H301 H 0.05967 0.35291 0.07064 0.0
C302 C 0.08087 0.33773 0.02799 0.0
O303 O 0.08857 0.38518 0.98231 0.0
O304 O 0.06747 0.39325 0.00981 0.0
N305 N 0.12801 0.37878 0.07711 0.0
C306 C 0.14873 0.38416 0.07264 0.0
C307 C 0.15994 0.39773 0.08669 0.0
C308 C 0.14977 0.40557 0.10523 0.0
C309 C 0.12845 0.3998 0.10951 0.0
C310 C 0.1181 0.38617 0.09495 0.0
H311 H 0.15661 0.37823 0.0584 0.0
O312 O 0.10849 0.40955 0.02005 0.0
O313 O 0.09968 0.38444 0.04335 0.0
O314 O 0.12662 0.36851 0.00986 0.0
O315 O 0.13208 0.35171 0.04131 0.0
C316 C 0.11695 0.40733 0.12745 0.0
C317 C 0.0952 0.40167 0.13021 0.0
H318 H 0.05331 0.38843 0.12944 0.0
H319 H 0.03726 0.36566 0.10097 0.0
H320 H 0.17636 0.40218 0.08323 0.0
H321 H 0.15843 0.41613 0.11597 0.0
H322 H 0.12459 0.41774 0.13908 0.0
H323 H 0.08643 0.40789 0.14387 0.0
Mn324 Mn 0.09373 0.61818 0.50791 0.0
Mn325 Mn 0.10002 0.63674 0.45754 0.0
C326 C 0.10068 0.59449 0.48039 0.0
C327 C 0.07036 0.60738 0.53484 0.0
C328 C 0.13377 0.64116 0.49234 0.0
O329 O 0.08141 0.64827 0.50915 0.0
O330 O 0.08274 0.65781 0.47421 0.0
C331 C 0.05502 0.63471 0.44249 0.0
N332 N 0.07594 0.62875 0.44032 0.0
C333 C 0.06766 0.60698 0.40952 0.0
C334 C 0.04606 0.61301 0.41133 0.0
C335 C 0.03971 0.62692 0.42791 0.0
C336 C 0.08223 0.61542 0.4244 0.0
H337 H 0.05004 0.64527 0.45531 0.0
C338 C 0.07718 0.66109 0.49376 0.0
O339 O 0.08945 0.6144 0.53948 0.0
O340 O 0.06516 0.60638 0.51474 0.0
N341 N 0.11616 0.61745 0.43987 0.0
C342 C 0.13729 0.61199 0.44128 0.0
C343 C 0.14604 0.59756 0.42633 0.0
C344 C 0.133 0.58893 0.4101 0.0
C345 C 0.11132 0.59485 0.40893 0.0
C346 C 0.10354 0.60945 0.42414 0.0
H347 H 0.14736 0.61848 0.45378 0.0
O348 O 0.1043 0.58891 0.50014 0.0
O349 O 0.09293 0.61364 0.47757 0.0
O350 O 0.1242 0.63009 0.50666 0.0
O351 O 0.12578 0.64532 0.47392 0.0
C352 C 0.09704 0.58648 0.39355 0.0
C353 C 0.07522 0.59252 0.39385 0.0
H354 H 0.03417 0.60689 0.40024 0.0
H355 H 0.02305 0.63154 0.4295 0.0
H356 H 0.16277 0.59302 0.42739 0.0
H357 H 0.13976 0.57763 0.39875 0.0
H358 H 0.10259 0.57512 0.38161 0.0
H359 H 0.06432 0.58569 0.38216 0.0
Mn360 Mn 0.9039 0.87132 0.51626 0.0
Mn361 Mn 0.89781 0.85431 0.46526 0.0
C362 C 0.89521 0.89551 0.48966 0.0
C363 C 0.92646 0.88308 0.5435 0.0
C364 C 0.86464 0.84711 0.50005 0.0
O365 O 0.9183 0.84213 0.51624 0.0
O366 O 0.91559 0.83314 0.48123 0.0
C367 C 0.94276 0.85817 0.45041 0.0
N368 N 0.92168 0.86356 0.44836 0.0
C369 C 0.92931 0.88634 0.41811 0.0
C370 C 0.95109 0.88092 0.4198 0.0
C371 C 0.95784 0.8668 0.43604 0.0
C372 C 0.915 0.87711 0.43278 0.0
H373 H 0.94804 0.84743 0.46295 0.0
C374 C 0.92207 0.82967 0.50045 0.0
O375 O 0.9082 0.87402 0.54792 0.0
O376 O 0.93148 0.8852 0.52343 0.0
N377 N 0.88114 0.87367 0.44817 0.0
C378 C 0.85986 0.87846 0.44971 0.0
C379 C 0.85069 0.893 0.43514 0.0
C380 C 0.86346 0.9024 0.41911 0.0
C381 C 0.88531 0.89716 0.41779 0.0
C382 C 0.89352 0.88244 0.43266 0.0
H383 H 0.84999 0.87135 0.46205 0.0
O384 O 0.89126 0.90005 0.50961 0.0
O385 O 0.90409 0.87699 0.48607 0.0
O386 O 0.87424 0.85745 0.51487 0.0
O387 O 0.87229 0.84444 0.48122 0.0
C388 C 0.89933 0.90627 0.40258 0.0
C389 C 0.92132 0.90091 0.40277 0.0
H390 H 0.96279 0.88767 0.40886 0.0
H391 H 0.97463 0.86263 0.43752 0.0
H392 H 0.83384 0.89702 0.4363 0.0
H393 H 0.85637 0.91376 0.40802 0.0
H394 H 0.89342 0.91768 0.39086 0.0
H395 H 0.93201 0.90833 0.39123 0.0
Mn396 Mn 0.39698 0.62662 0.50175 0.0
Mn397 Mn 0.38763 0.64242 0.55258 0.0
C398 C 0.38684 0.60159 0.52701 0.0
C399 C 0.42176 0.61668 0.47574 0.0
C400 C 0.35647 0.64971 0.51586 0.0
O401 O 0.41018 0.65629 0.50317 0.0
O402 O 0.40684 0.66366 0.53837 0.0
C403 C 0.43136 0.63812 0.57063 0.0
N404 N 0.41015 0.63287 0.57107 0.0
C405 C 0.41519 0.61058 0.6022 0.0
C406 C 0.43706 0.61585 0.60217 0.0
C407 C 0.44519 0.62963 0.58627 0.0
C408 C 0.40217 0.61958 0.58625 0.0
H409 H 0.43768 0.64867 0.55842 0.0
C410 C 0.41393 0.66795 0.51953 0.0
O411 O 0.4033 0.62479 0.4704 0.0
O412 O 0.42557 0.61416 0.49604 0.0
N413 N 0.36967 0.62297 0.56817 0.0
C414 C 0.34858 0.61816 0.56495 0.0
C415 C 0.33822 0.60381 0.57891 0.0
C416 C 0.34959 0.5947 0.59612 0.0
C417 C 0.37124 0.59997 0.59917 0.0
C418 C 0.38072 0.61436 0.58473 0.0
H419 H 0.33975 0.62512 0.55177 0.0
O420 O 0.38482 0.59749 0.50669 0.0
O421 O 0.39532 0.62004 0.53186 0.0
O422 O 0.3669 0.63942 0.50159 0.0
O423 O 0.36327 0.65264 0.53498 0.0
C424 C 0.38389 0.59127 0.61576 0.0
C425 C 0.40587 0.59647 0.61722 0.0
H426 H 0.4478 0.60927 0.61415 0.0
H427 H 0.46207 0.63369 0.58607 0.0
H428 H 0.32152 0.59978 0.57641 0.0
H429 H 0.34157 0.58357 0.6068 0.0
H430 H 0.37693 0.58033 0.62734 0.0
H431 H 0.4155 0.58934 0.6298 0.0
Mn432 Mn 0.494 0.60228 0.86124 0.0
Mn433 Mn 0.54522 0.60999 0.84555 0.0
C434 C 0.51899 0.61427 0.88567 0.0
C435 C 0.46736 0.57912 0.87332 0.0
C436 C 0.50916 0.64099 0.8354 0.0
O437 O 0.49585 0.586 0.83321 0.0
O438 O 0.53085 0.5901 0.82502 0.0
C439 C 0.56213 0.56609 0.85236 0.0
N440 N 0.56301 0.58754 0.85652 0.0
C441 C 0.59359 0.58287 0.87962 0.0
C442 C 0.59311 0.56076 0.87547 0.0
C443 C 0.57727 0.55233 0.86182 0.0
C444 C 0.57816 0.59582 0.86964 0.0
H445 H 0.54995 0.55953 0.84193 0.0
C446 C 0.51219 0.5822 0.82152 0.0
O447 O 0.46253 0.59656 0.86294 0.0
O448 O 0.48754 0.5753 0.87668 0.0
N449 N 0.56097 0.62855 0.86427 0.0
C450 C 0.55816 0.64993 0.86796 0.0
C451 C 0.57209 0.66066 0.88204 0.0
C452 C 0.58883 0.64935 0.89205 0.0
C453 C 0.59145 0.62738 0.88793 0.0
C454 C 0.57709 0.61754 0.87374 0.0
H455 H 0.54532 0.6587 0.86033 0.0
O456 O 0.49864 0.61724 0.88906 0.0
O457 O 0.52403 0.60411 0.86813 0.0
O458 O 0.4944 0.63104 0.84549 0.0
O459 O 0.52843 0.63419 0.83385 0.0
C460 C 0.60753 0.61478 0.89763 0.0
C461 C 0.60854 0.59253 0.89355 0.0
H462 H 0.60469 0.55007 0.88282 0.0
H463 H 0.57672 0.53526 0.85863 0.0
H464 H 0.56992 0.6776 0.8852 0.0
H465 H 0.59948 0.65766 0.903 0.0
H466 H 0.61902 0.62199 0.90848 0.0
H467 H 0.62073 0.58295 0.90143 0.0
Mn468 Mn 0.51268 0.90247 0.86672 0.0
Mn469 Mn 0.4613 0.89623 0.85131 0.0
C470 C 0.48688 0.89384 0.89183 0.0
C471 C 0.53978 0.92584 0.87734 0.0
C472 C 0.49623 0.86331 0.84285 0.0
O473 O 0.51171 0.91624 0.83723 0.0
O474 O 0.47626 0.91489 0.83015 0.0
C475 C 0.44563 0.94078 0.85659 0.0
N476 N 0.44424 0.91955 0.86163 0.0
C477 C 0.41464 0.92608 0.88558 0.0
C478 C 0.41568 0.94799 0.88054 0.0
C479 C 0.43126 0.95537 0.86601 0.0
C480 C 0.42927 0.91226 0.87555 0.0
H481 H 0.45767 0.94654 0.84553 0.0
C482 C 0.49544 0.92091 0.82571 0.0
O483 O 0.54438 0.90745 0.8686 0.0
O484 O 0.51966 0.93044 0.87978 0.0
N485 N 0.44522 0.8788 0.87087 0.0
C486 C 0.44741 0.85747 0.87522 0.0
C487 C 0.43357 0.84771 0.8901 0.0
C488 C 0.41763 0.85996 0.90032 0.0
C489 C 0.41566 0.88186 0.89554 0.0
C490 C 0.42979 0.89068 0.88044 0.0
H491 H 0.45968 0.84799 0.8675 0.0
O492 O 0.507 0.89025 0.89588 0.0
O493 O 0.48272 0.90243 0.87332 0.0
O494 O 0.51116 0.87258 0.85334 0.0
O495 O 0.47746 0.87121 0.84035 0.0
C496 C 0.40051 0.89538 0.90549 0.0
C497 C 0.40001 0.91748 0.90053 0.0
H498 H 0.40474 0.95933 0.88791 0.0
H499 H 0.43224 0.97228 0.86214 0.0
H500 H 0.43525 0.83081 0.89376 0.0
H501 H 0.40713 0.85242 0.91193 0.0
H502 H 0.38938 0.88902 0.91723 0.0
H503 H 0.38854 0.92777 0.90858 0.0
Mn504 Mn 0.49592 0.39573 0.62255 0.0
Mn505 Mn 0.54684 0.3882 0.63926 0.0
C506 C 0.52171 0.38461 0.59851 0.0
C507 C 0.46932 0.41883 0.61033 0.0
C508 C 0.51082 0.35679 0.64818 0.0
O509 O 0.49698 0.41147 0.65097 0.0
O510 O 0.53191 0.40768 0.65976 0.0
C511 C 0.56344 0.4323 0.63314 0.0
N512 N 0.56459 0.41091 0.62876 0.0
C513 C 0.59492 0.41623 0.60543 0.0
C514 C 0.59416 0.43829 0.60982 0.0
C515 C 0.57832 0.44636 0.6237 0.0
C516 C 0.57976 0.40297 0.61543 0.0
H517 H 0.55121 0.4386 0.64369 0.0
C518 C 0.51305 0.41525 0.66304 0.0
O519 O 0.46445 0.40114 0.62025 0.0
O520 O 0.48953 0.42295 0.60751 0.0
N521 N 0.56305 0.36996 0.62056 0.0
C522 C 0.56063 0.34855 0.61682 0.0
C523 C 0.57472 0.33811 0.60265 0.0
C524 C 0.59116 0.34977 0.59255 0.0
C525 C 0.59339 0.37177 0.59674 0.0
C526 C 0.57898 0.38127 0.61113 0.0
H527 H 0.54798 0.33952 0.62446 0.0
O528 O 0.50152 0.38144 0.59443 0.0
O529 O 0.52604 0.39432 0.61646 0.0
O530 O 0.49629 0.36673 0.63776 0.0
O531 O 0.52998 0.36374 0.65037 0.0
C532 C 0.60909 0.38471 0.58688 0.0
C533 C 0.60982 0.40694 0.59117 0.0
H534 H 0.6055 0.44921 0.60245 0.0
H535 H 0.57755 0.46338 0.62707 0.0
H536 H 0.57285 0.32114 0.59944 0.0
H537 H 0.60187 0.34171 0.58147 0.0
H538 H 0.62048 0.37779 0.57572 0.0
H539 H 0.62172 0.41678 0.5832 0.0
Mn540 Mn 0.50619 0.09591 0.61707 0.0
Mn541 Mn 0.45558 0.10162 0.63517 0.0
C542 C 0.479 0.10428 0.59339 0.0
C543 C 0.53327 0.07324 0.60508 0.0
C544 C 0.49047 0.13492 0.6418 0.0
O545 O 0.50689 0.08195 0.6465 0.0
O546 O 0.47188 0.08326 0.65557 0.0
C547 C 0.4403 0.05684 0.63087 0.0
N548 N 0.43832 0.07804 0.62587 0.0
C549 C 0.40745 0.07106 0.60377 0.0
C550 C 0.40907 0.04917 0.60879 0.0
C551 C 0.42559 0.04204 0.62237 0.0
C552 C 0.42247 0.08508 0.61284 0.0
H553 H 0.45304 0.05127 0.64122 0.0
C554 C 0.4913 0.07729 0.65894 0.0
O555 O 0.5378 0.09164 0.61378 0.0
O556 O 0.51317 0.06816 0.60341 0.0
N557 N 0.43823 0.11876 0.61647 0.0
C558 C 0.43986 0.1401 0.61195 0.0
C559 C 0.42503 0.14963 0.59792 0.0
C560 C 0.40866 0.13716 0.58873 0.0
C561 C 0.40727 0.11525 0.59367 0.0
C562 C 0.42241 0.10665 0.60787 0.0
H563 H 0.45244 0.14975 0.6189 0.0
O564 O 0.49883 0.10819 0.58831 0.0
O565 O 0.47591 0.09556 0.61206 0.0
O566 O 0.50494 0.12566 0.63067 0.0
O567 O 0.47189 0.12692 0.6452 0.0
C568 C 0.3917 0.10152 0.58474 0.0
C569 C 0.39181 0.07943 0.58974 0.0
H570 H 0.39786 0.03768 0.60213 0.0
H571 H 0.42703 0.02516 0.62622 0.0
H572 H 0.42626 0.16654 0.59413 0.0
H573 H 0.39736 0.14454 0.57777 0.0
H574 H 0.37976 0.10772 0.57372 0.0
H575 H 0.37999 0.06897 0.58246 0.0
Mn576 Mn 0.86345 0.48692 0.59772 0.0
Mn577 Mn 0.85432 0.53958 0.60572 0.0
C578 C 0.89165 0.509 0.60692 0.0
C579 C 0.8693 0.45956 0.5731 0.0
C580 C 0.84291 0.50485 0.63797 0.0
O581 O 0.8338 0.49179 0.58519 0.0
O582 O 0.83166 0.52781 0.5866 0.0
C583 C 0.86132 0.55587 0.56163 0.0
N584 N 0.86629 0.55623 0.58291 0.0
C585 C 0.89212 0.58442 0.57749 0.0
C586 C 0.88716 0.58447 0.55554 0.0
C587 C 0.87175 0.57007 0.54757 0.0
C588 C 0.88118 0.56992 0.59073 0.0
H589 H 0.8495 0.54482 0.55543 0.0
C590 C 0.82466 0.50947 0.58046 0.0
O591 O 0.86123 0.45543 0.59189 0.0
O592 O 0.87425 0.47934 0.56894 0.0
N593 N 0.87537 0.55307 0.62357 0.0
C594 C 0.87939 0.54995 0.64485 0.0
C595 C 0.89503 0.5625 0.65512 0.0
C596 C 0.9062 0.57826 0.6435 0.0
C597 C 0.90167 0.58129 0.62167 0.0
C598 C 0.88593 0.56831 0.61229 0.0
H599 H 0.8708 0.53794 0.6539 0.0
O600 O 0.89336 0.48835 0.6091 0.0
O601 O 0.87379 0.51595 0.59866 0.0
O602 O 0.85157 0.48912 0.62813 0.0
O603 O 0.84185 0.52388 0.63035 0.0
C604 C 0.91236 0.5965 0.60879 0.0
C605 C 0.9077 0.59796 0.58669 0.0
H606 H 0.89521 0.59535 0.54463 0.0
H607 H 0.86792 0.56993 0.53064 0.0
H608 H 0.89845 0.56004 0.67197 0.0
H609 H 0.91833 0.58784 0.65146 0.0
H610 H 0.92438 0.607 0.61567 0.0
H611 H 0.91633 0.60944 0.57688 0.0
Mn612 Mn 0.13739 0.98337 0.60308 0.0
Mn613 Mn 0.15094 0.93237 0.61509 0.0
C614 C 0.11185 0.96043 0.61688 0.0
C615 C 0.12681 0.00873 0.57781 0.0
C616 C 0.16245 0.97057 0.64297 0.0
O617 O 0.1657 0.97914 0.58765 0.0
O618 O 0.17165 0.944 0.59368 0.0
C619 C 0.14285 0.91181 0.57302 0.0
N620 N 0.13899 0.91304 0.59451 0.0
C621 C 0.11495 0.88286 0.59301 0.0
C622 C 0.11879 0.88118 0.5709 0.0
C623 C 0.13275 0.89576 0.56086 0.0
C624 C 0.12553 0.89914 0.60432 0.0
H625 H 0.15354 0.92301 0.56522 0.0
C626 C 0.17632 0.96191 0.58466 0.0
O627 O 0.13714 0.01432 0.59503 0.0
O628 O 0.12266 0.98847 0.57536 0.0
N629 N 0.13188 0.91912 0.63523 0.0
C630 C 0.1286 0.92398 0.6563 0.0
C631 C 0.11429 0.9115 0.66845 0.0
C632 C 0.10367 0.89408 0.65889 0.0
C633 C 0.10738 0.88934 0.63721 0.0
C634 C 0.12178 0.90234 0.62589 0.0
H635 H 0.13674 0.93732 0.66375 0.0
O636 O 0.10917 0.98108 0.6179 0.0
O637 O 0.12924 0.95386 0.60735 0.0
O638 O 0.15262 0.98467 0.63191 0.0
O639 O 0.16365 0.95081 0.63764 0.0
C640 C 0.09711 0.87241 0.62631 0.0
C641 C 0.10079 0.86924 0.6042 0.0
H642 H 0.11096 0.86887 0.56144 0.0
H643 H 0.13571 0.89464 0.54378 0.0
H644 H 0.11147 0.91531 0.68516 0.0
H645 H 0.09258 0.88455 0.6683 0.0
H646 H 0.08611 0.86189 0.63472 0.0
H647 H 0.09247 0.85643 0.59592 0.0
Mn648 Mn 0.86648 0.51435 0.90586 0.0
Mn649 Mn 0.84784 0.46423 0.89839 0.0
C650 C 0.89041 0.48675 0.89976 0.0
C651 C 0.87587 0.54097 0.93024 0.0
C652 C 0.84569 0.4993 0.8646 0.0
O653 O 0.83564 0.51588 0.91612 0.0
O654 O 0.82635 0.48099 0.915 0.0
C655 C 0.84749 0.44852 0.94322 0.0
N656 N 0.85428 0.44648 0.92254 0.0
C657 C 0.87338 0.41396 0.93086 0.0
C658 C 0.86649 0.41563 0.95222 0.0
C659 C 0.85356 0.43303 0.95844 0.0
C660 C 0.86682 0.42987 0.91641 0.0
H661 H 0.83752 0.46185 0.94805 0.0
C662 C 0.82268 0.50057 0.92012 0.0
O663 O 0.87013 0.54587 0.91078 0.0
O664 O 0.87649 0.52078 0.9352 0.0
N665 N 0.86739 0.44632 0.88287 0.0
C666 C 0.87401 0.44797 0.86209 0.0
C667 C 0.88784 0.43232 0.8536 0.0
C668 C 0.89453 0.41506 0.86647 0.0
C669 C 0.88743 0.41367 0.88778 0.0
C670 C 0.87375 0.42978 0.89539 0.0
H671 H 0.86883 0.46114 0.85209 0.0
O672 O 0.89622 0.50657 0.89696 0.0
O673 O 0.87092 0.48383 0.90663 0.0
O674 O 0.85658 0.51342 0.87464 0.0
O675 O 0.84069 0.48103 0.87246 0.0
C676 C 0.89359 0.39706 0.90184 0.0
C677 C 0.88669 0.39728 0.9234 0.0
H678 H 0.87117 0.40374 0.96402 0.0
H679 H 0.84825 0.43449 0.97491 0.0
H680 H 0.89328 0.43354 0.83715 0.0
H681 H 0.90522 0.40304 0.85987 0.0
H682 H 0.90387 0.38417 0.8963 0.0
H683 H 0.8919 0.38464 0.93415 0.0
Mn684 Mn 0.13078 0.99826 0.90206 0.0
Mn685 Mn 0.14576 0.04922 0.89232 0.0
C686 C 0.10513 0.02358 0.8936 0.0
C687 C 0.12226 0.97199 0.92714 0.0
C688 C 0.15287 0.01243 0.86116 0.0
O689 O 0.16107 3e-05 0.9139 0.0
O690 O 0.1675 0.03557 0.91131 0.0
C691 C 0.14183 0.06791 0.93581 0.0
N692 N 0.1361 0.06782 0.91472 0.0
C693 C 0.11231 0.0978 0.91995 0.0
C694 C 0.11805 0.09829 0.9417 0.0
C695 C 0.13285 0.08326 0.94966 0.0
C696 C 0.12191 0.08224 0.90687 0.0
H697 H 0.15311 0.05631 0.94203 0.0
C698 C 0.1724 0.01664 0.9178 0.0
O699 O 0.1295 0.96686 0.90826 0.0
O700 O 0.11976 0.99225 0.93121 0.0
N701 N 0.12558 0.06402 0.87447 0.0
C702 C 0.12058 0.06039 0.8535 0.0
C703 C 0.10537 0.07353 0.8433 0.0
C704 C 0.0955 0.09026 0.85473 0.0
C705 C 0.10094 0.09373 0.87628 0.0
C706 C 0.11634 0.08023 0.88556 0.0
H707 H 0.12804 0.04751 0.84464 0.0
O708 O 0.1009 0.00328 0.89145 0.0
O709 O 0.12409 0.02821 0.90088 0.0
O710 O 0.14223 0.99833 0.87146 0.0
O711 O 0.15615 0.03147 0.86806 0.0
C712 C 0.09139 0.10978 0.88903 0.0
C713 C 0.09705 0.1118 0.91085 0.0
H714 H 0.11103 0.10999 0.95247 0.0
H715 H 0.13728 0.08346 0.96645 0.0
H716 H 0.10119 0.0707 0.82668 0.0
H717 H 0.08363 0.10023 0.84686 0.0
H718 H 0.07941 0.12043 0.88229 0.0
H719 H 0.08932 0.12397 0.92057 0.0
Mn720 Mn 0.60112 0.86408 0.49957 0.0
Mn721 Mn 0.60933 0.84901 0.55085 0.0
C722 C 0.61233 0.88915 0.52436 0.0
C723 C 0.57728 0.87492 0.47301 0.0
C724 C 0.64052 0.83959 0.51469 0.0
O725 O 0.58628 0.83523 0.50155 0.0
O726 O 0.58956 0.8282 0.53683 0.0
C727 C 0.56553 0.85534 0.56816 0.0
N728 N 0.58693 0.85978 0.56881 0.0
C729 C 0.5823 0.88278 0.59948 0.0
C730 C 0.56024 0.87834 0.59922 0.0
C731 C 0.55182 0.86461 0.58345 0.0
C732 C 0.59519 0.87301 0.58387 0.0
H733 H 0.55898 0.84481 0.55605 0.0
C734 C 0.5822 0.82393 0.5181 0.0
O735 O 0.59519 0.86543 0.46811 0.0
O736 O 0.57341 0.87813 0.49321 0.0
N737 N 0.6278 0.86807 0.56631 0.0
C738 C 0.6491 0.872 0.56332 0.0
C739 C 0.6598 0.88617 0.57718 0.0
C740 C 0.64855 0.896 0.59407 0.0
C741 C 0.62667 0.89162 0.59689 0.0
C742 C 0.61684 0.87738 0.58257 0.0
H743 H 0.65784 0.86447 0.55039 0.0
O744 O 0.61483 0.89261 0.50396 0.0
O745 O 0.60284 0.87128 0.52956 0.0
O746 O 0.6305 0.84971 0.50001 0.0
O747 O 0.63355 0.83754 0.53386 0.0
C748 C 0.61414 0.90107 0.61317 0.0
C749 C 0.59195 0.89676 0.61439 0.0
H750 H 0.5496 0.88553 0.61094 0.0
H751 H 0.5348 0.8612 0.58308 0.0
H752 H 0.67669 0.88951 0.57486 0.0
H753 H 0.65684 0.90699 0.60468 0.0
H754 H 0.62135 0.91193 0.62467 0.0
H755 H 0.58242 0.90446 0.62672 0.0
Mn756 Mn 0.60156 0.1369 0.98386 0.0
Mn757 Mn 0.61267 0.14763 0.93203 0.0
C758 C 0.61451 0.11004 0.96193 0.0
C759 C 0.57657 0.12768 0.00998 0.0
C760 C 0.6413 0.16106 0.96907 0.0
O761 O 0.58637 0.16519 0.97841 0.0
O762 O 0.59141 0.16899 0.9428 0.0
C763 C 0.57031 0.13822 0.91269 0.0
N764 N 0.5918 0.1344 0.91386 0.0
C765 C 0.58957 0.10737 0.88636 0.0
C766 C 0.56745 0.11114 0.88475 0.0
C767 C 0.55778 0.12662 0.89799 0.0
C768 C 0.60128 0.11957 0.90116 0.0
H769 H 0.56276 0.14997 0.92296 0.0
C770 C 0.58292 0.17477 0.96064 0.0
O771 O 0.59392 0.13812 0.01492 0.0
O772 O 0.5738 0.12276 0.98995 0.0
N773 N 0.63263 0.12773 0.91975 0.0
C774 C 0.65383 0.12495 0.92434 0.0
C775 C 0.6657 0.10948 0.91305 0.0
C776 C 0.65569 0.09706 0.89713 0.0
C777 C 0.63389 0.10026 0.89262 0.0
C778 C 0.62291 0.11606 0.90425 0.0
H779 H 0.66161 0.13436 0.93662 0.0
O780 O 0.61598 0.10828 0.98264 0.0
O781 O 0.6052 0.12732 0.95484 0.0
O782 O 0.63058 0.15184 0.98384 0.0
O783 O 0.63547 0.16145 0.9494 0.0
C784 C 0.62251 0.08809 0.87734 0.0
C785 C 0.60037 0.09161 0.87424 0.0
H786 H 0.5577 0.1021 0.87357 0.0
H787 H 0.54069 0.12953 0.89694 0.0
H788 H 0.68251 0.10705 0.91667 0.0
H789 H 0.66485 0.08498 0.88861 0.0
H790 H 0.63057 0.07575 0.86812 0.0
H791 H 0.59173 0.0819 0.8627 0.0
Mn792 Mn 0.39533 0.36838 0.97669 0.0
Mn793 Mn 0.38284 0.35459 0.92595 0.0
C794 C 0.38417 0.39443 0.95288 0.0
C795 C 0.42095 0.37748 0.00218 0.0
C796 C 0.35369 0.34634 0.96409 0.0
O797 O 0.40831 0.33871 0.97343 0.0
O798 O 0.40248 0.33255 0.93829 0.0
C799 C 0.42557 0.35884 0.90559 0.0
N800 N 0.40446 0.36444 0.90655 0.0
C801 C 0.40818 0.38783 0.87604 0.0
C802 C 0.42992 0.38219 0.87462 0.0
C803 C 0.43866 0.36768 0.88951 0.0
C804 C 0.3959 0.37844 0.89235 0.0
H805 H 0.43239 0.34774 0.91703 0.0
C806 C 0.41081 0.32756 0.95645 0.0
O807 O 0.40278 0.36893 0.00774 0.0
O808 O 0.42418 0.3807 0.98186 0.0
N809 N 0.3644 0.37492 0.91213 0.0
C810 C 0.34363 0.38 0.91674 0.0
C811 C 0.33279 0.39506 0.90395 0.0
C812 C 0.34334 0.40462 0.88647 0.0
C813 C 0.36469 0.39909 0.88199 0.0
C814 C 0.37468 0.38398 0.8953 0.0
H815 H 0.33542 0.3727 0.93015 0.0
O816 O 0.38307 0.39773 0.97342 0.0
O817 O 0.39221 0.37609 0.94694 0.0
O818 O 0.36531 0.35576 0.97798 0.0
O819 O 0.35917 0.34407 0.94445 0.0
C820 C 0.37655 0.40821 0.86504 0.0
C821 C 0.3983 0.40268 0.86213 0.0
H822 H 0.44009 0.38905 0.8623 0.0
H823 H 0.45545 0.36334 0.8886 0.0
H824 H 0.31634 0.3993 0.90756 0.0
H825 H 0.33496 0.41631 0.8767 0.0
H826 H 0.36917 0.41973 0.85431 0.0
H827 H 0.40736 0.41013 0.84929 0.0
Mn828 Mn 0.90123 0.13638 0.00236 0.0
Mn829 Mn 0.8882 0.15293 0.05209 0.0
C830 C 0.89032 0.11155 0.02755 0.0
C831 C 0.92776 0.1265 0.97805 0.0
C832 C 0.85961 0.1592 0.01314 0.0
O833 O 0.9136 0.16643 0.0041 0.0
O834 O 0.90814 0.1742 0.03899 0.0
C835 C 0.93041 0.14963 0.07361 0.0
N836 N 0.90934 0.14395 0.07241 0.0
C837 C 0.91235 0.12189 0.10396 0.0
C838 C 0.93405 0.1276 0.10562 0.0
C839 C 0.94312 0.14148 0.09034 0.0
C840 C 0.90044 0.1306 0.08701 0.0
H841 H 0.93747 0.16026 0.06188 0.0
C842 C 0.91623 0.17836 0.02052 0.0
O843 O 0.90948 0.13411 0.9715 0.0
O844 O 0.93044 0.1245 0.99859 0.0
N845 N 0.86938 0.13334 0.06645 0.0
C846 C 0.84872 0.12807 0.06159 0.0
C847 C 0.83759 0.11356 0.07475 0.0
C848 C 0.84775 0.10471 0.09283 0.0
C849 C 0.86899 0.11041 0.09754 0.0
C850 C 0.87928 0.12497 0.08385 0.0
H851 H 0.84083 0.13481 0.04772 0.0
O852 O 0.88953 0.107 0.00723 0.0
O853 O 0.89786 0.13039 0.03241 0.0
O854 O 0.87093 0.14842 -4e-05 0.0
O855 O 0.8651 0.16273 0.03257 0.0
C856 C 0.88048 0.10195 0.11508 0.0
C857 C 0.90216 0.10762 0.11824 0.0
H858 H 0.94394 0.12126 0.11843 0.0
H859 H 0.95989 0.14588 0.09145 0.0
H860 H 0.82122 0.10918 0.07097 0.0
H861 H 0.83914 0.09344 0.10289 0.0
H862 H 0.87287 0.09084 0.12607 0.0
H863 H 0.91093 0.10069 0.13156 0.0
H864 H 0.13872 0.05099 0.57456 0.0
H865 H 0.12778 0.07681 0.54678 0.0
H866 H 0.08897 0.02804 0.51679 0.0
H867 H 0.09986 0.00221 0.54417 0.0
H868 H 0.1323 0.06959 0.49848 0.0
H869 H 0.049 0.08262 0.52712 0.0
H870 H 0.07035 0.07347 0.54452 0.0
H871 H 0.05732 0.05497 0.52664 0.0
C872 C 0.12778 0.04583 0.56208 0.0
C873 C 0.12011 0.0246 0.56154 0.0
C874 C 0.12161 0.06057 0.54626 0.0
C875 C 0.10744 0.05431 0.52995 0.0
C876 C 0.09975 0.03317 0.52943 0.0
H877 H 0.06576 0.07187 0.40731 0.0
H878 H 0.08755 0.06655 0.43933 0.0
C879 C 0.10605 0.01844 0.54504 0.0
C880 C 0.10089 0.0694 0.51289 0.0
H881 H 0.05601 0.09085 0.49019 0.0
C882 C 0.11575 0.07473 0.49685 0.0
C883 C 0.0794 0.07632 0.51104 0.0
C884 C 0.06309 0.07175 0.52833 0.0
C885 C 0.10918 0.08534 0.47808 0.0
C886 C 0.08727 0.09052 0.47537 0.0
C887 C 0.07282 0.08678 0.49224 0.0
C888 C 0.0783 0.09655 0.45423 0.0
C889 C 0.12552 0.09029 0.46096 0.0
C890 C 0.06608 0.11534 0.4518 0.0
C891 C 0.05387 0.11855 0.43323 0.0
C892 C 0.05376 0.10303 0.41691 0.0
C893 C 0.06645 0.08457 0.41915 0.0
C894 C 0.07882 0.08148 0.43752 0.0
H895 H 0.14203 0.0909 0.46764 0.0
H896 H 0.12507 0.07755 0.44853 0.0
H897 H 0.12185 0.10589 0.45315 0.0
H898 H 0.06517 0.12695 0.4647 0.0
H899 H 0.04374 0.13264 0.43204 0.0
H900 H 0.93247 0.41383 0.40788 0.0
H901 H 0.91074 0.41282 0.44045 0.0
H902 H 0.93377 0.34889 0.45405 0.0
H903 H 0.95586 0.35006 0.42125 0.0
H904 H 0.87845 0.38474 0.45579 0.0
H905 H 0.95203 0.38364 0.50686 0.0
H906 H 0.95345 0.38916 0.47849 0.0
H907 H 0.94828 0.36237 0.48773 0.0
C908 C 0.93246 0.39938 0.41756 0.0
C909 C 0.94531 0.38182 0.41193 0.0
C910 C 0.92012 0.39881 0.43617 0.0
C911 C 0.92068 0.3808 0.44969 0.0
C912 C 0.93322 0.36299 0.44389 0.0
H913 H 0.87418 0.41604 0.57876 0.0
H914 H 0.88262 0.38937 0.55077 0.0
C915 C 0.94572 0.36362 0.42521 0.0
C916 C 0.90955 0.38208 0.47063 0.0
H917 H 0.91993 0.39406 0.52303 0.0
C918 C 0.88739 0.38609 0.47065 0.0
C919 C 0.9212 0.38366 0.49007 0.0
C920 C 0.94507 0.37958 0.49097 0.0
C921 C 0.877 0.39367 0.48909 0.0
C922 C 0.88913 0.39747 0.50785 0.0
C923 C 0.91073 0.39117 0.50854 0.0
C924 C 0.88136 0.41226 0.52467 0.0
C925 C 0.85344 0.39908 0.48793 0.0
C926 C 0.87803 0.43383 0.5192 0.0
C927 C 0.87369 0.44897 0.53501 0.0
C928 C 0.87243 0.44286 0.55665 0.0
C929 C 0.87502 0.42112 0.56216 0.0
C930 C 0.87977 0.40591 0.54624 0.0
H931 H 0.8451 0.38883 0.47596 0.0
H932 H 0.84557 0.39709 0.5038 0.0
H933 H 0.85158 0.41604 0.48281 0.0
H934 H 0.87965 0.43913 0.50272 0.0
H935 H 0.87163 0.46558 0.53028 0.0
H936 H 0.04919 0.92197 0.09003 0.0
H937 H 0.07207 0.92313 0.05834 0.0
H938 H 0.0538 0.85821 0.04253 0.0
H939 H 0.0306 0.85709 0.07461 0.0
H940 H 0.10678 0.89699 0.04403 0.0
H941 H 0.03564 0.89384 0.9897 0.0
H942 H 0.03273 0.89873 0.01808 0.0
H943 H 0.03957 0.87239 0.00864 0.0
C944 C 0.05049 0.90775 0.08009 0.0
C945 C 0.03869 0.88924 0.08494 0.0
C946 C 0.06349 0.90844 0.06197 0.0
C947 C 0.06462 0.89077 0.04809 0.0
C948 C 0.05306 0.87204 0.05302 0.0
H949 H 0.11676 0.92857 0.9218 0.0
H950 H 0.10644 0.90233 0.94949 0.0
C951 C 0.03992 0.87138 0.07128 0.0
C952 C 0.07655 0.89328 0.02772 0.0
H953 H 0.06788 0.90633 0.97525 0.0
C954 C 0.09845 0.89838 0.02882 0.0
C955 C 0.06566 0.89497 0.00786 0.0
C956 C 0.04209 0.8898 0.00582 0.0
C957 C 0.10927 0.90697 0.01107 0.0
C958 C 0.09781 0.91068 0.99187 0.0
C959 C 0.07655 0.90352 0.99008 0.0
C960 C 0.10603 0.92553 0.9753 0.0
C961 C 0.13249 0.91332 0.01342 0.0
C962 C 0.10896 0.94718 0.98069 0.0
C963 C 0.11447 0.96212 0.96501 0.0
C964 C 0.11726 0.9557 0.94359 0.0
C965 C 0.11476 0.93392 0.93821 0.0
C966 C 0.10893 0.91894 0.95396 0.0
H967 H 0.14068 0.90333 0.02573 0.0
H968 H 0.1412 0.91178 0.99795 0.0
H969 H 0.1334 0.93031 0.0187 0.0
H970 H 0.10633 0.95267 0.99698 0.0
H971 H 0.11635 0.97877 0.96967 0.0
H972 H 0.94083 0.58581 0.09648 0.0
H973 H 0.92076 0.58642 0.06286 0.0
H974 H 0.94337 0.65066 0.05026 0.0
H975 H 0.9635 0.65009 0.08435 0.0
H976 H 0.8885 0.61654 0.04652 0.0
H977 H 0.9639 0.61345 0.99825 0.0
H978 H 0.96397 0.60722 0.02653 0.0
H979 H 0.96044 0.63443 0.01783 0.0
C980 C 0.94102 0.60027 0.08682 0.0
C981 C 0.95308 0.61815 0.09318 0.0
C982 C 0.92967 0.60059 0.06759 0.0
C983 C 0.93057 0.6186 0.05413 0.0
C984 C 0.94251 0.63663 0.06047 0.0
H985 H 0.88591 0.58359 0.92415 0.0
H986 H 0.89636 0.60968 0.95199 0.0
C987 C 0.9539 0.63631 0.07985 0.0
C988 C 0.92021 0.61723 0.03284 0.0
H989 H 0.93204 0.60317 0.98126 0.0
C990 C 0.89791 0.61432 0.03207 0.0
C991 C 0.93252 0.6145 0.01396 0.0
C992 C 0.95655 0.61748 0.01398 0.0
C993 C 0.88786 0.60682 0.01342 0.0
C994 C 0.9005 0.60186 0.99526 0.0
C995 C 0.92243 0.60693 0.99528 0.0
C996 C 0.89241 0.58737 0.97832 0.0
C997 C 0.864 0.60283 0.01378 0.0
C998 C 0.88701 0.56627 0.98396 0.0
C999 C 0.88142 0.55144 0.96826 0.0
C1000 C 0.88104 0.55737 0.94652 0.0
C1001 C 0.88603 0.57864 0.94081 0.0
C1002 C 0.89194 0.59352 0.95664 0.0
H1003 H 0.85581 0.6139 0.02512 0.0
H1004 H 0.85687 0.6048 0.99756 0.0
H1005 H 0.86094 0.58616 0.01929 0.0
H1006 H 0.88773 0.56108 0.00054 0.0
H1007 H 0.87758 0.53521 0.97319 0.0
H1008 H 0.43211 0.04276 0.133 0.0
H1009 H 0.46426 0.06526 0.12871 0.0
H1010 H 0.44013 0.08784 0.06788 0.0
H1011 H 0.4086 0.06507 0.07188 0.0
H1012 H 0.49114 0.05731 0.09395 0.0
H1013 H 0.46642 0.14269 0.09291 0.0
H1014 H 0.45197 0.12216 0.10747 0.0
H1015 H 0.44805 0.12536 0.07902 0.0
C1016 C 0.43344 0.05316 0.11913 0.0
C1017 C 0.41763 0.05282 0.10309 0.0
C1018 C 0.45171 0.06599 0.11671 0.0
C1019 C 0.45437 0.07859 0.0982 0.0
C1020 C 0.43811 0.07885 0.08262 0.0
H1021 H 0.54291 0.10057 0.00466 0.0
H1022 H 0.51615 0.08999 0.03116 0.0
C1023 C 0.42004 0.06589 0.08494 0.0
C1024 C 0.47546 0.08814 0.09291 0.0
H1025 H 0.4977 0.13354 0.07181 0.0
C1026 C 0.49281 0.07413 0.08976 0.0
C1027 C 0.47771 0.11009 0.0876 0.0
C1028 C 0.46011 0.12603 0.0921 0.0
C1029 C 0.51161 0.0811 0.07956 0.0
C1030 C 0.51295 0.10252 0.07228 0.0
C1031 C 0.49646 0.11703 0.0772 0.0
C1032 C 0.52964 0.10908 0.05681 0.0
C1033 C 0.52938 0.06519 0.07542 0.0
C1034 C 0.54594 0.12351 0.06249 0.0
C1035 C 0.56144 0.12952 0.04735 0.0
C1036 C 0.56056 0.1214 0.02629 0.0
C1037 C 0.54404 0.10712 0.02072 0.0
C1038 C 0.52878 0.10099 0.03585 0.0
H1039 H 0.52851 0.05132 0.0866 0.0
H1040 H 0.52793 0.059 0.05879 0.0
H1041 H 0.54534 0.07296 0.07704 0.0
H1042 H 0.54671 0.12998 0.07861 0.0
H1043 H 0.57396 0.14063 0.05204 0.0
H1044 H 0.56101 0.46629 0.1281 0.0
H1045 H 0.53039 0.44207 0.12202 0.0
H1046 H 0.55544 0.42653 0.05938 0.0
H1047 H 0.58532 0.45104 0.06514 0.0
H1048 H 0.502 0.44964 0.08791 0.0
H1049 H 0.53558 0.36768 0.08125 0.0
H1050 H 0.5481 0.38875 0.09677 0.0
H1051 H 0.55177 0.38757 0.06809 0.0
C1052 C 0.56021 0.45712 0.11336 0.0
C1053 C 0.57587 0.45983 0.09738 0.0
C1054 C 0.54281 0.44333 0.10992 0.0
C1055 C 0.54092 0.43212 0.09046 0.0
C1056 C 0.55693 0.43442 0.0748 0.0
H1057 H 0.46161 0.39131 0.99449 0.0
H1058 H 0.48856 0.40225 0.02072 0.0
C1059 C 0.57409 0.44834 0.07813 0.0
C1060 C 0.52084 0.42082 0.08473 0.0
H1061 H 0.5034 0.37478 0.06079 0.0
C1062 C 0.50203 0.43305 0.08264 0.0
C1063 C 0.52091 0.39918 0.07794 0.0
C1064 C 0.54013 0.38493 0.08131 0.0
C1065 C 0.48394 0.42474 0.07213 0.0
C1066 C 0.4848 0.40376 0.06361 0.0
C1067 C 0.50294 0.39096 0.06721 0.0
C1068 C 0.46845 0.39611 0.04833 0.0
C1069 C 0.46463 0.43893 0.06867 0.0
C1070 C 0.44832 0.38891 0.05531 0.0
C1071 C 0.43285 0.38255 0.04033 0.0
C1072 C 0.43733 0.38347 0.01821 0.0
C1073 C 0.45763 0.39049 0.01139 0.0
C1074 C 0.47307 0.39668 0.02633 0.0
H1075 H 0.46649 0.45491 0.07636 0.0
H1076 H 0.46193 0.44126 0.05121 0.0
H1077 H 0.45012 0.43104 0.07535 0.0
H1078 H 0.44457 0.38837 0.07228 0.0
H1079 H 0.41733 0.3772 0.04604 0.0
H1080 H 0.54074 0.89765 0.47947 0.0
H1081 H 0.51404 0.90828 0.453 0.0
H1082 H 0.55104 0.87816 0.4029 0.0
H1083 H 0.57822 0.86734 0.42951 0.0
H1084 H 0.52643 0.93252 0.4085 0.0
H1085 H 0.48287 0.85449 0.40596 0.0
H1086 H 0.4967 0.86209 0.43023 0.0
H1087 H 0.51184 0.85582 0.4066 0.0
C1088 C 0.54332 0.89327 0.46285 0.0
C1089 C 0.56159 0.88164 0.45657 0.0
C1090 C 0.52805 0.89939 0.44775 0.0
C1091 C 0.53065 0.89395 0.42611 0.0
C1092 C 0.54886 0.88244 0.4196 0.0
H1093 H 0.42618 0.95919 0.35577 0.0
H1094 H 0.46035 0.93931 0.35765 0.0
C1095 C 0.56431 0.87633 0.43478 0.0
C1096 C 0.51383 0.90051 0.41084 0.0
H1097 H 0.46375 0.88541 0.39495 0.0
C1098 C 0.51298 0.92214 0.40474 0.0
C1099 C 0.49642 0.88681 0.40618 0.0
C1100 C 0.49684 0.86344 0.41246 0.0
C1101 C 0.49428 0.93093 0.3958 0.0
C1102 C 0.47614 0.91759 0.39281 0.0
C1103 C 0.47772 0.89554 0.39718 0.0
C1104 C 0.45457 0.92692 0.3896 0.0
C1105 C 0.49339 0.95478 0.39158 0.0
C1106 C 0.43989 0.92599 0.40664 0.0
C1107 C 0.42057 0.93715 0.40553 0.0
C1108 C 0.41539 0.94906 0.38719 0.0
C1109 C 0.42981 0.94973 0.3699 0.0
C1110 C 0.44924 0.93847 0.37098 0.0
H1111 H 0.50829 0.96313 0.39671 0.0
H1112 H 0.49113 0.95765 0.37416 0.0
H1113 H 0.47957 0.96207 0.40016 0.0
H1114 H 0.44381 0.91739 0.42124 0.0
H1115 H 0.40997 0.93703 0.41932 0.0
H1116 H 0.46385 0.60884 0.48307 0.0
H1117 H 0.49113 0.59799 0.45728 0.0
H1118 H 0.44437 0.6001 0.40632 0.0
H1119 H 0.4167 0.6113 0.43225 0.0
H1120 H 0.47007 0.56027 0.41098 0.0
H1121 H 0.5202 0.63347 0.40815 0.0
H1122 H 0.51247 0.6262 0.43495 0.0
H1123 H 0.49221 0.6339 0.41586 0.0
C1124 C 0.45933 0.60718 0.46637 0.0
C1125 C 0.43814 0.61086 0.45967 0.0
C1126 C 0.47499 0.60115 0.45163 0.0
C1127 C 0.4698 0.59859 0.4299 0.0
C1128 C 0.44867 0.60227 0.42302 0.0
H1129 H 0.56897 0.52523 0.35911 0.0
H1130 H 0.53634 0.54746 0.36193 0.0
C1131 C 0.43294 0.60861 0.43781 0.0
C1132 C 0.48643 0.59038 0.41516 0.0
H1133 H 0.53845 0.59981 0.40142 0.0
C1134 C 0.48483 0.56906 0.40813 0.0
C1135 C 0.50553 0.60199 0.41147 0.0
C1136 C 0.50767 0.62524 0.41782 0.0
C1137 C 0.50269 0.55832 0.39955 0.0
C1138 C 0.52243 0.56942 0.39772 0.0
C1139 C 0.52335 0.59132 0.40288 0.0
C1140 C 0.54287 0.55782 0.39444 0.0
C1141 C 0.50086 0.53473 0.39437 0.0
C1142 C 0.55746 0.55676 0.41154 0.0
C1143 C 0.57594 0.54432 0.40988 0.0
C1144 C 0.58037 0.53305 0.39095 0.0
C1145 C 0.56594 0.53417 0.37371 0.0
C1146 C 0.54736 0.54673 0.37534 0.0
H1147 H 0.48497 0.52802 0.3989 0.0
H1148 H 0.50316 0.53231 0.37689 0.0
H1149 H 0.51354 0.52552 0.40287 0.0
H1150 H 0.55419 0.56503 0.42649 0.0
H1151 H 0.58654 0.54308 0.42361 0.0
H1152 H 0.1378 0.43429 0.04625 0.0
H1153 H 0.13411 0.46651 0.06878 0.0
H1154 H 0.07347 0.44282 0.09234 0.0
H1155 H 0.0769 0.41124 0.0696 0.0
H1156 H 0.09991 0.49364 0.06127 0.0
H1157 H 0.09871 0.46924 0.14664 0.0
H1158 H 0.11274 0.45428 0.12611 0.0
H1159 H 0.08425 0.451 0.12967 0.0
C1160 C 0.12412 0.43572 0.05688 0.0
C1161 C 0.10797 0.42002 0.05681 0.0
C1162 C 0.12204 0.45403 0.06974 0.0
C1163 C 0.10375 0.45684 0.08262 0.0
C1164 C 0.08808 0.44068 0.08315 0.0
H1165 H 0.01007 0.54475 0.10441 0.0
H1166 H 0.03672 0.51792 0.09433 0.0
C1167 C 0.09006 0.42257 0.07019 0.0
C1168 C 0.09867 0.47802 0.09212 0.0
H1169 H 0.07733 0.50044 0.13732 0.0
C1170 C 0.09566 0.49537 0.07806 0.0
C1171 C 0.09325 0.48036 0.11403 0.0
C1172 C 0.09759 0.46278 0.13006 0.0
C1173 C 0.08545 0.5142 0.08492 0.0
C1174 C 0.07804 0.51561 0.10628 0.0
C1175 C 0.08284 0.49915 0.12086 0.0
C1176 C 0.06246 0.53228 0.11263 0.0
C1177 C 0.08135 0.53193 0.06894 0.0
C1178 C 0.06817 0.54911 0.12642 0.0
C1179 C 0.05294 0.56466 0.13213 0.0
C1180 C 0.03179 0.56331 0.12433 0.0
C1181 C 0.0262 0.54625 0.1107 0.0
C1182 C 0.04141 0.53093 0.10487 0.0
H1183 H 0.09239 0.53087 0.05498 0.0
H1184 H 0.06464 0.53062 0.06293 0.0
H1185 H 0.0832 0.54791 0.07661 0.0
H1186 H 0.08437 0.55027 0.13262 0.0
H1187 H 0.05766 0.57759 0.14274 0.0
H1188 H -0.00054 0.46332 0.38701 0.0
H1189 H 0.02449 0.49144 0.39759 0.0
H1190 H 0.07753 0.44768 0.38961 0.0
H1191 H 0.05242 0.41924 0.37877 0.0
H1192 H 0.07518 0.46989 0.43033 0.0
H1193 H 0.06888 0.52593 0.36174 0.0
H1194 H 0.04322 0.51678 0.37113 0.0
H1195 H 0.06183 0.49784 0.35976 0.0
C1196 C 0.01646 0.45968 0.38729 0.0
C1197 C 0.02399 0.43907 0.38211 0.0
C1198 C 0.03076 0.47583 0.39316 0.0
C1199 C 0.05286 0.47171 0.39401 0.0
C1200 C 0.06053 0.45119 0.38876 0.0
H1201 H 0.13067 0.56512 0.46767 0.0
H1202 H 0.12488 0.53465 0.44311 0.0
C1203 C 0.04619 0.43501 0.38263 0.0
C1204 C 0.06737 0.48851 0.40233 0.0
H1205 H 0.0793 0.54148 0.39571 0.0
C1206 C 0.07671 0.4854 0.42256 0.0
C1207 C 0.06933 0.50862 0.39204 0.0
C1208 C 0.06046 0.51247 0.36986 0.0
C1209 C 0.08619 0.50253 0.4337 0.0
C1210 C 0.08667 0.5231 0.42406 0.0
C1211 C 0.07889 0.52571 0.40308 0.0
C1212 C 0.09165 0.54258 0.43668 0.0
C1213 C 0.09396 0.49887 0.45635 0.0
C1214 C 0.07515 0.55738 0.44059 0.0
C1215 C 0.0785 0.57469 0.45429 0.0
C1216 C 0.09853 0.57774 0.46403 0.0
C1217 C 0.11521 0.56317 0.45997 0.0
C1218 C 0.11189 0.5458 0.44609 0.0
H1219 H 0.08968 0.48266 0.46244 0.0
H1220 H 0.11169 0.50044 0.45684 0.0
H1221 H 0.08706 0.51107 0.46736 0.0
H1222 H 0.05937 0.55509 0.43365 0.0
H1223 H 0.06523 0.58538 0.45777 0.0
H1224 H 0.93006 0.90649 0.46693 0.0
H1225 H 0.93472 0.93763 0.44368 0.0
H1226 H 0.86903 0.95632 0.45522 0.0
H1227 H 0.86435 0.92479 0.47873 0.0
H1228 H 0.91223 0.95168 0.40624 0.0
H1229 H 0.90509 0.00843 0.47515 0.0
H1230 H 0.90878 0.97998 0.47921 0.0
H1231 H 0.88336 0.99006 0.4702 0.0
C1232 C 0.91646 0.91695 0.46406 0.0
C1233 C 0.89669 0.91305 0.47402 0.0
C1234 C 0.91915 0.93477 0.45088 0.0
C1235 C 0.90223 0.94927 0.44776 0.0
C1236 C 0.88229 0.94533 0.45752 0.0
H1237 H 0.94189 0.07362 0.3922 0.0
H1238 H 0.91635 0.0458 0.40367 0.0
C1239 C 0.87961 0.92739 0.47082 0.0
C1240 C 0.90653 0.96913 0.43551 0.0
H1241 H 0.91942 0.02182 0.44315 0.0
C1242 C 0.91324 0.96716 0.41411 0.0
C1243 C 0.90778 0.98933 0.44582 0.0
C1244 C 0.90099 0.99224 0.46888 0.0
C1245 C 0.92262 0.98446 0.40324 0.0
C1246 C 0.92558 0.0041 0.41417 0.0
C1247 C 0.91717 0.00666 0.4349 0.0
C1248 C 0.94029 0.02074 0.40586 0.0
C1249 C 0.93033 0.98125 0.38052 0.0
C1250 C 0.96214 0.01585 0.40363 0.0
C1251 C 0.97669 0.03163 0.39738 0.0
C1252 C 0.96967 0.05264 0.3932 0.0
C1253 C 0.94772 0.05753 0.39526 0.0
C1254 C 0.93314 0.0417 0.40175 0.0
H1255 H 0.92101 0.96849 0.37228 0.0
H1256 H 0.9291 0.99634 0.3711 0.0
H1257 H 0.94741 0.9762 0.3808 0.0
H1258 H 0.96803 -0.00012 0.40719 0.0
H1259 H 0.99347 0.02734 0.39592 0.0
H1260 H 0.35443 0.57267 0.53089 0.0
H1261 H 0.35573 0.53853 0.5507 0.0
H1262 H 0.41792 0.55568 0.57576 0.0
H1263 H 0.41691 0.58919 0.55555 0.0
H1264 H 0.38865 0.50946 0.54113 0.0
H1265 H 0.38895 0.52754 0.62806 0.0
H1266 H 0.37636 0.54473 0.60834 0.0
H1267 H 0.40491 0.54598 0.61268 0.0
C1268 C 0.36799 0.56935 0.54126 0.0
C1269 C 0.38526 0.58378 0.54237 0.0
C1270 C 0.3687 0.54995 0.55255 0.0
C1271 C 0.3867 0.54479 0.56507 0.0
C1272 C 0.40356 0.55962 0.56679 0.0
H1273 H 0.47447 0.45096 0.58148 0.0
H1274 H 0.4483 0.47799 0.57077 0.0
C1275 C 0.40296 0.57882 0.55531 0.0
C1276 C 0.39003 0.52269 0.57307 0.0
H1277 H 0.4085 0.49578 0.617 0.0
C1278 C 0.39231 0.50624 0.55784 0.0
C1279 C 0.39454 0.51841 0.59487 0.0
C1280 C 0.39087 0.53505 0.612 0.0
C1281 C 0.40111 0.48634 0.56354 0.0
C1282 C 0.40787 0.48295 0.58491 0.0
C1283 C 0.40354 0.49855 0.60055 0.0
C1284 C 0.42264 0.46526 0.5904 0.0
C1285 C 0.40439 0.46956 0.54641 0.0
C1286 C 0.41684 0.4492 0.60509 0.0
C1287 C 0.4318 0.43353 0.61116 0.0
C1288 C 0.45282 0.4341 0.60293 0.0
C1289 C 0.45841 0.45012 0.58811 0.0
C1290 C 0.44345 0.4655 0.58187 0.0
H1291 H 0.39289 0.47171 0.53295 0.0
H1292 H 0.42088 0.47106 0.53984 0.0
H1293 H 0.40252 0.45313 0.55308 0.0
H1294 H 0.40088 0.44894 0.61197 0.0
H1295 H 0.42713 0.42141 0.62271 0.0
H1296 H 0.60927 0.57623 0.06904 0.0
H1297 H 0.59851 0.60273 0.04172 0.0
H1298 H 0.56237 0.55383 0.00872 0.0
H1299 H 0.57324 0.5274 0.03548 0.0
H1300 H 0.60662 0.59478 0.99363 0.0
H1301 H 0.52151 0.6086 0.01554 0.0
H1302 H 0.54159 0.60031 0.03481 0.0
H1303 H 0.52975 0.58097 0.01699 0.0
C1304 C 0.59879 0.57128 0.0561 0.0
C1305 C 0.5921 0.54979 0.05431 0.0
C1306 C 0.59271 0.58638 0.04055 0.0
C1307 C 0.57951 0.58019 0.02341 0.0
C1308 C 0.57237 0.55891 0.02201 0.0
H1309 H 0.54659 0.58411 0.89983 0.0
H1310 H 0.56605 0.58385 0.93374 0.0
C1311 C 0.57867 0.54383 0.03724 0.0
C1312 C 0.57426 0.59511 0.00578 0.0
H1313 H 0.53082 0.61368 0.97829 0.0
C1314 C 0.59018 0.5996 0.99052 0.0
C1315 C 0.55289 0.60155 0.00192 0.0
C1316 C 0.53544 0.59781 0.01827 0.0
C1317 C 0.58481 0.60843 0.97051 0.0
C1318 C 0.56305 0.61268 0.96577 0.0
C1319 C 0.54751 0.61028 0.9819 0.0
C1320 C 0.5555 0.61551 0.94346 0.0
C1321 C 0.60221 0.61197 0.95411 0.0
C1322 C 0.54334 0.63352 0.93752 0.0
C1323 C 0.53259 0.63386 0.9178 0.0
C1324 C 0.53383 0.61617 0.90389 0.0
C1325 C 0.54634 0.5984 0.90972 0.0
C1326 C 0.55734 0.5982 0.92918 0.0
H1327 H 0.61807 0.61439 0.96189 0.0
H1328 H 0.60339 0.5976 0.94366 0.0
H1329 H 0.59852 0.6261 0.9439 0.0
H1330 H 0.54138 0.64683 0.94853 0.0
H1331 H 0.52253 0.64748 0.91383 0.0
H1332 H 0.39687 0.99211 0.02643 0.0
H1333 H 0.40756 0.9668 0.99861 0.0
H1334 H 0.40489 0.91486 0.0443 0.0
H1335 H 0.39401 0.94026 0.07247 0.0
H1336 H 0.44387 0.91798 0.01933 0.0
H1337 H 0.3716 0.91998 0.96792 0.0
H1338 H 0.3804 0.94632 0.97559 0.0
H1339 H 0.37118 0.92789 0.99584 0.0
C1340 C 0.39841 0.9753 0.0306 0.0
C1341 C 0.39462 0.96817 0.05164 0.0
C1342 C 0.40433 0.96082 0.01462 0.0
C1343 C 0.40661 0.93893 0.01934 0.0
C1344 C 0.40294 0.93168 0.04034 0.0
H1345 H 0.47664 0.86295 0.92133 0.0
H1346 H 0.45399 0.86766 0.95347 0.0
C1347 C 0.39678 0.94619 0.05637 0.0
C1348 C 0.41445 0.92427 0.00242 0.0
H1349 H 0.40503 0.91105 0.95023 0.0
C1350 C 0.4352 0.9158 0.0044 0.0
C1351 C 0.40297 0.92141 0.98309 0.0
C1352 C 0.3802 0.9292 0.98053 0.0
C1353 C 0.44562 0.90641 0.98676 0.0
C1354 C 0.43476 0.90523 0.96685 0.0
C1355 C 0.41333 0.91201 0.96548 0.0
C1356 C 0.44644 0.90091 0.94666 0.0
C1357 C 0.46873 0.89953 0.98903 0.0
C1358 C 0.44922 0.91783 0.9321 0.0
C1359 C 0.4619 0.91512 0.91393 0.0
C1360 C 0.4717 0.89532 0.90975 0.0
C1361 C 0.46884 0.87823 0.92415 0.0
C1362 C 0.45604 0.88093 0.94244 0.0
H1363 H 0.47545 0.9036 0.00503 0.0
H1364 H 0.46992 0.8819 0.9868 0.0
H1365 H 0.47875 0.9073 0.9765 0.0
H1366 H 0.44214 0.93343 0.93517 0.0
H1367 H 0.46452 0.92873 0.90341 0.0
H1368 H 0.54659 0.41707 0.58505 0.0
H1369 H 0.56961 0.4181 0.5534 0.0
H1370 H 0.55335 0.35228 0.5392 0.0
H1371 H 0.53014 0.35125 0.57127 0.0
H1372 H 0.60532 0.39162 0.53992 0.0
H1373 H 0.53433 0.38697 0.4855 0.0
H1374 H 0.53127 0.39275 0.51371 0.0
H1375 H 0.53833 0.36618 0.50517 0.0
C1376 C 0.54841 0.40265 0.5755 0.0
C1377 C 0.53721 0.38389 0.58081 0.0
C1378 C 0.56146 0.40326 0.5574 0.0
C1379 C 0.56319 0.38526 0.544 0.0
C1380 C 0.55218 0.36634 0.54935 0.0
H1381 H 0.61366 0.42364 0.41739 0.0
H1382 H 0.60422 0.39693 0.44497 0.0
C1383 C 0.53904 0.36573 0.5676 0.0
C1384 C 0.57513 0.38756 0.52363 0.0
H1385 H 0.56637 0.40003 0.47105 0.0
C1386 C 0.597 0.39279 0.52469 0.0
C1387 C 0.56426 0.38892 0.50375 0.0
C1388 C 0.54074 0.38349 0.50177 0.0
C1389 C 0.60777 0.40124 0.50685 0.0
C1390 C 0.59628 0.40475 0.48763 0.0
C1391 C 0.57508 0.39739 0.48589 0.0
C1392 C 0.60426 0.41978 0.4711 0.0
C1393 C 0.63097 0.40768 0.50914 0.0
C1394 C 0.60718 0.44137 0.47671 0.0
C1395 C 0.6122 0.45655 0.46111 0.0
C1396 C 0.61446 0.45046 0.43954 0.0
C1397 C 0.61206 0.42873 0.43393 0.0
C1398 C 0.60673 0.41349 0.44961 0.0
H1399 H 0.63928 0.39754 0.52124 0.0
H1400 H 0.63961 0.40643 0.4936 0.0
H1401 H 0.63182 0.42458 0.51471 0.0
H1402 H 0.60486 0.44665 0.49312 0.0
H1403 H 0.61402 0.47316 0.46595 0.0
H1404 H 0.45647 0.06916 0.58296 0.0
H1405 H 0.43213 0.06437 0.55272 0.0
H1406 H 0.44201 0.13035 0.53404 0.0
H1407 H 0.46669 0.13515 0.56462 0.0
H1408 H 0.3939 0.08614 0.54043 0.0
H1409 H 0.46014 0.09527 0.48082 0.0
H1410 H 0.46552 0.09152 0.50902 0.0
H1411 H 0.45545 0.11677 0.49951 0.0
C1412 C 0.45305 0.08278 0.57268 0.0
C1413 C 0.46288 0.10266 0.57632 0.0
C1414 C 0.43923 0.08002 0.55539 0.0
C1415 C 0.43529 0.09699 0.54114 0.0
C1416 C 0.44495 0.11704 0.54482 0.0
H1417 H 0.37743 0.05525 0.41882 0.0
H1418 H 0.3878 0.0816 0.44629 0.0
C1419 C 0.45892 0.11979 0.56223 0.0
C1420 C 0.42228 0.09264 0.52179 0.0
H1421 H 0.42802 0.08014 0.46879 0.0
C1422 C 0.40114 0.08541 0.52463 0.0
C1423 C 0.43173 0.09176 0.50116 0.0
C1424 C 0.45448 0.09913 0.49728 0.0
C1425 C 0.38981 0.07578 0.50778 0.0
C1426 C 0.39999 0.07315 0.4877 0.0
C1427 C 0.42033 0.08215 0.48428 0.0
C1428 C 0.39158 0.05801 0.4715 0.0
C1429 C 0.36748 0.06742 0.51193 0.0
C1430 C 0.39044 0.03612 0.47661 0.0
C1431 C 0.38482 0.02112 0.46102 0.0
C1432 C 0.38019 0.02773 0.43998 0.0
C1433 C 0.38085 0.04973 0.43494 0.0
C1434 C 0.38673 0.06477 0.45057 0.0
H1435 H 0.35947 0.07661 0.52495 0.0
H1436 H 0.35745 0.06824 0.49723 0.0
H1437 H 0.36848 0.0504 0.5171 0.0
H1438 H 0.39457 0.03053 0.49255 0.0
H1439 H 0.38442 0.0043 0.46541 0.0
H1440 H 0.0273 0.60594 0.5306 0.0
H1441 H 0.00102 0.5933 0.55657 0.0
H1442 H 0.05145 0.58146 0.60247 0.0
H1443 H 0.07816 0.59455 0.57635 0.0
H1444 H 0.02216 0.54553 0.59258 0.0
H1445 H 0.97838 0.6197 0.61383 0.0
H1446 H 0.98375 0.61791 0.58558 0.0
H1447 H 0.00578 0.61986 0.60418 0.0
C1448 C 0.03284 0.6009 0.5463 0.0
C1449 C 0.05476 0.60111 0.55146 0.0
C1450 C 0.01778 0.59387 0.56119 0.0
C1451 C 0.02429 0.58677 0.58151 0.0
C1452 C 0.04615 0.58717 0.58693 0.0
H1453 H 0.91898 0.5117 0.64093 0.0
H1454 H 0.95322 0.53153 0.64229 0.0
C1455 C 0.06132 0.59459 0.57204 0.0
C1456 C 0.00807 0.57693 0.5957 0.0
H1457 H 0.95738 0.58668 0.61362 0.0
C1458 C 0.00828 0.55453 0.59802 0.0
C1459 C 0.99009 0.58877 0.60281 0.0
C1460 C 0.98955 0.61294 0.60168 0.0
C1461 C 0.9899 0.54349 0.60493 0.0
C1462 C 0.97112 0.55527 0.60972 0.0
C1463 C 0.97174 0.57774 0.60966 0.0
C1464 C 0.94998 0.54467 0.61032 0.0
C1465 C 0.98992 0.51928 0.60504 0.0
C1466 C 0.93698 0.54571 0.59199 0.0
C1467 C 0.91769 0.53445 0.59119 0.0
C1468 C 0.91085 0.52244 0.6089 0.0
C1469 C 0.92382 0.52135 0.6273 0.0
C1470 C 0.94326 0.53259 0.62809 0.0
H1471 H 0.00599 0.51252 0.60127 0.0
H1472 H 0.98483 0.51332 0.62104 0.0
H1473 H 0.97822 0.51322 0.59305 0.0
H1474 H 0.94208 0.55476 0.57803 0.0
H1475 H 0.90834 0.53476 0.57654 0.0
H1476 H 0.92794 0.87106 0.58591 0.0
H1477 H 0.95516 0.8816 0.61258 0.0
H1478 H 0.98549 0.92213 0.56535 0.0
H1479 H 0.9588 0.91163 0.53886 0.0
H1480 H 0.00118 0.87525 0.60616 0.0
H1481 H 0.981 0.96051 0.61979 0.0
H1482 H 0.96164 0.94117 0.61012 0.0
H1483 H 0.98022 0.95364 0.59182 0.0
C1484 C 0.94025 0.88246 0.58141 0.0
C1485 C 0.94133 0.8905 0.56034 0.0
C1486 C 0.95574 0.88844 0.5966 0.0
C1487 C 0.97208 0.90288 0.59097 0.0
C1488 C 0.97275 0.91129 0.57012 0.0
H1489 H 0.09603 0.93067 0.58979 0.0
H1490 H 0.06164 0.91225 0.59232 0.0
C1491 C 0.95758 0.90513 0.55495 0.0
C1492 C 0.98988 0.90795 0.60577 0.0
H1493 H 0.01892 0.95115 0.62239 0.0
C1494 C 0.00481 0.89174 0.61043 0.0
C1495 C 0.9944 0.92935 0.61171 0.0
C1496 C 0.97833 0.94714 0.6083 0.0
C1497 C 0.02517 0.89683 0.61857 0.0
C1498 C 0.03066 0.91859 0.62183 0.0
C1499 C 0.01482 0.93446 0.61961 0.0
C1500 C 0.05328 0.92566 0.62328 0.0
C1501 C 0.04108 0.87906 0.62247 0.0
C1502 C 0.06016 0.93919 0.63993 0.0
C1503 C 0.08008 0.94949 0.63861 0.0
C1504 C 0.09331 0.94636 0.62064 0.0
C1505 C 0.08661 0.93246 0.60429 0.0
C1506 C 0.06691 0.922 0.60571 0.0
H1507 H 0.03284 0.86364 0.62597 0.0
H1508 H 0.05102 0.87676 0.60788 0.0
H1509 H 0.05183 0.88311 0.63609 0.0
H1510 H 0.04969 0.94257 0.6534 0.0
H1511 H 0.08475 0.9606 0.65114 0.0
H1512 H 0.07209 0.39598 0.94532 0.0
H1513 H 0.04306 0.40731 0.92111 0.0
H1514 H 0.00093 0.41548 0.97538 0.0
H1515 H 0.02964 0.40438 -0.00041 0.0
H1516 H 0.98588 0.38915 0.93485 0.0
H1517 H 0.01655 0.47223 0.92143 0.0
H1518 H 0.03457 0.44956 0.92041 0.0
H1519 H 0.02329 0.45767 0.94558 0.0
C1520 C 0.05663 0.40021 0.95206 0.0
C1521 C 0.05315 0.39938 0.97435 0.0
C1522 C 0.04013 0.40664 0.93823 0.0
C1523 C 0.01997 0.41218 0.94655 0.0
C1524 C 0.01643 0.4112 0.96872 0.0
H1525 H 0.89778 0.45971 0.93275 0.0
H1526 H 0.92933 0.4372 0.93827 0.0
C1527 C 0.03287 0.40493 0.98252 0.0
C1528 C 0.00237 0.41941 0.93248 0.0
H1529 H 0.98129 0.46481 0.91041 0.0
C1530 C 0.98499 0.40555 0.92907 0.0
C1531 C 0.00147 0.44071 0.92481 0.0
C1532 C 0.0199 0.45605 0.92816 0.0
C1533 C 0.96615 0.41287 0.91918 0.0
C1534 C 0.96456 0.43466 0.91307 0.0
C1535 C 0.98253 0.4481 0.91515 0.0
C1536 C 0.94372 0.44462 0.90751 0.0
C1537 C 0.94791 0.39742 0.91572 0.0
C1538 C 0.94121 0.45615 0.88831 0.0
C1539 C 0.92297 0.46884 0.88505 0.0
C1540 C 0.90703 0.47008 0.90092 0.0
C1541 C 0.90934 0.45816 0.91986 0.0
C1542 C 0.92742 0.44537 0.92304 0.0
H1543 H 0.95355 0.3805 0.91563 0.0
H1544 H 0.93607 0.3992 0.9289 0.0
H1545 H 0.93974 0.40087 0.90027 0.0
H1546 H 0.95378 0.45606 0.87629 0.0
H1547 H 0.92171 0.47837 0.87057 0.0
H1548 H 0.09456 0.04808 0.92739 0.0
H1549 H 0.06302 0.07095 0.93151 0.0
H1550 H 0.0433 0.05561 0.86692 0.0
H1551 H 0.07506 0.03234 0.86289 0.0
H1552 H 0.04782 0.10664 0.90863 0.0
H1553 H 0.99202 0.03682 0.90358 0.0
H1554 H 0.0206 0.03334 0.90663 0.0
H1555 H 0.00969 0.04143 0.88123 0.0
C1556 C 0.08372 0.04998 0.91392 0.0
C1557 C 0.08736 0.03898 0.89466 0.0
C1558 C 0.0657 0.06296 0.91629 0.0
C1559 C 0.05078 0.0649 0.89956 0.0
C1560 C 0.05454 0.05417 0.88008 0.0
H1561 H 0.92512 0.12104 0.93441 0.0
H1562 H 0.95393 0.10927 0.91011 0.0
C1563 C 0.07263 0.04101 0.87775 0.0
C1564 C 0.03074 0.07702 0.90357 0.0
H1565 H 0.97783 0.0694 0.91559 0.0
C1566 C 0.0324 0.09865 0.90964 0.0
C1567 C 0.01061 0.06657 0.90483 0.0
C1568 C 0.00798 0.04324 0.89885 0.0
C1569 C 0.01482 0.10968 0.91831 0.0
C1570 C 0.99518 0.09872 0.92112 0.0
C1571 C 0.99299 0.07768 0.91342 0.0
C1572 C 0.97804 0.10744 0.935 0.0
C1573 C 0.01767 0.13264 0.9254 0.0
C1574 C 0.98209 0.11006 0.95697 0.0
C1575 C 0.96575 0.11646 0.97083 0.0
C1576 C 0.945 0.12043 0.96297 0.0
C1577 C 0.94099 0.11814 0.94088 0.0
C1578 C 0.95738 0.11147 0.927 0.0
H1579 H 0.03084 0.14062 0.91639 0.0
H1580 H 0.00265 0.14198 0.92318 0.0
H1581 H 0.02191 0.13293 0.94269 0.0
H1582 H 0.99783 0.10662 0.96352 0.0
H1583 H 0.96937 0.11812 0.98775 0.0
H1584 H 0.57566 0.07149 0.61702 0.0
H1585 H 0.60213 0.04403 0.60653 0.0
H1586 H 0.55474 0.01397 0.56607 0.0
H1587 H 0.52839 0.04088 0.57659 0.0
H1588 H 0.59423 0.99701 0.61246 0.0
H1589 H 0.61032 0.0196 0.52808 0.0
H1590 H 0.60097 0.03862 0.54793 0.0
H1591 H 0.58234 0.02081 0.53494 0.0
C1592 C 0.57107 0.05917 0.60566 0.0
C1593 C 0.55 0.05824 0.59764 0.0
C1594 C 0.58615 0.04355 0.59972 0.0
C1595 C 0.5804 0.0272 0.58534 0.0
C1596 C 0.55955 0.02667 0.57693 0.0
H1597 H 0.58261 0.90336 0.55243 0.0
H1598 H 0.58284 0.93723 0.57202 0.0
C1599 C 0.54448 0.04198 0.58307 0.0
C1600 C 0.59515 0.00938 0.58018 0.0
H1601 H 0.61367 0.98181 0.53676 0.0
C1602 C 0.59916 0.99392 0.59605 0.0
C1603 C 0.60183 0.00555 0.55887 0.0
C1604 C 0.59884 0.02213 0.54149 0.0
C1605 C 0.60765 0.97377 0.59063 0.0
C1606 C 0.61198 0.96906 0.56888 0.0
C1607 C 0.61014 0.98536 0.55344 0.0
C1608 C 0.61447 0.94673 0.5612 0.0
C1609 C 0.61083 0.95725 0.60799 0.0
C1610 C 0.63228 0.94067 0.5488 0.0
C1611 C 0.63229 0.92103 0.5379 0.0
C1612 C 0.6145 0.90727 0.53927 0.0
C1613 C 0.59695 0.91317 0.55204 0.0
C1614 C 0.59705 0.93259 0.56314 0.0
H1615 H 0.61322 0.96493 0.6239 0.0
H1616 H 0.59634 0.94695 0.609 0.0
H1617 H 0.62488 0.94691 0.60435 0.0
H1618 H 0.64568 0.95156 0.54676 0.0
H1619 H 0.64575 0.917 0.52766 0.0
H1620 H 0.58441 0.09285 0.93639 0.0
H1621 H 0.58578 0.05857 0.91752 0.0
H1622 H 0.6505 0.04852 0.94003 0.0
H1623 H 0.64906 0.08318 0.95909 0.0
H1624 H 0.61429 0.04061 0.88602 0.0
H1625 H 0.6158 0.99747 0.96454 0.0
H1626 H 0.60959 0.02571 0.96299 0.0
H1627 H 0.6366 0.01665 0.95877 0.0
C1628 C 0.59913 0.0836 0.93678 0.0
C1629 C 0.61684 0.09078 0.94861 0.0
C1630 C 0.5999 0.06402 0.92608 0.0
C1631 C 0.61824 0.05102 0.92737 0.0
C1632 C 0.63619 0.05832 0.93888 0.0
H1633 H 0.58317 0.92552 0.86853 0.0
H1634 H 0.60968 0.95301 0.87902 0.0
C1635 C 0.63539 0.07803 0.94968 0.0
C1636 C 0.6171 0.02905 0.91845 0.0
H1637 H 0.60473 0.97815 0.93441 0.0
C1638 C 0.61302 0.02671 0.89642 0.0
C1639 C 0.61539 0.011 0.93213 0.0
C1640 C 0.61948 0.01266 0.95595 0.0
C1641 C 0.60529 0.00728 0.88807 0.0
C1642 C 0.60161 0.98991 0.90214 0.0
C1643 C 0.60772 0.99157 0.92372 0.0
C1644 C 0.58667 0.97254 0.89619 0.0
C1645 C 0.599 0.00605 0.86475 0.0
C1646 C 0.56522 0.9745 0.90255 0.0
C1647 C 0.55022 0.95912 0.89657 0.0
C1648 C 0.55637 0.94132 0.88418 0.0
C1649 C 0.57802 0.93907 0.87812 0.0
C1650 C 0.59312 0.9547 0.88404 0.0
H1651 H 0.60466 0.02022 0.85551 0.0
H1652 H 0.60573 0.99128 0.85739 0.0
H1653 H 0.58125 0.00513 0.86345 0.0
H1654 H 0.56 0.9882 0.91191 0.0
H1655 H 0.53372 0.9613 0.9016 0.0
H1656 H 0.42515 0.57653 0.86095 0.0
H1657 H 0.39893 0.54897 0.87161 0.0
H1658 H 0.44644 0.51969 0.91254 0.0
H1659 H 0.47253 0.5468 0.90198 0.0
H1660 H 0.40533 0.50301 0.86602 0.0
H1661 H 0.39217 0.52483 0.95101 0.0
H1662 H 0.40216 0.5437 0.93134 0.0
H1663 H 0.42009 0.52485 0.9439 0.0
C1664 C 0.42985 0.56435 0.87244 0.0
C1665 C 0.45087 0.56378 0.88064 0.0
C1666 C 0.4149 0.54866 0.87847 0.0
C1667 C 0.4207 0.53253 0.89308 0.0
C1668 C 0.44154 0.53224 0.90155 0.0
H1669 H 0.41331 0.40708 0.92347 0.0
H1670 H 0.41449 0.4413 0.90454 0.0
C1671 C 0.45648 0.54768 0.89538 0.0
C1672 C 0.40592 0.5148 0.89851 0.0
H1673 H 0.38753 0.48722 0.942 0.0
C1674 C 0.40084 0.49978 0.88253 0.0
C1675 C 0.39971 0.51084 0.91996 0.0
C1676 C 0.40362 0.52704 0.93751 0.0
C1677 C 0.39165 0.47992 0.88785 0.0
C1678 C 0.38773 0.47499 0.90964 0.0
C1679 C 0.39077 0.4909 0.92529 0.0
C1680 C 0.38411 0.4527 0.91702 0.0
C1681 C 0.38703 0.46397 0.8703 0.0
C1682 C 0.36653 0.44759 0.93016 0.0
C1683 C 0.36572 0.42779 0.94076 0.0
C1684 C 0.38246 0.41291 0.93832 0.0
C1685 C 0.39971 0.41784 0.92475 0.0
C1686 C 0.40042 0.43745 0.914 0.0
H1687 H 0.38477 0.47207 0.85457 0.0
H1688 H 0.40076 0.45274 0.86876 0.0
H1689 H 0.37241 0.45453 0.87412 0.0
H1690 H 0.35399 0.4593 0.93301 0.0
H1691 H 0.35254 0.42449 0.9516 0.0
H1692 H 0.85956 0.08075 0.03076 0.0
H1693 H 0.86227 0.04698 0.05105 0.0
H1694 H 0.92237 0.06822 0.078 0.0
H1695 H 0.91996 0.1014 0.05739 0.0
H1696 H 0.89715 0.01994 0.04292 0.0
H1697 H 0.89376 0.03894 0.1297 0.0
H1698 H 0.88062 0.05501 0.10943 0.0
H1699 H 0.90893 0.05802 0.1143 0.0
C1700 C 0.87291 0.07841 0.04164 0.0
C1701 C 0.8892 0.09389 0.04315 0.0
C1702 C 0.87443 0.05921 0.05321 0.0
C1703 C 0.89228 0.05529 0.06639 0.0
C1704 C 0.90811 0.07117 0.06851 0.0
H1705 H 0.98129 0.96104 0.088 0.0
H1706 H 0.95656 0.98917 0.07665 0.0
C1707 C 0.90669 0.09019 0.05679 0.0
C1708 C 0.89668 0.03348 0.07475 0.0
H1709 H 0.91412 0.00752 0.11971 0.0
C1710 C 0.90024 0.01701 0.0598 0.0
C1711 C 0.90055 0.0296 0.09676 0.0
C1712 C 0.89559 0.04626 0.11355 0.0
C1713 C 0.90938 0.99743 0.06608 0.0
C1714 C 0.91517 0.99437 0.08777 0.0
C1715 C 0.90987 0.01006 0.10303 0.0
C1716 C 0.92941 0.97656 0.09423 0.0
C1717 C 0.91386 0.98059 0.04928 0.0
C1718 C 0.92231 0.96025 0.10803 0.0
C1719 C 0.93643 0.94396 0.11447 0.0
C1720 C 0.9579 0.94407 0.10747 0.0
C1721 C 0.96486 0.96049 0.09367 0.0
C1722 C 0.95074 0.97654 0.08709 0.0
H1723 H 0.9034 0.98267 0.03499 0.0
H1724 H 0.9308 0.98199 0.04397 0.0
H1725 H 0.91146 0.9642 0.05589 0.0
H1726 H 0.90591 0.96015 0.1138 0.0
H1727 H 0.93068 0.93156 0.12521 0.0
H1728 H 0.99421 0.16336 0.37312 0.0
H1729 H 0.98484 0.19975 0.36225 0.0
H1730 H 0.02493 0.19348 0.30606 0.0
H1731 H 0.03536 0.15739 0.31766 0.0
H1732 H 0.03246 0.22948 0.3227 0.0
H1733 H 0.94462 0.22316 0.31973 0.0
H1734 H 0.95328 0.21459 0.34572 0.0
H1735 H 0.96146 0.19974 0.3222 0.0
C1736 C 0.0008 0.16965 0.3583 0.0
C1737 C 0.01546 0.15758 0.34619 0.0
C1738 C 0.99526 0.1904 0.35195 0.0
C1739 C 0.00368 0.19923 0.33298 0.0
C1740 C 0.01808 0.18699 0.32066 0.0
H1741 H 0.9531 0.32936 0.31391 0.0
H1742 H 0.96219 0.29221 0.3047 0.0
C1743 C 0.02405 0.16641 0.3273 0.0
C1744 C 0.99897 0.22189 0.32726 0.0
H1745 H 0.95874 0.25896 0.32784 0.0
C1746 C 0.01626 0.23581 0.32333 0.0
C1747 C 0.97784 0.23025 0.32727 0.0
C1748 C 0.95829 0.21603 0.32869 0.0
C1749 C 0.01314 0.258 0.32119 0.0
C1750 C 0.99231 0.2666 0.32406 0.0
C1751 C 0.97483 0.25253 0.32617 0.0
C1752 C 0.98856 0.28992 0.32724 0.0
C1753 C 0.03231 0.27192 0.3162 0.0
C1754 C 0.00043 0.30108 0.34279 0.0
C1755 C 0.99558 0.32235 0.34771 0.0
C1756 C 0.9783 0.33277 0.33766 0.0
C1757 C 0.96653 0.32174 0.3219 0.0
C1758 C 0.9717 0.30052 0.31664 0.0
H1759 H 0.04386 0.26324 0.30574 0.0
H1760 H 0.02759 0.28708 0.30811 0.0
H1761 H 0.04082 0.27586 0.33134 0.0
H1762 H 0.01294 0.29311 0.35184 0.0
H1763 H 0.00474 0.33026 0.36018 0.0
H1764 H 0.00607 0.67076 0.14909 0.0
H1765 H 0.01148 0.70819 0.15841 0.0
H1766 H 0.96013 0.70436 0.2048 0.0
H1767 H 0.95377 0.66696 0.19446 0.0
H1768 H 0.95431 0.7376 0.18296 0.0
H1769 H 0.03946 0.73996 0.20471 0.0
H1770 H 0.03771 0.72764 0.17886 0.0
H1771 H 0.02534 0.71486 0.20179 0.0
C1772 C 0.99624 0.6777 0.16164 0.0
C1773 C 0.97953 0.6659 0.17109 0.0
C1774 C -0.00051 0.69914 0.16713 0.0
C1775 C 0.98659 0.7091 0.18272 0.0
C1776 C 0.9704 0.69705 0.19282 0.0
H1777 H 0.02464 0.84433 0.18982 0.0
H1778 H 0.0161 0.80832 0.20313 0.0
C1779 C 0.96679 0.67568 0.18694 0.0
C1780 C 0.98844 0.73261 0.18631 0.0
H1781 H 0.02548 0.7728 0.18752 0.0
C1782 C 0.96986 0.74527 0.18454 0.0
C1783 C 0.00851 0.74286 0.18915 0.0
C1784 C 0.02878 0.73052 0.19401 0.0
C1785 C 0.97105 0.76774 0.18359 0.0
C1786 C 0.99144 0.77776 0.18332 0.0
C1787 C 0.00982 0.76523 0.18707 0.0
C1788 C 0.99431 0.80063 0.17714 0.0
C1789 C 0.9504 0.78034 0.18258 0.0
C1790 C 0.98476 0.80849 0.15827 0.0
C1791 C 0.98915 0.82922 0.15103 0.0
C1792 C 0.0038 0.84226 0.16208 0.0
C1793 C 0.01328 0.83455 0.18102 0.0
C1794 C 0.00842 0.81399 0.18861 0.0
H1795 H 0.93765 0.77229 0.19211 0.0
H1796 H 0.95243 0.79695 0.18871 0.0
H1797 H 0.94474 0.78104 0.16571 0.0
H1798 H 0.97455 0.79832 0.14858 0.0
H1799 H 0.98192 0.83463 0.13617 0.0
H1800 H 0.31808 0.03033 0.15642 0.0
H1801 H 0.30787 0.02032 0.19308 0.0
H1802 H 0.36746 0.98562 0.20005 0.0
H1803 H 0.37698 0.9944 0.16312 0.0
H1804 H 0.33704 0.96422 0.21823 0.0
H1805 H 0.33035 0.04907 0.24495 0.0
H1806 H 0.31181 0.04183 0.2242 0.0
H1807 H 0.34019 0.04193 0.21874 0.0
C1808 C 0.32886 0.02043 0.1658 0.0
C1809 C 0.34835 0.01321 0.15706 0.0
C1810 C 0.3231 0.01486 0.18677 0.0
C1811 C 0.33712 0.00266 0.19954 0.0
C1812 C 0.35635 0.99505 0.19055 0.0
H1813 H 0.36457 0.00311 0.33086 0.0
H1814 H 0.35721 0.01002 0.2932 0.0
C1815 C 0.36182 0.0001 0.16946 0.0
C1816 C 0.33244 0.99821 0.22247 0.0
H1817 H 0.32457 0.0225 0.27092 0.0
C1818 C 0.33419 0.97694 0.22977 0.0
C1819 C 0.32871 0.01485 0.2375 0.0
C1820 C 0.32784 0.03821 0.23103 0.0
C1821 C 0.33373 0.97199 0.25173 0.0
C1822 C 0.33031 0.98868 0.26677 0.0
C1823 C 0.32714 0.00973 0.25936 0.0
C1824 C 0.33293 0.98529 0.2902 0.0
C1825 C 0.33841 0.94918 0.25851 0.0
C1826 C 0.32138 0.96942 0.30131 0.0
C1827 C 0.326 0.96505 0.32286 0.0
C1828 C 0.34172 0.97699 0.33376 0.0
C1829 C 0.35229 0.9937 0.32295 0.0
C1830 C 0.34807 0.99768 0.30137 0.0
H1831 H 0.3456 0.93961 0.24529 0.0
H1832 H 0.34958 0.9488 0.27239 0.0
H1833 H 0.32322 0.94123 0.26331 0.0
H1834 H 0.30915 0.96011 0.29324 0.0
H1835 H 0.31745 0.95223 0.33091 0.0
H1836 H 0.67385 0.47843 0.15168 0.0
H1837 H 0.68291 0.48266 0.18968 0.0
H1838 H 0.6243 0.51828 0.19961 0.0
H1839 H 0.61587 0.51516 0.16149 0.0
H1840 H 0.65485 0.53512 0.22232 0.0
H1841 H 0.65626 0.44692 0.23516 0.0
H1842 H 0.67597 0.4561 0.21633 0.0
H1843 H 0.64786 0.45875 0.21016 0.0
C1844 C 0.66307 0.48738 0.16198 0.0
C1845 C 0.6441 0.49635 0.15374 0.0
C1846 C 0.66816 0.48962 0.1837 0.0
C1847 C 0.65398 0.50024 0.19764 0.0
C1848 C 0.63546 0.50993 0.1892 0.0
H1849 H 0.6271 0.482 0.32945 0.0
H1850 H 0.63283 0.47958 0.29085 0.0
C1851 C 0.63064 0.50816 0.16741 0.0
C1852 C 0.6578 0.50071 0.22113 0.0
H1853 H 0.66375 0.46859 0.26512 0.0
C1854 C 0.6569 0.52058 0.2317 0.0
C1855 C 0.66028 0.48168 0.23334 0.0
C1856 C 0.65995 0.45965 0.22322 0.0
C1857 C 0.65749 0.52194 0.25415 0.0
C1858 C 0.66011 0.50293 0.26636 0.0
C1859 C 0.66192 0.48314 0.25573 0.0
C1860 C 0.65862 0.50289 0.29011 0.0
C1861 C 0.654 0.5436 0.26449 0.0
C1862 C 0.67173 0.51621 0.3027 0.0
C1863 C 0.66813 0.51798 0.32477 0.0
C1864 C 0.65184 0.50592 0.33467 0.0
C1865 C 0.63983 0.49143 0.32229 0.0
C1866 C 0.64309 0.49005 0.3002 0.0
H1867 H 0.64682 0.55532 0.25312 0.0
H1868 H 0.64329 0.54229 0.27867 0.0
H1869 H 0.66966 0.55015 0.26983 0.0
H1870 H 0.68431 0.52571 0.29539 0.0
H1871 H 0.67779 0.5291 0.33401 0.0
H1872 H 0.33046 0.36091 0.99797 0.0
H1873 H 0.29346 0.35269 0.00684 0.0
H1874 H 0.29067 0.30736 0.95454 0.0
H1875 H 0.3277 0.31645 0.94481 0.0
H1876 H 0.25733 0.33067 0.95311 0.0
H1877 H 0.26458 0.30554 0.03717 0.0
H1878 H 0.27726 0.33117 0.03461 0.0
H1879 H 0.28782 0.30836 0.02012 0.0
C1880 C 0.32216 0.34888 0.98857 0.0
C1881 C 0.33205 0.33926 0.97073 0.0
C1882 C 0.30098 0.34402 0.99381 0.0
C1883 C 0.28935 0.32896 0.98175 0.0
C1884 C 0.29936 0.3189 0.96421 0.0
H1885 H 0.15858 0.31965 0.03338 0.0
H1886 H 0.19396 0.3076 0.02114 0.0
C1887 C 0.3205 0.32409 0.95867 0.0
C1888 C 0.26617 0.32571 0.98622 0.0
H1889 H 0.23058 0.32323 0.02768 0.0
C1890 C 0.25148 0.3285 0.96936 0.0
C1891 C 0.25833 0.32215 0.00725 0.0
C1892 C 0.27291 0.31637 0.0257 0.0
C1893 C 0.22935 0.32967 0.97326 0.0
C1894 C 0.22179 0.32903 0.99468 0.0
C1895 C 0.23631 0.32435 0.01128 0.0
C1896 C 0.19945 0.33502 0.00046 0.0
C1897 C 0.21442 0.33188 0.95432 0.0
C1898 C 0.19071 0.35443 0.99298 0.0
C1899 C 0.17037 0.36105 -0.00045 0.0
C1900 C 0.15861 0.34876 0.01432 0.0
C1901 C 0.16735 0.32943 0.02198 0.0
C1902 C 0.18753 0.32253 0.01498 0.0
H1903 H 0.22089 0.32321 0.94014 0.0
H1904 H 0.19816 0.32556 0.95793 0.0
H1905 H 0.21308 0.34908 0.94985 0.0
H1906 H 0.19987 0.36485 0.98251 0.0
H1907 H 0.16419 0.3762 0.99366 0.0
H1908 H 0.1637 0.62246 0.51807 0.0
H1909 H 0.20115 0.63289 0.52235 0.0
H1910 H 0.19076 0.68778 0.48132 0.0
H1911 H 0.15348 0.67668 0.47606 0.0
H1912 H 0.22488 0.669 0.46935 0.0
H1913 H 0.23077 0.67668 0.55706 0.0
H1914 H 0.22046 0.65062 0.55079 0.0
H1915 H 0.20523 0.67423 0.54366 0.0
C1916 C 0.16932 0.63695 0.51026 0.0
C1917 C 0.15571 0.64878 0.49676 0.0
C1918 C 0.1907 0.64302 0.51286 0.0
C1919 C 0.19872 0.66142 0.50256 0.0
C1920 C 0.18494 0.67359 0.48952 0.0
H1921 H 0.33391 0.68249 0.53434 0.0
H1922 H 0.29596 0.69112 0.52901 0.0
C1923 C 0.16366 0.66725 0.48653 0.0
C1924 C 0.22192 0.66663 0.50378 0.0
H1925 H 0.2641 0.66767 0.53853 0.0
C1926 C 0.23338 0.66919 0.48453 0.0
C1927 C 0.23307 0.66756 0.52353 0.0
C1928 C 0.22164 0.66739 0.54488 0.0
C1929 C 0.2558 0.67108 0.48445 0.0
C1930 C 0.26711 0.66943 0.50406 0.0
C1931 C 0.25554 0.66848 0.52339 0.0
C1932 C 0.29074 0.66665 0.50489 0.0
C1933 C 0.26703 0.67457 0.46327 0.0
C1934 C 0.30056 0.65031 0.49284 0.0
C1935 C 0.32229 0.6457 0.49551 0.0
C1936 C 0.3345 0.6569 0.51076 0.0
C1937 C 0.32485 0.67358 0.52248 0.0
C1938 C 0.30318 0.6785 0.51947 0.0
H1939 H 0.25684 0.68415 0.4522 0.0
H1940 H 0.28261 0.68296 0.46534 0.0
H1941 H 0.26995 0.65881 0.4555 0.0
H1942 H 0.29122 0.64038 0.48207 0.0
H1943 H 0.32919 0.63253 0.48649 0.0
H1944 H 0.66173 0.80562 0.53268 0.0
H1945 H 0.70003 0.7973 0.52933 0.0
H1946 H 0.70738 0.84985 0.48474 0.0
H1947 H 0.66909 0.85727 0.487 0.0
H1948 H 0.73247 0.81886 0.47351 0.0
H1949 H 0.74266 0.83209 0.56112 0.0
H1950 H 0.7256 0.80988 0.55455 0.0
H1951 H 0.71754 0.83679 0.54767 0.0
C1952 C 0.67151 0.81506 0.52183 0.0
C1953 C 0.66252 0.83218 0.51021 0.0
C1954 C 0.6934 0.81045 0.5201 0.0
C1955 C 0.70673 0.8234 0.50735 0.0
C1956 C 0.69748 0.83969 0.49479 0.0
H1957 H 0.83396 0.86623 0.52432 0.0
H1958 H 0.7961 0.85648 0.52658 0.0
C1959 C 0.67555 0.84392 0.49607 0.0
C1960 C 0.73044 0.82121 0.50791 0.0
H1961 H 0.77375 0.82493 0.54124 0.0
C1962 C 0.74153 0.82004 0.48833 0.0
C1963 C 0.74223 0.82294 0.52728 0.0
C1964 C 0.73144 0.8257 0.54882 0.0
C1965 C 0.76395 0.82174 0.48742 0.0
C1966 C 0.77573 0.82352 0.50679 0.0
C1967 C 0.76471 0.82349 0.52644 0.0
C1968 C 0.79914 0.82787 0.507 0.0
C1969 C 0.77452 0.82306 0.46564 0.0
C1970 C 0.81364 0.81469 0.49584 0.0
C1971 C 0.83519 0.82061 0.49405 0.0
C1972 C 0.84272 0.83934 0.50409 0.0
C1973 C 0.82856 0.85166 0.51652 0.0
C1974 C 0.80693 0.84608 0.5178 0.0
H1975 H 0.76281 0.82706 0.4528 0.0
H1976 H 0.78739 0.83538 0.46547 0.0
H1977 H 0.78174 0.80728 0.46164 0.0
H1978 H 0.8082 0.80016 0.48804 0.0
H1979 H 0.84592 0.81072 0.48458 0.0
H1980 H 0.52185 0.83237 0.85988 0.0
H1981 H 0.52433 0.79493 0.84882 0.0
H1982 H 0.48228 0.8078 0.79528 0.0
H1983 H 0.47875 0.84509 0.80714 0.0
H1984 H 0.46908 0.77435 0.81368 0.0
H1985 H 0.55606 0.76328 0.80451 0.0
H1986 H 0.55106 0.77373 0.83077 0.0
H1987 H 0.54431 0.78958 0.80745 0.0
C1988 C 0.5135 0.8273 0.8455 0.0
C1989 C 0.50015 0.84159 0.83433 0.0
C1990 C 0.51506 0.8059 0.83906 0.0
C1991 C 0.50387 0.79854 0.82091 0.0
C1992 C 0.49114 0.81307 0.80927 0.0
H1993 H 0.52829 0.66157 0.80173 0.0
H1994 H 0.52463 0.69946 0.79201 0.0
C1995 C 0.48915 0.83436 0.81603 0.0
C1996 C 0.50366 0.77529 0.8156 0.0
H1997 H 0.53583 0.73108 0.8144 0.0
C1998 C 0.48374 0.76497 0.81333 0.0
C1999 C 0.5227 0.76296 0.81443 0.0
C2000 C 0.5447 0.77308 0.81416 0.0
C2001 C 0.48231 0.74257 0.81156 0.0
C2002 C 0.50122 0.73009 0.8131 0.0
C2003 C 0.52121 0.74051 0.81369 0.0
C2004 C 0.50068 0.70645 0.81623 0.0
C2005 C 0.46047 0.73264 0.8083 0.0
C2006 C 0.48806 0.69757 0.83268 0.0
C2007 C 0.48971 0.67584 0.83785 0.0
C2008 C 0.50454 0.6627 0.82713 0.0
C2009 C 0.51672 0.67137 0.81024 0.0
C2010 C 0.51468 0.69302 0.80472 0.0
H2011 H 0.45006 0.74335 0.79855 0.0
H2012 H 0.46153 0.71681 0.80019 0.0
H2013 H 0.45255 0.73052 0.82411 0.0
H2014 H 0.47772 0.70763 0.84236 0.0
H2015 H 0.4804 0.6697 0.85119 0.0
H2016 H 0.48152 0.32862 0.63243 0.0
H2017 H 0.4777 0.29089 0.6416 0.0
H2018 H 0.52508 0.29797 0.69165 0.0
H2019 H 0.52985 0.33567 0.68162 0.0
H2020 H 0.5349 0.26553 0.6696 0.0
H2021 H 0.44882 0.25707 0.68621 0.0
H2022 H 0.45163 0.26952 0.66049 0.0
H2023 H 0.46138 0.28309 0.68419 0.0
C2024 C 0.49075 0.32229 0.64574 0.0
C2025 C 0.50598 0.33508 0.65632 0.0
C2026 C 0.48842 0.30069 0.65112 0.0
C2027 C 0.50077 0.29157 0.66764 0.0
C2028 C 0.51529 0.30462 0.67891 0.0
H2029 H 0.47356 0.15385 0.67751 0.0
H2030 H 0.4784 0.19101 0.68932 0.0
C2031 C 0.51799 0.32615 0.67319 0.0
C2032 C 0.50037 0.26799 0.67112 0.0
H2033 H 0.4664 0.22514 0.67111 0.0
C2034 C 0.5199 0.25673 0.67049 0.0
C2035 C 0.48096 0.25634 0.67292 0.0
C2036 C 0.45959 0.26723 0.67626 0.0
C2037 C 0.52043 0.23425 0.66988 0.0
C2038 C 0.50089 0.22273 0.66889 0.0
C2039 C 0.48144 0.2339 0.6713 0.0
C2040 C 0.50008 0.19953 0.6635 0.0
C2041 C 0.54198 0.22319 0.67002 0.0
C2042 C 0.5108 0.19184 0.64521 0.0
C2043 C 0.50846 0.17052 0.63876 0.0
C2044 C 0.4948 0.15665 0.65008 0.0
C2045 C 0.48419 0.16424 0.66848 0.0
C2046 C 0.48694 0.18546 0.67522 0.0
H2047 H 0.5538 0.2325 0.6796 0.0
H2048 H 0.54094 0.20672 0.67674 0.0
H2049 H 0.54823 0.22226 0.65337 0.0
H2050 H 0.52036 0.2025 0.63537 0.0
H2051 H 0.51655 0.1652 0.62432 0.0
H2052 H 0.80936 0.48682 0.84389 0.0
H2053 H 0.80194 0.48936 0.80539 0.0
H2054 H 0.86247 0.52169 0.79592 0.0
H2055 H 0.86928 0.52034 0.83453 0.0
H2056 H 0.83387 0.53811 0.77054 0.0
H2057 H 0.8289 0.44944 0.76381 0.0
H2058 H 0.80883 0.46055 0.78116 0.0
H2059 H 0.83677 0.46264 0.78827 0.0
C2060 C 0.82088 0.49476 0.83356 0.0
C2061 C 0.83994 0.50327 0.84206 0.0
C2062 C 0.81674 0.49601 0.81158 0.0
C2063 C 0.83196 0.50508 0.79766 0.0
C2064 C 0.85054 0.51449 0.80631 0.0
H2065 H 0.85965 0.47698 0.66705 0.0
H2066 H 0.85368 0.47695 0.70572 0.0
C2067 C 0.85441 0.51376 0.82836 0.0
C2068 C 0.82914 0.50406 0.77405 0.0
H2069 H 0.82248 0.46927 0.73225 0.0
C2070 C 0.83132 0.52307 0.76215 0.0
C2071 C 0.82608 0.48435 0.76311 0.0
C2072 C 0.82523 0.46307 0.77471 0.0
C2073 C 0.83118 0.52289 0.73965 0.0
C2074 C 0.82771 0.50324 0.72873 0.0
C2075 C 0.82488 0.48433 0.74064 0.0
C2076 C 0.82912 0.50158 0.70503 0.0
C2077 C 0.83594 0.54357 0.72792 0.0
C2078 C 0.81666 0.51475 0.69164 0.0
C2079 C 0.82039 0.51512 0.66954 0.0
C2080 C 0.83614 0.50179 0.66042 0.0
C2081 C 0.84732 0.48735 0.67362 0.0
C2082 C 0.84396 0.48737 0.69575 0.0
H2083 H 0.84378 0.55556 0.73854 0.0
H2084 H 0.84656 0.54072 0.7139 0.0
H2085 H 0.82069 0.55068 0.7221 0.0
H2086 H 0.80458 0.52529 0.69835 0.0
H2087 H 0.81139 0.52624 0.65966 0.0
H2088 H 0.14878 0.00365 0.66781 0.0
H2089 H 0.15808 0.01083 0.7049 0.0
H2090 H 0.20466 0.95952 0.70347 0.0
H2091 H 0.19437 0.95138 0.66641 0.0
H2092 H 0.18248 0.9549 0.73662 0.0
H2093 H 0.20394 0.04017 0.73607 0.0
H2094 H 0.17823 0.0379 0.72355 0.0
H2095 H 0.20132 0.02513 0.71148 0.0
C2096 C 0.16138 0.9942 0.67518 0.0
C2097 C 0.17087 0.97696 0.66418 0.0
C2098 C 0.16686 0.99847 0.69642 0.0
C2099 C 0.18246 0.98607 0.70697 0.0
C2100 C 0.19267 0.96941 0.69568 0.0
H2101 H 0.18908 0.02741 0.84152 0.0
H2102 H 0.20189 0.01884 0.80535 0.0
C2103 C 0.1868 0.96478 0.67451 0.0
C2104 C 0.18582 0.98884 0.73042 0.0
H2105 H 0.18633 0.02737 0.76922 0.0
C2106 C 0.18391 0.97073 0.74372 0.0
C2107 C 0.18842 0.00931 0.73993 0.0
C2108 C 0.19336 0.02912 0.72691 0.0
C2109 C 0.18261 0.97276 0.76609 0.0
C2110 C 0.18213 0.99352 0.77532 0.0
C2111 C 0.18601 0.01144 0.7622 0.0
C2112 C 0.17573 0.99715 0.798 0.0
C2113 C 0.18143 0.95258 0.77944 0.0
C2114 C 0.15677 0.98787 0.80597 0.0
C2115 C 0.14976 0.99233 0.82675 0.0
C2116 C 0.16115 0.00676 0.83974 0.0
C2117 C 0.18 0.01623 0.83178 0.0
C2118 C 0.18732 0.01133 0.81115 0.0
H2119 H 0.19092 0.93948 0.77193 0.0
H2120 H 0.1875 0.95521 0.79599 0.0
H2121 H 0.16453 0.94705 0.78029 0.0
H2122 H 0.14699 0.97762 0.79592 0.0
H2123 H 0.13497 0.98509 0.83236 0.0
H2124 H 0.8325 0.13971 0.98521 0.0
H2125 H 0.79595 0.15023 0.97626 0.0
H2126 H 0.80248 0.20703 0.01543 0.0
H2127 H 0.83873 0.19567 0.02558 0.0
H2128 H 0.76709 0.19063 0.02413 0.0
H2129 H 0.77027 0.19115 0.93619 0.0
H2130 H 0.7795 0.16543 0.94497 0.0
H2131 H 0.79433 0.1893 0.95216 0.0
C2132 C 0.82626 0.15462 0.99162 0.0
C2133 C 0.83842 0.16692 0.00602 0.0
C2134 C 0.8054 0.16077 0.98631 0.0
C2135 C 0.79653 0.17977 0.99466 0.0
C2136 C 0.80895 0.19239 0.00864 0.0
H2137 H 0.66424 0.19216 0.94796 0.0
H2138 H 0.70122 0.2034 0.95526 0.0
C2139 C 0.82964 0.18591 0.01443 0.0
C2140 C 0.77363 0.18505 0.99056 0.0
H2141 H 0.73518 0.18199 0.95179 0.0
C2142 C 0.76022 0.18927 0.0082 0.0
C2143 C 0.76451 0.18413 0.96976 0.0
C2144 C 0.77803 0.18253 0.94973 0.0
C2145 C 0.73789 0.19071 0.00583 0.0
C2146 C 0.72862 0.18674 0.98548 0.0
C2147 C 0.74212 0.18445 0.96756 0.0
C2148 C 0.7053 0.18252 0.98278 0.0
C2149 C 0.72456 0.19614 0.02531 0.0
C2150 C 0.69514 0.16727 0.99591 0.0
C2151 C 0.67395 0.16126 0.9921 0.0
C2152 C 0.6626 0.16984 0.97462 0.0
C2153 C 0.6726 0.18531 0.96158 0.0
C2154 C 0.69372 0.19171 0.96573 0.0
H2155 H 0.73329 0.2075 0.03593 0.0
H2156 H 0.70892 0.20342 0.02085 0.0
H2157 H 0.7216 0.18132 0.03475 0.0
H2158 H 0.70386 0.15923 0.00861 0.0
H2159 H 0.66686 0.14901 0.00221 0.0
H2160 H 0.99269 0.95734 0.16771 0.0
H2161 H 0.99316 0.98597 0.19447 0.0
H2162 H 0.03716 0.949 0.2332 0.0
H2163 H 0.0378 0.92093 0.20572 0.0
H2164 H 0.98209 0.98982 0.23351 0.0
H2165 H 0.06965 0.00325 0.23031 0.0
H2166 H 0.05613 0.98572 0.21173 0.0
H2167 H 0.06381 0.97616 0.23796 0.0
C2168 C 0.00238 0.9553 0.182 0.0
C2169 C 0.01534 0.93703 0.18463 0.0
C2170 C 0.00268 0.97169 0.19726 0.0
C2171 C 0.01566 0.96995 0.2156 0.0
C2172 C 0.02768 0.95112 0.2188 0.0
H2173 H -0.00029 0.04529 0.33058 0.0
H2174 H 0.99649 0.01988 0.30106 0.0
C2175 C 0.02785 0.93498 0.20324 0.0
C2176 C 0.01656 0.98785 0.23131 0.0
H2177 H 0.05115 0.01913 0.25994 0.0
C2178 C 0.9972 0.99637 0.23912 0.0
C2179 C 0.03624 0.99688 0.23823 0.0
C2180 C 0.05759 0.99019 0.22892 0.0
C2181 C 0.99698 0.01323 0.25404 0.0
C2182 C 0.01667 0.02111 0.26219 0.0
C2183 C 0.03601 0.01297 0.25395 0.0
C2184 C 0.01772 0.03727 0.27968 0.0
C2185 C 0.97559 0.02263 0.26047 0.0
C2186 C 0.03131 0.0552 0.27789 0.0
C2187 C 0.03376 0.06938 0.2951 0.0
C2188 C 0.02232 0.06609 0.31422 0.0
C2189 C 0.00839 0.04845 0.31584 0.0
C2190 C 0.00641 0.03398 0.29889 0.0
H2191 H 0.96361 0.02089 0.24738 0.0
H2192 H 0.96933 0.01382 0.27463 0.0
H2193 H 0.97695 0.03991 0.26459 0.0
H2194 H 0.04031 0.05806 0.26328 0.0
H2195 H 0.04465 0.08284 0.2935 0.0
H2196 H 0.9292 0.42842 0.30483 0.0
H2197 H 0.93026 0.45766 0.27869 0.0
H2198 H 0.99923 0.45978 0.28351 0.0
H2199 H 0.99846 0.43053 0.30959 0.0
H2200 H 0.94866 0.49921 0.28833 0.0
H2201 H 0.98706 0.46011 0.21791 0.0
H2202 H 0.97422 0.445 0.23907 0.0
H2203 H 0.00043 0.45622 0.24318 0.0
C2204 C 0.94465 0.43478 0.30006 0.0
C2205 C 0.96375 0.4271 0.30938 0.0
C2206 C 0.94519 0.45155 0.28518 0.0
C2207 C 0.96482 0.46076 0.27914 0.0
C2208 C 0.98395 0.45268 0.28778 0.0
H2209 H 0.00118 0.56661 0.1964 0.0
H2210 H 0.0008 0.53732 0.22246 0.0
C2211 C 0.98344 0.43598 0.30274 0.0
C2212 C 0.96519 0.47981 0.26499 0.0
H2213 H 0.98258 0.49782 0.21631 0.0
C2214 C 0.95597 0.49893 0.27253 0.0
C2215 C 0.97493 0.47935 0.24453 0.0
C2216 C 0.9846 0.45905 0.23554 0.0
C2217 C 0.95647 0.51777 0.2602 0.0
C2218 C 0.96604 0.5173 0.23962 0.0
C2219 C 0.9753 0.49815 0.23213 0.0
C2220 C 0.96622 0.53631 0.22534 0.0
C2221 C 0.94718 0.53811 0.26954 0.0
C2222 C 0.9469 0.54562 0.2185 0.0
C2223 C 0.94703 0.56248 0.20373 0.0
C2224 C 0.96651 0.57019 0.19527 0.0
C2225 C 0.98587 0.56112 0.20256 0.0
C2226 C 0.98571 0.54433 0.21742 0.0
H2227 H 0.94637 0.53738 0.28734 0.0
H2228 H 0.9568 0.55235 0.26483 0.0
H2229 H 0.9306 0.54031 0.26343 0.0
H2230 H 0.93165 0.53938 0.22405 0.0
H2231 H 0.93179 0.56891 0.19837 0.0
H2232 H 0.20335 0.04648 0.92694 0.0
H2233 H 0.23151 0.04393 0.95411 0.0
H2234 H 0.21171 0.97933 0.96902 0.0
H2235 H 0.18349 0.98159 0.94189 0.0
H2236 H 0.21435 0.00965 0.00506 0.0
H2237 H 0.28806 0.00706 0.95481 0.0
H2238 H 0.26881 0.02743 0.94783 0.0
H2239 H 0.26194 -0.00037 0.94466 0.0
C2240 C 0.20516 0.03159 0.93573 0.0
C2241 C 0.19113 0.01425 0.93222 0.0
C2242 C 0.2213 0.03016 0.9512 0.0
C2243 C 0.22367 0.01142 0.96343 0.0
C2244 C 0.21012 0.99389 0.95963 0.0
H2245 H 0.32599 0.98754 0.05518 0.0
H2246 H 0.29792 0.98297 0.02824 0.0
C2247 C 0.19407 0.99522 0.94406 0.0
C2248 C 0.23932 0.01071 0.98118 0.0
H2249 H 0.29287 0.0128 0.9922 0.0
C2250 C 0.23153 0.01016 0.0023 0.0
C2251 C 0.26165 0.01126 0.97741 0.0
C2252 C 0.27072 0.01121 0.95496 0.0
C2253 C 0.24558 0.01077 0.01986 0.0
C2254 C 0.26789 0.01202 0.01609 0.0
C2255 C 0.2757 0.01194 0.99496 0.0
C2256 C 0.28345 0.01401 0.03382 0.0
C2257 C 0.23655 0.01013 0.04231 0.0
C2258 C 0.28436 0.03291 0.04599 0.0
C2259 C 0.30042 0.03567 0.06137 0.0
C2260 C 0.31584 0.01953 0.06482 0.0
C2261 C 0.31436 0.00029 0.05305 0.0
C2262 C 0.29838 0.99764 0.03759 0.0
H2263 H 0.21959 0.00464 0.0425 0.0
H2264 H 0.24622 0.99933 0.05268 0.0
H2265 H 0.23718 0.02649 0.04934 0.0
H2266 H 0.27307 0.04582 0.04309 0.0
H2267 H 0.3011 0.05069 0.07009 0.0
H2268 H 0.66311 0.53349 0.0526 0.0
H2269 H 0.69114 0.54119 0.02618 0.0
H2270 H 0.7199 0.47946 0.03849 0.0
H2271 H 0.69212 0.47156 0.06493 0.0
H2272 H 0.74949 0.51607 0.03467 0.0
H2273 H 0.69123 0.50809 0.96726 0.0
H2274 H 0.68454 0.52625 0.9887 0.0
H2275 H 0.68559 0.49794 0.99381 0.0
C2276 C 0.67558 0.52167 0.04996 0.0
C2277 C 0.67525 0.50181 0.06078 0.0
C2278 C 0.6915 0.52608 0.03479 0.0
C2279 C 0.70734 0.51076 0.03027 0.0
C2280 C 0.70771 0.49143 0.04176 0.0
H2281 H 0.78975 0.47337 0.93026 0.0
H2282 H 0.76083 0.47964 0.95591 0.0
C2283 C 0.69179 0.48695 0.05684 0.0
C2284 C 0.72291 0.51412 0.01275 0.0
H2285 H 0.72751 0.51288 0.95818 0.0
C2286 C 0.74473 0.51575 0.01793 0.0
C2287 C 0.7165 0.51347 0.99099 0.0
C2288 C 0.69322 0.51122 0.9847 0.0
C2289 C 0.76046 0.5161 0.00184 0.0
C2290 C 0.75409 0.51492 0.9801 0.0
C2291 C 0.73223 0.51394 0.9749 0.0
C2292 C 0.77001 0.51241 0.96274 0.0
C2293 C 0.78382 0.51666 0.00821 0.0
C2294 C 0.78426 0.52904 0.95765 0.0
C2295 C 0.80082 0.52555 0.94294 0.0
C2296 C 0.80339 0.50533 0.93316 0.0
C2297 C 0.78834 0.48908 0.93755 0.0
C2298 C 0.77178 0.49263 0.95218 0.0
H2299 H 0.78607 0.51447 0.02576 0.0
H2300 H 0.79292 0.50394 -0.00035 0.0
H2301 H 0.79081 0.53238 0.0036 0.0
H2302 H 0.78294 0.54449 0.96551 0.0
H2303 H 0.81208 0.53845 0.93991 0.0
H2304 H 0.3085 0.99801 0.42984 0.0
H2305 H 0.28182 0.99804 0.45853 0.0
H2306 H 0.28129 0.92882 0.45843 0.0
H2307 H 0.30767 0.92854 0.42945 0.0
H2308 H 0.2407 0.94664 0.46288 0.0
H2309 H 0.29826 0.98326 0.5202 0.0
H2310 H 0.29418 0.99865 0.49618 0.0
H2311 H 0.30648 0.97258 0.49456 0.0
C2312 C 0.30254 0.98276 0.43569 0.0
C2313 C 0.31045 0.96326 0.42746 0.0
C2314 C 0.2874 0.98283 0.45221 0.0
C2315 C 0.28005 0.96343 0.46096 0.0
C2316 C 0.28695 0.94397 0.45201 0.0
H2317 H 0.19859 0.92767 0.56829 0.0
H2318 H 0.22426 0.92795 0.53864 0.0
C2319 C 0.302 0.94386 0.4354 0.0
C2320 C 0.26567 0.9634 0.47987 0.0
H2321 H 0.2624 0.97914 0.53228 0.0
C2322 C 0.24545 0.95367 0.47808 0.0
C2323 C 0.27201 0.9725 0.4997 0.0
C2324 C 0.29399 0.98216 0.50292 0.0
C2325 C 0.2312 0.95316 0.4955 0.0
C2326 C 0.23749 0.96239 0.51525 0.0
C2327 C 0.25769 0.9721 0.51707 0.0
C2328 C 0.22315 0.96235 0.53412 0.0
C2329 C 0.20937 0.9431 0.4926 0.0
C2330 C 0.21468 0.98171 0.54184 0.0
C2331 C 0.20005 0.98166 0.55882 0.0
C2332 C 0.19374 0.96222 0.56848 0.0
C2333 C 0.20303 0.94293 0.56125 0.0
C2334 C 0.21759 0.94301 0.5442 0.0
H2335 H 0.20538 0.94067 0.47539 0.0
H2336 H 0.20911 0.92721 0.50065 0.0
H2337 H 0.19673 0.95323 0.50004 0.0
H2338 H 0.21895 0.99681 0.53432 0.0
H2339 H 0.19331 0.99683 0.564 0.0
H2340 H 0.80495 0.47413 0.5631 0.0
H2341 H 0.77829 0.47357 0.53433 0.0
H2342 H 0.77651 0.54274 0.5343 0.0
H2343 H 0.80317 0.54361 0.56297 0.0
H2344 H 0.73575 0.49313 0.53167 0.0
H2345 H 0.79358 0.52528 0.47183 0.0
H2346 H 0.80197 0.51387 0.49713 0.0
H2347 H 0.79121 0.5406 0.49616 0.0
C2348 C 0.79872 0.48925 0.5572 0.0
C2349 C 0.80638 0.50893 0.56527 0.0
C2350 C 0.78351 0.48887 0.54073 0.0
C2351 C 0.77581 0.50811 0.53199 0.0
C2352 C 0.78259 0.52773 0.54064 0.0
H2353 H 0.6908 0.54635 0.43065 0.0
H2354 H 0.71804 0.54362 0.45861 0.0
C2355 C 0.79774 0.52816 0.55713 0.0
C2356 C 0.76113 0.50774 0.51339 0.0
H2357 H 0.75734 0.52222 0.46071 0.0
C2358 C 0.74045 0.49934 0.5161 0.0
C2359 C 0.76745 0.51582 0.49315 0.0
C2360 C 0.78982 0.52425 0.48923 0.0
C2361 C 0.72559 0.49945 0.49918 0.0
C2362 C 0.73184 0.50775 0.47897 0.0
C2363 C 0.75265 0.51586 0.47622 0.0
C2364 C 0.71669 0.50898 0.46074 0.0
C2365 C 0.70313 0.49134 0.50329 0.0
C2366 C 0.70749 0.49033 0.45214 0.0
C2367 C 0.69186 0.4918 0.43614 0.0
C2368 C 0.68526 0.51198 0.42837 0.0
C2369 C 0.69541 0.53055 0.43625 0.0
C2370 C 0.71098 0.52904 0.45228 0.0
H2371 H 0.69952 0.4903 0.52073 0.0
H2372 H 0.69104 0.50193 0.49559 0.0
H2373 H 0.70143 0.47502 0.49636 0.0
H2374 H 0.71208 0.47466 0.45812 0.0
H2375 H 0.68452 0.47714 0.43036 0.0
H2376 H 0.07135 0.30487 0.05571 0.0
H2377 H 0.0436 0.27746 0.05147 0.0
H2378 H 0.02834 0.30228 0.98873 0.0
H2379 H 0.05599 0.32973 0.99268 0.0
H2380 H 0.99255 0.29784 0.01861 0.0
H2381 H 0.0418 0.22379 0.01084 0.0
H2382 H 0.04885 0.24135 0.03265 0.0
H2383 H 0.05239 0.25026 0.00548 0.0
C2384 C 0.06235 0.30432 0.04085 0.0
C2385 C 0.06594 0.31955 0.02455 0.0
C2386 C 0.04654 0.28861 0.03846 0.0
C2387 C 0.03406 0.28785 0.01976 0.0
C2388 C 0.03789 0.30262 0.00325 0.0
H2389 H 0.94166 0.18905 0.98629 0.0
H2390 H 0.96922 0.21686 0.98486 0.0
C2391 C 0.05377 0.31825 0.00554 0.0
C2392 C 0.01608 0.27252 0.01801 0.0
H2393 H 0.0043 0.21912 0.01562 0.0
C2394 C 0.99507 0.28063 0.01783 0.0
C2395 C 0.01954 0.25015 0.01684 0.0
C2396 C 0.04185 0.24077 0.01628 0.0
C2397 C 0.97731 0.26682 0.01703 0.0
C2398 C 0.98075 0.24442 0.01649 0.0
C2399 C 0.00178 0.23634 0.01614 0.0
C2400 C 0.96277 0.229 0.01671 0.0
C2401 C 0.95501 0.27624 0.01672 0.0
C2402 C 0.94989 0.22686 0.03504 0.0
C2403 C 0.93414 0.21094 0.03599 0.0
C2404 C 0.931 0.19689 0.01859 0.0
C2405 C 0.94353 0.19961 -3e-05 0.0
C2406 C 0.95935 0.21545 0.99911 0.0
H2407 H 0.95516 0.29358 0.01254 0.0
H2408 H 0.94469 0.26759 0.00506 0.0
H2409 H 0.94769 0.27448 0.03286 0.0
H2410 H 0.9525 0.23705 0.04888 0.0
H2411 H 0.92485 0.20929 0.05059 0.0
H2412 H 0.04444 0.66295 0.52245 0.0
H2413 H 0.01776 0.69144 0.52617 0.0
H2414 H 0.05221 0.72979 0.47986 0.0
H2415 H 0.07816 0.70066 0.47505 0.0
H2416 H 0.01651 0.7308 0.53824 0.0
H2417 H 0.99524 0.72882 0.4521 0.0
H2418 H 0.01312 0.70946 0.46397 0.0
H2419 H 0.02295 0.73544 0.45579 0.0
C2420 C 0.04641 0.67756 0.51321 0.0
C2421 C 0.06319 0.67958 0.49829 0.0
C2422 C 0.03114 0.69382 0.51533 0.0
C2423 C 0.0326 0.71252 0.50283 0.0
C2424 C 0.05027 0.71517 0.48905 0.0
H2425 H 0.95784 0.82804 0.52519 0.0
H2426 H 0.98397 0.79888 0.52718 0.0
C2427 C 0.0652 0.69865 0.48647 0.0
C2428 C 0.01526 0.72884 0.50373 0.0
H2429 H 0.98127 0.75802 0.47231 0.0
C2430 C 0.00868 0.73664 0.52383 0.0
C2431 C 0.0046 0.73605 0.485 0.0
C2432 C 0.00917 0.72682 0.46305 0.0
C2433 C 0.99201 0.7517 0.5257 0.0
C2434 C 0.98232 0.75992 0.50685 0.0
C2435 C 0.98875 0.7519 0.48679 0.0
C2436 C 0.96567 0.77699 0.50728 0.0
C2437 C 0.98466 0.75809 0.54788 0.0
C2438 C 0.94685 0.77472 0.49503 0.0
C2439 C 0.93233 0.79169 0.49321 0.0
C2440 C 0.9361 0.81105 0.50406 0.0
C2441 C 0.95443 0.81309 0.51698 0.0
C2442 C 0.96929 0.79636 0.51826 0.0
H2443 H 0.98777 0.74509 0.55969 0.0
H2444 H 0.9938 0.77242 0.55317 0.0
H2445 H 0.96727 0.76195 0.54819 0.0
H2446 H 0.94365 0.75997 0.48639 0.0
H2447 H 0.91829 0.78979 0.48314 0.0
H2448 H 0.55781 0.81366 0.483 0.0
H2449 H 0.52902 0.78713 0.48096 0.0
H2450 H 0.54202 0.76758 0.54602 0.0
H2451 H 0.57086 0.79409 0.54837 0.0
H2452 H 0.53503 0.73294 0.51283 0.0
H2453 H 0.47152 0.79578 0.51696 0.0
H2454 H 0.49273 0.79963 0.49771 0.0
H2455 H 0.4987 0.80056 0.52585 0.0
C2456 C 0.5548 0.80356 0.49682 0.0
C2457 C 0.56661 0.80612 0.51592 0.0
C2458 C 0.53826 0.78849 0.49562 0.0
C2459 C 0.53332 0.77568 0.51342 0.0
C2460 C 0.54561 0.77746 0.53216 0.0
H2461 H 0.42515 0.6981 0.54955 0.0
H2462 H 0.45356 0.72503 0.54669 0.0
C2463 C 0.56208 0.79261 0.53345 0.0
C2464 C 0.51481 0.76093 0.51282 0.0
H2465 H 0.46003 0.75987 0.51334 0.0
C2466 C 0.51863 0.73877 0.51283 0.0
C2467 C 0.4935 0.76873 0.513 0.0
C2468 C 0.4887 0.79247 0.51351 0.0
C2469 C 0.50157 0.72409 0.51298 0.0
C2470 C 0.48026 0.73188 0.51308 0.0
C2471 C 0.47643 0.75405 0.51312 0.0
C2472 C 0.46178 0.71711 0.51393 0.0
C2473 C 0.50638 0.70035 0.51345 0.0
C2474 C 0.45667 0.7043 0.49619 0.0
C2475 C 0.44038 0.68899 0.49768 0.0
C2476 C 0.42899 0.68618 0.51701 0.0
C2477 C 0.4336 0.69976 0.53446 0.0
C2478 C 0.44983 0.71515 0.53288 0.0
H2479 H 0.5236 0.69704 0.51667 0.0
H2480 H 0.49654 0.69225 0.52592 0.0
H2481 H 0.50216 0.69318 0.49771 0.0
H2482 H 0.46564 0.70578 0.48137 0.0
H2483 H 0.43729 0.67884 0.48391 0.0
H2484 H 0.48653 0.54704 0.8216 0.0
H2485 H 0.48566 0.51807 0.79528 0.0
H2486 H 0.53094 0.5526 0.75576 0.0
H2487 H 0.53296 0.58097 0.7829 0.0
H2488 H 0.47416 0.51397 0.75656 0.0
H2489 H 0.56126 0.49724 0.75905 0.0
H2490 H 0.54863 0.51568 0.77738 0.0
H2491 H 0.55616 0.5243 0.75078 0.0
C2492 C 0.49623 0.54848 0.80723 0.0
C2493 C 0.50993 0.56614 0.80431 0.0
C2494 C 0.49575 0.5319 0.7922 0.0
C2495 C 0.50866 0.53282 0.77375 0.0
C2496 C 0.52146 0.55108 0.77024 0.0
H2497 H 0.48802 0.45086 0.66305 0.0
H2498 H 0.48628 0.47877 0.69042 0.0
C2499 C 0.52243 0.5674 0.78561 0.0
C2500 C 0.50871 0.51459 0.75836 0.0
H2501 H 0.54165 0.48069 0.73072 0.0
C2502 C 0.48894 0.50658 0.75106 0.0
C2503 C 0.52792 0.50453 0.75154 0.0
C2504 C 0.54965 0.51073 0.7603 0.0
C2505 C 0.48784 0.48904 0.73698 0.0
C2506 C 0.50711 0.47991 0.72906 0.0
C2507 C 0.52686 0.48776 0.73657 0.0
C2508 C 0.50731 0.46243 0.71282 0.0
C2509 C 0.46601 0.4802 0.73132 0.0
C2510 C 0.52028 0.4442 0.71584 0.0
C2511 C 0.52192 0.42859 0.69982 0.0
C2512 C 0.51021 0.4307 0.6807 0.0
C2513 C 0.49686 0.44864 0.67786 0.0
C2514 C 0.49574 0.46455 0.69359 0.0
H2515 H 0.45421 0.48334 0.74432 0.0
H2516 H 0.46004 0.4883 0.71663 0.0
H2517 H 0.46659 0.46263 0.72837 0.0
H2518 H 0.52943 0.44219 0.73048 0.0
H2519 H 0.53237 0.41492 0.70233 0.0
H2520 H 0.53178 0.94314 0.81464 0.0
H2521 H 0.53569 0.96965 0.78594 0.0
H2522 H 0.47045 0.9581 0.76611 0.0
H2523 H 0.46626 0.93158 0.79468 0.0
H2524 H 0.50382 0.96067 0.73173 0.0
H2525 H 0.50294 0.02925 0.78916 0.0
H2526 H 0.52123 0.00751 0.79449 0.0
H2527 H 0.49286 0.00301 0.79626 0.0
C2528 C 0.51831 0.94601 0.80404 0.0
C2529 C 0.49864 0.9353 0.80706 0.0
C2530 C 0.52058 0.96123 0.78772 0.0
C2531 C 0.50328 0.96591 0.77415 0.0
C2532 C 0.48394 0.95469 0.77653 0.0
H2533 H 0.46404 0.06715 0.69183 0.0
H2534 H 0.46969 0.04066 0.72016 0.0
C2535 C 0.48159 0.93957 0.79289 0.0
C2536 C 0.5049 0.9831 0.75795 0.0
H2537 H 0.50512 0.03762 0.75239 0.0
C2538 C 0.50436 0.9775 0.73617 0.0
C2539 C 0.50542 0.00498 0.76396 0.0
C2540 C 0.50553 0.01171 0.78722 0.0
C2541 C 0.50399 0.9933 0.72015 0.0
C2542 C 0.50422 0.01518 0.72617 0.0
C2543 C 0.5051 0.02079 0.74793 0.0
C2544 C 0.50185 0.0324 0.71009 0.0
C2545 C 0.50257 0.98658 0.69693 0.0
C2546 C 0.51833 0.03683 0.69544 0.0
C2547 C 0.51523 0.05203 0.67925 0.0
C2548 C 0.49553 0.06298 0.67742 0.0
C2549 C 0.47936 0.05897 0.69267 0.0
C2550 C 0.48255 0.04387 0.7089 0.0
H2551 H 0.49962 0.96908 0.69515 0.0
H2552 H 0.48949 0.99548 0.6887 0.0
H2553 H 0.51785 0.99056 0.68868 0.0
H2554 H 0.53341 0.02821 0.69629 0.0
H2555 H 0.52803 0.0547 0.66779 0.0
H2556 H 0.42646 0.30388 0.92284 0.0
H2557 H 0.45502 0.27702 0.92391 0.0
H2558 H 0.45848 0.2831 0.99273 0.0
H2559 H 0.42991 0.30993 0.99195 0.0
H2560 H 0.4971 0.28606 0.94144 0.0
H2561 H 0.45711 0.21721 0.98175 0.0
H2562 H 0.44227 0.23846 0.96873 0.0
H2563 H 0.45399 0.24282 0.99468 0.0
C2564 C 0.43296 0.29924 0.93828 0.0
C2565 C 0.42586 0.30914 0.95732 0.0
C2566 C 0.44935 0.28394 0.93882 0.0
C2567 C 0.45875 0.27804 0.95839 0.0
C2568 C 0.45122 0.28725 0.97749 0.0
H2569 H 0.56352 0.19419 0.99503 0.0
H2570 H 0.5344 0.22043 0.99434 0.0
C2571 C 0.43492 0.30264 0.97698 0.0
C2572 C 0.47747 0.26345 0.9587 0.0
H2573 H 0.49469 0.21468 0.97667 0.0
C2574 C 0.49659 0.27039 0.94903 0.0
C2575 C 0.47673 0.24317 0.9688 0.0
C2576 C 0.4564 0.23481 0.97896 0.0
C2577 C 0.51517 0.25766 0.94946 0.0
C2578 C 0.51441 0.23726 0.95941 0.0
C2579 C 0.49525 0.23035 0.96909 0.0
C2580 C 0.53317 0.22264 0.95971 0.0
C2581 C 0.53555 0.26641 0.93973 0.0
C2582 C 0.54227 0.21532 0.94046 0.0
C2583 C 0.55906 0.20044 0.94077 0.0
C2584 C 0.56688 0.19236 0.96037 0.0
C2585 C 0.55794 0.20005 0.97964 0.0
C2586 C 0.54124 0.21502 0.9793 0.0
H2587 H 0.53516 0.28421 0.93856 0.0
H2588 H 0.54981 0.26163 0.94927 0.0
H2589 H 0.53742 0.25992 0.92325 0.0
H2590 H 0.53599 0.22063 0.92515 0.0
H2591 H 0.56537 0.19475 0.92561 0.0
loop_
_geom_bond_atom_site_label_1
_geom_bond_atom_site_label_2
_geom_bond_distance
_geom_bond_site_symmetry_2
_ccdc_geom_bond_type
Mn0 O5 2.095 . S
Mn0 O15 2.162 . S
Mn0 O16 2.297 . S
Mn0 O24 2.385 1_655 S
Mn0 O25 2.209 1_655 S
Mn0 O26 2.094 . S
Mn1 O6 2.121 . S
Mn1 N8 2.257 . S
Mn1 N17 2.282 . S
Mn1 O25 2.215 . S
Mn1 O27 2.117 . S
C2 O24 1.234 . S
C2 O25 1.283 . S
C3 O15 1.281 . S
C3 O16 1.236 . S
C4 O26 1.240 . S
C4 O27 1.264 1_655 S
O5 Mn0 2.095 . S
O5 C14 1.250 1_655 S
O6 Mn1 2.121 . S
O6 C14 1.258 . S
C7 N8 1.326 . S
C7 C11 1.460 . S
C7 H13 0.929 . S
N8 Mn1 2.257 . S
N8 C7 1.326 . S
N8 C12 1.362 . S
C9 C10 1.258 . S
C9 C12 1.431 . S
C9 C29 1.449 . S
C10 C9 1.258 . S
C10 C11 1.477 . S
C10 H30 0.931 . S
C11 C7 1.460 . S
C11 C10 1.477 . S
C11 H31 0.930 . S
C12 N8 1.362 . S
C12 C9 1.431 . S
C12 C22 1.476 . S
H13 C7 0.929 . S
C14 O5 1.250 1_455 S
C14 O6 1.258 . S
O15 Mn0 2.162 . S
O15 C3 1.281 . S
O16 Mn0 2.297 . S
O16 C3 1.236 . S
N17 Mn1 2.282 . S
N17 C18 1.328 . S
N17 C22 1.318 . S
C18 N17 1.328 . S
C18 C19 1.457 . S
C18 H23 0.929 . S
C19 C18 1.457 . S
C19 C20 1.291 . S
C19 H32 0.931 . S
C20 C19 1.291 . S
C20 C21 1.373 . S
C20 H33 0.929 . S
C21 C20 1.373 . S
C21 C22 1.396 . S
C21 C28 1.403 . S
C22 C12 1.476 . S
C22 N17 1.318 . S
C22 C21 1.396 . S
H23 C18 0.929 . S
O24 Mn0 2.385 1_455 S
O24 C2 1.234 . S
O25 Mn0 2.209 1_455 S
O25 Mn1 2.215 . S
O25 C2 1.283 . S
O26 Mn0 2.094 . S
O26 C4 1.240 . S
O27 Mn1 2.117 . S
O27 C4 1.264 1_455 S
C28 C21 1.403 . S
C28 C29 1.399 . S
C28 H34 0.929 . S
C29 C9 1.449 . S
C29 C28 1.399 . S
C29 H35 0.930 . S
H30 C10 0.931 . S
H31 C11 0.930 . S
H32 C19 0.931 . S
H33 C20 0.929 . S
H34 C28 0.929 . S
H35 C29 0.930 . S
Mn36 O41 2.095 . S
Mn36 O51 2.162 . S
Mn36 O52 2.297 . S
Mn36 O60 2.385 1_455 S
Mn36 O61 2.209 1_455 S
Mn36 O62 2.094 . S
Mn37 O42 2.121 . S
Mn37 N44 2.257 . S
Mn37 N53 2.282 . S
Mn37 O61 2.215 . S
Mn37 O63 2.117 . S
C38 O60 1.234 . S
C38 O61 1.283 . S
C39 O51 1.281 . S
C39 O52 1.236 . S
C40 O62 1.240 . S
C40 O63 1.264 1_455 S
O41 Mn36 2.095 . S
O41 C50 1.250 1_455 S
O42 Mn37 2.121 . S
O42 C50 1.258 . S
C43 N44 1.326 . S
C43 C47 1.460 . S
C43 H49 0.929 . S
N44 Mn37 2.257 . S
N44 C43 1.326 . S
N44 C48 1.362 . S
C45 C46 1.258 . S
C45 C48 1.431 . S
C45 C65 1.449 . S
C46 C45 1.258 . S
C46 C47 1.477 . S
C46 H66 0.931 . S
C47 C43 1.460 . S
C47 C46 1.477 . S
C47 H67 0.930 . S
C48 N44 1.362 . S
C48 C45 1.431 . S
C48 C58 1.476 . S
H49 C43 0.929 . S
C50 O41 1.250 1_655 S
C50 O42 1.258 . S
O51 Mn36 2.162 . S
O51 C39 1.281 . S
O52 Mn36 2.297 . S
O52 C39 1.236 . S
N53 Mn37 2.282 . S
N53 C54 1.328 . S
N53 C58 1.318 . S
C54 N53 1.328 . S
C54 C55 1.457 . S
C54 H59 0.929 . S
C55 C54 1.457 . S
C55 C56 1.291 . S
C55 H68 0.931 . S
C56 C55 1.291 . S
C56 C57 1.373 . S
C56 H69 0.929 . S
C57 C56 1.373 . S
C57 C58 1.396 . S
C57 C64 1.403 . S
C58 C48 1.476 . S
C58 N53 1.318 . S
C58 C57 1.396 . S
H59 C54 0.929 . S
O60 Mn36 2.385 1_655 S
O60 C38 1.234 . S
O61 Mn36 2.209 1_655 S
O61 Mn37 2.215 . S
O61 C38 1.283 . S
O62 Mn36 2.094 . S
O62 C40 1.240 . S
O63 Mn37 2.117 . S
O63 C40 1.264 1_655 S
C64 C57 1.403 . S
C64 C65 1.399 . S
C64 H70 0.929 . S
C65 C45 1.449 . S
C65 C64 1.399 . S
C65 H71 0.930 . S
H66 C46 0.931 . S
H67 C47 0.930 . S
H68 C55 0.931 . S
H69 C56 0.929 . S
H70 C64 0.929 . S
H71 C65 0.930 . S
Mn72 O77 2.095 . S
Mn72 O87 2.162 . S
Mn72 O88 2.297 . S
Mn72 O96 2.385 1_655 S
Mn72 O97 2.209 1_655 S
Mn72 O98 2.094 . S
Mn73 O78 2.121 . S
Mn73 N80 2.257 . S
Mn73 N89 2.282 . S
Mn73 O97 2.215 . S
Mn73 O99 2.117 . S
C74 O96 1.234 . S
C74 O97 1.283 . S
C75 O87 1.281 . S
C75 O88 1.236 . S
C76 O98 1.240 . S
C76 O99 1.264 1_655 S
O77 Mn72 2.095 . S
O77 C86 1.250 1_655 S
O78 Mn73 2.121 . S
O78 C86 1.258 . S
C79 N80 1.326 . S
C79 C83 1.460 . S
C79 H85 0.929 . S
N80 Mn73 2.257 . S
N80 C79 1.326 . S
N80 C84 1.362 . S
C81 C82 1.258 . S
C81 C84 1.431 . S
C81 C101 1.449 . S
C82 C81 1.258 . S
C82 C83 1.477 . S
C82 H102 0.931 . S
C83 C79 1.460 . S
C83 C82 1.477 . S
C83 H103 0.930 . S
C84 N80 1.362 . S
C84 C81 1.431 . S
C84 C94 1.476 . S
H85 C79 0.929 . S
C86 O77 1.250 1_455 S
C86 O78 1.258 . S
O87 Mn72 2.162 . S
O87 C75 1.281 . S
O88 Mn72 2.297 . S
O88 C75 1.236 . S
N89 Mn73 2.282 . S
N89 C90 1.328 . S
N89 C94 1.318 . S
C90 N89 1.328 . S
C90 C91 1.457 . S
C90 H95 0.929 . S
C91 C90 1.457 . S
C91 C92 1.291 . S
C91 H104 0.931 . S
C92 C91 1.291 . S
C92 C93 1.373 . S
C92 H105 0.929 . S
C93 C92 1.373 . S
C93 C94 1.396 . S
C93 C100 1.403 . S
C94 C84 1.476 . S
C94 N89 1.318 . S
C94 C93 1.396 . S
H95 C90 0.929 . S
O96 Mn72 2.385 1_455 S
O96 C74 1.234 . S
O97 Mn72 2.209 1_455 S
O97 Mn73 2.215 . S
O97 C74 1.283 . S
O98 Mn72 2.094 . S
O98 C76 1.240 . S
O99 Mn73 2.117 . S
O99 C76 1.264 1_455 S
C100 C93 1.403 . S
C100 C101 1.399 . S
C100 H106 0.929 . S
C101 C81 1.449 . S
C101 C100 1.399 . S
C101 H107 0.930 . S
H102 C82 0.931 . S
H103 C83 0.930 . S
H104 C91 0.931 . S
H105 C92 0.929 . S
H106 C100 0.929 . S
H107 C101 0.930 . S
Mn108 O113 2.095 . S
Mn108 O123 2.162 . S
Mn108 O124 2.297 . S
Mn108 O132 2.385 1_455 S
Mn108 O133 2.209 1_455 S
Mn108 O134 2.094 . S
Mn109 O114 2.121 . S
Mn109 N116 2.257 . S
Mn109 N125 2.282 . S
Mn109 O133 2.215 . S
Mn109 O135 2.117 . S
C110 O132 1.234 . S
C110 O133 1.283 . S
C111 O123 1.281 . S
C111 O124 1.236 . S
C112 O134 1.240 . S
C112 O135 1.264 1_455 S
O113 Mn108 2.095 . S
O113 C122 1.250 1_455 S
O114 Mn109 2.121 . S
O114 C122 1.258 . S
C115 N116 1.326 . S
C115 C119 1.460 . S
C115 H121 0.929 . S
N116 Mn109 2.257 . S
N116 C115 1.326 . S
N116 C120 1.362 . S
C117 C118 1.258 . S
C117 C120 1.431 . S
C117 C137 1.449 . S
C118 C117 1.258 . S
C118 C119 1.477 . S
C118 H138 0.931 . S
C119 C115 1.460 . S
C119 C118 1.477 . S
C119 H139 0.930 . S
C120 N116 1.362 . S
C120 C117 1.431 . S
C120 C130 1.476 . S
H121 C115 0.929 . S
C122 O113 1.250 1_655 S
C122 O114 1.258 . S
O123 Mn108 2.162 . S
O123 C111 1.281 . S
O124 Mn108 2.297 . S
O124 C111 1.236 . S
N125 Mn109 2.282 . S
N125 C126 1.328 . S
N125 C130 1.318 . S
C126 N125 1.328 . S
C126 C127 1.457 . S
C126 H131 0.929 . S
C127 C126 1.457 . S
C127 C128 1.291 . S
C127 H140 0.931 . S
C128 C127 1.291 . S
C128 C129 1.373 . S
C128 H141 0.929 . S
C129 C128 1.373 . S
C129 C130 1.396 . S
C129 C136 1.403 . S
C130 C120 1.476 . S
C130 N125 1.318 . S
C130 C129 1.396 . S
H131 C126 0.929 . S
O132 Mn108 2.385 1_655 S
O132 C110 1.234 . S
O133 Mn108 2.209 1_655 S
O133 Mn109 2.215 . S
O133 C110 1.283 . S
O134 Mn108 2.094 . S
O134 C112 1.240 . S
O135 Mn109 2.117 . S
O135 C112 1.264 1_655 S
C136 C129 1.403 . S
C136 C137 1.399 . S
C136 H142 0.929 . S
C137 C117 1.449 . S
C137 C136 1.399 . S
C137 H143 0.930 . S
H138 C118 0.931 . S
H139 C119 0.930 . S
H140 C127 0.931 . S
H141 C128 0.929 . S
H142 C136 0.929 . S
H143 C137 0.930 . S
Mn144 O149 2.095 . S
Mn144 O159 2.162 . S
Mn144 O160 2.297 . S
Mn144 O168 2.385 1_565 S
Mn144 O169 2.209 1_565 S
Mn144 O170 2.094 . S
Mn145 O150 2.121 . S
Mn145 N152 2.257 . S
Mn145 N161 2.282 . S
Mn145 O169 2.215 . S
Mn145 O171 2.117 . S
C146 O168 1.234 . S
C146 O169 1.283 . S
C147 O159 1.281 . S
C147 O160 1.236 . S
C148 O170 1.240 . S
C148 O171 1.264 1_565 S
O149 Mn144 2.095 . S
O149 C158 1.250 1_565 S
O150 Mn145 2.121 . S
O150 C158 1.258 . S
C151 N152 1.326 . S
C151 C155 1.460 . S
C151 H157 0.929 . S
N152 Mn145 2.257 . S
N152 C151 1.326 . S
N152 C156 1.362 . S
C153 C154 1.258 . S
C153 C156 1.431 . S
C153 C173 1.449 . S
C154 C153 1.258 . S
C154 C155 1.477 . S
C154 H174 0.931 . S
C155 C151 1.460 . S
C155 C154 1.477 . S
C155 H175 0.930 . S
C156 N152 1.362 . S
C156 C153 1.431 . S
C156 C166 1.476 . S
H157 C151 0.929 . S
C158 O149 1.250 1_545 S
C158 O150 1.258 . S
O159 Mn144 2.162 . S
O159 C147 1.281 . S
O160 Mn144 2.297 . S
O160 C147 1.236 . S
N161 Mn145 2.282 . S
N161 C162 1.328 . S
N161 C166 1.318 . S
C162 N161 1.328 . S
C162 C163 1.457 . S
C162 H167 0.929 . S
C163 C162 1.457 . S
C163 C164 1.291 . S
C163 H176 0.931 . S
C164 C163 1.291 . S
C164 C165 1.373 . S
C164 H177 0.929 . S
C165 C164 1.373 . S
C165 C166 1.396 . S
C165 C172 1.403 . S
C166 C156 1.476 . S
C166 N161 1.318 . S
C166 C165 1.396 . S
H167 C162 0.929 . S
O168 Mn144 2.385 1_545 S
O168 C146 1.234 . S
O169 Mn144 2.209 1_545 S
O169 Mn145 2.215 . S
O169 C146 1.283 . S
O170 Mn144 2.094 . S
O170 C148 1.240 . S
O171 Mn145 2.117 . S
O171 C148 1.264 1_545 S
C172 C165 1.403 . S
C172 C173 1.399 . S
C172 H178 0.929 . S
C173 C153 1.449 . S
C173 C172 1.399 . S
C173 H179 0.930 . S
H174 C154 0.931 . S
H175 C155 0.930 . S
H176 C163 0.931 . S
H177 C164 0.929 . S
H178 C172 0.929 . S
H179 C173 0.930 . S
Mn180 O185 2.095 . S
Mn180 O195 2.162 . S
Mn180 O196 2.297 . S
Mn180 O204 2.385 . S
Mn180 O205 2.209 . S
Mn180 O206 2.094 . S
Mn181 O186 2.121 . S
Mn181 N188 2.257 . S
Mn181 N197 2.282 . S
Mn181 O205 2.215 . S
Mn181 O207 2.117 . S
C182 O204 1.234 . S
C182 O205 1.283 . S
C183 O195 1.281 . S
C183 O196 1.236 . S
C184 O206 1.240 . S
C184 O207 1.264 . S
O185 Mn180 2.095 . S
O185 C194 1.250 . S
O186 Mn181 2.121 . S
O186 C194 1.258 . S
C187 N188 1.326 . S
C187 C191 1.460 . S
C187 H193 0.929 . S
N188 Mn181 2.257 . S
N188 C187 1.326 . S
N188 C192 1.362 . S
C189 C190 1.258 . S
C189 C192 1.431 . S
C189 C209 1.449 . S
C190 C189 1.258 . S
C190 C191 1.477 . S
C190 H210 0.931 . S
C191 C187 1.460 . S
C191 C190 1.477 . S
C191 H211 0.930 . S
C192 N188 1.362 . S
C192 C189 1.431 . S
C192 C202 1.476 . S
H193 C187 0.929 . S
C194 O185 1.250 . S
C194 O186 1.258 . S
O195 Mn180 2.162 . S
O195 C183 1.281 . S
O196 Mn180 2.297 . S
O196 C183 1.236 . S
N197 Mn181 2.282 . S
N197 C198 1.328 . S
N197 C202 1.318 . S
C198 N197 1.328 . S
C198 C199 1.457 . S
C198 H203 0.929 . S
C199 C198 1.457 . S
C199 C200 1.291 . S
C199 H212 0.931 . S
C200 C199 1.291 . S
C200 C201 1.373 . S
C200 H213 0.929 . S
C201 C200 1.373 . S
C201 C202 1.396 . S
C201 C208 1.403 . S
C202 C192 1.476 . S
C202 N197 1.318 . S
C202 C201 1.396 . S
H203 C198 0.929 . S
O204 Mn180 2.385 . S
O204 C182 1.234 . S
O205 Mn180 2.209 . S
O205 Mn181 2.215 . S
O205 C182 1.283 . S
O206 Mn180 2.094 . S
O206 C184 1.240 . S
O207 Mn181 2.117 . S
O207 C184 1.264 . S
C208 C201 1.403 . S
C208 C209 1.399 . S
C208 H214 0.929 . S
C209 C189 1.449 . S
C209 C208 1.399 . S
C209 H215 0.930 . S
H210 C190 0.931 . S
H211 C191 0.930 . S
H212 C199 0.931 . S
H213 C200 0.929 . S
H214 C208 0.929 . S
H215 C209 0.930 . S
Mn216 O221 2.095 . S
Mn216 O231 2.162 . S
Mn216 O232 2.297 . S
Mn216 O240 2.385 1_545 S
Mn216 O241 2.209 1_545 S
Mn216 O242 2.094 . S
Mn217 O222 2.121 . S
Mn217 N224 2.257 . S
Mn217 N233 2.282 . S
Mn217 O241 2.215 . S
Mn217 O243 2.117 . S
C218 O240 1.234 . S
C218 O241 1.283 . S
C219 O231 1.281 . S
C219 O232 1.236 . S
C220 O242 1.240 . S
C220 O243 1.264 1_545 S
O221 Mn216 2.095 . S
O221 C230 1.250 1_545 S
O222 Mn217 2.121 . S
O222 C230 1.258 . S
C223 N224 1.326 . S
C223 C227 1.460 . S
C223 H229 0.929 . S
N224 Mn217 2.257 . S
N224 C223 1.326 . S
N224 C228 1.362 . S
C225 C226 1.258 . S
C225 C228 1.431 . S
C225 C245 1.449 . S
C226 C225 1.258 . S
C226 C227 1.477 . S
C226 H246 0.931 . S
C227 C223 1.460 . S
C227 C226 1.477 . S
C227 H247 0.930 . S
C228 N224 1.362 . S
C228 C225 1.431 . S
C228 C238 1.476 . S
H229 C223 0.929 . S
C230 O221 1.250 1_565 S
C230 O222 1.258 . S
O231 Mn216 2.162 . S
O231 C219 1.281 . S
O232 Mn216 2.297 . S
O232 C219 1.236 . S
N233 Mn217 2.282 . S
N233 C234 1.328 . S
N233 C238 1.318 . S
C234 N233 1.328 . S
C234 C235 1.457 . S
C234 H239 0.929 . S
C235 C234 1.457 . S
C235 C236 1.291 . S
C235 H248 0.931 . S
C236 C235 1.291 . S
C236 C237 1.373 . S
C236 H249 0.929 . S
C237 C236 1.373 . S
C237 C238 1.396 . S
C237 C244 1.403 . S
C238 C228 1.476 . S
C238 N233 1.318 . S
C238 C237 1.396 . S
H239 C234 0.929 . S
O240 Mn216 2.385 1_565 S
O240 C218 1.234 . S
O241 Mn216 2.209 1_565 S
O241 Mn217 2.215 . S
O241 C218 1.283 . S
O242 Mn216 2.094 . S
O242 C220 1.240 . S
O243 Mn217 2.117 . S
O243 C220 1.264 1_565 S
C244 C237 1.403 . S
C244 C245 1.399 . S
C244 H250 0.929 . S
C245 C225 1.449 . S
C245 C244 1.399 . S
C245 H251 0.930 . S
H246 C226 0.931 . S
H247 C227 0.930 . S
H248 C235 0.931 . S
H249 C236 0.929 . S
H250 C244 0.929 . S
H251 C245 0.930 . S
Mn252 O257 2.095 . S
Mn252 O267 2.162 . S
Mn252 O268 2.297 . S
Mn252 O276 2.385 . S
Mn252 O277 2.209 . S
Mn252 O278 2.094 . S
Mn253 O258 2.121 . S
Mn253 N260 2.257 . S
Mn253 N269 2.282 . S
Mn253 O277 2.215 . S
Mn253 O279 2.117 . S
C254 O276 1.234 . S
C254 O277 1.283 . S
C255 O267 1.281 . S
C255 O268 1.236 . S
C256 O278 1.240 . S
C256 O279 1.264 . S
O257 Mn252 2.095 . S
O257 C266 1.250 . S
O258 Mn253 2.121 . S
O258 C266 1.258 . S
C259 N260 1.326 . S
C259 C263 1.460 . S
C259 H265 0.929 . S
N260 Mn253 2.257 . S
N260 C259 1.326 . S
N260 C264 1.362 . S
C261 C262 1.258 . S
C261 C264 1.431 . S
C261 C281 1.449 . S
C262 C261 1.258 . S
C262 C263 1.477 . S
C262 H282 0.931 . S
C263 C259 1.460 . S
C263 C262 1.477 . S
C263 H283 0.930 . S
C264 N260 1.362 . S
C264 C261 1.431 . S
C264 C274 1.476 . S
H265 C259 0.929 . S
C266 O257 1.250 . S
C266 O258 1.258 . S
O267 Mn252 2.162 . S
O267 C255 1.281 . S
O268 Mn252 2.297 . S
O268 C255 1.236 . S
N269 Mn253 2.282 . S
N269 C270 1.328 . S
N269 C274 1.318 . S
C270 N269 1.328 . S
C270 C271 1.457 . S
C270 H275 0.929 . S
C271 C270 1.457 . S
C271 C272 1.291 . S
C271 H284 0.931 . S
C272 C271 1.291 . S
C272 C273 1.373 . S
C272 H285 0.929 . S
C273 C272 1.373 . S
C273 C274 1.396 . S
C273 C280 1.403 . S
C274 C264 1.476 . S
C274 N269 1.318 . S
C274 C273 1.396 . S
H275 C270 0.929 . S
O276 Mn252 2.385 . S
O276 C254 1.234 . S
O277 Mn252 2.209 . S
O277 Mn253 2.215 . S
O277 C254 1.283 . S
O278 Mn252 2.094 . S
O278 C256 1.240 . S
O279 Mn253 2.117 . S
O279 C256 1.264 . S
C280 C273 1.403 . S
C280 C281 1.399 . S
C280 H286 0.929 . S
C281 C261 1.449 . S
C281 C280 1.399 . S
C281 H287 0.930 . S
H282 C262 0.931 . S
H283 C263 0.930 . S
H284 C271 0.931 . S
H285 C272 0.929 . S
H286 C280 0.929 . S
H287 C281 0.930 . S
Mn288 O293 2.095 . S
Mn288 O303 2.162 . S
Mn288 O304 2.297 . S
Mn288 O312 2.385 1_556 S
Mn288 O313 2.209 1_556 S
Mn288 O314 2.094 . S
Mn289 O294 2.121 . S
Mn289 N296 2.257 . S
Mn289 N305 2.282 . S
Mn289 O313 2.215 . S
Mn289 O315 2.117 . S
C290 O312 1.234 . S
C290 O313 1.283 . S
C291 O303 1.281 . S
C291 O304 1.236 . S
C292 O314 1.240 . S
C292 O315 1.264 1_556 S
O293 Mn288 2.095 . S
O293 C302 1.250 1_556 S
O294 Mn289 2.121 . S
O294 C302 1.258 . S
C295 N296 1.326 . S
C295 C299 1.460 . S
C295 H301 0.929 . S
N296 Mn289 2.257 . S
N296 C295 1.326 . S
N296 C300 1.362 . S
C297 C298 1.258 . S
C297 C300 1.431 . S
C297 C317 1.449 . S
C298 C297 1.258 . S
C298 C299 1.477 . S
C298 H318 0.931 . S
C299 C295 1.460 . S
C299 C298 1.477 . S
C299 H319 0.930 . S
C300 N296 1.362 . S
C300 C297 1.431 . S
C300 C310 1.476 . S
H301 C295 0.929 . S
C302 O293 1.250 1_554 S
C302 O294 1.258 . S
O303 Mn288 2.162 . S
O303 C291 1.281 . S
O304 Mn288 2.297 . S
O304 C291 1.236 . S
N305 Mn289 2.282 . S
N305 C306 1.328 . S
N305 C310 1.318 . S
C306 N305 1.328 . S
C306 C307 1.457 . S
C306 H311 0.929 . S
C307 C306 1.457 . S
C307 C308 1.291 . S
C307 H320 0.931 . S
C308 C307 1.291 . S
C308 C309 1.373 . S
C308 H321 0.929 . S
C309 C308 1.373 . S
C309 C310 1.396 . S
C309 C316 1.403 . S
C310 C300 1.476 . S
C310 N305 1.318 . S
C310 C309 1.396 . S
H311 C306 0.929 . S
O312 Mn288 2.385 1_554 S
O312 C290 1.234 . S
O313 Mn288 2.209 1_554 S
O313 Mn289 2.215 . S
O313 C290 1.283 . S
O314 Mn288 2.094 . S
O314 C292 1.240 . S
O315 Mn289 2.117 . S
O315 C292 1.264 1_554 S
C316 C309 1.403 . S
C316 C317 1.399 . S
C316 H322 0.929 . S
C317 C297 1.449 . S
C317 C316 1.399 . S
C317 H323 0.930 . S
H318 C298 0.931 . S
H319 C299 0.930 . S
H320 C307 0.931 . S
H321 C308 0.929 . S
H322 C316 0.929 . S
H323 C317 0.930 . S
Mn324 O329 2.095 . S
Mn324 O339 2.162 . S
Mn324 O340 2.297 . S
Mn324 O348 2.385 . S
Mn324 O349 2.209 . S
Mn324 O350 2.094 . S
Mn325 O330 2.121 . S
Mn325 N332 2.257 . S
Mn325 N341 2.282 . S
Mn325 O349 2.215 . S
Mn325 O351 2.117 . S
C326 O348 1.234 . S
C326 O349 1.283 . S
C327 O339 1.281 . S
C327 O340 1.236 . S
C328 O350 1.240 . S
C328 O351 1.264 . S
O329 Mn324 2.095 . S
O329 C338 1.250 . S
O330 Mn325 2.121 . S
O330 C338 1.258 . S
C331 N332 1.326 . S
C331 C335 1.460 . S
C331 H337 0.929 . S
N332 Mn325 2.257 . S
N332 C331 1.326 . S
N332 C336 1.362 . S
C333 C334 1.258 . S
C333 C336 1.431 . S
C333 C353 1.449 . S
C334 C333 1.258 . S
C334 C335 1.477 . S
C334 H354 0.931 . S
C335 C331 1.460 . S
C335 C334 1.477 . S
C335 H355 0.930 . S
C336 N332 1.362 . S
C336 C333 1.431 . S
C336 C346 1.476 . S
H337 C331 0.929 . S
C338 O329 1.250 . S
C338 O330 1.258 . S
O339 Mn324 2.162 . S
O339 C327 1.281 . S
O340 Mn324 2.297 . S
O340 C327 1.236 . S
N341 Mn325 2.282 . S
N341 C342 1.328 . S
N341 C346 1.318 . S
C342 N341 1.328 . S
C342 C343 1.457 . S
C342 H347 0.929 . S
C343 C342 1.457 . S
C343 C344 1.291 . S
C343 H356 0.931 . S
C344 C343 1.291 . S
C344 C345 1.373 . S
C344 H357 0.929 . S
C345 C344 1.373 . S
C345 C346 1.396 . S
C345 C352 1.403 . S
C346 C336 1.476 . S
C346 N341 1.318 . S
C346 C345 1.396 . S
H347 C342 0.929 . S
O348 Mn324 2.385 . S
O348 C326 1.234 . S
O349 Mn324 2.209 . S
O349 Mn325 2.215 . S
O349 C326 1.283 . S
O350 Mn324 2.094 . S
O350 C328 1.240 . S
O351 Mn325 2.117 . S
O351 C328 1.264 . S
C352 C345 1.403 . S
C352 C353 1.399 . S
C352 H358 0.929 . S
C353 C333 1.449 . S
C353 C352 1.399 . S
C353 H359 0.930 . S
H354 C334 0.931 . S
H355 C335 0.930 . S
H356 C343 0.931 . S
H357 C344 0.929 . S
H358 C352 0.929 . S
H359 C353 0.930 . S
Mn360 O365 2.095 . S
Mn360 O375 2.162 . S
Mn360 O376 2.297 . S
Mn360 O384 2.385 . S
Mn360 O385 2.209 . S
Mn360 O386 2.094 . S
Mn361 O366 2.121 . S
Mn361 N368 2.257 . S
Mn361 N377 2.282 . S
Mn361 O385 2.215 . S
Mn361 O387 2.117 . S
C362 O384 1.234 . S
C362 O385 1.283 . S
C363 O375 1.281 . S
C363 O376 1.236 . S
C364 O386 1.240 . S
C364 O387 1.264 . S
O365 Mn360 2.095 . S
O365 C374 1.250 . S
O366 Mn361 2.121 . S
O366 C374 1.258 . S
C367 N368 1.326 . S
C367 C371 1.460 . S
C367 H373 0.929 . S
N368 Mn361 2.257 . S
N368 C367 1.326 . S
N368 C372 1.362 . S
C369 C370 1.258 . S
C369 C372 1.431 . S
C369 C389 1.449 . S
C370 C369 1.258 . S
C370 C371 1.477 . S
C370 H390 0.931 . S
C371 C367 1.460 . S
C371 C370 1.477 . S
C371 H391 0.930 . S
C372 N368 1.362 . S
C372 C369 1.431 . S
C372 C382 1.476 . S
H373 C367 0.929 . S
C374 O365 1.250 . S
C374 O366 1.258 . S
O375 Mn360 2.162 . S
O375 C363 1.281 . S
O376 Mn360 2.297 . S
O376 C363 1.236 . S
N377 Mn361 2.282 . S
N377 C378 1.328 . S
N377 C382 1.318 . S
C378 N377 1.328 . S
C378 C379 1.457 . S
C378 H383 0.929 . S
C379 C378 1.457 . S
C379 C380 1.291 . S
C379 H392 0.931 . S
C380 C379 1.291 . S
C380 C381 1.373 . S
C380 H393 0.929 . S
C381 C380 1.373 . S
C381 C382 1.396 . S
C381 C388 1.403 . S
C382 C372 1.476 . S
C382 N377 1.318 . S
C382 C381 1.396 . S
H383 C378 0.929 . S
O384 Mn360 2.385 . S
O384 C362 1.234 . S
O385 Mn360 2.209 . S
O385 Mn361 2.215 . S
O385 C362 1.283 . S
O386 Mn360 2.094 . S
O386 C364 1.240 . S
O387 Mn361 2.117 . S
O387 C364 1.264 . S
C388 C381 1.403 . S
C388 C389 1.399 . S
C388 H394 0.929 . S
C389 C369 1.449 . S
C389 C388 1.399 . S
C389 H395 0.930 . S
H390 C370 0.931 . S
H391 C371 0.930 . S
H392 C379 0.931 . S
H393 C380 0.929 . S
H394 C388 0.929 . S
H395 C389 0.930 . S
Mn396 O401 2.095 . S
Mn396 O411 2.162 . S
Mn396 O412 2.297 . S
Mn396 O420 2.385 . S
Mn396 O421 2.209 . S
Mn396 O422 2.094 . S
Mn397 O402 2.121 . S
Mn397 N404 2.257 . S
Mn397 N413 2.282 . S
Mn397 O421 2.215 . S
Mn397 O423 2.117 . S
C398 O420 1.234 . S
C398 O421 1.283 . S
C399 O411 1.281 . S
C399 O412 1.236 . S
C400 O422 1.240 . S
C400 O423 1.264 . S
O401 Mn396 2.095 . S
O401 C410 1.250 . S
O402 Mn397 2.121 . S
O402 C410 1.258 . S
C403 N404 1.326 . S
C403 C407 1.460 . S
C403 H409 0.929 . S
N404 Mn397 2.257 . S
N404 C403 1.326 . S
N404 C408 1.362 . S
C405 C406 1.258 . S
C405 C408 1.431 . S
C405 C425 1.449 . S
C406 C405 1.258 . S
C406 C407 1.477 . S
C406 H426 0.931 . S
C407 C403 1.460 . S
C407 C406 1.477 . S
C407 H427 0.930 . S
C408 N404 1.362 . S
C408 C405 1.431 . S
C408 C418 1.476 . S
H409 C403 0.929 . S
C410 O401 1.250 . S
C410 O402 1.258 . S
O411 Mn396 2.162 . S
O411 C399 1.281 . S
O412 Mn396 2.297 . S
O412 C399 1.236 . S
N413 Mn397 2.282 . S
N413 C414 1.328 . S
N413 C418 1.318 . S
C414 N413 1.328 . S
C414 C415 1.457 . S
C414 H419 0.929 . S
C415 C414 1.457 . S
C415 C416 1.291 . S
C415 H428 0.931 . S
C416 C415 1.291 . S
C416 C417 1.373 . S
C416 H429 0.929 . S
C417 C416 1.373 . S
C417 C418 1.396 . S
C417 C424 1.403 . S
C418 C408 1.476 . S
C418 N413 1.318 . S
C418 C417 1.396 . S
H419 C414 0.929 . S
O420 Mn396 2.385 . S
O420 C398 1.234 . S
O421 Mn396 2.209 . S
O421 Mn397 2.215 . S
O421 C398 1.283 . S
O422 Mn396 2.094 . S
O422 C400 1.240 . S
O423 Mn397 2.117 . S
O423 C400 1.264 . S
C424 C417 1.403 . S
C424 C425 1.399 . S
C424 H430 0.929 . S
C425 C405 1.449 . S
C425 C424 1.399 . S
C425 H431 0.930 . S
H426 C406 0.931 . S
H427 C407 0.930 . S
H428 C415 0.931 . S
H429 C416 0.929 . S
H430 C424 0.929 . S
H431 C425 0.930 . S
Mn432 O437 2.095 . S
Mn432 O447 2.162 . S
Mn432 O448 2.297 . S
Mn432 O456 2.385 . S
Mn432 O457 2.209 . S
Mn432 O458 2.094 . S
Mn433 O438 2.121 . S
Mn433 N440 2.257 . S
Mn433 N449 2.282 . S
Mn433 O457 2.215 . S
Mn433 O459 2.117 . S
C434 O456 1.234 . S
C434 O457 1.283 . S
C435 O447 1.281 . S
C435 O448 1.236 . S
C436 O458 1.240 . S
C436 O459 1.264 . S
O437 Mn432 2.095 . S
O437 C446 1.250 . S
O438 Mn433 2.121 . S
O438 C446 1.258 . S
C439 N440 1.326 . S
C439 C443 1.460 . S
C439 H445 0.929 . S
N440 Mn433 2.257 . S
N440 C439 1.326 . S
N440 C444 1.362 . S
C441 C442 1.258 . S
C441 C444 1.431 . S
C441 C461 1.449 . S
C442 C441 1.258 . S
C442 C443 1.477 . S
C442 H462 0.931 . S
C443 C439 1.460 . S
C443 C442 1.477 . S
C443 H463 0.930 . S
C444 N440 1.362 . S
C444 C441 1.431 . S
C444 C454 1.476 . S
H445 C439 0.929 . S
C446 O437 1.250 . S
C446 O438 1.258 . S
O447 Mn432 2.162 . S
O447 C435 1.281 . S
O448 Mn432 2.297 . S
O448 C435 1.236 . S
N449 Mn433 2.282 . S
N449 C450 1.328 . S
N449 C454 1.318 . S
C450 N449 1.328 . S
C450 C451 1.457 . S
C450 H455 0.929 . S
C451 C450 1.457 . S
C451 C452 1.291 . S
C451 H464 0.931 . S
C452 C451 1.291 . S
C452 C453 1.373 . S
C452 H465 0.929 . S
C453 C452 1.373 . S
C453 C454 1.396 . S
C453 C460 1.403 . S
C454 C444 1.476 . S
C454 N449 1.318 . S
C454 C453 1.396 . S
H455 C450 0.929 . S
O456 Mn432 2.385 . S
O456 C434 1.234 . S
O457 Mn432 2.209 . S
O457 Mn433 2.215 . S
O457 C434 1.283 . S
O458 Mn432 2.094 . S
O458 C436 1.240 . S
O459 Mn433 2.117 . S
O459 C436 1.264 . S
C460 C453 1.403 . S
C460 C461 1.399 . S
C460 H466 0.929 . S
C461 C441 1.449 . S
C461 C460 1.399 . S
C461 H467 0.930 . S
H462 C442 0.931 . S
H463 C443 0.930 . S
H464 C451 0.931 . S
H465 C452 0.929 . S
H466 C460 0.929 . S
H467 C461 0.930 . S
Mn468 O473 2.095 . S
Mn468 O483 2.162 . S
Mn468 O484 2.297 . S
Mn468 O492 2.385 . S
Mn468 O493 2.209 . S
Mn468 O494 2.094 . S
Mn469 O474 2.121 . S
Mn469 N476 2.257 . S
Mn469 N485 2.282 . S
Mn469 O493 2.215 . S
Mn469 O495 2.117 . S
C470 O492 1.234 . S
C470 O493 1.283 . S
C471 O483 1.281 . S
C471 O484 1.236 . S
C472 O494 1.240 . S
C472 O495 1.264 . S
O473 Mn468 2.095 . S
O473 C482 1.250 . S
O474 Mn469 2.121 . S
O474 C482 1.258 . S
C475 N476 1.326 . S
C475 C479 1.460 . S
C475 H481 0.929 . S
N476 Mn469 2.257 . S
N476 C475 1.326 . S
N476 C480 1.362 . S
C477 C478 1.258 . S
C477 C480 1.431 . S
C477 C497 1.449 . S
C478 C477 1.258 . S
C478 C479 1.477 . S
C478 H498 0.931 . S
C479 C475 1.460 . S
C479 C478 1.477 . S
C479 H499 0.930 . S
C480 N476 1.362 . S
C480 C477 1.431 . S
C480 C490 1.476 . S
H481 C475 0.929 . S
C482 O473 1.250 . S
C482 O474 1.258 . S
O483 Mn468 2.162 . S
O483 C471 1.281 . S
O484 Mn468 2.297 . S
O484 C471 1.236 . S
N485 Mn469 2.282 . S
N485 C486 1.328 . S
N485 C490 1.318 . S
C486 N485 1.328 . S
C486 C487 1.457 . S
C486 H491 0.929 . S
C487 C486 1.457 . S
C487 C488 1.291 . S
C487 H500 0.931 . S
C488 C487 1.291 . S
C488 C489 1.373 . S
C488 H501 0.929 . S
C489 C488 1.373 . S
C489 C490 1.396 . S
C489 C496 1.403 . S
C490 C480 1.476 . S
C490 N485 1.318 . S
C490 C489 1.396 . S
H491 C486 0.929 . S
O492 Mn468 2.385 . S
O492 C470 1.234 . S
O493 Mn468 2.209 . S
O493 Mn469 2.215 . S
O493 C470 1.283 . S
O494 Mn468 2.094 . S
O494 C472 1.240 . S
O495 Mn469 2.117 . S
O495 C472 1.264 . S
C496 C489 1.403 . S
C496 C497 1.399 . S
C496 H502 0.929 . S
C497 C477 1.449 . S
C497 C496 1.399 . S
C497 H503 0.930 . S
H498 C478 0.931 . S
H499 C479 0.930 . S
H500 C487 0.931 . S
H501 C488 0.929 . S
H502 C496 0.929 . S
H503 C497 0.930 . S
Mn504 O509 2.095 . S
Mn504 O519 2.162 . S
Mn504 O520 2.297 . S
Mn504 O528 2.385 . S
Mn504 O529 2.209 . S
Mn504 O530 2.094 . S
Mn505 O510 2.121 . S
Mn505 N512 2.257 . S
Mn505 N521 2.282 . S
Mn505 O529 2.215 . S
Mn505 O531 2.117 . S
C506 O528 1.234 . S
C506 O529 1.283 . S
C507 O519 1.281 . S
C507 O520 1.236 . S
C508 O530 1.240 . S
C508 O531 1.264 . S
O509 Mn504 2.095 . S
O509 C518 1.250 . S
O510 Mn505 2.121 . S
O510 C518 1.258 . S
C511 N512 1.326 . S
C511 C515 1.460 . S
C511 H517 0.929 . S
N512 Mn505 2.257 . S
N512 C511 1.326 . S
N512 C516 1.362 . S
C513 C514 1.258 . S
C513 C516 1.431 . S
C513 C533 1.449 . S
C514 C513 1.258 . S
C514 C515 1.477 . S
C514 H534 0.931 . S
C515 C511 1.460 . S
C515 C514 1.477 . S
C515 H535 0.930 . S
C516 N512 1.362 . S
C516 C513 1.431 . S
C516 C526 1.476 . S
H517 C511 0.929 . S
C518 O509 1.250 . S
C518 O510 1.258 . S
O519 Mn504 2.162 . S
O519 C507 1.281 . S
O520 Mn504 2.297 . S
O520 C507 1.236 . S
N521 Mn505 2.282 . S
N521 C522 1.328 . S
N521 C526 1.318 . S
C522 N521 1.328 . S
C522 C523 1.457 . S
C522 H527 0.929 . S
C523 C522 1.457 . S
C523 C524 1.291 . S
C523 H536 0.931 . S
C524 C523 1.291 . S
C524 C525 1.373 . S
C524 H537 0.929 . S
C525 C524 1.373 . S
C525 C526 1.396 . S
C525 C532 1.403 . S
C526 C516 1.476 . S
C526 N521 1.318 . S
C526 C525 1.396 . S
H527 C522 0.929 . S
O528 Mn504 2.385 . S
O528 C506 1.234 . S
O529 Mn504 2.209 . S
O529 Mn505 2.215 . S
O529 C506 1.283 . S
O530 Mn504 2.094 . S
O530 C508 1.240 . S
O531 Mn505 2.117 . S
O531 C508 1.264 . S
C532 C525 1.403 . S
C532 C533 1.399 . S
C532 H538 0.929 . S
C533 C513 1.449 . S
C533 C532 1.399 . S
C533 H539 0.930 . S
H534 C514 0.931 . S
H535 C515 0.930 . S
H536 C523 0.931 . S
H537 C524 0.929 . S
H538 C532 0.929 . S
H539 C533 0.930 . S
Mn540 O545 2.095 . S
Mn540 O555 2.162 . S
Mn540 O556 2.297 . S
Mn540 O564 2.385 . S
Mn540 O565 2.209 . S
Mn540 O566 2.094 . S
Mn541 O546 2.121 . S
Mn541 N548 2.257 . S
Mn541 N557 2.282 . S
Mn541 O565 2.215 . S
Mn541 O567 2.117 . S
C542 O564 1.234 . S
C542 O565 1.283 . S
C543 O555 1.281 . S
C543 O556 1.236 . S
C544 O566 1.240 . S
C544 O567 1.264 . S
O545 Mn540 2.095 . S
O545 C554 1.250 . S
O546 Mn541 2.121 . S
O546 C554 1.258 . S
C547 N548 1.326 . S
C547 C551 1.460 . S
C547 H553 0.929 . S
N548 Mn541 2.257 . S
N548 C547 1.326 . S
N548 C552 1.362 . S
C549 C550 1.258 . S
C549 C552 1.431 . S
C549 C569 1.449 . S
C550 C549 1.258 . S
C550 C551 1.477 . S
C550 H570 0.931 . S
C551 C547 1.460 . S
C551 C550 1.477 . S
C551 H571 0.930 . S
C552 N548 1.362 . S
C552 C549 1.431 . S
C552 C562 1.476 . S
H553 C547 0.929 . S
C554 O545 1.250 . S
C554 O546 1.258 . S
O555 Mn540 2.162 . S
O555 C543 1.281 . S
O556 Mn540 2.297 . S
O556 C543 1.236 . S
N557 Mn541 2.282 . S
N557 C558 1.328 . S
N557 C562 1.318 . S
C558 N557 1.328 . S
C558 C559 1.457 . S
C558 H563 0.929 . S
C559 C558 1.457 . S
C559 C560 1.291 . S
C559 H572 0.931 . S
C560 C559 1.291 . S
C560 C561 1.373 . S
C560 H573 0.929 . S
C561 C560 1.373 . S
C561 C562 1.396 . S
C561 C568 1.403 . S
C562 C552 1.476 . S
C562 N557 1.318 . S
C562 C561 1.396 . S
H563 C558 0.929 . S
O564 Mn540 2.385 . S
O564 C542 1.234 . S
O565 Mn540 2.209 . S
O565 Mn541 2.215 . S
O565 C542 1.283 . S
O566 Mn540 2.094 . S
O566 C544 1.240 . S
O567 Mn541 2.117 . S
O567 C544 1.264 . S
C568 C561 1.403 . S
C568 C569 1.399 . S
C568 H574 0.929 . S
C569 C549 1.449 . S
C569 C568 1.399 . S
C569 H575 0.930 . S
H570 C550 0.931 . S
H571 C551 0.930 . S
H572 C559 0.931 . S
H573 C560 0.929 . S
H574 C568 0.929 . S
H575 C569 0.930 . S
Mn576 O581 2.095 . S
Mn576 O591 2.162 . S
Mn576 O592 2.297 . S
Mn576 O600 2.385 . S
Mn576 O601 2.209 . S
Mn576 O602 2.094 . S
Mn577 O582 2.121 . S
Mn577 N584 2.257 . S
Mn577 N593 2.282 . S
Mn577 O601 2.215 . S
Mn577 O603 2.117 . S
C578 O600 1.234 . S
C578 O601 1.283 . S
C579 O591 1.281 . S
C579 O592 1.236 . S
C580 O602 1.240 . S
C580 O603 1.264 . S
O581 Mn576 2.095 . S
O581 C590 1.250 . S
O582 Mn577 2.121 . S
O582 C590 1.258 . S
C583 N584 1.326 . S
C583 C587 1.460 . S
C583 H589 0.929 . S
N584 Mn577 2.257 . S
N584 C583 1.326 . S
N584 C588 1.362 . S
C585 C586 1.258 . S
C585 C588 1.431 . S
C585 C605 1.449 . S
C586 C585 1.258 . S
C586 C587 1.477 . S
C586 H606 0.931 . S
C587 C583 1.460 . S
C587 C586 1.477 . S
C587 H607 0.930 . S
C588 N584 1.362 . S
C588 C585 1.431 . S
C588 C598 1.476 . S
H589 C583 0.929 . S
C590 O581 1.250 . S
C590 O582 1.258 . S
O591 Mn576 2.162 . S
O591 C579 1.281 . S
O592 Mn576 2.297 . S
O592 C579 1.236 . S
N593 Mn577 2.282 . S
N593 C594 1.328 . S
N593 C598 1.318 . S
C594 N593 1.328 . S
C594 C595 1.457 . S
C594 H599 0.929 . S
C595 C594 1.457 . S
C595 C596 1.291 . S
C595 H608 0.931 . S
C596 C595 1.291 . S
C596 C597 1.373 . S
C596 H609 0.929 . S
C597 C596 1.373 . S
C597 C598 1.396 . S
C597 C604 1.403 . S
C598 C588 1.476 . S
C598 N593 1.318 . S
C598 C597 1.396 . S
H599 C594 0.929 . S
O600 Mn576 2.385 . S
O600 C578 1.234 . S
O601 Mn576 2.209 . S
O601 Mn577 2.215 . S
O601 C578 1.283 . S
O602 Mn576 2.094 . S
O602 C580 1.240 . S
O603 Mn577 2.117 . S
O603 C580 1.264 . S
C604 C597 1.403 . S
C604 C605 1.399 . S
C604 H610 0.929 . S
C605 C585 1.449 . S
C605 C604 1.399 . S
C605 H611 0.930 . S
H606 C586 0.931 . S
H607 C587 0.930 . S
H608 C595 0.931 . S
H609 C596 0.929 . S
H610 C604 0.929 . S
H611 C605 0.930 . S
Mn612 O617 2.095 . S
Mn612 O627 2.162 . S
Mn612 O628 2.297 . S
Mn612 O636 2.385 1_545 S
Mn612 O637 2.209 1_545 S
Mn612 O638 2.094 . S
Mn613 O618 2.121 . S
Mn613 N620 2.257 . S
Mn613 N629 2.282 . S
Mn613 O637 2.215 . S
Mn613 O639 2.117 . S
C614 O636 1.234 . S
C614 O637 1.283 . S
C615 O627 1.281 . S
C615 O628 1.236 . S
C616 O638 1.240 . S
C616 O639 1.264 1_545 S
O617 Mn612 2.095 . S
O617 C626 1.250 1_545 S
O618 Mn613 2.121 . S
O618 C626 1.258 . S
C619 N620 1.326 . S
C619 C623 1.460 . S
C619 H625 0.929 . S
N620 Mn613 2.257 . S
N620 C619 1.326 . S
N620 C624 1.362 . S
C621 C622 1.258 . S
C621 C624 1.431 . S
C621 C641 1.449 . S
C622 C621 1.258 . S
C622 C623 1.477 . S
C622 H642 0.931 . S
C623 C619 1.460 . S
C623 C622 1.477 . S
C623 H643 0.930 . S
C624 N620 1.362 . S
C624 C621 1.431 . S
C624 C634 1.476 . S
H625 C619 0.929 . S
C626 O617 1.250 1_565 S
C626 O618 1.258 . S
O627 Mn612 2.162 . S
O627 C615 1.281 . S
O628 Mn612 2.297 . S
O628 C615 1.236 . S
N629 Mn613 2.282 . S
N629 C630 1.328 . S
N629 C634 1.318 . S
C630 N629 1.328 . S
C630 C631 1.457 . S
C630 H635 0.929 . S
C631 C630 1.457 . S
C631 C632 1.291 . S
C631 H644 0.931 . S
C632 C631 1.291 . S
C632 C633 1.373 . S
C632 H645 0.929 . S
C633 C632 1.373 . S
C633 C634 1.396 . S
C633 C640 1.403 . S
C634 C624 1.476 . S
C634 N629 1.318 . S
C634 C633 1.396 . S
H635 C630 0.929 . S
O636 Mn612 2.385 1_565 S
O636 C614 1.234 . S
O637 Mn612 2.209 1_565 S
O637 Mn613 2.215 . S
O637 C614 1.283 . S
O638 Mn612 2.094 . S
O638 C616 1.240 . S
O639 Mn613 2.117 . S
O639 C616 1.264 1_565 S
C640 C633 1.403 . S
C640 C641 1.399 . S
C640 H646 0.929 . S
C641 C621 1.449 . S
C641 C640 1.399 . S
C641 H647 0.930 . S
H642 C622 0.931 . S
H643 C623 0.930 . S
H644 C631 0.931 . S
H645 C632 0.929 . S
H646 C640 0.929 . S
H647 C641 0.930 . S
Mn648 O653 2.095 . S
Mn648 O663 2.162 . S
Mn648 O664 2.297 . S
Mn648 O672 2.385 . S
Mn648 O673 2.209 . S
Mn648 O674 2.094 . S
Mn649 O654 2.121 . S
Mn649 N656 2.257 . S
Mn649 N665 2.282 . S
Mn649 O673 2.215 . S
Mn649 O675 2.117 . S
C650 O672 1.234 . S
C650 O673 1.283 . S
C651 O663 1.281 . S
C651 O664 1.236 . S
C652 O674 1.240 . S
C652 O675 1.264 . S
O653 Mn648 2.095 . S
O653 C662 1.250 . S
O654 Mn649 2.121 . S
O654 C662 1.258 . S
C655 N656 1.326 . S
C655 C659 1.460 . S
C655 H661 0.929 . S
N656 Mn649 2.257 . S
N656 C655 1.326 . S
N656 C660 1.362 . S
C657 C658 1.258 . S
C657 C660 1.431 . S
C657 C677 1.449 . S
C658 C657 1.258 . S
C658 C659 1.477 . S
C658 H678 0.931 . S
C659 C655 1.460 . S
C659 C658 1.477 . S
C659 H679 0.930 . S
C660 N656 1.362 . S
C660 C657 1.431 . S
C660 C670 1.476 . S
H661 C655 0.929 . S
C662 O653 1.250 . S
C662 O654 1.258 . S
O663 Mn648 2.162 . S
O663 C651 1.281 . S
O664 Mn648 2.297 . S
O664 C651 1.236 . S
N665 Mn649 2.282 . S
N665 C666 1.328 . S
N665 C670 1.318 . S
C666 N665 1.328 . S
C666 C667 1.457 . S
C666 H671 0.929 . S
C667 C666 1.457 . S
C667 C668 1.291 . S
C667 H680 0.931 . S
C668 C667 1.291 . S
C668 C669 1.373 . S
C668 H681 0.929 . S
C669 C668 1.373 . S
C669 C670 1.396 . S
C669 C676 1.403 . S
C670 C660 1.476 . S
C670 N665 1.318 . S
C670 C669 1.396 . S
H671 C666 0.929 . S
O672 Mn648 2.385 . S
O672 C650 1.234 . S
O673 Mn648 2.209 . S
O673 Mn649 2.215 . S
O673 C650 1.283 . S
O674 Mn648 2.094 . S
O674 C652 1.240 . S
O675 Mn649 2.117 . S
O675 C652 1.264 . S
C676 C669 1.403 . S
C676 C677 1.399 . S
C676 H682 0.929 . S
C677 C657 1.449 . S
C677 C676 1.399 . S
C677 H683 0.930 . S
H678 C658 0.931 . S
H679 C659 0.930 . S
H680 C667 0.931 . S
H681 C668 0.929 . S
H682 C676 0.929 . S
H683 C677 0.930 . S
Mn684 O689 2.095 . S
Mn684 O699 2.162 . S
Mn684 O700 2.297 . S
Mn684 O708 2.385 1_565 S
Mn684 O709 2.209 1_565 S
Mn684 O710 2.094 . S
Mn685 O690 2.121 . S
Mn685 N692 2.257 . S
Mn685 N701 2.282 . S
Mn685 O709 2.215 . S
Mn685 O711 2.117 . S
C686 O708 1.234 . S
C686 O709 1.283 . S
C687 O699 1.281 . S
C687 O700 1.236 . S
C688 O710 1.240 . S
C688 O711 1.264 1_565 S
O689 Mn684 2.095 . S
O689 C698 1.250 1_565 S
O690 Mn685 2.121 . S
O690 C698 1.258 . S
C691 N692 1.326 . S
C691 C695 1.460 . S
C691 H697 0.929 . S
N692 Mn685 2.257 . S
N692 C691 1.326 . S
N692 C696 1.362 . S
C693 C694 1.258 . S
C693 C696 1.431 . S
C693 C713 1.449 . S
C694 C693 1.258 . S
C694 C695 1.477 . S
C694 H714 0.931 . S
C695 C691 1.460 . S
C695 C694 1.477 . S
C695 H715 0.930 . S
C696 N692 1.362 . S
C696 C693 1.431 . S
C696 C706 1.476 . S
H697 C691 0.929 . S
C698 O689 1.250 1_545 S
C698 O690 1.258 . S
O699 Mn684 2.162 . S
O699 C687 1.281 . S
O700 Mn684 2.297 . S
O700 C687 1.236 . S
N701 Mn685 2.282 . S
N701 C702 1.328 . S
N701 C706 1.318 . S
C702 N701 1.328 . S
C702 C703 1.457 . S
C702 H707 0.929 . S
C703 C702 1.457 . S
C703 C704 1.291 . S
C703 H716 0.931 . S
C704 C703 1.291 . S
C704 C705 1.373 . S
C704 H717 0.929 . S
C705 C704 1.373 . S
C705 C706 1.396 . S
C705 C712 1.403 . S
C706 C696 1.476 . S
C706 N701 1.318 . S
C706 C705 1.396 . S
H707 C702 0.929 . S
O708 Mn684 2.385 1_545 S
O708 C686 1.234 . S
O709 Mn684 2.209 1_545 S
O709 Mn685 2.215 . S
O709 C686 1.283 . S
O710 Mn684 2.094 . S
O710 C688 1.240 . S
O711 Mn685 2.117 . S
O711 C688 1.264 1_545 S
C712 C705 1.403 . S
C712 C713 1.399 . S
C712 H718 0.929 . S
C713 C693 1.449 . S
C713 C712 1.399 . S
C713 H719 0.930 . S
H714 C694 0.931 . S
H715 C695 0.930 . S
H716 C703 0.931 . S
H717 C704 0.929 . S
H718 C712 0.929 . S
H719 C713 0.930 . S
Mn720 O725 2.095 . S
Mn720 O735 2.162 . S
Mn720 O736 2.297 . S
Mn720 O744 2.385 . S
Mn720 O745 2.209 . S
Mn720 O746 2.094 . S
Mn721 O726 2.121 . S
Mn721 N728 2.257 . S
Mn721 N737 2.282 . S
Mn721 O745 2.215 . S
Mn721 O747 2.117 . S
C722 O744 1.234 . S
C722 O745 1.283 . S
C723 O735 1.281 . S
C723 O736 1.236 . S
C724 O746 1.240 . S
C724 O747 1.264 . S
O725 Mn720 2.095 . S
O725 C734 1.250 . S
O726 Mn721 2.121 . S
O726 C734 1.258 . S
C727 N728 1.326 . S
C727 C731 1.460 . S
C727 H733 0.929 . S
N728 Mn721 2.257 . S
N728 C727 1.326 . S
N728 C732 1.362 . S
C729 C730 1.258 . S
C729 C732 1.431 . S
C729 C749 1.449 . S
C730 C729 1.258 . S
C730 C731 1.477 . S
C730 H750 0.931 . S
C731 C727 1.460 . S
C731 C730 1.477 . S
C731 H751 0.930 . S
C732 N728 1.362 . S
C732 C729 1.431 . S
C732 C742 1.476 . S
H733 C727 0.929 . S
C734 O725 1.250 . S
C734 O726 1.258 . S
O735 Mn720 2.162 . S
O735 C723 1.281 . S
O736 Mn720 2.297 . S
O736 C723 1.236 . S
N737 Mn721 2.282 . S
N737 C738 1.328 . S
N737 C742 1.318 . S
C738 N737 1.328 . S
C738 C739 1.457 . S
C738 H743 0.929 . S
C739 C738 1.457 . S
C739 C740 1.291 . S
C739 H752 0.931 . S
C740 C739 1.291 . S
C740 C741 1.373 . S
C740 H753 0.929 . S
C741 C740 1.373 . S
C741 C742 1.396 . S
C741 C748 1.403 . S
C742 C732 1.476 . S
C742 N737 1.318 . S
C742 C741 1.396 . S
H743 C738 0.929 . S
O744 Mn720 2.385 . S
O744 C722 1.234 . S
O745 Mn720 2.209 . S
O745 Mn721 2.215 . S
O745 C722 1.283 . S
O746 Mn720 2.094 . S
O746 C724 1.240 . S
O747 Mn721 2.117 . S
O747 C724 1.264 . S
C748 C741 1.403 . S
C748 C749 1.399 . S
C748 H754 0.929 . S
C749 C729 1.449 . S
C749 C748 1.399 . S
C749 H755 0.930 . S
H750 C730 0.931 . S
H751 C731 0.930 . S
H752 C739 0.931 . S
H753 C740 0.929 . S
H754 C748 0.929 . S
H755 C749 0.930 . S
Mn756 O761 2.095 . S
Mn756 O771 2.162 . S
Mn756 O772 2.297 . S
Mn756 O780 2.385 1_554 S
Mn756 O781 2.209 1_554 S
Mn756 O782 2.094 . S
Mn757 O762 2.121 . S
Mn757 N764 2.257 . S
Mn757 N773 2.282 . S
Mn757 O781 2.215 . S
Mn757 O783 2.117 . S
C758 O780 1.234 . S
C758 O781 1.283 . S
C759 O771 1.281 . S
C759 O772 1.236 . S
C760 O782 1.240 . S
C760 O783 1.264 1_554 S
O761 Mn756 2.095 . S
O761 C770 1.250 1_554 S
O762 Mn757 2.121 . S
O762 C770 1.258 . S
C763 N764 1.326 . S
C763 C767 1.460 . S
C763 H769 0.929 . S
N764 Mn757 2.257 . S
N764 C763 1.326 . S
N764 C768 1.362 . S
C765 C766 1.258 . S
C765 C768 1.431 . S
C765 C785 1.449 . S
C766 C765 1.258 . S
C766 C767 1.477 . S
C766 H786 0.931 . S
C767 C763 1.460 . S
C767 C766 1.477 . S
C767 H787 0.930 . S
C768 N764 1.362 . S
C768 C765 1.431 . S
C768 C778 1.476 . S
H769 C763 0.929 . S
C770 O761 1.250 1_556 S
C770 O762 1.258 . S
O771 Mn756 2.162 . S
O771 C759 1.281 . S
O772 Mn756 2.297 . S
O772 C759 1.236 . S
N773 Mn757 2.282 . S
N773 C774 1.328 . S
N773 C778 1.318 . S
C774 N773 1.328 . S
C774 C775 1.457 . S
C774 H779 0.929 . S
C775 C774 1.457 . S
C775 C776 1.291 . S
C775 H788 0.931 . S
C776 C775 1.291 . S
C776 C777 1.373 . S
C776 H789 0.929 . S
C777 C776 1.373 . S
C777 C778 1.396 . S
C777 C784 1.403 . S
C778 C768 1.476 . S
C778 N773 1.318 . S
C778 C777 1.396 . S
H779 C774 0.929 . S
O780 Mn756 2.385 1_556 S
O780 C758 1.234 . S
O781 Mn756 2.209 1_556 S
O781 Mn757 2.215 . S
O781 C758 1.283 . S
O782 Mn756 2.094 . S
O782 C760 1.240 . S
O783 Mn757 2.117 . S
O783 C760 1.264 1_556 S
C784 C777 1.403 . S
C784 C785 1.399 . S
C784 H790 0.929 . S
C785 C765 1.449 . S
C785 C784 1.399 . S
C785 H791 0.930 . S
H786 C766 0.931 . S
H787 C767 0.930 . S
H788 C775 0.931 . S
H789 C776 0.929 . S
H790 C784 0.929 . S
H791 C785 0.930 . S
Mn792 O797 2.095 . S
Mn792 O807 2.162 . S
Mn792 O808 2.297 . S
Mn792 O816 2.385 1_554 S
Mn792 O817 2.209 1_554 S
Mn792 O818 2.094 . S
Mn793 O798 2.121 . S
Mn793 N800 2.257 . S
Mn793 N809 2.282 . S
Mn793 O817 2.215 . S
Mn793 O819 2.117 . S
C794 O816 1.234 . S
C794 O817 1.283 . S
C795 O807 1.281 . S
C795 O808 1.236 . S
C796 O818 1.240 . S
C796 O819 1.264 1_554 S
O797 Mn792 2.095 . S
O797 C806 1.250 1_554 S
O798 Mn793 2.121 . S
O798 C806 1.258 . S
C799 N800 1.326 . S
C799 C803 1.460 . S
C799 H805 0.929 . S
N800 Mn793 2.257 . S
N800 C799 1.326 . S
N800 C804 1.362 . S
C801 C802 1.258 . S
C801 C804 1.431 . S
C801 C821 1.449 . S
C802 C801 1.258 . S
C802 C803 1.477 . S
C802 H822 0.931 . S
C803 C799 1.460 . S
C803 C802 1.477 . S
C803 H823 0.930 . S
C804 N800 1.362 . S
C804 C801 1.431 . S
C804 C814 1.476 . S
H805 C799 0.929 . S
C806 O797 1.250 1_556 S
C806 O798 1.258 . S
O807 Mn792 2.162 . S
O807 C795 1.281 . S
O808 Mn792 2.297 . S
O808 C795 1.236 . S
N809 Mn793 2.282 . S
N809 C810 1.328 . S
N809 C814 1.318 . S
C810 N809 1.328 . S
C810 C811 1.457 . S
C810 H815 0.929 . S
C811 C810 1.457 . S
C811 C812 1.291 . S
C811 H824 0.931 . S
C812 C811 1.291 . S
C812 C813 1.373 . S
C812 H825 0.929 . S
C813 C812 1.373 . S
C813 C814 1.396 . S
C813 C820 1.403 . S
C814 C804 1.476 . S
C814 N809 1.318 . S
C814 C813 1.396 . S
H815 C810 0.929 . S
O816 Mn792 2.385 1_556 S
O816 C794 1.234 . S
O817 Mn792 2.209 1_556 S
O817 Mn793 2.215 . S
O817 C794 1.283 . S
O818 Mn792 2.094 . S
O818 C796 1.240 . S
O819 Mn793 2.117 . S
O819 C796 1.264 1_556 S
C820 C813 1.403 . S
C820 C821 1.399 . S
C820 H826 0.929 . S
C821 C801 1.449 . S
C821 C820 1.399 . S
C821 H827 0.930 . S
H822 C802 0.931 . S
H823 C803 0.930 . S
H824 C811 0.931 . S
H825 C812 0.929 . S
H826 C820 0.929 . S
H827 C821 0.930 . S
Mn828 O833 2.095 . S
Mn828 O843 2.162 . S
Mn828 O844 2.297 . S
Mn828 O852 2.385 1_556 S
Mn828 O853 2.209 1_556 S
Mn828 O854 2.094 . S
Mn829 O834 2.121 . S
Mn829 N836 2.257 . S
Mn829 N845 2.282 . S
Mn829 O853 2.215 . S
Mn829 O855 2.117 . S
C830 O852 1.234 . S
C830 O853 1.283 . S
C831 O843 1.281 . S
C831 O844 1.236 . S
C832 O854 1.240 . S
C832 O855 1.264 1_556 S
O833 Mn828 2.095 . S
O833 C842 1.250 1_556 S
O834 Mn829 2.121 . S
O834 C842 1.258 . S
C835 N836 1.326 . S
C835 C839 1.460 . S
C835 H841 0.929 . S
N836 Mn829 2.257 . S
N836 C835 1.326 . S
N836 C840 1.362 . S
C837 C838 1.258 . S
C837 C840 1.431 . S
C837 C857 1.449 . S
C838 C837 1.258 . S
C838 C839 1.477 . S
C838 H858 0.931 . S
C839 C835 1.460 . S
C839 C838 1.477 . S
C839 H859 0.930 . S
C840 N836 1.362 . S
C840 C837 1.431 . S
C840 C850 1.476 . S
H841 C835 0.929 . S
C842 O833 1.250 1_554 S
C842 O834 1.258 . S
O843 Mn828 2.162 . S
O843 C831 1.281 . S
O844 Mn828 2.297 . S
O844 C831 1.236 . S
N845 Mn829 2.282 . S
N845 C846 1.328 . S
N845 C850 1.318 . S
C846 N845 1.328 . S
C846 C847 1.457 . S
C846 H851 0.929 . S
C847 C846 1.457 . S
C847 C848 1.291 . S
C847 H860 0.931 . S
C848 C847 1.291 . S
C848 C849 1.373 . S
C848 H861 0.929 . S
C849 C848 1.373 . S
C849 C850 1.396 . S
C849 C856 1.403 . S
C850 C840 1.476 . S
C850 N845 1.318 . S
C850 C849 1.396 . S
H851 C846 0.929 . S
O852 Mn828 2.385 1_554 S
O852 C830 1.234 . S
O853 Mn828 2.209 1_554 S
O853 Mn829 2.215 . S
O853 C830 1.283 . S
O854 Mn828 2.094 . S
O854 C832 1.240 . S
O855 Mn829 2.117 . S
O855 C832 1.264 1_554 S
C856 C849 1.403 . S
C856 C857 1.399 . S
C856 H862 0.929 . S
C857 C837 1.449 . S
C857 C856 1.399 . S
C857 H863 0.930 . S
H858 C838 0.931 . S
H859 C839 0.930 . S
H860 C847 0.931 . S
H861 C848 0.929 . S
H862 C856 0.929 . S
H863 C857 0.930 . S
H864 C872 0.929 . S
H865 C874 0.930 . S
H866 C876 0.930 . S
H867 C879 0.929 . S
H868 C882 0.930 . S
H869 C884 0.960 . S
H870 C884 0.960 . S
H871 C884 0.960 . S
C872 H864 0.929 . S
C872 C873 1.377 . S
C872 C874 1.384 . S
C873 C872 1.377 . S
C873 C879 1.390 . S
C874 H865 0.930 . S
C874 C872 1.384 . S
C874 C875 1.372 . S
C875 C874 1.372 . S
C875 C876 1.400 . S
C875 C880 1.490 . S
C876 H866 0.930 . S
C876 C875 1.400 . S
C876 C879 1.386 . S
H877 C893 0.930 . S
H878 C894 0.931 . S
C879 H867 0.929 . S
C879 C873 1.390 . S
C879 C876 1.386 . S
C880 C875 1.490 . S
C880 C882 1.395 . S
C880 C883 1.403 . S
H881 C887 0.930 . S
C882 H868 0.930 . S
C882 C880 1.395 . S
C882 C885 1.403 . S
C883 C880 1.403 . S
C883 C884 1.524 . S
C883 C887 1.400 . S
C884 H869 0.960 . S
C884 H870 0.960 . S
C884 H871 0.960 . S
C884 C883 1.524 . S
C885 C882 1.403 . S
C885 C886 1.392 . S
C885 C889 1.495 . S
C886 C885 1.392 . S
C886 C887 1.385 . S
C886 C888 1.478 . S
C887 H881 0.930 . S
C887 C883 1.400 . S
C887 C886 1.385 . S
C888 C886 1.478 . S
C888 C890 1.381 . S
C888 C894 1.383 . S
C889 C885 1.495 . S
C889 H895 0.959 . S
C889 H896 0.961 . S
C889 H897 0.960 . S
C890 C888 1.381 . S
C890 C891 1.394 . S
C890 H898 0.930 . S
C891 C890 1.394 . S
C891 C892 1.383 . S
C891 H899 0.929 . S
C892 C891 1.383 . S
C892 C893 1.377 . S
C893 H877 0.930 . S
C893 C892 1.377 . S
C893 C894 1.379 . S
C894 H878 0.931 . S
C894 C888 1.383 . S
C894 C893 1.379 . S
H895 C889 0.959 . S
H896 C889 0.961 . S
H897 C889 0.960 . S
H898 C890 0.930 . S
H899 C891 0.929 . S
H900 C908 0.929 . S
H901 C910 0.930 . S
H902 C912 0.930 . S
H903 C915 0.929 . S
H904 C918 0.930 . S
H905 C920 0.960 . S
H906 C920 0.960 . S
H907 C920 0.960 . S
C908 H900 0.929 . S
C908 C909 1.377 . S
C908 C910 1.384 . S
C909 C908 1.377 . S
C909 C915 1.390 . S
C910 H901 0.930 . S
C910 C908 1.384 . S
C910 C911 1.372 . S
C911 C910 1.372 . S
C911 C912 1.400 . S
C911 C916 1.490 . S
C912 H902 0.930 . S
C912 C911 1.400 . S
C912 C915 1.386 . S
H913 C929 0.930 . S
H914 C930 0.931 . S
C915 H903 0.929 . S
C915 C909 1.390 . S
C915 C912 1.386 . S
C916 C911 1.490 . S
C916 C918 1.395 . S
C916 C919 1.403 . S
H917 C923 0.930 . S
C918 H904 0.930 . S
C918 C916 1.395 . S
C918 C921 1.403 . S
C919 C916 1.403 . S
C919 C920 1.524 . S
C919 C923 1.400 . S
C920 H905 0.960 . S
C920 H906 0.960 . S
C920 H907 0.960 . S
C920 C919 1.524 . S
C921 C918 1.403 . S
C921 C922 1.392 . S
C921 C925 1.495 . S
C922 C921 1.392 . S
C922 C923 1.385 . S
C922 C924 1.478 . S
C923 H917 0.930 . S
C923 C919 1.400 . S
C923 C922 1.385 . S
C924 C922 1.478 . S
C924 C926 1.381 . S
C924 C930 1.383 . S
C925 C921 1.495 . S
C925 H931 0.959 . S
C925 H932 0.961 . S
C925 H933 0.960 . S
C926 C924 1.381 . S
C926 C927 1.394 . S
C926 H934 0.930 . S
C927 C926 1.394 . S
C927 C928 1.383 . S
C927 H935 0.929 . S
C928 C927 1.383 . S
C928 C929 1.377 . S
C929 H913 0.930 . S
C929 C928 1.377 . S
C929 C930 1.379 . S
C930 H914 0.931 . S
C930 C924 1.383 . S
C930 C929 1.379 . S
H931 C925 0.959 . S
H932 C925 0.961 . S
H933 C925 0.960 . S
H934 C926 0.930 . S
H935 C927 0.929 . S
H936 C944 0.929 . S
H937 C946 0.930 . S
H938 C948 0.930 . S
H939 C951 0.929 . S
H940 C954 0.930 . S
H941 C956 0.960 . S
H942 C956 0.960 . S
H943 C956 0.960 . S
C944 H936 0.929 . S
C944 C945 1.377 . S
C944 C946 1.384 . S
C945 C944 1.377 . S
C945 C951 1.390 . S
C946 H937 0.930 . S
C946 C944 1.384 . S
C946 C947 1.372 . S
C947 C946 1.372 . S
C947 C948 1.400 . S
C947 C952 1.490 . S
C948 H938 0.930 . S
C948 C947 1.400 . S
C948 C951 1.386 . S
H949 C965 0.930 . S
H950 C966 0.931 . S
C951 H939 0.929 . S
C951 C945 1.390 . S
C951 C948 1.386 . S
C952 C947 1.490 . S
C952 C954 1.395 . S
C952 C955 1.403 . S
H953 C959 0.930 1_556 S
C954 H940 0.930 . S
C954 C952 1.395 . S
C954 C957 1.403 . S
C955 C952 1.403 . S
C955 C956 1.524 . S
C955 C959 1.400 . S
C956 H941 0.960 . S
C956 H942 0.960 . S
C956 H943 0.960 . S
C956 C955 1.524 . S
C957 C954 1.403 . S
C957 C958 1.392 . S
C957 C961 1.495 . S
C958 C957 1.392 . S
C958 C959 1.385 . S
C958 C960 1.478 1_554 S
C959 H953 0.930 1_554 S
C959 C955 1.400 . S
C959 C958 1.385 . S
C960 C958 1.478 1_556 S
C960 C962 1.381 . S
C960 C966 1.383 . S
C961 C957 1.495 . S
C961 H967 0.959 . S
C961 H968 0.961 . S
C961 H969 0.960 . S
C962 C960 1.381 . S
C962 C963 1.394 . S
C962 H970 0.930 . S
C963 C962 1.394 . S
C963 C964 1.383 . S
C963 H971 0.929 . S
C964 C963 1.383 . S
C964 C965 1.377 . S
C965 H949 0.930 . S
C965 C964 1.377 . S
C965 C966 1.379 . S
C966 H950 0.931 . S
C966 C960 1.383 . S
C966 C965 1.379 . S
H967 C961 0.959 . S
H968 C961 0.961 . S
H969 C961 0.960 . S
H970 C962 0.930 . S
H971 C963 0.929 . S
H972 C980 0.929 . S
H973 C982 0.930 . S
H974 C984 0.930 . S
H975 C987 0.929 . S
H976 C990 0.930 . S
H977 C992 0.960 . S
H978 C992 0.960 . S
H979 C992 0.960 . S
C980 H972 0.929 . S
C980 C981 1.377 . S
C980 C982 1.384 . S
C981 C980 1.377 . S
C981 C987 1.390 . S
C982 H973 0.930 . S
C982 C980 1.384 . S
C982 C983 1.372 . S
C983 C982 1.372 . S
C983 C984 1.400 . S
C983 C988 1.490 . S
C984 H974 0.930 . S
C984 C983 1.400 . S
C984 C987 1.386 . S
H985 C1001 0.930 . S
H986 C1002 0.931 . S
C987 H975 0.929 . S
C987 C981 1.390 . S
C987 C984 1.386 . S
C988 C983 1.490 . S
C988 C990 1.395 . S
C988 C991 1.403 . S
H989 C995 0.928 . S
C990 H976 0.930 . S
C990 C988 1.395 . S
C990 C993 1.403 . S
C991 C988 1.403 . S
C991 C992 1.524 . S
C991 C995 1.400 . S
C992 H977 0.960 . S
C992 H978 0.960 . S
C992 H979 0.960 . S
C992 C991 1.524 . S
C993 C990 1.403 . S
C993 C994 1.392 . S
C993 C997 1.495 . S
C994 C993 1.392 . S
C994 C995 1.385 . S
C994 C996 1.478 1_554 S
C995 H989 0.928 . S
C995 C991 1.400 . S
C995 C994 1.385 . S
C996 C994 1.478 1_556 S
C996 C998 1.381 . S
C996 C1002 1.383 . S
C997 C993 1.495 . S
C997 H1003 0.959 . S
C997 H1004 0.961 . S
C997 H1005 0.960 . S
C998 C996 1.381 . S
C998 C999 1.394 . S
C998 H1006 0.930 . S
C999 C998 1.394 . S
C999 C1000 1.383 . S
C999 H1007 0.929 . S
C1000 C999 1.383 . S
C1000 C1001 1.377 . S
C1001 H985 0.930 . S
C1001 C1000 1.377 . S
C1001 C1002 1.379 . S
C1002 H986 0.931 . S
C1002 C996 1.383 . S
C1002 C1001 1.379 . S
H1003 C997 0.959 . S
H1004 C997 0.961 . S
H1005 C997 0.960 . S
H1006 C998 0.930 . S
H1007 C999 0.929 . S
H1008 C1016 0.929 . S
H1009 C1018 0.930 . S
H1010 C1020 0.930 . S
H1011 C1023 0.929 . S
H1012 C1026 0.930 . S
H1013 C1028 0.960 . S
H1014 C1028 0.960 . S
H1015 C1028 0.960 . S
C1016 H1008 0.929 . S
C1016 C1017 1.377 . S
C1016 C1018 1.384 . S
C1017 C1016 1.377 . S
C1017 C1023 1.390 . S
C1018 H1009 0.930 . S
C1018 C1016 1.384 . S
C1018 C1019 1.372 . S
C1019 C1018 1.372 . S
C1019 C1020 1.400 . S
C1019 C1024 1.490 . S
C1020 H1010 0.930 . S
C1020 C1019 1.400 . S
C1020 C1023 1.386 . S
H1021 C1037 0.930 . S
H1022 C1038 0.931 . S
C1023 H1011 0.929 . S
C1023 C1017 1.390 . S
C1023 C1020 1.386 . S
C1024 C1019 1.490 . S
C1024 C1026 1.395 . S
C1024 C1027 1.403 . S
H1025 C1031 0.930 . S
C1026 H1012 0.930 . S
C1026 C1024 1.395 . S
C1026 C1029 1.403 . S
C1027 C1024 1.403 . S
C1027 C1028 1.524 . S
C1027 C1031 1.400 . S
C1028 H1013 0.960 . S
C1028 H1014 0.960 . S
C1028 H1015 0.960 . S
C1028 C1027 1.524 . S
C1029 C1026 1.403 . S
C1029 C1030 1.392 . S
C1029 C1033 1.495 . S
C1030 C1029 1.392 . S
C1030 C1031 1.385 . S
C1030 C1032 1.478 . S
C1031 H1025 0.930 . S
C1031 C1027 1.400 . S
C1031 C1030 1.385 . S
C1032 C1030 1.478 . S
C1032 C1034 1.381 . S
C1032 C1038 1.383 . S
C1033 C1029 1.495 . S
C1033 H1039 0.959 . S
C1033 H1040 0.961 . S
C1033 H1041 0.960 . S
C1034 C1032 1.381 . S
C1034 C1035 1.394 . S
C1034 H1042 0.930 . S
C1035 C1034 1.394 . S
C1035 C1036 1.383 . S
C1035 H1043 0.929 . S
C1036 C1035 1.383 . S
C1036 C1037 1.377 . S
C1037 H1021 0.930 . S
C1037 C1036 1.377 . S
C1037 C1038 1.379 . S
C1038 H1022 0.931 . S
C1038 C1032 1.383 . S
C1038 C1037 1.379 . S
H1039 C1033 0.959 . S
H1040 C1033 0.961 . S
H1041 C1033 0.960 . S
H1042 C1034 0.930 . S
H1043 C1035 0.929 . S
H1044 C1052 0.929 . S
H1045 C1054 0.930 . S
H1046 C1056 0.930 . S
H1047 C1059 0.929 . S
H1048 C1062 0.930 . S
H1049 C1064 0.960 . S
H1050 C1064 0.960 . S
H1051 C1064 0.960 . S
C1052 H1044 0.929 . S
C1052 C1053 1.377 . S
C1052 C1054 1.384 . S
C1053 C1052 1.377 . S
C1053 C1059 1.390 . S
C1054 H1045 0.930 . S
C1054 C1052 1.384 . S
C1054 C1055 1.372 . S
C1055 C1054 1.372 . S
C1055 C1056 1.400 . S
C1055 C1060 1.490 . S
C1056 H1046 0.930 . S
C1056 C1055 1.400 . S
C1056 C1059 1.386 . S
H1057 C1073 0.930 . S
H1058 C1074 0.931 . S
C1059 H1047 0.929 . S
C1059 C1053 1.390 . S
C1059 C1056 1.386 . S
C1060 C1055 1.490 . S
C1060 C1062 1.395 . S
C1060 C1063 1.403 . S
H1061 C1067 0.930 . S
C1062 H1048 0.930 . S
C1062 C1060 1.395 . S
C1062 C1065 1.403 . S
C1063 C1060 1.403 . S
C1063 C1064 1.524 . S
C1063 C1067 1.400 . S
C1064 H1049 0.960 . S
C1064 H1050 0.960 . S
C1064 H1051 0.960 . S
C1064 C1063 1.524 . S
C1065 C1062 1.403 . S
C1065 C1066 1.392 . S
C1065 C1069 1.495 . S
C1066 C1065 1.392 . S
C1066 C1067 1.385 . S
C1066 C1068 1.478 . S
C1067 H1061 0.930 . S
C1067 C1063 1.400 . S
C1067 C1066 1.385 . S
C1068 C1066 1.478 . S
C1068 C1070 1.381 . S
C1068 C1074 1.383 . S
C1069 C1065 1.495 . S
C1069 H1075 0.959 . S
C1069 H1076 0.961 . S
C1069 H1077 0.960 . S
C1070 C1068 1.381 . S
C1070 C1071 1.394 . S
C1070 H1078 0.930 . S
C1071 C1070 1.394 . S
C1071 C1072 1.383 . S
C1071 H1079 0.929 . S
C1072 C1071 1.383 . S
C1072 C1073 1.377 . S
C1073 H1057 0.930 . S
C1073 C1072 1.377 . S
C1073 C1074 1.379 . S
C1074 H1058 0.931 . S
C1074 C1068 1.383 . S
C1074 C1073 1.379 . S
H1075 C1069 0.959 . S
H1076 C1069 0.961 . S
H1077 C1069 0.960 . S
H1078 C1070 0.930 . S
H1079 C1071 0.929 . S
H1080 C1088 0.929 . S
H1081 C1090 0.930 . S
H1082 C1092 0.930 . S
H1083 C1095 0.929 . S
H1084 C1098 0.930 . S
H1085 C1100 0.960 . S
H1086 C1100 0.960 . S
H1087 C1100 0.960 . S
C1088 H1080 0.929 . S
C1088 C1089 1.377 . S
C1088 C1090 1.384 . S
C1089 C1088 1.377 . S
C1089 C1095 1.390 . S
C1090 H1081 0.930 . S
C1090 C1088 1.384 . S
C1090 C1091 1.372 . S
C1091 C1090 1.372 . S
C1091 C1092 1.400 . S
C1091 C1096 1.490 . S
C1092 H1082 0.930 . S
C1092 C1091 1.400 . S
C1092 C1095 1.386 . S
H1093 C1109 0.930 . S
H1094 C1110 0.931 . S
C1095 H1083 0.929 . S
C1095 C1089 1.390 . S
C1095 C1092 1.386 . S
C1096 C1091 1.490 . S
C1096 C1098 1.395 . S
C1096 C1099 1.403 . S
H1097 C1103 0.930 . S
C1098 H1084 0.930 . S
C1098 C1096 1.395 . S
C1098 C1101 1.403 . S
C1099 C1096 1.403 . S
C1099 C1100 1.524 . S
C1099 C1103 1.400 . S
C1100 H1085 0.960 . S
C1100 H1086 0.960 . S
C1100 H1087 0.960 . S
C1100 C1099 1.524 . S
C1101 C1098 1.403 . S
C1101 C1102 1.392 . S
C1101 C1105 1.495 . S
C1102 C1101 1.392 . S
C1102 C1103 1.385 . S
C1102 C1104 1.478 . S
C1103 H1097 0.930 . S
C1103 C1099 1.400 . S
C1103 C1102 1.385 . S
C1104 C1102 1.478 . S
C1104 C1106 1.381 . S
C1104 C1110 1.383 . S
C1105 C1101 1.495 . S
C1105 H1111 0.959 . S
C1105 H1112 0.961 . S
C1105 H1113 0.960 . S
C1106 C1104 1.381 . S
C1106 C1107 1.394 . S
C1106 H1114 0.930 . S
C1107 C1106 1.394 . S
C1107 C1108 1.383 . S
C1107 H1115 0.929 . S
C1108 C1107 1.383 . S
C1108 C1109 1.377 . S
C1109 H1093 0.930 . S
C1109 C1108 1.377 . S
C1109 C1110 1.379 . S
C1110 H1094 0.931 . S
C1110 C1104 1.383 . S
C1110 C1109 1.379 . S
H1111 C1105 0.959 . S
H1112 C1105 0.961 . S
H1113 C1105 0.960 . S
H1114 C1106 0.930 . S
H1115 C1107 0.929 . S
H1116 C1124 0.929 . S
H1117 C1126 0.930 . S
H1118 C1128 0.930 . S
H1119 C1131 0.929 . S
H1120 C1134 0.930 . S
H1121 C1136 0.960 . S
H1122 C1136 0.960 . S
H1123 C1136 0.960 . S
C1124 H1116 0.929 . S
C1124 C1125 1.377 . S
C1124 C1126 1.384 . S
C1125 C1124 1.377 . S
C1125 C1131 1.390 . S
C1126 H1117 0.930 . S
C1126 C1124 1.384 . S
C1126 C1127 1.372 . S
C1127 C1126 1.372 . S
C1127 C1128 1.400 . S
C1127 C1132 1.490 . S
C1128 H1118 0.930 . S
C1128 C1127 1.400 . S
C1128 C1131 1.386 . S
H1129 C1145 0.930 . S
H1130 C1146 0.931 . S
C1131 H1119 0.929 . S
C1131 C1125 1.390 . S
C1131 C1128 1.386 . S
C1132 C1127 1.490 . S
C1132 C1134 1.395 . S
C1132 C1135 1.403 . S
H1133 C1139 0.930 . S
C1134 H1120 0.930 . S
C1134 C1132 1.395 . S
C1134 C1137 1.403 . S
C1135 C1132 1.403 . S
C1135 C1136 1.524 . S
C1135 C1139 1.400 . S
C1136 H1121 0.960 . S
C1136 H1122 0.960 . S
C1136 H1123 0.960 . S
C1136 C1135 1.524 . S
C1137 C1134 1.403 . S
C1137 C1138 1.392 . S
C1137 C1141 1.495 . S
C1138 C1137 1.392 . S
C1138 C1139 1.385 . S
C1138 C1140 1.478 . S
C1139 H1133 0.930 . S
C1139 C1135 1.400 . S
C1139 C1138 1.385 . S
C1140 C1138 1.478 . S
C1140 C1142 1.381 . S
C1140 C1146 1.383 . S
C1141 C1137 1.495 . S
C1141 H1147 0.959 . S
C1141 H1148 0.961 . S
C1141 H1149 0.960 . S
C1142 C1140 1.381 . S
C1142 C1143 1.394 . S
C1142 H1150 0.930 . S
C1143 C1142 1.394 . S
C1143 C1144 1.383 . S
C1143 H1151 0.929 . S
C1144 C1143 1.383 . S
C1144 C1145 1.377 . S
C1145 H1129 0.930 . S
C1145 C1144 1.377 . S
C1145 C1146 1.379 . S
C1146 H1130 0.931 . S
C1146 C1140 1.383 . S
C1146 C1145 1.379 . S
H1147 C1141 0.959 . S
H1148 C1141 0.961 . S
H1149 C1141 0.960 . S
H1150 C1142 0.930 . S
H1151 C1143 0.929 . S
H1152 C1160 0.929 . S
H1153 C1162 0.930 . S
H1154 C1164 0.930 . S
H1155 C1167 0.929 . S
H1156 C1170 0.930 . S
H1157 C1172 0.960 . S
H1158 C1172 0.960 . S
H1159 C1172 0.960 . S
C1160 H1152 0.929 . S
C1160 C1161 1.377 . S
C1160 C1162 1.384 . S
C1161 C1160 1.377 . S
C1161 C1167 1.390 . S
C1162 H1153 0.930 . S
C1162 C1160 1.384 . S
C1162 C1163 1.372 . S
C1163 C1162 1.372 . S
C1163 C1164 1.400 . S
C1163 C1168 1.490 . S
C1164 H1154 0.930 . S
C1164 C1163 1.400 . S
C1164 C1167 1.386 . S
H1165 C1181 0.930 . S
H1166 C1182 0.931 . S
C1167 H1155 0.929 . S
C1167 C1161 1.390 . S
C1167 C1164 1.386 . S
C1168 C1163 1.490 . S
C1168 C1170 1.395 . S
C1168 C1171 1.403 . S
H1169 C1175 0.930 . S
C1170 H1156 0.930 . S
C1170 C1168 1.395 . S
C1170 C1173 1.403 . S
C1171 C1168 1.403 . S
C1171 C1172 1.524 . S
C1171 C1175 1.400 . S
C1172 H1157 0.960 . S
C1172 H1158 0.960 . S
C1172 H1159 0.960 . S
C1172 C1171 1.524 . S
C1173 C1170 1.403 . S
C1173 C1174 1.392 . S
C1173 C1177 1.495 . S
C1174 C1173 1.392 . S
C1174 C1175 1.385 . S
C1174 C1176 1.478 . S
C1175 H1169 0.930 . S
C1175 C1171 1.400 . S
C1175 C1174 1.385 . S
C1176 C1174 1.478 . S
C1176 C1178 1.381 . S
C1176 C1182 1.383 . S
C1177 C1173 1.495 . S
C1177 H1183 0.959 . S
C1177 H1184 0.961 . S
C1177 H1185 0.960 . S
C1178 C1176 1.381 . S
C1178 C1179 1.394 . S
C1178 H1186 0.930 . S
C1179 C1178 1.394 . S
C1179 C1180 1.383 . S
C1179 H1187 0.929 . S
C1180 C1179 1.383 . S
C1180 C1181 1.377 . S
C1181 H1165 0.930 . S
C1181 C1180 1.377 . S
C1181 C1182 1.379 . S
C1182 H1166 0.931 . S
C1182 C1176 1.383 . S
C1182 C1181 1.379 . S
H1183 C1177 0.959 . S
H1184 C1177 0.961 . S
H1185 C1177 0.960 . S
H1186 C1178 0.930 . S
H1187 C1179 0.929 . S
H1188 C1196 0.929 . S
H1189 C1198 0.930 . S
H1190 C1200 0.930 . S
H1191 C1203 0.929 . S
H1192 C1206 0.930 . S
H1193 C1208 0.960 . S
H1194 C1208 0.960 . S
H1195 C1208 0.960 . S
C1196 H1188 0.929 . S
C1196 C1197 1.377 . S
C1196 C1198 1.384 . S
C1197 C1196 1.377 . S
C1197 C1203 1.390 . S
C1198 H1189 0.930 . S
C1198 C1196 1.384 . S
C1198 C1199 1.372 . S
C1199 C1198 1.372 . S
C1199 C1200 1.400 . S
C1199 C1204 1.490 . S
C1200 H1190 0.930 . S
C1200 C1199 1.400 . S
C1200 C1203 1.386 . S
H1201 C1217 0.930 . S
H1202 C1218 0.931 . S
C1203 H1191 0.929 . S
C1203 C1197 1.390 . S
C1203 C1200 1.386 . S
C1204 C1199 1.490 . S
C1204 C1206 1.395 . S
C1204 C1207 1.403 . S
H1205 C1211 0.930 . S
C1206 H1192 0.930 . S
C1206 C1204 1.395 . S
C1206 C1209 1.403 . S
C1207 C1204 1.403 . S
C1207 C1208 1.524 . S
C1207 C1211 1.400 . S
C1208 H1193 0.960 . S
C1208 H1194 0.960 . S
C1208 H1195 0.960 . S
C1208 C1207 1.524 . S
C1209 C1206 1.403 . S
C1209 C1210 1.392 . S
C1209 C1213 1.495 . S
C1210 C1209 1.392 . S
C1210 C1211 1.385 . S
C1210 C1212 1.478 . S
C1211 H1205 0.930 . S
C1211 C1207 1.400 . S
C1211 C1210 1.385 . S
C1212 C1210 1.478 . S
C1212 C1214 1.381 . S
C1212 C1218 1.383 . S
C1213 C1209 1.495 . S
C1213 H1219 0.959 . S
C1213 H1220 0.961 . S
C1213 H1221 0.960 . S
C1214 C1212 1.381 . S
C1214 C1215 1.394 . S
C1214 H1222 0.930 . S
C1215 C1214 1.394 . S
C1215 C1216 1.383 . S
C1215 H1223 0.929 . S
C1216 C1215 1.383 . S
C1216 C1217 1.377 . S
C1217 H1201 0.930 . S
C1217 C1216 1.377 . S
C1217 C1218 1.379 . S
C1218 H1202 0.931 . S
C1218 C1212 1.383 . S
C1218 C1217 1.379 . S
H1219 C1213 0.959 . S
H1220 C1213 0.961 . S
H1221 C1213 0.960 . S
H1222 C1214 0.930 . S
H1223 C1215 0.929 . S
H1224 C1232 0.929 . S
H1225 C1234 0.930 . S
H1226 C1236 0.930 . S
H1227 C1239 0.929 . S
H1228 C1242 0.930 . S
H1229 C1244 0.960 . S
H1230 C1244 0.960 . S
H1231 C1244 0.960 . S
C1232 H1224 0.929 . S
C1232 C1233 1.377 . S
C1232 C1234 1.384 . S
C1233 C1232 1.377 . S
C1233 C1239 1.390 . S
C1234 H1225 0.930 . S
C1234 C1232 1.384 . S
C1234 C1235 1.372 . S
C1235 C1234 1.372 . S
C1235 C1236 1.400 . S
C1235 C1240 1.490 . S
C1236 H1226 0.930 . S
C1236 C1235 1.400 . S
C1236 C1239 1.386 . S
H1237 C1253 0.930 . S
H1238 C1254 0.931 . S
C1239 H1227 0.929 . S
C1239 C1233 1.390 . S
C1239 C1236 1.386 . S
C1240 C1235 1.490 . S
C1240 C1242 1.395 . S
C1240 C1243 1.403 . S
H1241 C1247 0.902 1_545 S
C1242 H1228 0.930 . S
C1242 C1240 1.395 . S
C1242 C1245 1.403 . S
C1243 C1240 1.403 . S
C1243 C1244 1.524 . S
C1243 C1247 1.400 . S
C1244 H1229 0.960 . S
C1244 H1230 0.960 . S
C1244 H1231 0.960 . S
C1244 C1243 1.524 . S
C1245 C1242 1.403 . S
C1245 C1246 1.392 . S
C1245 C1249 1.495 . S
C1246 C1245 1.392 . S
C1246 C1247 1.385 . S
C1246 C1248 1.478 1_565 S
C1247 H1241 0.902 1_565 S
C1247 C1243 1.400 . S
C1247 C1246 1.385 . S
C1248 C1246 1.478 1_545 S
C1248 C1250 1.381 . S
C1248 C1254 1.383 . S
C1249 C1245 1.495 . S
C1249 H1255 0.959 . S
C1249 H1256 0.961 . S
C1249 H1257 0.960 . S
C1250 C1248 1.381 . S
C1250 C1251 1.394 . S
C1250 H1258 0.930 . S
C1251 C1250 1.394 . S
C1251 C1252 1.383 . S
C1251 H1259 0.929 . S
C1252 C1251 1.383 . S
C1252 C1253 1.377 . S
C1253 H1237 0.930 . S
C1253 C1252 1.377 . S
C1253 C1254 1.379 . S
C1254 H1238 0.931 . S
C1254 C1248 1.383 . S
C1254 C1253 1.379 . S
H1255 C1249 0.959 . S
H1256 C1249 0.961 . S
H1257 C1249 0.960 . S
H1258 C1250 0.930 . S
H1259 C1251 0.929 . S
H1260 C1268 0.929 . S
H1261 C1270 0.930 . S
H1262 C1272 0.930 . S
H1263 C1275 0.929 . S
H1264 C1278 0.930 . S
H1265 C1280 0.960 . S
H1266 C1280 0.960 . S
H1267 C1280 0.960 . S
C1268 H1260 0.929 . S
C1268 C1269 1.377 . S
C1268 C1270 1.384 . S
C1269 C1268 1.377 . S
C1269 C1275 1.390 . S
C1270 H1261 0.930 . S
C1270 C1268 1.384 . S
C1270 C1271 1.372 . S
C1271 C1270 1.372 . S
C1271 C1272 1.400 . S
C1271 C1276 1.490 . S
C1272 H1262 0.930 . S
C1272 C1271 1.400 . S
C1272 C1275 1.386 . S
H1273 C1289 0.930 . S
H1274 C1290 0.931 . S
C1275 H1263 0.929 . S
C1275 C1269 1.390 . S
C1275 C1272 1.386 . S
C1276 C1271 1.490 . S
C1276 C1278 1.395 . S
C1276 C1279 1.403 . S
H1277 C1283 0.930 . S
C1278 H1264 0.930 . S
C1278 C1276 1.395 . S
C1278 C1281 1.403 . S
C1279 C1276 1.403 . S
C1279 C1280 1.524 . S
C1279 C1283 1.400 . S
C1280 H1265 0.960 . S
C1280 H1266 0.960 . S
C1280 H1267 0.960 . S
C1280 C1279 1.524 . S
C1281 C1278 1.403 . S
C1281 C1282 1.392 . S
C1281 C1285 1.495 . S
C1282 C1281 1.392 . S
C1282 C1283 1.385 . S
C1282 C1284 1.478 . S
C1283 H1277 0.930 . S
C1283 C1279 1.400 . S
C1283 C1282 1.385 . S
C1284 C1282 1.478 . S
C1284 C1286 1.381 . S
C1284 C1290 1.383 . S
C1285 C1281 1.495 . S
C1285 H1291 0.959 . S
C1285 H1292 0.961 . S
C1285 H1293 0.960 . S
C1286 C1284 1.381 . S
C1286 C1287 1.394 . S
C1286 H1294 0.930 . S
C1287 C1286 1.394 . S
C1287 C1288 1.383 . S
C1287 H1295 0.929 . S
C1288 C1287 1.383 . S
C1288 C1289 1.377 . S
C1289 H1273 0.930 . S
C1289 C1288 1.377 . S
C1289 C1290 1.379 . S
C1290 H1274 0.931 . S
C1290 C1284 1.383 . S
C1290 C1289 1.379 . S
H1291 C1285 0.959 . S
H1292 C1285 0.961 . S
H1293 C1285 0.960 . S
H1294 C1286 0.930 . S
H1295 C1287 0.929 . S
H1296 C1304 0.929 . S
H1297 C1306 0.930 . S
H1298 C1308 0.930 . S
H1299 C1311 0.929 . S
H1300 C1314 0.930 . S
H1301 C1316 0.960 1_556 S
H1302 C1316 0.960 . S
H1303 C1316 0.960 . S
C1304 H1296 0.929 . S
C1304 C1305 1.377 . S
C1304 C1306 1.384 . S
C1305 C1304 1.377 . S
C1305 C1311 1.390 . S
C1306 H1297 0.930 . S
C1306 C1304 1.384 . S
C1306 C1307 1.372 . S
C1307 C1306 1.372 . S
C1307 C1308 1.400 . S
C1307 C1312 1.490 1_554 S
C1308 H1298 0.930 . S
C1308 C1307 1.400 . S
C1308 C1311 1.386 . S
H1309 C1325 0.930 . S
H1310 C1326 0.931 . S
C1311 H1299 0.929 . S
C1311 C1305 1.390 . S
C1311 C1308 1.386 . S
C1312 C1307 1.490 1_556 S
C1312 C1314 1.395 . S
C1312 C1315 1.403 . S
H1313 C1319 0.930 . S
C1314 H1300 0.930 . S
C1314 C1312 1.395 . S
C1314 C1317 1.403 . S
C1315 C1312 1.403 . S
C1315 C1316 1.524 1_556 S
C1315 C1319 1.400 . S
C1316 H1301 0.960 1_554 S
C1316 H1302 0.960 . S
C1316 H1303 0.960 . S
C1316 C1315 1.524 1_554 S
C1317 C1314 1.403 . S
C1317 C1318 1.392 . S
C1317 C1321 1.495 . S
C1318 C1317 1.392 . S
C1318 C1319 1.385 . S
C1318 C1320 1.478 . S
C1319 H1313 0.930 . S
C1319 C1315 1.400 . S
C1319 C1318 1.385 . S
C1320 C1318 1.478 . S
C1320 C1322 1.381 . S
C1320 C1326 1.383 . S
C1321 C1317 1.495 . S
C1321 H1327 0.959 . S
C1321 H1328 0.961 . S
C1321 H1329 0.960 . S
C1322 C1320 1.381 . S
C1322 C1323 1.394 . S
C1322 H1330 0.930 . S
C1323 C1322 1.394 . S
C1323 C1324 1.383 . S
C1323 H1331 0.929 . S
C1324 C1323 1.383 . S
C1324 C1325 1.377 . S
C1325 H1309 0.930 . S
C1325 C1324 1.377 . S
C1325 C1326 1.379 . S
C1326 H1310 0.931 . S
C1326 C1320 1.383 . S
C1326 C1325 1.379 . S
H1327 C1321 0.959 . S
H1328 C1321 0.961 . S
H1329 C1321 0.960 . S
H1330 C1322 0.930 . S
H1331 C1323 0.929 . S
H1332 C1340 0.929 . S
H1333 C1342 0.930 1_556 S
H1334 C1344 0.930 . S
H1335 C1347 0.929 . S
H1336 C1350 0.930 . S
H1337 C1352 0.960 . S
H1338 C1352 0.960 . S
H1339 C1352 0.960 . S
C1340 H1332 0.929 . S
C1340 C1341 1.377 . S
C1340 C1342 1.384 . S
C1341 C1340 1.377 . S
C1341 C1347 1.390 . S
C1342 H1333 0.930 1_554 S
C1342 C1340 1.384 . S
C1342 C1343 1.372 . S
C1343 C1342 1.372 . S
C1343 C1344 1.400 . S
C1343 C1348 1.490 1_554 S
C1344 H1334 0.930 . S
C1344 C1343 1.400 . S
C1344 C1347 1.386 . S
H1345 C1361 0.930 . S
H1346 C1362 0.931 . S
C1347 H1335 0.929 . S
C1347 C1341 1.390 . S
C1347 C1344 1.386 . S
C1348 C1343 1.490 1_556 S
C1348 C1350 1.395 . S
C1348 C1351 1.403 . S
H1349 C1355 0.930 . S
C1350 H1336 0.930 . S
C1350 C1348 1.395 . S
C1350 C1353 1.403 . S
C1351 C1348 1.403 . S
C1351 C1352 1.524 . S
C1351 C1355 1.400 . S
C1352 H1337 0.960 . S
C1352 H1338 0.960 . S
C1352 H1339 0.960 . S
C1352 C1351 1.524 . S
C1353 C1350 1.403 . S
C1353 C1354 1.392 . S
C1353 C1357 1.495 . S
C1354 C1353 1.392 . S
C1354 C1355 1.385 . S
C1354 C1356 1.478 . S
C1355 H1349 0.930 . S
C1355 C1351 1.400 . S
C1355 C1354 1.385 . S
C1356 C1354 1.478 . S
C1356 C1358 1.381 . S
C1356 C1362 1.383 . S
C1357 C1353 1.495 . S
C1357 H1363 0.959 . S
C1357 H1364 0.961 . S
C1357 H1365 0.960 . S
C1358 C1356 1.381 . S
C1358 C1359 1.394 . S
C1358 H1366 0.930 . S
C1359 C1358 1.394 . S
C1359 C1360 1.383 . S
C1359 H1367 0.929 . S
C1360 C1359 1.383 . S
C1360 C1361 1.377 . S
C1361 H1345 0.930 . S
C1361 C1360 1.377 . S
C1361 C1362 1.379 . S
C1362 H1346 0.931 . S
C1362 C1356 1.383 . S
C1362 C1361 1.379 . S
H1363 C1357 0.959 . S
H1364 C1357 0.961 . S
H1365 C1357 0.960 . S
H1366 C1358 0.930 . S
H1367 C1359 0.929 . S
H1368 C1376 0.929 . S
H1369 C1378 0.930 . S
H1370 C1380 0.930 . S
H1371 C1383 0.929 . S
H1372 C1386 0.930 . S
H1373 C1388 0.960 . S
H1374 C1388 0.960 . S
H1375 C1388 0.960 . S
C1376 H1368 0.929 . S
C1376 C1377 1.377 . S
C1376 C1378 1.384 . S
C1377 C1376 1.377 . S
C1377 C1383 1.390 . S
C1378 H1369 0.930 . S
C1378 C1376 1.384 . S
C1378 C1379 1.372 . S
C1379 C1378 1.372 . S
C1379 C1380 1.400 . S
C1379 C1384 1.490 . S
C1380 H1370 0.930 . S
C1380 C1379 1.400 . S
C1380 C1383 1.386 . S
H1381 C1397 0.930 . S
H1382 C1398 0.931 . S
C1383 H1371 0.929 . S
C1383 C1377 1.390 . S
C1383 C1380 1.386 . S
C1384 C1379 1.490 . S
C1384 C1386 1.395 . S
C1384 C1387 1.403 . S
H1385 C1391 0.930 . S
C1386 H1372 0.930 . S
C1386 C1384 1.395 . S
C1386 C1389 1.403 . S
C1387 C1384 1.403 . S
C1387 C1388 1.524 . S
C1387 C1391 1.400 . S
C1388 H1373 0.960 . S
C1388 H1374 0.960 . S
C1388 H1375 0.960 . S
C1388 C1387 1.524 . S
C1389 C1386 1.403 . S
C1389 C1390 1.392 . S
C1389 C1393 1.495 . S
C1390 C1389 1.392 . S
C1390 C1391 1.385 . S
C1390 C1392 1.478 . S
C1391 H1385 0.930 . S
C1391 C1387 1.400 . S
C1391 C1390 1.385 . S
C1392 C1390 1.478 . S
C1392 C1394 1.381 . S
C1392 C1398 1.383 . S
C1393 C1389 1.495 . S
C1393 H1399 0.959 . S
C1393 H1400 0.961 . S
C1393 H1401 0.960 . S
C1394 C1392 1.381 . S
C1394 C1395 1.394 . S
C1394 H1402 0.930 . S
C1395 C1394 1.394 . S
C1395 C1396 1.383 . S
C1395 H1403 0.929 . S
C1396 C1395 1.383 . S
C1396 C1397 1.377 . S
C1397 H1381 0.930 . S
C1397 C1396 1.377 . S
C1397 C1398 1.379 . S
C1398 H1382 0.931 . S
C1398 C1392 1.383 . S
C1398 C1397 1.379 . S
H1399 C1393 0.959 . S
H1400 C1393 0.961 . S
H1401 C1393 0.960 . S
H1402 C1394 0.930 . S
H1403 C1395 0.929 . S
H1404 C1412 0.929 . S
H1405 C1414 0.930 . S
H1406 C1416 0.930 . S
H1407 C1419 0.929 . S
H1408 C1422 0.930 . S
H1409 C1424 0.960 . S
H1410 C1424 0.960 . S
H1411 C1424 0.960 . S
C1412 H1404 0.929 . S
C1412 C1413 1.377 . S
C1412 C1414 1.384 . S
C1413 C1412 1.377 . S
C1413 C1419 1.390 . S
C1414 H1405 0.930 . S
C1414 C1412 1.384 . S
C1414 C1415 1.372 . S
C1415 C1414 1.372 . S
C1415 C1416 1.400 . S
C1415 C1420 1.490 . S
C1416 H1406 0.930 . S
C1416 C1415 1.400 . S
C1416 C1419 1.386 . S
H1417 C1433 0.930 . S
H1418 C1434 0.931 . S
C1419 H1407 0.929 . S
C1419 C1413 1.390 . S
C1419 C1416 1.386 . S
C1420 C1415 1.490 . S
C1420 C1422 1.395 . S
C1420 C1423 1.403 . S
H1421 C1427 0.930 . S
C1422 H1408 0.930 . S
C1422 C1420 1.395 . S
C1422 C1425 1.403 . S
C1423 C1420 1.403 . S
C1423 C1424 1.524 . S
C1423 C1427 1.400 . S
C1424 H1409 0.960 . S
C1424 H1410 0.960 . S
C1424 H1411 0.960 . S
C1424 C1423 1.524 . S
C1425 C1422 1.403 . S
C1425 C1426 1.392 . S
C1425 C1429 1.495 . S
C1426 C1425 1.392 . S
C1426 C1427 1.385 . S
C1426 C1428 1.478 . S
C1427 H1421 0.930 . S
C1427 C1423 1.400 . S
C1427 C1426 1.385 . S
C1428 C1426 1.478 . S
C1428 C1430 1.381 . S
C1428 C1434 1.383 . S
C1429 C1425 1.495 . S
C1429 H1435 0.959 . S
C1429 H1436 0.961 . S
C1429 H1437 0.960 . S
C1430 C1428 1.381 . S
C1430 C1431 1.394 . S
C1430 H1438 0.930 . S
C1431 C1430 1.394 . S
C1431 C1432 1.383 . S
C1431 H1439 0.929 . S
C1432 C1431 1.383 . S
C1432 C1433 1.377 . S
C1433 H1417 0.930 . S
C1433 C1432 1.377 . S
C1433 C1434 1.379 . S
C1434 H1418 0.931 . S
C1434 C1428 1.383 . S
C1434 C1433 1.379 . S
H1435 C1429 0.959 . S
H1436 C1429 0.961 . S
H1437 C1429 0.960 . S
H1438 C1430 0.930 . S
H1439 C1431 0.929 . S
H1440 C1448 0.929 . S
H1441 C1450 0.930 1_655 S
H1442 C1452 0.930 . S
H1443 C1455 0.929 . S
H1444 C1458 0.930 . S
H1445 C1460 0.960 . S
H1446 C1460 0.960 . S
H1447 C1460 0.960 1_455 S
C1448 H1440 0.929 . S
C1448 C1449 1.377 . S
C1448 C1450 1.384 . S
C1449 C1448 1.377 . S
C1449 C1455 1.390 . S
C1450 H1441 0.930 1_455 S
C1450 C1448 1.384 . S
C1450 C1451 1.372 . S
C1451 C1450 1.372 . S
C1451 C1452 1.400 . S
C1451 C1456 1.490 1_455 S
C1452 H1442 0.930 . S
C1452 C1451 1.400 . S
C1452 C1455 1.386 . S
H1453 C1469 0.930 . S
H1454 C1470 0.931 . S
C1455 H1443 0.929 . S
C1455 C1449 1.390 . S
C1455 C1452 1.386 . S
C1456 C1451 1.490 1_655 S
C1456 C1458 1.395 . S
C1456 C1459 1.403 . S
H1457 C1463 0.930 . S
C1458 H1444 0.930 . S
C1458 C1456 1.395 . S
C1458 C1461 1.403 . S
C1459 C1456 1.403 . S
C1459 C1460 1.524 . S
C1459 C1463 1.400 . S
C1460 H1445 0.960 . S
C1460 H1446 0.960 . S
C1460 H1447 0.960 1_655 S
C1460 C1459 1.524 . S
C1461 C1458 1.403 . S
C1461 C1462 1.392 . S
C1461 C1465 1.495 . S
C1462 C1461 1.392 . S
C1462 C1463 1.385 . S
C1462 C1464 1.478 . S
C1463 H1457 0.930 . S
C1463 C1459 1.400 . S
C1463 C1462 1.385 . S
C1464 C1462 1.478 . S
C1464 C1466 1.381 . S
C1464 C1470 1.383 . S
C1465 C1461 1.495 . S
C1465 H1471 0.959 . S
C1465 H1472 0.961 . S
C1465 H1473 0.960 . S
C1466 C1464 1.381 . S
C1466 C1467 1.394 . S
C1466 H1474 0.930 . S
C1467 C1466 1.394 . S
C1467 C1468 1.383 . S
C1467 H1475 0.929 . S
C1468 C1467 1.383 . S
C1468 C1469 1.377 . S
C1469 H1453 0.930 . S
C1469 C1468 1.377 . S
C1469 C1470 1.379 . S
C1470 H1454 0.931 . S
C1470 C1464 1.383 . S
C1470 C1469 1.379 . S
H1471 C1465 0.959 . S
H1472 C1465 0.961 . S
H1473 C1465 0.960 . S
H1474 C1466 0.930 . S
H1475 C1467 0.929 . S
H1476 C1484 0.929 . S
H1477 C1486 0.930 . S
H1478 C1488 0.930 . S
H1479 C1491 0.929 . S
H1480 C1494 0.930 . S
H1481 C1496 0.960 . S
H1482 C1496 0.960 1_655 S
H1483 C1496 0.960 1_655 S
C1484 H1476 0.929 . S
C1484 C1485 1.377 . S
C1484 C1486 1.384 . S
C1485 C1484 1.377 . S
C1485 C1491 1.390 . S
C1486 H1477 0.930 . S
C1486 C1484 1.384 . S
C1486 C1487 1.372 . S
C1487 C1486 1.372 . S
C1487 C1488 1.400 . S
C1487 C1492 1.490 1_655 S
C1488 H1478 0.930 . S
C1488 C1487 1.400 . S
C1488 C1491 1.386 . S
H1489 C1505 0.930 . S
H1490 C1506 0.931 . S
C1491 H1479 0.929 . S
C1491 C1485 1.390 . S
C1491 C1488 1.386 . S
C1492 C1487 1.490 1_455 S
C1492 C1494 1.395 . S
C1492 C1495 1.403 . S
H1493 C1499 0.930 . S
C1494 H1480 0.930 . S
C1494 C1492 1.395 . S
C1494 C1497 1.403 . S
C1495 C1492 1.403 . S
C1495 C1496 1.524 . S
C1495 C1499 1.400 . S
C1496 H1481 0.960 . S
C1496 H1482 0.960 1_455 S
C1496 H1483 0.960 1_455 S
C1496 C1495 1.524 . S
C1497 C1494 1.403 . S
C1497 C1498 1.392 . S
C1497 C1501 1.495 . S
C1498 C1497 1.392 . S
C1498 C1499 1.385 . S
C1498 C1500 1.478 . S
C1499 H1493 0.930 . S
C1499 C1495 1.400 . S
C1499 C1498 1.385 . S
C1500 C1498 1.478 . S
C1500 C1502 1.381 . S
C1500 C1506 1.383 . S
C1501 C1497 1.495 . S
C1501 H1507 0.959 . S
C1501 H1508 0.961 . S
C1501 H1509 0.960 . S
C1502 C1500 1.381 . S
C1502 C1503 1.394 . S
C1502 H1510 0.930 . S
C1503 C1502 1.394 . S
C1503 C1504 1.383 . S
C1503 H1511 0.929 . S
C1504 C1503 1.383 . S
C1504 C1505 1.377 . S
C1505 H1489 0.930 . S
C1505 C1504 1.377 . S
C1505 C1506 1.379 . S
C1506 H1490 0.931 . S
C1506 C1500 1.383 . S
C1506 C1505 1.379 . S
H1507 C1501 0.959 . S
H1508 C1501 0.961 . S
H1509 C1501 0.960 . S
H1510 C1502 0.930 . S
H1511 C1503 0.929 . S
H1512 C1520 0.929 . S
H1513 C1522 0.930 . S
H1514 C1524 0.930 . S
H1515 C1527 0.929 . S
H1516 C1530 0.930 . S
H1517 C1532 0.960 . S
H1518 C1532 0.960 . S
H1519 C1532 0.960 . S
C1520 H1512 0.929 . S
C1520 C1521 1.377 . S
C1520 C1522 1.384 . S
C1521 C1520 1.377 . S
C1521 C1527 1.390 . S
C1522 H1513 0.930 . S
C1522 C1520 1.384 . S
C1522 C1523 1.372 . S
C1523 C1522 1.372 . S
C1523 C1524 1.400 . S
C1523 C1528 1.490 1_455 S
C1524 H1514 0.930 . S
C1524 C1523 1.400 . S
C1524 C1527 1.386 . S
H1525 C1541 0.930 . S
H1526 C1542 0.931 . S
C1527 H1515 0.929 . S
C1527 C1521 1.390 . S
C1527 C1524 1.386 . S
C1528 C1523 1.490 1_655 S
C1528 C1530 1.395 . S
C1528 C1531 1.403 . S
H1529 C1535 0.930 . S
C1530 H1516 0.930 . S
C1530 C1528 1.395 . S
C1530 C1533 1.403 . S
C1531 C1528 1.403 . S
C1531 C1532 1.524 1_655 S
C1531 C1535 1.400 . S
C1532 H1517 0.960 . S
C1532 H1518 0.960 . S
C1532 H1519 0.960 . S
C1532 C1531 1.524 1_455 S
C1533 C1530 1.403 . S
C1533 C1534 1.392 . S
C1533 C1537 1.495 . S
C1534 C1533 1.392 . S
C1534 C1535 1.385 . S
C1534 C1536 1.478 . S
C1535 H1529 0.930 . S
C1535 C1531 1.400 . S
C1535 C1534 1.385 . S
C1536 C1534 1.478 . S
C1536 C1538 1.381 . S
C1536 C1542 1.383 . S
C1537 C1533 1.495 . S
C1537 H1543 0.959 . S
C1537 H1544 0.961 . S
C1537 H1545 0.960 . S
C1538 C1536 1.381 . S
C1538 C1539 1.394 . S
C1538 H1546 0.930 . S
C1539 C1538 1.394 . S
C1539 C1540 1.383 . S
C1539 H1547 0.929 . S
C1540 C1539 1.383 . S
C1540 C1541 1.377 . S
C1541 H1525 0.930 . S
C1541 C1540 1.377 . S
C1541 C1542 1.379 . S
C1542 H1526 0.931 . S
C1542 C1536 1.383 . S
C1542 C1541 1.379 . S
H1543 C1537 0.959 . S
H1544 C1537 0.961 . S
H1545 C1537 0.960 . S
H1546 C1538 0.930 . S
H1547 C1539 0.929 . S
H1548 C1556 0.929 . S
H1549 C1558 0.930 . S
H1550 C1560 0.930 . S
H1551 C1563 0.929 . S
H1552 C1566 0.930 . S
H1553 C1568 0.960 . S
H1554 C1568 0.960 . S
H1555 C1568 0.960 . S
C1556 H1548 0.929 . S
C1556 C1557 1.377 . S
C1556 C1558 1.384 . S
C1557 C1556 1.377 . S
C1557 C1563 1.390 . S
C1558 H1549 0.930 . S
C1558 C1556 1.384 . S
C1558 C1559 1.372 . S
C1559 C1558 1.372 . S
C1559 C1560 1.400 . S
C1559 C1564 1.490 . S
C1560 H1550 0.930 . S
C1560 C1559 1.400 . S
C1560 C1563 1.386 . S
H1561 C1577 0.930 . S
H1562 C1578 0.931 . S
C1563 H1551 0.929 . S
C1563 C1557 1.390 . S
C1563 C1560 1.386 . S
C1564 C1559 1.490 . S
C1564 C1566 1.395 . S
C1564 C1567 1.403 . S
H1565 C1571 0.960 . S
C1566 H1552 0.930 . S
C1566 C1564 1.395 . S
C1566 C1569 1.403 . S
C1567 C1564 1.403 . S
C1567 C1568 1.524 . S
C1567 C1571 1.400 . S
C1568 H1553 0.960 . S
C1568 H1554 0.960 . S
C1568 H1555 0.960 . S
C1568 C1567 1.524 . S
C1569 C1566 1.403 . S
C1569 C1570 1.392 . S
C1569 C1573 1.495 . S
C1570 C1569 1.392 . S
C1570 C1571 1.385 . S
C1570 C1572 1.478 1_455 S
C1571 H1565 0.960 . S
C1571 C1567 1.400 . S
C1571 C1570 1.385 . S
C1572 C1570 1.478 1_655 S
C1572 C1574 1.381 . S
C1572 C1578 1.383 . S
C1573 C1569 1.495 . S
C1573 H1579 0.959 . S
C1573 H1580 0.961 . S
C1573 H1581 0.960 . S
C1574 C1572 1.381 . S
C1574 C1575 1.394 . S
C1574 H1582 0.930 1_655 S
C1575 C1574 1.394 . S
C1575 C1576 1.383 . S
C1575 H1583 0.929 . S
C1576 C1575 1.383 . S
C1576 C1577 1.377 . S
C1577 H1561 0.930 . S
C1577 C1576 1.377 . S
C1577 C1578 1.379 . S
C1578 H1562 0.931 . S
C1578 C1572 1.383 . S
C1578 C1577 1.379 . S
H1579 C1573 0.959 . S
H1580 C1573 0.961 . S
H1581 C1573 0.960 . S
H1582 C1574 0.930 1_455 S
H1583 C1575 0.929 . S
H1584 C1592 0.929 . S
H1585 C1594 0.930 . S
H1586 C1596 0.930 . S
H1587 C1599 0.929 . S
H1588 C1602 0.930 . S
H1589 C1604 0.960 . S
H1590 C1604 0.960 1_545 S
H1591 C1604 0.960 . S
C1592 H1584 0.929 . S
C1592 C1593 1.377 . S
C1592 C1594 1.384 . S
C1593 C1592 1.377 . S
C1593 C1599 1.390 . S
C1594 H1585 0.930 . S
C1594 C1592 1.384 . S
C1594 C1595 1.372 . S
C1595 C1594 1.372 . S
C1595 C1596 1.400 . S
C1595 C1600 1.490 1_545 S
C1596 H1586 0.930 . S
C1596 C1595 1.400 . S
C1596 C1599 1.386 . S
H1597 C1613 0.930 . S
H1598 C1614 0.931 . S
C1599 H1587 0.929 . S
C1599 C1593 1.390 . S
C1599 C1596 1.386 . S
C1600 C1595 1.490 1_565 S
C1600 C1602 1.395 . S
C1600 C1603 1.403 . S
H1601 C1607 0.930 . S
C1602 H1588 0.930 . S
C1602 C1600 1.395 . S
C1602 C1605 1.403 . S
C1603 C1600 1.403 . S
C1603 C1604 1.524 . S
C1603 C1607 1.400 . S
C1604 H1589 0.960 . S
C1604 H1590 0.960 1_565 S
C1604 H1591 0.960 . S
C1604 C1603 1.524 . S
C1605 C1602 1.403 . S
C1605 C1606 1.392 . S
C1605 C1609 1.495 . S
C1606 C1605 1.392 . S
C1606 C1607 1.385 . S
C1606 C1608 1.478 . S
C1607 H1601 0.930 . S
C1607 C1603 1.400 . S
C1607 C1606 1.385 . S
C1608 C1606 1.478 . S
C1608 C1610 1.381 . S
C1608 C1614 1.383 . S
C1609 C1605 1.495 . S
C1609 H1615 0.959 . S
C1609 H1616 0.961 . S
C1609 H1617 0.960 . S
C1610 C1608 1.381 . S
C1610 C1611 1.394 . S
C1610 H1618 0.930 . S
C1611 C1610 1.394 . S
C1611 C1612 1.383 . S
C1611 H1619 0.929 . S
C1612 C1611 1.383 . S
C1612 C1613 1.377 . S
C1613 H1597 0.930 . S
C1613 C1612 1.377 . S
C1613 C1614 1.379 . S
C1614 H1598 0.931 . S
C1614 C1608 1.383 . S
C1614 C1613 1.379 . S
H1615 C1609 0.959 . S
H1616 C1609 0.961 . S
H1617 C1609 0.960 . S
H1618 C1610 0.930 . S
H1619 C1611 0.929 . S
H1620 C1628 0.929 . S
H1621 C1630 0.930 . S
H1622 C1632 0.930 . S
H1623 C1635 0.929 . S
H1624 C1638 0.930 . S
H1625 C1640 0.960 . S
H1626 C1640 0.960 . S
H1627 C1640 0.960 . S
C1628 H1620 0.929 . S
C1628 C1629 1.377 . S
C1628 C1630 1.384 . S
C1629 C1628 1.377 . S
C1629 C1635 1.390 . S
C1630 H1621 0.930 . S
C1630 C1628 1.384 . S
C1630 C1631 1.372 . S
C1631 C1630 1.372 . S
C1631 C1632 1.400 . S
C1631 C1636 1.490 . S
C1632 H1622 0.930 . S
C1632 C1631 1.400 . S
C1632 C1635 1.386 . S
H1633 C1649 0.930 . S
H1634 C1650 0.931 . S
C1635 H1623 0.929 . S
C1635 C1629 1.390 . S
C1635 C1632 1.386 . S
C1636 C1631 1.490 . S
C1636 C1638 1.395 . S
C1636 C1639 1.403 . S
H1637 C1643 0.930 . S
C1638 H1624 0.930 . S
C1638 C1636 1.395 . S
C1638 C1641 1.403 . S
C1639 C1636 1.403 . S
C1639 C1640 1.524 . S
C1639 C1643 1.400 . S
C1640 H1625 0.960 . S
C1640 H1626 0.960 . S
C1640 H1627 0.960 . S
C1640 C1639 1.524 . S
C1641 C1638 1.403 . S
C1641 C1642 1.392 . S
C1641 C1645 1.495 . S
C1642 C1641 1.392 . S
C1642 C1643 1.385 . S
C1642 C1644 1.478 1_545 S
C1643 H1637 0.930 . S
C1643 C1639 1.400 . S
C1643 C1642 1.385 . S
C1644 C1642 1.478 1_565 S
C1644 C1646 1.381 . S
C1644 C1650 1.383 . S
C1645 C1641 1.495 . S
C1645 H1651 0.959 . S
C1645 H1652 0.961 . S
C1645 H1653 0.960 . S
C1646 C1644 1.381 . S
C1646 C1647 1.394 . S
C1646 H1654 0.930 . S
C1647 C1646 1.394 . S
C1647 C1648 1.383 . S
C1647 H1655 0.929 . S
C1648 C1647 1.383 . S
C1648 C1649 1.377 . S
C1649 H1633 0.930 . S
C1649 C1648 1.377 . S
C1649 C1650 1.379 . S
C1650 H1634 0.931 . S
C1650 C1644 1.383 . S
C1650 C1649 1.379 . S
H1651 C1645 0.959 . S
H1652 C1645 0.961 . S
H1653 C1645 0.960 . S
H1654 C1646 0.930 . S
H1655 C1647 0.929 . S
H1656 C1664 0.929 . S
H1657 C1666 0.930 . S
H1658 C1668 0.930 . S
H1659 C1671 0.929 . S
H1660 C1674 0.930 . S
H1661 C1676 0.960 . S
H1662 C1676 0.960 . S
H1663 C1676 0.960 . S
C1664 H1656 0.929 . S
C1664 C1665 1.377 . S
C1664 C1666 1.384 . S
C1665 C1664 1.377 . S
C1665 C1671 1.390 . S
C1666 H1657 0.930 . S
C1666 C1664 1.384 . S
C1666 C1667 1.372 . S
C1667 C1666 1.372 . S
C1667 C1668 1.400 . S
C1667 C1672 1.490 . S
C1668 H1658 0.930 . S
C1668 C1667 1.400 . S
C1668 C1671 1.386 . S
H1669 C1685 0.930 . S
H1670 C1686 0.931 . S
C1671 H1659 0.929 . S
C1671 C1665 1.390 . S
C1671 C1668 1.386 . S
C1672 C1667 1.490 . S
C1672 C1674 1.395 . S
C1672 C1675 1.403 . S
H1673 C1679 0.930 . S
C1674 H1660 0.930 . S
C1674 C1672 1.395 . S
C1674 C1677 1.403 . S
C1675 C1672 1.403 . S
C1675 C1676 1.524 . S
C1675 C1679 1.400 . S
C1676 H1661 0.960 . S
C1676 H1662 0.960 . S
C1676 H1663 0.960 . S
C1676 C1675 1.524 . S
C1677 C1674 1.403 . S
C1677 C1678 1.392 . S
C1677 C1681 1.495 . S
C1678 C1677 1.392 . S
C1678 C1679 1.385 . S
C1678 C1680 1.478 . S
C1679 H1673 0.930 . S
C1679 C1675 1.400 . S
C1679 C1678 1.385 . S
C1680 C1678 1.478 . S
C1680 C1682 1.381 . S
C1680 C1686 1.383 . S
C1681 C1677 1.495 . S
C1681 H1687 0.959 . S
C1681 H1688 0.961 . S
C1681 H1689 0.960 . S
C1682 C1680 1.381 . S
C1682 C1683 1.394 . S
C1682 H1690 0.930 . S
C1683 C1682 1.394 . S
C1683 C1684 1.383 . S
C1683 H1691 0.929 . S
C1684 C1683 1.383 . S
C1684 C1685 1.377 . S
C1685 H1669 0.930 . S
C1685 C1684 1.377 . S
C1685 C1686 1.379 . S
C1686 H1670 0.931 . S
C1686 C1680 1.383 . S
C1686 C1685 1.379 . S
H1687 C1681 0.959 . S
H1688 C1681 0.961 . S
H1689 C1681 0.960 . S
H1690 C1682 0.930 . S
H1691 C1683 0.929 . S
H1692 C1700 0.929 . S
H1693 C1702 0.930 . S
H1694 C1704 0.930 . S
H1695 C1707 0.929 . S
H1696 C1710 0.930 . S
H1697 C1712 0.960 . S
H1698 C1712 0.960 . S
H1699 C1712 0.960 . S
C1700 H1692 0.929 . S
C1700 C1701 1.377 . S
C1700 C1702 1.384 . S
C1701 C1700 1.377 . S
C1701 C1707 1.390 . S
C1702 H1693 0.930 . S
C1702 C1700 1.384 . S
C1702 C1703 1.372 . S
C1703 C1702 1.372 . S
C1703 C1704 1.400 . S
C1703 C1708 1.490 . S
C1704 H1694 0.930 . S
C1704 C1703 1.400 . S
C1704 C1707 1.386 . S
H1705 C1721 0.930 . S
H1706 C1722 0.931 . S
C1707 H1695 0.929 . S
C1707 C1701 1.390 . S
C1707 C1704 1.386 . S
C1708 C1703 1.490 . S
C1708 C1710 1.395 . S
C1708 C1711 1.403 . S
H1709 C1715 0.930 . S
C1710 H1696 0.930 . S
C1710 C1708 1.395 . S
C1710 C1713 1.403 . S
C1711 C1708 1.403 . S
C1711 C1712 1.524 . S
C1711 C1715 1.400 . S
C1712 H1697 0.960 . S
C1712 H1698 0.960 . S
C1712 H1699 0.960 . S
C1712 C1711 1.524 . S
C1713 C1710 1.403 . S
C1713 C1714 1.392 . S
C1713 C1717 1.495 1_545 S
C1714 C1713 1.392 . S
C1714 C1715 1.385 . S
C1714 C1716 1.478 1_545 S
C1715 H1709 0.930 . S
C1715 C1711 1.400 . S
C1715 C1714 1.385 . S
C1716 C1714 1.478 1_565 S
C1716 C1718 1.381 . S
C1716 C1722 1.383 . S
C1717 C1713 1.495 1_565 S
C1717 H1723 0.959 . S
C1717 H1724 0.961 . S
C1717 H1725 0.960 . S
C1718 C1716 1.381 . S
C1718 C1719 1.394 . S
C1718 H1726 0.930 . S
C1719 C1718 1.394 . S
C1719 C1720 1.383 . S
C1719 H1727 0.929 . S
C1720 C1719 1.383 . S
C1720 C1721 1.377 . S
C1721 H1705 0.930 . S
C1721 C1720 1.377 . S
C1721 C1722 1.379 . S
C1722 H1706 0.931 . S
C1722 C1716 1.383 . S
C1722 C1721 1.379 . S
H1723 C1717 0.959 . S
H1724 C1717 0.961 . S
H1725 C1717 0.960 . S
H1726 C1718 0.930 . S
H1727 C1719 0.929 . S
H1728 C1736 0.929 . S
H1729 C1738 0.930 . S
H1730 C1740 0.930 . S
H1731 C1743 0.929 . S
H1732 C1746 0.930 . S
H1733 C1748 0.960 . S
H1734 C1748 0.960 . S
H1735 C1748 0.960 . S
C1736 H1728 0.929 . S
C1736 C1737 1.377 1_455 S
C1736 C1738 1.384 . S
C1737 C1736 1.377 1_655 S
C1737 C1743 1.390 . S
C1738 H1729 0.930 . S
C1738 C1736 1.384 . S
C1738 C1739 1.346 1_455 S
C1739 C1738 1.346 1_655 S
C1739 C1740 1.430 . S
C1739 C1744 1.487 1_655 S
C1740 H1730 0.930 . S
C1740 C1739 1.430 . S
C1740 C1743 1.386 . S
H1741 C1757 0.930 . S
H1742 C1758 0.931 . S
C1743 H1731 0.929 . S
C1743 C1737 1.390 . S
C1743 C1740 1.386 . S
C1744 C1739 1.487 1_455 S
C1744 C1746 1.395 . S
C1744 C1747 1.403 1_455 S
H1745 C1751 0.930 . S
C1746 H1732 0.930 . S
C1746 C1744 1.395 . S
C1746 C1749 1.403 . S
C1747 C1744 1.403 1_655 S
C1747 C1748 1.524 . S
C1747 C1751 1.400 . S
C1748 H1733 0.960 . S
C1748 H1734 0.960 . S
C1748 H1735 0.960 . S
C1748 C1747 1.524 . S
C1749 C1746 1.403 . S
C1749 C1750 1.392 . S
C1749 C1753 1.495 . S
C1750 C1749 1.392 . S
C1750 C1751 1.385 1_455 S
C1750 C1752 1.478 . S
C1751 H1745 0.930 . S
C1751 C1747 1.400 . S
C1751 C1750 1.385 1_655 S
C1752 C1750 1.478 . S
C1752 C1754 1.381 . S
C1752 C1758 1.383 1_455 S
C1753 C1749 1.495 . S
C1753 H1759 0.959 . S
C1753 H1760 0.961 . S
C1753 H1761 0.960 . S
C1754 C1752 1.381 . S
C1754 C1755 1.394 . S
C1754 H1762 0.930 . S
C1755 C1754 1.394 . S
C1755 C1756 1.383 . S
C1755 H1763 0.929 . S
C1756 C1755 1.383 . S
C1756 C1757 1.377 1_455 S
C1757 H1741 0.930 . S
C1757 C1756 1.377 1_655 S
C1757 C1758 1.379 . S
C1758 H1742 0.931 . S
C1758 C1752 1.383 1_655 S
C1758 C1757 1.379 . S
H1759 C1753 0.959 . S
H1760 C1753 0.961 . S
H1761 C1753 0.960 . S
H1762 C1754 0.930 . S
H1763 C1755 0.929 . S
H1764 C1772 0.929 . S
H1765 C1774 0.930 . S
H1766 C1776 0.930 . S
H1767 C1779 0.929 . S
H1768 C1782 0.930 . S
H1769 C1784 0.960 . S
H1770 C1784 0.960 . S
H1771 C1784 0.960 . S
C1772 H1764 0.929 . S
C1772 C1773 1.377 1_655 S
C1772 C1774 1.384 . S
C1773 C1772 1.377 1_455 S
C1773 C1779 1.390 . S
C1774 H1765 0.930 . S
C1774 C1772 1.384 . S
C1774 C1775 1.372 1_655 S
C1775 C1774 1.372 1_455 S
C1775 C1776 1.400 . S
C1775 C1780 1.493 . S
C1776 H1766 0.930 . S
C1776 C1775 1.400 . S
C1776 C1779 1.386 . S
H1777 C1793 0.930 . S
H1778 C1794 0.931 . S
C1779 H1767 0.929 . S
C1779 C1773 1.390 . S
C1779 C1776 1.386 . S
C1780 C1775 1.493 . S
C1780 C1782 1.364 1_455 S
C1780 C1783 1.430 . S
H1781 C1787 0.930 . S
C1782 H1768 0.930 . S
C1782 C1780 1.364 1_655 S
C1782 C1785 1.403 . S
C1783 C1780 1.430 . S
C1783 C1784 1.524 . S
C1783 C1787 1.400 . S
C1784 H1769 0.960 . S
C1784 H1770 0.960 . S
C1784 H1771 0.960 . S
C1784 C1783 1.524 . S
C1785 C1782 1.403 . S
C1785 C1786 1.392 . S
C1785 C1789 1.495 . S
C1786 C1785 1.392 . S
C1786 C1787 1.385 1_655 S
C1786 C1788 1.478 . S
C1787 H1781 0.930 . S
C1787 C1783 1.400 . S
C1787 C1786 1.385 1_455 S
C1788 C1786 1.478 . S
C1788 C1790 1.381 . S
C1788 C1794 1.383 1_655 S
C1789 C1785 1.495 . S
C1789 H1795 0.959 . S
C1789 H1796 0.961 . S
C1789 H1797 0.960 . S
C1790 C1788 1.381 . S
C1790 C1791 1.394 . S
C1790 H1798 0.930 . S
C1791 C1790 1.394 . S
C1791 C1792 1.383 . S
C1791 H1799 0.929 . S
C1792 C1791 1.383 . S
C1792 C1793 1.377 1_655 S
C1793 H1777 0.930 . S
C1793 C1792 1.377 1_455 S
C1793 C1794 1.379 . S
C1794 H1778 0.931 . S
C1794 C1788 1.383 1_455 S
C1794 C1793 1.379 . S
H1795 C1789 0.959 . S
H1796 C1789 0.961 . S
H1797 C1789 0.960 . S
H1798 C1790 0.930 . S
H1799 C1791 0.929 . S
H1800 C1808 0.929 . S
H1801 C1810 0.930 . S
H1802 C1812 0.930 . S
H1803 C1815 0.929 . S
H1804 C1818 0.930 . S
H1805 C1820 0.960 . S
H1806 C1820 0.960 . S
H1807 C1820 0.960 . S
C1808 H1800 0.929 . S
C1808 C1809 1.377 . S
C1808 C1810 1.384 . S
C1809 C1808 1.377 . S
C1809 C1815 1.390 1_565 S
C1810 H1801 0.930 . S
C1810 C1808 1.384 . S
C1810 C1811 1.372 . S
C1811 C1810 1.372 . S
C1811 C1812 1.400 1_565 S
C1811 C1816 1.490 . S
C1812 H1802 0.930 . S
C1812 C1811 1.400 1_545 S
C1812 C1815 1.386 . S
H1813 C1829 0.930 . S
H1814 C1830 0.931 . S
C1815 H1803 0.929 . S
C1815 C1809 1.390 1_545 S
C1815 C1812 1.386 . S
C1816 C1811 1.490 . S
C1816 C1818 1.395 . S
C1816 C1819 1.403 1_565 S
H1817 C1823 0.930 . S
C1818 H1804 0.930 . S
C1818 C1816 1.395 . S
C1818 C1821 1.403 . S
C1819 C1816 1.403 1_545 S
C1819 C1820 1.524 . S
C1819 C1823 1.400 . S
C1820 H1805 0.960 . S
C1820 H1806 0.960 . S
C1820 H1807 0.960 . S
C1820 C1819 1.524 . S
C1821 C1818 1.403 . S
C1821 C1822 1.392 . S
C1821 C1825 1.495 . S
C1822 C1821 1.392 . S
C1822 C1823 1.385 1_565 S
C1822 C1824 1.481 . S
C1823 H1817 0.930 . S
C1823 C1819 1.400 . S
C1823 C1822 1.385 1_545 S
C1824 C1822 1.481 . S
C1824 C1826 1.403 . S
C1824 C1830 1.357 1_565 S
C1825 C1821 1.495 . S
C1825 H1831 0.959 . S
C1825 H1832 0.961 . S
C1825 H1833 0.960 . S
C1826 C1824 1.403 . S
C1826 C1827 1.394 . S
C1826 H1834 0.930 . S
C1827 C1826 1.394 . S
C1827 C1828 1.383 1_565 S
C1827 H1835 0.929 . S
C1828 C1827 1.383 1_545 S
C1828 C1829 1.377 . S
C1829 H1813 0.930 . S
C1829 C1828 1.377 . S
C1829 C1830 1.379 . S
C1830 H1814 0.931 . S
C1830 C1824 1.357 1_545 S
C1830 C1829 1.379 . S
H1831 C1825 0.959 . S
H1832 C1825 0.961 . S
H1833 C1825 0.960 . S
H1834 C1826 0.930 . S
H1835 C1827 0.929 . S
H1836 C1844 0.929 . S
H1837 C1846 0.930 . S
H1838 C1848 0.930 . S
H1839 C1851 0.929 . S
H1840 C1854 0.930 . S
H1841 C1856 0.960 . S
H1842 C1856 0.960 . S
H1843 C1856 0.960 . S
C1844 H1836 0.929 . S
C1844 C1845 1.377 . S
C1844 C1846 1.384 . S
C1845 C1844 1.377 . S
C1845 C1851 1.390 . S
C1846 H1837 0.930 . S
C1846 C1844 1.384 . S
C1846 C1847 1.372 . S
C1847 C1846 1.372 . S
C1847 C1848 1.400 . S
C1847 C1852 1.490 . S
C1848 H1838 0.930 . S
C1848 C1847 1.400 . S
C1848 C1851 1.386 . S
H1849 C1865 0.930 . S
H1850 C1866 0.931 . S
C1851 H1839 0.929 . S
C1851 C1845 1.390 . S
C1851 C1848 1.386 . S
C1852 C1847 1.490 . S
C1852 C1854 1.395 . S
C1852 C1855 1.403 . S
H1853 C1859 0.930 . S
C1854 H1840 0.930 . S
C1854 C1852 1.395 . S
C1854 C1857 1.403 . S
C1855 C1852 1.403 . S
C1855 C1856 1.524 . S
C1855 C1859 1.400 . S
C1856 H1841 0.960 . S
C1856 H1842 0.960 . S
C1856 H1843 0.960 . S
C1856 C1855 1.524 . S
C1857 C1854 1.403 . S
C1857 C1858 1.392 . S
C1857 C1861 1.495 . S
C1858 C1857 1.392 . S
C1858 C1859 1.385 . S
C1858 C1860 1.478 . S
C1859 H1853 0.930 . S
C1859 C1855 1.400 . S
C1859 C1858 1.385 . S
C1860 C1858 1.478 . S
C1860 C1862 1.381 . S
C1860 C1866 1.383 . S
C1861 C1857 1.495 . S
C1861 H1867 0.959 . S
C1861 H1868 0.961 . S
C1861 H1869 0.960 . S
C1862 C1860 1.381 . S
C1862 C1863 1.394 . S
C1862 H1870 0.930 . S
C1863 C1862 1.394 . S
C1863 C1864 1.383 . S
C1863 H1871 0.929 . S
C1864 C1863 1.383 . S
C1864 C1865 1.377 . S
C1865 H1849 0.930 . S
C1865 C1864 1.377 . S
C1865 C1866 1.379 . S
C1866 H1850 0.931 . S
C1866 C1860 1.383 . S
C1866 C1865 1.379 . S
H1867 C1861 0.959 . S
H1868 C1861 0.961 . S
H1869 C1861 0.960 . S
H1870 C1862 0.930 . S
H1871 C1863 0.929 . S
H1872 C1880 0.929 . S
H1873 C1882 0.930 . S
H1874 C1884 0.930 . S
H1875 C1887 0.929 . S
H1876 C1890 0.930 . S
H1877 C1892 0.960 . S
H1878 C1892 0.960 . S
H1879 C1892 0.960 . S
C1880 H1872 0.929 . S
C1880 C1881 1.377 . S
C1880 C1882 1.384 . S
C1881 C1880 1.377 . S
C1881 C1887 1.390 . S
C1882 H1873 0.930 . S
C1882 C1880 1.384 . S
C1882 C1883 1.372 . S
C1883 C1882 1.372 . S
C1883 C1884 1.400 . S
C1883 C1888 1.490 . S
C1884 H1874 0.930 . S
C1884 C1883 1.400 . S
C1884 C1887 1.386 . S
H1885 C1901 0.930 . S
H1886 C1902 0.931 . S
C1887 H1875 0.929 . S
C1887 C1881 1.390 . S
C1887 C1884 1.386 . S
C1888 C1883 1.490 . S
C1888 C1890 1.395 1_554 S
C1888 C1891 1.403 . S
H1889 C1895 0.930 . S
C1890 H1876 0.930 . S
C1890 C1888 1.395 1_556 S
C1890 C1893 1.403 . S
C1891 C1888 1.403 . S
C1891 C1892 1.524 . S
C1891 C1895 1.400 . S
C1892 H1877 0.960 . S
C1892 H1878 0.960 . S
C1892 H1879 0.960 . S
C1892 C1891 1.524 . S
C1893 C1890 1.403 . S
C1893 C1894 1.392 . S
C1893 C1897 1.495 . S
C1894 C1893 1.392 . S
C1894 C1895 1.385 1_556 S
C1894 C1896 1.478 . S
C1895 H1889 0.930 . S
C1895 C1891 1.400 . S
C1895 C1894 1.385 1_554 S
C1896 C1894 1.478 . S
C1896 C1898 1.381 . S
C1896 C1902 1.383 . S
C1897 C1893 1.495 . S
C1897 H1903 0.959 . S
C1897 H1904 0.961 . S
C1897 H1905 0.960 . S
C1898 C1896 1.381 . S
C1898 C1899 1.394 . S
C1898 H1906 0.930 . S
C1899 C1898 1.394 . S
C1899 C1900 1.383 . S
C1899 H1907 0.929 . S
C1900 C1899 1.383 . S
C1900 C1901 1.377 . S
C1901 H1885 0.930 . S
C1901 C1900 1.377 . S
C1901 C1902 1.379 . S
C1902 H1886 0.931 . S
C1902 C1896 1.383 . S
C1902 C1901 1.379 . S
H1903 C1897 0.959 . S
H1904 C1897 0.961 . S
H1905 C1897 0.960 . S
H1906 C1898 0.930 . S
H1907 C1899 0.929 . S
H1908 C1916 0.929 . S
H1909 C1918 0.930 . S
H1910 C1920 0.930 . S
H1911 C1923 0.929 . S
H1912 C1926 0.930 . S
H1913 C1928 0.960 . S
H1914 C1928 0.960 . S
H1915 C1928 0.960 . S
C1916 H1908 0.929 . S
C1916 C1917 1.377 . S
C1916 C1918 1.384 . S
C1917 C1916 1.377 . S
C1917 C1923 1.390 . S
C1918 H1909 0.930 . S
C1918 C1916 1.384 . S
C1918 C1919 1.372 . S
C1919 C1918 1.372 . S
C1919 C1920 1.400 . S
C1919 C1924 1.490 . S
C1920 H1910 0.930 . S
C1920 C1919 1.400 . S
C1920 C1923 1.386 . S
H1921 C1937 0.930 . S
H1922 C1938 0.931 . S
C1923 H1911 0.929 . S
C1923 C1917 1.390 . S
C1923 C1920 1.386 . S
C1924 C1919 1.490 . S
C1924 C1926 1.395 . S
C1924 C1927 1.403 . S
H1925 C1931 0.930 . S
C1926 H1912 0.930 . S
C1926 C1924 1.395 . S
C1926 C1929 1.403 . S
C1927 C1924 1.403 . S
C1927 C1928 1.524 . S
C1927 C1931 1.400 . S
C1928 H1913 0.960 . S
C1928 H1914 0.960 . S
C1928 H1915 0.960 . S
C1928 C1927 1.524 . S
C1929 C1926 1.403 . S
C1929 C1930 1.392 . S
C1929 C1933 1.495 . S
C1930 C1929 1.392 . S
C1930 C1931 1.385 . S
C1930 C1932 1.478 . S
C1931 H1925 0.930 . S
C1931 C1927 1.400 . S
C1931 C1930 1.385 . S
C1932 C1930 1.478 . S
C1932 C1934 1.381 . S
C1932 C1938 1.383 . S
C1933 C1929 1.495 . S
C1933 H1939 0.959 . S
C1933 H1940 0.961 . S
C1933 H1941 0.960 . S
C1934 C1932 1.381 . S
C1934 C1935 1.394 . S
C1934 H1942 0.930 . S
C1935 C1934 1.394 . S
C1935 C1936 1.383 . S
C1935 H1943 0.929 . S
C1936 C1935 1.383 . S
C1936 C1937 1.377 . S
C1937 H1921 0.930 . S
C1937 C1936 1.377 . S
C1937 C1938 1.379 . S
C1938 H1922 0.931 . S
C1938 C1932 1.383 . S
C1938 C1937 1.379 . S
H1939 C1933 0.959 . S
H1940 C1933 0.961 . S
H1941 C1933 0.960 . S
H1942 C1934 0.930 . S
H1943 C1935 0.929 . S
H1944 C1952 0.929 . S
H1945 C1954 0.930 . S
H1946 C1956 0.930 . S
H1947 C1959 0.929 . S
H1948 C1962 0.930 . S
H1949 C1964 0.960 . S
H1950 C1964 0.960 . S
H1951 C1964 0.960 . S
C1952 H1944 0.929 . S
C1952 C1953 1.377 . S
C1952 C1954 1.384 . S
C1953 C1952 1.377 . S
C1953 C1959 1.390 . S
C1954 H1945 0.930 . S
C1954 C1952 1.384 . S
C1954 C1955 1.372 . S
C1955 C1954 1.372 . S
C1955 C1956 1.400 . S
C1955 C1960 1.490 . S
C1956 H1946 0.930 . S
C1956 C1955 1.400 . S
C1956 C1959 1.386 . S
H1957 C1973 0.930 . S
H1958 C1974 0.931 . S
C1959 H1947 0.929 . S
C1959 C1953 1.390 . S
C1959 C1956 1.386 . S
C1960 C1955 1.490 . S
C1960 C1962 1.395 . S
C1960 C1963 1.403 . S
H1961 C1967 0.930 . S
C1962 H1948 0.930 . S
C1962 C1960 1.395 . S
C1962 C1965 1.403 . S
C1963 C1960 1.403 . S
C1963 C1964 1.524 . S
C1963 C1967 1.400 . S
C1964 H1949 0.960 . S
C1964 H1950 0.960 . S
C1964 H1951 0.960 . S
C1964 C1963 1.524 . S
C1965 C1962 1.403 . S
C1965 C1966 1.392 . S
C1965 C1969 1.495 . S
C1966 C1965 1.392 . S
C1966 C1967 1.385 . S
C1966 C1968 1.478 . S
C1967 H1961 0.930 . S
C1967 C1963 1.400 . S
C1967 C1966 1.385 . S
C1968 C1966 1.478 . S
C1968 C1970 1.381 . S
C1968 C1974 1.383 . S
C1969 C1965 1.495 . S
C1969 H1975 0.959 . S
C1969 H1976 0.961 . S
C1969 H1977 0.960 . S
C1970 C1968 1.381 . S
C1970 C1971 1.394 . S
C1970 H1978 0.930 . S
C1971 C1970 1.394 . S
C1971 C1972 1.383 . S
C1971 H1979 0.929 . S
C1972 C1971 1.383 . S
C1972 C1973 1.377 . S
C1973 H1957 0.930 . S
C1973 C1972 1.377 . S
C1973 C1974 1.379 . S
C1974 H1958 0.931 . S
C1974 C1968 1.383 . S
C1974 C1973 1.379 . S
H1975 C1969 0.959 . S
H1976 C1969 0.961 . S
H1977 C1969 0.960 . S
H1978 C1970 0.930 . S
H1979 C1971 0.929 . S
H1980 C1988 0.929 . S
H1981 C1990 0.930 . S
H1982 C1992 0.930 . S
H1983 C1995 0.929 . S
H1984 C1998 0.930 . S
H1985 C2000 0.960 . S
H1986 C2000 0.960 . S
H1987 C2000 0.960 . S
C1988 H1980 0.929 . S
C1988 C1989 1.377 . S
C1988 C1990 1.384 . S
C1989 C1988 1.377 . S
C1989 C1995 1.390 . S
C1990 H1981 0.930 . S
C1990 C1988 1.384 . S
C1990 C1991 1.372 . S
C1991 C1990 1.372 . S
C1991 C1992 1.400 . S
C1991 C1996 1.490 . S
C1992 H1982 0.930 . S
C1992 C1991 1.400 . S
C1992 C1995 1.386 . S
H1993 C2009 0.930 . S
H1994 C2010 0.931 . S
C1995 H1983 0.929 . S
C1995 C1989 1.390 . S
C1995 C1992 1.386 . S
C1996 C1991 1.490 . S
C1996 C1998 1.395 . S
C1996 C1999 1.403 . S
H1997 C2003 0.930 . S
C1998 H1984 0.930 . S
C1998 C1996 1.395 . S
C1998 C2001 1.403 . S
C1999 C1996 1.403 . S
C1999 C2000 1.524 . S
C1999 C2003 1.400 . S
C2000 H1985 0.960 . S
C2000 H1986 0.960 . S
C2000 H1987 0.960 . S
C2000 C1999 1.524 . S
C2001 C1998 1.403 . S
C2001 C2002 1.392 . S
C2001 C2005 1.495 . S
C2002 C2001 1.392 . S
C2002 C2003 1.385 . S
C2002 C2004 1.478 . S
C2003 H1997 0.930 . S
C2003 C1999 1.400 . S
C2003 C2002 1.385 . S
C2004 C2002 1.478 . S
C2004 C2006 1.381 . S
C2004 C2010 1.383 . S
C2005 C2001 1.495 . S
C2005 H2011 0.959 . S
C2005 H2012 0.961 . S
C2005 H2013 0.960 . S
C2006 C2004 1.381 . S
C2006 C2007 1.394 . S
C2006 H2014 0.930 . S
C2007 C2006 1.394 . S
C2007 C2008 1.383 . S
C2007 H2015 0.929 . S
C2008 C2007 1.383 . S
C2008 C2009 1.377 . S
C2009 H1993 0.930 . S
C2009 C2008 1.377 . S
C2009 C2010 1.379 . S
C2010 H1994 0.931 . S
C2010 C2004 1.383 . S
C2010 C2009 1.379 . S
H2011 C2005 0.959 . S
H2012 C2005 0.961 . S
H2013 C2005 0.960 . S
H2014 C2006 0.930 . S
H2015 C2007 0.929 . S
H2016 C2024 0.929 . S
H2017 C2026 0.930 . S
H2018 C2028 0.930 . S
H2019 C2031 0.929 . S
H2020 C2034 0.930 . S
H2021 C2036 0.960 . S
H2022 C2036 0.960 . S
H2023 C2036 0.960 . S
C2024 H2016 0.929 . S
C2024 C2025 1.377 . S
C2024 C2026 1.384 . S
C2025 C2024 1.377 . S
C2025 C2031 1.390 . S
C2026 H2017 0.930 . S
C2026 C2024 1.384 . S
C2026 C2027 1.372 . S
C2027 C2026 1.372 . S
C2027 C2028 1.400 . S
C2027 C2032 1.490 . S
C2028 H2018 0.930 . S
C2028 C2027 1.400 . S
C2028 C2031 1.386 . S
H2029 C2045 0.930 . S
H2030 C2046 0.931 . S
C2031 H2019 0.929 . S
C2031 C2025 1.390 . S
C2031 C2028 1.386 . S
C2032 C2027 1.490 . S
C2032 C2034 1.395 . S
C2032 C2035 1.403 . S
H2033 C2039 0.930 . S
C2034 H2020 0.930 . S
C2034 C2032 1.395 . S
C2034 C2037 1.403 . S
C2035 C2032 1.403 . S
C2035 C2036 1.524 . S
C2035 C2039 1.400 . S
C2036 H2021 0.960 . S
C2036 H2022 0.960 . S
C2036 H2023 0.960 . S
C2036 C2035 1.524 . S
C2037 C2034 1.403 . S
C2037 C2038 1.392 . S
C2037 C2041 1.495 . S
C2038 C2037 1.392 . S
C2038 C2039 1.385 . S
C2038 C2040 1.478 . S
C2039 H2033 0.930 . S
C2039 C2035 1.400 . S
C2039 C2038 1.385 . S
C2040 C2038 1.478 . S
C2040 C2042 1.381 . S
C2040 C2046 1.383 . S
C2041 C2037 1.495 . S
C2041 H2047 0.959 . S
C2041 H2048 0.961 . S
C2041 H2049 0.960 . S
C2042 C2040 1.381 . S
C2042 C2043 1.394 . S
C2042 H2050 0.930 . S
C2043 C2042 1.394 . S
C2043 C2044 1.383 . S
C2043 H2051 0.929 . S
C2044 C2043 1.383 . S
C2044 C2045 1.377 . S
C2045 H2029 0.930 . S
C2045 C2044 1.377 . S
C2045 C2046 1.379 . S
C2046 H2030 0.931 . S
C2046 C2040 1.383 . S
C2046 C2045 1.379 . S
H2047 C2041 0.959 . S
H2048 C2041 0.961 . S
H2049 C2041 0.960 . S
H2050 C2042 0.930 . S
H2051 C2043 0.929 . S
H2052 C2060 0.929 . S
H2053 C2062 0.930 . S
H2054 C2064 0.930 . S
H2055 C2067 0.929 . S
H2056 C2070 0.930 . S
H2057 C2072 0.960 . S
H2058 C2072 0.960 . S
H2059 C2072 0.960 . S
C2060 H2052 0.929 . S
C2060 C2061 1.377 . S
C2060 C2062 1.384 . S
C2061 C2060 1.377 . S
C2061 C2067 1.390 . S
C2062 H2053 0.930 . S
C2062 C2060 1.384 . S
C2062 C2063 1.372 . S
C2063 C2062 1.372 . S
C2063 C2064 1.400 . S
C2063 C2068 1.490 . S
C2064 H2054 0.930 . S
C2064 C2063 1.400 . S
C2064 C2067 1.386 . S
H2065 C2081 0.930 . S
H2066 C2082 0.931 . S
C2067 H2055 0.929 . S
C2067 C2061 1.390 . S
C2067 C2064 1.386 . S
C2068 C2063 1.490 . S
C2068 C2070 1.395 . S
C2068 C2071 1.403 . S
H2069 C2075 0.930 . S
C2070 H2056 0.930 . S
C2070 C2068 1.395 . S
C2070 C2073 1.403 . S
C2071 C2068 1.403 . S
C2071 C2072 1.524 . S
C2071 C2075 1.400 . S
C2072 H2057 0.960 . S
C2072 H2058 0.960 . S
C2072 H2059 0.960 . S
C2072 C2071 1.524 . S
C2073 C2070 1.403 . S
C2073 C2074 1.392 . S
C2073 C2077 1.495 . S
C2074 C2073 1.392 . S
C2074 C2075 1.385 . S
C2074 C2076 1.478 . S
C2075 H2069 0.930 . S
C2075 C2071 1.400 . S
C2075 C2074 1.385 . S
C2076 C2074 1.478 . S
C2076 C2078 1.381 . S
C2076 C2082 1.383 . S
C2077 C2073 1.495 . S
C2077 H2083 0.959 . S
C2077 H2084 0.961 . S
C2077 H2085 0.960 . S
C2078 C2076 1.381 . S
C2078 C2079 1.394 . S
C2078 H2086 0.930 . S
C2079 C2078 1.394 . S
C2079 C2080 1.383 . S
C2079 H2087 0.929 . S
C2080 C2079 1.383 . S
C2080 C2081 1.377 . S
C2081 H2065 0.930 . S
C2081 C2080 1.377 . S
C2081 C2082 1.379 . S
C2082 H2066 0.931 . S
C2082 C2076 1.383 . S
C2082 C2081 1.379 . S
H2083 C2077 0.959 . S
H2084 C2077 0.961 . S
H2085 C2077 0.960 . S
H2086 C2078 0.930 . S
H2087 C2079 0.929 . S
H2088 C2096 0.929 . S
H2089 C2098 0.930 . S
H2090 C2100 0.924 1_565 S
H2091 C2103 0.924 1_565 S
H2092 C2106 0.930 . S
H2093 C2108 0.960 . S
H2094 C2108 0.960 . S
H2095 C2108 0.960 . S
C2096 H2088 0.929 . S
C2096 C2097 1.377 . S
C2096 C2098 1.384 . S
C2097 C2096 1.377 . S
C2097 C2103 1.390 . S
C2098 H2089 0.930 . S
C2098 C2096 1.384 . S
C2098 C2099 1.372 . S
C2099 C2098 1.372 . S
C2099 C2100 1.405 . S
C2099 C2104 1.490 . S
C2100 H2090 0.924 1_545 S
C2100 C2099 1.405 . S
C2100 C2103 1.388 . S
H2101 C2117 0.930 . S
H2102 C2118 0.931 . S
C2103 H2091 0.924 1_545 S
C2103 C2097 1.390 . S
C2103 C2100 1.388 . S
C2104 C2099 1.490 . S
C2104 C2106 1.395 1_545 S
C2104 C2107 1.403 . S
H2105 C2111 0.930 . S
C2106 H2092 0.930 . S
C2106 C2104 1.395 1_565 S
C2106 C2109 1.403 . S
C2107 C2104 1.403 . S
C2107 C2108 1.524 . S
C2107 C2111 1.400 . S
C2108 H2093 0.960 . S
C2108 H2094 0.960 . S
C2108 H2095 0.960 . S
C2108 C2107 1.524 . S
C2109 C2106 1.403 . S
C2109 C2110 1.392 . S
C2109 C2113 1.495 . S
C2110 C2109 1.392 . S
C2110 C2111 1.385 1_565 S
C2110 C2112 1.478 . S
C2111 H2105 0.930 . S
C2111 C2107 1.400 . S
C2111 C2110 1.385 1_545 S
C2112 C2110 1.478 . S
C2112 C2114 1.376 1_565 S
C2112 C2118 1.383 . S
C2113 C2109 1.495 . S
C2113 H2119 0.959 . S
C2113 H2120 0.961 . S
C2113 H2121 0.960 . S
C2114 C2112 1.376 1_545 S
C2114 C2115 1.394 . S
C2114 H2122 0.935 . S
C2115 C2114 1.394 . S
C2115 C2116 1.381 1_545 S
C2115 H2123 0.931 . S
C2116 C2115 1.381 1_565 S
C2116 C2117 1.377 . S
C2117 H2101 0.930 . S
C2117 C2116 1.377 . S
C2117 C2118 1.379 . S
C2118 H2102 0.931 . S
C2118 C2112 1.383 . S
C2118 C2117 1.379 . S
H2119 C2113 0.959 . S
H2120 C2113 0.961 . S
H2121 C2113 0.960 . S
H2122 C2114 0.935 . S
H2123 C2115 0.931 . S
H2124 C2132 0.929 . S
H2125 C2134 0.930 . S
H2126 C2136 0.930 . S
H2127 C2139 0.929 . S
H2128 C2142 0.930 . S
H2129 C2144 0.960 . S
H2130 C2144 0.960 . S
H2131 C2144 0.960 . S
C2132 H2124 0.929 . S
C2132 C2133 1.377 1_554 S
C2132 C2134 1.384 . S
C2133 C2132 1.377 1_556 S
C2133 C2139 1.390 . S
C2134 H2125 0.930 . S
C2134 C2132 1.384 . S
C2134 C2135 1.372 1_554 S
C2135 C2134 1.372 1_556 S
C2135 C2136 1.400 . S
C2135 C2140 1.487 1_556 S
C2136 H2126 0.930 . S
C2136 C2135 1.400 . S
C2136 C2139 1.386 . S
H2137 C2153 0.930 1_556 S
H2138 C2154 0.931 1_556 S
C2139 H2127 0.929 . S
C2139 C2133 1.390 . S
C2139 C2136 1.386 . S
C2140 C2135 1.487 1_554 S
C2140 C2142 1.423 . S
C2140 C2143 1.378 1_554 S
H2141 C2147 0.930 . S
C2142 H2128 0.930 . S
C2142 C2140 1.423 . S
C2142 C2145 1.403 . S
C2143 C2140 1.378 1_556 S
C2143 C2144 1.524 . S
C2143 C2147 1.400 . S
C2144 H2129 0.960 . S
C2144 H2130 0.960 . S
C2144 H2131 0.960 . S
C2144 C2143 1.524 . S
C2145 C2142 1.403 . S
C2145 C2146 1.392 . S
C2145 C2149 1.495 . S
C2146 C2145 1.392 . S
C2146 C2147 1.385 1_554 S
C2146 C2148 1.478 . S
C2147 H2141 0.930 . S
C2147 C2143 1.400 . S
C2147 C2146 1.385 1_556 S
C2148 C2146 1.478 . S
C2148 C2150 1.381 . S
C2148 C2154 1.383 . S
C2149 C2145 1.495 . S
C2149 H2155 0.959 . S
C2149 H2156 0.961 . S
C2149 H2157 0.960 . S
C2150 C2148 1.381 . S
C2150 C2151 1.394 . S
C2150 H2158 0.930 . S
C2151 C2150 1.394 . S
C2151 C2152 1.383 . S
C2151 H2159 0.929 . S
C2152 C2151 1.383 . S
C2152 C2153 1.377 . S
C2153 H2137 0.930 1_554 S
C2153 C2152 1.377 . S
C2153 C2154 1.379 . S
C2154 H2138 0.931 1_554 S
C2154 C2148 1.383 . S
C2154 C2153 1.379 . S
H2155 C2149 0.959 . S
H2156 C2149 0.961 . S
H2157 C2149 0.960 . S
H2158 C2150 0.930 . S
H2159 C2151 0.929 . S
H2160 C2168 0.929 . S
H2161 C2170 0.930 . S
H2162 C2172 0.930 . S
H2163 C2175 0.929 . S
H2164 C2178 0.930 . S
H2165 C2180 0.960 . S
H2166 C2180 0.960 . S
H2167 C2180 0.960 1_565 S
C2168 H2160 0.929 . S
C2168 C2169 1.377 1_655 S
C2168 C2170 1.384 . S
C2169 C2168 1.377 1_455 S
C2169 C2175 1.390 . S
C2170 H2161 0.930 . S
C2170 C2168 1.384 . S
C2170 C2171 1.372 1_655 S
C2171 C2170 1.372 1_455 S
C2171 C2172 1.400 . S
C2171 C2176 1.490 . S
C2172 H2162 0.930 . S
C2172 C2171 1.400 . S
C2172 C2175 1.386 . S
H2173 C2189 0.930 . S
H2174 C2190 0.931 . S
C2175 H2163 0.929 . S
C2175 C2169 1.390 . S
C2175 C2172 1.386 . S
C2176 C2171 1.490 . S
C2176 C2178 1.395 1_455 S
C2176 C2179 1.403 . S
H2177 C2183 0.930 . S
C2178 H2164 0.930 . S
C2178 C2176 1.395 1_655 S
C2178 C2181 1.403 . S
C2179 C2176 1.403 . S
C2179 C2180 1.524 1_565 S
C2179 C2183 1.400 1_565 S
C2180 H2165 0.960 . S
C2180 H2166 0.960 . S
C2180 H2167 0.960 1_545 S
C2180 C2179 1.524 1_545 S
C2181 C2178 1.403 . S
C2181 C2182 1.401 1_565 S
C2181 C2185 1.495 . S
C2182 C2181 1.401 1_545 S
C2182 C2183 1.376 1_655 S
C2182 C2184 1.478 . S
C2183 H2177 0.930 . S
C2183 C2179 1.400 1_545 S
C2183 C2182 1.376 1_455 S
C2184 C2182 1.478 . S
C2184 C2186 1.391 . S
C2184 C2190 1.373 1_655 S
C2185 C2181 1.495 . S
C2185 H2191 0.959 . S
C2185 H2192 0.961 . S
C2185 H2193 0.960 1_565 S
C2186 C2184 1.391 . S
C2186 C2187 1.394 . S
C2186 H2194 0.930 . S
C2187 C2186 1.394 . S
C2187 C2188 1.383 1_655 S
C2187 H2195 0.929 . S
C2188 C2187 1.383 1_455 S
C2188 C2189 1.377 . S
C2189 H2173 0.930 . S
C2189 C2188 1.377 . S
C2189 C2190 1.379 . S
C2190 H2174 0.931 . S
C2190 C2184 1.373 1_455 S
C2190 C2189 1.379 . S
H2191 C2185 0.959 . S
H2192 C2185 0.961 . S
H2193 C2185 0.960 1_545 S
H2194 C2186 0.930 . S
H2195 C2187 0.929 . S
H2196 C2204 0.929 . S
H2197 C2206 0.930 . S
H2198 C2208 0.930 . S
H2199 C2211 0.929 . S
H2200 C2214 0.930 . S
H2201 C2216 0.960 . S
H2202 C2216 0.960 . S
H2203 C2216 0.960 . S
C2204 H2196 0.929 . S
C2204 C2205 1.377 . S
C2204 C2206 1.384 . S
C2205 C2204 1.377 . S
C2205 C2211 1.390 1_655 S
C2206 H2197 0.930 . S
C2206 C2204 1.384 . S
C2206 C2207 1.372 . S
C2207 C2206 1.372 . S
C2207 C2208 1.400 1_655 S
C2207 C2212 1.490 . S
C2208 H2198 0.930 . S
C2208 C2207 1.400 1_455 S
C2208 C2211 1.386 . S
H2209 C2225 0.930 . S
H2210 C2226 0.931 . S
C2211 H2199 0.929 . S
C2211 C2205 1.390 1_455 S
C2211 C2208 1.386 . S
C2212 C2207 1.490 . S
C2212 C2214 1.395 . S
C2212 C2215 1.403 1_655 S
H2213 C2219 0.930 . S
C2214 H2200 0.930 . S
C2214 C2212 1.395 . S
C2214 C2217 1.403 . S
C2215 C2212 1.403 1_455 S
C2215 C2216 1.524 . S
C2215 C2219 1.400 . S
C2216 H2201 0.960 . S
C2216 H2202 0.960 . S
C2216 H2203 0.960 . S
C2216 C2215 1.524 . S
C2217 C2214 1.403 . S
C2217 C2218 1.392 . S
C2217 C2221 1.495 . S
C2218 C2217 1.392 . S
C2218 C2219 1.385 1_655 S
C2218 C2220 1.478 . S
C2219 H2213 0.930 . S
C2219 C2215 1.400 . S
C2219 C2218 1.385 1_455 S
C2220 C2218 1.478 . S
C2220 C2222 1.381 . S
C2220 C2226 1.383 1_655 S
C2221 C2217 1.495 . S
C2221 H2227 0.959 . S
C2221 H2228 0.961 . S
C2221 H2229 0.960 . S
C2222 C2220 1.381 . S
C2222 C2223 1.394 . S
C2222 H2230 0.930 . S
C2223 C2222 1.394 . S
C2223 C2224 1.383 . S
C2223 H2231 0.929 . S
C2224 C2223 1.383 . S
C2224 C2225 1.377 1_655 S
C2225 H2209 0.930 . S
C2225 C2224 1.377 1_455 S
C2225 C2226 1.379 . S
C2226 H2210 0.931 . S
C2226 C2220 1.383 1_455 S
C2226 C2225 1.379 . S
H2227 C2221 0.959 . S
H2228 C2221 0.961 . S
H2229 C2221 0.960 . S
H2230 C2222 0.930 . S
H2231 C2223 0.929 . S
H2232 C2240 0.929 . S
H2233 C2242 0.930 . S
H2234 C2244 0.930 . S
H2235 C2247 0.929 . S
H2236 C2250 0.930 . S
H2237 C2252 0.960 . S
H2238 C2252 0.960 . S
H2239 C2252 0.960 . S
C2240 H2232 0.929 . S
C2240 C2241 1.377 . S
C2240 C2242 1.384 . S
C2241 C2240 1.377 . S
C2241 C2247 1.390 1_545 S
C2242 H2233 0.930 . S
C2242 C2240 1.384 . S
C2242 C2243 1.372 . S
C2243 C2242 1.372 . S
C2243 C2244 1.400 1_545 S
C2243 C2248 1.490 . S
C2244 H2234 0.930 . S
C2244 C2243 1.400 1_565 S
C2244 C2247 1.386 . S
H2245 C2261 0.930 . S
H2246 C2262 0.931 . S
C2247 H2235 0.929 . S
C2247 C2241 1.390 1_565 S
C2247 C2244 1.386 . S
C2248 C2243 1.490 . S
C2248 C2250 1.395 1_546 S
C2248 C2251 1.403 . S
H2249 C2255 0.930 . S
C2250 H2236 0.930 . S
C2250 C2248 1.395 1_564 S
C2250 C2253 1.403 . S
C2251 C2248 1.403 . S
C2251 C2252 1.524 . S
C2251 C2255 1.400 . S
C2252 H2237 0.960 . S
C2252 H2238 0.960 . S
C2252 H2239 0.960 . S
C2252 C2251 1.524 . S
C2253 C2250 1.403 . S
C2253 C2254 1.392 1_565 S
C2253 C2257 1.495 . S
C2254 C2253 1.392 1_545 S
C2254 C2255 1.385 1_554 S
C2254 C2256 1.478 . S
C2255 H2249 0.930 . S
C2255 C2251 1.400 . S
C2255 C2254 1.385 1_556 S
C2256 C2254 1.478 . S
C2256 C2258 1.381 . S
C2256 C2262 1.383 1_545 S
C2257 C2253 1.495 . S
C2257 H2263 0.959 . S
C2257 H2264 0.961 . S
C2257 H2265 0.960 . S
C2258 C2256 1.381 . S
C2258 C2259 1.394 . S
C2258 H2266 0.930 . S
C2259 C2258 1.394 . S
C2259 C2260 1.383 . S
C2259 H2267 0.929 . S
C2260 C2259 1.383 . S
C2260 C2261 1.377 1_545 S
C2261 H2245 0.930 . S
C2261 C2260 1.377 1_565 S
C2261 C2262 1.379 . S
C2262 H2246 0.931 . S
C2262 C2256 1.383 1_565 S
C2262 C2261 1.379 . S
H2263 C2257 0.959 . S
H2264 C2257 0.961 . S
H2265 C2257 0.960 . S
H2266 C2258 0.930 . S
H2267 C2259 0.929 . S
H2268 C2276 0.929 . S
H2269 C2278 0.930 . S
H2270 C2280 0.930 . S
H2271 C2283 0.929 . S
H2272 C2286 0.930 . S
H2273 C2288 0.960 . S
H2274 C2288 0.960 . S
H2275 C2288 0.960 . S
C2276 H2268 0.929 . S
C2276 C2277 1.377 . S
C2276 C2278 1.384 . S
C2277 C2276 1.377 . S
C2277 C2283 1.390 . S
C2278 H2269 0.930 . S
C2278 C2276 1.384 . S
C2278 C2279 1.372 . S
C2279 C2278 1.372 . S
C2279 C2280 1.400 . S
C2279 C2284 1.490 . S
C2280 H2270 0.930 . S
C2280 C2279 1.400 . S
C2280 C2283 1.386 . S
H2281 C2297 0.930 . S
H2282 C2298 0.931 . S
C2283 H2271 0.929 . S
C2283 C2277 1.390 . S
C2283 C2280 1.386 . S
C2284 C2279 1.490 . S
C2284 C2286 1.395 . S
C2284 C2287 1.403 1_554 S
H2285 C2291 0.930 . S
C2286 H2272 0.930 . S
C2286 C2284 1.395 . S
C2286 C2289 1.403 . S
C2287 C2284 1.403 1_556 S
C2287 C2288 1.524 . S
C2287 C2291 1.400 . S
C2288 H2273 0.960 . S
C2288 H2274 0.960 . S
C2288 H2275 0.960 . S
C2288 C2287 1.524 . S
C2289 C2286 1.403 . S
C2289 C2290 1.392 1_554 S
C2289 C2293 1.495 . S
C2290 C2289 1.392 1_556 S
C2290 C2291 1.385 . S
C2290 C2292 1.478 . S
C2291 H2285 0.930 . S
C2291 C2287 1.400 . S
C2291 C2290 1.385 . S
C2292 C2290 1.478 . S
C2292 C2294 1.381 . S
C2292 C2298 1.383 . S
C2293 C2289 1.495 . S
C2293 H2299 0.959 . S
C2293 H2300 0.961 . S
C2293 H2301 0.960 . S
C2294 C2292 1.381 . S
C2294 C2295 1.394 . S
C2294 H2302 0.930 . S
C2295 C2294 1.394 . S
C2295 C2296 1.383 . S
C2295 H2303 0.929 . S
C2296 C2295 1.383 . S
C2296 C2297 1.377 . S
C2297 H2281 0.930 . S
C2297 C2296 1.377 . S
C2297 C2298 1.379 . S
C2298 H2282 0.931 . S
C2298 C2292 1.383 . S
C2298 C2297 1.379 . S
H2299 C2293 0.959 . S
H2300 C2293 0.961 . S
H2301 C2293 0.960 . S
H2302 C2294 0.930 . S
H2303 C2295 0.929 . S
H2304 C2312 0.929 . S
H2305 C2314 0.930 . S
H2306 C2316 0.930 . S
H2307 C2319 0.929 . S
H2308 C2322 0.930 . S
H2309 C2324 0.960 . S
H2310 C2324 0.960 . S
H2311 C2324 0.960 1_565 S
C2312 H2304 0.929 . S
C2312 C2313 1.377 1_545 S
C2312 C2314 1.384 . S
C2313 C2312 1.377 1_565 S
C2313 C2319 1.390 . S
C2314 H2305 0.930 . S
C2314 C2312 1.384 . S
C2314 C2315 1.372 1_545 S
C2315 C2314 1.372 1_565 S
C2315 C2316 1.400 . S
C2315 C2320 1.490 . S
C2316 H2306 0.930 . S
C2316 C2315 1.400 . S
C2316 C2319 1.386 . S
H2317 C2333 0.930 . S
H2318 C2334 0.931 . S
C2319 H2307 0.929 . S
C2319 C2313 1.390 . S
C2319 C2316 1.386 . S
C2320 C2315 1.490 . S
C2320 C2322 1.395 . S
C2320 C2323 1.395 1_565 S
H2321 C2327 0.925 1_545 S
C2322 H2308 0.930 . S
C2322 C2320 1.395 . S
C2322 C2325 1.403 . S
C2323 C2320 1.395 1_545 S
C2323 C2324 1.535 . S
C2323 C2327 1.398 1_545 S
C2324 H2309 0.960 . S
C2324 H2310 0.960 . S
C2324 H2311 0.960 1_545 S
C2324 C2323 1.535 . S
C2325 C2322 1.403 . S
C2325 C2326 1.392 . S
C2325 C2329 1.495 . S
C2326 C2325 1.392 . S
C2326 C2327 1.392 . S
C2326 C2328 1.478 . S
C2327 H2321 0.925 1_565 S
C2327 C2323 1.398 1_565 S
C2327 C2326 1.392 . S
C2328 C2326 1.478 . S
C2328 C2330 1.381 1_565 S
C2328 C2334 1.383 . S
C2329 C2325 1.495 . S
C2329 H2335 0.959 . S
C2329 H2336 0.961 . S
C2329 H2337 0.960 . S
C2330 C2328 1.381 1_545 S
C2330 C2331 1.394 . S
C2330 H2338 0.930 . S
C2331 C2330 1.394 . S
C2331 C2332 1.383 1_545 S
C2331 H2339 0.929 . S
C2332 C2331 1.383 1_565 S
C2332 C2333 1.377 . S
C2333 H2317 0.930 . S
C2333 C2332 1.377 . S
C2333 C2334 1.379 . S
C2334 H2318 0.931 . S
C2334 C2328 1.383 . S
C2334 C2333 1.379 . S
H2335 C2329 0.959 . S
H2336 C2329 0.961 . S
H2337 C2329 0.960 . S
H2338 C2330 0.930 . S
H2339 C2331 0.929 . S
H2340 C2348 0.929 . S
H2341 C2350 0.930 . S
H2342 C2352 0.930 . S
H2343 C2355 0.929 . S
H2344 C2358 0.930 . S
H2345 C2360 0.960 . S
H2346 C2360 0.960 . S
H2347 C2360 0.960 . S
C2348 H2340 0.929 . S
C2348 C2349 1.377 . S
C2348 C2350 1.384 . S
C2349 C2348 1.377 . S
C2349 C2355 1.390 . S
C2350 H2341 0.930 . S
C2350 C2348 1.384 . S
C2350 C2351 1.372 . S
C2351 C2350 1.372 . S
C2351 C2352 1.400 . S
C2351 C2356 1.490 . S
C2352 H2342 0.930 . S
C2352 C2351 1.400 . S
C2352 C2355 1.386 . S
H2353 C2369 0.930 . S
H2354 C2370 0.931 . S
C2355 H2343 0.929 . S
C2355 C2349 1.390 . S
C2355 C2352 1.386 . S
C2356 C2351 1.490 . S
C2356 C2358 1.395 . S
C2356 C2359 1.403 . S
H2357 C2363 0.930 . S
C2358 H2344 0.930 . S
C2358 C2356 1.395 . S
C2358 C2361 1.403 . S
C2359 C2356 1.403 . S
C2359 C2360 1.524 . S
C2359 C2363 1.400 . S
C2360 H2345 0.960 . S
C2360 H2346 0.960 . S
C2360 H2347 0.960 . S
C2360 C2359 1.524 . S
C2361 C2358 1.403 . S
C2361 C2362 1.392 . S
C2361 C2365 1.495 . S
C2362 C2361 1.392 . S
C2362 C2363 1.385 . S
C2362 C2364 1.478 . S
C2363 H2357 0.930 . S
C2363 C2359 1.400 . S
C2363 C2362 1.385 . S
C2364 C2362 1.478 . S
C2364 C2366 1.381 . S
C2364 C2370 1.383 . S
C2365 C2361 1.495 . S
C2365 H2371 0.959 . S
C2365 H2372 0.961 . S
C2365 H2373 0.960 . S
C2366 C2364 1.381 . S
C2366 C2367 1.394 . S
C2366 H2374 0.930 . S
C2367 C2366 1.394 . S
C2367 C2368 1.383 . S
C2367 H2375 0.929 . S
C2368 C2367 1.383 . S
C2368 C2369 1.377 . S
C2369 H2353 0.930 . S
C2369 C2368 1.377 . S
C2369 C2370 1.379 . S
C2370 H2354 0.931 . S
C2370 C2364 1.383 . S
C2370 C2369 1.379 . S
H2371 C2365 0.959 . S
H2372 C2365 0.961 . S
H2373 C2365 0.960 . S
H2374 C2366 0.930 . S
H2375 C2367 0.929 . S
H2376 C2384 0.929 . S
H2377 C2386 0.930 . S
H2378 C2388 0.930 . S
H2379 C2391 0.929 . S
H2380 C2394 0.930 . S
H2381 C2396 0.960 . S
H2382 C2396 0.960 . S
H2383 C2396 0.960 . S
C2384 H2376 0.929 . S
C2384 C2385 1.377 . S
C2384 C2386 1.384 . S
C2385 C2384 1.377 . S
C2385 C2391 1.390 1_554 S
C2386 H2377 0.930 . S
C2386 C2384 1.384 . S
C2386 C2387 1.372 . S
C2387 C2386 1.372 . S
C2387 C2388 1.400 1_554 S
C2387 C2392 1.490 . S
C2388 H2378 0.930 . S
C2388 C2387 1.400 1_556 S
C2388 C2391 1.386 . S
H2389 C2405 0.930 . S
H2390 C2406 0.931 . S
C2391 H2379 0.929 . S
C2391 C2385 1.390 1_556 S
C2391 C2388 1.386 . S
C2392 C2387 1.490 . S
C2392 C2394 1.395 1_454 S
C2392 C2395 1.403 . S
H2393 C2399 0.937 . S
C2394 H2380 0.930 . S
C2394 C2392 1.395 1_656 S
C2394 C2397 1.403 . S
C2395 C2392 1.403 . S
C2395 C2396 1.524 . S
C2395 C2399 1.421 . S
C2396 H2381 0.960 . S
C2396 H2382 0.960 . S
C2396 H2383 0.960 . S
C2396 C2395 1.524 . S
C2397 C2394 1.403 . S
C2397 C2398 1.392 1_556 S
C2397 C2401 1.495 . S
C2398 C2397 1.392 1_554 S
C2398 C2399 1.358 1_655 S
C2398 C2400 1.478 . S
C2399 H2393 0.937 . S
C2399 C2395 1.421 . S
C2399 C2398 1.358 1_455 S
C2400 C2398 1.478 . S
C2400 C2402 1.381 . S
C2400 C2406 1.383 1_554 S
C2401 C2397 1.495 . S
C2401 H2407 0.959 . S
C2401 H2408 0.961 . S
C2401 H2409 0.960 1_556 S
C2402 C2400 1.381 . S
C2402 C2403 1.394 . S
C2402 H2410 0.930 . S
C2403 C2402 1.394 . S
C2403 C2404 1.383 . S
C2403 H2411 0.929 . S
C2404 C2403 1.383 . S
C2404 C2405 1.377 1_554 S
C2405 H2389 0.930 . S
C2405 C2404 1.377 1_556 S
C2405 C2406 1.379 . S
C2406 H2390 0.931 . S
C2406 C2400 1.383 1_556 S
C2406 C2405 1.379 . S
H2407 C2401 0.959 . S
H2408 C2401 0.961 . S
H2409 C2401 0.960 1_554 S
H2410 C2402 0.930 . S
H2411 C2403 0.929 . S
H2412 C2420 0.929 . S
H2413 C2422 0.930 . S
H2414 C2424 0.930 . S
H2415 C2427 0.929 . S
H2416 C2430 0.926 1_455 S
H2417 C2432 0.960 . S
H2418 C2432 0.960 . S
H2419 C2432 0.960 . S
C2420 H2412 0.929 . S
C2420 C2421 1.377 . S
C2420 C2422 1.384 . S
C2421 C2420 1.377 . S
C2421 C2427 1.390 . S
C2422 H2413 0.930 . S
C2422 C2420 1.384 . S
C2422 C2423 1.372 . S
C2423 C2422 1.372 . S
C2423 C2424 1.400 . S
C2423 C2428 1.490 . S
C2424 H2414 0.930 . S
C2424 C2423 1.400 . S
C2424 C2427 1.386 . S
H2425 C2441 0.930 . S
H2426 C2442 0.931 . S
C2427 H2415 0.929 . S
C2427 C2421 1.390 . S
C2427 C2424 1.386 . S
C2428 C2423 1.490 . S
C2428 C2430 1.371 1_455 S
C2428 C2431 1.403 . S
H2429 C2435 0.930 . S
C2430 H2416 0.926 1_655 S
C2430 C2428 1.371 1_655 S
C2430 C2433 1.432 . S
C2431 C2428 1.403 . S
C2431 C2432 1.524 . S
C2431 C2435 1.400 1_455 S
C2432 H2417 0.960 . S
C2432 H2418 0.960 . S
C2432 H2419 0.960 . S
C2432 C2431 1.524 . S
C2433 C2430 1.432 . S
C2433 C2434 1.392 . S
C2433 C2437 1.495 . S
C2434 C2433 1.392 . S
C2434 C2435 1.385 . S
C2434 C2436 1.478 . S
C2435 H2429 0.930 . S
C2435 C2431 1.400 1_655 S
C2435 C2434 1.385 . S
C2436 C2434 1.478 . S
C2436 C2438 1.381 . S
C2436 C2442 1.383 . S
C2437 C2433 1.495 . S
C2437 H2443 0.959 . S
C2437 H2444 0.961 . S
C2437 H2445 0.960 . S
C2438 C2436 1.381 . S
C2438 C2439 1.394 . S
C2438 H2446 0.930 . S
C2439 C2438 1.394 . S
C2439 C2440 1.383 . S
C2439 H2447 0.929 . S
C2440 C2439 1.383 . S
C2440 C2441 1.377 . S
C2441 H2425 0.930 . S
C2441 C2440 1.377 . S
C2441 C2442 1.379 . S
C2442 H2426 0.931 . S
C2442 C2436 1.383 . S
C2442 C2441 1.379 . S
H2443 C2437 0.959 . S
H2444 C2437 0.961 . S
H2445 C2437 0.960 . S
H2446 C2438 0.930 . S
H2447 C2439 0.929 . S
H2448 C2456 0.929 . S
H2449 C2458 0.930 . S
H2450 C2460 0.930 . S
H2451 C2463 0.929 . S
H2452 C2466 0.930 . S
H2453 C2468 0.960 . S
H2454 C2468 0.960 . S
H2455 C2468 0.960 . S
C2456 H2448 0.929 . S
C2456 C2457 1.377 . S
C2456 C2458 1.384 . S
C2457 C2456 1.377 . S
C2457 C2463 1.390 . S
C2458 H2449 0.930 . S
C2458 C2456 1.384 . S
C2458 C2459 1.372 . S
C2459 C2458 1.372 . S
C2459 C2460 1.400 . S
C2459 C2464 1.490 . S
C2460 H2450 0.930 . S
C2460 C2459 1.400 . S
C2460 C2463 1.386 . S
H2461 C2477 0.930 . S
H2462 C2478 0.931 . S
C2463 H2451 0.929 . S
C2463 C2457 1.390 . S
C2463 C2460 1.386 . S
C2464 C2459 1.490 . S
C2464 C2466 1.395 . S
C2464 C2467 1.403 . S
H2465 C2471 0.930 . S
C2466 H2452 0.930 . S
C2466 C2464 1.395 . S
C2466 C2469 1.403 . S
C2467 C2464 1.403 . S
C2467 C2468 1.524 . S
C2467 C2471 1.400 . S
C2468 H2453 0.960 . S
C2468 H2454 0.960 . S
C2468 H2455 0.960 . S
C2468 C2467 1.524 . S
C2469 C2466 1.403 . S
C2469 C2470 1.392 . S
C2469 C2473 1.495 . S
C2470 C2469 1.392 . S
C2470 C2471 1.385 . S
C2470 C2472 1.478 . S
C2471 H2465 0.930 . S
C2471 C2467 1.400 . S
C2471 C2470 1.385 . S
C2472 C2470 1.478 . S
C2472 C2474 1.381 . S
C2472 C2478 1.383 . S
C2473 C2469 1.495 . S
C2473 H2479 0.959 . S
C2473 H2480 0.961 . S
C2473 H2481 0.960 . S
C2474 C2472 1.381 . S
C2474 C2475 1.394 . S
C2474 H2482 0.930 . S
C2475 C2474 1.394 . S
C2475 C2476 1.383 . S
C2475 H2483 0.929 . S
C2476 C2475 1.383 . S
C2476 C2477 1.377 . S
C2477 H2461 0.930 . S
C2477 C2476 1.377 . S
C2477 C2478 1.379 . S
C2478 H2462 0.931 . S
C2478 C2472 1.383 . S
C2478 C2477 1.379 . S
H2479 C2473 0.959 . S
H2480 C2473 0.961 . S
H2481 C2473 0.960 . S
H2482 C2474 0.930 . S
H2483 C2475 0.929 . S
H2484 C2492 0.929 . S
H2485 C2494 0.930 . S
H2486 C2496 0.930 . S
H2487 C2499 0.929 . S
H2488 C2502 0.930 . S
H2489 C2504 0.960 . S
H2490 C2504 0.960 . S
H2491 C2504 0.960 . S
C2492 H2484 0.929 . S
C2492 C2493 1.377 . S
C2492 C2494 1.384 . S
C2493 C2492 1.377 . S
C2493 C2499 1.390 . S
C2494 H2485 0.930 . S
C2494 C2492 1.384 . S
C2494 C2495 1.372 . S
C2495 C2494 1.372 . S
C2495 C2496 1.400 . S
C2495 C2500 1.490 . S
C2496 H2486 0.930 . S
C2496 C2495 1.400 . S
C2496 C2499 1.386 . S
H2497 C2513 0.930 . S
H2498 C2514 0.931 . S
C2499 H2487 0.929 . S
C2499 C2493 1.390 . S
C2499 C2496 1.386 . S
C2500 C2495 1.490 . S
C2500 C2502 1.395 . S
C2500 C2503 1.403 . S
H2501 C2507 0.930 . S
C2502 H2488 0.930 . S
C2502 C2500 1.395 . S
C2502 C2505 1.403 . S
C2503 C2500 1.403 . S
C2503 C2504 1.524 . S
C2503 C2507 1.400 . S
C2504 H2489 0.960 . S
C2504 H2490 0.960 . S
C2504 H2491 0.960 . S
C2504 C2503 1.524 . S
C2505 C2502 1.403 . S
C2505 C2506 1.392 . S
C2505 C2509 1.495 . S
C2506 C2505 1.392 . S
C2506 C2507 1.385 . S
C2506 C2508 1.478 . S
C2507 H2501 0.930 . S
C2507 C2503 1.400 . S
C2507 C2506 1.385 . S
C2508 C2506 1.478 . S
C2508 C2510 1.381 . S
C2508 C2514 1.383 . S
C2509 C2505 1.495 . S
C2509 H2515 0.959 . S
C2509 H2516 0.961 . S
C2509 H2517 0.960 . S
C2510 C2508 1.381 . S
C2510 C2511 1.394 . S
C2510 H2518 0.930 . S
C2511 C2510 1.394 . S
C2511 C2512 1.383 . S
C2511 H2519 0.929 . S
C2512 C2511 1.383 . S
C2512 C2513 1.377 . S
C2513 H2497 0.930 . S
C2513 C2512 1.377 . S
C2513 C2514 1.379 . S
C2514 H2498 0.931 . S
C2514 C2508 1.383 . S
C2514 C2513 1.379 . S
H2515 C2509 0.959 . S
H2516 C2509 0.961 . S
H2517 C2509 0.960 . S
H2518 C2510 0.930 . S
H2519 C2511 0.929 . S
H2520 C2528 0.929 . S
H2521 C2530 0.930 . S
H2522 C2532 0.930 . S
H2523 C2535 0.929 . S
H2524 C2538 0.930 . S
H2525 C2540 0.960 . S
H2526 C2540 0.960 . S
H2527 C2540 0.960 . S
C2528 H2520 0.929 . S
C2528 C2529 1.377 . S
C2528 C2530 1.384 . S
C2529 C2528 1.377 . S
C2529 C2535 1.390 . S
C2530 H2521 0.930 . S
C2530 C2528 1.384 . S
C2530 C2531 1.372 . S
C2531 C2530 1.372 . S
C2531 C2532 1.400 . S
C2531 C2536 1.490 . S
C2532 H2522 0.930 . S
C2532 C2531 1.400 . S
C2532 C2535 1.386 . S
H2533 C2549 0.930 . S
H2534 C2550 0.931 . S
C2535 H2523 0.929 . S
C2535 C2529 1.390 . S
C2535 C2532 1.386 . S
C2536 C2531 1.490 . S
C2536 C2538 1.395 . S
C2536 C2539 1.403 1_565 S
H2537 C2543 0.930 . S
C2538 H2524 0.930 . S
C2538 C2536 1.395 . S
C2538 C2541 1.403 . S
C2539 C2536 1.403 1_545 S
C2539 C2540 1.524 . S
C2539 C2543 1.400 . S
C2540 H2525 0.960 . S
C2540 H2526 0.960 . S
C2540 H2527 0.960 . S
C2540 C2539 1.524 . S
C2541 C2538 1.403 . S
C2541 C2542 1.392 1_565 S
C2541 C2545 1.495 . S
C2542 C2541 1.392 1_545 S
C2542 C2543 1.385 . S
C2542 C2544 1.478 . S
C2543 H2537 0.930 . S
C2543 C2539 1.400 . S
C2543 C2542 1.385 . S
C2544 C2542 1.478 . S
C2544 C2546 1.381 . S
C2544 C2550 1.383 . S
C2545 C2541 1.495 . S
C2545 H2551 0.959 . S
C2545 H2552 0.961 . S
C2545 H2553 0.960 . S
C2546 C2544 1.381 . S
C2546 C2547 1.394 . S
C2546 H2554 0.930 . S
C2547 C2546 1.394 . S
C2547 C2548 1.383 . S
C2547 H2555 0.929 . S
C2548 C2547 1.383 . S
C2548 C2549 1.377 . S
C2549 H2533 0.930 . S
C2549 C2548 1.377 . S
C2549 C2550 1.379 . S
C2550 H2534 0.931 . S
C2550 C2544 1.383 . S
C2550 C2549 1.379 . S
H2551 C2545 0.959 . S
H2552 C2545 0.961 . S
H2553 C2545 0.960 . S
H2554 C2546 0.930 . S
H2555 C2547 0.929 . S
H2556 C2564 0.929 . S
H2557 C2566 0.930 . S
H2558 C2568 0.930 . S
H2559 C2571 0.929 . S
H2560 C2574 0.930 . S
H2561 C2576 0.960 . S
H2562 C2576 0.960 1_556 S
H2563 C2576 0.960 . S
C2564 H2556 0.929 . S
C2564 C2565 1.377 . S
C2564 C2566 1.384 . S
C2565 C2564 1.377 . S
C2565 C2571 1.390 1_556 S
C2566 H2557 0.930 . S
C2566 C2564 1.384 . S
C2566 C2567 1.372 . S
C2567 C2566 1.372 . S
C2567 C2568 1.400 1_556 S
C2567 C2572 1.490 . S
C2568 H2558 0.930 . S
C2568 C2567 1.400 1_554 S
C2568 C2571 1.386 . S
H2569 C2585 0.930 . S
H2570 C2586 0.931 . S
C2571 H2559 0.929 . S
C2571 C2565 1.390 1_554 S
C2571 C2568 1.386 . S
C2572 C2567 1.490 . S
C2572 C2574 1.395 . S
C2572 C2575 1.404 . S
H2573 C2579 0.920 1_554 S
C2574 H2560 0.930 . S
C2574 C2572 1.395 . S
C2574 C2577 1.403 . S
C2575 C2572 1.404 . S
C2575 C2576 1.522 1_556 S
C2575 C2579 1.399 . S
C2576 H2561 0.960 . S
C2576 H2562 0.960 1_554 S
C2576 H2563 0.960 . S
C2576 C2575 1.522 1_554 S
C2577 C2574 1.403 . S
C2577 C2578 1.392 . S
C2577 C2581 1.495 . S
C2578 C2577 1.392 . S
C2578 C2579 1.397 . S
C2578 C2580 1.478 . S
C2579 H2573 0.920 1_556 S
C2579 C2575 1.399 . S
C2579 C2578 1.397 . S
C2580 C2578 1.478 . S
C2580 C2582 1.381 . S
C2580 C2586 1.383 1_556 S
C2581 C2577 1.495 . S
C2581 H2587 0.959 . S
C2581 H2588 0.961 . S
C2581 H2589 0.960 . S
C2582 C2580 1.381 . S
C2582 C2583 1.394 . S
C2582 H2590 0.930 . S
C2583 C2582 1.394 . S
C2583 C2584 1.383 . S
C2583 H2591 0.929 . S
C2584 C2583 1.383 . S
C2584 C2585 1.377 1_556 S
C2585 H2569 0.930 . S
C2585 C2584 1.377 1_554 S
C2585 C2586 1.379 . S
C2586 H2570 0.931 . S
C2586 C2580 1.383 1_554 S
C2586 C2585 1.379 . S
H2587 C2581 0.959 . S
H2588 C2581 0.961 . S
H2589 C2581 0.960 . S
H2590 C2582 0.930 . S
H2591 C2583 0.929 . S
C873 C615 0.308 . S
C892 C2 0.484 . S
C909 C38 0.442 . S
C928 C579 0.537 . S
C945 C74 0.478 . S
C964 C687 0.421 . S
C981 C110 0.549 . S
C1000 C651 0.589 . S
C1017 C146 0.390 . S
C1036 C759 0.233 . S
C1053 C182 0.455 . S
C1072 C795 0.440 . S
C1089 C723 0.428 . S
C1108 C218 0.325 . S
C1125 C399 0.501 . S
C1144 C254 0.421 . S
C1161 C290 0.416 . S
C1180 C111 0.355 . S
C1197 C39 0.411 . S
C1216 C326 0.379 . S
C1233 C362 0.632 . S
C1252 C3 0.614 . S
C1269 C398 0.479 . S
C1288 C507 0.441 . S
C1305 C183 0.699 . S
C1324 C434 0.720 . S
C1341 C147 0.632 . S
C1360 C470 0.604 . S
C1377 C506 0.496 . S
C1396 C255 0.545 . S
C1413 C542 0.438 . S
C1432 C219 0.414 . S
C1449 C327 0.698 . S
C1468 C578 0.707 . S
C1485 C363 0.562 . S
C1504 C614 0.583 . S
C1521 C291 0.645 . S
C1540 C650 0.696 . S
C1557 C686 0.486 . S
C1576 C831 0.459 . S
C1593 C543 0.693 . S
C1612 C722 0.697 . S
C1629 C758 0.529 . S
C1648 C471 0.479 . S
C1665 C435 0.464 . S
C1684 C794 0.503 . S
C1701 C830 0.509 . S
C1720 C75 0.507 . S
C1737 C4 1.768 . S
C1756 C40 1.774 . S
C1773 C112 1.631 . S
C1792 C76 1.656 . S
C1809 C148 1.769 . S
C1828 C220 1.739 . S
C1845 C184 1.973 . S
C1864 C256 1.931 . S
C1881 C796 1.760 . S
C1900 C292 1.779 . S
C1917 C328 1.975 . S
C1936 C400 1.974 . S
C1953 C724 1.855 . S
C1972 C364 1.842 . S
C1989 C472 1.868 . S
C2008 C436 1.875 . S
C2025 C508 1.959 . S
C2044 C544 1.989 . S
C2061 C652 1.865 . S
C2080 C580 1.832 . S
C2097 C616 1.635 . S
C2116 C688 1.650 . S
C2133 C832 1.642 . S
C2152 C760 1.648 . S
C2169 C86 1.020 . S
C2188 C14 1.033 . S
C2205 C50 1.322 . S
C2224 C122 1.311 . S
C2241 C698 1.016 . S
C2260 C158 1.031 . S
C2277 C194 1.244 . S
C2296 C662 1.243 . S
C2313 C230 1.324 . S
C2332 C626 1.313 . S
C2349 C590 1.553 . S
C2368 C266 1.545 . S
C2385 C302 1.013 . S
C2404 C842 1.029 . S
C2421 C338 1.237 . S
C2440 C374 1.263 . S
C2457 C734 1.554 . S
C2476 C410 1.536 . S
C2493 C446 1.549 . S
C2512 C518 1.559 . S
C2529 C482 1.249 . S
C2548 C554 1.238 . S
C2565 C806 1.319 . S
C2584 C770 1.322 . S
