# Generated by pormake.
# Topology snp, (6)-cn, num edge types: 1
# Building blocks:
#     Node 0, Type 0, BuildingBlock: INOVEN_clean_sbu_0, # of connection points: 6
#     Node 1, Type 0, BuildingBlock: INOVEN_clean_sbu_0, # of connection points: 6
#     Node 2, Type 0, BuildingBlock: INOVEN_clean_sbu_0, # of connection points: 6
#     Node 3, Type 0, BuildingBlock: INOVEN_clean_sbu_0, # of connection points: 6
#     Edge 4, Type (0, 0), BuildingBlock: FUNLAD_clean_linker_0, # of connection points: 2
#     Edge 5, Type (0, 0), BuildingBlock: FUNLAD_clean_linker_0, # of connection points: 2
#     Edge 6, Type (0, 0), BuildingBlock: FUNLAD_clean_linker_0, # of connection points: 2
#     Edge 7, Type (0, 0), BuildingBlock: FUNLAD_clean_linker_0, # of connection points: 2
#     Edge 8, Type (0, 0), BuildingBlock: FUNLAD_clean_linker_0, # of connection points: 2
#     Edge 9, Type (0, 0), BuildingBlock: FUNLAD_clean_linker_0, # of connection points: 2
#     Edge 10, Type (0, 0), BuildingBlock: FUNLAD_clean_linker_0, # of connection points: 2
#     Edge 11, Type (0, 0), BuildingBlock: FUNLAD_clean_linker_0, # of connection points: 2
#     Edge 12, Type (0, 0), BuildingBlock: FUNLAD_clean_linker_0, # of connection points: 2
#     Edge 13, Type (0, 0), BuildingBlock: FUNLAD_clean_linker_0, # of connection points: 2
#     Edge 14, Type (0, 0), BuildingBlock: FUNLAD_clean_linker_0, # of connection points: 2
#     Edge 15, Type (0, 0), BuildingBlock: FUNLAD_clean_linker_0, # of connection points: 2
# Relax obj value: 0.194
# Max RMSD: 0.212
# Mean RMSD: 0.204
data_MOF--net-snp--node1-INOVEN_clean_sbu_0--edge1-FUNLAD_clean_linker_0
_symmetry_space_group_name_H-M    P1
_symmetry_Int_Tables_number       1
_symmetry_cell_setting            triclinic
loop_
_symmetry_equiv_pos_as_xyz
'x, y, z'
_cell_length_a     29.042209
_cell_length_b     29.021559
_cell_length_c     40.554465
_cell_angle_alpha  86.263559
_cell_angle_beta   103.31597
_cell_angle_gamma 95.291875
loop_
_atom_site_label
_atom_site_type_symbol
_atom_site_fract_x
_atom_site_fract_y
_atom_site_fract_z
_atom_type_partial_charge
Gd0 Gd 0.26069 0.11271 0.11674 0.0
Gd1 Gd 0.24306 0.01737 0.0815 0.0
C2 C 0.26904 0.01457 0.16205 0.0
C3 C 0.25961 0.17853 0.15681 0.0
C4 C 0.24725 0.18134 0.19008 0.0
C5 C 0.25667 0.14582 0.21536 0.0
C6 C 0.22587 0.22004 0.19682 0.0
C7 C 0.22574 0.18878 0.25425 0.0
C8 C 0.21518 0.22375 0.22852 0.0
C9 C 0.2461 0.14947 0.24705 0.0
C10 C 0.33499 0.08323 0.09683 0.0
C11 C 0.22971 0.11593 0.0358 0.0
C12 C 0.24706 0.94878 0.04487 0.0
C13 C 0.23917 0.93913 1.00872 0.0
C14 C 0.22087 0.89485 0.99805 0.0
C15 C 0.24855 0.97354 0.98466 0.0
C16 C 0.22077 0.91936 0.93941 0.0
C17 C 0.23939 0.96378 0.95029 0.0
C18 C 0.21184 0.88499 0.96378 0.0
C19 C 0.17075 0.04112 0.1066 0.0
O20 O 0.26135 0.05905 0.15961 0.0
O21 O 0.26942 -0.00926 0.13535 0.0
O22 O 0.29765 0.15761 0.15674 0.0
O23 O 0.22452 0.16796 0.13118 0.0
O24 O 0.32723 0.12676 0.09642 0.0
O25 O 0.30501 0.05854 0.1095 0.0
O26 O 0.23446 0.0707 0.03744 0.0
O27 O 0.23454 0.14 0.06322 0.0
O28 O 0.20919 0.95607 0.05547 0.0
O29 O 0.28402 0.9769 0.05746 0.0
O30 O 0.17777 -0.00124 0.10171 0.0
O31 O 0.1983 0.0683 0.09292 0.0
H32 H 0.2725 0.11533 0.21073 0.0
H33 H 0.21802 0.24778 0.17767 0.0
H34 H 0.19991 0.25468 0.23316 0.0
H35 H 0.2539 0.12141 0.26592 0.0
H36 H 0.21348 0.86782 1.01628 0.0
H37 H 0.26274 0.00795 0.99241 0.0
H38 H 0.24621 -0.00877 0.93222 0.0
H39 H 0.19826 0.85024 0.95645 0.0
Gd40 Gd 0.97392 0.26235 0.68926 0.0
Gd41 Gd 0.0719 0.26626 0.67182 0.0
C42 C 0.07209 0.27878 0.74849 0.0
C43 C 0.90171 0.2481 0.71694 0.0
C44 C 0.89358 0.23847 0.75124 0.0
C45 C 0.84937 0.24552 0.75751 0.0
C46 C 0.92962 0.22303 0.77792 0.0
C47 C 0.87705 0.22179 0.817 0.0
C48 C 0.92145 0.21482 0.81055 0.0
C49 C 0.8411 0.23721 0.79007 0.0
C50 C 1.00066 0.34169 0.65856 0.0
C51 C 0.97411 0.23747 0.61455 0.0
C52 C 0.13996 0.28226 0.64008 0.0
C53 C 0.14398 0.27749 0.60468 0.0
C54 C 0.18414 0.25914 0.59861 0.0
C55 C 0.10726 0.28867 0.57687 0.0
C56 C 0.15063 0.2624 0.53748 0.0
C57 C 0.11052 0.28119 0.54368 0.0
C58 C 0.18749 0.25171 0.56546 0.0
C59 C 0.04553 0.18741 0.70284 0.0
O60 O 0.02631 0.26482 0.74014 0.0
O61 O 0.09765 0.28864 0.72538 0.0
O62 O 0.92111 0.28942 0.7111 0.0
O63 O 0.91931 0.21525 0.70415 0.0
O64 O 0.95731 0.3233 0.65286 0.0
O65 O 0.0274 0.31875 0.68144 0.0
O66 O 0.01984 0.25167 0.62186 0.0
O67 O 0.94833 0.23431 0.63762 0.0
O68 O 0.1331 0.24342 0.65716 0.0
O69 O 0.11416 0.31461 0.64543 0.0
O70 O 0.08946 0.20412 0.70708 0.0
O71 O 0.01887 0.21051 0.68009 0.0
H72 H 0.82125 0.25766 0.73721 0.0
H73 H 0.96398 0.21722 0.77353 0.0
H74 H 0.94971 0.20243 0.8306 0.0
H75 H 0.80674 0.24349 0.79425 0.0
H76 H 0.21274 0.24986 0.61963 0.0
H77 H 0.07574 0.30274 0.58075 0.0
H78 H 0.08165 0.29039 0.52287 0.0
H79 H 0.2186 0.23659 0.56186 0.0
Gd80 Gd 0.81697 0.06165 0.17311 0.0
Gd81 Gd 0.84334 0.9792 0.14312 0.0
C82 C 0.82544 0.96193 0.21665 0.0
C83 C 0.78028 0.11699 0.20533 0.0
C84 C 0.79266 0.12485 0.24191 0.0
C85 C 0.82845 0.10035 0.26309 0.0
C86 C 0.77194 0.15867 0.25555 0.0
C87 C 0.82474 0.14511 0.31095 0.0
C88 C 0.78773 0.16862 0.28991 0.0
C89 C 0.84427 0.1103 0.29723 0.0
C90 C 0.91111 0.05382 0.18888 0.0
C91 C 0.84405 0.07927 0.10259 0.0
C92 C 0.87962 0.92252 0.11098 0.0
C93 C 0.88092 0.91499 0.07543 0.0
C94 C 0.84136 0.92127 0.04858 0.0
C95 C 0.92232 0.90076 0.06826 0.0
C96 C 0.88425 0.89763 1.00801 0.0
C97 C 0.92405 0.89227 0.03495 0.0
C98 C 0.84295 0.91251 1.01527 0.0
C99 C 0.74929 -0.00694 0.12831 0.0
O100 O 0.80532 0.00175 0.21054 0.0
O101 O 0.84911 0.94778 0.19556 0.0
O102 O 0.81414 0.13048 0.18966 0.0
O103 O 0.76015 0.0759 0.19674 0.0
O104 O 0.89147 0.09259 0.18296 0.0
O105 O 0.87997 0.0202 0.18751 0.0
O106 O 0.86386 0.03965 0.11009 0.0
O107 O 0.81492 0.09221 0.12032 0.0
O108 O 0.83874 0.91364 0.11938 0.0
O109 O 0.90293 0.96011 0.12421 0.0
O110 O 0.7651 0.95239 0.13453 0.0
O111 O 0.78315 0.02292 0.12882 0.0
H112 H 0.84507 0.07425 0.25297 0.0
H113 H 0.74451 0.17812 0.2395 0.0
H114 H 0.77221 0.19582 0.2997 0.0
H115 H 0.87231 0.09111 0.31283 0.0
H116 H 0.80912 0.93271 0.05334 0.0
H117 H 0.95328 0.89575 0.08854 0.0
H118 H 0.95626 0.88048 0.03042 0.0
H119 H 0.81189 0.91768 0.99514 0.0
Gd120 Gd 0.99777 0.80519 0.58693 0.0
Gd121 Gd 0.08453 0.83952 0.5641 0.0
C122 C 0.09933 0.80739 0.64122 0.0
C123 C 0.93703 0.76801 0.62024 0.0
C124 C 0.93505 0.77824 0.65509 0.0
C125 C 0.96857 0.81115 0.67287 0.0
C126 C 0.89951 0.75696 0.67045 0.0
C127 C 0.93116 0.80144 0.72115 0.0
C128 C 0.89753 0.76847 0.70318 0.0
C129 C 0.96675 0.82256 0.70549 0.0
C130 C 0.02219 0.89652 0.59843 0.0
C131 C 0.98156 0.8405 0.51129 0.0
C132 C 0.14844 0.88461 0.53662 0.0
C133 C 0.15747 0.89087 0.50229 0.0
C134 C 0.12123 0.88129 0.47349 0.0
C135 C 0.20323 0.90558 0.4983 0.0
C136 C 0.17663 0.90158 0.43688 0.0
C137 C 0.21278 0.91087 0.46595 0.0
C138 C 0.1307 0.88668 0.44106 0.0
C139 C 0.06408 0.74712 0.56008 0.0
O140 O 0.05762 0.78419 0.63087 0.0
O141 O 0.1156 0.83797 0.62021 0.0
O142 O 0.92791 0.80238 0.5979 0.0
O143 O 0.97416 0.74744 0.61751 0.0
O144 O 0.98001 0.87923 0.58488 0.0
O145 O 0.0499 0.86507 0.60147 0.0
O146 O 0.02462 0.86106 0.52124 0.0
O147 O 0.96464 0.80851 0.53103 0.0
O148 O 0.15299 0.84308 0.55083 0.0
O149 O 0.11124 0.90312 0.54145 0.0
O150 O 0.10667 0.76674 0.56835 0.0
O151 O 0.03434 0.77712 0.55211 0.0
H152 H 0.99604 0.82844 0.66134 0.0
H153 H 0.87322 0.73163 0.65713 0.0
H154 H 0.86992 0.75122 0.71455 0.0
H155 H 0.99278 0.84859 0.71819 0.0
H156 H 0.08565 0.86966 0.47606 0.0
H157 H 0.23173 0.91274 0.52026 0.0
H158 H 0.2487 0.92166 0.46377 0.0
H159 H 0.1019 0.87972 0.41928 0.0
C160 C 0.98214 0.01026 0.21443 0.0
C161 C 0.96039 0.05208 0.20821 0.0
C162 C 0.03 0.0101 0.23103 0.0
C163 C 0.05655 0.0517 0.24163 0.0
C164 C 0.03352 0.0928 0.2378 0.0
C165 C 0.98606 0.09305 0.22091 0.0
C166 C 0.10901 0.05282 0.25063 0.0
C167 C 0.13289 0.08476 0.23402 0.0
C168 C 0.14382 0.0732 0.2016 0.0
C169 C 0.14175 0.10754 0.17524 0.0
C170 C 0.14743 0.09678 0.14335 0.0
C171 C 0.15572 0.05167 0.13741 0.0
H172 H 0.15273 -0.0 0.21442 0.0
C173 C 0.15555 0.01694 0.16317 0.0
C174 C 0.15083 0.02767 0.1951 0.0
H175 H 0.16122 0.98157 0.1592 0.0
H176 H 0.96275 0.97816 0.20533 0.0
H177 H 0.04699 0.97792 0.23366 0.0
H178 H 0.05267 0.12521 0.2464 0.0
H179 H 0.96978 0.12567 0.21726 0.0
H180 H 0.12257 0.01887 0.25614 0.0
H181 H 0.12557 0.12066 0.23489 0.0
H182 H 0.13515 0.14269 0.17916 0.0
H183 H 0.14543 0.12361 0.12338 0.0
C184 C 0.98792 0.94091 0.63638 0.0
C185 C 0.02797 0.92633 0.62741 0.0
C186 C 0.99165 0.95827 0.66824 0.0
C187 C 0.03568 0.96142 0.69193 0.0
C188 C 0.07592 0.94839 0.68236 0.0
C189 C 0.07222 0.9314 0.65041 0.0
C190 C 0.04277 0.98499 0.72433 0.0
C191 C 0.00692 0.00139 0.73479 0.0
C192 C 0.00954 0.05183 0.7387 0.0
C193 C 0.97441 0.07651 0.71697 0.0
C194 C 0.98481 0.12246 0.70708 0.0
C195 C 0.03019 0.14413 0.71931 0.0
H196 H 0.07921 0.0578 0.77263 0.0
C197 C 0.06251 0.12181 0.74512 0.0
C198 C 0.05207 0.07587 0.75506 0.0
H199 H 0.09723 0.13858 0.75572 0.0
H200 H 0.95324 0.93724 0.61931 0.0
H201 H 0.9599 0.96959 0.67371 0.0
H202 H 0.1105 0.95155 0.69962 0.0
H203 H 0.10378 0.92044 0.64428 0.0
H204 H 0.07864 0.00029 0.73377 0.0
H205 H 0.97153 0.98416 0.72747 0.0
H206 H 0.94118 0.05878 0.70427 0.0
H207 H 0.95899 0.13939 0.68761 0.0
C208 C 0.66208 0.96996 0.12114 0.0
C209 C 0.69945 0.00438 0.12176 0.0
C210 C 0.61514 0.98211 0.1153 0.0
C211 C 0.60503 0.02903 0.10994 0.0
C212 C 0.6427 0.06311 0.11072 0.0
C213 C 0.68924 0.051 0.11642 0.0
C214 C 0.55648 0.04471 0.10497 0.0
C215 C 0.51605 0.01742 0.09564 0.0
C216 C 0.46859 0.03459 0.09281 0.0
C217 C 0.43203 0.00371 0.10042 0.0
C218 C 0.38814 0.01939 0.10077 0.0
C219 C 0.37966 0.06619 0.09297 0.0
H220 H 0.48617 0.10553 0.07625 0.0
C221 C 0.41531 0.09671 0.08366 0.0
C222 C 0.45939 0.08107 0.0835 0.0
H223 H 0.40951 0.13285 0.07722 0.0
H224 H 0.66915 0.93377 0.12543 0.0
H225 H 0.58738 0.95477 0.11579 0.0
H226 H 0.63616 0.09947 0.10693 0.0
H227 H 0.71731 0.07838 0.11688 0.0
H228 H 0.55427 0.08083 0.10951 0.0
H229 H 0.51735 0.98102 0.09166 0.0
H230 H 0.438 0.96769 0.10734 0.0
H231 H 0.36135 -0.00494 0.10818 0.0
C232 C 0.9829 0.40752 0.61653 0.0
C233 C 0.0149 0.38652 0.64329 0.0
C234 C 0.99474 0.45135 0.60315 0.0
C235 C 0.03872 0.47542 0.61671 0.0
C236 C 0.07139 0.45342 0.64262 0.0
C237 C 0.05961 0.40937 0.65583 0.0
C238 C 0.05178 0.52342 0.60494 0.0
C239 C 0.0198 0.55264 0.58817 0.0
C240 C 0.03211 0.60195 0.57885 0.0
C241 C 0.99538 0.63191 0.56942 0.0
C242 C 0.00541 0.67901 0.56219 0.0
C243 C 0.05241 0.69703 0.56436 0.0
H244 H 0.10837 0.59821 0.58522 0.0
C245 C 0.08901 0.66705 0.57255 0.0
C246 C 0.079 0.61994 0.57943 0.0
H247 H 0.12551 0.68007 0.57399 0.0
H248 H 0.94846 0.39018 0.60603 0.0
H249 H 0.96921 0.4659 0.58225 0.0
H250 H 0.10576 0.4708 0.65326 0.0
H251 H 0.08504 0.39372 0.67635 0.0
H252 H 0.08888 0.53568 0.61264 0.0
H253 H 0.98232 0.54125 0.58283 0.0
H254 H 0.95888 0.61905 0.56836 0.0
H255 H 0.97649 0.7015 0.55576 0.0
C256 C 0.19743 0.26141 0.49216 0.0
C257 C 0.15391 0.25356 0.50213 0.0
C258 C 0.20074 0.25266 0.45922 0.0
C259 C 0.16056 0.23553 0.43526 0.0
C260 C 0.11696 0.22836 0.44506 0.0
C261 C 0.11366 0.23702 0.47803 0.0
C262 C 0.16235 0.22632 0.39966 0.0
C263 C 0.20237 0.21725 0.39044 0.0
C264 C 0.2054 0.20828 0.35506 0.0
C265 C 0.24559 0.18823 0.35045 0.0
C266 C 0.25159 0.18114 0.31793 0.0
C267 C 0.21766 0.1942 0.28889 0.0
H268 H 0.13991 0.23728 0.32812 0.0
C269 C 0.17711 0.21392 0.29337 0.0
C270 C 0.17102 0.22094 0.326 0.0
H271 H 0.15006 0.22411 0.27161 0.0
H272 H 0.22898 0.27512 0.50968 0.0
H273 H 0.2347 0.26033 0.45256 0.0
H274 H 0.08528 0.21553 0.42721 0.0
H275 H 0.07961 0.23006 0.48473 0.0
H276 H 0.12898 0.22515 0.38091 0.0
H277 H 0.23474 0.2147 0.40996 0.0
H278 H 0.2729 0.17836 0.37216 0.0
H279 H 0.28362 0.16653 0.3156 0.0
C280 C 0.90297 0.22597 0.88039 0.0
C281 C 0.86812 0.21273 0.85161 0.0
C282 C 0.89493 0.21659 0.91295 0.0
C283 C 0.85192 0.19332 0.91749 0.0
C284 C 0.81667 0.18126 0.8887 0.0
C285 C 0.82469 0.19065 0.85615 0.0
C286 C 0.84285 0.18026 0.95168 0.0
C287 C 0.87788 0.17238 0.97913 0.0
C288 C 0.86915 0.15212 1.01194 0.0
C289 C 0.90283 0.12411 0.03178 0.0
C290 C 0.8949 0.10152 0.06159 0.0
C291 C 0.85346 0.10715 0.0727 0.0
H292 H 0.80217 0.18156 1.00931 0.0
C293 C 0.82066 0.13702 0.05387 0.0
C294 C 0.82829 0.15918 1.02356 0.0
H295 H 0.7885 0.14206 0.06193 0.0
H296 H 0.93636 0.24401 0.87774 0.0
H297 H 0.9224 0.22797 0.93438 0.0
H298 H 0.78316 0.16349 0.89139 0.0
H299 H 0.7972 0.1797 0.83455 0.0
H300 H 0.80616 0.17248 0.95345 0.0
H301 H 0.91447 0.17588 0.97661 0.0
H302 H 0.9348 0.11843 1.02364 0.0
H303 H 0.92111 0.0791 0.07576 0.0
C304 C 0.91598 0.82622 0.45905 0.0
C305 C 0.95279 0.85534 0.47778 0.0
C306 C 0.89122 0.8408 0.42657 0.0
C307 C 0.90244 0.88509 0.41269 0.0
C308 C 0.93817 0.91442 0.43199 0.0
C309 C 0.96338 0.89961 0.46387 0.0
C310 C 0.87805 0.90255 0.37839 0.0
C311 C 0.86201 0.87548 0.35171 0.0
C312 C 0.84643 0.89537 0.31647 0.0
C313 C 0.85608 0.87296 0.28944 0.0
C314 C 0.84736 0.89361 0.25666 0.0
C315 C 0.82802 0.93685 0.25006 0.0
H316 H 0.8152 0.95492 0.32952 0.0
C317 C 0.81537 0.9578 0.27668 0.0
C318 C 0.82452 0.93734 0.30952 0.0
H319 H 0.80008 -0.00907 0.27251 0.0
H320 H 0.907 0.79196 0.46918 0.0
H321 H 0.86321 0.81766 0.41256 0.0
H322 H 0.94739 0.94876 0.42206 0.0
H323 H 0.99123 0.92312 0.47772 0.0
H324 H 0.87848 0.93994 0.37415 0.0
H325 H 0.86589 0.83848 0.35506 0.0
H326 H 0.87247 0.84039 0.29397 0.0
H327 H 0.85718 0.87632 0.23671 0.0
C328 C 0.15991 0.83965 0.69045 0.0
C329 C 0.12024 0.8089 0.67813 0.0
C330 C 0.17407 0.84802 0.72505 0.0
C331 C 0.14861 0.82596 0.74812 0.0
C332 C 0.11072 0.79325 0.736 0.0
C333 C 0.09664 0.78482 0.70145 0.0
C334 C 0.15972 0.83625 0.78476 0.0
C335 C 0.18392 0.8755 0.79753 0.0
C336 C 0.19251 0.88619 0.83394 0.0
C337 C 0.2325 0.91537 0.84815 0.0
C338 C 0.24167 0.92629 0.88226 0.0
C339 C 0.21065 0.9087 0.90289 0.0
H340 H 0.12867 0.84835 0.84403 0.0
C341 C 0.16995 0.88043 0.88839 0.0
C342 C 0.16091 0.86935 0.85435 0.0
H343 H 0.14462 0.86729 0.90326 0.0
H344 H 0.17903 0.85865 0.67323 0.0
H345 H 0.20459 0.87216 0.73334 0.0
H346 H 0.09075 0.77533 0.75316 0.0
H347 H 0.06586 0.76094 0.69292 0.0
H348 H 0.14581 0.8109 0.80162 0.0
H349 H 0.19845 0.90096 0.7811 0.0
H350 H 0.25715 0.92924 0.83292 0.0
H351 H 0.27351 0.9479 0.89259 0.0
C352 C 0.92597 0.89987 0.95961 0.0
C353 C 0.88553 0.88686 0.97268 0.0
C354 C 0.92736 0.88905 0.92665 0.0
C355 C 0.88838 0.86439 0.90592 0.0
C356 C 0.84787 0.85192 0.91897 0.0
C357 C 0.84642 0.86292 0.95182 0.0
C358 C 0.88767 0.85157 0.87054 0.0
C359 C 0.92638 0.85315 0.85711 0.0
C360 C 0.9258 0.83934 0.82198 0.0
C361 C 0.96934 0.83393 0.81363 0.0
C362 C 0.97106 0.82146 0.78117 0.0
C363 C 0.92917 0.81407 0.75595 0.0
H364 H 0.84945 0.83722 0.80121 0.0
C365 C 0.88555 0.81965 0.76413 0.0
C366 C 0.88381 0.83233 0.7966 0.0
H367 H 0.85264 0.81516 0.74517 0.0
H368 H 0.95644 0.91906 0.97474 0.0
H369 H 0.95889 0.90072 0.91765 0.0
H370 H 0.81714 0.83314 0.90377 0.0
H371 H 0.81485 0.85191 0.96107 0.0
H372 H 0.85358 0.83858 0.8556 0.0
H373 H 0.9609 0.86347 0.87278 0.0
H374 H 1.00238 0.8392 0.83238 0.0
H375 H 1.00532 0.81713 0.77597 0.0
C376 C 0.24834 0.94886 0.20071 0.0
C377 C 0.27364 -0.00854 0.196 0.0
C378 C 0.24359 0.93308 0.23332 0.0
C379 C 0.26497 0.95939 0.26166 0.0
C380 C 0.29339 -6e-05 0.25696 0.0
C381 C 0.29733 0.01601 0.22451 0.0
C382 C 0.2577 0.94706 0.29635 0.0
C383 C 0.21767 0.92466 0.30273 0.0
C384 C 0.20821 0.91887 0.33743 0.0
C385 C 0.17699 0.8819 0.34495 0.0
C386 C 0.16667 0.87616 0.37712 0.0
C387 C 0.18698 0.90766 0.40244 0.0
H388 H 0.25034 0.98102 0.35743 0.0
C389 C 0.21742 0.94522 0.39462 0.0
C390 C 0.22782 0.95087 0.36256 0.0
H391 H 0.23267 0.97087 0.41314 0.0
H392 H 0.22974 0.92931 0.17908 0.0
H393 H 0.22257 0.90091 0.23613 0.0
H394 H 0.31081 0.02055 0.27834 0.0
H395 H 0.31769 0.0486 0.22157 0.0
H396 H 0.28514 0.96031 0.31731 0.0
H397 H 0.19026 0.91093 0.28195 0.0
H398 H 0.16088 0.85709 0.32597 0.0
H399 H 0.14328 0.84667 0.38228 0.0
C400 C 0.14315 0.26566 0.79605 0.0
C401 C 0.09557 0.2762 0.78514 0.0
C402 C 0.16223 0.25431 0.83039 0.0
C403 C 0.13415 0.25368 0.85455 0.0
C404 C 0.08763 0.26712 0.84386 0.0
C405 C 0.06841 0.27775 0.80959 0.0
C406 C 0.15142 0.23802 0.89079 0.0
C407 C 0.1822 0.20494 0.90058 0.0
C408 C 0.19474 0.18389 0.93582 0.0
C409 C 0.20964 0.13879 0.94034 0.0
C410 C 0.22085 0.11701 0.97265 0.0
C411 C 0.21824 0.13996 1.0016 0.0
H412 H 0.18238 0.24249 0.9625 0.0
C413 C 0.20434 0.18559 0.99727 0.0
C414 C 0.19258 0.2073 0.96476 0.0
H415 H 0.20214 0.20448 1.01895 0.0
H416 H 0.16494 0.26389 0.77787 0.0
H417 H 0.19867 0.24538 0.83783 0.0
H418 H 0.06529 0.26745 0.86186 0.0
H419 H 0.03165 0.2858 0.80208 0.0
H420 H 0.13434 0.25056 0.90925 0.0
H421 H 0.19569 0.18949 0.88137 0.0
H422 H 0.21198 0.11991 0.91867 0.0
H423 H 0.23165 0.08206 0.97482 0.0
C424 C 0.81513 0.16619 0.36823 0.0
C425 C 0.84477 0.15812 0.34659 0.0
C426 C 0.83458 0.17817 0.40182 0.0
C427 C 0.88417 0.18255 0.41437 0.0
C428 C 0.91359 0.17523 0.39248 0.0
C429 C 0.89421 0.16292 0.35913 0.0
C430 C 0.90696 0.19614 0.44955 0.0
C431 C 0.88599 0.18894 0.47609 0.0
C432 C 0.9097 0.20141 0.51149 0.0
C433 C 0.88157 0.20453 0.5351 0.0
C434 C 0.90228 0.21598 0.56859 0.0
C435 C 0.95175 0.22448 0.57931 0.0
H436 H 0.98286 0.20534 0.50586 0.0
C437 C 0.97999 0.22058 0.55589 0.0
C438 C 0.95937 0.209 0.52251 0.0
H439 H 0.01828 0.226 0.56338 0.0
H440 H 0.7769 0.16284 0.35927 0.0
H441 H 0.81064 0.18475 0.41753 0.0
H442 H 0.95187 0.17884 0.40127 0.0
H443 H 0.91807 0.15778 0.34296 0.0
H444 H 0.94305 0.21179 0.45346 0.0
H445 H 0.84983 0.1733 0.47199 0.0
H446 H 0.84331 0.19841 0.52756 0.0
H447 H 0.87944 0.21851 0.58596 0.0
loop_
_geom_bond_atom_site_label_1
_geom_bond_atom_site_label_2
_geom_bond_distance
_geom_bond_site_symmetry_2
_ccdc_geom_bond_type
Gd0 C3 2.818 . S
Gd0 O20 2.377 . S
Gd0 O22 2.448 . S
Gd0 O23 2.506 . S
Gd0 O24 2.435 . S
Gd0 O25 2.717 . S
Gd0 O27 2.395 . S
Gd0 O31 2.327 . S
Gd1 C12 2.818 1_554 S
Gd1 O21 2.395 . S
Gd1 O25 2.327 . S
Gd1 O26 2.377 . S
Gd1 O28 2.448 1_545 S
Gd1 O29 2.506 . S
Gd1 O30 2.435 . S
Gd1 O31 2.717 . S
C2 O20 1.240 . S
C2 O21 1.240 . S
C3 Gd0 2.818 . S
C3 C4 1.510 . S
C3 O22 1.249 . S
C3 O23 1.252 . S
C4 C3 1.510 . S
C4 C5 1.404 . S
C4 C6 1.352 . S
C5 C4 1.404 . S
C5 C9 1.389 . S
C5 H32 0.930 . S
C6 C4 1.352 . S
C6 C8 1.374 . S
C6 H33 0.931 . S
C7 C8 1.359 . S
C7 C9 1.364 . S
C8 C6 1.374 . S
C8 C7 1.359 . S
C8 H34 0.931 . S
C9 C5 1.389 . S
C9 C7 1.364 . S
C9 H35 0.931 . S
C10 O24 1.256 . S
C10 O25 1.257 . S
C11 O26 1.240 . S
C11 O27 1.240 . S
C12 Gd1 2.818 1_556 S
C12 C13 1.510 1_545 S
C12 O28 1.249 1_546 S
C12 O29 1.252 1_556 S
C13 C12 1.510 1_565 S
C13 C14 1.404 . S
C13 C15 1.352 . S
C14 C13 1.404 . S
C14 C18 1.389 . S
C14 H36 0.930 . S
C15 C13 1.352 . S
C15 C17 1.374 . S
C15 H37 0.931 1_565 S
C16 C17 1.359 . S
C16 C18 1.364 . S
C17 C15 1.374 . S
C17 C16 1.359 . S
C17 H38 0.931 . S
C18 C14 1.389 . S
C18 C16 1.364 . S
C18 H39 0.931 . S
C19 O30 1.256 . S
C19 O31 1.257 . S
O20 Gd0 2.377 . S
O20 C2 1.240 . S
O21 Gd1 2.395 . S
O21 C2 1.240 . S
O22 Gd0 2.448 . S
O22 C3 1.249 . S
O23 Gd0 2.506 . S
O23 C3 1.252 . S
O24 Gd0 2.435 . S
O24 C10 1.256 . S
O25 Gd0 2.717 . S
O25 Gd1 2.327 . S
O25 C10 1.257 . S
O26 Gd1 2.377 . S
O26 C11 1.240 . S
O27 Gd0 2.395 . S
O27 C11 1.240 . S
O28 Gd1 2.448 1_565 S
O28 C12 1.249 1_564 S
O29 Gd1 2.506 . S
O29 C12 1.252 1_554 S
O30 Gd1 2.435 . S
O30 C19 1.256 . S
O31 Gd0 2.327 . S
O31 Gd1 2.717 . S
O31 C19 1.257 . S
H32 C5 0.930 . S
H33 C6 0.931 . S
H34 C8 0.931 . S
H35 C9 0.931 . S
H36 C14 0.930 . S
H37 C15 0.931 1_545 S
H38 C17 0.931 . S
H39 C18 0.931 . S
Gd40 C43 2.818 . S
Gd40 O60 2.377 1_655 S
Gd40 O62 2.448 . S
Gd40 O63 2.506 . S
Gd40 O64 2.435 . S
Gd40 O65 2.717 1_655 S
Gd40 O67 2.395 . S
Gd40 O71 2.327 1_655 S
Gd41 C52 2.818 . S
Gd41 O61 2.395 . S
Gd41 O65 2.327 . S
Gd41 O66 2.377 . S
Gd41 O68 2.448 . S
Gd41 O69 2.506 . S
Gd41 O70 2.435 . S
Gd41 O71 2.717 . S
C42 O60 1.240 . S
C42 O61 1.240 . S
C43 Gd40 2.818 . S
C43 C44 1.510 . S
C43 O62 1.249 . S
C43 O63 1.252 . S
C44 C43 1.510 . S
C44 C45 1.404 . S
C44 C46 1.352 . S
C45 C44 1.404 . S
C45 C49 1.389 . S
C45 H72 0.930 . S
C46 C44 1.352 . S
C46 C48 1.374 . S
C46 H73 0.931 . S
C47 C48 1.359 . S
C47 C49 1.364 . S
C48 C46 1.374 . S
C48 C47 1.359 . S
C48 H74 0.931 . S
C49 C45 1.389 . S
C49 C47 1.364 . S
C49 H75 0.931 . S
C50 O64 1.256 1_455 S
C50 O65 1.257 . S
C51 O66 1.240 1_655 S
C51 O67 1.240 . S
C52 Gd41 2.818 . S
C52 C53 1.510 . S
C52 O68 1.249 . S
C52 O69 1.252 . S
C53 C52 1.510 . S
C53 C54 1.404 . S
C53 C55 1.352 . S
C54 C53 1.404 . S
C54 C58 1.389 . S
C54 H76 0.930 . S
C55 C53 1.352 . S
C55 C57 1.374 . S
C55 H77 0.931 . S
C56 C57 1.359 . S
C56 C58 1.364 . S
C57 C55 1.374 . S
C57 C56 1.359 . S
C57 H78 0.931 . S
C58 C54 1.389 . S
C58 C56 1.364 . S
C58 H79 0.931 . S
C59 O70 1.256 . S
C59 O71 1.257 . S
O60 Gd40 2.377 1_455 S
O60 C42 1.240 . S
O61 Gd41 2.395 . S
O61 C42 1.240 . S
O62 Gd40 2.448 . S
O62 C43 1.249 . S
O63 Gd40 2.506 . S
O63 C43 1.252 . S
O64 Gd40 2.435 . S
O64 C50 1.256 1_655 S
O65 Gd40 2.717 1_455 S
O65 Gd41 2.327 . S
O65 C50 1.257 . S
O66 Gd41 2.377 . S
O66 C51 1.240 1_455 S
O67 Gd40 2.395 . S
O67 C51 1.240 . S
O68 Gd41 2.448 . S
O68 C52 1.249 . S
O69 Gd41 2.506 . S
O69 C52 1.252 . S
O70 Gd41 2.435 . S
O70 C59 1.256 . S
O71 Gd40 2.327 1_455 S
O71 Gd41 2.717 . S
O71 C59 1.257 . S
H72 C45 0.930 . S
H73 C46 0.931 . S
H74 C48 0.931 . S
H75 C49 0.931 . S
H76 C54 0.930 . S
H77 C55 0.931 . S
H78 C57 0.931 . S
H79 C58 0.931 . S
Gd80 C83 2.818 . S
Gd80 O100 2.377 . S
Gd80 O102 2.448 . S
Gd80 O103 2.506 . S
Gd80 O104 2.435 . S
Gd80 O105 2.717 . S
Gd80 O107 2.395 . S
Gd80 O111 2.327 . S
Gd81 C92 2.818 . S
Gd81 O101 2.395 . S
Gd81 O105 2.327 1_565 S
Gd81 O106 2.377 1_565 S
Gd81 O108 2.448 . S
Gd81 O109 2.506 . S
Gd81 O110 2.435 . S
Gd81 O111 2.717 1_565 S
C82 O100 1.240 1_565 S
C82 O101 1.240 . S
C83 Gd80 2.818 . S
C83 C84 1.510 . S
C83 O102 1.249 . S
C83 O103 1.252 . S
C84 C83 1.510 . S
C84 C85 1.404 . S
C84 C86 1.352 . S
C85 C84 1.404 . S
C85 C89 1.389 . S
C85 H112 0.930 . S
C86 C84 1.352 . S
C86 C88 1.374 . S
C86 H113 0.931 . S
C87 C88 1.359 . S
C87 C89 1.364 . S
C88 C86 1.374 . S
C88 C87 1.359 . S
C88 H114 0.931 . S
C89 C85 1.389 . S
C89 C87 1.364 . S
C89 H115 0.931 . S
C90 O104 1.256 . S
C90 O105 1.257 . S
C91 O106 1.240 . S
C91 O107 1.240 . S
C92 Gd81 2.818 . S
C92 C93 1.510 . S
C92 O108 1.249 . S
C92 O109 1.252 . S
C93 C92 1.510 . S
C93 C94 1.404 1_554 S
C93 C95 1.352 . S
C94 C93 1.404 1_556 S
C94 C98 1.389 . S
C94 H116 0.930 1_556 S
C95 C93 1.352 . S
C95 C97 1.374 1_554 S
C95 H117 0.931 . S
C96 C97 1.359 . S
C96 C98 1.364 . S
C97 C95 1.374 1_556 S
C97 C96 1.359 . S
C97 H118 0.931 . S
C98 C94 1.389 . S
C98 C96 1.364 . S
C98 H119 0.931 . S
C99 O110 1.256 1_545 S
C99 O111 1.257 . S
O100 Gd80 2.377 . S
O100 C82 1.240 1_545 S
O101 Gd81 2.395 . S
O101 C82 1.240 . S
O102 Gd80 2.448 . S
O102 C83 1.249 . S
O103 Gd80 2.506 . S
O103 C83 1.252 . S
O104 Gd80 2.435 . S
O104 C90 1.256 . S
O105 Gd80 2.717 . S
O105 Gd81 2.327 1_545 S
O105 C90 1.257 . S
O106 Gd81 2.377 1_545 S
O106 C91 1.240 . S
O107 Gd80 2.395 . S
O107 C91 1.240 . S
O108 Gd81 2.448 . S
O108 C92 1.249 . S
O109 Gd81 2.506 . S
O109 C92 1.252 . S
O110 Gd81 2.435 . S
O110 C99 1.256 1_565 S
O111 Gd80 2.327 . S
O111 Gd81 2.717 1_545 S
O111 C99 1.257 . S
H112 C85 0.930 . S
H113 C86 0.931 . S
H114 C88 0.931 . S
H115 C89 0.931 . S
H116 C94 0.930 1_554 S
H117 C95 0.931 . S
H118 C97 0.931 . S
H119 C98 0.931 . S
Gd120 C123 2.818 . S
Gd120 O140 2.377 1_655 S
Gd120 O142 2.448 . S
Gd120 O143 2.506 . S
Gd120 O144 2.435 . S
Gd120 O145 2.717 1_655 S
Gd120 O147 2.395 . S
Gd120 O151 2.327 1_655 S
Gd121 C132 2.818 . S
Gd121 O141 2.395 . S
Gd121 O145 2.327 . S
Gd121 O146 2.377 . S
Gd121 O148 2.448 . S
Gd121 O149 2.506 . S
Gd121 O150 2.435 . S
Gd121 O151 2.717 . S
C122 O140 1.240 . S
C122 O141 1.240 . S
C123 Gd120 2.818 . S
C123 C124 1.510 . S
C123 O142 1.249 . S
C123 O143 1.252 . S
C124 C123 1.510 . S
C124 C125 1.404 . S
C124 C126 1.352 . S
C125 C124 1.404 . S
C125 C129 1.389 . S
C125 H152 0.930 . S
C126 C124 1.352 . S
C126 C128 1.374 . S
C126 H153 0.931 . S
C127 C128 1.359 . S
C127 C129 1.364 . S
C128 C126 1.374 . S
C128 C127 1.359 . S
C128 H154 0.931 . S
C129 C125 1.389 . S
C129 C127 1.364 . S
C129 H155 0.931 . S
C130 O144 1.256 1_455 S
C130 O145 1.257 . S
C131 O146 1.240 1_655 S
C131 O147 1.240 . S
C132 Gd121 2.818 . S
C132 C133 1.510 . S
C132 O148 1.249 . S
C132 O149 1.252 . S
C133 C132 1.510 . S
C133 C134 1.404 . S
C133 C135 1.352 . S
C134 C133 1.404 . S
C134 C138 1.389 . S
C134 H156 0.930 . S
C135 C133 1.352 . S
C135 C137 1.374 . S
C135 H157 0.931 . S
C136 C137 1.359 . S
C136 C138 1.364 . S
C137 C135 1.374 . S
C137 C136 1.359 . S
C137 H158 0.931 . S
C138 C134 1.389 . S
C138 C136 1.364 . S
C138 H159 0.931 . S
C139 O150 1.256 . S
C139 O151 1.257 . S
O140 Gd120 2.377 1_455 S
O140 C122 1.240 . S
O141 Gd121 2.395 . S
O141 C122 1.240 . S
O142 Gd120 2.448 . S
O142 C123 1.249 . S
O143 Gd120 2.506 . S
O143 C123 1.252 . S
O144 Gd120 2.435 . S
O144 C130 1.256 1_655 S
O145 Gd120 2.717 1_455 S
O145 Gd121 2.327 . S
O145 C130 1.257 . S
O146 Gd121 2.377 . S
O146 C131 1.240 1_455 S
O147 Gd120 2.395 . S
O147 C131 1.240 . S
O148 Gd121 2.448 . S
O148 C132 1.249 . S
O149 Gd121 2.506 . S
O149 C132 1.252 . S
O150 Gd121 2.435 . S
O150 C139 1.256 . S
O151 Gd120 2.327 1_455 S
O151 Gd121 2.717 . S
O151 C139 1.257 . S
H152 C125 0.930 . S
H153 C126 0.931 . S
H154 C128 0.931 . S
H155 C129 0.931 . S
H156 C134 0.930 . S
H157 C135 0.931 . S
H158 C137 0.931 . S
H159 C138 0.931 . S
C160 C161 1.386 . S
C160 C162 1.383 . S
C160 H176 0.951 . S
C161 C160 1.386 . S
C161 C165 1.383 1_545 S
C162 C160 1.383 . S
C162 C163 1.402 . S
C162 H177 0.951 . S
C163 C162 1.402 . S
C163 C164 1.375 1_545 S
C163 C166 1.481 1_655 S
C164 C163 1.375 1_565 S
C164 C165 1.367 . S
C164 H178 0.951 . S
C165 C161 1.383 1_565 S
C165 C164 1.367 . S
C165 H179 0.950 . S
C166 C163 1.481 1_455 S
C166 C167 1.297 . S
C166 H180 0.950 . S
C167 C166 1.297 . S
C167 C168 1.479 . S
C167 H181 0.950 . S
C168 C167 1.479 . S
C168 C169 1.375 . S
C168 C174 1.404 . S
C169 C168 1.375 . S
C169 C170 1.369 . S
C169 H182 0.950 . S
C170 C169 1.369 . S
C170 C171 1.392 . S
C170 H183 0.951 . S
C171 C170 1.392 . S
C171 C173 1.384 . S
H172 C174 0.949 . S
C173 C171 1.384 . S
C173 C174 1.385 . S
C173 H175 0.950 . S
C174 C168 1.404 . S
C174 H172 0.949 . S
C174 C173 1.385 . S
H175 C173 0.950 . S
H176 C160 0.951 . S
H177 C162 0.951 . S
H178 C164 0.951 . S
H179 C165 0.950 . S
H180 C166 0.950 . S
H181 C167 0.950 . S
H182 C169 0.950 . S
H183 C170 0.951 . S
C184 C185 1.386 . S
C184 C186 1.383 . S
C184 H200 0.951 1_455 S
C185 C184 1.386 . S
C185 C189 1.383 . S
C186 C184 1.383 . S
C186 C187 1.402 . S
C186 H201 0.951 1_465 S
C187 C186 1.402 . S
C187 C188 1.375 . S
C187 C190 1.481 1_565 S
C188 C187 1.375 . S
C188 C189 1.367 . S
C188 H202 0.951 . S
C189 C185 1.383 . S
C189 C188 1.367 . S
C189 H203 0.950 . S
C190 C187 1.481 1_545 S
C190 C191 1.297 . S
C190 H204 0.950 . S
C191 C190 1.297 . S
C191 C192 1.479 . S
C191 H205 0.950 1_455 S
C192 C191 1.479 . S
C192 C193 1.375 1_455 S
C192 C198 1.404 . S
C193 C192 1.375 1_655 S
C193 C194 1.369 . S
C193 H206 0.950 . S
C194 C193 1.369 . S
C194 C195 1.392 1_655 S
C194 H207 0.951 . S
C195 C194 1.392 1_455 S
C195 C197 1.384 . S
H196 C198 0.949 . S
C197 C195 1.384 . S
C197 C198 1.385 . S
C197 H199 0.950 . S
C198 C192 1.404 . S
C198 H196 0.949 . S
C198 C197 1.385 . S
H199 C197 0.950 . S
H200 C184 0.951 1_655 S
H201 C186 0.951 1_645 S
H202 C188 0.951 . S
H203 C189 0.950 . S
H204 C190 0.950 . S
H205 C191 0.950 1_655 S
H206 C193 0.950 . S
H207 C194 0.951 . S
C208 C209 1.386 1_565 S
C208 C210 1.383 1_565 S
C208 H224 0.951 . S
C209 C208 1.386 1_545 S
C209 C213 1.383 . S
C210 C208 1.383 1_545 S
C210 C211 1.402 . S
C210 H225 0.951 1_545 S
C211 C210 1.402 . S
C211 C212 1.375 . S
C211 C214 1.481 . S
C212 C211 1.375 . S
C212 C213 1.367 . S
C212 H226 0.951 . S
C213 C209 1.383 . S
C213 C212 1.367 . S
C213 H227 0.950 . S
C214 C211 1.481 . S
C214 C215 1.297 . S
C214 H228 0.950 . S
C215 C214 1.297 . S
C215 C216 1.479 . S
C215 H229 0.950 . S
C216 C215 1.479 . S
C216 C217 1.375 . S
C216 C222 1.404 . S
C217 C216 1.375 . S
C217 C218 1.369 . S
C217 H230 0.948 1_545 S
C218 C217 1.369 . S
C218 C219 1.392 . S
C218 H231 0.951 . S
C219 C218 1.392 . S
C219 C221 1.384 . S
H220 C222 0.949 . S
C221 C219 1.384 . S
C221 C222 1.385 . S
C221 H223 0.950 . S
C222 C216 1.404 . S
C222 H220 0.949 . S
C222 C221 1.385 . S
H223 C221 0.950 . S
H224 C208 0.951 . S
H225 C210 0.951 1_565 S
H226 C212 0.951 . S
H227 C213 0.950 . S
H228 C214 0.950 . S
H229 C215 0.950 . S
H230 C217 0.948 1_565 S
H231 C218 0.951 . S
C232 C233 1.386 1_655 S
C232 C234 1.383 . S
C232 H248 0.951 . S
C233 C232 1.386 1_455 S
C233 C237 1.383 . S
C234 C232 1.383 . S
C234 C235 1.402 1_655 S
C234 H249 0.951 . S
C235 C234 1.402 1_455 S
C235 C236 1.375 . S
C235 C238 1.481 . S
C236 C235 1.375 . S
C236 C237 1.367 . S
C236 H250 0.951 . S
C237 C233 1.383 . S
C237 C236 1.367 . S
C237 H251 0.950 . S
C238 C235 1.481 . S
C238 C239 1.297 . S
C238 H252 0.950 . S
C239 C238 1.297 . S
C239 C240 1.479 . S
C239 H253 0.950 1_455 S
C240 C239 1.479 . S
C240 C241 1.375 1_455 S
C240 C246 1.404 . S
C241 C240 1.375 1_655 S
C241 C242 1.369 . S
C241 H254 0.950 . S
C242 C241 1.369 . S
C242 C243 1.392 1_655 S
C242 H255 0.951 . S
C243 C242 1.392 1_455 S
C243 C245 1.384 . S
H244 C246 0.949 . S
C245 C243 1.384 . S
C245 C246 1.385 . S
C245 H247 0.950 . S
C246 C240 1.404 . S
C246 H244 0.949 . S
C246 C245 1.385 . S
H247 C245 0.950 . S
H248 C232 0.951 . S
H249 C234 0.951 . S
H250 C236 0.951 . S
H251 C237 0.950 . S
H252 C238 0.950 . S
H253 C239 0.950 1_655 S
H254 C241 0.950 . S
H255 C242 0.951 . S
C256 C257 1.386 . S
C256 C258 1.383 . S
C256 H272 0.951 . S
C257 C256 1.386 . S
C257 C261 1.383 . S
C258 C256 1.383 . S
C258 C259 1.402 . S
C258 H273 0.951 . S
C259 C258 1.402 . S
C259 C260 1.375 . S
C259 C262 1.481 . S
C260 C259 1.375 . S
C260 C261 1.367 . S
C260 H274 0.951 . S
C261 C257 1.383 . S
C261 C260 1.367 . S
C261 H275 0.950 . S
C262 C259 1.481 . S
C262 C263 1.297 . S
C262 H276 0.950 . S
C263 C262 1.297 . S
C263 C264 1.479 . S
C263 H277 0.950 . S
C264 C263 1.479 . S
C264 C265 1.375 . S
C264 C270 1.404 . S
C265 C264 1.375 . S
C265 C266 1.369 . S
C265 H278 0.950 . S
C266 C265 1.369 . S
C266 C267 1.392 . S
C266 H279 0.951 . S
C267 C266 1.392 . S
C267 C269 1.384 . S
H268 C270 0.949 . S
C269 C267 1.384 . S
C269 C270 1.385 . S
C269 H271 0.950 . S
C270 C264 1.404 . S
C270 H268 0.949 . S
C270 C269 1.385 . S
H271 C269 0.950 . S
H272 C256 0.951 . S
H273 C258 0.951 . S
H274 C260 0.951 . S
H275 C261 0.950 . S
H276 C262 0.950 . S
H277 C263 0.950 . S
H278 C265 0.950 . S
H279 C266 0.951 . S
C280 C281 1.386 . S
C280 C282 1.383 . S
C280 H296 0.951 . S
C281 C280 1.386 . S
C281 C285 1.383 . S
C282 C280 1.383 . S
C282 C283 1.402 . S
C282 H297 0.951 . S
C283 C282 1.402 . S
C283 C284 1.375 . S
C283 C286 1.481 . S
C284 C283 1.375 . S
C284 C285 1.367 . S
C284 H298 0.951 . S
C285 C281 1.383 . S
C285 C284 1.367 . S
C285 H299 0.950 . S
C286 C283 1.481 . S
C286 C287 1.297 . S
C286 H300 0.950 . S
C287 C286 1.297 . S
C287 C288 1.479 . S
C287 H301 0.950 . S
C288 C287 1.479 . S
C288 C289 1.375 1_556 S
C288 C294 1.404 1_556 S
C289 C288 1.375 1_554 S
C289 C290 1.369 . S
C289 H302 0.950 1_554 S
C290 C289 1.369 . S
C290 C291 1.392 . S
C290 H303 0.951 . S
C291 C290 1.392 . S
C291 C293 1.384 . S
H292 C294 0.949 1_556 S
C293 C291 1.384 . S
C293 C294 1.385 . S
C293 H295 0.950 . S
C294 C288 1.404 1_554 S
C294 H292 0.949 1_554 S
C294 C293 1.385 . S
H295 C293 0.950 . S
H296 C280 0.951 . S
H297 C282 0.951 . S
H298 C284 0.951 . S
H299 C285 0.950 . S
H300 C286 0.950 . S
H301 C287 0.950 . S
H302 C289 0.950 1_556 S
H303 C290 0.951 . S
C304 C305 1.386 . S
C304 C306 1.383 . S
C304 H320 0.951 . S
C305 C304 1.386 . S
C305 C309 1.383 . S
C306 C304 1.383 . S
C306 C307 1.402 . S
C306 H321 0.951 . S
C307 C306 1.402 . S
C307 C308 1.375 . S
C307 C310 1.481 . S
C308 C307 1.375 . S
C308 C309 1.367 . S
C308 H322 0.951 . S
C309 C305 1.383 . S
C309 C308 1.367 . S
C309 H323 0.950 1_655 S
C310 C307 1.481 . S
C310 C311 1.297 . S
C310 H324 0.950 . S
C311 C310 1.297 . S
C311 C312 1.479 . S
C311 H325 0.950 . S
C312 C311 1.479 . S
C312 C313 1.375 . S
C312 C318 1.404 . S
C313 C312 1.375 . S
C313 C314 1.369 . S
C313 H326 0.950 . S
C314 C313 1.369 . S
C314 C315 1.392 . S
C314 H327 0.951 . S
C315 C314 1.392 . S
C315 C317 1.384 . S
H316 C318 0.949 . S
C317 C315 1.384 . S
C317 C318 1.385 . S
C317 H319 0.950 1_565 S
C318 C312 1.404 . S
C318 H316 0.949 . S
C318 C317 1.385 . S
H319 C317 0.950 1_545 S
H320 C304 0.951 . S
H321 C306 0.951 . S
H322 C308 0.951 . S
H323 C309 0.950 1_455 S
H324 C310 0.950 . S
H325 C311 0.950 . S
H326 C313 0.950 . S
H327 C314 0.951 . S
C328 C329 1.386 . S
C328 C330 1.383 . S
C328 H344 0.951 . S
C329 C328 1.386 . S
C329 C333 1.383 . S
C330 C328 1.383 . S
C330 C331 1.402 . S
C330 H345 0.951 . S
C331 C330 1.402 . S
C331 C332 1.375 . S
C331 C334 1.481 . S
C332 C331 1.375 . S
C332 C333 1.367 . S
C332 H346 0.951 . S
C333 C329 1.383 . S
C333 C332 1.367 . S
C333 H347 0.950 . S
C334 C331 1.481 . S
C334 C335 1.297 . S
C334 H348 0.950 . S
C335 C334 1.297 . S
C335 C336 1.479 . S
C335 H349 0.950 . S
C336 C335 1.479 . S
C336 C337 1.375 . S
C336 C342 1.404 . S
C337 C336 1.375 . S
C337 C338 1.369 . S
C337 H350 0.950 . S
C338 C337 1.369 . S
C338 C339 1.392 . S
C338 H351 0.951 . S
C339 C338 1.392 . S
C339 C341 1.384 . S
H340 C342 0.949 . S
C341 C339 1.384 . S
C341 C342 1.385 . S
C341 H343 0.950 . S
C342 C336 1.404 . S
C342 H340 0.949 . S
C342 C341 1.385 . S
H343 C341 0.950 . S
H344 C328 0.951 . S
H345 C330 0.951 . S
H346 C332 0.951 . S
H347 C333 0.950 . S
H348 C334 0.950 . S
H349 C335 0.950 . S
H350 C337 0.950 . S
H351 C338 0.951 . S
C352 C353 1.386 . S
C352 C354 1.383 . S
C352 H368 0.951 . S
C353 C352 1.386 . S
C353 C357 1.383 . S
C354 C352 1.383 . S
C354 C355 1.402 . S
C354 H369 0.951 . S
C355 C354 1.402 . S
C355 C356 1.375 . S
C355 C358 1.481 . S
C356 C355 1.375 . S
C356 C357 1.367 . S
C356 H370 0.951 . S
C357 C353 1.383 . S
C357 C356 1.367 . S
C357 H371 0.950 . S
C358 C355 1.481 . S
C358 C359 1.297 . S
C358 H372 0.950 . S
C359 C358 1.297 . S
C359 C360 1.479 . S
C359 H373 0.950 . S
C360 C359 1.479 . S
C360 C361 1.375 . S
C360 C366 1.404 . S
C361 C360 1.375 . S
C361 C362 1.369 . S
C361 H374 0.950 . S
C362 C361 1.369 . S
C362 C363 1.392 . S
C362 H375 0.951 . S
C363 C362 1.392 . S
C363 C365 1.384 . S
H364 C366 0.949 . S
C365 C363 1.384 . S
C365 C366 1.385 . S
C365 H367 0.950 . S
C366 C360 1.404 . S
C366 H364 0.949 . S
C366 C365 1.385 . S
H367 C365 0.950 . S
H368 C352 0.951 . S
H369 C354 0.951 . S
H370 C356 0.951 . S
H371 C357 0.950 . S
H372 C358 0.950 . S
H373 C359 0.950 . S
H374 C361 0.950 . S
H375 C362 0.951 . S
C376 C377 1.386 1_565 S
C376 C378 1.383 . S
C376 H392 0.951 . S
C377 C376 1.386 1_545 S
C377 C381 1.383 . S
C378 C376 1.383 . S
C378 C379 1.402 . S
C378 H393 0.951 . S
C379 C378 1.402 . S
C379 C380 1.375 1_565 S
C379 C382 1.481 . S
C380 C379 1.375 1_545 S
C380 C381 1.367 . S
C380 H394 0.951 . S
C381 C377 1.383 . S
C381 C380 1.367 . S
C381 H395 0.950 . S
C382 C379 1.481 . S
C382 C383 1.297 . S
C382 H396 0.950 . S
C383 C382 1.297 . S
C383 C384 1.479 . S
C383 H397 0.950 . S
C384 C383 1.479 . S
C384 C385 1.375 . S
C384 C390 1.404 . S
C385 C384 1.375 . S
C385 C386 1.369 . S
C385 H398 0.950 . S
C386 C385 1.369 . S
C386 C387 1.392 . S
C386 H399 0.951 . S
C387 C386 1.392 . S
C387 C389 1.384 . S
H388 C390 0.949 . S
C389 C387 1.384 . S
C389 C390 1.385 . S
C389 H391 0.950 . S
C390 C384 1.404 . S
C390 H388 0.949 . S
C390 C389 1.385 . S
H391 C389 0.950 . S
H392 C376 0.951 . S
H393 C378 0.951 . S
H394 C380 0.951 . S
H395 C381 0.950 . S
H396 C382 0.950 . S
H397 C383 0.950 . S
H398 C385 0.950 . S
H399 C386 0.951 . S
C400 C401 1.386 . S
C400 C402 1.383 . S
C400 H416 0.951 . S
C401 C400 1.386 . S
C401 C405 1.383 . S
C402 C400 1.383 . S
C402 C403 1.402 . S
C402 H417 0.951 . S
C403 C402 1.402 . S
C403 C404 1.375 . S
C403 C406 1.481 . S
C404 C403 1.375 . S
C404 C405 1.367 . S
C404 H418 0.951 . S
C405 C401 1.383 . S
C405 C404 1.367 . S
C405 H419 0.950 . S
C406 C403 1.481 . S
C406 C407 1.297 . S
C406 H420 0.950 . S
C407 C406 1.297 . S
C407 C408 1.479 . S
C407 H421 0.950 . S
C408 C407 1.479 . S
C408 C409 1.375 . S
C408 C414 1.404 . S
C409 C408 1.375 . S
C409 C410 1.369 . S
C409 H422 0.950 . S
C410 C409 1.369 . S
C410 C411 1.392 . S
C410 H423 0.951 . S
C411 C410 1.392 . S
C411 C413 1.384 . S
H412 C414 0.949 . S
C413 C411 1.384 . S
C413 C414 1.385 . S
C413 H415 0.950 . S
C414 C408 1.404 . S
C414 H412 0.949 . S
C414 C413 1.385 . S
H415 C413 0.950 . S
H416 C400 0.951 . S
H417 C402 0.951 . S
H418 C404 0.951 . S
H419 C405 0.950 . S
H420 C406 0.950 . S
H421 C407 0.950 . S
H422 C409 0.950 . S
H423 C410 0.951 . S
C424 C425 1.386 . S
C424 C426 1.383 . S
C424 H440 0.951 . S
C425 C424 1.386 . S
C425 C429 1.383 . S
C426 C424 1.383 . S
C426 C427 1.402 . S
C426 H441 0.951 . S
C427 C426 1.402 . S
C427 C428 1.375 . S
C427 C430 1.481 . S
C428 C427 1.375 . S
C428 C429 1.367 . S
C428 H442 0.951 . S
C429 C425 1.383 . S
C429 C428 1.367 . S
C429 H443 0.950 . S
C430 C427 1.481 . S
C430 C431 1.297 . S
C430 H444 0.950 . S
C431 C430 1.297 . S
C431 C432 1.479 . S
C431 H445 0.950 . S
C432 C431 1.479 . S
C432 C433 1.375 . S
C432 C438 1.404 . S
C433 C432 1.375 . S
C433 C434 1.369 . S
C433 H446 0.950 . S
C434 C433 1.369 . S
C434 C435 1.392 . S
C434 H447 0.951 . S
C435 C434 1.392 . S
C435 C437 1.384 . S
H436 C438 0.949 . S
C437 C435 1.384 . S
C437 C438 1.385 . S
C437 H439 0.950 . S
C438 C432 1.404 . S
C438 H436 0.949 . S
C438 C437 1.385 . S
H439 C437 0.950 . S
H440 C424 0.951 . S
H441 C426 0.951 . S
H442 C428 0.951 . S
H443 C429 0.950 . S
H444 C430 0.950 . S
H445 C431 0.950 . S
H446 C433 0.950 . S
H447 C434 0.951 . S
C161 C90 0.646 . S
C171 C19 0.634 . S
C185 C130 0.777 . S
C195 C59 0.988 . S
C209 C99 1.055 . S
C219 C10 0.980 . S
C233 C50 1.009 . S
C243 C139 1.012 . S
C257 C56 0.997 . S
C267 C7 1.027 . S
C281 C47 1.761 . S
C291 C91 1.756 . S
C305 C131 2.138 . S
C315 C82 2.105 . S
C329 C122 1.279 . S
C339 C16 1.311 . S
C353 C96 1.026 . S
C363 C127 1.034 . S
C377 C2 1.769 . S
C387 C136 1.732 . S
C401 C42 2.149 . S
C411 C11 2.115 1_556 S
C425 C87 1.309 . S
C435 C51 1.266 . S
