# Generated by pormake.
# Topology snl, (6)-cn, num edge types: 1
# Building blocks:
#     Node 0, Type 0, BuildingBlock: BETGAK_clean_sbu_0, # of connection points: 6
#     Node 1, Type 0, BuildingBlock: BETGAK_clean_sbu_0, # of connection points: 6
#     Node 2, Type 0, BuildingBlock: BETGAK_clean_sbu_0, # of connection points: 6
#     Node 3, Type 0, BuildingBlock: BETGAK_clean_sbu_0, # of connection points: 6
#     Node 4, Type 0, BuildingBlock: BETGAK_clean_sbu_0, # of connection points: 6
#     Node 5, Type 0, BuildingBlock: BETGAK_clean_sbu_0, # of connection points: 6
#     Node 6, Type 0, BuildingBlock: BETGAK_clean_sbu_0, # of connection points: 6
#     Node 7, Type 0, BuildingBlock: BETGAK_clean_sbu_0, # of connection points: 6
#     Node 8, Type 0, BuildingBlock: BETGAK_clean_sbu_0, # of connection points: 6
#     Node 9, Type 0, BuildingBlock: BETGAK_clean_sbu_0, # of connection points: 6
#     Node 10, Type 0, BuildingBlock: BETGAK_clean_sbu_0, # of connection points: 6
#     Node 11, Type 0, BuildingBlock: BETGAK_clean_sbu_0, # of connection points: 6
#     Node 12, Type 0, BuildingBlock: BETGAK_clean_sbu_0, # of connection points: 6
#     Node 13, Type 0, BuildingBlock: BETGAK_clean_sbu_0, # of connection points: 6
#     Node 14, Type 0, BuildingBlock: BETGAK_clean_sbu_0, # of connection points: 6
#     Node 15, Type 0, BuildingBlock: BETGAK_clean_sbu_0, # of connection points: 6
#     Edge 16, Type (0, 0), BuildingBlock: MIFKUJ_clean_linker_0, # of connection points: 2
#     Edge 17, Type (0, 0), BuildingBlock: MIFKUJ_clean_linker_0, # of connection points: 2
#     Edge 18, Type (0, 0), BuildingBlock: MIFKUJ_clean_linker_0, # of connection points: 2
#     Edge 19, Type (0, 0), BuildingBlock: MIFKUJ_clean_linker_0, # of connection points: 2
#     Edge 20, Type (0, 0), BuildingBlock: MIFKUJ_clean_linker_0, # of connection points: 2
#     Edge 21, Type (0, 0), BuildingBlock: MIFKUJ_clean_linker_0, # of connection points: 2
#     Edge 22, Type (0, 0), BuildingBlock: MIFKUJ_clean_linker_0, # of connection points: 2
#     Edge 23, Type (0, 0), BuildingBlock: MIFKUJ_clean_linker_0, # of connection points: 2
#     Edge 24, Type (0, 0), BuildingBlock: MIFKUJ_clean_linker_0, # of connection points: 2
#     Edge 25, Type (0, 0), BuildingBlock: MIFKUJ_clean_linker_0, # of connection points: 2
#     Edge 26, Type (0, 0), BuildingBlock: MIFKUJ_clean_linker_0, # of connection points: 2
#     Edge 27, Type (0, 0), BuildingBlock: MIFKUJ_clean_linker_0, # of connection points: 2
#     Edge 28, Type (0, 0), BuildingBlock: MIFKUJ_clean_linker_0, # of connection points: 2
#     Edge 29, Type (0, 0), BuildingBlock: MIFKUJ_clean_linker_0, # of connection points: 2
#     Edge 30, Type (0, 0), BuildingBlock: MIFKUJ_clean_linker_0, # of connection points: 2
#     Edge 31, Type (0, 0), BuildingBlock: MIFKUJ_clean_linker_0, # of connection points: 2
#     Edge 32, Type (0, 0), BuildingBlock: MIFKUJ_clean_linker_0, # of connection points: 2
#     Edge 33, Type (0, 0), BuildingBlock: MIFKUJ_clean_linker_0, # of connection points: 2
#     Edge 34, Type (0, 0), BuildingBlock: MIFKUJ_clean_linker_0, # of connection points: 2
#     Edge 35, Type (0, 0), BuildingBlock: MIFKUJ_clean_linker_0, # of connection points: 2
#     Edge 36, Type (0, 0), BuildingBlock: MIFKUJ_clean_linker_0, # of connection points: 2
#     Edge 37, Type (0, 0), BuildingBlock: MIFKUJ_clean_linker_0, # of connection points: 2
#     Edge 38, Type (0, 0), BuildingBlock: MIFKUJ_clean_linker_0, # of connection points: 2
#     Edge 39, Type (0, 0), BuildingBlock: MIFKUJ_clean_linker_0, # of connection points: 2
#     Edge 40, Type (0, 0), BuildingBlock: MIFKUJ_clean_linker_0, # of connection points: 2
#     Edge 41, Type (0, 0), BuildingBlock: MIFKUJ_clean_linker_0, # of connection points: 2
#     Edge 42, Type (0, 0), BuildingBlock: MIFKUJ_clean_linker_0, # of connection points: 2
#     Edge 43, Type (0, 0), BuildingBlock: MIFKUJ_clean_linker_0, # of connection points: 2
#     Edge 44, Type (0, 0), BuildingBlock: MIFKUJ_clean_linker_0, # of connection points: 2
#     Edge 45, Type (0, 0), BuildingBlock: MIFKUJ_clean_linker_0, # of connection points: 2
#     Edge 46, Type (0, 0), BuildingBlock: MIFKUJ_clean_linker_0, # of connection points: 2
#     Edge 47, Type (0, 0), BuildingBlock: MIFKUJ_clean_linker_0, # of connection points: 2
#     Edge 48, Type (0, 0), BuildingBlock: MIFKUJ_clean_linker_0, # of connection points: 2
#     Edge 49, Type (0, 0), BuildingBlock: MIFKUJ_clean_linker_0, # of connection points: 2
#     Edge 50, Type (0, 0), BuildingBlock: MIFKUJ_clean_linker_0, # of connection points: 2
#     Edge 51, Type (0, 0), BuildingBlock: MIFKUJ_clean_linker_0, # of connection points: 2
#     Edge 52, Type (0, 0), BuildingBlock: MIFKUJ_clean_linker_0, # of connection points: 2
#     Edge 53, Type (0, 0), BuildingBlock: MIFKUJ_clean_linker_0, # of connection points: 2
#     Edge 54, Type (0, 0), BuildingBlock: MIFKUJ_clean_linker_0, # of connection points: 2
#     Edge 55, Type (0, 0), BuildingBlock: MIFKUJ_clean_linker_0, # of connection points: 2
#     Edge 56, Type (0, 0), BuildingBlock: MIFKUJ_clean_linker_0, # of connection points: 2
#     Edge 57, Type (0, 0), BuildingBlock: MIFKUJ_clean_linker_0, # of connection points: 2
#     Edge 58, Type (0, 0), BuildingBlock: MIFKUJ_clean_linker_0, # of connection points: 2
#     Edge 59, Type (0, 0), BuildingBlock: MIFKUJ_clean_linker_0, # of connection points: 2
#     Edge 60, Type (0, 0), BuildingBlock: MIFKUJ_clean_linker_0, # of connection points: 2
#     Edge 61, Type (0, 0), BuildingBlock: MIFKUJ_clean_linker_0, # of connection points: 2
#     Edge 62, Type (0, 0), BuildingBlock: MIFKUJ_clean_linker_0, # of connection points: 2
#     Edge 63, Type (0, 0), BuildingBlock: MIFKUJ_clean_linker_0, # of connection points: 2
# Relax obj value: 0.189
# Max RMSD: 0.259
# Mean RMSD: 0.216
data_MOF--net-snl--node1-BETGAK_clean_sbu_0--edge1-MIFKUJ_clean_linker_0
_symmetry_space_group_name_H-M    P1
_symmetry_Int_Tables_number       1
_symmetry_cell_setting            triclinic
loop_
_symmetry_equiv_pos_as_xyz
'x, y, z'
_cell_length_a     74.694928
_cell_length_b     75.592634
_cell_length_c     30.583566
_cell_angle_alpha  97.510864
_cell_angle_beta   94.371088
_cell_angle_gamma 89.955631
loop_
_atom_site_label
_atom_site_type_symbol
_atom_site_fract_x
_atom_site_fract_y
_atom_site_fract_z
_atom_type_partial_charge
La0 La 0.14528 0.63396 0.08255 0.0
La1 La 0.13306 0.6352 0.17023 0.0
C2 C 0.15162 0.62592 1.00196 0.0
C3 C 0.14587 0.6276 0.95504 0.0
C4 C 0.14585 0.64415 0.93861 0.0
C5 C 0.1434 0.645 0.89294 0.0
C6 C 0.14102 0.62933 0.86253 0.0
C7 C 0.14033 0.61288 0.8793 0.0
C8 C 0.14276 0.61204 0.92488 0.0
C9 C 0.1447 0.66719 0.12476 0.0
C10 C 0.103 0.63782 0.09726 0.0
C11 C 0.12619 0.64136 0.25085 0.0
C12 C 0.13204 0.63949 0.29764 0.0
C13 C 0.13175 0.6229 0.31382 0.0
C14 C 0.13426 0.62192 0.35943 0.0
C15 C 0.13697 0.63749 0.39001 0.0
C16 C 0.13796 0.65397 0.3735 0.0
C17 C 0.13549 0.65495 0.32801 0.0
C18 C 0.13394 0.60239 0.12437 0.0
C19 C 0.17493 0.63352 0.16073 0.0
O20 O 0.15799 0.64008 0.02741 0.0
O21 O 0.14202 0.61596 0.02335 0.0
O22 O 0.15672 0.66081 0.09898 0.0
O23 O 0.13298 0.65509 0.12521 0.0
O24 O 0.11523 0.63208 0.06924 0.0
O25 O 0.10813 0.64325 0.13892 0.0
O26 O 0.12086 0.6271 0.22418 0.0
O27 O 0.13503 0.6524 0.23069 0.0
O28 O 0.12142 0.60825 0.14924 0.0
O29 O 0.14564 0.61455 0.12689 0.0
O30 O 0.16201 0.63878 0.1864 0.0
O31 O 0.17097 0.62788 0.11816 0.0
H32 H 0.14838 0.65641 0.96083 0.0
H33 H 0.14415 0.6579 0.8814 0.0
H34 H 0.1382 0.60055 0.85711 0.0
H35 H 0.14286 0.59909 0.93647 0.0
H36 H 0.12892 0.61072 0.29148 0.0
H37 H 0.13328 0.609 0.3708 0.0
H38 H 0.14033 0.66623 0.39586 0.0
H39 H 0.1356 0.66794 0.31668 0.0
La40 La 0.64479 0.88696 0.44557 0.0
La41 La 0.6293 0.88713 0.35517 0.0
C42 C 0.65359 0.89346 0.52821 0.0
C43 C 0.64812 0.8924 0.57374 0.0
C44 C 0.64534 0.87601 0.58949 0.0
C45 C 0.64285 0.87539 0.63443 0.0
C46 C 0.64315 0.89114 0.66493 0.0
C47 C 0.64538 0.90753 0.64858 0.0
C48 C 0.64792 0.9081 0.60379 0.0
C49 C 0.64265 0.8542 0.39955 0.0
C50 C 0.6018 0.88372 0.4237 0.0
C51 C 0.62045 0.88163 0.27247 0.0
C52 C 0.62628 0.88294 0.2273 0.0
C53 C 0.62779 0.89945 0.21114 0.0
C54 C 0.63063 0.90019 0.16645 0.0
C55 C 0.63188 0.88445 0.13652 0.0
C56 C 0.63094 0.86799 0.1532 0.0
C57 C 0.62814 0.86726 0.1978 0.0
C58 C 0.63098 0.91919 0.40467 0.0
C59 C 0.6718 0.88942 0.37219 0.0
O60 O 0.65718 0.87867 0.50348 0.0
O61 O 0.64555 0.9049 0.50496 0.0
O62 O 0.65546 0.86036 0.42829 0.0
O63 O 0.63102 0.86646 0.3983 0.0
O64 O 0.61526 0.88855 0.45405 0.0
O65 O 0.605 0.8794 0.38191 0.0
O66 O 0.61715 0.89633 0.29803 0.0
O67 O 0.62805 0.86971 0.29503 0.0
O68 O 0.6179 0.9135 0.37612 0.0
O69 O 0.64294 0.90731 0.40344 0.0
O70 O 0.65777 0.88535 0.34382 0.0
O71 O 0.66976 0.89286 0.41526 0.0
H72 H 0.64564 0.86359 0.56745 0.0
H73 H 0.64138 0.86248 0.64549 0.0
H74 H 0.64539 0.92 0.67049 0.0
H75 H 0.65031 0.92086 0.59277 0.0
H76 H 0.62622 0.91183 0.23265 0.0
H77 H 0.63112 0.91313 0.15501 0.0
H78 H 0.63214 0.85557 0.13161 0.0
H79 H 0.62687 0.85432 0.20895 0.0
La80 La 0.3767 0.39658 0.68403 0.0
La81 La 0.37064 0.38085 0.5846 0.0
C82 C 0.36967 0.40651 0.76308 0.0
C83 C 0.37423 0.40323 0.80964 0.0
C84 C 0.38066 0.41741 0.84135 0.0
C85 C 0.38273 0.41539 0.88643 0.0
C86 C 0.37816 0.39921 0.90104 0.0
C87 C 0.37228 0.38484 0.86918 0.0
C88 C 0.37041 0.38679 0.82403 0.0
C89 C 0.40842 0.38968 0.65086 0.0
C90 C 0.37864 0.35412 0.65315 0.0
C91 C 0.37063 0.3712 0.50207 0.0
C92 C 0.3713 0.3766 0.45726 0.0
C93 C 0.36143 0.36641 0.42192 0.0
C94 C 0.36235 0.37005 0.37846 0.0
C95 C 0.37315 0.3841 0.36888 0.0
C96 C 0.38297 0.39447 0.40454 0.0
C97 C 0.38206 0.39076 0.44831 0.0
C98 C 0.34221 0.38246 0.63339 0.0
C99 C 0.37331 0.42319 0.60984 0.0
O100 O 0.38177 0.41434 0.74301 0.0
O101 O 0.36081 0.39394 0.73645 0.0
O102 O 0.40625 0.3955 0.6919 0.0
O103 O 0.39286 0.38757 0.63136 0.0
O104 O 0.37524 0.36718 0.68522 0.0
O105 O 0.38004 0.35714 0.6119 0.0
O106 O 0.35609 0.37491 0.52267 0.0
O107 O 0.38519 0.37283 0.52912 0.0
O108 O 0.34522 0.36967 0.60225 0.0
O109 O 0.35465 0.39391 0.63513 0.0
O110 O 0.37306 0.40917 0.57891 0.0
O111 O 0.37355 0.42152 0.65287 0.0
H112 H 0.38354 0.43028 0.8314 0.0
H113 H 0.3872 0.42675 0.91008 0.0
H114 H 0.36879 0.37215 0.87928 0.0
H115 H 0.36537 0.37557 0.80064 0.0
H116 H 0.35318 0.35531 0.42787 0.0
H117 H 0.35487 0.36149 0.35221 0.0
H118 H 0.39131 0.4055 0.39869 0.0
H119 H 0.38984 0.39883 0.47498 0.0
La120 La 0.87775 0.11943 0.88115 0.0
La121 La 0.87826 0.13527 0.98112 0.0
C122 C 0.86602 0.11038 0.80155 0.0
C123 C 0.86879 0.11344 0.7555 0.0
C124 C 0.88595 0.11415 0.7398 0.0
C125 C 0.88789 0.1159 0.69515 0.0
C126 C 0.87272 0.11692 0.66515 0.0
C127 C 0.8556 0.11658 0.68146 0.0
C128 C 0.85369 0.11485 0.72594 0.0
C129 C 0.91154 0.12561 0.91481 0.0
C130 C 0.88209 0.16198 0.9127 0.0
C131 C 0.88448 0.14366 0.06392 0.0
C132 C 0.88385 0.13724 0.10791 0.0
C133 C 0.86746 0.13492 0.12645 0.0
C134 C 0.86713 0.13163 0.17053 0.0
C135 C 0.88318 0.13064 0.19748 0.0
C136 C 0.89957 0.13234 0.17834 0.0
C137 C 0.89988 0.13565 0.13428 0.0
C138 C 0.84683 0.13355 0.93297 0.0
C139 C 0.87667 0.09257 0.95483 0.0
O140 O 0.87837 0.10159 0.82249 0.0
O141 O 0.85959 0.12368 0.82748 0.0
O142 O 0.90692 0.11874 0.87443 0.0
O143 O 0.89714 0.12871 0.93337 0.0
O144 O 0.87627 0.14896 0.88094 0.0
O145 O 0.88674 0.15878 0.95361 0.0
O146 O 0.86923 0.14643 0.04191 0.0
O147 O 0.89661 0.13703 0.03769 0.0
O148 O 0.85147 0.14617 0.96479 0.0
O149 O 0.85923 0.12224 0.93084 0.0
O150 O 0.87826 0.10655 0.98614 0.0
O151 O 0.87509 0.09447 0.91181 0.0
H152 H 0.89786 0.1131 0.76181 0.0
H153 H 0.90129 0.11598 0.68392 0.0
H154 H 0.8436 0.11768 0.65983 0.0
H155 H 0.84031 0.11439 0.7372 0.0
H156 H 0.85481 0.13626 0.10743 0.0
H157 H 0.85424 0.13059 0.18396 0.0
H158 H 0.91223 0.13136 0.19758 0.0
H159 H 0.91273 0.13753 0.12124 0.0
La160 La 0.14904 0.38769 0.93578 0.0
La161 La 0.13387 0.38768 0.8453 0.0
C162 C 0.15739 0.39428 0.01867 0.0
C163 C 0.15187 0.39271 0.064 0.0
C164 C 0.15259 0.37631 0.08126 0.0
C165 C 0.15028 0.37552 0.12616 0.0
C166 C 0.14729 0.39111 0.15531 0.0
C167 C 0.14598 0.40741 0.13757 0.0
C168 C 0.1483 0.40819 0.0927 0.0
C169 C 0.14737 0.35505 0.89036 0.0
C170 C 0.10592 0.38404 0.91295 0.0
C171 C 0.12573 0.38171 0.76242 0.0
C172 C 0.13197 0.38343 0.71785 0.0
C173 C 0.13036 0.39959 0.69963 0.0
C174 C 0.13356 0.40033 0.6552 0.0
C175 C 0.13829 0.38491 0.62753 0.0
C176 C 0.14051 0.36892 0.64627 0.0
C177 C 0.13736 0.36819 0.69068 0.0
C178 C 0.13519 0.41975 0.8944 0.0
C179 C 0.17649 0.39058 0.8631 0.0
O180 O 0.16166 0.37976 0.99381 0.0
O181 O 0.14897 0.40549 0.99536 0.0
O182 O 0.16032 0.36139 0.91844 0.0
O183 O 0.13549 0.36704 0.88862 0.0
O184 O 0.11935 0.38866 0.94363 0.0
O185 O 0.10927 0.38004 0.87115 0.0
O186 O 0.12143 0.39618 0.78761 0.0
O187 O 0.13375 0.37018 0.78554 0.0
O188 O 0.12222 0.41398 0.86559 0.0
O189 O 0.14724 0.40798 0.89358 0.0
O190 O 0.16251 0.38707 0.83419 0.0
O191 O 0.17432 0.39337 0.90621 0.0
H192 H 0.15556 0.3641 0.06047 0.0
H193 H 0.15158 0.36273 0.13834 0.0
H194 H 0.14339 0.41969 0.15851 0.0
H195 H 0.14787 0.42107 0.08074 0.0
H196 H 0.12601 0.41158 0.71921 0.0
H197 H 0.13155 0.41287 0.64206 0.0
H198 H 0.14443 0.35682 0.62639 0.0
H199 H 0.13856 0.35547 0.70336 0.0
La200 La 0.86902 0.88629 0.09275 0.0
La201 La 0.88482 0.89406 0.18399 0.0
C202 C 0.85984 0.88616 1.0108 0.0
C203 C 0.8661 0.88639 0.96557 0.0
C204 C 0.86433 0.87089 0.93458 0.0
C205 C 0.86728 0.87137 0.88996 0.0
C206 C 0.87188 0.88743 0.87457 0.0
C207 C 0.87433 0.90282 0.90604 0.0
C208 C 0.87147 0.9023 0.95084 0.0
C209 C 0.87024 0.85765 0.13514 0.0
C210 C 0.91214 0.88605 0.11378 0.0
C211 C 0.89425 0.89658 0.26637 0.0
C212 C 0.88832 0.89579 0.31173 0.0
C213 C 0.88774 0.91156 0.34162 0.0
C214 C 0.88503 0.911 0.38636 0.0
C215 C 0.88292 0.89462 0.40282 0.0
C216 C 0.88291 0.87885 0.37256 0.0
C217 C 0.88565 0.87941 0.32773 0.0
C218 C 0.88329 0.92188 0.13747 0.0
C219 C 0.84232 0.89146 0.16779 0.0
O220 O 0.86256 0.87179 0.02981 0.0
O221 O 0.86161 0.90062 0.03948 0.0
O222 O 0.85729 0.86161 0.10757 0.0
O223 O 0.88238 0.86964 0.13792 0.0
O224 O 0.89846 0.88805 0.08428 0.0
O225 O 0.90944 0.88568 0.15567 0.0
O226 O 0.88913 0.91007 0.24587 0.0
O227 O 0.8947 0.8818 0.23895 0.0
O228 O 0.89665 0.9184 0.16446 0.0
O229 O 0.87127 0.91018 0.13807 0.0
O230 O 0.85669 0.88974 0.19477 0.0
O231 O 0.84391 0.89253 0.12523 0.0
H232 H 0.86008 0.85842 0.94456 0.0
H233 H 0.86568 0.85909 0.86739 0.0
H234 H 0.87776 0.9155 0.89588 0.0
H235 H 0.87286 0.91455 0.9736 0.0
H236 H 0.88996 0.92439 0.33071 0.0
H237 H 0.88483 0.92347 0.40822 0.0
H238 H 0.88151 0.86595 0.3838 0.0
H239 H 0.88628 0.86695 0.306 0.0
La240 La 0.37813 0.62201 0.36328 0.0
La241 La 0.37916 0.63725 0.46328 0.0
C242 C 0.36625 0.61338 0.28367 0.0
C243 C 0.36945 0.6165 0.23769 0.0
C244 C 0.38217 0.60652 0.21342 0.0
C245 C 0.3838 0.60829 0.16875 0.0
C246 C 0.37268 0.61999 0.14694 0.0
C247 C 0.36017 0.63017 0.17152 0.0
C248 C 0.35854 0.6284 0.21614 0.0
C249 C 0.4122 0.62823 0.39476 0.0
C250 C 0.3823 0.66434 0.39599 0.0
C251 C 0.38598 0.64527 0.54601 0.0
C252 C 0.38311 0.63959 0.58989 0.0
C253 C 0.37063 0.64868 0.61663 0.0
C254 C 0.36926 0.64522 0.66018 0.0
C255 C 0.38043 0.63264 0.67852 0.0
C256 C 0.39269 0.62326 0.65144 0.0
C257 C 0.39404 0.62671 0.60774 0.0
C258 C 0.34718 0.63495 0.41714 0.0
C259 C 0.37741 0.59485 0.4364 0.0
O260 O 0.37805 0.604 0.30469 0.0
O261 O 0.36016 0.6268 0.30992 0.0
O262 O 0.407 0.62173 0.35447 0.0
O263 O 0.39811 0.63108 0.41498 0.0
O264 O 0.37646 0.65151 0.36387 0.0
O265 O 0.38748 0.66076 0.43622 0.0
O266 O 0.37203 0.65102 0.5236 0.0
O267 O 0.39669 0.63588 0.52012 0.0
O268 O 0.35164 0.64718 0.44997 0.0
O269 O 0.35997 0.62418 0.41357 0.0
O270 O 0.37912 0.60869 0.46792 0.0
O271 O 0.37553 0.5969 0.39347 0.0
H272 H 0.39062 0.59701 0.2286 0.0
H273 H 0.39342 0.60003 0.15096 0.0
H274 H 0.35153 0.63951 0.15625 0.0
H275 H 0.34844 0.63614 0.23356 0.0
H276 H 0.36225 0.65893 0.60435 0.0
H277 H 0.35986 0.65294 0.68 0.0
H278 H 0.40139 0.61334 0.66413 0.0
H279 H 0.40394 0.61957 0.58836 0.0
La280 La 0.64574 0.13487 0.59601 0.0
La281 La 0.63232 0.13457 0.68207 0.0
C282 C 0.65303 0.12865 0.51561 0.0
C283 C 0.64679 0.12954 0.46853 0.0
C284 C 0.646 0.14584 0.45086 0.0
C285 C 0.64319 0.14614 0.40504 0.0
C286 C 0.64112 0.13016 0.37558 0.0
C287 C 0.64121 0.11393 0.39362 0.0
C288 C 0.64413 0.11364 0.43936 0.0
C289 C 0.64523 0.16745 0.64191 0.0
C290 C 0.60328 0.1385 0.60772 0.0
C291 C 0.62472 0.13995 0.76225 0.0
C292 C 0.63038 0.13783 0.80905 0.0
C293 C 0.62875 0.12137 0.82537 0.0
C294 C 0.63123 0.12031 0.87096 0.0
C295 C 0.63523 0.13569 0.90145 0.0
C296 C 0.63749 0.152 0.88484 0.0
C297 C 0.63506 0.15304 0.83936 0.0
C298 C 0.63283 0.10246 0.63293 0.0
C299 C 0.67455 0.13233 0.6755 0.0
O300 O 0.65683 0.14356 0.54131 0.0
O301 O 0.64556 0.11698 0.53671 0.0
O302 O 0.65776 0.1612 0.61754 0.0
O303 O 0.63322 0.15542 0.63978 0.0
O304 O 0.61583 0.13306 0.58037 0.0
O305 O 0.60786 0.14326 0.64995 0.0
O306 O 0.61972 0.1258 0.73476 0.0
O307 O 0.63354 0.15133 0.74305 0.0
O308 O 0.6202 0.10813 0.65775 0.0
O309 O 0.64489 0.11439 0.63742 0.0
O310 O 0.66119 0.13625 0.70082 0.0
O311 O 0.67138 0.12892 0.63192 0.0
H312 H 0.64826 0.15836 0.4722 0.0
H313 H 0.64342 0.15891 0.39267 0.0
H314 H 0.63935 0.10134 0.37234 0.0
H315 H 0.64501 0.10089 0.45185 0.0
H316 H 0.62492 0.1094 0.80314 0.0
H317 H 0.62924 0.10755 0.88242 0.0
H318 H 0.64084 0.16408 0.90712 0.0
H319 H 0.63621 0.16596 0.82803 0.0
La320 La 0.88168 0.38555 0.84711 0.0
La321 La 0.87064 0.38631 0.93509 0.0
C322 C 0.88751 0.37948 0.76584 0.0
C323 C 0.88216 0.38327 0.72014 0.0
C324 C 0.88836 0.3987 0.70458 0.0
C325 C 0.88613 0.40059 0.65949 0.0
C326 C 0.87772 0.38708 0.62871 0.0
C327 C 0.87087 0.372 0.64461 0.0
C328 C 0.87313 0.3701 0.68968 0.0
C329 C 0.88098 0.41846 0.893 0.0
C330 C 0.84002 0.38745 0.85911 0.0
C331 C 0.86514 0.39356 1.01638 0.0
C332 C 0.8707 0.39018 0.0623 0.0
C333 C 0.86397 0.37534 0.07943 0.0
C334 C 0.86636 0.37398 0.12475 0.0
C335 C 0.87542 0.38748 0.15431 0.0
C336 C 0.88287 0.4019 0.13681 0.0
C337 C 0.8805 0.40323 0.09143 0.0
C338 C 0.87094 0.35309 0.89217 0.0
C339 C 0.91266 0.38248 0.91756 0.0
O340 O 0.89535 0.39216 0.79385 0.0
O341 O 0.87676 0.3698 0.78507 0.0
O342 O 0.89274 0.41289 0.86569 0.0
O343 O 0.86959 0.40612 0.89198 0.0
O344 O 0.85258 0.38203 0.8325 0.0
O345 O 0.84462 0.39303 0.90146 0.0
O346 O 0.85718 0.38063 0.98946 0.0
O347 O 0.87578 0.4029 0.99597 0.0
O348 O 0.85923 0.35943 0.91879 0.0
O349 O 0.88256 0.36524 0.89135 0.0
O350 O 0.90081 0.3883 0.94651 0.0
O351 O 0.90689 0.37698 0.87634 0.0
H352 H 0.89555 0.40906 0.72692 0.0
H353 H 0.89134 0.41252 0.64863 0.0
H354 H 0.86451 0.36122 0.62197 0.0
H355 H 0.86848 0.3579 0.70038 0.0
H356 H 0.85624 0.36506 0.05813 0.0
H357 H 0.86073 0.36249 0.13677 0.0
H358 H 0.88982 0.41264 0.1584 0.0
H359 H 0.88568 0.4149 0.07938 0.0
La360 La 0.38526 0.13025 0.69192 0.0
La361 La 0.36932 0.1311 0.60107 0.0
C362 C 0.39401 0.1361 0.77454 0.0
C363 C 0.38812 0.13453 0.81951 0.0
C364 C 0.38871 0.11816 0.83693 0.0
C365 C 0.38575 0.11742 0.88152 0.0
C366 C 0.38227 0.13303 0.9101 0.0
C367 C 0.38115 0.14928 0.89218 0.0
C368 C 0.38408 0.15002 0.84765 0.0
C369 C 0.38339 0.09857 0.64174 0.0
C370 C 0.34257 0.12777 0.67454 0.0
C371 C 0.36028 0.12566 0.51844 0.0
C372 C 0.36595 0.12667 0.47304 0.0
C373 C 0.36725 0.14308 0.45629 0.0
C374 C 0.36975 0.14362 0.41139 0.0
C375 C 0.37094 0.12778 0.38178 0.0
C376 C 0.37016 0.11141 0.39903 0.0
C377 C 0.36767 0.11088 0.44387 0.0
C378 C 0.37132 0.16293 0.65021 0.0
C379 C 0.41241 0.13394 0.62213 0.0
O380 O 0.3979 0.12154 0.74912 0.0
O381 O 0.38597 0.14774 0.75179 0.0
O382 O 0.39616 0.10371 0.67171 0.0
O383 O 0.37159 0.11059 0.64258 0.0
O384 O 0.35668 0.1312 0.70316 0.0
O385 O 0.34444 0.12507 0.63131 0.0
O386 O 0.3576 0.14054 0.5439 0.0
O387 O 0.36749 0.11357 0.54101 0.0
O388 O 0.35813 0.15724 0.62205 0.0
O389 O 0.3832 0.15093 0.64929 0.0
O390 O 0.39876 0.1297 0.59194 0.0
O391 O 0.40954 0.13768 0.66434 0.0
H392 H 0.39202 0.10597 0.81655 0.0
H393 H 0.38691 0.10467 0.89398 0.0
H394 H 0.37822 0.16156 0.91273 0.0
H395 H 0.38373 0.16287 0.83557 0.0
H396 H 0.36572 0.15555 0.4775 0.0
H397 H 0.37003 0.15651 0.39963 0.0
H398 H 0.37124 0.09891 0.37772 0.0
H399 H 0.36649 0.09801 0.45546 0.0
La400 La 0.63094 0.62549 0.35337 0.0
La401 La 0.64607 0.63153 0.45015 0.0
C402 C 0.622 0.62268 0.27112 0.0
C403 C 0.62579 0.6262 0.22612 0.0
C404 C 0.612 0.62299 0.19222 0.0
C405 C 0.61515 0.62445 0.14831 0.0
C406 C 0.63224 0.62923 0.13695 0.0
C407 C 0.64599 0.63298 0.17124 0.0
C408 C 0.64282 0.63137 0.21542 0.0
C409 C 0.63163 0.59713 0.39818 0.0
C410 C 0.67293 0.63039 0.37368 0.0
C411 C 0.65547 0.62404 0.5269 0.0
C412 C 0.65251 0.62838 0.57478 0.0
C413 C 0.66716 0.63371 0.60527 0.0
C414 C 0.66536 0.63549 0.651 0.0
C415 C 0.64888 0.6318 0.66755 0.0
C416 C 0.63408 0.62694 0.63698 0.0
C417 C 0.63584 0.62529 0.59122 0.0
C418 C 0.64042 0.66358 0.42385 0.0
C419 C 0.60339 0.63389 0.42426 0.0
O420 O 0.63219 0.61127 0.2899 0.0
O421 O 0.61716 0.63596 0.29965 0.0
O422 O 0.61896 0.60059 0.36941 0.0
O423 O 0.6435 0.60915 0.40001 0.0
O424 O 0.65872 0.63233 0.34629 0.0
O425 O 0.67119 0.62777 0.41545 0.0
O426 O 0.66392 0.63576 0.50766 0.0
O427 O 0.64241 0.61596 0.50074 0.0
O428 O 0.64639 0.66067 0.46317 0.0
O429 O 0.63751 0.64841 0.40093 0.0
O430 O 0.61641 0.6312 0.45504 0.0
O431 O 0.60675 0.63471 0.38282 0.0
H432 H 0.59876 0.61896 0.19961 0.0
H433 H 0.60415 0.62176 0.12311 0.0
H434 H 0.65933 0.63663 0.16376 0.0
H435 H 0.65369 0.63382 0.24096 0.0
H436 H 0.68022 0.63595 0.59372 0.0
H437 H 0.6771 0.6391 0.67341 0.0
H438 H 0.62113 0.62416 0.64844 0.0
H439 H 0.62426 0.62105 0.56882 0.0
La440 La 0.13511 0.88718 0.05693 0.0
La441 La 0.13633 0.90139 0.1579 0.0
C442 C 0.12766 0.87953 0.97439 0.0
C443 C 0.13005 0.88543 0.93057 0.0
C444 C 0.14678 0.88439 0.91212 0.0
C445 C 0.14823 0.88748 0.86826 0.0
C446 C 0.13299 0.89166 0.84159 0.0
C447 C 0.11638 0.89327 0.86062 0.0
C448 C 0.11494 0.89014 0.90443 0.0
C449 C 0.16727 0.88982 0.10214 0.0
C450 C 0.13555 0.92952 0.08637 0.0
C451 C 0.14833 0.91018 0.23726 0.0
C452 C 0.14561 0.90695 0.2832 0.0
C453 C 0.12876 0.90878 0.30087 0.0
C454 C 0.127 0.90686 0.34543 0.0
C455 C 0.14202 0.90303 0.37333 0.0
C456 C 0.15878 0.90094 0.35518 0.0
C457 C 0.16053 0.90291 0.31078 0.0
C458 C 0.10255 0.89347 0.12658 0.0
C459 C 0.13298 0.85933 0.12302 0.0
O460 O 0.14175 0.87363 0.99605 0.0
O461 O 0.11717 0.8889 1.00088 0.0
O462 O 0.16297 0.87791 0.06849 0.0
O463 O 0.15423 0.90024 0.10702 0.0
O464 O 0.13417 0.91596 0.05396 0.0
O465 O 0.1377 0.92698 0.12899 0.0
O466 O 0.13601 0.91916 0.21669 0.0
O467 O 0.15463 0.8969 0.211 0.0
O468 O 0.10745 0.89928 0.16748 0.0
O469 O 0.11664 0.89221 0.10624 0.0
O470 O 0.13962 0.8719 0.15492 0.0
O471 O 0.12701 0.86333 0.08362 0.0
H472 H 0.15872 0.8807 0.9311 0.0
H473 H 0.16129 0.88638 0.85507 0.0
H474 H 0.10431 0.89625 0.84113 0.0
H475 H 0.10182 0.89079 0.9174 0.0
H476 H 0.11698 0.91187 0.28045 0.0
H477 H 0.11384 0.90834 0.358 0.0
H478 H 0.1707 0.89824 0.3756 0.0
H479 H 0.1737 0.90158 0.29813 0.0
La480 La 0.88407 0.63276 0.17704 0.0
La481 La 0.8684 0.63245 0.08669 0.0
C482 C 0.89261 0.63905 0.25981 0.0
C483 C 0.8872 0.63644 0.3047 0.0
C484 C 0.89172 0.6208 0.3234 0.0
C485 C 0.88907 0.61951 0.3679 0.0
C486 C 0.88193 0.63385 0.39525 0.0
C487 C 0.87695 0.64928 0.37611 0.0
C488 C 0.87961 0.65058 0.33163 0.0
C489 C 0.88227 0.60034 0.1292 0.0
C490 C 0.84157 0.62951 0.16051 0.0
C491 C 0.85987 0.62586 1.00383 0.0
C492 C 0.86526 0.62803 0.95868 0.0
C493 C 0.86181 0.64394 0.94022 0.0
C494 C 0.86432 0.64496 0.89553 0.0
C495 C 0.87029 0.63011 0.86782 0.0
C496 C 0.87418 0.61436 0.88663 0.0
C497 C 0.87162 0.61332 0.9313 0.0
C498 C 0.87002 0.66517 0.13199 0.0
C499 C 0.91144 0.63608 0.10808 0.0
O500 O 0.89801 0.6252 0.2341 0.0
O501 O 0.88317 0.64986 0.23724 0.0
O502 O 0.89501 0.60596 0.15877 0.0
O503 O 0.87046 0.61233 0.12921 0.0
O504 O 0.8556 0.63377 0.18874 0.0
O505 O 0.84358 0.62608 0.11737 0.0
O506 O 0.8549 0.63999 0.02913 0.0
O507 O 0.869 0.615 0.02679 0.0
O508 O 0.85704 0.65867 0.10423 0.0
O509 O 0.88207 0.6533 0.1333 0.0
O510 O 0.8979 0.6313 0.07795 0.0
O511 O 0.90831 0.64047 0.14989 0.0
H512 H 0.89779 0.60969 0.30403 0.0
H513 H 0.89284 0.60729 0.38099 0.0
H514 H 0.87163 0.66072 0.39595 0.0
H515 H 0.87629 0.66295 0.31873 0.0
H516 H 0.85667 0.65551 0.95994 0.0
H517 H 0.86139 0.6574 0.88257 0.0
H518 H 0.87851 0.60256 0.86633 0.0
H519 H 0.87404 0.60075 0.94404 0.0
La520 La 0.1292 0.12817 0.85979 0.0
La521 La 0.14438 0.13654 0.95184 0.0
C522 C 0.1201 0.12593 0.77737 0.0
C523 C 0.1262 0.12656 0.73224 0.0
C524 C 0.12302 0.11165 0.69995 0.0
C525 C 0.12621 0.11243 0.65563 0.0
C526 C 0.13265 0.12819 0.64206 0.0
C527 C 0.13631 0.14301 0.67472 0.0
C528 C 0.13309 0.14222 0.7192 0.0
C529 C 0.13042 0.10035 0.90617 0.0
C530 C 0.17161 0.13089 0.87776 0.0
C531 C 0.15363 0.13819 0.03417 0.0
C532 C 0.14794 0.13735 0.07962 0.0
C533 C 0.15086 0.15233 0.11181 0.0
C534 C 0.14819 0.1514 0.15636 0.0
C535 C 0.14251 0.13541 0.17031 0.0
C536 C 0.13914 0.12049 0.13778 0.0
C537 C 0.14188 0.12142 0.09308 0.0
C538 C 0.14344 0.16463 0.90745 0.0
C539 C 0.10139 0.13561 0.92931 0.0
O540 O 0.12487 0.11231 0.79773 0.0
O541 O 0.11992 0.14072 0.80483 0.0
O542 O 0.11771 0.10339 0.87697 0.0
O543 O 0.14233 0.11235 0.90733 0.0
O544 O 0.15743 0.13224 0.84997 0.0
O545 O 0.16974 0.13018 0.92038 0.0
O546 O 0.14886 0.15197 1.0145 0.0
O547 O 0.15355 0.12356 1.00616 0.0
O548 O 0.15627 0.16096 0.93565 0.0
O549 O 0.1313 0.15269 0.90528 0.0
O550 O 0.11498 0.13391 0.9593 0.0
O551 O 0.10431 0.13604 0.88755 0.0
H552 H 0.11743 0.09949 0.70872 0.0
H553 H 0.12293 0.1008 0.63172 0.0
H554 H 0.14151 0.15532 0.66591 0.0
H555 H 0.13561 0.15402 0.74309 0.0
H556 H 0.15587 0.16469 0.10276 0.0
H557 H 0.15125 0.16313 0.1801 0.0
H558 H 0.13453 0.108 0.14684 0.0
H559 H 0.13964 0.10955 0.06931 0.0
La560 La 0.63292 0.38687 0.56749 0.0
La561 La 0.63309 0.40184 0.66687 0.0
C562 C 0.62578 0.37893 0.48491 0.0
C563 C 0.62905 0.38409 0.44075 0.0
C564 C 0.64003 0.37333 0.41304 0.0
C565 C 0.64142 0.37629 0.36916 0.0
C566 C 0.63174 0.39003 0.35141 0.0
C567 C 0.62119 0.4012 0.37956 0.0
C568 C 0.6198 0.39823 0.42362 0.0
C569 C 0.66476 0.38906 0.61415 0.0
C570 C 0.6345 0.42935 0.59413 0.0
C571 C 0.64407 0.41121 0.74687 0.0
C572 C 0.64058 0.40813 0.79271 0.0
C573 C 0.62952 0.41974 0.81825 0.0
C574 C 0.62771 0.41802 0.86284 0.0
C575 C 0.63698 0.40469 0.88334 0.0
C576 C 0.64781 0.39289 0.85753 0.0
C577 C 0.64964 0.39463 0.81296 0.0
C578 C 0.59932 0.39365 0.6351 0.0
C579 C 0.63055 0.35959 0.63449 0.0
O580 O 0.63926 0.37234 0.50731 0.0
O581 O 0.6157 0.38919 0.51071 0.0
O582 O 0.66038 0.37701 0.5808 0.0
O583 O 0.65198 0.39993 0.61795 0.0
O584 O 0.63432 0.41548 0.56265 0.0
O585 O 0.63446 0.42725 0.63692 0.0
O586 O 0.63206 0.42003 0.72494 0.0
O587 O 0.65089 0.39801 0.72132 0.0
O588 O 0.60421 0.39966 0.67583 0.0
O589 O 0.61348 0.39218 0.61477 0.0
O590 O 0.63681 0.37249 0.66592 0.0
O591 O 0.62463 0.3632 0.59474 0.0
H592 H 0.64719 0.36222 0.42494 0.0
H593 H 0.64994 0.36761 0.34891 0.0
H594 H 0.61342 0.4118 0.36707 0.0
H595 H 0.61105 0.40669 0.44375 0.0
H596 H 0.62251 0.43043 0.80403 0.0
H597 H 0.61907 0.42722 0.88133 0.0
H598 H 0.65537 0.38262 0.87212 0.0
H599 H 0.65853 0.38563 0.79468 0.0
La600 La 0.38043 0.88644 0.35024 0.0
La601 La 0.36823 0.89007 0.44497 0.0
C602 C 0.38673 0.8779 0.2699 0.0
C603 C 0.38221 0.88203 0.22398 0.0
C604 C 0.39259 0.89442 0.20595 0.0
C605 C 0.39012 0.89647 0.16098 0.0
C606 C 0.37729 0.8861 0.13256 0.0
C607 C 0.36659 0.87405 0.15088 0.0
C608 C 0.36906 0.87201 0.19589 0.0
C609 C 0.38026 0.91951 0.39465 0.0
C610 C 0.33855 0.88882 0.36257 0.0
C611 C 0.3613 0.90293 0.52228 0.0
C612 C 0.36443 0.89922 0.56897 0.0
C613 C 0.35107 0.89067 0.58889 0.0
C614 C 0.35311 0.8886 0.6339 0.0
C615 C 0.36844 0.8953 0.66043 0.0
C616 C 0.38195 0.9036 0.64044 0.0
C617 C 0.38001 0.90545 0.59525 0.0
C618 C 0.37302 0.85541 0.41751 0.0
C619 C 0.4094 0.88395 0.42624 0.0
O620 O 0.39607 0.88973 0.29751 0.0
O621 O 0.37451 0.87012 0.28951 0.0
O622 O 0.3914 0.91401 0.36552 0.0
O623 O 0.36914 0.90711 0.39528 0.0
O624 O 0.35147 0.88591 0.3353 0.0
O625 O 0.34203 0.89226 0.40633 0.0
O626 O 0.35058 0.89196 0.49558 0.0
O627 O 0.37507 0.90798 0.50252 0.0
O628 O 0.3679 0.86198 0.45567 0.0
O629 O 0.3753 0.86851 0.39648 0.0
O630 O 0.39807 0.89234 0.45338 0.0
O631 O 0.40369 0.87676 0.38595 0.0
H632 H 0.40309 0.90213 0.22627 0.0
H633 H 0.39879 0.90571 0.14816 0.0
H634 H 0.35642 0.86599 0.13029 0.0
H635 H 0.36097 0.86218 0.20839 0.0
H636 H 0.33879 0.88589 0.5699 0.0
H637 H 0.34239 0.88228 0.64829 0.0
H638 H 0.39398 0.90879 0.65987 0.0
H639 H 0.39057 0.91212 0.58116 0.0
H640 H 0.12393 0.65387 0.81494 0.0
H641 H 0.12338 0.65525 0.73532 0.0
H642 H 0.15534 0.60765 0.71937 0.0
H643 H 0.15642 0.6065 0.79897 0.0
H644 H 0.16757 0.63166 0.67239 0.0
H645 H 0.10982 0.60684 0.68906 0.0
H646 H 0.08036 0.60546 0.71979 0.0
H647 H 0.06555 0.65499 0.67302 0.0
H648 H 0.09504 0.65678 0.64252 0.0
H649 H 0.15384 0.6127 0.43718 0.0
H650 H 0.15443 0.61122 0.5168 0.0
H651 H 0.12287 0.65908 0.53336 0.0
H652 H 0.1218 0.66037 0.45381 0.0
H653 H 0.11044 0.63486 0.57996 0.0
H654 H 0.16823 0.65967 0.56334 0.0
H655 H 0.19767 0.66098 0.53247 0.0
H656 H 0.21239 0.61139 0.57904 0.0
H657 H 0.18291 0.60966 0.60968 0.0
C658 C 0.13092 0.64373 0.79458 0.0
C659 C 0.14013 0.63001 0.81363 0.0
C660 C 0.13046 0.64445 0.74888 0.0
C661 C 0.13915 0.63144 0.72099 0.0
C662 C 0.14846 0.61782 0.73996 0.0
C663 C 0.14891 0.61708 0.78559 0.0
C664 C 0.13874 0.63208 0.67221 0.0
C665 C 0.15505 0.63211 0.65213 0.0
C666 C 0.12246 0.63308 0.64564 0.0
C667 C 0.10471 0.63203 0.66391 0.0
C668 C 0.10034 0.61751 0.68565 0.0
C669 C 0.08362 0.61664 0.70297 0.0
C670 C 0.07111 0.63015 0.69847 0.0
C671 C 0.07527 0.64454 0.67654 0.0
C672 C 0.09198 0.64549 0.6592 0.0
C673 C 0.14695 0.62288 0.45769 0.0
C674 C 0.13787 0.63672 0.43886 0.0
C675 C 0.14743 0.6221 0.50338 0.0
C676 C 0.13885 0.63515 0.53141 0.0
C677 C 0.12965 0.64888 0.51264 0.0
C678 C 0.12921 0.64969 0.46705 0.0
C679 C 0.13927 0.63444 0.58016 0.0
C680 C 0.12296 0.6344 0.60023 0.0
C681 C 0.15555 0.63343 0.60671 0.0
C682 C 0.17329 0.63444 0.58839 0.0
C683 C 0.17768 0.64897 0.56668 0.0
C684 C 0.19439 0.6498 0.54928 0.0
C685 C 0.20687 0.63625 0.55368 0.0
C686 C 0.20269 0.62186 0.57559 0.0
C687 C 0.18599 0.62096 0.59301 0.0
H688 H 0.2198 0.63692 0.5402 0.0
H689 H 0.05817 0.62946 0.71189 0.0
H690 H 0.6157 0.86251 0.06563 0.0
H691 H 0.61793 0.86364 0.98685 0.0
H692 H 0.65356 0.90914 0.01753 0.0
H693 H 0.65138 0.9081 0.09667 0.0
H694 H 0.63019 0.9146 0.95164 0.0
H695 H 0.66879 0.8663 0.98044 0.0
H696 H 0.67727 0.8379 1.00755 0.0
H697 H 0.63621 0.81035 0.91834 0.0
H698 H 0.62731 0.83864 0.89111 0.0
H699 H 0.66069 0.91223 0.73563 0.0
H700 H 0.65866 0.9112 0.8145 0.0
H701 H 0.62105 0.8673 0.78472 0.0
H702 H 0.62278 0.86839 0.70549 0.0
H703 H 0.64567 0.86109 0.85004 0.0
H704 H 0.60728 0.90987 0.82143 0.0
H705 H 0.59945 0.9384 0.79417 0.0
H706 H 0.64103 0.96519 0.88319 0.0
H707 H 0.64928 0.93676 0.91056 0.0
C708 C 0.62423 0.87264 0.05583 0.0
C709 C 0.63348 0.88512 0.08798 0.0
C710 C 0.62547 0.87329 1.01049 0.0
C711 C 0.63613 0.88632 0.99576 0.0
C712 C 0.64523 0.89893 0.02772 0.0
C713 C 0.64395 0.89833 0.07315 0.0
C714 C 0.63757 0.88691 0.94718 0.0
C715 C 0.63384 0.90293 0.92964 0.0
C716 C 0.64195 0.87166 0.91781 0.0
C717 C 0.64727 0.85462 0.93405 0.0
C718 C 0.66148 0.85421 0.96685 0.0
C719 C 0.66637 0.83812 0.98219 0.0
C720 C 0.65725 0.82234 0.96476 0.0
C721 C 0.64324 0.82259 0.93186 0.0
C722 C 0.63828 0.83864 0.91643 0.0
C723 C 0.65174 0.9025 0.74559 0.0
C724 C 0.64179 0.89049 0.71361 0.0
C725 C 0.65065 0.90189 0.79099 0.0
C726 C 0.63954 0.8893 0.80598 0.0
C727 C 0.62975 0.87715 0.77426 0.0
C728 C 0.6308 0.87776 0.72877 0.0
C729 C 0.63826 0.88875 0.85458 0.0
C730 C 0.64202 0.87274 0.87209 0.0
C731 C 0.634 0.90403 0.88396 0.0
C732 C 0.62901 0.92115 0.86773 0.0
C733 C 0.61484 0.92182 0.83496 0.0
C734 C 0.61031 0.93798 0.81952 0.0
C735 C 0.61976 0.95359 0.83685 0.0
C736 C 0.63373 0.95308 0.86975 0.0
C737 C 0.63833 0.93695 0.88526 0.0
H738 H 0.61624 0.96608 0.82486 0.0
H739 H 0.66107 0.8099 0.97668 0.0
H740 H 0.40262 0.39435 0.32836 0.0
H741 H 0.40454 0.3978 0.25028 0.0
H742 H 0.34832 0.3845 0.22396 0.0
H743 H 0.34617 0.38143 0.3018 0.0
H744 H 0.36859 0.36553 0.16386 0.0
H745 H 0.36386 0.42741 0.22784 0.0
H746 H 0.37335 0.45437 0.27881 0.0
H747 H 0.42481 0.4531 0.22485 0.0
H748 H 0.41572 0.42599 0.174 0.0
H749 H 0.35194 0.38604 0.94585 0.0
H750 H 0.35202 0.38433 0.02509 0.0
H751 H 0.40555 0.40683 0.04501 0.0
H752 H 0.40513 0.40928 0.96576 0.0
H753 H 0.38852 0.42068 0.10928 0.0
H754 H 0.39522 0.36025 0.04654 0.0
H755 H 0.38817 0.33252 0.99615 0.0
H756 H 0.33668 0.32947 0.04842 0.0
H757 H 0.34331 0.35733 0.09871 0.0
C758 C 0.39057 0.39245 0.30621 0.0
C759 C 0.37426 0.38747 0.32176 0.0
C760 C 0.39171 0.39437 0.26137 0.0
C761 C 0.37657 0.39141 0.23095 0.0
C762 C 0.36024 0.38673 0.24652 0.0
C763 C 0.35907 0.3849 0.29122 0.0
C764 C 0.37769 0.39265 0.18273 0.0
C765 C 0.37274 0.37767 0.15191 0.0
C766 C 0.38378 0.40822 0.16695 0.0
C767 C 0.38917 0.42457 0.19742 0.0
C768 C 0.37725 0.43279 0.22709 0.0
C769 C 0.38254 0.44812 0.25592 0.0
C770 C 0.39969 0.4554 0.25514 0.0
C771 C 0.41155 0.44742 0.22546 0.0
C772 C 0.40633 0.43209 0.19662 0.0
C773 C 0.36379 0.39049 0.96708 0.0
C774 C 0.3786 0.39763 0.94935 0.0
C775 C 0.36387 0.38945 1.01254 0.0
C776 C 0.37895 0.39508 0.04149 0.0
C777 C 0.39373 0.40234 0.02376 0.0
C778 C 0.39352 0.4037 0.97834 0.0
C779 C 0.37918 0.39359 0.09009 0.0
C780 C 0.38441 0.40849 0.12105 0.0
C781 C 0.37372 0.3778 0.10612 0.0
C782 C 0.3697 0.36097 0.07612 0.0
C783 C 0.38234 0.35373 0.04709 0.0
C784 C 0.37843 0.33798 0.01857 0.0
C785 C 0.36197 0.32926 0.01901 0.0
C786 C 0.34941 0.33625 0.04808 0.0
C787 C 0.35325 0.35201 0.07663 0.0
H788 H 0.35896 0.31707 0.99689 0.0
H789 H 0.40379 0.46725 0.27744 0.0
H790 H 0.89784 0.13569 0.62742 0.0
H791 H 0.9005 0.13754 0.54885 0.0
H792 H 0.85433 0.1029 0.51494 0.0
H793 H 0.85194 0.1005 0.59316 0.0
H794 H 0.87947 0.09366 0.45951 0.0
H795 H 0.85182 0.14876 0.51423 0.0
H796 H 0.84932 0.17695 0.56394 0.0
H797 H 0.899 0.19558 0.52358 0.0
H798 H 0.90192 0.16738 0.47406 0.0
H799 H 0.86002 0.11035 0.23713 0.0
H800 H 0.85887 0.10802 0.31583 0.0
H801 H 0.90453 0.14354 0.3462 0.0
H802 H 0.90533 0.14651 0.26777 0.0
H803 H 0.88039 0.15235 0.40371 0.0
H804 H 0.9079 0.0976 0.34806 0.0
H805 H 0.91062 0.06938 0.29861 0.0
H806 H 0.8616 0.05004 0.34086 0.0
H807 H 0.85845 0.07825 0.39011 0.0
C808 C 0.88833 0.12831 0.60329 0.0
C809 C 0.87459 0.11803 0.61701 0.0
C810 C 0.88977 0.12953 0.55824 0.0
C811 C 0.87747 0.12056 0.52565 0.0
C812 C 0.86396 0.11003 0.5392 0.0
C813 C 0.8625 0.10882 0.58417 0.0
C814 C 0.87858 0.12213 0.47753 0.0
C815 C 0.87945 0.1065 0.44731 0.0
C816 C 0.87899 0.13886 0.46135 0.0
C817 C 0.87718 0.15589 0.49078 0.0
C818 C 0.86227 0.15882 0.51619 0.0
C819 C 0.86077 0.1748 0.5443 0.0
C820 C 0.87402 0.18803 0.54701 0.0
C821 C 0.88876 0.18531 0.5215 0.0
C822 C 0.89034 0.16934 0.49338 0.0
C823 C 0.86977 0.11777 0.26047 0.0
C824 C 0.88282 0.12857 0.24565 0.0
C825 C 0.86921 0.11628 0.30563 0.0
C826 C 0.88175 0.12542 0.3373 0.0
C827 C 0.89472 0.13627 0.32266 0.0
C828 C 0.89529 0.1378 0.27753 0.0
C829 C 0.88122 0.12387 0.38561 0.0
C830 C 0.88045 0.1395 0.41589 0.0
C831 C 0.88094 0.10714 0.40185 0.0
C832 C 0.88285 0.09011 0.37246 0.0
C833 C 0.89763 0.08738 0.34656 0.0
C834 C 0.89926 0.07138 0.31861 0.0
C835 C 0.88627 0.05794 0.31651 0.0
C836 C 0.87164 0.06046 0.34247 0.0
C837 C 0.86993 0.07645 0.37044 0.0
H838 H 0.88756 0.04556 0.29484 0.0
H839 H 0.87284 0.20039 0.56882 0.0
H840 H 0.13191 0.36515 0.19664 0.0
H841 H 0.131 0.36386 0.27589 0.0
H842 H 0.15889 0.41444 0.30448 0.0
H843 H 0.16049 0.41549 0.22536 0.0
H844 H 0.17224 0.39268 0.35942 0.0
H845 H 0.1127 0.41014 0.31364 0.0
H846 H 0.08376 0.40777 0.26864 0.0
H847 H 0.07357 0.35688 0.31031 0.0
H848 H 0.10257 0.35884 0.35513 0.0
H849 H 0.15335 0.41112 0.58659 0.0
H850 H 0.15497 0.41207 0.50726 0.0
H851 H 0.1289 0.36056 0.47877 0.0
H852 H 0.12682 0.35972 0.55787 0.0
H853 H 0.11474 0.38275 0.42404 0.0
H854 H 0.17413 0.36567 0.47123 0.0
H855 H 0.20264 0.36859 0.51794 0.0
H856 H 0.213 0.41908 0.47435 0.0
H857 H 0.18437 0.41662 0.42799 0.0
C858 C 0.13798 0.37597 0.21966 0.0
C859 C 0.14619 0.39048 0.20408 0.0
C860 C 0.13729 0.3753 0.26521 0.0
C861 C 0.14467 0.38917 0.29663 0.0
C862 C 0.15302 0.40357 0.28122 0.0
C863 C 0.15374 0.40425 0.2357 0.0
C864 C 0.14372 0.38866 0.3454 0.0
C865 C 0.15961 0.39074 0.37352 0.0
C866 C 0.12735 0.38576 0.3642 0.0
C867 C 0.10989 0.38456 0.33738 0.0
C868 C 0.10435 0.39839 0.31294 0.0
C869 C 0.08792 0.39713 0.28751 0.0
C870 C 0.07685 0.38216 0.28652 0.0
C871 C 0.08217 0.36845 0.31106 0.0
C872 C 0.09859 0.36963 0.33651 0.0
C873 C 0.14789 0.4 0.56351 0.0
C874 C 0.14002 0.38531 0.579 0.0
C875 C 0.14896 0.4005 0.518 0.0
C876 C 0.1422 0.38631 0.48667 0.0
C877 C 0.13426 0.37168 0.50203 0.0
C878 C 0.13325 0.37114 0.54749 0.0
C879 C 0.14324 0.38676 0.43797 0.0
C880 C 0.12737 0.38467 0.4099 0.0
C881 C 0.15961 0.38968 0.41927 0.0
C882 C 0.17701 0.39104 0.44645 0.0
C883 C 0.18242 0.37745 0.47182 0.0
C884 C 0.19861 0.37902 0.49823 0.0
C885 C 0.2096 0.39403 0.49919 0.0
C886 C 0.20446 0.40748 0.47362 0.0
C887 C 0.18825 0.406 0.44726 0.0
H888 H 0.22212 0.39523 0.51968 0.0
H889 H 0.06414 0.38122 0.26682 0.0
H890 H 0.85227 0.86864 0.80328 0.0
H891 H 0.85459 0.86978 0.72462 0.0
H892 H 0.89651 0.90956 0.75533 0.0
H893 H 0.89467 0.90818 0.8344 0.0
H894 H 0.87196 0.91843 0.69076 0.0
H895 H 0.90643 0.86677 0.7166 0.0
H896 H 0.91214 0.83761 0.74262 0.0
H897 H 0.86863 0.81419 0.65413 0.0
H898 H 0.86249 0.84329 0.62801 0.0
H899 H 0.90083 0.91532 0.47347 0.0
H900 H 0.89883 0.91424 0.55234 0.0
H901 H 0.86002 0.87135 0.52242 0.0
H902 H 0.86196 0.87235 0.44319 0.0
H903 H 0.88304 0.86411 0.58701 0.0
H904 H 0.84812 0.91526 0.56131 0.0
H905 H 0.84167 0.94432 0.53538 0.0
H906 H 0.8849 0.9686 0.62341 0.0
H907 H 0.89178 0.93962 0.64944 0.0
C908 C 0.86226 0.87744 0.79364 0.0
C909 C 0.8734 0.88819 0.8259 0.0
C910 C 0.86348 0.87814 0.74831 0.0
C911 C 0.87585 0.88963 0.73364 0.0
C912 C 0.88683 0.90057 0.76558 0.0
C913 C 0.8857 0.89981 0.81101 0.0
C914 C 0.8772 0.89027 0.68509 0.0
C915 C 0.87465 0.90659 0.66822 0.0
C916 C 0.88021 0.87477 0.65512 0.0
C917 C 0.88389 0.85725 0.67068 0.0
C918 C 0.89798 0.85544 0.70295 0.0
C919 C 0.90132 0.83891 0.71767 0.0
C920 C 0.89073 0.82407 0.70012 0.0
C921 C 0.87681 0.82571 0.66773 0.0
C922 C 0.8734 0.84221 0.65294 0.0
C923 C 0.89165 0.90579 0.48346 0.0
C924 C 0.88145 0.89402 0.45147 0.0
C925 C 0.89054 0.90517 0.52887 0.0
C926 C 0.87907 0.89288 0.54386 0.0
C927 C 0.86899 0.88098 0.51205 0.0
C928 C 0.87014 0.88155 0.46655 0.0
C929 C 0.87779 0.89229 0.59253 0.0
C930 C 0.88035 0.87597 0.60948 0.0
C931 C 0.87468 0.90778 0.62253 0.0
C932 C 0.87058 0.92523 0.60699 0.0
C933 C 0.85635 0.92677 0.57488 0.0
C934 C 0.85259 0.94323 0.56021 0.0
C935 C 0.8629 0.95828 0.57765 0.0
C936 C 0.87695 0.95692 0.60989 0.0
C937 C 0.88077 0.94048 0.62464 0.0
H938 H 0.85997 0.97102 0.56626 0.0
H939 H 0.89333 0.81128 0.71155 0.0
H940 H 0.35073 0.63174 0.7263 0.0
H941 H 0.34977 0.6292 0.80493 0.0
H942 H 0.40743 0.62486 0.8178 0.0
H943 H 0.40852 0.62747 0.73914 0.0
H944 H 0.39255 0.60177 0.86384 0.0
H945 H 0.38617 0.66417 0.85289 0.0
H946 H 0.37289 0.69072 0.82461 0.0
H947 H 0.32207 0.67845 0.87088 0.0
H948 H 0.33499 0.65167 0.8989 0.0
H949 H 0.40276 0.61912 0.09969 0.0
H950 H 0.40429 0.62059 0.02064 0.0
H951 H 0.34669 0.62518 1.00515 0.0
H952 H 0.34502 0.62358 0.084 0.0
H953 H 0.36196 0.64825 0.96053 0.0
H954 H 0.36839 0.58576 0.97131 0.0
H955 H 0.38172 0.55921 0.99948 0.0
H956 H 0.43256 0.57173 0.9537 0.0
H957 H 0.41958 0.5985 0.92578 0.0
C958 C 0.36325 0.63033 0.7458 0.0
C959 C 0.37972 0.62994 0.72611 0.0
C960 C 0.36267 0.62887 0.79092 0.0
C961 C 0.37855 0.62712 0.81776 0.0
C962 C 0.39497 0.62622 0.79799 0.0
C963 C 0.39556 0.62764 0.75282 0.0
C964 C 0.37804 0.62647 0.86641 0.0
C965 C 0.38606 0.61207 0.88504 0.0
C966 C 0.36929 0.63968 0.89425 0.0
C967 C 0.36151 0.65582 0.87761 0.0
C968 C 0.37213 0.66706 0.85674 0.0
C969 C 0.36467 0.68216 0.8408 0.0
C970 C 0.34664 0.68624 0.84584 0.0
C971 C 0.33603 0.67525 0.86694 0.0
C972 C 0.34342 0.66012 0.88289 0.0
C973 C 0.39038 0.62028 0.07949 0.0
C974 C 0.37376 0.6212 0.09859 0.0
C975 C 0.39128 0.62114 0.03413 0.0
C976 C 0.37559 0.62281 1.00652 0.0
C977 C 0.35901 0.62393 0.02556 0.0
C978 C 0.3581 0.62309 0.07088 0.0
C979 C 0.3764 0.62352 0.95797 0.0
C980 C 0.36845 0.63794 0.93935 0.0
C981 C 0.38523 0.61034 0.93018 0.0
C982 C 0.39306 0.59424 0.94687 0.0
C983 C 0.38245 0.58293 0.96756 0.0
C984 C 0.38993 0.56783 0.98343 0.0
C985 C 0.40799 0.56381 0.97849 0.0
C986 C 0.41858 0.57487 0.95757 0.0
C987 C 0.41117 0.59 0.94168 0.0
H988 H 0.41376 0.55211 0.99079 0.0
H989 H 0.34089 0.69794 0.83349 0.0
H990 H 0.62198 0.15978 0.96585 0.0
H991 H 0.62307 0.1586 0.04535 0.0
H992 H 0.65141 0.10875 0.02806 0.0
H993 H 0.65028 0.10982 0.94815 0.0
H994 H 0.62655 0.1068 0.08422 0.0
H995 H 0.6729 0.14901 0.07133 0.0
H996 H 0.6862 0.17575 0.04787 0.0
H997 H 0.64919 0.20904 0.121 0.0
H998 H 0.63549 0.18247 0.14442 0.0
H999 H 0.65562 0.1065 0.31184 0.0
H1000 H 0.65414 0.10715 0.2321 0.0
H1001 H 0.62283 0.15518 0.24724 0.0
H1002 H 0.62391 0.15446 0.32716 0.0
H1003 H 0.64941 0.15793 0.19243 0.0
H1004 H 0.60326 0.11523 0.20541 0.0
H1005 H 0.59056 0.08828 0.22927 0.0
H1006 H 0.62811 0.05565 0.15629 0.0
H1007 H 0.64121 0.08244 0.13248 0.0
C1008 C 0.62867 0.14866 0.97889 0.0
C1009 C 0.63619 0.13497 0.95035 0.0
C1010 C 0.62926 0.14799 0.02455 0.0
C1011 C 0.63756 0.13372 0.04315 0.0
C1012 C 0.64493 0.11993 1.01473 0.0
C1013 C 0.64426 0.12055 0.96893 0.0
C1014 C 0.63835 0.13313 0.09206 0.0
C1015 C 0.6318 0.1179 0.1078 0.0
C1016 C 0.64482 0.14771 0.12321 0.0
C1017 C 0.65306 0.16373 0.10927 0.0
C1018 C 0.6675 0.16202 0.08213 0.0
C1019 C 0.67513 0.17715 0.06889 0.0
C1020 C 0.66852 0.19408 0.08284 0.0
C1021 C 0.65429 0.19592 0.11017 0.0
C1022 C 0.64659 0.18083 0.12347 0.0
C1023 C 0.64812 0.11706 0.29835 0.0
C1024 C 0.63978 0.13036 0.32638 0.0
C1025 C 0.64737 0.11745 0.25254 0.0
C1026 C 0.63825 0.13113 0.23335 0.0
C1027 C 0.62999 0.14449 0.26113 0.0
C1028 C 0.63067 0.14408 0.30698 0.0
C1029 C 0.63759 0.13164 0.18449 0.0
C1030 C 0.64416 0.14684 0.1688 0.0
C1031 C 0.63124 0.117 0.15341 0.0
C1032 C 0.62333 0.10086 0.16752 0.0
C1033 C 0.60891 0.10232 0.19473 0.0
C1034 C 0.60162 0.08707 0.2082 0.0
C1035 C 0.60855 0.07027 0.1944 0.0
C1036 C 0.62277 0.06868 0.167 0.0
C1037 C 0.63012 0.08389 0.15348 0.0
H1038 H 0.60289 0.05847 0.20486 0.0
H1039 H 0.67444 0.20578 0.07256 0.0
H1040 H 0.84904 0.37668 0.20302 0.0
H1041 H 0.84973 0.37681 0.28293 0.0
H1042 H 0.90367 0.3982 0.29729 0.0
H1043 H 0.90334 0.39749 0.21695 0.0
H1044 H 0.90072 0.37289 0.34981 0.0
H1045 H 0.86731 0.42479 0.32147 0.0
H1046 H 0.84349 0.44173 0.28553 0.0
H1047 H 0.80324 0.41077 0.33503 0.0
H1048 H 0.82683 0.39347 0.37077 0.0
H1049 H 0.90393 0.39929 0.58162 0.0
H1050 H 0.90346 0.39988 0.5019 0.0
H1051 H 0.84997 0.37736 0.48519 0.0
H1052 H 0.85012 0.37721 0.56526 0.0
H1053 H 0.85291 0.40362 0.43408 0.0
H1054 H 0.88652 0.35154 0.46177 0.0
H1055 H 0.91045 0.33477 0.49779 0.0
H1056 H 0.9505 0.3664 0.44962 0.0
H1057 H 0.92678 0.38354 0.4138 0.0
C1058 C 0.86119 0.38117 0.22296 0.0
C1059 C 0.87615 0.38706 0.20324 0.0
C1060 C 0.86147 0.38145 0.26888 0.0
C1061 C 0.87665 0.38777 0.29643 0.0
C1062 C 0.89175 0.39334 0.27687 0.0
C1063 C 0.89149 0.39305 0.23086 0.0
C1064 C 0.87673 0.38858 0.34554 0.0
C1065 C 0.8904 0.37984 0.36827 0.0
C1066 C 0.86307 0.3973 0.36976 0.0
C1067 C 0.84885 0.40772 0.34844 0.0
C1068 C 0.85338 0.4215 0.32441 0.0
C1069 C 0.83992 0.43118 0.30412 0.0
C1070 C 0.82186 0.4273 0.3079 0.0
C1071 C 0.81723 0.41375 0.33208 0.0
C1072 C 0.83064 0.40402 0.35239 0.0
C1073 C 0.89193 0.3947 0.56118 0.0
C1074 C 0.87706 0.38818 0.5801 0.0
C1075 C 0.89177 0.39486 0.51541 0.0
C1076 C 0.87678 0.38843 0.48728 0.0
C1077 C 0.86174 0.38232 0.50609 0.0
C1078 C 0.8619 0.38212 0.55191 0.0
C1079 C 0.87688 0.38791 0.43829 0.0
C1080 C 0.86324 0.3967 0.4156 0.0
C1081 C 0.89058 0.37927 0.41412 0.0
C1082 C 0.90487 0.36894 0.43548 0.0
C1083 C 0.90042 0.35501 0.45915 0.0
C1084 C 0.91395 0.34542 0.47948 0.0
C1085 C 0.93199 0.34955 0.47609 0.0
C1086 C 0.93653 0.36324 0.45226 0.0
C1087 C 0.92305 0.37288 0.43191 0.0
H1088 H 0.94244 0.34211 0.49185 0.0
H1089 H 0.81146 0.43481 0.29217 0.0
H1090 H 0.35583 0.10462 0.31146 0.0
H1091 H 0.3579 0.10543 0.23252 0.0
H1092 H 0.39053 0.15311 0.26138 0.0
H1093 H 0.38892 0.1522 0.34068 0.0
H1094 H 0.36466 0.15604 0.19457 0.0
H1095 H 0.40925 0.11304 0.2282 0.0
H1096 H 0.42067 0.08605 0.25789 0.0
H1097 H 0.38309 0.05366 0.16853 0.0
H1098 H 0.37126 0.0805 0.13873 0.0
H1099 H 0.39514 0.15731 0.98041 0.0
H1100 H 0.39281 0.1564 0.05923 0.0
H1101 H 0.36353 0.10661 0.02962 0.0
H1102 H 0.36579 0.10745 0.95045 0.0
H1103 H 0.38739 0.10465 0.097 0.0
H1104 H 0.34257 0.14693 0.0632 0.0
H1105 H 0.33023 0.17362 0.03375 0.0
H1106 H 0.36699 0.20699 0.12312 0.0
H1107 H 0.37973 0.18046 0.15272 0.0
C1108 C 0.36372 0.11516 0.30132 0.0
C1109 C 0.37232 0.12827 0.33306 0.0
C1110 C 0.36481 0.11564 0.25588 0.0
C1111 C 0.37451 0.12924 0.24066 0.0
C1112 C 0.38293 0.14247 0.27208 0.0
C1113 C 0.38193 0.14196 0.31761 0.0
C1114 C 0.37577 0.12968 0.19209 0.0
C1115 C 0.36988 0.14489 0.17338 0.0
C1116 C 0.38208 0.11498 0.1639 0.0
C1117 C 0.38925 0.0988 0.18154 0.0
C1118 C 0.40333 0.10018 0.21511 0.0
C1119 C 0.40989 0.0849 0.23193 0.0
C1120 C 0.40258 0.06815 0.21519 0.0
C1121 C 0.38872 0.06664 0.1815 0.0
C1122 C 0.38209 0.08188 0.16461 0.0
C1123 C 0.38796 0.14626 0.99044 0.0
C1124 C 0.38054 0.13252 0.95861 0.0
C1125 C 0.38667 0.14574 0.03579 0.0
C1126 C 0.37777 0.13155 0.0508 0.0
C1127 C 0.37047 0.11773 0.01918 0.0
C1128 C 0.37181 0.11821 0.97375 0.0
C1129 C 0.37632 0.13105 0.09936 0.0
C1130 C 0.38217 0.11582 0.11811 0.0
C1131 C 0.36986 0.14569 0.12754 0.0
C1132 C 0.36223 0.16168 0.10987 0.0
C1133 C 0.34812 0.15994 0.07633 0.0
C1134 C 0.34104 0.17505 0.05966 0.0
C1135 C 0.34785 0.19199 0.07647 0.0
C1136 C 0.36174 0.19386 0.11009 0.0
C1137 C 0.36889 0.17879 0.12685 0.0
H1138 H 0.34234 0.20367 0.06352 0.0
H1139 H 0.40768 0.05634 0.22825 0.0
H1140 H 0.62072 0.60536 0.06506 0.0
H1141 H 0.62484 0.60661 0.9871 0.0
H1142 H 0.65549 0.65537 0.02213 0.0
H1143 H 0.65118 0.65432 0.10063 0.0
H1144 H 0.63118 0.65771 0.95145 0.0
H1145 H 0.67644 0.6168 0.99003 0.0
H1146 H 0.68904 0.59057 0.02113 0.0
H1147 H 0.65439 0.55599 0.92906 0.0
H1148 H 0.64138 0.58205 0.8978 0.0
H1149 H 0.66278 0.65672 0.73536 0.0
H1150 H 0.661 0.65688 0.8151 0.0
H1151 H 0.6299 0.6081 0.79025 0.0
H1152 H 0.63182 0.60775 0.71054 0.0
H1153 H 0.65596 0.60662 0.85677 0.0
H1154 H 0.61 0.64776 0.82022 0.0
H1155 H 0.59744 0.67406 0.78935 0.0
H1156 H 0.63375 0.70831 0.8778 0.0
H1157 H 0.64672 0.68216 0.90879 0.0
C1158 C 0.6283 0.61642 0.05632 0.0
C1159 C 0.63555 0.62978 0.08935 0.0
C1160 C 0.63077 0.61704 1.01158 0.0
C1161 C 0.6406 0.63102 0.99843 0.0
C1162 C 0.64788 0.64442 0.03127 0.0
C1163 C 0.64552 0.64373 0.07623 0.0
C1164 C 0.64295 0.63167 0.9504 0.0
C1165 C 0.6369 0.64666 0.93095 0.0
C1166 C 0.65004 0.61713 0.92314 0.0
C1167 C 0.65781 0.60141 0.94185 0.0
C1168 C 0.67139 0.60362 0.97666 0.0
C1169 C 0.67863 0.58878 0.99427 0.0
C1170 C 0.67249 0.57163 0.97716 0.0
C1171 C 0.65912 0.56929 0.94232 0.0
C1172 C 0.65182 0.58409 0.92461 0.0
C1173 C 0.65558 0.64601 0.74683 0.0
C1174 C 0.64736 0.63227 0.71632 0.0
C1175 C 0.65447 0.64617 0.79253 0.0
C1176 C 0.64519 0.63257 0.80897 0.0
C1177 C 0.6371 0.61878 0.77859 0.0
C1178 C 0.63807 0.61868 0.7329 0.0
C1179 C 0.64405 0.63259 0.85773 0.0
C1180 C 0.65034 0.61771 0.87731 0.0
C1181 C 0.63721 0.64725 0.88509 0.0
C1182 C 0.62947 0.66298 0.86646 0.0
C1183 C 0.61542 0.66088 0.83281 0.0
C1184 C 0.60821 0.67577 0.81534 0.0
C1185 C 0.61483 0.69284 0.83151 0.0
C1186 C 0.62866 0.69507 0.86525 0.0
C1187 C 0.63594 0.68023 0.8828 0.0
H1188 H 0.60921 0.70435 0.81796 0.0
H1189 H 0.67812 0.56015 0.99082 0.0
H1190 H 0.12185 0.92357 0.43195 0.0
H1191 H 0.11993 0.92173 0.51073 0.0
H1192 H 0.15692 0.87782 0.50291 0.0
H1193 H 0.15851 0.87924 0.42386 0.0
H1194 H 0.13004 0.87135 0.55184 0.0
H1195 H 0.17046 0.92025 0.54769 0.0
H1196 H 0.18018 0.94892 0.52657 0.0
H1197 H 0.13671 0.97551 0.59131 0.0
H1198 H 0.12657 0.94694 0.61231 0.0
H1199 H 0.15284 0.87169 0.78139 0.0
H1200 H 0.15414 0.87401 0.70277 0.0
H1201 H 0.11685 0.91764 0.71361 0.0
H1202 H 0.11587 0.91574 0.79273 0.0
H1203 H 0.14338 0.92445 0.66317 0.0
H1204 H 0.10319 0.87551 0.66808 0.0
H1205 H 0.0936 0.84682 0.68933 0.0
H1206 H 0.13676 0.82025 0.62318 0.0
H1207 H 0.14676 0.84884 0.60204 0.0
C1208 C 0.12942 0.91337 0.44679 0.0
C1209 C 0.14039 0.9016 0.42131 0.0
C1210 C 0.12846 0.91246 0.49208 0.0
C1211 C 0.13847 0.89979 0.51316 0.0
C1212 C 0.14912 0.88778 0.48764 0.0
C1213 C 0.15013 0.88871 0.44239 0.0
C1214 C 0.13789 0.89907 0.56172 0.0
C1215 C 0.13319 0.88291 0.57617 0.0
C1216 C 0.14158 0.91422 0.59368 0.0
C1217 C 0.14765 0.93142 0.58117 0.0
C1218 C 0.16289 0.93219 0.55711 0.0
C1219 C 0.16849 0.94842 0.54522 0.0
C1220 C 0.15904 0.96402 0.55748 0.0
C1221 C 0.144 0.96342 0.58177 0.0
C1222 C 0.13833 0.94721 0.59371 0.0
C1223 C 0.14508 0.88196 0.76732 0.0
C1224 C 0.13423 0.89352 0.79369 0.0
C1225 C 0.14569 0.88313 0.72208 0.0
C1226 C 0.1354 0.89584 0.70186 0.0
C1227 C 0.12485 0.90765 0.72823 0.0
C1228 C 0.1242 0.90646 0.7735 0.0
C1229 C 0.13558 0.89671 0.65328 0.0
C1230 C 0.14021 0.91289 0.63884 0.0
C1231 C 0.13184 0.88157 0.6213 0.0
C1232 C 0.12583 0.86435 0.63385 0.0
C1233 C 0.11072 0.86357 0.65836 0.0
C1234 C 0.1052 0.84733 0.67033 0.0
C1235 C 0.11459 0.83173 0.65771 0.0
C1236 C 0.12951 0.83235 0.63298 0.0
C1237 C 0.1351 0.84857 0.62097 0.0
H1238 H 0.11029 0.81916 0.667 0.0
H1239 H 0.1634 0.97658 0.54826 0.0
H1240 H 0.84758 0.64615 0.80991 0.0
H1241 H 0.84963 0.64673 0.73069 0.0
H1242 H 0.89811 0.61586 0.73548 0.0
H1243 H 0.89636 0.61554 0.81506 0.0
H1244 H 0.90148 0.64245 0.68546 0.0
H1245 H 0.85791 0.59666 0.69279 0.0
H1246 H 0.83042 0.58375 0.71601 0.0
H1247 H 0.79839 0.62197 0.65372 0.0
H1248 H 0.82572 0.63529 0.63064 0.0
H1249 H 0.90517 0.61857 0.45369 0.0
H1250 H 0.90301 0.61773 0.53266 0.0
H1251 H 0.85344 0.64688 0.52708 0.0
H1252 H 0.85518 0.64724 0.44759 0.0
H1253 H 0.85061 0.62116 0.57768 0.0
H1254 H 0.89396 0.6671 0.57063 0.0
H1255 H 0.92135 0.68031 0.5477 0.0
H1256 H 0.95369 0.64224 0.60973 0.0
H1257 H 0.92646 0.62863 0.63253 0.0
C1258 C 0.85881 0.63963 0.79435 0.0
C1259 C 0.8718 0.63079 0.81927 0.0
C1260 C 0.85987 0.63982 0.74875 0.0
C1261 C 0.87392 0.63116 0.72661 0.0
C1262 C 0.88708 0.62259 0.7515 0.0
C1263 C 0.88599 0.62231 0.79709 0.0
C1264 C 0.87487 0.63104 0.67766 0.0
C1265 C 0.89044 0.63756 0.66191 0.0
C1266 C 0.86034 0.62508 0.64662 0.0
C1267 C 0.84388 0.61709 0.66038 0.0
C1268 C 0.84501 0.60241 0.68435 0.0
C1269 C 0.82946 0.595 0.69744 0.0
C1270 C 0.81267 0.60207 0.68645 0.0
C1271 C 0.8114 0.61653 0.66226 0.0
C1272 C 0.82692 0.62401 0.64915 0.0
C1273 C 0.89365 0.62463 0.46895 0.0
C1274 C 0.88036 0.633 0.44377 0.0
C1275 C 0.89255 0.62432 0.51449 0.0
C1276 C 0.87819 0.63247 0.53643 0.0
C1277 C 0.86473 0.64055 0.51129 0.0
C1278 C 0.86582 0.64087 0.4657 0.0
C1279 C 0.87724 0.63258 0.58541 0.0
C1280 C 0.86167 0.62606 0.6012 0.0
C1281 C 0.89175 0.63858 0.61651 0.0
C1282 C 0.90815 0.64673 0.60288 0.0
C1283 C 0.9069 0.66145 0.57907 0.0
C1284 C 0.9224 0.66903 0.56615 0.0
C1285 C 0.93925 0.66209 0.57714 0.0
C1286 C 0.94063 0.64758 0.60118 0.0
C1287 C 0.92517 0.63994 0.61414 0.0
H1288 H 0.95123 0.66798 0.56712 0.0
H1289 H 0.80064 0.59631 0.6966 0.0
H1290 H 0.1443 0.10216 0.57886 0.0
H1291 H 0.1459 0.1033 0.49984 0.0
H1292 H 0.12801 0.15783 0.51633 0.0
H1293 H 0.12564 0.15656 0.59517 0.0
H1294 H 0.11083 0.14031 0.44523 0.0
H1295 H 0.17282 0.14599 0.49976 0.0
H1296 H 0.2007 0.13737 0.53983 0.0
H1297 H 0.20072 0.0875 0.45458 0.0
H1298 H 0.17269 0.09573 0.41436 0.0
H1299 H 0.13083 0.16118 0.23415 0.0
H1300 H 0.12974 0.15993 0.31319 0.0
H1301 H 0.14854 0.10572 0.296 0.0
H1302 H 0.15051 0.10714 0.21709 0.0
H1303 H 0.16531 0.12289 0.36749 0.0
H1304 H 0.10341 0.11694 0.31324 0.0
H1305 H 0.0753 0.1252 0.27351 0.0
H1306 H 0.07493 0.17514 0.35837 0.0
H1307 H 0.10317 0.16728 0.39826 0.0
C1308 C 0.14061 0.11441 0.56582 0.0
C1309 C 0.13482 0.12927 0.59391 0.0
C1310 C 0.14172 0.1151 0.52044 0.0
C1311 C 0.13727 0.13072 0.50173 0.0
C1312 C 0.13158 0.14561 0.52967 0.0
C1313 C 0.13042 0.14491 0.57507 0.0
C1314 C 0.13814 0.13143 0.45303 0.0
C1315 C 0.12286 0.13675 0.42844 0.0
C1316 C 0.15362 0.12633 0.43043 0.0
C1317 C 0.17056 0.12142 0.45432 0.0
C1318 C 0.1787 0.13314 0.48975 0.0
C1319 C 0.19454 0.12833 0.51246 0.0
C1320 C 0.20245 0.11188 0.49983 0.0
C1321 C 0.19457 0.10023 0.46436 0.0
C1322 C 0.17871 0.10497 0.44157 0.0
C1323 C 0.13487 0.14899 0.24701 0.0
C1324 C 0.14077 0.13427 0.21865 0.0
C1325 C 0.13403 0.14822 0.29244 0.0
C1326 C 0.13883 0.13264 0.31098 0.0
C1327 C 0.14469 0.11791 0.28282 0.0
C1328 C 0.14561 0.11868 0.23736 0.0
C1329 C 0.138 0.13182 0.35967 0.0
C1330 C 0.15328 0.12647 0.38426 0.0
C1331 C 0.12251 0.13685 0.38229 0.0
C1332 C 0.1055 0.14159 0.35846 0.0
C1333 C 0.0974 0.12974 0.32322 0.0
C1334 C 0.08143 0.13434 0.30071 0.0
C1335 C 0.07336 0.1507 0.31334 0.0
C1336 C 0.08121 0.16248 0.34859 0.0
C1337 C 0.09719 0.15795 0.37119 0.0
H1338 H 0.06099 0.15424 0.29587 0.0
H1339 H 0.21471 0.10817 0.51748 0.0
H1340 H 0.63163 0.36372 0.28047 0.0
H1341 H 0.63251 0.36688 0.20233 0.0
H1342 H 0.63322 0.42416 0.23427 0.0
H1343 H 0.63237 0.4211 0.31292 0.0
H1344 H 0.61087 0.41438 0.16271 0.0
H1345 H 0.67159 0.40059 0.20713 0.0
H1346 H 0.69589 0.38345 0.2406 0.0
H1347 H 0.68091 0.33723 0.14782 0.0
H1348 H 0.65636 0.35404 0.11416 0.0
H1349 H 0.63609 0.43205 0.95197 0.0
H1350 H 0.63481 0.43004 0.03075 0.0
H1351 H 0.63426 0.37261 1.00368 0.0
H1352 H 0.63547 0.37451 0.92471 0.0
H1353 H 0.65692 0.38317 0.07332 0.0
H1354 H 0.59596 0.39682 0.02952 0.0
H1355 H 0.57163 0.41393 0.99608 0.0
H1356 H 0.58706 0.4604 0.08755 0.0
H1357 H 0.61166 0.44362 0.12117 0.0
C1358 C 0.63221 0.37703 0.27112 0.0
C1359 C 0.63215 0.39215 0.30339 0.0
C1360 C 0.63267 0.37881 0.2262 0.0
C1361 C 0.63324 0.39576 0.21214 0.0
C1362 C 0.63284 0.41091 0.2441 0.0
C1363 C 0.63232 0.40914 0.28916 0.0
C1364 C 0.63414 0.39758 0.16415 0.0
C1365 C 0.62111 0.40777 0.14337 0.0
C1366 C 0.64723 0.38866 0.13834 0.0
C1367 C 0.66203 0.37854 0.15839 0.0
C1368 C 0.6734 0.38674 0.19407 0.0
C1369 C 0.68723 0.37709 0.21305 0.0
C1370 C 0.68991 0.35925 0.19642 0.0
C1371 C 0.6788 0.35104 0.1607 0.0
C1372 C 0.66494 0.36063 0.14163 0.0
C1373 C 0.63544 0.41897 0.96257 0.0
C1374 C 0.6358 0.40345 0.93162 0.0
C1375 C 0.63475 0.41784 1.00783 0.0
C1376 C 0.63424 0.40117 0.02344 0.0
C1377 C 0.63467 0.38565 0.99269 0.0
C1378 C 0.6354 0.38676 0.94741 0.0
C1379 C 0.63359 0.39989 0.07179 0.0
C1380 C 0.64668 0.38981 0.09265 0.0
C1381 C 0.62057 0.40892 0.09764 0.0
C1382 C 0.60576 0.41902 0.07756 0.0
C1383 C 0.59425 0.41073 0.04228 0.0
C1384 C 0.5804 0.42036 0.02333 0.0
C1385 C 0.57783 0.43825 0.0396 0.0
C1386 C 0.58908 0.44654 0.07494 0.0
C1387 C 0.60297 0.43698 0.09398 0.0
H1388 H 0.56709 0.44568 0.02489 0.0
H1389 H 0.70063 0.3518 0.21115 0.0
H1390 H 0.37169 0.85886 0.06389 0.0
H1391 H 0.37005 0.86061 0.98453 0.0
H1392 H 0.37834 0.91757 1.0107 0.0
H1393 H 0.37937 0.91601 0.09029 0.0
H1394 H 0.35339 0.90993 0.94423 0.0
H1395 H 0.41246 0.88912 0.97888 0.0
H1396 H 0.43544 0.86973 1.00943 0.0
H1397 H 0.41328 0.82453 0.92253 0.0
H1398 H 0.38999 0.84362 0.89187 0.0
H1399 H 0.37814 0.92175 0.72817 0.0
H1400 H 0.37952 0.9202 0.80799 0.0
H1401 H 0.36361 0.86478 0.78246 0.0
H1402 H 0.36207 0.8663 0.70258 0.0
H1403 H 0.39268 0.87185 0.84817 0.0
H1404 H 0.33349 0.89355 0.81387 0.0
H1405 H 0.3113 0.91368 0.78315 0.0
H1406 H 0.33497 0.95823 0.86971 0.0
H1407 H 0.35748 0.93839 0.90049 0.0
C1408 C 0.37292 0.87182 0.05292 0.0
C1409 C 0.3757 0.88729 0.08383 0.0
C1410 C 0.37219 0.87277 1.00734 0.0
C1411 C 0.37435 0.88919 0.99133 0.0
C1412 C 0.37673 0.90471 0.02203 0.0
C1413 C 0.37746 0.90377 0.06766 0.0
C1414 C 0.37418 0.89014 0.94269 0.0
C1415 C 0.36218 0.90177 0.92343 0.0
C1416 C 0.3854 0.87931 0.91505 0.0
C1417 C 0.39936 0.86777 0.93341 0.0
C1418 C 0.41239 0.87502 0.96654 0.0
C1419 C 0.42549 0.86408 0.98383 0.0
C1420 C 0.42579 0.8459 0.96802 0.0
C1421 C 0.41301 0.83862 0.9348 0.0
C1422 C 0.39987 0.84949 0.91743 0.0
C1423 C 0.37508 0.9092 0.73956 0.0
C1424 C 0.36999 0.89414 0.70898 0.0
C1425 C 0.37576 0.90835 0.7852 0.0
C1426 C 0.37157 0.8924 0.80133 0.0
C1427 C 0.36688 0.87724 0.77087 0.0
C1428 C 0.36592 0.87815 0.72523 0.0
C1429 C 0.37189 0.89158 0.84992 0.0
C1430 C 0.38392 0.88 0.8691 0.0
C1431 C 0.36082 0.90255 0.87753 0.0
C1432 C 0.3473 0.91451 0.85913 0.0
C1433 C 0.33407 0.90767 0.82606 0.0
C1434 C 0.32141 0.91902 0.80869 0.0
C1435 C 0.32176 0.93724 0.82437 0.0
C1436 C 0.33474 0.94413 0.85754 0.0
C1437 C 0.34744 0.93283 0.87498 0.0
H1438 H 0.31194 0.946 0.8109 0.0
H1439 H 0.43595 0.83746 0.98143 0.0
H1440 H 0.17024 0.69315 0.14473 0.0
H1441 H 0.16661 0.72565 0.15083 0.0
H1442 H 0.10931 0.71864 0.12754 0.0
H1443 H 0.11285 0.686 0.12307 0.0
H1444 H 0.1315 0.74211 0.06896 0.0
H1445 H 0.11752 0.73477 0.21789 0.0
H1446 H 0.12381 0.72406 0.29022 0.0
H1447 H 0.17297 0.75444 0.3113 0.0
H1448 H 0.16711 0.76509 0.23869 0.0
H1449 H 0.10928 0.83327 0.0846 0.0
H1450 H 0.10961 0.80144 0.09095 0.0
H1451 H 0.15694 0.8092 0.18159 0.0
H1452 H 0.1559 0.84144 0.17724 0.0
H1453 H 0.13948 0.78461 0.20711 0.0
H1454 H 0.15634 0.79125 0.06319 0.0
H1455 H 0.15401 0.80117 0.98931 0.0
H1456 H 0.10474 0.77157 0.95596 0.0
H1457 H 0.10665 0.76165 0.0299 0.0
C1458 C 0.15682 0.69853 0.14179 0.0
C1459 C 0.14184 0.68692 0.13381 0.0
C1460 C 0.15477 0.71715 0.14514 0.0
C1461 C 0.1377 0.72473 0.13958 0.0
C1462 C 0.12264 0.71319 0.13206 0.0
C1463 C 0.12466 0.69451 0.12981 0.0
C1464 C 0.13583 0.74459 0.13971 0.0
C1465 C 0.13289 0.75141 0.09923 0.0
C1466 C 0.1385 0.75685 0.17889 0.0
C1467 C 0.14197 0.75056 0.22263 0.0
C1468 C 0.12976 0.73902 0.23773 0.0
C1469 C 0.13323 0.73299 0.27883 0.0
C1470 C 0.1488 0.73852 0.30529 0.0
C1471 C 0.16092 0.75014 0.29074 0.0
C1472 C 0.15753 0.75619 0.24963 0.0
C1473 C 0.1197 0.82826 0.10621 0.0
C1474 C 0.13262 0.84004 0.13021 0.0
C1475 C 0.12001 0.80988 0.10951 0.0
C1476 C 0.13366 0.80243 0.13566 0.0
C1477 C 0.14627 0.8143 0.16084 0.0
C1478 C 0.14569 0.83284 0.15838 0.0
C1479 C 0.13483 0.78238 0.13612 0.0
C1480 C 0.13787 0.77545 0.17667 0.0
C1481 C 0.13274 0.76997 0.09677 0.0
C1482 C 0.13154 0.77586 0.05225 0.0
C1483 C 0.14495 0.78696 0.04021 0.0
C1484 C 0.14371 0.79257 0.99831 0.0
C1485 C 0.12921 0.78705 0.96801 0.0
C1486 C 0.11595 0.77586 0.9795 0.0
C1487 C 0.1171 0.77023 0.02138 0.0
H1488 H 0.12828 0.7914 0.93558 0.0
H1489 H 0.15146 0.73385 0.3371 0.0
H1490 H 0.58633 0.89923 0.4992 0.0
H1491 H 0.55408 0.90076 0.51135 0.0
H1492 H 0.54188 0.86863 0.38538 0.0
H1493 H 0.57359 0.86724 0.37302 0.0
H1494 H 0.52104 0.89652 0.39101 0.0
H1495 H 0.53895 0.85272 0.48755 0.0
H1496 H 0.55635 0.84175 0.55021 0.0
H1497 H 0.53539 0.88377 0.63994 0.0
H1498 H 0.51803 0.89512 0.57768 0.0
H1499 H 0.43428 0.86353 0.38305 0.0
H1500 H 0.46681 0.86516 0.39497 0.0
H1501 H 0.46269 0.90474 0.50856 0.0
H1502 H 0.42964 0.90326 0.49665 0.0
H1503 H 0.4916 0.87811 0.51814 0.0
H1504 H 0.47138 0.91999 0.42106 0.0
H1505 H 0.45342 0.92987 0.35784 0.0
H1506 H 0.47891 0.89092 0.26854 0.0
H1507 H 0.49682 0.88059 0.33134 0.0
C1508 C 0.57676 0.89229 0.47446 0.0
C1509 C 0.58266 0.8832 0.43502 0.0
C1510 C 0.55828 0.89318 0.4814 0.0
C1511 C 0.54535 0.88487 0.44918 0.0
C1512 C 0.5514 0.87533 0.41064 0.0
C1513 C 0.56968 0.87451 0.40368 0.0
C1514 C 0.52549 0.88651 0.45371 0.0
C1515 C 0.51469 0.89239 0.41883 0.0
C1516 C 0.517 0.88174 0.49053 0.0
C1517 C 0.52738 0.8749 0.52792 0.0
C1518 C 0.53818 0.85971 0.5206 0.0
C1519 C 0.54801 0.85341 0.55604 0.0
C1520 C 0.54703 0.8621 0.59901 0.0
C1521 C 0.53617 0.87707 0.60663 0.0
C1522 C 0.52632 0.88344 0.57129 0.0
C1523 C 0.44014 0.87249 0.41099 0.0
C1524 C 0.42918 0.88341 0.4386 0.0
C1525 C 0.45886 0.87338 0.41777 0.0
C1526 C 0.46732 0.88522 0.45231 0.0
C1527 C 0.45651 0.89549 0.48162 0.0
C1528 C 0.4376 0.89464 0.47477 0.0
C1529 C 0.48732 0.88757 0.4548 0.0
C1530 C 0.49806 0.88248 0.49078 0.0
C1531 C 0.49587 0.89305 0.41896 0.0
C1532 C 0.48536 0.89944 0.38097 0.0
C1533 C 0.47308 0.91345 0.38797 0.0
C1534 C 0.46291 0.91914 0.35221 0.0
C1535 C 0.465 0.91101 0.3092 0.0
C1536 C 0.4773 0.8972 0.30187 0.0
C1537 C 0.48748 0.89144 0.33754 0.0
H1538 H 0.45711 0.91542 0.28155 0.0
H1539 H 0.55464 0.85719 0.62641 0.0
H1540 H 0.36106 0.33682 0.71183 0.0
H1541 H 0.36123 0.3048 0.7183 0.0
H1542 H 0.40072 0.29662 0.62184 0.0
H1543 H 0.39967 0.32827 0.61355 0.0
H1544 H 0.37958 0.27163 0.60173 0.0
H1545 H 0.40857 0.29422 0.74234 0.0
H1546 H 0.41262 0.31297 0.81474 0.0
H1547 H 0.36476 0.29037 0.85491 0.0
H1548 H 0.36029 0.27164 0.78249 0.0
H1549 H 0.40241 0.18236 0.64796 0.0
H1550 H 0.40546 0.21512 0.6559 0.0
H1551 H 0.35042 0.22041 0.68825 0.0
H1552 H 0.34712 0.18779 0.67856 0.0
H1553 H 0.38047 0.24607 0.74317 0.0
H1554 H 0.35214 0.22479 0.59585 0.0
H1555 H 0.35119 0.20512 0.52469 0.0
H1556 H 0.40269 0.22517 0.4997 0.0
H1557 H 0.40406 0.24475 0.57115 0.0
C1558 C 0.36996 0.3282 0.69253 0.0
C1559 C 0.38038 0.33518 0.66225 0.0
C1560 C 0.37012 0.30979 0.6963 0.0
C1561 C 0.38115 0.29794 0.67091 0.0
C1562 C 0.39195 0.30515 0.64172 0.0
C1563 C 0.39144 0.32339 0.63717 0.0
C1564 C 0.38093 0.27802 0.67287 0.0
C1565 C 0.38006 0.26624 0.63295 0.0
C1566 C 0.38135 0.27047 0.7132 0.0
C1567 C 0.384 0.28166 0.75681 0.0
C1568 C 0.39884 0.29334 0.7665 0.0
C1569 C 0.40122 0.30395 0.80755 0.0
C1570 C 0.38892 0.3029 0.83936 0.0
C1571 C 0.37425 0.29119 0.83021 0.0
C1572 C 0.3718 0.28056 0.78918 0.0
C1573 C 0.3911 0.19052 0.65776 0.0
C1574 C 0.37455 0.18247 0.66296 0.0
C1575 C 0.39283 0.20926 0.66212 0.0
C1576 C 0.37818 0.22032 0.67281 0.0
C1577 C 0.36195 0.21225 0.6803 0.0
C1578 C 0.36009 0.19358 0.67477 0.0
C1579 C 0.3792 0.24012 0.67235 0.0
C1580 C 0.38014 0.25173 0.71231 0.0
C1581 C 0.37926 0.24756 0.63226 0.0
C1582 C 0.37829 0.23606 0.58902 0.0
C1583 C 0.36333 0.22488 0.57535 0.0
C1584 C 0.3627 0.21377 0.53495 0.0
C1585 C 0.3769 0.21385 0.50775 0.0
C1586 C 0.39172 0.2251 0.52084 0.0
C1587 C 0.39243 0.23621 0.56127 0.0
H1588 H 0.3764 0.20523 0.47649 0.0
H1589 H 0.39079 0.31113 0.87112 0.0
H1590 H 0.93891 0.10499 0.8877 0.0
H1591 H 0.97085 0.10862 0.90961 0.0
H1592 H 0.95976 0.15382 1.00473 0.0
H1593 H 0.92724 0.14994 0.98309 0.0
H1594 H 0.98688 0.16075 0.95034 0.0
H1595 H 0.97522 0.11758 0.04292 0.0
H1596 H 0.96285 0.08999 0.06424 0.0
H1597 H 0.99425 0.05853 0.97158 0.0
H1598 H 1.00658 0.08591 0.94908 0.0
H1599 H 0.08714 0.13056 1.00833 0.0
H1600 H 0.05523 0.13128 0.02411 0.0
H1601 H 0.04058 0.14332 0.89222 0.0
H1602 H 0.07193 0.1429 0.87663 0.0
H1603 H 0.02662 0.11142 0.98806 0.0
H1604 H 1.00486 0.16918 0.8874 0.0
H1605 H 0.01742 0.19738 0.87005 0.0
H1606 H 0.05284 0.2013 0.98832 0.0
H1607 H 0.04032 0.17326 1.00676 0.0
C1608 C 0.94317 0.11554 0.91391 0.0
C1609 C 0.93051 0.12712 0.93381 0.0
C1610 C 0.96151 0.11757 0.92651 0.0
C1611 C 0.96786 0.13142 0.95905 0.0
C1612 C 0.95523 0.14296 0.97968 0.0
C1613 C 0.93666 0.14068 0.96756 0.0
C1614 C 0.98774 0.13421 0.96853 0.0
C1615 C 0.99555 0.15004 0.95909 0.0
C1616 C 0.99918 0.12041 0.98087 0.0
C1617 C 0.99178 0.10384 0.99415 0.0
C1618 C 0.97939 0.10478 0.0268 0.0
C1619 C 0.97239 0.08917 0.03915 0.0
C1620 C 0.97776 0.07252 0.01927 0.0
C1621 C 0.99012 0.07144 0.98697 0.0
C1622 C 0.99713 0.08701 0.97444 0.0
C1623 C 0.07711 0.13355 0.98292 0.0
C1624 C 0.08227 0.13672 0.94123 0.0
C1625 C 0.05884 0.13388 0.9919 0.0
C1626 C 0.04535 0.13761 0.95961 0.0
C1627 C 0.05058 0.14078 0.91817 0.0
C1628 C 0.06867 0.14042 0.9092 0.0
C1629 C 0.02574 0.13763 0.96775 0.0
C1630 C 0.01798 0.12229 0.98021 0.0
C1631 C 0.01433 0.15197 0.95874 0.0
C1632 C 0.0217 0.16905 0.94834 0.0
C1633 C 0.01524 0.17612 0.90989 0.0
C1634 C 0.02237 0.19206 0.89982 0.0
C1635 C 0.03594 0.20111 0.92802 0.0
C1636 C 0.04236 0.19425 0.96644 0.0
C1637 C 0.03526 0.17833 0.97669 0.0
H1638 H 0.04147 0.21343 0.92012 0.0
H1639 H 0.97238 0.06045 0.02895 0.0
H1640 H 0.11533 0.33573 0.87055 0.0
H1641 H 0.11131 0.30309 0.8645 0.0
H1642 H 0.16863 0.29702 0.88437 0.0
H1643 H 0.17262 0.32929 0.89 0.0
H1644 H 0.15627 0.27139 0.82395 0.0
H1645 H 0.13899 0.29564 0.96796 0.0
H1646 H 0.12132 0.31411 0.02125 0.0
H1647 H 0.07305 0.28674 0.96415 0.0
H1648 H 0.0904 0.26836 0.90982 0.0
H1649 H 0.16961 0.18945 0.90789 0.0
H1650 H 0.16692 0.22067 0.89623 0.0
H1651 H 0.10968 0.21385 0.86933 0.0
H1652 H 0.11237 0.18223 0.88131 0.0
H1653 H 0.11794 0.24522 0.92486 0.0
H1654 H 0.13635 0.21864 0.78572 0.0
H1655 H 0.15482 0.19959 0.73549 0.0
H1656 H 0.20156 0.23108 0.78547 0.0
H1657 H 0.18342 0.25016 0.83652 0.0
C1658 C 0.12706 0.32739 0.8729 0.0
C1659 C 0.14432 0.33523 0.88073 0.0
C1660 C 0.12476 0.30867 0.86987 0.0
C1661 C 0.13965 0.29731 0.8745 0.0
C1662 C 0.15685 0.30522 0.88065 0.0
C1663 C 0.15913 0.32379 0.88391 0.0
C1664 C 0.13765 0.27734 0.87411 0.0
C1665 C 0.14792 0.26576 0.84625 0.0
C1666 C 0.12645 0.26961 0.90222 0.0
C1667 C 0.11596 0.2808 0.93444 0.0
C1668 C 0.12458 0.2937 0.96642 0.0
C1669 C 0.11462 0.30415 0.99683 0.0
C1670 C 0.09606 0.30166 0.99594 0.0
C1671 C 0.08742 0.28872 0.96463 0.0
C1672 C 0.0973 0.27829 0.934 0.0
C1673 C 0.15642 0.19447 0.899 0.0
C1674 C 0.14123 0.18318 0.89534 0.0
C1675 C 0.1549 0.21244 0.89223 0.0
C1676 C 0.13811 0.21986 0.88148 0.0
C1677 C 0.12283 0.2086 0.8775 0.0
C1678 C 0.12438 0.19044 0.884 0.0
C1679 C 0.13683 0.23938 0.87534 0.0
C1680 C 0.12603 0.25085 0.90204 0.0
C1681 C 0.14759 0.24705 0.84628 0.0
C1682 C 0.15852 0.23577 0.81516 0.0
C1683 C 0.15058 0.22145 0.78619 0.0
C1684 C 0.161 0.21065 0.75755 0.0
C1685 C 0.17936 0.21411 0.75733 0.0
C1686 C 0.18733 0.22842 0.78568 0.0
C1687 C 0.17698 0.23924 0.81444 0.0
H1688 H 0.1874 0.20573 0.73516 0.0
H1689 H 0.08839 0.3097 0.01965 0.0
H1690 H 0.08425 0.89905 0.04739 0.0
H1691 H 0.05149 0.89595 0.02889 0.0
H1692 H 0.04575 0.87478 0.15135 0.0
H1693 H 0.07802 0.87834 0.17024 0.0
H1694 H 0.0246 0.85625 0.07896 0.0
H1695 H 0.03744 0.91626 0.14996 0.0
H1696 H 0.05196 0.94591 0.1581 0.0
H1697 H 0.02792 0.95475 0.03081 0.0
H1698 H 0.01343 0.92499 0.02167 0.0
H1699 H 0.94019 0.87191 0.1589 0.0
H1700 H 0.97172 0.87123 0.14432 0.0
H1701 H 0.95941 0.89602 0.02657 0.0
H1702 H 0.92734 0.8968 0.04126 0.0
H1703 H 0.98922 0.91182 0.07832 0.0
H1704 H 0.97139 0.85295 1.01599 0.0
H1705 H 0.95652 0.82365 1.01278 0.0
H1706 H 0.98989 0.81252 0.12639 0.0
H1707 H 1.00479 0.84187 0.13072 0.0
C1708 C 0.07599 0.89336 0.06972 0.0
C1709 C 0.08368 0.88882 0.11013 0.0
C1710 C 0.05727 0.89172 0.05935 0.0
C1711 C 0.04607 0.88516 0.08881 0.0
C1712 C 0.05401 0.8798 0.12798 0.0
C1713 C 0.0725 0.88184 0.13874 0.0
C1714 C 0.02601 0.88476 0.081 0.0
C1715 C 0.01687 0.86839 0.07862 0.0
C1716 C 0.01581 0.90053 0.0797 0.0
C1717 C 0.02457 0.91833 0.08486 0.0
C1718 C 0.03541 0.92445 0.12349 0.0
C1719 C 0.04359 0.94128 0.12835 0.0
C1720 C 0.0409 0.95218 0.09496 0.0
C1721 C 0.03002 0.94627 0.05661 0.0
C1722 C 0.02181 0.92942 0.05157 0.0
C1723 C 0.94404 0.87712 0.12959 0.0
C1724 C 0.9311 0.8844 0.10123 0.0
C1725 C 0.96218 0.87665 0.12118 0.0
C1726 C 0.96809 0.88342 0.08411 0.0
C1727 C 0.95524 0.89064 0.05534 0.0
C1728 C 0.93689 0.89097 0.06358 0.0
C1729 C 0.98777 0.8833 0.07708 0.0
C1730 C 0.99687 0.89958 0.07713 0.0
C1731 C 0.99796 0.86743 0.07644 0.0
C1732 C 0.98916 0.84967 0.07379 0.0
C1733 C 0.97549 0.84431 0.04046 0.0
C1734 C 0.96706 0.82768 0.03843 0.0
C1735 C 0.97224 0.81624 0.06939 0.0
C1736 C 0.98589 0.82139 0.10241 0.0
C1737 C 0.99436 0.83801 0.10463 0.0
H1738 H 0.96569 0.80338 0.06777 0.0
H1739 H 0.04718 0.96524 0.09897 0.0
H1740 H 0.38051 0.679 0.31687 0.0
H1741 H 0.37948 0.71093 0.30719 0.0
H1742 H 0.38164 0.72512 0.4485 0.0
H1743 H 0.3832 0.69367 0.45854 0.0
H1744 H 0.35162 0.74114 0.38834 0.0
H1745 H 0.41637 0.73444 0.41954 0.0
H1746 H 0.44558 0.72062 0.40511 0.0
H1747 H 0.44003 0.73331 0.27193 0.0
H1748 H 0.41072 0.74727 0.28575 0.0
H1749 H 0.36829 0.8297 0.46846 0.0
H1750 H 0.3699 0.79759 0.45082 0.0
H1751 H 0.38361 0.80344 0.31907 0.0
H1752 H 0.38211 0.83635 0.33705 0.0
H1753 H 0.40396 0.77647 0.35653 0.0
H1754 H 0.34219 0.78959 0.33222 0.0
H1755 H 0.31329 0.80388 0.34792 0.0
H1756 H 0.31205 0.77845 0.46525 0.0
H1757 H 0.3411 0.76422 0.45067 0.0
C1758 C 0.38091 0.68893 0.34587 0.0
C1759 C 0.38206 0.68361 0.38851 0.0
C1760 C 0.38033 0.7072 0.34028 0.0
C1761 C 0.38051 0.72051 0.37715 0.0
C1762 C 0.38153 0.71519 0.41952 0.0
C1763 C 0.38248 0.69709 0.42515 0.0
C1764 C 0.37915 0.74 0.3724 0.0
C1765 C 0.36305 0.74885 0.38128 0.0
C1766 C 0.39384 0.7501 0.36198 0.0
C1767 C 0.4113 0.74164 0.35346 0.0
C1768 C 0.42131 0.73411 0.38706 0.0
C1769 C 0.4379 0.7263 0.37903 0.0
C1770 C 0.44462 0.72595 0.33752 0.0
C1771 C 0.43479 0.73353 0.30402 0.0
C1772 C 0.41821 0.74143 0.31196 0.0
C1773 C 0.37168 0.82432 0.43555 0.0
C1774 C 0.37492 0.83576 0.40409 0.0
C1775 C 0.37253 0.8058 0.42546 0.0
C1776 C 0.37656 0.79785 0.38334 0.0
C1777 C 0.38035 0.80916 0.3518 0.0
C1778 C 0.37945 0.82798 0.36201 0.0
C1779 C 0.37649 0.77778 0.37359 0.0
C1780 C 0.39233 0.76878 0.36235 0.0
C1781 C 0.36145 0.76748 0.38157 0.0
C1782 C 0.34389 0.7759 0.39042 0.0
C1783 C 0.33582 0.78713 0.36153 0.0
C1784 C 0.3194 0.79521 0.37021 0.0
C1785 C 0.31085 0.79209 0.40758 0.0
C1786 C 0.31869 0.78085 0.43631 0.0
C1787 C 0.33512 0.77275 0.42781 0.0
H1788 H 0.29814 0.79836 0.41425 0.0
H1789 H 0.45747 0.71988 0.33137 0.0
H1790 H 0.57789 0.1583 0.64956 0.0
H1791 H 0.54543 0.15568 0.6369 0.0
H1792 H 0.55101 0.11743 0.52146 0.0
H1793 H 0.58407 0.11978 0.53443 0.0
H1794 H 0.51998 0.14687 0.52016 0.0
H1795 H 0.54292 0.09833 0.59492 0.0
H1796 H 0.56272 0.08534 0.65038 0.0
H1797 H 0.53925 0.11891 0.75481 0.0
H1798 H 0.51955 0.13236 0.69987 0.0
H1799 H 0.42639 0.12267 0.54148 0.0
H1800 H 0.45822 0.12192 0.52533 0.0
H1801 H 0.47318 0.14583 0.65894 0.0
H1802 H 0.44187 0.14646 0.67523 0.0
H1803 H 0.49404 0.11866 0.639 0.0
H1804 H 0.47355 0.16905 0.5669 0.0
H1805 H 0.45461 0.1841 0.51362 0.0
H1806 H 0.47339 0.14847 0.40599 0.0
H1807 H 0.49228 0.13304 0.45873 0.0
C1808 C 0.57236 0.14949 0.62092 0.0
C1809 C 0.58372 0.13911 0.59325 0.0
C1810 C 0.55369 0.14807 0.61369 0.0
C1811 C 0.54569 0.13629 0.57846 0.0
C1812 C 0.55687 0.12668 0.54883 0.0
C1813 C 0.57577 0.12805 0.55621 0.0
C1814 C 0.52586 0.13297 0.57655 0.0
C1815 C 0.51426 0.1403 0.5454 0.0
C1816 C 0.51832 0.12476 0.61003 0.0
C1817 C 0.52985 0.11644 0.64324 0.0
C1818 C 0.54208 0.10304 0.62969 0.0
C1819 C 0.55327 0.09558 0.66103 0.0
C1820 C 0.55226 0.10132 0.70609 0.0
C1821 C 0.54002 0.11449 0.71989 0.0
C1822 C 0.52883 0.12202 0.68866 0.0
C1823 C 0.43646 0.12792 0.56724 0.0
C1824 C 0.43142 0.13457 0.60974 0.0
C1825 C 0.45471 0.1275 0.55797 0.0
C1826 C 0.46829 0.13379 0.59092 0.0
C1827 C 0.46313 0.14073 0.63292 0.0
C1828 C 0.44507 0.14113 0.64215 0.0
C1829 C 0.48794 0.13286 0.58309 0.0
C1830 C 0.4996 0.12483 0.61288 0.0
C1831 C 0.49544 0.14047 0.54844 0.0
C1832 C 0.48414 0.14975 0.51677 0.0
C1833 C 0.47352 0.16433 0.53189 0.0
C1834 C 0.46282 0.17295 0.5018 0.0
C1835 C 0.46275 0.1672 0.45646 0.0
C1836 C 0.47343 0.15287 0.44112 0.0
C1837 C 0.48414 0.14419 0.4711 0.0
H1838 H 0.45446 0.17389 0.4332 0.0
H1839 H 0.56095 0.09554 0.73031 0.0
H1840 H 0.85989 0.1788 0.85498 0.0
H1841 H 0.85899 0.21059 0.84668 0.0
H1842 H 0.9052 0.22018 0.94051 0.0
H1843 H 0.90523 0.18868 0.951 0.0
H1844 H 0.88633 0.24583 0.95861 0.0
H1845 H 0.90364 0.22085 0.8168 0.0
H1846 H 0.90195 0.20106 0.74575 0.0
H1847 H 0.85061 0.2227 0.7094 0.0
H1848 H 0.85188 0.24247 0.78049 0.0
H1849 H 0.90266 0.33442 0.90093 0.0
H1850 H 0.90603 0.30187 0.89927 0.0
H1851 H 0.84933 0.29458 0.86421 0.0
H1852 H 0.84583 0.32702 0.86758 0.0
H1853 H 0.87476 0.26854 0.81427 0.0
H1854 H 0.8592 0.29321 0.96157 0.0
H1855 H 0.86394 0.31392 0.03084 0.0
H1856 H 0.9168 0.29301 0.05377 0.0
H1857 H 0.91248 0.27238 0.98418 0.0
C1858 C 0.87 0.18766 0.87341 0.0
C1859 C 0.88271 0.18103 0.90346 0.0
C1860 C 0.86956 0.20598 0.86849 0.0
C1861 C 0.88223 0.21822 0.89228 0.0
C1862 C 0.89514 0.2114 0.92166 0.0
C1863 C 0.89525 0.19322 0.92748 0.0
C1864 C 0.88171 0.23807 0.88813 0.0
C1865 C 0.8841 0.25059 0.92671 0.0
C1866 C 0.87861 0.24488 0.84693 0.0
C1867 C 0.87778 0.23302 0.80417 0.0
C1868 C 0.89193 0.2213 0.79378 0.0
C1869 C 0.89106 0.2101 0.75349 0.0
C1870 C 0.87616 0.21059 0.72313 0.0
C1871 C 0.86213 0.22232 0.73297 0.0
C1872 C 0.86292 0.23354 0.77325 0.0
C1873 C 0.89099 0.32585 0.892 0.0
C1874 C 0.87398 0.33336 0.88399 0.0
C1875 C 0.8929 0.30721 0.89129 0.0
C1876 C 0.87793 0.2956 0.88155 0.0
C1877 C 0.86112 0.30309 0.87158 0.0
C1878 C 0.85913 0.32169 0.87346 0.0
C1879 C 0.87946 0.27588 0.88446 0.0
C1880 C 0.87717 0.26353 0.84583 0.0
C1881 C 0.8831 0.2692 0.92535 0.0
C1882 C 0.8856 0.28141 0.96744 0.0
C1883 C 0.8719 0.29315 0.98118 0.0
C1884 C 0.87449 0.30485 0.02053 0.0
C1885 C 0.89068 0.30481 0.04663 0.0
C1886 C 0.90428 0.29304 0.03348 0.0
C1887 C 0.90176 0.28134 0.9941 0.0
H1888 H 0.89267 0.31388 0.07708 0.0
H1889 H 0.87551 0.20191 0.69195 0.0
H1890 H 0.63744 0.83406 0.46482 0.0
H1891 H 0.63512 0.80159 0.45998 0.0
H1892 H 0.63699 0.797 0.31842 0.0
H1893 H 0.63888 0.82984 0.32333 0.0
H1894 H 0.61467 0.77117 0.3392 0.0
H1895 H 0.67485 0.79001 0.38659 0.0
H1896 H 0.6987 0.80788 0.43229 0.0
H1897 H 0.6826 0.78772 0.54836 0.0
H1898 H 0.65849 0.76991 0.50344 0.0
H1899 H 0.63669 0.67614 0.34083 0.0
H1900 H 0.63555 0.70771 0.32716 0.0
H1901 H 0.63658 0.72442 0.46765 0.0
H1902 H 0.63809 0.69353 0.48108 0.0
H1903 H 0.65948 0.74369 0.43709 0.0
H1904 H 0.59787 0.7263 0.38968 0.0
H1905 H 0.57416 0.70844 0.34343 0.0
H1906 H 0.59347 0.72529 0.22663 0.0
H1907 H 0.61744 0.74309 0.27219 0.0
C1908 C 0.637 0.82617 0.4325 0.0
C1909 C 0.63825 0.83463 0.39446 0.0
C1910 C 0.63583 0.80749 0.42974 0.0
C1911 C 0.63627 0.7965 0.3889 0.0
C1912 C 0.63668 0.80497 0.35046 0.0
C1913 C 0.63772 0.8238 0.35322 0.0
C1914 C 0.63725 0.77637 0.38732 0.0
C1915 C 0.62465 0.76517 0.3602 0.0
C1916 C 0.65015 0.7682 0.41461 0.0
C1917 C 0.66478 0.77873 0.44167 0.0
C1918 C 0.67633 0.78947 0.4219 0.0
C1919 C 0.6899 0.79958 0.44766 0.0
C1920 C 0.69214 0.79896 0.49321 0.0
C1921 C 0.68084 0.78819 0.51308 0.0
C1922 C 0.66724 0.77807 0.48747 0.0
C1923 C 0.63643 0.68658 0.36861 0.0
C1924 C 0.63753 0.68216 0.4121 0.0
C1925 C 0.63578 0.70472 0.36085 0.0
C1926 C 0.63603 0.71881 0.39638 0.0
C1927 C 0.63657 0.71413 0.43944 0.0
C1928 C 0.63735 0.69627 0.44709 0.0
C1929 C 0.63648 0.73843 0.39031 0.0
C1930 C 0.64951 0.7496 0.41591 0.0
C1931 C 0.624 0.74646 0.36159 0.0
C1932 C 0.60956 0.73586 0.33428 0.0
C1933 C 0.59714 0.72609 0.35411 0.0
C1934 C 0.58364 0.716 0.32802 0.0
C1935 C 0.58234 0.71569 0.28211 0.0
C1936 C 0.59451 0.72552 0.26219 0.0
C1937 C 0.60804 0.73562 0.28812 0.0
H1938 H 0.57188 0.70786 0.26197 0.0
H1939 H 0.70264 0.80681 0.51311 0.0
H1940 H 0.90155 0.68538 0.15424 0.0
H1941 H 0.90469 0.71815 0.16032 0.0
H1942 H 0.84728 0.7226 0.13767 0.0
H1943 H 0.8442 0.69026 0.13118 0.0
H1944 H 0.86235 0.74212 0.08671 0.0
H1945 H 0.87195 0.73537 0.24167 0.0
H1946 H 0.88723 0.72391 0.30647 0.0
H1947 H 0.93678 0.74801 0.28103 0.0
H1948 H 0.92183 0.75942 0.21571 0.0
H1949 H 0.84419 0.83278 0.13576 0.0
H1950 H 0.84714 0.801 0.14129 0.0
H1951 H 0.90469 0.80712 0.1599 0.0
H1952 H 0.90169 0.83939 0.15529 0.0
H1953 H 0.89347 0.78236 0.21016 0.0
H1954 H 0.88391 0.79037 0.05813 0.0
H1955 H 0.86902 0.80192 0.99301 0.0
H1956 H 0.82012 0.77497 1.01153 0.0
H1957 H 0.83465 0.76347 0.07717 0.0
C1958 C 0.88961 0.6934 0.15134 0.0
C1959 C 0.87261 0.68506 0.14217 0.0
C1960 C 0.89139 0.71221 0.15477 0.0
C1961 C 0.87622 0.72316 0.14938 0.0
C1962 C 0.85929 0.71473 0.14163 0.0
C1963 C 0.85752 0.6961 0.13814 0.0
C1964 C 0.87762 0.7432 0.14961 0.0
C1965 C 0.86903 0.75084 0.11408 0.0
C1966 C 0.88685 0.75487 0.18425 0.0
C1967 C 0.89582 0.74807 0.22352 0.0
C1968 C 0.88614 0.7381 0.24969 0.0
C1969 C 0.89473 0.73164 0.28655 0.0
C1970 C 0.91298 0.73519 0.29778 0.0
C1971 C 0.92266 0.74525 0.27224 0.0
C1972 C 0.91413 0.75172 0.23532 0.0
C1973 C 0.85751 0.82748 0.14158 0.0
C1974 C 0.87269 0.83875 0.14478 0.0
C1975 C 0.85921 0.80916 0.14448 0.0
C1976 C 0.87618 0.80128 0.14996 0.0
C1977 C 0.8914 0.81266 0.15537 0.0
C1978 C 0.88969 0.83118 0.1528 0.0
C1979 C 0.87771 0.78119 0.14789 0.0
C1980 C 0.88689 0.77358 0.18278 0.0
C1981 C 0.86909 0.76943 0.11252 0.0
C1982 C 0.86035 0.77616 0.07277 0.0
C1983 C 0.86996 0.78699 0.04847 0.0
C1984 C 0.86158 0.79352 1.01145 0.0
C1985 C 0.84363 0.78921 0.99819 0.0
C1986 C 0.83403 0.77831 0.02186 0.0
C1987 C 0.84233 0.77177 0.05895 0.0
H1988 H 0.83717 0.79428 0.96954 0.0
H1989 H 0.91961 0.73018 0.32633 0.0
H1990 H 0.61348 0.18642 0.63767 0.0
H1991 H 0.61012 0.21903 0.64151 0.0
H1992 H 0.66728 0.22589 0.66939 0.0
H1993 H 0.67071 0.19342 0.66427 0.0
H1994 H 0.6464 0.25182 0.72236 0.0
H1995 H 0.65174 0.22779 0.5698 0.0
H1996 H 0.64318 0.20781 0.50102 0.0
H1997 H 0.59028 0.23009 0.49683 0.0
H1998 H 0.59844 0.25001 0.56606 0.0
H1999 H 0.65655 0.34222 0.68118 0.0
H2000 H 0.6588 0.31024 0.68631 0.0
H2001 H 0.60737 0.30141 0.61201 0.0
H2002 H 0.60597 0.33315 0.60385 0.0
H2003 H 0.62489 0.27582 0.58464 0.0
H2004 H 0.61811 0.29951 0.73632 0.0
H2005 H 0.62552 0.31938 0.806 0.0
H2006 H 0.67877 0.29799 0.81415 0.0
H2007 H 0.67169 0.27806 0.74436 0.0
C2008 C 0.62528 0.1949 0.64541 0.0
C2009 C 0.64238 0.18723 0.65089 0.0
C2010 C 0.62337 0.21359 0.64735 0.0
C2011 C 0.63845 0.22513 0.65565 0.0
C2012 C 0.6554 0.21746 0.66308 0.0
C2013 C 0.65734 0.19883 0.66016 0.0
C2014 C 0.63682 0.24499 0.65415 0.0
C2015 C 0.64178 0.25707 0.69217 0.0
C2016 C 0.6305 0.25207 0.61518 0.0
C2017 C 0.62564 0.24024 0.57337 0.0
C2018 C 0.63823 0.22832 0.55443 0.0
C2019 C 0.63346 0.21702 0.51533 0.0
C2020 C 0.61618 0.21764 0.49464 0.0
C2021 C 0.60365 0.2296 0.51294 0.0
C2022 C 0.60834 0.2409 0.5521 0.0
C2023 C 0.64562 0.33348 0.66643 0.0
C2024 C 0.63098 0.34038 0.64247 0.0
C2025 C 0.64683 0.31503 0.6696 0.0
C2026 C 0.63307 0.30295 0.65048 0.0
C2027 C 0.6183 0.31005 0.62717 0.0
C2028 C 0.6174 0.32836 0.62276 0.0
C2029 C 0.63419 0.28298 0.65325 0.0
C2030 C 0.62927 0.27076 0.61523 0.0
C2031 C 0.64026 0.27579 0.6925 0.0
C2032 C 0.64441 0.28739 0.73502 0.0
C2033 C 0.6314 0.29907 0.75297 0.0
C2034 C 0.63554 0.31034 0.79246 0.0
C2035 C 0.65261 0.30997 0.81444 0.0
C2036 C 0.66555 0.29825 0.7971 0.0
C2037 C 0.66147 0.28694 0.75764 0.0
H2038 H 0.65581 0.31874 0.84495 0.0
H2039 H 0.61252 0.20889 0.46436 0.0
H2040 H 0.93331 0.39852 0.99245 0.0
H2041 H 0.96636 0.39873 1.00517 0.0
H2042 H 0.96996 0.36542 0.88052 0.0
H2043 H 0.93754 0.36482 0.86839 0.0
H2044 H 0.99325 0.35423 0.93597 0.0
H2045 H 0.97757 0.41293 0.89852 0.0
H2046 H 0.96272 0.44217 0.9092 0.0
H2047 H 0.99089 0.45411 0.03743 0.0
H2048 H 1.00573 0.42481 0.02771 0.0
H2049 H 0.07742 0.36897 0.86002 0.0
H2050 H 0.04583 0.36888 0.87385 0.0
H2051 H 0.05825 0.3972 1.0043 0.0
H2052 H 0.09037 0.39748 0.99037 0.0
H2053 H 0.02788 0.41106 0.9617 0.0
H2054 H 0.0469 0.35329 0.99217 0.0
H2055 H 0.06208 0.32438 0.97773 0.0
H2056 H 0.02754 0.31075 0.85935 0.0
H2057 H 0.01231 0.3397 0.87271 0.0
C2058 C 0.94117 0.39106 0.96812 0.0
C2059 C 0.93256 0.3817 0.92931 0.0
C2060 C 0.96014 0.39131 0.97518 0.0
C2061 C 0.97096 0.38226 0.94356 0.0
C2062 C 0.96222 0.37254 0.90565 0.0
C2063 C 0.94347 0.37228 0.89866 0.0
C2064 C 0.99127 0.38285 0.94846 0.0
C2065 C 1.00073 0.36672 0.94146 0.0
C2066 C 1.00141 0.399 0.95688 0.0
C2067 C 0.99257 0.41661 0.96263 0.0
C2068 C 0.98049 0.42174 0.92912 0.0
C2069 C 0.97209 0.43833 0.93498 0.0
C2070 C 0.97581 0.44997 0.97403 0.0
C2071 C 0.98798 0.44506 1.00725 0.0
C2072 C 0.99639 0.42847 1.00158 0.0
C2073 C 0.07361 0.37514 0.89191 0.0
C2074 C 0.08668 0.38317 0.92412 0.0
C2075 C 0.05538 0.37502 0.89983 0.0
C2076 C 0.04942 0.38287 0.94033 0.0
C2077 C 0.06237 0.39099 0.97276 0.0
C2078 C 0.0808 0.39103 0.96489 0.0
C2079 C 0.02968 0.38248 0.94778 0.0
C2080 C 0.02038 0.39859 0.95701 0.0
C2081 C 0.01962 0.36631 0.94107 0.0
C2082 C 0.02852 0.34873 0.93334 0.0
C2083 C 0.0426 0.34417 0.96294 0.0
C2084 C 0.05121 0.32777 0.95494 0.0
C2085 C 0.0458 0.31575 0.9176 0.0
C2086 C 0.03172 0.32008 0.88826 0.0
C2087 C 0.02307 0.33647 0.89607 0.0
H2088 H 0.05251 0.30307 0.91138 0.0
H2089 H 0.9693 0.4628 0.9785 0.0
H2090 H 0.42828 0.64345 0.47699 0.0
H2091 H 0.46085 0.64531 0.49953 0.0
H2092 H 0.47198 0.61816 0.37163 0.0
H2093 H 0.44015 0.61628 0.34952 0.0
H2094 H 0.49214 0.60453 0.43293 0.0
H2095 H 0.47712 0.66349 0.39798 0.0
H2096 H 0.46096 0.69198 0.4064 0.0
H2097 H 0.48229 0.70276 0.54176 0.0
H2098 H 0.49842 0.67411 0.53419 0.0
H2099 H 0.57401 0.63298 0.36538 0.0
H2100 H 0.54243 0.63307 0.37916 0.0
H2101 H 0.55636 0.63744 0.5194 0.0
H2102 H 0.58857 0.63699 0.5059 0.0
H2103 H 0.52439 0.66241 0.47256 0.0
H2104 H 0.54349 0.60302 0.49884 0.0
H2105 H 0.56044 0.57536 0.48066 0.0
H2106 H 0.5314 0.56614 0.35298 0.0
H2107 H 0.51452 0.59394 0.37011 0.0
C2108 C 0.43773 0.63784 0.45397 0.0
C2109 C 0.43154 0.6297 0.41147 0.0
C2110 C 0.45636 0.63894 0.46675 0.0
C2111 C 0.46905 0.63182 0.43733 0.0
C2112 C 0.46267 0.62362 0.39525 0.0
C2113 C 0.44431 0.62265 0.38255 0.0
C2114 C 0.48901 0.63294 0.44867 0.0
C2115 C 0.49911 0.61721 0.44217 0.0
C2116 C 0.49835 0.64938 0.46107 0.0
C2117 C 0.48875 0.66658 0.46572 0.0
C2118 C 0.47824 0.67187 0.42965 0.0
C2119 C 0.46911 0.68806 0.43425 0.0
C2120 C 0.47053 0.69917 0.47466 0.0
C2121 C 0.48116 0.69412 0.51051 0.0
C2122 C 0.4903 0.6779 0.50609 0.0
C2123 C 0.57057 0.63411 0.3994 0.0
C2124 C 0.58406 0.63498 0.43454 0.0
C2125 C 0.55237 0.63418 0.40713 0.0
C2126 C 0.54694 0.63533 0.45023 0.0
C2127 C 0.56022 0.63665 0.48579 0.0
C2128 C 0.57864 0.63632 0.47801 0.0
C2129 C 0.52732 0.63403 0.45653 0.0
C2130 C 0.51734 0.6497 0.46537 0.0
C2131 C 0.51802 0.61756 0.44571 0.0
C2132 C 0.52784 0.60063 0.43566 0.0
C2133 C 0.54082 0.59516 0.46676 0.0
C2134 C 0.5504 0.57945 0.45667 0.0
C2135 C 0.54703 0.56902 0.41566 0.0
C2136 C 0.53401 0.57425 0.38473 0.0
C2137 C 0.52442 0.58997 0.39463 0.0
H2138 H 0.55447 0.55687 0.40789 0.0
H2139 H 0.46345 0.71172 0.47818 0.0
H2140 H 0.42307 0.39933 0.57663 0.0
H2141 H 0.45511 0.39841 0.56219 0.0
H2142 H 0.46644 0.36994 0.67446 0.0
H2143 H 0.4349 0.37171 0.68983 0.0
H2144 H 0.4889 0.3949 0.68199 0.0
H2145 H 0.46876 0.35191 0.55623 0.0
H2146 H 0.45058 0.34169 0.48679 0.0
H2147 H 0.47266 0.3838 0.42531 0.0
H2148 H 0.49082 0.3944 0.49457 0.0
H2149 H 0.57817 0.37156 0.67111 0.0
H2150 H 0.54553 0.36851 0.6611 0.0
H2151 H 0.54428 0.40249 0.55818 0.0
H2152 H 0.57737 0.40497 0.5672 0.0
H2153 H 0.51685 0.37746 0.54097 0.0
H2154 H 0.53747 0.41971 0.66517 0.0
H2155 H 0.55572 0.43021 0.73432 0.0
H2156 H 0.53209 0.3898 0.79875 0.0
H2157 H 0.51389 0.3789 0.72979 0.0
C2158 C 0.43237 0.39242 0.59729 0.0
C2159 C 0.42639 0.3854 0.63409 0.0
C2160 C 0.45078 0.39193 0.58916 0.0
C2161 C 0.46355 0.38409 0.61718 0.0
C2162 C 0.45718 0.37625 0.65238 0.0
C2163 C 0.43901 0.37708 0.66095 0.0
C2164 C 0.48359 0.38508 0.61284 0.0
C2165 C 0.49488 0.39078 0.65109 0.0
C2166 C 0.49177 0.38053 0.57241 0.0
C2167 C 0.48101 0.37405 0.5307 0.0
C2168 C 0.46965 0.35905 0.52798 0.0
C2169 C 0.45936 0.35318 0.48864 0.0
C2170 C 0.46042 0.36212 0.4517 0.0
C2171 C 0.47183 0.37691 0.45396 0.0
C2172 C 0.48214 0.38284 0.49323 0.0
C2173 C 0.57102 0.37789 0.64524 0.0
C2174 C 0.58042 0.38833 0.61963 0.0
C2175 C 0.55225 0.37632 0.63985 0.0
C2176 C 0.54215 0.38564 0.60967 0.0
C2177 C 0.5516 0.39519 0.58187 0.0
C2178 C 0.57057 0.39652 0.5868 0.0
C2179 C 0.52196 0.38655 0.61049 0.0
C2180 C 0.51074 0.38146 0.57173 0.0
C2181 C 0.51371 0.39168 0.65047 0.0
C2182 C 0.5244 0.39842 0.69222 0.0
C2183 C 0.53622 0.41302 0.69404 0.0
C2184 C 0.54656 0.41904 0.7332 0.0
C2185 C 0.54509 0.41065 0.77088 0.0
C2186 C 0.53323 0.39627 0.76953 0.0
C2187 C 0.52288 0.39018 0.73043 0.0
H2188 H 0.55311 0.41532 0.80116 0.0
H2189 H 0.45243 0.35757 0.42129 0.0
H2190 H 0.07736 0.65498 0.14457 0.0
H2191 H 0.04497 0.65263 0.13151 0.0
H2192 H 0.05046 0.61935 1.00785 0.0
H2193 H 0.08353 0.62138 0.02114 0.0
H2194 H 0.02024 0.64907 1.01313 0.0
H2195 H 0.04113 0.59703 0.0753 0.0
H2196 H 0.05989 0.58099 0.12684 0.0
H2197 H 0.03637 0.61076 0.23711 0.0
H2198 H 0.0177 0.62723 0.18623 0.0
H2199 H 0.92554 0.62604 0.02687 0.0
H2200 H 0.95747 0.62475 1.0114 0.0
H2201 H 0.97248 0.64515 0.14752 0.0
H2202 H 0.94109 0.64646 0.16306 0.0
H2203 H 0.99237 0.61699 0.1226 0.0
H2204 H 0.97429 0.67098 0.06278 0.0
H2205 H 0.95631 0.68862 1.01335 0.0
H2206 H 0.97454 0.65602 0.89992 0.0
H2207 H 0.99245 0.63803 0.94875 0.0
C2208 C 0.07187 0.64726 0.11418 0.0
C2209 C 0.08326 0.63822 0.08411 0.0
C2210 C 0.0532 0.646 0.10676 0.0
C2211 C 0.04516 0.63574 0.06889 0.0
C2212 C 0.05634 0.6274 0.03732 0.0
C2213 C 0.07525 0.62858 0.04493 0.0
C2214 C 0.02522 0.63283 0.06546 0.0
C2215 C 0.0141 0.64166 0.03622 0.0
C2216 C 0.01713 0.62351 0.09618 0.0
C2217 C 0.02811 0.61345 0.12693 0.0
C2218 C 0.04006 0.60025 0.11055 0.0
C2219 C 0.05066 0.59107 0.13965 0.0
C2220 C 0.04934 0.59488 0.18523 0.0
C2221 C 0.03738 0.60784 0.20179 0.0
C2222 C 0.02677 0.61709 0.17283 0.0
C2223 C 0.93565 0.63041 0.05335 0.0
C2224 C 0.93057 0.63633 0.09626 0.0
C2225 C 0.95395 0.62967 0.04447 0.0
C2226 C 0.96756 0.63481 0.07831 0.0
C2227 C 0.9624 0.64096 0.12079 0.0
C2228 C 0.94428 0.64177 0.12959 0.0
C2229 C 0.98722 0.63351 0.0708 0.0
C2230 C 0.99837 0.624 0.09852 0.0
C2231 C 0.99525 0.64222 0.0387 0.0
C2232 C 0.98451 0.65302 1.00939 0.0
C2233 C 0.97433 0.66747 0.0273 0.0
C2234 C 0.96418 0.67756 0.9994 0.0
C2235 C 0.96423 0.67341 0.95352 0.0
C2236 C 0.97448 0.65919 0.93546 0.0
C2237 C 0.98463 0.64905 0.96323 0.0
H2238 H 0.95637 0.68123 0.93197 0.0
H2239 H 0.05756 0.58776 0.20771 0.0
H2240 H 0.10643 0.57846 0.09997 0.0
H2241 H 0.10751 0.5481 0.06147 0.0
H2242 H 0.16488 0.5532 0.05759 0.0
H2243 H 0.16351 0.58416 0.09351 0.0
H2244 H 0.15491 0.53454 0.98719 0.0
H2245 H 0.14106 0.52767 0.13354 0.0
H2246 H 0.12476 0.53244 0.2012 0.0
H2247 H 0.07647 0.51145 0.12757 0.0
H2248 H 0.09243 0.50675 0.05933 0.0
H2249 H 0.16473 0.4382 0.93852 0.0
H2250 H 0.16578 0.46886 0.97789 0.0
H2251 H 0.10875 0.47344 0.94874 0.0
H2252 H 0.10774 0.44313 0.90866 0.0
H2253 H 0.12018 0.48629 0.03819 0.0
H2254 H 0.13632 0.49344 0.89118 0.0
H2255 H 0.15464 0.48763 0.82716 0.0
H2256 H 0.20172 0.50675 0.90899 0.0
H2257 H 0.18371 0.51244 0.97368 0.0
C2258 C 0.1193 0.57313 0.09087 0.0
C2259 C 0.1349 0.58379 0.1003 0.0
C2260 C 0.11997 0.55555 0.0691 0.0
C2261 C 0.13638 0.54771 0.05737 0.0
C2262 C 0.15198 0.55856 0.06616 0.0
C2263 C 0.15122 0.57635 0.08697 0.0
C2264 C 0.13721 0.52841 0.03579 0.0
C2265 C 0.1475 0.52404 0.99911 0.0
C2266 C 0.12754 0.51429 0.05028 0.0
C2267 C 0.11791 0.51702 0.09125 0.0
C2268 C 0.12694 0.52417 0.13173 0.0
C2269 C 0.11776 0.52685 0.17019 0.0
C2270 C 0.09958 0.52229 0.16866 0.0
C2271 C 0.09055 0.51499 0.12869 0.0
C2272 C 0.09965 0.5123 0.09012 0.0
C2273 C 0.15242 0.44575 0.94053 0.0
C2274 C 0.13616 0.43814 0.92015 0.0
C2275 C 0.15303 0.46334 0.96301 0.0
C2276 C 0.13734 0.4737 0.96638 0.0
C2277 C 0.12107 0.4659 0.94684 0.0
C2278 C 0.12052 0.44851 0.92373 0.0
C2279 C 0.13773 0.49263 0.98985 0.0
C2280 C 0.12765 0.49687 0.02675 0.0
C2281 C 0.14791 0.50649 0.97625 0.0
C2282 C 0.15871 0.50318 0.93735 0.0
C2283 C 0.15061 0.49626 0.8956 0.0
C2284 C 0.16093 0.49302 0.85918 0.0
C2285 C 0.17934 0.49677 0.86403 0.0
C2286 C 0.18746 0.50382 0.9053 0.0
C2287 C 0.1772 0.50707 0.94184 0.0
H2288 H 0.18731 0.49425 0.83579 0.0
H2289 H 0.0925 0.52438 0.19846 0.0
H2290 H 0.70616 0.89124 0.41512 0.0
H2291 H 0.73499 0.8919 0.38142 0.0
H2292 H 0.70672 0.89152 0.25297 0.0
H2293 H 0.67825 0.89031 0.28588 0.0
H2294 H 0.73281 0.87027 0.24271 0.0
H2295 H 0.72891 0.93021 0.31674 0.0
H2296 H 0.72581 0.95342 0.38027 0.0
H2297 H 0.77338 0.93465 0.44692 0.0
H2298 H 0.77664 0.91117 0.38399 0.0
H2299 H 0.80796 0.89333 0.12624 0.0
H2300 H 0.77914 0.89375 0.16037 0.0
H2301 H 0.80731 0.89085 0.28756 0.0
H2302 H 0.83581 0.89068 0.25426 0.0
H2303 H 0.78141 0.9139 0.29832 0.0
H2304 H 0.78515 0.854 0.22372 0.0
H2305 H 0.78827 0.83104 0.15968 0.0
H2306 H 0.7408 0.85019 0.09339 0.0
H2307 H 0.73754 0.87343 0.15683 0.0
C2308 C 0.70611 0.89138 0.37976 0.0
C2309 C 0.68974 0.89069 0.35348 0.0
C2310 C 0.72266 0.89183 0.36037 0.0
C2311 C 0.72328 0.89191 0.3143 0.0
C2312 C 0.70688 0.89136 0.28837 0.0
C2313 C 0.69047 0.89073 0.30751 0.0
C2314 C 0.74075 0.89231 0.29251 0.0
C2315 C 0.74329 0.88001 0.25472 0.0
C2316 C 0.75481 0.9047 0.30809 0.0
C2317 C 0.7529 0.91882 0.34587 0.0
C2318 C 0.73863 0.93095 0.34509 0.0
C2319 C 0.73686 0.94417 0.38096 0.0
C2320 C 0.74936 0.94547 0.41766 0.0
C2321 C 0.76369 0.9336 0.4185 0.0
C2322 C 0.76551 0.92035 0.38273 0.0
C2323 C 0.80801 0.8928 0.16146 0.0
C2324 C 0.82438 0.89191 0.18718 0.0
C2325 C 0.79147 0.89297 0.18104 0.0
C2326 C 0.79085 0.89218 0.22681 0.0
C2327 C 0.80721 0.89151 0.25237 0.0
C2328 C 0.82363 0.89134 0.23297 0.0
C2329 C 0.77338 0.89194 0.24851 0.0
C2330 C 0.77087 0.90422 0.2863 0.0
C2331 C 0.75932 0.87958 0.23286 0.0
C2332 C 0.76121 0.86557 0.19482 0.0
C2333 C 0.77545 0.8534 0.19535 0.0
C2334 C 0.77723 0.84032 0.15919 0.0
C2335 C 0.76477 0.83919 0.12244 0.0
C2336 C 0.75046 0.8511 0.12184 0.0
C2337 C 0.74864 0.86422 0.1579 0.0
H2338 H 0.76617 0.82906 0.09447 0.0
H2339 H 0.74796 0.95571 0.4454 0.0
H2340 H 0.38203 0.45664 0.65645 0.0
H2341 H 0.38274 0.48541 0.62724 0.0
H2342 H 0.36388 0.45943 0.49794 0.0
H2343 H 0.36385 0.43087 0.52631 0.0
H2344 H 0.38744 0.48121 0.48488 0.0
H2345 H 0.33695 0.48808 0.5734 0.0
H2346 H 0.32086 0.48859 0.64104 0.0
H2347 H 0.35617 0.53009 0.70732 0.0
H2348 H 0.37262 0.52966 0.64021 0.0
H2349 H 0.36673 0.56197 0.38912 0.0
H2350 H 0.36527 0.533 0.41721 0.0
H2351 H 0.38631 0.55752 0.54609 0.0
H2352 H 0.38727 0.58626 0.51886 0.0
H2353 H 0.36112 0.5364 0.55844 0.0
H2354 H 0.41174 0.52857 0.46718 0.0
H2355 H 0.42659 0.52776 0.39758 0.0
H2356 H 0.38894 0.48782 0.33408 0.0
H2357 H 0.37386 0.48844 0.40321 0.0
C2358 C 0.37793 0.45709 0.62188 0.0
C2359 C 0.37289 0.44126 0.594 0.0
C2360 C 0.37826 0.47364 0.60506 0.0
C2361 C 0.37318 0.47492 0.56008 0.0
C2362 C 0.36799 0.4591 0.53256 0.0
C2363 C 0.36791 0.44263 0.5491 0.0
C2364 C 0.37349 0.49246 0.54104 0.0
C2365 C 0.38145 0.49318 0.50092 0.0
C2366 C 0.36599 0.50841 0.56159 0.0
C2367 C 0.35613 0.5087 0.60194 0.0
C2368 C 0.34136 0.49722 0.6025 0.0
C2369 C 0.33217 0.49751 0.64073 0.0
C2370 C 0.33752 0.50933 0.6785 0.0
C2371 C 0.35206 0.52092 0.67807 0.0
C2372 C 0.36131 0.52067 0.63995 0.0
C2373 C 0.37112 0.56117 0.42336 0.0
C2374 C 0.37709 0.57665 0.45148 0.0
C2375 C 0.37036 0.5445 0.43951 0.0
C2376 C 0.37584 0.54276 0.48405 0.0
C2377 C 0.38189 0.55824 0.5118 0.0
C2378 C 0.38248 0.57481 0.49591 0.0
C2379 C 0.37514 0.52514 0.50248 0.0
C2380 C 0.3671 0.52441 0.54248 0.0
C2381 C 0.3824 0.50913 0.4816 0.0
C2382 C 0.39159 0.50867 0.44022 0.0
C2383 C 0.4066 0.51967 0.4383 0.0
C2384 C 0.41508 0.51922 0.39895 0.0
C2385 C 0.40872 0.50775 0.3614 0.0
C2386 C 0.3939 0.49666 0.36317 0.0
C2387 C 0.3854 0.49704 0.40243 0.0
H2388 H 0.41528 0.50743 0.33096 0.0
H2389 H 0.33039 0.50954 0.70805 0.0
H2390 H 0.82217 0.16 0.9255 0.0
H2391 H 0.79416 0.15894 0.87773 0.0
H2392 H 0.80533 0.10473 0.82454 0.0
H2393 H 0.83328 0.10573 0.87263 0.0
H2394 H 0.78593 0.15408 0.7894 0.0
H2395 H 0.76537 0.08159 0.80164 0.0
H2396 H 0.76983 0.05905 0.85292 0.0
H2397 H 0.7777 0.10064 0.96268 0.0
H2398 H 0.77306 0.1234 0.91213 0.0
H2399 H 0.7075 0.13018 0.63861 0.0
H2400 H 0.73756 0.12953 0.67752 0.0
H2401 H 0.71355 0.1315 0.80179 0.0
H2402 H 0.6838 0.13216 0.76361 0.0
H2403 H 0.73999 0.10765 0.7986 0.0
H2404 H 0.73258 0.16856 0.77016 0.0
H2405 H 0.72711 0.19252 0.72337 0.0
H2406 H 0.77345 0.17656 0.65354 0.0
H2407 H 0.77904 0.15233 0.69954 0.0
C2408 C 0.81866 0.14785 0.90361 0.0
C2409 C 0.82997 0.13294 0.90305 0.0
C2410 C 0.80266 0.14728 0.87604 0.0
C2411 C 0.79739 0.13172 0.84748 0.0
C2412 C 0.80885 0.11687 0.84647 0.0
C2413 C 0.82489 0.11746 0.87394 0.0
C2414 C 0.77974 0.13093 0.8199 0.0
C2415 C 0.77596 0.14382 0.79124 0.0
C2416 C 0.76649 0.11773 0.82224 0.0
C2417 C 0.76907 0.10417 0.85303 0.0
C2418 C 0.768 0.08591 0.83674 0.0
C2419 C 0.77056 0.0731 0.86567 0.0
C2420 C 0.77411 0.07841 0.91101 0.0
C2421 C 0.77502 0.09654 0.92754 0.0
C2422 C 0.77245 0.1094 0.89875 0.0
C2423 C 0.70863 0.13039 0.67419 0.0
C2424 C 0.69309 0.13127 0.69775 0.0
C2425 C 0.72587 0.1301 0.69651 0.0
C2426 C 0.72799 0.13055 0.74289 0.0
C2427 C 0.71245 0.13109 0.76614 0.0
C2428 C 0.69533 0.13155 0.74406 0.0
C2429 C 0.7462 0.1307 0.7678 0.0
C2430 C 0.75006 0.11773 0.79614 0.0
C2431 C 0.75943 0.14394 0.7655 0.0
C2432 C 0.75611 0.15851 0.73793 0.0
C2433 C 0.74152 0.17007 0.74458 0.0
C2434 C 0.73841 0.18371 0.71825 0.0
C2435 C 0.7499 0.18603 0.68541 0.0
C2436 C 0.76454 0.17473 0.67892 0.0
C2437 C 0.76769 0.16104 0.70512 0.0
H2438 H 0.74747 0.1966 0.66507 0.0
H2439 H 0.77611 0.06848 0.93335 0.0
H2440 H 0.90403 0.57202 0.14142 0.0
H2441 H 0.90256 0.54163 0.10197 0.0
H2442 H 0.85638 0.5557 0.02094 0.0
H2443 H 0.85744 0.58611 0.06156 0.0
H2444 H 0.87612 0.51514 0.09193 0.0
H2445 H 0.86134 0.53191 0.91348 0.0
H2446 H 0.86727 0.55592 0.86883 0.0
H2447 H 0.91362 0.57268 0.95613 0.0
H2448 H 0.90814 0.54864 1.00085 0.0
H2449 H 0.85591 0.43282 0.94938 0.0
H2450 H 0.8549 0.46326 0.98883 0.0
H2451 H 0.9034 0.47669 0.93215 0.0
H2452 H 0.90426 0.44642 0.89238 0.0
H2453 H 0.88218 0.50376 0.9304 0.0
H2454 H 0.90214 0.46899 0.04566 0.0
H2455 H 0.90098 0.44515 0.09329 0.0
H2456 H 0.85012 0.46432 0.13538 0.0
H2457 H 0.85101 0.48831 0.08801 0.0
C2458 C 0.89347 0.56868 0.11536 0.0
C2459 C 0.8809 0.58169 0.10472 0.0
C2460 C 0.89262 0.55119 0.09279 0.0
C2461 C 0.87941 0.54614 0.05809 0.0
C2462 C 0.8668 0.55912 0.04729 0.0
C2463 C 0.86743 0.57658 0.07056 0.0
C2464 C 0.87905 0.52743 0.03327 0.0
C2465 C 0.87727 0.51271 0.05651 0.0
C2466 C 0.88094 0.52395 0.98712 0.0
C2467 C 0.88418 0.5386 0.96078 0.0
C2468 C 0.87279 0.54072 0.92312 0.0
C2469 C 0.87609 0.55432 0.89778 0.0
C2470 C 0.89082 0.5658 0.90965 0.0
C2471 C 0.90221 0.56379 0.94703 0.0
C2472 C 0.89898 0.55021 0.97243 0.0
C2473 C 0.86636 0.44226 0.94532 0.0
C2474 C 0.88016 0.43705 0.91752 0.0
C2475 C 0.86584 0.45974 0.96818 0.0
C2476 C 0.87917 0.47257 0.96419 0.0
C2477 C 0.89287 0.46732 0.9361 0.0
C2478 C 0.89339 0.44988 0.91334 0.0
C2479 C 0.87892 0.49136 0.98889 0.0
C2480 C 0.88069 0.50614 0.96567 0.0
C2481 C 0.8773 0.4949 0.03523 0.0
C2482 C 0.87656 0.4803 0.06299 0.0
C2483 C 0.89065 0.46802 0.0648 0.0
C2484 C 0.89006 0.45452 0.09185 0.0
C2485 C 0.87544 0.45317 0.11721 0.0
C2486 C 0.86141 0.46536 0.11566 0.0
C2487 C 0.86197 0.47894 0.08883 0.0
H2488 H 0.87502 0.44274 0.13821 0.0
H2489 H 0.89345 0.57621 0.88982 0.0
H2490 H 0.20539 0.1248 0.91811 0.0
H2491 H 0.23434 0.12347 0.8844 0.0
H2492 H 0.20761 0.13492 0.76141 0.0
H2493 H 0.17898 0.13589 0.79413 0.0
H2494 H 0.23049 0.11012 0.74273 0.0
H2495 H 0.23391 0.16666 0.83583 0.0
H2496 H 0.2334 0.18685 0.90591 0.0
H2497 H 0.27766 0.15888 0.96222 0.0
H2498 H 0.27828 0.13836 0.89262 0.0
H2499 H 0.30843 0.1308 0.63346 0.0
H2500 H 0.2796 0.13111 0.66734 0.0
H2501 H 0.30732 0.12208 0.79134 0.0
H2502 H 0.33591 0.12248 0.75835 0.0
H2503 H 0.28389 0.14533 0.80989 0.0
H2504 H 0.2805 0.08878 0.71578 0.0
H2505 H 0.2808 0.06879 0.64529 0.0
H2506 H 0.23634 0.09695 0.59044 0.0
H2507 H 0.23592 0.11723 0.66045 0.0
C2508 C 0.20571 0.12707 0.88395 0.0
C2509 C 0.18969 0.13043 0.85912 0.0
C2510 C 0.22233 0.12638 0.86461 0.0
C2511 C 0.22338 0.1292 0.8201 0.0
C2512 C 0.20737 0.13258 0.79557 0.0
C2513 C 0.19088 0.13319 0.81464 0.0
C2514 C 0.24092 0.12859 0.79847 0.0
C2515 C 0.2421 0.11798 0.75735 0.0
C2516 C 0.25634 0.13853 0.81738 0.0
C2517 C 0.25601 0.15086 0.8592 0.0
C2518 C 0.24344 0.16473 0.86327 0.0
C2519 C 0.24315 0.17625 0.90289 0.0
C2520 C 0.25546 0.17412 0.93854 0.0
C2521 C 0.26812 0.1605 0.9346 0.0
C2522 C 0.26845 0.14892 0.89508 0.0
C2523 C 0.30834 0.12873 0.66782 0.0
C2524 C 0.3246 0.12661 0.69297 0.0
C2525 C 0.29178 0.12884 0.6873 0.0
C2526 C 0.29101 0.12644 0.73219 0.0
C2527 C 0.30729 0.12407 0.75689 0.0
C2528 C 0.32375 0.12423 0.73774 0.0
C2529 C 0.27353 0.12677 0.75414 0.0
C2530 C 0.27233 0.13738 0.79531 0.0
C2531 C 0.25808 0.11684 0.73523 0.0
C2532 C 0.2583 0.10463 0.6932 0.0
C2533 C 0.27086 0.09078 0.68858 0.0
C2534 C 0.27104 0.07938 0.64874 0.0
C2535 C 0.25863 0.08163 0.61338 0.0
C2536 C 0.24597 0.09524 0.61783 0.0
C2537 C 0.24574 0.10668 0.6576 0.0
H2538 H 0.25879 0.0728 0.58256 0.0
H2539 H 0.25521 0.18305 0.96918 0.0
H2540 H 0.60515 0.57218 0.39888 0.0
H2541 H 0.60565 0.54538 0.43595 0.0
H2542 H 0.65998 0.5579 0.48891 0.0
H2543 H 0.65932 0.58502 0.4523 0.0
H2544 H 0.62226 0.51619 0.42813 0.0
H2545 H 0.67041 0.53963 0.58258 0.0
H2546 H 0.6781 0.56725 0.63307 0.0
H2547 H 0.62584 0.58819 0.60241 0.0
H2548 H 0.6179 0.56079 0.55174 0.0
H2549 H 0.6475 0.43815 0.51846 0.0
H2550 H 0.64774 0.46682 0.49051 0.0
H2551 H 0.62315 0.49127 0.60618 0.0
H2552 H 0.62376 0.46241 0.63561 0.0
H2553 H 0.64407 0.51507 0.58495 0.0
H2554 H 0.59924 0.4787 0.49694 0.0
H2555 H 0.58661 0.45196 0.44985 0.0
H2556 H 0.62401 0.4583 0.35303 0.0
H2557 H 0.637 0.48499 0.39979 0.0
C2558 C 0.61721 0.56932 0.4186 0.0
C2559 C 0.63217 0.58094 0.42247 0.0
C2560 C 0.61752 0.55383 0.43985 0.0
C2561 C 0.6328 0.5493 0.46595 0.0
C2562 C 0.64781 0.56096 0.46992 0.0
C2563 C 0.64748 0.57654 0.44867 0.0
C2564 C 0.63306 0.53223 0.48764 0.0
C2565 C 0.62711 0.51607 0.46241 0.0
C2566 C 0.63889 0.53167 0.53283 0.0
C2567 C 0.64364 0.54823 0.56306 0.0
C2568 C 0.66058 0.55015 0.58663 0.0
C2569 C 0.665 0.56579 0.61519 0.0
C2570 C 0.65252 0.57953 0.62075 0.0
C2571 C 0.63558 0.57764 0.5978 0.0
C2572 C 0.63113 0.56208 0.56906 0.0
C2573 C 0.64218 0.44958 0.53833 0.0
C2574 C 0.63546 0.44769 0.5794 0.0
C2575 C 0.64219 0.46614 0.52193 0.0
C2576 C 0.63494 0.4815 0.54512 0.0
C2577 C 0.62873 0.47982 0.58698 0.0
C2578 C 0.62906 0.4632 0.60394 0.0
C2579 C 0.63363 0.49897 0.5251 0.0
C2580 C 0.63933 0.51519 0.5506 0.0
C2581 C 0.62703 0.49972 0.48043 0.0
C2582 C 0.61917 0.48377 0.45203 0.0
C2583 C 0.60482 0.47434 0.4657 0.0
C2584 C 0.5976 0.4592 0.43907 0.0
C2585 C 0.60451 0.45343 0.3985 0.0
C2586 C 0.61867 0.46279 0.38447 0.0
C2587 C 0.62595 0.47794 0.41099 0.0
H2588 H 0.59885 0.44175 0.37788 0.0
H2589 H 0.65595 0.59159 0.64298 0.0
H2590 H 0.30867 0.90737 0.39206 0.0
H2591 H 0.27897 0.90876 0.35194 0.0
H2592 H 0.29621 0.87072 0.24598 0.0
H2593 H 0.32581 0.87001 0.28469 0.0
H2594 H 0.27988 0.89406 0.20953 0.0
H2595 H 0.26464 0.86204 0.32748 0.0
H2596 H 0.26227 0.85675 0.40472 0.0
H2597 H 0.23019 0.90373 0.42782 0.0
H2598 H 0.23259 0.90944 0.35086 0.0
H2599 H 0.19507 0.86622 0.09759 0.0
H2600 H 0.22316 0.86715 0.14502 0.0
H2601 H 0.20633 0.91568 0.2203 0.0
H2602 H 0.17847 0.91515 0.17185 0.0
H2603 H 0.22144 0.88934 0.27404 0.0
H2604 H 0.23616 0.91959 0.15235 0.0
H2605 H 0.23795 0.9229 0.07366 0.0
H2606 H 0.27082 0.87624 0.05672 0.0
H2607 H 0.269 0.8725 0.13521 0.0
C2608 C 0.30602 0.89919 0.36042 0.0
C2609 C 0.31972 0.88864 0.34167 0.0
C2610 C 0.28895 0.89993 0.3374 0.0
C2611 C 0.28503 0.88977 0.29555 0.0
C2612 C 0.29867 0.87887 0.27773 0.0
C2613 C 0.31569 0.87841 0.30017 0.0
C2614 C 0.2672 0.89079 0.26908 0.0
C2615 C 0.26718 0.89277 0.22387 0.0
C2616 C 0.25034 0.88962 0.28724 0.0
C2617 C 0.24899 0.88629 0.33358 0.0
C2618 C 0.25722 0.87133 0.34915 0.0
C2619 C 0.25585 0.86824 0.39286 0.0
C2620 C 0.24614 0.87993 0.42121 0.0
C2621 C 0.23775 0.89471 0.40587 0.0
C2622 C 0.23911 0.89788 0.36221 0.0
C2623 C 0.19735 0.87712 0.12416 0.0
C2624 C 0.18439 0.89051 0.13112 0.0
C2625 C 0.21344 0.87763 0.15137 0.0
C2626 C 0.21695 0.89146 0.18653 0.0
C2627 C 0.20396 0.90479 0.19373 0.0
C2628 C 0.188 0.90446 0.16598 0.0
C2629 C 0.23436 0.89216 0.21482 0.0
C2630 C 0.23424 0.89061 0.26013 0.0
C2631 C 0.25113 0.89341 0.19671 0.0
C2632 C 0.25229 0.89567 0.14956 0.0
C2633 C 0.24364 0.90995 0.13176 0.0
C2634 C 0.24468 0.91192 0.08721 0.0
C2635 C 0.25445 0.89977 0.06018 0.0
C2636 C 0.26323 0.88564 0.07768 0.0
C2637 C 0.26221 0.88359 0.12221 0.0
H2638 H 0.25525 0.90132 0.02569 0.0
H2639 H 0.24508 0.8775 0.45502 0.0
H2640 H 0.66024 0.93672 0.45303 0.0
H2641 H 0.66182 0.96747 0.49101 0.0
H2642 H 0.60565 0.97416 0.45318 0.0
H2643 H 0.60435 0.94385 0.41385 0.0
H2644 H 0.61946 1.00285 0.44452 0.0
H2645 H 0.62442 0.97096 0.56898 0.0
H2646 H 0.63572 0.94931 0.61787 0.0
H2647 H 0.68842 0.97282 0.62664 0.0
H2648 H 0.6773 0.99484 0.57829 0.0
H2649 H 0.60524 0.07853 0.60886 0.0
H2650 H 0.60619 0.04811 0.56955 0.0
H2651 H 0.66324 0.05352 0.56221 0.0
H2652 H 0.66224 0.08428 0.60046 0.0
H2653 H 0.65027 0.01959 0.59355 0.0
H2654 H 0.64005 0.05453 0.47136 0.0
H2655 H 0.62385 0.07648 0.43049 0.0
H2656 H 0.5751 0.04607 0.42574 0.0
H2657 H 0.59097 0.02393 0.46662 0.0
C2658 C 0.64823 0.94474 0.45296 0.0
C2659 C 0.63217 0.93769 0.43012 0.0
C2660 C 0.64907 0.96241 0.47513 0.0
C2661 C 0.6338 0.97352 0.47591 0.0
C2662 C 0.61775 0.96627 0.45335 0.0
C2663 C 0.61698 0.94876 0.43083 0.0
C2664 C 0.63449 0.99271 0.49883 0.0
C2665 C 0.62608 1.00629 0.47732 0.0
C2666 C 0.64316 0.99781 0.54169 0.0
C2667 C 0.6501 0.98436 0.5696 0.0
C2668 C 0.63845 0.9714 0.58104 0.0
C2669 C 0.64481 0.95912 0.60881 0.0
C2670 C 0.66282 0.95958 0.62507 0.0
C2671 C 0.67448 0.97244 0.6139 0.0
C2672 C 0.66814 0.98488 0.5865 0.0
C2673 C 0.61801 0.07331 0.59874 0.0
C2674 C 0.63366 0.08396 0.60798 0.0
C2675 C 0.61853 0.05584 0.57615 0.0
C2676 C 0.63479 0.0483 0.56273 0.0
C2677 C 0.6505 0.05887 0.57214 0.0
C2678 C 0.64991 0.07654 0.59395 0.0
C2679 C 0.63526 0.02943 0.53913 0.0
C2680 C 0.64382 0.01599 0.56058 0.0
C2681 C 0.62619 0.02435 0.49692 0.0
C2682 C 0.61667 0.03766 0.47237 0.0
C2683 C 0.62585 0.0526 0.4619 0.0
C2684 C 0.61674 0.06506 0.43868 0.0
C2685 C 0.59845 0.06273 0.42576 0.0
C2686 C 0.58925 0.04788 0.43583 0.0
C2687 C 0.59831 0.03534 0.45891 0.0
H2688 H 0.59143 0.07241 0.40781 0.0
H2689 H 0.66772 0.95001 0.64647 0.0
H2690 H 0.18403 0.4042 0.78833 0.0
H2691 H 0.21232 0.40421 0.7535 0.0
H2692 H 0.23819 0.37863 0.85924 0.0
H2693 H 0.20989 0.3798 0.89587 0.0
H2694 H 0.26179 0.39852 0.83637 0.0
H2695 H 0.22165 0.35643 0.74662 0.0
H2696 H 0.19351 0.34658 0.70264 0.0
H2697 H 0.2023 0.38424 0.61265 0.0
H2698 H 0.23034 0.39452 0.65649 0.0
H2699 H 0.31607 0.35719 0.63478 0.0
H2700 H 0.28928 0.35904 0.67654 0.0
H2701 H 0.30432 0.41263 0.73378 0.0
H2702 H 0.33133 0.41065 0.69237 0.0
H2703 H 0.2606 0.37739 0.67573 0.0
H2704 H 0.28754 0.42403 0.83117 0.0
H2705 H 0.31571 0.43045 0.87832 0.0
H2706 H 0.33367 0.3771 0.83984 0.0
H2707 H 0.30579 0.37048 0.79212 0.0
C2708 C 0.19579 0.39875 0.80455 0.0
C2709 C 0.19455 0.39195 0.84501 0.0
C2710 C 0.21205 0.39854 0.78416 0.0
C2711 C 0.22761 0.39081 0.80239 0.0
C2712 C 0.22655 0.38456 0.84377 0.0
C2713 C 0.2103 0.38524 0.86493 0.0
C2714 C 0.24469 0.38907 0.77807 0.0
C2715 C 0.26139 0.39391 0.80121 0.0
C2716 C 0.24469 0.38279 0.73204 0.0
C2717 C 0.22802 0.37635 0.70511 0.0
C2718 C 0.21754 0.36266 0.71756 0.0
C2719 C 0.2016 0.35701 0.69267 0.0
C2720 C 0.19609 0.36482 0.65497 0.0
C2721 C 0.20656 0.37823 0.64193 0.0
C2722 C 0.22248 0.38396 0.66677 0.0
C2723 C 0.31376 0.36936 0.65645 0.0
C2724 C 0.32604 0.38372 0.66022 0.0
C2725 C 0.2983 0.37044 0.68038 0.0
C2726 C 0.29454 0.38592 0.70911 0.0
C2727 C 0.30683 0.40034 0.71282 0.0
C2728 C 0.32234 0.39924 0.68886 0.0
C2729 C 0.27761 0.38702 0.73396 0.0
C2730 C 0.26095 0.38206 0.71086 0.0
C2731 C 0.27769 0.39279 0.7801 0.0
C2732 C 0.29467 0.39684 0.80782 0.0
C2733 C 0.29756 0.41371 0.83269 0.0
C2734 C 0.3135 0.41741 0.85939 0.0
C2735 C 0.32655 0.40424 0.86186 0.0
C2736 C 0.32369 0.38737 0.83755 0.0
C2737 C 0.30785 0.38366 0.81052 0.0
H2738 H 0.33881 0.40711 0.88279 0.0
H2739 H 0.18373 0.36046 0.6358 0.0
H2740 H 0.85286 0.93887 0.10697 0.0
H2741 H 0.85103 0.96676 0.07404 0.0
H2742 H 0.90889 0.96932 0.07933 0.0
H2743 H 0.91058 0.94228 0.11534 0.0
H2744 H 0.90075 0.99995 0.09753 0.0
H2745 H 0.87509 0.95855 0.97396 0.0
H2746 H 0.85389 0.9358 0.93429 0.0
H2747 H 0.80946 0.96954 0.96789 0.0
H2748 H 0.83035 0.99262 1.00717 0.0
H2749 H 0.87691 0.05887 0.90501 0.0
H2750 H 0.87774 0.02953 0.93183 0.0
H2751 H 0.87602 0.0553 0.06568 0.0
H2752 H 0.87561 0.08435 0.03953 0.0
H2753 H 0.857 1.01018 0.97341 0.0
H2754 H 0.89839 0.03272 0.13967 0.0
H2755 H 0.92151 0.05525 0.16998 0.0
H2756 H 0.93867 0.05701 0.03976 0.0
H2757 H 0.9159 0.03427 1.00882 0.0
C2758 C 0.86518 0.94536 0.1009 0.0
C2759 C 0.88187 0.93823 0.114 0.0
C2760 C 0.86416 0.96136 0.08143 0.0
C2761 C 0.87981 0.97047 0.07285 0.0
C2762 C 0.89647 0.96301 0.08537 0.0
C2763 C 0.89747 0.94734 0.10592 0.0
C2764 C 0.87907 0.98799 0.05278 0.0
C2765 C 0.89114 1.00197 0.0703 0.0
C2766 C 0.86678 0.99119 1.01671 0.0
C2767 C 0.85426 0.97721 0.99385 0.0
C2768 C 0.86079 0.96105 0.97312 0.0
C2769 C 0.84885 0.94812 0.95066 0.0
C2770 C 0.83037 0.95115 0.94893 0.0
C2771 C 0.82378 0.96719 0.96936 0.0
C2772 C 0.83565 0.98023 0.99154 0.0
C2773 C 0.8767 0.05831 0.94017 0.0
C2774 C 0.87634 0.07424 0.96984 0.0
C2775 C 0.87713 0.04142 0.95559 0.0
C2776 C 0.87728 0.03989 1.00118 0.0
C2777 C 0.87639 0.0558 0.03054 0.0
C2778 C 0.87605 0.07259 1.01528 0.0
C2779 C 0.87858 0.0219 0.0184 0.0
C2780 C 0.86662 1.00797 1.00051 0.0
C2781 C 0.89126 0.01855 0.05337 0.0
C2782 C 0.90531 0.03191 0.0719 0.0
C2783 C 0.90717 0.03783 0.11756 0.0
C2784 C 0.92022 0.05065 0.13484 0.0
C2785 C 0.93153 0.05758 0.1068 0.0
C2786 C 0.92989 0.05165 0.06145 0.0
C2787 C 0.91691 0.0388 0.04402 0.0
H2788 H 0.94159 0.06754 0.12021 0.0
H2789 H 0.82117 0.94109 0.93157 0.0
H2790 H 0.20393 0.61312 0.13356 0.0
H2791 H 0.23413 0.61248 0.172 0.0
H2792 H 0.21872 0.65362 0.27301 0.0
H2793 H 0.18866 0.65403 0.23563 0.0
H2794 H 0.25349 0.65935 0.24258 0.0
H2795 H 0.21925 0.61274 0.29494 0.0
H2796 H 0.20101 0.58512 0.28458 0.0
H2797 H 0.24384 0.55634 0.22221 0.0
H2798 H 0.26225 0.58387 0.23167 0.0
H2799 H 0.31978 0.65898 0.41955 0.0
H2800 H 0.29177 0.65789 0.37226 0.0
H2801 H 0.30779 0.60805 0.30109 0.0
H2802 H 0.33547 0.60873 0.35003 0.0
H2803 H 0.27401 0.60568 0.30898 0.0
H2804 H 0.30934 0.64972 0.25841 0.0
H2805 H 0.32866 0.67647 0.26418 0.0
H2806 H 0.28581 0.70914 0.31433 0.0
H2807 H 0.2663 0.68253 0.30955 0.0
C2808 C 0.20703 0.6221 0.16379 0.0
C2809 C 0.19377 0.63358 0.18147 0.0
C2810 C 0.2243 0.62169 0.18586 0.0
C2811 C 0.2288 0.63299 0.22564 0.0
C2812 C 0.21571 0.64479 0.24248 0.0
C2813 C 0.19843 0.64494 0.22103 0.0
C2814 C 0.24685 0.63236 0.2507 0.0
C2815 C 0.25792 0.64766 0.25736 0.0
C2816 C 0.25304 0.61695 0.26889 0.0
C2817 C 0.24204 0.6004 0.26355 0.0
C2818 C 0.22472 0.60055 0.27868 0.0
C2819 C 0.21436 0.58491 0.27304 0.0
C2820 C 0.22124 0.569 0.25263 0.0
C2821 C 0.23851 0.56868 0.23795 0.0
C2822 C 0.24892 0.5843 0.24346 0.0
C2823 C 0.31733 0.64777 0.39387 0.0
C2824 C 0.33004 0.63409 0.38823 0.0
C2825 C 0.30131 0.64721 0.36644 0.0
C2826 C 0.29762 0.63309 0.33198 0.0
C2827 C 0.31019 0.61919 0.32699 0.0
C2828 C 0.32613 0.61965 0.35485 0.0
C2829 C 0.28067 0.63283 0.30165 0.0
C2830 C 0.26976 0.61737 0.29396 0.0
C2831 C 0.27482 0.64799 0.28163 0.0
C2832 C 0.28639 0.66409 0.28397 0.0
C2833 C 0.30406 0.66259 0.27091 0.0
C2834 C 0.31505 0.67773 0.274 0.0
C2835 C 0.30848 0.69449 0.2897 0.0
C2836 C 0.29089 0.69615 0.30221 0.0
C2837 C 0.27985 0.68104 0.29929 0.0
H2838 H 0.31702 0.7062 0.29211 0.0
H2839 H 0.2132 0.5569 0.24829 0.0
H2840 H 0.40416 0.94706 0.39553 0.0
H2841 H 0.40381 0.97703 0.43724 0.0
H2842 H 0.35515 0.96362 0.49336 0.0
H2843 H 0.35565 0.93353 0.45207 0.0
H2844 H 0.38274 1.00431 0.43707 0.0
H2845 H 0.35177 0.98773 0.59416 0.0
H2846 H 0.35093 0.96364 0.64122 0.0
H2847 H 0.40131 0.94403 0.59693 0.0
H2848 H 0.40243 0.96797 0.5496 0.0
H2849 H 0.35776 0.08493 0.57561 0.0
H2850 H 0.35663 0.05497 0.53261 0.0
H2851 H 0.40426 0.04054 0.60795 0.0
H2852 H 0.40585 0.07052 0.64955 0.0
H2853 H 0.37694 0.01415 0.59885 0.0
H2854 H 0.40909 0.04841 0.50956 0.0
H2855 H 0.41447 0.07315 0.46695 0.0
H2856 H 0.36766 0.05771 0.38004 0.0
H2857 H 0.36184 0.03298 0.4226 0.0
C2858 C 0.3934 0.95047 0.41686 0.0
C2859 C 0.37998 0.93779 0.4205 0.0
C2860 C 0.39316 0.96771 0.4407 0.0
C2861 C 0.37955 0.97282 0.46913 0.0
C2862 C 0.36604 0.96014 0.4725 0.0
C2863 C 0.36628 0.94288 0.44865 0.0
C2864 C 0.37952 0.99135 0.49479 0.0
C2865 C 0.38133 1.00635 0.4724 0.0
C2866 C 0.37794 0.9944 0.54117 0.0
C2867 C 0.37708 0.97953 0.56806 0.0
C2868 C 0.36262 0.97822 0.59435 0.0
C2869 C 0.36209 0.96459 0.62103 0.0
C2870 C 0.37602 0.95229 0.62197 0.0
C2871 C 0.39046 0.95349 0.59596 0.0
C2872 C 0.39102 0.96706 0.56908 0.0
C2873 C 0.36809 0.07544 0.58269 0.0
C2874 C 0.38201 0.08028 0.61584 0.0
C2875 C 0.3674 0.05825 0.55815 0.0
C2876 C 0.38038 0.04536 0.56682 0.0
C2877 C 0.39405 0.05011 0.6005 0.0
C2878 C 0.39496 0.06735 0.62428 0.0
C2879 C 0.37988 0.02695 0.54099 0.0
C2880 C 0.37803 0.01203 0.56338 0.0
C2881 C 0.38169 0.02397 0.49482 0.0
C2882 C 0.38492 0.03897 0.46956 0.0
C2883 C 0.39982 0.05041 0.48168 0.0
C2884 C 0.40298 0.06439 0.45746 0.0
C2885 C 0.39143 0.06698 0.4208 0.0
C2886 C 0.37661 0.05566 0.40843 0.0
C2887 C 0.37337 0.04166 0.43258 0.0
H2888 H 0.39401 0.07772 0.40191 0.0
H2889 H 0.37567 0.94191 0.64311 0.0
H2890 H 0.83572 0.62446 0.24489 0.0
H2891 H 0.80751 0.62401 0.27967 0.0
H2892 H 0.77836 0.63121 0.15627 0.0
H2893 H 0.80692 0.63153 0.12065 0.0
H2894 H 0.76663 0.65407 0.22917 0.0
H2895 H 0.77707 0.59148 0.19322 0.0
H2896 H 0.79461 0.56379 0.19117 0.0
H2897 H 0.79981 0.56973 0.33314 0.0
H2898 H 0.7825 0.59762 0.33605 0.0
H2899 H 0.68001 0.63835 0.29213 0.0
H2900 H 0.70816 0.63755 0.25769 0.0
H2901 H 0.73579 0.62292 0.37644 0.0
H2902 H 0.70704 0.62312 0.41122 0.0
H2903 H 0.74871 0.60391 0.3066 0.0
H2904 H 0.73905 0.66606 0.34442 0.0
H2905 H 0.72233 0.69429 0.34892 0.0
H2906 H 0.71683 0.69015 0.20717 0.0
H2907 H 0.73331 0.66175 0.20179 0.0
C2908 C 0.82336 0.62583 0.22473 0.0
C2909 C 0.82375 0.62801 0.17965 0.0
C2910 C 0.80712 0.62551 0.24487 0.0
C2911 C 0.79062 0.62748 0.22085 0.0
C2912 C 0.79085 0.62962 0.17571 0.0
C2913 C 0.80721 0.62969 0.15522 0.0
C2914 C 0.77336 0.62768 0.24356 0.0
C2915 C 0.76257 0.64296 0.2454 0.0
C2916 C 0.76826 0.61353 0.26647 0.0
C2917 C 0.77862 0.59674 0.26484 0.0
C2918 C 0.78207 0.58697 0.22401 0.0
C2919 C 0.79195 0.57122 0.22269 0.0
C2920 C 0.79836 0.56503 0.262 0.0
C2921 C 0.79485 0.57456 0.30272 0.0
C2922 C 0.78499 0.59033 0.30422 0.0
C2923 C 0.69196 0.63494 0.31137 0.0
C2924 C 0.69099 0.63079 0.35484 0.0
C2925 C 0.70826 0.63465 0.29146 0.0
C2926 C 0.72442 0.63048 0.31431 0.0
C2927 C 0.72363 0.62628 0.35783 0.0
C2928 C 0.70714 0.62649 0.37791 0.0
C2929 C 0.74183 0.63028 0.29204 0.0
C2930 C 0.75271 0.61503 0.29036 0.0
C2931 C 0.74713 0.64456 0.26967 0.0
C2932 C 0.73729 0.66169 0.27271 0.0
C2933 C 0.73417 0.6711 0.3142 0.0
C2934 C 0.72475 0.68714 0.31691 0.0
C2935 C 0.71849 0.69399 0.27835 0.0
C2936 C 0.72167 0.68482 0.237 0.0
C2937 C 0.73107 0.66876 0.2341 0.0
H2938 H 0.71119 0.70641 0.28052 0.0
H2939 H 0.806 0.55283 0.26091 0.0
H2940 H 0.15526 0.09143 0.97206 0.0
H2941 H 0.15621 0.06446 1.00844 0.0
H2942 H 0.11116 0.04277 0.92117 0.0
H2943 H 0.10911 0.07049 0.88838 0.0
H2944 H 0.10593 0.03192 0.98919 0.0
H2945 H 0.16092 0.02992 0.91801 0.0
H2946 H 0.19027 0.04056 0.89949 0.0
H2947 H 0.21018 0.04395 0.03583 0.0
H2948 H 0.18086 0.03351 0.05523 0.0
H2949 H 0.12127 0.93962 1.00844 0.0
H2950 H 0.12094 0.96903 0.98362 0.0
H2951 H 0.14867 0.99134 0.1071 0.0
H2952 H 0.14876 0.9617 0.13278 0.0
H2953 H 0.16317 1.0023 0.02726 0.0
H2954 H 0.10598 0.99993 0.09125 0.0
H2955 H 0.07653 0.98666 0.10015 0.0
H2956 H 0.06101 0.9881 0.96258 0.0
H2957 H 0.09046 1.00112 0.95268 0.0
C2958 C 0.14537 0.08106 0.96114 0.0
C2959 C 0.13195 0.08344 0.92754 0.0
C2960 C 0.14612 0.06529 0.9815 0.0
C2961 C 0.13399 0.05093 0.96754 0.0
C2962 C 0.12072 0.05334 0.93345 0.0
C2963 C 0.11961 0.06931 0.91424 0.0
C2964 C 0.13473 0.03361 0.98837 0.0
C2965 C 0.11855 0.02548 0.99675 0.0
C2966 C 0.15103 0.02485 0.99964 0.0
C2967 C 0.16864 0.03113 0.98813 0.0
C2968 C 0.17152 0.03305 0.94407 0.0
C2969 C 0.18815 0.03903 0.93342 0.0
C2970 C 0.20206 0.04299 0.96649 0.0
C2971 C 0.19938 0.04091 1.01027 0.0
C2972 C 0.18277 0.03496 0.02111 0.0
C2973 C 0.12729 0.95072 0.03066 0.0
C2974 C 0.13504 0.94807 0.07288 0.0
C2975 C 0.12705 0.96766 1.01627 0.0
C2976 C 0.13474 0.98264 0.04325 0.0
C2977 C 0.14262 0.98011 0.08541 0.0
C2978 C 0.14258 0.96311 0.10024 0.0
C2979 C 0.13444 1.00074 0.027 0.0
C2980 C 0.15066 1.00893 0.01961 0.0
C2981 C 0.11818 1.00923 1.0151 0.0
C2982 C 0.10048 1.00139 0.02117 0.0
C2983 C 0.09634 0.99728 0.06282 0.0
C2984 C 0.07964 0.98982 0.06805 0.0
C2985 C 0.06692 0.98652 0.03193 0.0
C2986 C 0.07088 0.99066 0.99051 0.0
C2987 C 0.08756 0.99809 0.98509 0.0
H2988 H 0.05397 0.98082 0.03598 0.0
H2989 H 0.21492 0.04761 0.95817 0.0
H2990 H 0.69192 0.36481 0.6101 0.0
H2991 H 0.72021 0.36532 0.65604 0.0
H2992 H 0.70516 0.4149 0.73008 0.0
H2993 H 0.67706 0.41476 0.6826 0.0
H2994 H 0.73899 0.41707 0.7203 0.0
H2995 H 0.70409 0.37308 0.7714 0.0
H2996 H 0.68445 0.34657 0.76622 0.0
H2997 H 0.72626 0.3135 0.71221 0.0
H2998 H 0.74608 0.33986 0.7163 0.0
H2999 H 0.81142 0.40792 0.88923 0.0
H3000 H 0.78079 0.40897 0.85337 0.0
H3001 H 0.79462 0.36831 0.74947 0.0
H3002 H 0.82514 0.36753 0.78427 0.0
H3003 H 0.76008 0.3626 0.78226 0.0
H3004 H 0.79374 0.40949 0.7292 0.0
H3005 H 0.81217 0.43699 0.73928 0.0
H3006 H 0.77048 0.46562 0.80675 0.0
H3007 H 0.7519 0.43821 0.7976 0.0
C3008 C 0.6946 0.37585 0.63616 0.0
C3009 C 0.68203 0.38963 0.64285 0.0
C3010 C 0.71082 0.37607 0.66283 0.0
C3011 C 0.71494 0.38996 0.69764 0.0
C3012 C 0.70248 0.40393 0.70387 0.0
C3013 C 0.68628 0.40379 0.67682 0.0
C3014 C 0.73225 0.38987 0.72685 0.0
C3015 C 0.74336 0.4052 0.73437 0.0
C3016 C 0.73829 0.37449 0.74571 0.0
C3017 C 0.72654 0.3585 0.74382 0.0
C3018 C 0.70908 0.36017 0.75816 0.0
C3019 C 0.6979 0.34517 0.75543 0.0
C3020 C 0.70409 0.32837 0.73881 0.0
C3021 C 0.72149 0.32653 0.72503 0.0
C3022 C 0.73271 0.3415 0.72758 0.0
C3023 C 0.8079 0.39913 0.8589 0.0
C3024 C 0.82089 0.38768 0.83973 0.0
C3025 C 0.79036 0.39977 0.83828 0.0
C3026 C 0.78523 0.38872 0.79843 0.0
C3027 C 0.79807 0.37696 0.78008 0.0
C3028 C 0.81562 0.37659 0.80008 0.0
C3029 C 0.76681 0.38965 0.77486 0.0
C3030 C 0.75553 0.37447 0.76843 0.0
C3031 C 0.76041 0.40528 0.75798 0.0
C3032 C 0.77152 0.42176 0.76317 0.0
C3033 C 0.78857 0.42162 0.74652 0.0
C3034 C 0.79903 0.43719 0.75199 0.0
C3035 C 0.79252 0.45303 0.77376 0.0
C3036 C 0.77552 0.45334 0.78997 0.0
C3037 C 0.76501 0.43779 0.78463 0.0
H3038 H 0.80064 0.46507 0.77797 0.0
H3039 H 0.69541 0.31677 0.73669 0.0
loop_
_geom_bond_atom_site_label_1
_geom_bond_atom_site_label_2
_geom_bond_distance
_geom_bond_site_symmetry_2
_ccdc_geom_bond_type
La0 C2 2.928 1_554 S
La0 O20 2.521 1_554 S
La0 O21 2.628 1_554 S
La0 O22 2.554 . S
La0 O23 2.757 . S
La0 O24 2.470 . S
La0 O29 2.482 . S
La0 O31 2.503 . S
La1 C11 2.928 . S
La1 O23 2.482 . S
La1 O25 2.503 . S
La1 O26 2.521 . S
La1 O27 2.628 . S
La1 O28 2.554 . S
La1 O29 2.757 . S
La1 O30 2.470 . S
C2 La0 2.928 1_556 S
C2 C3 1.503 . S
C2 O20 1.261 . S
C2 O21 1.243 . S
C3 C2 1.503 . S
C3 C4 1.394 . S
C3 C8 1.373 . S
C4 C3 1.394 . S
C4 C5 1.380 . S
C4 H32 0.930 . S
C5 C4 1.380 . S
C5 C6 1.376 . S
C5 H33 0.930 . S
C6 C5 1.376 . S
C6 C7 1.370 . S
C7 C6 1.370 . S
C7 C8 1.396 . S
C7 H34 0.929 . S
C8 C3 1.373 . S
C8 C7 1.396 . S
C8 H35 0.929 . S
C9 O22 1.240 . S
C9 O23 1.289 . S
C10 O24 1.258 . S
C10 O25 1.256 . S
C11 La1 2.928 . S
C11 C12 1.503 . S
C11 O26 1.261 . S
C11 O27 1.243 . S
C12 C11 1.503 . S
C12 C13 1.394 . S
C12 C17 1.373 . S
C13 C12 1.394 . S
C13 C14 1.380 . S
C13 H36 0.930 . S
C14 C13 1.380 . S
C14 C15 1.376 . S
C14 H37 0.930 . S
C15 C14 1.376 . S
C15 C16 1.370 . S
C16 C15 1.370 . S
C16 C17 1.396 . S
C16 H38 0.929 . S
C17 C12 1.373 . S
C17 C16 1.396 . S
C17 H39 0.929 . S
C18 O28 1.240 . S
C18 O29 1.289 . S
C19 O30 1.258 . S
C19 O31 1.256 . S
O20 La0 2.521 1_556 S
O20 C2 1.261 . S
O21 La0 2.628 1_556 S
O21 C2 1.243 . S
O22 La0 2.554 . S
O22 C9 1.240 . S
O23 La0 2.757 . S
O23 La1 2.482 . S
O23 C9 1.289 . S
O24 La0 2.470 . S
O24 C10 1.258 . S
O25 La1 2.503 . S
O25 C10 1.256 . S
O26 La1 2.521 . S
O26 C11 1.261 . S
O27 La1 2.628 . S
O27 C11 1.243 . S
O28 La1 2.554 . S
O28 C18 1.240 . S
O29 La0 2.482 . S
O29 La1 2.757 . S
O29 C18 1.289 . S
O30 La1 2.470 . S
O30 C19 1.258 . S
O31 La0 2.503 . S
O31 C19 1.256 . S
H32 C4 0.930 . S
H33 C5 0.930 . S
H34 C7 0.929 . S
H35 C8 0.929 . S
H36 C13 0.930 . S
H37 C14 0.930 . S
H38 C16 0.929 . S
H39 C17 0.929 . S
La40 C42 2.928 . S
La40 O60 2.521 . S
La40 O61 2.628 . S
La40 O62 2.554 . S
La40 O63 2.757 . S
La40 O64 2.470 . S
La40 O69 2.482 . S
La40 O71 2.503 . S
La41 C51 2.928 . S
La41 O63 2.482 . S
La41 O65 2.503 . S
La41 O66 2.521 . S
La41 O67 2.628 . S
La41 O68 2.554 . S
La41 O69 2.757 . S
La41 O70 2.470 . S
C42 La40 2.928 . S
C42 C43 1.503 . S
C42 O60 1.261 . S
C42 O61 1.243 . S
C43 C42 1.503 . S
C43 C44 1.394 . S
C43 C48 1.373 . S
C44 C43 1.394 . S
C44 C45 1.380 . S
C44 H72 0.930 . S
C45 C44 1.380 . S
C45 C46 1.376 . S
C45 H73 0.930 . S
C46 C45 1.376 . S
C46 C47 1.370 . S
C47 C46 1.370 . S
C47 C48 1.396 . S
C47 H74 0.929 . S
C48 C43 1.373 . S
C48 C47 1.396 . S
C48 H75 0.929 . S
C49 O62 1.240 . S
C49 O63 1.289 . S
C50 O64 1.258 . S
C50 O65 1.256 . S
C51 La41 2.928 . S
C51 C52 1.503 . S
C51 O66 1.261 . S
C51 O67 1.243 . S
C52 C51 1.503 . S
C52 C53 1.394 . S
C52 C57 1.373 . S
C53 C52 1.394 . S
C53 C54 1.380 . S
C53 H76 0.930 . S
C54 C53 1.380 . S
C54 C55 1.376 . S
C54 H77 0.930 . S
C55 C54 1.376 . S
C55 C56 1.370 . S
C56 C55 1.370 . S
C56 C57 1.396 . S
C56 H78 0.929 . S
C57 C52 1.373 . S
C57 C56 1.396 . S
C57 H79 0.929 . S
C58 O68 1.240 . S
C58 O69 1.289 . S
C59 O70 1.258 . S
C59 O71 1.256 . S
O60 La40 2.521 . S
O60 C42 1.261 . S
O61 La40 2.628 . S
O61 C42 1.243 . S
O62 La40 2.554 . S
O62 C49 1.240 . S
O63 La40 2.757 . S
O63 La41 2.482 . S
O63 C49 1.289 . S
O64 La40 2.470 . S
O64 C50 1.258 . S
O65 La41 2.503 . S
O65 C50 1.256 . S
O66 La41 2.521 . S
O66 C51 1.261 . S
O67 La41 2.628 . S
O67 C51 1.243 . S
O68 La41 2.554 . S
O68 C58 1.240 . S
O69 La40 2.482 . S
O69 La41 2.757 . S
O69 C58 1.289 . S
O70 La41 2.470 . S
O70 C59 1.258 . S
O71 La40 2.503 . S
O71 C59 1.256 . S
H72 C44 0.930 . S
H73 C45 0.930 . S
H74 C47 0.929 . S
H75 C48 0.929 . S
H76 C53 0.930 . S
H77 C54 0.930 . S
H78 C56 0.929 . S
H79 C57 0.929 . S
La80 C82 2.928 . S
La80 O100 2.521 . S
La80 O101 2.628 . S
La80 O102 2.554 . S
La80 O103 2.757 . S
La80 O104 2.470 . S
La80 O109 2.482 . S
La80 O111 2.503 . S
La81 C91 2.928 . S
La81 O103 2.482 . S
La81 O105 2.503 . S
La81 O106 2.521 . S
La81 O107 2.628 . S
La81 O108 2.554 . S
La81 O109 2.757 . S
La81 O110 2.470 . S
C82 La80 2.928 . S
C82 C83 1.503 . S
C82 O100 1.261 . S
C82 O101 1.243 . S
C83 C82 1.503 . S
C83 C84 1.394 . S
C83 C88 1.373 . S
C84 C83 1.394 . S
C84 C85 1.380 . S
C84 H112 0.930 . S
C85 C84 1.380 . S
C85 C86 1.376 . S
C85 H113 0.930 . S
C86 C85 1.376 . S
C86 C87 1.370 . S
C87 C86 1.370 . S
C87 C88 1.396 . S
C87 H114 0.929 . S
C88 C83 1.373 . S
C88 C87 1.396 . S
C88 H115 0.929 . S
C89 O102 1.240 . S
C89 O103 1.289 . S
C90 O104 1.258 . S
C90 O105 1.256 . S
C91 La81 2.928 . S
C91 C92 1.503 . S
C91 O106 1.261 . S
C91 O107 1.243 . S
C92 C91 1.503 . S
C92 C93 1.394 . S
C92 C97 1.373 . S
C93 C92 1.394 . S
C93 C94 1.380 . S
C93 H116 0.930 . S
C94 C93 1.380 . S
C94 C95 1.376 . S
C94 H117 0.930 . S
C95 C94 1.376 . S
C95 C96 1.370 . S
C96 C95 1.370 . S
C96 C97 1.396 . S
C96 H118 0.929 . S
C97 C92 1.373 . S
C97 C96 1.396 . S
C97 H119 0.929 . S
C98 O108 1.240 . S
C98 O109 1.289 . S
C99 O110 1.258 . S
C99 O111 1.256 . S
O100 La80 2.521 . S
O100 C82 1.261 . S
O101 La80 2.628 . S
O101 C82 1.243 . S
O102 La80 2.554 . S
O102 C89 1.240 . S
O103 La80 2.757 . S
O103 La81 2.482 . S
O103 C89 1.289 . S
O104 La80 2.470 . S
O104 C90 1.258 . S
O105 La81 2.503 . S
O105 C90 1.256 . S
O106 La81 2.521 . S
O106 C91 1.261 . S
O107 La81 2.628 . S
O107 C91 1.243 . S
O108 La81 2.554 . S
O108 C98 1.240 . S
O109 La80 2.482 . S
O109 La81 2.757 . S
O109 C98 1.289 . S
O110 La81 2.470 . S
O110 C99 1.258 . S
O111 La80 2.503 . S
O111 C99 1.256 . S
H112 C84 0.930 . S
H113 C85 0.930 . S
H114 C87 0.929 . S
H115 C88 0.929 . S
H116 C93 0.930 . S
H117 C94 0.930 . S
H118 C96 0.929 . S
H119 C97 0.929 . S
La120 C122 2.928 . S
La120 O140 2.521 . S
La120 O141 2.628 . S
La120 O142 2.554 . S
La120 O143 2.757 . S
La120 O144 2.470 . S
La120 O149 2.482 . S
La120 O151 2.503 . S
La121 C131 2.928 . S
La121 O143 2.482 1_554 S
La121 O145 2.503 1_554 S
La121 O146 2.521 . S
La121 O147 2.628 . S
La121 O148 2.554 1_554 S
La121 O149 2.757 1_554 S
La121 O150 2.470 . S
C122 La120 2.928 . S
C122 C123 1.503 . S
C122 O140 1.261 . S
C122 O141 1.243 . S
C123 C122 1.503 . S
C123 C124 1.394 . S
C123 C128 1.373 . S
C124 C123 1.394 . S
C124 C125 1.380 . S
C124 H152 0.930 . S
C125 C124 1.380 . S
C125 C126 1.376 . S
C125 H153 0.930 . S
C126 C125 1.376 . S
C126 C127 1.370 . S
C127 C126 1.370 . S
C127 C128 1.396 . S
C127 H154 0.929 . S
C128 C123 1.373 . S
C128 C127 1.396 . S
C128 H155 0.929 . S
C129 O142 1.240 . S
C129 O143 1.289 . S
C130 O144 1.258 . S
C130 O145 1.256 . S
C131 La121 2.928 . S
C131 C132 1.503 . S
C131 O146 1.261 . S
C131 O147 1.243 . S
C132 C131 1.503 . S
C132 C133 1.394 . S
C132 C137 1.373 . S
C133 C132 1.394 . S
C133 C134 1.380 . S
C133 H156 0.930 . S
C134 C133 1.380 . S
C134 C135 1.376 . S
C134 H157 0.930 . S
C135 C134 1.376 . S
C135 C136 1.370 . S
C136 C135 1.370 . S
C136 C137 1.396 . S
C136 H158 0.929 . S
C137 C132 1.373 . S
C137 C136 1.396 . S
C137 H159 0.929 . S
C138 O148 1.240 . S
C138 O149 1.289 . S
C139 O150 1.258 1_556 S
C139 O151 1.256 . S
O140 La120 2.521 . S
O140 C122 1.261 . S
O141 La120 2.628 . S
O141 C122 1.243 . S
O142 La120 2.554 . S
O142 C129 1.240 . S
O143 La120 2.757 . S
O143 La121 2.482 1_556 S
O143 C129 1.289 . S
O144 La120 2.470 . S
O144 C130 1.258 . S
O145 La121 2.503 1_556 S
O145 C130 1.256 . S
O146 La121 2.521 . S
O146 C131 1.261 . S
O147 La121 2.628 . S
O147 C131 1.243 . S
O148 La121 2.554 1_556 S
O148 C138 1.240 . S
O149 La120 2.482 . S
O149 La121 2.757 1_556 S
O149 C138 1.289 . S
O150 La121 2.470 . S
O150 C139 1.258 1_554 S
O151 La120 2.503 . S
O151 C139 1.256 . S
H152 C124 0.930 . S
H153 C125 0.930 . S
H154 C127 0.929 . S
H155 C128 0.929 . S
H156 C133 0.930 . S
H157 C134 0.930 . S
H158 C136 0.929 . S
H159 C137 0.929 . S
La160 C162 2.928 1_556 S
La160 O180 2.521 1_556 S
La160 O181 2.628 1_556 S
La160 O182 2.554 . S
La160 O183 2.757 . S
La160 O184 2.470 . S
La160 O189 2.482 . S
La160 O191 2.503 . S
La161 C171 2.928 . S
La161 O183 2.482 . S
La161 O185 2.503 . S
La161 O186 2.521 . S
La161 O187 2.628 . S
La161 O188 2.554 . S
La161 O189 2.757 . S
La161 O190 2.470 . S
C162 La160 2.928 1_554 S
C162 C163 1.503 . S
C162 O180 1.261 . S
C162 O181 1.243 . S
C163 C162 1.503 . S
C163 C164 1.394 . S
C163 C168 1.373 . S
C164 C163 1.394 . S
C164 C165 1.380 . S
C164 H192 0.930 . S
C165 C164 1.380 . S
C165 C166 1.376 . S
C165 H193 0.930 . S
C166 C165 1.376 . S
C166 C167 1.370 . S
C167 C166 1.370 . S
C167 C168 1.396 . S
C167 H194 0.929 . S
C168 C163 1.373 . S
C168 C167 1.396 . S
C168 H195 0.929 . S
C169 O182 1.240 . S
C169 O183 1.289 . S
C170 O184 1.258 . S
C170 O185 1.256 . S
C171 La161 2.928 . S
C171 C172 1.503 . S
C171 O186 1.261 . S
C171 O187 1.243 . S
C172 C171 1.503 . S
C172 C173 1.394 . S
C172 C177 1.373 . S
C173 C172 1.394 . S
C173 C174 1.380 . S
C173 H196 0.930 . S
C174 C173 1.380 . S
C174 C175 1.376 . S
C174 H197 0.930 . S
C175 C174 1.376 . S
C175 C176 1.370 . S
C176 C175 1.370 . S
C176 C177 1.396 . S
C176 H198 0.929 . S
C177 C172 1.373 . S
C177 C176 1.396 . S
C177 H199 0.929 . S
C178 O188 1.240 . S
C178 O189 1.289 . S
C179 O190 1.258 . S
C179 O191 1.256 . S
O180 La160 2.521 1_554 S
O180 C162 1.261 . S
O181 La160 2.628 1_554 S
O181 C162 1.243 . S
O182 La160 2.554 . S
O182 C169 1.240 . S
O183 La160 2.757 . S
O183 La161 2.482 . S
O183 C169 1.289 . S
O184 La160 2.470 . S
O184 C170 1.258 . S
O185 La161 2.503 . S
O185 C170 1.256 . S
O186 La161 2.521 . S
O186 C171 1.261 . S
O187 La161 2.628 . S
O187 C171 1.243 . S
O188 La161 2.554 . S
O188 C178 1.240 . S
O189 La160 2.482 . S
O189 La161 2.757 . S
O189 C178 1.289 . S
O190 La161 2.470 . S
O190 C179 1.258 . S
O191 La160 2.503 . S
O191 C179 1.256 . S
H192 C164 0.930 . S
H193 C165 0.930 . S
H194 C167 0.929 . S
H195 C168 0.929 . S
H196 C173 0.930 . S
H197 C174 0.930 . S
H198 C176 0.929 . S
H199 C177 0.929 . S
La200 C202 2.928 1_554 S
La200 O220 2.521 1_554 S
La200 O221 2.628 . S
La200 O222 2.554 . S
La200 O223 2.757 . S
La200 O224 2.470 . S
La200 O229 2.482 . S
La200 O231 2.503 . S
La201 C211 2.928 . S
La201 O223 2.482 . S
La201 O225 2.503 . S
La201 O226 2.521 . S
La201 O227 2.628 . S
La201 O228 2.554 . S
La201 O229 2.757 . S
La201 O230 2.470 . S
C202 La200 2.928 1_556 S
C202 C203 1.503 . S
C202 O220 1.261 . S
C202 O221 1.243 1_556 S
C203 C202 1.503 . S
C203 C204 1.394 . S
C203 C208 1.373 . S
C204 C203 1.394 . S
C204 C205 1.380 . S
C204 H232 0.930 . S
C205 C204 1.380 . S
C205 C206 1.376 . S
C205 H233 0.930 . S
C206 C205 1.376 . S
C206 C207 1.370 . S
C207 C206 1.370 . S
C207 C208 1.396 . S
C207 H234 0.929 . S
C208 C203 1.373 . S
C208 C207 1.396 . S
C208 H235 0.929 . S
C209 O222 1.240 . S
C209 O223 1.289 . S
C210 O224 1.258 . S
C210 O225 1.256 . S
C211 La201 2.928 . S
C211 C212 1.503 . S
C211 O226 1.261 . S
C211 O227 1.243 . S
C212 C211 1.503 . S
C212 C213 1.394 . S
C212 C217 1.373 . S
C213 C212 1.394 . S
C213 C214 1.380 . S
C213 H236 0.930 . S
C214 C213 1.380 . S
C214 C215 1.376 . S
C214 H237 0.930 . S
C215 C214 1.376 . S
C215 C216 1.370 . S
C216 C215 1.370 . S
C216 C217 1.396 . S
C216 H238 0.929 . S
C217 C212 1.373 . S
C217 C216 1.396 . S
C217 H239 0.929 . S
C218 O228 1.240 . S
C218 O229 1.289 . S
C219 O230 1.258 . S
C219 O231 1.256 . S
O220 La200 2.521 1_556 S
O220 C202 1.261 . S
O221 La200 2.628 . S
O221 C202 1.243 1_554 S
O222 La200 2.554 . S
O222 C209 1.240 . S
O223 La200 2.757 . S
O223 La201 2.482 . S
O223 C209 1.289 . S
O224 La200 2.470 . S
O224 C210 1.258 . S
O225 La201 2.503 . S
O225 C210 1.256 . S
O226 La201 2.521 . S
O226 C211 1.261 . S
O227 La201 2.628 . S
O227 C211 1.243 . S
O228 La201 2.554 . S
O228 C218 1.240 . S
O229 La200 2.482 . S
O229 La201 2.757 . S
O229 C218 1.289 . S
O230 La201 2.470 . S
O230 C219 1.258 . S
O231 La200 2.503 . S
O231 C219 1.256 . S
H232 C204 0.930 . S
H233 C205 0.930 . S
H234 C207 0.929 . S
H235 C208 0.929 . S
H236 C213 0.930 . S
H237 C214 0.930 . S
H238 C216 0.929 . S
H239 C217 0.929 . S
La240 C242 2.928 . S
La240 O260 2.521 . S
La240 O261 2.628 . S
La240 O262 2.554 . S
La240 O263 2.757 . S
La240 O264 2.470 . S
La240 O269 2.482 . S
La240 O271 2.503 . S
La241 C251 2.928 . S
La241 O263 2.482 . S
La241 O265 2.503 . S
La241 O266 2.521 . S
La241 O267 2.628 . S
La241 O268 2.554 . S
La241 O269 2.757 . S
La241 O270 2.470 . S
C242 La240 2.928 . S
C242 C243 1.503 . S
C242 O260 1.261 . S
C242 O261 1.243 . S
C243 C242 1.503 . S
C243 C244 1.394 . S
C243 C248 1.373 . S
C244 C243 1.394 . S
C244 C245 1.380 . S
C244 H272 0.930 . S
C245 C244 1.380 . S
C245 C246 1.376 . S
C245 H273 0.930 . S
C246 C245 1.376 . S
C246 C247 1.370 . S
C247 C246 1.370 . S
C247 C248 1.396 . S
C247 H274 0.929 . S
C248 C243 1.373 . S
C248 C247 1.396 . S
C248 H275 0.929 . S
C249 O262 1.240 . S
C249 O263 1.289 . S
C250 O264 1.258 . S
C250 O265 1.256 . S
C251 La241 2.928 . S
C251 C252 1.503 . S
C251 O266 1.261 . S
C251 O267 1.243 . S
C252 C251 1.503 . S
C252 C253 1.394 . S
C252 C257 1.373 . S
C253 C252 1.394 . S
C253 C254 1.380 . S
C253 H276 0.930 . S
C254 C253 1.380 . S
C254 C255 1.376 . S
C254 H277 0.930 . S
C255 C254 1.376 . S
C255 C256 1.370 . S
C256 C255 1.370 . S
C256 C257 1.396 . S
C256 H278 0.929 . S
C257 C252 1.373 . S
C257 C256 1.396 . S
C257 H279 0.929 . S
C258 O268 1.240 . S
C258 O269 1.289 . S
C259 O270 1.258 . S
C259 O271 1.256 . S
O260 La240 2.521 . S
O260 C242 1.261 . S
O261 La240 2.628 . S
O261 C242 1.243 . S
O262 La240 2.554 . S
O262 C249 1.240 . S
O263 La240 2.757 . S
O263 La241 2.482 . S
O263 C249 1.289 . S
O264 La240 2.470 . S
O264 C250 1.258 . S
O265 La241 2.503 . S
O265 C250 1.256 . S
O266 La241 2.521 . S
O266 C251 1.261 . S
O267 La241 2.628 . S
O267 C251 1.243 . S
O268 La241 2.554 . S
O268 C258 1.240 . S
O269 La240 2.482 . S
O269 La241 2.757 . S
O269 C258 1.289 . S
O270 La241 2.470 . S
O270 C259 1.258 . S
O271 La240 2.503 . S
O271 C259 1.256 . S
H272 C244 0.930 . S
H273 C245 0.930 . S
H274 C247 0.929 . S
H275 C248 0.929 . S
H276 C253 0.930 . S
H277 C254 0.930 . S
H278 C256 0.929 . S
H279 C257 0.929 . S
La280 C282 2.928 . S
La280 O300 2.521 . S
La280 O301 2.628 . S
La280 O302 2.554 . S
La280 O303 2.757 . S
La280 O304 2.470 . S
La280 O309 2.482 . S
La280 O311 2.503 . S
La281 C291 2.928 . S
La281 O303 2.482 . S
La281 O305 2.503 . S
La281 O306 2.521 . S
La281 O307 2.628 . S
La281 O308 2.554 . S
La281 O309 2.757 . S
La281 O310 2.470 . S
C282 La280 2.928 . S
C282 C283 1.503 . S
C282 O300 1.261 . S
C282 O301 1.243 . S
C283 C282 1.503 . S
C283 C284 1.394 . S
C283 C288 1.373 . S
C284 C283 1.394 . S
C284 C285 1.380 . S
C284 H312 0.930 . S
C285 C284 1.380 . S
C285 C286 1.376 . S
C285 H313 0.930 . S
C286 C285 1.376 . S
C286 C287 1.370 . S
C287 C286 1.370 . S
C287 C288 1.396 . S
C287 H314 0.929 . S
C288 C283 1.373 . S
C288 C287 1.396 . S
C288 H315 0.929 . S
C289 O302 1.240 . S
C289 O303 1.289 . S
C290 O304 1.258 . S
C290 O305 1.256 . S
C291 La281 2.928 . S
C291 C292 1.503 . S
C291 O306 1.261 . S
C291 O307 1.243 . S
C292 C291 1.503 . S
C292 C293 1.394 . S
C292 C297 1.373 . S
C293 C292 1.394 . S
C293 C294 1.380 . S
C293 H316 0.930 . S
C294 C293 1.380 . S
C294 C295 1.376 . S
C294 H317 0.930 . S
C295 C294 1.376 . S
C295 C296 1.370 . S
C296 C295 1.370 . S
C296 C297 1.396 . S
C296 H318 0.929 . S
C297 C292 1.373 . S
C297 C296 1.396 . S
C297 H319 0.929 . S
C298 O308 1.240 . S
C298 O309 1.289 . S
C299 O310 1.258 . S
C299 O311 1.256 . S
O300 La280 2.521 . S
O300 C282 1.261 . S
O301 La280 2.628 . S
O301 C282 1.243 . S
O302 La280 2.554 . S
O302 C289 1.240 . S
O303 La280 2.757 . S
O303 La281 2.482 . S
O303 C289 1.289 . S
O304 La280 2.470 . S
O304 C290 1.258 . S
O305 La281 2.503 . S
O305 C290 1.256 . S
O306 La281 2.521 . S
O306 C291 1.261 . S
O307 La281 2.628 . S
O307 C291 1.243 . S
O308 La281 2.554 . S
O308 C298 1.240 . S
O309 La280 2.482 . S
O309 La281 2.757 . S
O309 C298 1.289 . S
O310 La281 2.470 . S
O310 C299 1.258 . S
O311 La280 2.503 . S
O311 C299 1.256 . S
H312 C284 0.930 . S
H313 C285 0.930 . S
H314 C287 0.929 . S
H315 C288 0.929 . S
H316 C293 0.930 . S
H317 C294 0.930 . S
H318 C296 0.929 . S
H319 C297 0.929 . S
La320 C322 2.928 . S
La320 O340 2.521 . S
La320 O341 2.628 . S
La320 O342 2.554 . S
La320 O343 2.757 . S
La320 O344 2.470 . S
La320 O349 2.482 . S
La320 O351 2.503 . S
La321 C331 2.928 1_556 S
La321 O343 2.482 . S
La321 O345 2.503 . S
La321 O346 2.521 1_556 S
La321 O347 2.628 1_556 S
La321 O348 2.554 . S
La321 O349 2.757 . S
La321 O350 2.470 . S
C322 La320 2.928 . S
C322 C323 1.503 . S
C322 O340 1.261 . S
C322 O341 1.243 . S
C323 C322 1.503 . S
C323 C324 1.394 . S
C323 C328 1.373 . S
C324 C323 1.394 . S
C324 C325 1.380 . S
C324 H352 0.930 . S
C325 C324 1.380 . S
C325 C326 1.376 . S
C325 H353 0.930 . S
C326 C325 1.376 . S
C326 C327 1.370 . S
C327 C326 1.370 . S
C327 C328 1.396 . S
C327 H354 0.929 . S
C328 C323 1.373 . S
C328 C327 1.396 . S
C328 H355 0.929 . S
C329 O342 1.240 . S
C329 O343 1.289 . S
C330 O344 1.258 . S
C330 O345 1.256 . S
C331 La321 2.928 1_554 S
C331 C332 1.503 . S
C331 O346 1.261 . S
C331 O347 1.243 . S
C332 C331 1.503 . S
C332 C333 1.394 . S
C332 C337 1.373 . S
C333 C332 1.394 . S
C333 C334 1.380 . S
C333 H356 0.930 . S
C334 C333 1.380 . S
C334 C335 1.376 . S
C334 H357 0.930 . S
C335 C334 1.376 . S
C335 C336 1.370 . S
C336 C335 1.370 . S
C336 C337 1.396 . S
C336 H358 0.929 . S
C337 C332 1.373 . S
C337 C336 1.396 . S
C337 H359 0.929 . S
C338 O348 1.240 . S
C338 O349 1.289 . S
C339 O350 1.258 . S
C339 O351 1.256 . S
O340 La320 2.521 . S
O340 C322 1.261 . S
O341 La320 2.628 . S
O341 C322 1.243 . S
O342 La320 2.554 . S
O342 C329 1.240 . S
O343 La320 2.757 . S
O343 La321 2.482 . S
O343 C329 1.289 . S
O344 La320 2.470 . S
O344 C330 1.258 . S
O345 La321 2.503 . S
O345 C330 1.256 . S
O346 La321 2.521 1_554 S
O346 C331 1.261 . S
O347 La321 2.628 1_554 S
O347 C331 1.243 . S
O348 La321 2.554 . S
O348 C338 1.240 . S
O349 La320 2.482 . S
O349 La321 2.757 . S
O349 C338 1.289 . S
O350 La321 2.470 . S
O350 C339 1.258 . S
O351 La320 2.503 . S
O351 C339 1.256 . S
H352 C324 0.930 . S
H353 C325 0.930 . S
H354 C327 0.929 . S
H355 C328 0.929 . S
H356 C333 0.930 . S
H357 C334 0.930 . S
H358 C336 0.929 . S
H359 C337 0.929 . S
La360 C362 2.928 . S
La360 O380 2.521 . S
La360 O381 2.628 . S
La360 O382 2.554 . S
La360 O383 2.757 . S
La360 O384 2.470 . S
La360 O389 2.482 . S
La360 O391 2.503 . S
La361 C371 2.928 . S
La361 O383 2.482 . S
La361 O385 2.503 . S
La361 O386 2.521 . S
La361 O387 2.628 . S
La361 O388 2.554 . S
La361 O389 2.757 . S
La361 O390 2.470 . S
C362 La360 2.928 . S
C362 C363 1.503 . S
C362 O380 1.261 . S
C362 O381 1.243 . S
C363 C362 1.503 . S
C363 C364 1.394 . S
C363 C368 1.373 . S
C364 C363 1.394 . S
C364 C365 1.380 . S
C364 H392 0.930 . S
C365 C364 1.380 . S
C365 C366 1.376 . S
C365 H393 0.930 . S
C366 C365 1.376 . S
C366 C367 1.370 . S
C367 C366 1.370 . S
C367 C368 1.396 . S
C367 H394 0.929 . S
C368 C363 1.373 . S
C368 C367 1.396 . S
C368 H395 0.929 . S
C369 O382 1.240 . S
C369 O383 1.289 . S
C370 O384 1.258 . S
C370 O385 1.256 . S
C371 La361 2.928 . S
C371 C372 1.503 . S
C371 O386 1.261 . S
C371 O387 1.243 . S
C372 C371 1.503 . S
C372 C373 1.394 . S
C372 C377 1.373 . S
C373 C372 1.394 . S
C373 C374 1.380 . S
C373 H396 0.930 . S
C374 C373 1.380 . S
C374 C375 1.376 . S
C374 H397 0.930 . S
C375 C374 1.376 . S
C375 C376 1.370 . S
C376 C375 1.370 . S
C376 C377 1.396 . S
C376 H398 0.929 . S
C377 C372 1.373 . S
C377 C376 1.396 . S
C377 H399 0.929 . S
C378 O388 1.240 . S
C378 O389 1.289 . S
C379 O390 1.258 . S
C379 O391 1.256 . S
O380 La360 2.521 . S
O380 C362 1.261 . S
O381 La360 2.628 . S
O381 C362 1.243 . S
O382 La360 2.554 . S
O382 C369 1.240 . S
O383 La360 2.757 . S
O383 La361 2.482 . S
O383 C369 1.289 . S
O384 La360 2.470 . S
O384 C370 1.258 . S
O385 La361 2.503 . S
O385 C370 1.256 . S
O386 La361 2.521 . S
O386 C371 1.261 . S
O387 La361 2.628 . S
O387 C371 1.243 . S
O388 La361 2.554 . S
O388 C378 1.240 . S
O389 La360 2.482 . S
O389 La361 2.757 . S
O389 C378 1.289 . S
O390 La361 2.470 . S
O390 C379 1.258 . S
O391 La360 2.503 . S
O391 C379 1.256 . S
H392 C364 0.930 . S
H393 C365 0.930 . S
H394 C367 0.929 . S
H395 C368 0.929 . S
H396 C373 0.930 . S
H397 C374 0.930 . S
H398 C376 0.929 . S
H399 C377 0.929 . S
La400 C402 2.928 . S
La400 O420 2.521 . S
La400 O421 2.628 . S
La400 O422 2.554 . S
La400 O423 2.757 . S
La400 O424 2.470 . S
La400 O429 2.482 . S
La400 O431 2.503 . S
La401 C411 2.928 . S
La401 O423 2.482 . S
La401 O425 2.503 . S
La401 O426 2.521 . S
La401 O427 2.628 . S
La401 O428 2.554 . S
La401 O429 2.757 . S
La401 O430 2.470 . S
C402 La400 2.928 . S
C402 C403 1.503 . S
C402 O420 1.261 . S
C402 O421 1.243 . S
C403 C402 1.503 . S
C403 C404 1.394 . S
C403 C408 1.373 . S
C404 C403 1.394 . S
C404 C405 1.380 . S
C404 H432 0.930 . S
C405 C404 1.380 . S
C405 C406 1.376 . S
C405 H433 0.930 . S
C406 C405 1.376 . S
C406 C407 1.370 . S
C407 C406 1.370 . S
C407 C408 1.396 . S
C407 H434 0.929 . S
C408 C403 1.373 . S
C408 C407 1.396 . S
C408 H435 0.929 . S
C409 O422 1.240 . S
C409 O423 1.289 . S
C410 O424 1.258 . S
C410 O425 1.256 . S
C411 La401 2.928 . S
C411 C412 1.503 . S
C411 O426 1.261 . S
C411 O427 1.243 . S
C412 C411 1.503 . S
C412 C413 1.394 . S
C412 C417 1.373 . S
C413 C412 1.394 . S
C413 C414 1.380 . S
C413 H436 0.930 . S
C414 C413 1.380 . S
C414 C415 1.376 . S
C414 H437 0.930 . S
C415 C414 1.376 . S
C415 C416 1.370 . S
C416 C415 1.370 . S
C416 C417 1.396 . S
C416 H438 0.929 . S
C417 C412 1.373 . S
C417 C416 1.396 . S
C417 H439 0.929 . S
C418 O428 1.240 . S
C418 O429 1.289 . S
C419 O430 1.258 . S
C419 O431 1.256 . S
O420 La400 2.521 . S
O420 C402 1.261 . S
O421 La400 2.628 . S
O421 C402 1.243 . S
O422 La400 2.554 . S
O422 C409 1.240 . S
O423 La400 2.757 . S
O423 La401 2.482 . S
O423 C409 1.289 . S
O424 La400 2.470 . S
O424 C410 1.258 . S
O425 La401 2.503 . S
O425 C410 1.256 . S
O426 La401 2.521 . S
O426 C411 1.261 . S
O427 La401 2.628 . S
O427 C411 1.243 . S
O428 La401 2.554 . S
O428 C418 1.240 . S
O429 La400 2.482 . S
O429 La401 2.757 . S
O429 C418 1.289 . S
O430 La401 2.470 . S
O430 C419 1.258 . S
O431 La400 2.503 . S
O431 C419 1.256 . S
H432 C404 0.930 . S
H433 C405 0.930 . S
H434 C407 0.929 . S
H435 C408 0.929 . S
H436 C413 0.930 . S
H437 C414 0.930 . S
H438 C416 0.929 . S
H439 C417 0.929 . S
La440 C442 2.928 . S
La440 O460 2.521 . S
La440 O461 2.628 . S
La440 O462 2.554 1_556 S
La440 O463 2.757 1_556 S
La440 O464 2.470 1_556 S
La440 O469 2.482 1_556 S
La440 O471 2.503 1_556 S
La441 C451 2.928 . S
La441 O463 2.482 . S
La441 O465 2.503 . S
La441 O466 2.521 . S
La441 O467 2.628 . S
La441 O468 2.554 . S
La441 O469 2.757 . S
La441 O470 2.470 . S
C442 La440 2.928 . S
C442 C443 1.503 . S
C442 O460 1.261 . S
C442 O461 1.243 . S
C443 C442 1.503 . S
C443 C444 1.394 . S
C443 C448 1.373 . S
C444 C443 1.394 . S
C444 C445 1.380 . S
C444 H472 0.930 . S
C445 C444 1.380 . S
C445 C446 1.376 . S
C445 H473 0.930 . S
C446 C445 1.376 . S
C446 C447 1.370 . S
C447 C446 1.370 . S
C447 C448 1.396 . S
C447 H474 0.929 . S
C448 C443 1.373 . S
C448 C447 1.396 . S
C448 H475 0.929 . S
C449 O462 1.240 . S
C449 O463 1.289 . S
C450 O464 1.258 . S
C450 O465 1.256 . S
C451 La441 2.928 . S
C451 C452 1.503 . S
C451 O466 1.261 . S
C451 O467 1.243 . S
C452 C451 1.503 . S
C452 C453 1.394 . S
C452 C457 1.373 . S
C453 C452 1.394 . S
C453 C454 1.380 . S
C453 H476 0.930 . S
C454 C453 1.380 . S
C454 C455 1.376 . S
C454 H477 0.930 . S
C455 C454 1.376 . S
C455 C456 1.370 . S
C456 C455 1.370 . S
C456 C457 1.396 . S
C456 H478 0.929 . S
C457 C452 1.373 . S
C457 C456 1.396 . S
C457 H479 0.929 . S
C458 O468 1.240 . S
C458 O469 1.289 . S
C459 O470 1.258 . S
C459 O471 1.256 . S
O460 La440 2.521 . S
O460 C442 1.261 . S
O461 La440 2.628 . S
O461 C442 1.243 . S
O462 La440 2.554 1_554 S
O462 C449 1.240 . S
O463 La440 2.757 1_554 S
O463 La441 2.482 . S
O463 C449 1.289 . S
O464 La440 2.470 1_554 S
O464 C450 1.258 . S
O465 La441 2.503 . S
O465 C450 1.256 . S
O466 La441 2.521 . S
O466 C451 1.261 . S
O467 La441 2.628 . S
O467 C451 1.243 . S
O468 La441 2.554 . S
O468 C458 1.240 . S
O469 La440 2.482 1_554 S
O469 La441 2.757 . S
O469 C458 1.289 . S
O470 La441 2.470 . S
O470 C459 1.258 . S
O471 La440 2.503 1_554 S
O471 C459 1.256 . S
H472 C444 0.930 . S
H473 C445 0.930 . S
H474 C447 0.929 . S
H475 C448 0.929 . S
H476 C453 0.930 . S
H477 C454 0.930 . S
H478 C456 0.929 . S
H479 C457 0.929 . S
La480 C482 2.928 . S
La480 O500 2.521 . S
La480 O501 2.628 . S
La480 O502 2.554 . S
La480 O503 2.757 . S
La480 O504 2.470 . S
La480 O509 2.482 . S
La480 O511 2.503 . S
La481 C491 2.928 . S
La481 O503 2.482 1_556 S
La481 O505 2.503 1_556 S
La481 O506 2.521 . S
La481 O507 2.628 . S
La481 O508 2.554 1_556 S
La481 O509 2.757 1_556 S
La481 O510 2.470 . S
C482 La480 2.928 . S
C482 C483 1.503 . S
C482 O500 1.261 . S
C482 O501 1.243 . S
C483 C482 1.503 . S
C483 C484 1.394 . S
C483 C488 1.373 . S
C484 C483 1.394 . S
C484 C485 1.380 . S
C484 H512 0.930 . S
C485 C484 1.380 . S
C485 C486 1.376 . S
C485 H513 0.930 . S
C486 C485 1.376 . S
C486 C487 1.370 . S
C487 C486 1.370 . S
C487 C488 1.396 . S
C487 H514 0.929 . S
C488 C483 1.373 . S
C488 C487 1.396 . S
C488 H515 0.929 . S
C489 O502 1.240 . S
C489 O503 1.289 . S
C490 O504 1.258 . S
C490 O505 1.256 . S
C491 La481 2.928 . S
C491 C492 1.503 . S
C491 O506 1.261 . S
C491 O507 1.243 . S
C492 C491 1.503 . S
C492 C493 1.394 . S
C492 C497 1.373 . S
C493 C492 1.394 . S
C493 C494 1.380 . S
C493 H516 0.930 . S
C494 C493 1.380 . S
C494 C495 1.376 . S
C494 H517 0.930 . S
C495 C494 1.376 . S
C495 C496 1.370 . S
C496 C495 1.370 . S
C496 C497 1.396 . S
C496 H518 0.929 . S
C497 C492 1.373 . S
C497 C496 1.396 . S
C497 H519 0.929 . S
C498 O508 1.240 . S
C498 O509 1.289 . S
C499 O510 1.258 1_554 S
C499 O511 1.256 . S
O500 La480 2.521 . S
O500 C482 1.261 . S
O501 La480 2.628 . S
O501 C482 1.243 . S
O502 La480 2.554 . S
O502 C489 1.240 . S
O503 La480 2.757 . S
O503 La481 2.482 1_554 S
O503 C489 1.289 . S
O504 La480 2.470 . S
O504 C490 1.258 . S
O505 La481 2.503 1_554 S
O505 C490 1.256 . S
O506 La481 2.521 . S
O506 C491 1.261 . S
O507 La481 2.628 . S
O507 C491 1.243 . S
O508 La481 2.554 1_554 S
O508 C498 1.240 . S
O509 La480 2.482 . S
O509 La481 2.757 1_554 S
O509 C498 1.289 . S
O510 La481 2.470 . S
O510 C499 1.258 1_556 S
O511 La480 2.503 . S
O511 C499 1.256 . S
H512 C484 0.930 . S
H513 C485 0.930 . S
H514 C487 0.929 . S
H515 C488 0.929 . S
H516 C493 0.930 . S
H517 C494 0.930 . S
H518 C496 0.929 . S
H519 C497 0.929 . S
La520 C522 2.928 . S
La520 O540 2.521 . S
La520 O541 2.628 . S
La520 O542 2.554 . S
La520 O543 2.757 . S
La520 O544 2.470 . S
La520 O549 2.482 . S
La520 O551 2.503 . S
La521 C531 2.928 1_556 S
La521 O543 2.482 . S
La521 O545 2.503 . S
La521 O546 2.521 1_556 S
La521 O547 2.649 . S
La521 O548 2.554 . S
La521 O549 2.757 . S
La521 O550 2.470 . S
C522 La520 2.928 . S
C522 C523 1.503 . S
C522 O540 1.261 . S
C522 O541 1.243 . S
C523 C522 1.503 . S
C523 C524 1.394 . S
C523 C528 1.373 . S
C524 C523 1.394 . S
C524 C525 1.380 . S
C524 H552 0.930 . S
C525 C524 1.380 . S
C525 C526 1.376 . S
C525 H553 0.930 . S
C526 C525 1.376 . S
C526 C527 1.370 . S
C527 C526 1.370 . S
C527 C528 1.396 . S
C527 H554 0.929 . S
C528 C523 1.373 . S
C528 C527 1.396 . S
C528 H555 0.929 . S
C529 O542 1.240 . S
C529 O543 1.289 . S
C530 O544 1.258 . S
C530 O545 1.256 . S
C531 La521 2.928 1_554 S
C531 C532 1.503 . S
C531 O546 1.261 . S
C531 O547 1.230 1_554 S
C532 C531 1.503 . S
C532 C533 1.394 . S
C532 C537 1.373 . S
C533 C532 1.394 . S
C533 C534 1.380 . S
C533 H556 0.930 . S
C534 C533 1.380 . S
C534 C535 1.376 . S
C534 H557 0.930 . S
C535 C534 1.376 . S
C535 C536 1.370 . S
C536 C535 1.370 . S
C536 C537 1.396 . S
C536 H558 0.929 . S
C537 C532 1.373 . S
C537 C536 1.396 . S
C537 H559 0.929 . S
C538 O548 1.240 . S
C538 O549 1.289 . S
C539 O550 1.258 . S
C539 O551 1.256 . S
O540 La520 2.521 . S
O540 C522 1.261 . S
O541 La520 2.628 . S
O541 C522 1.243 . S
O542 La520 2.554 . S
O542 C529 1.240 . S
O543 La520 2.757 . S
O543 La521 2.482 . S
O543 C529 1.289 . S
O544 La520 2.470 . S
O544 C530 1.258 . S
O545 La521 2.503 . S
O545 C530 1.256 . S
O546 La521 2.521 1_554 S
O546 C531 1.261 . S
O547 La521 2.649 . S
O547 C531 1.230 1_556 S
O548 La521 2.554 . S
O548 C538 1.240 . S
O549 La520 2.482 . S
O549 La521 2.757 . S
O549 C538 1.289 . S
O550 La521 2.470 . S
O550 C539 1.258 . S
O551 La520 2.503 . S
O551 C539 1.256 . S
H552 C524 0.930 . S
H553 C525 0.930 . S
H554 C527 0.929 . S
H555 C528 0.929 . S
H556 C533 0.930 . S
H557 C534 0.930 . S
H558 C536 0.929 . S
H559 C537 0.929 . S
La560 C562 2.928 . S
La560 O580 2.521 . S
La560 O581 2.628 . S
La560 O582 2.554 . S
La560 O583 2.757 . S
La560 O584 2.470 . S
La560 O589 2.482 . S
La560 O591 2.503 . S
La561 C571 2.928 . S
La561 O583 2.482 . S
La561 O585 2.503 . S
La561 O586 2.521 . S
La561 O587 2.628 . S
La561 O588 2.554 . S
La561 O589 2.757 . S
La561 O590 2.470 . S
C562 La560 2.928 . S
C562 C563 1.503 . S
C562 O580 1.261 . S
C562 O581 1.243 . S
C563 C562 1.503 . S
C563 C564 1.394 . S
C563 C568 1.373 . S
C564 C563 1.394 . S
C564 C565 1.380 . S
C564 H592 0.930 . S
C565 C564 1.380 . S
C565 C566 1.376 . S
C565 H593 0.930 . S
C566 C565 1.376 . S
C566 C567 1.370 . S
C567 C566 1.370 . S
C567 C568 1.396 . S
C567 H594 0.929 . S
C568 C563 1.373 . S
C568 C567 1.396 . S
C568 H595 0.929 . S
C569 O582 1.240 . S
C569 O583 1.289 . S
C570 O584 1.258 . S
C570 O585 1.256 . S
C571 La561 2.928 . S
C571 C572 1.503 . S
C571 O586 1.261 . S
C571 O587 1.243 . S
C572 C571 1.503 . S
C572 C573 1.394 . S
C572 C577 1.373 . S
C573 C572 1.394 . S
C573 C574 1.380 . S
C573 H596 0.930 . S
C574 C573 1.380 . S
C574 C575 1.376 . S
C574 H597 0.930 . S
C575 C574 1.376 . S
C575 C576 1.370 . S
C576 C575 1.370 . S
C576 C577 1.396 . S
C576 H598 0.929 . S
C577 C572 1.373 . S
C577 C576 1.396 . S
C577 H599 0.929 . S
C578 O588 1.240 . S
C578 O589 1.289 . S
C579 O590 1.258 . S
C579 O591 1.256 . S
O580 La560 2.521 . S
O580 C562 1.261 . S
O581 La560 2.628 . S
O581 C562 1.243 . S
O582 La560 2.554 . S
O582 C569 1.240 . S
O583 La560 2.757 . S
O583 La561 2.482 . S
O583 C569 1.289 . S
O584 La560 2.470 . S
O584 C570 1.258 . S
O585 La561 2.503 . S
O585 C570 1.256 . S
O586 La561 2.521 . S
O586 C571 1.261 . S
O587 La561 2.628 . S
O587 C571 1.243 . S
O588 La561 2.554 . S
O588 C578 1.240 . S
O589 La560 2.482 . S
O589 La561 2.757 . S
O589 C578 1.289 . S
O590 La561 2.470 . S
O590 C579 1.258 . S
O591 La560 2.503 . S
O591 C579 1.256 . S
H592 C564 0.930 . S
H593 C565 0.930 . S
H594 C567 0.929 . S
H595 C568 0.929 . S
H596 C573 0.930 . S
H597 C574 0.930 . S
H598 C576 0.929 . S
H599 C577 0.929 . S
La600 C602 2.928 . S
La600 O620 2.521 . S
La600 O621 2.628 . S
La600 O622 2.554 . S
La600 O623 2.757 . S
La600 O624 2.470 . S
La600 O629 2.482 . S
La600 O631 2.503 . S
La601 C611 2.928 . S
La601 O623 2.482 . S
La601 O625 2.503 . S
La601 O626 2.521 . S
La601 O627 2.628 . S
La601 O628 2.554 . S
La601 O629 2.757 . S
La601 O630 2.470 . S
C602 La600 2.928 . S
C602 C603 1.503 . S
C602 O620 1.261 . S
C602 O621 1.243 . S
C603 C602 1.503 . S
C603 C604 1.394 . S
C603 C608 1.373 . S
C604 C603 1.394 . S
C604 C605 1.380 . S
C604 H632 0.930 . S
C605 C604 1.380 . S
C605 C606 1.376 . S
C605 H633 0.930 . S
C606 C605 1.376 . S
C606 C607 1.370 . S
C607 C606 1.370 . S
C607 C608 1.396 . S
C607 H634 0.929 . S
C608 C603 1.373 . S
C608 C607 1.396 . S
C608 H635 0.929 . S
C609 O622 1.240 . S
C609 O623 1.289 . S
C610 O624 1.258 . S
C610 O625 1.256 . S
C611 La601 2.928 . S
C611 C612 1.503 . S
C611 O626 1.261 . S
C611 O627 1.243 . S
C612 C611 1.503 . S
C612 C613 1.394 . S
C612 C617 1.373 . S
C613 C612 1.394 . S
C613 C614 1.380 . S
C613 H636 0.930 . S
C614 C613 1.380 . S
C614 C615 1.376 . S
C614 H637 0.930 . S
C615 C614 1.376 . S
C615 C616 1.370 . S
C616 C615 1.370 . S
C616 C617 1.396 . S
C616 H638 0.929 . S
C617 C612 1.373 . S
C617 C616 1.396 . S
C617 H639 0.929 . S
C618 O628 1.240 . S
C618 O629 1.289 . S
C619 O630 1.258 . S
C619 O631 1.256 . S
O620 La600 2.521 . S
O620 C602 1.261 . S
O621 La600 2.628 . S
O621 C602 1.243 . S
O622 La600 2.554 . S
O622 C609 1.240 . S
O623 La600 2.757 . S
O623 La601 2.482 . S
O623 C609 1.289 . S
O624 La600 2.470 . S
O624 C610 1.258 . S
O625 La601 2.503 . S
O625 C610 1.256 . S
O626 La601 2.521 . S
O626 C611 1.261 . S
O627 La601 2.628 . S
O627 C611 1.243 . S
O628 La601 2.554 . S
O628 C618 1.240 . S
O629 La600 2.482 . S
O629 La601 2.757 . S
O629 C618 1.289 . S
O630 La601 2.470 . S
O630 C619 1.258 . S
O631 La600 2.503 . S
O631 C619 1.256 . S
H632 C604 0.930 . S
H633 C605 0.930 . S
H634 C607 0.929 . S
H635 C608 0.929 . S
H636 C613 0.930 . S
H637 C614 0.930 . S
H638 C616 0.929 . S
H639 C617 0.929 . S
H640 C658 0.951 . S
H641 C660 0.951 . S
H642 C662 0.950 . S
H643 C663 0.950 . S
H644 C665 0.950 . S
H645 C668 0.950 . S
H646 C669 0.950 . S
H647 C671 0.950 . S
H648 C672 0.950 . S
H649 C673 0.951 . S
H650 C675 0.951 . S
H651 C677 0.950 . S
H652 C678 0.950 . S
H653 C680 0.950 . S
H654 C683 0.950 . S
H655 C684 0.950 . S
H656 C686 0.950 . S
H657 C687 0.950 . S
C658 H640 0.951 . S
C658 C659 1.366 . S
C658 C660 1.388 . S
C659 C658 1.366 . S
C659 C663 1.385 . S
C660 H641 0.951 . S
C660 C658 1.388 . S
C660 C661 1.366 . S
C661 C660 1.366 . S
C661 C662 1.414 . S
C661 C664 1.499 . S
C662 H642 0.950 . S
C662 C661 1.414 . S
C662 C663 1.374 . S
C663 H643 0.950 . S
C663 C659 1.385 . S
C663 C662 1.374 . S
C664 C661 1.499 . S
C664 C665 1.373 . S
C664 C666 1.389 . S
C665 H644 0.950 . S
C665 C664 1.373 . S
C665 C681 1.377 . S
C666 C664 1.389 . S
C666 C667 1.524 . S
C666 C680 1.377 . S
C667 C666 1.524 . S
C667 C668 1.397 . S
C667 C672 1.363 . S
C668 H645 0.950 . S
C668 C667 1.397 . S
C668 C669 1.334 . S
C669 H646 0.950 . S
C669 C668 1.334 . S
C669 C670 1.287 . S
C670 C669 1.287 . S
C670 C671 1.524 . S
C670 H689 0.913 . S
C671 H647 0.950 . S
C671 C670 1.524 . S
C671 C672 1.415 . S
C672 H648 0.950 . S
C672 C667 1.363 . S
C672 C671 1.415 . S
C673 H649 0.951 . S
C673 C674 1.366 . S
C673 C675 1.388 . S
C674 C673 1.366 . S
C674 C678 1.385 . S
C675 H650 0.951 . S
C675 C673 1.388 . S
C675 C676 1.366 . S
C676 C675 1.366 . S
C676 C677 1.414 . S
C676 C679 1.499 . S
C677 H651 0.950 . S
C677 C676 1.414 . S
C677 C678 1.374 . S
C678 H652 0.950 . S
C678 C674 1.385 . S
C678 C677 1.374 . S
C679 C676 1.499 . S
C679 C680 1.373 . S
C679 C681 1.389 . S
C680 H653 0.950 . S
C680 C666 1.377 . S
C680 C679 1.373 . S
C681 C665 1.377 . S
C681 C679 1.389 . S
C681 C682 1.524 . S
C682 C681 1.524 . S
C682 C683 1.397 . S
C682 C687 1.363 . S
C683 H654 0.950 . S
C683 C682 1.397 . S
C683 C684 1.334 . S
C684 H655 0.950 . S
C684 C683 1.334 . S
C684 C685 1.287 . S
C685 C684 1.287 . S
C685 C686 1.524 . S
C685 H688 0.999 . S
C686 H656 0.950 . S
C686 C685 1.524 . S
C686 C687 1.415 . S
C687 H657 0.950 . S
C687 C682 1.363 . S
C687 C686 1.415 . S
H688 C685 0.999 . S
H689 C670 0.913 . S
H690 C708 0.951 . S
H691 C710 0.951 . S
H692 C712 0.950 . S
H693 C713 0.950 . S
H694 C715 0.950 1_554 S
H695 C718 0.950 . S
H696 C719 0.950 . S
H697 C721 0.950 . S
H698 C722 0.950 . S
H699 C723 0.951 . S
H700 C725 0.951 . S
H701 C727 0.950 . S
H702 C728 0.950 . S
H703 C730 0.950 . S
H704 C733 0.950 . S
H705 C734 0.950 . S
H706 C736 0.950 . S
H707 C737 0.950 . S
C708 H690 0.951 . S
C708 C709 1.366 . S
C708 C710 1.388 . S
C709 C708 1.366 . S
C709 C713 1.385 . S
C710 H691 0.951 . S
C710 C708 1.388 . S
C710 C711 1.366 . S
C711 C710 1.366 . S
C711 C712 1.414 . S
C711 C714 1.499 1_554 S
C712 H692 0.950 . S
C712 C711 1.414 . S
C712 C713 1.374 . S
C713 H693 0.950 . S
C713 C709 1.385 . S
C713 C712 1.374 . S
C714 C711 1.499 1_556 S
C714 C715 1.373 . S
C714 C716 1.389 . S
C715 H694 0.950 1_556 S
C715 C714 1.373 . S
C715 C731 1.377 . S
C716 C714 1.389 . S
C716 C717 1.524 . S
C716 C730 1.377 . S
C717 C716 1.524 . S
C717 C718 1.397 1_556 S
C717 C722 1.363 . S
C718 H695 0.950 . S
C718 C717 1.397 1_554 S
C718 C719 1.334 . S
C719 H696 0.950 . S
C719 C718 1.334 . S
C719 C720 1.287 . S
C720 C719 1.287 . S
C720 C721 1.524 1_554 S
C720 H739 0.913 . S
C721 H697 0.950 . S
C721 C720 1.524 1_556 S
C721 C722 1.415 . S
C722 H698 0.950 . S
C722 C717 1.363 . S
C722 C721 1.415 . S
C723 H699 0.951 . S
C723 C724 1.366 . S
C723 C725 1.388 . S
C724 C723 1.366 . S
C724 C728 1.385 . S
C725 H700 0.951 . S
C725 C723 1.388 . S
C725 C726 1.366 . S
C726 C725 1.366 . S
C726 C727 1.414 . S
C726 C729 1.499 . S
C727 H701 0.950 . S
C727 C726 1.414 . S
C727 C728 1.374 . S
C728 H702 0.950 . S
C728 C724 1.385 . S
C728 C727 1.374 . S
C729 C726 1.499 . S
C729 C730 1.373 . S
C729 C731 1.389 . S
C730 H703 0.950 . S
C730 C716 1.377 . S
C730 C729 1.373 . S
C731 C715 1.377 . S
C731 C729 1.389 . S
C731 C732 1.524 . S
C732 C731 1.524 . S
C732 C733 1.397 . S
C732 C737 1.363 . S
C733 H704 0.950 . S
C733 C732 1.397 . S
C733 C734 1.334 . S
C734 H705 0.950 . S
C734 C733 1.334 . S
C734 C735 1.287 . S
C735 C734 1.287 . S
C735 C736 1.524 . S
C735 H738 0.999 . S
C736 H706 0.950 . S
C736 C735 1.524 . S
C736 C737 1.415 . S
C737 H707 0.950 . S
C737 C732 1.363 . S
C737 C736 1.415 . S
H738 C735 0.999 . S
H739 C720 0.913 . S
H740 C758 0.951 . S
H741 C760 0.951 . S
H742 C762 0.950 . S
H743 C763 0.950 . S
H744 C765 0.950 . S
H745 C768 0.950 . S
H746 C769 0.950 . S
H747 C771 0.950 . S
H748 C772 0.950 . S
H749 C773 0.951 . S
H750 C775 0.951 . S
H751 C777 0.950 . S
H752 C778 0.950 . S
H753 C780 0.950 . S
H754 C783 0.950 . S
H755 C784 0.950 . S
H756 C786 0.950 . S
H757 C787 0.950 . S
C758 H740 0.951 . S
C758 C759 1.366 . S
C758 C760 1.388 . S
C759 C758 1.366 . S
C759 C763 1.385 . S
C760 H741 0.951 . S
C760 C758 1.388 . S
C760 C761 1.366 . S
C761 C760 1.366 . S
C761 C762 1.414 . S
C761 C764 1.499 . S
C762 H742 0.950 . S
C762 C761 1.414 . S
C762 C763 1.374 . S
C763 H743 0.950 . S
C763 C759 1.385 . S
C763 C762 1.374 . S
C764 C761 1.499 . S
C764 C765 1.373 . S
C764 C766 1.389 . S
C765 H744 0.950 . S
C765 C764 1.373 . S
C765 C781 1.377 . S
C766 C764 1.389 . S
C766 C767 1.524 . S
C766 C780 1.377 . S
C767 C766 1.524 . S
C767 C768 1.397 . S
C767 C772 1.363 . S
C768 H745 0.950 . S
C768 C767 1.397 . S
C768 C769 1.334 . S
C769 H746 0.950 . S
C769 C768 1.334 . S
C769 C770 1.287 . S
C770 C769 1.287 . S
C770 C771 1.524 . S
C770 H789 0.913 . S
C771 H747 0.950 . S
C771 C770 1.524 . S
C771 C772 1.415 . S
C772 H748 0.950 . S
C772 C767 1.363 . S
C772 C771 1.415 . S
C773 H749 0.951 . S
C773 C774 1.366 . S
C773 C775 1.388 1_556 S
C774 C773 1.366 . S
C774 C778 1.385 . S
C775 H750 0.951 . S
C775 C773 1.388 1_554 S
C775 C776 1.366 . S
C776 C775 1.366 . S
C776 C777 1.414 . S
C776 C779 1.499 . S
C777 H751 0.950 . S
C777 C776 1.414 . S
C777 C778 1.374 1_554 S
C778 H752 0.950 . S
C778 C774 1.385 . S
C778 C777 1.374 1_556 S
C779 C776 1.499 . S
C779 C780 1.373 . S
C779 C781 1.389 . S
C780 H753 0.950 . S
C780 C766 1.377 . S
C780 C779 1.373 . S
C781 C765 1.377 . S
C781 C779 1.389 . S
C781 C782 1.524 . S
C782 C781 1.524 . S
C782 C783 1.397 . S
C782 C787 1.363 . S
C783 H754 0.950 . S
C783 C782 1.397 . S
C783 C784 1.334 . S
C784 H755 0.950 . S
C784 C783 1.334 . S
C784 C785 1.287 . S
C785 C784 1.287 . S
C785 C786 1.524 . S
C785 H788 0.999 . S
C786 H756 0.950 . S
C786 C785 1.524 . S
C786 C787 1.415 . S
C787 H757 0.950 . S
C787 C782 1.363 . S
C787 C786 1.415 . S
H788 C785 0.999 . S
H789 C770 0.913 . S
H790 C808 0.951 . S
H791 C810 0.951 . S
H792 C812 0.950 . S
H793 C813 0.950 . S
H794 C815 0.950 . S
H795 C818 0.950 . S
H796 C819 0.950 . S
H797 C821 0.950 . S
H798 C822 0.950 . S
H799 C823 0.951 . S
H800 C825 0.951 . S
H801 C827 0.950 . S
H802 C828 0.950 . S
H803 C830 0.950 . S
H804 C833 0.950 . S
H805 C834 0.950 . S
H806 C836 0.950 . S
H807 C837 0.950 . S
C808 H790 0.951 . S
C808 C809 1.366 . S
C808 C810 1.388 . S
C809 C808 1.366 . S
C809 C813 1.385 . S
C810 H791 0.951 . S
C810 C808 1.388 . S
C810 C811 1.366 . S
C811 C810 1.366 . S
C811 C812 1.414 . S
C811 C814 1.499 . S
C812 H792 0.950 . S
C812 C811 1.414 . S
C812 C813 1.374 . S
C813 H793 0.950 . S
C813 C809 1.385 . S
C813 C812 1.374 . S
C814 C811 1.499 . S
C814 C815 1.373 . S
C814 C816 1.389 . S
C815 H794 0.950 . S
C815 C814 1.373 . S
C815 C831 1.377 . S
C816 C814 1.389 . S
C816 C817 1.524 . S
C816 C830 1.377 . S
C817 C816 1.524 . S
C817 C818 1.397 . S
C817 C822 1.363 . S
C818 H795 0.950 . S
C818 C817 1.397 . S
C818 C819 1.334 . S
C819 H796 0.950 . S
C819 C818 1.334 . S
C819 C820 1.287 . S
C820 C819 1.287 . S
C820 C821 1.524 . S
C820 H839 0.913 . S
C821 H797 0.950 . S
C821 C820 1.524 . S
C821 C822 1.415 . S
C822 H798 0.950 . S
C822 C817 1.363 . S
C822 C821 1.415 . S
C823 H799 0.951 . S
C823 C824 1.366 . S
C823 C825 1.388 . S
C824 C823 1.366 . S
C824 C828 1.385 . S
C825 H800 0.951 . S
C825 C823 1.388 . S
C825 C826 1.366 . S
C826 C825 1.366 . S
C826 C827 1.414 . S
C826 C829 1.499 . S
C827 H801 0.950 . S
C827 C826 1.414 . S
C827 C828 1.374 . S
C828 H802 0.950 . S
C828 C824 1.385 . S
C828 C827 1.374 . S
C829 C826 1.499 . S
C829 C830 1.373 . S
C829 C831 1.389 . S
C830 H803 0.950 . S
C830 C816 1.377 . S
C830 C829 1.373 . S
C831 C815 1.377 . S
C831 C829 1.389 . S
C831 C832 1.524 . S
C832 C831 1.524 . S
C832 C833 1.397 . S
C832 C837 1.363 . S
C833 H804 0.950 . S
C833 C832 1.397 . S
C833 C834 1.334 . S
C834 H805 0.950 . S
C834 C833 1.334 . S
C834 C835 1.287 . S
C835 C834 1.287 . S
C835 C836 1.524 . S
C835 H838 0.999 . S
C836 H806 0.950 . S
C836 C835 1.524 . S
C836 C837 1.415 . S
C837 H807 0.950 . S
C837 C832 1.363 . S
C837 C836 1.415 . S
H838 C835 0.999 . S
H839 C820 0.913 . S
H840 C858 0.951 . S
H841 C860 0.951 . S
H842 C862 0.950 . S
H843 C863 0.950 . S
H844 C865 0.950 . S
H845 C868 0.950 . S
H846 C869 0.950 . S
H847 C871 0.950 . S
H848 C872 0.950 . S
H849 C873 0.951 . S
H850 C875 0.951 . S
H851 C877 0.950 . S
H852 C878 0.950 . S
H853 C880 0.950 . S
H854 C883 0.950 . S
H855 C884 0.950 . S
H856 C886 0.950 . S
H857 C887 0.950 . S
C858 H840 0.951 . S
C858 C859 1.366 . S
C858 C860 1.388 . S
C859 C858 1.366 . S
C859 C863 1.385 . S
C860 H841 0.951 . S
C860 C858 1.388 . S
C860 C861 1.366 . S
C861 C860 1.366 . S
C861 C862 1.414 . S
C861 C864 1.499 . S
C862 H842 0.950 . S
C862 C861 1.414 . S
C862 C863 1.374 . S
C863 H843 0.950 . S
C863 C859 1.385 . S
C863 C862 1.374 . S
C864 C861 1.499 . S
C864 C865 1.373 . S
C864 C866 1.389 . S
C865 H844 0.950 . S
C865 C864 1.373 . S
C865 C881 1.377 . S
C866 C864 1.389 . S
C866 C867 1.524 . S
C866 C880 1.377 . S
C867 C866 1.524 . S
C867 C868 1.397 . S
C867 C872 1.363 . S
C868 H845 0.950 . S
C868 C867 1.397 . S
C868 C869 1.334 . S
C869 H846 0.950 . S
C869 C868 1.334 . S
C869 C870 1.287 . S
C870 C869 1.287 . S
C870 C871 1.524 . S
C870 H889 0.913 . S
C871 H847 0.950 . S
C871 C870 1.524 . S
C871 C872 1.415 . S
C872 H848 0.950 . S
C872 C867 1.363 . S
C872 C871 1.415 . S
C873 H849 0.951 . S
C873 C874 1.366 . S
C873 C875 1.388 . S
C874 C873 1.366 . S
C874 C878 1.385 . S
C875 H850 0.951 . S
C875 C873 1.388 . S
C875 C876 1.366 . S
C876 C875 1.366 . S
C876 C877 1.414 . S
C876 C879 1.499 . S
C877 H851 0.950 . S
C877 C876 1.414 . S
C877 C878 1.374 . S
C878 H852 0.950 . S
C878 C874 1.385 . S
C878 C877 1.374 . S
C879 C876 1.499 . S
C879 C880 1.373 . S
C879 C881 1.389 . S
C880 H853 0.950 . S
C880 C866 1.377 . S
C880 C879 1.373 . S
C881 C865 1.377 . S
C881 C879 1.389 . S
C881 C882 1.524 . S
C882 C881 1.524 . S
C882 C883 1.397 . S
C882 C887 1.363 . S
C883 H854 0.950 . S
C883 C882 1.397 . S
C883 C884 1.334 . S
C884 H855 0.950 . S
C884 C883 1.334 . S
C884 C885 1.287 . S
C885 C884 1.287 . S
C885 C886 1.524 . S
C885 H888 0.999 . S
C886 H856 0.950 . S
C886 C885 1.524 . S
C886 C887 1.415 . S
C887 H857 0.950 . S
C887 C882 1.363 . S
C887 C886 1.415 . S
H888 C885 0.999 . S
H889 C870 0.913 . S
H890 C908 0.951 . S
H891 C910 0.951 . S
H892 C912 0.950 . S
H893 C913 0.950 . S
H894 C915 0.950 . S
H895 C918 0.950 . S
H896 C919 0.950 . S
H897 C921 0.950 . S
H898 C922 0.950 . S
H899 C923 0.951 . S
H900 C925 0.951 . S
H901 C927 0.950 . S
H902 C928 0.950 . S
H903 C930 0.950 . S
H904 C933 0.950 . S
H905 C934 0.950 . S
H906 C936 0.950 . S
H907 C937 0.950 . S
C908 H890 0.951 . S
C908 C909 1.366 . S
C908 C910 1.388 . S
C909 C908 1.366 . S
C909 C913 1.385 . S
C910 H891 0.951 . S
C910 C908 1.388 . S
C910 C911 1.366 . S
C911 C910 1.366 . S
C911 C912 1.414 . S
C911 C914 1.499 . S
C912 H892 0.950 . S
C912 C911 1.414 . S
C912 C913 1.374 . S
C913 H893 0.950 . S
C913 C909 1.385 . S
C913 C912 1.374 . S
C914 C911 1.499 . S
C914 C915 1.373 . S
C914 C916 1.389 . S
C915 H894 0.950 . S
C915 C914 1.373 . S
C915 C931 1.377 . S
C916 C914 1.389 . S
C916 C917 1.524 . S
C916 C930 1.377 . S
C917 C916 1.524 . S
C917 C918 1.397 . S
C917 C922 1.363 . S
C918 H895 0.950 . S
C918 C917 1.397 . S
C918 C919 1.334 . S
C919 H896 0.950 . S
C919 C918 1.334 . S
C919 C920 1.287 . S
C920 C919 1.287 . S
C920 C921 1.524 . S
C920 H939 0.913 . S
C921 H897 0.950 . S
C921 C920 1.524 . S
C921 C922 1.415 . S
C922 H898 0.950 . S
C922 C917 1.363 . S
C922 C921 1.415 . S
C923 H899 0.951 . S
C923 C924 1.366 . S
C923 C925 1.388 . S
C924 C923 1.366 . S
C924 C928 1.385 . S
C925 H900 0.951 . S
C925 C923 1.388 . S
C925 C926 1.366 . S
C926 C925 1.366 . S
C926 C927 1.414 . S
C926 C929 1.499 . S
C927 H901 0.950 . S
C927 C926 1.414 . S
C927 C928 1.374 . S
C928 H902 0.950 . S
C928 C924 1.385 . S
C928 C927 1.374 . S
C929 C926 1.499 . S
C929 C930 1.373 . S
C929 C931 1.389 . S
C930 H903 0.950 . S
C930 C916 1.377 . S
C930 C929 1.373 . S
C931 C915 1.377 . S
C931 C929 1.389 . S
C931 C932 1.524 . S
C932 C931 1.524 . S
C932 C933 1.397 . S
C932 C937 1.363 . S
C933 H904 0.950 . S
C933 C932 1.397 . S
C933 C934 1.334 . S
C934 H905 0.950 . S
C934 C933 1.334 . S
C934 C935 1.287 . S
C935 C934 1.287 . S
C935 C936 1.524 . S
C935 H938 0.999 . S
C936 H906 0.950 . S
C936 C935 1.524 . S
C936 C937 1.415 . S
C937 H907 0.950 . S
C937 C932 1.363 . S
C937 C936 1.415 . S
H938 C935 0.999 . S
H939 C920 0.913 . S
H940 C958 0.951 . S
H941 C960 0.951 . S
H942 C962 0.950 . S
H943 C963 0.950 . S
H944 C965 0.950 . S
H945 C968 0.950 . S
H946 C969 0.950 . S
H947 C971 0.950 . S
H948 C972 0.950 . S
H949 C973 0.951 . S
H950 C975 0.951 . S
H951 C977 0.949 1_556 S
H952 C978 0.950 . S
H953 C980 0.950 . S
H954 C983 0.950 . S
H955 C984 0.950 1_554 S
H956 C986 0.950 . S
H957 C987 0.950 . S
C958 H940 0.951 . S
C958 C959 1.366 . S
C958 C960 1.388 . S
C959 C958 1.366 . S
C959 C963 1.385 . S
C960 H941 0.951 . S
C960 C958 1.388 . S
C960 C961 1.366 . S
C961 C960 1.366 . S
C961 C962 1.414 . S
C961 C964 1.499 . S
C962 H942 0.950 . S
C962 C961 1.414 . S
C962 C963 1.374 . S
C963 H943 0.950 . S
C963 C959 1.385 . S
C963 C962 1.374 . S
C964 C961 1.499 . S
C964 C965 1.373 . S
C964 C966 1.389 . S
C965 H944 0.950 . S
C965 C964 1.373 . S
C965 C981 1.377 . S
C966 C964 1.389 . S
C966 C967 1.524 . S
C966 C980 1.377 . S
C967 C966 1.524 . S
C967 C968 1.397 . S
C967 C972 1.363 . S
C968 H945 0.950 . S
C968 C967 1.397 . S
C968 C969 1.334 . S
C969 H946 0.950 . S
C969 C968 1.334 . S
C969 C970 1.287 . S
C970 C969 1.287 . S
C970 C971 1.524 . S
C970 H989 0.913 . S
C971 H947 0.950 . S
C971 C970 1.524 . S
C971 C972 1.415 . S
C972 H948 0.950 . S
C972 C967 1.363 . S
C972 C971 1.415 . S
C973 H949 0.951 . S
C973 C974 1.366 . S
C973 C975 1.388 . S
C974 C973 1.366 . S
C974 C978 1.385 . S
C975 H950 0.951 . S
C975 C973 1.388 . S
C975 C976 1.366 1_554 S
C976 C975 1.366 1_556 S
C976 C977 1.414 1_556 S
C976 C979 1.499 . S
C977 H951 0.949 1_554 S
C977 C976 1.414 1_554 S
C977 C978 1.374 . S
C978 H952 0.950 . S
C978 C974 1.385 . S
C978 C977 1.374 . S
C979 C976 1.499 . S
C979 C980 1.373 . S
C979 C981 1.389 . S
C980 H953 0.950 . S
C980 C966 1.377 . S
C980 C979 1.373 . S
C981 C965 1.377 . S
C981 C979 1.389 . S
C981 C982 1.524 . S
C982 C981 1.524 . S
C982 C983 1.397 . S
C982 C987 1.363 . S
C983 H954 0.950 . S
C983 C982 1.397 . S
C983 C984 1.334 . S
C984 H955 0.950 1_556 S
C984 C983 1.334 . S
C984 C985 1.287 . S
C985 C984 1.287 . S
C985 C986 1.524 . S
C985 H988 0.999 1_556 S
C986 H956 0.950 . S
C986 C985 1.524 . S
C986 C987 1.415 . S
C987 H957 0.950 . S
C987 C982 1.363 . S
C987 C986 1.415 . S
H988 C985 0.999 1_554 S
H989 C970 0.913 . S
H990 C1008 0.951 . S
H991 C1010 0.951 . S
H992 C1012 0.950 . S
H993 C1013 0.950 1_556 S
H994 C1015 0.950 . S
H995 C1018 0.950 . S
H996 C1019 0.950 . S
H997 C1021 0.950 . S
H998 C1022 0.950 . S
H999 C1023 0.951 . S
H1000 C1025 0.951 . S
H1001 C1027 0.950 . S
H1002 C1028 0.950 . S
H1003 C1030 0.950 . S
H1004 C1033 0.950 . S
H1005 C1034 0.950 . S
H1006 C1036 0.950 . S
H1007 C1037 0.950 . S
C1008 H990 0.951 . S
C1008 C1009 1.366 . S
C1008 C1010 1.388 1_556 S
C1009 C1008 1.366 . S
C1009 C1013 1.385 1_556 S
C1010 H991 0.951 . S
C1010 C1008 1.388 1_554 S
C1010 C1011 1.366 . S
C1011 C1010 1.366 . S
C1011 C1012 1.414 . S
C1011 C1014 1.499 . S
C1012 H992 0.950 . S
C1012 C1011 1.414 . S
C1012 C1013 1.374 . S
C1013 H993 0.950 1_554 S
C1013 C1009 1.385 1_554 S
C1013 C1012 1.374 . S
C1014 C1011 1.499 . S
C1014 C1015 1.373 . S
C1014 C1016 1.389 . S
C1015 H994 0.950 . S
C1015 C1014 1.373 . S
C1015 C1031 1.377 . S
C1016 C1014 1.389 . S
C1016 C1017 1.524 . S
C1016 C1030 1.377 . S
C1017 C1016 1.524 . S
C1017 C1018 1.397 . S
C1017 C1022 1.363 . S
C1018 H995 0.950 . S
C1018 C1017 1.397 . S
C1018 C1019 1.334 . S
C1019 H996 0.950 . S
C1019 C1018 1.334 . S
C1019 C1020 1.287 . S
C1020 C1019 1.287 . S
C1020 C1021 1.524 . S
C1020 H1039 0.913 . S
C1021 H997 0.950 . S
C1021 C1020 1.524 . S
C1021 C1022 1.415 . S
C1022 H998 0.950 . S
C1022 C1017 1.363 . S
C1022 C1021 1.415 . S
C1023 H999 0.951 . S
C1023 C1024 1.366 . S
C1023 C1025 1.388 . S
C1024 C1023 1.366 . S
C1024 C1028 1.385 . S
C1025 H1000 0.951 . S
C1025 C1023 1.388 . S
C1025 C1026 1.366 . S
C1026 C1025 1.366 . S
C1026 C1027 1.414 . S
C1026 C1029 1.499 . S
C1027 H1001 0.950 . S
C1027 C1026 1.414 . S
C1027 C1028 1.374 . S
C1028 H1002 0.950 . S
C1028 C1024 1.385 . S
C1028 C1027 1.374 . S
C1029 C1026 1.499 . S
C1029 C1030 1.373 . S
C1029 C1031 1.389 . S
C1030 H1003 0.950 . S
C1030 C1016 1.377 . S
C1030 C1029 1.373 . S
C1031 C1015 1.377 . S
C1031 C1029 1.389 . S
C1031 C1032 1.524 . S
C1032 C1031 1.524 . S
C1032 C1033 1.397 . S
C1032 C1037 1.363 . S
C1033 H1004 0.950 . S
C1033 C1032 1.397 . S
C1033 C1034 1.334 . S
C1034 H1005 0.950 . S
C1034 C1033 1.334 . S
C1034 C1035 1.287 . S
C1035 C1034 1.287 . S
C1035 C1036 1.524 . S
C1035 H1038 0.999 . S
C1036 H1006 0.950 . S
C1036 C1035 1.524 . S
C1036 C1037 1.415 . S
C1037 H1007 0.950 . S
C1037 C1032 1.363 . S
C1037 C1036 1.415 . S
H1038 C1035 0.999 . S
H1039 C1020 0.913 . S
H1040 C1058 0.951 . S
H1041 C1060 0.951 . S
H1042 C1062 0.950 . S
H1043 C1063 0.950 . S
H1044 C1065 0.950 . S
H1045 C1068 0.950 . S
H1046 C1069 0.950 . S
H1047 C1071 0.950 . S
H1048 C1072 0.950 . S
H1049 C1073 0.951 . S
H1050 C1075 0.951 . S
H1051 C1077 0.950 . S
H1052 C1078 0.950 . S
H1053 C1080 0.950 . S
H1054 C1083 0.950 . S
H1055 C1084 0.950 . S
H1056 C1086 0.950 . S
H1057 C1087 0.950 . S
C1058 H1040 0.951 . S
C1058 C1059 1.366 . S
C1058 C1060 1.388 . S
C1059 C1058 1.366 . S
C1059 C1063 1.385 . S
C1060 H1041 0.951 . S
C1060 C1058 1.388 . S
C1060 C1061 1.366 . S
C1061 C1060 1.366 . S
C1061 C1062 1.414 . S
C1061 C1064 1.499 . S
C1062 H1042 0.950 . S
C1062 C1061 1.414 . S
C1062 C1063 1.374 . S
C1063 H1043 0.950 . S
C1063 C1059 1.385 . S
C1063 C1062 1.374 . S
C1064 C1061 1.499 . S
C1064 C1065 1.373 . S
C1064 C1066 1.389 . S
C1065 H1044 0.950 . S
C1065 C1064 1.373 . S
C1065 C1081 1.377 . S
C1066 C1064 1.389 . S
C1066 C1067 1.524 . S
C1066 C1080 1.377 . S
C1067 C1066 1.524 . S
C1067 C1068 1.397 . S
C1067 C1072 1.363 . S
C1068 H1045 0.950 . S
C1068 C1067 1.397 . S
C1068 C1069 1.334 . S
C1069 H1046 0.950 . S
C1069 C1068 1.334 . S
C1069 C1070 1.287 . S
C1070 C1069 1.287 . S
C1070 C1071 1.524 . S
C1070 H1089 0.913 . S
C1071 H1047 0.950 . S
C1071 C1070 1.524 . S
C1071 C1072 1.415 . S
C1072 H1048 0.950 . S
C1072 C1067 1.363 . S
C1072 C1071 1.415 . S
C1073 H1049 0.951 . S
C1073 C1074 1.366 . S
C1073 C1075 1.388 . S
C1074 C1073 1.366 . S
C1074 C1078 1.385 . S
C1075 H1050 0.951 . S
C1075 C1073 1.388 . S
C1075 C1076 1.366 . S
C1076 C1075 1.366 . S
C1076 C1077 1.414 . S
C1076 C1079 1.499 . S
C1077 H1051 0.950 . S
C1077 C1076 1.414 . S
C1077 C1078 1.374 . S
C1078 H1052 0.950 . S
C1078 C1074 1.385 . S
C1078 C1077 1.374 . S
C1079 C1076 1.499 . S
C1079 C1080 1.373 . S
C1079 C1081 1.389 . S
C1080 H1053 0.950 . S
C1080 C1066 1.377 . S
C1080 C1079 1.373 . S
C1081 C1065 1.377 . S
C1081 C1079 1.389 . S
C1081 C1082 1.524 . S
C1082 C1081 1.524 . S
C1082 C1083 1.397 . S
C1082 C1087 1.363 . S
C1083 H1054 0.950 . S
C1083 C1082 1.397 . S
C1083 C1084 1.334 . S
C1084 H1055 0.950 . S
C1084 C1083 1.334 . S
C1084 C1085 1.287 . S
C1085 C1084 1.287 . S
C1085 C1086 1.524 . S
C1085 H1088 0.999 . S
C1086 H1056 0.950 . S
C1086 C1085 1.524 . S
C1086 C1087 1.415 . S
C1087 H1057 0.950 . S
C1087 C1082 1.363 . S
C1087 C1086 1.415 . S
H1088 C1085 0.999 . S
H1089 C1070 0.913 . S
H1090 C1108 0.951 . S
H1091 C1110 0.951 . S
H1092 C1112 0.950 . S
H1093 C1113 0.950 . S
H1094 C1115 0.950 . S
H1095 C1118 0.950 . S
H1096 C1119 0.950 . S
H1097 C1121 0.950 . S
H1098 C1122 0.950 . S
H1099 C1123 0.951 . S
H1100 C1125 0.951 . S
H1101 C1127 0.950 . S
H1102 C1128 0.950 . S
H1103 C1130 0.950 . S
H1104 C1133 0.950 . S
H1105 C1134 0.950 . S
H1106 C1136 0.950 . S
H1107 C1137 0.950 . S
C1108 H1090 0.951 . S
C1108 C1109 1.366 . S
C1108 C1110 1.388 . S
C1109 C1108 1.366 . S
C1109 C1113 1.385 . S
C1110 H1091 0.951 . S
C1110 C1108 1.388 . S
C1110 C1111 1.366 . S
C1111 C1110 1.366 . S
C1111 C1112 1.414 . S
C1111 C1114 1.499 . S
C1112 H1092 0.950 . S
C1112 C1111 1.414 . S
C1112 C1113 1.374 . S
C1113 H1093 0.950 . S
C1113 C1109 1.385 . S
C1113 C1112 1.374 . S
C1114 C1111 1.499 . S
C1114 C1115 1.373 . S
C1114 C1116 1.389 . S
C1115 H1094 0.950 . S
C1115 C1114 1.373 . S
C1115 C1131 1.377 . S
C1116 C1114 1.389 . S
C1116 C1117 1.524 . S
C1116 C1130 1.377 . S
C1117 C1116 1.524 . S
C1117 C1118 1.397 . S
C1117 C1122 1.363 . S
C1118 H1095 0.950 . S
C1118 C1117 1.397 . S
C1118 C1119 1.334 . S
C1119 H1096 0.950 . S
C1119 C1118 1.334 . S
C1119 C1120 1.287 . S
C1120 C1119 1.287 . S
C1120 C1121 1.524 . S
C1120 H1139 0.913 . S
C1121 H1097 0.950 . S
C1121 C1120 1.524 . S
C1121 C1122 1.415 . S
C1122 H1098 0.950 . S
C1122 C1117 1.363 . S
C1122 C1121 1.415 . S
C1123 H1099 0.951 . S
C1123 C1124 1.366 . S
C1123 C1125 1.388 . S
C1124 C1123 1.366 . S
C1124 C1128 1.385 . S
C1125 H1100 0.951 . S
C1125 C1123 1.388 . S
C1125 C1126 1.366 1_556 S
C1126 C1125 1.366 1_554 S
C1126 C1127 1.414 1_554 S
C1126 C1129 1.499 . S
C1127 H1101 0.950 . S
C1127 C1126 1.414 1_556 S
C1127 C1128 1.374 . S
C1128 H1102 0.950 . S
C1128 C1124 1.385 . S
C1128 C1127 1.374 . S
C1129 C1126 1.499 . S
C1129 C1130 1.373 . S
C1129 C1131 1.389 . S
C1130 H1103 0.950 . S
C1130 C1116 1.377 . S
C1130 C1129 1.373 . S
C1131 C1115 1.377 . S
C1131 C1129 1.389 . S
C1131 C1132 1.524 . S
C1132 C1131 1.524 . S
C1132 C1133 1.397 . S
C1132 C1137 1.363 . S
C1133 H1104 0.950 . S
C1133 C1132 1.397 . S
C1133 C1134 1.334 . S
C1134 H1105 0.950 . S
C1134 C1133 1.334 . S
C1134 C1135 1.287 . S
C1135 C1134 1.287 . S
C1135 C1136 1.524 . S
C1135 H1138 0.999 . S
C1136 H1106 0.950 . S
C1136 C1135 1.524 . S
C1136 C1137 1.415 . S
C1137 H1107 0.950 . S
C1137 C1132 1.363 . S
C1137 C1136 1.415 . S
H1138 C1135 0.999 . S
H1139 C1120 0.913 . S
H1140 C1158 0.951 . S
H1141 C1160 0.951 . S
H1142 C1162 0.950 . S
H1143 C1163 0.950 . S
H1144 C1165 0.950 . S
H1145 C1168 0.950 . S
H1146 C1169 0.950 . S
H1147 C1171 0.950 . S
H1148 C1172 0.950 . S
H1149 C1173 0.951 . S
H1150 C1175 0.951 . S
H1151 C1177 0.950 . S
H1152 C1178 0.950 . S
H1153 C1180 0.950 . S
H1154 C1183 0.950 . S
H1155 C1184 0.950 . S
H1156 C1186 0.950 . S
H1157 C1187 0.950 . S
C1158 H1140 0.951 . S
C1158 C1159 1.366 . S
C1158 C1160 1.388 1_554 S
C1159 C1158 1.366 . S
C1159 C1163 1.385 . S
C1160 H1141 0.951 . S
C1160 C1158 1.388 1_556 S
C1160 C1161 1.366 . S
C1161 C1160 1.366 . S
C1161 C1162 1.414 . S
C1161 C1164 1.499 . S
C1162 H1142 0.950 . S
C1162 C1161 1.414 . S
C1162 C1163 1.374 1_556 S
C1163 H1143 0.950 . S
C1163 C1159 1.385 . S
C1163 C1162 1.374 1_554 S
C1164 C1161 1.499 . S
C1164 C1165 1.373 . S
C1164 C1166 1.389 . S
C1165 H1144 0.950 . S
C1165 C1164 1.373 . S
C1165 C1181 1.377 . S
C1166 C1164 1.389 . S
C1166 C1167 1.524 . S
C1166 C1180 1.377 . S
C1167 C1166 1.524 . S
C1167 C1168 1.397 . S
C1167 C1172 1.363 . S
C1168 H1145 0.950 . S
C1168 C1167 1.397 . S
C1168 C1169 1.334 . S
C1169 H1146 0.950 . S
C1169 C1168 1.334 . S
C1169 C1170 1.287 . S
C1170 C1169 1.287 . S
C1170 C1171 1.524 . S
C1170 H1189 0.913 . S
C1171 H1147 0.950 . S
C1171 C1170 1.524 . S
C1171 C1172 1.415 . S
C1172 H1148 0.950 . S
C1172 C1167 1.363 . S
C1172 C1171 1.415 . S
C1173 H1149 0.951 . S
C1173 C1174 1.366 . S
C1173 C1175 1.388 . S
C1174 C1173 1.366 . S
C1174 C1178 1.385 . S
C1175 H1150 0.951 . S
C1175 C1173 1.388 . S
C1175 C1176 1.366 . S
C1176 C1175 1.366 . S
C1176 C1177 1.414 . S
C1176 C1179 1.499 . S
C1177 H1151 0.950 . S
C1177 C1176 1.414 . S
C1177 C1178 1.374 . S
C1178 H1152 0.950 . S
C1178 C1174 1.385 . S
C1178 C1177 1.374 . S
C1179 C1176 1.499 . S
C1179 C1180 1.373 . S
C1179 C1181 1.389 . S
C1180 H1153 0.950 . S
C1180 C1166 1.377 . S
C1180 C1179 1.373 . S
C1181 C1165 1.377 . S
C1181 C1179 1.389 . S
C1181 C1182 1.524 . S
C1182 C1181 1.524 . S
C1182 C1183 1.397 . S
C1182 C1187 1.363 . S
C1183 H1154 0.950 . S
C1183 C1182 1.397 . S
C1183 C1184 1.334 . S
C1184 H1155 0.950 . S
C1184 C1183 1.334 . S
C1184 C1185 1.287 . S
C1185 C1184 1.287 . S
C1185 C1186 1.524 . S
C1185 H1188 0.999 . S
C1186 H1156 0.950 . S
C1186 C1185 1.524 . S
C1186 C1187 1.415 . S
C1187 H1157 0.950 . S
C1187 C1182 1.363 . S
C1187 C1186 1.415 . S
H1188 C1185 0.999 . S
H1189 C1170 0.913 . S
H1190 C1208 0.951 . S
H1191 C1210 0.951 . S
H1192 C1212 0.950 . S
H1193 C1213 0.950 . S
H1194 C1215 0.950 . S
H1195 C1218 0.950 . S
H1196 C1219 0.950 . S
H1197 C1221 0.950 . S
H1198 C1222 0.950 . S
H1199 C1223 0.951 . S
H1200 C1225 0.951 . S
H1201 C1227 0.950 . S
H1202 C1228 0.950 . S
H1203 C1230 0.950 . S
H1204 C1233 0.950 . S
H1205 C1234 0.950 . S
H1206 C1236 0.950 . S
H1207 C1237 0.950 . S
C1208 H1190 0.951 . S
C1208 C1209 1.366 . S
C1208 C1210 1.388 . S
C1209 C1208 1.366 . S
C1209 C1213 1.385 . S
C1210 H1191 0.951 . S
C1210 C1208 1.388 . S
C1210 C1211 1.366 . S
C1211 C1210 1.366 . S
C1211 C1212 1.414 . S
C1211 C1214 1.499 . S
C1212 H1192 0.950 . S
C1212 C1211 1.414 . S
C1212 C1213 1.374 . S
C1213 H1193 0.950 . S
C1213 C1209 1.385 . S
C1213 C1212 1.374 . S
C1214 C1211 1.499 . S
C1214 C1215 1.373 . S
C1214 C1216 1.389 . S
C1215 H1194 0.950 . S
C1215 C1214 1.373 . S
C1215 C1231 1.377 . S
C1216 C1214 1.389 . S
C1216 C1217 1.524 . S
C1216 C1230 1.377 . S
C1217 C1216 1.524 . S
C1217 C1218 1.397 . S
C1217 C1222 1.363 . S
C1218 H1195 0.950 . S
C1218 C1217 1.397 . S
C1218 C1219 1.334 . S
C1219 H1196 0.950 . S
C1219 C1218 1.334 . S
C1219 C1220 1.287 . S
C1220 C1219 1.287 . S
C1220 C1221 1.524 . S
C1220 H1239 0.913 . S
C1221 H1197 0.950 . S
C1221 C1220 1.524 . S
C1221 C1222 1.415 . S
C1222 H1198 0.950 . S
C1222 C1217 1.363 . S
C1222 C1221 1.415 . S
C1223 H1199 0.951 . S
C1223 C1224 1.366 . S
C1223 C1225 1.388 . S
C1224 C1223 1.366 . S
C1224 C1228 1.385 . S
C1225 H1200 0.951 . S
C1225 C1223 1.388 . S
C1225 C1226 1.366 . S
C1226 C1225 1.366 . S
C1226 C1227 1.414 . S
C1226 C1229 1.499 . S
C1227 H1201 0.950 . S
C1227 C1226 1.414 . S
C1227 C1228 1.374 . S
C1228 H1202 0.950 . S
C1228 C1224 1.385 . S
C1228 C1227 1.374 . S
C1229 C1226 1.499 . S
C1229 C1230 1.373 . S
C1229 C1231 1.389 . S
C1230 H1203 0.950 . S
C1230 C1216 1.377 . S
C1230 C1229 1.373 . S
C1231 C1215 1.377 . S
C1231 C1229 1.389 . S
C1231 C1232 1.524 . S
C1232 C1231 1.524 . S
C1232 C1233 1.397 . S
C1232 C1237 1.363 . S
C1233 H1204 0.950 . S
C1233 C1232 1.397 . S
C1233 C1234 1.334 . S
C1234 H1205 0.950 . S
C1234 C1233 1.334 . S
C1234 C1235 1.287 . S
C1235 C1234 1.287 . S
C1235 C1236 1.524 . S
C1235 H1238 0.999 . S
C1236 H1206 0.950 . S
C1236 C1235 1.524 . S
C1236 C1237 1.415 . S
C1237 H1207 0.950 . S
C1237 C1232 1.363 . S
C1237 C1236 1.415 . S
H1238 C1235 0.999 . S
H1239 C1220 0.913 . S
H1240 C1258 0.951 . S
H1241 C1260 0.951 . S
H1242 C1262 0.950 . S
H1243 C1263 0.950 . S
H1244 C1265 0.950 . S
H1245 C1268 0.950 . S
H1246 C1269 0.950 . S
H1247 C1271 0.950 . S
H1248 C1272 0.950 . S
H1249 C1273 0.951 . S
H1250 C1275 0.951 . S
H1251 C1277 0.950 . S
H1252 C1278 0.950 . S
H1253 C1280 0.950 . S
H1254 C1283 0.950 . S
H1255 C1284 0.950 . S
H1256 C1286 0.950 . S
H1257 C1287 0.950 . S
C1258 H1240 0.951 . S
C1258 C1259 1.366 . S
C1258 C1260 1.388 . S
C1259 C1258 1.366 . S
C1259 C1263 1.385 . S
C1260 H1241 0.951 . S
C1260 C1258 1.388 . S
C1260 C1261 1.366 . S
C1261 C1260 1.366 . S
C1261 C1262 1.414 . S
C1261 C1264 1.499 . S
C1262 H1242 0.950 . S
C1262 C1261 1.414 . S
C1262 C1263 1.374 . S
C1263 H1243 0.950 . S
C1263 C1259 1.385 . S
C1263 C1262 1.374 . S
C1264 C1261 1.499 . S
C1264 C1265 1.373 . S
C1264 C1266 1.389 . S
C1265 H1244 0.950 . S
C1265 C1264 1.373 . S
C1265 C1281 1.377 . S
C1266 C1264 1.389 . S
C1266 C1267 1.524 . S
C1266 C1280 1.377 . S
C1267 C1266 1.524 . S
C1267 C1268 1.397 . S
C1267 C1272 1.363 . S
C1268 H1245 0.950 . S
C1268 C1267 1.397 . S
C1268 C1269 1.334 . S
C1269 H1246 0.950 . S
C1269 C1268 1.334 . S
C1269 C1270 1.287 . S
C1270 C1269 1.287 . S
C1270 C1271 1.524 . S
C1270 H1289 0.913 . S
C1271 H1247 0.950 . S
C1271 C1270 1.524 . S
C1271 C1272 1.415 . S
C1272 H1248 0.950 . S
C1272 C1267 1.363 . S
C1272 C1271 1.415 . S
C1273 H1249 0.951 . S
C1273 C1274 1.366 . S
C1273 C1275 1.388 . S
C1274 C1273 1.366 . S
C1274 C1278 1.385 . S
C1275 H1250 0.951 . S
C1275 C1273 1.388 . S
C1275 C1276 1.366 . S
C1276 C1275 1.366 . S
C1276 C1277 1.414 . S
C1276 C1279 1.499 . S
C1277 H1251 0.950 . S
C1277 C1276 1.414 . S
C1277 C1278 1.374 . S
C1278 H1252 0.950 . S
C1278 C1274 1.385 . S
C1278 C1277 1.374 . S
C1279 C1276 1.499 . S
C1279 C1280 1.373 . S
C1279 C1281 1.389 . S
C1280 H1253 0.950 . S
C1280 C1266 1.377 . S
C1280 C1279 1.373 . S
C1281 C1265 1.377 . S
C1281 C1279 1.389 . S
C1281 C1282 1.524 . S
C1282 C1281 1.524 . S
C1282 C1283 1.397 . S
C1282 C1287 1.363 . S
C1283 H1254 0.950 . S
C1283 C1282 1.397 . S
C1283 C1284 1.334 . S
C1284 H1255 0.950 . S
C1284 C1283 1.334 . S
C1284 C1285 1.287 . S
C1285 C1284 1.287 . S
C1285 C1286 1.524 . S
C1285 H1288 0.999 . S
C1286 H1256 0.950 . S
C1286 C1285 1.524 . S
C1286 C1287 1.415 . S
C1287 H1257 0.950 . S
C1287 C1282 1.363 . S
C1287 C1286 1.415 . S
H1288 C1285 0.999 . S
H1289 C1270 0.913 . S
H1290 C1308 0.951 . S
H1291 C1310 0.951 . S
H1292 C1312 0.950 . S
H1293 C1313 0.950 . S
H1294 C1315 0.950 . S
H1295 C1318 0.950 . S
H1296 C1319 0.950 . S
H1297 C1321 0.950 . S
H1298 C1322 0.950 . S
H1299 C1323 0.951 . S
H1300 C1325 0.951 . S
H1301 C1327 0.950 . S
H1302 C1328 0.950 . S
H1303 C1330 0.950 . S
H1304 C1333 0.950 . S
H1305 C1334 0.950 . S
H1306 C1336 0.950 . S
H1307 C1337 0.950 . S
C1308 H1290 0.951 . S
C1308 C1309 1.366 . S
C1308 C1310 1.388 . S
C1309 C1308 1.366 . S
C1309 C1313 1.385 . S
C1310 H1291 0.951 . S
C1310 C1308 1.388 . S
C1310 C1311 1.366 . S
C1311 C1310 1.366 . S
C1311 C1312 1.414 . S
C1311 C1314 1.499 . S
C1312 H1292 0.950 . S
C1312 C1311 1.414 . S
C1312 C1313 1.374 . S
C1313 H1293 0.950 . S
C1313 C1309 1.385 . S
C1313 C1312 1.374 . S
C1314 C1311 1.499 . S
C1314 C1315 1.373 . S
C1314 C1316 1.389 . S
C1315 H1294 0.950 . S
C1315 C1314 1.373 . S
C1315 C1331 1.377 . S
C1316 C1314 1.389 . S
C1316 C1317 1.524 . S
C1316 C1330 1.377 . S
C1317 C1316 1.524 . S
C1317 C1318 1.397 . S
C1317 C1322 1.363 . S
C1318 H1295 0.950 . S
C1318 C1317 1.397 . S
C1318 C1319 1.334 . S
C1319 H1296 0.950 . S
C1319 C1318 1.334 . S
C1319 C1320 1.287 . S
C1320 C1319 1.287 . S
C1320 C1321 1.524 . S
C1320 H1339 0.913 . S
C1321 H1297 0.950 . S
C1321 C1320 1.524 . S
C1321 C1322 1.415 . S
C1322 H1298 0.950 . S
C1322 C1317 1.363 . S
C1322 C1321 1.415 . S
C1323 H1299 0.951 . S
C1323 C1324 1.366 . S
C1323 C1325 1.388 . S
C1324 C1323 1.366 . S
C1324 C1328 1.385 . S
C1325 H1300 0.951 . S
C1325 C1323 1.388 . S
C1325 C1326 1.366 . S
C1326 C1325 1.366 . S
C1326 C1327 1.414 . S
C1326 C1329 1.499 . S
C1327 H1301 0.950 . S
C1327 C1326 1.414 . S
C1327 C1328 1.374 . S
C1328 H1302 0.950 . S
C1328 C1324 1.385 . S
C1328 C1327 1.374 . S
C1329 C1326 1.499 . S
C1329 C1330 1.373 . S
C1329 C1331 1.389 . S
C1330 H1303 0.950 . S
C1330 C1316 1.377 . S
C1330 C1329 1.373 . S
C1331 C1315 1.377 . S
C1331 C1329 1.389 . S
C1331 C1332 1.524 . S
C1332 C1331 1.524 . S
C1332 C1333 1.397 . S
C1332 C1337 1.363 . S
C1333 H1304 0.950 . S
C1333 C1332 1.397 . S
C1333 C1334 1.334 . S
C1334 H1305 0.950 . S
C1334 C1333 1.334 . S
C1334 C1335 1.287 . S
C1335 C1334 1.287 . S
C1335 C1336 1.524 . S
C1335 H1338 0.999 . S
C1336 H1306 0.950 . S
C1336 C1335 1.524 . S
C1336 C1337 1.415 . S
C1337 H1307 0.950 . S
C1337 C1332 1.363 . S
C1337 C1336 1.415 . S
H1338 C1335 0.999 . S
H1339 C1320 0.913 . S
H1340 C1358 0.951 . S
H1341 C1360 0.951 . S
H1342 C1362 0.950 . S
H1343 C1363 0.950 . S
H1344 C1365 0.950 . S
H1345 C1368 0.950 . S
H1346 C1369 0.950 . S
H1347 C1371 0.950 . S
H1348 C1372 0.950 . S
H1349 C1373 0.951 . S
H1350 C1375 0.951 . S
H1351 C1377 0.950 . S
H1352 C1378 0.950 . S
H1353 C1380 0.950 . S
H1354 C1383 0.950 . S
H1355 C1384 0.950 . S
H1356 C1386 0.950 . S
H1357 C1387 0.950 . S
C1358 H1340 0.951 . S
C1358 C1359 1.366 . S
C1358 C1360 1.388 . S
C1359 C1358 1.366 . S
C1359 C1363 1.385 . S
C1360 H1341 0.951 . S
C1360 C1358 1.388 . S
C1360 C1361 1.366 . S
C1361 C1360 1.366 . S
C1361 C1362 1.414 . S
C1361 C1364 1.499 . S
C1362 H1342 0.950 . S
C1362 C1361 1.414 . S
C1362 C1363 1.374 . S
C1363 H1343 0.950 . S
C1363 C1359 1.385 . S
C1363 C1362 1.374 . S
C1364 C1361 1.499 . S
C1364 C1365 1.373 . S
C1364 C1366 1.389 . S
C1365 H1344 0.950 . S
C1365 C1364 1.373 . S
C1365 C1381 1.377 . S
C1366 C1364 1.389 . S
C1366 C1367 1.524 . S
C1366 C1380 1.377 . S
C1367 C1366 1.524 . S
C1367 C1368 1.397 . S
C1367 C1372 1.363 . S
C1368 H1345 0.950 . S
C1368 C1367 1.397 . S
C1368 C1369 1.334 . S
C1369 H1346 0.950 . S
C1369 C1368 1.334 . S
C1369 C1370 1.287 . S
C1370 C1369 1.287 . S
C1370 C1371 1.524 . S
C1370 H1389 0.913 . S
C1371 H1347 0.950 . S
C1371 C1370 1.524 . S
C1371 C1372 1.415 . S
C1372 H1348 0.950 . S
C1372 C1367 1.363 . S
C1372 C1371 1.415 . S
C1373 H1349 0.951 . S
C1373 C1374 1.366 . S
C1373 C1375 1.388 . S
C1374 C1373 1.366 . S
C1374 C1378 1.385 . S
C1375 H1350 0.951 . S
C1375 C1373 1.388 . S
C1375 C1376 1.350 1_556 S
C1376 C1375 1.350 1_554 S
C1376 C1377 1.406 1_554 S
C1376 C1379 1.523 . S
C1377 H1351 0.950 . S
C1377 C1376 1.406 1_556 S
C1377 C1378 1.374 . S
C1378 H1352 0.950 . S
C1378 C1374 1.385 . S
C1378 C1377 1.374 . S
C1379 C1376 1.523 . S
C1379 C1380 1.373 . S
C1379 C1381 1.389 . S
C1380 H1353 0.950 . S
C1380 C1366 1.377 . S
C1380 C1379 1.373 . S
C1381 C1365 1.377 . S
C1381 C1379 1.389 . S
C1381 C1382 1.524 . S
C1382 C1381 1.524 . S
C1382 C1383 1.397 . S
C1382 C1387 1.363 . S
C1383 H1354 0.950 . S
C1383 C1382 1.397 . S
C1383 C1384 1.334 1_554 S
C1384 H1355 0.950 . S
C1384 C1383 1.334 1_556 S
C1384 C1385 1.287 1_556 S
C1385 C1384 1.287 1_554 S
C1385 C1386 1.524 . S
C1385 H1388 0.999 1_554 S
C1386 H1356 0.950 . S
C1386 C1385 1.524 . S
C1386 C1387 1.415 . S
C1387 H1357 0.950 . S
C1387 C1382 1.363 . S
C1387 C1386 1.415 . S
H1388 C1385 0.999 1_556 S
H1389 C1370 0.913 . S
H1390 C1408 0.951 . S
H1391 C1410 0.951 . S
H1392 C1412 0.950 . S
H1393 C1413 0.950 . S
H1394 C1415 0.950 . S
H1395 C1418 0.950 . S
H1396 C1419 0.950 . S
H1397 C1421 0.950 . S
H1398 C1422 0.950 . S
H1399 C1423 0.951 . S
H1400 C1425 0.951 . S
H1401 C1427 0.950 . S
H1402 C1428 0.950 . S
H1403 C1430 0.950 . S
H1404 C1433 0.950 . S
H1405 C1434 0.950 . S
H1406 C1436 0.950 . S
H1407 C1437 0.950 . S
C1408 H1390 0.951 . S
C1408 C1409 1.366 . S
C1408 C1410 1.388 1_554 S
C1409 C1408 1.366 . S
C1409 C1413 1.385 . S
C1410 H1391 0.951 . S
C1410 C1408 1.388 1_556 S
C1410 C1411 1.366 . S
C1411 C1410 1.366 . S
C1411 C1412 1.414 . S
C1411 C1414 1.499 . S
C1412 H1392 0.950 . S
C1412 C1411 1.414 . S
C1412 C1413 1.374 1_556 S
C1413 H1393 0.950 . S
C1413 C1409 1.385 . S
C1413 C1412 1.374 1_554 S
C1414 C1411 1.499 . S
C1414 C1415 1.373 . S
C1414 C1416 1.389 . S
C1415 H1394 0.950 . S
C1415 C1414 1.373 . S
C1415 C1431 1.377 . S
C1416 C1414 1.389 . S
C1416 C1417 1.524 . S
C1416 C1430 1.377 . S
C1417 C1416 1.524 . S
C1417 C1418 1.397 . S
C1417 C1422 1.363 . S
C1418 H1395 0.950 . S
C1418 C1417 1.397 . S
C1418 C1419 1.334 1_556 S
C1419 H1396 0.950 . S
C1419 C1418 1.334 1_554 S
C1419 C1420 1.287 1_554 S
C1420 C1419 1.287 1_556 S
C1420 C1421 1.524 . S
C1420 H1439 0.913 1_556 S
C1421 H1397 0.950 . S
C1421 C1420 1.524 . S
C1421 C1422 1.415 . S
C1422 H1398 0.950 . S
C1422 C1417 1.363 . S
C1422 C1421 1.415 . S
C1423 H1399 0.951 . S
C1423 C1424 1.366 . S
C1423 C1425 1.388 . S
C1424 C1423 1.366 . S
C1424 C1428 1.385 . S
C1425 H1400 0.951 . S
C1425 C1423 1.388 . S
C1425 C1426 1.366 . S
C1426 C1425 1.366 . S
C1426 C1427 1.414 . S
C1426 C1429 1.499 . S
C1427 H1401 0.950 . S
C1427 C1426 1.414 . S
C1427 C1428 1.374 . S
C1428 H1402 0.950 . S
C1428 C1424 1.385 . S
C1428 C1427 1.374 . S
C1429 C1426 1.499 . S
C1429 C1430 1.373 . S
C1429 C1431 1.389 . S
C1430 H1403 0.950 . S
C1430 C1416 1.377 . S
C1430 C1429 1.373 . S
C1431 C1415 1.377 . S
C1431 C1429 1.389 . S
C1431 C1432 1.524 . S
C1432 C1431 1.524 . S
C1432 C1433 1.397 . S
C1432 C1437 1.363 . S
C1433 H1404 0.950 . S
C1433 C1432 1.397 . S
C1433 C1434 1.334 . S
C1434 H1405 0.950 . S
C1434 C1433 1.334 . S
C1434 C1435 1.287 . S
C1435 C1434 1.287 . S
C1435 C1436 1.524 . S
C1435 H1438 0.999 . S
C1436 H1406 0.950 . S
C1436 C1435 1.524 . S
C1436 C1437 1.415 . S
C1437 H1407 0.950 . S
C1437 C1432 1.363 . S
C1437 C1436 1.415 . S
H1438 C1435 0.999 . S
H1439 C1420 0.913 1_554 S
H1440 C1458 0.951 . S
H1441 C1460 0.951 . S
H1442 C1462 0.950 . S
H1443 C1463 0.950 . S
H1444 C1465 0.950 . S
H1445 C1468 0.950 . S
H1446 C1469 0.950 . S
H1447 C1471 0.950 . S
H1448 C1472 0.950 . S
H1449 C1473 0.951 . S
H1450 C1475 0.951 . S
H1451 C1477 0.950 . S
H1452 C1478 0.950 . S
H1453 C1480 0.950 . S
H1454 C1483 0.950 1_554 S
H1455 C1484 0.950 . S
H1456 C1486 0.950 . S
H1457 C1487 0.950 . S
C1458 H1440 0.951 . S
C1458 C1459 1.366 . S
C1458 C1460 1.388 . S
C1459 C1458 1.366 . S
C1459 C1463 1.385 . S
C1460 H1441 0.951 . S
C1460 C1458 1.388 . S
C1460 C1461 1.366 . S
C1461 C1460 1.366 . S
C1461 C1462 1.414 . S
C1461 C1464 1.499 . S
C1462 H1442 0.950 . S
C1462 C1461 1.414 . S
C1462 C1463 1.374 . S
C1463 H1443 0.950 . S
C1463 C1459 1.385 . S
C1463 C1462 1.374 . S
C1464 C1461 1.499 . S
C1464 C1465 1.373 . S
C1464 C1466 1.389 . S
C1465 H1444 0.950 . S
C1465 C1464 1.373 . S
C1465 C1481 1.377 . S
C1466 C1464 1.389 . S
C1466 C1467 1.524 . S
C1466 C1480 1.377 . S
C1467 C1466 1.524 . S
C1467 C1468 1.397 . S
C1467 C1472 1.363 . S
C1468 H1445 0.950 . S
C1468 C1467 1.397 . S
C1468 C1469 1.334 . S
C1469 H1446 0.950 . S
C1469 C1468 1.334 . S
C1469 C1470 1.287 . S
C1470 C1469 1.287 . S
C1470 C1471 1.524 . S
C1470 H1489 0.913 . S
C1471 H1447 0.950 . S
C1471 C1470 1.524 . S
C1471 C1472 1.415 . S
C1472 H1448 0.950 . S
C1472 C1467 1.363 . S
C1472 C1471 1.415 . S
C1473 H1449 0.951 . S
C1473 C1474 1.366 . S
C1473 C1475 1.388 . S
C1474 C1473 1.366 . S
C1474 C1478 1.385 . S
C1475 H1450 0.951 . S
C1475 C1473 1.388 . S
C1475 C1476 1.366 . S
C1476 C1475 1.366 . S
C1476 C1477 1.414 . S
C1476 C1479 1.499 . S
C1477 H1451 0.950 . S
C1477 C1476 1.414 . S
C1477 C1478 1.374 . S
C1478 H1452 0.950 . S
C1478 C1474 1.385 . S
C1478 C1477 1.374 . S
C1479 C1476 1.499 . S
C1479 C1480 1.373 . S
C1479 C1481 1.389 . S
C1480 H1453 0.950 . S
C1480 C1466 1.377 . S
C1480 C1479 1.373 . S
C1481 C1465 1.377 . S
C1481 C1479 1.389 . S
C1481 C1482 1.524 . S
C1482 C1481 1.524 . S
C1482 C1483 1.397 1_554 S
C1482 C1487 1.363 . S
C1483 H1454 0.950 1_556 S
C1483 C1482 1.397 1_556 S
C1483 C1484 1.334 . S
C1484 H1455 0.950 . S
C1484 C1483 1.334 . S
C1484 C1485 1.287 . S
C1485 C1484 1.287 . S
C1485 C1486 1.524 . S
C1485 H1488 0.999 . S
C1486 H1456 0.950 . S
C1486 C1485 1.524 . S
C1486 C1487 1.415 1_556 S
C1487 H1457 0.950 . S
C1487 C1482 1.363 . S
C1487 C1486 1.415 1_554 S
H1488 C1485 0.999 . S
H1489 C1470 0.913 . S
H1490 C1508 0.951 . S
H1491 C1510 0.951 . S
H1492 C1512 0.950 . S
H1493 C1513 0.950 . S
H1494 C1515 0.950 . S
H1495 C1518 0.950 . S
H1496 C1519 0.950 . S
H1497 C1521 0.950 . S
H1498 C1522 0.950 . S
H1499 C1523 0.951 . S
H1500 C1525 0.951 . S
H1501 C1527 0.950 . S
H1502 C1528 0.950 . S
H1503 C1530 0.950 . S
H1504 C1533 0.950 . S
H1505 C1534 0.950 . S
H1506 C1536 0.950 . S
H1507 C1537 0.950 . S
C1508 H1490 0.951 . S
C1508 C1509 1.366 . S
C1508 C1510 1.388 . S
C1509 C1508 1.366 . S
C1509 C1513 1.385 . S
C1510 H1491 0.951 . S
C1510 C1508 1.388 . S
C1510 C1511 1.366 . S
C1511 C1510 1.366 . S
C1511 C1512 1.414 . S
C1511 C1514 1.499 . S
C1512 H1492 0.950 . S
C1512 C1511 1.414 . S
C1512 C1513 1.374 . S
C1513 H1493 0.950 . S
C1513 C1509 1.385 . S
C1513 C1512 1.374 . S
C1514 C1511 1.499 . S
C1514 C1515 1.373 . S
C1514 C1516 1.389 . S
C1515 H1494 0.950 . S
C1515 C1514 1.373 . S
C1515 C1531 1.377 . S
C1516 C1514 1.389 . S
C1516 C1517 1.524 . S
C1516 C1530 1.377 . S
C1517 C1516 1.524 . S
C1517 C1518 1.397 . S
C1517 C1522 1.363 . S
C1518 H1495 0.950 . S
C1518 C1517 1.397 . S
C1518 C1519 1.334 . S
C1519 H1496 0.950 . S
C1519 C1518 1.334 . S
C1519 C1520 1.287 . S
C1520 C1519 1.287 . S
C1520 C1521 1.524 . S
C1520 H1539 0.913 . S
C1521 H1497 0.950 . S
C1521 C1520 1.524 . S
C1521 C1522 1.415 . S
C1522 H1498 0.950 . S
C1522 C1517 1.363 . S
C1522 C1521 1.415 . S
C1523 H1499 0.951 . S
C1523 C1524 1.366 . S
C1523 C1525 1.388 . S
C1524 C1523 1.366 . S
C1524 C1528 1.385 . S
C1525 H1500 0.951 . S
C1525 C1523 1.388 . S
C1525 C1526 1.366 . S
C1526 C1525 1.366 . S
C1526 C1527 1.414 . S
C1526 C1529 1.499 . S
C1527 H1501 0.950 . S
C1527 C1526 1.414 . S
C1527 C1528 1.374 . S
C1528 H1502 0.950 . S
C1528 C1524 1.385 . S
C1528 C1527 1.374 . S
C1529 C1526 1.499 . S
C1529 C1530 1.373 . S
C1529 C1531 1.389 . S
C1530 H1503 0.950 . S
C1530 C1516 1.377 . S
C1530 C1529 1.373 . S
C1531 C1515 1.377 . S
C1531 C1529 1.389 . S
C1531 C1532 1.524 . S
C1532 C1531 1.524 . S
C1532 C1533 1.397 . S
C1532 C1537 1.363 . S
C1533 H1504 0.950 . S
C1533 C1532 1.397 . S
C1533 C1534 1.334 . S
C1534 H1505 0.950 . S
C1534 C1533 1.334 . S
C1534 C1535 1.287 . S
C1535 C1534 1.287 . S
C1535 C1536 1.524 . S
C1535 H1538 0.999 . S
C1536 H1506 0.950 . S
C1536 C1535 1.524 . S
C1536 C1537 1.415 . S
C1537 H1507 0.950 . S
C1537 C1532 1.363 . S
C1537 C1536 1.415 . S
H1538 C1535 0.999 . S
H1539 C1520 0.913 . S
H1540 C1558 0.951 . S
H1541 C1560 0.951 . S
H1542 C1562 0.950 . S
H1543 C1563 0.950 . S
H1544 C1565 0.950 . S
H1545 C1568 0.950 . S
H1546 C1569 0.950 . S
H1547 C1571 0.950 . S
H1548 C1572 0.950 . S
H1549 C1573 0.951 . S
H1550 C1575 0.951 . S
H1551 C1577 0.950 . S
H1552 C1578 0.950 . S
H1553 C1580 0.950 . S
H1554 C1583 0.950 . S
H1555 C1584 0.950 . S
H1556 C1586 0.950 . S
H1557 C1587 0.950 . S
C1558 H1540 0.951 . S
C1558 C1559 1.366 . S
C1558 C1560 1.388 . S
C1559 C1558 1.366 . S
C1559 C1563 1.385 . S
C1560 H1541 0.951 . S
C1560 C1558 1.388 . S
C1560 C1561 1.366 . S
C1561 C1560 1.366 . S
C1561 C1562 1.414 . S
C1561 C1564 1.499 . S
C1562 H1542 0.950 . S
C1562 C1561 1.414 . S
C1562 C1563 1.374 . S
C1563 H1543 0.950 . S
C1563 C1559 1.385 . S
C1563 C1562 1.374 . S
C1564 C1561 1.499 . S
C1564 C1565 1.373 . S
C1564 C1566 1.389 . S
C1565 H1544 0.950 . S
C1565 C1564 1.373 . S
C1565 C1581 1.377 . S
C1566 C1564 1.389 . S
C1566 C1567 1.524 . S
C1566 C1580 1.377 . S
C1567 C1566 1.524 . S
C1567 C1568 1.397 . S
C1567 C1572 1.363 . S
C1568 H1545 0.950 . S
C1568 C1567 1.397 . S
C1568 C1569 1.334 . S
C1569 H1546 0.950 . S
C1569 C1568 1.334 . S
C1569 C1570 1.287 . S
C1570 C1569 1.287 . S
C1570 C1571 1.524 . S
C1570 H1589 0.913 . S
C1571 H1547 0.950 . S
C1571 C1570 1.524 . S
C1571 C1572 1.415 . S
C1572 H1548 0.950 . S
C1572 C1567 1.363 . S
C1572 C1571 1.415 . S
C1573 H1549 0.951 . S
C1573 C1574 1.366 . S
C1573 C1575 1.388 . S
C1574 C1573 1.366 . S
C1574 C1578 1.385 . S
C1575 H1550 0.951 . S
C1575 C1573 1.388 . S
C1575 C1576 1.366 . S
C1576 C1575 1.366 . S
C1576 C1577 1.414 . S
C1576 C1579 1.499 . S
C1577 H1551 0.950 . S
C1577 C1576 1.414 . S
C1577 C1578 1.374 . S
C1578 H1552 0.950 . S
C1578 C1574 1.385 . S
C1578 C1577 1.374 . S
C1579 C1576 1.499 . S
C1579 C1580 1.373 . S
C1579 C1581 1.389 . S
C1580 H1553 0.950 . S
C1580 C1566 1.377 . S
C1580 C1579 1.373 . S
C1581 C1565 1.377 . S
C1581 C1579 1.389 . S
C1581 C1582 1.524 . S
C1582 C1581 1.524 . S
C1582 C1583 1.397 . S
C1582 C1587 1.363 . S
C1583 H1554 0.950 . S
C1583 C1582 1.397 . S
C1583 C1584 1.334 . S
C1584 H1555 0.950 . S
C1584 C1583 1.334 . S
C1584 C1585 1.287 . S
C1585 C1584 1.287 . S
C1585 C1586 1.524 . S
C1585 H1588 0.999 . S
C1586 H1556 0.950 . S
C1586 C1585 1.524 . S
C1586 C1587 1.415 . S
C1587 H1557 0.950 . S
C1587 C1582 1.363 . S
C1587 C1586 1.415 . S
H1588 C1585 0.999 . S
H1589 C1570 0.913 . S
H1590 C1608 0.951 . S
H1591 C1610 0.951 . S
H1592 C1612 0.950 . S
H1593 C1613 0.950 . S
H1594 C1615 0.950 . S
H1595 C1618 0.950 . S
H1596 C1619 0.950 . S
H1597 C1621 0.950 . S
H1598 C1622 0.950 . S
H1599 C1623 0.951 . S
H1600 C1625 0.951 . S
H1601 C1627 0.950 . S
H1602 C1628 0.950 . S
H1603 C1630 0.950 . S
H1604 C1633 0.950 . S
H1605 C1634 0.950 . S
H1606 C1636 0.950 . S
H1607 C1637 0.950 . S
C1608 H1590 0.951 . S
C1608 C1609 1.366 . S
C1608 C1610 1.388 . S
C1609 C1608 1.366 . S
C1609 C1613 1.385 . S
C1610 H1591 0.951 . S
C1610 C1608 1.388 . S
C1610 C1611 1.366 . S
C1611 C1610 1.366 . S
C1611 C1612 1.414 . S
C1611 C1614 1.499 . S
C1612 H1592 0.950 . S
C1612 C1611 1.414 . S
C1612 C1613 1.374 . S
C1613 H1593 0.950 . S
C1613 C1609 1.385 . S
C1613 C1612 1.374 . S
C1614 C1611 1.499 . S
C1614 C1615 1.373 . S
C1614 C1616 1.389 . S
C1615 H1594 0.950 . S
C1615 C1614 1.373 . S
C1615 C1631 1.377 1_655 S
C1616 C1614 1.389 . S
C1616 C1617 1.533 . S
C1616 C1630 1.377 1_655 S
C1617 C1616 1.533 . S
C1617 C1618 1.388 1_556 S
C1617 C1622 1.364 . S
C1618 H1595 0.950 . S
C1618 C1617 1.388 1_554 S
C1618 C1619 1.334 . S
C1619 H1596 0.950 . S
C1619 C1618 1.334 . S
C1619 C1620 1.287 . S
C1620 C1619 1.287 . S
C1620 C1621 1.524 . S
C1620 H1639 0.913 . S
C1621 H1597 0.950 . S
C1621 C1620 1.524 . S
C1621 C1622 1.415 1_554 S
C1622 H1598 0.950 . S
C1622 C1617 1.364 . S
C1622 C1621 1.415 1_556 S
C1623 H1599 0.951 . S
C1623 C1624 1.366 . S
C1623 C1625 1.388 . S
C1624 C1623 1.366 . S
C1624 C1628 1.385 . S
C1625 H1600 0.951 . S
C1625 C1623 1.388 . S
C1625 C1626 1.366 . S
C1626 C1625 1.366 . S
C1626 C1627 1.414 . S
C1626 C1629 1.499 . S
C1627 H1601 0.950 . S
C1627 C1626 1.414 . S
C1627 C1628 1.374 . S
C1628 H1602 0.950 . S
C1628 C1624 1.385 . S
C1628 C1627 1.374 . S
C1629 C1626 1.499 . S
C1629 C1630 1.373 . S
C1629 C1631 1.389 . S
C1630 H1603 0.950 . S
C1630 C1616 1.377 1_455 S
C1630 C1629 1.373 . S
C1631 C1615 1.377 1_455 S
C1631 C1629 1.389 . S
C1631 C1632 1.524 . S
C1632 C1631 1.524 . S
C1632 C1633 1.397 . S
C1632 C1637 1.363 . S
C1633 H1604 0.950 . S
C1633 C1632 1.397 . S
C1633 C1634 1.334 . S
C1634 H1605 0.950 . S
C1634 C1633 1.334 . S
C1634 C1635 1.287 . S
C1635 C1634 1.287 . S
C1635 C1636 1.524 . S
C1635 H1638 0.999 . S
C1636 H1606 0.950 . S
C1636 C1635 1.524 . S
C1636 C1637 1.415 . S
C1637 H1607 0.950 . S
C1637 C1632 1.363 . S
C1637 C1636 1.415 . S
H1638 C1635 0.999 . S
H1639 C1620 0.913 . S
H1640 C1658 0.951 . S
H1641 C1660 0.951 . S
H1642 C1662 0.950 . S
H1643 C1663 0.950 . S
H1644 C1665 0.950 . S
H1645 C1668 0.950 . S
H1646 C1669 0.950 1_554 S
H1647 C1671 0.950 . S
H1648 C1672 0.950 . S
H1649 C1673 0.951 . S
H1650 C1675 0.951 . S
H1651 C1677 0.950 . S
H1652 C1678 0.950 . S
H1653 C1680 0.950 . S
H1654 C1683 0.950 . S
H1655 C1684 0.950 . S
H1656 C1686 0.950 . S
H1657 C1687 0.950 . S
C1658 H1640 0.951 . S
C1658 C1659 1.366 . S
C1658 C1660 1.388 . S
C1659 C1658 1.366 . S
C1659 C1663 1.385 . S
C1660 H1641 0.951 . S
C1660 C1658 1.388 . S
C1660 C1661 1.366 . S
C1661 C1660 1.366 . S
C1661 C1662 1.414 . S
C1661 C1664 1.499 . S
C1662 H1642 0.950 . S
C1662 C1661 1.414 . S
C1662 C1663 1.374 . S
C1663 H1643 0.950 . S
C1663 C1659 1.385 . S
C1663 C1662 1.374 . S
C1664 C1661 1.499 . S
C1664 C1665 1.373 . S
C1664 C1666 1.389 . S
C1665 H1644 0.950 . S
C1665 C1664 1.373 . S
C1665 C1681 1.377 . S
C1666 C1664 1.389 . S
C1666 C1667 1.524 . S
C1666 C1680 1.377 . S
C1667 C1666 1.524 . S
C1667 C1668 1.397 . S
C1667 C1672 1.363 . S
C1668 H1645 0.950 . S
C1668 C1667 1.397 . S
C1668 C1669 1.334 . S
C1669 H1646 0.950 1_556 S
C1669 C1668 1.334 . S
C1669 C1670 1.287 . S
C1670 C1669 1.287 . S
C1670 C1671 1.524 . S
C1670 H1689 0.913 1_556 S
C1671 H1647 0.950 . S
C1671 C1670 1.524 . S
C1671 C1672 1.415 . S
C1672 H1648 0.950 . S
C1672 C1667 1.363 . S
C1672 C1671 1.415 . S
C1673 H1649 0.951 . S
C1673 C1674 1.366 . S
C1673 C1675 1.388 . S
C1674 C1673 1.366 . S
C1674 C1678 1.385 . S
C1675 H1650 0.951 . S
C1675 C1673 1.388 . S
C1675 C1676 1.366 . S
C1676 C1675 1.366 . S
C1676 C1677 1.414 . S
C1676 C1679 1.499 . S
C1677 H1651 0.950 . S
C1677 C1676 1.414 . S
C1677 C1678 1.374 . S
C1678 H1652 0.950 . S
C1678 C1674 1.385 . S
C1678 C1677 1.374 . S
C1679 C1676 1.499 . S
C1679 C1680 1.373 . S
C1679 C1681 1.389 . S
C1680 H1653 0.950 . S
C1680 C1666 1.377 . S
C1680 C1679 1.373 . S
C1681 C1665 1.377 . S
C1681 C1679 1.389 . S
C1681 C1682 1.524 . S
C1682 C1681 1.524 . S
C1682 C1683 1.397 . S
C1682 C1687 1.363 . S
C1683 H1654 0.950 . S
C1683 C1682 1.397 . S
C1683 C1684 1.334 . S
C1684 H1655 0.950 . S
C1684 C1683 1.334 . S
C1684 C1685 1.287 . S
C1685 C1684 1.287 . S
C1685 C1686 1.524 . S
C1685 H1688 0.999 . S
C1686 H1656 0.950 . S
C1686 C1685 1.524 . S
C1686 C1687 1.415 . S
C1687 H1657 0.950 . S
C1687 C1682 1.363 . S
C1687 C1686 1.415 . S
H1688 C1685 0.999 . S
H1689 C1670 0.913 1_554 S
H1690 C1708 0.951 . S
H1691 C1710 0.951 . S
H1692 C1712 0.950 . S
H1693 C1713 0.950 . S
H1694 C1715 0.950 . S
H1695 C1718 0.950 . S
H1696 C1719 0.950 . S
H1697 C1721 0.950 . S
H1698 C1722 0.950 . S
H1699 C1723 0.951 . S
H1700 C1725 0.951 . S
H1701 C1727 0.950 . S
H1702 C1728 0.950 . S
H1703 C1730 0.950 . S
H1704 C1733 0.950 . S
H1705 C1734 0.950 . S
H1706 C1736 0.950 . S
H1707 C1737 0.957 . S
C1708 H1690 0.951 . S
C1708 C1709 1.366 . S
C1708 C1710 1.388 . S
C1709 C1708 1.366 . S
C1709 C1713 1.385 . S
C1710 H1691 0.951 . S
C1710 C1708 1.388 . S
C1710 C1711 1.366 . S
C1711 C1710 1.366 . S
C1711 C1712 1.414 . S
C1711 C1714 1.499 . S
C1712 H1692 0.950 . S
C1712 C1711 1.414 . S
C1712 C1713 1.374 . S
C1713 H1693 0.950 . S
C1713 C1709 1.385 . S
C1713 C1712 1.374 . S
C1714 C1711 1.499 . S
C1714 C1715 1.373 . S
C1714 C1716 1.389 . S
C1715 H1694 0.950 . S
C1715 C1714 1.373 . S
C1715 C1731 1.377 1_455 S
C1716 C1714 1.389 . S
C1716 C1717 1.524 . S
C1716 C1730 1.377 1_455 S
C1717 C1716 1.524 . S
C1717 C1718 1.397 . S
C1717 C1722 1.363 . S
C1718 H1695 0.950 . S
C1718 C1717 1.397 . S
C1718 C1719 1.334 . S
C1719 H1696 0.950 . S
C1719 C1718 1.334 . S
C1719 C1720 1.287 . S
C1720 C1719 1.287 . S
C1720 C1721 1.524 . S
C1720 H1739 0.913 . S
C1721 H1697 0.950 . S
C1721 C1720 1.524 . S
C1721 C1722 1.415 . S
C1722 H1698 0.950 . S
C1722 C1717 1.363 . S
C1722 C1721 1.415 . S
C1723 H1699 0.951 . S
C1723 C1724 1.366 . S
C1723 C1725 1.388 . S
C1724 C1723 1.366 . S
C1724 C1728 1.385 . S
C1725 H1700 0.951 . S
C1725 C1723 1.388 . S
C1725 C1726 1.366 . S
C1726 C1725 1.366 . S
C1726 C1727 1.414 . S
C1726 C1729 1.499 . S
C1727 H1701 0.950 . S
C1727 C1726 1.414 . S
C1727 C1728 1.374 . S
C1728 H1702 0.950 . S
C1728 C1724 1.385 . S
C1728 C1727 1.374 . S
C1729 C1726 1.499 . S
C1729 C1730 1.373 . S
C1729 C1731 1.389 . S
C1730 H1703 0.950 . S
C1730 C1716 1.377 1_655 S
C1730 C1729 1.373 . S
C1731 C1715 1.377 1_655 S
C1731 C1729 1.389 . S
C1731 C1732 1.524 . S
C1732 C1731 1.524 . S
C1732 C1733 1.397 1_554 S
C1732 C1737 1.362 . S
C1733 H1704 0.950 . S
C1733 C1732 1.397 1_556 S
C1733 C1734 1.334 . S
C1734 H1705 0.950 . S
C1734 C1733 1.334 . S
C1734 C1735 1.287 . S
C1735 C1734 1.287 . S
C1735 C1736 1.524 . S
C1735 H1738 0.999 . S
C1736 H1706 0.950 . S
C1736 C1735 1.524 . S
C1736 C1737 1.409 1_556 S
C1737 H1707 0.957 . S
C1737 C1732 1.362 . S
C1737 C1736 1.409 1_554 S
H1738 C1735 0.999 . S
H1739 C1720 0.913 . S
H1740 C1758 0.951 . S
H1741 C1760 0.951 . S
H1742 C1762 0.950 . S
H1743 C1763 0.950 . S
H1744 C1765 0.950 . S
H1745 C1768 0.950 . S
H1746 C1769 0.950 . S
H1747 C1771 0.950 . S
H1748 C1772 0.950 . S
H1749 C1773 0.951 . S
H1750 C1775 0.951 . S
H1751 C1777 0.950 . S
H1752 C1778 0.950 . S
H1753 C1780 0.950 . S
H1754 C1783 0.950 . S
H1755 C1784 0.950 . S
H1756 C1786 0.950 . S
H1757 C1787 0.950 . S
C1758 H1740 0.951 . S
C1758 C1759 1.366 . S
C1758 C1760 1.388 . S
C1759 C1758 1.366 . S
C1759 C1763 1.385 . S
C1760 H1741 0.951 . S
C1760 C1758 1.388 . S
C1760 C1761 1.366 . S
C1761 C1760 1.366 . S
C1761 C1762 1.414 . S
C1761 C1764 1.499 . S
C1762 H1742 0.950 . S
C1762 C1761 1.414 . S
C1762 C1763 1.374 . S
C1763 H1743 0.950 . S
C1763 C1759 1.385 . S
C1763 C1762 1.374 . S
C1764 C1761 1.499 . S
C1764 C1765 1.373 . S
C1764 C1766 1.389 . S
C1765 H1744 0.950 . S
C1765 C1764 1.373 . S
C1765 C1781 1.377 . S
C1766 C1764 1.389 . S
C1766 C1767 1.524 . S
C1766 C1780 1.377 . S
C1767 C1766 1.524 . S
C1767 C1768 1.397 . S
C1767 C1772 1.363 . S
C1768 H1745 0.950 . S
C1768 C1767 1.397 . S
C1768 C1769 1.334 . S
C1769 H1746 0.950 . S
C1769 C1768 1.334 . S
C1769 C1770 1.287 . S
C1770 C1769 1.287 . S
C1770 C1771 1.524 . S
C1770 H1789 0.913 . S
C1771 H1747 0.950 . S
C1771 C1770 1.524 . S
C1771 C1772 1.415 . S
C1772 H1748 0.950 . S
C1772 C1767 1.363 . S
C1772 C1771 1.415 . S
C1773 H1749 0.951 . S
C1773 C1774 1.366 . S
C1773 C1775 1.388 . S
C1774 C1773 1.366 . S
C1774 C1778 1.385 . S
C1775 H1750 0.951 . S
C1775 C1773 1.388 . S
C1775 C1776 1.366 . S
C1776 C1775 1.366 . S
C1776 C1777 1.414 . S
C1776 C1779 1.499 . S
C1777 H1751 0.950 . S
C1777 C1776 1.414 . S
C1777 C1778 1.374 . S
C1778 H1752 0.950 . S
C1778 C1774 1.385 . S
C1778 C1777 1.374 . S
C1779 C1776 1.499 . S
C1779 C1780 1.373 . S
C1779 C1781 1.389 . S
C1780 H1753 0.950 . S
C1780 C1766 1.377 . S
C1780 C1779 1.373 . S
C1781 C1765 1.377 . S
C1781 C1779 1.389 . S
C1781 C1782 1.524 . S
C1782 C1781 1.524 . S
C1782 C1783 1.397 . S
C1782 C1787 1.363 . S
C1783 H1754 0.950 . S
C1783 C1782 1.397 . S
C1783 C1784 1.334 . S
C1784 H1755 0.950 . S
C1784 C1783 1.334 . S
C1784 C1785 1.287 . S
C1785 C1784 1.287 . S
C1785 C1786 1.524 . S
C1785 H1788 0.999 . S
C1786 H1756 0.950 . S
C1786 C1785 1.524 . S
C1786 C1787 1.415 . S
C1787 H1757 0.950 . S
C1787 C1782 1.363 . S
C1787 C1786 1.415 . S
H1788 C1785 0.999 . S
H1789 C1770 0.913 . S
H1790 C1808 0.951 . S
H1791 C1810 0.951 . S
H1792 C1812 0.950 . S
H1793 C1813 0.950 . S
H1794 C1815 0.950 . S
H1795 C1818 0.950 . S
H1796 C1819 0.950 . S
H1797 C1821 0.950 . S
H1798 C1822 0.950 . S
H1799 C1823 0.951 . S
H1800 C1825 0.951 . S
H1801 C1827 0.950 . S
H1802 C1828 0.950 . S
H1803 C1830 0.950 . S
H1804 C1833 0.950 . S
H1805 C1834 0.950 . S
H1806 C1836 0.950 . S
H1807 C1837 0.950 . S
C1808 H1790 0.951 . S
C1808 C1809 1.366 . S
C1808 C1810 1.388 . S
C1809 C1808 1.366 . S
C1809 C1813 1.385 . S
C1810 H1791 0.951 . S
C1810 C1808 1.388 . S
C1810 C1811 1.366 . S
C1811 C1810 1.366 . S
C1811 C1812 1.414 . S
C1811 C1814 1.499 . S
C1812 H1792 0.950 . S
C1812 C1811 1.414 . S
C1812 C1813 1.374 . S
C1813 H1793 0.950 . S
C1813 C1809 1.385 . S
C1813 C1812 1.374 . S
C1814 C1811 1.499 . S
C1814 C1815 1.373 . S
C1814 C1816 1.389 . S
C1815 H1794 0.950 . S
C1815 C1814 1.373 . S
C1815 C1831 1.377 . S
C1816 C1814 1.389 . S
C1816 C1817 1.524 . S
C1816 C1830 1.377 . S
C1817 C1816 1.524 . S
C1817 C1818 1.397 . S
C1817 C1822 1.363 . S
C1818 H1795 0.950 . S
C1818 C1817 1.397 . S
C1818 C1819 1.334 . S
C1819 H1796 0.950 . S
C1819 C1818 1.334 . S
C1819 C1820 1.287 . S
C1820 C1819 1.287 . S
C1820 C1821 1.524 . S
C1820 H1839 0.913 . S
C1821 H1797 0.950 . S
C1821 C1820 1.524 . S
C1821 C1822 1.415 . S
C1822 H1798 0.950 . S
C1822 C1817 1.363 . S
C1822 C1821 1.415 . S
C1823 H1799 0.951 . S
C1823 C1824 1.366 . S
C1823 C1825 1.388 . S
C1824 C1823 1.366 . S
C1824 C1828 1.385 . S
C1825 H1800 0.951 . S
C1825 C1823 1.388 . S
C1825 C1826 1.366 . S
C1826 C1825 1.366 . S
C1826 C1827 1.414 . S
C1826 C1829 1.499 . S
C1827 H1801 0.950 . S
C1827 C1826 1.414 . S
C1827 C1828 1.374 . S
C1828 H1802 0.950 . S
C1828 C1824 1.385 . S
C1828 C1827 1.374 . S
C1829 C1826 1.499 . S
C1829 C1830 1.373 . S
C1829 C1831 1.389 . S
C1830 H1803 0.950 . S
C1830 C1816 1.377 . S
C1830 C1829 1.373 . S
C1831 C1815 1.377 . S
C1831 C1829 1.389 . S
C1831 C1832 1.524 . S
C1832 C1831 1.524 . S
C1832 C1833 1.397 . S
C1832 C1837 1.363 . S
C1833 H1804 0.950 . S
C1833 C1832 1.397 . S
C1833 C1834 1.334 . S
C1834 H1805 0.950 . S
C1834 C1833 1.334 . S
C1834 C1835 1.287 . S
C1835 C1834 1.287 . S
C1835 C1836 1.524 . S
C1835 H1838 0.999 . S
C1836 H1806 0.950 . S
C1836 C1835 1.524 . S
C1836 C1837 1.415 . S
C1837 H1807 0.950 . S
C1837 C1832 1.363 . S
C1837 C1836 1.415 . S
H1838 C1835 0.999 . S
H1839 C1820 0.913 . S
H1840 C1858 0.951 . S
H1841 C1860 0.951 . S
H1842 C1862 0.950 . S
H1843 C1863 0.950 . S
H1844 C1865 0.950 . S
H1845 C1868 0.950 . S
H1846 C1869 0.950 . S
H1847 C1871 0.950 . S
H1848 C1872 0.950 . S
H1849 C1873 0.951 . S
H1850 C1875 0.951 . S
H1851 C1877 0.950 . S
H1852 C1878 0.950 . S
H1853 C1880 0.950 . S
H1854 C1883 0.950 . S
H1855 C1884 0.950 . S
H1856 C1886 0.950 . S
H1857 C1887 0.950 . S
C1858 H1840 0.951 . S
C1858 C1859 1.366 . S
C1858 C1860 1.388 . S
C1859 C1858 1.366 . S
C1859 C1863 1.385 . S
C1860 H1841 0.951 . S
C1860 C1858 1.388 . S
C1860 C1861 1.366 . S
C1861 C1860 1.366 . S
C1861 C1862 1.414 . S
C1861 C1864 1.499 . S
C1862 H1842 0.950 . S
C1862 C1861 1.414 . S
C1862 C1863 1.374 . S
C1863 H1843 0.950 . S
C1863 C1859 1.385 . S
C1863 C1862 1.374 . S
C1864 C1861 1.499 . S
C1864 C1865 1.373 . S
C1864 C1866 1.389 . S
C1865 H1844 0.950 . S
C1865 C1864 1.373 . S
C1865 C1881 1.377 . S
C1866 C1864 1.389 . S
C1866 C1867 1.524 . S
C1866 C1880 1.377 . S
C1867 C1866 1.524 . S
C1867 C1868 1.397 . S
C1867 C1872 1.363 . S
C1868 H1845 0.950 . S
C1868 C1867 1.397 . S
C1868 C1869 1.334 . S
C1869 H1846 0.950 . S
C1869 C1868 1.334 . S
C1869 C1870 1.287 . S
C1870 C1869 1.287 . S
C1870 C1871 1.524 . S
C1870 H1889 0.913 . S
C1871 H1847 0.950 . S
C1871 C1870 1.524 . S
C1871 C1872 1.415 . S
C1872 H1848 0.950 . S
C1872 C1867 1.363 . S
C1872 C1871 1.415 . S
C1873 H1849 0.951 . S
C1873 C1874 1.366 . S
C1873 C1875 1.388 . S
C1874 C1873 1.366 . S
C1874 C1878 1.385 . S
C1875 H1850 0.951 . S
C1875 C1873 1.388 . S
C1875 C1876 1.366 . S
C1876 C1875 1.366 . S
C1876 C1877 1.414 . S
C1876 C1879 1.499 . S
C1877 H1851 0.950 . S
C1877 C1876 1.414 . S
C1877 C1878 1.374 . S
C1878 H1852 0.950 . S
C1878 C1874 1.385 . S
C1878 C1877 1.374 . S
C1879 C1876 1.499 . S
C1879 C1880 1.373 . S
C1879 C1881 1.389 . S
C1880 H1853 0.950 . S
C1880 C1866 1.377 . S
C1880 C1879 1.373 . S
C1881 C1865 1.377 . S
C1881 C1879 1.389 . S
C1881 C1882 1.524 . S
C1882 C1881 1.524 . S
C1882 C1883 1.397 . S
C1882 C1887 1.363 . S
C1883 H1854 0.950 . S
C1883 C1882 1.397 . S
C1883 C1884 1.334 1_556 S
C1884 H1855 0.950 . S
C1884 C1883 1.334 1_554 S
C1884 C1885 1.287 . S
C1885 C1884 1.287 . S
C1885 C1886 1.524 1_554 S
C1885 H1888 0.999 . S
C1886 H1856 0.950 . S
C1886 C1885 1.524 1_556 S
C1886 C1887 1.415 . S
C1887 H1857 0.950 . S
C1887 C1882 1.363 . S
C1887 C1886 1.415 . S
H1888 C1885 0.999 . S
H1889 C1870 0.913 . S
H1890 C1908 0.951 . S
H1891 C1910 0.951 . S
H1892 C1912 0.950 . S
H1893 C1913 0.950 . S
H1894 C1915 0.950 . S
H1895 C1918 0.950 . S
H1896 C1919 0.950 . S
H1897 C1921 0.950 . S
H1898 C1922 0.950 . S
H1899 C1923 0.951 . S
H1900 C1925 0.951 . S
H1901 C1927 0.950 . S
H1902 C1928 0.950 . S
H1903 C1930 0.950 . S
H1904 C1933 0.950 . S
H1905 C1934 0.950 . S
H1906 C1936 0.950 . S
H1907 C1937 0.950 . S
C1908 H1890 0.951 . S
C1908 C1909 1.366 . S
C1908 C1910 1.388 . S
C1909 C1908 1.366 . S
C1909 C1913 1.385 . S
C1910 H1891 0.951 . S
C1910 C1908 1.388 . S
C1910 C1911 1.366 . S
C1911 C1910 1.366 . S
C1911 C1912 1.414 . S
C1911 C1914 1.499 . S
C1912 H1892 0.950 . S
C1912 C1911 1.414 . S
C1912 C1913 1.374 . S
C1913 H1893 0.950 . S
C1913 C1909 1.385 . S
C1913 C1912 1.374 . S
C1914 C1911 1.499 . S
C1914 C1915 1.373 . S
C1914 C1916 1.389 . S
C1915 H1894 0.950 . S
C1915 C1914 1.373 . S
C1915 C1931 1.377 . S
C1916 C1914 1.389 . S
C1916 C1917 1.524 . S
C1916 C1930 1.377 . S
C1917 C1916 1.524 . S
C1917 C1918 1.397 . S
C1917 C1922 1.363 . S
C1918 H1895 0.950 . S
C1918 C1917 1.397 . S
C1918 C1919 1.334 . S
C1919 H1896 0.950 . S
C1919 C1918 1.334 . S
C1919 C1920 1.287 . S
C1920 C1919 1.287 . S
C1920 C1921 1.524 . S
C1920 H1939 0.913 . S
C1921 H1897 0.950 . S
C1921 C1920 1.524 . S
C1921 C1922 1.415 . S
C1922 H1898 0.950 . S
C1922 C1917 1.363 . S
C1922 C1921 1.415 . S
C1923 H1899 0.951 . S
C1923 C1924 1.366 . S
C1923 C1925 1.388 . S
C1924 C1923 1.366 . S
C1924 C1928 1.385 . S
C1925 H1900 0.951 . S
C1925 C1923 1.388 . S
C1925 C1926 1.366 . S
C1926 C1925 1.366 . S
C1926 C1927 1.414 . S
C1926 C1929 1.499 . S
C1927 H1901 0.950 . S
C1927 C1926 1.414 . S
C1927 C1928 1.374 . S
C1928 H1902 0.950 . S
C1928 C1924 1.385 . S
C1928 C1927 1.374 . S
C1929 C1926 1.499 . S
C1929 C1930 1.373 . S
C1929 C1931 1.389 . S
C1930 H1903 0.950 . S
C1930 C1916 1.377 . S
C1930 C1929 1.373 . S
C1931 C1915 1.377 . S
C1931 C1929 1.389 . S
C1931 C1932 1.524 . S
C1932 C1931 1.524 . S
C1932 C1933 1.397 . S
C1932 C1937 1.363 . S
C1933 H1904 0.950 . S
C1933 C1932 1.397 . S
C1933 C1934 1.334 . S
C1934 H1905 0.950 . S
C1934 C1933 1.334 . S
C1934 C1935 1.287 . S
C1935 C1934 1.287 . S
C1935 C1936 1.524 . S
C1935 H1938 0.999 . S
C1936 H1906 0.950 . S
C1936 C1935 1.524 . S
C1936 C1937 1.415 . S
C1937 H1907 0.950 . S
C1937 C1932 1.363 . S
C1937 C1936 1.415 . S
H1938 C1935 0.999 . S
H1939 C1920 0.913 . S
H1940 C1958 0.951 . S
H1941 C1960 0.951 . S
H1942 C1962 0.950 . S
H1943 C1963 0.950 . S
H1944 C1965 0.950 . S
H1945 C1968 0.950 . S
H1946 C1969 0.950 . S
H1947 C1971 0.950 . S
H1948 C1972 0.950 . S
H1949 C1973 0.951 . S
H1950 C1975 0.951 . S
H1951 C1977 0.950 . S
H1952 C1978 0.950 . S
H1953 C1980 0.950 . S
H1954 C1983 0.950 . S
H1955 C1984 0.950 1_556 S
H1956 C1986 0.950 . S
H1957 C1987 0.950 . S
C1958 H1940 0.951 . S
C1958 C1959 1.366 . S
C1958 C1960 1.388 . S
C1959 C1958 1.366 . S
C1959 C1963 1.385 . S
C1960 H1941 0.951 . S
C1960 C1958 1.388 . S
C1960 C1961 1.366 . S
C1961 C1960 1.366 . S
C1961 C1962 1.414 . S
C1961 C1964 1.499 . S
C1962 H1942 0.950 . S
C1962 C1961 1.414 . S
C1962 C1963 1.374 . S
C1963 H1943 0.950 . S
C1963 C1959 1.385 . S
C1963 C1962 1.374 . S
C1964 C1961 1.499 . S
C1964 C1965 1.373 . S
C1964 C1966 1.389 . S
C1965 H1944 0.950 . S
C1965 C1964 1.373 . S
C1965 C1981 1.377 . S
C1966 C1964 1.389 . S
C1966 C1967 1.524 . S
C1966 C1980 1.377 . S
C1967 C1966 1.524 . S
C1967 C1968 1.397 . S
C1967 C1972 1.363 . S
C1968 H1945 0.950 . S
C1968 C1967 1.397 . S
C1968 C1969 1.334 . S
C1969 H1946 0.950 . S
C1969 C1968 1.334 . S
C1969 C1970 1.287 . S
C1970 C1969 1.287 . S
C1970 C1971 1.524 . S
C1970 H1989 0.913 . S
C1971 H1947 0.950 . S
C1971 C1970 1.524 . S
C1971 C1972 1.415 . S
C1972 H1948 0.950 . S
C1972 C1967 1.363 . S
C1972 C1971 1.415 . S
C1973 H1949 0.951 . S
C1973 C1974 1.366 . S
C1973 C1975 1.388 . S
C1974 C1973 1.366 . S
C1974 C1978 1.385 . S
C1975 H1950 0.951 . S
C1975 C1973 1.388 . S
C1975 C1976 1.366 . S
C1976 C1975 1.366 . S
C1976 C1977 1.414 . S
C1976 C1979 1.499 . S
C1977 H1951 0.950 . S
C1977 C1976 1.414 . S
C1977 C1978 1.374 . S
C1978 H1952 0.950 . S
C1978 C1974 1.385 . S
C1978 C1977 1.374 . S
C1979 C1976 1.499 . S
C1979 C1980 1.373 . S
C1979 C1981 1.389 . S
C1980 H1953 0.950 . S
C1980 C1966 1.377 . S
C1980 C1979 1.373 . S
C1981 C1965 1.377 . S
C1981 C1979 1.389 . S
C1981 C1982 1.524 . S
C1982 C1981 1.524 . S
C1982 C1983 1.397 . S
C1982 C1987 1.363 . S
C1983 H1954 0.950 . S
C1983 C1982 1.397 . S
C1983 C1984 1.334 . S
C1984 H1955 0.950 1_554 S
C1984 C1983 1.334 . S
C1984 C1985 1.287 . S
C1985 C1984 1.287 . S
C1985 C1986 1.524 . S
C1985 H1988 0.989 1_554 S
C1986 H1956 0.950 . S
C1986 C1985 1.524 . S
C1986 C1987 1.415 . S
C1987 H1957 0.950 . S
C1987 C1982 1.363 . S
C1987 C1986 1.415 . S
H1988 C1985 0.989 1_556 S
H1989 C1970 0.913 . S
H1990 C2008 0.951 . S
H1991 C2010 0.951 . S
H1992 C2012 0.950 . S
H1993 C2013 0.950 . S
H1994 C2015 0.950 . S
H1995 C2018 0.950 . S
H1996 C2019 0.950 . S
H1997 C2021 0.950 . S
H1998 C2022 0.950 . S
H1999 C2023 0.951 . S
H2000 C2025 0.951 . S
H2001 C2027 0.950 . S
H2002 C2028 0.950 . S
H2003 C2030 0.950 . S
H2004 C2033 0.950 . S
H2005 C2034 0.950 . S
H2006 C2036 0.950 . S
H2007 C2037 0.950 . S
C2008 H1990 0.951 . S
C2008 C2009 1.366 . S
C2008 C2010 1.388 . S
C2009 C2008 1.366 . S
C2009 C2013 1.385 . S
C2010 H1991 0.951 . S
C2010 C2008 1.388 . S
C2010 C2011 1.366 . S
C2011 C2010 1.366 . S
C2011 C2012 1.414 . S
C2011 C2014 1.499 . S
C2012 H1992 0.950 . S
C2012 C2011 1.414 . S
C2012 C2013 1.374 . S
C2013 H1993 0.950 . S
C2013 C2009 1.385 . S
C2013 C2012 1.374 . S
C2014 C2011 1.499 . S
C2014 C2015 1.373 . S
C2014 C2016 1.389 . S
C2015 H1994 0.950 . S
C2015 C2014 1.373 . S
C2015 C2031 1.377 . S
C2016 C2014 1.389 . S
C2016 C2017 1.524 . S
C2016 C2030 1.377 . S
C2017 C2016 1.524 . S
C2017 C2018 1.397 . S
C2017 C2022 1.363 . S
C2018 H1995 0.950 . S
C2018 C2017 1.397 . S
C2018 C2019 1.334 . S
C2019 H1996 0.950 . S
C2019 C2018 1.334 . S
C2019 C2020 1.287 . S
C2020 C2019 1.287 . S
C2020 C2021 1.524 . S
C2020 H2039 0.913 . S
C2021 H1997 0.950 . S
C2021 C2020 1.524 . S
C2021 C2022 1.415 . S
C2022 H1998 0.950 . S
C2022 C2017 1.363 . S
C2022 C2021 1.415 . S
C2023 H1999 0.951 . S
C2023 C2024 1.366 . S
C2023 C2025 1.388 . S
C2024 C2023 1.366 . S
C2024 C2028 1.385 . S
C2025 H2000 0.951 . S
C2025 C2023 1.388 . S
C2025 C2026 1.366 . S
C2026 C2025 1.366 . S
C2026 C2027 1.414 . S
C2026 C2029 1.499 . S
C2027 H2001 0.950 . S
C2027 C2026 1.414 . S
C2027 C2028 1.374 . S
C2028 H2002 0.950 . S
C2028 C2024 1.385 . S
C2028 C2027 1.374 . S
C2029 C2026 1.499 . S
C2029 C2030 1.373 . S
C2029 C2031 1.389 . S
C2030 H2003 0.950 . S
C2030 C2016 1.377 . S
C2030 C2029 1.373 . S
C2031 C2015 1.377 . S
C2031 C2029 1.389 . S
C2031 C2032 1.524 . S
C2032 C2031 1.524 . S
C2032 C2033 1.397 . S
C2032 C2037 1.363 . S
C2033 H2004 0.950 . S
C2033 C2032 1.397 . S
C2033 C2034 1.334 . S
C2034 H2005 0.950 . S
C2034 C2033 1.334 . S
C2034 C2035 1.287 . S
C2035 C2034 1.287 . S
C2035 C2036 1.524 . S
C2035 H2038 0.999 . S
C2036 H2006 0.950 . S
C2036 C2035 1.524 . S
C2036 C2037 1.415 . S
C2037 H2007 0.950 . S
C2037 C2032 1.363 . S
C2037 C2036 1.415 . S
H2038 C2035 0.999 . S
H2039 C2020 0.913 . S
H2040 C2058 0.951 . S
H2041 C2060 0.951 . S
H2042 C2062 0.950 . S
H2043 C2063 0.950 . S
H2044 C2065 0.950 . S
H2045 C2068 0.950 . S
H2046 C2069 0.950 . S
H2047 C2071 0.950 . S
H2048 C2072 0.950 1_455 S
H2049 C2073 0.951 . S
H2050 C2075 0.951 . S
H2051 C2077 0.950 . S
H2052 C2078 0.950 . S
H2053 C2080 0.950 . S
H2054 C2083 0.950 1_554 S
H2055 C2084 0.950 1_554 S
H2056 C2086 0.950 . S
H2057 C2087 0.950 . S
C2058 H2040 0.951 . S
C2058 C2059 1.366 . S
C2058 C2060 1.388 . S
C2059 C2058 1.366 . S
C2059 C2063 1.385 . S
C2060 H2041 0.951 . S
C2060 C2058 1.388 . S
C2060 C2061 1.366 . S
C2061 C2060 1.366 . S
C2061 C2062 1.414 . S
C2061 C2064 1.499 . S
C2062 H2042 0.950 . S
C2062 C2061 1.414 . S
C2062 C2063 1.374 . S
C2063 H2043 0.950 . S
C2063 C2059 1.385 . S
C2063 C2062 1.374 . S
C2064 C2061 1.499 . S
C2064 C2065 1.373 . S
C2064 C2066 1.389 . S
C2065 H2044 0.950 . S
C2065 C2064 1.373 . S
C2065 C2081 1.377 1_655 S
C2066 C2064 1.389 . S
C2066 C2067 1.524 . S
C2066 C2080 1.377 1_655 S
C2067 C2066 1.524 . S
C2067 C2068 1.397 . S
C2067 C2072 1.363 . S
C2068 H2045 0.950 . S
C2068 C2067 1.397 . S
C2068 C2069 1.334 . S
C2069 H2046 0.950 . S
C2069 C2068 1.334 . S
C2069 C2070 1.287 . S
C2070 C2069 1.287 . S
C2070 C2071 1.524 . S
C2070 H2089 0.913 . S
C2071 H2047 0.950 . S
C2071 C2070 1.524 . S
C2071 C2072 1.415 . S
C2072 H2048 0.950 1_655 S
C2072 C2067 1.363 . S
C2072 C2071 1.415 . S
C2073 H2049 0.951 . S
C2073 C2074 1.366 . S
C2073 C2075 1.388 . S
C2074 C2073 1.366 . S
C2074 C2078 1.385 . S
C2075 H2050 0.951 . S
C2075 C2073 1.388 . S
C2075 C2076 1.366 . S
C2076 C2075 1.366 . S
C2076 C2077 1.414 . S
C2076 C2079 1.499 . S
C2077 H2051 0.950 . S
C2077 C2076 1.414 . S
C2077 C2078 1.374 . S
C2078 H2052 0.950 . S
C2078 C2074 1.385 . S
C2078 C2077 1.374 . S
C2079 C2076 1.499 . S
C2079 C2080 1.373 . S
C2079 C2081 1.389 . S
C2080 H2053 0.950 . S
C2080 C2066 1.377 1_455 S
C2080 C2079 1.373 . S
C2081 C2065 1.377 1_455 S
C2081 C2079 1.389 . S
C2081 C2082 1.524 . S
C2082 C2081 1.524 . S
C2082 C2083 1.397 . S
C2082 C2087 1.363 . S
C2083 H2054 0.950 1_556 S
C2083 C2082 1.397 . S
C2083 C2084 1.334 . S
C2084 H2055 0.950 1_556 S
C2084 C2083 1.334 . S
C2084 C2085 1.287 . S
C2085 C2084 1.287 . S
C2085 C2086 1.524 . S
C2085 H2088 0.999 . S
C2086 H2056 0.950 . S
C2086 C2085 1.524 . S
C2086 C2087 1.415 . S
C2087 H2057 0.950 . S
C2087 C2082 1.363 . S
C2087 C2086 1.415 . S
H2088 C2085 0.999 . S
H2089 C2070 0.913 . S
H2090 C2108 0.951 . S
H2091 C2110 0.951 . S
H2092 C2112 0.950 . S
H2093 C2113 0.950 . S
H2094 C2115 0.950 . S
H2095 C2118 0.950 . S
H2096 C2119 0.950 . S
H2097 C2121 0.950 . S
H2098 C2122 0.950 . S
H2099 C2123 0.951 . S
H2100 C2125 0.951 . S
H2101 C2127 0.950 . S
H2102 C2128 0.950 . S
H2103 C2130 0.950 . S
H2104 C2133 0.950 . S
H2105 C2134 0.950 . S
H2106 C2136 0.950 . S
H2107 C2137 0.950 . S
C2108 H2090 0.951 . S
C2108 C2109 1.366 . S
C2108 C2110 1.388 . S
C2109 C2108 1.366 . S
C2109 C2113 1.385 . S
C2110 H2091 0.951 . S
C2110 C2108 1.388 . S
C2110 C2111 1.366 . S
C2111 C2110 1.366 . S
C2111 C2112 1.414 . S
C2111 C2114 1.499 . S
C2112 H2092 0.950 . S
C2112 C2111 1.414 . S
C2112 C2113 1.374 . S
C2113 H2093 0.950 . S
C2113 C2109 1.385 . S
C2113 C2112 1.374 . S
C2114 C2111 1.499 . S
C2114 C2115 1.373 . S
C2114 C2116 1.389 . S
C2115 H2094 0.950 . S
C2115 C2114 1.373 . S
C2115 C2131 1.377 . S
C2116 C2114 1.389 . S
C2116 C2117 1.524 . S
C2116 C2130 1.377 . S
C2117 C2116 1.524 . S
C2117 C2118 1.397 . S
C2117 C2122 1.363 . S
C2118 H2095 0.950 . S
C2118 C2117 1.397 . S
C2118 C2119 1.334 . S
C2119 H2096 0.950 . S
C2119 C2118 1.334 . S
C2119 C2120 1.287 . S
C2120 C2119 1.287 . S
C2120 C2121 1.524 . S
C2120 H2139 0.913 . S
C2121 H2097 0.950 . S
C2121 C2120 1.524 . S
C2121 C2122 1.415 . S
C2122 H2098 0.950 . S
C2122 C2117 1.363 . S
C2122 C2121 1.415 . S
C2123 H2099 0.951 . S
C2123 C2124 1.366 . S
C2123 C2125 1.388 . S
C2124 C2123 1.366 . S
C2124 C2128 1.385 . S
C2125 H2100 0.951 . S
C2125 C2123 1.388 . S
C2125 C2126 1.366 . S
C2126 C2125 1.366 . S
C2126 C2127 1.414 . S
C2126 C2129 1.499 . S
C2127 H2101 0.950 . S
C2127 C2126 1.414 . S
C2127 C2128 1.374 . S
C2128 H2102 0.950 . S
C2128 C2124 1.385 . S
C2128 C2127 1.374 . S
C2129 C2126 1.499 . S
C2129 C2130 1.373 . S
C2129 C2131 1.389 . S
C2130 H2103 0.950 . S
C2130 C2116 1.377 . S
C2130 C2129 1.373 . S
C2131 C2115 1.377 . S
C2131 C2129 1.389 . S
C2131 C2132 1.524 . S
C2132 C2131 1.524 . S
C2132 C2133 1.397 . S
C2132 C2137 1.363 . S
C2133 H2104 0.950 . S
C2133 C2132 1.397 . S
C2133 C2134 1.334 . S
C2134 H2105 0.950 . S
C2134 C2133 1.334 . S
C2134 C2135 1.287 . S
C2135 C2134 1.287 . S
C2135 C2136 1.524 . S
C2135 H2138 0.999 . S
C2136 H2106 0.950 . S
C2136 C2135 1.524 . S
C2136 C2137 1.415 . S
C2137 H2107 0.950 . S
C2137 C2132 1.363 . S
C2137 C2136 1.415 . S
H2138 C2135 0.999 . S
H2139 C2120 0.913 . S
H2140 C2158 0.951 . S
H2141 C2160 0.951 . S
H2142 C2162 0.950 . S
H2143 C2163 0.950 . S
H2144 C2165 0.950 . S
H2145 C2168 0.950 . S
H2146 C2169 0.950 . S
H2147 C2171 0.950 . S
H2148 C2172 0.950 . S
H2149 C2173 0.951 . S
H2150 C2175 0.951 . S
H2151 C2177 0.950 . S
H2152 C2178 0.950 . S
H2153 C2180 0.950 . S
H2154 C2183 0.950 . S
H2155 C2184 0.950 . S
H2156 C2186 0.950 . S
H2157 C2187 0.950 . S
C2158 H2140 0.951 . S
C2158 C2159 1.366 . S
C2158 C2160 1.388 . S
C2159 C2158 1.366 . S
C2159 C2163 1.385 . S
C2160 H2141 0.951 . S
C2160 C2158 1.388 . S
C2160 C2161 1.366 . S
C2161 C2160 1.366 . S
C2161 C2162 1.414 . S
C2161 C2164 1.499 . S
C2162 H2142 0.950 . S
C2162 C2161 1.414 . S
C2162 C2163 1.374 . S
C2163 H2143 0.950 . S
C2163 C2159 1.385 . S
C2163 C2162 1.374 . S
C2164 C2161 1.499 . S
C2164 C2165 1.373 . S
C2164 C2166 1.389 . S
C2165 H2144 0.950 . S
C2165 C2164 1.373 . S
C2165 C2181 1.377 . S
C2166 C2164 1.389 . S
C2166 C2167 1.524 . S
C2166 C2180 1.377 . S
C2167 C2166 1.524 . S
C2167 C2168 1.397 . S
C2167 C2172 1.363 . S
C2168 H2145 0.950 . S
C2168 C2167 1.397 . S
C2168 C2169 1.334 . S
C2169 H2146 0.950 . S
C2169 C2168 1.334 . S
C2169 C2170 1.287 . S
C2170 C2169 1.287 . S
C2170 C2171 1.524 . S
C2170 H2189 0.913 . S
C2171 H2147 0.950 . S
C2171 C2170 1.524 . S
C2171 C2172 1.415 . S
C2172 H2148 0.950 . S
C2172 C2167 1.363 . S
C2172 C2171 1.415 . S
C2173 H2149 0.951 . S
C2173 C2174 1.366 . S
C2173 C2175 1.388 . S
C2174 C2173 1.366 . S
C2174 C2178 1.385 . S
C2175 H2150 0.951 . S
C2175 C2173 1.388 . S
C2175 C2176 1.366 . S
C2176 C2175 1.366 . S
C2176 C2177 1.414 . S
C2176 C2179 1.499 . S
C2177 H2151 0.950 . S
C2177 C2176 1.414 . S
C2177 C2178 1.374 . S
C2178 H2152 0.950 . S
C2178 C2174 1.385 . S
C2178 C2177 1.374 . S
C2179 C2176 1.499 . S
C2179 C2180 1.373 . S
C2179 C2181 1.389 . S
C2180 H2153 0.950 . S
C2180 C2166 1.377 . S
C2180 C2179 1.373 . S
C2181 C2165 1.377 . S
C2181 C2179 1.389 . S
C2181 C2182 1.524 . S
C2182 C2181 1.524 . S
C2182 C2183 1.397 . S
C2182 C2187 1.363 . S
C2183 H2154 0.950 . S
C2183 C2182 1.397 . S
C2183 C2184 1.334 . S
C2184 H2155 0.950 . S
C2184 C2183 1.334 . S
C2184 C2185 1.287 . S
C2185 C2184 1.287 . S
C2185 C2186 1.524 . S
C2185 H2188 0.999 . S
C2186 H2156 0.950 . S
C2186 C2185 1.524 . S
C2186 C2187 1.415 . S
C2187 H2157 0.950 . S
C2187 C2182 1.363 . S
C2187 C2186 1.415 . S
H2188 C2185 0.999 . S
H2189 C2170 0.913 . S
H2190 C2208 0.951 . S
H2191 C2210 0.951 . S
H2192 C2212 0.950 . S
H2193 C2213 0.950 1_556 S
H2194 C2215 0.950 1_556 S
H2195 C2218 0.950 . S
H2196 C2219 0.950 . S
H2197 C2221 0.950 . S
H2198 C2222 0.950 1_655 S
H2199 C2223 0.951 . S
H2200 C2225 0.951 . S
H2201 C2227 0.950 . S
H2202 C2228 0.950 . S
H2203 C2230 0.950 . S
H2204 C2233 0.950 . S
H2205 C2234 0.950 1_554 S
H2206 C2236 0.950 . S
H2207 C2237 0.950 . S
C2208 H2190 0.951 . S
C2208 C2209 1.366 . S
C2208 C2210 1.388 . S
C2209 C2208 1.366 . S
C2209 C2213 1.385 . S
C2210 H2191 0.951 . S
C2210 C2208 1.388 . S
C2210 C2211 1.366 . S
C2211 C2210 1.366 . S
C2211 C2212 1.414 1_554 S
C2211 C2214 1.499 . S
C2212 H2192 0.950 . S
C2212 C2211 1.414 1_556 S
C2212 C2213 1.374 1_556 S
C2213 H2193 0.950 1_554 S
C2213 C2209 1.385 . S
C2213 C2212 1.374 1_554 S
C2214 C2211 1.499 . S
C2214 C2215 1.373 . S
C2214 C2216 1.389 . S
C2215 H2194 0.950 1_554 S
C2215 C2214 1.373 . S
C2215 C2231 1.377 1_455 S
C2216 C2214 1.389 . S
C2216 C2217 1.524 . S
C2216 C2230 1.377 1_455 S
C2217 C2216 1.524 . S
C2217 C2218 1.397 . S
C2217 C2222 1.363 . S
C2218 H2195 0.950 . S
C2218 C2217 1.397 . S
C2218 C2219 1.334 . S
C2219 H2196 0.950 . S
C2219 C2218 1.334 . S
C2219 C2220 1.287 . S
C2220 C2219 1.287 . S
C2220 C2221 1.524 . S
C2220 H2239 0.913 . S
C2221 H2197 0.950 . S
C2221 C2220 1.524 . S
C2221 C2222 1.415 . S
C2222 H2198 0.950 1_455 S
C2222 C2217 1.363 . S
C2222 C2221 1.415 . S
C2223 H2199 0.951 . S
C2223 C2224 1.366 1_556 S
C2223 C2225 1.388 . S
C2224 C2223 1.366 1_554 S
C2224 C2228 1.385 . S
C2225 H2200 0.951 . S
C2225 C2223 1.388 . S
C2225 C2226 1.366 1_556 S
C2226 C2225 1.366 1_554 S
C2226 C2227 1.414 . S
C2226 C2229 1.499 . S
C2227 H2201 0.950 . S
C2227 C2226 1.414 . S
C2227 C2228 1.374 . S
C2228 H2202 0.950 . S
C2228 C2224 1.385 . S
C2228 C2227 1.374 . S
C2229 C2226 1.499 . S
C2229 C2230 1.373 . S
C2229 C2231 1.389 . S
C2230 H2203 0.950 . S
C2230 C2216 1.377 1_655 S
C2230 C2229 1.373 . S
C2231 C2215 1.377 1_655 S
C2231 C2229 1.389 . S
C2231 C2232 1.524 1_554 S
C2232 C2231 1.524 1_556 S
C2232 C2233 1.397 1_556 S
C2232 C2237 1.363 . S
C2233 H2204 0.950 . S
C2233 C2232 1.397 1_554 S
C2233 C2234 1.334 1_554 S
C2234 H2205 0.950 1_556 S
C2234 C2233 1.334 1_556 S
C2234 C2235 1.287 . S
C2235 C2234 1.287 . S
C2235 C2236 1.524 . S
C2235 H2238 0.999 . S
C2236 H2206 0.950 . S
C2236 C2235 1.524 . S
C2236 C2237 1.415 . S
C2237 H2207 0.950 . S
C2237 C2232 1.363 . S
C2237 C2236 1.415 . S
H2238 C2235 0.999 . S
H2239 C2220 0.913 . S
H2240 C2258 0.951 . S
H2241 C2260 0.951 . S
H2242 C2262 0.950 . S
H2243 C2263 0.950 . S
H2244 C2265 0.950 . S
H2245 C2268 0.950 . S
H2246 C2269 0.950 . S
H2247 C2271 0.950 . S
H2248 C2272 0.950 . S
H2249 C2273 0.951 . S
H2250 C2275 0.951 . S
H2251 C2277 0.950 . S
H2252 C2278 0.950 . S
H2253 C2280 0.950 . S
H2254 C2283 0.950 . S
H2255 C2284 0.950 . S
H2256 C2286 0.950 . S
H2257 C2287 0.950 1_554 S
C2258 H2240 0.951 . S
C2258 C2259 1.366 . S
C2258 C2260 1.388 . S
C2259 C2258 1.366 . S
C2259 C2263 1.385 . S
C2260 H2241 0.951 . S
C2260 C2258 1.388 . S
C2260 C2261 1.366 . S
C2261 C2260 1.366 . S
C2261 C2262 1.414 . S
C2261 C2264 1.499 . S
C2262 H2242 0.950 . S
C2262 C2261 1.414 . S
C2262 C2263 1.374 . S
C2263 H2243 0.950 . S
C2263 C2259 1.385 . S
C2263 C2262 1.374 . S
C2264 C2261 1.499 . S
C2264 C2265 1.373 . S
C2264 C2266 1.389 . S
C2265 H2244 0.950 . S
C2265 C2264 1.373 . S
C2265 C2281 1.377 1_554 S
C2266 C2264 1.389 . S
C2266 C2267 1.524 . S
C2266 C2280 1.377 . S
C2267 C2266 1.524 . S
C2267 C2268 1.397 . S
C2267 C2272 1.363 . S
C2268 H2245 0.950 . S
C2268 C2267 1.397 . S
C2268 C2269 1.334 . S
C2269 H2246 0.950 . S
C2269 C2268 1.334 . S
C2269 C2270 1.287 . S
C2270 C2269 1.287 . S
C2270 C2271 1.524 . S
C2270 H2289 0.913 . S
C2271 H2247 0.950 . S
C2271 C2270 1.524 . S
C2271 C2272 1.415 . S
C2272 H2248 0.950 . S
C2272 C2267 1.363 . S
C2272 C2271 1.415 . S
C2273 H2249 0.951 . S
C2273 C2274 1.366 . S
C2273 C2275 1.388 . S
C2274 C2273 1.366 . S
C2274 C2278 1.385 . S
C2275 H2250 0.951 . S
C2275 C2273 1.388 . S
C2275 C2276 1.366 . S
C2276 C2275 1.366 . S
C2276 C2277 1.414 . S
C2276 C2279 1.499 . S
C2277 H2251 0.950 . S
C2277 C2276 1.414 . S
C2277 C2278 1.374 . S
C2278 H2252 0.950 . S
C2278 C2274 1.385 . S
C2278 C2277 1.374 . S
C2279 C2276 1.499 . S
C2279 C2280 1.373 1_556 S
C2279 C2281 1.389 . S
C2280 H2253 0.950 . S
C2280 C2266 1.377 . S
C2280 C2279 1.373 1_554 S
C2281 C2265 1.377 1_556 S
C2281 C2279 1.389 . S
C2281 C2282 1.524 . S
C2282 C2281 1.524 . S
C2282 C2283 1.397 . S
C2282 C2287 1.363 . S
C2283 H2254 0.950 . S
C2283 C2282 1.397 . S
C2283 C2284 1.334 . S
C2284 H2255 0.950 . S
C2284 C2283 1.334 . S
C2284 C2285 1.287 . S
C2285 C2284 1.287 . S
C2285 C2286 1.524 . S
C2285 H2288 0.999 . S
C2286 H2256 0.950 . S
C2286 C2285 1.524 . S
C2286 C2287 1.415 . S
C2287 H2257 0.950 1_556 S
C2287 C2282 1.363 . S
C2287 C2286 1.415 . S
H2288 C2285 0.999 . S
H2289 C2270 0.913 . S
H2290 C2308 0.951 . S
H2291 C2310 0.951 . S
H2292 C2312 0.950 . S
H2293 C2313 0.950 . S
H2294 C2315 0.950 . S
H2295 C2318 0.950 . S
H2296 C2319 0.950 . S
H2297 C2321 0.950 . S
H2298 C2322 0.950 . S
H2299 C2323 0.951 . S
H2300 C2325 0.951 . S
H2301 C2327 0.950 . S
H2302 C2328 0.950 . S
H2303 C2330 0.950 . S
H2304 C2333 0.950 . S
H2305 C2334 0.950 . S
H2306 C2336 0.950 . S
H2307 C2337 0.950 . S
C2308 H2290 0.951 . S
C2308 C2309 1.366 . S
C2308 C2310 1.388 . S
C2309 C2308 1.366 . S
C2309 C2313 1.385 . S
C2310 H2291 0.951 . S
C2310 C2308 1.388 . S
C2310 C2311 1.366 . S
C2311 C2310 1.366 . S
C2311 C2312 1.414 . S
C2311 C2314 1.499 . S
C2312 H2292 0.950 . S
C2312 C2311 1.414 . S
C2312 C2313 1.374 . S
C2313 H2293 0.950 . S
C2313 C2309 1.385 . S
C2313 C2312 1.374 . S
C2314 C2311 1.499 . S
C2314 C2315 1.373 . S
C2314 C2316 1.389 . S
C2315 H2294 0.950 . S
C2315 C2314 1.373 . S
C2315 C2331 1.377 . S
C2316 C2314 1.389 . S
C2316 C2317 1.524 . S
C2316 C2330 1.377 . S
C2317 C2316 1.524 . S
C2317 C2318 1.397 . S
C2317 C2322 1.363 . S
C2318 H2295 0.950 . S
C2318 C2317 1.397 . S
C2318 C2319 1.334 . S
C2319 H2296 0.950 . S
C2319 C2318 1.334 . S
C2319 C2320 1.287 . S
C2320 C2319 1.287 . S
C2320 C2321 1.524 . S
C2320 H2339 0.913 . S
C2321 H2297 0.950 . S
C2321 C2320 1.524 . S
C2321 C2322 1.415 . S
C2322 H2298 0.950 . S
C2322 C2317 1.363 . S
C2322 C2321 1.415 . S
C2323 H2299 0.951 . S
C2323 C2324 1.366 . S
C2323 C2325 1.388 . S
C2324 C2323 1.366 . S
C2324 C2328 1.385 . S
C2325 H2300 0.951 . S
C2325 C2323 1.388 . S
C2325 C2326 1.366 . S
C2326 C2325 1.366 . S
C2326 C2327 1.414 . S
C2326 C2329 1.499 . S
C2327 H2301 0.950 . S
C2327 C2326 1.414 . S
C2327 C2328 1.374 . S
C2328 H2302 0.950 . S
C2328 C2324 1.385 . S
C2328 C2327 1.374 . S
C2329 C2326 1.499 . S
C2329 C2330 1.373 . S
C2329 C2331 1.389 . S
C2330 H2303 0.950 . S
C2330 C2316 1.377 . S
C2330 C2329 1.373 . S
C2331 C2315 1.377 . S
C2331 C2329 1.389 . S
C2331 C2332 1.524 . S
C2332 C2331 1.524 . S
C2332 C2333 1.397 . S
C2332 C2337 1.363 . S
C2333 H2304 0.950 . S
C2333 C2332 1.397 . S
C2333 C2334 1.334 . S
C2334 H2305 0.950 . S
C2334 C2333 1.334 . S
C2334 C2335 1.287 . S
C2335 C2334 1.287 . S
C2335 C2336 1.524 . S
C2335 H2338 0.999 . S
C2336 H2306 0.950 . S
C2336 C2335 1.524 . S
C2336 C2337 1.415 . S
C2337 H2307 0.950 . S
C2337 C2332 1.363 . S
C2337 C2336 1.415 . S
H2338 C2335 0.999 . S
H2339 C2320 0.913 . S
H2340 C2358 0.951 . S
H2341 C2360 0.951 . S
H2342 C2362 0.950 . S
H2343 C2363 0.950 . S
H2344 C2365 0.950 . S
H2345 C2368 0.950 . S
H2346 C2369 0.950 . S
H2347 C2371 0.950 . S
H2348 C2372 0.950 . S
H2349 C2373 0.951 . S
H2350 C2375 0.951 . S
H2351 C2377 0.950 . S
H2352 C2378 0.950 . S
H2353 C2380 0.950 . S
H2354 C2383 0.950 . S
H2355 C2384 0.950 . S
H2356 C2386 0.950 . S
H2357 C2387 0.950 . S
C2358 H2340 0.951 . S
C2358 C2359 1.366 . S
C2358 C2360 1.388 . S
C2359 C2358 1.366 . S
C2359 C2363 1.385 . S
C2360 H2341 0.951 . S
C2360 C2358 1.388 . S
C2360 C2361 1.366 . S
C2361 C2360 1.366 . S
C2361 C2362 1.414 . S
C2361 C2364 1.499 . S
C2362 H2342 0.950 . S
C2362 C2361 1.414 . S
C2362 C2363 1.374 . S
C2363 H2343 0.950 . S
C2363 C2359 1.385 . S
C2363 C2362 1.374 . S
C2364 C2361 1.499 . S
C2364 C2365 1.373 . S
C2364 C2366 1.389 . S
C2365 H2344 0.950 . S
C2365 C2364 1.373 . S
C2365 C2381 1.377 . S
C2366 C2364 1.389 . S
C2366 C2367 1.524 . S
C2366 C2380 1.377 . S
C2367 C2366 1.524 . S
C2367 C2368 1.397 . S
C2367 C2372 1.363 . S
C2368 H2345 0.950 . S
C2368 C2367 1.397 . S
C2368 C2369 1.334 . S
C2369 H2346 0.950 . S
C2369 C2368 1.334 . S
C2369 C2370 1.287 . S
C2370 C2369 1.287 . S
C2370 C2371 1.524 . S
C2370 H2389 0.913 . S
C2371 H2347 0.950 . S
C2371 C2370 1.524 . S
C2371 C2372 1.415 . S
C2372 H2348 0.950 . S
C2372 C2367 1.363 . S
C2372 C2371 1.415 . S
C2373 H2349 0.951 . S
C2373 C2374 1.366 . S
C2373 C2375 1.388 . S
C2374 C2373 1.366 . S
C2374 C2378 1.385 . S
C2375 H2350 0.951 . S
C2375 C2373 1.388 . S
C2375 C2376 1.366 . S
C2376 C2375 1.366 . S
C2376 C2377 1.414 . S
C2376 C2379 1.499 . S
C2377 H2351 0.950 . S
C2377 C2376 1.414 . S
C2377 C2378 1.374 . S
C2378 H2352 0.950 . S
C2378 C2374 1.385 . S
C2378 C2377 1.374 . S
C2379 C2376 1.499 . S
C2379 C2380 1.373 . S
C2379 C2381 1.389 . S
C2380 H2353 0.950 . S
C2380 C2366 1.377 . S
C2380 C2379 1.373 . S
C2381 C2365 1.377 . S
C2381 C2379 1.389 . S
C2381 C2382 1.524 . S
C2382 C2381 1.524 . S
C2382 C2383 1.397 . S
C2382 C2387 1.363 . S
C2383 H2354 0.950 . S
C2383 C2382 1.397 . S
C2383 C2384 1.334 . S
C2384 H2355 0.950 . S
C2384 C2383 1.334 . S
C2384 C2385 1.287 . S
C2385 C2384 1.287 . S
C2385 C2386 1.524 . S
C2385 H2388 0.999 . S
C2386 H2356 0.950 . S
C2386 C2385 1.524 . S
C2386 C2387 1.415 . S
C2387 H2357 0.950 . S
C2387 C2382 1.363 . S
C2387 C2386 1.415 . S
H2388 C2385 0.999 . S
H2389 C2370 0.913 . S
H2390 C2408 0.951 . S
H2391 C2410 0.951 . S
H2392 C2412 0.950 . S
H2393 C2413 0.950 . S
H2394 C2415 0.950 . S
H2395 C2418 0.950 . S
H2396 C2419 0.950 . S
H2397 C2421 0.950 . S
H2398 C2422 0.950 . S
H2399 C2423 0.951 . S
H2400 C2425 0.951 . S
H2401 C2427 0.950 . S
H2402 C2428 0.950 . S
H2403 C2430 0.950 . S
H2404 C2433 0.950 . S
H2405 C2434 0.950 . S
H2406 C2436 0.950 . S
H2407 C2437 0.950 . S
C2408 H2390 0.951 . S
C2408 C2409 1.366 . S
C2408 C2410 1.388 . S
C2409 C2408 1.366 . S
C2409 C2413 1.385 . S
C2410 H2391 0.951 . S
C2410 C2408 1.388 . S
C2410 C2411 1.366 . S
C2411 C2410 1.366 . S
C2411 C2412 1.414 . S
C2411 C2414 1.499 . S
C2412 H2392 0.950 . S
C2412 C2411 1.414 . S
C2412 C2413 1.374 . S
C2413 H2393 0.950 . S
C2413 C2409 1.385 . S
C2413 C2412 1.374 . S
C2414 C2411 1.499 . S
C2414 C2415 1.373 . S
C2414 C2416 1.389 . S
C2415 H2394 0.950 . S
C2415 C2414 1.373 . S
C2415 C2431 1.377 . S
C2416 C2414 1.389 . S
C2416 C2417 1.524 . S
C2416 C2430 1.377 . S
C2417 C2416 1.524 . S
C2417 C2418 1.397 . S
C2417 C2422 1.363 . S
C2418 H2395 0.950 . S
C2418 C2417 1.397 . S
C2418 C2419 1.334 . S
C2419 H2396 0.950 . S
C2419 C2418 1.334 . S
C2419 C2420 1.287 . S
C2420 C2419 1.287 . S
C2420 C2421 1.524 . S
C2420 H2439 0.913 . S
C2421 H2397 0.950 . S
C2421 C2420 1.524 . S
C2421 C2422 1.415 . S
C2422 H2398 0.950 . S
C2422 C2417 1.363 . S
C2422 C2421 1.415 . S
C2423 H2399 0.951 . S
C2423 C2424 1.366 . S
C2423 C2425 1.388 . S
C2424 C2423 1.366 . S
C2424 C2428 1.385 . S
C2425 H2400 0.951 . S
C2425 C2423 1.388 . S
C2425 C2426 1.366 . S
C2426 C2425 1.366 . S
C2426 C2427 1.414 . S
C2426 C2429 1.499 . S
C2427 H2401 0.950 . S
C2427 C2426 1.414 . S
C2427 C2428 1.374 . S
C2428 H2402 0.950 . S
C2428 C2424 1.385 . S
C2428 C2427 1.374 . S
C2429 C2426 1.499 . S
C2429 C2430 1.373 . S
C2429 C2431 1.389 . S
C2430 H2403 0.950 . S
C2430 C2416 1.377 . S
C2430 C2429 1.373 . S
C2431 C2415 1.377 . S
C2431 C2429 1.389 . S
C2431 C2432 1.524 . S
C2432 C2431 1.524 . S
C2432 C2433 1.397 . S
C2432 C2437 1.363 . S
C2433 H2404 0.950 . S
C2433 C2432 1.397 . S
C2433 C2434 1.334 . S
C2434 H2405 0.950 . S
C2434 C2433 1.334 . S
C2434 C2435 1.287 . S
C2435 C2434 1.287 . S
C2435 C2436 1.524 . S
C2435 H2438 0.999 . S
C2436 H2406 0.950 . S
C2436 C2435 1.524 . S
C2436 C2437 1.415 . S
C2437 H2407 0.950 . S
C2437 C2432 1.363 . S
C2437 C2436 1.415 . S
H2438 C2435 0.999 . S
H2439 C2420 0.913 . S
H2440 C2458 0.951 . S
H2441 C2460 0.951 . S
H2442 C2462 0.950 . S
H2443 C2463 0.950 . S
H2444 C2465 0.950 1_554 S
H2445 C2468 0.950 . S
H2446 C2469 0.950 . S
H2447 C2471 0.950 . S
H2448 C2472 0.950 . S
H2449 C2473 0.951 . S
H2450 C2475 0.951 . S
H2451 C2477 0.950 . S
H2452 C2478 0.950 . S
H2453 C2480 0.950 . S
H2454 C2483 0.950 . S
H2455 C2484 0.950 . S
H2456 C2486 0.950 . S
H2457 C2487 0.950 1_556 S
C2458 H2440 0.951 . S
C2458 C2459 1.366 . S
C2458 C2460 1.388 1_554 S
C2459 C2458 1.366 . S
C2459 C2463 1.385 . S
C2460 H2441 0.951 . S
C2460 C2458 1.388 1_556 S
C2460 C2461 1.366 . S
C2461 C2460 1.366 . S
C2461 C2462 1.414 . S
C2461 C2464 1.499 . S
C2462 H2442 0.950 . S
C2462 C2461 1.414 . S
C2462 C2463 1.374 1_556 S
C2463 H2443 0.950 . S
C2463 C2459 1.385 . S
C2463 C2462 1.374 1_554 S
C2464 C2461 1.499 . S
C2464 C2465 1.373 . S
C2464 C2466 1.389 . S
C2465 H2444 0.950 1_556 S
C2465 C2464 1.373 . S
C2465 C2481 1.377 . S
C2466 C2464 1.389 . S
C2466 C2467 1.524 . S
C2466 C2480 1.377 . S
C2467 C2466 1.524 . S
C2467 C2468 1.397 . S
C2467 C2472 1.363 . S
C2468 H2445 0.950 . S
C2468 C2467 1.397 . S
C2468 C2469 1.334 . S
C2469 H2446 0.950 . S
C2469 C2468 1.334 . S
C2469 C2470 1.287 . S
C2470 C2469 1.287 . S
C2470 C2471 1.524 . S
C2470 H2489 0.913 . S
C2471 H2447 0.950 . S
C2471 C2470 1.524 . S
C2471 C2472 1.415 . S
C2472 H2448 0.950 . S
C2472 C2467 1.363 . S
C2472 C2471 1.415 . S
C2473 H2449 0.951 . S
C2473 C2474 1.366 . S
C2473 C2475 1.388 . S
C2474 C2473 1.366 . S
C2474 C2478 1.385 . S
C2475 H2450 0.951 . S
C2475 C2473 1.388 . S
C2475 C2476 1.366 . S
C2476 C2475 1.366 . S
C2476 C2477 1.414 . S
C2476 C2479 1.499 . S
C2477 H2451 0.950 . S
C2477 C2476 1.414 . S
C2477 C2478 1.374 . S
C2478 H2452 0.950 . S
C2478 C2474 1.385 . S
C2478 C2477 1.374 . S
C2479 C2476 1.499 . S
C2479 C2480 1.373 . S
C2479 C2481 1.389 . S
C2480 H2453 0.950 . S
C2480 C2466 1.377 . S
C2480 C2479 1.373 . S
C2481 C2465 1.377 . S
C2481 C2479 1.389 . S
C2481 C2482 1.524 1_556 S
C2482 C2481 1.524 1_554 S
C2482 C2483 1.397 . S
C2482 C2487 1.363 . S
C2483 H2454 0.950 . S
C2483 C2482 1.397 . S
C2483 C2484 1.334 . S
C2484 H2455 0.950 . S
C2484 C2483 1.334 . S
C2484 C2485 1.287 . S
C2485 C2484 1.287 . S
C2485 C2486 1.524 . S
C2485 H2488 0.999 . S
C2486 H2456 0.950 . S
C2486 C2485 1.524 . S
C2486 C2487 1.415 . S
C2487 H2457 0.950 1_554 S
C2487 C2482 1.363 . S
C2487 C2486 1.415 . S
H2488 C2485 0.999 . S
H2489 C2470 0.913 . S
H2490 C2508 0.951 . S
H2491 C2510 0.951 . S
H2492 C2512 0.950 . S
H2493 C2513 0.950 . S
H2494 C2515 0.950 . S
H2495 C2518 0.950 . S
H2496 C2519 0.950 . S
H2497 C2521 0.950 . S
H2498 C2522 0.950 . S
H2499 C2523 0.951 . S
H2500 C2525 0.951 . S
H2501 C2527 0.950 . S
H2502 C2528 0.950 . S
H2503 C2530 0.950 . S
H2504 C2533 0.950 . S
H2505 C2534 0.950 . S
H2506 C2536 0.950 . S
H2507 C2537 0.950 . S
C2508 H2490 0.951 . S
C2508 C2509 1.366 . S
C2508 C2510 1.388 . S
C2509 C2508 1.366 . S
C2509 C2513 1.385 . S
C2510 H2491 0.951 . S
C2510 C2508 1.388 . S
C2510 C2511 1.366 . S
C2511 C2510 1.366 . S
C2511 C2512 1.414 . S
C2511 C2514 1.499 . S
C2512 H2492 0.950 . S
C2512 C2511 1.414 . S
C2512 C2513 1.374 . S
C2513 H2493 0.950 . S
C2513 C2509 1.385 . S
C2513 C2512 1.374 . S
C2514 C2511 1.499 . S
C2514 C2515 1.373 . S
C2514 C2516 1.389 . S
C2515 H2494 0.950 . S
C2515 C2514 1.373 . S
C2515 C2531 1.377 . S
C2516 C2514 1.389 . S
C2516 C2517 1.524 . S
C2516 C2530 1.377 . S
C2517 C2516 1.524 . S
C2517 C2518 1.397 . S
C2517 C2522 1.363 . S
C2518 H2495 0.950 . S
C2518 C2517 1.397 . S
C2518 C2519 1.334 . S
C2519 H2496 0.950 . S
C2519 C2518 1.334 . S
C2519 C2520 1.287 . S
C2520 C2519 1.287 . S
C2520 C2521 1.524 . S
C2520 H2539 0.913 . S
C2521 H2497 0.950 . S
C2521 C2520 1.524 . S
C2521 C2522 1.415 . S
C2522 H2498 0.950 . S
C2522 C2517 1.363 . S
C2522 C2521 1.415 . S
C2523 H2499 0.951 . S
C2523 C2524 1.366 . S
C2523 C2525 1.388 . S
C2524 C2523 1.366 . S
C2524 C2528 1.385 . S
C2525 H2500 0.951 . S
C2525 C2523 1.388 . S
C2525 C2526 1.366 . S
C2526 C2525 1.366 . S
C2526 C2527 1.414 . S
C2526 C2529 1.499 . S
C2527 H2501 0.950 . S
C2527 C2526 1.414 . S
C2527 C2528 1.374 . S
C2528 H2502 0.950 . S
C2528 C2524 1.385 . S
C2528 C2527 1.374 . S
C2529 C2526 1.499 . S
C2529 C2530 1.373 . S
C2529 C2531 1.389 . S
C2530 H2503 0.950 . S
C2530 C2516 1.377 . S
C2530 C2529 1.373 . S
C2531 C2515 1.377 . S
C2531 C2529 1.389 . S
C2531 C2532 1.524 . S
C2532 C2531 1.524 . S
C2532 C2533 1.397 . S
C2532 C2537 1.363 . S
C2533 H2504 0.950 . S
C2533 C2532 1.397 . S
C2533 C2534 1.334 . S
C2534 H2505 0.950 . S
C2534 C2533 1.334 . S
C2534 C2535 1.287 . S
C2535 C2534 1.287 . S
C2535 C2536 1.524 . S
C2535 H2538 0.999 . S
C2536 H2506 0.950 . S
C2536 C2535 1.524 . S
C2536 C2537 1.415 . S
C2537 H2507 0.950 . S
C2537 C2532 1.363 . S
C2537 C2536 1.415 . S
H2538 C2535 0.999 . S
H2539 C2520 0.913 . S
H2540 C2558 0.951 . S
H2541 C2560 0.951 . S
H2542 C2562 0.950 . S
H2543 C2563 0.950 . S
H2544 C2565 0.950 . S
H2545 C2568 0.950 . S
H2546 C2569 0.950 . S
H2547 C2571 0.950 . S
H2548 C2572 0.950 . S
H2549 C2573 0.951 . S
H2550 C2575 0.951 . S
H2551 C2577 0.950 . S
H2552 C2578 0.950 . S
H2553 C2580 0.950 . S
H2554 C2583 0.950 . S
H2555 C2584 0.950 . S
H2556 C2586 0.950 . S
H2557 C2587 0.950 . S
C2558 H2540 0.951 . S
C2558 C2559 1.366 . S
C2558 C2560 1.388 . S
C2559 C2558 1.366 . S
C2559 C2563 1.385 . S
C2560 H2541 0.951 . S
C2560 C2558 1.388 . S
C2560 C2561 1.366 . S
C2561 C2560 1.366 . S
C2561 C2562 1.414 . S
C2561 C2564 1.499 . S
C2562 H2542 0.950 . S
C2562 C2561 1.414 . S
C2562 C2563 1.374 . S
C2563 H2543 0.950 . S
C2563 C2559 1.385 . S
C2563 C2562 1.374 . S
C2564 C2561 1.499 . S
C2564 C2565 1.373 . S
C2564 C2566 1.389 . S
C2565 H2544 0.950 . S
C2565 C2564 1.373 . S
C2565 C2581 1.377 . S
C2566 C2564 1.389 . S
C2566 C2567 1.524 . S
C2566 C2580 1.377 . S
C2567 C2566 1.524 . S
C2567 C2568 1.397 . S
C2567 C2572 1.363 . S
C2568 H2545 0.950 . S
C2568 C2567 1.397 . S
C2568 C2569 1.334 . S
C2569 H2546 0.950 . S
C2569 C2568 1.334 . S
C2569 C2570 1.287 . S
C2570 C2569 1.287 . S
C2570 C2571 1.524 . S
C2570 H2589 0.913 . S
C2571 H2547 0.950 . S
C2571 C2570 1.524 . S
C2571 C2572 1.415 . S
C2572 H2548 0.950 . S
C2572 C2567 1.363 . S
C2572 C2571 1.415 . S
C2573 H2549 0.951 . S
C2573 C2574 1.366 . S
C2573 C2575 1.388 . S
C2574 C2573 1.366 . S
C2574 C2578 1.385 . S
C2575 H2550 0.951 . S
C2575 C2573 1.388 . S
C2575 C2576 1.366 . S
C2576 C2575 1.366 . S
C2576 C2577 1.414 . S
C2576 C2579 1.499 . S
C2577 H2551 0.950 . S
C2577 C2576 1.414 . S
C2577 C2578 1.374 . S
C2578 H2552 0.950 . S
C2578 C2574 1.385 . S
C2578 C2577 1.374 . S
C2579 C2576 1.499 . S
C2579 C2580 1.373 . S
C2579 C2581 1.389 . S
C2580 H2553 0.950 . S
C2580 C2566 1.377 . S
C2580 C2579 1.373 . S
C2581 C2565 1.377 . S
C2581 C2579 1.389 . S
C2581 C2582 1.524 . S
C2582 C2581 1.524 . S
C2582 C2583 1.397 . S
C2582 C2587 1.363 . S
C2583 H2554 0.950 . S
C2583 C2582 1.397 . S
C2583 C2584 1.334 . S
C2584 H2555 0.950 . S
C2584 C2583 1.334 . S
C2584 C2585 1.287 . S
C2585 C2584 1.287 . S
C2585 C2586 1.524 . S
C2585 H2588 0.999 . S
C2586 H2556 0.950 . S
C2586 C2585 1.524 . S
C2586 C2587 1.415 . S
C2587 H2557 0.950 . S
C2587 C2582 1.363 . S
C2587 C2586 1.415 . S
H2588 C2585 0.999 . S
H2589 C2570 0.913 . S
H2590 C2608 0.951 . S
H2591 C2610 0.951 . S
H2592 C2612 0.950 . S
H2593 C2613 0.950 . S
H2594 C2615 0.950 . S
H2595 C2618 0.950 . S
H2596 C2619 0.950 . S
H2597 C2621 0.950 . S
H2598 C2622 0.950 . S
H2599 C2623 0.951 . S
H2600 C2625 0.951 . S
H2601 C2627 0.950 . S
H2602 C2628 0.950 . S
H2603 C2630 0.950 . S
H2604 C2633 0.950 . S
H2605 C2634 0.950 . S
H2606 C2636 0.950 . S
H2607 C2637 0.950 . S
C2608 H2590 0.951 . S
C2608 C2609 1.366 . S
C2608 C2610 1.388 . S
C2609 C2608 1.366 . S
C2609 C2613 1.385 . S
C2610 H2591 0.951 . S
C2610 C2608 1.388 . S
C2610 C2611 1.366 . S
C2611 C2610 1.366 . S
C2611 C2612 1.414 . S
C2611 C2614 1.499 . S
C2612 H2592 0.950 . S
C2612 C2611 1.414 . S
C2612 C2613 1.374 . S
C2613 H2593 0.950 . S
C2613 C2609 1.385 . S
C2613 C2612 1.374 . S
C2614 C2611 1.499 . S
C2614 C2615 1.373 . S
C2614 C2616 1.389 . S
C2615 H2594 0.950 . S
C2615 C2614 1.373 . S
C2615 C2631 1.377 . S
C2616 C2614 1.389 . S
C2616 C2617 1.524 . S
C2616 C2630 1.377 . S
C2617 C2616 1.524 . S
C2617 C2618 1.397 . S
C2617 C2622 1.363 . S
C2618 H2595 0.950 . S
C2618 C2617 1.397 . S
C2618 C2619 1.334 . S
C2619 H2596 0.950 . S
C2619 C2618 1.334 . S
C2619 C2620 1.287 . S
C2620 C2619 1.287 . S
C2620 C2621 1.524 . S
C2620 H2639 0.913 . S
C2621 H2597 0.950 . S
C2621 C2620 1.524 . S
C2621 C2622 1.415 . S
C2622 H2598 0.950 . S
C2622 C2617 1.363 . S
C2622 C2621 1.415 . S
C2623 H2599 0.951 . S
C2623 C2624 1.366 . S
C2623 C2625 1.388 . S
C2624 C2623 1.366 . S
C2624 C2628 1.385 . S
C2625 H2600 0.951 . S
C2625 C2623 1.388 . S
C2625 C2626 1.366 . S
C2626 C2625 1.366 . S
C2626 C2627 1.414 . S
C2626 C2629 1.499 . S
C2627 H2601 0.950 . S
C2627 C2626 1.414 . S
C2627 C2628 1.374 . S
C2628 H2602 0.950 . S
C2628 C2624 1.385 . S
C2628 C2627 1.374 . S
C2629 C2626 1.499 . S
C2629 C2630 1.373 . S
C2629 C2631 1.389 . S
C2630 H2603 0.950 . S
C2630 C2616 1.377 . S
C2630 C2629 1.373 . S
C2631 C2615 1.377 . S
C2631 C2629 1.389 . S
C2631 C2632 1.524 . S
C2632 C2631 1.524 . S
C2632 C2633 1.397 . S
C2632 C2637 1.363 . S
C2633 H2604 0.950 . S
C2633 C2632 1.397 . S
C2633 C2634 1.334 . S
C2634 H2605 0.950 . S
C2634 C2633 1.334 . S
C2634 C2635 1.287 . S
C2635 C2634 1.287 . S
C2635 C2636 1.524 . S
C2635 H2638 0.999 . S
C2636 H2606 0.950 . S
C2636 C2635 1.524 . S
C2636 C2637 1.415 . S
C2637 H2607 0.950 . S
C2637 C2632 1.363 . S
C2637 C2636 1.415 . S
H2638 C2635 0.999 . S
H2639 C2620 0.913 . S
H2640 C2658 0.951 . S
H2641 C2660 0.951 . S
H2642 C2662 0.950 . S
H2643 C2663 0.950 . S
H2644 C2665 0.950 . S
H2645 C2668 0.950 . S
H2646 C2669 0.950 . S
H2647 C2671 0.950 . S
H2648 C2672 0.950 . S
H2649 C2673 0.951 . S
H2650 C2675 0.951 . S
H2651 C2677 0.950 . S
H2652 C2678 0.950 . S
H2653 C2680 0.950 . S
H2654 C2683 0.950 . S
H2655 C2684 0.950 . S
H2656 C2686 0.950 . S
H2657 C2687 0.950 . S
C2658 H2640 0.951 . S
C2658 C2659 1.366 . S
C2658 C2660 1.388 . S
C2659 C2658 1.366 . S
C2659 C2663 1.385 . S
C2660 H2641 0.951 . S
C2660 C2658 1.388 . S
C2660 C2661 1.366 . S
C2661 C2660 1.366 . S
C2661 C2662 1.414 . S
C2661 C2664 1.499 . S
C2662 H2642 0.950 . S
C2662 C2661 1.414 . S
C2662 C2663 1.374 . S
C2663 H2643 0.950 . S
C2663 C2659 1.385 . S
C2663 C2662 1.374 . S
C2664 C2661 1.499 . S
C2664 C2665 1.373 . S
C2664 C2666 1.389 . S
C2665 H2644 0.950 . S
C2665 C2664 1.373 . S
C2665 C2681 1.377 1_565 S
C2666 C2664 1.389 . S
C2666 C2667 1.524 . S
C2666 C2680 1.377 1_565 S
C2667 C2666 1.524 . S
C2667 C2668 1.397 . S
C2667 C2672 1.363 . S
C2668 H2645 0.950 . S
C2668 C2667 1.397 . S
C2668 C2669 1.334 . S
C2669 H2646 0.950 . S
C2669 C2668 1.334 . S
C2669 C2670 1.287 . S
C2670 C2669 1.287 . S
C2670 C2671 1.524 . S
C2670 H2689 0.913 . S
C2671 H2647 0.950 . S
C2671 C2670 1.524 . S
C2671 C2672 1.415 . S
C2672 H2648 0.950 . S
C2672 C2667 1.363 . S
C2672 C2671 1.415 . S
C2673 H2649 0.951 . S
C2673 C2674 1.366 . S
C2673 C2675 1.388 . S
C2674 C2673 1.366 . S
C2674 C2678 1.385 . S
C2675 H2650 0.951 . S
C2675 C2673 1.388 . S
C2675 C2676 1.366 . S
C2676 C2675 1.366 . S
C2676 C2677 1.414 . S
C2676 C2679 1.499 . S
C2677 H2651 0.950 . S
C2677 C2676 1.414 . S
C2677 C2678 1.374 . S
C2678 H2652 0.950 . S
C2678 C2674 1.385 . S
C2678 C2677 1.374 . S
C2679 C2676 1.499 . S
C2679 C2680 1.373 . S
C2679 C2681 1.389 . S
C2680 H2653 0.950 . S
C2680 C2666 1.377 1_545 S
C2680 C2679 1.373 . S
C2681 C2665 1.377 1_545 S
C2681 C2679 1.389 . S
C2681 C2682 1.524 . S
C2682 C2681 1.524 . S
C2682 C2683 1.397 . S
C2682 C2687 1.363 . S
C2683 H2654 0.950 . S
C2683 C2682 1.397 . S
C2683 C2684 1.334 . S
C2684 H2655 0.950 . S
C2684 C2683 1.334 . S
C2684 C2685 1.287 . S
C2685 C2684 1.287 . S
C2685 C2686 1.524 . S
C2685 H2688 0.999 . S
C2686 H2656 0.950 . S
C2686 C2685 1.524 . S
C2686 C2687 1.415 . S
C2687 H2657 0.950 . S
C2687 C2682 1.363 . S
C2687 C2686 1.415 . S
H2688 C2685 0.999 . S
H2689 C2670 0.913 . S
H2690 C2708 0.951 . S
H2691 C2710 0.951 . S
H2692 C2712 0.950 . S
H2693 C2713 0.950 . S
H2694 C2715 0.950 . S
H2695 C2718 0.950 . S
H2696 C2719 0.950 . S
H2697 C2721 0.950 . S
H2698 C2722 0.950 . S
H2699 C2723 0.951 . S
H2700 C2725 0.951 . S
H2701 C2727 0.950 . S
H2702 C2728 0.950 . S
H2703 C2730 0.950 . S
H2704 C2733 0.950 . S
H2705 C2734 0.950 . S
H2706 C2736 0.950 . S
H2707 C2737 0.950 . S
C2708 H2690 0.951 . S
C2708 C2709 1.366 . S
C2708 C2710 1.388 . S
C2709 C2708 1.366 . S
C2709 C2713 1.385 . S
C2710 H2691 0.951 . S
C2710 C2708 1.388 . S
C2710 C2711 1.366 . S
C2711 C2710 1.366 . S
C2711 C2712 1.414 . S
C2711 C2714 1.499 . S
C2712 H2692 0.950 . S
C2712 C2711 1.414 . S
C2712 C2713 1.374 . S
C2713 H2693 0.950 . S
C2713 C2709 1.385 . S
C2713 C2712 1.374 . S
C2714 C2711 1.499 . S
C2714 C2715 1.373 . S
C2714 C2716 1.389 . S
C2715 H2694 0.950 . S
C2715 C2714 1.373 . S
C2715 C2731 1.377 . S
C2716 C2714 1.389 . S
C2716 C2717 1.524 . S
C2716 C2730 1.377 . S
C2717 C2716 1.524 . S
C2717 C2718 1.397 . S
C2717 C2722 1.363 . S
C2718 H2695 0.950 . S
C2718 C2717 1.397 . S
C2718 C2719 1.334 . S
C2719 H2696 0.950 . S
C2719 C2718 1.334 . S
C2719 C2720 1.287 . S
C2720 C2719 1.287 . S
C2720 C2721 1.524 . S
C2720 H2739 0.913 . S
C2721 H2697 0.950 . S
C2721 C2720 1.524 . S
C2721 C2722 1.415 . S
C2722 H2698 0.950 . S
C2722 C2717 1.363 . S
C2722 C2721 1.415 . S
C2723 H2699 0.951 . S
C2723 C2724 1.366 . S
C2723 C2725 1.388 . S
C2724 C2723 1.366 . S
C2724 C2728 1.385 . S
C2725 H2700 0.951 . S
C2725 C2723 1.388 . S
C2725 C2726 1.366 . S
C2726 C2725 1.366 . S
C2726 C2727 1.414 . S
C2726 C2729 1.499 . S
C2727 H2701 0.950 . S
C2727 C2726 1.414 . S
C2727 C2728 1.374 . S
C2728 H2702 0.950 . S
C2728 C2724 1.385 . S
C2728 C2727 1.374 . S
C2729 C2726 1.499 . S
C2729 C2730 1.373 . S
C2729 C2731 1.389 . S
C2730 H2703 0.950 . S
C2730 C2716 1.377 . S
C2730 C2729 1.373 . S
C2731 C2715 1.377 . S
C2731 C2729 1.389 . S
C2731 C2732 1.524 . S
C2732 C2731 1.524 . S
C2732 C2733 1.397 . S
C2732 C2737 1.363 . S
C2733 H2704 0.950 . S
C2733 C2732 1.397 . S
C2733 C2734 1.334 . S
C2734 H2705 0.950 . S
C2734 C2733 1.334 . S
C2734 C2735 1.287 . S
C2735 C2734 1.287 . S
C2735 C2736 1.524 . S
C2735 H2738 0.999 . S
C2736 H2706 0.950 . S
C2736 C2735 1.524 . S
C2736 C2737 1.415 . S
C2737 H2707 0.950 . S
C2737 C2732 1.363 . S
C2737 C2736 1.415 . S
H2738 C2735 0.999 . S
H2739 C2720 0.913 . S
H2740 C2758 0.951 . S
H2741 C2760 0.951 . S
H2742 C2762 0.950 . S
H2743 C2763 0.950 . S
H2744 C2765 0.936 1_565 S
H2745 C2768 0.950 1_556 S
H2746 C2769 0.950 . S
H2747 C2771 0.950 . S
H2748 C2772 0.950 1_545 S
H2749 C2773 0.951 . S
H2750 C2775 0.951 . S
H2751 C2777 0.950 . S
H2752 C2778 0.950 . S
H2753 C2780 0.950 . S
H2754 C2783 0.950 . S
H2755 C2784 0.950 . S
H2756 C2786 0.950 . S
H2757 C2787 0.950 . S
C2758 H2740 0.951 . S
C2758 C2759 1.366 . S
C2758 C2760 1.388 . S
C2759 C2758 1.366 . S
C2759 C2763 1.385 . S
C2760 H2741 0.951 . S
C2760 C2758 1.388 . S
C2760 C2761 1.366 . S
C2761 C2760 1.366 . S
C2761 C2762 1.414 . S
C2761 C2764 1.499 . S
C2762 H2742 0.950 . S
C2762 C2761 1.414 . S
C2762 C2763 1.374 . S
C2763 H2743 0.950 . S
C2763 C2759 1.385 . S
C2763 C2762 1.374 . S
C2764 C2761 1.499 . S
C2764 C2765 1.352 1_565 S
C2764 C2766 1.389 . S
C2765 H2744 0.936 1_545 S
C2765 C2764 1.352 1_545 S
C2765 C2781 1.414 . S
C2766 C2764 1.389 . S
C2766 C2767 1.524 . S
C2766 C2780 1.377 1_565 S
C2767 C2766 1.524 . S
C2767 C2768 1.397 . S
C2767 C2772 1.363 . S
C2768 H2745 0.950 1_554 S
C2768 C2767 1.397 . S
C2768 C2769 1.334 1_554 S
C2769 H2746 0.950 . S
C2769 C2768 1.334 1_556 S
C2769 C2770 1.287 . S
C2770 C2769 1.287 . S
C2770 C2771 1.524 1_556 S
C2770 H2789 0.913 . S
C2771 H2747 0.950 . S
C2771 C2770 1.524 1_554 S
C2771 C2772 1.415 . S
C2772 H2748 0.950 1_565 S
C2772 C2767 1.363 . S
C2772 C2771 1.415 . S
C2773 H2749 0.951 . S
C2773 C2774 1.366 1_556 S
C2773 C2775 1.388 1_556 S
C2774 C2773 1.366 1_554 S
C2774 C2778 1.385 . S
C2775 H2750 0.951 . S
C2775 C2773 1.388 1_554 S
C2775 C2776 1.366 . S
C2776 C2775 1.366 . S
C2776 C2777 1.414 . S
C2776 C2779 1.499 . S
C2777 H2751 0.950 . S
C2777 C2776 1.414 . S
C2777 C2778 1.374 . S
C2778 H2752 0.950 . S
C2778 C2774 1.385 . S
C2778 C2777 1.374 . S
C2779 C2776 1.499 . S
C2779 C2780 1.373 . S
C2779 C2781 1.389 . S
C2780 H2753 0.950 . S
C2780 C2766 1.377 1_545 S
C2780 C2779 1.373 . S
C2781 C2765 1.414 . S
C2781 C2779 1.389 . S
C2781 C2782 1.524 . S
C2782 C2781 1.524 . S
C2782 C2783 1.397 . S
C2782 C2787 1.363 . S
C2783 H2754 0.950 . S
C2783 C2782 1.397 . S
C2783 C2784 1.334 . S
C2784 H2755 0.950 . S
C2784 C2783 1.334 . S
C2784 C2785 1.287 . S
C2785 C2784 1.287 . S
C2785 C2786 1.524 . S
C2785 H2788 0.999 . S
C2786 H2756 0.950 . S
C2786 C2785 1.524 . S
C2786 C2787 1.415 . S
C2787 H2757 0.950 . S
C2787 C2782 1.363 . S
C2787 C2786 1.415 . S
H2788 C2785 0.999 . S
H2789 C2770 0.913 . S
H2790 C2808 0.951 . S
H2791 C2810 0.951 . S
H2792 C2812 0.950 . S
H2793 C2813 0.950 . S
H2794 C2815 0.950 . S
H2795 C2818 0.950 . S
H2796 C2819 0.950 . S
H2797 C2821 0.950 . S
H2798 C2822 0.950 . S
H2799 C2823 0.951 . S
H2800 C2825 0.951 . S
H2801 C2827 0.950 . S
H2802 C2828 0.950 . S
H2803 C2830 0.950 . S
H2804 C2833 0.950 . S
H2805 C2834 0.950 . S
H2806 C2836 0.950 . S
H2807 C2837 0.950 . S
C2808 H2790 0.951 . S
C2808 C2809 1.366 . S
C2808 C2810 1.388 . S
C2809 C2808 1.366 . S
C2809 C2813 1.385 . S
C2810 H2791 0.951 . S
C2810 C2808 1.388 . S
C2810 C2811 1.366 . S
C2811 C2810 1.366 . S
C2811 C2812 1.414 . S
C2811 C2814 1.499 . S
C2812 H2792 0.950 . S
C2812 C2811 1.414 . S
C2812 C2813 1.374 . S
C2813 H2793 0.950 . S
C2813 C2809 1.385 . S
C2813 C2812 1.374 . S
C2814 C2811 1.499 . S
C2814 C2815 1.373 . S
C2814 C2816 1.389 . S
C2815 H2794 0.950 . S
C2815 C2814 1.373 . S
C2815 C2831 1.377 . S
C2816 C2814 1.389 . S
C2816 C2817 1.524 . S
C2816 C2830 1.377 . S
C2817 C2816 1.524 . S
C2817 C2818 1.397 . S
C2817 C2822 1.363 . S
C2818 H2795 0.950 . S
C2818 C2817 1.397 . S
C2818 C2819 1.334 . S
C2819 H2796 0.950 . S
C2819 C2818 1.334 . S
C2819 C2820 1.287 . S
C2820 C2819 1.287 . S
C2820 C2821 1.524 . S
C2820 H2839 0.913 . S
C2821 H2797 0.950 . S
C2821 C2820 1.524 . S
C2821 C2822 1.415 . S
C2822 H2798 0.950 . S
C2822 C2817 1.363 . S
C2822 C2821 1.415 . S
C2823 H2799 0.951 . S
C2823 C2824 1.366 . S
C2823 C2825 1.388 . S
C2824 C2823 1.366 . S
C2824 C2828 1.385 . S
C2825 H2800 0.951 . S
C2825 C2823 1.388 . S
C2825 C2826 1.366 . S
C2826 C2825 1.366 . S
C2826 C2827 1.414 . S
C2826 C2829 1.499 . S
C2827 H2801 0.950 . S
C2827 C2826 1.414 . S
C2827 C2828 1.374 . S
C2828 H2802 0.950 . S
C2828 C2824 1.385 . S
C2828 C2827 1.374 . S
C2829 C2826 1.499 . S
C2829 C2830 1.373 . S
C2829 C2831 1.389 . S
C2830 H2803 0.950 . S
C2830 C2816 1.377 . S
C2830 C2829 1.373 . S
C2831 C2815 1.377 . S
C2831 C2829 1.389 . S
C2831 C2832 1.524 . S
C2832 C2831 1.524 . S
C2832 C2833 1.397 . S
C2832 C2837 1.363 . S
C2833 H2804 0.950 . S
C2833 C2832 1.397 . S
C2833 C2834 1.334 . S
C2834 H2805 0.950 . S
C2834 C2833 1.334 . S
C2834 C2835 1.287 . S
C2835 C2834 1.287 . S
C2835 C2836 1.524 . S
C2835 H2838 0.999 . S
C2836 H2806 0.950 . S
C2836 C2835 1.524 . S
C2836 C2837 1.415 . S
C2837 H2807 0.950 . S
C2837 C2832 1.363 . S
C2837 C2836 1.415 . S
H2838 C2835 0.999 . S
H2839 C2820 0.913 . S
H2840 C2858 0.951 . S
H2841 C2860 0.951 . S
H2842 C2862 0.950 . S
H2843 C2863 0.950 . S
H2844 C2865 0.950 . S
H2845 C2868 0.950 . S
H2846 C2869 0.950 . S
H2847 C2871 0.950 . S
H2848 C2872 0.950 . S
H2849 C2873 0.951 . S
H2850 C2875 0.951 . S
H2851 C2877 0.950 . S
H2852 C2878 0.950 . S
H2853 C2880 0.950 . S
H2854 C2883 0.950 . S
H2855 C2884 0.950 . S
H2856 C2886 0.950 . S
H2857 C2887 0.950 . S
C2858 H2840 0.951 . S
C2858 C2859 1.366 . S
C2858 C2860 1.388 . S
C2859 C2858 1.366 . S
C2859 C2863 1.385 . S
C2860 H2841 0.951 . S
C2860 C2858 1.388 . S
C2860 C2861 1.366 . S
C2861 C2860 1.366 . S
C2861 C2862 1.414 . S
C2861 C2864 1.499 . S
C2862 H2842 0.950 . S
C2862 C2861 1.414 . S
C2862 C2863 1.374 . S
C2863 H2843 0.950 . S
C2863 C2859 1.385 . S
C2863 C2862 1.374 . S
C2864 C2861 1.499 . S
C2864 C2865 1.373 . S
C2864 C2866 1.389 . S
C2865 H2844 0.950 . S
C2865 C2864 1.373 . S
C2865 C2881 1.377 1_565 S
C2866 C2864 1.389 . S
C2866 C2867 1.524 . S
C2866 C2880 1.377 1_565 S
C2867 C2866 1.524 . S
C2867 C2868 1.397 . S
C2867 C2872 1.363 . S
C2868 H2845 0.950 . S
C2868 C2867 1.397 . S
C2868 C2869 1.334 . S
C2869 H2846 0.950 . S
C2869 C2868 1.334 . S
C2869 C2870 1.287 . S
C2870 C2869 1.287 . S
C2870 C2871 1.524 . S
C2870 H2889 0.913 . S
C2871 H2847 0.950 . S
C2871 C2870 1.524 . S
C2871 C2872 1.415 . S
C2872 H2848 0.950 . S
C2872 C2867 1.363 . S
C2872 C2871 1.415 . S
C2873 H2849 0.951 . S
C2873 C2874 1.366 . S
C2873 C2875 1.388 . S
C2874 C2873 1.366 . S
C2874 C2878 1.385 . S
C2875 H2850 0.951 . S
C2875 C2873 1.388 . S
C2875 C2876 1.366 . S
C2876 C2875 1.366 . S
C2876 C2877 1.414 . S
C2876 C2879 1.499 . S
C2877 H2851 0.950 . S
C2877 C2876 1.414 . S
C2877 C2878 1.374 . S
C2878 H2852 0.950 . S
C2878 C2874 1.385 . S
C2878 C2877 1.374 . S
C2879 C2876 1.499 . S
C2879 C2880 1.373 . S
C2879 C2881 1.389 . S
C2880 H2853 0.950 . S
C2880 C2866 1.377 1_545 S
C2880 C2879 1.373 . S
C2881 C2865 1.377 1_545 S
C2881 C2879 1.389 . S
C2881 C2882 1.524 . S
C2882 C2881 1.524 . S
C2882 C2883 1.397 . S
C2882 C2887 1.363 . S
C2883 H2854 0.950 . S
C2883 C2882 1.397 . S
C2883 C2884 1.334 . S
C2884 H2855 0.950 . S
C2884 C2883 1.334 . S
C2884 C2885 1.287 . S
C2885 C2884 1.287 . S
C2885 C2886 1.524 . S
C2885 H2888 0.999 . S
C2886 H2856 0.950 . S
C2886 C2885 1.524 . S
C2886 C2887 1.415 . S
C2887 H2857 0.950 . S
C2887 C2882 1.363 . S
C2887 C2886 1.415 . S
H2888 C2885 0.999 . S
H2889 C2870 0.913 . S
H2890 C2908 0.951 . S
H2891 C2910 0.951 . S
H2892 C2912 0.950 . S
H2893 C2913 0.950 . S
H2894 C2915 0.950 . S
H2895 C2918 0.950 . S
H2896 C2919 0.950 . S
H2897 C2921 0.950 . S
H2898 C2922 0.950 . S
H2899 C2923 0.951 . S
H2900 C2925 0.951 . S
H2901 C2927 0.950 . S
H2902 C2928 0.950 . S
H2903 C2930 0.950 . S
H2904 C2933 0.950 . S
H2905 C2934 0.950 . S
H2906 C2936 0.950 . S
H2907 C2937 0.950 . S
C2908 H2890 0.951 . S
C2908 C2909 1.366 . S
C2908 C2910 1.388 . S
C2909 C2908 1.366 . S
C2909 C2913 1.385 . S
C2910 H2891 0.951 . S
C2910 C2908 1.388 . S
C2910 C2911 1.366 . S
C2911 C2910 1.366 . S
C2911 C2912 1.414 . S
C2911 C2914 1.499 . S
C2912 H2892 0.950 . S
C2912 C2911 1.414 . S
C2912 C2913 1.374 . S
C2913 H2893 0.950 . S
C2913 C2909 1.385 . S
C2913 C2912 1.374 . S
C2914 C2911 1.499 . S
C2914 C2915 1.373 . S
C2914 C2916 1.389 . S
C2915 H2894 0.950 . S
C2915 C2914 1.373 . S
C2915 C2931 1.377 . S
C2916 C2914 1.389 . S
C2916 C2917 1.524 . S
C2916 C2930 1.377 . S
C2917 C2916 1.524 . S
C2917 C2918 1.397 . S
C2917 C2922 1.363 . S
C2918 H2895 0.950 . S
C2918 C2917 1.397 . S
C2918 C2919 1.334 . S
C2919 H2896 0.950 . S
C2919 C2918 1.334 . S
C2919 C2920 1.287 . S
C2920 C2919 1.287 . S
C2920 C2921 1.524 . S
C2920 H2939 0.913 . S
C2921 H2897 0.950 . S
C2921 C2920 1.524 . S
C2921 C2922 1.415 . S
C2922 H2898 0.950 . S
C2922 C2917 1.363 . S
C2922 C2921 1.415 . S
C2923 H2899 0.951 . S
C2923 C2924 1.366 . S
C2923 C2925 1.388 . S
C2924 C2923 1.366 . S
C2924 C2928 1.385 . S
C2925 H2900 0.951 . S
C2925 C2923 1.388 . S
C2925 C2926 1.366 . S
C2926 C2925 1.366 . S
C2926 C2927 1.414 . S
C2926 C2929 1.499 . S
C2927 H2901 0.950 . S
C2927 C2926 1.414 . S
C2927 C2928 1.374 . S
C2928 H2902 0.950 . S
C2928 C2924 1.385 . S
C2928 C2927 1.374 . S
C2929 C2926 1.499 . S
C2929 C2930 1.373 . S
C2929 C2931 1.389 . S
C2930 H2903 0.950 . S
C2930 C2916 1.377 . S
C2930 C2929 1.373 . S
C2931 C2915 1.377 . S
C2931 C2929 1.389 . S
C2931 C2932 1.524 . S
C2932 C2931 1.524 . S
C2932 C2933 1.397 . S
C2932 C2937 1.363 . S
C2933 H2904 0.950 . S
C2933 C2932 1.397 . S
C2933 C2934 1.334 . S
C2934 H2905 0.950 . S
C2934 C2933 1.334 . S
C2934 C2935 1.287 . S
C2935 C2934 1.287 . S
C2935 C2936 1.524 . S
C2935 H2938 0.999 . S
C2936 H2906 0.950 . S
C2936 C2935 1.524 . S
C2936 C2937 1.415 . S
C2937 H2907 0.950 . S
C2937 C2932 1.363 . S
C2937 C2936 1.415 . S
H2938 C2935 0.999 . S
H2939 C2920 0.913 . S
H2940 C2958 0.951 . S
H2941 C2960 0.951 . S
H2942 C2962 0.950 . S
H2943 C2963 0.950 . S
H2944 C2965 0.950 . S
H2945 C2968 0.950 . S
H2946 C2969 0.950 . S
H2947 C2971 0.950 . S
H2948 C2972 0.950 . S
H2949 C2973 0.951 . S
H2950 C2975 0.951 . S
H2951 C2977 0.950 . S
H2952 C2978 0.950 . S
H2953 C2980 0.950 . S
H2954 C2983 0.950 . S
H2955 C2984 0.950 . S
H2956 C2986 0.950 . S
H2957 C2987 0.950 . S
C2958 H2940 0.951 . S
C2958 C2959 1.366 . S
C2958 C2960 1.388 . S
C2959 C2958 1.366 . S
C2959 C2963 1.385 . S
C2960 H2941 0.951 . S
C2960 C2958 1.388 . S
C2960 C2961 1.366 . S
C2961 C2960 1.366 . S
C2961 C2962 1.414 . S
C2961 C2964 1.499 . S
C2962 H2942 0.950 . S
C2962 C2961 1.414 . S
C2962 C2963 1.374 . S
C2963 H2943 0.950 . S
C2963 C2959 1.385 . S
C2963 C2962 1.374 . S
C2964 C2961 1.499 . S
C2964 C2965 1.373 . S
C2964 C2966 1.389 . S
C2965 H2944 0.950 . S
C2965 C2964 1.373 . S
C2965 C2981 1.377 1_545 S
C2966 C2964 1.389 . S
C2966 C2967 1.524 . S
C2966 C2980 1.377 1_545 S
C2967 C2966 1.524 . S
C2967 C2968 1.397 . S
C2967 C2972 1.363 . S
C2968 H2945 0.950 . S
C2968 C2967 1.397 . S
C2968 C2969 1.334 . S
C2969 H2946 0.950 . S
C2969 C2968 1.334 . S
C2969 C2970 1.287 . S
C2970 C2969 1.287 . S
C2970 C2971 1.524 . S
C2970 H2989 0.913 . S
C2971 H2947 0.950 . S
C2971 C2970 1.524 . S
C2971 C2972 1.415 . S
C2972 H2948 0.950 . S
C2972 C2967 1.363 . S
C2972 C2971 1.415 . S
C2973 H2949 0.951 . S
C2973 C2974 1.366 1_556 S
C2973 C2975 1.388 . S
C2974 C2973 1.366 1_554 S
C2974 C2978 1.385 . S
C2975 H2950 0.951 . S
C2975 C2973 1.388 . S
C2975 C2976 1.366 . S
C2976 C2975 1.366 . S
C2976 C2977 1.414 1_556 S
C2976 C2979 1.499 . S
C2977 H2951 0.950 . S
C2977 C2976 1.414 1_554 S
C2977 C2978 1.374 . S
C2978 H2952 0.950 . S
C2978 C2974 1.385 . S
C2978 C2977 1.374 . S
C2979 C2976 1.499 . S
C2979 C2980 1.373 . S
C2979 C2981 1.389 . S
C2980 H2953 0.950 . S
C2980 C2966 1.377 1_565 S
C2980 C2979 1.373 . S
C2981 C2965 1.377 1_565 S
C2981 C2979 1.389 . S
C2981 C2982 1.524 . S
C2982 C2981 1.524 . S
C2982 C2983 1.397 1_556 S
C2982 C2987 1.363 . S
C2983 H2954 0.950 . S
C2983 C2982 1.397 1_554 S
C2983 C2984 1.334 . S
C2984 H2955 0.950 . S
C2984 C2983 1.334 . S
C2984 C2985 1.287 . S
C2985 C2984 1.287 . S
C2985 C2986 1.524 1_554 S
C2985 H2988 0.999 . S
C2986 H2956 0.950 . S
C2986 C2985 1.524 1_556 S
C2986 C2987 1.415 . S
C2987 H2957 0.950 . S
C2987 C2982 1.363 . S
C2987 C2986 1.415 . S
H2988 C2985 0.999 . S
H2989 C2970 0.913 . S
H2990 C3008 0.951 . S
H2991 C3010 0.951 . S
H2992 C3012 0.950 . S
H2993 C3013 0.950 . S
H2994 C3015 0.950 . S
H2995 C3018 0.950 . S
H2996 C3019 0.950 . S
H2997 C3021 0.950 . S
H2998 C3022 0.950 . S
H2999 C3023 0.951 . S
H3000 C3025 0.951 . S
H3001 C3027 0.950 . S
H3002 C3028 0.950 . S
H3003 C3030 0.950 . S
H3004 C3033 0.950 . S
H3005 C3034 0.950 . S
H3006 C3036 0.950 . S
H3007 C3037 0.950 . S
C3008 H2990 0.951 . S
C3008 C3009 1.366 . S
C3008 C3010 1.388 . S
C3009 C3008 1.366 . S
C3009 C3013 1.385 . S
C3010 H2991 0.951 . S
C3010 C3008 1.388 . S
C3010 C3011 1.366 . S
C3011 C3010 1.366 . S
C3011 C3012 1.414 . S
C3011 C3014 1.499 . S
C3012 H2992 0.950 . S
C3012 C3011 1.414 . S
C3012 C3013 1.374 . S
C3013 H2993 0.950 . S
C3013 C3009 1.385 . S
C3013 C3012 1.374 . S
C3014 C3011 1.499 . S
C3014 C3015 1.373 . S
C3014 C3016 1.389 . S
C3015 H2994 0.950 . S
C3015 C3014 1.373 . S
C3015 C3031 1.377 . S
C3016 C3014 1.389 . S
C3016 C3017 1.524 . S
C3016 C3030 1.377 . S
C3017 C3016 1.524 . S
C3017 C3018 1.397 . S
C3017 C3022 1.363 . S
C3018 H2995 0.950 . S
C3018 C3017 1.397 . S
C3018 C3019 1.334 . S
C3019 H2996 0.950 . S
C3019 C3018 1.334 . S
C3019 C3020 1.287 . S
C3020 C3019 1.287 . S
C3020 C3021 1.524 . S
C3020 H3039 0.913 . S
C3021 H2997 0.950 . S
C3021 C3020 1.524 . S
C3021 C3022 1.415 . S
C3022 H2998 0.950 . S
C3022 C3017 1.363 . S
C3022 C3021 1.415 . S
C3023 H2999 0.951 . S
C3023 C3024 1.366 . S
C3023 C3025 1.388 . S
C3024 C3023 1.366 . S
C3024 C3028 1.385 . S
C3025 H3000 0.951 . S
C3025 C3023 1.388 . S
C3025 C3026 1.366 . S
C3026 C3025 1.366 . S
C3026 C3027 1.414 . S
C3026 C3029 1.499 . S
C3027 H3001 0.950 . S
C3027 C3026 1.414 . S
C3027 C3028 1.374 . S
C3028 H3002 0.950 . S
C3028 C3024 1.385 . S
C3028 C3027 1.374 . S
C3029 C3026 1.499 . S
C3029 C3030 1.373 . S
C3029 C3031 1.389 . S
C3030 H3003 0.950 . S
C3030 C3016 1.377 . S
C3030 C3029 1.373 . S
C3031 C3015 1.377 . S
C3031 C3029 1.389 . S
C3031 C3032 1.524 . S
C3032 C3031 1.524 . S
C3032 C3033 1.397 . S
C3032 C3037 1.363 . S
C3033 H3004 0.950 . S
C3033 C3032 1.397 . S
C3033 C3034 1.334 . S
C3034 H3005 0.950 . S
C3034 C3033 1.334 . S
C3034 C3035 1.287 . S
C3035 C3034 1.287 . S
C3035 C3036 1.524 . S
C3035 H3038 0.999 . S
C3036 H3006 0.950 . S
C3036 C3035 1.524 . S
C3036 C3037 1.415 . S
C3037 H3007 0.950 . S
C3037 C3032 1.363 . S
C3037 C3036 1.415 . S
H3038 C3035 0.999 . S
H3039 C3020 0.913 . S
C659 C6 1.823 . S
C674 C15 1.823 . S
C709 C55 1.654 . S
C724 C46 1.654 . S
C759 C95 1.804 . S
C774 C86 1.804 . S
C809 C126 1.583 . S
C824 C135 1.583 . S
C859 C166 1.656 . S
C874 C175 1.656 . S
C909 C206 1.534 . S
C924 C215 1.534 . S
C959 C255 1.591 . S
C974 C246 1.591 . S
C1009 C295 1.819 . S
C1024 C286 1.819 . S
C1059 C335 1.916 . S
C1074 C326 1.916 . S
C1109 C375 1.681 . S
C1124 C366 1.681 . S
C1159 C406 1.598 . S
C1174 C415 1.598 . S
C1209 C455 1.614 . S
C1224 C446 1.614 . S
C1259 C495 1.626 . S
C1274 C486 1.626 . S
C1309 C526 1.601 . S
C1324 C535 1.601 . S
C1359 C566 1.562 . S
C1374 C575 1.562 . S
C1409 C606 1.743 . S
C1424 C615 1.743 . S
C1459 C9 1.492 . S
C1474 C459 1.569 . S
C1509 C50 1.891 . S
C1524 C619 1.923 . S
C1559 C90 1.690 . S
C1574 C378 1.689 . S
C1609 C129 1.813 . S
C1624 C539 1.900 . S
C1659 C169 1.597 . S
C1674 C538 1.623 . S
C1709 C458 1.871 . S
C1724 C210 1.955 . S
C1759 C250 1.581 . S
C1774 C618 1.524 . S
C1809 C290 1.758 . S
C1824 C379 1.752 . S
C1859 C130 1.574 . S
C1874 C338 1.481 . S
C1909 C49 1.637 . S
C1924 C418 1.613 . S
C1959 C498 1.618 . S
C1974 C209 1.599 . S
C2009 C289 1.543 . S
C2024 C579 1.617 . S
C2059 C339 1.731 . S
C2074 C170 1.742 . S
C2109 C249 1.831 . S
C2124 C419 1.865 . S
C2159 C89 1.789 . S
C2174 C578 1.722 . S
C2209 C10 1.850 . S
C2224 C499 1.838 . S
C2259 C18 1.316 . S
C2274 C178 1.306 . S
C2309 C59 2.057 . S
C2324 C219 2.071 . S
C2359 C99 1.885 . S
C2374 C259 1.883 . S
C2409 C138 1.654 . S
C2424 C299 1.645 . S
C2459 C489 1.246 . S
C2474 C329 1.261 . S
C2509 C530 1.802 . S
C2524 C370 1.795 . S
C2559 C409 2.065 . S
C2574 C570 2.063 . S
C2609 C610 1.798 . S
C2624 C449 1.806 . S
C2659 C58 1.354 . S
C2674 C298 1.369 . S
C2709 C179 1.961 . S
C2724 C98 1.966 . S
C2759 C218 1.884 . S
C2774 C139 1.881 1_554 S
C2809 C19 1.629 . S
C2824 C258 1.636 . S
C2859 C609 1.389 . S
C2874 C369 1.381 . S
C2909 C490 2.050 . S
C2924 C410 2.065 . S
C2959 C529 1.841 . S
C2974 C450 1.841 . S
C3009 C569 1.525 . S
C3024 C330 1.518 . S
