# Generated by pormake.
# Topology wne, (6)-cn, num edge types: 1
# Building blocks:
#     Node 0, Type 0, BuildingBlock: BETDAH_clean_sbu_0, # of connection points: 6
#     Node 1, Type 0, BuildingBlock: BETDAH_clean_sbu_0, # of connection points: 6
#     Node 2, Type 0, BuildingBlock: BETDAH_clean_sbu_0, # of connection points: 6
#     Node 3, Type 0, BuildingBlock: BETDAH_clean_sbu_0, # of connection points: 6
#     Node 4, Type 0, BuildingBlock: BETDAH_clean_sbu_0, # of connection points: 6
#     Node 5, Type 0, BuildingBlock: BETDAH_clean_sbu_0, # of connection points: 6
#     Node 6, Type 0, BuildingBlock: BETDAH_clean_sbu_0, # of connection points: 6
#     Node 7, Type 0, BuildingBlock: BETDAH_clean_sbu_0, # of connection points: 6
#     Node 8, Type 0, BuildingBlock: BETDAH_clean_sbu_0, # of connection points: 6
#     Node 9, Type 0, BuildingBlock: BETDAH_clean_sbu_0, # of connection points: 6
#     Node 10, Type 0, BuildingBlock: BETDAH_clean_sbu_0, # of connection points: 6
#     Node 11, Type 0, BuildingBlock: BETDAH_clean_sbu_0, # of connection points: 6
#     Node 12, Type 0, BuildingBlock: BETDAH_clean_sbu_0, # of connection points: 6
#     Node 13, Type 0, BuildingBlock: BETDAH_clean_sbu_0, # of connection points: 6
#     Node 14, Type 0, BuildingBlock: BETDAH_clean_sbu_0, # of connection points: 6
#     Node 15, Type 0, BuildingBlock: BETDAH_clean_sbu_0, # of connection points: 6
#     Node 16, Type 0, BuildingBlock: BETDAH_clean_sbu_0, # of connection points: 6
#     Node 17, Type 0, BuildingBlock: BETDAH_clean_sbu_0, # of connection points: 6
#     Node 18, Type 0, BuildingBlock: BETDAH_clean_sbu_0, # of connection points: 6
#     Node 19, Type 0, BuildingBlock: BETDAH_clean_sbu_0, # of connection points: 6
#     Node 20, Type 0, BuildingBlock: BETDAH_clean_sbu_0, # of connection points: 6
#     Node 21, Type 0, BuildingBlock: BETDAH_clean_sbu_0, # of connection points: 6
#     Node 22, Type 0, BuildingBlock: BETDAH_clean_sbu_0, # of connection points: 6
#     Node 23, Type 0, BuildingBlock: BETDAH_clean_sbu_0, # of connection points: 6
#     Node 24, Type 0, BuildingBlock: BETDAH_clean_sbu_0, # of connection points: 6
#     Node 25, Type 0, BuildingBlock: BETDAH_clean_sbu_0, # of connection points: 6
#     Node 26, Type 0, BuildingBlock: BETDAH_clean_sbu_0, # of connection points: 6
#     Node 27, Type 0, BuildingBlock: BETDAH_clean_sbu_0, # of connection points: 6
#     Node 28, Type 0, BuildingBlock: BETDAH_clean_sbu_0, # of connection points: 6
#     Node 29, Type 0, BuildingBlock: BETDAH_clean_sbu_0, # of connection points: 6
#     Node 30, Type 0, BuildingBlock: BETDAH_clean_sbu_0, # of connection points: 6
#     Node 31, Type 0, BuildingBlock: BETDAH_clean_sbu_0, # of connection points: 6
#     Node 32, Type 0, BuildingBlock: BETDAH_clean_sbu_0, # of connection points: 6
#     Node 33, Type 0, BuildingBlock: BETDAH_clean_sbu_0, # of connection points: 6
#     Node 34, Type 0, BuildingBlock: BETDAH_clean_sbu_0, # of connection points: 6
#     Node 35, Type 0, BuildingBlock: BETDAH_clean_sbu_0, # of connection points: 6
#     Edge 36, Type (0, 0), BuildingBlock: UVAHIK_clean_linker_0, # of connection points: 2
#     Edge 37, Type (0, 0), BuildingBlock: UVAHIK_clean_linker_0, # of connection points: 2
#     Edge 38, Type (0, 0), BuildingBlock: UVAHIK_clean_linker_0, # of connection points: 2
#     Edge 39, Type (0, 0), BuildingBlock: UVAHIK_clean_linker_0, # of connection points: 2
#     Edge 40, Type (0, 0), BuildingBlock: UVAHIK_clean_linker_0, # of connection points: 2
#     Edge 41, Type (0, 0), BuildingBlock: UVAHIK_clean_linker_0, # of connection points: 2
#     Edge 42, Type (0, 0), BuildingBlock: UVAHIK_clean_linker_0, # of connection points: 2
#     Edge 43, Type (0, 0), BuildingBlock: UVAHIK_clean_linker_0, # of connection points: 2
#     Edge 44, Type (0, 0), BuildingBlock: UVAHIK_clean_linker_0, # of connection points: 2
#     Edge 45, Type (0, 0), BuildingBlock: UVAHIK_clean_linker_0, # of connection points: 2
#     Edge 46, Type (0, 0), BuildingBlock: UVAHIK_clean_linker_0, # of connection points: 2
#     Edge 47, Type (0, 0), BuildingBlock: UVAHIK_clean_linker_0, # of connection points: 2
#     Edge 48, Type (0, 0), BuildingBlock: UVAHIK_clean_linker_0, # of connection points: 2
#     Edge 49, Type (0, 0), BuildingBlock: UVAHIK_clean_linker_0, # of connection points: 2
#     Edge 50, Type (0, 0), BuildingBlock: UVAHIK_clean_linker_0, # of connection points: 2
#     Edge 51, Type (0, 0), BuildingBlock: UVAHIK_clean_linker_0, # of connection points: 2
#     Edge 52, Type (0, 0), BuildingBlock: UVAHIK_clean_linker_0, # of connection points: 2
#     Edge 53, Type (0, 0), BuildingBlock: UVAHIK_clean_linker_0, # of connection points: 2
#     Edge 54, Type (0, 0), BuildingBlock: UVAHIK_clean_linker_0, # of connection points: 2
#     Edge 55, Type (0, 0), BuildingBlock: UVAHIK_clean_linker_0, # of connection points: 2
#     Edge 56, Type (0, 0), BuildingBlock: UVAHIK_clean_linker_0, # of connection points: 2
#     Edge 57, Type (0, 0), BuildingBlock: UVAHIK_clean_linker_0, # of connection points: 2
#     Edge 58, Type (0, 0), BuildingBlock: UVAHIK_clean_linker_0, # of connection points: 2
#     Edge 59, Type (0, 0), BuildingBlock: UVAHIK_clean_linker_0, # of connection points: 2
#     Edge 60, Type (0, 0), BuildingBlock: UVAHIK_clean_linker_0, # of connection points: 2
#     Edge 61, Type (0, 0), BuildingBlock: UVAHIK_clean_linker_0, # of connection points: 2
#     Edge 62, Type (0, 0), BuildingBlock: UVAHIK_clean_linker_0, # of connection points: 2
#     Edge 63, Type (0, 0), BuildingBlock: UVAHIK_clean_linker_0, # of connection points: 2
#     Edge 64, Type (0, 0), BuildingBlock: UVAHIK_clean_linker_0, # of connection points: 2
#     Edge 65, Type (0, 0), BuildingBlock: UVAHIK_clean_linker_0, # of connection points: 2
#     Edge 66, Type (0, 0), BuildingBlock: UVAHIK_clean_linker_0, # of connection points: 2
#     Edge 67, Type (0, 0), BuildingBlock: UVAHIK_clean_linker_0, # of connection points: 2
#     Edge 68, Type (0, 0), BuildingBlock: UVAHIK_clean_linker_0, # of connection points: 2
#     Edge 69, Type (0, 0), BuildingBlock: UVAHIK_clean_linker_0, # of connection points: 2
#     Edge 70, Type (0, 0), BuildingBlock: UVAHIK_clean_linker_0, # of connection points: 2
#     Edge 71, Type (0, 0), BuildingBlock: UVAHIK_clean_linker_0, # of connection points: 2
#     Edge 72, Type (0, 0), BuildingBlock: UVAHIK_clean_linker_0, # of connection points: 2
#     Edge 73, Type (0, 0), BuildingBlock: UVAHIK_clean_linker_0, # of connection points: 2
#     Edge 74, Type (0, 0), BuildingBlock: UVAHIK_clean_linker_0, # of connection points: 2
#     Edge 75, Type (0, 0), BuildingBlock: UVAHIK_clean_linker_0, # of connection points: 2
#     Edge 76, Type (0, 0), BuildingBlock: UVAHIK_clean_linker_0, # of connection points: 2
#     Edge 77, Type (0, 0), BuildingBlock: UVAHIK_clean_linker_0, # of connection points: 2
#     Edge 78, Type (0, 0), BuildingBlock: UVAHIK_clean_linker_0, # of connection points: 2
#     Edge 79, Type (0, 0), BuildingBlock: UVAHIK_clean_linker_0, # of connection points: 2
#     Edge 80, Type (0, 0), BuildingBlock: UVAHIK_clean_linker_0, # of connection points: 2
#     Edge 81, Type (0, 0), BuildingBlock: UVAHIK_clean_linker_0, # of connection points: 2
#     Edge 82, Type (0, 0), BuildingBlock: UVAHIK_clean_linker_0, # of connection points: 2
#     Edge 83, Type (0, 0), BuildingBlock: UVAHIK_clean_linker_0, # of connection points: 2
#     Edge 84, Type (0, 0), BuildingBlock: UVAHIK_clean_linker_0, # of connection points: 2
#     Edge 85, Type (0, 0), BuildingBlock: UVAHIK_clean_linker_0, # of connection points: 2
#     Edge 86, Type (0, 0), BuildingBlock: UVAHIK_clean_linker_0, # of connection points: 2
#     Edge 87, Type (0, 0), BuildingBlock: UVAHIK_clean_linker_0, # of connection points: 2
#     Edge 88, Type (0, 0), BuildingBlock: UVAHIK_clean_linker_0, # of connection points: 2
#     Edge 89, Type (0, 0), BuildingBlock: UVAHIK_clean_linker_0, # of connection points: 2
#     Edge 90, Type (0, 0), BuildingBlock: UVAHIK_clean_linker_0, # of connection points: 2
#     Edge 91, Type (0, 0), BuildingBlock: UVAHIK_clean_linker_0, # of connection points: 2
#     Edge 92, Type (0, 0), BuildingBlock: UVAHIK_clean_linker_0, # of connection points: 2
#     Edge 93, Type (0, 0), BuildingBlock: UVAHIK_clean_linker_0, # of connection points: 2
#     Edge 94, Type (0, 0), BuildingBlock: UVAHIK_clean_linker_0, # of connection points: 2
#     Edge 95, Type (0, 0), BuildingBlock: UVAHIK_clean_linker_0, # of connection points: 2
#     Edge 96, Type (0, 0), BuildingBlock: UVAHIK_clean_linker_0, # of connection points: 2
#     Edge 97, Type (0, 0), BuildingBlock: UVAHIK_clean_linker_0, # of connection points: 2
#     Edge 98, Type (0, 0), BuildingBlock: UVAHIK_clean_linker_0, # of connection points: 2
#     Edge 99, Type (0, 0), BuildingBlock: UVAHIK_clean_linker_0, # of connection points: 2
#     Edge 100, Type (0, 0), BuildingBlock: UVAHIK_clean_linker_0, # of connection points: 2
#     Edge 101, Type (0, 0), BuildingBlock: UVAHIK_clean_linker_0, # of connection points: 2
#     Edge 102, Type (0, 0), BuildingBlock: UVAHIK_clean_linker_0, # of connection points: 2
#     Edge 103, Type (0, 0), BuildingBlock: UVAHIK_clean_linker_0, # of connection points: 2
#     Edge 104, Type (0, 0), BuildingBlock: UVAHIK_clean_linker_0, # of connection points: 2
#     Edge 105, Type (0, 0), BuildingBlock: UVAHIK_clean_linker_0, # of connection points: 2
#     Edge 106, Type (0, 0), BuildingBlock: UVAHIK_clean_linker_0, # of connection points: 2
#     Edge 107, Type (0, 0), BuildingBlock: UVAHIK_clean_linker_0, # of connection points: 2
#     Edge 108, Type (0, 0), BuildingBlock: UVAHIK_clean_linker_0, # of connection points: 2
#     Edge 109, Type (0, 0), BuildingBlock: UVAHIK_clean_linker_0, # of connection points: 2
#     Edge 110, Type (0, 0), BuildingBlock: UVAHIK_clean_linker_0, # of connection points: 2
#     Edge 111, Type (0, 0), BuildingBlock: UVAHIK_clean_linker_0, # of connection points: 2
#     Edge 112, Type (0, 0), BuildingBlock: UVAHIK_clean_linker_0, # of connection points: 2
#     Edge 113, Type (0, 0), BuildingBlock: UVAHIK_clean_linker_0, # of connection points: 2
#     Edge 114, Type (0, 0), BuildingBlock: UVAHIK_clean_linker_0, # of connection points: 2
#     Edge 115, Type (0, 0), BuildingBlock: UVAHIK_clean_linker_0, # of connection points: 2
#     Edge 116, Type (0, 0), BuildingBlock: UVAHIK_clean_linker_0, # of connection points: 2
#     Edge 117, Type (0, 0), BuildingBlock: UVAHIK_clean_linker_0, # of connection points: 2
#     Edge 118, Type (0, 0), BuildingBlock: UVAHIK_clean_linker_0, # of connection points: 2
#     Edge 119, Type (0, 0), BuildingBlock: UVAHIK_clean_linker_0, # of connection points: 2
#     Edge 120, Type (0, 0), BuildingBlock: UVAHIK_clean_linker_0, # of connection points: 2
#     Edge 121, Type (0, 0), BuildingBlock: UVAHIK_clean_linker_0, # of connection points: 2
#     Edge 122, Type (0, 0), BuildingBlock: UVAHIK_clean_linker_0, # of connection points: 2
#     Edge 123, Type (0, 0), BuildingBlock: UVAHIK_clean_linker_0, # of connection points: 2
#     Edge 124, Type (0, 0), BuildingBlock: UVAHIK_clean_linker_0, # of connection points: 2
#     Edge 125, Type (0, 0), BuildingBlock: UVAHIK_clean_linker_0, # of connection points: 2
#     Edge 126, Type (0, 0), BuildingBlock: UVAHIK_clean_linker_0, # of connection points: 2
#     Edge 127, Type (0, 0), BuildingBlock: UVAHIK_clean_linker_0, # of connection points: 2
#     Edge 128, Type (0, 0), BuildingBlock: UVAHIK_clean_linker_0, # of connection points: 2
#     Edge 129, Type (0, 0), BuildingBlock: UVAHIK_clean_linker_0, # of connection points: 2
#     Edge 130, Type (0, 0), BuildingBlock: UVAHIK_clean_linker_0, # of connection points: 2
#     Edge 131, Type (0, 0), BuildingBlock: UVAHIK_clean_linker_0, # of connection points: 2
#     Edge 132, Type (0, 0), BuildingBlock: UVAHIK_clean_linker_0, # of connection points: 2
#     Edge 133, Type (0, 0), BuildingBlock: UVAHIK_clean_linker_0, # of connection points: 2
#     Edge 134, Type (0, 0), BuildingBlock: UVAHIK_clean_linker_0, # of connection points: 2
#     Edge 135, Type (0, 0), BuildingBlock: UVAHIK_clean_linker_0, # of connection points: 2
#     Edge 136, Type (0, 0), BuildingBlock: UVAHIK_clean_linker_0, # of connection points: 2
#     Edge 137, Type (0, 0), BuildingBlock: UVAHIK_clean_linker_0, # of connection points: 2
#     Edge 138, Type (0, 0), BuildingBlock: UVAHIK_clean_linker_0, # of connection points: 2
#     Edge 139, Type (0, 0), BuildingBlock: UVAHIK_clean_linker_0, # of connection points: 2
#     Edge 140, Type (0, 0), BuildingBlock: UVAHIK_clean_linker_0, # of connection points: 2
#     Edge 141, Type (0, 0), BuildingBlock: UVAHIK_clean_linker_0, # of connection points: 2
#     Edge 142, Type (0, 0), BuildingBlock: UVAHIK_clean_linker_0, # of connection points: 2
#     Edge 143, Type (0, 0), BuildingBlock: UVAHIK_clean_linker_0, # of connection points: 2
# Relax obj value: 0.321
# Max RMSD: 0.237
# Mean RMSD: 0.237
data_MOF--net-wne--node1-BETDAH_clean_sbu_0--edge1-UVAHIK_clean_linker_0
_symmetry_space_group_name_H-M    P1
_symmetry_Int_Tables_number       1
_symmetry_cell_setting            triclinic
loop_
_symmetry_equiv_pos_as_xyz
'x, y, z'
_cell_length_a     106.28416
_cell_length_b     106.44689
_cell_length_c     42.31861
_cell_angle_alpha  89.927406
_cell_angle_beta   90.03195
_cell_angle_gamma 119.93452
loop_
_atom_site_label
_atom_site_type_symbol
_atom_site_fract_x
_atom_site_fract_y
_atom_site_fract_z
_atom_type_partial_charge
Ho0 Ho 0.27474 0.19073 0.08908 0.0
Ho1 Ho 0.29422 0.22119 0.10184 0.0
C2 C 0.30507 0.19934 0.1237 0.0
C3 C 0.26085 0.16341 0.07303 0.0
C4 C 0.26093 0.14961 0.06627 0.0
C5 C 0.26425 0.14655 0.03602 0.0
C6 C 0.26186 0.13264 0.0285 0.0
C7 C 0.25597 0.12128 0.05091 0.0
C8 C 0.25309 0.12453 0.08142 0.0
C9 C 0.25549 0.13841 0.08892 0.0
C10 C 0.26582 0.20129 0.13873 0.0
C11 C 0.26458 0.21302 0.0675 0.0
C12 C 0.30979 0.24691 0.12419 0.0
C13 C 0.30781 0.25952 0.12205 0.0
C14 C 0.29417 0.25817 0.12797 0.0
C15 C 0.29211 0.26997 0.12352 0.0
C16 C 0.30358 0.28317 0.11264 0.0
C17 C 0.3172 0.28451 0.10672 0.0
C18 C 0.31931 0.27275 0.11148 0.0
C19 C 0.29847 0.21418 0.04237 0.0
O20 O 0.29257 0.1887 0.1132 0.0
O21 O 0.3083 0.21296 0.12151 0.0
O22 O 0.26262 0.16801 0.10223 0.0
O23 O 0.26652 0.1741 0.05257 0.0
O24 O 0.25731 0.1921 0.11787 0.0
O25 O 0.2786 0.20396 0.1329 0.0
O26 O 0.27418 0.22188 0.0882 0.0
O27 O 0.26458 0.20104 0.05892 0.0
O28 O 0.31276 0.2428 0.09756 0.0
O29 O 0.30012 0.23606 0.14083 0.0
O30 O 0.29639 0.22485 0.04943 0.0
O31 O 0.29632 0.20655 0.0672 0.0
H32 H 0.26821 0.15477 0.01772 0.0
H33 H 0.26412 0.13065 1.00466 0.0
H34 H 0.2488 0.11627 0.09961 0.0
H35 H 0.25259 0.14023 0.11232 0.0
H36 H 0.28502 0.24796 0.13556 0.0
H37 H 0.2815 0.26871 0.12797 0.0
H38 H 0.32623 0.29468 0.09859 0.0
H39 H 0.32983 0.27389 0.10644 0.0
Ho40 Ho 0.85255 0.09125 0.08958 0.0
Ho41 Ho 0.82229 0.08037 0.10459 0.0
C42 C 0.84427 0.11311 0.12497 0.0
C43 C 0.87987 0.10454 0.07327 0.0
C44 C 0.89365 0.1184 0.06654 0.0
C45 C 0.89666 0.12485 0.03636 0.0
C46 C 0.91057 0.13638 0.02883 0.0
C47 C 0.92195 0.14178 0.05116 0.0
C48 C 0.91875 0.13559 0.08163 0.0
C49 C 0.90487 0.12408 0.08913 0.0
C50 C 0.84243 0.07204 0.13979 0.0
C51 C 0.83009 0.05901 0.06787 0.0
C52 C 0.79698 0.06973 0.12956 0.0
C53 C 0.7839 0.05562 0.12498 0.0
C54 C 0.77872 0.04582 0.15028 0.0
C55 C 0.76753 0.03168 0.14564 0.0
C56 C 0.76118 0.02717 0.11567 0.0
C57 C 0.76625 0.03706 0.0904 0.0
C58 C 0.77759 0.05116 0.09496 0.0
C59 C 0.8283 0.09119 0.04456 0.0
O60 O 0.85472 0.11143 0.11241 0.0
O61 O 0.83072 0.10245 0.12516 0.0
O62 O 0.87531 0.10167 0.10251 0.0
O63 O 0.86914 0.09961 0.05291 0.0
O64 O 0.85094 0.07218 0.11782 0.0
O65 O 0.84003 0.08233 0.13433 0.0
O66 O 0.82138 0.05974 0.08908 0.0
O67 O 0.84208 0.07096 0.05918 0.0
O68 O 0.80121 0.0788 0.1058 0.0
O69 O 0.80768 0.06902 0.14291 0.0
O70 O 0.81752 0.07865 0.05261 0.0
O71 O 0.83639 0.0968 0.06871 0.0
H72 H 0.88841 0.12065 0.01812 0.0
H73 H 0.91252 0.14067 1.00501 0.0
H74 H 0.92703 0.13952 0.09978 0.0
H75 H 0.90308 0.1193 0.11247 0.0
H76 H 0.78363 0.04899 0.17349 0.0
H77 H 0.76395 0.02423 0.16545 0.0
H78 H 0.76137 0.03397 0.06718 0.0
H79 H 0.78153 0.05844 0.07487 0.0
Ho80 Ho 0.95203 0.76846 0.08977 0.0
Ho81 Ho 0.96275 0.7489 0.10256 0.0
C82 C 0.93002 0.73822 0.12399 0.0
C83 C 0.9392 0.78296 0.07394 0.0
C84 C 0.92597 0.78403 0.06771 0.0
C85 C 0.91372 0.77337 0.05153 0.0
C86 C 0.90198 0.77558 0.04448 0.0
C87 C 0.90226 0.78858 0.05313 0.0
C88 C 0.91463 0.7991 0.06944 0.0
C89 C 0.92617 0.7968 0.07675 0.0
C90 C 0.97161 0.77735 0.13924 0.0
C91 C 0.98438 0.77837 0.06796 0.0
C92 C 0.97267 0.73323 0.1258 0.0
C93 C 0.98745 0.7356 0.12584 0.0
C94 C 0.99922 0.74896 0.13559 0.0
C95 C 1.01337 0.75156 0.13273 0.0
C96 C 1.01591 0.74096 0.11964 0.0
C97 C 1.00416 0.72761 0.11009 0.0
C98 C 0.99001 0.72493 0.11327 0.0
C99 C 0.95151 0.74462 0.04307 0.0
O100 O 0.93209 0.75088 0.11408 0.0
O101 O 0.94027 0.73478 0.12129 0.0
O102 O 0.94212 0.78125 0.10311 0.0
O103 O 0.94331 0.77649 0.05345 0.0
O104 O 0.97103 0.78581 0.11808 0.0
O105 O 0.96141 0.76462 0.13369 0.0
O106 O 0.98362 0.76878 0.08879 0.0
O107 O 0.9724 0.77843 0.05943 0.0
O108 O 0.96652 0.73079 0.0981 0.0
O109 O 0.97059 0.74229 0.1426 0.0
O110 O 0.96424 0.74661 0.05023 0.0
O111 O 0.94603 0.74685 0.0678 0.0
H112 H 0.91326 0.76341 0.04416 0.0
H113 H 0.89268 0.76705 0.03234 0.0
H114 H 0.91569 0.8094 0.07597 0.0
H115 H 0.93553 0.80527 0.08896 0.0
H116 H 0.99755 0.7575 0.14485 0.0
H117 H 1.02231 0.76194 0.1401 0.0
H118 H 1.00593 0.71922 0.10027 0.0
H119 H 0.98108 0.71466 0.10533 0.0
Ho120 Ho 0.20047 0.26537 0.44278 0.0
Ho121 Ho 0.23083 0.2847 0.42876 0.0
C122 C 0.20887 0.29548 0.40743 0.0
C123 C 0.17314 0.25149 0.45903 0.0
C124 C 0.15933 0.25159 0.46553 0.0
C125 C 0.15641 0.25545 0.49532 0.0
C126 C 0.14248 0.25312 0.50273 0.0
C127 C 0.131 0.24674 0.48068 0.0
C128 C 0.13412 0.24332 0.45058 0.0
C129 C 0.14801 0.24566 0.4432 0.0
C130 C 0.21071 0.25634 0.39271 0.0
C131 C 0.22281 0.25528 0.46429 0.0
C132 C 0.25631 0.29974 0.40468 0.0
C133 C 0.26929 0.2984 0.40807 0.0
C134 C 0.27436 0.29427 0.38172 0.0
C135 C 0.28555 0.29119 0.38498 0.0
C136 C 0.29202 0.29239 0.4146 0.0
C137 C 0.28702 0.29665 0.44095 0.0
C138 C 0.27567 0.29954 0.43777 0.0
C139 C 0.22443 0.28926 0.48857 0.0
O140 O 0.19832 0.28323 0.41918 0.0
O141 O 0.22247 0.29851 0.40834 0.0
O142 O 0.17772 0.25312 0.42982 0.0
O143 O 0.18385 0.25729 0.47942 0.0
O144 O 0.20182 0.24792 0.41413 0.0
O145 O 0.21331 0.26909 0.39839 0.0
O146 O 0.23161 0.26482 0.44337 0.0
O147 O 0.21084 0.25531 0.473 0.0
O148 O 0.25208 0.30394 0.4295 0.0
O149 O 0.24558 0.28885 0.39023 0.0
O150 O 0.23515 0.28731 0.48091 0.0
O151 O 0.21652 0.28696 0.46414 0.0
H152 H 0.16474 0.25982 0.51336 0.0
H153 H 0.14059 0.25581 0.52626 0.0
H154 H 0.12576 0.23865 0.43264 0.0
H155 H 0.14974 0.24234 0.42018 0.0
H156 H 0.26939 0.29308 0.35872 0.0
H157 H 0.28908 0.28777 0.36435 0.0
H158 H 0.29199 0.29793 0.46396 0.0
H159 H 0.27183 0.3025 0.45862 0.0
Ho160 Ho 0.77806 0.94241 0.44256 0.0
Ho161 Ho 0.75886 0.9532 0.42718 0.0
C162 C 0.74788 0.92031 0.4079 0.0
C163 C 0.79246 0.92958 0.45933 0.0
C164 C 0.79361 0.91641 0.46577 0.0
C165 C 0.78251 0.90374 0.47984 0.0
C166 C 0.78472 0.89199 0.48686 0.0
C167 C 0.79812 0.89268 0.48028 0.0
C168 C 0.8091 0.90549 0.46613 0.0
C169 C 0.80682 0.91705 0.45882 0.0
C170 C 0.78732 0.96157 0.39219 0.0
C171 C 0.78802 0.97483 0.46327 0.0
C172 C 0.74403 0.96352 0.40151 0.0
C173 C 0.74631 0.97825 0.40251 0.0
C174 C 0.75984 0.99021 0.39423 0.0
C175 C 0.76232 1.00424 0.39802 0.0
C176 C 0.75143 1.00651 0.41055 0.0
C177 C 0.73791 0.99458 0.41868 0.0
C178 C 0.73536 0.98053 0.41458 0.0
C179 C 0.75406 0.943 0.4876 0.0
O180 O 0.7604 0.92231 0.41874 0.0
O181 O 0.74462 0.9307 0.40928 0.0
O182 O 0.79103 0.93258 0.43007 0.0
O183 O 0.78572 0.93355 0.47941 0.0
O184 O 0.7956 0.96152 0.41452 0.0
O185 O 0.77463 0.95127 0.39749 0.0
O186 O 0.77865 0.97402 0.44173 0.0
O187 O 0.78797 0.96289 0.47241 0.0
O188 O 0.7404 0.95655 0.42836 0.0
O189 O 0.75385 0.96197 0.38632 0.0
O190 O 0.75629 0.95562 0.47878 0.0
O191 O 0.75639 0.93695 0.46398 0.0
H192 H 0.7722 0.90293 0.48552 0.0
H193 H 0.77584 0.88235 0.49729 0.0
H194 H 0.81971 0.90689 0.46126 0.0
H195 H 0.81562 0.92673 0.44823 0.0
H196 H 0.7686 0.98877 0.38537 0.0
H197 H 0.77283 1.01332 0.39177 0.0
H198 H 0.7293 0.99613 0.42805 0.0
H199 H 0.72494 0.97145 0.4214 0.0
Ho200 Ho 0.10139 0.84311 0.44266 0.0
Ho201 Ho 0.09049 0.81273 0.43011 0.0
C202 C 0.12315 0.83451 0.40836 0.0
C203 C 0.11475 0.87044 0.45862 0.0
C204 C 0.1286 0.88425 0.46521 0.0
C205 C 0.13557 0.88703 0.49478 0.0
C206 C 0.14715 0.90091 0.50229 0.0
C207 C 0.15206 0.91253 0.48061 0.0
C208 C 0.14526 0.90957 0.45076 0.0
C209 C 0.13377 0.8957 0.44323 0.0
C210 C 0.08185 0.83255 0.39312 0.0
C211 C 0.06897 0.82084 0.4641 0.0
C212 C 0.08047 0.78711 0.40732 0.0
C213 C 0.06564 0.77483 0.40703 0.0
C214 C 0.05398 0.7766 0.39709 0.0
C215 C 0.03979 0.76515 0.39953 0.0
C216 C 0.03709 0.75191 0.41242 0.0
C217 C 0.04874 0.75014 0.42224 0.0
C218 C 0.06294 0.76153 0.41947 0.0
C219 C 0.10181 0.81977 0.48953 0.0
O220 O 0.12119 0.84518 0.41821 0.0
O221 O 0.11288 0.82088 0.41126 0.0
O222 O 0.11187 0.86582 0.42944 0.0
O223 O 0.10983 0.85977 0.47911 0.0
O224 O 0.08255 0.84175 0.41399 0.0
O225 O 0.09196 0.82988 0.39891 0.0
O226 O 0.06972 0.81204 0.44326 0.0
O227 O 0.08096 0.83277 0.47287 0.0
O228 O 0.08646 0.7908 0.43517 0.0
O229 O 0.08275 0.79825 0.39023 0.0
O230 O 0.08906 0.8091 0.48251 0.0
O231 O 0.10727 0.82738 0.46467 0.0
H232 H 0.13183 0.87858 0.51252 0.0
H233 H 0.15216 0.90253 0.52532 0.0
H234 H 0.14841 0.91811 0.43344 0.0
H235 H 0.12851 0.8941 0.42047 0.0
H236 H 0.05577 0.78688 0.38794 0.0
H237 H 0.03092 0.76671 0.39195 0.0
H238 H 0.04686 0.73991 0.4319 0.0
H239 H 0.07179 0.76005 0.42756 0.0
Ho240 Ho 0.75897 0.8131 0.92929 0.0
Ho241 Ho 0.77833 0.84319 0.9437 0.0
C242 C 0.78813 0.82062 0.9649 0.0
C243 C 0.74381 0.78791 0.90421 0.0
C244 C 0.74614 0.77548 0.90406 0.0
C245 C 0.7596 0.77709 0.89485 0.0
C246 C 0.76211 0.7655 0.89753 0.0
C247 C 0.75131 0.75227 0.90991 0.0
C248 C 0.73786 0.75065 0.91893 0.0
C249 C 0.73528 0.76218 0.91592 0.0
C250 C 0.75411 0.81928 0.98909 0.0
C251 C 0.74815 0.83503 0.90879 0.0
C252 C 0.79237 0.87045 0.96018 0.0
C253 C 0.79233 0.88428 0.96658 0.0
C254 C 0.78792 0.88702 0.9959 0.0
C255 C 0.79018 0.9009 1.00329 0.0
C256 C 0.79706 0.91255 0.98173 0.0
C257 C 0.80112 0.90962 0.95211 0.0
C258 C 0.79879 0.89576 0.94471 0.0
C259 C 0.78757 0.83295 0.89398 0.0
O260 O 0.77879 0.8121 0.94339 0.0
O261 O 0.788 0.83246 0.97411 0.0
O262 O 0.74079 0.79122 0.93176 0.0
O263 O 0.75324 0.79926 0.88842 0.0
O264 O 0.75605 0.80859 0.98138 0.0
O265 O 0.75657 0.82729 0.96477 0.0
O266 O 0.76068 0.84556 0.91946 0.0
O267 O 0.74483 0.82139 0.91071 0.0
O268 O 0.79088 0.86593 0.93096 0.0
O269 O 0.78637 0.85971 0.98045 0.0
O270 O 0.7959 0.84156 0.91586 0.0
O271 O 0.77486 0.83059 0.89918 0.0
H272 H 0.76828 0.78735 0.88613 0.0
H273 H 0.77256 0.76694 0.89058 0.0
H274 H 0.72933 0.74043 0.92819 0.0
H275 H 0.72492 0.76081 0.92342 0.0
H276 H 0.78306 0.87855 1.01356 0.0
H277 H 0.78662 0.9025 0.02613 0.0
H278 H 0.80665 0.91819 0.9349 0.0
H279 H 0.80261 0.89419 0.92215 0.0
Ho280 Ho 0.23013 0.95335 0.92577 0.0
Ho281 Ho 0.2002 0.94246 0.94222 0.0
C282 C 0.22265 0.97485 0.96287 0.0
C283 C 0.25522 0.96397 0.89974 0.0
C284 C 0.26849 0.97788 0.90472 0.0
C285 C 0.27397 0.98779 0.87966 0.0
C286 C 0.28533 1.00181 0.88472 0.0
C287 C 0.29155 1.00608 0.91487 0.0
C288 C 0.28617 0.99606 0.9399 0.0
C289 C 0.27466 0.98209 0.93493 0.0
C290 C 0.22517 0.94324 0.98641 0.0
C291 C 0.2082 0.92043 0.90679 0.0
C292 C 0.173 0.9292 0.95957 0.0
C293 C 0.15942 0.91543 0.96795 0.0
C294 C 0.15394 0.9134 0.99893 0.0
C295 C 0.14006 0.90188 1.00641 0.0
C296 C 0.13106 0.89203 0.98307 0.0
C297 C 0.13675 0.89382 0.9522 0.0
C298 C 0.15068 0.90535 0.94474 0.0
C299 C 0.20974 0.96133 0.89125 0.0
O300 O 0.23113 0.97405 0.9412 0.0
O301 O 0.2108 0.9629 0.97214 0.0
O302 O 0.25102 0.95456 0.92281 0.0
O303 O 0.24457 0.96513 0.88752 0.0
O304 O 0.23568 0.95573 0.97727 0.0
O305 O 0.21665 0.93722 0.96302 0.0
O306 O 0.19791 0.92206 0.9203 0.0
O307 O 0.22166 0.93122 0.9054 0.0
O308 O 0.17733 0.93144 0.93013 0.0
O309 O 0.18388 0.93474 0.97955 0.0
O310 O 0.20155 0.9614 0.91375 0.0
O311 O 0.21211 0.95103 0.89668 0.0
H312 H 0.26915 0.98481 0.85634 0.0
H313 H 0.28912 1.00935 0.86509 0.0
H314 H 0.29093 0.99896 0.96326 0.0
H315 H 0.27047 0.97473 0.95484 0.0
H316 H 0.16024 0.92104 0.01733 0.0
H317 H 0.13634 0.90083 0.03058 0.0
H318 H 0.13023 0.88665 0.93335 0.0
H319 H 0.15438 0.90663 0.92049 0.0
Ho320 Ho 0.08979 0.28426 0.92725 0.0
Ho321 Ho 0.1006 0.265 0.94126 0.0
C322 C 0.06817 0.25491 0.96231 0.0
C323 C 0.07958 0.29965 0.90382 0.0
C324 C 0.06502 0.2978 0.90612 0.0
C325 C 0.05268 0.28435 0.89933 0.0
C326 C 0.03885 0.28238 0.90392 0.0
C327 C 0.03718 0.29374 0.91577 0.0
C328 C 0.0495 0.30717 0.92259 0.0
C329 C 0.06334 0.30919 0.9177 0.0
C330 C 0.10038 0.28875 0.98733 0.0
C331 C 0.1226 0.29517 0.90677 0.0
C332 C 0.11387 0.25094 0.95764 0.0
C333 C 0.12776 0.25102 0.96435 0.0
C334 C 0.13422 0.25443 0.99451 0.0
C335 C 0.14578 0.25206 1.002 0.0
C336 C 0.15117 0.24608 0.97965 0.0
C337 C 0.14496 0.24311 0.94921 0.0
C338 C 0.13345 0.24549 0.94174 0.0
C339 C 0.08133 0.25593 0.8911 0.0
O340 O 0.06897 0.26437 0.94108 0.0
O341 O 0.08015 0.25499 0.97134 0.0
O342 O 0.0869 0.30297 0.93019 0.0
O343 O 0.0806 0.28973 0.88784 0.0
O344 O 0.08765 0.28647 0.97924 0.0
O345 O 0.10625 0.28654 0.96323 0.0
O346 O 0.12069 0.28272 0.9177 0.0
O347 O 0.11216 0.29837 0.90819 0.0
O348 O 0.11103 0.25267 0.92841 0.0
O349 O 0.10892 0.25671 0.97798 0.0
O350 O 0.08173 0.24755 0.91274 0.0
O351 O 0.09155 0.26865 0.89662 0.0
H352 H 0.05366 0.27526 0.89093 0.0
H353 H 0.02947 0.27192 0.89876 0.0
H354 H 0.04842 0.31612 0.93147 0.0
H355 H 0.07274 0.31956 0.92341 0.0
H356 H 0.13002 0.25846 1.01276 0.0
H357 H 0.1501 0.25439 0.02578 0.0
H358 H 0.14889 0.23875 0.93109 0.0
H359 H 0.12866 0.24253 0.91841 0.0
Ho360 Ho 0.82272 0.75028 0.61168 0.0
Ho361 Ho 0.85345 0.76965 0.59091 0.0
C362 C 0.83042 0.77865 0.56841 0.0
C363 C 0.79967 0.74141 0.64516 0.0
C364 C 0.78595 0.74079 0.63886 0.0
C365 C 0.77967 0.74485 0.66284 0.0
C366 C 0.76791 0.74673 0.65614 0.0
C367 C 0.76225 0.74447 0.62535 0.0
C368 C 0.7685 0.74021 0.6014 0.0
C369 C 0.78038 0.73851 0.60806 0.0
C370 C 0.82423 0.73927 0.55474 0.0
C371 C 0.84502 0.7396 0.62744 0.0
C372 C 0.8807 0.78331 0.57417 0.0
C373 C 0.89445 0.78316 0.5674 0.0
C374 C 0.8975 0.77989 0.53711 0.0
C375 C 0.91142 0.78226 0.52958 0.0
C376 C 0.92276 0.78807 0.55202 0.0
C377 C 0.91951 0.79089 0.58258 0.0
C378 C 0.90563 0.78852 0.59008 0.0
C379 C 0.84434 0.7787 0.64272 0.0
O380 O 0.82124 0.76856 0.58808 0.0
O381 O 0.84316 0.77987 0.5617 0.0
O382 O 0.80246 0.73258 0.62907 0.0
O383 O 0.8106 0.75463 0.64614 0.0
O384 O 0.81268 0.73486 0.57172 0.0
O385 O 0.83494 0.75035 0.56781 0.0
O386 O 0.85427 0.74998 0.60843 0.0
O387 O 0.83257 0.73857 0.63539 0.0
O388 O 0.87623 0.78167 0.60346 0.0
O389 O 0.86992 0.77757 0.55395 0.0
O390 O 0.85205 0.78701 0.61978 0.0
O391 O 0.84208 0.76607 0.63688 0.0
H392 H 0.78419 0.74708 0.68648 0.0
H393 H 0.76343 0.75022 0.6749 0.0
H394 H 0.7642 0.73818 0.57757 0.0
H395 H 0.78539 0.73576 0.58905 0.0
H396 H 0.88928 0.77599 0.51882 0.0
H397 H 0.91342 0.78006 0.5057 0.0
H398 H 0.92777 0.7951 0.60079 0.0
H399 H 0.90381 0.79138 0.61351 0.0
Ho400 Ho 0.29428 0.08065 0.60319 0.0
Ho401 Ho 0.27484 0.0913 0.58912 0.0
C402 C 0.26509 0.05902 0.56762 0.0
C403 C 0.30952 0.0706 0.62809 0.0
C404 C 0.30719 0.05585 0.62802 0.0
C405 C 0.29374 0.04403 0.63715 0.0
C406 C 0.2912 0.02993 0.63415 0.0
C407 C 0.30197 0.0275 0.62154 0.0
C408 C 0.31543 0.0393 0.61261 0.0
C409 C 0.31803 0.0534 0.61594 0.0
C410 C 0.29905 0.09171 0.54339 0.0
C411 C 0.30504 0.11335 0.62378 0.0
C412 C 0.2607 0.10449 0.57271 0.0
C413 C 0.26075 0.11837 0.56619 0.0
C414 C 0.26411 0.12485 0.53605 0.0
C415 C 0.26172 0.1364 0.5287 0.0
C416 C 0.25578 0.14177 0.55119 0.0
C417 C 0.25286 0.13554 0.58163 0.0
C418 C 0.25526 0.12402 0.58894 0.0
C419 C 0.26573 0.07182 0.63883 0.0
O420 O 0.27454 0.05982 0.58889 0.0
O421 O 0.26506 0.07096 0.55877 0.0
O422 O 0.31254 0.07701 0.60062 0.0
O423 O 0.30008 0.07249 0.64397 0.0
O424 O 0.29712 0.07907 0.55108 0.0
O425 O 0.29659 0.09724 0.56772 0.0
O426 O 0.29242 0.11128 0.61346 0.0
O427 O 0.30845 0.10308 0.62156 0.0
O428 O 0.26228 0.1015 0.60193 0.0
O429 O 0.26666 0.09972 0.55241 0.0
O430 O 0.25737 0.07209 0.61697 0.0
O431 O 0.27841 0.08218 0.6336 0.0
H432 H 0.28507 0.0456 0.64604 0.0
H433 H 0.28074 0.02094 0.64103 0.0
H434 H 0.32394 0.03762 0.60317 0.0
H435 H 0.32839 0.06238 0.60848 0.0
H436 H 0.26812 0.12067 0.51769 0.0
H437 H 0.264 0.14071 0.5049 0.0
H438 H 0.24856 0.13945 0.59989 0.0
H439 H 0.25233 0.11922 0.61227 0.0
Ho440 Ho 0.96166 0.22048 0.60221 0.0
Ho441 Ho 0.95196 0.19093 0.58685 0.0
C442 C 0.98385 0.21278 0.56503 0.0
C443 C 0.97541 0.24747 0.61735 0.0
C444 C 0.99075 0.25854 0.61869 0.0
C445 C 1.00101 0.25612 0.63444 0.0
C446 C 1.01565 0.26678 0.63421 0.0
C447 C 1.02016 0.27978 0.61773 0.0
C448 C 1.00987 0.28203 0.60171 0.0
C449 C 0.99528 0.2715 0.60228 0.0
C450 C 0.94243 0.21185 0.55337 0.0
C451 C 0.93075 0.1985 0.62716 0.0
C452 C 0.9385 0.16355 0.57077 0.0
C453 C 0.92471 0.14992 0.56266 0.0
C454 C 0.92247 0.14454 0.53158 0.0
C455 C 0.91097 0.13064 0.52423 0.0
C456 C 0.90133 0.12153 0.54778 0.0
C457 C 0.90332 0.12711 0.57878 0.0
C458 C 0.91484 0.14106 0.58611 0.0
C459 C 0.97109 0.20104 0.63731 0.0
O460 O 0.9824 0.22186 0.58391 0.0
O461 O 0.97251 0.20005 0.55838 0.0
O462 O 0.97049 0.24286 0.58897 0.0
O463 O 0.97079 0.23702 0.63817 0.0
O464 O 0.94249 0.21912 0.57777 0.0
O465 O 0.95257 0.20872 0.55628 0.0
O466 O 0.93149 0.18975 0.60608 0.0
O467 O 0.94234 0.21097 0.63389 0.0
O468 O 0.94077 0.16815 0.59996 0.0
O469 O 0.94403 0.17423 0.55043 0.0
O470 O 0.97077 0.1923 0.61569 0.0
O471 O 0.96067 0.2033 0.63219 0.0
H472 H 0.99776 0.24605 0.64683 0.0
H473 H 1.02344 0.26489 0.64677 0.0
H474 H 1.01306 0.2921 0.58934 0.0
H475 H 0.98752 0.27347 0.5898 0.0
H476 H 0.92993 0.15092 0.51296 0.0
H477 H 0.90976 0.127 0.49998 0.0
H478 H 0.89632 0.12051 0.59778 0.0
H479 H 0.91629 0.14467 0.61044 0.0
Ho480 Ho 0.94198 0.52409 0.42239 0.0
Ho481 Ho 0.96107 0.55417 0.43815 0.0
C482 C 0.97204 0.53225 0.45778 0.0
C483 C 0.92811 0.49686 0.4056 0.0
C484 C 0.92817 0.48307 0.39873 0.0
C485 C 0.93123 0.47994 0.36831 0.0
C486 C 0.92881 0.46602 0.36076 0.0
C487 C 0.92313 0.45473 0.38332 0.0
C488 C 0.92051 0.45803 0.414 0.0
C489 C 0.92294 0.47193 0.42152 0.0
C490 C 0.93269 0.53368 0.47328 0.0
C491 C 0.93182 0.54638 0.40197 0.0
C492 C 0.97576 0.57948 0.46294 0.0
C493 C 0.97479 0.5926 0.45821 0.0
C494 C 0.9698 0.59761 0.48314 0.0
C495 C 0.96693 0.60886 0.47825 0.0
C496 C 0.96923 0.61544 0.44842 0.0
C497 C 0.97442 0.61055 0.42354 0.0
C498 C 0.97711 0.59915 0.42833 0.0
C499 C 0.96582 0.54889 0.37757 0.0
O500 O 0.96004 0.52188 0.44482 0.0
O501 O 0.9748 0.54574 0.4585 0.0
O502 O 0.92976 0.50131 0.43488 0.0
O503 O 0.9339 0.50764 0.3854 0.0
O504 O 0.92438 0.52519 0.45124 0.0
O505 O 0.94546 0.5363 0.46762 0.0
O506 O 0.9411 0.55487 0.42361 0.0
O507 O 0.93206 0.53465 0.39245 0.0
O508 O 0.98061 0.57518 0.43934 0.0
O509 O 0.96432 0.56885 0.47619 0.0
O510 O 0.96364 0.55929 0.38652 0.0
O511 O 0.96357 0.54052 0.40117 0.0
H512 H 0.93502 0.4881 0.34992 0.0
H513 H 0.93087 0.46397 0.3368 0.0
H514 H 0.91638 0.44982 0.43229 0.0
H515 H 0.92024 0.4738 0.44508 0.0
H516 H 0.96771 0.59254 0.50622 0.0
H517 H 0.96277 0.6123 0.49775 0.0
H518 H 0.97656 0.61561 0.40045 0.0
H519 H 0.98077 0.59537 0.40853 0.0
Ho520 Ho 0.51994 0.42479 0.42459 0.0
Ho521 Ho 0.48986 0.41401 0.44037 0.0
C522 C 0.51184 0.44691 0.45941 0.0
C523 C 0.54719 0.43798 0.40775 0.0
C524 C 0.56102 0.45182 0.40126 0.0
C525 C 0.56373 0.45899 0.37194 0.0
C526 C 0.57765 0.47055 0.36445 0.0
C527 C 0.5893 0.47522 0.38594 0.0
C528 C 0.5864 0.46829 0.4156 0.0
C529 C 0.57253 0.45678 0.42306 0.0
C530 C 0.51011 0.40573 0.47503 0.0
C531 C 0.49736 0.39241 0.40399 0.0
C532 C 0.46472 0.40365 0.46602 0.0
C533 C 0.45218 0.38899 0.46432 0.0
C534 C 0.45362 0.37685 0.47145 0.0
C535 C 0.44199 0.36292 0.46694 0.0
C536 C 0.42887 0.36096 0.45484 0.0
C537 C 0.4274 0.37307 0.44785 0.0
C538 C 0.43898 0.38701 0.45267 0.0
C539 C 0.49534 0.42439 0.3801 0.0
O540 O 0.5223 0.44501 0.44773 0.0
O541 O 0.49822 0.43642 0.45894 0.0
O542 O 0.54272 0.43497 0.43702 0.0
O543 O 0.53639 0.43326 0.38759 0.0
O544 O 0.51846 0.40577 0.45279 0.0
O545 O 0.5077 0.41601 0.46966 0.0
O546 O 0.48889 0.39323 0.42573 0.0
O547 O 0.5092 0.40436 0.39462 0.0
O548 O 0.46814 0.41093 0.43957 0.0
O549 O 0.47602 0.40489 0.481 0.0
O550 O 0.4848 0.41182 0.3887 0.0
O551 O 0.50369 0.43028 0.40381 0.0
H552 H 0.55524 0.45537 0.35431 0.0
H553 H 0.57937 0.47545 0.34126 0.0
H554 H 0.5949 0.47165 0.43312 0.0
H555 H 0.57094 0.45143 0.4457 0.0
H556 H 0.46379 0.37807 0.47994 0.0
H557 H 0.44333 0.3537 0.4723 0.0
H558 H 0.41727 0.37174 0.43881 0.0
H559 H 0.43774 0.39623 0.44672 0.0
Ho560 Ho 0.61882 0.10191 0.42252 0.0
Ho561 Ho 0.62978 0.08254 0.4366 0.0
C562 C 0.59705 0.07184 0.45786 0.0
C563 C 0.60584 0.11624 0.40647 0.0
C564 C 0.59258 0.11729 0.40029 0.0
C565 C 0.58056 0.1069 0.38305 0.0
C566 C 0.56884 0.10915 0.37598 0.0
C567 C 0.56893 0.12194 0.38562 0.0
C568 C 0.58106 0.13219 0.403 0.0
C569 C 0.59257 0.12983 0.41036 0.0
C570 C 0.63813 0.11091 0.47258 0.0
C571 C 0.65117 0.11189 0.40089 0.0
C572 C 0.64026 0.0675 0.46053 0.0
C573 C 0.65458 0.06885 0.45677 0.0
C574 C 0.66408 0.07341 0.48265 0.0
C575 C 0.67835 0.07654 0.47887 0.0
C576 C 0.6833 0.07496 0.44921 0.0
C577 C 0.67374 0.07024 0.42335 0.0
C578 C 0.65951 0.06729 0.42704 0.0
C579 C 0.6188 0.07798 0.37678 0.0
O580 O 0.59876 0.08409 0.44603 0.0
O581 O 0.60762 0.06881 0.45711 0.0
O582 O 0.60884 0.11466 0.43566 0.0
O583 O 0.60995 0.10974 0.38608 0.0
O584 O 0.63773 0.11931 0.45099 0.0
O585 O 0.62794 0.09818 0.46698 0.0
O586 O 0.65045 0.10243 0.42201 0.0
O587 O 0.63915 0.11179 0.39202 0.0
O588 O 0.6317 0.06324 0.43591 0.0
O589 O 0.64049 0.07842 0.47499 0.0
O590 O 0.63147 0.07991 0.38445 0.0
O591 O 0.6132 0.08029 0.40119 0.0
H592 H 0.58026 0.09712 0.37486 0.0
H593 H 0.55973 0.10082 0.36301 0.0
H594 H 0.58198 0.14234 0.41036 0.0
H595 H 0.60175 0.1381 0.42338 0.0
H596 H 0.66056 0.07492 0.50566 0.0
H597 H 0.68553 0.08031 0.49912 0.0
H598 H 0.67719 0.06865 0.40035 0.0
H599 H 0.65247 0.06397 0.40654 0.0
Ho600 Ho 0.86743 0.59891 0.77526 0.0
Ho601 Ho 0.89772 0.61843 0.76238 0.0
C602 C 0.87576 0.62922 0.74102 0.0
C603 C 0.84007 0.58478 0.79123 0.0
C604 C 0.82619 0.58472 0.7978 0.0
C605 C 0.82326 0.58863 0.82752 0.0
C606 C 0.80929 0.58617 0.83496 0.0
C607 C 0.79779 0.57962 0.813 0.0
C608 C 0.80092 0.57616 0.78296 0.0
C609 C 0.81484 0.57862 0.77556 0.0
C610 C 0.87799 0.5899 0.72576 0.0
C611 C 0.88986 0.58893 0.79672 0.0
C612 C 0.92334 0.63408 0.73939 0.0
C613 C 0.93568 0.63161 0.7394 0.0
C614 C 0.93388 0.61804 0.73075 0.0
C615 C 0.94536 0.61535 0.73382 0.0
C616 C 0.95865 0.62608 0.74606 0.0
C617 C 0.96047 0.63965 0.7545 0.0
C618 C 0.94905 0.6424 0.7511 0.0
C619 C 0.89076 0.62275 0.82187 0.0
O620 O 0.86516 0.61663 0.75124 0.0
O621 O 0.88943 0.63256 0.74339 0.0
O622 O 0.84471 0.58659 0.76205 0.0
O623 O 0.85074 0.59054 0.81174 0.0
O624 O 0.86886 0.58147 0.74683 0.0
O625 O 0.8806 0.60266 0.73131 0.0
O626 O 0.89861 0.59848 0.77578 0.0
O627 O 0.8779 0.58896 0.80556 0.0
O628 O 0.91961 0.63646 0.76711 0.0
O629 O 0.91221 0.62511 0.72244 0.0
O630 O 0.90148 0.62073 0.81475 0.0
O631 O 0.88307 0.62052 0.79711 0.0
H632 H 0.83162 0.59314 0.84549 0.0
H633 H 0.8074 0.5889 0.85845 0.0
H634 H 0.79254 0.57137 0.76508 0.0
H635 H 0.81659 0.57526 0.75259 0.0
H636 H 0.92354 0.60941 0.72223 0.0
H637 H 0.94376 0.60481 0.72733 0.0
H638 H 0.97074 0.64813 0.76367 0.0
H639 H 0.95055 0.65284 0.75823 0.0
Ho640 Ho 0.4449 0.27561 0.776 0.0
Ho641 Ho 0.4254 0.28634 0.76186 0.0
C642 C 0.41468 0.25363 0.74124 0.0
C643 C 0.45901 0.26242 0.79247 0.0
C644 C 0.45897 0.24856 0.79884 0.0
C645 C 0.45517 0.24176 0.82864 0.0
C646 C 0.45756 0.23021 0.83596 0.0
C647 C 0.46393 0.22516 0.81379 0.0
C648 C 0.46729 0.2317 0.78367 0.0
C649 C 0.4649 0.24322 0.77639 0.0
C650 C 0.454 0.29503 0.72631 0.0
C651 C 0.4547 0.30795 0.79717 0.0
C652 C 0.41019 0.29643 0.73704 0.0
C653 C 0.41266 0.31123 0.73681 0.0
C654 C 0.42613 0.32292 0.72729 0.0
C655 C 0.42881 0.33708 0.72998 0.0
C656 C 0.41819 0.33971 0.74268 0.0
C657 C 0.40473 0.32803 0.75202 0.0
C658 C 0.40197 0.31387 0.749 0.0
C659 C 0.42076 0.27527 0.82159 0.0
O660 O 0.42731 0.25568 0.75153 0.0
O661 O 0.41125 0.26389 0.74354 0.0
O662 O 0.45751 0.26547 0.76325 0.0
O663 O 0.45297 0.26712 0.81276 0.0
O664 O 0.46239 0.29471 0.74804 0.0
O665 O 0.44128 0.28477 0.73164 0.0
O666 O 0.44523 0.30714 0.77592 0.0
O667 O 0.45469 0.296 0.80618 0.0
O668 O 0.40727 0.29016 0.76468 0.0
O669 O 0.41947 0.29433 0.72102 0.0
O670 O 0.42267 0.28791 0.81399 0.0
O671 O 0.42315 0.26974 0.79719 0.0
H672 H 0.4508 0.24569 0.84677 0.0
H673 H 0.45493 0.22564 0.85951 0.0
H674 H 0.47194 0.22804 0.76564 0.0
H675 H 0.46817 0.24828 0.75335 0.0
H676 H 0.43469 0.3212 0.71832 0.0
H677 H 0.43927 0.34597 0.72278 0.0
H678 H 0.39632 0.32987 0.76153 0.0
H679 H 0.3916 0.305 0.75677 0.0
Ho680 Ho 0.76803 0.17671 0.77601 0.0
Ho681 Ho 0.75725 0.14639 0.76299 0.0
C682 C 0.79003 0.16835 0.74195 0.0
C683 C 0.78086 0.20396 0.79211 0.0
C684 C 0.79392 0.21827 0.79902 0.0
C685 C 0.8072 0.21994 0.80971 0.0
C686 C 0.81897 0.23387 0.81675 0.0
C687 C 0.8177 0.24645 0.81346 0.0
C688 C 0.80426 0.2445 0.8028 0.0
C689 C 0.79268 0.23071 0.79553 0.0
C690 C 0.74855 0.16619 0.72628 0.0
C691 C 0.73556 0.15427 0.79713 0.0
C692 C 0.74741 0.12087 0.73971 0.0
C693 C 0.73263 0.1085 0.73898 0.0
C694 C 0.72102 0.11005 0.72771 0.0
C695 C 0.70685 0.09852 0.72967 0.0
C696 C 0.70412 0.08541 0.74336 0.0
C697 C 0.71572 0.08385 0.75446 0.0
C698 C 0.7299 0.09531 0.75218 0.0
C699 C 0.76839 0.15323 0.82259 0.0
O700 O 0.78803 0.17895 0.75211 0.0
O701 O 0.77973 0.1547 0.7443 0.0
O702 O 0.77827 0.19945 0.76285 0.0
O703 O 0.77656 0.19333 0.81252 0.0
O704 O 0.74916 0.17528 0.74732 0.0
O705 O 0.75871 0.16358 0.73203 0.0
O706 O 0.73639 0.14555 0.77619 0.0
O707 O 0.74753 0.16621 0.80604 0.0
O708 O 0.75329 0.12447 0.76768 0.0
O709 O 0.7497 0.13207 0.72284 0.0
O710 O 0.75569 0.14255 0.81532 0.0
O711 O 0.77391 0.16095 0.79788 0.0
H712 H 0.80848 0.21053 0.81263 0.0
H713 H 0.82907 0.23474 0.82448 0.0
H714 H 0.80246 0.25361 0.80059 0.0
H715 H 0.78254 0.22975 0.78754 0.0
H716 H 0.72281 0.12022 0.71789 0.0
H717 H 0.69802 0.09992 0.72109 0.0
H718 H 0.71382 0.07372 0.76475 0.0
H719 H 0.7387 0.09399 0.76125 0.0
Ho720 Ho 0.42569 0.14656 0.26129 0.0
Ho721 Ho 0.44504 0.17677 0.27563 0.0
C722 C 0.45503 0.15438 0.29698 0.0
C723 C 0.41064 0.12114 0.23718 0.0
C724 C 0.4117 0.10804 0.24133 0.0
C725 C 0.41616 0.1029 0.21568 0.0
C726 C 0.41903 0.09161 0.21983 0.0
C727 C 0.41727 0.08513 0.24963 0.0
C728 C 0.41263 0.09017 0.27525 0.0
C729 C 0.40995 0.10161 0.2712 0.0
C730 C 0.42101 0.15271 0.32127 0.0
C731 C 0.41497 0.16856 0.24023 0.0
C732 C 0.45903 0.20404 0.29204 0.0
C733 C 0.45903 0.21788 0.29878 0.0
C734 C 0.45511 0.22072 0.3286 0.0
C735 C 0.45752 0.23464 0.33624 0.0
C736 C 0.46403 0.24619 0.31439 0.0
C737 C 0.46751 0.24316 0.28426 0.0
C738 C 0.4651 0.22928 0.27666 0.0
C739 C 0.45406 0.16659 0.22535 0.0
O740 O 0.44556 0.14571 0.27585 0.0
O741 O 0.45496 0.16628 0.30593 0.0
O742 O 0.40621 0.12549 0.2614 0.0
O743 O 0.42183 0.13174 0.22316 0.0
O744 O 0.42294 0.14202 0.31339 0.0
O745 O 0.42339 0.16073 0.297 0.0
O746 O 0.42717 0.17903 0.25232 0.0
O747 O 0.41197 0.15499 0.24069 0.0
O748 O 0.45735 0.19952 0.26281 0.0
O749 O 0.4532 0.19331 0.31235 0.0
O750 O 0.46249 0.17534 0.24694 0.0
O751 O 0.44134 0.16411 0.23102 0.0
H752 H 0.41781 0.10789 0.19258 0.0
H753 H 0.42275 0.08805 0.19975 0.0
H754 H 0.41091 0.08519 0.29836 0.0
H755 H 0.40671 0.10549 0.29153 0.0
H756 H 0.45063 0.21233 0.3465 0.0
H757 H 0.45479 0.23643 0.35979 0.0
H758 H 0.47227 0.25156 0.26644 0.0
H759 H 0.46847 0.22762 0.25362 0.0
Ho760 Ho 0.89651 0.2868 0.25656 0.0
Ho761 Ho 0.86663 0.27608 0.27347 0.0
C762 C 0.88928 0.30829 0.29461 0.0
C763 C 0.92153 0.29735 0.23023 0.0
C764 C 0.9349 0.3111 0.2357 0.0
C765 C 0.94049 0.32126 0.21112 0.0
C766 C 0.95192 0.33518 0.21678 0.0
C767 C 0.95809 0.33909 0.24705 0.0
C768 C 0.95262 0.32882 0.27157 0.0
C769 C 0.94103 0.31495 0.26601 0.0
C770 C 0.89169 0.27664 0.31707 0.0
C771 C 0.87434 0.25398 0.23743 0.0
C772 C 0.83943 0.26329 0.29044 0.0
C773 C 0.82517 0.25005 0.29682 0.0
C774 C 0.82367 0.23781 0.31293 0.0
C775 C 0.80976 0.22606 0.32008 0.0
C776 C 0.79698 0.22632 0.31162 0.0
C777 C 0.79873 0.23868 0.29537 0.0
C778 C 0.81254 0.25022 0.28795 0.0
C779 C 0.87627 0.29506 0.22274 0.0
O780 O 0.89768 0.30749 0.27269 0.0
O781 O 0.8774 0.29637 0.30382 0.0
O782 O 0.91723 0.28769 0.25282 0.0
O783 O 0.91097 0.29881 0.21851 0.0
O784 O 0.90225 0.28909 0.30789 0.0
O785 O 0.88304 0.2707 0.29384 0.0
O786 O 0.86409 0.2557 0.25088 0.0
O787 O 0.88785 0.26467 0.23614 0.0
O788 O 0.84381 0.26634 0.26116 0.0
O789 O 0.85018 0.26728 0.31044 0.0
O790 O 0.86831 0.29528 0.24556 0.0
O791 O 0.87847 0.28462 0.22786 0.0
H792 H 0.93569 0.31856 0.18774 0.0
H793 H 0.9558 0.34294 0.19754 0.0
H794 H 0.95733 0.33144 0.295 0.0
H795 H 0.93676 0.30738 0.28556 0.0
H796 H 0.83321 0.23736 0.32015 0.0
H797 H 0.80907 0.21678 0.33216 0.0
H798 H 0.78945 0.23973 0.28897 0.0
H799 H 0.81335 0.25957 0.27579 0.0
Ho800 Ho 0.75595 0.61737 0.25593 0.0
Ho801 Ho 0.76771 0.59799 0.27484 0.0
C802 C 0.7356 0.58849 0.29795 0.0
C803 C 0.74138 0.62629 0.22376 0.0
C804 C 0.72737 0.62551 0.22888 0.0
C805 C 0.71489 0.61425 0.21464 0.0
C806 C 0.70131 0.61253 0.22104 0.0
C807 C 0.69998 0.62222 0.24125 0.0
C808 C 0.71249 0.63365 0.25512 0.0
C809 C 0.7261 0.63524 0.24909 0.0
C810 C 0.7685 0.62779 0.31296 0.0
C811 C 0.78902 0.6284 0.23909 0.0
C812 C 0.78112 0.58414 0.2912 0.0
C813 C 0.79439 0.58316 0.2975 0.0
C814 C 0.80633 0.59355 0.31488 0.0
C815 C 0.81806 0.59134 0.32205 0.0
C816 C 0.81805 0.5786 0.31236 0.0
C817 C 0.80599 0.56834 0.29483 0.0
C818 C 0.79447 0.57065 0.28738 0.0
C819 C 0.74934 0.58907 0.22338 0.0
O820 O 0.73634 0.59873 0.27898 0.0
O821 O 0.7472 0.5873 0.30398 0.0
O822 O 0.75221 0.63487 0.24209 0.0
O823 O 0.74046 0.61373 0.21978 0.0
O824 O 0.76107 0.63218 0.29699 0.0
O825 O 0.76824 0.61691 0.29911 0.0
O826 O 0.78797 0.61758 0.25646 0.0
O827 O 0.77764 0.62982 0.23288 0.0
O828 O 0.77808 0.58558 0.26197 0.0
O829 O 0.77693 0.59062 0.31146 0.0
O830 O 0.74918 0.58065 0.24562 0.0
O831 O 0.75951 0.60179 0.22952 0.0
H832 H 0.71557 0.60658 0.19893 0.0
H833 H 0.69186 0.60355 0.21028 0.0
H834 H 0.71182 0.64148 0.27029 0.0
H835 H 0.73554 0.64403 0.26034 0.0
H836 H 0.80657 0.60329 0.3231 0.0
H837 H 0.82713 0.59967 0.33514 0.0
H838 H 0.80513 0.55822 0.28745 0.0
H839 H 0.78533 0.56238 0.27425 0.0
Ho840 Ho 0.48905 0.08231 0.93487 0.0
Ho841 Ho 0.51926 0.10174 0.92225 0.0
C842 C 0.49689 0.11177 0.90064 0.0
C843 C 0.46346 0.06658 0.95802 0.0
C844 C 0.4511 0.06904 0.95872 0.0
C845 C 0.45282 0.08238 0.96893 0.0
C846 C 0.4413 0.08507 0.96668 0.0
C847 C 0.42808 0.07456 0.95371 0.0
C848 C 0.42635 0.06122 0.9437 0.0
C849 C 0.4378 0.05846 0.9463 0.0
C850 C 0.49593 0.0779 0.87539 0.0
C851 C 0.51092 0.0715 0.95651 0.0
C852 C 0.54662 0.11584 0.90625 0.0
C853 C 0.56051 0.11589 0.89971 0.0
C854 C 0.56342 0.11192 0.87004 0.0
C855 C 0.57739 0.11436 0.86258 0.0
C856 C 0.58891 0.12095 0.88448 0.0
C857 C 0.58581 0.12448 0.91448 0.0
C858 C 0.57188 0.12204 0.9219 0.0
C859 C 0.50864 0.11076 0.9717 0.0
O860 O 0.48812 0.10222 0.92155 0.0
O861 O 0.50886 0.11175 0.8919 0.0
O862 O 0.4671 0.06442 0.93002 0.0
O863 O 0.47465 0.07541 0.97499 0.0
O864 O 0.48526 0.07999 0.88252 0.0
O865 O 0.50366 0.08015 0.90012 0.0
O866 O 0.52155 0.08417 0.94683 0.0
O867 O 0.49726 0.06807 0.95347 0.0
O868 O 0.54199 0.11409 0.93542 0.0
O869 O 0.53595 0.11003 0.88578 0.0
O870 O 0.51774 0.11918 0.95058 0.0
O871 O 0.5061 0.09801 0.9662 0.0
H872 H 0.46309 0.09085 0.97809 0.0
H873 H 0.44282 0.09543 0.9744 0.0
H874 H 0.41613 0.0529 0.93398 0.0
H875 H 0.43636 0.0482 0.93801 0.0
H876 H 0.55505 0.10738 0.8521 0.0
H877 H 0.57925 0.11158 0.83912 0.0
H878 H 0.5942 0.1293 0.93233 0.0
H879 H 0.57016 0.12544 0.94483 0.0
Ho880 Ho 0.96154 0.41497 0.93711 0.0
Ho881 Ho 0.94186 0.42469 0.92031 0.0
C882 C 0.93212 0.39301 0.89788 0.0
C883 C 0.97371 0.40035 0.95392 0.0
C884 C 0.96879 0.38477 0.95233 0.0
C885 C 0.96197 0.37574 0.97843 0.0
C886 C 0.95743 0.361 0.97689 0.0
C887 C 0.95967 0.3551 0.94927 0.0
C888 C 0.9661 0.36406 0.92289 0.0
C889 C 0.97065 0.37875 0.92442 0.0
C890 C 0.97245 0.43391 0.88794 0.0
C891 C 0.97052 0.44593 0.96133 0.0
C892 C 0.92792 0.43814 0.90388 0.0
C893 C 0.92798 0.45206 0.89792 0.0
C894 C 0.93154 0.45879 0.86803 0.0
C895 C 0.92913 0.47034 0.86093 0.0
C896 C 0.92298 0.47549 0.88341 0.0
C897 C 0.91985 0.46902 0.91361 0.0
C898 C 0.92226 0.45748 0.92068 0.0
C899 C 0.93266 0.40565 0.97087 0.0
O900 O 0.94257 0.39443 0.91704 0.0
O901 O 0.93066 0.40433 0.89133 0.0
O902 O 0.97618 0.40705 0.92683 0.0
O903 O 0.96681 0.40419 0.97373 0.0
O904 O 0.97956 0.43388 0.91264 0.0
O905 O 0.95915 0.42386 0.89059 0.0
O906 O 0.96104 0.44515 0.94005 0.0
O907 O 0.97136 0.43434 0.96847 0.0
O908 O 0.92904 0.43468 0.93295 0.0
O909 O 0.93427 0.43377 0.88379 0.0
O910 O 0.92442 0.40554 0.94823 0.0
O911 O 0.94528 0.41624 0.96622 0.0
H912 H 0.96031 0.38007 1.00017 0.0
H913 H 0.95249 0.35429 0.99753 0.0
H914 H 0.96826 0.35986 0.90152 0.0
H915 H 0.97586 0.38541 0.90386 0.0
H916 H 0.93572 0.4548 0.84965 0.0
H917 H 0.93156 0.47483 0.83729 0.0
H918 H 0.91537 0.47275 0.93188 0.0
H919 H 0.91916 0.45247 0.9438 0.0
Ho920 Ho 0.62966 0.55372 0.93652 0.0
Ho921 Ho 0.61878 0.52366 0.92152 0.0
C922 C 0.65114 0.54599 0.90025 0.0
C923 C 0.6401 0.57909 0.96097 0.0
C924 C 0.65409 0.59231 0.95629 0.0
C925 C 0.66382 0.59774 0.98168 0.0
C926 C 0.67788 0.60913 0.97707 0.0
C927 C 0.68236 0.61544 0.94706 0.0
C928 C 0.67254 0.61011 0.92168 0.0
C929 C 0.65853 0.59856 0.92619 0.0
C930 C 0.61929 0.54809 0.87618 0.0
C931 C 0.59682 0.53179 0.95672 0.0
C932 C 0.60548 0.49637 0.90528 0.0
C933 C 0.59163 0.48256 0.89871 0.0
C934 C 0.58483 0.47964 0.86893 0.0
C935 C 0.57328 0.46572 0.86151 0.0
C936 C 0.56824 0.45424 0.88356 0.0
C937 C 0.57481 0.45735 0.91365 0.0
C938 C 0.58631 0.47123 0.92102 0.0
C939 C 0.63795 0.53356 0.97193 0.0
O940 O 0.65036 0.55462 0.92154 0.0
O941 O 0.63918 0.53409 0.89133 0.0
O942 O 0.63097 0.57468 0.93732 0.0
O943 O 0.64108 0.56857 0.9743 0.0
O944 O 0.63188 0.55863 0.88469 0.0
O945 O 0.61337 0.53986 0.90004 0.0
O946 O 0.5985 0.52141 0.94397 0.0
O947 O 0.60753 0.5453 0.95719 0.0
O948 O 0.60834 0.50095 0.93448 0.0
O949 O 0.61039 0.50707 0.88487 0.0
O950 O 0.63765 0.52497 0.95002 0.0
O951 O 0.62771 0.53607 0.96648 0.0
H952 H 0.66067 0.59287 1.00494 0.0
H953 H 0.68527 0.61289 0.99697 0.0
H954 H 0.67562 0.61494 0.8984 0.0
H955 H 0.6513 0.59443 0.90605 0.0
H956 H 0.58873 0.48798 0.8509 0.0
H957 H 0.5687 0.46385 0.83798 0.0
H958 H 0.57116 0.449 0.9316 0.0
H959 H 0.59137 0.47296 0.94404 0.0
Ho960 Ho 0.60805 0.8574 0.7563 0.0
Ho961 Ho 0.62691 0.88716 0.77394 0.0
C962 C 0.63784 0.86518 0.79261 0.0
C963 C 0.59416 0.83023 0.73896 0.0
C964 C 0.59413 0.81637 0.73253 0.0
C965 C 0.59915 0.81383 0.70379 0.0
C966 C 0.59689 0.79995 0.69631 0.0
C967 C 0.58939 0.7881 0.71716 0.0
C968 C 0.58468 0.79082 0.7462 0.0
C969 C 0.58702 0.80468 0.75371 0.0
C970 C 0.5985 0.86654 0.80758 0.0
C971 C 0.59808 0.87985 0.7362 0.0
C972 C 0.64116 0.9121 0.80043 0.0
C973 C 0.64078 0.92547 0.79487 0.0
C974 C 0.63616 0.93107 0.81934 0.0
C975 C 0.63372 0.94254 0.81358 0.0
C976 C 0.63606 0.94874 0.78332 0.0
C977 C 0.6409 0.94326 0.75891 0.0
C978 C 0.64315 0.93164 0.76456 0.0
C979 C 0.63232 0.88291 0.71307 0.0
O980 O 0.62601 0.85497 0.77874 0.0
O981 O 0.64047 0.8786 0.79431 0.0
O982 O 0.59542 0.83459 0.76825 0.0
O983 O 0.60037 0.84109 0.71903 0.0
O984 O 0.59037 0.85868 0.78461 0.0
O985 O 0.6112 0.86894 0.80227 0.0
O986 O 0.60714 0.88808 0.75845 0.0
O987 O 0.59839 0.8682 0.72633 0.0
O988 O 0.64666 0.90785 0.77804 0.0
O989 O 0.6291 0.90154 0.8119 0.0
O990 O 0.63003 0.89313 0.72286 0.0
O991 O 0.62979 0.87409 0.73595 0.0
H992 H 0.60452 0.82248 0.68667 0.0
H993 H 0.60096 0.79852 0.67396 0.0
H994 H 0.57865 0.78212 0.76283 0.0
H995 H 0.58272 0.8061 0.77578 0.0
H996 H 0.634 0.92625 0.8427 0.0
H997 H 0.6298 0.94641 0.83274 0.0
H998 H 0.64306 0.948 0.73549 0.0
H999 H 0.64648 0.92737 0.74509 0.0
Ho1000 Ho 0.18634 0.75801 0.75598 0.0
Ho1001 Ho 0.15614 0.74711 0.77158 0.0
C1002 C 0.17817 0.77986 0.79182 0.0
C1003 C 0.21363 0.77132 0.73938 0.0
C1004 C 0.22743 0.78519 0.73287 0.0
C1005 C 0.23009 0.79238 0.70358 0.0
C1006 C 0.24396 0.80402 0.6961 0.0
C1007 C 0.25566 0.80876 0.71751 0.0
C1008 C 0.25282 0.80174 0.74709 0.0
C1009 C 0.23897 0.79019 0.75459 0.0
C1010 C 0.17642 0.73881 0.80622 0.0
C1011 C 0.16383 0.72573 0.7347 0.0
C1012 C 0.13092 0.73652 0.79702 0.0
C1013 C 0.11783 0.72239 0.79288 0.0
C1014 C 0.11253 0.71289 0.8187 0.0
C1015 C 0.10128 0.69873 0.81463 0.0
C1016 C 0.09498 0.6939 0.78471 0.0
C1017 C 0.1002 0.70348 0.7589 0.0
C1018 C 0.1116 0.71759 0.76289 0.0
C1019 C 0.16191 0.75787 0.71148 0.0
O1020 O 0.18857 0.77819 0.77904 0.0
O1021 O 0.16462 0.76921 0.79216 0.0
O1022 O 0.20912 0.76832 0.76863 0.0
O1023 O 0.20286 0.76652 0.71914 0.0
O1024 O 0.18485 0.73895 0.78404 0.0
O1025 O 0.17398 0.74909 0.80093 0.0
O1026 O 0.15526 0.72648 0.75624 0.0
O1027 O 0.17569 0.73771 0.72554 0.0
O1028 O 0.13503 0.74546 0.77305 0.0
O1029 O 0.14169 0.73587 0.81021 0.0
O1030 O 0.15118 0.74533 0.71968 0.0
O1031 O 0.17009 0.76353 0.7355 0.0
H1032 H 0.22156 0.78877 0.68604 0.0
H1033 H 0.2455 0.8092 0.67329 0.0
H1034 H 0.26143 0.80475 0.76418 0.0
H1035 H 0.23745 0.78476 0.77711 0.0
H1036 H 0.11739 0.71632 0.84188 0.0
H1037 H 0.0976 0.69153 0.83485 0.0
H1038 H 0.09538 0.70014 0.73568 0.0
H1039 H 0.11564 0.72463 0.74243 0.0
Ho1040 Ho 0.28544 0.43475 0.75673 0.0
Ho1041 Ho 0.29633 0.41533 0.77064 0.0
C1042 C 0.26364 0.40469 0.79202 0.0
C1043 C 0.27218 0.44883 0.74065 0.0
C1044 C 0.25835 0.44884 0.734 0.0
C1045 C 0.2513 0.44452 0.70455 0.0
C1046 C 0.23973 0.44686 0.69694 0.0
C1047 C 0.23494 0.45375 0.71839 0.0
C1048 C 0.24181 0.45771 0.74814 0.0
C1049 C 0.25329 0.4553 0.75577 0.0
C1050 C 0.30483 0.44376 0.8066 0.0
C1051 C 0.31768 0.44463 0.73468 0.0
C1052 C 0.30685 0.40028 0.79431 0.0
C1053 C 0.32106 0.40145 0.78978 0.0
C1054 C 0.33095 0.40632 0.81496 0.0
C1055 C 0.34515 0.40938 0.81028 0.0
C1056 C 0.34964 0.40741 0.78042 0.0
C1057 C 0.33968 0.40234 0.75528 0.0
C1058 C 0.32551 0.39946 0.75986 0.0
C1059 C 0.28535 0.41082 0.71082 0.0
O1060 O 0.26537 0.41693 0.78012 0.0
O1061 O 0.2742 0.40164 0.79132 0.0
O1062 O 0.275 0.44704 0.76986 0.0
O1063 O 0.27709 0.44307 0.7202 0.0
O1064 O 0.30437 0.45216 0.78511 0.0
O1065 O 0.29463 0.43103 0.80108 0.0
O1066 O 0.31699 0.43512 0.75562 0.0
O1067 O 0.3057 0.44465 0.72616 0.0
O1068 O 0.29799 0.39588 0.77021 0.0
O1069 O 0.30737 0.41137 0.80859 0.0
O1070 O 0.29799 0.4127 0.71847 0.0
O1071 O 0.27976 0.41314 0.73526 0.0
H1072 H 0.25496 0.43966 0.68699 0.0
H1073 H 0.23465 0.44338 0.674 0.0
H1074 H 0.23874 0.46325 0.76526 0.0
H1075 H 0.25862 0.45905 0.77842 0.0
H1076 H 0.32779 0.40815 0.83809 0.0
H1077 H 0.35264 0.41342 0.82998 0.0
H1078 H 0.34277 0.40045 0.73215 0.0
H1079 H 0.31817 0.3959 0.73988 0.0
Ho1080 Ho 0.53396 0.93211 0.10932 0.0
Ho1081 Ho 0.56411 0.9516 0.09531 0.0
C1082 C 0.54197 0.96215 0.0743 0.0
C1083 C 0.5067 0.91766 0.12569 0.0
C1084 C 0.49241 0.91665 0.13172 0.0
C1085 C 0.49082 0.92726 0.14815 0.0
C1086 C 0.47688 0.92507 0.15516 0.0
C1087 C 0.46416 0.91214 0.14623 0.0
C1088 C 0.46599 0.90168 0.12963 0.0
C1089 C 0.47983 0.90396 0.12236 0.0
C1090 C 0.54441 0.923 0.05981 0.0
C1091 C 0.55658 0.92245 0.13098 0.0
C1092 C 0.58941 0.96685 0.07058 0.0
C1093 C 0.60179 0.96443 0.07047 0.0
C1094 C 0.60009 0.95098 0.06113 0.0
C1095 C 0.61161 0.94833 0.06397 0.0
C1096 C 0.62484 0.95898 0.07663 0.0
C1097 C 0.62655 0.97243 0.08578 0.0
C1098 C 0.6151 0.97514 0.08261 0.0
C1099 C 0.55765 0.95627 0.15497 0.0
O1100 O 0.53144 0.94952 0.0845 0.0
O1101 O 0.55568 0.96564 0.07682 0.0
O1102 O 0.51122 0.91903 0.0965 0.0
O1103 O 0.51736 0.9244 0.1459 0.0
O1104 O 0.53577 0.91466 0.08166 0.0
O1105 O 0.54676 0.93569 0.06497 0.0
O1106 O 0.5652 0.93185 0.10964 0.0
O1107 O 0.54463 0.92247 0.13988 0.0
O1108 O 0.58601 0.96974 0.09818 0.0
O1109 O 0.57807 0.95756 0.05454 0.0
O1110 O 0.56841 0.95436 0.14745 0.0
O1111 O 0.54972 0.95386 0.13052 0.0
H1112 H 0.50032 0.93716 0.15578 0.0
H1113 H 0.47612 0.93356 0.16751 0.0
H1114 H 0.45674 0.89143 0.12285 0.0
H1115 H 0.48071 0.89553 0.10996 0.0
H1116 H 0.58982 0.9424 0.0522 0.0
H1117 H 0.61009 0.93788 0.05692 0.0
H1118 H 0.63678 0.98085 0.09527 0.0
H1119 H 0.61653 0.98549 0.09024 0.0
Ho1120 Ho 0.11172 0.6091 0.10895 0.0
Ho1121 Ho 0.09294 0.61996 0.09028 0.0
C1122 C 0.08181 0.58683 0.07341 0.0
C1123 C 0.12585 0.59618 0.12716 0.0
C1124 C 0.1264 0.58296 0.13673 0.0
C1125 C 0.13651 0.5844 0.15987 0.0
C1126 C 0.13898 0.57293 0.1669 0.0
C1127 C 0.13136 0.55956 0.15106 0.0
C1128 C 0.12085 0.55793 0.12849 0.0
C1129 C 0.11847 0.56953 0.12123 0.0
C1130 C 0.12146 0.62756 0.05718 0.0
C1131 C 0.1217 0.64161 0.12794 0.0
C1132 C 0.07872 0.63058 0.06301 0.0
C1133 C 0.07914 0.64437 0.06799 0.0
C1134 C 0.08328 0.6542 0.04282 0.0
C1135 C 0.0858 0.66818 0.04785 0.0
C1136 C 0.08403 0.67249 0.0781 0.0
C1137 C 0.07969 0.66255 0.10325 0.0
C1138 C 0.07737 0.64863 0.0983 0.0
C1139 C 0.08735 0.61057 0.15143 0.0
O1140 O 0.09339 0.5884 0.08853 0.0
O1141 O 0.0795 0.59779 0.06999 0.0
O1142 O 0.12311 0.59756 0.09763 0.0
O1143 O 0.12071 0.602 0.14685 0.0
O1144 O 0.12951 0.6278 0.08032 0.0
O1145 O 0.10874 0.61734 0.0625 0.0
O1146 O 0.11271 0.6407 0.10536 0.0
O1147 O 0.12127 0.62966 0.13844 0.0
O1148 O 0.0732 0.62098 0.08569 0.0
O1149 O 0.09077 0.63195 0.05177 0.0
O1150 O 0.08968 0.62303 0.14115 0.0
O1151 O 0.08996 0.60419 0.12894 0.0
H1152 H 0.14288 0.59464 0.17201 0.0
H1153 H 0.14698 0.57459 0.18473 0.0
H1154 H 0.11481 0.54784 0.11565 0.0
H1155 H 0.1107 0.56809 0.10301 0.0
H1156 H 0.085 0.65119 0.01944 0.0
H1157 H 0.08933 0.67566 0.02813 0.0
H1158 H 0.07799 0.66549 0.12671 0.0
H1159 H 0.07445 0.64133 0.11829 0.0
Ho1160 Ho 0.43471 0.50951 0.11006 0.0
Ho1161 Ho 0.42484 0.47974 0.09502 0.0
C1162 C 0.45579 0.50158 0.06998 0.0
C1163 C 0.44827 0.5369 0.12593 0.0
C1164 C 0.46203 0.55056 0.13401 0.0
C1165 C 0.46433 0.55588 0.16514 0.0
C1166 C 0.47579 0.56981 0.17248 0.0
C1167 C 0.48531 0.579 0.14888 0.0
C1168 C 0.48327 0.57347 0.11782 0.0
C1169 C 0.4718 0.5595 0.11049 0.0
C1170 C 0.41552 0.49927 0.05974 0.0
C1171 C 0.4029 0.48778 0.13252 0.0
C1172 C 0.4103 0.45273 0.08033 0.0
C1173 C 0.39466 0.44217 0.08089 0.0
C1174 C 0.38597 0.44014 0.0542 0.0
C1175 C 0.3712 0.42996 0.05485 0.0
C1176 C 0.3649 0.42168 0.08215 0.0
C1177 C 0.37351 0.42402 0.10909 0.0
C1178 C 0.38825 0.43413 0.10844 0.0
C1179 C 0.44406 0.48853 0.14379 0.0
O1180 O 0.45508 0.51046 0.09079 0.0
O1181 O 0.44419 0.48908 0.06341 0.0
O1182 O 0.44599 0.53227 0.09676 0.0
O1183 O 0.44274 0.52625 0.14634 0.0
O1184 O 0.41594 0.50815 0.08113 0.0
O1185 O 0.42589 0.49692 0.06502 0.0
O1186 O 0.4043 0.47854 0.11409 0.0
O1187 O 0.41422 0.50059 0.13861 0.0
O1188 O 0.4164 0.45738 0.10786 0.0
O1189 O 0.41468 0.46312 0.0594 0.0
O1190 O 0.44393 0.48106 0.11968 0.0
O1191 O 0.43392 0.49166 0.14069 0.0
H1192 H 0.45694 0.54944 0.18381 0.0
H1193 H 0.47704 0.57341 0.19678 0.0
H1194 H 0.49018 0.58014 0.09878 0.0
H1195 H 0.47029 0.55593 0.08613 0.0
H1196 H 0.39061 0.44625 0.03269 0.0
H1197 H 0.36476 0.42831 0.03378 0.0
H1198 H 0.369 0.41756 0.13023 0.0
H1199 H 0.39464 0.43544 0.1294 0.0
Ho1200 Ho 0.09333 0.47995 0.59245 0.0
Ho1201 Ho 0.11239 0.5101 0.60804 0.0
C1202 C 0.12243 0.48781 0.62954 0.0
C1203 C 0.07864 0.45453 0.56812 0.0
C1204 C 0.0788 0.44107 0.57458 0.0
C1205 C 0.0849 0.436 0.55211 0.0
C1206 C 0.08688 0.42433 0.5591 0.0
C1207 C 0.08256 0.41736 0.58853 0.0
C1208 C 0.07619 0.42225 0.61082 0.0
C1209 C 0.07439 0.43407 0.60398 0.0
C1210 C 0.08832 0.48535 0.65273 0.0
C1211 C 0.08249 0.5019 0.57194 0.0
C1212 C 0.1265 0.53733 0.62448 0.0
C1213 C 0.12743 0.55157 0.63073 0.0
C1214 C 0.11713 0.55312 0.64858 0.0
C1215 C 0.11931 0.56704 0.65573 0.0
C1216 C 0.13194 0.57978 0.64555 0.0
C1217 C 0.1421 0.57798 0.62755 0.0
C1218 C 0.13981 0.56416 0.62013 0.0
C1219 C 0.12167 0.50032 0.55751 0.0
O1220 O 0.11315 0.47921 0.60804 0.0
O1221 O 0.12231 0.49968 0.63842 0.0
O1222 O 0.07344 0.45926 0.59017 0.0
O1223 O 0.09064 0.46482 0.55585 0.0
O1224 O 0.0904 0.47484 0.64411 0.0
O1225 O 0.09077 0.4937 0.62904 0.0
O1226 O 0.09438 0.51227 0.58526 0.0
O1227 O 0.07981 0.48843 0.57107 0.0
O1228 O 0.12509 0.53286 0.59527 0.0
O1229 O 0.11996 0.52664 0.64471 0.0
O1230 O 0.12996 0.50878 0.57961 0.0
O1231 O 0.10893 0.49781 0.56296 0.0
H1232 H 0.08854 0.44135 0.52942 0.0
H1233 H 0.09199 0.42092 0.54161 0.0
H1234 H 0.0725 0.41691 0.63348 0.0
H1235 H 0.06976 0.43781 0.62191 0.0
H1236 H 0.10747 0.54362 0.65722 0.0
H1237 H 0.11103 0.56774 0.66919 0.0
H1238 H 0.15214 0.58723 0.61974 0.0
H1239 H 0.14803 0.56333 0.60663 0.0
Ho1240 Ho 0.56358 0.62091 0.58703 0.0
Ho1241 Ho 0.53284 0.60926 0.60794 0.0
C1242 C 0.55561 0.64146 0.62982 0.0
C1243 C 0.58631 0.63502 0.55249 0.0
C1244 C 0.59971 0.64893 0.55616 0.0
C1245 C 0.60141 0.66084 0.5385 0.0
C1246 C 0.61333 0.6745 0.54346 0.0
C1247 C 0.62393 0.67644 0.56572 0.0
C1248 C 0.62234 0.66445 0.58308 0.0
C1249 C 0.61027 0.6508 0.57848 0.0
C1250 C 0.56255 0.60891 0.64419 0.0
C1251 C 0.5417 0.58772 0.57228 0.0
C1252 C 0.50563 0.59558 0.62501 0.0
C1253 C 0.49188 0.5817 0.6316 0.0
C1254 C 0.48912 0.57478 0.66122 0.0
C1255 C 0.47523 0.5632 0.66875 0.0
C1256 C 0.46365 0.55828 0.64698 0.0
C1257 C 0.46661 0.56495 0.61703 0.0
C1258 C 0.48046 0.57647 0.60953 0.0
C1259 C 0.5416 0.62727 0.55594 0.0
O1260 O 0.56486 0.64065 0.61015 0.0
O1261 O 0.54293 0.6299 0.63657 0.0
O1262 O 0.5844 0.62432 0.57091 0.0
O1263 O 0.5747 0.63615 0.54993 0.0
O1264 O 0.57409 0.61642 0.6274 0.0
O1265 O 0.55158 0.60891 0.63132 0.0
O1266 O 0.53217 0.58885 0.59039 0.0
O1267 O 0.55425 0.5991 0.56491 0.0
O1268 O 0.51003 0.59858 0.59571 0.0
O1269 O 0.51646 0.60046 0.6451 0.0
O1270 O 0.53389 0.62784 0.57893 0.0
O1271 O 0.54406 0.61703 0.56191 0.0
H1272 H 0.59333 0.65965 0.52128 0.0
H1273 H 0.61419 0.68356 0.53001 0.0
H1274 H 0.63051 0.66558 0.59995 0.0
H1275 H 0.60918 0.64179 0.59252 0.0
H1276 H 0.49754 0.57862 0.67904 0.0
H1277 H 0.47345 0.55851 0.69216 0.0
H1278 H 0.45817 0.56138 0.59931 0.0
H1279 H 0.48208 0.58164 0.58665 0.0
Ho1280 Ho 0.42356 0.95117 0.59349 0.0
Ho1281 Ho 0.4343 0.93186 0.60864 0.0
C1282 C 0.40211 0.92224 0.6307 0.0
C1283 C 0.41303 0.96589 0.56817 0.0
C1284 C 0.39896 0.965 0.57269 0.0
C1285 C 0.38927 0.96071 0.5472 0.0
C1286 C 0.37514 0.95787 0.55172 0.0
C1287 C 0.37052 0.95948 0.58176 0.0
C1288 C 0.38029 0.96396 0.60722 0.0
C1289 C 0.39438 0.9666 0.60279 0.0
C1290 C 0.43437 0.95615 0.65354 0.0
C1291 C 0.45628 0.96174 0.57283 0.0
C1292 C 0.44715 0.91743 0.62493 0.0
C1293 C 0.46049 0.91652 0.63105 0.0
C1294 C 0.47233 0.92682 0.64885 0.0
C1295 C 0.48409 0.92464 0.65602 0.0
C1296 C 0.48422 0.91202 0.64591 0.0
C1297 C 0.47228 0.90188 0.62791 0.0
C1298 C 0.46073 0.90416 0.62047 0.0
C1299 C 0.41499 0.92277 0.55853 0.0
O1300 O 0.40284 0.93161 0.60933 0.0
O1301 O 0.41408 0.9222 0.63935 0.0
O1302 O 0.42212 0.97073 0.59187 0.0
O1303 O 0.4122 0.95441 0.55509 0.0
O1304 O 0.42182 0.95437 0.64538 0.0
O1305 O 0.44 0.95359 0.62952 0.0
O1306 O 0.45451 0.94957 0.58525 0.0
O1307 O 0.4457 0.96476 0.57294 0.0
O1308 O 0.44406 0.91889 0.59574 0.0
O1309 O 0.44311 0.92404 0.6452 0.0
O1310 O 0.41499 0.91448 0.58086 0.0
O1311 O 0.42543 0.9354 0.5637 0.0
H1312 H 0.39253 0.95914 0.52395 0.0
H1313 H 0.36778 0.95426 0.53176 0.0
H1314 H 0.37712 0.96556 0.63052 0.0
H1315 H 0.40157 0.96967 0.62301 0.0
H1316 H 0.47246 0.93646 0.65745 0.0
H1317 H 0.49306 0.9329 0.66948 0.0
H1318 H 0.47153 0.89185 0.62015 0.0
H1319 H 0.45168 0.89595 0.60701 0.0
Ho1320 Ho 0.15656 0.41644 0.26979 0.0
Ho1321 Ho 0.18638 0.43529 0.25471 0.0
C1322 C 0.16413 0.44561 0.23406 0.0
C1323 C 0.13131 0.40126 0.29492 0.0
C1324 C 0.11871 0.40336 0.29474 0.0
C1325 C 0.11971 0.41614 0.30682 0.0
C1326 C 0.10801 0.41851 0.30419 0.0
C1327 C 0.09525 0.40824 0.28917 0.0
C1328 C 0.09421 0.39544 0.27728 0.0
C1329 C 0.10586 0.393 0.28015 0.0
C1330 C 0.1617 0.4113 0.20954 0.0
C1331 C 0.17832 0.40525 0.28952 0.0
C1332 C 0.21363 0.44914 0.23779 0.0
C1333 C 0.22747 0.44907 0.23148 0.0
C1334 C 0.23028 0.44475 0.20213 0.0
C1335 C 0.24422 0.44707 0.1948 0.0
C1336 C 0.2558 0.4539 0.2165 0.0
C1337 C 0.25279 0.45778 0.2462 0.0
C1338 C 0.2389 0.45545 0.2535 0.0
C1339 C 0.17673 0.44481 0.30501 0.0
O1340 O 0.15547 0.43623 0.25541 0.0
O1341 O 0.17603 0.44552 0.22511 0.0
O1342 O 0.13473 0.39808 0.26768 0.0
O1343 O 0.14262 0.4109 0.31044 0.0
O1344 O 0.15172 0.41418 0.21823 0.0
O1345 O 0.17018 0.41367 0.23304 0.0
O1346 O 0.18887 0.41775 0.27888 0.0
O1347 O 0.16469 0.40204 0.28774 0.0
O1348 O 0.20918 0.44779 0.26703 0.0
O1349 O 0.20284 0.44305 0.21768 0.0
O1350 O 0.18525 0.45301 0.28284 0.0
O1351 O 0.17416 0.43206 0.29982 0.0
H1352 H 0.12957 0.42444 0.31787 0.0
H1353 H 0.10901 0.42846 0.31341 0.0
H1354 H 0.08435 0.38727 0.26601 0.0
H1355 H 0.10493 0.38314 0.27053 0.0
H1356 H 0.22186 0.44002 0.18434 0.0
H1357 H 0.24602 0.44402 0.17158 0.0
H1358 H 0.26123 0.4628 0.26388 0.0
H1359 H 0.23725 0.45912 0.27617 0.0
Ho1360 Ho 0.62704 0.74725 0.27094 0.0
Ho1361 Ho 0.60777 0.75806 0.25555 0.0
C1362 C 0.59813 0.72585 0.2336 0.0
C1363 C 0.64168 0.73685 0.29727 0.0
C1364 C 0.64029 0.72254 0.29451 0.0
C1365 C 0.63677 0.7138 0.32151 0.0
C1366 C 0.63339 0.69942 0.31894 0.0
C1367 C 0.63367 0.69363 0.28933 0.0
C1368 C 0.63735 0.70247 0.26231 0.0
C1369 C 0.64053 0.71678 0.26483 0.0
C1370 C 0.63215 0.75806 0.21092 0.0
C1371 C 0.63777 0.77998 0.29122 0.0
C1372 C 0.59373 0.77131 0.23898 0.0
C1373 C 0.59381 0.78519 0.23267 0.0
C1374 C 0.59795 0.7922 0.20313 0.0
C1375 C 0.59563 0.8038 0.19581 0.0
C1376 C 0.58901 0.80868 0.21772 0.0
C1377 C 0.58532 0.80193 0.2476 0.0
C1378 C 0.58763 0.79037 0.25488 0.0
C1379 C 0.59841 0.73865 0.30538 0.0
O1380 O 0.60753 0.72655 0.25491 0.0
O1381 O 0.59804 0.7378 0.22506 0.0
O1382 O 0.64631 0.74524 0.27238 0.0
O1383 O 0.63054 0.7367 0.31059 0.0
O1384 O 0.63037 0.74553 0.21914 0.0
O1385 O 0.62955 0.76369 0.23486 0.0
O1386 O 0.62549 0.77817 0.27927 0.0
O1387 O 0.64087 0.76947 0.29065 0.0
O1388 O 0.59516 0.7682 0.2682 0.0
O1389 O 0.59979 0.76663 0.21873 0.0
O1390 O 0.59018 0.73882 0.28309 0.0
O1391 O 0.6111 0.74903 0.3004 0.0
H1392 H 0.63623 0.71798 0.3445 0.0
H1393 H 0.63043 0.69281 0.34009 0.0
H1394 H 0.63794 0.69838 0.23925 0.0
H1395 H 0.64294 0.72322 0.24351 0.0
H1396 H 0.60253 0.78841 0.18519 0.0
H1397 H 0.59853 0.80854 0.17244 0.0
H1398 H 0.58046 0.80546 0.26544 0.0
H1399 H 0.58411 0.78515 0.27771 0.0
Ho1400 Ho 0.29618 0.88723 0.27067 0.0
Ho1401 Ho 0.28556 0.85734 0.2551 0.0
C1402 C 0.31796 0.87996 0.23466 0.0
C1403 C 0.30628 0.91226 0.29655 0.0
C1404 C 0.32097 0.9248 0.2959 0.0
C1405 C 0.333 0.92343 0.3047 0.0
C1406 C 0.34701 0.9351 0.30127 0.0
C1407 C 0.34917 0.94818 0.28858 0.0
C1408 C 0.33716 0.94958 0.27997 0.0
C1409 C 0.32314 0.93797 0.28371 0.0
C1410 C 0.28585 0.88182 0.21035 0.0
C1411 C 0.26337 0.86517 0.29017 0.0
C1412 C 0.27262 0.83016 0.23811 0.0
C1413 C 0.25913 0.81599 0.23217 0.0
C1414 C 0.24816 0.81435 0.21111 0.0
C1415 C 0.23643 0.80045 0.20395 0.0
C1416 C 0.23542 0.78777 0.21728 0.0
C1417 C 0.24645 0.78964 0.23859 0.0
C1418 C 0.25798 0.80346 0.24599 0.0
C1419 C 0.3047 0.86723 0.30554 0.0
O1420 O 0.31707 0.88832 0.25649 0.0
O1421 O 0.30603 0.86818 0.22506 0.0
O1422 O 0.29944 0.90897 0.26956 0.0
O1423 O 0.30478 0.9009 0.31166 0.0
O1424 O 0.29845 0.89231 0.21898 0.0
O1425 O 0.27991 0.87345 0.23403 0.0
O1426 O 0.26544 0.85473 0.27921 0.0
O1427 O 0.27368 0.87882 0.28876 0.0
O1428 O 0.27593 0.83456 0.26731 0.0
O1429 O 0.27663 0.84092 0.21814 0.0
O1430 O 0.30474 0.85899 0.28316 0.0
O1431 O 0.29431 0.8695 0.30025 0.0
H1432 H 0.33165 0.91329 0.31369 0.0
H1433 H 0.35616 0.93382 0.30791 0.0
H1434 H 0.33862 0.95968 0.27048 0.0
H1435 H 0.314 0.93916 0.27653 0.0
H1436 H 0.24873 0.82377 0.19987 0.0
H1437 H 0.22817 0.79973 0.18788 0.0
H1438 H 0.24654 0.78041 0.24901 0.0
H1439 H 0.26635 0.80432 0.26197 0.0
C1440 C 0.24008 0.09387 0.0549 0.0
C1441 C 0.25243 0.10608 0.04235 0.0
C1442 C 0.23666 0.0797 0.04681 0.0
C1443 C 0.24503 0.05872 0.98692 0.0
H1444 H 0.2267 0.02772 0.04841 0.0
C1445 C 0.23851 1.00205 0.96353 0.0
C1446 C 0.22597 0.98954 0.9743 0.0
C1447 C 0.24144 1.01598 0.97222 0.0
C1448 C 0.23166 0.03617 0.03072 0.0
H1449 H 0.27093 0.11256 1.01145 0.0
H1450 H 0.26513 0.08805 0.99767 0.0
H1451 H 0.23246 0.0522 0.06256 0.0
H1452 H 0.20665 0.98213 1.00298 0.0
H1453 H 0.21169 1.00642 0.01807 0.0
H1454 H 0.24431 0.04272 0.95516 0.0
C1455 C 0.25784 0.08938 1.01337 0.0
C1456 C 0.23499 0.05032 0.03887 0.0
C1457 C 0.26123 0.10356 0.02138 0.0
C1458 C 0.21649 0.99144 0.99439 0.0
C1459 C 0.21942 1.00544 1.00312 0.0
C1460 C 0.24175 0.04459 0.97883 0.0
C1461 C 0.24548 0.07715 0.0259 0.0
C1462 C 0.24179 0.0619 0.01716 0.0
C1463 C 0.23191 0.01798 0.99197 0.0
C1464 C 0.23507 0.03305 1.0006 0.0
H1465 H 0.2328 0.09522 0.0706 0.0
H1466 H 0.22689 0.07073 0.05661 0.0
H1467 H 0.24995 0.06711 0.96912 0.0
H1468 H 0.24613 1.00115 0.94803 0.0
H1469 H 0.25131 0.0252 0.96352 0.0
C1470 C 0.04092 0.24331 0.96238 0.0
C1471 C 0.05349 0.2435 0.97367 0.0
C1472 C 0.02702 0.23236 0.97135 0.0
C1473 C 1.00681 0.19506 1.00686 0.0
H1474 H 0.97621 0.20458 1.01539 0.0
C1475 C 0.9494 0.15339 0.05521 0.0
C1476 C 0.93715 0.15346 0.04258 0.0
C1477 C 0.96357 0.16422 0.04724 0.0
C1478 C 0.98452 0.20161 1.01276 0.0
H1479 H 0.06106 0.23204 1.00343 0.0
H1480 H 0.03681 0.2131 0.01975 0.0
H1481 H 1.00061 0.22344 1.00169 0.0
H1482 H 0.93057 0.16532 1.01137 0.0
H1483 H 0.9551 0.18386 0.99688 0.0
H1484 H 0.99066 0.1732 0.01811 0.0
C1485 C 0.0377 0.22137 1.0035 0.0
C1486 C 0.99864 0.21252 1.00482 0.0
C1487 C 0.05168 0.23235 0.99438 0.0
C1488 C 0.93961 0.16472 0.0215 0.0
C1489 C 0.95378 0.17554 1.01346 0.0
C1490 C 0.99267 0.18414 1.01488 0.0
C1491 C 1.02511 0.22118 0.99212 0.0
C1492 C 1.01005 0.20946 1.00154 0.0
C1493 C 0.96603 0.17551 0.02624 0.0
C1494 C 0.98124 0.1872 0.01785 0.0
H1495 H 0.04177 0.25157 0.94614 0.0
H1496 H 1.01775 0.23256 0.96137 0.0
H1497 H 1.01513 0.19211 1.00417 0.0
H1498 H 0.9481 0.14484 0.0711 0.0
H1499 H 0.9726 0.1638 0.05794 0.0
C1500 C 0.80092 0.80616 0.96158 0.0
C1501 C 0.79964 0.81741 0.97591 0.0
C1502 C 0.812 0.80334 0.97023 0.0
C1503 C 0.83813 0.80871 0.03429 0.0
H1504 H 0.85744 0.79921 0.96874 0.0
C1505 C 0.88707 0.80054 0.06387 0.0
C1506 C 0.89002 0.79141 0.04493 0.0
C1507 C 0.87627 0.80387 0.05556 0.0
C1508 C 0.85206 0.80156 0.98761 0.0
H1509 H 0.80924 0.83454 1.01081 0.0
H1510 H 0.82855 0.8295 0.02623 0.0
H1511 H 0.83858 0.80474 0.95462 0.0
H1512 H 0.88327 0.77848 1.00209 0.0
H1513 H 0.86394 0.78341 0.9889 0.0
H1514 H 0.85121 0.80514 0.06744 0.0
C1515 C 0.82086 0.8228 1.00829 0.0
C1516 C 0.84121 0.80485 0.97937 0.0
C1517 C 0.80978 0.82572 0.9994 0.0
C1518 C 0.8814 0.78542 0.01772 0.0
C1519 C 0.87038 0.78852 1.00973 0.0
C1520 C 0.84884 0.80522 0.04261 0.0
C1521 C 0.82219 0.8116 0.99365 0.0
C1522 C 0.83405 0.80846 1.00256 0.0
C1523 C 0.86767 0.79793 0.02833 0.0
C1524 C 0.85605 0.80158 0.01943 0.0
H1525 H 0.79342 0.79954 0.94326 0.0
H1526 H 0.81249 0.79452 0.95866 0.0
H1527 H 0.83277 0.81124 0.05291 0.0
H1528 H 0.89308 0.8052 0.08543 0.0
H1529 H 0.87488 0.81132 0.07051 0.0
C1530 C 1.00102 0.20677 0.53573 0.0
C1531 C 0.99875 0.2164 0.55442 0.0
C1532 C 1.01514 0.20995 0.52742 0.0
C1533 C 0.0539 0.24071 0.52453 0.0
H1534 H 0.06266 0.20963 0.51615 0.0
C1535 C 0.11328 0.25235 0.50918 0.0
C1536 C 0.1158 0.24325 0.48919 0.0
C1537 C 0.09909 0.24902 0.51708 0.0
C1538 C 0.06043 0.21848 0.51801 0.0
H1539 H 1.00984 0.23693 0.57928 0.0
H1540 H 0.0342 0.2423 0.56547 0.0
H1541 H 0.03811 0.20398 0.52953 0.0
H1542 H 0.10493 0.22318 0.46252 0.0
H1543 H 0.08039 0.21764 0.47548 0.0
H1544 H 0.07625 0.2552 0.51323 0.0
C1545 C 1.02513 0.23242 0.55641 0.0
C1546 C 0.04623 0.21522 0.5257 0.0
C1547 C 1.01104 0.22929 0.56453 0.0
C1548 C 0.10358 0.23065 0.47754 0.0
C1549 C 0.0894 0.22733 0.4854 0.0
C1550 C 0.0681 0.24397 0.51698 0.0
C1551 C 0.02748 0.22283 0.53768 0.0
C1552 C 0.04269 0.22627 0.52913 0.0
C1553 C 0.08688 0.23646 0.5053 0.0
C1554 C 0.07164 0.23293 0.51357 0.0
H1555 H 0.99188 0.19669 0.52762 0.0
H1556 H 1.01633 0.20231 0.51267 0.0
H1557 H 0.05172 0.24958 0.52624 0.0
H1558 H 0.1223 0.2622 0.51853 0.0
H1559 H 0.09772 0.25627 0.53278 0.0
C1560 C 0.81094 0.87817 0.47089 0.0
C1561 C 0.8009 0.88038 0.48835 0.0
C1562 C 0.81417 0.86731 0.47917 0.0
C1563 C 0.80926 0.84103 0.54499 0.0
H1564 H 0.82285 0.82468 0.48077 0.0
C1565 C 0.81451 0.79001 0.56845 0.0
C1566 C 0.8268 0.78979 0.55666 0.0
C1567 C 0.81154 0.80101 0.55988 0.0
C1568 C 0.81919 0.8292 0.49911 0.0
H1569 H 0.78623 0.87221 0.52846 0.0
H1570 H 0.79102 0.85279 0.54139 0.0
H1571 H 0.81686 0.84318 0.46632 0.0
H1572 H 0.8456 0.80123 0.52627 0.0
H1573 H 0.84029 0.82031 0.51089 0.0
H1574 H 0.8112 0.8266 0.57749 0.0
C1575 C 0.79692 0.85985 0.52187 0.0
C1576 C 0.81578 0.83996 0.49086 0.0
C1577 C 0.79391 0.87095 0.51398 0.0
C1578 C 0.83595 0.80089 0.53563 0.0
C1579 C 0.83289 0.81186 0.52678 0.0
C1580 C 0.81246 0.83011 0.55309 0.0
C1581 C 0.80723 0.85787 0.50481 0.0
C1582 C 0.81076 0.84615 0.51363 0.0
C1583 C 0.8207 0.81217 0.53902 0.0
C1584 C 0.81749 0.82401 0.53031 0.0
H1585 H 0.81641 0.88481 0.45051 0.0
H1586 H 0.82234 0.86653 0.46547 0.0
H1587 H 0.80582 0.84558 0.56365 0.0
H1588 H 0.80721 0.78178 0.58488 0.0
H1589 H 0.80196 0.80071 0.56955 0.0
C1590 C 0.17348 0.93728 0.46639 0.0
C1591 C 0.1638 0.92769 0.4893 0.0
C1592 C 0.18416 0.95151 0.47432 0.0
C1593 C 0.2041 0.97504 0.54374 0.0
H1594 H 0.21526 1.00628 0.48345 0.0
C1595 C 0.25395 0.03186 0.56646 0.0
C1596 C 0.25369 0.04434 0.55628 0.0
C1597 C 0.24296 0.01794 0.55784 0.0
C1598 C 0.21223 0.99776 0.5008 0.0
H1599 H 0.15792 0.92611 0.53886 0.0
H1600 H 0.17643 0.95066 0.5526 0.0
H1601 H 0.1962 0.98184 0.46993 0.0
H1602 H 0.2414 0.05171 0.52882 0.0
H1603 H 0.22211 0.02741 0.51398 0.0
H1604 H 0.21977 0.99096 0.57497 0.0
C1605 C 0.17595 0.94712 0.52844 0.0
C1606 C 0.20136 0.9836 0.49282 0.0
C1607 C 0.16526 0.9329 0.52049 0.0
C1608 C 0.24208 0.04241 0.53691 0.0
C1609 C 0.231 0.02841 0.52832 0.0
C1610 C 0.2149 0.98918 0.55175 0.0
C1611 C 0.1856 0.95671 0.50551 0.0
C1612 C 0.19713 0.97196 0.5141 0.0
C1613 C 0.2312 1.0159 0.53884 0.0
C1614 C 0.21926 1.00081 0.53037 0.0
H1615 H 0.17301 0.93377 0.44221 0.0
H1616 H 0.19146 0.95836 0.45596 0.0
H1617 H 0.20138 0.96647 0.56079 0.0
H1618 H 0.26266 0.0328 0.58141 0.0
H1619 H 0.2438 1.00875 0.56601 0.0
C1620 C 0.81397 0.03188 0.06601 0.0
C1621 C 0.82683 0.04435 0.05641 0.0
C1622 C 0.81108 0.01796 0.05746 0.0
C1623 C 0.8221 0.99781 1.00152 0.0
H1624 H 0.80109 0.96645 0.06105 0.0
C1625 C 0.80053 0.93734 0.96722 0.0
C1626 C 0.80043 0.92771 0.99031 0.0
C1627 C 0.80405 0.95157 0.97505 0.0
C1628 C 0.8071 0.97504 0.04414 0.0
H1629 H 0.84676 0.05172 0.02998 0.0
H1630 H 0.84181 0.02743 1.01525 0.0
H1631 H 0.8071 0.99094 0.07503 0.0
H1632 H 0.80432 0.92606 0.0401 0.0
H1633 H 0.81027 0.95061 0.05368 0.0
H1634 H 0.82245 0.9819 0.97101 0.0
C1635 C 0.83379 0.02843 0.0291 0.0
C1636 C 0.81039 0.98918 0.05202 0.0
C1637 C 0.83668 0.04243 0.03762 0.0
C1638 C 0.80393 0.93288 0.02159 0.0
C1639 C 0.80741 0.9471 0.02943 0.0
C1640 C 0.81885 0.98364 0.99367 0.0
C1641 C 0.82097 1.01592 0.03911 0.0
C1642 C 0.81786 1.00083 0.03079 0.0
C1643 C 0.80756 0.95673 1.00631 0.0
C1644 C 0.81123 0.97197 1.01479 0.0
H1645 H 0.80607 0.03281 0.08047 0.0
H1646 H 0.80095 1.00877 0.0652 0.0
H1647 H 0.82776 1.00634 0.9843 0.0
H1648 H 0.79769 0.93386 0.94296 0.0
H1649 H 0.80375 0.95844 0.95654 0.0
C1650 C 0.10729 0.88261 1.01317 0.0
C1651 C 0.11575 0.88028 0.99076 0.0
C1652 C 0.09305 0.87172 0.02041 0.0
C1653 C 0.06747 0.83161 1.01311 0.0
H1654 H 0.03847 0.8419 0.03599 0.0
C1655 C 1.01147 0.7889 0.06398 0.0
C1656 C 0.99903 0.7898 0.05645 0.0
C1657 C 1.02539 0.79988 0.0551 0.0
C1658 C 0.04634 0.83875 0.02935 0.0
H1659 H 0.11539 0.86428 0.95851 0.0
H1660 H 0.09058 0.84561 0.97025 0.0
H1661 H 0.06286 0.86085 0.02169 0.0
H1662 H 0.99171 0.80324 0.03357 0.0
H1663 H 1.01597 0.82232 0.01765 0.0
H1664 H 0.05088 0.80951 0.0199 0.0
C1665 C 0.09505 0.8558 0.98281 0.0
C1666 C 0.0605 0.84971 0.02154 0.0
C1667 C 0.10933 0.86667 0.97568 0.0
C1668 C 1.00098 0.80206 0.03959 0.0
C1669 C 1.01497 0.81312 0.03073 0.0
C1670 C 0.05332 0.82066 0.02079 0.0
C1671 C 0.08663 0.8581 1.00538 0.0
C1672 C 0.07136 0.84635 1.01337 0.0
C1673 C 0.02744 0.81222 0.03836 0.0
C1674 C 0.0425 0.82402 0.02922 0.0
H1675 H 0.1116 0.89295 0.02503 0.0
H1676 H 0.08714 0.874 0.03818 0.0
H1677 H 0.07543 0.82844 1.00742 0.0
H1678 H 1.01051 0.77973 0.07714 0.0
H1679 H 0.0346 0.79879 0.06205 0.0
C1680 C 0.25322 0.22888 0.06638 0.0
C1681 C 0.25308 0.21621 0.0562 0.0
C1682 C 0.24216 0.23174 0.05771 0.0
C1683 C 0.21191 0.22162 0.99997 0.0
H1684 H 0.19951 0.24026 0.06123 0.0
C1685 C 0.16258 0.23007 0.97606 0.0
C1686 C 0.16284 0.24254 0.9882 0.0
C1687 C 0.17335 0.22665 0.98415 0.0
C1688 C 0.20292 0.23524 0.04353 0.0
H1689 H 0.24096 0.19662 0.02862 0.0
H1690 H 0.22159 0.20157 1.01354 0.0
H1691 H 0.21832 0.23462 0.07521 0.0
H1692 H 0.17506 0.26123 0.01833 0.0
H1693 H 0.19381 0.25541 0.03212 0.0
H1694 H 0.19656 0.22232 0.9682 0.0
C1695 C 0.23042 0.20942 0.02802 0.0
C1696 C 0.21378 0.23196 0.05164 0.0
C1697 C 0.24154 0.20653 0.03674 0.0
C1698 C 0.17428 0.25145 1.00875 0.0
C1699 C 0.1851 0.24805 0.01675 0.0
C1700 C 0.20106 0.22494 0.99181 0.0
C1701 C 0.23049 0.22204 0.03857 0.0
C1702 C 0.21854 0.22516 0.02997 0.0
C1703 C 0.18483 0.23557 1.00464 0.0
C1704 C 0.19639 0.23188 1.0134 0.0
H1705 H 0.26187 0.23663 0.08138 0.0
H1706 H 0.24287 0.24171 0.06592 0.0
H1707 H 0.21533 0.21655 0.9824 0.0
H1708 H 0.15384 0.22272 0.96069 0.0
H1709 H 0.17246 0.21679 0.97471 0.0
C1710 C 0.04175 0.80534 0.46408 0.0
C1711 C 0.0543 0.81768 0.47533 0.0
C1712 C 0.02785 0.80245 0.47294 0.0
C1713 C 1.0076 0.81957 0.508 0.0
H1714 H 0.97708 0.77954 0.5169 0.0
C1715 C 0.95017 0.80386 0.5562 0.0
C1716 C 0.93795 0.79159 0.54347 0.0
C1717 C 0.96435 0.8072 0.54828 0.0
C1718 C 0.98537 0.7908 0.51416 0.0
H1719 H 0.06186 0.83671 0.50489 0.0
H1720 H 0.0376 0.83149 0.52106 0.0
H1721 H 1.00151 0.78504 0.5034 0.0
H1722 H 0.93143 0.77325 0.51216 0.0
H1723 H 0.95599 0.77924 0.4978 0.0
H1724 H 0.99139 0.82529 0.51898 0.0
C1725 C 0.03851 0.82411 0.50491 0.0
C1726 C 0.9995 0.79399 0.50635 0.0
C1727 C 0.05249 0.82705 0.49588 0.0
C1728 C 0.94045 0.78284 0.52236 0.0
C1729 C 0.95463 0.7862 0.51439 0.0
C1730 C 0.99345 0.81637 0.51592 0.0
C1731 C 1.02593 0.81173 0.49358 0.0
C1732 C 1.01088 0.80843 0.50293 0.0
C1733 C 0.96685 0.79842 0.52727 0.0
C1734 C 0.98206 0.80192 0.519 0.0
H1735 H 0.04259 0.79791 0.44794 0.0
H1736 H 1.01858 0.793 0.46299 0.0
H1737 H 1.0159 0.83082 0.50519 0.0
H1738 H 0.94882 0.81106 0.57211 0.0
H1739 H 0.97336 0.81662 0.55904 0.0
C1740 C 0.23996 0.1534 0.55563 0.0
C1741 C 0.25225 0.15347 0.54281 0.0
C1742 C 0.23661 0.16424 0.54786 0.0
C1743 C 0.253 0.2017 0.51382 0.0
H1744 H 0.21291 0.19227 0.50544 0.0
C1745 C 0.23843 0.24366 0.46445 0.0
C1746 C 0.22602 0.24382 0.47561 0.0
C1747 C 0.24134 0.23266 0.47322 0.0
C1748 C 0.22419 0.19521 0.50809 0.0
H1749 H 0.27062 0.16536 0.51147 0.0
H1750 H 0.26461 0.18394 0.49735 0.0
H1751 H 0.21847 0.17331 0.51901 0.0
H1752 H 0.2069 0.23222 0.50494 0.0
H1753 H 0.21214 0.21319 0.521 0.0
H1754 H 0.25877 0.22358 0.50314 0.0
C1755 C 0.25763 0.17559 0.51392 0.0
C1756 C 0.2274 0.18426 0.51588 0.0
C1757 C 0.261 0.16476 0.52175 0.0
C1758 C 0.21661 0.23257 0.49601 0.0
C1759 C 0.21957 0.22153 0.50497 0.0
C1760 C 0.2498 0.21265 0.50614 0.0
C1761 C 0.24539 0.17556 0.52689 0.0
C1762 C 0.24188 0.18729 0.51875 0.0
C1763 C 0.23202 0.22138 0.4937 0.0
C1764 C 0.23534 0.20962 0.50293 0.0
H1765 H 0.23275 0.14483 0.57151 0.0
H1766 H 0.22718 0.16382 0.55869 0.0
H1767 H 0.26428 0.20465 0.51639 0.0
H1768 H 0.24591 0.25199 0.44843 0.0
H1769 H 0.25085 0.2329 0.4633 0.0
C1770 C 0.89189 0.0979 0.51734 0.0
C1771 C 0.88961 0.10622 0.54015 0.0
C1772 C 0.88103 0.08365 0.51015 0.0
C1773 C 0.84095 0.05785 0.51822 0.0
H1774 H 0.85146 0.02911 0.49462 0.0
C1775 C 0.7984 1.00186 0.46717 0.0
C1776 C 0.79937 0.98949 0.47481 0.0
C1777 C 0.80933 1.01579 0.47604 0.0
C1778 C 0.84826 0.03691 0.50145 0.0
H1779 H 0.87371 0.10562 0.57316 0.0
H1780 H 0.85507 0.08081 0.5614 0.0
H1781 H 0.87037 0.05352 0.50878 0.0
H1782 H 0.81289 0.9823 0.49781 0.0
H1783 H 0.83191 1.00657 0.51362 0.0
H1784 H 0.81884 0.04118 0.51164 0.0
C1785 C 0.86521 0.08539 0.54854 0.0
C1786 C 0.85919 0.05108 0.50919 0.0
C1787 C 0.87606 0.09967 0.55566 0.0
C1788 C 0.81166 0.99151 0.49174 0.0
C1789 C 0.82267 1.0055 0.50053 0.0
C1790 C 0.83004 0.0437 0.51055 0.0
C1791 C 0.86747 0.07711 0.52559 0.0
C1792 C 0.85575 0.06184 0.51765 0.0
C1793 C 0.8217 0.01791 0.49281 0.0
C1794 C 0.83347 0.03297 0.50187 0.0
H1795 H 0.90218 0.10231 0.50513 0.0
H1796 H 0.88327 0.07784 0.49208 0.0
H1797 H 0.83773 0.06573 0.52415 0.0
H1798 H 0.7892 1.00084 0.45396 0.0
H1799 H 0.80818 0.02495 0.46907 0.0
C1800 C 0.92821 0.43697 0.35347 0.0
C1801 C 0.91954 0.43952 0.37477 0.0
C1802 C 0.92478 0.42278 0.34545 0.0
C1803 C 0.90209 0.38378 0.37133 0.0
H1804 H 0.91086 0.37607 0.28718 0.0
C1805 C 0.88329 0.32488 0.3266 0.0
C1806 C 0.89269 0.32298 0.30625 0.0
C1807 C 0.88628 0.33888 0.33545 0.0
C1808 C 0.90846 0.37798 0.31096 0.0
H1809 H 0.9001 0.42871 0.40361 0.0
H1810 H 0.8941 0.4042 0.38958 0.0
H1811 H 0.91657 0.40047 0.30122 0.0
H1812 H 0.91276 0.33456 0.27966 0.0
H1813 H 0.91803 0.35862 0.29534 0.0
H1814 H 0.89388 0.36119 0.38089 0.0
C1815 C 0.90381 0.41315 0.37954 0.0
C1816 C 0.91179 0.39211 0.31911 0.0
C1817 C 0.90727 0.42733 0.38764 0.0
C1818 C 0.90521 0.33547 0.29536 0.0
C1819 C 0.90819 0.3494 0.30416 0.0
C1820 C 0.89872 0.36962 0.36314 0.0
C1821 C 0.91249 0.41058 0.35829 0.0
C1822 C 0.90875 0.39532 0.3495 0.0
C1823 C 0.89874 0.3514 0.32416 0.0
C1824 C 0.90193 0.36647 0.33285 0.0
H1825 H 0.93785 0.44596 0.34329 0.0
H1826 H 0.93196 0.42142 0.32949 0.0
H1827 H 0.89972 0.38569 0.39514 0.0
H1828 H 0.87348 0.31557 0.33529 0.0
H1829 H 0.87862 0.33987 0.35061 0.0
C1830 C 0.71897 0.56522 0.32775 0.0
C1831 C 0.72094 0.57727 0.30996 0.0
C1832 C 0.70497 0.55424 0.33671 0.0
C1833 C 0.66627 0.54636 0.34329 0.0
H1834 H 0.65739 0.5064 0.3476 0.0
C1835 C 0.60693 0.49885 0.35845 0.0
C1836 C 0.60447 0.48691 0.37729 0.0
C1837 C 0.6211 0.50972 0.3505 0.0
C1838 C 0.65966 0.51751 0.34689 0.0
H1839 H 0.70943 0.58694 0.28752 0.0
H1840 H 0.68535 0.56794 0.30243 0.0
H1841 H 0.68187 0.52537 0.33403 0.0
H1842 H 0.6154 0.47712 0.40178 0.0
H1843 H 0.63991 0.49611 0.38874 0.0
H1844 H 0.64405 0.53849 0.35591 0.0
C1845 C 0.69455 0.56702 0.31031 0.0
C1846 C 0.67382 0.52847 0.3391 0.0
C1847 C 0.70849 0.57799 0.30155 0.0
C1848 C 0.61671 0.4862 0.3877 0.0
C1849 C 0.63087 0.49706 0.37977 0.0
C1850 C 0.65213 0.5354 0.35094 0.0
C1851 C 0.69248 0.55492 0.32804 0.0
C1852 C 0.67739 0.54312 0.33707 0.0
C1853 C 0.63333 0.50904 0.36108 0.0
C1854 C 0.64854 0.52077 0.35284 0.0
H1855 H 0.72823 0.56416 0.33449 0.0
H1856 H 0.70399 0.54526 0.35062 0.0
H1857 H 0.6685 0.55744 0.34273 0.0
H1858 H 0.59789 0.49994 0.35008 0.0
H1859 H 0.62242 0.51861 0.33573 0.0
C1860 C 0.46781 0.1399 0.2938 0.0
C1861 C 0.46655 0.15119 0.30803 0.0
C1862 C 0.47889 0.13707 0.30249 0.0
C1863 C 0.50488 0.14227 0.36659 0.0
H1864 H 0.52447 0.13316 0.30099 0.0
C1865 C 0.55356 0.13371 0.39669 0.0
C1866 C 0.55673 0.12485 0.37734 0.0
C1867 C 0.54281 0.13711 0.38834 0.0
C1868 C 0.51901 0.13539 0.31988 0.0
H1869 H 0.47617 0.16835 0.34285 0.0
H1870 H 0.49546 0.16327 0.3584 0.0
H1871 H 0.50563 0.13872 0.28686 0.0
H1872 H 0.55041 0.11248 0.3337 0.0
H1873 H 0.53114 0.11748 0.32047 0.0
H1874 H 0.5178 0.1385 0.39978 0.0
C1875 C 0.48776 0.15657 0.34046 0.0
C1876 C 0.50818 0.1387 0.31163 0.0
C1877 C 0.4767 0.15951 0.3315 0.0
C1878 C 0.54837 0.1192 0.34967 0.0
C1879 C 0.53738 0.12235 0.34165 0.0
C1880 C 0.51556 0.13873 0.37493 0.0
C1881 C 0.48908 0.14535 0.32589 0.0
C1882 C 0.50093 0.14219 0.33483 0.0
C1883 C 0.53446 0.1315 0.36067 0.0
C1884 C 0.52288 0.13522 0.35174 0.0
H1885 H 0.4603 0.13326 0.27552 0.0
H1886 H 0.47937 0.12824 0.29097 0.0
H1887 H 0.49945 0.14471 0.38521 0.0
H1888 H 0.55934 0.1381 0.4186 0.0
H1889 H 0.54127 0.14436 0.40364 0.0
C1890 C 0.77039 0.56336 0.80994 0.0
C1891 C 0.78256 0.57602 0.82153 0.0
C1892 C 0.75618 0.55997 0.81775 0.0
C1893 C 0.73479 0.57653 0.84926 0.0
H1894 H 0.70472 0.53652 0.86129 0.0
C1895 C 0.67832 0.56195 0.89915 0.0
C1896 C 0.66583 0.54931 0.88876 0.0
C1897 C 0.69226 0.56495 0.89032 0.0
C1898 C 0.71289 0.54776 0.85761 0.0
H1899 H 0.78894 0.59499 0.85075 0.0
H1900 H 0.76433 0.58891 0.86498 0.0
H1901 H 0.72929 0.54218 0.84784 0.0
H1902 H 0.65845 0.52986 0.86071 0.0
H1903 H 0.68277 0.53523 0.84462 0.0
H1904 H 0.71844 0.58214 0.85888 0.0
C1905 C 0.76575 0.58168 0.84932 0.0
C1906 C 0.72708 0.55103 0.84988 0.0
C1907 C 0.77997 0.58509 0.84145 0.0
C1908 C 0.66776 0.53976 0.86903 0.0
C1909 C 0.68178 0.54279 0.86006 0.0
C1910 C 0.72061 0.57326 0.85692 0.0
C1911 C 0.75358 0.56907 0.83754 0.0
C1912 C 0.73832 0.56549 0.84569 0.0
C1913 C 0.69429 0.55545 0.87059 0.0
C1914 C 0.7094 0.55883 0.86141 0.0
H1915 H 0.77179 0.55591 0.79499 0.0
H1916 H 0.74721 0.55024 0.80783 0.0
H1917 H 0.74294 0.58778 0.84564 0.0
H1918 H 0.67739 0.56955 0.9146 0.0
H1919 H 0.70148 0.57464 0.89961 0.0
C1920 C 0.48115 0.12324 0.90016 0.0
C1921 C 0.49368 0.12323 0.88939 0.0
C1922 C 0.47823 0.13423 0.89137 0.0
C1923 C 0.49551 0.17187 0.85792 0.0
H1924 H 0.45546 0.16217 0.84685 0.0
C1925 C 0.48002 0.21383 0.81026 0.0
C1926 C 0.46746 0.21348 0.82219 0.0
C1927 C 0.48337 0.20299 0.81803 0.0
C1928 C 0.46672 0.16519 0.85021 0.0
H1929 H 0.51302 0.13505 0.86077 0.0
H1930 H 0.50778 0.15409 0.84477 0.0
H1931 H 0.46099 0.14326 0.86018 0.0
H1932 H 0.4486 0.20111 0.85196 0.0
H1933 H 0.45459 0.18253 0.86614 0.0
H1934 H 0.5012 0.19383 0.84781 0.0
C1935 C 0.50025 0.14564 0.86046 0.0
C1936 C 0.46992 0.15426 0.85792 0.0
C1937 C 0.50321 0.1346 0.86939 0.0
C1938 C 0.45842 0.20192 0.84239 0.0
C1939 C 0.46179 0.19109 0.85024 0.0
C1940 C 0.49229 0.18282 0.85015 0.0
C1941 C 0.48768 0.14564 0.87132 0.0
C1942 C 0.48437 0.15739 0.8621 0.0
C1943 C 0.47431 0.1914 0.83814 0.0
C1944 C 0.47783 0.17969 0.84628 0.0
H1945 H 0.47358 0.1148 0.91586 0.0
H1946 H 0.46861 0.13388 0.90093 0.0
H1947 H 0.50676 0.17487 0.86134 0.0
H1948 H 0.48745 0.22261 0.79508 0.0
H1949 H 0.49302 0.20363 0.80786 0.0
C1950 C 0.83144 0.27385 0.80562 0.0
C1951 C 0.83007 0.26149 0.82122 0.0
C1952 C 0.84241 0.2879 0.81368 0.0
C1953 C 0.87059 0.30889 0.87647 0.0
H1954 H 0.88463 0.33934 0.81336 0.0
C1955 C 0.92122 0.36579 0.89818 0.0
C1956 C 0.92091 0.37812 0.88709 0.0
C1957 C 0.91026 0.35173 0.89007 0.0
C1958 C 0.88077 0.33103 0.83145 0.0
H1959 H 0.83984 0.25477 0.8577 0.0
H1960 H 0.85937 0.279 0.87028 0.0
H1961 H 0.86603 0.31489 0.79934 0.0
H1962 H 0.90854 0.38508 0.85859 0.0
H1963 H 0.88951 0.36061 0.84422 0.0
H1964 H 0.8857 0.3251 0.90828 0.0
C1965 C 0.8516 0.2779 0.85242 0.0
C1966 C 0.86996 0.31687 0.82343 0.0
C1967 C 0.84043 0.26381 0.84472 0.0
C1968 C 0.90929 0.37592 0.86737 0.0
C1969 C 0.89835 0.36182 0.85906 0.0
C1970 C 0.88154 0.32302 0.88435 0.0
C1971 C 0.85276 0.29027 0.83722 0.0
C1972 C 0.86458 0.30548 0.84579 0.0
C1973 C 0.8986 0.34948 0.87044 0.0
C1974 C 0.88681 0.33435 0.862 0.0
H1975 H 0.82405 0.27278 0.78688 0.0
H1976 H 0.84257 0.29692 0.80153 0.0
H1977 H 0.86671 0.30071 0.89481 0.0
H1978 H 0.92988 0.36695 0.91357 0.0
H1979 H 0.91101 0.3426 0.89905 0.0
C1980 C 0.45852 0.26385 0.34348 0.0
C1981 C 0.46756 0.26138 0.32313 0.0
C1982 C 0.46188 0.27801 0.35162 0.0
C1983 C 0.49241 0.31678 0.35173 0.0
H1984 H 0.46111 0.32502 0.36355 0.0
C1985 C 0.50338 0.37586 0.37201 0.0
C1986 C 0.49401 0.37773 0.3925 0.0
C1987 C 0.50036 0.36188 0.36289 0.0
C1988 C 0.47005 0.32297 0.36078 0.0
H1989 H 0.48756 0.27232 0.29608 0.0
H1990 H 0.4931 0.29678 0.30933 0.0
H1991 H 0.45555 0.30065 0.34968 0.0
H1992 H 0.47409 0.36609 0.41959 0.0
H1993 H 0.46899 0.34206 0.40425 0.0
H1994 H 0.5069 0.33914 0.36288 0.0
C1995 C 0.48346 0.28777 0.31941 0.0
C1996 C 0.46682 0.30886 0.35277 0.0
C1997 C 0.48012 0.27362 0.31136 0.0
C1998 C 0.48155 0.36521 0.40352 0.0
C1999 C 0.47855 0.3513 0.39451 0.0
C2000 C 0.49564 0.33092 0.35977 0.0
C2001 C 0.4744 0.29025 0.33968 0.0
C2002 C 0.47793 0.30546 0.34818 0.0
C2003 C 0.48787 0.34933 0.374 0.0
C2004 C 0.48451 0.33427 0.36458 0.0
H2005 H 0.44869 0.25483 0.35295 0.0
H2006 H 0.45468 0.27931 0.36764 0.0
H2007 H 0.50132 0.3147 0.34893 0.0
H2008 H 0.51313 0.38518 0.36317 0.0
H2009 H 0.50778 0.36095 0.34685 0.0
C2010 C 0.66756 0.13374 0.36674 0.0
C2011 C 0.66584 0.12343 0.38975 0.0
C2012 C 0.68152 0.14484 0.35775 0.0
C2013 C 0.71998 0.16493 0.38588 0.0
H2014 H 0.72926 0.17549 0.29791 0.0
C2015 C 0.77943 0.20537 0.34699 0.0
C2016 C 0.78195 0.21407 0.31993 0.0
C2017 C 0.76534 0.19432 0.35508 0.0
C2018 C 0.72693 0.17297 0.32273 0.0
H2019 H 0.67768 0.11695 0.4214 0.0
H2020 H 0.70169 0.13607 0.40587 0.0
H2021 H 0.7048 0.15702 0.31263 0.0
H2022 H 0.77102 0.21722 0.27981 0.0
H2023 H 0.74679 0.19901 0.29493 0.0
H2024 H 0.74187 0.18105 0.39635 0.0
C2025 C 0.69232 0.13569 0.39476 0.0
C2026 C 0.71278 0.16223 0.33115 0.0
C2027 C 0.67846 0.12458 0.40348 0.0
C2028 C 0.76978 0.21116 0.30125 0.0
C2029 C 0.75569 0.20035 0.30968 0.0
C2030 C 0.73407 0.17581 0.37756 0.0
C2031 C 0.69412 0.14604 0.37182 0.0
C2032 C 0.70909 0.15795 0.36283 0.0
C2033 C 0.75313 0.19166 0.33675 0.0
C2034 C 0.7379 0.18002 0.34576 0.0
H2035 H 0.65815 0.13331 0.35578 0.0
H2036 H 0.68241 0.15266 0.3402 0.0
H2037 H 0.71757 0.16213 0.41061 0.0
H2038 H 0.78829 0.20719 0.36243 0.0
H2039 H 0.76412 0.18783 0.37577 0.0
C2040 C 0.83843 0.58126 0.34865 0.0
C2041 C 0.83024 0.57574 0.32074 0.0
C2042 C 0.84943 0.57813 0.35678 0.0
C2043 C 0.87164 0.56226 0.32348 0.0
H2044 H 0.88084 0.56145 0.41175 0.0
C2045 C 0.91038 0.54143 0.36694 0.0
C2046 C 0.92033 0.54958 0.39088 0.0
C2047 C 0.89933 0.54436 0.35789 0.0
C2048 C 0.87849 0.5617 0.38693 0.0
H2049 H 0.8279 0.56275 0.27918 0.0
H2050 H 0.84599 0.55652 0.29429 0.0
H2051 H 0.862 0.56698 0.39741 0.0
H2052 H 0.92624 0.56719 0.42411 0.0
H2053 H 0.90718 0.5722 0.40847 0.0
H2054 H 0.88795 0.55655 0.31333 0.0
C2055 C 0.84431 0.56366 0.3097 0.0
C2056 C 0.86766 0.56499 0.37857 0.0
C2057 C 0.83357 0.56703 0.30126 0.0
C2058 C 0.91888 0.56069 0.40547 0.0
C2059 C 0.90782 0.56351 0.39668 0.0
C2060 C 0.88231 0.55874 0.3319 0.0
C2061 C 0.8525 0.56914 0.33762 0.0
C2062 C 0.86407 0.56545 0.34664 0.0
C2063 C 0.89783 0.55539 0.37281 0.0
C2064 C 0.886 0.55853 0.36375 0.0
H2065 H 0.83626 0.58785 0.36471 0.0
H2066 H 0.85554 0.5829 0.37816 0.0
H2067 H 0.86958 0.56273 0.29859 0.0
H2068 H 0.91107 0.53274 0.35529 0.0
H2069 H 0.89179 0.53779 0.33958 0.0
C2070 C 0.70834 0.13845 0.79775 0.0
C2071 C 0.72085 0.15102 0.80836 0.0
C2072 C 0.6944 0.13548 0.80655 0.0
C2073 C 0.67383 0.15266 0.83972 0.0
H2074 H 0.64368 0.11265 0.85121 0.0
C2075 C 0.61635 0.13715 0.88751 0.0
C2076 C 0.60414 0.12451 0.87593 0.0
C2077 C 0.63054 0.14051 0.87965 0.0
C2078 C 0.65186 0.1239 0.84772 0.0
H2079 H 0.72825 0.17038 0.83673 0.0
H2080 H 0.70393 0.16507 0.8527 0.0
H2081 H 0.66815 0.11824 0.8378 0.0
H2082 H 0.59771 0.10554 0.84667 0.0
H2083 H 0.62229 0.11157 0.83234 0.0
H2084 H 0.65747 0.15829 0.84976 0.0
C2085 C 0.70491 0.15754 0.83714 0.0
C2086 C 0.66602 0.12714 0.83997 0.0
C2087 C 0.71893 0.16054 0.82822 0.0
C2088 C 0.6067 0.11543 0.85597 0.0
C2089 C 0.62091 0.11881 0.84804 0.0
C2090 C 0.65964 0.14941 0.84752 0.0
C2091 C 0.69238 0.14493 0.82644 0.0
C2092 C 0.67727 0.14157 0.83565 0.0
C2093 C 0.63311 0.1314 0.8598 0.0
C2094 C 0.64837 0.13495 0.85156 0.0
H2095 H 0.70926 0.13088 0.78218 0.0
H2096 H 0.68517 0.12583 0.79711 0.0
H2097 H 0.68202 0.1639 0.83619 0.0
H2098 H 0.61497 0.14461 0.90248 0.0
H2099 H 0.63953 0.15022 0.88957 0.0
C2100 C 0.90546 0.57728 0.79661 0.0
C2101 C 0.89308 0.57745 0.80791 0.0
C2102 C 0.90838 0.56629 0.80538 0.0
C2103 C 0.8913 0.52889 0.84039 0.0
H2104 H 0.93141 0.5384 0.84893 0.0
C2105 C 0.90708 0.48705 0.88782 0.0
C2106 C 0.91945 0.48721 0.87519 0.0
C2107 C 0.90371 0.49789 0.88008 0.0
C2108 C 0.92013 0.53543 0.84628 0.0
H2109 H 0.87403 0.56591 0.83748 0.0
H2110 H 0.87929 0.54689 0.85349 0.0
H2111 H 0.92586 0.55729 0.83554 0.0
H2112 H 0.93794 0.49928 0.84427 0.0
H2113 H 0.93189 0.51781 0.83016 0.0
H2114 H 0.88561 0.50699 0.85131 0.0
C2115 C 0.88669 0.55521 0.83737 0.0
C2116 C 0.91691 0.54635 0.83853 0.0
C2117 C 0.88371 0.56624 0.82843 0.0
C2118 C 0.92826 0.49859 0.85438 0.0
C2119 C 0.92487 0.50941 0.84657 0.0
C2120 C 0.89453 0.51794 0.84823 0.0
C2121 C 0.8991 0.55505 0.82599 0.0
C2122 C 0.90244 0.5433 0.83525 0.0
C2123 C 0.91255 0.50929 0.85933 0.0
C2124 C 0.90901 0.521 0.85118 0.0
H2125 H 0.91289 0.58558 0.78049 0.0
H2126 H 0.91787 0.56651 0.79539 0.0
H2127 H 0.88003 0.52593 0.83769 0.0
H2128 H 0.89981 0.47841 0.90349 0.0
H2129 H 0.89422 0.49739 0.89077 0.0
C2130 C 0.54496 0.43655 0.85492 0.0
C2131 C 0.55655 0.43905 0.87508 0.0
C2132 C 0.53411 0.42237 0.84708 0.0
C2133 C 0.52581 0.3836 0.84732 0.0
H2134 H 0.48621 0.37539 0.83686 0.0
C2135 C 0.47752 0.32452 0.82845 0.0
C2136 C 0.46614 0.32264 0.80837 0.0
C2137 C 0.48856 0.33851 0.83726 0.0
C2138 C 0.49722 0.37744 0.83924 0.0
H2139 H 0.5657 0.42817 0.90209 0.0
H2140 H 0.5467 0.40368 0.88933 0.0
H2141 H 0.50514 0.39979 0.8501 0.0
H2142 H 0.45771 0.33425 0.78163 0.0
H2143 H 0.47679 0.35829 0.79639 0.0
H2144 H 0.51784 0.3612 0.83637 0.0
C2145 C 0.54604 0.41268 0.87918 0.0
C2146 C 0.50817 0.39156 0.84689 0.0
C2147 C 0.5569 0.42684 0.88695 0.0
C2148 C 0.46615 0.33514 0.79741 0.0
C2149 C 0.47714 0.34906 0.80609 0.0
C2150 C 0.51484 0.36945 0.83961 0.0
C2151 C 0.53442 0.41016 0.85913 0.0
C2152 C 0.52268 0.39494 0.851 0.0
C2153 C 0.48856 0.35104 0.82621 0.0
C2154 C 0.50034 0.36611 0.83529 0.0
H2155 H 0.54414 0.44555 0.8454 0.0
H2156 H 0.52554 0.42103 0.83122 0.0
H2157 H 0.53682 0.38569 0.84976 0.0
H2158 H 0.47798 0.3152 0.83721 0.0
H2159 H 0.49702 0.33946 0.85299 0.0
C2160 C 0.58515 0.76302 0.73173 0.0
C2161 C 0.58607 0.77296 0.70845 0.0
C2162 C 0.58163 0.7488 0.72376 0.0
C2163 C 0.58019 0.7258 0.65512 0.0
H2164 H 0.55724 0.69406 0.71249 0.0
C2165 C 0.57247 0.66849 0.63392 0.0
C2166 C 0.55914 0.65616 0.64177 0.0
C2167 C 0.57552 0.68247 0.64251 0.0
C2168 C 0.56355 0.70272 0.69595 0.0
H2169 H 0.58368 0.77516 0.65812 0.0
H2170 H 0.57778 0.75065 0.64434 0.0
H2171 H 0.56263 0.71852 0.72579 0.0
H2172 H 0.53853 0.64913 0.66512 0.0
H2173 H 0.54377 0.67347 0.67995 0.0
H2174 H 0.58079 0.71 0.62487 0.0
C2175 C 0.57996 0.7539 0.66887 0.0
C2176 C 0.56684 0.71689 0.70384 0.0
C2177 C 0.58342 0.7681 0.67685 0.0
C2178 C 0.54899 0.65828 0.6589 0.0
C2179 C 0.55203 0.67232 0.66748 0.0
C2180 C 0.57688 0.71165 0.64721 0.0
C2181 C 0.57897 0.74396 0.69218 0.0
C2182 C 0.57527 0.72871 0.68362 0.0
C2183 C 0.56532 0.6847 0.65919 0.0
C2184 C 0.56856 0.69984 0.66754 0.0
H2185 H 0.58733 0.76623 0.75627 0.0
H2186 H 0.58126 0.74168 0.74247 0.0
H2187 H 0.58683 0.73451 0.63894 0.0
H2188 H 0.58061 0.66742 0.62068 0.0
H2189 H 0.58598 0.69155 0.63611 0.0
C2190 C 0.27595 0.82228 0.6775 0.0
C2191 C 0.27081 0.82057 0.70882 0.0
C2192 C 0.29017 0.83303 0.66956 0.0
C2193 C 0.32677 0.85806 0.7051 0.0
H2194 H 0.33397 0.87723 0.62386 0.0
C2195 C 0.38555 0.89909 0.66094 0.0
C2196 C 0.38745 0.91086 0.64225 0.0
C2197 C 0.37155 0.88796 0.66949 0.0
C2198 C 0.33223 0.87215 0.64683 0.0
H2199 H 0.277 0.82939 0.75616 0.0
H2200 H 0.30159 0.84793 0.74242 0.0
H2201 H 0.30946 0.85873 0.63794 0.0
H2202 H 0.37586 0.9201 0.61838 0.0
H2203 H 0.3518 0.90116 0.63372 0.0
H2204 H 0.3495 0.87185 0.71435 0.0
C2205 C 0.29469 0.84078 0.72394 0.0
C2206 C 0.31809 0.86128 0.65477 0.0
C2207 C 0.28046 0.83006 0.73187 0.0
C2208 C 0.37494 0.91126 0.63278 0.0
C2209 C 0.36102 0.90022 0.64135 0.0
C2210 C 0.34093 0.86899 0.6972 0.0
C2211 C 0.29982 0.84247 0.69264 0.0
C2212 C 0.31507 0.85405 0.68408 0.0
C2213 C 0.35901 0.88828 0.65961 0.0
C2214 C 0.34392 0.87629 0.66797 0.0
H2215 H 0.26911 0.81509 0.65901 0.0
H2216 H 0.29366 0.83371 0.64528 0.0
H2217 H 0.32506 0.85269 0.72772 0.0
H2218 H 0.39487 0.89829 0.66847 0.0
H2219 H 0.37057 0.87894 0.68324 0.0
C2220 C 0.14546 0.49428 0.66022 0.0
C2221 C 0.13375 0.48449 0.64132 0.0
C2222 C 0.15652 0.49132 0.66905 0.0
C2223 C 0.1723 0.46783 0.64667 0.0
H2224 H 0.19127 0.47953 0.72815 0.0
C2225 C 0.22183 0.46097 0.67828 0.0
C2226 C 0.22325 0.45724 0.70955 0.0
C2227 C 0.2112 0.46458 0.6702 0.0
C2228 C 0.18603 0.47604 0.70537 0.0
H2229 H 0.12451 0.46372 0.61746 0.0
H2230 H 0.14332 0.45846 0.63326 0.0
H2231 H 0.17225 0.48503 0.7144 0.0
H2232 H 0.21407 0.45426 0.75663 0.0
H2233 H 0.1957 0.46055 0.74262 0.0
H2234 H 0.1857 0.45844 0.63797 0.0
C2235 C 0.14428 0.46862 0.64082 0.0
C2236 C 0.17519 0.4794 0.69726 0.0
C2237 C 0.13332 0.47159 0.63196 0.0
C2238 C 0.2136 0.45726 0.7324 0.0
C2239 C 0.20299 0.46091 0.72432 0.0
C2240 C 0.18307 0.46443 0.65481 0.0
C2241 C 0.15617 0.47847 0.65924 0.0
C2242 C 0.16808 0.47528 0.66782 0.0
C2243 C 0.20158 0.46464 0.69307 0.0
C2244 C 0.19012 0.46844 0.68433 0.0
H2245 H 0.14626 0.50439 0.6677 0.0
H2246 H 0.16551 0.49929 0.68297 0.0
H2247 H 0.16735 0.46464 0.62355 0.0
H2248 H 0.22916 0.46143 0.65998 0.0
H2249 H 0.21072 0.46761 0.64598 0.0
C2250 C 0.33457 0.87507 0.19991 0.0
C2251 C 0.3327 0.88325 0.22366 0.0
C2252 C 0.34858 0.87803 0.19101 0.0
C2253 C 0.38687 0.89583 0.22012 0.0
H2254 H 0.39659 0.89581 0.132 0.0
C2255 C 0.44646 0.91522 0.18181 0.0
C2256 C 0.44909 0.90932 0.15446 0.0
C2257 C 0.43235 0.91213 0.18982 0.0
C2258 C 0.39413 0.89565 0.15684 0.0
H2259 H 0.34432 0.90095 0.25672 0.0
H2260 H 0.36843 0.90605 0.24128 0.0
H2261 H 0.37206 0.88972 0.14655 0.0
H2262 H 0.43835 0.89569 0.11373 0.0
H2263 H 0.41404 0.88959 0.12867 0.0
H2264 H 0.4087 0.90137 0.23073 0.0
C2265 C 0.35914 0.8973 0.22954 0.0
C2266 C 0.37994 0.89217 0.16517 0.0
C2267 C 0.34522 0.89443 0.23821 0.0
C2268 C 0.43701 0.90028 0.13539 0.0
C2269 C 0.42289 0.89697 0.14372 0.0
C2270 C 0.40099 0.89911 0.21187 0.0
C2271 C 0.36108 0.88915 0.20587 0.0
C2272 C 0.3761 0.89232 0.19693 0.0
C2273 C 0.42023 0.90282 0.1711 0.0
C2274 C 0.40497 0.89918 0.18002 0.0
H2275 H 0.32523 0.86631 0.18832 0.0
H2276 H 0.34959 0.87142 0.17289 0.0
H2277 H 0.38433 0.89585 0.24489 0.0
H2278 H 0.45527 0.92208 0.19754 0.0
H2279 H 0.43103 0.91717 0.21077 0.0
C2280 C 0.12364 0.53306 0.16039 0.0
C2281 C 0.13472 0.54762 0.15776 0.0
C2282 C 0.12687 0.52207 0.16777 0.0
C2283 C 0.15751 0.51649 0.19753 0.0
H2284 H 0.13153 0.47695 0.171 0.0
C2285 C 0.17191 0.4703 0.21024 0.0
C2286 C 0.16089 0.45698 0.2223 0.0
C2287 C 0.16893 0.48135 0.20172 0.0
C2288 C 0.13889 0.48793 0.17875 0.0
H2289 H 0.15804 0.56181 0.15972 0.0
H2290 H 0.16372 0.54285 0.17122 0.0
H2291 H 0.12605 0.49588 0.15707 0.0
H2292 H 0.13804 0.44489 0.23438 0.0
H2293 H 0.1328 0.4639 0.21881 0.0
H2294 H 0.17055 0.50842 0.21835 0.0
C2295 C 0.15241 0.5398 0.16895 0.0
C2296 C 0.1357 0.49888 0.17092 0.0
C2297 C 0.14915 0.55078 0.16209 0.0
C2298 C 0.14679 0.45495 0.22504 0.0
C2299 C 0.14377 0.46587 0.21602 0.0
C2300 C 0.16083 0.50556 0.20484 0.0
C2301 C 0.14134 0.5252 0.17224 0.0
C2302 C 0.14489 0.5134 0.1803 0.0
C2303 C 0.15479 0.4793 0.20447 0.0
C2304 C 0.15153 0.49109 0.19575 0.0
H2305 H 0.11239 0.53017 0.15754 0.0
H2306 H 0.11789 0.51114 0.17056 0.0
H2307 H 0.16481 0.52732 0.20605 0.0
H2308 H 0.18293 0.47233 0.20813 0.0
H2309 H 0.17769 0.4915 0.1928 0.0
C2310 C 0.5744 0.70916 0.20542 0.0
C2311 C 0.58686 0.71123 0.22172 0.0
C2312 C 0.56342 0.69515 0.19658 0.0
C2313 C 0.55636 0.65708 0.18542 0.0
H2314 H 0.51594 0.6469 0.18867 0.0
C2315 C 0.51046 0.60099 0.14076 0.0
C2316 C 0.49698 0.59433 0.15652 0.0
C2317 C 0.52125 0.6153 0.14784 0.0
C2318 C 0.52715 0.64945 0.18785 0.0
H2319 H 0.59737 0.69998 0.24131 0.0
H2320 H 0.57845 0.67586 0.22619 0.0
H2321 H 0.53479 0.67135 0.20276 0.0
H2322 H 0.48445 0.59806 0.19199 0.0
H2323 H 0.50328 0.62256 0.20501 0.0
H2324 H 0.54878 0.63511 0.17156 0.0
C2325 C 0.57714 0.68498 0.21972 0.0
C2326 C 0.53804 0.66364 0.19555 0.0
C2327 C 0.58804 0.69891 0.22861 0.0
C2328 C 0.4947 0.60256 0.17957 0.0
C2329 C 0.5055 0.61683 0.18675 0.0
C2330 C 0.54549 0.64291 0.17784 0.0
C2331 C 0.56459 0.68279 0.20362 0.0
C2332 C 0.55286 0.66771 0.19458 0.0
C2333 C 0.519 0.62349 0.17104 0.0
C2334 C 0.53066 0.63879 0.17894 0.0
H2335 H 0.573 0.71832 0.19995 0.0
H2336 H 0.55405 0.69404 0.18401 0.0
H2337 H 0.56758 0.65971 0.18389 0.0
H2338 H 0.51281 0.59511 0.12307 0.0
H2339 H 0.53134 0.61996 0.13476 0.0
C2340 C 0.16882 0.70925 0.69963 0.0
C2341 C 0.16064 0.71105 0.72356 0.0
C2342 C 0.16591 0.69529 0.69063 0.0
C2343 C 0.14847 0.65706 0.7198 0.0
H2344 H 0.14792 0.64726 0.63157 0.0
C2345 C 0.12927 0.59751 0.68186 0.0
C2346 C 0.13478 0.59484 0.65392 0.0
C2347 C 0.13236 0.61161 0.68992 0.0
C2348 C 0.14825 0.64973 0.65644 0.0
H2349 H 0.14303 0.69932 0.75687 0.0
H2350 H 0.13807 0.67531 0.74133 0.0
H2351 H 0.154 0.67174 0.64618 0.0
H2352 H 0.14771 0.60551 0.61223 0.0
H2353 H 0.15386 0.62976 0.6272 0.0
H2354 H 0.14315 0.63532 0.73041 0.0
C2355 C 0.14675 0.68462 0.72947 0.0
C2356 C 0.15172 0.6639 0.6648 0.0
C2357 C 0.14954 0.69849 0.73821 0.0
C2358 C 0.14343 0.60687 0.63435 0.0
C2359 C 0.14676 0.62097 0.64272 0.0
C2360 C 0.14523 0.64297 0.71151 0.0
C2361 C 0.15488 0.68275 0.7056 0.0
C2362 C 0.15177 0.66777 0.6966 0.0
C2363 C 0.1413 0.62368 0.67067 0.0
C2364 C 0.14494 0.63894 0.67962 0.0
H2365 H 0.17751 0.71862 0.68795 0.0
H2366 H 0.1725 0.69434 0.67232 0.0
H2367 H 0.1486 0.65962 0.74459 0.0
H2368 H 0.12272 0.58877 0.69801 0.0
H2369 H 0.12759 0.61293 0.71133 0.0
C2370 C 0.43624 0.5471 0.64453 0.0
C2371 C 0.44849 0.54659 0.65563 0.0
C2372 C 0.42209 0.53623 0.65242 0.0
C2373 C 0.40105 0.49815 0.68295 0.0
H2374 H 0.37086 0.50786 0.69688 0.0
C2375 C 0.34486 0.45586 0.73306 0.0
C2376 C 0.33231 0.45605 0.72315 0.0
C2377 C 0.35875 0.46687 0.72423 0.0
C2378 C 0.37906 0.50485 0.69266 0.0
H2379 H 0.45512 0.53393 0.68404 0.0
H2380 H 0.43062 0.51527 0.69842 0.0
H2381 H 0.39534 0.52689 0.68335 0.0
H2382 H 0.32474 0.46825 0.69597 0.0
H2383 H 0.34896 0.48733 0.67989 0.0
H2384 H 0.38484 0.47614 0.69212 0.0
C2385 C 0.43191 0.52399 0.68309 0.0
C2386 C 0.3932 0.51585 0.68489 0.0
C2387 C 0.44607 0.53485 0.67514 0.0
C2388 C 0.3341 0.46763 0.7039 0.0
C2389 C 0.34806 0.47869 0.69494 0.0
C2390 C 0.38693 0.48717 0.69065 0.0
C2391 C 0.41966 0.52445 0.6718 0.0
C2392 C 0.40447 0.5127 0.68001 0.0
C2393 C 0.36065 0.47851 0.705 0.0
C2394 C 0.37568 0.49031 0.69582 0.0
H2395 H 0.43753 0.55602 0.62991 0.0
H2396 H 0.41304 0.537 0.6429 0.0
H2397 H 0.40924 0.49513 0.67879 0.0
H2398 H 0.34403 0.44724 0.74814 0.0
H2399 H 0.36803 0.46637 0.73315 0.0
C2400 C 0.58502 0.89405 0.73999 0.0
C2401 C 0.58665 0.88313 0.72498 0.0
C2402 C 0.57396 0.89689 0.73113 0.0
C2403 C 0.54875 0.89248 0.66578 0.0
H2404 H 0.52807 0.90025 0.73122 0.0
C2405 C 0.49992 0.90064 0.63475 0.0
C2406 C 0.49643 0.90918 0.65438 0.0
C2407 C 0.51069 0.89729 0.64324 0.0
C2408 C 0.53384 0.8984 0.7124 0.0
H2409 H 0.57771 0.86664 0.68861 0.0
H2410 H 0.55847 0.87173 0.6728 0.0
H2411 H 0.54693 0.89476 0.74565 0.0
H2412 H 0.50219 0.92102 0.6987 0.0
H2413 H 0.5215 0.91613 0.71225 0.0
H2414 H 0.53608 0.89653 0.63241 0.0
C2415 C 0.56586 0.87814 0.69147 0.0
C2416 C 0.54468 0.89513 0.72081 0.0
C2417 C 0.57689 0.87519 0.70057 0.0
C2418 C 0.50449 0.91456 0.68251 0.0
C2419 C 0.5155 0.91147 0.69069 0.0
C2420 C 0.53805 0.89596 0.65731 0.0
C2421 C 0.56417 0.88898 0.70679 0.0
C2422 C 0.55233 0.89213 0.69765 0.0
C2423 C 0.51874 0.90264 0.67137 0.0
C2424 C 0.53034 0.89899 0.68045 0.0
H2425 H 0.59221 0.90038 0.75901 0.0
H2426 H 0.57319 0.90543 0.74325 0.0
H2427 H 0.55449 0.89042 0.64721 0.0
H2428 H 0.49437 0.89646 0.61252 0.0
H2429 H 0.51249 0.89029 0.62768 0.0
C2430 C 0.28319 0.47026 0.2187 0.0
C2431 C 0.27099 0.45738 0.20803 0.0
C2432 C 0.29737 0.47357 0.21091 0.0
C2433 C 0.31883 0.45668 0.18187 0.0
H2434 H 0.34844 0.49649 0.16577 0.0
C2435 C 0.37576 0.47102 0.1343 0.0
C2436 C 0.38802 0.48417 0.14332 0.0
C2437 C 0.36168 0.46788 0.14244 0.0
C2438 C 0.34042 0.48532 0.17062 0.0
H2439 H 0.26452 0.43792 0.18051 0.0
H2440 H 0.28911 0.44381 0.16639 0.0
H2441 H 0.32388 0.49085 0.17899 0.0
H2442 H 0.39485 0.50435 0.16821 0.0
H2443 H 0.3704 0.49874 0.1832 0.0
H2444 H 0.33533 0.45112 0.17378 0.0
C2445 C 0.28772 0.4513 0.18126 0.0
C2446 C 0.32622 0.48206 0.1782 0.0
C2447 C 0.27352 0.44798 0.18908 0.0
C2448 C 0.38573 0.49406 0.16097 0.0
C2449 C 0.37162 0.49089 0.16929 0.0
C2450 C 0.33303 0.45994 0.17441 0.0
C2451 C 0.29991 0.46415 0.19208 0.0
C2452 C 0.31515 0.46767 0.18391 0.0
C2453 C 0.35931 0.47774 0.16008 0.0
C2454 C 0.34411 0.47432 0.16856 0.0
H2455 H 0.28182 0.47794 0.23289 0.0
H2456 H 0.30637 0.48348 0.22007 0.0
H2457 H 0.31078 0.4455 0.18661 0.0
H2458 H 0.37699 0.46316 0.1204 0.0
H2459 H 0.35263 0.45778 0.13421 0.0
C2460 C 0.57287 0.81998 0.22065 0.0
C2461 C 0.58556 0.82042 0.20927 0.0
C2462 C 0.56961 0.83088 0.21287 0.0
C2463 C 0.58657 0.86889 0.18168 0.0
H2464 H 0.54661 0.85929 0.1693 0.0
C2465 C 0.57239 0.91105 0.13168 0.0
C2466 C 0.55983 0.91103 0.14233 0.0
C2467 C 0.57529 0.90003 0.14042 0.0
C2468 C 0.55783 0.86226 0.17306 0.0
H2469 H 0.60473 0.833 0.18048 0.0
H2470 H 0.59887 0.85167 0.16624 0.0
H2471 H 0.55206 0.84025 0.18272 0.0
H2472 H 0.5404 0.89913 0.17065 0.0
H2473 H 0.54558 0.88004 0.18653 0.0
H2474 H 0.59237 0.89087 0.17207 0.0
C2475 C 0.59151 0.843 0.18173 0.0
C2476 C 0.56099 0.85126 0.18079 0.0
C2477 C 0.5948 0.83212 0.1896 0.0
C2478 C 0.55024 0.89961 0.16216 0.0
C2479 C 0.55316 0.88854 0.17101 0.0
C2480 C 0.58342 0.87987 0.17398 0.0
C2481 C 0.57887 0.84261 0.19329 0.0
C2482 C 0.57542 0.85437 0.18514 0.0
C2483 C 0.56576 0.88857 0.16026 0.0
C2484 C 0.569 0.87676 0.16938 0.0
H2485 H 0.56529 0.8111 0.2354 0.0
H2486 H 0.55986 0.83016 0.22263 0.0
H2487 H 0.5978 0.87189 0.18541 0.0
H2488 H 0.58 0.91952 0.1161 0.0
H2489 H 0.58493 0.9004 0.13099 0.0
C2490 C 0.21628 0.7697 0.17908 0.0
C2491 C 0.22327 0.77269 0.20873 0.0
C2492 C 0.2053 0.7556 0.17098 0.0
C2493 C 0.18091 0.71816 0.20616 0.0
H2494 H 0.17429 0.70699 0.118 0.0
C2495 C 0.1423 0.65826 0.16474 0.0
C2496 C 0.13317 0.65634 0.13887 0.0
C2497 C 0.1533 0.67223 0.17378 0.0
C2498 C 0.17591 0.70991 0.14278 0.0
H2499 H 0.22345 0.76255 0.25324 0.0
H2500 H 0.20546 0.73823 0.23844 0.0
H2501 H 0.19314 0.73128 0.13225 0.0
H2502 H 0.12876 0.66786 0.10208 0.0
H2503 H 0.14777 0.69192 0.11762 0.0
H2504 H 0.16387 0.69648 0.21643 0.0
C2505 C 0.20804 0.74681 0.22152 0.0
C2506 C 0.18675 0.72401 0.15108 0.0
C2507 C 0.21876 0.76094 0.22988 0.0
C2508 C 0.13544 0.6688 0.12228 0.0
C2509 C 0.14649 0.68268 0.13103 0.0
C2510 C 0.17023 0.70397 0.19784 0.0
C2511 C 0.20103 0.74379 0.1919 0.0
C2512 C 0.18944 0.72851 0.18296 0.0
C2513 C 0.15563 0.68467 0.1569 0.0
C2514 C 0.16746 0.69965 0.166 0.0
H2515 H 0.21938 0.77819 0.16167 0.0
H2516 H 0.20015 0.75407 0.14817 0.0
H2517 H 0.18221 0.72099 0.23094 0.0
H2518 H 0.14098 0.64896 0.17798 0.0
H2519 H 0.16017 0.67327 0.19366 0.0
C2520 C 0.31334 0.18173 0.13877 0.0
C2521 C 0.31612 0.19607 0.1367 0.0
C2522 C 0.32399 0.17877 0.15003 0.0
C2523 C 0.35848 0.19505 0.19592 0.0
H2524 H 0.3629 0.16469 0.15623 0.0
C2525 C 0.40672 0.18626 0.22569 0.0
C2526 C 0.40397 0.17191 0.22726 0.0
C2527 C 0.39612 0.18927 0.21437 0.0
C2528 C 0.36173 0.17309 0.16788 0.0
H2529 H 0.33238 0.21858 0.14494 0.0
H2530 H 0.35092 0.21344 0.16406 0.0
H2531 H 0.34416 0.16967 0.1376 0.0
H2532 H 0.3878 0.14946 0.21816 0.0
H2533 H 0.36932 0.15467 0.19908 0.0
H2534 H 0.37601 0.19846 0.22626 0.0
C2535 C 0.34044 0.20442 0.15751 0.0
C2536 C 0.35094 0.17595 0.15717 0.0
C2537 C 0.32979 0.20738 0.14634 0.0
C2538 C 0.39037 0.16067 0.21712 0.0
C2539 C 0.37976 0.16367 0.20597 0.0
C2540 C 0.36925 0.19218 0.20667 0.0
C2541 C 0.33771 0.19008 0.15945 0.0
C2542 C 0.34916 0.18697 0.17103 0.0
C2543 C 0.38246 0.17801 0.20445 0.0
C2544 C 0.37104 0.18116 0.19281 0.0
H2545 H 0.30295 0.17275 0.13157 0.0
H2546 H 0.3214 0.16758 0.1516 0.0
H2547 H 0.35731 0.20347 0.20754 0.0
H2548 H 0.41707 0.19519 0.23327 0.0
H2549 H 0.39869 0.20047 0.21314 0.0
C2550 C 0.83638 0.12945 0.15002 0.0
C2551 C 0.84756 0.12747 0.13762 0.0
C2552 C 0.83924 0.14304 0.16084 0.0
C2553 C 0.86932 0.17902 0.18666 0.0
H2554 H 0.84102 0.19119 0.17142 0.0
C2555 C 0.88203 0.23754 0.2121 0.0
C2556 C 0.87094 0.23956 0.22491 0.0
C2557 C 0.8791 0.22392 0.20139 0.0
C2558 C 0.84897 0.18792 0.17625 0.0
H2559 H 0.87057 0.13838 0.12699 0.0
H2560 H 0.87555 0.16212 0.14548 0.0
H2561 H 0.8362 0.16754 0.15303 0.0
H2562 H 0.84801 0.2287 0.23634 0.0
H2563 H 0.8429 0.20488 0.21791 0.0
H2564 H 0.88211 0.19941 0.20981 0.0
C2565 C 0.86457 0.15309 0.1473 0.0
C2566 C 0.84621 0.17431 0.16567 0.0
C2567 C 0.86171 0.13946 0.13652 0.0
C2568 C 0.8568 0.22758 0.22649 0.0
C2569 C 0.85386 0.21391 0.21577 0.0
C2570 C 0.87209 0.19263 0.1972 0.0
C2571 C 0.85336 0.15509 0.15951 0.0
C2572 C 0.85634 0.16965 0.17072 0.0
C2573 C 0.86499 0.21188 0.20321 0.0
C2574 C 0.86196 0.19729 0.19213 0.0
H2575 H 0.82533 0.12049 0.15128 0.0
H2576 H 0.83036 0.14405 0.17053 0.0
H2577 H 0.87728 0.17575 0.19151 0.0
H2578 H 0.89307 0.24649 0.21045 0.0
H2579 H 0.88791 0.22287 0.19142 0.0
C2580 C 0.80533 0.65237 0.21294 0.0
C2581 C 0.80345 0.63951 0.22673 0.0
C2582 C 0.81897 0.66304 0.20204 0.0
C2583 C 0.8585 0.6752 0.20845 0.0
H2584 H 0.86124 0.69793 0.13444 0.0
C2585 C 0.91345 0.71387 0.14829 0.0
C2586 C 0.91564 0.72724 0.13685 0.0
C2587 C 0.89983 0.70329 0.15945 0.0
C2588 C 0.86068 0.6918 0.15536 0.0
H2589 H 0.81451 0.62777 0.23946 0.0
H2590 H 0.83815 0.6461 0.21962 0.0
H2591 H 0.83753 0.67919 0.15285 0.0
H2592 H 0.90513 0.73992 0.12833 0.0
H2593 H 0.88142 0.72153 0.14809 0.0
H2594 H 0.8817 0.68772 0.21063 0.0
C2595 C 0.82917 0.64816 0.21789 0.0
C2596 C 0.84704 0.68102 0.16601 0.0
C2597 C 0.81555 0.63755 0.22909 0.0
C2598 C 0.90386 0.72977 0.13701 0.0
C2599 C 0.89022 0.71917 0.14812 0.0
C2600 C 0.87215 0.68591 0.19767 0.0
C2601 C 0.83112 0.66111 0.20432 0.0
C2602 C 0.84572 0.67256 0.19276 0.0
C2603 C 0.88801 0.70577 0.15944 0.0
C2604 C 0.87343 0.69438 0.171 0.0
H2605 H 0.7963 0.65434 0.21093 0.0
H2606 H 0.82 0.67292 0.19233 0.0
H2607 H 0.858 0.66916 0.22947 0.0
H2608 H 0.92223 0.71149 0.14845 0.0
H2609 H 0.89851 0.69305 0.16756 0.0
C2610 C 0.17041 0.38082 0.31345 0.0
C2611 C 0.18166 0.39425 0.30248 0.0
C2612 C 0.17337 0.37023 0.32481 0.0
C2613 C 0.20332 0.365 0.35507 0.0
H2614 H 0.17651 0.32463 0.33585 0.0
C2615 C 0.21685 0.31988 0.38325 0.0
C2616 C 0.20558 0.3065 0.39436 0.0
C2617 C 0.21392 0.33051 0.37193 0.0
C2618 C 0.18404 0.33582 0.34179 0.0
H2619 H 0.20491 0.40701 0.29504 0.0
H2620 H 0.21008 0.38847 0.31444 0.0
H2621 H 0.17154 0.34326 0.31656 0.0
H2622 H 0.18235 0.29386 0.40215 0.0
H2623 H 0.17725 0.31244 0.38274 0.0
H2624 H 0.21582 0.35755 0.38027 0.0
C2625 C 0.19895 0.3862 0.31469 0.0
C2626 C 0.18118 0.34655 0.3307 0.0
C2627 C 0.19598 0.39683 0.30338 0.0
C2628 C 0.19129 0.304 0.39366 0.0
C2629 C 0.18836 0.31465 0.38236 0.0
C2630 C 0.20618 0.35427 0.36615 0.0
C2631 C 0.18768 0.37272 0.32546 0.0
C2632 C 0.19078 0.36129 0.33719 0.0
C2633 C 0.19965 0.32808 0.37144 0.0
C2634 C 0.19657 0.33953 0.35967 0.0
H2635 H 0.15923 0.37843 0.31322 0.0
H2636 H 0.16443 0.36011 0.33337 0.0
H2637 H 0.21084 0.37619 0.36102 0.0
H2638 H 0.22801 0.32223 0.38339 0.0
H2639 H 0.22288 0.3406 0.36328 0.0
C2640 C 0.64631 0.80612 0.30445 0.0
C2641 C 0.64878 0.79432 0.30413 0.0
C2642 C 0.65698 0.81971 0.31564 0.0
C2643 C 0.69668 0.8414 0.33234 0.0
H2644 H 0.68568 0.86528 0.38079 0.0
C2645 C 0.73938 0.89418 0.39465 0.0
C2646 C 0.73685 0.90595 0.39514 0.0
C2647 C 0.7287 0.88058 0.38349 0.0
C2648 C 0.68897 0.85885 0.36697 0.0
H2649 H 0.66448 0.78763 0.31568 0.0
H2650 H 0.68286 0.81111 0.33555 0.0
H2651 H 0.66698 0.84174 0.36158 0.0
H2652 H 0.72108 0.91259 0.38386 0.0
H2653 H 0.70272 0.8891 0.36401 0.0
H2654 H 0.71867 0.85851 0.33771 0.0
C2655 C 0.67279 0.80999 0.32669 0.0
C2656 C 0.6782 0.84531 0.35591 0.0
C2657 C 0.66215 0.79644 0.31551 0.0
C2658 C 0.72344 0.90379 0.38395 0.0
C2659 C 0.71281 0.89024 0.37276 0.0
C2660 C 0.70745 0.85495 0.34339 0.0
C2661 C 0.67041 0.82186 0.3268 0.0
C2662 C 0.68189 0.83637 0.33845 0.0
C2663 C 0.71524 0.8784 0.37249 0.0
C2664 C 0.70376 0.86388 0.36086 0.0
H2665 H 0.63618 0.80492 0.29577 0.0
H2666 H 0.65479 0.82861 0.31497 0.0
H2667 H 0.69997 0.83497 0.31853 0.0
H2668 H 0.74954 0.89542 0.40319 0.0
H2669 H 0.73093 0.87171 0.38404 0.0
C2670 C 0.23735 0.8474 0.30397 0.0
C2671 C 0.24899 0.86173 0.30304 0.0
C2672 C 0.22372 0.84436 0.31523 0.0
C2673 C 0.20155 0.86188 0.33052 0.0
H2674 H 0.17845 0.82771 0.38167 0.0
C2675 C 0.14908 0.85205 0.39363 0.0
C2676 C 0.13742 0.83775 0.39522 0.0
C2677 C 0.16264 0.85495 0.38223 0.0
C2678 C 0.18466 0.83721 0.36708 0.0
H2679 H 0.2554 0.8841 0.31363 0.0
H2680 H 0.23184 0.87879 0.33361 0.0
H2681 H 0.20204 0.83267 0.36219 0.0
H2682 H 0.1309 0.81527 0.38567 0.0
H2683 H 0.15435 0.82034 0.3653 0.0
H2684 H 0.18418 0.86643 0.33535 0.0
C2685 C 0.23311 0.86989 0.32516 0.0
C2686 C 0.19822 0.84006 0.3559 0.0
C2687 C 0.2467 0.87292 0.3139 0.0
C2688 C 0.13962 0.82643 0.38487 0.0
C2689 C 0.15314 0.82933 0.37339 0.0
C2690 C 0.18799 0.85903 0.34167 0.0
C2691 C 0.22141 0.85559 0.32585 0.0
C2692 C 0.20687 0.85245 0.33751 0.0
C2693 C 0.16487 0.84362 0.37204 0.0
C2694 C 0.17935 0.84666 0.36014 0.0
H2695 H 0.23871 0.83852 0.2957 0.0
H2696 H 0.21493 0.83323 0.31506 0.0
H2697 H 0.20778 0.8714 0.31598 0.0
H2698 H 0.1478 0.86103 0.40153 0.0
H2699 H 0.17144 0.86607 0.38196 0.0
C2700 C 0.7397 0.85265 0.89495 0.0
C2701 C 0.73713 0.83836 0.89589 0.0
C2702 C 0.72902 0.85557 0.88369 0.0
C2703 C 0.69519 0.83963 0.83565 0.0
H2704 H 0.68914 0.86841 0.87814 0.0
C2705 C 0.64646 0.84758 0.80529 0.0
C2706 C 0.64885 0.86181 0.80538 0.0
C2707 C 0.65711 0.84463 0.81662 0.0
C2708 C 0.69077 0.86046 0.8657 0.0
H2709 H 0.72125 0.81593 0.88563 0.0
H2710 H 0.70269 0.821 0.8665 0.0
H2711 H 0.70808 0.8637 0.89665 0.0
H2712 H 0.66444 0.88412 0.81738 0.0
H2713 H 0.68299 0.87904 0.83634 0.0
H2714 H 0.67794 0.83642 0.80459 0.0
C2715 C 0.71301 0.83001 0.87396 0.0
C2716 C 0.70167 0.85776 0.87636 0.0
C2717 C 0.72367 0.82709 0.88515 0.0
C2718 C 0.66213 0.873 0.81712 0.0
C2719 C 0.67279 0.87007 0.82823 0.0
C2720 C 0.68432 0.84235 0.82494 0.0
C2721 C 0.71551 0.84428 0.87312 0.0
C2722 C 0.70402 0.8473 0.8615 0.0
C2723 C 0.67045 0.85585 0.82815 0.0
C2724 C 0.68195 0.85281 0.8398 0.0
H2725 H 0.74993 0.86159 0.90305 0.0
H2726 H 0.7314 0.86672 0.88304 0.0
H2727 H 0.69681 0.83165 0.82329 0.0
H2728 H 0.63636 0.8387 0.79646 0.0
H2729 H 0.65481 0.83351 0.81658 0.0
C2730 C 0.17033 0.79618 0.81728 0.0
C2731 C 0.18148 0.79422 0.80463 0.0
C2732 C 0.17322 0.80975 0.82831 0.0
C2733 C 0.20336 0.84568 0.85429 0.0
H2734 H 0.17498 0.85785 0.84001 0.0
C2735 C 0.21599 0.9041 0.88125 0.0
C2736 C 0.20487 0.90604 0.89417 0.0
C2737 C 0.21309 0.89052 0.87026 0.0
C2738 C 0.18296 0.85458 0.84457 0.0
H2739 H 0.20448 0.80514 0.79377 0.0
H2740 H 0.2095 0.82885 0.81263 0.0
H2741 H 0.17016 0.83427 0.82112 0.0
H2742 H 0.18193 0.8951 0.9055 0.0
H2743 H 0.17688 0.87137 0.88664 0.0
H2744 H 0.21617 0.866 0.8777 0.0
C2745 C 0.19852 0.81982 0.81448 0.0
C2746 C 0.18019 0.841 0.83371 0.0
C2747 C 0.19563 0.80621 0.80349 0.0
C2748 C 0.19075 0.89403 0.89561 0.0
C2749 C 0.18784 0.88042 0.88461 0.0
C2750 C 0.20613 0.85925 0.86514 0.0
C2751 C 0.18734 0.8218 0.82696 0.0
C2752 C 0.19034 0.83634 0.83842 0.0
C2753 C 0.19899 0.87845 0.87188 0.0
C2754 C 0.19598 0.86391 0.86043 0.0
H2755 H 0.15929 0.78722 0.81859 0.0
H2756 H 0.16436 0.81074 0.8382 0.0
H2757 H 0.21134 0.84241 0.85888 0.0
H2758 H 0.22702 0.91308 0.8797 0.0
H2759 H 0.22192 0.88954 0.86018 0.0
C2760 C 0.1394 0.31982 0.88416 0.0
C2761 C 0.13699 0.30616 0.89403 0.0
C2762 C 0.15304 0.33041 0.87317 0.0
C2763 C 0.19202 0.34071 0.8742 0.0
H2764 H 0.19479 0.36592 0.80511 0.0
C2765 C 0.2469 0.38009 0.81493 0.0
C2766 C 0.24928 0.39371 0.8049 0.0
C2767 C 0.23326 0.36949 0.82591 0.0
C2768 C 0.19425 0.35912 0.8247 0.0
H2769 H 0.14709 0.29294 0.89974 0.0
H2770 H 0.17079 0.31128 0.87998 0.0
H2771 H 0.17103 0.34728 0.82349 0.0
H2772 H 0.23911 0.40686 0.79891 0.0
H2773 H 0.21543 0.38852 0.8187 0.0
H2774 H 0.21524 0.35256 0.87544 0.0
C2775 C 0.1622 0.31392 0.88125 0.0
C2776 C 0.18058 0.34838 0.83526 0.0
C2777 C 0.14855 0.30333 0.89237 0.0
C2778 C 0.23768 0.3965 0.80641 0.0
C2779 C 0.22404 0.38591 0.81754 0.0
C2780 C 0.20569 0.35146 0.86365 0.0
C2781 C 0.16465 0.32763 0.8716 0.0
C2782 C 0.17926 0.33902 0.86017 0.0
C2783 C 0.22162 0.37222 0.82733 0.0
C2784 C 0.20701 0.36082 0.83874 0.0
H2785 H 0.13079 0.32245 0.88524 0.0
H2786 H 0.15453 0.34089 0.86645 0.0
H2787 H 0.19147 0.3339 0.89378 0.0
H2788 H 0.25553 0.37748 0.81393 0.0
H2789 H 0.2318 0.35903 0.83272 0.0
C2790 C 0.83758 0.71585 0.6543 0.0
C2791 C 0.84841 0.72849 0.63954 0.0
C2792 C 0.84054 0.70515 0.66501 0.0
C2793 C 0.86736 0.69236 0.65672 0.0
H2794 H 0.84826 0.67038 0.73215 0.0
C2795 C 0.88359 0.65347 0.71618 0.0
C2796 C 0.87242 0.64025 0.72822 0.0
C2797 C 0.88063 0.66413 0.70514 0.0
C2798 C 0.85358 0.6763 0.71084 0.0
H2799 H 0.87095 0.73983 0.62484 0.0
H2800 H 0.87629 0.72144 0.64442 0.0
H2801 H 0.84344 0.68927 0.71404 0.0
H2802 H 0.84932 0.62792 0.73795 0.0
H2803 H 0.84414 0.64646 0.71843 0.0
H2804 H 0.87765 0.67948 0.6539 0.0
C2805 C 0.86535 0.71957 0.64704 0.0
C2806 C 0.8508 0.68717 0.70036 0.0
C2807 C 0.86233 0.73021 0.63599 0.0
C2808 C 0.85819 0.63794 0.72878 0.0
C2809 C 0.85524 0.64863 0.71781 0.0
C2810 C 0.87022 0.68157 0.66735 0.0
C2811 C 0.85449 0.70684 0.66162 0.0
C2812 C 0.85761 0.69535 0.67307 0.0
C2813 C 0.86642 0.66188 0.70589 0.0
C2814 C 0.86334 0.67337 0.69451 0.0
H2815 H 0.82668 0.71406 0.65719 0.0
H2816 H 0.83178 0.69543 0.67547 0.0
H2817 H 0.87263 0.69818 0.6353 0.0
H2818 H 0.8947 0.65568 0.71546 0.0
H2819 H 0.88955 0.67425 0.69654 0.0
C2820 C 0.31311 0.13915 0.63913 0.0
C2821 C 0.31603 0.12768 0.63668 0.0
C2822 C 0.32371 0.15273 0.65052 0.0
C2823 C 0.35844 0.17087 0.69588 0.0
H2824 H 0.36228 0.20575 0.65784 0.0
C2825 C 0.40661 0.22784 0.7258 0.0
C2826 C 0.4037 0.2393 0.72829 0.0
C2827 C 0.39602 0.21426 0.71439 0.0
C2828 C 0.36128 0.19613 0.66903 0.0
H2829 H 0.33249 0.12159 0.64433 0.0
H2830 H 0.35091 0.14518 0.66354 0.0
H2831 H 0.34357 0.18214 0.639 0.0
H2832 H 0.38723 0.24539 0.72068 0.0
H2833 H 0.36881 0.22182 0.70142 0.0
H2834 H 0.37616 0.18486 0.72591 0.0
C2835 C 0.34037 0.14368 0.65726 0.0
C2836 C 0.3505 0.18255 0.65821 0.0
C2837 C 0.32979 0.13012 0.64601 0.0
C2838 C 0.38994 0.23687 0.71897 0.0
C2839 C 0.37935 0.22331 0.70769 0.0
C2840 C 0.36923 0.18445 0.70671 0.0
C2841 C 0.33751 0.1552 0.65967 0.0
C2842 C 0.34892 0.16971 0.67146 0.0
C2843 C 0.38222 0.2118 0.70524 0.0
C2844 C 0.37081 0.19729 0.69345 0.0
H2845 H 0.30265 0.13768 0.63218 0.0
H2846 H 0.32101 0.16126 0.65241 0.0
H2847 H 0.35744 0.16126 0.70708 0.0
H2848 H 0.41708 0.22931 0.73274 0.0
H2849 H 0.39872 0.20574 0.71246 0.0
C2850 C 0.91493 0.20571 0.65711 0.0
C2851 C 0.91645 0.19511 0.64049 0.0
C2852 C 0.90131 0.20285 0.66803 0.0
C2853 C 0.86453 0.17284 0.68772 0.0
H2854 H 0.85354 0.20234 0.67869 0.0
C2855 C 0.80627 0.16064 0.71567 0.0
C2856 C 0.80439 0.17167 0.72917 0.0
C2857 C 0.81986 0.16356 0.70458 0.0
C2858 C 0.85647 0.19403 0.68188 0.0
H2859 H 0.90479 0.17312 0.6225 0.0
H2860 H 0.88107 0.1681 0.64169 0.0
H2861 H 0.87731 0.20726 0.6606 0.0
H2862 H 0.81547 0.19445 0.74167 0.0
H2863 H 0.83923 0.19948 0.72314 0.0
H2864 H 0.84384 0.15968 0.70944 0.0
C2865 C 0.89043 0.17862 0.64647 0.0
C2866 C 0.87013 0.19685 0.67139 0.0
C2867 C 0.90404 0.18151 0.63536 0.0
C2868 C 0.81647 0.18571 0.7312 0.0
C2869 C 0.83012 0.18861 0.72037 0.0
C2870 C 0.85091 0.17005 0.69846 0.0
C2871 C 0.88887 0.18928 0.66279 0.0
C2872 C 0.87433 0.18629 0.67411 0.0
C2873 C 0.83204 0.17756 0.70695 0.0
C2874 C 0.84664 0.18059 0.69563 0.0
H2875 H 0.92422 0.21634 0.66133 0.0
H2876 H 0.90055 0.21126 0.68079 0.0
H2877 H 0.86747 0.16453 0.69062 0.0
H2878 H 0.79721 0.14969 0.71359 0.0
H2879 H 0.82076 0.1548 0.69388 0.0
C2880 C 0.99623 0.54004 0.48295 0.0
C2881 C 0.98309 0.52892 0.47047 0.0
C2882 C 1.00691 0.5371 0.49391 0.0
C2883 C 1.01263 0.50701 0.52029 0.0
H2884 H 0.0531 0.53487 0.50415 0.0
C2885 C 0.05833 0.49407 0.54655 0.0
C2886 C 0.07144 0.5052 0.5591 0.0
C2887 C 0.04763 0.49698 0.53558 0.0
C2888 C 0.04187 0.52704 0.50922 0.0
H2889 H 0.97093 0.50594 0.45988 0.0
H2890 H 0.98961 0.50083 0.47865 0.0
H2891 H 0.03432 0.53981 0.48558 0.0
H2892 H 0.08353 0.52817 0.56985 0.0
H2893 H 0.06482 0.53323 0.55103 0.0
H2894 H 1.02018 0.49424 0.54392 0.0
C2895 C 0.99158 0.51182 0.48038 0.0
C2896 C 0.03107 0.52988 0.49855 0.0
C2897 C 0.98088 0.51476 0.46944 0.0
C2898 C 0.07361 0.51935 0.5602 0.0
C2899 C 0.06289 0.52226 0.54925 0.0
C2900 C 1.02343 0.50417 0.53096 0.0
C2901 C 1.00478 0.52296 0.49264 0.0
C2902 C 1.01629 0.5199 0.50395 0.0
C2903 C 0.04973 0.5111 0.5369 0.0
C2904 C 0.03821 0.51415 0.52557 0.0
H2905 H 0.99834 0.55109 0.48416 0.0
H2906 H 1.0168 0.54592 0.50364 0.0
H2907 H 1.00139 0.49918 0.52536 0.0
H2908 H 0.05625 0.48303 0.54532 0.0
H2909 H 0.03775 0.48815 0.52581 0.0
C2910 C 0.5246 0.561 0.56408 0.0
C2911 C 0.53845 0.57325 0.56036 0.0
C2912 C 0.52171 0.54739 0.5531 0.0
C2913 C 0.53636 0.52974 0.49948 0.0
H2914 H 0.51015 0.49525 0.54671 0.0
C2915 C 0.52933 0.47332 0.47046 0.0
C2916 C 0.5152 0.46132 0.47198 0.0
C2917 C 0.53225 0.48694 0.4814 0.0
C2918 C 0.5174 0.50475 0.53303 0.0
H2919 H 0.56017 0.58069 0.54238 0.0
H2920 H 0.55528 0.55705 0.52417 0.0
H2921 H 0.51494 0.51886 0.56517 0.0
H2922 H 0.49305 0.45433 0.48637 0.0
H2923 H 0.49812 0.47798 0.50508 0.0
H2924 H 0.5389 0.51558 0.46751 0.0
C2925 C 0.54649 0.55793 0.53478 0.0
C2926 C 0.52013 0.51834 0.5436 0.0
C2927 C 0.54933 0.57154 0.54547 0.0
C2928 C 0.5041 0.46328 0.48489 0.0
C2929 C 0.50702 0.47687 0.49584 0.0
C2930 C 0.53369 0.51615 0.48901 0.0
C2931 C 0.53263 0.54563 0.53837 0.0
C2932 C 0.52964 0.53107 0.52698 0.0
C2933 C 0.52112 0.48891 0.4942 0.0
C2934 C 0.52415 0.50345 0.5056 0.0
H2935 H 0.51594 0.56191 0.57532 0.0
H2936 H 0.51084 0.53828 0.55589 0.0
H2937 H 0.54354 0.5392 0.48562 0.0
H2938 H 0.53814 0.47223 0.46063 0.0
H2939 H 0.54328 0.49592 0.48008 0.0
C2940 C 0.57083 0.06319 0.47069 0.0
C2941 C 0.58271 0.06081 0.47077 0.0
C2942 C 0.55721 0.05249 0.48171 0.0
C2943 C 0.53562 1.01289 0.49869 0.0
H2944 H 0.51127 0.02379 0.54573 0.0
C2945 C 0.48252 0.9703 0.56033 0.0
C2946 C 0.47066 0.9727 0.55998 0.0
C2947 C 0.49617 0.98096 0.54934 0.0
C2948 C 0.51783 0.02053 0.53231 0.0
H2949 H 0.58952 0.04527 0.48286 0.0
H2950 H 0.56596 0.02683 0.50252 0.0
H2951 H 0.53495 0.0425 0.52706 0.0
H2952 H 0.46391 0.98826 0.54745 0.0
H2953 H 0.48752 1.00662 0.52792 0.0
H2954 H 0.5185 0.99091 0.50398 0.0
C2955 C 0.56705 0.03685 0.49345 0.0
C2956 C 0.53145 0.0313 0.52156 0.0
C2957 C 0.58064 0.04752 0.48239 0.0
C2958 C 0.47277 0.98598 0.54812 0.0
C2959 C 0.48639 0.99661 0.53714 0.0
C2960 C 0.522 1.00212 0.50946 0.0
C2961 C 0.55511 0.03914 0.49315 0.0
C2962 C 0.54055 0.02764 0.50459 0.0
C2963 C 0.49831 0.9943 0.53773 0.0
C2964 C 0.5129 1.00578 0.52639 0.0
H2965 H 0.57199 0.07325 0.46176 0.0
H2966 H 0.54825 0.0546 0.48068 0.0
H2967 H 0.54218 1.00963 0.48525 0.0
H2968 H 0.48132 0.96025 0.56941 0.0
H2969 H 0.50511 0.97884 0.55055 0.0
C2970 C 0.5498 0.98668 0.0512 0.0
C2971 C 0.53855 0.97307 0.06128 0.0
C2972 C 0.54677 0.99723 0.03991 0.0
C2973 C 0.51698 1.00219 1.00786 0.0
H2974 H 0.54286 0.04243 0.02994 0.0
C2975 C 0.50293 0.04688 0.97937 0.0
C2976 C 0.51423 0.0605 0.96954 0.0
C2977 C 0.50589 0.03628 0.99072 0.0
C2978 C 0.53561 0.03127 0.0232 0.0
H2979 H 0.51524 0.95992 0.06723 0.0
H2980 H 0.50994 0.97839 0.04786 0.0
H2981 H 0.5479 0.02384 0.04922 0.0
H2982 H 0.53758 0.07363 0.96406 0.0
H2983 H 0.54275 0.05509 0.98345 0.0
H2984 H 0.50469 1.00963 0.98181 0.0
C2985 C 0.52112 0.98084 0.04828 0.0
C2986 C 0.5385 0.02058 0.03429 0.0
C2987 C 0.52416 0.97025 0.05955 0.0
C2988 C 0.5286 0.06329 0.97154 0.0
C2989 C 0.53157 0.05266 0.98284 0.0
C2990 C 0.51409 1.01288 0.99676 0.0
C2991 C 0.5324 0.9945 0.03843 0.0
C2992 C 0.52924 1.00589 0.02676 0.0
C2993 C 0.52025 0.03899 0.99249 0.0
C2994 C 0.52336 0.02758 1.00427 0.0
H2995 H 0.56103 0.98927 0.05211 0.0
H2996 H 0.55572 1.00751 0.03206 0.0
H2997 H 0.50973 0.99103 1.00113 0.0
H2998 H 0.49171 0.04432 0.97824 0.0
H2999 H 0.4969 0.026 0.9984 0.0
C3000 C 0.98056 0.47276 0.96842 0.0
C3001 C 0.98147 0.46025 0.97447 0.0
C3002 C 0.99133 0.48635 0.97935 0.0
C3003 C 1.02237 0.50396 0.03629 0.0
H3004 H 0.0331 0.53791 0.98457 0.0
C3005 C 0.07222 0.56006 0.06571 0.0
C3006 C 0.07074 0.57235 0.0612 0.0
C3007 C 0.06148 0.5464 0.055 0.0
C3008 C 0.03016 0.52858 0.99951 0.0
H3009 H 0.9946 0.45233 0.99663 0.0
H3010 H 1.01346 0.47594 1.01496 0.0
H3011 H 1.01414 0.51427 0.96659 0.0
H3012 H 0.05668 0.5798 0.04177 0.0
H3013 H 0.03802 0.55609 0.02352 0.0
H3014 H 0.03852 0.51831 0.06907 0.0
C3015 C 1.00425 0.47528 1.00249 0.0
C3016 C 1.01921 0.51496 0.9892 0.0
C3017 C 0.99342 0.46168 0.99182 0.0
C3018 C 0.05828 0.57062 0.04557 0.0
C3019 C 0.04756 0.55699 0.03489 0.0
C3020 C 0.03337 0.51757 0.04652 0.0
C3021 C 1.00341 0.48785 0.99638 0.0
C3022 C 1.01511 0.50243 1.00745 0.0
C3023 C 0.04898 0.54466 0.03949 0.0
C3024 C 0.03741 0.53009 0.02833 0.0
H3025 H 0.97153 0.47208 0.95511 0.0
H3026 H 0.9901 0.49568 0.97455 0.0
H3027 H 1.01942 0.49467 0.05136 0.0
H3028 H 0.08166 0.56097 0.07766 0.0
H3029 H 0.06306 0.53721 0.05865 0.0
C3030 C 0.47169 0.49424 0.04074 0.0
C3031 C 0.47009 0.50494 0.05674 0.0
C3032 C 0.48533 0.49709 0.03001 0.0
C3033 C 0.52501 0.52286 0.04095 0.0
H3034 H 0.52823 0.5054 0.9633 0.0
C3035 C 0.58051 0.53941 0.9831 0.0
C3036 C 0.58242 0.52844 0.96937 0.0
C3037 C 0.56686 0.53646 0.99396 0.0
C3038 C 0.52753 0.51025 0.98522 0.0
H3039 H 0.48163 0.52711 0.07361 0.0
H3040 H 0.50527 0.53226 0.05399 0.0
H3041 H 0.50449 0.50065 0.98111 0.0
H3042 H 0.57136 0.50569 0.95648 0.0
H3043 H 0.5476 0.50051 0.97574 0.0
H3044 H 0.5481 0.53259 0.04478 0.0
C3045 C 0.49608 0.52152 0.05036 0.0
C3046 C 0.51386 0.5075 0.99552 0.0
C3047 C 0.48245 0.51861 0.06138 0.0
C3048 C 0.57032 0.51441 0.96696 0.0
C3049 C 0.55665 0.51146 0.97779 0.0
C3050 C 0.53868 0.52567 0.03055 0.0
C3051 C 0.49776 0.51077 0.0347 0.0
C3052 C 0.51238 0.51376 0.02357 0.0
C3053 C 0.55473 0.52246 0.99136 0.0
C3054 C 0.54013 0.51939 1.00255 0.0
H3055 H 0.46245 0.48352 0.03706 0.0
H3056 H 0.48615 0.48843 0.01863 0.0
H3057 H 0.52436 0.52767 0.06297 0.0
H3058 H 0.58954 0.55037 0.98525 0.0
H3059 H 0.56578 0.54525 1.00386 0.0
C3060 C 0.32185 0.21499 0.02473 0.0
C3061 C 0.30992 0.21691 0.01791 0.0
C3062 C 0.33381 0.22007 1.00381 0.0
C3063 C 0.34559 0.23212 0.91983 0.0
H3064 H 0.38449 0.25193 0.95461 0.0
C3065 C 0.3976 0.25266 0.83973 0.0
C3066 C 0.40935 0.26662 0.84616 0.0
C3067 C 0.38565 0.24578 0.86069 0.0
C3068 C 0.37373 0.24645 0.94433 0.0
H3069 H 0.3014 0.22564 0.98319 0.0
H3070 H 0.3218 0.23393 0.94642 0.0
H3071 H 0.3635 0.24147 0.99006 0.0
H3072 H 0.41758 0.28407 0.8802 0.0
H3073 H 0.39722 0.27199 0.91705 0.0
H3074 H 0.35582 0.23716 0.87409 0.0
C3075 C 0.322 0.22852 0.96793 0.0
C3076 C 0.3616 0.24029 0.96482 0.0
C3077 C 0.31021 0.2237 0.98908 0.0
C3078 C 0.40891 0.27324 0.87463 0.0
C3079 C 0.39713 0.26628 0.89582 0.0
C3080 C 0.35772 0.23809 0.89934 0.0
C3081 C 0.33418 0.22704 0.97505 0.0
C3082 C 0.34726 0.2331 0.95302 0.0
C3083 C 0.38512 0.2525 0.88909 0.0
C3084 C 0.37206 0.24549 0.91114 0.0
H3085 H 0.32225 0.21012 0.04693 0.0
H3086 H 0.34285 0.2186 1.01031 0.0
H3087 H 0.33482 0.22664 0.90955 0.0
H3088 H 0.39732 0.24728 0.81781 0.0
H3089 H 0.37674 0.23518 0.8545 0.0
C3090 C 0.81828 0.09309 0.99159 0.0
C3091 C 0.82559 0.09981 0.01981 0.0
C3092 C 0.81362 0.10014 0.97022 0.0
C3093 C 0.80323 0.12894 0.96603 0.0
H3094 H 0.80526 0.12508 0.87537 0.0
C3095 C 0.77053 0.1438 0.87604 0.0
C3096 C 0.77704 0.15045 0.84713 0.0
C3097 C 0.77739 0.13887 0.89727 0.0
C3098 C 0.80465 0.12639 0.90059 0.0
H3099 H 0.83347 0.11941 0.04751 0.0
H3100 H 0.82522 0.13164 1.01057 0.0
H3101 H 0.81551 0.11438 0.91102 0.0
H3102 H 0.79605 0.15686 0.81803 0.0
H3103 H 0.80797 0.14818 0.85479 0.0
H3104 H 0.79215 0.14074 0.95562 0.0
C3105 C 0.82323 0.1209 1.0047 0.0
C3106 C 0.81046 0.1201 0.9212 0.0
C3107 C 0.82817 0.11394 0.0258 0.0
C3108 C 0.79078 0.15211 0.8403 0.0
C3109 C 0.79755 0.14692 0.8613 0.0
C3110 C 0.79722 0.13503 0.94543 0.0
C3111 C 0.81576 0.1141 0.97655 0.0
C3112 C 0.80987 0.12123 0.95436 0.0
C3113 C 0.79093 0.14008 0.89015 0.0
C3114 C 0.79779 0.13389 0.91227 0.0
H3115 H 0.81585 0.08215 0.98633 0.0
H3116 H 0.80781 0.09437 0.9492 0.0
H3117 H 0.80237 0.13001 0.99126 0.0
H3118 H 0.75985 0.14205 0.88193 0.0
H3119 H 0.77176 0.13358 0.91885 0.0
C3120 C 0.89145 0.64602 0.83963 0.0
C3121 C 0.89345 0.63414 0.84637 0.0
C3122 C 0.89648 0.65793 0.86061 0.0
C3123 C 0.90856 0.66963 0.94463 0.0
H3124 H 0.92809 0.70852 0.91 0.0
C3125 C 0.92893 0.72139 0.02512 0.0
C3126 C 0.94282 0.73325 0.01852 0.0
C3127 C 0.92208 0.70948 1.00414 0.0
C3128 C 0.92269 0.69776 0.92025 0.0
H3129 H 0.90227 0.62568 0.881 0.0
H3130 H 0.91047 0.64598 0.91785 0.0
H3131 H 0.91772 0.68761 0.87447 0.0
H3132 H 0.96018 0.74168 0.98411 0.0
H3133 H 0.94815 0.72137 0.94726 0.0
H3134 H 0.9136 0.67978 0.99041 0.0
C3135 C 0.90503 0.64619 0.89637 0.0
C3136 C 0.91658 0.68568 0.8997 0.0
C3137 C 0.90027 0.63444 0.87516 0.0
C3138 C 0.9494 0.73293 0.98984 0.0
C3139 C 0.94246 0.72119 0.96863 0.0
C3140 C 0.91448 0.68171 0.96517 0.0
C3141 C 0.90348 0.65831 0.88934 0.0
C3142 C 0.90949 0.67134 0.91144 0.0
C3143 C 0.92876 0.70908 0.97553 0.0
C3144 C 0.92179 0.69605 0.95343 0.0
H3145 H 0.88656 0.64641 0.81747 0.0
H3146 H 0.89495 0.66693 0.85417 0.0
H3147 H 0.90315 0.65887 0.95487 0.0
H3148 H 0.9236 0.72101 0.0472 0.0
H3149 H 0.91153 0.7005 1.01048 0.0
C3150 C 0.22505 0.31243 0.50686 0.0
C3151 C 0.22721 0.30062 0.51322 0.0
C3152 C 0.23011 0.32432 0.52793 0.0
C3153 C 0.24248 0.33597 0.61177 0.0
H3154 H 0.26183 0.37492 0.57742 0.0
C3155 C 0.26279 0.38763 0.69263 0.0
C3156 C 0.27671 0.39947 0.68616 0.0
C3157 C 0.25594 0.37575 0.67154 0.0
C3158 C 0.25647 0.36414 0.58759 0.0
H3159 H 0.23633 0.29225 0.54732 0.0
H3160 H 0.24457 0.31249 0.58436 0.0
H3161 H 0.25139 0.35405 0.54173 0.0
H3162 H 0.29412 0.40791 0.65188 0.0
H3163 H 0.28207 0.38768 0.61481 0.0
H3164 H 0.2476 0.34606 0.65763 0.0
C3165 C 0.239 0.31267 0.56308 0.0
C3166 C 0.25033 0.35208 0.56696 0.0
C3167 C 0.23421 0.30096 0.54176 0.0
C3168 C 0.28332 0.39918 0.65751 0.0
C3169 C 0.27637 0.38747 0.63618 0.0
C3170 C 0.24842 0.34803 0.6324 0.0
C3171 C 0.23729 0.32473 0.5564 0.0
C3172 C 0.24331 0.33773 0.5786 0.0
C3173 C 0.26264 0.37538 0.64296 0.0
C3174 C 0.25566 0.36238 0.62077 0.0
H3175 H 0.22 0.3128 0.4849 0.0
H3176 H 0.22845 0.33327 0.52176 0.0
H3177 H 0.23714 0.32519 0.62194 0.0
H3178 H 0.25743 0.38723 0.71467 0.0
H3179 H 0.24537 0.36678 0.67779 0.0
C3180 C 0.64992 0.90028 0.67274 0.0
C3181 C 0.64387 0.88669 0.68792 0.0
C3182 C 0.66162 0.90508 0.65156 0.0
C3183 C 0.69004 0.8963 0.61848 0.0
H3184 H 0.69722 0.92807 0.5627 0.0
C3185 C 0.73476 0.91977 0.51568 0.0
C3186 C 0.74274 0.93503 0.51301 0.0
C3187 C 0.72292 0.91281 0.53709 0.0
C3188 C 0.69551 0.91924 0.57816 0.0
H3189 H 0.64575 0.86742 0.69163 0.0
H3190 H 0.66555 0.87529 0.65308 0.0
H3191 H 0.67631 0.91789 0.59694 0.0
H3192 H 0.74443 0.95472 0.53202 0.0
H3193 H 0.72406 0.94279 0.56825 0.0
H3194 H 0.70917 0.89747 0.59763 0.0
C3195 C 0.66153 0.88259 0.65832 0.0
C3196 C 0.68339 0.91336 0.5985 0.0
C3197 C 0.64992 0.8779 0.68037 0.0
C3198 C 0.73867 0.94299 0.53306 0.0
C3199 C 0.72682 0.9361 0.55389 0.0
C3200 C 0.70205 0.90202 0.59742 0.0
C3201 C 0.66774 0.89639 0.64337 0.0
C3202 C 0.68045 0.90194 0.61985 0.0
C3203 C 0.71853 0.92088 0.5561 0.0
C3204 C 0.70517 0.91381 0.57729 0.0
H3205 H 0.64588 0.90759 0.6779 0.0
H3206 H 0.66599 0.91593 0.64233 0.0
H3207 H 0.68856 0.88763 0.63413 0.0
H3208 H 0.73738 0.91318 0.50058 0.0
H3209 H 0.71685 0.90108 0.5379 0.0
C3210 C 0.10416 0.81061 0.54317 0.0
C3211 C 0.11052 0.817 0.51396 0.0
C3212 C 0.11104 0.80569 0.56437 0.0
C3213 C 0.13788 0.79267 0.56738 0.0
H3214 H 0.13639 0.79706 0.65799 0.0
C3215 C 0.1516 0.75959 0.65875 0.0
C3216 C 0.15914 0.76643 0.68667 0.0
C3217 C 0.14691 0.76661 0.63737 0.0
C3218 C 0.13703 0.79577 0.63277 0.0
H3219 H 0.12925 0.82292 0.48429 0.0
H3220 H 0.14119 0.81424 0.52099 0.0
H3221 H 0.12617 0.80778 0.62233 0.0
H3222 H 0.16745 0.78624 0.71378 0.0
H3223 H 0.15918 0.79843 0.67679 0.0
H3224 H 0.14853 0.78045 0.57783 0.0
C3225 C 0.13089 0.81319 0.52776 0.0
C3226 C 0.13101 0.80186 0.61217 0.0
C3227 C 0.12412 0.81839 0.50678 0.0
C3228 C 0.16195 0.78066 0.69232 0.0
C3229 C 0.157 0.78761 0.67119 0.0
C3230 C 0.14369 0.78639 0.58799 0.0
C3231 C 0.12443 0.80663 0.55691 0.0
C3232 C 0.1313 0.80044 0.57903 0.0
C3233 C 0.14928 0.78067 0.64336 0.0
C3234 C 0.14339 0.78779 0.62114 0.0
H3235 H 0.09359 0.80907 0.54933 0.0
H3236 H 0.10553 0.80061 0.5862 0.0
H3237 H 0.13826 0.79114 0.54218 0.0
H3238 H 0.149 0.74857 0.65376 0.0
H3239 H 0.14092 0.76074 0.6166 0.0
C3240 C 0.64407 0.75983 0.15806 0.0
C3241 C 0.64351 0.76662 0.18618 0.0
C3242 C 0.65579 0.7668 0.13672 0.0
C3243 C 0.69501 0.79541 0.13245 0.0
H3244 H 0.6891 0.79146 0.04179 0.0
C3245 C 0.74242 0.80971 0.04239 0.0
C3246 C 0.74266 0.81648 1.01358 0.0
C3247 C 0.73065 0.80488 0.06363 0.0
C3248 C 0.69103 0.79279 0.06701 0.0
H3249 H 0.65527 0.78626 0.21371 0.0
H3250 H 0.67577 0.79835 0.1768 0.0
H3251 H 0.66815 0.78093 0.07743 0.0
H3252 H 0.73024 0.82318 0.98463 0.0
H3253 H 0.70965 0.81463 0.02135 0.0
H3254 H 0.71789 0.80704 0.12204 0.0
C3255 C 0.66699 0.78762 0.171 0.0
C3256 C 0.67893 0.7866 0.08761 0.0
C3257 C 0.65509 0.78075 0.19208 0.0
C3258 C 0.73068 0.81834 1.00682 0.0
C3259 C 0.71873 0.81322 0.02781 0.0
C3260 C 0.70711 0.80139 0.11186 0.0
C3261 C 0.66764 0.78074 0.14296 0.0
C3262 C 0.68066 0.78777 0.12078 0.0
C3263 C 0.71843 0.80629 0.05658 0.0
C3264 C 0.70539 0.80021 0.0787 0.0
H3265 H 0.63554 0.74889 0.15288 0.0
H3266 H 0.65581 0.76097 0.11578 0.0
H3267 H 0.69695 0.7965 0.15768 0.0
H3268 H 0.75126 0.80782 0.04823 0.0
H3269 H 0.73091 0.79951 0.08517 0.0
C3270 C 0.22268 0.92005 1.01132 0.0
C3271 C 0.22831 0.93519 1.01194 0.0
C3272 C 0.22769 0.91323 0.03277 0.0
C3273 C 0.25937 0.92229 0.08794 0.0
H3274 H 0.23579 0.88265 0.11664 0.0
C3275 C 0.28564 0.89498 0.16089 0.0
C3276 C 0.27774 0.88493 0.18491 0.0
C3277 C 0.27894 0.90001 0.13959 0.0
C3278 C 0.24258 0.89379 0.10918 0.0
H3279 H 0.24335 0.95476 0.03679 0.0
H3280 H 0.25159 0.94308 0.0742 0.0
H3281 H 0.2253 0.89334 0.08164 0.0
H3282 H 0.25616 0.87216 0.20457 0.0
H3283 H 0.2444 0.88091 0.16754 0.0
H3284 H 0.27648 0.92302 0.11599 0.0
C3285 C 0.24362 0.93635 0.05676 0.0
C3286 C 0.23655 0.89993 0.08858 0.0
C3287 C 0.2387 0.94311 0.03538 0.0
C3288 C 0.26266 0.87973 0.18622 0.0
C3289 C 0.25589 0.88484 0.16485 0.0
C3290 C 0.26534 0.9162 0.10851 0.0
C3291 C 0.23851 0.92129 0.05562 0.0
C3292 C 0.24481 0.91437 0.07755 0.0
C3293 C 0.26397 0.89534 0.14141 0.0
C3294 C 0.25716 0.90178 0.11955 0.0
H3295 H 0.21482 0.91353 0.99345 0.0
H3296 H 0.22342 0.90167 0.03059 0.0
H3297 H 0.26638 0.93329 0.07994 0.0
H3298 H 0.29725 0.89931 0.15897 0.0
H3299 H 0.28566 0.90771 0.1217 0.0
C3300 C 0.14263 0.39046 0.17762 0.0
C3301 C 0.15738 0.39901 0.18612 0.0
C3302 C 0.13778 0.37865 0.15688 0.0
C3303 C 0.14899 0.35436 0.11304 0.0
H3304 H 0.1127 0.34286 0.06981 0.0
C3305 C 0.12382 0.30904 1.01249 0.0
C3306 C 0.10857 0.30001 1.01257 0.0
C3307 C 0.13081 0.32092 0.03367 0.0
C3308 C 0.12279 0.34574 0.08179 0.0
H3309 H 0.17856 0.40128 0.17894 0.0
H3310 H 0.1703 0.38112 0.14109 0.0
H3311 H 0.12286 0.36367 0.10424 0.0
H3312 H 0.08898 0.29643 0.0362 0.0
H3313 H 0.10094 0.31674 0.07252 0.0
H3314 H 0.14895 0.33648 0.0888 0.0
C3315 C 0.1623 0.38338 0.15123 0.0
C3316 C 0.12869 0.35781 0.10213 0.0
C3317 C 0.16715 0.39513 0.1729 0.0
C3318 C 0.1007 0.30303 0.03517 0.0
C3319 C 0.10761 0.31487 0.05598 0.0
C3320 C 0.14315 0.34234 0.09208 0.0
C3321 C 0.14745 0.3749 0.14252 0.0
C3322 C 0.14178 0.36229 0.11893 0.0
C3323 C 0.12277 0.32426 0.05536 0.0
C3324 C 0.12977 0.33762 0.07651 0.0
H3325 H 0.13455 0.39266 0.18758 0.0
H3326 H 0.12623 0.37235 0.15266 0.0
H3327 H 0.15902 0.35716 0.12512 0.0
H3328 H 0.13032 0.30725 0.99531 0.0
H3329 H 0.14248 0.32783 0.03218 0.0
C3330 C 0.82331 0.73258 0.49656 0.0
C3331 C 0.82443 0.72974 0.52867 0.0
C3332 C 0.81898 0.72156 0.47334 0.0
C3333 C 0.79885 0.68054 0.46645 0.0
H3334 H 0.81115 0.68777 0.379 0.0
C3335 C 0.76911 0.63664 0.36822 0.0
C3336 C 0.77682 0.63605 0.34175 0.0
C3337 C 0.7758 0.64759 0.39134 0.0
C3338 C 0.80764 0.68542 0.40337 0.0
H3339 H 0.82175 0.71286 0.56107 0.0
H3340 H 0.81483 0.69404 0.52121 0.0
H3341 H 0.82144 0.7077 0.41709 0.0
H3342 H 0.79777 0.64712 0.31874 0.0
H3343 H 0.8096 0.66598 0.35925 0.0
H3344 H 0.78518 0.65831 0.45301 0.0
C3345 C 0.81713 0.70468 0.51354 0.0
C3346 C 0.81347 0.69701 0.42535 0.0
C3347 C 0.82144 0.71565 0.53654 0.0
C3348 C 0.7916 0.64677 0.33943 0.0
C3349 C 0.7983 0.65785 0.36245 0.0
C3350 C 0.79301 0.66901 0.44453 0.0
C3351 C 0.81538 0.70722 0.48149 0.0
C3352 C 0.80924 0.69484 0.45746 0.0
C3353 C 0.79046 0.65867 0.38867 0.0
C3354 C 0.79723 0.67114 0.41244 0.0
H3355 H 0.82495 0.74309 0.48963 0.0
H3356 H 0.81772 0.72413 0.44921 0.0
H3357 H 0.79495 0.6782 0.49055 0.0
H3358 H 0.75758 0.62903 0.3702 0.0
H3359 H 0.76914 0.64775 0.41049 0.0
C3360 C 0.31083 0.09374 0.49023 0.0
C3361 C 0.31047 0.10034 0.5188 0.0
C3362 C 0.32258 0.10068 0.46895 0.0
C3363 C 0.36207 0.12864 0.46514 0.0
H3364 H 0.35608 0.12564 0.37447 0.0
C3365 C 0.40925 0.14285 0.37443 0.0
C3366 C 0.4096 0.14989 0.34593 0.0
C3367 C 0.39751 0.13805 0.39576 0.0
C3368 C 0.35804 0.1267 0.3997 0.0
H3369 H 0.32266 0.11962 0.54725 0.0
H3370 H 0.3432 0.13166 0.51043 0.0
H3371 H 0.33516 0.1152 0.41016 0.0
H3372 H 0.39742 0.15712 0.31768 0.0
H3373 H 0.3769 0.14863 0.35455 0.0
H3374 H 0.38494 0.13992 0.45467 0.0
C3375 C 0.33424 0.1211 0.50421 0.0
C3376 C 0.34595 0.12056 0.42033 0.0
C3377 C 0.32231 0.11426 0.52525 0.0
C3378 C 0.39778 0.15205 0.33961 0.0
C3379 C 0.38586 0.14697 0.36068 0.0
C3380 C 0.37416 0.13457 0.44451 0.0
C3381 C 0.33466 0.1144 0.47569 0.0
C3382 C 0.34769 0.12139 0.4535 0.0
C3383 C 0.38544 0.13977 0.38913 0.0
C3384 C 0.37241 0.13373 0.41133 0.0
H3385 H 0.3021 0.08294 0.48462 0.0
H3386 H 0.32242 0.09499 0.44763 0.0
H3387 H 0.36402 0.12947 0.49037 0.0
H3388 H 0.41797 0.14073 0.37995 0.0
H3389 H 0.39767 0.13246 0.41703 0.0
C3390 C 0.94472 0.2211 0.4967 0.0
C3391 C 0.93616 0.21408 0.52341 0.0
C3392 C 0.93951 0.22662 0.4726 0.0
C3393 C 0.90531 0.22577 0.44231 0.0
H3394 H 0.93252 0.26239 0.40363 0.0
C3395 C 0.8876 0.25315 0.34347 0.0
C3396 C 0.8948 0.26843 0.34221 0.0
C3397 C 0.89221 0.24587 0.36454 0.0
C3398 C 0.92465 0.25221 0.41427 0.0
H3399 H 0.91537 0.2074 0.54526 0.0
H3400 H 0.90628 0.21657 0.50374 0.0
H3401 H 0.94125 0.25092 0.44064 0.0
H3402 H 0.91236 0.28782 0.36321 0.0
H3403 H 0.92011 0.27536 0.39972 0.0
H3404 H 0.88865 0.22727 0.4166 0.0
C3405 C 0.91691 0.21773 0.50068 0.0
C3406 C 0.92976 0.24545 0.43536 0.0
C3407 C 0.92214 0.21235 0.52467 0.0
C3408 C 0.90647 0.27608 0.36329 0.0
C3409 C 0.91108 0.26886 0.38415 0.0
C3410 C 0.9002 0.23252 0.42118 0.0
C3411 C 0.92556 0.22526 0.47438 0.0
C3412 C 0.9202 0.23213 0.4501 0.0
C3413 C 0.90423 0.25359 0.38499 0.0
C3414 C 0.90973 0.24597 0.4069 0.0
H3415 H 0.95573 0.22307 0.49528 0.0
H3416 H 0.94658 0.2322 0.45283 0.0
H3417 H 0.89748 0.21547 0.45254 0.0
H3418 H 0.8787 0.24681 0.32747 0.0
H3419 H 0.88659 0.23414 0.36402 0.0
C3420 C 0.06839 0.60989 0.1885 0.0
C3421 C 0.07561 0.60287 0.17625 0.0
C3422 C 0.0567 0.60298 0.20967 0.0
C3423 C 0.03044 0.56641 0.24813 0.0
H3424 H 1.02101 0.59108 0.298 0.0
C3425 C 0.9856 0.54545 0.35034 0.0
C3426 C 0.97705 0.55219 0.35199 0.0
C3427 C 0.99742 0.55041 0.32885 0.0
C3428 C 1.02333 0.58392 0.28417 0.0
H3429 H 0.07579 0.58265 0.17766 0.0
H3430 H 0.05597 0.57079 0.21626 0.0
H3431 H 0.04181 0.60187 0.26344 0.0
H3432 H 0.97427 0.56924 0.3311 0.0
H3433 H 0.99452 0.57775 0.29446 0.0
H3434 H 1.01204 0.54843 0.27082 0.0
C3435 C 0.05909 0.58167 0.20868 0.0
C3436 C 0.03539 0.59018 0.2637 0.0
C3437 C 0.07069 0.58855 0.18659 0.0
C3438 C 0.9805 0.56371 0.33082 0.0
C3439 C 0.9923 0.56872 0.30979 0.0
C3440 C 1.01847 0.56012 0.26929 0.0
C3441 C 0.05177 0.58875 0.2208 0.0
C3442 C 0.03914 0.58164 0.24449 0.0
C3443 C 1.00119 0.56239 0.30865 0.0
C3444 C 1.01451 0.56878 0.28727 0.0
H3445 H 0.0715 0.6208 0.18104 0.0
H3446 H 0.05139 0.60894 0.21663 0.0
H3447 H 0.0326 0.55919 0.23417 0.0
H3448 H 0.98348 0.53666 0.36635 0.0
H3449 H 1.00395 0.5452 0.32893 0.0
C3450 C 0.48101 0.42495 0.333 0.0
C3451 C 0.49228 0.43264 0.35495 0.0
C3452 C 0.47634 0.43212 0.31213 0.0
C3453 C 0.48649 0.46859 0.27687 0.0
H3454 H 0.44563 0.44924 0.25507 0.0
C3455 C 0.46453 0.48865 0.17311 0.0
C3456 C 0.45032 0.48645 0.1739 0.0
C3457 C 0.46982 0.48334 0.19713 0.0
C3458 C 0.45706 0.45497 0.26101 0.0
H3459 H 0.50762 0.45425 0.37126 0.0
H3460 H 0.49962 0.46682 0.33469 0.0
H3461 H 0.45451 0.43789 0.29203 0.0
H3462 H 0.43046 0.47665 0.20116 0.0
H3463 H 0.43971 0.46763 0.24363 0.0
H3464 H 0.489 0.48578 0.24618 0.0
C3465 C 0.49437 0.45512 0.33348 0.0
C3466 C 0.46226 0.44829 0.28207 0.0
C3467 C 0.49904 0.44789 0.35456 0.0
C3468 C 0.44162 0.47901 0.20015 0.0
C3469 C 0.44688 0.47355 0.22425 0.0
C3470 C 0.48129 0.47526 0.25575 0.0
C3471 C 0.48273 0.44735 0.31216 0.0
C3472 C 0.47712 0.45487 0.29027 0.0
C3473 C 0.46103 0.47539 0.22293 0.0
C3474 C 0.46647 0.46857 0.24714 0.0
H3475 H 0.47547 0.41322 0.33241 0.0
H3476 H 0.46763 0.4256 0.29588 0.0
H3477 H 0.49799 0.47411 0.28212 0.0
H3478 H 0.47141 0.49391 0.15284 0.0
H3479 H 0.48062 0.48487 0.19446 0.0
C3480 C 0.59616 0.05491 0.35836 0.0
C3481 C 0.61019 0.06662 0.35211 0.0
C3482 C 0.58929 0.04302 0.3373 0.0
C3483 C 0.59007 0.03126 0.25359 0.0
H3484 H 0.57002 0.99234 0.28805 0.0
C3485 C 0.55848 0.9796 0.17279 0.0
C3486 C 0.56038 0.96766 0.1795 0.0
C3487 C 0.56358 0.99152 0.19379 0.0
C3488 C 0.57557 1.0031 0.27785 0.0
H3489 H 0.62775 0.07484 0.31822 0.0
H3490 H 0.61567 0.0546 0.28119 0.0
H3491 H 0.58056 1.01322 0.32368 0.0
H3492 H 0.56909 0.95909 0.21412 0.0
H3493 H 0.57738 0.97938 0.25104 0.0
H3494 H 0.58512 0.02114 0.20777 0.0
C3495 C 0.60991 0.05449 0.30238 0.0
C3496 C 0.58155 1.01518 0.29844 0.0
C3497 C 0.61688 0.0662 0.32369 0.0
C3498 C 0.56717 0.9679 0.20831 0.0
C3499 C 0.57198 0.97964 0.22955 0.0
C3500 C 0.58389 0.01919 0.233 0.0
C3501 C 0.59607 0.04252 0.30895 0.0
C3502 C 0.58905 0.02952 0.28677 0.0
C3503 C 0.57054 0.99183 0.22254 0.0
C3504 C 0.57661 1.00484 0.24467 0.0
H3505 H 0.59073 0.05461 0.38023 0.0
H3506 H 0.57864 0.03415 0.34338 0.0
H3507 H 0.59563 0.04203 0.2434 0.0
H3508 H 0.55362 0.98004 0.15061 0.0
H3509 H 0.56213 1.00056 0.18736 0.0
C3510 C 0.43622 0.96802 0.70649 0.0
C3511 C 0.44297 0.9675 0.67825 0.0
C3512 C 0.44322 0.97971 0.72784 0.0
C3513 C 0.47188 0.0189 0.73203 0.0
H3514 H 0.46801 1.01293 0.82269 0.0
C3515 C 0.4865 0.0663 0.82199 0.0
C3516 C 0.49316 0.06645 0.85093 0.0
C3517 C 0.48163 0.05454 0.80078 0.0
C3518 C 0.46932 1.01488 0.79747 0.0
H3519 H 0.46258 0.97932 0.65049 0.0
H3520 H 0.47472 0.99976 0.68739 0.0
H3521 H 0.45741 0.99205 0.78704 0.0
H3522 H 0.49961 0.0539 0.88011 0.0
H3523 H 0.49101 0.03336 0.8434 0.0
H3524 H 0.48358 0.04174 0.74245 0.0
C3525 C 0.464 0.99097 0.6933 0.0
C3526 C 0.46309 1.00282 0.77686 0.0
C3527 C 0.45709 0.9791 0.67222 0.0
C3528 C 0.49486 0.05441 0.85782 0.0
C3529 C 0.48971 0.04248 0.83684 0.0
C3530 C 0.47791 0.03097 0.75263 0.0
C3531 C 0.45715 0.99157 0.72148 0.0
C3532 C 0.46423 1.00456 0.74368 0.0
C3533 C 0.48289 0.04225 0.80795 0.0
C3534 C 0.47676 0.02923 0.78581 0.0
H3535 H 0.42528 0.95947 0.71179 0.0
H3536 H 0.43742 0.97968 0.74888 0.0
H3537 H 0.47296 0.02086 0.7068 0.0
H3538 H 0.48472 0.07519 0.81604 0.0
H3539 H 0.47634 0.05486 0.77918 0.0
C3540 C 0.06864 0.48922 0.6785 0.0
C3541 C 0.07696 0.48224 0.67776 0.0
C3542 C 0.05671 0.48456 0.69947 0.0
C3543 C 0.03094 0.45223 0.7495 0.0
H3544 H 1.02087 0.47912 0.78734 0.0
C3545 C 0.97956 0.43182 0.83131 0.0
C3546 C 0.98104 0.44027 0.85814 0.0
C3547 C 0.99031 0.43711 0.80729 0.0
C3548 C 1.02348 0.47137 0.7772 0.0
H3549 H 0.0792 0.46504 0.69958 0.0
H3550 H 0.05891 0.4572 0.73586 0.0
H3551 H 0.04154 0.48809 0.75147 0.0
H3552 H 0.99504 0.46096 0.88026 0.0
H3553 H 1.01334 0.47022 0.83881 0.0
H3554 H 1.01312 0.43556 0.77583 0.0
C3555 C 0.06128 0.46609 0.71999 0.0
C3556 C 0.03536 0.47656 0.75614 0.0
C3557 C 0.07315 0.47075 0.69925 0.0
C3558 C 0.99329 0.45428 0.8596 0.0
C3559 C 1.0039 0.45959 0.83566 0.0
C3560 C 1.01903 0.44703 0.77048 0.0
C3561 C 0.05263 0.47271 0.7203 0.0
C3562 C 0.03947 0.46713 0.74206 0.0
C3563 C 1.00285 0.45105 0.80925 0.0
C3564 C 1.0151 0.4565 0.78505 0.0
H3565 H 0.07104 0.49798 0.66218 0.0
H3566 H 0.05041 0.49 0.69857 0.0
H3567 H 0.03341 0.44444 0.739 0.0
H3568 H 0.97055 0.42083 0.82972 0.0
H3569 H 0.98889 0.43013 0.78742 0.0
C3570 C 0.57454 0.6096 0.6955 0.0
C3571 C 0.56336 0.60146 0.67377 0.0
C3572 C 0.57887 0.6029 0.71837 0.0
C3573 C 0.56997 0.56673 0.75566 0.0
H3574 H 0.61073 0.58847 0.77764 0.0
C3575 C 0.59622 0.54653 0.8529 0.0
C3576 C 0.61115 0.5511 0.85068 0.0
C3577 C 0.58952 0.55166 0.83143 0.0
C3578 C 0.59935 0.582 0.77171 0.0
H3579 H 0.54801 0.57956 0.65943 0.0
H3580 H 0.55552 0.56774 0.69923 0.0
H3581 H 0.60081 0.5987 0.74124 0.0
H3582 H 0.63044 0.56435 0.82301 0.0
H3583 H 0.61891 0.57266 0.78538 0.0
H3584 H 0.5688 0.54974 0.78541 0.0
C3585 C 0.56078 0.57945 0.69922 0.0
C3586 C 0.59347 0.58811 0.75096 0.0
C3587 C 0.5563 0.58624 0.67641 0.0
C3588 C 0.61894 0.56051 0.82563 0.0
C3589 C 0.61228 0.56551 0.80413 0.0
C3590 C 0.57591 0.56053 0.77637 0.0
C3591 C 0.5725 0.58767 0.72013 0.0
C3592 C 0.57862 0.58071 0.74251 0.0
C3593 C 0.59749 0.56153 0.80688 0.0
C3594 C 0.59078 0.56802 0.78482 0.0
H3595 H 0.58048 0.62132 0.69386 0.0
H3596 H 0.58758 0.60984 0.73423 0.0
H3597 H 0.5585 0.56054 0.75027 0.0
H3598 H 0.58983 0.53948 0.87207 0.0
H3599 H 0.57818 0.54827 0.83492 0.0
C3600 C 0.21334 0.2368 0.36429 0.0
C3601 C 0.21692 0.25143 0.36631 0.0
C3602 C 0.21896 0.23187 0.34011 0.0
C3603 C 0.24833 0.24443 0.2773 0.0
H3604 H 0.22433 0.20534 0.24595 0.0
C3605 C 0.27058 0.21748 0.18744 0.0
C3606 C 0.26091 0.20753 0.16504 0.0
C3607 C 0.26564 0.22321 0.21158 0.0
C3608 C 0.23125 0.21635 0.254 0.0
H3609 H 0.22937 0.2723 0.34348 0.0
H3610 H 0.2393 0.26384 0.3016 0.0
H3611 H 0.21506 0.21457 0.28682 0.0
H3612 H 0.23832 0.19601 0.15102 0.0
H3613 H 0.22978 0.2058 0.19244 0.0
H3614 H 0.26443 0.24625 0.24384 0.0
C3615 C 0.23218 0.25608 0.31898 0.0
C3616 C 0.22594 0.22165 0.27811 0.0
C3617 C 0.22643 0.261 0.34315 0.0
C3618 C 0.24616 0.20355 0.16775 0.0
C3619 C 0.24121 0.20917 0.19189 0.0
C3620 C 0.25368 0.23911 0.25315 0.0
C3621 C 0.2285 0.24135 0.31678 0.0
C3622 C 0.23433 0.23581 0.29043 0.0
C3623 C 0.2508 0.21911 0.2145 0.0
C3624 C 0.24524 0.22493 0.24085 0.0
H3625 H 0.20613 0.22904 0.38161 0.0
H3626 H 0.21593 0.22053 0.34012 0.0
H3627 H 0.25534 0.25532 0.28596 0.0
H3628 H 0.28199 0.22076 0.18653 0.0
H3629 H 0.27349 0.23067 0.22838 0.0
C3630 C 0.8292 0.0627 0.19267 0.0
C3631 C 0.83586 0.06076 0.16574 0.0
C3632 C 0.82348 0.05213 0.21702 0.0
C3633 C 0.81051 1.0127 0.23439 0.0
H3634 H 0.81624 0.02465 0.32211 0.0
C3635 C 0.78352 0.97091 0.33921 0.0
C3636 C 0.79204 0.97289 0.36631 0.0
C3637 C 0.78834 0.9815 0.31492 0.0
C3638 C 0.81452 0.02102 0.29779 0.0
H3639 H 0.84127 0.04577 0.14347 0.0
H3640 H 0.83118 0.02742 0.18516 0.0
H3641 H 0.8254 0.04294 0.28018 0.0
H3642 H 0.81228 0.98802 0.38897 0.0
H3643 H 0.82051 1.00642 0.34737 0.0
H3644 H 0.79963 0.99078 0.25199 0.0
C3645 C 0.83041 0.03713 0.18779 0.0
C3646 C 0.8197 0.03161 0.27353 0.0
C3647 C 0.83633 0.04777 0.16379 0.0
C3648 C 0.8054 0.98597 0.3685 0.0
C3649 C 0.81011 0.99665 0.34456 0.0
C3650 C 0.80513 1.00211 0.25864 0.0
C3651 C 0.82395 0.0391 0.21509 0.0
C3652 C 0.81792 0.02769 0.24127 0.0
C3653 C 0.80175 0.99462 0.31708 0.0
C3654 C 0.80711 1.00603 0.2909 0.0
H3655 H 0.82856 0.07249 0.19514 0.0
H3656 H 0.81851 0.05413 0.23728 0.0
H3657 H 0.80872 1.00907 0.21007 0.0
H3658 H 0.77316 0.96105 0.33654 0.0
H3659 H 0.78143 0.97946 0.29452 0.0
C3660 C 0.98292 0.77264 0.18833 0.0
C3661 C 0.98275 0.78225 0.16558 0.0
C3662 C 0.99357 0.77757 0.21252 0.0
C3663 C 1.02142 0.81202 0.25404 0.0
H3664 H 0.03566 0.7876 0.28778 0.0
C3665 C 0.05987 0.83023 0.36421 0.0
C3666 C 0.07067 0.82629 0.36687 0.0
C3667 C 0.04928 0.82458 0.3401 0.0
C3668 C 0.03196 0.7947 0.27861 0.0
H3669 H 0.99401 0.80474 0.15093 0.0
H3670 H 1.01234 0.81327 0.19238 0.0
H3671 H 1.01753 0.77852 0.2456 0.0
H3672 H 0.07854 0.81308 0.34538 0.0
H3673 H 0.06014 0.80316 0.30353 0.0
H3674 H 0.03601 0.82831 0.28634 0.0
C3675 C 1.00418 0.80189 0.19212 0.0
C3676 C 1.0213 0.78937 0.25443 0.0
C3677 C 0.99362 0.79695 0.16796 0.0
C3678 C 0.07041 0.81636 0.34447 0.0
C3679 C 0.05973 0.8106 0.32034 0.0
C3680 C 0.03203 0.81733 0.27815 0.0
C3681 C 1.00442 0.79236 0.21511 0.0
C3682 C 1.0158 0.79792 0.24149 0.0
C3683 C 0.04895 0.81466 0.31746 0.0
C3684 C 0.03756 0.80882 0.29111 0.0
H3685 H 0.97473 0.76128 0.18764 0.0
H3686 H 0.99309 0.76977 0.2296 0.0
H3687 H 1.01751 0.81904 0.24551 0.0
H3688 H 0.05956 0.83775 0.38096 0.0
H3689 H 0.04119 0.82791 0.3396 0.0
C3690 C 0.83702 0.79611 0.66591 0.0
C3691 C 0.83762 0.78321 0.66877 0.0
C3692 C 0.83092 0.80066 0.68984 0.0
C3693 C 0.82133 0.79626 0.77637 0.0
H3694 H 0.79941 0.81517 0.75426 0.0
C3695 C 0.80596 0.82704 0.87034 0.0
C3696 C 0.79239 0.82636 0.86828 0.0
C3697 C 0.8108 0.82114 0.84657 0.0
C3698 C 0.80542 0.80985 0.76109 0.0
H3699 H 0.83209 0.76503 0.69985 0.0
H3700 H 0.82165 0.77301 0.74179 0.0
H3701 H 0.80876 0.80611 0.71263 0.0
H3702 H 0.77326 0.81867 0.83896 0.0
H3703 H 0.78175 0.80861 0.79726 0.0
H3704 H 0.81807 0.80008 0.82483 0.0
C3705 C 0.82593 0.77968 0.72086 0.0
C3706 C 0.81096 0.80473 0.73698 0.0
C3707 C 0.83189 0.77502 0.69664 0.0
C3708 C 0.78378 0.81948 0.84151 0.0
C3709 C 0.78873 0.81375 0.8174 0.0
C3710 C 0.81596 0.80155 0.80047 0.0
C3711 C 0.82531 0.79262 0.71799 0.0
C3712 C 0.81906 0.79784 0.74405 0.0
C3713 C 0.80237 0.81446 0.8194 0.0
C3714 C 0.80789 0.80848 0.79339 0.0
H3715 H 0.84126 0.80274 0.6449 0.0
H3716 H 0.83088 0.81072 0.68645 0.0
H3717 H 0.82756 0.79118 0.78319 0.0
H3718 H 0.81291 0.83215 0.89056 0.0
H3719 H 0.82138 0.82211 0.84927 0.0
C3720 C 0.21617 0.98575 0.86748 0.0
C3721 C 0.21634 0.97261 0.86529 0.0
C3722 C 0.22218 0.99641 0.84352 0.0
C3723 C 0.23265 1.00182 0.75758 0.0
H3724 H 0.2534 0.04264 0.77916 0.0
C3725 C 0.24748 0.04757 0.6627 0.0
C3726 C 0.26096 0.06052 0.66475 0.0
C3727 C 0.24268 0.0369 0.68668 0.0
C3728 C 0.24772 0.03131 0.77251 0.0
H3729 H 0.2232 0.96064 0.83551 0.0
H3730 H 0.2334 0.97901 0.79345 0.0
H3731 H 0.24412 0.02434 0.82108 0.0
H3732 H 0.27997 0.07215 0.69428 0.0
H3733 H 0.27153 0.05376 0.73639 0.0
H3734 H 0.23611 1.00879 0.70901 0.0
C3735 C 0.2286 0.98112 0.81386 0.0
C3736 C 0.24223 0.02072 0.79675 0.0
C3737 C 0.22279 0.97054 0.83816 0.0
C3738 C 0.26952 0.06239 0.69174 0.0
C3739 C 0.2646 0.05181 0.71607 0.0
C3740 C 0.23794 1.01241 0.73334 0.0
C3741 C 0.22844 0.99431 0.81602 0.0
C3742 C 0.23457 1.00572 0.78985 0.0
C3743 C 0.25106 0.03882 0.71405 0.0
C3744 C 0.2456 0.0274 0.74024 0.0
H3745 H 0.21141 0.98786 0.88797 0.0
H3746 H 0.22165 1.00624 0.84634 0.0
H3747 H 0.22676 0.99049 0.75092 0.0
H3748 H 0.24057 0.04561 0.64233 0.0
H3749 H 0.23219 0.02723 0.68397 0.0
C3750 C 0.98253 0.21728 0.68587 0.0
C3751 C 0.98213 0.20716 0.66384 0.0
C3752 C 0.99318 0.223 0.71008 0.0
C3753 C 1.02045 0.2159 0.75314 0.0
H3754 H 0.0357 0.25504 0.78433 0.0
C3755 C 0.05905 0.23642 0.86298 0.0
C3756 C 0.07016 0.25104 0.86483 0.0
C3757 C 0.04844 0.2315 0.83892 0.0
C3758 C 0.03171 0.2441 0.77588 0.0
H3759 H 0.99297 0.19534 0.65039 0.0
H3760 H 1.01126 0.20511 0.69189 0.0
H3761 H 1.01751 0.24597 0.74225 0.0
H3762 H 0.07858 0.27189 0.84193 0.0
H3763 H 0.06013 0.26343 0.80016 0.0
H3764 H 0.0348 0.21407 0.78606 0.0
C3765 C 1.0033 0.20861 0.69109 0.0
C3766 C 1.02102 0.23877 0.75176 0.0
C3767 C 0.99275 0.203 0.6669 0.0
C3768 C 0.0702 0.26059 0.84167 0.0
C3769 C 0.05949 0.25568 0.81758 0.0
C3770 C 0.03108 0.2212 0.77719 0.0
C3771 C 1.00377 0.21872 0.71338 0.0
C3772 C 1.01515 0.22454 0.73974 0.0
C3773 C 0.0484 0.24097 0.81552 0.0
C3774 C 0.03698 0.23542 0.78923 0.0
H3775 H 0.9746 0.22082 0.68444 0.0
H3776 H 0.99291 0.23063 0.72657 0.0
H3777 H 1.01626 0.20484 0.74532 0.0
H3778 H 0.0585 0.22868 0.88034 0.0
H3779 H 0.0401 0.22018 0.83906 0.0
C3780 C 0.88003 0.57012 0.69688 0.0
C3781 C 0.88418 0.5849 0.69951 0.0
C3782 C 0.8856 0.56507 0.67284 0.0
C3783 C 0.91571 0.57715 0.61201 0.0
H3784 H 0.89078 0.53875 0.57803 0.0
C3785 C 0.9373 0.54927 0.52297 0.0
C3786 C 0.92777 0.53997 0.49951 0.0
C3787 C 0.93241 0.55514 0.54693 0.0
C3788 C 0.89797 0.54956 0.58685 0.0
H3789 H 0.89769 0.6059 0.67803 0.0
H3790 H 0.90752 0.59722 0.63637 0.0
H3791 H 0.88164 0.54821 0.61869 0.0
H3792 H 0.90548 0.52969 0.4835 0.0
H3793 H 0.89701 0.53968 0.5247 0.0
H3794 H 0.93198 0.57853 0.57957 0.0
C3795 C 0.89995 0.58944 0.65313 0.0
C3796 C 0.89272 0.55498 0.61082 0.0
C3797 C 0.89425 0.59448 0.67715 0.0
C3798 C 0.9132 0.53672 0.50106 0.0
C3799 C 0.90829 0.54246 0.52505 0.0
C3800 C 0.921 0.57168 0.58803 0.0
C3801 C 0.89567 0.57457 0.65028 0.0
C3802 C 0.90145 0.5689 0.62406 0.0
C3803 C 0.91775 0.55179 0.54865 0.0
C3804 C 0.91223 0.55776 0.57481 0.0
H3805 H 0.87239 0.56234 0.71359 0.0
H3806 H 0.88209 0.55362 0.67234 0.0
H3807 H 0.92296 0.58783 0.6214 0.0
H3808 H 0.94854 0.55194 0.52303 0.0
H3809 H 0.94013 0.56209 0.56454 0.0
C3810 C 0.50364 0.38128 0.49852 0.0
C3811 C 0.50342 0.39438 0.50077 0.0
C3812 C 0.49759 0.37058 0.52237 0.0
C3813 C 0.48703 0.36509 0.60811 0.0
H3814 H 0.46628 0.32428 0.58634 0.0
C3815 C 0.47228 0.31926 0.70254 0.0
C3816 C 0.45876 0.30636 0.70051 0.0
C3817 C 0.47707 0.32994 0.67864 0.0
C3818 C 0.47197 0.33561 0.59303 0.0
H3819 H 0.49641 0.40627 0.53045 0.0
H3820 H 0.48612 0.38781 0.5723 0.0
H3821 H 0.47556 0.34262 0.54449 0.0
H3822 H 0.43968 0.29481 0.67116 0.0
H3823 H 0.4481 0.31324 0.62916 0.0
H3824 H 0.48356 0.35807 0.65663 0.0
C3825 C 0.491 0.38576 0.55195 0.0
C3826 C 0.47745 0.34621 0.56884 0.0
C3827 C 0.49686 0.39638 0.52777 0.0
C3828 C 0.45015 0.30454 0.67366 0.0
C3829 C 0.45506 0.31514 0.6494 0.0
C3830 C 0.48173 0.35448 0.63228 0.0
C3831 C 0.49124 0.37262 0.54976 0.0
C3832 C 0.4851 0.36119 0.57584 0.0
C3833 C 0.46864 0.32808 0.65139 0.0
C3834 C 0.47408 0.3395 0.62529 0.0
H3835 H 0.5085 0.37923 0.4781 0.0
H3836 H 0.49817 0.36077 0.51955 0.0
H3837 H 0.49291 0.37641 0.61481 0.0
H3838 H 0.47922 0.32116 0.72283 0.0
H3839 H 0.48759 0.33959 0.68128 0.0
C3840 C 0.66033 0.13046 0.50092 0.0
C3841 C 0.64926 0.11583 0.49897 0.0
C3842 C 0.6709 0.13541 0.52509 0.0
C3843 C 0.68775 0.12289 0.58799 0.0
H3844 H 0.70284 0.162 0.61919 0.0
C3845 C 0.73708 0.14998 0.67761 0.0
C3846 C 0.73736 0.15993 0.70001 0.0
C3847 C 0.72637 0.14421 0.65353 0.0
C3848 C 0.69875 0.15099 0.61118 0.0
H3849 H 0.64085 0.09498 0.52191 0.0
H3850 H 0.65927 0.10347 0.56378 0.0
H3851 H 0.68432 0.15275 0.57835 0.0
H3852 H 0.72626 0.1714 0.7141 0.0
H3853 H 0.70787 0.16156 0.67276 0.0
H3854 H 0.70206 0.12111 0.62145 0.0
C3855 C 0.6599 0.11122 0.54635 0.0
C3856 C 0.68813 0.14567 0.58709 0.0
C3857 C 0.64922 0.10628 0.52219 0.0
C3858 C 0.72656 0.16387 0.69736 0.0
C3859 C 0.71596 0.15822 0.67327 0.0
C3860 C 0.69844 0.12824 0.61211 0.0
C3861 C 0.67096 0.12594 0.54849 0.0
C3862 C 0.68236 0.1315 0.57483 0.0
C3863 C 0.7156 0.14827 0.65066 0.0
C3864 C 0.70418 0.14242 0.62435 0.0
H3865 H 0.66088 0.1382 0.48356 0.0
H3866 H 0.67921 0.14673 0.52504 0.0
H3867 H 0.68385 0.11199 0.57938 0.0
H3868 H 0.74521 0.14671 0.67847 0.0
H3869 H 0.72675 0.13674 0.63674 0.0
C3870 C 0.44934 0.1509 0.17576 0.0
C3871 C 0.45893 0.16032 0.19899 0.0
C3872 C 0.45421 0.14508 0.15164 0.0
C3873 C 0.48863 0.15094 0.111 0.0
H3874 H 0.46375 0.1126 0.07669 0.0
C3875 C 0.50657 0.1305 1.00072 0.0
C3876 C 0.50247 0.11573 0.99804 0.0
C3877 C 0.501 0.13551 0.02484 0.0
C3878 C 0.47098 0.12331 0.08601 0.0
H3879 H 0.48131 0.17084 0.21445 0.0
H3880 H 0.48974 0.16093 0.17304 0.0
H3881 H 0.45475 0.12182 0.11871 0.0
H3882 H 0.48903 0.09471 0.01953 0.0
H3883 H 0.47921 0.10333 0.06134 0.0
H3884 H 0.50494 0.1524 0.07892 0.0
C3885 C 0.47843 0.15803 0.17295 0.0
C3886 C 0.46569 0.12872 0.1101 0.0
C3887 C 0.47354 0.16372 0.19708 0.0
C3888 C 0.49244 0.10613 0.02045 0.0
C3889 C 0.48675 0.11113 0.04456 0.0
C3890 C 0.49388 0.14556 0.08693 0.0
C3891 C 0.46892 0.14859 0.14955 0.0
C3892 C 0.47442 0.14268 0.12325 0.0
C3893 C 0.49098 0.12599 0.04745 0.0
C3894 C 0.4852 0.13162 0.07377 0.0
H3895 H 0.43805 0.14809 0.176 0.0
H3896 H 0.44644 0.13804 0.13422 0.0
H3897 H 0.4958 0.16178 0.11973 0.0
H3898 H 0.51417 0.13829 0.98398 0.0
H3899 H 0.50447 0.14695 0.02537 0.0
C3900 C 0.88937 0.3043 0.16976 0.0
C3901 C 0.88294 0.30638 0.19692 0.0
C3902 C 0.89527 0.31494 0.14559 0.0
C3903 C 0.90899 0.35459 0.12884 0.0
H3904 H 0.90315 0.34277 0.04104 0.0
C3905 C 0.93634 0.39641 0.02412 0.0
C3906 C 0.92786 0.39444 0.99695 0.0
C3907 C 0.93142 0.38583 0.04846 0.0
C3908 C 0.9049 0.34636 0.06539 0.0
H3909 H 0.87813 0.32167 0.2198 0.0
H3910 H 0.88848 0.34012 0.17834 0.0
H3911 H 0.89371 0.32443 0.0828 0.0
H3912 H 0.90761 0.37939 0.97422 0.0
H3913 H 0.8992 0.36106 0.0159 0.0
H3914 H 0.92014 0.37654 0.11139 0.0
C3915 C 0.88895 0.33026 0.17542 0.0
C3916 C 0.89956 0.33574 0.08955 0.0
C3917 C 0.88288 0.31956 0.19928 0.0
C3918 C 0.91445 0.38142 0.99475 0.0
C3919 C 0.90965 0.37078 0.01874 0.0
C3920 C 0.91451 0.36522 0.10467 0.0
C3921 C 0.89519 0.32816 0.1479 0.0
C3922 C 0.90138 0.33961 0.12183 0.0
C3923 C 0.91795 0.37277 0.04627 0.0
C3924 C 0.91249 0.36134 0.07239 0.0
H3925 H 0.88971 0.29436 0.16699 0.0
H3926 H 0.90006 0.31283 0.12516 0.0
H3927 H 0.91082 0.35818 0.15319 0.0
H3928 H 0.94675 0.40621 0.02676 0.0
H3929 H 0.93829 0.38784 0.06891 0.0
C3930 C 0.73914 0.59333 0.17166 0.0
C3931 C 0.73826 0.58419 0.19682 0.0
C3932 C 0.72833 0.58843 0.14775 0.0
C3933 C 0.69868 0.5541 0.1103 0.0
H3934 H 0.68548 0.57902 0.07443 0.0
C3935 C 0.66015 0.53604 1.00015 0.0
C3936 C 0.64918 0.53978 0.99813 0.0
C3937 C 0.67085 0.54171 0.02403 0.0
C3938 C 0.68893 0.57181 0.08419 0.0
H3939 H 0.72521 0.56245 0.21534 0.0
H3940 H 0.70684 0.5539 0.17391 0.0
H3941 H 0.70413 0.58831 0.11577 0.0
H3942 H 0.64107 0.55255 0.02079 0.0
H3943 H 0.65988 0.56273 0.06189 0.0
H3944 H 0.6835 0.53759 0.07906 0.0
C3945 C 0.71577 0.56494 0.17256 0.0
C3946 C 0.69983 0.57724 0.10786 0.0
C3947 C 0.72638 0.56991 0.19662 0.0
C3948 C 0.64938 0.54951 0.02103 0.0
C3949 C 0.66025 0.55538 0.04477 0.0
C3950 C 0.68792 0.54874 0.08649 0.0
C3951 C 0.71644 0.57407 0.14758 0.0
C3952 C 0.70491 0.56847 0.12156 0.0
C3953 C 0.67119 0.55152 0.04693 0.0
C3954 C 0.68276 0.55744 0.07286 0.0
H3955 H 0.7482 0.6043 0.17039 0.0
H3956 H 0.72949 0.59585 0.12899 0.0
H3957 H 0.70224 0.54692 0.11965 0.0
H3958 H 0.6605 0.52865 0.98308 0.0
H3959 H 0.67905 0.5385 0.02418 0.0
C3960 C 0.60225 0.87941 0.86079 0.0
C3961 C 0.59381 0.87316 0.83347 0.0
C3962 C 0.59751 0.88526 0.88504 0.0
C3963 C 0.57184 0.89937 0.90188 0.0
H3964 H 0.57735 0.89287 0.98962 0.0
C3965 C 0.55766 0.92675 1.00697 0.0
C3966 C 0.5509 0.91818 0.03389 0.0
C3967 C 0.56327 0.92178 0.98264 0.0
C3968 C 0.57565 0.89481 0.96529 0.0
H3969 H 0.57381 0.86867 0.81037 0.0
H3970 H 0.56572 0.87898 0.85193 0.0
H3971 H 0.5862 0.88343 0.94775 0.0
H3972 H 0.54521 0.89771 0.05616 0.0
H3973 H 0.5551 0.88923 1.0145 0.0
H3974 H 0.56127 0.91074 0.91944 0.0
C3975 C 0.576 0.87931 0.85495 0.0
C3976 C 0.58089 0.88946 0.94107 0.0
C3977 C 0.58062 0.87325 0.83102 0.0
C3978 C 0.55023 0.90463 0.03585 0.0
C3979 C 0.55603 0.89978 1.01186 0.0
C3980 C 0.56679 0.90491 0.92611 0.0
C3981 C 0.58427 0.88535 0.88264 0.0
C3982 C 0.57902 0.89152 0.90879 0.0
C3983 C 0.56258 0.90817 0.98456 0.0
C3984 C 0.56848 0.90266 0.95838 0.0
H3985 H 0.61248 0.87963 0.86364 0.0
H3986 H 0.60436 0.8899 0.90559 0.0
H3987 H 0.57021 0.90138 0.87755 0.0
H3988 H 0.55846 0.93725 1.00449 0.0
H3989 H 0.56831 0.92873 0.96238 0.0
C3990 C 0.13944 0.65213 0.034 0.0
C3991 C 0.12622 0.63893 0.03139 0.0
C3992 C 0.14414 0.66287 1.0102 0.0
C3993 C 0.13934 0.66849 0.92412 0.0
H3994 H 0.15935 0.70925 0.94626 0.0
C3995 C 0.1703 0.71444 0.82974 0.0
C3996 C 0.16986 0.72744 0.83203 0.0
C3997 C 0.16441 0.70373 0.8536 0.0
C3998 C 0.15372 0.69794 0.93944 0.0
H3999 H 0.10758 0.62695 1.00105 0.0
H4000 H 0.11583 0.64547 0.95933 0.0
H4001 H 0.15023 0.69083 0.98792 0.0
H4002 H 0.16264 0.7391 0.86187 0.0
H4003 H 0.15262 0.72061 0.90373 0.0
H4004 H 0.14293 0.6756 0.87566 0.0
C4005 C 0.12265 0.64756 0.97991 0.0
C4006 C 0.14857 0.68728 0.96355 0.0
C4007 C 0.11784 0.63689 1.00402 0.0
C4008 C 0.16325 0.72931 0.85913 0.0
C4009 C 0.15755 0.71866 0.88333 0.0
C4010 C 0.14468 0.67916 0.90003 0.0
C4011 C 0.13592 0.66081 0.98246 0.0
C4012 C 0.14126 0.6723 0.95645 0.0
C4013 C 0.158 0.70562 0.88108 0.0
C4014 C 0.152 0.69413 0.90712 0.0
H4015 H 0.1462 0.65423 0.0547 0.0
H4016 H 0.15443 0.67274 1.01335 0.0
H4017 H 0.13393 0.65719 0.91729 0.0
H4018 H 0.17519 0.71249 0.80927 0.0
H4019 H 0.16516 0.69402 0.8507 0.0
C4020 C 0.39382 0.49726 0.03017 0.0
C4021 C 0.40441 0.49305 0.03334 0.0
C4022 C 0.38322 0.49158 1.00609 0.0
C4023 C 0.3653 0.46119 0.94589 0.0
H4024 H 0.35151 0.48583 0.91131 0.0
C4025 C 0.31601 0.43918 0.85612 0.0
C4026 C 0.31602 0.44869 0.83286 0.0
C4027 C 0.32674 0.44414 0.88018 0.0
C4028 C 0.35523 0.47871 0.92026 0.0
H4029 H 0.41182 0.47926 1.01296 0.0
H4030 H 0.3934 0.46931 0.97106 0.0
H4031 H 0.37012 0.49515 0.95188 0.0
H4032 H 0.32765 0.47103 0.81723 0.0
H4033 H 0.34608 0.4796 0.85845 0.0
H4034 H 0.35055 0.44484 0.91355 0.0
C4035 C 0.3932 0.47702 0.9874 0.0
C4036 C 0.36591 0.48407 0.94422 0.0
C4037 C 0.40391 0.48281 1.01151 0.0
C4038 C 0.32712 0.46331 0.83464 0.0
C4039 C 0.33775 0.46828 0.85868 0.0
C4040 C 0.35456 0.4558 0.92185 0.0
C4041 C 0.38264 0.48135 0.984 0.0
C4042 C 0.37121 0.47546 0.95773 0.0
C4043 C 0.33783 0.45886 0.88215 0.0
C4044 C 0.34929 0.46446 0.90839 0.0
H4045 H 0.39368 0.50501 0.04651 0.0
H4046 H 0.3753 0.49513 1.00521 0.0
H4047 H 0.3688 0.45401 0.95549 0.0
H4048 H 0.30763 0.42788 0.85594 0.0
H4049 H 0.32612 0.43642 0.89766 0.0
C4050 C 0.14125 0.49764 0.52933 0.0
C4051 C 0.12661 0.49414 0.53118 0.0
C4052 C 0.1462 0.49201 0.50523 0.0
C4053 C 0.1337 0.46257 0.44312 0.0
H4054 H 0.17261 0.48676 0.41053 0.0
C4055 C 0.16114 0.44039 0.3546 0.0
C4056 C 0.1706 0.44986 0.33124 0.0
C4057 C 0.15537 0.44537 0.37853 0.0
C4058 C 0.16166 0.47979 0.41898 0.0
H4059 H 0.10575 0.48183 0.50819 0.0
H4060 H 0.11424 0.47182 0.46649 0.0
H4061 H 0.16336 0.49607 0.45133 0.0
H4062 H 0.18128 0.47216 0.31536 0.0
H4063 H 0.17149 0.48082 0.35664 0.0
H4064 H 0.132 0.44635 0.41027 0.0
C4065 C 0.12198 0.47892 0.48391 0.0
C4066 C 0.15635 0.48513 0.44299 0.0
C4067 C 0.11705 0.4847 0.50796 0.0
C4068 C 0.17412 0.46448 0.33285 0.0
C4069 C 0.1685 0.4695 0.35686 0.0
C4070 C 0.13906 0.45718 0.41915 0.0
C4071 C 0.13671 0.48253 0.48189 0.0
C4072 C 0.14226 0.47666 0.45568 0.0
C4073 C 0.159 0.46009 0.38032 0.0
C4074 C 0.15316 0.46569 0.40645 0.0
H4075 H 0.14899 0.5048 0.5467 0.0
H4076 H 0.15753 0.49499 0.50527 0.0
H4077 H 0.12287 0.45554 0.45212 0.0
H4078 H 0.15826 0.4291 0.35459 0.0
H4079 H 0.14828 0.43769 0.39606 0.0
C4080 C 0.57997 0.71445 0.32911 0.0
C4081 C 0.59356 0.72727 0.33115 0.0
C4082 C 0.57511 0.7037 0.35287 0.0
C4083 C 0.58064 0.69755 0.43824 0.0
H4084 H 0.55814 0.6569 0.41581 0.0
C4085 C 0.54912 0.65213 0.53326 0.0
C4086 C 0.54828 0.63855 0.52997 0.0
C4087 C 0.55524 0.66284 0.50945 0.0
C4088 C 0.56448 0.66817 0.42272 0.0
H4089 H 0.61267 0.7386 0.36052 0.0
H4090 H 0.60418 0.72001 0.40214 0.0
H4091 H 0.56765 0.67536 0.37435 0.0
H4092 H 0.55336 0.62579 0.49822 0.0
H4093 H 0.56387 0.64432 0.45655 0.0
H4094 H 0.57743 0.69035 0.48662 0.0
C4095 C 0.59719 0.71824 0.38203 0.0
C4096 C 0.56986 0.67887 0.39873 0.0
C4097 C 0.60215 0.72894 0.35795 0.0
C4098 C 0.55377 0.63606 0.50178 0.0
C4099 C 0.55976 0.64674 0.4777 0.0
C4100 C 0.57512 0.68685 0.46225 0.0
C4101 C 0.58355 0.70536 0.38001 0.0
C4102 C 0.57804 0.69381 0.40592 0.0
C4103 C 0.56063 0.66039 0.48101 0.0
C4104 C 0.56688 0.6719 0.45506 0.0
H4105 H 0.57302 0.71267 0.30889 0.0
H4106 H 0.56452 0.69415 0.35018 0.0
H4107 H 0.58674 0.70883 0.44516 0.0
H4108 H 0.54508 0.65456 0.55453 0.0
H4109 H 0.55546 0.67301 0.51317 0.0
C4110 C 0.39071 0.90466 0.53451 0.0
C4111 C 0.40376 0.91805 0.53244 0.0
C4112 C 0.38009 0.89991 0.51042 0.0
C4113 C 0.37473 0.90496 0.4244 0.0
H4114 H 0.33381 0.88423 0.4458 0.0
C4115 C 0.32918 0.87371 0.32922 0.0
C4116 C 0.31602 0.87386 0.33143 0.0
C4117 C 0.33985 0.87969 0.35318 0.0
C4118 C 0.34516 0.89006 0.43918 0.0
H4119 H 0.41563 0.93693 0.5027 0.0
H4120 H 0.39732 0.92859 0.46044 0.0
H4121 H 0.35206 0.89346 0.48778 0.0
H4122 H 0.30401 0.88069 0.36124 0.0
H4123 H 0.32239 0.89085 0.40328 0.0
H4124 H 0.36782 0.90144 0.3758 0.0
C4125 C 0.39525 0.92169 0.48086 0.0
C4126 C 0.35573 0.89528 0.46347 0.0
C4127 C 0.40579 0.92655 0.50529 0.0
C4128 C 0.31393 0.88029 0.35856 0.0
C4129 C 0.32452 0.88608 0.38286 0.0
C4130 C 0.36415 0.89955 0.40011 0.0
C4131 C 0.38215 0.90825 0.48291 0.0
C4132 C 0.37076 0.90286 0.45666 0.0
C4133 C 0.33773 0.88591 0.38071 0.0
C4134 C 0.34912 0.89197 0.40693 0.0
H4135 H 0.38863 0.89778 0.55499 0.0
H4136 H 0.37034 0.88948 0.51317 0.0
H4137 H 0.38608 0.91058 0.4178 0.0
H4138 H 0.33131 0.86897 0.30872 0.0
H4139 H 0.34969 0.87916 0.35035 0.0
C4140 C 0.29531 0.29996 0.13178 0.0
C4141 C 0.30147 0.29565 0.10782 0.0
C4142 C 0.2949 0.31279 0.12868 0.0
C4143 C 0.30083 0.34194 0.07256 0.0
H4144 H 0.32256 0.36736 0.14182 0.0
C4145 C 0.34587 0.39929 0.05646 0.0
C4146 C 0.35003 0.40921 0.08147 0.0
C4147 C 0.33357 0.38567 0.0592 0.0
C4148 C 0.31604 0.36042 0.12266 0.0
H4149 H 0.31106 0.30057 0.06108 0.0
H4150 H 0.31059 0.32311 0.05579 0.0
H4151 H 0.312 0.34143 0.14795 0.0
H4152 H 0.34385 0.41344 0.12731 0.0
H4153 H 0.32218 0.38954 0.13206 0.0
H4154 H 0.30578 0.36109 0.04652 0.0
C4155 C 0.30593 0.31657 0.07679 0.0
C4156 C 0.31 0.34552 0.12618 0.0
C4157 C 0.30641 0.30382 0.07997 0.0
C4158 C 0.34092 0.40586 0.10789 0.0
C4159 C 0.32855 0.39223 0.11059 0.0
C4160 C 0.3068 0.35686 0.06908 0.0
C4161 C 0.30054 0.32136 0.10148 0.0
C4162 C 0.30302 0.33625 0.10061 0.0
C4163 C 0.3252 0.38176 0.08697 0.0
C4164 C 0.31513 0.36627 0.09352 0.0
H4165 H 0.29148 0.2938 0.15351 0.0
H4166 H 0.29073 0.3163 0.14802 0.0
H4167 H 0.29534 0.33494 0.05264 0.0
H4168 H 0.35279 0.40152 0.03599 0.0
H4169 H 0.33145 0.37781 0.04076 0.0
C4170 C 0.64483 0.95971 0.10825 0.0
C4171 C 0.63703 0.95629 0.07988 0.0
C4172 C 0.65772 0.9594 0.10994 0.0
C4173 C 0.68736 0.96809 0.05831 0.0
H4174 H 0.70403 0.9633 0.13576 0.0
C4175 C 0.74717 1.00473 0.08318 0.0
C4176 C 0.74872 1.01246 0.11119 0.0
C4177 C 0.73441 0.99171 0.07738 0.0
C4178 C 0.69952 0.96443 0.11369 0.0
H4179 H 0.63577 0.94884 0.03174 0.0
H4180 H 0.65853 0.94837 0.0346 0.0
H4181 H 0.67774 0.94993 0.1286 0.0
H4182 H 0.73851 1.01231 0.15571 0.0
H4183 H 0.71641 0.98972 0.14568 0.0
H4184 H 0.70893 0.98359 0.04461 0.0
C4185 C 0.65464 0.95125 0.05549 0.0
C4186 C 0.68452 0.95681 0.1096 0.0
C4187 C 0.64167 0.9515 0.05387 0.0
C4188 C 0.73773 1.00651 0.13412 0.0
C4189 C 0.72507 0.9935 0.12842 0.0
C4190 C 0.70234 0.97571 0.0624 0.0
C4191 C 0.66302 0.9557 0.08319 0.0
C4192 C 0.67831 0.95929 0.08276 0.0
C4193 C 0.72311 0.98622 0.0996 0.0
C4194 C 0.70844 0.97462 0.09098 0.0
H4195 H 0.6413 0.96327 0.12868 0.0
H4196 H 0.66406 0.96312 0.13146 0.0
H4197 H 0.68287 0.97033 0.03749 0.0
H4198 H 0.7556 1.00897 0.06534 0.0
H4199 H 0.73313 0.98627 0.055 0.0
C4200 C 0.04018 0.74819 0.1424 0.0
C4201 C 0.03077 0.74361 0.11633 0.0
C4202 C 0.05336 0.74836 0.14066 0.0
C4203 C 0.07753 0.74281 0.08606 0.0
H4204 H 0.07506 0.71576 0.15054 0.0
C4205 C 0.08069 0.69295 0.06057 0.0
C4206 C 0.08599 0.68706 0.08308 0.0
C4207 C 0.08096 0.7059 0.06659 0.0
C4208 C 0.07636 0.7237 0.13289 0.0
H4209 H 0.02808 0.73691 0.06733 0.0
H4210 H 0.05089 0.7369 0.06434 0.0
H4211 H 0.06242 0.72916 0.15813 0.0
H4212 H 0.09668 0.6906 0.12859 0.0
H4213 H 0.09673 0.71317 0.13954 0.0
H4214 H 0.09037 0.73622 0.05954 0.0
C4215 C 0.0483 0.74054 0.08601 0.0
C4216 C 0.06911 0.73141 0.13725 0.0
C4217 C 0.03515 0.74032 0.0878 0.0
C4218 C 0.09228 0.69477 0.11107 0.0
C4219 C 0.09245 0.70772 0.11721 0.0
C4220 C 0.08478 0.73508 0.08168 0.0
C4221 C 0.05727 0.74402 0.11278 0.0
C4222 C 0.06888 0.74031 0.11299 0.0
C4223 C 0.08645 0.71318 0.09533 0.0
C4224 C 0.08347 0.72481 0.10421 0.0
H4225 H 0.03695 0.75076 0.16465 0.0
H4226 H 0.0601 0.75108 0.16158 0.0
H4227 H 0.07765 0.74977 0.06721 0.0
H4228 H 0.07557 0.68716 0.03903 0.0
H4229 H 0.07592 0.70965 0.04963 0.0
C4230 C 0.41189 0.3361 0.47457 0.0
C4231 C 0.41656 0.34631 0.45 0.0
C4232 C 0.39896 0.32297 0.4716 0.0
C4233 C 0.36941 0.30019 0.41562 0.0
H4234 H 0.34452 0.30003 0.48273 0.0
C4235 C 0.31553 0.29589 0.39457 0.0
C4236 C 0.30459 0.29018 0.41761 0.0
C4237 C 0.32835 0.29567 0.3992 0.0
C4238 C 0.35126 0.29944 0.46426 0.0
H4239 H 0.41231 0.35056 0.40227 0.0
H4240 H 0.38958 0.32779 0.39719 0.0
H4241 H 0.37057 0.31308 0.49004 0.0
H4242 H 0.29793 0.27873 0.46237 0.0
H4243 H 0.32065 0.27867 0.47083 0.0
H4244 H 0.35003 0.28758 0.38883 0.0
C4245 C 0.3959 0.32974 0.41858 0.0
C4246 C 0.36623 0.30694 0.46845 0.0
C4247 C 0.40876 0.34285 0.42161 0.0
C4248 C 0.30633 0.28343 0.44449 0.0
C4249 C 0.31923 0.28328 0.44921 0.0
C4250 C 0.35441 0.29264 0.41145 0.0
C4251 C 0.39063 0.31991 0.44397 0.0
C4252 C 0.37542 0.30812 0.44343 0.0
C4253 C 0.33051 0.2898 0.42703 0.0
C4254 C 0.3453 0.293 0.43501 0.0
H4255 H 0.41779 0.33861 0.4967 0.0
H4256 H 0.39508 0.31556 0.49147 0.0
H4257 H 0.37632 0.30082 0.39616 0.0
H4258 H 0.3146 0.30136 0.37384 0.0
H4259 H 0.33698 0.3011 0.38202 0.0
C4260 C 0.75918 0.03111 0.38932 0.0
C4261 C 0.75395 0.02127 0.4146 0.0
C4262 C 0.75944 0.0443 0.3916 0.0
C4263 C 0.7533 0.06786 0.44655 0.0
H4264 H 0.72767 0.06691 0.38021 0.0
C4265 C 0.70371 0.072 0.46888 0.0
C4266 C 0.69811 0.07729 0.44569 0.0
C4267 C 0.71676 0.07229 0.46386 0.0
C4268 C 0.73524 0.06781 0.39843 0.0
H4269 H 0.74613 0.01776 0.46285 0.0
H4270 H 0.74628 0.04062 0.46674 0.0
H4271 H 0.74072 0.05391 0.37319 0.0
H4272 H 0.70226 0.08809 0.40021 0.0
H4273 H 0.72506 0.08828 0.39111 0.0
H4274 H 0.74671 0.08074 0.4729 0.0
C4275 C 0.75035 0.03834 0.4453 0.0
C4276 C 0.74274 0.06033 0.3944 0.0
C4277 C 0.75003 0.02517 0.44297 0.0
C4278 C 0.70624 0.08371 0.41822 0.0
C4279 C 0.71931 0.08394 0.41313 0.0
C4280 C 0.74581 0.07538 0.45057 0.0
C4281 C 0.75455 0.04778 0.41924 0.0
C4282 C 0.75109 0.05956 0.41923 0.0
C4283 C 0.72444 0.07782 0.4355 0.0
C4284 C 0.73602 0.07462 0.42733 0.0
H4285 H 0.76223 0.02826 0.3672 0.0
H4286 H 0.7627 0.05141 0.37122 0.0
H4287 H 0.75983 0.06755 0.46586 0.0
H4288 H 0.6976 0.0668 0.49006 0.0
H4289 H 0.72025 0.06717 0.48123 0.0
C4290 C 1.01302 0.73518 0.38859 0.0
C4291 C 1.02219 0.73975 0.41505 0.0
C4292 C 0.99984 0.7222 0.38963 0.0
C4293 C 0.9752 0.692 0.44264 0.0
H4294 H 0.97849 0.66811 0.37778 0.0
C4295 C 0.9717 0.63873 0.46698 0.0
C4296 C 0.96702 0.62793 0.44374 0.0
C4297 C 0.97137 0.65141 0.46126 0.0
C4298 C 0.97695 0.67456 0.39551 0.0
H4299 H 1.02445 0.73532 0.46404 0.0
H4300 H 1.00163 0.71252 0.46581 0.0
H4301 H 0.99115 0.69416 0.37129 0.0
H4302 H 0.95727 0.62139 0.39724 0.0
H4303 H 0.95705 0.64388 0.3869 0.0
H4304 H 0.96205 0.67235 0.46813 0.0
C4305 C 1.00441 0.71893 0.44437 0.0
C4306 C 0.98423 0.68954 0.39178 0.0
C4307 C 1.01756 0.73185 0.44328 0.0
C4308 C 0.9612 0.62968 0.41534 0.0
C4309 C 0.96094 0.64245 0.40953 0.0
C4310 C 0.96791 0.677 0.44636 0.0
C4311 C 0.9957 0.71371 0.41719 0.0
C4312 C 0.98414 0.6984 0.41622 0.0
C4313 C 0.96641 0.65357 0.43211 0.0
C4314 C 0.9695 0.66827 0.42371 0.0
H4315 H 1.01644 0.74116 0.36657 0.0
H4316 H 0.9933 0.71837 0.3684 0.0
H4317 H 0.97484 0.69864 0.46161 0.0
H4318 H 0.97644 0.63779 0.4889 0.0
H4319 H 0.976 0.65993 0.47883 0.0
C4320 C 0.70272 0.63905 0.96554 0.0
C4321 C 0.69698 0.62808 0.94262 0.0
C4322 C 0.71571 0.65177 0.96004 0.0
C4323 C 0.73393 0.67469 0.89461 0.0
H4324 H 0.75955 0.6989 0.96136 0.0
C4325 C 0.75864 0.73537 0.88698 0.0
C4326 C 0.75385 0.74 0.91301 0.0
C4327 C 0.75874 0.72234 0.88844 0.0
C4328 C 0.75272 0.69223 0.94222 0.0
H4329 H 0.70081 0.62133 0.89694 0.0
H4330 H 0.72346 0.64392 0.88693 0.0
H4331 H 0.74598 0.67263 0.96813 0.0
H4332 H 0.7467 0.73561 0.96172 0.0
H4333 H 0.74657 0.71274 0.96422 0.0
H4334 H 0.73955 0.69426 0.86994 0.0
C4335 C 0.71787 0.64256 0.90916 0.0
C4336 C 0.74498 0.67724 0.94608 0.0
C4337 C 0.70487 0.62975 0.91477 0.0
C4338 C 0.75027 0.73209 0.94127 0.0
C4339 C 0.75042 0.71914 0.94279 0.0
C4340 C 0.74166 0.68966 0.89076 0.0
C4341 C 0.72318 0.65381 0.93144 0.0
C4342 C 0.73486 0.66847 0.92314 0.0
C4343 C 0.75413 0.71388 0.91601 0.0
C4344 C 0.7504 0.69858 0.9154 0.0
H4345 H 0.69678 0.63819 0.98699 0.0
H4346 H 0.71934 0.66039 0.97731 0.0
H4347 H 0.72611 0.6682 0.87665 0.0
H4348 H 0.76144 0.74136 0.86494 0.0
H4349 H 0.76163 0.71849 0.86751 0.0
C4350 C 0.30561 0.02829 0.94804 0.0
C4351 C 0.3041 0.02069 0.91984 0.0
C4352 C 0.31837 0.04124 0.95417 0.0
C4353 C 0.35319 0.06883 0.91842 0.0
H4354 H 0.37001 0.0626 0.99396 0.0
C4355 C 0.40813 0.07417 0.92259 0.0
C4356 C 0.41589 0.07729 0.95098 0.0
C4357 C 0.39519 0.0744 0.92131 0.0
C4358 C 0.36547 0.06494 0.97335 0.0
H4359 H 0.31444 0.021 0.87539 0.0
H4360 H 0.33655 0.04352 0.88597 0.0
H4361 H 0.34394 0.04918 0.98683 0.0
H4362 H 0.41706 0.08417 0.99957 0.0
H4363 H 0.39423 0.08452 0.99741 0.0
H4364 H 0.37493 0.08364 0.90372 0.0
C4365 C 0.32784 0.03967 0.90313 0.0
C4366 C 0.35049 0.05722 0.96925 0.0
C4367 C 0.31518 0.0267 0.89711 0.0
C4368 C 0.41118 0.08174 0.97744 0.0
C4369 C 0.39817 0.08192 0.97621 0.0
C4370 C 0.36819 0.07658 0.92254 0.0
C4371 C 0.32973 0.04683 0.93207 0.0
C4372 C 0.34435 0.05844 0.94087 0.0
C4373 C 0.38981 0.07773 0.94846 0.0
C4374 C 0.37447 0.07398 0.94912 0.0
H4375 H 0.29711 0.024 0.96574 0.0
H4376 H 0.31961 0.04659 0.97666 0.0
H4377 H 0.34864 0.07005 0.8965 0.0
H4378 H 0.41171 0.07088 0.90183 0.0
H4379 H 0.38888 0.07088 0.89973 0.0
C4380 C 0.95184 0.33152 0.92212 0.0
C4381 C 0.95735 0.34026 0.94911 0.0
C4382 C 0.95319 0.31922 0.9188 0.0
C4383 C 0.96661 0.297 0.95936 0.0
H4384 H 0.98782 0.30319 0.881 0.0
C4385 C 1.01928 0.29638 0.94863 0.0
C4386 C 1.02262 0.29174 0.9205 0.0
C4387 C 1.00608 0.296 0.95179 0.0
C4388 C 0.98158 0.30093 0.90259 0.0
H4389 H 0.9674 0.34242 0.99489 0.0
H4390 H 0.96993 0.3212 0.98903 0.0
H4391 H 0.97239 0.31369 0.88755 0.0
H4392 H 1.01469 0.2824 0.87424 0.0
H4393 H 0.9915 0.28181 0.87971 0.0
H4394 H 0.97698 0.28532 0.97527 0.0
C4395 C 0.96432 0.32356 0.97062 0.0
C4396 C 0.97267 0.30693 0.90636 0.0
C4397 C 0.96292 0.33578 0.97398 0.0
C4398 C 1.01228 0.28599 0.89619 0.0
C4399 C 0.99908 0.28567 0.89928 0.0
C4400 C 0.97561 0.29108 0.95565 0.0
C4401 C 0.96014 0.31558 0.94235 0.0
C4402 C 0.96568 0.30563 0.93536 0.0
C4403 C 0.99604 0.29101 0.92679 0.0
C4404 C 0.98368 0.29359 0.92779 0.0
H4405 H 0.94733 0.3347 0.90279 0.0
H4406 H 0.9497 0.31315 0.89694 0.0
H4407 H 0.96119 0.29569 0.9818 0.0
H4408 H 0.02707 0.30072 0.96779 0.0
H4409 H 1.00411 0.30042 0.97305 0.0
C4410 C 0.73786 0.74044 0.6399 0.0
C4411 C 0.74949 0.74597 0.61851 0.0
C4412 C 0.72508 0.74023 0.63202 0.0
C4413 C 0.70401 0.7343 0.56307 0.0
H4414 H 0.67738 0.73645 0.62253 0.0
C4415 C 0.64389 0.69941 0.54321 0.0
C4416 C 0.63695 0.69077 0.56974 0.0
C4417 C 0.6572 0.71206 0.54643 0.0
C4418 C 0.68473 0.73596 0.60549 0.0
H4419 H 0.75736 0.75661 0.57318 0.0
H4420 H 0.73467 0.75579 0.55895 0.0
H4421 H 0.70336 0.74909 0.6341 0.0
H4422 H 0.6378 0.68915 0.62072 0.0
H4423 H 0.66145 0.71072 0.62615 0.0
H4424 H 0.68548 0.72007 0.53595 0.0
C4425 C 0.73557 0.75173 0.58183 0.0
C4426 C 0.69954 0.74323 0.61204 0.0
C4427 C 0.74843 0.75204 0.58983 0.0
C4428 C 0.64308 0.69546 0.59979 0.0
C4429 C 0.6565 0.70799 0.60295 0.0
C4430 C 0.68923 0.72695 0.55665 0.0
C4431 C 0.72369 0.74546 0.60253 0.0
C4432 C 0.70916 0.74185 0.5916 0.0
C4433 C 0.6639 0.71613 0.57614 0.0
C4434 C 0.6794 0.72712 0.5786 0.0
H4435 H 0.7383 0.73551 0.66197 0.0
H4436 H 0.71595 0.73503 0.64809 0.0
H4437 H 0.71118 0.73288 0.54715 0.0
H4438 H 0.63946 0.69602 0.51969 0.0
H4439 H 0.66261 0.71822 0.52543 0.0
C4440 C 0.35002 0.96262 0.56337 0.0
C4441 C 0.35581 0.95733 0.58614 0.0
C4442 C 0.337 0.96231 0.56899 0.0
C4443 C 0.31891 0.96684 0.6349 0.0
H4444 H 0.29334 0.96604 0.56854 0.0
C4445 C 0.29455 1.00316 0.64392 0.0
C4446 C 0.29939 1.01269 0.61808 0.0
C4447 C 0.29436 0.98999 0.64209 0.0
C4448 C 0.30015 0.96602 0.58756 0.0
H4449 H 0.35203 0.94658 0.63163 0.0
H4450 H 0.32932 0.94643 0.64187 0.0
H4451 H 0.30676 0.95317 0.5612 0.0
H4452 H 0.30654 1.01566 0.56936 0.0
H4453 H 0.30652 0.99286 0.56623 0.0
H4454 H 0.31344 0.98078 0.66003 0.0
C4455 C 0.3349 0.95075 0.61965 0.0
C4456 C 0.30781 0.95868 0.58338 0.0
C4457 C 0.34792 0.95097 0.61392 0.0
C4458 C 0.30294 1.00848 0.58966 0.0
C4459 C 0.3027 0.99534 0.58777 0.0
C4460 C 0.31126 0.97417 0.63908 0.0
C4461 C 0.32955 0.95678 0.59758 0.0
C4462 C 0.31792 0.95982 0.60618 0.0
C4463 C 0.29893 0.98623 0.61434 0.0
C4464 C 0.30255 0.97456 0.61458 0.0
H4465 H 0.35595 0.96779 0.54197 0.0
H4466 H 0.33335 0.96736 0.55187 0.0
H4467 H 0.32673 0.96801 0.65275 0.0
H4468 H 0.29178 1.00626 0.66608 0.0
H4469 H 0.29143 0.98314 0.66286 0.0
C4470 C 0.08824 0.4026 0.62588 0.0
C4471 C 0.08423 0.40469 0.59551 0.0
C4472 C 0.08844 0.38992 0.63307 0.0
C4473 C 0.08642 0.35714 0.59801 0.0
H4474 H 0.05921 0.33712 0.66595 0.0
C4475 C 0.04199 0.29933 0.59126 0.0
C4476 C 0.0353 0.29162 0.61891 0.0
C4477 C 0.05443 0.31288 0.59315 0.0
C4478 C 0.06725 0.34258 0.64763 0.0
H4479 H 0.07779 0.3954 0.54861 0.0
H4480 H 0.07824 0.3734 0.56109 0.0
H4481 H 0.06963 0.36304 0.66026 0.0
H4482 H 0.03712 0.29102 0.66981 0.0
H4483 H 0.05917 0.31467 0.67314 0.0
H4484 H 0.08321 0.33644 0.5841 0.0
C4485 C 0.08145 0.38163 0.57919 0.0
C4486 C 0.07319 0.35748 0.64433 0.0
C4487 C 0.08114 0.39422 0.57208 0.0
C4488 C 0.04213 0.29682 0.64817 0.0
C4489 C 0.05466 0.31037 0.65008 0.0
C4490 C 0.08055 0.34222 0.60145 0.0
C4491 C 0.08477 0.37922 0.60992 0.0
C4492 C 0.08218 0.36472 0.61849 0.0
C4493 C 0.06041 0.31888 0.62275 0.0
C4494 C 0.07026 0.33469 0.6252 0.0
H4495 H 0.09093 0.41062 0.64425 0.0
H4496 H 0.09103 0.38826 0.65693 0.0
H4497 H 0.09347 0.36257 0.5781 0.0
H4498 H 0.03694 0.2954 0.56841 0.0
H4499 H 0.05846 0.31915 0.57162 0.0
C4500 C 0.97535 0.61825 0.72413 0.0
C4501 C 0.97078 0.62332 0.74974 0.0
C4502 C 0.98827 0.6179 0.7261 0.0
C4503 C 1.0181 0.62377 0.78074 0.0
H4504 H 0.0426 0.6498 0.71482 0.0
C4505 C 0.07142 0.67358 0.80366 0.0
C4506 C 0.08245 0.67919 0.7808 0.0
C4507 C 0.05871 0.66056 0.79841 0.0
C4508 C 0.03598 0.64212 0.73291 0.0
H4509 H 0.97511 0.63074 0.79825 0.0
H4510 H 0.99778 0.63044 0.80163 0.0
H4511 H 1.01654 0.63661 0.70772 0.0
H4512 H 0.08933 0.67508 0.73557 0.0
H4513 H 0.06677 0.65237 0.72597 0.0
H4514 H 0.03759 0.63044 0.80711 0.0
C4515 C 0.99143 0.62655 0.78015 0.0
C4516 C 1.021 0.63453 0.72883 0.0
C4517 C 0.97859 0.62695 0.77812 0.0
C4518 C 0.08087 0.67111 0.75333 0.0
C4519 C 0.06807 0.65809 0.74797 0.0
C4520 C 0.0331 0.63137 0.78483 0.0
C4521 C 0.99666 0.62255 0.75377 0.0
C4522 C 1.01192 0.62603 0.75355 0.0
C4523 C 0.05674 0.65293 0.77009 0.0
C4524 C 0.04205 0.64129 0.76175 0.0
H4525 H 0.96943 0.61541 0.70201 0.0
H4526 H 0.99211 0.61479 0.70548 0.0
H4527 H 1.01129 0.61711 0.79996 0.0
H4528 H 0.07222 0.67965 0.82482 0.0
H4529 H 0.05003 0.65704 0.81555 0.0
C4530 C 0.42566 0.36393 0.71954 0.0
C4531 C 0.42091 0.35458 0.7457 0.0
C4532 C 0.42591 0.37713 0.72094 0.0
C4533 C 0.42033 0.40153 0.77458 0.0
H4534 H 0.39339 0.39889 0.70961 0.0
C4535 C 0.37049 0.40493 0.79902 0.0
C4536 C 0.36442 0.40977 0.77594 0.0
C4537 C 0.38355 0.40534 0.79333 0.0
C4538 C 0.40131 0.40025 0.72739 0.0
H4539 H 0.41398 0.352 0.79455 0.0
H4540 H 0.41411 0.37487 0.79694 0.0
H4541 H 0.40672 0.38615 0.70275 0.0
H4542 H 0.36775 0.4199 0.72982 0.0
H4543 H 0.39056 0.42028 0.71952 0.0
H4544 H 0.41382 0.41457 0.80047 0.0
C4545 C 0.41782 0.37221 0.77547 0.0
C4546 C 0.40898 0.39293 0.72344 0.0
C4547 C 0.41752 0.35903 0.77401 0.0
C4548 C 0.37209 0.41585 0.74778 0.0
C4549 C 0.38517 0.4162 0.742 0.0
C4550 C 0.41267 0.40887 0.77852 0.0
C4551 C 0.42148 0.38112 0.74857 0.0
C4552 C 0.41783 0.39277 0.7479 0.0
C4553 C 0.39078 0.41055 0.76438 0.0
C4554 C 0.40241 0.4075 0.75583 0.0
H4555 H 0.42831 0.36064 0.69746 0.0
H4556 H 0.42875 0.38382 0.69992 0.0
H4557 H 0.42725 0.40169 0.79358 0.0
H4558 H 0.36474 0.39999 0.82073 0.0
H4559 H 0.38742 0.40058 0.81073 0.0
C4560 C 0.68436 0.06547 0.77398 0.0
C4561 C 0.68924 0.07317 0.74557 0.0
C4562 C 0.67126 0.05249 0.7749 0.0
C4563 C 0.65173 0.02267 0.72277 0.0
H4564 H 0.62905 1.00588 0.79873 0.0
C4565 C 0.62838 0.96288 0.74889 0.0
C4566 C 0.63415 0.96135 0.77761 0.0
C4567 C 0.62827 0.97565 0.7422 0.0
C4568 C 0.63505 1.01043 0.77705 0.0
H4569 H 0.68399 0.07418 0.69649 0.0
H4570 H 0.66094 0.05129 0.69803 0.0
H4571 H 0.64168 0.03212 0.79129 0.0
H4572 H 0.6437 0.97168 0.82234 0.0
H4573 H 0.64345 0.99381 0.81078 0.0
H4574 H 0.64623 1.00118 0.70981 0.0
C4575 C 0.66724 0.05531 0.71953 0.0
C4576 C 0.64225 0.02539 0.7728 0.0
C4577 C 0.68036 0.06835 0.71866 0.0
C4578 C 0.63898 0.97243 0.80022 0.0
C4579 C 0.63877 0.9851 0.79364 0.0
C4580 C 0.64452 1.00772 0.72699 0.0
C4581 C 0.66286 0.04701 0.74736 0.0
C4582 C 0.65138 0.03167 0.7466 0.0
C4583 C 0.63381 0.987 0.76424 0.0
C4584 C 0.63688 1.0016 0.75509 0.0
H4585 H 0.69101 0.06913 0.79509 0.0
H4586 H 0.6683 0.04623 0.79658 0.0
H4587 H 0.6588 0.0272 0.70246 0.0
H4588 H 0.62434 0.95438 0.73126 0.0
H4589 H 0.62441 0.97689 0.71937 0.0
C4590 C 0.4257 0.07082 0.28122 0.0
C4591 C 0.4194 0.07256 0.25356 0.0
C4592 C 0.42586 0.05797 0.28657 0.0
C4593 C 0.41765 0.0231 0.24941 0.0
H4594 H 0.39583 1.0065 0.32642 0.0
C4595 C 0.36787 0.96834 0.25641 0.0
C4596 C 0.36389 0.96054 0.28481 0.0
C4597 C 0.38095 0.9813 0.25427 0.0
C4598 C 0.40236 1.01097 0.30533 0.0
H4599 H 0.40899 0.06258 0.20917 0.0
H4600 H 0.40926 0.0403 0.21843 0.0
H4601 H 0.40862 0.03253 0.31936 0.0
H4602 H 0.37067 0.95938 0.33251 0.0
H4603 H 0.39368 0.98224 0.32884 0.0
H4604 H 0.41017 1.00134 0.23427 0.0
C4605 C 0.41434 0.04889 0.23575 0.0
C4606 C 0.40971 0.02593 0.30128 0.0
C4607 C 0.41411 0.06165 0.2305 0.0
C4608 C 0.37359 0.96528 0.31036 0.0
C4609 C 0.38669 0.97831 0.30828 0.0
C4610 C 0.41027 1.00812 0.25346 0.0
C4611 C 0.41979 0.04675 0.26424 0.0
C4612 C 0.41665 0.03202 0.27249 0.0
C4613 C 0.39023 0.98665 0.28057 0.0
C4614 C 0.40185 1.00193 0.28064 0.0
H4615 H 0.43008 0.07919 0.29915 0.0
H4616 H 0.43013 0.05656 0.30869 0.0
H4617 H 0.4231 0.02761 0.22717 0.0
H4618 H 0.36057 0.96474 0.23632 0.0
H4619 H 0.38326 0.98761 0.23277 0.0
C4620 C 0.97212 0.36092 0.28129 0.0
C4621 C 0.97067 0.35362 0.25268 0.0
C4622 C 0.9849 0.37377 0.288 0.0
C4623 C 1.01988 0.40163 0.25346 0.0
H4624 H 0.03634 0.3945 0.32847 0.0
C4625 C 0.07526 0.40779 0.25796 0.0
C4626 C 0.08279 0.41056 0.28661 0.0
C4627 C 0.06216 0.40772 0.25666 0.0
C4628 C 0.0319 0.39708 0.30804 0.0
H4629 H 0.98112 0.35436 0.2081 0.0
H4630 H 1.00326 0.37669 0.21969 0.0
H4631 H 1.01032 0.38115 0.3207 0.0
H4632 H 0.08332 0.4165 0.33577 0.0
H4633 H 0.06029 0.41639 0.33351 0.0
H4634 H 0.04167 0.41667 0.23957 0.0
C4635 C 0.9945 0.37269 0.23673 0.0
C4636 C 1.01695 0.3894 0.30358 0.0
C4637 C 0.98181 0.35983 0.23014 0.0
C4638 C 0.07765 0.41435 0.3134 0.0
C4639 C 0.06451 0.41426 0.31213 0.0
C4640 C 0.03485 0.40934 0.25796 0.0
C4641 C 0.99632 0.37953 0.26607 0.0
C4642 C 1.01093 0.39098 0.27536 0.0
C4643 C 0.05641 0.41042 0.28404 0.0
C4644 C 0.04101 0.40645 0.28435 0.0
H4645 H 0.96357 0.35648 0.29885 0.0
H4646 H 0.98609 0.37888 0.31078 0.0
H4647 H 1.01542 0.40312 0.23168 0.0
H4648 H 0.07917 0.40503 0.23692 0.0
H4649 H 0.05607 0.40448 0.23478 0.0
C4650 C 0.6372 0.67362 0.30918 0.0
C4651 C 0.63107 0.67873 0.28679 0.0
C4652 C 0.63683 0.66054 0.30437 0.0
C4653 C 0.6402 0.64204 0.23846 0.0
H4654 H 0.64143 0.61712 0.30383 0.0
C4655 C 0.67593 0.61749 0.22135 0.0
C4656 C 0.68567 0.62086 0.24662 0.0
C4657 C 0.66317 0.61792 0.22541 0.0
C4658 C 0.64095 0.62385 0.28519 0.0
H4659 H 0.61859 0.67361 0.24336 0.0
H4660 H 0.61838 0.65083 0.23446 0.0
H4661 H 0.62856 0.63038 0.31358 0.0
H4662 H 0.68919 0.62613 0.29651 0.0
H4663 H 0.6674 0.62779 0.30316 0.0
H4664 H 0.65373 0.6368 0.21121 0.0
C4665 C 0.62339 0.65697 0.25572 0.0
C4666 C 0.63354 0.63134 0.29071 0.0
C4667 C 0.62366 0.67003 0.26066 0.0
C4668 C 0.68201 0.62379 0.27647 0.0
C4669 C 0.66936 0.62443 0.28041 0.0
C4670 C 0.64768 0.63465 0.23303 0.0
C4671 C 0.63043 0.6524 0.27698 0.0
C4672 C 0.63378 0.64107 0.26798 0.0
C4673 C 0.66006 0.62197 0.25463 0.0
C4674 C 0.64877 0.6261 0.257 0.0
H4675 H 0.64315 0.68015 0.32933 0.0
H4676 H 0.64262 0.65743 0.3208 0.0
H4677 H 0.64073 0.64964 0.22069 0.0
H4678 H 0.67849 0.61527 0.19799 0.0
H4679 H 0.65613 0.61585 0.20523 0.0
loop_
_geom_bond_atom_site_label_1
_geom_bond_atom_site_label_2
_geom_bond_distance
_geom_bond_site_symmetry_2
_ccdc_geom_bond_type
Ho0 C3 2.811 . S
Ho0 O20 2.322 . S
Ho0 O22 2.378 . S
Ho0 O23 2.524 . S
Ho0 O24 2.381 . S
Ho0 O25 2.669 . S
Ho0 O27 2.346 . S
Ho0 O31 2.305 . S
Ho1 C12 2.811 . S
Ho1 O21 2.346 . S
Ho1 O25 2.305 . S
Ho1 O26 2.322 . S
Ho1 O28 2.378 . S
Ho1 O29 2.524 . S
Ho1 O30 2.381 . S
Ho1 O31 2.669 . S
C2 O20 1.259 . S
C2 O21 1.268 . S
C3 Ho0 2.811 . S
C3 C4 1.488 . S
C3 O22 1.215 . S
C3 O23 1.289 . S
C4 C3 1.488 . S
C4 C5 1.348 . S
C4 C9 1.413 . S
C5 C4 1.348 . S
C5 C6 1.442 . S
C5 H32 0.930 . S
C6 C5 1.442 . S
C6 C7 1.381 . S
C6 H33 0.931 . S
C7 C6 1.381 . S
C7 C8 1.321 . S
C8 C7 1.321 . S
C8 C9 1.403 . S
C8 H34 0.934 . S
C9 C4 1.413 . S
C9 C8 1.403 . S
C9 H35 0.930 . S
C10 O24 1.275 . S
C10 O25 1.256 . S
C11 O26 1.259 . S
C11 O27 1.268 . S
C12 Ho1 2.811 . S
C12 C13 1.488 . S
C12 O28 1.215 . S
C12 O29 1.289 . S
C13 C12 1.488 . S
C13 C14 1.348 . S
C13 C18 1.413 . S
C14 C13 1.348 . S
C14 C15 1.442 . S
C14 H36 0.930 . S
C15 C14 1.442 . S
C15 C16 1.381 . S
C15 H37 0.931 . S
C16 C15 1.381 . S
C16 C17 1.321 . S
C17 C16 1.321 . S
C17 C18 1.403 . S
C17 H38 0.934 . S
C18 C13 1.413 . S
C18 C17 1.403 . S
C18 H39 0.930 . S
C19 O30 1.275 . S
C19 O31 1.256 . S
O20 Ho0 2.322 . S
O20 C2 1.259 . S
O21 Ho1 2.346 . S
O21 C2 1.268 . S
O22 Ho0 2.378 . S
O22 C3 1.215 . S
O23 Ho0 2.524 . S
O23 C3 1.289 . S
O24 Ho0 2.381 . S
O24 C10 1.275 . S
O25 Ho0 2.669 . S
O25 Ho1 2.305 . S
O25 C10 1.256 . S
O26 Ho1 2.322 . S
O26 C11 1.259 . S
O27 Ho0 2.346 . S
O27 C11 1.268 . S
O28 Ho1 2.378 . S
O28 C12 1.215 . S
O29 Ho1 2.524 . S
O29 C12 1.289 . S
O30 Ho1 2.381 . S
O30 C19 1.275 . S
O31 Ho0 2.305 . S
O31 Ho1 2.669 . S
O31 C19 1.256 . S
H32 C5 0.930 . S
H33 C6 0.931 . S
H34 C8 0.934 . S
H35 C9 0.930 . S
H36 C14 0.930 . S
H37 C15 0.931 . S
H38 C17 0.934 . S
H39 C18 0.930 . S
Ho40 C43 2.811 . S
Ho40 O60 2.322 . S
Ho40 O62 2.378 . S
Ho40 O63 2.524 . S
Ho40 O64 2.381 . S
Ho40 O65 2.669 . S
Ho40 O67 2.346 . S
Ho40 O71 2.305 . S
Ho41 C52 2.811 . S
Ho41 O61 2.346 . S
Ho41 O65 2.305 . S
Ho41 O66 2.322 . S
Ho41 O68 2.378 . S
Ho41 O69 2.524 . S
Ho41 O70 2.381 . S
Ho41 O71 2.669 . S
C42 O60 1.259 . S
C42 O61 1.268 . S
C43 Ho40 2.811 . S
C43 C44 1.488 . S
C43 O62 1.215 . S
C43 O63 1.289 . S
C44 C43 1.488 . S
C44 C45 1.348 . S
C44 C49 1.413 . S
C45 C44 1.348 . S
C45 C46 1.442 . S
C45 H72 0.930 . S
C46 C45 1.442 . S
C46 C47 1.381 . S
C46 H73 0.931 . S
C47 C46 1.381 . S
C47 C48 1.321 . S
C48 C47 1.321 . S
C48 C49 1.403 . S
C48 H74 0.934 . S
C49 C44 1.413 . S
C49 C48 1.403 . S
C49 H75 0.930 . S
C50 O64 1.275 . S
C50 O65 1.256 . S
C51 O66 1.259 . S
C51 O67 1.268 . S
C52 Ho41 2.811 . S
C52 C53 1.488 . S
C52 O68 1.215 . S
C52 O69 1.289 . S
C53 C52 1.488 . S
C53 C54 1.348 . S
C53 C58 1.413 . S
C54 C53 1.348 . S
C54 C55 1.442 . S
C54 H76 0.930 . S
C55 C54 1.442 . S
C55 C56 1.381 . S
C55 H77 0.931 1_545 S
C56 C55 1.381 . S
C56 C57 1.321 . S
C57 C56 1.321 . S
C57 C58 1.403 . S
C57 H78 0.934 . S
C58 C53 1.413 . S
C58 C57 1.403 . S
C58 H79 0.930 . S
C59 O70 1.275 . S
C59 O71 1.256 . S
O60 Ho40 2.322 . S
O60 C42 1.259 . S
O61 Ho41 2.346 . S
O61 C42 1.268 . S
O62 Ho40 2.378 . S
O62 C43 1.215 . S
O63 Ho40 2.524 . S
O63 C43 1.289 . S
O64 Ho40 2.381 . S
O64 C50 1.275 . S
O65 Ho40 2.669 . S
O65 Ho41 2.305 . S
O65 C50 1.256 . S
O66 Ho41 2.322 . S
O66 C51 1.259 . S
O67 Ho40 2.346 . S
O67 C51 1.268 . S
O68 Ho41 2.378 . S
O68 C52 1.215 . S
O69 Ho41 2.524 . S
O69 C52 1.289 . S
O70 Ho41 2.381 . S
O70 C59 1.275 . S
O71 Ho40 2.305 . S
O71 Ho41 2.669 . S
O71 C59 1.256 . S
H72 C45 0.930 . S
H73 C46 0.931 . S
H74 C48 0.934 . S
H75 C49 0.930 . S
H76 C54 0.930 . S
H77 C55 0.931 1_565 S
H78 C57 0.934 . S
H79 C58 0.930 . S
Ho80 C83 2.811 . S
Ho80 O100 2.322 . S
Ho80 O102 2.378 . S
Ho80 O103 2.524 . S
Ho80 O104 2.381 . S
Ho80 O105 2.669 . S
Ho80 O107 2.346 . S
Ho80 O111 2.305 . S
Ho81 C92 2.811 . S
Ho81 O101 2.346 . S
Ho81 O105 2.305 . S
Ho81 O106 2.322 . S
Ho81 O108 2.378 . S
Ho81 O109 2.524 . S
Ho81 O110 2.381 . S
Ho81 O111 2.669 . S
C82 O100 1.259 . S
C82 O101 1.268 . S
C83 Ho80 2.811 . S
C83 C84 1.488 . S
C83 O102 1.215 . S
C83 O103 1.289 . S
C84 C83 1.488 . S
C84 C85 1.348 . S
C84 C89 1.413 . S
C85 C84 1.348 . S
C85 C86 1.442 . S
C85 H112 0.930 . S
C86 C85 1.442 . S
C86 C87 1.381 . S
C86 H113 0.931 . S
C87 C86 1.381 . S
C87 C88 1.321 . S
C88 C87 1.321 . S
C88 C89 1.403 . S
C88 H114 0.934 . S
C89 C84 1.413 . S
C89 C88 1.403 . S
C89 H115 0.930 . S
C90 O104 1.275 . S
C90 O105 1.256 . S
C91 O106 1.259 . S
C91 O107 1.268 . S
C92 Ho81 2.811 . S
C92 C93 1.488 . S
C92 O108 1.215 . S
C92 O109 1.289 . S
C93 C92 1.488 . S
C93 C94 1.348 . S
C93 C98 1.413 . S
C94 C93 1.348 . S
C94 C95 1.442 . S
C94 H116 0.930 . S
C95 C94 1.442 . S
C95 C96 1.381 . S
C95 H117 0.931 1_655 S
C96 C95 1.381 . S
C96 C97 1.321 . S
C97 C96 1.321 . S
C97 C98 1.403 . S
C97 H118 0.934 . S
C98 C93 1.413 . S
C98 C97 1.403 . S
C98 H119 0.930 . S
C99 O110 1.275 . S
C99 O111 1.256 . S
O100 Ho80 2.322 . S
O100 C82 1.259 . S
O101 Ho81 2.346 . S
O101 C82 1.268 . S
O102 Ho80 2.378 . S
O102 C83 1.215 . S
O103 Ho80 2.524 . S
O103 C83 1.289 . S
O104 Ho80 2.381 . S
O104 C90 1.275 . S
O105 Ho80 2.669 . S
O105 Ho81 2.305 . S
O105 C90 1.256 . S
O106 Ho81 2.322 . S
O106 C91 1.259 . S
O107 Ho80 2.346 . S
O107 C91 1.268 . S
O108 Ho81 2.378 . S
O108 C92 1.215 . S
O109 Ho81 2.524 . S
O109 C92 1.289 . S
O110 Ho81 2.381 . S
O110 C99 1.275 . S
O111 Ho80 2.305 . S
O111 Ho81 2.669 . S
O111 C99 1.256 . S
H112 C85 0.930 . S
H113 C86 0.931 . S
H114 C88 0.934 . S
H115 C89 0.930 . S
H116 C94 0.930 . S
H117 C95 0.931 1_455 S
H118 C97 0.934 . S
H119 C98 0.930 . S
Ho120 C123 2.811 . S
Ho120 O140 2.322 . S
Ho120 O142 2.378 . S
Ho120 O143 2.524 . S
Ho120 O144 2.381 . S
Ho120 O145 2.669 . S
Ho120 O147 2.346 . S
Ho120 O151 2.305 . S
Ho121 C132 2.811 . S
Ho121 O141 2.346 . S
Ho121 O145 2.305 . S
Ho121 O146 2.322 . S
Ho121 O148 2.378 . S
Ho121 O149 2.524 . S
Ho121 O150 2.381 . S
Ho121 O151 2.669 . S
C122 O140 1.259 . S
C122 O141 1.268 . S
C123 Ho120 2.811 . S
C123 C124 1.488 . S
C123 O142 1.215 . S
C123 O143 1.289 . S
C124 C123 1.488 . S
C124 C125 1.348 . S
C124 C129 1.413 . S
C125 C124 1.348 . S
C125 C126 1.442 . S
C125 H152 0.930 . S
C126 C125 1.442 . S
C126 C127 1.381 . S
C126 H153 0.931 . S
C127 C126 1.381 . S
C127 C128 1.321 . S
C128 C127 1.321 . S
C128 C129 1.403 . S
C128 H154 0.934 . S
C129 C124 1.413 . S
C129 C128 1.403 . S
C129 H155 0.930 . S
C130 O144 1.275 . S
C130 O145 1.256 . S
C131 O146 1.259 . S
C131 O147 1.268 . S
C132 Ho121 2.811 . S
C132 C133 1.488 . S
C132 O148 1.215 . S
C132 O149 1.289 . S
C133 C132 1.488 . S
C133 C134 1.348 . S
C133 C138 1.413 . S
C134 C133 1.348 . S
C134 C135 1.442 . S
C134 H156 0.930 . S
C135 C134 1.442 . S
C135 C136 1.381 . S
C135 H157 0.931 . S
C136 C135 1.381 . S
C136 C137 1.321 . S
C137 C136 1.321 . S
C137 C138 1.403 . S
C137 H158 0.934 . S
C138 C133 1.413 . S
C138 C137 1.403 . S
C138 H159 0.930 . S
C139 O150 1.275 . S
C139 O151 1.256 . S
O140 Ho120 2.322 . S
O140 C122 1.259 . S
O141 Ho121 2.346 . S
O141 C122 1.268 . S
O142 Ho120 2.378 . S
O142 C123 1.215 . S
O143 Ho120 2.524 . S
O143 C123 1.289 . S
O144 Ho120 2.381 . S
O144 C130 1.275 . S
O145 Ho120 2.669 . S
O145 Ho121 2.305 . S
O145 C130 1.256 . S
O146 Ho121 2.322 . S
O146 C131 1.259 . S
O147 Ho120 2.346 . S
O147 C131 1.268 . S
O148 Ho121 2.378 . S
O148 C132 1.215 . S
O149 Ho121 2.524 . S
O149 C132 1.289 . S
O150 Ho121 2.381 . S
O150 C139 1.275 . S
O151 Ho120 2.305 . S
O151 Ho121 2.669 . S
O151 C139 1.256 . S
H152 C125 0.930 . S
H153 C126 0.931 . S
H154 C128 0.934 . S
H155 C129 0.930 . S
H156 C134 0.930 . S
H157 C135 0.931 . S
H158 C137 0.934 . S
H159 C138 0.930 . S
Ho160 C163 2.811 . S
Ho160 O180 2.322 . S
Ho160 O182 2.378 . S
Ho160 O183 2.524 . S
Ho160 O184 2.381 . S
Ho160 O185 2.669 . S
Ho160 O187 2.346 . S
Ho160 O191 2.305 . S
Ho161 C172 2.811 . S
Ho161 O181 2.346 . S
Ho161 O185 2.305 . S
Ho161 O186 2.322 . S
Ho161 O188 2.378 . S
Ho161 O189 2.524 . S
Ho161 O190 2.381 . S
Ho161 O191 2.669 . S
C162 O180 1.259 . S
C162 O181 1.268 . S
C163 Ho160 2.811 . S
C163 C164 1.488 . S
C163 O182 1.215 . S
C163 O183 1.289 . S
C164 C163 1.488 . S
C164 C165 1.348 . S
C164 C169 1.413 . S
C165 C164 1.348 . S
C165 C166 1.442 . S
C165 H192 0.930 . S
C166 C165 1.442 . S
C166 C167 1.381 . S
C166 H193 0.931 . S
C167 C166 1.381 . S
C167 C168 1.321 . S
C168 C167 1.321 . S
C168 C169 1.403 . S
C168 H194 0.934 . S
C169 C164 1.413 . S
C169 C168 1.403 . S
C169 H195 0.930 . S
C170 O184 1.275 . S
C170 O185 1.256 . S
C171 O186 1.259 . S
C171 O187 1.268 . S
C172 Ho161 2.811 . S
C172 C173 1.488 . S
C172 O188 1.215 . S
C172 O189 1.289 . S
C173 C172 1.488 . S
C173 C174 1.348 . S
C173 C178 1.413 . S
C174 C173 1.348 . S
C174 C175 1.442 . S
C174 H196 0.930 . S
C175 C174 1.442 . S
C175 C176 1.381 . S
C175 H197 0.931 1_565 S
C176 C175 1.381 . S
C176 C177 1.321 . S
C177 C176 1.321 . S
C177 C178 1.403 . S
C177 H198 0.934 . S
C178 C173 1.413 . S
C178 C177 1.403 . S
C178 H199 0.930 . S
C179 O190 1.275 . S
C179 O191 1.256 . S
O180 Ho160 2.322 . S
O180 C162 1.259 . S
O181 Ho161 2.346 . S
O181 C162 1.268 . S
O182 Ho160 2.378 . S
O182 C163 1.215 . S
O183 Ho160 2.524 . S
O183 C163 1.289 . S
O184 Ho160 2.381 . S
O184 C170 1.275 . S
O185 Ho160 2.669 . S
O185 Ho161 2.305 . S
O185 C170 1.256 . S
O186 Ho161 2.322 . S
O186 C171 1.259 . S
O187 Ho160 2.346 . S
O187 C171 1.268 . S
O188 Ho161 2.378 . S
O188 C172 1.215 . S
O189 Ho161 2.524 . S
O189 C172 1.289 . S
O190 Ho161 2.381 . S
O190 C179 1.275 . S
O191 Ho160 2.305 . S
O191 Ho161 2.669 . S
O191 C179 1.256 . S
H192 C165 0.930 . S
H193 C166 0.931 . S
H194 C168 0.934 . S
H195 C169 0.930 . S
H196 C174 0.930 . S
H197 C175 0.931 1_545 S
H198 C177 0.934 . S
H199 C178 0.930 . S
Ho200 C203 2.811 . S
Ho200 O220 2.322 . S
Ho200 O222 2.378 . S
Ho200 O223 2.524 . S
Ho200 O224 2.381 . S
Ho200 O225 2.669 . S
Ho200 O227 2.346 . S
Ho200 O231 2.305 . S
Ho201 C212 2.811 . S
Ho201 O221 2.346 . S
Ho201 O225 2.305 . S
Ho201 O226 2.322 . S
Ho201 O228 2.378 . S
Ho201 O229 2.524 . S
Ho201 O230 2.381 . S
Ho201 O231 2.669 . S
C202 O220 1.259 . S
C202 O221 1.268 . S
C203 Ho200 2.811 . S
C203 C204 1.488 . S
C203 O222 1.215 . S
C203 O223 1.289 . S
C204 C203 1.488 . S
C204 C205 1.348 . S
C204 C209 1.413 . S
C205 C204 1.348 . S
C205 C206 1.442 . S
C205 H232 0.930 . S
C206 C205 1.442 . S
C206 C207 1.381 . S
C206 H233 0.931 . S
C207 C206 1.381 . S
C207 C208 1.321 . S
C208 C207 1.321 . S
C208 C209 1.403 . S
C208 H234 0.934 . S
C209 C204 1.413 . S
C209 C208 1.403 . S
C209 H235 0.930 . S
C210 O224 1.275 . S
C210 O225 1.256 . S
C211 O226 1.259 . S
C211 O227 1.268 . S
C212 Ho201 2.811 . S
C212 C213 1.488 . S
C212 O228 1.215 . S
C212 O229 1.289 . S
C213 C212 1.488 . S
C213 C214 1.348 . S
C213 C218 1.413 . S
C214 C213 1.348 . S
C214 C215 1.442 . S
C214 H236 0.930 . S
C215 C214 1.442 . S
C215 C216 1.381 . S
C215 H237 0.931 1_455 S
C216 C215 1.381 . S
C216 C217 1.321 . S
C217 C216 1.321 . S
C217 C218 1.403 . S
C217 H238 0.934 . S
C218 C213 1.413 . S
C218 C217 1.403 . S
C218 H239 0.930 . S
C219 O230 1.275 . S
C219 O231 1.256 . S
O220 Ho200 2.322 . S
O220 C202 1.259 . S
O221 Ho201 2.346 . S
O221 C202 1.268 . S
O222 Ho200 2.378 . S
O222 C203 1.215 . S
O223 Ho200 2.524 . S
O223 C203 1.289 . S
O224 Ho200 2.381 . S
O224 C210 1.275 . S
O225 Ho200 2.669 . S
O225 Ho201 2.305 . S
O225 C210 1.256 . S
O226 Ho201 2.322 . S
O226 C211 1.259 . S
O227 Ho200 2.346 . S
O227 C211 1.268 . S
O228 Ho201 2.378 . S
O228 C212 1.215 . S
O229 Ho201 2.524 . S
O229 C212 1.289 . S
O230 Ho201 2.381 . S
O230 C219 1.275 . S
O231 Ho200 2.305 . S
O231 Ho201 2.669 . S
O231 C219 1.256 . S
H232 C205 0.930 . S
H233 C206 0.931 . S
H234 C208 0.934 . S
H235 C209 0.930 . S
H236 C214 0.930 . S
H237 C215 0.931 1_655 S
H238 C217 0.934 . S
H239 C218 0.930 . S
Ho240 C243 2.811 . S
Ho240 O260 2.322 . S
Ho240 O262 2.378 . S
Ho240 O263 2.524 . S
Ho240 O264 2.381 . S
Ho240 O265 2.669 . S
Ho240 O267 2.346 . S
Ho240 O271 2.305 . S
Ho241 C252 2.811 . S
Ho241 O261 2.346 . S
Ho241 O265 2.305 . S
Ho241 O266 2.322 . S
Ho241 O268 2.378 . S
Ho241 O269 2.524 . S
Ho241 O270 2.381 . S
Ho241 O271 2.669 . S
C242 O260 1.259 . S
C242 O261 1.268 . S
C243 Ho240 2.811 . S
C243 C244 1.488 . S
C243 O262 1.215 . S
C243 O263 1.289 . S
C244 C243 1.488 . S
C244 C245 1.348 . S
C244 C249 1.413 . S
C245 C244 1.348 . S
C245 C246 1.442 . S
C245 H272 0.930 . S
C246 C245 1.442 . S
C246 C247 1.381 . S
C246 H273 0.931 . S
C247 C246 1.381 . S
C247 C248 1.321 . S
C248 C247 1.321 . S
C248 C249 1.403 . S
C248 H274 0.934 . S
C249 C244 1.413 . S
C249 C248 1.403 . S
C249 H275 0.930 . S
C250 O264 1.275 . S
C250 O265 1.256 . S
C251 O266 1.259 . S
C251 O267 1.268 . S
C252 Ho241 2.811 . S
C252 C253 1.488 . S
C252 O268 1.215 . S
C252 O269 1.289 . S
C253 C252 1.488 . S
C253 C254 1.348 . S
C253 C258 1.413 . S
C254 C253 1.348 . S
C254 C255 1.442 . S
C254 H276 0.930 . S
C255 C254 1.442 . S
C255 C256 1.381 . S
C255 H277 0.931 . S
C256 C255 1.381 . S
C256 C257 1.321 . S
C257 C256 1.321 . S
C257 C258 1.403 . S
C257 H278 0.934 . S
C258 C253 1.413 . S
C258 C257 1.403 . S
C258 H279 0.930 . S
C259 O270 1.275 . S
C259 O271 1.256 . S
O260 Ho240 2.322 . S
O260 C242 1.259 . S
O261 Ho241 2.346 . S
O261 C242 1.268 . S
O262 Ho240 2.378 . S
O262 C243 1.215 . S
O263 Ho240 2.524 . S
O263 C243 1.289 . S
O264 Ho240 2.381 . S
O264 C250 1.275 . S
O265 Ho240 2.669 . S
O265 Ho241 2.305 . S
O265 C250 1.256 . S
O266 Ho241 2.322 . S
O266 C251 1.259 . S
O267 Ho240 2.346 . S
O267 C251 1.268 . S
O268 Ho241 2.378 . S
O268 C252 1.215 . S
O269 Ho241 2.524 . S
O269 C252 1.289 . S
O270 Ho241 2.381 . S
O270 C259 1.275 . S
O271 Ho240 2.305 . S
O271 Ho241 2.669 . S
O271 C259 1.256 . S
H272 C245 0.930 . S
H273 C246 0.931 . S
H274 C248 0.934 . S
H275 C249 0.930 . S
H276 C254 0.930 . S
H277 C255 0.931 . S
H278 C257 0.934 . S
H279 C258 0.930 . S
Ho280 C283 2.811 . S
Ho280 O300 2.322 . S
Ho280 O302 2.378 . S
Ho280 O303 2.524 . S
Ho280 O304 2.381 . S
Ho280 O305 2.669 . S
Ho280 O307 2.346 . S
Ho280 O311 2.305 . S
Ho281 C292 2.811 . S
Ho281 O301 2.346 . S
Ho281 O305 2.305 . S
Ho281 O306 2.322 . S
Ho281 O308 2.378 . S
Ho281 O309 2.524 . S
Ho281 O310 2.381 . S
Ho281 O311 2.669 . S
C282 O300 1.259 . S
C282 O301 1.268 . S
C283 Ho280 2.811 . S
C283 C284 1.488 . S
C283 O302 1.215 . S
C283 O303 1.289 . S
C284 C283 1.488 . S
C284 C285 1.348 . S
C284 C289 1.413 . S
C285 C284 1.348 . S
C285 C286 1.442 . S
C285 H312 0.930 . S
C286 C285 1.442 . S
C286 C287 1.381 . S
C286 H313 0.931 1_565 S
C287 C286 1.381 . S
C287 C288 1.321 . S
C288 C287 1.321 . S
C288 C289 1.403 . S
C288 H314 0.934 . S
C289 C284 1.413 . S
C289 C288 1.403 . S
C289 H315 0.930 . S
C290 O304 1.275 . S
C290 O305 1.256 . S
C291 O306 1.259 . S
C291 O307 1.268 . S
C292 Ho281 2.811 . S
C292 C293 1.488 . S
C292 O308 1.215 . S
C292 O309 1.289 . S
C293 C292 1.488 . S
C293 C294 1.348 . S
C293 C298 1.413 . S
C294 C293 1.348 . S
C294 C295 1.442 . S
C294 H316 0.930 . S
C295 C294 1.442 . S
C295 C296 1.381 . S
C295 H317 0.931 . S
C296 C295 1.381 . S
C296 C297 1.321 . S
C297 C296 1.321 . S
C297 C298 1.403 . S
C297 H318 0.934 . S
C298 C293 1.413 . S
C298 C297 1.403 . S
C298 H319 0.930 . S
C299 O310 1.275 . S
C299 O311 1.256 . S
O300 Ho280 2.322 . S
O300 C282 1.259 . S
O301 Ho281 2.346 . S
O301 C282 1.268 . S
O302 Ho280 2.378 . S
O302 C283 1.215 . S
O303 Ho280 2.524 . S
O303 C283 1.289 . S
O304 Ho280 2.381 . S
O304 C290 1.275 . S
O305 Ho280 2.669 . S
O305 Ho281 2.305 . S
O305 C290 1.256 . S
O306 Ho281 2.322 . S
O306 C291 1.259 . S
O307 Ho280 2.346 . S
O307 C291 1.268 . S
O308 Ho281 2.378 . S
O308 C292 1.215 . S
O309 Ho281 2.524 . S
O309 C292 1.289 . S
O310 Ho281 2.381 . S
O310 C299 1.275 . S
O311 Ho280 2.305 . S
O311 Ho281 2.669 . S
O311 C299 1.256 . S
H312 C285 0.930 . S
H313 C286 0.931 1_545 S
H314 C288 0.934 . S
H315 C289 0.930 . S
H316 C294 0.930 . S
H317 C295 0.931 . S
H318 C297 0.934 . S
H319 C298 0.930 . S
Ho320 C323 2.811 . S
Ho320 O340 2.322 . S
Ho320 O342 2.378 . S
Ho320 O343 2.524 . S
Ho320 O344 2.381 . S
Ho320 O345 2.669 . S
Ho320 O347 2.346 . S
Ho320 O351 2.305 . S
Ho321 C332 2.811 . S
Ho321 O341 2.346 . S
Ho321 O345 2.305 . S
Ho321 O346 2.322 . S
Ho321 O348 2.378 . S
Ho321 O349 2.524 . S
Ho321 O350 2.381 . S
Ho321 O351 2.669 . S
C322 O340 1.259 . S
C322 O341 1.268 . S
C323 Ho320 2.811 . S
C323 C324 1.488 . S
C323 O342 1.215 . S
C323 O343 1.289 . S
C324 C323 1.488 . S
C324 C325 1.348 . S
C324 C329 1.413 . S
C325 C324 1.348 . S
C325 C326 1.442 . S
C325 H352 0.930 . S
C326 C325 1.442 . S
C326 C327 1.381 . S
C326 H353 0.931 1_455 S
C327 C326 1.381 . S
C327 C328 1.321 . S
C328 C327 1.321 . S
C328 C329 1.403 . S
C328 H354 0.934 . S
C329 C324 1.413 . S
C329 C328 1.403 . S
C329 H355 0.930 . S
C330 O344 1.275 . S
C330 O345 1.256 . S
C331 O346 1.259 . S
C331 O347 1.268 . S
C332 Ho321 2.811 . S
C332 C333 1.488 . S
C332 O348 1.215 . S
C332 O349 1.289 . S
C333 C332 1.488 . S
C333 C334 1.348 . S
C333 C338 1.413 . S
C334 C333 1.348 . S
C334 C335 1.442 . S
C334 H356 0.930 . S
C335 C334 1.442 . S
C335 C336 1.381 . S
C335 H357 0.931 . S
C336 C335 1.381 . S
C336 C337 1.321 . S
C337 C336 1.321 . S
C337 C338 1.403 . S
C337 H358 0.934 . S
C338 C333 1.413 . S
C338 C337 1.403 . S
C338 H359 0.930 . S
C339 O350 1.275 . S
C339 O351 1.256 . S
O340 Ho320 2.322 . S
O340 C322 1.259 . S
O341 Ho321 2.346 . S
O341 C322 1.268 . S
O342 Ho320 2.378 . S
O342 C323 1.215 . S
O343 Ho320 2.524 . S
O343 C323 1.289 . S
O344 Ho320 2.381 . S
O344 C330 1.275 . S
O345 Ho320 2.669 . S
O345 Ho321 2.305 . S
O345 C330 1.256 . S
O346 Ho321 2.322 . S
O346 C331 1.259 . S
O347 Ho320 2.346 . S
O347 C331 1.268 . S
O348 Ho321 2.378 . S
O348 C332 1.215 . S
O349 Ho321 2.524 . S
O349 C332 1.289 . S
O350 Ho321 2.381 . S
O350 C339 1.275 . S
O351 Ho320 2.305 . S
O351 Ho321 2.669 . S
O351 C339 1.256 . S
H352 C325 0.930 . S
H353 C326 0.931 1_655 S
H354 C328 0.934 . S
H355 C329 0.930 . S
H356 C334 0.930 . S
H357 C335 0.931 . S
H358 C337 0.934 . S
H359 C338 0.930 . S
Ho360 C363 2.811 . S
Ho360 O380 2.322 . S
Ho360 O382 2.378 . S
Ho360 O383 2.524 . S
Ho360 O384 2.381 . S
Ho360 O385 2.669 . S
Ho360 O387 2.346 . S
Ho360 O391 2.305 . S
Ho361 C372 2.811 . S
Ho361 O381 2.346 . S
Ho361 O385 2.305 . S
Ho361 O386 2.322 . S
Ho361 O388 2.378 . S
Ho361 O389 2.524 . S
Ho361 O390 2.381 . S
Ho361 O391 2.669 . S
C362 O380 1.259 . S
C362 O381 1.268 . S
C363 Ho360 2.811 . S
C363 C364 1.488 . S
C363 O382 1.215 . S
C363 O383 1.289 . S
C364 C363 1.488 . S
C364 C365 1.348 . S
C364 C369 1.413 . S
C365 C364 1.348 . S
C365 C366 1.442 . S
C365 H392 0.930 . S
C366 C365 1.442 . S
C366 C367 1.381 . S
C366 H393 0.931 . S
C367 C366 1.381 . S
C367 C368 1.321 . S
C368 C367 1.321 . S
C368 C369 1.403 . S
C368 H394 0.934 . S
C369 C364 1.413 . S
C369 C368 1.403 . S
C369 H395 0.930 . S
C370 O384 1.275 . S
C370 O385 1.256 . S
C371 O386 1.259 . S
C371 O387 1.268 . S
C372 Ho361 2.811 . S
C372 C373 1.488 . S
C372 O388 1.215 . S
C372 O389 1.289 . S
C373 C372 1.488 . S
C373 C374 1.348 . S
C373 C378 1.413 . S
C374 C373 1.348 . S
C374 C375 1.442 . S
C374 H396 0.930 . S
C375 C374 1.442 . S
C375 C376 1.381 . S
C375 H397 0.931 . S
C376 C375 1.381 . S
C376 C377 1.321 . S
C377 C376 1.321 . S
C377 C378 1.403 . S
C377 H398 0.934 . S
C378 C373 1.413 . S
C378 C377 1.403 . S
C378 H399 0.930 . S
C379 O390 1.275 . S
C379 O391 1.256 . S
O380 Ho360 2.322 . S
O380 C362 1.259 . S
O381 Ho361 2.346 . S
O381 C362 1.268 . S
O382 Ho360 2.378 . S
O382 C363 1.215 . S
O383 Ho360 2.524 . S
O383 C363 1.289 . S
O384 Ho360 2.381 . S
O384 C370 1.275 . S
O385 Ho360 2.669 . S
O385 Ho361 2.305 . S
O385 C370 1.256 . S
O386 Ho361 2.322 . S
O386 C371 1.259 . S
O387 Ho360 2.346 . S
O387 C371 1.268 . S
O388 Ho361 2.378 . S
O388 C372 1.215 . S
O389 Ho361 2.524 . S
O389 C372 1.289 . S
O390 Ho361 2.381 . S
O390 C379 1.275 . S
O391 Ho360 2.305 . S
O391 Ho361 2.669 . S
O391 C379 1.256 . S
H392 C365 0.930 . S
H393 C366 0.931 . S
H394 C368 0.934 . S
H395 C369 0.930 . S
H396 C374 0.930 . S
H397 C375 0.931 . S
H398 C377 0.934 . S
H399 C378 0.930 . S
Ho400 C403 2.811 . S
Ho400 O420 2.322 . S
Ho400 O422 2.378 . S
Ho400 O423 2.524 . S
Ho400 O424 2.381 . S
Ho400 O425 2.669 . S
Ho400 O427 2.346 . S
Ho400 O431 2.305 . S
Ho401 C412 2.811 . S
Ho401 O421 2.346 . S
Ho401 O425 2.305 . S
Ho401 O426 2.322 . S
Ho401 O428 2.378 . S
Ho401 O429 2.524 . S
Ho401 O430 2.381 . S
Ho401 O431 2.669 . S
C402 O420 1.259 . S
C402 O421 1.268 . S
C403 Ho400 2.811 . S
C403 C404 1.488 . S
C403 O422 1.215 . S
C403 O423 1.289 . S
C404 C403 1.488 . S
C404 C405 1.348 . S
C404 C409 1.413 . S
C405 C404 1.348 . S
C405 C406 1.442 . S
C405 H432 0.930 . S
C406 C405 1.442 . S
C406 C407 1.381 . S
C406 H433 0.931 1_545 S
C407 C406 1.381 . S
C407 C408 1.321 . S
C408 C407 1.321 . S
C408 C409 1.403 . S
C408 H434 0.934 . S
C409 C404 1.413 . S
C409 C408 1.403 . S
C409 H435 0.930 . S
C410 O424 1.275 . S
C410 O425 1.256 . S
C411 O426 1.259 . S
C411 O427 1.268 . S
C412 Ho401 2.811 . S
C412 C413 1.488 . S
C412 O428 1.215 . S
C412 O429 1.289 . S
C413 C412 1.488 . S
C413 C414 1.348 . S
C413 C418 1.413 . S
C414 C413 1.348 . S
C414 C415 1.442 . S
C414 H436 0.930 . S
C415 C414 1.442 . S
C415 C416 1.381 . S
C415 H437 0.931 . S
C416 C415 1.381 . S
C416 C417 1.321 . S
C417 C416 1.321 . S
C417 C418 1.403 . S
C417 H438 0.934 . S
C418 C413 1.413 . S
C418 C417 1.403 . S
C418 H439 0.930 . S
C419 O430 1.275 . S
C419 O431 1.256 . S
O420 Ho400 2.322 . S
O420 C402 1.259 . S
O421 Ho401 2.346 . S
O421 C402 1.268 . S
O422 Ho400 2.378 . S
O422 C403 1.215 . S
O423 Ho400 2.524 . S
O423 C403 1.289 . S
O424 Ho400 2.381 . S
O424 C410 1.275 . S
O425 Ho400 2.669 . S
O425 Ho401 2.305 . S
O425 C410 1.256 . S
O426 Ho401 2.322 . S
O426 C411 1.259 . S
O427 Ho400 2.346 . S
O427 C411 1.268 . S
O428 Ho401 2.378 . S
O428 C412 1.215 . S
O429 Ho401 2.524 . S
O429 C412 1.289 . S
O430 Ho401 2.381 . S
O430 C419 1.275 . S
O431 Ho400 2.305 . S
O431 Ho401 2.669 . S
O431 C419 1.256 . S
H432 C405 0.930 . S
H433 C406 0.931 1_565 S
H434 C408 0.934 . S
H435 C409 0.930 . S
H436 C414 0.930 . S
H437 C415 0.931 . S
H438 C417 0.934 . S
H439 C418 0.930 . S
Ho440 C443 2.811 . S
Ho440 O460 2.322 . S
Ho440 O462 2.378 . S
Ho440 O463 2.524 . S
Ho440 O464 2.381 . S
Ho440 O465 2.669 . S
Ho440 O467 2.346 . S
Ho440 O471 2.305 . S
Ho441 C452 2.811 . S
Ho441 O461 2.346 . S
Ho441 O465 2.305 . S
Ho441 O466 2.322 . S
Ho441 O468 2.378 . S
Ho441 O469 2.524 . S
Ho441 O470 2.381 . S
Ho441 O471 2.669 . S
C442 O460 1.259 . S
C442 O461 1.268 . S
C443 Ho440 2.811 . S
C443 C444 1.488 . S
C443 O462 1.215 . S
C443 O463 1.289 . S
C444 C443 1.488 . S
C444 C445 1.348 . S
C444 C449 1.413 . S
C445 C444 1.348 . S
C445 C446 1.442 . S
C445 H472 0.930 . S
C446 C445 1.442 . S
C446 C447 1.381 . S
C446 H473 0.931 1_655 S
C447 C446 1.381 . S
C447 C448 1.321 . S
C448 C447 1.321 . S
C448 C449 1.403 . S
C448 H474 0.934 . S
C449 C444 1.413 . S
C449 C448 1.403 . S
C449 H475 0.930 . S
C450 O464 1.275 . S
C450 O465 1.256 . S
C451 O466 1.259 . S
C451 O467 1.268 . S
C452 Ho441 2.811 . S
C452 C453 1.488 . S
C452 O468 1.215 . S
C452 O469 1.289 . S
C453 C452 1.488 . S
C453 C454 1.348 . S
C453 C458 1.413 . S
C454 C453 1.348 . S
C454 C455 1.442 . S
C454 H476 0.930 . S
C455 C454 1.442 . S
C455 C456 1.381 . S
C455 H477 0.931 . S
C456 C455 1.381 . S
C456 C457 1.321 . S
C457 C456 1.321 . S
C457 C458 1.403 . S
C457 H478 0.934 . S
C458 C453 1.413 . S
C458 C457 1.403 . S
C458 H479 0.930 . S
C459 O470 1.275 . S
C459 O471 1.256 . S
O460 Ho440 2.322 . S
O460 C442 1.259 . S
O461 Ho441 2.346 . S
O461 C442 1.268 . S
O462 Ho440 2.378 . S
O462 C443 1.215 . S
O463 Ho440 2.524 . S
O463 C443 1.289 . S
O464 Ho440 2.381 . S
O464 C450 1.275 . S
O465 Ho440 2.669 . S
O465 Ho441 2.305 . S
O465 C450 1.256 . S
O466 Ho441 2.322 . S
O466 C451 1.259 . S
O467 Ho440 2.346 . S
O467 C451 1.268 . S
O468 Ho441 2.378 . S
O468 C452 1.215 . S
O469 Ho441 2.524 . S
O469 C452 1.289 . S
O470 Ho441 2.381 . S
O470 C459 1.275 . S
O471 Ho440 2.305 . S
O471 Ho441 2.669 . S
O471 C459 1.256 . S
H472 C445 0.930 . S
H473 C446 0.931 1_455 S
H474 C448 0.934 . S
H475 C449 0.930 . S
H476 C454 0.930 . S
H477 C455 0.931 . S
H478 C457 0.934 . S
H479 C458 0.930 . S
Ho480 C483 2.811 . S
Ho480 O500 2.322 . S
Ho480 O502 2.378 . S
Ho480 O503 2.524 . S
Ho480 O504 2.381 . S
Ho480 O505 2.669 . S
Ho480 O507 2.346 . S
Ho480 O511 2.305 . S
Ho481 C492 2.811 . S
Ho481 O501 2.346 . S
Ho481 O505 2.305 . S
Ho481 O506 2.322 . S
Ho481 O508 2.378 . S
Ho481 O509 2.524 . S
Ho481 O510 2.381 . S
Ho481 O511 2.669 . S
C482 O500 1.259 . S
C482 O501 1.268 . S
C483 Ho480 2.811 . S
C483 C484 1.488 . S
C483 O502 1.215 . S
C483 O503 1.289 . S
C484 C483 1.488 . S
C484 C485 1.348 . S
C484 C489 1.413 . S
C485 C484 1.348 . S
C485 C486 1.442 . S
C485 H512 0.930 . S
C486 C485 1.442 . S
C486 C487 1.381 . S
C486 H513 0.931 . S
C487 C486 1.381 . S
C487 C488 1.321 . S
C488 C487 1.321 . S
C488 C489 1.403 . S
C488 H514 0.934 . S
C489 C484 1.413 . S
C489 C488 1.403 . S
C489 H515 0.930 . S
C490 O504 1.275 . S
C490 O505 1.256 . S
C491 O506 1.259 . S
C491 O507 1.268 . S
C492 Ho481 2.811 . S
C492 C493 1.488 . S
C492 O508 1.215 . S
C492 O509 1.289 . S
C493 C492 1.488 . S
C493 C494 1.348 . S
C493 C498 1.413 . S
C494 C493 1.348 . S
C494 C495 1.442 . S
C494 H516 0.930 . S
C495 C494 1.442 . S
C495 C496 1.381 . S
C495 H517 0.931 . S
C496 C495 1.381 . S
C496 C497 1.321 . S
C497 C496 1.321 . S
C497 C498 1.403 . S
C497 H518 0.934 . S
C498 C493 1.413 . S
C498 C497 1.403 . S
C498 H519 0.930 . S
C499 O510 1.275 . S
C499 O511 1.256 . S
O500 Ho480 2.322 . S
O500 C482 1.259 . S
O501 Ho481 2.346 . S
O501 C482 1.268 . S
O502 Ho480 2.378 . S
O502 C483 1.215 . S
O503 Ho480 2.524 . S
O503 C483 1.289 . S
O504 Ho480 2.381 . S
O504 C490 1.275 . S
O505 Ho480 2.669 . S
O505 Ho481 2.305 . S
O505 C490 1.256 . S
O506 Ho481 2.322 . S
O506 C491 1.259 . S
O507 Ho480 2.346 . S
O507 C491 1.268 . S
O508 Ho481 2.378 . S
O508 C492 1.215 . S
O509 Ho481 2.524 . S
O509 C492 1.289 . S
O510 Ho481 2.381 . S
O510 C499 1.275 . S
O511 Ho480 2.305 . S
O511 Ho481 2.669 . S
O511 C499 1.256 . S
H512 C485 0.930 . S
H513 C486 0.931 . S
H514 C488 0.934 . S
H515 C489 0.930 . S
H516 C494 0.930 . S
H517 C495 0.931 . S
H518 C497 0.934 . S
H519 C498 0.930 . S
Ho520 C523 2.811 . S
Ho520 O540 2.322 . S
Ho520 O542 2.378 . S
Ho520 O543 2.524 . S
Ho520 O544 2.381 . S
Ho520 O545 2.669 . S
Ho520 O547 2.346 . S
Ho520 O551 2.305 . S
Ho521 C532 2.811 . S
Ho521 O541 2.346 . S
Ho521 O545 2.305 . S
Ho521 O546 2.322 . S
Ho521 O548 2.378 . S
Ho521 O549 2.524 . S
Ho521 O550 2.381 . S
Ho521 O551 2.669 . S
C522 O540 1.259 . S
C522 O541 1.268 . S
C523 Ho520 2.811 . S
C523 C524 1.488 . S
C523 O542 1.215 . S
C523 O543 1.289 . S
C524 C523 1.488 . S
C524 C525 1.348 . S
C524 C529 1.413 . S
C525 C524 1.348 . S
C525 C526 1.442 . S
C525 H552 0.930 . S
C526 C525 1.442 . S
C526 C527 1.381 . S
C526 H553 0.931 . S
C527 C526 1.381 . S
C527 C528 1.321 . S
C528 C527 1.321 . S
C528 C529 1.403 . S
C528 H554 0.934 . S
C529 C524 1.413 . S
C529 C528 1.403 . S
C529 H555 0.930 . S
C530 O544 1.275 . S
C530 O545 1.256 . S
C531 O546 1.259 . S
C531 O547 1.268 . S
C532 Ho521 2.811 . S
C532 C533 1.488 . S
C532 O548 1.215 . S
C532 O549 1.289 . S
C533 C532 1.488 . S
C533 C534 1.348 . S
C533 C538 1.413 . S
C534 C533 1.348 . S
C534 C535 1.442 . S
C534 H556 0.930 . S
C535 C534 1.442 . S
C535 C536 1.381 . S
C535 H557 0.931 . S
C536 C535 1.381 . S
C536 C537 1.321 . S
C537 C536 1.321 . S
C537 C538 1.403 . S
C537 H558 0.934 . S
C538 C533 1.413 . S
C538 C537 1.403 . S
C538 H559 0.930 . S
C539 O550 1.275 . S
C539 O551 1.256 . S
O540 Ho520 2.322 . S
O540 C522 1.259 . S
O541 Ho521 2.346 . S
O541 C522 1.268 . S
O542 Ho520 2.378 . S
O542 C523 1.215 . S
O543 Ho520 2.524 . S
O543 C523 1.289 . S
O544 Ho520 2.381 . S
O544 C530 1.275 . S
O545 Ho520 2.669 . S
O545 Ho521 2.305 . S
O545 C530 1.256 . S
O546 Ho521 2.322 . S
O546 C531 1.259 . S
O547 Ho520 2.346 . S
O547 C531 1.268 . S
O548 Ho521 2.378 . S
O548 C532 1.215 . S
O549 Ho521 2.524 . S
O549 C532 1.289 . S
O550 Ho521 2.381 . S
O550 C539 1.275 . S
O551 Ho520 2.305 . S
O551 Ho521 2.669 . S
O551 C539 1.256 . S
H552 C525 0.930 . S
H553 C526 0.931 . S
H554 C528 0.934 . S
H555 C529 0.930 . S
H556 C534 0.930 . S
H557 C535 0.931 . S
H558 C537 0.934 . S
H559 C538 0.930 . S
Ho560 C563 2.811 . S
Ho560 O580 2.322 . S
Ho560 O582 2.378 . S
Ho560 O583 2.524 . S
Ho560 O584 2.381 . S
Ho560 O585 2.669 . S
Ho560 O587 2.346 . S
Ho560 O591 2.305 . S
Ho561 C572 2.811 . S
Ho561 O581 2.346 . S
Ho561 O585 2.305 . S
Ho561 O586 2.322 . S
Ho561 O588 2.378 . S
Ho561 O589 2.524 . S
Ho561 O590 2.381 . S
Ho561 O591 2.669 . S
C562 O580 1.259 . S
C562 O581 1.268 . S
C563 Ho560 2.811 . S
C563 C564 1.488 . S
C563 O582 1.215 . S
C563 O583 1.289 . S
C564 C563 1.488 . S
C564 C565 1.348 . S
C564 C569 1.413 . S
C565 C564 1.348 . S
C565 C566 1.442 . S
C565 H592 0.930 . S
C566 C565 1.442 . S
C566 C567 1.381 . S
C566 H593 0.931 . S
C567 C566 1.381 . S
C567 C568 1.321 . S
C568 C567 1.321 . S
C568 C569 1.403 . S
C568 H594 0.934 . S
C569 C564 1.413 . S
C569 C568 1.403 . S
C569 H595 0.930 . S
C570 O584 1.275 . S
C570 O585 1.256 . S
C571 O586 1.259 . S
C571 O587 1.268 . S
C572 Ho561 2.811 . S
C572 C573 1.488 . S
C572 O588 1.215 . S
C572 O589 1.289 . S
C573 C572 1.488 . S
C573 C574 1.348 . S
C573 C578 1.413 . S
C574 C573 1.348 . S
C574 C575 1.442 . S
C574 H596 0.930 . S
C575 C574 1.442 . S
C575 C576 1.381 . S
C575 H597 0.931 . S
C576 C575 1.381 . S
C576 C577 1.321 . S
C577 C576 1.321 . S
C577 C578 1.403 . S
C577 H598 0.934 . S
C578 C573 1.413 . S
C578 C577 1.403 . S
C578 H599 0.930 . S
C579 O590 1.275 . S
C579 O591 1.256 . S
O580 Ho560 2.322 . S
O580 C562 1.259 . S
O581 Ho561 2.346 . S
O581 C562 1.268 . S
O582 Ho560 2.378 . S
O582 C563 1.215 . S
O583 Ho560 2.524 . S
O583 C563 1.289 . S
O584 Ho560 2.381 . S
O584 C570 1.275 . S
O585 Ho560 2.669 . S
O585 Ho561 2.305 . S
O585 C570 1.256 . S
O586 Ho561 2.322 . S
O586 C571 1.259 . S
O587 Ho560 2.346 . S
O587 C571 1.268 . S
O588 Ho561 2.378 . S
O588 C572 1.215 . S
O589 Ho561 2.524 . S
O589 C572 1.289 . S
O590 Ho561 2.381 . S
O590 C579 1.275 . S
O591 Ho560 2.305 . S
O591 Ho561 2.669 . S
O591 C579 1.256 . S
H592 C565 0.930 . S
H593 C566 0.931 . S
H594 C568 0.934 . S
H595 C569 0.930 . S
H596 C574 0.930 . S
H597 C575 0.931 . S
H598 C577 0.934 . S
H599 C578 0.930 . S
Ho600 C603 2.811 . S
Ho600 O620 2.322 . S
Ho600 O622 2.378 . S
Ho600 O623 2.524 . S
Ho600 O624 2.381 . S
Ho600 O625 2.669 . S
Ho600 O627 2.346 . S
Ho600 O631 2.305 . S
Ho601 C612 2.811 . S
Ho601 O621 2.346 . S
Ho601 O625 2.305 . S
Ho601 O626 2.322 . S
Ho601 O628 2.378 . S
Ho601 O629 2.524 . S
Ho601 O630 2.381 . S
Ho601 O631 2.669 . S
C602 O620 1.259 . S
C602 O621 1.268 . S
C603 Ho600 2.811 . S
C603 C604 1.488 . S
C603 O622 1.215 . S
C603 O623 1.289 . S
C604 C603 1.488 . S
C604 C605 1.348 . S
C604 C609 1.413 . S
C605 C604 1.348 . S
C605 C606 1.442 . S
C605 H632 0.930 . S
C606 C605 1.442 . S
C606 C607 1.381 . S
C606 H633 0.931 . S
C607 C606 1.381 . S
C607 C608 1.321 . S
C608 C607 1.321 . S
C608 C609 1.403 . S
C608 H634 0.934 . S
C609 C604 1.413 . S
C609 C608 1.403 . S
C609 H635 0.930 . S
C610 O624 1.275 . S
C610 O625 1.256 . S
C611 O626 1.259 . S
C611 O627 1.268 . S
C612 Ho601 2.811 . S
C612 C613 1.488 . S
C612 O628 1.215 . S
C612 O629 1.289 . S
C613 C612 1.488 . S
C613 C614 1.348 . S
C613 C618 1.413 . S
C614 C613 1.348 . S
C614 C615 1.442 . S
C614 H636 0.930 . S
C615 C614 1.442 . S
C615 C616 1.381 . S
C615 H637 0.931 . S
C616 C615 1.381 . S
C616 C617 1.321 . S
C617 C616 1.321 . S
C617 C618 1.403 . S
C617 H638 0.934 . S
C618 C613 1.413 . S
C618 C617 1.403 . S
C618 H639 0.930 . S
C619 O630 1.275 . S
C619 O631 1.256 . S
O620 Ho600 2.322 . S
O620 C602 1.259 . S
O621 Ho601 2.346 . S
O621 C602 1.268 . S
O622 Ho600 2.378 . S
O622 C603 1.215 . S
O623 Ho600 2.524 . S
O623 C603 1.289 . S
O624 Ho600 2.381 . S
O624 C610 1.275 . S
O625 Ho600 2.669 . S
O625 Ho601 2.305 . S
O625 C610 1.256 . S
O626 Ho601 2.322 . S
O626 C611 1.259 . S
O627 Ho600 2.346 . S
O627 C611 1.268 . S
O628 Ho601 2.378 . S
O628 C612 1.215 . S
O629 Ho601 2.524 . S
O629 C612 1.289 . S
O630 Ho601 2.381 . S
O630 C619 1.275 . S
O631 Ho600 2.305 . S
O631 Ho601 2.669 . S
O631 C619 1.256 . S
H632 C605 0.930 . S
H633 C606 0.931 . S
H634 C608 0.934 . S
H635 C609 0.930 . S
H636 C614 0.930 . S
H637 C615 0.931 . S
H638 C617 0.934 . S
H639 C618 0.930 . S
Ho640 C643 2.811 . S
Ho640 O660 2.322 . S
Ho640 O662 2.378 . S
Ho640 O663 2.524 . S
Ho640 O664 2.381 . S
Ho640 O665 2.669 . S
Ho640 O667 2.346 . S
Ho640 O671 2.305 . S
Ho641 C652 2.811 . S
Ho641 O661 2.346 . S
Ho641 O665 2.305 . S
Ho641 O666 2.322 . S
Ho641 O668 2.378 . S
Ho641 O669 2.524 . S
Ho641 O670 2.381 . S
Ho641 O671 2.669 . S
C642 O660 1.259 . S
C642 O661 1.268 . S
C643 Ho640 2.811 . S
C643 C644 1.488 . S
C643 O662 1.215 . S
C643 O663 1.289 . S
C644 C643 1.488 . S
C644 C645 1.348 . S
C644 C649 1.413 . S
C645 C644 1.348 . S
C645 C646 1.442 . S
C645 H672 0.930 . S
C646 C645 1.442 . S
C646 C647 1.381 . S
C646 H673 0.931 . S
C647 C646 1.381 . S
C647 C648 1.321 . S
C648 C647 1.321 . S
C648 C649 1.403 . S
C648 H674 0.934 . S
C649 C644 1.413 . S
C649 C648 1.403 . S
C649 H675 0.930 . S
C650 O664 1.275 . S
C650 O665 1.256 . S
C651 O666 1.259 . S
C651 O667 1.268 . S
C652 Ho641 2.811 . S
C652 C653 1.488 . S
C652 O668 1.215 . S
C652 O669 1.289 . S
C653 C652 1.488 . S
C653 C654 1.348 . S
C653 C658 1.413 . S
C654 C653 1.348 . S
C654 C655 1.442 . S
C654 H676 0.930 . S
C655 C654 1.442 . S
C655 C656 1.381 . S
C655 H677 0.931 . S
C656 C655 1.381 . S
C656 C657 1.321 . S
C657 C656 1.321 . S
C657 C658 1.403 . S
C657 H678 0.934 . S
C658 C653 1.413 . S
C658 C657 1.403 . S
C658 H679 0.930 . S
C659 O670 1.275 . S
C659 O671 1.256 . S
O660 Ho640 2.322 . S
O660 C642 1.259 . S
O661 Ho641 2.346 . S
O661 C642 1.268 . S
O662 Ho640 2.378 . S
O662 C643 1.215 . S
O663 Ho640 2.524 . S
O663 C643 1.289 . S
O664 Ho640 2.381 . S
O664 C650 1.275 . S
O665 Ho640 2.669 . S
O665 Ho641 2.305 . S
O665 C650 1.256 . S
O666 Ho641 2.322 . S
O666 C651 1.259 . S
O667 Ho640 2.346 . S
O667 C651 1.268 . S
O668 Ho641 2.378 . S
O668 C652 1.215 . S
O669 Ho641 2.524 . S
O669 C652 1.289 . S
O670 Ho641 2.381 . S
O670 C659 1.275 . S
O671 Ho640 2.305 . S
O671 Ho641 2.669 . S
O671 C659 1.256 . S
H672 C645 0.930 . S
H673 C646 0.931 . S
H674 C648 0.934 . S
H675 C649 0.930 . S
H676 C654 0.930 . S
H677 C655 0.931 . S
H678 C657 0.934 . S
H679 C658 0.930 . S
Ho680 C683 2.811 . S
Ho680 O700 2.322 . S
Ho680 O702 2.378 . S
Ho680 O703 2.524 . S
Ho680 O704 2.381 . S
Ho680 O705 2.669 . S
Ho680 O707 2.346 . S
Ho680 O711 2.305 . S
Ho681 C692 2.811 . S
Ho681 O701 2.346 . S
Ho681 O705 2.305 . S
Ho681 O706 2.322 . S
Ho681 O708 2.378 . S
Ho681 O709 2.524 . S
Ho681 O710 2.381 . S
Ho681 O711 2.669 . S
C682 O700 1.259 . S
C682 O701 1.268 . S
C683 Ho680 2.811 . S
C683 C684 1.488 . S
C683 O702 1.215 . S
C683 O703 1.289 . S
C684 C683 1.488 . S
C684 C685 1.348 . S
C684 C689 1.413 . S
C685 C684 1.348 . S
C685 C686 1.442 . S
C685 H712 0.930 . S
C686 C685 1.442 . S
C686 C687 1.381 . S
C686 H713 0.931 . S
C687 C686 1.381 . S
C687 C688 1.321 . S
C688 C687 1.321 . S
C688 C689 1.403 . S
C688 H714 0.934 . S
C689 C684 1.413 . S
C689 C688 1.403 . S
C689 H715 0.930 . S
C690 O704 1.275 . S
C690 O705 1.256 . S
C691 O706 1.259 . S
C691 O707 1.268 . S
C692 Ho681 2.811 . S
C692 C693 1.488 . S
C692 O708 1.215 . S
C692 O709 1.289 . S
C693 C692 1.488 . S
C693 C694 1.348 . S
C693 C698 1.413 . S
C694 C693 1.348 . S
C694 C695 1.442 . S
C694 H716 0.930 . S
C695 C694 1.442 . S
C695 C696 1.381 . S
C695 H717 0.931 . S
C696 C695 1.381 . S
C696 C697 1.321 . S
C697 C696 1.321 . S
C697 C698 1.403 . S
C697 H718 0.934 . S
C698 C693 1.413 . S
C698 C697 1.403 . S
C698 H719 0.930 . S
C699 O710 1.275 . S
C699 O711 1.256 . S
O700 Ho680 2.322 . S
O700 C682 1.259 . S
O701 Ho681 2.346 . S
O701 C682 1.268 . S
O702 Ho680 2.378 . S
O702 C683 1.215 . S
O703 Ho680 2.524 . S
O703 C683 1.289 . S
O704 Ho680 2.381 . S
O704 C690 1.275 . S
O705 Ho680 2.669 . S
O705 Ho681 2.305 . S
O705 C690 1.256 . S
O706 Ho681 2.322 . S
O706 C691 1.259 . S
O707 Ho680 2.346 . S
O707 C691 1.268 . S
O708 Ho681 2.378 . S
O708 C692 1.215 . S
O709 Ho681 2.524 . S
O709 C692 1.289 . S
O710 Ho681 2.381 . S
O710 C699 1.275 . S
O711 Ho680 2.305 . S
O711 Ho681 2.669 . S
O711 C699 1.256 . S
H712 C685 0.930 . S
H713 C686 0.931 . S
H714 C688 0.934 . S
H715 C689 0.930 . S
H716 C694 0.930 . S
H717 C695 0.931 . S
H718 C697 0.934 . S
H719 C698 0.930 . S
Ho720 C723 2.811 . S
Ho720 O740 2.322 . S
Ho720 O742 2.378 . S
Ho720 O743 2.524 . S
Ho720 O744 2.381 . S
Ho720 O745 2.669 . S
Ho720 O747 2.346 . S
Ho720 O751 2.305 . S
Ho721 C732 2.811 . S
Ho721 O741 2.346 . S
Ho721 O745 2.305 . S
Ho721 O746 2.322 . S
Ho721 O748 2.378 . S
Ho721 O749 2.524 . S
Ho721 O750 2.381 . S
Ho721 O751 2.669 . S
C722 O740 1.259 . S
C722 O741 1.268 . S
C723 Ho720 2.811 . S
C723 C724 1.488 . S
C723 O742 1.215 . S
C723 O743 1.289 . S
C724 C723 1.488 . S
C724 C725 1.348 . S
C724 C729 1.413 . S
C725 C724 1.348 . S
C725 C726 1.442 . S
C725 H752 0.930 . S
C726 C725 1.442 . S
C726 C727 1.381 . S
C726 H753 0.931 . S
C727 C726 1.381 . S
C727 C728 1.321 . S
C728 C727 1.321 . S
C728 C729 1.403 . S
C728 H754 0.934 . S
C729 C724 1.413 . S
C729 C728 1.403 . S
C729 H755 0.930 . S
C730 O744 1.275 . S
C730 O745 1.256 . S
C731 O746 1.259 . S
C731 O747 1.268 . S
C732 Ho721 2.811 . S
C732 C733 1.488 . S
C732 O748 1.215 . S
C732 O749 1.289 . S
C733 C732 1.488 . S
C733 C734 1.348 . S
C733 C738 1.413 . S
C734 C733 1.348 . S
C734 C735 1.442 . S
C734 H756 0.930 . S
C735 C734 1.442 . S
C735 C736 1.381 . S
C735 H757 0.931 . S
C736 C735 1.381 . S
C736 C737 1.321 . S
C737 C736 1.321 . S
C737 C738 1.403 . S
C737 H758 0.934 . S
C738 C733 1.413 . S
C738 C737 1.403 . S
C738 H759 0.930 . S
C739 O750 1.275 . S
C739 O751 1.256 . S
O740 Ho720 2.322 . S
O740 C722 1.259 . S
O741 Ho721 2.346 . S
O741 C722 1.268 . S
O742 Ho720 2.378 . S
O742 C723 1.215 . S
O743 Ho720 2.524 . S
O743 C723 1.289 . S
O744 Ho720 2.381 . S
O744 C730 1.275 . S
O745 Ho720 2.669 . S
O745 Ho721 2.305 . S
O745 C730 1.256 . S
O746 Ho721 2.322 . S
O746 C731 1.259 . S
O747 Ho720 2.346 . S
O747 C731 1.268 . S
O748 Ho721 2.378 . S
O748 C732 1.215 . S
O749 Ho721 2.524 . S
O749 C732 1.289 . S
O750 Ho721 2.381 . S
O750 C739 1.275 . S
O751 Ho720 2.305 . S
O751 Ho721 2.669 . S
O751 C739 1.256 . S
H752 C725 0.930 . S
H753 C726 0.931 . S
H754 C728 0.934 . S
H755 C729 0.930 . S
H756 C734 0.930 . S
H757 C735 0.931 . S
H758 C737 0.934 . S
H759 C738 0.930 . S
Ho760 C763 2.811 . S
Ho760 O780 2.322 . S
Ho760 O782 2.378 . S
Ho760 O783 2.524 . S
Ho760 O784 2.381 . S
Ho760 O785 2.669 . S
Ho760 O787 2.346 . S
Ho760 O791 2.305 . S
Ho761 C772 2.811 . S
Ho761 O781 2.346 . S
Ho761 O785 2.305 . S
Ho761 O786 2.322 . S
Ho761 O788 2.378 . S
Ho761 O789 2.524 . S
Ho761 O790 2.381 . S
Ho761 O791 2.669 . S
C762 O780 1.259 . S
C762 O781 1.268 . S
C763 Ho760 2.811 . S
C763 C764 1.488 . S
C763 O782 1.215 . S
C763 O783 1.289 . S
C764 C763 1.488 . S
C764 C765 1.348 . S
C764 C769 1.413 . S
C765 C764 1.348 . S
C765 C766 1.442 . S
C765 H792 0.930 . S
C766 C765 1.442 . S
C766 C767 1.381 . S
C766 H793 0.931 . S
C767 C766 1.381 . S
C767 C768 1.321 . S
C768 C767 1.321 . S
C768 C769 1.403 . S
C768 H794 0.934 . S
C769 C764 1.413 . S
C769 C768 1.403 . S
C769 H795 0.930 . S
C770 O784 1.275 . S
C770 O785 1.256 . S
C771 O786 1.259 . S
C771 O787 1.268 . S
C772 Ho761 2.811 . S
C772 C773 1.488 . S
C772 O788 1.215 . S
C772 O789 1.289 . S
C773 C772 1.488 . S
C773 C774 1.348 . S
C773 C778 1.413 . S
C774 C773 1.348 . S
C774 C775 1.442 . S
C774 H796 0.930 . S
C775 C774 1.442 . S
C775 C776 1.381 . S
C775 H797 0.931 . S
C776 C775 1.381 . S
C776 C777 1.321 . S
C777 C776 1.321 . S
C777 C778 1.403 . S
C777 H798 0.934 . S
C778 C773 1.413 . S
C778 C777 1.403 . S
C778 H799 0.930 . S
C779 O790 1.275 . S
C779 O791 1.256 . S
O780 Ho760 2.322 . S
O780 C762 1.259 . S
O781 Ho761 2.346 . S
O781 C762 1.268 . S
O782 Ho760 2.378 . S
O782 C763 1.215 . S
O783 Ho760 2.524 . S
O783 C763 1.289 . S
O784 Ho760 2.381 . S
O784 C770 1.275 . S
O785 Ho760 2.669 . S
O785 Ho761 2.305 . S
O785 C770 1.256 . S
O786 Ho761 2.322 . S
O786 C771 1.259 . S
O787 Ho760 2.346 . S
O787 C771 1.268 . S
O788 Ho761 2.378 . S
O788 C772 1.215 . S
O789 Ho761 2.524 . S
O789 C772 1.289 . S
O790 Ho761 2.381 . S
O790 C779 1.275 . S
O791 Ho760 2.305 . S
O791 Ho761 2.669 . S
O791 C779 1.256 . S
H792 C765 0.930 . S
H793 C766 0.931 . S
H794 C768 0.934 . S
H795 C769 0.930 . S
H796 C774 0.930 . S
H797 C775 0.931 . S
H798 C777 0.934 . S
H799 C778 0.930 . S
Ho800 C803 2.811 . S
Ho800 O820 2.322 . S
Ho800 O822 2.378 . S
Ho800 O823 2.524 . S
Ho800 O824 2.381 . S
Ho800 O825 2.669 . S
Ho800 O827 2.346 . S
Ho800 O831 2.305 . S
Ho801 C812 2.811 . S
Ho801 O821 2.346 . S
Ho801 O825 2.305 . S
Ho801 O826 2.322 . S
Ho801 O828 2.378 . S
Ho801 O829 2.524 . S
Ho801 O830 2.381 . S
Ho801 O831 2.669 . S
C802 O820 1.259 . S
C802 O821 1.268 . S
C803 Ho800 2.811 . S
C803 C804 1.488 . S
C803 O822 1.215 . S
C803 O823 1.289 . S
C804 C803 1.488 . S
C804 C805 1.348 . S
C804 C809 1.413 . S
C805 C804 1.348 . S
C805 C806 1.442 . S
C805 H832 0.930 . S
C806 C805 1.442 . S
C806 C807 1.381 . S
C806 H833 0.931 . S
C807 C806 1.381 . S
C807 C808 1.321 . S
C808 C807 1.321 . S
C808 C809 1.403 . S
C808 H834 0.934 . S
C809 C804 1.413 . S
C809 C808 1.403 . S
C809 H835 0.930 . S
C810 O824 1.275 . S
C810 O825 1.256 . S
C811 O826 1.259 . S
C811 O827 1.268 . S
C812 Ho801 2.811 . S
C812 C813 1.488 . S
C812 O828 1.215 . S
C812 O829 1.289 . S
C813 C812 1.488 . S
C813 C814 1.348 . S
C813 C818 1.413 . S
C814 C813 1.348 . S
C814 C815 1.442 . S
C814 H836 0.930 . S
C815 C814 1.442 . S
C815 C816 1.381 . S
C815 H837 0.931 . S
C816 C815 1.381 . S
C816 C817 1.321 . S
C817 C816 1.321 . S
C817 C818 1.403 . S
C817 H838 0.934 . S
C818 C813 1.413 . S
C818 C817 1.403 . S
C818 H839 0.930 . S
C819 O830 1.275 . S
C819 O831 1.256 . S
O820 Ho800 2.322 . S
O820 C802 1.259 . S
O821 Ho801 2.346 . S
O821 C802 1.268 . S
O822 Ho800 2.378 . S
O822 C803 1.215 . S
O823 Ho800 2.524 . S
O823 C803 1.289 . S
O824 Ho800 2.381 . S
O824 C810 1.275 . S
O825 Ho800 2.669 . S
O825 Ho801 2.305 . S
O825 C810 1.256 . S
O826 Ho801 2.322 . S
O826 C811 1.259 . S
O827 Ho800 2.346 . S
O827 C811 1.268 . S
O828 Ho801 2.378 . S
O828 C812 1.215 . S
O829 Ho801 2.524 . S
O829 C812 1.289 . S
O830 Ho801 2.381 . S
O830 C819 1.275 . S
O831 Ho800 2.305 . S
O831 Ho801 2.669 . S
O831 C819 1.256 . S
H832 C805 0.930 . S
H833 C806 0.931 . S
H834 C808 0.934 . S
H835 C809 0.930 . S
H836 C814 0.930 . S
H837 C815 0.931 . S
H838 C817 0.934 . S
H839 C818 0.930 . S
Ho840 C843 2.811 . S
Ho840 O860 2.322 . S
Ho840 O862 2.378 . S
Ho840 O863 2.524 . S
Ho840 O864 2.381 . S
Ho840 O865 2.669 . S
Ho840 O867 2.346 . S
Ho840 O871 2.305 . S
Ho841 C852 2.811 . S
Ho841 O861 2.346 . S
Ho841 O865 2.305 . S
Ho841 O866 2.322 . S
Ho841 O868 2.378 . S
Ho841 O869 2.524 . S
Ho841 O870 2.381 . S
Ho841 O871 2.669 . S
C842 O860 1.259 . S
C842 O861 1.268 . S
C843 Ho840 2.811 . S
C843 C844 1.488 . S
C843 O862 1.215 . S
C843 O863 1.289 . S
C844 C843 1.488 . S
C844 C845 1.348 . S
C844 C849 1.413 . S
C845 C844 1.348 . S
C845 C846 1.442 . S
C845 H872 0.930 . S
C846 C845 1.442 . S
C846 C847 1.381 . S
C846 H873 0.931 . S
C847 C846 1.381 . S
C847 C848 1.321 . S
C848 C847 1.321 . S
C848 C849 1.403 . S
C848 H874 0.934 . S
C849 C844 1.413 . S
C849 C848 1.403 . S
C849 H875 0.930 . S
C850 O864 1.275 . S
C850 O865 1.256 . S
C851 O866 1.259 . S
C851 O867 1.268 . S
C852 Ho841 2.811 . S
C852 C853 1.488 . S
C852 O868 1.215 . S
C852 O869 1.289 . S
C853 C852 1.488 . S
C853 C854 1.348 . S
C853 C858 1.413 . S
C854 C853 1.348 . S
C854 C855 1.442 . S
C854 H876 0.930 . S
C855 C854 1.442 . S
C855 C856 1.381 . S
C855 H877 0.931 . S
C856 C855 1.381 . S
C856 C857 1.321 . S
C857 C856 1.321 . S
C857 C858 1.403 . S
C857 H878 0.934 . S
C858 C853 1.413 . S
C858 C857 1.403 . S
C858 H879 0.930 . S
C859 O870 1.275 . S
C859 O871 1.256 . S
O860 Ho840 2.322 . S
O860 C842 1.259 . S
O861 Ho841 2.346 . S
O861 C842 1.268 . S
O862 Ho840 2.378 . S
O862 C843 1.215 . S
O863 Ho840 2.524 . S
O863 C843 1.289 . S
O864 Ho840 2.381 . S
O864 C850 1.275 . S
O865 Ho840 2.669 . S
O865 Ho841 2.305 . S
O865 C850 1.256 . S
O866 Ho841 2.322 . S
O866 C851 1.259 . S
O867 Ho840 2.346 . S
O867 C851 1.268 . S
O868 Ho841 2.378 . S
O868 C852 1.215 . S
O869 Ho841 2.524 . S
O869 C852 1.289 . S
O870 Ho841 2.381 . S
O870 C859 1.275 . S
O871 Ho840 2.305 . S
O871 Ho841 2.669 . S
O871 C859 1.256 . S
H872 C845 0.930 . S
H873 C846 0.931 . S
H874 C848 0.934 . S
H875 C849 0.930 . S
H876 C854 0.930 . S
H877 C855 0.931 . S
H878 C857 0.934 . S
H879 C858 0.930 . S
Ho880 C883 2.811 . S
Ho880 O900 2.322 . S
Ho880 O902 2.378 . S
Ho880 O903 2.524 . S
Ho880 O904 2.381 . S
Ho880 O905 2.669 . S
Ho880 O907 2.346 . S
Ho880 O911 2.305 . S
Ho881 C892 2.811 . S
Ho881 O901 2.346 . S
Ho881 O905 2.305 . S
Ho881 O906 2.322 . S
Ho881 O908 2.378 . S
Ho881 O909 2.524 . S
Ho881 O910 2.381 . S
Ho881 O911 2.669 . S
C882 O900 1.259 . S
C882 O901 1.268 . S
C883 Ho880 2.811 . S
C883 C884 1.488 . S
C883 O902 1.215 . S
C883 O903 1.289 . S
C884 C883 1.488 . S
C884 C885 1.348 . S
C884 C889 1.413 . S
C885 C884 1.348 . S
C885 C886 1.442 . S
C885 H912 0.930 . S
C886 C885 1.442 . S
C886 C887 1.381 . S
C886 H913 0.931 . S
C887 C886 1.381 . S
C887 C888 1.321 . S
C888 C887 1.321 . S
C888 C889 1.403 . S
C888 H914 0.934 . S
C889 C884 1.413 . S
C889 C888 1.403 . S
C889 H915 0.930 . S
C890 O904 1.275 . S
C890 O905 1.256 . S
C891 O906 1.259 . S
C891 O907 1.268 . S
C892 Ho881 2.811 . S
C892 C893 1.488 . S
C892 O908 1.215 . S
C892 O909 1.289 . S
C893 C892 1.488 . S
C893 C894 1.348 . S
C893 C898 1.413 . S
C894 C893 1.348 . S
C894 C895 1.442 . S
C894 H916 0.930 . S
C895 C894 1.442 . S
C895 C896 1.381 . S
C895 H917 0.931 . S
C896 C895 1.381 . S
C896 C897 1.321 . S
C897 C896 1.321 . S
C897 C898 1.403 . S
C897 H918 0.934 . S
C898 C893 1.413 . S
C898 C897 1.403 . S
C898 H919 0.930 . S
C899 O910 1.275 . S
C899 O911 1.256 . S
O900 Ho880 2.322 . S
O900 C882 1.259 . S
O901 Ho881 2.346 . S
O901 C882 1.268 . S
O902 Ho880 2.378 . S
O902 C883 1.215 . S
O903 Ho880 2.524 . S
O903 C883 1.289 . S
O904 Ho880 2.381 . S
O904 C890 1.275 . S
O905 Ho880 2.669 . S
O905 Ho881 2.305 . S
O905 C890 1.256 . S
O906 Ho881 2.322 . S
O906 C891 1.259 . S
O907 Ho880 2.346 . S
O907 C891 1.268 . S
O908 Ho881 2.378 . S
O908 C892 1.215 . S
O909 Ho881 2.524 . S
O909 C892 1.289 . S
O910 Ho881 2.381 . S
O910 C899 1.275 . S
O911 Ho880 2.305 . S
O911 Ho881 2.669 . S
O911 C899 1.256 . S
H912 C885 0.930 . S
H913 C886 0.931 . S
H914 C888 0.934 . S
H915 C889 0.930 . S
H916 C894 0.930 . S
H917 C895 0.931 . S
H918 C897 0.934 . S
H919 C898 0.930 . S
Ho920 C923 2.811 . S
Ho920 O940 2.322 . S
Ho920 O942 2.378 . S
Ho920 O943 2.524 . S
Ho920 O944 2.381 . S
Ho920 O945 2.669 . S
Ho920 O947 2.346 . S
Ho920 O951 2.305 . S
Ho921 C932 2.811 . S
Ho921 O941 2.346 . S
Ho921 O945 2.305 . S
Ho921 O946 2.322 . S
Ho921 O948 2.378 . S
Ho921 O949 2.524 . S
Ho921 O950 2.381 . S
Ho921 O951 2.669 . S
C922 O940 1.259 . S
C922 O941 1.268 . S
C923 Ho920 2.811 . S
C923 C924 1.488 . S
C923 O942 1.215 . S
C923 O943 1.289 . S
C924 C923 1.488 . S
C924 C925 1.348 . S
C924 C929 1.413 . S
C925 C924 1.348 . S
C925 C926 1.442 . S
C925 H952 0.930 . S
C926 C925 1.442 . S
C926 C927 1.381 . S
C926 H953 0.931 . S
C927 C926 1.381 . S
C927 C928 1.321 . S
C928 C927 1.321 . S
C928 C929 1.403 . S
C928 H954 0.934 . S
C929 C924 1.413 . S
C929 C928 1.403 . S
C929 H955 0.930 . S
C930 O944 1.275 . S
C930 O945 1.256 . S
C931 O946 1.259 . S
C931 O947 1.268 . S
C932 Ho921 2.811 . S
C932 C933 1.488 . S
C932 O948 1.215 . S
C932 O949 1.289 . S
C933 C932 1.488 . S
C933 C934 1.348 . S
C933 C938 1.413 . S
C934 C933 1.348 . S
C934 C935 1.442 . S
C934 H956 0.930 . S
C935 C934 1.442 . S
C935 C936 1.381 . S
C935 H957 0.931 . S
C936 C935 1.381 . S
C936 C937 1.321 . S
C937 C936 1.321 . S
C937 C938 1.403 . S
C937 H958 0.934 . S
C938 C933 1.413 . S
C938 C937 1.403 . S
C938 H959 0.930 . S
C939 O950 1.275 . S
C939 O951 1.256 . S
O940 Ho920 2.322 . S
O940 C922 1.259 . S
O941 Ho921 2.346 . S
O941 C922 1.268 . S
O942 Ho920 2.378 . S
O942 C923 1.215 . S
O943 Ho920 2.524 . S
O943 C923 1.289 . S
O944 Ho920 2.381 . S
O944 C930 1.275 . S
O945 Ho920 2.669 . S
O945 Ho921 2.305 . S
O945 C930 1.256 . S
O946 Ho921 2.322 . S
O946 C931 1.259 . S
O947 Ho920 2.346 . S
O947 C931 1.268 . S
O948 Ho921 2.378 . S
O948 C932 1.215 . S
O949 Ho921 2.524 . S
O949 C932 1.289 . S
O950 Ho921 2.381 . S
O950 C939 1.275 . S
O951 Ho920 2.305 . S
O951 Ho921 2.669 . S
O951 C939 1.256 . S
H952 C925 0.930 . S
H953 C926 0.931 . S
H954 C928 0.934 . S
H955 C929 0.930 . S
H956 C934 0.930 . S
H957 C935 0.931 . S
H958 C937 0.934 . S
H959 C938 0.930 . S
Ho960 C963 2.811 . S
Ho960 O980 2.322 . S
Ho960 O982 2.378 . S
Ho960 O983 2.524 . S
Ho960 O984 2.381 . S
Ho960 O985 2.669 . S
Ho960 O987 2.346 . S
Ho960 O991 2.305 . S
Ho961 C972 2.811 . S
Ho961 O981 2.346 . S
Ho961 O985 2.305 . S
Ho961 O986 2.322 . S
Ho961 O988 2.378 . S
Ho961 O989 2.524 . S
Ho961 O990 2.381 . S
Ho961 O991 2.669 . S
C962 O980 1.259 . S
C962 O981 1.268 . S
C963 Ho960 2.811 . S
C963 C964 1.488 . S
C963 O982 1.215 . S
C963 O983 1.289 . S
C964 C963 1.488 . S
C964 C965 1.348 . S
C964 C969 1.413 . S
C965 C964 1.348 . S
C965 C966 1.442 . S
C965 H992 0.930 . S
C966 C965 1.442 . S
C966 C967 1.381 . S
C966 H993 0.931 . S
C967 C966 1.381 . S
C967 C968 1.321 . S
C968 C967 1.321 . S
C968 C969 1.403 . S
C968 H994 0.934 . S
C969 C964 1.413 . S
C969 C968 1.403 . S
C969 H995 0.930 . S
C970 O984 1.275 . S
C970 O985 1.256 . S
C971 O986 1.259 . S
C971 O987 1.268 . S
C972 Ho961 2.811 . S
C972 C973 1.488 . S
C972 O988 1.215 . S
C972 O989 1.289 . S
C973 C972 1.488 . S
C973 C974 1.348 . S
C973 C978 1.413 . S
C974 C973 1.348 . S
C974 C975 1.442 . S
C974 H996 0.930 . S
C975 C974 1.442 . S
C975 C976 1.381 . S
C975 H997 0.931 . S
C976 C975 1.381 . S
C976 C977 1.321 . S
C977 C976 1.321 . S
C977 C978 1.403 . S
C977 H998 0.934 . S
C978 C973 1.413 . S
C978 C977 1.403 . S
C978 H999 0.930 . S
C979 O990 1.275 . S
C979 O991 1.256 . S
O980 Ho960 2.322 . S
O980 C962 1.259 . S
O981 Ho961 2.346 . S
O981 C962 1.268 . S
O982 Ho960 2.378 . S
O982 C963 1.215 . S
O983 Ho960 2.524 . S
O983 C963 1.289 . S
O984 Ho960 2.381 . S
O984 C970 1.275 . S
O985 Ho960 2.669 . S
O985 Ho961 2.305 . S
O985 C970 1.256 . S
O986 Ho961 2.322 . S
O986 C971 1.259 . S
O987 Ho960 2.346 . S
O987 C971 1.268 . S
O988 Ho961 2.378 . S
O988 C972 1.215 . S
O989 Ho961 2.524 . S
O989 C972 1.289 . S
O990 Ho961 2.381 . S
O990 C979 1.275 . S
O991 Ho960 2.305 . S
O991 Ho961 2.669 . S
O991 C979 1.256 . S
H992 C965 0.930 . S
H993 C966 0.931 . S
H994 C968 0.934 . S
H995 C969 0.930 . S
H996 C974 0.930 . S
H997 C975 0.931 . S
H998 C977 0.934 . S
H999 C978 0.930 . S
Ho1000 C1003 2.811 . S
Ho1000 O1020 2.322 . S
Ho1000 O1022 2.378 . S
Ho1000 O1023 2.524 . S
Ho1000 O1024 2.381 . S
Ho1000 O1025 2.669 . S
Ho1000 O1027 2.346 . S
Ho1000 O1031 2.305 . S
Ho1001 C1012 2.811 . S
Ho1001 O1021 2.346 . S
Ho1001 O1025 2.305 . S
Ho1001 O1026 2.322 . S
Ho1001 O1028 2.378 . S
Ho1001 O1029 2.524 . S
Ho1001 O1030 2.381 . S
Ho1001 O1031 2.669 . S
C1002 O1020 1.259 . S
C1002 O1021 1.268 . S
C1003 Ho1000 2.811 . S
C1003 C1004 1.488 . S
C1003 O1022 1.215 . S
C1003 O1023 1.289 . S
C1004 C1003 1.488 . S
C1004 C1005 1.348 . S
C1004 C1009 1.413 . S
C1005 C1004 1.348 . S
C1005 C1006 1.442 . S
C1005 H1032 0.930 . S
C1006 C1005 1.442 . S
C1006 C1007 1.381 . S
C1006 H1033 0.931 . S
C1007 C1006 1.381 . S
C1007 C1008 1.321 . S
C1008 C1007 1.321 . S
C1008 C1009 1.403 . S
C1008 H1034 0.934 . S
C1009 C1004 1.413 . S
C1009 C1008 1.403 . S
C1009 H1035 0.930 . S
C1010 O1024 1.275 . S
C1010 O1025 1.256 . S
C1011 O1026 1.259 . S
C1011 O1027 1.268 . S
C1012 Ho1001 2.811 . S
C1012 C1013 1.488 . S
C1012 O1028 1.215 . S
C1012 O1029 1.289 . S
C1013 C1012 1.488 . S
C1013 C1014 1.348 . S
C1013 C1018 1.413 . S
C1014 C1013 1.348 . S
C1014 C1015 1.442 . S
C1014 H1036 0.930 . S
C1015 C1014 1.442 . S
C1015 C1016 1.381 . S
C1015 H1037 0.931 . S
C1016 C1015 1.381 . S
C1016 C1017 1.321 . S
C1017 C1016 1.321 . S
C1017 C1018 1.403 . S
C1017 H1038 0.934 . S
C1018 C1013 1.413 . S
C1018 C1017 1.403 . S
C1018 H1039 0.930 . S
C1019 O1030 1.275 . S
C1019 O1031 1.256 . S
O1020 Ho1000 2.322 . S
O1020 C1002 1.259 . S
O1021 Ho1001 2.346 . S
O1021 C1002 1.268 . S
O1022 Ho1000 2.378 . S
O1022 C1003 1.215 . S
O1023 Ho1000 2.524 . S
O1023 C1003 1.289 . S
O1024 Ho1000 2.381 . S
O1024 C1010 1.275 . S
O1025 Ho1000 2.669 . S
O1025 Ho1001 2.305 . S
O1025 C1010 1.256 . S
O1026 Ho1001 2.322 . S
O1026 C1011 1.259 . S
O1027 Ho1000 2.346 . S
O1027 C1011 1.268 . S
O1028 Ho1001 2.378 . S
O1028 C1012 1.215 . S
O1029 Ho1001 2.524 . S
O1029 C1012 1.289 . S
O1030 Ho1001 2.381 . S
O1030 C1019 1.275 . S
O1031 Ho1000 2.305 . S
O1031 Ho1001 2.669 . S
O1031 C1019 1.256 . S
H1032 C1005 0.930 . S
H1033 C1006 0.931 . S
H1034 C1008 0.934 . S
H1035 C1009 0.930 . S
H1036 C1014 0.930 . S
H1037 C1015 0.931 . S
H1038 C1017 0.934 . S
H1039 C1018 0.930 . S
Ho1040 C1043 2.811 . S
Ho1040 O1060 2.322 . S
Ho1040 O1062 2.378 . S
Ho1040 O1063 2.524 . S
Ho1040 O1064 2.381 . S
Ho1040 O1065 2.669 . S
Ho1040 O1067 2.346 . S
Ho1040 O1071 2.305 . S
Ho1041 C1052 2.811 . S
Ho1041 O1061 2.346 . S
Ho1041 O1065 2.305 . S
Ho1041 O1066 2.322 . S
Ho1041 O1068 2.378 . S
Ho1041 O1069 2.524 . S
Ho1041 O1070 2.381 . S
Ho1041 O1071 2.669 . S
C1042 O1060 1.259 . S
C1042 O1061 1.268 . S
C1043 Ho1040 2.811 . S
C1043 C1044 1.488 . S
C1043 O1062 1.215 . S
C1043 O1063 1.289 . S
C1044 C1043 1.488 . S
C1044 C1045 1.348 . S
C1044 C1049 1.413 . S
C1045 C1044 1.348 . S
C1045 C1046 1.442 . S
C1045 H1072 0.930 . S
C1046 C1045 1.442 . S
C1046 C1047 1.381 . S
C1046 H1073 0.931 . S
C1047 C1046 1.381 . S
C1047 C1048 1.321 . S
C1048 C1047 1.321 . S
C1048 C1049 1.403 . S
C1048 H1074 0.934 . S
C1049 C1044 1.413 . S
C1049 C1048 1.403 . S
C1049 H1075 0.930 . S
C1050 O1064 1.275 . S
C1050 O1065 1.256 . S
C1051 O1066 1.259 . S
C1051 O1067 1.268 . S
C1052 Ho1041 2.811 . S
C1052 C1053 1.488 . S
C1052 O1068 1.215 . S
C1052 O1069 1.289 . S
C1053 C1052 1.488 . S
C1053 C1054 1.348 . S
C1053 C1058 1.413 . S
C1054 C1053 1.348 . S
C1054 C1055 1.442 . S
C1054 H1076 0.930 . S
C1055 C1054 1.442 . S
C1055 C1056 1.381 . S
C1055 H1077 0.931 . S
C1056 C1055 1.381 . S
C1056 C1057 1.321 . S
C1057 C1056 1.321 . S
C1057 C1058 1.403 . S
C1057 H1078 0.934 . S
C1058 C1053 1.413 . S
C1058 C1057 1.403 . S
C1058 H1079 0.930 . S
C1059 O1070 1.275 . S
C1059 O1071 1.256 . S
O1060 Ho1040 2.322 . S
O1060 C1042 1.259 . S
O1061 Ho1041 2.346 . S
O1061 C1042 1.268 . S
O1062 Ho1040 2.378 . S
O1062 C1043 1.215 . S
O1063 Ho1040 2.524 . S
O1063 C1043 1.289 . S
O1064 Ho1040 2.381 . S
O1064 C1050 1.275 . S
O1065 Ho1040 2.669 . S
O1065 Ho1041 2.305 . S
O1065 C1050 1.256 . S
O1066 Ho1041 2.322 . S
O1066 C1051 1.259 . S
O1067 Ho1040 2.346 . S
O1067 C1051 1.268 . S
O1068 Ho1041 2.378 . S
O1068 C1052 1.215 . S
O1069 Ho1041 2.524 . S
O1069 C1052 1.289 . S
O1070 Ho1041 2.381 . S
O1070 C1059 1.275 . S
O1071 Ho1040 2.305 . S
O1071 Ho1041 2.669 . S
O1071 C1059 1.256 . S
H1072 C1045 0.930 . S
H1073 C1046 0.931 . S
H1074 C1048 0.934 . S
H1075 C1049 0.930 . S
H1076 C1054 0.930 . S
H1077 C1055 0.931 . S
H1078 C1057 0.934 . S
H1079 C1058 0.930 . S
Ho1080 C1083 2.811 . S
Ho1080 O1100 2.322 . S
Ho1080 O1102 2.378 . S
Ho1080 O1103 2.524 . S
Ho1080 O1104 2.381 . S
Ho1080 O1105 2.669 . S
Ho1080 O1107 2.346 . S
Ho1080 O1111 2.305 . S
Ho1081 C1092 2.811 . S
Ho1081 O1101 2.346 . S
Ho1081 O1105 2.305 . S
Ho1081 O1106 2.322 . S
Ho1081 O1108 2.378 . S
Ho1081 O1109 2.524 . S
Ho1081 O1110 2.381 . S
Ho1081 O1111 2.669 . S
C1082 O1100 1.259 . S
C1082 O1101 1.268 . S
C1083 Ho1080 2.811 . S
C1083 C1084 1.488 . S
C1083 O1102 1.215 . S
C1083 O1103 1.289 . S
C1084 C1083 1.488 . S
C1084 C1085 1.348 . S
C1084 C1089 1.413 . S
C1085 C1084 1.348 . S
C1085 C1086 1.442 . S
C1085 H1112 0.930 . S
C1086 C1085 1.442 . S
C1086 C1087 1.381 . S
C1086 H1113 0.931 . S
C1087 C1086 1.381 . S
C1087 C1088 1.321 . S
C1088 C1087 1.321 . S
C1088 C1089 1.403 . S
C1088 H1114 0.934 . S
C1089 C1084 1.413 . S
C1089 C1088 1.403 . S
C1089 H1115 0.930 . S
C1090 O1104 1.275 . S
C1090 O1105 1.256 . S
C1091 O1106 1.259 . S
C1091 O1107 1.268 . S
C1092 Ho1081 2.811 . S
C1092 C1093 1.488 . S
C1092 O1108 1.215 . S
C1092 O1109 1.289 . S
C1093 C1092 1.488 . S
C1093 C1094 1.348 . S
C1093 C1098 1.413 . S
C1094 C1093 1.348 . S
C1094 C1095 1.442 . S
C1094 H1116 0.930 . S
C1095 C1094 1.442 . S
C1095 C1096 1.381 . S
C1095 H1117 0.931 . S
C1096 C1095 1.381 . S
C1096 C1097 1.321 . S
C1097 C1096 1.321 . S
C1097 C1098 1.403 . S
C1097 H1118 0.934 . S
C1098 C1093 1.413 . S
C1098 C1097 1.403 . S
C1098 H1119 0.930 . S
C1099 O1110 1.275 . S
C1099 O1111 1.256 . S
O1100 Ho1080 2.322 . S
O1100 C1082 1.259 . S
O1101 Ho1081 2.346 . S
O1101 C1082 1.268 . S
O1102 Ho1080 2.378 . S
O1102 C1083 1.215 . S
O1103 Ho1080 2.524 . S
O1103 C1083 1.289 . S
O1104 Ho1080 2.381 . S
O1104 C1090 1.275 . S
O1105 Ho1080 2.669 . S
O1105 Ho1081 2.305 . S
O1105 C1090 1.256 . S
O1106 Ho1081 2.322 . S
O1106 C1091 1.259 . S
O1107 Ho1080 2.346 . S
O1107 C1091 1.268 . S
O1108 Ho1081 2.378 . S
O1108 C1092 1.215 . S
O1109 Ho1081 2.524 . S
O1109 C1092 1.289 . S
O1110 Ho1081 2.381 . S
O1110 C1099 1.275 . S
O1111 Ho1080 2.305 . S
O1111 Ho1081 2.669 . S
O1111 C1099 1.256 . S
H1112 C1085 0.930 . S
H1113 C1086 0.931 . S
H1114 C1088 0.934 . S
H1115 C1089 0.930 . S
H1116 C1094 0.930 . S
H1117 C1095 0.931 . S
H1118 C1097 0.934 . S
H1119 C1098 0.930 . S
Ho1120 C1123 2.811 . S
Ho1120 O1140 2.322 . S
Ho1120 O1142 2.378 . S
Ho1120 O1143 2.524 . S
Ho1120 O1144 2.381 . S
Ho1120 O1145 2.669 . S
Ho1120 O1147 2.346 . S
Ho1120 O1151 2.305 . S
Ho1121 C1132 2.811 . S
Ho1121 O1141 2.346 . S
Ho1121 O1145 2.305 . S
Ho1121 O1146 2.322 . S
Ho1121 O1148 2.378 . S
Ho1121 O1149 2.524 . S
Ho1121 O1150 2.381 . S
Ho1121 O1151 2.669 . S
C1122 O1140 1.259 . S
C1122 O1141 1.268 . S
C1123 Ho1120 2.811 . S
C1123 C1124 1.488 . S
C1123 O1142 1.215 . S
C1123 O1143 1.289 . S
C1124 C1123 1.488 . S
C1124 C1125 1.348 . S
C1124 C1129 1.413 . S
C1125 C1124 1.348 . S
C1125 C1126 1.442 . S
C1125 H1152 0.930 . S
C1126 C1125 1.442 . S
C1126 C1127 1.381 . S
C1126 H1153 0.931 . S
C1127 C1126 1.381 . S
C1127 C1128 1.321 . S
C1128 C1127 1.321 . S
C1128 C1129 1.403 . S
C1128 H1154 0.934 . S
C1129 C1124 1.413 . S
C1129 C1128 1.403 . S
C1129 H1155 0.930 . S
C1130 O1144 1.275 . S
C1130 O1145 1.256 . S
C1131 O1146 1.259 . S
C1131 O1147 1.268 . S
C1132 Ho1121 2.811 . S
C1132 C1133 1.488 . S
C1132 O1148 1.215 . S
C1132 O1149 1.289 . S
C1133 C1132 1.488 . S
C1133 C1134 1.348 . S
C1133 C1138 1.413 . S
C1134 C1133 1.348 . S
C1134 C1135 1.442 . S
C1134 H1156 0.930 . S
C1135 C1134 1.442 . S
C1135 C1136 1.381 . S
C1135 H1157 0.931 . S
C1136 C1135 1.381 . S
C1136 C1137 1.321 . S
C1137 C1136 1.321 . S
C1137 C1138 1.403 . S
C1137 H1158 0.934 . S
C1138 C1133 1.413 . S
C1138 C1137 1.403 . S
C1138 H1159 0.930 . S
C1139 O1150 1.275 . S
C1139 O1151 1.256 . S
O1140 Ho1120 2.322 . S
O1140 C1122 1.259 . S
O1141 Ho1121 2.346 . S
O1141 C1122 1.268 . S
O1142 Ho1120 2.378 . S
O1142 C1123 1.215 . S
O1143 Ho1120 2.524 . S
O1143 C1123 1.289 . S
O1144 Ho1120 2.381 . S
O1144 C1130 1.275 . S
O1145 Ho1120 2.669 . S
O1145 Ho1121 2.305 . S
O1145 C1130 1.256 . S
O1146 Ho1121 2.322 . S
O1146 C1131 1.259 . S
O1147 Ho1120 2.346 . S
O1147 C1131 1.268 . S
O1148 Ho1121 2.378 . S
O1148 C1132 1.215 . S
O1149 Ho1121 2.524 . S
O1149 C1132 1.289 . S
O1150 Ho1121 2.381 . S
O1150 C1139 1.275 . S
O1151 Ho1120 2.305 . S
O1151 Ho1121 2.669 . S
O1151 C1139 1.256 . S
H1152 C1125 0.930 . S
H1153 C1126 0.931 . S
H1154 C1128 0.934 . S
H1155 C1129 0.930 . S
H1156 C1134 0.930 . S
H1157 C1135 0.931 . S
H1158 C1137 0.934 . S
H1159 C1138 0.930 . S
Ho1160 C1163 2.811 . S
Ho1160 O1180 2.322 . S
Ho1160 O1182 2.378 . S
Ho1160 O1183 2.524 . S
Ho1160 O1184 2.381 . S
Ho1160 O1185 2.669 . S
Ho1160 O1187 2.346 . S
Ho1160 O1191 2.305 . S
Ho1161 C1172 2.811 . S
Ho1161 O1181 2.346 . S
Ho1161 O1185 2.305 . S
Ho1161 O1186 2.322 . S
Ho1161 O1188 2.378 . S
Ho1161 O1189 2.524 . S
Ho1161 O1190 2.381 . S
Ho1161 O1191 2.669 . S
C1162 O1180 1.259 . S
C1162 O1181 1.268 . S
C1163 Ho1160 2.811 . S
C1163 C1164 1.488 . S
C1163 O1182 1.215 . S
C1163 O1183 1.289 . S
C1164 C1163 1.488 . S
C1164 C1165 1.348 . S
C1164 C1169 1.413 . S
C1165 C1164 1.348 . S
C1165 C1166 1.442 . S
C1165 H1192 0.930 . S
C1166 C1165 1.442 . S
C1166 C1167 1.381 . S
C1166 H1193 0.931 . S
C1167 C1166 1.381 . S
C1167 C1168 1.321 . S
C1168 C1167 1.321 . S
C1168 C1169 1.403 . S
C1168 H1194 0.934 . S
C1169 C1164 1.413 . S
C1169 C1168 1.403 . S
C1169 H1195 0.930 . S
C1170 O1184 1.275 . S
C1170 O1185 1.256 . S
C1171 O1186 1.259 . S
C1171 O1187 1.268 . S
C1172 Ho1161 2.811 . S
C1172 C1173 1.488 . S
C1172 O1188 1.215 . S
C1172 O1189 1.289 . S
C1173 C1172 1.488 . S
C1173 C1174 1.348 . S
C1173 C1178 1.413 . S
C1174 C1173 1.348 . S
C1174 C1175 1.442 . S
C1174 H1196 0.930 . S
C1175 C1174 1.442 . S
C1175 C1176 1.381 . S
C1175 H1197 0.931 . S
C1176 C1175 1.381 . S
C1176 C1177 1.321 . S
C1177 C1176 1.321 . S
C1177 C1178 1.403 . S
C1177 H1198 0.934 . S
C1178 C1173 1.413 . S
C1178 C1177 1.403 . S
C1178 H1199 0.930 . S
C1179 O1190 1.275 . S
C1179 O1191 1.256 . S
O1180 Ho1160 2.322 . S
O1180 C1162 1.259 . S
O1181 Ho1161 2.346 . S
O1181 C1162 1.268 . S
O1182 Ho1160 2.378 . S
O1182 C1163 1.215 . S
O1183 Ho1160 2.524 . S
O1183 C1163 1.289 . S
O1184 Ho1160 2.381 . S
O1184 C1170 1.275 . S
O1185 Ho1160 2.669 . S
O1185 Ho1161 2.305 . S
O1185 C1170 1.256 . S
O1186 Ho1161 2.322 . S
O1186 C1171 1.259 . S
O1187 Ho1160 2.346 . S
O1187 C1171 1.268 . S
O1188 Ho1161 2.378 . S
O1188 C1172 1.215 . S
O1189 Ho1161 2.524 . S
O1189 C1172 1.289 . S
O1190 Ho1161 2.381 . S
O1190 C1179 1.275 . S
O1191 Ho1160 2.305 . S
O1191 Ho1161 2.669 . S
O1191 C1179 1.256 . S
H1192 C1165 0.930 . S
H1193 C1166 0.931 . S
H1194 C1168 0.934 . S
H1195 C1169 0.930 . S
H1196 C1174 0.930 . S
H1197 C1175 0.931 . S
H1198 C1177 0.934 . S
H1199 C1178 0.930 . S
Ho1200 C1203 2.811 . S
Ho1200 O1220 2.322 . S
Ho1200 O1222 2.378 . S
Ho1200 O1223 2.524 . S
Ho1200 O1224 2.381 . S
Ho1200 O1225 2.669 . S
Ho1200 O1227 2.346 . S
Ho1200 O1231 2.305 . S
Ho1201 C1212 2.811 . S
Ho1201 O1221 2.346 . S
Ho1201 O1225 2.305 . S
Ho1201 O1226 2.322 . S
Ho1201 O1228 2.378 . S
Ho1201 O1229 2.524 . S
Ho1201 O1230 2.381 . S
Ho1201 O1231 2.669 . S
C1202 O1220 1.259 . S
C1202 O1221 1.268 . S
C1203 Ho1200 2.811 . S
C1203 C1204 1.488 . S
C1203 O1222 1.215 . S
C1203 O1223 1.289 . S
C1204 C1203 1.488 . S
C1204 C1205 1.348 . S
C1204 C1209 1.413 . S
C1205 C1204 1.348 . S
C1205 C1206 1.442 . S
C1205 H1232 0.930 . S
C1206 C1205 1.442 . S
C1206 C1207 1.381 . S
C1206 H1233 0.931 . S
C1207 C1206 1.381 . S
C1207 C1208 1.321 . S
C1208 C1207 1.321 . S
C1208 C1209 1.403 . S
C1208 H1234 0.934 . S
C1209 C1204 1.413 . S
C1209 C1208 1.403 . S
C1209 H1235 0.930 . S
C1210 O1224 1.275 . S
C1210 O1225 1.256 . S
C1211 O1226 1.259 . S
C1211 O1227 1.268 . S
C1212 Ho1201 2.811 . S
C1212 C1213 1.488 . S
C1212 O1228 1.215 . S
C1212 O1229 1.289 . S
C1213 C1212 1.488 . S
C1213 C1214 1.348 . S
C1213 C1218 1.413 . S
C1214 C1213 1.348 . S
C1214 C1215 1.442 . S
C1214 H1236 0.930 . S
C1215 C1214 1.442 . S
C1215 C1216 1.381 . S
C1215 H1237 0.931 . S
C1216 C1215 1.381 . S
C1216 C1217 1.321 . S
C1217 C1216 1.321 . S
C1217 C1218 1.403 . S
C1217 H1238 0.934 . S
C1218 C1213 1.413 . S
C1218 C1217 1.403 . S
C1218 H1239 0.930 . S
C1219 O1230 1.275 . S
C1219 O1231 1.256 . S
O1220 Ho1200 2.322 . S
O1220 C1202 1.259 . S
O1221 Ho1201 2.346 . S
O1221 C1202 1.268 . S
O1222 Ho1200 2.378 . S
O1222 C1203 1.215 . S
O1223 Ho1200 2.524 . S
O1223 C1203 1.289 . S
O1224 Ho1200 2.381 . S
O1224 C1210 1.275 . S
O1225 Ho1200 2.669 . S
O1225 Ho1201 2.305 . S
O1225 C1210 1.256 . S
O1226 Ho1201 2.322 . S
O1226 C1211 1.259 . S
O1227 Ho1200 2.346 . S
O1227 C1211 1.268 . S
O1228 Ho1201 2.378 . S
O1228 C1212 1.215 . S
O1229 Ho1201 2.524 . S
O1229 C1212 1.289 . S
O1230 Ho1201 2.381 . S
O1230 C1219 1.275 . S
O1231 Ho1200 2.305 . S
O1231 Ho1201 2.669 . S
O1231 C1219 1.256 . S
H1232 C1205 0.930 . S
H1233 C1206 0.931 . S
H1234 C1208 0.934 . S
H1235 C1209 0.930 . S
H1236 C1214 0.930 . S
H1237 C1215 0.931 . S
H1238 C1217 0.934 . S
H1239 C1218 0.930 . S
Ho1240 C1243 2.811 . S
Ho1240 O1260 2.322 . S
Ho1240 O1262 2.378 . S
Ho1240 O1263 2.524 . S
Ho1240 O1264 2.381 . S
Ho1240 O1265 2.669 . S
Ho1240 O1267 2.346 . S
Ho1240 O1271 2.305 . S
Ho1241 C1252 2.811 . S
Ho1241 O1261 2.346 . S
Ho1241 O1265 2.305 . S
Ho1241 O1266 2.322 . S
Ho1241 O1268 2.378 . S
Ho1241 O1269 2.524 . S
Ho1241 O1270 2.381 . S
Ho1241 O1271 2.669 . S
C1242 O1260 1.259 . S
C1242 O1261 1.268 . S
C1243 Ho1240 2.811 . S
C1243 C1244 1.488 . S
C1243 O1262 1.215 . S
C1243 O1263 1.289 . S
C1244 C1243 1.488 . S
C1244 C1245 1.348 . S
C1244 C1249 1.413 . S
C1245 C1244 1.348 . S
C1245 C1246 1.442 . S
C1245 H1272 0.930 . S
C1246 C1245 1.442 . S
C1246 C1247 1.381 . S
C1246 H1273 0.931 . S
C1247 C1246 1.381 . S
C1247 C1248 1.321 . S
C1248 C1247 1.321 . S
C1248 C1249 1.403 . S
C1248 H1274 0.934 . S
C1249 C1244 1.413 . S
C1249 C1248 1.403 . S
C1249 H1275 0.930 . S
C1250 O1264 1.275 . S
C1250 O1265 1.256 . S
C1251 O1266 1.259 . S
C1251 O1267 1.268 . S
C1252 Ho1241 2.811 . S
C1252 C1253 1.488 . S
C1252 O1268 1.215 . S
C1252 O1269 1.289 . S
C1253 C1252 1.488 . S
C1253 C1254 1.348 . S
C1253 C1258 1.413 . S
C1254 C1253 1.348 . S
C1254 C1255 1.442 . S
C1254 H1276 0.930 . S
C1255 C1254 1.442 . S
C1255 C1256 1.381 . S
C1255 H1277 0.931 . S
C1256 C1255 1.381 . S
C1256 C1257 1.321 . S
C1257 C1256 1.321 . S
C1257 C1258 1.403 . S
C1257 H1278 0.934 . S
C1258 C1253 1.413 . S
C1258 C1257 1.403 . S
C1258 H1279 0.930 . S
C1259 O1270 1.275 . S
C1259 O1271 1.256 . S
O1260 Ho1240 2.322 . S
O1260 C1242 1.259 . S
O1261 Ho1241 2.346 . S
O1261 C1242 1.268 . S
O1262 Ho1240 2.378 . S
O1262 C1243 1.215 . S
O1263 Ho1240 2.524 . S
O1263 C1243 1.289 . S
O1264 Ho1240 2.381 . S
O1264 C1250 1.275 . S
O1265 Ho1240 2.669 . S
O1265 Ho1241 2.305 . S
O1265 C1250 1.256 . S
O1266 Ho1241 2.322 . S
O1266 C1251 1.259 . S
O1267 Ho1240 2.346 . S
O1267 C1251 1.268 . S
O1268 Ho1241 2.378 . S
O1268 C1252 1.215 . S
O1269 Ho1241 2.524 . S
O1269 C1252 1.289 . S
O1270 Ho1241 2.381 . S
O1270 C1259 1.275 . S
O1271 Ho1240 2.305 . S
O1271 Ho1241 2.669 . S
O1271 C1259 1.256 . S
H1272 C1245 0.930 . S
H1273 C1246 0.931 . S
H1274 C1248 0.934 . S
H1275 C1249 0.930 . S
H1276 C1254 0.930 . S
H1277 C1255 0.931 . S
H1278 C1257 0.934 . S
H1279 C1258 0.930 . S
Ho1280 C1283 2.811 . S
Ho1280 O1300 2.322 . S
Ho1280 O1302 2.378 . S
Ho1280 O1303 2.524 . S
Ho1280 O1304 2.381 . S
Ho1280 O1305 2.669 . S
Ho1280 O1307 2.346 . S
Ho1280 O1311 2.305 . S
Ho1281 C1292 2.811 . S
Ho1281 O1301 2.346 . S
Ho1281 O1305 2.305 . S
Ho1281 O1306 2.322 . S
Ho1281 O1308 2.378 . S
Ho1281 O1309 2.524 . S
Ho1281 O1310 2.381 . S
Ho1281 O1311 2.669 . S
C1282 O1300 1.259 . S
C1282 O1301 1.268 . S
C1283 Ho1280 2.811 . S
C1283 C1284 1.488 . S
C1283 O1302 1.215 . S
C1283 O1303 1.289 . S
C1284 C1283 1.488 . S
C1284 C1285 1.348 . S
C1284 C1289 1.413 . S
C1285 C1284 1.348 . S
C1285 C1286 1.442 . S
C1285 H1312 0.930 . S
C1286 C1285 1.442 . S
C1286 C1287 1.381 . S
C1286 H1313 0.931 . S
C1287 C1286 1.381 . S
C1287 C1288 1.321 . S
C1288 C1287 1.321 . S
C1288 C1289 1.403 . S
C1288 H1314 0.934 . S
C1289 C1284 1.413 . S
C1289 C1288 1.403 . S
C1289 H1315 0.930 . S
C1290 O1304 1.275 . S
C1290 O1305 1.256 . S
C1291 O1306 1.259 . S
C1291 O1307 1.268 . S
C1292 Ho1281 2.811 . S
C1292 C1293 1.488 . S
C1292 O1308 1.215 . S
C1292 O1309 1.289 . S
C1293 C1292 1.488 . S
C1293 C1294 1.348 . S
C1293 C1298 1.413 . S
C1294 C1293 1.348 . S
C1294 C1295 1.442 . S
C1294 H1316 0.930 . S
C1295 C1294 1.442 . S
C1295 C1296 1.381 . S
C1295 H1317 0.931 . S
C1296 C1295 1.381 . S
C1296 C1297 1.321 . S
C1297 C1296 1.321 . S
C1297 C1298 1.403 . S
C1297 H1318 0.934 . S
C1298 C1293 1.413 . S
C1298 C1297 1.403 . S
C1298 H1319 0.930 . S
C1299 O1310 1.275 . S
C1299 O1311 1.256 . S
O1300 Ho1280 2.322 . S
O1300 C1282 1.259 . S
O1301 Ho1281 2.346 . S
O1301 C1282 1.268 . S
O1302 Ho1280 2.378 . S
O1302 C1283 1.215 . S
O1303 Ho1280 2.524 . S
O1303 C1283 1.289 . S
O1304 Ho1280 2.381 . S
O1304 C1290 1.275 . S
O1305 Ho1280 2.669 . S
O1305 Ho1281 2.305 . S
O1305 C1290 1.256 . S
O1306 Ho1281 2.322 . S
O1306 C1291 1.259 . S
O1307 Ho1280 2.346 . S
O1307 C1291 1.268 . S
O1308 Ho1281 2.378 . S
O1308 C1292 1.215 . S
O1309 Ho1281 2.524 . S
O1309 C1292 1.289 . S
O1310 Ho1281 2.381 . S
O1310 C1299 1.275 . S
O1311 Ho1280 2.305 . S
O1311 Ho1281 2.669 . S
O1311 C1299 1.256 . S
H1312 C1285 0.930 . S
H1313 C1286 0.931 . S
H1314 C1288 0.934 . S
H1315 C1289 0.930 . S
H1316 C1294 0.930 . S
H1317 C1295 0.931 . S
H1318 C1297 0.934 . S
H1319 C1298 0.930 . S
Ho1320 C1323 2.811 . S
Ho1320 O1340 2.322 . S
Ho1320 O1342 2.378 . S
Ho1320 O1343 2.524 . S
Ho1320 O1344 2.381 . S
Ho1320 O1345 2.669 . S
Ho1320 O1347 2.346 . S
Ho1320 O1351 2.305 . S
Ho1321 C1332 2.811 . S
Ho1321 O1341 2.346 . S
Ho1321 O1345 2.305 . S
Ho1321 O1346 2.322 . S
Ho1321 O1348 2.378 . S
Ho1321 O1349 2.524 . S
Ho1321 O1350 2.381 . S
Ho1321 O1351 2.669 . S
C1322 O1340 1.259 . S
C1322 O1341 1.268 . S
C1323 Ho1320 2.811 . S
C1323 C1324 1.488 . S
C1323 O1342 1.215 . S
C1323 O1343 1.289 . S
C1324 C1323 1.488 . S
C1324 C1325 1.348 . S
C1324 C1329 1.413 . S
C1325 C1324 1.348 . S
C1325 C1326 1.442 . S
C1325 H1352 0.930 . S
C1326 C1325 1.442 . S
C1326 C1327 1.381 . S
C1326 H1353 0.931 . S
C1327 C1326 1.381 . S
C1327 C1328 1.321 . S
C1328 C1327 1.321 . S
C1328 C1329 1.403 . S
C1328 H1354 0.934 . S
C1329 C1324 1.413 . S
C1329 C1328 1.403 . S
C1329 H1355 0.930 . S
C1330 O1344 1.275 . S
C1330 O1345 1.256 . S
C1331 O1346 1.259 . S
C1331 O1347 1.268 . S
C1332 Ho1321 2.811 . S
C1332 C1333 1.488 . S
C1332 O1348 1.215 . S
C1332 O1349 1.289 . S
C1333 C1332 1.488 . S
C1333 C1334 1.348 . S
C1333 C1338 1.413 . S
C1334 C1333 1.348 . S
C1334 C1335 1.442 . S
C1334 H1356 0.930 . S
C1335 C1334 1.442 . S
C1335 C1336 1.381 . S
C1335 H1357 0.931 . S
C1336 C1335 1.381 . S
C1336 C1337 1.321 . S
C1337 C1336 1.321 . S
C1337 C1338 1.403 . S
C1337 H1358 0.934 . S
C1338 C1333 1.413 . S
C1338 C1337 1.403 . S
C1338 H1359 0.930 . S
C1339 O1350 1.275 . S
C1339 O1351 1.256 . S
O1340 Ho1320 2.322 . S
O1340 C1322 1.259 . S
O1341 Ho1321 2.346 . S
O1341 C1322 1.268 . S
O1342 Ho1320 2.378 . S
O1342 C1323 1.215 . S
O1343 Ho1320 2.524 . S
O1343 C1323 1.289 . S
O1344 Ho1320 2.381 . S
O1344 C1330 1.275 . S
O1345 Ho1320 2.669 . S
O1345 Ho1321 2.305 . S
O1345 C1330 1.256 . S
O1346 Ho1321 2.322 . S
O1346 C1331 1.259 . S
O1347 Ho1320 2.346 . S
O1347 C1331 1.268 . S
O1348 Ho1321 2.378 . S
O1348 C1332 1.215 . S
O1349 Ho1321 2.524 . S
O1349 C1332 1.289 . S
O1350 Ho1321 2.381 . S
O1350 C1339 1.275 . S
O1351 Ho1320 2.305 . S
O1351 Ho1321 2.669 . S
O1351 C1339 1.256 . S
H1352 C1325 0.930 . S
H1353 C1326 0.931 . S
H1354 C1328 0.934 . S
H1355 C1329 0.930 . S
H1356 C1334 0.930 . S
H1357 C1335 0.931 . S
H1358 C1337 0.934 . S
H1359 C1338 0.930 . S
Ho1360 C1363 2.811 . S
Ho1360 O1380 2.322 . S
Ho1360 O1382 2.378 . S
Ho1360 O1383 2.524 . S
Ho1360 O1384 2.381 . S
Ho1360 O1385 2.669 . S
Ho1360 O1387 2.346 . S
Ho1360 O1391 2.305 . S
Ho1361 C1372 2.811 . S
Ho1361 O1381 2.346 . S
Ho1361 O1385 2.305 . S
Ho1361 O1386 2.322 . S
Ho1361 O1388 2.378 . S
Ho1361 O1389 2.524 . S
Ho1361 O1390 2.381 . S
Ho1361 O1391 2.669 . S
C1362 O1380 1.259 . S
C1362 O1381 1.268 . S
C1363 Ho1360 2.811 . S
C1363 C1364 1.488 . S
C1363 O1382 1.215 . S
C1363 O1383 1.289 . S
C1364 C1363 1.488 . S
C1364 C1365 1.348 . S
C1364 C1369 1.413 . S
C1365 C1364 1.348 . S
C1365 C1366 1.442 . S
C1365 H1392 0.930 . S
C1366 C1365 1.442 . S
C1366 C1367 1.381 . S
C1366 H1393 0.931 . S
C1367 C1366 1.381 . S
C1367 C1368 1.321 . S
C1368 C1367 1.321 . S
C1368 C1369 1.403 . S
C1368 H1394 0.934 . S
C1369 C1364 1.413 . S
C1369 C1368 1.403 . S
C1369 H1395 0.930 . S
C1370 O1384 1.275 . S
C1370 O1385 1.256 . S
C1371 O1386 1.259 . S
C1371 O1387 1.268 . S
C1372 Ho1361 2.811 . S
C1372 C1373 1.488 . S
C1372 O1388 1.215 . S
C1372 O1389 1.289 . S
C1373 C1372 1.488 . S
C1373 C1374 1.348 . S
C1373 C1378 1.413 . S
C1374 C1373 1.348 . S
C1374 C1375 1.442 . S
C1374 H1396 0.930 . S
C1375 C1374 1.442 . S
C1375 C1376 1.381 . S
C1375 H1397 0.931 . S
C1376 C1375 1.381 . S
C1376 C1377 1.321 . S
C1377 C1376 1.321 . S
C1377 C1378 1.403 . S
C1377 H1398 0.934 . S
C1378 C1373 1.413 . S
C1378 C1377 1.403 . S
C1378 H1399 0.930 . S
C1379 O1390 1.275 . S
C1379 O1391 1.256 . S
O1380 Ho1360 2.322 . S
O1380 C1362 1.259 . S
O1381 Ho1361 2.346 . S
O1381 C1362 1.268 . S
O1382 Ho1360 2.378 . S
O1382 C1363 1.215 . S
O1383 Ho1360 2.524 . S
O1383 C1363 1.289 . S
O1384 Ho1360 2.381 . S
O1384 C1370 1.275 . S
O1385 Ho1360 2.669 . S
O1385 Ho1361 2.305 . S
O1385 C1370 1.256 . S
O1386 Ho1361 2.322 . S
O1386 C1371 1.259 . S
O1387 Ho1360 2.346 . S
O1387 C1371 1.268 . S
O1388 Ho1361 2.378 . S
O1388 C1372 1.215 . S
O1389 Ho1361 2.524 . S
O1389 C1372 1.289 . S
O1390 Ho1361 2.381 . S
O1390 C1379 1.275 . S
O1391 Ho1360 2.305 . S
O1391 Ho1361 2.669 . S
O1391 C1379 1.256 . S
H1392 C1365 0.930 . S
H1393 C1366 0.931 . S
H1394 C1368 0.934 . S
H1395 C1369 0.930 . S
H1396 C1374 0.930 . S
H1397 C1375 0.931 . S
H1398 C1377 0.934 . S
H1399 C1378 0.930 . S
Ho1400 C1403 2.811 . S
Ho1400 O1420 2.322 . S
Ho1400 O1422 2.378 . S
Ho1400 O1423 2.524 . S
Ho1400 O1424 2.381 . S
Ho1400 O1425 2.669 . S
Ho1400 O1427 2.346 . S
Ho1400 O1431 2.305 . S
Ho1401 C1412 2.811 . S
Ho1401 O1421 2.346 . S
Ho1401 O1425 2.305 . S
Ho1401 O1426 2.322 . S
Ho1401 O1428 2.378 . S
Ho1401 O1429 2.524 . S
Ho1401 O1430 2.381 . S
Ho1401 O1431 2.669 . S
C1402 O1420 1.259 . S
C1402 O1421 1.268 . S
C1403 Ho1400 2.811 . S
C1403 C1404 1.488 . S
C1403 O1422 1.215 . S
C1403 O1423 1.289 . S
C1404 C1403 1.488 . S
C1404 C1405 1.348 . S
C1404 C1409 1.413 . S
C1405 C1404 1.348 . S
C1405 C1406 1.442 . S
C1405 H1432 0.930 . S
C1406 C1405 1.442 . S
C1406 C1407 1.381 . S
C1406 H1433 0.931 . S
C1407 C1406 1.381 . S
C1407 C1408 1.321 . S
C1408 C1407 1.321 . S
C1408 C1409 1.403 . S
C1408 H1434 0.934 . S
C1409 C1404 1.413 . S
C1409 C1408 1.403 . S
C1409 H1435 0.930 . S
C1410 O1424 1.275 . S
C1410 O1425 1.256 . S
C1411 O1426 1.259 . S
C1411 O1427 1.268 . S
C1412 Ho1401 2.811 . S
C1412 C1413 1.488 . S
C1412 O1428 1.215 . S
C1412 O1429 1.289 . S
C1413 C1412 1.488 . S
C1413 C1414 1.348 . S
C1413 C1418 1.413 . S
C1414 C1413 1.348 . S
C1414 C1415 1.442 . S
C1414 H1436 0.930 . S
C1415 C1414 1.442 . S
C1415 C1416 1.381 . S
C1415 H1437 0.931 . S
C1416 C1415 1.381 . S
C1416 C1417 1.321 . S
C1417 C1416 1.321 . S
C1417 C1418 1.403 . S
C1417 H1438 0.934 . S
C1418 C1413 1.413 . S
C1418 C1417 1.403 . S
C1418 H1439 0.930 . S
C1419 O1430 1.275 . S
C1419 O1431 1.256 . S
O1420 Ho1400 2.322 . S
O1420 C1402 1.259 . S
O1421 Ho1401 2.346 . S
O1421 C1402 1.268 . S
O1422 Ho1400 2.378 . S
O1422 C1403 1.215 . S
O1423 Ho1400 2.524 . S
O1423 C1403 1.289 . S
O1424 Ho1400 2.381 . S
O1424 C1410 1.275 . S
O1425 Ho1400 2.669 . S
O1425 Ho1401 2.305 . S
O1425 C1410 1.256 . S
O1426 Ho1401 2.322 . S
O1426 C1411 1.259 . S
O1427 Ho1400 2.346 . S
O1427 C1411 1.268 . S
O1428 Ho1401 2.378 . S
O1428 C1412 1.215 . S
O1429 Ho1401 2.524 . S
O1429 C1412 1.289 . S
O1430 Ho1401 2.381 . S
O1430 C1419 1.275 . S
O1431 Ho1400 2.305 . S
O1431 Ho1401 2.669 . S
O1431 C1419 1.256 . S
H1432 C1405 0.930 . S
H1433 C1406 0.931 . S
H1434 C1408 0.934 . S
H1435 C1409 0.930 . S
H1436 C1414 0.930 . S
H1437 C1415 0.931 . S
H1438 C1417 0.934 . S
H1439 C1418 0.930 . S
C1440 C1441 1.349 . S
C1440 C1442 1.327 . S
C1440 H1465 0.950 . S
C1441 C1440 1.349 . S
C1441 C1457 1.349 . S
C1442 C1440 1.327 . S
C1442 C1461 1.429 . S
C1442 H1466 0.950 . S
C1443 C1460 1.574 1_554 S
C1443 C1462 1.368 . S
C1443 H1467 0.949 . S
H1444 C1448 0.949 . S
C1445 C1446 1.349 . S
C1445 C1447 1.362 . S
C1445 H1468 0.950 . S
C1446 C1445 1.349 . S
C1446 C1458 1.349 . S
C1447 C1445 1.362 . S
C1447 C1463 1.408 1_565 S
C1447 H1469 0.936 1_565 S
C1448 H1444 0.949 . S
C1448 C1456 1.574 . S
C1448 C1464 1.363 1_554 S
H1449 C1457 0.950 . S
H1450 C1455 0.950 . S
H1451 C1456 0.949 . S
H1452 C1458 0.950 . S
H1453 C1459 0.950 1_554 S
H1454 C1460 0.949 . S
C1455 H1450 0.950 . S
C1455 C1457 1.327 . S
C1455 C1461 1.429 . S
C1456 C1448 1.574 . S
C1456 H1451 0.949 . S
C1456 C1462 1.368 . S
C1457 C1441 1.349 . S
C1457 H1449 0.950 . S
C1457 C1455 1.327 . S
C1458 C1446 1.349 . S
C1458 H1452 0.950 . S
C1458 C1459 1.327 . S
C1459 H1453 0.950 1_556 S
C1459 C1458 1.327 . S
C1459 C1463 1.429 1_565 S
C1460 C1443 1.574 1_556 S
C1460 H1454 0.949 . S
C1460 C1464 1.371 . S
C1461 C1442 1.429 . S
C1461 C1455 1.429 . S
C1461 C1462 1.523 . S
C1462 C1443 1.368 . S
C1462 C1456 1.368 . S
C1462 C1461 1.523 . S
C1463 C1447 1.408 1_545 S
C1463 C1459 1.429 1_545 S
C1463 C1464 1.527 . S
C1464 C1448 1.363 1_556 S
C1464 C1460 1.371 . S
C1464 C1463 1.527 . S
H1465 C1440 0.950 . S
H1466 C1442 0.950 . S
H1467 C1443 0.949 . S
H1468 C1445 0.950 . S
H1469 C1447 0.936 1_545 S
C1470 C1471 1.349 . S
C1470 C1472 1.327 . S
C1470 H1495 0.950 . S
C1471 C1470 1.349 . S
C1471 C1487 1.349 . S
C1472 C1470 1.327 . S
C1472 C1491 1.429 1_455 S
C1472 H1496 0.950 1_455 S
C1473 C1490 1.574 . S
C1473 C1492 1.368 1_554 S
C1473 H1497 0.949 1_554 S
H1474 C1478 0.949 . S
C1475 C1476 1.349 . S
C1475 C1477 1.327 . S
C1475 H1498 0.950 . S
C1476 C1475 1.349 . S
C1476 C1488 1.349 . S
C1477 C1475 1.327 . S
C1477 C1493 1.429 . S
C1477 H1499 0.950 . S
C1478 H1474 0.949 . S
C1478 C1486 1.574 . S
C1478 C1494 1.368 . S
H1479 C1487 0.950 . S
H1480 C1485 0.950 . S
H1481 C1486 0.949 . S
H1482 C1488 0.950 . S
H1483 C1489 0.950 . S
H1484 C1490 0.949 . S
C1485 H1480 0.950 . S
C1485 C1487 1.327 . S
C1485 C1491 1.429 1_455 S
C1486 C1478 1.574 . S
C1486 H1481 0.949 . S
C1486 C1492 1.366 1_554 S
C1487 C1471 1.349 . S
C1487 H1479 0.950 . S
C1487 C1485 1.327 . S
C1488 C1476 1.349 . S
C1488 H1482 0.950 . S
C1488 C1489 1.327 . S
C1489 H1483 0.950 . S
C1489 C1488 1.327 . S
C1489 C1493 1.429 . S
C1490 C1473 1.574 . S
C1490 H1484 0.949 . S
C1490 C1494 1.368 . S
C1491 C1472 1.429 1_655 S
C1491 C1485 1.429 1_655 S
C1491 C1492 1.527 . S
C1492 C1473 1.368 1_556 S
C1492 C1486 1.366 1_556 S
C1492 C1491 1.527 . S
C1493 C1477 1.429 . S
C1493 C1489 1.429 . S
C1493 C1494 1.523 . S
C1494 C1478 1.368 . S
C1494 C1490 1.368 . S
C1494 C1493 1.523 . S
H1495 C1470 0.950 . S
H1496 C1472 0.950 1_655 S
H1497 C1473 0.949 1_556 S
H1498 C1475 0.950 . S
H1499 C1477 0.950 . S
C1500 C1501 1.349 . S
C1500 C1502 1.327 . S
C1500 H1525 0.950 . S
C1501 C1500 1.349 . S
C1501 C1517 1.349 . S
C1502 C1500 1.327 . S
C1502 C1521 1.429 . S
C1502 H1526 0.950 . S
C1503 C1520 1.574 . S
C1503 C1522 1.359 1_554 S
C1503 H1527 0.949 . S
H1504 C1508 0.949 . S
C1505 C1506 1.349 . S
C1505 C1507 1.327 . S
C1505 H1528 0.950 . S
C1506 C1505 1.349 . S
C1506 C1518 1.349 . S
C1507 C1505 1.327 . S
C1507 C1523 1.429 . S
C1507 H1529 0.950 . S
C1508 H1504 0.949 . S
C1508 C1516 1.574 . S
C1508 C1524 1.368 1_556 S
H1509 C1517 0.945 1_554 S
H1510 C1515 0.950 . S
H1511 C1516 0.949 . S
H1512 C1518 0.950 . S
H1513 C1519 0.950 . S
H1514 C1520 0.949 . S
C1515 H1510 0.950 . S
C1515 C1517 1.327 1_554 S
C1515 C1521 1.429 1_554 S
C1516 C1508 1.574 . S
C1516 H1511 0.949 . S
C1516 C1522 1.375 . S
C1517 C1501 1.349 . S
C1517 H1509 0.945 1_556 S
C1517 C1515 1.327 1_556 S
C1518 C1506 1.349 . S
C1518 H1512 0.950 . S
C1518 C1519 1.327 . S
C1519 H1513 0.950 . S
C1519 C1518 1.327 . S
C1519 C1523 1.429 . S
C1520 C1503 1.574 . S
C1520 H1514 0.949 . S
C1520 C1524 1.368 . S
C1521 C1502 1.429 . S
C1521 C1515 1.429 1_556 S
C1521 C1522 1.527 . S
C1522 C1503 1.359 1_556 S
C1522 C1516 1.375 . S
C1522 C1521 1.527 . S
C1523 C1507 1.429 . S
C1523 C1519 1.429 . S
C1523 C1524 1.523 . S
C1524 C1508 1.368 1_554 S
C1524 C1520 1.368 . S
C1524 C1523 1.523 . S
H1525 C1500 0.950 . S
H1526 C1502 0.950 . S
H1527 C1503 0.949 . S
H1528 C1505 0.950 . S
H1529 C1507 0.950 . S
C1530 C1531 1.349 . S
C1530 C1532 1.327 . S
C1530 H1555 0.950 . S
C1531 C1530 1.349 . S
C1531 C1547 1.349 . S
C1532 C1530 1.327 . S
C1532 C1551 1.429 1_655 S
C1532 H1556 0.950 . S
C1533 C1550 1.574 . S
C1533 C1552 1.368 . S
C1533 H1557 0.949 . S
H1534 C1538 0.949 . S
C1535 C1536 1.349 . S
C1535 C1537 1.327 . S
C1535 H1558 0.950 . S
C1536 C1535 1.349 . S
C1536 C1548 1.349 . S
C1537 C1535 1.327 . S
C1537 C1553 1.429 . S
C1537 H1559 0.950 . S
C1538 H1534 0.949 . S
C1538 C1546 1.574 . S
C1538 C1554 1.368 . S
H1539 C1547 0.950 . S
H1540 C1545 0.950 1_455 S
H1541 C1546 0.949 . S
H1542 C1548 0.950 . S
H1543 C1549 0.950 . S
H1544 C1550 0.949 . S
C1545 H1540 0.950 1_655 S
C1545 C1547 1.327 . S
C1545 C1551 1.429 1_655 S
C1546 C1538 1.574 . S
C1546 H1541 0.949 . S
C1546 C1552 1.368 . S
C1547 C1531 1.349 . S
C1547 H1539 0.950 . S
C1547 C1545 1.327 . S
C1548 C1536 1.349 . S
C1548 H1542 0.950 . S
C1548 C1549 1.327 . S
C1549 H1543 0.950 . S
C1549 C1548 1.327 . S
C1549 C1553 1.429 . S
C1550 C1533 1.574 . S
C1550 H1544 0.949 . S
C1550 C1554 1.368 . S
C1551 C1532 1.429 1_455 S
C1551 C1545 1.429 1_455 S
C1551 C1552 1.523 . S
C1552 C1533 1.368 . S
C1552 C1546 1.368 . S
C1552 C1551 1.523 . S
C1553 C1537 1.429 . S
C1553 C1549 1.429 . S
C1553 C1554 1.523 . S
C1554 C1538 1.368 . S
C1554 C1550 1.368 . S
C1554 C1553 1.523 . S
H1555 C1530 0.950 . S
H1556 C1532 0.950 . S
H1557 C1533 0.949 . S
H1558 C1535 0.950 . S
H1559 C1537 0.950 . S
C1560 C1561 1.349 . S
C1560 C1562 1.327 . S
C1560 H1585 0.950 . S
C1561 C1560 1.349 . S
C1561 C1577 1.349 . S
C1562 C1560 1.327 . S
C1562 C1581 1.429 . S
C1562 H1586 0.950 . S
C1563 C1580 1.574 . S
C1563 C1582 1.368 . S
C1563 H1587 0.949 . S
H1564 C1568 0.949 . S
C1565 C1566 1.349 . S
C1565 C1567 1.327 . S
C1565 H1588 0.950 . S
C1566 C1565 1.349 . S
C1566 C1578 1.349 . S
C1567 C1565 1.327 . S
C1567 C1583 1.429 . S
C1567 H1589 0.950 . S
C1568 H1564 0.949 . S
C1568 C1576 1.574 . S
C1568 C1584 1.368 . S
H1569 C1577 0.950 . S
H1570 C1575 0.950 . S
H1571 C1576 0.949 . S
H1572 C1578 0.950 . S
H1573 C1579 0.950 . S
H1574 C1580 0.949 . S
C1575 H1570 0.950 . S
C1575 C1577 1.327 . S
C1575 C1581 1.429 . S
C1576 C1568 1.574 . S
C1576 H1571 0.949 . S
C1576 C1582 1.368 . S
C1577 C1561 1.349 . S
C1577 H1569 0.950 . S
C1577 C1575 1.327 . S
C1578 C1566 1.349 . S
C1578 H1572 0.950 . S
C1578 C1579 1.327 . S
C1579 H1573 0.950 . S
C1579 C1578 1.327 . S
C1579 C1583 1.429 . S
C1580 C1563 1.574 . S
C1580 H1574 0.949 . S
C1580 C1584 1.368 . S
C1581 C1562 1.429 . S
C1581 C1575 1.429 . S
C1581 C1582 1.523 . S
C1582 C1563 1.368 . S
C1582 C1576 1.368 . S
C1582 C1581 1.523 . S
C1583 C1567 1.429 . S
C1583 C1579 1.429 . S
C1583 C1584 1.523 . S
C1584 C1568 1.368 . S
C1584 C1580 1.368 . S
C1584 C1583 1.523 . S
H1585 C1560 0.950 . S
H1586 C1562 0.950 . S
H1587 C1563 0.949 . S
H1588 C1565 0.950 . S
H1589 C1567 0.950 . S
C1590 C1591 1.349 . S
C1590 C1592 1.327 . S
C1590 H1615 0.950 . S
C1591 C1590 1.349 . S
C1591 C1607 1.349 . S
C1592 C1590 1.327 . S
C1592 C1611 1.429 . S
C1592 H1616 0.950 . S
C1593 C1610 1.574 . S
C1593 C1612 1.368 . S
C1593 H1617 0.949 . S
H1594 C1598 0.949 . S
C1595 C1596 1.349 . S
C1595 C1597 1.330 1_545 S
C1595 H1618 0.950 . S
C1596 C1595 1.349 . S
C1596 C1608 1.349 . S
C1597 C1595 1.330 1_565 S
C1597 C1613 1.430 . S
C1597 H1619 0.945 . S
C1598 H1594 0.949 . S
C1598 C1606 1.574 . S
C1598 C1614 1.368 . S
H1599 C1607 0.950 . S
H1600 C1605 0.950 . S
H1601 C1606 0.949 . S
H1602 C1608 0.950 . S
H1603 C1609 0.950 . S
H1604 C1610 0.949 . S
C1605 H1600 0.950 . S
C1605 C1607 1.327 . S
C1605 C1611 1.429 . S
C1606 C1598 1.574 . S
C1606 H1601 0.949 . S
C1606 C1612 1.368 . S
C1607 C1591 1.349 . S
C1607 H1599 0.950 . S
C1607 C1605 1.327 . S
C1608 C1596 1.349 . S
C1608 H1602 0.950 . S
C1608 C1609 1.327 . S
C1609 H1603 0.950 . S
C1609 C1608 1.327 . S
C1609 C1613 1.429 1_545 S
C1610 C1593 1.574 . S
C1610 H1604 0.949 . S
C1610 C1614 1.368 . S
C1611 C1592 1.429 . S
C1611 C1605 1.429 . S
C1611 C1612 1.523 . S
C1612 C1593 1.368 . S
C1612 C1606 1.368 . S
C1612 C1611 1.523 . S
C1613 C1597 1.430 . S
C1613 C1609 1.429 1_565 S
C1613 C1614 1.523 . S
C1614 C1598 1.368 . S
C1614 C1610 1.368 . S
C1614 C1613 1.523 . S
H1615 C1590 0.950 . S
H1616 C1592 0.950 . S
H1617 C1593 0.949 . S
H1618 C1595 0.950 . S
H1619 C1597 0.945 . S
C1620 C1621 1.349 . S
C1620 C1622 1.332 1_545 S
C1620 H1645 0.950 . S
C1621 C1620 1.349 . S
C1621 C1637 1.349 . S
C1622 C1620 1.332 1_565 S
C1622 C1641 1.427 . S
C1622 H1646 0.947 . S
C1623 C1640 1.574 . S
C1623 C1642 1.359 1_556 S
C1623 H1647 0.949 . S
H1624 C1628 0.949 . S
C1625 C1626 1.349 . S
C1625 C1627 1.327 . S
C1625 H1648 0.950 . S
C1626 C1625 1.349 . S
C1626 C1638 1.349 . S
C1627 C1625 1.327 . S
C1627 C1643 1.429 . S
C1627 H1649 0.950 . S
C1628 H1624 0.949 . S
C1628 C1636 1.574 . S
C1628 C1644 1.368 1_554 S
H1629 C1637 0.965 . S
H1630 C1635 0.976 . S
H1631 C1636 0.949 . S
H1632 C1638 0.950 . S
H1633 C1639 0.950 . S
H1634 C1640 0.949 . S
C1635 H1630 0.976 . S
C1635 C1637 1.315 1_556 S
C1635 C1641 1.415 1_546 S
C1636 C1628 1.574 . S
C1636 H1631 0.949 . S
C1636 C1642 1.374 . S
C1637 C1621 1.349 . S
C1637 H1629 0.965 . S
C1637 C1635 1.315 1_554 S
C1638 C1626 1.349 . S
C1638 H1632 0.950 . S
C1638 C1639 1.327 . S
C1639 H1633 0.950 . S
C1639 C1638 1.327 . S
C1639 C1643 1.429 . S
C1640 C1623 1.574 . S
C1640 H1634 0.949 . S
C1640 C1644 1.368 . S
C1641 C1622 1.427 . S
C1641 C1635 1.415 1_564 S
C1641 C1642 1.527 . S
C1642 C1623 1.359 1_554 S
C1642 C1636 1.374 . S
C1642 C1641 1.527 . S
C1643 C1627 1.429 . S
C1643 C1639 1.429 . S
C1643 C1644 1.523 . S
C1644 C1628 1.368 1_556 S
C1644 C1640 1.368 . S
C1644 C1643 1.523 . S
H1645 C1620 0.950 . S
H1646 C1622 0.947 . S
H1647 C1623 0.949 . S
H1648 C1625 0.950 . S
H1649 C1627 0.950 . S
C1650 C1651 1.349 . S
C1650 C1652 1.327 . S
C1650 H1675 0.950 . S
C1651 C1650 1.349 . S
C1651 C1667 1.349 . S
C1652 C1650 1.327 . S
C1652 C1671 1.429 . S
C1652 H1676 0.979 . S
C1653 C1670 1.574 . S
C1653 C1672 1.368 . S
C1653 H1677 0.949 . S
H1654 C1658 0.949 . S
C1655 C1656 1.349 . S
C1655 C1657 1.327 1_554 S
C1655 H1678 0.941 1_554 S
C1656 C1655 1.349 . S
C1656 C1668 1.349 . S
C1657 C1655 1.327 1_556 S
C1657 C1673 1.429 1_656 S
C1657 H1679 0.950 . S
C1658 H1654 0.949 . S
C1658 C1666 1.574 . S
C1658 C1674 1.375 . S
H1659 C1667 0.950 . S
H1660 C1665 0.950 . S
H1661 C1666 0.949 . S
H1662 C1668 0.950 . S
H1663 C1669 0.947 1_455 S
H1664 C1670 0.949 . S
C1665 H1660 0.950 . S
C1665 C1667 1.327 . S
C1665 C1671 1.429 . S
C1666 C1658 1.574 . S
C1666 H1661 0.949 . S
C1666 C1672 1.368 1_554 S
C1667 C1651 1.349 . S
C1667 H1659 0.950 . S
C1667 C1665 1.327 . S
C1668 C1656 1.349 . S
C1668 H1662 0.950 . S
C1668 C1669 1.327 . S
C1669 H1663 0.947 1_655 S
C1669 C1668 1.327 . S
C1669 C1673 1.429 1_655 S
C1670 C1653 1.574 . S
C1670 H1664 0.949 . S
C1670 C1674 1.359 1_556 S
C1671 C1652 1.429 . S
C1671 C1665 1.429 . S
C1671 C1672 1.523 . S
C1672 C1653 1.368 . S
C1672 C1666 1.368 1_556 S
C1672 C1671 1.523 . S
C1673 C1657 1.429 1_454 S
C1673 C1669 1.429 1_455 S
C1673 C1674 1.527 . S
C1674 C1658 1.375 . S
C1674 C1670 1.359 1_554 S
C1674 C1673 1.527 . S
H1675 C1650 0.950 . S
H1676 C1652 0.979 . S
H1677 C1653 0.949 . S
H1678 C1655 0.941 1_556 S
H1679 C1657 0.950 . S
C1680 C1681 1.349 . S
C1680 C1682 1.327 . S
C1680 H1705 0.950 . S
C1681 C1680 1.349 . S
C1681 C1697 1.349 . S
C1682 C1680 1.327 . S
C1682 C1701 1.429 . S
C1682 H1706 0.950 . S
C1683 C1700 1.574 . S
C1683 C1702 1.362 1_556 S
C1683 H1707 0.949 . S
H1684 C1688 0.949 1_554 S
C1685 C1686 1.349 . S
C1685 C1687 1.327 . S
C1685 H1708 0.950 . S
C1686 C1685 1.349 . S
C1686 C1698 1.349 . S
C1687 C1685 1.327 . S
C1687 C1703 1.429 . S
C1687 H1709 0.950 . S
C1688 H1684 0.949 1_556 S
C1688 C1696 1.574 1_556 S
C1688 C1704 1.368 . S
H1689 C1697 0.950 . S
H1690 C1695 0.950 1_556 S
H1691 C1696 0.949 . S
H1692 C1698 0.950 . S
H1693 C1699 0.950 . S
H1694 C1700 0.949 . S
C1695 H1690 0.950 1_554 S
C1695 C1697 1.327 . S
C1695 C1701 1.429 . S
C1696 C1688 1.574 1_554 S
C1696 H1691 0.949 . S
C1696 C1702 1.372 . S
C1697 C1681 1.349 . S
C1697 H1689 0.950 . S
C1697 C1695 1.327 . S
C1698 C1686 1.349 . S
C1698 H1692 0.950 . S
C1698 C1699 1.327 . S
C1699 H1693 0.950 . S
C1699 C1698 1.327 . S
C1699 C1703 1.429 . S
C1700 C1683 1.574 . S
C1700 H1694 0.949 . S
C1700 C1704 1.368 . S
C1701 C1682 1.429 . S
C1701 C1695 1.429 . S
C1701 C1702 1.527 . S
C1702 C1683 1.362 1_554 S
C1702 C1696 1.372 . S
C1702 C1701 1.527 . S
C1703 C1687 1.429 . S
C1703 C1699 1.429 . S
C1703 C1704 1.523 . S
C1704 C1688 1.368 . S
C1704 C1700 1.368 . S
C1704 C1703 1.523 . S
H1705 C1680 0.950 . S
H1706 C1682 0.950 . S
H1707 C1683 0.949 . S
H1708 C1685 0.950 . S
H1709 C1687 0.950 . S
C1710 C1711 1.349 . S
C1710 C1712 1.327 . S
C1710 H1735 0.950 . S
C1711 C1710 1.349 . S
C1711 C1727 1.349 . S
C1712 C1710 1.327 . S
C1712 C1731 1.429 1_455 S
C1712 H1736 0.950 1_455 S
C1713 C1730 1.574 . S
C1713 C1732 1.368 . S
C1713 H1737 0.949 . S
H1714 C1718 0.949 . S
C1715 C1716 1.349 . S
C1715 C1717 1.327 . S
C1715 H1738 0.950 . S
C1716 C1715 1.349 . S
C1716 C1728 1.349 . S
C1717 C1715 1.327 . S
C1717 C1733 1.429 . S
C1717 H1739 0.950 . S
C1718 H1714 0.949 . S
C1718 C1726 1.574 . S
C1718 C1734 1.368 . S
H1719 C1727 0.950 . S
H1720 C1725 0.950 . S
H1721 C1726 0.949 . S
H1722 C1728 0.950 . S
H1723 C1729 0.950 . S
H1724 C1730 0.949 . S
C1725 H1720 0.950 . S
C1725 C1727 1.327 . S
C1725 C1731 1.429 1_455 S
C1726 C1718 1.574 . S
C1726 H1721 0.949 . S
C1726 C1732 1.368 . S
C1727 C1711 1.349 . S
C1727 H1719 0.950 . S
C1727 C1725 1.327 . S
C1728 C1716 1.349 . S
C1728 H1722 0.950 . S
C1728 C1729 1.327 . S
C1729 H1723 0.950 . S
C1729 C1728 1.327 . S
C1729 C1733 1.429 . S
C1730 C1713 1.574 . S
C1730 H1724 0.949 . S
C1730 C1734 1.368 . S
C1731 C1712 1.429 1_655 S
C1731 C1725 1.429 1_655 S
C1731 C1732 1.523 . S
C1732 C1713 1.368 . S
C1732 C1726 1.368 . S
C1732 C1731 1.523 . S
C1733 C1717 1.429 . S
C1733 C1729 1.429 . S
C1733 C1734 1.523 . S
C1734 C1718 1.368 . S
C1734 C1730 1.368 . S
C1734 C1733 1.523 . S
H1735 C1710 0.950 . S
H1736 C1712 0.950 1_655 S
H1737 C1713 0.949 . S
H1738 C1715 0.950 . S
H1739 C1717 0.950 . S
C1740 C1741 1.349 . S
C1740 C1742 1.327 . S
C1740 H1765 0.950 . S
C1741 C1740 1.349 . S
C1741 C1757 1.349 . S
C1742 C1740 1.327 . S
C1742 C1761 1.429 . S
C1742 H1766 0.950 . S
C1743 C1760 1.574 . S
C1743 C1762 1.368 . S
C1743 H1767 0.949 . S
H1744 C1748 0.949 . S
C1745 C1746 1.349 . S
C1745 C1747 1.327 . S
C1745 H1768 0.950 . S
C1746 C1745 1.349 . S
C1746 C1758 1.349 . S
C1747 C1745 1.327 . S
C1747 C1763 1.429 . S
C1747 H1769 0.950 . S
C1748 H1744 0.949 . S
C1748 C1756 1.574 . S
C1748 C1764 1.368 . S
H1749 C1757 0.950 . S
H1750 C1755 0.950 . S
H1751 C1756 0.949 . S
H1752 C1758 0.950 . S
H1753 C1759 0.950 . S
H1754 C1760 0.949 . S
C1755 H1750 0.950 . S
C1755 C1757 1.327 . S
C1755 C1761 1.429 . S
C1756 C1748 1.574 . S
C1756 H1751 0.949 . S
C1756 C1762 1.368 . S
C1757 C1741 1.349 . S
C1757 H1749 0.950 . S
C1757 C1755 1.327 . S
C1758 C1746 1.349 . S
C1758 H1752 0.950 . S
C1758 C1759 1.327 . S
C1759 H1753 0.950 . S
C1759 C1758 1.327 . S
C1759 C1763 1.429 . S
C1760 C1743 1.574 . S
C1760 H1754 0.949 . S
C1760 C1764 1.368 . S
C1761 C1742 1.429 . S
C1761 C1755 1.429 . S
C1761 C1762 1.523 . S
C1762 C1743 1.368 . S
C1762 C1756 1.368 . S
C1762 C1761 1.523 . S
C1763 C1747 1.429 . S
C1763 C1759 1.429 . S
C1763 C1764 1.523 . S
C1764 C1748 1.368 . S
C1764 C1760 1.368 . S
C1764 C1763 1.523 . S
H1765 C1740 0.950 . S
H1766 C1742 0.950 . S
H1767 C1743 0.949 . S
H1768 C1745 0.950 . S
H1769 C1747 0.950 . S
C1770 C1771 1.349 . S
C1770 C1772 1.327 . S
C1770 H1795 0.950 . S
C1771 C1770 1.349 . S
C1771 C1787 1.349 . S
C1772 C1770 1.327 . S
C1772 C1791 1.429 . S
C1772 H1796 0.950 . S
C1773 C1790 1.574 . S
C1773 C1792 1.368 . S
C1773 H1797 0.949 . S
H1774 C1778 0.949 . S
C1775 C1776 1.349 . S
C1775 C1777 1.327 . S
C1775 H1798 0.950 . S
C1776 C1775 1.349 . S
C1776 C1788 1.349 . S
C1777 C1775 1.327 . S
C1777 C1793 1.429 1_565 S
C1777 H1799 0.950 . S
C1778 H1774 0.949 . S
C1778 C1786 1.574 . S
C1778 C1794 1.368 . S
H1779 C1787 0.950 . S
H1780 C1785 0.950 . S
H1781 C1786 0.949 . S
H1782 C1788 0.950 . S
H1783 C1789 0.950 1_545 S
H1784 C1790 0.949 . S
C1785 H1780 0.950 . S
C1785 C1787 1.327 . S
C1785 C1791 1.429 . S
C1786 C1778 1.574 . S
C1786 H1781 0.949 . S
C1786 C1792 1.368 . S
C1787 C1771 1.349 . S
C1787 H1779 0.950 . S
C1787 C1785 1.327 . S
C1788 C1776 1.349 . S
C1788 H1782 0.950 . S
C1788 C1789 1.327 . S
C1789 H1783 0.950 1_565 S
C1789 C1788 1.327 . S
C1789 C1793 1.429 1_565 S
C1790 C1773 1.574 . S
C1790 H1784 0.949 . S
C1790 C1794 1.368 . S
C1791 C1772 1.429 . S
C1791 C1785 1.429 . S
C1791 C1792 1.523 . S
C1792 C1773 1.368 . S
C1792 C1786 1.368 . S
C1792 C1791 1.523 . S
C1793 C1777 1.429 1_545 S
C1793 C1789 1.429 1_545 S
C1793 C1794 1.523 . S
C1794 C1778 1.368 . S
C1794 C1790 1.368 . S
C1794 C1793 1.523 . S
H1795 C1770 0.950 . S
H1796 C1772 0.950 . S
H1797 C1773 0.949 . S
H1798 C1775 0.950 . S
H1799 C1777 0.950 . S
C1800 C1801 1.349 . S
C1800 C1802 1.327 . S
C1800 H1825 0.950 . S
C1801 C1800 1.349 . S
C1801 C1817 1.349 . S
C1802 C1800 1.327 . S
C1802 C1821 1.429 . S
C1802 H1826 0.950 . S
C1803 C1820 1.574 . S
C1803 C1822 1.368 . S
C1803 H1827 0.949 . S
H1804 C1808 0.949 . S
C1805 C1806 1.349 . S
C1805 C1807 1.327 . S
C1805 H1828 0.950 . S
C1806 C1805 1.349 . S
C1806 C1818 1.349 . S
C1807 C1805 1.327 . S
C1807 C1823 1.429 . S
C1807 H1829 0.950 . S
C1808 H1804 0.949 . S
C1808 C1816 1.574 . S
C1808 C1824 1.368 . S
H1809 C1817 0.950 . S
H1810 C1815 0.950 . S
H1811 C1816 0.949 . S
H1812 C1818 0.950 . S
H1813 C1819 0.950 . S
H1814 C1820 0.949 . S
C1815 H1810 0.950 . S
C1815 C1817 1.327 . S
C1815 C1821 1.429 . S
C1816 C1808 1.574 . S
C1816 H1811 0.949 . S
C1816 C1822 1.368 . S
C1817 C1801 1.349 . S
C1817 H1809 0.950 . S
C1817 C1815 1.327 . S
C1818 C1806 1.349 . S
C1818 H1812 0.950 . S
C1818 C1819 1.327 . S
C1819 H1813 0.950 . S
C1819 C1818 1.327 . S
C1819 C1823 1.429 . S
C1820 C1803 1.574 . S
C1820 H1814 0.949 . S
C1820 C1824 1.368 . S
C1821 C1802 1.429 . S
C1821 C1815 1.429 . S
C1821 C1822 1.523 . S
C1822 C1803 1.368 . S
C1822 C1816 1.368 . S
C1822 C1821 1.523 . S
C1823 C1807 1.429 . S
C1823 C1819 1.429 . S
C1823 C1824 1.523 . S
C1824 C1808 1.368 . S
C1824 C1820 1.368 . S
C1824 C1823 1.523 . S
H1825 C1800 0.950 . S
H1826 C1802 0.950 . S
H1827 C1803 0.949 . S
H1828 C1805 0.950 . S
H1829 C1807 0.950 . S
C1830 C1831 1.349 . S
C1830 C1832 1.327 . S
C1830 H1855 0.950 . S
C1831 C1830 1.349 . S
C1831 C1847 1.349 . S
C1832 C1830 1.327 . S
C1832 C1851 1.429 . S
C1832 H1856 0.950 . S
C1833 C1850 1.574 . S
C1833 C1852 1.368 . S
C1833 H1857 0.949 . S
H1834 C1838 0.949 . S
C1835 C1836 1.349 . S
C1835 C1837 1.327 . S
C1835 H1858 0.950 . S
C1836 C1835 1.349 . S
C1836 C1848 1.349 . S
C1837 C1835 1.327 . S
C1837 C1853 1.429 . S
C1837 H1859 0.950 . S
C1838 H1834 0.949 . S
C1838 C1846 1.574 . S
C1838 C1854 1.368 . S
H1839 C1847 0.950 . S
H1840 C1845 0.950 . S
H1841 C1846 0.949 . S
H1842 C1848 0.950 . S
H1843 C1849 0.950 . S
H1844 C1850 0.949 . S
C1845 H1840 0.950 . S
C1845 C1847 1.327 . S
C1845 C1851 1.429 . S
C1846 C1838 1.574 . S
C1846 H1841 0.949 . S
C1846 C1852 1.368 . S
C1847 C1831 1.349 . S
C1847 H1839 0.950 . S
C1847 C1845 1.327 . S
C1848 C1836 1.349 . S
C1848 H1842 0.950 . S
C1848 C1849 1.327 . S
C1849 H1843 0.950 . S
C1849 C1848 1.327 . S
C1849 C1853 1.429 . S
C1850 C1833 1.574 . S
C1850 H1844 0.949 . S
C1850 C1854 1.368 . S
C1851 C1832 1.429 . S
C1851 C1845 1.429 . S
C1851 C1852 1.523 . S
C1852 C1833 1.368 . S
C1852 C1846 1.368 . S
C1852 C1851 1.523 . S
C1853 C1837 1.429 . S
C1853 C1849 1.429 . S
C1853 C1854 1.523 . S
C1854 C1838 1.368 . S
C1854 C1850 1.368 . S
C1854 C1853 1.523 . S
H1855 C1830 0.950 . S
H1856 C1832 0.950 . S
H1857 C1833 0.949 . S
H1858 C1835 0.950 . S
H1859 C1837 0.950 . S
C1860 C1861 1.349 . S
C1860 C1862 1.327 . S
C1860 H1885 0.950 . S
C1861 C1860 1.349 . S
C1861 C1877 1.349 . S
C1862 C1860 1.327 . S
C1862 C1881 1.429 . S
C1862 H1886 0.950 . S
C1863 C1880 1.574 . S
C1863 C1882 1.368 . S
C1863 H1887 0.949 . S
H1864 C1868 0.949 . S
C1865 C1866 1.349 . S
C1865 C1867 1.327 . S
C1865 H1888 0.950 . S
C1866 C1865 1.349 . S
C1866 C1878 1.349 . S
C1867 C1865 1.327 . S
C1867 C1883 1.429 . S
C1867 H1889 0.950 . S
C1868 H1864 0.949 . S
C1868 C1876 1.574 . S
C1868 C1884 1.368 . S
H1869 C1877 0.950 . S
H1870 C1875 0.950 . S
H1871 C1876 0.949 . S
H1872 C1878 0.950 . S
H1873 C1879 0.950 . S
H1874 C1880 0.949 . S
C1875 H1870 0.950 . S
C1875 C1877 1.327 . S
C1875 C1881 1.429 . S
C1876 C1868 1.574 . S
C1876 H1871 0.949 . S
C1876 C1882 1.368 . S
C1877 C1861 1.349 . S
C1877 H1869 0.950 . S
C1877 C1875 1.327 . S
C1878 C1866 1.349 . S
C1878 H1872 0.950 . S
C1878 C1879 1.327 . S
C1879 H1873 0.950 . S
C1879 C1878 1.327 . S
C1879 C1883 1.429 . S
C1880 C1863 1.574 . S
C1880 H1874 0.949 . S
C1880 C1884 1.368 . S
C1881 C1862 1.429 . S
C1881 C1875 1.429 . S
C1881 C1882 1.523 . S
C1882 C1863 1.368 . S
C1882 C1876 1.368 . S
C1882 C1881 1.523 . S
C1883 C1867 1.429 . S
C1883 C1879 1.429 . S
C1883 C1884 1.523 . S
C1884 C1868 1.368 . S
C1884 C1880 1.368 . S
C1884 C1883 1.523 . S
H1885 C1860 0.950 . S
H1886 C1862 0.950 . S
H1887 C1863 0.949 . S
H1888 C1865 0.950 . S
H1889 C1867 0.950 . S
C1890 C1891 1.349 . S
C1890 C1892 1.327 . S
C1890 H1915 0.950 . S
C1891 C1890 1.349 . S
C1891 C1907 1.349 . S
C1892 C1890 1.327 . S
C1892 C1911 1.429 . S
C1892 H1916 0.950 . S
C1893 C1910 1.574 . S
C1893 C1912 1.368 . S
C1893 H1917 0.949 . S
H1894 C1898 0.949 . S
C1895 C1896 1.349 . S
C1895 C1897 1.327 . S
C1895 H1918 0.950 . S
C1896 C1895 1.349 . S
C1896 C1908 1.349 . S
C1897 C1895 1.327 . S
C1897 C1913 1.429 . S
C1897 H1919 0.950 . S
C1898 H1894 0.949 . S
C1898 C1906 1.574 . S
C1898 C1914 1.368 . S
H1899 C1907 0.950 . S
H1900 C1905 0.950 . S
H1901 C1906 0.949 . S
H1902 C1908 0.950 . S
H1903 C1909 0.950 . S
H1904 C1910 0.949 . S
C1905 H1900 0.950 . S
C1905 C1907 1.327 . S
C1905 C1911 1.429 . S
C1906 C1898 1.574 . S
C1906 H1901 0.949 . S
C1906 C1912 1.368 . S
C1907 C1891 1.349 . S
C1907 H1899 0.950 . S
C1907 C1905 1.327 . S
C1908 C1896 1.349 . S
C1908 H1902 0.950 . S
C1908 C1909 1.327 . S
C1909 H1903 0.950 . S
C1909 C1908 1.327 . S
C1909 C1913 1.429 . S
C1910 C1893 1.574 . S
C1910 H1904 0.949 . S
C1910 C1914 1.368 . S
C1911 C1892 1.429 . S
C1911 C1905 1.429 . S
C1911 C1912 1.523 . S
C1912 C1893 1.368 . S
C1912 C1906 1.368 . S
C1912 C1911 1.523 . S
C1913 C1897 1.429 . S
C1913 C1909 1.429 . S
C1913 C1914 1.523 . S
C1914 C1898 1.368 . S
C1914 C1910 1.368 . S
C1914 C1913 1.523 . S
H1915 C1890 0.950 . S
H1916 C1892 0.950 . S
H1917 C1893 0.949 . S
H1918 C1895 0.950 . S
H1919 C1897 0.950 . S
C1920 C1921 1.349 . S
C1920 C1922 1.327 . S
C1920 H1945 0.950 . S
C1921 C1920 1.349 . S
C1921 C1937 1.349 . S
C1922 C1920 1.327 . S
C1922 C1941 1.429 . S
C1922 H1946 0.950 . S
C1923 C1940 1.574 . S
C1923 C1942 1.368 . S
C1923 H1947 0.949 . S
H1924 C1928 0.949 . S
C1925 C1926 1.349 . S
C1925 C1927 1.327 . S
C1925 H1948 0.950 . S
C1926 C1925 1.349 . S
C1926 C1938 1.349 . S
C1927 C1925 1.327 . S
C1927 C1943 1.429 . S
C1927 H1949 0.950 . S
C1928 H1924 0.949 . S
C1928 C1936 1.574 . S
C1928 C1944 1.368 . S
H1929 C1937 0.950 . S
H1930 C1935 0.950 . S
H1931 C1936 0.949 . S
H1932 C1938 0.950 . S
H1933 C1939 0.950 . S
H1934 C1940 0.949 . S
C1935 H1930 0.950 . S
C1935 C1937 1.327 . S
C1935 C1941 1.429 . S
C1936 C1928 1.574 . S
C1936 H1931 0.949 . S
C1936 C1942 1.368 . S
C1937 C1921 1.349 . S
C1937 H1929 0.950 . S
C1937 C1935 1.327 . S
C1938 C1926 1.349 . S
C1938 H1932 0.950 . S
C1938 C1939 1.327 . S
C1939 H1933 0.950 . S
C1939 C1938 1.327 . S
C1939 C1943 1.429 . S
C1940 C1923 1.574 . S
C1940 H1934 0.949 . S
C1940 C1944 1.368 . S
C1941 C1922 1.429 . S
C1941 C1935 1.429 . S
C1941 C1942 1.523 . S
C1942 C1923 1.368 . S
C1942 C1936 1.368 . S
C1942 C1941 1.523 . S
C1943 C1927 1.429 . S
C1943 C1939 1.429 . S
C1943 C1944 1.523 . S
C1944 C1928 1.368 . S
C1944 C1940 1.368 . S
C1944 C1943 1.523 . S
H1945 C1920 0.950 . S
H1946 C1922 0.950 . S
H1947 C1923 0.949 . S
H1948 C1925 0.950 . S
H1949 C1927 0.950 . S
C1950 C1951 1.349 . S
C1950 C1952 1.327 . S
C1950 H1975 0.950 . S
C1951 C1950 1.349 . S
C1951 C1967 1.349 . S
C1952 C1950 1.327 . S
C1952 C1971 1.429 . S
C1952 H1976 0.950 . S
C1953 C1970 1.574 . S
C1953 C1972 1.368 . S
C1953 H1977 0.949 . S
H1954 C1958 0.949 . S
C1955 C1956 1.349 . S
C1955 C1957 1.327 . S
C1955 H1978 0.950 . S
C1956 C1955 1.349 . S
C1956 C1968 1.349 . S
C1957 C1955 1.327 . S
C1957 C1973 1.429 . S
C1957 H1979 0.950 . S
C1958 H1954 0.949 . S
C1958 C1966 1.574 . S
C1958 C1974 1.368 . S
H1959 C1967 0.950 . S
H1960 C1965 0.950 . S
H1961 C1966 0.949 . S
H1962 C1968 0.950 . S
H1963 C1969 0.950 . S
H1964 C1970 0.949 . S
C1965 H1960 0.950 . S
C1965 C1967 1.327 . S
C1965 C1971 1.429 . S
C1966 C1958 1.574 . S
C1966 H1961 0.949 . S
C1966 C1972 1.368 . S
C1967 C1951 1.349 . S
C1967 H1959 0.950 . S
C1967 C1965 1.327 . S
C1968 C1956 1.349 . S
C1968 H1962 0.950 . S
C1968 C1969 1.327 . S
C1969 H1963 0.950 . S
C1969 C1968 1.327 . S
C1969 C1973 1.429 . S
C1970 C1953 1.574 . S
C1970 H1964 0.949 . S
C1970 C1974 1.368 . S
C1971 C1952 1.429 . S
C1971 C1965 1.429 . S
C1971 C1972 1.523 . S
C1972 C1953 1.368 . S
C1972 C1966 1.368 . S
C1972 C1971 1.523 . S
C1973 C1957 1.429 . S
C1973 C1969 1.429 . S
C1973 C1974 1.523 . S
C1974 C1958 1.368 . S
C1974 C1970 1.368 . S
C1974 C1973 1.523 . S
H1975 C1950 0.950 . S
H1976 C1952 0.950 . S
H1977 C1953 0.949 . S
H1978 C1955 0.950 . S
H1979 C1957 0.950 . S
C1980 C1981 1.349 . S
C1980 C1982 1.327 . S
C1980 H2005 0.950 . S
C1981 C1980 1.349 . S
C1981 C1997 1.349 . S
C1982 C1980 1.327 . S
C1982 C2001 1.429 . S
C1982 H2006 0.950 . S
C1983 C2000 1.574 . S
C1983 C2002 1.368 . S
C1983 H2007 0.949 . S
H1984 C1988 0.949 . S
C1985 C1986 1.349 . S
C1985 C1987 1.327 . S
C1985 H2008 0.950 . S
C1986 C1985 1.349 . S
C1986 C1998 1.349 . S
C1987 C1985 1.327 . S
C1987 C2003 1.429 . S
C1987 H2009 0.950 . S
C1988 H1984 0.949 . S
C1988 C1996 1.574 . S
C1988 C2004 1.368 . S
H1989 C1997 0.950 . S
H1990 C1995 0.950 . S
H1991 C1996 0.949 . S
H1992 C1998 0.950 . S
H1993 C1999 0.950 . S
H1994 C2000 0.949 . S
C1995 H1990 0.950 . S
C1995 C1997 1.327 . S
C1995 C2001 1.429 . S
C1996 C1988 1.574 . S
C1996 H1991 0.949 . S
C1996 C2002 1.368 . S
C1997 C1981 1.349 . S
C1997 H1989 0.950 . S
C1997 C1995 1.327 . S
C1998 C1986 1.349 . S
C1998 H1992 0.950 . S
C1998 C1999 1.327 . S
C1999 H1993 0.950 . S
C1999 C1998 1.327 . S
C1999 C2003 1.429 . S
C2000 C1983 1.574 . S
C2000 H1994 0.949 . S
C2000 C2004 1.368 . S
C2001 C1982 1.429 . S
C2001 C1995 1.429 . S
C2001 C2002 1.523 . S
C2002 C1983 1.368 . S
C2002 C1996 1.368 . S
C2002 C2001 1.523 . S
C2003 C1987 1.429 . S
C2003 C1999 1.429 . S
C2003 C2004 1.523 . S
C2004 C1988 1.368 . S
C2004 C2000 1.368 . S
C2004 C2003 1.523 . S
H2005 C1980 0.950 . S
H2006 C1982 0.950 . S
H2007 C1983 0.949 . S
H2008 C1985 0.950 . S
H2009 C1987 0.950 . S
C2010 C2011 1.349 . S
C2010 C2012 1.327 . S
C2010 H2035 0.950 . S
C2011 C2010 1.349 . S
C2011 C2027 1.349 . S
C2012 C2010 1.327 . S
C2012 C2031 1.429 . S
C2012 H2036 0.950 . S
C2013 C2030 1.574 . S
C2013 C2032 1.368 . S
C2013 H2037 0.949 . S
H2014 C2018 0.949 . S
C2015 C2016 1.349 . S
C2015 C2017 1.327 . S
C2015 H2038 0.950 . S
C2016 C2015 1.349 . S
C2016 C2028 1.349 . S
C2017 C2015 1.327 . S
C2017 C2033 1.429 . S
C2017 H2039 0.950 . S
C2018 H2014 0.949 . S
C2018 C2026 1.574 . S
C2018 C2034 1.368 . S
H2019 C2027 0.950 . S
H2020 C2025 0.950 . S
H2021 C2026 0.949 . S
H2022 C2028 0.950 . S
H2023 C2029 0.950 . S
H2024 C2030 0.949 . S
C2025 H2020 0.950 . S
C2025 C2027 1.327 . S
C2025 C2031 1.429 . S
C2026 C2018 1.574 . S
C2026 H2021 0.949 . S
C2026 C2032 1.368 . S
C2027 C2011 1.349 . S
C2027 H2019 0.950 . S
C2027 C2025 1.327 . S
C2028 C2016 1.349 . S
C2028 H2022 0.950 . S
C2028 C2029 1.327 . S
C2029 H2023 0.950 . S
C2029 C2028 1.327 . S
C2029 C2033 1.429 . S
C2030 C2013 1.574 . S
C2030 H2024 0.949 . S
C2030 C2034 1.368 . S
C2031 C2012 1.429 . S
C2031 C2025 1.429 . S
C2031 C2032 1.523 . S
C2032 C2013 1.368 . S
C2032 C2026 1.368 . S
C2032 C2031 1.523 . S
C2033 C2017 1.429 . S
C2033 C2029 1.429 . S
C2033 C2034 1.523 . S
C2034 C2018 1.368 . S
C2034 C2030 1.368 . S
C2034 C2033 1.523 . S
H2035 C2010 0.950 . S
H2036 C2012 0.950 . S
H2037 C2013 0.949 . S
H2038 C2015 0.950 . S
H2039 C2017 0.950 . S
C2040 C2041 1.349 . S
C2040 C2042 1.327 . S
C2040 H2065 0.950 . S
C2041 C2040 1.349 . S
C2041 C2057 1.349 . S
C2042 C2040 1.327 . S
C2042 C2061 1.429 . S
C2042 H2066 0.950 . S
C2043 C2060 1.574 . S
C2043 C2062 1.368 . S
C2043 H2067 0.949 . S
H2044 C2048 0.949 . S
C2045 C2046 1.349 . S
C2045 C2047 1.327 . S
C2045 H2068 0.950 . S
C2046 C2045 1.349 . S
C2046 C2058 1.349 . S
C2047 C2045 1.327 . S
C2047 C2063 1.429 . S
C2047 H2069 0.950 . S
C2048 H2044 0.949 . S
C2048 C2056 1.574 . S
C2048 C2064 1.368 . S
H2049 C2057 0.950 . S
H2050 C2055 0.950 . S
H2051 C2056 0.949 . S
H2052 C2058 0.950 . S
H2053 C2059 0.950 . S
H2054 C2060 0.949 . S
C2055 H2050 0.950 . S
C2055 C2057 1.327 . S
C2055 C2061 1.429 . S
C2056 C2048 1.574 . S
C2056 H2051 0.949 . S
C2056 C2062 1.368 . S
C2057 C2041 1.349 . S
C2057 H2049 0.950 . S
C2057 C2055 1.327 . S
C2058 C2046 1.349 . S
C2058 H2052 0.950 . S
C2058 C2059 1.327 . S
C2059 H2053 0.950 . S
C2059 C2058 1.327 . S
C2059 C2063 1.429 . S
C2060 C2043 1.574 . S
C2060 H2054 0.949 . S
C2060 C2064 1.368 . S
C2061 C2042 1.429 . S
C2061 C2055 1.429 . S
C2061 C2062 1.523 . S
C2062 C2043 1.368 . S
C2062 C2056 1.368 . S
C2062 C2061 1.523 . S
C2063 C2047 1.429 . S
C2063 C2059 1.429 . S
C2063 C2064 1.523 . S
C2064 C2048 1.368 . S
C2064 C2060 1.368 . S
C2064 C2063 1.523 . S
H2065 C2040 0.950 . S
H2066 C2042 0.950 . S
H2067 C2043 0.949 . S
H2068 C2045 0.950 . S
H2069 C2047 0.950 . S
C2070 C2071 1.349 . S
C2070 C2072 1.327 . S
C2070 H2095 0.950 . S
C2071 C2070 1.349 . S
C2071 C2087 1.349 . S
C2072 C2070 1.327 . S
C2072 C2091 1.429 . S
C2072 H2096 0.950 . S
C2073 C2090 1.574 . S
C2073 C2092 1.368 . S
C2073 H2097 0.949 . S
H2074 C2078 0.949 . S
C2075 C2076 1.349 . S
C2075 C2077 1.327 . S
C2075 H2098 0.950 . S
C2076 C2075 1.349 . S
C2076 C2088 1.349 . S
C2077 C2075 1.327 . S
C2077 C2093 1.429 . S
C2077 H2099 0.950 . S
C2078 H2074 0.949 . S
C2078 C2086 1.574 . S
C2078 C2094 1.368 . S
H2079 C2087 0.950 . S
H2080 C2085 0.950 . S
H2081 C2086 0.949 . S
H2082 C2088 0.950 . S
H2083 C2089 0.950 . S
H2084 C2090 0.949 . S
C2085 H2080 0.950 . S
C2085 C2087 1.327 . S
C2085 C2091 1.429 . S
C2086 C2078 1.574 . S
C2086 H2081 0.949 . S
C2086 C2092 1.368 . S
C2087 C2071 1.349 . S
C2087 H2079 0.950 . S
C2087 C2085 1.327 . S
C2088 C2076 1.349 . S
C2088 H2082 0.950 . S
C2088 C2089 1.327 . S
C2089 H2083 0.950 . S
C2089 C2088 1.327 . S
C2089 C2093 1.429 . S
C2090 C2073 1.574 . S
C2090 H2084 0.949 . S
C2090 C2094 1.368 . S
C2091 C2072 1.429 . S
C2091 C2085 1.429 . S
C2091 C2092 1.523 . S
C2092 C2073 1.368 . S
C2092 C2086 1.368 . S
C2092 C2091 1.523 . S
C2093 C2077 1.429 . S
C2093 C2089 1.429 . S
C2093 C2094 1.523 . S
C2094 C2078 1.368 . S
C2094 C2090 1.368 . S
C2094 C2093 1.523 . S
H2095 C2070 0.950 . S
H2096 C2072 0.950 . S
H2097 C2073 0.949 . S
H2098 C2075 0.950 . S
H2099 C2077 0.950 . S
C2100 C2101 1.349 . S
C2100 C2102 1.327 . S
C2100 H2125 0.950 . S
C2101 C2100 1.349 . S
C2101 C2117 1.349 . S
C2102 C2100 1.327 . S
C2102 C2121 1.429 . S
C2102 H2126 0.950 . S
C2103 C2120 1.574 . S
C2103 C2122 1.368 . S
C2103 H2127 0.949 . S
H2104 C2108 0.949 . S
C2105 C2106 1.349 . S
C2105 C2107 1.327 . S
C2105 H2128 0.950 . S
C2106 C2105 1.349 . S
C2106 C2118 1.349 . S
C2107 C2105 1.327 . S
C2107 C2123 1.429 . S
C2107 H2129 0.950 . S
C2108 H2104 0.949 . S
C2108 C2116 1.574 . S
C2108 C2124 1.368 . S
H2109 C2117 0.950 . S
H2110 C2115 0.950 . S
H2111 C2116 0.949 . S
H2112 C2118 0.950 . S
H2113 C2119 0.950 . S
H2114 C2120 0.949 . S
C2115 H2110 0.950 . S
C2115 C2117 1.327 . S
C2115 C2121 1.429 . S
C2116 C2108 1.574 . S
C2116 H2111 0.949 . S
C2116 C2122 1.368 . S
C2117 C2101 1.349 . S
C2117 H2109 0.950 . S
C2117 C2115 1.327 . S
C2118 C2106 1.349 . S
C2118 H2112 0.950 . S
C2118 C2119 1.327 . S
C2119 H2113 0.950 . S
C2119 C2118 1.327 . S
C2119 C2123 1.429 . S
C2120 C2103 1.574 . S
C2120 H2114 0.949 . S
C2120 C2124 1.368 . S
C2121 C2102 1.429 . S
C2121 C2115 1.429 . S
C2121 C2122 1.523 . S
C2122 C2103 1.368 . S
C2122 C2116 1.368 . S
C2122 C2121 1.523 . S
C2123 C2107 1.429 . S
C2123 C2119 1.429 . S
C2123 C2124 1.523 . S
C2124 C2108 1.368 . S
C2124 C2120 1.368 . S
C2124 C2123 1.523 . S
H2125 C2100 0.950 . S
H2126 C2102 0.950 . S
H2127 C2103 0.949 . S
H2128 C2105 0.950 . S
H2129 C2107 0.950 . S
C2130 C2131 1.349 . S
C2130 C2132 1.327 . S
C2130 H2155 0.950 . S
C2131 C2130 1.349 . S
C2131 C2147 1.349 . S
C2132 C2130 1.327 . S
C2132 C2151 1.429 . S
C2132 H2156 0.950 . S
C2133 C2150 1.574 . S
C2133 C2152 1.368 . S
C2133 H2157 0.949 . S
H2134 C2138 0.949 . S
C2135 C2136 1.349 . S
C2135 C2137 1.327 . S
C2135 H2158 0.950 . S
C2136 C2135 1.349 . S
C2136 C2148 1.349 . S
C2137 C2135 1.327 . S
C2137 C2153 1.429 . S
C2137 H2159 0.950 . S
C2138 H2134 0.949 . S
C2138 C2146 1.574 . S
C2138 C2154 1.368 . S
H2139 C2147 0.950 . S
H2140 C2145 0.950 . S
H2141 C2146 0.949 . S
H2142 C2148 0.950 . S
H2143 C2149 0.950 . S
H2144 C2150 0.949 . S
C2145 H2140 0.950 . S
C2145 C2147 1.327 . S
C2145 C2151 1.429 . S
C2146 C2138 1.574 . S
C2146 H2141 0.949 . S
C2146 C2152 1.368 . S
C2147 C2131 1.349 . S
C2147 H2139 0.950 . S
C2147 C2145 1.327 . S
C2148 C2136 1.349 . S
C2148 H2142 0.950 . S
C2148 C2149 1.327 . S
C2149 H2143 0.950 . S
C2149 C2148 1.327 . S
C2149 C2153 1.429 . S
C2150 C2133 1.574 . S
C2150 H2144 0.949 . S
C2150 C2154 1.368 . S
C2151 C2132 1.429 . S
C2151 C2145 1.429 . S
C2151 C2152 1.523 . S
C2152 C2133 1.368 . S
C2152 C2146 1.368 . S
C2152 C2151 1.523 . S
C2153 C2137 1.429 . S
C2153 C2149 1.429 . S
C2153 C2154 1.523 . S
C2154 C2138 1.368 . S
C2154 C2150 1.368 . S
C2154 C2153 1.523 . S
H2155 C2130 0.950 . S
H2156 C2132 0.950 . S
H2157 C2133 0.949 . S
H2158 C2135 0.950 . S
H2159 C2137 0.950 . S
C2160 C2161 1.349 . S
C2160 C2162 1.327 . S
C2160 H2185 0.950 . S
C2161 C2160 1.349 . S
C2161 C2177 1.349 . S
C2162 C2160 1.327 . S
C2162 C2181 1.429 . S
C2162 H2186 0.950 . S
C2163 C2180 1.574 . S
C2163 C2182 1.368 . S
C2163 H2187 0.949 . S
H2164 C2168 0.949 . S
C2165 C2166 1.349 . S
C2165 C2167 1.327 . S
C2165 H2188 0.950 . S
C2166 C2165 1.349 . S
C2166 C2178 1.349 . S
C2167 C2165 1.327 . S
C2167 C2183 1.429 . S
C2167 H2189 0.950 . S
C2168 H2164 0.949 . S
C2168 C2176 1.574 . S
C2168 C2184 1.368 . S
H2169 C2177 0.950 . S
H2170 C2175 0.950 . S
H2171 C2176 0.949 . S
H2172 C2178 0.950 . S
H2173 C2179 0.950 . S
H2174 C2180 0.949 . S
C2175 H2170 0.950 . S
C2175 C2177 1.327 . S
C2175 C2181 1.429 . S
C2176 C2168 1.574 . S
C2176 H2171 0.949 . S
C2176 C2182 1.368 . S
C2177 C2161 1.349 . S
C2177 H2169 0.950 . S
C2177 C2175 1.327 . S
C2178 C2166 1.349 . S
C2178 H2172 0.950 . S
C2178 C2179 1.327 . S
C2179 H2173 0.950 . S
C2179 C2178 1.327 . S
C2179 C2183 1.429 . S
C2180 C2163 1.574 . S
C2180 H2174 0.949 . S
C2180 C2184 1.368 . S
C2181 C2162 1.429 . S
C2181 C2175 1.429 . S
C2181 C2182 1.523 . S
C2182 C2163 1.368 . S
C2182 C2176 1.368 . S
C2182 C2181 1.523 . S
C2183 C2167 1.429 . S
C2183 C2179 1.429 . S
C2183 C2184 1.523 . S
C2184 C2168 1.368 . S
C2184 C2180 1.368 . S
C2184 C2183 1.523 . S
H2185 C2160 0.950 . S
H2186 C2162 0.950 . S
H2187 C2163 0.949 . S
H2188 C2165 0.950 . S
H2189 C2167 0.950 . S
C2190 C2191 1.349 . S
C2190 C2192 1.327 . S
C2190 H2215 0.950 . S
C2191 C2190 1.349 . S
C2191 C2207 1.349 . S
C2192 C2190 1.327 . S
C2192 C2211 1.429 . S
C2192 H2216 0.950 . S
C2193 C2210 1.574 . S
C2193 C2212 1.368 . S
C2193 H2217 0.949 . S
H2194 C2198 0.949 . S
C2195 C2196 1.349 . S
C2195 C2197 1.327 . S
C2195 H2218 0.950 . S
C2196 C2195 1.349 . S
C2196 C2208 1.349 . S
C2197 C2195 1.327 . S
C2197 C2213 1.429 . S
C2197 H2219 0.950 . S
C2198 H2194 0.949 . S
C2198 C2206 1.574 . S
C2198 C2214 1.368 . S
H2199 C2207 0.950 . S
H2200 C2205 0.950 . S
H2201 C2206 0.949 . S
H2202 C2208 0.950 . S
H2203 C2209 0.950 . S
H2204 C2210 0.949 . S
C2205 H2200 0.950 . S
C2205 C2207 1.327 . S
C2205 C2211 1.429 . S
C2206 C2198 1.574 . S
C2206 H2201 0.949 . S
C2206 C2212 1.368 . S
C2207 C2191 1.349 . S
C2207 H2199 0.950 . S
C2207 C2205 1.327 . S
C2208 C2196 1.349 . S
C2208 H2202 0.950 . S
C2208 C2209 1.327 . S
C2209 H2203 0.950 . S
C2209 C2208 1.327 . S
C2209 C2213 1.429 . S
C2210 C2193 1.574 . S
C2210 H2204 0.949 . S
C2210 C2214 1.368 . S
C2211 C2192 1.429 . S
C2211 C2205 1.429 . S
C2211 C2212 1.523 . S
C2212 C2193 1.368 . S
C2212 C2206 1.368 . S
C2212 C2211 1.523 . S
C2213 C2197 1.429 . S
C2213 C2209 1.429 . S
C2213 C2214 1.523 . S
C2214 C2198 1.368 . S
C2214 C2210 1.368 . S
C2214 C2213 1.523 . S
H2215 C2190 0.950 . S
H2216 C2192 0.950 . S
H2217 C2193 0.949 . S
H2218 C2195 0.950 . S
H2219 C2197 0.950 . S
C2220 C2221 1.349 . S
C2220 C2222 1.327 . S
C2220 H2245 0.950 . S
C2221 C2220 1.349 . S
C2221 C2237 1.349 . S
C2222 C2220 1.327 . S
C2222 C2241 1.429 . S
C2222 H2246 0.950 . S
C2223 C2240 1.574 . S
C2223 C2242 1.368 . S
C2223 H2247 0.949 . S
H2224 C2228 0.949 . S
C2225 C2226 1.349 . S
C2225 C2227 1.327 . S
C2225 H2248 0.950 . S
C2226 C2225 1.349 . S
C2226 C2238 1.349 . S
C2227 C2225 1.327 . S
C2227 C2243 1.429 . S
C2227 H2249 0.950 . S
C2228 H2224 0.949 . S
C2228 C2236 1.574 . S
C2228 C2244 1.368 . S
H2229 C2237 0.950 . S
H2230 C2235 0.950 . S
H2231 C2236 0.949 . S
H2232 C2238 0.950 . S
H2233 C2239 0.950 . S
H2234 C2240 0.949 . S
C2235 H2230 0.950 . S
C2235 C2237 1.327 . S
C2235 C2241 1.429 . S
C2236 C2228 1.574 . S
C2236 H2231 0.949 . S
C2236 C2242 1.368 . S
C2237 C2221 1.349 . S
C2237 H2229 0.950 . S
C2237 C2235 1.327 . S
C2238 C2226 1.349 . S
C2238 H2232 0.950 . S
C2238 C2239 1.327 . S
C2239 H2233 0.950 . S
C2239 C2238 1.327 . S
C2239 C2243 1.429 . S
C2240 C2223 1.574 . S
C2240 H2234 0.949 . S
C2240 C2244 1.368 . S
C2241 C2222 1.429 . S
C2241 C2235 1.429 . S
C2241 C2242 1.523 . S
C2242 C2223 1.368 . S
C2242 C2236 1.368 . S
C2242 C2241 1.523 . S
C2243 C2227 1.429 . S
C2243 C2239 1.429 . S
C2243 C2244 1.523 . S
C2244 C2228 1.368 . S
C2244 C2240 1.368 . S
C2244 C2243 1.523 . S
H2245 C2220 0.950 . S
H2246 C2222 0.950 . S
H2247 C2223 0.949 . S
H2248 C2225 0.950 . S
H2249 C2227 0.950 . S
C2250 C2251 1.349 . S
C2250 C2252 1.327 . S
C2250 H2275 0.950 . S
C2251 C2250 1.349 . S
C2251 C2267 1.349 . S
C2252 C2250 1.327 . S
C2252 C2271 1.429 . S
C2252 H2276 0.950 . S
C2253 C2270 1.574 . S
C2253 C2272 1.368 . S
C2253 H2277 0.949 . S
H2254 C2258 0.949 . S
C2255 C2256 1.349 . S
C2255 C2257 1.327 . S
C2255 H2278 0.950 . S
C2256 C2255 1.349 . S
C2256 C2268 1.349 . S
C2257 C2255 1.327 . S
C2257 C2273 1.429 . S
C2257 H2279 0.950 . S
C2258 H2254 0.949 . S
C2258 C2266 1.574 . S
C2258 C2274 1.368 . S
H2259 C2267 0.950 . S
H2260 C2265 0.950 . S
H2261 C2266 0.949 . S
H2262 C2268 0.950 . S
H2263 C2269 0.950 . S
H2264 C2270 0.949 . S
C2265 H2260 0.950 . S
C2265 C2267 1.327 . S
C2265 C2271 1.429 . S
C2266 C2258 1.574 . S
C2266 H2261 0.949 . S
C2266 C2272 1.368 . S
C2267 C2251 1.349 . S
C2267 H2259 0.950 . S
C2267 C2265 1.327 . S
C2268 C2256 1.349 . S
C2268 H2262 0.950 . S
C2268 C2269 1.327 . S
C2269 H2263 0.950 . S
C2269 C2268 1.327 . S
C2269 C2273 1.429 . S
C2270 C2253 1.574 . S
C2270 H2264 0.949 . S
C2270 C2274 1.368 . S
C2271 C2252 1.429 . S
C2271 C2265 1.429 . S
C2271 C2272 1.523 . S
C2272 C2253 1.368 . S
C2272 C2266 1.368 . S
C2272 C2271 1.523 . S
C2273 C2257 1.429 . S
C2273 C2269 1.429 . S
C2273 C2274 1.523 . S
C2274 C2258 1.368 . S
C2274 C2270 1.368 . S
C2274 C2273 1.523 . S
H2275 C2250 0.950 . S
H2276 C2252 0.950 . S
H2277 C2253 0.949 . S
H2278 C2255 0.950 . S
H2279 C2257 0.950 . S
C2280 C2281 1.349 . S
C2280 C2282 1.327 . S
C2280 H2305 0.950 . S
C2281 C2280 1.349 . S
C2281 C2297 1.349 . S
C2282 C2280 1.327 . S
C2282 C2301 1.429 . S
C2282 H2306 0.950 . S
C2283 C2300 1.574 . S
C2283 C2302 1.368 . S
C2283 H2307 0.949 . S
H2284 C2288 0.949 . S
C2285 C2286 1.349 . S
C2285 C2287 1.327 . S
C2285 H2308 0.950 . S
C2286 C2285 1.349 . S
C2286 C2298 1.349 . S
C2287 C2285 1.327 . S
C2287 C2303 1.429 . S
C2287 H2309 0.950 . S
C2288 H2284 0.949 . S
C2288 C2296 1.574 . S
C2288 C2304 1.368 . S
H2289 C2297 0.950 . S
H2290 C2295 0.950 . S
H2291 C2296 0.949 . S
H2292 C2298 0.950 . S
H2293 C2299 0.950 . S
H2294 C2300 0.949 . S
C2295 H2290 0.950 . S
C2295 C2297 1.327 . S
C2295 C2301 1.429 . S
C2296 C2288 1.574 . S
C2296 H2291 0.949 . S
C2296 C2302 1.368 . S
C2297 C2281 1.349 . S
C2297 H2289 0.950 . S
C2297 C2295 1.327 . S
C2298 C2286 1.349 . S
C2298 H2292 0.950 . S
C2298 C2299 1.327 . S
C2299 H2293 0.950 . S
C2299 C2298 1.327 . S
C2299 C2303 1.429 . S
C2300 C2283 1.574 . S
C2300 H2294 0.949 . S
C2300 C2304 1.368 . S
C2301 C2282 1.429 . S
C2301 C2295 1.429 . S
C2301 C2302 1.523 . S
C2302 C2283 1.368 . S
C2302 C2296 1.368 . S
C2302 C2301 1.523 . S
C2303 C2287 1.429 . S
C2303 C2299 1.429 . S
C2303 C2304 1.523 . S
C2304 C2288 1.368 . S
C2304 C2300 1.368 . S
C2304 C2303 1.523 . S
H2305 C2280 0.950 . S
H2306 C2282 0.950 . S
H2307 C2283 0.949 . S
H2308 C2285 0.950 . S
H2309 C2287 0.950 . S
C2310 C2311 1.349 . S
C2310 C2312 1.327 . S
C2310 H2335 0.950 . S
C2311 C2310 1.349 . S
C2311 C2327 1.349 . S
C2312 C2310 1.327 . S
C2312 C2331 1.429 . S
C2312 H2336 0.950 . S
C2313 C2330 1.574 . S
C2313 C2332 1.368 . S
C2313 H2337 0.949 . S
H2314 C2318 0.949 . S
C2315 C2316 1.349 . S
C2315 C2317 1.327 . S
C2315 H2338 0.950 . S
C2316 C2315 1.349 . S
C2316 C2328 1.349 . S
C2317 C2315 1.327 . S
C2317 C2333 1.429 . S
C2317 H2339 0.950 . S
C2318 H2314 0.949 . S
C2318 C2326 1.574 . S
C2318 C2334 1.368 . S
H2319 C2327 0.950 . S
H2320 C2325 0.950 . S
H2321 C2326 0.949 . S
H2322 C2328 0.950 . S
H2323 C2329 0.950 . S
H2324 C2330 0.949 . S
C2325 H2320 0.950 . S
C2325 C2327 1.327 . S
C2325 C2331 1.429 . S
C2326 C2318 1.574 . S
C2326 H2321 0.949 . S
C2326 C2332 1.368 . S
C2327 C2311 1.349 . S
C2327 H2319 0.950 . S
C2327 C2325 1.327 . S
C2328 C2316 1.349 . S
C2328 H2322 0.950 . S
C2328 C2329 1.327 . S
C2329 H2323 0.950 . S
C2329 C2328 1.327 . S
C2329 C2333 1.429 . S
C2330 C2313 1.574 . S
C2330 H2324 0.949 . S
C2330 C2334 1.368 . S
C2331 C2312 1.429 . S
C2331 C2325 1.429 . S
C2331 C2332 1.523 . S
C2332 C2313 1.368 . S
C2332 C2326 1.368 . S
C2332 C2331 1.523 . S
C2333 C2317 1.429 . S
C2333 C2329 1.429 . S
C2333 C2334 1.523 . S
C2334 C2318 1.368 . S
C2334 C2330 1.368 . S
C2334 C2333 1.523 . S
H2335 C2310 0.950 . S
H2336 C2312 0.950 . S
H2337 C2313 0.949 . S
H2338 C2315 0.950 . S
H2339 C2317 0.950 . S
C2340 C2341 1.349 . S
C2340 C2342 1.327 . S
C2340 H2365 0.950 . S
C2341 C2340 1.349 . S
C2341 C2357 1.349 . S
C2342 C2340 1.327 . S
C2342 C2361 1.429 . S
C2342 H2366 0.950 . S
C2343 C2360 1.574 . S
C2343 C2362 1.368 . S
C2343 H2367 0.949 . S
H2344 C2348 0.949 . S
C2345 C2346 1.349 . S
C2345 C2347 1.327 . S
C2345 H2368 0.950 . S
C2346 C2345 1.349 . S
C2346 C2358 1.349 . S
C2347 C2345 1.327 . S
C2347 C2363 1.429 . S
C2347 H2369 0.950 . S
C2348 H2344 0.949 . S
C2348 C2356 1.574 . S
C2348 C2364 1.368 . S
H2349 C2357 0.950 . S
H2350 C2355 0.950 . S
H2351 C2356 0.949 . S
H2352 C2358 0.950 . S
H2353 C2359 0.950 . S
H2354 C2360 0.949 . S
C2355 H2350 0.950 . S
C2355 C2357 1.327 . S
C2355 C2361 1.429 . S
C2356 C2348 1.574 . S
C2356 H2351 0.949 . S
C2356 C2362 1.368 . S
C2357 C2341 1.349 . S
C2357 H2349 0.950 . S
C2357 C2355 1.327 . S
C2358 C2346 1.349 . S
C2358 H2352 0.950 . S
C2358 C2359 1.327 . S
C2359 H2353 0.950 . S
C2359 C2358 1.327 . S
C2359 C2363 1.429 . S
C2360 C2343 1.574 . S
C2360 H2354 0.949 . S
C2360 C2364 1.368 . S
C2361 C2342 1.429 . S
C2361 C2355 1.429 . S
C2361 C2362 1.523 . S
C2362 C2343 1.368 . S
C2362 C2356 1.368 . S
C2362 C2361 1.523 . S
C2363 C2347 1.429 . S
C2363 C2359 1.429 . S
C2363 C2364 1.523 . S
C2364 C2348 1.368 . S
C2364 C2360 1.368 . S
C2364 C2363 1.523 . S
H2365 C2340 0.950 . S
H2366 C2342 0.950 . S
H2367 C2343 0.949 . S
H2368 C2345 0.950 . S
H2369 C2347 0.950 . S
C2370 C2371 1.349 . S
C2370 C2372 1.327 . S
C2370 H2395 0.950 . S
C2371 C2370 1.349 . S
C2371 C2387 1.349 . S
C2372 C2370 1.327 . S
C2372 C2391 1.429 . S
C2372 H2396 0.950 . S
C2373 C2390 1.574 . S
C2373 C2392 1.368 . S
C2373 H2397 0.949 . S
H2374 C2378 0.949 . S
C2375 C2376 1.349 . S
C2375 C2377 1.327 . S
C2375 H2398 0.950 . S
C2376 C2375 1.349 . S
C2376 C2388 1.349 . S
C2377 C2375 1.327 . S
C2377 C2393 1.429 . S
C2377 H2399 0.950 . S
C2378 H2374 0.949 . S
C2378 C2386 1.574 . S
C2378 C2394 1.368 . S
H2379 C2387 0.950 . S
H2380 C2385 0.950 . S
H2381 C2386 0.949 . S
H2382 C2388 0.950 . S
H2383 C2389 0.950 . S
H2384 C2390 0.949 . S
C2385 H2380 0.950 . S
C2385 C2387 1.327 . S
C2385 C2391 1.429 . S
C2386 C2378 1.574 . S
C2386 H2381 0.949 . S
C2386 C2392 1.368 . S
C2387 C2371 1.349 . S
C2387 H2379 0.950 . S
C2387 C2385 1.327 . S
C2388 C2376 1.349 . S
C2388 H2382 0.950 . S
C2388 C2389 1.327 . S
C2389 H2383 0.950 . S
C2389 C2388 1.327 . S
C2389 C2393 1.429 . S
C2390 C2373 1.574 . S
C2390 H2384 0.949 . S
C2390 C2394 1.368 . S
C2391 C2372 1.429 . S
C2391 C2385 1.429 . S
C2391 C2392 1.523 . S
C2392 C2373 1.368 . S
C2392 C2386 1.368 . S
C2392 C2391 1.523 . S
C2393 C2377 1.429 . S
C2393 C2389 1.429 . S
C2393 C2394 1.523 . S
C2394 C2378 1.368 . S
C2394 C2390 1.368 . S
C2394 C2393 1.523 . S
H2395 C2370 0.950 . S
H2396 C2372 0.950 . S
H2397 C2373 0.949 . S
H2398 C2375 0.950 . S
H2399 C2377 0.950 . S
C2400 C2401 1.349 . S
C2400 C2402 1.327 . S
C2400 H2425 0.950 . S
C2401 C2400 1.349 . S
C2401 C2417 1.349 . S
C2402 C2400 1.327 . S
C2402 C2421 1.429 . S
C2402 H2426 0.950 . S
C2403 C2420 1.574 . S
C2403 C2422 1.368 . S
C2403 H2427 0.949 . S
H2404 C2408 0.949 . S
C2405 C2406 1.349 . S
C2405 C2407 1.327 . S
C2405 H2428 0.950 . S
C2406 C2405 1.349 . S
C2406 C2418 1.349 . S
C2407 C2405 1.327 . S
C2407 C2423 1.429 . S
C2407 H2429 0.950 . S
C2408 H2404 0.949 . S
C2408 C2416 1.574 . S
C2408 C2424 1.368 . S
H2409 C2417 0.950 . S
H2410 C2415 0.950 . S
H2411 C2416 0.949 . S
H2412 C2418 0.950 . S
H2413 C2419 0.950 . S
H2414 C2420 0.949 . S
C2415 H2410 0.950 . S
C2415 C2417 1.327 . S
C2415 C2421 1.429 . S
C2416 C2408 1.574 . S
C2416 H2411 0.949 . S
C2416 C2422 1.368 . S
C2417 C2401 1.349 . S
C2417 H2409 0.950 . S
C2417 C2415 1.327 . S
C2418 C2406 1.349 . S
C2418 H2412 0.950 . S
C2418 C2419 1.327 . S
C2419 H2413 0.950 . S
C2419 C2418 1.327 . S
C2419 C2423 1.429 . S
C2420 C2403 1.574 . S
C2420 H2414 0.949 . S
C2420 C2424 1.368 . S
C2421 C2402 1.429 . S
C2421 C2415 1.429 . S
C2421 C2422 1.523 . S
C2422 C2403 1.368 . S
C2422 C2416 1.368 . S
C2422 C2421 1.523 . S
C2423 C2407 1.429 . S
C2423 C2419 1.429 . S
C2423 C2424 1.523 . S
C2424 C2408 1.368 . S
C2424 C2420 1.368 . S
C2424 C2423 1.523 . S
H2425 C2400 0.950 . S
H2426 C2402 0.950 . S
H2427 C2403 0.949 . S
H2428 C2405 0.950 . S
H2429 C2407 0.950 . S
C2430 C2431 1.349 . S
C2430 C2432 1.327 . S
C2430 H2455 0.950 . S
C2431 C2430 1.349 . S
C2431 C2447 1.349 . S
C2432 C2430 1.327 . S
C2432 C2451 1.429 . S
C2432 H2456 0.950 . S
C2433 C2450 1.574 . S
C2433 C2452 1.368 . S
C2433 H2457 0.949 . S
H2434 C2438 0.949 . S
C2435 C2436 1.349 . S
C2435 C2437 1.327 . S
C2435 H2458 0.950 . S
C2436 C2435 1.349 . S
C2436 C2448 1.349 . S
C2437 C2435 1.327 . S
C2437 C2453 1.429 . S
C2437 H2459 0.950 . S
C2438 H2434 0.949 . S
C2438 C2446 1.574 . S
C2438 C2454 1.368 . S
H2439 C2447 0.950 . S
H2440 C2445 0.950 . S
H2441 C2446 0.949 . S
H2442 C2448 0.950 . S
H2443 C2449 0.950 . S
H2444 C2450 0.949 . S
C2445 H2440 0.950 . S
C2445 C2447 1.327 . S
C2445 C2451 1.429 . S
C2446 C2438 1.574 . S
C2446 H2441 0.949 . S
C2446 C2452 1.368 . S
C2447 C2431 1.349 . S
C2447 H2439 0.950 . S
C2447 C2445 1.327 . S
C2448 C2436 1.349 . S
C2448 H2442 0.950 . S
C2448 C2449 1.327 . S
C2449 H2443 0.950 . S
C2449 C2448 1.327 . S
C2449 C2453 1.429 . S
C2450 C2433 1.574 . S
C2450 H2444 0.949 . S
C2450 C2454 1.368 . S
C2451 C2432 1.429 . S
C2451 C2445 1.429 . S
C2451 C2452 1.523 . S
C2452 C2433 1.368 . S
C2452 C2446 1.368 . S
C2452 C2451 1.523 . S
C2453 C2437 1.429 . S
C2453 C2449 1.429 . S
C2453 C2454 1.523 . S
C2454 C2438 1.368 . S
C2454 C2450 1.368 . S
C2454 C2453 1.523 . S
H2455 C2430 0.950 . S
H2456 C2432 0.950 . S
H2457 C2433 0.949 . S
H2458 C2435 0.950 . S
H2459 C2437 0.950 . S
C2460 C2461 1.349 . S
C2460 C2462 1.327 . S
C2460 H2485 0.950 . S
C2461 C2460 1.349 . S
C2461 C2477 1.349 . S
C2462 C2460 1.327 . S
C2462 C2481 1.429 . S
C2462 H2486 0.950 . S
C2463 C2480 1.574 . S
C2463 C2482 1.368 . S
C2463 H2487 0.949 . S
H2464 C2468 0.949 . S
C2465 C2466 1.349 . S
C2465 C2467 1.327 . S
C2465 H2488 0.950 . S
C2466 C2465 1.349 . S
C2466 C2478 1.349 . S
C2467 C2465 1.327 . S
C2467 C2483 1.429 . S
C2467 H2489 0.950 . S
C2468 H2464 0.949 . S
C2468 C2476 1.574 . S
C2468 C2484 1.368 . S
H2469 C2477 0.950 . S
H2470 C2475 0.950 . S
H2471 C2476 0.949 . S
H2472 C2478 0.950 . S
H2473 C2479 0.950 . S
H2474 C2480 0.949 . S
C2475 H2470 0.950 . S
C2475 C2477 1.327 . S
C2475 C2481 1.429 . S
C2476 C2468 1.574 . S
C2476 H2471 0.949 . S
C2476 C2482 1.368 . S
C2477 C2461 1.349 . S
C2477 H2469 0.950 . S
C2477 C2475 1.327 . S
C2478 C2466 1.349 . S
C2478 H2472 0.950 . S
C2478 C2479 1.327 . S
C2479 H2473 0.950 . S
C2479 C2478 1.327 . S
C2479 C2483 1.429 . S
C2480 C2463 1.574 . S
C2480 H2474 0.949 . S
C2480 C2484 1.368 . S
C2481 C2462 1.429 . S
C2481 C2475 1.429 . S
C2481 C2482 1.523 . S
C2482 C2463 1.368 . S
C2482 C2476 1.368 . S
C2482 C2481 1.523 . S
C2483 C2467 1.429 . S
C2483 C2479 1.429 . S
C2483 C2484 1.523 . S
C2484 C2468 1.368 . S
C2484 C2480 1.368 . S
C2484 C2483 1.523 . S
H2485 C2460 0.950 . S
H2486 C2462 0.950 . S
H2487 C2463 0.949 . S
H2488 C2465 0.950 . S
H2489 C2467 0.950 . S
C2490 C2491 1.349 . S
C2490 C2492 1.327 . S
C2490 H2515 0.950 . S
C2491 C2490 1.349 . S
C2491 C2507 1.349 . S
C2492 C2490 1.327 . S
C2492 C2511 1.429 . S
C2492 H2516 0.950 . S
C2493 C2510 1.574 . S
C2493 C2512 1.368 . S
C2493 H2517 0.949 . S
H2494 C2498 0.949 . S
C2495 C2496 1.349 . S
C2495 C2497 1.327 . S
C2495 H2518 0.950 . S
C2496 C2495 1.349 . S
C2496 C2508 1.349 . S
C2497 C2495 1.327 . S
C2497 C2513 1.429 . S
C2497 H2519 0.950 . S
C2498 H2494 0.949 . S
C2498 C2506 1.574 . S
C2498 C2514 1.368 . S
H2499 C2507 0.950 . S
H2500 C2505 0.950 . S
H2501 C2506 0.949 . S
H2502 C2508 0.950 . S
H2503 C2509 0.950 . S
H2504 C2510 0.949 . S
C2505 H2500 0.950 . S
C2505 C2507 1.327 . S
C2505 C2511 1.429 . S
C2506 C2498 1.574 . S
C2506 H2501 0.949 . S
C2506 C2512 1.368 . S
C2507 C2491 1.349 . S
C2507 H2499 0.950 . S
C2507 C2505 1.327 . S
C2508 C2496 1.349 . S
C2508 H2502 0.950 . S
C2508 C2509 1.327 . S
C2509 H2503 0.950 . S
C2509 C2508 1.327 . S
C2509 C2513 1.429 . S
C2510 C2493 1.574 . S
C2510 H2504 0.949 . S
C2510 C2514 1.368 . S
C2511 C2492 1.429 . S
C2511 C2505 1.429 . S
C2511 C2512 1.523 . S
C2512 C2493 1.368 . S
C2512 C2506 1.368 . S
C2512 C2511 1.523 . S
C2513 C2497 1.429 . S
C2513 C2509 1.429 . S
C2513 C2514 1.523 . S
C2514 C2498 1.368 . S
C2514 C2510 1.368 . S
C2514 C2513 1.523 . S
H2515 C2490 0.950 . S
H2516 C2492 0.950 . S
H2517 C2493 0.949 . S
H2518 C2495 0.950 . S
H2519 C2497 0.950 . S
C2520 C2521 1.349 . S
C2520 C2522 1.327 . S
C2520 H2545 0.950 . S
C2521 C2520 1.349 . S
C2521 C2537 1.349 . S
C2522 C2520 1.327 . S
C2522 C2541 1.429 . S
C2522 H2546 0.950 . S
C2523 C2540 1.574 . S
C2523 C2542 1.368 . S
C2523 H2547 0.949 . S
H2524 C2528 0.949 . S
C2525 C2526 1.349 . S
C2525 C2527 1.327 . S
C2525 H2548 0.950 . S
C2526 C2525 1.349 . S
C2526 C2538 1.349 . S
C2527 C2525 1.327 . S
C2527 C2543 1.429 . S
C2527 H2549 0.950 . S
C2528 H2524 0.949 . S
C2528 C2536 1.574 . S
C2528 C2544 1.368 . S
H2529 C2537 0.950 . S
H2530 C2535 0.950 . S
H2531 C2536 0.949 . S
H2532 C2538 0.950 . S
H2533 C2539 0.950 . S
H2534 C2540 0.949 . S
C2535 H2530 0.950 . S
C2535 C2537 1.327 . S
C2535 C2541 1.429 . S
C2536 C2528 1.574 . S
C2536 H2531 0.949 . S
C2536 C2542 1.368 . S
C2537 C2521 1.349 . S
C2537 H2529 0.950 . S
C2537 C2535 1.327 . S
C2538 C2526 1.349 . S
C2538 H2532 0.950 . S
C2538 C2539 1.327 . S
C2539 H2533 0.950 . S
C2539 C2538 1.327 . S
C2539 C2543 1.429 . S
C2540 C2523 1.574 . S
C2540 H2534 0.949 . S
C2540 C2544 1.368 . S
C2541 C2522 1.429 . S
C2541 C2535 1.429 . S
C2541 C2542 1.523 . S
C2542 C2523 1.368 . S
C2542 C2536 1.368 . S
C2542 C2541 1.523 . S
C2543 C2527 1.429 . S
C2543 C2539 1.429 . S
C2543 C2544 1.523 . S
C2544 C2528 1.368 . S
C2544 C2540 1.368 . S
C2544 C2543 1.523 . S
H2545 C2520 0.950 . S
H2546 C2522 0.950 . S
H2547 C2523 0.949 . S
H2548 C2525 0.950 . S
H2549 C2527 0.950 . S
C2550 C2551 1.349 . S
C2550 C2552 1.327 . S
C2550 H2575 0.950 . S
C2551 C2550 1.349 . S
C2551 C2567 1.349 . S
C2552 C2550 1.327 . S
C2552 C2571 1.429 . S
C2552 H2576 0.950 . S
C2553 C2570 1.574 . S
C2553 C2572 1.368 . S
C2553 H2577 0.949 . S
H2554 C2558 0.949 . S
C2555 C2556 1.349 . S
C2555 C2557 1.327 . S
C2555 H2578 0.950 . S
C2556 C2555 1.349 . S
C2556 C2568 1.349 . S
C2557 C2555 1.327 . S
C2557 C2573 1.429 . S
C2557 H2579 0.950 . S
C2558 H2554 0.949 . S
C2558 C2566 1.574 . S
C2558 C2574 1.368 . S
H2559 C2567 0.950 . S
H2560 C2565 0.950 . S
H2561 C2566 0.949 . S
H2562 C2568 0.950 . S
H2563 C2569 0.950 . S
H2564 C2570 0.949 . S
C2565 H2560 0.950 . S
C2565 C2567 1.327 . S
C2565 C2571 1.429 . S
C2566 C2558 1.574 . S
C2566 H2561 0.949 . S
C2566 C2572 1.368 . S
C2567 C2551 1.349 . S
C2567 H2559 0.950 . S
C2567 C2565 1.327 . S
C2568 C2556 1.349 . S
C2568 H2562 0.950 . S
C2568 C2569 1.327 . S
C2569 H2563 0.950 . S
C2569 C2568 1.327 . S
C2569 C2573 1.429 . S
C2570 C2553 1.574 . S
C2570 H2564 0.949 . S
C2570 C2574 1.368 . S
C2571 C2552 1.429 . S
C2571 C2565 1.429 . S
C2571 C2572 1.523 . S
C2572 C2553 1.368 . S
C2572 C2566 1.368 . S
C2572 C2571 1.523 . S
C2573 C2557 1.429 . S
C2573 C2569 1.429 . S
C2573 C2574 1.523 . S
C2574 C2558 1.368 . S
C2574 C2570 1.368 . S
C2574 C2573 1.523 . S
H2575 C2550 0.950 . S
H2576 C2552 0.950 . S
H2577 C2553 0.949 . S
H2578 C2555 0.950 . S
H2579 C2557 0.950 . S
C2580 C2581 1.349 . S
C2580 C2582 1.327 . S
C2580 H2605 0.950 . S
C2581 C2580 1.349 . S
C2581 C2597 1.349 . S
C2582 C2580 1.327 . S
C2582 C2601 1.429 . S
C2582 H2606 0.950 . S
C2583 C2600 1.574 . S
C2583 C2602 1.368 . S
C2583 H2607 0.949 . S
H2584 C2588 0.949 . S
C2585 C2586 1.349 . S
C2585 C2587 1.327 . S
C2585 H2608 0.950 . S
C2586 C2585 1.349 . S
C2586 C2598 1.349 . S
C2587 C2585 1.327 . S
C2587 C2603 1.429 . S
C2587 H2609 0.950 . S
C2588 H2584 0.949 . S
C2588 C2596 1.574 . S
C2588 C2604 1.368 . S
H2589 C2597 0.950 . S
H2590 C2595 0.950 . S
H2591 C2596 0.949 . S
H2592 C2598 0.950 . S
H2593 C2599 0.950 . S
H2594 C2600 0.949 . S
C2595 H2590 0.950 . S
C2595 C2597 1.327 . S
C2595 C2601 1.429 . S
C2596 C2588 1.574 . S
C2596 H2591 0.949 . S
C2596 C2602 1.368 . S
C2597 C2581 1.349 . S
C2597 H2589 0.950 . S
C2597 C2595 1.327 . S
C2598 C2586 1.349 . S
C2598 H2592 0.950 . S
C2598 C2599 1.327 . S
C2599 H2593 0.950 . S
C2599 C2598 1.327 . S
C2599 C2603 1.429 . S
C2600 C2583 1.574 . S
C2600 H2594 0.949 . S
C2600 C2604 1.368 . S
C2601 C2582 1.429 . S
C2601 C2595 1.429 . S
C2601 C2602 1.523 . S
C2602 C2583 1.368 . S
C2602 C2596 1.368 . S
C2602 C2601 1.523 . S
C2603 C2587 1.429 . S
C2603 C2599 1.429 . S
C2603 C2604 1.523 . S
C2604 C2588 1.368 . S
C2604 C2600 1.368 . S
C2604 C2603 1.523 . S
H2605 C2580 0.950 . S
H2606 C2582 0.950 . S
H2607 C2583 0.949 . S
H2608 C2585 0.950 . S
H2609 C2587 0.950 . S
C2610 C2611 1.349 . S
C2610 C2612 1.327 . S
C2610 H2635 0.950 . S
C2611 C2610 1.349 . S
C2611 C2627 1.349 . S
C2612 C2610 1.327 . S
C2612 C2631 1.429 . S
C2612 H2636 0.950 . S
C2613 C2630 1.574 . S
C2613 C2632 1.368 . S
C2613 H2637 0.949 . S
H2614 C2618 0.949 . S
C2615 C2616 1.349 . S
C2615 C2617 1.327 . S
C2615 H2638 0.950 . S
C2616 C2615 1.349 . S
C2616 C2628 1.349 . S
C2617 C2615 1.327 . S
C2617 C2633 1.429 . S
C2617 H2639 0.950 . S
C2618 H2614 0.949 . S
C2618 C2626 1.574 . S
C2618 C2634 1.368 . S
H2619 C2627 0.950 . S
H2620 C2625 0.950 . S
H2621 C2626 0.949 . S
H2622 C2628 0.950 . S
H2623 C2629 0.950 . S
H2624 C2630 0.949 . S
C2625 H2620 0.950 . S
C2625 C2627 1.327 . S
C2625 C2631 1.429 . S
C2626 C2618 1.574 . S
C2626 H2621 0.949 . S
C2626 C2632 1.368 . S
C2627 C2611 1.349 . S
C2627 H2619 0.950 . S
C2627 C2625 1.327 . S
C2628 C2616 1.349 . S
C2628 H2622 0.950 . S
C2628 C2629 1.327 . S
C2629 H2623 0.950 . S
C2629 C2628 1.327 . S
C2629 C2633 1.429 . S
C2630 C2613 1.574 . S
C2630 H2624 0.949 . S
C2630 C2634 1.368 . S
C2631 C2612 1.429 . S
C2631 C2625 1.429 . S
C2631 C2632 1.523 . S
C2632 C2613 1.368 . S
C2632 C2626 1.368 . S
C2632 C2631 1.523 . S
C2633 C2617 1.429 . S
C2633 C2629 1.429 . S
C2633 C2634 1.523 . S
C2634 C2618 1.368 . S
C2634 C2630 1.368 . S
C2634 C2633 1.523 . S
H2635 C2610 0.950 . S
H2636 C2612 0.950 . S
H2637 C2613 0.949 . S
H2638 C2615 0.950 . S
H2639 C2617 0.950 . S
C2640 C2641 1.349 . S
C2640 C2642 1.327 . S
C2640 H2665 0.950 . S
C2641 C2640 1.349 . S
C2641 C2657 1.349 . S
C2642 C2640 1.327 . S
C2642 C2661 1.429 . S
C2642 H2666 0.950 . S
C2643 C2660 1.574 . S
C2643 C2662 1.368 . S
C2643 H2667 0.949 . S
H2644 C2648 0.949 . S
C2645 C2646 1.349 . S
C2645 C2647 1.327 . S
C2645 H2668 0.950 . S
C2646 C2645 1.349 . S
C2646 C2658 1.349 . S
C2647 C2645 1.327 . S
C2647 C2663 1.429 . S
C2647 H2669 0.950 . S
C2648 H2644 0.949 . S
C2648 C2656 1.574 . S
C2648 C2664 1.368 . S
H2649 C2657 0.950 . S
H2650 C2655 0.950 . S
H2651 C2656 0.949 . S
H2652 C2658 0.950 . S
H2653 C2659 0.950 . S
H2654 C2660 0.949 . S
C2655 H2650 0.950 . S
C2655 C2657 1.327 . S
C2655 C2661 1.429 . S
C2656 C2648 1.574 . S
C2656 H2651 0.949 . S
C2656 C2662 1.368 . S
C2657 C2641 1.349 . S
C2657 H2649 0.950 . S
C2657 C2655 1.327 . S
C2658 C2646 1.349 . S
C2658 H2652 0.950 . S
C2658 C2659 1.327 . S
C2659 H2653 0.950 . S
C2659 C2658 1.327 . S
C2659 C2663 1.429 . S
C2660 C2643 1.574 . S
C2660 H2654 0.949 . S
C2660 C2664 1.368 . S
C2661 C2642 1.429 . S
C2661 C2655 1.429 . S
C2661 C2662 1.523 . S
C2662 C2643 1.368 . S
C2662 C2656 1.368 . S
C2662 C2661 1.523 . S
C2663 C2647 1.429 . S
C2663 C2659 1.429 . S
C2663 C2664 1.523 . S
C2664 C2648 1.368 . S
C2664 C2660 1.368 . S
C2664 C2663 1.523 . S
H2665 C2640 0.950 . S
H2666 C2642 0.950 . S
H2667 C2643 0.949 . S
H2668 C2645 0.950 . S
H2669 C2647 0.950 . S
C2670 C2671 1.349 . S
C2670 C2672 1.327 . S
C2670 H2695 0.950 . S
C2671 C2670 1.349 . S
C2671 C2687 1.349 . S
C2672 C2670 1.327 . S
C2672 C2691 1.429 . S
C2672 H2696 0.950 . S
C2673 C2690 1.574 . S
C2673 C2692 1.368 . S
C2673 H2697 0.949 . S
H2674 C2678 0.949 . S
C2675 C2676 1.349 . S
C2675 C2677 1.327 . S
C2675 H2698 0.950 . S
C2676 C2675 1.349 . S
C2676 C2688 1.349 . S
C2677 C2675 1.327 . S
C2677 C2693 1.429 . S
C2677 H2699 0.950 . S
C2678 H2674 0.949 . S
C2678 C2686 1.574 . S
C2678 C2694 1.368 . S
H2679 C2687 0.950 . S
H2680 C2685 0.950 . S
H2681 C2686 0.949 . S
H2682 C2688 0.950 . S
H2683 C2689 0.950 . S
H2684 C2690 0.949 . S
C2685 H2680 0.950 . S
C2685 C2687 1.327 . S
C2685 C2691 1.429 . S
C2686 C2678 1.574 . S
C2686 H2681 0.949 . S
C2686 C2692 1.368 . S
C2687 C2671 1.349 . S
C2687 H2679 0.950 . S
C2687 C2685 1.327 . S
C2688 C2676 1.349 . S
C2688 H2682 0.950 . S
C2688 C2689 1.327 . S
C2689 H2683 0.950 . S
C2689 C2688 1.327 . S
C2689 C2693 1.429 . S
C2690 C2673 1.574 . S
C2690 H2684 0.949 . S
C2690 C2694 1.368 . S
C2691 C2672 1.429 . S
C2691 C2685 1.429 . S
C2691 C2692 1.523 . S
C2692 C2673 1.368 . S
C2692 C2686 1.368 . S
C2692 C2691 1.523 . S
C2693 C2677 1.429 . S
C2693 C2689 1.429 . S
C2693 C2694 1.523 . S
C2694 C2678 1.368 . S
C2694 C2690 1.368 . S
C2694 C2693 1.523 . S
H2695 C2670 0.950 . S
H2696 C2672 0.950 . S
H2697 C2673 0.949 . S
H2698 C2675 0.950 . S
H2699 C2677 0.950 . S
C2700 C2701 1.349 . S
C2700 C2702 1.327 . S
C2700 H2725 0.950 . S
C2701 C2700 1.349 . S
C2701 C2717 1.349 . S
C2702 C2700 1.327 . S
C2702 C2721 1.429 . S
C2702 H2726 0.950 . S
C2703 C2720 1.574 . S
C2703 C2722 1.368 . S
C2703 H2727 0.949 . S
H2704 C2708 0.949 . S
C2705 C2706 1.349 . S
C2705 C2707 1.327 . S
C2705 H2728 0.950 . S
C2706 C2705 1.349 . S
C2706 C2718 1.349 . S
C2707 C2705 1.327 . S
C2707 C2723 1.429 . S
C2707 H2729 0.950 . S
C2708 H2704 0.949 . S
C2708 C2716 1.574 . S
C2708 C2724 1.368 . S
H2709 C2717 0.950 . S
H2710 C2715 0.950 . S
H2711 C2716 0.949 . S
H2712 C2718 0.950 . S
H2713 C2719 0.950 . S
H2714 C2720 0.949 . S
C2715 H2710 0.950 . S
C2715 C2717 1.327 . S
C2715 C2721 1.429 . S
C2716 C2708 1.574 . S
C2716 H2711 0.949 . S
C2716 C2722 1.368 . S
C2717 C2701 1.349 . S
C2717 H2709 0.950 . S
C2717 C2715 1.327 . S
C2718 C2706 1.349 . S
C2718 H2712 0.950 . S
C2718 C2719 1.327 . S
C2719 H2713 0.950 . S
C2719 C2718 1.327 . S
C2719 C2723 1.429 . S
C2720 C2703 1.574 . S
C2720 H2714 0.949 . S
C2720 C2724 1.368 . S
C2721 C2702 1.429 . S
C2721 C2715 1.429 . S
C2721 C2722 1.523 . S
C2722 C2703 1.368 . S
C2722 C2716 1.368 . S
C2722 C2721 1.523 . S
C2723 C2707 1.429 . S
C2723 C2719 1.429 . S
C2723 C2724 1.523 . S
C2724 C2708 1.368 . S
C2724 C2720 1.368 . S
C2724 C2723 1.523 . S
H2725 C2700 0.950 . S
H2726 C2702 0.950 . S
H2727 C2703 0.949 . S
H2728 C2705 0.950 . S
H2729 C2707 0.950 . S
C2730 C2731 1.349 . S
C2730 C2732 1.327 . S
C2730 H2755 0.950 . S
C2731 C2730 1.349 . S
C2731 C2747 1.349 . S
C2732 C2730 1.327 . S
C2732 C2751 1.429 . S
C2732 H2756 0.950 . S
C2733 C2750 1.574 . S
C2733 C2752 1.368 . S
C2733 H2757 0.949 . S
H2734 C2738 0.949 . S
C2735 C2736 1.349 . S
C2735 C2737 1.327 . S
C2735 H2758 0.950 . S
C2736 C2735 1.349 . S
C2736 C2748 1.349 . S
C2737 C2735 1.327 . S
C2737 C2753 1.429 . S
C2737 H2759 0.950 . S
C2738 H2734 0.949 . S
C2738 C2746 1.574 . S
C2738 C2754 1.368 . S
H2739 C2747 0.950 . S
H2740 C2745 0.950 . S
H2741 C2746 0.949 . S
H2742 C2748 0.950 . S
H2743 C2749 0.950 . S
H2744 C2750 0.949 . S
C2745 H2740 0.950 . S
C2745 C2747 1.327 . S
C2745 C2751 1.429 . S
C2746 C2738 1.574 . S
C2746 H2741 0.949 . S
C2746 C2752 1.368 . S
C2747 C2731 1.349 . S
C2747 H2739 0.950 . S
C2747 C2745 1.327 . S
C2748 C2736 1.349 . S
C2748 H2742 0.950 . S
C2748 C2749 1.327 . S
C2749 H2743 0.950 . S
C2749 C2748 1.327 . S
C2749 C2753 1.429 . S
C2750 C2733 1.574 . S
C2750 H2744 0.949 . S
C2750 C2754 1.368 . S
C2751 C2732 1.429 . S
C2751 C2745 1.429 . S
C2751 C2752 1.523 . S
C2752 C2733 1.368 . S
C2752 C2746 1.368 . S
C2752 C2751 1.523 . S
C2753 C2737 1.429 . S
C2753 C2749 1.429 . S
C2753 C2754 1.523 . S
C2754 C2738 1.368 . S
C2754 C2750 1.368 . S
C2754 C2753 1.523 . S
H2755 C2730 0.950 . S
H2756 C2732 0.950 . S
H2757 C2733 0.949 . S
H2758 C2735 0.950 . S
H2759 C2737 0.950 . S
C2760 C2761 1.349 . S
C2760 C2762 1.327 . S
C2760 H2785 0.950 . S
C2761 C2760 1.349 . S
C2761 C2777 1.349 . S
C2762 C2760 1.327 . S
C2762 C2781 1.429 . S
C2762 H2786 0.950 . S
C2763 C2780 1.574 . S
C2763 C2782 1.368 . S
C2763 H2787 0.949 . S
H2764 C2768 0.949 . S
C2765 C2766 1.349 . S
C2765 C2767 1.327 . S
C2765 H2788 0.950 . S
C2766 C2765 1.349 . S
C2766 C2778 1.349 . S
C2767 C2765 1.327 . S
C2767 C2783 1.429 . S
C2767 H2789 0.950 . S
C2768 H2764 0.949 . S
C2768 C2776 1.574 . S
C2768 C2784 1.368 . S
H2769 C2777 0.950 . S
H2770 C2775 0.950 . S
H2771 C2776 0.949 . S
H2772 C2778 0.950 . S
H2773 C2779 0.950 . S
H2774 C2780 0.949 . S
C2775 H2770 0.950 . S
C2775 C2777 1.327 . S
C2775 C2781 1.429 . S
C2776 C2768 1.574 . S
C2776 H2771 0.949 . S
C2776 C2782 1.368 . S
C2777 C2761 1.349 . S
C2777 H2769 0.950 . S
C2777 C2775 1.327 . S
C2778 C2766 1.349 . S
C2778 H2772 0.950 . S
C2778 C2779 1.327 . S
C2779 H2773 0.950 . S
C2779 C2778 1.327 . S
C2779 C2783 1.429 . S
C2780 C2763 1.574 . S
C2780 H2774 0.949 . S
C2780 C2784 1.368 . S
C2781 C2762 1.429 . S
C2781 C2775 1.429 . S
C2781 C2782 1.523 . S
C2782 C2763 1.368 . S
C2782 C2776 1.368 . S
C2782 C2781 1.523 . S
C2783 C2767 1.429 . S
C2783 C2779 1.429 . S
C2783 C2784 1.523 . S
C2784 C2768 1.368 . S
C2784 C2780 1.368 . S
C2784 C2783 1.523 . S
H2785 C2760 0.950 . S
H2786 C2762 0.950 . S
H2787 C2763 0.949 . S
H2788 C2765 0.950 . S
H2789 C2767 0.950 . S
C2790 C2791 1.349 . S
C2790 C2792 1.327 . S
C2790 H2815 0.950 . S
C2791 C2790 1.349 . S
C2791 C2807 1.349 . S
C2792 C2790 1.327 . S
C2792 C2811 1.429 . S
C2792 H2816 0.950 . S
C2793 C2810 1.574 . S
C2793 C2812 1.368 . S
C2793 H2817 0.949 . S
H2794 C2798 0.949 . S
C2795 C2796 1.349 . S
C2795 C2797 1.327 . S
C2795 H2818 0.950 . S
C2796 C2795 1.349 . S
C2796 C2808 1.349 . S
C2797 C2795 1.327 . S
C2797 C2813 1.429 . S
C2797 H2819 0.950 . S
C2798 H2794 0.949 . S
C2798 C2806 1.574 . S
C2798 C2814 1.368 . S
H2799 C2807 0.950 . S
H2800 C2805 0.950 . S
H2801 C2806 0.949 . S
H2802 C2808 0.950 . S
H2803 C2809 0.950 . S
H2804 C2810 0.949 . S
C2805 H2800 0.950 . S
C2805 C2807 1.327 . S
C2805 C2811 1.429 . S
C2806 C2798 1.574 . S
C2806 H2801 0.949 . S
C2806 C2812 1.368 . S
C2807 C2791 1.349 . S
C2807 H2799 0.950 . S
C2807 C2805 1.327 . S
C2808 C2796 1.349 . S
C2808 H2802 0.950 . S
C2808 C2809 1.327 . S
C2809 H2803 0.950 . S
C2809 C2808 1.327 . S
C2809 C2813 1.429 . S
C2810 C2793 1.574 . S
C2810 H2804 0.949 . S
C2810 C2814 1.368 . S
C2811 C2792 1.429 . S
C2811 C2805 1.429 . S
C2811 C2812 1.523 . S
C2812 C2793 1.368 . S
C2812 C2806 1.368 . S
C2812 C2811 1.523 . S
C2813 C2797 1.429 . S
C2813 C2809 1.429 . S
C2813 C2814 1.523 . S
C2814 C2798 1.368 . S
C2814 C2810 1.368 . S
C2814 C2813 1.523 . S
H2815 C2790 0.950 . S
H2816 C2792 0.950 . S
H2817 C2793 0.949 . S
H2818 C2795 0.950 . S
H2819 C2797 0.950 . S
C2820 C2821 1.349 . S
C2820 C2822 1.327 . S
C2820 H2845 0.950 . S
C2821 C2820 1.349 . S
C2821 C2837 1.349 . S
C2822 C2820 1.327 . S
C2822 C2841 1.429 . S
C2822 H2846 0.950 . S
C2823 C2840 1.574 . S
C2823 C2842 1.368 . S
C2823 H2847 0.949 . S
H2824 C2828 0.949 . S
C2825 C2826 1.349 . S
C2825 C2827 1.327 . S
C2825 H2848 0.950 . S
C2826 C2825 1.349 . S
C2826 C2838 1.349 . S
C2827 C2825 1.327 . S
C2827 C2843 1.429 . S
C2827 H2849 0.950 . S
C2828 H2824 0.949 . S
C2828 C2836 1.574 . S
C2828 C2844 1.368 . S
H2829 C2837 0.950 . S
H2830 C2835 0.950 . S
H2831 C2836 0.949 . S
H2832 C2838 0.950 . S
H2833 C2839 0.950 . S
H2834 C2840 0.949 . S
C2835 H2830 0.950 . S
C2835 C2837 1.327 . S
C2835 C2841 1.429 . S
C2836 C2828 1.574 . S
C2836 H2831 0.949 . S
C2836 C2842 1.368 . S
C2837 C2821 1.349 . S
C2837 H2829 0.950 . S
C2837 C2835 1.327 . S
C2838 C2826 1.349 . S
C2838 H2832 0.950 . S
C2838 C2839 1.327 . S
C2839 H2833 0.950 . S
C2839 C2838 1.327 . S
C2839 C2843 1.429 . S
C2840 C2823 1.574 . S
C2840 H2834 0.949 . S
C2840 C2844 1.368 . S
C2841 C2822 1.429 . S
C2841 C2835 1.429 . S
C2841 C2842 1.523 . S
C2842 C2823 1.368 . S
C2842 C2836 1.368 . S
C2842 C2841 1.523 . S
C2843 C2827 1.429 . S
C2843 C2839 1.429 . S
C2843 C2844 1.523 . S
C2844 C2828 1.368 . S
C2844 C2840 1.368 . S
C2844 C2843 1.523 . S
H2845 C2820 0.950 . S
H2846 C2822 0.950 . S
H2847 C2823 0.949 . S
H2848 C2825 0.950 . S
H2849 C2827 0.950 . S
C2850 C2851 1.349 . S
C2850 C2852 1.327 . S
C2850 H2875 0.950 . S
C2851 C2850 1.349 . S
C2851 C2867 1.349 . S
C2852 C2850 1.327 . S
C2852 C2871 1.429 . S
C2852 H2876 0.950 . S
C2853 C2870 1.574 . S
C2853 C2872 1.368 . S
C2853 H2877 0.949 . S
H2854 C2858 0.949 . S
C2855 C2856 1.349 . S
C2855 C2857 1.327 . S
C2855 H2878 0.950 . S
C2856 C2855 1.349 . S
C2856 C2868 1.349 . S
C2857 C2855 1.327 . S
C2857 C2873 1.429 . S
C2857 H2879 0.950 . S
C2858 H2854 0.949 . S
C2858 C2866 1.574 . S
C2858 C2874 1.368 . S
H2859 C2867 0.950 . S
H2860 C2865 0.950 . S
H2861 C2866 0.949 . S
H2862 C2868 0.950 . S
H2863 C2869 0.950 . S
H2864 C2870 0.949 . S
C2865 H2860 0.950 . S
C2865 C2867 1.327 . S
C2865 C2871 1.429 . S
C2866 C2858 1.574 . S
C2866 H2861 0.949 . S
C2866 C2872 1.368 . S
C2867 C2851 1.349 . S
C2867 H2859 0.950 . S
C2867 C2865 1.327 . S
C2868 C2856 1.349 . S
C2868 H2862 0.950 . S
C2868 C2869 1.327 . S
C2869 H2863 0.950 . S
C2869 C2868 1.327 . S
C2869 C2873 1.429 . S
C2870 C2853 1.574 . S
C2870 H2864 0.949 . S
C2870 C2874 1.368 . S
C2871 C2852 1.429 . S
C2871 C2865 1.429 . S
C2871 C2872 1.523 . S
C2872 C2853 1.368 . S
C2872 C2866 1.368 . S
C2872 C2871 1.523 . S
C2873 C2857 1.429 . S
C2873 C2869 1.429 . S
C2873 C2874 1.523 . S
C2874 C2858 1.368 . S
C2874 C2870 1.368 . S
C2874 C2873 1.523 . S
H2875 C2850 0.950 . S
H2876 C2852 0.950 . S
H2877 C2853 0.949 . S
H2878 C2855 0.950 . S
H2879 C2857 0.950 . S
C2880 C2881 1.349 . S
C2880 C2882 1.327 . S
C2880 H2905 0.950 . S
C2881 C2880 1.349 . S
C2881 C2897 1.349 . S
C2882 C2880 1.327 . S
C2882 C2901 1.429 . S
C2882 H2906 0.950 . S
C2883 C2900 1.510 1_655 S
C2883 C2902 1.368 . S
C2883 H2907 0.949 . S
H2884 C2888 0.949 . S
C2885 C2886 1.349 . S
C2885 C2887 1.327 . S
C2885 H2908 0.950 . S
C2886 C2885 1.349 . S
C2886 C2898 1.349 . S
C2887 C2885 1.327 . S
C2887 C2903 1.429 . S
C2887 H2909 0.950 . S
C2888 H2884 0.949 . S
C2888 C2896 1.510 1_455 S
C2888 C2904 1.368 . S
H2889 C2897 0.950 . S
H2890 C2895 0.950 . S
H2891 C2896 0.965 . S
H2892 C2898 0.950 . S
H2893 C2899 0.950 . S
H2894 C2900 0.965 . S
C2895 H2890 0.950 . S
C2895 C2897 1.327 . S
C2895 C2901 1.429 . S
C2896 C2888 1.510 1_655 S
C2896 H2891 0.965 . S
C2896 C2902 1.417 . S
C2897 C2881 1.349 . S
C2897 H2889 0.950 . S
C2897 C2895 1.327 . S
C2898 C2886 1.349 . S
C2898 H2892 0.950 . S
C2898 C2899 1.327 . S
C2899 H2893 0.950 . S
C2899 C2898 1.327 . S
C2899 C2903 1.429 . S
C2900 C2883 1.510 1_455 S
C2900 H2894 0.965 . S
C2900 C2904 1.417 . S
C2901 C2882 1.429 . S
C2901 C2895 1.429 . S
C2901 C2902 1.523 . S
C2902 C2883 1.368 . S
C2902 C2896 1.417 . S
C2902 C2901 1.523 . S
C2903 C2887 1.429 . S
C2903 C2899 1.429 . S
C2903 C2904 1.523 . S
C2904 C2888 1.368 . S
C2904 C2900 1.417 . S
C2904 C2903 1.523 . S
H2905 C2880 0.950 . S
H2906 C2882 0.950 . S
H2907 C2883 0.949 . S
H2908 C2885 0.950 . S
H2909 C2887 0.950 . S
C2910 C2911 1.349 . S
C2910 C2912 1.327 . S
C2910 H2935 0.950 . S
C2911 C2910 1.349 . S
C2911 C2927 1.349 . S
C2912 C2910 1.327 . S
C2912 C2931 1.429 . S
C2912 H2936 0.950 . S
C2913 C2930 1.574 . S
C2913 C2932 1.368 . S
C2913 H2937 0.949 . S
H2914 C2918 0.949 . S
C2915 C2916 1.349 . S
C2915 C2917 1.327 . S
C2915 H2938 0.950 . S
C2916 C2915 1.349 . S
C2916 C2928 1.349 . S
C2917 C2915 1.327 . S
C2917 C2933 1.429 . S
C2917 H2939 0.950 . S
C2918 H2914 0.949 . S
C2918 C2926 1.574 . S
C2918 C2934 1.368 . S
H2919 C2927 0.950 . S
H2920 C2925 0.950 . S
H2921 C2926 0.949 . S
H2922 C2928 0.950 . S
H2923 C2929 0.950 . S
H2924 C2930 0.949 . S
C2925 H2920 0.950 . S
C2925 C2927 1.327 . S
C2925 C2931 1.429 . S
C2926 C2918 1.574 . S
C2926 H2921 0.949 . S
C2926 C2932 1.368 . S
C2927 C2911 1.349 . S
C2927 H2919 0.950 . S
C2927 C2925 1.327 . S
C2928 C2916 1.349 . S
C2928 H2922 0.950 . S
C2928 C2929 1.327 . S
C2929 H2923 0.950 . S
C2929 C2928 1.327 . S
C2929 C2933 1.429 . S
C2930 C2913 1.574 . S
C2930 H2924 0.949 . S
C2930 C2934 1.368 . S
C2931 C2912 1.429 . S
C2931 C2925 1.429 . S
C2931 C2932 1.523 . S
C2932 C2913 1.368 . S
C2932 C2926 1.368 . S
C2932 C2931 1.523 . S
C2933 C2917 1.429 . S
C2933 C2929 1.429 . S
C2933 C2934 1.523 . S
C2934 C2918 1.368 . S
C2934 C2930 1.368 . S
C2934 C2933 1.523 . S
H2935 C2910 0.950 . S
H2936 C2912 0.950 . S
H2937 C2913 0.949 . S
H2938 C2915 0.950 . S
H2939 C2917 0.950 . S
C2940 C2941 1.349 . S
C2940 C2942 1.327 . S
C2940 H2965 0.950 . S
C2941 C2940 1.349 . S
C2941 C2957 1.349 . S
C2942 C2940 1.327 . S
C2942 C2961 1.429 . S
C2942 H2966 0.950 . S
C2943 C2960 1.574 . S
C2943 C2962 1.368 1_565 S
C2943 H2967 0.949 . S
H2944 C2948 0.949 . S
C2945 C2946 1.349 . S
C2945 C2947 1.327 . S
C2945 H2968 0.950 . S
C2946 C2945 1.349 . S
C2946 C2958 1.349 . S
C2947 C2945 1.327 . S
C2947 C2963 1.429 . S
C2947 H2969 0.950 . S
C2948 H2944 0.949 . S
C2948 C2956 1.574 . S
C2948 C2964 1.368 1_545 S
H2949 C2957 0.950 . S
H2950 C2955 0.950 . S
H2951 C2956 0.949 . S
H2952 C2958 0.950 . S
H2953 C2959 0.950 . S
H2954 C2960 0.949 . S
C2955 H2950 0.950 . S
C2955 C2957 1.327 . S
C2955 C2961 1.429 . S
C2956 C2948 1.574 . S
C2956 H2951 0.949 . S
C2956 C2962 1.368 . S
C2957 C2941 1.349 . S
C2957 H2949 0.950 . S
C2957 C2955 1.327 . S
C2958 C2946 1.349 . S
C2958 H2952 0.950 . S
C2958 C2959 1.327 . S
C2959 H2953 0.950 . S
C2959 C2958 1.327 . S
C2959 C2963 1.429 . S
C2960 C2943 1.574 . S
C2960 H2954 0.949 . S
C2960 C2964 1.368 . S
C2961 C2942 1.429 . S
C2961 C2955 1.429 . S
C2961 C2962 1.523 . S
C2962 C2943 1.368 1_545 S
C2962 C2956 1.368 . S
C2962 C2961 1.523 . S
C2963 C2947 1.429 . S
C2963 C2959 1.429 . S
C2963 C2964 1.523 . S
C2964 C2948 1.368 1_565 S
C2964 C2960 1.368 . S
C2964 C2963 1.523 . S
H2965 C2940 0.950 . S
H2966 C2942 0.950 . S
H2967 C2943 0.949 . S
H2968 C2945 0.950 . S
H2969 C2947 0.950 . S
C2970 C2971 1.349 . S
C2970 C2972 1.327 . S
C2970 H2995 0.950 . S
C2971 C2970 1.349 . S
C2971 C2987 1.349 . S
C2972 C2970 1.327 . S
C2972 C2991 1.429 . S
C2972 H2996 0.950 . S
C2973 C2990 1.574 . S
C2973 C2992 1.368 1_556 S
C2973 H2997 0.949 . S
H2974 C2978 0.949 . S
C2975 C2976 1.349 . S
C2975 C2977 1.327 . S
C2975 H2998 0.950 . S
C2976 C2975 1.349 . S
C2976 C2988 1.349 . S
C2977 C2975 1.327 . S
C2977 C2993 1.429 . S
C2977 H2999 0.950 . S
C2978 H2974 0.949 . S
C2978 C2986 1.574 . S
C2978 C2994 1.368 1_554 S
H2979 C2987 0.950 . S
H2980 C2985 0.950 1_556 S
H2981 C2986 0.949 . S
H2982 C2988 0.950 . S
H2983 C2989 0.950 1_554 S
H2984 C2990 0.949 . S
C2985 H2980 0.950 1_554 S
C2985 C2987 1.327 . S
C2985 C2991 1.429 . S
C2986 C2978 1.574 . S
C2986 H2981 0.949 . S
C2986 C2992 1.368 1_545 S
C2987 C2971 1.349 . S
C2987 H2979 0.950 . S
C2987 C2985 1.327 . S
C2988 C2976 1.349 . S
C2988 H2982 0.950 . S
C2988 C2989 1.327 . S
C2989 H2983 0.950 1_556 S
C2989 C2988 1.327 . S
C2989 C2993 1.429 . S
C2990 C2973 1.574 . S
C2990 H2984 0.949 . S
C2990 C2994 1.368 1_565 S
C2991 C2972 1.429 . S
C2991 C2985 1.429 . S
C2991 C2992 1.523 . S
C2992 C2973 1.368 1_554 S
C2992 C2986 1.368 1_565 S
C2992 C2991 1.523 . S
C2993 C2977 1.429 . S
C2993 C2989 1.429 . S
C2993 C2994 1.523 . S
C2994 C2978 1.368 1_556 S
C2994 C2990 1.368 1_545 S
C2994 C2993 1.523 . S
H2995 C2970 0.950 . S
H2996 C2972 0.950 . S
H2997 C2973 0.949 . S
H2998 C2975 0.950 . S
H2999 C2977 0.950 . S
C3000 C3001 1.349 . S
C3000 C3002 1.327 . S
C3000 H3025 0.950 . S
C3001 C3000 1.349 . S
C3001 C3017 1.349 . S
C3002 C3000 1.327 . S
C3002 C3021 1.429 . S
C3002 H3026 0.950 . S
C3003 C3020 1.574 1_655 S
C3003 C3022 1.368 1_554 S
C3003 H3027 0.949 . S
H3004 C3008 0.949 . S
C3005 C3006 1.349 . S
C3005 C3007 1.327 . S
C3005 H3028 0.950 . S
C3006 C3005 1.349 . S
C3006 C3018 1.349 . S
C3007 C3005 1.327 . S
C3007 C3023 1.429 . S
C3007 H3029 0.950 . S
C3008 H3004 0.949 . S
C3008 C3016 1.574 1_455 S
C3008 C3024 1.368 1_556 S
H3009 C3017 0.950 . S
H3010 C3015 0.950 1_554 S
H3011 C3016 0.949 . S
H3012 C3018 0.950 . S
H3013 C3019 0.950 1_556 S
H3014 C3020 0.949 . S
C3015 H3010 0.950 1_556 S
C3015 C3017 1.327 . S
C3015 C3021 1.429 . S
C3016 C3008 1.574 1_655 S
C3016 H3011 0.949 . S
C3016 C3022 1.368 . S
C3017 C3001 1.349 . S
C3017 H3009 0.950 . S
C3017 C3015 1.327 . S
C3018 C3006 1.349 . S
C3018 H3012 0.950 . S
C3018 C3019 1.327 . S
C3019 H3013 0.950 1_554 S
C3019 C3018 1.327 . S
C3019 C3023 1.429 . S
C3020 C3003 1.574 1_455 S
C3020 H3014 0.949 . S
C3020 C3024 1.368 . S
C3021 C3002 1.429 . S
C3021 C3015 1.429 . S
C3021 C3022 1.523 . S
C3022 C3003 1.368 1_556 S
C3022 C3016 1.368 . S
C3022 C3021 1.523 . S
C3023 C3007 1.429 . S
C3023 C3019 1.429 . S
C3023 C3024 1.523 . S
C3024 C3008 1.368 1_554 S
C3024 C3020 1.368 . S
C3024 C3023 1.523 . S
H3025 C3000 0.950 . S
H3026 C3002 0.950 . S
H3027 C3003 0.949 . S
H3028 C3005 0.950 . S
H3029 C3007 0.950 . S
C3030 C3031 1.349 . S
C3030 C3032 1.327 . S
C3030 H3055 0.950 . S
C3031 C3030 1.349 . S
C3031 C3047 1.349 . S
C3032 C3030 1.327 . S
C3032 C3051 1.429 . S
C3032 H3056 0.950 1_554 S
C3033 C3050 1.574 . S
C3033 C3052 1.368 . S
C3033 H3057 0.949 . S
H3034 C3038 0.949 . S
C3035 C3036 1.349 . S
C3035 C3037 1.327 . S
C3035 H3058 0.950 . S
C3036 C3035 1.349 . S
C3036 C3048 1.349 . S
C3037 C3035 1.327 . S
C3037 C3053 1.429 . S
C3037 H3059 0.950 1_556 S
C3038 H3034 0.949 . S
C3038 C3046 1.574 . S
C3038 C3054 1.368 . S
H3039 C3047 0.950 . S
H3040 C3045 0.950 . S
H3041 C3046 0.949 . S
H3042 C3048 0.950 . S
H3043 C3049 0.950 . S
H3044 C3050 0.949 . S
C3045 H3040 0.950 . S
C3045 C3047 1.327 . S
C3045 C3051 1.429 . S
C3046 C3038 1.574 . S
C3046 H3041 0.949 . S
C3046 C3052 1.368 1_556 S
C3047 C3031 1.349 . S
C3047 H3039 0.950 . S
C3047 C3045 1.327 . S
C3048 C3036 1.349 . S
C3048 H3042 0.950 . S
C3048 C3049 1.327 . S
C3049 H3043 0.950 . S
C3049 C3048 1.327 . S
C3049 C3053 1.429 . S
C3050 C3033 1.574 . S
C3050 H3044 0.949 . S
C3050 C3054 1.368 1_554 S
C3051 C3032 1.429 . S
C3051 C3045 1.429 . S
C3051 C3052 1.523 . S
C3052 C3033 1.368 . S
C3052 C3046 1.368 1_554 S
C3052 C3051 1.523 . S
C3053 C3037 1.429 . S
C3053 C3049 1.429 . S
C3053 C3054 1.523 . S
C3054 C3038 1.368 . S
C3054 C3050 1.368 1_556 S
C3054 C3053 1.523 . S
H3055 C3030 0.950 . S
H3056 C3032 0.950 1_556 S
H3057 C3033 0.949 . S
H3058 C3035 0.950 . S
H3059 C3037 0.950 1_554 S
C3060 C3061 1.349 1_554 S
C3060 C3062 1.327 1_554 S
C3060 H3085 0.950 . S
C3061 C3060 1.349 1_556 S
C3061 C3077 1.349 . S
C3062 C3060 1.327 1_556 S
C3062 C3081 1.429 . S
C3062 H3086 0.950 . S
C3063 C3080 1.574 . S
C3063 C3082 1.368 . S
C3063 H3087 0.949 . S
H3064 C3068 0.949 . S
C3065 C3066 1.349 . S
C3065 C3067 1.327 . S
C3065 H3088 0.950 . S
C3066 C3065 1.349 . S
C3066 C3078 1.349 . S
C3067 C3065 1.327 . S
C3067 C3083 1.429 . S
C3067 H3089 0.950 . S
C3068 H3064 0.949 . S
C3068 C3076 1.574 . S
C3068 C3084 1.368 . S
H3069 C3077 0.950 . S
H3070 C3075 0.950 . S
H3071 C3076 0.949 . S
H3072 C3078 0.950 . S
H3073 C3079 0.950 . S
H3074 C3080 0.949 . S
C3075 H3070 0.950 . S
C3075 C3077 1.327 . S
C3075 C3081 1.429 . S
C3076 C3068 1.574 . S
C3076 H3071 0.949 . S
C3076 C3082 1.368 . S
C3077 C3061 1.349 . S
C3077 H3069 0.950 . S
C3077 C3075 1.327 . S
C3078 C3066 1.349 . S
C3078 H3072 0.950 . S
C3078 C3079 1.327 . S
C3079 H3073 0.950 . S
C3079 C3078 1.327 . S
C3079 C3083 1.429 . S
C3080 C3063 1.574 . S
C3080 H3074 0.949 . S
C3080 C3084 1.368 . S
C3081 C3062 1.429 . S
C3081 C3075 1.429 . S
C3081 C3082 1.523 . S
C3082 C3063 1.368 . S
C3082 C3076 1.368 . S
C3082 C3081 1.523 . S
C3083 C3067 1.429 . S
C3083 C3079 1.429 . S
C3083 C3084 1.523 . S
C3084 C3068 1.368 . S
C3084 C3080 1.368 . S
C3084 C3083 1.523 . S
H3085 C3060 0.950 . S
H3086 C3062 0.950 . S
H3087 C3063 0.949 . S
H3088 C3065 0.950 . S
H3089 C3067 0.950 . S
C3090 C3091 1.349 . S
C3090 C3092 1.327 . S
C3090 H3115 0.950 . S
C3091 C3090 1.349 . S
C3091 C3107 1.349 1_556 S
C3092 C3090 1.327 . S
C3092 C3111 1.429 . S
C3092 H3116 0.950 . S
C3093 C3110 1.574 . S
C3093 C3112 1.368 . S
C3093 H3117 0.949 . S
H3094 C3098 0.949 . S
C3095 C3096 1.349 . S
C3095 C3097 1.327 . S
C3095 H3118 0.950 . S
C3096 C3095 1.349 . S
C3096 C3108 1.349 . S
C3097 C3095 1.327 . S
C3097 C3113 1.429 . S
C3097 H3119 0.950 . S
C3098 H3094 0.949 . S
C3098 C3106 1.574 . S
C3098 C3114 1.368 . S
H3099 C3107 0.950 . S
H3100 C3105 0.950 . S
H3101 C3106 0.949 . S
H3102 C3108 0.950 . S
H3103 C3109 0.950 . S
H3104 C3110 0.949 . S
C3105 H3100 0.950 . S
C3105 C3107 1.327 1_556 S
C3105 C3111 1.429 . S
C3106 C3098 1.574 . S
C3106 H3101 0.949 . S
C3106 C3112 1.368 . S
C3107 C3091 1.349 1_554 S
C3107 H3099 0.950 . S
C3107 C3105 1.327 1_554 S
C3108 C3096 1.349 . S
C3108 H3102 0.950 . S
C3108 C3109 1.327 . S
C3109 H3103 0.950 . S
C3109 C3108 1.327 . S
C3109 C3113 1.429 . S
C3110 C3093 1.574 . S
C3110 H3104 0.949 . S
C3110 C3114 1.368 . S
C3111 C3092 1.429 . S
C3111 C3105 1.429 . S
C3111 C3112 1.523 . S
C3112 C3093 1.368 . S
C3112 C3106 1.368 . S
C3112 C3111 1.523 . S
C3113 C3097 1.429 . S
C3113 C3109 1.429 . S
C3113 C3114 1.523 . S
C3114 C3098 1.368 . S
C3114 C3110 1.368 . S
C3114 C3113 1.523 . S
H3115 C3090 0.950 . S
H3116 C3092 0.950 . S
H3117 C3093 0.949 . S
H3118 C3095 0.950 . S
H3119 C3097 0.950 . S
C3120 C3121 1.349 . S
C3120 C3122 1.327 . S
C3120 H3145 0.950 . S
C3121 C3120 1.349 . S
C3121 C3137 1.349 . S
C3122 C3120 1.327 . S
C3122 C3141 1.429 . S
C3122 H3146 0.950 . S
C3123 C3140 1.574 . S
C3123 C3142 1.368 . S
C3123 H3147 0.949 . S
H3124 C3128 0.949 . S
C3125 C3126 1.349 1_554 S
C3125 C3127 1.327 1_554 S
C3125 H3148 0.950 . S
C3126 C3125 1.349 1_556 S
C3126 C3138 1.349 . S
C3127 C3125 1.327 1_556 S
C3127 C3143 1.429 . S
C3127 H3149 0.950 . S
C3128 H3124 0.949 . S
C3128 C3136 1.574 . S
C3128 C3144 1.368 . S
H3129 C3137 0.950 . S
H3130 C3135 0.950 . S
H3131 C3136 0.949 . S
H3132 C3138 0.950 . S
H3133 C3139 0.950 . S
H3134 C3140 0.949 . S
C3135 H3130 0.950 . S
C3135 C3137 1.327 . S
C3135 C3141 1.429 . S
C3136 C3128 1.574 . S
C3136 H3131 0.949 . S
C3136 C3142 1.368 . S
C3137 C3121 1.349 . S
C3137 H3129 0.950 . S
C3137 C3135 1.327 . S
C3138 C3126 1.349 . S
C3138 H3132 0.950 . S
C3138 C3139 1.327 . S
C3139 H3133 0.950 . S
C3139 C3138 1.327 . S
C3139 C3143 1.429 . S
C3140 C3123 1.574 . S
C3140 H3134 0.949 . S
C3140 C3144 1.368 . S
C3141 C3122 1.429 . S
C3141 C3135 1.429 . S
C3141 C3142 1.523 . S
C3142 C3123 1.368 . S
C3142 C3136 1.368 . S
C3142 C3141 1.523 . S
C3143 C3127 1.429 . S
C3143 C3139 1.429 . S
C3143 C3144 1.523 . S
C3144 C3128 1.368 . S
C3144 C3140 1.368 . S
C3144 C3143 1.523 . S
H3145 C3120 0.950 . S
H3146 C3122 0.950 . S
H3147 C3123 0.949 . S
H3148 C3125 0.950 . S
H3149 C3127 0.950 . S
C3150 C3151 1.349 . S
C3150 C3152 1.327 . S
C3150 H3175 0.950 . S
C3151 C3150 1.349 . S
C3151 C3167 1.349 . S
C3152 C3150 1.327 . S
C3152 C3171 1.429 . S
C3152 H3176 0.950 . S
C3153 C3170 1.574 . S
C3153 C3172 1.368 . S
C3153 H3177 0.949 . S
H3154 C3158 0.949 . S
C3155 C3156 1.349 . S
C3155 C3157 1.327 . S
C3155 H3178 0.950 . S
C3156 C3155 1.349 . S
C3156 C3168 1.349 . S
C3157 C3155 1.327 . S
C3157 C3173 1.429 . S
C3157 H3179 0.950 . S
C3158 H3154 0.949 . S
C3158 C3166 1.574 . S
C3158 C3174 1.368 . S
H3159 C3167 0.950 . S
H3160 C3165 0.950 . S
H3161 C3166 0.949 . S
H3162 C3168 0.950 . S
H3163 C3169 0.950 . S
H3164 C3170 0.949 . S
C3165 H3160 0.950 . S
C3165 C3167 1.327 . S
C3165 C3171 1.429 . S
C3166 C3158 1.574 . S
C3166 H3161 0.949 . S
C3166 C3172 1.368 . S
C3167 C3151 1.349 . S
C3167 H3159 0.950 . S
C3167 C3165 1.327 . S
C3168 C3156 1.349 . S
C3168 H3162 0.950 . S
C3168 C3169 1.327 . S
C3169 H3163 0.950 . S
C3169 C3168 1.327 . S
C3169 C3173 1.429 . S
C3170 C3153 1.574 . S
C3170 H3164 0.949 . S
C3170 C3174 1.368 . S
C3171 C3152 1.429 . S
C3171 C3165 1.429 . S
C3171 C3172 1.523 . S
C3172 C3153 1.368 . S
C3172 C3166 1.368 . S
C3172 C3171 1.523 . S
C3173 C3157 1.429 . S
C3173 C3169 1.429 . S
C3173 C3174 1.523 . S
C3174 C3158 1.368 . S
C3174 C3170 1.368 . S
C3174 C3173 1.523 . S
H3175 C3150 0.950 . S
H3176 C3152 0.950 . S
H3177 C3153 0.949 . S
H3178 C3155 0.950 . S
H3179 C3157 0.950 . S
C3180 C3181 1.349 . S
C3180 C3182 1.327 . S
C3180 H3205 0.950 . S
C3181 C3180 1.349 . S
C3181 C3197 1.349 . S
C3182 C3180 1.327 . S
C3182 C3201 1.429 . S
C3182 H3206 0.950 . S
C3183 C3200 1.574 . S
C3183 C3202 1.368 . S
C3183 H3207 0.949 . S
H3184 C3188 0.949 . S
C3185 C3186 1.349 . S
C3185 C3187 1.327 . S
C3185 H3208 0.950 . S
C3186 C3185 1.349 . S
C3186 C3198 1.349 . S
C3187 C3185 1.327 . S
C3187 C3203 1.429 . S
C3187 H3209 0.950 . S
C3188 H3184 0.949 . S
C3188 C3196 1.574 . S
C3188 C3204 1.368 . S
H3189 C3197 0.950 . S
H3190 C3195 0.950 . S
H3191 C3196 0.949 . S
H3192 C3198 0.950 . S
H3193 C3199 0.950 . S
H3194 C3200 0.949 . S
C3195 H3190 0.950 . S
C3195 C3197 1.327 . S
C3195 C3201 1.429 . S
C3196 C3188 1.574 . S
C3196 H3191 0.949 . S
C3196 C3202 1.368 . S
C3197 C3181 1.349 . S
C3197 H3189 0.950 . S
C3197 C3195 1.327 . S
C3198 C3186 1.349 . S
C3198 H3192 0.950 . S
C3198 C3199 1.327 . S
C3199 H3193 0.950 . S
C3199 C3198 1.327 . S
C3199 C3203 1.429 . S
C3200 C3183 1.574 . S
C3200 H3194 0.949 . S
C3200 C3204 1.368 . S
C3201 C3182 1.429 . S
C3201 C3195 1.429 . S
C3201 C3202 1.523 . S
C3202 C3183 1.368 . S
C3202 C3196 1.368 . S
C3202 C3201 1.523 . S
C3203 C3187 1.429 . S
C3203 C3199 1.429 . S
C3203 C3204 1.523 . S
C3204 C3188 1.368 . S
C3204 C3200 1.368 . S
C3204 C3203 1.523 . S
H3205 C3180 0.950 . S
H3206 C3182 0.950 . S
H3207 C3183 0.949 . S
H3208 C3185 0.950 . S
H3209 C3187 0.950 . S
C3210 C3211 1.349 . S
C3210 C3212 1.327 . S
C3210 H3235 0.950 . S
C3211 C3210 1.349 . S
C3211 C3227 1.349 . S
C3212 C3210 1.327 . S
C3212 C3231 1.429 . S
C3212 H3236 0.950 . S
C3213 C3230 1.574 . S
C3213 C3232 1.368 . S
C3213 H3237 0.949 . S
H3214 C3218 0.949 . S
C3215 C3216 1.349 . S
C3215 C3217 1.327 . S
C3215 H3238 0.950 . S
C3216 C3215 1.349 . S
C3216 C3228 1.349 . S
C3217 C3215 1.327 . S
C3217 C3233 1.429 . S
C3217 H3239 0.950 . S
C3218 H3214 0.949 . S
C3218 C3226 1.574 . S
C3218 C3234 1.368 . S
H3219 C3227 0.950 . S
H3220 C3225 0.950 . S
H3221 C3226 0.949 . S
H3222 C3228 0.950 . S
H3223 C3229 0.950 . S
H3224 C3230 0.949 . S
C3225 H3220 0.950 . S
C3225 C3227 1.327 . S
C3225 C3231 1.429 . S
C3226 C3218 1.574 . S
C3226 H3221 0.949 . S
C3226 C3232 1.368 . S
C3227 C3211 1.349 . S
C3227 H3219 0.950 . S
C3227 C3225 1.327 . S
C3228 C3216 1.349 . S
C3228 H3222 0.950 . S
C3228 C3229 1.327 . S
C3229 H3223 0.950 . S
C3229 C3228 1.327 . S
C3229 C3233 1.429 . S
C3230 C3213 1.574 . S
C3230 H3224 0.949 . S
C3230 C3234 1.368 . S
C3231 C3212 1.429 . S
C3231 C3225 1.429 . S
C3231 C3232 1.523 . S
C3232 C3213 1.368 . S
C3232 C3226 1.368 . S
C3232 C3231 1.523 . S
C3233 C3217 1.429 . S
C3233 C3229 1.429 . S
C3233 C3234 1.523 . S
C3234 C3218 1.368 . S
C3234 C3230 1.368 . S
C3234 C3233 1.523 . S
H3235 C3210 0.950 . S
H3236 C3212 0.950 . S
H3237 C3213 0.949 . S
H3238 C3215 0.950 . S
H3239 C3217 0.950 . S
C3240 C3241 1.349 . S
C3240 C3242 1.327 . S
C3240 H3265 0.950 . S
C3241 C3240 1.349 . S
C3241 C3257 1.349 . S
C3242 C3240 1.327 . S
C3242 C3261 1.429 . S
C3242 H3266 0.950 . S
C3243 C3260 1.574 . S
C3243 C3262 1.368 . S
C3243 H3267 0.949 . S
H3244 C3248 0.949 . S
C3245 C3246 1.349 . S
C3245 C3247 1.327 . S
C3245 H3268 0.950 . S
C3246 C3245 1.349 . S
C3246 C3258 1.349 1_554 S
C3247 C3245 1.327 . S
C3247 C3263 1.429 . S
C3247 H3269 0.950 . S
C3248 H3244 0.949 . S
C3248 C3256 1.574 . S
C3248 C3264 1.368 . S
H3249 C3257 0.950 . S
H3250 C3255 0.950 . S
H3251 C3256 0.949 . S
H3252 C3258 0.950 . S
H3253 C3259 0.950 . S
H3254 C3260 0.949 . S
C3255 H3250 0.950 . S
C3255 C3257 1.327 . S
C3255 C3261 1.429 . S
C3256 C3248 1.574 . S
C3256 H3251 0.949 . S
C3256 C3262 1.368 . S
C3257 C3241 1.349 . S
C3257 H3249 0.950 . S
C3257 C3255 1.327 . S
C3258 C3246 1.349 1_556 S
C3258 H3252 0.950 . S
C3258 C3259 1.327 1_556 S
C3259 H3253 0.950 . S
C3259 C3258 1.327 1_554 S
C3259 C3263 1.429 . S
C3260 C3243 1.574 . S
C3260 H3254 0.949 . S
C3260 C3264 1.368 . S
C3261 C3242 1.429 . S
C3261 C3255 1.429 . S
C3261 C3262 1.523 . S
C3262 C3243 1.368 . S
C3262 C3256 1.368 . S
C3262 C3261 1.523 . S
C3263 C3247 1.429 . S
C3263 C3259 1.429 . S
C3263 C3264 1.523 . S
C3264 C3248 1.368 . S
C3264 C3260 1.368 . S
C3264 C3263 1.523 . S
H3265 C3240 0.950 . S
H3266 C3242 0.950 . S
H3267 C3243 0.949 . S
H3268 C3245 0.950 . S
H3269 C3247 0.950 . S
C3270 C3271 1.349 . S
C3270 C3272 1.327 . S
C3270 H3295 0.950 1_554 S
C3271 C3270 1.349 . S
C3271 C3287 1.349 . S
C3272 C3270 1.327 . S
C3272 C3291 1.429 . S
C3272 H3296 0.950 . S
C3273 C3290 1.574 . S
C3273 C3292 1.368 . S
C3273 H3297 0.949 . S
H3274 C3278 0.949 . S
C3275 C3276 1.349 . S
C3275 C3277 1.327 . S
C3275 H3298 0.950 . S
C3276 C3275 1.349 . S
C3276 C3288 1.349 . S
C3277 C3275 1.327 . S
C3277 C3293 1.429 . S
C3277 H3299 0.950 . S
C3278 H3274 0.949 . S
C3278 C3286 1.574 . S
C3278 C3294 1.368 . S
H3279 C3287 0.950 . S
H3280 C3285 0.950 . S
H3281 C3286 0.949 . S
H3282 C3288 0.950 . S
H3283 C3289 0.950 . S
H3284 C3290 0.949 . S
C3285 H3280 0.950 . S
C3285 C3287 1.327 . S
C3285 C3291 1.429 . S
C3286 C3278 1.574 . S
C3286 H3281 0.949 . S
C3286 C3292 1.368 . S
C3287 C3271 1.349 . S
C3287 H3279 0.950 . S
C3287 C3285 1.327 . S
C3288 C3276 1.349 . S
C3288 H3282 0.950 . S
C3288 C3289 1.327 . S
C3289 H3283 0.950 . S
C3289 C3288 1.327 . S
C3289 C3293 1.429 . S
C3290 C3273 1.574 . S
C3290 H3284 0.949 . S
C3290 C3294 1.368 . S
C3291 C3272 1.429 . S
C3291 C3285 1.429 . S
C3291 C3292 1.523 . S
C3292 C3273 1.368 . S
C3292 C3286 1.368 . S
C3292 C3291 1.523 . S
C3293 C3277 1.429 . S
C3293 C3289 1.429 . S
C3293 C3294 1.523 . S
C3294 C3278 1.368 . S
C3294 C3290 1.368 . S
C3294 C3293 1.523 . S
H3295 C3270 0.950 1_556 S
H3296 C3272 0.950 . S
H3297 C3273 0.949 . S
H3298 C3275 0.950 . S
H3299 C3277 0.950 . S
C3300 C3301 1.349 . S
C3300 C3302 1.327 . S
C3300 H3325 0.950 . S
C3301 C3300 1.349 . S
C3301 C3317 1.349 . S
C3302 C3300 1.327 . S
C3302 C3321 1.429 . S
C3302 H3326 0.950 . S
C3303 C3320 1.574 . S
C3303 C3322 1.368 . S
C3303 H3327 0.949 . S
H3304 C3308 0.949 . S
C3305 C3306 1.349 1_556 S
C3305 C3307 1.327 1_556 S
C3305 H3328 0.950 . S
C3306 C3305 1.349 1_554 S
C3306 C3318 1.349 . S
C3307 C3305 1.327 1_554 S
C3307 C3323 1.429 . S
C3307 H3329 0.950 . S
C3308 H3304 0.949 . S
C3308 C3316 1.574 . S
C3308 C3324 1.368 . S
H3309 C3317 0.950 . S
H3310 C3315 0.950 . S
H3311 C3316 0.949 . S
H3312 C3318 0.950 . S
H3313 C3319 0.950 . S
H3314 C3320 0.949 . S
C3315 H3310 0.950 . S
C3315 C3317 1.327 . S
C3315 C3321 1.429 . S
C3316 C3308 1.574 . S
C3316 H3311 0.949 . S
C3316 C3322 1.368 . S
C3317 C3301 1.349 . S
C3317 H3309 0.950 . S
C3317 C3315 1.327 . S
C3318 C3306 1.349 . S
C3318 H3312 0.950 . S
C3318 C3319 1.327 . S
C3319 H3313 0.950 . S
C3319 C3318 1.327 . S
C3319 C3323 1.429 . S
C3320 C3303 1.574 . S
C3320 H3314 0.949 . S
C3320 C3324 1.368 . S
C3321 C3302 1.429 . S
C3321 C3315 1.429 . S
C3321 C3322 1.523 . S
C3322 C3303 1.368 . S
C3322 C3316 1.368 . S
C3322 C3321 1.523 . S
C3323 C3307 1.429 . S
C3323 C3319 1.429 . S
C3323 C3324 1.523 . S
C3324 C3308 1.368 . S
C3324 C3320 1.368 . S
C3324 C3323 1.523 . S
H3325 C3300 0.950 . S
H3326 C3302 0.950 . S
H3327 C3303 0.949 . S
H3328 C3305 0.950 . S
H3329 C3307 0.950 . S
C3330 C3331 1.349 . S
C3330 C3332 1.327 . S
C3330 H3355 0.950 . S
C3331 C3330 1.349 . S
C3331 C3347 1.349 . S
C3332 C3330 1.327 . S
C3332 C3351 1.429 . S
C3332 H3356 0.950 . S
C3333 C3350 1.574 . S
C3333 C3352 1.368 . S
C3333 H3357 0.949 . S
H3334 C3338 0.949 . S
C3335 C3336 1.349 . S
C3335 C3337 1.327 . S
C3335 H3358 0.950 . S
C3336 C3335 1.349 . S
C3336 C3348 1.349 . S
C3337 C3335 1.327 . S
C3337 C3353 1.429 . S
C3337 H3359 0.950 . S
C3338 H3334 0.949 . S
C3338 C3346 1.574 . S
C3338 C3354 1.368 . S
H3339 C3347 0.950 . S
H3340 C3345 0.950 . S
H3341 C3346 0.949 . S
H3342 C3348 0.950 . S
H3343 C3349 0.950 . S
H3344 C3350 0.949 . S
C3345 H3340 0.950 . S
C3345 C3347 1.327 . S
C3345 C3351 1.429 . S
C3346 C3338 1.574 . S
C3346 H3341 0.949 . S
C3346 C3352 1.368 . S
C3347 C3331 1.349 . S
C3347 H3339 0.950 . S
C3347 C3345 1.327 . S
C3348 C3336 1.349 . S
C3348 H3342 0.950 . S
C3348 C3349 1.327 . S
C3349 H3343 0.950 . S
C3349 C3348 1.327 . S
C3349 C3353 1.429 . S
C3350 C3333 1.574 . S
C3350 H3344 0.949 . S
C3350 C3354 1.368 . S
C3351 C3332 1.429 . S
C3351 C3345 1.429 . S
C3351 C3352 1.523 . S
C3352 C3333 1.368 . S
C3352 C3346 1.368 . S
C3352 C3351 1.523 . S
C3353 C3337 1.429 . S
C3353 C3349 1.429 . S
C3353 C3354 1.523 . S
C3354 C3338 1.368 . S
C3354 C3350 1.368 . S
C3354 C3353 1.523 . S
H3355 C3330 0.950 . S
H3356 C3332 0.950 . S
H3357 C3333 0.949 . S
H3358 C3335 0.950 . S
H3359 C3337 0.950 . S
C3360 C3361 1.349 . S
C3360 C3362 1.327 . S
C3360 H3385 0.950 . S
C3361 C3360 1.349 . S
C3361 C3377 1.349 . S
C3362 C3360 1.327 . S
C3362 C3381 1.429 . S
C3362 H3386 0.950 . S
C3363 C3380 1.574 . S
C3363 C3382 1.368 . S
C3363 H3387 0.949 . S
H3364 C3368 0.949 . S
C3365 C3366 1.349 . S
C3365 C3367 1.327 . S
C3365 H3388 0.950 . S
C3366 C3365 1.349 . S
C3366 C3378 1.349 . S
C3367 C3365 1.327 . S
C3367 C3383 1.429 . S
C3367 H3389 0.950 . S
C3368 H3364 0.949 . S
C3368 C3376 1.574 . S
C3368 C3384 1.368 . S
H3369 C3377 0.950 . S
H3370 C3375 0.950 . S
H3371 C3376 0.949 . S
H3372 C3378 0.950 . S
H3373 C3379 0.950 . S
H3374 C3380 0.949 . S
C3375 H3370 0.950 . S
C3375 C3377 1.327 . S
C3375 C3381 1.429 . S
C3376 C3368 1.574 . S
C3376 H3371 0.949 . S
C3376 C3382 1.368 . S
C3377 C3361 1.349 . S
C3377 H3369 0.950 . S
C3377 C3375 1.327 . S
C3378 C3366 1.349 . S
C3378 H3372 0.950 . S
C3378 C3379 1.327 . S
C3379 H3373 0.950 . S
C3379 C3378 1.327 . S
C3379 C3383 1.429 . S
C3380 C3363 1.574 . S
C3380 H3374 0.949 . S
C3380 C3384 1.368 . S
C3381 C3362 1.429 . S
C3381 C3375 1.429 . S
C3381 C3382 1.523 . S
C3382 C3363 1.368 . S
C3382 C3376 1.368 . S
C3382 C3381 1.523 . S
C3383 C3367 1.429 . S
C3383 C3379 1.429 . S
C3383 C3384 1.523 . S
C3384 C3368 1.368 . S
C3384 C3380 1.368 . S
C3384 C3383 1.523 . S
H3385 C3360 0.950 . S
H3386 C3362 0.950 . S
H3387 C3363 0.949 . S
H3388 C3365 0.950 . S
H3389 C3367 0.950 . S
C3390 C3391 1.349 . S
C3390 C3392 1.327 . S
C3390 H3415 0.950 . S
C3391 C3390 1.349 . S
C3391 C3407 1.349 . S
C3392 C3390 1.327 . S
C3392 C3411 1.429 . S
C3392 H3416 0.950 . S
C3393 C3410 1.574 . S
C3393 C3412 1.368 . S
C3393 H3417 0.949 . S
H3394 C3398 0.949 . S
C3395 C3396 1.349 . S
C3395 C3397 1.327 . S
C3395 H3418 0.950 . S
C3396 C3395 1.349 . S
C3396 C3408 1.349 . S
C3397 C3395 1.327 . S
C3397 C3413 1.429 . S
C3397 H3419 0.950 . S
C3398 H3394 0.949 . S
C3398 C3406 1.574 . S
C3398 C3414 1.368 . S
H3399 C3407 0.950 . S
H3400 C3405 0.950 . S
H3401 C3406 0.949 . S
H3402 C3408 0.950 . S
H3403 C3409 0.950 . S
H3404 C3410 0.949 . S
C3405 H3400 0.950 . S
C3405 C3407 1.327 . S
C3405 C3411 1.429 . S
C3406 C3398 1.574 . S
C3406 H3401 0.949 . S
C3406 C3412 1.368 . S
C3407 C3391 1.349 . S
C3407 H3399 0.950 . S
C3407 C3405 1.327 . S
C3408 C3396 1.349 . S
C3408 H3402 0.950 . S
C3408 C3409 1.327 . S
C3409 H3403 0.950 . S
C3409 C3408 1.327 . S
C3409 C3413 1.429 . S
C3410 C3393 1.574 . S
C3410 H3404 0.949 . S
C3410 C3414 1.368 . S
C3411 C3392 1.429 . S
C3411 C3405 1.429 . S
C3411 C3412 1.523 . S
C3412 C3393 1.368 . S
C3412 C3406 1.368 . S
C3412 C3411 1.523 . S
C3413 C3397 1.429 . S
C3413 C3409 1.429 . S
C3413 C3414 1.523 . S
C3414 C3398 1.368 . S
C3414 C3410 1.368 . S
C3414 C3413 1.523 . S
H3415 C3390 0.950 . S
H3416 C3392 0.950 . S
H3417 C3393 0.949 . S
H3418 C3395 0.950 . S
H3419 C3397 0.950 . S
C3420 C3421 1.349 . S
C3420 C3422 1.327 . S
C3420 H3445 0.950 . S
C3421 C3420 1.349 . S
C3421 C3437 1.349 . S
C3422 C3420 1.327 . S
C3422 C3441 1.429 . S
C3422 H3446 0.950 . S
C3423 C3440 1.572 . S
C3423 C3442 1.368 . S
C3423 H3447 0.949 . S
H3424 C3428 0.949 . S
C3425 C3426 1.349 . S
C3425 C3427 1.327 . S
C3425 H3448 0.950 . S
C3426 C3425 1.349 . S
C3426 C3438 1.349 . S
C3427 C3425 1.327 . S
C3427 C3443 1.429 . S
C3427 H3449 0.950 . S
C3428 H3424 0.949 . S
C3428 C3436 1.572 . S
C3428 C3444 1.368 . S
H3429 C3437 0.950 . S
H3430 C3435 0.950 . S
H3431 C3436 0.949 1_455 S
H3432 C3438 0.950 . S
H3433 C3439 0.950 . S
H3434 C3440 0.949 1_655 S
C3435 H3430 0.950 . S
C3435 C3437 1.327 . S
C3435 C3441 1.429 . S
C3436 C3428 1.572 . S
C3436 H3431 0.949 1_655 S
C3436 C3442 1.370 1_655 S
C3437 C3421 1.349 . S
C3437 H3429 0.950 . S
C3437 C3435 1.327 . S
C3438 C3426 1.349 . S
C3438 H3432 0.950 . S
C3438 C3439 1.327 . S
C3439 H3433 0.950 . S
C3439 C3438 1.327 . S
C3439 C3443 1.429 . S
C3440 C3423 1.572 . S
C3440 H3434 0.949 1_455 S
C3440 C3444 1.370 1_455 S
C3441 C3422 1.429 . S
C3441 C3435 1.429 . S
C3441 C3442 1.523 . S
C3442 C3423 1.368 . S
C3442 C3436 1.370 1_455 S
C3442 C3441 1.523 . S
C3443 C3427 1.429 . S
C3443 C3439 1.429 . S
C3443 C3444 1.523 . S
C3444 C3428 1.368 . S
C3444 C3440 1.370 1_655 S
C3444 C3443 1.523 . S
H3445 C3420 0.950 . S
H3446 C3422 0.950 . S
H3447 C3423 0.949 . S
H3448 C3425 0.950 . S
H3449 C3427 0.950 . S
C3450 C3451 1.349 . S
C3450 C3452 1.327 . S
C3450 H3475 0.950 . S
C3451 C3450 1.349 . S
C3451 C3467 1.349 . S
C3452 C3450 1.327 . S
C3452 C3471 1.429 . S
C3452 H3476 0.950 . S
C3453 C3470 1.574 . S
C3453 C3472 1.368 . S
C3453 H3477 0.949 . S
H3454 C3458 0.949 . S
C3455 C3456 1.349 . S
C3455 C3457 1.327 . S
C3455 H3478 0.950 . S
C3456 C3455 1.349 . S
C3456 C3468 1.349 . S
C3457 C3455 1.327 . S
C3457 C3473 1.429 . S
C3457 H3479 0.950 . S
C3458 H3454 0.949 . S
C3458 C3466 1.574 . S
C3458 C3474 1.368 . S
H3459 C3467 0.950 . S
H3460 C3465 0.950 . S
H3461 C3466 0.949 . S
H3462 C3468 0.950 . S
H3463 C3469 0.950 . S
H3464 C3470 0.949 . S
C3465 H3460 0.950 . S
C3465 C3467 1.327 . S
C3465 C3471 1.429 . S
C3466 C3458 1.574 . S
C3466 H3461 0.949 . S
C3466 C3472 1.368 . S
C3467 C3451 1.349 . S
C3467 H3459 0.950 . S
C3467 C3465 1.327 . S
C3468 C3456 1.349 . S
C3468 H3462 0.950 . S
C3468 C3469 1.327 . S
C3469 H3463 0.950 . S
C3469 C3468 1.327 . S
C3469 C3473 1.429 . S
C3470 C3453 1.574 . S
C3470 H3464 0.949 . S
C3470 C3474 1.368 . S
C3471 C3452 1.429 . S
C3471 C3465 1.429 . S
C3471 C3472 1.523 . S
C3472 C3453 1.368 . S
C3472 C3466 1.368 . S
C3472 C3471 1.523 . S
C3473 C3457 1.429 . S
C3473 C3469 1.429 . S
C3473 C3474 1.523 . S
C3474 C3458 1.368 . S
C3474 C3470 1.368 . S
C3474 C3473 1.523 . S
H3475 C3450 0.950 . S
H3476 C3452 0.950 . S
H3477 C3453 0.949 . S
H3478 C3455 0.950 . S
H3479 C3457 0.950 . S
C3480 C3481 1.349 . S
C3480 C3482 1.327 . S
C3480 H3505 0.950 . S
C3481 C3480 1.349 . S
C3481 C3497 1.349 . S
C3482 C3480 1.327 . S
C3482 C3501 1.429 . S
C3482 H3506 0.950 . S
C3483 C3500 1.610 . S
C3483 C3502 1.368 . S
C3483 H3507 0.949 . S
H3484 C3488 0.949 . S
C3485 C3486 1.349 . S
C3485 C3487 1.327 . S
C3485 H3508 0.950 . S
C3486 C3485 1.349 . S
C3486 C3498 1.349 . S
C3487 C3485 1.327 . S
C3487 C3503 1.429 . S
C3487 H3509 0.950 . S
C3488 H3484 0.949 . S
C3488 C3496 1.610 . S
C3488 C3504 1.368 . S
H3489 C3497 0.950 . S
H3490 C3495 0.950 . S
H3491 C3496 0.952 . S
H3492 C3498 0.950 . S
H3493 C3499 0.950 . S
H3494 C3500 0.952 . S
C3495 H3490 0.950 . S
C3495 C3497 1.327 . S
C3495 C3501 1.429 . S
C3496 C3488 1.610 . S
C3496 H3491 0.952 . S
C3496 C3502 1.345 1_565 S
C3497 C3481 1.349 . S
C3497 H3489 0.950 . S
C3497 C3495 1.327 . S
C3498 C3486 1.349 . S
C3498 H3492 0.950 . S
C3498 C3499 1.327 . S
C3499 H3493 0.950 . S
C3499 C3498 1.327 . S
C3499 C3503 1.429 . S
C3500 C3483 1.610 . S
C3500 H3494 0.952 . S
C3500 C3504 1.345 1_545 S
C3501 C3482 1.429 . S
C3501 C3495 1.429 . S
C3501 C3502 1.523 . S
C3502 C3483 1.368 . S
C3502 C3496 1.345 1_545 S
C3502 C3501 1.523 . S
C3503 C3487 1.429 . S
C3503 C3499 1.429 . S
C3503 C3504 1.523 . S
C3504 C3488 1.368 . S
C3504 C3500 1.345 1_565 S
C3504 C3503 1.523 . S
H3505 C3480 0.950 . S
H3506 C3482 0.950 . S
H3507 C3483 0.949 . S
H3508 C3485 0.950 . S
H3509 C3487 0.950 . S
C3510 C3511 1.349 . S
C3510 C3512 1.327 . S
C3510 H3535 0.950 . S
C3511 C3510 1.349 . S
C3511 C3527 1.349 . S
C3512 C3510 1.327 . S
C3512 C3531 1.429 . S
C3512 H3536 0.950 . S
C3513 C3530 1.586 . S
C3513 C3532 1.351 1_545 S
C3513 H3537 0.951 . S
H3514 C3518 0.951 . S
C3515 C3516 1.349 . S
C3515 C3517 1.327 . S
C3515 H3538 0.950 . S
C3516 C3515 1.349 . S
C3516 C3528 1.349 . S
C3517 C3515 1.327 . S
C3517 C3533 1.429 . S
C3517 H3539 0.950 . S
C3518 H3514 0.951 . S
C3518 C3526 1.586 . S
C3518 C3534 1.351 1_565 S
H3519 C3527 0.950 . S
H3520 C3525 0.950 . S
H3521 C3526 0.949 . S
H3522 C3528 0.950 . S
H3523 C3529 0.950 . S
H3524 C3530 0.949 . S
C3525 H3520 0.950 . S
C3525 C3527 1.327 . S
C3525 C3531 1.429 . S
C3526 C3518 1.586 . S
C3526 H3521 0.949 . S
C3526 C3532 1.368 . S
C3527 C3511 1.349 . S
C3527 H3519 0.950 . S
C3527 C3525 1.327 . S
C3528 C3516 1.349 . S
C3528 H3522 0.950 . S
C3528 C3529 1.327 . S
C3529 H3523 0.950 . S
C3529 C3528 1.327 . S
C3529 C3533 1.429 . S
C3530 C3513 1.586 . S
C3530 H3524 0.949 . S
C3530 C3534 1.368 . S
C3531 C3512 1.429 . S
C3531 C3525 1.429 . S
C3531 C3532 1.523 . S
C3532 C3513 1.351 1_565 S
C3532 C3526 1.368 . S
C3532 C3531 1.523 . S
C3533 C3517 1.429 . S
C3533 C3529 1.429 . S
C3533 C3534 1.523 . S
C3534 C3518 1.351 1_545 S
C3534 C3530 1.368 . S
C3534 C3533 1.523 . S
H3535 C3510 0.950 . S
H3536 C3512 0.950 . S
H3537 C3513 0.951 . S
H3538 C3515 0.950 . S
H3539 C3517 0.950 . S
C3540 C3541 1.349 . S
C3540 C3542 1.327 . S
C3540 H3565 0.950 . S
C3541 C3540 1.349 . S
C3541 C3557 1.349 . S
C3542 C3540 1.327 . S
C3542 C3561 1.429 . S
C3542 H3566 0.950 . S
C3543 C3560 1.574 1_455 S
C3543 C3562 1.368 . S
C3543 H3567 0.949 . S
H3544 C3548 0.949 . S
C3545 C3546 1.349 . S
C3545 C3547 1.327 . S
C3545 H3568 0.950 . S
C3546 C3545 1.349 . S
C3546 C3558 1.349 . S
C3547 C3545 1.327 . S
C3547 C3563 1.429 . S
C3547 H3569 0.950 . S
C3548 H3544 0.949 . S
C3548 C3556 1.574 1_655 S
C3548 C3564 1.368 . S
H3549 C3557 0.950 . S
H3550 C3555 0.950 . S
H3551 C3556 0.949 . S
H3552 C3558 0.950 . S
H3553 C3559 0.950 . S
H3554 C3560 0.949 . S
C3555 H3550 0.950 . S
C3555 C3557 1.327 . S
C3555 C3561 1.429 . S
C3556 C3548 1.574 1_455 S
C3556 H3551 0.949 . S
C3556 C3562 1.368 . S
C3557 C3541 1.349 . S
C3557 H3549 0.950 . S
C3557 C3555 1.327 . S
C3558 C3546 1.349 . S
C3558 H3552 0.950 . S
C3558 C3559 1.327 . S
C3559 H3553 0.950 . S
C3559 C3558 1.327 . S
C3559 C3563 1.429 . S
C3560 C3543 1.574 1_655 S
C3560 H3554 0.949 . S
C3560 C3564 1.368 . S
C3561 C3542 1.429 . S
C3561 C3555 1.429 . S
C3561 C3562 1.523 . S
C3562 C3543 1.368 . S
C3562 C3556 1.368 . S
C3562 C3561 1.523 . S
C3563 C3547 1.429 . S
C3563 C3559 1.429 . S
C3563 C3564 1.523 . S
C3564 C3548 1.368 . S
C3564 C3560 1.368 . S
C3564 C3563 1.523 . S
H3565 C3540 0.950 . S
H3566 C3542 0.950 . S
H3567 C3543 0.949 . S
H3568 C3545 0.950 . S
H3569 C3547 0.950 . S
C3570 C3571 1.349 . S
C3570 C3572 1.327 . S
C3570 H3595 0.950 . S
C3571 C3570 1.349 . S
C3571 C3587 1.349 . S
C3572 C3570 1.327 . S
C3572 C3591 1.429 . S
C3572 H3596 0.950 . S
C3573 C3590 1.574 . S
C3573 C3592 1.368 . S
C3573 H3597 0.949 . S
H3574 C3578 0.949 . S
C3575 C3576 1.349 . S
C3575 C3577 1.327 . S
C3575 H3598 0.950 . S
C3576 C3575 1.349 . S
C3576 C3588 1.349 . S
C3577 C3575 1.327 . S
C3577 C3593 1.429 . S
C3577 H3599 0.950 . S
C3578 H3574 0.949 . S
C3578 C3586 1.574 . S
C3578 C3594 1.368 . S
H3579 C3587 0.950 . S
H3580 C3585 0.950 . S
H3581 C3586 0.949 . S
H3582 C3588 0.950 . S
H3583 C3589 0.950 . S
H3584 C3590 0.949 . S
C3585 H3580 0.950 . S
C3585 C3587 1.327 . S
C3585 C3591 1.429 . S
C3586 C3578 1.574 . S
C3586 H3581 0.949 . S
C3586 C3592 1.368 . S
C3587 C3571 1.349 . S
C3587 H3579 0.950 . S
C3587 C3585 1.327 . S
C3588 C3576 1.349 . S
C3588 H3582 0.950 . S
C3588 C3589 1.327 . S
C3589 H3583 0.950 . S
C3589 C3588 1.327 . S
C3589 C3593 1.429 . S
C3590 C3573 1.574 . S
C3590 H3584 0.949 . S
C3590 C3594 1.368 . S
C3591 C3572 1.429 . S
C3591 C3585 1.429 . S
C3591 C3592 1.523 . S
C3592 C3573 1.368 . S
C3592 C3586 1.368 . S
C3592 C3591 1.523 . S
C3593 C3577 1.429 . S
C3593 C3589 1.429 . S
C3593 C3594 1.523 . S
C3594 C3578 1.368 . S
C3594 C3590 1.368 . S
C3594 C3593 1.523 . S
H3595 C3570 0.950 . S
H3596 C3572 0.950 . S
H3597 C3573 0.949 . S
H3598 C3575 0.950 . S
H3599 C3577 0.950 . S
C3600 C3601 1.349 . S
C3600 C3602 1.327 . S
C3600 H3625 0.950 . S
C3601 C3600 1.349 . S
C3601 C3617 1.349 . S
C3602 C3600 1.327 . S
C3602 C3621 1.429 . S
C3602 H3626 0.950 . S
C3603 C3620 1.574 . S
C3603 C3622 1.368 . S
C3603 H3627 0.949 . S
H3604 C3608 0.949 . S
C3605 C3606 1.349 . S
C3605 C3607 1.327 . S
C3605 H3628 0.950 . S
C3606 C3605 1.349 . S
C3606 C3618 1.349 . S
C3607 C3605 1.327 . S
C3607 C3623 1.429 . S
C3607 H3629 0.950 . S
C3608 H3604 0.949 . S
C3608 C3616 1.574 . S
C3608 C3624 1.368 . S
H3609 C3617 0.950 . S
H3610 C3615 0.950 . S
H3611 C3616 0.949 . S
H3612 C3618 0.950 . S
H3613 C3619 0.950 . S
H3614 C3620 0.949 . S
C3615 H3610 0.950 . S
C3615 C3617 1.327 . S
C3615 C3621 1.429 . S
C3616 C3608 1.574 . S
C3616 H3611 0.949 . S
C3616 C3622 1.368 . S
C3617 C3601 1.349 . S
C3617 H3609 0.950 . S
C3617 C3615 1.327 . S
C3618 C3606 1.349 . S
C3618 H3612 0.950 . S
C3618 C3619 1.327 . S
C3619 H3613 0.950 . S
C3619 C3618 1.327 . S
C3619 C3623 1.429 . S
C3620 C3603 1.574 . S
C3620 H3614 0.949 . S
C3620 C3624 1.368 . S
C3621 C3602 1.429 . S
C3621 C3615 1.429 . S
C3621 C3622 1.523 . S
C3622 C3603 1.368 . S
C3622 C3616 1.368 . S
C3622 C3621 1.523 . S
C3623 C3607 1.429 . S
C3623 C3619 1.429 . S
C3623 C3624 1.523 . S
C3624 C3608 1.368 . S
C3624 C3620 1.368 . S
C3624 C3623 1.523 . S
H3625 C3600 0.950 . S
H3626 C3602 0.950 . S
H3627 C3603 0.949 . S
H3628 C3605 0.950 . S
H3629 C3607 0.950 . S
C3630 C3631 1.349 . S
C3630 C3632 1.327 . S
C3630 H3655 0.950 . S
C3631 C3630 1.349 . S
C3631 C3647 1.349 . S
C3632 C3630 1.327 . S
C3632 C3651 1.429 . S
C3632 H3656 0.950 . S
C3633 C3650 1.574 . S
C3633 C3652 1.368 1_565 S
C3633 H3657 0.949 . S
H3634 C3638 0.949 . S
C3635 C3636 1.349 . S
C3635 C3637 1.327 . S
C3635 H3658 0.950 . S
C3636 C3635 1.349 . S
C3636 C3648 1.349 . S
C3637 C3635 1.327 . S
C3637 C3653 1.429 . S
C3637 H3659 0.950 . S
C3638 H3634 0.949 . S
C3638 C3646 1.574 . S
C3638 C3654 1.368 1_545 S
H3639 C3647 0.950 . S
H3640 C3645 0.950 . S
H3641 C3646 0.949 . S
H3642 C3648 0.950 . S
H3643 C3649 0.950 . S
H3644 C3650 0.949 . S
C3645 H3640 0.950 . S
C3645 C3647 1.327 . S
C3645 C3651 1.429 . S
C3646 C3638 1.574 . S
C3646 H3641 0.949 . S
C3646 C3652 1.368 . S
C3647 C3631 1.349 . S
C3647 H3639 0.950 . S
C3647 C3645 1.327 . S
C3648 C3636 1.349 . S
C3648 H3642 0.950 . S
C3648 C3649 1.327 . S
C3649 H3643 0.950 . S
C3649 C3648 1.327 . S
C3649 C3653 1.429 . S
C3650 C3633 1.574 . S
C3650 H3644 0.949 . S
C3650 C3654 1.368 . S
C3651 C3632 1.429 . S
C3651 C3645 1.429 . S
C3651 C3652 1.523 . S
C3652 C3633 1.368 1_545 S
C3652 C3646 1.368 . S
C3652 C3651 1.523 . S
C3653 C3637 1.429 . S
C3653 C3649 1.429 . S
C3653 C3654 1.523 . S
C3654 C3638 1.368 1_565 S
C3654 C3650 1.368 . S
C3654 C3653 1.523 . S
H3655 C3630 0.950 . S
H3656 C3632 0.950 . S
H3657 C3633 0.949 . S
H3658 C3635 0.950 . S
H3659 C3637 0.950 . S
C3660 C3661 1.349 . S
C3660 C3662 1.327 . S
C3660 H3685 0.950 . S
C3661 C3660 1.349 . S
C3661 C3677 1.349 . S
C3662 C3660 1.327 . S
C3662 C3681 1.429 . S
C3662 H3686 0.950 . S
C3663 C3680 1.576 1_655 S
C3663 C3682 1.367 . S
C3663 H3687 0.939 . S
H3664 C3668 0.939 . S
C3665 C3666 1.349 . S
C3665 C3667 1.327 . S
C3665 H3688 0.950 . S
C3666 C3665 1.349 . S
C3666 C3678 1.349 . S
C3667 C3665 1.327 . S
C3667 C3683 1.429 . S
C3667 H3689 0.950 . S
C3668 H3664 0.939 . S
C3668 C3676 1.576 1_455 S
C3668 C3684 1.367 . S
H3669 C3677 0.950 . S
H3670 C3675 0.950 . S
H3671 C3676 0.949 . S
H3672 C3678 0.950 . S
H3673 C3679 0.950 . S
H3674 C3680 0.949 . S
C3675 H3670 0.950 . S
C3675 C3677 1.327 . S
C3675 C3681 1.429 . S
C3676 C3668 1.576 1_655 S
C3676 H3671 0.949 . S
C3676 C3682 1.368 . S
C3677 C3661 1.349 . S
C3677 H3669 0.950 . S
C3677 C3675 1.327 . S
C3678 C3666 1.349 . S
C3678 H3672 0.950 . S
C3678 C3679 1.327 . S
C3679 H3673 0.950 . S
C3679 C3678 1.327 . S
C3679 C3683 1.429 . S
C3680 C3663 1.576 1_455 S
C3680 H3674 0.949 . S
C3680 C3684 1.368 . S
C3681 C3662 1.429 . S
C3681 C3675 1.429 . S
C3681 C3682 1.523 . S
C3682 C3663 1.367 . S
C3682 C3676 1.368 . S
C3682 C3681 1.523 . S
C3683 C3667 1.429 . S
C3683 C3679 1.429 . S
C3683 C3684 1.523 . S
C3684 C3668 1.367 . S
C3684 C3680 1.368 . S
C3684 C3683 1.523 . S
H3685 C3660 0.950 . S
H3686 C3662 0.950 . S
H3687 C3663 0.939 . S
H3688 C3665 0.950 . S
H3689 C3667 0.950 . S
C3690 C3691 1.349 . S
C3690 C3692 1.327 . S
C3690 H3715 0.950 . S
C3691 C3690 1.349 . S
C3691 C3707 1.349 . S
C3692 C3690 1.327 . S
C3692 C3711 1.429 . S
C3692 H3716 0.950 . S
C3693 C3710 1.574 . S
C3693 C3712 1.368 . S
C3693 H3717 0.949 . S
H3694 C3698 0.949 . S
C3695 C3696 1.349 . S
C3695 C3697 1.327 . S
C3695 H3718 0.950 . S
C3696 C3695 1.349 . S
C3696 C3708 1.349 . S
C3697 C3695 1.327 . S
C3697 C3713 1.429 . S
C3697 H3719 0.950 . S
C3698 H3694 0.949 . S
C3698 C3706 1.574 . S
C3698 C3714 1.368 . S
H3699 C3707 0.950 . S
H3700 C3705 0.950 . S
H3701 C3706 0.949 . S
H3702 C3708 0.950 . S
H3703 C3709 0.950 . S
H3704 C3710 0.949 . S
C3705 H3700 0.950 . S
C3705 C3707 1.327 . S
C3705 C3711 1.429 . S
C3706 C3698 1.574 . S
C3706 H3701 0.949 . S
C3706 C3712 1.368 . S
C3707 C3691 1.349 . S
C3707 H3699 0.950 . S
C3707 C3705 1.327 . S
C3708 C3696 1.349 . S
C3708 H3702 0.950 . S
C3708 C3709 1.327 . S
C3709 H3703 0.950 . S
C3709 C3708 1.327 . S
C3709 C3713 1.429 . S
C3710 C3693 1.574 . S
C3710 H3704 0.949 . S
C3710 C3714 1.368 . S
C3711 C3692 1.429 . S
C3711 C3705 1.429 . S
C3711 C3712 1.523 . S
C3712 C3693 1.368 . S
C3712 C3706 1.368 . S
C3712 C3711 1.523 . S
C3713 C3697 1.429 . S
C3713 C3709 1.429 . S
C3713 C3714 1.523 . S
C3714 C3698 1.368 . S
C3714 C3710 1.368 . S
C3714 C3713 1.523 . S
H3715 C3690 0.950 . S
H3716 C3692 0.950 . S
H3717 C3693 0.949 . S
H3718 C3695 0.950 . S
H3719 C3697 0.950 . S
C3720 C3721 1.349 . S
C3720 C3722 1.327 . S
C3720 H3745 0.950 . S
C3721 C3720 1.349 . S
C3721 C3737 1.349 . S
C3722 C3720 1.327 . S
C3722 C3741 1.429 . S
C3722 H3746 0.950 . S
C3723 C3740 1.571 . S
C3723 C3742 1.368 . S
C3723 H3747 0.949 . S
H3724 C3728 0.949 . S
C3725 C3726 1.349 . S
C3725 C3727 1.327 . S
C3725 H3748 0.950 . S
C3726 C3725 1.349 . S
C3726 C3738 1.349 . S
C3727 C3725 1.327 . S
C3727 C3743 1.429 . S
C3727 H3749 0.950 . S
C3728 H3724 0.949 . S
C3728 C3736 1.571 . S
C3728 C3744 1.368 . S
H3729 C3737 0.950 . S
H3730 C3735 0.950 . S
H3731 C3736 0.949 1_565 S
H3732 C3738 0.950 . S
H3733 C3739 0.950 . S
H3734 C3740 0.949 1_545 S
C3735 H3730 0.950 . S
C3735 C3737 1.327 . S
C3735 C3741 1.429 . S
C3736 C3728 1.571 . S
C3736 H3731 0.949 1_545 S
C3736 C3742 1.369 1_545 S
C3737 C3721 1.349 . S
C3737 H3729 0.950 . S
C3737 C3735 1.327 . S
C3738 C3726 1.349 . S
C3738 H3732 0.950 . S
C3738 C3739 1.327 . S
C3739 H3733 0.950 . S
C3739 C3738 1.327 . S
C3739 C3743 1.429 . S
C3740 C3723 1.571 . S
C3740 H3734 0.949 1_565 S
C3740 C3744 1.369 1_565 S
C3741 C3722 1.429 . S
C3741 C3735 1.429 . S
C3741 C3742 1.523 . S
C3742 C3723 1.368 . S
C3742 C3736 1.369 1_565 S
C3742 C3741 1.523 . S
C3743 C3727 1.429 . S
C3743 C3739 1.429 . S
C3743 C3744 1.523 . S
C3744 C3728 1.368 . S
C3744 C3740 1.369 1_545 S
C3744 C3743 1.523 . S
H3745 C3720 0.950 . S
H3746 C3722 0.950 . S
H3747 C3723 0.949 . S
H3748 C3725 0.950 . S
H3749 C3727 0.950 . S
C3750 C3751 1.349 . S
C3750 C3752 1.327 . S
C3750 H3775 0.950 . S
C3751 C3750 1.349 . S
C3751 C3767 1.349 . S
C3752 C3750 1.327 . S
C3752 C3771 1.429 . S
C3752 H3776 0.950 . S
C3753 C3770 1.561 1_655 S
C3753 C3772 1.386 . S
C3753 H3777 0.962 . S
H3754 C3758 0.962 . S
C3755 C3756 1.349 . S
C3755 C3757 1.327 . S
C3755 H3778 0.950 . S
C3756 C3755 1.349 . S
C3756 C3768 1.349 . S
C3757 C3755 1.327 . S
C3757 C3773 1.429 . S
C3757 H3779 0.950 . S
C3758 H3754 0.962 . S
C3758 C3766 1.561 1_455 S
C3758 C3774 1.386 . S
H3759 C3767 0.950 . S
H3760 C3765 0.950 . S
H3761 C3766 0.949 . S
H3762 C3768 0.950 . S
H3763 C3769 0.950 . S
H3764 C3770 0.949 . S
C3765 H3760 0.950 . S
C3765 C3767 1.327 . S
C3765 C3771 1.429 . S
C3766 C3758 1.561 1_655 S
C3766 H3761 0.949 . S
C3766 C3772 1.368 . S
C3767 C3751 1.349 . S
C3767 H3759 0.950 . S
C3767 C3765 1.327 . S
C3768 C3756 1.349 . S
C3768 H3762 0.950 . S
C3768 C3769 1.327 . S
C3769 H3763 0.950 . S
C3769 C3768 1.327 . S
C3769 C3773 1.429 . S
C3770 C3753 1.561 1_455 S
C3770 H3764 0.949 . S
C3770 C3774 1.368 . S
C3771 C3752 1.429 . S
C3771 C3765 1.429 . S
C3771 C3772 1.523 . S
C3772 C3753 1.386 . S
C3772 C3766 1.368 . S
C3772 C3771 1.523 . S
C3773 C3757 1.429 . S
C3773 C3769 1.429 . S
C3773 C3774 1.523 . S
C3774 C3758 1.386 . S
C3774 C3770 1.368 . S
C3774 C3773 1.523 . S
H3775 C3750 0.950 . S
H3776 C3752 0.950 . S
H3777 C3753 0.962 . S
H3778 C3755 0.950 . S
H3779 C3757 0.950 . S
C3780 C3781 1.349 . S
C3780 C3782 1.327 . S
C3780 H3805 0.950 . S
C3781 C3780 1.349 . S
C3781 C3797 1.349 . S
C3782 C3780 1.327 . S
C3782 C3801 1.429 . S
C3782 H3806 0.950 . S
C3783 C3800 1.574 . S
C3783 C3802 1.368 . S
C3783 H3807 0.949 . S
H3784 C3788 0.949 . S
C3785 C3786 1.349 . S
C3785 C3787 1.327 . S
C3785 H3808 0.950 . S
C3786 C3785 1.349 . S
C3786 C3798 1.349 . S
C3787 C3785 1.327 . S
C3787 C3803 1.429 . S
C3787 H3809 0.950 . S
C3788 H3784 0.949 . S
C3788 C3796 1.574 . S
C3788 C3804 1.368 . S
H3789 C3797 0.950 . S
H3790 C3795 0.950 . S
H3791 C3796 0.949 . S
H3792 C3798 0.950 . S
H3793 C3799 0.950 . S
H3794 C3800 0.949 . S
C3795 H3790 0.950 . S
C3795 C3797 1.327 . S
C3795 C3801 1.429 . S
C3796 C3788 1.574 . S
C3796 H3791 0.949 . S
C3796 C3802 1.368 . S
C3797 C3781 1.349 . S
C3797 H3789 0.950 . S
C3797 C3795 1.327 . S
C3798 C3786 1.349 . S
C3798 H3792 0.950 . S
C3798 C3799 1.327 . S
C3799 H3793 0.950 . S
C3799 C3798 1.327 . S
C3799 C3803 1.429 . S
C3800 C3783 1.574 . S
C3800 H3794 0.949 . S
C3800 C3804 1.368 . S
C3801 C3782 1.429 . S
C3801 C3795 1.429 . S
C3801 C3802 1.523 . S
C3802 C3783 1.368 . S
C3802 C3796 1.368 . S
C3802 C3801 1.523 . S
C3803 C3787 1.429 . S
C3803 C3799 1.429 . S
C3803 C3804 1.523 . S
C3804 C3788 1.368 . S
C3804 C3800 1.368 . S
C3804 C3803 1.523 . S
H3805 C3780 0.950 . S
H3806 C3782 0.950 . S
H3807 C3783 0.949 . S
H3808 C3785 0.950 . S
H3809 C3787 0.950 . S
C3810 C3811 1.349 . S
C3810 C3812 1.327 . S
C3810 H3835 0.950 . S
C3811 C3810 1.349 . S
C3811 C3827 1.349 . S
C3812 C3810 1.327 . S
C3812 C3831 1.429 . S
C3812 H3836 0.950 . S
C3813 C3830 1.574 . S
C3813 C3832 1.368 . S
C3813 H3837 0.949 . S
H3814 C3818 0.949 . S
C3815 C3816 1.349 . S
C3815 C3817 1.327 . S
C3815 H3838 0.950 . S
C3816 C3815 1.349 . S
C3816 C3828 1.349 . S
C3817 C3815 1.327 . S
C3817 C3833 1.429 . S
C3817 H3839 0.950 . S
C3818 H3814 0.949 . S
C3818 C3826 1.574 . S
C3818 C3834 1.368 . S
H3819 C3827 0.950 . S
H3820 C3825 0.950 . S
H3821 C3826 0.949 . S
H3822 C3828 0.950 . S
H3823 C3829 0.950 . S
H3824 C3830 0.949 . S
C3825 H3820 0.950 . S
C3825 C3827 1.327 . S
C3825 C3831 1.429 . S
C3826 C3818 1.574 . S
C3826 H3821 0.949 . S
C3826 C3832 1.368 . S
C3827 C3811 1.349 . S
C3827 H3819 0.950 . S
C3827 C3825 1.327 . S
C3828 C3816 1.349 . S
C3828 H3822 0.950 . S
C3828 C3829 1.327 . S
C3829 H3823 0.950 . S
C3829 C3828 1.327 . S
C3829 C3833 1.429 . S
C3830 C3813 1.574 . S
C3830 H3824 0.949 . S
C3830 C3834 1.368 . S
C3831 C3812 1.429 . S
C3831 C3825 1.429 . S
C3831 C3832 1.523 . S
C3832 C3813 1.368 . S
C3832 C3826 1.368 . S
C3832 C3831 1.523 . S
C3833 C3817 1.429 . S
C3833 C3829 1.429 . S
C3833 C3834 1.523 . S
C3834 C3818 1.368 . S
C3834 C3830 1.368 . S
C3834 C3833 1.523 . S
H3835 C3810 0.950 . S
H3836 C3812 0.950 . S
H3837 C3813 0.949 . S
H3838 C3815 0.950 . S
H3839 C3817 0.950 . S
C3840 C3841 1.349 . S
C3840 C3842 1.327 . S
C3840 H3865 0.950 . S
C3841 C3840 1.349 . S
C3841 C3857 1.349 . S
C3842 C3840 1.327 . S
C3842 C3861 1.429 . S
C3842 H3866 0.950 . S
C3843 C3860 1.574 . S
C3843 C3862 1.368 . S
C3843 H3867 0.949 . S
H3844 C3848 0.949 . S
C3845 C3846 1.349 . S
C3845 C3847 1.327 . S
C3845 H3868 0.950 . S
C3846 C3845 1.349 . S
C3846 C3858 1.349 . S
C3847 C3845 1.327 . S
C3847 C3863 1.429 . S
C3847 H3869 0.950 . S
C3848 H3844 0.949 . S
C3848 C3856 1.574 . S
C3848 C3864 1.368 . S
H3849 C3857 0.950 . S
H3850 C3855 0.950 . S
H3851 C3856 0.949 . S
H3852 C3858 0.950 . S
H3853 C3859 0.950 . S
H3854 C3860 0.949 . S
C3855 H3850 0.950 . S
C3855 C3857 1.327 . S
C3855 C3861 1.429 . S
C3856 C3848 1.574 . S
C3856 H3851 0.949 . S
C3856 C3862 1.368 . S
C3857 C3841 1.349 . S
C3857 H3849 0.950 . S
C3857 C3855 1.327 . S
C3858 C3846 1.349 . S
C3858 H3852 0.950 . S
C3858 C3859 1.327 . S
C3859 H3853 0.950 . S
C3859 C3858 1.327 . S
C3859 C3863 1.429 . S
C3860 C3843 1.574 . S
C3860 H3854 0.949 . S
C3860 C3864 1.368 . S
C3861 C3842 1.429 . S
C3861 C3855 1.429 . S
C3861 C3862 1.523 . S
C3862 C3843 1.368 . S
C3862 C3856 1.368 . S
C3862 C3861 1.523 . S
C3863 C3847 1.429 . S
C3863 C3859 1.429 . S
C3863 C3864 1.523 . S
C3864 C3848 1.368 . S
C3864 C3860 1.368 . S
C3864 C3863 1.523 . S
H3865 C3840 0.950 . S
H3866 C3842 0.950 . S
H3867 C3843 0.949 . S
H3868 C3845 0.950 . S
H3869 C3847 0.950 . S
C3870 C3871 1.349 . S
C3870 C3872 1.327 . S
C3870 H3895 0.950 . S
C3871 C3870 1.349 . S
C3871 C3887 1.349 . S
C3872 C3870 1.327 . S
C3872 C3891 1.429 . S
C3872 H3896 0.950 . S
C3873 C3890 1.574 . S
C3873 C3892 1.368 . S
C3873 H3897 0.949 . S
H3874 C3878 0.949 . S
C3875 C3876 1.349 1_554 S
C3875 C3877 1.327 . S
C3875 H3898 0.950 1_554 S
C3876 C3875 1.349 1_556 S
C3876 C3888 1.349 1_556 S
C3877 C3875 1.327 . S
C3877 C3893 1.429 . S
C3877 H3899 0.950 . S
C3878 H3874 0.949 . S
C3878 C3886 1.574 . S
C3878 C3894 1.368 . S
H3879 C3887 0.950 . S
H3880 C3885 0.950 . S
H3881 C3886 0.949 . S
H3882 C3888 0.950 . S
H3883 C3889 0.950 . S
H3884 C3890 0.949 . S
C3885 H3880 0.950 . S
C3885 C3887 1.327 . S
C3885 C3891 1.429 . S
C3886 C3878 1.574 . S
C3886 H3881 0.949 . S
C3886 C3892 1.368 . S
C3887 C3871 1.349 . S
C3887 H3879 0.950 . S
C3887 C3885 1.327 . S
C3888 C3876 1.349 1_554 S
C3888 H3882 0.950 . S
C3888 C3889 1.327 . S
C3889 H3883 0.950 . S
C3889 C3888 1.327 . S
C3889 C3893 1.429 . S
C3890 C3873 1.574 . S
C3890 H3884 0.949 . S
C3890 C3894 1.368 . S
C3891 C3872 1.429 . S
C3891 C3885 1.429 . S
C3891 C3892 1.523 . S
C3892 C3873 1.368 . S
C3892 C3886 1.368 . S
C3892 C3891 1.523 . S
C3893 C3877 1.429 . S
C3893 C3889 1.429 . S
C3893 C3894 1.523 . S
C3894 C3878 1.368 . S
C3894 C3890 1.368 . S
C3894 C3893 1.523 . S
H3895 C3870 0.950 . S
H3896 C3872 0.950 . S
H3897 C3873 0.949 . S
H3898 C3875 0.950 1_556 S
H3899 C3877 0.950 . S
C3900 C3901 1.349 . S
C3900 C3902 1.327 . S
C3900 H3925 0.950 . S
C3901 C3900 1.349 . S
C3901 C3917 1.349 . S
C3902 C3900 1.327 . S
C3902 C3921 1.429 . S
C3902 H3926 0.950 . S
C3903 C3920 1.574 . S
C3903 C3922 1.368 . S
C3903 H3927 0.949 . S
H3904 C3908 0.949 . S
C3905 C3906 1.349 1_554 S
C3905 C3907 1.327 . S
C3905 H3928 0.950 . S
C3906 C3905 1.349 1_556 S
C3906 C3918 1.349 . S
C3907 C3905 1.327 . S
C3907 C3923 1.429 . S
C3907 H3929 0.950 . S
C3908 H3904 0.949 . S
C3908 C3916 1.574 . S
C3908 C3924 1.368 . S
H3909 C3917 0.950 . S
H3910 C3915 0.950 . S
H3911 C3916 0.949 . S
H3912 C3918 0.950 . S
H3913 C3919 0.950 . S
H3914 C3920 0.949 . S
C3915 H3910 0.950 . S
C3915 C3917 1.327 . S
C3915 C3921 1.429 . S
C3916 C3908 1.574 . S
C3916 H3911 0.949 . S
C3916 C3922 1.368 . S
C3917 C3901 1.349 . S
C3917 H3909 0.950 . S
C3917 C3915 1.327 . S
C3918 C3906 1.349 . S
C3918 H3912 0.950 . S
C3918 C3919 1.327 1_556 S
C3919 H3913 0.950 . S
C3919 C3918 1.327 1_554 S
C3919 C3923 1.429 . S
C3920 C3903 1.574 . S
C3920 H3914 0.949 . S
C3920 C3924 1.368 . S
C3921 C3902 1.429 . S
C3921 C3915 1.429 . S
C3921 C3922 1.523 . S
C3922 C3903 1.368 . S
C3922 C3916 1.368 . S
C3922 C3921 1.523 . S
C3923 C3907 1.429 . S
C3923 C3919 1.429 . S
C3923 C3924 1.523 . S
C3924 C3908 1.368 . S
C3924 C3920 1.368 . S
C3924 C3923 1.523 . S
H3925 C3900 0.950 . S
H3926 C3902 0.950 . S
H3927 C3903 0.949 . S
H3928 C3905 0.950 . S
H3929 C3907 0.950 . S
C3930 C3931 1.349 . S
C3930 C3932 1.327 . S
C3930 H3955 0.950 . S
C3931 C3930 1.349 . S
C3931 C3947 1.349 . S
C3932 C3930 1.327 . S
C3932 C3951 1.429 . S
C3932 H3956 0.950 . S
C3933 C3950 1.574 . S
C3933 C3952 1.368 . S
C3933 H3957 0.949 . S
H3934 C3938 0.949 . S
C3935 C3936 1.349 1_554 S
C3935 C3937 1.327 . S
C3935 H3958 0.950 . S
C3936 C3935 1.349 1_556 S
C3936 C3948 1.349 . S
C3937 C3935 1.327 . S
C3937 C3953 1.429 . S
C3937 H3959 0.950 . S
C3938 H3934 0.949 . S
C3938 C3946 1.574 . S
C3938 C3954 1.368 . S
H3939 C3947 0.950 . S
H3940 C3945 0.950 . S
H3941 C3946 0.949 . S
H3942 C3948 0.950 . S
H3943 C3949 0.950 . S
H3944 C3950 0.949 . S
C3945 H3940 0.950 . S
C3945 C3947 1.327 . S
C3945 C3951 1.429 . S
C3946 C3938 1.574 . S
C3946 H3941 0.949 . S
C3946 C3952 1.368 . S
C3947 C3931 1.349 . S
C3947 H3939 0.950 . S
C3947 C3945 1.327 . S
C3948 C3936 1.349 . S
C3948 H3942 0.950 . S
C3948 C3949 1.327 1_556 S
C3949 H3943 0.950 . S
C3949 C3948 1.327 1_554 S
C3949 C3953 1.429 . S
C3950 C3933 1.574 . S
C3950 H3944 0.949 . S
C3950 C3954 1.368 . S
C3951 C3932 1.429 . S
C3951 C3945 1.429 . S
C3951 C3952 1.523 . S
C3952 C3933 1.368 . S
C3952 C3946 1.368 . S
C3952 C3951 1.523 . S
C3953 C3937 1.429 . S
C3953 C3949 1.429 . S
C3953 C3954 1.523 . S
C3954 C3938 1.368 . S
C3954 C3950 1.368 . S
C3954 C3953 1.523 . S
H3955 C3930 0.950 . S
H3956 C3932 0.950 . S
H3957 C3933 0.949 . S
H3958 C3935 0.950 . S
H3959 C3937 0.950 . S
C3960 C3961 1.349 . S
C3960 C3962 1.327 . S
C3960 H3985 0.950 . S
C3961 C3960 1.349 . S
C3961 C3977 1.349 . S
C3962 C3960 1.327 . S
C3962 C3981 1.429 . S
C3962 H3986 0.950 . S
C3963 C3980 1.574 . S
C3963 C3982 1.368 . S
C3963 H3987 0.949 . S
H3964 C3968 0.949 . S
C3965 C3966 1.349 1_556 S
C3965 C3967 1.327 . S
C3965 H3988 0.950 . S
C3966 C3965 1.349 1_554 S
C3966 C3978 1.349 . S
C3967 C3965 1.327 . S
C3967 C3983 1.429 . S
C3967 H3989 0.950 . S
C3968 H3964 0.949 . S
C3968 C3976 1.574 . S
C3968 C3984 1.368 . S
H3969 C3977 0.950 . S
H3970 C3975 0.950 . S
H3971 C3976 0.949 . S
H3972 C3978 0.950 . S
H3973 C3979 0.950 . S
H3974 C3980 0.949 . S
C3975 H3970 0.950 . S
C3975 C3977 1.327 . S
C3975 C3981 1.429 . S
C3976 C3968 1.574 . S
C3976 H3971 0.949 . S
C3976 C3982 1.368 . S
C3977 C3961 1.349 . S
C3977 H3969 0.950 . S
C3977 C3975 1.327 . S
C3978 C3966 1.349 . S
C3978 H3972 0.950 . S
C3978 C3979 1.327 1_554 S
C3979 H3973 0.950 . S
C3979 C3978 1.327 1_556 S
C3979 C3983 1.429 . S
C3980 C3963 1.574 . S
C3980 H3974 0.949 . S
C3980 C3984 1.368 . S
C3981 C3962 1.429 . S
C3981 C3975 1.429 . S
C3981 C3982 1.523 . S
C3982 C3963 1.368 . S
C3982 C3976 1.368 . S
C3982 C3981 1.523 . S
C3983 C3967 1.429 . S
C3983 C3979 1.429 . S
C3983 C3984 1.523 . S
C3984 C3968 1.368 . S
C3984 C3980 1.368 . S
C3984 C3983 1.523 . S
H3985 C3960 0.950 . S
H3986 C3962 0.950 . S
H3987 C3963 0.949 . S
H3988 C3965 0.950 . S
H3989 C3967 0.950 . S
C3990 C3991 1.349 . S
C3990 C3992 1.327 1_554 S
C3990 H4015 0.950 . S
C3991 C3990 1.349 . S
C3991 C4007 1.349 1_554 S
C3992 C3990 1.327 1_556 S
C3992 C4011 1.429 . S
C3992 H4016 0.950 . S
C3993 C4010 1.574 . S
C3993 C4012 1.368 . S
C3993 H4017 0.949 . S
H3994 C3998 0.949 . S
C3995 C3996 1.349 . S
C3995 C3997 1.327 . S
C3995 H4018 0.950 . S
C3996 C3995 1.349 . S
C3996 C4008 1.349 . S
C3997 C3995 1.327 . S
C3997 C4013 1.429 . S
C3997 H4019 0.950 . S
C3998 H3994 0.949 . S
C3998 C4006 1.574 . S
C3998 C4014 1.368 . S
H3999 C4007 0.950 . S
H4000 C4005 0.950 . S
H4001 C4006 0.949 . S
H4002 C4008 0.950 . S
H4003 C4009 0.950 . S
H4004 C4010 0.949 . S
C4005 H4000 0.950 . S
C4005 C4007 1.327 . S
C4005 C4011 1.429 . S
C4006 C3998 1.574 . S
C4006 H4001 0.949 . S
C4006 C4012 1.368 . S
C4007 C3991 1.349 1_556 S
C4007 H3999 0.950 . S
C4007 C4005 1.327 . S
C4008 C3996 1.349 . S
C4008 H4002 0.950 . S
C4008 C4009 1.327 . S
C4009 H4003 0.950 . S
C4009 C4008 1.327 . S
C4009 C4013 1.429 . S
C4010 C3993 1.574 . S
C4010 H4004 0.949 . S
C4010 C4014 1.368 . S
C4011 C3992 1.429 . S
C4011 C4005 1.429 . S
C4011 C4012 1.523 . S
C4012 C3993 1.368 . S
C4012 C4006 1.368 . S
C4012 C4011 1.523 . S
C4013 C3997 1.429 . S
C4013 C4009 1.429 . S
C4013 C4014 1.523 . S
C4014 C3998 1.368 . S
C4014 C4010 1.368 . S
C4014 C4013 1.523 . S
H4015 C3990 0.950 . S
H4016 C3992 0.950 . S
H4017 C3993 0.949 . S
H4018 C3995 0.950 . S
H4019 C3997 0.950 . S
C4020 C4021 1.349 1_556 S
C4020 C4022 1.327 . S
C4020 H4045 0.950 . S
C4021 C4020 1.349 1_554 S
C4021 C4037 1.349 . S
C4022 C4020 1.327 . S
C4022 C4041 1.429 . S
C4022 H4046 0.950 . S
C4023 C4040 1.574 . S
C4023 C4042 1.368 . S
C4023 H4047 0.949 . S
H4024 C4028 0.949 . S
C4025 C4026 1.349 . S
C4025 C4027 1.327 . S
C4025 H4048 0.950 . S
C4026 C4025 1.349 . S
C4026 C4038 1.349 . S
C4027 C4025 1.327 . S
C4027 C4043 1.429 . S
C4027 H4049 0.950 . S
C4028 H4024 0.949 . S
C4028 C4036 1.574 . S
C4028 C4044 1.368 . S
H4029 C4037 0.950 . S
H4030 C4035 0.950 . S
H4031 C4036 0.949 . S
H4032 C4038 0.950 . S
H4033 C4039 0.950 . S
H4034 C4040 0.949 . S
C4035 H4030 0.950 . S
C4035 C4037 1.327 1_556 S
C4035 C4041 1.429 . S
C4036 C4028 1.574 . S
C4036 H4031 0.949 . S
C4036 C4042 1.368 . S
C4037 C4021 1.349 . S
C4037 H4029 0.950 . S
C4037 C4035 1.327 1_554 S
C4038 C4026 1.349 . S
C4038 H4032 0.950 . S
C4038 C4039 1.327 . S
C4039 H4033 0.950 . S
C4039 C4038 1.327 . S
C4039 C4043 1.429 . S
C4040 C4023 1.574 . S
C4040 H4034 0.949 . S
C4040 C4044 1.368 . S
C4041 C4022 1.429 . S
C4041 C4035 1.429 . S
C4041 C4042 1.523 . S
C4042 C4023 1.368 . S
C4042 C4036 1.368 . S
C4042 C4041 1.523 . S
C4043 C4027 1.429 . S
C4043 C4039 1.429 . S
C4043 C4044 1.523 . S
C4044 C4028 1.368 . S
C4044 C4040 1.368 . S
C4044 C4043 1.523 . S
H4045 C4020 0.950 . S
H4046 C4022 0.950 . S
H4047 C4023 0.949 . S
H4048 C4025 0.950 . S
H4049 C4027 0.950 . S
C4050 C4051 1.349 . S
C4050 C4052 1.327 . S
C4050 H4075 0.950 . S
C4051 C4050 1.349 . S
C4051 C4067 1.349 . S
C4052 C4050 1.327 . S
C4052 C4071 1.429 . S
C4052 H4076 0.950 . S
C4053 C4070 1.574 . S
C4053 C4072 1.368 . S
C4053 H4077 0.949 . S
H4054 C4058 0.949 . S
C4055 C4056 1.349 . S
C4055 C4057 1.327 . S
C4055 H4078 0.950 . S
C4056 C4055 1.349 . S
C4056 C4068 1.349 . S
C4057 C4055 1.327 . S
C4057 C4073 1.429 . S
C4057 H4079 0.950 . S
C4058 H4054 0.949 . S
C4058 C4066 1.574 . S
C4058 C4074 1.368 . S
H4059 C4067 0.950 . S
H4060 C4065 0.950 . S
H4061 C4066 0.949 . S
H4062 C4068 0.950 . S
H4063 C4069 0.950 . S
H4064 C4070 0.949 . S
C4065 H4060 0.950 . S
C4065 C4067 1.327 . S
C4065 C4071 1.429 . S
C4066 C4058 1.574 . S
C4066 H4061 0.949 . S
C4066 C4072 1.368 . S
C4067 C4051 1.349 . S
C4067 H4059 0.950 . S
C4067 C4065 1.327 . S
C4068 C4056 1.349 . S
C4068 H4062 0.950 . S
C4068 C4069 1.327 . S
C4069 H4063 0.950 . S
C4069 C4068 1.327 . S
C4069 C4073 1.429 . S
C4070 C4053 1.574 . S
C4070 H4064 0.949 . S
C4070 C4074 1.368 . S
C4071 C4052 1.429 . S
C4071 C4065 1.429 . S
C4071 C4072 1.523 . S
C4072 C4053 1.368 . S
C4072 C4066 1.368 . S
C4072 C4071 1.523 . S
C4073 C4057 1.429 . S
C4073 C4069 1.429 . S
C4073 C4074 1.523 . S
C4074 C4058 1.368 . S
C4074 C4070 1.368 . S
C4074 C4073 1.523 . S
H4075 C4050 0.950 . S
H4076 C4052 0.950 . S
H4077 C4053 0.949 . S
H4078 C4055 0.950 . S
H4079 C4057 0.950 . S
C4080 C4081 1.349 . S
C4080 C4082 1.327 . S
C4080 H4105 0.950 . S
C4081 C4080 1.349 . S
C4081 C4097 1.349 . S
C4082 C4080 1.327 . S
C4082 C4101 1.429 . S
C4082 H4106 0.950 . S
C4083 C4100 1.574 . S
C4083 C4102 1.368 . S
C4083 H4107 0.949 . S
H4084 C4088 0.949 . S
C4085 C4086 1.349 . S
C4085 C4087 1.327 . S
C4085 H4108 0.950 . S
C4086 C4085 1.349 . S
C4086 C4098 1.349 . S
C4087 C4085 1.327 . S
C4087 C4103 1.429 . S
C4087 H4109 0.950 . S
C4088 H4084 0.949 . S
C4088 C4096 1.574 . S
C4088 C4104 1.368 . S
H4089 C4097 0.950 . S
H4090 C4095 0.950 . S
H4091 C4096 0.949 . S
H4092 C4098 0.950 . S
H4093 C4099 0.950 . S
H4094 C4100 0.949 . S
C4095 H4090 0.950 . S
C4095 C4097 1.327 . S
C4095 C4101 1.429 . S
C4096 C4088 1.574 . S
C4096 H4091 0.949 . S
C4096 C4102 1.368 . S
C4097 C4081 1.349 . S
C4097 H4089 0.950 . S
C4097 C4095 1.327 . S
C4098 C4086 1.349 . S
C4098 H4092 0.950 . S
C4098 C4099 1.327 . S
C4099 H4093 0.950 . S
C4099 C4098 1.327 . S
C4099 C4103 1.429 . S
C4100 C4083 1.574 . S
C4100 H4094 0.949 . S
C4100 C4104 1.368 . S
C4101 C4082 1.429 . S
C4101 C4095 1.429 . S
C4101 C4102 1.523 . S
C4102 C4083 1.368 . S
C4102 C4096 1.368 . S
C4102 C4101 1.523 . S
C4103 C4087 1.429 . S
C4103 C4099 1.429 . S
C4103 C4104 1.523 . S
C4104 C4088 1.368 . S
C4104 C4100 1.368 . S
C4104 C4103 1.523 . S
H4105 C4080 0.950 . S
H4106 C4082 0.950 . S
H4107 C4083 0.949 . S
H4108 C4085 0.950 . S
H4109 C4087 0.950 . S
C4110 C4111 1.349 . S
C4110 C4112 1.327 . S
C4110 H4135 0.950 . S
C4111 C4110 1.349 . S
C4111 C4127 1.349 . S
C4112 C4110 1.327 . S
C4112 C4131 1.429 . S
C4112 H4136 0.950 . S
C4113 C4130 1.574 . S
C4113 C4132 1.368 . S
C4113 H4137 0.949 . S
H4114 C4118 0.949 . S
C4115 C4116 1.349 . S
C4115 C4117 1.327 . S
C4115 H4138 0.950 . S
C4116 C4115 1.349 . S
C4116 C4128 1.349 . S
C4117 C4115 1.327 . S
C4117 C4133 1.429 . S
C4117 H4139 0.950 . S
C4118 H4114 0.949 . S
C4118 C4126 1.574 . S
C4118 C4134 1.368 . S
H4119 C4127 0.950 . S
H4120 C4125 0.950 . S
H4121 C4126 0.949 . S
H4122 C4128 0.950 . S
H4123 C4129 0.950 . S
H4124 C4130 0.949 . S
C4125 H4120 0.950 . S
C4125 C4127 1.327 . S
C4125 C4131 1.429 . S
C4126 C4118 1.574 . S
C4126 H4121 0.949 . S
C4126 C4132 1.368 . S
C4127 C4111 1.349 . S
C4127 H4119 0.950 . S
C4127 C4125 1.327 . S
C4128 C4116 1.349 . S
C4128 H4122 0.950 . S
C4128 C4129 1.327 . S
C4129 H4123 0.950 . S
C4129 C4128 1.327 . S
C4129 C4133 1.429 . S
C4130 C4113 1.574 . S
C4130 H4124 0.949 . S
C4130 C4134 1.368 . S
C4131 C4112 1.429 . S
C4131 C4125 1.429 . S
C4131 C4132 1.523 . S
C4132 C4113 1.368 . S
C4132 C4126 1.368 . S
C4132 C4131 1.523 . S
C4133 C4117 1.429 . S
C4133 C4129 1.429 . S
C4133 C4134 1.523 . S
C4134 C4118 1.368 . S
C4134 C4130 1.368 . S
C4134 C4133 1.523 . S
H4135 C4110 0.950 . S
H4136 C4112 0.950 . S
H4137 C4113 0.949 . S
H4138 C4115 0.950 . S
H4139 C4117 0.950 . S
C4140 C4141 1.349 . S
C4140 C4142 1.327 . S
C4140 H4165 0.950 . S
C4141 C4140 1.349 . S
C4141 C4157 1.349 . S
C4142 C4140 1.327 . S
C4142 C4161 1.429 . S
C4142 H4166 0.950 . S
C4143 C4160 1.574 . S
C4143 C4162 1.368 . S
C4143 H4167 0.949 . S
H4144 C4148 0.949 . S
C4145 C4146 1.349 . S
C4145 C4147 1.327 . S
C4145 H4168 0.950 . S
C4146 C4145 1.349 . S
C4146 C4158 1.349 . S
C4147 C4145 1.327 . S
C4147 C4163 1.429 . S
C4147 H4169 0.950 . S
C4148 H4144 0.949 . S
C4148 C4156 1.574 . S
C4148 C4164 1.368 . S
H4149 C4157 0.950 . S
H4150 C4155 0.950 . S
H4151 C4156 0.949 . S
H4152 C4158 0.950 . S
H4153 C4159 0.950 . S
H4154 C4160 0.949 . S
C4155 H4150 0.950 . S
C4155 C4157 1.327 . S
C4155 C4161 1.429 . S
C4156 C4148 1.574 . S
C4156 H4151 0.949 . S
C4156 C4162 1.368 . S
C4157 C4141 1.349 . S
C4157 H4149 0.950 . S
C4157 C4155 1.327 . S
C4158 C4146 1.349 . S
C4158 H4152 0.950 . S
C4158 C4159 1.327 . S
C4159 H4153 0.950 . S
C4159 C4158 1.327 . S
C4159 C4163 1.429 . S
C4160 C4143 1.574 . S
C4160 H4154 0.949 . S
C4160 C4164 1.368 . S
C4161 C4142 1.429 . S
C4161 C4155 1.429 . S
C4161 C4162 1.523 . S
C4162 C4143 1.368 . S
C4162 C4156 1.368 . S
C4162 C4161 1.523 . S
C4163 C4147 1.429 . S
C4163 C4159 1.429 . S
C4163 C4164 1.523 . S
C4164 C4148 1.368 . S
C4164 C4160 1.368 . S
C4164 C4163 1.523 . S
H4165 C4140 0.950 . S
H4166 C4142 0.950 . S
H4167 C4143 0.949 . S
H4168 C4145 0.950 . S
H4169 C4147 0.950 . S
C4170 C4171 1.349 . S
C4170 C4172 1.327 . S
C4170 H4195 0.950 . S
C4171 C4170 1.349 . S
C4171 C4187 1.349 . S
C4172 C4170 1.327 . S
C4172 C4191 1.429 . S
C4172 H4196 0.950 . S
C4173 C4190 1.574 . S
C4173 C4192 1.368 . S
C4173 H4197 0.949 . S
H4174 C4178 0.949 . S
C4175 C4176 1.349 . S
C4175 C4177 1.327 . S
C4175 H4198 0.950 . S
C4176 C4175 1.349 . S
C4176 C4188 1.349 1_545 S
C4177 C4175 1.327 . S
C4177 C4193 1.429 1_545 S
C4177 H4199 0.950 . S
C4178 H4174 0.949 . S
C4178 C4186 1.574 . S
C4178 C4194 1.368 . S
H4179 C4187 0.950 . S
H4180 C4185 0.950 . S
H4181 C4186 0.949 . S
H4182 C4188 0.950 . S
H4183 C4189 0.950 . S
H4184 C4190 0.949 . S
C4185 H4180 0.950 . S
C4185 C4187 1.327 . S
C4185 C4191 1.429 . S
C4186 C4178 1.574 . S
C4186 H4181 0.949 . S
C4186 C4192 1.368 . S
C4187 C4171 1.349 . S
C4187 H4179 0.950 . S
C4187 C4185 1.327 . S
C4188 C4176 1.349 1_565 S
C4188 H4182 0.950 . S
C4188 C4189 1.327 . S
C4189 H4183 0.950 . S
C4189 C4188 1.327 . S
C4189 C4193 1.429 . S
C4190 C4173 1.574 . S
C4190 H4184 0.949 . S
C4190 C4194 1.368 . S
C4191 C4172 1.429 . S
C4191 C4185 1.429 . S
C4191 C4192 1.523 . S
C4192 C4173 1.368 . S
C4192 C4186 1.368 . S
C4192 C4191 1.523 . S
C4193 C4177 1.429 1_565 S
C4193 C4189 1.429 . S
C4193 C4194 1.523 . S
C4194 C4178 1.368 . S
C4194 C4190 1.368 . S
C4194 C4193 1.523 . S
H4195 C4170 0.950 . S
H4196 C4172 0.950 . S
H4197 C4173 0.949 . S
H4198 C4175 0.950 . S
H4199 C4177 0.950 . S
C4200 C4201 1.349 . S
C4200 C4202 1.336 . S
C4200 H4225 0.950 . S
C4201 C4200 1.349 . S
C4201 C4217 1.349 1_655 S
C4202 C4200 1.336 . S
C4202 C4221 1.422 1_655 S
C4202 H4226 0.947 . S
C4203 C4220 1.574 . S
C4203 C4222 1.368 . S
C4203 H4227 0.949 . S
H4204 C4208 0.949 . S
C4205 C4206 1.349 . S
C4205 C4207 1.327 . S
C4205 H4228 0.950 . S
C4206 C4205 1.349 . S
C4206 C4218 1.349 . S
C4207 C4205 1.327 . S
C4207 C4223 1.429 . S
C4207 H4229 0.950 . S
C4208 H4204 0.949 . S
C4208 C4216 1.574 . S
C4208 C4224 1.368 . S
H4209 C4217 0.950 . S
H4210 C4215 0.950 . S
H4211 C4216 0.949 . S
H4212 C4218 0.950 . S
H4213 C4219 0.950 . S
H4214 C4220 0.949 . S
C4215 H4210 0.950 . S
C4215 C4217 1.327 . S
C4215 C4221 1.429 . S
C4216 C4208 1.574 . S
C4216 H4211 0.949 . S
C4216 C4222 1.368 . S
C4217 C4201 1.349 1_455 S
C4217 H4209 0.950 . S
C4217 C4215 1.327 . S
C4218 C4206 1.349 . S
C4218 H4212 0.950 . S
C4218 C4219 1.327 . S
C4219 H4213 0.950 . S
C4219 C4218 1.327 . S
C4219 C4223 1.429 . S
C4220 C4203 1.574 . S
C4220 H4214 0.949 . S
C4220 C4224 1.368 . S
C4221 C4202 1.422 1_455 S
C4221 C4215 1.429 . S
C4221 C4222 1.523 . S
C4222 C4203 1.368 . S
C4222 C4216 1.368 . S
C4222 C4221 1.523 . S
C4223 C4207 1.429 . S
C4223 C4219 1.429 . S
C4223 C4224 1.523 . S
C4224 C4208 1.368 . S
C4224 C4220 1.368 . S
C4224 C4223 1.523 . S
H4225 C4200 0.950 . S
H4226 C4202 0.947 . S
H4227 C4203 0.949 . S
H4228 C4205 0.950 . S
H4229 C4207 0.950 . S
C4230 C4231 1.349 . S
C4230 C4232 1.327 . S
C4230 H4255 0.950 . S
C4231 C4230 1.349 . S
C4231 C4247 1.349 . S
C4232 C4230 1.327 . S
C4232 C4251 1.429 . S
C4232 H4256 0.950 . S
C4233 C4250 1.574 . S
C4233 C4252 1.368 . S
C4233 H4257 0.949 . S
H4234 C4238 0.949 . S
C4235 C4236 1.349 . S
C4235 C4237 1.327 . S
C4235 H4258 0.950 . S
C4236 C4235 1.349 . S
C4236 C4248 1.349 . S
C4237 C4235 1.327 . S
C4237 C4253 1.429 . S
C4237 H4259 0.950 . S
C4238 H4234 0.949 . S
C4238 C4246 1.574 . S
C4238 C4254 1.368 . S
H4239 C4247 0.950 . S
H4240 C4245 0.950 . S
H4241 C4246 0.949 . S
H4242 C4248 0.950 . S
H4243 C4249 0.950 . S
H4244 C4250 0.949 . S
C4245 H4240 0.950 . S
C4245 C4247 1.327 . S
C4245 C4251 1.429 . S
C4246 C4238 1.574 . S
C4246 H4241 0.949 . S
C4246 C4252 1.368 . S
C4247 C4231 1.349 . S
C4247 H4239 0.950 . S
C4247 C4245 1.327 . S
C4248 C4236 1.349 . S
C4248 H4242 0.950 . S
C4248 C4249 1.327 . S
C4249 H4243 0.950 . S
C4249 C4248 1.327 . S
C4249 C4253 1.429 . S
C4250 C4233 1.574 . S
C4250 H4244 0.949 . S
C4250 C4254 1.368 . S
C4251 C4232 1.429 . S
C4251 C4245 1.429 . S
C4251 C4252 1.523 . S
C4252 C4233 1.368 . S
C4252 C4246 1.368 . S
C4252 C4251 1.523 . S
C4253 C4237 1.429 . S
C4253 C4249 1.429 . S
C4253 C4254 1.523 . S
C4254 C4238 1.368 . S
C4254 C4250 1.368 . S
C4254 C4253 1.523 . S
H4255 C4230 0.950 . S
H4256 C4232 0.950 . S
H4257 C4233 0.949 . S
H4258 C4235 0.950 . S
H4259 C4237 0.950 . S
C4260 C4261 1.349 . S
C4260 C4262 1.392 . S
C4260 H4285 0.950 . S
C4261 C4260 1.349 . S
C4261 C4277 1.349 1_565 S
C4262 C4260 1.392 . S
C4262 C4281 1.379 1_565 S
C4262 H4286 0.938 . S
C4263 C4280 1.574 . S
C4263 C4282 1.368 . S
C4263 H4287 0.949 . S
H4264 C4268 0.949 . S
C4265 C4266 1.349 . S
C4265 C4267 1.327 . S
C4265 H4288 0.950 . S
C4266 C4265 1.349 . S
C4266 C4278 1.349 . S
C4267 C4265 1.327 . S
C4267 C4283 1.429 . S
C4267 H4289 0.950 . S
C4268 H4264 0.949 . S
C4268 C4276 1.574 . S
C4268 C4284 1.368 . S
H4269 C4277 0.950 . S
H4270 C4275 0.950 . S
H4271 C4276 0.949 . S
H4272 C4278 0.950 . S
H4273 C4279 0.950 . S
H4274 C4280 0.949 . S
C4275 H4270 0.950 . S
C4275 C4277 1.327 . S
C4275 C4281 1.429 . S
C4276 C4268 1.574 . S
C4276 H4271 0.949 . S
C4276 C4282 1.368 . S
C4277 C4261 1.349 1_545 S
C4277 H4269 0.950 . S
C4277 C4275 1.327 . S
C4278 C4266 1.349 . S
C4278 H4272 0.950 . S
C4278 C4279 1.327 . S
C4279 H4273 0.950 . S
C4279 C4278 1.327 . S
C4279 C4283 1.429 . S
C4280 C4263 1.574 . S
C4280 H4274 0.949 . S
C4280 C4284 1.368 . S
C4281 C4262 1.379 1_545 S
C4281 C4275 1.429 . S
C4281 C4282 1.523 . S
C4282 C4263 1.368 . S
C4282 C4276 1.368 . S
C4282 C4281 1.523 . S
C4283 C4267 1.429 . S
C4283 C4279 1.429 . S
C4283 C4284 1.523 . S
C4284 C4268 1.368 . S
C4284 C4280 1.368 . S
C4284 C4283 1.523 . S
H4285 C4260 0.950 . S
H4286 C4262 0.938 . S
H4287 C4263 0.949 . S
H4288 C4265 0.950 . S
H4289 C4267 0.950 . S
C4290 C4291 1.349 . S
C4290 C4292 1.328 . S
C4290 H4315 0.950 . S
C4291 C4290 1.349 . S
C4291 C4307 1.349 1_455 S
C4292 C4290 1.328 . S
C4292 C4311 1.398 1_455 S
C4292 H4316 0.985 . S
C4293 C4310 1.574 . S
C4293 C4312 1.368 . S
C4293 H4317 0.949 . S
H4294 C4298 0.949 . S
C4295 C4296 1.349 . S
C4295 C4297 1.327 . S
C4295 H4318 0.950 . S
C4296 C4295 1.349 . S
C4296 C4308 1.349 . S
C4297 C4295 1.327 . S
C4297 C4313 1.429 . S
C4297 H4319 0.950 . S
C4298 H4294 0.949 . S
C4298 C4306 1.574 . S
C4298 C4314 1.368 . S
H4299 C4307 0.950 . S
H4300 C4305 0.950 . S
H4301 C4306 0.949 . S
H4302 C4308 0.950 . S
H4303 C4309 0.950 . S
H4304 C4310 0.949 . S
C4305 H4300 0.950 . S
C4305 C4307 1.327 . S
C4305 C4311 1.429 . S
C4306 C4298 1.574 . S
C4306 H4301 0.949 . S
C4306 C4312 1.368 . S
C4307 C4291 1.349 1_655 S
C4307 H4299 0.950 . S
C4307 C4305 1.327 . S
C4308 C4296 1.349 . S
C4308 H4302 0.950 . S
C4308 C4309 1.327 . S
C4309 H4303 0.950 . S
C4309 C4308 1.327 . S
C4309 C4313 1.429 . S
C4310 C4293 1.574 . S
C4310 H4304 0.949 . S
C4310 C4314 1.368 . S
C4311 C4292 1.398 1_655 S
C4311 C4305 1.429 . S
C4311 C4312 1.523 . S
C4312 C4293 1.368 . S
C4312 C4306 1.368 . S
C4312 C4311 1.523 . S
C4313 C4297 1.429 . S
C4313 C4309 1.429 . S
C4313 C4314 1.523 . S
C4314 C4298 1.368 . S
C4314 C4310 1.368 . S
C4314 C4313 1.523 . S
H4315 C4290 0.950 . S
H4316 C4292 0.985 . S
H4317 C4293 0.949 . S
H4318 C4295 0.950 . S
H4319 C4297 0.950 . S
C4320 C4321 1.349 . S
C4320 C4322 1.327 . S
C4320 H4345 0.950 . S
C4321 C4320 1.349 . S
C4321 C4337 1.349 . S
C4322 C4320 1.327 . S
C4322 C4341 1.429 . S
C4322 H4346 0.950 . S
C4323 C4340 1.574 . S
C4323 C4342 1.368 . S
C4323 H4347 0.949 . S
H4324 C4328 0.949 . S
C4325 C4326 1.349 . S
C4325 C4327 1.327 . S
C4325 H4348 0.950 . S
C4326 C4325 1.349 . S
C4326 C4338 1.349 . S
C4327 C4325 1.327 . S
C4327 C4343 1.429 . S
C4327 H4349 0.950 . S
C4328 H4324 0.949 . S
C4328 C4336 1.574 . S
C4328 C4344 1.368 . S
H4329 C4337 0.950 . S
H4330 C4335 0.950 . S
H4331 C4336 0.949 . S
H4332 C4338 0.950 . S
H4333 C4339 0.950 . S
H4334 C4340 0.949 . S
C4335 H4330 0.950 . S
C4335 C4337 1.327 . S
C4335 C4341 1.429 . S
C4336 C4328 1.574 . S
C4336 H4331 0.949 . S
C4336 C4342 1.368 . S
C4337 C4321 1.349 . S
C4337 H4329 0.950 . S
C4337 C4335 1.327 . S
C4338 C4326 1.349 . S
C4338 H4332 0.950 . S
C4338 C4339 1.327 . S
C4339 H4333 0.950 . S
C4339 C4338 1.327 . S
C4339 C4343 1.429 . S
C4340 C4323 1.574 . S
C4340 H4334 0.949 . S
C4340 C4344 1.368 . S
C4341 C4322 1.429 . S
C4341 C4335 1.429 . S
C4341 C4342 1.523 . S
C4342 C4323 1.368 . S
C4342 C4336 1.368 . S
C4342 C4341 1.523 . S
C4343 C4327 1.429 . S
C4343 C4339 1.429 . S
C4343 C4344 1.523 . S
C4344 C4328 1.368 . S
C4344 C4340 1.368 . S
C4344 C4343 1.523 . S
H4345 C4320 0.950 . S
H4346 C4322 0.950 . S
H4347 C4323 0.949 . S
H4348 C4325 0.950 . S
H4349 C4327 0.950 . S
C4350 C4351 1.349 . S
C4350 C4352 1.327 . S
C4350 H4375 0.950 . S
C4351 C4350 1.349 . S
C4351 C4367 1.349 1_565 S
C4352 C4350 1.327 . S
C4352 C4371 1.429 1_565 S
C4352 H4376 0.950 . S
C4353 C4370 1.574 . S
C4353 C4372 1.368 . S
C4353 H4377 0.949 . S
H4354 C4358 0.949 . S
C4355 C4356 1.349 . S
C4355 C4357 1.327 . S
C4355 H4378 0.950 . S
C4356 C4355 1.349 . S
C4356 C4368 1.349 . S
C4357 C4355 1.327 . S
C4357 C4373 1.429 . S
C4357 H4379 0.950 . S
C4358 H4354 0.949 . S
C4358 C4366 1.574 . S
C4358 C4374 1.368 . S
H4359 C4367 0.950 . S
H4360 C4365 0.950 . S
H4361 C4366 0.949 . S
H4362 C4368 0.950 . S
H4363 C4369 0.950 . S
H4364 C4370 0.949 . S
C4365 H4360 0.950 . S
C4365 C4367 1.327 . S
C4365 C4371 1.429 . S
C4366 C4358 1.574 . S
C4366 H4361 0.949 . S
C4366 C4372 1.368 . S
C4367 C4351 1.349 1_545 S
C4367 H4359 0.950 . S
C4367 C4365 1.327 . S
C4368 C4356 1.349 . S
C4368 H4362 0.950 . S
C4368 C4369 1.327 . S
C4369 H4363 0.950 . S
C4369 C4368 1.327 . S
C4369 C4373 1.429 . S
C4370 C4353 1.574 . S
C4370 H4364 0.949 . S
C4370 C4374 1.368 . S
C4371 C4352 1.429 1_545 S
C4371 C4365 1.429 . S
C4371 C4372 1.523 . S
C4372 C4353 1.368 . S
C4372 C4366 1.368 . S
C4372 C4371 1.523 . S
C4373 C4357 1.429 . S
C4373 C4369 1.429 . S
C4373 C4374 1.523 . S
C4374 C4358 1.368 . S
C4374 C4370 1.368 . S
C4374 C4373 1.523 . S
H4375 C4350 0.950 . S
H4376 C4352 0.950 . S
H4377 C4353 0.949 . S
H4378 C4355 0.950 . S
H4379 C4357 0.950 . S
C4380 C4381 1.349 . S
C4380 C4382 1.327 . S
C4380 H4405 0.950 . S
C4381 C4380 1.349 . S
C4381 C4397 1.349 . S
C4382 C4380 1.327 . S
C4382 C4401 1.429 . S
C4382 H4406 0.950 . S
C4383 C4400 1.574 . S
C4383 C4402 1.368 . S
C4383 H4407 0.949 . S
H4384 C4388 0.949 . S
C4385 C4386 1.349 1_655 S
C4385 C4387 1.327 . S
C4385 H4408 0.950 . S
C4386 C4385 1.349 1_455 S
C4386 C4398 1.349 . S
C4387 C4385 1.327 . S
C4387 C4403 1.429 . S
C4387 H4409 0.950 . S
C4388 H4384 0.949 . S
C4388 C4396 1.574 . S
C4388 C4404 1.368 . S
H4389 C4397 0.950 . S
H4390 C4395 0.950 . S
H4391 C4396 0.949 . S
H4392 C4398 0.950 . S
H4393 C4399 0.950 . S
H4394 C4400 0.949 . S
C4395 H4390 0.950 . S
C4395 C4397 1.327 . S
C4395 C4401 1.429 . S
C4396 C4388 1.574 . S
C4396 H4391 0.949 . S
C4396 C4402 1.368 . S
C4397 C4381 1.349 . S
C4397 H4389 0.950 . S
C4397 C4395 1.327 . S
C4398 C4386 1.349 . S
C4398 H4392 0.950 . S
C4398 C4399 1.327 . S
C4399 H4393 0.950 . S
C4399 C4398 1.327 . S
C4399 C4403 1.429 1_455 S
C4400 C4383 1.574 . S
C4400 H4394 0.949 . S
C4400 C4404 1.368 . S
C4401 C4382 1.429 . S
C4401 C4395 1.429 . S
C4401 C4402 1.523 . S
C4402 C4383 1.368 . S
C4402 C4396 1.368 . S
C4402 C4401 1.523 . S
C4403 C4387 1.429 . S
C4403 C4399 1.429 1_655 S
C4403 C4404 1.523 . S
C4404 C4388 1.368 . S
C4404 C4400 1.368 . S
C4404 C4403 1.523 . S
H4405 C4380 0.950 . S
H4406 C4382 0.950 . S
H4407 C4383 0.949 . S
H4408 C4385 0.950 . S
H4409 C4387 0.950 . S
C4410 C4411 1.349 . S
C4410 C4412 1.327 . S
C4410 H4435 0.950 . S
C4411 C4410 1.349 . S
C4411 C4427 1.349 . S
C4412 C4410 1.327 . S
C4412 C4431 1.429 . S
C4412 H4436 0.950 . S
C4413 C4430 1.574 . S
C4413 C4432 1.368 . S
C4413 H4437 0.949 . S
H4414 C4418 0.949 . S
C4415 C4416 1.349 . S
C4415 C4417 1.327 . S
C4415 H4438 0.950 . S
C4416 C4415 1.349 . S
C4416 C4428 1.349 . S
C4417 C4415 1.327 . S
C4417 C4433 1.429 . S
C4417 H4439 0.950 . S
C4418 H4414 0.949 . S
C4418 C4426 1.574 . S
C4418 C4434 1.368 . S
H4419 C4427 0.950 . S
H4420 C4425 0.950 . S
H4421 C4426 0.949 . S
H4422 C4428 0.950 . S
H4423 C4429 0.950 . S
H4424 C4430 0.949 . S
C4425 H4420 0.950 . S
C4425 C4427 1.327 . S
C4425 C4431 1.429 . S
C4426 C4418 1.574 . S
C4426 H4421 0.949 . S
C4426 C4432 1.368 . S
C4427 C4411 1.349 . S
C4427 H4419 0.950 . S
C4427 C4425 1.327 . S
C4428 C4416 1.349 . S
C4428 H4422 0.950 . S
C4428 C4429 1.327 . S
C4429 H4423 0.950 . S
C4429 C4428 1.327 . S
C4429 C4433 1.429 . S
C4430 C4413 1.574 . S
C4430 H4424 0.949 . S
C4430 C4434 1.368 . S
C4431 C4412 1.429 . S
C4431 C4425 1.429 . S
C4431 C4432 1.523 . S
C4432 C4413 1.368 . S
C4432 C4426 1.368 . S
C4432 C4431 1.523 . S
C4433 C4417 1.429 . S
C4433 C4429 1.429 . S
C4433 C4434 1.523 . S
C4434 C4418 1.368 . S
C4434 C4430 1.368 . S
C4434 C4433 1.523 . S
H4435 C4410 0.950 . S
H4436 C4412 0.950 . S
H4437 C4413 0.949 . S
H4438 C4415 0.950 . S
H4439 C4417 0.950 . S
C4440 C4441 1.349 . S
C4440 C4442 1.327 . S
C4440 H4465 0.950 . S
C4441 C4440 1.349 . S
C4441 C4457 1.349 . S
C4442 C4440 1.327 . S
C4442 C4461 1.429 . S
C4442 H4466 0.950 . S
C4443 C4460 1.574 . S
C4443 C4462 1.368 . S
C4443 H4467 0.949 . S
H4444 C4448 0.949 . S
C4445 C4446 1.349 . S
C4445 C4447 1.327 . S
C4445 H4468 0.950 . S
C4446 C4445 1.349 . S
C4446 C4458 1.349 1_545 S
C4447 C4445 1.327 . S
C4447 C4463 1.429 1_545 S
C4447 H4469 0.950 . S
C4448 H4444 0.949 . S
C4448 C4456 1.574 . S
C4448 C4464 1.368 . S
H4449 C4457 0.950 . S
H4450 C4455 0.950 . S
H4451 C4456 0.949 . S
H4452 C4458 0.950 . S
H4453 C4459 0.950 . S
H4454 C4460 0.949 . S
C4455 H4450 0.950 . S
C4455 C4457 1.327 . S
C4455 C4461 1.429 . S
C4456 C4448 1.574 . S
C4456 H4451 0.949 . S
C4456 C4462 1.368 . S
C4457 C4441 1.349 . S
C4457 H4449 0.950 . S
C4457 C4455 1.327 . S
C4458 C4446 1.349 1_565 S
C4458 H4452 0.950 . S
C4458 C4459 1.327 . S
C4459 H4453 0.950 . S
C4459 C4458 1.327 . S
C4459 C4463 1.429 . S
C4460 C4443 1.574 . S
C4460 H4454 0.949 . S
C4460 C4464 1.368 . S
C4461 C4442 1.429 . S
C4461 C4455 1.429 . S
C4461 C4462 1.523 . S
C4462 C4443 1.368 . S
C4462 C4456 1.368 . S
C4462 C4461 1.523 . S
C4463 C4447 1.429 1_565 S
C4463 C4459 1.429 . S
C4463 C4464 1.523 . S
C4464 C4448 1.368 . S
C4464 C4460 1.368 . S
C4464 C4463 1.523 . S
H4465 C4440 0.950 . S
H4466 C4442 0.950 . S
H4467 C4443 0.949 . S
H4468 C4445 0.950 . S
H4469 C4447 0.950 . S
C4470 C4471 1.349 . S
C4470 C4472 1.327 . S
C4470 H4495 0.950 . S
C4471 C4470 1.349 . S
C4471 C4487 1.349 . S
C4472 C4470 1.327 . S
C4472 C4491 1.429 . S
C4472 H4496 0.950 . S
C4473 C4490 1.574 . S
C4473 C4492 1.368 . S
C4473 H4497 0.949 . S
H4474 C4478 0.949 . S
C4475 C4476 1.349 1_455 S
C4475 C4477 1.327 . S
C4475 H4498 0.950 . S
C4476 C4475 1.349 1_655 S
C4476 C4488 1.349 . S
C4477 C4475 1.327 . S
C4477 C4493 1.429 . S
C4477 H4499 0.950 . S
C4478 H4474 0.949 . S
C4478 C4486 1.574 . S
C4478 C4494 1.368 . S
H4479 C4487 0.950 . S
H4480 C4485 0.950 . S
H4481 C4486 0.949 . S
H4482 C4488 0.950 . S
H4483 C4489 0.950 . S
H4484 C4490 0.949 . S
C4485 H4480 0.950 . S
C4485 C4487 1.327 . S
C4485 C4491 1.429 . S
C4486 C4478 1.574 . S
C4486 H4481 0.949 . S
C4486 C4492 1.368 . S
C4487 C4471 1.349 . S
C4487 H4479 0.950 . S
C4487 C4485 1.327 . S
C4488 C4476 1.349 . S
C4488 H4482 0.950 . S
C4488 C4489 1.327 . S
C4489 H4483 0.950 . S
C4489 C4488 1.327 . S
C4489 C4493 1.429 1_655 S
C4490 C4473 1.574 . S
C4490 H4484 0.949 . S
C4490 C4494 1.368 . S
C4491 C4472 1.429 . S
C4491 C4485 1.429 . S
C4491 C4492 1.523 . S
C4492 C4473 1.368 . S
C4492 C4486 1.368 . S
C4492 C4491 1.523 . S
C4493 C4477 1.429 . S
C4493 C4489 1.429 1_455 S
C4493 C4494 1.523 . S
C4494 C4478 1.368 . S
C4494 C4490 1.368 . S
C4494 C4493 1.523 . S
H4495 C4470 0.950 . S
H4496 C4472 0.950 . S
H4497 C4473 0.949 . S
H4498 C4475 0.950 . S
H4499 C4477 0.950 . S
C4500 C4501 1.349 . S
C4500 C4502 1.327 . S
C4500 H4525 0.950 . S
C4501 C4500 1.349 . S
C4501 C4517 1.349 . S
C4502 C4500 1.327 . S
C4502 C4521 1.429 . S
C4502 H4526 0.950 . S
C4503 C4520 1.574 1_655 S
C4503 C4522 1.368 . S
C4503 H4527 0.949 . S
H4504 C4508 0.949 . S
C4505 C4506 1.349 . S
C4505 C4507 1.327 . S
C4505 H4528 0.950 . S
C4506 C4505 1.349 . S
C4506 C4518 1.349 . S
C4507 C4505 1.327 . S
C4507 C4523 1.429 . S
C4507 H4529 0.950 . S
C4508 H4504 0.949 . S
C4508 C4516 1.574 1_455 S
C4508 C4524 1.368 . S
H4509 C4517 0.950 . S
H4510 C4515 0.950 . S
H4511 C4516 0.949 . S
H4512 C4518 0.950 . S
H4513 C4519 0.950 . S
H4514 C4520 0.949 . S
C4515 H4510 0.950 . S
C4515 C4517 1.327 . S
C4515 C4521 1.429 . S
C4516 C4508 1.574 1_655 S
C4516 H4511 0.949 . S
C4516 C4522 1.368 . S
C4517 C4501 1.349 . S
C4517 H4509 0.950 . S
C4517 C4515 1.327 . S
C4518 C4506 1.349 . S
C4518 H4512 0.950 . S
C4518 C4519 1.327 . S
C4519 H4513 0.950 . S
C4519 C4518 1.327 . S
C4519 C4523 1.429 . S
C4520 C4503 1.574 1_455 S
C4520 H4514 0.949 . S
C4520 C4524 1.368 . S
C4521 C4502 1.429 . S
C4521 C4515 1.429 . S
C4521 C4522 1.523 . S
C4522 C4503 1.368 . S
C4522 C4516 1.368 . S
C4522 C4521 1.523 . S
C4523 C4507 1.429 . S
C4523 C4519 1.429 . S
C4523 C4524 1.523 . S
C4524 C4508 1.368 . S
C4524 C4520 1.368 . S
C4524 C4523 1.523 . S
H4525 C4500 0.950 . S
H4526 C4502 0.950 . S
H4527 C4503 0.949 . S
H4528 C4505 0.950 . S
H4529 C4507 0.950 . S
C4530 C4531 1.349 . S
C4530 C4532 1.327 . S
C4530 H4555 0.950 . S
C4531 C4530 1.349 . S
C4531 C4547 1.349 . S
C4532 C4530 1.327 . S
C4532 C4551 1.429 . S
C4532 H4556 0.950 . S
C4533 C4550 1.574 . S
C4533 C4552 1.368 . S
C4533 H4557 0.949 . S
H4534 C4538 0.949 . S
C4535 C4536 1.349 . S
C4535 C4537 1.327 . S
C4535 H4558 0.950 . S
C4536 C4535 1.349 . S
C4536 C4548 1.349 . S
C4537 C4535 1.327 . S
C4537 C4553 1.429 . S
C4537 H4559 0.950 . S
C4538 H4534 0.949 . S
C4538 C4546 1.574 . S
C4538 C4554 1.368 . S
H4539 C4547 0.950 . S
H4540 C4545 0.950 . S
H4541 C4546 0.949 . S
H4542 C4548 0.950 . S
H4543 C4549 0.950 . S
H4544 C4550 0.949 . S
C4545 H4540 0.950 . S
C4545 C4547 1.327 . S
C4545 C4551 1.429 . S
C4546 C4538 1.574 . S
C4546 H4541 0.949 . S
C4546 C4552 1.368 . S
C4547 C4531 1.349 . S
C4547 H4539 0.950 . S
C4547 C4545 1.327 . S
C4548 C4536 1.349 . S
C4548 H4542 0.950 . S
C4548 C4549 1.327 . S
C4549 H4543 0.950 . S
C4549 C4548 1.327 . S
C4549 C4553 1.429 . S
C4550 C4533 1.574 . S
C4550 H4544 0.949 . S
C4550 C4554 1.368 . S
C4551 C4532 1.429 . S
C4551 C4545 1.429 . S
C4551 C4552 1.523 . S
C4552 C4533 1.368 . S
C4552 C4546 1.368 . S
C4552 C4551 1.523 . S
C4553 C4537 1.429 . S
C4553 C4549 1.429 . S
C4553 C4554 1.523 . S
C4554 C4538 1.368 . S
C4554 C4550 1.368 . S
C4554 C4553 1.523 . S
H4555 C4530 0.950 . S
H4556 C4532 0.950 . S
H4557 C4533 0.949 . S
H4558 C4535 0.950 . S
H4559 C4537 0.950 . S
C4560 C4561 1.349 . S
C4560 C4562 1.327 . S
C4560 H4585 0.950 . S
C4561 C4560 1.349 . S
C4561 C4577 1.349 . S
C4562 C4560 1.327 . S
C4562 C4581 1.429 . S
C4562 H4586 0.950 . S
C4563 C4580 1.574 1_545 S
C4563 C4582 1.368 . S
C4563 H4587 0.949 . S
H4564 C4568 0.949 . S
C4565 C4566 1.349 . S
C4565 C4567 1.327 . S
C4565 H4588 0.950 . S
C4566 C4565 1.349 . S
C4566 C4578 1.349 . S
C4567 C4565 1.327 . S
C4567 C4583 1.429 . S
C4567 H4589 0.950 . S
C4568 H4564 0.949 . S
C4568 C4576 1.574 1_565 S
C4568 C4584 1.368 . S
H4569 C4577 0.950 . S
H4570 C4575 0.950 . S
H4571 C4576 0.949 . S
H4572 C4578 0.950 . S
H4573 C4579 0.950 . S
H4574 C4580 0.949 . S
C4575 H4570 0.950 . S
C4575 C4577 1.327 . S
C4575 C4581 1.429 . S
C4576 C4568 1.574 1_545 S
C4576 H4571 0.949 . S
C4576 C4582 1.368 . S
C4577 C4561 1.349 . S
C4577 H4569 0.950 . S
C4577 C4575 1.327 . S
C4578 C4566 1.349 . S
C4578 H4572 0.950 . S
C4578 C4579 1.327 . S
C4579 H4573 0.950 . S
C4579 C4578 1.327 . S
C4579 C4583 1.429 . S
C4580 C4563 1.574 1_565 S
C4580 H4574 0.949 . S
C4580 C4584 1.368 . S
C4581 C4562 1.429 . S
C4581 C4575 1.429 . S
C4581 C4582 1.523 . S
C4582 C4563 1.368 . S
C4582 C4576 1.368 . S
C4582 C4581 1.523 . S
C4583 C4567 1.429 . S
C4583 C4579 1.429 . S
C4583 C4584 1.523 . S
C4584 C4568 1.368 . S
C4584 C4580 1.368 . S
C4584 C4583 1.523 . S
H4585 C4560 0.950 . S
H4586 C4562 0.950 . S
H4587 C4563 0.949 . S
H4588 C4565 0.950 . S
H4589 C4567 0.950 . S
C4590 C4591 1.349 . S
C4590 C4592 1.327 . S
C4590 H4615 0.950 . S
C4591 C4590 1.349 . S
C4591 C4607 1.349 . S
C4592 C4590 1.327 . S
C4592 C4611 1.429 . S
C4592 H4616 0.950 . S
C4593 C4610 1.574 1_545 S
C4593 C4612 1.368 . S
C4593 H4617 0.949 . S
H4594 C4598 0.949 . S
C4595 C4596 1.349 . S
C4595 C4597 1.327 . S
C4595 H4618 0.950 . S
C4596 C4595 1.349 . S
C4596 C4608 1.349 . S
C4597 C4595 1.327 . S
C4597 C4613 1.429 . S
C4597 H4619 0.950 . S
C4598 H4594 0.949 . S
C4598 C4606 1.574 1_565 S
C4598 C4614 1.368 . S
H4599 C4607 0.950 . S
H4600 C4605 0.950 . S
H4601 C4606 0.949 . S
H4602 C4608 0.950 . S
H4603 C4609 0.950 . S
H4604 C4610 0.949 . S
C4605 H4600 0.950 . S
C4605 C4607 1.327 . S
C4605 C4611 1.429 . S
C4606 C4598 1.574 1_545 S
C4606 H4601 0.949 . S
C4606 C4612 1.368 . S
C4607 C4591 1.349 . S
C4607 H4599 0.950 . S
C4607 C4605 1.327 . S
C4608 C4596 1.349 . S
C4608 H4602 0.950 . S
C4608 C4609 1.327 . S
C4609 H4603 0.950 . S
C4609 C4608 1.327 . S
C4609 C4613 1.429 . S
C4610 C4593 1.574 1_565 S
C4610 H4604 0.949 . S
C4610 C4614 1.368 . S
C4611 C4592 1.429 . S
C4611 C4605 1.429 . S
C4611 C4612 1.523 . S
C4612 C4593 1.368 . S
C4612 C4606 1.368 . S
C4612 C4611 1.523 . S
C4613 C4597 1.429 . S
C4613 C4609 1.429 . S
C4613 C4614 1.523 . S
C4614 C4598 1.368 . S
C4614 C4610 1.368 . S
C4614 C4613 1.523 . S
H4615 C4590 0.950 . S
H4616 C4592 0.950 . S
H4617 C4593 0.949 . S
H4618 C4595 0.950 . S
H4619 C4597 0.950 . S
C4620 C4621 1.349 . S
C4620 C4622 1.327 . S
C4620 H4645 0.950 . S
C4621 C4620 1.349 . S
C4621 C4637 1.349 . S
C4622 C4620 1.327 . S
C4622 C4641 1.429 . S
C4622 H4646 0.950 . S
C4623 C4640 1.574 1_655 S
C4623 C4642 1.368 . S
C4623 H4647 0.949 . S
H4624 C4628 0.949 . S
C4625 C4626 1.349 . S
C4625 C4627 1.327 . S
C4625 H4648 0.950 . S
C4626 C4625 1.349 . S
C4626 C4638 1.349 . S
C4627 C4625 1.327 . S
C4627 C4643 1.429 . S
C4627 H4649 0.950 . S
C4628 H4624 0.949 . S
C4628 C4636 1.574 1_455 S
C4628 C4644 1.368 . S
H4629 C4637 0.950 . S
H4630 C4635 0.950 . S
H4631 C4636 0.949 . S
H4632 C4638 0.950 . S
H4633 C4639 0.950 . S
H4634 C4640 0.949 . S
C4635 H4630 0.950 . S
C4635 C4637 1.327 . S
C4635 C4641 1.429 . S
C4636 C4628 1.574 1_655 S
C4636 H4631 0.949 . S
C4636 C4642 1.368 . S
C4637 C4621 1.349 . S
C4637 H4629 0.950 . S
C4637 C4635 1.327 . S
C4638 C4626 1.349 . S
C4638 H4632 0.950 . S
C4638 C4639 1.327 . S
C4639 H4633 0.950 . S
C4639 C4638 1.327 . S
C4639 C4643 1.429 . S
C4640 C4623 1.574 1_455 S
C4640 H4634 0.949 . S
C4640 C4644 1.368 . S
C4641 C4622 1.429 . S
C4641 C4635 1.429 . S
C4641 C4642 1.523 . S
C4642 C4623 1.368 . S
C4642 C4636 1.368 . S
C4642 C4641 1.523 . S
C4643 C4627 1.429 . S
C4643 C4639 1.429 . S
C4643 C4644 1.523 . S
C4644 C4628 1.368 . S
C4644 C4640 1.368 . S
C4644 C4643 1.523 . S
H4645 C4620 0.950 . S
H4646 C4622 0.950 . S
H4647 C4623 0.949 . S
H4648 C4625 0.950 . S
H4649 C4627 0.950 . S
C4650 C4651 1.349 . S
C4650 C4652 1.327 . S
C4650 H4675 0.950 . S
C4651 C4650 1.349 . S
C4651 C4667 1.349 . S
C4652 C4650 1.327 . S
C4652 C4671 1.429 . S
C4652 H4676 0.950 . S
C4653 C4670 1.574 . S
C4653 C4672 1.368 . S
C4653 H4677 0.949 . S
H4654 C4658 0.949 . S
C4655 C4656 1.349 . S
C4655 C4657 1.327 . S
C4655 H4678 0.950 . S
C4656 C4655 1.349 . S
C4656 C4668 1.349 . S
C4657 C4655 1.327 . S
C4657 C4673 1.429 . S
C4657 H4679 0.950 . S
C4658 H4654 0.949 . S
C4658 C4666 1.574 . S
C4658 C4674 1.368 . S
H4659 C4667 0.950 . S
H4660 C4665 0.950 . S
H4661 C4666 0.949 . S
H4662 C4668 0.950 . S
H4663 C4669 0.950 . S
H4664 C4670 0.949 . S
C4665 H4660 0.950 . S
C4665 C4667 1.327 . S
C4665 C4671 1.429 . S
C4666 C4658 1.574 . S
C4666 H4661 0.949 . S
C4666 C4672 1.368 . S
C4667 C4651 1.349 . S
C4667 H4659 0.950 . S
C4667 C4665 1.327 . S
C4668 C4656 1.349 . S
C4668 H4662 0.950 . S
C4668 C4669 1.327 . S
C4669 H4663 0.950 . S
C4669 C4668 1.327 . S
C4669 C4673 1.429 . S
C4670 C4653 1.574 . S
C4670 H4664 0.949 . S
C4670 C4674 1.368 . S
C4671 C4652 1.429 . S
C4671 C4665 1.429 . S
C4671 C4672 1.523 . S
C4672 C4653 1.368 . S
C4672 C4666 1.368 . S
C4672 C4671 1.523 . S
C4673 C4657 1.429 . S
C4673 C4669 1.429 . S
C4673 C4674 1.523 . S
C4674 C4658 1.368 . S
C4674 C4670 1.368 . S
C4674 C4673 1.523 . S
H4675 C4650 0.950 . S
H4676 C4652 0.950 . S
H4677 C4653 0.949 . S
H4678 C4655 0.950 . S
H4679 C4657 0.950 . S
C1441 C7 2.140 . S
C1446 C282 2.142 . S
C1471 C322 2.142 . S
C1476 C47 2.140 . S
C1501 C242 2.142 . S
C1506 C87 2.140 . S
C1531 C442 2.142 . S
C1536 C127 2.140 . S
C1561 C167 2.140 . S
C1566 C362 2.142 . S
C1591 C207 2.140 . S
C1596 C402 2.142 . S
C1621 C51 2.142 . S
C1626 C256 2.140 . S
C1651 C296 2.140 . S
C1656 C91 2.142 . S
C1681 C11 2.141 . S
C1686 C336 2.140 . S
C1711 C211 2.142 . S
C1716 C376 2.140 . S
C1741 C416 2.140 . S
C1746 C131 2.141 . S
C1771 C456 2.140 . S
C1776 C171 2.142 . S
C1801 C487 2.140 . S
C1806 C762 2.142 . S
C1831 C802 2.142 . S
C1836 C527 2.140 . S
C1861 C722 2.142 . S
C1866 C567 2.140 . S
C1891 C607 2.140 . S
C1896 C922 2.142 . S
C1921 C842 2.142 . S
C1926 C647 2.140 . S
C1951 C687 2.140 . S
C1956 C882 2.142 . S
C1981 C736 2.140 . S
C1986 C531 2.142 . S
C2011 C571 2.141 . S
C2016 C776 2.140 . S
C2041 C816 2.140 . S
C2046 C491 2.142 . S
C2071 C691 2.142 . S
C2076 C856 2.140 . S
C2101 C611 2.142 . S
C2106 C896 2.140 . S
C2131 C936 2.140 . S
C2136 C651 2.142 . S
C2161 C967 2.140 . S
C2166 C1242 2.142 . S
C2191 C1007 2.140 . S
C2196 C1282 2.142 . S
C2221 C1202 2.142 . S
C2226 C1047 2.140 . S
C2251 C1402 2.142 . S
C2256 C1087 2.140 . S
C2281 C1127 2.140 . S
C2286 C1322 2.142 . S
C2311 C1362 2.142 . S
C2316 C1167 2.140 . S
C2341 C1011 2.142 . S
C2346 C1216 2.140 . S
C2371 C1256 2.140 . S
C2376 C1051 2.142 . S
C2401 C971 2.142 . S
C2406 C1296 2.140 . S
C2431 C1336 2.140 . S
C2436 C1171 2.142 . S
C2461 C1376 2.140 . S
C2466 C1091 2.142 . S
C2491 C1416 2.140 . S
C2496 C1131 2.142 . S
C2521 C2 2.192 . S
C2526 C731 2.192 . S
C2551 C42 2.191 . S
C2556 C771 2.191 . S
C2581 C811 2.191 . S
C2586 C82 2.191 . S
C2611 C1331 2.192 . S
C2616 C122 2.192 . S
C2641 C1371 2.191 . S
C2646 C162 2.191 . S
C2671 C1411 2.191 . S
C2676 C202 2.191 . S
C2701 C251 2.192 . S
C2706 C962 2.192 . S
C2731 C1002 2.191 . S
C2736 C291 2.191 . S
C2761 C331 2.191 . S
C2766 C1042 2.191 . S
C2791 C371 2.192 . S
C2796 C602 2.192 . S
C2821 C411 2.191 . S
C2826 C642 2.191 . S
C2851 C451 2.191 . S
C2856 C682 2.191 . S
C2881 C482 2.192 . S
C2886 C1211 2.192 . S
C2911 C1251 2.191 . S
C2916 C522 2.191 . S
C2941 C562 2.191 . S
C2946 C1291 2.191 . S
C2971 C1082 2.192 . S
C2976 C851 2.192 . S
C3001 C891 2.191 . S
C3006 C1122 2.191 . S
C3031 C1162 2.191 . S
C3036 C931 2.191 . S
C3061 C19 1.942 1_556 S
C3066 C659 1.942 . S
C3091 C59 1.942 1_556 S
C3096 C699 1.942 . S
C3121 C619 1.943 . S
C3126 C99 1.942 1_556 S
C3151 C139 1.943 . S
C3156 C1059 1.943 . S
C3181 C979 1.942 . S
C3186 C179 1.942 . S
C3211 C219 1.942 . S
C3216 C1019 1.942 . S
C3241 C1370 1.942 . S
C3246 C250 1.942 1_554 S
C3271 C290 1.942 1_554 S
C3276 C1410 1.942 . S
C3301 C1330 1.943 . S
C3306 C330 1.943 1_554 S
C3331 C370 1.942 . S
C3336 C810 1.942 . S
C3361 C410 1.942 . S
C3366 C730 1.942 . S
C3391 C450 1.942 . S
C3396 C770 1.942 . S
C3421 C1139 1.942 . S
C3426 C499 1.942 . S
C3451 C539 1.942 . S
C3456 C1179 1.942 . S
C3481 C579 1.942 . S
C3486 C1099 1.942 . S
C3511 C1290 1.942 . S
C3516 C850 1.942 . S
C3541 C1210 1.942 . S
C3546 C890 1.942 . S
C3571 C1250 1.942 . S
C3576 C930 1.942 . S
C3601 C130 2.325 . S
C3606 C10 2.325 . S
C3631 C50 2.325 . S
C3636 C170 2.325 . S
C3661 C90 2.325 . S
C3666 C210 2.325 . S
C3691 C379 2.325 . S
C3696 C259 2.325 . S
C3721 C299 2.325 . S
C3726 C419 2.325 . S
C3751 C459 2.325 . S
C3756 C339 2.325 . S
C3781 C610 2.325 . S
C3786 C490 2.325 . S
C3811 C530 2.325 . S
C3816 C650 2.325 . S
C3841 C570 2.325 . S
C3846 C690 2.325 . S
C3871 C739 2.325 . S
C3876 C859 2.325 . S
C3901 C779 2.325 . S
C3906 C899 2.325 . S
C3931 C819 2.325 . S
C3936 C939 2.325 . S
C3961 C970 2.325 . S
C3966 C1090 2.325 . S
C3991 C1130 2.325 . S
C3996 C1010 2.325 . S
C4021 C1170 2.325 . S
C4026 C1050 2.325 . S
C4051 C1219 2.325 . S
C4056 C1339 2.325 . S
C4081 C1379 2.325 . S
C4086 C1259 2.325 . S
C4111 C1299 2.325 . S
C4116 C1419 2.325 . S
C4141 C16 0.265 . S
C4146 C1176 0.265 . S
C4171 C1096 0.265 . S
C4176 C56 0.265 . S
C4201 C96 0.264 . S
C4206 C1136 0.264 . S
C4231 C536 0.265 . S
C4236 C136 0.265 . S
C4261 C176 0.265 . S
C4266 C576 0.265 . S
C4291 C216 0.265 . S
C4296 C496 0.265 . S
C4321 C927 0.265 . S
C4326 C247 0.265 . S
C4351 C287 0.265 . S
C4356 C847 0.265 . S
C4381 C887 0.264 . S
C4386 C327 0.264 . S
C4411 C367 0.265 . S
C4416 C1247 0.265 . S
C4441 C1287 0.265 . S
C4446 C407 0.265 . S
C4471 C1207 0.265 . S
C4476 C447 0.265 . S
C4501 C616 0.265 . S
C4506 C1016 0.265 . S
C4531 C656 0.264 . S
C4536 C1056 0.264 . S
C4561 C696 0.265 . S
C4566 C976 0.265 . S
C4591 C727 0.265 . S
C4596 C1407 0.265 . S
C4621 C767 0.265 . S
C4626 C1327 0.265 . S
C4651 C1367 0.264 . S
C4656 C807 0.264 . S
