# Generated by pormake.
# Topology fcu, (12)-cn, num edge types: 1
# Building blocks:
#     Node 0, Type 0, BuildingBlock: ENOWUB_clean_sbu_0, # of connection points: 12
#     Node 1, Type 0, BuildingBlock: ENOWUB_clean_sbu_0, # of connection points: 12
#     Node 2, Type 0, BuildingBlock: ENOWUB_clean_sbu_0, # of connection points: 12
#     Node 3, Type 0, BuildingBlock: ENOWUB_clean_sbu_0, # of connection points: 12
#     Edge 4, Type (0, 0), BuildingBlock: EYOCIG_clean_linker_4, # of connection points: 2
#     Edge 5, Type (0, 0), BuildingBlock: EYOCIG_clean_linker_4, # of connection points: 2
#     Edge 6, Type (0, 0), BuildingBlock: EYOCIG_clean_linker_4, # of connection points: 2
#     Edge 7, Type (0, 0), BuildingBlock: EYOCIG_clean_linker_4, # of connection points: 2
#     Edge 8, Type (0, 0), BuildingBlock: EYOCIG_clean_linker_4, # of connection points: 2
#     Edge 9, Type (0, 0), BuildingBlock: EYOCIG_clean_linker_4, # of connection points: 2
#     Edge 10, Type (0, 0), BuildingBlock: EYOCIG_clean_linker_4, # of connection points: 2
#     Edge 11, Type (0, 0), BuildingBlock: EYOCIG_clean_linker_4, # of connection points: 2
#     Edge 12, Type (0, 0), BuildingBlock: EYOCIG_clean_linker_4, # of connection points: 2
#     Edge 13, Type (0, 0), BuildingBlock: EYOCIG_clean_linker_4, # of connection points: 2
#     Edge 14, Type (0, 0), BuildingBlock: EYOCIG_clean_linker_4, # of connection points: 2
#     Edge 15, Type (0, 0), BuildingBlock: EYOCIG_clean_linker_4, # of connection points: 2
#     Edge 16, Type (0, 0), BuildingBlock: EYOCIG_clean_linker_4, # of connection points: 2
#     Edge 17, Type (0, 0), BuildingBlock: EYOCIG_clean_linker_4, # of connection points: 2
#     Edge 18, Type (0, 0), BuildingBlock: EYOCIG_clean_linker_4, # of connection points: 2
#     Edge 19, Type (0, 0), BuildingBlock: EYOCIG_clean_linker_4, # of connection points: 2
#     Edge 20, Type (0, 0), BuildingBlock: EYOCIG_clean_linker_4, # of connection points: 2
#     Edge 21, Type (0, 0), BuildingBlock: EYOCIG_clean_linker_4, # of connection points: 2
#     Edge 22, Type (0, 0), BuildingBlock: EYOCIG_clean_linker_4, # of connection points: 2
#     Edge 23, Type (0, 0), BuildingBlock: EYOCIG_clean_linker_4, # of connection points: 2
#     Edge 24, Type (0, 0), BuildingBlock: EYOCIG_clean_linker_4, # of connection points: 2
#     Edge 25, Type (0, 0), BuildingBlock: EYOCIG_clean_linker_4, # of connection points: 2
#     Edge 26, Type (0, 0), BuildingBlock: EYOCIG_clean_linker_4, # of connection points: 2
#     Edge 27, Type (0, 0), BuildingBlock: EYOCIG_clean_linker_4, # of connection points: 2
# Relax obj value: 0.000
# Max RMSD: 0.000
# Mean RMSD: 0.000
data_MOF--net-fcu--node1-ENOWUB_clean_sbu_0--edge1-EYOCIG_clean_linker_4
_symmetry_space_group_name_H-M    P1
_symmetry_Int_Tables_number       1
_symmetry_cell_setting            triclinic
loop_
_symmetry_equiv_pos_as_xyz
'x, y, z'
_cell_length_a     23.047432
_cell_length_b     23.0387
_cell_length_c     23.037558
_cell_angle_alpha  90.002235
_cell_angle_beta   89.995536
_cell_angle_gamma 89.993579
loop_
_atom_site_label
_atom_site_type_symbol
_atom_site_fract_x
_atom_site_fract_y
_atom_site_fract_z
_atom_type_partial_charge
O0 O 0.14301 0.88448 -0.02127 0.0
O1 O 0.03685 0.91907 0.03678 0.0
O2 O 0.0368 0.03748 0.91961 0.0
O3 O 0.03718 0.91941 0.91929 0.0
O4 O 0.03633 0.03697 0.03711 0.0
Zr5 Zr 0.095 -0.02149 -0.02164 0.0
Zr6 Zr 0.97762 0.97756 0.09488 0.0
Zr7 Zr -0.02185 0.86088 0.97765 0.0
O8 O 0.91885 0.03681 0.03699 0.0
O9 O 0.91902 0.91907 0.91906 0.0
O10 O 0.9189 0.9187 0.03664 0.0
Zr11 Zr 0.97757 0.09546 -0.02164 0.0
Zr12 Zr -0.022 -0.02163 0.86163 0.0
Zr13 Zr 0.86087 0.97798 0.97795 0.0
O14 O 0.91884 0.03729 0.91936 0.0
O15 O 0.81268 0.07193 0.97737 0.0
O16 O 0.8131 0.88396 0.97757 0.0
O17 O 0.1428 0.07285 -0.02096 0.0
O18 O -0.02125 0.14282 0.88354 0.0
O19 O 0.97771 0.81256 0.07147 0.0
O20 O -0.02177 0.81364 0.88301 0.0
O21 O 0.97769 0.14249 0.07323 0.0
O22 O 0.88358 -0.02135 0.14277 0.0
O23 O 0.07127 0.97806 0.81289 0.0
O24 O 0.88457 -0.02139 0.81299 0.0
O25 O 0.07124 0.97787 0.14345 0.0
O26 O 0.8829 0.14283 0.97753 0.0
O27 O 0.07283 0.81352 -0.02176 0.0
O28 O 0.88356 0.81328 0.97727 0.0
O29 O 0.07194 0.14315 -0.02083 0.0
O30 O 0.14215 -0.02154 0.07328 0.0
O31 O 0.81368 -0.02169 0.88313 0.0
O32 O 0.81296 -0.02109 0.07232 0.0
O33 O 0.14193 0.97807 0.88328 0.0
C34 C 0.12599 0.83117 -0.02131 0.0
O35 O 0.97786 0.0714 0.14329 0.0
O36 O 0.97722 0.88292 0.14222 0.0
C37 C 0.82973 0.12523 0.97705 0.0
C38 C 0.83033 0.83073 0.9772 0.0
C39 C 0.12524 0.12604 -0.02055 0.0
C40 C -0.02083 0.12526 0.83032 0.0
C41 C 0.97722 0.82971 0.12472 0.0
C42 C -0.02191 0.8314 0.82989 0.0
C43 C 0.97784 0.12475 0.12638 0.0
C44 C 0.83037 -0.02073 0.12556 0.0
C45 C 0.12445 0.97782 0.83002 0.0
C46 C 0.83132 -0.02138 0.82995 0.0
C47 C 0.12452 -0.02172 0.12648 0.0
O48 O -0.02199 0.88473 0.81304 0.0
O49 O -0.0213 0.07201 0.81325 0.0
O50 O 0.14202 0.38283 0.47859 0.0
O51 O 0.03669 0.41913 0.53724 0.0
O52 O 0.03684 0.53652 0.41893 0.0
O53 O 0.03635 0.41879 0.41937 0.0
O54 O 0.03717 0.53716 0.53671 0.0
Zr55 Zr 0.0948 0.47758 0.47805 0.0
Zr56 Zr -0.02156 0.47864 0.59536 0.0
Zr57 Zr 0.97729 0.3612 0.47861 0.0
O58 O 0.91951 0.53758 0.53724 0.0
O59 O 0.91862 0.41932 0.4196 0.0
O60 O 0.91904 0.41961 0.53781 0.0
Zr61 Zr -0.02176 0.59522 0.47765 0.0
Zr62 Zr 0.97769 0.47767 0.36099 0.0
Zr63 Zr 0.86111 0.47849 0.47885 0.0
O64 O 0.91911 0.53691 0.41924 0.0
O65 O 0.81323 0.57246 0.47919 0.0
O66 O 0.81244 0.38479 0.47887 0.0
O67 O 0.14287 0.57168 0.47751 0.0
O68 O 0.97746 0.64284 0.38327 0.0
O69 O -0.02161 0.31358 0.57287 0.0
O70 O 0.97739 0.31284 0.38474 0.0
O71 O -0.02185 0.64352 0.57153 0.0
O72 O 0.88463 0.47787 0.64373 0.0
O73 O 0.07241 0.47747 0.3134 0.0
O74 O 0.88276 0.47779 0.31402 0.0
O75 O 0.07273 0.47928 0.6431 0.0
O76 O 0.88372 0.64302 0.47843 0.0
O77 O 0.07108 0.31271 0.47865 0.0
O78 O 0.88265 0.31395 0.47894 0.0
O79 O 0.0728 0.64271 0.47735 0.0
O80 O 0.14287 0.47855 0.57217 0.0
O81 O 0.8127 0.47835 0.38508 0.0
O82 O 0.81381 0.47762 0.57348 0.0
O83 O 0.1428 0.47724 0.38412 0.0
C84 C 0.12438 0.32966 0.47883 0.0
O85 O -0.02196 0.57338 0.64252 0.0
O86 O -0.02075 0.3843 0.64328 0.0
C87 C 0.83047 0.62566 0.47907 0.0
C88 C 0.82948 0.3315 0.47905 0.0
C89 C 0.12594 0.62503 0.47727 0.0
C90 C 0.97708 0.62522 0.33012 0.0
C91 C -0.02073 0.331 0.62605 0.0
C92 C 0.97755 0.32979 0.33141 0.0
C93 C -0.02202 0.62654 0.62484 0.0
C94 C 0.83136 0.47729 0.62665 0.0
C95 C 0.12564 0.47722 0.33088 0.0
C96 C 0.82962 0.47802 0.33175 0.0
C97 C 0.12586 0.47929 0.62549 0.0
O98 O 0.97764 0.38295 0.31372 0.0
O99 O 0.9773 0.5719 0.31306 0.0
O100 O 0.64331 -0.02129 0.38446 0.0
O101 O 0.53685 0.03687 0.41913 0.0
O102 O 0.53679 0.91923 0.53716 0.0
O103 O 0.53711 0.91919 0.41891 0.0
O104 O 0.53648 0.03689 0.53679 0.0
Zr105 Zr 0.59494 0.97801 0.47822 0.0
Zr106 Zr 0.47765 0.09497 0.47769 0.0
Zr107 Zr 0.47799 0.97808 0.36091 0.0
O108 O 0.41905 0.03687 0.537 0.0
O109 O 0.41899 0.91912 0.41891 0.0
O110 O 0.41879 0.03679 0.41896 0.0
Zr111 Zr 0.47793 -0.02183 0.59548 0.0
Zr112 Zr 0.47806 0.8613 0.47778 0.0
Zr113 Zr 0.36102 0.97778 0.47821 0.0
O114 O 0.41928 0.91916 0.5371 0.0
O115 O 0.31305 0.9774 0.57231 0.0
O116 O 0.313 -0.02164 0.38427 0.0
O117 O 0.64288 -0.02146 0.57224 0.0
O118 O 0.47772 0.88319 0.6425 0.0
O119 O 0.47854 0.07184 0.31254 0.0
O120 O 0.47832 0.88422 0.31286 0.0
O121 O 0.47859 0.07315 0.64249 0.0
O122 O 0.3833 0.1428 0.47839 0.0
O123 O 0.57158 0.8128 0.47837 0.0
O124 O 0.38447 0.81278 0.47772 0.0
O125 O 0.5718 0.14284 0.47849 0.0
O126 O 0.38331 0.97783 0.64317 0.0
O127 O 0.57287 -0.0212 0.31379 0.0
O128 O 0.38329 -0.02157 0.31343 0.0
O129 O 0.57259 -0.02141 0.64309 0.0
O130 O 0.64261 0.07255 0.47899 0.0
O131 O 0.31367 0.88303 0.47788 0.0
O132 O 0.31308 0.07195 0.4789 0.0
O133 O 0.64225 0.88317 0.47875 0.0
C134 C 0.6261 -0.02086 0.33122 0.0
O135 O 0.47843 0.14333 0.57151 0.0
O136 O 0.4785 0.14243 0.38305 0.0
C137 C 0.3301 0.9774 0.62561 0.0
C138 C 0.33008 -0.02143 0.33099 0.0
C139 C 0.6258 -0.02119 0.62552 0.0
C140 C 0.4775 0.82999 0.62486 0.0
C141 C 0.4789 0.12505 0.32979 0.0
C142 C 0.4784 0.831 0.33005 0.0
C143 C 0.47893 0.12633 0.62483 0.0
C144 C 0.33013 0.12526 0.47897 0.0
C145 C 0.62479 0.82993 0.47884 0.0
C146 C 0.33122 0.82982 0.47767 0.0
C147 C 0.62508 0.12576 0.47911 0.0
O148 O 0.47828 0.81356 0.38328 0.0
O149 O 0.47767 0.81297 0.57156 0.0
O150 O 0.64295 0.38423 0.97751 0.0
O151 O 0.53683 0.41955 0.03705 0.0
O152 O 0.53721 0.53706 0.91895 0.0
O153 O 0.53685 0.41941 0.91978 0.0
O154 O 0.53706 0.53752 0.03704 0.0
Zr155 Zr 0.5952 0.47848 -0.02164 0.0
Zr156 Zr 0.47809 0.4786 0.09509 0.0
Zr157 Zr 0.47772 0.36133 -0.02166 0.0
O158 O 0.41912 0.53749 0.03696 0.0
O159 O 0.41876 0.41936 0.91943 0.0
O160 O 0.41899 0.41978 0.03711 0.0
Zr161 Zr 0.47809 0.59511 0.97764 0.0
Zr162 Zr 0.47809 0.47787 0.86132 0.0
Zr163 Zr 0.36075 0.4787 -0.02175 0.0
O164 O 0.41905 0.53704 0.91902 0.0
O165 O 0.31355 0.57349 -0.02147 0.0
O166 O 0.31248 0.3848 -0.02132 0.0
O167 O 0.64241 0.57326 0.97783 0.0
O168 O 0.47754 0.64279 0.88326 0.0
O169 O 0.47865 0.31356 0.07248 0.0
O170 O 0.47851 0.31311 0.8842 0.0
O171 O 0.47798 0.64354 0.07136 0.0
O172 O 0.38449 0.47813 0.14359 0.0
O173 O 0.57222 0.47713 0.81337 0.0
O174 O 0.38428 0.47823 0.81304 0.0
O175 O 0.57195 0.47817 0.1432 0.0
O176 O 0.38451 0.64359 0.978 0.0
O177 O 0.57226 0.31379 0.9775 0.0
O178 O 0.38294 0.31412 -0.02102 0.0
O179 O 0.57165 0.64358 0.97753 0.0
O180 O 0.64282 0.47795 0.07298 0.0
O181 O 0.31355 0.47908 0.88344 0.0
O182 O 0.31371 0.47817 0.07326 0.0
O183 O 0.6428 0.47741 0.88389 0.0
C184 C 0.62553 0.33103 0.97703 0.0
O185 O 0.47822 0.57336 0.14228 0.0
O186 O 0.4788 0.38418 0.14298 0.0
C187 C 0.33124 0.62665 -0.02158 0.0
C188 C 0.3297 0.33156 -0.02086 0.0
C189 C 0.62487 0.62647 0.9775 0.0
C190 C 0.47736 0.62515 0.83011 0.0
C191 C 0.47912 0.3309 0.12568 0.0
C192 C 0.47911 0.33038 0.83094 0.0
C193 C 0.47815 0.62653 0.12465 0.0
C194 C 0.33126 0.47789 0.12649 0.0
C195 C 0.62545 0.47678 0.83065 0.0
C196 C 0.33105 0.47896 0.8302 0.0
C197 C 0.62522 0.47787 0.12618 0.0
O198 O 0.4788 0.3836 0.81361 0.0
O199 O 0.47768 0.57184 0.81315 0.0
C200 C 0.97785 0.20442 0.20851 0.0
C201 C 0.97785 0.16819 0.17085 0.0
C202 C 0.97775 0.24768 0.25173 0.0
C203 C 0.97766 0.28535 0.28795 0.0
C204 C 0.75054 -0.01789 0.20746 0.0
C205 C 0.78673 -0.01918 0.1698 0.0
C206 C 0.7076 -0.01801 0.25099 0.0
C207 C 0.67028 -0.01931 0.28753 0.0
C208 C 0.97522 0.74809 0.20481 0.0
C209 C 0.97613 0.7855 0.16837 0.0
C210 C 0.97516 0.70504 0.24821 0.0
C211 C 0.97604 0.6688 0.28582 0.0
C212 C 0.24777 -0.02075 0.25152 0.0
C213 C 0.28566 -0.02106 0.28749 0.0
C214 C 0.20423 -0.02087 0.20857 0.0
C215 C 0.16797 -0.02126 0.17095 0.0
C216 C 0.9777 0.75181 0.74776 0.0
C217 C 0.97788 0.78802 0.78542 0.0
C218 C 0.97763 0.70856 0.70456 0.0
C219 C 0.97779 0.67094 0.66833 0.0
C220 C 0.2043 0.97599 0.74814 0.0
C221 C 0.16798 0.97683 0.78568 0.0
C222 C 0.24782 0.97589 0.70516 0.0
C223 C 0.28567 0.97658 0.66913 0.0
C224 C -0.01788 0.2495 0.70632 0.0
C225 C -0.01917 0.287 0.66995 0.0
C226 C -0.0179 0.20573 0.74902 0.0
C227 C -0.01924 0.16885 0.78602 0.0
C228 C 0.70812 -0.02 0.70497 0.0
C229 C 0.67022 -0.02054 0.66901 0.0
C230 C 0.75166 -0.0201 0.7479 0.0
C231 C 0.78792 -0.02069 0.78549 0.0
C232 C 0.24815 0.25136 -0.01854 0.0
C233 C 0.28554 0.28783 -0.0196 0.0
C234 C 0.20512 0.20792 -0.01844 0.0
C235 C 0.16886 0.17032 -0.0194 0.0
C236 C 0.25166 0.70873 -0.02043 0.0
C237 C 0.28789 0.67112 -0.02095 0.0
C238 C 0.20821 0.7517 -0.02032 0.0
C239 C 0.1704 0.78772 -0.02077 0.0
C240 C 0.70592 0.24966 0.97399 0.0
C241 C 0.66938 0.28699 0.97538 0.0
C242 C 0.74867 0.20593 0.97404 0.0
C243 C 0.7855 0.16889 0.97542 0.0
C244 C 0.7482 0.7512 0.97567 0.0
C245 C 0.78605 0.78718 0.97637 0.0
C246 C 0.70467 0.70833 0.97577 0.0
C247 C 0.66838 0.67078 0.97656 0.0
C248 C 0.70671 0.4739 0.75017 0.0
C249 C 0.66937 0.47522 0.7867 0.0
C250 C 0.75052 0.47408 0.70753 0.0
C251 C 0.78766 0.47555 0.67082 0.0
C252 C 0.20781 0.48156 0.70526 0.0
C253 C 0.17018 0.48052 0.66905 0.0
C254 C 0.25116 0.48144 0.74837 0.0
C255 C 0.28745 0.48031 0.78593 0.0
C256 C 0.20791 0.47619 0.25137 0.0
C257 C 0.17002 0.47666 0.28734 0.0
C258 C 0.25146 0.47631 0.20844 0.0
C259 C 0.28774 0.47703 0.17086 0.0
C260 C 0.70456 0.47722 0.20859 0.0
C261 C 0.66863 0.47752 0.17066 0.0
C262 C 0.74749 0.47734 0.25212 0.0
C263 C 0.78514 0.47765 0.28835 0.0
C264 C 0.25148 0.74778 0.47636 0.0
C265 C 0.28772 0.78542 0.47696 0.0
C266 C 0.20811 0.70467 0.47624 0.0
C267 C 0.17038 0.66851 0.47671 0.0
C268 C 0.20442 0.24788 0.4807 0.0
C269 C 0.16792 0.28527 0.47984 0.0
C270 C 0.24803 0.20498 0.4808 0.0
C271 C 0.28579 0.16885 0.47996 0.0
C272 C 0.74838 0.70531 0.48081 0.0
C273 C 0.78622 0.66929 0.48002 0.0
C274 C 0.70476 0.74815 0.48074 0.0
C275 C 0.66834 0.7856 0.47987 0.0
C276 C 0.70468 0.208 0.48101 0.0
C277 C 0.66864 0.17015 0.48014 0.0
C278 C 0.74763 0.25155 0.48086 0.0
C279 C 0.7852 0.28787 0.48003 0.0
C280 C 0.48192 0.25018 0.74932 0.0
C281 C 0.48064 0.28652 0.78687 0.0
C282 C 0.48184 0.20756 0.70543 0.0
C283 C 0.48051 0.17067 0.66843 0.0
C284 C 0.47606 0.74787 0.70454 0.0
C285 C 0.47672 0.78554 0.66833 0.0
C286 C 0.47599 0.70477 0.74794 0.0
C287 C 0.47661 0.66864 0.78569 0.0
C288 C 0.47882 0.70852 0.20438 0.0
C289 C 0.47851 0.67092 0.16812 0.0
C290 C 0.47891 0.75143 0.2479 0.0
C291 C 0.47868 0.78743 0.28575 0.0
C292 C 0.48155 0.20547 0.24847 0.0
C293 C 0.48034 0.16881 0.28568 0.0
C294 C 0.48163 0.2491 0.20564 0.0
C295 C 0.48048 0.28676 0.16944 0.0
loop_
_geom_bond_atom_site_label_1
_geom_bond_atom_site_label_2
_geom_bond_distance
_geom_bond_site_symmetry_2
_ccdc_geom_bond_type
O0 Zr5 2.207 1_565 S
O0 C34 1.295 . S
O1 Zr5 2.133 1_565 S
O1 Zr6 2.133 1_565 S
O1 Zr7 2.133 . S
O2 Zr5 2.133 1_556 S
O2 Zr11 2.133 1_556 S
O2 Zr12 2.133 . S
O3 Zr5 2.133 1_566 S
O3 Zr7 2.133 1_556 S
O3 Zr12 2.133 1_565 S
O4 Zr5 2.133 . S
O4 Zr6 2.133 . S
O4 Zr11 2.133 . S
Zr5 O0 2.207 1_545 S
Zr5 O1 2.133 1_545 S
Zr5 O2 2.133 1_554 S
Zr5 O3 2.133 1_544 S
Zr5 O4 2.133 . S
Zr5 O17 2.207 . S
Zr5 O30 2.207 . S
Zr5 O33 2.207 1_554 S
Zr6 O1 2.133 1_545 S
Zr6 O4 2.133 . S
Zr6 O8 2.133 1_455 S
Zr6 O10 2.133 1_445 S
Zr6 O22 2.207 1_455 S
Zr6 O25 2.207 . S
Zr6 O35 2.207 . S
Zr6 O36 2.207 1_545 S
Zr7 O1 2.133 . S
Zr7 O3 2.133 1_554 S
Zr7 O9 2.133 1_454 S
Zr7 O10 2.133 1_455 S
Zr7 O19 2.207 . S
Zr7 O20 2.207 1_554 S
Zr7 O27 2.207 . S
Zr7 O28 2.207 1_455 S
O8 Zr6 2.133 1_655 S
O8 Zr11 2.133 1_655 S
O8 Zr13 2.133 . S
O9 Zr7 2.133 1_656 S
O9 Zr12 2.133 1_665 S
O9 Zr13 2.133 1_566 S
O10 Zr6 2.133 1_665 S
O10 Zr7 2.133 1_655 S
O10 Zr13 2.133 1_565 S
Zr11 O2 2.133 1_554 S
Zr11 O4 2.133 . S
Zr11 O8 2.133 1_455 S
Zr11 O14 2.133 1_454 S
Zr11 O18 2.207 1_554 S
Zr11 O21 2.207 . S
Zr11 O26 2.207 1_455 S
Zr11 O29 2.207 . S
Zr12 O2 2.133 . S
Zr12 O3 2.133 1_545 S
Zr12 O9 2.133 1_445 S
Zr12 O14 2.133 1_455 S
Zr12 O23 2.207 . S
Zr12 O24 2.207 1_455 S
Zr12 O48 2.207 1_545 S
Zr12 O49 2.207 . S
Zr13 O8 2.133 . S
Zr13 O9 2.133 1_544 S
Zr13 O10 2.133 1_545 S
Zr13 O14 2.133 1_554 S
Zr13 O15 2.207 . S
Zr13 O16 2.207 1_545 S
Zr13 O31 2.207 1_554 S
Zr13 O32 2.207 . S
O14 Zr11 2.133 1_656 S
O14 Zr12 2.133 1_655 S
O14 Zr13 2.133 1_556 S
O15 Zr13 2.207 . S
O15 C37 1.295 . S
O16 Zr13 2.207 1_565 S
O16 C38 1.295 . S
O17 Zr5 2.207 . S
O17 C39 1.295 . S
O18 Zr11 2.207 1_556 S
O18 C40 1.295 . S
O19 Zr7 2.207 . S
O19 C41 1.295 . S
O20 Zr7 2.207 1_556 S
O20 C42 1.295 . S
O21 Zr11 2.207 . S
O21 C43 1.295 . S
O22 Zr6 2.207 1_655 S
O22 C44 1.295 . S
O23 Zr12 2.207 . S
O23 C45 1.295 . S
O24 Zr12 2.207 1_655 S
O24 C46 1.295 . S
O25 Zr6 2.207 . S
O25 C47 1.295 . S
O26 Zr11 2.207 1_655 S
O26 C37 1.295 . S
O27 Zr7 2.207 . S
O27 C34 1.295 . S
O28 Zr7 2.207 1_655 S
O28 C38 1.295 . S
O29 Zr11 2.207 . S
O29 C39 1.295 . S
O30 Zr5 2.207 . S
O30 C47 1.295 . S
O31 Zr13 2.207 1_556 S
O31 C46 1.295 . S
O32 Zr13 2.207 . S
O32 C44 1.295 . S
O33 Zr5 2.207 1_556 S
O33 C45 1.295 . S
C34 O0 1.295 . S
C34 O27 1.295 . S
O35 Zr6 2.207 . S
O35 C43 1.295 . S
O36 Zr6 2.207 1_565 S
O36 C41 1.295 . S
C37 O15 1.295 . S
C37 O26 1.295 . S
C38 O16 1.295 . S
C38 O28 1.295 . S
C39 O17 1.295 . S
C39 O29 1.295 . S
C40 O18 1.295 . S
C40 O49 1.295 . S
C41 O19 1.295 . S
C41 O36 1.295 . S
C42 O20 1.295 . S
C42 O48 1.295 . S
C43 O21 1.295 . S
C43 O35 1.295 . S
C44 O22 1.295 . S
C44 O32 1.295 . S
C45 O23 1.295 . S
C45 O33 1.295 . S
C46 O24 1.295 . S
C46 O31 1.295 . S
C47 O25 1.295 . S
C47 O30 1.295 . S
O48 Zr12 2.207 1_565 S
O48 C42 1.295 . S
O49 Zr12 2.207 . S
O49 C40 1.295 . S
O50 Zr55 2.207 . S
O50 C84 1.295 . S
O51 Zr55 2.133 . S
O51 Zr56 2.133 . S
O51 Zr57 2.133 . S
O52 Zr55 2.133 . S
O52 Zr61 2.133 . S
O52 Zr62 2.133 . S
O53 Zr55 2.133 . S
O53 Zr57 2.133 . S
O53 Zr62 2.133 . S
O54 Zr55 2.133 . S
O54 Zr56 2.133 . S
O54 Zr61 2.133 . S
Zr55 O50 2.207 . S
Zr55 O51 2.133 . S
Zr55 O52 2.133 . S
Zr55 O53 2.133 . S
Zr55 O54 2.133 . S
Zr55 O67 2.207 . S
Zr55 O80 2.207 . S
Zr55 O83 2.207 . S
Zr56 O51 2.133 . S
Zr56 O54 2.133 . S
Zr56 O58 2.133 1_455 S
Zr56 O60 2.133 1_455 S
Zr56 O72 2.207 1_455 S
Zr56 O75 2.207 . S
Zr56 O85 2.207 . S
Zr56 O86 2.207 . S
Zr57 O51 2.133 . S
Zr57 O53 2.133 . S
Zr57 O59 2.133 1_455 S
Zr57 O60 2.133 1_455 S
Zr57 O69 2.207 . S
Zr57 O70 2.207 . S
Zr57 O77 2.207 . S
Zr57 O78 2.207 1_455 S
O58 Zr56 2.133 1_655 S
O58 Zr61 2.133 1_655 S
O58 Zr63 2.133 . S
O59 Zr57 2.133 1_655 S
O59 Zr62 2.133 1_655 S
O59 Zr63 2.133 . S
O60 Zr56 2.133 1_655 S
O60 Zr57 2.133 1_655 S
O60 Zr63 2.133 . S
Zr61 O52 2.133 . S
Zr61 O54 2.133 . S
Zr61 O58 2.133 1_455 S
Zr61 O64 2.133 1_455 S
Zr61 O68 2.207 . S
Zr61 O71 2.207 . S
Zr61 O76 2.207 1_455 S
Zr61 O79 2.207 . S
Zr62 O52 2.133 . S
Zr62 O53 2.133 . S
Zr62 O59 2.133 1_455 S
Zr62 O64 2.133 1_455 S
Zr62 O73 2.207 . S
Zr62 O74 2.207 1_455 S
Zr62 O98 2.207 . S
Zr62 O99 2.207 . S
Zr63 O58 2.133 . S
Zr63 O59 2.133 . S
Zr63 O60 2.133 . S
Zr63 O64 2.133 . S
Zr63 O65 2.207 . S
Zr63 O66 2.207 . S
Zr63 O81 2.207 . S
Zr63 O82 2.207 . S
O64 Zr61 2.133 1_655 S
O64 Zr62 2.133 1_655 S
O64 Zr63 2.133 . S
O65 Zr63 2.207 . S
O65 C87 1.295 . S
O66 Zr63 2.207 . S
O66 C88 1.295 . S
O67 Zr55 2.207 . S
O67 C89 1.295 . S
O68 Zr61 2.207 . S
O68 C90 1.295 . S
O69 Zr57 2.207 . S
O69 C91 1.295 . S
O70 Zr57 2.207 . S
O70 C92 1.295 . S
O71 Zr61 2.207 . S
O71 C93 1.295 . S
O72 Zr56 2.207 1_655 S
O72 C94 1.295 . S
O73 Zr62 2.207 . S
O73 C95 1.295 . S
O74 Zr62 2.207 1_655 S
O74 C96 1.295 . S
O75 Zr56 2.207 . S
O75 C97 1.295 . S
O76 Zr61 2.207 1_655 S
O76 C87 1.295 . S
O77 Zr57 2.207 . S
O77 C84 1.295 . S
O78 Zr57 2.207 1_655 S
O78 C88 1.295 . S
O79 Zr61 2.207 . S
O79 C89 1.295 . S
O80 Zr55 2.207 . S
O80 C97 1.295 . S
O81 Zr63 2.207 . S
O81 C96 1.295 . S
O82 Zr63 2.207 . S
O82 C94 1.295 . S
O83 Zr55 2.207 . S
O83 C95 1.295 . S
C84 O50 1.295 . S
C84 O77 1.295 . S
O85 Zr56 2.207 . S
O85 C93 1.295 . S
O86 Zr56 2.207 . S
O86 C91 1.295 . S
C87 O65 1.295 . S
C87 O76 1.295 . S
C88 O66 1.295 . S
C88 O78 1.295 . S
C89 O67 1.295 . S
C89 O79 1.295 . S
C90 O68 1.295 . S
C90 O99 1.295 . S
C91 O69 1.295 . S
C91 O86 1.295 . S
C92 O70 1.295 . S
C92 O98 1.295 . S
C93 O71 1.295 . S
C93 O85 1.295 . S
C94 O72 1.295 . S
C94 O82 1.295 . S
C95 O73 1.295 . S
C95 O83 1.295 . S
C96 O74 1.295 . S
C96 O81 1.295 . S
C97 O75 1.295 . S
C97 O80 1.295 . S
O98 Zr62 2.207 . S
O98 C92 1.295 . S
O99 Zr62 2.207 . S
O99 C90 1.295 . S
O100 Zr105 2.207 . S
O100 C134 1.295 . S
O101 Zr105 2.133 . S
O101 Zr106 2.133 . S
O101 Zr107 2.133 . S
O102 Zr105 2.133 1_565 S
O102 Zr111 2.133 1_565 S
O102 Zr112 2.133 . S
O103 Zr105 2.133 1_565 S
O103 Zr107 2.133 1_565 S
O103 Zr112 2.133 . S
O104 Zr105 2.133 . S
O104 Zr106 2.133 . S
O104 Zr111 2.133 . S
Zr105 O100 2.207 . S
Zr105 O101 2.133 . S
Zr105 O102 2.133 1_545 S
Zr105 O103 2.133 1_545 S
Zr105 O104 2.133 . S
Zr105 O117 2.207 . S
Zr105 O130 2.207 . S
Zr105 O133 2.207 1_545 S
Zr106 O101 2.133 . S
Zr106 O104 2.133 . S
Zr106 O108 2.133 . S
Zr106 O110 2.133 . S
Zr106 O122 2.207 . S
Zr106 O125 2.207 . S
Zr106 O135 2.207 . S
Zr106 O136 2.207 . S
Zr107 O101 2.133 . S
Zr107 O103 2.133 1_545 S
Zr107 O109 2.133 1_545 S
Zr107 O110 2.133 . S
Zr107 O119 2.207 . S
Zr107 O120 2.207 1_545 S
Zr107 O127 2.207 . S
Zr107 O128 2.207 . S
O108 Zr106 2.133 . S
O108 Zr111 2.133 . S
O108 Zr113 2.133 . S
O109 Zr107 2.133 1_565 S
O109 Zr112 2.133 . S
O109 Zr113 2.133 1_565 S
O110 Zr106 2.133 . S
O110 Zr107 2.133 . S
O110 Zr113 2.133 . S
Zr111 O102 2.133 1_545 S
Zr111 O104 2.133 . S
Zr111 O108 2.133 . S
Zr111 O114 2.133 1_545 S
Zr111 O118 2.207 1_545 S
Zr111 O121 2.207 . S
Zr111 O126 2.207 . S
Zr111 O129 2.207 . S
Zr112 O102 2.133 . S
Zr112 O103 2.133 . S
Zr112 O109 2.133 . S
Zr112 O114 2.133 . S
Zr112 O123 2.207 . S
Zr112 O124 2.207 . S
Zr112 O148 2.207 . S
Zr112 O149 2.207 . S
Zr113 O108 2.133 . S
Zr113 O109 2.133 1_545 S
Zr113 O110 2.133 . S
Zr113 O114 2.133 1_545 S
Zr113 O115 2.207 . S
Zr113 O116 2.207 . S
Zr113 O131 2.207 1_545 S
Zr113 O132 2.207 . S
O114 Zr111 2.133 1_565 S
O114 Zr112 2.133 . S
O114 Zr113 2.133 1_565 S
O115 Zr113 2.207 . S
O115 C137 1.295 . S
O116 Zr113 2.207 . S
O116 C138 1.295 . S
O117 Zr105 2.207 . S
O117 C139 1.295 . S
O118 Zr111 2.207 1_565 S
O118 C140 1.295 . S
O119 Zr107 2.207 . S
O119 C141 1.295 . S
O120 Zr107 2.207 1_565 S
O120 C142 1.295 . S
O121 Zr111 2.207 . S
O121 C143 1.295 . S
O122 Zr106 2.207 . S
O122 C144 1.295 . S
O123 Zr112 2.207 . S
O123 C145 1.295 . S
O124 Zr112 2.207 . S
O124 C146 1.295 . S
O125 Zr106 2.207 . S
O125 C147 1.295 . S
O126 Zr111 2.207 . S
O126 C137 1.295 . S
O127 Zr107 2.207 . S
O127 C134 1.295 . S
O128 Zr107 2.207 . S
O128 C138 1.295 . S
O129 Zr111 2.207 . S
O129 C139 1.295 . S
O130 Zr105 2.207 . S
O130 C147 1.295 . S
O131 Zr113 2.207 1_565 S
O131 C146 1.295 . S
O132 Zr113 2.207 . S
O132 C144 1.295 . S
O133 Zr105 2.207 1_565 S
O133 C145 1.295 . S
C134 O100 1.295 . S
C134 O127 1.295 . S
O135 Zr106 2.207 . S
O135 C143 1.295 . S
O136 Zr106 2.207 . S
O136 C141 1.295 . S
C137 O115 1.295 . S
C137 O126 1.295 . S
C138 O116 1.295 . S
C138 O128 1.295 . S
C139 O117 1.295 . S
C139 O129 1.295 . S
C140 O118 1.295 . S
C140 O149 1.295 . S
C141 O119 1.295 . S
C141 O136 1.295 . S
C142 O120 1.295 . S
C142 O148 1.295 . S
C143 O121 1.295 . S
C143 O135 1.295 . S
C144 O122 1.295 . S
C144 O132 1.295 . S
C145 O123 1.295 . S
C145 O133 1.295 . S
C146 O124 1.295 . S
C146 O131 1.295 . S
C147 O125 1.295 . S
C147 O130 1.295 . S
O148 Zr112 2.207 . S
O148 C142 1.295 . S
O149 Zr112 2.207 . S
O149 C140 1.295 . S
O150 Zr155 2.207 . S
O150 C184 1.295 . S
O151 Zr155 2.133 . S
O151 Zr156 2.133 . S
O151 Zr157 2.133 . S
O152 Zr155 2.133 1_556 S
O152 Zr161 2.133 1_556 S
O152 Zr162 2.133 . S
O153 Zr155 2.133 1_556 S
O153 Zr157 2.133 1_556 S
O153 Zr162 2.133 . S
O154 Zr155 2.133 . S
O154 Zr156 2.133 . S
O154 Zr161 2.133 . S
Zr155 O150 2.207 . S
Zr155 O151 2.133 . S
Zr155 O152 2.133 1_554 S
Zr155 O153 2.133 1_554 S
Zr155 O154 2.133 . S
Zr155 O167 2.207 . S
Zr155 O180 2.207 . S
Zr155 O183 2.207 1_554 S
Zr156 O151 2.133 . S
Zr156 O154 2.133 . S
Zr156 O158 2.133 . S
Zr156 O160 2.133 . S
Zr156 O172 2.207 . S
Zr156 O175 2.207 . S
Zr156 O185 2.207 . S
Zr156 O186 2.207 . S
Zr157 O151 2.133 . S
Zr157 O153 2.133 1_554 S
Zr157 O159 2.133 1_554 S
Zr157 O160 2.133 . S
Zr157 O169 2.207 . S
Zr157 O170 2.207 1_554 S
Zr157 O177 2.207 . S
Zr157 O178 2.207 . S
O158 Zr156 2.133 . S
O158 Zr161 2.133 . S
O158 Zr163 2.133 . S
O159 Zr157 2.133 1_556 S
O159 Zr162 2.133 . S
O159 Zr163 2.133 1_556 S
O160 Zr156 2.133 . S
O160 Zr157 2.133 . S
O160 Zr163 2.133 . S
Zr161 O152 2.133 1_554 S
Zr161 O154 2.133 . S
Zr161 O158 2.133 . S
Zr161 O164 2.133 1_554 S
Zr161 O168 2.207 1_554 S
Zr161 O171 2.207 . S
Zr161 O176 2.207 . S
Zr161 O179 2.207 . S
Zr162 O152 2.133 . S
Zr162 O153 2.133 . S
Zr162 O159 2.133 . S
Zr162 O164 2.133 . S
Zr162 O173 2.207 . S
Zr162 O174 2.207 . S
Zr162 O198 2.207 . S
Zr162 O199 2.207 . S
Zr163 O158 2.133 . S
Zr163 O159 2.133 1_554 S
Zr163 O160 2.133 . S
Zr163 O164 2.133 1_554 S
Zr163 O165 2.207 . S
Zr163 O166 2.207 . S
Zr163 O181 2.207 1_554 S
Zr163 O182 2.207 . S
O164 Zr161 2.133 1_556 S
O164 Zr162 2.133 . S
O164 Zr163 2.133 1_556 S
O165 Zr163 2.207 . S
O165 C187 1.295 . S
O166 Zr163 2.207 . S
O166 C188 1.295 . S
O167 Zr155 2.207 . S
O167 C189 1.295 . S
O168 Zr161 2.207 1_556 S
O168 C190 1.295 . S
O169 Zr157 2.207 . S
O169 C191 1.295 . S
O170 Zr157 2.207 1_556 S
O170 C192 1.295 . S
O171 Zr161 2.207 . S
O171 C193 1.295 . S
O172 Zr156 2.207 . S
O172 C194 1.295 . S
O173 Zr162 2.207 . S
O173 C195 1.295 . S
O174 Zr162 2.207 . S
O174 C196 1.295 . S
O175 Zr156 2.207 . S
O175 C197 1.295 . S
O176 Zr161 2.207 . S
O176 C187 1.295 . S
O177 Zr157 2.207 . S
O177 C184 1.295 . S
O178 Zr157 2.207 . S
O178 C188 1.295 . S
O179 Zr161 2.207 . S
O179 C189 1.295 . S
O180 Zr155 2.207 . S
O180 C197 1.295 . S
O181 Zr163 2.207 1_556 S
O181 C196 1.295 . S
O182 Zr163 2.207 . S
O182 C194 1.295 . S
O183 Zr155 2.207 1_556 S
O183 C195 1.295 . S
C184 O150 1.295 . S
C184 O177 1.295 . S
O185 Zr156 2.207 . S
O185 C193 1.295 . S
O186 Zr156 2.207 . S
O186 C191 1.295 . S
C187 O165 1.295 . S
C187 O176 1.295 . S
C188 O166 1.295 . S
C188 O178 1.295 . S
C189 O167 1.295 . S
C189 O179 1.295 . S
C190 O168 1.295 . S
C190 O199 1.295 . S
C191 O169 1.295 . S
C191 O186 1.295 . S
C192 O170 1.295 . S
C192 O198 1.295 . S
C193 O171 1.295 . S
C193 O185 1.295 . S
C194 O172 1.295 . S
C194 O182 1.295 . S
C195 O173 1.295 . S
C195 O183 1.295 . S
C196 O174 1.295 . S
C196 O181 1.295 . S
C197 O175 1.295 . S
C197 O180 1.295 . S
O198 Zr162 2.207 . S
O198 C192 1.295 . S
O199 Zr162 2.207 . S
O199 C190 1.295 . S
C200 C201 1.170 1_655 S
C200 C202 1.380 . S
C201 C200 1.170 1_455 S
C202 C200 1.380 . S
C202 C203 1.170 . S
C203 C202 1.170 . S
C204 C205 1.170 . S
C204 C206 1.380 . S
C205 C204 1.170 . S
C206 C204 1.380 . S
C206 C207 1.170 . S
C207 C206 1.170 . S
C208 C209 1.170 . S
C208 C210 1.380 . S
C209 C208 1.170 . S
C210 C208 1.380 . S
C210 C211 1.170 . S
C211 C210 1.170 . S
C212 C213 1.170 . S
C212 C214 1.380 . S
C213 C212 1.170 . S
C214 C212 1.380 . S
C214 C215 1.170 1_545 S
C215 C214 1.170 1_565 S
C216 C217 1.170 1_655 S
C216 C218 1.380 . S
C217 C216 1.170 1_455 S
C218 C216 1.380 . S
C218 C219 1.170 . S
C219 C218 1.170 . S
C220 C221 1.171 . S
C220 C222 1.380 . S
C221 C220 1.171 . S
C222 C220 1.380 . S
C222 C223 1.170 . S
C223 C222 1.170 . S
C224 C225 1.170 . S
C224 C226 1.380 . S
C225 C224 1.170 . S
C226 C224 1.380 . S
C226 C227 1.170 . S
C227 C226 1.170 . S
C228 C229 1.170 . S
C228 C230 1.380 . S
C229 C228 1.170 . S
C230 C228 1.380 . S
C230 C231 1.170 . S
C231 C230 1.170 . S
C232 C233 1.170 . S
C232 C234 1.380 . S
C233 C232 1.170 . S
C234 C232 1.380 . S
C234 C235 1.170 . S
C235 C234 1.170 . S
C236 C237 1.170 . S
C236 C238 1.380 . S
C237 C236 1.170 . S
C238 C236 1.380 . S
C238 C239 1.170 . S
C239 C238 1.170 . S
C240 C241 1.170 . S
C240 C242 1.380 . S
C241 C240 1.170 . S
C242 C240 1.380 . S
C242 C243 1.170 . S
C243 C242 1.170 . S
C244 C245 1.170 . S
C244 C246 1.380 . S
C245 C244 1.170 . S
C246 C244 1.380 . S
C246 C247 1.170 . S
C247 C246 1.170 . S
C248 C249 1.170 . S
C248 C250 1.380 . S
C249 C248 1.170 . S
C250 C248 1.380 . S
C250 C251 1.170 . S
C251 C250 1.170 . S
C252 C253 1.170 . S
C252 C254 1.380 . S
C253 C252 1.170 . S
C254 C252 1.380 . S
C254 C255 1.170 . S
C255 C254 1.170 . S
C256 C257 1.170 . S
C256 C258 1.380 . S
C257 C256 1.170 . S
C258 C256 1.380 . S
C258 C259 1.170 . S
C259 C258 1.170 . S
C260 C261 1.170 . S
C260 C262 1.380 . S
C261 C260 1.170 . S
C262 C260 1.380 . S
C262 C263 1.170 . S
C263 C262 1.170 . S
C264 C265 1.170 . S
C264 C266 1.380 . S
C265 C264 1.170 . S
C266 C264 1.380 . S
C266 C267 1.170 . S
C267 C266 1.170 . S
C268 C269 1.170 . S
C268 C270 1.380 . S
C269 C268 1.170 . S
C270 C268 1.380 . S
C270 C271 1.170 . S
C271 C270 1.170 . S
C272 C273 1.170 . S
C272 C274 1.380 . S
C273 C272 1.170 . S
C274 C272 1.380 . S
C274 C275 1.170 . S
C275 C274 1.170 . S
C276 C277 1.170 . S
C276 C278 1.380 . S
C277 C276 1.170 . S
C278 C276 1.380 . S
C278 C279 1.170 . S
C279 C278 1.170 . S
C280 C281 1.170 . S
C280 C282 1.380 . S
C281 C280 1.170 . S
C282 C280 1.380 . S
C282 C283 1.170 . S
C283 C282 1.170 . S
C284 C285 1.170 . S
C284 C286 1.380 . S
C285 C284 1.170 . S
C286 C284 1.380 . S
C286 C287 1.170 . S
C287 C286 1.170 . S
C288 C289 1.170 . S
C288 C290 1.380 . S
C289 C288 1.170 . S
C290 C288 1.380 . S
C290 C291 1.170 . S
C291 C290 1.170 . S
C292 C293 1.170 . S
C292 C294 1.380 . S
C293 C292 1.170 . S
C294 C292 1.380 . S
C294 C295 1.170 . S
C295 C294 1.170 . S
C201 C43 1.498 . S
C203 C92 1.495 1_655 S
C205 C44 1.498 . S
C207 C134 1.498 . S
C209 C41 1.498 1_655 S
C211 C90 1.498 1_655 S
C213 C138 1.498 . S
C215 C47 1.495 1_565 S
C217 C42 1.498 . S
C219 C93 1.501 1_655 S
C221 C45 1.498 1_565 S
C223 C137 1.498 1_565 S
C225 C91 1.498 . S
C227 C40 1.498 . S
C229 C139 1.498 . S
C231 C46 1.501 . S
C233 C188 1.498 . S
C235 C39 1.495 . S
C237 C187 1.498 . S
C239 C34 1.498 . S
C241 C184 1.498 1_556 S
C243 C37 1.498 1_556 S
C245 C38 1.498 1_556 S
C247 C189 1.501 1_556 S
C249 C195 1.498 . S
C251 C94 1.501 . S
C253 C97 1.498 . S
C255 C196 1.498 . S
C257 C95 1.498 . S
C259 C194 1.495 . S
C261 C197 1.498 . S
C263 C96 1.498 . S
C265 C146 1.498 . S
C267 C89 1.498 . S
C269 C84 1.498 . S
C271 C144 1.495 . S
C273 C87 1.498 . S
C275 C145 1.501 . S
C277 C147 1.498 . S
C279 C88 1.498 . S
C281 C192 1.498 . S
C283 C143 1.498 . S
C285 C140 1.498 . S
C287 C190 1.501 . S
C289 C193 1.498 . S
C291 C142 1.498 . S
C293 C141 1.498 . S
C295 C191 1.495 . S
