# Generated by pormake.
# Topology ilc, (8)-cn, num edge types: 1
# Building blocks:
#     Node 0, Type 0, BuildingBlock: EYACOX_clean_sbu_0, # of connection points: 8
#     Node 1, Type 0, BuildingBlock: EYACOX_clean_sbu_0, # of connection points: 8
#     Node 2, Type 0, BuildingBlock: EYACOX_clean_sbu_0, # of connection points: 8
#     Edge 3, Type (0, 0), BuildingBlock: XUDNAN_clean_linker_2, # of connection points: 2
#     Edge 4, Type (0, 0), BuildingBlock: XUDNAN_clean_linker_2, # of connection points: 2
#     Edge 5, Type (0, 0), BuildingBlock: XUDNAN_clean_linker_2, # of connection points: 2
#     Edge 6, Type (0, 0), BuildingBlock: XUDNAN_clean_linker_2, # of connection points: 2
#     Edge 7, Type (0, 0), BuildingBlock: XUDNAN_clean_linker_2, # of connection points: 2
#     Edge 8, Type (0, 0), BuildingBlock: XUDNAN_clean_linker_2, # of connection points: 2
#     Edge 9, Type (0, 0), BuildingBlock: XUDNAN_clean_linker_2, # of connection points: 2
#     Edge 10, Type (0, 0), BuildingBlock: XUDNAN_clean_linker_2, # of connection points: 2
#     Edge 11, Type (0, 0), BuildingBlock: XUDNAN_clean_linker_2, # of connection points: 2
#     Edge 12, Type (0, 0), BuildingBlock: XUDNAN_clean_linker_2, # of connection points: 2
#     Edge 13, Type (0, 0), BuildingBlock: XUDNAN_clean_linker_2, # of connection points: 2
#     Edge 14, Type (0, 0), BuildingBlock: XUDNAN_clean_linker_2, # of connection points: 2
# Relax obj value: 0.110
# Max RMSD: 0.171
# Mean RMSD: 0.171
data_MOF--net-ilc--node1-EYACOX_clean_sbu_0--edge1-XUDNAN_clean_linker_2
_symmetry_space_group_name_H-M    P1
_symmetry_Int_Tables_number       1
_symmetry_cell_setting            triclinic
loop_
_symmetry_equiv_pos_as_xyz
'x, y, z'
_cell_length_a     26.7955
_cell_length_b     20.836519
_cell_length_c     20.215683
_cell_angle_alpha  85.976865
_cell_angle_beta   121.74202
_cell_angle_gamma 125.04713
loop_
_atom_site_label
_atom_site_type_symbol
_atom_site_fract_x
_atom_site_fract_y
_atom_site_fract_z
_atom_type_partial_charge
Eu0 Eu 0.98405 0.99309 0.01218 0.0
Eu1 Eu 0.13323 0.08602 0.99702 0.0
O2 O 0.91096 1.0012 0.02482 0.0
O3 O 0.90066 0.89154 0.02909 0.0
O4 O 1.02659 0.97695 0.88205 0.0
O5 O 0.95614 0.89477 0.92852 0.0
O6 O 0.95309 0.03774 0.89939 0.0
O7 O 0.07426 0.14049 0.9367 0.0
C8 C 0.87954 0.93346 0.11264 0.0
C9 C 0.88446 0.94143 0.25416 0.0
C10 C 0.81388 0.88932 0.17855 0.0
C11 C 0.81087 0.88546 0.1063 0.0
C12 C 0.95202 0.99054 0.26165 0.0
C13 C 0.94964 0.98672 0.19099 0.0
C14 C 0.87977 0.9311 0.0388 0.0
C15 C 0.97545 0.90384 0.87876 0.0
O16 O 0.18839 0.07459 0.95274 0.0
O17 O 0.23854 0.19556 0.01899 0.0
C18 C 1.00157 0.10525 0.8917 0.0
O19 O 0.18031 0.15163 0.12326 0.0
O20 O 0.07219 0.12863 0.08261 0.0
O21 O 0.13828 0.99994 0.06996 0.0
O22 O 0.07288 0.98618 0.11932 0.0
C23 C 0.25985 0.19024 0.91921 0.0
C24 C 0.24414 0.26069 0.81732 0.0
C25 C 0.22955 0.22814 0.87372 0.0
C26 C 0.29726 0.26526 0.81458 0.0
C27 C 0.31965 0.218 0.84893 0.0
C28 C 0.3018 0.18135 0.90315 0.0
C29 C 0.24215 0.15461 0.97781 0.0
C30 C 0.14496 0.1685 0.13545 0.0
C31 C 0.12046 0.97998 0.12196 0.0
H32 H 0.88629 0.9478 0.30847 0.0
H33 H 0.75641 0.84662 0.04641 0.0
H34 H 1.00209 0.02571 0.19684 0.0
H35 H 0.18827 0.22446 0.87557 0.0
H36 H 0.30653 0.28907 0.76933 0.0
H37 H 0.31857 0.14455 0.93074 0.0
Eu38 Eu 0.62412 0.29461 0.3358 0.0
Eu39 Eu 0.76443 0.38912 0.30261 0.0
O40 O 0.59296 0.31318 0.4091 0.0
O41 O 0.51073 0.19997 0.30656 0.0
O42 O 0.65982 0.26233 0.21017 0.0
O43 O 0.61469 0.19327 0.28279 0.0
O44 O 0.57865 0.31945 0.21406 0.0
O45 O 0.68883 0.42329 0.2273 0.0
C46 C 0.50424 0.19426 0.42095 0.0
C47 C 0.47707 0.11572 0.52964 0.0
C48 C 0.44172 0.15006 0.49024 0.0
C49 C 0.45556 0.19013 0.4351 0.0
C50 C 0.53329 0.13023 0.52557 0.0
C51 C 0.54275 0.1643 0.46705 0.0
C52 C 0.52528 0.24089 0.3688 0.0
C53 C 0.62959 0.19544 0.22984 0.0
O54 O 0.82562 0.376 0.27099 0.0
O55 O 0.84586 0.49199 0.28471 0.0
C56 C 0.61591 0.38113 0.19209 0.0
O57 O 0.81665 0.47013 0.42331 0.0
O58 O 0.70381 0.43398 0.38152 0.0
O59 O 0.79802 0.33575 0.40587 0.0
O60 O 0.71457 0.28975 0.44006 0.0
C61 C 0.85537 0.45203 0.18634 0.0
C62 C 0.77769 0.41071 0.03577 0.0
C63 C 0.78394 0.41152 0.10927 0.0
C64 C 0.84338 0.45051 0.0402 0.0
C65 C 0.91435 0.48926 0.11404 0.0
C66 C 0.92116 0.4909 0.18858 0.0
C67 C 0.85944 0.44928 0.26305 0.0
C68 C 0.77741 0.47934 0.43547 0.0
C69 C 0.77431 0.30419 0.45218 0.0
H70 H 0.46978 0.08949 0.57509 0.0
H71 H 0.43004 0.21871 0.40485 0.0
H72 H 0.58711 0.17695 0.46488 0.0
H73 H 0.73324 0.37885 0.1065 0.0
H74 H 0.83955 0.44736 0.98426 0.0
H75 H 0.97615 0.52063 0.24698 0.0
Eu76 Eu 0.30839 0.66673 0.67817 0.0
Eu77 Eu 0.45099 0.72817 0.658 0.0
O78 O 0.27565 0.69052 0.74653 0.0
O79 O 0.19008 0.58417 0.63598 0.0
O80 O 0.33368 0.62129 0.55098 0.0
O81 O 0.2814 0.55461 0.61772 0.0
O82 O 0.28518 0.71187 0.56738 0.0
O83 O 0.40604 0.79777 0.60056 0.0
C84 C 0.18021 0.56874 0.74719 0.0
C85 C 0.15595 0.48843 0.85656 0.0
C86 C 0.11936 0.52223 0.81832 0.0
C87 C 0.13192 0.56286 0.76267 0.0
C88 C 0.21135 0.50434 0.85007 0.0
C89 C 0.21744 0.53674 0.78955 0.0
C90 C 0.20547 0.6217 0.70092 0.0
C91 C 0.28965 0.55306 0.5599 0.0
O92 O 0.51014 0.69599 0.64367 0.0
O93 O 0.52913 0.80853 0.62489 0.0
C94 C 0.33593 0.77186 0.55747 0.0
O95 O 0.51105 0.80443 0.78663 0.0
O96 O 0.41242 0.80071 0.74952 0.0
O97 O 0.45314 0.64801 0.74207 0.0
O98 O 0.37659 0.63365 0.77483 0.0
C99 C 0.53375 0.73417 0.54384 0.0
C100 C 0.45424 0.63459 0.40801 0.0
C101 C 0.46175 0.66643 0.4744 0.0
C102 C 0.51909 0.66578 0.41397 0.0
C103 C 0.58808 0.74287 0.47172 0.0
C104 C 0.5964 0.77677 0.53921 0.0
C105 C 0.54157 0.75762 0.61942 0.0
C106 C 0.48061 0.82464 0.80545 0.0
C107 C 0.4243 0.62381 0.78429 0.0
H108 H 0.15371 0.46513 0.90538 0.0
H109 H 0.10733 0.59275 0.7346 0.0
H110 H 0.26118 0.55044 0.78574 0.0
H111 H 0.4114 0.64094 0.47033 0.0
H112 H 0.51154 0.6407 0.36118 0.0
H113 H 0.65027 0.83493 0.5869 0.0
H114 H 0.10886 0.11623 0.71516 0.0
H115 H 0.24753 0.3749 0.73672 0.0
H116 H 0.18829 0.33382 0.5876 0.0
H117 H 0.15971 0.06991 0.62295 0.0
H118 H 0.07308 0.96535 0.5579 0.0
H119 H 0.0977 0.01064 0.65299 0.0
H120 H 0.97107 0.98749 0.57647 0.0
H121 H 0.94448 0.93521 0.48301 0.0
H122 H 0.94298 0.02009 0.48762 0.0
H123 H 0.1244 0.25851 0.43744 0.0
H124 H 0.05585 0.15907 0.30346 0.0
H125 H 0.99938 0.95927 0.40507 0.0
C126 C 0.12257 0.16447 0.68735 0.0
C127 C 0.18268 0.24864 0.73724 0.0
C128 C 0.20089 0.31014 0.69925 0.0
C129 C 0.16883 0.28702 0.61487 0.0
C130 C 0.11969 0.20258 0.57074 0.0
C131 C 0.09625 0.14231 0.60593 0.0
C132 C 0.057 0.05795 0.5538 0.0
C133 C 0.09944 0.02405 0.59975 0.0
C134 C 0.97395 0.99659 0.5234 0.0
C135 C 0.06263 0.07992 0.4842 0.0
C136 C 0.09644 0.16274 0.49301 0.0
C137 C 0.09935 0.19404 0.43068 0.0
C138 C 0.06133 0.13765 0.35532 0.0
C139 C 1.02182 0.05185 0.34416 0.0
C140 C 1.02973 0.02484 0.41239 0.0
H141 H 0.67326 0.27676 0.61977 0.0
H142 H 0.54181 0.02313 0.61394 0.0
H143 H 0.57788 0.07212 0.75078 0.0
H144 H 0.8162 0.39022 0.85775 0.0
H145 H 0.80799 0.47006 0.83553 0.0
H146 H 0.80085 0.41274 0.76401 0.0
H147 H 0.67292 0.38416 0.65441 0.0
H148 H 0.67514 0.42851 0.7301 0.0
H149 H 0.59661 0.3217 0.66377 0.0
H150 H 0.59663 0.14653 0.86554 0.0
H151 H 0.65214 0.24925 0.98891 0.0
H152 H 0.73579 0.4455 0.89127 0.0
C153 C 0.65665 0.23178 0.64993 0.0
C154 C 0.59898 0.14616 0.60394 0.0
C155 C 0.58285 0.08931 0.64696 0.0
C156 C 0.601 0.1166 0.72361 0.0
C157 C 0.6397 0.20085 0.75675 0.0
C158 C 0.67069 0.25844 0.72337 0.0
C159 C 0.70016 0.34297 0.76249 0.0
C160 C 0.78641 0.40778 0.80757 0.0
C161 C 0.65878 0.37107 0.69891 0.0
C162 C 0.67987 0.32364 0.82214 0.0
C163 C 0.64568 0.24175 0.81843 0.0
C164 C 0.62711 0.21172 0.87221 0.0
C165 C 0.6568 0.26987 0.94045 0.0
C166 C 0.70425 0.35573 0.95269 0.0
C167 C 0.70271 0.38018 0.88502 0.0
H168 H 0.23549 0.40802 0.9444 0.0
H169 H 0.34179 0.65965 0.93746 0.0
H170 H 0.39857 0.71176 0.08269 0.0
H171 H 0.18784 0.40739 0.05988 0.0
H172 H 0.21883 0.3589 0.12986 0.0
H173 H 0.19799 0.33814 0.03019 0.0
H174 H 0.33249 0.38812 0.09493 0.0
H175 H 0.35083 0.40145 0.19446 0.0
H176 H 0.4141 0.48679 0.17671 0.0
H177 H 0.38971 0.72174 0.19763 0.0
H178 H 0.4136 0.72285 0.33268 0.0
H179 H 0.35154 0.47851 0.28898 0.0
C180 C 0.27615 0.47463 0.97535 0.0
C181 C 0.28112 0.52947 0.92912 0.0
C182 C 0.33565 0.61635 0.97139 0.0
C183 C 0.36669 0.64658 0.05355 0.0
C184 C 0.34911 0.58933 0.09367 0.0
C185 C 0.31268 0.50694 0.05973 0.0
C186 C 0.30571 0.46075 0.11985 0.0
C187 C 0.22251 0.3869 0.08248 0.0
C188 C 0.35369 0.43267 0.14824 0.0
C189 C 0.33854 0.52891 0.18937 0.0
C190 C 0.35893 0.60081 0.16992 0.0
C191 C 0.37912 0.66807 0.21678 0.0
C192 C 0.38972 0.66667 0.29205 0.0
C193 C 0.38791 0.60265 0.3226 0.0
C194 C 0.35508 0.5292 0.26776 0.0
H195 H 0.2015 0.75091 0.46171 0.0
H196 H 0.42093 0.88342 0.50951 0.0
H197 H 0.38826 0.94826 0.40575 0.0
H198 H 0.10161 0.71162 0.24594 0.0
H199 H 1.03535 0.72489 0.22949 0.0
H200 H 0.07244 0.6896 0.31236 0.0
H201 H 0.12968 0.81169 0.42545 0.0
H202 H 0.08245 0.83919 0.34141 0.0
H203 H 0.182 0.91537 0.4217 0.0
H204 H 0.33531 1.0013 0.29949 0.0
H205 H 0.26277 0.0367 0.19188 0.0
H206 H 0.0745 0.87288 0.2067 0.0
C207 C 0.24295 0.79415 0.4509 0.0
C208 C 0.31442 0.81204 0.49509 0.0
C209 C 0.3663 0.86863 0.47785 0.0
C210 C 0.34813 0.90587 0.41848 0.0
C211 C 0.27768 0.88679 0.37613 0.0
C212 C 0.22589 0.83295 0.39174 0.0
C213 C 0.15323 0.82214 0.33483 0.0
C214 C 0.08653 0.73165 0.27707 0.0
C215 C 0.13595 0.84865 0.38394 0.0
C216 C 0.1738 0.88089 0.28737 0.0
C217 C 0.24584 0.91667 0.31232 0.0
C218 C 0.27858 0.97308 0.27887 0.0
C219 C 0.23664 0.99285 0.21749 0.0
C220 C 0.16246 0.95754 0.18984 0.0
C221 C 0.13098 0.90122 0.2263 0.0
H222 H 0.18553 0.47942 0.39654 0.0
H223 H 0.3368 0.4636 0.61716 0.0
H224 H 0.31907 0.36309 0.53097 0.0
H225 H 0.05228 0.26231 0.26374 0.0
H226 H 0.04394 0.29008 0.17412 0.0
H227 H 0.06117 0.35366 0.25145 0.0
H228 H 0.17141 0.47702 0.25971 0.0
H229 H 0.1738 0.42369 0.19621 0.0
H230 H 0.25448 0.48728 0.30168 0.0
H231 H 0.2974 0.27888 0.42119 0.0
H232 H 0.25547 0.19856 0.2928 0.0
H233 H 0.11702 0.26972 0.14815 0.0
C234 C 0.21136 0.45096 0.42624 0.0
C235 C 0.26056 0.47632 0.51231 0.0
C236 C 0.29702 0.44202 0.55058 0.0
C237 C 0.28795 0.38587 0.50248 0.0
C238 C 0.24155 0.36466 0.41715 0.0
C239 C 0.20195 0.39418 0.37936 0.0
C240 C 0.16045 0.36752 0.28739 0.0
C241 C 0.07442 0.31515 0.24148 0.0
C242 C 0.19171 0.44324 0.2594 0.0
C243 C 0.1815 0.31679 0.27918 0.0
C244 C 0.22955 0.31709 0.35449 0.0
C245 C 0.25912 0.27737 0.36162 0.0
C246 C 0.23613 0.23317 0.28897 0.0
C247 C 0.1838 0.22906 0.21155 0.0
C248 C 0.15739 0.27239 0.20702 0.0
H249 H 0.65305 0.69793 0.43704 0.0
H250 H 0.62651 0.88486 0.43209 0.0
H251 H 0.66214 0.92716 0.3366 0.0
H252 H 0.81371 0.81356 0.42988 0.0
H253 H 0.78097 0.7257 0.36178 0.0
H254 H 0.75406 0.70981 0.42985 0.0
H255 H 0.61348 0.60729 0.3094 0.0
H256 H 0.63707 0.62037 0.2382 0.0
H257 H 0.57411 0.63822 0.22337 0.0
H258 H 0.68581 0.93647 0.22526 0.0
H259 H 0.73513 0.9433 0.14742 0.0
H260 H 0.75577 0.75883 0.23369 0.0
C261 C 0.65821 0.75044 0.41899 0.0
C262 C 0.6388 0.78952 0.44465 0.0
C263 C 0.64341 0.85568 0.41626 0.0
C264 C 0.66179 0.87868 0.36004 0.0
C265 C 0.67586 0.83529 0.33222 0.0
C266 C 0.67647 0.77413 0.36287 0.0
C267 C 0.6941 0.73728 0.32392 0.0
C268 C 0.76507 0.74737 0.39032 0.0
C269 C 0.62564 0.64536 0.27061 0.0
C270 C 0.70734 0.79005 0.2699 0.0
C271 C 0.69294 0.84347 0.2723 0.0
C272 C 0.69842 0.89573 0.22451 0.0
C273 C 0.72505 0.89822 0.17895 0.0
C274 C 0.74859 0.85125 0.18306 0.0
C275 C 0.73621 0.79381 0.22669 0.0
H276 H 0.72589 0.18408 0.52488 0.0
H277 H 0.92546 0.384 0.54079 0.0
H278 H 1.00232 0.35709 0.65582 0.0
H279 H 0.82032 0.21531 0.74446 0.0
H280 H 0.76683 0.10646 0.7336 0.0
H281 H 0.72484 0.14053 0.65307 0.0
H282 H 0.69635 0.04169 0.54559 0.0
H283 H 0.7362 1.00476 0.62422 0.0
H284 H 0.77183 0.04568 0.56423 0.0
H285 H 0.05808 0.3086 0.76596 0.0
H286 H 0.09115 0.24048 0.86421 0.0
H287 H 0.85695 0.06398 0.7799 0.0
C288 C 0.78587 0.22243 0.55298 0.0
C289 C 0.81941 0.28659 0.52318 0.0
C290 C 0.898 0.33446 0.5615 0.0
C291 C 0.94237 0.31976 0.62736 0.0
C292 C 0.9077 0.25588 0.65445 0.0
C293 C 0.8312 0.20734 0.61839 0.0
C294 C 0.80849 0.14045 0.65825 0.0
C295 C 0.77836 0.15133 0.69987 0.0
C296 C 0.74975 0.05298 0.59427 0.0
C297 C 0.88424 0.15913 0.7221 0.0
C298 C 0.94032 0.22653 0.71849 0.0
C299 C 1.0147 0.25607 0.76954 0.0
C300 C 1.03278 0.2161 0.82552 0.0
C301 C 0.97705 0.14577 0.831 0.0
C302 C 0.90132 0.11727 0.7781 0.0
H303 H 0.89275 0.64749 0.511 0.0
H304 H 0.73851 0.42521 0.5372 0.0
H305 H 0.78152 0.51024 0.66225 0.0
H306 H 0.04616 0.7649 0.73977 0.0
H307 H 0.06886 0.86248 0.72655 0.0
H308 H 1.03525 0.78409 0.64645 0.0
H309 H 0.92381 0.7855 0.53914 0.0
H310 H 0.96261 0.86687 0.6206 0.0
H311 H 0.8653 0.77445 0.56595 0.0
H312 H 0.82431 0.61683 0.76832 0.0
H313 H 0.87446 0.74173 0.86005 0.0
H314 H 1.0028 0.8968 0.7676 0.0
C315 C 0.87002 0.61722 0.54483 0.0
C316 C 0.8125 0.53054 0.51539 0.0
C317 C 0.78228 0.49198 0.55925 0.0
C318 C 0.80655 0.5395 0.6303 0.0
C319 C 0.86113 0.62529 0.65636 0.0
C320 C 0.89345 0.6641 0.61597 0.0
C321 C 0.9471 0.7578 0.65412 0.0
C322 C 1.02922 0.79445 0.69414 0.0
C323 C 0.92319 0.79839 0.59099 0.0
C324 C 0.93598 0.76492 0.7185 0.0
C325 C 0.88709 0.68776 0.71948 0.0
C326 C 0.86379 0.67788 0.7694 0.0
C327 C 0.89194 0.74916 0.82058 0.0
C328 C 0.94236 0.82901 0.82083 0.0
C329 C 0.96453 0.83667 0.76905 0.0
H330 H 0.47726 0.28184 0.58348 0.0
H331 H 0.31698 0.0144 0.47235 0.0
H332 H 0.2778 1.00216 0.56186 0.0
H333 H 0.53633 0.28045 0.78434 0.0
H334 H 0.54831 0.36858 0.81883 0.0
H335 H 0.55859 0.36175 0.73915 0.0
H336 H 0.45305 0.37124 0.63554 0.0
H337 H 0.44789 0.38638 0.71781 0.0
H338 H 0.36356 0.30395 0.62106 0.0
H339 H 0.26237 0.01691 0.67179 0.0
H340 H 0.25695 0.06038 0.777 0.0
H341 H 0.4282 0.31822 0.82139 0.0
C342 C 0.43174 0.22096 0.57553 0.0
C343 C 0.39925 0.14877 0.51877 0.0
C344 C 0.34092 0.07047 0.51252 0.0
C345 C 0.31916 0.06286 0.56442 0.0
C346 C 0.35527 0.13438 0.62271 0.0
C347 C 0.40901 0.21227 0.62732 0.0
C348 C 0.44107 0.27875 0.69823 0.0
C349 C 0.52615 0.32523 0.764 0.0
C350 C 0.42558 0.3388 0.66626 0.0
C351 C 0.3959 0.2262 0.73118 0.0
C352 C 0.34768 0.14284 0.68758 0.0
C353 C 0.29996 0.0822 0.70621 0.0
C354 C 0.29817 0.10743 0.76742 0.0
C355 C 0.34289 0.19277 0.80906 0.0
C356 C 0.39432 0.2525 0.79212 0.0
H357 H 0.66302 0.48961 0.11075 0.0
H358 H 0.47447 0.33027 0.126 0.0
H359 H 0.40753 0.37508 0.02492 0.0
H360 H 0.65382 0.65727 0.08933 0.0
H361 H 0.67766 0.68052 0.01795 0.0
H362 H 0.71152 0.63649 0.09224 0.0
H363 H 0.64788 0.51364 0.97247 0.0
H364 H 0.6159 0.56002 0.89983 0.0
H365 H 0.54851 0.45457 0.88917 0.0
H366 H 0.36347 0.44244 0.92888 0.0
H367 H 0.33915 0.51761 0.83388 0.0
H368 H 0.55072 0.62931 0.87003 0.0
C369 C 0.60745 0.4637 0.09253 0.0
C370 C 0.57444 0.40611 0.12719 0.0
C371 C 0.50141 0.37403 0.10096 0.0
C372 C 0.46276 0.39932 0.0434 0.0
C373 C 0.49699 0.45622 0.01111 0.0
C374 C 0.56731 0.48753 0.03389 0.0
C375 C 0.59076 0.54801 0.98907 0.0
C376 C 0.66282 0.63581 0.05086 0.0
C377 C 0.60149 0.51725 0.93445 0.0
C378 C 0.52233 0.54511 0.93712 0.0
C379 C 0.46971 0.49262 0.95221 0.0
C380 C 0.40381 0.48264 0.91575 0.0
C381 C 0.39069 0.52636 0.86185 0.0
C382 C 0.44225 0.57925 0.84301 0.0
C383 C 0.50926 0.58846 0.88156 0.0
H384 H 0.6178 0.97394 0.92202 0.0
H385 H 0.41463 0.7502 0.88073 0.0
H386 H 0.45168 0.81419 0.01219 0.0
H387 H 0.74586 0.0564 0.17554 0.0
H388 H 0.78609 0.1573 0.16524 0.0
H389 H 0.75857 0.07568 0.09487 0.0
H390 H 0.67877 0.11428 0.97847 0.0
H391 H 0.70533 0.1862 0.05711 0.0
H392 H 0.60599 0.10259 0.97756 0.0
H393 H 0.48857 0.90965 0.12259 0.0
H394 H 0.52328 0.03083 0.20214 0.0
H395 H 0.69968 0.196 0.17042 0.0
C396 C 0.58392 0.9375 0.94367 0.0
C397 C 0.51386 0.85749 0.8922 0.0
C398 C 0.46867 0.8117 0.91979 0.0
C399 C 0.48976 0.84714 0.99497 0.0
C400 C 0.55663 0.92844 0.04241 0.0
C401 C 0.60436 0.97286 0.01903 0.0
C402 C 0.66357 0.06411 0.07123 0.0
C403 C 0.74312 0.08961 0.12999 0.0
C404 C 0.66321 0.11998 0.01766 0.0
C405 C 0.63538 0.0651 0.11897 0.0
C406 C 0.57642 0.98584 0.10512 0.0
C407 C 0.53608 0.97197 0.13573 0.0
C408 C 0.55558 0.04096 0.18016 0.0
C409 C 0.61328 0.12232 0.19116 0.0
C410 C 0.65489 0.13419 0.16229 0.0
H411 H 1.0376 0.40838 0.87158 0.0
H412 H 0.12292 0.65316 0.84843 0.0
H413 H 0.09092 0.67678 0.93373 0.0
H414 H 0.88863 0.3565 0.87231 0.0
H415 H 0.90312 0.31146 0.95348 0.0
H416 H 0.93023 0.30794 0.88995 0.0
H417 H 0.06603 0.37969 0.01073 0.0
H418 H 0.04429 0.38198 0.0806 0.0
H419 H 0.12071 0.47691 0.08613 0.0
H420 H 0.0528 0.67508 0.02717 0.0
H421 H 0.99754 0.64087 0.10307 0.0
H422 H 0.95277 0.40552 0.08091 0.0
C423 C 0.04946 0.46711 0.8838 0.0
C424 C 0.08354 0.52903 0.85267 0.0
C425 C 0.09606 0.60387 0.86966 0.0
C426 C 0.0792 0.6185 0.91959 0.0
C427 C 0.05063 0.55835 0.95353 0.0
C428 C 1.03538 0.48382 0.93564 0.0
C429 C 1.00699 0.4302 0.98169 0.0
C430 C 0.92746 0.34667 0.92085 0.0
C431 C 0.06288 0.41642 0.04346 0.0
C432 C 1.00631 0.48505 0.02665 0.0
C433 C 1.03262 0.55918 0.01036 0.0
C434 C 1.03405 0.61816 0.04191 0.0
C435 C 1.00479 0.59948 0.08772 0.0
C436 C 0.9759 0.52333 0.10415 0.0
C437 C 0.97873 0.46648 0.07438 0.0
loop_
_geom_bond_atom_site_label_1
_geom_bond_atom_site_label_2
_geom_bond_distance
_geom_bond_site_symmetry_2
_ccdc_geom_bond_type
Eu0 O2 2.481 . S
Eu0 O3 2.515 . S
Eu0 O5 2.328 1_554 S
Eu0 O6 2.384 1_564 S
Eu0 C14 2.845 . S
Eu0 O20 2.398 1_665 S
Eu0 O22 2.322 1_655 S
Eu1 O4 2.397 1_445 S
Eu1 O7 2.322 1_455 S
Eu1 O16 2.477 . S
Eu1 O17 2.511 . S
Eu1 O19 2.332 1_556 S
Eu1 O21 2.386 1_546 S
Eu1 C29 2.840 . S
O2 Eu0 2.481 . S
O2 C14 1.258 . S
O3 Eu0 2.515 . S
O3 C14 1.246 . S
O4 Eu1 2.397 1_665 S
O4 C15 1.216 . S
O5 Eu0 2.328 1_556 S
O5 C15 1.279 . S
O6 Eu0 2.384 1_546 S
O6 C18 1.239 . S
O7 Eu1 2.322 1_655 S
O7 C18 1.249 . S
C8 C11 1.390 . S
C8 C13 1.370 . S
C8 C14 1.489 . S
C9 C10 1.344 . S
C9 C12 1.413 . S
C9 H32 0.931 . S
C10 C9 1.344 . S
C10 C11 1.423 . S
C11 C8 1.390 . S
C11 C10 1.423 . S
C11 H33 0.930 . S
C12 C9 1.413 . S
C12 C13 1.397 . S
C13 C8 1.370 . S
C13 C12 1.397 . S
C13 H34 0.932 . S
C14 Eu0 2.845 . S
C14 O2 1.258 . S
C14 O3 1.246 . S
C14 C8 1.489 . S
C15 O4 1.216 . S
C15 O5 1.279 . S
O16 Eu1 2.477 . S
O16 C29 1.258 . S
O17 Eu1 2.511 . S
O17 C29 1.246 . S
C18 O6 1.239 . S
C18 O7 1.249 . S
O19 Eu1 2.332 1_554 S
O19 C30 1.279 . S
O20 Eu0 2.398 1_445 S
O20 C30 1.216 . S
O21 Eu1 2.386 1_564 S
O21 C31 1.239 . S
O22 Eu0 2.322 1_455 S
O22 C31 1.249 . S
C23 C25 1.370 . S
C23 C28 1.390 . S
C23 C29 1.489 . S
C24 C25 1.397 . S
C24 C26 1.413 . S
C25 C23 1.370 . S
C25 C24 1.397 . S
C25 H35 0.932 . S
C26 C24 1.413 . S
C26 C27 1.344 . S
C26 H36 0.931 . S
C27 C26 1.344 . S
C27 C28 1.423 . S
C28 C23 1.390 . S
C28 C27 1.423 . S
C28 H37 0.930 . S
C29 Eu1 2.840 . S
C29 O16 1.258 . S
C29 O17 1.246 . S
C29 C23 1.489 . S
C30 O19 1.279 . S
C30 O20 1.216 . S
C31 O21 1.239 . S
C31 O22 1.249 . S
H32 C9 0.931 . S
H33 C11 0.930 . S
H34 C13 0.932 . S
H35 C25 0.932 . S
H36 C26 0.931 . S
H37 C28 0.930 . S
Eu38 O40 2.472 . S
Eu38 O41 2.507 . S
Eu38 O43 2.336 . S
Eu38 O44 2.389 . S
Eu38 C52 2.835 . S
Eu38 O58 2.396 . S
Eu38 O60 2.323 . S
Eu39 O42 2.396 . S
Eu39 O45 2.323 . S
Eu39 O54 2.472 . S
Eu39 O55 2.507 . S
Eu39 O57 2.336 . S
Eu39 O59 2.389 . S
Eu39 C67 2.835 . S
O40 Eu38 2.472 . S
O40 C52 1.258 . S
O41 Eu38 2.507 . S
O41 C52 1.246 . S
O42 Eu39 2.396 . S
O42 C53 1.216 . S
O43 Eu38 2.336 . S
O43 C53 1.279 . S
O44 Eu38 2.389 . S
O44 C56 1.239 . S
O45 Eu39 2.323 . S
O45 C56 1.249 . S
C46 C49 1.390 . S
C46 C51 1.370 . S
C46 C52 1.489 . S
C47 C48 1.344 . S
C47 C50 1.413 . S
C47 H70 0.931 . S
C48 C47 1.344 . S
C48 C49 1.423 . S
C49 C46 1.390 . S
C49 C48 1.423 . S
C49 H71 0.930 . S
C50 C47 1.413 . S
C50 C51 1.397 . S
C51 C46 1.370 . S
C51 C50 1.397 . S
C51 H72 0.932 . S
C52 Eu38 2.835 . S
C52 O40 1.258 . S
C52 O41 1.246 . S
C52 C46 1.489 . S
C53 O42 1.216 . S
C53 O43 1.279 . S
O54 Eu39 2.472 . S
O54 C67 1.258 . S
O55 Eu39 2.507 . S
O55 C67 1.246 . S
C56 O44 1.239 . S
C56 O45 1.249 . S
O57 Eu39 2.336 . S
O57 C68 1.279 . S
O58 Eu38 2.396 . S
O58 C68 1.216 . S
O59 Eu39 2.389 . S
O59 C69 1.239 . S
O60 Eu38 2.323 . S
O60 C69 1.249 . S
C61 C63 1.370 . S
C61 C66 1.390 . S
C61 C67 1.489 . S
C62 C63 1.397 . S
C62 C64 1.413 . S
C63 C61 1.370 . S
C63 C62 1.397 . S
C63 H73 0.932 . S
C64 C62 1.413 . S
C64 C65 1.344 . S
C64 H74 0.931 . S
C65 C64 1.344 . S
C65 C66 1.423 . S
C66 C61 1.390 . S
C66 C65 1.423 . S
C66 H75 0.930 . S
C67 Eu39 2.835 . S
C67 O54 1.258 . S
C67 O55 1.246 . S
C67 C61 1.489 . S
C68 O57 1.279 . S
C68 O58 1.216 . S
C69 O59 1.239 . S
C69 O60 1.249 . S
H70 C47 0.931 . S
H71 C49 0.930 . S
H72 C51 0.932 . S
H73 C63 0.932 . S
H74 C64 0.931 . S
H75 C66 0.930 . S
Eu76 O78 2.472 . S
Eu76 O79 2.507 . S
Eu76 O81 2.336 . S
Eu76 O82 2.389 . S
Eu76 C90 2.835 . S
Eu76 O96 2.396 . S
Eu76 O98 2.323 . S
Eu77 O80 2.396 . S
Eu77 O83 2.323 . S
Eu77 O92 2.472 . S
Eu77 O93 2.507 . S
Eu77 O95 2.336 . S
Eu77 O97 2.389 . S
Eu77 C105 2.835 . S
O78 Eu76 2.472 . S
O78 C90 1.258 . S
O79 Eu76 2.507 . S
O79 C90 1.246 . S
O80 Eu77 2.396 . S
O80 C91 1.216 . S
O81 Eu76 2.336 . S
O81 C91 1.279 . S
O82 Eu76 2.389 . S
O82 C94 1.239 . S
O83 Eu77 2.323 . S
O83 C94 1.249 . S
C84 C87 1.390 . S
C84 C89 1.370 . S
C84 C90 1.489 . S
C85 C86 1.344 . S
C85 C88 1.413 . S
C85 H108 0.931 . S
C86 C85 1.344 . S
C86 C87 1.423 . S
C87 C84 1.390 . S
C87 C86 1.423 . S
C87 H109 0.930 . S
C88 C85 1.413 . S
C88 C89 1.397 . S
C89 C84 1.370 . S
C89 C88 1.397 . S
C89 H110 0.932 . S
C90 Eu76 2.835 . S
C90 O78 1.258 . S
C90 O79 1.246 . S
C90 C84 1.489 . S
C91 O80 1.216 . S
C91 O81 1.279 . S
O92 Eu77 2.472 . S
O92 C105 1.258 . S
O93 Eu77 2.507 . S
O93 C105 1.246 . S
C94 O82 1.239 . S
C94 O83 1.249 . S
O95 Eu77 2.336 . S
O95 C106 1.279 . S
O96 Eu76 2.396 . S
O96 C106 1.216 . S
O97 Eu77 2.389 . S
O97 C107 1.239 . S
O98 Eu76 2.323 . S
O98 C107 1.249 . S
C99 C101 1.370 . S
C99 C104 1.390 . S
C99 C105 1.489 . S
C100 C101 1.397 . S
C100 C102 1.413 . S
C101 C99 1.370 . S
C101 C100 1.397 . S
C101 H111 0.932 . S
C102 C100 1.413 . S
C102 C103 1.344 . S
C102 H112 0.931 . S
C103 C102 1.344 . S
C103 C104 1.423 . S
C104 C99 1.390 . S
C104 C103 1.423 . S
C104 H113 0.930 . S
C105 Eu77 2.835 . S
C105 O92 1.258 . S
C105 O93 1.246 . S
C105 C99 1.489 . S
C106 O95 1.279 . S
C106 O96 1.216 . S
C107 O97 1.239 . S
C107 O98 1.249 . S
H108 C85 0.931 . S
H109 C87 0.930 . S
H110 C89 0.932 . S
H111 C101 0.932 . S
H112 C102 0.931 . S
H113 C104 0.930 . S
H114 C126 0.930 . S
H115 C128 0.930 . S
H116 C129 0.930 . S
H117 C133 0.959 1_545 S
H118 C133 0.959 . S
H119 C133 0.961 1_545 S
H120 C134 0.960 . S
H121 C134 0.961 1_655 S
H122 C134 0.959 1_655 S
H123 C137 0.929 . S
H124 C138 0.931 . S
H125 C140 0.930 . S
C126 H114 0.930 . S
C126 C127 1.399 . S
C126 C131 1.399 . S
C127 C126 1.399 . S
C127 C128 1.376 . S
C128 H115 0.930 . S
C128 C127 1.376 . S
C128 C129 1.388 1_455 S
C129 H116 0.930 . S
C129 C128 1.388 1_655 S
C129 C130 1.390 . S
C130 C129 1.390 . S
C130 C131 1.394 1_655 S
C130 C136 1.465 1_545 S
C131 C126 1.399 . S
C131 C130 1.394 1_455 S
C131 C132 1.516 1_545 S
C132 C131 1.516 1_565 S
C132 C133 1.502 . S
C132 C134 1.561 . S
C132 C135 1.526 1_455 S
C133 H117 0.959 1_565 S
C133 H118 0.959 . S
C133 H119 0.961 1_565 S
C133 C132 1.502 . S
C134 H120 0.960 . S
C134 H121 0.961 1_455 S
C134 H122 0.959 1_455 S
C134 C132 1.561 . S
C135 C132 1.526 1_655 S
C135 C136 1.396 . S
C135 C140 1.390 . S
C136 C130 1.465 1_565 S
C136 C135 1.396 . S
C136 C137 1.399 . S
C137 H123 0.929 . S
C137 C136 1.399 . S
C137 C138 1.385 . S
C138 H124 0.931 . S
C138 C137 1.385 . S
C138 C139 1.389 . S
C139 C138 1.389 . S
C139 C140 1.387 . S
C140 H125 0.930 . S
C140 C135 1.390 . S
C140 C139 1.387 . S
H141 C153 0.930 . S
H142 C155 0.930 . S
H143 C156 0.930 . S
H144 C160 0.959 . S
H145 C160 0.959 . S
H146 C160 0.961 . S
H147 C161 0.960 . S
H148 C161 0.961 . S
H149 C161 0.959 . S
H150 C164 0.929 . S
H151 C165 0.931 . S
H152 C167 0.930 . S
C153 H141 0.930 . S
C153 C154 1.399 . S
C153 C158 1.399 . S
C154 C153 1.399 . S
C154 C155 1.376 . S
C155 H142 0.930 . S
C155 C154 1.376 . S
C155 C156 1.388 . S
C156 H143 0.930 . S
C156 C155 1.388 . S
C156 C157 1.390 . S
C157 C156 1.390 . S
C157 C158 1.394 . S
C157 C163 1.465 . S
C158 C153 1.399 . S
C158 C157 1.394 . S
C158 C159 1.516 . S
C159 C158 1.516 . S
C159 C160 1.502 . S
C159 C161 1.561 . S
C159 C162 1.526 . S
C160 H144 0.959 . S
C160 H145 0.959 . S
C160 H146 0.961 . S
C160 C159 1.502 . S
C161 H147 0.960 . S
C161 H148 0.961 . S
C161 H149 0.959 . S
C161 C159 1.561 . S
C162 C159 1.526 . S
C162 C163 1.396 . S
C162 C167 1.390 . S
C163 C157 1.465 . S
C163 C162 1.396 . S
C163 C164 1.399 . S
C164 H150 0.929 . S
C164 C163 1.399 . S
C164 C165 1.385 1_556 S
C165 H151 0.931 . S
C165 C164 1.385 1_554 S
C165 C166 1.389 . S
C166 C165 1.389 . S
C166 C167 1.387 1_554 S
C167 H152 0.930 . S
C167 C162 1.390 . S
C167 C166 1.387 1_556 S
H168 C180 0.930 . S
H169 C182 0.930 . S
H170 C183 0.930 . S
H171 C187 0.959 . S
H172 C187 0.959 . S
H173 C187 0.961 . S
H174 C188 0.960 . S
H175 C188 0.961 . S
H176 C188 0.959 . S
H177 C191 0.929 . S
H178 C192 0.931 . S
H179 C194 0.930 . S
C180 H168 0.930 . S
C180 C181 1.399 1_554 S
C180 C185 1.399 . S
C181 C180 1.399 1_556 S
C181 C182 1.376 . S
C182 H169 0.930 . S
C182 C181 1.376 . S
C182 C183 1.388 1_556 S
C183 H170 0.930 . S
C183 C182 1.388 1_554 S
C183 C184 1.390 . S
C184 C183 1.390 . S
C184 C185 1.394 . S
C184 C190 1.465 . S
C185 C180 1.399 . S
C185 C184 1.394 . S
C185 C186 1.516 . S
C186 C185 1.516 . S
C186 C187 1.502 . S
C186 C188 1.561 . S
C186 C189 1.526 . S
C187 H171 0.959 . S
C187 H172 0.959 . S
C187 H173 0.961 . S
C187 C186 1.502 . S
C188 H174 0.960 . S
C188 H175 0.961 . S
C188 H176 0.959 . S
C188 C186 1.561 . S
C189 C186 1.526 . S
C189 C190 1.396 . S
C189 C194 1.390 . S
C190 C184 1.465 . S
C190 C189 1.396 . S
C190 C191 1.399 . S
C191 H177 0.929 . S
C191 C190 1.399 . S
C191 C192 1.385 . S
C192 H178 0.931 . S
C192 C191 1.385 . S
C192 C193 1.389 . S
C193 C192 1.389 . S
C193 C194 1.387 . S
C194 H179 0.930 . S
C194 C189 1.390 . S
C194 C193 1.387 . S
H195 C207 0.930 . S
H196 C209 0.930 . S
H197 C210 0.930 . S
H198 C214 0.959 . S
H199 C214 0.959 . S
H200 C214 0.961 . S
H201 C215 0.961 1_655 S
H202 C215 0.961 1_655 S
H203 C215 0.959 . S
H204 C218 0.929 1_545 S
H205 C219 0.931 1_545 S
H206 C221 0.930 . S
C207 H195 0.930 . S
C207 C208 1.399 . S
C207 C212 1.399 . S
C208 C207 1.399 . S
C208 C209 1.376 . S
C209 H196 0.930 . S
C209 C208 1.376 . S
C209 C210 1.388 . S
C210 H197 0.930 . S
C210 C209 1.388 . S
C210 C211 1.390 . S
C211 C210 1.390 . S
C211 C212 1.394 . S
C211 C217 1.465 . S
C212 C207 1.399 . S
C212 C211 1.394 . S
C212 C213 1.516 . S
C213 C212 1.516 . S
C213 C214 1.502 . S
C213 C215 1.561 . S
C213 C216 1.526 . S
C214 H198 0.959 . S
C214 H199 0.959 . S
C214 H200 0.961 . S
C214 C213 1.502 . S
C215 H201 0.961 1_455 S
C215 H202 0.961 1_455 S
C215 H203 0.959 . S
C215 C213 1.561 . S
C216 C213 1.526 . S
C216 C217 1.396 . S
C216 C221 1.390 . S
C217 C211 1.465 . S
C217 C216 1.396 . S
C217 C218 1.399 . S
C218 H204 0.929 1_565 S
C218 C217 1.399 . S
C218 C219 1.385 . S
C219 H205 0.931 1_565 S
C219 C218 1.385 . S
C219 C220 1.389 . S
C220 C219 1.389 . S
C220 C221 1.387 . S
C221 H206 0.930 . S
C221 C216 1.390 . S
C221 C220 1.387 . S
H222 C234 0.930 . S
H223 C236 0.930 . S
H224 C237 0.930 . S
H225 C241 0.959 . S
H226 C241 0.959 . S
H227 C241 0.961 . S
H228 C242 0.960 . S
H229 C242 0.961 . S
H230 C242 0.959 . S
H231 C245 0.929 . S
H232 C246 0.931 . S
H233 C248 0.930 . S
C234 H222 0.930 . S
C234 C235 1.399 . S
C234 C239 1.399 . S
C235 C234 1.399 . S
C235 C236 1.376 . S
C236 H223 0.930 . S
C236 C235 1.376 . S
C236 C237 1.388 . S
C237 H224 0.930 . S
C237 C236 1.388 . S
C237 C238 1.390 . S
C238 C237 1.390 . S
C238 C239 1.394 . S
C238 C244 1.465 . S
C239 C234 1.399 . S
C239 C238 1.394 . S
C239 C240 1.516 . S
C240 C239 1.516 . S
C240 C241 1.502 . S
C240 C242 1.561 . S
C240 C243 1.526 . S
C241 H225 0.959 . S
C241 H226 0.959 . S
C241 H227 0.961 . S
C241 C240 1.502 . S
C242 H228 0.960 . S
C242 H229 0.961 . S
C242 H230 0.959 . S
C242 C240 1.561 . S
C243 C240 1.526 . S
C243 C244 1.396 . S
C243 C248 1.390 . S
C244 C238 1.465 . S
C244 C243 1.396 . S
C244 C245 1.399 . S
C245 H231 0.929 . S
C245 C244 1.399 . S
C245 C246 1.385 . S
C246 H232 0.931 . S
C246 C245 1.385 . S
C246 C247 1.389 . S
C247 C246 1.389 . S
C247 C248 1.387 . S
C248 H233 0.930 . S
C248 C243 1.390 . S
C248 C247 1.387 . S
H249 C261 0.930 . S
H250 C263 0.930 . S
H251 C264 0.930 . S
H252 C268 0.959 . S
H253 C268 0.959 . S
H254 C268 0.961 . S
H255 C269 0.960 . S
H256 C269 0.961 . S
H257 C269 0.959 . S
H258 C272 0.929 . S
H259 C273 0.931 . S
H260 C275 0.930 . S
C261 H249 0.930 . S
C261 C262 1.399 . S
C261 C266 1.399 . S
C262 C261 1.399 . S
C262 C263 1.376 . S
C263 H250 0.930 . S
C263 C262 1.376 . S
C263 C264 1.388 . S
C264 H251 0.930 . S
C264 C263 1.388 . S
C264 C265 1.390 . S
C265 C264 1.390 . S
C265 C266 1.394 . S
C265 C271 1.465 . S
C266 C261 1.399 . S
C266 C265 1.394 . S
C266 C267 1.516 . S
C267 C266 1.516 . S
C267 C268 1.502 . S
C267 C269 1.561 . S
C267 C270 1.526 . S
C268 H252 0.959 . S
C268 H253 0.959 . S
C268 H254 0.961 . S
C268 C267 1.502 . S
C269 H255 0.960 . S
C269 H256 0.961 . S
C269 H257 0.959 . S
C269 C267 1.561 . S
C270 C267 1.526 . S
C270 C271 1.396 . S
C270 C275 1.390 . S
C271 C265 1.465 . S
C271 C270 1.396 . S
C271 C272 1.399 . S
C272 H258 0.929 . S
C272 C271 1.399 . S
C272 C273 1.385 . S
C273 H259 0.931 . S
C273 C272 1.385 . S
C273 C274 1.389 . S
C274 C273 1.389 . S
C274 C275 1.387 . S
C275 H260 0.930 . S
C275 C270 1.390 . S
C275 C274 1.387 . S
H276 C288 0.930 . S
H277 C290 0.930 . S
H278 C291 0.930 . S
H279 C295 0.959 . S
H280 C295 0.959 . S
H281 C295 0.961 . S
H282 C296 0.960 . S
H283 C296 0.961 . S
H284 C296 0.959 . S
H285 C299 0.929 . S
H286 C300 0.931 . S
H287 C302 0.930 . S
C288 H276 0.930 . S
C288 C289 1.399 . S
C288 C293 1.399 . S
C289 C288 1.399 . S
C289 C290 1.376 . S
C290 H277 0.930 . S
C290 C289 1.376 . S
C290 C291 1.388 . S
C291 H278 0.930 . S
C291 C290 1.388 . S
C291 C292 1.390 . S
C292 C291 1.390 . S
C292 C293 1.394 . S
C292 C298 1.465 . S
C293 C288 1.399 . S
C293 C292 1.394 . S
C293 C294 1.516 . S
C294 C293 1.516 . S
C294 C295 1.502 . S
C294 C296 1.561 . S
C294 C297 1.526 . S
C295 H279 0.959 . S
C295 H280 0.959 . S
C295 H281 0.961 . S
C295 C294 1.502 . S
C296 H282 0.960 . S
C296 H283 0.961 . S
C296 H284 0.959 . S
C296 C294 1.561 . S
C297 C294 1.526 . S
C297 C298 1.396 . S
C297 C302 1.390 . S
C298 C292 1.465 . S
C298 C297 1.396 . S
C298 C299 1.399 . S
C299 H285 0.929 . S
C299 C298 1.399 . S
C299 C300 1.385 . S
C300 H286 0.931 . S
C300 C299 1.385 . S
C300 C301 1.389 . S
C301 C300 1.389 . S
C301 C302 1.387 . S
C302 H287 0.930 . S
C302 C297 1.390 . S
C302 C301 1.387 . S
H303 C315 0.930 . S
H304 C317 0.930 . S
H305 C318 0.930 . S
H306 C322 0.959 . S
H307 C322 0.959 . S
H308 C322 0.961 . S
H309 C323 0.960 . S
H310 C323 0.961 . S
H311 C323 0.959 . S
H312 C326 0.929 . S
H313 C327 0.931 . S
H314 C329 0.930 . S
C315 H303 0.930 . S
C315 C316 1.399 . S
C315 C320 1.399 . S
C316 C315 1.399 . S
C316 C317 1.376 . S
C317 H304 0.930 . S
C317 C316 1.376 . S
C317 C318 1.388 . S
C318 H305 0.930 . S
C318 C317 1.388 . S
C318 C319 1.390 . S
C319 C318 1.390 . S
C319 C320 1.394 . S
C319 C325 1.465 . S
C320 C315 1.399 . S
C320 C319 1.394 . S
C320 C321 1.516 . S
C321 C320 1.516 . S
C321 C322 1.502 . S
C321 C323 1.561 . S
C321 C324 1.526 . S
C322 H306 0.959 . S
C322 H307 0.959 . S
C322 H308 0.961 . S
C322 C321 1.502 . S
C323 H309 0.960 . S
C323 H310 0.961 . S
C323 H311 0.959 . S
C323 C321 1.561 . S
C324 C321 1.526 . S
C324 C325 1.396 . S
C324 C329 1.390 . S
C325 C319 1.465 . S
C325 C324 1.396 . S
C325 C326 1.399 . S
C326 H312 0.929 . S
C326 C325 1.399 . S
C326 C327 1.385 . S
C327 H313 0.931 . S
C327 C326 1.385 . S
C327 C328 1.389 . S
C328 C327 1.389 . S
C328 C329 1.387 . S
C329 H314 0.930 . S
C329 C324 1.390 . S
C329 C328 1.387 . S
H330 C342 0.930 . S
H331 C344 0.930 . S
H332 C345 0.930 . S
H333 C349 0.959 . S
H334 C349 0.959 . S
H335 C349 0.961 . S
H336 C350 0.960 . S
H337 C350 0.961 . S
H338 C350 0.959 . S
H339 C353 0.929 1_565 S
H340 C354 0.931 1_565 S
H341 C356 0.930 . S
C342 H330 0.930 . S
C342 C343 1.399 . S
C342 C347 1.399 . S
C343 C342 1.399 . S
C343 C344 1.376 . S
C344 H331 0.930 . S
C344 C343 1.376 . S
C344 C345 1.388 . S
C345 H332 0.930 . S
C345 C344 1.388 . S
C345 C346 1.390 . S
C346 C345 1.390 . S
C346 C347 1.394 . S
C346 C352 1.465 . S
C347 C342 1.399 . S
C347 C346 1.394 . S
C347 C348 1.516 . S
C348 C347 1.516 . S
C348 C349 1.502 . S
C348 C350 1.561 . S
C348 C351 1.526 . S
C349 H333 0.959 . S
C349 H334 0.959 . S
C349 H335 0.961 . S
C349 C348 1.502 . S
C350 H336 0.960 . S
C350 H337 0.961 . S
C350 H338 0.959 . S
C350 C348 1.561 . S
C351 C348 1.526 . S
C351 C352 1.396 . S
C351 C356 1.390 . S
C352 C346 1.465 . S
C352 C351 1.396 . S
C352 C353 1.399 . S
C353 H339 0.929 1_545 S
C353 C352 1.399 . S
C353 C354 1.385 . S
C354 H340 0.931 1_545 S
C354 C353 1.385 . S
C354 C355 1.389 . S
C355 C354 1.389 . S
C355 C356 1.387 . S
C356 H341 0.930 . S
C356 C351 1.390 . S
C356 C355 1.387 . S
H357 C369 0.930 . S
H358 C371 0.930 . S
H359 C372 0.930 . S
H360 C376 0.959 . S
H361 C376 0.959 . S
H362 C376 0.961 . S
H363 C377 0.960 . S
H364 C377 0.961 . S
H365 C377 0.959 . S
H366 C380 0.929 . S
H367 C381 0.931 . S
H368 C383 0.930 . S
C369 H357 0.930 . S
C369 C370 1.399 . S
C369 C374 1.399 . S
C370 C369 1.399 . S
C370 C371 1.376 . S
C371 H358 0.930 . S
C371 C370 1.376 . S
C371 C372 1.388 . S
C372 H359 0.930 . S
C372 C371 1.388 . S
C372 C373 1.390 . S
C373 C372 1.390 . S
C373 C374 1.394 . S
C373 C379 1.465 1_554 S
C374 C369 1.399 . S
C374 C373 1.394 . S
C374 C375 1.516 1_554 S
C375 C374 1.516 1_556 S
C375 C376 1.502 . S
C375 C377 1.561 . S
C375 C378 1.526 . S
C376 H360 0.959 . S
C376 H361 0.959 . S
C376 H362 0.961 . S
C376 C375 1.502 . S
C377 H363 0.960 . S
C377 H364 0.961 . S
C377 H365 0.959 . S
C377 C375 1.561 . S
C378 C375 1.526 . S
C378 C379 1.396 . S
C378 C383 1.390 . S
C379 C373 1.465 1_556 S
C379 C378 1.396 . S
C379 C380 1.399 1_556 S
C380 H366 0.929 . S
C380 C379 1.399 1_554 S
C380 C381 1.385 1_554 S
C381 H367 0.931 . S
C381 C380 1.385 1_556 S
C381 C382 1.389 . S
C382 C381 1.389 . S
C382 C383 1.387 . S
C383 H368 0.930 . S
C383 C378 1.390 . S
C383 C382 1.387 . S
H384 C396 0.930 . S
H385 C398 0.930 . S
H386 C399 0.930 . S
H387 C403 0.959 . S
H388 C403 0.959 . S
H389 C403 0.961 . S
H390 C404 0.960 . S
H391 C404 0.961 . S
H392 C404 0.959 . S
H393 C407 0.929 . S
H394 C408 0.931 . S
H395 C410 0.930 . S
C396 H384 0.930 . S
C396 C397 1.399 . S
C396 C401 1.399 . S
C397 C396 1.399 . S
C397 C398 1.376 . S
C398 H385 0.930 . S
C398 C397 1.376 . S
C398 C399 1.388 . S
C399 H386 0.930 . S
C399 C398 1.388 . S
C399 C400 1.390 . S
C400 C399 1.390 . S
C400 C401 1.394 . S
C400 C406 1.465 1_556 S
C401 C396 1.399 . S
C401 C400 1.394 . S
C401 C402 1.516 1_565 S
C402 C401 1.516 1_545 S
C402 C403 1.502 1_556 S
C402 C404 1.561 . S
C402 C405 1.526 1_556 S
C403 H387 0.959 . S
C403 H388 0.959 . S
C403 H389 0.961 . S
C403 C402 1.502 1_554 S
C404 H390 0.960 . S
C404 H391 0.961 . S
C404 H392 0.959 . S
C404 C402 1.561 . S
C405 C402 1.526 1_554 S
C405 C406 1.396 1_545 S
C405 C410 1.390 . S
C406 C400 1.465 1_554 S
C406 C405 1.396 1_565 S
C406 C407 1.399 . S
C407 H393 0.929 . S
C407 C406 1.399 . S
C407 C408 1.385 1_565 S
C408 H394 0.931 . S
C408 C407 1.385 1_545 S
C408 C409 1.389 . S
C409 C408 1.389 . S
C409 C410 1.387 . S
C410 H395 0.930 . S
C410 C405 1.390 . S
C410 C409 1.387 . S
H411 C423 0.930 . S
H412 C425 0.930 . S
H413 C426 0.930 1_655 S
H414 C430 0.959 1_656 S
H415 C430 0.959 . S
H416 C430 0.961 . S
H417 C431 0.960 . S
H418 C431 0.961 . S
H419 C431 0.959 . S
H420 C434 0.929 1_556 S
H421 C435 0.931 . S
H422 C437 0.930 . S
C423 H411 0.930 . S
C423 C424 1.399 . S
C423 C428 1.399 . S
C424 C423 1.399 . S
C424 C425 1.376 . S
C425 H412 0.930 . S
C425 C424 1.376 . S
C425 C426 1.388 . S
C426 H413 0.930 1_455 S
C426 C425 1.388 . S
C426 C427 1.390 . S
C427 C426 1.390 . S
C427 C428 1.394 . S
C427 C433 1.465 1_456 S
C428 C423 1.399 . S
C428 C427 1.394 . S
C428 C429 1.516 1_556 S
C429 C428 1.516 1_554 S
C429 C430 1.502 . S
C429 C431 1.561 . S
C429 C432 1.526 1_455 S
C430 H414 0.959 1_454 S
C430 H415 0.959 . S
C430 H416 0.961 . S
C430 C429 1.502 . S
C431 H417 0.960 . S
C431 H418 0.961 . S
C431 H419 0.959 . S
C431 C429 1.561 . S
C432 C429 1.526 1_655 S
C432 C433 1.396 . S
C432 C437 1.390 . S
C433 C427 1.465 1_654 S
C433 C432 1.396 . S
C433 C434 1.399 . S
C434 H420 0.929 1_554 S
C434 C433 1.399 . S
C434 C435 1.385 . S
C435 H421 0.931 . S
C435 C434 1.385 . S
C435 C436 1.389 . S
C436 C435 1.389 . S
C436 C437 1.387 . S
C437 H422 0.930 . S
C437 C432 1.390 . S
C437 C436 1.387 . S
C127 C24 0.802 . S
C139 C12 0.580 . S
C154 C50 0.731 . S
C166 C62 0.651 . S
C181 C88 0.681 . S
C193 C100 0.780 . S
C208 C94 2.072 . S
C220 C31 2.081 . S
C235 C91 1.364 . S
C247 C30 1.307 . S
C262 C103 2.192 . S
C274 C10 2.137 . S
C289 C69 2.071 . S
C301 C18 2.086 . S
C316 C68 1.304 . S
C328 C15 1.380 . S
C343 C48 2.167 . S
C355 C27 2.184 . S
C370 C56 2.070 . S
C382 C107 2.085 . S
C397 C106 1.310 . S
C409 C53 1.376 . S
C424 C86 2.203 . S
C436 C65 2.130 . S
