# Generated by pormake.
# Topology svo, (7)-cn, num edge types: 1
# Building blocks:
#     Node 0, Type 0, BuildingBlock: NUHQUE_clean_sbu_2, # of connection points: 7
#     Node 1, Type 0, BuildingBlock: NUHQUE_clean_sbu_2, # of connection points: 7
#     Node 2, Type 0, BuildingBlock: NUHQUE_clean_sbu_2, # of connection points: 7
#     Node 3, Type 0, BuildingBlock: NUHQUE_clean_sbu_2, # of connection points: 7
#     Node 4, Type 0, BuildingBlock: NUHQUE_clean_sbu_2, # of connection points: 7
#     Node 5, Type 0, BuildingBlock: NUHQUE_clean_sbu_2, # of connection points: 7
#     Node 6, Type 0, BuildingBlock: NUHQUE_clean_sbu_2, # of connection points: 7
#     Node 7, Type 0, BuildingBlock: NUHQUE_clean_sbu_2, # of connection points: 7
#     Node 8, Type 0, BuildingBlock: NUHQUE_clean_sbu_2, # of connection points: 7
#     Node 9, Type 0, BuildingBlock: NUHQUE_clean_sbu_2, # of connection points: 7
#     Node 10, Type 0, BuildingBlock: NUHQUE_clean_sbu_2, # of connection points: 7
#     Node 11, Type 0, BuildingBlock: NUHQUE_clean_sbu_2, # of connection points: 7
#     Node 12, Type 0, BuildingBlock: NUHQUE_clean_sbu_2, # of connection points: 7
#     Node 13, Type 0, BuildingBlock: NUHQUE_clean_sbu_2, # of connection points: 7
#     Node 14, Type 0, BuildingBlock: NUHQUE_clean_sbu_2, # of connection points: 7
#     Node 15, Type 0, BuildingBlock: NUHQUE_clean_sbu_2, # of connection points: 7
#     Edge 16, Type (0, 0), BuildingBlock: XIVTED_clean_linker_0, # of connection points: 2
#     Edge 17, Type (0, 0), BuildingBlock: XIVTED_clean_linker_0, # of connection points: 2
#     Edge 18, Type (0, 0), BuildingBlock: XIVTED_clean_linker_0, # of connection points: 2
#     Edge 19, Type (0, 0), BuildingBlock: XIVTED_clean_linker_0, # of connection points: 2
#     Edge 20, Type (0, 0), BuildingBlock: XIVTED_clean_linker_0, # of connection points: 2
#     Edge 21, Type (0, 0), BuildingBlock: XIVTED_clean_linker_0, # of connection points: 2
#     Edge 22, Type (0, 0), BuildingBlock: XIVTED_clean_linker_0, # of connection points: 2
#     Edge 23, Type (0, 0), BuildingBlock: XIVTED_clean_linker_0, # of connection points: 2
#     Edge 24, Type (0, 0), BuildingBlock: XIVTED_clean_linker_0, # of connection points: 2
#     Edge 25, Type (0, 0), BuildingBlock: XIVTED_clean_linker_0, # of connection points: 2
#     Edge 26, Type (0, 0), BuildingBlock: XIVTED_clean_linker_0, # of connection points: 2
#     Edge 27, Type (0, 0), BuildingBlock: XIVTED_clean_linker_0, # of connection points: 2
#     Edge 28, Type (0, 0), BuildingBlock: XIVTED_clean_linker_0, # of connection points: 2
#     Edge 29, Type (0, 0), BuildingBlock: XIVTED_clean_linker_0, # of connection points: 2
#     Edge 30, Type (0, 0), BuildingBlock: XIVTED_clean_linker_0, # of connection points: 2
#     Edge 31, Type (0, 0), BuildingBlock: XIVTED_clean_linker_0, # of connection points: 2
#     Edge 32, Type (0, 0), BuildingBlock: XIVTED_clean_linker_0, # of connection points: 2
#     Edge 33, Type (0, 0), BuildingBlock: XIVTED_clean_linker_0, # of connection points: 2
#     Edge 34, Type (0, 0), BuildingBlock: XIVTED_clean_linker_0, # of connection points: 2
#     Edge 35, Type (0, 0), BuildingBlock: XIVTED_clean_linker_0, # of connection points: 2
#     Edge 36, Type (0, 0), BuildingBlock: XIVTED_clean_linker_0, # of connection points: 2
#     Edge 37, Type (0, 0), BuildingBlock: XIVTED_clean_linker_0, # of connection points: 2
#     Edge 38, Type (0, 0), BuildingBlock: XIVTED_clean_linker_0, # of connection points: 2
#     Edge 39, Type (0, 0), BuildingBlock: XIVTED_clean_linker_0, # of connection points: 2
#     Edge 40, Type (0, 0), BuildingBlock: XIVTED_clean_linker_0, # of connection points: 2
#     Edge 41, Type (0, 0), BuildingBlock: XIVTED_clean_linker_0, # of connection points: 2
#     Edge 42, Type (0, 0), BuildingBlock: XIVTED_clean_linker_0, # of connection points: 2
#     Edge 43, Type (0, 0), BuildingBlock: XIVTED_clean_linker_0, # of connection points: 2
#     Edge 44, Type (0, 0), BuildingBlock: XIVTED_clean_linker_0, # of connection points: 2
#     Edge 45, Type (0, 0), BuildingBlock: XIVTED_clean_linker_0, # of connection points: 2
#     Edge 46, Type (0, 0), BuildingBlock: XIVTED_clean_linker_0, # of connection points: 2
#     Edge 47, Type (0, 0), BuildingBlock: XIVTED_clean_linker_0, # of connection points: 2
#     Edge 48, Type (0, 0), BuildingBlock: XIVTED_clean_linker_0, # of connection points: 2
#     Edge 49, Type (0, 0), BuildingBlock: XIVTED_clean_linker_0, # of connection points: 2
#     Edge 50, Type (0, 0), BuildingBlock: XIVTED_clean_linker_0, # of connection points: 2
#     Edge 51, Type (0, 0), BuildingBlock: XIVTED_clean_linker_0, # of connection points: 2
#     Edge 52, Type (0, 0), BuildingBlock: XIVTED_clean_linker_0, # of connection points: 2
#     Edge 53, Type (0, 0), BuildingBlock: XIVTED_clean_linker_0, # of connection points: 2
#     Edge 54, Type (0, 0), BuildingBlock: XIVTED_clean_linker_0, # of connection points: 2
#     Edge 55, Type (0, 0), BuildingBlock: XIVTED_clean_linker_0, # of connection points: 2
#     Edge 56, Type (0, 0), BuildingBlock: XIVTED_clean_linker_0, # of connection points: 2
#     Edge 57, Type (0, 0), BuildingBlock: XIVTED_clean_linker_0, # of connection points: 2
#     Edge 58, Type (0, 0), BuildingBlock: XIVTED_clean_linker_0, # of connection points: 2
#     Edge 59, Type (0, 0), BuildingBlock: XIVTED_clean_linker_0, # of connection points: 2
#     Edge 60, Type (0, 0), BuildingBlock: XIVTED_clean_linker_0, # of connection points: 2
#     Edge 61, Type (0, 0), BuildingBlock: XIVTED_clean_linker_0, # of connection points: 2
#     Edge 62, Type (0, 0), BuildingBlock: XIVTED_clean_linker_0, # of connection points: 2
#     Edge 63, Type (0, 0), BuildingBlock: XIVTED_clean_linker_0, # of connection points: 2
#     Edge 64, Type (0, 0), BuildingBlock: XIVTED_clean_linker_0, # of connection points: 2
#     Edge 65, Type (0, 0), BuildingBlock: XIVTED_clean_linker_0, # of connection points: 2
#     Edge 66, Type (0, 0), BuildingBlock: XIVTED_clean_linker_0, # of connection points: 2
#     Edge 67, Type (0, 0), BuildingBlock: XIVTED_clean_linker_0, # of connection points: 2
#     Edge 68, Type (0, 0), BuildingBlock: XIVTED_clean_linker_0, # of connection points: 2
#     Edge 69, Type (0, 0), BuildingBlock: XIVTED_clean_linker_0, # of connection points: 2
#     Edge 70, Type (0, 0), BuildingBlock: XIVTED_clean_linker_0, # of connection points: 2
#     Edge 71, Type (0, 0), BuildingBlock: XIVTED_clean_linker_0, # of connection points: 2
# Relax obj value: 0.166
# Max RMSD: 0.275
# Mean RMSD: 0.275
data_MOF--net-svo--node1-NUHQUE_clean_sbu_2--edge1-XIVTED_clean_linker_0
_symmetry_space_group_name_H-M    P1
_symmetry_Int_Tables_number       1
_symmetry_cell_setting            triclinic
loop_
_symmetry_equiv_pos_as_xyz
'x, y, z'
_cell_length_a     38.647647
_cell_length_b     38.557891
_cell_length_c     54.602398
_cell_angle_alpha  90.010189
_cell_angle_beta   90.003378
_cell_angle_gamma 89.98685
loop_
_atom_site_label
_atom_site_type_symbol
_atom_site_fract_x
_atom_site_fract_y
_atom_site_fract_z
_atom_type_partial_charge
O0 O 0.24918 0.24918 0.15417 0.0
Tb1 Tb 0.27101 0.29336 0.13492 0.0
Eu2 Eu 0.20751 0.3634 0.1443 0.0
C3 C 0.226 0.22911 0.14363 0.0
O4 O 0.2113 0.23953 0.12325 0.0
C5 C 0.26126 0.33295 0.18274 0.0
O6 O 0.21733 0.42078 0.14839 0.0
C7 C 0.14198 0.34969 0.14326 0.0
C8 C 0.21325 0.44167 0.12957 0.0
O9 O 0.20333 0.4286 0.10849 0.0
C10 C 0.22887 0.32996 0.09412 0.0
C11 C 0.10967 0.35346 0.12925 0.0
C12 C 0.08778 0.32464 0.12714 0.0
C13 C 0.0542 0.32839 0.11784 0.0
C14 C 0.04261 0.36129 0.11053 0.0
C15 C 0.06383 0.39061 0.11318 0.0
C16 C 0.09784 0.38626 0.12177 0.0
O17 O 0.28262 0.32934 0.16433 0.0
O18 O 0.22862 0.33983 0.17876 0.0
O19 O 0.31053 0.25378 0.1293 0.0
O20 O 0.31855 0.30391 0.11429 0.0
C21 C 0.33176 0.27306 0.11688 0.0
O22 O 0.22973 0.35945 0.10612 0.0
O23 O 0.23404 0.30043 0.10542 0.0
O24 O 0.15501 0.37788 0.15317 0.0
O25 O 0.16545 0.32791 0.13501 0.0
H26 H 0.09619 0.2996 0.13397 0.0
H27 H 0.0158 0.36449 0.10511 0.0
H28 H 0.11432 0.40876 0.12408 0.0
O29 O 0.80924 0.2185 0.12481 0.0
Tb30 Tb 0.75551 0.23334 0.1209 0.0
Eu31 Eu 0.65177 0.17882 0.11485 0.0
C32 C 0.82807 0.23002 0.14309 0.0
O33 O 0.81313 0.24781 0.16066 0.0
C34 C 0.69472 0.21025 0.15461 0.0
O35 O 0.59414 0.18516 0.11163 0.0
C36 C 0.67243 0.11494 0.11151 0.0
C37 C 0.58169 0.2124 0.10014 0.0
O38 O 0.60338 0.23482 0.09053 0.0
C39 C 0.71026 0.20568 0.07909 0.0
C40 C 0.65977 0.07992 0.11716 0.0
C41 C 0.68351 0.05478 0.12522 0.0
C42 C 0.6718 0.0222 0.1329 0.0
C43 C 0.63645 0.0145 0.13174 0.0
C44 C 0.61234 0.03922 0.12371 0.0
C45 C 0.62423 0.07212 0.11646 0.0
O46 O 0.71509 0.20173 0.13642 0.0
O47 O 0.66238 0.20072 0.15235 0.0
O48 O 0.74979 0.28178 0.14154 0.0
O49 O 0.7478 0.28277 0.10251 0.0
C50 C 0.74644 0.30155 0.12229 0.0
O51 O 0.68505 0.21638 0.09343 0.0
O52 O 0.74256 0.21278 0.08506 0.0
O53 O 0.67841 0.1346 0.13065 0.0
O54 O 0.65755 0.13162 0.09329 0.0
H55 H 0.71086 0.0609 0.12621 0.0
H56 H 0.62784 0.98875 0.13689 0.0
H57 H 0.60591 0.0919 0.1109 0.0
O58 O 0.73634 0.7706 0.14441 0.0
Tb59 Tb 0.70927 0.72286 0.13578 0.0
Eu60 Eu 0.7832 0.63587 0.12507 0.0
C61 C 0.73112 0.78752 0.16496 0.0
O62 O 0.71229 0.77313 0.18219 0.0
C63 C 0.74937 0.67097 0.16878 0.0
O64 O 0.77727 0.57819 0.12945 0.0
C65 C 0.84337 0.65453 0.10874 0.0
C66 C 0.76281 0.56029 0.11172 0.0
O67 O 0.7527 0.57668 0.09187 0.0
C68 C 0.74454 0.68903 0.09158 0.0
C69 C 0.88031 0.65011 0.11489 0.0
C70 C 0.89956 0.67932 0.12212 0.0
C71 C 0.93434 0.67591 0.12886 0.0
C72 C 0.95014 0.64328 0.1277 0.0
C73 C 0.93167 0.61394 0.12 0.0
C74 C 0.89661 0.61747 0.11365 0.0
O75 O 0.72706 0.67407 0.15083 0.0
O76 O 0.77648 0.65138 0.16459 0.0
O77 O 0.66055 0.73733 0.15339 0.0
O78 O 0.66028 0.72171 0.11595 0.0
C79 C 0.6413 0.73257 0.1341 0.0
O80 O 0.73924 0.66073 0.10446 0.0
O81 O 0.73209 0.71876 0.09954 0.0
O82 O 0.82518 0.67319 0.12421 0.0
O83 O 0.82645 0.62748 0.10022 0.0
H84 H 0.88739 0.70465 0.12279 0.0
H85 H 0.97745 0.64101 0.13199 0.0
H86 H 0.88206 0.59479 0.10805 0.0
O87 O 0.16581 0.77833 0.13426 0.0
Tb88 Tb 0.22089 0.76777 0.13546 0.0
Eu89 Eu 0.32171 0.83338 0.13024 0.0
C90 C 0.14801 0.79292 0.15199 0.0
O91 O 0.16355 0.80303 0.17212 0.0
C92 C 0.27876 0.79804 0.17046 0.0
O93 O 0.37944 0.8268 0.12818 0.0
C94 C 0.30003 0.89641 0.12427 0.0
C95 C 0.39203 0.7996 0.11674 0.0
O96 O 0.37055 0.77826 0.10576 0.0
C97 C 0.265 0.7995 0.0955 0.0
C98 C 0.31381 0.93187 0.12515 0.0
C99 C 0.29167 0.9593 0.13158 0.0
C100 C 0.30479 0.993 0.13432 0.0
C101 C 0.33994 0.99921 0.12971 0.0
C102 C 0.36224 0.97212 0.12313 0.0
C103 C 0.34914 0.93829 0.12114 0.0
O104 O 0.25598 0.80412 0.15308 0.0
O105 O 0.3094 0.81227 0.1677 0.0
O106 O 0.22339 0.71911 0.15623 0.0
O107 O 0.23804 0.71947 0.11866 0.0
C108 C 0.23419 0.70013 0.13799 0.0
O109 O 0.2887 0.79272 0.11205 0.0
O110 O 0.23355 0.78769 0.09933 0.0
O111 O 0.299 0.88015 0.14541 0.0
O112 O 0.31035 0.87663 0.10598 0.0
H113 H 0.26454 0.95424 0.13519 0.0
H114 H 0.35015 0.02526 0.13171 0.0
H115 H 0.36637 0.91705 0.11658 0.0
O116 O 0.25378 0.78488 0.35487 0.0
Tb117 Tb 0.27481 0.73459 0.3648 0.0
Eu118 Eu 0.20471 0.6428 0.37394 0.0
C119 C 0.26536 0.80206 0.33577 0.0
O120 O 0.28615 0.78632 0.32034 0.0
C121 C 0.23376 0.68263 0.33158 0.0
O122 O 0.22019 0.58714 0.36857 0.0
C123 C 0.14256 0.65046 0.39091 0.0
C124 C 0.23804 0.57125 0.38569 0.0
O125 O 0.24633 0.58838 0.40565 0.0
C126 C 0.23729 0.69985 0.40795 0.0
C127 C 0.10651 0.64446 0.38293 0.0
C128 C 0.08611 0.67296 0.37596 0.0
C129 C 0.05212 0.66808 0.36791 0.0
C130 C 0.03798 0.63465 0.36753 0.0
C131 C 0.05741 0.60599 0.37529 0.0
C132 C 0.09191 0.61098 0.38272 0.0
O133 O 0.25445 0.68653 0.35037 0.0
O134 O 0.20847 0.66049 0.33467 0.0
O135 O 0.32641 0.73982 0.34891 0.0
O136 O 0.32126 0.73277 0.38745 0.0
C137 C 0.34303 0.73735 0.36958 0.0
O138 O 0.24521 0.67136 0.39591 0.0
O139 O 0.24895 0.72996 0.4 0.0
O140 O 0.15941 0.67507 0.3793 0.0
O141 O 0.16182 0.62317 0.39575 0.0
H142 H 0.09669 0.699 0.37661 0.0
H143 H 0.01147 0.63107 0.36151 0.0
H144 H 0.10705 0.58891 0.38873 0.0
O145 O 0.21344 0.23302 0.36697 0.0
Tb146 Tb 0.26746 0.24766 0.37208 0.0
Eu147 Eu 0.37411 0.1909 0.38078 0.0
C148 C 0.19457 0.24633 0.34923 0.0
O149 O 0.20938 0.26665 0.33303 0.0
C150 C 0.33145 0.22472 0.34036 0.0
O151 O 0.43214 0.19754 0.38449 0.0
C152 C 0.3517 0.12757 0.38352 0.0
C153 C 0.44592 0.22863 0.38208 0.0
O154 O 0.42527 0.25514 0.3782 0.0
C155 C 0.31159 0.21703 0.41345 0.0
C156 C 0.36185 0.09112 0.38051 0.0
C157 C 0.33677 0.06729 0.37246 0.0
C158 C 0.34604 0.03292 0.36754 0.0
C159 C 0.38023 0.02225 0.37117 0.0
C160 C 0.40559 0.04561 0.37931 0.0
C161 C 0.39622 0.08023 0.38404 0.0
O162 O 0.30893 0.21595 0.35726 0.0
O163 O 0.36338 0.21403 0.34363 0.0
O164 O 0.274 0.29676 0.35247 0.0
O165 O 0.27395 0.29655 0.39151 0.0
C166 C 0.2762 0.31594 0.37207 0.0
O167 O 0.33735 0.22791 0.39965 0.0
O168 O 0.27959 0.22584 0.40774 0.0
O169 O 0.35087 0.14606 0.36334 0.0
O170 O 0.36398 0.14462 0.40255 0.0
H171 H 0.31033 0.07569 0.36942 0.0
H172 H 0.38696 0.99537 0.36777 0.0
H173 H 0.41567 0.09878 0.38977 0.0
O174 O 0.79393 0.21354 0.37834 0.0
Tb175 Tb 0.7733 0.26455 0.37063 0.0
Eu176 Eu 0.79634 0.34543 0.35711 0.0
C177 C 0.79716 0.18994 0.36115 0.0
O178 O 0.79096 0.19845 0.33828 0.0
C179 C 0.76853 0.29371 0.31911 0.0
O180 O 0.79052 0.40322 0.35351 0.0
C181 C 0.86029 0.32786 0.34829 0.0
C182 C 0.76168 0.41875 0.36 0.0
O183 O 0.73636 0.40019 0.36927 0.0
C184 C 0.79357 0.31762 0.41113 0.0
C185 C 0.89607 0.33324 0.35725 0.0
C186 C 0.9193 0.305 0.35771 0.0
C187 C 0.95401 0.31011 0.36448 0.0
C188 C 0.96541 0.34344 0.37044 0.0
C189 C 0.94339 0.37217 0.36856 0.0
C190 C 0.90836 0.36683 0.36274 0.0
O191 O 0.78588 0.27102 0.33214 0.0
O192 O 0.76007 0.32349 0.32899 0.0
O193 O 0.72636 0.23396 0.37572 0.0
O194 O 0.7219 0.28882 0.37457 0.0
C195 C 0.7048 0.25976 0.3768 0.0
O196 O 0.78322 0.34355 0.39735 0.0
O197 O 0.80053 0.28708 0.40165 0.0
O198 O 0.84483 0.35467 0.33826 0.0
O199 O 0.83941 0.30893 0.36176 0.0
H200 H 0.91066 0.27939 0.35224 0.0
H201 H 0.99242 0.34728 0.37514 0.0
H202 H 0.89123 0.38896 0.36113 0.0
O203 O 0.81835 0.75507 0.36625 0.0
Tb204 Tb 0.76376 0.74334 0.36418 0.0
Eu205 Eu 0.66819 0.80987 0.3771 0.0
C206 C 0.83418 0.77523 0.35044 0.0
O207 O 0.81692 0.78915 0.33222 0.0
C208 C 0.70682 0.78057 0.33267 0.0
O209 O 0.61037 0.80869 0.38046 0.0
C210 C 0.69663 0.86815 0.3893 0.0
C211 C 0.59543 0.78354 0.39273 0.0
O212 O 0.61481 0.76085 0.40428 0.0
C213 C 0.72286 0.76623 0.40773 0.0
C214 C 0.68764 0.9044 0.39404 0.0
C215 C 0.71407 0.92921 0.39455 0.0
C216 C 0.70617 0.96428 0.39819 0.0
C217 C 0.67158 0.97434 0.40137 0.0
C218 C 0.64476 0.94985 0.40022 0.0
C219 C 0.65303 0.91468 0.39676 0.0
O220 O 0.73079 0.7838 0.34954 0.0
O221 O 0.67675 0.79478 0.3376 0.0
O222 O 0.76889 0.69743 0.34081 0.0
O223 O 0.7385 0.69451 0.37328 0.0
C224 C 0.74997 0.67724 0.3545 0.0
O225 O 0.69889 0.76411 0.3907 0.0
O226 O 0.75389 0.75467 0.40236 0.0
O227 O 0.69354 0.85778 0.36646 0.0
O228 O 0.68564 0.8453 0.40542 0.0
H229 H 0.74072 0.92132 0.39172 0.0
H230 H 0.66539 0.00168 0.40301 0.0
H231 H 0.63264 0.89543 0.39571 0.0
O232 O 0.69471 0.73623 0.86575 0.0
Tb233 Tb 0.74765 0.75144 0.87345 0.0
Eu234 Eu 0.84946 0.6955 0.88446 0.0
C235 C 0.67744 0.75099 0.84783 0.0
O236 O 0.69347 0.773 0.83341 0.0
C237 C 0.80912 0.72043 0.84176 0.0
O238 O 0.90614 0.70741 0.88194 0.0
C239 C 0.83631 0.63155 0.89549 0.0
C240 C 0.92101 0.72876 0.89742 0.0
O241 O 0.90261 0.74229 0.91526 0.0
C242 C 0.7891 0.72405 0.91791 0.0
C243 C 0.84452 0.59607 0.8873 0.0
C244 C 0.81696 0.57434 0.88061 0.0
C245 C 0.82329 0.54089 0.87187 0.0
C246 C 0.85736 0.52878 0.87033 0.0
C247 C 0.88532 0.54968 0.87748 0.0
C248 C 0.87876 0.58356 0.88593 0.0
O249 O 0.78964 0.71908 0.86132 0.0
O250 O 0.83988 0.70704 0.84463 0.0
O251 O 0.75669 0.79993 0.85353 0.0
O252 O 0.75156 0.80078 0.89246 0.0
C253 C 0.75621 0.81963 0.87298 0.0
O254 O 0.81636 0.73419 0.90525 0.0
O255 O 0.75755 0.73101 0.9099 0.0
O256 O 0.81723 0.64991 0.88036 0.0
O257 O 0.86075 0.64968 0.90638 0.0
H258 H 0.79052 0.5836 0.88198 0.0
H259 H 0.86194 0.5023 0.86446 0.0
H260 H 0.90017 0.6001 0.89118 0.0
O261 O 0.26041 0.70802 0.87636 0.0
Tb262 Tb 0.24347 0.76157 0.88014 0.0
Eu263 Eu 0.29082 0.86986 0.88244 0.0
C264 C 0.24882 0.68863 0.8583 0.0
O265 O 0.22919 0.70285 0.84143 0.0
C266 C 0.2612 0.8219 0.84444 0.0
O267 O 0.28708 0.92837 0.88438 0.0
C268 C 0.35314 0.84539 0.88642 0.0
C269 C 0.25666 0.94378 0.88491 0.0
O270 O 0.2286 0.92455 0.88459 0.0
C271 C 0.26621 0.81321 0.92013 0.0
C272 C 0.38998 0.85354 0.88382 0.0
C273 C 0.41277 0.82651 0.87762 0.0
C274 C 0.4476 0.83365 0.87294 0.0
C275 C 0.45974 0.86765 0.875 0.0
C276 C 0.43741 0.89492 0.88125 0.0
C277 C 0.40233 0.88773 0.88577 0.0
O278 O 0.27203 0.80289 0.8628 0.0
O279 O 0.2679 0.85513 0.84595 0.0
O280 O 0.19423 0.76576 0.86047 0.0
O281 O 0.19463 0.76588 0.89956 0.0
C282 C 0.17516 0.76731 0.88017 0.0
O283 O 0.25415 0.83648 0.90461 0.0
O284 O 0.26305 0.77981 0.91515 0.0
O285 O 0.3353 0.8447 0.86598 0.0
O286 O 0.3362 0.8592 0.90492 0.0
H287 H 0.40324 0.80019 0.87576 0.0
H288 H 0.48697 0.87278 0.8718 0.0
H289 H 0.38458 0.90863 0.89009 0.0
O290 O 0.29435 0.29054 0.87367 0.0
Tb291 Tb 0.24136 0.27285 0.87071 0.0
Eu292 Eu 0.15839 0.29025 0.86424 0.0
C293 C 0.31593 0.28827 0.85515 0.0
O294 O 0.30422 0.27827 0.83369 0.0
C295 C 0.20507 0.26471 0.82203 0.0
O296 O 0.1021 0.27635 0.86771 0.0
C297 C 0.16517 0.35525 0.85238 0.0
C298 C 0.08458 0.26594 0.84842 0.0
O299 O 0.10047 0.26352 0.82722 0.0
C300 C 0.19679 0.29686 0.91466 0.0
C301 C 0.15858 0.39048 0.86221 0.0
C302 C 0.1857 0.41489 0.8629 0.0
C303 C 0.17945 0.44898 0.87085 0.0
C304 C 0.14595 0.4587 0.87779 0.0
C305 C 0.11834 0.43529 0.87625 0.0
C306 C 0.12489 0.40099 0.86884 0.0
O307 O 0.22902 0.28351 0.8327 0.0
O308 O 0.17798 0.25483 0.83467 0.0
O309 O 0.26926 0.22406 0.8751 0.0
O310 O 0.21451 0.2235 0.87812 0.0
C311 C 0.24243 0.20445 0.8787 0.0
O312 O 0.16965 0.28245 0.90433 0.0
O313 O 0.22469 0.30376 0.90182 0.0
O314 O 0.13803 0.33637 0.84668 0.0
O315 O 0.19023 0.33715 0.86247 0.0
H316 H 0.2114 0.40762 0.8568 0.0
H317 H 0.14093 0.48554 0.88259 0.0
H318 H 0.10354 0.38287 0.86761 0.0
O319 O 0.74354 0.29996 0.85052 0.0
Tb320 Tb 0.75961 0.24811 0.86043 0.0
Eu321 Eu 0.69334 0.14992 0.86925 0.0
C322 C 0.72235 0.31787 0.86442 0.0
O323 O 0.70907 0.30331 0.88404 0.0
C324 C 0.719 0.19282 0.82728 0.0
O325 O 0.69715 0.09179 0.86756 0.0
C326 C 0.63533 0.17412 0.88597 0.0
C327 C 0.72001 0.07613 0.88152 0.0
O328 O 0.73856 0.09482 0.89675 0.0
C329 C 0.73286 0.20331 0.90292 0.0
C330 C 0.59804 0.16742 0.88782 0.0
C331 C 0.57509 0.19556 0.8862 0.0
C332 C 0.53942 0.19026 0.88856 0.0
C333 C 0.52673 0.15669 0.89239 0.0
C334 C 0.54924 0.1282 0.89327 0.0
C335 C 0.58506 0.13372 0.89108 0.0
O336 O 0.72489 0.20805 0.84823 0.0
O337 O 0.702 0.16363 0.82934 0.0
O338 O 0.81065 0.25033 0.877 0.0
O339 O 0.80599 0.23248 0.84011 0.0
C340 C 0.82752 0.23912 0.85795 0.0
O341 O 0.73832 0.17793 0.8872 0.0
O342 O 0.74222 0.23526 0.89723 0.0
O343 O 0.64728 0.18151 0.86408 0.0
O344 O 0.65615 0.1543 0.89892 0.0
H345 H 0.58494 0.22154 0.88314 0.0
H346 H 0.49899 0.15258 0.89328 0.0
H347 H 0.60271 0.11189 0.89179 0.0
O348 O 0.70598 0.2435 0.64435 0.0
Tb349 Tb 0.75651 0.23197 0.62914 0.0
Eu350 Eu 0.84596 0.31257 0.62492 0.0
C351 C 0.68322 0.26102 0.63144 0.0
O352 O 0.69313 0.27543 0.6108 0.0
C353 C 0.80647 0.27595 0.66488 0.0
O354 O 0.90329 0.30359 0.62918 0.0
C355 C 0.83036 0.37635 0.61416 0.0
C356 C 0.91903 0.28286 0.61364 0.0
O357 O 0.90094 0.26904 0.59576 0.0
C358 C 0.79172 0.27635 0.58852 0.0
C359 C 0.84013 0.41182 0.62196 0.0
C360 C 0.81414 0.43512 0.62966 0.0
C361 C 0.823 0.46841 0.63798 0.0
C362 C 0.85772 0.47857 0.63804 0.0
C363 C 0.88389 0.45616 0.63002 0.0
C364 C 0.875 0.42269 0.622 0.0
O365 O 0.79797 0.26338 0.64346 0.0
O366 O 0.83078 0.29958 0.66393 0.0
O367 O 0.74937 0.18283 0.60989 0.0
O368 O 0.77686 0.183 0.64367 0.0
C369 C 0.76491 0.16351 0.62609 0.0
O370 O 0.82004 0.27113 0.60148 0.0
O371 O 0.76319 0.25903 0.59418 0.0
O372 O 0.81304 0.35783 0.63021 0.0
O373 O 0.85352 0.35813 0.60201 0.0
H374 H 0.78721 0.42726 0.62944 0.0
H375 H 0.86425 0.50475 0.64368 0.0
H376 H 0.89524 0.40511 0.6161 0.0
O377 O 0.7364 0.72026 0.63915 0.0
Tb378 Tb 0.75805 0.76958 0.62747 0.0
Eu379 Eu 0.68845 0.83639 0.63543 0.0
C380 C 0.74817 0.70409 0.65865 0.0
O381 O 0.76942 0.72057 0.67339 0.0
C382 C 0.73919 0.80536 0.67621 0.0
O383 O 0.69703 0.89426 0.63647 0.0
C384 C 0.62339 0.82116 0.63165 0.0
C385 C 0.72597 0.90761 0.64498 0.0
O386 O 0.7494 0.8869 0.65446 0.0
C387 C 0.71742 0.80582 0.58578 0.0
C388 C 0.59067 0.82362 0.61784 0.0
C389 C 0.57009 0.79371 0.61593 0.0
C390 C 0.53641 0.79566 0.6065 0.0
C391 C 0.5236 0.82776 0.59857 0.0
C392 C 0.54304 0.85822 0.60143 0.0
C393 C 0.57706 0.85587 0.61047 0.0
O394 O 0.7627 0.80352 0.65902 0.0
O395 O 0.70707 0.8131 0.6709 0.0
O396 O 0.8039 0.73678 0.62493 0.0
O397 O 0.80542 0.78685 0.60888 0.0
C398 C 0.82317 0.75879 0.6132 0.0
O399 O 0.71492 0.83454 0.59855 0.0
O400 O 0.72364 0.77591 0.59633 0.0
O401 O 0.63492 0.84934 0.64251 0.0
O402 O 0.64799 0.80073 0.62325 0.0
H403 H 0.57959 0.76921 0.62303 0.0
H404 H 0.49719 0.82944 0.59198 0.0
H405 H 0.59194 0.87931 0.61344 0.0
O406 O 0.28786 0.71071 0.62472 0.0
Tb407 Tb 0.23561 0.73015 0.62918 0.0
Eu408 Eu 0.15251 0.71015 0.6361 0.0
C409 C 0.30996 0.70983 0.64299 0.0
O410 O 0.2993 0.71797 0.6651 0.0
C411 C 0.19871 0.73693 0.67807 0.0
O412 O 0.09488 0.71602 0.63163 0.0
C413 C 0.16602 0.6457 0.64645 0.0
C414 C 0.08126 0.74288 0.62033 0.0
O415 O 0.10168 0.76747 0.61207 0.0
C416 C 0.18966 0.7094 0.58506 0.0
C417 C 0.15925 0.61053 0.63674 0.0
C418 C 0.18636 0.58619 0.63565 0.0
C419 C 0.17987 0.55209 0.62785 0.0
C420 C 0.14616 0.54232 0.62147 0.0
C421 C 0.1186 0.56575 0.62343 0.0
C422 C 0.12542 0.60009 0.63055 0.0
O423 O 0.22294 0.71873 0.66709 0.0
O424 O 0.17094 0.74601 0.66579 0.0
O425 O 0.26471 0.77839 0.62634 0.0
O426 O 0.2101 0.78021 0.62199 0.0
C427 C 0.23844 0.79863 0.62233 0.0
O428 O 0.16254 0.72221 0.59637 0.0
O429 O 0.21803 0.70172 0.59714 0.0
O430 O 0.13933 0.66275 0.65527 0.0
O431 O 0.18739 0.66546 0.63403 0.0
H432 H 0.21222 0.59348 0.64138 0.0
H433 H 0.14099 0.51543 0.61689 0.0
H434 H 0.10416 0.6183 0.63205 0.0
O435 O 0.25857 0.29317 0.6253 0.0
Tb436 Tb 0.24188 0.23958 0.62152 0.0
Eu437 Eu 0.29687 0.13099 0.61718 0.0
C438 C 0.24742 0.31242 0.64356 0.0
O439 O 0.22817 0.29815 0.66061 0.0
C440 C 0.26636 0.17906 0.65581 0.0
O441 O 0.29046 0.07282 0.61499 0.0
C442 C 0.36034 0.15153 0.61156 0.0
C443 C 0.25952 0.05855 0.61476 0.0
O444 O 0.23213 0.07872 0.61542 0.0
C445 C 0.27006 0.19074 0.5819 0.0
C446 C 0.39664 0.14018 0.61227 0.0
C447 C 0.42191 0.16431 0.61942 0.0
C448 C 0.45668 0.15441 0.62124 0.0
C449 C 0.46616 0.12039 0.61525 0.0
C450 C 0.4414 0.09609 0.60754 0.0
C451 C 0.40638 0.10602 0.60639 0.0
O452 O 0.27344 0.19851 0.63683 0.0
O453 O 0.27613 0.1465 0.65439 0.0
O454 O 0.19345 0.23553 0.64229 0.0
O455 O 0.19211 0.23488 0.60323 0.0
C456 C 0.17342 0.23406 0.62305 0.0
O457 O 0.25961 0.16653 0.59726 0.0
O458 O 0.2618 0.22346 0.58608 0.0
O459 O 0.34407 0.15234 0.63267 0.0
O460 O 0.34097 0.14052 0.59331 0.0
H461 H 0.41441 0.19064 0.624 0.0
H462 H 0.4931 0.11279 0.61666 0.0
H463 H 0.38689 0.08745 0.60078 0.0
H464 H 0.23846 0.38067 0.05944 0.0
H465 H 0.15597 0.26899 0.95063 0.0
H466 H 0.19812 0.27725 0.06927 0.0
H467 H 0.23695 0.34417 0.93866 0.0
H468 H 0.15955 0.28044 0.99476 0.0
H469 H 0.22649 0.37596 0.01529 0.0
C470 C 0.22678 0.35719 0.05235 0.0
C471 C 0.21964 0.32916 0.0679 0.0
C472 C 0.17631 0.29458 0.98239 0.0
C473 C 0.20548 0.32385 0.01786 0.0
C474 C 0.1742 0.28817 0.95725 0.0
C475 C 0.19646 0.30539 0.94103 0.0
C476 C 0.20039 0.3188 0.99125 0.0
C477 C 0.21961 0.33 0.95059 0.0
C478 C 0.22008 0.35448 0.02724 0.0
C479 C 0.20447 0.29929 0.05784 0.0
N480 N 0.22101 0.33598 0.97509 0.0
N481 N 0.19787 0.29743 0.03346 0.0
H482 H 0.74784 0.16065 0.05169 0.0
H483 H 0.6926 0.24619 0.93054 0.0
H484 H 0.65718 0.22572 0.04918 0.0
H485 H 0.74 0.14498 0.93064 0.0
H486 H 0.67679 0.23816 0.9736 0.0
H487 H 0.74346 0.15203 0.00742 0.0
C488 C 0.72655 0.17246 0.04183 0.0
C489 C 0.70304 0.19415 0.05393 0.0
C490 C 0.6899 0.21735 0.96403 0.0
C491 C 0.69842 0.18528 0.00337 0.0
C492 C 0.69908 0.22201 0.93954 0.0
C493 C 0.71783 0.19628 0.92719 0.0
C494 C 0.70052 0.18721 0.97636 0.0
C495 C 0.72544 0.16535 0.93955 0.0
C496 C 0.724 0.1675 0.01661 0.0
C497 C 0.67585 0.20883 0.04044 0.0
N498 N 0.71748 0.16197 0.96367 0.0
N499 N 0.67478 0.20488 0.0157 0.0
H500 H 0.83697 0.7425 0.95241 0.0
H501 H 0.74548 0.63487 0.05934 0.0
H502 H 0.74938 0.67542 0.94028 0.0
H503 H 0.7818 0.73975 0.06892 0.0
H504 H 0.76534 0.63656 0.01662 0.0
H505 H 0.83492 0.72801 0.99628 0.0
C506 C 0.81798 0.72399 0.95888 0.0
C507 C 0.79302 0.71037 0.94292 0.0
C508 C 0.76956 0.65887 0.0283 0.0
C509 C 0.79091 0.69349 0.99256 0.0
C510 C 0.7584 0.6579 0.05263 0.0
C511 C 0.76162 0.68741 0.06747 0.0
C512 C 0.78469 0.68925 0.01906 0.0
C513 C 0.77841 0.71666 0.05789 0.0
C514 C 0.81673 0.71592 0.98383 0.0
C515 C 0.76879 0.68671 0.95216 0.0
N516 N 0.78921 0.71694 0.03421 0.0
N517 N 0.76821 0.6791 0.97643 0.0
H518 H 0.24262 0.86819 0.94702 0.0
H519 H 0.32626 0.7961 0.07068 0.0
H520 H 0.31209 0.78076 0.9502 0.0
H521 H 0.22303 0.83792 0.06602 0.0
H522 H 0.33512 0.81016 0.02731 0.0
H523 H 0.24985 0.87625 0.99136 0.0
C524 C 0.26019 0.85137 0.95692 0.0
C525 C 0.27639 0.82342 0.94513 0.0
C526 C 0.31091 0.81709 0.03603 0.0
C527 C 0.28497 0.83273 0.99544 0.0
C528 C 0.30592 0.8093 0.06077 0.0
C529 C 0.27373 0.81549 0.07177 0.0
C530 C 0.2837 0.83168 0.02247 0.0
C531 C 0.24808 0.83235 0.05806 0.0
C532 C 0.26415 0.85589 0.98216 0.0
C533 C 0.29877 0.80229 0.95876 0.0
N534 N 0.25348 0.83959 0.03401 0.0
N535 N 0.30219 0.80718 0.98328 0.0
H536 H 0.20461 0.75188 0.43278 0.0
H537 H 0.22506 0.66046 0.55947 0.0
H538 H 0.23184 0.64362 0.43823 0.0
H539 H 0.15261 0.74456 0.5502 0.0
H540 H 0.22839 0.65419 0.51502 0.0
H541 H 0.18501 0.75057 0.47541 0.0
C542 C 0.20601 0.72771 0.44285 0.0
C543 C 0.2203 0.69792 0.4321 0.0
C544 C 0.21137 0.67368 0.52269 0.0
C545 C 0.19848 0.69643 0.48083 0.0
C546 C 0.20963 0.67742 0.54803 0.0
C547 C 0.18877 0.70327 0.55843 0.0
C548 C 0.1928 0.69654 0.50762 0.0
C549 C 0.16904 0.72434 0.54283 0.0
C550 C 0.19471 0.72697 0.46712 0.0
C551 C 0.2212 0.66723 0.44587 0.0
N552 N 0.17203 0.72097 0.51811 0.0
N553 N 0.21111 0.66744 0.4697 0.0
H554 H 0.32174 0.22848 0.5614 0.0
H555 H 0.27084 0.16767 0.43405 0.0
H556 H 0.26308 0.13437 0.55202 0.0
H557 H 0.36563 0.22435 0.44529 0.0
H558 H 0.27264 0.14861 0.47667 0.0
H559 H 0.34424 0.22217 0.51985 0.0
C560 C 0.31429 0.20601 0.55071 0.0
C561 C 0.29012 0.18222 0.55982 0.0
C562 C 0.29364 0.16436 0.4697 0.0
C563 C 0.31491 0.17531 0.51215 0.0
C564 C 0.29254 0.17532 0.4454 0.0
C565 C 0.31779 0.19807 0.43641 0.0
C566 C 0.31953 0.17725 0.48526 0.0
C567 C 0.34552 0.20702 0.45167 0.0
C568 C 0.32723 0.20231 0.52704 0.0
C569 C 0.28149 0.15338 0.54546 0.0
N570 N 0.34514 0.19743 0.47565 0.0
N571 N 0.2931 0.15124 0.52199 0.0
H572 H 0.7385 0.301 0.56051 0.0
H573 H 0.8444 0.291 0.4397 0.0
H574 H 0.8497 0.2911 0.56159 0.0
H575 H 0.75175 0.35309 0.44301 0.0
H576 H 0.84672 0.29055 0.48444 0.0
H577 H 0.74175 0.32062 0.51789 0.0
C578 C 0.76363 0.30347 0.5519 0.0
C579 C 0.79384 0.29392 0.56449 0.0
C580 C 0.82622 0.30482 0.47542 0.0
C581 C 0.79763 0.31576 0.51574 0.0
C582 C 0.82483 0.30498 0.44993 0.0
C583 C 0.79779 0.32202 0.43777 0.0
C584 C 0.79978 0.3209 0.48889 0.0
C585 C 0.77307 0.33978 0.45179 0.0
C586 C 0.76546 0.31478 0.52763 0.0
C587 C 0.82574 0.29791 0.55254 0.0
N588 N 0.77421 0.33815 0.4767 0.0
N589 N 0.82675 0.30782 0.52865 0.0
H590 H 0.66555 0.75704 0.43584 0.0
H591 H 0.73881 0.85561 0.5534 0.0
H592 H 0.76518 0.80717 0.43524 0.0
H593 H 0.68531 0.75764 0.55754 0.0
H594 H 0.73532 0.85274 0.50836 0.0
H595 H 0.65883 0.77294 0.47913 0.0
C596 C 0.68545 0.77235 0.44462 0.0
C597 C 0.71588 0.78091 0.4321 0.0
C598 C 0.72397 0.83222 0.51926 0.0
C599 C 0.7085 0.79897 0.48127 0.0
C600 C 0.72586 0.83385 0.54482 0.0
C601 C 0.71264 0.80662 0.55902 0.0
C602 C 0.70787 0.80368 0.50808 0.0
C603 C 0.69618 0.77893 0.54714 0.0
C604 C 0.68178 0.78107 0.4693 0.0
C605 C 0.7414 0.79999 0.44442 0.0
N606 N 0.69419 0.77818 0.52233 0.0
N607 N 0.7372 0.80838 0.46842 0.0
H608 H 0.24272 0.01401 0.11504 0.0
H609 H 0.25831 0.19646 0.18192 0.0
H610 H 0.31673 0.03832 0.17155 0.0
H611 H 0.19064 0.17687 0.12054 0.0
H612 H 0.26806 0.13421 0.1858 0.0
H613 H 0.2125 0.06863 0.12386 0.0
C614 C 0.25209 0.03051 0.12966 0.0
C615 C 0.28255 0.02214 0.14228 0.0
C616 C 0.25056 0.14345 0.17175 0.0
C617 C 0.24849 0.08445 0.15238 0.0
C618 C 0.24485 0.17905 0.16959 0.0
C619 C 0.22437 0.192 0.15045 0.0
C620 C 0.23592 0.12068 0.15453 0.0
C621 C 0.20721 0.16811 0.13528 0.0
C622 C 0.23498 0.06169 0.13464 0.0
C623 C 0.2937 0.04429 0.16107 0.0
N624 N 0.21395 0.13363 0.1373 0.0
N625 N 0.27695 0.07461 0.16533 0.0
H626 H 0.01153 0.30262 0.08236 0.0
H627 H 0.87574 0.24502 0.1786 0.0
H628 H 0.03816 0.29119 0.1586 0.0
H629 H 0.86705 0.21536 0.10261 0.0
H630 H 0.9372 0.25692 0.17222 0.0
H631 H 0.96077 0.26577 0.08894 0.0
C632 C 0.00709 0.29153 0.10032 0.0
C633 C 0.02879 0.29996 0.11999 0.0
C634 C 0.92202 0.24705 0.15708 0.0
C635 C 0.97056 0.25877 0.12786 0.0
C636 C 0.88692 0.24033 0.16071 0.0
C637 C 0.86615 0.22982 0.14101 0.0
C638 C 0.93617 0.24393 0.13348 0.0
C639 C 0.88203 0.22382 0.11826 0.0
C640 C 0.9782 0.27053 0.1041 0.0
C641 C 0.02203 0.28514 0.14296 0.0
N642 N 0.91594 0.23175 0.11497 0.0
N643 N 0.99303 0.26587 0.14641 0.0
H644 H 0.71701 0.83332 0.20204 0.0
H645 H 0.72624 0.99146 0.10935 0.0
H646 H 0.76231 0.82762 0.12988 0.0
H647 H 0.67031 0.99162 0.17759 0.0
H648 H 0.75502 0.93743 0.12178 0.0
H649 H 0.71594 0.89642 0.19868 0.0
C650 C 0.72744 0.84533 0.1857 0.0
C651 C 0.7388 0.82509 0.16592 0.0
C652 C 0.7371 0.94975 0.13431 0.0
C653 C 0.73719 0.89731 0.1618 0.0
C654 C 0.72089 0.98062 0.12726 0.0
C655 C 0.69565 0.99548 0.14238 0.0
C656 C 0.72779 0.93386 0.15656 0.0
C657 C 0.68938 0.98053 0.16535 0.0
C658 C 0.72674 0.88141 0.18375 0.0
C659 C 0.75257 0.84216 0.14538 0.0
N660 N 0.70493 0.95026 0.17159 0.0
N661 N 0.75069 0.87726 0.14363 0.0
H662 H 0.10876 0.79674 0.11084 0.0
H663 H 0.94312 0.73671 0.10382 0.0
H664 H 0.10121 0.78594 0.18926 0.0
H665 H 0.97374 0.68358 0.16982 0.0
H666 H 0.98831 0.78012 0.11133 0.0
H667 H 0.04801 0.781 0.10712 0.0
C668 C 0.09392 0.79205 0.12735 0.0
C669 C 0.11 0.7922 0.15035 0.0
C670 C 0.98488 0.75918 0.1243 0.0
C671 C 0.04039 0.77405 0.14632 0.0
C672 C 0.95887 0.7347 0.12017 0.0
C673 C 0.95539 0.70626 0.13596 0.0
C674 C 0.00742 0.75489 0.14429 0.0
C675 C 0.97622 0.70482 0.15696 0.0
C676 C 0.05907 0.78335 0.12525 0.0
C677 C 0.08971 0.786 0.17118 0.0
N678 N 0.00169 0.72854 0.16036 0.0
N679 N 0.05612 0.77617 0.16861 0.0
H680 H 0.34488 0.00426 0.32231 0.0
H681 H 0.23466 0.84471 0.36967 0.0
H682 H 0.29195 0.00279 0.39168 0.0
H683 H 0.29 0.84687 0.30102 0.0
H684 H 0.24305 0.90725 0.37353 0.0
H685 H 0.313 0.95242 0.30986 0.0
C686 C 0.32576 0.9934 0.33462 0.0
C687 C 0.32094 0.0075 0.35801 0.0
C688 C 0.25276 0.89417 0.35738 0.0
C689 C 0.28521 0.94765 0.34435 0.0
C690 C 0.24789 0.85841 0.35511 0.0
C691 C 0.26242 0.84034 0.33527 0.0
C692 C 0.27239 0.91192 0.33974 0.0
C693 C 0.27894 0.85959 0.31687 0.0
C694 C 0.30768 0.96375 0.32761 0.0
C695 C 0.29617 0.99256 0.37346 0.0
N696 N 0.28401 0.89421 0.31977 0.0
N697 N 0.27963 0.96298 0.36653 0.0
H698 H 0.14907 0.26003 0.31207 0.0
H699 H 0.99082 0.27904 0.40092 0.0
H700 H 0.15287 0.22512 0.38708 0.0
H701 H 0.98017 0.28305 0.3225 0.0
H702 H 0.04779 0.25207 0.39602 0.0
H703 H 0.08601 0.26261 0.31472 0.0
C704 C 0.13661 0.25242 0.329 0.0
C705 C 0.15635 0.24273 0.34947 0.0
C706 C 0.03262 0.25777 0.37984 0.0
C707 C 0.084 0.24608 0.35276 0.0
C708 C -6e-05 0.2728 0.38268 0.0
C709 C 0.98075 0.28288 0.36208 0.0
C710 C 0.04655 0.25374 0.35623 0.0
C711 C 0.99403 0.27517 0.33882 0.0
C712 C 0.10054 0.25379 0.33049 0.0
C713 C 0.13873 0.23291 0.37088 0.0
N714 N 0.02645 0.26177 0.33649 0.0
N715 N 0.10363 0.23545 0.37211 0.0
H716 H 0.75197 0.97341 0.3608 0.0
H717 H 0.80053 0.163 0.40741 0.0
H718 H 0.72058 0.01671 0.43013 0.0
H719 H 0.79904 0.13277 0.33126 0.0
H720 H 0.79053 0.10272 0.41897 0.0
H721 H 0.78773 0.0249 0.35337 0.0
C722 C 0.75344 0.99335 0.37474 0.0
C723 C 0.73314 0.99119 0.39598 0.0
C724 C 0.79308 0.10922 0.39975 0.0
C725 C 0.77361 0.04983 0.38761 0.0
C726 C 0.79887 0.14361 0.3931 0.0
C727 C 0.79969 0.15307 0.36828 0.0
C728 C 0.78821 0.08414 0.38147 0.0
C729 C 0.7979 0.12672 0.3506 0.0
C730 C 0.77363 0.02272 0.37045 0.0
C731 C 0.73562 0.01773 0.41341 0.0
N732 N 0.79165 0.09346 0.35752 0.0
N733 N 0.75521 0.04617 0.40873 0.0
H734 H 0.01842 0.67925 0.32488 0.0
H735 H 0.87464 0.77733 0.39093 0.0
H736 H 0.03516 0.72339 0.39641 0.0
H737 H 0.87944 0.77605 0.31206 0.0
H738 H 0.93657 0.76527 0.39259 0.0
H739 H 0.97167 0.72089 0.31794 0.0
C740 C 0.01272 0.6984 0.33884 0.0
C741 C 0.03008 0.6978 0.36134 0.0
C742 C 0.92439 0.76859 0.37488 0.0
C743 C 0.97644 0.74475 0.35388 0.0
C744 C 0.88905 0.77536 0.37396 0.0
C745 C 0.87207 0.77707 0.35134 0.0
C746 C 0.94249 0.76233 0.35303 0.0
C747 C 0.89172 0.77465 0.32985 0.0
C748 C 0.98619 0.72221 0.33488 0.0
C749 C 0.02208 0.72306 0.37888 0.0
N750 N 0.92586 0.76637 0.3312 0.0
N751 N 0.99516 0.74503 0.37503 0.0
H752 H 0.7673 0.86194 0.91185 0.0
H753 H 0.69788 0.0318 0.84546 0.0
H754 H 0.74346 0.86375 0.83471 0.0
H755 H 0.7565 0.03464 0.91272 0.0
H756 H 0.71003 0.96955 0.84209 0.0
H757 H 0.76014 0.92488 0.91335 0.0
C758 C 0.76092 0.87573 0.89516 0.0
C759 C 0.756 0.8578 0.87312 0.0
C760 C 0.7203 0.98389 0.85752 0.0
C761 C 0.74704 0.92962 0.87477 0.0
C762 C 0.71318 0.01932 0.85955 0.0
C763 C 0.72613 0.0384 0.87944 0.0
C764 C 0.74006 0.96739 0.87569 0.0
C765 C 0.74601 0.02097 0.89708 0.0
C766 C 0.75681 0.91161 0.89602 0.0
C767 C 0.74765 0.87677 0.85203 0.0
N768 N 0.75218 0.98644 0.89487 0.0
N769 N 0.74302 0.91172 0.85342 0.0
H770 H 0.96275 0.76466 0.92909 0.0
H771 H 0.12994 0.75487 0.84257 0.0
H772 H 0.96322 0.71372 0.85867 0.0
H773 H 0.1342 0.77868 0.91969 0.0
H774 H 0.06686 0.74858 0.84584 0.0
H775 H 0.02408 0.77843 0.92373 0.0
C776 C 0.97571 0.75645 0.91248 0.0
C777 C 0.95791 0.73779 0.89439 0.0
C778 C 0.08163 0.75543 0.86199 0.0
C779 C 0.02793 0.75369 0.88805 0.0
C780 C 0.11751 0.75919 0.86009 0.0
C781 C 0.13712 0.76709 0.88093 0.0
C782 C 0.06545 0.75995 0.88483 0.0
C783 C 0.11993 0.77236 0.90323 0.0
C784 C 0.0107 0.7643 0.90944 0.0
C785 C 0.97599 0.72791 0.87319 0.0
N786 N 0.08507 0.76861 0.90462 0.0
N787 N 0.01001 0.73597 0.8706 0.0
H788 H 0.30015 0.16433 0.88089 0.0
H789 H 0.19775 0.98358 0.88574 0.0
H790 H 0.18882 0.15766 0.88249 0.0
H791 H 0.3091 0.9919 0.88496 0.0
H792 H 0.19365 0.0469 0.88552 0.0
H793 H 0.30358 0.10122 0.88347 0.0
C794 C 0.27637 0.14953 0.8819 0.0
C795 C 0.24413 0.16626 0.88147 0.0
C796 C 0.21898 0.03489 0.88545 0.0
C797 C 0.24784 0.09368 0.88431 0.0
C798 C 0.22138 0.99868 0.88557 0.0
C799 C 0.25386 0.98226 0.88532 0.0
C800 C 0.24927 0.05501 0.88505 0.0
C801 C 0.28351 0.0033 0.88513 0.0
C802 C 0.27835 0.11343 0.88335 0.0
C803 C 0.21419 0.14577 0.88281 0.0
N804 N 0.28049 0.03849 0.88496 0.0
N805 N 0.21676 0.11053 0.88409 0.0
H806 H 0.04382 0.26876 0.88932 0.0
H807 H 0.86797 0.22455 0.81795 0.0
H808 H 0.04004 0.24558 0.81201 0.0
H809 H 0.8734 0.25099 0.89461 0.0
H810 H 0.93137 0.22766 0.81572 0.0
H811 H 0.98172 0.2582 0.89196 0.0
C812 C 0.02996 0.26133 0.8729 0.0
C813 C 0.04717 0.25824 0.85039 0.0
C814 C 0.91867 0.23254 0.83306 0.0
C815 C 0.97586 0.24612 0.85325 0.0
C816 C 0.88256 0.23066 0.83433 0.0
C817 C 0.86556 0.23767 0.85646 0.0
C818 C 0.93774 0.24149 0.85408 0.0
C819 C 0.88554 0.24554 0.87716 0.0
C820 C 0.99445 0.25528 0.87441 0.0
C821 C 0.02782 0.24841 0.82973 0.0
N822 N 0.92052 0.24738 0.87544 0.0
N823 N 0.99317 0.24284 0.83164 0.0
H824 H 0.72975 0.12073 0.5951 0.0
H825 H 0.77794 0.94569 0.66622 0.0
H826 H 0.79537 0.11936 0.65897 0.0
H827 H 0.69036 0.95531 0.61765 0.0
H828 H 0.79007 0.00757 0.66055 0.0
H829 H 0.7213 0.05811 0.59929 0.0
C830 C 0.74276 0.10714 0.60982 0.0
C831 C 0.76327 0.12521 0.62674 0.0
C832 C 0.76818 0.99611 0.65118 0.0
C833 C 0.75352 0.05359 0.63175 0.0
C834 C 0.76123 0.96079 0.6544 0.0
C835 C 0.733 0.94527 0.64246 0.0
C836 C 0.74705 0.01597 0.63564 0.0
C837 C 0.71227 0.96616 0.62734 0.0
C838 C 0.73772 0.07145 0.61231 0.0
C839 C 0.77936 0.10636 0.64554 0.0
N840 N 0.7198 1.00034 0.62428 0.0
N841 N 0.77412 0.07155 0.64757 0.0
H842 H 0.0435 0.79618 0.60026 0.0
H843 H 0.86172 0.70142 0.62256 0.0
H844 H 0.03246 0.6943 0.6321 0.0
H845 H 0.87008 0.80657 0.59632 0.0
H846 H 0.92466 0.69656 0.62193 0.0
H847 H 0.98059 0.79903 0.59514 0.0
C848 C 0.02789 0.77439 0.60614 0.0
C849 C 0.04331 0.74503 0.61677 0.0
C850 C 0.91283 0.72065 0.61611 0.0
C851 C 0.97133 0.74807 0.61083 0.0
C852 C 0.87686 0.72337 0.61636 0.0
C853 C 0.86076 0.75449 0.60957 0.0
C854 C 0.93296 0.74932 0.60911 0.0
C855 C 0.88157 0.78212 0.60169 0.0
C856 C 0.99198 0.77603 0.60318 0.0
C857 C 0.02177 0.71755 0.62395 0.0
N858 N 0.91667 0.77899 0.60185 0.0
N859 N 0.98695 0.71978 0.62089 0.0
H860 H 0.19942 0.0205 0.61406 0.0
H861 H 0.29709 0.83734 0.62131 0.0
H862 H 0.31051 0.00902 0.61489 0.0
H863 H 0.18604 0.84657 0.6174 0.0
H864 H 0.30207 0.90028 0.61835 0.0
H865 H 0.19359 0.95729 0.61469 0.0
C866 C 0.22262 0.00473 0.61432 0.0
C867 C 0.25554 0.02021 0.61448 0.0
C868 C 0.27657 0.88867 0.61806 0.0
C869 C 0.24898 0.94767 0.61524 0.0
C870 C 0.2737 0.85268 0.61974 0.0
C871 C 0.24109 0.83673 0.61962 0.0
C872 C 0.24657 0.9091 0.61632 0.0
C873 C 0.21168 0.85787 0.61754 0.0
C874 C 0.21923 0.9686 0.61467 0.0
C875 C 0.2846 0.99835 0.61478 0.0
N876 N 0.2151 0.89301 0.61605 0.0
N877 N 0.28062 0.9633 0.61522 0.0
H878 H 0.96291 0.29934 0.6516 0.0
H879 H 0.13009 0.22259 0.58482 0.0
H880 H 0.95999 0.24683 0.58181 0.0
H881 H 0.13034 0.25158 0.66108 0.0
H882 H 0.06777 0.23268 0.58335 0.0
H883 H 0.02439 0.28427 0.65532 0.0
C884 C 0.97517 0.2847 0.63706 0.0
C885 C 0.95626 0.27442 0.61632 0.0
C886 C 0.08129 0.23656 0.6005 0.0
C887 C 0.02649 0.25713 0.62048 0.0
C888 C 0.11688 0.23074 0.60135 0.0
C889 C 0.1353 0.23623 0.6231 0.0
C890 C 0.06397 0.24849 0.62149 0.0
C891 C 0.11697 0.24689 0.64398 0.0
C892 C 0.0102 0.27596 0.63926 0.0
C893 C 0.97347 0.25535 0.59812 0.0
N894 N 0.0823 0.25303 0.64261 0.0
N895 N 0.00755 0.24749 0.60057 0.0
H896 H 0.71733 0.65967 0.62594 0.0
H897 H 0.81689 0.49831 0.68277 0.0
H898 H 0.77192 0.66105 0.69491 0.0
H899 H 0.77202 0.49864 0.61058 0.0
H900 H 0.78675 0.55251 0.69198 0.0
H901 H 0.72369 0.59663 0.62457 0.0
C902 C 0.73 0.6467 0.64109 0.0
C903 C 0.74474 0.66584 0.66035 0.0
C904 C 0.78273 0.54041 0.67431 0.0
C905 C 0.75228 0.59357 0.65875 0.0
C906 C 0.7997 0.50932 0.66915 0.0
C907 C 0.79691 0.49418 0.64588 0.0
C908 C 0.76329 0.5568 0.65591 0.0
C909 C 0.77464 0.50951 0.62877 0.0
C910 C 0.73371 0.61065 0.64022 0.0
C911 C 0.7606 0.64748 0.6795 0.0
N912 N 0.75917 0.5404 0.63395 0.0
N913 N 0.76441 0.61249 0.67803 0.0
H914 H 0.36417 0.71069 0.67546 0.0
H915 H 0.49298 0.76817 0.57201 0.0
H916 H 0.34119 0.7023 0.59831 0.0
H917 H 0.5225 0.75871 0.64784 0.0
H918 H 0.44141 0.73341 0.58032 0.0
H919 H 0.42535 0.71775 0.66542 0.0
C920 C 0.37204 0.70967 0.65644 0.0
C921 C 0.34739 0.70671 0.63769 0.0
C922 C 0.45957 0.73811 0.59505 0.0
C923 C 0.41735 0.7152 0.62603 0.0
C924 C 0.48907 0.75783 0.59025 0.0
C925 C 0.51175 0.76656 0.60931 0.0
C926 C 0.45238 0.72773 0.61921 0.0
C927 C 0.50562 0.75254 0.63262 0.0
C928 C 0.40703 0.71369 0.6507 0.0
C929 C 0.35917 0.70513 0.61338 0.0
N930 N 0.47608 0.73448 0.63706 0.0
N931 N 0.3932 0.71008 0.60823 0.0
H932 H 0.20585 0.51279 0.59074 0.0
H933 H 0.23756 0.35869 0.68086 0.0
H934 H 0.21116 0.52726 0.66885 0.0
H935 H 0.26569 0.35312 0.60449 0.0
H936 H 0.23409 0.42178 0.67748 0.0
H937 H 0.23471 0.45664 0.59527 0.0
C938 C 0.21429 0.50457 0.60875 0.0
C939 C 0.20633 0.52453 0.62945 0.0
C940 C 0.24169 0.40686 0.66157 0.0
C941 C 0.23793 0.45986 0.63497 0.0
C942 C 0.24356 0.37079 0.66347 0.0
C943 C 0.25141 0.35058 0.64284 0.0
C944 C 0.24701 0.4228 0.63874 0.0
C945 C 0.25928 0.36767 0.62083 0.0
C946 C 0.23054 0.47246 0.61139 0.0
C947 C 0.21717 0.51264 0.65246 0.0
N948 N 0.2562 0.40274 0.61923 0.0
N949 N 0.23174 0.48068 0.65468 0.0
H950 H 0.4702 0.21887 0.60252 0.0
H951 H 0.65329 0.22642 0.66977 0.0
H952 H 0.50494 0.14597 0.65709 0.0
H953 H 0.62802 0.28594 0.60523 0.0
H954 H 0.59288 0.20857 0.67281 0.0
H955 H 0.52157 0.25455 0.61063 0.0
C956 C 0.48827 0.21084 0.61659 0.0
C957 C 0.48376 0.17927 0.62892 0.0
C958 C 0.60043 0.22601 0.65822 0.0
C959 C 0.54235 0.21961 0.6382 0.0
C960 C 0.63494 0.23633 0.65651 0.0
C961 C 0.64592 0.25705 0.63686 0.0
C962 C 0.57676 0.23639 0.64012 0.0
C963 C 0.62082 0.26946 0.62044 0.0
C964 C 0.51761 0.23107 0.62114 0.0
C965 C 0.50788 0.1699 0.64693 0.0
N966 N 0.5875 0.25844 0.62219 0.0
N967 N 0.53631 0.18978 0.65085 0.0
H968 H 0.69905 0.36723 0.89667 0.0
H969 H 0.81346 0.50591 0.8292 0.0
H970 H 0.74106 0.35475 0.82397 0.0
H971 H 0.76881 0.52179 0.90064 0.0
H972 H 0.77406 0.45733 0.82259 0.0
H973 H 0.71052 0.42946 0.89414 0.0
C974 C 0.70985 0.37769 0.87993 0.0
C975 C 0.72015 0.3557 0.86079 0.0
C976 C 0.77226 0.4718 0.83954 0.0
C977 C 0.73368 0.42663 0.85789 0.0
C978 C 0.79475 0.4995 0.84327 0.0
C979 C 0.79463 0.51727 0.86563 0.0
C980 C 0.75013 0.46131 0.85858 0.0
C981 C 0.76976 0.50841 0.88322 0.0
C982 C 0.71649 0.41324 0.87851 0.0
C983 C 0.73361 0.37068 0.83943 0.0
N984 N 0.74897 0.48046 0.87956 0.0
N985 N 0.74064 0.40511 0.83875 0.0
H986 H 0.4741 0.78069 0.90031 0.0
H987 H 0.63466 0.7711 0.81069 0.0
H988 H 0.47782 0.82689 0.82856 0.0
H989 H 0.63344 0.72522 0.88277 0.0
H990 H 0.57207 0.77828 0.8129 0.0
H991 H 0.52633 0.74717 0.89042 0.0
C992 C 0.48532 0.78277 0.88218 0.0
C993 C 0.47207 0.80652 0.86521 0.0
C994 C 0.58534 0.76609 0.8281 0.0
C995 C 0.53183 0.76925 0.85396 0.0
C996 C 0.62112 0.76198 0.82682 0.0
C997 C 0.63935 0.7483 0.8468 0.0
C998 C 0.56772 0.757 0.84968 0.0
C999 C 0.62043 0.73637 0.86707 0.0
C1000 C 0.5152 0.7639 0.87658 0.0
C1001 C 0.48755 0.80881 0.84209 0.0
N1002 N 0.58569 0.74169 0.86823 0.0
N1003 N 0.51693 0.79083 0.83726 0.0
H1004 H 0.211 0.47319 0.8297 0.0
H1005 H 0.26811 0.64805 0.89722 0.0
H1006 H 0.20546 0.48883 0.90771 0.0
H1007 H 0.23772 0.64213 0.82128 0.0
H1008 H 0.2638 0.58479 0.90001 0.0
H1009 H 0.23995 0.52958 0.82555 0.0
C1010 C 0.21715 0.48793 0.84603 0.0
C1011 C 0.20593 0.47654 0.86907 0.0
C1012 C 0.2587 0.59734 0.88263 0.0
C1013 C 0.23826 0.54102 0.86449 0.0
C1014 C 0.26127 0.63343 0.88099 0.0
C1015 C 0.2527 0.65044 0.85908 0.0
C1016 C 0.24785 0.57813 0.86217 0.0
C1017 C 0.24405 0.63011 0.83864 0.0
C1018 C 0.23327 0.52021 0.84364 0.0
C1019 C 0.21383 0.49682 0.88965 0.0
N1020 N 0.24151 0.59507 0.84074 0.0
N1021 N 0.22916 0.5283 0.88686 0.0
H1022 H 0.52909 0.22938 0.84771 0.0
H1023 H 0.34865 0.29863 0.89896 0.0
H1024 H 0.49244 0.21431 0.92146 0.0
H1025 H 0.3691 0.27977 0.82236 0.0
H1026 H 0.40936 0.28702 0.90804 0.0
H1027 H 0.47868 0.26648 0.83943 0.0
C1028 C 0.51096 0.23487 0.86235 0.0
C1029 C 0.51454 0.21883 0.88523 0.0
C1030 C 0.40067 0.28608 0.88919 0.0
C1031 C 0.45722 0.26068 0.87596 0.0
C1032 C 0.36601 0.29278 0.88395 0.0
C1033 C 0.35357 0.28931 0.85991 0.0
C1034 C 0.42306 0.27598 0.87027 0.0
C1035 C 0.37745 0.28211 0.84121 0.0
C1036 C 0.48219 0.25576 0.85759 0.0
C1037 C 0.49032 0.22622 0.90356 0.0
N1038 N 0.411 0.27513 0.84683 0.0
N1039 N 0.46245 0.24639 0.89847 0.0
H1040 H 0.26745 0.36059 0.33362 0.0
H1041 H 0.2693 0.5292 0.41941 0.0
H1042 H 0.28517 0.35785 0.41159 0.0
H1043 H 0.22923 0.52928 0.3456 0.0
H1044 H 0.28331 0.46777 0.41508 0.0
H1045 H 0.26174 0.42392 0.3359 0.0
C1046 C 0.27057 0.37341 0.35114 0.0
C1047 C 0.2766 0.35412 0.37248 0.0
C1048 C 0.27155 0.48124 0.3998 0.0
C1049 C 0.27003 0.42618 0.37525 0.0
C1050 C 0.26357 0.51635 0.40225 0.0
C1051 C 0.24784 0.53437 0.3829 0.0
C1052 C 0.26392 0.46398 0.3778 0.0
C1053 C 0.24114 0.51635 0.36105 0.0
C1054 C 0.26715 0.40945 0.35246 0.0
C1055 C 0.28035 0.37184 0.39473 0.0
N1056 N 0.24915 0.48211 0.35911 0.0
N1057 N 0.27689 0.40686 0.39556 0.0
H1058 H 0.48177 0.28977 0.37842 0.0
H1059 H 0.66876 0.19978 0.38267 0.0
H1060 H 0.49729 0.17965 0.38729 0.0
H1061 H 0.65429 0.31026 0.37614 0.0
H1062 H 0.60611 0.19227 0.38515 0.0
H1063 H 0.54447 0.29804 0.3783 0.0
C1064 C 0.49832 0.26728 0.38041 0.0
C1065 C 0.48407 0.2339 0.38282 0.0
C1066 C 0.61651 0.21821 0.38325 0.0
C1067 C 0.55625 0.24329 0.38263 0.0
C1068 C 0.65235 0.22253 0.38184 0.0
C1069 C 0.66678 0.25572 0.37918 0.0
C1070 C 0.59469 0.24728 0.38191 0.0
C1071 C 0.64424 0.28422 0.37821 0.0
C1072 C 0.53421 0.27207 0.38034 0.0
C1073 C 0.50699 0.20585 0.38537 0.0
N1074 N 0.60932 0.27935 0.3795 0.0
N1075 N 0.54185 0.21117 0.38514 0.0
H1076 H 0.70746 0.63393 0.37979 0.0
H1077 H 0.80474 0.46313 0.33547 0.0
H1078 H 0.78551 0.63459 0.32336 0.0
H1079 H 0.70988 0.46078 0.37717 0.0
H1080 H 0.79862 0.52591 0.33114 0.0
H1081 H 0.70766 0.57051 0.37902 0.0
C1082 C 0.72432 0.62065 0.367 0.0
C1083 C 0.7466 0.63939 0.35167 0.0
C1084 C 0.77902 0.51164 0.3411 0.0
C1085 C 0.74745 0.56692 0.35098 0.0
C1086 C 0.78258 0.47579 0.3437 0.0
C1087 C 0.75787 0.45667 0.35682 0.0
C1088 C 0.75075 0.52859 0.35195 0.0
C1089 C 0.72959 0.47448 0.36695 0.0
C1090 C 0.72447 0.58447 0.36659 0.0
C1091 C 0.76794 0.62102 0.33547 0.0
N1092 N 0.72695 0.50946 0.36445 0.0
N1093 N 0.76815 0.58574 0.33574 0.0
H1094 H 0.55469 0.74171 0.42112 0.0
H1095 H 0.38879 0.76188 0.33586 0.0
H1096 H 0.55043 0.81299 0.36022 0.0
H1097 H 0.38188 0.72552 0.4104 0.0
H1098 H 0.4503 0.77433 0.34223 0.0
H1099 H 0.49289 0.72989 0.4157 0.0
C1100 C 0.54071 0.75502 0.40672 0.0
C1101 C 0.55768 0.77834 0.39108 0.0
C1102 C 0.43531 0.76359 0.35717 0.0
C1103 C 0.48736 0.76451 0.38457 0.0
C1104 C 0.40036 0.75626 0.35349 0.0
C1105 C 0.38044 0.74267 0.37265 0.0
C1106 C 0.45043 0.7568 0.38006 0.0
C1107 C 0.39648 0.73603 0.39519 0.0
C1108 C 0.5055 0.74827 0.40366 0.0
C1109 C 0.53835 0.7949 0.37274 0.0
N1110 N 0.43065 0.74305 0.39828 0.0
N1111 N 0.50426 0.78742 0.36984 0.0
H1112 H 0.2495 0.65851 0.09933 0.0
H1113 H 0.22218 0.47988 0.17161 0.0
H1114 H 0.22415 0.65494 0.17621 0.0
H1115 H 0.21879 0.4895 0.0929 0.0
H1116 H 0.23115 0.54275 0.17472 0.0
H1117 H 0.24753 0.59525 0.09789 0.0
C1118 C 0.24388 0.64434 0.11599 0.0
C1119 C 0.23679 0.66192 0.1379 0.0
C1120 C 0.22852 0.53101 0.15679 0.0
C1121 C 0.23428 0.58944 0.13636 0.0
C1122 C 0.22347 0.49515 0.15499 0.0
C1123 C 0.21957 0.47942 0.13196 0.0
C1124 C 0.2301 0.55116 0.13539 0.0
C1125 C 0.22144 0.50049 0.11105 0.0
C1126 C 0.24258 0.60823 0.11513 0.0
C1127 C 0.22967 0.64229 0.15894 0.0
N1128 N 0.22662 0.5352 0.11327 0.0
N1129 N 0.22846 0.60702 0.15765 0.0
H1130 H 0.52947 0.17049 0.11673 0.0
H1131 H 0.38139 0.31196 0.09399 0.0
H1132 H 0.54793 0.2691 0.08166 0.0
H1133 H 0.36246 0.21048 0.12435 0.0
H1134 H 0.44182 0.29552 0.08676 0.0
H1135 H 0.4676 0.18339 0.11739 0.0
C1136 C 0.52051 0.19479 0.10905 0.0
C1137 C 0.54397 0.21887 0.0993 0.0
C1138 C 0.42437 0.27673 0.0948 0.0
C1139 C 0.4731 0.2339 0.10007 0.0
C1140 C 0.3899 0.2861 0.09886 0.0
C1141 C 0.36708 0.26259 0.10989 0.0
C1142 C 0.43603 0.24369 0.10195 0.0
C1143 C 0.37932 0.22942 0.11589 0.0
C1144 C 0.48514 0.20214 0.10941 0.0
C1145 C 0.53081 0.24985 0.08947 0.0
N1146 N 0.41302 0.22105 0.11202 0.0
N1147 N 0.4963 0.25657 0.09027 0.0
H1148 H 0.73776 0.51562 0.07716 0.0
H1149 H 0.7551 0.34591 0.16108 0.0
H1150 H 0.77666 0.51845 0.15125 0.0
H1151 H 0.73447 0.34382 0.08347 0.0
H1152 H 0.75699 0.40959 0.15944 0.0
H1153 H 0.73058 0.45301 0.08069 0.0
C1154 C 0.74476 0.5031 0.09421 0.0
C1155 C 0.758 0.52233 0.1139 0.0
C1156 C 0.75187 0.39516 0.14282 0.0
C1157 C 0.74973 0.45044 0.1181 0.0
C1158 C 0.75064 0.35891 0.14378 0.0
C1159 C 0.74474 0.33973 0.12236 0.0
C1160 C 0.74693 0.41217 0.1203 0.0
C1161 C 0.73921 0.35768 0.10039 0.0
C1162 C 0.74066 0.46728 0.09621 0.0
C1163 C 0.76652 0.50462 0.13556 0.0
N1164 N 0.7405 0.39286 0.09992 0.0
N1165 N 0.76226 0.46965 0.13708 0.0
H1166 H 0.42772 0.75247 0.08922 0.0
H1167 H 0.60159 0.76719 0.16746 0.0
H1168 H 0.44106 0.8271 0.14739 0.0
H1169 H 0.59735 0.71874 0.09633 0.0
H1170 H 0.54097 0.78482 0.16277 0.0
H1171 H 0.48845 0.73584 0.09348 0.0
C1172 C 0.44347 0.76548 0.10282 0.0
C1173 C 0.42931 0.79119 0.11799 0.0
C1174 C 0.55332 0.7703 0.14821 0.0
C1175 C 0.4987 0.77194 0.12317 0.0
C1176 C 0.58777 0.76006 0.15095 0.0
C1177 C 0.60433 0.74146 0.13226 0.0
C1178 C 0.53528 0.76151 0.12675 0.0
C1179 C 0.58544 0.73304 0.11117 0.0
C1180 C 0.47814 0.75598 0.10523 0.0
C1181 C 0.45095 0.80723 0.13526 0.0
N1182 N 0.55186 0.74304 0.109 0.0
N1183 N 0.48453 0.79714 0.13752 0.0
H1184 H 0.37449 0.26151 0.31028 0.0
H1185 H 0.22116 0.32659 0.22367 0.0
H1186 H 0.2673 0.235 0.32142 0.0
H1187 H 0.32698 0.31823 0.1989 0.0
H1188 H 0.23881 0.30487 0.26371 0.0
H1189 H 0.35828 0.29327 0.2731 0.0
C1190 C 0.34747 0.2628 0.30507 0.0
C1191 C 0.32199 0.24619 0.3191 0.0
C1192 C 0.25818 0.30805 0.24955 0.0
C1193 C 0.30342 0.28229 0.2768 0.0
C1194 C 0.2482 0.32059 0.2267 0.0
C1195 C 0.27259 0.32389 0.20778 0.0
C1196 C 0.29285 0.299 0.25363 0.0
C1197 C 0.30728 0.31582 0.21288 0.0
C1198 C 0.33829 0.28085 0.28388 0.0
C1199 C 0.2875 0.24827 0.31143 0.0
N1200 N 0.31638 0.30357 0.23533 0.0
N1201 N 0.27916 0.26606 0.2908 0.0
H1202 H 0.71836 0.32419 0.29088 0.0
H1203 H 0.75947 0.20791 0.17329 0.0
H1204 H 0.79712 0.24485 0.28923 0.0
H1205 H 0.65868 0.25214 0.18616 0.0
H1206 H 0.7795 0.23237 0.21216 0.0
H1207 H 0.7016 0.30812 0.24899 0.0
C1208 C 0.73228 0.30361 0.28164 0.0
C1209 C 0.75903 0.28566 0.29355 0.0
C1210 C 0.75311 0.23708 0.20634 0.0
C1211 C 0.74033 0.26759 0.24579 0.0
C1212 C 0.74183 0.2235 0.18408 0.0
C1213 C 0.70758 0.22839 0.17651 0.0
C1214 C 0.72995 0.25581 0.22108 0.0
C1215 C 0.68536 0.2479 0.19143 0.0
C1216 C 0.72264 0.29443 0.25783 0.0
C1217 C 0.77617 0.25917 0.2808 0.0
N1218 N 0.69693 0.26096 0.21308 0.0
N1219 N 0.76659 0.25099 0.25759 0.0
H1220 H 0.65902 0.76454 0.29764 0.0
H1221 H 0.79762 0.68448 0.2042 0.0
H1222 H 0.76764 0.75505 0.31413 0.0
H1223 H 0.68892 0.69505 0.18801 0.0
H1224 H 0.78738 0.70986 0.24469 0.0
H1225 H 0.66943 0.73808 0.25771 0.0
C1226 C 0.68509 0.75664 0.29296 0.0
C1227 C 0.71258 0.76193 0.30933 0.0
C1228 C 0.76579 0.7068 0.23224 0.0
C1229 C 0.72476 0.73185 0.26345 0.0
C1230 C 0.77164 0.6924 0.20912 0.0
C1231 C 0.74413 0.68818 0.19264 0.0
C1232 C 0.73211 0.71673 0.23897 0.0
C1233 C 0.71095 0.6985 0.2 0.0
C1234 C 0.69103 0.7416 0.27009 0.0
C1235 C 0.74576 0.75132 0.30217 0.0
N1236 N 0.70585 0.71227 0.22262 0.0
N1237 N 0.75098 0.73684 0.27976 0.0
H1238 H 0.29423 0.70803 0.31416 0.0
H1239 H 0.21617 0.77307 0.18645 0.0
H1240 H 0.1867 0.69605 0.29517 0.0
H1241 H 0.32431 0.7765 0.20527 0.0
H1242 H 0.20402 0.74456 0.22564 0.0
H1243 H 0.30499 0.73432 0.27432 0.0
C1244 C 0.27274 0.71165 0.30175 0.0
C1245 C 0.23944 0.70071 0.30816 0.0
C1246 C 0.23043 0.75139 0.22111 0.0
C1247 C 0.25159 0.72978 0.26208 0.0
C1248 C 0.23731 0.76755 0.1987 0.0
C1249 C 0.27114 0.77725 0.19257 0.0
C1250 C 0.25769 0.74515 0.23755 0.0
C1251 C 0.29775 0.76956 0.20919 0.0
C1252 C 0.27893 0.7262 0.27883 0.0
C1253 C 0.21272 0.70459 0.29098 0.0
N1254 N 0.29043 0.75416 0.23092 0.0
N1255 N 0.21933 0.71895 0.26869 0.0
H1256 H 0.69663 0.79811 0.71609 0.0
H1257 H 0.85146 0.7472 0.8067 0.0
H1258 H 0.80424 0.7957 0.69486 0.0
H1259 H 0.74406 0.73117 0.82425 0.0
H1260 H 0.83445 0.7722 0.76738 0.0
H1261 H 0.71336 0.78122 0.75763 0.0
C1262 C 0.7238 0.79439 0.7202 0.0
C1263 C 0.74906 0.7982 0.70191 0.0
C1264 C 0.8145 0.76361 0.7799 0.0
C1265 C 0.76831 0.77874 0.74938 0.0
C1266 C 0.82419 0.74936 0.80234 0.0
C1267 C 0.79894 0.73773 0.81882 0.0
C1268 C 0.77927 0.766 0.77381 0.0
C1269 C 0.76408 0.74088 0.81226 0.0
C1270 C 0.73329 0.78461 0.7439 0.0
C1271 C 0.78384 0.79294 0.70831 0.0
N1272 N 0.75518 0.75465 0.7902 0.0
N1273 N 0.7924 0.78338 0.73147 0.0
H1274 H 0.2689 0.75624 0.82761 0.0
H1275 H 0.16363 0.78733 0.70337 0.0
H1276 H 0.21885 0.85325 0.8108 0.0
H1277 H 0.24397 0.71044 0.71161 0.0
H1278 H 0.17386 0.80607 0.74571 0.0
H1279 H 0.24919 0.73295 0.78833 0.0
C1280 C 0.25295 0.7723 0.81589 0.0
C1281 C 0.24513 0.80652 0.8225 0.0
C1282 C 0.18906 0.78498 0.73823 0.0
C1283 C 0.22324 0.78045 0.77734 0.0
C1284 C 0.1832 0.77421 0.71414 0.0
C1285 C 0.20314 0.74742 0.70392 0.0
C1286 C 0.21466 0.76848 0.75227 0.0
C1287 C 0.22819 0.73137 0.71867 0.0
C1288 C 0.24211 0.75918 0.79336 0.0
C1289 C 0.22532 0.82667 0.80635 0.0
N1290 N 0.23321 0.74212 0.7421 0.0
N1291 N 0.21507 0.81335 0.78443 0.0
H1292 H 0.17158 0.21218 0.798 0.0
H1293 H 0.27002 0.24536 0.67158 0.0
H1294 H 0.24847 0.29204 0.78767 0.0
H1295 H 0.2289 0.14525 0.69117 0.0
H1296 H 0.25051 0.26836 0.71096 0.0
H1297 H 0.18165 0.19252 0.75586 0.0
C1298 C 0.19035 0.22574 0.78681 0.0
C1299 C 0.20941 0.25364 0.79635 0.0
C1300 C 0.24534 0.24148 0.70653 0.0
C1301 C 0.22065 0.23159 0.74828 0.0
C1302 C 0.25604 0.22849 0.68397 0.0
C1303 C 0.25063 0.19356 0.6781 0.0
C1304 C 0.229 0.21935 0.72331 0.0
C1305 C 0.23343 0.1724 0.69506 0.0
C1306 C 0.19612 0.21445 0.76285 0.0
C1307 C 0.23342 0.27026 0.7811 0.0
N1308 N 0.22319 0.18564 0.717 0.0
N1309 N 0.23832 0.25901 0.7578 0.0
H1310 H 0.74974 0.25519 0.81736 0.0
H1311 H 0.75616 0.22684 0.67298 0.0
H1312 H 0.71467 0.16128 0.78258 0.0
H1313 H 0.82047 0.30105 0.71047 0.0
H1314 H 0.73387 0.20699 0.71232 0.0
H1315 H 0.76959 0.27669 0.7778 0.0
C1316 C 0.74656 0.23893 0.80149 0.0
C1317 C 0.73123 0.20615 0.80344 0.0
C1318 C 0.75288 0.22761 0.71192 0.0
C1319 C 0.75289 0.23091 0.75783 0.0
C1320 C 0.76562 0.23895 0.68939 0.0
C1321 C 0.79056 0.26525 0.68832 0.0
C1322 C 0.76488 0.24307 0.73357 0.0
C1323 C 0.80139 0.2805 0.71039 0.0
C1324 C 0.7577 0.2513 0.77884 0.0
C1325 C 0.72672 0.18661 0.78198 0.0
N1326 N 0.78851 0.26917 0.73211 0.0
N1327 N 0.73748 0.1993 0.76004 0.0
H1328 H 0.07337 0.44536 0.14416 0.0
H1329 H 0.92777 0.56518 0.08331 0.0
H1330 H 0.01768 0.41556 0.0789 0.0
H1331 H 0.97708 0.58578 0.15273 0.0
H1332 H 0.96188 0.51174 0.07971 0.0
H1333 H 0.04175 0.49975 0.14486 0.0
C1334 C 0.05501 0.45052 0.12962 0.0
C1335 C 0.04829 0.42577 0.11138 0.0
C1336 C 0.96515 0.52799 0.09572 0.0
C1337 C 0.01093 0.4879 0.11259 0.0
C1338 C 0.94549 0.55829 0.09789 0.0
C1339 C 0.94973 0.58006 0.11829 0.0
C1340 C 0.98919 0.51951 0.11408 0.0
C1341 C 0.97335 0.57009 0.1365 0.0
C1342 C 0.03655 0.48149 0.13025 0.0
C1343 C 0.02348 0.43377 0.09342 0.0
N1344 N 0.99222 0.54067 0.13391 0.0
N1345 N 0.00553 0.46409 0.09454 0.0
H1346 H 0.39195 0.02264 0.09508 0.0
H1347 H 0.57613 0.00106 0.15734 0.0
H1348 H 0.41686 0.93892 0.14439 0.0
H1349 H 0.56309 0.05693 0.0894 0.0
H1350 H 0.51611 0.98238 0.155 0.0
H1351 H 0.45321 0.03913 0.09419 0.0
C1352 C 0.41045 0.00755 0.1055 0.0
C1353 C 0.39949 0.97945 0.11987 0.0
C1354 C 0.52641 0.9986 0.14055 0.0
C1355 C 0.46915 0.99843 0.11927 0.0
C1356 C 0.56073 0.00927 0.14182 0.0
C1357 C 0.57495 0.03021 0.12332 0.0
C1358 C 0.50576 0.00935 0.12086 0.0
C1359 C 0.55325 0.04094 0.10412 0.0
C1360 C 0.4453 0.01694 0.10498 0.0
C1361 C 0.42435 0.96061 0.13297 0.0
N1362 N 0.51967 0.03039 0.10338 0.0
N1363 N 0.45802 0.9707 0.13259 0.0
H1364 H 0.08498 0.54462 0.35933 0.0
H1365 H 0.91751 0.43052 0.39161 0.0
H1366 H 0.99305 0.58805 0.39208 0.0
H1367 H 0.00363 0.39454 0.34814 0.0
H1368 H 0.94524 0.48781 0.39423 0.0
H1369 H 0.05675 0.48796 0.35829 0.0
C1370 C 0.05895 0.54215 0.36648 0.0
C1371 C 0.04128 0.57109 0.37567 0.0
C1372 C 0.95801 0.46725 0.38419 0.0
C1373 C 0.00859 0.5064 0.37435 0.0
C1374 C 0.94214 0.43467 0.38261 0.0
C1375 C 0.95853 0.40754 0.37001 0.0
C1376 C 0.99041 0.47259 0.37304 0.0
C1377 C 0.99044 0.41435 0.35864 0.0
C1378 C 0.04271 0.50987 0.36573 0.0
C1379 C 0.00742 0.56646 0.3845 0.0
N1380 N 0.00533 0.44604 0.36052 0.0
N1381 N 0.99214 0.53474 0.38361 0.0
H1382 H 0.61377 0.99847 0.42975 0.0
H1383 H 0.44211 0.00366 0.34851 0.0
H1384 H 0.59317 0.92927 0.36936 0.0
H1385 H 0.45129 0.05943 0.41675 0.0
H1386 H 0.4992 0.97886 0.35513 0.0
H1387 H 0.55556 0.02287 0.42513 0.0
C1388 C 0.59688 0.98822 0.41567 0.0
C1389 C 0.60832 0.96183 0.39989 0.0
C1390 C 0.48881 0.99647 0.36872 0.0
C1391 C 0.54202 0.98977 0.39438 0.0
C1392 C 0.45616 0.01065 0.36496 0.0
C1393 C 0.44171 0.0333 0.38228 0.0
C1394 C 0.50747 0.00514 0.38988 0.0
C1395 C 0.46151 0.04214 0.40291 0.0
C1396 C 0.56371 0.00214 0.41306 0.0
C1397 C 0.58533 0.94931 0.38209 0.0
N1398 N 0.49342 0.02792 0.4062 0.0
N1399 N 0.55342 0.96358 0.37971 0.0
H1400 H 0.09291 0.47817 0.91216 0.0
H1401 H 0.91466 0.51041 0.84133 0.0
H1402 H 0.06259 0.42358 0.84661 0.0
H1403 H 0.93667 0.55483 0.91218 0.0
H1404 H 0.9701 0.48034 0.84249 0.0
H1405 H 0.03647 0.50707 0.9127 0.0
C1406 C 0.07419 0.47195 0.89806 0.0
C1407 C 0.08247 0.44844 0.8793 0.0
C1408 C 0.9629 0.49668 0.8578 0.0
C1409 C 0.0181 0.48175 0.8796 0.0
C1410 C 0.93125 0.51392 0.85714 0.0
C1411 C 0.92085 0.53496 0.8768 0.0
C1412 C 0.9846 0.50052 0.87824 0.0
C1413 C 0.94373 0.53905 0.89657 0.0
C1414 C 0.04204 0.48851 0.89835 0.0
C1415 C 0.05721 0.44121 0.86157 0.0
N1416 N 0.97449 0.52185 0.89684 0.0
N1417 N 0.02632 0.45803 0.86204 0.0
H1418 H 0.49761 0.10373 0.92304 0.0
H1419 H 0.48114 0.92616 0.84898 0.0
H1420 H 0.56705 0.07247 0.86522 0.0
H1421 H 0.42577 0.94475 0.91635 0.0
H1422 H 0.50963 0.98206 0.85338 0.0
H1423 H 0.46886 0.04722 0.92036 0.0
C1424 C 0.50698 0.08482 0.90995 0.0
C1425 C 0.53469 0.09274 0.89428 0.0
C1426 C 0.49128 0.974 0.86724 0.0
C1427 C 0.50179 0.02846 0.89094 0.0
C1428 C 0.47496 0.94209 0.86473 0.0
C1429 C 0.45142 0.93061 0.88252 0.0
C1430 C 0.48388 0.99488 0.88761 0.0
C1431 C 0.44374 0.95269 0.90221 0.0
C1432 C 0.49058 0.05265 0.90843 0.0
C1433 C 0.546 0.06731 0.87779 0.0
N1434 N 0.46008 0.98381 0.90431 0.0
N1435 N 0.52931 0.03643 0.87641 0.0
H1436 H 0.09111 0.52195 0.58877 0.0
H1437 H 0.91773 0.49218 0.6657 0.0
H1438 H 0.06473 0.57829 0.65445 0.0
H1439 H 0.93217 0.44982 0.59327 0.0
H1440 H 0.97393 0.52042 0.66273 0.0
H1441 H 0.03448 0.49334 0.5902 0.0
C1442 C 0.07322 0.52861 0.6033 0.0
C1443 C 0.08263 0.55257 0.62151 0.0
C1444 C 0.96494 0.50491 0.64746 0.0
C1445 C 0.01819 0.51961 0.62346 0.0
C1446 C 0.93288 0.48869 0.64918 0.0
C1447 C 0.9201 0.46893 0.62959 0.0
C1448 C 0.98463 0.50131 0.62602 0.0
C1449 C 0.94112 0.46473 0.60883 0.0
C1450 C 0.04099 0.51223 0.60413 0.0
C1451 C 0.05845 0.56034 0.63987 0.0
N1452 N 0.97235 0.48099 0.60752 0.0
N1453 N 0.02752 0.54369 0.64048 0.0
H1454 H 0.47806 0.87642 0.61633 0.0
H1455 H 0.49762 0.07619 0.58049 0.0
H1456 H 0.56872 0.91835 0.58088 0.0
H1457 H 0.41137 0.03453 0.62111 0.0
H1458 H 0.5208 0.01762 0.57586 0.0
H1459 H 0.45043 0.93288 0.61364 0.0
C1460 C 0.49202 0.89738 0.60757 0.0
C1461 C 0.52575 0.89245 0.59858 0.0
C1462 C 0.49667 0.02122 0.58561 0.0
C1463 C 0.49429 0.95777 0.59602 0.0
C1464 C 0.48342 0.05464 0.5883 0.0
C1465 C 0.45275 0.0603 0.60154 0.0
C1466 C 0.47913 0.99315 0.59622 0.0
C1467 C 0.43506 0.03138 0.61077 0.0
C1468 C 0.47624 0.92977 0.60624 0.0
C1469 C 0.54278 0.92098 0.58813 0.0
N1470 N 0.44869 0.99908 0.60814 0.0
N1471 N 0.52689 0.95247 0.58719 0.0
loop_
_geom_bond_atom_site_label_1
_geom_bond_atom_site_label_2
_geom_bond_distance
_geom_bond_site_symmetry_2
_ccdc_geom_bond_type
O0 Tb1 2.292 . S
O0 C3 1.255 . S
Tb1 O0 2.292 . S
Tb1 O17 2.326 . S
Tb1 O19 2.500 . S
Tb1 O20 2.473 . S
Tb1 O23 2.324 . S
Eu2 O6 2.292 . S
Eu2 C7 2.852 . S
Eu2 O18 2.324 . S
Eu2 O22 2.326 . S
Eu2 O24 2.500 . S
Eu2 O25 2.473 . S
C3 O0 1.255 . S
C3 O4 1.247 . S
O4 C3 1.247 . S
C5 O17 1.242 . S
C5 O18 1.258 . S
O6 Eu2 2.292 . S
O6 C8 1.255 . S
C7 Eu2 2.852 . S
C7 C11 1.503 . S
C7 O24 1.273 . S
C7 O25 1.257 . S
C8 O6 1.255 . S
C8 O9 1.247 . S
O9 C8 1.247 . S
C10 O22 1.242 . S
C10 O23 1.258 . S
C11 C7 1.503 . S
C11 C12 1.379 . S
C11 C16 1.392 . S
C12 C11 1.379 . S
C12 C13 1.404 . S
C12 H26 0.929 . S
C13 C12 1.404 . S
C13 C14 1.389 . S
C14 C13 1.389 . S
C14 C15 1.399 . S
C14 H27 0.931 . S
C15 C14 1.399 . S
C15 C16 1.390 . S
C16 C11 1.392 . S
C16 C15 1.390 . S
C16 H28 0.929 . S
O17 Tb1 2.326 . S
O17 C5 1.242 . S
O18 Eu2 2.324 . S
O18 C5 1.258 . S
O19 Tb1 2.500 . S
O19 C21 1.273 . S
O20 Tb1 2.473 . S
O20 C21 1.257 . S
C21 O19 1.273 . S
C21 O20 1.257 . S
O22 Eu2 2.326 . S
O22 C10 1.242 . S
O23 Tb1 2.324 . S
O23 C10 1.258 . S
O24 Eu2 2.500 . S
O24 C7 1.273 . S
O25 Eu2 2.473 . S
O25 C7 1.257 . S
H26 C12 0.929 . S
H27 C14 0.931 . S
H28 C16 0.929 . S
O29 Tb30 2.292 . S
O29 C32 1.255 . S
Tb30 O29 2.292 . S
Tb30 O46 2.326 . S
Tb30 O48 2.500 . S
Tb30 O49 2.473 . S
Tb30 O52 2.324 . S
Eu31 O35 2.292 . S
Eu31 C36 2.852 . S
Eu31 O47 2.324 . S
Eu31 O51 2.326 . S
Eu31 O53 2.500 . S
Eu31 O54 2.473 . S
C32 O29 1.255 . S
C32 O33 1.247 . S
O33 C32 1.247 . S
C34 O46 1.242 . S
C34 O47 1.258 . S
O35 Eu31 2.292 . S
O35 C37 1.255 . S
C36 Eu31 2.852 . S
C36 C40 1.503 . S
C36 O53 1.273 . S
C36 O54 1.257 . S
C37 O35 1.255 . S
C37 O38 1.247 . S
O38 C37 1.247 . S
C39 O51 1.242 . S
C39 O52 1.258 . S
C40 C36 1.503 . S
C40 C41 1.379 . S
C40 C45 1.392 . S
C41 C40 1.379 . S
C41 C42 1.404 . S
C41 H55 0.929 . S
C42 C41 1.404 . S
C42 C43 1.389 . S
C43 C42 1.389 . S
C43 C44 1.399 . S
C43 H56 0.931 . S
C44 C43 1.399 . S
C44 C45 1.390 . S
C45 C40 1.392 . S
C45 C44 1.390 . S
C45 H57 0.929 . S
O46 Tb30 2.326 . S
O46 C34 1.242 . S
O47 Eu31 2.324 . S
O47 C34 1.258 . S
O48 Tb30 2.500 . S
O48 C50 1.273 . S
O49 Tb30 2.473 . S
O49 C50 1.257 . S
C50 O48 1.273 . S
C50 O49 1.257 . S
O51 Eu31 2.326 . S
O51 C39 1.242 . S
O52 Tb30 2.324 . S
O52 C39 1.258 . S
O53 Eu31 2.500 . S
O53 C36 1.273 . S
O54 Eu31 2.473 . S
O54 C36 1.257 . S
H55 C41 0.929 . S
H56 C43 0.931 . S
H57 C45 0.929 . S
O58 Tb59 2.292 . S
O58 C61 1.255 . S
Tb59 O58 2.292 . S
Tb59 O75 2.326 . S
Tb59 O77 2.500 . S
Tb59 O78 2.473 . S
Tb59 O81 2.324 . S
Eu60 O64 2.292 . S
Eu60 C65 2.852 . S
Eu60 O76 2.324 . S
Eu60 O80 2.326 . S
Eu60 O82 2.500 . S
Eu60 O83 2.473 . S
C61 O58 1.255 . S
C61 O62 1.247 . S
O62 C61 1.247 . S
C63 O75 1.242 . S
C63 O76 1.258 . S
O64 Eu60 2.292 . S
O64 C66 1.255 . S
C65 Eu60 2.852 . S
C65 C69 1.503 . S
C65 O82 1.273 . S
C65 O83 1.257 . S
C66 O64 1.255 . S
C66 O67 1.247 . S
O67 C66 1.247 . S
C68 O80 1.242 . S
C68 O81 1.258 . S
C69 C65 1.503 . S
C69 C70 1.379 . S
C69 C74 1.392 . S
C70 C69 1.379 . S
C70 C71 1.404 . S
C70 H84 0.929 . S
C71 C70 1.404 . S
C71 C72 1.389 . S
C72 C71 1.389 . S
C72 C73 1.399 . S
C72 H85 0.931 . S
C73 C72 1.399 . S
C73 C74 1.390 . S
C74 C69 1.392 . S
C74 C73 1.390 . S
C74 H86 0.929 . S
O75 Tb59 2.326 . S
O75 C63 1.242 . S
O76 Eu60 2.324 . S
O76 C63 1.258 . S
O77 Tb59 2.500 . S
O77 C79 1.273 . S
O78 Tb59 2.473 . S
O78 C79 1.257 . S
C79 O77 1.273 . S
C79 O78 1.257 . S
O80 Eu60 2.326 . S
O80 C68 1.242 . S
O81 Tb59 2.324 . S
O81 C68 1.258 . S
O82 Eu60 2.500 . S
O82 C65 1.273 . S
O83 Eu60 2.473 . S
O83 C65 1.257 . S
H84 C70 0.929 . S
H85 C72 0.931 . S
H86 C74 0.929 . S
O87 Tb88 2.292 . S
O87 C90 1.255 . S
Tb88 O87 2.292 . S
Tb88 O104 2.326 . S
Tb88 O106 2.500 . S
Tb88 O107 2.473 . S
Tb88 O110 2.324 . S
Eu89 O93 2.292 . S
Eu89 C94 2.852 . S
Eu89 O105 2.324 . S
Eu89 O109 2.326 . S
Eu89 O111 2.500 . S
Eu89 O112 2.473 . S
C90 O87 1.255 . S
C90 O91 1.247 . S
O91 C90 1.247 . S
C92 O104 1.242 . S
C92 O105 1.258 . S
O93 Eu89 2.292 . S
O93 C95 1.255 . S
C94 Eu89 2.852 . S
C94 C98 1.503 . S
C94 O111 1.273 . S
C94 O112 1.257 . S
C95 O93 1.255 . S
C95 O96 1.247 . S
O96 C95 1.247 . S
C97 O109 1.242 . S
C97 O110 1.258 . S
C98 C94 1.503 . S
C98 C99 1.379 . S
C98 C103 1.392 . S
C99 C98 1.379 . S
C99 C100 1.404 . S
C99 H113 0.929 . S
C100 C99 1.404 . S
C100 C101 1.389 . S
C101 C100 1.389 . S
C101 C102 1.399 . S
C101 H114 0.931 . S
C102 C101 1.399 . S
C102 C103 1.390 . S
C103 C98 1.392 . S
C103 C102 1.390 . S
C103 H115 0.929 . S
O104 Tb88 2.326 . S
O104 C92 1.242 . S
O105 Eu89 2.324 . S
O105 C92 1.258 . S
O106 Tb88 2.500 . S
O106 C108 1.273 . S
O107 Tb88 2.473 . S
O107 C108 1.257 . S
C108 O106 1.273 . S
C108 O107 1.257 . S
O109 Eu89 2.326 . S
O109 C97 1.242 . S
O110 Tb88 2.324 . S
O110 C97 1.258 . S
O111 Eu89 2.500 . S
O111 C94 1.273 . S
O112 Eu89 2.473 . S
O112 C94 1.257 . S
H113 C99 0.929 . S
H114 C101 0.931 . S
H115 C103 0.929 . S
O116 Tb117 2.292 . S
O116 C119 1.255 . S
Tb117 O116 2.292 . S
Tb117 O133 2.326 . S
Tb117 O135 2.500 . S
Tb117 O136 2.473 . S
Tb117 O139 2.324 . S
Eu118 O122 2.292 . S
Eu118 C123 2.852 . S
Eu118 O134 2.324 . S
Eu118 O138 2.326 . S
Eu118 O140 2.500 . S
Eu118 O141 2.473 . S
C119 O116 1.255 . S
C119 O120 1.247 . S
O120 C119 1.247 . S
C121 O133 1.242 . S
C121 O134 1.258 . S
O122 Eu118 2.292 . S
O122 C124 1.255 . S
C123 Eu118 2.852 . S
C123 C127 1.503 . S
C123 O140 1.273 . S
C123 O141 1.257 . S
C124 O122 1.255 . S
C124 O125 1.247 . S
O125 C124 1.247 . S
C126 O138 1.242 . S
C126 O139 1.258 . S
C127 C123 1.503 . S
C127 C128 1.379 . S
C127 C132 1.392 . S
C128 C127 1.379 . S
C128 C129 1.404 . S
C128 H142 0.929 . S
C129 C128 1.404 . S
C129 C130 1.389 . S
C130 C129 1.389 . S
C130 C131 1.399 . S
C130 H143 0.931 . S
C131 C130 1.399 . S
C131 C132 1.390 . S
C132 C127 1.392 . S
C132 C131 1.390 . S
C132 H144 0.929 . S
O133 Tb117 2.326 . S
O133 C121 1.242 . S
O134 Eu118 2.324 . S
O134 C121 1.258 . S
O135 Tb117 2.500 . S
O135 C137 1.273 . S
O136 Tb117 2.473 . S
O136 C137 1.257 . S
C137 O135 1.273 . S
C137 O136 1.257 . S
O138 Eu118 2.326 . S
O138 C126 1.242 . S
O139 Tb117 2.324 . S
O139 C126 1.258 . S
O140 Eu118 2.500 . S
O140 C123 1.273 . S
O141 Eu118 2.473 . S
O141 C123 1.257 . S
H142 C128 0.929 . S
H143 C130 0.931 . S
H144 C132 0.929 . S
O145 Tb146 2.292 . S
O145 C148 1.255 . S
Tb146 O145 2.292 . S
Tb146 O162 2.326 . S
Tb146 O164 2.500 . S
Tb146 O165 2.473 . S
Tb146 O168 2.324 . S
Eu147 O151 2.292 . S
Eu147 C152 2.852 . S
Eu147 O163 2.324 . S
Eu147 O167 2.326 . S
Eu147 O169 2.500 . S
Eu147 O170 2.473 . S
C148 O145 1.255 . S
C148 O149 1.247 . S
O149 C148 1.247 . S
C150 O162 1.242 . S
C150 O163 1.258 . S
O151 Eu147 2.292 . S
O151 C153 1.255 . S
C152 Eu147 2.852 . S
C152 C156 1.503 . S
C152 O169 1.273 . S
C152 O170 1.257 . S
C153 O151 1.255 . S
C153 O154 1.247 . S
O154 C153 1.247 . S
C155 O167 1.242 . S
C155 O168 1.258 . S
C156 C152 1.503 . S
C156 C157 1.379 . S
C156 C161 1.392 . S
C157 C156 1.379 . S
C157 C158 1.404 . S
C157 H171 0.929 . S
C158 C157 1.404 . S
C158 C159 1.389 . S
C159 C158 1.389 . S
C159 C160 1.399 . S
C159 H172 0.931 . S
C160 C159 1.399 . S
C160 C161 1.390 . S
C161 C156 1.392 . S
C161 C160 1.390 . S
C161 H173 0.929 . S
O162 Tb146 2.326 . S
O162 C150 1.242 . S
O163 Eu147 2.324 . S
O163 C150 1.258 . S
O164 Tb146 2.500 . S
O164 C166 1.273 . S
O165 Tb146 2.473 . S
O165 C166 1.257 . S
C166 O164 1.273 . S
C166 O165 1.257 . S
O167 Eu147 2.326 . S
O167 C155 1.242 . S
O168 Tb146 2.324 . S
O168 C155 1.258 . S
O169 Eu147 2.500 . S
O169 C152 1.273 . S
O170 Eu147 2.473 . S
O170 C152 1.257 . S
H171 C157 0.929 . S
H172 C159 0.931 . S
H173 C161 0.929 . S
O174 Tb175 2.292 . S
O174 C177 1.255 . S
Tb175 O174 2.292 . S
Tb175 O191 2.326 . S
Tb175 O193 2.500 . S
Tb175 O194 2.473 . S
Tb175 O197 2.324 . S
Eu176 O180 2.292 . S
Eu176 C181 2.852 . S
Eu176 O192 2.324 . S
Eu176 O196 2.326 . S
Eu176 O198 2.500 . S
Eu176 O199 2.473 . S
C177 O174 1.255 . S
C177 O178 1.247 . S
O178 C177 1.247 . S
C179 O191 1.242 . S
C179 O192 1.258 . S
O180 Eu176 2.292 . S
O180 C182 1.255 . S
C181 Eu176 2.852 . S
C181 C185 1.503 . S
C181 O198 1.273 . S
C181 O199 1.257 . S
C182 O180 1.255 . S
C182 O183 1.247 . S
O183 C182 1.247 . S
C184 O196 1.242 . S
C184 O197 1.258 . S
C185 C181 1.503 . S
C185 C186 1.379 . S
C185 C190 1.392 . S
C186 C185 1.379 . S
C186 C187 1.404 . S
C186 H200 0.929 . S
C187 C186 1.404 . S
C187 C188 1.389 . S
C188 C187 1.389 . S
C188 C189 1.399 . S
C188 H201 0.931 . S
C189 C188 1.399 . S
C189 C190 1.390 . S
C190 C185 1.392 . S
C190 C189 1.390 . S
C190 H202 0.929 . S
O191 Tb175 2.326 . S
O191 C179 1.242 . S
O192 Eu176 2.324 . S
O192 C179 1.258 . S
O193 Tb175 2.500 . S
O193 C195 1.273 . S
O194 Tb175 2.473 . S
O194 C195 1.257 . S
C195 O193 1.273 . S
C195 O194 1.257 . S
O196 Eu176 2.326 . S
O196 C184 1.242 . S
O197 Tb175 2.324 . S
O197 C184 1.258 . S
O198 Eu176 2.500 . S
O198 C181 1.273 . S
O199 Eu176 2.473 . S
O199 C181 1.257 . S
H200 C186 0.929 . S
H201 C188 0.931 . S
H202 C190 0.929 . S
O203 Tb204 2.292 . S
O203 C206 1.255 . S
Tb204 O203 2.292 . S
Tb204 O220 2.326 . S
Tb204 O222 2.500 . S
Tb204 O223 2.473 . S
Tb204 O226 2.324 . S
Eu205 O209 2.292 . S
Eu205 C210 2.852 . S
Eu205 O221 2.324 . S
Eu205 O225 2.326 . S
Eu205 O227 2.500 . S
Eu205 O228 2.473 . S
C206 O203 1.255 . S
C206 O207 1.247 . S
O207 C206 1.247 . S
C208 O220 1.242 . S
C208 O221 1.258 . S
O209 Eu205 2.292 . S
O209 C211 1.255 . S
C210 Eu205 2.852 . S
C210 C214 1.503 . S
C210 O227 1.273 . S
C210 O228 1.257 . S
C211 O209 1.255 . S
C211 O212 1.247 . S
O212 C211 1.247 . S
C213 O225 1.242 . S
C213 O226 1.258 . S
C214 C210 1.503 . S
C214 C215 1.379 . S
C214 C219 1.392 . S
C215 C214 1.379 . S
C215 C216 1.404 . S
C215 H229 0.929 . S
C216 C215 1.404 . S
C216 C217 1.389 . S
C217 C216 1.389 . S
C217 C218 1.399 . S
C217 H230 0.931 . S
C218 C217 1.399 . S
C218 C219 1.390 . S
C219 C214 1.392 . S
C219 C218 1.390 . S
C219 H231 0.929 . S
O220 Tb204 2.326 . S
O220 C208 1.242 . S
O221 Eu205 2.324 . S
O221 C208 1.258 . S
O222 Tb204 2.500 . S
O222 C224 1.273 . S
O223 Tb204 2.473 . S
O223 C224 1.257 . S
C224 O222 1.273 . S
C224 O223 1.257 . S
O225 Eu205 2.326 . S
O225 C213 1.242 . S
O226 Tb204 2.324 . S
O226 C213 1.258 . S
O227 Eu205 2.500 . S
O227 C210 1.273 . S
O228 Eu205 2.473 . S
O228 C210 1.257 . S
H229 C215 0.929 . S
H230 C217 0.931 . S
H231 C219 0.929 . S
O232 Tb233 2.292 . S
O232 C235 1.255 . S
Tb233 O232 2.292 . S
Tb233 O249 2.326 . S
Tb233 O251 2.500 . S
Tb233 O252 2.473 . S
Tb233 O255 2.324 . S
Eu234 O238 2.292 . S
Eu234 C239 2.852 . S
Eu234 O250 2.324 . S
Eu234 O254 2.326 . S
Eu234 O256 2.500 . S
Eu234 O257 2.473 . S
C235 O232 1.255 . S
C235 O236 1.247 . S
O236 C235 1.247 . S
C237 O249 1.242 . S
C237 O250 1.258 . S
O238 Eu234 2.292 . S
O238 C240 1.255 . S
C239 Eu234 2.852 . S
C239 C243 1.503 . S
C239 O256 1.273 . S
C239 O257 1.257 . S
C240 O238 1.255 . S
C240 O241 1.247 . S
O241 C240 1.247 . S
C242 O254 1.242 . S
C242 O255 1.258 . S
C243 C239 1.503 . S
C243 C244 1.379 . S
C243 C248 1.392 . S
C244 C243 1.379 . S
C244 C245 1.404 . S
C244 H258 0.929 . S
C245 C244 1.404 . S
C245 C246 1.389 . S
C246 C245 1.389 . S
C246 C247 1.399 . S
C246 H259 0.931 . S
C247 C246 1.399 . S
C247 C248 1.390 . S
C248 C243 1.392 . S
C248 C247 1.390 . S
C248 H260 0.929 . S
O249 Tb233 2.326 . S
O249 C237 1.242 . S
O250 Eu234 2.324 . S
O250 C237 1.258 . S
O251 Tb233 2.500 . S
O251 C253 1.273 . S
O252 Tb233 2.473 . S
O252 C253 1.257 . S
C253 O251 1.273 . S
C253 O252 1.257 . S
O254 Eu234 2.326 . S
O254 C242 1.242 . S
O255 Tb233 2.324 . S
O255 C242 1.258 . S
O256 Eu234 2.500 . S
O256 C239 1.273 . S
O257 Eu234 2.473 . S
O257 C239 1.257 . S
H258 C244 0.929 . S
H259 C246 0.931 . S
H260 C248 0.929 . S
O261 Tb262 2.292 . S
O261 C264 1.255 . S
Tb262 O261 2.292 . S
Tb262 O278 2.326 . S
Tb262 O280 2.500 . S
Tb262 O281 2.473 . S
Tb262 O284 2.324 . S
Eu263 O267 2.292 . S
Eu263 C268 2.852 . S
Eu263 O279 2.324 . S
Eu263 O283 2.326 . S
Eu263 O285 2.500 . S
Eu263 O286 2.473 . S
C264 O261 1.255 . S
C264 O265 1.247 . S
O265 C264 1.247 . S
C266 O278 1.242 . S
C266 O279 1.258 . S
O267 Eu263 2.292 . S
O267 C269 1.255 . S
C268 Eu263 2.852 . S
C268 C272 1.503 . S
C268 O285 1.273 . S
C268 O286 1.257 . S
C269 O267 1.255 . S
C269 O270 1.247 . S
O270 C269 1.247 . S
C271 O283 1.242 . S
C271 O284 1.258 . S
C272 C268 1.503 . S
C272 C273 1.379 . S
C272 C277 1.392 . S
C273 C272 1.379 . S
C273 C274 1.404 . S
C273 H287 0.929 . S
C274 C273 1.404 . S
C274 C275 1.389 . S
C275 C274 1.389 . S
C275 C276 1.399 . S
C275 H288 0.931 . S
C276 C275 1.399 . S
C276 C277 1.390 . S
C277 C272 1.392 . S
C277 C276 1.390 . S
C277 H289 0.929 . S
O278 Tb262 2.326 . S
O278 C266 1.242 . S
O279 Eu263 2.324 . S
O279 C266 1.258 . S
O280 Tb262 2.500 . S
O280 C282 1.273 . S
O281 Tb262 2.473 . S
O281 C282 1.257 . S
C282 O280 1.273 . S
C282 O281 1.257 . S
O283 Eu263 2.326 . S
O283 C271 1.242 . S
O284 Tb262 2.324 . S
O284 C271 1.258 . S
O285 Eu263 2.500 . S
O285 C268 1.273 . S
O286 Eu263 2.473 . S
O286 C268 1.257 . S
H287 C273 0.929 . S
H288 C275 0.931 . S
H289 C277 0.929 . S
O290 Tb291 2.292 . S
O290 C293 1.255 . S
Tb291 O290 2.292 . S
Tb291 O307 2.326 . S
Tb291 O309 2.500 . S
Tb291 O310 2.473 . S
Tb291 O313 2.324 . S
Eu292 O296 2.292 . S
Eu292 C297 2.852 . S
Eu292 O308 2.324 . S
Eu292 O312 2.326 . S
Eu292 O314 2.500 . S
Eu292 O315 2.473 . S
C293 O290 1.255 . S
C293 O294 1.247 . S
O294 C293 1.247 . S
C295 O307 1.242 . S
C295 O308 1.258 . S
O296 Eu292 2.292 . S
O296 C298 1.255 . S
C297 Eu292 2.852 . S
C297 C301 1.503 . S
C297 O314 1.273 . S
C297 O315 1.257 . S
C298 O296 1.255 . S
C298 O299 1.247 . S
O299 C298 1.247 . S
C300 O312 1.242 . S
C300 O313 1.258 . S
C301 C297 1.503 . S
C301 C302 1.379 . S
C301 C306 1.392 . S
C302 C301 1.379 . S
C302 C303 1.404 . S
C302 H316 0.929 . S
C303 C302 1.404 . S
C303 C304 1.389 . S
C304 C303 1.389 . S
C304 C305 1.399 . S
C304 H317 0.931 . S
C305 C304 1.399 . S
C305 C306 1.390 . S
C306 C301 1.392 . S
C306 C305 1.390 . S
C306 H318 0.929 . S
O307 Tb291 2.326 . S
O307 C295 1.242 . S
O308 Eu292 2.324 . S
O308 C295 1.258 . S
O309 Tb291 2.500 . S
O309 C311 1.273 . S
O310 Tb291 2.473 . S
O310 C311 1.257 . S
C311 O309 1.273 . S
C311 O310 1.257 . S
O312 Eu292 2.326 . S
O312 C300 1.242 . S
O313 Tb291 2.324 . S
O313 C300 1.258 . S
O314 Eu292 2.500 . S
O314 C297 1.273 . S
O315 Eu292 2.473 . S
O315 C297 1.257 . S
H316 C302 0.929 . S
H317 C304 0.931 . S
H318 C306 0.929 . S
O319 Tb320 2.292 . S
O319 C322 1.255 . S
Tb320 O319 2.292 . S
Tb320 O336 2.326 . S
Tb320 O338 2.500 . S
Tb320 O339 2.473 . S
Tb320 O342 2.324 . S
Eu321 O325 2.292 . S
Eu321 C326 2.852 . S
Eu321 O337 2.324 . S
Eu321 O341 2.326 . S
Eu321 O343 2.500 . S
Eu321 O344 2.473 . S
C322 O319 1.255 . S
C322 O323 1.247 . S
O323 C322 1.247 . S
C324 O336 1.242 . S
C324 O337 1.258 . S
O325 Eu321 2.292 . S
O325 C327 1.255 . S
C326 Eu321 2.852 . S
C326 C330 1.503 . S
C326 O343 1.273 . S
C326 O344 1.257 . S
C327 O325 1.255 . S
C327 O328 1.247 . S
O328 C327 1.247 . S
C329 O341 1.242 . S
C329 O342 1.258 . S
C330 C326 1.503 . S
C330 C331 1.379 . S
C330 C335 1.392 . S
C331 C330 1.379 . S
C331 C332 1.404 . S
C331 H345 0.929 . S
C332 C331 1.404 . S
C332 C333 1.389 . S
C333 C332 1.389 . S
C333 C334 1.399 . S
C333 H346 0.931 . S
C334 C333 1.399 . S
C334 C335 1.390 . S
C335 C330 1.392 . S
C335 C334 1.390 . S
C335 H347 0.929 . S
O336 Tb320 2.326 . S
O336 C324 1.242 . S
O337 Eu321 2.324 . S
O337 C324 1.258 . S
O338 Tb320 2.500 . S
O338 C340 1.273 . S
O339 Tb320 2.473 . S
O339 C340 1.257 . S
C340 O338 1.273 . S
C340 O339 1.257 . S
O341 Eu321 2.326 . S
O341 C329 1.242 . S
O342 Tb320 2.324 . S
O342 C329 1.258 . S
O343 Eu321 2.500 . S
O343 C326 1.273 . S
O344 Eu321 2.473 . S
O344 C326 1.257 . S
H345 C331 0.929 . S
H346 C333 0.931 . S
H347 C335 0.929 . S
O348 Tb349 2.292 . S
O348 C351 1.255 . S
Tb349 O348 2.292 . S
Tb349 O365 2.326 . S
Tb349 O367 2.500 . S
Tb349 O368 2.473 . S
Tb349 O371 2.324 . S
Eu350 O354 2.292 . S
Eu350 C355 2.852 . S
Eu350 O366 2.324 . S
Eu350 O370 2.326 . S
Eu350 O372 2.500 . S
Eu350 O373 2.473 . S
C351 O348 1.255 . S
C351 O352 1.247 . S
O352 C351 1.247 . S
C353 O365 1.242 . S
C353 O366 1.258 . S
O354 Eu350 2.292 . S
O354 C356 1.255 . S
C355 Eu350 2.852 . S
C355 C359 1.503 . S
C355 O372 1.273 . S
C355 O373 1.257 . S
C356 O354 1.255 . S
C356 O357 1.247 . S
O357 C356 1.247 . S
C358 O370 1.242 . S
C358 O371 1.258 . S
C359 C355 1.503 . S
C359 C360 1.379 . S
C359 C364 1.392 . S
C360 C359 1.379 . S
C360 C361 1.404 . S
C360 H374 0.929 . S
C361 C360 1.404 . S
C361 C362 1.389 . S
C362 C361 1.389 . S
C362 C363 1.399 . S
C362 H375 0.931 . S
C363 C362 1.399 . S
C363 C364 1.390 . S
C364 C359 1.392 . S
C364 C363 1.390 . S
C364 H376 0.929 . S
O365 Tb349 2.326 . S
O365 C353 1.242 . S
O366 Eu350 2.324 . S
O366 C353 1.258 . S
O367 Tb349 2.500 . S
O367 C369 1.273 . S
O368 Tb349 2.473 . S
O368 C369 1.257 . S
C369 O367 1.273 . S
C369 O368 1.257 . S
O370 Eu350 2.326 . S
O370 C358 1.242 . S
O371 Tb349 2.324 . S
O371 C358 1.258 . S
O372 Eu350 2.500 . S
O372 C355 1.273 . S
O373 Eu350 2.473 . S
O373 C355 1.257 . S
H374 C360 0.929 . S
H375 C362 0.931 . S
H376 C364 0.929 . S
O377 Tb378 2.292 . S
O377 C380 1.255 . S
Tb378 O377 2.292 . S
Tb378 O394 2.326 . S
Tb378 O396 2.500 . S
Tb378 O397 2.473 . S
Tb378 O400 2.324 . S
Eu379 O383 2.292 . S
Eu379 C384 2.852 . S
Eu379 O395 2.324 . S
Eu379 O399 2.326 . S
Eu379 O401 2.500 . S
Eu379 O402 2.473 . S
C380 O377 1.255 . S
C380 O381 1.247 . S
O381 C380 1.247 . S
C382 O394 1.242 . S
C382 O395 1.258 . S
O383 Eu379 2.292 . S
O383 C385 1.255 . S
C384 Eu379 2.852 . S
C384 C388 1.503 . S
C384 O401 1.273 . S
C384 O402 1.257 . S
C385 O383 1.255 . S
C385 O386 1.247 . S
O386 C385 1.247 . S
C387 O399 1.242 . S
C387 O400 1.258 . S
C388 C384 1.503 . S
C388 C389 1.379 . S
C388 C393 1.392 . S
C389 C388 1.379 . S
C389 C390 1.404 . S
C389 H403 0.929 . S
C390 C389 1.404 . S
C390 C391 1.389 . S
C391 C390 1.389 . S
C391 C392 1.399 . S
C391 H404 0.931 . S
C392 C391 1.399 . S
C392 C393 1.390 . S
C393 C388 1.392 . S
C393 C392 1.390 . S
C393 H405 0.929 . S
O394 Tb378 2.326 . S
O394 C382 1.242 . S
O395 Eu379 2.324 . S
O395 C382 1.258 . S
O396 Tb378 2.500 . S
O396 C398 1.273 . S
O397 Tb378 2.473 . S
O397 C398 1.257 . S
C398 O396 1.273 . S
C398 O397 1.257 . S
O399 Eu379 2.326 . S
O399 C387 1.242 . S
O400 Tb378 2.324 . S
O400 C387 1.258 . S
O401 Eu379 2.500 . S
O401 C384 1.273 . S
O402 Eu379 2.473 . S
O402 C384 1.257 . S
H403 C389 0.929 . S
H404 C391 0.931 . S
H405 C393 0.929 . S
O406 Tb407 2.292 . S
O406 C409 1.255 . S
Tb407 O406 2.292 . S
Tb407 O423 2.326 . S
Tb407 O425 2.500 . S
Tb407 O426 2.473 . S
Tb407 O429 2.324 . S
Eu408 O412 2.292 . S
Eu408 C413 2.852 . S
Eu408 O424 2.324 . S
Eu408 O428 2.326 . S
Eu408 O430 2.500 . S
Eu408 O431 2.473 . S
C409 O406 1.255 . S
C409 O410 1.247 . S
O410 C409 1.247 . S
C411 O423 1.242 . S
C411 O424 1.258 . S
O412 Eu408 2.292 . S
O412 C414 1.255 . S
C413 Eu408 2.852 . S
C413 C417 1.503 . S
C413 O430 1.273 . S
C413 O431 1.257 . S
C414 O412 1.255 . S
C414 O415 1.247 . S
O415 C414 1.247 . S
C416 O428 1.242 . S
C416 O429 1.258 . S
C417 C413 1.503 . S
C417 C418 1.379 . S
C417 C422 1.392 . S
C418 C417 1.379 . S
C418 C419 1.404 . S
C418 H432 0.929 . S
C419 C418 1.404 . S
C419 C420 1.389 . S
C420 C419 1.389 . S
C420 C421 1.399 . S
C420 H433 0.931 . S
C421 C420 1.399 . S
C421 C422 1.390 . S
C422 C417 1.392 . S
C422 C421 1.390 . S
C422 H434 0.929 . S
O423 Tb407 2.326 . S
O423 C411 1.242 . S
O424 Eu408 2.324 . S
O424 C411 1.258 . S
O425 Tb407 2.500 . S
O425 C427 1.273 . S
O426 Tb407 2.473 . S
O426 C427 1.257 . S
C427 O425 1.273 . S
C427 O426 1.257 . S
O428 Eu408 2.326 . S
O428 C416 1.242 . S
O429 Tb407 2.324 . S
O429 C416 1.258 . S
O430 Eu408 2.500 . S
O430 C413 1.273 . S
O431 Eu408 2.473 . S
O431 C413 1.257 . S
H432 C418 0.929 . S
H433 C420 0.931 . S
H434 C422 0.929 . S
O435 Tb436 2.292 . S
O435 C438 1.255 . S
Tb436 O435 2.292 . S
Tb436 O452 2.326 . S
Tb436 O454 2.500 . S
Tb436 O455 2.473 . S
Tb436 O458 2.324 . S
Eu437 O441 2.292 . S
Eu437 C442 2.852 . S
Eu437 O453 2.324 . S
Eu437 O457 2.326 . S
Eu437 O459 2.500 . S
Eu437 O460 2.473 . S
C438 O435 1.255 . S
C438 O439 1.247 . S
O439 C438 1.247 . S
C440 O452 1.242 . S
C440 O453 1.258 . S
O441 Eu437 2.292 . S
O441 C443 1.255 . S
C442 Eu437 2.852 . S
C442 C446 1.503 . S
C442 O459 1.273 . S
C442 O460 1.257 . S
C443 O441 1.255 . S
C443 O444 1.247 . S
O444 C443 1.247 . S
C445 O457 1.242 . S
C445 O458 1.258 . S
C446 C442 1.503 . S
C446 C447 1.379 . S
C446 C451 1.392 . S
C447 C446 1.379 . S
C447 C448 1.404 . S
C447 H461 0.929 . S
C448 C447 1.404 . S
C448 C449 1.389 . S
C449 C448 1.389 . S
C449 C450 1.399 . S
C449 H462 0.931 . S
C450 C449 1.399 . S
C450 C451 1.390 . S
C451 C446 1.392 . S
C451 C450 1.390 . S
C451 H463 0.929 . S
O452 Tb436 2.326 . S
O452 C440 1.242 . S
O453 Eu437 2.324 . S
O453 C440 1.258 . S
O454 Tb436 2.500 . S
O454 C456 1.273 . S
O455 Tb436 2.473 . S
O455 C456 1.257 . S
C456 O454 1.273 . S
C456 O455 1.257 . S
O457 Eu437 2.326 . S
O457 C445 1.242 . S
O458 Tb436 2.324 . S
O458 C445 1.258 . S
O459 Eu437 2.500 . S
O459 C442 1.273 . S
O460 Eu437 2.473 . S
O460 C442 1.257 . S
H461 C447 0.929 . S
H462 C449 0.931 . S
H463 C451 0.929 . S
H464 C470 0.930 . S
H465 C474 0.930 . S
H466 C479 0.929 . S
H467 C477 0.929 . S
H468 C472 0.929 . S
H469 C478 0.929 . S
C470 H464 0.930 . S
C470 C471 1.367 . S
C470 C478 1.378 . S
C471 C470 1.367 . S
C471 C479 1.433 . S
C472 H468 0.929 . S
C472 C474 1.378 . S
C472 C476 1.350 . S
C473 C476 1.463 1_554 S
C473 C478 1.350 . S
C473 N481 1.427 . S
C474 H465 0.930 . S
C474 C472 1.378 . S
C474 C475 1.367 . S
C475 C474 1.367 . S
C475 C477 1.433 . S
C476 C472 1.350 . S
C476 C473 1.463 1_556 S
C476 N480 1.427 . S
C477 H467 0.929 . S
C477 C475 1.433 . S
C477 N480 1.384 . S
C478 H469 0.929 . S
C478 C470 1.378 . S
C478 C473 1.350 . S
C479 H466 0.929 . S
C479 C471 1.433 . S
C479 N481 1.384 . S
N480 C476 1.427 . S
N480 C477 1.384 . S
N481 C473 1.427 . S
N481 C479 1.384 . S
H482 C488 0.930 . S
H483 C492 0.930 . S
H484 C497 0.929 . S
H485 C495 0.929 . S
H486 C490 0.929 . S
H487 C496 0.929 . S
C488 H482 0.930 . S
C488 C489 1.367 . S
C488 C496 1.378 . S
C489 C488 1.367 . S
C489 C497 1.433 . S
C490 H486 0.929 . S
C490 C492 1.378 . S
C490 C494 1.350 . S
C491 C494 1.463 1_554 S
C491 C496 1.350 . S
C491 N499 1.427 . S
C492 H483 0.930 . S
C492 C490 1.378 . S
C492 C493 1.367 . S
C493 C492 1.367 . S
C493 C495 1.433 . S
C494 C490 1.350 . S
C494 C491 1.463 1_556 S
C494 N498 1.427 . S
C495 H485 0.929 . S
C495 C493 1.433 . S
C495 N498 1.384 . S
C496 H487 0.929 . S
C496 C488 1.378 . S
C496 C491 1.350 . S
C497 H484 0.929 . S
C497 C489 1.433 . S
C497 N499 1.384 . S
N498 C494 1.427 . S
N498 C495 1.384 . S
N499 C491 1.427 . S
N499 C497 1.384 . S
H500 C506 0.930 . S
H501 C510 0.930 . S
H502 C515 0.929 . S
H503 C513 0.929 . S
H504 C508 0.929 . S
H505 C514 0.929 . S
C506 H500 0.930 . S
C506 C507 1.367 . S
C506 C514 1.378 . S
C507 C506 1.367 . S
C507 C515 1.433 . S
C508 H504 0.929 . S
C508 C510 1.378 . S
C508 C512 1.350 . S
C509 C512 1.463 1_556 S
C509 C514 1.350 . S
C509 N517 1.427 . S
C510 H501 0.930 . S
C510 C508 1.378 . S
C510 C511 1.367 . S
C511 C510 1.367 . S
C511 C513 1.433 . S
C512 C508 1.350 . S
C512 C509 1.463 1_554 S
C512 N516 1.427 . S
C513 H503 0.929 . S
C513 C511 1.433 . S
C513 N516 1.384 . S
C514 H505 0.929 . S
C514 C506 1.378 . S
C514 C509 1.350 . S
C515 H502 0.929 . S
C515 C507 1.433 . S
C515 N517 1.384 . S
N516 C512 1.427 . S
N516 C513 1.384 . S
N517 C509 1.427 . S
N517 C515 1.384 . S
H518 C524 0.930 . S
H519 C528 0.930 . S
H520 C533 0.929 . S
H521 C531 0.929 . S
H522 C526 0.929 . S
H523 C532 0.929 . S
C524 H518 0.930 . S
C524 C525 1.367 . S
C524 C532 1.378 . S
C525 C524 1.367 . S
C525 C533 1.433 . S
C526 H522 0.929 . S
C526 C528 1.378 . S
C526 C530 1.350 . S
C527 C530 1.463 1_556 S
C527 C532 1.350 . S
C527 N535 1.427 . S
C528 H519 0.930 . S
C528 C526 1.378 . S
C528 C529 1.367 . S
C529 C528 1.367 . S
C529 C531 1.433 . S
C530 C526 1.350 . S
C530 C527 1.463 1_554 S
C530 N534 1.427 . S
C531 H521 0.929 . S
C531 C529 1.433 . S
C531 N534 1.384 . S
C532 H523 0.929 . S
C532 C524 1.378 . S
C532 C527 1.350 . S
C533 H520 0.929 . S
C533 C525 1.433 . S
C533 N535 1.384 . S
N534 C530 1.427 . S
N534 C531 1.384 . S
N535 C527 1.427 . S
N535 C533 1.384 . S
H536 C542 0.930 . S
H537 C546 0.930 . S
H538 C551 0.929 . S
H539 C549 0.929 . S
H540 C544 0.929 . S
H541 C550 0.929 . S
C542 H536 0.930 . S
C542 C543 1.367 . S
C542 C550 1.378 . S
C543 C542 1.367 . S
C543 C551 1.433 . S
C544 H540 0.929 . S
C544 C546 1.378 . S
C544 C548 1.350 . S
C545 C548 1.463 . S
C545 C550 1.350 . S
C545 N553 1.427 . S
C546 H537 0.930 . S
C546 C544 1.378 . S
C546 C547 1.367 . S
C547 C546 1.367 . S
C547 C549 1.433 . S
C548 C544 1.350 . S
C548 C545 1.463 . S
C548 N552 1.427 . S
C549 H539 0.929 . S
C549 C547 1.433 . S
C549 N552 1.384 . S
C550 H541 0.929 . S
C550 C542 1.378 . S
C550 C545 1.350 . S
C551 H538 0.929 . S
C551 C543 1.433 . S
C551 N553 1.384 . S
N552 C548 1.427 . S
N552 C549 1.384 . S
N553 C545 1.427 . S
N553 C551 1.384 . S
H554 C560 0.930 . S
H555 C564 0.930 . S
H556 C569 0.929 . S
H557 C567 0.929 . S
H558 C562 0.929 . S
H559 C568 0.929 . S
C560 H554 0.930 . S
C560 C561 1.367 . S
C560 C568 1.378 . S
C561 C560 1.367 . S
C561 C569 1.433 . S
C562 H558 0.929 . S
C562 C564 1.378 . S
C562 C566 1.350 . S
C563 C566 1.463 . S
C563 C568 1.350 . S
C563 N571 1.427 . S
C564 H555 0.930 . S
C564 C562 1.378 . S
C564 C565 1.367 . S
C565 C564 1.367 . S
C565 C567 1.433 . S
C566 C562 1.350 . S
C566 C563 1.463 . S
C566 N570 1.427 . S
C567 H557 0.929 . S
C567 C565 1.433 . S
C567 N570 1.384 . S
C568 H559 0.929 . S
C568 C560 1.378 . S
C568 C563 1.350 . S
C569 H556 0.929 . S
C569 C561 1.433 . S
C569 N571 1.384 . S
N570 C566 1.427 . S
N570 C567 1.384 . S
N571 C563 1.427 . S
N571 C569 1.384 . S
H572 C578 0.930 . S
H573 C582 0.930 . S
H574 C587 0.929 . S
H575 C585 0.929 . S
H576 C580 0.929 . S
H577 C586 0.929 . S
C578 H572 0.930 . S
C578 C579 1.367 . S
C578 C586 1.378 . S
C579 C578 1.367 . S
C579 C587 1.433 . S
C580 H576 0.929 . S
C580 C582 1.378 . S
C580 C584 1.350 . S
C581 C584 1.463 . S
C581 C586 1.350 . S
C581 N589 1.427 . S
C582 H573 0.930 . S
C582 C580 1.378 . S
C582 C583 1.367 . S
C583 C582 1.367 . S
C583 C585 1.433 . S
C584 C580 1.350 . S
C584 C581 1.463 . S
C584 N588 1.427 . S
C585 H575 0.929 . S
C585 C583 1.433 . S
C585 N588 1.384 . S
C586 H577 0.929 . S
C586 C578 1.378 . S
C586 C581 1.350 . S
C587 H574 0.929 . S
C587 C579 1.433 . S
C587 N589 1.384 . S
N588 C584 1.427 . S
N588 C585 1.384 . S
N589 C581 1.427 . S
N589 C587 1.384 . S
H590 C596 0.930 . S
H591 C600 0.930 . S
H592 C605 0.929 . S
H593 C603 0.929 . S
H594 C598 0.929 . S
H595 C604 0.929 . S
C596 H590 0.930 . S
C596 C597 1.367 . S
C596 C604 1.378 . S
C597 C596 1.367 . S
C597 C605 1.433 . S
C598 H594 0.929 . S
C598 C600 1.378 . S
C598 C602 1.350 . S
C599 C602 1.463 . S
C599 C604 1.350 . S
C599 N607 1.427 . S
C600 H591 0.930 . S
C600 C598 1.378 . S
C600 C601 1.367 . S
C601 C600 1.367 . S
C601 C603 1.433 . S
C602 C598 1.350 . S
C602 C599 1.463 . S
C602 N606 1.427 . S
C603 H593 0.929 . S
C603 C601 1.433 . S
C603 N606 1.384 . S
C604 H595 0.929 . S
C604 C596 1.378 . S
C604 C599 1.350 . S
C605 H592 0.929 . S
C605 C597 1.433 . S
C605 N607 1.384 . S
N606 C602 1.427 . S
N606 C603 1.384 . S
N607 C599 1.427 . S
N607 C605 1.384 . S
H608 C614 0.930 . S
H609 C618 0.930 . S
H610 C623 0.929 . S
H611 C621 0.929 . S
H612 C616 0.929 . S
H613 C622 0.929 . S
C614 H608 0.930 . S
C614 C615 1.367 . S
C614 C622 1.378 1_565 S
C615 C614 1.367 . S
C615 C623 1.433 1_565 S
C616 H612 0.929 . S
C616 C618 1.378 . S
C616 C620 1.350 . S
C617 C620 1.463 . S
C617 C622 1.350 . S
C617 N625 1.427 . S
C618 H609 0.930 . S
C618 C616 1.378 . S
C618 C619 1.367 . S
C619 C618 1.367 . S
C619 C621 1.433 . S
C620 C616 1.350 . S
C620 C617 1.463 . S
C620 N624 1.427 . S
C621 H611 0.929 . S
C621 C619 1.433 . S
C621 N624 1.384 . S
C622 H613 0.929 . S
C622 C614 1.378 1_545 S
C622 C617 1.350 . S
C623 H610 0.929 . S
C623 C615 1.433 1_545 S
C623 N625 1.384 . S
N624 C620 1.427 . S
N624 C621 1.384 . S
N625 C617 1.427 . S
N625 C623 1.384 . S
H626 C632 0.930 . S
H627 C636 0.930 . S
H628 C641 0.929 . S
H629 C639 0.929 . S
H630 C634 0.929 . S
H631 C640 0.929 . S
C632 H626 0.930 . S
C632 C633 1.367 1_655 S
C632 C640 1.378 . S
C633 C632 1.367 1_455 S
C633 C641 1.433 . S
C634 H630 0.929 . S
C634 C636 1.378 . S
C634 C638 1.350 . S
C635 C638 1.463 . S
C635 C640 1.350 . S
C635 N643 1.427 . S
C636 H627 0.930 . S
C636 C634 1.378 . S
C636 C637 1.367 . S
C637 C636 1.367 . S
C637 C639 1.433 . S
C638 C634 1.350 . S
C638 C635 1.463 . S
C638 N642 1.427 . S
C639 H629 0.929 . S
C639 C637 1.433 . S
C639 N642 1.384 . S
C640 H631 0.929 . S
C640 C632 1.378 . S
C640 C635 1.350 . S
C641 H628 0.929 . S
C641 C633 1.433 . S
C641 N643 1.384 1_455 S
N642 C638 1.427 . S
N642 C639 1.384 . S
N643 C635 1.427 . S
N643 C641 1.384 1_655 S
H644 C650 0.930 . S
H645 C654 0.930 . S
H646 C659 0.929 . S
H647 C657 0.929 . S
H648 C652 0.929 . S
H649 C658 0.929 . S
C650 H644 0.930 . S
C650 C651 1.367 . S
C650 C658 1.378 . S
C651 C650 1.367 . S
C651 C659 1.433 . S
C652 H648 0.929 . S
C652 C654 1.378 1_565 S
C652 C656 1.350 . S
C653 C656 1.463 . S
C653 C658 1.350 . S
C653 N661 1.427 . S
C654 H645 0.930 . S
C654 C652 1.378 1_545 S
C654 C655 1.367 . S
C655 C654 1.367 . S
C655 C657 1.433 1_545 S
C656 C652 1.350 . S
C656 C653 1.463 . S
C656 N660 1.427 . S
C657 H647 0.929 . S
C657 C655 1.433 1_565 S
C657 N660 1.384 . S
C658 H649 0.929 . S
C658 C650 1.378 . S
C658 C653 1.350 . S
C659 H646 0.929 . S
C659 C651 1.433 . S
C659 N661 1.384 . S
N660 C656 1.427 . S
N660 C657 1.384 . S
N661 C653 1.427 . S
N661 C659 1.384 . S
H662 C668 0.930 . S
H663 C672 0.930 . S
H664 C677 0.929 . S
H665 C675 0.929 . S
H666 C670 0.929 . S
H667 C676 0.929 . S
C668 H662 0.930 . S
C668 C669 1.367 . S
C668 C676 1.378 . S
C669 C668 1.367 . S
C669 C677 1.433 . S
C670 H666 0.929 . S
C670 C672 1.378 1_455 S
C670 C674 1.350 . S
C671 C674 1.463 . S
C671 C676 1.350 . S
C671 N679 1.427 . S
C672 H663 0.930 . S
C672 C670 1.378 1_655 S
C672 C673 1.367 . S
C673 C672 1.367 . S
C673 C675 1.433 1_655 S
C674 C670 1.350 . S
C674 C671 1.463 . S
C674 N678 1.427 . S
C675 H665 0.929 . S
C675 C673 1.433 1_455 S
C675 N678 1.384 . S
C676 H667 0.929 . S
C676 C668 1.378 . S
C676 C671 1.350 . S
C677 H664 0.929 . S
C677 C669 1.433 . S
C677 N679 1.384 . S
N678 C674 1.427 . S
N678 C675 1.384 . S
N679 C671 1.427 . S
N679 C677 1.384 . S
H680 C686 0.930 . S
H681 C690 0.930 . S
H682 C695 0.929 . S
H683 C693 0.929 . S
H684 C688 0.929 . S
H685 C694 0.929 . S
C686 H680 0.930 . S
C686 C687 1.367 . S
C686 C694 1.378 1_545 S
C687 C686 1.367 . S
C687 C695 1.433 1_545 S
C688 H684 0.929 . S
C688 C690 1.378 . S
C688 C692 1.350 . S
C689 C692 1.463 . S
C689 C694 1.350 . S
C689 N697 1.427 . S
C690 H681 0.930 . S
C690 C688 1.378 . S
C690 C691 1.367 . S
C691 C690 1.367 . S
C691 C693 1.433 . S
C692 C688 1.350 . S
C692 C689 1.463 . S
C692 N696 1.427 . S
C693 H683 0.929 . S
C693 C691 1.433 . S
C693 N696 1.384 . S
C694 H685 0.929 . S
C694 C686 1.378 1_565 S
C694 C689 1.350 . S
C695 H682 0.929 . S
C695 C687 1.433 1_565 S
C695 N697 1.384 . S
N696 C692 1.427 . S
N696 C693 1.384 . S
N697 C689 1.427 . S
N697 C695 1.384 . S
H698 C704 0.930 . S
H699 C708 0.930 1_655 S
H700 C713 0.929 . S
H701 C711 0.929 1_655 S
H702 C706 0.929 . S
H703 C712 0.929 . S
C704 H698 0.930 . S
C704 C705 1.367 . S
C704 C712 1.378 . S
C705 C704 1.367 . S
C705 C713 1.433 . S
C706 H702 0.929 . S
C706 C708 1.378 . S
C706 C710 1.350 . S
C707 C710 1.463 . S
C707 C712 1.350 . S
C707 N715 1.427 . S
C708 H699 0.930 1_455 S
C708 C706 1.378 . S
C708 C709 1.367 1_455 S
C709 C708 1.367 1_655 S
C709 C711 1.433 1_655 S
C710 C706 1.350 . S
C710 C707 1.463 . S
C710 N714 1.427 . S
C711 H701 0.929 1_455 S
C711 C709 1.433 1_455 S
C711 N714 1.384 . S
C712 H703 0.929 . S
C712 C704 1.378 . S
C712 C707 1.350 . S
C713 H700 0.929 . S
C713 C705 1.433 . S
C713 N715 1.384 . S
N714 C710 1.427 . S
N714 C711 1.384 . S
N715 C707 1.427 . S
N715 C713 1.384 . S
H716 C722 0.930 . S
H717 C726 0.930 . S
H718 C731 0.929 . S
H719 C729 0.929 . S
H720 C724 0.929 . S
H721 C730 0.929 . S
C722 H716 0.930 . S
C722 C723 1.367 1_545 S
C722 C730 1.378 . S
C723 C722 1.367 1_565 S
C723 C731 1.433 . S
C724 H720 0.929 . S
C724 C726 1.378 . S
C724 C728 1.350 . S
C725 C728 1.463 . S
C725 C730 1.350 . S
C725 N733 1.427 . S
C726 H717 0.930 . S
C726 C724 1.378 . S
C726 C727 1.367 . S
C727 C726 1.367 . S
C727 C729 1.433 . S
C728 C724 1.350 . S
C728 C725 1.463 . S
C728 N732 1.427 . S
C729 H719 0.929 . S
C729 C727 1.433 . S
C729 N732 1.384 . S
C730 H721 0.929 . S
C730 C722 1.378 . S
C730 C725 1.350 . S
C731 H718 0.929 . S
C731 C723 1.433 . S
C731 N733 1.384 1_565 S
N732 C728 1.427 . S
N732 C729 1.384 . S
N733 C725 1.427 . S
N733 C731 1.384 1_545 S
H734 C740 0.930 . S
H735 C744 0.930 . S
H736 C749 0.929 . S
H737 C747 0.929 . S
H738 C742 0.929 . S
H739 C748 0.929 . S
C740 H734 0.930 . S
C740 C741 1.367 . S
C740 C748 1.378 1_455 S
C741 C740 1.367 . S
C741 C749 1.433 1_455 S
C742 H738 0.929 . S
C742 C744 1.378 . S
C742 C746 1.350 . S
C743 C746 1.463 . S
C743 C748 1.350 . S
C743 N751 1.427 . S
C744 H735 0.930 . S
C744 C742 1.378 . S
C744 C745 1.367 . S
C745 C744 1.367 . S
C745 C747 1.433 . S
C746 C742 1.350 . S
C746 C743 1.463 . S
C746 N750 1.427 . S
C747 H737 0.929 . S
C747 C745 1.433 . S
C747 N750 1.384 . S
C748 H739 0.929 . S
C748 C740 1.378 1_655 S
C748 C743 1.350 . S
C749 H736 0.929 . S
C749 C741 1.433 1_655 S
C749 N751 1.384 . S
N750 C746 1.427 . S
N750 C747 1.384 . S
N751 C743 1.427 . S
N751 C749 1.384 . S
H752 C758 0.930 . S
H753 C762 0.930 . S
H754 C767 0.929 . S
H755 C765 0.929 . S
H756 C760 0.929 . S
H757 C766 0.929 . S
C758 H752 0.930 . S
C758 C759 1.367 . S
C758 C766 1.378 . S
C759 C758 1.367 . S
C759 C767 1.433 . S
C760 H756 0.929 . S
C760 C762 1.378 1_565 S
C760 C764 1.350 . S
C761 C764 1.463 . S
C761 C766 1.350 . S
C761 N769 1.427 . S
C762 H753 0.930 . S
C762 C760 1.378 1_545 S
C762 C763 1.367 . S
C763 C762 1.367 . S
C763 C765 1.433 . S
C764 C760 1.350 . S
C764 C761 1.463 . S
C764 N768 1.427 . S
C765 H755 0.929 . S
C765 C763 1.433 . S
C765 N768 1.384 1_545 S
C766 H757 0.929 . S
C766 C758 1.378 . S
C766 C761 1.350 . S
C767 H754 0.929 . S
C767 C759 1.433 . S
C767 N769 1.384 . S
N768 C764 1.427 . S
N768 C765 1.384 1_565 S
N769 C761 1.427 . S
N769 C767 1.384 . S
H770 C776 0.921 1_655 S
H771 C780 0.930 . S
H772 C785 0.929 . S
H773 C783 0.929 . S
H774 C778 0.929 . S
H775 C784 0.929 . S
C776 H770 0.921 1_455 S
C776 C777 1.352 1_455 S
C776 C784 1.402 . S
C777 C776 1.352 1_655 S
C777 C785 1.433 . S
C778 H774 0.929 . S
C778 C780 1.378 . S
C778 C782 1.350 . S
C779 C782 1.463 . S
C779 C784 1.350 . S
C779 N787 1.427 . S
C780 H771 0.930 . S
C780 C778 1.378 . S
C780 C781 1.367 . S
C781 C780 1.367 . S
C781 C783 1.433 . S
C782 C778 1.350 . S
C782 C779 1.463 . S
C782 N786 1.427 . S
C783 H773 0.929 . S
C783 C781 1.433 . S
C783 N786 1.384 . S
C784 H775 0.929 . S
C784 C776 1.402 . S
C784 C779 1.350 . S
C785 H772 0.929 . S
C785 C777 1.433 . S
C785 N787 1.384 1_655 S
N786 C782 1.427 . S
N786 C783 1.384 . S
N787 C779 1.427 . S
N787 C785 1.384 1_455 S
H788 C794 0.930 . S
H789 C798 0.930 . S
H790 C803 0.929 . S
H791 C801 0.929 1_565 S
H792 C796 0.929 . S
H793 C802 0.929 . S
C794 H788 0.930 . S
C794 C795 1.367 . S
C794 C802 1.378 . S
C795 C794 1.367 . S
C795 C803 1.433 . S
C796 H792 0.929 . S
C796 C798 1.378 1_545 S
C796 C800 1.350 . S
C797 C800 1.463 . S
C797 C802 1.350 . S
C797 N805 1.427 . S
C798 H789 0.930 . S
C798 C796 1.378 1_565 S
C798 C799 1.367 . S
C799 C798 1.367 . S
C799 C801 1.433 1_565 S
C800 C796 1.350 . S
C800 C797 1.463 . S
C800 N804 1.427 . S
C801 H791 0.929 1_545 S
C801 C799 1.433 1_545 S
C801 N804 1.384 . S
C802 H793 0.929 . S
C802 C794 1.378 . S
C802 C797 1.350 . S
C803 H790 0.929 . S
C803 C795 1.433 . S
C803 N805 1.384 . S
N804 C800 1.427 . S
N804 C801 1.384 . S
N805 C797 1.427 . S
N805 C803 1.384 . S
H806 C812 0.930 1_455 S
H807 C816 0.930 . S
H808 C821 0.929 . S
H809 C819 0.929 . S
H810 C814 0.929 . S
H811 C820 0.929 . S
C812 H806 0.930 1_655 S
C812 C813 1.367 1_655 S
C812 C820 1.378 . S
C813 C812 1.367 1_455 S
C813 C821 1.433 . S
C814 H810 0.929 . S
C814 C816 1.378 . S
C814 C818 1.350 . S
C815 C818 1.463 . S
C815 C820 1.350 . S
C815 N823 1.427 . S
C816 H807 0.930 . S
C816 C814 1.378 . S
C816 C817 1.367 . S
C817 C816 1.367 . S
C817 C819 1.433 . S
C818 C814 1.350 . S
C818 C815 1.463 . S
C818 N822 1.427 . S
C819 H809 0.929 . S
C819 C817 1.433 . S
C819 N822 1.384 . S
C820 H811 0.929 . S
C820 C812 1.378 . S
C820 C815 1.350 . S
C821 H808 0.929 . S
C821 C813 1.433 . S
C821 N823 1.384 1_455 S
N822 C818 1.427 . S
N822 C819 1.384 . S
N823 C815 1.427 . S
N823 C821 1.384 1_655 S
H824 C830 0.930 . S
H825 C834 0.930 . S
H826 C839 0.929 . S
H827 C837 0.929 1_565 S
H828 C832 0.929 . S
H829 C838 0.929 . S
C830 H824 0.930 . S
C830 C831 1.367 . S
C830 C838 1.378 . S
C831 C830 1.367 . S
C831 C839 1.433 . S
C832 H828 0.929 . S
C832 C834 1.378 1_545 S
C832 C836 1.350 . S
C833 C836 1.463 . S
C833 C838 1.350 . S
C833 N841 1.427 . S
C834 H825 0.930 . S
C834 C832 1.378 1_565 S
C834 C835 1.367 . S
C835 C834 1.367 . S
C835 C837 1.433 1_565 S
C836 C832 1.350 . S
C836 C833 1.463 . S
C836 N840 1.427 . S
C837 H827 0.929 1_545 S
C837 C835 1.433 1_545 S
C837 N840 1.384 . S
C838 H829 0.929 . S
C838 C830 1.378 . S
C838 C833 1.350 . S
C839 H826 0.929 . S
C839 C831 1.433 . S
C839 N841 1.384 . S
N840 C836 1.427 . S
N840 C837 1.384 . S
N841 C833 1.427 . S
N841 C839 1.384 . S
H842 C848 0.930 . S
H843 C852 0.930 . S
H844 C857 0.929 1_455 S
H845 C855 0.929 . S
H846 C850 0.929 . S
H847 C856 0.929 . S
C848 H842 0.930 . S
C848 C849 1.367 . S
C848 C856 1.378 1_455 S
C849 C848 1.367 . S
C849 C857 1.433 1_455 S
C850 H846 0.929 . S
C850 C852 1.378 . S
C850 C854 1.350 . S
C851 C854 1.463 . S
C851 C856 1.350 . S
C851 N859 1.427 . S
C852 H843 0.930 . S
C852 C850 1.378 . S
C852 C853 1.367 . S
C853 C852 1.367 . S
C853 C855 1.433 . S
C854 C850 1.350 . S
C854 C851 1.463 . S
C854 N858 1.427 . S
C855 H845 0.929 . S
C855 C853 1.433 . S
C855 N858 1.384 . S
C856 H847 0.929 . S
C856 C848 1.378 1_655 S
C856 C851 1.350 . S
C857 H844 0.929 1_655 S
C857 C849 1.433 1_655 S
C857 N859 1.384 . S
N858 C854 1.427 . S
N858 C855 1.384 . S
N859 C851 1.427 . S
N859 C857 1.384 . S
H860 C866 0.930 . S
H861 C870 0.930 . S
H862 C875 0.929 1_545 S
H863 C873 0.929 . S
H864 C868 0.929 . S
H865 C874 0.929 . S
C866 H860 0.930 . S
C866 C867 1.367 . S
C866 C874 1.378 1_545 S
C867 C866 1.367 . S
C867 C875 1.433 1_545 S
C868 H864 0.929 . S
C868 C870 1.378 . S
C868 C872 1.350 . S
C869 C872 1.463 . S
C869 C874 1.350 . S
C869 N877 1.427 . S
C870 H861 0.930 . S
C870 C868 1.378 . S
C870 C871 1.367 . S
C871 C870 1.367 . S
C871 C873 1.433 . S
C872 C868 1.350 . S
C872 C869 1.463 . S
C872 N876 1.427 . S
C873 H863 0.929 . S
C873 C871 1.433 . S
C873 N876 1.384 . S
C874 H865 0.929 . S
C874 C866 1.378 1_565 S
C874 C869 1.350 . S
C875 H862 0.929 1_565 S
C875 C867 1.433 1_565 S
C875 N877 1.384 . S
N876 C872 1.427 . S
N876 C873 1.384 . S
N877 C869 1.427 . S
N877 C875 1.384 . S
H878 C884 0.930 . S
H879 C888 0.930 . S
H880 C893 0.929 . S
H881 C891 0.929 . S
H882 C886 0.929 . S
H883 C892 0.929 . S
C884 H878 0.930 . S
C884 C885 1.367 . S
C884 C892 1.378 1_655 S
C885 C884 1.367 . S
C885 C893 1.433 . S
C886 H882 0.929 . S
C886 C888 1.378 . S
C886 C890 1.350 . S
C887 C890 1.463 . S
C887 C892 1.350 . S
C887 N895 1.427 . S
C888 H879 0.930 . S
C888 C886 1.378 . S
C888 C889 1.367 . S
C889 C888 1.367 . S
C889 C891 1.433 . S
C890 C886 1.350 . S
C890 C887 1.463 . S
C890 N894 1.427 . S
C891 H881 0.929 . S
C891 C889 1.433 . S
C891 N894 1.384 . S
C892 H883 0.929 . S
C892 C884 1.378 1_455 S
C892 C887 1.350 . S
C893 H880 0.929 . S
C893 C885 1.433 . S
C893 N895 1.384 1_655 S
N894 C890 1.427 . S
N894 C891 1.384 . S
N895 C887 1.427 . S
N895 C893 1.384 1_455 S
H896 C902 0.930 . S
H897 C906 0.930 . S
H898 C911 0.929 . S
H899 C909 0.929 . S
H900 C904 0.929 . S
H901 C910 0.929 . S
C902 H896 0.930 . S
C902 C903 1.367 . S
C902 C910 1.378 . S
C903 C902 1.367 . S
C903 C911 1.433 . S
C904 H900 0.929 . S
C904 C906 1.378 . S
C904 C908 1.350 . S
C905 C908 1.463 . S
C905 C910 1.350 . S
C905 N913 1.427 . S
C906 H897 0.930 . S
C906 C904 1.378 . S
C906 C907 1.367 . S
C907 C906 1.367 . S
C907 C909 1.433 . S
C908 C904 1.350 . S
C908 C905 1.463 . S
C908 N912 1.427 . S
C909 H899 0.929 . S
C909 C907 1.433 . S
C909 N912 1.384 . S
C910 H901 0.929 . S
C910 C902 1.378 . S
C910 C905 1.350 . S
C911 H898 0.929 . S
C911 C903 1.433 . S
C911 N913 1.384 . S
N912 C908 1.427 . S
N912 C909 1.384 . S
N913 C905 1.427 . S
N913 C911 1.384 . S
H914 C920 0.930 . S
H915 C924 0.930 . S
H916 C929 0.929 . S
H917 C927 0.929 . S
H918 C922 0.929 . S
H919 C928 0.929 . S
C920 H914 0.930 . S
C920 C921 1.367 . S
C920 C928 1.378 . S
C921 C920 1.367 . S
C921 C929 1.433 . S
C922 H918 0.929 . S
C922 C924 1.378 . S
C922 C926 1.350 . S
C923 C926 1.463 . S
C923 C928 1.350 . S
C923 N931 1.427 . S
C924 H915 0.930 . S
C924 C922 1.378 . S
C924 C925 1.367 . S
C925 C924 1.367 . S
C925 C927 1.433 . S
C926 C922 1.350 . S
C926 C923 1.463 . S
C926 N930 1.427 . S
C927 H917 0.929 . S
C927 C925 1.433 . S
C927 N930 1.384 . S
C928 H919 0.929 . S
C928 C920 1.378 . S
C928 C923 1.350 . S
C929 H916 0.929 . S
C929 C921 1.433 . S
C929 N931 1.384 . S
N930 C926 1.427 . S
N930 C927 1.384 . S
N931 C923 1.427 . S
N931 C929 1.384 . S
H932 C938 0.930 . S
H933 C942 0.930 . S
H934 C947 0.929 . S
H935 C945 0.929 . S
H936 C940 0.929 . S
H937 C946 0.929 . S
C938 H932 0.930 . S
C938 C939 1.367 . S
C938 C946 1.378 . S
C939 C938 1.367 . S
C939 C947 1.433 . S
C940 H936 0.929 . S
C940 C942 1.378 . S
C940 C944 1.350 . S
C941 C944 1.463 . S
C941 C946 1.350 . S
C941 N949 1.427 . S
C942 H933 0.930 . S
C942 C940 1.378 . S
C942 C943 1.367 . S
C943 C942 1.367 . S
C943 C945 1.433 . S
C944 C940 1.350 . S
C944 C941 1.463 . S
C944 N948 1.427 . S
C945 H935 0.929 . S
C945 C943 1.433 . S
C945 N948 1.384 . S
C946 H937 0.929 . S
C946 C938 1.378 . S
C946 C941 1.350 . S
C947 H934 0.929 . S
C947 C939 1.433 . S
C947 N949 1.384 . S
N948 C944 1.427 . S
N948 C945 1.384 . S
N949 C941 1.427 . S
N949 C947 1.384 . S
H950 C956 0.930 . S
H951 C960 0.930 . S
H952 C965 0.929 . S
H953 C963 0.929 . S
H954 C958 0.929 . S
H955 C964 0.929 . S
C956 H950 0.930 . S
C956 C957 1.367 . S
C956 C964 1.378 . S
C957 C956 1.367 . S
C957 C965 1.433 . S
C958 H954 0.929 . S
C958 C960 1.378 . S
C958 C962 1.350 . S
C959 C962 1.463 . S
C959 C964 1.350 . S
C959 N967 1.427 . S
C960 H951 0.930 . S
C960 C958 1.378 . S
C960 C961 1.367 . S
C961 C960 1.367 . S
C961 C963 1.433 . S
C962 C958 1.350 . S
C962 C959 1.463 . S
C962 N966 1.427 . S
C963 H953 0.929 . S
C963 C961 1.433 . S
C963 N966 1.384 . S
C964 H955 0.929 . S
C964 C956 1.378 . S
C964 C959 1.350 . S
C965 H952 0.929 . S
C965 C957 1.433 . S
C965 N967 1.384 . S
N966 C962 1.427 . S
N966 C963 1.384 . S
N967 C959 1.427 . S
N967 C965 1.384 . S
H968 C974 0.930 . S
H969 C978 0.930 . S
H970 C983 0.929 . S
H971 C981 0.929 . S
H972 C976 0.929 . S
H973 C982 0.929 . S
C974 H968 0.930 . S
C974 C975 1.367 . S
C974 C982 1.378 . S
C975 C974 1.367 . S
C975 C983 1.433 . S
C976 H972 0.929 . S
C976 C978 1.378 . S
C976 C980 1.350 . S
C977 C980 1.463 . S
C977 C982 1.350 . S
C977 N985 1.427 . S
C978 H969 0.930 . S
C978 C976 1.378 . S
C978 C979 1.367 . S
C979 C978 1.367 . S
C979 C981 1.433 . S
C980 C976 1.350 . S
C980 C977 1.463 . S
C980 N984 1.427 . S
C981 H971 0.929 . S
C981 C979 1.433 . S
C981 N984 1.384 . S
C982 H973 0.929 . S
C982 C974 1.378 . S
C982 C977 1.350 . S
C983 H970 0.929 . S
C983 C975 1.433 . S
C983 N985 1.384 . S
N984 C980 1.427 . S
N984 C981 1.384 . S
N985 C977 1.427 . S
N985 C983 1.384 . S
H986 C992 0.930 . S
H987 C996 0.930 . S
H988 C1001 0.929 . S
H989 C999 0.929 . S
H990 C994 0.929 . S
H991 C1000 0.929 . S
C992 H986 0.930 . S
C992 C993 1.367 . S
C992 C1000 1.378 . S
C993 C992 1.367 . S
C993 C1001 1.433 . S
C994 H990 0.929 . S
C994 C996 1.378 . S
C994 C998 1.350 . S
C995 C998 1.463 . S
C995 C1000 1.350 . S
C995 N1003 1.427 . S
C996 H987 0.930 . S
C996 C994 1.378 . S
C996 C997 1.367 . S
C997 C996 1.367 . S
C997 C999 1.433 . S
C998 C994 1.350 . S
C998 C995 1.463 . S
C998 N1002 1.427 . S
C999 H989 0.929 . S
C999 C997 1.433 . S
C999 N1002 1.384 . S
C1000 H991 0.929 . S
C1000 C992 1.378 . S
C1000 C995 1.350 . S
C1001 H988 0.929 . S
C1001 C993 1.433 . S
C1001 N1003 1.384 . S
N1002 C998 1.427 . S
N1002 C999 1.384 . S
N1003 C995 1.427 . S
N1003 C1001 1.384 . S
H1004 C1010 0.930 . S
H1005 C1014 0.930 . S
H1006 C1019 0.929 . S
H1007 C1017 0.929 . S
H1008 C1012 0.929 . S
H1009 C1018 0.929 . S
C1010 H1004 0.930 . S
C1010 C1011 1.367 . S
C1010 C1018 1.378 . S
C1011 C1010 1.367 . S
C1011 C1019 1.433 . S
C1012 H1008 0.929 . S
C1012 C1014 1.378 . S
C1012 C1016 1.350 . S
C1013 C1016 1.463 . S
C1013 C1018 1.350 . S
C1013 N1021 1.427 . S
C1014 H1005 0.930 . S
C1014 C1012 1.378 . S
C1014 C1015 1.367 . S
C1015 C1014 1.367 . S
C1015 C1017 1.433 . S
C1016 C1012 1.350 . S
C1016 C1013 1.463 . S
C1016 N1020 1.427 . S
C1017 H1007 0.929 . S
C1017 C1015 1.433 . S
C1017 N1020 1.384 . S
C1018 H1009 0.929 . S
C1018 C1010 1.378 . S
C1018 C1013 1.350 . S
C1019 H1006 0.929 . S
C1019 C1011 1.433 . S
C1019 N1021 1.384 . S
N1020 C1016 1.427 . S
N1020 C1017 1.384 . S
N1021 C1013 1.427 . S
N1021 C1019 1.384 . S
H1022 C1028 0.930 . S
H1023 C1032 0.930 . S
H1024 C1037 0.929 . S
H1025 C1035 0.929 . S
H1026 C1030 0.929 . S
H1027 C1036 0.929 . S
C1028 H1022 0.930 . S
C1028 C1029 1.367 . S
C1028 C1036 1.378 . S
C1029 C1028 1.367 . S
C1029 C1037 1.433 . S
C1030 H1026 0.929 . S
C1030 C1032 1.378 . S
C1030 C1034 1.350 . S
C1031 C1034 1.463 . S
C1031 C1036 1.350 . S
C1031 N1039 1.427 . S
C1032 H1023 0.930 . S
C1032 C1030 1.378 . S
C1032 C1033 1.367 . S
C1033 C1032 1.367 . S
C1033 C1035 1.433 . S
C1034 C1030 1.350 . S
C1034 C1031 1.463 . S
C1034 N1038 1.427 . S
C1035 H1025 0.929 . S
C1035 C1033 1.433 . S
C1035 N1038 1.384 . S
C1036 H1027 0.929 . S
C1036 C1028 1.378 . S
C1036 C1031 1.350 . S
C1037 H1024 0.929 . S
C1037 C1029 1.433 . S
C1037 N1039 1.384 . S
N1038 C1034 1.427 . S
N1038 C1035 1.384 . S
N1039 C1031 1.427 . S
N1039 C1037 1.384 . S
H1040 C1046 0.930 . S
H1041 C1050 0.930 . S
H1042 C1055 0.929 . S
H1043 C1053 0.929 . S
H1044 C1048 0.929 . S
H1045 C1054 0.929 . S
C1046 H1040 0.930 . S
C1046 C1047 1.367 . S
C1046 C1054 1.378 . S
C1047 C1046 1.367 . S
C1047 C1055 1.433 . S
C1048 H1044 0.929 . S
C1048 C1050 1.378 . S
C1048 C1052 1.350 . S
C1049 C1052 1.463 . S
C1049 C1054 1.350 . S
C1049 N1057 1.427 . S
C1050 H1041 0.930 . S
C1050 C1048 1.378 . S
C1050 C1051 1.367 . S
C1051 C1050 1.367 . S
C1051 C1053 1.433 . S
C1052 C1048 1.350 . S
C1052 C1049 1.463 . S
C1052 N1056 1.427 . S
C1053 H1043 0.929 . S
C1053 C1051 1.433 . S
C1053 N1056 1.384 . S
C1054 H1045 0.929 . S
C1054 C1046 1.378 . S
C1054 C1049 1.350 . S
C1055 H1042 0.929 . S
C1055 C1047 1.433 . S
C1055 N1057 1.384 . S
N1056 C1052 1.427 . S
N1056 C1053 1.384 . S
N1057 C1049 1.427 . S
N1057 C1055 1.384 . S
H1058 C1064 0.930 . S
H1059 C1068 0.930 . S
H1060 C1073 0.929 . S
H1061 C1071 0.929 . S
H1062 C1066 0.929 . S
H1063 C1072 0.929 . S
C1064 H1058 0.930 . S
C1064 C1065 1.367 . S
C1064 C1072 1.378 . S
C1065 C1064 1.367 . S
C1065 C1073 1.433 . S
C1066 H1062 0.929 . S
C1066 C1068 1.378 . S
C1066 C1070 1.350 . S
C1067 C1070 1.463 . S
C1067 C1072 1.350 . S
C1067 N1075 1.427 . S
C1068 H1059 0.930 . S
C1068 C1066 1.378 . S
C1068 C1069 1.367 . S
C1069 C1068 1.367 . S
C1069 C1071 1.433 . S
C1070 C1066 1.350 . S
C1070 C1067 1.463 . S
C1070 N1074 1.427 . S
C1071 H1061 0.929 . S
C1071 C1069 1.433 . S
C1071 N1074 1.384 . S
C1072 H1063 0.929 . S
C1072 C1064 1.378 . S
C1072 C1067 1.350 . S
C1073 H1060 0.929 . S
C1073 C1065 1.433 . S
C1073 N1075 1.384 . S
N1074 C1070 1.427 . S
N1074 C1071 1.384 . S
N1075 C1067 1.427 . S
N1075 C1073 1.384 . S
H1076 C1082 0.930 . S
H1077 C1086 0.930 . S
H1078 C1091 0.929 . S
H1079 C1089 0.929 . S
H1080 C1084 0.929 . S
H1081 C1090 0.929 . S
C1082 H1076 0.930 . S
C1082 C1083 1.367 . S
C1082 C1090 1.378 . S
C1083 C1082 1.367 . S
C1083 C1091 1.433 . S
C1084 H1080 0.929 . S
C1084 C1086 1.378 . S
C1084 C1088 1.350 . S
C1085 C1088 1.463 . S
C1085 C1090 1.350 . S
C1085 N1093 1.427 . S
C1086 H1077 0.930 . S
C1086 C1084 1.378 . S
C1086 C1087 1.367 . S
C1087 C1086 1.367 . S
C1087 C1089 1.433 . S
C1088 C1084 1.350 . S
C1088 C1085 1.463 . S
C1088 N1092 1.427 . S
C1089 H1079 0.929 . S
C1089 C1087 1.433 . S
C1089 N1092 1.384 . S
C1090 H1081 0.929 . S
C1090 C1082 1.378 . S
C1090 C1085 1.350 . S
C1091 H1078 0.929 . S
C1091 C1083 1.433 . S
C1091 N1093 1.384 . S
N1092 C1088 1.427 . S
N1092 C1089 1.384 . S
N1093 C1085 1.427 . S
N1093 C1091 1.384 . S
H1094 C1100 0.930 . S
H1095 C1104 0.930 . S
H1096 C1109 0.929 . S
H1097 C1107 0.929 . S
H1098 C1102 0.929 . S
H1099 C1108 0.929 . S
C1100 H1094 0.930 . S
C1100 C1101 1.367 . S
C1100 C1108 1.378 . S
C1101 C1100 1.367 . S
C1101 C1109 1.433 . S
C1102 H1098 0.929 . S
C1102 C1104 1.378 . S
C1102 C1106 1.350 . S
C1103 C1106 1.463 . S
C1103 C1108 1.350 . S
C1103 N1111 1.427 . S
C1104 H1095 0.930 . S
C1104 C1102 1.378 . S
C1104 C1105 1.367 . S
C1105 C1104 1.367 . S
C1105 C1107 1.433 . S
C1106 C1102 1.350 . S
C1106 C1103 1.463 . S
C1106 N1110 1.427 . S
C1107 H1097 0.929 . S
C1107 C1105 1.433 . S
C1107 N1110 1.384 . S
C1108 H1099 0.929 . S
C1108 C1100 1.378 . S
C1108 C1103 1.350 . S
C1109 H1096 0.929 . S
C1109 C1101 1.433 . S
C1109 N1111 1.384 . S
N1110 C1106 1.427 . S
N1110 C1107 1.384 . S
N1111 C1103 1.427 . S
N1111 C1109 1.384 . S
H1112 C1118 0.930 . S
H1113 C1122 0.930 . S
H1114 C1127 0.929 . S
H1115 C1125 0.929 . S
H1116 C1120 0.929 . S
H1117 C1126 0.929 . S
C1118 H1112 0.930 . S
C1118 C1119 1.367 . S
C1118 C1126 1.378 . S
C1119 C1118 1.367 . S
C1119 C1127 1.433 . S
C1120 H1116 0.929 . S
C1120 C1122 1.378 . S
C1120 C1124 1.350 . S
C1121 C1124 1.463 . S
C1121 C1126 1.350 . S
C1121 N1129 1.427 . S
C1122 H1113 0.930 . S
C1122 C1120 1.378 . S
C1122 C1123 1.367 . S
C1123 C1122 1.367 . S
C1123 C1125 1.433 . S
C1124 C1120 1.350 . S
C1124 C1121 1.463 . S
C1124 N1128 1.427 . S
C1125 H1115 0.929 . S
C1125 C1123 1.433 . S
C1125 N1128 1.384 . S
C1126 H1117 0.929 . S
C1126 C1118 1.378 . S
C1126 C1121 1.350 . S
C1127 H1114 0.929 . S
C1127 C1119 1.433 . S
C1127 N1129 1.384 . S
N1128 C1124 1.427 . S
N1128 C1125 1.384 . S
N1129 C1121 1.427 . S
N1129 C1127 1.384 . S
H1130 C1136 0.930 . S
H1131 C1140 0.930 . S
H1132 C1145 0.929 . S
H1133 C1143 0.929 . S
H1134 C1138 0.929 . S
H1135 C1144 0.929 . S
C1136 H1130 0.930 . S
C1136 C1137 1.367 . S
C1136 C1144 1.378 . S
C1137 C1136 1.367 . S
C1137 C1145 1.433 . S
C1138 H1134 0.929 . S
C1138 C1140 1.378 . S
C1138 C1142 1.350 . S
C1139 C1142 1.463 . S
C1139 C1144 1.350 . S
C1139 N1147 1.427 . S
C1140 H1131 0.930 . S
C1140 C1138 1.378 . S
C1140 C1141 1.367 . S
C1141 C1140 1.367 . S
C1141 C1143 1.433 . S
C1142 C1138 1.350 . S
C1142 C1139 1.463 . S
C1142 N1146 1.427 . S
C1143 H1133 0.929 . S
C1143 C1141 1.433 . S
C1143 N1146 1.384 . S
C1144 H1135 0.929 . S
C1144 C1136 1.378 . S
C1144 C1139 1.350 . S
C1145 H1132 0.929 . S
C1145 C1137 1.433 . S
C1145 N1147 1.384 . S
N1146 C1142 1.427 . S
N1146 C1143 1.384 . S
N1147 C1139 1.427 . S
N1147 C1145 1.384 . S
H1148 C1154 0.930 . S
H1149 C1158 0.930 . S
H1150 C1163 0.929 . S
H1151 C1161 0.929 . S
H1152 C1156 0.929 . S
H1153 C1162 0.929 . S
C1154 H1148 0.930 . S
C1154 C1155 1.367 . S
C1154 C1162 1.378 . S
C1155 C1154 1.367 . S
C1155 C1163 1.433 . S
C1156 H1152 0.929 . S
C1156 C1158 1.378 . S
C1156 C1160 1.350 . S
C1157 C1160 1.463 . S
C1157 C1162 1.350 . S
C1157 N1165 1.427 . S
C1158 H1149 0.930 . S
C1158 C1156 1.378 . S
C1158 C1159 1.367 . S
C1159 C1158 1.367 . S
C1159 C1161 1.433 . S
C1160 C1156 1.350 . S
C1160 C1157 1.463 . S
C1160 N1164 1.427 . S
C1161 H1151 0.929 . S
C1161 C1159 1.433 . S
C1161 N1164 1.384 . S
C1162 H1153 0.929 . S
C1162 C1154 1.378 . S
C1162 C1157 1.350 . S
C1163 H1150 0.929 . S
C1163 C1155 1.433 . S
C1163 N1165 1.384 . S
N1164 C1160 1.427 . S
N1164 C1161 1.384 . S
N1165 C1157 1.427 . S
N1165 C1163 1.384 . S
H1166 C1172 0.930 . S
H1167 C1176 0.930 . S
H1168 C1181 0.929 . S
H1169 C1179 0.929 . S
H1170 C1174 0.929 . S
H1171 C1180 0.929 . S
C1172 H1166 0.930 . S
C1172 C1173 1.367 . S
C1172 C1180 1.378 . S
C1173 C1172 1.367 . S
C1173 C1181 1.433 . S
C1174 H1170 0.929 . S
C1174 C1176 1.378 . S
C1174 C1178 1.350 . S
C1175 C1178 1.463 . S
C1175 C1180 1.350 . S
C1175 N1183 1.427 . S
C1176 H1167 0.930 . S
C1176 C1174 1.378 . S
C1176 C1177 1.367 . S
C1177 C1176 1.367 . S
C1177 C1179 1.433 . S
C1178 C1174 1.350 . S
C1178 C1175 1.463 . S
C1178 N1182 1.427 . S
C1179 H1169 0.929 . S
C1179 C1177 1.433 . S
C1179 N1182 1.384 . S
C1180 H1171 0.929 . S
C1180 C1172 1.378 . S
C1180 C1175 1.350 . S
C1181 H1168 0.929 . S
C1181 C1173 1.433 . S
C1181 N1183 1.384 . S
N1182 C1178 1.427 . S
N1182 C1179 1.384 . S
N1183 C1175 1.427 . S
N1183 C1181 1.384 . S
H1184 C1190 0.930 . S
H1185 C1194 0.930 . S
H1186 C1199 0.929 . S
H1187 C1197 0.929 . S
H1188 C1192 0.929 . S
H1189 C1198 0.929 . S
C1190 H1184 0.930 . S
C1190 C1191 1.367 . S
C1190 C1198 1.378 . S
C1191 C1190 1.367 . S
C1191 C1199 1.433 . S
C1192 H1188 0.929 . S
C1192 C1194 1.378 . S
C1192 C1196 1.350 . S
C1193 C1196 1.463 . S
C1193 C1198 1.350 . S
C1193 N1201 1.427 . S
C1194 H1185 0.930 . S
C1194 C1192 1.378 . S
C1194 C1195 1.367 . S
C1195 C1194 1.367 . S
C1195 C1197 1.433 . S
C1196 C1192 1.350 . S
C1196 C1193 1.463 . S
C1196 N1200 1.427 . S
C1197 H1187 0.929 . S
C1197 C1195 1.433 . S
C1197 N1200 1.384 . S
C1198 H1189 0.929 . S
C1198 C1190 1.378 . S
C1198 C1193 1.350 . S
C1199 H1186 0.929 . S
C1199 C1191 1.433 . S
C1199 N1201 1.384 . S
N1200 C1196 1.427 . S
N1200 C1197 1.384 . S
N1201 C1193 1.427 . S
N1201 C1199 1.384 . S
H1202 C1208 0.930 . S
H1203 C1212 0.930 . S
H1204 C1217 0.929 . S
H1205 C1215 0.929 . S
H1206 C1210 0.929 . S
H1207 C1216 0.929 . S
C1208 H1202 0.930 . S
C1208 C1209 1.367 . S
C1208 C1216 1.378 . S
C1209 C1208 1.367 . S
C1209 C1217 1.433 . S
C1210 H1206 0.929 . S
C1210 C1212 1.378 . S
C1210 C1214 1.350 . S
C1211 C1214 1.463 . S
C1211 C1216 1.350 . S
C1211 N1219 1.427 . S
C1212 H1203 0.930 . S
C1212 C1210 1.378 . S
C1212 C1213 1.367 . S
C1213 C1212 1.367 . S
C1213 C1215 1.433 . S
C1214 C1210 1.350 . S
C1214 C1211 1.463 . S
C1214 N1218 1.427 . S
C1215 H1205 0.929 . S
C1215 C1213 1.433 . S
C1215 N1218 1.384 . S
C1216 H1207 0.929 . S
C1216 C1208 1.378 . S
C1216 C1211 1.350 . S
C1217 H1204 0.929 . S
C1217 C1209 1.433 . S
C1217 N1219 1.384 . S
N1218 C1214 1.427 . S
N1218 C1215 1.384 . S
N1219 C1211 1.427 . S
N1219 C1217 1.384 . S
H1220 C1226 0.930 . S
H1221 C1230 0.930 . S
H1222 C1235 0.929 . S
H1223 C1233 0.929 . S
H1224 C1228 0.929 . S
H1225 C1234 0.929 . S
C1226 H1220 0.930 . S
C1226 C1227 1.367 . S
C1226 C1234 1.378 . S
C1227 C1226 1.367 . S
C1227 C1235 1.433 . S
C1228 H1224 0.929 . S
C1228 C1230 1.378 . S
C1228 C1232 1.350 . S
C1229 C1232 1.463 . S
C1229 C1234 1.350 . S
C1229 N1237 1.427 . S
C1230 H1221 0.930 . S
C1230 C1228 1.378 . S
C1230 C1231 1.367 . S
C1231 C1230 1.367 . S
C1231 C1233 1.433 . S
C1232 C1228 1.350 . S
C1232 C1229 1.463 . S
C1232 N1236 1.427 . S
C1233 H1223 0.929 . S
C1233 C1231 1.433 . S
C1233 N1236 1.384 . S
C1234 H1225 0.929 . S
C1234 C1226 1.378 . S
C1234 C1229 1.350 . S
C1235 H1222 0.929 . S
C1235 C1227 1.433 . S
C1235 N1237 1.384 . S
N1236 C1232 1.427 . S
N1236 C1233 1.384 . S
N1237 C1229 1.427 . S
N1237 C1235 1.384 . S
H1238 C1244 0.930 . S
H1239 C1248 0.930 . S
H1240 C1253 0.929 . S
H1241 C1251 0.929 . S
H1242 C1246 0.929 . S
H1243 C1252 0.929 . S
C1244 H1238 0.930 . S
C1244 C1245 1.367 . S
C1244 C1252 1.378 . S
C1245 C1244 1.367 . S
C1245 C1253 1.433 . S
C1246 H1242 0.929 . S
C1246 C1248 1.378 . S
C1246 C1250 1.350 . S
C1247 C1250 1.463 . S
C1247 C1252 1.350 . S
C1247 N1255 1.427 . S
C1248 H1239 0.930 . S
C1248 C1246 1.378 . S
C1248 C1249 1.367 . S
C1249 C1248 1.367 . S
C1249 C1251 1.433 . S
C1250 C1246 1.350 . S
C1250 C1247 1.463 . S
C1250 N1254 1.427 . S
C1251 H1241 0.929 . S
C1251 C1249 1.433 . S
C1251 N1254 1.384 . S
C1252 H1243 0.929 . S
C1252 C1244 1.378 . S
C1252 C1247 1.350 . S
C1253 H1240 0.929 . S
C1253 C1245 1.433 . S
C1253 N1255 1.384 . S
N1254 C1250 1.427 . S
N1254 C1251 1.384 . S
N1255 C1247 1.427 . S
N1255 C1253 1.384 . S
H1256 C1262 0.930 . S
H1257 C1266 0.930 . S
H1258 C1271 0.929 . S
H1259 C1269 0.929 . S
H1260 C1264 0.929 . S
H1261 C1270 0.929 . S
C1262 H1256 0.930 . S
C1262 C1263 1.367 . S
C1262 C1270 1.378 . S
C1263 C1262 1.367 . S
C1263 C1271 1.433 . S
C1264 H1260 0.929 . S
C1264 C1266 1.378 . S
C1264 C1268 1.350 . S
C1265 C1268 1.463 . S
C1265 C1270 1.350 . S
C1265 N1273 1.427 . S
C1266 H1257 0.930 . S
C1266 C1264 1.378 . S
C1266 C1267 1.367 . S
C1267 C1266 1.367 . S
C1267 C1269 1.433 . S
C1268 C1264 1.350 . S
C1268 C1265 1.463 . S
C1268 N1272 1.427 . S
C1269 H1259 0.929 . S
C1269 C1267 1.433 . S
C1269 N1272 1.384 . S
C1270 H1261 0.929 . S
C1270 C1262 1.378 . S
C1270 C1265 1.350 . S
C1271 H1258 0.929 . S
C1271 C1263 1.433 . S
C1271 N1273 1.384 . S
N1272 C1268 1.427 . S
N1272 C1269 1.384 . S
N1273 C1265 1.427 . S
N1273 C1271 1.384 . S
H1274 C1280 0.930 . S
H1275 C1284 0.930 . S
H1276 C1289 0.929 . S
H1277 C1287 0.929 . S
H1278 C1282 0.929 . S
H1279 C1288 0.929 . S
C1280 H1274 0.930 . S
C1280 C1281 1.367 . S
C1280 C1288 1.378 . S
C1281 C1280 1.367 . S
C1281 C1289 1.433 . S
C1282 H1278 0.929 . S
C1282 C1284 1.378 . S
C1282 C1286 1.350 . S
C1283 C1286 1.463 . S
C1283 C1288 1.350 . S
C1283 N1291 1.427 . S
C1284 H1275 0.930 . S
C1284 C1282 1.378 . S
C1284 C1285 1.367 . S
C1285 C1284 1.367 . S
C1285 C1287 1.433 . S
C1286 C1282 1.350 . S
C1286 C1283 1.463 . S
C1286 N1290 1.427 . S
C1287 H1277 0.929 . S
C1287 C1285 1.433 . S
C1287 N1290 1.384 . S
C1288 H1279 0.929 . S
C1288 C1280 1.378 . S
C1288 C1283 1.350 . S
C1289 H1276 0.929 . S
C1289 C1281 1.433 . S
C1289 N1291 1.384 . S
N1290 C1286 1.427 . S
N1290 C1287 1.384 . S
N1291 C1283 1.427 . S
N1291 C1289 1.384 . S
H1292 C1298 0.930 . S
H1293 C1302 0.930 . S
H1294 C1307 0.929 . S
H1295 C1305 0.929 . S
H1296 C1300 0.929 . S
H1297 C1306 0.929 . S
C1298 H1292 0.930 . S
C1298 C1299 1.367 . S
C1298 C1306 1.378 . S
C1299 C1298 1.367 . S
C1299 C1307 1.433 . S
C1300 H1296 0.929 . S
C1300 C1302 1.378 . S
C1300 C1304 1.350 . S
C1301 C1304 1.463 . S
C1301 C1306 1.350 . S
C1301 N1309 1.427 . S
C1302 H1293 0.930 . S
C1302 C1300 1.378 . S
C1302 C1303 1.367 . S
C1303 C1302 1.367 . S
C1303 C1305 1.433 . S
C1304 C1300 1.350 . S
C1304 C1301 1.463 . S
C1304 N1308 1.427 . S
C1305 H1295 0.929 . S
C1305 C1303 1.433 . S
C1305 N1308 1.384 . S
C1306 H1297 0.929 . S
C1306 C1298 1.378 . S
C1306 C1301 1.350 . S
C1307 H1294 0.929 . S
C1307 C1299 1.433 . S
C1307 N1309 1.384 . S
N1308 C1304 1.427 . S
N1308 C1305 1.384 . S
N1309 C1301 1.427 . S
N1309 C1307 1.384 . S
H1310 C1316 0.930 . S
H1311 C1320 0.930 . S
H1312 C1325 0.929 . S
H1313 C1323 0.929 . S
H1314 C1318 0.929 . S
H1315 C1324 0.929 . S
C1316 H1310 0.930 . S
C1316 C1317 1.367 . S
C1316 C1324 1.378 . S
C1317 C1316 1.367 . S
C1317 C1325 1.433 . S
C1318 H1314 0.929 . S
C1318 C1320 1.378 . S
C1318 C1322 1.350 . S
C1319 C1322 1.463 . S
C1319 C1324 1.350 . S
C1319 N1327 1.427 . S
C1320 H1311 0.930 . S
C1320 C1318 1.378 . S
C1320 C1321 1.367 . S
C1321 C1320 1.367 . S
C1321 C1323 1.433 . S
C1322 C1318 1.350 . S
C1322 C1319 1.463 . S
C1322 N1326 1.427 . S
C1323 H1313 0.929 . S
C1323 C1321 1.433 . S
C1323 N1326 1.384 . S
C1324 H1315 0.929 . S
C1324 C1316 1.378 . S
C1324 C1319 1.350 . S
C1325 H1312 0.929 . S
C1325 C1317 1.433 . S
C1325 N1327 1.384 . S
N1326 C1322 1.427 . S
N1326 C1323 1.384 . S
N1327 C1319 1.427 . S
N1327 C1325 1.384 . S
H1328 C1334 0.930 . S
H1329 C1338 0.930 . S
H1330 C1343 0.929 . S
H1331 C1341 0.929 . S
H1332 C1336 0.929 . S
H1333 C1342 0.929 . S
C1334 H1328 0.930 . S
C1334 C1335 1.367 . S
C1334 C1342 1.378 . S
C1335 C1334 1.367 . S
C1335 C1343 1.433 . S
C1336 H1332 0.929 . S
C1336 C1338 1.378 . S
C1336 C1340 1.350 . S
C1337 C1340 1.463 1_455 S
C1337 C1342 1.350 . S
C1337 N1345 1.427 1_455 S
C1338 H1329 0.930 . S
C1338 C1336 1.378 . S
C1338 C1339 1.367 . S
C1339 C1338 1.367 . S
C1339 C1341 1.433 . S
C1340 C1336 1.350 . S
C1340 C1337 1.463 1_655 S
C1340 N1344 1.427 1_655 S
C1341 H1331 0.929 . S
C1341 C1339 1.433 . S
C1341 N1344 1.384 1_655 S
C1342 H1333 0.929 . S
C1342 C1334 1.378 . S
C1342 C1337 1.350 . S
C1343 H1330 0.929 . S
C1343 C1335 1.433 . S
C1343 N1345 1.384 1_455 S
N1344 C1340 1.427 1_455 S
N1344 C1341 1.384 1_455 S
N1345 C1337 1.427 1_655 S
N1345 C1343 1.384 1_655 S
H1346 C1352 0.930 . S
H1347 C1356 0.930 . S
H1348 C1361 0.929 . S
H1349 C1359 0.929 . S
H1350 C1354 0.929 . S
H1351 C1360 0.929 . S
C1352 H1346 0.930 . S
C1352 C1353 1.367 . S
C1352 C1360 1.378 . S
C1353 C1352 1.367 . S
C1353 C1361 1.433 . S
C1354 H1350 0.929 . S
C1354 C1356 1.378 . S
C1354 C1358 1.350 . S
C1355 C1358 1.463 1_565 S
C1355 C1360 1.350 . S
C1355 N1363 1.427 . S
C1356 H1347 0.930 . S
C1356 C1354 1.378 . S
C1356 C1357 1.367 . S
C1357 C1356 1.367 . S
C1357 C1359 1.433 . S
C1358 C1354 1.350 . S
C1358 C1355 1.463 1_545 S
C1358 N1362 1.427 . S
C1359 H1349 0.929 . S
C1359 C1357 1.433 . S
C1359 N1362 1.384 . S
C1360 H1351 0.929 . S
C1360 C1352 1.378 . S
C1360 C1355 1.350 . S
C1361 H1348 0.929 . S
C1361 C1353 1.433 . S
C1361 N1363 1.384 . S
N1362 C1358 1.427 . S
N1362 C1359 1.384 . S
N1363 C1355 1.427 . S
N1363 C1361 1.384 . S
H1364 C1370 0.930 . S
H1365 C1374 0.930 . S
H1366 C1379 0.929 . S
H1367 C1377 0.929 . S
H1368 C1372 0.929 . S
H1369 C1378 0.929 . S
C1370 H1364 0.930 . S
C1370 C1371 1.367 . S
C1370 C1378 1.378 . S
C1371 C1370 1.367 . S
C1371 C1379 1.433 1_455 S
C1372 H1368 0.929 . S
C1372 C1374 1.378 . S
C1372 C1376 1.350 . S
C1373 C1376 1.463 1_455 S
C1373 C1378 1.350 . S
C1373 N1381 1.427 1_455 S
C1374 H1365 0.930 . S
C1374 C1372 1.378 . S
C1374 C1375 1.367 . S
C1375 C1374 1.367 . S
C1375 C1377 1.433 1_655 S
C1376 C1372 1.350 . S
C1376 C1373 1.463 1_655 S
C1376 N1380 1.427 1_655 S
C1377 H1367 0.929 . S
C1377 C1375 1.433 1_455 S
C1377 N1380 1.384 . S
C1378 H1369 0.929 . S
C1378 C1370 1.378 . S
C1378 C1373 1.350 . S
C1379 H1366 0.929 . S
C1379 C1371 1.433 1_655 S
C1379 N1381 1.384 . S
N1380 C1376 1.427 1_455 S
N1380 C1377 1.384 . S
N1381 C1373 1.427 1_655 S
N1381 C1379 1.384 . S
H1382 C1388 0.930 . S
H1383 C1392 0.930 . S
H1384 C1397 0.929 . S
H1385 C1395 0.929 . S
H1386 C1390 0.929 . S
H1387 C1396 0.929 . S
C1388 H1382 0.930 . S
C1388 C1389 1.367 . S
C1388 C1396 1.378 1_565 S
C1389 C1388 1.367 . S
C1389 C1397 1.433 . S
C1390 H1386 0.929 . S
C1390 C1392 1.378 1_565 S
C1390 C1394 1.350 1_565 S
C1391 C1394 1.463 1_565 S
C1391 C1396 1.350 1_565 S
C1391 N1399 1.427 . S
C1392 H1383 0.930 . S
C1392 C1390 1.378 1_545 S
C1392 C1393 1.367 . S
C1393 C1392 1.367 . S
C1393 C1395 1.433 . S
C1394 C1390 1.350 1_545 S
C1394 C1391 1.463 1_545 S
C1394 N1398 1.427 . S
C1395 H1385 0.929 . S
C1395 C1393 1.433 . S
C1395 N1398 1.384 . S
C1396 H1387 0.929 . S
C1396 C1388 1.378 1_545 S
C1396 C1391 1.350 1_545 S
C1397 H1384 0.929 . S
C1397 C1389 1.433 . S
C1397 N1399 1.384 . S
N1398 C1394 1.427 . S
N1398 C1395 1.384 . S
N1399 C1391 1.427 . S
N1399 C1397 1.384 . S
H1400 C1406 0.930 . S
H1401 C1410 0.930 . S
H1402 C1415 0.929 . S
H1403 C1413 0.929 . S
H1404 C1408 0.929 . S
H1405 C1414 0.929 . S
C1406 H1400 0.930 . S
C1406 C1407 1.367 . S
C1406 C1414 1.378 . S
C1407 C1406 1.367 . S
C1407 C1415 1.433 . S
C1408 H1404 0.929 . S
C1408 C1410 1.378 . S
C1408 C1412 1.350 . S
C1409 C1412 1.463 1_455 S
C1409 C1414 1.350 . S
C1409 N1417 1.427 . S
C1410 H1401 0.930 . S
C1410 C1408 1.378 . S
C1410 C1411 1.367 . S
C1411 C1410 1.367 . S
C1411 C1413 1.433 . S
C1412 C1408 1.350 . S
C1412 C1409 1.463 1_655 S
C1412 N1416 1.427 . S
C1413 H1403 0.929 . S
C1413 C1411 1.433 . S
C1413 N1416 1.384 . S
C1414 H1405 0.929 . S
C1414 C1406 1.378 . S
C1414 C1409 1.350 . S
C1415 H1402 0.929 . S
C1415 C1407 1.433 . S
C1415 N1417 1.384 . S
N1416 C1412 1.427 . S
N1416 C1413 1.384 . S
N1417 C1409 1.427 . S
N1417 C1415 1.384 . S
H1418 C1424 0.930 . S
H1419 C1428 0.930 . S
H1420 C1433 0.929 . S
H1421 C1431 0.929 . S
H1422 C1426 0.929 . S
H1423 C1432 0.929 . S
C1424 H1418 0.930 . S
C1424 C1425 1.367 . S
C1424 C1432 1.378 . S
C1425 C1424 1.367 . S
C1425 C1433 1.433 . S
C1426 H1422 0.929 . S
C1426 C1428 1.378 . S
C1426 C1430 1.350 . S
C1427 C1430 1.463 1_545 S
C1427 C1432 1.350 . S
C1427 N1435 1.427 . S
C1428 H1419 0.930 . S
C1428 C1426 1.378 . S
C1428 C1429 1.367 . S
C1429 C1428 1.367 . S
C1429 C1431 1.433 . S
C1430 C1426 1.350 . S
C1430 C1427 1.463 1_565 S
C1430 N1434 1.427 . S
C1431 H1421 0.929 . S
C1431 C1429 1.433 . S
C1431 N1434 1.384 . S
C1432 H1423 0.929 . S
C1432 C1424 1.378 . S
C1432 C1427 1.350 . S
C1433 H1420 0.929 . S
C1433 C1425 1.433 . S
C1433 N1435 1.384 . S
N1434 C1430 1.427 . S
N1434 C1431 1.384 . S
N1435 C1427 1.427 . S
N1435 C1433 1.384 . S
H1436 C1442 0.930 . S
H1437 C1446 0.930 . S
H1438 C1451 0.929 . S
H1439 C1449 0.929 . S
H1440 C1444 0.929 . S
H1441 C1450 0.929 . S
C1442 H1436 0.930 . S
C1442 C1443 1.367 . S
C1442 C1450 1.378 . S
C1443 C1442 1.367 . S
C1443 C1451 1.433 . S
C1444 H1440 0.929 . S
C1444 C1446 1.378 . S
C1444 C1448 1.350 . S
C1445 C1448 1.463 1_455 S
C1445 C1450 1.350 . S
C1445 N1453 1.427 . S
C1446 H1437 0.930 . S
C1446 C1444 1.378 . S
C1446 C1447 1.367 . S
C1447 C1446 1.367 . S
C1447 C1449 1.433 . S
C1448 C1444 1.350 . S
C1448 C1445 1.463 1_655 S
C1448 N1452 1.427 . S
C1449 H1439 0.929 . S
C1449 C1447 1.433 . S
C1449 N1452 1.384 . S
C1450 H1441 0.929 . S
C1450 C1442 1.378 . S
C1450 C1445 1.350 . S
C1451 H1438 0.929 . S
C1451 C1443 1.433 . S
C1451 N1453 1.384 . S
N1452 C1448 1.427 . S
N1452 C1449 1.384 . S
N1453 C1445 1.427 . S
N1453 C1451 1.384 . S
H1454 C1460 0.930 . S
H1455 C1464 0.930 . S
H1456 C1469 0.929 . S
H1457 C1467 0.929 . S
H1458 C1462 0.929 . S
H1459 C1468 0.929 . S
C1460 H1454 0.930 . S
C1460 C1461 1.367 . S
C1460 C1468 1.378 . S
C1461 C1460 1.367 . S
C1461 C1469 1.433 . S
C1462 H1458 0.929 . S
C1462 C1464 1.378 . S
C1462 C1466 1.350 . S
C1463 C1466 1.463 1_565 S
C1463 C1468 1.350 . S
C1463 N1471 1.427 . S
C1464 H1455 0.930 . S
C1464 C1462 1.378 . S
C1464 C1465 1.367 . S
C1465 C1464 1.367 . S
C1465 C1467 1.433 . S
C1466 C1462 1.350 . S
C1466 C1463 1.463 1_545 S
C1466 N1470 1.427 . S
C1467 H1457 0.929 . S
C1467 C1465 1.433 . S
C1467 N1470 1.384 . S
C1468 H1459 0.929 . S
C1468 C1460 1.378 . S
C1468 C1463 1.350 . S
C1469 H1456 0.929 . S
C1469 C1461 1.433 . S
C1469 N1471 1.384 . S
N1470 C1466 1.427 . S
N1470 C1467 1.384 . S
N1471 C1463 1.427 . S
N1471 C1469 1.384 . S
C471 C10 1.610 . S
C475 C300 1.598 . S
C489 C39 1.601 . S
C493 C329 1.590 . S
C507 C242 1.601 . S
C511 C68 1.609 . S
C525 C271 1.610 . S
C529 C97 1.599 . S
C543 C126 1.590 . S
C547 C416 1.598 . S
C561 C445 1.594 . S
C565 C155 1.592 . S
C579 C358 1.603 . S
C583 C184 1.590 . S
C597 C213 1.595 . S
C601 C387 1.609 . S
C615 C100 1.934 . S
C619 C3 2.020 . S
C633 C13 1.925 . S
C637 C32 2.025 . S
C651 C61 2.023 . S
C655 C42 1.932 . S
C669 C90 2.018 . S
C673 C71 1.934 . S
C687 C158 1.931 . S
C691 C119 2.016 . S
C705 C148 2.025 . S
C709 C187 1.928 . S
C723 C216 1.921 . S
C727 C177 2.019 . S
C741 C129 1.933 . S
C745 C206 2.017 . S
C759 C253 1.573 . S
C763 C327 1.556 . S
C777 C240 1.566 . S
C781 C282 1.581 . S
C795 C311 1.570 . S
C799 C269 1.553 . S
C813 C298 1.566 . S
C817 C340 1.582 . S
C831 C369 1.570 . S
C835 C385 1.553 . S
C849 C414 1.556 . S
C853 C398 1.572 . S
C867 C443 1.552 . S
C871 C427 1.570 . S
C885 C356 1.555 . S
C889 C456 1.572 . S
C903 C380 2.016 . S
C907 C361 1.927 . S
C921 C409 2.025 . S
C925 C390 1.922 . S
C939 C419 1.929 . S
C943 C438 2.024 . S
C957 C448 1.934 . S
C961 C351 2.021 . S
C975 C322 2.021 . S
C979 C245 1.919 . S
C993 C274 1.921 . S
C997 C235 2.025 . S
C1011 C303 1.933 . S
C1015 C264 2.017 . S
C1029 C332 1.923 . S
C1033 C293 2.018 . S
C1047 C166 1.576 . S
C1051 C124 1.560 . S
C1065 C153 1.552 . S
C1069 C195 1.570 . S
C1083 C224 1.574 . S
C1087 C182 1.557 . S
C1101 C211 1.554 . S
C1105 C137 1.571 . S
C1119 C108 1.574 . S
C1123 C8 1.557 . S
C1137 C37 1.564 . S
C1141 C21 1.580 . S
C1155 C66 1.564 . S
C1159 C50 1.579 . S
C1173 C95 1.560 . S
C1177 C79 1.576 . S
C1191 C150 1.393 . S
C1195 C5 1.401 . S
C1209 C179 1.391 . S
C1213 C34 1.397 . S
C1227 C208 1.392 . S
C1231 C63 1.393 . S
C1245 C121 1.400 . S
C1249 C92 1.403 . S
C1263 C382 1.393 . S
C1267 C237 1.393 . S
C1281 C266 1.394 . S
C1285 C411 1.392 . S
C1299 C295 1.395 . S
C1303 C440 1.403 . S
C1317 C324 1.402 . S
C1321 C353 1.402 . S
C1335 C15 1.528 . S
C1339 C73 1.538 . S
C1353 C102 1.541 . S
C1357 C44 1.529 . S
C1371 C131 1.528 . S
C1375 C189 1.535 . S
C1389 C218 1.542 . S
C1393 C160 1.532 . S
C1407 C305 1.542 . S
C1411 C247 1.535 . S
C1425 C334 1.542 . S
C1429 C276 1.535 . S
C1443 C421 1.542 . S
C1447 C363 1.533 . S
C1461 C392 1.537 . S
C1465 C450 1.541 . S
