# Generated by pormake.
# Topology smc, (6)-cn, num edge types: 1
# Building blocks:
#     Node 0, Type 0, BuildingBlock: OJICUG_clean_sbu_0, # of connection points: 6
#     Node 1, Type 0, BuildingBlock: OJICUG_clean_sbu_0, # of connection points: 6
#     Node 2, Type 0, BuildingBlock: OJICUG_clean_sbu_0, # of connection points: 6
#     Node 3, Type 0, BuildingBlock: OJICUG_clean_sbu_0, # of connection points: 6
#     Node 4, Type 0, BuildingBlock: OJICUG_clean_sbu_0, # of connection points: 6
#     Node 5, Type 0, BuildingBlock: OJICUG_clean_sbu_0, # of connection points: 6
#     Node 6, Type 0, BuildingBlock: OJICUG_clean_sbu_0, # of connection points: 6
#     Node 7, Type 0, BuildingBlock: OJICUG_clean_sbu_0, # of connection points: 6
#     Node 8, Type 0, BuildingBlock: OJICUG_clean_sbu_0, # of connection points: 6
#     Edge 9, Type (0, 0), BuildingBlock: ZUJKAS_clean_linker_0, # of connection points: 2
#     Edge 10, Type (0, 0), BuildingBlock: ZUJKAS_clean_linker_0, # of connection points: 2
#     Edge 11, Type (0, 0), BuildingBlock: ZUJKAS_clean_linker_0, # of connection points: 2
#     Edge 12, Type (0, 0), BuildingBlock: ZUJKAS_clean_linker_0, # of connection points: 2
#     Edge 13, Type (0, 0), BuildingBlock: ZUJKAS_clean_linker_0, # of connection points: 2
#     Edge 14, Type (0, 0), BuildingBlock: ZUJKAS_clean_linker_0, # of connection points: 2
#     Edge 15, Type (0, 0), BuildingBlock: ZUJKAS_clean_linker_0, # of connection points: 2
#     Edge 16, Type (0, 0), BuildingBlock: ZUJKAS_clean_linker_0, # of connection points: 2
#     Edge 17, Type (0, 0), BuildingBlock: ZUJKAS_clean_linker_0, # of connection points: 2
#     Edge 18, Type (0, 0), BuildingBlock: ZUJKAS_clean_linker_0, # of connection points: 2
#     Edge 19, Type (0, 0), BuildingBlock: ZUJKAS_clean_linker_0, # of connection points: 2
#     Edge 20, Type (0, 0), BuildingBlock: ZUJKAS_clean_linker_0, # of connection points: 2
#     Edge 21, Type (0, 0), BuildingBlock: ZUJKAS_clean_linker_0, # of connection points: 2
#     Edge 22, Type (0, 0), BuildingBlock: ZUJKAS_clean_linker_0, # of connection points: 2
#     Edge 23, Type (0, 0), BuildingBlock: ZUJKAS_clean_linker_0, # of connection points: 2
#     Edge 24, Type (0, 0), BuildingBlock: ZUJKAS_clean_linker_0, # of connection points: 2
#     Edge 25, Type (0, 0), BuildingBlock: ZUJKAS_clean_linker_0, # of connection points: 2
#     Edge 26, Type (0, 0), BuildingBlock: ZUJKAS_clean_linker_0, # of connection points: 2
#     Edge 27, Type (0, 0), BuildingBlock: ZUJKAS_clean_linker_0, # of connection points: 2
#     Edge 28, Type (0, 0), BuildingBlock: ZUJKAS_clean_linker_0, # of connection points: 2
#     Edge 29, Type (0, 0), BuildingBlock: ZUJKAS_clean_linker_0, # of connection points: 2
#     Edge 30, Type (0, 0), BuildingBlock: ZUJKAS_clean_linker_0, # of connection points: 2
#     Edge 31, Type (0, 0), BuildingBlock: ZUJKAS_clean_linker_0, # of connection points: 2
#     Edge 32, Type (0, 0), BuildingBlock: ZUJKAS_clean_linker_0, # of connection points: 2
#     Edge 33, Type (0, 0), BuildingBlock: ZUJKAS_clean_linker_0, # of connection points: 2
#     Edge 34, Type (0, 0), BuildingBlock: ZUJKAS_clean_linker_0, # of connection points: 2
#     Edge 35, Type (0, 0), BuildingBlock: ZUJKAS_clean_linker_0, # of connection points: 2
# Relax obj value: 0.196
# Max RMSD: 0.270
# Mean RMSD: 0.270
data_MOF--net-smc--node1-OJICUG_clean_sbu_0--edge1-ZUJKAS_clean_linker_0
_symmetry_space_group_name_H-M    P1
_symmetry_Int_Tables_number       1
_symmetry_cell_setting            triclinic
loop_
_symmetry_equiv_pos_as_xyz
'x, y, z'
_cell_length_a     39.176059
_cell_length_b     39.175427
_cell_length_c     57.955784
_cell_angle_alpha  90.04818
_cell_angle_beta   89.941392
_cell_angle_gamma 119.91786
loop_
_atom_site_label
_atom_site_type_symbol
_atom_site_fract_x
_atom_site_fract_y
_atom_site_fract_z
_atom_type_partial_charge
Sc0 Sc 0.03032 0.46169 0.98635 0.0
Sc1 Sc 0.99328 0.37046 0.01489 0.0
Sc2 Sc 0.96244 0.43723 0.03201 0.0
O3 O 0.9954 0.42318 0.01109 0.0
C4 C 0.04386 0.5183 0.02901 0.0
C5 C 0.0847 0.42846 0.00625 0.0
C6 C 0.99 0.39382 0.06737 0.0
C7 C 0.99635 0.38009 0.95995 0.0
C8 C 0.9542 0.4714 0.98391 0.0
C9 C 0.90308 0.34678 0.01947 0.0
O10 O 0.05381 0.50959 0.01005 0.0
O11 O 0.05624 0.39717 0.01456 0.0
O12 O 0.97744 0.41719 0.06258 0.0
O13 O 0.01045 0.41712 0.96031 0.0
O14 O 0.94321 0.45843 0.00413 0.0
O15 O 0.93014 0.33869 0.01543 0.0
O16 O 0.98545 0.47525 0.9747 0.0
O17 O 0.98939 0.35954 0.97816 0.0
O18 O 0.91004 0.38073 0.02598 0.0
O19 O 0.07972 0.45371 0.99517 0.0
O20 O 0.01151 0.4959 0.03933 0.0
O21 O 0.99689 0.37482 0.05203 0.0
Sc22 Sc 0.53272 0.55687 0.97412 0.0
Sc23 Sc 0.62347 0.62255 0.00053 0.0
Sc24 Sc 0.56658 0.52591 0.02165 0.0
O25 O 0.57418 0.56843 -0.00123 0.0
C26 C 0.47932 0.5116 0.01759 0.0
C27 C 0.55576 0.64344 0.99132 0.0
C28 C 0.60353 0.60169 0.05389 0.0
C29 C 0.61219 0.61017 0.94616 0.0
C30 C 0.53662 0.47771 0.97453 0.0
C31 C 0.65805 0.56526 0.0086 0.0
O32 O 0.48488 0.52658 -0.00238 0.0
O33 O 0.59011 0.65208 -0.00219 0.0
O34 O 0.58398 0.56476 0.0507 0.0
O35 O 0.57556 0.58567 0.94735 0.0
O36 O 0.54875 0.48267 0.99519 0.0
O37 O 0.6617 0.59828 0.00311 0.0
O38 O 0.52933 0.50178 0.96385 0.0
O39 O 0.63342 0.62565 0.96389 0.0
O40 O 0.62579 0.53654 0.01589 0.0
O41 O 0.53131 0.61019 0.98258 0.0
O42 O 0.50597 0.5099 0.02923 0.0
O43 O 0.61955 0.62615 0.03749 0.0
Sc44 Sc 0.43823 0.96343 0.97723 0.0
Sc45 Sc 0.37871 0.99781 0.00193 0.0
Sc46 Sc 0.47377 0.02991 0.02399 0.0
O47 O 0.43025 0.99704 0.00104 0.0
C48 C 0.47665 0.95035 0.02249 0.0
C49 C 0.34956 0.90686 0.99436 0.0
C50 C 0.39776 0.00069 0.05562 0.0
C51 C 0.39161 0.99542 0.94769 0.0
C52 C 0.52265 0.0404 0.9779 0.0
C53 C 0.44327 0.08838 0.00818 0.0
O54 O 0.46312 0.94215 0.00214 0.0
O55 O 0.3441 0.93491 0.00048 0.0
O56 O 0.43445 0.01501 0.05265 0.0
O57 O 0.41382 0.98061 0.94956 0.0
O58 O 0.51862 0.04904 -0.00161 0.0
O59 O 0.40885 0.06074 0.00333 0.0
O60 O 0.49597 0.01099 0.96696 0.0
O61 O 0.37686 0.00329 0.96502 0.0
O62 O 0.47016 0.08219 0.01595 0.0
O63 O 0.38177 0.91239 0.98556 0.0
O64 O 0.48161 0.98058 0.03356 0.0
O65 O 0.37384 0.99251 0.03898 0.0
Sc66 Sc 0.6832 0.85105 0.3037 0.0
Sc67 Sc 0.65373 0.764 0.33371 0.0
Sc68 Sc 0.62758 0.83197 0.35276 0.0
O69 O 0.65503 0.81521 0.33016 0.0
C70 C 0.70521 0.909 0.34559 0.0
C71 C 0.74359 0.82634 0.32115 0.0
C72 C 0.6565 0.78671 0.38571 0.0
C73 C 0.65107 0.76746 0.27979 0.0
C74 C 0.60754 0.85577 0.30566 0.0
C75 C 0.56499 0.74388 0.34249 0.0
O76 O 0.69865 0.90316 0.32404 0.0
O77 O 0.7158 0.79163 0.32591 0.0
O78 O 0.63626 0.80329 0.382 0.0
O79 O 0.67183 0.80473 0.27977 0.0
O80 O 0.61532 0.86415 0.32687 0.0
O81 O 0.59157 0.73409 0.34175 0.0
O82 O 0.62787 0.84587 0.29317 0.0
O83 O 0.63776 0.74769 0.29823 0.0
O84 O 0.57249 0.77947 0.34447 0.0
O85 O 0.73757 0.85398 0.31443 0.0
O86 O 0.68357 0.8834 0.36047 0.0
O87 O 0.66964 0.77473 0.36948 0.0
Sc88 Sc 0.14346 0.83771 0.3046 0.0
Sc89 Sc 0.22957 0.89726 0.33464 0.0
Sc90 Sc 0.16175 0.80422 0.355 0.0
O91 O 0.17885 0.84715 0.33152 0.0
C92 C 0.08565 0.80539 0.34585 0.0
C93 C 0.16647 0.92304 0.32029 0.0
C94 C 0.20667 0.87992 0.38682 0.0
C95 C 0.22697 0.88966 0.28089 0.0
C96 C 0.14179 0.75904 0.30876 0.0
C97 C 0.24992 0.82918 0.34546 0.0
O98 O 0.09159 0.80048 0.32485 0.0
O99 O 0.20135 0.93068 0.32535 0.0
O100 O 0.18999 0.84298 0.38373 0.0
O101 O 0.18969 0.87295 0.28075 0.0
O102 O 0.13054 0.75887 0.32935 0.0
O103 O 0.25943 0.86542 0.34385 0.0
O104 O 0.1513 0.78836 0.29554 0.0
O105 O 0.24653 0.89618 0.29941 0.0
O106 O 0.21441 0.80117 0.34788 0.0
O107 O 0.13887 0.88882 0.31434 0.0
O108 O 0.11053 0.81011 0.36141 0.0
O109 O 0.21857 0.90421 0.37019 0.0
Sc110 Sc 0.15369 0.31116 0.3146 0.0
Sc111 Sc 0.10714 0.35031 0.34748 0.0
Sc112 Sc 0.20135 0.36905 0.36142 0.0
O113 O 0.15337 0.34331 0.34136 0.0
C114 C 0.19237 0.28746 0.3542 0.0
C115 C 0.07037 0.25793 0.33683 0.0
C116 C 0.13414 0.35015 0.39838 0.0
C117 C 0.10432 0.34783 0.29338 0.0
C118 C 0.23682 0.38259 0.31213 0.0
C119 C 0.18234 0.43701 0.35212 0.0
O120 O 0.18983 0.29244 0.33273 0.0
O121 O 0.06737 0.28797 0.34233 0.0
O122 O 0.17013 0.36598 0.39266 0.0
O123 O 0.11833 0.32487 0.29259 0.0
O124 O 0.24013 0.37536 0.3331 0.0
O125 O 0.14528 0.41284 0.35285 0.0
O126 O 0.20447 0.36324 0.30136 0.0
O127 O 0.102 0.36354 0.31202 0.0
O128 O 0.20827 0.42628 0.35312 0.0
O129 O 0.10147 0.26044 0.32798 0.0
O130 O 0.19265 0.31122 0.3693 0.0
O131 O 0.10666 0.33818 0.38361 0.0
Sc132 Sc 0.36497 0.14368 0.63179 0.0
Sc133 Sc 0.3266 0.05644 0.66405 0.0
Sc134 Sc 0.31059 0.13342 0.68196 0.0
O135 O 0.33431 0.11121 0.65938 0.0
C136 C 0.39357 0.20772 0.67252 0.0
C137 C 0.41731 0.10757 0.65012 0.0
C138 C 0.33458 0.08488 0.71606 0.0
C139 C 0.32036 0.05816 0.60937 0.0
C140 C 0.29618 0.16332 0.63388 0.0
C141 C 0.24124 0.04537 0.67296 0.0
O142 O 0.39413 0.1964 0.65204 0.0
O143 O 0.38813 0.07707 0.65872 0.0
O144 O 0.32302 0.10928 0.71195 0.0
O145 O 0.34006 0.09538 0.60814 0.0
O146 O 0.29462 0.16101 0.65569 0.0
O147 O 0.26462 0.03211 0.66963 0.0
O148 O 0.31767 0.15439 0.62174 0.0
O149 O 0.31255 0.03979 0.6284 0.0
O150 O 0.253 0.08153 0.67727 0.0
O151 O 0.4139 0.13458 0.63991 0.0
O152 O 0.36636 0.18726 0.68695 0.0
O153 O 0.33904 0.06493 0.70032 0.0
Sc154 Sc 0.88046 0.23602 0.64049 0.0
Sc155 Sc 0.96293 0.27925 0.67693 0.0
Sc156 Sc 0.88589 0.18242 0.68739 0.0
O157 O 0.9097 0.23278 0.6684 0.0
C158 C 0.8113 0.19054 0.67762 0.0
C159 C 0.91137 0.31943 0.66518 0.0
C160 C 0.92823 0.2469 0.72685 0.0
C161 C 0.96864 0.28424 0.62213 0.0
C162 C 0.86327 0.14871 0.6363 0.0
C163 C 0.97573 0.20509 0.68037 0.0
O164 O 0.82519 0.20703 0.65831 0.0
O165 O 0.94081 0.31955 0.67457 0.0
O166 O 0.90495 0.21207 0.72003 0.0
O167 O 0.93167 0.26566 0.61924 0.0
O168 O 0.86303 0.14493 0.658 0.0
O169 O 0.98837 0.24198 0.67966 0.0
O170 O 0.87283 0.18121 0.62638 0.0
O171 O 0.98444 0.29083 0.64193 0.0
O172 O 0.9394 0.17942 0.68289 0.0
O173 O 0.88676 0.29133 0.65242 0.0
O174 O 0.83043 0.18153 0.69178 0.0
O175 O 0.94976 0.27455 0.71311 0.0
Sc176 Sc 0.7898 0.65898 0.63053 0.0
Sc177 Sc 0.73884 0.69345 0.66409 0.0
Sc178 Sc 0.83419 0.71465 0.67984 0.0
O179 O 0.78727 0.68872 0.65831 0.0
C180 C 0.83353 0.63631 0.66943 0.0
C181 C 0.70424 0.60254 0.65117 0.0
C182 C 0.76329 0.688 0.71551 0.0
C183 C 0.74109 0.69674 0.60947 0.0
C184 C 0.87506 0.73141 0.63051 0.0
C185 C 0.81068 0.78078 0.67141 0.0
O186 O 0.82145 0.63603 0.64904 0.0
O187 O 0.70085 0.63111 0.65905 0.0
O188 O 0.79943 0.70187 0.71072 0.0
O189 O 0.75929 0.6777 0.60786 0.0
O190 O 0.87621 0.73118 0.65238 0.0
O191 O 0.7741 0.75603 0.66923 0.0
O192 O 0.84397 0.70987 0.61897 0.0
O193 O 0.7331 0.70645 0.62873 0.0
O194 O 0.83659 0.77069 0.67497 0.0
O195 O 0.73518 0.60729 0.64087 0.0
O196 O 0.83519 0.66033 0.68482 0.0
O197 O 0.73756 0.68141 0.70025 0.0
H198 H 0.4509 0.54866 0.04418 0.0
H199 H 0.38124 0.52973 0.04784 0.0
H200 H 0.34804 0.42042 0.01272 0.0
H201 H 0.41766 0.43958 0.00892 0.0
H202 H 0.32314 0.4675 0.99094 0.0
H203 H 0.28252 0.44925 0.08375 0.0
H204 H 0.32768 0.49344 0.07684 0.0
H205 H 0.32423 0.44634 0.07286 0.0
C206 C 0.42852 0.51978 0.03834 0.0
C207 C 0.43929 0.49508 0.02678 0.0
C208 C 0.38879 0.50904 0.04032 0.0
C209 C 0.35943 0.47354 0.03067 0.0
C210 C 0.37019 0.44777 0.02044 0.0
H211 H 0.10693 0.38039 0.02777 0.0
H212 H 0.17352 0.39212 0.03399 0.0
C213 C 0.40986 0.4585 0.01848 0.0
C214 C 0.31863 0.46614 0.02801 0.0
H215 H 0.23784 0.45364 0.0577 0.0
C216 C 0.30439 0.46422 0.00555 0.0
C217 C 0.29429 0.4619 0.04707 0.0
C218 C 0.30771 0.46248 0.07151 0.0
C219 C 0.26658 0.45851 0.00159 0.0
C220 C 0.24254 0.45522 0.02063 0.0
C221 C 0.25652 0.4566 0.04313 0.0
C222 C 0.20233 0.44915 0.01743 0.0
C223 C 0.2525 0.45546 0.97704 0.0
C224 C 0.19645 0.47758 0.00624 0.0
C225 C 0.15832 0.47095 0.00251 0.0
C226 C 0.12533 0.43579 0.01003 0.0
C227 C 0.13152 0.40772 0.0216 0.0
C228 C 0.16961 0.4144 0.02529 0.0
H229 H 0.27048 0.44914 0.96478 0.0
H230 H 0.22121 0.432 0.97536 0.0
H231 H 0.25481 0.48384 0.97193 0.0
H232 H 0.22138 0.50492 0.00037 0.0
H233 H 0.15475 0.4934 0.99377 0.0
H234 H 0.42345 0.87932 0.03887 0.0
H235 H 0.4333 0.82252 0.04196 0.0
H236 H 0.55769 0.89833 0.02997 0.0
H237 H 0.54778 0.95523 0.02714 0.0
H238 H 0.46097 0.80495 0.00233 0.0
H239 H 0.55546 0.81855 0.07686 0.0
H240 H 0.52798 0.8443 0.0754 0.0
H241 H 0.57381 0.86283 0.06011 0.0
C242 C 0.45317 0.88406 0.03824 0.0
C243 C 0.48504 0.92154 0.03325 0.0
C244 C 0.45872 0.85161 0.03978 0.0
C245 C 0.49622 0.85619 0.03627 0.0
C246 C 0.52864 0.89422 0.03322 0.0
H247 H 0.60315 0.72272 0.99491 0.0
H248 H 0.58471 0.77126 0.00632 0.0
C249 C 0.52307 0.92676 0.03171 0.0
C250 C 0.50022 0.82121 0.03142 0.0
H251 H 0.55129 0.77515 0.04645 0.0
C252 C 0.48022 0.79797 0.01219 0.0
C253 C 0.52553 0.81244 0.04421 0.0
C254 C 0.54668 0.83561 0.06543 0.0
C255 C 0.48625 0.76732 0.00472 0.0
C256 C 0.51237 0.75912 0.01716 0.0
C257 C 0.53136 0.78154 0.03688 0.0
C258 C 0.52246 0.72921 0.00923 0.0
C259 C 0.46611 0.74536 0.98293 0.0
C260 C 0.49346 0.68941 0.0067 0.0
C261 C 0.50387 0.66156 -0.00025 0.0
C262 C 0.54355 0.67301 0.99567 0.0
C263 C 0.57234 0.71295 -0.00204 0.0
C264 C 0.56188 0.74072 0.0046 0.0
H265 H 0.45496 0.76154 0.9725 0.0
H266 H 0.48644 0.74016 0.97207 0.0
H267 H 0.44056 0.71635 0.98757 0.0
H268 H 0.46294 0.67972 0.01062 0.0
H269 H 0.48114 0.6309 -0.0015 0.0
H270 H 0.27267 0.88247 0.00435 0.0
H271 H 0.22139 0.8169 0.01598 0.0
H272 H 0.30273 0.77369 0.00821 0.0
H273 H 0.35433 0.83932 -0.00388 0.0
H274 H 0.23083 0.7247 0.98916 0.0
H275 H 0.21121 0.7647 0.07799 0.0
H276 H 0.20583 0.79422 0.05621 0.0
H277 H 0.25268 0.79693 0.06011 0.0
C278 C 0.27974 0.85905 0.00504 0.0
C279 C 0.3177 0.86621 -0.00064 0.0
C280 C 0.25044 0.82165 0.01193 0.0
C281 C 0.25854 0.79071 0.01359 0.0
C282 C 0.29602 0.79735 0.0073 0.0
H283 H 0.118 0.54248 0.04269 0.0
H284 H 0.17154 0.61095 0.04369 0.0
C285 C 0.32538 0.83479 0.00024 0.0
C286 C 0.22737 0.75106 0.02102 0.0
H287 H 0.16214 0.7012 0.06449 0.0
C288 C 0.2161 0.71952 0.00571 0.0
C289 C 0.20813 0.7444 0.04265 0.0
C290 C 0.22031 0.77678 0.06029 0.0
C291 C 0.18547 0.68167 0.01116 0.0
C292 C 0.16591 0.67512 0.03263 0.0
C293 C 0.17724 0.70648 0.04806 0.0
C294 C 0.13342 0.63556 0.03884 0.0
C295 C 0.17371 0.64903 0.99372 0.0
C296 C 0.09416 0.62707 0.03744 0.0
C297 C 0.06343 0.58789 0.03725 0.0
C298 C 0.0719 0.55711 0.03841 0.0
C299 C 0.11085 0.56587 0.0421 0.0
C300 C 0.14141 0.60488 0.04249 0.0
H301 H 0.18661 0.66049 0.97643 0.0
H302 H 0.18418 0.62889 -0.00038 0.0
H303 H 0.14116 0.63155 0.99203 0.0
H304 H 0.08756 0.65049 0.03455 0.0
H305 H 0.03367 0.58169 0.03389 0.0
H306 H 0.51516 0.15678 0.0101 0.0
H307 H 0.53016 0.22276 -0.00219 0.0
H308 H 0.4081 0.17754 0.98034 0.0
H309 H 0.39261 0.11221 0.99291 0.0
H310 H 0.5179 0.24675 0.95368 0.0
H311 H 0.4327 0.271 0.02196 0.0
H312 H 0.44542 0.23272 0.02386 0.0
H313 H 0.40479 0.22594 0.00619 0.0
C314 C 0.49141 0.16101 0.00399 0.0
C315 C 0.45262 0.12914 0.00272 0.0
C316 C 0.50009 0.19864 -0.0032 0.0
C317 C 0.47014 0.20503 0.98837 0.0
C318 C 0.43151 0.17339 0.98715 0.0
H319 H 0.46833 0.42037 0.95548 0.0
H320 H 0.45057 0.35095 0.95183 0.0
C321 C 0.42278 0.13596 0.99435 0.0
C322 C 0.47901 0.24464 0.98065 0.0
H323 H 0.45763 0.31744 0.9917 0.0
C324 C 0.50477 0.26228 0.96196 0.0
C325 C 0.46153 0.26461 0.99136 0.0
C326 C 0.43485 0.24782 0.01208 0.0
C327 C 0.51361 0.29955 0.95374 0.0
C328 C 0.49652 0.31972 0.96467 0.0
C329 C 0.47021 0.30167 0.98307 0.0
C330 C 0.50908 0.36143 0.95962 0.0
C331 C 0.54116 0.317 0.93348 0.0
C332 C 0.54818 0.3904 0.96401 0.0
C333 C 0.55823 0.42977 0.96603 0.0
C334 C 0.52938 0.44083 0.96367 0.0
C335 C 0.49116 0.41257 0.95695 0.0
C336 C 0.48099 0.37295 0.95507 0.0
H337 H 0.54066 0.29363 0.92236 0.0
H338 H 0.53348 0.33575 0.92282 0.0
H339 H 0.57168 0.33551 0.93994 0.0
H340 H 0.57017 0.38227 0.96807 0.0
H341 H 0.58779 0.4511 0.97153 0.0
H342 H 0.54302 0.11034 0.95853 0.0
H343 H 0.61035 0.16613 0.95708 0.0
H344 H 0.65498 0.08881 0.97501 0.0
H345 H 0.58762 0.03303 0.97627 0.0
H346 H 0.64937 0.18267 -0.00073 0.0
H347 H 0.7401 0.16786 0.93082 0.0
H348 H 0.68696 0.14318 0.92944 0.0
H349 H 0.71085 0.1236 0.94709 0.0
C350 C 0.56741 0.10495 0.9607 0.0
C351 C 0.56041 0.06743 0.96702 0.0
C352 C 0.60581 0.13686 0.96013 0.0
C353 C 0.63769 0.13164 0.9659 0.0
C354 C 0.63094 0.09343 0.97004 0.0
H355 H 0.87341 0.26737 0.01717 0.0
H356 H 0.80826 0.21739 0.00385 0.0
C357 C 0.59246 0.06148 0.97062 0.0
C358 C 0.67608 0.16621 0.9722 0.0
H359 H 0.77493 0.21134 0.96209 0.0
C360 C 0.67682 0.18938 0.99092 0.0
C361 C 0.71176 0.17451 0.96147 0.0
C362 C 0.71251 0.15121 0.94095 0.0
C363 C 0.71241 0.21969 -0.0002 0.0
C364 C 0.74826 0.2277 0.98929 0.0
C365 C 0.74744 0.20513 0.97018 0.0
C366 C 0.78703 0.25824 -0.0016 0.0
C367 C 0.71127 0.24155 0.02098 0.0
C368 C 0.79662 0.29783 0.0001 0.0
C369 C 0.8337 0.32645 0.00813 0.0
C370 C 0.8621 0.31607 0.01417 0.0
C371 C 0.85219 0.27633 0.01269 0.0
C372 C 0.81503 0.24774 0.00495 0.0
H373 H 0.68291 0.22496 0.03042 0.0
H374 H 0.73563 0.24734 0.033 0.0
H375 H 0.71454 0.27025 0.0157 0.0
H376 H 0.77582 0.30679 0.99468 0.0
H377 H 0.84066 0.3569 0.00865 0.0
H378 H 0.97454 0.54425 0.96717 0.0
H379 H 0.92807 0.56863 0.96207 0.0
H380 H 0.83075 0.45053 0.97098 0.0
H381 H 0.87681 0.42629 0.97563 0.0
H382 H 0.81241 0.49506 0.94158 0.0
H383 H 0.88005 0.574 0.0237 0.0
H384 H 0.91238 0.58725 -0.00077 0.0
H385 H 0.89159 0.53871 0.01136 0.0
C386 C 0.94322 0.52337 0.96678 0.0
C387 C 0.92908 0.48348 0.97176 0.0
C388 C 0.91672 0.53734 0.96424 0.0
C389 C 0.87601 0.51151 0.96682 0.0
C390 C 0.86199 0.47102 0.96906 0.0
H391 H 0.65866 0.49554 0.00712 0.0
H392 H 0.71317 0.48573 0.99531 0.0
C393 C 0.88832 0.45715 0.9716 0.0
C394 C 0.84825 0.52629 0.97086 0.0
H395 H 0.82292 0.57325 0.01135 0.0
C396 C 0.81499 0.51267 0.95663 0.0
C397 C 0.85145 0.54891 0.99069 0.0
C398 C 0.88557 0.5629 0.00728 0.0
C399 C 0.78445 0.52031 0.96197 0.0
C400 C 0.78708 0.54167 0.98222 0.0
C401 C 0.82101 0.5567 -0.00409 0.0
C402 C 0.7544 0.54767 0.98995 0.0
C403 C 0.7494 0.50511 0.94607 0.0
C404 C 0.76007 0.58582 0.99173 0.0
C405 C 0.72913 0.59158 -0.00137 0.0
C406 C 0.69197 0.55925 0.00411 0.0
C407 C 0.68687 0.5211 0.00312 0.0
C408 C 0.71783 0.51539 -0.0039 0.0
H409 H 0.75633 0.49853 0.9286 0.0
H410 H 0.72491 0.47746 0.95329 0.0
H411 H 0.73907 0.52674 0.94444 0.0
H412 H 0.78823 0.61113 0.98733 0.0
H413 H 0.73419 0.62138 -0.00075 0.0
H414 H 0.7683 0.77294 0.32373 0.0
H415 H 0.83252 0.784 0.33548 0.0
H416 H 0.87572 0.90883 0.34035 0.0
H417 H 0.81074 0.89799 0.32842 0.0
H418 H 0.92793 0.88843 0.31819 0.0
H419 H 0.87667 0.81068 0.40137 0.0
H420 H 0.84528 0.78166 0.37819 0.0
H421 H 0.84886 0.82812 0.3853 0.0
C422 C 0.79136 0.80285 0.32721 0.0
C423 C 0.78426 0.83455 0.32533 0.0
C424 C 0.828 0.80906 0.33412 0.0
C425 C 0.85842 0.84703 0.33951 0.0
C426 C 0.85231 0.87919 0.33664 0.0
H427 H 0.0756 0.84522 0.38189 0.0
H428 H 0.02422 0.86377 0.38497 0.0
C429 C 0.81535 0.87299 0.32964 0.0
C430 C 0.89665 0.85216 0.34734 0.0
H431 H 0.93344 0.81033 0.38405 0.0
C432 C 0.92961 0.87243 0.333 0.0
C433 C 0.89911 0.83196 0.36696 0.0
C434 C 0.86566 0.81226 0.38397 0.0
C435 C 0.96347 0.86944 0.33641 0.0
C436 C 0.96392 0.84521 0.35434 0.0
C437 C 0.93269 0.82838 0.3701 0.0
C438 C 0.99306 0.83179 0.35439 0.0
C439 C -0.00236 0.89015 0.31995 0.0
C440 C 0.99118 0.80629 0.33686 0.0
C441 C 0.01989 0.79539 0.33521 0.0
C442 C 0.05111 0.80975 0.35109 0.0
C443 C 0.05166 0.8334 0.36954 0.0
C444 C 0.02266 0.84434 0.3712 0.0
H445 H -0.00242 0.91549 0.31139 0.0
H446 H 0.0261 0.90086 0.32908 0.0
H447 H 0.99542 0.86914 0.30637 0.0
H448 H 0.96806 0.79574 0.324 0.0
H449 H 0.01851 0.77698 0.32086 0.0
H450 H 0.14125 0.23084 0.38354 0.0
H451 H 0.12826 0.16258 0.38553 0.0
H452 H 0.22714 0.19328 0.34051 0.0
H453 H 0.23949 0.26084 0.33808 0.0
H454 H 0.1139 0.11677 0.34143 0.0
H455 H 0.23593 0.12498 0.394 0.0
H456 H 0.21894 0.16007 0.39677 0.0
H457 H 0.25089 0.16414 0.37337 0.0
C458 C 0.16109 0.22324 0.37489 0.0
C459 C 0.19178 0.25104 0.36098 0.0
C460 C 0.1534 0.18427 0.37582 0.0
C461 C 0.17689 0.17306 0.36326 0.0
C462 C 0.209 0.2015 0.35056 0.0
H463 H 0.21483 -0.00086 0.30903 0.0
H464 H 0.20933 0.05583 0.32105 0.0
C465 C 0.21618 0.24007 0.34927 0.0
C466 C 0.16602 0.1312 0.36105 0.0
H467 H 0.20467 0.07084 0.36761 0.0
C468 C 0.13308 0.10617 0.34759 0.0
C469 C 0.19113 0.11769 0.36914 0.0
C470 C 0.22605 0.14296 0.38431 0.0
C471 C 0.1264 0.06898 0.34048 0.0
C472 C 0.15314 0.05658 0.34733 0.0
C473 C 0.1844 0.08056 0.36217 0.0
C474 C 0.15241 0.02134 0.33735 0.0
C475 C 0.0925 0.04442 0.32449 0.0
C476 C 0.12137 0.98295 0.34167 0.0
C477 C 0.12421 0.95025 0.3344 0.0
C478 C 0.15836 0.95575 0.32308 0.0
C479 C 0.18824 0.99412 0.31776 0.0
C480 C 0.18521 0.02651 0.32473 0.0
H481 H 0.07797 0.06079 0.31816 0.0
H482 H 0.10279 0.03449 0.30941 0.0
H483 H 0.07021 0.0178 0.33377 0.0
H484 H 0.09597 0.97827 0.3516 0.0
H485 H 0.10105 0.92092 0.33901 0.0
H486 H 0.99497 0.24027 0.34529 0.0
H487 H 0.93854 0.17655 0.35449 0.0
H488 H 0.01094 0.12249 0.34928 0.0
H489 H 0.06802 0.18663 0.33952 0.0
H490 H 0.94305 0.08071 0.32684 0.0
H491 H 0.9092 0.11433 0.41333 0.0
H492 H 0.91288 0.15064 0.39316 0.0
H493 H 0.95548 0.14581 0.39904 0.0
C494 C -0.00086 0.21497 0.34621 0.0
C495 C 0.03609 0.21861 0.3417 0.0
C496 C 0.96684 0.17855 0.35175 0.0
C497 C 0.97074 0.14494 0.3533 0.0
C498 C 0.00743 0.1482 0.34852 0.0
H499 H 0.75158 0.92056 0.38354 0.0
H500 H 0.81905 0.97551 0.38938 0.0
C501 C 0.03991 0.18478 0.34279 0.0
C502 C 0.93541 0.10621 0.35801 0.0
H503 H 0.85322 0.06263 0.39203 0.0
C504 C 0.92391 0.07639 0.34142 0.0
C505 C 0.91072 0.10005 0.3773 0.0
C506 C 0.923 0.12931 0.39683 0.0
C507 C 0.88688 0.0422 0.34251 0.0
C508 C 0.86051 0.03824 0.36036 0.0
C509 C 0.87324 0.06625 0.37808 0.0
C510 C 0.8185 0.00765 0.35919 0.0
C511 C 0.87557 0.01129 0.324 0.0
C512 C 0.79552 0.00882 0.34104 0.0
C513 C 0.75732 0.97789 0.33774 0.0
C514 C 0.74122 0.94527 0.35264 0.0
C515 C 0.76317 0.9455 0.3719 0.0
C516 C 0.80173 0.97662 0.37515 0.0
H517 H 0.90197 0.01279 0.31585 0.0
H518 H 0.85674 0.98125 0.33113 0.0
H519 H 0.85869 0.01625 0.31034 0.0
H520 H 0.80777 0.03299 0.32884 0.0
H521 H 0.74101 0.97866 0.32285 0.0
H522 H 0.20319 0.76418 0.28356 0.0
H523 H 0.22378 0.71428 0.28176 0.0
H524 H 0.1184 0.63254 0.31833 0.0
H525 H 0.09815 0.68211 0.32043 0.0
H526 H 0.23582 0.68128 0.32368 0.0
H527 H 0.12722 0.56504 0.26632 0.0
H528 H 0.13752 0.61544 0.2652 0.0
H529 H 0.10441 0.58209 0.28663 0.0
C530 C 0.18373 0.735 0.29035 0.0
C531 C 0.14888 0.72679 0.30195 0.0
C532 C 0.1957 0.70671 0.28951 0.0
C533 C 0.17246 0.66963 0.29975 0.0
C534 C 0.13649 0.66072 0.31 0.0
H535 H 0.1451 0.47594 0.36616 0.0
H536 H 0.15404 0.53791 0.35102 0.0
C537 C 0.1249 0.68904 0.31118 0.0
C538 C 0.187 0.6414 0.30238 0.0
H539 H 0.15566 0.54358 0.29622 0.0
C540 C 0.21919 0.65146 0.31707 0.0
C541 C 0.16538 0.60261 0.29368 0.0
C542 C 0.13194 0.59072 0.27689 0.0
C543 C 0.2279 0.62269 0.32497 0.0
C544 C 0.20383 0.58321 0.31795 0.0
C545 C 0.1739 0.57392 0.30171 0.0
C546 C 0.20443 0.55017 0.32993 0.0
C547 C 0.26071 0.63384 0.34209 0.0
C548 C 0.23096 0.53743 0.32378 0.0
C549 C 0.22614 0.50193 0.33266 0.0
C550 C 0.19438 0.47867 0.34748 0.0
C551 C 0.16969 0.49308 0.3547 0.0
C552 C 0.17471 0.52846 0.34604 0.0
H553 H 0.27855 0.66622 0.34461 0.0
H554 H 0.2481 0.61975 0.35897 0.0
H555 H 0.28032 0.62271 0.33614 0.0
H556 H 0.25401 0.55381 0.31128 0.0
H557 H 0.24543 0.49138 0.32669 0.0
H558 H 0.23271 0.43668 0.28447 0.0
H559 H 0.28579 0.50478 0.27846 0.0
H560 H 0.36721 0.47784 0.31277 0.0
H561 H 0.3146 0.41033 0.3188 0.0
H562 H 0.32191 0.55187 0.31644 0.0
H563 H 0.4347 0.54886 0.26088 0.0
H564 H 0.38421 0.50908 0.26136 0.0
H565 H 0.41883 0.51162 0.28271 0.0
C566 C 0.26238 0.44491 0.2897 0.0
C567 C 0.26973 0.41832 0.302 0.0
C568 C 0.29256 0.48386 0.28644 0.0
C569 C 0.33051 0.49629 0.29499 0.0
C570 C 0.3384 0.46876 0.30559 0.0
H571 H 0.53059 0.66841 0.35751 0.0
H572 H 0.46941 0.61257 0.34329 0.0
C573 C 0.30829 0.43017 0.30909 0.0
C574 C 0.36037 0.53863 0.29651 0.0
H575 H 0.45915 0.60052 0.29035 0.0
C576 C 0.35167 0.56307 0.3101 0.0
C577 C 0.3991 0.5532 0.28818 0.0
C578 C 0.40962 0.52937 0.27226 0.0
C579 C 0.38156 0.60035 0.31733 0.0
C580 C 0.42081 0.61317 0.31076 0.0
C581 C 0.42897 0.59019 0.29562 0.0
C582 C 0.45439 0.64786 0.32145 0.0
C583 C 0.37164 0.62464 0.33324 0.0
C584 C 0.46538 0.68617 0.31433 0.0
C585 C 0.50005 0.7183 0.32279 0.0
C586 C 0.52433 0.71222 0.33809 0.0
C587 C 0.51225 0.67391 0.34585 0.0
C588 C 0.4775 0.64203 0.33767 0.0
H589 H 0.33962 0.6101 0.33706 0.0
H590 H 0.38796 0.62992 0.34973 0.0
H591 H 0.38108 0.65378 0.32528 0.0
H592 H 0.44814 0.6909 0.30148 0.0
H593 H 0.50925 0.74745 0.31615 0.0
H594 H 0.32815 0.87752 0.35236 0.0
H595 H 0.38156 0.86993 0.33655 0.0
H596 H 0.29796 0.75364 0.31215 0.0
H597 H 0.24375 0.76091 0.32822 0.0
H598 H 0.37276 0.76527 0.33328 0.0
H599 H 0.39627 0.87271 0.26446 0.0
H600 H 0.39247 0.88947 0.29269 0.0
H601 H 0.35076 0.84679 0.28053 0.0
C602 C 0.32103 0.84999 0.34402 0.0
C603 C 0.28169 0.82006 0.34118 0.0
C604 C 0.35157 0.84584 0.33484 0.0
C605 C 0.34347 0.81182 0.32256 0.0
C606 C 0.30459 0.78042 0.32126 0.0
H607 H 0.55211 0.79804 0.27832 0.0
H608 H 0.48293 0.78149 0.27517 0.0
C609 C 0.27376 0.7845 0.33058 0.0
C610 C 0.37621 0.81047 0.3108 0.0
H611 H 0.45212 0.86484 0.27384 0.0
C612 C 0.38961 0.78612 0.31979 0.0
C613 C 0.39775 0.8375 0.29304 0.0
C614 C 0.38338 0.86285 0.28193 0.0
C615 C 0.42612 0.79081 0.31302 0.0
C616 C 0.44931 0.82023 0.29668 0.0
C617 C 0.43429 0.84232 0.28634 0.0
C618 C 0.49154 0.83327 0.29357 0.0
C619 C 0.44091 0.76622 0.32455 0.0
C620 C 0.5194 0.86883 0.30378 0.0
C621 C 0.55858 0.8782 0.30564 0.0
C622 C 0.57067 0.85242 0.29703 0.0
C623 C 0.5436 0.81868 0.28479 0.0
C624 C 0.50406 0.80898 0.28321 0.0
H625 H 0.42061 0.74674 0.3382 0.0
H626 H 0.444 0.74756 0.31132 0.0
H627 H 0.47037 0.7854 0.33229 0.0
H628 H 0.51028 0.88798 0.31184 0.0
H629 H 0.57887 0.90428 0.31523 0.0
H630 H 0.75315 0.12718 0.70126 0.0
H631 H 0.68302 0.10824 0.70322 0.0
H632 H 0.70878 0.21489 0.66733 0.0
H633 H 0.7781 0.23387 0.66546 0.0
H634 H 0.65344 0.1942 0.70419 0.0
H635 H 0.61648 0.07081 0.64289 0.0
H636 H 0.64155 0.07192 0.66912 0.0
H637 H 0.66654 0.10946 0.64775 0.0
C638 C 0.74383 0.14688 0.69431 0.0
C639 C 0.77086 0.18171 0.68297 0.0
C640 C 0.70385 0.13594 0.69526 0.0
C641 C 0.69074 0.15991 0.68505 0.0
C642 C 0.71824 0.19589 0.67519 0.0
H643 H 0.48903 0.17268 0.64065 0.0
H644 H 0.55422 0.18312 0.65065 0.0
C645 C 0.75782 0.20661 0.67408 0.0
C646 C 0.64836 0.14695 0.68279 0.0
H647 H 0.56642 0.08489 0.65179 0.0
C648 C 0.63418 0.16995 0.69301 0.0
C649 C 0.62345 0.11544 0.66808 0.0
C650 C 0.63761 0.09049 0.65615 0.0
C651 C 0.59598 0.16283 0.68849 0.0
C652 C 0.5717 0.13243 0.67298 0.0
C653 C 0.58529 0.1084 0.66351 0.0
C654 C 0.53239 0.12557 0.66601 0.0
C655 C 0.58206 0.18807 0.70027 0.0
C656 C 0.4987 0.08918 0.67043 0.0
C657 C 0.46147 0.08294 0.66453 0.0
C658 C 0.45715 0.11295 0.65395 0.0
C659 C 0.49118 0.14894 0.64878 0.0
C660 C 0.52845 0.15512 0.65472 0.0
H661 H 0.59926 0.20201 0.71617 0.0
H662 H 0.58595 0.21193 0.68838 0.0
H663 H 0.55038 0.17051 0.7049 0.0
H664 H 0.50115 0.06586 0.67891 0.0
H665 H 0.43601 0.05478 0.66871 0.0
H666 H 0.8558 0.33443 0.64646 0.0
H667 H 0.84656 0.39067 0.65425 0.0
H668 H 0.94256 0.43637 0.70287 0.0
H669 H 0.95258 0.38081 0.69498 0.0
H670 H 0.83058 0.41741 0.69597 0.0
H671 H 0.97438 0.5282 0.65814 0.0
H672 H 0.95363 0.47599 0.65362 0.0
H673 H 0.97683 0.49789 0.68058 0.0
C674 C 0.87505 0.35646 0.65876 0.0
C675 C 0.90526 0.35325 0.66986 0.0
C676 C 0.8696 0.38849 0.66327 0.0
C677 C 0.89418 0.41788 0.67893 0.0
C678 C 0.92373 0.41437 0.69042 0.0
H679 H 0.84322 0.61004 0.71191 0.0
H680 H 0.86087 0.55869 0.71897 0.0
C681 C 0.92935 0.3825 0.68587 0.0
C682 C 0.8894 0.45267 0.68268 0.0
H683 H 0.93405 0.55164 0.67291 0.0
C684 C 0.85334 0.44688 0.69123 0.0
C685 C 0.91923 0.49103 0.67646 0.0
C686 C 0.95812 0.49883 0.66652 0.0
C687 C 0.84577 0.47828 0.6929 0.0
C688 C 0.87519 0.51636 0.68604 0.0
C689 C 0.9118 0.52241 0.67841 0.0
C690 C 0.86634 0.54858 0.68277 0.0
C691 C 0.80568 0.47022 0.70072 0.0
C692 C 0.86438 0.56019 0.66022 0.0
C693 C 0.8544 0.58908 0.65618 0.0
C694 C 0.84626 0.60733 0.67463 0.0
C695 C 0.84927 0.59649 0.69736 0.0
C696 C 0.85913 0.56711 0.7014 0.0
H697 H 0.78504 0.43835 0.70364 0.0
H698 H 0.80864 0.48622 0.71707 0.0
H699 H 0.79272 0.48117 0.68766 0.0
H700 H 0.86991 0.5463 0.64563 0.0
H701 H 0.85284 0.5969 0.63845 0.0
H702 H 0.69809 0.53202 0.63829 0.0
H703 H 0.6444 0.46561 0.64724 0.0
H704 H 0.58287 0.51493 0.68348 0.0
H705 H 0.63562 0.58107 0.67437 0.0
H706 H 0.61588 0.43168 0.69085 0.0
H707 H 0.49911 0.43719 0.63939 0.0
H708 H 0.55072 0.47255 0.63576 0.0
H709 H 0.52377 0.47679 0.65965 0.0
C710 C 0.67296 0.52878 0.64795 0.0
C711 C 0.67116 0.56203 0.65542 0.0
C712 C 0.6424 0.4908 0.65314 0.0
C713 C 0.60945 0.48538 0.66578 0.0
C714 C 0.60762 0.51841 0.67331 0.0
H715 H 0.39187 0.26526 0.69882 0.0
H716 H 0.44537 0.33413 0.70243 0.0
C717 C 0.63799 0.55629 0.6681 0.0
C718 C 0.57725 0.44518 0.67143 0.0
H719 H 0.47943 0.381 0.66265 0.0
C720 C 0.58602 0.42061 0.68474 0.0
C721 C 0.53822 0.43097 0.66366 0.0
C722 C 0.52731 0.45556 0.64866 0.0
C723 C 0.55688 0.38196 0.69019 0.0
C724 C 0.51813 0.36743 0.68189 0.0
C725 C 0.50909 0.39238 0.6692 0.0
C726 C 0.48789 0.32519 0.68343 0.0
C727 C 0.56788 0.35688 0.70462 0.0
C728 C 0.49439 0.29746 0.67194 0.0
C729 C 0.46409 0.25863 0.66975 0.0
C730 C 0.42663 0.24664 0.67904 0.0
C731 C 0.4206 0.27375 0.69171 0.0
C732 C 0.45101 0.31299 0.69367 0.0
H733 H 0.59392 0.37528 0.71564 0.0
H734 H 0.54302 0.3364 0.71582 0.0
H735 H 0.57555 0.33912 0.69305 0.0
H736 H 0.5223 0.30631 0.66354 0.0
H737 H 0.46953 0.23825 0.65993 0.0
H738 H 0.76595 0.8162 0.67248 0.0
H739 H 0.78296 0.88067 0.6571 0.0
H740 H 0.90062 0.90426 0.64233 0.0
H741 H 0.88392 0.83944 0.65785 0.0
H742 H 0.89681 0.96856 0.66171 0.0
H743 H 0.79526 0.90555 0.58763 0.0
H744 H 0.77139 0.88526 0.61467 0.0
H745 H 0.81032 0.87699 0.60492 0.0
C746 C 0.79564 0.83521 0.66625 0.0
C747 C 0.8235 0.82253 0.66631 0.0
C748 C 0.80518 0.8719 0.65724 0.0
C749 C 0.84265 0.89664 0.64791 0.0
C750 C 0.87136 0.88525 0.64915 0.0
H751 H 0.91708 0.14136 0.61058 0.0
H752 H 0.91669 0.07894 0.60555 0.0
C753 C 0.86186 0.84841 0.65824 0.0
C754 C 0.85133 0.93442 0.63712 0.0
H755 H 0.81503 0.97277 0.59761 0.0
C756 C 0.87969 0.96969 0.64734 0.0
C757 C 0.82919 0.93568 0.61818 0.0
C758 C 0.80013 0.89884 0.60555 0.0
C759 C 0.88415 0.00605 0.64041 0.0
C760 C 0.85999 0.00705 0.62252 0.0
C761 C 0.83351 0.97197 0.61128 0.0
C762 C 0.85715 0.04284 0.61819 0.0
C763 C 0.91265 0.04273 0.65345 0.0
C764 C 0.8227 0.04277 0.62491 0.0
C765 C 0.82275 0.07819 0.62747 0.0
C766 C 0.85711 0.11413 0.62312 0.0
C767 C 0.88998 0.11393 0.61357 0.0
C768 C 0.88999 0.07835 0.61109 0.0
H769 H 0.92521 0.036 0.6688 0.0
H770 H 0.93734 0.06225 0.6419 0.0
H771 H 0.89789 0.05919 0.65922 0.0
H772 H 0.79699 0.0157 0.63039 0.0
H773 H 0.79735 0.07775 0.63525 0.0
H774 H 0.94746 0.73968 0.63216 0.0
H775 H 0.00879 0.80248 0.62925 0.0
H776 H 0.94467 0.85751 0.60346 0.0
H777 H 0.88295 0.79429 0.60642 0.0
H778 H 0.05188 0.86478 0.5967 0.0
H779 H 0.98422 0.90713 0.6679 0.0
H780 H 0.96269 0.85692 0.65801 0.0
H781 H 0.95894 0.89284 0.64068 0.0
C782 C 0.94679 0.76469 0.62468 0.0
C783 C 0.91074 0.76224 0.61931 0.0
C784 C 0.98176 0.80065 0.6232 0.0
C785 C 0.98111 0.83477 0.61663 0.0
C786 C 0.94567 0.83155 0.60883 0.0
H787 H 0.18486 0.06311 0.65904 0.0
H788 H 0.11969 0.0167 0.64306 0.0
C789 C 0.91056 0.79534 0.61016 0.0
C790 C 0.01616 0.87354 0.62159 0.0
H791 H 0.05211 0.94654 0.66226 0.0
C792 C 0.0518 0.88321 0.61066 0.0
C793 C 0.01597 0.89756 0.63986 0.0
C794 C 0.97856 0.88822 0.65246 0.0
C795 C 0.08754 0.91497 0.61831 0.0
C796 C 0.08764 0.93705 0.63767 0.0
C797 C 0.05182 0.92927 0.64755 0.0
C798 C 0.1248 0.96507 0.64937 0.0
C799 C 0.12515 0.92373 0.60617 0.0
C800 C 0.148 0.951 0.65931 0.0
C801 C 0.18475 0.97712 0.6686 0.0
C802 C 0.19904 0.01793 0.66825 0.0
C803 C 0.17454 0.03182 0.65974 0.0
C804 C 0.13756 0.00548 0.65039 0.0
H805 H 0.11943 0.91272 0.58811 0.0
H806 H 0.14652 0.95585 0.606 0.0
H807 H 0.13883 0.90878 0.61541 0.0
H808 H 0.13816 0.91978 0.65922 0.0
H809 H 0.20271 0.96541 0.67518 0.0
H810 H 0.28814 0.22694 0.64081 0.0
H811 H 0.22598 0.22693 0.63803 0.0
H812 H 0.17368 0.11534 0.60252 0.0
H813 H 0.23624 0.11532 0.60537 0.0
H814 H 0.16738 0.21622 0.60442 0.0
H815 H 0.11679 0.09022 0.66569 0.0
H816 H 0.16814 0.12118 0.65853 0.0
H817 H 0.13495 0.08622 0.6379 0.0
C818 C 0.26401 0.20348 0.63131 0.0
C819 C 0.26692 0.17129 0.62317 0.0
C820 C 0.22838 0.20329 0.62989 0.0
C821 C 0.19501 0.17069 0.62056 0.0
C822 C 0.19901 0.14053 0.61006 0.0
H823 H 0.96126 0.13509 0.66101 0.0
H824 H 0.01025 0.12106 0.64367 0.0
C825 C 0.2349 0.14084 0.61135 0.0
C826 C 0.15579 0.1662 0.62534 0.0
H827 H 0.07802 0.11996 0.66253 0.0
C828 C 0.14736 0.19461 0.61671 0.0
C829 C 0.12969 0.13798 0.64144 0.0
C830 C 0.13768 0.10719 0.65161 0.0
C831 C 0.11461 0.19679 0.62461 0.0
C832 C 0.09021 0.17037 0.64192 0.0
C833 C 0.09701 0.14028 0.64939 0.0
C834 C 0.0604 0.1764 0.65414 0.0
C835 C 0.10715 0.22821 0.61492 0.0
C836 C 0.07259 0.21109 0.66679 0.0
C837 C 0.04493 0.21901 0.67683 0.0
C838 C 0.0044 0.19223 0.67456 0.0
C839 C 0.99226 0.15614 0.66324 0.0
C840 C 0.02014 0.14827 0.65312 0.0
H841 H 0.12018 0.23756 0.59744 0.0
H842 H 0.07511 0.21774 0.61393 0.0
H843 H 0.12099 0.25443 0.62635 0.0
H844 H 0.1036 0.23268 0.66832 0.0
H845 H 0.05529 0.24692 0.68557 0.0
H846 H 0.10886 0.32224 0.25041 0.0
H847 H 0.08801 0.33674 0.21408 0.0
H848 H 0.04871 0.40766 0.24962 0.0
H849 H 0.06953 0.3932 0.28657 0.0
H850 H 0.99381 0.35005 0.216 0.0
H851 H 0.14367 0.44503 0.18053 0.0
H852 H 0.1362 0.39936 0.19222 0.0
H853 H 0.13429 0.43494 0.211 0.0
C854 C 0.09586 0.341 0.25068 0.0
C855 C 0.091 0.35668 0.27147 0.0
C856 C 0.08415 0.34938 0.22982 0.0
C857 C 0.06746 0.3737 0.22922 0.0
C858 C 0.06188 0.38905 0.24984 0.0
H859 H 0.97502 0.42626 0.10514 0.0
H860 H 0.99205 0.42307 0.14525 0.0
C861 C 0.07378 0.38077 0.27087 0.0
C862 C 0.05523 0.38191 0.20685 0.0
H863 H 0.09073 0.41799 0.15325 0.0
C864 C 0.01489 0.36551 0.20234 0.0
C865 C 0.08299 0.40208 0.18919 0.0
C866 C 0.12675 0.4217 0.19349 0.0
C867 C 0.00145 0.36692 0.18013 0.0
C868 C 0.02922 0.38555 0.16224 0.0
C869 C 0.06958 0.40336 0.16702 0.0
C870 C 0.01712 0.38592 0.1382 0.0
C871 C 0.95773 0.347 0.17568 0.0
C872 C 0.0259 0.36625 0.12101 0.0
C873 C 0.01635 0.36804 0.09802 0.0
C874 C -0.00189 0.38983 0.09184 0.0
C875 C 0.98901 0.40915 0.10925 0.0
C876 C -0.00149 0.40725 0.13222 0.0
H877 H 0.94029 0.32783 0.19027 0.0
H878 H 0.94909 0.36975 0.17316 0.0
H879 H 0.94999 0.32893 0.15972 0.0
H880 H 0.04044 0.34976 0.1254 0.0
H881 H 0.02388 0.35292 0.08509 0.0
H882 H 0.60752 0.68785 0.27143 0.0
H883 H 0.5943 0.65466 0.23393 0.0
H884 H 0.66191 0.76698 0.20012 0.0
H885 H 0.67497 0.80039 0.23718 0.0
H886 H 0.58761 0.71598 0.17956 0.0
H887 H 0.6764 0.64285 0.1947 0.0
H888 H 0.63977 0.63468 0.21607 0.0
H889 H 0.68144 0.68311 0.21234 0.0
C890 C 0.61961 0.70548 0.25602 0.0
C891 C 0.64249 0.74678 0.25735 0.0
C892 C 0.61213 0.68645 0.23465 0.0
C893 C 0.62753 0.70845 0.21438 0.0
C894 C 0.64987 0.74956 0.21563 0.0
H895 H 0.63996 0.67855 0.06842 0.0
H896 H 0.64335 0.70261 0.10775 0.0
C897 C 0.65736 0.76856 0.23687 0.0
C898 C 0.6206 0.68906 0.19168 0.0
H899 H 0.64453 0.63181 0.15877 0.0
C900 C 0.59983 0.69738 0.17501 0.0
C901 C 0.6366 0.66484 0.18593 0.0
C902 C 0.66006 0.65593 0.20308 0.0
C903 C 0.59496 0.68238 0.15255 0.0
C904 C 0.61192 0.65908 0.14662 0.0
C905 C 0.63178 0.64988 0.16344 0.0
C906 C 0.61004 0.64456 0.12289 0.0
C907 C 0.57162 0.69148 0.13541 0.0
C908 C 0.59112 0.60401 0.11857 0.0
C909 C 0.58934 0.59014 0.09619 0.0
C910 C 0.60669 0.61663 0.07771 0.0
C911 C 0.62619 0.65733 0.0822 0.0
C912 C 0.62792 0.67115 0.10463 0.0
H913 H 0.55205 0.70045 0.14416 0.0
H914 H 0.59223 0.71617 0.1242 0.0
H915 H 0.55336 0.66562 0.12425 0.0
H916 H 0.57739 0.5831 0.13251 0.0
H917 H 0.57414 0.5586 0.0934 0.0
H918 H 0.44006 0.0158 0.09555 0.0
H919 H 0.4149 -0.00012 0.13489 0.0
H920 H 0.2961 0.95039 0.10953 0.0
H921 H 0.32087 0.96646 0.06996 0.0
H922 H 0.31538 0.00272 0.14807 0.0
H923 H 0.35684 0.88768 0.16251 0.0
H924 H 0.39575 0.93447 0.15253 0.0
H925 H 0.35445 0.90521 0.13409 0.0
C926 C 0.40854 0.00155 0.09824 0.0
C927 C 0.38245 0.99225 0.07953 0.0
C928 C 0.39427 0.99231 0.12076 0.0
C929 C 0.3537 0.97344 0.12499 0.0
C930 C 0.32755 0.96478 0.1065 0.0
H931 H 0.19446 0.88209 0.2383 0.0
H932 H 0.22823 0.90482 0.20152 0.0
C933 C 0.34178 0.974 0.08393 0.0
C934 C 0.3385 0.96309 0.14876 0.0
H935 H 0.32993 0.90409 0.19428 0.0
C936 C 0.31857 0.98121 0.15821 0.0
C937 C 0.3431 0.93526 0.16191 0.0
C938 C 0.36342 0.91423 0.15226 0.0
C939 C 0.30279 0.972 0.18053 0.0
C940 C 0.30654 0.94347 0.19347 0.0
C941 C 0.32726 0.92601 0.18424 0.0
C942 C 0.28671 0.9294 0.21594 0.0
C943 C 0.28224 0.99286 0.19008 0.0
C944 C 0.30851 0.93467 0.23614 0.0
C945 C 0.28926 0.92152 0.25735 0.0
C946 C 0.24791 0.90266 0.25857 0.0
C947 C 0.22632 0.89673 0.23811 0.0
C948 C 0.24554 0.90989 0.21703 0.0
H949 H 0.29146 0.02109 0.18096 0.0
H950 H 0.24998 0.97382 0.18779 0.0
H951 H 0.28831 -0.00102 0.20879 0.0
H952 H 0.34037 0.94937 0.23551 0.0
H953 H 0.30674 0.92635 0.27275 0.0
H954 H 0.35578 0.03781 0.93589 0.0
H955 H 0.34573 0.05563 0.89707 0.0
H956 H 0.39913 0.99217 0.86785 0.0
H957 H 0.4099 0.97472 0.90644 0.0
H958 H 0.42883 0.06726 0.8499 0.0
H959 H 0.26511 0.98521 0.84884 0.0
H960 H 0.28683 0.01831 0.87277 0.0
H961 H 0.29333 0.97619 0.87011 0.0
C962 C 0.36507 0.02733 0.92121 0.0
C963 C 0.38358 0.00476 0.92429 0.0
C964 C 0.35917 0.03744 0.89905 0.0
C965 C 0.37128 0.0248 0.87964 0.0
C966 C 0.38951 0.00212 0.88264 0.0
H967 H 0.36613 0.04072 0.73186 0.0
H968 H 0.37641 0.02881 0.77194 0.0
C969 C 0.39559 0.99216 0.90473 0.0
C970 C 0.36627 0.03619 0.85614 0.0
H971 H 0.29718 0.0262 0.81676 0.0
C972 C 0.40006 0.0583 0.84264 0.0
C973 C 0.32868 0.02449 0.84681 0.0
C974 C 0.29135 -0.00055 0.86026 0.0
C975 C 0.39726 0.06902 0.81996 0.0
C976 C 0.35969 0.05693 0.81056 0.0
C977 C 0.32592 0.0354 0.82414 0.0
C978 C 0.35468 0.0653 0.78638 0.0
C979 C 0.43447 0.09337 0.80626 0.0
C980 C 0.33868 0.08941 0.78136 0.0
C981 C 0.33272 0.0963 0.75849 0.0
C982 C 0.3423 0.0788 0.74026 0.0
C983 C 0.35845 0.05469 0.74544 0.0
C984 C 0.36454 0.04799 0.76832 0.0
H985 H 0.46082 0.10801 0.81757 0.0
H986 H 0.43873 0.07393 0.79408 0.0
H987 H 0.43242 0.11621 0.79601 0.0
H988 H 0.33074 0.10283 0.79516 0.0
H989 H 0.32011 0.11492 0.75515 0.0
H990 H 0.95434 0.30077 0.95059 0.0
H991 H 0.93993 0.26916 0.9125 0.0
H992 H 0.00416 0.38309 0.88008 0.0
H993 H 0.01873 0.41489 0.91772 0.0
H994 H 0.90091 0.28602 0.87355 0.0
H995 H 0.05209 0.31639 0.85356 0.0
H996 H 0.03543 0.31643 0.88265 0.0
H997 H 0.04958 0.3582 0.86417 0.0
C998 C 0.96558 0.31906 0.93535 0.0
C999 C 0.9878 0.36036 0.93721 0.0
C1000 C 0.95724 0.30095 0.91367 0.0
C1001 C 0.97143 0.32388 0.89364 0.0
C1002 C 0.99346 0.36496 0.89543 0.0
H1003 H 0.97115 0.31835 0.74803 0.0
H1004 H 0.97844 0.33209 0.78932 0.0
C1005 C 0.00157 0.38305 0.91698 0.0
C1006 C 0.96271 0.30549 0.8706 0.0
H1007 H 0.00782 0.29937 0.82174 0.0
C1008 C 0.92402 0.28819 0.86227 0.0
C1009 C 0.99309 0.30853 0.8561 0.0
C1010 C 0.03485 0.32557 0.86459 0.0
C1011 C 0.91529 0.27583 0.83923 0.0
C1012 C 0.94605 0.28045 0.82444 0.0
C1013 C 0.98439 0.29614 0.83313 0.0
C1014 C 0.9398 0.27159 0.79953 0.0
C1015 C 0.87375 0.25982 0.83057 0.0
C1016 C 0.91554 0.23299 0.79167 0.0
C1017 C 0.91116 0.22497 0.76802 0.0
C1018 C 0.93126 0.25545 0.75188 0.0
C1019 C 0.95529 0.29414 0.75992 0.0
C1020 C 0.95955 0.30208 0.78352 0.0
H1021 H 0.85526 0.26516 0.84297 0.0
H1022 H 0.87371 0.27335 0.81374 0.0
H1023 H 0.85999 0.22757 0.82792 0.0
H1024 H 0.90055 0.20899 0.80381 0.0
H1025 H 0.89255 0.19481 0.76244 0.0
H1026 H 0.8099 0.7076 0.75402 0.0
H1027 H 0.78853 0.69431 0.79431 0.0
H1028 H 0.66719 0.63627 0.77254 0.0
H1029 H 0.68801 0.64922 0.73226 0.0
H1030 H 0.73785 0.71866 0.8174 0.0
H1031 H 0.67569 0.55652 0.81655 0.0
H1032 H 0.71027 0.58867 0.79509 0.0
H1033 H 0.65933 0.57539 0.79342 0.0
C1034 C 0.77864 0.69179 0.75776 0.0
C1035 C 0.75065 0.67943 0.73989 0.0
C1036 C 0.76656 0.68431 0.78078 0.0
C1037 C 0.72637 0.66397 0.78626 0.0
C1038 C 0.69836 0.65153 0.76855 0.0
H1039 H 0.57587 0.58921 0.90415 0.0
H1040 H 0.60666 0.60418 0.86614 0.0
C1041 C 0.71036 0.65916 0.74556 0.0
C1042 C 0.71344 0.65681 0.81055 0.0
H1043 H 0.66033 0.58342 0.84908 0.0
C1044 C 0.72127 0.68918 0.82449 0.0
C1045 C 0.69189 0.61828 0.81957 0.0
C1046 C 0.68401 0.58267 0.80548 0.0
C1047 C 0.70661 0.6839 0.84708 0.0
C1048 C 0.68427 0.64527 0.85595 0.0
C1049 C 0.67738 0.61298 0.84216 0.0
C1050 C 0.66623 0.63744 0.87913 0.0
C1051 C 0.7138 0.71953 0.86093 0.0
C1052 C 0.68964 0.65118 0.89901 0.0
C1053 C 0.67213 0.64286 0.92083 0.0
C1054 C 0.63092 0.62032 0.92311 0.0
C1055 C 0.60767 0.60662 0.90307 0.0
C1056 C 0.62518 0.61509 0.88132 0.0
H1057 H 0.72369 0.74598 0.84987 0.0
H1058 H 0.68673 0.7139 0.87027 0.0
H1059 H 0.73712 0.72618 0.8739 0.0
H1060 H 0.72144 0.66786 0.89766 0.0
H1061 H 0.69093 0.65359 0.93589 0.0
H1062 H 0.6335 0.80833 0.42511 0.0
H1063 H 0.64802 0.7997 0.46496 0.0
H1064 H 0.71262 0.74399 0.44098 0.0
H1065 H 0.69877 0.75283 0.40107 0.0
H1066 H 0.62826 0.72924 0.48765 0.0
H1067 H 0.78993 0.829 0.48528 0.0
H1068 H 0.7574 0.82988 0.46352 0.0
H1069 H 0.77227 0.79324 0.46246 0.0
C1070 C 0.65096 0.79438 0.42826 0.0
C1071 C 0.66508 0.78137 0.40986 0.0
C1072 C 0.65919 0.78951 0.45105 0.0
C1073 C 0.68188 0.77182 0.45583 0.0
C1074 C 0.69575 0.7585 0.43758 0.0
H1075 H 0.75282 0.6804 0.56539 0.0
H1076 H 0.73682 0.70186 0.52966 0.0
C1077 C 0.68757 0.76334 0.41479 0.0
C1078 C 0.68994 0.76587 0.47991 0.0
H1079 H 0.76465 0.78365 0.51689 0.0
C1080 C 0.65802 0.74158 0.49423 0.0
C1081 C 0.7288 0.78233 0.48839 0.0
C1082 C 0.76406 0.81039 0.4742 0.0
C1083 C 0.66408 0.73153 0.51646 0.0
C1084 C 0.70301 0.74655 0.52449 0.0
C1085 C 0.73485 0.77212 0.51054 0.0
C1086 C 0.71153 0.73341 0.54646 0.0
C1087 C 0.62904 0.7035 0.5308 0.0
C1088 C 0.70248 0.74413 0.56771 0.0
C1089 C 0.71159 0.73188 0.58832 0.0
C1090 C 0.72994 0.70881 0.58788 0.0
C1091 C 0.73869 0.69809 0.56644 0.0
C1092 C 0.72965 0.71037 0.54597 0.0
H1093 H 0.60112 0.69047 0.52084 0.0
H1094 H 0.63323 0.67931 0.53754 0.0
H1095 H 0.62622 0.71951 0.54582 0.0
H1096 H 0.68885 0.76231 0.56835 0.0
H1097 H 0.70463 0.74081 0.60453 0.0
H1098 H 0.24282 0.95682 0.40115 0.0
H1099 H 0.25605 0.98128 0.44082 0.0
H1100 H 0.19834 0.86203 0.46632 0.0
H1101 H 0.18526 0.83713 0.42682 0.0
H1102 H 0.20165 0.96518 0.47801 0.0
H1103 H 0.30876 0.9145 0.49635 0.0
H1104 H 0.29376 0.91796 0.46741 0.0
H1105 H 0.26144 0.87768 0.4857 0.0
C1106 C 0.23287 0.93573 0.41516 0.0
C1107 C 0.21329 0.895 0.41077 0.0
C1108 C 0.2404 0.94978 0.4378 0.0
C1109 C 0.22864 0.9234 0.45638 0.0
C1110 C 0.20824 0.8828 0.45214 0.0
H1111 H 0.27702 0.97785 0.60366 0.0
H1112 H 0.25047 0.94173 0.56748 0.0
C1113 C 0.20069 0.86869 0.42954 0.0
C1114 C 0.23816 0.93857 0.4802 0.0
H1115 H 0.29477 0.94575 0.52668 0.0
C1116 C 0.22184 0.9608 0.48872 0.0
C1117 C 0.26429 0.93246 0.49409 0.0
C1118 C 0.28339 0.90961 0.48545 0.0
C1119 C 0.2315 0.97771 0.51076 0.0
C1120 C 0.2586 0.97267 0.52435 0.0
C1121 C 0.27394 0.9494 0.51614 0.0
C1122 C 0.27389 0.99404 0.54628 0.0
C1123 C 0.21287 0.00105 0.51929 0.0
C1124 C 0.29634 0.03521 0.54611 0.0
C1125 C 0.31166 0.05587 0.56658 0.0
C1126 C 0.30495 0.03571 0.58767 0.0
C1127 C 0.28274 0.99429 0.58774 0.0
C1128 C 0.26748 0.9736 0.56714 0.0
H1129 H 0.18515 0.99302 0.5099 0.0
H1130 H 0.20639 0.99635 0.53805 0.0
H1131 H 0.23358 0.03288 0.51642 0.0
H1132 H 0.30222 0.05139 0.53007 0.0
H1133 H 0.32867 0.08771 0.56581 0.0
H1134 H 0.04831 0.31213 0.61893 0.0
H1135 H 0.08866 0.33246 0.58374 0.0
H1136 H 0.98616 0.30718 0.54349 0.0
H1137 H 0.94592 0.28724 0.57818 0.0
H1138 H 0.07609 0.28483 0.54366 0.0
H1139 H 0.06875 0.41885 0.5229 0.0
H1140 H 0.05793 0.39694 0.55131 0.0
H1141 H 0.02116 0.37733 0.52896 0.0
C1142 C 0.03451 0.31137 0.6026 0.0
C1143 C 0.99391 0.29817 0.60137 0.0
C1144 C 0.05757 0.32291 0.58257 0.0
C1145 C 0.04042 0.32192 0.56116 0.0
C1146 C 6e-05 0.30894 0.55994 0.0
H1147 H 0.06144 0.3235 0.41764 0.0
H1148 H 0.04512 0.31953 0.45857 0.0
C1149 C 0.97705 0.29726 0.5798 0.0
C1150 C 0.06359 0.33215 0.53963 0.0
H1151 H 0.0826 0.38781 0.49106 0.0
C1152 C 0.07847 0.30794 0.53233 0.0
C1153 C 0.06665 0.36241 0.52502 0.0
C1154 C 0.05312 0.39063 0.53254 0.0
C1155 C 0.09381 0.31144 0.51001 0.0
C1156 C 0.09438 0.33999 0.4949 0.0
C1157 C 0.08169 0.3657 0.5027 0.0
C1158 C 0.10487 0.34158 0.47035 0.0
C1159 C 0.10714 0.2832 0.50221 0.0
C1160 C 0.1439 0.35528 0.46357 0.0
C1161 C 0.15342 0.35768 0.44017 0.0
C1162 C 0.12399 0.34643 0.4232 0.0
C1163 C 0.08483 0.33238 0.43019 0.0
C1164 C 0.07543 0.33014 0.45356 0.0
H1165 H 0.10101 0.26014 0.51531 0.0
H1166 H 0.09223 0.26868 0.48585 0.0
H1167 H 0.13931 0.29973 0.49884 0.0
H1168 H 0.167 0.36454 0.47636 0.0
H1169 H 0.18388 0.36864 0.4354 0.0
loop_
_geom_bond_atom_site_label_1
_geom_bond_atom_site_label_2
_geom_bond_distance
_geom_bond_site_symmetry_2
_ccdc_geom_bond_type
Sc0 O3 2.025 1_556 S
Sc0 O10 2.095 1_556 S
Sc0 O13 2.105 . S
Sc0 O16 2.105 1_455 S
Sc0 O19 2.105 . S
Sc1 O3 2.025 . S
Sc1 O11 2.105 1_554 S
Sc1 O15 2.105 1_455 S
Sc1 O17 2.105 1_454 S
Sc1 O21 2.105 . S
Sc2 O3 2.025 1_655 S
Sc2 O12 2.105 1_655 S
Sc2 O14 2.105 . S
Sc2 O18 2.105 . S
Sc2 O20 2.105 1_655 S
O3 Sc0 2.025 1_554 S
O3 Sc1 2.025 . S
O3 Sc2 2.025 1_455 S
C4 O10 1.283 . S
C4 O20 1.268 . S
C5 O11 1.268 . S
C5 O19 1.268 . S
C6 O12 1.268 . S
C6 O21 1.268 . S
C7 O13 1.268 1_655 S
C7 O17 1.268 . S
C8 O14 1.268 1_556 S
C8 O16 1.268 . S
C9 O15 1.268 . S
C9 O18 1.268 . S
O10 Sc0 2.095 1_554 S
O10 C4 1.283 . S
O11 Sc1 2.105 1_556 S
O11 C5 1.268 . S
O12 Sc2 2.105 1_455 S
O12 C6 1.268 . S
O13 Sc0 2.105 . S
O13 C7 1.268 1_455 S
O14 Sc2 2.105 . S
O14 C8 1.268 1_554 S
O15 Sc1 2.105 1_655 S
O15 C9 1.268 . S
O16 Sc0 2.105 1_655 S
O16 C8 1.268 . S
O17 Sc1 2.105 1_656 S
O17 C7 1.268 . S
O18 Sc2 2.105 . S
O18 C9 1.268 . S
O19 Sc0 2.105 . S
O19 C5 1.268 . S
O20 Sc2 2.105 1_455 S
O20 C4 1.268 . S
O21 Sc1 2.105 . S
O21 C6 1.268 . S
Sc22 O25 2.025 1_556 S
Sc22 O32 2.095 1_556 S
Sc22 O35 2.105 . S
Sc22 O38 2.105 . S
Sc22 O41 2.105 . S
Sc23 O25 2.025 . S
Sc23 O33 2.105 1_554 S
Sc23 O37 2.105 . S
Sc23 O39 2.105 1_554 S
Sc23 O43 2.105 . S
Sc24 O25 2.025 . S
Sc24 O34 2.105 . S
Sc24 O36 2.105 . S
Sc24 O40 2.105 . S
Sc24 O42 2.105 . S
O25 Sc22 2.025 1_554 S
O25 Sc23 2.025 . S
O25 Sc24 2.025 . S
C26 O32 1.283 . S
C26 O42 1.268 . S
C27 O33 1.268 . S
C27 O41 1.268 . S
C28 O34 1.268 . S
C28 O43 1.268 . S
C29 O35 1.268 . S
C29 O39 1.268 . S
C30 O36 1.268 1_556 S
C30 O38 1.268 . S
C31 O37 1.268 . S
C31 O40 1.268 . S
O32 Sc22 2.095 1_554 S
O32 C26 1.283 . S
O33 Sc23 2.105 1_556 S
O33 C27 1.268 . S
O34 Sc24 2.105 . S
O34 C28 1.268 . S
O35 Sc22 2.105 . S
O35 C29 1.268 . S
O36 Sc24 2.105 . S
O36 C30 1.268 1_554 S
O37 Sc23 2.105 . S
O37 C31 1.268 . S
O38 Sc22 2.105 . S
O38 C30 1.268 . S
O39 Sc23 2.105 1_556 S
O39 C29 1.268 . S
O40 Sc24 2.105 . S
O40 C31 1.268 . S
O41 Sc22 2.105 . S
O41 C27 1.268 . S
O42 Sc24 2.105 . S
O42 C26 1.268 . S
O43 Sc23 2.105 . S
O43 C28 1.268 . S
Sc44 O47 2.025 1_566 S
Sc44 O54 2.095 1_556 S
Sc44 O57 2.105 1_565 S
Sc44 O60 2.105 1_565 S
Sc44 O63 2.105 . S
Sc45 O47 2.025 . S
Sc45 O55 2.105 1_544 S
Sc45 O59 2.105 . S
Sc45 O61 2.105 1_554 S
Sc45 O65 2.105 1_545 S
Sc46 O47 2.025 . S
Sc46 O56 2.105 . S
Sc46 O58 2.105 . S
Sc46 O62 2.105 . S
Sc46 O64 2.105 1_545 S
O47 Sc44 2.025 1_544 S
O47 Sc45 2.025 . S
O47 Sc46 2.025 . S
C48 O54 1.283 . S
C48 O64 1.268 . S
C49 O55 1.268 . S
C49 O63 1.268 . S
C50 O56 1.268 1_565 S
C50 O65 1.268 . S
C51 O57 1.268 . S
C51 O61 1.268 . S
C52 O58 1.268 1_556 S
C52 O60 1.268 . S
C53 O59 1.268 . S
C53 O62 1.268 . S
O54 Sc44 2.095 1_554 S
O54 C48 1.283 . S
O55 Sc45 2.105 1_566 S
O55 C49 1.268 . S
O56 Sc46 2.105 . S
O56 C50 1.268 1_545 S
O57 Sc44 2.105 1_545 S
O57 C51 1.268 . S
O58 Sc46 2.105 . S
O58 C52 1.268 1_554 S
O59 Sc45 2.105 . S
O59 C53 1.268 . S
O60 Sc44 2.105 1_545 S
O60 C52 1.268 . S
O61 Sc45 2.105 1_556 S
O61 C51 1.268 . S
O62 Sc46 2.105 . S
O62 C53 1.268 . S
O63 Sc44 2.105 . S
O63 C49 1.268 . S
O64 Sc46 2.105 1_565 S
O64 C48 1.268 . S
O65 Sc45 2.105 1_565 S
O65 C50 1.268 . S
Sc66 O69 2.025 . S
Sc66 O76 2.105 . S
Sc66 O79 2.105 . S
Sc66 O82 2.105 . S
Sc66 O85 2.105 . S
Sc67 O69 2.025 . S
Sc67 O77 2.105 . S
Sc67 O81 2.105 . S
Sc67 O83 2.105 . S
Sc67 O87 2.105 . S
Sc68 O69 2.025 . S
Sc68 O78 2.105 . S
Sc68 O80 2.105 . S
Sc68 O84 2.105 . S
Sc68 O86 2.105 . S
O69 Sc66 2.025 . S
O69 Sc67 2.025 . S
O69 Sc68 2.025 . S
C70 O76 1.268 . S
C70 O86 1.268 . S
C71 O77 1.268 . S
C71 O85 1.268 . S
C72 O78 1.268 . S
C72 O87 1.268 . S
C73 O79 1.268 . S
C73 O83 1.268 . S
C74 O80 1.268 . S
C74 O82 1.268 . S
C75 O81 1.268 . S
C75 O84 1.268 . S
O76 Sc66 2.105 . S
O76 C70 1.268 . S
O77 Sc67 2.105 . S
O77 C71 1.268 . S
O78 Sc68 2.105 . S
O78 C72 1.268 . S
O79 Sc66 2.105 . S
O79 C73 1.268 . S
O80 Sc68 2.105 . S
O80 C74 1.268 . S
O81 Sc67 2.105 . S
O81 C75 1.268 . S
O82 Sc66 2.105 . S
O82 C74 1.268 . S
O83 Sc67 2.105 . S
O83 C73 1.268 . S
O84 Sc68 2.105 . S
O84 C75 1.268 . S
O85 Sc66 2.105 . S
O85 C71 1.268 . S
O86 Sc68 2.105 . S
O86 C70 1.268 . S
O87 Sc67 2.105 . S
O87 C72 1.268 . S
Sc88 O91 2.025 . S
Sc88 O98 2.105 . S
Sc88 O101 2.105 . S
Sc88 O104 2.105 . S
Sc88 O107 2.105 . S
Sc89 O91 2.025 . S
Sc89 O99 2.105 . S
Sc89 O103 2.105 . S
Sc89 O105 2.105 . S
Sc89 O109 2.105 . S
Sc90 O91 2.025 . S
Sc90 O100 2.105 . S
Sc90 O102 2.105 . S
Sc90 O106 2.105 . S
Sc90 O108 2.105 . S
O91 Sc88 2.025 . S
O91 Sc89 2.025 . S
O91 Sc90 2.025 . S
C92 O98 1.268 . S
C92 O108 1.268 . S
C93 O99 1.268 . S
C93 O107 1.268 . S
C94 O100 1.268 . S
C94 O109 1.268 . S
C95 O101 1.268 . S
C95 O105 1.268 . S
C96 O102 1.268 . S
C96 O104 1.268 . S
C97 O103 1.268 . S
C97 O106 1.268 . S
O98 Sc88 2.105 . S
O98 C92 1.268 . S
O99 Sc89 2.105 . S
O99 C93 1.268 . S
O100 Sc90 2.105 . S
O100 C94 1.268 . S
O101 Sc88 2.105 . S
O101 C95 1.268 . S
O102 Sc90 2.105 . S
O102 C96 1.268 . S
O103 Sc89 2.105 . S
O103 C97 1.268 . S
O104 Sc88 2.105 . S
O104 C96 1.268 . S
O105 Sc89 2.105 . S
O105 C95 1.268 . S
O106 Sc90 2.105 . S
O106 C97 1.268 . S
O107 Sc88 2.105 . S
O107 C93 1.268 . S
O108 Sc90 2.105 . S
O108 C92 1.268 . S
O109 Sc89 2.105 . S
O109 C94 1.268 . S
Sc110 O113 2.025 . S
Sc110 O120 2.105 . S
Sc110 O123 2.105 . S
Sc110 O126 2.105 . S
Sc110 O129 2.105 . S
Sc111 O113 2.025 . S
Sc111 O121 2.105 . S
Sc111 O125 2.105 . S
Sc111 O127 2.105 . S
Sc111 O131 2.105 . S
Sc112 O113 2.025 . S
Sc112 O122 2.105 . S
Sc112 O124 2.105 . S
Sc112 O128 2.105 . S
Sc112 O130 2.105 . S
O113 Sc110 2.025 . S
O113 Sc111 2.025 . S
O113 Sc112 2.025 . S
C114 O120 1.268 . S
C114 O130 1.268 . S
C115 O121 1.268 . S
C115 O129 1.268 . S
C116 O122 1.268 . S
C116 O131 1.268 . S
C117 O123 1.268 . S
C117 O127 1.268 . S
C118 O124 1.268 . S
C118 O126 1.268 . S
C119 O125 1.268 . S
C119 O128 1.268 . S
O120 Sc110 2.105 . S
O120 C114 1.268 . S
O121 Sc111 2.105 . S
O121 C115 1.268 . S
O122 Sc112 2.105 . S
O122 C116 1.268 . S
O123 Sc110 2.105 . S
O123 C117 1.268 . S
O124 Sc112 2.105 . S
O124 C118 1.268 . S
O125 Sc111 2.105 . S
O125 C119 1.268 . S
O126 Sc110 2.105 . S
O126 C118 1.268 . S
O127 Sc111 2.105 . S
O127 C117 1.268 . S
O128 Sc112 2.105 . S
O128 C119 1.268 . S
O129 Sc110 2.105 . S
O129 C115 1.268 . S
O130 Sc112 2.105 . S
O130 C114 1.268 . S
O131 Sc111 2.105 . S
O131 C116 1.268 . S
Sc132 O135 2.025 . S
Sc132 O142 2.105 . S
Sc132 O145 2.105 . S
Sc132 O148 2.105 . S
Sc132 O151 2.105 . S
Sc133 O135 2.025 . S
Sc133 O143 2.105 . S
Sc133 O147 2.105 . S
Sc133 O149 2.105 . S
Sc133 O153 2.105 . S
Sc134 O135 2.025 . S
Sc134 O144 2.105 . S
Sc134 O146 2.105 . S
Sc134 O150 2.105 . S
Sc134 O152 2.105 . S
O135 Sc132 2.025 . S
O135 Sc133 2.025 . S
O135 Sc134 2.025 . S
C136 O142 1.268 . S
C136 O152 1.268 . S
C137 O143 1.268 . S
C137 O151 1.268 . S
C138 O144 1.268 . S
C138 O153 1.268 . S
C139 O145 1.268 . S
C139 O149 1.268 . S
C140 O146 1.268 . S
C140 O148 1.268 . S
C141 O147 1.268 . S
C141 O150 1.268 . S
O142 Sc132 2.105 . S
O142 C136 1.268 . S
O143 Sc133 2.105 . S
O143 C137 1.268 . S
O144 Sc134 2.105 . S
O144 C138 1.268 . S
O145 Sc132 2.105 . S
O145 C139 1.268 . S
O146 Sc134 2.105 . S
O146 C140 1.268 . S
O147 Sc133 2.105 . S
O147 C141 1.268 . S
O148 Sc132 2.105 . S
O148 C140 1.268 . S
O149 Sc133 2.105 . S
O149 C139 1.268 . S
O150 Sc134 2.105 . S
O150 C141 1.268 . S
O151 Sc132 2.105 . S
O151 C137 1.268 . S
O152 Sc134 2.105 . S
O152 C136 1.268 . S
O153 Sc133 2.105 . S
O153 C138 1.268 . S
Sc154 O157 2.025 . S
Sc154 O164 2.105 . S
Sc154 O167 2.105 . S
Sc154 O170 2.105 . S
Sc154 O173 2.105 . S
Sc155 O157 2.025 . S
Sc155 O165 2.105 . S
Sc155 O169 2.105 . S
Sc155 O171 2.105 . S
Sc155 O175 2.105 . S
Sc156 O157 2.025 . S
Sc156 O166 2.105 . S
Sc156 O168 2.105 . S
Sc156 O172 2.105 . S
Sc156 O174 2.105 . S
O157 Sc154 2.025 . S
O157 Sc155 2.025 . S
O157 Sc156 2.025 . S
C158 O164 1.268 . S
C158 O174 1.268 . S
C159 O165 1.268 . S
C159 O173 1.268 . S
C160 O166 1.268 . S
C160 O175 1.268 . S
C161 O167 1.268 . S
C161 O171 1.268 . S
C162 O168 1.268 . S
C162 O170 1.268 . S
C163 O169 1.268 . S
C163 O172 1.268 . S
O164 Sc154 2.105 . S
O164 C158 1.268 . S
O165 Sc155 2.105 . S
O165 C159 1.268 . S
O166 Sc156 2.105 . S
O166 C160 1.268 . S
O167 Sc154 2.105 . S
O167 C161 1.268 . S
O168 Sc156 2.105 . S
O168 C162 1.268 . S
O169 Sc155 2.105 . S
O169 C163 1.268 . S
O170 Sc154 2.105 . S
O170 C162 1.268 . S
O171 Sc155 2.105 . S
O171 C161 1.268 . S
O172 Sc156 2.105 . S
O172 C163 1.268 . S
O173 Sc154 2.105 . S
O173 C159 1.268 . S
O174 Sc156 2.105 . S
O174 C158 1.268 . S
O175 Sc155 2.105 . S
O175 C160 1.268 . S
Sc176 O179 2.025 . S
Sc176 O186 2.105 . S
Sc176 O189 2.105 . S
Sc176 O192 2.105 . S
Sc176 O195 2.105 . S
Sc177 O179 2.025 . S
Sc177 O187 2.105 . S
Sc177 O191 2.105 . S
Sc177 O193 2.105 . S
Sc177 O197 2.105 . S
Sc178 O179 2.025 . S
Sc178 O188 2.105 . S
Sc178 O190 2.105 . S
Sc178 O194 2.105 . S
Sc178 O196 2.105 . S
O179 Sc176 2.025 . S
O179 Sc177 2.025 . S
O179 Sc178 2.025 . S
C180 O186 1.268 . S
C180 O196 1.268 . S
C181 O187 1.268 . S
C181 O195 1.268 . S
C182 O188 1.268 . S
C182 O197 1.268 . S
C183 O189 1.268 . S
C183 O193 1.268 . S
C184 O190 1.268 . S
C184 O192 1.268 . S
C185 O191 1.268 . S
C185 O194 1.268 . S
O186 Sc176 2.105 . S
O186 C180 1.268 . S
O187 Sc177 2.105 . S
O187 C181 1.268 . S
O188 Sc178 2.105 . S
O188 C182 1.268 . S
O189 Sc176 2.105 . S
O189 C183 1.268 . S
O190 Sc178 2.105 . S
O190 C184 1.268 . S
O191 Sc177 2.105 . S
O191 C185 1.268 . S
O192 Sc176 2.105 . S
O192 C184 1.268 . S
O193 Sc177 2.105 . S
O193 C183 1.268 . S
O194 Sc178 2.105 . S
O194 C185 1.268 . S
O195 Sc176 2.105 . S
O195 C181 1.268 . S
O196 Sc178 2.105 . S
O196 C180 1.268 . S
O197 Sc177 2.105 . S
O197 C182 1.268 . S
H198 C206 0.926 1_556 S
H199 C208 0.930 1_556 S
H200 C210 0.930 . S
H201 C213 0.929 . S
H202 C216 0.930 . S
H203 C218 0.960 . S
H204 C218 0.960 . S
H205 C218 0.960 . S
C206 H198 0.926 1_554 S
C206 C207 1.377 . S
C206 C208 1.384 . S
C207 C206 1.377 . S
C207 C213 1.390 . S
C208 H199 0.930 1_554 S
C208 C206 1.384 . S
C208 C209 1.372 . S
C209 C208 1.372 . S
C209 C210 1.400 . S
C209 C214 1.490 . S
C210 H200 0.930 . S
C210 C209 1.400 . S
C210 C213 1.386 . S
H211 C227 0.930 . S
H212 C228 0.931 . S
C213 H201 0.929 . S
C213 C207 1.390 . S
C213 C210 1.386 . S
C214 C209 1.490 . S
C214 C216 1.395 1_554 S
C214 C217 1.403 . S
H215 C221 0.930 . S
C216 H202 0.930 . S
C216 C214 1.395 1_556 S
C216 C219 1.403 . S
C217 C214 1.403 . S
C217 C218 1.524 . S
C217 C221 1.400 . S
C218 H203 0.960 . S
C218 H204 0.960 . S
C218 H205 0.960 . S
C218 C217 1.524 . S
C219 C216 1.403 . S
C219 C220 1.392 . S
C219 C223 1.495 . S
C220 C219 1.392 . S
C220 C221 1.385 1_556 S
C220 C222 1.478 . S
C221 H215 0.930 . S
C221 C217 1.400 . S
C221 C220 1.385 1_554 S
C222 C220 1.478 . S
C222 C224 1.381 . S
C222 C228 1.383 1_556 S
C223 C219 1.495 . S
C223 H229 0.959 . S
C223 H230 0.961 . S
C223 H231 0.960 . S
C224 C222 1.381 . S
C224 C225 1.394 . S
C224 H232 0.930 . S
C225 C224 1.394 . S
C225 C226 1.383 . S
C225 H233 0.929 . S
C226 C225 1.383 . S
C226 C227 1.377 1_556 S
C227 H211 0.930 . S
C227 C226 1.377 1_554 S
C227 C228 1.379 . S
C228 H212 0.931 . S
C228 C222 1.383 1_554 S
C228 C227 1.379 . S
H229 C223 0.959 . S
H230 C223 0.961 . S
H231 C223 0.960 . S
H232 C224 0.930 . S
H233 C225 0.929 . S
H234 C242 0.929 . S
H235 C244 0.930 1_556 S
H236 C246 0.930 . S
H237 C249 0.929 . S
H238 C252 0.930 . S
H239 C254 0.960 . S
H240 C254 0.960 . S
H241 C254 0.960 . S
C242 H234 0.929 . S
C242 C243 1.377 . S
C242 C244 1.384 . S
C243 C242 1.377 . S
C243 C249 1.390 . S
C244 H235 0.930 1_554 S
C244 C242 1.384 . S
C244 C245 1.372 . S
C245 C244 1.372 . S
C245 C246 1.400 . S
C245 C250 1.490 . S
C246 H236 0.930 . S
C246 C245 1.400 . S
C246 C249 1.386 . S
H247 C263 0.917 1_554 S
H248 C264 0.931 . S
C249 H237 0.929 . S
C249 C243 1.390 . S
C249 C246 1.386 . S
C250 C245 1.490 . S
C250 C252 1.395 1_554 S
C250 C253 1.403 . S
H251 C257 0.930 . S
C252 H238 0.930 . S
C252 C250 1.395 1_556 S
C252 C255 1.403 . S
C253 C250 1.403 . S
C253 C254 1.524 . S
C253 C257 1.400 . S
C254 H239 0.960 . S
C254 H240 0.960 . S
C254 H241 0.960 . S
C254 C253 1.524 . S
C255 C252 1.403 . S
C255 C256 1.392 . S
C255 C259 1.495 . S
C256 C255 1.392 . S
C256 C257 1.385 1_556 S
C256 C258 1.478 . S
C257 H251 0.930 . S
C257 C253 1.400 . S
C257 C256 1.385 1_554 S
C258 C256 1.478 . S
C258 C260 1.381 . S
C258 C264 1.383 1_556 S
C259 C255 1.495 . S
C259 H265 0.959 . S
C259 H266 0.961 . S
C259 H267 0.960 . S
C260 C258 1.381 . S
C260 C261 1.394 . S
C260 H268 0.930 . S
C261 C260 1.394 . S
C261 C262 1.383 . S
C261 H269 0.929 . S
C262 C261 1.383 . S
C262 C263 1.396 . S
C263 H247 0.917 1_556 S
C263 C262 1.396 . S
C263 C264 1.375 1_556 S
C264 H248 0.931 . S
C264 C258 1.383 1_554 S
C264 C263 1.375 1_554 S
H265 C259 0.959 . S
H266 C259 0.961 . S
H267 C259 0.960 . S
H268 C260 0.930 . S
H269 C261 0.929 . S
H270 C278 0.929 . S
H271 C280 0.931 1_554 S
H272 C282 0.930 . S
H273 C285 0.929 . S
H274 C288 0.930 . S
H275 C290 0.960 . S
H276 C290 0.960 . S
H277 C290 0.960 . S
C278 H270 0.929 . S
C278 C279 1.377 . S
C278 C280 1.383 . S
C279 C278 1.377 . S
C279 C285 1.390 . S
C280 H271 0.931 1_556 S
C280 C278 1.383 . S
C280 C281 1.372 . S
C281 C280 1.372 . S
C281 C282 1.405 . S
C281 C286 1.486 1_556 S
C282 H272 0.930 . S
C282 C281 1.405 . S
C282 C285 1.386 . S
H283 C299 0.930 . S
H284 C300 0.931 . S
C285 H273 0.929 . S
C285 C279 1.390 . S
C285 C282 1.386 . S
C286 C281 1.486 1_554 S
C286 C288 1.395 1_554 S
C286 C289 1.403 . S
H287 C293 0.930 . S
C288 H274 0.930 . S
C288 C286 1.395 1_556 S
C288 C291 1.403 . S
C289 C286 1.403 . S
C289 C290 1.524 . S
C289 C293 1.400 . S
C290 H275 0.960 . S
C290 H276 0.960 . S
C290 H277 0.960 . S
C290 C289 1.524 . S
C291 C288 1.403 . S
C291 C292 1.392 1_556 S
C291 C295 1.495 . S
C292 C291 1.392 1_554 S
C292 C293 1.385 . S
C292 C294 1.478 . S
C293 H287 0.930 . S
C293 C289 1.400 . S
C293 C292 1.385 . S
C294 C292 1.478 . S
C294 C296 1.381 . S
C294 C300 1.383 . S
C295 C291 1.495 . S
C295 H301 0.959 . S
C295 H302 0.961 . S
C295 H303 0.960 . S
C296 C294 1.381 . S
C296 C297 1.394 . S
C296 H304 0.930 . S
C297 C296 1.394 . S
C297 C298 1.383 . S
C297 H305 0.929 . S
C298 C297 1.383 . S
C298 C299 1.377 . S
C299 H283 0.930 . S
C299 C298 1.377 . S
C299 C300 1.379 . S
C300 H284 0.931 . S
C300 C294 1.383 . S
C300 C299 1.379 . S
H301 C295 0.959 . S
H302 C295 0.961 . S
H303 C295 0.960 . S
H304 C296 0.930 . S
H305 C297 0.929 . S
H306 C314 0.929 . S
H307 C316 0.930 . S
H308 C318 0.930 . S
H309 C321 0.925 1_556 S
H310 C324 0.930 . S
H311 C326 0.960 . S
H312 C326 0.960 . S
H313 C326 0.960 . S
C314 H306 0.929 . S
C314 C315 1.377 . S
C314 C316 1.384 . S
C315 C314 1.377 . S
C315 C321 1.396 . S
C316 H307 0.930 . S
C316 C314 1.384 . S
C316 C317 1.372 . S
C317 C316 1.372 . S
C317 C318 1.400 1_554 S
C317 C322 1.490 . S
C318 H308 0.930 . S
C318 C317 1.400 1_556 S
C318 C321 1.384 1_556 S
H319 C335 0.930 . S
H320 C336 0.931 . S
C321 H309 0.925 1_554 S
C321 C315 1.396 . S
C321 C318 1.384 1_554 S
C322 C317 1.490 . S
C322 C324 1.395 1_554 S
C322 C325 1.403 . S
H323 C329 0.930 . S
C324 H310 0.930 . S
C324 C322 1.395 1_556 S
C324 C327 1.403 . S
C325 C322 1.403 . S
C325 C326 1.524 . S
C325 C329 1.400 . S
C326 H311 0.960 . S
C326 H312 0.960 . S
C326 H313 0.960 . S
C326 C325 1.524 . S
C327 C324 1.403 . S
C327 C328 1.392 . S
C327 C331 1.495 . S
C328 C327 1.392 . S
C328 C329 1.385 1_556 S
C328 C330 1.478 . S
C329 H323 0.930 . S
C329 C325 1.400 . S
C329 C328 1.385 1_554 S
C330 C328 1.478 . S
C330 C332 1.381 1_556 S
C330 C336 1.383 . S
C331 C327 1.495 . S
C331 H337 0.959 . S
C331 H338 0.961 . S
C331 H339 0.960 . S
C332 C330 1.381 1_554 S
C332 C333 1.390 1_554 S
C332 H340 0.930 . S
C333 C332 1.390 1_556 S
C333 C334 1.404 . S
C333 H341 0.914 1_556 S
C334 C333 1.404 . S
C334 C335 1.377 . S
C335 H319 0.930 . S
C335 C334 1.377 . S
C335 C336 1.379 . S
C336 H320 0.931 . S
C336 C330 1.383 . S
C336 C335 1.379 . S
H337 C331 0.959 . S
H338 C331 0.961 . S
H339 C331 0.960 . S
H340 C332 0.930 . S
H341 C333 0.914 1_554 S
H342 C350 0.929 . S
H343 C352 0.930 . S
H344 C354 0.930 . S
H345 C357 0.932 . S
H346 C360 0.930 . S
H347 C362 0.960 . S
H348 C362 0.960 . S
H349 C362 0.957 . S
C350 H342 0.929 . S
C350 C351 1.377 . S
C350 C352 1.384 . S
C351 C350 1.377 . S
C351 C357 1.386 1_556 S
C352 H343 0.930 . S
C352 C350 1.384 . S
C352 C353 1.372 . S
C353 C352 1.372 . S
C353 C354 1.400 1_556 S
C353 C358 1.490 . S
C354 H344 0.930 . S
C354 C353 1.400 1_554 S
C354 C357 1.386 . S
H355 C371 0.930 . S
H356 C372 0.931 . S
C357 H345 0.932 . S
C357 C351 1.386 1_554 S
C357 C354 1.386 . S
C358 C353 1.490 . S
C358 C360 1.395 . S
C358 C361 1.403 . S
H359 C365 0.929 1_554 S
C360 H346 0.930 . S
C360 C358 1.395 . S
C360 C363 1.403 1_556 S
C361 C358 1.403 . S
C361 C362 1.524 . S
C361 C365 1.405 . S
C362 H347 0.960 . S
C362 H348 0.960 . S
C362 H349 0.957 . S
C362 C361 1.524 . S
C363 C360 1.403 1_554 S
C363 C364 1.392 . S
C363 C367 1.495 . S
C364 C363 1.392 . S
C364 C365 1.381 1_554 S
C364 C366 1.478 . S
C365 H359 0.929 1_556 S
C365 C361 1.405 . S
C365 C364 1.381 1_556 S
C366 C364 1.478 . S
C366 C368 1.381 1_554 S
C366 C372 1.383 . S
C367 C363 1.495 . S
C367 H373 0.959 . S
C367 H374 0.961 . S
C367 H375 0.960 1_554 S
C368 C366 1.381 1_556 S
C368 C369 1.394 . S
C368 H376 0.930 . S
C369 C368 1.394 . S
C369 C370 1.383 1_556 S
C369 H377 0.929 . S
C370 C369 1.383 1_554 S
C370 C371 1.377 . S
C371 H355 0.930 . S
C371 C370 1.377 . S
C371 C372 1.379 . S
C372 H356 0.931 . S
C372 C366 1.383 . S
C372 C371 1.379 . S
H373 C367 0.959 . S
H374 C367 0.961 . S
H375 C367 0.960 1_556 S
H376 C368 0.930 . S
H377 C369 0.929 . S
H378 C386 0.929 . S
H379 C388 0.930 . S
H380 C390 0.930 . S
H381 C393 0.929 . S
H382 C396 0.930 . S
H383 C398 0.960 . S
H384 C398 0.960 . S
H385 C398 0.960 . S
C386 H378 0.929 . S
C386 C387 1.377 . S
C386 C388 1.384 . S
C387 C386 1.377 . S
C387 C393 1.390 1_556 S
C388 H379 0.930 . S
C388 C386 1.384 . S
C388 C389 1.372 . S
C389 C388 1.372 . S
C389 C390 1.400 1_556 S
C389 C394 1.490 . S
C390 H380 0.930 . S
C390 C389 1.400 1_554 S
C390 C393 1.386 . S
H391 C407 0.930 . S
H392 C408 0.931 . S
C393 H381 0.929 . S
C393 C387 1.390 1_554 S
C393 C390 1.386 . S
C394 C389 1.490 . S
C394 C396 1.395 . S
C394 C397 1.403 1_556 S
H395 C401 0.930 . S
C396 H382 0.930 . S
C396 C394 1.395 . S
C396 C399 1.403 . S
C397 C394 1.403 1_554 S
C397 C398 1.524 . S
C397 C401 1.400 . S
C398 H383 0.960 . S
C398 H384 0.960 . S
C398 H385 0.960 . S
C398 C397 1.524 . S
C399 C396 1.403 . S
C399 C400 1.402 . S
C399 C403 1.495 . S
C400 C399 1.402 . S
C400 C401 1.377 1_556 S
C400 C402 1.475 1_556 S
C401 H395 0.930 . S
C401 C397 1.400 . S
C401 C400 1.377 1_554 S
C402 C400 1.475 1_554 S
C402 C404 1.381 1_554 S
C402 C408 1.383 . S
C403 C399 1.495 . S
C403 H409 0.959 . S
C403 H410 0.961 . S
C403 H411 0.960 . S
C404 C402 1.381 1_556 S
C404 C405 1.394 . S
C404 H412 0.930 . S
C405 C404 1.394 . S
C405 C406 1.383 1_556 S
C405 H413 0.929 . S
C406 C405 1.383 1_554 S
C406 C407 1.377 . S
C407 H391 0.930 . S
C407 C406 1.377 . S
C407 C408 1.379 . S
C408 H392 0.931 . S
C408 C402 1.383 . S
C408 C407 1.379 . S
H409 C403 0.959 . S
H410 C403 0.961 . S
H411 C403 0.960 . S
H412 C404 0.930 . S
H413 C405 0.929 . S
H414 C422 0.929 . S
H415 C424 0.930 . S
H416 C426 0.930 . S
H417 C429 0.929 . S
H418 C432 0.930 . S
H419 C434 0.960 . S
H420 C434 0.960 . S
H421 C434 0.960 . S
C422 H414 0.929 . S
C422 C423 1.377 . S
C422 C424 1.384 . S
C423 C422 1.377 . S
C423 C429 1.390 . S
C424 H415 0.930 . S
C424 C422 1.384 . S
C424 C425 1.372 . S
C425 C424 1.372 . S
C425 C426 1.400 . S
C425 C430 1.490 . S
C426 H416 0.930 . S
C426 C425 1.400 . S
C426 C429 1.386 . S
H427 C443 0.930 . S
H428 C444 0.931 . S
C429 H417 0.929 . S
C429 C423 1.390 . S
C429 C426 1.386 . S
C430 C425 1.490 . S
C430 C432 1.395 . S
C430 C433 1.403 . S
H431 C437 0.930 . S
C432 H418 0.930 . S
C432 C430 1.395 . S
C432 C435 1.403 . S
C433 C430 1.403 . S
C433 C434 1.524 . S
C433 C437 1.400 . S
C434 H419 0.960 . S
C434 H420 0.960 . S
C434 H421 0.960 . S
C434 C433 1.524 . S
C435 C432 1.403 . S
C435 C436 1.392 . S
C435 C439 1.495 . S
C436 C435 1.392 . S
C436 C437 1.385 . S
C436 C438 1.478 1_655 S
C437 H431 0.930 . S
C437 C433 1.400 . S
C437 C436 1.385 . S
C438 C436 1.478 1_455 S
C438 C440 1.381 . S
C438 C444 1.383 . S
C439 C435 1.495 . S
C439 H445 0.959 . S
C439 H446 0.961 . S
C439 H447 0.960 . S
C440 C438 1.381 . S
C440 C441 1.394 . S
C440 H448 0.930 . S
C441 C440 1.394 . S
C441 C442 1.383 . S
C441 H449 0.929 . S
C442 C441 1.383 . S
C442 C443 1.377 . S
C443 H427 0.930 . S
C443 C442 1.377 . S
C443 C444 1.379 . S
C444 H428 0.931 . S
C444 C438 1.383 . S
C444 C443 1.379 . S
H445 C439 0.959 . S
H446 C439 0.961 . S
H447 C439 0.960 . S
H448 C440 0.930 . S
H449 C441 0.929 . S
H450 C458 0.929 . S
H451 C460 0.930 . S
H452 C462 0.930 . S
H453 C465 0.929 . S
H454 C468 0.930 . S
H455 C470 0.960 . S
H456 C470 0.960 . S
H457 C470 0.960 . S
C458 H450 0.929 . S
C458 C459 1.377 . S
C458 C460 1.384 . S
C459 C458 1.377 . S
C459 C465 1.390 . S
C460 H451 0.930 . S
C460 C458 1.384 . S
C460 C461 1.372 . S
C461 C460 1.372 . S
C461 C462 1.400 . S
C461 C466 1.490 . S
C462 H452 0.930 . S
C462 C461 1.400 . S
C462 C465 1.386 . S
H463 C479 0.930 . S
H464 C480 0.931 . S
C465 H453 0.929 . S
C465 C459 1.390 . S
C465 C462 1.386 . S
C466 C461 1.490 . S
C466 C468 1.395 . S
C466 C469 1.403 . S
H467 C473 0.930 . S
C468 H454 0.930 . S
C468 C466 1.395 . S
C468 C471 1.403 . S
C469 C466 1.403 . S
C469 C470 1.524 . S
C469 C473 1.400 . S
C470 H455 0.960 . S
C470 H456 0.960 . S
C470 H457 0.960 . S
C470 C469 1.524 . S
C471 C468 1.403 . S
C471 C472 1.392 . S
C471 C475 1.495 . S
C472 C471 1.392 . S
C472 C473 1.385 . S
C472 C474 1.478 . S
C473 H467 0.930 . S
C473 C469 1.400 . S
C473 C472 1.385 . S
C474 C472 1.478 . S
C474 C476 1.381 . S
C474 C480 1.383 . S
C475 C471 1.495 . S
C475 H481 0.959 . S
C475 H482 0.961 . S
C475 H483 0.960 . S
C476 C474 1.381 . S
C476 C477 1.394 . S
C476 H484 0.930 . S
C477 C476 1.394 . S
C477 C478 1.383 1_545 S
C477 H485 0.929 1_545 S
C478 C477 1.383 1_565 S
C478 C479 1.377 1_565 S
C479 H463 0.930 . S
C479 C478 1.377 1_545 S
C479 C480 1.379 . S
C480 H464 0.931 . S
C480 C474 1.383 . S
C480 C479 1.379 . S
H481 C475 0.959 . S
H482 C475 0.961 . S
H483 C475 0.960 . S
H484 C476 0.930 . S
H485 C477 0.929 1_565 S
H486 C494 0.929 . S
H487 C496 0.930 . S
H488 C498 0.930 . S
H489 C501 0.929 . S
H490 C504 0.930 . S
H491 C506 0.960 . S
H492 C506 0.960 . S
H493 C506 0.960 . S
C494 H486 0.929 . S
C494 C495 1.377 1_655 S
C494 C496 1.384 . S
C495 C494 1.377 1_455 S
C495 C501 1.390 . S
C496 H487 0.930 . S
C496 C494 1.384 . S
C496 C497 1.372 . S
C497 C496 1.372 . S
C497 C498 1.400 . S
C497 C502 1.490 . S
C498 H488 0.930 . S
C498 C497 1.400 . S
C498 C501 1.386 1_655 S
H499 C515 0.930 . S
H500 C516 0.931 . S
C501 H489 0.929 . S
C501 C495 1.390 . S
C501 C498 1.386 1_455 S
C502 C497 1.490 . S
C502 C504 1.395 . S
C502 C505 1.403 . S
H503 C509 0.930 . S
C504 H490 0.930 . S
C504 C502 1.395 . S
C504 C507 1.403 . S
C505 C502 1.403 . S
C505 C506 1.524 . S
C505 C509 1.400 . S
C506 H491 0.960 . S
C506 H492 0.960 . S
C506 H493 0.960 . S
C506 C505 1.524 . S
C507 C504 1.403 . S
C507 C508 1.392 . S
C507 C511 1.495 . S
C508 C507 1.392 . S
C508 C509 1.385 . S
C508 C510 1.478 1_545 S
C509 H503 0.930 . S
C509 C505 1.400 . S
C509 C508 1.385 . S
C510 C508 1.478 1_565 S
C510 C512 1.381 . S
C510 C516 1.383 . S
C511 C507 1.495 . S
C511 H517 0.959 . S
C511 H518 0.961 1_545 S
C511 H519 0.960 . S
C512 C510 1.381 . S
C512 C513 1.394 . S
C512 H520 0.930 . S
C513 C512 1.394 . S
C513 C514 1.383 . S
C513 H521 0.929 . S
C514 C513 1.383 . S
C514 C515 1.377 . S
C515 H499 0.930 . S
C515 C514 1.377 . S
C515 C516 1.379 . S
C516 H500 0.931 . S
C516 C510 1.383 . S
C516 C515 1.379 . S
H517 C511 0.959 . S
H518 C511 0.961 1_565 S
H519 C511 0.960 . S
H520 C512 0.930 . S
H521 C513 0.929 . S
H522 C530 0.929 . S
H523 C532 0.930 . S
H524 C534 0.930 . S
H525 C537 0.929 . S
H526 C540 0.930 . S
H527 C542 0.960 . S
H528 C542 0.960 . S
H529 C542 0.960 . S
C530 H522 0.929 . S
C530 C531 1.377 . S
C530 C532 1.384 . S
C531 C530 1.377 . S
C531 C537 1.390 . S
C532 H523 0.930 . S
C532 C530 1.384 . S
C532 C533 1.372 . S
C533 C532 1.372 . S
C533 C534 1.400 . S
C533 C538 1.490 . S
C534 H524 0.930 . S
C534 C533 1.400 . S
C534 C537 1.386 . S
H535 C551 0.930 . S
H536 C552 0.931 . S
C537 H525 0.929 . S
C537 C531 1.390 . S
C537 C534 1.386 . S
C538 C533 1.490 . S
C538 C540 1.395 . S
C538 C541 1.403 . S
H539 C545 0.930 . S
C540 H526 0.930 . S
C540 C538 1.395 . S
C540 C543 1.403 . S
C541 C538 1.403 . S
C541 C542 1.524 . S
C541 C545 1.400 . S
C542 H527 0.960 . S
C542 H528 0.960 . S
C542 H529 0.960 . S
C542 C541 1.524 . S
C543 C540 1.403 . S
C543 C544 1.392 . S
C543 C547 1.495 . S
C544 C543 1.392 . S
C544 C545 1.385 . S
C544 C546 1.478 . S
C545 H539 0.930 . S
C545 C541 1.400 . S
C545 C544 1.385 . S
C546 C544 1.478 . S
C546 C548 1.381 . S
C546 C552 1.383 . S
C547 C543 1.495 . S
C547 H553 0.959 . S
C547 H554 0.961 . S
C547 H555 0.960 . S
C548 C546 1.381 . S
C548 C549 1.394 . S
C548 H556 0.930 . S
C549 C548 1.394 . S
C549 C550 1.383 . S
C549 H557 0.929 . S
C550 C549 1.383 . S
C550 C551 1.377 . S
C551 H535 0.930 . S
C551 C550 1.377 . S
C551 C552 1.379 . S
C552 H536 0.931 . S
C552 C546 1.383 . S
C552 C551 1.379 . S
H553 C547 0.959 . S
H554 C547 0.961 . S
H555 C547 0.960 . S
H556 C548 0.930 . S
H557 C549 0.929 . S
H558 C566 0.929 . S
H559 C568 0.930 . S
H560 C570 0.930 . S
H561 C573 0.929 . S
H562 C576 0.930 . S
H563 C578 0.960 . S
H564 C578 0.960 . S
H565 C578 0.960 . S
C566 H558 0.929 . S
C566 C567 1.377 . S
C566 C568 1.384 . S
C567 C566 1.377 . S
C567 C573 1.390 . S
C568 H559 0.930 . S
C568 C566 1.384 . S
C568 C569 1.372 . S
C569 C568 1.372 . S
C569 C570 1.400 . S
C569 C574 1.490 . S
C570 H560 0.930 . S
C570 C569 1.400 . S
C570 C573 1.386 . S
H571 C587 0.930 . S
H572 C588 0.931 . S
C573 H561 0.929 . S
C573 C567 1.390 . S
C573 C570 1.386 . S
C574 C569 1.490 . S
C574 C576 1.395 . S
C574 C577 1.403 . S
H575 C581 0.930 . S
C576 H562 0.930 . S
C576 C574 1.395 . S
C576 C579 1.403 . S
C577 C574 1.403 . S
C577 C578 1.524 . S
C577 C581 1.400 . S
C578 H563 0.960 . S
C578 H564 0.960 . S
C578 H565 0.960 . S
C578 C577 1.524 . S
C579 C576 1.403 . S
C579 C580 1.392 . S
C579 C583 1.495 . S
C580 C579 1.392 . S
C580 C581 1.385 . S
C580 C582 1.478 . S
C581 H575 0.930 . S
C581 C577 1.400 . S
C581 C580 1.385 . S
C582 C580 1.478 . S
C582 C584 1.381 . S
C582 C588 1.383 . S
C583 C579 1.495 . S
C583 H589 0.959 . S
C583 H590 0.961 . S
C583 H591 0.960 . S
C584 C582 1.381 . S
C584 C585 1.394 . S
C584 H592 0.930 . S
C585 C584 1.394 . S
C585 C586 1.383 . S
C585 H593 0.929 . S
C586 C585 1.383 . S
C586 C587 1.377 . S
C587 H571 0.930 . S
C587 C586 1.377 . S
C587 C588 1.379 . S
C588 H572 0.931 . S
C588 C582 1.383 . S
C588 C587 1.379 . S
H589 C583 0.959 . S
H590 C583 0.961 . S
H591 C583 0.960 . S
H592 C584 0.930 . S
H593 C585 0.929 . S
H594 C602 0.929 . S
H595 C604 0.930 . S
H596 C606 0.930 . S
H597 C609 0.929 . S
H598 C612 0.930 . S
H599 C614 0.960 . S
H600 C614 0.960 . S
H601 C614 0.960 . S
C602 H594 0.929 . S
C602 C603 1.377 . S
C602 C604 1.384 . S
C603 C602 1.377 . S
C603 C609 1.390 . S
C604 H595 0.930 . S
C604 C602 1.384 . S
C604 C605 1.372 . S
C605 C604 1.372 . S
C605 C606 1.400 . S
C605 C610 1.490 . S
C606 H596 0.930 . S
C606 C605 1.400 . S
C606 C609 1.386 . S
H607 C623 0.930 . S
H608 C624 0.931 . S
C609 H597 0.929 . S
C609 C603 1.390 . S
C609 C606 1.386 . S
C610 C605 1.490 . S
C610 C612 1.395 . S
C610 C613 1.403 . S
H611 C617 0.930 . S
C612 H598 0.930 . S
C612 C610 1.395 . S
C612 C615 1.403 . S
C613 C610 1.403 . S
C613 C614 1.524 . S
C613 C617 1.400 . S
C614 H599 0.960 . S
C614 H600 0.960 . S
C614 H601 0.960 . S
C614 C613 1.524 . S
C615 C612 1.403 . S
C615 C616 1.392 . S
C615 C619 1.495 . S
C616 C615 1.392 . S
C616 C617 1.385 . S
C616 C618 1.478 . S
C617 H611 0.930 . S
C617 C613 1.400 . S
C617 C616 1.385 . S
C618 C616 1.478 . S
C618 C620 1.381 . S
C618 C624 1.383 . S
C619 C615 1.495 . S
C619 H625 0.959 . S
C619 H626 0.961 . S
C619 H627 0.960 . S
C620 C618 1.381 . S
C620 C621 1.394 . S
C620 H628 0.930 . S
C621 C620 1.394 . S
C621 C622 1.383 . S
C621 H629 0.929 . S
C622 C621 1.383 . S
C622 C623 1.377 . S
C623 H607 0.930 . S
C623 C622 1.377 . S
C623 C624 1.379 . S
C624 H608 0.931 . S
C624 C618 1.383 . S
C624 C623 1.379 . S
H625 C619 0.959 . S
H626 C619 0.961 . S
H627 C619 0.960 . S
H628 C620 0.930 . S
H629 C621 0.929 . S
H630 C638 0.929 . S
H631 C640 0.930 . S
H632 C642 0.930 . S
H633 C645 0.929 . S
H634 C648 0.930 . S
H635 C650 0.960 . S
H636 C650 0.960 . S
H637 C650 0.960 . S
C638 H630 0.929 . S
C638 C639 1.377 . S
C638 C640 1.384 . S
C639 C638 1.377 . S
C639 C645 1.390 . S
C640 H631 0.930 . S
C640 C638 1.384 . S
C640 C641 1.372 . S
C641 C640 1.372 . S
C641 C642 1.400 . S
C641 C646 1.490 . S
C642 H632 0.930 . S
C642 C641 1.400 . S
C642 C645 1.386 . S
H643 C659 0.930 . S
H644 C660 0.931 . S
C645 H633 0.929 . S
C645 C639 1.390 . S
C645 C642 1.386 . S
C646 C641 1.490 . S
C646 C648 1.395 . S
C646 C649 1.403 . S
H647 C653 0.930 . S
C648 H634 0.930 . S
C648 C646 1.395 . S
C648 C651 1.403 . S
C649 C646 1.403 . S
C649 C650 1.524 . S
C649 C653 1.400 . S
C650 H635 0.960 . S
C650 H636 0.960 . S
C650 H637 0.960 . S
C650 C649 1.524 . S
C651 C648 1.403 . S
C651 C652 1.392 . S
C651 C655 1.495 . S
C652 C651 1.392 . S
C652 C653 1.385 . S
C652 C654 1.478 . S
C653 H647 0.930 . S
C653 C649 1.400 . S
C653 C652 1.385 . S
C654 C652 1.478 . S
C654 C656 1.381 . S
C654 C660 1.383 . S
C655 C651 1.495 . S
C655 H661 0.959 . S
C655 H662 0.961 . S
C655 H663 0.960 . S
C656 C654 1.381 . S
C656 C657 1.394 . S
C656 H664 0.930 . S
C657 C656 1.394 . S
C657 C658 1.383 . S
C657 H665 0.929 . S
C658 C657 1.383 . S
C658 C659 1.377 . S
C659 H643 0.930 . S
C659 C658 1.377 . S
C659 C660 1.379 . S
C660 H644 0.931 . S
C660 C654 1.383 . S
C660 C659 1.379 . S
H661 C655 0.959 . S
H662 C655 0.961 . S
H663 C655 0.960 . S
H664 C656 0.930 . S
H665 C657 0.929 . S
H666 C674 0.929 . S
H667 C676 0.930 . S
H668 C678 0.930 . S
H669 C681 0.929 . S
H670 C684 0.930 . S
H671 C686 0.960 . S
H672 C686 0.960 . S
H673 C686 0.960 . S
C674 H666 0.929 . S
C674 C675 1.377 . S
C674 C676 1.384 . S
C675 C674 1.377 . S
C675 C681 1.390 . S
C676 H667 0.930 . S
C676 C674 1.384 . S
C676 C677 1.372 . S
C677 C676 1.372 . S
C677 C678 1.400 . S
C677 C682 1.490 . S
C678 H668 0.930 . S
C678 C677 1.400 . S
C678 C681 1.386 . S
H679 C695 0.930 . S
H680 C696 0.931 . S
C681 H669 0.929 . S
C681 C675 1.390 . S
C681 C678 1.386 . S
C682 C677 1.490 . S
C682 C684 1.395 . S
C682 C685 1.403 . S
H683 C689 0.930 . S
C684 H670 0.930 . S
C684 C682 1.395 . S
C684 C687 1.403 . S
C685 C682 1.403 . S
C685 C686 1.524 . S
C685 C689 1.400 . S
C686 H671 0.960 . S
C686 H672 0.960 . S
C686 H673 0.960 . S
C686 C685 1.524 . S
C687 C684 1.403 . S
C687 C688 1.392 . S
C687 C691 1.495 . S
C688 C687 1.392 . S
C688 C689 1.385 . S
C688 C690 1.478 . S
C689 H683 0.930 . S
C689 C685 1.400 . S
C689 C688 1.385 . S
C690 C688 1.478 . S
C690 C692 1.381 . S
C690 C696 1.383 . S
C691 C687 1.495 . S
C691 H697 0.959 . S
C691 H698 0.961 . S
C691 H699 0.960 . S
C692 C690 1.381 . S
C692 C693 1.394 . S
C692 H700 0.930 . S
C693 C692 1.394 . S
C693 C694 1.383 . S
C693 H701 0.929 . S
C694 C693 1.383 . S
C694 C695 1.377 . S
C695 H679 0.930 . S
C695 C694 1.377 . S
C695 C696 1.379 . S
C696 H680 0.931 . S
C696 C690 1.383 . S
C696 C695 1.379 . S
H697 C691 0.959 . S
H698 C691 0.961 . S
H699 C691 0.960 . S
H700 C692 0.930 . S
H701 C693 0.929 . S
H702 C710 0.929 . S
H703 C712 0.930 . S
H704 C714 0.930 . S
H705 C717 0.929 . S
H706 C720 0.930 . S
H707 C722 0.960 . S
H708 C722 0.960 . S
H709 C722 0.960 . S
C710 H702 0.929 . S
C710 C711 1.377 . S
C710 C712 1.384 . S
C711 C710 1.377 . S
C711 C717 1.390 . S
C712 H703 0.930 . S
C712 C710 1.384 . S
C712 C713 1.372 . S
C713 C712 1.372 . S
C713 C714 1.400 . S
C713 C718 1.490 . S
C714 H704 0.930 . S
C714 C713 1.400 . S
C714 C717 1.386 . S
H715 C731 0.930 . S
H716 C732 0.931 . S
C717 H705 0.929 . S
C717 C711 1.390 . S
C717 C714 1.386 . S
C718 C713 1.490 . S
C718 C720 1.395 . S
C718 C721 1.403 . S
H719 C725 0.930 . S
C720 H706 0.930 . S
C720 C718 1.395 . S
C720 C723 1.403 . S
C721 C718 1.403 . S
C721 C722 1.524 . S
C721 C725 1.400 . S
C722 H707 0.960 . S
C722 H708 0.960 . S
C722 H709 0.960 . S
C722 C721 1.524 . S
C723 C720 1.403 . S
C723 C724 1.392 . S
C723 C727 1.495 . S
C724 C723 1.392 . S
C724 C725 1.385 . S
C724 C726 1.478 . S
C725 H719 0.930 . S
C725 C721 1.400 . S
C725 C724 1.385 . S
C726 C724 1.478 . S
C726 C728 1.381 . S
C726 C732 1.383 . S
C727 C723 1.495 . S
C727 H733 0.959 . S
C727 H734 0.961 . S
C727 H735 0.960 . S
C728 C726 1.381 . S
C728 C729 1.394 . S
C728 H736 0.930 . S
C729 C728 1.394 . S
C729 C730 1.383 . S
C729 H737 0.929 . S
C730 C729 1.383 . S
C730 C731 1.377 . S
C731 H715 0.930 . S
C731 C730 1.377 . S
C731 C732 1.379 . S
C732 H716 0.931 . S
C732 C726 1.383 . S
C732 C731 1.379 . S
H733 C727 0.959 . S
H734 C727 0.961 . S
H735 C727 0.960 . S
H736 C728 0.930 . S
H737 C729 0.929 . S
H738 C746 0.929 . S
H739 C748 0.930 . S
H740 C750 0.930 . S
H741 C753 0.929 . S
H742 C756 0.930 . S
H743 C758 0.960 . S
H744 C758 0.960 . S
H745 C758 0.960 . S
C746 H738 0.929 . S
C746 C747 1.377 . S
C746 C748 1.384 . S
C747 C746 1.377 . S
C747 C753 1.390 . S
C748 H739 0.930 . S
C748 C746 1.384 . S
C748 C749 1.372 . S
C749 C748 1.372 . S
C749 C750 1.400 . S
C749 C754 1.490 . S
C750 H740 0.930 . S
C750 C749 1.400 . S
C750 C753 1.386 . S
H751 C767 0.930 . S
H752 C768 0.931 . S
C753 H741 0.929 . S
C753 C747 1.390 . S
C753 C750 1.386 . S
C754 C749 1.490 . S
C754 C756 1.395 . S
C754 C757 1.403 . S
H755 C761 0.930 . S
C756 H742 0.930 . S
C756 C754 1.395 . S
C756 C759 1.403 . S
C757 C754 1.403 . S
C757 C758 1.524 . S
C757 C761 1.400 . S
C758 H743 0.960 . S
C758 H744 0.960 . S
C758 H745 0.960 . S
C758 C757 1.524 . S
C759 C756 1.403 . S
C759 C760 1.392 . S
C759 C763 1.495 1_565 S
C760 C759 1.392 . S
C760 C761 1.385 . S
C760 C762 1.478 1_565 S
C761 H755 0.930 . S
C761 C757 1.400 . S
C761 C760 1.385 . S
C762 C760 1.478 1_545 S
C762 C764 1.381 . S
C762 C768 1.383 . S
C763 C759 1.495 1_545 S
C763 H769 0.969 . S
C763 H770 0.961 . S
C763 H771 0.960 . S
C764 C762 1.381 . S
C764 C765 1.394 . S
C764 H772 0.930 . S
C765 C764 1.394 . S
C765 C766 1.383 . S
C765 H773 0.929 . S
C766 C765 1.383 . S
C766 C767 1.377 . S
C767 H751 0.930 . S
C767 C766 1.377 . S
C767 C768 1.379 . S
C768 H752 0.931 . S
C768 C762 1.383 . S
C768 C767 1.379 . S
H769 C763 0.969 . S
H770 C763 0.961 . S
H771 C763 0.960 . S
H772 C764 0.930 . S
H773 C765 0.929 . S
H774 C782 0.929 . S
H775 C784 0.930 . S
H776 C786 0.930 . S
H777 C789 0.929 . S
H778 C792 0.930 . S
H779 C794 0.960 1_455 S
H780 C794 0.960 . S
H781 C794 0.962 . S
C782 H774 0.929 . S
C782 C783 1.377 . S
C782 C784 1.384 . S
C783 C782 1.377 . S
C783 C789 1.390 . S
C784 H775 0.930 . S
C784 C782 1.384 . S
C784 C785 1.372 . S
C785 C784 1.372 . S
C785 C786 1.400 . S
C785 C790 1.490 1_655 S
C786 H776 0.930 . S
C786 C785 1.400 . S
C786 C789 1.386 . S
H787 C803 0.930 . S
H788 C804 0.931 . S
C789 H777 0.929 . S
C789 C783 1.390 . S
C789 C786 1.386 . S
C790 C785 1.490 1_455 S
C790 C792 1.395 . S
C790 C793 1.403 . S
H791 C797 0.930 . S
C792 H778 0.930 . S
C792 C790 1.395 . S
C792 C795 1.403 . S
C793 C790 1.403 . S
C793 C794 1.521 1_455 S
C793 C797 1.400 . S
C794 H779 0.960 1_655 S
C794 H780 0.960 . S
C794 H781 0.962 . S
C794 C793 1.521 1_655 S
C795 C792 1.403 . S
C795 C796 1.392 . S
C795 C799 1.495 . S
C796 C795 1.392 . S
C796 C797 1.385 . S
C796 C798 1.478 . S
C797 H791 0.930 . S
C797 C793 1.400 . S
C797 C796 1.385 . S
C798 C796 1.478 . S
C798 C800 1.381 . S
C798 C804 1.383 . S
C799 C795 1.495 . S
C799 H805 0.959 . S
C799 H806 0.961 . S
C799 H807 0.960 . S
C800 C798 1.381 . S
C800 C801 1.394 . S
C800 H808 0.930 . S
C801 C800 1.394 . S
C801 C802 1.383 1_565 S
C801 H809 0.929 . S
C802 C801 1.383 1_545 S
C802 C803 1.377 . S
C803 H787 0.930 . S
C803 C802 1.377 . S
C803 C804 1.379 1_545 S
C804 H788 0.931 . S
C804 C798 1.383 . S
C804 C803 1.379 1_565 S
H805 C799 0.959 . S
H806 C799 0.961 . S
H807 C799 0.960 . S
H808 C800 0.930 . S
H809 C801 0.929 . S
H810 C818 0.929 . S
H811 C820 0.930 . S
H812 C822 0.930 . S
H813 C825 0.929 . S
H814 C828 0.930 . S
H815 C830 0.960 . S
H816 C830 0.960 . S
H817 C830 0.960 . S
C818 H810 0.929 . S
C818 C819 1.377 . S
C818 C820 1.384 . S
C819 C818 1.377 . S
C819 C825 1.390 . S
C820 H811 0.930 . S
C820 C818 1.384 . S
C820 C821 1.372 . S
C821 C820 1.372 . S
C821 C822 1.400 . S
C821 C826 1.490 . S
C822 H812 0.930 . S
C822 C821 1.400 . S
C822 C825 1.386 . S
H823 C839 0.930 . S
H824 C840 0.931 . S
C825 H813 0.929 . S
C825 C819 1.390 . S
C825 C822 1.386 . S
C826 C821 1.490 . S
C826 C828 1.395 . S
C826 C829 1.403 . S
H827 C833 0.930 . S
C828 H814 0.930 . S
C828 C826 1.395 . S
C828 C831 1.403 . S
C829 C826 1.403 . S
C829 C830 1.524 . S
C829 C833 1.400 . S
C830 H815 0.960 . S
C830 H816 0.960 . S
C830 H817 0.960 . S
C830 C829 1.524 . S
C831 C828 1.403 . S
C831 C832 1.392 . S
C831 C835 1.495 . S
C832 C831 1.392 . S
C832 C833 1.385 . S
C832 C834 1.478 . S
C833 H827 0.930 . S
C833 C829 1.400 . S
C833 C832 1.385 . S
C834 C832 1.478 . S
C834 C836 1.381 . S
C834 C840 1.383 . S
C835 C831 1.495 . S
C835 H841 0.959 . S
C835 H842 0.961 . S
C835 H843 0.960 . S
C836 C834 1.381 . S
C836 C837 1.394 . S
C836 H844 0.930 . S
C837 C836 1.394 . S
C837 C838 1.387 . S
C837 H845 0.929 . S
C838 C837 1.387 . S
C838 C839 1.379 . S
C839 H823 0.930 . S
C839 C838 1.379 . S
C839 C840 1.379 . S
C840 H824 0.931 . S
C840 C834 1.383 . S
C840 C839 1.379 . S
H841 C835 0.959 . S
H842 C835 0.961 . S
H843 C835 0.960 . S
H844 C836 0.930 . S
H845 C837 0.929 . S
H846 C854 0.929 . S
H847 C856 0.930 . S
H848 C858 0.930 . S
H849 C861 0.929 . S
H850 C864 0.930 . S
H851 C866 0.960 . S
H852 C866 0.960 . S
H853 C866 0.960 . S
C854 H846 0.929 . S
C854 C855 1.377 . S
C854 C856 1.384 . S
C855 C854 1.377 . S
C855 C861 1.390 . S
C856 H847 0.930 . S
C856 C854 1.384 . S
C856 C857 1.372 . S
C857 C856 1.372 . S
C857 C858 1.400 . S
C857 C862 1.490 . S
C858 H848 0.930 . S
C858 C857 1.400 . S
C858 C861 1.386 . S
H859 C875 0.930 . S
H860 C876 0.931 . S
C861 H849 0.929 . S
C861 C855 1.390 . S
C861 C858 1.386 . S
C862 C857 1.490 . S
C862 C864 1.395 . S
C862 C865 1.403 . S
H863 C869 0.930 . S
C864 H850 0.930 . S
C864 C862 1.395 . S
C864 C867 1.403 . S
C865 C862 1.403 . S
C865 C866 1.524 . S
C865 C869 1.400 . S
C866 H851 0.960 . S
C866 H852 0.960 . S
C866 H853 0.960 . S
C866 C865 1.524 . S
C867 C864 1.403 . S
C867 C868 1.392 . S
C867 C871 1.495 1_455 S
C868 C867 1.392 . S
C868 C869 1.385 . S
C868 C870 1.478 . S
C869 H863 0.930 . S
C869 C865 1.400 . S
C869 C868 1.385 . S
C870 C868 1.478 . S
C870 C872 1.381 . S
C870 C876 1.383 . S
C871 C867 1.495 1_655 S
C871 H877 0.959 . S
C871 H878 0.961 . S
C871 H879 0.960 . S
C872 C870 1.381 . S
C872 C873 1.394 . S
C872 H880 0.930 . S
C873 C872 1.394 . S
C873 C874 1.383 . S
C873 H881 0.929 . S
C874 C873 1.383 . S
C874 C875 1.377 . S
C875 H859 0.930 . S
C875 C874 1.377 . S
C875 C876 1.379 . S
C876 H860 0.931 . S
C876 C870 1.383 . S
C876 C875 1.379 . S
H877 C871 0.959 . S
H878 C871 0.961 . S
H879 C871 0.960 . S
H880 C872 0.930 . S
H881 C873 0.929 . S
H882 C890 0.929 . S
H883 C892 0.930 . S
H884 C894 0.930 . S
H885 C897 0.929 . S
H886 C900 0.930 . S
H887 C902 0.960 . S
H888 C902 0.960 . S
H889 C902 0.960 . S
C890 H882 0.929 . S
C890 C891 1.377 . S
C890 C892 1.384 . S
C891 C890 1.377 . S
C891 C897 1.390 . S
C892 H883 0.930 . S
C892 C890 1.384 . S
C892 C893 1.372 . S
C893 C892 1.372 . S
C893 C894 1.400 . S
C893 C898 1.490 . S
C894 H884 0.930 . S
C894 C893 1.400 . S
C894 C897 1.386 . S
H895 C911 0.930 . S
H896 C912 0.931 . S
C897 H885 0.929 . S
C897 C891 1.390 . S
C897 C894 1.386 . S
C898 C893 1.490 . S
C898 C900 1.395 . S
C898 C901 1.403 . S
H899 C905 0.930 . S
C900 H886 0.930 . S
C900 C898 1.395 . S
C900 C903 1.403 . S
C901 C898 1.403 . S
C901 C902 1.524 . S
C901 C905 1.400 . S
C902 H887 0.960 . S
C902 H888 0.960 . S
C902 H889 0.960 . S
C902 C901 1.524 . S
C903 C900 1.403 . S
C903 C904 1.392 . S
C903 C907 1.495 . S
C904 C903 1.392 . S
C904 C905 1.385 . S
C904 C906 1.478 . S
C905 H899 0.930 . S
C905 C901 1.400 . S
C905 C904 1.385 . S
C906 C904 1.478 . S
C906 C908 1.381 . S
C906 C912 1.383 . S
C907 C903 1.495 . S
C907 H913 0.959 . S
C907 H914 0.961 . S
C907 H915 0.960 . S
C908 C906 1.381 . S
C908 C909 1.394 . S
C908 H916 0.930 . S
C909 C908 1.394 . S
C909 C910 1.383 . S
C909 H917 0.929 . S
C910 C909 1.383 . S
C910 C911 1.377 . S
C911 H895 0.930 . S
C911 C910 1.377 . S
C911 C912 1.379 . S
C912 H896 0.931 . S
C912 C906 1.383 . S
C912 C911 1.379 . S
H913 C907 0.959 . S
H914 C907 0.961 . S
H915 C907 0.960 . S
H916 C908 0.930 . S
H917 C909 0.929 . S
H918 C926 0.929 . S
H919 C928 0.953 . S
H920 C930 0.930 . S
H921 C933 0.929 . S
H922 C936 0.930 . S
H923 C938 0.960 . S
H924 C938 0.960 . S
H925 C938 0.960 . S
C926 H918 0.929 . S
C926 C927 1.377 1_545 S
C926 C928 1.383 . S
C927 C926 1.377 1_565 S
C927 C933 1.390 . S
C928 H919 0.953 . S
C928 C926 1.383 . S
C928 C929 1.350 1_545 S
C929 C928 1.350 1_565 S
C929 C930 1.400 . S
C929 C934 1.490 . S
C930 H920 0.930 . S
C930 C929 1.400 . S
C930 C933 1.386 . S
H931 C947 0.930 . S
H932 C948 0.931 . S
C933 H921 0.929 . S
C933 C927 1.390 . S
C933 C930 1.386 . S
C934 C929 1.490 . S
C934 C936 1.395 . S
C934 C937 1.403 . S
H935 C941 0.930 . S
C936 H922 0.930 . S
C936 C934 1.395 . S
C936 C939 1.403 . S
C937 C934 1.403 . S
C937 C938 1.524 . S
C937 C941 1.400 . S
C938 H923 0.960 . S
C938 H924 0.960 . S
C938 H925 0.960 . S
C938 C937 1.524 . S
C939 C936 1.403 . S
C939 C940 1.392 . S
C939 C943 1.495 . S
C940 C939 1.392 . S
C940 C941 1.385 . S
C940 C942 1.478 . S
C941 H935 0.930 . S
C941 C937 1.400 . S
C941 C940 1.385 . S
C942 C940 1.478 . S
C942 C944 1.381 . S
C942 C948 1.383 . S
C943 C939 1.495 . S
C943 H949 0.959 . S
C943 H950 0.961 . S
C943 H951 0.960 . S
C944 C942 1.381 . S
C944 C945 1.394 . S
C944 H952 0.930 . S
C945 C944 1.394 . S
C945 C946 1.383 . S
C945 H953 0.929 . S
C946 C945 1.383 . S
C946 C947 1.377 . S
C947 H931 0.930 . S
C947 C946 1.377 . S
C947 C948 1.379 . S
C948 H932 0.931 . S
C948 C942 1.383 . S
C948 C947 1.379 . S
H949 C943 0.959 . S
H950 C943 0.961 . S
H951 C943 0.960 . S
H952 C944 0.930 . S
H953 C945 0.929 . S
H954 C962 0.929 . S
H955 C964 0.930 . S
H956 C966 0.930 1_565 S
H957 C969 0.929 1_565 S
H958 C972 0.930 . S
H959 C974 0.960 . S
H960 C974 0.960 . S
H961 C974 0.938 1_565 S
C962 H954 0.929 . S
C962 C963 1.377 . S
C962 C964 1.384 . S
C963 C962 1.377 . S
C963 C969 1.390 . S
C964 H955 0.930 . S
C964 C962 1.384 . S
C964 C965 1.372 . S
C965 C964 1.372 . S
C965 C966 1.400 . S
C965 C970 1.490 . S
C966 H956 0.930 1_545 S
C966 C965 1.400 . S
C966 C969 1.386 . S
H967 C983 0.930 . S
H968 C984 0.931 . S
C969 H957 0.929 1_545 S
C969 C963 1.390 . S
C969 C966 1.386 . S
C970 C965 1.490 . S
C970 C972 1.395 . S
C970 C973 1.403 . S
H971 C977 0.930 . S
C972 H958 0.930 . S
C972 C970 1.395 . S
C972 C975 1.403 . S
C973 C970 1.403 . S
C973 C974 1.524 . S
C973 C977 1.400 . S
C974 H959 0.960 . S
C974 H960 0.960 . S
C974 H961 0.938 1_545 S
C974 C973 1.524 . S
C975 C972 1.403 . S
C975 C976 1.392 . S
C975 C979 1.495 . S
C976 C975 1.392 . S
C976 C977 1.385 . S
C976 C978 1.478 . S
C977 H971 0.930 . S
C977 C973 1.400 . S
C977 C976 1.385 . S
C978 C976 1.478 . S
C978 C980 1.381 . S
C978 C984 1.383 . S
C979 C975 1.495 . S
C979 H985 0.959 . S
C979 H986 0.961 . S
C979 H987 0.960 . S
C980 C978 1.381 . S
C980 C981 1.394 . S
C980 H988 0.930 . S
C981 C980 1.394 . S
C981 C982 1.383 . S
C981 H989 0.929 . S
C982 C981 1.383 . S
C982 C983 1.377 . S
C983 H967 0.930 . S
C983 C982 1.377 . S
C983 C984 1.379 . S
C984 H968 0.931 . S
C984 C978 1.383 . S
C984 C983 1.379 . S
H985 C979 0.959 . S
H986 C979 0.961 . S
H987 C979 0.960 . S
H988 C980 0.930 . S
H989 C981 0.929 . S
H990 C998 0.929 . S
H991 C1000 0.930 . S
H992 C1002 0.930 . S
H993 C1005 0.929 . S
H994 C1008 0.930 . S
H995 C1010 0.960 . S
H996 C1010 0.960 . S
H997 C1010 0.960 . S
C998 H990 0.929 . S
C998 C999 1.377 . S
C998 C1000 1.384 . S
C999 C998 1.377 . S
C999 C1005 1.390 . S
C1000 H991 0.930 . S
C1000 C998 1.384 . S
C1000 C1001 1.372 . S
C1001 C1000 1.372 . S
C1001 C1002 1.400 . S
C1001 C1006 1.490 . S
C1002 H992 0.930 . S
C1002 C1001 1.400 . S
C1002 C1005 1.386 . S
H1003 C1019 0.930 . S
H1004 C1020 0.931 . S
C1005 H993 0.929 . S
C1005 C999 1.390 . S
C1005 C1002 1.386 . S
C1006 C1001 1.490 . S
C1006 C1008 1.395 . S
C1006 C1009 1.403 . S
H1007 C1013 0.930 . S
C1008 H994 0.930 . S
C1008 C1006 1.395 . S
C1008 C1011 1.403 . S
C1009 C1006 1.403 . S
C1009 C1010 1.524 1_655 S
C1009 C1013 1.400 . S
C1010 H995 0.960 . S
C1010 H996 0.960 . S
C1010 H997 0.960 . S
C1010 C1009 1.524 1_455 S
C1011 C1008 1.403 . S
C1011 C1012 1.392 . S
C1011 C1015 1.495 . S
C1012 C1011 1.392 . S
C1012 C1013 1.385 . S
C1012 C1014 1.478 . S
C1013 H1007 0.930 . S
C1013 C1009 1.400 . S
C1013 C1012 1.385 . S
C1014 C1012 1.478 . S
C1014 C1016 1.381 . S
C1014 C1020 1.383 . S
C1015 C1011 1.495 . S
C1015 H1021 0.959 . S
C1015 H1022 0.961 . S
C1015 H1023 0.960 . S
C1016 C1014 1.381 . S
C1016 C1017 1.394 . S
C1016 H1024 0.930 . S
C1017 C1016 1.394 . S
C1017 C1018 1.383 . S
C1017 H1025 0.929 . S
C1018 C1017 1.383 . S
C1018 C1019 1.377 . S
C1019 H1003 0.930 . S
C1019 C1018 1.377 . S
C1019 C1020 1.379 . S
C1020 H1004 0.931 . S
C1020 C1014 1.383 . S
C1020 C1019 1.379 . S
H1021 C1015 0.959 . S
H1022 C1015 0.961 . S
H1023 C1015 0.960 . S
H1024 C1016 0.930 . S
H1025 C1017 0.929 . S
H1026 C1034 0.929 . S
H1027 C1036 0.930 . S
H1028 C1038 0.930 . S
H1029 C1041 0.929 . S
H1030 C1044 0.930 . S
H1031 C1046 0.960 . S
H1032 C1046 0.960 . S
H1033 C1046 0.960 . S
C1034 H1026 0.929 . S
C1034 C1035 1.377 . S
C1034 C1036 1.384 . S
C1035 C1034 1.377 . S
C1035 C1041 1.390 . S
C1036 H1027 0.930 . S
C1036 C1034 1.384 . S
C1036 C1037 1.372 . S
C1037 C1036 1.372 . S
C1037 C1038 1.400 . S
C1037 C1042 1.490 . S
C1038 H1028 0.930 . S
C1038 C1037 1.400 . S
C1038 C1041 1.386 . S
H1039 C1055 0.930 . S
H1040 C1056 0.931 . S
C1041 H1029 0.929 . S
C1041 C1035 1.390 . S
C1041 C1038 1.386 . S
C1042 C1037 1.490 . S
C1042 C1044 1.395 . S
C1042 C1045 1.403 . S
H1043 C1049 0.930 . S
C1044 H1030 0.930 . S
C1044 C1042 1.395 . S
C1044 C1047 1.403 . S
C1045 C1042 1.403 . S
C1045 C1046 1.524 . S
C1045 C1049 1.400 . S
C1046 H1031 0.960 . S
C1046 H1032 0.960 . S
C1046 H1033 0.960 . S
C1046 C1045 1.524 . S
C1047 C1044 1.403 . S
C1047 C1048 1.392 . S
C1047 C1051 1.495 . S
C1048 C1047 1.392 . S
C1048 C1049 1.385 . S
C1048 C1050 1.478 . S
C1049 H1043 0.930 . S
C1049 C1045 1.400 . S
C1049 C1048 1.385 . S
C1050 C1048 1.478 . S
C1050 C1052 1.381 . S
C1050 C1056 1.383 . S
C1051 C1047 1.495 . S
C1051 H1057 0.959 . S
C1051 H1058 0.961 . S
C1051 H1059 0.960 . S
C1052 C1050 1.381 . S
C1052 C1053 1.394 . S
C1052 H1060 0.930 . S
C1053 C1052 1.394 . S
C1053 C1054 1.383 . S
C1053 H1061 0.929 . S
C1054 C1053 1.383 . S
C1054 C1055 1.377 . S
C1055 H1039 0.930 . S
C1055 C1054 1.377 . S
C1055 C1056 1.379 . S
C1056 H1040 0.931 . S
C1056 C1050 1.383 . S
C1056 C1055 1.379 . S
H1057 C1051 0.959 . S
H1058 C1051 0.961 . S
H1059 C1051 0.960 . S
H1060 C1052 0.930 . S
H1061 C1053 0.929 . S
H1062 C1070 0.929 . S
H1063 C1072 0.930 . S
H1064 C1074 0.930 . S
H1065 C1077 0.929 . S
H1066 C1080 0.930 . S
H1067 C1082 0.960 . S
H1068 C1082 0.960 . S
H1069 C1082 0.960 . S
C1070 H1062 0.929 . S
C1070 C1071 1.377 . S
C1070 C1072 1.384 . S
C1071 C1070 1.377 . S
C1071 C1077 1.390 . S
C1072 H1063 0.930 . S
C1072 C1070 1.384 . S
C1072 C1073 1.372 . S
C1073 C1072 1.372 . S
C1073 C1074 1.400 . S
C1073 C1078 1.490 . S
C1074 H1064 0.930 . S
C1074 C1073 1.400 . S
C1074 C1077 1.386 . S
H1075 C1091 0.930 . S
H1076 C1092 0.931 . S
C1077 H1065 0.929 . S
C1077 C1071 1.390 . S
C1077 C1074 1.386 . S
C1078 C1073 1.490 . S
C1078 C1080 1.395 . S
C1078 C1081 1.403 . S
H1079 C1085 0.930 . S
C1080 H1066 0.930 . S
C1080 C1078 1.395 . S
C1080 C1083 1.403 . S
C1081 C1078 1.403 . S
C1081 C1082 1.524 . S
C1081 C1085 1.400 . S
C1082 H1067 0.960 . S
C1082 H1068 0.960 . S
C1082 H1069 0.960 . S
C1082 C1081 1.524 . S
C1083 C1080 1.403 . S
C1083 C1084 1.392 . S
C1083 C1087 1.495 . S
C1084 C1083 1.392 . S
C1084 C1085 1.385 . S
C1084 C1086 1.478 . S
C1085 H1079 0.930 . S
C1085 C1081 1.400 . S
C1085 C1084 1.385 . S
C1086 C1084 1.478 . S
C1086 C1088 1.381 . S
C1086 C1092 1.383 . S
C1087 C1083 1.495 . S
C1087 H1093 0.959 . S
C1087 H1094 0.961 . S
C1087 H1095 0.960 . S
C1088 C1086 1.381 . S
C1088 C1089 1.394 . S
C1088 H1096 0.930 . S
C1089 C1088 1.394 . S
C1089 C1090 1.383 . S
C1089 H1097 0.929 . S
C1090 C1089 1.383 . S
C1090 C1091 1.377 . S
C1091 H1075 0.930 . S
C1091 C1090 1.377 . S
C1091 C1092 1.379 . S
C1092 H1076 0.931 . S
C1092 C1086 1.383 . S
C1092 C1091 1.379 . S
H1093 C1087 0.959 . S
H1094 C1087 0.961 . S
H1095 C1087 0.960 . S
H1096 C1088 0.930 . S
H1097 C1089 0.929 . S
H1098 C1106 0.929 1_545 S
H1099 C1108 0.930 . S
H1100 C1110 0.930 . S
H1101 C1113 0.929 . S
H1102 C1116 0.930 . S
H1103 C1118 0.960 . S
H1104 C1118 0.971 . S
H1105 C1118 0.960 . S
C1106 H1098 0.929 1_565 S
C1106 C1107 1.377 . S
C1106 C1108 1.384 1_565 S
C1107 C1106 1.377 . S
C1107 C1113 1.390 . S
C1108 H1099 0.930 . S
C1108 C1106 1.384 1_545 S
C1108 C1109 1.372 1_545 S
C1109 C1108 1.372 1_565 S
C1109 C1110 1.400 . S
C1109 C1114 1.490 . S
C1110 H1100 0.930 . S
C1110 C1109 1.400 . S
C1110 C1113 1.386 . S
H1111 C1127 0.930 . S
H1112 C1128 0.931 1_565 S
C1113 H1101 0.929 . S
C1113 C1107 1.390 . S
C1113 C1110 1.386 . S
C1114 C1109 1.490 . S
C1114 C1116 1.395 1_565 S
C1114 C1117 1.403 . S
H1115 C1121 0.930 . S
C1116 H1102 0.930 . S
C1116 C1114 1.395 1_545 S
C1116 C1119 1.403 . S
C1117 C1114 1.403 . S
C1117 C1118 1.524 . S
C1117 C1121 1.400 1_565 S
C1118 H1103 0.960 . S
C1118 H1104 0.971 . S
C1118 H1105 0.960 . S
C1118 C1117 1.524 . S
C1119 C1116 1.403 . S
C1119 C1120 1.392 . S
C1119 C1123 1.495 . S
C1120 C1119 1.392 . S
C1120 C1121 1.385 . S
C1120 C1122 1.478 . S
C1121 H1115 0.930 . S
C1121 C1117 1.400 1_545 S
C1121 C1120 1.385 . S
C1122 C1120 1.478 . S
C1122 C1124 1.381 . S
C1122 C1128 1.383 . S
C1123 C1119 1.495 . S
C1123 H1129 0.959 . S
C1123 H1130 0.961 . S
C1123 H1131 0.960 . S
C1124 C1122 1.381 . S
C1124 C1125 1.394 . S
C1124 H1132 0.930 . S
C1125 C1124 1.394 . S
C1125 C1126 1.383 . S
C1125 H1133 0.929 . S
C1126 C1125 1.383 . S
C1126 C1127 1.377 . S
C1127 H1111 0.930 . S
C1127 C1126 1.377 . S
C1127 C1128 1.379 . S
C1128 H1112 0.931 1_545 S
C1128 C1122 1.383 . S
C1128 C1127 1.379 . S
H1129 C1123 0.959 . S
H1130 C1123 0.961 . S
H1131 C1123 0.960 . S
H1132 C1124 0.930 . S
H1133 C1125 0.929 . S
H1134 C1142 0.929 . S
H1135 C1144 0.930 1_455 S
H1136 C1146 0.930 . S
H1137 C1149 0.929 . S
H1138 C1152 0.930 . S
H1139 C1154 0.960 . S
H1140 C1154 0.960 . S
H1141 C1154 0.960 . S
C1142 H1134 0.929 . S
C1142 C1143 1.377 . S
C1142 C1144 1.384 . S
C1143 C1142 1.377 . S
C1143 C1149 1.390 . S
C1144 H1135 0.930 1_655 S
C1144 C1142 1.384 . S
C1144 C1145 1.372 . S
C1145 C1144 1.372 . S
C1145 C1146 1.400 . S
C1145 C1150 1.490 . S
C1146 H1136 0.930 . S
C1146 C1145 1.400 . S
C1146 C1149 1.386 . S
H1147 C1163 0.930 . S
H1148 C1164 0.931 . S
C1149 H1137 0.929 . S
C1149 C1143 1.390 . S
C1149 C1146 1.386 . S
C1150 C1145 1.490 . S
C1150 C1152 1.395 1_655 S
C1150 C1153 1.403 . S
H1151 C1157 0.930 . S
C1152 H1138 0.930 . S
C1152 C1150 1.395 1_455 S
C1152 C1155 1.403 . S
C1153 C1150 1.403 . S
C1153 C1154 1.524 . S
C1153 C1157 1.400 . S
C1154 H1139 0.960 . S
C1154 H1140 0.960 . S
C1154 H1141 0.960 . S
C1154 C1153 1.524 . S
C1155 C1152 1.403 . S
C1155 C1156 1.392 . S
C1155 C1159 1.495 . S
C1156 C1155 1.392 . S
C1156 C1157 1.385 1_455 S
C1156 C1158 1.478 . S
C1157 H1151 0.930 . S
C1157 C1153 1.400 . S
C1157 C1156 1.385 1_655 S
C1158 C1156 1.478 . S
C1158 C1160 1.381 . S
C1158 C1164 1.383 . S
C1159 C1155 1.495 . S
C1159 H1165 0.959 . S
C1159 H1166 0.961 . S
C1159 H1167 0.960 . S
C1160 C1158 1.381 . S
C1160 C1161 1.394 . S
C1160 H1168 0.930 . S
C1161 C1160 1.394 . S
C1161 C1162 1.383 . S
C1161 H1169 0.929 . S
C1162 C1161 1.383 . S
C1162 C1163 1.377 . S
C1163 H1147 0.930 . S
C1163 C1162 1.377 . S
C1163 C1164 1.379 . S
C1164 H1148 0.931 . S
C1164 C1158 1.383 . S
C1164 C1163 1.379 . S
H1165 C1159 0.959 . S
H1166 C1159 0.961 . S
H1167 C1159 0.960 . S
H1168 C1160 0.930 . S
H1169 C1161 0.929 . S
C207 C26 1.251 . S
C226 C5 1.312 . S
C243 C48 1.253 . S
C262 C27 1.314 . S
C279 C49 1.310 . S
C298 C4 1.214 . S
C315 C53 1.313 . S
C334 C30 1.263 . S
C351 C52 1.256 . S
C370 C9 1.318 . S
C387 C8 1.251 . S
C406 C31 1.310 . S
C423 C71 1.311 . S
C442 C92 1.221 . S
C459 C114 1.255 . S
C478 C93 1.316 . S
C495 C115 1.310 . S
C514 C70 1.210 . S
C531 C96 1.257 . S
C550 C119 1.318 . S
C567 C118 1.247 . S
C586 C75 1.307 . S
C603 C97 1.310 . S
C622 C74 1.214 . S
C639 C158 1.250 . S
C658 C137 1.309 . S
C675 C159 1.312 . S
C694 C180 1.240 . S
C711 C181 1.313 . S
C730 C136 1.270 . S
C747 C185 1.311 . S
C766 C162 1.224 . S
C783 C184 1.242 . S
C802 C141 1.300 . S
C819 C140 1.245 . S
C838 C163 1.298 1_455 S
C855 C117 1.346 . S
C874 C6 1.325 . S
C891 C73 1.353 . S
C910 C28 1.365 . S
C927 C50 1.346 . S
C946 C95 1.325 . S
C963 C51 1.352 . S
C982 C138 1.368 . S
C999 C7 1.346 . S
C1018 C160 1.352 . S
C1035 C182 1.348 . S
C1054 C29 1.326 . S
C1071 C72 1.353 . S
C1090 C183 1.348 . S
C1107 C94 1.349 . S
C1126 C139 1.363 . S
C1143 C161 1.345 . S
C1162 C116 1.344 . S
