# Generated by pormake.
# Topology unx, (4)-cn, num edge types: 1
# Building blocks:
#     Node 0, Type 0, BuildingBlock: CEKHIL_clean_sbu_0, # of connection points: 4
#     Node 1, Type 0, BuildingBlock: CEKHIL_clean_sbu_0, # of connection points: 4
#     Node 2, Type 0, BuildingBlock: CEKHIL_clean_sbu_0, # of connection points: 4
#     Node 3, Type 0, BuildingBlock: CEKHIL_clean_sbu_0, # of connection points: 4
#     Node 4, Type 0, BuildingBlock: CEKHIL_clean_sbu_0, # of connection points: 4
#     Node 5, Type 0, BuildingBlock: CEKHIL_clean_sbu_0, # of connection points: 4
#     Node 6, Type 0, BuildingBlock: CEKHIL_clean_sbu_0, # of connection points: 4
#     Node 7, Type 0, BuildingBlock: CEKHIL_clean_sbu_0, # of connection points: 4
#     Node 8, Type 0, BuildingBlock: CEKHIL_clean_sbu_0, # of connection points: 4
#     Node 9, Type 0, BuildingBlock: CEKHIL_clean_sbu_0, # of connection points: 4
#     Node 10, Type 0, BuildingBlock: CEKHIL_clean_sbu_0, # of connection points: 4
#     Node 11, Type 0, BuildingBlock: CEKHIL_clean_sbu_0, # of connection points: 4
#     Node 12, Type 0, BuildingBlock: CEKHIL_clean_sbu_0, # of connection points: 4
#     Node 13, Type 0, BuildingBlock: CEKHIL_clean_sbu_0, # of connection points: 4
#     Node 14, Type 0, BuildingBlock: CEKHIL_clean_sbu_0, # of connection points: 4
#     Node 15, Type 0, BuildingBlock: CEKHIL_clean_sbu_0, # of connection points: 4
#     Node 16, Type 0, BuildingBlock: CEKHIL_clean_sbu_0, # of connection points: 4
#     Node 17, Type 0, BuildingBlock: CEKHIL_clean_sbu_0, # of connection points: 4
#     Node 18, Type 0, BuildingBlock: CEKHIL_clean_sbu_0, # of connection points: 4
#     Node 19, Type 0, BuildingBlock: CEKHIL_clean_sbu_0, # of connection points: 4
#     Node 20, Type 0, BuildingBlock: CEKHIL_clean_sbu_0, # of connection points: 4
#     Node 21, Type 0, BuildingBlock: CEKHIL_clean_sbu_0, # of connection points: 4
#     Node 22, Type 0, BuildingBlock: CEKHIL_clean_sbu_0, # of connection points: 4
#     Node 23, Type 0, BuildingBlock: CEKHIL_clean_sbu_0, # of connection points: 4
#     Node 24, Type 0, BuildingBlock: CEKHIL_clean_sbu_0, # of connection points: 4
#     Node 25, Type 0, BuildingBlock: CEKHIL_clean_sbu_0, # of connection points: 4
#     Node 26, Type 0, BuildingBlock: CEKHIL_clean_sbu_0, # of connection points: 4
#     Node 27, Type 0, BuildingBlock: CEKHIL_clean_sbu_0, # of connection points: 4
#     Node 28, Type 0, BuildingBlock: CEKHIL_clean_sbu_0, # of connection points: 4
#     Node 29, Type 0, BuildingBlock: CEKHIL_clean_sbu_0, # of connection points: 4
#     Node 30, Type 0, BuildingBlock: CEKHIL_clean_sbu_0, # of connection points: 4
#     Node 31, Type 0, BuildingBlock: CEKHIL_clean_sbu_0, # of connection points: 4
#     Node 32, Type 0, BuildingBlock: CEKHIL_clean_sbu_0, # of connection points: 4
#     Node 33, Type 0, BuildingBlock: CEKHIL_clean_sbu_0, # of connection points: 4
#     Node 34, Type 0, BuildingBlock: CEKHIL_clean_sbu_0, # of connection points: 4
#     Node 35, Type 0, BuildingBlock: CEKHIL_clean_sbu_0, # of connection points: 4
#     Node 36, Type 0, BuildingBlock: CEKHIL_clean_sbu_0, # of connection points: 4
#     Node 37, Type 0, BuildingBlock: CEKHIL_clean_sbu_0, # of connection points: 4
#     Node 38, Type 0, BuildingBlock: CEKHIL_clean_sbu_0, # of connection points: 4
#     Node 39, Type 0, BuildingBlock: CEKHIL_clean_sbu_0, # of connection points: 4
#     Node 40, Type 0, BuildingBlock: CEKHIL_clean_sbu_0, # of connection points: 4
#     Node 41, Type 0, BuildingBlock: CEKHIL_clean_sbu_0, # of connection points: 4
#     Node 42, Type 0, BuildingBlock: CEKHIL_clean_sbu_0, # of connection points: 4
#     Node 43, Type 0, BuildingBlock: CEKHIL_clean_sbu_0, # of connection points: 4
#     Node 44, Type 0, BuildingBlock: CEKHIL_clean_sbu_0, # of connection points: 4
#     Node 45, Type 0, BuildingBlock: CEKHIL_clean_sbu_0, # of connection points: 4
#     Node 46, Type 0, BuildingBlock: CEKHIL_clean_sbu_0, # of connection points: 4
#     Node 47, Type 0, BuildingBlock: CEKHIL_clean_sbu_0, # of connection points: 4
#     Edge 48, Type (0, 0), BuildingBlock: ZUJKAS_clean_linker_0, # of connection points: 2
#     Edge 49, Type (0, 0), BuildingBlock: ZUJKAS_clean_linker_0, # of connection points: 2
#     Edge 50, Type (0, 0), BuildingBlock: ZUJKAS_clean_linker_0, # of connection points: 2
#     Edge 51, Type (0, 0), BuildingBlock: ZUJKAS_clean_linker_0, # of connection points: 2
#     Edge 52, Type (0, 0), BuildingBlock: ZUJKAS_clean_linker_0, # of connection points: 2
#     Edge 53, Type (0, 0), BuildingBlock: ZUJKAS_clean_linker_0, # of connection points: 2
#     Edge 54, Type (0, 0), BuildingBlock: ZUJKAS_clean_linker_0, # of connection points: 2
#     Edge 55, Type (0, 0), BuildingBlock: ZUJKAS_clean_linker_0, # of connection points: 2
#     Edge 56, Type (0, 0), BuildingBlock: ZUJKAS_clean_linker_0, # of connection points: 2
#     Edge 57, Type (0, 0), BuildingBlock: ZUJKAS_clean_linker_0, # of connection points: 2
#     Edge 58, Type (0, 0), BuildingBlock: ZUJKAS_clean_linker_0, # of connection points: 2
#     Edge 59, Type (0, 0), BuildingBlock: ZUJKAS_clean_linker_0, # of connection points: 2
#     Edge 60, Type (0, 0), BuildingBlock: ZUJKAS_clean_linker_0, # of connection points: 2
#     Edge 61, Type (0, 0), BuildingBlock: ZUJKAS_clean_linker_0, # of connection points: 2
#     Edge 62, Type (0, 0), BuildingBlock: ZUJKAS_clean_linker_0, # of connection points: 2
#     Edge 63, Type (0, 0), BuildingBlock: ZUJKAS_clean_linker_0, # of connection points: 2
#     Edge 64, Type (0, 0), BuildingBlock: ZUJKAS_clean_linker_0, # of connection points: 2
#     Edge 65, Type (0, 0), BuildingBlock: ZUJKAS_clean_linker_0, # of connection points: 2
#     Edge 66, Type (0, 0), BuildingBlock: ZUJKAS_clean_linker_0, # of connection points: 2
#     Edge 67, Type (0, 0), BuildingBlock: ZUJKAS_clean_linker_0, # of connection points: 2
#     Edge 68, Type (0, 0), BuildingBlock: ZUJKAS_clean_linker_0, # of connection points: 2
#     Edge 69, Type (0, 0), BuildingBlock: ZUJKAS_clean_linker_0, # of connection points: 2
#     Edge 70, Type (0, 0), BuildingBlock: ZUJKAS_clean_linker_0, # of connection points: 2
#     Edge 71, Type (0, 0), BuildingBlock: ZUJKAS_clean_linker_0, # of connection points: 2
#     Edge 72, Type (0, 0), BuildingBlock: ZUJKAS_clean_linker_0, # of connection points: 2
#     Edge 73, Type (0, 0), BuildingBlock: ZUJKAS_clean_linker_0, # of connection points: 2
#     Edge 74, Type (0, 0), BuildingBlock: ZUJKAS_clean_linker_0, # of connection points: 2
#     Edge 75, Type (0, 0), BuildingBlock: ZUJKAS_clean_linker_0, # of connection points: 2
#     Edge 76, Type (0, 0), BuildingBlock: ZUJKAS_clean_linker_0, # of connection points: 2
#     Edge 77, Type (0, 0), BuildingBlock: ZUJKAS_clean_linker_0, # of connection points: 2
#     Edge 78, Type (0, 0), BuildingBlock: ZUJKAS_clean_linker_0, # of connection points: 2
#     Edge 79, Type (0, 0), BuildingBlock: ZUJKAS_clean_linker_0, # of connection points: 2
#     Edge 80, Type (0, 0), BuildingBlock: ZUJKAS_clean_linker_0, # of connection points: 2
#     Edge 81, Type (0, 0), BuildingBlock: ZUJKAS_clean_linker_0, # of connection points: 2
#     Edge 82, Type (0, 0), BuildingBlock: ZUJKAS_clean_linker_0, # of connection points: 2
#     Edge 83, Type (0, 0), BuildingBlock: ZUJKAS_clean_linker_0, # of connection points: 2
#     Edge 84, Type (0, 0), BuildingBlock: ZUJKAS_clean_linker_0, # of connection points: 2
#     Edge 85, Type (0, 0), BuildingBlock: ZUJKAS_clean_linker_0, # of connection points: 2
#     Edge 86, Type (0, 0), BuildingBlock: ZUJKAS_clean_linker_0, # of connection points: 2
#     Edge 87, Type (0, 0), BuildingBlock: ZUJKAS_clean_linker_0, # of connection points: 2
#     Edge 88, Type (0, 0), BuildingBlock: ZUJKAS_clean_linker_0, # of connection points: 2
#     Edge 89, Type (0, 0), BuildingBlock: ZUJKAS_clean_linker_0, # of connection points: 2
#     Edge 90, Type (0, 0), BuildingBlock: ZUJKAS_clean_linker_0, # of connection points: 2
#     Edge 91, Type (0, 0), BuildingBlock: ZUJKAS_clean_linker_0, # of connection points: 2
#     Edge 92, Type (0, 0), BuildingBlock: ZUJKAS_clean_linker_0, # of connection points: 2
#     Edge 93, Type (0, 0), BuildingBlock: ZUJKAS_clean_linker_0, # of connection points: 2
#     Edge 94, Type (0, 0), BuildingBlock: ZUJKAS_clean_linker_0, # of connection points: 2
#     Edge 95, Type (0, 0), BuildingBlock: ZUJKAS_clean_linker_0, # of connection points: 2
#     Edge 96, Type (0, 0), BuildingBlock: ZUJKAS_clean_linker_0, # of connection points: 2
#     Edge 97, Type (0, 0), BuildingBlock: ZUJKAS_clean_linker_0, # of connection points: 2
#     Edge 98, Type (0, 0), BuildingBlock: ZUJKAS_clean_linker_0, # of connection points: 2
#     Edge 99, Type (0, 0), BuildingBlock: ZUJKAS_clean_linker_0, # of connection points: 2
#     Edge 100, Type (0, 0), BuildingBlock: ZUJKAS_clean_linker_0, # of connection points: 2
#     Edge 101, Type (0, 0), BuildingBlock: ZUJKAS_clean_linker_0, # of connection points: 2
#     Edge 102, Type (0, 0), BuildingBlock: ZUJKAS_clean_linker_0, # of connection points: 2
#     Edge 103, Type (0, 0), BuildingBlock: ZUJKAS_clean_linker_0, # of connection points: 2
#     Edge 104, Type (0, 0), BuildingBlock: ZUJKAS_clean_linker_0, # of connection points: 2
#     Edge 105, Type (0, 0), BuildingBlock: ZUJKAS_clean_linker_0, # of connection points: 2
#     Edge 106, Type (0, 0), BuildingBlock: ZUJKAS_clean_linker_0, # of connection points: 2
#     Edge 107, Type (0, 0), BuildingBlock: ZUJKAS_clean_linker_0, # of connection points: 2
#     Edge 108, Type (0, 0), BuildingBlock: ZUJKAS_clean_linker_0, # of connection points: 2
#     Edge 109, Type (0, 0), BuildingBlock: ZUJKAS_clean_linker_0, # of connection points: 2
#     Edge 110, Type (0, 0), BuildingBlock: ZUJKAS_clean_linker_0, # of connection points: 2
#     Edge 111, Type (0, 0), BuildingBlock: ZUJKAS_clean_linker_0, # of connection points: 2
#     Edge 112, Type (0, 0), BuildingBlock: ZUJKAS_clean_linker_0, # of connection points: 2
#     Edge 113, Type (0, 0), BuildingBlock: ZUJKAS_clean_linker_0, # of connection points: 2
#     Edge 114, Type (0, 0), BuildingBlock: ZUJKAS_clean_linker_0, # of connection points: 2
#     Edge 115, Type (0, 0), BuildingBlock: ZUJKAS_clean_linker_0, # of connection points: 2
#     Edge 116, Type (0, 0), BuildingBlock: ZUJKAS_clean_linker_0, # of connection points: 2
#     Edge 117, Type (0, 0), BuildingBlock: ZUJKAS_clean_linker_0, # of connection points: 2
#     Edge 118, Type (0, 0), BuildingBlock: ZUJKAS_clean_linker_0, # of connection points: 2
#     Edge 119, Type (0, 0), BuildingBlock: ZUJKAS_clean_linker_0, # of connection points: 2
#     Edge 120, Type (0, 0), BuildingBlock: ZUJKAS_clean_linker_0, # of connection points: 2
#     Edge 121, Type (0, 0), BuildingBlock: ZUJKAS_clean_linker_0, # of connection points: 2
#     Edge 122, Type (0, 0), BuildingBlock: ZUJKAS_clean_linker_0, # of connection points: 2
#     Edge 123, Type (0, 0), BuildingBlock: ZUJKAS_clean_linker_0, # of connection points: 2
#     Edge 124, Type (0, 0), BuildingBlock: ZUJKAS_clean_linker_0, # of connection points: 2
#     Edge 125, Type (0, 0), BuildingBlock: ZUJKAS_clean_linker_0, # of connection points: 2
#     Edge 126, Type (0, 0), BuildingBlock: ZUJKAS_clean_linker_0, # of connection points: 2
#     Edge 127, Type (0, 0), BuildingBlock: ZUJKAS_clean_linker_0, # of connection points: 2
#     Edge 128, Type (0, 0), BuildingBlock: ZUJKAS_clean_linker_0, # of connection points: 2
#     Edge 129, Type (0, 0), BuildingBlock: ZUJKAS_clean_linker_0, # of connection points: 2
#     Edge 130, Type (0, 0), BuildingBlock: ZUJKAS_clean_linker_0, # of connection points: 2
#     Edge 131, Type (0, 0), BuildingBlock: ZUJKAS_clean_linker_0, # of connection points: 2
#     Edge 132, Type (0, 0), BuildingBlock: ZUJKAS_clean_linker_0, # of connection points: 2
#     Edge 133, Type (0, 0), BuildingBlock: ZUJKAS_clean_linker_0, # of connection points: 2
#     Edge 134, Type (0, 0), BuildingBlock: ZUJKAS_clean_linker_0, # of connection points: 2
#     Edge 135, Type (0, 0), BuildingBlock: ZUJKAS_clean_linker_0, # of connection points: 2
#     Edge 136, Type (0, 0), BuildingBlock: ZUJKAS_clean_linker_0, # of connection points: 2
#     Edge 137, Type (0, 0), BuildingBlock: ZUJKAS_clean_linker_0, # of connection points: 2
#     Edge 138, Type (0, 0), BuildingBlock: ZUJKAS_clean_linker_0, # of connection points: 2
#     Edge 139, Type (0, 0), BuildingBlock: ZUJKAS_clean_linker_0, # of connection points: 2
#     Edge 140, Type (0, 0), BuildingBlock: ZUJKAS_clean_linker_0, # of connection points: 2
#     Edge 141, Type (0, 0), BuildingBlock: ZUJKAS_clean_linker_0, # of connection points: 2
#     Edge 142, Type (0, 0), BuildingBlock: ZUJKAS_clean_linker_0, # of connection points: 2
#     Edge 143, Type (0, 0), BuildingBlock: ZUJKAS_clean_linker_0, # of connection points: 2
# Relax obj value: 0.549
# Max RMSD: 0.359
# Mean RMSD: 0.246
data_MOF--net-unx--node1-CEKHIL_clean_sbu_0--edge1-ZUJKAS_clean_linker_0
_symmetry_space_group_name_H-M    P1
_symmetry_Int_Tables_number       1
_symmetry_cell_setting            triclinic
loop_
_symmetry_equiv_pos_as_xyz
'x, y, z'
_cell_length_a     68.162041
_cell_length_b     65.993353
_cell_length_c     68.662251
_cell_angle_alpha  89.997751
_cell_angle_beta   89.998823
_cell_angle_gamma 91.782115
loop_
_atom_site_label
_atom_site_type_symbol
_atom_site_fract_x
_atom_site_fract_y
_atom_site_fract_z
_atom_type_partial_charge
Co0 Co 0.13033 0.53282 0.1001 0.0
O1 O 0.14939 0.51346 0.09252 0.0
O2 O 0.14942 0.53005 0.1206 0.0
C3 C 0.103 0.51501 0.09141 0.0
O4 O 0.11257 0.55305 0.11317 0.0
Co5 Co 0.10453 0.55232 0.06827 0.0
O6 O 0.08917 0.56047 0.0914 0.0
C7 C 0.14524 0.56731 0.0734 0.0
C8 C 0.15759 0.51691 0.10931 0.0
C9 C 0.09615 0.56096 0.10864 0.0
O10 O 0.14684 0.55571 0.08835 0.0
O11 O 0.13004 0.56704 0.06243 0.0
O12 O 0.11183 0.5111 0.1077 0.0
O13 O 0.11258 0.5272 0.07985 0.0
Co14 Co 0.77106 0.54915 0.43474 0.0
O15 O 0.77714 0.57786 0.43521 0.0
O16 O 0.7471 0.56385 0.43652 0.0
C17 C 0.79291 0.53818 0.45659 0.0
O18 O 0.75927 0.52028 0.43531 0.0
Co19 Co 0.80191 0.52026 0.4182 0.0
O20 O 0.78309 0.49886 0.42742 0.0
C21 C 0.77918 0.54392 0.39092 0.0
C22 C 0.75831 0.58013 0.43611 0.0
C23 C 0.76573 0.50224 0.4332 0.0
O24 O 0.76907 0.55005 0.40545 0.0
O25 O 0.79415 0.5329 0.3929 0.0
O26 O 0.77695 0.54666 0.46231 0.0
O27 O 0.79676 0.54025 0.43819 0.0
Co28 Co 0.87532 0.98328 0.81488 0.0
O29 O 0.85222 0.98668 0.83048 0.0
O30 O 0.85734 0.96082 0.81063 0.0
C31 C 0.89807 0.9911 0.83735 0.0
O32 O 0.89701 0.97402 0.79698 0.0
Co33 Co 0.90294 0.01952 0.80419 0.0
O34 O 0.91972 0.99887 0.79207 0.0
C35 C 0.86431 0.016 0.78576 0.0
C36 C 0.84561 0.96998 0.82241 0.0
C37 C 0.91345 0.98062 0.78984 0.0
O38 O 0.86246 0.99818 0.79312 0.0
O39 O 0.87898 0.02797 0.7894 0.0
O40 O 0.88962 0.97315 0.83707 0.0
O41 O 0.89079 0.00436 0.82569 0.0
Co42 Co 0.33098 0.29175 0.00696 0.0
O43 O 0.30825 0.28032 0.01994 0.0
O44 O 0.33878 0.2706 0.02452 0.0
C45 C 0.32404 0.32461 0.01031 0.0
O46 O 0.35792 0.29999 0.99638 0.0
Co47 Co 0.32673 0.31655 0.96883 0.0
O48 O 0.35482 0.32415 0.97356 0.0
C49 C 0.32231 0.27197 0.96757 0.0
C50 C 0.32015 0.26799 0.02826 0.0
C51 C 0.36529 0.31348 0.98473 0.0
O52 O 0.32742 0.27118 0.98556 0.0
O53 O 0.31982 0.28867 0.95851 0.0
O54 O 0.33226 0.31505 0.02458 0.0
O55 O 0.31847 0.31358 0.99569 0.0
Co56 Co 0.13172 0.48943 0.70079 0.0
O57 O 0.1078 0.48437 0.68719 0.0
O58 O 0.11309 0.5096 0.70813 0.0
C59 C 0.15128 0.4854 0.67505 0.0
O60 O 0.15535 0.49922 0.71693 0.0
Co61 Co 0.16158 0.45497 0.70353 0.0
O62 O 0.17968 0.47767 0.71138 0.0
C63 C 0.12637 0.4536 0.72849 0.0
C64 C 0.10111 0.49985 0.69637 0.0
C65 C 0.17346 0.49427 0.71817 0.0
O66 O 0.12205 0.47141 0.72263 0.0
O67 O 0.14082 0.44386 0.72169 0.0
O68 O 0.14334 0.5028 0.67799 0.0
O69 O 0.1456 0.47089 0.68649 0.0
Co70 Co 0.7916 0.21233 0.00353 0.0
O71 O 0.77001 0.2211 0.98793 0.0
O72 O 0.80098 0.23192 0.98477 0.0
C73 C 0.78507 0.17886 0.00314 0.0
O74 O 0.81778 0.20658 0.01637 0.0
Co75 Co 0.78475 0.19273 0.04392 0.0
O76 O 0.81235 0.18445 0.04081 0.0
C77 C 0.78223 0.23681 0.04018 0.0
C78 C 0.78275 0.23327 0.97949 0.0
C79 C 0.82389 0.19411 0.02927 0.0
O80 O 0.78694 0.23508 0.0222 0.0
O81 O 0.78007 0.22168 0.05172 0.0
O82 O 0.79372 0.18766 0.98837 0.0
O83 O 0.77831 0.19089 0.0163 0.0
Co84 Co 0.87727 0.05219 0.41159 0.0
O85 O 0.89556 0.03088 0.40847 0.0
O86 O 0.89552 0.05245 0.43319 0.0
C87 C 0.84993 0.03388 0.40423 0.0
O88 O 0.86047 0.07572 0.4199 0.0
Co89 Co 0.85312 0.06706 0.37625 0.0
O90 O 0.8384 0.08186 0.39646 0.0
C91 C 0.8947 0.07992 0.37991 0.0
C92 C 0.90363 0.03728 0.42455 0.0
C93 C 0.84536 0.0849 0.41348 0.0
O94 O 0.89532 0.07124 0.39667 0.0
O95 O 0.87959 0.07895 0.36883 0.0
O96 O 0.85726 0.03311 0.4217 0.0
O97 O 0.8604 0.04383 0.39157 0.0
Co98 Co 0.25227 0.96021 0.57503 0.0
O99 O 0.26241 0.93338 0.57505 0.0
O100 O 0.23089 0.94041 0.57293 0.0
C101 C 0.27356 0.97438 0.5536 0.0
O102 O 0.23659 0.98607 0.57404 0.0
Co103 Co 0.278 0.99626 0.59065 0.0
O104 O 0.25788 0.01259 0.5775 0.0
C105 C 0.25743 0.96926 0.61858 0.0
C106 C 0.24431 0.92682 0.57368 0.0
C107 C 0.24082 0.00524 0.57358 0.0
O108 O 0.24965 0.95951 0.60419 0.0
O109 O 0.27011 0.98382 0.61638 0.0
O110 O 0.25857 0.96349 0.54753 0.0
O111 O 0.27654 0.97404 0.57221 0.0
Co112 Co 0.19288 0.69545 0.52727 0.0
O113 O 0.21497 0.70744 0.54109 0.0
O114 O 0.18365 0.71244 0.54774 0.0
C115 C 0.20256 0.66334 0.52504 0.0
O116 O 0.16627 0.68609 0.51689 0.0
Co117 Co 0.19689 0.67869 0.48544 0.0
O118 O 0.16978 0.66749 0.48979 0.0
C119 C 0.19708 0.7228 0.49138 0.0
C120 C 0.202 0.71713 0.55109 0.0
C121 C 0.15924 0.67451 0.50339 0.0
O122 O 0.1932 0.71953 0.50941 0.0
O123 O 0.20029 0.70852 0.47927 0.0
O124 O 0.19485 0.66986 0.54112 0.0
O125 O 0.20659 0.67707 0.51205 0.0
Co126 Co 0.37335 0.44611 0.62625 0.0
O127 O 0.34856 0.45803 0.62944 0.0
O128 O 0.35942 0.4324 0.64717 0.0
C129 C 0.39109 0.47514 0.6242 0.0
O130 O 0.39883 0.43087 0.62744 0.0
Co131 Co 0.39632 0.4531 0.58771 0.0
O132 O 0.41833 0.44237 0.60316 0.0
C133 C 0.36376 0.42281 0.58871 0.0
C134 C 0.34577 0.44522 0.64355 0.0
C135 C 0.41556 0.43213 0.61873 0.0
O136 O 0.3619 0.42592 0.60709 0.0
O137 O 0.37582 0.43306 0.57799 0.0
O138 O 0.38577 0.468 0.6411 0.0
O139 O 0.38335 0.46595 0.60931 0.0
Co140 Co 0.71583 0.46359 0.92789 0.0
O141 O 0.70619 0.43592 0.92917 0.0
O142 O 0.73745 0.44594 0.93174 0.0
C143 C 0.69401 0.47775 0.9478 0.0
O144 O 0.73115 0.49067 0.92816 0.0
Co145 Co 0.69053 0.49644 0.90904 0.0
O146 O 0.71049 0.51539 0.92063 0.0
C147 C 0.71118 0.46844 0.88368 0.0
C148 C 0.72441 0.43114 0.93144 0.0
C149 C 0.72711 0.50955 0.92656 0.0
O150 O 0.71931 0.46111 0.8989 0.0
O151 O 0.69812 0.48194 0.88454 0.0
O152 O 0.70868 0.46802 0.95489 0.0
O153 O 0.69139 0.47582 0.92919 0.0
Co154 Co 0.63539 0.99696 0.30351 0.0
O155 O 0.64915 0.98463 0.32471 0.0
O156 O 0.65799 0.01362 0.31037 0.0
C157 C 0.6049 0.99336 0.31553 0.0
O158 O 0.62467 0.01481 0.28204 0.0
Co159 Co 0.60589 0.97196 0.27815 0.0
O160 O 0.59908 0.99882 0.26742 0.0
C161 C 0.64823 0.96715 0.27224 0.0
C162 C 0.66146 2e-05 0.32354 0.0
C163 C 0.61011 0.01454 0.27008 0.0
O164 O 0.65162 0.98183 0.2842 0.0
O165 O 0.63094 0.95982 0.26886 0.0
O166 O 0.61649 0.00811 0.32144 0.0
O167 O 0.61287 0.98 0.30451 0.0
Co168 Co 0.64953 0.21092 0.12403 0.0
O169 O 0.6433 0.23134 0.14279 0.0
O170 O 0.66941 0.2121 0.14389 0.0
C171 C 0.64402 0.22936 0.09725 0.0
O172 O 0.6613 0.18897 0.10746 0.0
Co173 Co 0.61855 0.19276 0.0956 0.0
O174 O 0.6411 0.17953 0.08307 0.0
C175 C 0.61864 0.17889 0.13644 0.0
C176 C 0.65931 0.22639 0.15166 0.0
C177 C 0.6575 0.17875 0.0919 0.0
O178 O 0.63425 0.18988 0.13942 0.0
O179 O 0.6093 0.17883 0.12024 0.0
O180 O 0.66053 0.23144 0.10659 0.0
O181 O 0.63071 0.21777 0.1054 0.0
Co182 Co 0.94896 0.72651 0.40525 0.0
O183 O 0.93183 0.73085 0.38358 0.0
O184 O 0.95987 0.71469 0.38222 0.0
C185 C 0.92571 0.71698 0.42683 0.0
O186 O 0.97015 0.71855 0.4243 0.0
Co187 Co 0.9465 0.75188 0.44312 0.0
O188 O 0.96349 0.73068 0.45409 0.0
C189 C 0.9643 0.77023 0.40783 0.0
C190 C 0.94479 0.72174 0.37314 0.0
C191 C 0.97319 0.71946 0.44275 0.0
O192 O 0.96343 0.75286 0.39934 0.0
O193 O 0.957 0.77331 0.42473 0.0
O194 O 0.93242 0.70373 0.4147 0.0
O195 O 0.93194 0.73544 0.42434 0.0
Co196 Co 0.57545 0.24822 0.60729 0.0
O197 O 0.59328 0.25543 0.62781 0.0
O198 O 0.56614 0.23639 0.63148 0.0
C199 C 0.5981 0.24 0.58524 0.0
O200 O 0.5539 0.23756 0.58905 0.0
Co201 Co 0.57642 0.27308 0.56882 0.0
O202 O 0.56034 0.24958 0.55894 0.0
C203 C 0.55867 0.29033 0.60406 0.0
C204 C 0.58138 0.24553 0.63936 0.0
C205 C 0.55085 0.23779 0.57053 0.0
O206 O 0.56027 0.27323 0.61279 0.0
O207 O 0.5656 0.29387 0.587 0.0
O208 O 0.59242 0.22672 0.59823 0.0
O209 O 0.59148 0.25795 0.58736 0.0
Co210 Co 0.89261 0.69735 0.89216 0.0
O211 O 0.90341 0.71755 0.87463 0.0
O212 O 0.87616 0.6991 0.86946 0.0
C213 C 0.89586 0.71559 0.91958 0.0
O214 O 0.87648 0.67565 0.90659 0.0
Co215 Co 0.91741 0.67807 0.92451 0.0
O216 O 0.89226 0.66502 0.9332 0.0
C217 C 0.9226 0.66496 0.88401 0.0
C218 C 0.88868 0.7129 0.86328 0.0
C219 C 0.87718 0.66496 0.92224 0.0
O220 O 0.90836 0.67616 0.87904 0.0
O221 O 0.92929 0.66416 0.90141 0.0
O222 O 0.88099 0.71815 0.90807 0.0
O223 O 0.90909 0.70353 0.91333 0.0
Co224 Co 0.95617 0.74271 0.13562 0.0
O225 O 0.93854 0.73838 0.15702 0.0
O226 O 0.96634 0.75675 0.15828 0.0
C227 C 0.93344 0.74927 0.113 0.0
O228 O 0.9776 0.751 0.11635 0.0
Co229 Co 0.95415 0.71396 0.09979 0.0
O230 O 0.97303 0.73411 0.08819 0.0
C231 C 0.97141 0.69986 0.1365 0.0
C232 C 0.95098 0.74917 0.16727 0.0
C233 C 0.982 0.7476 0.09844 0.0
O234 O 0.9709 0.71795 0.14338 0.0
O235 O 0.96378 0.69476 0.1201 0.0
O236 O 0.9396 0.76361 0.12471 0.0
O237 O 0.9396 0.73142 0.11675 0.0
Co238 Co 0.35563 0.78718 0.12125 0.0
O239 O 0.35953 0.76659 0.1405 0.0
O240 O 0.33438 0.78711 0.13978 0.0
C241 C 0.36224 0.7684 0.09495 0.0
O242 O 0.3463 0.80967 0.10361 0.0
Co243 Co 0.39001 0.80339 0.09573 0.0
O244 O 0.36946 0.81816 0.08155 0.0
C245 C 0.38709 0.81747 0.13624 0.0
C246 C 0.34337 0.7725 0.14841 0.0
C247 C 0.35226 0.81973 0.08856 0.0
O248 O 0.37067 0.80749 0.13773 0.0
O249 O 0.39789 0.81688 0.121 0.0
O250 O 0.345 0.76721 0.10304 0.0
O251 O 0.37545 0.77915 0.10417 0.0
Co252 Co 0.57771 0.26504 0.87675 0.0
O253 O 0.59574 0.2581 0.85663 0.0
O254 O 0.5733 0.28161 0.85411 0.0
C255 C 0.59929 0.26596 0.90142 0.0
O256 O 0.55686 0.2763 0.89466 0.0
Co257 Co 0.56933 0.23513 0.91089 0.0
O258 O 0.55756 0.25927 0.92304 0.0
C259 C 0.55165 0.2269 0.87237 0.0
C260 C 0.58702 0.27128 0.8459 0.0
C261 C 0.55186 0.27394 0.91262 0.0
O262 O 0.55833 0.2442 0.86637 0.0
O263 O 0.55541 0.21984 0.8893 0.0
O264 O 0.5978 0.28165 0.8901 0.0
O265 O 0.58933 0.24992 0.8962 0.0
Co266 Co 0.63849 0.30238 0.37143 0.0
O267 O 0.63503 0.28363 0.35029 0.0
O268 O 0.6597 0.30618 0.35314 0.0
C269 C 0.63235 0.28017 0.39544 0.0
O270 O 0.64746 0.32362 0.39123 0.0
Co271 Co 0.60405 0.31321 0.3982 0.0
O272 O 0.62424 0.32816 0.41386 0.0
C273 C 0.60608 0.33066 0.35892 0.0
C274 C 0.65111 0.29169 0.34316 0.0
C275 C 0.64142 0.33168 0.40712 0.0
O276 O 0.62294 0.32278 0.35693 0.0
O277 O 0.59531 0.3278 0.37402 0.0
O278 O 0.64958 0.28144 0.38737 0.0
O279 O 0.61886 0.29093 0.38759 0.0
Co280 Co 0.11783 0.00696 0.81233 0.0
O281 O 0.14043 0.00242 0.82832 0.0
O282 O 0.13579 0.02979 0.81029 0.0
C283 C 0.09463 0.99724 0.83368 0.0
O284 O 0.09657 0.01753 0.7946 0.0
Co285 Co 0.09076 0.97152 0.79842 0.0
O286 O 0.07423 0.99297 0.78733 0.0
C287 C 0.12971 0.97695 0.78086 0.0
C288 C 0.14711 0.01984 0.82186 0.0
C289 C 0.08041 0.01137 0.78657 0.0
O290 O 0.13138 0.99397 0.78983 0.0
O291 O 0.11501 0.96464 0.78324 0.0
O292 O 0.10289 0.01523 0.83483 0.0
O293 O 0.10222 0.98498 0.82123 0.0
Co294 Co 0.66782 0.71255 0.00663 0.0
O295 O 0.6908 0.72346 0.01961 0.0
O296 O 0.66031 0.73269 0.02524 0.0
C297 C 0.67519 0.67965 0.00816 0.0
O298 O 0.6406 0.70465 0.99661 0.0
Co299 Co 0.67077 0.68967 0.96724 0.0
O300 O 0.64286 0.68176 0.97252 0.0
C301 C 0.67543 0.73426 0.96803 0.0
C302 C 0.67897 0.73523 0.0288 0.0
C303 C 0.63282 0.69178 0.98462 0.0
O304 O 0.6706 0.7342 0.98612 0.0
O305 O 0.67778 0.718 0.9582 0.0
O306 O 0.66742 0.68839 0.02317 0.0
O307 O 0.68003 0.69147 0.99387 0.0
Co308 Co 0.86788 0.47094 0.09801 0.0
O309 O 0.84708 0.48767 0.08895 0.0
O310 O 0.84796 0.47245 0.11773 0.0
C311 C 0.89364 0.49124 0.0894 0.0
O312 O 0.88679 0.45336 0.11286 0.0
Co313 Co 0.89812 0.45308 0.06938 0.0
O314 O 0.91277 0.44764 0.09372 0.0
C315 C 0.85881 0.43328 0.07314 0.0
C316 C 0.83878 0.48404 0.10569 0.0
C317 C 0.90421 0.44693 0.11024 0.0
O318 O 0.85429 0.44594 0.08658 0.0
O319 O 0.87506 0.4344 0.06377 0.0
O320 O 0.88389 0.49483 0.10523 0.0
O321 O 0.8859 0.47745 0.0782 0.0
Co322 Co 0.22404 0.45054 0.43342 0.0
O323 O 0.21802 0.42186 0.43404 0.0
O324 O 0.24804 0.43591 0.43541 0.0
C325 C 0.20227 0.46166 0.45526 0.0
O326 O 0.23569 0.47951 0.43357 0.0
Co327 Co 0.19281 0.47886 0.41659 0.0
O328 O 0.21171 0.50051 0.42507 0.0
C329 C 0.21546 0.45478 0.38963 0.0
C330 C 0.23685 0.4196 0.435 0.0
C331 C 0.22911 0.49743 0.43091 0.0
O332 O 0.22589 0.44927 0.40417 0.0
O333 O 0.20032 0.46557 0.39153 0.0
O334 O 0.21828 0.45328 0.46098 0.0
O335 O 0.19832 0.45935 0.4369 0.0
Co336 Co 0.12126 0.95156 0.4168 0.0
O337 O 0.10374 0.97361 0.41439 0.0
O338 O 0.10282 0.95105 0.43829 0.0
C339 C 0.14905 0.96927 0.41013 0.0
O340 O 0.13726 0.92714 0.42422 0.0
Co341 Co 0.14483 0.93739 0.38089 0.0
O342 O 0.15914 0.92135 0.40051 0.0
C343 C 0.10306 0.92534 0.38434 0.0
C344 C 0.09523 0.96679 0.43008 0.0
C345 C 0.15211 0.9178 0.41743 0.0
O346 O 0.10269 0.93369 0.40125 0.0
O347 O 0.11816 0.92619 0.37323 0.0
O348 O 0.14189 0.96941 0.42769 0.0
O349 O 0.13833 0.96028 0.39707 0.0
Co350 Co 0.74652 0.04072 0.57976 0.0
O351 O 0.7375 0.06801 0.57925 0.0
O352 O 0.76869 0.0596 0.57793 0.0
C353 C 0.72537 0.02691 0.55804 0.0
O354 O 0.76112 0.01414 0.57931 0.0
Co355 Co 0.71889 0.00618 0.59544 0.0
O356 O 0.73905 0.98855 0.58415 0.0
C357 C 0.7396 0.03293 0.62333 0.0
C358 C 0.75585 0.07379 0.57825 0.0
C359 C 0.75632 0.99508 0.57986 0.0
O360 O 0.74848 0.04171 0.60899 0.0
O361 O 0.72615 0.01916 0.62104 0.0
O362 O 0.74076 0.03731 0.55217 0.0
O363 O 0.72186 0.02785 0.57653 0.0
Co364 Co 0.86167 0.51555 0.70317 0.0
O365 O 0.88425 0.52422 0.68883 0.0
O366 O 0.88247 0.49684 0.70762 0.0
C367 C 0.84003 0.51992 0.67925 0.0
O368 O 0.83996 0.50213 0.71962 0.0
Co369 Co 0.82973 0.54707 0.71117 0.0
O370 O 0.814 0.52236 0.71826 0.0
C371 C 0.8664 0.5489 0.73373 0.0
C372 C 0.89292 0.50889 0.69637 0.0
C373 C 0.82172 0.50564 0.72279 0.0
O374 O 0.87126 0.53209 0.72599 0.0
O375 O 0.85094 0.55822 0.72887 0.0
O376 O 0.8499 0.50339 0.67995 0.0
O377 O 0.84519 0.53385 0.69158 0.0
Co378 Co 0.20055 0.78578 0.99603 0.0
O379 O 0.22054 0.77773 0.97812 0.0
O380 O 0.18955 0.7665 0.97774 0.0
C381 C 0.20659 0.81932 0.99609 0.0
O382 O 0.17583 0.79079 0.01162 0.0
Co383 Co 0.21206 0.80373 0.03607 0.0
O384 O 0.18366 0.80947 0.038 0.0
C385 C 0.21504 0.76006 0.03017 0.0
C386 C 0.20723 0.76543 0.97076 0.0
C387 C 0.17099 0.80103 0.02673 0.0
O388 O 0.2072 0.76255 0.0134 0.0
O389 O 0.21944 0.77489 0.04155 0.0
O390 O 0.19653 0.81085 0.98202 0.0
O391 O 0.21498 0.80702 0.00798 0.0
Co392 Co 0.28042 0.53587 0.92591 0.0
O393 O 0.2886 0.56399 0.92725 0.0
O394 O 0.25776 0.5524 0.92878 0.0
C395 C 0.30215 0.5231 0.94684 0.0
O396 O 0.26651 0.50809 0.92587 0.0
Co397 Co 0.30839 0.50436 0.90866 0.0
O398 O 0.2885 0.48442 0.91888 0.0
C399 C 0.28734 0.53084 0.88205 0.0
C400 C 0.27009 0.56785 0.92883 0.0
C401 C 0.27139 0.48946 0.92418 0.0
O402 O 0.27794 0.53775 0.89673 0.0
O403 O 0.30135 0.51849 0.8838 0.0
O404 O 0.28666 0.53195 0.95326 0.0
O405 O 0.30545 0.52511 0.92836 0.0
Co406 Co 0.36521 0.99581 0.30674 0.0
O407 O 0.35105 0.00811 0.32767 0.0
O408 O 0.34364 0.97812 0.3145 0.0
C409 C 0.39567 0.0016 0.31821 0.0
O410 O 0.37655 0.97794 0.28559 0.0
Co411 Co 0.39308 0.02155 0.28024 0.0
O412 O 0.40107 0.99484 0.27013 0.0
C413 C 0.35038 0.02382 0.27487 0.0
C414 C 0.33956 0.99203 0.32716 0.0
C415 C 0.39087 0.97866 0.27334 0.0
O416 O 0.34788 0.00938 0.28727 0.0
O417 O 0.36725 0.03189 0.27095 0.0
O418 O 0.38499 0.9864 0.3247 0.0
O419 O 0.38682 0.01405 0.3069 0.0
Co420 Co 0.80675 0.30444 0.52726 0.0
O421 O 0.78633 0.2921 0.54313 0.0
O422 O 0.81821 0.28739 0.54652 0.0
C423 C 0.79662 0.33647 0.52632 0.0
O424 O 0.83204 0.31432 0.51429 0.0
Co425 Co 0.79776 0.32104 0.48618 0.0
O426 O 0.82542 0.33155 0.48699 0.0
C427 C 0.79887 0.27706 0.49184 0.0
C428 C 0.80034 0.28249 0.55167 0.0
C429 C 0.83748 0.32529 0.49966 0.0
O430 O 0.80485 0.28044 0.50929 0.0
O431 O 0.79395 0.29125 0.48027 0.0
O432 O 0.80596 0.32991 0.54149 0.0
O433 O 0.7913 0.32276 0.51374 0.0
Co434 Co 0.61411 0.54556 0.60516 0.0
O435 O 0.63677 0.52974 0.60157 0.0
O436 O 0.63327 0.55293 0.6247 0.0
C437 C 0.59153 0.52048 0.60237 0.0
O438 O 0.59221 0.56406 0.61354 0.0
Co439 Co 0.58507 0.54968 0.57077 0.0
O440 O 0.56788 0.56019 0.59157 0.0
C441 C 0.62196 0.57369 0.57035 0.0
C442 C 0.64406 0.53943 0.61647 0.0
C443 C 0.57447 0.56677 0.60784 0.0
O444 O 0.62552 0.56714 0.58756 0.0
O445 O 0.6071 0.56751 0.56033 0.0
O446 O 0.60089 0.52329 0.61868 0.0
O447 O 0.59821 0.53091 0.58771 0.0
Co448 Co 0.42698 0.75547 0.60939 0.0
O449 O 0.41038 0.75067 0.63147 0.0
O450 O 0.43826 0.76895 0.63192 0.0
C451 C 0.4032 0.76235 0.588 0.0
O452 O 0.44744 0.76406 0.58915 0.0
Co453 Co 0.4232 0.72719 0.57332 0.0
O454 O 0.44044 0.74829 0.56083 0.0
C455 C 0.44261 0.71267 0.60875 0.0
C456 C 0.42339 0.76102 0.64145 0.0
C457 C 0.45029 0.76138 0.57079 0.0
O458 O 0.44203 0.73059 0.61601 0.0
O459 O 0.43444 0.70776 0.59255 0.0
O460 O 0.40987 0.77653 0.59963 0.0
O461 O 0.40956 0.74447 0.59122 0.0
Co462 Co 0.10615 0.30137 0.89217 0.0
O463 O 0.09544 0.28108 0.87472 0.0
O464 O 0.12312 0.29892 0.86992 0.0
C465 C 0.10193 0.28363 0.91981 0.0
O466 O 0.12222 0.32299 0.90674 0.0
Co467 Co 0.08052 0.32151 0.92332 0.0
O468 O 0.10546 0.33474 0.9323 0.0
C469 C 0.07707 0.33431 0.88256 0.0
C470 C 0.1105 0.28526 0.86365 0.0
C471 C 0.12099 0.33419 0.92201 0.0
O472 O 0.09118 0.32267 0.87824 0.0
O473 O 0.06979 0.33547 0.89969 0.0
O474 O 0.11701 0.28064 0.9087 0.0
O475 O 0.08901 0.29574 0.913 0.0
Co476 Co 0.05354 0.27459 0.40418 0.0
O477 O 0.07058 0.26982 0.3825 0.0
O478 O 0.04369 0.28792 0.38143 0.0
C479 C 0.0768 0.28205 0.42641 0.0
O480 O 0.03268 0.28332 0.42328 0.0
Co481 Co 0.0541 0.24766 0.44118 0.0
O482 O 0.03609 0.26786 0.45216 0.0
C483 C 0.03613 0.23158 0.4051 0.0
C484 C 0.05836 0.28016 0.37225 0.0
C485 C 0.02794 0.2808 0.44127 0.0
O486 O 0.03765 0.2493 0.39732 0.0
O487 O 0.04332 0.22747 0.42182 0.0
O488 O 0.07115 0.29605 0.41449 0.0
O489 O 0.06972 0.26403 0.42321 0.0
Co490 Co 0.09414 0.19123 0.64112 0.0
O491 O 0.08673 0.21113 0.65993 0.0
O492 O 0.11188 0.19087 0.66301 0.0
C493 C 0.09179 0.21124 0.61484 0.0
O494 O 0.10671 0.16937 0.62483 0.0
Co495 Co 0.06532 0.1755 0.60971 0.0
O496 O 0.08854 0.16247 0.59825 0.0
C497 C 0.06105 0.16015 0.64972 0.0
C498 C 0.10139 0.20515 0.67031 0.0
C499 C 0.104 0.16037 0.60838 0.0
O500 O 0.0767 0.1704 0.65427 0.0
O501 O 0.05326 0.16078 0.63277 0.0
O502 O 0.10751 0.2119 0.62556 0.0
O503 O 0.07735 0.19984 0.62122 0.0
Co504 Co 0.35488 0.70251 0.37172 0.0
O505 O 0.35903 0.72208 0.35131 0.0
O506 O 0.33435 0.6994 0.35254 0.0
C507 C 0.36016 0.72368 0.39681 0.0
O508 O 0.34539 0.68042 0.39047 0.0
Co509 Co 0.38866 0.69096 0.3992 0.0
O510 O 0.36802 0.67521 0.41356 0.0
C511 C 0.38781 0.67473 0.35941 0.0
C512 C 0.34331 0.71418 0.34328 0.0
C513 C 0.35108 0.67176 0.4062 0.0
O514 O 0.37102 0.68269 0.35707 0.0
O515 O 0.39808 0.67714 0.3749 0.0
O516 O 0.34321 0.72282 0.38814 0.0
O517 O 0.37388 0.71333 0.38887 0.0
Co518 Co 0.42094 0.72632 0.87411 0.0
O519 O 0.40324 0.72658 0.85245 0.0
O520 O 0.43125 0.71032 0.85326 0.0
C521 C 0.39866 0.72136 0.89773 0.0
O522 O 0.44264 0.72225 0.89387 0.0
Co523 Co 0.41974 0.75945 0.90597 0.0
O524 O 0.43634 0.74043 0.92073 0.0
C525 C 0.43714 0.7695 0.86781 0.0
C526 C 0.41613 0.71602 0.84331 0.0
C527 C 0.44587 0.72698 0.91178 0.0
O528 O 0.43532 0.75073 0.86307 0.0
O529 O 0.4307 0.77649 0.88393 0.0
O530 O 0.40475 0.70595 0.88783 0.0
O531 O 0.40454 0.73902 0.89165 0.0
Co532 Co 0.63048 0.51717 0.1989 0.0
O533 O 0.60586 0.5161 0.18553 0.0
O534 O 0.61135 0.5316 0.21379 0.0
C535 C 0.64946 0.52412 0.17293 0.0
O536 O 0.65415 0.52195 0.21654 0.0
Co537 Co 0.66198 0.48582 0.18931 0.0
O538 O 0.67924 0.50378 0.20562 0.0
C539 C 0.62778 0.4732 0.21294 0.0
C540 C 0.59896 0.52594 0.20025 0.0
C541 C 0.67229 0.51708 0.21696 0.0
O542 O 0.62264 0.49175 0.21354 0.0
O543 O 0.6423 0.46732 0.20278 0.0
O544 O 0.64071 0.53874 0.18179 0.0
O545 O 0.64486 0.50601 0.17874 0.0
Co546 Co 0.32555 0.2011 0.48131 0.0
O547 O 0.30132 0.2099 0.47046 0.0
O548 O 0.33092 0.22096 0.46119 0.0
C549 C 0.31802 0.16772 0.482 0.0
O550 O 0.35368 0.19552 0.48921 0.0
Co551 Co 0.32595 0.18075 0.52205 0.0
O552 O 0.35326 0.17415 0.51476 0.0
C553 C 0.3212 0.22479 0.51918 0.0
C554 C 0.31195 0.22242 0.45998 0.0
C555 C 0.36237 0.18394 0.50136 0.0
O556 O 0.32449 0.22361 0.50082 0.0
O557 O 0.32001 0.20923 0.53033 0.0
O558 O 0.32443 0.1761 0.46596 0.0
O559 O 0.3146 0.18 0.49614 0.0
Co560 Co 0.3828 0.07328 0.83037 0.0
O561 O 0.3994 0.05167 0.82275 0.0
O562 O 0.40246 0.06949 0.85004 0.0
C563 C 0.35386 0.05808 0.82367 0.0
O564 O 0.36819 0.09591 0.84359 0.0
Co565 Co 0.35762 0.09534 0.79996 0.0
O566 O 0.3455 0.10778 0.82317 0.0
C567 C 0.39972 0.10538 0.80222 0.0
C568 C 0.40881 0.05515 0.83893 0.0
C569 C 0.3535 0.10709 0.83992 0.0
O570 O 0.40073 0.0934 0.81689 0.0
O571 O 0.38391 0.10784 0.79256 0.0
O572 O 0.36305 0.05399 0.83971 0.0
O573 O 0.36358 0.06912 0.81114 0.0
Co574 Co 0.77818 0.95945 0.07741 0.0
O575 O 0.78317 0.93108 0.07393 0.0
O576 O 0.75377 0.9446 0.07392 0.0
C577 C 0.8004 0.97372 0.05715 0.0
O578 O 0.7673 0.98781 0.07956 0.0
Co579 Co 0.80938 0.98705 0.09778 0.0
O580 O 0.79071 0.00874 0.09231 0.0
C581 C 0.78522 0.96004 0.12182 0.0
C582 C 0.7642 0.92851 0.07267 0.0
C583 C 0.77376 0.00548 0.08494 0.0
O584 O 0.77564 0.95516 0.10634 0.0
O585 O 0.80041 0.97188 0.12165 0.0
O586 O 0.7844 0.96506 0.05044 0.0
O587 O 0.80422 0.96966 0.07526 0.0
Co588 Co 0.03294 0.25598 0.1339 0.0
O589 O 0.0498 0.26734 0.15365 0.0
O590 O 0.02646 0.24376 0.15874 0.0
C591 C 0.05657 0.25134 0.1117 0.0
O592 O 0.01298 0.24053 0.11696 0.0
Co593 Co 0.02846 0.27734 0.09387 0.0
O594 O 0.01689 0.25063 0.08589 0.0
C595 C 0.00787 0.29285 0.12858 0.0
C596 C 0.04016 0.2558 0.16585 0.0
C597 C 0.00958 0.23855 0.09861 0.0
O598 O 0.01366 0.27789 0.13884 0.0
O599 O 0.01304 0.29584 0.11084 0.0
O600 O 0.0534 0.23782 0.12522 0.0
O601 O 0.04661 0.26755 0.11304 0.0
Co602 Co 0.90294 0.80697 0.64042 0.0
O603 O 0.91039 0.7868 0.65893 0.0
O604 O 0.88522 0.80697 0.66236 0.0
C605 C 0.90535 0.78732 0.61389 0.0
O606 O 0.89034 0.82906 0.62437 0.0
Co607 Co 0.93198 0.82308 0.60936 0.0
O608 O 0.90914 0.83723 0.59853 0.0
C609 C 0.93631 0.83756 0.64959 0.0
C610 C 0.89579 0.79263 0.66945 0.0
C611 C 0.89342 0.83884 0.60837 0.0
O612 O 0.92044 0.82756 0.65388 0.0
O613 O 0.94422 0.83706 0.63269 0.0
O614 O 0.88959 0.78651 0.62455 0.0
O615 O 0.91976 0.79862 0.62044 0.0
Co616 Co 0.60917 0.92948 0.82932 0.0
O617 O 0.59319 0.95142 0.82124 0.0
O618 O 0.59142 0.93611 0.84999 0.0
C619 C 0.63823 0.94227 0.8194 0.0
O620 O 0.62363 0.90713 0.84313 0.0
Co621 Co 0.63046 0.90352 0.7988 0.0
O622 O 0.64375 0.89221 0.82194 0.0
C623 C 0.58816 0.89682 0.80453 0.0
C624 C 0.58495 0.94986 0.83827 0.0
C625 C 0.63734 0.8948 0.83917 0.0
O626 O 0.58916 0.90941 0.81878 0.0
O627 O 0.60287 0.89307 0.79366 0.0
O628 O 0.63056 0.94826 0.83566 0.0
O629 O 0.62696 0.93088 0.80849 0.0
Co630 Co 0.23274 0.03933 0.07529 0.0
O631 O 0.22742 0.06778 0.07362 0.0
O632 O 0.25712 0.05481 0.07378 0.0
C633 C 0.21183 0.02635 0.05302 0.0
O634 O 0.24383 0.01095 0.07625 0.0
Co635 Co 0.20047 0.00978 0.09148 0.0
O636 O 0.21921 0.98879 0.08392 0.0
C637 C 0.22244 0.03558 0.11881 0.0
C638 C 0.24635 0.0707 0.07318 0.0
C639 C 0.23691 0.99274 0.07881 0.0
O640 O 0.23345 0.04141 0.10456 0.0
O641 O 0.20723 0.02398 0.11654 0.0
O642 O 0.2281 0.03552 0.04766 0.0
O643 O 0.207 0.02923 0.07106 0.0
Co644 Co 0.36462 0.48735 0.20004 0.0
O645 O 0.3892 0.48944 0.18656 0.0
O646 O 0.38411 0.47286 0.21433 0.0
C647 C 0.34535 0.48075 0.17417 0.0
O648 O 0.34115 0.48138 0.21763 0.0
Co649 Co 0.33234 0.51831 0.19163 0.0
O650 O 0.31559 0.4992 0.20725 0.0
C651 C 0.36663 0.53095 0.21509 0.0
C652 C 0.39633 0.47917 0.2009 0.0
C653 C 0.32286 0.48569 0.21813 0.0
O654 O 0.37199 0.51245 0.21539 0.0
O655 O 0.35199 0.53681 0.2051 0.0
O656 O 0.35481 0.46615 0.1823 0.0
O657 O 0.34972 0.49876 0.18043 0.0
Co658 Co 0.674 0.79881 0.47809 0.0
O659 O 0.69744 0.78973 0.46588 0.0
O660 O 0.6672 0.78102 0.45661 0.0
C661 C 0.683 0.83162 0.48158 0.0
O662 O 0.64649 0.80529 0.48732 0.0
Co663 Co 0.67655 0.81446 0.52071 0.0
O664 O 0.6489 0.82185 0.51591 0.0
C665 C 0.67882 0.77095 0.5132 0.0
C666 C 0.68601 0.77854 0.45488 0.0
C667 C 0.63881 0.81493 0.50159 0.0
O668 O 0.67409 0.77444 0.49547 0.0
O669 O 0.68225 0.7851 0.52561 0.0
O670 O 0.6761 0.82512 0.46495 0.0
O671 O 0.68632 0.81779 0.49434 0.0
H672 H 0.2234 0.74604 0.06702 0.0
H673 H 0.2222 0.71062 0.07797 0.0
H674 H 0.21004 0.69103 0.01913 0.0
H675 H 0.21191 0.72586 0.00807 0.0
H676 H 0.19051 0.68732 0.07695 0.0
H677 H 0.24637 0.6482 0.03454 0.0
H678 H 0.24626 0.67549 0.03628 0.0
H679 H 0.23144 0.66225 0.01827 0.0
C680 C 0.22105 0.73412 0.05635 0.0
C681 C 0.21757 0.73886 0.03671 0.0
C682 C 0.22034 0.71388 0.06263 0.0
C683 C 0.21628 0.69806 0.04935 0.0
C684 C 0.21375 0.70279 0.02962 0.0
H685 H 0.15064 0.59057 0.04073 0.0
H686 H 0.17223 0.62057 0.03709 0.0
C687 C 0.21455 0.72287 0.02335 0.0
C688 C 0.21174 0.67705 0.0562 0.0
H689 H 0.21722 0.62739 0.04371 0.0
C690 C 0.1968 0.67421 0.07012 0.0
C691 C 0.21991 0.65985 0.04733 0.0
C692 C 0.23703 0.66165 0.03344 0.0
C693 C 0.18879 0.65484 0.07424 0.0
C694 C 0.19593 0.63787 0.06423 0.0
C695 C 0.21167 0.64049 0.05124 0.0
C696 C 0.1856 0.61787 0.06549 0.0
C697 C 0.17183 0.65274 0.08832 0.0
C698 C 0.1865 0.60606 0.08242 0.0
C699 C 0.17421 0.5888 0.08455 0.0
C700 C 0.1607 0.58321 0.06982 0.0
C701 C 0.16073 0.59449 0.05242 0.0
C702 C 0.17311 0.61161 0.05027 0.0
H703 H 0.16711 0.66763 0.09387 0.0
H704 H 0.15912 0.64489 0.08115 0.0
H705 H 0.17618 0.64335 0.10093 0.0
H706 H 0.19611 0.61067 0.09429 0.0
H707 H 0.1746 0.58048 0.09813 0.0
H708 H 0.75082 0.57027 0.38042 0.0
H709 H 0.73479 0.57283 0.34875 0.0
H710 H 0.77427 0.52954 0.32483 0.0
H711 H 0.79065 0.52703 0.35639 0.0
H712 H 0.76455 0.56223 0.29871 0.0
H713 H 0.69902 0.52402 0.33247 0.0
H714 H 0.70762 0.54696 0.34418 0.0
H715 H 0.72269 0.5251 0.34424 0.0
C716 C 0.75635 0.56153 0.36837 0.0
C717 C 0.77183 0.54817 0.37105 0.0
C718 C 0.74713 0.56301 0.35028 0.0
C719 C 0.7531 0.55106 0.33461 0.0
C720 C 0.76941 0.53881 0.33681 0.0
H721 H 0.71079 0.50897 0.22421 0.0
H722 H 0.73085 0.52076 0.25157 0.0
C723 C 0.77873 0.53739 0.35488 0.0
C724 C 0.74121 0.54975 0.31659 0.0
H725 H 0.69677 0.53256 0.29942 0.0
C726 C 0.74968 0.55588 0.29883 0.0
C727 C 0.72183 0.54142 0.31684 0.0
C728 C 0.71224 0.53382 0.33539 0.0
C729 C 0.73925 0.55383 0.28124 0.0
C730 C 0.72003 0.54508 0.28146 0.0
C731 C 0.71146 0.53938 0.29929 0.0
C732 C 0.70889 0.5403 0.26341 0.0
C733 C 0.74887 0.56109 0.26262 0.0
C734 C 0.68982 0.54732 0.26095 0.0
C735 C 0.67817 0.5404 0.24542 0.0
C736 C 0.68534 0.52622 0.23209 0.0
C737 C 0.70475 0.51987 0.23417 0.0
C738 C 0.71635 0.52675 0.24973 0.0
H739 H 0.7604 0.57299 0.2655 0.0
H740 H 0.75599 0.54816 0.25546 0.0
H741 H 0.73794 0.56724 0.25237 0.0
H742 H 0.68374 0.55769 0.27141 0.0
H743 H 0.66334 0.54571 0.24424 0.0
H744 H 0.86596 0.04664 0.75856 0.0
H745 H 0.84098 0.05424 0.73412 0.0
H746 H 0.80253 0.00754 0.75824 0.0
H747 H 0.82734 0.99965 0.78236 0.0
H748 H 0.80904 0.00312 0.71913 0.0
H749 H 0.7879 0.08186 0.73558 0.0
H750 H 0.81387 0.07852 0.73334 0.0
H751 H 0.80056 0.06634 0.75291 0.0
C752 C 0.85205 0.03824 0.75884 0.0
C753 C 0.84874 0.02238 0.77224 0.0
C754 C 0.83775 0.04269 0.74496 0.0
C755 C 0.81984 0.03155 0.74448 0.0
C756 C 0.81623 0.01633 0.75837 0.0
H757 H 0.72749 0.01548 0.6578 0.0
H758 H 0.74467 0.0173 0.68904 0.0
C759 C 0.8305 0.01178 0.77209 0.0
C760 C 0.80576 0.03403 0.72828 0.0
H761 H 0.77663 0.06786 0.70539 0.0
C762 C 0.80179 0.01722 0.71625 0.0
C763 C 0.79646 0.05248 0.7245 0.0
C764 C 0.79974 0.07081 0.73735 0.0
C765 C 0.7891 0.01842 0.70029 0.0
C766 C 0.77977 0.03685 0.69647 0.0
C767 C 0.78366 0.05371 0.7085 0.0
C768 C 0.76696 0.03901 0.67923 0.0
C769 C 0.78631 0.0001 0.68727 0.0
C770 C 0.7731 0.0516 0.66383 0.0
C771 C 0.76326 0.05073 0.64599 0.0
C772 C 0.74711 0.03718 0.64325 0.0
C773 C 0.73999 0.0259 0.65929 0.0
C774 C 0.74983 0.02686 0.67715 0.0
H775 H 0.79775 0.98875 0.68976 0.0
H776 H 0.7718 0.99268 0.69031 0.0
H777 H 0.78667 0.00458 0.67168 0.0
H778 H 0.78623 0.06118 0.6652 0.0
H779 H 0.76905 0.05983 0.63406 0.0
H780 H 0.36411 0.10808 0.87842 0.0
H781 H 0.3544 0.13251 0.90311 0.0
H782 H 0.31772 0.16164 0.861 0.0
H783 H 0.32689 0.13707 0.83642 0.0
H784 H 0.36207 0.1724 0.90138 0.0
H785 H 0.28172 0.1594 0.90743 0.0
H786 H 0.2974 0.14156 0.89566 0.0
H787 H 0.28933 0.16352 0.8827 0.0
C788 C 0.35372 0.11948 0.87449 0.0
C789 C 0.34634 0.12064 0.8554 0.0
C790 C 0.34817 0.13341 0.88863 0.0
C791 C 0.33512 0.14873 0.88398 0.0
C792 C 0.32739 0.14964 0.86508 0.0
H793 H 0.31218 0.26647 0.92919 0.0
H794 H 0.31353 0.23512 0.91029 0.0
C795 C 0.3328 0.13565 0.85098 0.0
C796 C 0.33122 0.165 0.89821 0.0
H797 H 0.29463 0.19136 0.91965 0.0
C798 C 0.34733 0.17632 0.90561 0.0
C799 C 0.31197 0.17015 0.90368 0.0
C800 C 0.29414 0.15788 0.8971 0.0
C801 C 0.3447 0.19305 0.91778 0.0
C802 C 0.32548 0.19855 0.9227 0.0
C803 C 0.30934 0.18707 0.9157 0.0
C804 C 0.32209 0.21666 0.93468 0.0
C805 C 0.36245 0.20515 0.92487 0.0
C806 C 0.32596 0.2164 0.9547 0.0
C807 C 0.32519 0.23423 0.96557 0.0
C808 C 0.32063 0.25268 0.95655 0.0
C809 C 0.31585 0.25261 0.9366 0.0
C810 C 0.31655 0.23471 0.92577 0.0
H811 H 0.37625 0.2002 0.918 0.0
H812 H 0.36071 0.22152 0.92179 0.0
H813 H 0.3638 0.20338 0.94089 0.0
H814 H 0.33021 0.20253 0.96177 0.0
H815 H 0.32885 0.23365 0.98091 0.0
H816 H 0.25303 0.54871 0.87225 0.0
H817 H 0.23791 0.54982 0.84011 0.0
H818 H 0.28983 0.52516 0.81464 0.0
H819 H 0.30491 0.52333 0.84689 0.0
H820 H 0.24576 0.56574 0.80342 0.0
H821 H 0.24809 0.48158 0.80334 0.0
H822 H 0.25413 0.49652 0.82459 0.0
H823 H 0.27167 0.49428 0.80519 0.0
C824 C 0.26144 0.54384 0.85981 0.0
C825 C 0.28004 0.53548 0.86224 0.0
C826 C 0.25275 0.54456 0.8414 0.0
C827 C 0.26254 0.53709 0.82507 0.0
C828 C 0.28183 0.53052 0.82715 0.0
H829 H 0.21331 0.49568 0.71531 0.0
H830 H 0.23661 0.51045 0.73869 0.0
C831 C 0.29045 0.52954 0.8456 0.0
C832 C 0.25169 0.53402 0.80652 0.0
H833 H 0.23389 0.49682 0.77624 0.0
C834 C 0.24329 0.55071 0.79734 0.0
C835 C 0.24828 0.51435 0.79875 0.0
C836 C 0.25584 0.49562 0.80853 0.0
C837 C 0.23155 0.5482 0.7806 0.0
C838 C 0.22805 0.52851 0.77301 0.0
C839 C 0.23676 0.51194 0.78198 0.0
C840 C 0.21449 0.52416 0.75654 0.0
C841 C 0.22299 0.56659 0.7712 0.0
C842 C 0.19434 0.52764 0.75838 0.0
C843 C 0.18093 0.51923 0.74496 0.0
C844 C 0.18748 0.50697 0.72968 0.0
C845 C 0.20778 0.50482 0.72708 0.0
C846 C 0.22114 0.51332 0.74039 0.0
H847 H 0.23139 0.58069 0.77515 0.0
H848 H 0.22276 0.56508 0.75509 0.0
H849 H 0.20766 0.56812 0.7763 0.0
H850 H 0.18883 0.53563 0.77092 0.0
H851 H 0.16539 0.52111 0.74737 0.0
H852 H 0.76133 0.26753 0.02527 0.0
H853 H 0.76556 0.30365 0.03296 0.0
H854 H 0.80695 0.28917 0.07809 0.0
H855 H 0.8015 0.253 0.07138 0.0
H856 H 0.78868 0.32147 0.08822 0.0
H857 H 0.81248 0.33174 0.01136 0.0
H858 H 0.78726 0.32371 0.01377 0.0
H859 H 0.80637 0.30715 0.02134 0.0
C860 C 0.7708 0.27211 0.03728 0.0
C861 C 0.78113 0.2576 0.04776 0.0
C862 C 0.77343 0.29275 0.04148 0.0
C863 C 0.78719 0.29925 0.05557 0.0
C864 C 0.79638 0.28461 0.06702 0.0
H865 H 0.8674 0.39875 0.05363 0.0
H866 H 0.84709 0.36819 0.04975 0.0
C867 C 0.79324 0.26393 0.06325 0.0
C868 C 0.79351 0.321 0.05724 0.0
H869 H 0.81427 0.36038 0.0314 0.0
C870 C 0.79417 0.33004 0.07577 0.0
C871 C 0.80082 0.33218 0.04099 0.0
C872 C 0.80189 0.32317 0.02079 0.0
C873 C 0.80268 0.3495 0.07867 0.0
C874 C 0.81011 0.36056 0.06245 0.0
C875 C 0.80853 0.35193 0.04381 0.0
C876 C 0.82178 0.37989 0.06456 0.0
C877 C 0.80464 0.35747 0.09921 0.0
C878 C 0.81429 0.39693 0.07395 0.0
C879 C 0.82611 0.41453 0.07649 0.0
C880 C 0.84546 0.41552 0.06931 0.0
C881 C 0.85257 0.39867 0.05928 0.0
C882 C 0.84093 0.38109 0.05705 0.0
H883 H 0.80226 0.3453 0.11021 0.0
H884 H 0.81939 0.36465 0.10162 0.0
H885 H 0.79349 0.36909 0.1017 0.0
H886 H 0.79939 0.39661 0.07942 0.0
H887 H 0.82013 0.42729 0.08417 0.0
H888 H 0.80173 0.24262 0.51363 0.0
H889 H 0.80608 0.2081 0.50199 0.0
H890 H 0.80049 0.22854 0.44267 0.0
H891 H 0.79622 0.2633 0.45413 0.0
H892 H 0.78268 0.18135 0.47637 0.0
H893 H 0.85619 0.20378 0.44684 0.0
H894 H 0.84328 0.21927 0.46397 0.0
H895 H 0.8362 0.21883 0.43878 0.0
C896 C 0.80123 0.23981 0.49808 0.0
C897 C 0.79891 0.25582 0.48477 0.0
C898 C 0.80364 0.22003 0.49149 0.0
C899 C 0.80389 0.21587 0.47149 0.0
C900 C 0.80057 0.23155 0.45818 0.0
H901 H 0.81066 0.10384 0.4077 0.0
H902 H 0.79935 0.13418 0.42408 0.0
C903 C 0.79806 0.25138 0.46476 0.0
C904 C 0.80901 0.19545 0.46459 0.0
H905 H 0.84478 0.17023 0.44076 0.0
C906 C 0.79623 0.17887 0.46856 0.0
C907 C 0.82688 0.19227 0.45478 0.0
C908 C 0.84156 0.20941 0.45094 0.0
C909 C 0.80069 0.15918 0.46251 0.0
C910 C 0.81832 0.15613 0.45223 0.0
C911 C 0.83124 0.17266 0.44863 0.0
C912 C 0.82354 0.13608 0.44444 0.0
C913 C 0.78666 0.14178 0.4673 0.0
C914 C 0.84076 0.12692 0.45065 0.0
C915 C 0.8473 0.10954 0.44133 0.0
C916 C 0.83686 0.10119 0.42542 0.0
C917 C 0.81912 0.10991 0.41983 0.0
C918 C 0.81254 0.1272 0.42926 0.0
H919 H 0.77624 0.14578 0.47902 0.0
H920 H 0.77803 0.13764 0.4541 0.0
H921 H 0.79478 0.12825 0.47189 0.0
H922 H 0.8495 0.13363 0.4623 0.0
H923 H 0.86102 0.10326 0.446 0.0
H924 H 0.2295 0.94053 0.62895 0.0
H925 H 0.21148 0.93835 0.65958 0.0
H926 H 0.24899 0.98574 0.68379 0.0
H927 H 0.26695 0.98842 0.65302 0.0
H928 H 0.22031 0.93253 0.69947 0.0
H929 H 0.19414 0.00988 0.6841 0.0
H930 H 0.20685 0.99521 0.66619 0.0
H931 H 0.22034 0.00804 0.68527 0.0
C932 C 0.23421 0.95029 0.64086 0.0
C933 C 0.24946 0.96497 0.63833 0.0
C934 C 0.22388 0.94895 0.6584 0.0
C935 C 0.22861 0.9622 0.67376 0.0
C936 C 0.24486 0.97566 0.67192 0.0
H937 H 0.16581 0.9955 0.77745 0.0
H938 H 0.19074 0.98981 0.75284 0.0
C939 C 0.25517 0.9771 0.65434 0.0
C940 C 0.21532 0.9633 0.69078 0.0
H941 H 0.18364 0.99465 0.71343 0.0
C942 C 0.21232 0.94611 0.70261 0.0
C943 C 0.20474 0.98097 0.69464 0.0
C944 C 0.20649 0.99953 0.68181 0.0
C945 C 0.19924 0.94627 0.71845 0.0
C946 C 0.18876 0.96399 0.72231 0.0
C947 C 0.19179 0.98113 0.71047 0.0
C948 C 0.17453 0.96537 0.73853 0.0
C949 C 0.19692 0.92765 0.73106 0.0
C950 C 0.15718 0.95331 0.73881 0.0
C951 C 0.14277 0.95652 0.75294 0.0
C952 C 0.14542 0.972 0.76687 0.0
C953 C 0.16313 0.98358 0.76684 0.0
C954 C 0.17748 0.98031 0.75282 0.0
H955 H 0.20926 0.91724 0.72906 0.0
H956 H 0.19603 0.93188 0.74669 0.0
H957 H 0.1831 0.91933 0.7271 0.0
H958 H 0.15446 0.94194 0.72768 0.0
H959 H 0.1293 0.94737 0.75253 0.0
H960 H 0.10973 0.1459 0.57143 0.0
H961 H 0.13269 0.12017 0.56118 0.0
H962 H 0.15346 0.11528 0.62031 0.0
H963 H 0.13126 0.14154 0.63044 0.0
H964 H 0.18299 0.11507 0.59652 0.0
H965 H 0.12624 0.06043 0.56873 0.0
H966 H 0.12609 0.08448 0.55659 0.0
H967 H 0.12012 0.08288 0.58209 0.0
C968 C 0.11927 0.13939 0.58221 0.0
C969 C 0.11863 0.14573 0.60176 0.0
C970 C 0.13226 0.12453 0.57637 0.0
C971 C 0.14449 0.11538 0.59005 0.0
C972 C 0.14413 0.12202 0.60948 0.0
H973 H 0.20286 0.00158 0.58592 0.0
H974 H 0.17909 0.02861 0.58753 0.0
C975 C 0.13143 0.1371 0.61525 0.0
C976 C 0.1579 0.09904 0.58431 0.0
H977 H 0.15939 0.05196 0.5637 0.0
C978 C 0.17781 0.10128 0.58932 0.0
C979 C 0.15111 0.08091 0.57514 0.0
C980 C 0.1297 0.07689 0.57049 0.0
C981 C 0.19105 0.08585 0.58576 0.0
C982 C 0.1844 0.06794 0.57609 0.0
C983 C 0.16453 0.06578 0.57086 0.0
C984 C 0.19761 0.05082 0.57249 0.0
C985 C 0.2118 0.08863 0.59324 0.0
C986 C 0.21551 0.05396 0.56264 0.0
C987 C 0.22924 0.03868 0.56208 0.0
C988 C 0.22504 0.01976 0.57077 0.0
C989 C 0.20644 0.01601 0.57905 0.0
C990 C 0.19288 0.03147 0.58002 0.0
H991 H 0.21287 0.10025 0.60494 0.0
H992 H 0.21737 0.07421 0.59908 0.0
H993 H 0.22152 0.09381 0.58115 0.0
H994 H 0.21921 0.0685 0.55609 0.0
H995 H 0.2434 0.04186 0.55538 0.0
H996 H 0.06099 0.37162 0.88684 0.0
H997 H 0.05721 0.39711 0.86121 0.0
H998 H 0.07515 0.3538 0.81818 0.0
H999 H 0.07882 0.32843 0.84349 0.0
H1000 H 0.08968 0.4097 0.84085 0.0
H1001 H 0.03308 0.38307 0.7887 0.0
H1002 H 0.03409 0.37371 0.81342 0.0
H1003 H 0.04905 0.36292 0.79467 0.0
C1004 C 0.06342 0.36735 0.87182 0.0
C1005 C 0.07039 0.34812 0.86716 0.0
C1006 C 0.06127 0.38193 0.85721 0.0
C1007 C 0.0657 0.3773 0.83777 0.0
C1008 C 0.07121 0.35761 0.83299 0.0
H1009 H 0.13418 0.41937 0.74904 0.0
H1010 H 0.11553 0.40465 0.77615 0.0
C1011 C 0.07353 0.34316 0.84753 0.0
C1012 C 0.06835 0.39353 0.82304 0.0
H1013 H 0.06104 0.4026 0.77468 0.0
C1014 C 0.08289 0.40862 0.82658 0.0
C1015 C 0.05948 0.3922 0.80444 0.0
C1016 C 0.0429 0.3772 0.80017 0.0
C1017 C 0.09014 0.42102 0.8115 0.0
C1018 C 0.08266 0.4182 0.79251 0.0
C1019 C 0.06687 0.40451 0.78929 0.0
C1020 C 0.09307 0.42705 0.77559 0.0
C1021 C 0.10675 0.43606 0.81559 0.0
C1022 C 0.08637 0.4444 0.76626 0.0
C1023 C 0.09707 0.45298 0.75076 0.0
C1024 C 0.1145 0.44419 0.74433 0.0
C1025 C 0.12083 0.42653 0.75355 0.0
C1026 C 0.11023 0.41809 0.76906 0.0
H1027 H 0.10828 0.43927 0.83142 0.0
H1028 H 0.12071 0.4298 0.81029 0.0
H1029 H 0.10444 0.4505 0.80775 0.0
H1030 H 0.07311 0.45144 0.77117 0.0
H1031 H 0.09173 0.46653 0.74392 0.0
H1032 H 0.85207 0.22377 0.02563 0.0
H1033 H 0.88658 0.22206 0.03442 0.0
H1034 H 0.8785 0.15834 0.04754 0.0
H1035 H 0.84347 0.16045 0.04002 0.0
H1036 H 0.89814 0.17367 0.0746 0.0
H1037 H 0.93357 0.20333 0.00843 0.0
H1038 H 0.91643 0.22166 0.01612 0.0
H1039 H 0.90774 0.1966 0.00894 0.0
C1040 C 0.85775 0.20933 0.03005 0.0
C1041 C 0.84518 0.19224 0.03211 0.0
C1042 C 0.87757 0.20828 0.03491 0.0
C1043 C 0.88541 0.18994 0.0412 0.0
C1044 C 0.8729 0.17265 0.04265 0.0
H1045 H 0.00937 0.21513 0.06589 0.0
H1046 H 0.98121 0.19614 0.05211 0.0
C1047 C 0.85292 0.17385 0.03832 0.0
C1048 C 0.90609 0.18951 0.0481 0.0
H1049 H 0.95141 0.21051 0.03892 0.0
C1050 C 0.90991 0.18129 0.06655 0.0
C1051 C 0.92179 0.19866 0.03746 0.0
C1052 C 0.91965 0.20529 0.01655 0.0
C1053 C 0.92847 0.18355 0.07527 0.0
C1054 C 0.94334 0.1953 0.06575 0.0
C1055 C 0.94 0.20195 0.04661 0.0
C1056 C 0.96149 0.20277 0.0759 0.0
C1057 C 0.93175 0.17342 0.09464 0.0
C1058 C 0.96016 0.21217 0.09422 0.0
C1059 C 0.97644 0.22231 0.10241 0.0
C1060 C 0.99417 0.22396 0.09209 0.0
C1061 C 0.99582 0.21399 0.07413 0.0
C1062 C 0.9797 0.20324 0.06623 0.0
H1063 H 0.92356 0.15861 0.09535 0.0
H1064 H 0.94753 0.17079 0.09735 0.0
H1065 H 0.926 0.18305 0.10646 0.0
H1066 H 0.94624 0.21283 0.10173 0.0
H1067 H 0.9747 0.23022 0.1161 0.0
H1068 H 0.01577 0.23423 0.37064 0.0
H1069 H 0.99408 0.20817 0.35592 0.0
H1070 H 0.00849 0.16657 0.4018 0.0
H1071 H 0.03029 0.19218 0.41643 0.0
H1072 H 0.00643 0.14863 0.36413 0.0
H1073 H 0.94083 0.19371 0.38166 0.0
H1074 H 0.95967 0.20565 0.36691 0.0
H1075 H 0.96466 0.19977 0.39192 0.0
C1076 C 0.0145 0.21946 0.37748 0.0
C1077 C 0.02458 0.21541 0.39489 0.0
C1078 C 0.00207 0.20462 0.36906 0.0
C1079 C -0.0005 0.18557 0.37795 0.0
C1080 C 0.01026 0.1812 0.39474 0.0
H1081 H 0.9311 0.08203 0.39656 0.0
H1082 H 0.95738 0.10695 0.39016 0.0
C1083 C 0.02266 0.19594 0.40314 0.0
C1084 C 0.98464 0.1705 0.3709 0.0
H1085 H 0.93527 0.16038 0.3712 0.0
C1086 C 0.99085 0.15128 0.36528 0.0
C1087 C 0.96433 0.17407 0.37231 0.0
C1088 C 0.95685 0.19435 0.37862 0.0
C1089 C 0.97728 0.1352 0.36208 0.0
C1090 C 0.95708 0.13841 0.36488 0.0
C1091 C 0.9508 0.15798 0.36911 0.0
C1092 C 0.94249 0.12139 0.36627 0.0
C1093 C 0.98475 0.11477 0.35636 0.0
C1094 C 0.92536 0.12117 0.35493 0.0
C1095 C 0.91018 0.10695 0.35864 0.0
C1096 C 0.91177 0.09291 0.37395 0.0
C1097 C 0.92932 0.09265 0.3847 0.0
C1098 C 0.94449 0.10678 0.38093 0.0
H1099 H 0.99882 0.11636 0.34824 0.0
H1100 H 0.98752 0.10582 0.36971 0.0
H1101 H 0.9739 0.1062 0.34723 0.0
H1102 H 0.92348 0.13245 0.34368 0.0
H1103 H 0.89685 0.10761 0.35009 0.0
H1104 H 0.13201 0.70146 0.51332 0.0
H1105 H 0.097 0.69919 0.50719 0.0
H1106 H 0.10253 0.63824 0.48536 0.0
H1107 H 0.1382 0.6412 0.49012 0.0
H1108 H 0.08144 0.65553 0.46222 0.0
H1109 H 0.05069 0.67623 0.53258 0.0
H1110 H 0.06815 0.69606 0.52677 0.0
H1111 H 0.07626 0.67045 0.53021 0.0
C1112 C 0.12572 0.6874 0.50759 0.0
C1113 C 0.13777 0.67148 0.50223 0.0
C1114 C 0.10557 0.686 0.5043 0.0
C1115 C 0.09682 0.66831 0.49631 0.0
C1116 C 0.10882 0.65202 0.49165 0.0
H1117 H 0.97352 0.69723 0.47629 0.0
H1118 H 0.00103 0.67842 0.48955 0.0
C1119 C 0.12917 0.65368 0.49438 0.0
C1120 C 0.07574 0.66819 0.4906 0.0
H1121 H 0.03258 0.68899 0.50376 0.0
C1122 C 0.07062 0.66231 0.47156 0.0
C1123 C 0.06111 0.67615 0.50282 0.0
C1124 C 0.06437 0.67979 0.52429 0.0
C1125 C 0.05203 0.66613 0.46387 0.0
C1126 C 0.03864 0.67727 0.47508 0.0
C1127 C 0.04299 0.68117 0.49476 0.0
C1128 C 0.0212 0.68677 0.46626 0.0
C1129 C 0.0472 0.65838 0.4437 0.0
C1130 C 0.02325 0.69779 0.4488 0.0
C1131 C 0.00742 0.70787 0.44095 0.0
C1132 C 0.98943 0.70796 0.45083 0.0
C1133 C 0.98733 0.69735 0.46846 0.0
C1134 C 0.00302 0.68662 0.476 0.0
H1135 H 0.05387 0.64344 0.44123 0.0
H1136 H 0.03113 0.65669 0.4413 0.0
H1137 H 0.05359 0.66901 0.43271 0.0
H1138 H 0.03726 0.6991 0.44143 0.0
H1139 H 0.00945 0.71624 0.42749 0.0
H1140 H 0.55556 0.32995 0.59308 0.0
H1141 H 0.53353 0.35482 0.60644 0.0
H1142 H 0.51355 0.31174 0.64988 0.0
H1143 H 0.53558 0.28664 0.63663 0.0
H1144 H 0.48379 0.32767 0.62667 0.0
H1145 H 0.53183 0.3892 0.65652 0.0
H1146 H 0.53923 0.38124 0.6327 0.0
H1147 H 0.54012 0.36373 0.65275 0.0
C1148 C 0.54677 0.32583 0.60569 0.0
C1149 C 0.54723 0.30622 0.61365 0.0
C1150 C 0.53432 0.34016 0.61344 0.0
C1151 C 0.52211 0.33519 0.62929 0.0
C1152 C 0.52302 0.31591 0.63776 0.0
H1153 H 0.41506 0.40409 0.64837 0.0
H1154 H 0.44117 0.38102 0.65693 0.0
C1155 C 0.5356 0.30159 0.63011 0.0
C1156 C 0.50661 0.34918 0.63504 0.0
H1157 H 0.49926 0.39858 0.64676 0.0
C1158 C 0.48705 0.34304 0.63157 0.0
C1159 C 0.511 0.36915 0.64142 0.0
C1160 C 0.53168 0.37618 0.64625 0.0
C1161 C 0.47187 0.35685 0.63269 0.0
C1162 C 0.4764 0.37722 0.63794 0.0
C1163 C 0.49582 0.38298 0.64273 0.0
C1164 C 0.46182 0.39323 0.63569 0.0
C1165 C 0.45141 0.34985 0.62678 0.0
C1166 C 0.46524 0.4085 0.6218 0.0
C1167 C 0.4505 0.4218 0.61703 0.0
C1168 C 0.43197 0.42004 0.62601 0.0
C1169 C 0.42905 0.40566 0.64096 0.0
C1170 C 0.44392 0.3924 0.64581 0.0
H1171 H 0.45119 0.33464 0.61982 0.0
H1172 H 0.4419 0.34894 0.63987 0.0
H1173 H 0.44498 0.36075 0.61644 0.0
H1174 H 0.47901 0.40952 0.61392 0.0
H1175 H 0.45343 0.43293 0.60572 0.0
H1176 H 0.87237 0.64008 0.95411 0.0
H1177 H 0.84686 0.61362 0.95912 0.0
H1178 H 0.81904 0.63064 0.90546 0.0
H1179 H 0.84431 0.65711 0.90025 0.0
H1180 H 0.80236 0.61605 0.95885 0.0
H1181 H 0.83423 0.56876 0.90053 0.0
H1182 H 0.84803 0.58896 0.91254 0.0
H1183 H 0.8303 0.59477 0.89419 0.0
C1184 C 0.86069 0.6384 0.94348 0.0
C1185 C 0.86053 0.65066 0.92667 0.0
C1186 C 0.84613 0.62328 0.9464 0.0
C1187 C 0.83126 0.62008 0.93254 0.0
C1188 C 0.83054 0.6328 0.91622 0.0
H1189 H 0.72338 0.5507 0.92699 0.0
H1190 H 0.74916 0.57669 0.93129 0.0
C1191 C 0.84499 0.64796 0.91332 0.0
C1192 C 0.81707 0.60277 0.93446 0.0
H1193 H 0.80317 0.55804 0.91289 0.0
C1194 C 0.80257 0.60326 0.94893 0.0
C1195 C 0.81765 0.58601 0.9217 0.0
C1196 C 0.83346 0.58439 0.90643 0.0
C1197 C 0.7881 0.58768 0.95048 0.0
C1198 C 0.78813 0.57138 0.93707 0.0
C1199 C 0.80311 0.57057 0.9231 0.0
C1200 C 0.77222 0.55553 0.93647 0.0
C1201 C 0.77293 0.58884 0.96641 0.0
C1202 C 0.77661 0.53493 0.93778 0.0
C1203 C 0.76188 0.51993 0.93513 0.0
C1204 C 0.74252 0.52528 0.93093 0.0
C1205 C 0.73813 0.54597 0.93012 0.0
C1206 C 0.75283 0.56091 0.93278 0.0
H1207 H 0.77836 0.59832 0.97877 0.0
H1208 H 0.7596 0.59588 0.96052 0.0
H1209 H 0.76869 0.57352 0.97198 0.0
H1210 H 0.79152 0.53045 0.9405 0.0
H1211 H 0.7658 0.50417 0.93589 0.0
H1212 H 0.63489 0.17422 0.17254 0.0
H1213 H 0.62763 0.14746 0.19614 0.0
H1214 H 0.58068 0.12412 0.15964 0.0
H1215 H 0.58807 0.15066 0.1356 0.0
H1216 H 0.59435 0.13512 0.21721 0.0
H1217 H 0.61658 0.07592 0.16462 0.0
H1218 H 0.62131 0.10259 0.16034 0.0
H1219 H 0.59713 0.09166 0.15661 0.0
C1220 C 0.62287 0.16356 0.16953 0.0
C1221 C 0.61227 0.16445 0.15196 0.0
C1222 C 0.61872 0.14827 0.18311 0.0
C1223 C 0.60389 0.13356 0.17946 0.0
C1224 C 0.59248 0.13508 0.16253 0.0
H1225 H 0.58229 0.0194 0.24173 0.0
H1226 H 0.57805 0.04884 0.22073 0.0
C1227 C 0.59666 0.15035 0.14886 0.0
C1228 C 0.60135 0.11607 0.19288 0.0
H1229 H 0.60688 0.06491 0.19579 0.0
C1230 C 0.59693 0.11974 0.21252 0.0
C1231 C 0.60477 0.09602 0.18671 0.0
C1232 C 0.61037 0.09122 0.16597 0.0
C1233 C 0.59608 0.10391 0.2262 0.0
C1234 C 0.60001 0.08398 0.22011 0.0
C1235 C 0.60384 0.08022 0.20039 0.0
C1236 C 0.60139 0.06693 0.23406 0.0
C1237 C 0.59103 0.10865 0.24707 0.0
C1238 C 0.61592 0.06737 0.24854 0.0
C1239 C 0.61845 0.05055 0.26056 0.0
C1240 C 0.60656 0.03289 0.25825 0.0
C1241 C 0.59174 0.0327 0.24395 0.0
C1242 C 0.58926 0.04952 0.23192 0.0
H1243 H 0.58304 0.12302 0.24825 0.0
H1244 H 0.58192 0.09622 0.25366 0.0
H1245 H 0.60478 0.1104 0.25564 0.0
H1246 H 0.6257 0.0805 0.25018 0.0
H1247 H 0.63002 0.05126 0.27137 0.0
H1248 H 0.96723 0.80983 0.41948 0.0
H1249 H 0.98774 0.83695 0.40548 0.0
H1250 H 0.00656 0.79659 0.36026 0.0
H1251 H 0.98611 0.76914 0.37425 0.0
H1252 H 0.03711 0.81538 0.38031 0.0
H1253 H 0.98428 0.87234 0.35695 0.0
H1254 H 0.97956 0.86372 0.38134 0.0
H1255 H 0.97715 0.84613 0.36136 0.0
C1256 C 0.97546 0.80673 0.40638 0.0
C1257 C 0.9751 0.78723 0.39809 0.0
C1258 C 0.98704 0.82235 0.39826 0.0
C1259 C 0.99843 0.81887 0.38165 0.0
C1260 C 0.99771 0.79962 0.37297 0.0
H1261 H 0.09953 0.89987 0.35276 0.0
H1262 H 0.07318 0.87463 0.3466 0.0
C1263 C 0.98604 0.78396 0.38103 0.0
C1264 C 0.01279 0.83467 0.37502 0.0
H1265 H 0.01716 0.88514 0.36449 0.0
C1266 C 0.0328 0.83051 0.37632 0.0
C1267 C 0.00709 0.85435 0.3698 0.0
C1268 C 0.98583 0.85936 0.36708 0.0
C1269 C 0.04726 0.84593 0.37413 0.0
C1270 C 0.04149 0.86593 0.37015 0.0
C1271 C 0.02153 0.8698 0.36758 0.0
C1272 C 0.05569 0.88329 0.37136 0.0
C1273 C 0.06848 0.84096 0.3775 0.0
C1274 C 0.05401 0.89719 0.38666 0.0
C1275 C 0.06892 0.91168 0.39017 0.0
C1276 C 0.08584 0.91253 0.37841 0.0
C1277 C 0.0868 0.89953 0.3622 0.0
C1278 C 0.07181 0.88503 0.3587 0.0
H1279 H 0.07009 0.82543 0.38341 0.0
H1280 H 0.07657 0.842 0.36349 0.0
H1281 H 0.07549 0.85196 0.38779 0.0
H1282 H 0.04163 0.89616 0.39655 0.0
H1283 H 0.06754 0.92158 0.40264 0.0
H1284 H 0.54942 0.21671 0.53635 0.0
H1285 H 0.52043 0.20032 0.52128 0.0
H1286 H 0.48548 0.21735 0.57079 0.0
H1287 H 0.51469 0.2322 0.58642 0.0
H1288 H 0.47302 0.18303 0.55934 0.0
H1289 H 0.48093 0.23066 0.49303 0.0
H1290 H 0.50101 0.21418 0.49657 0.0
H1291 H 0.49674 0.23416 0.51382 0.0
C1292 C 0.53556 0.21659 0.54408 0.0
C1293 C 0.53419 0.22576 0.56247 0.0
C1294 C 0.51895 0.20746 0.53537 0.0
C1295 C 0.50053 0.20819 0.54453 0.0
C1296 C 0.49943 0.21663 0.56331 0.0
H1297 H 0.38664 0.21681 0.4966 0.0
H1298 H 0.42137 0.21967 0.505 0.0
C1299 C 0.51614 0.22512 0.57227 0.0
C1300 C 0.48218 0.20094 0.53458 0.0
H1301 H 0.4542 0.20738 0.49388 0.0
C1302 C 0.46892 0.18835 0.54501 0.0
C1303 C 0.47674 0.20792 0.51586 0.0
C1304 C 0.4895 0.22262 0.50424 0.0
C1305 C 0.45006 0.18348 0.53784 0.0
C1306 C 0.44465 0.19035 0.51907 0.0
C1307 C 0.45832 0.20202 0.5082 0.0
C1308 C 0.42426 0.18772 0.51143 0.0
C1309 C 0.43584 0.17218 0.55112 0.0
C1310 C 0.41438 0.16869 0.51132 0.0
C1311 C 0.39428 0.16718 0.50714 0.0
C1312 C 0.38399 0.18452 0.50206 0.0
C1313 C 0.39427 0.20318 0.50035 0.0
C1314 C 0.41415 0.20481 0.5052 0.0
H1315 H 0.44059 0.17296 0.56659 0.0
H1316 H 0.42092 0.17838 0.55013 0.0
H1317 H 0.43502 0.15595 0.54689 0.0
H1318 H 0.42197 0.15512 0.51522 0.0
H1319 H 0.38667 0.15258 0.50837 0.0
H1320 H 0.90353 0.53789 0.74371 0.0
H1321 H 0.92397 0.55146 0.77034 0.0
H1322 H 0.87859 0.59268 0.78555 0.0
H1323 H 0.85808 0.57938 0.75906 0.0
H1324 H 0.93579 0.5955 0.77732 0.0
H1325 H 0.8921 0.55915 0.83651 0.0
H1326 H 0.89195 0.54972 0.81178 0.0
H1327 H 0.8774 0.57096 0.81825 0.0
C1328 C 0.89788 0.54985 0.75273 0.0
C1329 C 0.8791 0.5575 0.74933 0.0
C1330 C 0.90961 0.55757 0.76788 0.0
C1331 C 0.90262 0.57282 0.77996 0.0
C1332 C 0.88407 0.58069 0.77645 0.0
H1333 H 0.92246 0.67055 0.8449 0.0
H1334 H 0.92629 0.64474 0.82012 0.0
C1335 C 0.87242 0.57315 0.76125 0.0
C1336 C 0.91449 0.58094 0.7963 0.0
H1337 H 0.91078 0.58944 0.84499 0.0
C1338 C 0.93074 0.5938 0.79223 0.0
C1339 C 0.90821 0.57821 0.81573 0.0
C1340 C 0.89157 0.56359 0.82091 0.0
C1341 C 0.93952 0.60572 0.80696 0.0
C1342 C 0.93158 0.60487 0.82599 0.0
C1343 C 0.91679 0.59028 0.83037 0.0
C1344 C 0.93507 0.62141 0.84025 0.0
C1345 C 0.95648 0.6199 0.80178 0.0
C1346 C 0.93921 0.61712 0.85985 0.0
C1347 C 0.93689 0.63195 0.87417 0.0
C1348 C 0.93008 0.65112 0.86905 0.0
C1349 C 0.92757 0.65585 0.84928 0.0
C1350 C 0.93002 0.64113 0.83504 0.0
H1351 H 0.96577 0.61313 0.79034 0.0
H1352 H 0.95072 0.63417 0.7958 0.0
H1353 H 0.96574 0.62362 0.81467 0.0
H1354 H 0.94295 0.60193 0.86419 0.0
H1355 H 0.93889 0.62789 0.88931 0.0
H1356 H 0.13958 0.78264 0.00824 0.0
H1357 H 0.10563 0.78039 0.01945 0.0
H1358 H 0.12059 0.81873 0.06844 0.0
H1359 H 0.15469 0.82091 0.05751 0.0
H1360 H 0.10243 0.78259 0.07885 0.0
H1361 H 0.06022 0.81919 0.02035 0.0
H1362 H 0.07653 0.80048 0.01142 0.0
H1363 H 0.08644 0.82299 0.02303 0.0
C1364 C 0.13564 0.79091 0.02121 0.0
C1365 C 0.14995 0.80182 0.03206 0.0
C1366 C 0.11615 0.78973 0.02751 0.0
C1367 C 0.11055 0.79957 0.04466 0.0
C1368 C 0.12461 0.81111 0.0551 0.0
H1369 H 0.0041 0.77878 0.1145 0.0
H1370 H 0.0343 0.79452 0.1015 0.0
C1371 C 0.14411 0.8123 0.04884 0.0
C1372 C 0.09067 0.79582 0.05285 0.0
H1373 H 0.04182 0.79748 0.04222 0.0
C1374 C 0.08915 0.78615 0.07101 0.0
C1375 C 0.07342 0.80038 0.04251 0.0
C1376 C 0.07418 0.81151 0.02333 0.0
C1377 C 0.07087 0.78009 0.07875 0.0
C1378 C 0.05361 0.78421 0.06821 0.0
C1379 C 0.05508 0.79438 0.05028 0.0
C1380 C 0.03407 0.77678 0.075 0.0
C1381 C 0.07028 0.76847 0.0977 0.0
C1382 C 0.02346 0.76231 0.06397 0.0
C1383 C 0.00612 0.75339 0.07125 0.0
C1384 C -0.00093 0.75877 0.08975 0.0
C1385 C 0.00922 0.77407 0.10032 0.0
C1386 C 0.02652 0.78306 0.09295 0.0
H1387 H 0.0849 0.76274 0.10169 0.0
H1388 H 0.06549 0.77861 0.10956 0.0
H1389 H 0.05967 0.75539 0.09685 0.0
H1390 H 0.029 0.75733 0.05003 0.0
H1391 H 0.99865 0.74177 0.06264 0.0
H1392 H 0.36895 0.82152 0.17149 0.0
H1393 H 0.3753 0.84755 0.19606 0.0
H1394 H 0.42442 0.8711 0.16259 0.0
H1395 H 0.41801 0.84526 0.1376 0.0
H1396 H 0.40806 0.85882 0.21902 0.0
H1397 H 0.38839 0.91959 0.16698 0.0
H1398 H 0.3835 0.89308 0.16198 0.0
H1399 H 0.40793 0.90373 0.15938 0.0
C1400 C 0.38125 0.83208 0.16936 0.0
C1401 C 0.39279 0.83144 0.15237 0.0
C1402 C 0.38488 0.84693 0.18349 0.0
C1403 C 0.40008 0.86148 0.18096 0.0
C1404 C 0.41236 0.86023 0.16462 0.0
H1405 H 0.41953 0.97419 0.24579 0.0
H1406 H 0.42442 0.94508 0.22458 0.0
C1407 C 0.40873 0.84537 0.15041 0.0
C1408 C 0.40214 0.87857 0.1949 0.0
H1409 H 0.39672 0.92967 0.19878 0.0
C1410 C 0.40574 0.87435 0.2146 0.0
C1411 C 0.39905 0.8988 0.18908 0.0
C1412 C 0.39434 0.90416 0.16825 0.0
C1413 C 0.40616 0.88981 0.22868 0.0
C1414 C 0.40256 0.90993 0.22291 0.0
C1415 C 0.3995 0.91422 0.20315 0.0
C1416 C 0.40087 0.92667 0.23716 0.0
C1417 C 0.41042 0.88447 0.24958 0.0
C1418 C 0.38605 0.92595 0.25136 0.0
C1419 C 0.38317 0.94258 0.26354 0.0
C1420 C 0.39497 0.96035 0.26164 0.0
C1421 C 0.41012 0.96081 0.24768 0.0
C1422 C 0.41297 0.94417 0.23552 0.0
H1423 H 0.41843 0.8701 0.25067 0.0
H1424 H 0.41924 0.89672 0.25683 0.0
H1425 H 0.39636 0.88241 0.25759 0.0
H1426 H 0.37627 0.91276 0.25261 0.0
H1427 H 0.37134 0.94168 0.27406 0.0
H1428 H 0.55163 0.29326 0.94775 0.0
H1429 H 0.52348 0.3091 0.96318 0.0
H1430 H 0.48863 0.29618 0.91186 0.0
H1431 H 0.51718 0.28221 0.89592 0.0
H1432 H 0.47686 0.32862 0.92612 0.0
H1433 H 0.48287 0.27521 0.98819 0.0
H1434 H 0.50335 0.29273 0.98627 0.0
H1435 H 0.4988 0.27418 0.96738 0.0
C1436 C 0.53804 0.29438 0.93968 0.0
C1437 C 0.53643 0.28653 0.92073 0.0
C1438 C 0.52189 0.30313 0.94858 0.0
C1439 C 0.50362 0.30313 0.93904 0.0
C1440 C 0.50245 0.2963 0.91965 0.0
H1441 H 0.39003 0.28227 0.98451 0.0
H1442 H 0.42453 0.28313 0.97526 0.0
C1443 C 0.51878 0.28831 0.9105 0.0
C1444 C 0.48534 0.30882 0.94935 0.0
H1445 H 0.45645 0.29691 0.98862 0.0
C1446 C 0.47241 0.3217 0.93981 0.0
C1447 C 0.47944 0.29976 0.96725 0.0
C1448 C 0.49174 0.28457 0.97778 0.0
C1449 C 0.45338 0.32472 0.94688 0.0
C1450 C 0.44748 0.31561 0.96474 0.0
C1451 C 0.46091 0.30388 0.97494 0.0
C1452 C 0.42685 0.3158 0.97192 0.0
C1453 C 0.43949 0.33647 0.93436 0.0
C1454 C 0.4166 0.33389 0.97369 0.0
C1455 C 0.39658 0.33331 0.97834 0.0
C1456 C 0.38675 0.31471 0.98217 0.0
C1457 C 0.39731 0.29682 0.98176 0.0
C1458 C 0.41706 0.29733 0.97646 0.0
H1459 H 0.4447 0.33773 0.91906 0.0
H1460 H 0.42459 0.3292 0.93426 0.0
H1461 H 0.43845 0.35208 0.94019 0.0
H1462 H 0.42392 0.34842 0.97106 0.0
H1463 H 0.38874 0.34733 0.97877 0.0
H1464 H 0.63239 0.35651 0.43771 0.0
H1465 H 0.65245 0.38475 0.4508 0.0
H1466 H 0.69953 0.36995 0.41191 0.0
H1467 H 0.67975 0.34169 0.39876 0.0
H1468 H 0.71089 0.3813 0.45225 0.0
H1469 H 0.66227 0.4359 0.41542 0.0
H1470 H 0.65101 0.41718 0.43124 0.0
H1471 H 0.66217 0.4094 0.40891 0.0
C1472 C 0.64712 0.35904 0.43213 0.0
C1473 C 0.65436 0.34696 0.41698 0.0
C1474 C 0.65852 0.37522 0.43961 0.0
C1475 C 0.67732 0.37953 0.43212 0.0
C1476 C 0.68501 0.36686 0.41783 0.0
H1477 H 0.77206 0.46286 0.42391 0.0
H1478 H 0.75017 0.43361 0.42847 0.0
C1479 C 0.67363 0.35075 0.41029 0.0
C1480 C 0.68853 0.39811 0.43788 0.0
H1481 H 0.69097 0.44909 0.42981 0.0
C1482 C 0.70644 0.3962 0.44765 0.0
C1483 C 0.68255 0.41749 0.43199 0.0
C1484 C 0.66352 0.42028 0.42122 0.0
C1485 C 0.71894 0.41314 0.45103 0.0
C1486 C 0.71356 0.43238 0.444 0.0
C1487 C 0.69512 0.43439 0.43521 0.0
C1488 C 0.72759 0.45005 0.44333 0.0
C1489 C 0.73791 0.41003 0.4618 0.0
C1490 C 0.72206 0.46931 0.44968 0.0
C1491 C 0.73445 0.48636 0.44662 0.0
C1492 C 0.75261 0.48439 0.43719 0.0
C1493 C 0.75823 0.465 0.43129 0.0
C1494 C 0.7458 0.44811 0.43413 0.0
H1495 H 0.73609 0.39783 0.47287 0.0
H1496 H 0.74926 0.40521 0.45133 0.0
H1497 H 0.74328 0.42406 0.46917 0.0
H1498 H 0.70798 0.47122 0.45665 0.0
H1499 H 0.72974 0.50104 0.45148 0.0
H1500 H 0.6611 0.86236 0.83578 0.0
H1501 H 0.67135 0.83955 0.86151 0.0
H1502 H 0.6425 0.8761 0.90427 0.0
H1503 H 0.63163 0.89877 0.87851 0.0
H1504 H 0.69309 0.84401 0.89495 0.0
H1505 H 0.61577 0.82107 0.91212 0.0
H1506 H 0.6223 0.83595 0.89094 0.0
H1507 H 0.62142 0.8477 0.91454 0.0
C1508 C 0.65701 0.86568 0.85066 0.0
C1509 C 0.64524 0.88222 0.85503 0.0
C1510 C 0.66295 0.85263 0.86537 0.0
C1511 C 0.65735 0.8559 0.88474 0.0
C1512 C 0.64656 0.87303 0.88934 0.0
H1513 H 0.66654 0.77167 0.98221 0.0
H1514 H 0.66492 0.80337 0.96401 0.0
C1515 C 0.64042 0.886 0.8746 0.0
C1516 C 0.66191 0.84066 0.89977 0.0
H1517 H 0.6404 0.80573 0.93032 0.0
C1518 C 0.68159 0.83574 0.90281 0.0
C1519 C 0.64686 0.82986 0.90997 0.0
C1520 C 0.6254 0.83373 0.90666 0.0
C1521 C 0.68658 0.82006 0.91553 0.0
C1522 C 0.6715 0.80901 0.92532 0.0
C1523 C 0.65191 0.81436 0.92282 0.0
C1524 C 0.67538 0.79076 0.93701 0.0
C1525 C 0.70789 0.81526 0.91826 0.0
C1526 C 0.68203 0.77326 0.92787 0.0
C1527 C 0.68284 0.75504 0.93815 0.0
C1528 C 0.67696 0.75401 0.95778 0.0
C1529 C 0.67114 0.77186 0.96711 0.0
C1530 C 0.67022 0.79003 0.95676 0.0
H1531 H 0.71775 0.82819 0.91389 0.0
H1532 H 0.71094 0.81129 0.93366 0.0
H1533 H 0.71141 0.80203 0.90906 0.0
H1534 H 0.68576 0.77347 0.91253 0.0
H1535 H 0.68745 0.74164 0.93051 0.0
H1536 H 0.33242 0.45622 0.24435 0.0
H1537 H 0.31207 0.44241 0.27079 0.0
H1538 H 0.26406 0.47867 0.25195 0.0
H1539 H 0.28405 0.49225 0.22531 0.0
H1540 H 0.29831 0.4658 0.29952 0.0
H1541 H 0.23563 0.42547 0.264 0.0
H1542 H 0.25798 0.43229 0.25112 0.0
H1543 H 0.23938 0.45071 0.25474 0.0
C1544 C 0.31741 0.46099 0.24558 0.0
C1545 C 0.30996 0.47551 0.23278 0.0
C1546 C 0.30578 0.45302 0.26069 0.0
C1547 C 0.28647 0.45932 0.26322 0.0
C1548 C 0.27875 0.4732 0.25002 0.0
H1549 H 0.20433 0.47158 0.35498 0.0
H1550 H 0.22085 0.46861 0.32355 0.0
C1551 C 0.29032 0.48113 0.23488 0.0
C1552 C 0.27533 0.4536 0.28103 0.0
H1553 H 0.2307 0.43577 0.29737 0.0
C1554 C 0.28368 0.45885 0.29907 0.0
C1555 C 0.2562 0.44466 0.28039 0.0
C1556 C 0.24685 0.43777 0.26151 0.0
C1557 C 0.2731 0.45634 0.31644 0.0
C1558 C 0.25374 0.448 0.31577 0.0
C1559 C 0.24555 0.44215 0.2978 0.0
C1560 C 0.2415 0.44665 0.33354 0.0
C1561 C 0.28241 0.46356 0.33527 0.0
C1562 C 0.24708 0.43457 0.34926 0.0
C1563 C 0.23779 0.43633 0.36728 0.0
C1564 C 0.22264 0.4501 0.36982 0.0
C1565 C 0.216 0.46092 0.35357 0.0
C1566 C 0.22541 0.45923 0.33557 0.0
H1567 H 0.2958 0.47323 0.33273 0.0
H1568 H 0.27189 0.4723 0.344 0.0
H1569 H 0.28668 0.45024 0.34399 0.0
H1570 H 0.25926 0.42451 0.34785 0.0
H1571 H 0.24306 0.42752 0.37941 0.0
H1572 H 0.13614 0.89873 0.44943 0.0
H1573 H 0.14707 0.86761 0.46484 0.0
H1574 H 0.19696 0.86702 0.42628 0.0
H1575 H 0.18624 0.89811 0.41081 0.0
H1576 H 0.15086 0.83144 0.44287 0.0
H1577 H 0.22028 0.8537 0.48059 0.0
H1578 H 0.20214 0.8718 0.47377 0.0
H1579 H 0.2186 0.86224 0.45579 0.0
C1580 C 0.14967 0.89226 0.44449 0.0
C1581 C 0.16022 0.90085 0.42876 0.0
C1582 C 0.15587 0.87445 0.4533 0.0
C1583 C 0.17286 0.86509 0.44676 0.0
C1584 C 0.18395 0.87415 0.43173 0.0
H1585 H 0.19702 0.73679 0.45365 0.0
H1586 H 0.19265 0.77172 0.44277 0.0
C1587 C 0.17771 0.89187 0.42282 0.0
C1588 C 0.17778 0.84475 0.45409 0.0
H1589 H 0.21333 0.81828 0.47703 0.0
C1590 C 0.16447 0.82856 0.45042 0.0
C1591 C 0.1955 0.84111 0.464 0.0
C1592 C 0.20992 0.85813 0.46896 0.0
C1593 C 0.16854 0.80873 0.45612 0.0
C1594 C 0.18654 0.80494 0.46548 0.0
C1595 C 0.1997 0.8212 0.46954 0.0
C1596 C 0.19146 0.78426 0.47185 0.0
C1597 C 0.15338 0.79203 0.45233 0.0
C1598 C 0.19305 0.77994 0.49175 0.0
C1599 C 0.19559 0.76006 0.49801 0.0
C1600 C 0.19668 0.74409 0.48446 0.0
C1601 C 0.19612 0.74866 0.46447 0.0
C1602 C 0.19353 0.7686 0.45823 0.0
H1603 H 0.13872 0.79812 0.44912 0.0
H1604 H 0.15798 0.78302 0.43957 0.0
H1605 H 0.15202 0.78167 0.46504 0.0
H1606 H 0.19163 0.79184 0.50249 0.0
H1607 H 0.1962 0.75718 0.51353 0.0
H1608 H 0.83351 0.47321 0.74458 0.0
H1609 H 0.81357 0.45384 0.7682 0.0
H1610 H 0.76246 0.48615 0.75053 0.0
H1611 H 0.78196 0.50494 0.72671 0.0
H1612 H 0.79789 0.47245 0.79786 0.0
H1613 H 0.7375 0.43172 0.75995 0.0
H1614 H 0.75914 0.44113 0.74725 0.0
H1615 H 0.73889 0.45748 0.75174 0.0
C1616 C 0.81789 0.47567 0.74527 0.0
C1617 C 0.8094 0.49086 0.73398 0.0
C1618 C 0.8065 0.46458 0.75878 0.0
C1619 C 0.78645 0.4684 0.76108 0.0
C1620 C 0.77774 0.48252 0.74879 0.0
H1621 H 0.70364 0.48524 0.84799 0.0
H1622 H 0.72135 0.47955 0.81763 0.0
C1623 C 0.78904 0.49351 0.73531 0.0
C1624 C 0.77546 0.4608 0.77841 0.0
H1625 H 0.72996 0.44368 0.793 0.0
C1626 C 0.78327 0.46556 0.79682 0.0
C1627 C 0.75634 0.45189 0.77708 0.0
C1628 C 0.74761 0.44509 0.7579 0.0
C1629 C 0.77198 0.46318 0.81376 0.0
C1630 C 0.7524 0.45559 0.81228 0.0
C1631 C 0.74494 0.44964 0.79405 0.0
C1632 C 0.7391 0.4558 0.82929 0.0
C1633 C 0.78065 0.47011 0.83298 0.0
C1634 C 0.74265 0.4437 0.8456 0.0
C1635 C 0.73265 0.44698 0.86302 0.0
C1636 C 0.71886 0.46239 0.8644 0.0
C1637 C 0.71422 0.47334 0.84752 0.0
C1638 C 0.72429 0.47008 0.83012 0.0
H1639 H 0.79497 0.4784 0.83115 0.0
H1640 H 0.77042 0.48015 0.84069 0.0
H1641 H 0.783 0.45673 0.84237 0.0
H1642 H 0.75387 0.43244 0.84514 0.0
H1643 H 0.7364 0.43804 0.87564 0.0
H1644 H 0.79638 0.00121 0.579 0.0
H1645 H 0.82127 0.97522 0.57876 0.0
H1646 H 0.77574 0.92855 0.57475 0.0
H1647 H 0.75089 0.95426 0.57462 0.0
H1648 H 0.82439 0.94643 0.60689 0.0
H1649 H 0.81497 0.90902 0.53524 0.0
H1650 H 0.805 0.93344 0.54058 0.0
H1651 H 0.79225 0.91053 0.54828 0.0
C1652 C 0.79168 0.98544 0.57762 0.0
C1653 C 0.77161 0.97984 0.57698 0.0
C1654 C 0.80593 0.9706 0.57753 0.0
C1655 C 0.80039 0.94994 0.57657 0.0
C1656 C 0.78042 0.94438 0.57512 0.0
H1657 H 0.85888 0.84837 0.62617 0.0
H1658 H 0.83673 0.87527 0.61731 0.0
C1659 C 0.7662 0.95915 0.57523 0.0
C1660 C 0.81517 0.93411 0.5792 0.0
H1661 H 0.8319 0.89022 0.55975 0.0
C1662 C 0.8262 0.93428 0.59646 0.0
C1663 C 0.81763 0.91833 0.56554 0.0
C1664 C 0.80697 0.91789 0.54628 0.0
C1665 C 0.83912 0.91875 0.60075 0.0
C1666 C 0.84079 0.90241 0.58758 0.0
C1667 C 0.83034 0.9026 0.56997 0.0
C1668 C 0.85334 0.88503 0.59197 0.0
C1669 C 0.85087 0.91999 0.61937 0.0
C1670 C 0.86958 0.88106 0.58019 0.0
C1671 C 0.88225 0.86561 0.58514 0.0
C1672 C 0.87887 0.85375 0.60195 0.0
C1673 C 0.86206 0.85724 0.61322 0.0
C1674 C 0.84942 0.8727 0.60825 0.0
H1675 H 0.85181 0.9357 0.62518 0.0
H1676 H 0.84364 0.91017 0.63055 0.0
H1677 H 0.86598 0.91464 0.61707 0.0
H1678 H 0.87278 0.89032 0.56748 0.0
H1679 H 0.89498 0.86332 0.57604 0.0
H1680 H 0.12191 0.365 0.94882 0.0
H1681 H 0.1479 0.39092 0.95358 0.0
H1682 H 0.18363 0.36175 0.91078 0.0
H1683 H 0.15774 0.33575 0.90576 0.0
H1684 H 0.20193 0.3778 0.95118 0.0
H1685 H 0.16137 0.43206 0.90506 0.0
H1686 H 0.14808 0.41757 0.9233 0.0
H1687 H 0.15782 0.40495 0.90249 0.0
C1688 C 0.13539 0.36386 0.94061 0.0
C1689 C 0.13765 0.34833 0.92679 0.0
C1690 C 0.1502 0.37872 0.94335 0.0
C1691 C 0.16754 0.37824 0.93244 0.0
C1692 C 0.17028 0.36231 0.91931 0.0
H1693 H 0.27416 0.44896 0.91659 0.0
H1694 H 0.24898 0.42234 0.92082 0.0
C1695 C 0.15545 0.34751 0.91646 0.0
C1696 C 0.18229 0.39507 0.9337 0.0
H1697 H 0.19201 0.4431 0.91726 0.0
C1698 C 0.19979 0.39214 0.94389 0.0
C1699 C 0.17927 0.41374 0.92428 0.0
C1700 C 0.16068 0.41742 0.91307 0.0
C1701 C 0.21453 0.40748 0.94478 0.0
C1702 C 0.21183 0.42596 0.93476 0.0
C1703 C 0.19409 0.42896 0.92494 0.0
C1704 C 0.22752 0.44201 0.93338 0.0
C1705 C 0.23273 0.40378 0.95661 0.0
C1706 C 0.22373 0.4621 0.9386 0.0
C1707 C 0.23804 0.4775 0.93588 0.0
C1708 C 0.25642 0.47311 0.92788 0.0
C1709 C 0.26023 0.45292 0.92292 0.0
C1710 C 0.24588 0.43759 0.92549 0.0
H1711 H 0.22974 0.39247 0.96831 0.0
H1712 H 0.24418 0.39765 0.94696 0.0
H1713 H 0.23862 0.418 0.96335 0.0
H1714 H 0.20961 0.46589 0.94459 0.0
H1715 H 0.23461 0.49286 0.93991 0.0
H1716 H 0.0076 0.31049 0.42307 0.0
H1717 H 0.97799 0.32659 0.43452 0.0
H1718 H 0.98099 0.29335 0.48846 0.0
H1719 H 0.01079 0.27739 0.47731 0.0
H1720 H 0.94453 0.30469 0.44246 0.0
H1721 H 0.96671 0.34939 0.50747 0.0
H1722 H 0.98422 0.34061 0.48987 0.0
H1723 H 0.97469 0.32375 0.50843 0.0
C1724 C 0.00221 0.30686 0.43753 0.0
C1725 C 0.0115 0.29246 0.44919 0.0
C1726 C 0.9853 0.31614 0.44406 0.0
C1727 C 0.97739 0.31133 0.46241 0.0
C1728 C 0.98707 0.29764 0.47442 0.0
H1729 H 0.86797 0.30999 0.52033 0.0
H1730 H 0.90257 0.31083 0.51126 0.0
C1731 C 0.00403 0.28837 0.46793 0.0
C1732 C 0.95775 0.31847 0.46788 0.0
H1733 H 0.9322 0.34107 0.50427 0.0
C1734 C 0.94186 0.313 0.45579 0.0
C1735 C 0.95433 0.3292 0.48532 0.0
C1736 C 0.97093 0.33626 0.49843 0.0
C1737 C 0.92253 0.31705 0.4611 0.0
C1738 C 0.91903 0.32725 0.47884 0.0
C1739 C 0.93496 0.33332 0.49066 0.0
C1740 C 0.89882 0.32995 0.48603 0.0
C1741 C 0.90597 0.30939 0.44817 0.0
C1742 C 0.8854 0.34119 0.47533 0.0
C1743 C 0.86552 0.34061 0.48036 0.0
C1744 C 0.85878 0.3289 0.49629 0.0
C1745 C 0.87258 0.31901 0.50787 0.0
C1746 C 0.8924 0.31951 0.50275 0.0
H1747 H 0.91099 0.29835 0.43717 0.0
H1748 H 0.89408 0.30202 0.45696 0.0
H1749 H 0.8997 0.32236 0.44029 0.0
H1750 H 0.89016 0.34968 0.46259 0.0
H1751 H 0.85535 0.34865 0.47129 0.0
H1752 H 0.46705 0.71827 0.64026 0.0
H1753 H 0.48986 0.69398 0.65375 0.0
H1754 H 0.46794 0.64845 0.6136 0.0
H1755 H 0.44512 0.67241 0.60007 0.0
H1756 H 0.47636 0.63446 0.65388 0.0
H1757 H 0.53752 0.67902 0.61848 0.0
H1758 H 0.52128 0.69172 0.63477 0.0
H1759 H 0.51227 0.68259 0.61175 0.0
C1760 C 0.46684 0.70299 0.63449 0.0
C1761 C 0.45446 0.6974 0.61882 0.0
C1762 C 0.4799 0.68916 0.64224 0.0
C1763 C 0.48069 0.66954 0.6345 0.0
C1764 C 0.46753 0.66355 0.61975 0.0
H1765 H 0.53464 0.56658 0.6066 0.0
H1766 H 0.5132 0.59121 0.6209 0.0
C1767 C 0.45457 0.67733 0.61195 0.0
C1768 C 0.49644 0.65574 0.63998 0.0
H1769 H 0.54387 0.64611 0.62843 0.0
C1770 C 0.49128 0.63716 0.6488 0.0
C1771 C 0.51595 0.65944 0.6336 0.0
C1772 C 0.52223 0.67921 0.62406 0.0
C1773 C 0.50478 0.62157 0.65006 0.0
C1774 C 0.52367 0.62454 0.64179 0.0
C1775 C 0.52935 0.64378 0.63467 0.0
C1776 C 0.53623 0.60731 0.63689 0.0
C1777 C 0.49837 0.60181 0.65946 0.0
C1778 C 0.55641 0.60796 0.64118 0.0
C1779 C 0.56886 0.5939 0.63275 0.0
C1780 C 0.56131 0.57922 0.61969 0.0
C1781 C 0.54096 0.57786 0.61643 0.0
C1782 C 0.52859 0.59179 0.62486 0.0
H1783 H 0.48809 0.60449 0.67169 0.0
H1784 H 0.49042 0.5922 0.64859 0.0
H1785 H 0.51107 0.59342 0.66505 0.0
H1786 H 0.56265 0.61992 0.65028 0.0
H1787 H 0.58448 0.59532 0.63554 0.0
H1788 H 0.31401 0.82658 0.09798 0.0
H1789 H 0.2947 0.85546 0.08847 0.0
H1790 H 0.34181 0.87722 0.05134 0.0
H1791 H 0.36137 0.84841 0.06082 0.0
H1792 H 0.33006 0.90522 0.07885 0.0
H1793 H 0.26559 0.87297 0.03931 0.0
H1794 H 0.26999 0.86022 0.06191 0.0
H1795 H 0.28786 0.85922 0.04267 0.0
C1796 C 0.32015 0.83724 0.08746 0.0
C1797 C 0.33934 0.83524 0.08032 0.0
C1798 C 0.309 0.85368 0.08192 0.0
C1799 C 0.31676 0.86838 0.06907 0.0
C1800 C 0.33552 0.86595 0.06118 0.0
H1801 H 0.27038 0.99142 0.05667 0.0
H1802 H 0.29069 0.96192 0.05089 0.0
C1803 C 0.34667 0.84946 0.06664 0.0
C1804 C 0.30636 0.88749 0.06605 0.0
H1805 H 0.26197 0.90609 0.05345 0.0
C1806 C 0.31532 0.90555 0.07292 0.0
C1807 C 0.28715 0.88779 0.05834 0.0
C1808 C 0.27715 0.86904 0.04996 0.0
C1809 C 0.30513 0.92368 0.07345 0.0
C1810 C 0.28558 0.92379 0.06655 0.0
C1811 C 0.27695 0.90594 0.05878 0.0
C1812 C 0.27319 0.94162 0.06914 0.0
C1813 C 0.31494 0.94222 0.08249 0.0
C1814 C 0.2565 0.93987 0.08101 0.0
C1815 C 0.24495 0.95657 0.08428 0.0
C1816 C 0.24976 0.97541 0.07566 0.0
C1817 C 0.26645 0.97717 0.06369 0.0
C1818 C 0.27803 0.96035 0.06035 0.0
H1819 H 0.32856 0.93852 0.09046 0.0
H1820 H 0.31894 0.95327 0.07086 0.0
H1821 H 0.30484 0.94966 0.09276 0.0
H1822 H 0.25254 0.92559 0.08798 0.0
H1823 H 0.23223 0.95471 0.09365 0.0
H1824 H 0.35956 0.64626 0.43642 0.0
H1825 H 0.33974 0.61723 0.44813 0.0
H1826 H 0.29372 0.63184 0.40793 0.0
H1827 H 0.31332 0.66092 0.39609 0.0
H1828 H 0.2816 0.61962 0.44836 0.0
H1829 H 0.33154 0.56652 0.41128 0.0
H1830 H 0.34232 0.58534 0.42732 0.0
H1831 H 0.3311 0.59307 0.40501 0.0
C1832 C 0.34511 0.64352 0.43023 0.0
C1833 C 0.33814 0.65584 0.41513 0.0
C1834 C 0.33385 0.62687 0.43692 0.0
C1835 C 0.31542 0.62231 0.42871 0.0
C1836 C 0.30796 0.63513 0.4144 0.0
H1837 H 0.22213 0.53643 0.42077 0.0
H1838 H 0.24353 0.56615 0.42453 0.0
C1839 C 0.31922 0.65172 0.40763 0.0
C1840 C 0.30436 0.60346 0.43393 0.0
H1841 H 0.30312 0.55249 0.42564 0.0
C1842 C 0.28638 0.60487 0.44366 0.0
C1843 C 0.31078 0.58428 0.42792 0.0
C1844 C 0.32993 0.58204 0.41721 0.0
C1845 C 0.27428 0.58762 0.447 0.0
C1846 C 0.28014 0.56854 0.43994 0.0
C1847 C 0.29861 0.56705 0.43108 0.0
C1848 C 0.26658 0.55048 0.43945 0.0
C1849 C 0.25525 0.5902 0.45782 0.0
C1850 C 0.27257 0.53146 0.44605 0.0
C1851 C 0.26043 0.51412 0.44349 0.0
C1852 C 0.24209 0.51554 0.43429 0.0
C1853 C 0.23609 0.53469 0.42802 0.0
C1854 C 0.24825 0.55186 0.43038 0.0
H1855 H 0.25675 0.60247 0.46885 0.0
H1856 H 0.24373 0.59463 0.44737 0.0
H1857 H 0.25028 0.57605 0.46525 0.0
H1858 H 0.28676 0.52999 0.45292 0.0
H1859 H 0.26545 0.49965 0.44859 0.0
H1860 H 0.6079 0.72273 0.98687 0.0
H1861 H 0.57299 0.72191 0.97956 0.0
H1862 H 0.57387 0.65691 0.97234 0.0
H1863 H 0.60941 0.65806 0.97807 0.0
H1864 H 0.5549 0.66971 0.94498 0.0
H1865 H 0.5248 0.70943 0.00768 0.0
H1866 H 0.54353 0.72585 0.99764 0.0
H1867 H 0.54986 0.70149 0.00749 0.0
C1868 C 0.60055 0.70822 0.9841 0.0
C1869 C 0.61126 0.69045 0.9831 0.0
C1870 C 0.58048 0.7077 0.98013 0.0
C1871 C 0.57048 0.68927 0.97589 0.0
C1872 C 0.58113 0.67134 0.97564 0.0
H1873 H 0.44709 0.71331 0.94927 0.0
H1874 H 0.47523 0.69899 0.96613 0.0
C1875 C 0.6014 0.67196 0.97896 0.0
C1876 C 0.54958 0.68927 0.96951 0.0
H1877 H 0.507 0.71398 0.97677 0.0
C1878 C 0.5443 0.679 0.95227 0.0
C1879 C 0.53527 0.70069 0.9792 0.0
C1880 C 0.53866 0.70972 0.99915 0.0
C1881 C 0.52581 0.68118 0.9437 0.0
C1882 C 0.51262 0.69498 0.95192 0.0
C1883 C 0.51724 0.70389 0.97 0.0
C1884 C 0.49487 0.70166 0.94134 0.0
C1885 C 0.52078 0.66866 0.92589 0.0
C1886 C 0.49638 0.70792 0.9218 0.0
C1887 C 0.48018 0.71539 0.91205 0.0
C1888 C 0.46234 0.71763 0.92186 0.0
C1889 C 0.46076 0.7117 0.94144 0.0
C1890 C 0.47682 0.70355 0.95104 0.0
H1891 H 0.52756 0.65359 0.92676 0.0
H1892 H 0.50469 0.6663 0.92408 0.0
H1893 H 0.52687 0.67639 0.91276 0.0
H1894 H 0.51025 0.70758 0.91416 0.0
H1895 H 0.48183 0.72022 0.89704 0.0
H1896 H 0.6675 0.73765 0.49205 0.0
H1897 H 0.66509 0.70265 0.5028 0.0
H1898 H 0.68961 0.71992 0.55854 0.0
H1899 H 0.69133 0.75546 0.54815 0.0
H1900 H 0.68992 0.67517 0.51487 0.0
H1901 H 0.63864 0.6934 0.57499 0.0
H1902 H 0.64606 0.71177 0.55681 0.0
H1903 H 0.66225 0.70606 0.57663 0.0
C1904 C 0.67243 0.73413 0.50663 0.0
C1905 C 0.67924 0.74949 0.51941 0.0
C1906 C 0.67113 0.71401 0.5127 0.0
C1907 C 0.67675 0.70872 0.53162 0.0
C1908 C 0.68466 0.72377 0.54406 0.0
H1909 H 0.65323 0.5925 0.58853 0.0
H1910 H 0.6705 0.62374 0.57866 0.0
C1911 C 0.68572 0.74405 0.53808 0.0
C1912 C 0.6731 0.68762 0.53838 0.0
H1913 H 0.64616 0.65924 0.57088 0.0
C1914 C 0.68051 0.67168 0.52724 0.0
C1915 C 0.66068 0.6831 0.55443 0.0
C1916 C 0.65128 0.69944 0.56632 0.0
C1917 C 0.67542 0.65138 0.53147 0.0
C1918 C 0.66276 0.647 0.54725 0.0
C1919 C 0.65597 0.66279 0.55883 0.0
C1920 C 0.65506 0.6263 0.55133 0.0
C1921 C 0.6833 0.63477 0.51888 0.0
C1922 C 0.64093 0.61725 0.53898 0.0
C1923 C 0.63082 0.59946 0.54462 0.0
C1924 C 0.63469 0.59049 0.56275 0.0
C1925 C 0.64974 0.59902 0.57452 0.0
C1926 C 0.65971 0.61685 0.56891 0.0
H1927 H 0.69585 0.64026 0.50978 0.0
H1928 H 0.68806 0.62193 0.52801 0.0
H1929 H 0.67148 0.62896 0.50906 0.0
H1930 H 0.63699 0.62454 0.52545 0.0
H1931 H 0.61939 0.59329 0.53519 0.0
H1932 H 0.31165 0.01366 0.28138 0.0
H1933 H 0.28374 0.02066 0.26036 0.0
H1934 H 0.32184 0.05529 0.22186 0.0
H1935 H 0.34983 0.04869 0.24289 0.0
H1936 H 0.28387 0.07209 0.22741 0.0
H1937 H 0.27995 0.99004 0.20823 0.0
H1938 H 0.27801 0.99596 0.23368 0.0
H1939 H 0.30061 0.00143 0.221 0.0
C1940 C 0.3141 0.02299 0.26858 0.0
C1941 C 0.33308 0.03032 0.26366 0.0
C1942 C 0.2981 0.02696 0.25659 0.0
C1943 C 0.30082 0.03816 0.23939 0.0
C1944 C 0.31947 0.04654 0.23505 0.0
H1945 H 0.25278 0.06126 0.1295 0.0
H1946 H 0.2678 0.0644 0.16152 0.0
C1947 C 0.33547 0.04269 0.24708 0.0
C1948 C 0.28479 0.03959 0.22497 0.0
H1949 H 0.25847 0.0112 0.19205 0.0
C1950 C 0.27811 0.05878 0.21982 0.0
C1951 C 0.27727 0.02218 0.21515 0.0
C1952 C 0.28437 0.00123 0.21962 0.0
C1953 C 0.26443 0.06104 0.20472 0.0
C1954 C 0.25759 0.0437 0.19434 0.0
C1955 C 0.26364 0.02447 0.20009 0.0
C1956 C 0.24612 0.04509 0.17607 0.0
C1957 C 0.25764 0.08198 0.19989 0.0
C1958 C 0.22876 0.03336 0.17356 0.0
C1959 C 0.22021 0.03131 0.15512 0.0
C1960 C 0.229 0.04081 0.13883 0.0
C1961 C 0.24566 0.05361 0.14167 0.0
C1962 C 0.25418 0.05562 0.16007 0.0
H1963 H 0.25828 0.09199 0.2129 0.0
H1964 H 0.26748 0.08885 0.18866 0.0
H1965 H 0.24241 0.0815 0.19413 0.0
H1966 H 0.22236 0.02501 0.1857 0.0
H1967 H 0.20736 0.02138 0.1535 0.0
H1968 H 0.36746 0.4074 0.5519 0.0
H1969 H 0.35438 0.3749 0.53988 0.0
H1970 H 0.32317 0.36524 0.59385 0.0
H1971 H 0.33606 0.39778 0.60607 0.0
H1972 H 0.36336 0.33877 0.5612 0.0
H1973 H 0.2831 0.34707 0.5505 0.0
H1974 H 0.3003 0.36849 0.55054 0.0
H1975 H 0.29318 0.35659 0.57306 0.0
C1976 C 0.35744 0.39866 0.56108 0.0
C1977 C 0.35301 0.40514 0.58006 0.0
C1978 C 0.34999 0.38007 0.55417 0.0
C1979 C 0.33781 0.36775 0.56598 0.0
C1980 C 0.33237 0.37467 0.58444 0.0
H1981 H 0.32567 0.2363 0.55737 0.0
H1982 H 0.32745 0.27105 0.57008 0.0
C1983 C 0.33986 0.39324 0.59142 0.0
C1984 C 0.33298 0.34668 0.56 0.0
H1985 H 0.29527 0.31388 0.54767 0.0
C1986 C 0.34848 0.33331 0.55824 0.0
C1987 C 0.31355 0.3397 0.5562 0.0
C1988 C 0.29652 0.35369 0.55751 0.0
C1989 C 0.34508 0.31308 0.55276 0.0
C1990 C 0.32565 0.30602 0.5491 0.0
C1991 C 0.3101 0.31937 0.55076 0.0
C1992 C 0.32161 0.2851 0.5423 0.0
C1993 C 0.36231 0.29944 0.55051 0.0
C1994 C 0.31716 0.28164 0.52266 0.0
C1995 C 0.31626 0.26192 0.51535 0.0
C1996 C 0.31969 0.24529 0.52761 0.0
C1997 C 0.32301 0.24877 0.54756 0.0
C1998 C 0.32405 0.26857 0.55483 0.0
H1999 H 0.37659 0.30802 0.55117 0.0
H2000 H 0.362 0.28802 0.56238 0.0
H2001 H 0.36139 0.29117 0.53644 0.0
H2002 H 0.31524 0.29425 0.5128 0.0
H2003 H 0.31343 0.25976 0.49994 0.0
H2004 H 0.64764 0.93706 0.24461 0.0
H2005 H 0.67422 0.92823 0.22263 0.0
H2006 H 0.71295 0.97167 0.2513 0.0
H2007 H 0.6867 0.98033 0.27357 0.0
H2008 H 0.69026 0.95586 0.19781 0.0
H2009 H 0.74915 0.92482 0.24347 0.0
H2010 H 0.7242 0.92677 0.252 0.0
H2011 H 0.74071 0.94859 0.25235 0.0
C2012 C 0.66192 0.94443 0.24656 0.0
C2013 C 0.66493 0.95957 0.26077 0.0
C2014 C 0.67712 0.93932 0.23399 0.0
C2015 C 0.69563 0.94914 0.23543 0.0
C2016 C 0.69895 0.96355 0.25017 0.0
H2017 H 0.79063 0.97749 0.15773 0.0
H2018 H 0.77027 0.97141 0.18668 0.0
C2019 C 0.6838 0.96863 0.26279 0.0
C2020 C 0.71048 0.94653 0.21992 0.0
H2021 H 0.75871 0.93669 0.21157 0.0
C2022 C 0.70513 0.95132 0.20078 0.0
C2023 C 0.72993 0.94084 0.22387 0.0
C2024 C 0.73631 0.93477 0.24402 0.0
C2025 C 0.71881 0.95125 0.18558 0.0
C2026 C 0.73834 0.94586 0.18954 0.0
C2027 C 0.7437 0.94075 0.20861 0.0
C2028 C 0.75338 0.94645 0.174 0.0
C2029 C 0.71242 0.95774 0.16551 0.0
C2030 C 0.75127 0.93372 0.15774 0.0
C2031 C 0.76272 0.93725 0.14117 0.0
C2032 C 0.77664 0.95344 0.14066 0.0
C2033 C 0.78002 0.96492 0.15766 0.0
C2034 C 0.7684 0.96148 0.17421 0.0
H2035 H 0.69819 0.96551 0.16585 0.0
H2036 H 0.72362 0.96811 0.15877 0.0
H2037 H 0.71062 0.94417 0.15606 0.0
H2038 H 0.73996 0.92183 0.15745 0.0
H2039 H 0.75995 0.92795 0.1284 0.0
H2040 H 0.65819 0.15752 0.05744 0.0
H2041 H 0.67965 0.12969 0.04915 0.0
H2042 H 0.70999 0.13779 0.10388 0.0
H2043 H 0.68934 0.16595 0.11187 0.0
H2044 H 0.73505 0.12927 0.07577 0.0
H2045 H 0.67135 0.07451 0.0727 0.0
H2046 H 0.67074 0.09486 0.0554 0.0
H2047 H 0.66901 0.10022 0.08102 0.0
C2048 C 0.66963 0.15354 0.06756 0.0
C2049 C 0.67189 0.16381 0.08542 0.0
C2050 C 0.68178 0.13753 0.06287 0.0
C2051 C 0.69607 0.13129 0.07613 0.0
C2052 C 0.69899 0.14224 0.09345 0.0
H2053 H 0.76965 0.03674 0.10983 0.0
H2054 H 0.75101 0.06727 0.10486 0.0
C2055 C 0.68712 0.15838 0.09801 0.0
C2056 C 0.70744 0.11281 0.0728 0.0
H2057 H 0.70264 0.06125 0.06943 0.0
C2058 C 0.72798 0.11441 0.07417 0.0
C2059 C 0.69817 0.09341 0.0707 0.0
C2060 C 0.67611 0.09052 0.07003 0.0
C2061 C 0.73944 0.09714 0.07441 0.0
C2062 C 0.73011 0.07775 0.073 0.0
C2063 C 0.70971 0.07616 0.07046 0.0
C2064 C 0.741 0.05892 0.07593 0.0
C2065 C 0.7614 0.09983 0.07668 0.0
C2066 C 0.74054 0.04348 0.06183 0.0
C2067 C 0.75064 0.02562 0.06498 0.0
C2068 C 0.76144 0.02314 0.08219 0.0
C2069 C 0.76156 0.03843 0.09638 0.0
C2070 C 0.75115 0.05599 0.09342 0.0
H2071 H 0.76656 0.11544 0.07285 0.0
H2072 H 0.76547 0.09733 0.09211 0.0
H2073 H 0.76923 0.08878 0.06756 0.0
H2074 H 0.73258 0.04537 0.04832 0.0
H2075 H 0.75054 0.01408 0.05376 0.0
H2076 H 0.62014 0.3328 0.32193 0.0
H2077 H 0.61291 0.35765 0.29703 0.0
H2078 H 0.57006 0.38413 0.33472 0.0
H2079 H 0.57743 0.35923 0.36012 0.0
H2080 H 0.57765 0.36861 0.27776 0.0
H2081 H 0.6103 0.43097 0.3234 0.0
H2082 H 0.61366 0.40465 0.32924 0.0
H2083 H 0.59038 0.41583 0.33347 0.0
C2084 C 0.60904 0.34377 0.32497 0.0
C2085 C 0.59957 0.34422 0.34316 0.0
C2086 C 0.60484 0.3579 0.31063 0.0
C2087 C 0.59114 0.37286 0.31412 0.0
C2088 C 0.58087 0.37282 0.33186 0.0
H2089 H 0.59772 0.48004 0.23846 0.0
H2090 H 0.58317 0.45627 0.26207 0.0
C2091 C 0.58503 0.35854 0.3463 0.0
C2092 C 0.58915 0.38922 0.29956 0.0
H2093 H 0.60457 0.43801 0.29061 0.0
C2094 C 0.58312 0.38393 0.28063 0.0
C2095 C 0.5962 0.40921 0.3034 0.0
C2096 C 0.60312 0.41562 0.32342 0.0
C2097 C 0.58505 0.39777 0.26519 0.0
C2098 C 0.59354 0.41724 0.26875 0.0
C2099 C 0.59816 0.42302 0.28792 0.0
C2100 C 0.6001 0.43086 0.25271 0.0
C2101 C 0.57861 0.39121 0.24509 0.0
C2102 C 0.61433 0.4244 0.23951 0.0
C2103 C 0.62276 0.43793 0.22606 0.0
C2104 C 0.61723 0.45828 0.22562 0.0
C2105 C 0.60241 0.46451 0.2384 0.0
C2106 C 0.59402 0.45094 0.2519 0.0
H2107 H 0.56663 0.37942 0.24582 0.0
H2108 H 0.57348 0.40423 0.23641 0.0
H2109 H 0.59119 0.38455 0.23738 0.0
H2110 H 0.61958 0.40909 0.24017 0.0
H2111 H 0.63411 0.43258 0.21647 0.0
H2112 H 0.53025 0.19223 0.88086 0.0
H2113 H 0.50622 0.17448 0.86012 0.0
H2114 H 0.51835 0.21706 0.81374 0.0
H2115 H 0.54252 0.23501 0.83431 0.0
H2116 H 0.47257 0.19649 0.84239 0.0
H2117 H 0.52031 0.15754 0.78914 0.0
H2118 H 0.52909 0.1647 0.81308 0.0
H2119 H 0.52543 0.18381 0.79502 0.0
C2120 C 0.52803 0.19773 0.86619 0.0
C2121 C 0.53826 0.21512 0.85932 0.0
C2122 C 0.51428 0.18757 0.85437 0.0
C2123 C 0.51063 0.19447 0.83544 0.0
C2124 C 0.52113 0.21145 0.82828 0.0
H2125 H 0.40152 0.14303 0.78519 0.0
H2126 H 0.4294 0.16742 0.78687 0.0
C2127 C 0.53486 0.22171 0.84011 0.0
C2128 C 0.49484 0.18453 0.82387 0.0
H2129 H 0.48637 0.14982 0.78777 0.0
C2130 C 0.47547 0.18657 0.83019 0.0
C2131 C 0.49884 0.17173 0.80797 0.0
C2132 C 0.51952 0.16915 0.80081 0.0
C2133 C 0.45999 0.17524 0.82173 0.0
C2134 C 0.46404 0.16169 0.80636 0.0
C2135 C 0.48333 0.16041 0.79938 0.0
C2136 C 0.44912 0.14632 0.80006 0.0
C2137 C 0.43965 0.17681 0.83023 0.0
C2138 C 0.45149 0.12613 0.80567 0.0
C2139 C 0.43571 0.11225 0.80472 0.0
C2140 C 0.41729 0.11831 0.79806 0.0
C2141 C 0.41552 0.13796 0.79047 0.0
C2142 C 0.43138 0.15192 0.79149 0.0
H2143 H 0.43958 0.18611 0.84372 0.0
H2144 H 0.42992 0.18392 0.81942 0.0
H2145 H 0.43335 0.1615 0.83368 0.0
H2146 H 0.46509 0.12149 0.81224 0.0
H2147 H 0.43759 0.09712 0.81041 0.0
H2148 H 0.88762 0.43097 0.14352 0.0
H2149 H 0.90238 0.40652 0.16551 0.0
H2150 H 0.95723 0.41354 0.13446 0.0
H2151 H 0.94281 0.438 0.11289 0.0
H2152 H 0.9127 0.37183 0.15141 0.0
H2153 H 0.97812 0.40371 0.18758 0.0
H2154 H 0.95912 0.41971 0.17843 0.0
H2155 H 0.97906 0.41231 0.16288 0.0
C2156 C 0.90303 0.42784 0.14187 0.0
C2157 C 0.91397 0.43612 0.12623 0.0
C2158 C 0.91145 0.4139 0.15449 0.0
C2159 C 0.93097 0.40826 0.1518 0.0
C2160 C 0.94231 0.41793 0.13725 0.0
H2161 H 0.98304 0.31747 0.10969 0.0
H2162 H 0.96151 0.34227 0.12371 0.0
C2163 C 0.93393 0.43175 0.12465 0.0
C2164 C 0.9383 0.38942 0.16061 0.0
H2165 H 0.98235 0.36938 0.17186 0.0
C2166 C 0.92765 0.3713 0.15676 0.0
C2167 C 0.95756 0.38847 0.16816 0.0
C2168 C 0.96896 0.40718 0.17469 0.0
C2169 C 0.93685 0.35263 0.15713 0.0
C2170 C 0.95713 0.35224 0.16122 0.0
C2171 C 0.96689 0.3698 0.16818 0.0
C2172 C 0.9691 0.33573 0.15363 0.0
C2173 C 0.92533 0.33376 0.15119 0.0
C2174 C 0.9807 0.32399 0.16584 0.0
C2175 C 0.99308 0.30962 0.1578 0.0
C2176 C 0.9943 0.30723 0.13745 0.0
C2177 C 0.98255 0.31901 0.12539 0.0
C2178 C 0.97008 0.33306 0.1334 0.0
H2179 H 0.90965 0.33479 0.15536 0.0
H2180 H 0.926 0.33211 0.13511 0.0
H2181 H 0.93142 0.32002 0.15794 0.0
H2182 H 0.9803 0.32608 0.18148 0.0
H2183 H 0.00203 0.30077 0.16745 0.0
H2184 H 0.08533 0.0526 0.78585 0.0
H2185 H 0.07031 0.07628 0.76354 0.0
H2186 H 0.03565 0.02731 0.73815 0.0
H2187 H 0.05068 0.00334 0.76046 0.0
H2188 H 0.05812 0.04976 0.71142 0.0
H2189 H 0.01613 0.10099 0.75816 0.0
H2190 H 0.0404 0.09728 0.76734 0.0
H2191 H 0.02316 0.0761 0.76603 0.0
C2192 C 0.07425 0.04686 0.77579 0.0
C2193 C 0.06933 0.02603 0.77486 0.0
C2194 C 0.06552 0.06048 0.76316 0.0
C2195 C 0.05167 0.05359 0.74936 0.0
C2196 C 0.04616 0.03294 0.74883 0.0
H2197 H 0.03371 0.1289 0.64478 0.0
H2198 H 0.02497 0.10224 0.66844 0.0
C2199 C 0.05479 0.01928 0.76159 0.0
C2200 C 0.04517 0.0676 0.73397 0.0
H2201 H 0.02774 0.11502 0.72742 0.0
C2202 C 0.05097 0.0638 0.71475 0.0
C2203 C 0.0358 0.08584 0.7384 0.0
C2204 C 0.02833 0.09021 0.75858 0.0
C2205 C 0.04928 0.07855 0.70016 0.0
C2206 C 0.04116 0.09741 0.70491 0.0
C2207 C 0.03399 0.10057 0.72381 0.0
C2208 C 0.04308 0.11501 0.69155 0.0
C2209 C 0.05769 0.07441 0.68026 0.0
C2210 C 0.05519 0.13156 0.69707 0.0
C2211 C 0.06005 0.14682 0.68374 0.0
C2212 C 0.05291 0.14586 0.66453 0.0
C2213 C 0.03959 0.13002 0.65941 0.0
C2214 C 0.03468 0.1147 0.67286 0.0
H2215 H 0.06609 0.06025 0.67992 0.0
H2216 H 0.04556 0.07283 0.66954 0.0
H2217 H 0.06756 0.08719 0.67554 0.0
H2218 H 0.06176 0.13217 0.71144 0.0
H2219 H 0.07011 0.15893 0.68832 0.0
H2220 H 0.58101 0.86275 0.78218 0.0
H2221 H 0.55127 0.84089 0.78242 0.0
H2222 H 0.52369 0.88233 0.82171 0.0
H2223 H 0.55285 0.90433 0.82119 0.0
H2224 H 0.53851 0.82226 0.81451 0.0
H2225 H 0.47829 0.86801 0.78695 0.0
H2226 H 0.50377 0.87509 0.78285 0.0
H2227 H 0.49176 0.88193 0.80521 0.0
C2228 C 0.5684 0.86749 0.79041 0.0
C2229 C 0.56941 0.8852 0.80182 0.0
C2230 C 0.55142 0.85497 0.79054 0.0
C2231 C 0.53514 0.86008 0.80189 0.0
C2232 C 0.53581 0.87828 0.81243 0.0
H2233 H 0.44864 0.8092 0.87387 0.0
H2234 H 0.47052 0.83017 0.85347 0.0
C2235 C 0.55267 0.89076 0.81231 0.0
C2236 C 0.51873 0.84523 0.80532 0.0
H2237 H 0.46895 0.84194 0.81097 0.0
C2238 C 0.52327 0.82631 0.81319 0.0
C2239 C 0.49883 0.85051 0.80361 0.0
C2240 C 0.49291 0.86993 0.79399 0.0
C2241 C 0.50858 0.81324 0.8208 0.0
C2242 C 0.48885 0.81922 0.82038 0.0
C2243 C 0.48414 0.83753 0.81142 0.0
C2244 C 0.47338 0.80754 0.83094 0.0
C2245 C 0.51439 0.79373 0.8304 0.0
C2246 C 0.46732 0.78815 0.82467 0.0
C2247 C 0.45486 0.77608 0.83631 0.0
C2248 C 0.44826 0.78324 0.85444 0.0
C2249 C 0.45351 0.80315 0.8601 0.0
C2250 C 0.46597 0.81519 0.84843 0.0
H2251 H 0.53056 0.79252 0.83156 0.0
H2252 H 0.50795 0.79253 0.84523 0.0
H2253 H 0.50857 0.78067 0.82175 0.0
H2254 H 0.47275 0.7821 0.8111 0.0
H2255 H 0.4509 0.76092 0.83133 0.0
H2256 H 0.36067 0.57165 0.2182 0.0
H2257 H 0.37534 0.59528 0.24168 0.0
H2258 H 0.41098 0.54791 0.26446 0.0
H2259 H 0.39629 0.52398 0.24105 0.0
H2260 H 0.38951 0.56701 0.29257 0.0
H2261 H 0.42878 0.62419 0.2472 0.0
H2262 H 0.40427 0.61921 0.23855 0.0
H2263 H 0.42172 0.59928 0.23819 0.0
C2264 C 0.37186 0.56627 0.22795 0.0
C2265 C 0.37716 0.54585 0.2278 0.0
C2266 C 0.38038 0.57988 0.24127 0.0
C2267 C 0.39446 0.57342 0.25463 0.0
C2268 C 0.40027 0.55323 0.25415 0.0
H2269 H 0.41641 0.64621 0.36121 0.0
H2270 H 0.42411 0.62113 0.33613 0.0
C2271 C 0.3918 0.53958 0.24077 0.0
C2272 C 0.4011 0.58721 0.27049 0.0
H2273 H 0.41752 0.63579 0.2788 0.0
C2274 C 0.39616 0.58186 0.28969 0.0
C2275 C 0.40989 0.60648 0.26668 0.0
C2276 C 0.41666 0.61254 0.24654 0.0
C2277 C 0.3981 0.59595 0.30493 0.0
C2278 C 0.40547 0.61577 0.30082 0.0
C2279 C 0.41182 0.6206 0.28188 0.0
C2280 C 0.40352 0.63242 0.31506 0.0
C2281 C 0.39081 0.59002 0.32496 0.0
C2282 C 0.39006 0.64752 0.31116 0.0
C2283 C 0.38568 0.66178 0.32533 0.0
C2284 C 0.39473 0.66131 0.34373 0.0
C2285 C 0.40913 0.64692 0.34722 0.0
C2286 C 0.41347 0.63253 0.33297 0.0
H2287 H 0.38334 0.57481 0.3251 0.0
H2288 H 0.4034 0.58973 0.33519 0.0
H2289 H 0.3804 0.6013 0.33046 0.0
H2290 H 0.38225 0.64772 0.29742 0.0
H2291 H 0.3747 0.6728 0.32203 0.0
H2292 H 0.61739 0.83866 0.52575 0.0
H2293 H 0.58245 0.83458 0.53321 0.0
H2294 H 0.57613 0.78891 0.48863 0.0
H2295 H 0.61113 0.79284 0.48094 0.0
H2296 H 0.54234 0.82669 0.50073 0.0
H2297 H 0.56847 0.76895 0.55333 0.0
H2298 H 0.58322 0.79157 0.5485 0.0
H2299 H 0.5803 0.77257 0.53001 0.0
C2300 C 0.60852 0.82811 0.51715 0.0
C2301 C 0.61715 0.81585 0.50293 0.0
C2302 C 0.58853 0.82589 0.52139 0.0
C2303 C 0.57684 0.81142 0.5115 0.0
C2304 C 0.58498 0.80025 0.49631 0.0
H2305 H 0.45921 0.76244 0.53185 0.0
H2306 H 0.48876 0.77712 0.51661 0.0
C2307 C 0.60499 0.80251 0.49197 0.0
C2308 C 0.5572 0.80576 0.51919 0.0
H2309 H 0.53484 0.77516 0.55309 0.0
C2310 C 0.54059 0.8154 0.51212 0.0
C2311 C 0.55514 0.79111 0.5341 0.0
C2312 C 0.57265 0.78034 0.54203 0.0
C2313 C 0.52183 0.81075 0.51977 0.0
C2314 C 0.5198 0.79607 0.53472 0.0
C2315 C 0.53647 0.78649 0.54171 0.0
C2316 C 0.50057 0.78998 0.54327 0.0
C2317 C 0.50438 0.82175 0.5121 0.0
C2318 C 0.49732 0.79251 0.5633 0.0
C2319 C 0.4805 0.78406 0.57211 0.0
C2320 C 0.46669 0.7727 0.56107 0.0
C2321 C 0.46958 0.77098 0.54083 0.0
C2322 C 0.48639 0.77951 0.53203 0.0
H2323 H 0.5089 0.83562 0.50385 0.0
H2324 H 0.49586 0.81156 0.50215 0.0
H2325 H 0.49454 0.82607 0.5242 0.0
H2326 H 0.50816 0.80047 0.57223 0.0
H2327 H 0.47876 0.78574 0.5877 0.0
H2328 H 0.96203 0.87013 0.64485 0.0
H2329 H 0.97096 0.89586 0.66936 0.0
H2330 H 0.93779 0.862 0.71261 0.0
H2331 H 0.92916 0.8363 0.68855 0.0
H2332 H 0.94369 0.91831 0.68664 0.0
H2333 H 0.98479 0.88003 0.7442 0.0
H2334 H 0.98193 0.86948 0.72004 0.0
H2335 H 0.96311 0.86529 0.73819 0.0
C2336 C 0.95715 0.86789 0.65973 0.0
C2337 C 0.94474 0.85126 0.66471 0.0
C2338 C 0.96226 0.88261 0.6737 0.0
C2339 C 0.95527 0.88074 0.6929 0.0
C2340 C 0.9438 0.86356 0.69807 0.0
H2341 H 0.90719 0.93987 0.78504 0.0
H2342 H 0.92303 0.91776 0.7618 0.0
C2343 C 0.93865 0.84896 0.68417 0.0
C2344 C 0.95706 0.8979 0.70679 0.0
H2345 H 0.96421 0.9078 0.75511 0.0
C2346 C 0.94878 0.91631 0.70146 0.0
C2347 C 0.96377 0.8953 0.7261 0.0
C2348 C 0.97409 0.8765 0.73237 0.0
C2349 C 0.94528 0.93137 0.71534 0.0
C2350 C 0.95041 0.92796 0.735 0.0
C2351 C 0.96014 0.91028 0.74004 0.0
C2352 C 0.94312 0.94103 0.75075 0.0
C2353 C 0.93468 0.95007 0.70919 0.0
C2354 C 0.94959 0.96133 0.75262 0.0
C2355 C 0.94051 0.97409 0.76592 0.0
C2356 C 0.92479 0.96674 0.77751 0.0
C2357 C 0.9191 0.94612 0.77624 0.0
C2358 C 0.92821 0.9334 0.76302 0.0
H2359 H 0.92987 0.94935 0.69374 0.0
H2360 H 0.92159 0.95215 0.71853 0.0
H2361 H 0.94457 0.96361 0.71102 0.0
H2362 H 0.96122 0.96742 0.74338 0.0
H2363 H 0.94534 0.98987 0.7666 0.0
H2364 H 0.97034 0.65893 0.13101 0.0
H2365 H 0.9932 0.63468 0.14363 0.0
H2366 H 0.02149 0.6816 0.17833 0.0
H2367 H 0.9986 0.70622 0.16554 0.0
H2368 H 0.04669 0.66374 0.15434 0.0
H2369 H 0.00488 0.60334 0.19235 0.0
H2370 H 0.99251 0.60905 0.17009 0.0
H2371 H 0.99522 0.62827 0.18868 0.0
C2372 C 0.98109 0.66406 0.1417 0.0
C2373 C 0.9828 0.68458 0.14705 0.0
C2374 C 0.99402 0.65007 0.14914 0.0
C2375 C 0.00891 0.65623 0.16217 0.0
C2376 C 0.00997 0.67647 0.16847 0.0
H2377 H 0.10952 0.57794 0.14302 0.0
H2378 H 0.09119 0.60004 0.1649 0.0
C2379 C 0.99689 0.69052 0.1611 0.0
C2380 C 0.02519 0.64237 0.1659 0.0
H2381 H 0.03236 0.59183 0.17151 0.0
C2382 C 0.04388 0.64818 0.1589 0.0
C2383 C 0.02164 0.62218 0.17215 0.0
C2384 C 0.00249 0.61546 0.18144 0.0
C2385 C 0.0581 0.63373 0.15531 0.0
C2386 C 0.05346 0.61305 0.15901 0.0
C2387 C 0.03579 0.60768 0.16845 0.0
C2388 C 0.06401 0.59701 0.14871 0.0
C2389 C 0.07705 0.64037 0.14549 0.0
C2390 C 0.05458 0.58747 0.13289 0.0
C2391 C 0.06493 0.57509 0.12044 0.0
C2392 C 0.08495 0.57183 0.12358 0.0
C2393 C 0.09412 0.58027 0.1402 0.0
C2394 C 0.08371 0.5929 0.15267 0.0
H2395 H 0.07812 0.65702 0.14315 0.0
H2396 H 0.08968 0.63593 0.15457 0.0
H2397 H 0.07832 0.63272 0.13116 0.0
H2398 H 0.0394 0.59048 0.12955 0.0
H2399 H 0.05737 0.56863 0.10791 0.0
H2400 H 0.17532 0.4862 0.09019 0.0
H2401 H 0.20619 0.47042 0.09856 0.0
H2402 H 0.21191 0.50912 0.14902 0.0
H2403 H 0.18083 0.52459 0.14103 0.0
H2404 H 0.2415 0.48826 0.09992 0.0
H2405 H 0.22519 0.45528 0.17214 0.0
H2406 H 0.20613 0.46369 0.15606 0.0
H2407 H 0.21914 0.4815 0.17166 0.0
C2408 C 0.18303 0.49116 0.10323 0.0
C2409 C 0.17566 0.50664 0.11497 0.0
C2410 C 0.20064 0.48209 0.10799 0.0
C2411 C 0.2112 0.48832 0.12459 0.0
C2412 C 0.20375 0.50364 0.13645 0.0
H2413 H 0.32754 0.50815 0.15154 0.0
H2414 H 0.29549 0.50462 0.13614 0.0
C2415 C 0.18607 0.51261 0.13177 0.0
C2416 C 0.23086 0.48029 0.12859 0.0
H2417 H 0.25961 0.46358 0.16554 0.0
C2418 C 0.24536 0.48241 0.11414 0.0
C2419 C 0.23585 0.47215 0.14693 0.0
C2420 C 0.22067 0.4678 0.16248 0.0
C2421 C 0.26501 0.47827 0.1181 0.0
C2422 C 0.27031 0.47228 0.1371 0.0
C2423 C 0.25558 0.46845 0.15103 0.0
C2424 C 0.29099 0.47295 0.14368 0.0
C2425 C 0.28 0.48107 0.10209 0.0
C2426 C 0.29921 0.45628 0.15302 0.0
C2427 C 0.31765 0.4583 0.16194 0.0
C2428 C 0.32789 0.47711 0.16186 0.0
C2429 C 0.31999 0.49346 0.15178 0.0
C2430 C 0.30172 0.49141 0.14282 0.0
H2431 H 0.27332 0.47796 0.08759 0.0
H2432 H 0.28562 0.49703 0.10209 0.0
H2433 H 0.29258 0.47098 0.10414 0.0
H2434 H 0.29106 0.44196 0.15401 0.0
H2435 H 0.32336 0.44551 0.16977 0.0
H2436 H 0.75203 0.60269 0.40404 0.0
H2437 H 0.7385 0.63669 0.40257 0.0
H2438 H 0.73325 0.63708 0.46525 0.0
H2439 H 0.74597 0.60268 0.46653 0.0
H2440 H 0.70195 0.65205 0.44965 0.0
H2441 H 0.76688 0.68884 0.41445 0.0
H2442 H 0.75651 0.66853 0.40007 0.0
H2443 H 0.76701 0.66323 0.42352 0.0
C2444 C 0.7479 0.61013 0.41744 0.0
C2445 C 0.75002 0.60034 0.4354 0.0
C2446 C 0.74036 0.62957 0.41662 0.0
C2447 C 0.73527 0.63969 0.43383 0.0
C2448 C 0.73718 0.62966 0.45178 0.0
H2449 H 0.72365 0.76604 0.45519 0.0
H2450 H 0.73467 0.73235 0.4473 0.0
C2451 C 0.74445 0.61009 0.45255 0.0
C2452 C 0.72778 0.66061 0.43319 0.0
H2453 H 0.73865 0.70874 0.41735 0.0
C2454 C 0.70997 0.66445 0.44259 0.0
C2455 C 0.73838 0.67687 0.42418 0.0
C2456 C 0.75834 0.67424 0.41517 0.0
C2457 C 0.70262 0.68407 0.4435 0.0
C2458 C 0.7129 0.70022 0.43396 0.0
C2459 C 0.73057 0.69632 0.42433 0.0
C2460 C 0.70674 0.72158 0.43562 0.0
C2461 C 0.68444 0.68738 0.45554 0.0
C2462 C 0.68765 0.72723 0.43067 0.0
C2463 C 0.68116 0.74654 0.43547 0.0
C2464 C 0.69381 0.76062 0.44491 0.0
C2465 C 0.71347 0.75557 0.448 0.0
C2466 C 0.71981 0.73622 0.44352 0.0
H2467 H 0.68141 0.67467 0.46583 0.0
H2468 H 0.68586 0.70165 0.46406 0.0
H2469 H 0.67158 0.68842 0.44573 0.0
H2470 H 0.6775 0.71643 0.42392 0.0
H2471 H 0.66598 0.75002 0.43277 0.0
H2472 H 0.82739 0.93733 0.80504 0.0
H2473 H 0.792 0.93065 0.80227 0.0
H2474 H 0.78138 0.98134 0.84004 0.0
H2475 H 0.81672 0.98831 0.84276 0.0
H2476 H 0.76133 0.92383 0.83028 0.0
H2477 H 0.75324 0.99494 0.78827 0.0
H2478 H 0.77674 0.98385 0.79255 0.0
H2479 H 0.76537 0.99844 0.81131 0.0
C2480 C 0.81754 0.94684 0.81306 0.0
C2481 C 0.82479 0.96349 0.82396 0.0
C2482 C 0.79735 0.94301 0.8114 0.0
C2483 C 0.78419 0.95581 0.82057 0.0
C2484 C 0.79139 0.97158 0.83253 0.0
H2485 H 0.663 0.96879 0.83781 0.0
H2486 H 0.69869 0.97132 0.83507 0.0
C2487 C 0.81156 0.97543 0.8342 0.0
C2488 C 0.76293 0.95334 0.81693 0.0
H2489 H 0.72365 0.97828 0.79916 0.0
C2490 C 0.75308 0.93558 0.82327 0.0
C2491 C 0.75237 0.96864 0.80751 0.0
C2492 C 0.76247 0.98746 0.79933 0.0
C2493 C 0.73265 0.93318 0.82135 0.0
C2494 C 0.72202 0.94889 0.81273 0.0
C2495 C 0.73195 0.96631 0.80575 0.0
C2496 C 0.70041 0.94838 0.8127 0.0
C2497 C 0.72242 0.91433 0.82929 0.0
C2498 C 0.68965 0.93504 0.80056 0.0
C2499 C 0.66918 0.93367 0.80198 0.0
C2500 C 0.65936 0.94549 0.81568 0.0
C2501 C 0.6702 0.9594 0.82721 0.0
C2502 C 0.69055 0.96088 0.82566 0.0
H2503 H 0.73263 0.90447 0.83724 0.0
H2504 H 0.71039 0.9185 0.83928 0.0
H2505 H 0.71575 0.90549 0.81709 0.0
H2506 H 0.69712 0.92542 0.79035 0.0
H2507 H 0.66117 0.92285 0.7929 0.0
H2508 H 0.28486 0.24886 0.02347 0.0
H2509 H 0.27372 0.21661 0.03722 0.0
H2510 H 0.32671 0.21439 0.07153 0.0
H2511 H 0.33862 0.24618 0.05645 0.0
H2512 H 0.321 0.18014 0.05742 0.0
H2513 H 0.24898 0.20005 0.08593 0.0
H2514 H 0.24952 0.2068 0.06072 0.0
H2515 H 0.26639 0.21923 0.07754 0.0
C2516 C 0.29398 0.24172 0.03425 0.0
C2517 C 0.31253 0.25009 0.03904 0.0
C2518 C 0.2875 0.2233 0.04228 0.0
C2519 C 0.29905 0.21318 0.05591 0.0
C2520 C 0.31742 0.22189 0.06116 0.0
H2521 H 0.24032 0.1014 0.09844 0.0
H2522 H 0.25537 0.13561 0.09775 0.0
C2523 C 0.32419 0.24009 0.05263 0.0
C2524 C 0.29269 0.19268 0.06304 0.0
H2525 H 0.25192 0.16465 0.07607 0.0
C2526 C 0.30599 0.17686 0.06193 0.0
C2527 C 0.27331 0.18825 0.06955 0.0
C2528 C 0.25888 0.20459 0.07373 0.0
C2529 C 0.30014 0.15671 0.06597 0.0
C2530 C 0.28013 0.15201 0.0701 0.0
C2531 C 0.26715 0.16798 0.07239 0.0
C2532 C 0.27215 0.13075 0.07139 0.0
C2533 C 0.31562 0.14085 0.0659 0.0
C2534 C 0.27647 0.11647 0.05689 0.0
C2535 C 0.26846 0.09674 0.05776 0.0
C2536 C 0.25524 0.09122 0.07259 0.0
C2537 C 0.25047 0.10547 0.08683 0.0
C2538 C 0.25906 0.12498 0.0864 0.0
H2539 H 0.33004 0.14746 0.07061 0.0
H2540 H 0.31167 0.12795 0.07566 0.0
H2541 H 0.31748 0.13508 0.05085 0.0
H2542 H 0.28576 0.12064 0.04467 0.0
H2543 H 0.27211 0.08597 0.04652 0.0
H2544 H 0.18029 0.5141 0.66989 0.0
H2545 H 0.21452 0.50681 0.66257 0.0
H2546 H 0.19758 0.44472 0.64962 0.0
H2547 H 0.1635 0.45191 0.65697 0.0
H2548 H 0.2301 0.4765 0.6876 0.0
H2549 H 0.24116 0.45819 0.60946 0.0
H2550 H 0.22152 0.47375 0.61787 0.0
H2551 H 0.21954 0.44665 0.62025 0.0
C2552 C 0.18376 0.49921 0.66449 0.0
C2553 C 0.16946 0.48348 0.66405 0.0
C2554 C 0.20329 0.49503 0.66047 0.0
C2555 C 0.20844 0.47524 0.65562 0.0
C2556 C 0.1938 0.46013 0.6531 0.0
H2557 H 0.31877 0.41447 0.64784 0.0
H2558 H 0.28397 0.41909 0.65553 0.0
C2559 C 0.17438 0.46423 0.65732 0.0
C2560 C 0.22898 0.46933 0.65698 0.0
H2561 H 0.26591 0.44813 0.6315 0.0
C2562 C 0.23804 0.47044 0.67532 0.0
C2563 C 0.23896 0.46104 0.64101 0.0
C2564 C 0.22989 0.45995 0.62098 0.0
C2565 C 0.25699 0.46347 0.67813 0.0
C2566 C 0.26707 0.45538 0.66212 0.0
C2567 C 0.25792 0.45405 0.64382 0.0
C2568 C 0.28799 0.45078 0.66318 0.0
C2569 C 0.26606 0.46477 0.69815 0.0
C2570 C 0.30165 0.46683 0.66584 0.0
C2571 C 0.32128 0.46423 0.66137 0.0
C2572 C 0.32745 0.44554 0.65439 0.0
C2573 C 0.31423 0.42889 0.65357 0.0
C2574 C 0.29443 0.43156 0.65782 0.0
H2575 H 0.25467 0.46544 0.7097 0.0
H2576 H 0.27542 0.45162 0.701 0.0
H2577 H 0.27542 0.4788 0.69915 0.0
H2578 H 0.29689 0.48184 0.66962 0.0
H2579 H 0.33135 0.47727 0.66183 0.0
H2580 H 0.80567 0.26356 0.96348 0.0
H2581 H 0.79448 0.29573 0.95059 0.0
H2582 H 0.73436 0.27407 0.95553 0.0
H2583 H 0.74537 0.24189 0.96865 0.0
H2584 H 0.76869 0.30803 0.91927 0.0
H2585 H 0.73991 0.3232 0.99352 0.0
H2586 H 0.75662 0.30317 0.98858 0.0
H2587 H 0.73107 0.29995 0.98252 0.0
C2588 C 0.79009 0.26542 0.96136 0.0
C2589 C 0.77638 0.25031 0.96734 0.0
C2590 C 0.78373 0.28382 0.954 0.0
C2591 C 0.76362 0.28734 0.95252 0.0
C2592 C 0.74995 0.27168 0.95689 0.0
H2593 H 0.70004 0.39775 0.93469 0.0
H2594 H 0.70932 0.36241 0.93825 0.0
C2595 C 0.75628 0.25328 0.96428 0.0
C2596 C 0.75699 0.308 0.94839 0.0
H2597 H 0.7345 0.34794 0.9695 0.0
C2598 C 0.76115 0.31676 0.93019 0.0
C2599 C 0.7474 0.31937 0.96282 0.0
C2600 C 0.7436 0.31108 0.98303 0.0
C2601 C 0.7557 0.33663 0.92593 0.0
C2602 C 0.74604 0.34792 0.94034 0.0
C2603 C 0.74181 0.33912 0.95849 0.0
C2604 C 0.74056 0.36912 0.93711 0.0
C2605 C 0.76016 0.34539 0.90608 0.0
C2606 C 0.7551 0.38453 0.93547 0.0
C2607 C 0.74987 0.40473 0.93359 0.0
C2608 C 0.73 0.40981 0.93332 0.0
C2609 C 0.71547 0.3943 0.93484 0.0
C2610 C 0.72072 0.37413 0.93684 0.0
H2611 H 0.76398 0.33348 0.89541 0.0
H2612 H 0.74742 0.3537 0.90045 0.0
H2613 H 0.7728 0.35634 0.90722 0.0
H2614 H 0.7705 0.38094 0.93597 0.0
H2615 H 0.76138 0.41636 0.93243 0.0
H2616 H 0.83314 0.03164 0.36847 0.0
H2617 H 0.7994 0.0215 0.36047 0.0
H2618 H 0.78765 0.00864 0.42101 0.0
H2619 H 0.82163 0.0189 0.42924 0.0
H2620 H 0.77794 0.98351 0.36853 0.0
H2621 H 0.74646 0.0513 0.40387 0.0
H2622 H 0.77219 0.05025 0.39784 0.0
H2623 H 0.7625 0.03592 0.41804 0.0
C2624 C 0.82345 0.02653 0.3801 0.0
C2625 C 0.82997 0.02617 0.3995 0.0
C2626 C 0.8042 0.02069 0.37549 0.0
C2627 C 0.79106 0.0145 0.39017 0.0
C2628 C 0.79759 0.01356 0.40952 0.0
H2629 H 0.67317 0.97316 0.35122 0.0
H2630 H 0.70335 0.97503 0.37063 0.0
C2631 C 0.81697 0.01934 0.41417 0.0
C2632 C 0.77039 0.00992 0.38494 0.0
H2633 H 0.72511 0.03057 0.38521 0.0
C2634 C 0.76624 0.99352 0.37246 0.0
C2635 C 0.75532 0.02318 0.39002 0.0
C2636 C 0.75921 0.04124 0.4031 0.0
C2637 C 0.74756 0.99052 0.3642 0.0
C2638 C 0.73268 0.00421 0.36873 0.0
C2639 C 0.73659 0.0201 0.38188 0.0
C2640 C 0.7137 0.00358 0.35833 0.0
C2641 C 0.74419 0.97345 0.34983 0.0
C2642 C 0.70936 0.01928 0.34541 0.0
C2643 C 0.69218 0.0183 0.33436 0.0
C2644 C 0.67901 0.00161 0.3361 0.0
C2645 C 0.6831 0.98617 0.3495 0.0
C2646 C 0.70033 0.98717 0.36055 0.0
H2647 H 0.75806 0.96612 0.34575 0.0
H2648 H 0.73418 0.96174 0.35637 0.0
H2649 H 0.73712 0.9791 0.3364 0.0
H2650 H 0.71953 0.03208 0.34353 0.0
H2651 H 0.68941 0.03045 0.32422 0.0
H2652 H 0.26974 0.89584 0.57239 0.0
H2653 H 0.26192 0.85949 0.57246 0.0
H2654 H 0.20016 0.87163 0.57532 0.0
H2655 H 0.20787 0.90815 0.57485 0.0
H2656 H 0.24266 0.836 0.59981 0.0
H2657 H 0.20294 0.83319 0.52918 0.0
H2658 H 0.21758 0.85502 0.5368 0.0
H2659 H 0.19322 0.85079 0.54634 0.0
C2660 C 0.25447 0.8908 0.57293 0.0
C2661 C 0.23939 0.90486 0.57347 0.0
C2662 C 0.25004 0.87002 0.57303 0.0
C2663 C 0.23047 0.86286 0.57367 0.0
C2664 C 0.21536 0.87684 0.57444 0.0
H2665 H 0.17749 0.74218 0.57022 0.0
H2666 H 0.1848 0.77734 0.57941 0.0
C2667 C 0.21978 0.89769 0.57423 0.0
C2668 C 0.226 0.84074 0.57361 0.0
H2669 H 0.20252 0.80302 0.54781 0.0
C2670 C 0.23387 0.82878 0.58846 0.0
C2671 C 0.21464 0.83135 0.55869 0.0
C2672 C 0.20675 0.84319 0.54174 0.0
C2673 C 0.23056 0.80767 0.58884 0.0
C2674 C 0.21911 0.79839 0.57402 0.0
C2675 C 0.21114 0.81032 0.55927 0.0
C2676 C 0.21576 0.7762 0.57289 0.0
C2677 C 0.23921 0.79538 0.60504 0.0
C2678 C 0.23096 0.76375 0.56696 0.0
C2679 C 0.22684 0.74361 0.56161 0.0
C2680 C 0.20743 0.73574 0.56206 0.0
C2681 C 0.19258 0.74778 0.56966 0.0
C2682 C 0.1967 0.76791 0.57489 0.0
H2683 H 0.24489 0.80511 0.61712 0.0
H2684 H 0.22805 0.78439 0.61093 0.0
H2685 H 0.25153 0.78659 0.59921 0.0
H2686 H 0.24574 0.76998 0.56517 0.0
H2687 H 0.23859 0.73475 0.55577 0.0
H2688 H 0.26746 0.98023 0.51476 0.0
H2689 H 0.27939 0.00884 0.49498 0.0
H2690 H 0.313 0.03186 0.54388 0.0
H2691 H 0.3015 0.00309 0.56356 0.0
H2692 H 0.2704 0.04688 0.50378 0.0
H2693 H 0.35108 0.04268 0.49972 0.0
H2694 H 0.33551 0.0212 0.50659 0.0
H2695 H 0.3426 0.04014 0.52435 0.0
C2696 C 0.27781 0.9911 0.52114 0.0
C2697 C 0.28341 0.98953 0.54078 0.0
C2698 C 0.28462 0.00743 0.50981 0.0
C2699 C 0.29723 0.02241 0.51787 0.0
C2700 C 0.30365 0.02027 0.53718 0.0
H2701 H 0.30223 0.14797 0.51314 0.0
H2702 H 0.2977 0.11154 0.51785 0.0
C2703 C 0.29692 0.00389 0.54849 0.0
C2704 C 0.30127 0.04166 0.50729 0.0
H2705 H 0.33782 0.07637 0.4963 0.0
C2706 C 0.28517 0.05309 0.5017 0.0
C2707 C 0.32053 0.04973 0.50438 0.0
C2708 C 0.3384 0.03768 0.50889 0.0
C2709 C 0.28777 0.07289 0.49463 0.0
C2710 C 0.30693 0.08155 0.49331 0.0
C2711 C 0.32312 0.0697 0.49753 0.0
C2712 C 0.31012 0.10351 0.49002 0.0
C2713 C 0.26995 0.08475 0.4894 0.0
C2714 C 0.3189 0.111 0.47287 0.0
C2715 C 0.32145 0.13196 0.47007 0.0
C2716 C 0.31546 0.14558 0.4845 0.0
C2717 C 0.30695 0.1379 0.50172 0.0
C2718 C 0.30431 0.11709 0.50443 0.0
H2719 H 0.25707 0.07458 0.48617 0.0
H2720 H 0.26611 0.09457 0.50186 0.0
H2721 H 0.27294 0.09463 0.47657 0.0
H2722 H 0.32355 0.10067 0.46165 0.0
H2723 H 0.32813 0.13748 0.4567 0.0
H2724 H 0.07388 0.4792 0.67506 0.0
H2725 H 0.03888 0.48411 0.67399 0.0
H2726 H 0.04573 0.53617 0.7117 0.0
H2727 H 0.08124 0.53083 0.71349 0.0
H2728 H 0.01678 0.51073 0.72377 0.0
H2729 H 0.00738 0.52417 0.64509 0.0
H2730 H 0.02019 0.50124 0.64898 0.0
H2731 H 0.03119 0.52515 0.6566 0.0
C2732 C 0.06809 0.49191 0.68295 0.0
C2733 C 0.08031 0.50469 0.69435 0.0
C2734 C 0.04804 0.49478 0.68217 0.0
C2735 C 0.03979 0.51075 0.69239 0.0
C2736 C 0.05193 0.52386 0.70355 0.0
H2737 H 0.91726 0.53462 0.67657 0.0
H2738 H 0.95282 0.53531 0.6762 0.0
C2739 C 0.07214 0.52084 0.70452 0.0
C2740 C 0.01828 0.51246 0.69247 0.0
H2741 H 0.97863 0.51129 0.66227 0.0
C2742 C 0.00839 0.51122 0.71037 0.0
C2743 C 0.00742 0.51328 0.67496 0.0
C2744 C 0.01715 0.51626 0.65537 0.0
C2745 C 0.98785 0.51005 0.71118 0.0
C2746 C 0.97706 0.50938 0.69358 0.0
C2747 C 0.98696 0.51132 0.67573 0.0
C2748 C 0.95541 0.50796 0.69329 0.0
C2749 C 0.97798 0.50978 0.73087 0.0
C2750 C 0.94501 0.49195 0.70255 0.0
C2751 C 0.92449 0.49165 0.70305 0.0
C2752 C 0.91422 0.50715 0.69395 0.0
C2753 C 0.92472 0.52247 0.6838 0.0
C2754 C 0.94509 0.52292 0.68357 0.0
H2755 H 0.98784 0.51618 0.74236 0.0
H2756 H 0.96434 0.51854 0.73064 0.0
H2757 H 0.97408 0.49389 0.73492 0.0
H2758 H 0.95274 0.47991 0.70964 0.0
H2759 H 0.91673 0.47962 0.71088 0.0
H2760 H 0.80261 0.15126 0.97981 0.0
H2761 H 0.80777 0.11547 0.98679 0.0
H2762 H 0.77682 0.12111 0.04112 0.0
H2763 H 0.77133 0.15681 0.03422 0.0
H2764 H 0.82795 0.09976 0.01806 0.0
H2765 H 0.75059 0.07064 0.018 0.0
H2766 H 0.75793 0.09467 0.00723 0.0
H2767 H 0.75498 0.09246 0.03312 0.0
C2768 C 0.79664 0.14481 0.99314 0.0
C2769 C 0.78651 0.15684 0.00646 0.0
C2770 C 0.79969 0.12438 0.99713 0.0
C2771 C 0.79255 0.1156 0.01444 0.0
C2772 C 0.78216 0.1275 0.02758 0.0
H2773 H 0.8245 0.00436 0.07197 0.0
H2774 H 0.82534 0.03941 0.06027 0.0
C2775 C 0.77909 0.14792 0.02362 0.0
C2776 C 0.79665 0.09422 0.01911 0.0
H2777 H 0.77452 0.04851 0.02976 0.0
C2778 C 0.81629 0.08849 0.02049 0.0
C2779 C 0.78139 0.07956 0.0222 0.0
C2780 C 0.76004 0.08452 0.01991 0.0
C2781 C 0.82109 0.06848 0.02503 0.0
C2782 C 0.80584 0.05396 0.02852 0.0
C2783 C 0.78621 0.0597 0.02708 0.0
C2784 C 0.80959 0.03259 0.03356 0.0
C2785 C 0.84239 0.06299 0.0258 0.0
C2786 C 0.80133 0.01702 0.02203 0.0
C2787 C 0.80055 0.99712 0.02882 0.0
C2788 C 0.80786 0.99243 0.04739 0.0
C2789 C 0.81835 0.00756 0.05782 0.0
C2790 C 0.81891 0.02762 0.0511 0.0
H2791 H 0.85194 0.07429 0.01804 0.0
H2792 H 0.8472 0.06251 0.04123 0.0
H2793 H 0.84453 0.0478 0.01931 0.0
H2794 H 0.79428 0.02049 0.00833 0.0
H2795 H 0.79271 0.98574 0.02022 0.0
H2796 H 0.92296 0.04501 0.45903 0.0
H2797 H 0.95487 0.03228 0.4691 0.0
H2798 H 0.95799 0.998 0.41573 0.0
H2799 H 0.92604 0.00995 0.40602 0.0
H2800 H 0.97094 0.97651 0.44575 0.0
H2801 H 0.00606 0.05377 0.44706 0.0
H2802 H 0.9858 0.04975 0.46346 0.0
H2803 H 0.98168 0.04903 0.43761 0.0
C2804 C 0.9304 0.03459 0.44957 0.0
C2805 C 0.92205 0.02859 0.43167 0.0
C2806 C 0.94869 0.02745 0.45528 0.0
C2807 C 0.95903 0.01449 0.443 0.0
C2808 C 0.95034 0.008 0.42546 0.0
H2809 H 0.07543 0.99722 0.41322 0.0
H2810 H 0.04284 0.00863 0.4212 0.0
C2811 C 0.93205 0.0149 0.41989 0.0
C2812 C 0.97924 0.00817 0.44764 0.0
H2813 H 0.0265 0.02638 0.45185 0.0
C2814 C 0.9831 0.98739 0.44737 0.0
C2815 C 0.99508 0.02242 0.44969 0.0
C2816 C 0.99207 0.04499 0.44934 0.0
C2817 C 0.00237 0.98048 0.44783 0.0
C2818 C 0.01825 0.99476 0.44928 0.0
C2819 C 0.01431 0.01547 0.45082 0.0
C2820 C 0.0389 0.98892 0.4462 0.0
C2821 C 0.00556 0.95808 0.44538 0.0
C2822 C 0.04787 0.97439 0.45792 0.0
C2823 C 0.06657 0.96758 0.4532 0.0
C2824 C 0.07666 0.97544 0.43686 0.0
C2825 C 0.06806 0.99078 0.42587 0.0
C2826 C 0.0494 0.99738 0.43045 0.0
H2827 H 0.99198 0.9497 0.44068 0.0
H2828 H 0.01723 0.95544 0.43447 0.0
H2829 H 0.01025 0.95162 0.45948 0.0
H2830 H 0.04025 0.968 0.47043 0.0
H2831 H 0.07288 0.95584 0.46201 0.0
H2832 H 0.21617 0.64575 0.4919 0.0
H2833 H 0.21328 0.60996 0.48266 0.0
H2834 H 0.18643 0.59576 0.53807 0.0
H2835 H 0.1891 0.63155 0.54737 0.0
H2836 H 0.22784 0.57541 0.50024 0.0
H2837 H 0.14634 0.57279 0.49838 0.0
H2838 H 0.16064 0.59627 0.49904 0.0
H2839 H 0.15681 0.58174 0.52092 0.0
C2840 C 0.20976 0.63499 0.50217 0.0
C2841 C 0.20274 0.64149 0.52031 0.0
C2842 C 0.2081 0.61457 0.49686 0.0
C2843 C 0.19926 0.6003 0.50952 0.0
C2844 C 0.19289 0.60661 0.52792 0.0
H2845 H 0.2105 0.47097 0.49308 0.0
H2846 H 0.20686 0.50395 0.50847 0.0
C2847 C 0.19459 0.62703 0.53327 0.0
C2848 C 0.19671 0.57884 0.5034 0.0
H2849 H 0.16207 0.54155 0.49401 0.0
C2850 C 0.21348 0.56797 0.49895 0.0
C2851 C 0.17792 0.56932 0.5014 0.0
C2852 C 0.15936 0.58064 0.505 0.0
C2853 C 0.212 0.54772 0.49277 0.0
C2854 C 0.19322 0.53799 0.49128 0.0
C2855 C 0.17643 0.54895 0.49548 0.0
C2856 C 0.19093 0.51675 0.48442 0.0
C2857 C 0.23053 0.53705 0.48741 0.0
C2858 C 0.18137 0.51238 0.46672 0.0
C2859 C 0.18293 0.49327 0.45811 0.0
C2860 C 0.19449 0.47853 0.46687 0.0
C2861 C 0.20192 0.48219 0.4857 0.0
C2862 C 0.20003 0.50111 0.49445 0.0
H2863 H 0.24324 0.54779 0.4855 0.0
H2864 H 0.2343 0.52637 0.49921 0.0
H2865 H 0.22843 0.52822 0.47377 0.0
H2866 H 0.17391 0.52415 0.45892 0.0
H2867 H 0.17655 0.49074 0.44385 0.0
H2868 H 0.4163 0.48721 0.65298 0.0
H2869 H 0.45042 0.49851 0.64835 0.0
H2870 H 0.44097 0.50218 0.58637 0.0
H2871 H 0.40679 0.49084 0.59081 0.0
H2872 H 0.47173 0.4705 0.62172 0.0
H2873 H 0.47893 0.55229 0.60193 0.0
H2874 H 0.45907 0.54223 0.61687 0.0
H2875 H 0.45905 0.53754 0.59116 0.0
C2876 C 0.42126 0.49115 0.63844 0.0
C2877 C 0.40908 0.48775 0.62218 0.0
C2878 C 0.44072 0.49759 0.63584 0.0
C2879 C 0.44805 0.501 0.61704 0.0
C2880 C 0.43541 0.49972 0.60099 0.0
H2881 H 0.56589 0.51744 0.57189 0.0
H2882 H 0.5306 0.50984 0.57416 0.0
C2883 C 0.41595 0.49318 0.60356 0.0
C2884 C 0.46933 0.50195 0.61387 0.0
H2885 H 0.50736 0.53287 0.5992 0.0
C2886 C 0.47961 0.48413 0.61686 0.0
C2887 C 0.47925 0.51969 0.60728 0.0
C2888 C 0.46862 0.53913 0.60418 0.0
C2889 C 0.49978 0.48357 0.61339 0.0
C2890 C 0.50983 0.5014 0.60705 0.0
C2891 C 0.49948 0.5192 0.60391 0.0
C2892 C 0.53128 0.50241 0.60483 0.0
C2893 C 0.51012 0.46392 0.61638 0.0
C2894 C 0.54325 0.50004 0.6212 0.0
C2895 C 0.56332 0.50432 0.61996 0.0
C2896 C 0.57164 0.51127 0.60237 0.0
C2897 C 0.55984 0.51222 0.58565 0.0
C2898 C 0.53971 0.50796 0.58692 0.0
H2899 H 0.49971 0.45063 0.61568 0.0
H2900 H 0.52179 0.46199 0.6053 0.0
H2901 H 0.51708 0.46402 0.63099 0.0
H2902 H 0.53691 0.49603 0.6352 0.0
H2903 H 0.57207 0.50341 0.63308 0.0
H2904 H 0.6687 0.50628 0.93493 0.0
H2905 H 0.66201 0.53844 0.95096 0.0
H2906 H 0.69324 0.51918 0.00198 0.0
H2907 H 0.70034 0.48718 0.98596 0.0
H2908 H 0.6458 0.5517 0.98772 0.0
H2909 H 0.72596 0.56816 0.97968 0.0
H2910 H 0.7136 0.54702 0.96779 0.0
H2911 H 0.71951 0.54562 0.99323 0.0
C2912 C 0.67375 0.50868 0.94972 0.0
C2913 C 0.68548 0.49444 0.959 0.0
C2914 C 0.66987 0.52704 0.95888 0.0
C2915 C 0.67752 0.53129 0.97745 0.0
C2916 C 0.68751 0.51626 0.98749 0.0
H2917 H 0.66244 0.6502 0.03394 0.0
H2918 H 0.66268 0.61329 0.02908 0.0
C2919 C 0.6915 0.49798 0.97833 0.0
C2920 C 0.67727 0.55218 0.98515 0.0
H2921 H 0.70728 0.59345 0.99416 0.0
C2922 C 0.65921 0.56083 0.98935 0.0
C2923 C 0.69483 0.56405 0.98691 0.0
C2924 C 0.71458 0.55588 0.98152 0.0
C2925 C 0.65822 0.58123 0.99502 0.0
C2926 C 0.6758 0.59307 0.99679 0.0
C2927 C 0.69386 0.58424 0.99299 0.0
C2928 C 0.67579 0.61518 0.00039 0.0
C2929 C 0.63838 0.5902 0.99818 0.0
C2930 C 0.68357 0.62834 0.98614 0.0
C2931 C 0.68367 0.64922 0.98896 0.0
C2932 C 0.67595 0.65743 0.0061 0.0
C2933 C 0.66844 0.64427 0.02057 0.0
C2934 C 0.66842 0.62324 0.01775 0.0
H2935 H 0.62625 0.58012 0.99267 0.0
H2936 H 0.63606 0.59259 0.014 0.0
H2937 H 0.63757 0.60515 0.99083 0.0
H2938 H 0.6894 0.62243 0.97267 0.0
H2939 H 0.68963 0.65893 0.97755 0.0
H2940 H 0.41815 0.97447 0.33721 0.0
H2941 H 0.45392 0.97457 0.33926 0.0
H2942 H 0.45744 0.03114 0.30778 0.0
H2943 H 0.42161 0.03095 0.30533 0.0
H2944 H 0.481 0.00259 0.29243 0.0
H2945 H 0.49243 0.00797 0.37221 0.0
H2946 H 0.47577 0.98763 0.3653 0.0
H2947 H 0.46933 0.01344 0.36078 0.0
C2948 C 0.42652 0.98708 0.33096 0.0
C2949 C 0.41711 0.0027 0.3211 0.0
C2950 C 0.44696 0.98718 0.33226 0.0
C2951 C 0.45831 0.003 0.32391 0.0
C2952 C 0.44892 0.01885 0.31441 0.0
H2953 H 0.58441 0.02215 0.33453 0.0
H2954 H 0.54875 0.02441 0.33698 0.0
C2955 C 0.42847 0.01872 0.31304 0.0
C2956 C 0.47997 0.00221 0.32379 0.0
H2957 H 0.52005 0.99846 0.3532 0.0
C2958 C 0.48956 0.00183 0.30572 0.0
C2959 C 0.49108 0.0014 0.34115 0.0
C2960 C 0.48166 0.00284 0.36096 0.0
C2961 C 0.50998 0.00027 0.30451 0.0
C2962 C 0.521 0.9986 0.32185 0.0
C2963 C 0.51148 0.99944 0.33994 0.0
C2964 C 0.54251 0.99642 0.32144 0.0
C2965 C 0.51958 0.00068 0.2847 0.0
C2966 C 0.55076 0.97965 0.31235 0.0
C2967 C 0.57111 0.97835 0.31087 0.0
C2968 C 0.58351 0.99373 0.3186 0.0
C2969 C 0.57521 0.01009 0.32838 0.0
C2970 C 0.55486 0.01141 0.32981 0.0
H2971 H 0.50991 0.00724 0.27346 0.0
H2972 H 0.53366 0.00961 0.28501 0.0
H2973 H 0.52274 0.98495 0.28023 0.0
H2974 H 0.54143 0.96772 0.30617 0.0
H2975 H 0.5771 0.96549 0.30337 0.0
H2976 H 0.63892 0.25337 0.17299 0.0
H2977 H 0.64733 0.26701 0.20497 0.0
H2978 H 0.70168 0.23518 0.20415 0.0
H2979 H 0.69308 0.22098 0.17222 0.0
H2980 H 0.68227 0.22806 0.2368 0.0
H2981 H 0.68459 0.31056 0.22451 0.0
H2982 H 0.66212 0.29975 0.21505 0.0
H2983 H 0.68522 0.29262 0.20466 0.0
C2984 C 0.65281 0.24951 0.17946 0.0
C2985 C 0.66531 0.23606 0.17015 0.0
C2986 C 0.65771 0.25751 0.19767 0.0
C2987 C 0.67533 0.25246 0.20678 0.0
C2988 C 0.6881 0.23943 0.19728 0.0
H2989 H 0.68374 0.30634 0.32387 0.0
H2990 H 0.6951 0.29634 0.29145 0.0
C2991 C 0.68314 0.23129 0.17908 0.0
C2992 C 0.67905 0.25888 0.22712 0.0
H2993 H 0.67513 0.29951 0.25736 0.0
C2994 C 0.68123 0.24376 0.24126 0.0
C2995 C 0.67818 0.27938 0.23296 0.0
C2996 C 0.67763 0.29649 0.21842 0.0
C2997 C 0.68075 0.2484 0.26115 0.0
C2998 C 0.67754 0.26858 0.26695 0.0
C2999 C 0.67721 0.28396 0.25286 0.0
C3000 C 0.67198 0.27357 0.28714 0.0
C3001 C 0.68293 0.23152 0.27573 0.0
C3002 C 0.65518 0.26416 0.29532 0.0
C3003 C 0.6487 0.26979 0.31371 0.0
C3004 C 0.65879 0.2851 0.32422 0.0
C3005 C 0.67572 0.29443 0.31611 0.0
C3006 C 0.68223 0.28875 0.29764 0.0
H3007 H 0.69226 0.21946 0.26982 0.0
H3008 H 0.68946 0.2372 0.28958 0.0
H3009 H 0.66826 0.22453 0.27891 0.0
H3010 H 0.64672 0.25283 0.28723 0.0
H3011 H 0.63554 0.2624 0.31951 0.0
H3012 H 0.91571 0.73676 0.35066 0.0
H3013 H 0.91601 0.74148 0.31537 0.0
H3014 H 0.97174 0.71248 0.31188 0.0
H3015 H 0.97153 0.70757 0.34722 0.0
H3016 H 0.94625 0.76411 0.29532 0.0
H3017 H 0.93784 0.68468 0.26878 0.0
H3018 H 0.93153 0.69197 0.2933 0.0
H3019 H 0.95678 0.68923 0.28662 0.0
C3020 C 0.92786 0.73104 0.34236 0.0
C3021 C 0.94361 0.7218 0.3517 0.0
C3022 C 0.92804 0.73383 0.32223 0.0
C3023 C 0.94386 0.7273 0.3111 0.0
C3024 C 0.95928 0.71741 0.32025 0.0
H3025 H 0.97777 0.76383 0.19386 0.0
H3026 H 0.97585 0.76038 0.22936 0.0
C3027 C 0.95914 0.71463 0.34042 0.0
C3028 C 0.94472 0.73192 0.29009 0.0
H3029 H 0.94466 0.71003 0.24513 0.0
C3030 C 0.94587 0.75233 0.2843 0.0
C3031 C 0.94416 0.71646 0.27587 0.0
C3032 C 0.94236 0.69434 0.28136 0.0
C3033 C 0.94653 0.7577 0.26455 0.0
C3034 C 0.94617 0.74223 0.25034 0.0
C3035 C 0.94498 0.72183 0.25614 0.0
C3036 C 0.94656 0.74674 0.22929 0.0
C3037 C 0.94727 0.77983 0.25899 0.0
C3038 C 0.93062 0.7405 0.21764 0.0
C3039 C 0.93168 0.74241 0.19746 0.0
C3040 C 0.94876 0.75051 0.18858 0.0
C3041 C 0.96438 0.75765 0.20033 0.0
C3042 C 0.96331 0.7557 0.22058 0.0
H3043 H 0.94338 0.78973 0.27141 0.0
H3044 H 0.96236 0.78419 0.25418 0.0
H3045 H 0.93712 0.78267 0.24671 0.0
H3046 H 0.91757 0.73358 0.22415 0.0
H3047 H 0.91938 0.73682 0.1888 0.0
H3048 H 0.60514 0.28519 0.42395 0.0
H3049 H 0.60219 0.26629 0.45453 0.0
H3050 H 0.64781 0.22678 0.43573 0.0
H3051 H 0.65155 0.2464 0.40564 0.0
H3052 H 0.59409 0.22796 0.46521 0.0
H3053 H 0.67149 0.24854 0.48482 0.0
H3054 H 0.6596 0.25924 0.46397 0.0
H3055 H 0.66829 0.23379 0.46305 0.0
C3056 C 0.61441 0.27239 0.42632 0.0
C3057 C 0.62881 0.26744 0.41271 0.0
C3058 C 0.61269 0.26154 0.44373 0.0
C3059 C 0.62511 0.2454 0.4476 0.0
C3060 C 0.63852 0.23955 0.43333 0.0
H3061 H 0.59842 0.20284 0.56719 0.0
H3062 H 0.60835 0.19664 0.53328 0.0
C3063 C 0.64058 0.25071 0.41614 0.0
C3064 C 0.62487 0.23596 0.46718 0.0
H3065 H 0.65212 0.23289 0.50871 0.0
C3066 C 0.60685 0.22864 0.47467 0.0
C3067 C 0.64163 0.23676 0.47941 0.0
C3068 C 0.66132 0.24513 0.47252 0.0
C3069 C 0.60468 0.22384 0.49447 0.0
C3070 C 0.62117 0.22587 0.50691 0.0
C3071 C 0.63958 0.23127 0.49903 0.0
C3072 C 0.61876 0.22753 0.52823 0.0
C3073 C 0.58444 0.21847 0.50221 0.0
C3074 C 0.62242 0.24654 0.53682 0.0
C3075 C 0.61697 0.25001 0.55599 0.0
C3076 C 0.60779 0.23453 0.56697 0.0
C3077 C 0.60553 0.215 0.55897 0.0
C3078 C 0.611 0.2115 0.53961 0.0
H3079 H 0.57294 0.21936 0.49081 0.0
H3080 H 0.58417 0.20278 0.50804 0.0
H3081 H 0.58067 0.22883 0.5143 0.0
H3082 H 0.62841 0.25912 0.52832 0.0
H3083 H 0.61898 0.26517 0.56188 0.0
H3084 H 0.86592 0.8008 0.69473 0.0
H3085 H 0.86115 0.78735 0.72774 0.0
H3086 H 0.91288 0.75191 0.72134 0.0
H3087 H 0.91748 0.76486 0.68834 0.0
H3088 H 0.88243 0.7303 0.73801 0.0
H3089 H 0.89401 0.80476 0.77475 0.0
H3090 H 0.87467 0.80391 0.75699 0.0
H3091 H 0.89964 0.80093 0.74937 0.0
C3092 C 0.8762 0.79007 0.70035 0.0
C3093 C 0.89213 0.78396 0.68899 0.0
C3094 C 0.87353 0.7825 0.71923 0.0
C3095 C 0.88685 0.7689 0.72709 0.0
C3096 C 0.90246 0.76244 0.71558 0.0
H3097 H 0.91492 0.73848 0.84499 0.0
H3098 H 0.91281 0.75206 0.81197 0.0
C3099 C 0.90508 0.76989 0.69672 0.0
C3100 C 0.88483 0.76142 0.74735 0.0
H3101 H 0.88615 0.77665 0.79485 0.0
C3102 C 0.88312 0.74042 0.75046 0.0
C3103 C 0.88602 0.77468 0.76352 0.0
C3104 C 0.88886 0.79731 0.76109 0.0
C3105 C 0.88281 0.73227 0.76933 0.0
C3106 C 0.88377 0.74554 0.78551 0.0
C3107 C 0.88524 0.76655 0.7824 0.0
C3108 C 0.88443 0.73788 0.80577 0.0
C3109 C 0.88225 0.70951 0.77173 0.0
C3110 C 0.869 0.72571 0.81336 0.0
C3111 C 0.87024 0.7178 0.83219 0.0
C3112 C 0.88681 0.72215 0.84381 0.0
C3113 C 0.90196 0.73485 0.83639 0.0
C3114 C 0.90077 0.74263 0.81753 0.0
H3115 H 0.88642 0.70167 0.75809 0.0
H3116 H 0.89226 0.70485 0.78355 0.0
H3117 H 0.86712 0.7043 0.77562 0.0
H3118 H 0.85607 0.72222 0.80467 0.0
H3119 H 0.85827 0.70816 0.83757 0.0
H3120 H 0.87169 0.74374 0.9349 0.0
H3121 H 0.8742 0.75993 0.96695 0.0
H3122 H 0.92565 0.72578 0.97955 0.0
H3123 H 0.92351 0.70996 0.94749 0.0
H3124 H 0.87158 0.74226 0.00186 0.0
H3125 H 0.9438 0.78173 0.99631 0.0
H3126 H 0.93079 0.77206 0.97518 0.0
H3127 H 0.94579 0.75567 0.98951 0.0
C3128 C 0.88365 0.73986 0.94445 0.0
C3129 C 0.89744 0.72563 0.93871 0.0
C3130 C 0.88508 0.74916 0.96271 0.0
C3131 C 0.90036 0.74442 0.97545 0.0
C3132 C 0.91411 0.73017 0.96971 0.0
H3133 H 0.91405 0.72175 0.09053 0.0
H3134 H 0.90191 0.72641 0.05761 0.0
C3135 C 0.91275 0.72096 0.95146 0.0
C3136 C 0.90113 0.75284 0.99542 0.0
H3137 H 0.93356 0.77164 0.02913 0.0
C3138 C 0.88495 0.7492 0.00772 0.0
C3139 C 0.91834 0.76241 0.003 0.0
C3140 C 0.93556 0.7684 0.99021 0.0
C3141 C 0.88626 0.75301 0.02777 0.0
C3142 C 0.90431 0.76023 0.03567 0.0
C3143 C 0.91979 0.7658 0.02311 0.0
C3144 C 0.9086 0.7587 0.05672 0.0
C3145 C 0.8686 0.74836 0.04041 0.0
C3146 C 0.91643 0.77533 0.06724 0.0
C3147 C 0.9235 0.77265 0.08619 0.0
C3148 C 0.9231 0.75325 0.09464 0.0
C3149 C 0.91452 0.73688 0.08437 0.0
C3150 C 0.90739 0.73956 0.0656 0.0
H3151 H 0.85478 0.75087 0.03229 0.0
H3152 H 0.86855 0.73215 0.04475 0.0
H3153 H 0.86875 0.75782 0.05378 0.0
H3154 H 0.91771 0.79016 0.06053 0.0
H3155 H 0.93019 0.78549 0.09378 0.0
H3156 H 0.36116 0.74239 0.31987 0.0
H3157 H 0.35204 0.75169 0.28686 0.0
H3158 H 0.30144 0.71087 0.2898 0.0
H3159 H 0.3108 0.70103 0.32288 0.0
H3160 H 0.32179 0.70543 0.25705 0.0
H3161 H 0.31021 0.7872 0.26583 0.0
H3162 H 0.3336 0.78088 0.27562 0.0
H3163 H 0.31147 0.77023 0.2864 0.0
C3164 C 0.34792 0.73558 0.31364 0.0
C3165 C 0.33667 0.72101 0.32398 0.0
C3166 C 0.34263 0.74106 0.2948 0.0
C3167 C 0.32582 0.73231 0.28601 0.0
C3168 C 0.31436 0.71795 0.2964 0.0
H3169 H 0.30993 0.7813 0.16842 0.0
H3170 H 0.30037 0.76933 0.20096 0.0
C3171 C 0.31972 0.71237 0.31527 0.0
C3172 C 0.32147 0.73692 0.26538 0.0
H3173 H 0.32014 0.77639 0.23344 0.0
C3174 C 0.32096 0.72092 0.2519 0.0
C3175 C 0.31988 0.75706 0.25866 0.0
C3176 C 0.31859 0.77477 0.27245 0.0
C3177 C 0.32055 0.72467 0.23181 0.0
C3178 C 0.32118 0.74494 0.22508 0.0
C3179 C 0.32001 0.76084 0.23857 0.0
C3180 C 0.32531 0.75012 0.20446 0.0
C3181 C 0.31998 0.70686 0.21802 0.0
C3182 C 0.34241 0.74322 0.1956 0.0
C3183 C 0.34781 0.7499 0.17705 0.0
C3184 C 0.33638 0.7639 0.16709 0.0
C3185 C 0.31901 0.77049 0.17575 0.0
C3186 C 0.31354 0.76367 0.19431 0.0
H3187 H 0.31202 0.69361 0.22462 0.0
H3188 H 0.31279 0.71065 0.20403 0.0
H3189 H 0.3352 0.70228 0.21496 0.0
H3190 H 0.35206 0.73327 0.20334 0.0
H3191 H 0.36134 0.74464 0.17083 0.0
H3192 H 0.61314 0.22324 0.07244 0.0
H3193 H 0.6098 0.23654 0.03941 0.0
H3194 H 0.66505 0.26962 0.04542 0.0
H3195 H 0.66872 0.25602 0.07834 0.0
H3196 H 0.60915 0.27618 0.02489 0.0
H3197 H 0.67337 0.23471 0.99711 0.0
H3198 H 0.66247 0.22932 0.02056 0.0
H3199 H 0.678 0.25155 0.01727 0.0
C3200 C 0.62454 0.23341 0.06676 0.0
C3201 C 0.6413 0.23842 0.07785 0.0
C3202 C 0.62258 0.24105 0.04793 0.0
C3203 C 0.63731 0.25383 0.03992 0.0
C3204 C 0.65371 0.25948 0.05123 0.0
H3205 H 0.61266 0.29971 0.92137 0.0
H3206 H 0.62517 0.30075 0.95498 0.0
C3207 C 0.65574 0.25174 0.07003 0.0
C3208 C 0.63574 0.26036 0.0194 0.0
H3209 H 0.65522 0.25276 0.97431 0.0
C3210 C 0.61938 0.27138 0.01382 0.0
C3211 C 0.64914 0.254 0.00507 0.0
C3212 C 0.66668 0.24162 0.01018 0.0
C3213 C 0.61551 0.27535 0.99415 0.0
C3214 C 0.62853 0.26833 0.9798 0.0
C3215 C 0.64542 0.25825 0.98544 0.0
C3216 C 0.62316 0.26822 0.95897 0.0
C3217 C 0.59691 0.28585 0.98876 0.0
C3218 C 0.61857 0.24959 0.95004 0.0
C3219 C 0.61152 0.24896 0.93103 0.0
C3220 C 0.60901 0.26696 0.92055 0.0
C3221 C 0.61446 0.28562 0.92916 0.0
C3222 C 0.62149 0.28625 0.94833 0.0
H3223 H 0.58731 0.28828 0.00157 0.0
H3224 H 0.60071 0.30084 0.98221 0.0
H3225 H 0.5885 0.27682 0.97775 0.0
H3226 H 0.61979 0.23553 0.95804 0.0
H3227 H 0.60754 0.23435 0.92474 0.0
H3228 H 0.33205 0.03202 0.84594 0.0
H3229 H 0.29651 0.02617 0.84508 0.0
H3230 H 0.29237 0.06716 0.79645 0.0
H3231 H 0.32811 0.07303 0.79707 0.0
H3232 H 0.26703 0.07397 0.8322 0.0
H3233 H 0.2623 0.99582 0.80175 0.0
H3234 H 0.28017 0.00041 0.82066 0.0
H3235 H 0.28316 0.01285 0.79757 0.0
C3236 C 0.32362 0.03959 0.83488 0.0
C3237 C 0.3328 0.05302 0.82159 0.0
C3238 C 0.30336 0.0362 0.83441 0.0
C3239 C 0.29197 0.0462 0.82068 0.0
C3240 C 0.30105 0.05929 0.8071 0.0
H3241 H 0.16638 0.05251 0.80577 0.0
H3242 H 0.20157 0.06034 0.80689 0.0
C3243 C 0.32141 0.06256 0.80744 0.0
C3244 C 0.27046 0.04369 0.82132 0.0
H3245 H 0.2331 0.00894 0.81455 0.0
C3246 C 0.25951 0.05984 0.82822 0.0
C3247 C 0.26092 0.02515 0.81631 0.0
C3248 C 0.27215 0.00755 0.80852 0.0
C3249 C 0.23912 0.05776 0.83062 0.0
C3250 C 0.22953 0.03918 0.82558 0.0
C3251 C 0.24054 0.02311 0.81853 0.0
C3252 C 0.20803 0.03612 0.82693 0.0
C3253 C 0.22813 0.07524 0.83899 0.0
C3254 C 0.2 0.01996 0.83791 0.0
C3255 C 0.1799 0.01531 0.83715 0.0
C3256 C 0.16756 0.02674 0.82535 0.0
C3257 C 0.17551 0.0435 0.8151 0.0
C3258 C 0.19561 0.04807 0.81578 0.0
H3259 H 0.23802 0.0858 0.84727 0.0
H3260 H 0.22154 0.08391 0.82692 0.0
H3261 H 0.21611 0.06979 0.84877 0.0
H3262 H 0.20939 0.01055 0.84658 0.0
H3263 H 0.17419 0.0023 0.84519 0.0
H3264 H 0.78207 0.89235 0.06762 0.0
H3265 H 0.76621 0.8587 0.06421 0.0
H3266 H 0.70942 0.88505 0.07041 0.0
H3267 H 0.72508 0.9187 0.07345 0.0
H3268 H 0.74096 0.83708 0.08963 0.0
H3269 H 0.70428 0.85364 0.0194 0.0
H3270 H 0.7236 0.86983 0.02935 0.0
H3271 H 0.699 0.8711 0.03861 0.0
C3272 C 0.7662 0.89097 0.06817 0.0
C3273 C 0.7548 0.90817 0.07059 0.0
C3274 C 0.75718 0.87175 0.0663 0.0
C3275 C 0.73665 0.86946 0.0668 0.0
C3276 C 0.72527 0.88656 0.0696 0.0
H3277 H 0.6582 0.76578 0.04481 0.0
H3278 H 0.67155 0.79784 0.05783 0.0
C3279 C 0.73426 0.90576 0.07137 0.0
C3280 C 0.72712 0.8492 0.06414 0.0
H3281 H 0.69618 0.82218 0.03415 0.0
C3282 C 0.73115 0.83379 0.07752 0.0
C3283 C 0.71433 0.845 0.04832 0.0
C3284 C 0.71015 0.86069 0.03299 0.0
C3285 C 0.72264 0.81424 0.07553 0.0
C3286 C 0.70998 0.81005 0.05965 0.0
C3287 C 0.70577 0.82553 0.04643 0.0
C3288 C 0.70189 0.78944 0.05552 0.0
C3289 C 0.72718 0.79828 0.09044 0.0
C3290 C 0.71453 0.77394 0.05042 0.0
C3291 C 0.70696 0.75563 0.04295 0.0
C3292 C 0.68663 0.75259 0.04037 0.0
C3293 C 0.67394 0.76766 0.04664 0.0
C3294 C 0.68153 0.78599 0.05405 0.0
H3295 H 0.73252 0.80515 0.10431 0.0
H3296 H 0.71402 0.78844 0.09353 0.0
H3297 H 0.73885 0.78857 0.08469 0.0
H3298 H 0.7303 0.77643 0.05112 0.0
H3299 H 0.71712 0.74432 0.03823 0.0
H3300 H 0.82078 0.48352 0.1411 0.0
H3301 H 0.78816 0.49542 0.14905 0.0
H3302 H 0.78053 0.51483 0.08962 0.0
H3303 H 0.81345 0.5034 0.08163 0.0
H3304 H 0.76591 0.54221 0.11691 0.0
H3305 H 0.73918 0.46348 0.13149 0.0
H3306 H 0.76021 0.47077 0.14587 0.0
H3307 H 0.7624 0.46918 0.11979 0.0
C3308 C 0.81222 0.49042 0.12974 0.0
C3309 C 0.81955 0.4923 0.11069 0.0
C3310 C 0.79358 0.49718 0.13429 0.0
C3311 C 0.78182 0.50563 0.11982 0.0
C3312 C 0.78937 0.50826 0.10096 0.0
H3313 H 0.65702 0.50408 0.13975 0.0
H3314 H 0.6885 0.50319 0.12281 0.0
C3315 C 0.80813 0.50166 0.09642 0.0
C3316 C 0.7613 0.51068 0.12423 0.0
H3317 H 0.71842 0.48978 0.14144 0.0
C3318 C 0.75541 0.53077 0.12211 0.0
C3319 C 0.74757 0.49562 0.13062 0.0
C3320 C 0.75257 0.47353 0.13189 0.0
C3321 C 0.73623 0.53631 0.12685 0.0
C3322 C 0.72282 0.5214 0.13421 0.0
C3323 C 0.72867 0.50125 0.13582 0.0
C3324 C 0.70279 0.52605 0.141 0.0
C3325 C 0.73051 0.55797 0.12379 0.0
C3326 C 0.70003 0.53996 0.15619 0.0
C3327 C 0.68181 0.54088 0.16551 0.0
C3328 C 0.66637 0.52753 0.16003 0.0
C3329 C 0.66876 0.51457 0.1441 0.0
C3330 C 0.68674 0.51402 0.1345 0.0
H3331 H 0.73972 0.5655 0.11239 0.0
H3332 H 0.71484 0.55887 0.11955 0.0
H3333 H 0.73279 0.56653 0.13756 0.0
H3334 H 0.71227 0.54904 0.1618 0.0
H3335 H 0.68034 0.5507 0.17804 0.0
H3336 H 0.32751 0.24772 0.43177 0.0
H3337 H 0.31471 0.28039 0.42149 0.0
H3338 H 0.2646 0.27062 0.45917 0.0
H3339 H 0.27647 0.23763 0.4682 0.0
H3340 H 0.25308 0.28903 0.4295 0.0
H3341 H 0.32138 0.32929 0.45389 0.0
H3342 H 0.32537 0.31216 0.43414 0.0
H3343 H 0.31728 0.30248 0.45744 0.0
C3344 C 0.31352 0.2524 0.43742 0.0
C3345 C 0.30303 0.24017 0.45082 0.0
C3346 C 0.30636 0.27121 0.43179 0.0
C3347 C 0.28901 0.27839 0.44008 0.0
C3348 C 0.27806 0.26559 0.45261 0.0
H3349 H 0.26124 0.403 0.46146 0.0
H3350 H 0.27365 0.36851 0.46128 0.0
C3351 C 0.28487 0.24663 0.45775 0.0
C3352 C 0.28246 0.29943 0.43665 0.0
H3353 H 0.29686 0.34932 0.44041 0.0
C3354 C 0.26268 0.30221 0.4319 0.0
C3355 C 0.29486 0.31671 0.44008 0.0
C3356 C 0.31583 0.31506 0.44686 0.0
C3357 C 0.25477 0.32159 0.43116 0.0
C3358 C 0.26729 0.3389 0.43402 0.0
C3359 C 0.28723 0.33614 0.43813 0.0
C3360 C 0.25992 0.35993 0.43386 0.0
C3361 C 0.23287 0.32305 0.42843 0.0
C3362 C 0.24828 0.36682 0.41845 0.0
C3363 C 0.24057 0.38619 0.41901 0.0
C3364 C 0.24513 0.39935 0.4345 0.0
C3365 C 0.25752 0.39298 0.44942 0.0
C3366 C 0.26465 0.37333 0.44924 0.0
H3367 H 0.22494 0.30884 0.43291 0.0
H3368 H 0.22694 0.33576 0.43697 0.0
H3369 H 0.22965 0.32553 0.41278 0.0
H3370 H 0.24507 0.35723 0.406 0.0
H3371 H 0.23131 0.39104 0.40717 0.0
H3372 H 0.18201 0.96401 0.43177 0.0
H3373 H 0.21601 0.96993 0.421 0.0
H3374 H 0.19509 0.99635 0.36763 0.0
H3375 H 0.16126 0.98917 0.37786 0.0
H3376 H 0.21936 0.96909 0.3595 0.0
H3377 H 0.25356 0.01693 0.4172 0.0
H3378 H 0.24283 0.99385 0.42673 0.0
H3379 H 0.22738 0.01232 0.41572 0.0
C3380 C 0.18479 0.97153 0.41798 0.0
C3381 C 0.16919 0.97621 0.4056 0.0
C3382 C 0.20419 0.97501 0.41186 0.0
C3383 C 0.20817 0.9838 0.39356 0.0
C3384 C 0.19243 0.98951 0.38177 0.0
H3385 H 0.32054 0.02246 0.34524 0.0
H3386 H 0.28925 0.01988 0.36266 0.0
C3387 C 0.17313 0.98549 0.38762 0.0
C3388 C 0.22843 0.98497 0.38558 0.0
H3389 H 0.27546 0.00169 0.39467 0.0
C3390 C 0.23157 0.97639 0.36717 0.0
C3391 C 0.24439 0.99453 0.39552 0.0
C3392 C 0.24185 0.00511 0.41479 0.0
C3393 C 0.25006 0.97724 0.35831 0.0
C3394 C 0.26619 0.98606 0.36854 0.0
C3395 C 0.26314 0.99465 0.38698 0.0
C3396 C 0.28611 0.98726 0.35987 0.0
C3397 C 0.25187 0.96928 0.33778 0.0
C3398 C 0.29506 0.96972 0.35309 0.0
C3399 C 0.31269 0.97121 0.34275 0.0
C3400 C 0.32196 0.99021 0.33956 0.0
C3401 C 0.31367 0.00761 0.34746 0.0
C3402 C 0.29582 0.00616 0.35745 0.0
H3403 H 0.23749 0.96878 0.33014 0.0
H3404 H 0.26235 0.97878 0.32907 0.0
H3405 H 0.25724 0.95359 0.33825 0.0
H3406 H 0.28815 0.95491 0.35533 0.0
H3407 H 0.31894 0.95752 0.33706 0.0
H3408 H 0.76451 0.26492 0.56032 0.0
H3409 H 0.75833 0.22986 0.57068 0.0
H3410 H 0.82047 0.22232 0.57815 0.0
H3411 H 0.82683 0.25732 0.56783 0.0
H3412 H 0.80144 0.1957 0.55062 0.0
H3413 H 0.76234 0.19602 0.62159 0.0
H3414 H 0.7532 0.21304 0.60351 0.0
H3415 H 0.77747 0.21724 0.61318 0.0
C3416 C 0.77682 0.25605 0.56485 0.0
C3417 C 0.79617 0.26385 0.56309 0.0
C3418 C 0.77325 0.236 0.57079 0.0
C3419 C 0.78896 0.22352 0.57515 0.0
C3420 C 0.80816 0.23175 0.57486 0.0
H3421 H 0.793 0.09088 0.57935 0.0
H3422 H 0.8022 0.12709 0.57959 0.0
C3423 C 0.81175 0.25179 0.56901 0.0
C3424 C 0.78559 0.20136 0.5771 0.0
H3425 H 0.76179 0.16483 0.6041 0.0
C3426 C 0.793 0.18888 0.56245 0.0
C3427 C 0.77439 0.19263 0.59241 0.0
C3428 C 0.76649 0.20537 0.60868 0.0
C3429 C 0.78901 0.1679 0.56237 0.0
C3430 C 0.77768 0.15913 0.57763 0.0
C3431 C 0.77052 0.17159 0.59246 0.0
C3432 C 0.77233 0.13719 0.57797 0.0
C3433 C 0.79626 0.15548 0.54552 0.0
C3434 C 0.7525 0.13089 0.57741 0.0
C3435 C 0.74722 0.11028 0.5774 0.0
C3436 C 0.76167 0.09555 0.57799 0.0
C3437 C 0.78154 0.10187 0.57871 0.0
C3438 C 0.78682 0.12254 0.57879 0.0
H3439 H 0.80045 0.16512 0.53282 0.0
H3440 H 0.80941 0.14725 0.55016 0.0
H3441 H 0.78488 0.14411 0.54079 0.0
H3442 H 0.74109 0.14194 0.57679 0.0
H3443 H 0.73177 0.10592 0.5769 0.0
H3444 H 0.82086 0.48985 0.65884 0.0
H3445 H 0.7883 0.49153 0.64389 0.0
H3446 H 0.78597 0.55475 0.65947 0.0
H3447 H 0.81841 0.55327 0.67421 0.0
H3448 H 0.75548 0.50167 0.66605 0.0
H3449 H 0.76577 0.55378 0.60329 0.0
H3450 H 0.7859 0.54099 0.61457 0.0
H3451 H 0.77648 0.56353 0.6254 0.0
C3452 C 0.81358 0.5042 0.65864 0.0
C3453 C 0.82203 0.52142 0.66774 0.0
C3454 C 0.79504 0.50512 0.65014 0.0
C3455 C 0.78493 0.5233 0.65046 0.0
C3456 C 0.79374 0.5407 0.65877 0.0
H3457 H 0.66666 0.56219 0.6416 0.0
H3458 H 0.70109 0.55689 0.65017 0.0
C3459 C 0.8122 0.53978 0.6673 0.0
C3460 C 0.7643 0.52368 0.6443 0.0
H3461 H 0.73281 0.549 0.6152 0.0
C3462 C 0.75051 0.51175 0.65472 0.0
C3463 C 0.758 0.53696 0.6296 0.0
C3464 C 0.77234 0.54941 0.61744 0.0
C3465 C 0.7304 0.51332 0.65125 0.0
C3466 C 0.72413 0.52711 0.63705 0.0
C3467 C 0.73787 0.53864 0.62626 0.0
C3468 C 0.70326 0.52958 0.63299 0.0
C3469 C 0.71588 0.50071 0.66303 0.0
C3470 C 0.69338 0.51581 0.6207 0.0
C3471 C 0.6739 0.51882 0.61573 0.0
C3472 C 0.66408 0.53561 0.62306 0.0
C3473 C 0.6739 0.5491 0.63582 0.0
C3474 C 0.69348 0.54615 0.64067 0.0
H3475 H 0.72314 0.49162 0.67441 0.0
H3476 H 0.70517 0.51069 0.67012 0.0
H3477 H 0.70751 0.49024 0.65321 0.0
H3478 H 0.70086 0.50299 0.61468 0.0
H3479 H 0.66663 0.50814 0.60594 0.0
H3480 H 0.2928 0.60259 0.92936 0.0
H3481 H 0.28196 0.63741 0.93223 0.0
H3482 H 0.22169 0.61567 0.93465 0.0
H3483 H 0.2324 0.58069 0.93162 0.0
H3484 H 0.22886 0.64979 0.90922 0.0
H3485 H 0.26039 0.66174 0.98311 0.0
H3486 H 0.27744 0.65287 0.96531 0.0
H3487 H 0.25687 0.63688 0.97248 0.0
C3488 C 0.27724 0.60519 0.93051 0.0
C3489 C 0.26345 0.58889 0.93041 0.0
C3490 C 0.27108 0.62509 0.93219 0.0
C3491 C 0.25106 0.62905 0.93387 0.0
C3492 C 0.23722 0.61287 0.93342 0.0
H3493 H 0.18363 0.73418 0.95752 0.0
H3494 H 0.19444 0.70175 0.94496 0.0
C3495 C 0.24337 0.59293 0.93175 0.0
C3496 C 0.24462 0.65009 0.93641 0.0
H3497 H 0.24774 0.69041 0.96745 0.0
C3498 C 0.23295 0.65871 0.92194 0.0
C3499 C 0.24997 0.66161 0.95305 0.0
C3500 C 0.26171 0.6528 0.96948 0.0
C3501 C 0.2267 0.67873 0.92356 0.0
C3502 C 0.23213 0.69024 0.94016 0.0
C3503 C 0.24381 0.6816 0.95461 0.0
C3504 C 0.22516 0.71096 0.94358 0.0
C3505 C 0.21454 0.68749 0.90745 0.0
C3506 C 0.23877 0.72706 0.94644 0.0
C3507 C 0.23265 0.74561 0.95365 0.0
C3508 C 0.21281 0.74828 0.9583 0.0
C3509 C 0.199 0.73263 0.95401 0.0
C3510 C 0.20515 0.71408 0.94678 0.0
H3511 H 0.21594 0.67881 0.89368 0.0
H3512 H 0.19886 0.68688 0.91183 0.0
H3513 H 0.21891 0.70359 0.90471 0.0
H3514 H 0.25429 0.72491 0.94408 0.0
H3515 H 0.24365 0.75736 0.95679 0.0
H3516 H 0.17994 0.84546 0.98216 0.0
H3517 H 0.17722 0.88134 0.98985 0.0
H3518 H 0.22893 0.87889 0.02596 0.0
H3519 H 0.23109 0.84258 0.01905 0.0
H3520 H 0.20205 0.89894 0.04377 0.0
H3521 H 0.2073 0.92867 0.96853 0.0
H3522 H 0.18727 0.91066 0.97127 0.0
H3523 H 0.21212 0.90267 0.97437 0.0
C3524 C 0.19085 0.85261 0.99158 0.0
C3525 C 0.20585 0.84129 -0.00012 0.0
C3526 C 0.18935 0.87319 0.99588 0.0
C3527 C 0.20313 0.883 0.00811 0.0
C3528 C 0.21818 0.87169 0.01637 0.0
H3529 H 0.22886 0.00942 0.02138 0.0
H3530 H 0.2238 0.97491 0.00982 0.0
C3531 C 0.21945 0.85098 0.01239 0.0
C3532 C 0.20141 0.90484 0.01294 0.0
H3533 H 0.19756 0.95192 0.99289 0.0
C3534 C 0.20114 0.91053 0.03263 0.0
C3535 C 0.20034 0.92001 0.99841 0.0
C3536 C 0.20198 0.91523 0.97698 0.0
C3537 C 0.20009 0.93092 0.03823 0.0
C3538 C 0.19844 0.94605 0.02373 0.0
C3539 C 0.19846 0.94032 0.00402 0.0
C3540 C 0.19896 0.96802 0.0286 0.0
C3541 C 0.20159 0.93598 0.05963 0.0
C3542 C 0.18596 0.97616 0.04223 0.0
C3543 C 0.18905 0.99596 0.04919 0.0
C3544 C 0.20494 0.00801 0.04231 0.0
C3545 C 0.21655 0.00053 0.02714 0.0
C3546 C 0.2137 0.98071 0.02049 0.0
H3547 H 0.20857 0.92372 0.06802 0.0
H3548 H 0.21024 0.95026 0.062 0.0
H3549 H 0.18664 0.93789 0.06561 0.0
H3550 H 0.17405 0.96687 0.04821 0.0
H3551 H 0.17974 0.00138 0.06073 0.0
H3552 H 0.6951 0.8479 0.51599 0.0
H3553 H 0.69955 0.88362 0.52433 0.0
H3554 H 0.68194 0.90039 0.46633 0.0
H3555 H 0.67708 0.86439 0.4579 0.0
H3556 H 0.72497 0.91167 0.50675 0.0
H3557 H 0.64735 0.93502 0.50176 0.0
H3558 H 0.65398 0.90877 0.50299 0.0
H3559 H 0.6571 0.92267 0.48068 0.0
C3560 C 0.69208 0.85914 0.50499 0.0
C3561 C 0.68572 0.85335 0.48628 0.0
C3562 C 0.69464 0.87956 0.50979 0.0
C3563 C 0.69089 0.89463 0.49602 0.0
C3564 C 0.68459 0.88897 0.47727 0.0
H3565 H 0.73432 0.018 0.52032 0.0
H3566 H 0.7242 0.9875 0.50225 0.0
C3567 C 0.68195 0.86844 0.47244 0.0
C3568 C 0.69429 0.91617 0.50142 0.0
H3569 H 0.671 0.96028 0.51053 0.0
C3570 C 0.71322 0.92238 0.50738 0.0
C3571 C 0.67886 0.92998 0.50239 0.0
C3572 C 0.65812 0.92383 0.49677 0.0
C3573 C 0.71709 0.94189 0.51475 0.0
C3574 C 0.70167 0.9557 0.51577 0.0
C3575 C 0.68279 0.94967 0.50948 0.0
C3576 C 0.70477 0.97587 0.5248 0.0
C3577 C 0.73746 0.94728 0.52218 0.0
C3578 C 0.69634 0.97988 0.54297 0.0
C3579 C 0.70202 0.99733 0.55331 0.0
C3580 C 0.71624 0.01097 0.54561 0.0
C3581 C 0.72346 0.00768 0.52672 0.0
C3582 C 0.71775 0.99026 0.51639 0.0
H3583 H 0.74658 0.93371 0.52378 0.0
H3584 H 0.74493 0.9578 0.51177 0.0
H3585 H 0.73674 0.95504 0.5365 0.0
H3586 H 0.68623 0.96895 0.54965 0.0
H3587 H 0.69607 0.99954 0.56776 0.0
H3588 H 0.28818 0.50524 0.97993 0.0
H3589 H 0.29945 0.47439 0.99497 0.0
H3590 H 0.34854 0.47394 0.95526 0.0
H3591 H 0.33655 0.50438 0.93934 0.0
H3592 H 0.3312 0.4398 0.95395 0.0
H3593 H 0.33941 0.45656 0.03193 0.0
H3594 H 0.31549 0.46386 0.02448 0.0
H3595 H 0.33696 0.47644 0.01412 0.0
C3596 C 0.30168 0.49891 0.97472 0.0
C3597 C 0.31146 0.50717 0.9584 0.0
C3598 C 0.30826 0.4813 0.9835 0.0
C3599 C 0.32507 0.47189 0.97652 0.0
C3600 C 0.33557 0.48091 0.96098 0.0
H3601 H 0.34973 0.35204 0.02737 0.0
H3602 H 0.35295 0.3885 0.02011 0.0
C3603 C 0.32875 0.49832 0.9519 0.0
C3604 C 0.32967 0.45119 0.98336 0.0
H3605 H 0.32997 0.42121 0.02394 0.0
C3606 C 0.33141 0.4359 0.96929 0.0
C3607 C 0.33037 0.44591 0.00336 0.0
C3608 C 0.33069 0.46167 0.01927 0.0
C3609 C 0.33241 0.41548 0.9746 0.0
C3610 C 0.33081 0.41004 0.99448 0.0
C3611 C 0.3306 0.42534 0.00866 0.0
C3612 C 0.32807 0.38857 0.00051 0.0
C3613 C 0.33482 0.3999 0.95873 0.0
C3614 C 0.31254 0.37679 0.9926 0.0
C3615 C 0.31084 0.3561 0.9965 0.0
C3616 C 0.32432 0.34687 0.00883 0.0
C3617 C 0.33909 0.35886 0.01787 0.0
C3618 C 0.34099 0.37962 0.01367 0.0
H3619 H 0.34273 0.40656 0.94599 0.0
H3620 H 0.34299 0.38668 0.96401 0.0
H3621 H 0.32012 0.39449 0.95365 0.0
H3622 H 0.30199 0.38351 0.98293 0.0
H3623 H 0.29922 0.3472 0.98951 0.0
H3624 H 0.81886 0.50929 0.44535 0.0
H3625 H 0.82195 0.47607 0.46063 0.0
H3626 H 0.78893 0.49622 0.51016 0.0
H3627 H 0.78475 0.52899 0.49449 0.0
H3628 H 0.8343 0.459 0.49495 0.0
H3629 H 0.75298 0.45166 0.48889 0.0
H3630 H 0.76715 0.47143 0.47674 0.0
H3631 H 0.76199 0.4732 0.50235 0.0
C3632 C 0.81253 0.50679 0.45964 0.0
C3633 C 0.8008 0.52144 0.46831 0.0
C3634 C 0.81434 0.48777 0.46838 0.0
C3635 C 0.8049 0.4834 0.48613 0.0
C3636 C 0.79562 0.49901 0.49607 0.0
H3637 H 0.81085 0.36822 0.54825 0.0
H3638 H 0.81258 0.40411 0.53925 0.0
C3639 C 0.79344 0.51783 0.48717 0.0
C3640 C 0.80303 0.46218 0.49319 0.0
H3641 H 0.76916 0.42431 0.50315 0.0
C3642 C 0.82008 0.45143 0.49685 0.0
C3643 C 0.78442 0.4522 0.49525 0.0
C3644 C 0.76558 0.46259 0.49043 0.0
C3645 C 0.81903 0.43103 0.50273 0.0
C3646 C 0.80042 0.42124 0.50529 0.0
C3647 C 0.78338 0.43193 0.50143 0.0
C3648 C 0.79833 0.39971 0.51134 0.0
C3649 C 0.83785 0.41995 0.5056 0.0
C3650 C 0.78896 0.38545 0.49902 0.0
C3651 C 0.78779 0.36496 0.5042 0.0
C3652 C 0.79589 0.35837 0.52184 0.0
C3653 C 0.80456 0.3728 0.53451 0.0
C3654 C 0.80572 0.39329 0.52932 0.0
H3655 H 0.8505 0.42792 0.49841 0.0
H3656 H 0.84109 0.41899 0.5214 0.0
H3657 H 0.83652 0.40428 0.49975 0.0
H3658 H 0.78299 0.39012 0.48516 0.0
H3659 H 0.78095 0.35423 0.49416 0.0
H3660 H 0.44502 0.70307 0.81906 0.0
H3661 H 0.44765 0.7099 0.78405 0.0
H3662 H 0.38961 0.734 0.78426 0.0
H3663 H 0.38674 0.72718 0.81912 0.0
H3664 H 0.41807 0.70013 0.74963 0.0
H3665 H 0.43312 0.78118 0.76844 0.0
H3666 H 0.43742 0.76074 0.78527 0.0
H3667 H 0.41287 0.76857 0.78078 0.0
C3668 C 0.43257 0.70922 0.81154 0.0
C3669 C 0.41574 0.71477 0.82187 0.0
C3670 C 0.43416 0.71322 0.7916 0.0
C3671 C 0.41896 0.72278 0.78182 0.0
C3672 C 0.40155 0.72682 0.79172 0.0
H3673 H 0.39204 0.75053 0.66404 0.0
H3674 H 0.39238 0.74259 0.69875 0.0
C3675 C 0.39992 0.7228 0.8116 0.0
C3676 C 0.42172 0.73007 0.76171 0.0
H3677 H 0.42783 0.77349 0.73505 0.0
C3678 C 0.42036 0.71611 0.74639 0.0
C3679 C 0.42502 0.75092 0.7577 0.0
C3680 C 0.42736 0.76629 0.77387 0.0
C3681 C 0.42144 0.72262 0.72697 0.0
C3682 C 0.42368 0.7436 0.72292 0.0
C3683 C 0.42589 0.75746 0.73827 0.0
C3684 C 0.42296 0.7513 0.70277 0.0
C3685 C 0.42002 0.70703 0.71091 0.0
C3686 C 0.43976 0.75995 0.6939 0.0
C3687 C 0.43959 0.76468 0.67403 0.0
C3688 C 0.42258 0.76077 0.66289 0.0
C3689 C 0.40541 0.75353 0.67222 0.0
C3690 C 0.40559 0.74888 0.69201 0.0
H3691 H 0.42323 0.69161 0.71631 0.0
H3692 H 0.40491 0.70661 0.7049 0.0
H3693 H 0.43034 0.71099 0.69888 0.0
H3694 H 0.45325 0.76208 0.70211 0.0
H3695 H 0.45305 0.77019 0.6672 0.0
H3696 H 0.13165 0.19686 0.69502 0.0
H3697 H 0.13706 0.21024 0.72796 0.0
H3698 H 0.08516 0.24562 0.72268 0.0
H3699 H 0.07991 0.23273 0.68974 0.0
H3700 H 0.11614 0.26724 0.73867 0.0
H3701 H 0.1051 0.1928 0.77563 0.0
H3702 H 0.12403 0.19364 0.75742 0.0
H3703 H 0.0989 0.19666 0.75038 0.0
C3704 C 0.12145 0.20755 0.70088 0.0
C3705 C 0.1053 0.21368 0.68984 0.0
C3706 C 0.12449 0.21508 0.71972 0.0
C3707 C 0.11133 0.22866 0.72785 0.0
C3708 C 0.09546 0.2351 0.71669 0.0
H3709 H 0.08436 0.25952 0.84551 0.0
H3710 H 0.08653 0.24569 0.81262 0.0
C3711 C 0.09247 0.2277 0.69787 0.0
C3712 C 0.11379 0.23614 0.74806 0.0
H3713 H 0.11325 0.22093 0.79558 0.0
C3714 C 0.11564 0.25713 0.75114 0.0
C3715 C 0.11288 0.22288 0.76425 0.0
C3716 C 0.10995 0.20025 0.76186 0.0
C3717 C 0.1163 0.26529 0.76999 0.0
C3718 C 0.11555 0.25203 0.78619 0.0
C3719 C 0.114 0.23102 0.78311 0.0
C3720 C 0.11497 0.25971 0.80643 0.0
C3721 C 0.11698 0.28804 0.77239 0.0
C3722 C 0.13044 0.27185 0.81398 0.0
C3723 C 0.12917 0.27991 0.83276 0.0
C3724 C 0.11252 0.27574 0.84433 0.0
C3725 C 0.09737 0.26302 0.83695 0.0
C3726 C 0.09859 0.25509 0.81817 0.0
H3727 H 0.11284 0.29592 0.75877 0.0
H3728 H 0.10699 0.29274 0.78423 0.0
H3729 H 0.13213 0.29318 0.77629 0.0
H3730 H 0.14339 0.27525 0.8053 0.0
H3731 H 0.14113 0.28956 0.83811 0.0
H3732 H 0.39735 0.76548 0.07614 0.0
H3733 H 0.40293 0.75219 0.04336 0.0
H3734 H 0.34097 0.73819 0.03743 0.0
H3735 H 0.33538 0.75084 0.07035 0.0
H3736 H 0.36352 0.70838 0.02185 0.0
H3737 H 0.38841 0.78456 0.99567 0.0
H3738 H 0.40265 0.77519 0.01552 0.0
H3739 H 0.37723 0.78066 0.01922 0.0
C3740 C 0.38495 0.75944 0.06788 0.0
C3741 C 0.36591 0.75939 0.07568 0.0
C3742 C 0.38815 0.75191 0.04916 0.0
C3743 C 0.3723 0.74456 0.03785 0.0
C3744 C 0.35339 0.74384 0.0459 0.0
H3745 H 0.37123 0.74493 0.91334 0.0
H3746 H 0.36257 0.74741 0.94776 0.0
C3747 C 0.35021 0.75115 0.06468 0.0
C3748 C 0.37517 0.73873 0.01725 0.0
H3749 H 0.39039 0.75755 0.97339 0.0
C3750 C 0.36939 0.71909 0.0112 0.0
C3751 C 0.38256 0.75285 0.00339 0.0
C3752 C 0.3879 0.77454 0.00869 0.0
C3753 C 0.37082 0.7132 0.99159 0.0
C3754 C 0.37854 0.72725 0.97783 0.0
C3755 C 0.38444 0.7468 0.98396 0.0
C3756 C 0.38038 0.7225 0.95683 0.0
C3757 C 0.3636 0.69225 0.98571 0.0
C3758 C 0.39254 0.70705 0.95039 0.0
C3759 C 0.3971 0.7053 0.93059 0.0
C3760 C 0.38988 0.71928 0.91716 0.0
C3761 C 0.37686 0.73393 0.92347 0.0
C3762 C 0.372 0.7354 0.94311 0.0
H3763 H 0.35342 0.68546 0.99672 0.0
H3764 H 0.35598 0.69255 0.97142 0.0
H3765 H 0.37633 0.68227 0.98435 0.0
H3766 H 0.39953 0.69721 0.96074 0.0
H3767 H 0.40752 0.69416 0.92605 0.0
H3768 H 0.0805 0.25668 0.34892 0.0
H3769 H 0.07893 0.2539 0.31357 0.0
H3770 H 0.03768 0.30216 0.31168 0.0
H3771 H 0.03854 0.30441 0.34727 0.0
H3772 H 0.02478 0.27126 0.29088 0.0
H3773 H 0.10221 0.28722 0.27063 0.0
H3774 H 0.10008 0.26689 0.28787 0.0
H3775 H 0.09301 0.29198 0.29477 0.0
C3776 C 0.0714 0.26699 0.34096 0.0
C3777 C 0.05968 0.28081 0.35083 0.0
C3778 C 0.07059 0.26545 0.32071 0.0
C3779 C 0.05842 0.27803 0.30992 0.0
C3780 C 0.04721 0.29234 0.31972 0.0
H3781 H 0.06031 0.2862 0.18434 0.0
H3782 H 0.06422 0.29125 0.21926 0.0
C3783 C 0.04778 0.29367 0.34002 0.0
C3784 C 0.05621 0.27512 0.28861 0.0
H3785 H 0.08199 0.27103 0.24629 0.0
C3786 C 0.03727 0.27142 0.28109 0.0
C3787 C 0.07249 0.27549 0.27582 0.0
C3788 C 0.09305 0.28083 0.28267 0.0
C3789 C 0.03417 0.26786 0.26118 0.0
C3790 C 0.05055 0.26724 0.24855 0.0
C3791 C 0.06946 0.27118 0.25603 0.0
C3792 C 0.04838 0.26357 0.22734 0.0
C3793 C 0.01335 0.26532 0.25388 0.0
C3794 C 0.03843 0.24613 0.2202 0.0
C3795 C 0.03587 0.24336 0.20015 0.0
C3796 C 0.04365 0.25774 0.18696 0.0
C3797 C 0.0542 0.27479 0.19414 0.0
C3798 C 0.05645 0.27771 0.21412 0.0
H3799 H 0.00272 0.27207 0.26409 0.0
H3800 H 0.01161 0.27246 0.23937 0.0
H3801 H 0.00947 0.24892 0.25258 0.0
H3802 H 0.03257 0.23471 0.23012 0.0
H3803 H 0.0278 0.23001 0.19498 0.0
H3804 H 0.12158 0.23087 0.5955 0.0
H3805 H 0.11956 0.25044 0.56544 0.0
H3806 H 0.05687 0.2392 0.56392 0.0
H3807 H 0.05893 0.21891 0.59366 0.0
H3808 H 0.07222 0.23147 0.53027 0.0
H3809 H 0.10205 0.30636 0.55363 0.0
H3810 H 0.11879 0.28677 0.55922 0.0
H3811 H 0.09505 0.28671 0.57079 0.0
C3812 C 0.10734 0.23269 0.58883 0.0
C3813 C 0.09041 0.22334 0.59687 0.0
C3814 C 0.10618 0.24411 0.57177 0.0
C3815 C 0.088 0.24674 0.56266 0.0
C3816 C 0.07103 0.23755 0.5708 0.0
H3817 H 0.06397 0.30874 0.45337 0.0
H3818 H 0.06824 0.30437 0.48861 0.0
C3819 C 0.07223 0.22589 0.58773 0.0
C3820 C 0.08703 0.25725 0.5436 0.0
H3821 H 0.10246 0.29986 0.51886 0.0
C3822 C 0.07856 0.24655 0.52792 0.0
C3823 C 0.09511 0.27705 0.5405 0.0
C3824 C 0.10306 0.28996 0.557 0.0
C3825 C 0.0787 0.25468 0.50911 0.0
C3826 C 0.08802 0.27381 0.50577 0.0
C3827 C 0.09571 0.28501 0.52149 0.0
C3828 C 0.09024 0.28164 0.48573 0.0
C3829 C 0.06915 0.24255 0.49283 0.0
C3830 C 0.10219 0.27133 0.47267 0.0
C3831 C 0.09958 0.2736 0.45268 0.0
C3832 C 0.08533 0.28654 0.44556 0.0
C3833 C 0.07528 0.29893 0.45859 0.0
C3834 C 0.07762 0.29636 0.47869 0.0
H3835 H 0.05883 0.23057 0.49846 0.0
H3836 H 0.06101 0.25253 0.48286 0.0
H3837 H 0.08067 0.23508 0.48424 0.0
H3838 H 0.11203 0.25995 0.47791 0.0
H3839 H 0.10731 0.26377 0.44285 0.0
H3840 H 0.56312 0.22266 0.66788 0.0
H3841 H 0.5662 0.22739 0.70322 0.0
H3842 H 0.60784 0.27705 0.69379 0.0
H3843 H 0.60563 0.27173 0.65883 0.0
H3844 H 0.61943 0.25566 0.72267 0.0
H3845 H 0.54066 0.27071 0.73358 0.0
H3846 H 0.54442 0.24606 0.72353 0.0
H3847 H 0.55133 0.26837 0.70971 0.0
C3848 C 0.57306 0.23442 0.67343 0.0
C3849 C 0.58408 0.24686 0.66063 0.0
C3850 C 0.57466 0.23726 0.69358 0.0
C3851 C 0.58687 0.25293 0.70115 0.0
C3852 C 0.59826 0.26492 0.68833 0.0
H3853 H 0.57329 0.29851 0.81943 0.0
H3854 H 0.57523 0.29614 0.78385 0.0
C3855 C 0.59698 0.26184 0.66831 0.0
C3856 C 0.58787 0.25712 0.72235 0.0
H3857 H 0.55996 0.26739 0.76217 0.0
C3858 C 0.60641 0.25834 0.73128 0.0
C3859 C 0.57096 0.26111 0.73351 0.0
C3860 C 0.55075 0.26172 0.72456 0.0
C3861 C 0.6085 0.26317 0.75107 0.0
C3862 C 0.5915 0.26603 0.76245 0.0
C3863 C 0.57299 0.2651 0.75348 0.0
C3864 C 0.59243 0.26907 0.78383 0.0
C3865 C 0.62894 0.26555 0.75939 0.0
C3866 C 0.60173 0.25491 0.79561 0.0
C3867 C 0.60101 0.25651 0.81582 0.0
C3868 C 0.59051 0.272 0.82471 0.0
C3869 C 0.58156 0.28648 0.81297 0.0
C3870 C 0.58259 0.28507 0.79267 0.0
H3871 H 0.6397 0.27033 0.74799 0.0
H3872 H 0.62961 0.27686 0.77136 0.0
H3873 H 0.63354 0.25073 0.76518 0.0
H3874 H 0.60889 0.24209 0.78921 0.0
H3875 H 0.60784 0.24494 0.82446 0.0
H3876 H 0.38324 0.73503 0.56591 0.0
H3877 H 0.37133 0.7396 0.53293 0.0
H3878 H 0.38672 0.80346 0.53591 0.0
H3879 H 0.39927 0.79881 0.56917 0.0
H3880 H 0.34427 0.76291 0.51481 0.0
H3881 H 0.42055 0.78364 0.4911 0.0
H3882 H 0.41533 0.77406 0.51519 0.0
H3883 H 0.40933 0.79954 0.5089 0.0
C3884 C 0.3838 0.75014 0.55971 0.0
C3885 C 0.39243 0.76651 0.56994 0.0
C3886 C 0.3769 0.75275 0.54087 0.0
C3887 C 0.37847 0.77178 0.53185 0.0
C3888 C 0.38572 0.78857 0.54253 0.0
H3889 H 0.33819 0.75418 0.41081 0.0
H3890 H 0.34199 0.77181 0.44202 0.0
C3891 C 0.3927 0.78594 0.56154 0.0
C3892 C 0.3743 0.77293 0.51075 0.0
H3893 H 0.39796 0.77432 0.46695 0.0
C3894 C 0.35583 0.76587 0.50423 0.0
C3895 C 0.38953 0.77669 0.49708 0.0
C3896 C 0.40985 0.7838 0.5033 0.0
C3897 C 0.35262 0.7607 0.48465 0.0
C3898 C 0.36817 0.76344 0.47113 0.0
C3899 C 0.38613 0.77217 0.47739 0.0
C3900 C 0.36703 0.75483 0.45122 0.0
C3901 C 0.33316 0.75077 0.47906 0.0
C3902 C 0.38048 0.74021 0.44559 0.0
C3903 C 0.37863 0.7305 0.4276 0.0
C3904 C 0.36314 0.73505 0.41507 0.0
C3905 C 0.35009 0.75017 0.42039 0.0
C3906 C 0.35218 0.76019 0.43822 0.0
H3907 H 0.32439 0.74599 0.492 0.0
H3908 H 0.32444 0.76169 0.47067 0.0
H3909 H 0.33535 0.73724 0.46979 0.0
H3910 H 0.39208 0.73586 0.45538 0.0
H3911 H 0.38892 0.71895 0.42383 0.0
H3912 H 0.42387 0.48207 0.17247 0.0
H3913 H 0.45916 0.48782 0.17684 0.0
H3914 H 0.45242 0.48064 0.23893 0.0
H3915 H 0.41695 0.47467 0.23463 0.0
H3916 H 0.47105 0.51871 0.22542 0.0
H3917 H 0.50476 0.45091 0.19348 0.0
H3918 H 0.4856 0.46116 0.17885 0.0
H3919 H 0.4798 0.45068 0.2024 0.0
C3920 C 0.42998 0.48111 0.187 0.0
C3921 C 0.41772 0.4779 0.20321 0.0
C3922 C 0.45012 0.48438 0.18947 0.0
C3923 C 0.45833 0.48459 0.20819 0.0
C3924 C 0.4463 0.48042 0.22437 0.0
H3925 H 0.57868 0.52786 0.23446 0.0
H3926 H 0.5437 0.51937 0.23885 0.0
C3927 C 0.42611 0.47687 0.22187 0.0
C3928 C 0.47903 0.49134 0.21072 0.0
H3929 H 0.52532 0.48083 0.196 0.0
C3930 C 0.48304 0.51032 0.21933 0.0
C3931 C 0.49449 0.48032 0.20272 0.0
C3932 C 0.49103 0.45954 0.19399 0.0
C3933 C 0.50206 0.51913 0.21912 0.0
C3934 C 0.51737 0.50848 0.21028 0.0
C3935 C 0.51347 0.48907 0.20254 0.0
C3936 C 0.53743 0.51734 0.20799 0.0
C3937 C 0.50547 0.5401 0.22743 0.0
C3938 C 0.54531 0.51962 0.18922 0.0
C3939 C 0.56522 0.52431 0.1867 0.0
C3940 C 0.57758 0.52688 0.20292 0.0
C3941 C 0.56941 0.52622 0.22171 0.0
C3942 C 0.54945 0.52131 0.22424 0.0
H3943 H 0.49147 0.54779 0.23024 0.0
H3944 H 0.51349 0.53899 0.24143 0.0
H3945 H 0.51459 0.54963 0.21739 0.0
H3946 H 0.53624 0.5167 0.17651 0.0
H3947 H 0.57115 0.52473 0.17206 0.0
H3948 H 0.42455 0.02411 0.81875 0.0
H3949 H 0.45464 0.00656 0.82608 0.0
H3950 H 0.46298 0.04287 0.87783 0.0
H3951 H 0.43286 0.06074 0.87049 0.0
H3952 H 0.49607 0.04178 0.85441 0.0
H3953 H 0.46596 0.96421 0.86764 0.0
H3954 H 0.45717 0.97457 0.84524 0.0
H3955 H 0.45087 0.98623 0.868 0.0
C3956 C 0.43265 0.02823 0.83182 0.0
C3957 C 0.42635 0.04377 0.84407 0.0
C3958 C 0.44976 0.01808 0.83605 0.0
C3959 C 0.46081 0.02319 0.85267 0.0
C3960 C 0.45451 0.0386 0.86504 0.0
H3961 H 0.56338 0.9485 0.87186 0.0
H3962 H 0.53433 0.96799 0.87946 0.0
C3963 C 0.43733 0.04876 0.86082 0.0
C3964 C 0.47968 0.01338 0.85613 0.0
H3965 H 0.50013 0.96695 0.85837 0.0
C3966 C 0.49699 0.02545 0.85567 0.0
C3967 C 0.48081 0.99213 0.85813 0.0
C3968 C 0.46269 0.97856 0.86 0.0
C3969 C 0.51545 0.01667 0.85579 0.0
C3970 C 0.51652 0.99531 0.85606 0.0
C3971 C 0.49926 0.98333 0.85791 0.0
C3972 C 0.53514 0.98502 0.85253 0.0
C3973 C 0.53361 0.03032 0.85513 0.0
C3974 C 0.54514 0.98817 0.83488 0.0
C3975 C 0.56166 0.9771 0.83051 0.0
C3976 C 0.56838 0.96256 0.84364 0.0
C3977 C 0.55856 0.95965 0.86147 0.0
C3978 C 0.54199 0.97075 0.86584 0.0
H3979 H 0.53079 0.04542 0.86153 0.0
H3980 H 0.54599 0.02352 0.86306 0.0
H3981 H 0.53806 0.03268 0.83973 0.0
H3982 H 0.5398 0.99875 0.8242 0.0
H3983 H 0.56887 0.97962 0.81662 0.0
H3984 H 0.0796 0.5252 0.06081 0.0
H3985 H 0.04376 0.5219 0.05903 0.0
H3986 H 0.04252 0.49163 0.11469 0.0
H3987 H 0.07832 0.49481 0.11659 0.0
H3988 H 0.01723 0.47367 0.08599 0.0
H3989 H 0.00754 0.55665 0.09344 0.0
H3990 H 0.02427 0.54923 0.07468 0.0
H3991 H 0.03005 0.54453 0.09976 0.0
C3992 C 0.07172 0.51764 0.07257 0.0
C3993 C 0.08177 0.51042 0.08891 0.0
C3994 C 0.05125 0.5159 0.07159 0.0
C3995 C 0.04051 0.5069 0.08691 0.0
C3996 C 0.05055 0.49878 0.10278 0.0
H3997 H 0.91691 0.51173 0.1158 0.0
H3998 H 0.95267 0.51658 0.11455 0.0
C3999 C 0.07101 0.50056 0.10381 0.0
C4000 C 0.01878 0.50628 0.08662 0.0
H4001 H 0.97891 0.5364 0.08739 0.0
C4002 C 0.00883 0.48736 0.08623 0.0
C4003 C 0.00791 0.52419 0.08735 0.0
C4004 C 0.01791 0.54484 0.089 0.0
C4005 C 0.98825 0.48588 0.08624 0.0
C4006 C 0.97738 0.50381 0.08629 0.0
C4007 C 0.98731 0.52272 0.08703 0.0
C4008 C 0.95565 0.50307 0.08604 0.0
C4009 C 0.97828 0.46514 0.08661 0.0
C4010 C 0.94548 0.49466 0.07008 0.0
C4011 C 0.92509 0.49194 0.07072 0.0
C4012 C 0.91452 0.49762 0.08733 0.0
C4013 C 0.92463 0.5072 0.10281 0.0
C4014 C 0.94506 0.50992 0.10215 0.0
H4015 H 0.98848 0.45321 0.09116 0.0
H4016 H 0.96552 0.46486 0.09667 0.0
H4017 H 0.9728 0.46131 0.0718 0.0
H4018 H 0.95338 0.48964 0.05736 0.0
H4019 H 0.9177 0.48466 0.0585 0.0
H4020 H 0.0823 0.01298 0.86794 0.0
H4021 H 0.04952 0.00936 0.88227 0.0
H4022 H 0.03194 0.9692 0.83529 0.0
H4023 H 0.06497 0.97154 0.82199 0.0
H4024 H 0.01904 0.0226 0.86877 0.0
H4025 H 0.00283 0.94139 0.87668 0.0
H4026 H 0.02757 0.95094 0.87252 0.0
H4027 H 0.01141 0.94492 0.85228 0.0
C4028 C 0.07154 0.00287 0.86109 0.0
C4029 C 0.07607 0.99257 0.84385 0.0
C4030 C 0.05282 0.00083 0.86925 0.0
C4031 C 0.03818 0.98882 0.86005 0.0
C4032 C 0.04302 0.97798 0.84316 0.0
H4033 H 0.92715 0.01864 0.82823 0.0
H4034 H 0.96058 0.01935 0.84043 0.0
C4035 C 0.0619 0.97951 0.83537 0.0
C4036 C 0.01733 0.98994 0.86614 0.0
H4037 H 0.97468 0.96177 0.86591 0.0
C4038 C 0.00943 0.00919 0.86875 0.0
C4039 C 0.00465 0.97259 0.86699 0.0
C4040 C 0.0122 0.95134 0.86721 0.0
C4041 C 0.98912 0.01162 0.87 0.0
C4042 C 0.97636 0.9945 0.86754 0.0
C4043 C 0.98432 0.97509 0.86716 0.0
C4044 C 0.95528 0.9964 0.86262 0.0
C4045 C 0.98167 0.03261 0.87342 0.0
C4046 C 0.941 0.98313 0.87077 0.0
C4047 C 0.92199 0.9821 0.86314 0.0
C4048 C 0.91686 0.99461 0.84752 0.0
C4049 C 0.93068 0.00888 0.84032 0.0
C4050 C 0.94981 0.00948 0.84752 0.0
H4051 H 0.99147 0.04113 0.88367 0.0
H4052 H 0.98185 0.04112 0.85947 0.0
H4053 H 0.96655 0.03221 0.87943 0.0
H4054 H 0.94479 0.97289 0.88241 0.0
H4055 H 0.91152 0.97103 0.86901 0.0
H4056 H 0.12624 0.25659 0.93665 0.0
H4057 H 0.12295 0.241 0.96891 0.0
H4058 H 0.06994 0.27355 0.97874 0.0
H4059 H 0.07292 0.28888 0.94648 0.0
H4060 H 0.12339 0.26008 0.00365 0.0
H4061 H 0.05326 0.21686 0.99573 0.0
H4062 H 0.06696 0.22652 0.97501 0.0
H4063 H 0.05067 0.24263 0.98814 0.0
C4064 C 0.11378 0.26026 0.94563 0.0
C4065 C 0.09981 0.27392 0.93906 0.0
C4066 C 0.11191 0.2513 0.96401 0.0
C4067 C 0.09599 0.25577 0.97603 0.0
C4068 C 0.08203 0.26941 0.96946 0.0
H4069 H 0.07452 0.27965 0.08925 0.0
H4070 H 0.08864 0.2751 0.05709 0.0
C4071 C 0.08386 0.27832 0.9511 0.0
C4072 C 0.09472 0.24773 0.99613 0.0
H4073 H 0.06185 0.22755 0.02873 0.0
C4074 C 0.11014 0.25247 0.00905 0.0
C4075 C 0.07768 0.23733 0.00311 0.0
C4076 C 0.06132 0.23034 0.98969 0.0
C4077 C 0.10814 0.24889 0.02908 0.0
C4078 C 0.09018 0.24068 0.03631 0.0
C4079 C 0.07555 0.23408 0.02319 0.0
C4080 C 0.08485 0.2424 0.0571 0.0
C4081 C 0.12489 0.25491 0.04244 0.0
C4082 C 0.07809 0.22548 0.06787 0.0
C4083 C 0.07001 0.22808 0.08645 0.0
C4084 C 0.06827 0.24766 0.09415 0.0
C4085 C 0.07576 0.2644 0.08364 0.0
C4086 C 0.08398 0.2618 0.06532 0.0
H4087 H 0.13923 0.25352 0.03495 0.0
H4088 H 0.12352 0.27101 0.04675 0.0
H4089 H 0.12483 0.24546 0.05582 0.0
H4090 H 0.07839 0.21042 0.06163 0.0
H4091 H 0.0641 0.21498 0.09423 0.0
H4092 H 0.89341 0.73297 0.44211 0.0
H4093 H 0.88725 0.73616 0.47698 0.0
H4094 H 0.93295 0.69418 0.48892 0.0
H4095 H 0.93863 0.69034 0.45383 0.0
H4096 H 0.89725 0.69762 0.51852 0.0
H4097 H 0.9394 0.7679 0.49808 0.0
H4098 H 0.91807 0.76229 0.48341 0.0
H4099 H 0.93838 0.74562 0.48284 0.0
C4100 C 0.90125 0.72344 0.45213 0.0
C4101 C 0.91649 0.71148 0.44544 0.0
C4102 C 0.89781 0.72535 0.47203 0.0
C4103 C 0.90989 0.71568 0.48543 0.0
C4104 C 0.92346 0.7017 0.47874 0.0
H4105 H 0.93845 0.77985 0.59305 0.0
H4106 H 0.941 0.75936 0.56351 0.0
C4107 C 0.92662 0.69944 0.45871 0.0
C4108 C 0.91139 0.72382 0.5054 0.0
H4109 H 0.9257 0.76683 0.52967 0.0
C4110 C 0.90361 0.71265 0.5211 0.0
C4111 C 0.92014 0.74323 0.50868 0.0
C4112 C 0.92965 0.75545 0.49242 0.0
C4113 C 0.90364 0.72086 0.54001 0.0
C4114 C 0.91126 0.74085 0.54304 0.0
C4115 C 0.91974 0.75158 0.52738 0.0
C4116 C 0.90994 0.75149 0.562 0.0
C4117 C 0.89561 0.70802 0.55652 0.0
C4118 C 0.89165 0.754 0.5709 0.0
C4119 C 0.89019 0.76557 0.58784 0.0
C4120 C 0.90696 0.77515 0.59598 0.0
C4121 C 0.92527 0.77271 0.58705 0.0
C4122 C 0.92675 0.76092 0.57024 0.0
H4123 H 0.8968 0.6916 0.55331 0.0
H4124 H 0.90341 0.71147 0.57038 0.0
H4125 H 0.87982 0.71108 0.55853 0.0
H4126 H 0.87839 0.74747 0.56448 0.0
H4127 H 0.87587 0.76729 0.59437 0.0
loop_
_geom_bond_atom_site_label_1
_geom_bond_atom_site_label_2
_geom_bond_distance
_geom_bond_site_symmetry_2
_ccdc_geom_bond_type
Co0 O1 2.216 . S
Co0 O2 2.091 . S
Co0 O4 2.004 . S
Co0 O10 2.021 . S
Co0 O12 2.137 . S
Co0 O13 2.244 . S
O1 Co0 2.216 . S
O1 C8 1.247 . S
O2 Co0 2.091 . S
O2 C8 1.261 . S
C3 O12 1.247 . S
C3 O13 1.272 . S
O4 Co0 2.004 . S
O4 C9 1.259 . S
Co5 O6 2.061 . S
Co5 O11 2.052 . S
Co5 O13 2.135 . S
O6 Co5 2.061 . S
O6 C9 1.235 . S
C7 O10 1.238 . S
C7 O11 1.241 . S
C8 O1 1.247 . S
C8 O2 1.261 . S
C9 O4 1.259 . S
C9 O6 1.235 . S
O10 Co0 2.021 . S
O10 C7 1.238 . S
O11 Co5 2.052 . S
O11 C7 1.241 . S
O12 Co0 2.137 . S
O12 C3 1.247 . S
O13 Co0 2.244 . S
O13 C3 1.272 . S
O13 Co5 2.135 . S
Co14 O15 2.216 . S
Co14 O16 2.091 . S
Co14 O18 2.004 . S
Co14 O24 2.021 . S
Co14 O26 2.137 . S
Co14 O27 2.244 . S
O15 Co14 2.216 . S
O15 C22 1.247 . S
O16 Co14 2.091 . S
O16 C22 1.261 . S
C17 O26 1.247 . S
C17 O27 1.272 . S
O18 Co14 2.004 . S
O18 C23 1.259 . S
Co19 O20 2.061 . S
Co19 O25 2.052 . S
Co19 O27 2.135 . S
O20 Co19 2.061 . S
O20 C23 1.235 . S
C21 O24 1.238 . S
C21 O25 1.241 . S
C22 O15 1.247 . S
C22 O16 1.261 . S
C23 O18 1.259 . S
C23 O20 1.235 . S
O24 Co14 2.021 . S
O24 C21 1.238 . S
O25 Co19 2.052 . S
O25 C21 1.241 . S
O26 Co14 2.137 . S
O26 C17 1.247 . S
O27 Co14 2.244 . S
O27 C17 1.272 . S
O27 Co19 2.135 . S
Co28 O29 2.216 1_565 S
Co28 O30 2.091 . S
Co28 O32 2.004 . S
Co28 O38 2.021 1_565 S
Co28 O40 2.137 . S
Co28 O41 2.244 1_565 S
O29 Co28 2.216 1_545 S
O29 C36 1.247 1_545 S
O30 Co28 2.091 . S
O30 C36 1.261 . S
C31 O40 1.247 1_545 S
C31 O41 1.272 . S
O32 Co28 2.004 . S
O32 C37 1.259 . S
Co33 O34 2.061 1_545 S
Co33 O39 2.052 . S
Co33 O41 2.135 . S
O34 Co33 2.061 1_565 S
O34 C37 1.235 . S
C35 O38 1.238 . S
C35 O39 1.241 . S
C36 O29 1.247 1_565 S
C36 O30 1.261 . S
C37 O32 1.259 . S
C37 O34 1.235 . S
O38 Co28 2.021 1_545 S
O38 C35 1.238 . S
O39 Co33 2.052 . S
O39 C35 1.241 . S
O40 Co28 2.137 . S
O40 C31 1.247 1_565 S
O41 Co28 2.244 1_545 S
O41 C31 1.272 . S
O41 Co33 2.135 . S
Co42 O43 2.216 . S
Co42 O44 2.091 . S
Co42 O46 2.004 . S
Co42 O52 2.021 1_554 S
Co42 O54 2.137 . S
Co42 O55 2.244 1_554 S
O43 Co42 2.216 . S
O43 C50 1.247 . S
O44 Co42 2.091 . S
O44 C50 1.261 . S
C45 O54 1.298 . S
C45 O55 1.228 1_554 S
O46 Co42 2.004 . S
O46 C51 1.259 1_554 S
Co47 O48 2.061 . S
Co47 O53 2.052 . S
Co47 O55 2.135 . S
O48 Co47 2.061 . S
O48 C51 1.235 . S
C49 O52 1.238 . S
C49 O53 1.241 . S
C50 O43 1.247 . S
C50 O44 1.261 . S
C51 O46 1.259 1_556 S
C51 O48 1.235 . S
O52 Co42 2.021 1_556 S
O52 C49 1.238 . S
O53 Co47 2.052 . S
O53 C49 1.241 . S
O54 Co42 2.137 . S
O54 C45 1.298 . S
O55 Co42 2.244 1_556 S
O55 C45 1.228 1_556 S
O55 Co47 2.135 . S
Co56 O57 2.216 . S
Co56 O58 2.091 . S
Co56 O60 2.004 . S
Co56 O66 2.021 . S
Co56 O68 2.137 . S
Co56 O69 2.244 . S
O57 Co56 2.216 . S
O57 C64 1.247 . S
O58 Co56 2.091 . S
O58 C64 1.261 . S
C59 O68 1.247 . S
C59 O69 1.272 . S
O60 Co56 2.004 . S
O60 C65 1.259 . S
Co61 O62 2.061 . S
Co61 O67 2.052 . S
Co61 O69 2.135 . S
O62 Co61 2.061 . S
O62 C65 1.235 . S
C63 O66 1.238 . S
C63 O67 1.241 . S
C64 O57 1.247 . S
C64 O58 1.261 . S
C65 O60 1.259 . S
C65 O62 1.235 . S
O66 Co56 2.021 . S
O66 C63 1.238 . S
O67 Co61 2.052 . S
O67 C63 1.241 . S
O68 Co56 2.137 . S
O68 C59 1.247 . S
O69 Co56 2.244 . S
O69 C59 1.272 . S
O69 Co61 2.135 . S
Co70 O71 2.216 . S
Co70 O72 2.091 . S
Co70 O74 2.004 . S
Co70 O80 2.021 1_556 S
Co70 O82 2.137 . S
Co70 O83 2.244 1_556 S
O71 Co70 2.216 . S
O71 C78 1.247 . S
O72 Co70 2.091 . S
O72 C78 1.261 . S
C73 O82 1.247 1_554 S
C73 O83 1.272 . S
O74 Co70 2.004 . S
O74 C79 1.259 1_556 S
Co75 O76 2.061 . S
Co75 O81 2.052 . S
Co75 O83 2.135 . S
O76 Co75 2.061 . S
O76 C79 1.235 . S
C77 O80 1.238 . S
C77 O81 1.241 . S
C78 O71 1.247 . S
C78 O72 1.261 . S
C79 O74 1.259 1_554 S
C79 O76 1.235 . S
O80 Co70 2.021 1_554 S
O80 C77 1.238 . S
O81 Co75 2.052 . S
O81 C77 1.241 . S
O82 Co70 2.137 . S
O82 C73 1.247 1_556 S
O83 Co70 2.244 1_554 S
O83 C73 1.272 . S
O83 Co75 2.135 . S
Co84 O85 2.216 . S
Co84 O86 2.091 . S
Co84 O88 2.004 . S
Co84 O94 2.021 . S
Co84 O96 2.137 . S
Co84 O97 2.244 . S
O85 Co84 2.216 . S
O85 C92 1.247 . S
O86 Co84 2.091 . S
O86 C92 1.261 . S
C87 O96 1.247 . S
C87 O97 1.272 . S
O88 Co84 2.004 . S
O88 C93 1.259 . S
Co89 O90 2.061 . S
Co89 O95 2.052 . S
Co89 O97 2.135 . S
O90 Co89 2.061 . S
O90 C93 1.235 . S
C91 O94 1.238 . S
C91 O95 1.241 . S
C92 O85 1.247 . S
C92 O86 1.261 . S
C93 O88 1.259 . S
C93 O90 1.235 . S
O94 Co84 2.021 . S
O94 C91 1.238 . S
O95 Co89 2.052 . S
O95 C91 1.241 . S
O96 Co84 2.137 . S
O96 C87 1.247 . S
O97 Co84 2.244 . S
O97 C87 1.272 . S
O97 Co89 2.135 . S
Co98 O99 2.216 . S
Co98 O100 2.091 . S
Co98 O102 2.004 1_565 S
Co98 O108 2.021 . S
Co98 O110 2.137 1_565 S
Co98 O111 2.244 1_565 S
O99 Co98 2.216 . S
O99 C106 1.247 . S
O100 Co98 2.091 . S
O100 C106 1.261 . S
C101 O110 1.247 . S
C101 O111 1.272 . S
O102 Co98 2.004 1_545 S
O102 C107 1.259 . S
Co103 O104 2.061 . S
Co103 O109 2.052 . S
Co103 O111 2.135 . S
O104 Co103 2.061 . S
O104 C107 1.235 . S
C105 O108 1.238 . S
C105 O109 1.241 1_565 S
C106 O99 1.247 . S
C106 O100 1.261 . S
C107 O102 1.259 . S
C107 O104 1.235 . S
O108 Co98 2.021 . S
O108 C105 1.238 . S
O109 Co103 2.052 . S
O109 C105 1.241 1_545 S
O110 Co98 2.137 1_545 S
O110 C101 1.247 . S
O111 Co98 2.244 1_545 S
O111 C101 1.272 . S
O111 Co103 2.135 . S
Co112 O113 2.216 . S
Co112 O114 2.091 . S
Co112 O116 2.004 . S
Co112 O122 2.021 . S
Co112 O124 2.137 . S
Co112 O125 2.244 . S
O113 Co112 2.216 . S
O113 C120 1.247 . S
O114 Co112 2.091 . S
O114 C120 1.261 . S
C115 O124 1.247 . S
C115 O125 1.272 . S
O116 Co112 2.004 . S
O116 C121 1.259 . S
Co117 O118 2.061 . S
Co117 O123 2.052 . S
Co117 O125 2.135 . S
O118 Co117 2.061 . S
O118 C121 1.235 . S
C119 O122 1.238 . S
C119 O123 1.241 . S
C120 O113 1.247 . S
C120 O114 1.261 . S
C121 O116 1.259 . S
C121 O118 1.235 . S
O122 Co112 2.021 . S
O122 C119 1.238 . S
O123 Co117 2.052 . S
O123 C119 1.241 . S
O124 Co112 2.137 . S
O124 C115 1.247 . S
O125 Co112 2.244 . S
O125 C115 1.272 . S
O125 Co117 2.135 . S
Co126 O127 2.216 . S
Co126 O128 2.091 . S
Co126 O130 2.004 . S
Co126 O136 2.021 . S
Co126 O138 2.137 . S
Co126 O139 2.244 . S
O127 Co126 2.216 . S
O127 C134 1.247 . S
O128 Co126 2.091 . S
O128 C134 1.261 . S
C129 O138 1.247 . S
C129 O139 1.272 . S
O130 Co126 2.004 . S
O130 C135 1.259 . S
Co131 O132 2.061 . S
Co131 O137 2.052 . S
Co131 O139 2.135 . S
O132 Co131 2.061 . S
O132 C135 1.235 . S
C133 O136 1.238 . S
C133 O137 1.241 . S
C134 O127 1.247 . S
C134 O128 1.261 . S
C135 O130 1.259 . S
C135 O132 1.235 . S
O136 Co126 2.021 . S
O136 C133 1.238 . S
O137 Co131 2.052 . S
O137 C133 1.241 . S
O138 Co126 2.137 . S
O138 C129 1.247 . S
O139 Co126 2.244 . S
O139 C129 1.272 . S
O139 Co131 2.135 . S
Co140 O141 2.216 . S
Co140 O142 2.091 . S
Co140 O144 2.004 . S
Co140 O150 2.021 . S
Co140 O152 2.137 . S
Co140 O153 2.244 . S
O141 Co140 2.216 . S
O141 C148 1.247 . S
O142 Co140 2.091 . S
O142 C148 1.261 . S
C143 O152 1.247 . S
C143 O153 1.272 . S
O144 Co140 2.004 . S
O144 C149 1.259 . S
Co145 O146 2.061 . S
Co145 O151 2.052 . S
Co145 O153 2.135 . S
O146 Co145 2.061 . S
O146 C149 1.235 . S
C147 O150 1.238 . S
C147 O151 1.241 . S
C148 O141 1.247 . S
C148 O142 1.261 . S
C149 O144 1.259 . S
C149 O146 1.235 . S
O150 Co140 2.021 . S
O150 C147 1.238 . S
O151 Co145 2.052 . S
O151 C147 1.241 . S
O152 Co140 2.137 . S
O152 C143 1.247 . S
O153 Co140 2.244 . S
O153 C143 1.272 . S
O153 Co145 2.135 . S
Co154 O155 2.216 1_545 S
Co154 O156 2.091 . S
Co154 O158 2.004 . S
Co154 O164 2.021 1_545 S
Co154 O166 2.137 . S
Co154 O167 2.244 1_545 S
O155 Co154 2.216 1_565 S
O155 C162 1.247 . S
O156 Co154 2.091 . S
O156 C162 1.261 1_545 S
C157 O166 1.247 1_565 S
C157 O167 1.272 . S
O158 Co154 2.004 . S
O158 C163 1.259 . S
Co159 O160 2.061 1_565 S
Co159 O165 2.052 . S
Co159 O167 2.135 . S
O160 Co159 2.061 1_545 S
O160 C163 1.235 . S
C161 O164 1.238 . S
C161 O165 1.241 . S
C162 O155 1.247 . S
C162 O156 1.261 1_565 S
C163 O158 1.259 . S
C163 O160 1.235 . S
O164 Co154 2.021 1_565 S
O164 C161 1.238 . S
O165 Co159 2.052 . S
O165 C161 1.241 . S
O166 Co154 2.137 . S
O166 C157 1.247 1_545 S
O167 Co154 2.244 1_565 S
O167 C157 1.272 . S
O167 Co159 2.135 . S
Co168 O169 2.216 . S
Co168 O170 2.091 . S
Co168 O172 2.004 . S
Co168 O178 2.021 . S
Co168 O180 2.137 . S
Co168 O181 2.244 . S
O169 Co168 2.216 . S
O169 C176 1.247 . S
O170 Co168 2.091 . S
O170 C176 1.261 . S
C171 O180 1.247 . S
C171 O181 1.272 . S
O172 Co168 2.004 . S
O172 C177 1.259 . S
Co173 O174 2.061 . S
Co173 O179 2.052 . S
Co173 O181 2.135 . S
O174 Co173 2.061 . S
O174 C177 1.235 . S
C175 O178 1.238 . S
C175 O179 1.241 . S
C176 O169 1.247 . S
C176 O170 1.261 . S
C177 O172 1.259 . S
C177 O174 1.235 . S
O178 Co168 2.021 . S
O178 C175 1.238 . S
O179 Co173 2.052 . S
O179 C175 1.241 . S
O180 Co168 2.137 . S
O180 C171 1.247 . S
O181 Co168 2.244 . S
O181 C171 1.272 . S
O181 Co173 2.135 . S
Co182 O183 2.216 . S
Co182 O184 2.091 . S
Co182 O186 2.004 1_655 S
Co182 O192 2.021 1_655 S
Co182 O194 2.137 . S
Co182 O195 2.244 . S
O183 Co182 2.216 . S
O183 C190 1.247 . S
O184 Co182 2.091 . S
O184 C190 1.261 . S
C185 O194 1.247 . S
C185 O195 1.272 . S
O186 Co182 2.004 1_455 S
O186 C191 1.259 . S
Co187 O188 2.061 . S
Co187 O193 2.052 . S
Co187 O195 2.135 1_455 S
O188 Co187 2.061 . S
O188 C191 1.235 . S
C189 O192 1.238 . S
C189 O193 1.241 . S
C190 O183 1.247 . S
C190 O184 1.261 . S
C191 O186 1.259 . S
C191 O188 1.235 . S
O192 Co182 2.021 1_455 S
O192 C189 1.238 . S
O193 Co187 2.052 . S
O193 C189 1.241 . S
O194 Co182 2.137 . S
O194 C185 1.247 . S
O195 Co182 2.244 . S
O195 C185 1.272 . S
O195 Co187 2.135 1_655 S
Co196 O197 2.216 . S
Co196 O198 2.091 . S
Co196 O200 2.004 . S
Co196 O206 2.021 . S
Co196 O208 2.137 . S
Co196 O209 2.244 . S
O197 Co196 2.216 . S
O197 C204 1.247 . S
O198 Co196 2.091 . S
O198 C204 1.261 . S
C199 O208 1.247 . S
C199 O209 1.272 . S
O200 Co196 2.004 . S
O200 C205 1.259 . S
Co201 O202 2.061 . S
Co201 O207 2.052 . S
Co201 O209 2.135 . S
O202 Co201 2.061 . S
O202 C205 1.235 . S
C203 O206 1.238 . S
C203 O207 1.241 . S
C204 O197 1.247 . S
C204 O198 1.261 . S
C205 O200 1.259 . S
C205 O202 1.235 . S
O206 Co196 2.021 . S
O206 C203 1.238 . S
O207 Co201 2.052 . S
O207 C203 1.241 . S
O208 Co196 2.137 . S
O208 C199 1.247 . S
O209 Co196 2.244 . S
O209 C199 1.272 . S
O209 Co201 2.135 . S
Co210 O211 2.216 . S
Co210 O212 2.091 . S
Co210 O214 2.004 . S
Co210 O220 2.021 . S
Co210 O222 2.137 . S
Co210 O223 2.244 . S
O211 Co210 2.216 . S
O211 C218 1.247 . S
O212 Co210 2.091 . S
O212 C218 1.261 . S
C213 O222 1.247 . S
C213 O223 1.272 . S
O214 Co210 2.004 . S
O214 C219 1.259 . S
Co215 O216 2.061 . S
Co215 O221 2.052 . S
Co215 O223 2.135 . S
O216 Co215 2.061 . S
O216 C219 1.235 . S
C217 O220 1.238 . S
C217 O221 1.241 . S
C218 O211 1.247 . S
C218 O212 1.261 . S
C219 O214 1.259 . S
C219 O216 1.235 . S
O220 Co210 2.021 . S
O220 C217 1.238 . S
O221 Co215 2.052 . S
O221 C217 1.241 . S
O222 Co210 2.137 . S
O222 C213 1.247 . S
O223 Co210 2.244 . S
O223 C213 1.272 . S
O223 Co215 2.135 . S
Co224 O225 2.216 . S
Co224 O226 2.091 . S
Co224 O228 2.004 1_655 S
Co224 O234 2.021 1_655 S
Co224 O236 2.137 . S
Co224 O237 2.244 . S
O225 Co224 2.216 . S
O225 C232 1.247 . S
O226 Co224 2.091 . S
O226 C232 1.261 . S
C227 O236 1.247 . S
C227 O237 1.272 . S
O228 Co224 2.004 1_455 S
O228 C233 1.259 . S
Co229 O230 2.061 . S
Co229 O235 2.052 . S
Co229 O237 2.135 1_455 S
O230 Co229 2.061 . S
O230 C233 1.235 . S
C231 O234 1.238 . S
C231 O235 1.241 . S
C232 O225 1.247 . S
C232 O226 1.261 . S
C233 O228 1.259 . S
C233 O230 1.235 . S
O234 Co224 2.021 1_455 S
O234 C231 1.238 . S
O235 Co229 2.052 . S
O235 C231 1.241 . S
O236 Co224 2.137 . S
O236 C227 1.247 . S
O237 Co224 2.244 . S
O237 C227 1.272 . S
O237 Co229 2.135 1_655 S
Co238 O239 2.216 . S
Co238 O240 2.091 . S
Co238 O242 2.004 . S
Co238 O248 2.021 . S
Co238 O250 2.137 . S
Co238 O251 2.244 . S
O239 Co238 2.216 . S
O239 C246 1.247 . S
O240 Co238 2.091 . S
O240 C246 1.261 . S
C241 O250 1.247 . S
C241 O251 1.272 . S
O242 Co238 2.004 . S
O242 C247 1.259 . S
Co243 O244 2.061 . S
Co243 O249 2.052 . S
Co243 O251 2.135 . S
O244 Co243 2.061 . S
O244 C247 1.235 . S
C245 O248 1.238 . S
C245 O249 1.241 . S
C246 O239 1.247 . S
C246 O240 1.261 . S
C247 O242 1.259 . S
C247 O244 1.235 . S
O248 Co238 2.021 . S
O248 C245 1.238 . S
O249 Co243 2.052 . S
O249 C245 1.241 . S
O250 Co238 2.137 . S
O250 C241 1.247 . S
O251 Co238 2.244 . S
O251 C241 1.272 . S
O251 Co243 2.135 . S
Co252 O253 2.216 . S
Co252 O254 2.091 . S
Co252 O256 2.004 . S
Co252 O262 2.021 . S
Co252 O264 2.137 . S
Co252 O265 2.244 . S
O253 Co252 2.216 . S
O253 C260 1.247 . S
O254 Co252 2.091 . S
O254 C260 1.261 . S
C255 O264 1.247 . S
C255 O265 1.272 . S
O256 Co252 2.004 . S
O256 C261 1.259 . S
Co257 O258 2.061 . S
Co257 O263 2.052 . S
Co257 O265 2.135 . S
O258 Co257 2.061 . S
O258 C261 1.235 . S
C259 O262 1.238 . S
C259 O263 1.241 . S
C260 O253 1.247 . S
C260 O254 1.261 . S
C261 O256 1.259 . S
C261 O258 1.235 . S
O262 Co252 2.021 . S
O262 C259 1.238 . S
O263 Co257 2.052 . S
O263 C259 1.241 . S
O264 Co252 2.137 . S
O264 C255 1.247 . S
O265 Co252 2.244 . S
O265 C255 1.272 . S
O265 Co257 2.135 . S
Co266 O267 2.216 . S
Co266 O268 2.091 . S
Co266 O270 2.004 . S
Co266 O276 2.021 . S
Co266 O278 2.137 . S
Co266 O279 2.244 . S
O267 Co266 2.216 . S
O267 C274 1.247 . S
O268 Co266 2.091 . S
O268 C274 1.261 . S
C269 O278 1.247 . S
C269 O279 1.272 . S
O270 Co266 2.004 . S
O270 C275 1.259 . S
Co271 O272 2.061 . S
Co271 O277 2.052 . S
Co271 O279 2.135 . S
O272 Co271 2.061 . S
O272 C275 1.235 . S
C273 O276 1.238 . S
C273 O277 1.241 . S
C274 O267 1.247 . S
C274 O268 1.261 . S
C275 O270 1.259 . S
C275 O272 1.235 . S
O276 Co266 2.021 . S
O276 C273 1.238 . S
O277 Co271 2.052 . S
O277 C273 1.241 . S
O278 Co266 2.137 . S
O278 C269 1.247 . S
O279 Co266 2.244 . S
O279 C269 1.272 . S
O279 Co271 2.135 . S
Co280 O281 2.216 1_545 S
Co280 O282 2.091 . S
Co280 O284 2.004 . S
Co280 O290 2.021 1_545 S
Co280 O292 2.137 . S
Co280 O293 2.244 1_545 S
O281 Co280 2.216 1_565 S
O281 C288 1.247 1_565 S
O282 Co280 2.091 . S
O282 C288 1.261 . S
C283 O292 1.247 1_565 S
C283 O293 1.272 . S
O284 Co280 2.004 . S
O284 C289 1.259 . S
Co285 O286 2.061 1_565 S
Co285 O291 2.052 . S
Co285 O293 2.135 . S
O286 Co285 2.061 1_545 S
O286 C289 1.235 . S
C287 O290 1.238 . S
C287 O291 1.241 . S
C288 O281 1.247 1_545 S
C288 O282 1.261 . S
C289 O284 1.259 . S
C289 O286 1.235 . S
O290 Co280 2.021 1_565 S
O290 C287 1.238 . S
O291 Co285 2.052 . S
O291 C287 1.241 . S
O292 Co280 2.137 . S
O292 C283 1.247 1_545 S
O293 Co280 2.244 1_565 S
O293 C283 1.272 . S
O293 Co285 2.135 . S
Co294 O295 2.216 . S
Co294 O296 2.091 . S
Co294 O298 2.004 . S
Co294 O304 2.021 1_554 S
Co294 O306 2.137 . S
Co294 O307 2.244 1_554 S
O295 Co294 2.216 . S
O295 C302 1.247 . S
O296 Co294 2.091 . S
O296 C302 1.261 . S
C297 O306 1.298 . S
C297 O307 1.228 1_554 S
O298 Co294 2.004 . S
O298 C303 1.259 1_554 S
Co299 O300 2.061 . S
Co299 O305 2.052 . S
Co299 O307 2.135 . S
O300 Co299 2.061 . S
O300 C303 1.235 . S
C301 O304 1.238 . S
C301 O305 1.241 . S
C302 O295 1.247 . S
C302 O296 1.261 . S
C303 O298 1.259 1_556 S
C303 O300 1.235 . S
O304 Co294 2.021 1_556 S
O304 C301 1.238 . S
O305 Co299 2.052 . S
O305 C301 1.241 . S
O306 Co294 2.137 . S
O306 C297 1.298 . S
O307 Co294 2.244 1_556 S
O307 C297 1.228 1_556 S
O307 Co299 2.135 . S
Co308 O309 2.216 . S
Co308 O310 2.091 . S
Co308 O312 2.004 . S
Co308 O318 2.021 . S
Co308 O320 2.137 . S
Co308 O321 2.244 . S
O309 Co308 2.216 . S
O309 C316 1.247 . S
O310 Co308 2.091 . S
O310 C316 1.261 . S
C311 O320 1.247 . S
C311 O321 1.272 . S
O312 Co308 2.004 . S
O312 C317 1.259 . S
Co313 O314 2.061 . S
Co313 O319 2.052 . S
Co313 O321 2.135 . S
O314 Co313 2.061 . S
O314 C317 1.235 . S
C315 O318 1.238 . S
C315 O319 1.241 . S
C316 O309 1.247 . S
C316 O310 1.261 . S
C317 O312 1.259 . S
C317 O314 1.235 . S
O318 Co308 2.021 . S
O318 C315 1.238 . S
O319 Co313 2.052 . S
O319 C315 1.241 . S
O320 Co308 2.137 . S
O320 C311 1.247 . S
O321 Co308 2.244 . S
O321 C311 1.272 . S
O321 Co313 2.135 . S
Co322 O323 2.216 . S
Co322 O324 2.091 . S
Co322 O326 2.004 . S
Co322 O332 2.021 . S
Co322 O334 2.137 . S
Co322 O335 2.244 . S
O323 Co322 2.216 . S
O323 C330 1.247 . S
O324 Co322 2.091 . S
O324 C330 1.261 . S
C325 O334 1.247 . S
C325 O335 1.272 . S
O326 Co322 2.004 . S
O326 C331 1.259 . S
Co327 O328 2.061 . S
Co327 O333 2.052 . S
Co327 O335 2.135 . S
O328 Co327 2.061 . S
O328 C331 1.235 . S
C329 O332 1.238 . S
C329 O333 1.241 . S
C330 O323 1.247 . S
C330 O324 1.261 . S
C331 O326 1.259 . S
C331 O328 1.235 . S
O332 Co322 2.021 . S
O332 C329 1.238 . S
O333 Co327 2.052 . S
O333 C329 1.241 . S
O334 Co322 2.137 . S
O334 C325 1.247 . S
O335 Co322 2.244 . S
O335 C325 1.272 . S
O335 Co327 2.135 . S
Co336 O337 2.216 . S
Co336 O338 2.091 . S
Co336 O340 2.004 . S
Co336 O346 2.021 . S
Co336 O348 2.137 . S
Co336 O349 2.244 . S
O337 Co336 2.216 . S
O337 C344 1.247 . S
O338 Co336 2.091 . S
O338 C344 1.261 . S
C339 O348 1.247 . S
C339 O349 1.272 . S
O340 Co336 2.004 . S
O340 C345 1.259 . S
Co341 O342 2.061 . S
Co341 O347 2.052 . S
Co341 O349 2.135 . S
O342 Co341 2.061 . S
O342 C345 1.235 . S
C343 O346 1.238 . S
C343 O347 1.241 . S
C344 O337 1.247 . S
C344 O338 1.261 . S
C345 O340 1.259 . S
C345 O342 1.235 . S
O346 Co336 2.021 . S
O346 C343 1.238 . S
O347 Co341 2.052 . S
O347 C343 1.241 . S
O348 Co336 2.137 . S
O348 C339 1.247 . S
O349 Co336 2.244 . S
O349 C339 1.272 . S
O349 Co341 2.135 . S
Co350 O351 2.216 . S
Co350 O352 2.091 . S
Co350 O354 2.004 1_545 S
Co350 O360 2.021 . S
Co350 O362 2.137 1_545 S
Co350 O363 2.244 1_545 S
O351 Co350 2.216 . S
O351 C358 1.247 . S
O352 Co350 2.091 . S
O352 C358 1.261 . S
C353 O362 1.247 . S
C353 O363 1.272 . S
O354 Co350 2.004 1_565 S
O354 C359 1.259 . S
Co355 O356 2.061 . S
Co355 O361 2.052 . S
Co355 O363 2.135 . S
O356 Co355 2.061 . S
O356 C359 1.235 . S
C357 O360 1.238 . S
C357 O361 1.241 1_545 S
C358 O351 1.247 . S
C358 O352 1.261 . S
C359 O354 1.259 . S
C359 O356 1.235 . S
O360 Co350 2.021 . S
O360 C357 1.238 . S
O361 Co355 2.052 . S
O361 C357 1.241 1_565 S
O362 Co350 2.137 1_565 S
O362 C353 1.247 . S
O363 Co350 2.244 1_565 S
O363 C353 1.272 . S
O363 Co355 2.135 . S
Co364 O365 2.216 . S
Co364 O366 2.091 . S
Co364 O368 2.004 . S
Co364 O374 2.021 . S
Co364 O376 2.137 . S
Co364 O377 2.244 . S
O365 Co364 2.216 . S
O365 C372 1.247 . S
O366 Co364 2.091 . S
O366 C372 1.261 . S
C367 O376 1.247 . S
C367 O377 1.272 . S
O368 Co364 2.004 . S
O368 C373 1.259 . S
Co369 O370 2.061 . S
Co369 O375 2.052 . S
Co369 O377 2.135 . S
O370 Co369 2.061 . S
O370 C373 1.235 . S
C371 O374 1.238 . S
C371 O375 1.241 . S
C372 O365 1.247 . S
C372 O366 1.261 . S
C373 O368 1.259 . S
C373 O370 1.235 . S
O374 Co364 2.021 . S
O374 C371 1.238 . S
O375 Co369 2.052 . S
O375 C371 1.241 . S
O376 Co364 2.137 . S
O376 C367 1.247 . S
O377 Co364 2.244 . S
O377 C367 1.272 . S
O377 Co369 2.135 . S
Co378 O379 2.216 . S
Co378 O380 2.091 . S
Co378 O382 2.004 . S
Co378 O388 2.021 1_556 S
Co378 O390 2.137 . S
Co378 O391 2.244 1_556 S
O379 Co378 2.216 . S
O379 C386 1.247 . S
O380 Co378 2.091 . S
O380 C386 1.261 . S
C381 O390 1.247 1_554 S
C381 O391 1.272 . S
O382 Co378 2.004 . S
O382 C387 1.259 1_556 S
Co383 O384 2.061 . S
Co383 O389 2.052 . S
Co383 O391 2.135 . S
O384 Co383 2.061 . S
O384 C387 1.235 . S
C385 O388 1.238 . S
C385 O389 1.241 . S
C386 O379 1.247 . S
C386 O380 1.261 . S
C387 O382 1.259 1_554 S
C387 O384 1.235 . S
O388 Co378 2.021 1_554 S
O388 C385 1.238 . S
O389 Co383 2.052 . S
O389 C385 1.241 . S
O390 Co378 2.137 . S
O390 C381 1.247 1_556 S
O391 Co378 2.244 1_554 S
O391 C381 1.272 . S
O391 Co383 2.135 . S
Co392 O393 2.216 . S
Co392 O394 2.091 . S
Co392 O396 2.004 . S
Co392 O402 2.021 . S
Co392 O404 2.137 . S
Co392 O405 2.244 . S
O393 Co392 2.216 . S
O393 C400 1.247 . S
O394 Co392 2.091 . S
O394 C400 1.261 . S
C395 O404 1.247 . S
C395 O405 1.272 . S
O396 Co392 2.004 . S
O396 C401 1.259 . S
Co397 O398 2.061 . S
Co397 O403 2.052 . S
Co397 O405 2.135 . S
O398 Co397 2.061 . S
O398 C401 1.235 . S
C399 O402 1.238 . S
C399 O403 1.241 . S
C400 O393 1.247 . S
C400 O394 1.261 . S
C401 O396 1.259 . S
C401 O398 1.235 . S
O402 Co392 2.021 . S
O402 C399 1.238 . S
O403 Co397 2.052 . S
O403 C399 1.241 . S
O404 Co392 2.137 . S
O404 C395 1.247 . S
O405 Co392 2.244 . S
O405 C395 1.272 . S
O405 Co397 2.135 . S
Co406 O407 2.216 1_565 S
Co406 O408 2.091 . S
Co406 O410 2.004 . S
Co406 O416 2.021 1_565 S
Co406 O418 2.137 . S
Co406 O419 2.244 1_565 S
O407 Co406 2.216 1_545 S
O407 C414 1.247 . S
O408 Co406 2.091 . S
O408 C414 1.261 1_565 S
C409 O418 1.247 1_545 S
C409 O419 1.272 . S
O410 Co406 2.004 . S
O410 C415 1.259 . S
Co411 O412 2.061 1_545 S
Co411 O417 2.052 . S
Co411 O419 2.135 . S
O412 Co411 2.061 1_565 S
O412 C415 1.235 . S
C413 O416 1.238 . S
C413 O417 1.241 . S
C414 O407 1.247 . S
C414 O408 1.261 1_545 S
C415 O410 1.259 . S
C415 O412 1.235 . S
O416 Co406 2.021 1_545 S
O416 C413 1.238 . S
O417 Co411 2.052 . S
O417 C413 1.241 . S
O418 Co406 2.137 . S
O418 C409 1.247 1_565 S
O419 Co406 2.244 1_545 S
O419 C409 1.272 . S
O419 Co411 2.135 . S
Co420 O421 2.216 . S
Co420 O422 2.091 . S
Co420 O424 2.004 . S
Co420 O430 2.021 . S
Co420 O432 2.137 . S
Co420 O433 2.244 . S
O421 Co420 2.216 . S
O421 C428 1.247 . S
O422 Co420 2.091 . S
O422 C428 1.261 . S
C423 O432 1.247 . S
C423 O433 1.272 . S
O424 Co420 2.004 . S
O424 C429 1.259 . S
Co425 O426 2.061 . S
Co425 O431 2.052 . S
Co425 O433 2.135 . S
O426 Co425 2.061 . S
O426 C429 1.235 . S
C427 O430 1.238 . S
C427 O431 1.241 . S
C428 O421 1.247 . S
C428 O422 1.261 . S
C429 O424 1.259 . S
C429 O426 1.235 . S
O430 Co420 2.021 . S
O430 C427 1.238 . S
O431 Co425 2.052 . S
O431 C427 1.241 . S
O432 Co420 2.137 . S
O432 C423 1.247 . S
O433 Co420 2.244 . S
O433 C423 1.272 . S
O433 Co425 2.135 . S
Co434 O435 2.216 . S
Co434 O436 2.091 . S
Co434 O438 2.004 . S
Co434 O444 2.021 . S
Co434 O446 2.137 . S
Co434 O447 2.244 . S
O435 Co434 2.216 . S
O435 C442 1.247 . S
O436 Co434 2.091 . S
O436 C442 1.261 . S
C437 O446 1.247 . S
C437 O447 1.272 . S
O438 Co434 2.004 . S
O438 C443 1.259 . S
Co439 O440 2.061 . S
Co439 O445 2.052 . S
Co439 O447 2.135 . S
O440 Co439 2.061 . S
O440 C443 1.235 . S
C441 O444 1.238 . S
C441 O445 1.241 . S
C442 O435 1.247 . S
C442 O436 1.261 . S
C443 O438 1.259 . S
C443 O440 1.235 . S
O444 Co434 2.021 . S
O444 C441 1.238 . S
O445 Co439 2.052 . S
O445 C441 1.241 . S
O446 Co434 2.137 . S
O446 C437 1.247 . S
O447 Co434 2.244 . S
O447 C437 1.272 . S
O447 Co439 2.135 . S
Co448 O449 2.216 . S
Co448 O450 2.091 . S
Co448 O452 2.004 . S
Co448 O458 2.021 . S
Co448 O460 2.137 . S
Co448 O461 2.244 . S
O449 Co448 2.216 . S
O449 C456 1.247 . S
O450 Co448 2.091 . S
O450 C456 1.261 . S
C451 O460 1.247 . S
C451 O461 1.272 . S
O452 Co448 2.004 . S
O452 C457 1.259 . S
Co453 O454 2.061 . S
Co453 O459 2.052 . S
Co453 O461 2.135 . S
O454 Co453 2.061 . S
O454 C457 1.235 . S
C455 O458 1.238 . S
C455 O459 1.241 . S
C456 O449 1.247 . S
C456 O450 1.261 . S
C457 O452 1.259 . S
C457 O454 1.235 . S
O458 Co448 2.021 . S
O458 C455 1.238 . S
O459 Co453 2.052 . S
O459 C455 1.241 . S
O460 Co448 2.137 . S
O460 C451 1.247 . S
O461 Co448 2.244 . S
O461 C451 1.272 . S
O461 Co453 2.135 . S
Co462 O463 2.216 . S
Co462 O464 2.091 . S
Co462 O466 2.004 . S
Co462 O472 2.021 . S
Co462 O474 2.137 . S
Co462 O475 2.244 . S
O463 Co462 2.216 . S
O463 C470 1.247 . S
O464 Co462 2.091 . S
O464 C470 1.261 . S
C465 O474 1.247 . S
C465 O475 1.272 . S
O466 Co462 2.004 . S
O466 C471 1.259 . S
Co467 O468 2.061 . S
Co467 O473 2.052 . S
Co467 O475 2.135 . S
O468 Co467 2.061 . S
O468 C471 1.235 . S
C469 O472 1.238 . S
C469 O473 1.241 . S
C470 O463 1.247 . S
C470 O464 1.261 . S
C471 O466 1.259 . S
C471 O468 1.235 . S
O472 Co462 2.021 . S
O472 C469 1.238 . S
O473 Co467 2.052 . S
O473 C469 1.241 . S
O474 Co462 2.137 . S
O474 C465 1.247 . S
O475 Co462 2.244 . S
O475 C465 1.272 . S
O475 Co467 2.135 . S
Co476 O477 2.216 . S
Co476 O478 2.091 . S
Co476 O480 2.004 1_455 S
Co476 O486 2.021 1_455 S
Co476 O488 2.137 . S
Co476 O489 2.244 . S
O477 Co476 2.216 . S
O477 C484 1.247 . S
O478 Co476 2.091 . S
O478 C484 1.261 . S
C479 O488 1.247 . S
C479 O489 1.272 . S
O480 Co476 2.004 1_655 S
O480 C485 1.259 . S
Co481 O482 2.061 . S
Co481 O487 2.052 . S
Co481 O489 2.135 1_655 S
O482 Co481 2.061 . S
O482 C485 1.235 . S
C483 O486 1.238 . S
C483 O487 1.241 . S
C484 O477 1.247 . S
C484 O478 1.261 . S
C485 O480 1.259 . S
C485 O482 1.235 . S
O486 Co476 2.021 1_655 S
O486 C483 1.238 . S
O487 Co481 2.052 . S
O487 C483 1.241 . S
O488 Co476 2.137 . S
O488 C479 1.247 . S
O489 Co476 2.244 . S
O489 C479 1.272 . S
O489 Co481 2.135 1_455 S
Co490 O491 2.216 . S
Co490 O492 2.091 . S
Co490 O494 2.004 . S
Co490 O500 2.021 . S
Co490 O502 2.137 . S
Co490 O503 2.244 . S
O491 Co490 2.216 . S
O491 C498 1.247 . S
O492 Co490 2.091 . S
O492 C498 1.261 . S
C493 O502 1.247 . S
C493 O503 1.272 . S
O494 Co490 2.004 . S
O494 C499 1.259 . S
Co495 O496 2.061 . S
Co495 O501 2.052 . S
Co495 O503 2.135 . S
O496 Co495 2.061 . S
O496 C499 1.235 . S
C497 O500 1.238 . S
C497 O501 1.241 . S
C498 O491 1.247 . S
C498 O492 1.261 . S
C499 O494 1.259 . S
C499 O496 1.235 . S
O500 Co490 2.021 . S
O500 C497 1.238 . S
O501 Co495 2.052 . S
O501 C497 1.241 . S
O502 Co490 2.137 . S
O502 C493 1.247 . S
O503 Co490 2.244 . S
O503 C493 1.272 . S
O503 Co495 2.135 . S
Co504 O505 2.216 . S
Co504 O506 2.091 . S
Co504 O508 2.004 . S
Co504 O514 2.021 . S
Co504 O516 2.137 . S
Co504 O517 2.244 . S
O505 Co504 2.216 . S
O505 C512 1.247 . S
O506 Co504 2.091 . S
O506 C512 1.261 . S
C507 O516 1.247 . S
C507 O517 1.272 . S
O508 Co504 2.004 . S
O508 C513 1.259 . S
Co509 O510 2.061 . S
Co509 O515 2.052 . S
Co509 O517 2.135 . S
O510 Co509 2.061 . S
O510 C513 1.235 . S
C511 O514 1.238 . S
C511 O515 1.241 . S
C512 O505 1.247 . S
C512 O506 1.261 . S
C513 O508 1.259 . S
C513 O510 1.235 . S
O514 Co504 2.021 . S
O514 C511 1.238 . S
O515 Co509 2.052 . S
O515 C511 1.241 . S
O516 Co504 2.137 . S
O516 C507 1.247 . S
O517 Co504 2.244 . S
O517 C507 1.272 . S
O517 Co509 2.135 . S
Co518 O519 2.216 . S
Co518 O520 2.091 . S
Co518 O522 2.004 . S
Co518 O528 2.021 . S
Co518 O530 2.137 . S
Co518 O531 2.244 . S
O519 Co518 2.216 . S
O519 C526 1.247 . S
O520 Co518 2.091 . S
O520 C526 1.261 . S
C521 O530 1.247 . S
C521 O531 1.272 . S
O522 Co518 2.004 . S
O522 C527 1.259 . S
Co523 O524 2.061 . S
Co523 O529 2.052 . S
Co523 O531 2.135 . S
O524 Co523 2.061 . S
O524 C527 1.235 . S
C525 O528 1.238 . S
C525 O529 1.241 . S
C526 O519 1.247 . S
C526 O520 1.261 . S
C527 O522 1.259 . S
C527 O524 1.235 . S
O528 Co518 2.021 . S
O528 C525 1.238 . S
O529 Co523 2.052 . S
O529 C525 1.241 . S
O530 Co518 2.137 . S
O530 C521 1.247 . S
O531 Co518 2.244 . S
O531 C521 1.272 . S
O531 Co523 2.135 . S
Co532 O533 2.216 . S
Co532 O534 2.091 . S
Co532 O536 2.004 . S
Co532 O542 2.021 . S
Co532 O544 2.137 . S
Co532 O545 2.244 . S
O533 Co532 2.216 . S
O533 C540 1.247 . S
O534 Co532 2.091 . S
O534 C540 1.261 . S
C535 O544 1.247 . S
C535 O545 1.272 . S
O536 Co532 2.004 . S
O536 C541 1.259 . S
Co537 O538 2.061 . S
Co537 O543 2.052 . S
Co537 O545 2.135 . S
O538 Co537 2.061 . S
O538 C541 1.235 . S
C539 O542 1.238 . S
C539 O543 1.241 . S
C540 O533 1.247 . S
C540 O534 1.261 . S
C541 O536 1.259 . S
C541 O538 1.235 . S
O542 Co532 2.021 . S
O542 C539 1.238 . S
O543 Co537 2.052 . S
O543 C539 1.241 . S
O544 Co532 2.137 . S
O544 C535 1.247 . S
O545 Co532 2.244 . S
O545 C535 1.272 . S
O545 Co537 2.135 . S
Co546 O547 2.216 . S
Co546 O548 2.091 . S
Co546 O550 2.004 . S
Co546 O556 2.021 . S
Co546 O558 2.137 . S
Co546 O559 2.244 . S
O547 Co546 2.216 . S
O547 C554 1.247 . S
O548 Co546 2.091 . S
O548 C554 1.261 . S
C549 O558 1.247 . S
C549 O559 1.272 . S
O550 Co546 2.004 . S
O550 C555 1.259 . S
Co551 O552 2.061 . S
Co551 O557 2.052 . S
Co551 O559 2.135 . S
O552 Co551 2.061 . S
O552 C555 1.235 . S
C553 O556 1.238 . S
C553 O557 1.241 . S
C554 O547 1.247 . S
C554 O548 1.261 . S
C555 O550 1.259 . S
C555 O552 1.235 . S
O556 Co546 2.021 . S
O556 C553 1.238 . S
O557 Co551 2.052 . S
O557 C553 1.241 . S
O558 Co546 2.137 . S
O558 C549 1.247 . S
O559 Co546 2.244 . S
O559 C549 1.272 . S
O559 Co551 2.135 . S
Co560 O561 2.216 . S
Co560 O562 2.091 . S
Co560 O564 2.004 . S
Co560 O570 2.021 . S
Co560 O572 2.137 . S
Co560 O573 2.244 . S
O561 Co560 2.216 . S
O561 C568 1.247 . S
O562 Co560 2.091 . S
O562 C568 1.261 . S
C563 O572 1.247 . S
C563 O573 1.272 . S
O564 Co560 2.004 . S
O564 C569 1.259 . S
Co565 O566 2.061 . S
Co565 O571 2.052 . S
Co565 O573 2.135 . S
O566 Co565 2.061 . S
O566 C569 1.235 . S
C567 O570 1.238 . S
C567 O571 1.241 . S
C568 O561 1.247 . S
C568 O562 1.261 . S
C569 O564 1.259 . S
C569 O566 1.235 . S
O570 Co560 2.021 . S
O570 C567 1.238 . S
O571 Co565 2.052 . S
O571 C567 1.241 . S
O572 Co560 2.137 . S
O572 C563 1.247 . S
O573 Co560 2.244 . S
O573 C563 1.272 . S
O573 Co565 2.135 . S
Co574 O575 2.216 . S
Co574 O576 2.091 . S
Co574 O578 2.004 1_565 S
Co574 O584 2.021 . S
Co574 O586 2.137 1_565 S
Co574 O587 2.244 1_565 S
O575 Co574 2.216 . S
O575 C582 1.247 . S
O576 Co574 2.091 . S
O576 C582 1.261 . S
C577 O586 1.247 . S
C577 O587 1.272 . S
O578 Co574 2.004 1_545 S
O578 C583 1.259 . S
Co579 O580 2.061 . S
Co579 O585 2.052 . S
Co579 O587 2.135 . S
O580 Co579 2.061 . S
O580 C583 1.235 . S
C581 O584 1.238 . S
C581 O585 1.241 1_565 S
C582 O575 1.247 . S
C582 O576 1.261 . S
C583 O578 1.259 . S
C583 O580 1.235 . S
O584 Co574 2.021 . S
O584 C581 1.238 . S
O585 Co579 2.052 . S
O585 C581 1.241 1_545 S
O586 Co574 2.137 1_545 S
O586 C577 1.247 . S
O587 Co574 2.244 1_545 S
O587 C577 1.272 . S
O587 Co579 2.135 . S
Co588 O589 2.216 . S
Co588 O590 2.091 . S
Co588 O592 2.004 1_455 S
Co588 O598 2.021 1_455 S
Co588 O600 2.137 . S
Co588 O601 2.244 . S
O589 Co588 2.216 . S
O589 C596 1.247 . S
O590 Co588 2.091 . S
O590 C596 1.261 . S
C591 O600 1.247 . S
C591 O601 1.272 . S
O592 Co588 2.004 1_655 S
O592 C597 1.259 . S
Co593 O594 2.061 . S
Co593 O599 2.052 . S
Co593 O601 2.135 1_655 S
O594 Co593 2.061 . S
O594 C597 1.235 . S
C595 O598 1.238 . S
C595 O599 1.241 . S
C596 O589 1.247 . S
C596 O590 1.261 . S
C597 O592 1.259 . S
C597 O594 1.235 . S
O598 Co588 2.021 1_655 S
O598 C595 1.238 . S
O599 Co593 2.052 . S
O599 C595 1.241 . S
O600 Co588 2.137 . S
O600 C591 1.247 . S
O601 Co588 2.244 . S
O601 C591 1.272 . S
O601 Co593 2.135 1_455 S
Co602 O603 2.216 . S
Co602 O604 2.091 . S
Co602 O606 2.004 . S
Co602 O612 2.021 . S
Co602 O614 2.137 . S
Co602 O615 2.244 . S
O603 Co602 2.216 . S
O603 C610 1.247 . S
O604 Co602 2.091 . S
O604 C610 1.261 . S
C605 O614 1.247 . S
C605 O615 1.272 . S
O606 Co602 2.004 . S
O606 C611 1.259 . S
Co607 O608 2.061 . S
Co607 O613 2.052 . S
Co607 O615 2.135 . S
O608 Co607 2.061 . S
O608 C611 1.235 . S
C609 O612 1.238 . S
C609 O613 1.241 . S
C610 O603 1.247 . S
C610 O604 1.261 . S
C611 O606 1.259 . S
C611 O608 1.235 . S
O612 Co602 2.021 . S
O612 C609 1.238 . S
O613 Co607 2.052 . S
O613 C609 1.241 . S
O614 Co602 2.137 . S
O614 C605 1.247 . S
O615 Co602 2.244 . S
O615 C605 1.272 . S
O615 Co607 2.135 . S
Co616 O617 2.216 . S
Co616 O618 2.091 . S
Co616 O620 2.004 . S
Co616 O626 2.021 . S
Co616 O628 2.137 . S
Co616 O629 2.244 . S
O617 Co616 2.216 . S
O617 C624 1.247 . S
O618 Co616 2.091 . S
O618 C624 1.261 . S
C619 O628 1.247 . S
C619 O629 1.272 . S
O620 Co616 2.004 . S
O620 C625 1.259 . S
Co621 O622 2.061 . S
Co621 O627 2.052 . S
Co621 O629 2.135 . S
O622 Co621 2.061 . S
O622 C625 1.235 . S
C623 O626 1.238 . S
C623 O627 1.241 . S
C624 O617 1.247 . S
C624 O618 1.261 . S
C625 O620 1.259 . S
C625 O622 1.235 . S
O626 Co616 2.021 . S
O626 C623 1.238 . S
O627 Co621 2.052 . S
O627 C623 1.241 . S
O628 Co616 2.137 . S
O628 C619 1.247 . S
O629 Co616 2.244 . S
O629 C619 1.272 . S
O629 Co621 2.135 . S
Co630 O631 2.216 . S
Co630 O632 2.091 . S
Co630 O634 2.004 1_545 S
Co630 O640 2.021 . S
Co630 O642 2.137 1_545 S
Co630 O643 2.244 1_545 S
O631 Co630 2.216 . S
O631 C638 1.247 . S
O632 Co630 2.091 . S
O632 C638 1.261 . S
C633 O642 1.247 . S
C633 O643 1.272 . S
O634 Co630 2.004 1_565 S
O634 C639 1.259 . S
Co635 O636 2.061 . S
Co635 O641 2.052 . S
Co635 O643 2.135 . S
O636 Co635 2.061 . S
O636 C639 1.235 . S
C637 O640 1.238 . S
C637 O641 1.241 1_545 S
C638 O631 1.247 . S
C638 O632 1.261 . S
C639 O634 1.259 . S
C639 O636 1.235 . S
O640 Co630 2.021 . S
O640 C637 1.238 . S
O641 Co635 2.052 . S
O641 C637 1.241 1_565 S
O642 Co630 2.137 1_565 S
O642 C633 1.247 . S
O643 Co630 2.244 1_565 S
O643 C633 1.272 . S
O643 Co635 2.135 . S
Co644 O645 2.216 . S
Co644 O646 2.091 . S
Co644 O648 2.004 . S
Co644 O654 2.021 . S
Co644 O656 2.137 . S
Co644 O657 2.244 . S
O645 Co644 2.216 . S
O645 C652 1.247 . S
O646 Co644 2.091 . S
O646 C652 1.261 . S
C647 O656 1.247 . S
C647 O657 1.272 . S
O648 Co644 2.004 . S
O648 C653 1.259 . S
Co649 O650 2.061 . S
Co649 O655 2.052 . S
Co649 O657 2.135 . S
O650 Co649 2.061 . S
O650 C653 1.235 . S
C651 O654 1.238 . S
C651 O655 1.241 . S
C652 O645 1.247 . S
C652 O646 1.261 . S
C653 O648 1.259 . S
C653 O650 1.235 . S
O654 Co644 2.021 . S
O654 C651 1.238 . S
O655 Co649 2.052 . S
O655 C651 1.241 . S
O656 Co644 2.137 . S
O656 C647 1.247 . S
O657 Co644 2.244 . S
O657 C647 1.272 . S
O657 Co649 2.135 . S
Co658 O659 2.216 . S
Co658 O660 2.091 . S
Co658 O662 2.004 . S
Co658 O668 2.021 . S
Co658 O670 2.137 . S
Co658 O671 2.244 . S
O659 Co658 2.216 . S
O659 C666 1.247 . S
O660 Co658 2.091 . S
O660 C666 1.261 . S
C661 O670 1.247 . S
C661 O671 1.272 . S
O662 Co658 2.004 . S
O662 C667 1.259 . S
Co663 O664 2.061 . S
Co663 O669 2.052 . S
Co663 O671 2.135 . S
O664 Co663 2.061 . S
O664 C667 1.235 . S
C665 O668 1.238 . S
C665 O669 1.241 . S
C666 O659 1.247 . S
C666 O660 1.261 . S
C667 O662 1.259 . S
C667 O664 1.235 . S
O668 Co658 2.021 . S
O668 C665 1.238 . S
O669 Co663 2.052 . S
O669 C665 1.241 . S
O670 Co658 2.137 . S
O670 C661 1.247 . S
O671 Co658 2.244 . S
O671 C661 1.272 . S
O671 Co663 2.135 . S
H672 C680 0.929 . S
H673 C682 0.930 . S
H674 C684 0.930 . S
H675 C687 0.929 . S
H676 C690 0.930 . S
H677 C692 0.960 . S
H678 C692 0.960 . S
H679 C692 0.960 . S
C680 H672 0.929 . S
C680 C681 1.377 . S
C680 C682 1.384 . S
C681 C680 1.377 . S
C681 C687 1.390 . S
C682 H673 0.930 . S
C682 C680 1.384 . S
C682 C683 1.372 . S
C683 C682 1.372 . S
C683 C684 1.400 . S
C683 C688 1.490 . S
C684 H674 0.930 . S
C684 C683 1.400 . S
C684 C687 1.386 . S
H685 C701 0.930 . S
H686 C702 0.931 . S
C687 H675 0.929 . S
C687 C681 1.390 . S
C687 C684 1.386 . S
C688 C683 1.490 . S
C688 C690 1.395 . S
C688 C691 1.403 . S
H689 C695 0.930 . S
C690 H676 0.930 . S
C690 C688 1.395 . S
C690 C693 1.403 . S
C691 C688 1.403 . S
C691 C692 1.524 . S
C691 C695 1.400 . S
C692 H677 0.960 . S
C692 H678 0.960 . S
C692 H679 0.960 . S
C692 C691 1.524 . S
C693 C690 1.403 . S
C693 C694 1.392 . S
C693 C697 1.495 . S
C694 C693 1.392 . S
C694 C695 1.385 . S
C694 C696 1.478 . S
C695 H689 0.930 . S
C695 C691 1.400 . S
C695 C694 1.385 . S
C696 C694 1.478 . S
C696 C698 1.381 . S
C696 C702 1.383 . S
C697 C693 1.495 . S
C697 H703 0.959 . S
C697 H704 0.961 . S
C697 H705 0.960 . S
C698 C696 1.381 . S
C698 C699 1.394 . S
C698 H706 0.930 . S
C699 C698 1.394 . S
C699 C700 1.383 . S
C699 H707 0.929 . S
C700 C699 1.383 . S
C700 C701 1.377 . S
C701 H685 0.930 . S
C701 C700 1.377 . S
C701 C702 1.379 . S
C702 H686 0.931 . S
C702 C696 1.383 . S
C702 C701 1.379 . S
H703 C697 0.959 . S
H704 C697 0.961 . S
H705 C697 0.960 . S
H706 C698 0.930 . S
H707 C699 0.929 . S
H708 C716 0.929 . S
H709 C718 0.930 . S
H710 C720 0.930 . S
H711 C723 0.929 . S
H712 C726 0.930 . S
H713 C728 0.960 . S
H714 C728 0.960 . S
H715 C728 0.960 . S
C716 H708 0.929 . S
C716 C717 1.377 . S
C716 C718 1.384 . S
C717 C716 1.377 . S
C717 C723 1.390 . S
C718 H709 0.930 . S
C718 C716 1.384 . S
C718 C719 1.372 . S
C719 C718 1.372 . S
C719 C720 1.400 . S
C719 C724 1.490 . S
C720 H710 0.930 . S
C720 C719 1.400 . S
C720 C723 1.386 . S
H721 C737 0.930 . S
H722 C738 0.931 . S
C723 H711 0.929 . S
C723 C717 1.390 . S
C723 C720 1.386 . S
C724 C719 1.490 . S
C724 C726 1.395 . S
C724 C727 1.403 . S
H725 C731 0.930 . S
C726 H712 0.930 . S
C726 C724 1.395 . S
C726 C729 1.403 . S
C727 C724 1.403 . S
C727 C728 1.524 . S
C727 C731 1.400 . S
C728 H713 0.960 . S
C728 H714 0.960 . S
C728 H715 0.960 . S
C728 C727 1.524 . S
C729 C726 1.403 . S
C729 C730 1.392 . S
C729 C733 1.495 . S
C730 C729 1.392 . S
C730 C731 1.385 . S
C730 C732 1.478 . S
C731 H725 0.930 . S
C731 C727 1.400 . S
C731 C730 1.385 . S
C732 C730 1.478 . S
C732 C734 1.381 . S
C732 C738 1.383 . S
C733 C729 1.495 . S
C733 H739 0.959 . S
C733 H740 0.961 . S
C733 H741 0.960 . S
C734 C732 1.381 . S
C734 C735 1.394 . S
C734 H742 0.930 . S
C735 C734 1.394 . S
C735 C736 1.383 . S
C735 H743 0.929 . S
C736 C735 1.383 . S
C736 C737 1.377 . S
C737 H721 0.930 . S
C737 C736 1.377 . S
C737 C738 1.379 . S
C738 H722 0.931 . S
C738 C732 1.383 . S
C738 C737 1.379 . S
H739 C733 0.959 . S
H740 C733 0.961 . S
H741 C733 0.960 . S
H742 C734 0.930 . S
H743 C735 0.929 . S
H744 C752 0.929 . S
H745 C754 0.930 . S
H746 C756 0.930 . S
H747 C759 0.929 . S
H748 C762 0.930 . S
H749 C764 0.960 . S
H750 C764 0.960 . S
H751 C764 0.960 . S
C752 H744 0.929 . S
C752 C753 1.377 . S
C752 C754 1.384 . S
C753 C752 1.377 . S
C753 C759 1.390 . S
C754 H745 0.930 . S
C754 C752 1.384 . S
C754 C755 1.372 . S
C755 C754 1.372 . S
C755 C756 1.400 . S
C755 C760 1.490 . S
C756 H746 0.930 . S
C756 C755 1.400 . S
C756 C759 1.386 . S
H757 C773 0.930 . S
H758 C774 0.931 . S
C759 H747 0.929 . S
C759 C753 1.390 . S
C759 C756 1.386 . S
C760 C755 1.490 . S
C760 C762 1.395 1_545 S
C760 C763 1.403 . S
H761 C767 0.930 . S
C762 H748 0.930 . S
C762 C760 1.395 1_565 S
C762 C765 1.403 . S
C763 C760 1.403 . S
C763 C764 1.524 . S
C763 C767 1.400 . S
C764 H749 0.960 . S
C764 H750 0.960 . S
C764 H751 0.960 . S
C764 C763 1.524 . S
C765 C762 1.403 . S
C765 C766 1.392 1_565 S
C765 C769 1.495 . S
C766 C765 1.392 1_545 S
C766 C767 1.385 . S
C766 C768 1.478 . S
C767 H761 0.930 . S
C767 C763 1.400 . S
C767 C766 1.385 . S
C768 C766 1.478 . S
C768 C770 1.381 . S
C768 C774 1.383 . S
C769 C765 1.495 . S
C769 H775 0.959 . S
C769 H776 0.961 . S
C769 H777 0.960 . S
C770 C768 1.381 . S
C770 C771 1.394 . S
C770 H778 0.930 . S
C771 C770 1.394 . S
C771 C772 1.383 . S
C771 H779 0.929 . S
C772 C771 1.383 . S
C772 C773 1.377 . S
C773 H757 0.930 . S
C773 C772 1.377 . S
C773 C774 1.379 . S
C774 H758 0.931 . S
C774 C768 1.383 . S
C774 C773 1.379 . S
H775 C769 0.959 . S
H776 C769 0.961 . S
H777 C769 0.960 . S
H778 C770 0.930 . S
H779 C771 0.929 . S
H780 C788 0.929 . S
H781 C790 0.930 . S
H782 C792 0.930 . S
H783 C795 0.929 . S
H784 C798 0.930 . S
H785 C800 0.960 . S
H786 C800 0.960 . S
H787 C800 0.960 . S
C788 H780 0.929 . S
C788 C789 1.377 . S
C788 C790 1.384 . S
C789 C788 1.377 . S
C789 C795 1.390 . S
C790 H781 0.930 . S
C790 C788 1.384 . S
C790 C791 1.372 . S
C791 C790 1.372 . S
C791 C792 1.400 . S
C791 C796 1.490 . S
C792 H782 0.930 . S
C792 C791 1.400 . S
C792 C795 1.386 . S
H793 C809 0.930 . S
H794 C810 0.931 . S
C795 H783 0.929 . S
C795 C789 1.390 . S
C795 C792 1.386 . S
C796 C791 1.490 . S
C796 C798 1.395 . S
C796 C799 1.403 . S
H797 C803 0.930 . S
C798 H784 0.930 . S
C798 C796 1.395 . S
C798 C801 1.403 . S
C799 C796 1.403 . S
C799 C800 1.524 . S
C799 C803 1.400 . S
C800 H785 0.960 . S
C800 H786 0.960 . S
C800 H787 0.960 . S
C800 C799 1.524 . S
C801 C798 1.403 . S
C801 C802 1.392 . S
C801 C805 1.495 . S
C802 C801 1.392 . S
C802 C803 1.385 . S
C802 C804 1.478 . S
C803 H797 0.930 . S
C803 C799 1.400 . S
C803 C802 1.385 . S
C804 C802 1.478 . S
C804 C806 1.381 . S
C804 C810 1.383 . S
C805 C801 1.495 . S
C805 H811 0.959 . S
C805 H812 0.961 . S
C805 H813 0.960 . S
C806 C804 1.381 . S
C806 C807 1.394 . S
C806 H814 0.930 . S
C807 C806 1.394 . S
C807 C808 1.383 . S
C807 H815 0.929 . S
C808 C807 1.383 . S
C808 C809 1.377 . S
C809 H793 0.930 . S
C809 C808 1.377 . S
C809 C810 1.379 . S
C810 H794 0.931 . S
C810 C804 1.383 . S
C810 C809 1.379 . S
H811 C805 0.959 . S
H812 C805 0.961 . S
H813 C805 0.960 . S
H814 C806 0.930 . S
H815 C807 0.929 . S
H816 C824 0.929 . S
H817 C826 0.930 . S
H818 C828 0.930 . S
H819 C831 0.929 . S
H820 C834 0.930 . S
H821 C836 0.960 . S
H822 C836 0.960 . S
H823 C836 0.960 . S
C824 H816 0.929 . S
C824 C825 1.377 . S
C824 C826 1.384 . S
C825 C824 1.377 . S
C825 C831 1.390 . S
C826 H817 0.930 . S
C826 C824 1.384 . S
C826 C827 1.372 . S
C827 C826 1.372 . S
C827 C828 1.400 . S
C827 C832 1.490 . S
C828 H818 0.930 . S
C828 C827 1.400 . S
C828 C831 1.386 . S
H829 C845 0.930 . S
H830 C846 0.931 . S
C831 H819 0.929 . S
C831 C825 1.390 . S
C831 C828 1.386 . S
C832 C827 1.490 . S
C832 C834 1.395 . S
C832 C835 1.403 . S
H833 C839 0.930 . S
C834 H820 0.930 . S
C834 C832 1.395 . S
C834 C837 1.403 . S
C835 C832 1.403 . S
C835 C836 1.524 . S
C835 C839 1.400 . S
C836 H821 0.960 . S
C836 H822 0.960 . S
C836 H823 0.960 . S
C836 C835 1.524 . S
C837 C834 1.403 . S
C837 C838 1.392 . S
C837 C841 1.495 . S
C838 C837 1.392 . S
C838 C839 1.385 . S
C838 C840 1.478 . S
C839 H833 0.930 . S
C839 C835 1.400 . S
C839 C838 1.385 . S
C840 C838 1.478 . S
C840 C842 1.381 . S
C840 C846 1.383 . S
C841 C837 1.495 . S
C841 H847 0.959 . S
C841 H848 0.961 . S
C841 H849 0.960 . S
C842 C840 1.381 . S
C842 C843 1.394 . S
C842 H850 0.930 . S
C843 C842 1.394 . S
C843 C844 1.383 . S
C843 H851 0.929 . S
C844 C843 1.383 . S
C844 C845 1.377 . S
C845 H829 0.930 . S
C845 C844 1.377 . S
C845 C846 1.379 . S
C846 H830 0.931 . S
C846 C840 1.383 . S
C846 C845 1.379 . S
H847 C841 0.959 . S
H848 C841 0.961 . S
H849 C841 0.960 . S
H850 C842 0.930 . S
H851 C843 0.929 . S
H852 C860 0.929 . S
H853 C862 0.930 . S
H854 C864 0.930 . S
H855 C867 0.929 . S
H856 C870 0.930 . S
H857 C872 0.960 . S
H858 C872 0.960 . S
H859 C872 0.960 . S
C860 H852 0.929 . S
C860 C861 1.377 . S
C860 C862 1.384 . S
C861 C860 1.377 . S
C861 C867 1.390 . S
C862 H853 0.930 . S
C862 C860 1.384 . S
C862 C863 1.372 . S
C863 C862 1.372 . S
C863 C864 1.400 . S
C863 C868 1.490 . S
C864 H854 0.930 . S
C864 C863 1.400 . S
C864 C867 1.386 . S
H865 C881 0.930 . S
H866 C882 0.931 . S
C867 H855 0.929 . S
C867 C861 1.390 . S
C867 C864 1.386 . S
C868 C863 1.490 . S
C868 C870 1.395 . S
C868 C871 1.403 . S
H869 C875 0.930 . S
C870 H856 0.930 . S
C870 C868 1.395 . S
C870 C873 1.403 . S
C871 C868 1.403 . S
C871 C872 1.524 . S
C871 C875 1.400 . S
C872 H857 0.960 . S
C872 H858 0.960 . S
C872 H859 0.960 . S
C872 C871 1.524 . S
C873 C870 1.403 . S
C873 C874 1.392 . S
C873 C877 1.495 . S
C874 C873 1.392 . S
C874 C875 1.385 . S
C874 C876 1.478 . S
C875 H869 0.930 . S
C875 C871 1.400 . S
C875 C874 1.385 . S
C876 C874 1.478 . S
C876 C878 1.381 . S
C876 C882 1.383 . S
C877 C873 1.495 . S
C877 H883 0.959 . S
C877 H884 0.961 . S
C877 H885 0.960 . S
C878 C876 1.381 . S
C878 C879 1.394 . S
C878 H886 0.930 . S
C879 C878 1.394 . S
C879 C880 1.383 . S
C879 H887 0.929 . S
C880 C879 1.383 . S
C880 C881 1.377 . S
C881 H865 0.930 . S
C881 C880 1.377 . S
C881 C882 1.379 . S
C882 H866 0.931 . S
C882 C876 1.383 . S
C882 C881 1.379 . S
H883 C877 0.959 . S
H884 C877 0.961 . S
H885 C877 0.960 . S
H886 C878 0.930 . S
H887 C879 0.929 . S
H888 C896 0.929 . S
H889 C898 0.930 . S
H890 C900 0.930 . S
H891 C903 0.929 . S
H892 C906 0.930 . S
H893 C908 0.960 . S
H894 C908 0.960 . S
H895 C908 0.960 . S
C896 H888 0.929 . S
C896 C897 1.377 . S
C896 C898 1.384 . S
C897 C896 1.377 . S
C897 C903 1.390 . S
C898 H889 0.930 . S
C898 C896 1.384 . S
C898 C899 1.372 . S
C899 C898 1.372 . S
C899 C900 1.400 . S
C899 C904 1.490 . S
C900 H890 0.930 . S
C900 C899 1.400 . S
C900 C903 1.386 . S
H901 C917 0.930 . S
H902 C918 0.931 . S
C903 H891 0.929 . S
C903 C897 1.390 . S
C903 C900 1.386 . S
C904 C899 1.490 . S
C904 C906 1.395 . S
C904 C907 1.403 . S
H905 C911 0.930 . S
C906 H892 0.930 . S
C906 C904 1.395 . S
C906 C909 1.403 . S
C907 C904 1.403 . S
C907 C908 1.524 . S
C907 C911 1.400 . S
C908 H893 0.960 . S
C908 H894 0.960 . S
C908 H895 0.960 . S
C908 C907 1.524 . S
C909 C906 1.403 . S
C909 C910 1.392 . S
C909 C913 1.495 . S
C910 C909 1.392 . S
C910 C911 1.385 . S
C910 C912 1.478 . S
C911 H905 0.930 . S
C911 C907 1.400 . S
C911 C910 1.385 . S
C912 C910 1.478 . S
C912 C914 1.381 . S
C912 C918 1.383 . S
C913 C909 1.495 . S
C913 H919 0.959 . S
C913 H920 0.961 . S
C913 H921 0.960 . S
C914 C912 1.381 . S
C914 C915 1.394 . S
C914 H922 0.930 . S
C915 C914 1.394 . S
C915 C916 1.383 . S
C915 H923 0.929 . S
C916 C915 1.383 . S
C916 C917 1.377 . S
C917 H901 0.930 . S
C917 C916 1.377 . S
C917 C918 1.379 . S
C918 H902 0.931 . S
C918 C912 1.383 . S
C918 C917 1.379 . S
H919 C913 0.959 . S
H920 C913 0.961 . S
H921 C913 0.960 . S
H922 C914 0.930 . S
H923 C915 0.929 . S
H924 C932 0.929 1_545 S
H925 C934 0.930 1_545 S
H926 C936 0.930 . S
H927 C939 0.929 . S
H928 C942 0.930 . S
H929 C944 0.960 . S
H930 C944 0.960 . S
H931 C944 0.964 1_565 S
C932 H924 0.929 1_565 S
C932 C933 1.377 . S
C932 C934 1.384 . S
C933 C932 1.377 . S
C933 C939 1.390 . S
C934 H925 0.930 1_565 S
C934 C932 1.384 . S
C934 C935 1.372 . S
C935 C934 1.372 . S
C935 C936 1.400 . S
C935 C940 1.490 . S
C936 H926 0.930 . S
C936 C935 1.400 . S
C936 C939 1.386 . S
H937 C953 0.930 . S
H938 C954 0.931 . S
C939 H927 0.929 . S
C939 C933 1.390 . S
C939 C936 1.386 . S
C940 C935 1.490 . S
C940 C942 1.395 . S
C940 C943 1.403 . S
H941 C947 0.930 . S
C942 H928 0.930 . S
C942 C940 1.395 . S
C942 C945 1.403 . S
C943 C940 1.403 . S
C943 C944 1.524 1_565 S
C943 C947 1.400 . S
C944 H929 0.960 . S
C944 H930 0.960 . S
C944 H931 0.964 1_545 S
C944 C943 1.524 1_545 S
C945 C942 1.403 . S
C945 C946 1.392 . S
C945 C949 1.495 . S
C946 C945 1.392 . S
C946 C947 1.385 . S
C946 C948 1.478 . S
C947 H941 0.930 . S
C947 C943 1.400 . S
C947 C946 1.385 . S
C948 C946 1.478 . S
C948 C950 1.381 . S
C948 C954 1.383 . S
C949 C945 1.495 . S
C949 H955 0.959 . S
C949 H956 0.961 . S
C949 H957 0.960 . S
C950 C948 1.381 . S
C950 C951 1.394 . S
C950 H958 0.930 . S
C951 C950 1.394 . S
C951 C952 1.383 . S
C951 H959 0.929 . S
C952 C951 1.383 . S
C952 C953 1.377 . S
C953 H937 0.930 . S
C953 C952 1.377 . S
C953 C954 1.379 . S
C954 H938 0.931 . S
C954 C948 1.383 . S
C954 C953 1.379 . S
H955 C949 0.959 . S
H956 C949 0.961 . S
H957 C949 0.960 . S
H958 C950 0.930 . S
H959 C951 0.929 . S
H960 C968 0.929 . S
H961 C970 0.930 . S
H962 C972 0.930 . S
H963 C975 0.929 . S
H964 C978 0.930 . S
H965 C980 0.960 . S
H966 C980 0.960 . S
H967 C980 0.960 . S
C968 H960 0.929 . S
C968 C969 1.377 . S
C968 C970 1.384 . S
C969 C968 1.377 . S
C969 C975 1.390 . S
C970 H961 0.930 . S
C970 C968 1.384 . S
C970 C971 1.372 . S
C971 C970 1.372 . S
C971 C972 1.400 . S
C971 C976 1.490 . S
C972 H962 0.930 . S
C972 C971 1.400 . S
C972 C975 1.386 . S
H973 C989 0.930 . S
H974 C990 0.931 . S
C975 H963 0.929 . S
C975 C969 1.390 . S
C975 C972 1.386 . S
C976 C971 1.490 . S
C976 C978 1.395 . S
C976 C979 1.403 . S
H977 C983 0.930 . S
C978 H964 0.930 . S
C978 C976 1.395 . S
C978 C981 1.403 . S
C979 C976 1.403 . S
C979 C980 1.524 . S
C979 C983 1.400 . S
C980 H965 0.960 . S
C980 H966 0.960 . S
C980 H967 0.960 . S
C980 C979 1.524 . S
C981 C978 1.403 . S
C981 C982 1.392 . S
C981 C985 1.495 . S
C982 C981 1.392 . S
C982 C983 1.385 . S
C982 C984 1.478 . S
C983 H977 0.930 . S
C983 C979 1.400 . S
C983 C982 1.385 . S
C984 C982 1.478 . S
C984 C986 1.381 . S
C984 C990 1.383 . S
C985 C981 1.495 . S
C985 H991 0.959 . S
C985 H992 0.961 . S
C985 H993 0.960 . S
C986 C984 1.381 . S
C986 C987 1.394 . S
C986 H994 0.930 . S
C987 C986 1.394 . S
C987 C988 1.383 . S
C987 H995 0.929 . S
C988 C987 1.383 . S
C988 C989 1.377 . S
C989 H973 0.930 . S
C989 C988 1.377 . S
C989 C990 1.379 . S
C990 H974 0.931 . S
C990 C984 1.383 . S
C990 C989 1.379 . S
H991 C985 0.959 . S
H992 C985 0.961 . S
H993 C985 0.960 . S
H994 C986 0.930 . S
H995 C987 0.929 . S
H996 C1004 0.929 . S
H997 C1006 0.930 . S
H998 C1008 0.930 . S
H999 C1011 0.929 . S
H1000 C1014 0.930 . S
H1001 C1016 0.960 . S
H1002 C1016 0.960 . S
H1003 C1016 0.960 . S
C1004 H996 0.929 . S
C1004 C1005 1.377 . S
C1004 C1006 1.384 . S
C1005 C1004 1.377 . S
C1005 C1011 1.390 . S
C1006 H997 0.930 . S
C1006 C1004 1.384 . S
C1006 C1007 1.372 . S
C1007 C1006 1.372 . S
C1007 C1008 1.400 . S
C1007 C1012 1.490 . S
C1008 H998 0.930 . S
C1008 C1007 1.400 . S
C1008 C1011 1.386 . S
H1009 C1025 0.930 . S
H1010 C1026 0.931 . S
C1011 H999 0.929 . S
C1011 C1005 1.390 . S
C1011 C1008 1.386 . S
C1012 C1007 1.490 . S
C1012 C1014 1.395 . S
C1012 C1015 1.403 . S
H1013 C1019 0.930 . S
C1014 H1000 0.930 . S
C1014 C1012 1.395 . S
C1014 C1017 1.403 . S
C1015 C1012 1.403 . S
C1015 C1016 1.524 . S
C1015 C1019 1.400 . S
C1016 H1001 0.960 . S
C1016 H1002 0.960 . S
C1016 H1003 0.960 . S
C1016 C1015 1.524 . S
C1017 C1014 1.403 . S
C1017 C1018 1.392 . S
C1017 C1021 1.495 . S
C1018 C1017 1.392 . S
C1018 C1019 1.385 . S
C1018 C1020 1.478 . S
C1019 H1013 0.930 . S
C1019 C1015 1.400 . S
C1019 C1018 1.385 . S
C1020 C1018 1.478 . S
C1020 C1022 1.381 . S
C1020 C1026 1.383 . S
C1021 C1017 1.495 . S
C1021 H1027 0.959 . S
C1021 H1028 0.961 . S
C1021 H1029 0.960 . S
C1022 C1020 1.381 . S
C1022 C1023 1.394 . S
C1022 H1030 0.930 . S
C1023 C1022 1.394 . S
C1023 C1024 1.383 . S
C1023 H1031 0.929 . S
C1024 C1023 1.383 . S
C1024 C1025 1.377 . S
C1025 H1009 0.930 . S
C1025 C1024 1.377 . S
C1025 C1026 1.379 . S
C1026 H1010 0.931 . S
C1026 C1020 1.383 . S
C1026 C1025 1.379 . S
H1027 C1021 0.959 . S
H1028 C1021 0.961 . S
H1029 C1021 0.960 . S
H1030 C1022 0.930 . S
H1031 C1023 0.929 . S
H1032 C1040 0.929 . S
H1033 C1042 0.930 . S
H1034 C1044 0.930 . S
H1035 C1047 0.929 1_556 S
H1036 C1050 0.930 . S
H1037 C1052 0.960 . S
H1038 C1052 0.960 . S
H1039 C1052 0.960 . S
C1040 H1032 0.929 . S
C1040 C1041 1.377 . S
C1040 C1042 1.384 . S
C1041 C1040 1.377 . S
C1041 C1047 1.390 . S
C1042 H1033 0.930 . S
C1042 C1040 1.384 . S
C1042 C1043 1.372 . S
C1043 C1042 1.372 . S
C1043 C1044 1.400 . S
C1043 C1048 1.490 . S
C1044 H1034 0.930 . S
C1044 C1043 1.400 . S
C1044 C1047 1.386 . S
H1045 C1061 0.930 . S
H1046 C1062 0.931 . S
C1047 H1035 0.929 1_554 S
C1047 C1041 1.390 . S
C1047 C1044 1.386 . S
C1048 C1043 1.490 . S
C1048 C1050 1.395 . S
C1048 C1051 1.403 . S
H1049 C1055 0.930 . S
C1050 H1036 0.930 . S
C1050 C1048 1.395 . S
C1050 C1053 1.403 . S
C1051 C1048 1.403 . S
C1051 C1052 1.524 . S
C1051 C1055 1.400 . S
C1052 H1037 0.960 . S
C1052 H1038 0.960 . S
C1052 H1039 0.960 . S
C1052 C1051 1.524 . S
C1053 C1050 1.403 . S
C1053 C1054 1.392 . S
C1053 C1057 1.495 . S
C1054 C1053 1.392 . S
C1054 C1055 1.385 . S
C1054 C1056 1.478 . S
C1055 H1049 0.930 . S
C1055 C1051 1.400 . S
C1055 C1054 1.385 . S
C1056 C1054 1.478 . S
C1056 C1058 1.381 . S
C1056 C1062 1.383 . S
C1057 C1053 1.495 . S
C1057 H1063 0.959 . S
C1057 H1064 0.961 . S
C1057 H1065 0.960 . S
C1058 C1056 1.381 . S
C1058 C1059 1.394 . S
C1058 H1066 0.930 . S
C1059 C1058 1.394 . S
C1059 C1060 1.383 . S
C1059 H1067 0.929 . S
C1060 C1059 1.383 . S
C1060 C1061 1.377 . S
C1061 H1045 0.930 . S
C1061 C1060 1.377 . S
C1061 C1062 1.379 . S
C1062 H1046 0.931 . S
C1062 C1056 1.383 . S
C1062 C1061 1.379 . S
H1063 C1057 0.959 . S
H1064 C1057 0.961 . S
H1065 C1057 0.960 . S
H1066 C1058 0.930 . S
H1067 C1059 0.929 . S
H1068 C1076 0.929 . S
H1069 C1078 0.930 . S
H1070 C1080 0.930 . S
H1071 C1083 0.929 . S
H1072 C1086 0.930 . S
H1073 C1088 0.960 . S
H1074 C1088 0.960 . S
H1075 C1088 0.960 . S
C1076 H1068 0.929 . S
C1076 C1077 1.377 . S
C1076 C1078 1.384 . S
C1077 C1076 1.377 . S
C1077 C1083 1.390 . S
C1078 H1069 0.930 . S
C1078 C1076 1.384 . S
C1078 C1079 1.372 . S
C1079 C1078 1.372 . S
C1079 C1080 1.400 . S
C1079 C1084 1.490 . S
C1080 H1070 0.930 . S
C1080 C1079 1.400 . S
C1080 C1083 1.386 . S
H1081 C1097 0.930 . S
H1082 C1098 0.931 . S
C1083 H1071 0.929 . S
C1083 C1077 1.390 . S
C1083 C1080 1.386 . S
C1084 C1079 1.490 . S
C1084 C1086 1.395 . S
C1084 C1087 1.403 . S
H1085 C1091 0.930 . S
C1086 H1072 0.930 . S
C1086 C1084 1.395 . S
C1086 C1089 1.403 . S
C1087 C1084 1.403 . S
C1087 C1088 1.524 . S
C1087 C1091 1.400 . S
C1088 H1073 0.960 . S
C1088 H1074 0.960 . S
C1088 H1075 0.960 . S
C1088 C1087 1.524 . S
C1089 C1086 1.403 . S
C1089 C1090 1.392 . S
C1089 C1093 1.495 . S
C1090 C1089 1.392 . S
C1090 C1091 1.385 . S
C1090 C1092 1.478 . S
C1091 H1085 0.930 . S
C1091 C1087 1.400 . S
C1091 C1090 1.385 . S
C1092 C1090 1.478 . S
C1092 C1094 1.381 . S
C1092 C1098 1.383 . S
C1093 C1089 1.495 . S
C1093 H1099 0.959 . S
C1093 H1100 0.961 . S
C1093 H1101 0.960 . S
C1094 C1092 1.381 . S
C1094 C1095 1.394 . S
C1094 H1102 0.930 . S
C1095 C1094 1.394 . S
C1095 C1096 1.383 . S
C1095 H1103 0.929 . S
C1096 C1095 1.383 . S
C1096 C1097 1.377 . S
C1097 H1081 0.930 . S
C1097 C1096 1.377 . S
C1097 C1098 1.379 . S
C1098 H1082 0.931 . S
C1098 C1092 1.383 . S
C1098 C1097 1.379 . S
H1099 C1093 0.959 . S
H1100 C1093 0.961 . S
H1101 C1093 0.960 . S
H1102 C1094 0.930 . S
H1103 C1095 0.929 . S
H1104 C1112 0.929 . S
H1105 C1114 0.930 . S
H1106 C1116 0.930 . S
H1107 C1119 0.929 . S
H1108 C1122 0.930 . S
H1109 C1124 0.960 . S
H1110 C1124 0.960 . S
H1111 C1124 0.960 . S
C1112 H1104 0.929 . S
C1112 C1113 1.377 . S
C1112 C1114 1.384 . S
C1113 C1112 1.377 . S
C1113 C1119 1.390 . S
C1114 H1105 0.930 . S
C1114 C1112 1.384 . S
C1114 C1115 1.372 . S
C1115 C1114 1.372 . S
C1115 C1116 1.400 . S
C1115 C1120 1.490 . S
C1116 H1106 0.930 . S
C1116 C1115 1.400 . S
C1116 C1119 1.386 . S
H1117 C1133 0.930 . S
H1118 C1134 0.931 . S
C1119 H1107 0.929 . S
C1119 C1113 1.390 . S
C1119 C1116 1.386 . S
C1120 C1115 1.490 . S
C1120 C1122 1.395 . S
C1120 C1123 1.403 . S
H1121 C1127 0.930 . S
C1122 H1108 0.930 . S
C1122 C1120 1.395 . S
C1122 C1125 1.403 . S
C1123 C1120 1.403 . S
C1123 C1124 1.524 . S
C1123 C1127 1.400 . S
C1124 H1109 0.960 . S
C1124 H1110 0.960 . S
C1124 H1111 0.960 . S
C1124 C1123 1.524 . S
C1125 C1122 1.403 . S
C1125 C1126 1.392 . S
C1125 C1129 1.495 . S
C1126 C1125 1.392 . S
C1126 C1127 1.385 . S
C1126 C1128 1.478 . S
C1127 H1121 0.930 . S
C1127 C1123 1.400 . S
C1127 C1126 1.385 . S
C1128 C1126 1.478 . S
C1128 C1130 1.381 . S
C1128 C1134 1.383 . S
C1129 C1125 1.495 . S
C1129 H1135 0.959 . S
C1129 H1136 0.961 . S
C1129 H1137 0.960 . S
C1130 C1128 1.381 . S
C1130 C1131 1.394 . S
C1130 H1138 0.930 . S
C1131 C1130 1.394 . S
C1131 C1132 1.383 . S
C1131 H1139 0.929 . S
C1132 C1131 1.383 . S
C1132 C1133 1.377 . S
C1133 H1117 0.930 . S
C1133 C1132 1.377 . S
C1133 C1134 1.379 . S
C1134 H1118 0.931 . S
C1134 C1128 1.383 . S
C1134 C1133 1.379 . S
H1135 C1129 0.959 . S
H1136 C1129 0.961 . S
H1137 C1129 0.960 . S
H1138 C1130 0.930 . S
H1139 C1131 0.929 . S
H1140 C1148 0.929 . S
H1141 C1150 0.930 . S
H1142 C1152 0.930 . S
H1143 C1155 0.929 . S
H1144 C1158 0.930 . S
H1145 C1160 0.960 . S
H1146 C1160 0.960 . S
H1147 C1160 0.960 . S
C1148 H1140 0.929 . S
C1148 C1149 1.377 . S
C1148 C1150 1.384 . S
C1149 C1148 1.377 . S
C1149 C1155 1.390 . S
C1150 H1141 0.930 . S
C1150 C1148 1.384 . S
C1150 C1151 1.372 . S
C1151 C1150 1.372 . S
C1151 C1152 1.400 . S
C1151 C1156 1.490 . S
C1152 H1142 0.930 . S
C1152 C1151 1.400 . S
C1152 C1155 1.386 . S
H1153 C1169 0.930 . S
H1154 C1170 0.931 . S
C1155 H1143 0.929 . S
C1155 C1149 1.390 . S
C1155 C1152 1.386 . S
C1156 C1151 1.490 . S
C1156 C1158 1.395 . S
C1156 C1159 1.403 . S
H1157 C1163 0.930 . S
C1158 H1144 0.930 . S
C1158 C1156 1.395 . S
C1158 C1161 1.403 . S
C1159 C1156 1.403 . S
C1159 C1160 1.524 . S
C1159 C1163 1.400 . S
C1160 H1145 0.960 . S
C1160 H1146 0.960 . S
C1160 H1147 0.960 . S
C1160 C1159 1.524 . S
C1161 C1158 1.403 . S
C1161 C1162 1.392 . S
C1161 C1165 1.495 . S
C1162 C1161 1.392 . S
C1162 C1163 1.385 . S
C1162 C1164 1.478 . S
C1163 H1157 0.930 . S
C1163 C1159 1.400 . S
C1163 C1162 1.385 . S
C1164 C1162 1.478 . S
C1164 C1166 1.381 . S
C1164 C1170 1.383 . S
C1165 C1161 1.495 . S
C1165 H1171 0.959 . S
C1165 H1172 0.961 . S
C1165 H1173 0.960 . S
C1166 C1164 1.381 . S
C1166 C1167 1.394 . S
C1166 H1174 0.930 . S
C1167 C1166 1.394 . S
C1167 C1168 1.383 . S
C1167 H1175 0.929 . S
C1168 C1167 1.383 . S
C1168 C1169 1.377 . S
C1169 H1153 0.930 . S
C1169 C1168 1.377 . S
C1169 C1170 1.379 . S
C1170 H1154 0.931 . S
C1170 C1164 1.383 . S
C1170 C1169 1.379 . S
H1171 C1165 0.959 . S
H1172 C1165 0.961 . S
H1173 C1165 0.960 . S
H1174 C1166 0.930 . S
H1175 C1167 0.929 . S
H1176 C1184 0.929 . S
H1177 C1186 0.930 . S
H1178 C1188 0.930 . S
H1179 C1191 0.929 . S
H1180 C1194 0.930 . S
H1181 C1196 0.960 . S
H1182 C1196 0.960 . S
H1183 C1196 0.960 . S
C1184 H1176 0.929 . S
C1184 C1185 1.377 . S
C1184 C1186 1.384 . S
C1185 C1184 1.377 . S
C1185 C1191 1.390 . S
C1186 H1177 0.930 . S
C1186 C1184 1.384 . S
C1186 C1187 1.372 . S
C1187 C1186 1.372 . S
C1187 C1188 1.400 . S
C1187 C1192 1.490 . S
C1188 H1178 0.930 . S
C1188 C1187 1.400 . S
C1188 C1191 1.386 . S
H1189 C1205 0.930 . S
H1190 C1206 0.931 . S
C1191 H1179 0.929 . S
C1191 C1185 1.390 . S
C1191 C1188 1.386 . S
C1192 C1187 1.490 . S
C1192 C1194 1.395 . S
C1192 C1195 1.403 . S
H1193 C1199 0.930 . S
C1194 H1180 0.930 . S
C1194 C1192 1.395 . S
C1194 C1197 1.403 . S
C1195 C1192 1.403 . S
C1195 C1196 1.524 . S
C1195 C1199 1.400 . S
C1196 H1181 0.960 . S
C1196 H1182 0.960 . S
C1196 H1183 0.960 . S
C1196 C1195 1.524 . S
C1197 C1194 1.403 . S
C1197 C1198 1.392 . S
C1197 C1201 1.495 . S
C1198 C1197 1.392 . S
C1198 C1199 1.385 . S
C1198 C1200 1.478 . S
C1199 H1193 0.930 . S
C1199 C1195 1.400 . S
C1199 C1198 1.385 . S
C1200 C1198 1.478 . S
C1200 C1202 1.381 . S
C1200 C1206 1.383 . S
C1201 C1197 1.495 . S
C1201 H1207 0.959 . S
C1201 H1208 0.961 . S
C1201 H1209 0.960 . S
C1202 C1200 1.381 . S
C1202 C1203 1.394 . S
C1202 H1210 0.930 . S
C1203 C1202 1.394 . S
C1203 C1204 1.383 . S
C1203 H1211 0.929 . S
C1204 C1203 1.383 . S
C1204 C1205 1.377 . S
C1205 H1189 0.930 . S
C1205 C1204 1.377 . S
C1205 C1206 1.379 . S
C1206 H1190 0.931 . S
C1206 C1200 1.383 . S
C1206 C1205 1.379 . S
H1207 C1201 0.959 . S
H1208 C1201 0.961 . S
H1209 C1201 0.960 . S
H1210 C1202 0.930 . S
H1211 C1203 0.929 . S
H1212 C1220 0.929 . S
H1213 C1222 0.930 . S
H1214 C1224 0.930 . S
H1215 C1227 0.929 . S
H1216 C1230 0.930 . S
H1217 C1232 0.960 . S
H1218 C1232 0.960 . S
H1219 C1232 0.960 . S
C1220 H1212 0.929 . S
C1220 C1221 1.377 . S
C1220 C1222 1.384 . S
C1221 C1220 1.377 . S
C1221 C1227 1.390 . S
C1222 H1213 0.930 . S
C1222 C1220 1.384 . S
C1222 C1223 1.372 . S
C1223 C1222 1.372 . S
C1223 C1224 1.400 . S
C1223 C1228 1.490 . S
C1224 H1214 0.930 . S
C1224 C1223 1.400 . S
C1224 C1227 1.386 . S
H1225 C1241 0.930 . S
H1226 C1242 0.931 . S
C1227 H1215 0.929 . S
C1227 C1221 1.390 . S
C1227 C1224 1.386 . S
C1228 C1223 1.490 . S
C1228 C1230 1.395 . S
C1228 C1231 1.403 . S
H1229 C1235 0.930 . S
C1230 H1216 0.930 . S
C1230 C1228 1.395 . S
C1230 C1233 1.403 . S
C1231 C1228 1.403 . S
C1231 C1232 1.524 . S
C1231 C1235 1.400 . S
C1232 H1217 0.960 . S
C1232 H1218 0.960 . S
C1232 H1219 0.960 . S
C1232 C1231 1.524 . S
C1233 C1230 1.403 . S
C1233 C1234 1.392 . S
C1233 C1237 1.495 . S
C1234 C1233 1.392 . S
C1234 C1235 1.385 . S
C1234 C1236 1.478 . S
C1235 H1229 0.930 . S
C1235 C1231 1.400 . S
C1235 C1234 1.385 . S
C1236 C1234 1.478 . S
C1236 C1238 1.381 . S
C1236 C1242 1.383 . S
C1237 C1233 1.495 . S
C1237 H1243 0.959 . S
C1237 H1244 0.961 . S
C1237 H1245 0.960 . S
C1238 C1236 1.381 . S
C1238 C1239 1.394 . S
C1238 H1246 0.930 . S
C1239 C1238 1.394 . S
C1239 C1240 1.383 . S
C1239 H1247 0.929 . S
C1240 C1239 1.383 . S
C1240 C1241 1.377 . S
C1241 H1225 0.930 . S
C1241 C1240 1.377 . S
C1241 C1242 1.379 . S
C1242 H1226 0.931 . S
C1242 C1236 1.383 . S
C1242 C1241 1.379 . S
H1243 C1237 0.959 . S
H1244 C1237 0.961 . S
H1245 C1237 0.960 . S
H1246 C1238 0.930 . S
H1247 C1239 0.929 . S
H1248 C1256 0.929 . S
H1249 C1258 0.930 . S
H1250 C1260 0.930 . S
H1251 C1263 0.929 . S
H1252 C1266 0.930 . S
H1253 C1268 0.960 . S
H1254 C1268 0.960 . S
H1255 C1268 0.960 . S
C1256 H1248 0.929 . S
C1256 C1257 1.377 . S
C1256 C1258 1.384 . S
C1257 C1256 1.377 . S
C1257 C1263 1.390 . S
C1258 H1249 0.930 . S
C1258 C1256 1.384 . S
C1258 C1259 1.372 . S
C1259 C1258 1.372 . S
C1259 C1260 1.400 . S
C1259 C1264 1.490 . S
C1260 H1250 0.930 . S
C1260 C1259 1.400 . S
C1260 C1263 1.386 . S
H1261 C1277 0.930 . S
H1262 C1278 0.931 . S
C1263 H1251 0.929 . S
C1263 C1257 1.390 . S
C1263 C1260 1.386 . S
C1264 C1259 1.490 . S
C1264 C1266 1.395 . S
C1264 C1267 1.403 . S
H1265 C1271 0.930 . S
C1266 H1252 0.930 . S
C1266 C1264 1.395 . S
C1266 C1269 1.403 . S
C1267 C1264 1.403 . S
C1267 C1268 1.524 . S
C1267 C1271 1.400 . S
C1268 H1253 0.960 . S
C1268 H1254 0.960 . S
C1268 H1255 0.960 . S
C1268 C1267 1.524 . S
C1269 C1266 1.403 . S
C1269 C1270 1.392 . S
C1269 C1273 1.495 . S
C1270 C1269 1.392 . S
C1270 C1271 1.385 . S
C1270 C1272 1.478 . S
C1271 H1265 0.930 . S
C1271 C1267 1.400 . S
C1271 C1270 1.385 . S
C1272 C1270 1.478 . S
C1272 C1274 1.381 . S
C1272 C1278 1.383 . S
C1273 C1269 1.495 . S
C1273 H1279 0.959 . S
C1273 H1280 0.961 . S
C1273 H1281 0.960 . S
C1274 C1272 1.381 . S
C1274 C1275 1.394 . S
C1274 H1282 0.930 . S
C1275 C1274 1.394 . S
C1275 C1276 1.383 . S
C1275 H1283 0.929 . S
C1276 C1275 1.383 . S
C1276 C1277 1.377 . S
C1277 H1261 0.930 . S
C1277 C1276 1.377 . S
C1277 C1278 1.379 . S
C1278 H1262 0.931 . S
C1278 C1272 1.383 . S
C1278 C1277 1.379 . S
H1279 C1273 0.959 . S
H1280 C1273 0.961 . S
H1281 C1273 0.960 . S
H1282 C1274 0.930 . S
H1283 C1275 0.929 . S
H1284 C1292 0.929 . S
H1285 C1294 0.930 . S
H1286 C1296 0.930 . S
H1287 C1299 0.929 . S
H1288 C1302 0.930 . S
H1289 C1304 0.960 . S
H1290 C1304 0.960 . S
H1291 C1304 0.960 . S
C1292 H1284 0.929 . S
C1292 C1293 1.377 . S
C1292 C1294 1.384 . S
C1293 C1292 1.377 . S
C1293 C1299 1.390 . S
C1294 H1285 0.930 . S
C1294 C1292 1.384 . S
C1294 C1295 1.372 . S
C1295 C1294 1.372 . S
C1295 C1296 1.400 . S
C1295 C1300 1.490 . S
C1296 H1286 0.930 . S
C1296 C1295 1.400 . S
C1296 C1299 1.386 . S
H1297 C1313 0.930 . S
H1298 C1314 0.931 . S
C1299 H1287 0.929 . S
C1299 C1293 1.390 . S
C1299 C1296 1.386 . S
C1300 C1295 1.490 . S
C1300 C1302 1.395 . S
C1300 C1303 1.403 . S
H1301 C1307 0.930 . S
C1302 H1288 0.930 . S
C1302 C1300 1.395 . S
C1302 C1305 1.403 . S
C1303 C1300 1.403 . S
C1303 C1304 1.524 . S
C1303 C1307 1.400 . S
C1304 H1289 0.960 . S
C1304 H1290 0.960 . S
C1304 H1291 0.960 . S
C1304 C1303 1.524 . S
C1305 C1302 1.403 . S
C1305 C1306 1.392 . S
C1305 C1309 1.495 . S
C1306 C1305 1.392 . S
C1306 C1307 1.385 . S
C1306 C1308 1.478 . S
C1307 H1301 0.930 . S
C1307 C1303 1.400 . S
C1307 C1306 1.385 . S
C1308 C1306 1.478 . S
C1308 C1310 1.381 . S
C1308 C1314 1.383 . S
C1309 C1305 1.495 . S
C1309 H1315 0.959 . S
C1309 H1316 0.961 . S
C1309 H1317 0.960 . S
C1310 C1308 1.381 . S
C1310 C1311 1.394 . S
C1310 H1318 0.930 . S
C1311 C1310 1.394 . S
C1311 C1312 1.383 . S
C1311 H1319 0.929 . S
C1312 C1311 1.383 . S
C1312 C1313 1.377 . S
C1313 H1297 0.930 . S
C1313 C1312 1.377 . S
C1313 C1314 1.379 . S
C1314 H1298 0.931 . S
C1314 C1308 1.383 . S
C1314 C1313 1.379 . S
H1315 C1309 0.959 . S
H1316 C1309 0.961 . S
H1317 C1309 0.960 . S
H1318 C1310 0.930 . S
H1319 C1311 0.929 . S
H1320 C1328 0.929 . S
H1321 C1330 0.930 . S
H1322 C1332 0.930 . S
H1323 C1335 0.929 . S
H1324 C1338 0.930 . S
H1325 C1340 0.960 . S
H1326 C1340 0.960 . S
H1327 C1340 0.960 . S
C1328 H1320 0.929 . S
C1328 C1329 1.377 . S
C1328 C1330 1.384 . S
C1329 C1328 1.377 . S
C1329 C1335 1.390 . S
C1330 H1321 0.930 . S
C1330 C1328 1.384 . S
C1330 C1331 1.372 . S
C1331 C1330 1.372 . S
C1331 C1332 1.400 . S
C1331 C1336 1.490 . S
C1332 H1322 0.930 . S
C1332 C1331 1.400 . S
C1332 C1335 1.386 . S
H1333 C1349 0.930 . S
H1334 C1350 0.931 . S
C1335 H1323 0.929 . S
C1335 C1329 1.390 . S
C1335 C1332 1.386 . S
C1336 C1331 1.490 . S
C1336 C1338 1.395 . S
C1336 C1339 1.403 . S
H1337 C1343 0.930 . S
C1338 H1324 0.930 . S
C1338 C1336 1.395 . S
C1338 C1341 1.403 . S
C1339 C1336 1.403 . S
C1339 C1340 1.524 . S
C1339 C1343 1.400 . S
C1340 H1325 0.960 . S
C1340 H1326 0.960 . S
C1340 H1327 0.960 . S
C1340 C1339 1.524 . S
C1341 C1338 1.403 . S
C1341 C1342 1.392 . S
C1341 C1345 1.495 . S
C1342 C1341 1.392 . S
C1342 C1343 1.385 . S
C1342 C1344 1.478 . S
C1343 H1337 0.930 . S
C1343 C1339 1.400 . S
C1343 C1342 1.385 . S
C1344 C1342 1.478 . S
C1344 C1346 1.381 . S
C1344 C1350 1.383 . S
C1345 C1341 1.495 . S
C1345 H1351 0.959 . S
C1345 H1352 0.961 . S
C1345 H1353 0.960 . S
C1346 C1344 1.381 . S
C1346 C1347 1.394 . S
C1346 H1354 0.930 . S
C1347 C1346 1.394 . S
C1347 C1348 1.383 . S
C1347 H1355 0.929 . S
C1348 C1347 1.383 . S
C1348 C1349 1.377 . S
C1349 H1333 0.930 . S
C1349 C1348 1.377 . S
C1349 C1350 1.379 . S
C1350 H1334 0.931 . S
C1350 C1344 1.383 . S
C1350 C1349 1.379 . S
H1351 C1345 0.959 . S
H1352 C1345 0.961 . S
H1353 C1345 0.960 . S
H1354 C1346 0.930 . S
H1355 C1347 0.929 . S
H1356 C1364 0.929 . S
H1357 C1366 0.930 . S
H1358 C1368 0.930 . S
H1359 C1371 0.929 . S
H1360 C1374 0.930 . S
H1361 C1376 0.960 . S
H1362 C1376 0.960 . S
H1363 C1376 0.960 . S
C1364 H1356 0.929 . S
C1364 C1365 1.377 . S
C1364 C1366 1.384 . S
C1365 C1364 1.377 . S
C1365 C1371 1.390 . S
C1366 H1357 0.930 . S
C1366 C1364 1.384 . S
C1366 C1367 1.372 . S
C1367 C1366 1.372 . S
C1367 C1368 1.400 . S
C1367 C1372 1.490 . S
C1368 H1358 0.930 . S
C1368 C1367 1.400 . S
C1368 C1371 1.386 . S
H1369 C1385 0.930 . S
H1370 C1386 0.931 . S
C1371 H1359 0.929 . S
C1371 C1365 1.390 . S
C1371 C1368 1.386 . S
C1372 C1367 1.490 . S
C1372 C1374 1.395 . S
C1372 C1375 1.403 . S
H1373 C1379 0.930 . S
C1374 H1360 0.930 . S
C1374 C1372 1.395 . S
C1374 C1377 1.403 . S
C1375 C1372 1.403 . S
C1375 C1376 1.524 . S
C1375 C1379 1.400 . S
C1376 H1361 0.960 . S
C1376 H1362 0.960 . S
C1376 H1363 0.960 . S
C1376 C1375 1.524 . S
C1377 C1374 1.403 . S
C1377 C1378 1.392 . S
C1377 C1381 1.495 . S
C1378 C1377 1.392 . S
C1378 C1379 1.385 . S
C1378 C1380 1.478 . S
C1379 H1373 0.930 . S
C1379 C1375 1.400 . S
C1379 C1378 1.385 . S
C1380 C1378 1.478 . S
C1380 C1382 1.381 . S
C1380 C1386 1.383 . S
C1381 C1377 1.495 . S
C1381 H1387 0.959 . S
C1381 H1388 0.961 . S
C1381 H1389 0.960 . S
C1382 C1380 1.381 . S
C1382 C1383 1.394 . S
C1382 H1390 0.930 . S
C1383 C1382 1.394 . S
C1383 C1384 1.383 . S
C1383 H1391 0.929 . S
C1384 C1383 1.383 . S
C1384 C1385 1.377 . S
C1385 H1369 0.930 . S
C1385 C1384 1.377 . S
C1385 C1386 1.379 . S
C1386 H1370 0.931 . S
C1386 C1380 1.383 . S
C1386 C1385 1.379 . S
H1387 C1381 0.959 . S
H1388 C1381 0.961 . S
H1389 C1381 0.960 . S
H1390 C1382 0.930 . S
H1391 C1383 0.929 . S
H1392 C1400 0.929 . S
H1393 C1402 0.930 . S
H1394 C1404 0.930 . S
H1395 C1407 0.929 . S
H1396 C1410 0.930 . S
H1397 C1412 0.960 . S
H1398 C1412 0.960 . S
H1399 C1412 0.960 . S
C1400 H1392 0.929 . S
C1400 C1401 1.377 . S
C1400 C1402 1.384 . S
C1401 C1400 1.377 . S
C1401 C1407 1.390 . S
C1402 H1393 0.930 . S
C1402 C1400 1.384 . S
C1402 C1403 1.372 . S
C1403 C1402 1.372 . S
C1403 C1404 1.400 . S
C1403 C1408 1.490 . S
C1404 H1394 0.930 . S
C1404 C1403 1.400 . S
C1404 C1407 1.386 . S
H1405 C1421 0.930 . S
H1406 C1422 0.931 . S
C1407 H1395 0.929 . S
C1407 C1401 1.390 . S
C1407 C1404 1.386 . S
C1408 C1403 1.490 . S
C1408 C1410 1.395 . S
C1408 C1411 1.403 . S
H1409 C1415 0.930 . S
C1410 H1396 0.930 . S
C1410 C1408 1.395 . S
C1410 C1413 1.403 . S
C1411 C1408 1.403 . S
C1411 C1412 1.524 . S
C1411 C1415 1.400 . S
C1412 H1397 0.960 . S
C1412 H1398 0.960 . S
C1412 H1399 0.960 . S
C1412 C1411 1.524 . S
C1413 C1410 1.403 . S
C1413 C1414 1.392 . S
C1413 C1417 1.495 . S
C1414 C1413 1.392 . S
C1414 C1415 1.385 . S
C1414 C1416 1.478 . S
C1415 H1409 0.930 . S
C1415 C1411 1.400 . S
C1415 C1414 1.385 . S
C1416 C1414 1.478 . S
C1416 C1418 1.381 . S
C1416 C1422 1.383 . S
C1417 C1413 1.495 . S
C1417 H1423 0.959 . S
C1417 H1424 0.961 . S
C1417 H1425 0.960 . S
C1418 C1416 1.381 . S
C1418 C1419 1.394 . S
C1418 H1426 0.930 . S
C1419 C1418 1.394 . S
C1419 C1420 1.383 . S
C1419 H1427 0.929 . S
C1420 C1419 1.383 . S
C1420 C1421 1.377 . S
C1421 H1405 0.930 . S
C1421 C1420 1.377 . S
C1421 C1422 1.379 . S
C1422 H1406 0.931 . S
C1422 C1416 1.383 . S
C1422 C1421 1.379 . S
H1423 C1417 0.959 . S
H1424 C1417 0.961 . S
H1425 C1417 0.960 . S
H1426 C1418 0.930 . S
H1427 C1419 0.929 . S
H1428 C1436 0.929 . S
H1429 C1438 0.930 . S
H1430 C1440 0.930 . S
H1431 C1443 0.929 . S
H1432 C1446 0.930 . S
H1433 C1448 0.960 . S
H1434 C1448 0.960 . S
H1435 C1448 0.960 . S
C1436 H1428 0.929 . S
C1436 C1437 1.377 . S
C1436 C1438 1.384 . S
C1437 C1436 1.377 . S
C1437 C1443 1.390 . S
C1438 H1429 0.930 . S
C1438 C1436 1.384 . S
C1438 C1439 1.372 . S
C1439 C1438 1.372 . S
C1439 C1440 1.400 . S
C1439 C1444 1.490 . S
C1440 H1430 0.930 . S
C1440 C1439 1.400 . S
C1440 C1443 1.386 . S
H1441 C1457 0.930 . S
H1442 C1458 0.931 . S
C1443 H1431 0.929 . S
C1443 C1437 1.390 . S
C1443 C1440 1.386 . S
C1444 C1439 1.490 . S
C1444 C1446 1.395 . S
C1444 C1447 1.403 . S
H1445 C1451 0.930 . S
C1446 H1432 0.930 . S
C1446 C1444 1.395 . S
C1446 C1449 1.403 . S
C1447 C1444 1.403 . S
C1447 C1448 1.524 . S
C1447 C1451 1.400 . S
C1448 H1433 0.960 . S
C1448 H1434 0.960 . S
C1448 H1435 0.960 . S
C1448 C1447 1.524 . S
C1449 C1446 1.403 . S
C1449 C1450 1.392 . S
C1449 C1453 1.495 . S
C1450 C1449 1.392 . S
C1450 C1451 1.385 . S
C1450 C1452 1.478 . S
C1451 H1445 0.930 . S
C1451 C1447 1.400 . S
C1451 C1450 1.385 . S
C1452 C1450 1.478 . S
C1452 C1454 1.381 . S
C1452 C1458 1.383 . S
C1453 C1449 1.495 . S
C1453 H1459 0.959 . S
C1453 H1460 0.961 . S
C1453 H1461 0.960 . S
C1454 C1452 1.381 . S
C1454 C1455 1.394 . S
C1454 H1462 0.930 . S
C1455 C1454 1.394 . S
C1455 C1456 1.383 . S
C1455 H1463 0.929 1_556 S
C1456 C1455 1.383 . S
C1456 C1457 1.377 . S
C1457 H1441 0.930 . S
C1457 C1456 1.377 . S
C1457 C1458 1.379 . S
C1458 H1442 0.931 . S
C1458 C1452 1.383 . S
C1458 C1457 1.379 . S
H1459 C1453 0.959 . S
H1460 C1453 0.961 . S
H1461 C1453 0.960 . S
H1462 C1454 0.930 . S
H1463 C1455 0.929 1_554 S
H1464 C1472 0.929 . S
H1465 C1474 0.930 . S
H1466 C1476 0.930 . S
H1467 C1479 0.929 . S
H1468 C1482 0.930 . S
H1469 C1484 0.960 . S
H1470 C1484 0.960 . S
H1471 C1484 0.960 . S
C1472 H1464 0.929 . S
C1472 C1473 1.377 . S
C1472 C1474 1.384 . S
C1473 C1472 1.377 . S
C1473 C1479 1.390 . S
C1474 H1465 0.930 . S
C1474 C1472 1.384 . S
C1474 C1475 1.372 . S
C1475 C1474 1.372 . S
C1475 C1476 1.400 . S
C1475 C1480 1.490 . S
C1476 H1466 0.930 . S
C1476 C1475 1.400 . S
C1476 C1479 1.386 . S
H1477 C1493 0.930 . S
H1478 C1494 0.931 . S
C1479 H1467 0.929 . S
C1479 C1473 1.390 . S
C1479 C1476 1.386 . S
C1480 C1475 1.490 . S
C1480 C1482 1.395 . S
C1480 C1483 1.403 . S
H1481 C1487 0.930 . S
C1482 H1468 0.930 . S
C1482 C1480 1.395 . S
C1482 C1485 1.403 . S
C1483 C1480 1.403 . S
C1483 C1484 1.524 . S
C1483 C1487 1.400 . S
C1484 H1469 0.960 . S
C1484 H1470 0.960 . S
C1484 H1471 0.960 . S
C1484 C1483 1.524 . S
C1485 C1482 1.403 . S
C1485 C1486 1.392 . S
C1485 C1489 1.495 . S
C1486 C1485 1.392 . S
C1486 C1487 1.385 . S
C1486 C1488 1.478 . S
C1487 H1481 0.930 . S
C1487 C1483 1.400 . S
C1487 C1486 1.385 . S
C1488 C1486 1.478 . S
C1488 C1490 1.381 . S
C1488 C1494 1.383 . S
C1489 C1485 1.495 . S
C1489 H1495 0.959 . S
C1489 H1496 0.961 . S
C1489 H1497 0.960 . S
C1490 C1488 1.381 . S
C1490 C1491 1.394 . S
C1490 H1498 0.930 . S
C1491 C1490 1.394 . S
C1491 C1492 1.383 . S
C1491 H1499 0.929 . S
C1492 C1491 1.383 . S
C1492 C1493 1.377 . S
C1493 H1477 0.930 . S
C1493 C1492 1.377 . S
C1493 C1494 1.379 . S
C1494 H1478 0.931 . S
C1494 C1488 1.383 . S
C1494 C1493 1.379 . S
H1495 C1489 0.959 . S
H1496 C1489 0.961 . S
H1497 C1489 0.960 . S
H1498 C1490 0.930 . S
H1499 C1491 0.929 . S
H1500 C1508 0.929 . S
H1501 C1510 0.930 . S
H1502 C1512 0.930 . S
H1503 C1515 0.929 . S
H1504 C1518 0.930 . S
H1505 C1520 0.960 . S
H1506 C1520 0.960 . S
H1507 C1520 0.960 . S
C1508 H1500 0.929 . S
C1508 C1509 1.377 . S
C1508 C1510 1.384 . S
C1509 C1508 1.377 . S
C1509 C1515 1.390 . S
C1510 H1501 0.930 . S
C1510 C1508 1.384 . S
C1510 C1511 1.372 . S
C1511 C1510 1.372 . S
C1511 C1512 1.400 . S
C1511 C1516 1.490 . S
C1512 H1502 0.930 . S
C1512 C1511 1.400 . S
C1512 C1515 1.386 . S
H1513 C1529 0.930 . S
H1514 C1530 0.931 . S
C1515 H1503 0.929 . S
C1515 C1509 1.390 . S
C1515 C1512 1.386 . S
C1516 C1511 1.490 . S
C1516 C1518 1.395 . S
C1516 C1519 1.403 . S
H1517 C1523 0.930 . S
C1518 H1504 0.930 . S
C1518 C1516 1.395 . S
C1518 C1521 1.403 . S
C1519 C1516 1.403 . S
C1519 C1520 1.524 . S
C1519 C1523 1.400 . S
C1520 H1505 0.960 . S
C1520 H1506 0.960 . S
C1520 H1507 0.960 . S
C1520 C1519 1.524 . S
C1521 C1518 1.403 . S
C1521 C1522 1.392 . S
C1521 C1525 1.495 . S
C1522 C1521 1.392 . S
C1522 C1523 1.385 . S
C1522 C1524 1.478 . S
C1523 H1517 0.930 . S
C1523 C1519 1.400 . S
C1523 C1522 1.385 . S
C1524 C1522 1.478 . S
C1524 C1526 1.381 . S
C1524 C1530 1.383 . S
C1525 C1521 1.495 . S
C1525 H1531 0.959 . S
C1525 H1532 0.961 . S
C1525 H1533 0.960 . S
C1526 C1524 1.381 . S
C1526 C1527 1.394 . S
C1526 H1534 0.930 . S
C1527 C1526 1.394 . S
C1527 C1528 1.383 . S
C1527 H1535 0.929 . S
C1528 C1527 1.383 . S
C1528 C1529 1.377 . S
C1529 H1513 0.930 . S
C1529 C1528 1.377 . S
C1529 C1530 1.379 . S
C1530 H1514 0.931 . S
C1530 C1524 1.383 . S
C1530 C1529 1.379 . S
H1531 C1525 0.959 . S
H1532 C1525 0.961 . S
H1533 C1525 0.960 . S
H1534 C1526 0.930 . S
H1535 C1527 0.929 . S
H1536 C1544 0.929 . S
H1537 C1546 0.930 . S
H1538 C1548 0.930 . S
H1539 C1551 0.929 . S
H1540 C1554 0.930 . S
H1541 C1556 0.960 . S
H1542 C1556 0.960 . S
H1543 C1556 0.960 . S
C1544 H1536 0.929 . S
C1544 C1545 1.377 . S
C1544 C1546 1.384 . S
C1545 C1544 1.377 . S
C1545 C1551 1.390 . S
C1546 H1537 0.930 . S
C1546 C1544 1.384 . S
C1546 C1547 1.372 . S
C1547 C1546 1.372 . S
C1547 C1548 1.400 . S
C1547 C1552 1.490 . S
C1548 H1538 0.930 . S
C1548 C1547 1.400 . S
C1548 C1551 1.386 . S
H1549 C1565 0.930 . S
H1550 C1566 0.931 . S
C1551 H1539 0.929 . S
C1551 C1545 1.390 . S
C1551 C1548 1.386 . S
C1552 C1547 1.490 . S
C1552 C1554 1.395 . S
C1552 C1555 1.403 . S
H1553 C1559 0.930 . S
C1554 H1540 0.930 . S
C1554 C1552 1.395 . S
C1554 C1557 1.403 . S
C1555 C1552 1.403 . S
C1555 C1556 1.524 . S
C1555 C1559 1.400 . S
C1556 H1541 0.960 . S
C1556 H1542 0.960 . S
C1556 H1543 0.960 . S
C1556 C1555 1.524 . S
C1557 C1554 1.403 . S
C1557 C1558 1.392 . S
C1557 C1561 1.495 . S
C1558 C1557 1.392 . S
C1558 C1559 1.385 . S
C1558 C1560 1.478 . S
C1559 H1553 0.930 . S
C1559 C1555 1.400 . S
C1559 C1558 1.385 . S
C1560 C1558 1.478 . S
C1560 C1562 1.381 . S
C1560 C1566 1.383 . S
C1561 C1557 1.495 . S
C1561 H1567 0.959 . S
C1561 H1568 0.961 . S
C1561 H1569 0.960 . S
C1562 C1560 1.381 . S
C1562 C1563 1.394 . S
C1562 H1570 0.930 . S
C1563 C1562 1.394 . S
C1563 C1564 1.383 . S
C1563 H1571 0.929 . S
C1564 C1563 1.383 . S
C1564 C1565 1.377 . S
C1565 H1549 0.930 . S
C1565 C1564 1.377 . S
C1565 C1566 1.379 . S
C1566 H1550 0.931 . S
C1566 C1560 1.383 . S
C1566 C1565 1.379 . S
H1567 C1561 0.959 . S
H1568 C1561 0.961 . S
H1569 C1561 0.960 . S
H1570 C1562 0.930 . S
H1571 C1563 0.929 . S
H1572 C1580 0.929 . S
H1573 C1582 0.930 . S
H1574 C1584 0.930 . S
H1575 C1587 0.929 . S
H1576 C1590 0.930 . S
H1577 C1592 0.960 . S
H1578 C1592 0.960 . S
H1579 C1592 0.960 . S
C1580 H1572 0.929 . S
C1580 C1581 1.377 . S
C1580 C1582 1.384 . S
C1581 C1580 1.377 . S
C1581 C1587 1.390 . S
C1582 H1573 0.930 . S
C1582 C1580 1.384 . S
C1582 C1583 1.372 . S
C1583 C1582 1.372 . S
C1583 C1584 1.400 . S
C1583 C1588 1.490 . S
C1584 H1574 0.930 . S
C1584 C1583 1.400 . S
C1584 C1587 1.386 . S
H1585 C1601 0.930 . S
H1586 C1602 0.931 . S
C1587 H1575 0.929 . S
C1587 C1581 1.390 . S
C1587 C1584 1.386 . S
C1588 C1583 1.490 . S
C1588 C1590 1.395 . S
C1588 C1591 1.403 . S
H1589 C1595 0.930 . S
C1590 H1576 0.930 . S
C1590 C1588 1.395 . S
C1590 C1593 1.403 . S
C1591 C1588 1.403 . S
C1591 C1592 1.524 . S
C1591 C1595 1.400 . S
C1592 H1577 0.960 . S
C1592 H1578 0.960 . S
C1592 H1579 0.960 . S
C1592 C1591 1.524 . S
C1593 C1590 1.403 . S
C1593 C1594 1.392 . S
C1593 C1597 1.495 . S
C1594 C1593 1.392 . S
C1594 C1595 1.385 . S
C1594 C1596 1.478 . S
C1595 H1589 0.930 . S
C1595 C1591 1.400 . S
C1595 C1594 1.385 . S
C1596 C1594 1.478 . S
C1596 C1598 1.381 . S
C1596 C1602 1.383 . S
C1597 C1593 1.495 . S
C1597 H1603 0.959 . S
C1597 H1604 0.961 . S
C1597 H1605 0.960 . S
C1598 C1596 1.381 . S
C1598 C1599 1.394 . S
C1598 H1606 0.930 . S
C1599 C1598 1.394 . S
C1599 C1600 1.383 . S
C1599 H1607 0.929 . S
C1600 C1599 1.383 . S
C1600 C1601 1.377 . S
C1601 H1585 0.930 . S
C1601 C1600 1.377 . S
C1601 C1602 1.379 . S
C1602 H1586 0.931 . S
C1602 C1596 1.383 . S
C1602 C1601 1.379 . S
H1603 C1597 0.959 . S
H1604 C1597 0.961 . S
H1605 C1597 0.960 . S
H1606 C1598 0.930 . S
H1607 C1599 0.929 . S
H1608 C1616 0.929 . S
H1609 C1618 0.930 . S
H1610 C1620 0.930 . S
H1611 C1623 0.929 . S
H1612 C1626 0.930 . S
H1613 C1628 0.960 . S
H1614 C1628 0.960 . S
H1615 C1628 0.960 . S
C1616 H1608 0.929 . S
C1616 C1617 1.377 . S
C1616 C1618 1.384 . S
C1617 C1616 1.377 . S
C1617 C1623 1.390 . S
C1618 H1609 0.930 . S
C1618 C1616 1.384 . S
C1618 C1619 1.372 . S
C1619 C1618 1.372 . S
C1619 C1620 1.400 . S
C1619 C1624 1.490 . S
C1620 H1610 0.930 . S
C1620 C1619 1.400 . S
C1620 C1623 1.386 . S
H1621 C1637 0.930 . S
H1622 C1638 0.931 . S
C1623 H1611 0.929 . S
C1623 C1617 1.390 . S
C1623 C1620 1.386 . S
C1624 C1619 1.490 . S
C1624 C1626 1.395 . S
C1624 C1627 1.403 . S
H1625 C1631 0.930 . S
C1626 H1612 0.930 . S
C1626 C1624 1.395 . S
C1626 C1629 1.403 . S
C1627 C1624 1.403 . S
C1627 C1628 1.524 . S
C1627 C1631 1.400 . S
C1628 H1613 0.960 . S
C1628 H1614 0.960 . S
C1628 H1615 0.960 . S
C1628 C1627 1.524 . S
C1629 C1626 1.403 . S
C1629 C1630 1.392 . S
C1629 C1633 1.495 . S
C1630 C1629 1.392 . S
C1630 C1631 1.385 . S
C1630 C1632 1.478 . S
C1631 H1625 0.930 . S
C1631 C1627 1.400 . S
C1631 C1630 1.385 . S
C1632 C1630 1.478 . S
C1632 C1634 1.381 . S
C1632 C1638 1.383 . S
C1633 C1629 1.495 . S
C1633 H1639 0.959 . S
C1633 H1640 0.961 . S
C1633 H1641 0.960 . S
C1634 C1632 1.381 . S
C1634 C1635 1.394 . S
C1634 H1642 0.930 . S
C1635 C1634 1.394 . S
C1635 C1636 1.383 . S
C1635 H1643 0.929 . S
C1636 C1635 1.383 . S
C1636 C1637 1.377 . S
C1637 H1621 0.930 . S
C1637 C1636 1.377 . S
C1637 C1638 1.379 . S
C1638 H1622 0.931 . S
C1638 C1632 1.383 . S
C1638 C1637 1.379 . S
H1639 C1633 0.959 . S
H1640 C1633 0.961 . S
H1641 C1633 0.960 . S
H1642 C1634 0.930 . S
H1643 C1635 0.929 . S
H1644 C1652 0.929 . S
H1645 C1654 0.930 . S
H1646 C1656 0.930 . S
H1647 C1659 0.929 . S
H1648 C1662 0.930 . S
H1649 C1664 0.960 . S
H1650 C1664 0.960 . S
H1651 C1664 0.960 . S
C1652 H1644 0.929 . S
C1652 C1653 1.377 . S
C1652 C1654 1.384 . S
C1653 C1652 1.377 . S
C1653 C1659 1.390 . S
C1654 H1645 0.930 . S
C1654 C1652 1.384 . S
C1654 C1655 1.372 . S
C1655 C1654 1.372 . S
C1655 C1656 1.400 . S
C1655 C1660 1.490 . S
C1656 H1646 0.930 . S
C1656 C1655 1.400 . S
C1656 C1659 1.386 . S
H1657 C1673 0.930 . S
H1658 C1674 0.931 . S
C1659 H1647 0.929 . S
C1659 C1653 1.390 . S
C1659 C1656 1.386 . S
C1660 C1655 1.490 . S
C1660 C1662 1.395 . S
C1660 C1663 1.403 . S
H1661 C1667 0.930 . S
C1662 H1648 0.930 . S
C1662 C1660 1.395 . S
C1662 C1665 1.403 . S
C1663 C1660 1.403 . S
C1663 C1664 1.524 . S
C1663 C1667 1.400 . S
C1664 H1649 0.960 . S
C1664 H1650 0.960 . S
C1664 H1651 0.960 . S
C1664 C1663 1.524 . S
C1665 C1662 1.403 . S
C1665 C1666 1.392 . S
C1665 C1669 1.495 . S
C1666 C1665 1.392 . S
C1666 C1667 1.385 . S
C1666 C1668 1.478 . S
C1667 H1661 0.930 . S
C1667 C1663 1.400 . S
C1667 C1666 1.385 . S
C1668 C1666 1.478 . S
C1668 C1670 1.381 . S
C1668 C1674 1.383 . S
C1669 C1665 1.495 . S
C1669 H1675 0.959 . S
C1669 H1676 0.961 . S
C1669 H1677 0.960 . S
C1670 C1668 1.381 . S
C1670 C1671 1.394 . S
C1670 H1678 0.930 . S
C1671 C1670 1.394 . S
C1671 C1672 1.383 . S
C1671 H1679 0.929 . S
C1672 C1671 1.383 . S
C1672 C1673 1.377 . S
C1673 H1657 0.930 . S
C1673 C1672 1.377 . S
C1673 C1674 1.379 . S
C1674 H1658 0.931 . S
C1674 C1668 1.383 . S
C1674 C1673 1.379 . S
H1675 C1669 0.959 . S
H1676 C1669 0.961 . S
H1677 C1669 0.960 . S
H1678 C1670 0.930 . S
H1679 C1671 0.929 . S
H1680 C1688 0.929 . S
H1681 C1690 0.930 . S
H1682 C1692 0.930 . S
H1683 C1695 0.929 . S
H1684 C1698 0.930 . S
H1685 C1700 0.960 . S
H1686 C1700 0.960 . S
H1687 C1700 0.960 . S
C1688 H1680 0.929 . S
C1688 C1689 1.377 . S
C1688 C1690 1.384 . S
C1689 C1688 1.377 . S
C1689 C1695 1.390 . S
C1690 H1681 0.930 . S
C1690 C1688 1.384 . S
C1690 C1691 1.372 . S
C1691 C1690 1.372 . S
C1691 C1692 1.400 . S
C1691 C1696 1.490 . S
C1692 H1682 0.930 . S
C1692 C1691 1.400 . S
C1692 C1695 1.386 . S
H1693 C1709 0.930 . S
H1694 C1710 0.931 . S
C1695 H1683 0.929 . S
C1695 C1689 1.390 . S
C1695 C1692 1.386 . S
C1696 C1691 1.490 . S
C1696 C1698 1.395 . S
C1696 C1699 1.403 . S
H1697 C1703 0.930 . S
C1698 H1684 0.930 . S
C1698 C1696 1.395 . S
C1698 C1701 1.403 . S
C1699 C1696 1.403 . S
C1699 C1700 1.524 . S
C1699 C1703 1.400 . S
C1700 H1685 0.960 . S
C1700 H1686 0.960 . S
C1700 H1687 0.960 . S
C1700 C1699 1.524 . S
C1701 C1698 1.403 . S
C1701 C1702 1.392 . S
C1701 C1705 1.495 . S
C1702 C1701 1.392 . S
C1702 C1703 1.385 . S
C1702 C1704 1.478 . S
C1703 H1697 0.930 . S
C1703 C1699 1.400 . S
C1703 C1702 1.385 . S
C1704 C1702 1.478 . S
C1704 C1706 1.381 . S
C1704 C1710 1.383 . S
C1705 C1701 1.495 . S
C1705 H1711 0.959 . S
C1705 H1712 0.961 . S
C1705 H1713 0.960 . S
C1706 C1704 1.381 . S
C1706 C1707 1.394 . S
C1706 H1714 0.930 . S
C1707 C1706 1.394 . S
C1707 C1708 1.383 . S
C1707 H1715 0.929 . S
C1708 C1707 1.383 . S
C1708 C1709 1.377 . S
C1709 H1693 0.930 . S
C1709 C1708 1.377 . S
C1709 C1710 1.379 . S
C1710 H1694 0.931 . S
C1710 C1704 1.383 . S
C1710 C1709 1.379 . S
H1711 C1705 0.959 . S
H1712 C1705 0.961 . S
H1713 C1705 0.960 . S
H1714 C1706 0.930 . S
H1715 C1707 0.929 . S
H1716 C1724 0.929 . S
H1717 C1726 0.930 . S
H1718 C1728 0.930 . S
H1719 C1731 0.929 . S
H1720 C1734 0.930 . S
H1721 C1736 0.960 . S
H1722 C1736 0.960 . S
H1723 C1736 0.960 . S
C1724 H1716 0.929 . S
C1724 C1725 1.377 . S
C1724 C1726 1.384 . S
C1725 C1724 1.377 . S
C1725 C1731 1.390 . S
C1726 H1717 0.930 . S
C1726 C1724 1.384 . S
C1726 C1727 1.372 . S
C1727 C1726 1.372 . S
C1727 C1728 1.400 . S
C1727 C1732 1.490 . S
C1728 H1718 0.930 . S
C1728 C1727 1.400 . S
C1728 C1731 1.386 . S
H1729 C1745 0.930 . S
H1730 C1746 0.931 . S
C1731 H1719 0.929 . S
C1731 C1725 1.390 . S
C1731 C1728 1.386 . S
C1732 C1727 1.490 . S
C1732 C1734 1.395 . S
C1732 C1735 1.403 . S
H1733 C1739 0.930 . S
C1734 H1720 0.930 . S
C1734 C1732 1.395 . S
C1734 C1737 1.403 . S
C1735 C1732 1.403 . S
C1735 C1736 1.524 . S
C1735 C1739 1.400 . S
C1736 H1721 0.960 . S
C1736 H1722 0.960 . S
C1736 H1723 0.960 . S
C1736 C1735 1.524 . S
C1737 C1734 1.403 . S
C1737 C1738 1.392 . S
C1737 C1741 1.495 . S
C1738 C1737 1.392 . S
C1738 C1739 1.385 . S
C1738 C1740 1.478 . S
C1739 H1733 0.930 . S
C1739 C1735 1.400 . S
C1739 C1738 1.385 . S
C1740 C1738 1.478 . S
C1740 C1742 1.381 . S
C1740 C1746 1.383 . S
C1741 C1737 1.495 . S
C1741 H1747 0.959 . S
C1741 H1748 0.961 . S
C1741 H1749 0.960 . S
C1742 C1740 1.381 . S
C1742 C1743 1.394 . S
C1742 H1750 0.930 . S
C1743 C1742 1.394 . S
C1743 C1744 1.383 . S
C1743 H1751 0.929 . S
C1744 C1743 1.383 . S
C1744 C1745 1.377 . S
C1745 H1729 0.930 . S
C1745 C1744 1.377 . S
C1745 C1746 1.379 . S
C1746 H1730 0.931 . S
C1746 C1740 1.383 . S
C1746 C1745 1.379 . S
H1747 C1741 0.959 . S
H1748 C1741 0.961 . S
H1749 C1741 0.960 . S
H1750 C1742 0.930 . S
H1751 C1743 0.929 . S
H1752 C1760 0.929 . S
H1753 C1762 0.930 . S
H1754 C1764 0.930 . S
H1755 C1767 0.929 . S
H1756 C1770 0.930 . S
H1757 C1772 0.960 . S
H1758 C1772 0.960 . S
H1759 C1772 0.960 . S
C1760 H1752 0.929 . S
C1760 C1761 1.377 . S
C1760 C1762 1.384 . S
C1761 C1760 1.377 . S
C1761 C1767 1.390 . S
C1762 H1753 0.930 . S
C1762 C1760 1.384 . S
C1762 C1763 1.372 . S
C1763 C1762 1.372 . S
C1763 C1764 1.400 . S
C1763 C1768 1.490 . S
C1764 H1754 0.930 . S
C1764 C1763 1.400 . S
C1764 C1767 1.386 . S
H1765 C1781 0.930 . S
H1766 C1782 0.931 . S
C1767 H1755 0.929 . S
C1767 C1761 1.390 . S
C1767 C1764 1.386 . S
C1768 C1763 1.490 . S
C1768 C1770 1.395 . S
C1768 C1771 1.403 . S
H1769 C1775 0.930 . S
C1770 H1756 0.930 . S
C1770 C1768 1.395 . S
C1770 C1773 1.403 . S
C1771 C1768 1.403 . S
C1771 C1772 1.524 . S
C1771 C1775 1.400 . S
C1772 H1757 0.960 . S
C1772 H1758 0.960 . S
C1772 H1759 0.960 . S
C1772 C1771 1.524 . S
C1773 C1770 1.403 . S
C1773 C1774 1.392 . S
C1773 C1777 1.495 . S
C1774 C1773 1.392 . S
C1774 C1775 1.385 . S
C1774 C1776 1.478 . S
C1775 H1769 0.930 . S
C1775 C1771 1.400 . S
C1775 C1774 1.385 . S
C1776 C1774 1.478 . S
C1776 C1778 1.381 . S
C1776 C1782 1.383 . S
C1777 C1773 1.495 . S
C1777 H1783 0.959 . S
C1777 H1784 0.961 . S
C1777 H1785 0.960 . S
C1778 C1776 1.381 . S
C1778 C1779 1.394 . S
C1778 H1786 0.930 . S
C1779 C1778 1.394 . S
C1779 C1780 1.383 . S
C1779 H1787 0.929 . S
C1780 C1779 1.383 . S
C1780 C1781 1.377 . S
C1781 H1765 0.930 . S
C1781 C1780 1.377 . S
C1781 C1782 1.379 . S
C1782 H1766 0.931 . S
C1782 C1776 1.383 . S
C1782 C1781 1.379 . S
H1783 C1777 0.959 . S
H1784 C1777 0.961 . S
H1785 C1777 0.960 . S
H1786 C1778 0.930 . S
H1787 C1779 0.929 . S
H1788 C1796 0.929 . S
H1789 C1798 0.930 . S
H1790 C1800 0.930 . S
H1791 C1803 0.929 . S
H1792 C1806 0.930 . S
H1793 C1808 0.960 . S
H1794 C1808 0.960 . S
H1795 C1808 0.960 . S
C1796 H1788 0.929 . S
C1796 C1797 1.377 . S
C1796 C1798 1.384 . S
C1797 C1796 1.377 . S
C1797 C1803 1.390 . S
C1798 H1789 0.930 . S
C1798 C1796 1.384 . S
C1798 C1799 1.372 . S
C1799 C1798 1.372 . S
C1799 C1800 1.400 . S
C1799 C1804 1.490 . S
C1800 H1790 0.930 . S
C1800 C1799 1.400 . S
C1800 C1803 1.386 . S
H1801 C1817 0.930 . S
H1802 C1818 0.931 . S
C1803 H1791 0.929 . S
C1803 C1797 1.390 . S
C1803 C1800 1.386 . S
C1804 C1799 1.490 . S
C1804 C1806 1.395 . S
C1804 C1807 1.403 . S
H1805 C1811 0.930 . S
C1806 H1792 0.930 . S
C1806 C1804 1.395 . S
C1806 C1809 1.403 . S
C1807 C1804 1.403 . S
C1807 C1808 1.524 . S
C1807 C1811 1.400 . S
C1808 H1793 0.960 . S
C1808 H1794 0.960 . S
C1808 H1795 0.960 . S
C1808 C1807 1.524 . S
C1809 C1806 1.403 . S
C1809 C1810 1.392 . S
C1809 C1813 1.495 . S
C1810 C1809 1.392 . S
C1810 C1811 1.385 . S
C1810 C1812 1.478 . S
C1811 H1805 0.930 . S
C1811 C1807 1.400 . S
C1811 C1810 1.385 . S
C1812 C1810 1.478 . S
C1812 C1814 1.381 . S
C1812 C1818 1.383 . S
C1813 C1809 1.495 . S
C1813 H1819 0.959 . S
C1813 H1820 0.961 . S
C1813 H1821 0.960 . S
C1814 C1812 1.381 . S
C1814 C1815 1.394 . S
C1814 H1822 0.930 . S
C1815 C1814 1.394 . S
C1815 C1816 1.383 . S
C1815 H1823 0.929 . S
C1816 C1815 1.383 . S
C1816 C1817 1.377 . S
C1817 H1801 0.930 . S
C1817 C1816 1.377 . S
C1817 C1818 1.379 . S
C1818 H1802 0.931 . S
C1818 C1812 1.383 . S
C1818 C1817 1.379 . S
H1819 C1813 0.959 . S
H1820 C1813 0.961 . S
H1821 C1813 0.960 . S
H1822 C1814 0.930 . S
H1823 C1815 0.929 . S
H1824 C1832 0.929 . S
H1825 C1834 0.930 . S
H1826 C1836 0.930 . S
H1827 C1839 0.929 . S
H1828 C1842 0.930 . S
H1829 C1844 0.960 . S
H1830 C1844 0.960 . S
H1831 C1844 0.960 . S
C1832 H1824 0.929 . S
C1832 C1833 1.377 . S
C1832 C1834 1.384 . S
C1833 C1832 1.377 . S
C1833 C1839 1.390 . S
C1834 H1825 0.930 . S
C1834 C1832 1.384 . S
C1834 C1835 1.372 . S
C1835 C1834 1.372 . S
C1835 C1836 1.400 . S
C1835 C1840 1.490 . S
C1836 H1826 0.930 . S
C1836 C1835 1.400 . S
C1836 C1839 1.386 . S
H1837 C1853 0.930 . S
H1838 C1854 0.931 . S
C1839 H1827 0.929 . S
C1839 C1833 1.390 . S
C1839 C1836 1.386 . S
C1840 C1835 1.490 . S
C1840 C1842 1.395 . S
C1840 C1843 1.403 . S
H1841 C1847 0.930 . S
C1842 H1828 0.930 . S
C1842 C1840 1.395 . S
C1842 C1845 1.403 . S
C1843 C1840 1.403 . S
C1843 C1844 1.524 . S
C1843 C1847 1.400 . S
C1844 H1829 0.960 . S
C1844 H1830 0.960 . S
C1844 H1831 0.960 . S
C1844 C1843 1.524 . S
C1845 C1842 1.403 . S
C1845 C1846 1.392 . S
C1845 C1849 1.495 . S
C1846 C1845 1.392 . S
C1846 C1847 1.385 . S
C1846 C1848 1.478 . S
C1847 H1841 0.930 . S
C1847 C1843 1.400 . S
C1847 C1846 1.385 . S
C1848 C1846 1.478 . S
C1848 C1850 1.381 . S
C1848 C1854 1.383 . S
C1849 C1845 1.495 . S
C1849 H1855 0.959 . S
C1849 H1856 0.961 . S
C1849 H1857 0.960 . S
C1850 C1848 1.381 . S
C1850 C1851 1.394 . S
C1850 H1858 0.930 . S
C1851 C1850 1.394 . S
C1851 C1852 1.383 . S
C1851 H1859 0.929 . S
C1852 C1851 1.383 . S
C1852 C1853 1.377 . S
C1853 H1837 0.930 . S
C1853 C1852 1.377 . S
C1853 C1854 1.379 . S
C1854 H1838 0.931 . S
C1854 C1848 1.383 . S
C1854 C1853 1.379 . S
H1855 C1849 0.959 . S
H1856 C1849 0.961 . S
H1857 C1849 0.960 . S
H1858 C1850 0.930 . S
H1859 C1851 0.929 . S
H1860 C1868 0.929 . S
H1861 C1870 0.930 . S
H1862 C1872 0.930 . S
H1863 C1875 0.929 . S
H1864 C1878 0.930 . S
H1865 C1880 0.960 . S
H1866 C1880 0.960 . S
H1867 C1880 0.960 . S
C1868 H1860 0.929 . S
C1868 C1869 1.377 . S
C1868 C1870 1.384 . S
C1869 C1868 1.377 . S
C1869 C1875 1.390 1_556 S
C1870 H1861 0.930 . S
C1870 C1868 1.384 . S
C1870 C1871 1.372 . S
C1871 C1870 1.372 . S
C1871 C1872 1.400 . S
C1871 C1876 1.490 . S
C1872 H1862 0.930 . S
C1872 C1871 1.400 . S
C1872 C1875 1.386 1_556 S
H1873 C1889 0.930 . S
H1874 C1890 0.931 . S
C1875 H1863 0.929 . S
C1875 C1869 1.390 1_554 S
C1875 C1872 1.386 1_554 S
C1876 C1871 1.490 . S
C1876 C1878 1.395 . S
C1876 C1879 1.403 . S
H1877 C1883 0.930 . S
C1878 H1864 0.930 . S
C1878 C1876 1.395 . S
C1878 C1881 1.403 . S
C1879 C1876 1.403 . S
C1879 C1880 1.524 . S
C1879 C1883 1.400 . S
C1880 H1865 0.960 . S
C1880 H1866 0.960 . S
C1880 H1867 0.960 . S
C1880 C1879 1.524 . S
C1881 C1878 1.403 . S
C1881 C1882 1.392 . S
C1881 C1885 1.495 . S
C1882 C1881 1.392 . S
C1882 C1883 1.385 . S
C1882 C1884 1.478 . S
C1883 H1877 0.930 . S
C1883 C1879 1.400 . S
C1883 C1882 1.385 . S
C1884 C1882 1.478 . S
C1884 C1886 1.381 . S
C1884 C1890 1.383 . S
C1885 C1881 1.495 . S
C1885 H1891 0.959 . S
C1885 H1892 0.961 . S
C1885 H1893 0.960 . S
C1886 C1884 1.381 . S
C1886 C1887 1.394 . S
C1886 H1894 0.930 . S
C1887 C1886 1.394 . S
C1887 C1888 1.383 . S
C1887 H1895 0.929 . S
C1888 C1887 1.383 . S
C1888 C1889 1.377 . S
C1889 H1873 0.930 . S
C1889 C1888 1.377 . S
C1889 C1890 1.379 . S
C1890 H1874 0.931 . S
C1890 C1884 1.383 . S
C1890 C1889 1.379 . S
H1891 C1885 0.959 . S
H1892 C1885 0.961 . S
H1893 C1885 0.960 . S
H1894 C1886 0.930 . S
H1895 C1887 0.929 . S
H1896 C1904 0.929 . S
H1897 C1906 0.930 . S
H1898 C1908 0.930 . S
H1899 C1911 0.929 . S
H1900 C1914 0.930 . S
H1901 C1916 0.960 . S
H1902 C1916 0.960 . S
H1903 C1916 0.960 . S
C1904 H1896 0.929 . S
C1904 C1905 1.377 . S
C1904 C1906 1.384 . S
C1905 C1904 1.377 . S
C1905 C1911 1.390 . S
C1906 H1897 0.930 . S
C1906 C1904 1.384 . S
C1906 C1907 1.372 . S
C1907 C1906 1.372 . S
C1907 C1908 1.400 . S
C1907 C1912 1.490 . S
C1908 H1898 0.930 . S
C1908 C1907 1.400 . S
C1908 C1911 1.386 . S
H1909 C1925 0.930 . S
H1910 C1926 0.931 . S
C1911 H1899 0.929 . S
C1911 C1905 1.390 . S
C1911 C1908 1.386 . S
C1912 C1907 1.490 . S
C1912 C1914 1.395 . S
C1912 C1915 1.403 . S
H1913 C1919 0.930 . S
C1914 H1900 0.930 . S
C1914 C1912 1.395 . S
C1914 C1917 1.403 . S
C1915 C1912 1.403 . S
C1915 C1916 1.524 . S
C1915 C1919 1.400 . S
C1916 H1901 0.960 . S
C1916 H1902 0.960 . S
C1916 H1903 0.960 . S
C1916 C1915 1.524 . S
C1917 C1914 1.403 . S
C1917 C1918 1.392 . S
C1917 C1921 1.495 . S
C1918 C1917 1.392 . S
C1918 C1919 1.385 . S
C1918 C1920 1.478 . S
C1919 H1913 0.930 . S
C1919 C1915 1.400 . S
C1919 C1918 1.385 . S
C1920 C1918 1.478 . S
C1920 C1922 1.381 . S
C1920 C1926 1.383 . S
C1921 C1917 1.495 . S
C1921 H1927 0.959 . S
C1921 H1928 0.961 . S
C1921 H1929 0.960 . S
C1922 C1920 1.381 . S
C1922 C1923 1.394 . S
C1922 H1930 0.930 . S
C1923 C1922 1.394 . S
C1923 C1924 1.383 . S
C1923 H1931 0.929 . S
C1924 C1923 1.383 . S
C1924 C1925 1.377 . S
C1925 H1909 0.930 . S
C1925 C1924 1.377 . S
C1925 C1926 1.379 . S
C1926 H1910 0.931 . S
C1926 C1920 1.383 . S
C1926 C1925 1.379 . S
H1927 C1921 0.959 . S
H1928 C1921 0.961 . S
H1929 C1921 0.960 . S
H1930 C1922 0.930 . S
H1931 C1923 0.929 . S
H1932 C1940 0.929 . S
H1933 C1942 0.930 . S
H1934 C1944 0.930 . S
H1935 C1947 0.929 . S
H1936 C1950 0.930 . S
H1937 C1952 0.960 . S
H1938 C1952 0.960 . S
H1939 C1952 0.960 . S
C1940 H1932 0.929 . S
C1940 C1941 1.377 . S
C1940 C1942 1.384 . S
C1941 C1940 1.377 . S
C1941 C1947 1.390 . S
C1942 H1933 0.930 . S
C1942 C1940 1.384 . S
C1942 C1943 1.372 . S
C1943 C1942 1.372 . S
C1943 C1944 1.400 . S
C1943 C1948 1.490 . S
C1944 H1934 0.930 . S
C1944 C1943 1.400 . S
C1944 C1947 1.386 . S
H1945 C1961 0.930 . S
H1946 C1962 0.931 . S
C1947 H1935 0.929 . S
C1947 C1941 1.390 . S
C1947 C1944 1.386 . S
C1948 C1943 1.490 . S
C1948 C1950 1.395 . S
C1948 C1951 1.403 . S
H1949 C1955 0.930 1_565 S
C1950 H1936 0.930 . S
C1950 C1948 1.395 . S
C1950 C1953 1.403 . S
C1951 C1948 1.403 . S
C1951 C1952 1.524 1_545 S
C1951 C1955 1.400 . S
C1952 H1937 0.960 . S
C1952 H1938 0.960 . S
C1952 H1939 0.960 . S
C1952 C1951 1.524 1_565 S
C1953 C1950 1.403 . S
C1953 C1954 1.392 . S
C1953 C1957 1.495 . S
C1954 C1953 1.392 . S
C1954 C1955 1.385 . S
C1954 C1956 1.478 . S
C1955 H1949 0.930 1_545 S
C1955 C1951 1.400 . S
C1955 C1954 1.385 . S
C1956 C1954 1.478 . S
C1956 C1958 1.381 . S
C1956 C1962 1.383 . S
C1957 C1953 1.495 . S
C1957 H1963 0.959 . S
C1957 H1964 0.961 . S
C1957 H1965 0.960 . S
C1958 C1956 1.381 . S
C1958 C1959 1.394 . S
C1958 H1966 0.930 . S
C1959 C1958 1.394 . S
C1959 C1960 1.383 . S
C1959 H1967 0.929 . S
C1960 C1959 1.383 . S
C1960 C1961 1.377 . S
C1961 H1945 0.930 . S
C1961 C1960 1.377 . S
C1961 C1962 1.379 . S
C1962 H1946 0.931 . S
C1962 C1956 1.383 . S
C1962 C1961 1.379 . S
H1963 C1957 0.959 . S
H1964 C1957 0.961 . S
H1965 C1957 0.960 . S
H1966 C1958 0.930 . S
H1967 C1959 0.929 . S
H1968 C1976 0.929 . S
H1969 C1978 0.930 . S
H1970 C1980 0.930 . S
H1971 C1983 0.929 . S
H1972 C1986 0.930 . S
H1973 C1988 0.960 . S
H1974 C1988 0.960 . S
H1975 C1988 0.960 . S
C1976 H1968 0.929 . S
C1976 C1977 1.377 . S
C1976 C1978 1.384 . S
C1977 C1976 1.377 . S
C1977 C1983 1.390 . S
C1978 H1969 0.930 . S
C1978 C1976 1.384 . S
C1978 C1979 1.372 . S
C1979 C1978 1.372 . S
C1979 C1980 1.400 . S
C1979 C1984 1.490 . S
C1980 H1970 0.930 . S
C1980 C1979 1.400 . S
C1980 C1983 1.386 . S
H1981 C1997 0.930 . S
H1982 C1998 0.931 . S
C1983 H1971 0.929 . S
C1983 C1977 1.390 . S
C1983 C1980 1.386 . S
C1984 C1979 1.490 . S
C1984 C1986 1.395 . S
C1984 C1987 1.403 . S
H1985 C1991 0.930 . S
C1986 H1972 0.930 . S
C1986 C1984 1.395 . S
C1986 C1989 1.403 . S
C1987 C1984 1.403 . S
C1987 C1988 1.524 . S
C1987 C1991 1.400 . S
C1988 H1973 0.960 . S
C1988 H1974 0.960 . S
C1988 H1975 0.960 . S
C1988 C1987 1.524 . S
C1989 C1986 1.403 . S
C1989 C1990 1.392 . S
C1989 C1993 1.495 . S
C1990 C1989 1.392 . S
C1990 C1991 1.385 . S
C1990 C1992 1.478 . S
C1991 H1985 0.930 . S
C1991 C1987 1.400 . S
C1991 C1990 1.385 . S
C1992 C1990 1.478 . S
C1992 C1994 1.381 . S
C1992 C1998 1.383 . S
C1993 C1989 1.495 . S
C1993 H1999 0.959 . S
C1993 H2000 0.961 . S
C1993 H2001 0.960 . S
C1994 C1992 1.381 . S
C1994 C1995 1.394 . S
C1994 H2002 0.930 . S
C1995 C1994 1.394 . S
C1995 C1996 1.383 . S
C1995 H2003 0.929 . S
C1996 C1995 1.383 . S
C1996 C1997 1.377 . S
C1997 H1981 0.930 . S
C1997 C1996 1.377 . S
C1997 C1998 1.379 . S
C1998 H1982 0.931 . S
C1998 C1992 1.383 . S
C1998 C1997 1.379 . S
H1999 C1993 0.959 . S
H2000 C1993 0.961 . S
H2001 C1993 0.960 . S
H2002 C1994 0.930 . S
H2003 C1995 0.929 . S
H2004 C2012 0.929 . S
H2005 C2014 0.930 . S
H2006 C2016 0.930 . S
H2007 C2019 0.929 . S
H2008 C2022 0.930 . S
H2009 C2024 0.960 . S
H2010 C2024 0.960 . S
H2011 C2024 0.960 . S
C2012 H2004 0.929 . S
C2012 C2013 1.377 . S
C2012 C2014 1.384 . S
C2013 C2012 1.377 . S
C2013 C2019 1.390 . S
C2014 H2005 0.930 . S
C2014 C2012 1.384 . S
C2014 C2015 1.372 . S
C2015 C2014 1.372 . S
C2015 C2016 1.400 . S
C2015 C2020 1.490 . S
C2016 H2006 0.930 . S
C2016 C2015 1.400 . S
C2016 C2019 1.386 . S
H2017 C2033 0.930 1_545 S
H2018 C2034 0.931 1_545 S
C2019 H2007 0.929 . S
C2019 C2013 1.390 . S
C2019 C2016 1.386 . S
C2020 C2015 1.490 . S
C2020 C2022 1.395 . S
C2020 C2023 1.403 . S
H2021 C2027 0.930 . S
C2022 H2008 0.930 . S
C2022 C2020 1.395 . S
C2022 C2025 1.403 . S
C2023 C2020 1.403 . S
C2023 C2024 1.524 . S
C2023 C2027 1.400 . S
C2024 H2009 0.960 . S
C2024 H2010 0.960 . S
C2024 H2011 0.960 . S
C2024 C2023 1.524 . S
C2025 C2022 1.403 . S
C2025 C2026 1.392 . S
C2025 C2029 1.495 . S
C2026 C2025 1.392 . S
C2026 C2027 1.385 . S
C2026 C2028 1.478 . S
C2027 H2021 0.930 . S
C2027 C2023 1.400 . S
C2027 C2026 1.385 . S
C2028 C2026 1.478 . S
C2028 C2030 1.381 . S
C2028 C2034 1.383 . S
C2029 C2025 1.495 . S
C2029 H2035 0.959 1_565 S
C2029 H2036 0.961 1_565 S
C2029 H2037 0.960 . S
C2030 C2028 1.381 . S
C2030 C2031 1.394 . S
C2030 H2038 0.930 . S
C2031 C2030 1.394 . S
C2031 C2032 1.383 . S
C2031 H2039 0.929 . S
C2032 C2031 1.383 . S
C2032 C2033 1.377 . S
C2033 H2017 0.930 1_565 S
C2033 C2032 1.377 . S
C2033 C2034 1.379 . S
C2034 H2018 0.931 1_565 S
C2034 C2028 1.383 . S
C2034 C2033 1.379 . S
H2035 C2029 0.959 1_545 S
H2036 C2029 0.961 1_545 S
H2037 C2029 0.960 . S
H2038 C2030 0.930 . S
H2039 C2031 0.929 . S
H2040 C2048 0.929 . S
H2041 C2050 0.930 . S
H2042 C2052 0.930 . S
H2043 C2055 0.929 . S
H2044 C2058 0.930 . S
H2045 C2060 0.960 . S
H2046 C2060 0.960 . S
H2047 C2060 0.960 . S
C2048 H2040 0.929 . S
C2048 C2049 1.377 . S
C2048 C2050 1.384 . S
C2049 C2048 1.377 . S
C2049 C2055 1.390 . S
C2050 H2041 0.930 . S
C2050 C2048 1.384 . S
C2050 C2051 1.372 . S
C2051 C2050 1.372 . S
C2051 C2052 1.400 . S
C2051 C2056 1.490 . S
C2052 H2042 0.930 . S
C2052 C2051 1.400 . S
C2052 C2055 1.386 . S
H2053 C2069 0.930 . S
H2054 C2070 0.931 . S
C2055 H2043 0.929 . S
C2055 C2049 1.390 . S
C2055 C2052 1.386 . S
C2056 C2051 1.490 . S
C2056 C2058 1.395 . S
C2056 C2059 1.403 . S
H2057 C2063 0.930 . S
C2058 H2044 0.930 . S
C2058 C2056 1.395 . S
C2058 C2061 1.403 . S
C2059 C2056 1.403 . S
C2059 C2060 1.524 . S
C2059 C2063 1.400 . S
C2060 H2045 0.960 . S
C2060 H2046 0.960 . S
C2060 H2047 0.960 . S
C2060 C2059 1.524 . S
C2061 C2058 1.403 . S
C2061 C2062 1.392 . S
C2061 C2065 1.495 . S
C2062 C2061 1.392 . S
C2062 C2063 1.385 . S
C2062 C2064 1.478 . S
C2063 H2057 0.930 . S
C2063 C2059 1.400 . S
C2063 C2062 1.385 . S
C2064 C2062 1.478 . S
C2064 C2066 1.381 . S
C2064 C2070 1.383 . S
C2065 C2061 1.495 . S
C2065 H2071 0.959 . S
C2065 H2072 0.961 . S
C2065 H2073 0.960 . S
C2066 C2064 1.381 . S
C2066 C2067 1.394 . S
C2066 H2074 0.930 . S
C2067 C2066 1.394 . S
C2067 C2068 1.383 . S
C2067 H2075 0.929 . S
C2068 C2067 1.383 . S
C2068 C2069 1.377 . S
C2069 H2053 0.930 . S
C2069 C2068 1.377 . S
C2069 C2070 1.379 . S
C2070 H2054 0.931 . S
C2070 C2064 1.383 . S
C2070 C2069 1.379 . S
H2071 C2065 0.959 . S
H2072 C2065 0.961 . S
H2073 C2065 0.960 . S
H2074 C2066 0.930 . S
H2075 C2067 0.929 . S
H2076 C2084 0.929 . S
H2077 C2086 0.930 . S
H2078 C2088 0.930 . S
H2079 C2091 0.929 . S
H2080 C2094 0.930 . S
H2081 C2096 0.960 . S
H2082 C2096 0.960 . S
H2083 C2096 0.960 . S
C2084 H2076 0.929 . S
C2084 C2085 1.377 . S
C2084 C2086 1.384 . S
C2085 C2084 1.377 . S
C2085 C2091 1.390 . S
C2086 H2077 0.930 . S
C2086 C2084 1.384 . S
C2086 C2087 1.372 . S
C2087 C2086 1.372 . S
C2087 C2088 1.400 . S
C2087 C2092 1.490 . S
C2088 H2078 0.930 . S
C2088 C2087 1.400 . S
C2088 C2091 1.386 . S
H2089 C2105 0.930 . S
H2090 C2106 0.931 . S
C2091 H2079 0.929 . S
C2091 C2085 1.390 . S
C2091 C2088 1.386 . S
C2092 C2087 1.490 . S
C2092 C2094 1.395 . S
C2092 C2095 1.403 . S
H2093 C2099 0.930 . S
C2094 H2080 0.930 . S
C2094 C2092 1.395 . S
C2094 C2097 1.403 . S
C2095 C2092 1.403 . S
C2095 C2096 1.524 . S
C2095 C2099 1.400 . S
C2096 H2081 0.960 . S
C2096 H2082 0.960 . S
C2096 H2083 0.960 . S
C2096 C2095 1.524 . S
C2097 C2094 1.403 . S
C2097 C2098 1.392 . S
C2097 C2101 1.495 . S
C2098 C2097 1.392 . S
C2098 C2099 1.385 . S
C2098 C2100 1.478 . S
C2099 H2093 0.930 . S
C2099 C2095 1.400 . S
C2099 C2098 1.385 . S
C2100 C2098 1.478 . S
C2100 C2102 1.381 . S
C2100 C2106 1.383 . S
C2101 C2097 1.495 . S
C2101 H2107 0.959 . S
C2101 H2108 0.961 . S
C2101 H2109 0.960 . S
C2102 C2100 1.381 . S
C2102 C2103 1.394 . S
C2102 H2110 0.930 . S
C2103 C2102 1.394 . S
C2103 C2104 1.383 . S
C2103 H2111 0.929 . S
C2104 C2103 1.383 . S
C2104 C2105 1.377 . S
C2105 H2089 0.930 . S
C2105 C2104 1.377 . S
C2105 C2106 1.379 . S
C2106 H2090 0.931 . S
C2106 C2100 1.383 . S
C2106 C2105 1.379 . S
H2107 C2101 0.959 . S
H2108 C2101 0.961 . S
H2109 C2101 0.960 . S
H2110 C2102 0.930 . S
H2111 C2103 0.929 . S
H2112 C2120 0.929 . S
H2113 C2122 0.930 . S
H2114 C2124 0.930 . S
H2115 C2127 0.929 . S
H2116 C2130 0.930 . S
H2117 C2132 0.960 . S
H2118 C2132 0.960 . S
H2119 C2132 0.960 . S
C2120 H2112 0.929 . S
C2120 C2121 1.377 . S
C2120 C2122 1.384 . S
C2121 C2120 1.377 . S
C2121 C2127 1.390 . S
C2122 H2113 0.930 . S
C2122 C2120 1.384 . S
C2122 C2123 1.372 . S
C2123 C2122 1.372 . S
C2123 C2124 1.400 . S
C2123 C2128 1.490 . S
C2124 H2114 0.930 . S
C2124 C2123 1.400 . S
C2124 C2127 1.386 . S
H2125 C2141 0.930 . S
H2126 C2142 0.931 . S
C2127 H2115 0.929 . S
C2127 C2121 1.390 . S
C2127 C2124 1.386 . S
C2128 C2123 1.490 . S
C2128 C2130 1.395 . S
C2128 C2131 1.403 . S
H2129 C2135 0.930 . S
C2130 H2116 0.930 . S
C2130 C2128 1.395 . S
C2130 C2133 1.403 . S
C2131 C2128 1.403 . S
C2131 C2132 1.524 . S
C2131 C2135 1.400 . S
C2132 H2117 0.960 . S
C2132 H2118 0.960 . S
C2132 H2119 0.960 . S
C2132 C2131 1.524 . S
C2133 C2130 1.403 . S
C2133 C2134 1.392 . S
C2133 C2137 1.495 . S
C2134 C2133 1.392 . S
C2134 C2135 1.385 . S
C2134 C2136 1.478 . S
C2135 H2129 0.930 . S
C2135 C2131 1.400 . S
C2135 C2134 1.385 . S
C2136 C2134 1.478 . S
C2136 C2138 1.381 . S
C2136 C2142 1.383 . S
C2137 C2133 1.495 . S
C2137 H2143 0.959 . S
C2137 H2144 0.961 . S
C2137 H2145 0.960 . S
C2138 C2136 1.381 . S
C2138 C2139 1.394 . S
C2138 H2146 0.930 . S
C2139 C2138 1.394 . S
C2139 C2140 1.383 . S
C2139 H2147 0.929 . S
C2140 C2139 1.383 . S
C2140 C2141 1.377 . S
C2141 H2125 0.930 . S
C2141 C2140 1.377 . S
C2141 C2142 1.379 . S
C2142 H2126 0.931 . S
C2142 C2136 1.383 . S
C2142 C2141 1.379 . S
H2143 C2137 0.959 . S
H2144 C2137 0.961 . S
H2145 C2137 0.960 . S
H2146 C2138 0.930 . S
H2147 C2139 0.929 . S
H2148 C2156 0.929 . S
H2149 C2158 0.930 . S
H2150 C2160 0.930 . S
H2151 C2163 0.929 . S
H2152 C2166 0.930 . S
H2153 C2168 0.960 . S
H2154 C2168 0.960 . S
H2155 C2168 0.960 . S
C2156 H2148 0.929 . S
C2156 C2157 1.377 . S
C2156 C2158 1.384 . S
C2157 C2156 1.377 . S
C2157 C2163 1.390 . S
C2158 H2149 0.930 . S
C2158 C2156 1.384 . S
C2158 C2159 1.372 . S
C2159 C2158 1.372 . S
C2159 C2160 1.400 . S
C2159 C2164 1.490 . S
C2160 H2150 0.930 . S
C2160 C2159 1.400 . S
C2160 C2163 1.386 . S
H2161 C2177 0.930 . S
H2162 C2178 0.931 . S
C2163 H2151 0.929 . S
C2163 C2157 1.390 . S
C2163 C2160 1.386 . S
C2164 C2159 1.490 . S
C2164 C2166 1.395 . S
C2164 C2167 1.403 . S
H2165 C2171 0.930 . S
C2166 H2152 0.930 . S
C2166 C2164 1.395 . S
C2166 C2169 1.403 . S
C2167 C2164 1.403 . S
C2167 C2168 1.524 . S
C2167 C2171 1.400 . S
C2168 H2153 0.960 . S
C2168 H2154 0.960 . S
C2168 H2155 0.960 . S
C2168 C2167 1.524 . S
C2169 C2166 1.403 . S
C2169 C2170 1.392 . S
C2169 C2173 1.495 . S
C2170 C2169 1.392 . S
C2170 C2171 1.385 . S
C2170 C2172 1.478 . S
C2171 H2165 0.930 . S
C2171 C2167 1.400 . S
C2171 C2170 1.385 . S
C2172 C2170 1.478 . S
C2172 C2174 1.381 . S
C2172 C2178 1.383 . S
C2173 C2169 1.495 . S
C2173 H2179 0.959 . S
C2173 H2180 0.961 . S
C2173 H2181 0.960 . S
C2174 C2172 1.381 . S
C2174 C2175 1.394 . S
C2174 H2182 0.930 . S
C2175 C2174 1.394 . S
C2175 C2176 1.383 . S
C2175 H2183 0.929 . S
C2176 C2175 1.383 . S
C2176 C2177 1.377 . S
C2177 H2161 0.930 . S
C2177 C2176 1.377 . S
C2177 C2178 1.379 . S
C2178 H2162 0.931 . S
C2178 C2172 1.383 . S
C2178 C2177 1.379 . S
H2179 C2173 0.959 . S
H2180 C2173 0.961 . S
H2181 C2173 0.960 . S
H2182 C2174 0.930 . S
H2183 C2175 0.929 . S
H2184 C2192 0.929 . S
H2185 C2194 0.930 . S
H2186 C2196 0.930 . S
H2187 C2199 0.929 . S
H2188 C2202 0.930 . S
H2189 C2204 0.960 . S
H2190 C2204 0.960 . S
H2191 C2204 0.960 . S
C2192 H2184 0.929 . S
C2192 C2193 1.377 . S
C2192 C2194 1.384 . S
C2193 C2192 1.377 . S
C2193 C2199 1.390 . S
C2194 H2185 0.930 . S
C2194 C2192 1.384 . S
C2194 C2195 1.372 . S
C2195 C2194 1.372 . S
C2195 C2196 1.400 . S
C2195 C2200 1.490 . S
C2196 H2186 0.930 . S
C2196 C2195 1.400 . S
C2196 C2199 1.386 . S
H2197 C2213 0.930 . S
H2198 C2214 0.931 . S
C2199 H2187 0.929 . S
C2199 C2193 1.390 . S
C2199 C2196 1.386 . S
C2200 C2195 1.490 . S
C2200 C2202 1.395 . S
C2200 C2203 1.403 . S
H2201 C2207 0.930 . S
C2202 H2188 0.930 . S
C2202 C2200 1.395 . S
C2202 C2205 1.403 . S
C2203 C2200 1.403 . S
C2203 C2204 1.524 . S
C2203 C2207 1.400 . S
C2204 H2189 0.960 . S
C2204 H2190 0.960 . S
C2204 H2191 0.960 . S
C2204 C2203 1.524 . S
C2205 C2202 1.403 . S
C2205 C2206 1.392 . S
C2205 C2209 1.495 . S
C2206 C2205 1.392 . S
C2206 C2207 1.385 . S
C2206 C2208 1.478 . S
C2207 H2201 0.930 . S
C2207 C2203 1.400 . S
C2207 C2206 1.385 . S
C2208 C2206 1.478 . S
C2208 C2210 1.381 . S
C2208 C2214 1.383 . S
C2209 C2205 1.495 . S
C2209 H2215 0.959 . S
C2209 H2216 0.961 . S
C2209 H2217 0.960 . S
C2210 C2208 1.381 . S
C2210 C2211 1.394 . S
C2210 H2218 0.930 . S
C2211 C2210 1.394 . S
C2211 C2212 1.383 . S
C2211 H2219 0.929 . S
C2212 C2211 1.383 . S
C2212 C2213 1.377 . S
C2213 H2197 0.930 . S
C2213 C2212 1.377 . S
C2213 C2214 1.379 . S
C2214 H2198 0.931 . S
C2214 C2208 1.383 . S
C2214 C2213 1.379 . S
H2215 C2209 0.959 . S
H2216 C2209 0.961 . S
H2217 C2209 0.960 . S
H2218 C2210 0.930 . S
H2219 C2211 0.929 . S
H2220 C2228 0.929 . S
H2221 C2230 0.930 . S
H2222 C2232 0.930 . S
H2223 C2235 0.929 . S
H2224 C2238 0.930 . S
H2225 C2240 0.960 . S
H2226 C2240 0.960 . S
H2227 C2240 0.960 . S
C2228 H2220 0.929 . S
C2228 C2229 1.377 . S
C2228 C2230 1.384 . S
C2229 C2228 1.377 . S
C2229 C2235 1.390 . S
C2230 H2221 0.930 . S
C2230 C2228 1.384 . S
C2230 C2231 1.372 . S
C2231 C2230 1.372 . S
C2231 C2232 1.400 . S
C2231 C2236 1.490 . S
C2232 H2222 0.930 . S
C2232 C2231 1.400 . S
C2232 C2235 1.386 . S
H2233 C2249 0.930 . S
H2234 C2250 0.931 . S
C2235 H2223 0.929 . S
C2235 C2229 1.390 . S
C2235 C2232 1.386 . S
C2236 C2231 1.490 . S
C2236 C2238 1.395 . S
C2236 C2239 1.403 . S
H2237 C2243 0.930 . S
C2238 H2224 0.930 . S
C2238 C2236 1.395 . S
C2238 C2241 1.403 . S
C2239 C2236 1.403 . S
C2239 C2240 1.524 . S
C2239 C2243 1.400 . S
C2240 H2225 0.960 . S
C2240 H2226 0.960 . S
C2240 H2227 0.960 . S
C2240 C2239 1.524 . S
C2241 C2238 1.403 . S
C2241 C2242 1.392 . S
C2241 C2245 1.495 . S
C2242 C2241 1.392 . S
C2242 C2243 1.385 . S
C2242 C2244 1.478 . S
C2243 H2237 0.930 . S
C2243 C2239 1.400 . S
C2243 C2242 1.385 . S
C2244 C2242 1.478 . S
C2244 C2246 1.381 . S
C2244 C2250 1.383 . S
C2245 C2241 1.495 . S
C2245 H2251 0.959 . S
C2245 H2252 0.961 . S
C2245 H2253 0.960 . S
C2246 C2244 1.381 . S
C2246 C2247 1.394 . S
C2246 H2254 0.930 . S
C2247 C2246 1.394 . S
C2247 C2248 1.383 . S
C2247 H2255 0.929 . S
C2248 C2247 1.383 . S
C2248 C2249 1.377 . S
C2249 H2233 0.930 . S
C2249 C2248 1.377 . S
C2249 C2250 1.379 . S
C2250 H2234 0.931 . S
C2250 C2244 1.383 . S
C2250 C2249 1.379 . S
H2251 C2245 0.959 . S
H2252 C2245 0.961 . S
H2253 C2245 0.960 . S
H2254 C2246 0.930 . S
H2255 C2247 0.929 . S
H2256 C2264 0.929 . S
H2257 C2266 0.930 . S
H2258 C2268 0.930 . S
H2259 C2271 0.929 . S
H2260 C2274 0.930 . S
H2261 C2276 0.960 . S
H2262 C2276 0.960 . S
H2263 C2276 0.960 . S
C2264 H2256 0.929 . S
C2264 C2265 1.377 . S
C2264 C2266 1.384 . S
C2265 C2264 1.377 . S
C2265 C2271 1.390 . S
C2266 H2257 0.930 . S
C2266 C2264 1.384 . S
C2266 C2267 1.372 . S
C2267 C2266 1.372 . S
C2267 C2268 1.400 . S
C2267 C2272 1.490 . S
C2268 H2258 0.930 . S
C2268 C2267 1.400 . S
C2268 C2271 1.386 . S
H2269 C2285 0.930 . S
H2270 C2286 0.931 . S
C2271 H2259 0.929 . S
C2271 C2265 1.390 . S
C2271 C2268 1.386 . S
C2272 C2267 1.490 . S
C2272 C2274 1.395 . S
C2272 C2275 1.403 . S
H2273 C2279 0.930 . S
C2274 H2260 0.930 . S
C2274 C2272 1.395 . S
C2274 C2277 1.403 . S
C2275 C2272 1.403 . S
C2275 C2276 1.524 . S
C2275 C2279 1.400 . S
C2276 H2261 0.960 . S
C2276 H2262 0.960 . S
C2276 H2263 0.960 . S
C2276 C2275 1.524 . S
C2277 C2274 1.403 . S
C2277 C2278 1.392 . S
C2277 C2281 1.495 . S
C2278 C2277 1.392 . S
C2278 C2279 1.385 . S
C2278 C2280 1.478 . S
C2279 H2273 0.930 . S
C2279 C2275 1.400 . S
C2279 C2278 1.385 . S
C2280 C2278 1.478 . S
C2280 C2282 1.381 . S
C2280 C2286 1.383 . S
C2281 C2277 1.495 . S
C2281 H2287 0.959 . S
C2281 H2288 0.961 . S
C2281 H2289 0.960 . S
C2282 C2280 1.381 . S
C2282 C2283 1.394 . S
C2282 H2290 0.930 . S
C2283 C2282 1.394 . S
C2283 C2284 1.383 . S
C2283 H2291 0.929 . S
C2284 C2283 1.383 . S
C2284 C2285 1.377 . S
C2285 H2269 0.930 . S
C2285 C2284 1.377 . S
C2285 C2286 1.379 . S
C2286 H2270 0.931 . S
C2286 C2280 1.383 . S
C2286 C2285 1.379 . S
H2287 C2281 0.959 . S
H2288 C2281 0.961 . S
H2289 C2281 0.960 . S
H2290 C2282 0.930 . S
H2291 C2283 0.929 . S
H2292 C2300 0.929 . S
H2293 C2302 0.930 . S
H2294 C2304 0.930 . S
H2295 C2307 0.929 . S
H2296 C2310 0.930 . S
H2297 C2312 0.960 . S
H2298 C2312 0.960 . S
H2299 C2312 0.960 . S
C2300 H2292 0.929 . S
C2300 C2301 1.377 . S
C2300 C2302 1.384 . S
C2301 C2300 1.377 . S
C2301 C2307 1.390 . S
C2302 H2293 0.930 . S
C2302 C2300 1.384 . S
C2302 C2303 1.372 . S
C2303 C2302 1.372 . S
C2303 C2304 1.400 . S
C2303 C2308 1.490 . S
C2304 H2294 0.930 . S
C2304 C2303 1.400 . S
C2304 C2307 1.386 . S
H2305 C2321 0.930 . S
H2306 C2322 0.931 . S
C2307 H2295 0.929 . S
C2307 C2301 1.390 . S
C2307 C2304 1.386 . S
C2308 C2303 1.490 . S
C2308 C2310 1.395 . S
C2308 C2311 1.403 . S
H2309 C2315 0.930 . S
C2310 H2296 0.930 . S
C2310 C2308 1.395 . S
C2310 C2313 1.403 . S
C2311 C2308 1.403 . S
C2311 C2312 1.524 . S
C2311 C2315 1.400 . S
C2312 H2297 0.960 . S
C2312 H2298 0.960 . S
C2312 H2299 0.960 . S
C2312 C2311 1.524 . S
C2313 C2310 1.403 . S
C2313 C2314 1.392 . S
C2313 C2317 1.495 . S
C2314 C2313 1.392 . S
C2314 C2315 1.385 . S
C2314 C2316 1.478 . S
C2315 H2309 0.930 . S
C2315 C2311 1.400 . S
C2315 C2314 1.385 . S
C2316 C2314 1.478 . S
C2316 C2318 1.381 . S
C2316 C2322 1.383 . S
C2317 C2313 1.495 . S
C2317 H2323 0.959 . S
C2317 H2324 0.961 . S
C2317 H2325 0.960 . S
C2318 C2316 1.381 . S
C2318 C2319 1.394 . S
C2318 H2326 0.930 . S
C2319 C2318 1.394 . S
C2319 C2320 1.383 . S
C2319 H2327 0.929 . S
C2320 C2319 1.383 . S
C2320 C2321 1.377 . S
C2321 H2305 0.930 . S
C2321 C2320 1.377 . S
C2321 C2322 1.379 . S
C2322 H2306 0.931 . S
C2322 C2316 1.383 . S
C2322 C2321 1.379 . S
H2323 C2317 0.959 . S
H2324 C2317 0.961 . S
H2325 C2317 0.960 . S
H2326 C2318 0.930 . S
H2327 C2319 0.929 . S
H2328 C2336 0.929 . S
H2329 C2338 0.930 . S
H2330 C2340 0.930 . S
H2331 C2343 0.929 . S
H2332 C2346 0.930 . S
H2333 C2348 0.960 . S
H2334 C2348 0.960 . S
H2335 C2348 0.960 . S
C2336 H2328 0.929 . S
C2336 C2337 1.377 . S
C2336 C2338 1.384 . S
C2337 C2336 1.377 . S
C2337 C2343 1.390 . S
C2338 H2329 0.930 . S
C2338 C2336 1.384 . S
C2338 C2339 1.372 . S
C2339 C2338 1.372 . S
C2339 C2340 1.400 . S
C2339 C2344 1.490 . S
C2340 H2330 0.930 . S
C2340 C2339 1.400 . S
C2340 C2343 1.386 . S
H2341 C2357 0.930 . S
H2342 C2358 0.931 . S
C2343 H2331 0.929 . S
C2343 C2337 1.390 . S
C2343 C2340 1.386 . S
C2344 C2339 1.490 . S
C2344 C2346 1.395 . S
C2344 C2347 1.403 . S
H2345 C2351 0.930 . S
C2346 H2332 0.930 . S
C2346 C2344 1.395 . S
C2346 C2349 1.403 . S
C2347 C2344 1.403 . S
C2347 C2348 1.524 . S
C2347 C2351 1.400 . S
C2348 H2333 0.960 . S
C2348 H2334 0.960 . S
C2348 H2335 0.960 . S
C2348 C2347 1.524 . S
C2349 C2346 1.403 . S
C2349 C2350 1.392 . S
C2349 C2353 1.495 . S
C2350 C2349 1.392 . S
C2350 C2351 1.385 . S
C2350 C2352 1.478 . S
C2351 H2345 0.930 . S
C2351 C2347 1.400 . S
C2351 C2350 1.385 . S
C2352 C2350 1.478 . S
C2352 C2354 1.381 . S
C2352 C2358 1.383 . S
C2353 C2349 1.495 . S
C2353 H2359 0.959 . S
C2353 H2360 0.961 . S
C2353 H2361 0.960 . S
C2354 C2352 1.381 . S
C2354 C2355 1.394 . S
C2354 H2362 0.930 . S
C2355 C2354 1.394 . S
C2355 C2356 1.383 . S
C2355 H2363 0.929 . S
C2356 C2355 1.383 . S
C2356 C2357 1.377 . S
C2357 H2341 0.930 . S
C2357 C2356 1.377 . S
C2357 C2358 1.379 . S
C2358 H2342 0.931 . S
C2358 C2352 1.383 . S
C2358 C2357 1.379 . S
H2359 C2353 0.959 . S
H2360 C2353 0.961 . S
H2361 C2353 0.960 . S
H2362 C2354 0.930 . S
H2363 C2355 0.929 . S
H2364 C2372 0.929 . S
H2365 C2374 0.930 . S
H2366 C2376 0.930 . S
H2367 C2379 0.929 . S
H2368 C2382 0.930 . S
H2369 C2384 0.960 . S
H2370 C2384 0.960 . S
H2371 C2384 0.960 . S
C2372 H2364 0.929 . S
C2372 C2373 1.377 . S
C2372 C2374 1.384 . S
C2373 C2372 1.377 . S
C2373 C2379 1.390 . S
C2374 H2365 0.930 . S
C2374 C2372 1.384 . S
C2374 C2375 1.372 . S
C2375 C2374 1.372 . S
C2375 C2376 1.400 . S
C2375 C2380 1.490 . S
C2376 H2366 0.930 . S
C2376 C2375 1.400 . S
C2376 C2379 1.386 . S
H2377 C2393 0.930 . S
H2378 C2394 0.931 . S
C2379 H2367 0.929 . S
C2379 C2373 1.390 . S
C2379 C2376 1.386 . S
C2380 C2375 1.490 . S
C2380 C2382 1.395 . S
C2380 C2383 1.403 . S
H2381 C2387 0.930 . S
C2382 H2368 0.930 . S
C2382 C2380 1.395 . S
C2382 C2385 1.403 . S
C2383 C2380 1.403 . S
C2383 C2384 1.524 . S
C2383 C2387 1.400 . S
C2384 H2369 0.960 . S
C2384 H2370 0.960 . S
C2384 H2371 0.960 . S
C2384 C2383 1.524 . S
C2385 C2382 1.403 . S
C2385 C2386 1.392 . S
C2385 C2389 1.495 . S
C2386 C2385 1.392 . S
C2386 C2387 1.385 . S
C2386 C2388 1.478 . S
C2387 H2381 0.930 . S
C2387 C2383 1.400 . S
C2387 C2386 1.385 . S
C2388 C2386 1.478 . S
C2388 C2390 1.381 . S
C2388 C2394 1.383 . S
C2389 C2385 1.495 . S
C2389 H2395 0.959 . S
C2389 H2396 0.961 . S
C2389 H2397 0.960 . S
C2390 C2388 1.381 . S
C2390 C2391 1.394 . S
C2390 H2398 0.930 . S
C2391 C2390 1.394 . S
C2391 C2392 1.383 . S
C2391 H2399 0.929 . S
C2392 C2391 1.383 . S
C2392 C2393 1.377 . S
C2393 H2377 0.930 . S
C2393 C2392 1.377 . S
C2393 C2394 1.379 . S
C2394 H2378 0.931 . S
C2394 C2388 1.383 . S
C2394 C2393 1.379 . S
H2395 C2389 0.959 . S
H2396 C2389 0.961 . S
H2397 C2389 0.960 . S
H2398 C2390 0.930 . S
H2399 C2391 0.929 . S
H2400 C2408 0.929 . S
H2401 C2410 0.930 . S
H2402 C2412 0.930 . S
H2403 C2415 0.929 . S
H2404 C2418 0.930 . S
H2405 C2420 0.960 . S
H2406 C2420 0.960 . S
H2407 C2420 0.960 . S
C2408 H2400 0.929 . S
C2408 C2409 1.377 . S
C2408 C2410 1.384 . S
C2409 C2408 1.377 . S
C2409 C2415 1.390 . S
C2410 H2401 0.930 . S
C2410 C2408 1.384 . S
C2410 C2411 1.372 . S
C2411 C2410 1.372 . S
C2411 C2412 1.400 . S
C2411 C2416 1.490 . S
C2412 H2402 0.930 . S
C2412 C2411 1.400 . S
C2412 C2415 1.386 . S
H2413 C2429 0.930 . S
H2414 C2430 0.931 . S
C2415 H2403 0.929 . S
C2415 C2409 1.390 . S
C2415 C2412 1.386 . S
C2416 C2411 1.490 . S
C2416 C2418 1.395 . S
C2416 C2419 1.403 . S
H2417 C2423 0.930 . S
C2418 H2404 0.930 . S
C2418 C2416 1.395 . S
C2418 C2421 1.403 . S
C2419 C2416 1.403 . S
C2419 C2420 1.524 . S
C2419 C2423 1.400 . S
C2420 H2405 0.960 . S
C2420 H2406 0.960 . S
C2420 H2407 0.960 . S
C2420 C2419 1.524 . S
C2421 C2418 1.403 . S
C2421 C2422 1.392 . S
C2421 C2425 1.495 . S
C2422 C2421 1.392 . S
C2422 C2423 1.385 . S
C2422 C2424 1.478 . S
C2423 H2417 0.930 . S
C2423 C2419 1.400 . S
C2423 C2422 1.385 . S
C2424 C2422 1.478 . S
C2424 C2426 1.381 . S
C2424 C2430 1.383 . S
C2425 C2421 1.495 . S
C2425 H2431 0.959 . S
C2425 H2432 0.961 . S
C2425 H2433 0.960 . S
C2426 C2424 1.381 . S
C2426 C2427 1.394 . S
C2426 H2434 0.930 . S
C2427 C2426 1.394 . S
C2427 C2428 1.383 . S
C2427 H2435 0.929 . S
C2428 C2427 1.383 . S
C2428 C2429 1.377 . S
C2429 H2413 0.930 . S
C2429 C2428 1.377 . S
C2429 C2430 1.379 . S
C2430 H2414 0.931 . S
C2430 C2424 1.383 . S
C2430 C2429 1.379 . S
H2431 C2425 0.959 . S
H2432 C2425 0.961 . S
H2433 C2425 0.960 . S
H2434 C2426 0.930 . S
H2435 C2427 0.929 . S
H2436 C2444 0.929 . S
H2437 C2446 0.930 . S
H2438 C2448 0.930 . S
H2439 C2451 0.929 . S
H2440 C2454 0.930 . S
H2441 C2456 0.960 . S
H2442 C2456 0.960 . S
H2443 C2456 0.960 . S
C2444 H2436 0.929 . S
C2444 C2445 1.377 . S
C2444 C2446 1.384 . S
C2445 C2444 1.377 . S
C2445 C2451 1.390 . S
C2446 H2437 0.930 . S
C2446 C2444 1.384 . S
C2446 C2447 1.372 . S
C2447 C2446 1.372 . S
C2447 C2448 1.400 . S
C2447 C2452 1.490 . S
C2448 H2438 0.930 . S
C2448 C2447 1.400 . S
C2448 C2451 1.386 . S
H2449 C2465 0.930 . S
H2450 C2466 0.931 . S
C2451 H2439 0.929 . S
C2451 C2445 1.390 . S
C2451 C2448 1.386 . S
C2452 C2447 1.490 . S
C2452 C2454 1.395 . S
C2452 C2455 1.403 . S
H2453 C2459 0.930 . S
C2454 H2440 0.930 . S
C2454 C2452 1.395 . S
C2454 C2457 1.403 . S
C2455 C2452 1.403 . S
C2455 C2456 1.524 . S
C2455 C2459 1.400 . S
C2456 H2441 0.960 . S
C2456 H2442 0.960 . S
C2456 H2443 0.960 . S
C2456 C2455 1.524 . S
C2457 C2454 1.403 . S
C2457 C2458 1.392 . S
C2457 C2461 1.495 . S
C2458 C2457 1.392 . S
C2458 C2459 1.385 . S
C2458 C2460 1.478 . S
C2459 H2453 0.930 . S
C2459 C2455 1.400 . S
C2459 C2458 1.385 . S
C2460 C2458 1.478 . S
C2460 C2462 1.381 . S
C2460 C2466 1.383 . S
C2461 C2457 1.495 . S
C2461 H2467 0.959 . S
C2461 H2468 0.961 . S
C2461 H2469 0.960 . S
C2462 C2460 1.381 . S
C2462 C2463 1.394 . S
C2462 H2470 0.930 . S
C2463 C2462 1.394 . S
C2463 C2464 1.383 . S
C2463 H2471 0.929 . S
C2464 C2463 1.383 . S
C2464 C2465 1.377 . S
C2465 H2449 0.930 . S
C2465 C2464 1.377 . S
C2465 C2466 1.379 . S
C2466 H2450 0.931 . S
C2466 C2460 1.383 . S
C2466 C2465 1.379 . S
H2467 C2461 0.959 . S
H2468 C2461 0.961 . S
H2469 C2461 0.960 . S
H2470 C2462 0.930 . S
H2471 C2463 0.929 . S
H2472 C2480 0.929 . S
H2473 C2482 0.930 . S
H2474 C2484 0.902 1_545 S
H2475 C2487 0.929 . S
H2476 C2490 0.930 . S
H2477 C2492 0.960 . S
H2478 C2492 0.960 . S
H2479 C2492 0.960 1_545 S
C2480 H2472 0.929 . S
C2480 C2481 1.377 . S
C2480 C2482 1.384 . S
C2481 C2480 1.377 . S
C2481 C2487 1.390 1_565 S
C2482 H2473 0.930 . S
C2482 C2480 1.384 . S
C2482 C2483 1.372 . S
C2483 C2482 1.372 . S
C2483 C2484 1.400 . S
C2483 C2488 1.490 . S
C2484 H2474 0.902 1_565 S
C2484 C2483 1.400 . S
C2484 C2487 1.386 1_565 S
H2485 C2501 0.930 . S
H2486 C2502 0.931 . S
C2487 H2475 0.929 . S
C2487 C2481 1.390 1_545 S
C2487 C2484 1.386 1_545 S
C2488 C2483 1.490 . S
C2488 C2490 1.395 . S
C2488 C2491 1.403 . S
H2489 C2495 0.930 . S
C2490 H2476 0.930 . S
C2490 C2488 1.395 . S
C2490 C2493 1.403 . S
C2491 C2488 1.403 . S
C2491 C2492 1.524 . S
C2491 C2495 1.400 . S
C2492 H2477 0.960 . S
C2492 H2478 0.960 . S
C2492 H2479 0.960 1_565 S
C2492 C2491 1.524 . S
C2493 C2490 1.403 . S
C2493 C2494 1.392 . S
C2493 C2497 1.495 . S
C2494 C2493 1.392 . S
C2494 C2495 1.385 . S
C2494 C2496 1.478 . S
C2495 H2489 0.930 . S
C2495 C2491 1.400 . S
C2495 C2494 1.385 . S
C2496 C2494 1.478 . S
C2496 C2498 1.381 . S
C2496 C2502 1.383 . S
C2497 C2493 1.495 . S
C2497 H2503 0.959 . S
C2497 H2504 0.961 . S
C2497 H2505 0.960 . S
C2498 C2496 1.381 . S
C2498 C2499 1.394 . S
C2498 H2506 0.930 . S
C2499 C2498 1.394 . S
C2499 C2500 1.383 . S
C2499 H2507 0.929 . S
C2500 C2499 1.383 . S
C2500 C2501 1.377 . S
C2501 H2485 0.930 . S
C2501 C2500 1.377 . S
C2501 C2502 1.379 . S
C2502 H2486 0.931 . S
C2502 C2496 1.383 . S
C2502 C2501 1.379 . S
H2503 C2497 0.959 . S
H2504 C2497 0.961 . S
H2505 C2497 0.960 . S
H2506 C2498 0.930 . S
H2507 C2499 0.929 . S
H2508 C2516 0.929 . S
H2509 C2518 0.930 . S
H2510 C2520 0.930 . S
H2511 C2523 0.929 . S
H2512 C2526 0.930 . S
H2513 C2528 0.960 . S
H2514 C2528 0.960 . S
H2515 C2528 0.960 . S
C2516 H2508 0.929 . S
C2516 C2517 1.377 . S
C2516 C2518 1.384 . S
C2517 C2516 1.377 . S
C2517 C2523 1.390 . S
C2518 H2509 0.930 . S
C2518 C2516 1.384 . S
C2518 C2519 1.372 . S
C2519 C2518 1.372 . S
C2519 C2520 1.400 . S
C2519 C2524 1.490 . S
C2520 H2510 0.930 . S
C2520 C2519 1.400 . S
C2520 C2523 1.386 . S
H2521 C2537 0.930 . S
H2522 C2538 0.931 . S
C2523 H2511 0.929 . S
C2523 C2517 1.390 . S
C2523 C2520 1.386 . S
C2524 C2519 1.490 . S
C2524 C2526 1.395 . S
C2524 C2527 1.403 . S
H2525 C2531 0.930 . S
C2526 H2512 0.930 . S
C2526 C2524 1.395 . S
C2526 C2529 1.403 . S
C2527 C2524 1.403 . S
C2527 C2528 1.524 . S
C2527 C2531 1.400 . S
C2528 H2513 0.960 . S
C2528 H2514 0.960 . S
C2528 H2515 0.960 . S
C2528 C2527 1.524 . S
C2529 C2526 1.403 . S
C2529 C2530 1.392 . S
C2529 C2533 1.495 . S
C2530 C2529 1.392 . S
C2530 C2531 1.385 . S
C2530 C2532 1.478 . S
C2531 H2525 0.930 . S
C2531 C2527 1.400 . S
C2531 C2530 1.385 . S
C2532 C2530 1.478 . S
C2532 C2534 1.381 . S
C2532 C2538 1.383 . S
C2533 C2529 1.495 . S
C2533 H2539 0.959 . S
C2533 H2540 0.961 . S
C2533 H2541 0.960 . S
C2534 C2532 1.381 . S
C2534 C2535 1.394 . S
C2534 H2542 0.930 . S
C2535 C2534 1.394 . S
C2535 C2536 1.383 . S
C2535 H2543 0.929 . S
C2536 C2535 1.383 . S
C2536 C2537 1.377 . S
C2537 H2521 0.930 . S
C2537 C2536 1.377 . S
C2537 C2538 1.379 . S
C2538 H2522 0.931 . S
C2538 C2532 1.383 . S
C2538 C2537 1.379 . S
H2539 C2533 0.959 . S
H2540 C2533 0.961 . S
H2541 C2533 0.960 . S
H2542 C2534 0.930 . S
H2543 C2535 0.929 . S
H2544 C2552 0.929 . S
H2545 C2554 0.930 . S
H2546 C2556 0.930 . S
H2547 C2559 0.929 . S
H2548 C2562 0.930 . S
H2549 C2564 0.960 . S
H2550 C2564 0.960 . S
H2551 C2564 0.960 . S
C2552 H2544 0.929 . S
C2552 C2553 1.377 . S
C2552 C2554 1.384 . S
C2553 C2552 1.377 . S
C2553 C2559 1.390 . S
C2554 H2545 0.930 . S
C2554 C2552 1.384 . S
C2554 C2555 1.372 . S
C2555 C2554 1.372 . S
C2555 C2556 1.400 . S
C2555 C2560 1.490 . S
C2556 H2546 0.930 . S
C2556 C2555 1.400 . S
C2556 C2559 1.386 . S
H2557 C2573 0.930 . S
H2558 C2574 0.931 . S
C2559 H2547 0.929 . S
C2559 C2553 1.390 . S
C2559 C2556 1.386 . S
C2560 C2555 1.490 . S
C2560 C2562 1.395 . S
C2560 C2563 1.403 . S
H2561 C2567 0.930 . S
C2562 H2548 0.930 . S
C2562 C2560 1.395 . S
C2562 C2565 1.403 . S
C2563 C2560 1.403 . S
C2563 C2564 1.524 . S
C2563 C2567 1.400 . S
C2564 H2549 0.960 . S
C2564 H2550 0.960 . S
C2564 H2551 0.960 . S
C2564 C2563 1.524 . S
C2565 C2562 1.403 . S
C2565 C2566 1.392 . S
C2565 C2569 1.495 . S
C2566 C2565 1.392 . S
C2566 C2567 1.385 . S
C2566 C2568 1.478 . S
C2567 H2561 0.930 . S
C2567 C2563 1.400 . S
C2567 C2566 1.385 . S
C2568 C2566 1.478 . S
C2568 C2570 1.381 . S
C2568 C2574 1.383 . S
C2569 C2565 1.495 . S
C2569 H2575 0.959 . S
C2569 H2576 0.961 . S
C2569 H2577 0.960 . S
C2570 C2568 1.381 . S
C2570 C2571 1.394 . S
C2570 H2578 0.930 . S
C2571 C2570 1.394 . S
C2571 C2572 1.383 . S
C2571 H2579 0.929 . S
C2572 C2571 1.383 . S
C2572 C2573 1.377 . S
C2573 H2557 0.930 . S
C2573 C2572 1.377 . S
C2573 C2574 1.379 . S
C2574 H2558 0.931 . S
C2574 C2568 1.383 . S
C2574 C2573 1.379 . S
H2575 C2569 0.959 . S
H2576 C2569 0.961 . S
H2577 C2569 0.960 . S
H2578 C2570 0.930 . S
H2579 C2571 0.929 . S
H2580 C2588 0.929 . S
H2581 C2590 0.930 . S
H2582 C2592 0.930 . S
H2583 C2595 0.929 . S
H2584 C2598 0.930 . S
H2585 C2600 0.960 . S
H2586 C2600 0.960 . S
H2587 C2600 0.960 . S
C2588 H2580 0.929 . S
C2588 C2589 1.377 . S
C2588 C2590 1.384 . S
C2589 C2588 1.377 . S
C2589 C2595 1.390 . S
C2590 H2581 0.930 . S
C2590 C2588 1.384 . S
C2590 C2591 1.372 . S
C2591 C2590 1.372 . S
C2591 C2592 1.400 . S
C2591 C2596 1.490 . S
C2592 H2582 0.930 . S
C2592 C2591 1.400 . S
C2592 C2595 1.386 . S
H2593 C2609 0.930 . S
H2594 C2610 0.931 . S
C2595 H2583 0.929 . S
C2595 C2589 1.390 . S
C2595 C2592 1.386 . S
C2596 C2591 1.490 . S
C2596 C2598 1.395 . S
C2596 C2599 1.403 . S
H2597 C2603 0.930 . S
C2598 H2584 0.930 . S
C2598 C2596 1.395 . S
C2598 C2601 1.403 . S
C2599 C2596 1.403 . S
C2599 C2600 1.524 . S
C2599 C2603 1.400 . S
C2600 H2585 0.960 . S
C2600 H2586 0.960 . S
C2600 H2587 0.960 . S
C2600 C2599 1.524 . S
C2601 C2598 1.403 . S
C2601 C2602 1.392 . S
C2601 C2605 1.495 . S
C2602 C2601 1.392 . S
C2602 C2603 1.385 . S
C2602 C2604 1.478 . S
C2603 H2597 0.930 . S
C2603 C2599 1.400 . S
C2603 C2602 1.385 . S
C2604 C2602 1.478 . S
C2604 C2606 1.381 . S
C2604 C2610 1.383 . S
C2605 C2601 1.495 . S
C2605 H2611 0.959 . S
C2605 H2612 0.961 . S
C2605 H2613 0.960 . S
C2606 C2604 1.381 . S
C2606 C2607 1.394 . S
C2606 H2614 0.930 . S
C2607 C2606 1.394 . S
C2607 C2608 1.383 . S
C2607 H2615 0.929 . S
C2608 C2607 1.383 . S
C2608 C2609 1.377 . S
C2609 H2593 0.930 . S
C2609 C2608 1.377 . S
C2609 C2610 1.379 . S
C2610 H2594 0.931 . S
C2610 C2604 1.383 . S
C2610 C2609 1.379 . S
H2611 C2605 0.959 . S
H2612 C2605 0.961 . S
H2613 C2605 0.960 . S
H2614 C2606 0.930 . S
H2615 C2607 0.929 . S
H2616 C2624 0.929 . S
H2617 C2626 0.930 . S
H2618 C2628 0.930 . S
H2619 C2631 0.929 . S
H2620 C2634 0.930 . S
H2621 C2636 0.960 . S
H2622 C2636 0.960 . S
H2623 C2636 0.960 . S
C2624 H2616 0.929 . S
C2624 C2625 1.377 . S
C2624 C2626 1.384 . S
C2625 C2624 1.377 . S
C2625 C2631 1.390 . S
C2626 H2617 0.930 . S
C2626 C2624 1.384 . S
C2626 C2627 1.372 . S
C2627 C2626 1.372 . S
C2627 C2628 1.400 . S
C2627 C2632 1.490 . S
C2628 H2618 0.930 . S
C2628 C2627 1.400 . S
C2628 C2631 1.386 . S
H2629 C2645 0.930 . S
H2630 C2646 0.931 . S
C2631 H2619 0.929 . S
C2631 C2625 1.390 . S
C2631 C2628 1.386 . S
C2632 C2627 1.490 . S
C2632 C2634 1.395 . S
C2632 C2635 1.403 . S
H2633 C2639 0.930 . S
C2634 H2620 0.930 . S
C2634 C2632 1.395 . S
C2634 C2637 1.403 . S
C2635 C2632 1.403 . S
C2635 C2636 1.524 . S
C2635 C2639 1.400 . S
C2636 H2621 0.960 . S
C2636 H2622 0.960 . S
C2636 H2623 0.960 . S
C2636 C2635 1.524 . S
C2637 C2634 1.403 . S
C2637 C2638 1.392 . S
C2637 C2641 1.495 . S
C2638 C2637 1.392 . S
C2638 C2639 1.385 . S
C2638 C2640 1.478 . S
C2639 H2633 0.930 . S
C2639 C2635 1.400 . S
C2639 C2638 1.385 . S
C2640 C2638 1.478 . S
C2640 C2642 1.381 . S
C2640 C2646 1.383 1_545 S
C2641 C2637 1.495 . S
C2641 H2647 0.959 . S
C2641 H2648 0.961 . S
C2641 H2649 0.960 . S
C2642 C2640 1.381 . S
C2642 C2643 1.394 . S
C2642 H2650 0.930 . S
C2643 C2642 1.394 . S
C2643 C2644 1.397 . S
C2643 H2651 0.929 . S
C2644 C2643 1.397 . S
C2644 C2645 1.368 1_545 S
C2645 H2629 0.930 . S
C2645 C2644 1.368 1_565 S
C2645 C2646 1.379 . S
C2646 H2630 0.931 . S
C2646 C2640 1.383 1_565 S
C2646 C2645 1.379 . S
H2647 C2641 0.959 . S
H2648 C2641 0.961 . S
H2649 C2641 0.960 . S
H2650 C2642 0.930 . S
H2651 C2643 0.929 . S
H2652 C2660 0.929 . S
H2653 C2662 0.930 . S
H2654 C2664 0.930 . S
H2655 C2667 0.929 . S
H2656 C2670 0.930 . S
H2657 C2672 0.960 . S
H2658 C2672 0.960 . S
H2659 C2672 0.960 . S
C2660 H2652 0.929 . S
C2660 C2661 1.377 . S
C2660 C2662 1.384 . S
C2661 C2660 1.377 . S
C2661 C2667 1.390 . S
C2662 H2653 0.930 . S
C2662 C2660 1.384 . S
C2662 C2663 1.372 . S
C2663 C2662 1.372 . S
C2663 C2664 1.400 . S
C2663 C2668 1.490 . S
C2664 H2654 0.930 . S
C2664 C2663 1.400 . S
C2664 C2667 1.386 . S
H2665 C2681 0.930 . S
H2666 C2682 0.931 . S
C2667 H2655 0.929 . S
C2667 C2661 1.390 . S
C2667 C2664 1.386 . S
C2668 C2663 1.490 . S
C2668 C2670 1.395 . S
C2668 C2671 1.403 . S
H2669 C2675 0.930 . S
C2670 H2656 0.930 . S
C2670 C2668 1.395 . S
C2670 C2673 1.403 . S
C2671 C2668 1.403 . S
C2671 C2672 1.524 . S
C2671 C2675 1.400 . S
C2672 H2657 0.960 . S
C2672 H2658 0.960 . S
C2672 H2659 0.960 . S
C2672 C2671 1.524 . S
C2673 C2670 1.403 . S
C2673 C2674 1.392 . S
C2673 C2677 1.495 . S
C2674 C2673 1.392 . S
C2674 C2675 1.385 . S
C2674 C2676 1.478 . S
C2675 H2669 0.930 . S
C2675 C2671 1.400 . S
C2675 C2674 1.385 . S
C2676 C2674 1.478 . S
C2676 C2678 1.381 . S
C2676 C2682 1.383 . S
C2677 C2673 1.495 . S
C2677 H2683 0.959 . S
C2677 H2684 0.961 . S
C2677 H2685 0.960 . S
C2678 C2676 1.381 . S
C2678 C2679 1.394 . S
C2678 H2686 0.930 . S
C2679 C2678 1.394 . S
C2679 C2680 1.383 . S
C2679 H2687 0.929 . S
C2680 C2679 1.383 . S
C2680 C2681 1.377 . S
C2681 H2665 0.930 . S
C2681 C2680 1.377 . S
C2681 C2682 1.379 . S
C2682 H2666 0.931 . S
C2682 C2676 1.383 . S
C2682 C2681 1.379 . S
H2683 C2677 0.959 . S
H2684 C2677 0.961 . S
H2685 C2677 0.960 . S
H2686 C2678 0.930 . S
H2687 C2679 0.929 . S
H2688 C2696 0.929 . S
H2689 C2698 0.930 . S
H2690 C2700 0.930 . S
H2691 C2703 0.929 . S
H2692 C2706 0.930 . S
H2693 C2708 0.960 . S
H2694 C2708 0.960 . S
H2695 C2708 0.960 . S
C2696 H2688 0.929 . S
C2696 C2697 1.377 . S
C2696 C2698 1.384 . S
C2697 C2696 1.377 . S
C2697 C2703 1.390 . S
C2698 H2689 0.930 . S
C2698 C2696 1.384 . S
C2698 C2699 1.372 . S
C2699 C2698 1.372 . S
C2699 C2700 1.400 . S
C2699 C2704 1.490 . S
C2700 H2690 0.930 . S
C2700 C2699 1.400 . S
C2700 C2703 1.386 . S
H2701 C2717 0.930 . S
H2702 C2718 0.931 . S
C2703 H2691 0.929 . S
C2703 C2697 1.390 . S
C2703 C2700 1.386 . S
C2704 C2699 1.490 . S
C2704 C2706 1.395 . S
C2704 C2707 1.403 . S
H2705 C2711 0.930 . S
C2706 H2692 0.930 . S
C2706 C2704 1.395 . S
C2706 C2709 1.403 . S
C2707 C2704 1.403 . S
C2707 C2708 1.524 . S
C2707 C2711 1.400 . S
C2708 H2693 0.960 . S
C2708 H2694 0.960 . S
C2708 H2695 0.960 . S
C2708 C2707 1.524 . S
C2709 C2706 1.403 . S
C2709 C2710 1.392 . S
C2709 C2713 1.495 . S
C2710 C2709 1.392 . S
C2710 C2711 1.385 . S
C2710 C2712 1.478 . S
C2711 H2705 0.930 . S
C2711 C2707 1.400 . S
C2711 C2710 1.385 . S
C2712 C2710 1.478 . S
C2712 C2714 1.381 . S
C2712 C2718 1.383 . S
C2713 C2709 1.495 . S
C2713 H2719 0.959 . S
C2713 H2720 0.961 . S
C2713 H2721 0.960 . S
C2714 C2712 1.381 . S
C2714 C2715 1.394 . S
C2714 H2722 0.930 . S
C2715 C2714 1.394 . S
C2715 C2716 1.383 . S
C2715 H2723 0.929 . S
C2716 C2715 1.383 . S
C2716 C2717 1.377 . S
C2717 H2701 0.930 . S
C2717 C2716 1.377 . S
C2717 C2718 1.379 . S
C2718 H2702 0.931 . S
C2718 C2712 1.383 . S
C2718 C2717 1.379 . S
H2719 C2713 0.959 . S
H2720 C2713 0.961 . S
H2721 C2713 0.960 . S
H2722 C2714 0.930 . S
H2723 C2715 0.929 . S
H2724 C2732 0.929 . S
H2725 C2734 0.930 . S
H2726 C2736 0.930 . S
H2727 C2739 0.929 . S
H2728 C2742 0.930 . S
H2729 C2744 0.960 . S
H2730 C2744 0.960 . S
H2731 C2744 0.960 . S
C2732 H2724 0.929 . S
C2732 C2733 1.377 . S
C2732 C2734 1.384 . S
C2733 C2732 1.377 . S
C2733 C2739 1.390 . S
C2734 H2725 0.930 . S
C2734 C2732 1.384 . S
C2734 C2735 1.372 . S
C2735 C2734 1.372 . S
C2735 C2736 1.400 . S
C2735 C2740 1.490 . S
C2736 H2726 0.930 . S
C2736 C2735 1.400 . S
C2736 C2739 1.386 . S
H2737 C2753 0.930 . S
H2738 C2754 0.931 . S
C2739 H2727 0.929 . S
C2739 C2733 1.390 . S
C2739 C2736 1.386 . S
C2740 C2735 1.490 . S
C2740 C2742 1.395 . S
C2740 C2743 1.403 . S
H2741 C2747 0.930 . S
C2742 H2728 0.930 . S
C2742 C2740 1.395 . S
C2742 C2745 1.403 1_455 S
C2743 C2740 1.403 . S
C2743 C2744 1.524 . S
C2743 C2747 1.400 1_455 S
C2744 H2729 0.960 . S
C2744 H2730 0.960 . S
C2744 H2731 0.960 . S
C2744 C2743 1.524 . S
C2745 C2742 1.403 1_655 S
C2745 C2746 1.392 . S
C2745 C2749 1.495 . S
C2746 C2745 1.392 . S
C2746 C2747 1.385 . S
C2746 C2748 1.478 . S
C2747 H2741 0.930 . S
C2747 C2743 1.400 1_655 S
C2747 C2746 1.385 . S
C2748 C2746 1.478 . S
C2748 C2750 1.381 . S
C2748 C2754 1.383 . S
C2749 C2745 1.495 . S
C2749 H2755 0.959 . S
C2749 H2756 0.961 . S
C2749 H2757 0.960 . S
C2750 C2748 1.381 . S
C2750 C2751 1.394 . S
C2750 H2758 0.930 . S
C2751 C2750 1.394 . S
C2751 C2752 1.383 . S
C2751 H2759 0.929 . S
C2752 C2751 1.383 . S
C2752 C2753 1.377 . S
C2753 H2737 0.930 . S
C2753 C2752 1.377 . S
C2753 C2754 1.379 . S
C2754 H2738 0.931 . S
C2754 C2748 1.383 . S
C2754 C2753 1.379 . S
H2755 C2749 0.959 . S
H2756 C2749 0.961 . S
H2757 C2749 0.960 . S
H2758 C2750 0.930 . S
H2759 C2751 0.929 . S
H2760 C2768 0.929 . S
H2761 C2770 0.930 1_556 S
H2762 C2772 0.930 . S
H2763 C2775 0.929 . S
H2764 C2778 0.930 . S
H2765 C2780 0.960 . S
H2766 C2780 0.960 1_556 S
H2767 C2780 0.960 . S
C2768 H2760 0.929 . S
C2768 C2769 1.377 1_556 S
C2768 C2770 1.384 1_556 S
C2769 C2768 1.377 1_554 S
C2769 C2775 1.390 . S
C2770 H2761 0.930 1_554 S
C2770 C2768 1.384 1_554 S
C2770 C2771 1.372 . S
C2771 C2770 1.372 . S
C2771 C2772 1.400 . S
C2771 C2776 1.490 . S
C2772 H2762 0.930 . S
C2772 C2771 1.400 . S
C2772 C2775 1.386 . S
H2773 C2789 0.930 . S
H2774 C2790 0.931 . S
C2775 H2763 0.929 . S
C2775 C2769 1.390 . S
C2775 C2772 1.386 . S
C2776 C2771 1.490 . S
C2776 C2778 1.395 . S
C2776 C2779 1.403 . S
H2777 C2783 0.930 . S
C2778 H2764 0.930 . S
C2778 C2776 1.395 . S
C2778 C2781 1.403 . S
C2779 C2776 1.403 . S
C2779 C2780 1.524 . S
C2779 C2783 1.400 . S
C2780 H2765 0.960 . S
C2780 H2766 0.960 1_554 S
C2780 H2767 0.960 . S
C2780 C2779 1.524 . S
C2781 C2778 1.403 . S
C2781 C2782 1.392 . S
C2781 C2785 1.495 . S
C2782 C2781 1.392 . S
C2782 C2783 1.385 . S
C2782 C2784 1.478 . S
C2783 H2777 0.930 . S
C2783 C2779 1.400 . S
C2783 C2782 1.385 . S
C2784 C2782 1.478 . S
C2784 C2786 1.381 . S
C2784 C2790 1.383 . S
C2785 C2781 1.495 . S
C2785 H2791 0.959 . S
C2785 H2792 0.961 . S
C2785 H2793 0.960 . S
C2786 C2784 1.381 . S
C2786 C2787 1.394 . S
C2786 H2794 0.930 . S
C2787 C2786 1.394 . S
C2787 C2788 1.383 . S
C2787 H2795 0.929 . S
C2788 C2787 1.383 . S
C2788 C2789 1.377 . S
C2789 H2773 0.930 . S
C2789 C2788 1.377 . S
C2789 C2790 1.379 . S
C2790 H2774 0.931 . S
C2790 C2784 1.383 . S
C2790 C2789 1.379 . S
H2791 C2785 0.959 . S
H2792 C2785 0.961 . S
H2793 C2785 0.960 . S
H2794 C2786 0.930 . S
H2795 C2787 0.929 . S
H2796 C2804 0.929 . S
H2797 C2806 0.930 . S
H2798 C2808 0.930 . S
H2799 C2811 0.929 . S
H2800 C2814 0.930 . S
H2801 C2816 0.960 . S
H2802 C2816 0.960 1_655 S
H2803 C2816 0.960 1_655 S
C2804 H2796 0.929 . S
C2804 C2805 1.377 . S
C2804 C2806 1.384 . S
C2805 C2804 1.377 . S
C2805 C2811 1.390 . S
C2806 H2797 0.930 . S
C2806 C2804 1.384 . S
C2806 C2807 1.372 . S
C2807 C2806 1.372 . S
C2807 C2808 1.400 . S
C2807 C2812 1.490 . S
C2808 H2798 0.930 . S
C2808 C2807 1.400 . S
C2808 C2811 1.386 . S
H2809 C2825 0.930 . S
H2810 C2826 0.931 . S
C2811 H2799 0.929 . S
C2811 C2805 1.390 . S
C2811 C2808 1.386 . S
C2812 C2807 1.490 . S
C2812 C2814 1.395 1_545 S
C2812 C2815 1.412 . S
H2813 C2819 0.930 . S
C2814 H2800 0.930 . S
C2814 C2812 1.395 1_565 S
C2814 C2817 1.403 . S
C2815 C2812 1.412 . S
C2815 C2816 1.523 1_655 S
C2815 C2819 1.390 1_655 S
C2816 H2801 0.960 . S
C2816 H2802 0.960 1_455 S
C2816 H2803 0.960 1_455 S
C2816 C2815 1.523 1_455 S
C2817 C2814 1.403 . S
C2817 C2818 1.392 1_655 S
C2817 C2821 1.495 . S
C2818 C2817 1.392 1_455 S
C2818 C2819 1.385 1_565 S
C2818 C2820 1.478 . S
C2819 H2813 0.930 . S
C2819 C2815 1.390 1_455 S
C2819 C2818 1.385 1_545 S
C2820 C2818 1.478 . S
C2820 C2822 1.381 . S
C2820 C2826 1.383 . S
C2821 C2817 1.495 . S
C2821 H2827 0.959 . S
C2821 H2828 0.961 1_655 S
C2821 H2829 0.960 1_655 S
C2822 C2820 1.381 . S
C2822 C2823 1.394 . S
C2822 H2830 0.930 . S
C2823 C2822 1.394 . S
C2823 C2824 1.383 . S
C2823 H2831 0.929 . S
C2824 C2823 1.383 . S
C2824 C2825 1.377 . S
C2825 H2809 0.930 . S
C2825 C2824 1.377 . S
C2825 C2826 1.379 . S
C2826 H2810 0.931 . S
C2826 C2820 1.383 . S
C2826 C2825 1.379 . S
H2827 C2821 0.959 . S
H2828 C2821 0.961 1_455 S
H2829 C2821 0.960 1_455 S
H2830 C2822 0.930 . S
H2831 C2823 0.929 . S
H2832 C2840 0.929 . S
H2833 C2842 0.930 . S
H2834 C2844 0.930 . S
H2835 C2847 0.929 . S
H2836 C2850 0.930 . S
H2837 C2852 0.960 . S
H2838 C2852 0.960 . S
H2839 C2852 0.960 . S
C2840 H2832 0.929 . S
C2840 C2841 1.377 . S
C2840 C2842 1.384 . S
C2841 C2840 1.377 . S
C2841 C2847 1.390 . S
C2842 H2833 0.930 . S
C2842 C2840 1.384 . S
C2842 C2843 1.372 . S
C2843 C2842 1.372 . S
C2843 C2844 1.400 . S
C2843 C2848 1.490 . S
C2844 H2834 0.930 . S
C2844 C2843 1.400 . S
C2844 C2847 1.386 . S
H2845 C2861 0.930 . S
H2846 C2862 0.931 . S
C2847 H2835 0.929 . S
C2847 C2841 1.390 . S
C2847 C2844 1.386 . S
C2848 C2843 1.490 . S
C2848 C2850 1.395 . S
C2848 C2851 1.403 . S
H2849 C2855 0.930 . S
C2850 H2836 0.930 . S
C2850 C2848 1.395 . S
C2850 C2853 1.403 . S
C2851 C2848 1.403 . S
C2851 C2852 1.524 . S
C2851 C2855 1.400 . S
C2852 H2837 0.960 . S
C2852 H2838 0.960 . S
C2852 H2839 0.960 . S
C2852 C2851 1.524 . S
C2853 C2850 1.403 . S
C2853 C2854 1.392 . S
C2853 C2857 1.495 . S
C2854 C2853 1.392 . S
C2854 C2855 1.385 . S
C2854 C2856 1.478 . S
C2855 H2849 0.930 . S
C2855 C2851 1.400 . S
C2855 C2854 1.385 . S
C2856 C2854 1.478 . S
C2856 C2858 1.381 . S
C2856 C2862 1.383 . S
C2857 C2853 1.495 . S
C2857 H2863 0.959 . S
C2857 H2864 0.961 . S
C2857 H2865 0.960 . S
C2858 C2856 1.381 . S
C2858 C2859 1.394 . S
C2858 H2866 0.930 . S
C2859 C2858 1.394 . S
C2859 C2860 1.383 . S
C2859 H2867 0.929 . S
C2860 C2859 1.383 . S
C2860 C2861 1.377 . S
C2861 H2845 0.930 . S
C2861 C2860 1.377 . S
C2861 C2862 1.379 . S
C2862 H2846 0.931 . S
C2862 C2856 1.383 . S
C2862 C2861 1.379 . S
H2863 C2857 0.959 . S
H2864 C2857 0.961 . S
H2865 C2857 0.960 . S
H2866 C2858 0.930 . S
H2867 C2859 0.929 . S
H2868 C2876 0.929 . S
H2869 C2878 0.930 . S
H2870 C2880 0.930 . S
H2871 C2883 0.929 . S
H2872 C2886 0.930 . S
H2873 C2888 0.960 . S
H2874 C2888 0.960 . S
H2875 C2888 0.960 . S
C2876 H2868 0.929 . S
C2876 C2877 1.377 . S
C2876 C2878 1.384 . S
C2877 C2876 1.377 . S
C2877 C2883 1.390 . S
C2878 H2869 0.930 . S
C2878 C2876 1.384 . S
C2878 C2879 1.372 . S
C2879 C2878 1.372 . S
C2879 C2880 1.400 . S
C2879 C2884 1.490 . S
C2880 H2870 0.930 . S
C2880 C2879 1.400 . S
C2880 C2883 1.386 . S
H2881 C2897 0.930 . S
H2882 C2898 0.931 . S
C2883 H2871 0.929 . S
C2883 C2877 1.390 . S
C2883 C2880 1.386 . S
C2884 C2879 1.490 . S
C2884 C2886 1.395 . S
C2884 C2887 1.403 . S
H2885 C2891 0.930 . S
C2886 H2872 0.930 . S
C2886 C2884 1.395 . S
C2886 C2889 1.403 . S
C2887 C2884 1.403 . S
C2887 C2888 1.524 . S
C2887 C2891 1.400 . S
C2888 H2873 0.960 . S
C2888 H2874 0.960 . S
C2888 H2875 0.960 . S
C2888 C2887 1.524 . S
C2889 C2886 1.403 . S
C2889 C2890 1.392 . S
C2889 C2893 1.495 . S
C2890 C2889 1.392 . S
C2890 C2891 1.385 . S
C2890 C2892 1.478 . S
C2891 H2885 0.930 . S
C2891 C2887 1.400 . S
C2891 C2890 1.385 . S
C2892 C2890 1.478 . S
C2892 C2894 1.381 . S
C2892 C2898 1.383 . S
C2893 C2889 1.495 . S
C2893 H2899 0.959 . S
C2893 H2900 0.961 . S
C2893 H2901 0.960 . S
C2894 C2892 1.381 . S
C2894 C2895 1.394 . S
C2894 H2902 0.930 . S
C2895 C2894 1.394 . S
C2895 C2896 1.383 . S
C2895 H2903 0.929 . S
C2896 C2895 1.383 . S
C2896 C2897 1.377 . S
C2897 H2881 0.930 . S
C2897 C2896 1.377 . S
C2897 C2898 1.379 . S
C2898 H2882 0.931 . S
C2898 C2892 1.383 . S
C2898 C2897 1.379 . S
H2899 C2893 0.959 . S
H2900 C2893 0.961 . S
H2901 C2893 0.960 . S
H2902 C2894 0.930 . S
H2903 C2895 0.929 . S
H2904 C2912 0.929 . S
H2905 C2914 0.930 . S
H2906 C2916 0.930 . S
H2907 C2919 0.929 . S
H2908 C2922 0.930 . S
H2909 C2924 0.960 . S
H2910 C2924 0.960 . S
H2911 C2924 0.960 . S
C2912 H2904 0.929 . S
C2912 C2913 1.377 . S
C2912 C2914 1.384 . S
C2913 C2912 1.377 . S
C2913 C2919 1.390 . S
C2914 H2905 0.930 . S
C2914 C2912 1.384 . S
C2914 C2915 1.372 . S
C2915 C2914 1.372 . S
C2915 C2916 1.400 . S
C2915 C2920 1.490 . S
C2916 H2906 0.930 . S
C2916 C2915 1.400 . S
C2916 C2919 1.386 . S
H2917 C2933 0.930 . S
H2918 C2934 0.931 . S
C2919 H2907 0.929 . S
C2919 C2913 1.390 . S
C2919 C2916 1.386 . S
C2920 C2915 1.490 . S
C2920 C2922 1.395 . S
C2920 C2923 1.403 . S
H2921 C2927 0.930 . S
C2922 H2908 0.930 . S
C2922 C2920 1.395 . S
C2922 C2925 1.403 . S
C2923 C2920 1.403 . S
C2923 C2924 1.524 . S
C2923 C2927 1.400 . S
C2924 H2909 0.960 . S
C2924 H2910 0.960 . S
C2924 H2911 0.960 . S
C2924 C2923 1.524 . S
C2925 C2922 1.403 . S
C2925 C2926 1.392 . S
C2925 C2929 1.495 . S
C2926 C2925 1.392 . S
C2926 C2927 1.385 . S
C2926 C2928 1.478 . S
C2927 H2921 0.930 . S
C2927 C2923 1.400 . S
C2927 C2926 1.385 . S
C2928 C2926 1.478 . S
C2928 C2930 1.381 . S
C2928 C2934 1.383 1_556 S
C2929 C2925 1.495 . S
C2929 H2935 0.959 . S
C2929 H2936 0.961 . S
C2929 H2937 0.960 . S
C2930 C2928 1.381 . S
C2930 C2931 1.394 . S
C2930 H2938 0.930 . S
C2931 C2930 1.394 . S
C2931 C2932 1.383 . S
C2931 H2939 0.929 . S
C2932 C2931 1.383 . S
C2932 C2933 1.377 1_556 S
C2933 H2917 0.930 . S
C2933 C2932 1.377 1_554 S
C2933 C2934 1.379 . S
C2934 H2918 0.931 . S
C2934 C2928 1.383 1_554 S
C2934 C2933 1.379 . S
H2935 C2929 0.959 . S
H2936 C2929 0.961 . S
H2937 C2929 0.960 . S
H2938 C2930 0.930 . S
H2939 C2931 0.929 . S
H2940 C2948 0.929 . S
H2941 C2950 0.930 . S
H2942 C2952 0.930 . S
H2943 C2955 0.929 . S
H2944 C2958 0.930 . S
H2945 C2960 0.960 . S
H2946 C2960 0.960 . S
H2947 C2960 0.960 1_545 S
C2948 H2940 0.929 . S
C2948 C2949 1.377 1_565 S
C2948 C2950 1.384 . S
C2949 C2948 1.377 1_545 S
C2949 C2955 1.390 . S
C2950 H2941 0.930 . S
C2950 C2948 1.384 . S
C2950 C2951 1.372 1_565 S
C2951 C2950 1.372 1_545 S
C2951 C2952 1.400 . S
C2951 C2956 1.490 . S
C2952 H2942 0.930 . S
C2952 C2951 1.400 . S
C2952 C2955 1.386 . S
H2953 C2969 0.930 . S
H2954 C2970 0.931 . S
C2955 H2943 0.929 . S
C2955 C2949 1.390 . S
C2955 C2952 1.386 . S
C2956 C2951 1.490 . S
C2956 C2958 1.395 . S
C2956 C2959 1.403 1_545 S
H2957 C2963 0.930 . S
C2958 H2944 0.930 . S
C2958 C2956 1.395 . S
C2958 C2961 1.403 . S
C2959 C2956 1.403 1_565 S
C2959 C2960 1.524 . S
C2959 C2963 1.400 . S
C2960 H2945 0.960 . S
C2960 H2946 0.960 . S
C2960 H2947 0.960 1_565 S
C2960 C2959 1.524 . S
C2961 C2958 1.403 . S
C2961 C2962 1.392 1_545 S
C2961 C2965 1.495 . S
C2962 C2961 1.392 1_565 S
C2962 C2963 1.385 . S
C2962 C2964 1.478 . S
C2963 H2957 0.930 . S
C2963 C2959 1.400 . S
C2963 C2962 1.385 . S
C2964 C2962 1.478 . S
C2964 C2966 1.381 . S
C2964 C2970 1.383 1_565 S
C2965 C2961 1.495 . S
C2965 H2971 0.959 . S
C2965 H2972 0.961 . S
C2965 H2973 0.960 1_545 S
C2966 C2964 1.381 . S
C2966 C2967 1.394 . S
C2966 H2974 0.930 . S
C2967 C2966 1.394 . S
C2967 C2968 1.383 . S
C2967 H2975 0.929 . S
C2968 C2967 1.383 . S
C2968 C2969 1.377 1_565 S
C2969 H2953 0.930 . S
C2969 C2968 1.377 1_545 S
C2969 C2970 1.379 . S
C2970 H2954 0.931 . S
C2970 C2964 1.383 1_545 S
C2970 C2969 1.379 . S
H2971 C2965 0.959 . S
H2972 C2965 0.961 . S
H2973 C2965 0.960 1_565 S
H2974 C2966 0.930 . S
H2975 C2967 0.929 . S
H2976 C2984 0.929 . S
H2977 C2986 0.930 . S
H2978 C2988 0.930 . S
H2979 C2991 0.929 . S
H2980 C2994 0.930 . S
H2981 C2996 0.960 . S
H2982 C2996 0.960 . S
H2983 C2996 0.960 . S
C2984 H2976 0.929 . S
C2984 C2985 1.377 . S
C2984 C2986 1.384 . S
C2985 C2984 1.377 . S
C2985 C2991 1.390 . S
C2986 H2977 0.930 . S
C2986 C2984 1.384 . S
C2986 C2987 1.372 . S
C2987 C2986 1.372 . S
C2987 C2988 1.400 . S
C2987 C2992 1.490 . S
C2988 H2978 0.930 . S
C2988 C2987 1.400 . S
C2988 C2991 1.386 . S
H2989 C3005 0.930 . S
H2990 C3006 0.931 . S
C2991 H2979 0.929 . S
C2991 C2985 1.390 . S
C2991 C2988 1.386 . S
C2992 C2987 1.490 . S
C2992 C2994 1.395 . S
C2992 C2995 1.403 . S
H2993 C2999 0.930 . S
C2994 H2980 0.930 . S
C2994 C2992 1.395 . S
C2994 C2997 1.403 . S
C2995 C2992 1.403 . S
C2995 C2996 1.524 . S
C2995 C2999 1.400 . S
C2996 H2981 0.960 . S
C2996 H2982 0.960 . S
C2996 H2983 0.960 . S
C2996 C2995 1.524 . S
C2997 C2994 1.403 . S
C2997 C2998 1.392 . S
C2997 C3001 1.495 . S
C2998 C2997 1.392 . S
C2998 C2999 1.385 . S
C2998 C3000 1.478 . S
C2999 H2993 0.930 . S
C2999 C2995 1.400 . S
C2999 C2998 1.385 . S
C3000 C2998 1.478 . S
C3000 C3002 1.381 . S
C3000 C3006 1.383 . S
C3001 C2997 1.495 . S
C3001 H3007 0.959 . S
C3001 H3008 0.961 . S
C3001 H3009 0.960 . S
C3002 C3000 1.381 . S
C3002 C3003 1.394 . S
C3002 H3010 0.930 . S
C3003 C3002 1.394 . S
C3003 C3004 1.383 . S
C3003 H3011 0.929 . S
C3004 C3003 1.383 . S
C3004 C3005 1.377 . S
C3005 H2989 0.930 . S
C3005 C3004 1.377 . S
C3005 C3006 1.379 . S
C3006 H2990 0.931 . S
C3006 C3000 1.383 . S
C3006 C3005 1.379 . S
H3007 C3001 0.959 . S
H3008 C3001 0.961 . S
H3009 C3001 0.960 . S
H3010 C3002 0.930 . S
H3011 C3003 0.929 . S
H3012 C3020 0.929 . S
H3013 C3022 0.930 . S
H3014 C3024 0.930 1_455 S
H3015 C3027 0.929 1_455 S
H3016 C3030 0.930 . S
H3017 C3032 0.960 . S
H3018 C3032 0.959 1_655 S
H3019 C3032 0.960 . S
C3020 H3012 0.929 . S
C3020 C3021 1.377 . S
C3020 C3022 1.384 . S
C3021 C3020 1.377 . S
C3021 C3027 1.390 . S
C3022 H3013 0.930 . S
C3022 C3020 1.384 . S
C3022 C3023 1.372 . S
C3023 C3022 1.372 . S
C3023 C3024 1.400 . S
C3023 C3028 1.490 . S
C3024 H3014 0.930 1_655 S
C3024 C3023 1.400 . S
C3024 C3027 1.386 . S
H3025 C3041 0.930 1_455 S
H3026 C3042 0.970 . S
C3027 H3015 0.929 1_655 S
C3027 C3021 1.390 . S
C3027 C3024 1.386 . S
C3028 C3023 1.490 . S
C3028 C3030 1.395 . S
C3028 C3031 1.403 . S
H3029 C3035 0.930 . S
C3030 H3016 0.930 . S
C3030 C3028 1.395 . S
C3030 C3033 1.403 . S
C3031 C3028 1.403 . S
C3031 C3032 1.524 1_655 S
C3031 C3035 1.400 . S
C3032 H3017 0.960 . S
C3032 H3018 0.959 1_455 S
C3032 H3019 0.960 . S
C3032 C3031 1.524 1_455 S
C3033 C3030 1.403 . S
C3033 C3034 1.392 . S
C3033 C3037 1.495 . S
C3034 C3033 1.392 . S
C3034 C3035 1.385 . S
C3034 C3036 1.478 . S
C3035 H3029 0.930 . S
C3035 C3031 1.400 . S
C3035 C3034 1.385 . S
C3036 C3034 1.478 . S
C3036 C3038 1.381 . S
C3036 C3042 1.383 . S
C3037 C3033 1.495 . S
C3037 H3043 0.959 . S
C3037 H3044 0.961 . S
C3037 H3045 0.960 . S
C3038 C3036 1.381 . S
C3038 C3039 1.394 . S
C3038 H3046 0.930 . S
C3039 C3038 1.394 . S
C3039 C3040 1.383 . S
C3039 H3047 0.929 . S
C3040 C3039 1.383 . S
C3040 C3041 1.377 . S
C3041 H3025 0.930 1_655 S
C3041 C3040 1.377 . S
C3041 C3042 1.379 . S
C3042 H3026 0.970 . S
C3042 C3036 1.383 . S
C3042 C3041 1.379 . S
H3043 C3037 0.959 . S
H3044 C3037 0.961 . S
H3045 C3037 0.960 . S
H3046 C3038 0.930 . S
H3047 C3039 0.929 . S
H3048 C3056 0.929 . S
H3049 C3058 0.930 . S
H3050 C3060 0.930 . S
H3051 C3063 0.929 . S
H3052 C3066 0.930 . S
H3053 C3068 0.960 . S
H3054 C3068 0.960 . S
H3055 C3068 0.960 . S
C3056 H3048 0.929 . S
C3056 C3057 1.377 . S
C3056 C3058 1.384 . S
C3057 C3056 1.377 . S
C3057 C3063 1.390 . S
C3058 H3049 0.930 . S
C3058 C3056 1.384 . S
C3058 C3059 1.372 . S
C3059 C3058 1.372 . S
C3059 C3060 1.400 . S
C3059 C3064 1.490 . S
C3060 H3050 0.930 . S
C3060 C3059 1.400 . S
C3060 C3063 1.386 . S
H3061 C3077 0.930 . S
H3062 C3078 0.931 . S
C3063 H3051 0.929 . S
C3063 C3057 1.390 . S
C3063 C3060 1.386 . S
C3064 C3059 1.490 . S
C3064 C3066 1.395 . S
C3064 C3067 1.403 . S
H3065 C3071 0.930 . S
C3066 H3052 0.930 . S
C3066 C3064 1.395 . S
C3066 C3069 1.403 . S
C3067 C3064 1.403 . S
C3067 C3068 1.524 . S
C3067 C3071 1.400 . S
C3068 H3053 0.960 . S
C3068 H3054 0.960 . S
C3068 H3055 0.960 . S
C3068 C3067 1.524 . S
C3069 C3066 1.403 . S
C3069 C3070 1.392 . S
C3069 C3073 1.495 . S
C3070 C3069 1.392 . S
C3070 C3071 1.385 . S
C3070 C3072 1.478 . S
C3071 H3065 0.930 . S
C3071 C3067 1.400 . S
C3071 C3070 1.385 . S
C3072 C3070 1.478 . S
C3072 C3074 1.381 . S
C3072 C3078 1.383 . S
C3073 C3069 1.495 . S
C3073 H3079 0.959 . S
C3073 H3080 0.961 . S
C3073 H3081 0.960 . S
C3074 C3072 1.381 . S
C3074 C3075 1.394 . S
C3074 H3082 0.930 . S
C3075 C3074 1.394 . S
C3075 C3076 1.383 . S
C3075 H3083 0.929 . S
C3076 C3075 1.383 . S
C3076 C3077 1.377 . S
C3077 H3061 0.930 . S
C3077 C3076 1.377 . S
C3077 C3078 1.379 . S
C3078 H3062 0.931 . S
C3078 C3072 1.383 . S
C3078 C3077 1.379 . S
H3079 C3073 0.959 . S
H3080 C3073 0.961 . S
H3081 C3073 0.960 . S
H3082 C3074 0.930 . S
H3083 C3075 0.929 . S
H3084 C3092 0.929 . S
H3085 C3094 0.930 . S
H3086 C3096 0.930 . S
H3087 C3099 0.929 . S
H3088 C3102 0.930 . S
H3089 C3104 0.960 . S
H3090 C3104 0.960 . S
H3091 C3104 0.960 . S
C3092 H3084 0.929 . S
C3092 C3093 1.377 . S
C3092 C3094 1.384 . S
C3093 C3092 1.377 . S
C3093 C3099 1.390 . S
C3094 H3085 0.930 . S
C3094 C3092 1.384 . S
C3094 C3095 1.372 . S
C3095 C3094 1.372 . S
C3095 C3096 1.400 . S
C3095 C3100 1.490 . S
C3096 H3086 0.930 . S
C3096 C3095 1.400 . S
C3096 C3099 1.386 . S
H3097 C3113 0.930 . S
H3098 C3114 0.931 . S
C3099 H3087 0.929 . S
C3099 C3093 1.390 . S
C3099 C3096 1.386 . S
C3100 C3095 1.490 . S
C3100 C3102 1.395 . S
C3100 C3103 1.403 . S
H3101 C3107 0.930 . S
C3102 H3088 0.930 . S
C3102 C3100 1.395 . S
C3102 C3105 1.403 . S
C3103 C3100 1.403 . S
C3103 C3104 1.524 . S
C3103 C3107 1.400 . S
C3104 H3089 0.960 . S
C3104 H3090 0.960 . S
C3104 H3091 0.960 . S
C3104 C3103 1.524 . S
C3105 C3102 1.403 . S
C3105 C3106 1.392 . S
C3105 C3109 1.495 . S
C3106 C3105 1.392 . S
C3106 C3107 1.385 . S
C3106 C3108 1.478 . S
C3107 H3101 0.930 . S
C3107 C3103 1.400 . S
C3107 C3106 1.385 . S
C3108 C3106 1.478 . S
C3108 C3110 1.381 . S
C3108 C3114 1.383 . S
C3109 C3105 1.495 . S
C3109 H3115 0.959 . S
C3109 H3116 0.961 . S
C3109 H3117 0.960 . S
C3110 C3108 1.381 . S
C3110 C3111 1.394 . S
C3110 H3118 0.930 . S
C3111 C3110 1.394 . S
C3111 C3112 1.383 . S
C3111 H3119 0.929 . S
C3112 C3111 1.383 . S
C3112 C3113 1.377 . S
C3113 H3097 0.930 . S
C3113 C3112 1.377 . S
C3113 C3114 1.379 . S
C3114 H3098 0.931 . S
C3114 C3108 1.383 . S
C3114 C3113 1.379 . S
H3115 C3109 0.959 . S
H3116 C3109 0.961 . S
H3117 C3109 0.960 . S
H3118 C3110 0.930 . S
H3119 C3111 0.929 . S
H3120 C3128 0.929 . S
H3121 C3130 0.930 . S
H3122 C3132 0.930 . S
H3123 C3135 0.929 . S
H3124 C3138 0.930 . S
H3125 C3140 0.922 1_554 S
H3126 C3140 0.960 . S
H3127 C3140 0.960 . S
C3128 H3120 0.929 . S
C3128 C3129 1.377 . S
C3128 C3130 1.384 . S
C3129 C3128 1.377 . S
C3129 C3135 1.390 . S
C3130 H3121 0.930 . S
C3130 C3128 1.384 . S
C3130 C3131 1.372 . S
C3131 C3130 1.372 . S
C3131 C3132 1.400 . S
C3131 C3136 1.490 . S
C3132 H3122 0.930 . S
C3132 C3131 1.400 . S
C3132 C3135 1.386 . S
H3133 C3149 0.930 . S
H3134 C3150 0.931 . S
C3135 H3123 0.929 . S
C3135 C3129 1.390 . S
C3135 C3132 1.386 . S
C3136 C3131 1.490 . S
C3136 C3138 1.395 . S
C3136 C3139 1.403 . S
H3137 C3143 0.930 . S
C3138 H3124 0.930 . S
C3138 C3136 1.395 . S
C3138 C3141 1.403 1_556 S
C3139 C3136 1.403 . S
C3139 C3140 1.524 . S
C3139 C3143 1.400 1_556 S
C3140 H3125 0.922 1_556 S
C3140 H3126 0.960 . S
C3140 H3127 0.960 . S
C3140 C3139 1.524 . S
C3141 C3138 1.403 1_554 S
C3141 C3142 1.392 . S
C3141 C3145 1.495 . S
C3142 C3141 1.392 . S
C3142 C3143 1.385 . S
C3142 C3144 1.478 . S
C3143 H3137 0.930 . S
C3143 C3139 1.400 1_554 S
C3143 C3142 1.385 . S
C3144 C3142 1.478 . S
C3144 C3146 1.381 . S
C3144 C3150 1.383 . S
C3145 C3141 1.495 . S
C3145 H3151 0.959 . S
C3145 H3152 0.961 . S
C3145 H3153 0.960 . S
C3146 C3144 1.381 . S
C3146 C3147 1.394 . S
C3146 H3154 0.930 . S
C3147 C3146 1.394 . S
C3147 C3148 1.383 . S
C3147 H3155 0.929 . S
C3148 C3147 1.383 . S
C3148 C3149 1.377 . S
C3149 H3133 0.930 . S
C3149 C3148 1.377 . S
C3149 C3150 1.379 . S
C3150 H3134 0.931 . S
C3150 C3144 1.383 . S
C3150 C3149 1.379 . S
H3151 C3145 0.959 . S
H3152 C3145 0.961 . S
H3153 C3145 0.960 . S
H3154 C3146 0.930 . S
H3155 C3147 0.929 . S
H3156 C3164 0.929 . S
H3157 C3166 0.930 . S
H3158 C3168 0.930 . S
H3159 C3171 0.929 . S
H3160 C3174 0.930 . S
H3161 C3176 0.960 . S
H3162 C3176 0.960 . S
H3163 C3176 0.960 . S
C3164 H3156 0.929 . S
C3164 C3165 1.377 . S
C3164 C3166 1.384 . S
C3165 C3164 1.377 . S
C3165 C3171 1.390 . S
C3166 H3157 0.930 . S
C3166 C3164 1.384 . S
C3166 C3167 1.372 . S
C3167 C3166 1.372 . S
C3167 C3168 1.400 . S
C3167 C3172 1.490 . S
C3168 H3158 0.930 . S
C3168 C3167 1.400 . S
C3168 C3171 1.386 . S
H3169 C3185 0.930 . S
H3170 C3186 0.931 . S
C3171 H3159 0.929 . S
C3171 C3165 1.390 . S
C3171 C3168 1.386 . S
C3172 C3167 1.490 . S
C3172 C3174 1.395 . S
C3172 C3175 1.403 . S
H3173 C3179 0.930 . S
C3174 H3160 0.930 . S
C3174 C3172 1.395 . S
C3174 C3177 1.403 . S
C3175 C3172 1.403 . S
C3175 C3176 1.524 . S
C3175 C3179 1.400 . S
C3176 H3161 0.960 . S
C3176 H3162 0.960 . S
C3176 H3163 0.960 . S
C3176 C3175 1.524 . S
C3177 C3174 1.403 . S
C3177 C3178 1.392 . S
C3177 C3181 1.495 . S
C3178 C3177 1.392 . S
C3178 C3179 1.385 . S
C3178 C3180 1.478 . S
C3179 H3173 0.930 . S
C3179 C3175 1.400 . S
C3179 C3178 1.385 . S
C3180 C3178 1.478 . S
C3180 C3182 1.381 . S
C3180 C3186 1.383 . S
C3181 C3177 1.495 . S
C3181 H3187 0.959 . S
C3181 H3188 0.961 . S
C3181 H3189 0.960 . S
C3182 C3180 1.381 . S
C3182 C3183 1.394 . S
C3182 H3190 0.930 . S
C3183 C3182 1.394 . S
C3183 C3184 1.383 . S
C3183 H3191 0.929 . S
C3184 C3183 1.383 . S
C3184 C3185 1.377 . S
C3185 H3169 0.930 . S
C3185 C3184 1.377 . S
C3185 C3186 1.379 . S
C3186 H3170 0.931 . S
C3186 C3180 1.383 . S
C3186 C3185 1.379 . S
H3187 C3181 0.959 . S
H3188 C3181 0.961 . S
H3189 C3181 0.960 . S
H3190 C3182 0.930 . S
H3191 C3183 0.929 . S
H3192 C3200 0.929 . S
H3193 C3202 0.930 . S
H3194 C3204 0.930 . S
H3195 C3207 0.929 . S
H3196 C3210 0.930 . S
H3197 C3212 0.960 1_556 S
H3198 C3212 0.960 . S
H3199 C3212 0.960 . S
C3200 H3192 0.929 . S
C3200 C3201 1.377 . S
C3200 C3202 1.384 . S
C3201 C3200 1.377 . S
C3201 C3207 1.390 . S
C3202 H3193 0.930 . S
C3202 C3200 1.384 . S
C3202 C3203 1.372 . S
C3203 C3202 1.372 . S
C3203 C3204 1.400 . S
C3203 C3208 1.490 . S
C3204 H3194 0.930 . S
C3204 C3203 1.400 . S
C3204 C3207 1.386 . S
H3205 C3221 0.930 . S
H3206 C3222 0.931 . S
C3207 H3195 0.929 . S
C3207 C3201 1.390 . S
C3207 C3204 1.386 . S
C3208 C3203 1.490 . S
C3208 C3210 1.395 . S
C3208 C3211 1.403 . S
H3209 C3215 0.930 . S
C3210 H3196 0.930 . S
C3210 C3208 1.395 . S
C3210 C3213 1.426 . S
C3211 C3208 1.403 . S
C3211 C3212 1.524 . S
C3211 C3215 1.400 1_554 S
C3212 H3197 0.960 1_554 S
C3212 H3198 0.960 . S
C3212 H3199 0.960 . S
C3212 C3211 1.524 . S
C3213 C3210 1.426 . S
C3213 C3214 1.373 1_554 S
C3213 C3217 1.494 1_554 S
C3214 C3213 1.373 1_556 S
C3214 C3215 1.385 . S
C3214 C3216 1.478 . S
C3215 H3209 0.930 . S
C3215 C3211 1.400 1_556 S
C3215 C3214 1.385 . S
C3216 C3214 1.478 . S
C3216 C3218 1.381 . S
C3216 C3222 1.383 . S
C3217 C3213 1.494 1_556 S
C3217 H3223 0.959 1_556 S
C3217 H3224 0.961 . S
C3217 H3225 0.960 . S
C3218 C3216 1.381 . S
C3218 C3219 1.394 . S
C3218 H3226 0.930 . S
C3219 C3218 1.394 . S
C3219 C3220 1.383 . S
C3219 H3227 0.929 . S
C3220 C3219 1.383 . S
C3220 C3221 1.377 . S
C3221 H3205 0.930 . S
C3221 C3220 1.377 . S
C3221 C3222 1.379 . S
C3222 H3206 0.931 . S
C3222 C3216 1.383 . S
C3222 C3221 1.379 . S
H3223 C3217 0.959 1_554 S
H3224 C3217 0.961 . S
H3225 C3217 0.960 . S
H3226 C3218 0.930 . S
H3227 C3219 0.929 . S
H3228 C3236 0.929 . S
H3229 C3238 0.930 . S
H3230 C3240 0.930 . S
H3231 C3243 0.929 . S
H3232 C3246 0.930 . S
H3233 C3248 0.960 . S
H3234 C3248 0.960 . S
H3235 C3248 0.960 . S
C3236 H3228 0.929 . S
C3236 C3237 1.377 . S
C3236 C3238 1.384 . S
C3237 C3236 1.377 . S
C3237 C3243 1.390 . S
C3238 H3229 0.930 . S
C3238 C3236 1.384 . S
C3238 C3239 1.372 . S
C3239 C3238 1.372 . S
C3239 C3240 1.400 . S
C3239 C3244 1.490 . S
C3240 H3230 0.930 . S
C3240 C3239 1.400 . S
C3240 C3243 1.386 . S
H3241 C3257 0.930 . S
H3242 C3258 0.931 . S
C3243 H3231 0.929 . S
C3243 C3237 1.390 . S
C3243 C3240 1.386 . S
C3244 C3239 1.490 . S
C3244 C3246 1.395 . S
C3244 C3247 1.403 . S
H3245 C3251 0.930 . S
C3246 H3232 0.930 . S
C3246 C3244 1.395 . S
C3246 C3249 1.403 . S
C3247 C3244 1.403 . S
C3247 C3248 1.524 . S
C3247 C3251 1.400 . S
C3248 H3233 0.960 . S
C3248 H3234 0.960 . S
C3248 H3235 0.960 . S
C3248 C3247 1.524 . S
C3249 C3246 1.403 . S
C3249 C3250 1.392 . S
C3249 C3253 1.495 . S
C3250 C3249 1.392 . S
C3250 C3251 1.385 . S
C3250 C3252 1.478 . S
C3251 H3245 0.930 . S
C3251 C3247 1.400 . S
C3251 C3250 1.385 . S
C3252 C3250 1.478 . S
C3252 C3254 1.381 . S
C3252 C3258 1.383 . S
C3253 C3249 1.495 . S
C3253 H3259 0.959 . S
C3253 H3260 0.961 . S
C3253 H3261 0.960 . S
C3254 C3252 1.381 . S
C3254 C3255 1.394 . S
C3254 H3262 0.930 . S
C3255 C3254 1.394 . S
C3255 C3256 1.383 . S
C3255 H3263 0.929 . S
C3256 C3255 1.383 . S
C3256 C3257 1.377 . S
C3257 H3241 0.930 . S
C3257 C3256 1.377 . S
C3257 C3258 1.379 . S
C3258 H3242 0.931 . S
C3258 C3252 1.383 . S
C3258 C3257 1.379 . S
H3259 C3253 0.959 . S
H3260 C3253 0.961 . S
H3261 C3253 0.960 . S
H3262 C3254 0.930 . S
H3263 C3255 0.929 . S
H3264 C3272 0.929 . S
H3265 C3274 0.930 . S
H3266 C3276 0.930 . S
H3267 C3279 0.929 . S
H3268 C3282 0.930 . S
H3269 C3284 0.960 . S
H3270 C3284 0.960 . S
H3271 C3284 0.960 . S
C3272 H3264 0.929 . S
C3272 C3273 1.377 . S
C3272 C3274 1.384 . S
C3273 C3272 1.377 . S
C3273 C3279 1.390 . S
C3274 H3265 0.930 . S
C3274 C3272 1.384 . S
C3274 C3275 1.372 . S
C3275 C3274 1.372 . S
C3275 C3276 1.400 . S
C3275 C3280 1.490 . S
C3276 H3266 0.930 . S
C3276 C3275 1.400 . S
C3276 C3279 1.386 . S
H3277 C3293 0.930 . S
H3278 C3294 0.931 . S
C3279 H3267 0.929 . S
C3279 C3273 1.390 . S
C3279 C3276 1.386 . S
C3280 C3275 1.490 . S
C3280 C3282 1.395 . S
C3280 C3283 1.403 . S
H3281 C3287 0.930 . S
C3282 H3268 0.930 . S
C3282 C3280 1.395 . S
C3282 C3285 1.403 . S
C3283 C3280 1.403 . S
C3283 C3284 1.524 . S
C3283 C3287 1.400 . S
C3284 H3269 0.960 . S
C3284 H3270 0.960 . S
C3284 H3271 0.960 . S
C3284 C3283 1.524 . S
C3285 C3282 1.403 . S
C3285 C3286 1.392 . S
C3285 C3289 1.495 . S
C3286 C3285 1.392 . S
C3286 C3287 1.385 . S
C3286 C3288 1.478 . S
C3287 H3281 0.930 . S
C3287 C3283 1.400 . S
C3287 C3286 1.385 . S
C3288 C3286 1.478 . S
C3288 C3290 1.381 . S
C3288 C3294 1.383 . S
C3289 C3285 1.495 . S
C3289 H3295 0.959 . S
C3289 H3296 0.961 . S
C3289 H3297 0.960 . S
C3290 C3288 1.381 . S
C3290 C3291 1.394 . S
C3290 H3298 0.930 . S
C3291 C3290 1.394 . S
C3291 C3292 1.383 . S
C3291 H3299 0.929 . S
C3292 C3291 1.383 . S
C3292 C3293 1.377 . S
C3293 H3277 0.930 . S
C3293 C3292 1.377 . S
C3293 C3294 1.379 . S
C3294 H3278 0.931 . S
C3294 C3288 1.383 . S
C3294 C3293 1.379 . S
H3295 C3289 0.959 . S
H3296 C3289 0.961 . S
H3297 C3289 0.960 . S
H3298 C3290 0.930 . S
H3299 C3291 0.929 . S
H3300 C3308 0.929 . S
H3301 C3310 0.930 . S
H3302 C3312 0.930 . S
H3303 C3315 0.929 . S
H3304 C3318 0.930 . S
H3305 C3320 0.960 . S
H3306 C3320 0.960 . S
H3307 C3320 0.960 . S
C3308 H3300 0.929 . S
C3308 C3309 1.377 . S
C3308 C3310 1.384 . S
C3309 C3308 1.377 . S
C3309 C3315 1.390 . S
C3310 H3301 0.930 . S
C3310 C3308 1.384 . S
C3310 C3311 1.372 . S
C3311 C3310 1.372 . S
C3311 C3312 1.400 . S
C3311 C3316 1.490 . S
C3312 H3302 0.930 . S
C3312 C3311 1.400 . S
C3312 C3315 1.386 . S
H3313 C3329 0.930 . S
H3314 C3330 0.931 . S
C3315 H3303 0.929 . S
C3315 C3309 1.390 . S
C3315 C3312 1.386 . S
C3316 C3311 1.490 . S
C3316 C3318 1.395 . S
C3316 C3319 1.403 . S
H3317 C3323 0.930 . S
C3318 H3304 0.930 . S
C3318 C3316 1.395 . S
C3318 C3321 1.403 . S
C3319 C3316 1.403 . S
C3319 C3320 1.524 . S
C3319 C3323 1.400 . S
C3320 H3305 0.960 . S
C3320 H3306 0.960 . S
C3320 H3307 0.960 . S
C3320 C3319 1.524 . S
C3321 C3318 1.403 . S
C3321 C3322 1.392 . S
C3321 C3325 1.495 . S
C3322 C3321 1.392 . S
C3322 C3323 1.385 . S
C3322 C3324 1.478 . S
C3323 H3317 0.930 . S
C3323 C3319 1.400 . S
C3323 C3322 1.385 . S
C3324 C3322 1.478 . S
C3324 C3326 1.381 . S
C3324 C3330 1.383 . S
C3325 C3321 1.495 . S
C3325 H3331 0.959 . S
C3325 H3332 0.961 . S
C3325 H3333 0.960 . S
C3326 C3324 1.381 . S
C3326 C3327 1.394 . S
C3326 H3334 0.930 . S
C3327 C3326 1.394 . S
C3327 C3328 1.383 . S
C3327 H3335 0.929 . S
C3328 C3327 1.383 . S
C3328 C3329 1.377 . S
C3329 H3313 0.930 . S
C3329 C3328 1.377 . S
C3329 C3330 1.379 . S
C3330 H3314 0.931 . S
C3330 C3324 1.383 . S
C3330 C3329 1.379 . S
H3331 C3325 0.959 . S
H3332 C3325 0.961 . S
H3333 C3325 0.960 . S
H3334 C3326 0.930 . S
H3335 C3327 0.929 . S
H3336 C3344 0.929 . S
H3337 C3346 0.930 . S
H3338 C3348 0.930 . S
H3339 C3351 0.929 . S
H3340 C3354 0.930 . S
H3341 C3356 0.960 . S
H3342 C3356 0.960 . S
H3343 C3356 0.960 . S
C3344 H3336 0.929 . S
C3344 C3345 1.377 . S
C3344 C3346 1.384 . S
C3345 C3344 1.377 . S
C3345 C3351 1.390 . S
C3346 H3337 0.930 . S
C3346 C3344 1.384 . S
C3346 C3347 1.372 . S
C3347 C3346 1.372 . S
C3347 C3348 1.400 . S
C3347 C3352 1.490 . S
C3348 H3338 0.930 . S
C3348 C3347 1.400 . S
C3348 C3351 1.386 . S
H3349 C3365 0.930 . S
H3350 C3366 0.931 . S
C3351 H3339 0.929 . S
C3351 C3345 1.390 . S
C3351 C3348 1.386 . S
C3352 C3347 1.490 . S
C3352 C3354 1.395 . S
C3352 C3355 1.403 . S
H3353 C3359 0.930 . S
C3354 H3340 0.930 . S
C3354 C3352 1.395 . S
C3354 C3357 1.403 . S
C3355 C3352 1.403 . S
C3355 C3356 1.524 . S
C3355 C3359 1.400 . S
C3356 H3341 0.960 . S
C3356 H3342 0.960 . S
C3356 H3343 0.960 . S
C3356 C3355 1.524 . S
C3357 C3354 1.403 . S
C3357 C3358 1.392 . S
C3357 C3361 1.495 . S
C3358 C3357 1.392 . S
C3358 C3359 1.385 . S
C3358 C3360 1.478 . S
C3359 H3353 0.930 . S
C3359 C3355 1.400 . S
C3359 C3358 1.385 . S
C3360 C3358 1.478 . S
C3360 C3362 1.381 . S
C3360 C3366 1.383 . S
C3361 C3357 1.495 . S
C3361 H3367 0.959 . S
C3361 H3368 0.961 . S
C3361 H3369 0.960 . S
C3362 C3360 1.381 . S
C3362 C3363 1.394 . S
C3362 H3370 0.930 . S
C3363 C3362 1.394 . S
C3363 C3364 1.383 . S
C3363 H3371 0.929 . S
C3364 C3363 1.383 . S
C3364 C3365 1.377 . S
C3365 H3349 0.930 . S
C3365 C3364 1.377 . S
C3365 C3366 1.379 . S
C3366 H3350 0.931 . S
C3366 C3360 1.383 . S
C3366 C3365 1.379 . S
H3367 C3361 0.959 . S
H3368 C3361 0.961 . S
H3369 C3361 0.960 . S
H3370 C3362 0.930 . S
H3371 C3363 0.929 . S
H3372 C3380 0.929 . S
H3373 C3382 0.930 . S
H3374 C3384 0.930 . S
H3375 C3387 0.929 . S
H3376 C3390 0.930 . S
H3377 C3392 0.960 1_545 S
H3378 C3392 0.960 . S
H3379 C3392 0.960 . S
C3380 H3372 0.929 . S
C3380 C3381 1.377 . S
C3380 C3382 1.384 . S
C3381 C3380 1.377 . S
C3381 C3387 1.390 . S
C3382 H3373 0.930 . S
C3382 C3380 1.384 . S
C3382 C3383 1.372 . S
C3383 C3382 1.372 . S
C3383 C3384 1.400 . S
C3383 C3388 1.490 . S
C3384 H3374 0.930 . S
C3384 C3383 1.400 . S
C3384 C3387 1.386 . S
H3385 C3401 0.930 . S
H3386 C3402 0.931 1_545 S
C3387 H3375 0.929 . S
C3387 C3381 1.390 . S
C3387 C3384 1.386 . S
C3388 C3383 1.490 . S
C3388 C3390 1.395 . S
C3388 C3391 1.403 . S
H3389 C3395 0.930 . S
C3390 H3376 0.930 . S
C3390 C3388 1.395 . S
C3390 C3393 1.403 . S
C3391 C3388 1.403 . S
C3391 C3392 1.524 . S
C3391 C3395 1.400 . S
C3392 H3377 0.960 1_565 S
C3392 H3378 0.960 . S
C3392 H3379 0.960 . S
C3392 C3391 1.524 . S
C3393 C3390 1.403 . S
C3393 C3394 1.392 . S
C3393 C3397 1.495 . S
C3394 C3393 1.392 . S
C3394 C3395 1.385 . S
C3394 C3396 1.478 . S
C3395 H3389 0.930 . S
C3395 C3391 1.400 . S
C3395 C3394 1.385 . S
C3396 C3394 1.478 . S
C3396 C3398 1.381 . S
C3396 C3402 1.383 . S
C3397 C3393 1.495 . S
C3397 H3403 0.959 . S
C3397 H3404 0.961 . S
C3397 H3405 0.960 . S
C3398 C3396 1.381 . S
C3398 C3399 1.394 . S
C3398 H3406 0.930 . S
C3399 C3398 1.394 . S
C3399 C3400 1.383 . S
C3399 H3407 0.929 . S
C3400 C3399 1.383 . S
C3400 C3401 1.377 1_565 S
C3401 H3385 0.930 . S
C3401 C3400 1.377 1_545 S
C3401 C3402 1.379 1_545 S
C3402 H3386 0.931 1_565 S
C3402 C3396 1.383 . S
C3402 C3401 1.379 1_565 S
H3403 C3397 0.959 . S
H3404 C3397 0.961 . S
H3405 C3397 0.960 . S
H3406 C3398 0.930 . S
H3407 C3399 0.929 . S
H3408 C3416 0.929 . S
H3409 C3418 0.930 . S
H3410 C3420 0.930 . S
H3411 C3423 0.929 . S
H3412 C3426 0.930 . S
H3413 C3428 0.960 . S
H3414 C3428 0.960 . S
H3415 C3428 0.960 . S
C3416 H3408 0.929 . S
C3416 C3417 1.377 . S
C3416 C3418 1.384 . S
C3417 C3416 1.377 . S
C3417 C3423 1.390 . S
C3418 H3409 0.930 . S
C3418 C3416 1.384 . S
C3418 C3419 1.372 . S
C3419 C3418 1.372 . S
C3419 C3420 1.400 . S
C3419 C3424 1.490 . S
C3420 H3410 0.930 . S
C3420 C3419 1.400 . S
C3420 C3423 1.386 . S
H3421 C3437 0.930 . S
H3422 C3438 0.931 . S
C3423 H3411 0.929 . S
C3423 C3417 1.390 . S
C3423 C3420 1.386 . S
C3424 C3419 1.490 . S
C3424 C3426 1.395 . S
C3424 C3427 1.403 . S
H3425 C3431 0.930 . S
C3426 H3412 0.930 . S
C3426 C3424 1.395 . S
C3426 C3429 1.403 . S
C3427 C3424 1.403 . S
C3427 C3428 1.524 . S
C3427 C3431 1.400 . S
C3428 H3413 0.960 . S
C3428 H3414 0.960 . S
C3428 H3415 0.960 . S
C3428 C3427 1.524 . S
C3429 C3426 1.403 . S
C3429 C3430 1.392 . S
C3429 C3433 1.495 . S
C3430 C3429 1.392 . S
C3430 C3431 1.385 . S
C3430 C3432 1.478 . S
C3431 H3425 0.930 . S
C3431 C3427 1.400 . S
C3431 C3430 1.385 . S
C3432 C3430 1.478 . S
C3432 C3434 1.381 . S
C3432 C3438 1.383 . S
C3433 C3429 1.495 . S
C3433 H3439 0.959 . S
C3433 H3440 0.961 . S
C3433 H3441 0.960 . S
C3434 C3432 1.381 . S
C3434 C3435 1.394 . S
C3434 H3442 0.930 . S
C3435 C3434 1.394 . S
C3435 C3436 1.383 . S
C3435 H3443 0.929 . S
C3436 C3435 1.383 . S
C3436 C3437 1.377 . S
C3437 H3421 0.930 . S
C3437 C3436 1.377 . S
C3437 C3438 1.379 . S
C3438 H3422 0.931 . S
C3438 C3432 1.383 . S
C3438 C3437 1.379 . S
H3439 C3433 0.959 . S
H3440 C3433 0.961 . S
H3441 C3433 0.960 . S
H3442 C3434 0.930 . S
H3443 C3435 0.929 . S
H3444 C3452 0.929 . S
H3445 C3454 0.930 . S
H3446 C3456 0.930 . S
H3447 C3459 0.929 . S
H3448 C3462 0.930 . S
H3449 C3464 0.960 . S
H3450 C3464 0.960 . S
H3451 C3464 0.960 . S
C3452 H3444 0.929 . S
C3452 C3453 1.377 . S
C3452 C3454 1.384 . S
C3453 C3452 1.377 . S
C3453 C3459 1.390 . S
C3454 H3445 0.930 . S
C3454 C3452 1.384 . S
C3454 C3455 1.372 . S
C3455 C3454 1.372 . S
C3455 C3456 1.400 . S
C3455 C3460 1.490 . S
C3456 H3446 0.930 . S
C3456 C3455 1.400 . S
C3456 C3459 1.386 . S
H3457 C3473 0.930 . S
H3458 C3474 0.931 . S
C3459 H3447 0.929 . S
C3459 C3453 1.390 . S
C3459 C3456 1.386 . S
C3460 C3455 1.490 . S
C3460 C3462 1.395 . S
C3460 C3463 1.403 . S
H3461 C3467 0.930 . S
C3462 H3448 0.930 . S
C3462 C3460 1.395 . S
C3462 C3465 1.403 . S
C3463 C3460 1.403 . S
C3463 C3464 1.524 . S
C3463 C3467 1.400 . S
C3464 H3449 0.960 . S
C3464 H3450 0.960 . S
C3464 H3451 0.960 . S
C3464 C3463 1.524 . S
C3465 C3462 1.403 . S
C3465 C3466 1.392 . S
C3465 C3469 1.495 . S
C3466 C3465 1.392 . S
C3466 C3467 1.385 . S
C3466 C3468 1.478 . S
C3467 H3461 0.930 . S
C3467 C3463 1.400 . S
C3467 C3466 1.385 . S
C3468 C3466 1.478 . S
C3468 C3470 1.381 . S
C3468 C3474 1.383 . S
C3469 C3465 1.495 . S
C3469 H3475 0.959 . S
C3469 H3476 0.961 . S
C3469 H3477 0.960 . S
C3470 C3468 1.381 . S
C3470 C3471 1.394 . S
C3470 H3478 0.930 . S
C3471 C3470 1.394 . S
C3471 C3472 1.383 . S
C3471 H3479 0.929 . S
C3472 C3471 1.383 . S
C3472 C3473 1.377 . S
C3473 H3457 0.930 . S
C3473 C3472 1.377 . S
C3473 C3474 1.379 . S
C3474 H3458 0.931 . S
C3474 C3468 1.383 . S
C3474 C3473 1.379 . S
H3475 C3469 0.959 . S
H3476 C3469 0.961 . S
H3477 C3469 0.960 . S
H3478 C3470 0.930 . S
H3479 C3471 0.929 . S
H3480 C3488 0.929 . S
H3481 C3490 0.930 . S
H3482 C3492 0.930 . S
H3483 C3495 0.929 . S
H3484 C3498 0.930 . S
H3485 C3500 0.960 . S
H3486 C3500 0.960 . S
H3487 C3500 0.960 . S
C3488 H3480 0.929 . S
C3488 C3489 1.377 . S
C3488 C3490 1.384 . S
C3489 C3488 1.377 . S
C3489 C3495 1.390 . S
C3490 H3481 0.930 . S
C3490 C3488 1.384 . S
C3490 C3491 1.372 . S
C3491 C3490 1.372 . S
C3491 C3492 1.400 . S
C3491 C3496 1.490 . S
C3492 H3482 0.930 . S
C3492 C3491 1.400 . S
C3492 C3495 1.386 . S
H3493 C3509 0.930 . S
H3494 C3510 0.931 . S
C3495 H3483 0.929 . S
C3495 C3489 1.390 . S
C3495 C3492 1.386 . S
C3496 C3491 1.490 . S
C3496 C3498 1.395 . S
C3496 C3499 1.403 . S
H3497 C3503 0.930 . S
C3498 H3484 0.930 . S
C3498 C3496 1.395 . S
C3498 C3501 1.403 . S
C3499 C3496 1.403 . S
C3499 C3500 1.524 . S
C3499 C3503 1.400 . S
C3500 H3485 0.960 . S
C3500 H3486 0.960 . S
C3500 H3487 0.960 . S
C3500 C3499 1.524 . S
C3501 C3498 1.403 . S
C3501 C3502 1.392 . S
C3501 C3505 1.495 . S
C3502 C3501 1.392 . S
C3502 C3503 1.385 . S
C3502 C3504 1.478 . S
C3503 H3497 0.930 . S
C3503 C3499 1.400 . S
C3503 C3502 1.385 . S
C3504 C3502 1.478 . S
C3504 C3506 1.381 . S
C3504 C3510 1.383 . S
C3505 C3501 1.495 . S
C3505 H3511 0.959 . S
C3505 H3512 0.961 . S
C3505 H3513 0.960 . S
C3506 C3504 1.381 . S
C3506 C3507 1.394 . S
C3506 H3514 0.930 . S
C3507 C3506 1.394 . S
C3507 C3508 1.383 . S
C3507 H3515 0.929 . S
C3508 C3507 1.383 . S
C3508 C3509 1.377 . S
C3509 H3493 0.930 . S
C3509 C3508 1.377 . S
C3509 C3510 1.379 . S
C3510 H3494 0.931 . S
C3510 C3504 1.383 . S
C3510 C3509 1.379 . S
H3511 C3505 0.959 . S
H3512 C3505 0.961 . S
H3513 C3505 0.960 . S
H3514 C3506 0.930 . S
H3515 C3507 0.929 . S
H3516 C3524 0.929 . S
H3517 C3526 0.930 . S
H3518 C3528 0.930 . S
H3519 C3531 0.929 . S
H3520 C3534 0.930 . S
H3521 C3536 0.960 . S
H3522 C3536 0.960 . S
H3523 C3536 0.960 . S
C3524 H3516 0.929 . S
C3524 C3525 1.377 . S
C3524 C3526 1.384 . S
C3525 C3524 1.377 . S
C3525 C3531 1.390 . S
C3526 H3517 0.930 . S
C3526 C3524 1.384 . S
C3526 C3527 1.372 . S
C3527 C3526 1.372 . S
C3527 C3528 1.400 . S
C3527 C3532 1.490 . S
C3528 H3518 0.930 . S
C3528 C3527 1.400 . S
C3528 C3531 1.386 . S
H3529 C3545 0.930 . S
H3530 C3546 0.931 . S
C3531 H3519 0.929 . S
C3531 C3525 1.390 . S
C3531 C3528 1.386 . S
C3532 C3527 1.490 . S
C3532 C3534 1.395 . S
C3532 C3535 1.403 . S
H3533 C3539 0.930 . S
C3534 H3520 0.930 . S
C3534 C3532 1.395 . S
C3534 C3537 1.403 . S
C3535 C3532 1.403 . S
C3535 C3536 1.524 1_554 S
C3535 C3539 1.400 . S
C3536 H3521 0.960 . S
C3536 H3522 0.960 . S
C3536 H3523 0.960 . S
C3536 C3535 1.524 1_556 S
C3537 C3534 1.403 . S
C3537 C3538 1.392 . S
C3537 C3541 1.495 . S
C3538 C3537 1.392 . S
C3538 C3539 1.385 . S
C3538 C3540 1.478 . S
C3539 H3533 0.930 . S
C3539 C3535 1.400 . S
C3539 C3538 1.385 . S
C3540 C3538 1.478 . S
C3540 C3542 1.381 . S
C3540 C3546 1.383 . S
C3541 C3537 1.495 . S
C3541 H3547 0.959 . S
C3541 H3548 0.961 . S
C3541 H3549 0.960 . S
C3542 C3540 1.381 . S
C3542 C3543 1.394 . S
C3542 H3550 0.930 . S
C3543 C3542 1.394 . S
C3543 C3544 1.383 . S
C3543 H3551 0.929 . S
C3544 C3543 1.383 . S
C3544 C3545 1.377 . S
C3545 H3529 0.930 . S
C3545 C3544 1.377 . S
C3545 C3546 1.379 . S
C3546 H3530 0.931 . S
C3546 C3540 1.383 . S
C3546 C3545 1.379 . S
H3547 C3541 0.959 . S
H3548 C3541 0.961 . S
H3549 C3541 0.960 . S
H3550 C3542 0.930 . S
H3551 C3543 0.929 . S
H3552 C3560 0.929 . S
H3553 C3562 0.930 . S
H3554 C3564 0.930 . S
H3555 C3567 0.929 . S
H3556 C3570 0.930 . S
H3557 C3572 0.960 . S
H3558 C3572 0.960 . S
H3559 C3572 0.960 . S
C3560 H3552 0.929 . S
C3560 C3561 1.377 . S
C3560 C3562 1.384 . S
C3561 C3560 1.377 . S
C3561 C3567 1.390 . S
C3562 H3553 0.930 . S
C3562 C3560 1.384 . S
C3562 C3563 1.372 . S
C3563 C3562 1.372 . S
C3563 C3564 1.400 . S
C3563 C3568 1.490 . S
C3564 H3554 0.930 . S
C3564 C3563 1.400 . S
C3564 C3567 1.386 . S
H3565 C3581 0.930 . S
H3566 C3582 0.931 . S
C3567 H3555 0.929 . S
C3567 C3561 1.390 . S
C3567 C3564 1.386 . S
C3568 C3563 1.490 . S
C3568 C3570 1.395 . S
C3568 C3571 1.403 . S
H3569 C3575 0.930 . S
C3570 H3556 0.930 . S
C3570 C3568 1.395 . S
C3570 C3573 1.403 . S
C3571 C3568 1.403 . S
C3571 C3572 1.524 . S
C3571 C3575 1.400 . S
C3572 H3557 0.960 . S
C3572 H3558 0.960 . S
C3572 H3559 0.960 . S
C3572 C3571 1.524 . S
C3573 C3570 1.403 . S
C3573 C3574 1.392 . S
C3573 C3577 1.495 . S
C3574 C3573 1.392 . S
C3574 C3575 1.385 . S
C3574 C3576 1.478 . S
C3575 H3569 0.930 . S
C3575 C3571 1.400 . S
C3575 C3574 1.385 . S
C3576 C3574 1.478 . S
C3576 C3578 1.381 . S
C3576 C3582 1.383 . S
C3577 C3573 1.495 . S
C3577 H3583 0.959 . S
C3577 H3584 0.961 . S
C3577 H3585 0.960 . S
C3578 C3576 1.381 . S
C3578 C3579 1.394 . S
C3578 H3586 0.930 . S
C3579 C3578 1.394 . S
C3579 C3580 1.383 . S
C3579 H3587 0.929 . S
C3580 C3579 1.383 . S
C3580 C3581 1.377 . S
C3581 H3565 0.930 . S
C3581 C3580 1.377 . S
C3581 C3582 1.379 . S
C3582 H3566 0.931 . S
C3582 C3576 1.383 . S
C3582 C3581 1.379 . S
H3583 C3577 0.959 . S
H3584 C3577 0.961 . S
H3585 C3577 0.960 . S
H3586 C3578 0.930 . S
H3587 C3579 0.929 . S
H3588 C3596 0.929 . S
H3589 C3598 0.930 . S
H3590 C3600 0.930 . S
H3591 C3603 0.929 . S
H3592 C3606 0.930 . S
H3593 C3608 0.960 . S
H3594 C3608 0.960 . S
H3595 C3608 0.960 . S
C3596 H3588 0.929 . S
C3596 C3597 1.377 . S
C3596 C3598 1.384 . S
C3597 C3596 1.377 . S
C3597 C3603 1.390 . S
C3598 H3589 0.930 . S
C3598 C3596 1.384 . S
C3598 C3599 1.372 . S
C3599 C3598 1.372 . S
C3599 C3600 1.400 . S
C3599 C3604 1.490 . S
C3600 H3590 0.930 . S
C3600 C3599 1.400 . S
C3600 C3603 1.386 . S
H3601 C3617 0.930 . S
H3602 C3618 0.931 . S
C3603 H3591 0.929 . S
C3603 C3597 1.390 . S
C3603 C3600 1.386 . S
C3604 C3599 1.490 . S
C3604 C3606 1.395 . S
C3604 C3607 1.403 . S
H3605 C3611 0.930 . S
C3606 H3592 0.930 . S
C3606 C3604 1.395 . S
C3606 C3609 1.403 . S
C3607 C3604 1.403 . S
C3607 C3608 1.524 . S
C3607 C3611 1.400 . S
C3608 H3593 0.960 . S
C3608 H3594 0.960 . S
C3608 H3595 0.960 . S
C3608 C3607 1.524 . S
C3609 C3606 1.403 . S
C3609 C3610 1.392 . S
C3609 C3613 1.495 . S
C3610 C3609 1.392 . S
C3610 C3611 1.385 . S
C3610 C3612 1.478 . S
C3611 H3605 0.930 . S
C3611 C3607 1.400 . S
C3611 C3610 1.385 . S
C3612 C3610 1.478 . S
C3612 C3614 1.369 1_556 S
C3612 C3618 1.383 . S
C3613 C3609 1.495 . S
C3613 H3619 0.959 . S
C3613 H3620 0.961 . S
C3613 H3621 0.960 . S
C3614 C3612 1.369 1_554 S
C3614 C3615 1.399 . S
C3614 H3622 0.938 . S
C3615 C3614 1.399 . S
C3615 C3616 1.383 1_554 S
C3615 H3623 0.929 . S
C3616 C3615 1.383 1_556 S
C3616 C3617 1.377 . S
C3617 H3601 0.930 . S
C3617 C3616 1.377 . S
C3617 C3618 1.379 . S
C3618 H3602 0.931 . S
C3618 C3612 1.383 . S
C3618 C3617 1.379 . S
H3619 C3613 0.959 . S
H3620 C3613 0.961 . S
H3621 C3613 0.960 . S
H3622 C3614 0.938 . S
H3623 C3615 0.929 . S
H3624 C3632 0.929 . S
H3625 C3634 0.930 . S
H3626 C3636 0.930 . S
H3627 C3639 0.929 . S
H3628 C3642 0.930 . S
H3629 C3644 0.960 . S
H3630 C3644 0.960 . S
H3631 C3644 0.960 . S
C3632 H3624 0.929 . S
C3632 C3633 1.377 . S
C3632 C3634 1.384 . S
C3633 C3632 1.377 . S
C3633 C3639 1.390 . S
C3634 H3625 0.930 . S
C3634 C3632 1.384 . S
C3634 C3635 1.372 . S
C3635 C3634 1.372 . S
C3635 C3636 1.400 . S
C3635 C3640 1.490 . S
C3636 H3626 0.930 . S
C3636 C3635 1.400 . S
C3636 C3639 1.386 . S
H3637 C3653 0.930 . S
H3638 C3654 0.931 . S
C3639 H3627 0.929 . S
C3639 C3633 1.390 . S
C3639 C3636 1.386 . S
C3640 C3635 1.490 . S
C3640 C3642 1.395 . S
C3640 C3643 1.403 . S
H3641 C3647 0.930 . S
C3642 H3628 0.930 . S
C3642 C3640 1.395 . S
C3642 C3645 1.403 . S
C3643 C3640 1.403 . S
C3643 C3644 1.524 . S
C3643 C3647 1.400 . S
C3644 H3629 0.960 . S
C3644 H3630 0.960 . S
C3644 H3631 0.960 . S
C3644 C3643 1.524 . S
C3645 C3642 1.403 . S
C3645 C3646 1.392 . S
C3645 C3649 1.495 . S
C3646 C3645 1.392 . S
C3646 C3647 1.385 . S
C3646 C3648 1.478 . S
C3647 H3641 0.930 . S
C3647 C3643 1.400 . S
C3647 C3646 1.385 . S
C3648 C3646 1.478 . S
C3648 C3650 1.381 . S
C3648 C3654 1.383 . S
C3649 C3645 1.495 . S
C3649 H3655 0.959 . S
C3649 H3656 0.961 . S
C3649 H3657 0.960 . S
C3650 C3648 1.381 . S
C3650 C3651 1.394 . S
C3650 H3658 0.930 . S
C3651 C3650 1.394 . S
C3651 C3652 1.383 . S
C3651 H3659 0.929 . S
C3652 C3651 1.383 . S
C3652 C3653 1.377 . S
C3653 H3637 0.930 . S
C3653 C3652 1.377 . S
C3653 C3654 1.379 . S
C3654 H3638 0.931 . S
C3654 C3648 1.383 . S
C3654 C3653 1.379 . S
H3655 C3649 0.959 . S
H3656 C3649 0.961 . S
H3657 C3649 0.960 . S
H3658 C3650 0.930 . S
H3659 C3651 0.929 . S
H3660 C3668 0.929 . S
H3661 C3670 0.930 . S
H3662 C3672 0.930 . S
H3663 C3675 0.929 . S
H3664 C3678 0.930 . S
H3665 C3680 0.960 . S
H3666 C3680 0.960 . S
H3667 C3680 0.960 . S
C3668 H3660 0.929 . S
C3668 C3669 1.377 . S
C3668 C3670 1.384 . S
C3669 C3668 1.377 . S
C3669 C3675 1.390 . S
C3670 H3661 0.930 . S
C3670 C3668 1.384 . S
C3670 C3671 1.372 . S
C3671 C3670 1.372 . S
C3671 C3672 1.400 . S
C3671 C3676 1.490 . S
C3672 H3662 0.930 . S
C3672 C3671 1.400 . S
C3672 C3675 1.386 . S
H3673 C3689 0.930 . S
H3674 C3690 0.931 . S
C3675 H3663 0.929 . S
C3675 C3669 1.390 . S
C3675 C3672 1.386 . S
C3676 C3671 1.490 . S
C3676 C3678 1.395 . S
C3676 C3679 1.403 . S
H3677 C3683 0.930 . S
C3678 H3664 0.930 . S
C3678 C3676 1.395 . S
C3678 C3681 1.403 . S
C3679 C3676 1.403 . S
C3679 C3680 1.524 . S
C3679 C3683 1.400 . S
C3680 H3665 0.960 . S
C3680 H3666 0.960 . S
C3680 H3667 0.960 . S
C3680 C3679 1.524 . S
C3681 C3678 1.403 . S
C3681 C3682 1.392 . S
C3681 C3685 1.495 . S
C3682 C3681 1.392 . S
C3682 C3683 1.385 . S
C3682 C3684 1.478 . S
C3683 H3677 0.930 . S
C3683 C3679 1.400 . S
C3683 C3682 1.385 . S
C3684 C3682 1.478 . S
C3684 C3686 1.381 . S
C3684 C3690 1.383 . S
C3685 C3681 1.495 . S
C3685 H3691 0.959 . S
C3685 H3692 0.961 . S
C3685 H3693 0.960 . S
C3686 C3684 1.381 . S
C3686 C3687 1.394 . S
C3686 H3694 0.930 . S
C3687 C3686 1.394 . S
C3687 C3688 1.383 . S
C3687 H3695 0.929 . S
C3688 C3687 1.383 . S
C3688 C3689 1.377 . S
C3689 H3673 0.930 . S
C3689 C3688 1.377 . S
C3689 C3690 1.379 . S
C3690 H3674 0.931 . S
C3690 C3684 1.383 . S
C3690 C3689 1.379 . S
H3691 C3685 0.959 . S
H3692 C3685 0.961 . S
H3693 C3685 0.960 . S
H3694 C3686 0.930 . S
H3695 C3687 0.929 . S
H3696 C3704 0.929 . S
H3697 C3706 0.930 . S
H3698 C3708 0.930 . S
H3699 C3711 0.929 . S
H3700 C3714 0.930 . S
H3701 C3716 0.960 . S
H3702 C3716 0.960 . S
H3703 C3716 0.960 . S
C3704 H3696 0.929 . S
C3704 C3705 1.377 . S
C3704 C3706 1.384 . S
C3705 C3704 1.377 . S
C3705 C3711 1.390 . S
C3706 H3697 0.930 . S
C3706 C3704 1.384 . S
C3706 C3707 1.372 . S
C3707 C3706 1.372 . S
C3707 C3708 1.400 . S
C3707 C3712 1.490 . S
C3708 H3698 0.930 . S
C3708 C3707 1.400 . S
C3708 C3711 1.386 . S
H3709 C3725 0.930 . S
H3710 C3726 0.931 . S
C3711 H3699 0.929 . S
C3711 C3705 1.390 . S
C3711 C3708 1.386 . S
C3712 C3707 1.490 . S
C3712 C3714 1.395 . S
C3712 C3715 1.403 . S
H3713 C3719 0.930 . S
C3714 H3700 0.930 . S
C3714 C3712 1.395 . S
C3714 C3717 1.403 . S
C3715 C3712 1.403 . S
C3715 C3716 1.524 . S
C3715 C3719 1.400 . S
C3716 H3701 0.960 . S
C3716 H3702 0.960 . S
C3716 H3703 0.960 . S
C3716 C3715 1.524 . S
C3717 C3714 1.403 . S
C3717 C3718 1.392 . S
C3717 C3721 1.495 . S
C3718 C3717 1.392 . S
C3718 C3719 1.385 . S
C3718 C3720 1.478 . S
C3719 H3713 0.930 . S
C3719 C3715 1.400 . S
C3719 C3718 1.385 . S
C3720 C3718 1.478 . S
C3720 C3722 1.381 . S
C3720 C3726 1.383 . S
C3721 C3717 1.495 . S
C3721 H3727 0.959 . S
C3721 H3728 0.961 . S
C3721 H3729 0.960 . S
C3722 C3720 1.381 . S
C3722 C3723 1.394 . S
C3722 H3730 0.930 . S
C3723 C3722 1.394 . S
C3723 C3724 1.383 . S
C3723 H3731 0.929 . S
C3724 C3723 1.383 . S
C3724 C3725 1.377 . S
C3725 H3709 0.930 . S
C3725 C3724 1.377 . S
C3725 C3726 1.379 . S
C3726 H3710 0.931 . S
C3726 C3720 1.383 . S
C3726 C3725 1.379 . S
H3727 C3721 0.959 . S
H3728 C3721 0.961 . S
H3729 C3721 0.960 . S
H3730 C3722 0.930 . S
H3731 C3723 0.929 . S
H3732 C3740 0.929 . S
H3733 C3742 0.930 . S
H3734 C3744 0.930 . S
H3735 C3747 0.929 . S
H3736 C3750 0.930 . S
H3737 C3752 0.960 1_556 S
H3738 C3752 0.960 . S
H3739 C3752 0.960 . S
C3740 H3732 0.929 . S
C3740 C3741 1.377 . S
C3740 C3742 1.384 . S
C3741 C3740 1.377 . S
C3741 C3747 1.390 . S
C3742 H3733 0.930 . S
C3742 C3740 1.384 . S
C3742 C3743 1.372 . S
C3743 C3742 1.372 . S
C3743 C3744 1.400 . S
C3743 C3748 1.490 . S
C3744 H3734 0.930 . S
C3744 C3743 1.400 . S
C3744 C3747 1.386 . S
H3745 C3761 0.930 . S
H3746 C3762 0.931 . S
C3747 H3735 0.929 . S
C3747 C3741 1.390 . S
C3747 C3744 1.386 . S
C3748 C3743 1.490 . S
C3748 C3750 1.395 . S
C3748 C3751 1.403 . S
H3749 C3755 0.930 . S
C3750 H3736 0.930 . S
C3750 C3748 1.395 . S
C3750 C3753 1.442 . S
C3751 C3748 1.403 . S
C3751 C3752 1.524 . S
C3751 C3755 1.400 1_554 S
C3752 H3737 0.960 1_554 S
C3752 H3738 0.960 . S
C3752 H3739 0.960 . S
C3752 C3751 1.524 . S
C3753 C3750 1.442 . S
C3753 C3754 1.358 1_554 S
C3753 C3757 1.492 1_554 S
C3754 C3753 1.358 1_556 S
C3754 C3755 1.385 . S
C3754 C3756 1.478 . S
C3755 H3749 0.930 . S
C3755 C3751 1.400 1_556 S
C3755 C3754 1.385 . S
C3756 C3754 1.478 . S
C3756 C3758 1.381 . S
C3756 C3762 1.383 . S
C3757 C3753 1.492 1_556 S
C3757 H3763 0.926 1_556 S
C3757 H3764 0.974 . S
C3757 H3765 0.984 . S
C3758 C3756 1.381 . S
C3758 C3759 1.394 . S
C3758 H3766 0.930 . S
C3759 C3758 1.394 . S
C3759 C3760 1.383 . S
C3759 H3767 0.929 . S
C3760 C3759 1.383 . S
C3760 C3761 1.377 . S
C3761 H3745 0.930 . S
C3761 C3760 1.377 . S
C3761 C3762 1.379 . S
C3762 H3746 0.931 . S
C3762 C3756 1.383 . S
C3762 C3761 1.379 . S
H3763 C3757 0.926 1_554 S
H3764 C3757 0.974 . S
H3765 C3757 0.984 . S
H3766 C3758 0.930 . S
H3767 C3759 0.929 . S
H3768 C3776 0.929 . S
H3769 C3778 0.930 . S
H3770 C3780 0.930 . S
H3771 C3783 0.929 . S
H3772 C3786 0.902 1_655 S
H3773 C3788 0.960 . S
H3774 C3788 0.960 . S
H3775 C3788 0.960 . S
C3776 H3768 0.929 . S
C3776 C3777 1.377 . S
C3776 C3778 1.384 . S
C3777 C3776 1.377 . S
C3777 C3783 1.390 . S
C3778 H3769 0.930 . S
C3778 C3776 1.384 . S
C3778 C3779 1.372 . S
C3779 C3778 1.372 . S
C3779 C3780 1.400 . S
C3779 C3784 1.490 . S
C3780 H3770 0.930 . S
C3780 C3779 1.400 . S
C3780 C3783 1.386 . S
H3781 C3797 0.930 . S
H3782 C3798 0.931 . S
C3783 H3771 0.929 . S
C3783 C3777 1.390 . S
C3783 C3780 1.386 . S
C3784 C3779 1.490 . S
C3784 C3786 1.395 . S
C3784 C3787 1.403 . S
H3785 C3791 0.930 . S
C3786 H3772 0.902 1_455 S
C3786 C3784 1.395 . S
C3786 C3789 1.403 . S
C3787 C3784 1.403 . S
C3787 C3788 1.524 . S
C3787 C3791 1.400 . S
C3788 H3773 0.960 . S
C3788 H3774 0.960 . S
C3788 H3775 0.960 . S
C3788 C3787 1.524 . S
C3789 C3786 1.403 . S
C3789 C3790 1.392 . S
C3789 C3793 1.495 1_455 S
C3790 C3789 1.392 . S
C3790 C3791 1.385 . S
C3790 C3792 1.478 . S
C3791 H3785 0.930 . S
C3791 C3787 1.400 . S
C3791 C3790 1.385 . S
C3792 C3790 1.478 . S
C3792 C3794 1.381 . S
C3792 C3798 1.383 . S
C3793 C3789 1.495 1_655 S
C3793 H3799 0.959 . S
C3793 H3800 0.961 . S
C3793 H3801 0.960 . S
C3794 C3792 1.381 . S
C3794 C3795 1.394 . S
C3794 H3802 0.930 . S
C3795 C3794 1.394 . S
C3795 C3796 1.383 . S
C3795 H3803 0.929 . S
C3796 C3795 1.383 . S
C3796 C3797 1.377 . S
C3797 H3781 0.930 . S
C3797 C3796 1.377 . S
C3797 C3798 1.379 . S
C3798 H3782 0.931 . S
C3798 C3792 1.383 . S
C3798 C3797 1.379 . S
H3799 C3793 0.959 . S
H3800 C3793 0.961 . S
H3801 C3793 0.960 . S
H3802 C3794 0.930 . S
H3803 C3795 0.929 . S
H3804 C3812 0.929 . S
H3805 C3814 0.930 . S
H3806 C3816 0.930 . S
H3807 C3819 0.929 . S
H3808 C3822 0.930 . S
H3809 C3824 0.960 . S
H3810 C3824 0.960 . S
H3811 C3824 0.960 . S
C3812 H3804 0.929 . S
C3812 C3813 1.377 . S
C3812 C3814 1.384 . S
C3813 C3812 1.377 . S
C3813 C3819 1.390 . S
C3814 H3805 0.930 . S
C3814 C3812 1.384 . S
C3814 C3815 1.372 . S
C3815 C3814 1.372 . S
C3815 C3816 1.400 . S
C3815 C3820 1.490 . S
C3816 H3806 0.930 . S
C3816 C3815 1.400 . S
C3816 C3819 1.386 . S
H3817 C3833 0.930 . S
H3818 C3834 0.931 . S
C3819 H3807 0.929 . S
C3819 C3813 1.390 . S
C3819 C3816 1.386 . S
C3820 C3815 1.490 . S
C3820 C3822 1.395 . S
C3820 C3823 1.403 . S
H3821 C3827 0.930 . S
C3822 H3808 0.930 . S
C3822 C3820 1.395 . S
C3822 C3825 1.403 . S
C3823 C3820 1.403 . S
C3823 C3824 1.524 . S
C3823 C3827 1.400 . S
C3824 H3809 0.960 . S
C3824 H3810 0.960 . S
C3824 H3811 0.960 . S
C3824 C3823 1.524 . S
C3825 C3822 1.403 . S
C3825 C3826 1.392 . S
C3825 C3829 1.495 . S
C3826 C3825 1.392 . S
C3826 C3827 1.385 . S
C3826 C3828 1.478 . S
C3827 H3821 0.930 . S
C3827 C3823 1.400 . S
C3827 C3826 1.385 . S
C3828 C3826 1.478 . S
C3828 C3830 1.381 . S
C3828 C3834 1.383 . S
C3829 C3825 1.495 . S
C3829 H3835 0.959 . S
C3829 H3836 0.961 . S
C3829 H3837 0.960 . S
C3830 C3828 1.381 . S
C3830 C3831 1.394 . S
C3830 H3838 0.930 . S
C3831 C3830 1.394 . S
C3831 C3832 1.383 . S
C3831 H3839 0.929 . S
C3832 C3831 1.383 . S
C3832 C3833 1.377 . S
C3833 H3817 0.930 . S
C3833 C3832 1.377 . S
C3833 C3834 1.379 . S
C3834 H3818 0.931 . S
C3834 C3828 1.383 . S
C3834 C3833 1.379 . S
H3835 C3829 0.959 . S
H3836 C3829 0.961 . S
H3837 C3829 0.960 . S
H3838 C3830 0.930 . S
H3839 C3831 0.929 . S
H3840 C3848 0.929 . S
H3841 C3850 0.930 . S
H3842 C3852 0.930 . S
H3843 C3855 0.929 . S
H3844 C3858 0.930 . S
H3845 C3860 0.960 . S
H3846 C3860 0.960 . S
H3847 C3860 0.960 . S
C3848 H3840 0.929 . S
C3848 C3849 1.377 . S
C3848 C3850 1.384 . S
C3849 C3848 1.377 . S
C3849 C3855 1.390 . S
C3850 H3841 0.930 . S
C3850 C3848 1.384 . S
C3850 C3851 1.372 . S
C3851 C3850 1.372 . S
C3851 C3852 1.400 . S
C3851 C3856 1.490 . S
C3852 H3842 0.930 . S
C3852 C3851 1.400 . S
C3852 C3855 1.386 . S
H3853 C3869 0.930 . S
H3854 C3870 0.931 . S
C3855 H3843 0.929 . S
C3855 C3849 1.390 . S
C3855 C3852 1.386 . S
C3856 C3851 1.490 . S
C3856 C3858 1.395 . S
C3856 C3859 1.403 . S
H3857 C3863 0.930 . S
C3858 H3844 0.930 . S
C3858 C3856 1.395 . S
C3858 C3861 1.403 . S
C3859 C3856 1.403 . S
C3859 C3860 1.524 . S
C3859 C3863 1.400 . S
C3860 H3845 0.960 . S
C3860 H3846 0.960 . S
C3860 H3847 0.960 . S
C3860 C3859 1.524 . S
C3861 C3858 1.403 . S
C3861 C3862 1.392 . S
C3861 C3865 1.495 . S
C3862 C3861 1.392 . S
C3862 C3863 1.385 . S
C3862 C3864 1.478 . S
C3863 H3857 0.930 . S
C3863 C3859 1.400 . S
C3863 C3862 1.385 . S
C3864 C3862 1.478 . S
C3864 C3866 1.381 . S
C3864 C3870 1.383 . S
C3865 C3861 1.495 . S
C3865 H3871 0.959 . S
C3865 H3872 0.961 . S
C3865 H3873 0.960 . S
C3866 C3864 1.381 . S
C3866 C3867 1.394 . S
C3866 H3874 0.930 . S
C3867 C3866 1.394 . S
C3867 C3868 1.383 . S
C3867 H3875 0.929 . S
C3868 C3867 1.383 . S
C3868 C3869 1.377 . S
C3869 H3853 0.930 . S
C3869 C3868 1.377 . S
C3869 C3870 1.379 . S
C3870 H3854 0.931 . S
C3870 C3864 1.383 . S
C3870 C3869 1.379 . S
H3871 C3865 0.959 . S
H3872 C3865 0.961 . S
H3873 C3865 0.960 . S
H3874 C3866 0.930 . S
H3875 C3867 0.929 . S
H3876 C3884 0.929 . S
H3877 C3886 0.930 . S
H3878 C3888 0.930 . S
H3879 C3891 0.929 . S
H3880 C3894 0.930 . S
H3881 C3896 0.960 . S
H3882 C3896 0.960 . S
H3883 C3896 0.960 . S
C3884 H3876 0.929 . S
C3884 C3885 1.377 . S
C3884 C3886 1.384 . S
C3885 C3884 1.377 . S
C3885 C3891 1.390 . S
C3886 H3877 0.930 . S
C3886 C3884 1.384 . S
C3886 C3887 1.372 . S
C3887 C3886 1.372 . S
C3887 C3888 1.400 . S
C3887 C3892 1.490 . S
C3888 H3878 0.930 . S
C3888 C3887 1.400 . S
C3888 C3891 1.386 . S
H3889 C3905 0.930 . S
H3890 C3906 0.931 . S
C3891 H3879 0.929 . S
C3891 C3885 1.390 . S
C3891 C3888 1.386 . S
C3892 C3887 1.490 . S
C3892 C3894 1.395 . S
C3892 C3895 1.403 . S
H3893 C3899 0.930 . S
C3894 H3880 0.930 . S
C3894 C3892 1.395 . S
C3894 C3897 1.403 . S
C3895 C3892 1.403 . S
C3895 C3896 1.524 . S
C3895 C3899 1.400 . S
C3896 H3881 0.960 . S
C3896 H3882 0.960 . S
C3896 H3883 0.960 . S
C3896 C3895 1.524 . S
C3897 C3894 1.403 . S
C3897 C3898 1.392 . S
C3897 C3901 1.495 . S
C3898 C3897 1.392 . S
C3898 C3899 1.385 . S
C3898 C3900 1.478 . S
C3899 H3893 0.930 . S
C3899 C3895 1.400 . S
C3899 C3898 1.385 . S
C3900 C3898 1.478 . S
C3900 C3902 1.381 . S
C3900 C3906 1.383 . S
C3901 C3897 1.495 . S
C3901 H3907 0.959 . S
C3901 H3908 0.961 . S
C3901 H3909 0.960 . S
C3902 C3900 1.381 . S
C3902 C3903 1.394 . S
C3902 H3910 0.930 . S
C3903 C3902 1.394 . S
C3903 C3904 1.383 . S
C3903 H3911 0.929 . S
C3904 C3903 1.383 . S
C3904 C3905 1.377 . S
C3905 H3889 0.930 . S
C3905 C3904 1.377 . S
C3905 C3906 1.379 . S
C3906 H3890 0.931 . S
C3906 C3900 1.383 . S
C3906 C3905 1.379 . S
H3907 C3901 0.959 . S
H3908 C3901 0.961 . S
H3909 C3901 0.960 . S
H3910 C3902 0.930 . S
H3911 C3903 0.929 . S
H3912 C3920 0.929 . S
H3913 C3922 0.930 . S
H3914 C3924 0.930 . S
H3915 C3927 0.929 . S
H3916 C3930 0.930 . S
H3917 C3932 0.960 . S
H3918 C3932 0.960 . S
H3919 C3932 0.960 . S
C3920 H3912 0.929 . S
C3920 C3921 1.377 . S
C3920 C3922 1.384 . S
C3921 C3920 1.377 . S
C3921 C3927 1.390 . S
C3922 H3913 0.930 . S
C3922 C3920 1.384 . S
C3922 C3923 1.372 . S
C3923 C3922 1.372 . S
C3923 C3924 1.400 . S
C3923 C3928 1.490 . S
C3924 H3914 0.930 . S
C3924 C3923 1.400 . S
C3924 C3927 1.386 . S
H3925 C3941 0.930 . S
H3926 C3942 0.931 . S
C3927 H3915 0.929 . S
C3927 C3921 1.390 . S
C3927 C3924 1.386 . S
C3928 C3923 1.490 . S
C3928 C3930 1.395 . S
C3928 C3931 1.403 . S
H3929 C3935 0.930 . S
C3930 H3916 0.930 . S
C3930 C3928 1.395 . S
C3930 C3933 1.403 . S
C3931 C3928 1.403 . S
C3931 C3932 1.524 . S
C3931 C3935 1.400 . S
C3932 H3917 0.960 . S
C3932 H3918 0.960 . S
C3932 H3919 0.960 . S
C3932 C3931 1.524 . S
C3933 C3930 1.403 . S
C3933 C3934 1.392 . S
C3933 C3937 1.495 . S
C3934 C3933 1.392 . S
C3934 C3935 1.385 . S
C3934 C3936 1.478 . S
C3935 H3929 0.930 . S
C3935 C3931 1.400 . S
C3935 C3934 1.385 . S
C3936 C3934 1.478 . S
C3936 C3938 1.381 . S
C3936 C3942 1.383 . S
C3937 C3933 1.495 . S
C3937 H3943 0.959 . S
C3937 H3944 0.961 . S
C3937 H3945 0.960 . S
C3938 C3936 1.381 . S
C3938 C3939 1.394 . S
C3938 H3946 0.930 . S
C3939 C3938 1.394 . S
C3939 C3940 1.383 . S
C3939 H3947 0.929 . S
C3940 C3939 1.383 . S
C3940 C3941 1.377 . S
C3941 H3925 0.930 . S
C3941 C3940 1.377 . S
C3941 C3942 1.379 . S
C3942 H3926 0.931 . S
C3942 C3936 1.383 . S
C3942 C3941 1.379 . S
H3943 C3937 0.959 . S
H3944 C3937 0.961 . S
H3945 C3937 0.960 . S
H3946 C3938 0.930 . S
H3947 C3939 0.929 . S
H3948 C3956 0.929 . S
H3949 C3958 0.930 . S
H3950 C3960 0.930 . S
H3951 C3963 0.929 . S
H3952 C3966 0.930 . S
H3953 C3968 0.960 . S
H3954 C3968 0.960 . S
H3955 C3968 0.960 . S
C3956 H3948 0.929 . S
C3956 C3957 1.377 . S
C3956 C3958 1.384 . S
C3957 C3956 1.377 . S
C3957 C3963 1.390 . S
C3958 H3949 0.930 . S
C3958 C3956 1.384 . S
C3958 C3959 1.372 . S
C3959 C3958 1.372 . S
C3959 C3960 1.400 . S
C3959 C3964 1.490 . S
C3960 H3950 0.930 . S
C3960 C3959 1.400 . S
C3960 C3963 1.386 . S
H3961 C3977 0.930 . S
H3962 C3978 0.931 . S
C3963 H3951 0.929 . S
C3963 C3957 1.390 . S
C3963 C3960 1.386 . S
C3964 C3959 1.490 . S
C3964 C3966 1.395 . S
C3964 C3967 1.403 1_545 S
H3965 C3971 0.930 . S
C3966 H3952 0.930 . S
C3966 C3964 1.395 . S
C3966 C3969 1.403 . S
C3967 C3964 1.403 1_565 S
C3967 C3968 1.524 . S
C3967 C3971 1.400 . S
C3968 H3953 0.960 . S
C3968 H3954 0.960 . S
C3968 H3955 0.960 . S
C3968 C3967 1.524 . S
C3969 C3966 1.403 . S
C3969 C3970 1.392 1_545 S
C3969 C3973 1.495 . S
C3970 C3969 1.392 1_565 S
C3970 C3971 1.385 . S
C3970 C3972 1.478 . S
C3971 H3965 0.930 . S
C3971 C3967 1.400 . S
C3971 C3970 1.385 . S
C3972 C3970 1.478 . S
C3972 C3974 1.381 . S
C3972 C3978 1.383 . S
C3973 C3969 1.495 . S
C3973 H3979 0.959 . S
C3973 H3980 0.961 . S
C3973 H3981 0.960 . S
C3974 C3972 1.381 . S
C3974 C3975 1.394 . S
C3974 H3982 0.930 . S
C3975 C3974 1.394 . S
C3975 C3976 1.383 . S
C3975 H3983 0.929 . S
C3976 C3975 1.383 . S
C3976 C3977 1.377 . S
C3977 H3961 0.930 . S
C3977 C3976 1.377 . S
C3977 C3978 1.379 . S
C3978 H3962 0.931 . S
C3978 C3972 1.383 . S
C3978 C3977 1.379 . S
H3979 C3973 0.959 . S
H3980 C3973 0.961 . S
H3981 C3973 0.960 . S
H3982 C3974 0.930 . S
H3983 C3975 0.929 . S
H3984 C3992 0.929 . S
H3985 C3994 0.930 . S
H3986 C3996 0.930 . S
H3987 C3999 0.929 . S
H3988 C4002 0.930 . S
H3989 C4004 0.960 1_655 S
H3990 C4004 0.960 . S
H3991 C4004 0.960 . S
C3992 H3984 0.929 . S
C3992 C3993 1.377 . S
C3992 C3994 1.384 . S
C3993 C3992 1.377 . S
C3993 C3999 1.390 . S
C3994 H3985 0.930 . S
C3994 C3992 1.384 . S
C3994 C3995 1.372 . S
C3995 C3994 1.372 . S
C3995 C3996 1.400 . S
C3995 C4000 1.490 . S
C3996 H3986 0.930 . S
C3996 C3995 1.400 . S
C3996 C3999 1.386 . S
H3997 C4013 0.930 . S
H3998 C4014 0.931 . S
C3999 H3987 0.929 . S
C3999 C3993 1.390 . S
C3999 C3996 1.386 . S
C4000 C3995 1.490 . S
C4000 C4002 1.395 . S
C4000 C4003 1.403 . S
H4001 C4007 0.930 . S
C4002 H3988 0.930 . S
C4002 C4000 1.395 . S
C4002 C4005 1.403 1_455 S
C4003 C4000 1.403 . S
C4003 C4004 1.524 . S
C4003 C4007 1.400 1_455 S
C4004 H3989 0.960 1_455 S
C4004 H3990 0.960 . S
C4004 H3991 0.960 . S
C4004 C4003 1.524 . S
C4005 C4002 1.403 1_655 S
C4005 C4006 1.392 . S
C4005 C4009 1.495 . S
C4006 C4005 1.392 . S
C4006 C4007 1.385 . S
C4006 C4008 1.478 . S
C4007 H4001 0.930 . S
C4007 C4003 1.400 1_655 S
C4007 C4006 1.385 . S
C4008 C4006 1.478 . S
C4008 C4010 1.381 . S
C4008 C4014 1.383 . S
C4009 C4005 1.495 . S
C4009 H4015 0.959 1_655 S
C4009 H4016 0.961 . S
C4009 H4017 0.960 . S
C4010 C4008 1.381 . S
C4010 C4011 1.394 . S
C4010 H4018 0.930 . S
C4011 C4010 1.394 . S
C4011 C4012 1.383 . S
C4011 H4019 0.929 . S
C4012 C4011 1.383 . S
C4012 C4013 1.377 . S
C4013 H3997 0.930 . S
C4013 C4012 1.377 . S
C4013 C4014 1.379 . S
C4014 H3998 0.931 . S
C4014 C4008 1.383 . S
C4014 C4013 1.379 . S
H4015 C4009 0.959 1_455 S
H4016 C4009 0.961 . S
H4017 C4009 0.960 . S
H4018 C4010 0.930 . S
H4019 C4011 0.929 . S
H4020 C4028 0.929 . S
H4021 C4030 0.942 . S
H4022 C4032 0.930 . S
H4023 C4035 0.929 . S
H4024 C4038 0.930 . S
H4025 C4040 0.960 1_655 S
H4026 C4040 0.960 . S
H4027 C4040 0.960 . S
C4028 H4020 0.929 . S
C4028 C4029 1.377 . S
C4028 C4030 1.384 . S
C4029 C4028 1.377 . S
C4029 C4035 1.390 . S
C4030 H4021 0.942 . S
C4030 C4028 1.384 . S
C4030 C4031 1.372 . S
C4031 C4030 1.372 . S
C4031 C4032 1.400 . S
C4031 C4036 1.490 . S
C4032 H4022 0.930 . S
C4032 C4031 1.400 . S
C4032 C4035 1.386 . S
H4033 C4049 0.930 . S
H4034 C4050 0.931 . S
C4035 H4023 0.929 . S
C4035 C4029 1.390 . S
C4035 C4032 1.386 . S
C4036 C4031 1.490 . S
C4036 C4038 1.395 1_565 S
C4036 C4039 1.403 . S
H4037 C4043 0.930 . S
C4038 H4024 0.930 . S
C4038 C4036 1.395 1_545 S
C4038 C4041 1.403 1_455 S
C4039 C4036 1.403 . S
C4039 C4040 1.524 . S
C4039 C4043 1.400 1_455 S
C4040 H4025 0.960 1_455 S
C4040 H4026 0.960 . S
C4040 H4027 0.960 . S
C4040 C4039 1.524 . S
C4041 C4038 1.403 1_655 S
C4041 C4042 1.392 . S
C4041 C4045 1.495 . S
C4042 C4041 1.392 . S
C4042 C4043 1.385 1_545 S
C4042 C4044 1.478 . S
C4043 H4037 0.930 . S
C4043 C4039 1.400 1_655 S
C4043 C4042 1.385 1_565 S
C4044 C4042 1.478 . S
C4044 C4046 1.381 . S
C4044 C4050 1.383 . S
C4045 C4041 1.495 . S
C4045 H4051 0.959 1_655 S
C4045 H4052 0.961 . S
C4045 H4053 0.960 . S
C4046 C4044 1.381 . S
C4046 C4047 1.394 . S
C4046 H4054 0.930 . S
C4047 C4046 1.394 . S
C4047 C4048 1.383 . S
C4047 H4055 0.929 . S
C4048 C4047 1.383 . S
C4048 C4049 1.377 . S
C4049 H4033 0.930 . S
C4049 C4048 1.377 . S
C4049 C4050 1.379 . S
C4050 H4034 0.931 . S
C4050 C4044 1.383 . S
C4050 C4049 1.379 . S
H4051 C4045 0.959 1_455 S
H4052 C4045 0.961 . S
H4053 C4045 0.960 . S
H4054 C4046 0.930 . S
H4055 C4047 0.929 . S
H4056 C4064 0.929 . S
H4057 C4066 0.930 . S
H4058 C4068 0.930 . S
H4059 C4071 0.929 . S
H4060 C4074 0.930 . S
H4061 C4076 0.921 1_554 S
H4062 C4076 0.960 . S
H4063 C4076 0.960 . S
C4064 H4056 0.929 . S
C4064 C4065 1.377 . S
C4064 C4066 1.384 . S
C4065 C4064 1.377 . S
C4065 C4071 1.390 . S
C4066 H4057 0.930 . S
C4066 C4064 1.384 . S
C4066 C4067 1.372 . S
C4067 C4066 1.372 . S
C4067 C4068 1.400 . S
C4067 C4072 1.490 . S
C4068 H4058 0.930 . S
C4068 C4067 1.400 . S
C4068 C4071 1.386 . S
H4069 C4085 0.930 . S
H4070 C4086 0.931 . S
C4071 H4059 0.929 . S
C4071 C4065 1.390 . S
C4071 C4068 1.386 . S
C4072 C4067 1.490 . S
C4072 C4074 1.395 . S
C4072 C4075 1.403 . S
H4073 C4079 0.930 . S
C4074 H4060 0.930 . S
C4074 C4072 1.395 . S
C4074 C4077 1.403 1_556 S
C4075 C4072 1.403 . S
C4075 C4076 1.524 . S
C4075 C4079 1.400 1_556 S
C4076 H4061 0.921 1_556 S
C4076 H4062 0.960 . S
C4076 H4063 0.960 . S
C4076 C4075 1.524 . S
C4077 C4074 1.403 1_554 S
C4077 C4078 1.392 . S
C4077 C4081 1.495 . S
C4078 C4077 1.392 . S
C4078 C4079 1.385 . S
C4078 C4080 1.478 . S
C4079 H4073 0.930 . S
C4079 C4075 1.400 1_554 S
C4079 C4078 1.385 . S
C4080 C4078 1.478 . S
C4080 C4082 1.381 . S
C4080 C4086 1.383 . S
C4081 C4077 1.495 . S
C4081 H4087 0.959 . S
C4081 H4088 0.961 . S
C4081 H4089 0.960 . S
C4082 C4080 1.381 . S
C4082 C4083 1.394 . S
C4082 H4090 0.930 . S
C4083 C4082 1.394 . S
C4083 C4084 1.383 . S
C4083 H4091 0.929 . S
C4084 C4083 1.383 . S
C4084 C4085 1.377 . S
C4085 H4069 0.930 . S
C4085 C4084 1.377 . S
C4085 C4086 1.379 . S
C4086 H4070 0.931 . S
C4086 C4080 1.383 . S
C4086 C4085 1.379 . S
H4087 C4081 0.959 . S
H4088 C4081 0.961 . S
H4089 C4081 0.960 . S
H4090 C4082 0.930 . S
H4091 C4083 0.929 . S
H4092 C4100 0.929 . S
H4093 C4102 0.930 . S
H4094 C4104 0.930 . S
H4095 C4107 0.929 . S
H4096 C4110 0.930 . S
H4097 C4112 0.960 . S
H4098 C4112 0.960 . S
H4099 C4112 0.960 . S
C4100 H4092 0.929 . S
C4100 C4101 1.377 . S
C4100 C4102 1.384 . S
C4101 C4100 1.377 . S
C4101 C4107 1.390 . S
C4102 H4093 0.930 . S
C4102 C4100 1.384 . S
C4102 C4103 1.372 . S
C4103 C4102 1.372 . S
C4103 C4104 1.400 . S
C4103 C4108 1.490 . S
C4104 H4094 0.930 . S
C4104 C4103 1.400 . S
C4104 C4107 1.386 . S
H4105 C4121 0.930 . S
H4106 C4122 0.931 . S
C4107 H4095 0.929 . S
C4107 C4101 1.390 . S
C4107 C4104 1.386 . S
C4108 C4103 1.490 . S
C4108 C4110 1.395 . S
C4108 C4111 1.403 . S
H4109 C4115 0.930 . S
C4110 H4096 0.930 . S
C4110 C4108 1.395 . S
C4110 C4113 1.403 . S
C4111 C4108 1.403 . S
C4111 C4112 1.524 . S
C4111 C4115 1.400 . S
C4112 H4097 0.960 . S
C4112 H4098 0.960 . S
C4112 H4099 0.960 . S
C4112 C4111 1.524 . S
C4113 C4110 1.403 . S
C4113 C4114 1.392 . S
C4113 C4117 1.495 . S
C4114 C4113 1.392 . S
C4114 C4115 1.385 . S
C4114 C4116 1.478 . S
C4115 H4109 0.930 . S
C4115 C4111 1.400 . S
C4115 C4114 1.385 . S
C4116 C4114 1.478 . S
C4116 C4118 1.381 . S
C4116 C4122 1.383 . S
C4117 C4113 1.495 . S
C4117 H4123 0.959 . S
C4117 H4124 0.961 . S
C4117 H4125 0.960 . S
C4118 C4116 1.381 . S
C4118 C4119 1.394 . S
C4118 H4126 0.930 . S
C4119 C4118 1.394 . S
C4119 C4120 1.383 . S
C4119 H4127 0.929 . S
C4120 C4119 1.383 . S
C4120 C4121 1.377 . S
C4121 H4105 0.930 . S
C4121 C4120 1.377 . S
C4121 C4122 1.379 . S
C4122 H4106 0.931 . S
C4122 C4116 1.383 . S
C4122 C4121 1.379 . S
H4123 C4117 0.959 . S
H4124 C4117 0.961 . S
H4125 C4117 0.960 . S
H4126 C4118 0.930 . S
H4127 C4119 0.929 . S
C681 C385 0.357 . S
C700 C7 0.422 . S
C717 C21 1.203 . S
C736 C541 1.186 . S
C753 C35 0.612 . S
C772 C357 0.558 . S
C789 C569 0.439 . S
C808 C49 0.344 . S
C825 C399 0.877 . S
C844 C65 0.931 . S
C861 C77 0.372 . S
C880 C315 0.488 . S
C897 C427 0.381 . S
C916 C93 0.597 . S
C933 C105 0.613 . S
C952 C287 0.610 . S
C969 C499 0.540 . S
C988 C107 0.480 . S
C1005 C469 0.445 . S
C1024 C63 0.436 . S
C1041 C79 0.607 . S
C1060 C597 0.638 . S
C1077 C483 0.521 . S
C1096 C91 0.543 . S
C1113 C121 0.600 . S
C1132 C191 0.666 . S
C1149 C203 0.453 . S
C1168 C135 0.401 . S
C1185 C219 0.421 . S
C1204 C149 0.321 . S
C1221 C175 0.397 . S
C1240 C163 0.428 . S
C1257 C189 0.502 . S
C1276 C343 0.396 . S
C1293 C205 1.011 . S
C1312 C555 0.935 . S
C1329 C371 0.420 . S
C1348 C217 0.497 . S
C1365 C387 0.615 . S
C1384 C233 0.593 . S
C1401 C245 0.395 . S
C1420 C415 0.424 . S
C1437 C261 0.786 . S
C1456 C51 0.732 . S
C1473 C275 0.658 . S
C1492 C23 0.462 . S
C1509 C625 0.412 . S
C1528 C301 0.420 . S
C1545 C653 1.180 . S
C1564 C329 1.157 . S
C1581 C345 0.531 . S
C1600 C119 0.322 . S
C1617 C373 0.890 . S
C1636 C147 0.861 . S
C1653 C359 0.546 . S
C1672 C611 0.469 . S
C1689 C471 0.417 . S
C1708 C401 0.335 . S
C1725 C485 0.623 . S
C1744 C429 0.509 . S
C1761 C455 0.457 . S
C1780 C443 0.456 . S
C1797 C247 0.564 . S
C1816 C639 0.493 . S
C1833 C513 0.656 . S
C1852 C331 0.465 . S
C1869 C303 0.779 . S
C1888 C527 0.828 . S
C1905 C665 0.219 . S
C1924 C441 0.519 . S
C1941 C413 0.922 . S
C1960 C637 0.965 . S
C1977 C133 0.521 . S
C1996 C553 0.274 . S
C2013 C161 0.929 . S
C2032 C581 0.862 . S
C2049 C177 0.554 . S
C2068 C583 0.389 . S
C2085 C273 0.325 . S
C2104 C539 0.426 . S
C2121 C259 0.502 . S
C2140 C567 0.516 . S
C2157 C317 0.533 . S
C2176 C595 0.622 . S
C2193 C289 0.312 . S
C2212 C497 0.325 . S
C2229 C623 0.553 . S
C2248 C525 0.542 . S
C2265 C651 0.441 . S
C2284 C511 0.259 . S
C2301 C667 0.982 . S
C2320 C457 1.034 . S
C2337 C609 0.438 . S
C2356 C37 0.201 . S
C2373 C231 0.558 . S
C2392 C9 0.566 . S
C2409 C8 1.427 . S
C2428 C647 1.369 . S
C2445 C22 1.573 . S
C2464 C666 1.497 . S
C2481 C36 1.682 . S
C2500 C619 1.762 . S
C2517 C50 1.982 . S
C2536 C638 2.036 . S
C2553 C59 1.777 . S
C2572 C134 1.858 . S
C2589 C78 1.128 . S
C2608 C148 1.180 . S
C2625 C87 1.430 . S
C2644 C162 1.325 1_545 S
C2661 C106 1.971 . S
C2680 C120 1.791 . S
C2697 C101 0.834 . S
C2716 C549 0.856 . S
C2733 C64 2.076 . S
C2752 C372 2.058 . S
C2769 C73 0.943 . S
C2788 C577 0.917 . S
C2805 C92 1.989 . S
C2824 C344 1.975 . S
C2841 C115 2.147 . S
C2860 C325 1.944 . S
C2877 C129 1.442 . S
C2896 C437 1.447 . S
C2913 C143 1.212 . S
C2932 C297 1.254 1_556 S
C2949 C409 1.837 . S
C2968 C157 1.820 . S
C2985 C176 1.310 . S
C3004 C274 1.319 . S
C3021 C190 2.356 . S
C3040 C232 2.372 . S
C3057 C269 1.704 . S
C3076 C199 1.626 . S
C3093 C610 1.423 . S
C3112 C218 1.415 . S
C3129 C213 1.946 . S
C3148 C227 1.882 . S
C3165 C512 1.311 . S
C3184 C246 1.315 . S
C3201 C171 1.658 . S
C3220 C255 1.580 . S
C3237 C563 1.777 . S
C3256 C288 1.679 . S
C3273 C582 2.044 . S
C3292 C302 2.005 . S
C3309 C316 1.426 . S
C3328 C535 1.351 . S
C3345 C554 1.513 . S
C3364 C330 1.587 . S
C3381 C339 1.428 . S
C3400 C414 1.317 1_565 S
C3417 C428 1.755 . S
C3436 C358 1.977 . S
C3453 C367 1.781 . S
C3472 C442 1.857 . S
C3489 C400 1.211 . S
C3508 C386 1.139 . S
C3525 C381 0.935 . S
C3544 C633 0.865 . S
C3561 C661 0.836 . S
C3580 C353 0.779 . S
C3597 C395 1.219 . S
C3616 C45 1.293 1_556 S
C3633 C17 1.981 . S
C3652 C423 2.128 . S
C3669 C526 2.041 . S
C3688 C456 2.053 . S
C3705 C498 1.424 . S
C3724 C470 1.407 . S
C3741 C241 1.658 . S
C3760 C521 1.582 . S
C3777 C484 2.354 . S
C3796 C596 2.349 . S
C3813 C493 1.781 . S
C3832 C479 1.667 . S
C3849 C204 2.068 . S
C3868 C260 2.046 . S
C3885 C451 1.634 . S
C3904 C507 1.683 . S
C3921 C652 2.419 . S
C3940 C540 2.415 . S
C3957 C568 1.325 . S
C3976 C624 1.332 . S
C3993 C3 1.740 . S
C4012 C311 1.723 . S
C4029 C283 1.820 . S
C4048 C31 1.838 . S
C4065 C465 1.946 . S
C4084 C591 1.882 . S
C4101 C185 1.693 . S
C4120 C605 1.769 . S
